# Generated by pormake.
# Topology pyr, (3,6)-cn, num edge types: 1
# Building blocks:
#     Node 0, Type 0, BuildingBlock: KAKCAD_clean_linker_0, # of connection points: 3
#     Node 1, Type 0, BuildingBlock: KAKCAD_clean_linker_0, # of connection points: 3
#     Node 2, Type 0, BuildingBlock: KAKCAD_clean_linker_0, # of connection points: 3
#     Node 3, Type 0, BuildingBlock: KAKCAD_clean_linker_0, # of connection points: 3
#     Node 4, Type 0, BuildingBlock: KAKCAD_clean_linker_0, # of connection points: 3
#     Node 5, Type 0, BuildingBlock: KAKCAD_clean_linker_0, # of connection points: 3
#     Node 6, Type 0, BuildingBlock: KAKCAD_clean_linker_0, # of connection points: 3
#     Node 7, Type 0, BuildingBlock: KAKCAD_clean_linker_0, # of connection points: 3
#     Node 8, Type 1, BuildingBlock: MIFKUJ_clean_sbu_0, # of connection points: 6
#     Node 9, Type 1, BuildingBlock: MIFKUJ_clean_sbu_0, # of connection points: 6
#     Node 10, Type 1, BuildingBlock: MIFKUJ_clean_sbu_0, # of connection points: 6
#     Node 11, Type 1, BuildingBlock: MIFKUJ_clean_sbu_0, # of connection points: 6
#     Edge 12, Type (0, 1), BuildingBlock: KIFKEQ_clean_linker_1, # of connection points: 2
#     Edge 13, Type (0, 1), BuildingBlock: KIFKEQ_clean_linker_1, # of connection points: 2
#     Edge 14, Type (0, 1), BuildingBlock: KIFKEQ_clean_linker_1, # of connection points: 2
#     Edge 15, Type (0, 1), BuildingBlock: KIFKEQ_clean_linker_1, # of connection points: 2
#     Edge 16, Type (0, 1), BuildingBlock: KIFKEQ_clean_linker_1, # of connection points: 2
#     Edge 17, Type (0, 1), BuildingBlock: KIFKEQ_clean_linker_1, # of connection points: 2
#     Edge 18, Type (0, 1), BuildingBlock: KIFKEQ_clean_linker_1, # of connection points: 2
#     Edge 19, Type (0, 1), BuildingBlock: KIFKEQ_clean_linker_1, # of connection points: 2
#     Edge 20, Type (0, 1), BuildingBlock: KIFKEQ_clean_linker_1, # of connection points: 2
#     Edge 21, Type (0, 1), BuildingBlock: KIFKEQ_clean_linker_1, # of connection points: 2
#     Edge 22, Type (0, 1), BuildingBlock: KIFKEQ_clean_linker_1, # of connection points: 2
#     Edge 23, Type (0, 1), BuildingBlock: KIFKEQ_clean_linker_1, # of connection points: 2
#     Edge 24, Type (0, 1), BuildingBlock: KIFKEQ_clean_linker_1, # of connection points: 2
#     Edge 25, Type (0, 1), BuildingBlock: KIFKEQ_clean_linker_1, # of connection points: 2
#     Edge 26, Type (0, 1), BuildingBlock: KIFKEQ_clean_linker_1, # of connection points: 2
#     Edge 27, Type (0, 1), BuildingBlock: KIFKEQ_clean_linker_1, # of connection points: 2
#     Edge 28, Type (0, 1), BuildingBlock: KIFKEQ_clean_linker_1, # of connection points: 2
#     Edge 29, Type (0, 1), BuildingBlock: KIFKEQ_clean_linker_1, # of connection points: 2
#     Edge 30, Type (0, 1), BuildingBlock: KIFKEQ_clean_linker_1, # of connection points: 2
#     Edge 31, Type (0, 1), BuildingBlock: KIFKEQ_clean_linker_1, # of connection points: 2
#     Edge 32, Type (0, 1), BuildingBlock: KIFKEQ_clean_linker_1, # of connection points: 2
#     Edge 33, Type (0, 1), BuildingBlock: KIFKEQ_clean_linker_1, # of connection points: 2
#     Edge 34, Type (0, 1), BuildingBlock: KIFKEQ_clean_linker_1, # of connection points: 2
#     Edge 35, Type (0, 1), BuildingBlock: KIFKEQ_clean_linker_1, # of connection points: 2
# Relax obj value: 0.027
# Max RMSD: 0.079
# Mean RMSD: 0.047
data_MOF--net-pyr--node1-MIFKUJ_clean_sbu_0--node2-KAKCAD_clean_linker_0--edge1-KIFKEQ_clean_linker_1
_symmetry_space_group_name_H-M    P1
_symmetry_Int_Tables_number       1
_symmetry_cell_setting            triclinic
loop_
_symmetry_equiv_pos_as_xyz
'x, y, z'
_cell_length_a     49.101833
_cell_length_b     43.953451
_cell_length_c     47.507696
_cell_angle_alpha  86.811324
_cell_angle_beta   88.211082
_cell_angle_gamma 95.828916
loop_
_atom_site_label
_atom_site_type_symbol
_atom_site_fract_x
_atom_site_fract_y
_atom_site_fract_z
_atom_type_partial_charge
C0 C 0.14021 0.11966 0.2898 0.0
C1 C 0.15504 0.11926 0.31456 0.0
C2 C 0.15189 0.13466 0.26505 0.0
C3 C 0.17876 0.14901 0.26455 0.0
C4 C 0.1938 0.1483 0.28919 0.0
C5 C 0.18186 0.13382 0.31419 0.0
C6 C 0.19087 0.1646 0.23818 0.0
C7 C 0.17767 0.18775 0.22453 0.0
C8 C 0.18792 0.20148 0.19846 0.0
C9 C 0.21165 0.19163 0.18616 0.0
C10 C 0.22497 0.16824 0.19947 0.0
C11 C 0.21459 0.15509 0.22576 0.0
C12 C 0.24878 0.15649 0.18518 0.0
C13 C 0.24906 0.15305 0.15592 0.0
C14 C 0.27109 0.14808 0.2006 0.0
C15 C 0.29306 0.13627 0.18709 0.0
C16 C 0.29328 0.13278 0.15783 0.0
C17 C 0.17343 0.22531 0.18355 0.0
C18 C 0.14464 0.22273 0.18354 0.0
C19 C 0.1883 0.2504 0.16854 0.0
C20 C 0.17476 0.27202 0.15341 0.0
C21 C 0.14598 0.26936 0.1532 0.0
C22 C 0.13107 0.24458 0.16865 0.0
C23 C 0.2711 0.14154 0.14241 0.0
H24 H 0.11941 0.10873 0.28973 0.0
H25 H 0.14004 0.13486 0.24619 0.0
H26 H 0.21457 0.15931 0.28915 0.0
H27 H 0.19359 0.13371 0.33313 0.0
H28 H 0.15945 0.19512 0.23443 0.0
H29 H 0.22412 0.13644 0.236 0.0
H30 H 0.2195 0.20183 0.16586 0.0
H31 H 0.23204 0.1588 0.14343 0.0
H32 H 0.27163 0.15068 0.22311 0.0
H33 H 0.30966 0.12943 0.19968 0.0
H34 H 0.13253 0.20351 0.1946 0.0
H35 H 0.21047 0.25334 0.1684 0.0
H36 H 0.27074 0.1396 0.11979 0.0
H37 H 0.10889 0.24202 0.16928 0.0
H38 H 0.18696 0.29053 0.14144 0.0
C39 C 0.35447 0.88345 0.78296 0.0
C40 C 0.3831 0.88848 0.78458 0.0
C41 C 0.34263 0.87275 0.75847 0.0
C42 C 0.35918 0.86697 0.73506 0.0
C43 C 0.38777 0.87299 0.73641 0.0
C44 C 0.39957 0.88356 0.76087 0.0
C45 C 0.34685 0.85363 0.70969 0.0
C46 C 0.32271 0.86364 0.69888 0.0
C47 C 0.31099 0.85081 0.675 0.0
C48 C 0.32354 0.82746 0.66222 0.0
C49 C 0.3477 0.81735 0.6726 0.0
C50 C 0.35922 0.83054 0.69627 0.0
C51 C 0.36101 0.79313 0.65854 0.0
C52 C 0.34553 0.76614 0.6516 0.0
C53 C 0.38922 0.79705 0.65162 0.0
C54 C 0.40162 0.77465 0.63757 0.0
C55 C 0.38613 0.74763 0.6304 0.0
C56 C 0.28595 0.86205 0.66301 0.0
C57 C 0.26404 0.86854 0.6807 0.0
C58 C 0.28373 0.86613 0.63364 0.0
C59 C 0.26013 0.87619 0.6222 0.0
C60 C 0.23815 0.88257 0.63983 0.0
C61 C 0.2404 0.87866 0.66924 0.0
C62 C 0.35796 0.74357 0.63786 0.0
H63 H 0.34124 0.88679 0.80096 0.0
H64 H 0.32055 0.86809 0.75822 0.0
H65 H 0.40109 0.86943 0.71856 0.0
H66 H 0.42167 0.8878 0.76126 0.0
H67 H 0.31349 0.88204 0.70857 0.0
H68 H 0.37752 0.82217 0.70468 0.0
H69 H 0.31459 0.81719 0.64397 0.0
H70 H 0.32381 0.76236 0.65704 0.0
H71 H 0.40158 0.8178 0.6565 0.0
H72 H 0.42323 0.77885 0.63181 0.0
H73 H 0.265 0.86542 0.70341 0.0
H74 H 0.30035 0.86173 0.6194 0.0
H75 H 0.34546 0.72283 0.63327 0.0
H76 H 0.22397 0.88368 0.68344 0.0
H77 H 0.259 0.87861 0.59947 0.0
C78 C 0.74314 0.41972 0.84208 0.0
C79 C 0.76061 0.40125 0.85654 0.0
C80 C 0.71929 0.40668 0.83029 0.0
C81 C 0.71245 0.37476 0.83222 0.0
C82 C 0.73025 0.35626 0.8461 0.0
C83 C 0.75382 0.36932 0.85833 0.0
C84 C 0.68664 0.3608 0.82037 0.0
C85 C 0.67654 0.37322 0.79532 0.0
C86 C 0.65201 0.36022 0.78437 0.0
C87 C 0.63781 0.3341 0.7985 0.0
C88 C 0.64773 0.32115 0.82331 0.0
C89 C 0.67187 0.33492 0.83428 0.0
C90 C 0.63316 0.29309 0.83785 0.0
C91 C 0.60447 0.28966 0.84158 0.0
C92 C 0.64807 0.26958 0.84841 0.0
C93 C 0.6347 0.24349 0.8628 0.0
C94 C 0.60607 0.24024 0.86698 0.0
C95 C 0.64114 0.37397 0.75827 0.0
C96 C 0.64159 0.40593 0.75399 0.0
C97 C 0.62978 0.35523 0.73769 0.0
C98 C 0.61881 0.36812 0.71357 0.0
C99 C 0.61897 0.40007 0.70942 0.0
C100 C 0.63062 0.41883 0.72985 0.0
C101 C 0.59105 0.26349 0.856 0.0
H102 H 0.74787 0.44435 0.83973 0.0
H103 H 0.70602 0.42177 0.82006 0.0
H104 H 0.72604 0.33155 0.84759 0.0
H105 H 0.76646 0.35427 0.86954 0.0
H106 H 0.68804 0.39265 0.78392 0.0
H107 H 0.67883 0.3257 0.8541 0.0
H108 H 0.61899 0.32379 0.79015 0.0
H109 H 0.59245 0.30752 0.83391 0.0
H110 H 0.67015 0.27125 0.8454 0.0
H111 H 0.6468 0.22571 0.87048 0.0
H112 H 0.64998 0.421 0.76955 0.0
H113 H 0.6294 0.33055 0.74017 0.0
H114 H 0.56899 0.26177 0.85911 0.0
H115 H 0.63136 0.44354 0.72716 0.0
H116 H 0.60975 0.35298 0.69842 0.0
C117 C 0.86222 0.59113 0.21757 0.0
C118 C 0.89085 0.59316 0.21319 0.0
C119 C 0.85048 0.60503 0.24011 0.0
C120 C 0.867 0.62105 0.25926 0.0
C121 C 0.89564 0.62263 0.25519 0.0
C122 C 0.90738 0.60906 0.23241 0.0
C123 C 0.85432 0.63651 0.28294 0.0
C124 C 0.82963 0.62339 0.29663 0.0
C125 C 0.81663 0.63849 0.31786 0.0
C126 C 0.82901 0.66694 0.32559 0.0
C127 C 0.85409 0.67991 0.31306 0.0
C128 C 0.86653 0.6647 0.29167 0.0
C129 C 0.86738 0.70904 0.3231 0.0
C130 C 0.85199 0.73376 0.32727 0.0
C131 C 0.89493 0.71148 0.33067 0.0
C132 C 0.9064 0.73747 0.34352 0.0
C133 C 0.89061 0.76167 0.34889 0.0
C134 C 0.79014 0.62483 0.33198 0.0
C135 C 0.77031 0.60761 0.31699 0.0
C136 C 0.78415 0.6295 0.36051 0.0
C137 C 0.75888 0.61817 0.37337 0.0
C138 C 0.73895 0.6011 0.35837 0.0
C139 C 0.74524 0.59568 0.33005 0.0
C140 C 0.86348 0.75979 0.33987 0.0
H141 H 0.84871 0.5787 0.20362 0.0
H142 H 0.82836 0.6036 0.24217 0.0
H143 H 0.90913 0.63431 0.26963 0.0
H144 H 0.92948 0.61155 0.22967 0.0
H145 H 0.8208 0.60105 0.29109 0.0
H146 H 0.88537 0.67538 0.28136 0.0
H147 H 0.81925 0.67912 0.34163 0.0
H148 H 0.83084 0.73272 0.32122 0.0
H149 H 0.90722 0.69268 0.32786 0.0
H150 H 0.92726 0.73796 0.35035 0.0
H151 H 0.77388 0.60371 0.29494 0.0
H152 H 0.79897 0.64198 0.3731 0.0
H153 H 0.8509 0.77827 0.34297 0.0
H154 H 0.73084 0.58215 0.31781 0.0
H155 H 0.75492 0.62334 0.39503 0.0
C156 C 0.84912 0.84097 0.70705 0.0
C157 C 0.85291 0.87306 0.70304 0.0
C158 C 0.83505 0.82703 0.73111 0.0
C159 C 0.82446 0.84489 0.75162 0.0
C160 C 0.82745 0.87695 0.74718 0.0
C161 C 0.84155 0.8909 0.72312 0.0
C162 C 0.8116 0.83022 0.77825 0.0
C163 C 0.82402 0.80702 0.79283 0.0
C164 C 0.81284 0.7937 0.81876 0.0
C165 C 0.78877 0.80389 0.82999 0.0
C166 C 0.77645 0.82756 0.8159 0.0
C167 C 0.78783 0.84038 0.78993 0.0
C168 C 0.75265 0.84022 0.82899 0.0
C169 C 0.7302 0.82083 0.84076 0.0
C170 C 0.75256 0.87206 0.8301 0.0
C171 C 0.73044 0.88433 0.84265 0.0
C172 C 0.70778 0.86506 0.85422 0.0
C173 C 0.82739 0.77058 0.83469 0.0
C174 C 0.84093 0.749 0.82036 0.0
C175 C 0.82909 0.77092 0.86416 0.0
C176 C 0.84432 0.75052 0.87885 0.0
C177 C 0.85855 0.72956 0.86441 0.0
C178 C 0.8565 0.72894 0.83498 0.0
C179 C 0.70791 0.83314 0.85317 0.0
H180 H 0.85725 0.82663 0.69169 0.0
H181 H 0.83267 0.80226 0.73381 0.0
H182 H 0.81979 0.89131 0.7628 0.0
H183 H 0.84442 0.91568 0.72079 0.0
H184 H 0.84319 0.80034 0.78451 0.0
H185 H 0.77813 0.85834 0.77879 0.0
H186 H 0.77996 0.79401 0.85005 0.0
H187 H 0.72974 0.7962 0.84002 0.0
H188 H 0.76985 0.8875 0.82165 0.0
H189 H 0.73131 0.90896 0.84365 0.0
H190 H 0.83974 0.74775 0.79772 0.0
H191 H 0.81924 0.78744 0.87589 0.0
H192 H 0.69063 0.81769 0.8616 0.0
H193 H 0.86736 0.71339 0.82305 0.0
H194 H 0.84497 0.75129 0.90156 0.0
C195 C 0.61154 0.11491 0.24333 0.0
C196 C 0.62838 0.11252 0.21924 0.0
C197 C 0.62269 0.12561 0.26805 0.0
C198 C 0.65097 0.13412 0.26933 0.0
C199 C 0.66791 0.13143 0.24537 0.0
C200 C 0.65672 0.12084 0.22055 0.0
C201 C 0.66261 0.14603 0.29555 0.0
C202 C 0.68661 0.13563 0.30616 0.0
C203 C 0.69719 0.14599 0.33154 0.0
C204 C 0.6837 0.16771 0.34582 0.0
C205 C 0.6599 0.17881 0.33527 0.0
C206 C 0.64943 0.16757 0.31024 0.0
C207 C 0.64596 0.20212 0.35032 0.0
C208 C 0.64409 0.20104 0.37999 0.0
C209 C 0.63449 0.22577 0.3351 0.0
C210 C 0.62147 0.24769 0.34915 0.0
C211 C 0.61992 0.24673 0.37874 0.0
C212 C 0.72186 0.1336 0.34348 0.0
C213 C 0.72609 0.10266 0.34111 0.0
C214 C 0.74111 0.15233 0.35784 0.0
C215 C 0.76367 0.14033 0.36988 0.0
C216 C 0.76785 0.10935 0.36754 0.0
C217 C 0.74886 0.09079 0.35272 0.0
C218 C 0.63137 0.22321 0.39403 0.0
H219 H 0.58959 0.10904 0.24294 0.0
H220 H 0.60914 0.1271 0.28625 0.0
H221 H 0.68976 0.138 0.24566 0.0
H222 H 0.67026 0.11905 0.20242 0.0
H223 H 0.69686 0.11917 0.29472 0.0
H224 H 0.63088 0.17556 0.30211 0.0
H225 H 0.69166 0.17594 0.3653 0.0
H226 H 0.65219 0.18287 0.39244 0.0
H227 H 0.63596 0.22771 0.31227 0.0
H228 H 0.61312 0.26582 0.33685 0.0
H229 H 0.7116 0.08732 0.33061 0.0
H230 H 0.73887 0.17639 0.35977 0.0
H231 H 0.6302 0.22176 0.41688 0.0
H232 H 0.75156 0.067 0.34991 0.0
H233 H 0.7776 0.15534 0.38136 0.0
C234 C 0.24811 0.6049 0.16781 0.0
C235 C 0.24631 0.6063 0.13826 0.0
C236 C 0.27233 0.61582 0.18036 0.0
C237 C 0.29531 0.62832 0.16362 0.0
C238 C 0.29363 0.62915 0.1341 0.0
C239 C 0.26944 0.61847 0.1216 0.0
C240 C 0.32078 0.64131 0.17664 0.0
C241 C 0.33096 0.6268 0.20067 0.0
C242 C 0.35551 0.63888 0.21224 0.0
C243 C 0.36978 0.66582 0.19964 0.0
C244 C 0.35983 0.6806 0.17573 0.0
C245 C 0.33525 0.66836 0.1646 0.0
C246 C 0.37505 0.70873 0.16206 0.0
C247 C 0.38594 0.73258 0.17822 0.0
C248 C 0.37812 0.71218 0.13252 0.0
C249 C 0.39114 0.73917 0.11936 0.0
C250 C 0.40139 0.76339 0.13543 0.0
C251 C 0.36659 0.62327 0.23725 0.0
C252 C 0.34943 0.61281 0.26078 0.0
C253 C 0.39462 0.61934 0.23798 0.0
C254 C 0.40534 0.60566 0.26184 0.0
C255 C 0.38832 0.5957 0.28559 0.0
C256 C 0.36021 0.59929 0.28476 0.0
C257 C 0.39897 0.75967 0.16503 0.0
H258 H 0.23083 0.59528 0.1813 0.0
H259 H 0.27287 0.615 0.20315 0.0
H260 H 0.31106 0.63814 0.12052 0.0
H261 H 0.26879 0.62029 0.09881 0.0
H262 H 0.32029 0.60561 0.20986 0.0
H263 H 0.32711 0.6803 0.14668 0.0
H264 H 0.38874 0.67523 0.20837 0.0
H265 H 0.38368 0.73066 0.20102 0.0
H266 H 0.37042 0.69396 0.11952 0.0
H267 H 0.39318 0.74107 0.09655 0.0
H268 H 0.32778 0.61568 0.26087 0.0
H269 H 0.40829 0.62686 0.22006 0.0
H270 H 0.40645 0.77802 0.17798 0.0
H271 H 0.34655 0.5916 0.30265 0.0
H272 H 0.42712 0.60348 0.26191 0.0
C273 C 0.14799 0.24485 0.652 0.0
C274 C 0.12199 0.24491 0.6403 0.0
C275 C 0.15899 0.26954 0.66677 0.0
C276 C 0.14412 0.29471 0.67068 0.0
C277 C 0.11767 0.29433 0.66021 0.0
C278 C 0.10677 0.26979 0.64502 0.0
C279 C 0.15716 0.32219 0.68368 0.0
C280 C 0.18284 0.33556 0.67315 0.0
C281 C 0.19563 0.36191 0.68447 0.0
C282 C 0.18225 0.37499 0.70672 0.0
C283 C 0.15659 0.36164 0.71812 0.0
C284 C 0.14416 0.33522 0.70615 0.0
C285 C 0.14311 0.37496 0.74269 0.0
C286 C 0.1589 0.38925 0.76349 0.0
C287 C 0.11432 0.3733 0.74582 0.0
C288 C 0.10181 0.38518 0.76912 0.0
C289 C 0.11772 0.39963 0.78954 0.0
C290 C 0.22293 0.37559 0.67274 0.0
C291 C 0.24323 0.35662 0.66568 0.0
C292 C 0.22868 0.40745 0.66771 0.0
C293 C 0.25394 0.41997 0.65544 0.0
C294 C 0.27403 0.40092 0.64791 0.0
C295 C 0.26842 0.36911 0.6534 0.0
C296 C 0.14636 0.40173 0.78641 0.0
H297 H 0.16005 0.2258 0.64958 0.0
H298 H 0.17933 0.26913 0.67491 0.0
H299 H 0.1059 0.31361 0.66277 0.0
H300 H 0.08682 0.27089 0.63618 0.0
H301 H 0.19258 0.32578 0.65547 0.0
H302 H 0.12473 0.32411 0.71471 0.0
H303 H 0.192 0.39554 0.71519 0.0
H304 H 0.18103 0.39043 0.76244 0.0
H305 H 0.10133 0.36313 0.73014 0.0
H306 H 0.07966 0.3835 0.77097 0.0
H307 H 0.23968 0.33202 0.66975 0.0
H308 H 0.21341 0.42269 0.67257 0.0
H309 H 0.15907 0.41248 0.80206 0.0
H310 H 0.28361 0.35381 0.64841 0.0
H311 H 0.25749 0.44455 0.65124 0.0
Zn312 Zn 0.03542 0.99913 0.52759 0.0
Zn313 Zn 0.97368 0.99824 0.48069 0.0
C314 C 0.06063 0.06175 0.52975 0.0
O315 O 0.07884 0.05261 0.51211 0.0
C316 C 0.95496 0.93728 0.46742 0.0
O317 O 0.93926 0.94028 0.48979 0.0
O318 O 0.0681 0.98101 0.54373 0.0
O319 O 0.00167 0.97929 0.5483 0.0
O320 O 0.96578 0.98496 0.52174 0.0
C321 C 0.068 0.95334 0.55307 0.0
O322 O 0.04554 0.93453 0.55187 0.0
O323 O 0.03981 0.0434 0.53782 0.0
C324 C 0.93199 0.01513 0.44305 0.0
O325 O 0.9433 0.99608 0.42708 0.0
O326 O 0.94167 0.02026 0.46708 0.0
O327 O 0.00798 0.0262 0.46986 0.0
O328 O 0.03691 0.99494 0.48574 0.0
O329 O 0.97294 0.95922 0.45934 0.0
C330 C 0.97597 0.9769 0.54495 0.0
C331 C 0.03213 0.01837 0.47068 0.0
Zn332 Zn 0.52107 0.98527 0.98932 0.0
Zn333 Zn 0.48228 0.02239 0.0176 0.0
C334 C 0.48288 0.94873 0.95847 0.0
O335 O 0.49418 0.92737 0.97306 0.0
C336 C 0.52203 0.05732 0.04862 0.0
O337 O 0.51131 0.07974 0.03493 0.0
O338 O 0.55175 0.96356 0.974 0.0
O339 O 0.53485 0.02998 0.9853 0.0
O340 O 0.49353 0.0435 0.97967 0.0
C341 C 0.5566 0.96686 0.94752 0.0
O342 O 0.54205 0.98455 0.9322 0.0
O343 O 0.49027 0.97667 0.96254 0.0
C344 C 0.44713 0.03959 0.06041 0.0
O345 O 0.46206 0.02187 0.07521 0.0
O346 O 0.45182 0.04368 0.03394 0.0
O347 O 0.46828 0.97772 0.02094 0.0
O348 O 0.50967 0.96491 0.02748 0.0
O349 O 0.51351 0.02982 0.044 0.0
C350 C 0.51922 0.0486 0.97483 0.0
C351 C 0.48396 0.9595 0.03196 0.0
Zn352 Zn 0.51615 0.474 0.48106 0.0
Zn353 Zn 0.49178 0.52724 0.51727 0.0
C354 C 0.55381 0.51514 0.4451 0.0
O355 O 0.53405 0.51126 0.42724 0.0
C356 C 0.45473 0.49517 0.55776 0.0
O357 O 0.47252 0.50947 0.57386 0.0
O358 O 0.52363 0.43463 0.46375 0.0
O359 O 0.5141 0.46493 0.52319 0.0
O360 O 0.52583 0.51241 0.53379 0.0
C361 C 0.54069 0.41849 0.47541 0.0
O362 O 0.55188 0.42735 0.49875 0.0
O363 O 0.55038 0.5026 0.46993 0.0
C364 C 0.46617 0.58137 0.52574 0.0
O365 O 0.453 0.57158 0.50379 0.0
O366 O 0.48506 0.56644 0.53539 0.0
O367 O 0.49015 0.53625 0.47523 0.0
O368 O 0.48313 0.48872 0.46245 0.0
O369 O 0.45898 0.49794 0.53113 0.0
C370 C 0.52613 0.4838 0.53918 0.0
C371 C 0.48001 0.51696 0.45846 0.0
Zn372 Zn 0.97547 0.51488 0.97572 0.0
Zn373 Zn 0.0345 0.48058 0.02542 0.0
C374 C 0.93272 0.49893 0.93881 0.0
O375 O 0.94752 0.5203 0.92296 0.0
C376 C 0.07009 0.53102 0.04799 0.0
O377 O 0.04752 0.54383 0.05291 0.0
O378 O 0.97367 0.55807 0.96033 0.0
O379 O 0.97318 0.51563 0.01833 0.0
O380 O 0.00292 0.49604 0.04655 0.0
C381 C 0.95429 0.57168 0.97045 0.0
O382 O 0.93863 0.5579 0.99123 0.0
O383 O 0.94069 0.4916 0.96327 0.0
C384 C 0.06261 0.42972 0.03485 0.0
O385 O 0.07851 0.44642 0.01588 0.0
O386 O 0.03992 0.43897 0.04228 0.0
O387 O 0.0358 0.47739 0.98319 0.0
O388 O 0.00605 0.49703 0.955 0.0
O389 O 0.06885 0.50595 0.03578 0.0
C390 C 0.98146 0.50942 0.04288 0.0
C391 C 0.02707 0.48288 0.95872 0.0
H392 H 0.13317 0.06015 0.32257 0.0
H393 H 0.14722 0.1444 0.36486 0.0
H394 H 0.10695 0.0362 0.36407 0.0
H395 H 0.12052 0.12057 0.40636 0.0
H396 H 0.03364 0.07579 0.44548 0.0
H397 H 0.06782 0.1007 0.41086 0.0
H398 H 0.11353 0.02193 0.41775 0.0
H399 H 0.07961 0.99708 0.4527 0.0
C400 C 0.13089 0.07332 0.34095 0.0
C401 C 0.14205 0.10401 0.3407 0.0
C402 C 0.11607 0.05965 0.36466 0.0
C403 C 0.11177 0.07663 0.38828 0.0
C404 C 0.12357 0.1071 0.38832 0.0
C405 C 0.13887 0.12063 0.36476 0.0
C406 C 0.05112 0.06393 0.43981 0.0
C407 C 0.05381 0.03437 0.4515 0.0
C408 C 0.07076 0.07828 0.42022 0.0
C409 C 0.09317 0.06312 0.4117 0.0
C410 C 0.09632 0.03396 0.42397 0.0
C411 C 0.07694 0.01982 0.44394 0.0
H412 H 0.42675 0.8658 0.80925 0.0
H413 H 0.3683 0.9317 0.82011 0.0
H414 H 0.44839 0.88079 0.85246 0.0
H415 H 0.38968 0.94628 0.86397 0.0
H416 H 0.4598 0.98693 0.92051 0.0
H417 H 0.43371 0.97244 0.87946 0.0
H418 H 0.43817 0.8769 0.90348 0.0
H419 H 0.4644 0.89126 0.94417 0.0
C420 C 0.41856 0.88357 0.82086 0.0
C421 C 0.3959 0.89767 0.81117 0.0
C422 C 0.43076 0.8919 0.84582 0.0
C423 C 0.42065 0.91461 0.86174 0.0
C424 C 0.398 0.92881 0.85209 0.0
C425 C 0.38565 0.9203 0.82712 0.0
C426 C 0.45492 0.96283 0.9172 0.0
C427 C 0.46441 0.94026 0.93547 0.0
C428 C 0.4399 0.95454 0.89373 0.0
C429 C 0.43416 0.92353 0.88805 0.0
C430 C 0.4427 0.901 0.90699 0.0
C431 C 0.45762 0.90926 0.93042 0.0
H432 H 0.62262 0.38298 0.65498 0.0
H433 H 0.58726 0.44789 0.70655 0.0
H434 H 0.60082 0.40391 0.61384 0.0
H435 H 0.56563 0.46894 0.66531 0.0
H436 H 0.55297 0.5172 0.57889 0.0
H437 H 0.57647 0.49786 0.61968 0.0
H438 H 0.55426 0.40507 0.59689 0.0
H439 H 0.53108 0.42426 0.55608 0.0
C440 C 0.6101 0.40162 0.65757 0.0
C441 C 0.6066 0.41366 0.6841 0.0
C442 C 0.59763 0.41363 0.63399 0.0
C443 C 0.58141 0.438 0.63634 0.0
C444 C 0.57827 0.45041 0.66274 0.0
C445 C 0.5907 0.43835 0.68636 0.0
C446 C 0.55313 0.49267 0.58256 0.0
C447 C 0.54023 0.4723 0.56413 0.0
C448 C 0.56649 0.4816 0.60601 0.0
C449 C 0.56732 0.44994 0.61145 0.0
C450 C 0.55436 0.42961 0.59304 0.0
C451 C 0.54094 0.44064 0.56971 0.0
H452 H 0.8712 0.58858 0.15981 0.0
H453 H 0.939 0.56604 0.21015 0.0
H454 H 0.89126 0.56592 0.11974 0.0
H455 H 0.96019 0.54563 0.16936 0.0
H456 H 0.98178 0.48709 0.09789 0.0
H457 H 0.95886 0.5054 0.139 0.0
H458 H 0.92646 0.57487 0.08547 0.0
H459 H 0.9484 0.55571 0.04455 0.0
C460 C 0.89036 0.57875 0.16246 0.0
C461 C 0.90334 0.57923 0.18846 0.0
C462 C 0.90217 0.56615 0.1392 0.0
C463 C 0.92755 0.55401 0.14103 0.0
C464 C 0.94049 0.55435 0.16707 0.0
C465 C 0.9285 0.5666 0.19046 0.0
C466 C 0.96954 0.50611 0.09493 0.0
C467 C 0.9667 0.51971 0.06784 0.0
C468 C 0.95654 0.51681 0.11856 0.0
C469 C 0.94069 0.54173 0.11578 0.0
C470 C 0.9379 0.55524 0.08858 0.0
C471 C 0.95057 0.54426 0.06497 0.0
H472 H 0.34812 0.14264 0.16776 0.0
H473 H 0.29062 0.09318 0.11529 0.0
H474 H 0.38577 0.12072 0.14413 0.0
H475 H 0.32837 0.07215 0.09123 0.0
H476 H 0.40656 0.06861 0.0357 0.0
H477 H 0.36968 0.09204 0.05924 0.0
H478 H 0.40127 0.06743 0.14027 0.0
H479 H 0.43811 0.04396 0.11686 0.0
C480 C 0.34347 0.12701 0.15133 0.0
C481 C 0.31632 0.11972 0.14342 0.0
C482 C 0.36504 0.11459 0.13774 0.0
C483 C 0.35993 0.09488 0.11581 0.0
C484 C 0.33288 0.08766 0.1078 0.0
C485 C 0.3113 0.0998 0.12155 0.0
C486 C 0.40568 0.06828 0.05853 0.0
C487 C 0.42516 0.05437 0.07445 0.0
C488 C 0.38452 0.08156 0.07197 0.0
C489 C 0.38267 0.08148 0.10154 0.0
C490 C 0.40238 0.068 0.11743 0.0
C491 C 0.42334 0.05442 0.10402 0.0
H492 H 0.23477 0.92332 0.59466 0.0
H493 H 0.18459 0.86584 0.65698 0.0
H494 H 0.19374 0.93953 0.57344 0.0
H495 H 0.14349 0.88317 0.6365 0.0
H496 H 0.07569 0.89551 0.57376 0.0
H497 H 0.11666 0.8784 0.59473 0.0
H498 H 0.15716 0.97041 0.5828 0.0
H499 H 0.11655 0.98732 0.56127 0.0
C500 C 0.21498 0.91412 0.60385 0.0
C501 C 0.21301 0.89319 0.62749 0.0
C502 C 0.19143 0.92372 0.59188 0.0
C503 C 0.16528 0.9127 0.60327 0.0
C504 C 0.16329 0.89185 0.62699 0.0
C505 C 0.18687 0.88222 0.63896 0.0
C506 C 0.09336 0.91207 0.57556 0.0
C507 C 0.09285 0.94276 0.56575 0.0
C508 C 0.1168 0.9023 0.58776 0.0
C509 C 0.14024 0.92302 0.59046 0.0
C510 C 0.13965 0.95372 0.58068 0.0
C511 C 0.11627 0.96346 0.56845 0.0
H512 H 0.76777 0.45604 0.882 0.0
H513 H 0.81045 0.37821 0.86156 0.0
H514 H 0.8091 0.47938 0.9026 0.0
H515 H 0.85113 0.40105 0.88371 0.0
H516 H 0.90597 0.4427 0.95514 0.0
H517 H 0.86381 0.41833 0.93605 0.0
H518 H 0.8591 0.49823 0.88008 0.0
H519 H 0.90136 0.52228 0.89855 0.0
C520 C 0.78586 0.44388 0.88174 0.0
C521 C 0.78564 0.41521 0.86986 0.0
C522 C 0.80944 0.4572 0.8938 0.0
C523 C 0.83314 0.4419 0.89478 0.0
C524 C 0.83294 0.41309 0.88347 0.0
C525 C 0.80954 0.4 0.8709 0.0
C526 C 0.89586 0.45502 0.93881 0.0
C527 C 0.90694 0.48431 0.92824 0.0
C528 C 0.87188 0.44107 0.92785 0.0
C529 C 0.85832 0.45651 0.90668 0.0
C530 C 0.86914 0.48597 0.89651 0.0
C531 C 0.89336 0.49962 0.90699 0.0
H532 H 0.68873 0.59324 0.33393 0.0
H533 H 0.72687 0.58232 0.4142 0.0
H534 H 0.64497 0.57323 0.35577 0.0
H535 H 0.68256 0.56549 0.43663 0.0
H536 H 0.6042 0.50485 0.46396 0.0
H537 H 0.64868 0.52575 0.44352 0.0
H538 H 0.6086 0.58282 0.38394 0.0
H539 H 0.56422 0.56011 0.40329 0.0
C540 C 0.68792 0.58668 0.35626 0.0
C541 C 0.71172 0.5894 0.37208 0.0
C542 C 0.66249 0.57574 0.36902 0.0
C543 C 0.65983 0.56781 0.39819 0.0
C544 C 0.68358 0.57085 0.41409 0.0
C545 C 0.70913 0.58114 0.4012 0.0
C546 C 0.60499 0.52209 0.44666 0.0
C547 C 0.58077 0.53077 0.43514 0.0
C548 C 0.63057 0.53425 0.43492 0.0
C549 C 0.63257 0.55596 0.41174 0.0
C550 C 0.60813 0.56556 0.40115 0.0
C551 C 0.58259 0.55282 0.41245 0.0
H552 H 0.15987 0.33127 0.14591 0.0
H553 H 0.09972 0.25905 0.1226 0.0
H554 H 0.13848 0.36801 0.11588 0.0
H555 H 0.07772 0.29636 0.09347 0.0
H556 H 0.03427 0.38705 0.07203 0.0
H557 H 0.05315 0.34676 0.10082 0.0
H558 H 0.13303 0.37312 0.06128 0.0
H559 H 0.11437 0.41295 0.03238 0.0
C560 C 0.14215 0.32317 0.13438 0.0
C561 C 0.13173 0.29209 0.13648 0.0
C562 C 0.12986 0.34426 0.11731 0.0
C563 C 0.10664 0.33486 0.10228 0.0
C564 C 0.09557 0.3041 0.10499 0.0
C565 C 0.10811 0.28284 0.12178 0.0
C566 C 0.05577 0.38395 0.06926 0.0
C567 C 0.07287 0.40326 0.05007 0.0
C568 C 0.06651 0.36092 0.08566 0.0
C569 C 0.09454 0.35721 0.08339 0.0
C570 C 0.1114 0.37585 0.06362 0.0
C571 C 0.10064 0.3985 0.04698 0.0
H572 H 0.55836 0.20618 0.85493 0.0
H573 H 0.6222 0.21237 0.91552 0.0
H574 H 0.53655 0.15997 0.88073 0.0
H575 H 0.60048 0.16636 0.94122 0.0
H576 H 0.57304 0.06535 0.96044 0.0
H577 H 0.59303 0.11175 0.9342 0.0
H578 H 0.51252 0.14205 0.92586 0.0
H579 H 0.49234 0.09519 0.95182 0.0
C580 C 0.56757 0.19785 0.87389 0.0
C581 C 0.59212 0.21278 0.88305 0.0
C582 C 0.55509 0.1714 0.88866 0.0
C583 C 0.56691 0.15937 0.91289 0.0
C584 C 0.59116 0.17467 0.92231 0.0
C585 C 0.60361 0.20104 0.90758 0.0
C586 C 0.55954 0.08184 0.953 0.0
C587 C 0.53109 0.0766 0.95831 0.0
C588 C 0.57104 0.10854 0.93809 0.0
C589 C 0.55438 0.13069 0.92813 0.0
C590 C 0.52587 0.1253 0.93308 0.0
C591 C 0.51434 0.09853 0.94806 0.0
H592 H 0.86354 0.79042 0.38912 0.0
H593 H 0.94276 0.79196 0.3465 0.0
H594 H 0.88108 0.83225 0.41684 0.0
H595 H 0.9608 0.83311 0.3755 0.0
H596 H 0.97256 0.92958 0.41299 0.0
H597 H 0.95837 0.88702 0.38381 0.0
H598 H 0.91096 0.84104 0.45479 0.0
H599 H 0.92444 0.88369 0.48349 0.0
C600 C 0.8847 0.79978 0.3855 0.0
C601 C 0.90165 0.7878 0.36539 0.0
C602 C 0.89492 0.82352 0.4018 0.0
C603 C 0.92248 0.8359 0.3987 0.0
C604 C 0.93945 0.82422 0.37838 0.0
C605 C 0.92916 0.80041 0.36195 0.0
C606 C 0.95936 0.91019 0.4224 0.0
C607 C 0.94941 0.91015 0.45048 0.0
C608 C 0.95126 0.88576 0.40569 0.0
C609 C 0.93316 0.86077 0.41679 0.0
C610 C 0.92432 0.86023 0.44528 0.0
C611 C 0.93223 0.88463 0.46184 0.0
H612 H 0.43766 0.72915 0.63613 0.0
H613 H 0.36418 0.71257 0.58911 0.0
H614 H 0.45904 0.69139 0.60978 0.0
H615 H 0.38476 0.6734 0.56433 0.0
H616 H 0.43549 0.62498 0.50476 0.0
H617 H 0.41798 0.66643 0.52935 0.0
H618 H 0.45821 0.63804 0.60465 0.0
H619 H 0.47669 0.59735 0.57951 0.0
C620 C 0.42603 0.71749 0.6202 0.0
C621 C 0.39914 0.72403 0.6148 0.0
C622 C 0.43819 0.69548 0.60533 0.0
C623 C 0.4237 0.67926 0.58483 0.0
C624 C 0.39678 0.68572 0.57958 0.0
C625 C 0.38475 0.70791 0.59421 0.0
C626 C 0.44079 0.62778 0.52649 0.0
C627 C 0.45738 0.60785 0.54022 0.0
C628 C 0.43057 0.65141 0.54071 0.0
C629 C 0.43633 0.65544 0.56917 0.0
C630 C 0.45354 0.63591 0.58268 0.0
C631 C 0.46408 0.61248 0.56831 0.0
H632 H 0.90146 0.85689 0.68237 0.0
H633 H 0.84297 0.92298 0.6693 0.0
H634 H 0.93049 0.88226 0.64376 0.0
H635 H 0.87258 0.94907 0.63122 0.0
H636 H 0.92002 0.96631 0.54551 0.0
H637 H 0.88971 0.94101 0.5832 0.0
H638 H 0.95939 0.93082 0.63494 0.0
H639 H 0.98982 0.95558 0.59718 0.0
C640 C 0.89471 0.87671 0.6711 0.0
C641 C 0.86991 0.88792 0.67882 0.0
C642 C 0.91151 0.89147 0.64924 0.0
C643 C 0.9039 0.91777 0.63462 0.0
C644 C 0.8789 0.92874 0.64202 0.0
C645 C 0.86208 0.91398 0.66395 0.0
C646 C 0.92891 0.95878 0.56494 0.0
C647 C 0.95739 0.96289 0.56827 0.0
C648 C 0.9115 0.9444 0.58657 0.0
C649 C 0.9222 0.93381 0.61194 0.0
C650 C 0.9506 0.93832 0.61543 0.0
C651 C 0.96801 0.95269 0.59385 0.0
H652 H 0.64041 0.13633 0.16528 0.0
H653 H 0.58865 0.06524 0.21329 0.0
H654 H 0.61825 0.12126 0.12217 0.0
H655 H 0.56593 0.05082 0.1704 0.0
H656 H 0.54352 0.0166 0.08531 0.0
H657 H 0.57241 0.02828 0.12502 0.0
H658 H 0.57311 0.12501 0.10278 0.0
H659 H 0.54468 0.11339 0.06291 0.0
C660 C 0.62451 0.11728 0.16659 0.0
C661 C 0.61619 0.10209 0.19274 0.0
C662 C 0.61163 0.10884 0.14193 0.0
C663 C 0.59023 0.08494 0.14286 0.0
C664 C 0.5825 0.06915 0.16889 0.0
C665 C 0.59531 0.07765 0.19353 0.0
C666 C 0.55012 0.04034 0.08869 0.0
C667 C 0.54165 0.06407 0.07105 0.0
C668 C 0.56654 0.04703 0.11154 0.0
C669 C 0.57493 0.07758 0.11717 0.0
C670 C 0.56725 0.10123 0.09889 0.0
C671 C 0.55079 0.09456 0.07612 0.0
H672 H 0.37767 0.60779 0.34045 0.0
H673 H 0.42574 0.55371 0.28887 0.0
H674 H 0.39855 0.58765 0.38262 0.0
H675 H 0.44711 0.53414 0.33095 0.0
H676 H 0.45961 0.48315 0.41567 0.0
H677 H 0.43606 0.50101 0.3744 0.0
H678 H 0.44428 0.59286 0.40321 0.0
H679 H 0.46761 0.57508 0.44456 0.0
C680 C 0.39252 0.59141 0.33815 0.0
C681 C 0.40009 0.58238 0.31133 0.0
C682 C 0.40469 0.58013 0.36226 0.0
C683 C 0.42457 0.55941 0.36009 0.0
C684 C 0.43172 0.5499 0.33333 0.0
C685 C 0.41967 0.56132 0.30922 0.0
C686 C 0.45634 0.50715 0.41326 0.0
C687 C 0.4655 0.52767 0.43347 0.0
C688 C 0.44296 0.51739 0.38953 0.0
C689 C 0.43828 0.54833 0.38556 0.0
C690 C 0.44726 0.5688 0.40585 0.0
C691 C 0.46078 0.55861 0.42948 0.0
H692 H 0.12549 0.45793 0.80689 0.0
H693 H 0.08029 0.36976 0.82776 0.0
H694 H 0.10367 0.47879 0.8478 0.0
H695 H 0.05906 0.3904 0.8691 0.0
H696 H 0.05812 0.43471 0.95763 0.0
H697 H 0.07994 0.41469 0.91648 0.0
H698 H 0.05041 0.48558 0.86271 0.0
H699 H 0.02788 0.50523 0.9037 0.0
C700 C 0.11096 0.44304 0.82032 0.0
C701 C 0.10449 0.41228 0.81421 0.0
C702 C 0.09845 0.45497 0.84359 0.0
C703 C 0.07976 0.43615 0.86156 0.0
C704 C 0.0735 0.40532 0.85561 0.0
C705 C 0.08551 0.39359 0.83196 0.0
C706 C 0.05635 0.44612 0.93706 0.0
C707 C 0.04126 0.47157 0.93393 0.0
C708 C 0.06872 0.43454 0.91354 0.0
C709 C 0.06681 0.4486 0.88649 0.0
C710 C 0.05224 0.47441 0.88337 0.0
C711 C 0.0393 0.48556 0.90681 0.0
H712 H 0.67768 0.84413 0.90227 0.0
H713 H 0.68467 0.91627 0.836 0.0
H714 H 0.63984 0.86701 0.92437 0.0
H715 H 0.64811 0.94009 0.85894 0.0
H716 H 0.56509 0.96045 0.89136 0.0
H717 H 0.60009 0.93389 0.86864 0.0
H718 H 0.63171 0.91077 0.95014 0.0
H719 H 0.59597 0.93644 0.97295 0.0
C720 C 0.6711 0.86479 0.89236 0.0
C721 C 0.68427 0.87841 0.86741 0.0
C722 C 0.64965 0.87814 0.90524 0.0
C723 C 0.641 0.90546 0.89351 0.0
C724 C 0.654 0.91885 0.86839 0.0
C725 C 0.67526 0.90541 0.85544 0.0
C726 C 0.5795 0.94967 0.90444 0.0
C727 C 0.57788 0.95065 0.93393 0.0
C728 C 0.59964 0.93455 0.8914 0.0
C729 C 0.61882 0.92033 0.90754 0.0
C730 C 0.61704 0.92111 0.93709 0.0
C731 C 0.59669 0.93601 0.95016 0.0
H732 H 0.82007 0.13756 0.3728 0.0
H733 H 0.77015 0.05153 0.39195 0.0
H734 H 0.85926 0.11558 0.39314 0.0
H735 H 0.8098 0.02942 0.41078 0.0
H736 H 0.897 0.99551 0.40308 0.0
H737 H 0.85702 0.01895 0.38648 0.0
H738 H 0.87245 0.09119 0.4436 0.0
H739 H 0.91238 0.06736 0.4608 0.0
C740 C 0.81727 0.11412 0.38151 0.0
C741 C 0.7918 0.09634 0.38048 0.0
C742 C 0.83981 0.10155 0.39305 0.0
C743 C 0.8375 0.07082 0.40336 0.0
C744 C 0.81213 0.05311 0.40266 0.0
C745 C 0.78949 0.06578 0.39162 0.0
C746 C 0.8919 0.01638 0.41216 0.0
C747 C 0.90782 0.02962 0.43325 0.0
C748 C 0.86895 0.02967 0.40273 0.0
C749 C 0.86171 0.0568 0.41381 0.0
C750 C 0.87772 0.0703 0.4347 0.0
C751 C 0.90043 0.05662 0.44458 0.0
H752 H 0.24049 0.57551 0.08986 0.0
H753 H 0.19347 0.61263 0.15578 0.0
H754 H 0.19853 0.55975 0.06652 0.0
H755 H 0.15127 0.59504 0.13333 0.0
H756 H 0.08169 0.58574 0.07231 0.0
H757 H 0.1244 0.60473 0.09332 0.0
H758 H 0.16003 0.52281 0.07143 0.0
H759 H 0.1179 0.50448 0.04964 0.0
C760 C 0.2212 0.58031 0.09942 0.0
C761 C 0.22045 0.59546 0.1247 0.0
C762 C 0.19705 0.57089 0.08619 0.0
C763 C 0.17143 0.57605 0.09802 0.0
C764 C 0.17063 0.59104 0.12339 0.0
C765 C 0.19484 0.6007 0.13653 0.0
C766 C 0.09876 0.57196 0.07177 0.0
C767 C 0.09639 0.54364 0.05924 0.0
C768 C 0.12317 0.58271 0.08403 0.0
C769 C 0.14569 0.56527 0.0842 0.0
C770 C 0.14333 0.53712 0.07133 0.0
C771 C 0.11906 0.52652 0.0589 0.0
H772 H 0.30617 0.45252 0.66092 0.0
H773 H 0.30225 0.37909 0.60395 0.0
H774 H 0.34979 0.47402 0.63858 0.0
H775 H 0.34637 0.40005 0.58221 0.0
H776 H 0.41093 0.46739 0.53093 0.0
H777 H 0.36733 0.44409 0.55243 0.0
H778 H 0.39708 0.46229 0.63507 0.0
H779 H 0.44031 0.48589 0.61369 0.0
C780 C 0.31458 0.44099 0.64359 0.0
C781 C 0.30069 0.41406 0.63427 0.0
C782 C 0.33976 0.45312 0.63098 0.0
C783 C 0.35168 0.43867 0.60867 0.0
C784 C 0.3377 0.41187 0.5992 0.0
C785 C 0.31254 0.39968 0.61188 0.0
C786 C 0.40822 0.46619 0.5537 0.0
C787 C 0.42908 0.47866 0.57056 0.0
C788 C 0.38326 0.45277 0.56603 0.0
C789 C 0.3786 0.45157 0.59548 0.0
C790 C 0.39976 0.46335 0.61231 0.0
C791 C 0.42466 0.4767 0.60002 0.0
H792 H 0.89019 0.74143 0.91001 0.0
H793 H 0.86573 0.67008 0.85397 0.0
H794 H 0.91711 0.70636 0.9361 0.0
H795 H 0.89373 0.63584 0.87929 0.0
H796 H 0.9663 0.5926 0.91589 0.0
H797 H 0.94589 0.63357 0.88978 0.0
H798 H 0.90302 0.65434 0.96592 0.0
H799 H 0.92305 0.61311 0.99201 0.0
C800 C 0.89046 0.71835 0.90323 0.0
C801 C 0.87562 0.7086 0.87989 0.0
C802 C 0.90609 0.69844 0.91804 0.0
C803 C 0.9076 0.66861 0.90949 0.0
C804 C 0.89323 0.65896 0.88597 0.0
C805 C 0.87725 0.67864 0.87145 0.0
C806 C 0.953 0.60634 0.92717 0.0
C807 C 0.9461 0.59962 0.95593 0.0
C808 C 0.94122 0.6296 0.9122 0.0
C809 C 0.92281 0.64684 0.92588 0.0
C810 C 0.91727 0.6414 0.95498 0.0
C811 C 0.92865 0.6178 0.96984 0.0
H812 H 0.44747 0.79916 0.14948 0.0
H813 H 0.38323 0.79391 0.08928 0.0
H814 H 0.4675 0.84748 0.12587 0.0
H815 H 0.40372 0.84141 0.06519 0.0
H816 H 0.43018 0.9424 0.04652 0.0
H817 H 0.41055 0.8958 0.07281 0.0
H818 H 0.49142 0.86649 0.08115 0.0
H819 H 0.5112 0.91346 0.05524 0.0
C820 C 0.43762 0.80834 0.13125 0.0
C821 C 0.41381 0.79268 0.12121 0.0
C822 C 0.44923 0.83583 0.11757 0.0
C823 C 0.43718 0.84828 0.09367 0.0
C824 C 0.41333 0.83263 0.08374 0.0
C825 C 0.40178 0.80519 0.09734 0.0
C826 C 0.44382 0.92608 0.05401 0.0
C827 C 0.47225 0.93157 0.04866 0.0
C828 C 0.43254 0.89929 0.06897 0.0
C829 C 0.44941 0.87736 0.07891 0.0
C830 C 0.4779 0.88308 0.074 0.0
C831 C 0.48921 0.90991 0.05902 0.0
H832 H 0.15102 0.21341 0.60347 0.0
H833 H 0.06874 0.21905 0.63641 0.0
H834 H 0.13447 0.17105 0.57601 0.0
H835 H 0.05179 0.17805 0.6071 0.0
H836 H 0.03699 0.07966 0.57815 0.0
H837 H 0.05057 0.12497 0.60353 0.0
H838 H 0.11022 0.15656 0.53666 0.0
H839 H 0.09746 0.11038 0.51201 0.0
C840 C 0.12935 0.20568 0.60489 0.0
C841 C 0.11134 0.2196 0.62256 0.0
C842 C 0.11972 0.18164 0.5886 0.0
C843 C 0.09169 0.171 0.5891 0.0
C844 C 0.07356 0.18526 0.60637 0.0
C845 C 0.08326 0.20914 0.62296 0.0
C846 C 0.0528 0.09646 0.56871 0.0
C847 C 0.06632 0.09128 0.54317 0.0
C848 C 0.06054 0.12261 0.58325 0.0
C849 C 0.08176 0.14448 0.57241 0.0
C850 C 0.09431 0.13993 0.54611 0.0
C851 C 0.08683 0.11355 0.53179 0.0
H852 H 0.64005 0.27943 0.42194 0.0
H853 H 0.57043 0.26785 0.36891 0.0
H854 H 0.6195 0.31977 0.44547 0.0
H855 H 0.54918 0.30747 0.3931 0.0
H856 H 0.53432 0.40302 0.42084 0.0
H857 H 0.55257 0.3608 0.39788 0.0
H858 H 0.58438 0.32983 0.47715 0.0
H859 H 0.5672 0.37283 0.49965 0.0
C860 C 0.62012 0.28527 0.41563 0.0
C861 C 0.60684 0.27055 0.39361 0.0
C862 C 0.60823 0.30831 0.42919 0.0
C863 C 0.58255 0.31693 0.42133 0.0
C864 C 0.56915 0.30186 0.39945 0.0
C865 C 0.58124 0.27907 0.38564 0.0
C866 C 0.54505 0.38704 0.43336 0.0
C867 C 0.54949 0.39136 0.462 0.0
C868 C 0.55543 0.36271 0.42024 0.0
C869 C 0.57018 0.34191 0.43556 0.0
C870 C 0.57373 0.34574 0.46447 0.0
C871 C 0.56369 0.37029 0.47747 0.0
loop_
_geom_bond_atom_site_label_1
_geom_bond_atom_site_label_2
_geom_bond_distance
_geom_bond_site_symmetry_2
_ccdc_geom_bond_type
C0 C1 1.386 . S
C0 C2 1.397 . S
C0 H24 0.931 . S
C1 C0 1.386 . S
C1 C5 1.397 . S
C2 C0 1.397 . S
C2 C3 1.384 . S
C2 H25 0.930 . S
C3 C2 1.384 . S
C3 C4 1.377 . S
C3 C6 1.481 . S
C4 C3 1.377 . S
C4 C5 1.389 . S
C4 H26 0.929 . S
C5 C1 1.397 . S
C5 C4 1.389 . S
C5 H27 0.931 . S
C6 C3 1.481 . S
C6 C7 1.387 . S
C6 C11 1.390 . S
C7 C6 1.387 . S
C7 C8 1.401 . S
C7 H28 0.930 . S
C8 C7 1.401 . S
C8 C9 1.376 . S
C8 C17 1.511 . S
C9 C8 1.376 . S
C9 C10 1.392 . S
C9 H30 0.931 . S
C10 C9 1.392 . S
C10 C11 1.361 . S
C10 C12 1.500 . S
C11 C6 1.390 . S
C11 C10 1.361 . S
C11 H29 0.931 . S
C12 C10 1.500 . S
C12 C13 1.371 . S
C12 C14 1.365 . S
C13 C12 1.371 . S
C13 C23 1.386 . S
C13 H31 0.931 . S
C14 C12 1.365 . S
C14 C15 1.409 . S
C14 H32 0.929 . S
C15 C14 1.409 . S
C15 C16 1.380 . S
C15 H33 0.930 . S
C16 C15 1.380 . S
C16 C23 1.357 . S
C17 C8 1.511 . S
C17 C18 1.341 . S
C17 C19 1.371 . S
C18 C17 1.341 . S
C18 C22 1.394 . S
C18 H34 0.930 . S
C19 C17 1.371 . S
C19 C20 1.392 . S
C19 H35 0.931 . S
C20 C19 1.392 . S
C20 C21 1.331 . S
C20 H38 0.932 . S
C21 C20 1.331 . S
C21 C22 1.336 . S
C22 C18 1.394 . S
C22 C21 1.336 . S
C22 H37 0.929 . S
C23 C13 1.386 . S
C23 C16 1.357 . S
C23 H36 0.928 . S
H24 C0 0.931 . S
H25 C2 0.930 . S
H26 C4 0.929 . S
H27 C5 0.931 . S
H28 C7 0.930 . S
H29 C11 0.931 . S
H30 C9 0.931 . S
H31 C13 0.931 . S
H32 C14 0.929 . S
H33 C15 0.930 . S
H34 C18 0.930 . S
H35 C19 0.931 . S
H36 C23 0.928 . S
H37 C22 0.929 . S
H38 C20 0.932 . S
C39 C40 1.386 . S
C39 C41 1.397 . S
C39 H63 0.931 . S
C40 C39 1.386 . S
C40 C44 1.397 . S
C41 C39 1.397 . S
C41 C42 1.384 . S
C41 H64 0.930 . S
C42 C41 1.384 . S
C42 C43 1.377 . S
C42 C45 1.481 . S
C43 C42 1.377 . S
C43 C44 1.389 . S
C43 H65 0.929 . S
C44 C40 1.397 . S
C44 C43 1.389 . S
C44 H66 0.931 . S
C45 C42 1.481 . S
C45 C46 1.387 . S
C45 C50 1.390 . S
C46 C45 1.387 . S
C46 C47 1.401 . S
C46 H67 0.930 . S
C47 C46 1.401 . S
C47 C48 1.376 . S
C47 C56 1.511 . S
C48 C47 1.376 . S
C48 C49 1.392 . S
C48 H69 0.931 . S
C49 C48 1.392 . S
C49 C50 1.361 . S
C49 C51 1.500 . S
C50 C45 1.390 . S
C50 C49 1.361 . S
C50 H68 0.931 . S
C51 C49 1.500 . S
C51 C52 1.371 . S
C51 C53 1.365 . S
C52 C51 1.371 . S
C52 C62 1.386 . S
C52 H70 0.931 . S
C53 C51 1.365 . S
C53 C54 1.409 . S
C53 H71 0.929 . S
C54 C53 1.409 . S
C54 C55 1.380 . S
C54 H72 0.930 . S
C55 C54 1.380 . S
C55 C62 1.357 . S
C56 C47 1.511 . S
C56 C57 1.341 . S
C56 C58 1.371 . S
C57 C56 1.341 . S
C57 C61 1.394 . S
C57 H73 0.930 . S
C58 C56 1.371 . S
C58 C59 1.392 . S
C58 H74 0.931 . S
C59 C58 1.392 . S
C59 C60 1.331 . S
C59 H77 0.932 . S
C60 C59 1.331 . S
C60 C61 1.336 . S
C61 C57 1.394 . S
C61 C60 1.336 . S
C61 H76 0.929 . S
C62 C52 1.386 . S
C62 C55 1.357 . S
C62 H75 0.928 . S
H63 C39 0.931 . S
H64 C41 0.930 . S
H65 C43 0.929 . S
H66 C44 0.931 . S
H67 C46 0.930 . S
H68 C50 0.931 . S
H69 C48 0.931 . S
H70 C52 0.931 . S
H71 C53 0.929 . S
H72 C54 0.930 . S
H73 C57 0.930 . S
H74 C58 0.931 . S
H75 C62 0.928 . S
H76 C61 0.929 . S
H77 C59 0.932 . S
C78 C79 1.386 . S
C78 C80 1.397 . S
C78 H102 0.931 . S
C79 C78 1.386 . S
C79 C83 1.397 . S
C80 C78 1.397 . S
C80 C81 1.384 . S
C80 H103 0.930 . S
C81 C80 1.384 . S
C81 C82 1.377 . S
C81 C84 1.481 . S
C82 C81 1.377 . S
C82 C83 1.389 . S
C82 H104 0.929 . S
C83 C79 1.397 . S
C83 C82 1.389 . S
C83 H105 0.931 . S
C84 C81 1.481 . S
C84 C85 1.387 . S
C84 C89 1.390 . S
C85 C84 1.387 . S
C85 C86 1.401 . S
C85 H106 0.930 . S
C86 C85 1.401 . S
C86 C87 1.376 . S
C86 C95 1.511 . S
C87 C86 1.376 . S
C87 C88 1.392 . S
C87 H108 0.931 . S
C88 C87 1.392 . S
C88 C89 1.361 . S
C88 C90 1.500 . S
C89 C84 1.390 . S
C89 C88 1.361 . S
C89 H107 0.931 . S
C90 C88 1.500 . S
C90 C91 1.371 . S
C90 C92 1.365 . S
C91 C90 1.371 . S
C91 C101 1.386 . S
C91 H109 0.931 . S
C92 C90 1.365 . S
C92 C93 1.409 . S
C92 H110 0.929 . S
C93 C92 1.409 . S
C93 C94 1.380 . S
C93 H111 0.930 . S
C94 C93 1.380 . S
C94 C101 1.357 . S
C95 C86 1.511 . S
C95 C96 1.341 . S
C95 C97 1.371 . S
C96 C95 1.341 . S
C96 C100 1.394 . S
C96 H112 0.930 . S
C97 C95 1.371 . S
C97 C98 1.392 . S
C97 H113 0.931 . S
C98 C97 1.392 . S
C98 C99 1.331 . S
C98 H116 0.932 . S
C99 C98 1.331 . S
C99 C100 1.336 . S
C100 C96 1.394 . S
C100 C99 1.336 . S
C100 H115 0.929 . S
C101 C91 1.386 . S
C101 C94 1.357 . S
C101 H114 0.928 . S
H102 C78 0.931 . S
H103 C80 0.930 . S
H104 C82 0.929 . S
H105 C83 0.931 . S
H106 C85 0.930 . S
H107 C89 0.931 . S
H108 C87 0.931 . S
H109 C91 0.931 . S
H110 C92 0.929 . S
H111 C93 0.930 . S
H112 C96 0.930 . S
H113 C97 0.931 . S
H114 C101 0.928 . S
H115 C100 0.929 . S
H116 C98 0.932 . S
C117 C118 1.386 . S
C117 C119 1.397 . S
C117 H141 0.931 . S
C118 C117 1.386 . S
C118 C122 1.397 . S
C119 C117 1.397 . S
C119 C120 1.384 . S
C119 H142 0.930 . S
C120 C119 1.384 . S
C120 C121 1.377 . S
C120 C123 1.481 . S
C121 C120 1.377 . S
C121 C122 1.389 . S
C121 H143 0.929 . S
C122 C118 1.397 . S
C122 C121 1.389 . S
C122 H144 0.931 . S
C123 C120 1.481 . S
C123 C124 1.387 . S
C123 C128 1.390 . S
C124 C123 1.387 . S
C124 C125 1.401 . S
C124 H145 0.930 . S
C125 C124 1.401 . S
C125 C126 1.376 . S
C125 C134 1.511 . S
C126 C125 1.376 . S
C126 C127 1.392 . S
C126 H147 0.931 . S
C127 C126 1.392 . S
C127 C128 1.361 . S
C127 C129 1.500 . S
C128 C123 1.390 . S
C128 C127 1.361 . S
C128 H146 0.931 . S
C129 C127 1.500 . S
C129 C130 1.371 . S
C129 C131 1.365 . S
C130 C129 1.371 . S
C130 C140 1.386 . S
C130 H148 0.931 . S
C131 C129 1.365 . S
C131 C132 1.409 . S
C131 H149 0.929 . S
C132 C131 1.409 . S
C132 C133 1.380 . S
C132 H150 0.930 . S
C133 C132 1.380 . S
C133 C140 1.357 . S
C134 C125 1.511 . S
C134 C135 1.341 . S
C134 C136 1.371 . S
C135 C134 1.341 . S
C135 C139 1.394 . S
C135 H151 0.930 . S
C136 C134 1.371 . S
C136 C137 1.392 . S
C136 H152 0.931 . S
C137 C136 1.392 . S
C137 C138 1.331 . S
C137 H155 0.932 . S
C138 C137 1.331 . S
C138 C139 1.336 . S
C139 C135 1.394 . S
C139 C138 1.336 . S
C139 H154 0.929 . S
C140 C130 1.386 . S
C140 C133 1.357 . S
C140 H153 0.928 . S
H141 C117 0.931 . S
H142 C119 0.930 . S
H143 C121 0.929 . S
H144 C122 0.931 . S
H145 C124 0.930 . S
H146 C128 0.931 . S
H147 C126 0.931 . S
H148 C130 0.931 . S
H149 C131 0.929 . S
H150 C132 0.930 . S
H151 C135 0.930 . S
H152 C136 0.931 . S
H153 C140 0.928 . S
H154 C139 0.929 . S
H155 C137 0.932 . S
C156 C157 1.386 . S
C156 C158 1.397 . S
C156 H180 0.931 . S
C157 C156 1.386 . S
C157 C161 1.397 . S
C158 C156 1.397 . S
C158 C159 1.384 . S
C158 H181 0.930 . S
C159 C158 1.384 . S
C159 C160 1.377 . S
C159 C162 1.481 . S
C160 C159 1.377 . S
C160 C161 1.389 . S
C160 H182 0.929 . S
C161 C157 1.397 . S
C161 C160 1.389 . S
C161 H183 0.931 . S
C162 C159 1.481 . S
C162 C163 1.387 . S
C162 C167 1.390 . S
C163 C162 1.387 . S
C163 C164 1.401 . S
C163 H184 0.930 . S
C164 C163 1.401 . S
C164 C165 1.376 . S
C164 C173 1.511 . S
C165 C164 1.376 . S
C165 C166 1.392 . S
C165 H186 0.931 . S
C166 C165 1.392 . S
C166 C167 1.361 . S
C166 C168 1.500 . S
C167 C162 1.390 . S
C167 C166 1.361 . S
C167 H185 0.931 . S
C168 C166 1.500 . S
C168 C169 1.371 . S
C168 C170 1.365 . S
C169 C168 1.371 . S
C169 C179 1.386 . S
C169 H187 0.931 . S
C170 C168 1.365 . S
C170 C171 1.409 . S
C170 H188 0.929 . S
C171 C170 1.409 . S
C171 C172 1.380 . S
C171 H189 0.930 . S
C172 C171 1.380 . S
C172 C179 1.357 . S
C173 C164 1.511 . S
C173 C174 1.341 . S
C173 C175 1.371 . S
C174 C173 1.341 . S
C174 C178 1.394 . S
C174 H190 0.930 . S
C175 C173 1.371 . S
C175 C176 1.392 . S
C175 H191 0.931 . S
C176 C175 1.392 . S
C176 C177 1.331 . S
C176 H194 0.932 . S
C177 C176 1.331 . S
C177 C178 1.336 . S
C178 C174 1.394 . S
C178 C177 1.336 . S
C178 H193 0.929 . S
C179 C169 1.386 . S
C179 C172 1.357 . S
C179 H192 0.928 . S
H180 C156 0.931 . S
H181 C158 0.930 . S
H182 C160 0.929 . S
H183 C161 0.931 . S
H184 C163 0.930 . S
H185 C167 0.931 . S
H186 C165 0.931 . S
H187 C169 0.931 . S
H188 C170 0.929 . S
H189 C171 0.930 . S
H190 C174 0.930 . S
H191 C175 0.931 . S
H192 C179 0.928 . S
H193 C178 0.929 . S
H194 C176 0.932 . S
C195 C196 1.386 . S
C195 C197 1.397 . S
C195 H219 0.931 . S
C196 C195 1.386 . S
C196 C200 1.397 . S
C197 C195 1.397 . S
C197 C198 1.384 . S
C197 H220 0.930 . S
C198 C197 1.384 . S
C198 C199 1.377 . S
C198 C201 1.481 . S
C199 C198 1.377 . S
C199 C200 1.389 . S
C199 H221 0.929 . S
C200 C196 1.397 . S
C200 C199 1.389 . S
C200 H222 0.931 . S
C201 C198 1.481 . S
C201 C202 1.387 . S
C201 C206 1.390 . S
C202 C201 1.387 . S
C202 C203 1.401 . S
C202 H223 0.930 . S
C203 C202 1.401 . S
C203 C204 1.376 . S
C203 C212 1.511 . S
C204 C203 1.376 . S
C204 C205 1.392 . S
C204 H225 0.931 . S
C205 C204 1.392 . S
C205 C206 1.361 . S
C205 C207 1.500 . S
C206 C201 1.390 . S
C206 C205 1.361 . S
C206 H224 0.931 . S
C207 C205 1.500 . S
C207 C208 1.371 . S
C207 C209 1.365 . S
C208 C207 1.371 . S
C208 C218 1.386 . S
C208 H226 0.931 . S
C209 C207 1.365 . S
C209 C210 1.409 . S
C209 H227 0.929 . S
C210 C209 1.409 . S
C210 C211 1.380 . S
C210 H228 0.930 . S
C211 C210 1.380 . S
C211 C218 1.357 . S
C212 C203 1.511 . S
C212 C213 1.341 . S
C212 C214 1.371 . S
C213 C212 1.341 . S
C213 C217 1.394 . S
C213 H229 0.930 . S
C214 C212 1.371 . S
C214 C215 1.392 . S
C214 H230 0.931 . S
C215 C214 1.392 . S
C215 C216 1.331 . S
C215 H233 0.932 . S
C216 C215 1.331 . S
C216 C217 1.336 . S
C217 C213 1.394 . S
C217 C216 1.336 . S
C217 H232 0.929 . S
C218 C208 1.386 . S
C218 C211 1.357 . S
C218 H231 0.928 . S
H219 C195 0.931 . S
H220 C197 0.930 . S
H221 C199 0.929 . S
H222 C200 0.931 . S
H223 C202 0.930 . S
H224 C206 0.931 . S
H225 C204 0.931 . S
H226 C208 0.931 . S
H227 C209 0.929 . S
H228 C210 0.930 . S
H229 C213 0.930 . S
H230 C214 0.931 . S
H231 C218 0.928 . S
H232 C217 0.929 . S
H233 C215 0.932 . S
C234 C235 1.386 . S
C234 C236 1.397 . S
C234 H258 0.931 . S
C235 C234 1.386 . S
C235 C239 1.397 . S
C236 C234 1.397 . S
C236 C237 1.384 . S
C236 H259 0.930 . S
C237 C236 1.384 . S
C237 C238 1.377 . S
C237 C240 1.481 . S
C238 C237 1.377 . S
C238 C239 1.389 . S
C238 H260 0.929 . S
C239 C235 1.397 . S
C239 C238 1.389 . S
C239 H261 0.931 . S
C240 C237 1.481 . S
C240 C241 1.387 . S
C240 C245 1.390 . S
C241 C240 1.387 . S
C241 C242 1.401 . S
C241 H262 0.930 . S
C242 C241 1.401 . S
C242 C243 1.376 . S
C242 C251 1.511 . S
C243 C242 1.376 . S
C243 C244 1.392 . S
C243 H264 0.931 . S
C244 C243 1.392 . S
C244 C245 1.361 . S
C244 C246 1.500 . S
C245 C240 1.390 . S
C245 C244 1.361 . S
C245 H263 0.931 . S
C246 C244 1.500 . S
C246 C247 1.371 . S
C246 C248 1.365 . S
C247 C246 1.371 . S
C247 C257 1.386 . S
C247 H265 0.931 . S
C248 C246 1.365 . S
C248 C249 1.409 . S
C248 H266 0.929 . S
C249 C248 1.409 . S
C249 C250 1.380 . S
C249 H267 0.930 . S
C250 C249 1.380 . S
C250 C257 1.357 . S
C251 C242 1.511 . S
C251 C252 1.341 . S
C251 C253 1.371 . S
C252 C251 1.341 . S
C252 C256 1.394 . S
C252 H268 0.930 . S
C253 C251 1.371 . S
C253 C254 1.392 . S
C253 H269 0.931 . S
C254 C253 1.392 . S
C254 C255 1.331 . S
C254 H272 0.932 . S
C255 C254 1.331 . S
C255 C256 1.336 . S
C256 C252 1.394 . S
C256 C255 1.336 . S
C256 H271 0.929 . S
C257 C247 1.386 . S
C257 C250 1.357 . S
C257 H270 0.928 . S
H258 C234 0.931 . S
H259 C236 0.930 . S
H260 C238 0.929 . S
H261 C239 0.931 . S
H262 C241 0.930 . S
H263 C245 0.931 . S
H264 C243 0.931 . S
H265 C247 0.931 . S
H266 C248 0.929 . S
H267 C249 0.930 . S
H268 C252 0.930 . S
H269 C253 0.931 . S
H270 C257 0.928 . S
H271 C256 0.929 . S
H272 C254 0.932 . S
C273 C274 1.386 . S
C273 C275 1.397 . S
C273 H297 0.931 . S
C274 C273 1.386 . S
C274 C278 1.397 . S
C275 C273 1.397 . S
C275 C276 1.384 . S
C275 H298 0.930 . S
C276 C275 1.384 . S
C276 C277 1.377 . S
C276 C279 1.481 . S
C277 C276 1.377 . S
C277 C278 1.389 . S
C277 H299 0.929 . S
C278 C274 1.397 . S
C278 C277 1.389 . S
C278 H300 0.931 . S
C279 C276 1.481 . S
C279 C280 1.387 . S
C279 C284 1.390 . S
C280 C279 1.387 . S
C280 C281 1.401 . S
C280 H301 0.930 . S
C281 C280 1.401 . S
C281 C282 1.376 . S
C281 C290 1.511 . S
C282 C281 1.376 . S
C282 C283 1.392 . S
C282 H303 0.931 . S
C283 C282 1.392 . S
C283 C284 1.361 . S
C283 C285 1.500 . S
C284 C279 1.390 . S
C284 C283 1.361 . S
C284 H302 0.931 . S
C285 C283 1.500 . S
C285 C286 1.371 . S
C285 C287 1.365 . S
C286 C285 1.371 . S
C286 C296 1.386 . S
C286 H304 0.931 . S
C287 C285 1.365 . S
C287 C288 1.409 . S
C287 H305 0.929 . S
C288 C287 1.409 . S
C288 C289 1.380 . S
C288 H306 0.930 . S
C289 C288 1.380 . S
C289 C296 1.357 . S
C290 C281 1.511 . S
C290 C291 1.341 . S
C290 C292 1.371 . S
C291 C290 1.341 . S
C291 C295 1.394 . S
C291 H307 0.930 . S
C292 C290 1.371 . S
C292 C293 1.392 . S
C292 H308 0.931 . S
C293 C292 1.392 . S
C293 C294 1.331 . S
C293 H311 0.932 . S
C294 C293 1.331 . S
C294 C295 1.336 . S
C295 C291 1.394 . S
C295 C294 1.336 . S
C295 H310 0.929 . S
C296 C286 1.386 . S
C296 C289 1.357 . S
C296 H309 0.928 . S
H297 C273 0.931 . S
H298 C275 0.930 . S
H299 C277 0.929 . S
H300 C278 0.931 . S
H301 C280 0.930 . S
H302 C284 0.931 . S
H303 C282 0.931 . S
H304 C286 0.931 . S
H305 C287 0.929 . S
H306 C288 0.930 . S
H307 C291 0.930 . S
H308 C292 0.931 . S
H309 C296 0.928 . S
H310 C295 0.929 . S
H311 C293 0.932 . S
Zn312 O318 1.969 1_545 S
Zn312 O319 1.965 1_545 S
Zn312 O323 2.024 . S
Zn312 O328 1.969 . S
Zn313 O320 1.969 . S
Zn313 O326 1.969 1_565 S
Zn313 O327 1.965 1_665 S
Zn313 O329 2.024 . S
C314 O315 1.229 . S
C314 O323 1.058 . S
O315 C314 1.229 . S
C316 O317 1.229 . S
C316 O329 1.058 . S
O317 C316 1.229 . S
O318 Zn312 1.969 1_565 S
O318 C321 1.267 . S
O319 Zn312 1.965 1_565 S
O319 C330 1.260 1_455 S
O320 Zn313 1.969 . S
O320 C330 1.258 . S
C321 O318 1.267 . S
C321 O322 1.228 . S
O322 C321 1.228 . S
O323 Zn312 2.024 . S
O323 C314 1.058 . S
C324 O325 1.228 . S
C324 O326 1.267 . S
O325 C324 1.228 . S
O326 Zn313 1.969 1_545 S
O326 C324 1.267 . S
O327 Zn313 1.965 1_445 S
O327 C331 1.260 . S
O328 Zn312 1.969 . S
O328 C331 1.258 . S
O329 Zn313 2.024 . S
O329 C316 1.058 . S
C330 O319 1.260 1_655 S
C330 O320 1.258 . S
C331 O327 1.260 . S
C331 O328 1.258 . S
Zn332 O338 1.969 . S
Zn332 O339 1.965 1_565 S
Zn332 O343 2.024 . S
Zn332 O348 1.992 . S
Zn333 O340 1.969 . S
Zn333 O346 1.969 . S
Zn333 O347 1.965 1_545 S
Zn333 O349 2.024 . S
C334 O335 1.229 . S
C334 O343 1.058 . S
O335 C334 1.229 . S
C336 O337 1.229 . S
C336 O349 1.058 . S
O337 C336 1.229 . S
O338 Zn332 1.969 . S
O338 C341 1.267 . S
O339 Zn332 1.965 1_545 S
O339 C350 1.260 . S
O340 Zn333 1.969 . S
O340 C350 1.258 1_554 S
C341 O338 1.267 . S
C341 O342 1.228 . S
O342 C341 1.228 . S
O343 Zn332 2.024 . S
O343 C334 1.058 . S
C344 O345 1.228 . S
C344 O346 1.267 . S
O345 C344 1.228 . S
O346 Zn333 1.969 . S
O346 C344 1.267 . S
O347 Zn333 1.965 1_565 S
O347 C351 1.260 . S
O348 Zn332 1.992 . S
O348 C351 1.234 1_556 S
O349 Zn333 2.024 . S
O349 C336 1.058 . S
C350 O339 1.260 . S
C350 O340 1.258 1_556 S
C351 O347 1.260 . S
C351 O348 1.234 1_554 S
Zn352 O358 1.969 . S
Zn352 O359 1.965 . S
Zn352 O363 2.024 . S
Zn352 O368 1.969 . S
Zn353 O360 1.969 . S
Zn353 O366 1.969 . S
Zn353 O367 1.965 . S
Zn353 O369 2.024 . S
C354 O355 1.229 . S
C354 O363 1.058 . S
O355 C354 1.229 . S
C356 O357 1.229 . S
C356 O369 1.058 . S
O357 C356 1.229 . S
O358 Zn352 1.969 . S
O358 C361 1.267 . S
O359 Zn352 1.965 . S
O359 C370 1.260 . S
O360 Zn353 1.969 . S
O360 C370 1.258 . S
C361 O358 1.267 . S
C361 O362 1.228 . S
O362 C361 1.228 . S
O363 Zn352 2.024 . S
O363 C354 1.058 . S
C364 O365 1.228 . S
C364 O366 1.267 . S
O365 C364 1.228 . S
O366 Zn353 1.969 . S
O366 C364 1.267 . S
O367 Zn353 1.965 . S
O367 C371 1.260 . S
O368 Zn352 1.969 . S
O368 C371 1.258 . S
O369 Zn353 2.024 . S
O369 C356 1.058 . S
C370 O359 1.260 . S
C370 O360 1.258 . S
C371 O367 1.260 . S
C371 O368 1.258 . S
Zn372 O378 1.969 . S
Zn372 O379 1.965 1_556 S
Zn372 O383 2.024 . S
Zn372 O388 1.969 1_655 S
Zn373 O380 1.969 . S
Zn373 O386 1.969 . S
Zn373 O387 1.965 1_554 S
Zn373 O389 2.024 . S
C374 O375 1.229 . S
C374 O383 1.058 . S
O375 C374 1.229 . S
C376 O377 1.229 . S
C376 O389 1.058 . S
O377 C376 1.229 . S
O378 Zn372 1.969 . S
O378 C381 1.267 . S
O379 Zn372 1.965 1_554 S
O379 C390 1.260 . S
O380 Zn373 1.969 . S
O380 C390 1.258 1_455 S
C381 O378 1.267 . S
C381 O382 1.228 . S
O382 C381 1.228 . S
O383 Zn372 2.024 . S
O383 C374 1.058 . S
C384 O385 1.228 . S
C384 O386 1.267 . S
O385 C384 1.228 . S
O386 Zn373 1.969 . S
O386 C384 1.267 . S
O387 Zn373 1.965 1_556 S
O387 C391 1.260 . S
O388 Zn372 1.969 1_455 S
O388 C391 1.258 . S
O389 Zn373 2.024 . S
O389 C376 1.058 . S
C390 O379 1.260 . S
C390 O380 1.258 1_655 S
C391 O387 1.260 . S
C391 O388 1.258 . S
H392 C400 0.950 . S
H393 C405 0.950 . S
H394 C402 0.950 . S
H395 C404 0.950 . S
H396 C406 0.950 . S
H397 C408 0.950 . S
H398 C410 0.950 . S
H399 C411 0.950 . S
C400 H392 0.950 . S
C400 C401 1.386 . S
C400 C402 1.391 . S
C401 C400 1.386 . S
C401 C405 1.393 . S
C402 H394 0.950 . S
C402 C400 1.391 . S
C402 C403 1.400 . S
C403 C402 1.400 . S
C403 C404 1.398 . S
C403 C409 1.491 . S
C404 H395 0.950 . S
C404 C403 1.398 . S
C404 C405 1.391 . S
C405 H393 0.950 . S
C405 C401 1.393 . S
C405 C404 1.391 . S
C406 H396 0.950 . S
C406 C407 1.386 . S
C406 C408 1.391 . S
C407 C406 1.386 . S
C407 C411 1.393 . S
C408 H397 0.950 . S
C408 C406 1.391 . S
C408 C409 1.400 . S
C409 C403 1.491 . S
C409 C408 1.400 . S
C409 C410 1.398 . S
C410 H398 0.950 . S
C410 C409 1.398 . S
C410 C411 1.391 . S
C411 H399 0.950 . S
C411 C407 1.393 . S
C411 C410 1.391 . S
H412 C420 0.950 . S
H413 C425 0.950 . S
H414 C422 0.950 . S
H415 C424 0.950 . S
H416 C426 0.950 . S
H417 C428 0.950 . S
H418 C430 0.950 . S
H419 C431 0.950 . S
C420 H412 0.950 . S
C420 C421 1.386 . S
C420 C422 1.391 . S
C421 C420 1.386 . S
C421 C425 1.393 . S
C422 H414 0.950 . S
C422 C420 1.391 . S
C422 C423 1.400 . S
C423 C422 1.400 . S
C423 C424 1.398 . S
C423 C429 1.491 . S
C424 H415 0.950 . S
C424 C423 1.398 . S
C424 C425 1.391 . S
C425 H413 0.950 . S
C425 C421 1.393 . S
C425 C424 1.391 . S
C426 H416 0.950 . S
C426 C427 1.386 . S
C426 C428 1.391 . S
C427 C426 1.386 . S
C427 C431 1.393 . S
C428 H417 0.950 . S
C428 C426 1.391 . S
C428 C429 1.400 . S
C429 C423 1.491 . S
C429 C428 1.400 . S
C429 C430 1.398 . S
C430 H418 0.950 . S
C430 C429 1.398 . S
C430 C431 1.391 . S
C431 H419 0.950 . S
C431 C427 1.393 . S
C431 C430 1.391 . S
H432 C440 0.950 . S
H433 C445 0.950 . S
H434 C442 0.950 . S
H435 C444 0.950 . S
H436 C446 0.950 . S
H437 C448 0.950 . S
H438 C450 0.950 . S
H439 C451 0.950 . S
C440 H432 0.950 . S
C440 C441 1.386 . S
C440 C442 1.391 . S
C441 C440 1.386 . S
C441 C445 1.393 . S
C442 H434 0.950 . S
C442 C440 1.391 . S
C442 C443 1.400 . S
C443 C442 1.400 . S
C443 C444 1.398 . S
C443 C449 1.491 . S
C444 H435 0.950 . S
C444 C443 1.398 . S
C444 C445 1.391 . S
C445 H433 0.950 . S
C445 C441 1.393 . S
C445 C444 1.391 . S
C446 H436 0.950 . S
C446 C447 1.386 . S
C446 C448 1.391 . S
C447 C446 1.386 . S
C447 C451 1.393 . S
C448 H437 0.950 . S
C448 C446 1.391 . S
C448 C449 1.400 . S
C449 C443 1.491 . S
C449 C448 1.400 . S
C449 C450 1.398 . S
C450 H438 0.950 . S
C450 C449 1.398 . S
C450 C451 1.391 . S
C451 H439 0.950 . S
C451 C447 1.393 . S
C451 C450 1.391 . S
H452 C460 0.950 . S
H453 C465 0.950 . S
H454 C462 0.950 . S
H455 C464 0.950 . S
H456 C466 0.950 . S
H457 C468 0.950 . S
H458 C470 0.950 . S
H459 C471 0.950 . S
C460 H452 0.950 . S
C460 C461 1.386 . S
C460 C462 1.391 . S
C461 C460 1.386 . S
C461 C465 1.393 . S
C462 H454 0.950 . S
C462 C460 1.391 . S
C462 C463 1.400 . S
C463 C462 1.400 . S
C463 C464 1.398 . S
C463 C469 1.491 . S
C464 H455 0.950 . S
C464 C463 1.398 . S
C464 C465 1.391 . S
C465 H453 0.950 . S
C465 C461 1.393 . S
C465 C464 1.391 . S
C466 H456 0.950 . S
C466 C467 1.386 . S
C466 C468 1.391 . S
C467 C466 1.386 . S
C467 C471 1.393 . S
C468 H457 0.950 . S
C468 C466 1.391 . S
C468 C469 1.400 . S
C469 C463 1.491 . S
C469 C468 1.400 . S
C469 C470 1.398 . S
C470 H458 0.950 . S
C470 C469 1.398 . S
C470 C471 1.391 . S
C471 H459 0.950 . S
C471 C467 1.393 . S
C471 C470 1.391 . S
H472 C480 0.950 . S
H473 C485 0.950 . S
H474 C482 0.950 . S
H475 C484 0.950 . S
H476 C486 0.950 . S
H477 C488 0.950 . S
H478 C490 0.950 . S
H479 C491 0.950 . S
C480 H472 0.950 . S
C480 C481 1.386 . S
C480 C482 1.391 . S
C481 C480 1.386 . S
C481 C485 1.393 . S
C482 H474 0.950 . S
C482 C480 1.391 . S
C482 C483 1.400 . S
C483 C482 1.400 . S
C483 C484 1.398 . S
C483 C489 1.491 . S
C484 H475 0.950 . S
C484 C483 1.398 . S
C484 C485 1.391 . S
C485 H473 0.950 . S
C485 C481 1.393 . S
C485 C484 1.391 . S
C486 H476 0.950 . S
C486 C487 1.386 . S
C486 C488 1.391 . S
C487 C486 1.386 . S
C487 C491 1.393 . S
C488 H477 0.950 . S
C488 C486 1.391 . S
C488 C489 1.400 . S
C489 C483 1.491 . S
C489 C488 1.400 . S
C489 C490 1.398 . S
C490 H478 0.950 . S
C490 C489 1.398 . S
C490 C491 1.391 . S
C491 H479 0.950 . S
C491 C487 1.393 . S
C491 C490 1.391 . S
H492 C500 0.950 . S
H493 C505 0.950 . S
H494 C502 0.950 . S
H495 C504 0.950 . S
H496 C506 0.950 . S
H497 C508 0.950 . S
H498 C510 0.950 . S
H499 C511 0.950 . S
C500 H492 0.950 . S
C500 C501 1.386 . S
C500 C502 1.391 . S
C501 C500 1.386 . S
C501 C505 1.393 . S
C502 H494 0.950 . S
C502 C500 1.391 . S
C502 C503 1.400 . S
C503 C502 1.400 . S
C503 C504 1.398 . S
C503 C509 1.491 . S
C504 H495 0.950 . S
C504 C503 1.398 . S
C504 C505 1.391 . S
C505 H493 0.950 . S
C505 C501 1.393 . S
C505 C504 1.391 . S
C506 H496 0.950 . S
C506 C507 1.386 . S
C506 C508 1.391 . S
C507 C506 1.386 . S
C507 C511 1.393 . S
C508 H497 0.950 . S
C508 C506 1.391 . S
C508 C509 1.400 . S
C509 C503 1.491 . S
C509 C508 1.400 . S
C509 C510 1.398 . S
C510 H498 0.950 . S
C510 C509 1.398 . S
C510 C511 1.391 . S
C511 H499 0.950 . S
C511 C507 1.393 . S
C511 C510 1.391 . S
H512 C520 0.950 . S
H513 C525 0.950 . S
H514 C522 0.950 . S
H515 C524 0.950 . S
H516 C526 0.950 . S
H517 C528 0.950 . S
H518 C530 0.950 . S
H519 C531 0.950 . S
C520 H512 0.950 . S
C520 C521 1.386 . S
C520 C522 1.391 . S
C521 C520 1.386 . S
C521 C525 1.393 . S
C522 H514 0.950 . S
C522 C520 1.391 . S
C522 C523 1.400 . S
C523 C522 1.400 . S
C523 C524 1.398 . S
C523 C529 1.491 . S
C524 H515 0.950 . S
C524 C523 1.398 . S
C524 C525 1.391 . S
C525 H513 0.950 . S
C525 C521 1.393 . S
C525 C524 1.391 . S
C526 H516 0.950 . S
C526 C527 1.386 . S
C526 C528 1.391 . S
C527 C526 1.386 . S
C527 C531 1.393 . S
C528 H517 0.950 . S
C528 C526 1.391 . S
C528 C529 1.400 . S
C529 C523 1.491 . S
C529 C528 1.400 . S
C529 C530 1.398 . S
C530 H518 0.950 . S
C530 C529 1.398 . S
C530 C531 1.391 . S
C531 H519 0.950 . S
C531 C527 1.393 . S
C531 C530 1.391 . S
H532 C540 0.950 . S
H533 C545 0.950 . S
H534 C542 0.950 . S
H535 C544 0.950 . S
H536 C546 0.950 . S
H537 C548 0.950 . S
H538 C550 0.950 . S
H539 C551 0.950 . S
C540 H532 0.950 . S
C540 C541 1.386 . S
C540 C542 1.391 . S
C541 C540 1.386 . S
C541 C545 1.393 . S
C542 H534 0.950 . S
C542 C540 1.391 . S
C542 C543 1.400 . S
C543 C542 1.400 . S
C543 C544 1.398 . S
C543 C549 1.491 . S
C544 H535 0.950 . S
C544 C543 1.398 . S
C544 C545 1.391 . S
C545 H533 0.950 . S
C545 C541 1.393 . S
C545 C544 1.391 . S
C546 H536 0.950 . S
C546 C547 1.386 . S
C546 C548 1.391 . S
C547 C546 1.386 . S
C547 C551 1.393 . S
C548 H537 0.950 . S
C548 C546 1.391 . S
C548 C549 1.400 . S
C549 C543 1.491 . S
C549 C548 1.400 . S
C549 C550 1.398 . S
C550 H538 0.950 . S
C550 C549 1.398 . S
C550 C551 1.391 . S
C551 H539 0.950 . S
C551 C547 1.393 . S
C551 C550 1.391 . S
H552 C560 0.950 . S
H553 C565 0.950 . S
H554 C562 0.950 . S
H555 C564 0.950 . S
H556 C566 0.950 . S
H557 C568 0.950 . S
H558 C570 0.950 . S
H559 C571 0.950 . S
C560 H552 0.950 . S
C560 C561 1.386 . S
C560 C562 1.391 . S
C561 C560 1.386 . S
C561 C565 1.393 . S
C562 H554 0.950 . S
C562 C560 1.391 . S
C562 C563 1.400 . S
C563 C562 1.400 . S
C563 C564 1.398 . S
C563 C569 1.491 . S
C564 H555 0.950 . S
C564 C563 1.398 . S
C564 C565 1.391 . S
C565 H553 0.950 . S
C565 C561 1.393 . S
C565 C564 1.391 . S
C566 H556 0.950 . S
C566 C567 1.386 . S
C566 C568 1.391 . S
C567 C566 1.386 . S
C567 C571 1.393 . S
C568 H557 0.950 . S
C568 C566 1.391 . S
C568 C569 1.400 . S
C569 C563 1.491 . S
C569 C568 1.400 . S
C569 C570 1.398 . S
C570 H558 0.950 . S
C570 C569 1.398 . S
C570 C571 1.391 . S
C571 H559 0.950 . S
C571 C567 1.393 . S
C571 C570 1.391 . S
H572 C580 0.950 . S
H573 C585 0.950 . S
H574 C582 0.950 . S
H575 C584 0.950 . S
H576 C586 0.950 . S
H577 C588 0.950 . S
H578 C590 0.950 . S
H579 C591 0.950 . S
C580 H572 0.950 . S
C580 C581 1.386 . S
C580 C582 1.391 . S
C581 C580 1.386 . S
C581 C585 1.393 . S
C582 H574 0.950 . S
C582 C580 1.391 . S
C582 C583 1.400 . S
C583 C582 1.400 . S
C583 C584 1.398 . S
C583 C589 1.491 . S
C584 H575 0.950 . S
C584 C583 1.398 . S
C584 C585 1.391 . S
C585 H573 0.950 . S
C585 C581 1.393 . S
C585 C584 1.391 . S
C586 H576 0.950 . S
C586 C587 1.386 . S
C586 C588 1.391 . S
C587 C586 1.386 . S
C587 C591 1.393 . S
C588 H577 0.950 . S
C588 C586 1.391 . S
C588 C589 1.400 . S
C589 C583 1.491 . S
C589 C588 1.400 . S
C589 C590 1.398 . S
C590 H578 0.950 . S
C590 C589 1.398 . S
C590 C591 1.391 . S
C591 H579 0.950 . S
C591 C587 1.393 . S
C591 C590 1.391 . S
H592 C600 0.950 . S
H593 C605 0.950 . S
H594 C602 0.950 . S
H595 C604 0.950 . S
H596 C606 0.950 . S
H597 C608 0.950 . S
H598 C610 0.950 . S
H599 C611 0.950 . S
C600 H592 0.950 . S
C600 C601 1.386 . S
C600 C602 1.391 . S
C601 C600 1.386 . S
C601 C605 1.393 . S
C602 H594 0.950 . S
C602 C600 1.391 . S
C602 C603 1.400 . S
C603 C602 1.400 . S
C603 C604 1.398 . S
C603 C609 1.491 . S
C604 H595 0.950 . S
C604 C603 1.398 . S
C604 C605 1.391 . S
C605 H593 0.950 . S
C605 C601 1.393 . S
C605 C604 1.391 . S
C606 H596 0.950 . S
C606 C607 1.386 . S
C606 C608 1.391 . S
C607 C606 1.386 . S
C607 C611 1.393 . S
C608 H597 0.950 . S
C608 C606 1.391 . S
C608 C609 1.400 . S
C609 C603 1.491 . S
C609 C608 1.400 . S
C609 C610 1.398 . S
C610 H598 0.950 . S
C610 C609 1.398 . S
C610 C611 1.391 . S
C611 H599 0.950 . S
C611 C607 1.393 . S
C611 C610 1.391 . S
H612 C620 0.950 . S
H613 C625 0.950 . S
H614 C622 0.950 . S
H615 C624 0.950 . S
H616 C626 0.950 . S
H617 C628 0.950 . S
H618 C630 0.950 . S
H619 C631 0.950 . S
C620 H612 0.950 . S
C620 C621 1.386 . S
C620 C622 1.391 . S
C621 C620 1.386 . S
C621 C625 1.393 . S
C622 H614 0.950 . S
C622 C620 1.391 . S
C622 C623 1.400 . S
C623 C622 1.400 . S
C623 C624 1.398 . S
C623 C629 1.491 . S
C624 H615 0.950 . S
C624 C623 1.398 . S
C624 C625 1.391 . S
C625 H613 0.950 . S
C625 C621 1.393 . S
C625 C624 1.391 . S
C626 H616 0.950 . S
C626 C627 1.386 . S
C626 C628 1.391 . S
C627 C626 1.386 . S
C627 C631 1.393 . S
C628 H617 0.950 . S
C628 C626 1.391 . S
C628 C629 1.400 . S
C629 C623 1.491 . S
C629 C628 1.400 . S
C629 C630 1.398 . S
C630 H618 0.950 . S
C630 C629 1.398 . S
C630 C631 1.391 . S
C631 H619 0.950 . S
C631 C627 1.393 . S
C631 C630 1.391 . S
H632 C640 0.950 . S
H633 C645 0.950 . S
H634 C642 0.950 . S
H635 C644 0.950 . S
H636 C646 0.950 . S
H637 C648 0.950 . S
H638 C650 0.950 . S
H639 C651 0.950 . S
C640 H632 0.950 . S
C640 C641 1.386 . S
C640 C642 1.391 . S
C641 C640 1.386 . S
C641 C645 1.393 . S
C642 H634 0.950 . S
C642 C640 1.391 . S
C642 C643 1.400 . S
C643 C642 1.400 . S
C643 C644 1.398 . S
C643 C649 1.491 . S
C644 H635 0.950 . S
C644 C643 1.398 . S
C644 C645 1.391 . S
C645 H633 0.950 . S
C645 C641 1.393 . S
C645 C644 1.391 . S
C646 H636 0.950 . S
C646 C647 1.386 . S
C646 C648 1.391 . S
C647 C646 1.386 . S
C647 C651 1.393 . S
C648 H637 0.950 . S
C648 C646 1.391 . S
C648 C649 1.400 . S
C649 C643 1.491 . S
C649 C648 1.400 . S
C649 C650 1.398 . S
C650 H638 0.950 . S
C650 C649 1.398 . S
C650 C651 1.391 . S
C651 H639 0.950 . S
C651 C647 1.393 . S
C651 C650 1.391 . S
H652 C660 0.950 . S
H653 C665 0.950 . S
H654 C662 0.950 . S
H655 C664 0.950 . S
H656 C666 0.950 . S
H657 C668 0.950 . S
H658 C670 0.950 . S
H659 C671 0.950 . S
C660 H652 0.950 . S
C660 C661 1.386 . S
C660 C662 1.391 . S
C661 C660 1.386 . S
C661 C665 1.393 . S
C662 H654 0.950 . S
C662 C660 1.391 . S
C662 C663 1.400 . S
C663 C662 1.400 . S
C663 C664 1.398 . S
C663 C669 1.491 . S
C664 H655 0.950 . S
C664 C663 1.398 . S
C664 C665 1.391 . S
C665 H653 0.950 . S
C665 C661 1.393 . S
C665 C664 1.391 . S
C666 H656 0.950 . S
C666 C667 1.386 . S
C666 C668 1.391 . S
C667 C666 1.386 . S
C667 C671 1.393 . S
C668 H657 0.950 . S
C668 C666 1.391 . S
C668 C669 1.400 . S
C669 C663 1.491 . S
C669 C668 1.400 . S
C669 C670 1.398 . S
C670 H658 0.950 . S
C670 C669 1.398 . S
C670 C671 1.391 . S
C671 H659 0.950 . S
C671 C667 1.393 . S
C671 C670 1.391 . S
H672 C680 0.950 . S
H673 C685 0.950 . S
H674 C682 0.950 . S
H675 C684 0.950 . S
H676 C686 0.950 . S
H677 C688 0.950 . S
H678 C690 0.950 . S
H679 C691 0.950 . S
C680 H672 0.950 . S
C680 C681 1.386 . S
C680 C682 1.391 . S
C681 C680 1.386 . S
C681 C685 1.393 . S
C682 H674 0.950 . S
C682 C680 1.391 . S
C682 C683 1.400 . S
C683 C682 1.400 . S
C683 C684 1.398 . S
C683 C689 1.491 . S
C684 H675 0.950 . S
C684 C683 1.398 . S
C684 C685 1.391 . S
C685 H673 0.950 . S
C685 C681 1.393 . S
C685 C684 1.391 . S
C686 H676 0.950 . S
C686 C687 1.386 . S
C686 C688 1.391 . S
C687 C686 1.386 . S
C687 C691 1.393 . S
C688 H677 0.950 . S
C688 C686 1.391 . S
C688 C689 1.400 . S
C689 C683 1.491 . S
C689 C688 1.400 . S
C689 C690 1.398 . S
C690 H678 0.950 . S
C690 C689 1.398 . S
C690 C691 1.391 . S
C691 H679 0.950 . S
C691 C687 1.393 . S
C691 C690 1.391 . S
H692 C700 0.950 . S
H693 C705 0.950 . S
H694 C702 0.950 . S
H695 C704 0.950 . S
H696 C706 0.950 . S
H697 C708 0.950 . S
H698 C710 0.950 . S
H699 C711 0.950 . S
C700 H692 0.950 . S
C700 C701 1.386 . S
C700 C702 1.391 . S
C701 C700 1.386 . S
C701 C705 1.393 . S
C702 H694 0.950 . S
C702 C700 1.391 . S
C702 C703 1.400 . S
C703 C702 1.400 . S
C703 C704 1.398 . S
C703 C709 1.491 . S
C704 H695 0.950 . S
C704 C703 1.398 . S
C704 C705 1.391 . S
C705 H693 0.950 . S
C705 C701 1.393 . S
C705 C704 1.391 . S
C706 H696 0.950 . S
C706 C707 1.386 . S
C706 C708 1.391 . S
C707 C706 1.386 . S
C707 C711 1.393 . S
C708 H697 0.950 . S
C708 C706 1.391 . S
C708 C709 1.400 . S
C709 C703 1.491 . S
C709 C708 1.400 . S
C709 C710 1.398 . S
C710 H698 0.950 . S
C710 C709 1.398 . S
C710 C711 1.391 . S
C711 H699 0.950 . S
C711 C707 1.393 . S
C711 C710 1.391 . S
H712 C720 0.950 . S
H713 C725 0.950 . S
H714 C722 0.950 . S
H715 C724 0.950 . S
H716 C726 0.950 . S
H717 C728 0.950 . S
H718 C730 0.950 . S
H719 C731 0.950 . S
C720 H712 0.950 . S
C720 C721 1.386 . S
C720 C722 1.391 . S
C721 C720 1.386 . S
C721 C725 1.393 . S
C722 H714 0.950 . S
C722 C720 1.391 . S
C722 C723 1.400 . S
C723 C722 1.400 . S
C723 C724 1.398 . S
C723 C729 1.491 . S
C724 H715 0.950 . S
C724 C723 1.398 . S
C724 C725 1.391 . S
C725 H713 0.950 . S
C725 C721 1.393 . S
C725 C724 1.391 . S
C726 H716 0.950 . S
C726 C727 1.386 . S
C726 C728 1.391 . S
C727 C726 1.386 . S
C727 C731 1.393 . S
C728 H717 0.950 . S
C728 C726 1.391 . S
C728 C729 1.400 . S
C729 C723 1.491 . S
C729 C728 1.400 . S
C729 C730 1.398 . S
C730 H718 0.950 . S
C730 C729 1.398 . S
C730 C731 1.391 . S
C731 H719 0.950 . S
C731 C727 1.393 . S
C731 C730 1.391 . S
H732 C740 0.950 . S
H733 C745 0.950 . S
H734 C742 0.950 . S
H735 C744 0.950 . S
H736 C746 0.950 . S
H737 C748 0.950 . S
H738 C750 0.950 . S
H739 C751 0.950 . S
C740 H732 0.950 . S
C740 C741 1.386 . S
C740 C742 1.391 . S
C741 C740 1.386 . S
C741 C745 1.393 . S
C742 H734 0.950 . S
C742 C740 1.391 . S
C742 C743 1.400 . S
C743 C742 1.400 . S
C743 C744 1.398 . S
C743 C749 1.491 . S
C744 H735 0.950 . S
C744 C743 1.398 . S
C744 C745 1.391 . S
C745 H733 0.950 . S
C745 C741 1.393 . S
C745 C744 1.391 . S
C746 H736 0.950 . S
C746 C747 1.386 . S
C746 C748 1.391 . S
C747 C746 1.386 . S
C747 C751 1.393 . S
C748 H737 0.950 . S
C748 C746 1.391 . S
C748 C749 1.400 . S
C749 C743 1.491 . S
C749 C748 1.400 . S
C749 C750 1.398 . S
C750 H738 0.950 . S
C750 C749 1.398 . S
C750 C751 1.391 . S
C751 H739 0.950 . S
C751 C747 1.393 . S
C751 C750 1.391 . S
H752 C760 0.950 . S
H753 C765 0.950 . S
H754 C762 0.950 . S
H755 C764 0.950 . S
H756 C766 0.950 . S
H757 C768 0.950 . S
H758 C770 0.950 . S
H759 C771 0.950 . S
C760 H752 0.950 . S
C760 C761 1.386 . S
C760 C762 1.391 . S
C761 C760 1.386 . S
C761 C765 1.393 . S
C762 H754 0.950 . S
C762 C760 1.391 . S
C762 C763 1.400 . S
C763 C762 1.400 . S
C763 C764 1.398 . S
C763 C769 1.491 . S
C764 H755 0.950 . S
C764 C763 1.398 . S
C764 C765 1.391 . S
C765 H753 0.950 . S
C765 C761 1.393 . S
C765 C764 1.391 . S
C766 H756 0.950 . S
C766 C767 1.386 . S
C766 C768 1.391 . S
C767 C766 1.386 . S
C767 C771 1.393 . S
C768 H757 0.950 . S
C768 C766 1.391 . S
C768 C769 1.400 . S
C769 C763 1.491 . S
C769 C768 1.400 . S
C769 C770 1.398 . S
C770 H758 0.950 . S
C770 C769 1.398 . S
C770 C771 1.391 . S
C771 H759 0.950 . S
C771 C767 1.393 . S
C771 C770 1.391 . S
H772 C780 0.950 . S
H773 C785 0.950 . S
H774 C782 0.950 . S
H775 C784 0.950 . S
H776 C786 0.950 . S
H777 C788 0.950 . S
H778 C790 0.950 . S
H779 C791 0.950 . S
C780 H772 0.950 . S
C780 C781 1.386 . S
C780 C782 1.391 . S
C781 C780 1.386 . S
C781 C785 1.393 . S
C782 H774 0.950 . S
C782 C780 1.391 . S
C782 C783 1.400 . S
C783 C782 1.400 . S
C783 C784 1.398 . S
C783 C789 1.491 . S
C784 H775 0.950 . S
C784 C783 1.398 . S
C784 C785 1.391 . S
C785 H773 0.950 . S
C785 C781 1.393 . S
C785 C784 1.391 . S
C786 H776 0.950 . S
C786 C787 1.386 . S
C786 C788 1.391 . S
C787 C786 1.386 . S
C787 C791 1.393 . S
C788 H777 0.950 . S
C788 C786 1.391 . S
C788 C789 1.400 . S
C789 C783 1.491 . S
C789 C788 1.400 . S
C789 C790 1.398 . S
C790 H778 0.950 . S
C790 C789 1.398 . S
C790 C791 1.391 . S
C791 H779 0.950 . S
C791 C787 1.393 . S
C791 C790 1.391 . S
H792 C800 0.950 . S
H793 C805 0.950 . S
H794 C802 0.950 . S
H795 C804 0.950 . S
H796 C806 0.950 . S
H797 C808 0.950 . S
H798 C810 0.950 . S
H799 C811 0.950 . S
C800 H792 0.950 . S
C800 C801 1.386 . S
C800 C802 1.391 . S
C801 C800 1.386 . S
C801 C805 1.393 . S
C802 H794 0.950 . S
C802 C800 1.391 . S
C802 C803 1.400 . S
C803 C802 1.400 . S
C803 C804 1.398 . S
C803 C809 1.491 . S
C804 H795 0.950 . S
C804 C803 1.398 . S
C804 C805 1.391 . S
C805 H793 0.950 . S
C805 C801 1.393 . S
C805 C804 1.391 . S
C806 H796 0.950 . S
C806 C807 1.386 . S
C806 C808 1.391 . S
C807 C806 1.386 . S
C807 C811 1.393 . S
C808 H797 0.950 . S
C808 C806 1.391 . S
C808 C809 1.400 . S
C809 C803 1.491 . S
C809 C808 1.400 . S
C809 C810 1.398 . S
C810 H798 0.950 . S
C810 C809 1.398 . S
C810 C811 1.391 . S
C811 H799 0.950 . S
C811 C807 1.393 . S
C811 C810 1.391 . S
H812 C820 0.950 . S
H813 C825 0.950 . S
H814 C822 0.950 . S
H815 C824 0.950 . S
H816 C826 0.950 . S
H817 C828 0.950 . S
H818 C830 0.950 . S
H819 C831 0.950 . S
C820 H812 0.950 . S
C820 C821 1.386 . S
C820 C822 1.391 . S
C821 C820 1.386 . S
C821 C825 1.393 . S
C822 H814 0.950 . S
C822 C820 1.391 . S
C822 C823 1.400 . S
C823 C822 1.400 . S
C823 C824 1.398 . S
C823 C829 1.491 . S
C824 H815 0.950 . S
C824 C823 1.398 . S
C824 C825 1.391 . S
C825 H813 0.950 . S
C825 C821 1.393 . S
C825 C824 1.391 . S
C826 H816 0.950 . S
C826 C827 1.386 . S
C826 C828 1.391 . S
C827 C826 1.386 . S
C827 C831 1.393 . S
C828 H817 0.950 . S
C828 C826 1.391 . S
C828 C829 1.400 . S
C829 C823 1.491 . S
C829 C828 1.400 . S
C829 C830 1.398 . S
C830 H818 0.950 . S
C830 C829 1.398 . S
C830 C831 1.391 . S
C831 H819 0.950 . S
C831 C827 1.393 . S
C831 C830 1.391 . S
H832 C840 0.950 . S
H833 C845 0.950 . S
H834 C842 0.950 . S
H835 C844 0.950 . S
H836 C846 0.950 . S
H837 C848 0.950 . S
H838 C850 0.950 . S
H839 C851 0.950 . S
C840 H832 0.950 . S
C840 C841 1.386 . S
C840 C842 1.391 . S
C841 C840 1.386 . S
C841 C845 1.393 . S
C842 H834 0.950 . S
C842 C840 1.391 . S
C842 C843 1.400 . S
C843 C842 1.400 . S
C843 C844 1.398 . S
C843 C849 1.491 . S
C844 H835 0.950 . S
C844 C843 1.398 . S
C844 C845 1.391 . S
C845 H833 0.950 . S
C845 C841 1.393 . S
C845 C844 1.391 . S
C846 H836 0.950 . S
C846 C847 1.386 . S
C846 C848 1.391 . S
C847 C846 1.386 . S
C847 C851 1.393 . S
C848 H837 0.950 . S
C848 C846 1.391 . S
C848 C849 1.400 . S
C849 C843 1.491 . S
C849 C848 1.400 . S
C849 C850 1.398 . S
C850 H838 0.950 . S
C850 C849 1.398 . S
C850 C851 1.391 . S
C851 H839 0.950 . S
C851 C847 1.393 . S
C851 C850 1.391 . S
H852 C860 0.950 . S
H853 C865 0.950 . S
H854 C862 0.950 . S
H855 C864 0.950 . S
H856 C866 0.950 . S
H857 C868 0.950 . S
H858 C870 0.950 . S
H859 C871 0.950 . S
C860 H852 0.950 . S
C860 C861 1.386 . S
C860 C862 1.391 . S
C861 C860 1.386 . S
C861 C865 1.393 . S
C862 H854 0.950 . S
C862 C860 1.391 . S
C862 C863 1.400 . S
C863 C862 1.400 . S
C863 C864 1.398 . S
C863 C869 1.491 . S
C864 H855 0.950 . S
C864 C863 1.398 . S
C864 C865 1.391 . S
C865 H853 0.950 . S
C865 C861 1.393 . S
C865 C864 1.391 . S
C866 H856 0.950 . S
C866 C867 1.386 . S
C866 C868 1.391 . S
C867 C866 1.386 . S
C867 C871 1.393 . S
C868 H857 0.950 . S
C868 C866 1.391 . S
C868 C869 1.400 . S
C869 C863 1.491 . S
C869 C868 1.400 . S
C869 C870 1.398 . S
C870 H858 0.950 . S
C870 C869 1.398 . S
C870 C871 1.391 . S
C871 H859 0.950 . S
C871 C867 1.393 . S
C871 C870 1.391 . S
C401 C1 1.533 . S
C407 C331 1.506 . S
C421 C40 1.300 . S
C427 C334 1.268 . S
C447 C370 1.758 . S
C441 C99 1.771 . S
C461 C118 1.661 . S
C467 C390 1.647 . S
C487 C344 1.704 . S
C481 C16 1.737 . S
C507 C321 1.504 . S
C501 C60 1.536 . S
C527 C374 1.544 . S
C521 C79 1.677 . S
C547 C354 1.384 . S
C541 C138 1.457 . S
C561 C21 1.360 . S
C567 C384 1.313 . S
C587 C350 1.617 . S
C581 C94 1.645 . S
C601 C133 1.642 . S
C607 C316 1.570 . S
C621 C55 1.340 . S
C627 C364 1.320 . S
C647 C330 1.513 . S
C641 C157 1.540 . S
C661 C196 1.305 . S
C667 C336 1.261 . S
C681 C255 1.775 . S
C687 C371 1.746 . S
C701 C289 1.651 . S
C707 C391 1.638 . S
C721 C172 1.734 . S
C727 C341 1.704 . S
C747 C324 1.508 . S
C741 C216 1.535 . S
C767 C376 1.573 . S
C761 C235 1.687 . S
C787 C356 1.359 . S
C781 C294 1.458 . S
C801 C177 1.378 . S
C807 C381 1.331 . S
C827 C351 1.630 . S
C821 C250 1.642 . S
C847 C314 1.596 . S
C841 C274 1.649 . S
C861 C211 1.336 . S
C867 C361 1.315 . S
