# Generated by pormake.
# Topology anh, (6,3)-cn, num edge types: 1
# Building blocks:
#     Node 0, Type 0, BuildingBlock: BETDAH_clean_sbu_0, # of connection points: 6
#     Node 1, Type 0, BuildingBlock: BETDAH_clean_sbu_0, # of connection points: 6
#     Node 2, Type 0, BuildingBlock: BETDAH_clean_sbu_0, # of connection points: 6
#     Node 3, Type 1, BuildingBlock: CUQRIR_clean_linker_1, # of connection points: 3
#     Node 4, Type 1, BuildingBlock: CUQRIR_clean_linker_1, # of connection points: 3
#     Node 5, Type 1, BuildingBlock: CUQRIR_clean_linker_1, # of connection points: 3
#     Node 6, Type 1, BuildingBlock: CUQRIR_clean_linker_1, # of connection points: 3
#     Node 7, Type 1, BuildingBlock: CUQRIR_clean_linker_1, # of connection points: 3
#     Node 8, Type 1, BuildingBlock: CUQRIR_clean_linker_1, # of connection points: 3
#     Edge 9, Type (0, 1), BuildingBlock: EZIPEK_clean_linker_0, # of connection points: 2
#     Edge 10, Type (0, 1), BuildingBlock: EZIPEK_clean_linker_0, # of connection points: 2
#     Edge 11, Type (0, 1), BuildingBlock: EZIPEK_clean_linker_0, # of connection points: 2
#     Edge 12, Type (0, 1), BuildingBlock: EZIPEK_clean_linker_0, # of connection points: 2
#     Edge 13, Type (0, 1), BuildingBlock: EZIPEK_clean_linker_0, # of connection points: 2
#     Edge 14, Type (0, 1), BuildingBlock: EZIPEK_clean_linker_0, # of connection points: 2
#     Edge 15, Type (0, 1), BuildingBlock: EZIPEK_clean_linker_0, # of connection points: 2
#     Edge 16, Type (0, 1), BuildingBlock: EZIPEK_clean_linker_0, # of connection points: 2
#     Edge 17, Type (0, 1), BuildingBlock: EZIPEK_clean_linker_0, # of connection points: 2
#     Edge 18, Type (0, 1), BuildingBlock: EZIPEK_clean_linker_0, # of connection points: 2
#     Edge 19, Type (0, 1), BuildingBlock: EZIPEK_clean_linker_0, # of connection points: 2
#     Edge 20, Type (0, 1), BuildingBlock: EZIPEK_clean_linker_0, # of connection points: 2
#     Edge 21, Type (0, 1), BuildingBlock: EZIPEK_clean_linker_0, # of connection points: 2
#     Edge 22, Type (0, 1), BuildingBlock: EZIPEK_clean_linker_0, # of connection points: 2
#     Edge 23, Type (0, 1), BuildingBlock: EZIPEK_clean_linker_0, # of connection points: 2
#     Edge 24, Type (0, 1), BuildingBlock: EZIPEK_clean_linker_0, # of connection points: 2
#     Edge 25, Type (0, 1), BuildingBlock: EZIPEK_clean_linker_0, # of connection points: 2
#     Edge 26, Type (0, 1), BuildingBlock: EZIPEK_clean_linker_0, # of connection points: 2
# Relax obj value: 0.280
# Max RMSD: 0.228
# Mean RMSD: 0.175
data_MOF--net-anh--node1-BETDAH_clean_sbu_0--node2-CUQRIR_clean_linker_1--edge1-EZIPEK_clean_linker_0
_symmetry_space_group_name_H-M    P1
_symmetry_Int_Tables_number       1
_symmetry_cell_setting            triclinic
loop_
_symmetry_equiv_pos_as_xyz
'x, y, z'
_cell_length_a     20.819391
_cell_length_b     26.842952
_cell_length_c     33.398805
_cell_angle_alpha  87.012754
_cell_angle_beta   89.766609
_cell_angle_gamma 133.59609
loop_
_atom_site_label
_atom_site_type_symbol
_atom_site_fract_x
_atom_site_fract_y
_atom_site_fract_z
_atom_type_partial_charge
Ho0 Ho 0.28308 0.53235 0.16828 0.0
Ho1 Ho 0.16698 0.55365 0.16723 0.0
C2 C 0.37724 0.69077 0.17194 0.0
C3 C 0.38322 0.51096 0.15204 0.0
C4 C 0.35816 0.44501 0.15013 0.0
C5 C 0.41878 0.4437 0.13418 0.0
C6 C 0.38995 0.38117 0.12491 0.0
C7 C 0.29981 0.31927 0.13012 0.0
C8 C 0.24072 0.31989 0.14961 0.0
C9 C 0.26997 0.38256 0.15942 0.0
C10 C 0.2191 0.5189 0.24336 0.0
C11 C 1.07345 0.39702 0.17752 0.0
C12 C 1.06877 0.57894 0.17007 0.0
C13 C 0.98212 0.53903 0.1526 0.0
C14 C 0.91619 0.46688 0.16013 0.0
C15 C 0.84054 0.42741 0.13817 0.0
C16 C 0.82982 0.45936 0.10833 0.0
C17 C 0.89444 0.53129 0.10097 0.0
C18 C 0.97042 0.57103 0.12308 0.0
C19 C 0.19176 0.52765 0.09338 0.0
O20 O 0.39048 0.64889 0.17278 0.0
O21 O 0.29609 0.66531 0.16884 0.0
O22 O 0.37633 0.52557 0.18748 0.0
O23 O 0.34957 0.52243 0.12451 0.0
O24 O 0.22643 0.47862 0.22997 0.0
O25 O 0.24576 0.56452 0.2159 0.0
O26 O 1.06676 0.43976 0.18888 0.0
O27 O 0.14986 0.42327 0.16075 0.0
O28 O 0.13487 0.61028 0.14356 0.0
O29 O 1.07241 0.54801 0.20032 0.0
O30 O 1.11594 0.49864 0.1102 0.0
O31 O 0.25056 0.5668 0.11787 0.0
H32 H 0.48732 0.49119 0.12705 0.0
H33 H 0.43805 0.38289 0.11142 0.0
H34 H 0.17132 0.27277 0.15504 0.0
H35 H 0.22293 0.38276 0.17235 0.0
H36 H 0.92394 0.44052 0.18218 0.0
H37 H 0.79021 0.37189 0.14442 0.0
H38 H 0.88582 0.55637 0.0783 0.0
H39 H 1.02123 0.62641 0.11633 0.0
Ho40 Ho 0.8584 0.12666 0.48232 0.0
Ho41 Ho 0.73621 0.14534 0.4653 0.0
C42 C 0.64835 0.98994 0.4674 0.0
C43 C 0.92965 0.08729 0.51678 0.0
C44 C 0.89889 1.0206 0.5315 0.0
C45 C 0.82304 0.97332 0.5578 0.0
C46 C 0.79419 0.9099 0.57073 0.0
C47 C 0.8406 0.89283 0.55749 0.0
C48 C 0.91691 0.94028 0.53175 0.0
C49 C 0.94588 1.00371 0.51891 0.0
C50 C 0.85219 0.14933 0.40306 0.0
C51 C 0.95031 0.28298 0.469 0.0
C52 C 0.66021 0.1866 0.44177 0.0
C53 C 0.66585 0.23979 0.457 0.0
C54 C 0.64837 0.27281 0.43235 0.0
C55 C 0.65617 0.32466 0.44697 0.0
C56 C 0.68087 0.34342 0.48645 0.0
C57 C 0.69887 0.31061 0.51089 0.0
C58 C 0.69191 0.25946 0.49622 0.0
C59 C 0.74311 0.1218 0.54469 0.0
O60 O 0.72385 1.01472 0.48256 0.0
O61 O 0.64116 0.03304 0.45376 0.0
O62 O 0.9339 0.09854 0.47786 0.0
O63 O 0.89733 0.10756 0.53624 0.0
O64 O 0.92365 0.1733 0.42045 0.0
O65 O 0.78652 0.11186 0.42837 0.0
O66 O 0.87174 0.25602 0.45718 0.0
O67 O 0.96058 0.24256 0.48451 0.0
O68 O 0.62165 0.13244 0.46656 0.0
O69 O 0.73338 0.20925 0.4245 0.0
O70 O 0.67361 0.10173 0.52785 0.0
O71 O 0.80768 0.15951 0.51907 0.0
H72 H 0.78559 0.98501 0.56816 0.0
H73 H 0.73503 0.87372 0.59051 0.0
H74 H 0.95332 0.92775 0.5212 0.0
H75 H 1.0046 0.0394 0.49881 0.0
H76 H 0.62919 0.25874 0.40188 0.0
H77 H 0.64276 0.34998 0.42766 0.0
H78 H 0.71872 0.3249 0.54129 0.0
H79 H 0.70709 0.23532 0.51549 0.0
Ho80 Ho 0.70799 0.64603 0.863 0.0
Ho81 Ho 0.57655 0.49406 0.85756 0.0
C82 C 0.4904 0.56405 0.86728 0.0
C83 C 0.8003 0.7763 0.84863 0.0
C84 C 0.78386 0.81813 0.83011 0.0
C85 C 0.84044 0.86756 0.79805 0.0
C86 C 0.82707 0.90835 0.78059 0.0
C87 C 0.75717 0.9009 0.79507 0.0
C88 C 0.69972 0.85081 0.82668 0.0
C89 C 0.71271 0.80976 0.84397 0.0
C90 C 0.66295 0.56979 0.93253 0.0
C91 C 0.79108 0.57364 0.86275 0.0
C92 C 0.46702 0.36155 0.86281 0.0
C93 C 0.48034 0.31759 0.84882 0.0
C94 C 0.44791 0.25857 0.87239 0.0
C95 C 0.46844 0.22104 0.86107 0.0
C96 C 0.52234 0.24246 0.8262 0.0
C97 C 0.55421 0.30107 0.80257 0.0
C98 C 0.53343 0.33823 0.81373 0.0
C99 C 0.66511 0.57013 0.78698 0.0
O100 O 0.57658 0.62387 0.86617 0.0
O101 O 0.47397 0.50596 0.86479 0.0
O102 O 0.75908 0.7424 0.88343 0.0
O103 O 0.80188 0.74027 0.82436 0.0
O104 O 0.74371 0.62774 0.92287 0.0
O105 O 0.61279 0.55813 0.90593 0.0
O106 O 0.70494 0.51481 0.86948 0.0
O107 O 0.80792 0.6318 0.85509 0.0
O108 O 0.46432 0.39626 0.83485 0.0
O109 O 0.51609 0.39907 0.89224 0.0
O110 O 0.64685 0.51486 0.79867 0.0
O111 O 0.63364 0.5816 0.81299 0.0
H112 H 0.89551 0.87495 0.78666 0.0
H113 H 0.87203 0.94649 0.7562 0.0
H114 H 0.64522 0.844 0.83827 0.0
H115 H 0.66735 0.77186 0.86836 0.0
H116 H 0.40822 0.24231 0.89992 0.0
H117 H 0.44358 0.17605 0.87976 0.0
H118 H 0.59611 0.31851 0.77567 0.0
H119 H 0.56044 0.38392 0.79521 0.0
C120 C 0.72176 0.045 0.18088 0.0
N121 N 0.77609 0.09681 0.20598 0.0
N122 N 0.66295 0.98182 0.20185 0.0
C123 C 0.7258 0.05583 0.13609 0.0
C124 C 0.68344 0.99718 0.2405 0.0
N125 N 0.75246 0.06605 0.24305 0.0
C126 C 0.63762 0.94418 0.27595 0.0
H127 H 0.70804 1.01185 0.12143 0.0
H128 H 0.79284 0.10463 0.12468 0.0
H129 H 0.67675 0.05868 0.12796 0.0
H130 H 0.66487 0.92036 0.27795 0.0
H131 H 0.56532 0.90235 0.27249 0.0
H132 H 0.64775 0.96756 0.30451 0.0
C133 C 0.74334 0.605 0.55423 0.0
N134 N 0.74169 0.63417 0.58565 0.0
N135 N 0.7125 0.54256 0.56614 0.0
C136 C 0.77411 0.63691 0.51182 0.0
C137 C 0.69244 0.53454 0.60586 0.0
N138 N 0.71134 0.59061 0.61807 0.0
C139 C 0.6588 0.47335 0.63298 0.0
H140 H 0.7156 0.61709 0.49486 0.0
H141 H 0.80625 0.62244 0.49669 0.0
H142 H 0.8212 0.69395 0.51104 0.0
H143 H 0.61101 0.42516 0.61747 0.0
H144 H 0.62641 0.4689 0.66123 0.0
H145 H 0.71564 0.4794 0.64048 0.0
C146 C 0.14236 0.56864 0.86403 0.0
N147 N 0.19222 0.56378 0.88937 0.0
N148 N 1.07841 0.56373 0.88437 0.0
C149 C 0.15754 0.58016 0.81939 0.0
C150 C 1.09162 0.55474 0.92286 0.0
N151 N 0.15889 0.55645 0.92609 0.0
C152 C 1.03733 0.54415 0.95837 0.0
H153 H 0.22584 0.60457 0.81044 0.0
H154 H 0.14596 0.61268 0.80756 0.0
H155 H 1.10941 0.52962 0.80616 0.0
H156 H 0.9691 0.51765 0.95005 0.0
H157 H 1.06931 0.59517 0.96869 0.0
H158 H 1.03298 0.51329 0.98367 0.0
C159 C 0.29328 0.6358 0.46338 0.0
N160 N 0.24678 0.58198 0.43928 0.0
N161 N 0.36102 0.69705 0.442 0.0
C162 C 0.27424 0.62821 0.50781 0.0
C163 C 0.354 0.67821 0.4042 0.0
N164 N 0.28555 0.6092 0.40248 0.0
C165 C 0.4131 0.728 0.36841 0.0
H166 H 0.20207 0.59405 0.5148 0.0
H167 H 0.31083 0.67898 0.51996 0.0
H168 H 0.29457 0.60342 0.5229 0.0
H169 H 0.47842 0.77579 0.37767 0.0
H170 H 0.38 0.74186 0.35252 0.0
H171 H 0.42494 0.70498 0.34672 0.0
C172 C 0.64996 0.07872 0.77714 0.0
N173 N 0.68168 0.06567 0.74815 0.0
N174 N 0.64207 0.1221 0.7623 0.0
C175 C 0.62737 0.04949 0.82 0.0
C176 C 0.66999 0.13514 0.72322 0.0
N177 N 0.69396 0.10094 0.71433 0.0
C178 C 0.66938 0.17847 0.69315 0.0
H179 H 0.57997 0.05001 0.8347 0.0
H180 H 0.68914 0.0814 0.8366 0.0
H181 H 0.59876 0.996 0.8216 0.0
H182 H 0.72729 0.20785 0.67128 0.0
H183 H 0.67024 0.21484 0.70814 0.0
H184 H 0.60815 0.144 0.6763 0.0
C185 C 0.4199 0.21913 0.05135 0.0
N186 N 0.49466 0.28255 0.03614 0.0
N187 N 0.34474 0.2024 0.03893 0.0
C188 C 0.42228 0.17489 0.07942 0.0
C189 C 0.38064 0.25523 0.01012 0.0
N190 N 0.46998 0.306 0.0111 0.0
C191 C 0.3304 0.25642 0.97841 0.0
H192 H 0.4826 0.18488 0.07244 0.0
H193 H 0.3634 0.11954 0.07638 0.0
H194 H 0.42621 0.1883 0.11075 0.0
H195 H 0.3011 0.2753 0.99016 0.0
H196 H 0.27748 0.20422 0.96787 0.0
H197 H 0.3757 0.29196 0.95221 0.0
C198 C 0.28739 0.21874 0.13051 0.0
C199 C 0.2678 0.25585 0.11268 0.0
C200 C 0.21373 0.18452 0.05559 0.0
C201 C 0.26744 0.17223 0.06605 0.0
N202 N 0.25776 0.11467 0.12639 0.0
N203 N 0.18843 0.25831 0.06001 0.0
C204 C 0.27517 0.16952 0.10797 0.0
C205 C 0.22148 0.23296 0.07645 0.0
N206 N 0.3189 0.23107 0.16797 0.0
N207 N 0.15786 0.15156 0.02529 0.0
H208 H 0.19335 0.29554 0.07256 0.0
H209 H 0.19335 0.29554 0.07256 0.0
H210 H 0.15129 0.11476 0.01081 0.0
H211 H 1.11739 0.15962 0.01644 0.0
H212 H 0.34115 0.20901 0.18027 0.0
H213 H 0.32546 0.26517 0.18565 0.0
H214 H 0.25495 0.10699 0.15753 0.0
H215 H 0.23777 0.07427 0.10999 0.0
C216 C 1.01702 0.40619 0.47242 0.0
C217 C 1.02852 0.3609 0.46421 0.0
C218 C 0.18844 0.46398 0.45033 0.0
C219 C 0.17375 0.5081 0.4509 0.0
N220 N 1.07064 0.52011 0.46061 0.0
N221 N 1.12728 0.35125 0.43666 0.0
C222 C 1.08687 0.4788 0.46135 0.0
C223 C 1.11496 0.39104 0.45092 0.0
N224 N 0.94169 0.38086 0.49303 0.0
N225 N 0.27309 0.49174 0.45123 0.0
H226 H 1.07551 0.2987 0.43355 0.0
H227 H 0.1877 0.37223 0.42344 0.0
H228 H 0.32637 0.54398 0.45506 0.0
H229 H 0.28815 0.46189 0.45382 0.0
H230 H 0.93301 0.41216 0.5029 0.0
H231 H 0.89244 0.3297 0.5046 0.0
H232 H 1.00689 0.50088 0.46307 0.0
H233 H 1.12088 0.57352 0.45505 0.0
C234 C 0.66986 0.9181 0.75569 0.0
C235 C 0.74482 0.94657 0.77824 0.0
C236 C 0.78581 0.05758 0.77451 0.0
C237 C 0.70655 0.027 0.75496 0.0
N238 N 0.56121 0.92276 0.73897 0.0
N239 N 0.86964 0.04142 0.81326 0.0
C240 C 0.64563 0.9559 0.74838 0.0
C241 C 0.80242 1.01621 0.78834 0.0
N242 N 0.62143 0.85466 0.74137 0.0
N243 N 0.84352 0.1259 0.78124 0.0
H244 H 0.88369 1.01286 0.82414 0.0
H245 H 0.90811 0.0889 0.82551 0.0
H246 H 0.82851 0.15541 0.77574 0.0
H247 H 0.90749 0.15417 0.79064 0.0
H248 H 0.57113 0.83417 0.72156 0.0
H249 H 0.63723 0.82551 0.74625 0.0
H250 H 0.51109 0.86962 0.73706 0.0
H251 H 0.53854 0.94722 0.73867 0.0
C252 C 0.67594 0.40805 0.1042 0.0
C253 C 0.74609 0.41693 0.08777 0.0
C254 C 0.64722 0.33045 0.03987 0.0
C255 C 0.57903 0.32543 0.05457 0.0
N256 N 0.5247 0.3501 0.10616 0.0
N257 N 0.80414 0.39332 0.03771 0.0
C258 C 0.59248 0.36166 0.08785 0.0
C259 C 0.73342 0.3799 0.05491 0.0
N260 N 0.68794 0.4431 0.13621 0.0
N261 N 0.62765 0.28517 0.01331 0.0
H262 H 0.86783 0.42905 0.04834 0.0
H263 H 0.80143 0.3731 0.01131 0.0
H264 H 0.56381 0.24714 0.00324 0.0
H265 H 0.67186 0.28152 0.00381 0.0
H266 H 0.63728 0.43768 0.14886 0.0
H267 H 0.74815 0.47783 0.14992 0.0
H268 H 0.45964 0.31399 0.09745 0.0
H269 H 0.45964 0.31399 0.09745 0.0
C270 C 0.50964 0.88888 0.43291 0.0
C271 C 0.57164 0.91269 0.46328 0.0
C272 C 0.49257 0.79037 0.48046 0.0
C273 C 0.42503 0.76783 0.45411 0.0
N274 N 0.3576 0.7973 0.41481 0.0
N275 N 0.60239 0.87881 0.52369 0.0
C276 C 0.42936 0.81787 0.43407 0.0
C277 C 0.5575 0.86138 0.48944 0.0
N278 N 0.53005 0.93171 0.40052 0.0
N279 N 0.49712 0.74489 0.49584 0.0
H280 H 0.64468 0.92807 0.53369 0.0
H281 H 0.58886 0.84225 0.54484 0.0
H282 H 0.45296 0.69362 0.48873 0.0
H283 H 0.54933 0.7598 0.51263 0.0
H284 H 0.48853 0.91449 0.37668 0.0
H285 H 0.59329 0.9805 0.39411 0.0
H286 H 0.35533 0.83223 0.40185 0.0
H287 H 0.2979 0.74552 0.41558 0.0
C288 C 0.49287 0.1496 0.78891 0.0
C289 C 0.54748 0.20482 0.81421 0.0
C290 C 0.66271 0.20233 0.80716 0.0
C291 C 0.60766 0.14659 0.7825 0.0
N292 N 0.46526 0.05797 0.75606 0.0
N293 N 0.67536 0.27419 0.85435 0.0
C294 C 0.5209 0.11733 0.77536 0.0
C295 C 0.62964 0.22811 0.82557 0.0
N296 N 0.4157 0.12957 0.77687 0.0
N297 N 0.74814 0.23258 0.81135 0.0
H298 H 0.65402 0.29523 0.8678 0.0
H299 H 0.73012 0.28704 0.86731 0.0
H300 H 0.77359 0.21432 0.79833 0.0
H301 H 0.79531 0.27822 0.82523 0.0
H302 H 0.37777 0.09508 0.75497 0.0
H303 H 0.39181 0.15051 0.78726 0.0
H304 H 0.39834 0.02992 0.75279 0.0
H305 H 0.48472 0.03362 0.74613 0.0
C306 C 0.73376 0.76524 0.55035 0.0
C307 C 0.80788 0.82409 0.56899 0.0
C308 C 0.83877 0.75751 0.59842 0.0
C309 C 0.76039 0.69715 0.58297 0.0
N310 N 0.62668 0.64106 0.548 0.0
N311 N 0.91983 0.87301 0.61747 0.0
C312 C 0.70545 0.70028 0.56038 0.0
C313 C 0.85644 0.81898 0.59544 0.0
N314 N 0.69376 0.7721 0.52128 0.0
N315 N 0.90029 0.75782 0.61258 0.0
H316 H 0.93453 0.91894 0.61585 0.0
H317 H 0.95154 0.86965 0.63994 0.0
H318 H 0.89328 0.71579 0.61062 0.0
H319 H 0.96243 0.80196 0.62121 0.0
H320 H 0.64673 0.7329 0.50312 0.0
H321 H 0.71253 0.81877 0.51292 0.0
H322 H 0.57908 0.63874 0.53538 0.0
H323 H 0.60572 0.59296 0.55315 0.0
C324 C 0.95389 0.62705 0.88267 0.0
C325 C 0.86966 0.57372 0.86511 0.0
C326 C 0.92744 0.51498 0.85749 0.0
C327 C 1.01298 0.57034 0.87249 0.0
N328 N 1.10875 0.68521 0.89299 0.0
N329 N 0.79025 0.47223 0.82829 0.0
C330 C 1.02566 0.62783 0.88301 0.0
C331 C 0.86091 0.51925 0.85067 0.0
N332 N 0.96469 0.67593 0.90179 0.0
N333 N 0.90802 0.45634 0.85052 0.0
H334 H 0.744 0.47474 0.8208 0.0
H335 H 0.78247 0.4353 0.8135 0.0
H336 H 0.95427 0.45247 0.85414 0.0
H337 H 0.84527 0.41069 0.84385 0.0
H338 H 1.01795 0.71091 0.91938 0.0
H339 H 0.9161 0.67733 0.90369 0.0
H340 H 1.12835 0.73228 0.8967 0.0
H341 H 0.16069 0.68729 0.89354 0.0
C342 C 0.54038 0.80743 0.15994 0.0
C343 C 0.4528 0.76757 0.17737 0.0
C344 C 0.50282 0.87582 0.19937 0.0
C345 C 0.59223 0.91268 0.18822 0.0
N346 N 0.69794 0.90986 0.16325 0.0
N347 N 0.36191 0.76556 0.22451 0.0
C348 C 0.61155 0.87741 0.16993 0.0
C349 C 0.43672 0.80234 0.19977 0.0
N350 N 0.55555 0.78014 0.13251 0.0
N351 N 0.48161 0.91116 0.21096 0.0
H352 H 0.31703 0.71221 0.23026 0.0
H353 H 0.35105 0.78879 0.24372 0.0
H354 H 0.52926 0.96485 0.21123 0.0
H355 H 0.41626 0.88782 0.21639 0.0
H356 H 0.61632 0.80897 0.11653 0.0
H357 H 0.50512 0.73138 0.12233 0.0
H358 H 0.71645 0.88465 0.15385 0.0
H359 H 0.75083 0.96061 0.17021 0.0
C360 C 0.77502 0.46155 0.51085 0.0
C361 C 0.68949 0.39817 0.50262 0.0
C362 C 0.62206 0.43718 0.52975 0.0
C363 C 0.70583 0.49598 0.54254 0.0
N364 N 0.86073 0.56214 0.54958 0.0
N365 N 0.52988 0.32165 0.50796 0.0
C366 C 0.78217 0.50782 0.5341 0.0
C367 C 0.61234 0.38502 0.51271 0.0
N368 N 0.8492 0.47796 0.49566 0.0
N369 N 0.55217 0.43181 0.53392 0.0
H370 H 0.51989 0.28188 0.4958 0.0
H371 H 0.47129 0.30662 0.51877 0.0
H372 H 0.55802 0.46926 0.54687 0.0
H373 H 0.49103 0.39359 0.52178 0.0
H374 H 0.91334 0.52598 0.49753 0.0
H375 H 0.84608 0.44559 0.47786 0.0
H376 H 0.91688 0.5696 0.54828 0.0
H377 H 0.86777 0.59722 0.56637 0.0
C378 C 0.42048 0.61245 0.89449 0.0
C379 C 0.41134 0.56323 0.87209 0.0
C380 C 0.25347 0.51228 0.8615 0.0
C381 C 0.26688 0.56558 0.88063 0.0
N382 N 0.38044 0.67838 0.90335 0.0
N383 N 0.3156 0.47378 0.82681 0.0
C384 C 0.35535 0.6186 0.89374 0.0
C385 C 0.32636 0.51517 0.8538 0.0
N386 N 0.48979 0.65221 0.91885 0.0
N387 N 0.16964 0.45704 0.85104 0.0
H388 H 0.36577 0.47585 0.8187 0.0
H389 H 0.26085 0.44304 0.80922 0.0
H390 H 1.11725 0.45392 0.85524 0.0
H391 H 0.15083 0.41239 0.8415 0.0
H392 H 0.49607 0.684 0.93861 0.0
H393 H 0.53435 0.6469 0.92323 0.0
H394 H 0.44518 0.7219 0.90986 0.0
H395 H 0.33924 0.68698 0.89871 0.0
C396 C 1.00681 0.27646 0.20218 0.0
C397 C 0.99529 0.31894 0.18386 0.0
C398 C 0.83515 0.21295 0.18022 0.0
C399 C 0.84991 0.17115 0.19539 0.0
N400 N 0.95642 0.16365 0.20696 0.0
N401 N 0.89865 0.32305 0.14771 0.0
C402 C 0.93783 0.20325 0.20217 0.0
C403 C 0.90923 0.28582 0.17077 0.0
N404 N 1.08129 0.30518 0.22208 0.0
N405 N 0.75024 0.18337 0.17545 0.0
H406 H 0.95103 0.37527 0.13902 0.0
H407 H 0.84009 0.30085 0.13393 0.0
H408 H 0.69545 0.13058 0.18123 0.0
H409 H 0.73384 0.21168 0.16881 0.0
H410 H 1.08906 0.27599 0.23895 0.0
H411 H 0.13031 0.35763 0.22562 0.0
H412 H 1.02082 0.1844 0.20895 0.0
H413 H 0.90845 0.11089 0.20331 0.0
C414 C 0.18067 0.4913 0.02357 0.0
C415 C 0.20659 0.54317 0.04862 0.0
C416 C 0.23014 0.61286 0.98868 0.0
C417 C 0.1916 0.55675 0.96469 0.0
N418 N 1.12315 0.44026 0.95975 0.0
N419 N 0.2527 0.6532 0.05507 0.0
C420 C 0.16668 0.4958 0.98211 0.0
C421 C 0.23253 0.6047 0.03106 0.0
N422 N 0.16893 0.43748 0.03964 0.0
N423 N 0.26069 0.67332 0.97089 0.0
H424 H 0.25764 0.65105 0.08594 0.0
H425 H 0.25959 0.69406 0.04493 0.0
H426 H 0.2509 0.6785 0.94099 0.0
H427 H 0.30004 0.71934 0.98488 0.0
H428 H 0.15771 0.40097 0.02257 0.0
H429 H 0.17846 0.43302 0.0698 0.0
H430 H 1.09418 0.39154 0.97144 0.0
H431 H 1.11064 0.44198 0.92979 0.0
C432 C 0.8474 0.09271 0.34372 0.0
C433 C 0.84152 0.13762 0.35957 0.0
C434 C 0.7831 0.13999 0.29671 0.0
C435 C 0.79379 0.09852 0.27996 0.0
N436 N 0.85261 0.04667 0.28468 0.0
N437 N 0.8276 0.21886 0.34729 0.0
C438 C 0.83262 0.07951 0.30248 0.0
C439 C 0.81728 0.16625 0.33472 0.0
N440 N 0.86074 0.05864 0.36848 0.0
N441 N 0.73426 0.1498 0.27784 0.0
H442 H 0.85555 0.24055 0.37439 0.0
H443 H 0.81764 0.24551 0.32904 0.0
H444 H 0.70297 0.12685 0.25154 0.0
H445 H 0.71724 0.17433 0.29044 0.0
H446 H 0.85518 1.01931 0.35943 0.0
H447 H 0.86947 0.06493 0.3991 0.0
H448 H 0.89003 0.03838 0.29799 0.0
H449 H 0.83709 0.03204 0.25537 0.0
C450 C 0.76745 0.62177 0.72649 0.0
C451 C 0.68634 0.59567 0.7439 0.0
C452 C 0.63506 0.58832 0.67634 0.0
C453 C 0.70981 0.60322 0.65953 0.0
N454 N 0.84057 0.62327 0.66956 0.0
N455 N 0.53998 0.55183 0.73561 0.0
C456 C 0.77498 0.61801 0.68481 0.0
C457 C 0.61996 0.57988 0.71893 0.0
N458 N 0.83744 0.65001 0.75001 0.0
N459 N 0.57629 0.5789 0.65144 0.0
H460 H 0.52628 0.54586 0.76641 0.0
H461 H 0.48497 0.531 0.7191 0.0
H462 H 0.58155 0.57811 0.62059 0.0
H463 H 0.52586 0.57579 0.66092 0.0
H464 H 0.90095 0.6754 0.73853 0.0
H465 H 0.83405 0.65488 0.78048 0.0
H466 H 0.8835 0.62576 0.68742 0.0
H467 H 0.84741 0.61906 0.63933 0.0
C468 C 0.66189 0.04838 0.60843 0.0
C469 C 0.7435 0.10868 0.58903 0.0
C470 C 0.80113 0.14923 0.65595 0.0
C471 C 0.714 0.09619 0.67382 0.0
N472 N 0.55767 1.00519 0.66411 0.0
N473 N 0.89528 0.21679 0.59552 0.0
C474 C 0.64351 0.04766 0.6494 0.0
C475 C 0.81536 0.15862 0.61309 0.0
N476 N 0.601 0.99175 0.58755 0.0
N477 N 0.86969 0.1923 0.68012 0.0
H478 H 0.91221 0.22397 0.56511 0.0
H479 H 0.94502 0.25942 0.61105 0.0
H480 H 0.85933 0.1895 0.71094 0.0
H481 H 0.93634 0.22739 0.6702 0.0
H482 H 0.54358 0.9447 0.60129 0.0
H483 H 0.61312 0.98968 0.55766 0.0
H484 H 0.50348 0.97321 0.6463 0.0
H485 H 0.54107 1.00839 0.69265 0.0
C486 C 0.66468 0.48401 0.96356 0.0
C487 C 0.63204 0.5158 0.96444 0.0
C488 C 0.50177 0.41487 0.00508 0.0
C489 C 0.52543 0.37772 -0.00391 0.0
N490 N 0.61948 0.37474 0.95678 0.0
N491 N 0.5194 0.51263 0.987 0.0
C492 C 0.60496 0.41192 0.973 0.0
C493 C 0.55063 0.48157 0.98582 0.0
N494 N 0.7518 0.52202 0.95349 0.0
N495 N 0.43389 0.38725 0.03237 0.0
H496 H 0.55762 0.56388 0.9763 0.0
H497 H 0.45487 0.487 -0.00314 0.0
H498 H 0.39965 0.34042 0.04864 0.0
H499 H 0.41686 0.41344 0.04168 0.0
H500 H 0.77917 0.50094 0.95448 0.0
H501 H 0.79754 0.5756 0.94899 0.0
H502 H 0.67383 0.39706 0.93712 0.0
H503 H 0.57089 0.32096 0.95898 0.0
C504 C 0.16585 0.52812 0.3077 0.0
C505 C 0.22932 0.53304 0.28646 0.0
C506 C 0.31464 0.56905 0.34685 0.0
C507 C 0.25827 0.57359 0.36604 0.0
N508 N 0.14028 0.57035 0.36171 0.0
N509 N 0.3744 0.57205 0.28373 0.0
C510 C 0.18571 0.55572 0.34587 0.0
C511 C 0.3059 0.55612 0.30563 0.0
N512 N 1.08682 0.49725 0.29141 0.0
N513 N 0.38056 0.58172 0.36746 0.0
H514 H 0.37445 0.56879 0.25286 0.0
H515 H 0.43558 0.59592 0.29523 0.0
H516 H 0.39572 0.59977 0.396 0.0
H517 H 0.41683 0.57093 0.35703 0.0
H518 H 1.03475 0.48665 0.30711 0.0
H519 H 1.07047 0.47647 0.26356 0.0
H520 H 1.09214 0.56475 0.34664 0.0
H521 H 0.15749 0.59487 0.38821 0.0
loop_
_geom_bond_atom_site_label_1
_geom_bond_atom_site_label_2
_geom_bond_distance
_geom_bond_site_symmetry_2
_ccdc_geom_bond_type
Ho0 C3 2.811 . S
Ho0 O20 2.322 . S
Ho0 O22 2.378 . S
Ho0 O23 2.524 . S
Ho0 O24 2.381 . S
Ho0 O25 2.669 1_455 S
Ho0 O27 2.346 1_455 S
Ho0 O31 2.305 . S
Ho1 C12 2.811 . S
Ho1 O21 2.346 1_655 S
Ho1 O25 2.305 . S
Ho1 O26 2.322 . S
Ho1 O28 2.378 . S
Ho1 O29 2.524 . S
Ho1 O30 2.381 . S
Ho1 O31 2.669 1_655 S
C2 O20 1.259 . S
C2 O21 1.268 . S
C3 Ho0 2.811 . S
C3 C4 1.488 . S
C3 O22 1.215 . S
C3 O23 1.289 . S
C4 C3 1.488 . S
C4 C5 1.348 . S
C4 C9 1.413 . S
C5 C4 1.348 . S
C5 C6 1.442 . S
C5 H32 0.930 . S
C6 C5 1.442 . S
C6 C7 1.381 . S
C6 H33 0.931 . S
C7 C6 1.381 . S
C7 C8 1.321 . S
C8 C7 1.321 . S
C8 C9 1.403 . S
C8 H34 0.934 . S
C9 C4 1.413 . S
C9 C8 1.403 . S
C9 H35 0.930 . S
C10 O24 1.275 . S
C10 O25 1.256 1_455 S
C11 O26 1.259 . S
C11 O27 1.268 . S
C12 Ho1 2.811 . S
C12 C13 1.488 . S
C12 O28 1.215 . S
C12 O29 1.289 . S
C13 C12 1.488 . S
C13 C14 1.348 . S
C13 C18 1.413 . S
C14 C13 1.348 . S
C14 C15 1.442 . S
C14 H36 0.930 . S
C15 C14 1.442 . S
C15 C16 1.381 . S
C15 H37 0.931 . S
C16 C15 1.381 . S
C16 C17 1.321 . S
C17 C16 1.321 . S
C17 C18 1.403 . S
C17 H38 0.934 . S
C18 C13 1.413 . S
C18 C17 1.403 . S
C18 H39 0.930 . S
C19 O30 1.275 1_455 S
C19 O31 1.256 . S
O20 Ho0 2.322 . S
O20 C2 1.259 . S
O21 Ho1 2.346 1_455 S
O21 C2 1.268 . S
O22 Ho0 2.378 . S
O22 C3 1.215 . S
O23 Ho0 2.524 . S
O23 C3 1.289 . S
O24 Ho0 2.381 . S
O24 C10 1.275 . S
O25 Ho0 2.669 1_655 S
O25 Ho1 2.305 . S
O25 C10 1.256 1_655 S
O26 Ho1 2.322 . S
O26 C11 1.259 . S
O27 Ho0 2.346 1_655 S
O27 C11 1.268 . S
O28 Ho1 2.378 . S
O28 C12 1.215 . S
O29 Ho1 2.524 . S
O29 C12 1.289 . S
O30 Ho1 2.381 . S
O30 C19 1.275 1_655 S
O31 Ho0 2.305 . S
O31 Ho1 2.669 1_455 S
O31 C19 1.256 . S
H32 C5 0.930 . S
H33 C6 0.931 . S
H34 C8 0.934 . S
H35 C9 0.930 . S
H36 C14 0.930 . S
H37 C15 0.931 . S
H38 C17 0.934 . S
H39 C18 0.930 . S
Ho40 C43 2.811 1_545 S
Ho40 O60 2.322 1_545 S
Ho40 O62 2.378 1_545 S
Ho40 O63 2.524 1_545 S
Ho40 O64 2.381 . S
Ho40 O65 2.669 . S
Ho40 O67 2.346 . S
Ho40 O71 2.305 . S
Ho41 C52 2.811 . S
Ho41 O61 2.346 1_545 S
Ho41 O65 2.305 . S
Ho41 O66 2.322 . S
Ho41 O68 2.378 . S
Ho41 O69 2.524 . S
Ho41 O70 2.381 . S
Ho41 O71 2.669 . S
C42 O60 1.259 . S
C42 O61 1.268 . S
C43 Ho40 2.811 1_565 S
C43 C44 1.488 . S
C43 O62 1.215 . S
C43 O63 1.289 . S
C44 C43 1.488 . S
C44 C45 1.348 . S
C44 C49 1.413 . S
C45 C44 1.348 . S
C45 C46 1.442 . S
C45 H72 0.930 . S
C46 C45 1.442 . S
C46 C47 1.381 . S
C46 H73 0.931 . S
C47 C46 1.381 . S
C47 C48 1.321 . S
C48 C47 1.321 . S
C48 C49 1.403 . S
C48 H74 0.934 . S
C49 C44 1.413 . S
C49 C48 1.403 . S
C49 H75 0.930 . S
C50 O64 1.275 . S
C50 O65 1.256 . S
C51 O66 1.259 . S
C51 O67 1.268 . S
C52 Ho41 2.811 . S
C52 C53 1.488 . S
C52 O68 1.215 . S
C52 O69 1.289 . S
C53 C52 1.488 . S
C53 C54 1.348 . S
C53 C58 1.413 . S
C54 C53 1.348 . S
C54 C55 1.442 . S
C54 H76 0.930 . S
C55 C54 1.442 . S
C55 C56 1.381 . S
C55 H77 0.931 . S
C56 C55 1.381 . S
C56 C57 1.321 . S
C57 C56 1.321 . S
C57 C58 1.403 . S
C57 H78 0.934 . S
C58 C53 1.413 . S
C58 C57 1.403 . S
C58 H79 0.930 . S
C59 O70 1.275 . S
C59 O71 1.256 . S
O60 Ho40 2.322 1_565 S
O60 C42 1.259 . S
O61 Ho41 2.346 1_565 S
O61 C42 1.268 . S
O62 Ho40 2.378 1_565 S
O62 C43 1.215 . S
O63 Ho40 2.524 1_565 S
O63 C43 1.289 . S
O64 Ho40 2.381 . S
O64 C50 1.275 . S
O65 Ho40 2.669 . S
O65 Ho41 2.305 . S
O65 C50 1.256 . S
O66 Ho41 2.322 . S
O66 C51 1.259 . S
O67 Ho40 2.346 . S
O67 C51 1.268 . S
O68 Ho41 2.378 . S
O68 C52 1.215 . S
O69 Ho41 2.524 . S
O69 C52 1.289 . S
O70 Ho41 2.381 . S
O70 C59 1.275 . S
O71 Ho40 2.305 . S
O71 Ho41 2.669 . S
O71 C59 1.256 . S
H72 C45 0.930 . S
H73 C46 0.931 . S
H74 C48 0.934 . S
H75 C49 0.930 . S
H76 C54 0.930 . S
H77 C55 0.931 . S
H78 C57 0.934 . S
H79 C58 0.930 . S
Ho80 C83 2.811 . S
Ho80 O100 2.322 . S
Ho80 O102 2.378 . S
Ho80 O103 2.524 . S
Ho80 O104 2.381 . S
Ho80 O105 2.669 . S
Ho80 O107 2.346 . S
Ho80 O111 2.305 . S
Ho81 C92 2.811 . S
Ho81 O101 2.346 . S
Ho81 O105 2.305 . S
Ho81 O106 2.322 . S
Ho81 O108 2.378 . S
Ho81 O109 2.524 . S
Ho81 O110 2.381 . S
Ho81 O111 2.669 . S
C82 O100 1.259 . S
C82 O101 1.268 . S
C83 Ho80 2.811 . S
C83 C84 1.488 . S
C83 O102 1.215 . S
C83 O103 1.289 . S
C84 C83 1.488 . S
C84 C85 1.348 . S
C84 C89 1.413 . S
C85 C84 1.348 . S
C85 C86 1.442 . S
C85 H112 0.930 . S
C86 C85 1.442 . S
C86 C87 1.381 . S
C86 H113 0.931 . S
C87 C86 1.381 . S
C87 C88 1.321 . S
C88 C87 1.321 . S
C88 C89 1.403 . S
C88 H114 0.934 . S
C89 C84 1.413 . S
C89 C88 1.403 . S
C89 H115 0.930 . S
C90 O104 1.275 . S
C90 O105 1.256 . S
C91 O106 1.259 . S
C91 O107 1.268 . S
C92 Ho81 2.811 . S
C92 C93 1.488 . S
C92 O108 1.215 . S
C92 O109 1.289 . S
C93 C92 1.488 . S
C93 C94 1.348 . S
C93 C98 1.413 . S
C94 C93 1.348 . S
C94 C95 1.442 . S
C94 H116 0.930 . S
C95 C94 1.442 . S
C95 C96 1.381 . S
C95 H117 0.931 . S
C96 C95 1.381 . S
C96 C97 1.321 . S
C97 C96 1.321 . S
C97 C98 1.403 . S
C97 H118 0.934 . S
C98 C93 1.413 . S
C98 C97 1.403 . S
C98 H119 0.930 . S
C99 O110 1.275 . S
C99 O111 1.256 . S
O100 Ho80 2.322 . S
O100 C82 1.259 . S
O101 Ho81 2.346 . S
O101 C82 1.268 . S
O102 Ho80 2.378 . S
O102 C83 1.215 . S
O103 Ho80 2.524 . S
O103 C83 1.289 . S
O104 Ho80 2.381 . S
O104 C90 1.275 . S
O105 Ho80 2.669 . S
O105 Ho81 2.305 . S
O105 C90 1.256 . S
O106 Ho81 2.322 . S
O106 C91 1.259 . S
O107 Ho80 2.346 . S
O107 C91 1.268 . S
O108 Ho81 2.378 . S
O108 C92 1.215 . S
O109 Ho81 2.524 . S
O109 C92 1.289 . S
O110 Ho81 2.381 . S
O110 C99 1.275 . S
O111 Ho80 2.305 . S
O111 Ho81 2.669 . S
O111 C99 1.256 . S
H112 C85 0.930 . S
H113 C86 0.931 . S
H114 C88 0.934 . S
H115 C89 0.930 . S
H116 C94 0.930 . S
H117 C95 0.931 . S
H118 C97 0.934 . S
H119 C98 0.930 . S
C120 N121 1.317 1_565 S
C120 N122 1.348 . S
C120 C123 1.485 1_565 S
N121 C120 1.317 1_545 S
N121 N125 1.370 . S
N122 C120 1.348 . S
N122 C124 1.346 . S
C123 C120 1.485 1_545 S
C123 H127 0.960 . S
C123 H128 0.961 1_545 S
C123 H129 0.960 . S
C124 N122 1.346 . S
C124 N125 1.307 1_565 S
C124 C126 1.486 . S
N125 N121 1.370 . S
N125 C124 1.307 1_545 S
C126 C124 1.486 . S
C126 H130 0.960 . S
C126 H131 0.960 . S
C126 H132 0.959 . S
H127 C123 0.960 . S
H128 C123 0.961 1_565 S
H129 C123 0.960 . S
H130 C126 0.960 . S
H131 C126 0.960 . S
H132 C126 0.959 . S
C133 N134 1.317 . S
C133 N135 1.348 . S
C133 C136 1.485 . S
N134 C133 1.317 . S
N134 N138 1.370 . S
N135 C133 1.348 . S
N135 C137 1.346 . S
C136 C133 1.485 . S
C136 H140 0.960 . S
C136 H141 0.961 . S
C136 H142 0.960 . S
C137 N135 1.346 . S
C137 N138 1.307 . S
C137 C139 1.486 . S
N138 N134 1.370 . S
N138 C137 1.307 . S
C139 C137 1.486 . S
C139 H143 0.960 . S
C139 H144 0.960 . S
C139 H145 0.959 . S
H140 C136 0.960 . S
H141 C136 0.961 . S
H142 C136 0.960 . S
H143 C139 0.960 . S
H144 C139 0.960 . S
H145 C139 0.959 . S
C146 N147 1.317 . S
C146 N148 1.348 . S
C146 C149 1.485 . S
N147 C146 1.317 . S
N147 N151 1.370 . S
N148 C146 1.348 . S
N148 C150 1.346 . S
C149 C146 1.485 . S
C149 H153 0.960 . S
C149 H154 0.961 . S
C149 H155 0.960 . S
C150 N148 1.346 . S
C150 N151 1.307 . S
C150 C152 1.486 1_455 S
N151 N147 1.370 . S
N151 C150 1.307 . S
C152 C150 1.486 1_655 S
C152 H156 0.960 . S
C152 H157 0.960 . S
C152 H158 0.959 . S
H153 C149 0.960 . S
H154 C149 0.961 . S
H155 C149 0.960 . S
H156 C152 0.960 . S
H157 C152 0.960 . S
H158 C152 0.959 . S
C159 N160 1.317 . S
C159 N161 1.348 . S
C159 C162 1.485 . S
N160 C159 1.317 . S
N160 N164 1.370 . S
N161 C159 1.348 . S
N161 C163 1.346 . S
C162 C159 1.485 . S
C162 H166 0.960 . S
C162 H167 0.961 . S
C162 H168 0.960 . S
C163 N161 1.346 . S
C163 N164 1.307 . S
C163 C165 1.486 . S
N164 N160 1.370 . S
N164 C163 1.307 . S
C165 C163 1.486 . S
C165 H169 0.960 . S
C165 H170 0.960 . S
C165 H171 0.959 . S
H166 C162 0.960 . S
H167 C162 0.961 . S
H168 C162 0.960 . S
H169 C165 0.960 . S
H170 C165 0.960 . S
H171 C165 0.959 . S
C172 N173 1.317 . S
C172 N174 1.348 . S
C172 C175 1.485 . S
N173 C172 1.317 . S
N173 N177 1.370 . S
N174 C172 1.348 . S
N174 C176 1.346 . S
C175 C172 1.485 . S
C175 H179 0.960 . S
C175 H180 0.961 . S
C175 H181 0.960 . S
C176 N174 1.346 . S
C176 N177 1.307 . S
C176 C178 1.486 . S
N177 N173 1.370 . S
N177 C176 1.307 . S
C178 C176 1.486 . S
C178 H182 0.960 . S
C178 H183 0.960 . S
C178 H184 0.959 . S
H179 C175 0.960 . S
H180 C175 0.961 . S
H181 C175 0.960 . S
H182 C178 0.960 . S
H183 C178 0.960 . S
H184 C178 0.959 . S
C185 N186 1.317 . S
C185 N187 1.348 . S
C185 C188 1.485 . S
N186 C185 1.317 . S
N186 N190 1.370 . S
N187 C185 1.348 . S
N187 C189 1.346 . S
C188 C185 1.485 . S
C188 H192 0.960 . S
C188 H193 0.961 . S
C188 H194 0.960 . S
C189 N187 1.346 . S
C189 N190 1.307 . S
C189 C191 1.486 . S
N190 N186 1.370 . S
N190 C189 1.307 . S
C191 C189 1.486 . S
C191 H195 0.960 . S
C191 H196 0.960 . S
C191 H197 0.959 . S
H192 C188 0.960 . S
H193 C188 0.961 . S
H194 C188 0.960 . S
H195 C191 0.960 . S
H196 C191 0.960 . S
H197 C191 0.959 . S
C198 C199 1.363 . S
C198 C204 1.379 . S
C198 N206 1.356 . S
C199 C198 1.363 . S
C199 C205 1.363 . S
C200 C201 1.363 . S
C200 C205 1.379 . S
C200 N207 1.356 . S
C201 C200 1.363 . S
C201 C204 1.363 . S
N202 C204 1.356 . S
N202 H214 0.984 . S
N202 H215 0.985 . S
N203 C205 1.356 . S
N203 H208 0.984 . S
N203 H209 0.985 . S
C204 C198 1.379 . S
C204 C201 1.363 . S
C204 N202 1.356 . S
C205 C199 1.363 . S
C205 C200 1.379 . S
C205 N203 1.356 . S
N206 C198 1.356 . S
N206 H212 0.984 . S
N206 H213 0.984 . S
N207 C200 1.356 . S
N207 H210 0.984 . S
N207 H211 0.985 . S
H208 N203 0.984 . S
H209 N203 0.985 . S
H210 N207 0.984 . S
H211 N207 0.985 . S
H212 N206 0.984 . S
H213 N206 0.984 . S
H214 N202 0.984 . S
H215 N202 0.985 . S
C216 C217 1.363 . S
C216 C222 1.379 . S
C216 N224 1.356 . S
C217 C216 1.363 . S
C217 C223 1.363 . S
C218 C219 1.363 . S
C218 C223 1.379 . S
C218 N225 1.356 . S
C219 C218 1.363 . S
C219 C222 1.363 . S
N220 C222 1.356 . S
N220 H232 0.984 . S
N220 H233 0.985 . S
N221 C223 1.356 . S
N221 H226 0.984 . S
N221 H227 0.985 . S
C222 C216 1.379 . S
C222 C219 1.363 . S
C222 N220 1.356 . S
C223 C217 1.363 . S
C223 C218 1.379 . S
C223 N221 1.356 . S
N224 C216 1.356 . S
N224 H230 0.984 . S
N224 H231 0.984 . S
N225 C218 1.356 . S
N225 H228 0.984 1_655 S
N225 H229 0.985 . S
H226 N221 0.984 . S
H227 N221 0.985 . S
H228 N225 0.984 1_455 S
H229 N225 0.985 . S
H230 N224 0.984 . S
H231 N224 0.984 . S
H232 N220 0.984 . S
H233 N220 0.985 . S
C234 C235 1.363 . S
C234 C240 1.379 . S
C234 N242 1.356 . S
C235 C234 1.363 . S
C235 C241 1.363 . S
C236 C237 1.363 1_545 S
C236 C241 1.379 1_545 S
C236 N243 1.356 . S
C237 C236 1.363 1_565 S
C237 C240 1.363 . S
N238 C240 1.356 . S
N238 H250 0.984 . S
N238 H251 0.985 . S
N239 C241 1.356 1_545 S
N239 H244 0.984 1_545 S
N239 H245 0.985 . S
C240 C234 1.379 . S
C240 C237 1.363 . S
C240 N238 1.356 . S
C241 C235 1.363 . S
C241 C236 1.379 1_565 S
C241 N239 1.356 1_565 S
N242 C234 1.356 . S
N242 H248 0.984 . S
N242 H249 0.984 . S
N243 C236 1.356 . S
N243 H246 0.984 . S
N243 H247 0.985 . S
H244 N239 0.984 1_565 S
H245 N239 0.985 . S
H246 N243 0.984 . S
H247 N243 0.985 . S
H248 N242 0.984 . S
H249 N242 0.984 . S
H250 N238 0.984 . S
H251 N238 0.985 . S
C252 C253 1.363 . S
C252 C258 1.379 . S
C252 N260 1.356 . S
C253 C252 1.363 . S
C253 C259 1.363 . S
C254 C255 1.363 . S
C254 C259 1.379 . S
C254 N261 1.356 . S
C255 C254 1.363 . S
C255 C258 1.363 . S
N256 C258 1.356 . S
N256 H268 0.984 . S
N256 H269 0.985 . S
N257 C259 1.356 . S
N257 H262 0.984 . S
N257 H263 0.985 . S
C258 C252 1.379 . S
C258 C255 1.363 . S
C258 N256 1.356 . S
C259 C253 1.363 . S
C259 C254 1.379 . S
C259 N257 1.356 . S
N260 C252 1.356 . S
N260 H266 0.984 . S
N260 H267 0.984 . S
N261 C254 1.356 . S
N261 H264 0.984 . S
N261 H265 0.985 . S
H262 N257 0.984 . S
H263 N257 0.985 . S
H264 N261 0.984 . S
H265 N261 0.985 . S
H266 N260 0.984 . S
H267 N260 0.984 . S
H268 N256 0.984 . S
H269 N256 0.985 . S
C270 C271 1.363 . S
C270 C276 1.379 . S
C270 N278 1.356 . S
C271 C270 1.363 . S
C271 C277 1.363 . S
C272 C273 1.363 . S
C272 C277 1.379 . S
C272 N279 1.356 . S
C273 C272 1.363 . S
C273 C276 1.363 . S
N274 C276 1.356 . S
N274 H286 0.984 . S
N274 H287 0.985 . S
N275 C277 1.356 . S
N275 H280 0.984 . S
N275 H281 0.985 . S
C276 C270 1.379 . S
C276 C273 1.363 . S
C276 N274 1.356 . S
C277 C271 1.363 . S
C277 C272 1.379 . S
C277 N275 1.356 . S
N278 C270 1.356 . S
N278 H284 0.984 . S
N278 H285 0.984 . S
N279 C272 1.356 . S
N279 H282 0.984 . S
N279 H283 0.985 . S
H280 N275 0.984 . S
H281 N275 0.985 . S
H282 N279 0.984 . S
H283 N279 0.985 . S
H284 N278 0.984 . S
H285 N278 0.984 . S
H286 N274 0.984 . S
H287 N274 0.985 . S
C288 C289 1.363 . S
C288 C294 1.379 . S
C288 N296 1.356 . S
C289 C288 1.363 . S
C289 C295 1.363 . S
C290 C291 1.363 . S
C290 C295 1.379 . S
C290 N297 1.356 . S
C291 C290 1.363 . S
C291 C294 1.363 . S
N292 C294 1.356 . S
N292 H304 0.984 . S
N292 H305 0.985 . S
N293 C295 1.356 . S
N293 H298 0.984 . S
N293 H299 0.985 . S
C294 C288 1.379 . S
C294 C291 1.363 . S
C294 N292 1.356 . S
C295 C289 1.363 . S
C295 C290 1.379 . S
C295 N293 1.356 . S
N296 C288 1.356 . S
N296 H302 0.984 . S
N296 H303 0.984 . S
N297 C290 1.356 . S
N297 H300 0.984 . S
N297 H301 0.985 . S
H298 N293 0.984 . S
H299 N293 0.985 . S
H300 N297 0.984 . S
H301 N297 0.985 . S
H302 N296 0.984 . S
H303 N296 0.984 . S
H304 N292 0.984 . S
H305 N292 0.985 . S
C306 C307 1.363 . S
C306 C312 1.379 . S
C306 N314 1.356 . S
C307 C306 1.363 . S
C307 C313 1.363 . S
C308 C309 1.363 . S
C308 C313 1.379 . S
C308 N315 1.356 . S
C309 C308 1.363 . S
C309 C312 1.363 . S
N310 C312 1.356 . S
N310 H322 0.984 . S
N310 H323 0.985 . S
N311 C313 1.356 . S
N311 H316 0.984 . S
N311 H317 0.985 . S
C312 C306 1.379 . S
C312 C309 1.363 . S
C312 N310 1.356 . S
C313 C307 1.363 . S
C313 C308 1.379 . S
C313 N311 1.356 . S
N314 C306 1.356 . S
N314 H320 0.984 . S
N314 H321 0.984 . S
N315 C308 1.356 . S
N315 H318 0.984 . S
N315 H319 0.985 . S
H316 N311 0.984 . S
H317 N311 0.985 . S
H318 N315 0.984 . S
H319 N315 0.985 . S
H320 N314 0.984 . S
H321 N314 0.984 . S
H322 N310 0.984 . S
H323 N310 0.985 . S
C324 C325 1.363 . S
C324 C330 1.379 . S
C324 N332 1.356 . S
C325 C324 1.363 . S
C325 C331 1.363 . S
C326 C327 1.363 . S
C326 C331 1.379 . S
C326 N333 1.356 . S
C327 C326 1.363 . S
C327 C330 1.363 . S
N328 C330 1.356 . S
N328 H340 0.984 1_655 S
N328 H341 0.985 1_655 S
N329 C331 1.356 . S
N329 H334 0.984 . S
N329 H335 0.985 . S
C330 C324 1.379 . S
C330 C327 1.363 . S
C330 N328 1.356 . S
C331 C325 1.363 . S
C331 C326 1.379 . S
C331 N329 1.356 . S
N332 C324 1.356 . S
N332 H338 0.984 . S
N332 H339 0.984 . S
N333 C326 1.356 . S
N333 H336 0.984 . S
N333 H337 0.985 . S
H334 N329 0.984 . S
H335 N329 0.985 . S
H336 N333 0.984 . S
H337 N333 0.985 . S
H338 N332 0.984 . S
H339 N332 0.984 . S
H340 N328 0.984 1_455 S
H341 N328 0.985 1_455 S
C342 C343 1.363 . S
C342 C348 1.379 . S
C342 N350 1.356 . S
C343 C342 1.363 . S
C343 C349 1.363 . S
C344 C345 1.363 . S
C344 C349 1.379 . S
C344 N351 1.356 . S
C345 C344 1.363 . S
C345 C348 1.363 . S
N346 C348 1.356 . S
N346 H358 0.984 . S
N346 H359 0.985 . S
N347 C349 1.356 . S
N347 H352 0.984 . S
N347 H353 0.985 . S
C348 C342 1.379 . S
C348 C345 1.363 . S
C348 N346 1.356 . S
C349 C343 1.363 . S
C349 C344 1.379 . S
C349 N347 1.356 . S
N350 C342 1.356 . S
N350 H356 0.984 . S
N350 H357 0.984 . S
N351 C344 1.356 . S
N351 H354 0.984 . S
N351 H355 0.985 . S
H352 N347 0.984 . S
H353 N347 0.985 . S
H354 N351 0.984 . S
H355 N351 0.985 . S
H356 N350 0.984 . S
H357 N350 0.984 . S
H358 N346 0.984 . S
H359 N346 0.985 . S
C360 C361 1.363 . S
C360 C366 1.379 . S
C360 N368 1.356 . S
C361 C360 1.363 . S
C361 C367 1.363 . S
C362 C363 1.363 . S
C362 C367 1.379 . S
C362 N369 1.356 . S
C363 C362 1.363 . S
C363 C366 1.363 . S
N364 C366 1.356 . S
N364 H376 0.984 . S
N364 H377 0.985 . S
N365 C367 1.356 . S
N365 H370 0.984 . S
N365 H371 0.985 . S
C366 C360 1.379 . S
C366 C363 1.363 . S
C366 N364 1.356 . S
C367 C361 1.363 . S
C367 C362 1.379 . S
C367 N365 1.356 . S
N368 C360 1.356 . S
N368 H374 0.984 . S
N368 H375 0.984 . S
N369 C362 1.356 . S
N369 H372 0.984 . S
N369 H373 0.985 . S
H370 N365 0.984 . S
H371 N365 0.985 . S
H372 N369 0.984 . S
H373 N369 0.985 . S
H374 N368 0.984 . S
H375 N368 0.984 . S
H376 N364 0.984 . S
H377 N364 0.985 . S
C378 C379 1.363 . S
C378 C384 1.379 . S
C378 N386 1.356 . S
C379 C378 1.363 . S
C379 C385 1.363 . S
C380 C381 1.363 . S
C380 C385 1.379 . S
C380 N387 1.356 . S
C381 C380 1.363 . S
C381 C384 1.363 . S
N382 C384 1.356 . S
N382 H394 0.984 . S
N382 H395 0.985 . S
N383 C385 1.356 . S
N383 H388 0.984 . S
N383 H389 0.985 . S
C384 C378 1.379 . S
C384 C381 1.363 . S
C384 N382 1.356 . S
C385 C379 1.363 . S
C385 C380 1.379 . S
C385 N383 1.356 . S
N386 C378 1.356 . S
N386 H392 0.984 . S
N386 H393 0.984 . S
N387 C380 1.356 . S
N387 H390 0.984 . S
N387 H391 0.985 . S
H388 N383 0.984 . S
H389 N383 0.985 . S
H390 N387 0.984 . S
H391 N387 0.985 . S
H392 N386 0.984 . S
H393 N386 0.984 . S
H394 N382 0.984 . S
H395 N382 0.985 . S
C396 C397 1.363 . S
C396 C402 1.379 . S
C396 N404 1.356 . S
C397 C396 1.363 . S
C397 C403 1.363 . S
C398 C399 1.363 . S
C398 C403 1.379 . S
C398 N405 1.356 . S
C399 C398 1.363 . S
C399 C402 1.363 . S
N400 C402 1.356 . S
N400 H412 0.984 . S
N400 H413 0.985 . S
N401 C403 1.356 . S
N401 H406 0.984 . S
N401 H407 0.985 . S
C402 C396 1.379 . S
C402 C399 1.363 . S
C402 N400 1.356 . S
C403 C397 1.363 . S
C403 C398 1.379 . S
C403 N401 1.356 . S
N404 C396 1.356 . S
N404 H410 0.984 . S
N404 H411 0.984 . S
N405 C398 1.356 . S
N405 H408 0.984 . S
N405 H409 0.985 . S
H406 N401 0.984 . S
H407 N401 0.985 . S
H408 N405 0.984 . S
H409 N405 0.985 . S
H410 N404 0.984 . S
H411 N404 0.984 . S
H412 N400 0.984 . S
H413 N400 0.985 . S
C414 C415 1.363 . S
C414 C420 1.379 1_554 S
C414 N422 1.356 . S
C415 C414 1.363 . S
C415 C421 1.363 . S
C416 C417 1.363 . S
C416 C421 1.379 1_556 S
C416 N423 1.356 . S
C417 C416 1.363 . S
C417 C420 1.363 . S
N418 C420 1.356 . S
N418 H430 0.984 . S
N418 H431 0.985 . S
N419 C421 1.356 . S
N419 H424 0.984 . S
N419 H425 0.985 . S
C420 C414 1.379 1_556 S
C420 C417 1.363 . S
C420 N418 1.356 . S
C421 C415 1.363 . S
C421 C416 1.379 1_554 S
C421 N419 1.356 . S
N422 C414 1.356 . S
N422 H428 0.984 . S
N422 H429 0.984 . S
N423 C416 1.356 . S
N423 H426 0.984 . S
N423 H427 0.985 . S
H424 N419 0.984 . S
H425 N419 0.985 . S
H426 N423 0.984 . S
H427 N423 0.985 . S
H428 N422 0.984 . S
H429 N422 0.984 . S
H430 N418 0.984 . S
H431 N418 0.985 . S
C432 C433 1.363 1_565 S
C432 C438 1.379 . S
C432 N440 1.356 . S
C433 C432 1.363 1_545 S
C433 C439 1.363 . S
C434 C435 1.363 . S
C434 C439 1.379 . S
C434 N441 1.356 . S
C435 C434 1.363 . S
C435 C438 1.363 1_545 S
N436 C438 1.356 . S
N436 H448 0.984 . S
N436 H449 0.985 . S
N437 C439 1.356 . S
N437 H442 0.984 . S
N437 H443 0.985 . S
C438 C432 1.379 . S
C438 C435 1.363 1_565 S
C438 N436 1.356 . S
C439 C433 1.363 . S
C439 C434 1.379 . S
C439 N437 1.356 . S
N440 C432 1.356 . S
N440 H446 0.984 . S
N440 H447 0.984 . S
N441 C434 1.356 . S
N441 H444 0.984 . S
N441 H445 0.985 . S
H442 N437 0.984 . S
H443 N437 0.985 . S
H444 N441 0.984 . S
H445 N441 0.985 . S
H446 N440 0.984 . S
H447 N440 0.984 . S
H448 N436 0.984 . S
H449 N436 0.985 . S
C450 C451 1.363 . S
C450 C456 1.379 . S
C450 N458 1.356 . S
C451 C450 1.363 . S
C451 C457 1.363 . S
C452 C453 1.363 . S
C452 C457 1.379 . S
C452 N459 1.356 . S
C453 C452 1.363 . S
C453 C456 1.363 . S
N454 C456 1.356 . S
N454 H466 0.984 . S
N454 H467 0.985 . S
N455 C457 1.356 . S
N455 H460 0.984 . S
N455 H461 0.985 . S
C456 C450 1.379 . S
C456 C453 1.363 . S
C456 N454 1.356 . S
C457 C451 1.363 . S
C457 C452 1.379 . S
C457 N455 1.356 . S
N458 C450 1.356 . S
N458 H464 0.984 . S
N458 H465 0.984 . S
N459 C452 1.356 . S
N459 H462 0.984 . S
N459 H463 0.985 . S
H460 N455 0.984 . S
H461 N455 0.985 . S
H462 N459 0.984 . S
H463 N459 0.985 . S
H464 N458 0.984 . S
H465 N458 0.984 . S
H466 N454 0.984 . S
H467 N454 0.985 . S
C468 C469 1.363 1_565 S
C468 C474 1.379 . S
C468 N476 1.356 . S
C469 C468 1.363 1_545 S
C469 C475 1.363 . S
C470 C471 1.363 . S
C470 C475 1.379 . S
C470 N477 1.356 . S
C471 C470 1.363 . S
C471 C474 1.363 1_545 S
N472 C474 1.356 . S
N472 H484 0.984 . S
N472 H485 0.985 . S
N473 C475 1.356 . S
N473 H478 0.984 . S
N473 H479 0.985 . S
C474 C468 1.379 . S
C474 C471 1.363 1_565 S
C474 N472 1.356 . S
C475 C469 1.363 . S
C475 C470 1.379 . S
C475 N473 1.356 . S
N476 C468 1.356 . S
N476 H482 0.984 . S
N476 H483 0.984 . S
N477 C470 1.356 . S
N477 H480 0.984 . S
N477 H481 0.985 . S
H478 N473 0.984 . S
H479 N473 0.985 . S
H480 N477 0.984 . S
H481 N477 0.985 . S
H482 N476 0.984 . S
H483 N476 0.984 . S
H484 N472 0.984 . S
H485 N472 0.985 . S
C486 C487 1.363 . S
C486 C492 1.379 1_556 S
C486 N494 1.356 . S
C487 C486 1.363 . S
C487 C493 1.363 . S
C488 C489 1.363 . S
C488 C493 1.379 1_554 S
C488 N495 1.356 . S
C489 C488 1.363 . S
C489 C492 1.363 . S
N490 C492 1.356 . S
N490 H502 0.984 . S
N490 H503 0.985 . S
N491 C493 1.356 . S
N491 H496 0.984 . S
N491 H497 0.985 . S
C492 C486 1.379 1_554 S
C492 C489 1.363 . S
C492 N490 1.356 . S
C493 C487 1.363 . S
C493 C488 1.379 1_556 S
C493 N491 1.356 . S
N494 C486 1.356 . S
N494 H500 0.984 . S
N494 H501 0.984 . S
N495 C488 1.356 . S
N495 H498 0.984 . S
N495 H499 0.985 . S
H496 N491 0.984 . S
H497 N491 0.985 . S
H498 N495 0.984 . S
H499 N495 0.985 . S
H500 N494 0.984 . S
H501 N494 0.984 . S
H502 N490 0.984 . S
H503 N490 0.985 . S
C504 C505 1.363 . S
C504 C510 1.379 . S
C504 N512 1.356 . S
C505 C504 1.363 . S
C505 C511 1.363 1_655 S
C506 C507 1.363 . S
C506 C511 1.379 . S
C506 N513 1.356 . S
C507 C506 1.363 . S
C507 C510 1.363 1_455 S
N508 C510 1.356 . S
N508 H520 0.984 . S
N508 H521 0.985 . S
N509 C511 1.356 . S
N509 H514 0.984 . S
N509 H515 0.985 . S
C510 C504 1.379 . S
C510 C507 1.363 1_655 S
C510 N508 1.356 . S
C511 C505 1.363 1_455 S
C511 C506 1.379 . S
C511 N509 1.356 . S
N512 C504 1.356 . S
N512 H518 0.984 . S
N512 H519 0.984 . S
N513 C506 1.356 . S
N513 H516 0.984 . S
N513 H517 0.985 . S
H514 N509 0.984 . S
H515 N509 0.985 . S
H516 N513 0.984 . S
H517 N513 0.985 . S
H518 N512 0.984 . S
H519 N512 0.984 . S
H520 N508 0.984 . S
H521 N508 0.985 . S
C199 C7 0.802 . S
C201 N187 0.829 . S
C217 C51 1.866 . S
C219 N160 1.864 1_655 S
C235 C87 1.374 . S
C237 N173 1.376 1_565 S
C253 C16 1.038 . S
C255 N186 1.157 . S
C273 N161 1.991 . S
C271 C42 2.002 . S
C291 N174 1.498 . S
C289 C96 1.431 . S
C307 C47 1.185 . S
C309 N134 1.187 . S
C325 C91 2.951 . S
C327 N148 2.903 1_655 S
C343 C2 2.032 . S
C345 N122 2.045 . S
C363 N135 1.566 . S
C361 C56 1.479 . S
C381 N147 3.287 . S
C379 C82 3.245 . S
C397 C11 1.872 . S
C399 N121 1.905 . S
C417 N151 1.766 . S
C415 C19 1.782 . S
C433 C50 1.449 . S
C435 N125 1.453 . S
C451 C99 1.485 . S
C453 N138 1.583 . S
C471 N177 1.526 . S
C469 C59 1.454 . S
C489 N190 1.169 . S
C487 C90 1.192 . S
C505 C10 1.399 1_655 S
C507 N164 1.427 . S
