# Generated by pormake.
# Topology anh, (6,3)-cn, num edge types: 1
# Building blocks:
#     Node 0, Type 0, BuildingBlock: BETDEL_clean_sbu_0, # of connection points: 6
#     Node 1, Type 0, BuildingBlock: BETDEL_clean_sbu_0, # of connection points: 6
#     Node 2, Type 0, BuildingBlock: BETDEL_clean_sbu_0, # of connection points: 6
#     Node 3, Type 1, BuildingBlock: BETDIP_clean_linker_0, # of connection points: 3
#     Node 4, Type 1, BuildingBlock: BETDIP_clean_linker_0, # of connection points: 3
#     Node 5, Type 1, BuildingBlock: BETDIP_clean_linker_0, # of connection points: 3
#     Node 6, Type 1, BuildingBlock: BETDIP_clean_linker_0, # of connection points: 3
#     Node 7, Type 1, BuildingBlock: BETDIP_clean_linker_0, # of connection points: 3
#     Node 8, Type 1, BuildingBlock: BETDIP_clean_linker_0, # of connection points: 3
#     Edge 9, Type (0, 1), BuildingBlock: MIFKUJ_clean_linker_0, # of connection points: 2
#     Edge 10, Type (0, 1), BuildingBlock: MIFKUJ_clean_linker_0, # of connection points: 2
#     Edge 11, Type (0, 1), BuildingBlock: MIFKUJ_clean_linker_0, # of connection points: 2
#     Edge 12, Type (0, 1), BuildingBlock: MIFKUJ_clean_linker_0, # of connection points: 2
#     Edge 13, Type (0, 1), BuildingBlock: MIFKUJ_clean_linker_0, # of connection points: 2
#     Edge 14, Type (0, 1), BuildingBlock: MIFKUJ_clean_linker_0, # of connection points: 2
#     Edge 15, Type (0, 1), BuildingBlock: MIFKUJ_clean_linker_0, # of connection points: 2
#     Edge 16, Type (0, 1), BuildingBlock: MIFKUJ_clean_linker_0, # of connection points: 2
#     Edge 17, Type (0, 1), BuildingBlock: MIFKUJ_clean_linker_0, # of connection points: 2
#     Edge 18, Type (0, 1), BuildingBlock: MIFKUJ_clean_linker_0, # of connection points: 2
#     Edge 19, Type (0, 1), BuildingBlock: MIFKUJ_clean_linker_0, # of connection points: 2
#     Edge 20, Type (0, 1), BuildingBlock: MIFKUJ_clean_linker_0, # of connection points: 2
#     Edge 21, Type (0, 1), BuildingBlock: MIFKUJ_clean_linker_0, # of connection points: 2
#     Edge 22, Type (0, 1), BuildingBlock: MIFKUJ_clean_linker_0, # of connection points: 2
#     Edge 23, Type (0, 1), BuildingBlock: MIFKUJ_clean_linker_0, # of connection points: 2
#     Edge 24, Type (0, 1), BuildingBlock: MIFKUJ_clean_linker_0, # of connection points: 2
#     Edge 25, Type (0, 1), BuildingBlock: MIFKUJ_clean_linker_0, # of connection points: 2
#     Edge 26, Type (0, 1), BuildingBlock: MIFKUJ_clean_linker_0, # of connection points: 2
# Relax obj value: 0.099
# Max RMSD: 0.162
# Mean RMSD: 0.118
data_MOF--net-anh--node1-BETDEL_clean_sbu_0--node2-BETDIP_clean_linker_0--edge1-MIFKUJ_clean_linker_0
_symmetry_space_group_name_H-M    P1
_symmetry_Int_Tables_number       1
_symmetry_cell_setting            triclinic
loop_
_symmetry_equiv_pos_as_xyz
'x, y, z'
_cell_length_a     39.087066
_cell_length_b     39.131057
_cell_length_c     63.237083
_cell_angle_alpha  92.645086
_cell_angle_beta   90.13098
_cell_angle_gamma 119.9271
loop_
_atom_site_label
_atom_site_type_symbol
_atom_site_fract_x
_atom_site_fract_y
_atom_site_fract_z
_atom_type_partial_charge
Dy0 Dy 0.08485 0.5169 0.16289 0.0
C1 C 0.98604 0.58439 0.17304 0.0
C2 C 0.13677 0.49054 0.15552 0.0
Dy3 Dy 0.03931 0.56004 0.16461 0.0
O4 O 0.13298 0.50569 0.1734 0.0
O5 O 0.11185 0.4894 0.14146 0.0
O6 O 0.06213 0.49276 0.19439 0.0
O7 O 0.07326 0.54973 0.18794 0.0
C8 C 0.05956 0.52321 0.20116 0.0
C9 C 0.06371 0.55314 0.12591 0.0
O10 O 0.09907 0.61244 0.17244 0.0
O11 O 0.13274 0.58102 0.16027 0.0
O12 O 1.00077 0.58429 0.15471 0.0
O13 O 1.00127 0.5721 0.18697 0.0
O14 O 0.06165 0.58366 0.13309 0.0
O15 O 0.05037 0.5267 0.13926 0.0
O16 O 0.02448 0.46319 0.15805 0.0
O17 O 0.99063 0.4964 0.16639 0.0
C18 C 0.1324 0.61362 0.16695 0.0
C19 C 0.99111 0.46304 0.16223 0.0
Dy20 Dy 0.48025 0.01301 0.49197 0.0
C21 C 0.64751 0.11791 0.51568 0.0
C22 C 0.40899 0.96298 0.47256 0.0
Dy23 Dy 0.57292 0.06252 0.50169 0.0
O24 O 0.41578 0.99182 0.48616 0.0
O25 O 0.4416 0.96268 0.46895 0.0
O26 O 0.46055 1.00342 0.52599 0.0
O27 O 0.51963 0.03373 0.51892 0.0
C28 C 0.49636 0.02183 0.53394 0.0
C29 C 0.54967 0.03689 0.46125 0.0
O30 O 0.56097 1.00262 0.51066 0.0
O31 O 0.49941 0.96697 0.49312 0.0
O32 O 0.63877 0.09674 0.498 0.0
O33 O 0.61552 0.10803 0.52602 0.0
O34 O 0.58214 0.04174 0.46981 0.0
O35 O 0.53299 0.04909 0.47413 0.0
O36 O 0.48991 0.07481 0.48961 0.0
O37 O 0.55635 0.11016 0.50076 0.0
C38 C 0.53038 0.96865 0.50312 0.0
C39 C 0.52264 0.10864 0.49531 0.0
Dy40 Dy 0.60804 0.55909 0.82737 0.0
C41 C 0.53806 0.39667 0.84495 0.0
C42 C 0.63097 0.63261 0.8143 0.0
Dy43 Dy 0.56277 0.47064 0.83184 0.0
O44 O 0.63655 0.62472 0.83328 0.0
O45 O 0.61378 0.60035 0.80229 0.0
O46 O 0.63484 0.56837 0.86012 0.0
O47 O 0.57765 0.52113 0.853 0.0
C48 C 0.60511 0.53653 0.86682 0.0
C49 C 0.56402 0.49306 0.79247 0.0
O50 O 0.51458 0.48362 0.84106 0.0
O51 O 0.54411 0.54504 0.82677 0.0
O52 O 0.52427 0.40458 0.82831 0.0
O53 O 0.56513 0.42916 0.85445 0.0
O54 O 0.53426 0.46213 0.79984 0.0
O55 O 0.59268 0.5083 0.80569 0.0
O56 O 0.65927 0.54924 0.82228 0.0
O57 O 0.62647 0.48403 0.83187 0.0
C58 C 0.51277 0.51459 0.83465 0.0
C59 C 0.65937 0.51658 0.82702 0.0
H60 H 0.52903 0.01332 0.17232 0.0
H61 H 0.584 0.07033 0.2329 0.0
H62 H 0.47271 0.96256 0.23025 0.0
H63 H 0.60478 0.12483 0.21476 0.0
C64 C 0.61561 0.11716 0.20055 0.0
C65 C 0.52891 0.01441 0.18947 0.0
C66 C 0.49699 0.98402 0.20001 0.0
C67 C 0.56029 0.04667 0.20121 0.0
C68 C 0.55978 0.04686 0.22354 0.0
C69 C 0.52814 0.01703 0.23409 0.0
C70 C 0.49697 0.98598 0.22219 0.0
N71 N 0.59224 0.07831 0.19067 0.0
H72 H 0.5267 0.50704 0.50701 0.0
H73 H 0.5345 0.57175 0.56566 0.0
H74 H 0.54538 0.46796 0.56636 0.0
H75 H 0.47945 0.57188 0.54232 0.0
C76 C 0.50296 0.58873 0.53155 0.0
C77 C 0.53041 0.51064 0.52409 0.0
C78 C 0.53588 0.48315 0.53541 0.0
C79 C 0.5297 0.54282 0.53498 0.0
C80 C 0.53435 0.54696 0.55719 0.0
C81 C 0.54064 0.52047 0.56851 0.0
C82 C 0.54142 0.48891 0.55752 0.0
N83 N 0.52594 0.57185 0.52374 0.0
H84 H 0.05499 0.51734 0.83782 0.0
H85 H 0.11034 0.51633 0.89664 0.0
H86 H 1.00037 0.51613 0.89714 0.0
H87 H 0.16462 0.56783 0.87535 0.0
C88 C 0.15953 0.54463 0.86347 0.0
C89 C 0.05491 0.51663 0.85492 0.0
C90 C 0.02372 0.51674 0.86624 0.0
C91 C 0.08698 0.51754 0.86592 0.0
C92 C 0.08626 0.51632 0.88812 0.0
C93 C 0.05518 0.51569 0.89946 0.0
C94 C 0.02439 0.51642 0.88843 0.0
N95 N 0.12022 0.52028 0.85493 0.0
H96 H 0.02999 0.572 0.48304 0.0
H97 H 0.96685 0.50161 0.42698 0.0
H98 H 0.05634 0.62339 0.42251 0.0
H99 H 0.97517 0.52365 0.49952 0.0
C100 C 0.96589 0.49674 0.48975 0.0
C101 C 0.02358 0.56931 0.46619 0.0
C102 C 0.04517 0.60203 0.45388 0.0
C103 C 0.99481 0.53305 0.45638 0.0
C104 C 0.98871 0.52979 0.43437 0.0
C105 C 1.01041 0.56222 0.42193 0.0
C106 C 0.03827 0.59838 0.43192 0.0
N107 N 0.97273 0.49845 0.46768 0.0
H108 H 0.53564 0.01842 0.81857 0.0
H109 H 0.54555 0.97754 0.7558 0.0
H110 H 0.54392 0.08589 0.76484 0.0
H111 H 0.50397 0.91752 0.77124 0.0
C112 C 0.52326 0.92363 0.78502 0.0
C113 C 0.53873 0.02263 0.80172 0.0
C114 C 0.53941 0.05562 0.79336 0.0
C115 C 0.53995 0.99387 0.78823 0.0
C116 C 0.54347 0.999 0.76634 0.0
C117 C 0.54507 0.03217 0.75788 0.0
C118 C 0.54322 0.06046 0.77144 0.0
N119 N 0.53809 0.96017 0.79689 0.0
H120 H 0.49252 0.44569 0.14395 0.0
H121 H 0.57371 0.45898 0.09507 0.0
H122 H 0.46317 0.45048 0.07873 0.0
H123 H 0.58429 0.41933 0.1204 0.0
C124 C 0.59053 0.44149 0.13313 0.0
C125 C 0.49959 0.44802 0.12734 0.0
C126 C 0.47263 0.44677 0.11207 0.0
C127 C 0.53567 0.45169 0.1213 0.0
C128 C 0.54538 0.45499 0.09983 0.0
C129 C 0.51905 0.45407 0.08444 0.0
C130 C 0.48275 0.44973 0.09063 0.0
N131 N 0.56284 0.45428 0.1371 0.0
H132 H 0.14652 0.45417 0.11987 0.0
H133 H 0.20047 0.44017 0.11332 0.0
H134 H 0.2498 0.48923 0.17583 0.0
H135 H 0.19602 0.5027 0.18255 0.0
H136 H 0.30352 0.52095 0.14243 0.0
H137 H 0.20739 0.39491 0.16804 0.0
H138 H 0.14256 0.33396 0.16806 0.0
H139 H 0.15908 0.30222 0.10455 0.0
H140 H 0.2238 0.36331 0.10405 0.0
H141 H 0.45888 0.48145 0.14729 0.0
H142 H 0.39842 0.48198 0.15589 0.0
H143 H 0.34109 0.40978 0.09908 0.0
H144 H 0.40049 0.40657 0.09118 0.0
H145 H 0.28996 0.3888 0.12877 0.0
H146 H 0.3831 0.51257 0.10151 0.0
H147 H 0.44706 0.57396 0.09927 0.0
H148 H 0.43512 0.6112 0.16242 0.0
H149 H 0.37131 0.54974 0.16514 0.0
C150 C 0.16869 0.46151 0.13224 0.0
C151 C 0.16726 0.47955 0.15168 0.0
C152 C 0.19934 0.45345 0.12852 0.0
C153 C 0.22898 0.46368 0.14413 0.0
C154 C 0.22717 0.48116 0.16362 0.0
C155 C 0.19641 0.48875 0.16743 0.0
C156 C 0.2632 0.45827 0.13988 0.0
C157 C 0.3007 0.49205 0.13969 0.0
C158 C 0.25913 0.42062 0.13564 0.0
C159 C 0.22024 0.38391 0.13593 0.0
C160 C 0.19703 0.37514 0.15401 0.0
C161 C 0.16034 0.34051 0.15412 0.0
C162 C 0.14665 0.31429 0.1363 0.0
C163 C 0.16968 0.32259 0.11834 0.0
C164 C 0.20638 0.35719 0.11814 0.0
C165 C 0.43318 0.46482 0.13687 0.0
C166 C 0.43486 0.44439 0.11836 0.0
C167 C 0.39873 0.46562 0.14167 0.0
C168 C 0.36553 0.44684 0.12782 0.0
C169 C 0.36644 0.42486 0.1099 0.0
C170 C 0.40065 0.42348 0.10527 0.0
C171 C 0.33058 0.45156 0.13153 0.0
C172 C 0.29292 0.41773 0.13151 0.0
C173 C 0.33434 0.48929 0.13522 0.0
C174 C 0.37261 0.52638 0.1336 0.0
C175 C 0.39425 0.53373 0.11497 0.0
C176 C 0.43045 0.56855 0.11361 0.0
C177 C 0.44519 0.59642 0.13072 0.0
C178 C 0.42369 0.58956 0.1492 0.0
C179 C 0.38749 0.55476 0.15065 0.0
H180 H 0.47323 0.62336 0.12963 0.0
H181 H 0.11825 0.28749 0.13642 0.0
H182 H 0.71546 0.14288 0.49432 0.0
H183 H 0.7757 0.20705 0.49875 0.0
H184 H 0.72696 0.23753 0.55273 0.0
H185 H 0.66628 0.17324 0.54819 0.0
H186 H 0.75181 0.29294 0.52472 0.0
H187 H 0.80815 0.22686 0.55891 0.0
H188 H 0.82494 0.17493 0.56438 0.0
H189 H 0.89148 0.20406 0.50757 0.0
H190 H 0.87462 0.2558 0.50156 0.0
H191 H 0.92738 0.48238 0.52703 0.0
H192 H 0.87878 0.41785 0.53983 0.0
H193 H 0.89711 0.35966 0.48506 0.0
H194 H 0.9453 0.42358 0.47227 0.0
H195 H 0.89016 0.32078 0.52176 0.0
H196 H 0.82229 0.37703 0.48482 0.0
H197 H 0.80409 0.4278 0.47871 0.0
H198 H 0.7583 0.41578 0.54128 0.0
H199 H 0.77678 0.36529 0.54785 0.0
C200 C 0.71798 0.16287 0.50745 0.0
C201 C 0.68623 0.1532 0.52087 0.0
C202 C 0.7525 0.19952 0.51003 0.0
C203 C 0.756 0.22711 0.52615 0.0
C204 C 0.72496 0.21669 0.54022 0.0
C205 C 0.6904 0.17993 0.53766 0.0
C206 C 0.79001 0.2681 0.52663 0.0
C207 C 0.78214 0.29914 0.52468 0.0
C208 C 0.82956 0.27618 0.5262 0.0
C209 C 0.83991 0.24512 0.52972 0.0
C210 C 0.82613 0.22202 0.54749 0.0
C211 C 0.8357 0.19264 0.5507 0.0
C212 C 0.85922 0.18616 0.53632 0.0
C213 C 0.87327 0.20911 0.5187 0.0
C214 C 0.86376 0.23853 0.5154 0.0
C215 C 0.9213 0.45572 0.51791 0.0
C216 C 0.93968 0.45797 0.49856 0.0
C217 C 0.89358 0.41897 0.5252 0.0
C218 C 0.88414 0.384 0.5133 0.0
C219 C 0.90396 0.38624 0.4945 0.0
C220 C 0.93131 0.42285 0.48714 0.0
C221 C 0.85169 0.34512 0.51937 0.0
C222 C 0.85987 0.31458 0.52243 0.0
C223 C 0.81237 0.33741 0.52084 0.0
C224 C 0.80144 0.36785 0.51693 0.0
C225 C 0.80871 0.38552 0.49734 0.0
C226 C 0.79827 0.41417 0.49378 0.0
C227 C 0.78019 0.42513 0.50963 0.0
C228 C 0.77242 0.40736 0.52904 0.0
C229 C 0.78287 0.37873 0.5327 0.0
H230 H 0.77209 0.44729 0.50684 0.0
H231 H 0.8666 0.1634 0.53884 0.0
H232 H 0.65971 0.69996 0.83939 0.0
H233 H 0.65007 0.75606 0.83376 0.0
H234 H 0.59777 0.7052 0.77193 0.0
H235 H 0.60692 0.64875 0.7776 0.0
H236 H 0.64404 0.7884 0.7735 0.0
H237 H 0.53812 0.68506 0.8098 0.0
H238 H 0.50795 0.63677 0.83733 0.0
H239 H 0.55468 0.73096 0.88555 0.0
H240 H 0.5856 0.77983 0.85828 0.0
H241 H 0.51281 0.86192 0.7595 0.0
H242 H 0.5397 0.81804 0.76438 0.0
H243 H 0.59344 0.87974 0.82419 0.0
H244 H 0.56696 0.92411 0.81928 0.0
H245 H 0.55084 0.79484 0.82459 0.0
H246 H 0.65127 0.89871 0.78534 0.0
H247 H 0.67644 0.94356 0.75599 0.0
H248 H 0.63441 0.84414 0.71121 0.0
H249 H 0.60843 0.79865 0.74028 0.0
C250 C 0.64718 0.70131 0.82437 0.0
C251 C 0.63388 0.67008 0.80894 0.0
C252 C 0.6416 0.73325 0.82121 0.0
C253 C 0.6227 0.73433 0.80258 0.0
C254 C 0.61241 0.7048 0.78641 0.0
C255 C 0.61776 0.6727 0.78963 0.0
C256 C 0.60965 0.76363 0.80099 0.0
C257 C 0.62356 0.78977 0.78458 0.0
C258 C 0.58304 0.76534 0.81557 0.0
C259 C 0.5646 0.73607 0.83203 0.0
C260 C 0.5423 0.69546 0.82629 0.0
C261 C 0.52498 0.66798 0.84184 0.0
C262 C 0.52951 0.68077 0.86318 0.0
C263 C 0.55128 0.72109 0.86901 0.0
C264 C 0.56868 0.7487 0.85352 0.0
C265 C 0.53025 0.86598 0.77372 0.0
C266 C 0.53794 0.89633 0.78897 0.0
C267 C 0.54571 0.84111 0.77643 0.0
C268 C 0.56885 0.84605 0.79452 0.0
C269 C 0.57578 0.87571 0.81008 0.0
C270 C 0.56068 0.90097 0.80725 0.0
C271 C 0.5854 0.81982 0.79717 0.0
C272 C 0.57185 0.79397 0.81371 0.0
C273 C 0.61177 0.81796 0.78249 0.0
C274 C 0.6276 0.84526 0.76498 0.0
C275 C 0.64709 0.88639 0.76922 0.0
C276 C 0.66157 0.91193 0.75263 0.0
C277 C 0.65695 0.89671 0.73174 0.0
C278 C 0.63793 0.85589 0.7274 0.0
C279 C 0.62337 0.83022 0.74393 0.0
H280 H 0.66817 0.91653 0.71892 0.0
H281 H 0.51605 0.65946 0.87519 0.0
H282 H 0.94558 0.59898 0.14331 0.0
H283 H 0.87841 0.58711 0.14566 0.0
H284 H 0.87791 0.56402 0.21179 0.0
H285 H 0.9451 0.57477 0.20928 0.0
H286 H 0.81859 0.50501 0.19211 0.0
H287 H 0.86725 0.64282 0.19496 0.0
H288 H 0.90801 0.71173 0.18502 0.0
H289 H 0.85261 0.68039 0.12302 0.0
H290 H 0.81192 0.61119 0.13245 0.0
H291 H 0.62186 0.50443 0.16257 0.0
H292 H 0.68877 0.53801 0.17851 0.0
H293 H 0.71363 0.45518 0.14435 0.0
H294 H 0.64694 0.42151 0.12855 0.0
H295 H 0.75808 0.57528 0.15878 0.0
H296 H 0.77539 0.43824 0.1721 0.0
H297 H 0.73496 0.37012 0.18328 0.0
H298 H 0.65868 0.40262 0.21629 0.0
H299 H 0.699 0.47112 0.20564 0.0
C300 C 0.93162 0.59257 0.15852 0.0
C301 C 0.9503 0.58742 0.17607 0.0
C302 C 0.89322 0.58601 0.15989 0.0
C303 C 0.87302 0.57476 0.17893 0.0
C304 C 0.89289 0.57263 0.19694 0.0
C305 C 0.93129 0.57893 0.19552 0.0
C306 C 0.82978 0.55938 0.17894 0.0
C307 C 0.80539 0.52068 0.18514 0.0
C308 C 0.8124 0.57997 0.17015 0.0
C309 C 0.83655 0.62171 0.16443 0.0
C310 C 0.86388 0.65056 0.17917 0.0
C311 C 0.88697 0.68969 0.17363 0.0
C312 C 0.88291 0.70043 0.1534 0.0
C313 C 0.85569 0.67205 0.13869 0.0
C314 C 0.83253 0.63287 0.14415 0.0
C315 C 0.64145 0.49309 0.15872 0.0
C316 C 0.62931 0.46029 0.14439 0.0
C317 C 0.67965 0.51236 0.16778 0.0
C318 C 0.70602 0.49886 0.16279 0.0
C319 C 0.69357 0.4657 0.14874 0.0
C320 C 0.65555 0.44657 0.13966 0.0
C321 C 0.74742 0.52049 0.17107 0.0
C322 C 0.77134 0.56017 0.16632 0.0
C323 C 0.76442 0.50098 0.18137 0.0
C324 C 0.74016 0.45983 0.18798 0.0
C325 C 0.75014 0.43095 0.18186 0.0
C326 C 0.7272 0.39224 0.18807 0.0
C327 C 0.69423 0.38203 0.20044 0.0
C328 C 0.68416 0.41054 0.20666 0.0
C329 C 0.70703 0.44931 0.20052 0.0
H330 H 0.6765 0.35204 0.20522 0.0
H331 H 0.90084 0.73073 0.14914 0.0
H332 H 0.33813 0.96015 0.47683 0.0
H333 H 0.27243 0.90116 0.4736 0.0
H334 H 0.32521 0.83105 0.45413 0.0
H335 H 0.3904 0.89017 0.45622 0.0
H336 H 0.25947 0.80269 0.43417 0.0
H337 H 0.29922 0.84085 0.5075 0.0
H338 H 0.32133 0.88566 0.53957 0.0
H339 H 0.21618 0.89429 0.53612 0.0
H340 H 0.19369 0.8499 0.50386 0.0
H341 H 0.11736 0.61596 0.46642 0.0
H342 H 0.1772 0.68096 0.47138 0.0
H343 H 0.10729 0.73741 0.46527 0.0
H344 H 0.04751 0.67235 0.45975 0.0
H345 H 0.17787 0.77348 0.49808 0.0
H346 H 0.13886 0.73083 0.42407 0.0
H347 H 0.11764 0.6809 0.39433 0.0
H348 H 0.22482 0.67685 0.40148 0.0
H349 H 0.24624 0.72612 0.43162 0.0
C350 C 0.33548 0.93227 0.47135 0.0
C351 C 0.36928 0.92962 0.46687 0.0
C352 C 0.298 0.89848 0.46974 0.0
C353 C 0.29385 0.86132 0.46424 0.0
C354 C 0.3275 0.85922 0.45853 0.0
C355 C 0.36483 0.89309 0.4597 0.0
C356 C 0.25506 0.82435 0.46546 0.0
C357 C 0.2419 0.79641 0.44823 0.0
C358 C 0.23163 0.81591 0.48371 0.0
C359 C 0.245 0.84243 0.50315 0.0
C360 C 0.28095 0.85252 0.51351 0.0
C361 C 0.29353 0.87781 0.53172 0.0
C362 C 0.27023 0.8929 0.53984 0.0
C363 C 0.23423 0.88264 0.52979 0.0
C364 C 0.22154 0.8574 0.51155 0.0
C365 C 0.1147 0.64225 0.46698 0.0
C366 C 0.07807 0.63946 0.46298 0.0
C367 C 0.14879 0.67925 0.46968 0.0
C368 C 0.14651 0.71381 0.46858 0.0
C369 C 0.10949 0.71101 0.46629 0.0
C370 C 0.07546 0.67399 0.46322 0.0
C371 C 0.18301 0.75231 0.46695 0.0
C372 C 0.19554 0.78028 0.48404 0.0
C373 C 0.20624 0.76053 0.44876 0.0
C374 C 0.19397 0.73187 0.43022 0.0
C375 C 0.15776 0.71907 0.41941 0.0
C376 C 0.1457 0.6909 0.40247 0.0
C377 C 0.16984 0.67566 0.39604 0.0
C378 C 0.20614 0.68865 0.40649 0.0
C379 C 0.21825 0.7167 0.4235 0.0
H380 H 0.16045 0.65385 0.38293 0.0
H381 H 0.28002 0.91248 0.55394 0.0
H382 H 0.48431 0.32677 0.82534 0.0
H383 H 0.47879 0.2625 0.82936 0.0
H384 H 0.56726 0.31266 0.87992 0.0
H385 H 0.57305 0.3773 0.87581 0.0
H386 H 0.58736 0.27791 0.84928 0.0
H387 H 0.47434 0.23922 0.8901 0.0
H388 H 0.41013 0.23151 0.9003 0.0
H389 H 0.35522 0.15843 0.84384 0.0
H390 H 0.41918 0.16616 0.8331 0.0
H391 H 0.57697 0.09141 0.8314 0.0
H392 H 0.57172 0.14302 0.85234 0.0
H393 H 0.48524 0.13563 0.80702 0.0
H394 H 0.48982 0.08392 0.78643 0.0
H395 H 0.46654 0.1459 0.84742 0.0
H396 H 0.58252 0.20226 0.80299 0.0
H397 H 0.64696 0.21235 0.79133 0.0
H398 H 0.6958 0.25402 0.85435 0.0
H399 H 0.63142 0.24363 0.86643 0.0
C400 C 0.5018 0.32384 0.83768 0.0
C401 C 0.52935 0.35692 0.85013 0.0
C402 C 0.49845 0.28705 0.84009 0.0
C403 C 0.52249 0.28273 0.85504 0.0
C404 C 0.54836 0.31534 0.86836 0.0
C405 C 0.55163 0.35218 0.86599 0.0
C406 C 0.52468 0.24599 0.85428 0.0
C407 C 0.56112 0.24897 0.84958 0.0
C408 C 0.4904 0.20829 0.85441 0.0
C409 C 0.45169 0.20338 0.86077 0.0
C410 C 0.44864 0.22171 0.87978 0.0
C411 C 0.41226 0.2173 0.88567 0.0
C412 C 0.37863 0.19451 0.87272 0.0
C413 C 0.3813 0.17604 0.85386 0.0
C414 C 0.41761 0.18036 0.84789 0.0
C415 C 0.55639 0.10042 0.82618 0.0
C416 C 0.53426 0.08422 0.80715 0.0
C417 C 0.55346 0.12986 0.83809 0.0
C418 C 0.52831 0.14331 0.83112 0.0
C419 C 0.50477 0.12565 0.81271 0.0
C420 C 0.50777 0.09647 0.80082 0.0
C421 C 0.52879 0.17821 0.84153 0.0
C422 C 0.49292 0.17482 0.84798 0.0
C423 C 0.56353 0.21564 0.84292 0.0
C424 C 0.60207 0.2216 0.83568 0.0
C425 C 0.60692 0.21321 0.8144 0.0
C426 C 0.64343 0.21905 0.8077 0.0
C427 C 0.67541 0.23366 0.82211 0.0
C428 C 0.67096 0.24257 0.84323 0.0
C429 C 0.63448 0.23669 0.85001 0.0
H430 H 0.70367 0.23821 0.8169 0.0
H431 H 0.35049 0.19114 0.87731 0.0
H432 H 0.59362 0.9572 0.51027 0.0
H433 H 0.59256 0.89436 0.51393 0.0
H434 H 0.46577 0.83128 0.50643 0.0
H435 H 0.46664 0.89359 0.50219 0.0
H436 H 0.49805 0.80948 0.54222 0.0
H437 H 0.51294 0.82693 0.46678 0.0
H438 H 0.54615 0.86341 0.43542 0.0
H439 H 0.65237 0.86455 0.4542 0.0
H440 H 0.61994 0.82857 0.48587 0.0
H441 H 0.44801 0.61125 0.53243 0.0
H442 H 0.45564 0.67575 0.52638 0.0
H443 H 0.57843 0.72046 0.51279 0.0
H444 H 0.56995 0.65455 0.51765 0.0
H445 H 0.55393 0.75531 0.48893 0.0
H446 H 0.54335 0.73855 0.56296 0.0
H447 H 0.51539 0.70593 0.5961 0.0
H448 H 0.40895 0.70869 0.58312 0.0
H449 H 0.43605 0.74086 0.54975 0.0
C450 C 0.5655 0.92997 0.5094 0.0
C451 C 0.53023 0.93068 0.50588 0.0
C452 C 0.56495 0.89398 0.51142 0.0
C453 C 0.52908 0.85785 0.5104 0.0
C454 C 0.49385 0.85859 0.50726 0.0
C455 C 0.49443 0.89438 0.50478 0.0
C456 C 0.52796 0.81926 0.51276 0.0
C457 C 0.50989 0.79743 0.53045 0.0
C458 C 0.54475 0.80405 0.49789 0.0
C459 C 0.56416 0.82548 0.47882 0.0
C460 C 0.5435 0.8353 0.46434 0.0
C461 C 0.56215 0.85581 0.44648 0.0
C462 C 0.60139 0.8664 0.44285 0.0
C463 C 0.62201 0.85639 0.45705 0.0
C464 C 0.6035 0.83592 0.47494 0.0
C465 C 0.47656 0.63468 0.52786 0.0
C466 C 0.50832 0.62765 0.52553 0.0
C467 C 0.48109 0.67191 0.52465 0.0
C468 C 0.51802 0.70398 0.51979 0.0
C469 C 0.54962 0.69666 0.51669 0.0
C470 C 0.54479 0.65886 0.51944 0.0
C471 C 0.52326 0.7448 0.51832 0.0
C472 C 0.54219 0.76721 0.50083 0.0
C473 C 0.50804 0.76109 0.53367 0.0
C474 C 0.49162 0.74182 0.55376 0.0
C475 C 0.51388 0.73197 0.5671 0.0
C476 C 0.49819 0.71359 0.58594 0.0
C477 C 0.46039 0.70517 0.59169 0.0
C478 C 0.43822 0.7152 0.57864 0.0
C479 C 0.45374 0.73355 0.55977 0.0
H480 H 0.4483 0.69093 0.60628 0.0
H481 H 0.61578 0.88227 0.42902 0.0
H482 H 0.73458 0.57999 0.83181 0.0
H483 H 0.79662 0.57954 0.83513 0.0
H484 H 0.73327 0.45249 0.82606 0.0
H485 H 0.67093 0.4528 0.82394 0.0
H486 H 0.78419 0.46879 0.85448 0.0
H487 H 0.79597 0.52203 0.78671 0.0
H488 H 0.79582 0.56698 0.76068 0.0
H489 H 0.89088 0.66592 0.79538 0.0
H490 H 0.89127 0.62162 0.82179 0.0
H491 H 0.96027 0.45735 0.84365 0.0
H492 H 0.89912 0.45639 0.83305 0.0
H493 H 0.94967 0.57789 0.85598 0.0
H494 H 1.01044 0.57864 0.86671 0.0
H495 H 0.90548 0.56207 0.81829 0.0
H496 H 0.89016 0.50562 0.88653 0.0
H497 H 0.89007 0.45838 0.91107 0.0
H498 H 0.80023 0.3617 0.87251 0.0
H499 H 0.80026 0.40837 0.84756 0.0
C500 C 0.73386 0.55195 0.83032 0.0
C501 C 0.6976 0.51646 0.82747 0.0
C502 C 0.76958 0.5517 0.8321 0.0
C503 C 0.77032 0.51601 0.83045 0.0
C504 C 0.73402 0.48055 0.82741 0.0
C505 C 0.69821 0.48074 0.8261 0.0
C506 C 0.80851 0.51548 0.83266 0.0
C507 C 0.81036 0.48879 0.84618 0.0
C508 C 0.84341 0.54181 0.82223 0.0
C509 C 0.84341 0.56853 0.80633 0.0
C510 C 0.81668 0.5534 0.78887 0.0
C511 C 0.81657 0.57876 0.77403 0.0
C512 C 0.84326 0.61929 0.7764 0.0
C513 C 0.8702 0.63453 0.79358 0.0
C514 C 0.8704 0.6093 0.80847 0.0
C515 C 0.95864 0.48411 0.84585 0.0
C516 C 0.99033 0.51825 0.85571 0.0
C517 C 0.92355 0.48347 0.83999 0.0
C518 C 0.91945 0.517 0.84386 0.0
C519 C 0.95193 0.55167 0.85275 0.0
C520 C 0.98676 0.55216 0.8588 0.0
C521 C 0.88077 0.51546 0.83999 0.0
C522 C 0.87899 0.54186 0.8263 0.0
C523 C 0.84577 0.48846 0.84997 0.0
C524 C 0.84553 0.46045 0.86506 0.0
C525 C 0.87062 0.47427 0.8832 0.0
C526 C 0.87055 0.4476 0.89719 0.0
C527 C 0.84524 0.40706 0.89332 0.0
C528 C 0.81987 0.3931 0.87547 0.0
C529 C 0.8199 0.41965 0.8614 0.0
H530 H 0.84522 0.38645 0.90417 0.0
H531 H 0.84312 0.63888 0.76491 0.0
H532 H 0.14348 0.68871 0.17305 0.0
H533 H 0.20589 0.75163 0.17547 0.0
H534 H 0.27038 0.68945 0.16695 0.0
H535 H 0.20813 0.62645 0.16437 0.0
H536 H 0.30318 0.74761 0.19935 0.0
H537 H 0.26086 0.73769 0.12684 0.0
H538 H 0.2143 0.72888 0.0979 0.0
H539 H 0.21113 0.83166 0.12197 0.0
H540 H 0.25726 0.84076 0.15124 0.0
H541 H 0.4912 0.91417 0.18629 0.0
H542 H 0.43016 0.85162 0.17745 0.0
H543 H 0.36334 0.912 0.18231 0.0
H544 H 0.42447 0.97448 0.19102 0.0
H545 H 0.33194 0.85441 0.15092 0.0
H546 H 0.37113 0.86434 0.22347 0.0
H547 H 0.41629 0.87435 0.25338 0.0
H548 H 0.42306 0.77269 0.23095 0.0
H549 H 0.37851 0.76252 0.20062 0.0
C550 C 0.17088 0.68832 0.17166 0.0
C551 C 0.17049 0.65224 0.16844 0.0
C552 C 0.20668 0.72447 0.17298 0.0
C553 C 0.24313 0.72559 0.17126 0.0
C554 C 0.24283 0.6896 0.16831 0.0
C555 C 0.20706 0.65348 0.16675 0.0
C556 C 0.28146 0.76416 0.17266 0.0
C557 C 0.30966 0.77067 0.18853 0.0
C558 C 0.2898 0.79496 0.15898 0.0
C559 C 0.26221 0.78967 0.14135 0.0
C560 C 0.24999 0.75823 0.12606 0.0
C561 C 0.22372 0.75322 0.10958 0.0
C562 C 0.20968 0.77963 0.10813 0.0
C563 C 0.22198 0.81119 0.12313 0.0
C564 C 0.24822 0.81631 0.13966 0.0
C565 C 0.46366 0.91427 0.18464 0.0
C566 C 0.46275 0.94939 0.18884 0.0
C567 C 0.42863 0.87839 0.17989 0.0
C568 C 0.39175 0.87669 0.17949 0.0
C569 C 0.39118 0.91226 0.18246 0.0
C570 C 0.42621 0.9481 0.18728 0.0
C571 C 0.35379 0.83777 0.17752 0.0
C572 C 0.32559 0.83125 0.16165 0.0
C573 C 0.34522 0.80708 0.19136 0.0
C574 C 0.37182 0.81292 0.20964 0.0
C575 C 0.3825 0.8443 0.22481 0.0
C576 C 0.40796 0.84998 0.24186 0.0
C577 C 0.42259 0.8242 0.24405 0.0
C578 C 0.41175 0.79266 0.22921 0.0
C579 C 0.3864 0.78693 0.21208 0.0
H580 H 0.44227 0.82861 0.25726 0.0
H581 H 0.18935 0.77571 0.09536 0.0
H582 H 0.58439 0.18326 0.50513 0.0
H583 H 0.58399 0.24526 0.50865 0.0
H584 H 0.46006 0.18442 0.4913 0.0
H585 H 0.46021 0.12166 0.48749 0.0
H586 H 0.49961 0.25644 0.47297 0.0
H587 H 0.49016 0.21119 0.54299 0.0
H588 H 0.50947 0.1862 0.57321 0.0
H589 H 0.62353 0.29117 0.57694 0.0
H590 H 0.60509 0.31657 0.54654 0.0
H591 H 0.47579 0.42026 0.51232 0.0
H592 H 0.47098 0.35642 0.50257 0.0
H593 H 0.59023 0.40164 0.52638 0.0
H594 H 0.59435 0.46462 0.53669 0.0
H595 H 0.54793 0.33442 0.54138 0.0
H596 H 0.55893 0.37931 0.47087 0.0
H597 H 0.54077 0.4042 0.44015 0.0
H598 H 0.42538 0.301 0.43692 0.0
H599 H 0.44269 0.27573 0.46779 0.0
C600 C 0.5569 0.18274 0.50192 0.0
C601 C 0.52222 0.14693 0.49612 0.0
C602 C 0.55674 0.21851 0.50404 0.0
C603 C 0.52188 0.21984 0.5006 0.0
C604 C 0.48739 0.18442 0.49414 0.0
C605 C 0.4875 0.14841 0.492 0.0
C606 C 0.52162 0.25801 0.50443 0.0
C607 C 0.50965 0.27323 0.48804 0.0
C608 C 0.53533 0.28061 0.52393 0.0
C609 C 0.54634 0.26564 0.54238 0.0
C610 C 0.51944 0.22884 0.55017 0.0
C611 C 0.53022 0.21461 0.56735 0.0
C612 C 0.56773 0.23705 0.57696 0.0
C613 C 0.5945 0.27381 0.56947 0.0
C614 C 0.58388 0.28816 0.55228 0.0
C615 C 0.50131 0.41684 0.5149 0.0
C616 C 0.53561 0.44773 0.52508 0.0
C617 C 0.49855 0.38018 0.50937 0.0
C618 C 0.53028 0.37367 0.51363 0.0
C619 C 0.56511 0.40531 0.52297 0.0
C620 C 0.56765 0.44161 0.52869 0.0
C621 C 0.5268 0.33363 0.50975 0.0
C622 C 0.53788 0.31784 0.52626 0.0
C623 C 0.51243 0.31072 0.49033 0.0
C624 C 0.50197 0.32585 0.47178 0.0
C625 C 0.52958 0.36208 0.46371 0.0
C626 C 0.51946 0.37622 0.44625 0.0
C627 C 0.4819 0.35425 0.43663 0.0
C628 C 0.45443 0.31802 0.44441 0.0
C629 C 0.46439 0.30376 0.46188 0.0
H630 H 0.47413 0.36525 0.42311 0.0
H631 H 0.57602 0.22597 0.59025 0.0
H632 H 0.49208 0.5636 0.81569 0.0
H633 H 0.43144 0.56683 0.81954 0.0
H634 H 0.38834 0.47329 0.86299 0.0
H635 H 0.44887 0.46961 0.85905 0.0
H636 H 0.35387 0.51317 0.81069 0.0
H637 H 0.3354 0.49454 0.90154 0.0
H638 H 0.37613 0.51228 0.93442 0.0
H639 H 0.47393 0.60515 0.90365 0.0
H640 H 0.43365 0.58849 0.87073 0.0
H641 H 0.16219 0.48468 0.83911 0.0
H642 H 0.22052 0.47734 0.83304 0.0
H643 H 0.29315 0.58707 0.86915 0.0
H644 H 0.23529 0.59378 0.87558 0.0
H645 H 0.31265 0.53799 0.88112 0.0
H646 H 0.29404 0.57642 0.8132 0.0
H647 H 0.25796 0.57205 0.78022 0.0
H648 H 0.24307 0.45749 0.76417 0.0
H649 H 0.27866 0.46098 0.79722 0.0
C650 C 0.46971 0.54359 0.82604 0.0
C651 C 0.4755 0.51623 0.837 0.0
C652 C 0.43486 0.54537 0.82815 0.0
C653 C 0.40506 0.52033 0.84156 0.0
C654 C 0.4108 0.49306 0.85259 0.0
C655 C 0.44546 0.49089 0.85026 0.0
C656 C 0.36831 0.52309 0.84411 0.0
C657 C 0.34474 0.51833 0.82613 0.0
C658 C 0.35655 0.53071 0.86413 0.0
C659 C 0.38159 0.53987 0.88358 0.0
C660 C 0.36561 0.5187 0.90179 0.0
C661 C 0.38857 0.52871 0.92046 0.0
C662 C 0.42753 0.55991 0.92114 0.0
C663 C 0.44373 0.58101 0.9031 0.0
C664 C 0.42088 0.57121 0.88441 0.0
C665 C 0.19069 0.50732 0.84556 0.0
C666 C 0.1941 0.53989 0.8578 0.0
C667 C 0.22414 0.50318 0.84207 0.0
C668 C 0.26169 0.5317 0.85058 0.0
C669 C 0.26482 0.5644 0.8625 0.0
C670 C 0.23161 0.56836 0.86607 0.0
C671 C 0.29776 0.52765 0.84773 0.0
C672 C 0.32133 0.5322 0.86569 0.0
C673 C 0.31008 0.52101 0.82762 0.0
C674 C 0.28859 0.51876 0.80779 0.0
C675 C 0.28277 0.55015 0.80273 0.0
C676 C 0.26248 0.54787 0.784 0.0
C677 C 0.24812 0.51446 0.77014 0.0
C678 C 0.25413 0.48331 0.77495 0.0
C679 C 0.27438 0.48544 0.79366 0.0
H680 H 0.23243 0.51276 0.75565 0.0
H681 H 0.44525 0.56761 0.93561 0.0
H682 H 0.97791 0.38681 0.15646 0.0
H683 H 0.91543 0.3246 0.15906 0.0
H684 H 0.85545 0.38983 0.17317 0.0
H685 H 0.91725 0.45175 0.17027 0.0
H686 H 0.86719 0.2931 0.19101 0.0
H687 H 0.76026 0.33879 0.15654 0.0
H688 H 0.76052 0.38452 0.13089 0.0
H689 H 0.85161 0.37733 0.09656 0.0
H690 H 0.85167 0.33134 0.12195 0.0
H691 H 0.66907 0.18161 0.22351 0.0
H692 H 0.73328 0.2348 0.21336 0.0
H693 H 0.71615 0.17783 0.15119 0.0
H694 H 0.6515 0.12339 0.16157 0.0
H695 H 0.74397 0.26424 0.15264 0.0
H696 H 0.77889 0.17332 0.18047 0.0
H697 H 0.77885 0.12873 0.20679 0.0
H698 H 0.83203 0.22543 0.25345 0.0
H699 H 0.83185 0.27051 0.22749 0.0
C700 C 0.95138 0.38797 0.15993 0.0
C701 C 0.95294 0.42463 0.16301 0.0
C702 C 0.91556 0.35224 0.1615 0.0
C703 C 0.88022 0.3521 0.16605 0.0
C704 C 0.88182 0.38871 0.1692 0.0
C705 C 0.9175 0.42434 0.16762 0.0
C706 C 0.84199 0.31398 0.16813 0.0
C707 C 0.84042 0.28682 0.18247 0.0
C708 C 0.80667 0.30514 0.15698 0.0
C709 C 0.80612 0.33183 0.14124 0.0
C710 C 0.78018 0.3468 0.14345 0.0
C711 C 0.78032 0.37282 0.12898 0.0
C712 C 0.80611 0.38387 0.11212 0.0
C713 C 0.83172 0.36882 0.10966 0.0
C714 C 0.83171 0.34282 0.12411 0.0
C715 C 0.67896 0.18014 0.20767 0.0
C716 C 0.65512 0.14809 0.1934 0.0
C717 C 0.7158 0.21068 0.2019 0.0
C718 C 0.72984 0.21052 0.18152 0.0
C719 C 0.70604 0.1787 0.16702 0.0
C720 C 0.66917 0.14749 0.17298 0.0
C721 C 0.76927 0.24396 0.17574 0.0
C722 C 0.77096 0.27036 0.1609 0.0
C723 C 0.8047 0.2522 0.18645 0.0
C724 C 0.80509 0.22523 0.20207 0.0
C725 C 0.7903 0.18502 0.19639 0.0
C726 C 0.79037 0.15967 0.21123 0.0
C727 C 0.80537 0.17422 0.23179 0.0
C728 C 0.82041 0.21419 0.23752 0.0
C729 C 0.82038 0.23967 0.22274 0.0
H730 H 0.8054 0.15454 0.24326 0.0
H731 H 0.80623 0.40405 0.10094 0.0
H732 H 0.07535 0.60245 0.09458 0.0
H733 H 0.0742 0.58875 0.05648 0.0
H734 H 0.06001 0.47445 0.06726 0.0
H735 H 0.06025 0.48766 0.10576 0.0
H736 H 0.11928 0.5264 0.03358 0.0
H737 H 0.98337 0.46566 0.05401 0.0
H738 H 0.9276 0.46428 0.07288 0.0
H739 H 0.94092 0.56247 0.03885 0.0
H740 H 0.99721 0.56482 0.02 0.0
H741 H 0.06914 0.46797 0.92404 0.0
H742 H 0.07047 0.46784 0.96276 0.0
H743 H 0.04398 0.56261 0.96648 0.0
H744 H 0.04165 0.56208 0.92782 0.0
H745 H 1.00254 0.51151 0.99382 0.0
H746 H 0.13952 0.57671 0.97537 0.0
H747 H 0.19795 0.58295 0.95717 0.0
H748 H 0.1858 0.4818 0.98765 0.0
H749 H 0.12693 0.47464 0.00582 0.0
C750 C 0.07235 0.5745 0.08892 0.0
C751 C 0.06751 0.54594 0.10313 0.0
C752 C 0.07173 0.56677 0.06714 0.0
C753 C 0.06675 0.53054 0.05912 0.0
C754 C 0.06387 0.50259 0.07323 0.0
C755 C 0.06395 0.51013 0.09514 0.0
C756 C 0.06218 0.52161 0.03595 0.0
C757 C 0.09346 0.52225 0.02483 0.0
C758 C 0.0289 0.51728 0.02464 0.0
C759 C 0.99472 0.51562 0.03573 0.0
C760 C 0.97462 0.48716 0.05067 0.0
C761 C 0.94287 0.48616 0.06134 0.0
C762 C 0.93078 0.51333 0.0571 0.0
C763 C 0.95034 0.54147 0.04213 0.0
C764 C 0.98214 0.54261 0.03143 0.0
C765 C 0.06369 0.48881 0.93317 0.0
C766 C 0.0554 0.51512 0.92293 0.0
C767 C 0.06454 0.48878 0.95528 0.0
C768 C 0.05789 0.51561 0.96761 0.0
C769 C 0.04915 0.54158 0.95736 0.0
C770 C 0.04781 0.54127 0.93526 0.0
C771 C 0.05999 0.51686 0.99117 0.0
C772 C 0.02821 0.51495 0.00244 0.0
C773 C 0.09305 0.52045 0.00256 0.0
C774 C 0.12857 0.52487 0.99176 0.0
C775 C 0.14914 0.55563 0.97807 0.0
C776 C 0.18236 0.55936 0.96778 0.0
C777 C 0.19551 0.53272 0.9712 0.0
C778 C 0.17553 0.50237 0.98498 0.0
C779 C 0.14225 0.49847 0.99529 0.0
H780 H 0.22123 0.53565 0.96322 0.0
H781 H 0.9062 0.51252 0.06538 0.0
H782 H 0.59348 0.02614 0.43141 0.0
H783 H 0.58355 0.02061 0.39301 0.0
H784 H 0.47591 0.02452 0.40038 0.0
H785 H 0.48606 0.0308 0.43915 0.0
H786 H 0.4755 0.96472 0.36758 0.0
H787 H 0.54482 0.10344 0.38885 0.0
H788 H 0.59691 0.16316 0.40819 0.0
H789 H 0.68594 0.15013 0.37515 0.0
H790 H 0.63435 0.08991 0.35586 0.0
H791 H 0.46629 1.00372 0.25923 0.0
H792 H 0.46495 1.00507 0.29792 0.0
H793 H 0.58687 0.03398 0.3008 0.0
H794 H 0.58845 0.03304 0.26211 0.0
H795 H 0.5754 0.07828 0.32908 0.0
H796 H 0.50996 0.93997 0.3092 0.0
H797 H 0.46051 0.87838 0.29011 0.0
H798 H 0.3671 0.88789 0.3203 0.0
H799 H 0.41606 0.94989 0.33941 0.0
C800 C 0.56745 0.02545 0.42492 0.0
C801 C 0.54071 0.02928 0.43824 0.0
C802 C 0.56185 0.02227 0.40298 0.0
C803 C 0.5292 0.02246 0.39391 0.0
C804 C 0.5013 0.02434 0.40714 0.0
C805 C 0.50717 0.02802 0.42921 0.0
C806 C 0.5261 0.02323 0.3706 0.0
C807 C 0.49679 0.98978 0.35911 0.0
C808 C 0.55463 0.05553 0.35964 0.0
C809 C 0.58572 0.09197 0.37105 0.0
C810 C 0.57551 0.11311 0.38584 0.0
C811 C 0.60495 0.14709 0.39677 0.0
C812 C 0.64472 0.16038 0.39293 0.0
C813 C 0.65512 0.13977 0.37812 0.0
C814 C 0.62579 0.10574 0.36717 0.0
C815 C 0.49274 0.01012 0.26812 0.0
C816 C 0.52747 0.01819 0.25762 0.0
C817 C 0.49192 0.01085 0.29024 0.0
C818 C 0.52567 0.01916 0.30231 0.0
C819 C 0.56047 0.02755 0.29185 0.0
C820 C 0.56138 0.02709 0.26974 0.0
C821 C 0.52495 0.01955 0.32583 0.0
C822 C 0.55371 0.05328 0.33743 0.0
C823 C 0.49617 0.98727 0.33683 0.0
C824 C 0.46666 0.9498 0.32556 0.0
C825 C 0.47887 0.92908 0.31166 0.0
C826 C 0.45093 0.89407 0.30085 0.0
C827 C 0.41067 0.87929 0.30393 0.0
C828 C 0.39829 0.89942 0.3179 0.0
C829 C 0.42612 0.93448 0.32875 0.0
H830 H 0.38909 0.85221 0.29552 0.0
H831 H 0.66747 0.18669 0.40141 0.0
H832 H 0.62681 0.52455 0.7663 0.0
H833 H 0.62538 0.53631 0.72868 0.0
H834 H 0.50225 0.50278 0.73254 0.0
H835 H 0.50313 0.488 0.76958 0.0
H836 H 0.50724 0.46905 0.70022 0.0
H837 H 0.58553 0.60486 0.72514 0.0
H838 H 0.64053 0.66336 0.74386 0.0
H839 H 0.72414 0.64766 0.70692 0.0
H840 H 0.66969 0.58925 0.68786 0.0
H841 H 0.49469 0.53115 0.59757 0.0
H842 H 0.50139 0.53415 0.63633 0.0
H843 H 0.60595 0.52401 0.63089 0.0
H844 H 0.59915 0.52055 0.59216 0.0
H845 H 0.61037 0.58273 0.66332 0.0
H846 H 0.52738 0.44518 0.63896 0.0
H847 H 0.47003 0.39059 0.61941 0.0
H848 H 0.39154 0.41452 0.65634 0.0
H849 H 0.44851 0.46968 0.6759 0.0
C850 C 0.59966 0.52016 0.75906 0.0
C851 C 0.56502 0.50517 0.77067 0.0
C852 C 0.59886 0.52721 0.73759 0.0
C853 C 0.56376 0.52092 0.72759 0.0
C854 C 0.52966 0.50762 0.73966 0.0
C855 C 0.53016 0.4993 0.76086 0.0
C856 C 0.56146 0.52503 0.70431 0.0
C857 C 0.52953 0.49446 0.69238 0.0
C858 C 0.59076 0.55758 0.69366 0.0
C859 C 0.62355 0.59248 0.70522 0.0
C860 C 0.61566 0.61373 0.72111 0.0
C861 C 0.64672 0.6469 0.73176 0.0
C862 C 0.68578 0.65903 0.7267 0.0
C863 C 0.69387 0.63818 0.71086 0.0
C864 C 0.66293 0.60515 0.70007 0.0
C865 C 0.51936 0.53007 0.60467 0.0
C866 C 0.54628 0.52539 0.5919 0.0
C867 C 0.52311 0.53171 0.62676 0.0
C868 C 0.55411 0.5292 0.63643 0.0
C869 C 0.58189 0.52609 0.62372 0.0
C870 C 0.57782 0.52384 0.60165 0.0
C871 C 0.55614 0.52719 0.65973 0.0
C872 C 0.58804 0.55784 0.67148 0.0
C873 C 0.52643 0.49522 0.67033 0.0
C874 C 0.4922 0.46179 0.65873 0.0
C875 C 0.4979 0.439 0.64279 0.0
C876 C 0.46547 0.40793 0.63173 0.0
C877 C 0.42717 0.39916 0.63659 0.0
C878 C 0.42122 0.42138 0.65257 0.0
C879 C 0.45357 0.45253 0.66365 0.0
H880 H 0.40209 0.37509 0.62801 0.0
H881 H 0.70976 0.68468 0.73499 0.0
H882 H 0.56953 0.06518 0.55317 0.0
H883 H 0.58539 0.07548 0.59125 0.0
H884 H 0.46204 0.99952 0.60385 0.0
H885 H 0.44616 0.99108 0.56598 0.0
H886 H 0.49009 0.05953 0.63025 0.0
H887 H 0.53322 0.96914 0.60561 0.0
H888 H 0.5711 0.94713 0.58336 0.0
H889 H 0.67971 0.04616 0.60786 0.0
H890 H 0.64241 0.06905 0.63006 0.0
H891 H 0.49569 0.978 0.72789 0.0
H892 H 0.49595 0.98479 0.68956 0.0
H893 H 0.59804 0.10133 0.69734 0.0
H894 H 0.59736 0.09508 0.73594 0.0
H895 H 0.58926 0.03112 0.6615 0.0
H896 H 0.54018 0.11781 0.68797 0.0
H897 H 0.49753 0.13232 0.7109 0.0
H898 H 0.39462 0.03083 0.68302 0.0
H899 H 0.43678 0.01538 0.66017 0.0
C900 C 0.54594 0.0511 0.56411 0.0
C901 C 0.50671 0.02766 0.5567 0.0
C902 C 0.55498 0.05668 0.58585 0.0
C903 C 0.52493 0.038 0.60045 0.0
C904 C 0.48572 0.01444 0.59294 0.0
C905 C 0.47669 0.00947 0.5713 0.0
C906 C 0.53386 0.04255 0.62356 0.0
C907 C 0.51184 0.05333 0.637 0.0
C908 C 0.56258 0.03498 0.63246 0.0
C909 C 0.58503 0.02104 0.6193 0.0
C910 C 0.56518 0.98636 0.60615 0.0
C911 C 0.58654 0.97371 0.59356 0.0
C912 C 0.62779 0.9953 0.59415 0.0
C913 C 0.64776 0.02951 0.60739 0.0
C914 C 0.62653 0.04233 0.61998 0.0
C915 C 0.51833 1.00493 0.72139 0.0
C916 C 0.54649 0.03605 0.73474 0.0
C917 C 0.51844 0.00876 0.69959 0.0
C918 C 0.54703 0.04349 0.6908 0.0
C919 C 0.57584 0.07432 0.70397 0.0
C920 C 0.57529 0.0708 0.7259 0.0
C921 C 0.54526 0.04766 0.66785 0.0
C922 C 0.56832 0.03822 0.65455 0.0
C923 C 0.51704 0.05572 0.65903 0.0
C924 C 0.49165 0.06524 0.67254 0.0
C925 C 0.50849 0.09838 0.68688 0.0
C926 C 0.4844 0.10682 0.69983 0.0
C927 C 0.44339 0.08245 0.69846 0.0
C928 C 0.42639 0.04966 0.68409 0.0
C929 C 0.45036 0.04107 0.67113 0.0
H930 H 0.42479 0.08903 0.70849 0.0
H931 H 0.64427 0.98547 0.58439 0.0
H932 H 0.54604 0.46913 0.88184 0.0
H933 H 0.53558 0.4501 0.91845 0.0
H934 H 0.64147 0.55839 0.93819 0.0
H935 H 0.65356 0.57626 0.90118 0.0
H936 H 0.63266 0.49845 0.96113 0.0
H937 H 0.54853 0.54937 0.93884 0.0
H938 H 0.50026 0.54859 0.91336 0.0
H939 H 0.41642 0.42969 0.92794 0.0
H940 H 0.46462 0.42937 0.95309 0.0
H941 H 0.58682 0.51206 0.06844 0.0
H942 H 0.60364 0.52288 0.0312 0.0
H943 H 0.49311 0.41854 0.01265 0.0
H944 H 0.47569 0.40851 0.04992 0.0
H945 H 0.50421 0.47456 0.98873 0.0
H946 H 0.58507 0.42191 0.01086 0.0
H947 H 0.63409 0.41723 0.0333 0.0
H948 H 0.72252 0.5342 0.01822 0.0
H949 H 0.67387 0.5398 -0.00409 0.0
C950 C 0.5676 0.48843 0.8939 0.0
C951 C 0.60055 0.5242 0.88874 0.0
C952 C 0.56143 0.47768 0.91485 0.0
C953 C 0.58721 0.50329 0.93111 0.0
C954 C 0.62109 0.53829 0.92589 0.0
C955 C 0.62785 0.54858 0.9048 0.0
C956 C 0.57725 0.49497 0.95359 0.0
C957 C 0.6048 0.49366 0.96727 0.0
C958 C 0.54044 0.48779 0.96142 0.0
C959 C 0.51031 0.48924 0.94772 0.0
C960 C 0.51976 0.52309 0.93665 0.0
C961 C 0.49248 0.52277 0.92219 0.0
C962 C 0.45537 0.48903 0.91895 0.0
C963 C 0.44524 0.45575 0.93041 0.0
C964 C 0.47254 0.45579 0.94476 0.0
C965 C 0.56636 0.49126 0.05639 0.0
C966 C 0.53006 0.45937 0.06198 0.0
C967 C 0.57601 0.49737 0.03512 0.0
C968 C 0.54991 0.47118 0.01909 0.0
C969 C 0.51372 0.43913 0.02472 0.0
C970 C 0.50381 0.43337 0.04597 0.0
C971 C 0.55967 0.47799 -0.00356 0.0
C972 C 0.5321 0.47923 0.98269 0.0
C973 C 0.59632 0.48476 0.98854 0.0
C974 C 0.62571 0.48139 0.00186 0.0
C975 C 0.61489 0.44674 0.01245 0.0
C976 C 0.64263 0.44391 0.02513 0.0
C977 C 0.68137 0.47543 0.02723 0.0
C978 C 0.69249 0.50982 0.0166 0.0
C979 C 0.66485 0.51282 0.00392 0.0
H980 H 0.70279 0.47319 0.03706 0.0
H981 H 0.43446 0.48864 0.90756 0.0
H982 H 0.05755 0.58713 0.219 0.0
H983 H 0.04015 0.59553 0.25533 0.0
H984 H 0.01856 0.47906 0.26807 0.0
H985 H 0.03458 0.4701 0.23168 0.0
H986 H 0.96438 0.49139 0.28593 0.0
H987 H 0.10672 0.56362 0.28246 0.0
H988 H 0.17061 0.61331 0.2688 0.0
H989 H 0.14493 0.70529 0.28641 0.0
H990 H 0.08061 0.65602 0.29993 0.0
H991 H 1.00149 0.50011 0.3961 0.0
H992 H 1.0004 0.49531 0.3575 0.0
H993 H 1.01056 0.61008 0.35582 0.0
H994 H 1.01085 0.61484 0.39455 0.0
H995 H 0.06495 0.60365 0.33154 0.0
H996 H 0.92544 0.52967 0.3399 0.0
H997 H 0.86325 0.47849 0.35437 0.0
H998 H 0.88514 0.38806 0.32845 0.0
H999 H 0.94778 0.43871 0.31408 0.0
C1000 C 0.04866 0.56322 0.22952 0.0
C1001 C 0.0476 0.52806 0.22264 0.0
C1002 C 0.03891 0.5681 0.25027 0.0
C1003 C 0.02857 0.53812 0.2645 0.0
C1004 C 0.02644 0.50258 0.25738 0.0
C1005 C 0.03582 0.49758 0.23663 0.0
C1006 C 0.0216 0.54406 0.28706 0.0
C1007 C 0.98643 0.51583 0.29594 0.0
C1008 C 0.04998 0.57648 0.3 0.0
C1009 C 0.08868 0.60611 0.29196 0.0
C1010 C 0.11458 0.59441 0.28326 0.0
C1011 C 0.15088 0.6225 0.27557 0.0
C1012 C 0.16177 0.66242 0.27667 0.0
C1013 C 0.13642 0.67434 0.28553 0.0
C1014 C 0.10005 0.64636 0.29321 0.0
C1015 C 1.00248 0.52394 0.38756 0.0
C1016 C 1.00621 0.55785 0.39844 0.0
C1017 C 1.00197 0.52118 0.36548 0.0
C1018 C 1.00511 0.55222 0.35381 0.0
C1019 C 1.00809 0.58581 0.36455 0.0
C1020 C 1.00841 0.58852 0.38667 0.0
C1021 C 1.00808 0.55057 0.33049 0.0
C1022 C 0.04256 0.57959 0.32147 0.0
C1023 C 0.97925 0.51866 0.3175 0.0
C1024 C 0.94147 0.48805 0.32603 0.0
C1025 C 0.91715 0.49889 0.33742 0.0
C1026 C 0.88179 0.46996 0.34558 0.0
C1027 C 0.87029 0.43005 0.34236 0.0
C1028 C 0.89409 0.41898 0.33093 0.0
C1029 C 0.92951 0.44779 0.32275 0.0
H1030 H 0.8429 0.4077 0.34869 0.0
H1031 H 0.18989 0.68412 0.27071 0.0
loop_
_geom_bond_atom_site_label_1
_geom_bond_atom_site_label_2
_geom_bond_distance
_geom_bond_site_symmetry_2
_ccdc_geom_bond_type
Dy0 O4 2.398 . S
Dy0 O5 2.491 . S
Dy0 O6 2.403 . S
Dy0 O7 2.664 . S
Dy0 O11 2.326 . S
Dy0 O15 2.310 . S
Dy0 O16 2.351 . S
C1 O12 1.185 . S
C1 O13 1.355 . S
C2 O4 1.185 . S
C2 O5 1.355 . S
Dy3 O7 2.310 . S
Dy3 O10 2.351 . S
Dy3 O12 2.398 1_455 S
Dy3 O13 2.491 1_455 S
Dy3 O14 2.403 . S
Dy3 O15 2.664 . S
Dy3 O17 2.326 1_455 S
O4 Dy0 2.398 . S
O4 C2 1.185 . S
O5 Dy0 2.491 . S
O5 C2 1.355 . S
O6 Dy0 2.403 . S
O6 C8 1.254 . S
O7 Dy0 2.664 . S
O7 Dy3 2.310 . S
O7 C8 1.268 . S
C8 O6 1.254 . S
C8 O7 1.268 . S
C9 O14 1.254 . S
C9 O15 1.268 . S
O10 Dy3 2.351 . S
O10 C18 1.249 . S
O11 Dy0 2.326 . S
O11 C18 1.267 . S
O12 C1 1.185 . S
O12 Dy3 2.398 1_655 S
O13 C1 1.355 . S
O13 Dy3 2.491 1_655 S
O14 Dy3 2.403 . S
O14 C9 1.254 . S
O15 Dy0 2.310 . S
O15 Dy3 2.664 . S
O15 C9 1.268 . S
O16 Dy0 2.351 . S
O16 C19 1.249 1_455 S
O17 Dy3 2.326 1_655 S
O17 C19 1.267 . S
C18 O10 1.249 . S
C18 O11 1.267 . S
C19 O16 1.249 1_655 S
C19 O17 1.267 . S
Dy20 O24 2.398 . S
Dy20 O25 2.491 . S
Dy20 O26 2.403 . S
Dy20 O27 2.664 1_565 S
Dy20 O31 2.326 . S
Dy20 O35 2.310 1_565 S
Dy20 O36 2.351 1_565 S
C21 O32 1.185 . S
C21 O33 1.355 . S
C22 O24 1.185 . S
C22 O25 1.355 . S
Dy23 O27 2.310 . S
Dy23 O30 2.351 1_545 S
Dy23 O32 2.398 . S
Dy23 O33 2.491 . S
Dy23 O34 2.403 . S
Dy23 O35 2.664 . S
Dy23 O37 2.326 . S
O24 Dy20 2.398 . S
O24 C22 1.185 . S
O25 Dy20 2.491 . S
O25 C22 1.355 . S
O26 Dy20 2.403 . S
O26 C28 1.254 1_565 S
O27 Dy20 2.664 1_545 S
O27 Dy23 2.310 . S
O27 C28 1.268 . S
C28 O26 1.254 1_545 S
C28 O27 1.268 . S
C29 O34 1.254 . S
C29 O35 1.268 . S
O30 Dy23 2.351 1_565 S
O30 C38 1.249 . S
O31 Dy20 2.326 . S
O31 C38 1.267 . S
O32 C21 1.185 . S
O32 Dy23 2.398 . S
O33 C21 1.355 . S
O33 Dy23 2.491 . S
O34 Dy23 2.403 . S
O34 C29 1.254 . S
O35 Dy20 2.310 1_545 S
O35 Dy23 2.664 . S
O35 C29 1.268 . S
O36 Dy20 2.351 1_545 S
O36 C39 1.249 . S
O37 Dy23 2.326 . S
O37 C39 1.267 . S
C38 O30 1.249 . S
C38 O31 1.267 . S
C39 O36 1.249 . S
C39 O37 1.267 . S
Dy40 O44 2.398 . S
Dy40 O45 2.491 . S
Dy40 O46 2.403 . S
Dy40 O47 2.664 . S
Dy40 O51 2.326 . S
Dy40 O55 2.310 . S
Dy40 O56 2.351 . S
C41 O52 1.185 . S
C41 O53 1.355 . S
C42 O44 1.185 . S
C42 O45 1.355 . S
Dy43 O47 2.310 . S
Dy43 O50 2.351 . S
Dy43 O52 2.398 . S
Dy43 O53 2.491 . S
Dy43 O54 2.403 . S
Dy43 O55 2.664 . S
Dy43 O57 2.326 . S
O44 Dy40 2.398 . S
O44 C42 1.185 . S
O45 Dy40 2.491 . S
O45 C42 1.355 . S
O46 Dy40 2.403 . S
O46 C48 1.254 . S
O47 Dy40 2.664 . S
O47 Dy43 2.310 . S
O47 C48 1.268 . S
C48 O46 1.254 . S
C48 O47 1.268 . S
C49 O54 1.254 . S
C49 O55 1.268 . S
O50 Dy43 2.351 . S
O50 C58 1.249 . S
O51 Dy40 2.326 . S
O51 C58 1.267 . S
O52 C41 1.185 . S
O52 Dy43 2.398 . S
O53 C41 1.355 . S
O53 Dy43 2.491 . S
O54 Dy43 2.403 . S
O54 C49 1.254 . S
O55 Dy40 2.310 . S
O55 Dy43 2.664 . S
O55 C49 1.268 . S
O56 Dy40 2.351 . S
O56 C59 1.249 . S
O57 Dy43 2.326 . S
O57 C59 1.267 . S
C58 O50 1.249 . S
C58 O51 1.267 . S
C59 O56 1.249 . S
C59 O57 1.267 . S
H60 C65 0.930 . S
H61 C68 0.930 . S
H62 C70 0.930 . S
H63 C64 1.016 . S
C64 H63 1.016 . S
C64 N71 1.286 . S
C65 H60 0.930 . S
C65 C66 1.397 . S
C65 C67 1.361 1_565 S
C66 C65 1.397 . S
C66 C70 1.390 . S
C67 C65 1.361 1_545 S
C67 C68 1.393 . S
C67 N71 1.413 . S
C68 H61 0.930 . S
C68 C67 1.393 . S
C68 C69 1.399 . S
C69 C68 1.399 . S
C69 C70 1.381 1_545 S
C70 H62 0.930 . S
C70 C66 1.390 . S
C70 C69 1.381 1_565 S
N71 C64 1.286 . S
N71 C67 1.413 . S
H72 C77 0.930 . S
H73 C80 0.930 . S
H74 C82 0.930 . S
H75 C76 1.016 . S
C76 H75 1.016 . S
C76 N83 1.286 . S
C77 H72 0.930 . S
C77 C78 1.397 . S
C77 C79 1.361 . S
C78 C77 1.397 . S
C78 C82 1.390 . S
C79 C77 1.361 . S
C79 C80 1.393 . S
C79 N83 1.413 . S
C80 H73 0.930 . S
C80 C79 1.393 . S
C80 C81 1.399 . S
C81 C80 1.399 . S
C81 C82 1.381 . S
C82 H74 0.930 . S
C82 C78 1.390 . S
C82 C81 1.381 . S
N83 C76 1.286 . S
N83 C79 1.413 . S
H84 C89 0.930 . S
H85 C92 0.930 . S
H86 C94 0.930 . S
H87 C88 1.016 . S
C88 H87 1.016 . S
C88 N95 1.286 . S
C89 H84 0.930 . S
C89 C90 1.397 . S
C89 C91 1.361 . S
C90 C89 1.397 . S
C90 C94 1.390 . S
C91 C89 1.361 . S
C91 C92 1.393 . S
C91 N95 1.413 . S
C92 H85 0.930 . S
C92 C91 1.393 . S
C92 C93 1.399 . S
C93 C92 1.399 . S
C93 C94 1.381 . S
C94 H86 0.930 . S
C94 C90 1.390 . S
C94 C93 1.381 . S
N95 C88 1.286 . S
N95 C91 1.413 . S
H96 C101 0.930 . S
H97 C104 0.930 . S
H98 C106 0.930 . S
H99 C100 1.016 . S
C100 H99 1.016 . S
C100 N107 1.286 . S
C101 H96 0.930 . S
C101 C102 1.397 . S
C101 C103 1.361 1_455 S
C102 C101 1.397 . S
C102 C106 1.390 . S
C103 C101 1.361 1_655 S
C103 C104 1.393 . S
C103 N107 1.413 . S
C104 H97 0.930 . S
C104 C103 1.393 . S
C104 C105 1.399 1_655 S
C105 C104 1.399 1_455 S
C105 C106 1.381 . S
C106 H98 0.930 . S
C106 C102 1.390 . S
C106 C105 1.381 . S
N107 C100 1.286 . S
N107 C103 1.413 . S
H108 C113 0.930 . S
H109 C116 0.930 1_565 S
H110 C118 0.930 . S
H111 C112 1.016 . S
C112 H111 1.016 . S
C112 N119 1.286 . S
C113 H108 0.930 . S
C113 C114 1.397 . S
C113 C115 1.361 . S
C114 C113 1.397 . S
C114 C118 1.390 . S
C115 C113 1.361 . S
C115 C116 1.393 . S
C115 N119 1.413 1_545 S
C116 H109 0.930 1_545 S
C116 C115 1.393 . S
C116 C117 1.399 . S
C117 C116 1.399 . S
C117 C118 1.381 . S
C118 H110 0.930 . S
C118 C114 1.390 . S
C118 C117 1.381 . S
N119 C112 1.286 . S
N119 C115 1.413 1_565 S
H120 C125 0.930 . S
H121 C128 0.930 . S
H122 C130 0.930 . S
H123 C124 1.016 . S
C124 H123 1.016 . S
C124 N131 1.286 . S
C125 H120 0.930 . S
C125 C126 1.397 . S
C125 C127 1.361 . S
C126 C125 1.397 . S
C126 C130 1.390 . S
C127 C125 1.361 . S
C127 C128 1.393 . S
C127 N131 1.413 . S
C128 H121 0.930 . S
C128 C127 1.393 . S
C128 C129 1.399 . S
C129 C128 1.399 . S
C129 C130 1.381 . S
C130 H122 0.930 . S
C130 C126 1.390 . S
C130 C129 1.381 . S
N131 C124 1.286 . S
N131 C127 1.413 . S
H132 C150 0.951 . S
H133 C152 0.951 . S
H134 C154 0.950 . S
H135 C155 0.950 . S
H136 C157 0.950 . S
H137 C160 0.950 . S
H138 C161 0.950 . S
H139 C163 0.950 . S
H140 C164 0.950 . S
H141 C165 0.951 . S
H142 C167 0.951 . S
H143 C169 0.950 . S
H144 C170 0.950 . S
H145 C172 0.950 . S
H146 C175 0.950 . S
H147 C176 0.950 . S
H148 C178 0.950 . S
H149 C179 0.950 . S
C150 H132 0.951 . S
C150 C151 1.366 . S
C150 C152 1.388 . S
C151 C150 1.366 . S
C151 C155 1.385 . S
C152 H133 0.951 . S
C152 C150 1.388 . S
C152 C153 1.366 . S
C153 C152 1.366 . S
C153 C154 1.414 . S
C153 C156 1.499 . S
C154 H134 0.950 . S
C154 C153 1.414 . S
C154 C155 1.374 . S
C155 H135 0.950 . S
C155 C151 1.385 . S
C155 C154 1.374 . S
C156 C153 1.499 . S
C156 C157 1.373 . S
C156 C158 1.389 . S
C157 H136 0.950 . S
C157 C156 1.373 . S
C157 C173 1.377 . S
C158 C156 1.389 . S
C158 C159 1.524 . S
C158 C172 1.377 . S
C159 C158 1.524 . S
C159 C160 1.397 . S
C159 C164 1.363 . S
C160 H137 0.950 . S
C160 C159 1.397 . S
C160 C161 1.334 . S
C161 H138 0.950 . S
C161 C160 1.334 . S
C161 C162 1.287 . S
C162 C161 1.287 . S
C162 C163 1.524 . S
C162 H181 0.913 . S
C163 H139 0.950 . S
C163 C162 1.524 . S
C163 C164 1.415 . S
C164 H140 0.950 . S
C164 C159 1.363 . S
C164 C163 1.415 . S
C165 H141 0.951 . S
C165 C166 1.366 . S
C165 C167 1.388 . S
C166 C165 1.366 . S
C166 C170 1.385 . S
C167 H142 0.951 . S
C167 C165 1.388 . S
C167 C168 1.366 . S
C168 C167 1.366 . S
C168 C169 1.414 . S
C168 C171 1.499 . S
C169 H143 0.950 . S
C169 C168 1.414 . S
C169 C170 1.374 . S
C170 H144 0.950 . S
C170 C166 1.385 . S
C170 C169 1.374 . S
C171 C168 1.499 . S
C171 C172 1.373 . S
C171 C173 1.389 . S
C172 H145 0.950 . S
C172 C158 1.377 . S
C172 C171 1.373 . S
C173 C157 1.377 . S
C173 C171 1.389 . S
C173 C174 1.524 . S
C174 C173 1.524 . S
C174 C175 1.397 . S
C174 C179 1.363 . S
C175 H146 0.950 . S
C175 C174 1.397 . S
C175 C176 1.334 . S
C176 H147 0.950 . S
C176 C175 1.334 . S
C176 C177 1.287 . S
C177 C176 1.287 . S
C177 C178 1.524 . S
C177 H180 0.999 . S
C178 H148 0.950 . S
C178 C177 1.524 . S
C178 C179 1.415 . S
C179 H149 0.950 . S
C179 C174 1.363 . S
C179 C178 1.415 . S
H180 C177 0.999 . S
H181 C162 0.913 . S
H182 C200 0.951 . S
H183 C202 0.951 . S
H184 C204 0.950 . S
H185 C205 0.950 . S
H186 C207 0.950 . S
H187 C210 0.950 . S
H188 C211 0.950 . S
H189 C213 0.950 . S
H190 C214 0.950 . S
H191 C215 0.951 . S
H192 C217 0.951 . S
H193 C219 0.950 . S
H194 C220 0.950 . S
H195 C222 0.950 . S
H196 C225 0.950 . S
H197 C226 0.950 . S
H198 C228 0.950 . S
H199 C229 0.950 . S
C200 H182 0.951 . S
C200 C201 1.366 . S
C200 C202 1.388 . S
C201 C200 1.366 . S
C201 C205 1.385 . S
C202 H183 0.951 . S
C202 C200 1.388 . S
C202 C203 1.366 . S
C203 C202 1.366 . S
C203 C204 1.414 . S
C203 C206 1.499 . S
C204 H184 0.950 . S
C204 C203 1.414 . S
C204 C205 1.374 . S
C205 H185 0.950 . S
C205 C201 1.385 . S
C205 C204 1.374 . S
C206 C203 1.499 . S
C206 C207 1.373 . S
C206 C208 1.389 . S
C207 H186 0.950 . S
C207 C206 1.373 . S
C207 C223 1.377 . S
C208 C206 1.389 . S
C208 C209 1.524 . S
C208 C222 1.377 . S
C209 C208 1.524 . S
C209 C210 1.397 . S
C209 C214 1.363 . S
C210 H187 0.950 . S
C210 C209 1.397 . S
C210 C211 1.334 . S
C211 H188 0.950 . S
C211 C210 1.334 . S
C211 C212 1.287 . S
C212 C211 1.287 . S
C212 C213 1.524 . S
C212 H231 0.913 . S
C213 H189 0.950 . S
C213 C212 1.524 . S
C213 C214 1.415 . S
C214 H190 0.950 . S
C214 C209 1.363 . S
C214 C213 1.415 . S
C215 H191 0.951 . S
C215 C216 1.366 . S
C215 C217 1.388 . S
C216 C215 1.366 . S
C216 C220 1.385 . S
C217 H192 0.951 . S
C217 C215 1.388 . S
C217 C218 1.366 . S
C218 C217 1.366 . S
C218 C219 1.414 . S
C218 C221 1.499 . S
C219 H193 0.950 . S
C219 C218 1.414 . S
C219 C220 1.374 . S
C220 H194 0.950 . S
C220 C216 1.385 . S
C220 C219 1.374 . S
C221 C218 1.499 . S
C221 C222 1.373 . S
C221 C223 1.389 . S
C222 H195 0.950 . S
C222 C208 1.377 . S
C222 C221 1.373 . S
C223 C207 1.377 . S
C223 C221 1.389 . S
C223 C224 1.524 . S
C224 C223 1.524 . S
C224 C225 1.397 . S
C224 C229 1.363 . S
C225 H196 0.950 . S
C225 C224 1.397 . S
C225 C226 1.334 . S
C226 H197 0.950 . S
C226 C225 1.334 . S
C226 C227 1.287 . S
C227 C226 1.287 . S
C227 C228 1.524 . S
C227 H230 0.999 . S
C228 H198 0.950 . S
C228 C227 1.524 . S
C228 C229 1.415 . S
C229 H199 0.950 . S
C229 C224 1.363 . S
C229 C228 1.415 . S
H230 C227 0.999 . S
H231 C212 0.913 . S
H232 C250 0.951 . S
H233 C252 0.951 . S
H234 C254 0.950 . S
H235 C255 0.950 . S
H236 C257 0.950 . S
H237 C260 0.950 . S
H238 C261 0.950 . S
H239 C263 0.950 . S
H240 C264 0.950 . S
H241 C265 0.951 . S
H242 C267 0.951 . S
H243 C269 0.950 . S
H244 C270 0.950 . S
H245 C272 0.950 . S
H246 C275 0.950 . S
H247 C276 0.950 . S
H248 C278 0.950 . S
H249 C279 0.950 . S
C250 H232 0.951 . S
C250 C251 1.366 . S
C250 C252 1.388 . S
C251 C250 1.366 . S
C251 C255 1.385 . S
C252 H233 0.951 . S
C252 C250 1.388 . S
C252 C253 1.366 . S
C253 C252 1.366 . S
C253 C254 1.414 . S
C253 C256 1.499 . S
C254 H234 0.950 . S
C254 C253 1.414 . S
C254 C255 1.374 . S
C255 H235 0.950 . S
C255 C251 1.385 . S
C255 C254 1.374 . S
C256 C253 1.499 . S
C256 C257 1.373 . S
C256 C258 1.389 . S
C257 H236 0.950 . S
C257 C256 1.373 . S
C257 C273 1.377 . S
C258 C256 1.389 . S
C258 C259 1.524 . S
C258 C272 1.377 . S
C259 C258 1.524 . S
C259 C260 1.397 . S
C259 C264 1.363 . S
C260 H237 0.950 . S
C260 C259 1.397 . S
C260 C261 1.334 . S
C261 H238 0.950 . S
C261 C260 1.334 . S
C261 C262 1.287 . S
C262 C261 1.287 . S
C262 C263 1.524 . S
C262 H281 0.913 . S
C263 H239 0.950 . S
C263 C262 1.524 . S
C263 C264 1.415 . S
C264 H240 0.950 . S
C264 C259 1.363 . S
C264 C263 1.415 . S
C265 H241 0.951 . S
C265 C266 1.366 . S
C265 C267 1.388 . S
C266 C265 1.366 . S
C266 C270 1.385 . S
C267 H242 0.951 . S
C267 C265 1.388 . S
C267 C268 1.366 . S
C268 C267 1.366 . S
C268 C269 1.414 . S
C268 C271 1.499 . S
C269 H243 0.950 . S
C269 C268 1.414 . S
C269 C270 1.374 . S
C270 H244 0.950 . S
C270 C266 1.385 . S
C270 C269 1.374 . S
C271 C268 1.499 . S
C271 C272 1.373 . S
C271 C273 1.389 . S
C272 H245 0.950 . S
C272 C258 1.377 . S
C272 C271 1.373 . S
C273 C257 1.377 . S
C273 C271 1.389 . S
C273 C274 1.524 . S
C274 C273 1.524 . S
C274 C275 1.397 . S
C274 C279 1.363 . S
C275 H246 0.950 . S
C275 C274 1.397 . S
C275 C276 1.334 . S
C276 H247 0.950 . S
C276 C275 1.334 . S
C276 C277 1.287 . S
C277 C276 1.287 . S
C277 C278 1.524 . S
C277 H280 0.999 . S
C278 H248 0.950 . S
C278 C277 1.524 . S
C278 C279 1.415 . S
C279 H249 0.950 . S
C279 C274 1.363 . S
C279 C278 1.415 . S
H280 C277 0.999 . S
H281 C262 0.913 . S
H282 C300 0.951 . S
H283 C302 0.951 . S
H284 C304 0.950 . S
H285 C305 0.950 . S
H286 C307 0.950 . S
H287 C310 0.950 . S
H288 C311 0.950 . S
H289 C313 0.950 . S
H290 C314 0.950 . S
H291 C315 0.951 . S
H292 C317 0.951 . S
H293 C319 0.950 . S
H294 C320 0.950 . S
H295 C322 0.950 . S
H296 C325 0.950 . S
H297 C326 0.950 . S
H298 C328 0.950 . S
H299 C329 0.950 . S
C300 H282 0.951 . S
C300 C301 1.366 . S
C300 C302 1.388 . S
C301 C300 1.366 . S
C301 C305 1.385 . S
C302 H283 0.951 . S
C302 C300 1.388 . S
C302 C303 1.366 . S
C303 C302 1.366 . S
C303 C304 1.414 . S
C303 C306 1.499 . S
C304 H284 0.950 . S
C304 C303 1.414 . S
C304 C305 1.374 . S
C305 H285 0.950 . S
C305 C301 1.385 . S
C305 C304 1.374 . S
C306 C303 1.499 . S
C306 C307 1.373 . S
C306 C308 1.389 . S
C307 H286 0.950 . S
C307 C306 1.373 . S
C307 C323 1.377 . S
C308 C306 1.389 . S
C308 C309 1.524 . S
C308 C322 1.377 . S
C309 C308 1.524 . S
C309 C310 1.397 . S
C309 C314 1.363 . S
C310 H287 0.950 . S
C310 C309 1.397 . S
C310 C311 1.334 . S
C311 H288 0.950 . S
C311 C310 1.334 . S
C311 C312 1.287 . S
C312 C311 1.287 . S
C312 C313 1.524 . S
C312 H331 0.913 . S
C313 H289 0.950 . S
C313 C312 1.524 . S
C313 C314 1.415 . S
C314 H290 0.950 . S
C314 C309 1.363 . S
C314 C313 1.415 . S
C315 H291 0.951 . S
C315 C316 1.366 . S
C315 C317 1.388 . S
C316 C315 1.366 . S
C316 C320 1.385 . S
C317 H292 0.951 . S
C317 C315 1.388 . S
C317 C318 1.366 . S
C318 C317 1.366 . S
C318 C319 1.414 . S
C318 C321 1.499 . S
C319 H293 0.950 . S
C319 C318 1.414 . S
C319 C320 1.374 . S
C320 H294 0.950 . S
C320 C316 1.385 . S
C320 C319 1.374 . S
C321 C318 1.499 . S
C321 C322 1.373 . S
C321 C323 1.389 . S
C322 H295 0.950 . S
C322 C308 1.377 . S
C322 C321 1.373 . S
C323 C307 1.377 . S
C323 C321 1.389 . S
C323 C324 1.524 . S
C324 C323 1.524 . S
C324 C325 1.397 . S
C324 C329 1.363 . S
C325 H296 0.950 . S
C325 C324 1.397 . S
C325 C326 1.334 . S
C326 H297 0.950 . S
C326 C325 1.334 . S
C326 C327 1.287 . S
C327 C326 1.287 . S
C327 C328 1.524 . S
C327 H330 0.999 . S
C328 H298 0.950 . S
C328 C327 1.524 . S
C328 C329 1.415 . S
C329 H299 0.950 . S
C329 C324 1.363 . S
C329 C328 1.415 . S
H330 C327 0.999 . S
H331 C312 0.913 . S
H332 C350 0.951 . S
H333 C352 0.951 . S
H334 C354 0.950 . S
H335 C355 0.950 . S
H336 C357 0.950 . S
H337 C360 0.950 . S
H338 C361 0.950 . S
H339 C363 0.950 . S
H340 C364 0.950 . S
H341 C365 0.951 . S
H342 C367 0.951 . S
H343 C369 0.950 . S
H344 C370 0.950 . S
H345 C372 0.950 . S
H346 C375 0.950 . S
H347 C376 0.950 . S
H348 C378 0.950 . S
H349 C379 0.950 . S
C350 H332 0.951 . S
C350 C351 1.366 . S
C350 C352 1.388 . S
C351 C350 1.366 . S
C351 C355 1.385 . S
C352 H333 0.951 . S
C352 C350 1.388 . S
C352 C353 1.366 . S
C353 C352 1.366 . S
C353 C354 1.414 . S
C353 C356 1.499 . S
C354 H334 0.950 . S
C354 C353 1.414 . S
C354 C355 1.374 . S
C355 H335 0.950 . S
C355 C351 1.385 . S
C355 C354 1.374 . S
C356 C353 1.499 . S
C356 C357 1.373 . S
C356 C358 1.389 . S
C357 H336 0.950 . S
C357 C356 1.373 . S
C357 C373 1.377 . S
C358 C356 1.389 . S
C358 C359 1.524 . S
C358 C372 1.377 . S
C359 C358 1.524 . S
C359 C360 1.397 . S
C359 C364 1.363 . S
C360 H337 0.950 . S
C360 C359 1.397 . S
C360 C361 1.334 . S
C361 H338 0.950 . S
C361 C360 1.334 . S
C361 C362 1.287 . S
C362 C361 1.287 . S
C362 C363 1.524 . S
C362 H381 0.913 . S
C363 H339 0.950 . S
C363 C362 1.524 . S
C363 C364 1.415 . S
C364 H340 0.950 . S
C364 C359 1.363 . S
C364 C363 1.415 . S
C365 H341 0.951 . S
C365 C366 1.366 . S
C365 C367 1.388 . S
C366 C365 1.366 . S
C366 C370 1.385 . S
C367 H342 0.951 . S
C367 C365 1.388 . S
C367 C368 1.366 . S
C368 C367 1.366 . S
C368 C369 1.414 . S
C368 C371 1.499 . S
C369 H343 0.950 . S
C369 C368 1.414 . S
C369 C370 1.374 . S
C370 H344 0.950 . S
C370 C366 1.385 . S
C370 C369 1.374 . S
C371 C368 1.499 . S
C371 C372 1.373 . S
C371 C373 1.389 . S
C372 H345 0.950 . S
C372 C358 1.377 . S
C372 C371 1.373 . S
C373 C357 1.377 . S
C373 C371 1.389 . S
C373 C374 1.524 . S
C374 C373 1.524 . S
C374 C375 1.397 . S
C374 C379 1.363 . S
C375 H346 0.950 . S
C375 C374 1.397 . S
C375 C376 1.334 . S
C376 H347 0.950 . S
C376 C375 1.334 . S
C376 C377 1.287 . S
C377 C376 1.287 . S
C377 C378 1.524 . S
C377 H380 0.999 . S
C378 H348 0.950 . S
C378 C377 1.524 . S
C378 C379 1.415 . S
C379 H349 0.950 . S
C379 C374 1.363 . S
C379 C378 1.415 . S
H380 C377 0.999 . S
H381 C362 0.913 . S
H382 C400 0.951 . S
H383 C402 0.951 . S
H384 C404 0.950 . S
H385 C405 0.950 . S
H386 C407 0.950 . S
H387 C410 0.950 . S
H388 C411 0.950 . S
H389 C413 0.950 . S
H390 C414 0.950 . S
H391 C415 0.951 . S
H392 C417 0.951 . S
H393 C419 0.950 . S
H394 C420 0.950 . S
H395 C422 0.950 . S
H396 C425 0.950 . S
H397 C426 0.950 . S
H398 C428 0.950 . S
H399 C429 0.950 . S
C400 H382 0.951 . S
C400 C401 1.366 . S
C400 C402 1.388 . S
C401 C400 1.366 . S
C401 C405 1.385 . S
C402 H383 0.951 . S
C402 C400 1.388 . S
C402 C403 1.366 . S
C403 C402 1.366 . S
C403 C404 1.414 . S
C403 C406 1.499 . S
C404 H384 0.950 . S
C404 C403 1.414 . S
C404 C405 1.374 . S
C405 H385 0.950 . S
C405 C401 1.385 . S
C405 C404 1.374 . S
C406 C403 1.499 . S
C406 C407 1.373 . S
C406 C408 1.389 . S
C407 H386 0.950 . S
C407 C406 1.373 . S
C407 C423 1.377 . S
C408 C406 1.389 . S
C408 C409 1.524 . S
C408 C422 1.377 . S
C409 C408 1.524 . S
C409 C410 1.397 . S
C409 C414 1.363 . S
C410 H387 0.950 . S
C410 C409 1.397 . S
C410 C411 1.334 . S
C411 H388 0.950 . S
C411 C410 1.334 . S
C411 C412 1.287 . S
C412 C411 1.287 . S
C412 C413 1.524 . S
C412 H431 0.913 . S
C413 H389 0.950 . S
C413 C412 1.524 . S
C413 C414 1.415 . S
C414 H390 0.950 . S
C414 C409 1.363 . S
C414 C413 1.415 . S
C415 H391 0.951 . S
C415 C416 1.366 . S
C415 C417 1.388 . S
C416 C415 1.366 . S
C416 C420 1.385 . S
C417 H392 0.951 . S
C417 C415 1.388 . S
C417 C418 1.366 . S
C418 C417 1.366 . S
C418 C419 1.414 . S
C418 C421 1.499 . S
C419 H393 0.950 . S
C419 C418 1.414 . S
C419 C420 1.374 . S
C420 H394 0.950 . S
C420 C416 1.385 . S
C420 C419 1.374 . S
C421 C418 1.499 . S
C421 C422 1.373 . S
C421 C423 1.389 . S
C422 H395 0.950 . S
C422 C408 1.377 . S
C422 C421 1.373 . S
C423 C407 1.377 . S
C423 C421 1.389 . S
C423 C424 1.524 . S
C424 C423 1.524 . S
C424 C425 1.397 . S
C424 C429 1.363 . S
C425 H396 0.950 . S
C425 C424 1.397 . S
C425 C426 1.334 . S
C426 H397 0.950 . S
C426 C425 1.334 . S
C426 C427 1.287 . S
C427 C426 1.287 . S
C427 C428 1.524 . S
C427 H430 0.999 . S
C428 H398 0.950 . S
C428 C427 1.524 . S
C428 C429 1.415 . S
C429 H399 0.950 . S
C429 C424 1.363 . S
C429 C428 1.415 . S
H430 C427 0.999 . S
H431 C412 0.913 . S
H432 C450 0.951 . S
H433 C452 0.951 . S
H434 C454 0.950 . S
H435 C455 0.950 . S
H436 C457 0.950 . S
H437 C460 0.950 . S
H438 C461 0.950 . S
H439 C463 0.950 . S
H440 C464 0.950 . S
H441 C465 0.951 . S
H442 C467 0.951 . S
H443 C469 0.950 . S
H444 C470 0.950 . S
H445 C472 0.950 . S
H446 C475 0.950 . S
H447 C476 0.950 . S
H448 C478 0.950 . S
H449 C479 0.950 . S
C450 H432 0.951 . S
C450 C451 1.366 . S
C450 C452 1.388 . S
C451 C450 1.366 . S
C451 C455 1.385 . S
C452 H433 0.951 . S
C452 C450 1.388 . S
C452 C453 1.366 . S
C453 C452 1.366 . S
C453 C454 1.414 . S
C453 C456 1.499 . S
C454 H434 0.950 . S
C454 C453 1.414 . S
C454 C455 1.374 . S
C455 H435 0.950 . S
C455 C451 1.385 . S
C455 C454 1.374 . S
C456 C453 1.499 . S
C456 C457 1.373 . S
C456 C458 1.389 . S
C457 H436 0.950 . S
C457 C456 1.373 . S
C457 C473 1.377 . S
C458 C456 1.389 . S
C458 C459 1.524 . S
C458 C472 1.377 . S
C459 C458 1.524 . S
C459 C460 1.397 . S
C459 C464 1.363 . S
C460 H437 0.950 . S
C460 C459 1.397 . S
C460 C461 1.334 . S
C461 H438 0.950 . S
C461 C460 1.334 . S
C461 C462 1.287 . S
C462 C461 1.287 . S
C462 C463 1.524 . S
C462 H481 0.913 . S
C463 H439 0.950 . S
C463 C462 1.524 . S
C463 C464 1.415 . S
C464 H440 0.950 . S
C464 C459 1.363 . S
C464 C463 1.415 . S
C465 H441 0.951 . S
C465 C466 1.366 . S
C465 C467 1.388 . S
C466 C465 1.366 . S
C466 C470 1.385 . S
C467 H442 0.951 . S
C467 C465 1.388 . S
C467 C468 1.366 . S
C468 C467 1.366 . S
C468 C469 1.414 . S
C468 C471 1.499 . S
C469 H443 0.950 . S
C469 C468 1.414 . S
C469 C470 1.374 . S
C470 H444 0.950 . S
C470 C466 1.385 . S
C470 C469 1.374 . S
C471 C468 1.499 . S
C471 C472 1.373 . S
C471 C473 1.389 . S
C472 H445 0.950 . S
C472 C458 1.377 . S
C472 C471 1.373 . S
C473 C457 1.377 . S
C473 C471 1.389 . S
C473 C474 1.524 . S
C474 C473 1.524 . S
C474 C475 1.397 . S
C474 C479 1.363 . S
C475 H446 0.950 . S
C475 C474 1.397 . S
C475 C476 1.334 . S
C476 H447 0.950 . S
C476 C475 1.334 . S
C476 C477 1.287 . S
C477 C476 1.287 . S
C477 C478 1.524 . S
C477 H480 0.999 . S
C478 H448 0.950 . S
C478 C477 1.524 . S
C478 C479 1.415 . S
C479 H449 0.950 . S
C479 C474 1.363 . S
C479 C478 1.415 . S
H480 C477 0.999 . S
H481 C462 0.913 . S
H482 C500 0.951 . S
H483 C502 0.951 . S
H484 C504 0.950 . S
H485 C505 0.950 . S
H486 C507 0.950 . S
H487 C510 0.950 . S
H488 C511 0.950 . S
H489 C513 0.950 . S
H490 C514 0.950 . S
H491 C515 0.951 . S
H492 C517 0.951 . S
H493 C519 0.950 . S
H494 C520 0.950 . S
H495 C522 0.950 . S
H496 C525 0.950 . S
H497 C526 0.950 . S
H498 C528 0.950 . S
H499 C529 0.950 . S
C500 H482 0.951 . S
C500 C501 1.366 . S
C500 C502 1.388 . S
C501 C500 1.366 . S
C501 C505 1.385 . S
C502 H483 0.951 . S
C502 C500 1.388 . S
C502 C503 1.366 . S
C503 C502 1.366 . S
C503 C504 1.414 . S
C503 C506 1.499 . S
C504 H484 0.950 . S
C504 C503 1.414 . S
C504 C505 1.374 . S
C505 H485 0.950 . S
C505 C501 1.385 . S
C505 C504 1.374 . S
C506 C503 1.499 . S
C506 C507 1.373 . S
C506 C508 1.389 . S
C507 H486 0.950 . S
C507 C506 1.373 . S
C507 C523 1.377 . S
C508 C506 1.389 . S
C508 C509 1.524 . S
C508 C522 1.377 . S
C509 C508 1.524 . S
C509 C510 1.397 . S
C509 C514 1.363 . S
C510 H487 0.950 . S
C510 C509 1.397 . S
C510 C511 1.334 . S
C511 H488 0.950 . S
C511 C510 1.334 . S
C511 C512 1.287 . S
C512 C511 1.287 . S
C512 C513 1.524 . S
C512 H531 0.913 . S
C513 H489 0.950 . S
C513 C512 1.524 . S
C513 C514 1.415 . S
C514 H490 0.950 . S
C514 C509 1.363 . S
C514 C513 1.415 . S
C515 H491 0.951 . S
C515 C516 1.366 . S
C515 C517 1.388 . S
C516 C515 1.366 . S
C516 C520 1.385 . S
C517 H492 0.951 . S
C517 C515 1.388 . S
C517 C518 1.366 . S
C518 C517 1.366 . S
C518 C519 1.414 . S
C518 C521 1.499 . S
C519 H493 0.950 . S
C519 C518 1.414 . S
C519 C520 1.374 . S
C520 H494 0.950 . S
C520 C516 1.385 . S
C520 C519 1.374 . S
C521 C518 1.499 . S
C521 C522 1.373 . S
C521 C523 1.389 . S
C522 H495 0.950 . S
C522 C508 1.377 . S
C522 C521 1.373 . S
C523 C507 1.377 . S
C523 C521 1.389 . S
C523 C524 1.524 . S
C524 C523 1.524 . S
C524 C525 1.397 . S
C524 C529 1.363 . S
C525 H496 0.950 . S
C525 C524 1.397 . S
C525 C526 1.334 . S
C526 H497 0.950 . S
C526 C525 1.334 . S
C526 C527 1.287 . S
C527 C526 1.287 . S
C527 C528 1.524 . S
C527 H530 0.999 . S
C528 H498 0.950 . S
C528 C527 1.524 . S
C528 C529 1.415 . S
C529 H499 0.950 . S
C529 C524 1.363 . S
C529 C528 1.415 . S
H530 C527 0.999 . S
H531 C512 0.913 . S
H532 C550 0.951 . S
H533 C552 0.951 . S
H534 C554 0.950 . S
H535 C555 0.950 . S
H536 C557 0.950 . S
H537 C560 0.950 . S
H538 C561 0.950 . S
H539 C563 0.950 . S
H540 C564 0.950 . S
H541 C565 0.951 . S
H542 C567 0.951 . S
H543 C569 0.950 . S
H544 C570 0.950 . S
H545 C572 0.950 . S
H546 C575 0.950 . S
H547 C576 0.950 . S
H548 C578 0.950 . S
H549 C579 0.950 . S
C550 H532 0.951 . S
C550 C551 1.366 . S
C550 C552 1.388 . S
C551 C550 1.366 . S
C551 C555 1.385 . S
C552 H533 0.951 . S
C552 C550 1.388 . S
C552 C553 1.366 . S
C553 C552 1.366 . S
C553 C554 1.414 . S
C553 C556 1.499 . S
C554 H534 0.950 . S
C554 C553 1.414 . S
C554 C555 1.374 . S
C555 H535 0.950 . S
C555 C551 1.385 . S
C555 C554 1.374 . S
C556 C553 1.499 . S
C556 C557 1.373 . S
C556 C558 1.389 . S
C557 H536 0.950 . S
C557 C556 1.373 . S
C557 C573 1.377 . S
C558 C556 1.389 . S
C558 C559 1.524 . S
C558 C572 1.377 . S
C559 C558 1.524 . S
C559 C560 1.397 . S
C559 C564 1.363 . S
C560 H537 0.950 . S
C560 C559 1.397 . S
C560 C561 1.334 . S
C561 H538 0.950 . S
C561 C560 1.334 . S
C561 C562 1.287 . S
C562 C561 1.287 . S
C562 C563 1.524 . S
C562 H581 0.913 . S
C563 H539 0.950 . S
C563 C562 1.524 . S
C563 C564 1.415 . S
C564 H540 0.950 . S
C564 C559 1.363 . S
C564 C563 1.415 . S
C565 H541 0.951 . S
C565 C566 1.366 . S
C565 C567 1.388 . S
C566 C565 1.366 . S
C566 C570 1.385 . S
C567 H542 0.951 . S
C567 C565 1.388 . S
C567 C568 1.366 . S
C568 C567 1.366 . S
C568 C569 1.414 . S
C568 C571 1.499 . S
C569 H543 0.950 . S
C569 C568 1.414 . S
C569 C570 1.374 . S
C570 H544 0.950 . S
C570 C566 1.385 . S
C570 C569 1.374 . S
C571 C568 1.499 . S
C571 C572 1.373 . S
C571 C573 1.389 . S
C572 H545 0.950 . S
C572 C558 1.377 . S
C572 C571 1.373 . S
C573 C557 1.377 . S
C573 C571 1.389 . S
C573 C574 1.524 . S
C574 C573 1.524 . S
C574 C575 1.397 . S
C574 C579 1.363 . S
C575 H546 0.950 . S
C575 C574 1.397 . S
C575 C576 1.334 . S
C576 H547 0.950 . S
C576 C575 1.334 . S
C576 C577 1.287 . S
C577 C576 1.287 . S
C577 C578 1.524 . S
C577 H580 0.999 . S
C578 H548 0.950 . S
C578 C577 1.524 . S
C578 C579 1.415 . S
C579 H549 0.950 . S
C579 C574 1.363 . S
C579 C578 1.415 . S
H580 C577 0.999 . S
H581 C562 0.913 . S
H582 C600 0.951 . S
H583 C602 0.951 . S
H584 C604 0.950 . S
H585 C605 0.950 . S
H586 C607 0.950 . S
H587 C610 0.950 . S
H588 C611 0.950 . S
H589 C613 0.950 . S
H590 C614 0.950 . S
H591 C615 0.951 . S
H592 C617 0.951 . S
H593 C619 0.950 . S
H594 C620 0.950 . S
H595 C622 0.950 . S
H596 C625 0.950 . S
H597 C626 0.950 . S
H598 C628 0.950 . S
H599 C629 0.950 . S
C600 H582 0.951 . S
C600 C601 1.366 . S
C600 C602 1.388 . S
C601 C600 1.366 . S
C601 C605 1.385 . S
C602 H583 0.951 . S
C602 C600 1.388 . S
C602 C603 1.366 . S
C603 C602 1.366 . S
C603 C604 1.414 . S
C603 C606 1.499 . S
C604 H584 0.950 . S
C604 C603 1.414 . S
C604 C605 1.374 . S
C605 H585 0.950 . S
C605 C601 1.385 . S
C605 C604 1.374 . S
C606 C603 1.499 . S
C606 C607 1.373 . S
C606 C608 1.389 . S
C607 H586 0.950 . S
C607 C606 1.373 . S
C607 C623 1.377 . S
C608 C606 1.389 . S
C608 C609 1.524 . S
C608 C622 1.377 . S
C609 C608 1.524 . S
C609 C610 1.397 . S
C609 C614 1.363 . S
C610 H587 0.950 . S
C610 C609 1.397 . S
C610 C611 1.334 . S
C611 H588 0.950 . S
C611 C610 1.334 . S
C611 C612 1.287 . S
C612 C611 1.287 . S
C612 C613 1.524 . S
C612 H631 0.913 . S
C613 H589 0.950 . S
C613 C612 1.524 . S
C613 C614 1.415 . S
C614 H590 0.950 . S
C614 C609 1.363 . S
C614 C613 1.415 . S
C615 H591 0.951 . S
C615 C616 1.366 . S
C615 C617 1.388 . S
C616 C615 1.366 . S
C616 C620 1.385 . S
C617 H592 0.951 . S
C617 C615 1.388 . S
C617 C618 1.366 . S
C618 C617 1.366 . S
C618 C619 1.414 . S
C618 C621 1.499 . S
C619 H593 0.950 . S
C619 C618 1.414 . S
C619 C620 1.374 . S
C620 H594 0.950 . S
C620 C616 1.385 . S
C620 C619 1.374 . S
C621 C618 1.499 . S
C621 C622 1.373 . S
C621 C623 1.389 . S
C622 H595 0.950 . S
C622 C608 1.377 . S
C622 C621 1.373 . S
C623 C607 1.377 . S
C623 C621 1.389 . S
C623 C624 1.524 . S
C624 C623 1.524 . S
C624 C625 1.397 . S
C624 C629 1.363 . S
C625 H596 0.950 . S
C625 C624 1.397 . S
C625 C626 1.334 . S
C626 H597 0.950 . S
C626 C625 1.334 . S
C626 C627 1.287 . S
C627 C626 1.287 . S
C627 C628 1.524 . S
C627 H630 0.999 . S
C628 H598 0.950 . S
C628 C627 1.524 . S
C628 C629 1.415 . S
C629 H599 0.950 . S
C629 C624 1.363 . S
C629 C628 1.415 . S
H630 C627 0.999 . S
H631 C612 0.913 . S
H632 C650 0.951 . S
H633 C652 0.951 . S
H634 C654 0.950 . S
H635 C655 0.950 . S
H636 C657 0.950 . S
H637 C660 0.950 . S
H638 C661 0.950 . S
H639 C663 0.950 . S
H640 C664 0.950 . S
H641 C665 0.951 . S
H642 C667 0.951 . S
H643 C669 0.950 . S
H644 C670 0.950 . S
H645 C672 0.950 . S
H646 C675 0.950 . S
H647 C676 0.950 . S
H648 C678 0.950 . S
H649 C679 0.950 . S
C650 H632 0.951 . S
C650 C651 1.366 . S
C650 C652 1.388 . S
C651 C650 1.366 . S
C651 C655 1.385 . S
C652 H633 0.951 . S
C652 C650 1.388 . S
C652 C653 1.366 . S
C653 C652 1.366 . S
C653 C654 1.414 . S
C653 C656 1.499 . S
C654 H634 0.950 . S
C654 C653 1.414 . S
C654 C655 1.374 . S
C655 H635 0.950 . S
C655 C651 1.385 . S
C655 C654 1.374 . S
C656 C653 1.499 . S
C656 C657 1.373 . S
C656 C658 1.389 . S
C657 H636 0.950 . S
C657 C656 1.373 . S
C657 C673 1.377 . S
C658 C656 1.389 . S
C658 C659 1.524 . S
C658 C672 1.377 . S
C659 C658 1.524 . S
C659 C660 1.397 . S
C659 C664 1.363 . S
C660 H637 0.950 . S
C660 C659 1.397 . S
C660 C661 1.334 . S
C661 H638 0.950 . S
C661 C660 1.334 . S
C661 C662 1.287 . S
C662 C661 1.287 . S
C662 C663 1.524 . S
C662 H681 0.913 . S
C663 H639 0.950 . S
C663 C662 1.524 . S
C663 C664 1.415 . S
C664 H640 0.950 . S
C664 C659 1.363 . S
C664 C663 1.415 . S
C665 H641 0.951 . S
C665 C666 1.366 . S
C665 C667 1.388 . S
C666 C665 1.366 . S
C666 C670 1.385 . S
C667 H642 0.951 . S
C667 C665 1.388 . S
C667 C668 1.366 . S
C668 C667 1.366 . S
C668 C669 1.414 . S
C668 C671 1.499 . S
C669 H643 0.950 . S
C669 C668 1.414 . S
C669 C670 1.374 . S
C670 H644 0.950 . S
C670 C666 1.385 . S
C670 C669 1.374 . S
C671 C668 1.499 . S
C671 C672 1.373 . S
C671 C673 1.389 . S
C672 H645 0.950 . S
C672 C658 1.377 . S
C672 C671 1.373 . S
C673 C657 1.377 . S
C673 C671 1.389 . S
C673 C674 1.524 . S
C674 C673 1.524 . S
C674 C675 1.397 . S
C674 C679 1.363 . S
C675 H646 0.950 . S
C675 C674 1.397 . S
C675 C676 1.334 . S
C676 H647 0.950 . S
C676 C675 1.334 . S
C676 C677 1.287 . S
C677 C676 1.287 . S
C677 C678 1.524 . S
C677 H680 0.999 . S
C678 H648 0.950 . S
C678 C677 1.524 . S
C678 C679 1.415 . S
C679 H649 0.950 . S
C679 C674 1.363 . S
C679 C678 1.415 . S
H680 C677 0.999 . S
H681 C662 0.913 . S
H682 C700 0.951 . S
H683 C702 0.951 . S
H684 C704 0.950 . S
H685 C705 0.950 . S
H686 C707 0.950 . S
H687 C710 0.950 . S
H688 C711 0.950 . S
H689 C713 0.950 . S
H690 C714 0.950 . S
H691 C715 0.951 . S
H692 C717 0.951 . S
H693 C719 0.950 . S
H694 C720 0.950 . S
H695 C722 0.950 . S
H696 C725 0.950 . S
H697 C726 0.950 . S
H698 C728 0.950 . S
H699 C729 0.950 . S
C700 H682 0.951 . S
C700 C701 1.366 . S
C700 C702 1.388 . S
C701 C700 1.366 . S
C701 C705 1.385 . S
C702 H683 0.951 . S
C702 C700 1.388 . S
C702 C703 1.366 . S
C703 C702 1.366 . S
C703 C704 1.414 . S
C703 C706 1.499 . S
C704 H684 0.950 . S
C704 C703 1.414 . S
C704 C705 1.374 . S
C705 H685 0.950 . S
C705 C701 1.385 . S
C705 C704 1.374 . S
C706 C703 1.499 . S
C706 C707 1.373 . S
C706 C708 1.389 . S
C707 H686 0.950 . S
C707 C706 1.373 . S
C707 C723 1.377 . S
C708 C706 1.389 . S
C708 C709 1.524 . S
C708 C722 1.377 . S
C709 C708 1.524 . S
C709 C710 1.397 . S
C709 C714 1.363 . S
C710 H687 0.950 . S
C710 C709 1.397 . S
C710 C711 1.334 . S
C711 H688 0.950 . S
C711 C710 1.334 . S
C711 C712 1.287 . S
C712 C711 1.287 . S
C712 C713 1.524 . S
C712 H731 0.913 . S
C713 H689 0.950 . S
C713 C712 1.524 . S
C713 C714 1.415 . S
C714 H690 0.950 . S
C714 C709 1.363 . S
C714 C713 1.415 . S
C715 H691 0.951 . S
C715 C716 1.366 . S
C715 C717 1.388 . S
C716 C715 1.366 . S
C716 C720 1.385 . S
C717 H692 0.951 . S
C717 C715 1.388 . S
C717 C718 1.366 . S
C718 C717 1.366 . S
C718 C719 1.414 . S
C718 C721 1.499 . S
C719 H693 0.950 . S
C719 C718 1.414 . S
C719 C720 1.374 . S
C720 H694 0.950 . S
C720 C716 1.385 . S
C720 C719 1.374 . S
C721 C718 1.499 . S
C721 C722 1.373 . S
C721 C723 1.389 . S
C722 H695 0.950 . S
C722 C708 1.377 . S
C722 C721 1.373 . S
C723 C707 1.377 . S
C723 C721 1.389 . S
C723 C724 1.524 . S
C724 C723 1.524 . S
C724 C725 1.397 . S
C724 C729 1.363 . S
C725 H696 0.950 . S
C725 C724 1.397 . S
C725 C726 1.334 . S
C726 H697 0.950 . S
C726 C725 1.334 . S
C726 C727 1.287 . S
C727 C726 1.287 . S
C727 C728 1.524 . S
C727 H730 0.999 . S
C728 H698 0.950 . S
C728 C727 1.524 . S
C728 C729 1.415 . S
C729 H699 0.950 . S
C729 C724 1.363 . S
C729 C728 1.415 . S
H730 C727 0.999 . S
H731 C712 0.913 . S
H732 C750 0.951 . S
H733 C752 0.951 . S
H734 C754 0.950 . S
H735 C755 0.950 . S
H736 C757 0.950 . S
H737 C760 0.950 . S
H738 C761 0.950 . S
H739 C763 0.950 . S
H740 C764 0.950 . S
H741 C765 0.951 . S
H742 C767 0.951 . S
H743 C769 0.950 . S
H744 C770 0.950 . S
H745 C772 0.950 1_556 S
H746 C775 0.950 . S
H747 C776 0.950 . S
H748 C778 0.950 . S
H749 C779 0.933 1_554 S
C750 H732 0.951 . S
C750 C751 1.366 . S
C750 C752 1.388 . S
C751 C750 1.366 . S
C751 C755 1.385 . S
C752 H733 0.951 . S
C752 C750 1.388 . S
C752 C753 1.366 . S
C753 C752 1.366 . S
C753 C754 1.414 . S
C753 C756 1.499 . S
C754 H734 0.950 . S
C754 C753 1.414 . S
C754 C755 1.374 . S
C755 H735 0.950 . S
C755 C751 1.385 . S
C755 C754 1.374 . S
C756 C753 1.499 . S
C756 C757 1.373 . S
C756 C758 1.389 . S
C757 H736 0.950 . S
C757 C756 1.373 . S
C757 C773 1.377 . S
C758 C756 1.389 . S
C758 C759 1.524 1_455 S
C758 C772 1.377 . S
C759 C758 1.524 1_655 S
C759 C760 1.397 . S
C759 C764 1.363 . S
C760 H737 0.950 . S
C760 C759 1.397 . S
C760 C761 1.334 . S
C761 H738 0.950 . S
C761 C760 1.334 . S
C761 C762 1.287 . S
C762 C761 1.287 . S
C762 C763 1.524 . S
C762 H781 0.913 . S
C763 H739 0.950 . S
C763 C762 1.524 . S
C763 C764 1.415 . S
C764 H740 0.950 . S
C764 C759 1.363 . S
C764 C763 1.415 . S
C765 H741 0.951 . S
C765 C766 1.366 . S
C765 C767 1.388 . S
C766 C765 1.366 . S
C766 C770 1.385 . S
C767 H742 0.951 . S
C767 C765 1.388 . S
C767 C768 1.366 . S
C768 C767 1.366 . S
C768 C769 1.414 . S
C768 C771 1.499 . S
C769 H743 0.950 . S
C769 C768 1.414 . S
C769 C770 1.374 . S
C770 H744 0.950 . S
C770 C766 1.385 . S
C770 C769 1.374 . S
C771 C768 1.499 . S
C771 C772 1.373 1_556 S
C771 C773 1.389 1_556 S
C772 H745 0.950 1_554 S
C772 C758 1.377 . S
C772 C771 1.373 1_554 S
C773 C757 1.377 . S
C773 C771 1.389 1_554 S
C773 C774 1.524 1_554 S
C774 C773 1.524 1_556 S
C774 C775 1.397 . S
C774 C779 1.369 . S
C775 H746 0.950 . S
C775 C774 1.397 . S
C775 C776 1.334 . S
C776 H747 0.950 . S
C776 C775 1.334 . S
C776 C777 1.287 . S
C777 C776 1.287 . S
C777 C778 1.524 . S
C777 H780 0.999 . S
C778 H748 0.950 . S
C778 C777 1.524 . S
C778 C779 1.426 . S
C779 H749 0.933 1_556 S
C779 C774 1.369 . S
C779 C778 1.426 . S
H780 C777 0.999 . S
H781 C762 0.913 . S
H782 C800 0.951 . S
H783 C802 0.951 . S
H784 C804 0.950 . S
H785 C805 0.950 . S
H786 C807 0.950 . S
H787 C810 0.950 . S
H788 C811 0.950 . S
H789 C813 0.950 . S
H790 C814 0.950 . S
H791 C815 0.951 . S
H792 C817 0.951 . S
H793 C819 0.950 . S
H794 C820 0.950 . S
H795 C822 0.950 . S
H796 C825 0.950 . S
H797 C826 0.950 . S
H798 C828 0.950 . S
H799 C829 0.950 . S
C800 H782 0.951 . S
C800 C801 1.366 . S
C800 C802 1.388 . S
C801 C800 1.366 . S
C801 C805 1.385 . S
C802 H783 0.951 . S
C802 C800 1.388 . S
C802 C803 1.366 . S
C803 C802 1.366 . S
C803 C804 1.414 . S
C803 C806 1.499 . S
C804 H784 0.950 . S
C804 C803 1.414 . S
C804 C805 1.374 . S
C805 H785 0.950 . S
C805 C801 1.385 . S
C805 C804 1.374 . S
C806 C803 1.499 . S
C806 C807 1.373 1_545 S
C806 C808 1.389 . S
C807 H786 0.950 . S
C807 C806 1.373 1_565 S
C807 C823 1.377 . S
C808 C806 1.389 . S
C808 C809 1.524 . S
C808 C822 1.377 . S
C809 C808 1.524 . S
C809 C810 1.397 . S
C809 C814 1.363 . S
C810 H787 0.950 . S
C810 C809 1.397 . S
C810 C811 1.334 . S
C811 H788 0.950 . S
C811 C810 1.334 . S
C811 C812 1.287 . S
C812 C811 1.287 . S
C812 C813 1.524 . S
C812 H831 0.913 . S
C813 H789 0.950 . S
C813 C812 1.524 . S
C813 C814 1.415 . S
C814 H790 0.950 . S
C814 C809 1.363 . S
C814 C813 1.415 . S
C815 H791 0.951 . S
C815 C816 1.366 . S
C815 C817 1.388 . S
C816 C815 1.366 . S
C816 C820 1.385 . S
C817 H792 0.951 . S
C817 C815 1.388 . S
C817 C818 1.366 . S
C818 C817 1.366 . S
C818 C819 1.414 . S
C818 C821 1.499 . S
C819 H793 0.950 . S
C819 C818 1.414 . S
C819 C820 1.374 . S
C820 H794 0.950 . S
C820 C816 1.385 . S
C820 C819 1.374 . S
C821 C818 1.499 . S
C821 C822 1.373 . S
C821 C823 1.389 1_545 S
C822 H795 0.950 . S
C822 C808 1.377 . S
C822 C821 1.373 . S
C823 C807 1.377 . S
C823 C821 1.389 1_565 S
C823 C824 1.524 . S
C824 C823 1.524 . S
C824 C825 1.397 . S
C824 C829 1.363 . S
C825 H796 0.950 . S
C825 C824 1.397 . S
C825 C826 1.334 . S
C826 H797 0.950 . S
C826 C825 1.334 . S
C826 C827 1.287 . S
C827 C826 1.287 . S
C827 C828 1.524 . S
C827 H830 0.999 . S
C828 H798 0.950 . S
C828 C827 1.524 . S
C828 C829 1.415 . S
C829 H799 0.950 . S
C829 C824 1.363 . S
C829 C828 1.415 . S
H830 C827 0.999 . S
H831 C812 0.913 . S
H832 C850 0.951 . S
H833 C852 0.951 . S
H834 C854 0.950 . S
H835 C855 0.950 . S
H836 C857 0.950 . S
H837 C860 0.950 . S
H838 C861 0.950 . S
H839 C863 0.950 . S
H840 C864 0.950 . S
H841 C865 0.951 . S
H842 C867 0.951 . S
H843 C869 0.950 . S
H844 C870 0.950 . S
H845 C872 0.950 . S
H846 C875 0.950 . S
H847 C876 0.950 . S
H848 C878 0.950 . S
H849 C879 0.950 . S
C850 H832 0.951 . S
C850 C851 1.366 . S
C850 C852 1.388 . S
C851 C850 1.366 . S
C851 C855 1.385 . S
C852 H833 0.951 . S
C852 C850 1.388 . S
C852 C853 1.366 . S
C853 C852 1.366 . S
C853 C854 1.414 . S
C853 C856 1.499 . S
C854 H834 0.950 . S
C854 C853 1.414 . S
C854 C855 1.374 . S
C855 H835 0.950 . S
C855 C851 1.385 . S
C855 C854 1.374 . S
C856 C853 1.499 . S
C856 C857 1.373 . S
C856 C858 1.389 . S
C857 H836 0.950 . S
C857 C856 1.373 . S
C857 C873 1.377 . S
C858 C856 1.389 . S
C858 C859 1.524 . S
C858 C872 1.377 . S
C859 C858 1.524 . S
C859 C860 1.397 . S
C859 C864 1.363 . S
C860 H837 0.950 . S
C860 C859 1.397 . S
C860 C861 1.334 . S
C861 H838 0.950 . S
C861 C860 1.334 . S
C861 C862 1.287 . S
C862 C861 1.287 . S
C862 C863 1.524 . S
C862 H881 0.913 . S
C863 H839 0.950 . S
C863 C862 1.524 . S
C863 C864 1.415 . S
C864 H840 0.950 . S
C864 C859 1.363 . S
C864 C863 1.415 . S
C865 H841 0.951 . S
C865 C866 1.366 . S
C865 C867 1.388 . S
C866 C865 1.366 . S
C866 C870 1.385 . S
C867 H842 0.951 . S
C867 C865 1.388 . S
C867 C868 1.366 . S
C868 C867 1.366 . S
C868 C869 1.414 . S
C868 C871 1.499 . S
C869 H843 0.950 . S
C869 C868 1.414 . S
C869 C870 1.374 . S
C870 H844 0.950 . S
C870 C866 1.385 . S
C870 C869 1.374 . S
C871 C868 1.499 . S
C871 C872 1.373 . S
C871 C873 1.389 . S
C872 H845 0.950 . S
C872 C858 1.377 . S
C872 C871 1.373 . S
C873 C857 1.377 . S
C873 C871 1.389 . S
C873 C874 1.524 . S
C874 C873 1.524 . S
C874 C875 1.397 . S
C874 C879 1.363 . S
C875 H846 0.950 . S
C875 C874 1.397 . S
C875 C876 1.334 . S
C876 H847 0.950 . S
C876 C875 1.334 . S
C876 C877 1.287 . S
C877 C876 1.287 . S
C877 C878 1.524 . S
C877 H880 0.999 . S
C878 H848 0.950 . S
C878 C877 1.524 . S
C878 C879 1.415 . S
C879 H849 0.950 . S
C879 C874 1.363 . S
C879 C878 1.415 . S
H880 C877 0.999 . S
H881 C862 0.913 . S
H882 C900 0.951 . S
H883 C902 0.951 . S
H884 C904 0.948 1_565 S
H885 C905 0.950 1_565 S
H886 C907 0.950 . S
H887 C910 0.950 . S
H888 C911 0.950 . S
H889 C913 0.950 . S
H890 C914 0.950 . S
H891 C915 0.951 1_565 S
H892 C917 0.951 1_565 S
H893 C919 0.950 . S
H894 C920 0.950 . S
H895 C922 0.950 . S
H896 C925 0.950 . S
H897 C926 0.950 . S
H898 C928 0.950 1_565 S
H899 C929 0.950 1_565 S
C900 H882 0.951 . S
C900 C901 1.366 . S
C900 C902 1.388 . S
C901 C900 1.366 . S
C901 C905 1.385 . S
C902 H883 0.951 . S
C902 C900 1.388 . S
C902 C903 1.366 . S
C903 C902 1.366 . S
C903 C904 1.415 . S
C903 C906 1.499 . S
C904 H884 0.948 1_545 S
C904 C903 1.415 . S
C904 C905 1.375 . S
C905 H885 0.950 1_545 S
C905 C901 1.385 . S
C905 C904 1.375 . S
C906 C903 1.499 . S
C906 C907 1.373 . S
C906 C908 1.389 . S
C907 H886 0.950 . S
C907 C906 1.373 . S
C907 C923 1.377 . S
C908 C906 1.389 . S
C908 C909 1.524 . S
C908 C922 1.377 . S
C909 C908 1.524 . S
C909 C910 1.397 1_545 S
C909 C914 1.363 . S
C910 H887 0.950 . S
C910 C909 1.397 1_565 S
C910 C911 1.334 . S
C911 H888 0.950 . S
C911 C910 1.334 . S
C911 C912 1.287 1_565 S
C912 C911 1.287 1_545 S
C912 C913 1.524 . S
C912 H931 0.923 . S
C913 H889 0.950 . S
C913 C912 1.524 . S
C913 C914 1.415 . S
C914 H890 0.950 . S
C914 C909 1.363 . S
C914 C913 1.415 . S
C915 H891 0.951 1_545 S
C915 C916 1.366 . S
C915 C917 1.388 . S
C916 C915 1.366 . S
C916 C920 1.385 . S
C917 H892 0.951 1_545 S
C917 C915 1.388 . S
C917 C918 1.366 . S
C918 C917 1.366 . S
C918 C919 1.414 . S
C918 C921 1.499 . S
C919 H893 0.950 . S
C919 C918 1.414 . S
C919 C920 1.374 . S
C920 H894 0.950 . S
C920 C916 1.385 . S
C920 C919 1.374 . S
C921 C918 1.499 . S
C921 C922 1.373 . S
C921 C923 1.389 . S
C922 H895 0.950 . S
C922 C908 1.377 . S
C922 C921 1.373 . S
C923 C907 1.377 . S
C923 C921 1.389 . S
C923 C924 1.524 . S
C924 C923 1.524 . S
C924 C925 1.397 . S
C924 C929 1.363 . S
C925 H896 0.950 . S
C925 C924 1.397 . S
C925 C926 1.334 . S
C926 H897 0.950 . S
C926 C925 1.334 . S
C926 C927 1.287 . S
C927 C926 1.287 . S
C927 C928 1.524 . S
C927 H930 0.999 . S
C928 H898 0.950 1_545 S
C928 C927 1.524 . S
C928 C929 1.415 . S
C929 H899 0.950 1_545 S
C929 C924 1.363 . S
C929 C928 1.415 . S
H930 C927 0.999 . S
H931 C912 0.923 . S
H932 C950 0.951 . S
H933 C952 0.951 . S
H934 C954 0.950 . S
H935 C955 0.950 . S
H936 C957 0.950 . S
H937 C960 0.950 . S
H938 C961 0.950 . S
H939 C963 0.950 . S
H940 C964 0.950 . S
H941 C965 0.951 . S
H942 C967 0.951 . S
H943 C969 0.950 . S
H944 C970 0.950 . S
H945 C972 0.950 1_554 S
H946 C975 0.950 . S
H947 C976 0.950 . S
H948 C978 0.950 . S
H949 C979 0.950 1_556 S
C950 H932 0.951 . S
C950 C951 1.366 . S
C950 C952 1.388 . S
C951 C950 1.366 . S
C951 C955 1.385 . S
C952 H933 0.951 . S
C952 C950 1.388 . S
C952 C953 1.366 . S
C953 C952 1.366 . S
C953 C954 1.414 . S
C953 C956 1.499 . S
C954 H934 0.950 . S
C954 C953 1.414 . S
C954 C955 1.374 . S
C955 H935 0.950 . S
C955 C951 1.385 . S
C955 C954 1.374 . S
C956 C953 1.499 . S
C956 C957 1.373 . S
C956 C958 1.389 . S
C957 H936 0.950 . S
C957 C956 1.373 . S
C957 C973 1.388 . S
C958 C956 1.389 . S
C958 C959 1.524 . S
C958 C972 1.377 . S
C959 C958 1.524 . S
C959 C960 1.397 . S
C959 C964 1.363 . S
C960 H937 0.950 . S
C960 C959 1.397 . S
C960 C961 1.334 . S
C961 H938 0.950 . S
C961 C960 1.334 . S
C961 C962 1.287 . S
C962 C961 1.287 . S
C962 C963 1.524 . S
C962 H981 0.913 . S
C963 H939 0.950 . S
C963 C962 1.524 . S
C963 C964 1.415 . S
C964 H940 0.950 . S
C964 C959 1.363 . S
C964 C963 1.415 . S
C965 H941 0.951 . S
C965 C966 1.366 . S
C965 C967 1.388 . S
C966 C965 1.366 . S
C966 C970 1.385 . S
C967 H942 0.951 . S
C967 C965 1.388 . S
C967 C968 1.366 . S
C968 C967 1.366 . S
C968 C969 1.414 . S
C968 C971 1.499 . S
C969 H943 0.950 . S
C969 C968 1.414 . S
C969 C970 1.374 . S
C970 H944 0.950 . S
C970 C966 1.385 . S
C970 C969 1.374 . S
C971 C968 1.499 . S
C971 C972 1.373 1_554 S
C971 C973 1.383 1_554 S
C972 H945 0.950 1_556 S
C972 C958 1.377 . S
C972 C971 1.373 1_556 S
C973 C957 1.388 . S
C973 C971 1.383 1_556 S
C973 C974 1.520 1_556 S
C974 C973 1.520 1_554 S
C974 C975 1.397 . S
C974 C979 1.363 . S
C975 H946 0.950 . S
C975 C974 1.397 . S
C975 C976 1.334 . S
C976 H947 0.950 . S
C976 C975 1.334 . S
C976 C977 1.287 . S
C977 C976 1.287 . S
C977 C978 1.524 . S
C977 H980 0.999 . S
C978 H948 0.950 . S
C978 C977 1.524 . S
C978 C979 1.415 . S
C979 H949 0.950 1_554 S
C979 C974 1.363 . S
C979 C978 1.415 . S
H980 C977 0.999 . S
H981 C962 0.913 . S
H982 C1000 0.951 . S
H983 C1002 0.951 . S
H984 C1004 0.950 . S
H985 C1005 0.950 . S
H986 C1007 0.950 1_655 S
H987 C1010 0.950 . S
H988 C1011 0.950 . S
H989 C1013 0.950 . S
H990 C1014 0.950 . S
H991 C1015 0.951 1_655 S
H992 C1017 0.951 1_655 S
H993 C1019 0.950 . S
H994 C1020 0.950 . S
H995 C1022 0.950 . S
H996 C1025 0.950 . S
H997 C1026 0.950 . S
H998 C1028 0.950 . S
H999 C1029 0.950 . S
C1000 H982 0.951 . S
C1000 C1001 1.366 . S
C1000 C1002 1.388 . S
C1001 C1000 1.366 . S
C1001 C1005 1.385 . S
C1002 H983 0.951 . S
C1002 C1000 1.388 . S
C1002 C1003 1.366 . S
C1003 C1002 1.366 . S
C1003 C1004 1.414 . S
C1003 C1006 1.499 . S
C1004 H984 0.950 . S
C1004 C1003 1.414 . S
C1004 C1005 1.374 . S
C1005 H985 0.950 . S
C1005 C1001 1.385 . S
C1005 C1004 1.374 . S
C1006 C1003 1.499 . S
C1006 C1007 1.373 . S
C1006 C1008 1.389 . S
C1007 H986 0.950 1_455 S
C1007 C1006 1.373 . S
C1007 C1023 1.377 . S
C1008 C1006 1.389 . S
C1008 C1009 1.524 . S
C1008 C1022 1.377 . S
C1009 C1008 1.524 . S
C1009 C1010 1.397 . S
C1009 C1014 1.363 . S
C1010 H987 0.950 . S
C1010 C1009 1.397 . S
C1010 C1011 1.334 . S
C1011 H988 0.950 . S
C1011 C1010 1.334 . S
C1011 C1012 1.287 . S
C1012 C1011 1.287 . S
C1012 C1013 1.524 . S
C1012 H1031 0.913 . S
C1013 H989 0.950 . S
C1013 C1012 1.524 . S
C1013 C1014 1.415 . S
C1014 H990 0.950 . S
C1014 C1009 1.363 . S
C1014 C1013 1.415 . S
C1015 H991 0.951 1_455 S
C1015 C1016 1.366 . S
C1015 C1017 1.388 . S
C1016 C1015 1.366 . S
C1016 C1020 1.385 . S
C1017 H992 0.951 1_455 S
C1017 C1015 1.388 . S
C1017 C1018 1.366 . S
C1018 C1017 1.366 . S
C1018 C1019 1.414 . S
C1018 C1021 1.499 . S
C1019 H993 0.950 . S
C1019 C1018 1.414 . S
C1019 C1020 1.374 . S
C1020 H994 0.950 . S
C1020 C1016 1.385 . S
C1020 C1019 1.374 . S
C1021 C1018 1.499 . S
C1021 C1022 1.373 . S
C1021 C1023 1.389 . S
C1022 H995 0.950 . S
C1022 C1008 1.377 . S
C1022 C1021 1.373 . S
C1023 C1007 1.377 . S
C1023 C1021 1.389 . S
C1023 C1024 1.524 1_455 S
C1024 C1023 1.524 1_655 S
C1024 C1025 1.397 . S
C1024 C1029 1.363 . S
C1025 H996 0.950 . S
C1025 C1024 1.397 . S
C1025 C1026 1.334 . S
C1026 H997 0.950 . S
C1026 C1025 1.334 . S
C1026 C1027 1.287 . S
C1027 C1026 1.287 . S
C1027 C1028 1.524 . S
C1027 H1030 0.999 . S
C1028 H998 0.950 . S
C1028 C1027 1.524 . S
C1028 C1029 1.415 . S
C1029 H999 0.950 . S
C1029 C1024 1.363 . S
C1029 C1028 1.415 . S
H1030 C1027 0.999 . S
H1031 C1012 0.913 . S
C151 C2 1.343 . S
C166 C126 1.350 . S
C201 C21 1.027 . S
C216 C100 1.022 . S
C251 C42 1.121 . S
C266 C112 1.102 . S
C301 C1 0.686 . S
C316 C124 0.694 . S
C366 C102 0.955 . S
C351 C22 0.961 . S
C416 C114 0.861 . S
C401 C41 0.861 . S
C451 C38 1.891 . S
C466 C76 1.853 . S
C501 C59 2.222 . S
C516 C90 2.201 1_655 S
C551 C18 1.720 . S
C566 C66 1.707 . S
C616 C78 1.797 . S
C601 C39 1.825 . S
C666 C88 1.476 . S
C651 C58 1.539 . S
C701 C19 1.994 . S
C716 C64 1.926 . S
C766 C93 1.592 . S
C751 C9 1.532 . S
C801 C29 1.543 . S
C816 C69 1.634 . S
C851 C49 1.534 . S
C866 C81 1.568 . S
C916 C117 1.513 . S
C901 C28 1.492 . S
C966 C129 1.468 . S
C951 C48 1.427 . S
C1001 C8 1.413 . S
C1016 C105 1.448 . S
