# Generated by pormake.
# Topology apo, (3,6)-cn, num edge types: 1
# Building blocks:
#     Node 0, Type 0, BuildingBlock: KAKCAD_clean_linker_0, # of connection points: 3
#     Node 1, Type 0, BuildingBlock: KAKCAD_clean_linker_0, # of connection points: 3
#     Node 2, Type 0, BuildingBlock: KAKCAD_clean_linker_0, # of connection points: 3
#     Node 3, Type 0, BuildingBlock: KAKCAD_clean_linker_0, # of connection points: 3
#     Node 4, Type 0, BuildingBlock: KAKCAD_clean_linker_0, # of connection points: 3
#     Node 5, Type 0, BuildingBlock: KAKCAD_clean_linker_0, # of connection points: 3
#     Node 6, Type 0, BuildingBlock: KAKCAD_clean_linker_0, # of connection points: 3
#     Node 7, Type 0, BuildingBlock: KAKCAD_clean_linker_0, # of connection points: 3
#     Node 8, Type 1, BuildingBlock: KUMJIN_clean_sbu_1, # of connection points: 6
#     Node 9, Type 1, BuildingBlock: KUMJIN_clean_sbu_1, # of connection points: 6
#     Node 10, Type 1, BuildingBlock: KUMJIN_clean_sbu_1, # of connection points: 6
#     Node 11, Type 1, BuildingBlock: KUMJIN_clean_sbu_1, # of connection points: 6
#     Edge 12, Type (0, 1), BuildingBlock: AJUNOK_clean_linker_0, # of connection points: 2
#     Edge 13, Type (0, 1), BuildingBlock: AJUNOK_clean_linker_0, # of connection points: 2
#     Edge 14, Type (0, 1), BuildingBlock: AJUNOK_clean_linker_0, # of connection points: 2
#     Edge 15, Type (0, 1), BuildingBlock: AJUNOK_clean_linker_0, # of connection points: 2
#     Edge 16, Type (0, 1), BuildingBlock: AJUNOK_clean_linker_0, # of connection points: 2
#     Edge 17, Type (0, 1), BuildingBlock: AJUNOK_clean_linker_0, # of connection points: 2
#     Edge 18, Type (0, 1), BuildingBlock: AJUNOK_clean_linker_0, # of connection points: 2
#     Edge 19, Type (0, 1), BuildingBlock: AJUNOK_clean_linker_0, # of connection points: 2
#     Edge 20, Type (0, 1), BuildingBlock: AJUNOK_clean_linker_0, # of connection points: 2
#     Edge 21, Type (0, 1), BuildingBlock: AJUNOK_clean_linker_0, # of connection points: 2
#     Edge 22, Type (0, 1), BuildingBlock: AJUNOK_clean_linker_0, # of connection points: 2
#     Edge 23, Type (0, 1), BuildingBlock: AJUNOK_clean_linker_0, # of connection points: 2
#     Edge 24, Type (0, 1), BuildingBlock: AJUNOK_clean_linker_0, # of connection points: 2
#     Edge 25, Type (0, 1), BuildingBlock: AJUNOK_clean_linker_0, # of connection points: 2
#     Edge 26, Type (0, 1), BuildingBlock: AJUNOK_clean_linker_0, # of connection points: 2
#     Edge 27, Type (0, 1), BuildingBlock: AJUNOK_clean_linker_0, # of connection points: 2
#     Edge 28, Type (0, 1), BuildingBlock: AJUNOK_clean_linker_0, # of connection points: 2
#     Edge 29, Type (0, 1), BuildingBlock: AJUNOK_clean_linker_0, # of connection points: 2
#     Edge 30, Type (0, 1), BuildingBlock: AJUNOK_clean_linker_0, # of connection points: 2
#     Edge 31, Type (0, 1), BuildingBlock: AJUNOK_clean_linker_0, # of connection points: 2
#     Edge 32, Type (0, 1), BuildingBlock: AJUNOK_clean_linker_0, # of connection points: 2
#     Edge 33, Type (0, 1), BuildingBlock: AJUNOK_clean_linker_0, # of connection points: 2
#     Edge 34, Type (0, 1), BuildingBlock: AJUNOK_clean_linker_0, # of connection points: 2
#     Edge 35, Type (0, 1), BuildingBlock: AJUNOK_clean_linker_0, # of connection points: 2
# Relax obj value: 0.008
# Max RMSD: 0.112
# Mean RMSD: 0.086
data_MOF--net-apo--node1-KUMJIN_clean_sbu_1--node2-KAKCAD_clean_linker_0--edge1-AJUNOK_clean_linker_0
_symmetry_space_group_name_H-M    P1
_symmetry_Int_Tables_number       1
_symmetry_cell_setting            triclinic
loop_
_symmetry_equiv_pos_as_xyz
'x, y, z'
_cell_length_a     23.245305
_cell_length_b     40.909766
_cell_length_c     52.067885
_cell_angle_alpha  89.981667
_cell_angle_beta   89.986126
_cell_angle_gamma 90.049756
loop_
_atom_site_label
_atom_site_type_symbol
_atom_site_fract_x
_atom_site_fract_y
_atom_site_fract_z
_atom_type_partial_charge
C0 C 0.29697 0.47903 0.34235 0.0
C1 C 0.35151 0.49263 0.34686 0.0
C2 C 0.27749 0.45269 0.35706 0.0
C3 C 0.31236 0.43925 0.37644 0.0
C4 C 0.36661 0.4532 0.38116 0.0
C5 C 0.38594 0.47962 0.36653 0.0
C6 C 0.29287 0.41023 0.39121 0.0
C7 C 0.26461 0.38442 0.37875 0.0
C8 C 0.24548 0.3568 0.39241 0.0
C9 C 0.25696 0.35487 0.41894 0.0
C10 C 0.28639 0.38028 0.43168 0.0
C11 C 0.30328 0.40801 0.41766 0.0
C12 C 0.29929 0.37832 0.45964 0.0
C13 C 0.25881 0.3653 0.47689 0.0
C14 C 0.35187 0.39019 0.46938 0.0
C15 C 0.36327 0.3895 0.49574 0.0
C16 C 0.32245 0.37683 0.51292 0.0
C17 C 0.2143 0.33012 0.37859 0.0
C18 C 0.17721 0.33767 0.35803 0.0
C19 C 0.22267 0.29701 0.38504 0.0
C20 C 0.19584 0.2722 0.37086 0.0
C21 C 0.16071 0.27999 0.3498 0.0
C22 C 0.15133 0.31291 0.34365 0.0
C23 C 0.27032 0.36453 0.5032 0.0
H24 H 0.26989 0.48822 0.32704 0.0
H25 H 0.2352 0.44274 0.35315 0.0
H26 H 0.39477 0.44323 0.39576 0.0
H27 H 0.42812 0.48973 0.37047 0.0
H28 H 0.2588 0.38556 0.35813 0.0
H29 H 0.32373 0.42829 0.42747 0.0
H30 H 0.24309 0.33361 0.42968 0.0
H31 H 0.21762 0.35638 0.47016 0.0
H32 H 0.38452 0.39982 0.45661 0.0
H33 H 0.40425 0.39856 0.50263 0.0
H34 H 0.16826 0.36279 0.35287 0.0
H35 H 0.25129 0.29014 0.40052 0.0
H36 H 0.23786 0.35483 0.51606 0.0
H37 H 0.12386 0.31949 0.32766 0.0
H38 H 0.20392 0.2469 0.37584 0.0
C39 C 0.20498 0.02379 0.84237 0.0
C40 C 0.15045 0.01078 0.84785 0.0
C41 C 0.22743 0.04921 0.85727 0.0
C42 C 0.19562 0.06224 0.87788 0.0
C43 C 0.14193 0.04831 0.88385 0.0
C44 C 0.11993 0.02268 0.86918 0.0
C45 C 0.21717 0.09098 0.89252 0.0
C46 C 0.24564 0.11659 0.87982 0.0
C47 C 0.26455 0.14445 0.8932 0.0
C48 C 0.25314 0.14683 0.91971 0.0
C49 C 0.2241 0.12151 0.93276 0.0
C50 C 0.20734 0.09352 0.91903 0.0
C51 C 0.21101 0.12392 0.9607 0.0
C52 C 0.2514 0.13717 0.97787 0.0
C53 C 0.15833 0.11225 0.97051 0.0
C54 C 0.14676 0.11333 0.99685 0.0
C55 C 0.18753 0.12618 0.01397 0.0
C56 C 0.29473 0.17111 0.879 0.0
C57 C 0.33438 0.16344 0.85949 0.0
C58 C 0.28237 0.20422 0.88383 0.0
C59 C 0.30732 0.22891 0.86881 0.0
C60 C 0.34493 0.22102 0.84858 0.0
C61 C 0.35913 0.18805 0.8445 0.0
C62 C 0.23974 0.13831 1.00418 0.0
H63 H 0.22962 0.01491 0.82615 0.0
H64 H 0.26947 0.05886 0.85248 0.0
H65 H 0.11597 0.05777 0.89943 0.0
H66 H 0.07847 0.01248 0.87432 0.0
H67 H 0.25145 0.11534 0.8592 0.0
H68 H 0.18706 0.07341 0.92912 0.0
H69 H 0.26663 0.16842 0.93013 0.0
H70 H 0.29263 0.14597 0.97108 0.0
H71 H 0.12573 0.10246 0.9578 0.0
H72 H 0.10572 0.10441 1.00379 0.0
H73 H 0.34611 0.13829 0.85565 0.0
H74 H 0.2519 0.21104 0.89862 0.0
H75 H 0.27218 0.14814 0.01697 0.0
H76 H 0.38938 0.18124 0.82961 0.0
H77 H 0.29584 0.25413 0.8725 0.0
C78 C 0.80488 0.01924 0.67082 0.0
C79 C 0.8628 0.01011 0.66917 0.0
C80 C 0.7843 0.04542 0.65628 0.0
C81 C 0.82125 0.06257 0.63966 0.0
C82 C 0.87893 0.05274 0.6375 0.0
C83 C 0.89971 0.02683 0.65235 0.0
C84 C 0.7998 0.09143 0.62546 0.0
C85 C 0.77036 0.11606 0.63866 0.0
C86 C 0.74628 0.14301 0.62569 0.0
C87 C 0.75531 0.14542 0.59888 0.0
C88 C 0.78731 0.12153 0.58542 0.0
C89 C 0.80841 0.09433 0.59899 0.0
C90 C 0.79905 0.1247 0.55728 0.0
C91 C 0.75815 0.13849 0.54059 0.0
C92 C 0.8515 0.11366 0.54681 0.0
C93 C 0.86252 0.11613 0.52047 0.0
C94 C 0.82204 0.13045 0.50392 0.0
C95 C 0.71271 0.1683 0.64046 0.0
C96 C 0.68688 0.16034 0.66419 0.0
C97 C 0.70727 0.20076 0.63167 0.0
C98 C 0.6776 0.22421 0.64616 0.0
C99 C 0.65427 0.2164 0.67039 0.0
C100 C 0.66015 0.18411 0.67922 0.0
C101 C 0.76966 0.14151 0.51433 0.0
H102 H 0.77598 0.00662 0.6838 0.0
H103 H 0.73955 0.05243 0.65812 0.0
H104 H 0.90826 0.06571 0.62493 0.0
H105 H 0.94466 0.02007 0.65099 0.0
H106 H 0.76762 0.11411 0.65933 0.0
H107 H 0.83063 0.0749 0.58892 0.0
H108 H 0.73791 0.16593 0.58838 0.0
H109 H 0.71688 0.14675 0.5477 0.0
H110 H 0.88458 0.10332 0.55896 0.0
H111 H 0.90277 0.1067 0.51311 0.0
H112 H 0.68736 0.13568 0.67164 0.0
H113 H 0.72669 0.2086 0.61384 0.0
H114 H 0.7376 0.15289 0.50218 0.0
H115 H 0.64535 0.17697 0.69809 0.0
H116 H 0.67364 0.24864 0.63839 0.0
C117 C 0.69491 0.47995 0.17174 0.0
C118 C 0.6405 0.49311 0.16644 0.0
C119 C 0.71549 0.45342 0.15767 0.0
C120 C 0.68183 0.4393 0.13815 0.0
C121 C 0.62747 0.45267 0.13274 0.0
C122 C 0.60698 0.47932 0.14679 0.0
C123 C 0.70357 0.41054 0.12375 0.0
C124 C 0.73239 0.38543 0.13676 0.0
C125 C 0.75773 0.35906 0.12351 0.0
C126 C 0.75039 0.35758 0.09657 0.0
C127 C 0.71801 0.38147 0.08346 0.0
C128 C 0.69595 0.40817 0.09715 0.0
C129 C 0.70575 0.37844 0.05555 0.0
C130 C 0.74925 0.36967 0.03813 0.0
C131 C 0.64981 0.38422 0.04619 0.0
C132 C 0.63747 0.38084 0.02005 0.0
C133 C 0.681 0.37212 1.00278 0.0
C134 C 0.7902 0.33321 0.13813 0.0
C135 C 0.81365 0.34006 0.16255 0.0
C136 C 0.79712 0.30126 0.12843 0.0
C137 C 0.82522 0.27714 0.14282 0.0
C138 C 0.84458 0.28357 0.16795 0.0
C139 C 0.83871 0.31556 0.17742 0.0
C140 C 0.73699 0.3667 0.01193 0.0
H141 H 0.72164 0.49031 0.18672 0.0
H142 H 0.75796 0.44403 0.162 0.0
H143 H 0.60025 0.44209 0.11805 0.0
H144 H 0.5644 0.48871 0.14267 0.0
H145 H 0.73365 0.38648 0.15749 0.0
H146 H 0.67355 0.42744 0.08696 0.0
H147 H 0.76888 0.33775 0.08563 0.0
H148 H 0.79274 0.36528 0.04472 0.0
H149 H 0.61525 0.39067 0.05919 0.0
H150 H 0.59391 0.38474 0.01333 0.0
H151 H 0.81272 0.36439 0.17061 0.0
H152 H 0.78026 0.29434 0.10987 0.0
H153 H 0.77094 0.35951 0.99884 0.0
H154 H 0.85292 0.32188 0.19658 0.0
H155 H 0.83156 0.25346 0.13405 0.0
C156 C 0.64471 0.54369 0.68053 0.0
C157 C 0.65168 0.51166 0.6713 0.0
C158 C 0.66355 0.57035 0.66607 0.0
C159 C 0.68951 0.56551 0.64203 0.0
C160 C 0.69677 0.53349 0.63281 0.0
C161 C 0.67835 0.5068 0.64739 0.0
C162 C 0.70959 0.59375 0.62666 0.0
C163 C 0.74065 0.61894 0.63826 0.0
C164 C 0.76061 0.6455 0.62382 0.0
C165 C 0.75166 0.64589 0.59708 0.0
C166 C 0.71908 0.62104 0.58487 0.0
C167 C 0.69732 0.59551 0.60038 0.0
C168 C 0.70695 0.62158 0.55639 0.0
C169 C 0.71386 0.65028 0.54161 0.0
C170 C 0.68764 0.5932 0.54348 0.0
C171 C 0.67453 0.59371 0.51738 0.0
C172 C 0.6841 0.62185 0.50263 0.0
C173 C 0.7889 0.67313 0.63728 0.0
C174 C 0.76399 0.6857 0.65981 0.0
C175 C 0.84128 0.68627 0.62857 0.0
C176 C 0.86886 0.71098 0.64258 0.0
C177 C 0.84395 0.72321 0.66522 0.0
C178 C 0.79121 0.71043 0.67362 0.0
C179 C 0.70369 0.65021 0.51512 0.0
H180 H 0.62394 0.54818 0.69881 0.0
H181 H 0.65703 0.59478 0.67352 0.0
H182 H 0.71751 0.52908 0.6145 0.0
H183 H 0.68562 0.48237 0.64007 0.0
H184 H 0.74984 0.61777 0.65866 0.0
H185 H 0.66936 0.57694 0.59258 0.0
H186 H 0.76959 0.66598 0.58626 0.0
H187 H 0.72697 0.67315 0.55013 0.0
H188 H 0.68291 0.56997 0.55304 0.0
H189 H 0.65726 0.57171 0.50879 0.0
H190 H 0.72338 0.67624 0.66684 0.0
H191 H 0.86152 0.67691 0.61134 0.0
H192 H 0.71183 0.67242 0.5044 0.0
H193 H 0.77145 0.71923 0.69116 0.0
H194 H 0.90953 0.72058 0.63575 0.0
C195 C 0.77448 0.86083 0.01461 0.0
C196 C 0.82182 0.87795 1.00447 0.0
C197 C 0.76196 0.8622 0.04092 0.0
C198 C 0.7972 0.88017 0.05781 0.0
C199 C 0.84568 0.89627 0.04767 0.0
C200 C 0.85737 0.89549 0.02141 0.0
C201 C 0.78358 0.88262 0.08579 0.0
C202 C 0.75897 0.85615 0.0992 0.0
C203 C 0.74714 0.85837 0.12566 0.0
C204 C 0.7614 0.88733 0.13876 0.0
C205 C 0.78662 0.9139 0.1259 0.0
C206 C 0.79626 0.91153 0.09935 0.0
C207 C 0.80502 0.94352 0.14046 0.0
C208 C 0.77247 0.95506 0.16141 0.0
C209 C 0.85705 0.95946 0.1344 0.0
C210 C 0.87664 0.98563 0.14929 0.0
C211 C 0.84489 0.99615 0.17061 0.0
C212 C 0.72011 0.83061 0.13986 0.0
C213 C 0.67663 0.81153 0.12848 0.0
C214 C 0.73623 0.82369 0.16535 0.0
C215 C 0.70819 0.79933 0.17938 0.0
C216 C 0.66378 0.78085 0.16823 0.0
C217 C 0.6491 0.78679 0.14244 0.0
C218 C 0.7925 0.98096 0.17646 0.0
H219 H 0.74698 0.84636 1.00227 0.0
H220 H 0.72408 0.84958 0.04787 0.0
H221 H 0.87493 0.90962 0.05999 0.0
H222 H 0.89403 0.90915 0.01434 0.0
H223 H 0.7505 0.83343 0.08922 0.0
H224 H 0.81323 0.93253 0.0892 0.0
H225 H 0.75322 0.88911 0.15917 0.0
H226 H 0.73173 0.94388 0.16638 0.0
H227 H 0.88376 0.95103 0.1187 0.0
H228 H 0.91748 0.997 0.14467 0.0
H229 H 0.66289 0.81614 0.10894 0.0
H230 H 0.7705 0.83719 0.17462 0.0
H231 H 0.76754 0.98886 0.19289 0.0
H232 H 0.61624 0.77236 0.13302 0.0
H233 H 0.72073 0.79532 0.19917 0.0
C234 C 0.1292 0.95934 0.34276 0.0
C235 C 0.14161 0.99159 0.35029 0.0
C236 C 0.15037 0.93293 0.35679 0.0
C237 C 0.18371 0.93816 0.37886 0.0
C238 C 0.19572 0.97027 0.38667 0.0
C239 C 0.17547 0.99677 0.37233 0.0
C240 C 0.2064 0.90995 0.39339 0.0
C241 C 0.23574 0.88507 0.38047 0.0
C242 C 0.25466 0.85699 0.39348 0.0
C243 C 0.24557 0.85481 0.42019 0.0
C244 C 0.21638 0.87982 0.43362 0.0
C245 C 0.1968 0.90725 0.41983 0.0
C246 C 0.20416 0.87697 0.46171 0.0
C247 C 0.19316 0.84634 0.47298 0.0
C248 C 0.20156 0.90501 0.47741 0.0
C249 C 0.18739 0.90252 0.50344 0.0
C250 C 0.17712 0.87186 0.51468 0.0
C251 C 0.28243 0.82996 0.37877 0.0
C252 C 0.2639 0.82276 0.35363 0.0
C253 C 0.32804 0.8116 0.38921 0.0
C254 C 0.35518 0.78732 0.37462 0.0
C255 C 0.3378 0.78131 0.34923 0.0
C256 C 0.29159 0.79898 0.33899 0.0
C257 C 0.18042 0.84381 0.49912 0.0
H258 H 0.10277 0.95447 0.32607 0.0
H259 H 0.14017 0.90834 0.35053 0.0
H260 H 0.22187 0.97483 0.40352 0.0
H261 H 0.18724 0.02124 0.37826 0.0
H262 H 0.24402 0.88783 0.3601 0.0
H263 H 0.17207 0.92611 0.42937 0.0
H264 H 0.26057 0.83343 0.43042 0.0
H265 H 0.19345 0.82419 0.46162 0.0
H266 H 0.21057 0.92904 0.46969 0.0
H267 H 0.18411 0.92471 0.51466 0.0
H268 H 0.22781 0.83551 0.34514 0.0
H269 H 0.3438 0.8165 0.40839 0.0
H270 H 0.17339 0.81973 0.50717 0.0
H271 H 0.27678 0.7943 0.3196 0.0
H272 H 0.39074 0.77384 0.38289 0.0
C273 C 0.27466 0.63598 1.0038 0.0
C274 C 0.33084 0.63068 0.01281 0.0
C275 C 0.26232 0.63367 0.97758 0.0
C276 C 0.30582 0.62558 0.95999 0.0
C277 C 0.36196 0.62003 0.96908 0.0
C278 C 0.37449 0.62291 0.99525 0.0
C279 C 0.29253 0.6222 0.93229 0.0
C280 C 0.26249 0.64687 0.91904 0.0
C281 C 0.25068 0.64372 0.89261 0.0
C282 C 0.26758 0.61496 0.8799 0.0
C283 C 0.29784 0.59032 0.89286 0.0
C284 C 0.31052 0.59421 0.91898 0.0
C285 C 0.31782 0.56105 0.87877 0.0
C286 C 0.28016 0.54393 0.86247 0.0
C287 C 0.37539 0.55087 0.88073 0.0
C288 C 0.39531 0.52464 0.86607 0.0
C289 C 0.35775 0.50795 0.8496 0.0
C290 C 0.22262 0.67063 0.87789 0.0
C291 C 0.17736 0.68898 0.88855 0.0
C292 C 0.2408 0.67792 0.85273 0.0
C293 C 0.21389 0.70244 0.83846 0.0
C294 C 0.16846 0.72058 0.84901 0.0
C295 C 0.15052 0.71366 0.87424 0.0
C296 C 0.29997 0.51741 0.84807 0.0
H297 H 0.24055 0.64252 0.01701 0.0
H298 H 0.21868 0.63787 0.97108 0.0
H299 H 0.39632 0.61393 0.95587 0.0
H300 H 0.41819 0.61907 1.0018 0.0
H301 H 0.25029 0.66896 0.92914 0.0
H302 H 0.33345 0.57506 0.92911 0.0
H303 H 0.25806 0.61187 0.85967 0.0
H304 H 0.23552 0.55118 0.86078 0.0
H305 H 0.40536 0.56382 0.89299 0.0
H306 H 0.44014 0.51758 0.86735 0.0
H307 H 0.16179 0.68382 0.90773 0.0
H308 H 0.2763 0.66485 0.84404 0.0
H309 H 0.2706 0.50475 0.83534 0.0
H310 H 0.1149 0.72685 0.88274 0.0
H311 H 0.22901 0.70741 0.81916 0.0
Eu312 Eu 0.06453 0.1345 0.23278 0.0
C313 C 0.80887 0.11742 0.26923 0.0
N314 N 0.83947 0.14571 0.26773 0.0
C315 C 0.75887 0.17318 0.24897 0.0
C316 C 0.75177 0.11592 0.26021 0.0
C317 C 0.81536 0.17352 0.25814 0.0
C318 C 0.72696 0.14425 0.24993 0.0
C319 C 0.80436 0.06008 0.2812 0.0
C320 C 0.8352 0.0897 0.27944 0.0
C321 C 0.7475 0.05851 0.27216 0.0
C322 C 0.72132 0.08632 0.26168 0.0
Eu323 Eu 0.93369 0.14393 0.28407 0.0
N324 N 0.89079 0.09171 0.28764 0.0
C325 C 0.83131 0.03299 0.29236 0.0
C326 C 0.91605 0.06591 0.29974 0.0
C327 C 0.88708 0.03608 0.302 0.0
H328 H 0.83947 0.19609 0.25785 0.0
H329 H 0.90765 0.01555 0.31134 0.0
H330 H 0.15956 0.07979 0.25476 0.0
H331 H 0.09758 0.26128 0.20309 0.0
H332 H 0.9578 0.06831 0.30829 0.0
H333 H 0.80904 0.00982 0.29411 0.0
H334 H 0.04409 0.20977 0.2082 0.0
H335 H 0.73991 0.19526 0.24126 0.0
H336 H 0.72324 0.03593 0.27332 0.0
H337 H 0.67738 0.08471 0.25485 0.0
H338 H 0.26144 0.07776 0.26803 0.0
H339 H 0.68317 0.14408 0.24281 0.0
H340 H 0.19935 0.26453 0.21677 0.0
N341 N 0.16122 0.13039 0.24606 0.0
C342 C 0.19383 0.15782 0.24367 0.0
C343 C 0.24283 0.10052 0.26146 0.0
C344 C 0.25252 0.15769 0.25052 0.0
C345 C 0.18491 0.10181 0.25432 0.0
C346 C 0.27673 0.12863 0.25971 0.0
N347 N 0.11196 0.18519 0.22728 0.0
C348 C 0.08705 0.2114 0.2156 0.0
C349 C 0.20183 0.21448 0.23031 0.0
C350 C 0.1687 0.1859 0.23373 0.0
C351 C 0.17546 0.24207 0.21963 0.0
C352 C 0.11793 0.2404 0.21205 0.0
H353 H 0.32171 0.12751 0.2651 0.0
H354 H 0.33039 0.1867 0.25287 0.0
H355 H 0.286 0.23643 0.23523 0.0
O356 O 0.0594 0.13832 0.19077 0.0
O357 O 0.0853 0.16384 0.26898 0.0
O358 O 0.99808 0.18511 0.2821 0.0
O359 O 0.11051 0.10031 0.20819 0.0
O360 O 0.98293 0.1616 0.22077 0.0
O361 O 0.9481 0.18682 0.25742 0.0
O362 O 0.92984 0.13857 0.32642 0.0
O363 O 0.91591 0.1186 0.2458 0.0
O364 O 0.00186 0.09319 0.23923 0.0
O365 O 0.87938 0.17604 0.3066 0.0
O366 O 0.01574 0.11874 0.29738 0.0
O367 O 0.05452 0.09355 0.26166 0.0
C368 C 0.05427 0.1833 0.28357 0.0
C369 C 0.14368 0.12165 0.16875 0.0
C370 C 0.17865 0.128 0.12485 0.0
C371 C 0.23424 0.13366 0.1344 0.0
C372 C 0.19981 0.12714 0.17781 0.0
C373 C 0.24468 0.13315 0.16073 0.0
C374 C 0.13325 0.12192 0.14211 0.0
C375 C 0.95327 0.18474 0.23234 0.0
C376 C 0.09641 0.11491 0.1869 0.0
C377 C 0.28529 0.18631 0.24763 0.0
C378 C 0.26003 0.21462 0.23755 0.0
C379 C 0.9468 0.09575 0.23487 0.0
C380 C 0.86973 0.17503 0.35284 0.0
C381 C 0.84831 0.16941 0.39852 0.0
C382 C 0.82232 0.20033 0.39822 0.0
C383 C 0.84351 0.20599 0.35312 0.0
C384 C 0.87258 0.15673 0.37581 0.0
C385 C 0.82015 0.21851 0.37567 0.0
C386 C 0.04888 0.09644 0.28674 0.0
C387 C 0.89345 0.16269 0.32838 0.0
H388 H 0.26982 0.13809 0.1214 0.0
H389 H 0.20937 0.12639 0.19807 0.0
H390 H 0.28779 0.13722 0.16791 0.0
H391 H 0.0902 0.11755 0.13486 0.0
H392 H 0.80372 0.21043 0.41558 0.0
H393 H 0.84116 0.2207 0.33585 0.0
H394 H 0.89272 0.13284 0.37599 0.0
H395 H 0.80015 0.24239 0.37566 0.0
Eu396 Eu 0.44409 0.3681 0.73169 0.0
C397 C 0.69806 0.38748 0.7721 0.0
N398 N 0.66621 0.35992 0.76843 0.0
C399 C 0.74731 0.33279 0.74976 0.0
C400 C 0.75598 0.38882 0.76409 0.0
C401 C 0.69016 0.3325 0.75811 0.0
C402 C 0.78032 0.36109 0.75266 0.0
C403 C 0.70447 0.44355 0.78728 0.0
C404 C 0.67229 0.41467 0.78351 0.0
C405 C 0.76218 0.44486 0.77934 0.0
C406 C 0.78781 0.41762 0.76777 0.0
Eu407 Eu 0.57272 0.36121 0.7856 0.0
N408 N 0.61573 0.41312 0.7905 0.0
C409 C 0.67746 0.47047 0.79867 0.0
C410 C 0.58979 0.43898 0.80225 0.0
C411 C 0.61995 0.46814 0.8062 0.0
H412 H 0.66573 0.31014 0.75679 0.0
H413 H 0.59902 0.48866 0.81539 0.0
H414 H 0.35305 0.42266 0.75933 0.0
H415 H 0.39723 0.25074 0.68811 0.0
H416 H 0.54656 0.43704 0.80936 0.0
H417 H 0.70066 0.49311 0.80181 0.0
H418 H 0.45742 0.29812 0.70049 0.0
H419 H 0.7661 0.31105 0.7414 0.0
H420 H 0.78737 0.4669 0.78201 0.0
H421 H 0.83237 0.41907 0.76174 0.0
H422 H 0.25305 0.42476 0.7742 0.0
H423 H 0.82469 0.36117 0.74628 0.0
H424 H 0.29528 0.24834 0.70177 0.0
N425 N 0.3492 0.37263 0.74802 0.0
C426 C 0.31399 0.34671 0.74331 0.0
C427 C 0.26988 0.40244 0.76596 0.0
C428 C 0.25533 0.34753 0.75029 0.0
C429 C 0.32732 0.40081 0.75812 0.0
C430 C 0.23384 0.37557 0.76228 0.0
N431 N 0.39144 0.32066 0.72231 0.0
C432 C 0.41359 0.29655 0.70722 0.0
C433 C 0.2991 0.29415 0.72258 0.0
C434 C 0.33544 0.32027 0.72963 0.0
C435 C 0.32183 0.26882 0.70759 0.0
C436 C 0.37938 0.27003 0.69988 0.0
H437 H 0.18902 0.37719 0.76786 0.0
H438 H 0.17432 0.32126 0.74935 0.0
H439 H 0.21272 0.27451 0.72514 0.0
O440 O 0.45189 0.3654 0.6896 0.0
O441 O 0.43978 0.32393 0.75878 0.0
O442 O 0.48328 0.34274 0.79576 0.0
O443 O 0.39892 0.40241 0.70708 0.0
O444 O 0.52846 0.34282 0.72198 0.0
O445 O 0.55904 0.31745 0.7594 0.0
O446 O 0.59975 0.36955 0.82543 0.0
O447 O 0.59278 0.38662 0.74755 0.0
O448 O 0.50566 0.40945 0.73903 0.0
O449 O 0.61451 0.32194 0.80723 0.0
O450 O 0.49142 0.38713 0.79849 0.0
O451 O 0.45266 0.40873 0.76119 0.0
C452 C 0.44978 0.32186 0.78368 0.0
C453 C 0.36697 0.38155 0.66755 0.0
C454 C 0.33167 0.37576 0.62371 0.0
C455 C 0.27594 0.37051 0.63327 0.0
C456 C 0.31066 0.3765 0.67664 0.0
C457 C 0.26558 0.37097 0.65959 0.0
C458 C 0.3773 0.38139 0.64091 0.0
C459 C 0.55221 0.31813 0.73425 0.0
C460 C 0.41407 0.38838 0.68575 0.0
C461 C 0.21942 0.32103 0.7441 0.0
C462 C 0.24123 0.29444 0.73024 0.0
C463 C 0.56077 0.40737 0.73479 0.0
C464 C 0.64866 0.32841 0.8513 0.0
C465 C 0.66737 0.33232 0.89739 0.0
C466 C 0.70397 0.30515 0.89553 0.0
C467 C 0.68568 0.30138 0.84998 0.0
C468 C 0.64015 0.34428 0.87512 0.0
C469 C 0.71329 0.28996 0.87196 0.0
C470 C 0.45571 0.40672 0.78636 0.0
C471 C 0.62115 0.34031 0.82753 0.0
H472 H 0.24024 0.36642 0.62028 0.0
H473 H 0.30111 0.37733 0.69692 0.0
H474 H 0.22238 0.36726 0.6668 0.0
H475 H 0.4204 0.38555 0.63363 0.0
H476 H 0.72566 0.29576 0.9124 0.0
H477 H 0.6938 0.28923 0.83186 0.0
H478 H 0.61197 0.36531 0.87644 0.0
H479 H 0.74196 0.26919 0.87074 0.0
Eu480 Eu 0.06942 0.86021 0.73544 0.0
C481 C 0.80877 0.83864 0.76667 0.0
N482 N 0.83932 0.86699 0.7676 0.0
C483 C 0.75801 0.89712 0.75227 0.0
C484 C 0.75101 0.83861 0.75842 0.0
C485 C 0.81511 0.89603 0.7606 0.0
C486 C 0.72576 0.86832 0.75124 0.0
C487 C 0.8055 0.77957 0.77163 0.0
C488 C 0.83592 0.80934 0.77318 0.0
C489 C 0.7478 0.77958 0.76364 0.0
C490 C 0.72064 0.80898 0.7571 0.0
Eu491 Eu 0.9335 0.86244 0.7835 0.0
N492 N 0.89237 0.80986 0.78032 0.0
C493 C 0.83398 0.75061 0.77817 0.0
C494 C 0.91956 0.78189 0.78768 0.0
C495 C 0.89111 0.75182 0.78638 0.0
H496 H 0.83937 0.91849 0.76202 0.0
H497 H 0.91306 0.72963 0.79202 0.0
H498 H 0.1639 0.80703 0.76071 0.0
H499 H 0.09549 0.98973 0.71225 0.0
H500 H 0.96264 0.78255 0.79503 0.0
H501 H 0.81206 0.72726 0.77724 0.0
H502 H 0.04709 0.93621 0.71223 0.0
H503 H 0.73879 0.92019 0.74682 0.0
H504 H 0.72381 0.75692 0.76236 0.0
H505 H 0.67624 0.8085 0.75079 0.0
H506 H 0.26215 0.80756 0.77862 0.0
H507 H 0.68152 0.86926 0.74474 0.0
H508 H 0.19236 0.99531 0.73141 0.0
N509 N 0.16281 0.85802 0.75298 0.0
C510 C 0.19301 0.88651 0.75279 0.0
C511 C 0.24305 0.82998 0.77163 0.0
C512 C 0.24952 0.88785 0.76259 0.0
C513 C 0.1871 0.82983 0.76181 0.0
C514 C 0.27432 0.85913 0.77214 0.0
N515 N 0.11242 0.91251 0.73369 0.0
C516 C 0.08767 0.93868 0.72188 0.0
C517 C 0.19736 0.94441 0.74263 0.0
C518 C 0.16712 0.91451 0.74294 0.0
C519 C 0.17057 0.9719 0.73201 0.0
C520 C 0.11576 0.9689 0.72131 0.0
H521 H 0.31771 0.85915 0.77974 0.0
H522 H 0.32287 0.91918 0.77 0.0
H523 H 0.27725 0.96865 0.75256 0.0
O524 O 0.071 0.86535 0.69287 0.0
O525 O 0.08032 0.88701 0.77374 0.0
O526 O 0.99058 0.90702 0.78419 0.0
O527 O 0.12922 0.83192 0.71286 0.0
O528 O 0.98798 0.88655 0.72217 0.0
O529 O 0.94495 0.90764 0.75886 0.0
O530 O 0.93349 0.85192 0.82482 0.0
O531 O 0.92129 0.83943 0.74412 0.0
O532 O 0.00914 0.81696 0.73608 0.0
O533 O 0.87032 0.8848 0.80887 0.0
O534 O 0.01627 0.83851 0.79746 0.0
O535 O 0.05664 0.81632 0.76112 0.0
C536 C 0.04698 0.90846 0.78528 0.0
C537 C 0.13828 0.83231 0.66679 0.0
C538 C 0.15576 0.83664 0.62073 0.0
C539 C 0.18875 0.80798 0.62175 0.0
C540 C 0.17169 0.80365 0.66725 0.0
C541 C 0.19669 0.79164 0.64488 0.0
C542 C 0.1304 0.84897 0.64332 0.0
C543 C 0.95452 0.90785 0.73391 0.0
C544 C 0.11224 0.84384 0.69103 0.0
C545 C 0.27945 0.91768 0.76251 0.0
C546 C 0.25344 0.94587 0.7526 0.0
C547 C 0.95409 0.81919 0.73125 0.0
C548 C 0.89499 0.89254 0.85231 0.0
C549 C 0.88025 0.90108 0.8981 0.0
C550 C 0.89804 0.93367 0.89531 0.0
C551 C 0.91265 0.92517 0.84983 0.0
C552 C 0.87875 0.88049 0.87655 0.0
C553 C 0.91414 0.94563 0.87125 0.0
C554 C 0.05199 0.81812 0.78621 0.0
C555 C 0.89039 0.87135 0.82963 0.0
H556 H 0.20866 0.79832 0.60452 0.0
H557 H 0.17838 0.79026 0.68496 0.0
H558 H 0.22227 0.76956 0.64549 0.0
H559 H 0.10495 0.87114 0.64257 0.0
H560 H 0.89912 0.94988 0.91176 0.0
H561 H 0.9244 0.93485 0.83126 0.0
H562 H 0.86467 0.85534 0.87861 0.0
H563 H 0.92746 0.97086 0.86918 0.0
Eu564 Eu 0.43019 0.6436 0.23314 0.0
C565 C 0.69117 0.65917 0.27148 0.0
N566 N 0.65914 0.6314 0.2703 0.0
C567 C 0.74095 0.60111 0.25568 0.0
C568 C 0.74978 0.65893 0.2645 0.0
C569 C 0.68305 0.60252 0.26283 0.0
C570 C 0.77445 0.62945 0.25643 0.0
C571 C 0.6976 0.71702 0.28145 0.0
C572 C 0.6653 0.68789 0.2799 0.0
C573 C 0.75589 0.71691 0.27435 0.0
C574 C 0.7819 0.68796 0.26591 0.0
Eu575 Eu 0.56255 0.6359 0.28337 0.0
N576 N 0.60846 0.6874 0.28623 0.0
C577 C 0.67038 0.7454 0.2902 0.0
C578 C 0.58254 0.71464 0.29586 0.0
C579 C 0.61272 0.74412 0.29763 0.0
H580 H 0.65777 0.58041 0.26294 0.0
H581 H 0.59167 0.76574 0.30505 0.0
H582 H 0.3365 0.69736 0.25789 0.0
H583 H 0.40583 0.51261 0.21408 0.0
H584 H 0.53917 0.71372 0.30282 0.0
H585 H 0.6937 0.76827 0.29168 0.0
H586 H 0.45605 0.56541 0.21447 0.0
H587 H 0.7598 0.57812 0.24978 0.0
H588 H 0.78131 0.73908 0.2754 0.0
H589 H 0.82697 0.68825 0.26061 0.0
H590 H 0.23575 0.6981 0.27296 0.0
H591 H 0.81937 0.62826 0.25095 0.0
H592 H 0.30516 0.509 0.22917 0.0
N593 N 0.33537 0.64674 0.24873 0.0
C594 C 0.30404 0.61869 0.24753 0.0
C595 C 0.25451 0.6756 0.26597 0.0
C596 C 0.24634 0.61806 0.25587 0.0
C597 C 0.31168 0.67503 0.25766 0.0
C598 C 0.22168 0.647 0.26508 0.0
N599 N 0.38676 0.5913 0.2315 0.0
C600 C 0.41322 0.56414 0.22202 0.0
C601 C 0.29955 0.56051 0.23839 0.0
C602 C 0.33046 0.59018 0.23882 0.0
C603 C 0.32741 0.53227 0.22975 0.0
C604 C 0.38434 0.53417 0.22135 0.0
H605 H 0.17746 0.6475 0.27165 0.0
H606 H 0.17111 0.58761 0.26163 0.0
H607 H 0.21766 0.53728 0.24641 0.0
O608 O 0.42792 0.63827 0.19069 0.0
O609 O 0.41366 0.61717 0.271 0.0
O610 O 0.50132 0.59402 0.27735 0.0
O611 O 0.3751 0.67475 0.21035 0.0
O612 O 0.51181 0.61852 0.21915 0.0
O613 O 0.55261 0.59448 0.25495 0.0
O614 O 0.55758 0.64114 0.32522 0.0
O615 O 0.58131 0.66367 0.24623 0.0
O616 O 0.49335 0.68539 0.23652 0.0
O617 O 0.61016 0.60315 0.30858 0.0
O618 O 0.48043 0.66163 0.2964 0.0
O619 O 0.44395 0.68622 0.25998 0.0
C620 C 0.44644 0.59558 0.28247 0.0
C621 C 0.36551 0.67363 0.16422 0.0
C622 C 0.3499 0.66971 0.11797 0.0
C623 C 0.31741 0.69857 0.11886 0.0
C624 C 0.33265 0.70249 0.16453 0.0
C625 C 0.30879 0.71478 0.14201 0.0
C626 C 0.37397 0.65705 0.14074 0.0
C627 C 0.54683 0.59718 0.22985 0.0
C628 C 0.38994 0.66161 0.18865 0.0
C629 C 0.21544 0.58857 0.25523 0.0
C630 C 0.242 0.55988 0.2466 0.0
C631 C 0.549 0.68375 0.23279 0.0
C632 C 0.64154 0.62572 0.34784 0.0
C633 C 0.67644 0.6289 0.39181 0.0
C634 C 0.7313 0.63717 0.38266 0.0
C635 C 0.69681 0.63399 0.33903 0.0
C636 C 0.63135 0.62339 0.37439 0.0
C637 C 0.74129 0.63983 0.35637 0.0
C638 C 0.44854 0.68396 0.28508 0.0
C639 C 0.59512 0.61815 0.32956 0.0
H640 H 0.29832 0.70848 0.10154 0.0
H641 H 0.32538 0.71576 0.18223 0.0
H642 H 0.28351 0.73697 0.1425 0.0
H643 H 0.39899 0.63472 0.14012 0.0
H644 H 0.76652 0.64121 0.39593 0.0
H645 H 0.70606 0.63537 0.31879 0.0
H646 H 0.5891 0.61659 0.38144 0.0
H647 H 0.78382 0.64597 0.3494 0.0
C648 C 0.12177 0.0178 0.30777 0.0
C649 C 0.11983 0.01947 0.33474 0.0
C650 C 0.09918 0.04281 0.2925 0.0
C651 C 0.07496 0.07105 0.30351 0.0
H652 H 0.14055 0.9968 0.29827 0.0
H653 H 0.09985 0.0395 0.27188 0.0
S654 S 0.05825 0.08725 0.37336 0.0
N655 N 0.0895 0.05108 0.37191 0.0
N656 N 0.05041 0.09914 0.34329 0.0
C657 C 0.07353 0.07331 0.33052 0.0
C658 C 0.09532 0.04738 0.34609 0.0
C659 C 0.41322 0.48964 0.81149 0.0
C660 C 0.37977 0.48168 0.83306 0.0
C661 C 0.43608 0.4651 0.7958 0.0
C662 C 0.42731 0.43198 0.80171 0.0
H663 H 0.42193 0.51498 0.80683 0.0
H664 H 0.46237 0.47202 0.77948 0.0
S665 S 0.34062 0.39861 0.85528 0.0
N666 N 0.33649 0.4387 0.85882 0.0
N667 N 0.38139 0.39236 0.82975 0.0
C668 C 0.39338 0.42372 0.823 0.0
C669 C 0.36904 0.4487 0.83862 0.0
C670 C 0.64258 0.48239 0.71329 0.0
C671 C 0.63106 0.48355 0.68677 0.0
C672 C 0.62079 0.45715 0.72862 0.0
C673 C 0.58778 0.43187 0.71801 0.0
H674 H 0.66787 0.50141 0.72236 0.0
H675 H 0.62785 0.45825 0.74901 0.0
S676 S 0.54433 0.4235 0.64993 0.0
N677 N 0.58273 0.45747 0.65071 0.0
N678 N 0.54438 0.40929 0.67961 0.0
C679 C 0.57647 0.43243 0.69159 0.0
C680 C 0.59781 0.45834 0.67592 0.0
C681 C 0.86413 0.05472 0.18123 0.0
C682 C 0.86844 0.02149 0.18776 0.0
C683 C 0.88812 0.07889 0.19711 0.0
C684 C 0.9182 0.07037 0.21953 0.0
H685 H 0.84244 0.06198 0.16373 0.0
H686 H 0.88475 0.10425 0.1914 0.0
S687 S 0.94042 0.98679 0.24501 0.0
N688 N 0.90296 0.98133 0.21839 0.0
N689 N 0.9506 0.02663 0.24753 0.0
C690 C 0.92271 0.03725 0.22618 0.0
C691 C 0.89709 0.01279 0.21043 0.0
C692 C 0.87427 0.95121 0.68066 0.0
C693 C 0.88535 0.98426 0.68606 0.0
C694 C 0.89651 0.92643 0.69644 0.0
C695 C 0.92904 0.93413 0.71837 0.0
H696 H 0.84905 0.94454 0.66397 0.0
H697 H 0.88808 0.90113 0.69154 0.0
S698 S 0.97012 0.01702 0.74043 0.0
N699 N 0.93135 0.02347 0.71434 0.0
N700 N 0.97162 0.97697 0.74444 0.0
C701 C 0.93942 0.96712 0.72412 0.0
C702 C 0.918 0.99222 0.70779 0.0
C703 C 0.61812 0.51806 0.20898 0.0
C704 C 0.61812 0.52048 0.18207 0.0
C705 C 0.59569 0.54313 0.22426 0.0
C706 C 0.57316 0.57184 0.21322 0.0
H707 H 0.63435 0.49625 0.2183 0.0
H708 H 0.59498 0.53953 0.24486 0.0
S709 S 0.56628 0.59065 0.14346 0.0
N710 N 0.59551 0.55393 0.1449 0.0
N711 N 0.55419 0.60148 0.17351 0.0
C712 C 0.57397 0.57475 0.18625 0.0
C713 C 0.59624 0.54899 0.17071 0.0
C714 C 0.42951 0.51678 0.31995 0.0
C715 C 0.37392 0.5193 0.33037 0.0
C716 C 0.45225 0.5415 0.30442 0.0
C717 C 0.42033 0.5698 0.29868 0.0
H718 H 0.45557 0.49534 0.32364 0.0
H719 H 0.49523 0.53821 0.29681 0.0
S720 S 0.27357 0.589 0.32234 0.0
N721 N 0.2879 0.55263 0.33452 0.0
N722 N 0.33087 0.59939 0.30548 0.0
C723 C 0.36469 0.57273 0.30907 0.0
C724 C 0.34142 0.5474 0.32484 0.0
C725 C 0.15629 0.95801 0.8233 0.0
C726 C 0.12444 0.98557 0.83095 0.0
C727 C 0.13128 0.93339 0.80821 0.0
C728 C 0.07358 0.9355 0.80013 0.0
H729 H 0.20043 0.95505 0.82953 0.0
H730 H 0.15703 0.91223 0.80339 0.0
S731 S 0.97399 0.0048 0.8127 0.0
N732 N 0.034 0.01498 0.82757 0.0
N733 N 0.9868 0.96888 0.79952 0.0
C734 C 0.042 0.96357 0.807 0.0
C735 C 0.06747 0.98855 0.8223 0.0
C736 C 0.18814 0.15582 0.05591 0.0
C737 C 0.17645 0.12706 0.04206 0.0
C738 C 0.18508 0.15641 0.08274 0.0
C739 C 0.16981 0.12835 0.09673 0.0
H740 H 0.20144 0.17782 0.04596 0.0
H741 H 0.19684 0.17867 0.09272 0.0
S742 S 0.13233 0.04728 0.06981 0.0
N743 N 0.1469 0.07003 0.0444 0.0
N744 N 0.14031 0.07145 0.09498 0.0
C745 C 0.15507 0.09989 0.08319 0.0
C746 C 0.15857 0.09916 0.05579 0.0
C747 C 0.32195 0.34752 0.55497 0.0
C748 C 0.3335 0.37621 0.54099 0.0
C749 C 0.32514 0.34711 0.58179 0.0
C750 C 0.34042 0.37527 0.59562 0.0
H751 H 0.30869 0.32544 0.54513 0.0
H752 H 0.31347 0.32491 0.59189 0.0
S753 S 0.37738 0.45623 0.56832 0.0
N754 N 0.36278 0.4333 0.54302 0.0
N755 N 0.36963 0.43221 0.5936 0.0
C756 C 0.35494 0.40368 0.58195 0.0
C757 C 0.3513 0.40423 0.55456 0.0
C758 C 0.63966 0.33686 0.9686 0.0
C759 C 0.66755 0.36599 0.9755 0.0
C760 C 0.63542 0.32745 0.9428 0.0
C761 C 0.65838 0.34704 0.92307 0.0
H762 H 0.62405 0.32035 0.98332 0.0
H763 H 0.61695 0.3038 0.93832 0.0
S764 S 0.72838 0.4278 0.9312 0.0
N765 N 0.71343 0.41589 0.9608 0.0
N766 N 0.70462 0.39848 0.91208 0.0
C767 C 0.68235 0.37745 0.92965 0.0
C768 C 0.68732 0.38682 0.95599 0.0
C769 C 0.79046 0.1287 0.45783 0.0
C770 C 0.83421 0.13468 0.47597 0.0
C771 C 0.79747 0.13714 0.43192 0.0
C772 C 0.84875 0.1514 0.4231 0.0
H773 H 0.7495 0.11867 0.46389 0.0
H774 H 0.7613 0.13429 0.41898 0.0
S775 S 0.97829 0.16978 0.46177 0.0
N776 N 0.93216 0.15425 0.48261 0.0
N777 N 0.94531 0.16913 0.43369 0.0
C778 C 0.89422 0.15546 0.44047 0.0
C779 C 0.88703 0.14727 0.46696 0.0
C780 C 0.89182 0.87695 0.96779 0.0
C781 C 0.83432 0.87856 0.97637 0.0
C782 C 0.9061 0.88248 0.94202 0.0
C783 C 0.8634 0.88919 0.92377 0.0
H784 H 0.9264 0.87245 0.98127 0.0
H785 H 0.95104 0.88268 0.93648 0.0
S786 S 0.70645 0.89361 0.93521 0.0
N787 N 0.73416 0.88599 0.9638 0.0
N788 N 0.76146 0.89506 0.91515 0.0
C789 C 0.80565 0.88893 0.93153 0.0
C790 C 0.79096 0.88381 0.95788 0.0
C791 C 0.65232 0.64906 0.46167 0.0
C792 C 0.67555 0.6215 0.47424 0.0
C793 C 0.64919 0.65061 0.43479 0.0
C794 C 0.66844 0.62451 0.41963 0.0
H795 H 0.63763 0.66994 0.47263 0.0
H796 H 0.63379 0.67283 0.42579 0.0
S797 S 0.72924 0.54612 0.44227 0.0
N798 N 0.71665 0.56703 0.46878 0.0
N799 N 0.70794 0.5698 0.41844 0.0
C800 C 0.68888 0.59627 0.43172 0.0
C801 C 0.69302 0.59475 0.45899 0.0
C802 C 0.38186 0.66091 0.04754 0.0
C803 C 0.34431 0.63561 0.04029 0.0
C804 C 0.38765 0.66995 0.07337 0.0
C805 C 0.35685 0.65363 0.09278 0.0
H806 H 0.40401 0.67514 0.03303 0.0
H807 H 0.41362 0.69113 0.07807 0.0
S808 S 0.25916 0.58296 0.084 0.0
N809 N 0.28022 0.59237 0.05459 0.0
N810 N 0.29189 0.6091 0.10331 0.0
C811 C 0.32264 0.62672 0.08596 0.0
C812 C 0.31607 0.61781 0.05962 0.0
C813 C 0.12203 0.8459 0.55072 0.0
C814 C 0.16401 0.86852 0.54258 0.0
C815 C 0.11537 0.83801 0.57673 0.0
C816 C 0.14969 0.85285 0.59558 0.0
H817 H 0.09588 0.83302 0.53678 0.0
H818 H 0.08572 0.81868 0.58198 0.0
S819 S 0.26141 0.91596 0.58515 0.0
N820 N 0.2377 0.90731 0.55604 0.0
N821 N 0.22344 0.89298 0.605 0.0
C822 C 0.18854 0.87728 0.58809 0.0
C823 C 0.19605 0.88507 0.56155 0.0
C824 C 0.14654 0.25359 0.307 0.0
C825 C 0.1352 0.25402 0.33355 0.0
C826 C 0.12127 0.23011 0.29094 0.0
C827 C 0.08357 0.20646 0.30083 0.0
H828 H 0.17484 0.27171 0.29856 0.0
H829 H 0.12962 0.23125 0.27061 0.0
S830 S 0.03845 0.19748 0.36872 0.0
N831 N 0.08323 0.2289 0.36894 0.0
N832 N 0.03529 0.18501 0.33858 0.0
C833 C 0.07168 0.20665 0.32726 0.0
C834 C 0.09783 0.2303 0.3437 0.0
C835 C 0.39507 0.2749 0.84222 0.0
C836 C 0.36904 0.247 0.83161 0.0
C837 C 0.42023 0.29892 0.82653 0.0
C838 C 0.42028 0.29624 0.79948 0.0
H839 H 0.39711 0.27789 0.86287 0.0
H840 H 0.44014 0.31972 0.83584 0.0
S841 S 0.3553 0.228 0.7623 0.0
N842 N 0.34224 0.21855 0.79252 0.0
N843 N 0.39097 0.26291 0.76304 0.0
C844 C 0.39344 0.26854 0.78868 0.0
C845 C 0.3676 0.24416 0.80471 0.0
C846 C 0.64745 0.27448 0.68642 0.0
C847 C 0.62633 0.24209 0.68677 0.0
C848 C 0.62304 0.29898 0.70178 0.0
C849 C 0.57808 0.29185 0.71884 0.0
H850 H 0.68368 0.28109 0.67443 0.0
H851 H 0.64015 0.32359 0.70064 0.0
S852 S 0.50396 0.21249 0.72676 0.0
N853 N 0.5532 0.20556 0.70456 0.0
N854 N 0.51222 0.25106 0.73527 0.0
C855 C 0.55672 0.2599 0.71982 0.0
C856 C 0.57964 0.23517 0.70337 0.0
C857 C 0.91576 0.26572 0.20175 0.0
C858 C 0.87138 0.25753 0.18433 0.0
C859 C 0.9407 0.24223 0.21785 0.0
C860 C 0.92431 0.20934 0.21634 0.0
H861 H 0.93214 0.29044 0.20288 0.0
H862 H 0.97434 0.24969 0.23102 0.0
S863 S 0.80826 0.17448 0.17621 0.0
N864 N 0.80878 0.21376 0.16887 0.0
N865 N 0.86028 0.16941 0.1974 0.0
C866 C 0.88048 0.20049 0.19928 0.0
C867 C 0.85309 0.22457 0.18363 0.0
C868 C 0.92938 0.74427 0.68943 0.0
C869 C 0.87291 0.74892 0.6805 0.0
C870 C 0.95576 0.76732 0.70556 0.0
C871 C 0.92666 0.79591 0.71317 0.0
H872 H 0.9527 0.72223 0.68449 0.0
H873 H 0.9988 0.76232 0.71249 0.0
S874 S 0.78063 0.82123 0.69211 0.0
N875 N 0.79028 0.78507 0.67876 0.0
N876 N 0.84015 0.82889 0.70831 0.0
C877 C 0.87096 0.80137 0.70343 0.0
C878 C 0.84401 0.77775 0.68731 0.0
C879 C 0.66487 0.73403 0.19935 0.0
C880 C 0.63325 0.75557 0.18371 0.0
C881 C 0.63742 0.71065 0.21474 0.0
C882 C 0.57703 0.7081 0.21558 0.0
H883 H 0.71144 0.73504 0.19955 0.0
H884 H 0.66408 0.69451 0.22602 0.0
S885 S 0.47415 0.75808 0.17754 0.0
N886 N 0.53808 0.77246 0.16957 0.0
N887 N 0.48641 0.7285 0.19837 0.0
C888 C 0.54481 0.72918 0.19968 0.0
C889 C 0.57288 0.75288 0.18383 0.0
C890 C 0.37111 0.7241 0.34087 0.0
C891 C 0.36797 0.75697 0.33311 0.0
C892 C 0.39736 0.70053 0.32519 0.0
C893 C 0.421 0.7091 0.30124 0.0
H894 H 0.35231 0.71651 0.35896 0.0
H895 H 0.39837 0.67536 0.33166 0.0
S896 S 0.42929 0.79249 0.27358 0.0
N897 N 0.39436 0.79731 0.30095 0.0
N898 N 0.44326 0.75302 0.27139 0.0
C899 C 0.41912 0.74199 0.29354 0.0
C900 C 0.39275 0.76594 0.30953 0.0
C901 C 0.12202 0.73901 0.80802 0.0
C902 C 0.13926 0.74608 0.83335 0.0
C903 C 0.09439 0.76252 0.79279 0.0
C904 C 0.08266 0.79397 0.80236 0.0
H905 H 0.12928 0.71494 0.79999 0.0
H906 H 0.08128 0.75583 0.77353 0.0
S907 S 0.12363 0.82588 0.86645 0.0
N908 N 0.14596 0.78756 0.86664 0.0
N909 N 0.09338 0.83161 0.83812 0.0
C910 C 0.10044 0.80156 0.82746 0.0
C911 C 0.12884 0.77767 0.84293 0.0
loop_
_geom_bond_atom_site_label_1
_geom_bond_atom_site_label_2
_geom_bond_distance
_geom_bond_site_symmetry_2
_ccdc_geom_bond_type
C0 C1 1.386 . S
C0 C2 1.397 . S
C0 H24 0.931 . S
C1 C0 1.386 . S
C1 C5 1.397 . S
C2 C0 1.397 . S
C2 C3 1.384 . S
C2 H25 0.930 . S
C3 C2 1.384 . S
C3 C4 1.377 . S
C3 C6 1.481 . S
C4 C3 1.377 . S
C4 C5 1.389 . S
C4 H26 0.929 . S
C5 C1 1.397 . S
C5 C4 1.389 . S
C5 H27 0.931 . S
C6 C3 1.481 . S
C6 C7 1.387 . S
C6 C11 1.390 . S
C7 C6 1.387 . S
C7 C8 1.401 . S
C7 H28 0.930 . S
C8 C7 1.401 . S
C8 C9 1.376 . S
C8 C17 1.511 . S
C9 C8 1.376 . S
C9 C10 1.392 . S
C9 H30 0.931 . S
C10 C9 1.392 . S
C10 C11 1.361 . S
C10 C12 1.500 . S
C11 C6 1.390 . S
C11 C10 1.361 . S
C11 H29 0.931 . S
C12 C10 1.500 . S
C12 C13 1.371 . S
C12 C14 1.365 . S
C13 C12 1.371 . S
C13 C23 1.386 . S
C13 H31 0.931 . S
C14 C12 1.365 . S
C14 C15 1.409 . S
C14 H32 0.929 . S
C15 C14 1.409 . S
C15 C16 1.380 . S
C15 H33 0.930 . S
C16 C15 1.380 . S
C16 C23 1.357 . S
C17 C8 1.511 . S
C17 C18 1.341 . S
C17 C19 1.371 . S
C18 C17 1.341 . S
C18 C22 1.394 . S
C18 H34 0.930 . S
C19 C17 1.371 . S
C19 C20 1.392 . S
C19 H35 0.931 . S
C20 C19 1.392 . S
C20 C21 1.331 . S
C20 H38 0.932 . S
C21 C20 1.331 . S
C21 C22 1.336 . S
C22 C18 1.394 . S
C22 C21 1.336 . S
C22 H37 0.929 . S
C23 C13 1.386 . S
C23 C16 1.357 . S
C23 H36 0.928 . S
H24 C0 0.931 . S
H25 C2 0.930 . S
H26 C4 0.929 . S
H27 C5 0.931 . S
H28 C7 0.930 . S
H29 C11 0.931 . S
H30 C9 0.931 . S
H31 C13 0.931 . S
H32 C14 0.929 . S
H33 C15 0.930 . S
H34 C18 0.930 . S
H35 C19 0.931 . S
H36 C23 0.928 . S
H37 C22 0.929 . S
H38 C20 0.932 . S
C39 C40 1.386 . S
C39 C41 1.397 . S
C39 H63 0.931 . S
C40 C39 1.386 . S
C40 C44 1.397 . S
C41 C39 1.397 . S
C41 C42 1.384 . S
C41 H64 0.930 . S
C42 C41 1.384 . S
C42 C43 1.377 . S
C42 C45 1.481 . S
C43 C42 1.377 . S
C43 C44 1.389 . S
C43 H65 0.929 . S
C44 C40 1.397 . S
C44 C43 1.389 . S
C44 H66 0.931 . S
C45 C42 1.481 . S
C45 C46 1.387 . S
C45 C50 1.390 . S
C46 C45 1.387 . S
C46 C47 1.401 . S
C46 H67 0.930 . S
C47 C46 1.401 . S
C47 C48 1.376 . S
C47 C56 1.511 . S
C48 C47 1.376 . S
C48 C49 1.392 . S
C48 H69 0.931 . S
C49 C48 1.392 . S
C49 C50 1.361 . S
C49 C51 1.500 . S
C50 C45 1.390 . S
C50 C49 1.361 . S
C50 H68 0.931 . S
C51 C49 1.500 . S
C51 C52 1.371 . S
C51 C53 1.365 . S
C52 C51 1.371 . S
C52 C62 1.386 . S
C52 H70 0.931 . S
C53 C51 1.365 . S
C53 C54 1.409 . S
C53 H71 0.929 . S
C54 C53 1.409 . S
C54 C55 1.380 1_556 S
C54 H72 0.930 . S
C55 C54 1.380 1_554 S
C55 C62 1.357 1_554 S
C56 C47 1.511 . S
C56 C57 1.341 . S
C56 C58 1.371 . S
C57 C56 1.341 . S
C57 C61 1.394 . S
C57 H73 0.930 . S
C58 C56 1.371 . S
C58 C59 1.392 . S
C58 H74 0.931 . S
C59 C58 1.392 . S
C59 C60 1.331 . S
C59 H77 0.932 . S
C60 C59 1.331 . S
C60 C61 1.336 . S
C61 C57 1.394 . S
C61 C60 1.336 . S
C61 H76 0.929 . S
C62 C52 1.386 . S
C62 C55 1.357 1_556 S
C62 H75 0.928 1_556 S
H63 C39 0.931 . S
H64 C41 0.930 . S
H65 C43 0.929 . S
H66 C44 0.931 . S
H67 C46 0.930 . S
H68 C50 0.931 . S
H69 C48 0.931 . S
H70 C52 0.931 . S
H71 C53 0.929 . S
H72 C54 0.930 . S
H73 C57 0.930 . S
H74 C58 0.931 . S
H75 C62 0.928 1_554 S
H76 C61 0.929 . S
H77 C59 0.932 . S
C78 C79 1.386 . S
C78 C80 1.397 . S
C78 H102 0.931 . S
C79 C78 1.386 . S
C79 C83 1.397 . S
C80 C78 1.397 . S
C80 C81 1.384 . S
C80 H103 0.930 . S
C81 C80 1.384 . S
C81 C82 1.377 . S
C81 C84 1.481 . S
C82 C81 1.377 . S
C82 C83 1.389 . S
C82 H104 0.929 . S
C83 C79 1.397 . S
C83 C82 1.389 . S
C83 H105 0.931 . S
C84 C81 1.481 . S
C84 C85 1.387 . S
C84 C89 1.390 . S
C85 C84 1.387 . S
C85 C86 1.401 . S
C85 H106 0.930 . S
C86 C85 1.401 . S
C86 C87 1.376 . S
C86 C95 1.511 . S
C87 C86 1.376 . S
C87 C88 1.392 . S
C87 H108 0.931 . S
C88 C87 1.392 . S
C88 C89 1.361 . S
C88 C90 1.500 . S
C89 C84 1.390 . S
C89 C88 1.361 . S
C89 H107 0.931 . S
C90 C88 1.500 . S
C90 C91 1.371 . S
C90 C92 1.365 . S
C91 C90 1.371 . S
C91 C101 1.386 . S
C91 H109 0.931 . S
C92 C90 1.365 . S
C92 C93 1.409 . S
C92 H110 0.929 . S
C93 C92 1.409 . S
C93 C94 1.380 . S
C93 H111 0.930 . S
C94 C93 1.380 . S
C94 C101 1.357 . S
C95 C86 1.511 . S
C95 C96 1.341 . S
C95 C97 1.371 . S
C96 C95 1.341 . S
C96 C100 1.394 . S
C96 H112 0.930 . S
C97 C95 1.371 . S
C97 C98 1.392 . S
C97 H113 0.931 . S
C98 C97 1.392 . S
C98 C99 1.331 . S
C98 H116 0.932 . S
C99 C98 1.331 . S
C99 C100 1.336 . S
C100 C96 1.394 . S
C100 C99 1.336 . S
C100 H115 0.929 . S
C101 C91 1.386 . S
C101 C94 1.357 . S
C101 H114 0.928 . S
H102 C78 0.931 . S
H103 C80 0.930 . S
H104 C82 0.929 . S
H105 C83 0.931 . S
H106 C85 0.930 . S
H107 C89 0.931 . S
H108 C87 0.931 . S
H109 C91 0.931 . S
H110 C92 0.929 . S
H111 C93 0.930 . S
H112 C96 0.930 . S
H113 C97 0.931 . S
H114 C101 0.928 . S
H115 C100 0.929 . S
H116 C98 0.932 . S
C117 C118 1.386 . S
C117 C119 1.397 . S
C117 H141 0.931 . S
C118 C117 1.386 . S
C118 C122 1.397 . S
C119 C117 1.397 . S
C119 C120 1.384 . S
C119 H142 0.930 . S
C120 C119 1.384 . S
C120 C121 1.377 . S
C120 C123 1.481 . S
C121 C120 1.377 . S
C121 C122 1.389 . S
C121 H143 0.929 . S
C122 C118 1.397 . S
C122 C121 1.389 . S
C122 H144 0.931 . S
C123 C120 1.481 . S
C123 C124 1.387 . S
C123 C128 1.390 . S
C124 C123 1.387 . S
C124 C125 1.401 . S
C124 H145 0.930 . S
C125 C124 1.401 . S
C125 C126 1.376 . S
C125 C134 1.511 . S
C126 C125 1.376 . S
C126 C127 1.392 . S
C126 H147 0.931 . S
C127 C126 1.392 . S
C127 C128 1.361 . S
C127 C129 1.500 . S
C128 C123 1.390 . S
C128 C127 1.361 . S
C128 H146 0.931 . S
C129 C127 1.500 . S
C129 C130 1.371 . S
C129 C131 1.365 . S
C130 C129 1.371 . S
C130 C140 1.386 . S
C130 H148 0.931 . S
C131 C129 1.365 . S
C131 C132 1.409 . S
C131 H149 0.929 . S
C132 C131 1.409 . S
C132 C133 1.380 1_554 S
C132 H150 0.930 . S
C133 C132 1.380 1_556 S
C133 C140 1.357 1_556 S
C134 C125 1.511 . S
C134 C135 1.341 . S
C134 C136 1.371 . S
C135 C134 1.341 . S
C135 C139 1.394 . S
C135 H151 0.930 . S
C136 C134 1.371 . S
C136 C137 1.392 . S
C136 H152 0.931 . S
C137 C136 1.392 . S
C137 C138 1.331 . S
C137 H155 0.932 . S
C138 C137 1.331 . S
C138 C139 1.336 . S
C139 C135 1.394 . S
C139 C138 1.336 . S
C139 H154 0.929 . S
C140 C130 1.386 . S
C140 C133 1.357 1_554 S
C140 H153 0.928 1_554 S
H141 C117 0.931 . S
H142 C119 0.930 . S
H143 C121 0.929 . S
H144 C122 0.931 . S
H145 C124 0.930 . S
H146 C128 0.931 . S
H147 C126 0.931 . S
H148 C130 0.931 . S
H149 C131 0.929 . S
H150 C132 0.930 . S
H151 C135 0.930 . S
H152 C136 0.931 . S
H153 C140 0.928 1_556 S
H154 C139 0.929 . S
H155 C137 0.932 . S
C156 C157 1.386 . S
C156 C158 1.397 . S
C156 H180 0.931 . S
C157 C156 1.386 . S
C157 C161 1.397 . S
C158 C156 1.397 . S
C158 C159 1.384 . S
C158 H181 0.930 . S
C159 C158 1.384 . S
C159 C160 1.377 . S
C159 C162 1.481 . S
C160 C159 1.377 . S
C160 C161 1.389 . S
C160 H182 0.929 . S
C161 C157 1.397 . S
C161 C160 1.389 . S
C161 H183 0.931 . S
C162 C159 1.481 . S
C162 C163 1.387 . S
C162 C167 1.390 . S
C163 C162 1.387 . S
C163 C164 1.401 . S
C163 H184 0.930 . S
C164 C163 1.401 . S
C164 C165 1.376 . S
C164 C173 1.511 . S
C165 C164 1.376 . S
C165 C166 1.392 . S
C165 H186 0.931 . S
C166 C165 1.392 . S
C166 C167 1.361 . S
C166 C168 1.500 . S
C167 C162 1.390 . S
C167 C166 1.361 . S
C167 H185 0.931 . S
C168 C166 1.500 . S
C168 C169 1.371 . S
C168 C170 1.365 . S
C169 C168 1.371 . S
C169 C179 1.386 . S
C169 H187 0.931 . S
C170 C168 1.365 . S
C170 C171 1.409 . S
C170 H188 0.929 . S
C171 C170 1.409 . S
C171 C172 1.380 . S
C171 H189 0.930 . S
C172 C171 1.380 . S
C172 C179 1.357 . S
C173 C164 1.511 . S
C173 C174 1.341 . S
C173 C175 1.371 . S
C174 C173 1.341 . S
C174 C178 1.394 . S
C174 H190 0.930 . S
C175 C173 1.371 . S
C175 C176 1.392 . S
C175 H191 0.931 . S
C176 C175 1.392 . S
C176 C177 1.331 . S
C176 H194 0.932 . S
C177 C176 1.331 . S
C177 C178 1.336 . S
C178 C174 1.394 . S
C178 C177 1.336 . S
C178 H193 0.929 . S
C179 C169 1.386 . S
C179 C172 1.357 . S
C179 H192 0.928 . S
H180 C156 0.931 . S
H181 C158 0.930 . S
H182 C160 0.929 . S
H183 C161 0.931 . S
H184 C163 0.930 . S
H185 C167 0.931 . S
H186 C165 0.931 . S
H187 C169 0.931 . S
H188 C170 0.929 . S
H189 C171 0.930 . S
H190 C174 0.930 . S
H191 C175 0.931 . S
H192 C179 0.928 . S
H193 C178 0.929 . S
H194 C176 0.932 . S
C195 C196 1.386 1_554 S
C195 C197 1.397 . S
C195 H219 0.931 1_554 S
C196 C195 1.386 1_556 S
C196 C200 1.397 1_556 S
C197 C195 1.397 . S
C197 C198 1.384 . S
C197 H220 0.930 . S
C198 C197 1.384 . S
C198 C199 1.377 . S
C198 C201 1.481 . S
C199 C198 1.377 . S
C199 C200 1.389 . S
C199 H221 0.929 . S
C200 C196 1.397 1_554 S
C200 C199 1.389 . S
C200 H222 0.931 . S
C201 C198 1.481 . S
C201 C202 1.387 . S
C201 C206 1.390 . S
C202 C201 1.387 . S
C202 C203 1.401 . S
C202 H223 0.930 . S
C203 C202 1.401 . S
C203 C204 1.376 . S
C203 C212 1.511 . S
C204 C203 1.376 . S
C204 C205 1.392 . S
C204 H225 0.931 . S
C205 C204 1.392 . S
C205 C206 1.361 . S
C205 C207 1.500 . S
C206 C201 1.390 . S
C206 C205 1.361 . S
C206 H224 0.931 . S
C207 C205 1.500 . S
C207 C208 1.371 . S
C207 C209 1.365 . S
C208 C207 1.371 . S
C208 C218 1.386 . S
C208 H226 0.931 . S
C209 C207 1.365 . S
C209 C210 1.409 . S
C209 H227 0.929 . S
C210 C209 1.409 . S
C210 C211 1.380 . S
C210 H228 0.930 . S
C211 C210 1.380 . S
C211 C218 1.357 . S
C212 C203 1.511 . S
C212 C213 1.341 . S
C212 C214 1.371 . S
C213 C212 1.341 . S
C213 C217 1.394 . S
C213 H229 0.930 . S
C214 C212 1.371 . S
C214 C215 1.392 . S
C214 H230 0.931 . S
C215 C214 1.392 . S
C215 C216 1.331 . S
C215 H233 0.932 . S
C216 C215 1.331 . S
C216 C217 1.336 . S
C217 C213 1.394 . S
C217 C216 1.336 . S
C217 H232 0.929 . S
C218 C208 1.386 . S
C218 C211 1.357 . S
C218 H231 0.928 . S
H219 C195 0.931 1_556 S
H220 C197 0.930 . S
H221 C199 0.929 . S
H222 C200 0.931 . S
H223 C202 0.930 . S
H224 C206 0.931 . S
H225 C204 0.931 . S
H226 C208 0.931 . S
H227 C209 0.929 . S
H228 C210 0.930 . S
H229 C213 0.930 . S
H230 C214 0.931 . S
H231 C218 0.928 . S
H232 C217 0.929 . S
H233 C215 0.932 . S
C234 C235 1.386 . S
C234 C236 1.397 . S
C234 H258 0.931 . S
C235 C234 1.386 . S
C235 C239 1.397 . S
C236 C234 1.397 . S
C236 C237 1.384 . S
C236 H259 0.930 . S
C237 C236 1.384 . S
C237 C238 1.377 . S
C237 C240 1.481 . S
C238 C237 1.377 . S
C238 C239 1.389 . S
C238 H260 0.929 . S
C239 C235 1.397 . S
C239 C238 1.389 . S
C239 H261 0.931 1_565 S
C240 C237 1.481 . S
C240 C241 1.387 . S
C240 C245 1.390 . S
C241 C240 1.387 . S
C241 C242 1.401 . S
C241 H262 0.930 . S
C242 C241 1.401 . S
C242 C243 1.376 . S
C242 C251 1.511 . S
C243 C242 1.376 . S
C243 C244 1.392 . S
C243 H264 0.931 . S
C244 C243 1.392 . S
C244 C245 1.361 . S
C244 C246 1.500 . S
C245 C240 1.390 . S
C245 C244 1.361 . S
C245 H263 0.931 . S
C246 C244 1.500 . S
C246 C247 1.371 . S
C246 C248 1.365 . S
C247 C246 1.371 . S
C247 C257 1.386 . S
C247 H265 0.931 . S
C248 C246 1.365 . S
C248 C249 1.409 . S
C248 H266 0.929 . S
C249 C248 1.409 . S
C249 C250 1.380 . S
C249 H267 0.930 . S
C250 C249 1.380 . S
C250 C257 1.357 . S
C251 C242 1.511 . S
C251 C252 1.341 . S
C251 C253 1.371 . S
C252 C251 1.341 . S
C252 C256 1.394 . S
C252 H268 0.930 . S
C253 C251 1.371 . S
C253 C254 1.392 . S
C253 H269 0.931 . S
C254 C253 1.392 . S
C254 C255 1.331 . S
C254 H272 0.932 . S
C255 C254 1.331 . S
C255 C256 1.336 . S
C256 C252 1.394 . S
C256 C255 1.336 . S
C256 H271 0.929 . S
C257 C247 1.386 . S
C257 C250 1.357 . S
C257 H270 0.928 . S
H258 C234 0.931 . S
H259 C236 0.930 . S
H260 C238 0.929 . S
H261 C239 0.931 1_545 S
H262 C241 0.930 . S
H263 C245 0.931 . S
H264 C243 0.931 . S
H265 C247 0.931 . S
H266 C248 0.929 . S
H267 C249 0.930 . S
H268 C252 0.930 . S
H269 C253 0.931 . S
H270 C257 0.928 . S
H271 C256 0.929 . S
H272 C254 0.932 . S
C273 C274 1.386 1_556 S
C273 C275 1.397 . S
C273 H297 0.931 1_556 S
C274 C273 1.386 1_554 S
C274 C278 1.397 1_554 S
C275 C273 1.397 . S
C275 C276 1.384 . S
C275 H298 0.930 . S
C276 C275 1.384 . S
C276 C277 1.377 . S
C276 C279 1.481 . S
C277 C276 1.377 . S
C277 C278 1.389 . S
C277 H299 0.929 . S
C278 C274 1.397 1_556 S
C278 C277 1.389 . S
C278 H300 0.931 . S
C279 C276 1.481 . S
C279 C280 1.387 . S
C279 C284 1.390 . S
C280 C279 1.387 . S
C280 C281 1.401 . S
C280 H301 0.930 . S
C281 C280 1.401 . S
C281 C282 1.376 . S
C281 C290 1.511 . S
C282 C281 1.376 . S
C282 C283 1.392 . S
C282 H303 0.931 . S
C283 C282 1.392 . S
C283 C284 1.361 . S
C283 C285 1.500 . S
C284 C279 1.390 . S
C284 C283 1.361 . S
C284 H302 0.931 . S
C285 C283 1.500 . S
C285 C286 1.371 . S
C285 C287 1.365 . S
C286 C285 1.371 . S
C286 C296 1.386 . S
C286 H304 0.931 . S
C287 C285 1.365 . S
C287 C288 1.409 . S
C287 H305 0.929 . S
C288 C287 1.409 . S
C288 C289 1.380 . S
C288 H306 0.930 . S
C289 C288 1.380 . S
C289 C296 1.357 . S
C290 C281 1.511 . S
C290 C291 1.341 . S
C290 C292 1.371 . S
C291 C290 1.341 . S
C291 C295 1.394 . S
C291 H307 0.930 . S
C292 C290 1.371 . S
C292 C293 1.392 . S
C292 H308 0.931 . S
C293 C292 1.392 . S
C293 C294 1.331 . S
C293 H311 0.932 . S
C294 C293 1.331 . S
C294 C295 1.336 . S
C295 C291 1.394 . S
C295 C294 1.336 . S
C295 H310 0.929 . S
C296 C286 1.386 . S
C296 C289 1.357 . S
C296 H309 0.928 . S
H297 C273 0.931 1_554 S
H298 C275 0.930 . S
H299 C277 0.929 . S
H300 C278 0.931 . S
H301 C280 0.930 . S
H302 C284 0.931 . S
H303 C282 0.931 . S
H304 C286 0.931 . S
H305 C287 0.929 . S
H306 C288 0.930 . S
H307 C291 0.930 . S
H308 C292 0.931 . S
H309 C296 0.928 . S
H310 C295 0.929 . S
H311 C293 0.932 . S
Eu312 N341 2.600 . S
Eu312 N347 2.562 . S
Eu312 O356 2.462 . S
Eu312 O357 2.373 . S
Eu312 O359 2.432 . S
Eu312 O360 2.291 . S
Eu312 O364 2.335 . S
Eu312 O367 2.372 . S
Eu312 C376 2.787 . S
C313 N314 1.365 . S
C313 C316 1.405 . S
C313 C320 1.448 . S
N314 C313 1.365 . S
N314 C317 1.319 . S
N314 Eu323 2.600 . S
C315 C317 1.397 . S
C315 C318 1.367 . S
C315 H335 0.931 . S
C316 C313 1.405 . S
C316 C318 1.403 . S
C316 C322 1.439 . S
C317 N314 1.319 . S
C317 C315 1.397 . S
C317 H328 0.930 . S
C318 C315 1.367 . S
C318 C316 1.403 . S
C318 H339 0.929 . S
C319 C320 1.430 . S
C319 C321 1.387 . S
C319 C325 1.404 . S
C320 C313 1.448 . S
C320 C319 1.430 . S
C320 N324 1.351 . S
C321 C319 1.387 . S
C321 C322 1.374 . S
C321 H336 0.931 . S
C322 C316 1.439 . S
C322 C321 1.374 . S
C322 H337 0.931 . S
Eu323 N314 2.600 . S
Eu323 N324 2.562 . S
Eu323 O358 2.335 1_655 S
Eu323 O361 2.372 . S
Eu323 O362 2.462 . S
Eu323 O363 2.373 . S
Eu323 O365 2.432 . S
Eu323 O366 2.291 1_655 S
Eu323 C387 2.787 . S
N324 C320 1.351 . S
N324 Eu323 2.562 . S
N324 C326 1.325 . S
C325 C319 1.404 . S
C325 C327 1.366 . S
C325 H333 0.930 . S
C326 N324 1.325 . S
C326 C327 1.416 . S
C326 H332 0.929 . S
C327 C325 1.366 . S
C327 C326 1.416 . S
C327 H329 0.930 . S
H328 C317 0.930 . S
H329 C327 0.930 . S
H330 C345 0.930 . S
H331 C352 0.930 . S
H332 C326 0.929 . S
H333 C325 0.930 . S
H334 C348 0.929 . S
H335 C315 0.931 . S
H336 C321 0.931 . S
H337 C322 0.931 . S
H338 C343 0.931 . S
H339 C318 0.929 . S
H340 C351 0.930 . S
N341 Eu312 2.600 . S
N341 C342 1.365 . S
N341 C345 1.319 . S
C342 N341 1.365 . S
C342 C344 1.405 . S
C342 C350 1.448 . S
C343 H338 0.931 . S
C343 C345 1.397 . S
C343 C346 1.367 . S
C344 C342 1.405 . S
C344 C346 1.403 . S
C344 C377 1.439 . S
C345 H330 0.930 . S
C345 N341 1.319 . S
C345 C343 1.397 . S
C346 C343 1.367 . S
C346 C344 1.403 . S
C346 H353 0.929 . S
N347 Eu312 2.562 . S
N347 C348 1.325 . S
N347 C350 1.351 . S
C348 H334 0.929 . S
C348 N347 1.325 . S
C348 C352 1.416 . S
C349 C350 1.430 . S
C349 C351 1.404 . S
C349 C378 1.387 . S
C350 C342 1.448 . S
C350 N347 1.351 . S
C350 C349 1.430 . S
C351 H340 0.930 . S
C351 C349 1.404 . S
C351 C352 1.366 . S
C352 H331 0.930 . S
C352 C348 1.416 . S
C352 C351 1.366 . S
H353 C346 0.929 . S
H354 C377 0.931 . S
H355 C378 0.931 . S
O356 Eu312 2.462 . S
O356 C376 1.252 . S
O357 Eu312 2.373 . S
O357 C368 1.249 . S
O358 Eu323 2.335 1_455 S
O358 C368 1.264 . S
O359 Eu312 2.432 . S
O359 C376 1.268 . S
O360 Eu312 2.291 . S
O360 C375 1.255 1_455 S
O361 Eu323 2.372 . S
O361 C375 1.257 . S
O362 Eu323 2.462 . S
O362 C387 1.252 . S
O363 Eu323 2.373 . S
O363 C379 1.249 . S
O364 Eu312 2.335 . S
O364 C379 1.264 1_455 S
O365 Eu323 2.432 . S
O365 C387 1.268 . S
O366 Eu323 2.291 1_455 S
O366 C386 1.255 . S
O367 Eu312 2.372 . S
O367 C386 1.257 . S
C368 O357 1.249 . S
C368 O358 1.264 . S
C369 C372 1.382 . S
C369 C374 1.390 . S
C369 C376 1.506 . S
C370 C371 1.398 . S
C370 C374 1.392 . S
C371 C370 1.398 . S
C371 C373 1.372 . S
C371 H388 0.931 . S
C372 C369 1.382 . S
C372 C373 1.390 . S
C372 H389 0.931 . S
C373 C371 1.372 . S
C373 C372 1.390 . S
C373 H390 0.929 . S
C374 C369 1.390 . S
C374 C370 1.392 . S
C374 H391 0.930 . S
C375 O360 1.255 1_655 S
C375 O361 1.257 . S
C376 Eu312 2.787 . S
C376 O356 1.252 . S
C376 O359 1.268 . S
C376 C369 1.506 . S
C377 C344 1.439 . S
C377 H354 0.931 . S
C377 C378 1.374 . S
C378 C349 1.387 . S
C378 H355 0.931 . S
C378 C377 1.374 . S
C379 O363 1.249 . S
C379 O364 1.264 1_655 S
C380 C383 1.382 . S
C380 C384 1.390 . S
C380 C387 1.506 . S
C381 C382 1.398 . S
C381 C384 1.392 . S
C382 C381 1.398 . S
C382 C385 1.372 . S
C382 H392 0.931 . S
C383 C380 1.382 . S
C383 C385 1.390 . S
C383 H393 0.931 . S
C384 C380 1.390 . S
C384 C381 1.392 . S
C384 H394 0.930 . S
C385 C382 1.372 . S
C385 C383 1.390 . S
C385 H395 0.929 . S
C386 O366 1.255 . S
C386 O367 1.257 . S
C387 Eu323 2.787 . S
C387 O362 1.252 . S
C387 O365 1.268 . S
C387 C380 1.506 . S
H388 C371 0.931 . S
H389 C372 0.931 . S
H390 C373 0.929 . S
H391 C374 0.930 . S
H392 C382 0.931 . S
H393 C383 0.931 . S
H394 C384 0.930 . S
H395 C385 0.929 . S
Eu396 N425 2.600 . S
Eu396 N431 2.562 . S
Eu396 O440 2.462 . S
Eu396 O441 2.373 . S
Eu396 O443 2.432 . S
Eu396 O444 2.291 . S
Eu396 O448 2.335 . S
Eu396 O451 2.372 . S
Eu396 C460 2.787 . S
C397 N398 1.365 . S
C397 C400 1.405 . S
C397 C404 1.448 . S
N398 C397 1.365 . S
N398 C401 1.319 . S
N398 Eu407 2.600 . S
C399 C401 1.397 . S
C399 C402 1.367 . S
C399 H419 0.931 . S
C400 C397 1.405 . S
C400 C402 1.403 . S
C400 C406 1.439 . S
C401 N398 1.319 . S
C401 C399 1.397 . S
C401 H412 0.930 . S
C402 C399 1.367 . S
C402 C400 1.403 . S
C402 H423 0.929 . S
C403 C404 1.430 . S
C403 C405 1.387 . S
C403 C409 1.404 . S
C404 C397 1.448 . S
C404 C403 1.430 . S
C404 N408 1.351 . S
C405 C403 1.387 . S
C405 C406 1.374 . S
C405 H420 0.931 . S
C406 C400 1.439 . S
C406 C405 1.374 . S
C406 H421 0.931 . S
Eu407 N398 2.600 . S
Eu407 N408 2.562 . S
Eu407 O442 2.335 . S
Eu407 O445 2.372 . S
Eu407 O446 2.462 . S
Eu407 O447 2.373 . S
Eu407 O449 2.432 . S
Eu407 O450 2.291 . S
Eu407 C471 2.787 . S
N408 C404 1.351 . S
N408 Eu407 2.562 . S
N408 C410 1.325 . S
C409 C403 1.404 . S
C409 C411 1.366 . S
C409 H417 0.930 . S
C410 N408 1.325 . S
C410 C411 1.416 . S
C410 H416 0.929 . S
C411 C409 1.366 . S
C411 C410 1.416 . S
C411 H413 0.930 . S
H412 C401 0.930 . S
H413 C411 0.930 . S
H414 C429 0.930 . S
H415 C436 0.930 . S
H416 C410 0.929 . S
H417 C409 0.930 . S
H418 C432 0.929 . S
H419 C399 0.931 . S
H420 C405 0.931 . S
H421 C406 0.931 . S
H422 C427 0.931 . S
H423 C402 0.929 . S
H424 C435 0.930 . S
N425 Eu396 2.600 . S
N425 C426 1.365 . S
N425 C429 1.319 . S
C426 N425 1.365 . S
C426 C428 1.405 . S
C426 C434 1.448 . S
C427 H422 0.931 . S
C427 C429 1.397 . S
C427 C430 1.367 . S
C428 C426 1.405 . S
C428 C430 1.403 . S
C428 C461 1.439 . S
C429 H414 0.930 . S
C429 N425 1.319 . S
C429 C427 1.397 . S
C430 C427 1.367 . S
C430 C428 1.403 . S
C430 H437 0.929 . S
N431 Eu396 2.562 . S
N431 C432 1.325 . S
N431 C434 1.351 . S
C432 H418 0.929 . S
C432 N431 1.325 . S
C432 C436 1.416 . S
C433 C434 1.430 . S
C433 C435 1.404 . S
C433 C462 1.387 . S
C434 C426 1.448 . S
C434 N431 1.351 . S
C434 C433 1.430 . S
C435 H424 0.930 . S
C435 C433 1.404 . S
C435 C436 1.366 . S
C436 H415 0.930 . S
C436 C432 1.416 . S
C436 C435 1.366 . S
H437 C430 0.929 . S
H438 C461 0.931 . S
H439 C462 0.931 . S
O440 Eu396 2.462 . S
O440 C460 1.252 . S
O441 Eu396 2.373 . S
O441 C452 1.249 . S
O442 Eu407 2.335 . S
O442 C452 1.264 . S
O443 Eu396 2.432 . S
O443 C460 1.268 . S
O444 Eu396 2.291 . S
O444 C459 1.255 . S
O445 Eu407 2.372 . S
O445 C459 1.257 . S
O446 Eu407 2.462 . S
O446 C471 1.252 . S
O447 Eu407 2.373 . S
O447 C463 1.249 . S
O448 Eu396 2.335 . S
O448 C463 1.264 . S
O449 Eu407 2.432 . S
O449 C471 1.268 . S
O450 Eu407 2.291 . S
O450 C470 1.255 . S
O451 Eu396 2.372 . S
O451 C470 1.257 . S
C452 O441 1.249 . S
C452 O442 1.264 . S
C453 C456 1.382 . S
C453 C458 1.390 . S
C453 C460 1.506 . S
C454 C455 1.398 . S
C454 C458 1.392 . S
C455 C454 1.398 . S
C455 C457 1.372 . S
C455 H472 0.931 . S
C456 C453 1.382 . S
C456 C457 1.390 . S
C456 H473 0.931 . S
C457 C455 1.372 . S
C457 C456 1.390 . S
C457 H474 0.929 . S
C458 C453 1.390 . S
C458 C454 1.392 . S
C458 H475 0.930 . S
C459 O444 1.255 . S
C459 O445 1.257 . S
C460 Eu396 2.787 . S
C460 O440 1.252 . S
C460 O443 1.268 . S
C460 C453 1.506 . S
C461 C428 1.439 . S
C461 H438 0.931 . S
C461 C462 1.374 . S
C462 C433 1.387 . S
C462 H439 0.931 . S
C462 C461 1.374 . S
C463 O447 1.249 . S
C463 O448 1.264 . S
C464 C467 1.382 . S
C464 C468 1.390 . S
C464 C471 1.506 . S
C465 C466 1.398 . S
C465 C468 1.392 . S
C466 C465 1.398 . S
C466 C469 1.372 . S
C466 H476 0.931 . S
C467 C464 1.382 . S
C467 C469 1.390 . S
C467 H477 0.931 . S
C468 C464 1.390 . S
C468 C465 1.392 . S
C468 H478 0.930 . S
C469 C466 1.372 . S
C469 C467 1.390 . S
C469 H479 0.929 . S
C470 O450 1.255 . S
C470 O451 1.257 . S
C471 Eu407 2.787 . S
C471 O446 1.252 . S
C471 O449 1.268 . S
C471 C464 1.506 . S
H472 C455 0.931 . S
H473 C456 0.931 . S
H474 C457 0.929 . S
H475 C458 0.930 . S
H476 C466 0.931 . S
H477 C467 0.931 . S
H478 C468 0.930 . S
H479 C469 0.929 . S
Eu480 N509 2.600 . S
Eu480 N515 2.562 . S
Eu480 O524 2.462 . S
Eu480 O525 2.373 . S
Eu480 O527 2.432 . S
Eu480 O528 2.291 . S
Eu480 O532 2.335 . S
Eu480 O535 2.372 . S
Eu480 C544 2.787 . S
C481 N482 1.365 . S
C481 C484 1.405 . S
C481 C488 1.448 . S
N482 C481 1.365 . S
N482 C485 1.319 . S
N482 Eu491 2.600 . S
C483 C485 1.397 . S
C483 C486 1.367 . S
C483 H503 0.931 . S
C484 C481 1.405 . S
C484 C486 1.403 . S
C484 C490 1.439 . S
C485 N482 1.319 . S
C485 C483 1.397 . S
C485 H496 0.930 . S
C486 C483 1.367 . S
C486 C484 1.403 . S
C486 H507 0.929 . S
C487 C488 1.430 . S
C487 C489 1.387 . S
C487 C493 1.404 . S
C488 C481 1.448 . S
C488 C487 1.430 . S
C488 N492 1.351 . S
C489 C487 1.387 . S
C489 C490 1.374 . S
C489 H504 0.931 . S
C490 C484 1.439 . S
C490 C489 1.374 . S
C490 H505 0.931 . S
Eu491 N482 2.600 . S
Eu491 N492 2.562 . S
Eu491 O526 2.335 1_655 S
Eu491 O529 2.372 . S
Eu491 O530 2.462 . S
Eu491 O531 2.373 . S
Eu491 O533 2.432 . S
Eu491 O534 2.291 1_655 S
Eu491 C555 2.787 . S
N492 C488 1.351 . S
N492 Eu491 2.562 . S
N492 C494 1.325 . S
C493 C487 1.404 . S
C493 C495 1.366 . S
C493 H501 0.930 . S
C494 N492 1.325 . S
C494 C495 1.416 . S
C494 H500 0.929 . S
C495 C493 1.366 . S
C495 C494 1.416 . S
C495 H497 0.930 . S
H496 C485 0.930 . S
H497 C495 0.930 . S
H498 C513 0.930 . S
H499 C520 0.930 . S
H500 C494 0.929 . S
H501 C493 0.930 . S
H502 C516 0.929 . S
H503 C483 0.931 . S
H504 C489 0.931 . S
H505 C490 0.931 . S
H506 C511 0.931 . S
H507 C486 0.929 . S
H508 C519 0.930 . S
N509 Eu480 2.600 . S
N509 C510 1.365 . S
N509 C513 1.319 . S
C510 N509 1.365 . S
C510 C512 1.405 . S
C510 C518 1.448 . S
C511 H506 0.931 . S
C511 C513 1.397 . S
C511 C514 1.367 . S
C512 C510 1.405 . S
C512 C514 1.403 . S
C512 C545 1.439 . S
C513 H498 0.930 . S
C513 N509 1.319 . S
C513 C511 1.397 . S
C514 C511 1.367 . S
C514 C512 1.403 . S
C514 H521 0.929 . S
N515 Eu480 2.562 . S
N515 C516 1.325 . S
N515 C518 1.351 . S
C516 H502 0.929 . S
C516 N515 1.325 . S
C516 C520 1.416 . S
C517 C518 1.430 . S
C517 C519 1.404 . S
C517 C546 1.387 . S
C518 C510 1.448 . S
C518 N515 1.351 . S
C518 C517 1.430 . S
C519 H508 0.930 . S
C519 C517 1.404 . S
C519 C520 1.366 . S
C520 H499 0.930 . S
C520 C516 1.416 . S
C520 C519 1.366 . S
H521 C514 0.929 . S
H522 C545 0.931 . S
H523 C546 0.931 . S
O524 Eu480 2.462 . S
O524 C544 1.252 . S
O525 Eu480 2.373 . S
O525 C536 1.249 . S
O526 Eu491 2.335 1_455 S
O526 C536 1.264 . S
O527 Eu480 2.432 . S
O527 C544 1.268 . S
O528 Eu480 2.291 . S
O528 C543 1.255 1_455 S
O529 Eu491 2.372 . S
O529 C543 1.257 . S
O530 Eu491 2.462 . S
O530 C555 1.252 . S
O531 Eu491 2.373 . S
O531 C547 1.249 . S
O532 Eu480 2.335 . S
O532 C547 1.264 1_455 S
O533 Eu491 2.432 . S
O533 C555 1.268 . S
O534 Eu491 2.291 1_455 S
O534 C554 1.255 . S
O535 Eu480 2.372 . S
O535 C554 1.257 . S
C536 O525 1.249 . S
C536 O526 1.264 . S
C537 C540 1.382 . S
C537 C542 1.390 . S
C537 C544 1.506 . S
C538 C539 1.398 . S
C538 C542 1.392 . S
C539 C538 1.398 . S
C539 C541 1.372 . S
C539 H556 0.931 . S
C540 C537 1.382 . S
C540 C541 1.390 . S
C540 H557 0.931 . S
C541 C539 1.372 . S
C541 C540 1.390 . S
C541 H558 0.929 . S
C542 C537 1.390 . S
C542 C538 1.392 . S
C542 H559 0.930 . S
C543 O528 1.255 1_655 S
C543 O529 1.257 . S
C544 Eu480 2.787 . S
C544 O524 1.252 . S
C544 O527 1.268 . S
C544 C537 1.506 . S
C545 C512 1.439 . S
C545 H522 0.931 . S
C545 C546 1.374 . S
C546 C517 1.387 . S
C546 H523 0.931 . S
C546 C545 1.374 . S
C547 O531 1.249 . S
C547 O532 1.264 1_655 S
C548 C551 1.382 . S
C548 C552 1.390 . S
C548 C555 1.506 . S
C549 C550 1.398 . S
C549 C552 1.392 . S
C550 C549 1.398 . S
C550 C553 1.372 . S
C550 H560 0.931 . S
C551 C548 1.382 . S
C551 C553 1.390 . S
C551 H561 0.931 . S
C552 C548 1.390 . S
C552 C549 1.392 . S
C552 H562 0.930 . S
C553 C550 1.372 . S
C553 C551 1.390 . S
C553 H563 0.929 . S
C554 O534 1.255 . S
C554 O535 1.257 . S
C555 Eu491 2.787 . S
C555 O530 1.252 . S
C555 O533 1.268 . S
C555 C548 1.506 . S
H556 C539 0.931 . S
H557 C540 0.931 . S
H558 C541 0.929 . S
H559 C542 0.930 . S
H560 C550 0.931 . S
H561 C551 0.931 . S
H562 C552 0.930 . S
H563 C553 0.929 . S
Eu564 N593 2.600 . S
Eu564 N599 2.562 . S
Eu564 O608 2.462 . S
Eu564 O609 2.373 . S
Eu564 O611 2.432 . S
Eu564 O612 2.291 . S
Eu564 O616 2.335 . S
Eu564 O619 2.372 . S
Eu564 C628 2.787 . S
C565 N566 1.365 . S
C565 C568 1.405 . S
C565 C572 1.448 . S
N566 C565 1.365 . S
N566 C569 1.319 . S
N566 Eu575 2.600 . S
C567 C569 1.397 . S
C567 C570 1.367 . S
C567 H587 0.931 . S
C568 C565 1.405 . S
C568 C570 1.403 . S
C568 C574 1.439 . S
C569 N566 1.319 . S
C569 C567 1.397 . S
C569 H580 0.930 . S
C570 C567 1.367 . S
C570 C568 1.403 . S
C570 H591 0.929 . S
C571 C572 1.430 . S
C571 C573 1.387 . S
C571 C577 1.404 . S
C572 C565 1.448 . S
C572 C571 1.430 . S
C572 N576 1.351 . S
C573 C571 1.387 . S
C573 C574 1.374 . S
C573 H588 0.931 . S
C574 C568 1.439 . S
C574 C573 1.374 . S
C574 H589 0.931 . S
Eu575 N566 2.600 . S
Eu575 N576 2.562 . S
Eu575 O610 2.335 . S
Eu575 O613 2.372 . S
Eu575 O614 2.462 . S
Eu575 O615 2.373 . S
Eu575 O617 2.432 . S
Eu575 O618 2.291 . S
Eu575 C639 2.787 . S
N576 C572 1.351 . S
N576 Eu575 2.562 . S
N576 C578 1.325 . S
C577 C571 1.404 . S
C577 C579 1.366 . S
C577 H585 0.930 . S
C578 N576 1.325 . S
C578 C579 1.416 . S
C578 H584 0.929 . S
C579 C577 1.366 . S
C579 C578 1.416 . S
C579 H581 0.930 . S
H580 C569 0.930 . S
H581 C579 0.930 . S
H582 C597 0.930 . S
H583 C604 0.930 . S
H584 C578 0.929 . S
H585 C577 0.930 . S
H586 C600 0.929 . S
H587 C567 0.931 . S
H588 C573 0.931 . S
H589 C574 0.931 . S
H590 C595 0.931 . S
H591 C570 0.929 . S
H592 C603 0.930 . S
N593 Eu564 2.600 . S
N593 C594 1.365 . S
N593 C597 1.319 . S
C594 N593 1.365 . S
C594 C596 1.405 . S
C594 C602 1.448 . S
C595 H590 0.931 . S
C595 C597 1.397 . S
C595 C598 1.367 . S
C596 C594 1.405 . S
C596 C598 1.403 . S
C596 C629 1.439 . S
C597 H582 0.930 . S
C597 N593 1.319 . S
C597 C595 1.397 . S
C598 C595 1.367 . S
C598 C596 1.403 . S
C598 H605 0.929 . S
N599 Eu564 2.562 . S
N599 C600 1.325 . S
N599 C602 1.351 . S
C600 H586 0.929 . S
C600 N599 1.325 . S
C600 C604 1.416 . S
C601 C602 1.430 . S
C601 C603 1.404 . S
C601 C630 1.387 . S
C602 C594 1.448 . S
C602 N599 1.351 . S
C602 C601 1.430 . S
C603 H592 0.930 . S
C603 C601 1.404 . S
C603 C604 1.366 . S
C604 H583 0.930 . S
C604 C600 1.416 . S
C604 C603 1.366 . S
H605 C598 0.929 . S
H606 C629 0.931 . S
H607 C630 0.931 . S
O608 Eu564 2.462 . S
O608 C628 1.252 . S
O609 Eu564 2.373 . S
O609 C620 1.249 . S
O610 Eu575 2.335 . S
O610 C620 1.264 . S
O611 Eu564 2.432 . S
O611 C628 1.268 . S
O612 Eu564 2.291 . S
O612 C627 1.255 . S
O613 Eu575 2.372 . S
O613 C627 1.257 . S
O614 Eu575 2.462 . S
O614 C639 1.252 . S
O615 Eu575 2.373 . S
O615 C631 1.249 . S
O616 Eu564 2.335 . S
O616 C631 1.264 . S
O617 Eu575 2.432 . S
O617 C639 1.268 . S
O618 Eu575 2.291 . S
O618 C638 1.255 . S
O619 Eu564 2.372 . S
O619 C638 1.257 . S
C620 O609 1.249 . S
C620 O610 1.264 . S
C621 C624 1.382 . S
C621 C626 1.390 . S
C621 C628 1.506 . S
C622 C623 1.398 . S
C622 C626 1.392 . S
C623 C622 1.398 . S
C623 C625 1.372 . S
C623 H640 0.931 . S
C624 C621 1.382 . S
C624 C625 1.390 . S
C624 H641 0.931 . S
C625 C623 1.372 . S
C625 C624 1.390 . S
C625 H642 0.929 . S
C626 C621 1.390 . S
C626 C622 1.392 . S
C626 H643 0.930 . S
C627 O612 1.255 . S
C627 O613 1.257 . S
C628 Eu564 2.787 . S
C628 O608 1.252 . S
C628 O611 1.268 . S
C628 C621 1.506 . S
C629 C596 1.439 . S
C629 H606 0.931 . S
C629 C630 1.374 . S
C630 C601 1.387 . S
C630 H607 0.931 . S
C630 C629 1.374 . S
C631 O615 1.249 . S
C631 O616 1.264 . S
C632 C635 1.382 . S
C632 C636 1.390 . S
C632 C639 1.506 . S
C633 C634 1.398 . S
C633 C636 1.392 . S
C634 C633 1.398 . S
C634 C637 1.372 . S
C634 H644 0.931 . S
C635 C632 1.382 . S
C635 C637 1.390 . S
C635 H645 0.931 . S
C636 C632 1.390 . S
C636 C633 1.392 . S
C636 H646 0.930 . S
C637 C634 1.372 . S
C637 C635 1.390 . S
C637 H647 0.929 . S
C638 O618 1.255 . S
C638 O619 1.257 . S
C639 Eu575 2.787 . S
C639 O614 1.252 . S
C639 O617 1.268 . S
C639 C632 1.506 . S
H640 C623 0.931 . S
H641 C624 0.931 . S
H642 C625 0.929 . S
H643 C626 0.930 . S
H644 C634 0.931 . S
H645 C635 0.931 . S
H646 C636 0.930 . S
H647 C637 0.929 . S
C648 C649 1.369 . S
C648 C650 1.419 . S
C648 H652 0.930 . S
C649 C648 1.369 . S
C649 C658 1.429 . S
C650 C648 1.419 . S
C650 C651 1.363 . S
C650 H653 0.929 . S
C651 C650 1.363 . S
C651 C657 1.428 . S
H652 C648 0.930 . S
H653 C650 0.929 . S
S654 N655 1.613 . S
S654 N656 1.610 . S
N655 S654 1.613 . S
N655 C658 1.350 . S
N656 S654 1.610 . S
N656 C657 1.351 . S
C657 C651 1.428 . S
C657 N656 1.351 . S
C657 C658 1.434 . S
C658 C649 1.429 . S
C658 N655 1.350 . S
C658 C657 1.434 . S
C659 C660 1.369 . S
C659 C661 1.419 . S
C659 H663 0.930 . S
C660 C659 1.369 . S
C660 C669 1.429 . S
C661 C659 1.419 . S
C661 C662 1.363 . S
C661 H664 0.929 . S
C662 C661 1.363 . S
C662 C668 1.428 . S
H663 C659 0.930 . S
H664 C661 0.929 . S
S665 N666 1.613 . S
S665 N667 1.610 . S
N666 S665 1.613 . S
N666 C669 1.350 . S
N667 S665 1.610 . S
N667 C668 1.351 . S
C668 C662 1.428 . S
C668 N667 1.351 . S
C668 C669 1.434 . S
C669 C660 1.429 . S
C669 N666 1.350 . S
C669 C668 1.434 . S
C670 C671 1.369 . S
C670 C672 1.419 . S
C670 H674 0.930 . S
C671 C670 1.369 . S
C671 C680 1.429 . S
C672 C670 1.419 . S
C672 C673 1.363 . S
C672 H675 0.929 . S
C673 C672 1.363 . S
C673 C679 1.428 . S
H674 C670 0.930 . S
H675 C672 0.929 . S
S676 N677 1.613 . S
S676 N678 1.610 . S
N677 S676 1.613 . S
N677 C680 1.350 . S
N678 S676 1.610 . S
N678 C679 1.351 . S
C679 C673 1.428 . S
C679 N678 1.351 . S
C679 C680 1.434 . S
C680 C671 1.429 . S
C680 N677 1.350 . S
C680 C679 1.434 . S
C681 C682 1.369 . S
C681 C683 1.419 . S
C681 H685 0.930 . S
C682 C681 1.369 . S
C682 C691 1.429 . S
C683 C681 1.419 . S
C683 C684 1.363 . S
C683 H686 0.929 . S
C684 C683 1.363 . S
C684 C690 1.428 . S
H685 C681 0.930 . S
H686 C683 0.929 . S
S687 N688 1.613 . S
S687 N689 1.610 1_565 S
N688 S687 1.613 . S
N688 C691 1.350 1_565 S
N689 S687 1.610 1_545 S
N689 C690 1.351 . S
C690 C684 1.428 . S
C690 N689 1.351 . S
C690 C691 1.434 . S
C691 C682 1.429 . S
C691 N688 1.350 1_545 S
C691 C690 1.434 . S
C692 C693 1.369 . S
C692 C694 1.419 . S
C692 H696 0.930 . S
C693 C692 1.369 . S
C693 C702 1.429 . S
C694 C692 1.419 . S
C694 C695 1.363 . S
C694 H697 0.929 . S
C695 C694 1.363 . S
C695 C701 1.428 . S
H696 C692 0.930 . S
H697 C694 0.929 . S
S698 N699 1.613 1_455 S
S698 N700 1.610 1_445 S
N699 S698 1.613 1_655 S
N699 C702 1.350 1_545 S
N700 S698 1.610 1_665 S
N700 C701 1.351 . S
C701 C695 1.428 . S
C701 N700 1.351 . S
C701 C702 1.434 . S
C702 C693 1.429 . S
C702 N699 1.350 1_565 S
C702 C701 1.434 . S
C703 C704 1.369 . S
C703 C705 1.419 . S
C703 H707 0.930 . S
C704 C703 1.369 . S
C704 C713 1.429 . S
C705 C703 1.419 . S
C705 C706 1.363 . S
C705 H708 0.929 . S
C706 C705 1.363 . S
C706 C712 1.428 . S
H707 C703 0.930 . S
H708 C705 0.929 . S
S709 N710 1.613 . S
S709 N711 1.610 . S
N710 S709 1.613 . S
N710 C713 1.350 . S
N711 S709 1.610 . S
N711 C712 1.351 . S
C712 C706 1.428 . S
C712 N711 1.351 . S
C712 C713 1.434 . S
C713 C704 1.429 . S
C713 N710 1.350 . S
C713 C712 1.434 . S
C714 C715 1.369 . S
C714 C716 1.419 . S
C714 H718 0.930 . S
C715 C714 1.369 . S
C715 C724 1.429 . S
C716 C714 1.419 . S
C716 C717 1.363 . S
C716 H719 0.929 . S
C717 C716 1.363 . S
C717 C723 1.428 . S
H718 C714 0.930 . S
H719 C716 0.929 . S
S720 N721 1.613 . S
S720 N722 1.610 . S
N721 S720 1.613 . S
N721 C724 1.350 . S
N722 S720 1.610 . S
N722 C723 1.351 . S
C723 C717 1.428 . S
C723 N722 1.351 . S
C723 C724 1.434 . S
C724 C715 1.429 . S
C724 N721 1.350 . S
C724 C723 1.434 . S
C725 C726 1.369 . S
C725 C727 1.419 . S
C725 H729 0.930 . S
C726 C725 1.369 . S
C726 C735 1.429 . S
C727 C725 1.419 . S
C727 C728 1.363 . S
C727 H730 0.929 . S
C728 C727 1.363 . S
C728 C734 1.428 . S
H729 C725 0.930 . S
H730 C727 0.929 . S
S731 N732 1.613 . S
S731 N733 1.610 1_545 S
N732 S731 1.613 . S
N732 C735 1.350 1_545 S
N733 S731 1.610 1_565 S
N733 C734 1.351 . S
C734 C728 1.428 . S
C734 N733 1.351 . S
C734 C735 1.434 . S
C735 C726 1.429 . S
C735 N732 1.350 1_565 S
C735 C734 1.434 . S
C736 C737 1.369 . S
C736 C738 1.419 . S
C736 H740 0.930 . S
C737 C736 1.369 . S
C737 C746 1.429 . S
C738 C736 1.419 . S
C738 C739 1.363 . S
C738 H741 0.929 . S
C739 C738 1.363 . S
C739 C745 1.428 . S
H740 C736 0.930 . S
H741 C738 0.929 . S
S742 N743 1.613 . S
S742 N744 1.610 . S
N743 S742 1.613 . S
N743 C746 1.350 . S
N744 S742 1.610 . S
N744 C745 1.351 . S
C745 C739 1.428 . S
C745 N744 1.351 . S
C745 C746 1.434 . S
C746 C737 1.429 . S
C746 N743 1.350 . S
C746 C745 1.434 . S
C747 C748 1.369 . S
C747 C749 1.419 . S
C747 H751 0.930 . S
C748 C747 1.369 . S
C748 C757 1.429 . S
C749 C747 1.419 . S
C749 C750 1.363 . S
C749 H752 0.929 . S
C750 C749 1.363 . S
C750 C756 1.428 . S
H751 C747 0.930 . S
H752 C749 0.929 . S
S753 N754 1.613 . S
S753 N755 1.610 . S
N754 S753 1.613 . S
N754 C757 1.350 . S
N755 S753 1.610 . S
N755 C756 1.351 . S
C756 C750 1.428 . S
C756 N755 1.351 . S
C756 C757 1.434 . S
C757 C748 1.429 . S
C757 N754 1.350 . S
C757 C756 1.434 . S
C758 C759 1.369 . S
C758 C760 1.419 . S
C758 H762 0.930 . S
C759 C758 1.369 . S
C759 C768 1.429 . S
C760 C758 1.419 . S
C760 C761 1.363 . S
C760 H763 0.929 . S
C761 C760 1.363 . S
C761 C767 1.428 . S
H762 C758 0.930 . S
H763 C760 0.929 . S
S764 N765 1.613 . S
S764 N766 1.610 . S
N765 S764 1.613 . S
N765 C768 1.350 . S
N766 S764 1.610 . S
N766 C767 1.351 . S
C767 C761 1.428 . S
C767 N766 1.351 . S
C767 C768 1.434 . S
C768 C759 1.429 . S
C768 N765 1.350 . S
C768 C767 1.434 . S
C769 C770 1.369 . S
C769 C771 1.419 . S
C769 H773 0.930 . S
C770 C769 1.369 . S
C770 C779 1.429 . S
C771 C769 1.419 . S
C771 C772 1.363 . S
C771 H774 0.929 . S
C772 C771 1.363 . S
C772 C778 1.428 . S
H773 C769 0.930 . S
H774 C771 0.929 . S
S775 N776 1.613 1_455 S
S775 N777 1.610 1_455 S
N776 S775 1.613 1_655 S
N776 C779 1.350 . S
N777 S775 1.610 1_655 S
N777 C778 1.351 . S
C778 C772 1.428 . S
C778 N777 1.351 . S
C778 C779 1.434 . S
C779 C770 1.429 . S
C779 N776 1.350 . S
C779 C778 1.434 . S
C780 C781 1.369 . S
C780 C782 1.419 . S
C780 H784 0.930 . S
C781 C780 1.369 . S
C781 C790 1.429 . S
C782 C780 1.419 . S
C782 C783 1.363 . S
C782 H785 0.929 . S
C783 C782 1.363 . S
C783 C789 1.428 . S
H784 C780 0.930 . S
H785 C782 0.929 . S
S786 N787 1.613 . S
S786 N788 1.610 . S
N787 S786 1.613 . S
N787 C790 1.350 . S
N788 S786 1.610 . S
N788 C789 1.351 . S
C789 C783 1.428 . S
C789 N788 1.351 . S
C789 C790 1.434 . S
C790 C781 1.429 . S
C790 N787 1.350 . S
C790 C789 1.434 . S
C791 C792 1.369 . S
C791 C793 1.419 . S
C791 H795 0.930 . S
C792 C791 1.369 . S
C792 C801 1.429 . S
C793 C791 1.419 . S
C793 C794 1.363 . S
C793 H796 0.929 . S
C794 C793 1.363 . S
C794 C800 1.428 . S
H795 C791 0.930 . S
H796 C793 0.929 . S
S797 N798 1.613 . S
S797 N799 1.610 . S
N798 S797 1.613 . S
N798 C801 1.350 . S
N799 S797 1.610 . S
N799 C800 1.351 . S
C800 C794 1.428 . S
C800 N799 1.351 . S
C800 C801 1.434 . S
C801 C792 1.429 . S
C801 N798 1.350 . S
C801 C800 1.434 . S
C802 C803 1.369 . S
C802 C804 1.419 . S
C802 H806 0.930 . S
C803 C802 1.369 . S
C803 C812 1.429 . S
C804 C802 1.419 . S
C804 C805 1.363 . S
C804 H807 0.929 . S
C805 C804 1.363 . S
C805 C811 1.428 . S
H806 C802 0.930 . S
H807 C804 0.929 . S
S808 N809 1.613 . S
S808 N810 1.610 . S
N809 S808 1.613 . S
N809 C812 1.350 . S
N810 S808 1.610 . S
N810 C811 1.351 . S
C811 C805 1.428 . S
C811 N810 1.351 . S
C811 C812 1.434 . S
C812 C803 1.429 . S
C812 N809 1.350 . S
C812 C811 1.434 . S
C813 C814 1.369 . S
C813 C815 1.419 . S
C813 H817 0.930 . S
C814 C813 1.369 . S
C814 C823 1.429 . S
C815 C813 1.419 . S
C815 C816 1.363 . S
C815 H818 0.929 . S
C816 C815 1.363 . S
C816 C822 1.428 . S
H817 C813 0.930 . S
H818 C815 0.929 . S
S819 N820 1.613 . S
S819 N821 1.610 . S
N820 S819 1.613 . S
N820 C823 1.350 . S
N821 S819 1.610 . S
N821 C822 1.351 . S
C822 C816 1.428 . S
C822 N821 1.351 . S
C822 C823 1.434 . S
C823 C814 1.429 . S
C823 N820 1.350 . S
C823 C822 1.434 . S
C824 C825 1.369 . S
C824 C826 1.419 . S
C824 H828 0.930 . S
C825 C824 1.369 . S
C825 C834 1.429 . S
C826 C824 1.419 . S
C826 C827 1.363 . S
C826 H829 0.929 . S
C827 C826 1.363 . S
C827 C833 1.428 . S
H828 C824 0.930 . S
H829 C826 0.929 . S
S830 N831 1.613 . S
S830 N832 1.610 . S
N831 S830 1.613 . S
N831 C834 1.350 . S
N832 S830 1.610 . S
N832 C833 1.351 . S
C833 C827 1.428 . S
C833 N832 1.351 . S
C833 C834 1.434 . S
C834 C825 1.429 . S
C834 N831 1.350 . S
C834 C833 1.434 . S
C835 C836 1.369 . S
C835 C837 1.419 . S
C835 H839 0.930 . S
C836 C835 1.369 . S
C836 C845 1.429 . S
C837 C835 1.419 . S
C837 C838 1.363 . S
C837 H840 0.929 . S
C838 C837 1.363 . S
C838 C844 1.428 . S
H839 C835 0.930 . S
H840 C837 0.929 . S
S841 N842 1.613 . S
S841 N843 1.610 . S
N842 S841 1.613 . S
N842 C845 1.350 . S
N843 S841 1.610 . S
N843 C844 1.351 . S
C844 C838 1.428 . S
C844 N843 1.351 . S
C844 C845 1.434 . S
C845 C836 1.429 . S
C845 N842 1.350 . S
C845 C844 1.434 . S
C846 C847 1.369 . S
C846 C848 1.419 . S
C846 H850 0.930 . S
C847 C846 1.369 . S
C847 C856 1.429 . S
C848 C846 1.419 . S
C848 C849 1.363 . S
C848 H851 0.929 . S
C849 C848 1.363 . S
C849 C855 1.428 . S
H850 C846 0.930 . S
H851 C848 0.929 . S
S852 N853 1.613 . S
S852 N854 1.610 . S
N853 S852 1.613 . S
N853 C856 1.350 . S
N854 S852 1.610 . S
N854 C855 1.351 . S
C855 C849 1.428 . S
C855 N854 1.351 . S
C855 C856 1.434 . S
C856 C847 1.429 . S
C856 N853 1.350 . S
C856 C855 1.434 . S
C857 C858 1.369 . S
C857 C859 1.419 . S
C857 H861 0.930 . S
C858 C857 1.369 . S
C858 C867 1.429 . S
C859 C857 1.419 . S
C859 C860 1.363 . S
C859 H862 0.929 . S
C860 C859 1.363 . S
C860 C866 1.428 . S
H861 C857 0.930 . S
H862 C859 0.929 . S
S863 N864 1.613 . S
S863 N865 1.610 . S
N864 S863 1.613 . S
N864 C867 1.350 . S
N865 S863 1.610 . S
N865 C866 1.351 . S
C866 C860 1.428 . S
C866 N865 1.351 . S
C866 C867 1.434 . S
C867 C858 1.429 . S
C867 N864 1.350 . S
C867 C866 1.434 . S
C868 C869 1.369 . S
C868 C870 1.419 . S
C868 H872 0.930 . S
C869 C868 1.369 . S
C869 C878 1.429 . S
C870 C868 1.419 . S
C870 C871 1.363 . S
C870 H873 0.929 1_655 S
C871 C870 1.363 . S
C871 C877 1.428 . S
H872 C868 0.930 . S
H873 C870 0.929 1_455 S
S874 N875 1.613 . S
S874 N876 1.610 . S
N875 S874 1.613 . S
N875 C878 1.350 . S
N876 S874 1.610 . S
N876 C877 1.351 . S
C877 C871 1.428 . S
C877 N876 1.351 . S
C877 C878 1.434 . S
C878 C869 1.429 . S
C878 N875 1.350 . S
C878 C877 1.434 . S
C879 C880 1.369 . S
C879 C881 1.419 . S
C879 H883 0.930 . S
C880 C879 1.369 . S
C880 C889 1.429 . S
C881 C879 1.419 . S
C881 C882 1.363 . S
C881 H884 0.929 . S
C882 C881 1.363 . S
C882 C888 1.428 . S
H883 C879 0.930 . S
H884 C881 0.929 . S
S885 N886 1.613 . S
S885 N887 1.610 . S
N886 S885 1.613 . S
N886 C889 1.350 . S
N887 S885 1.610 . S
N887 C888 1.351 . S
C888 C882 1.428 . S
C888 N887 1.351 . S
C888 C889 1.434 . S
C889 C880 1.429 . S
C889 N886 1.350 . S
C889 C888 1.434 . S
C890 C891 1.369 . S
C890 C892 1.419 . S
C890 H894 0.930 . S
C891 C890 1.369 . S
C891 C900 1.429 . S
C892 C890 1.419 . S
C892 C893 1.363 . S
C892 H895 0.929 . S
C893 C892 1.363 . S
C893 C899 1.428 . S
H894 C890 0.930 . S
H895 C892 0.929 . S
S896 N897 1.613 . S
S896 N898 1.610 . S
N897 S896 1.613 . S
N897 C900 1.350 . S
N898 S896 1.610 . S
N898 C899 1.351 . S
C899 C893 1.428 . S
C899 N898 1.351 . S
C899 C900 1.434 . S
C900 C891 1.429 . S
C900 N897 1.350 . S
C900 C899 1.434 . S
C901 C902 1.369 . S
C901 C903 1.419 . S
C901 H905 0.930 . S
C902 C901 1.369 . S
C902 C911 1.429 . S
C903 C901 1.419 . S
C903 C904 1.363 . S
C903 H906 0.929 . S
C904 C903 1.363 . S
C904 C910 1.428 . S
H905 C901 0.930 . S
H906 C903 0.929 . S
S907 N908 1.613 . S
S907 N909 1.610 . S
N908 S907 1.613 . S
N908 C911 1.350 . S
N909 S907 1.610 . S
N909 C910 1.351 . S
C910 C904 1.428 . S
C910 N909 1.351 . S
C910 C911 1.434 . S
C911 C902 1.429 . S
C911 N908 1.350 . S
C911 C910 1.434 . S
C649 C235 1.486 1_545 S
C651 C386 1.479 . S
C662 C470 1.476 . S
C660 C289 1.486 . S
C673 C463 1.482 . S
C671 C157 1.482 . S
C682 C211 1.479 1_545 S
C684 C379 1.481 . S
C695 C543 1.476 . S
C693 C79 1.486 1_565 S
C706 C627 1.481 . S
C704 C118 1.491 . S
C715 C1 1.484 . S
C717 C620 1.480 . S
C726 C40 1.485 1_565 S
C728 C536 1.486 . S
C739 C370 1.316 . S
C737 C55 1.520 . S
C750 C454 1.317 . S
C748 C16 1.520 . S
C761 C465 1.401 . S
C759 C133 1.533 . S
C772 C381 1.401 . S
C770 C94 1.531 . S
C783 C549 1.322 . S
C781 C196 1.527 . S
C792 C172 1.526 . S
C794 C633 1.319 . S
C805 C622 1.400 . S
C803 C274 1.541 . S
C814 C250 1.539 . S
C816 C538 1.399 . S
C827 C368 1.573 . S
C825 C21 1.571 . S
C838 C452 1.579 . S
C836 C60 1.571 . S
C847 C99 1.562 . S
C849 C459 1.561 . S
C860 C375 1.567 . S
C858 C138 1.565 . S
C871 C547 1.581 . S
C869 C177 1.568 . S
C880 C216 1.572 . S
C882 C631 1.580 . S
C891 C255 1.562 . S
C893 C638 1.568 . S
C902 C294 1.563 . S
C904 C554 1.570 . S
