# Generated by pormake.
# Topology zzz, (3,6)-cn, num edge types: 1
# Building blocks:
#     Node 0, Type 0, BuildingBlock: CUQRIR_clean_linker_1, # of connection points: 3
#     Node 1, Type 0, BuildingBlock: CUQRIR_clean_linker_1, # of connection points: 3
#     Node 2, Type 0, BuildingBlock: CUQRIR_clean_linker_1, # of connection points: 3
#     Node 3, Type 0, BuildingBlock: CUQRIR_clean_linker_1, # of connection points: 3
#     Node 4, Type 0, BuildingBlock: CUQRIR_clean_linker_1, # of connection points: 3
#     Node 5, Type 0, BuildingBlock: CUQRIR_clean_linker_1, # of connection points: 3
#     Node 6, Type 0, BuildingBlock: CUQRIR_clean_linker_1, # of connection points: 3
#     Node 7, Type 0, BuildingBlock: CUQRIR_clean_linker_1, # of connection points: 3
#     Node 8, Type 1, BuildingBlock: GEDQOX_clean_sbu_0, # of connection points: 6
#     Node 9, Type 1, BuildingBlock: GEDQOX_clean_sbu_0, # of connection points: 6
#     Node 10, Type 1, BuildingBlock: GEDQOX_clean_sbu_0, # of connection points: 6
#     Node 11, Type 1, BuildingBlock: GEDQOX_clean_sbu_0, # of connection points: 6
#     Edge 12, Type (0, 1), BuildingBlock: CIFDUS_clean_linker_0, # of connection points: 2
#     Edge 13, Type (0, 1), BuildingBlock: CIFDUS_clean_linker_0, # of connection points: 2
#     Edge 14, Type (0, 1), BuildingBlock: CIFDUS_clean_linker_0, # of connection points: 2
#     Edge 15, Type (0, 1), BuildingBlock: CIFDUS_clean_linker_0, # of connection points: 2
#     Edge 16, Type (0, 1), BuildingBlock: CIFDUS_clean_linker_0, # of connection points: 2
#     Edge 17, Type (0, 1), BuildingBlock: CIFDUS_clean_linker_0, # of connection points: 2
#     Edge 18, Type (0, 1), BuildingBlock: CIFDUS_clean_linker_0, # of connection points: 2
#     Edge 19, Type (0, 1), BuildingBlock: CIFDUS_clean_linker_0, # of connection points: 2
#     Edge 20, Type (0, 1), BuildingBlock: CIFDUS_clean_linker_0, # of connection points: 2
#     Edge 21, Type (0, 1), BuildingBlock: CIFDUS_clean_linker_0, # of connection points: 2
#     Edge 22, Type (0, 1), BuildingBlock: CIFDUS_clean_linker_0, # of connection points: 2
#     Edge 23, Type (0, 1), BuildingBlock: CIFDUS_clean_linker_0, # of connection points: 2
#     Edge 24, Type (0, 1), BuildingBlock: CIFDUS_clean_linker_0, # of connection points: 2
#     Edge 25, Type (0, 1), BuildingBlock: CIFDUS_clean_linker_0, # of connection points: 2
#     Edge 26, Type (0, 1), BuildingBlock: CIFDUS_clean_linker_0, # of connection points: 2
#     Edge 27, Type (0, 1), BuildingBlock: CIFDUS_clean_linker_0, # of connection points: 2
#     Edge 28, Type (0, 1), BuildingBlock: CIFDUS_clean_linker_0, # of connection points: 2
#     Edge 29, Type (0, 1), BuildingBlock: CIFDUS_clean_linker_0, # of connection points: 2
#     Edge 30, Type (0, 1), BuildingBlock: CIFDUS_clean_linker_0, # of connection points: 2
#     Edge 31, Type (0, 1), BuildingBlock: CIFDUS_clean_linker_0, # of connection points: 2
#     Edge 32, Type (0, 1), BuildingBlock: CIFDUS_clean_linker_0, # of connection points: 2
#     Edge 33, Type (0, 1), BuildingBlock: CIFDUS_clean_linker_0, # of connection points: 2
#     Edge 34, Type (0, 1), BuildingBlock: CIFDUS_clean_linker_0, # of connection points: 2
#     Edge 35, Type (0, 1), BuildingBlock: CIFDUS_clean_linker_0, # of connection points: 2
# Relax obj value: 0.132
# Max RMSD: 0.208
# Mean RMSD: 0.088
data_MOF--net-zzz--node1-GEDQOX_clean_sbu_0--node2-CUQRIR_clean_linker_1--edge1-CIFDUS_clean_linker_0
_symmetry_space_group_name_H-M    P1
_symmetry_Int_Tables_number       1
_symmetry_cell_setting            triclinic
loop_
_symmetry_equiv_pos_as_xyz
'x, y, z'
_cell_length_a     44.681018
_cell_length_b     43.783698
_cell_length_c     14.019561
_cell_angle_alpha  76.798998
_cell_angle_beta   89.358009
_cell_angle_gamma 101.33763
loop_
_atom_site_label
_atom_site_type_symbol
_atom_site_fract_x
_atom_site_fract_y
_atom_site_fract_z
_atom_type_partial_charge
C0 C 0.76636 0.56464 0.19886 0.0
N1 N 0.7955 0.56022 0.19303 0.0
N2 N 0.75189 0.56072 0.11647 0.0
C3 C 0.75284 0.57538 0.28118 0.0
C4 C 0.77342 0.5538 0.06024 0.0
N5 N 0.79989 0.55352 0.10661 0.0
C6 C 0.7679 0.54515 0.96322 0.0
H7 H 0.74153 0.55397 0.33788 0.0
H8 H 0.73548 0.58978 0.25434 0.0
H9 H 0.77086 0.58983 0.3157 0.0
H10 H 0.77362 0.56728 0.9036 0.0
H11 H 0.74355 0.53389 0.95959 0.0
H12 H 0.78253 0.5285 0.95085 0.0
C13 C 0.03766 0.74634 0.34903 0.0
N14 N 0.03509 0.77748 0.33536 0.0
N15 N 0.03752 0.73725 0.26162 0.0
C16 C 0.04031 0.72499 0.44767 0.0
C17 C 0.03485 0.76444 0.19486 0.0
N18 N 0.0336 0.7886 0.23961 0.0
C19 C 0.03295 0.76725 0.08604 0.0
H20 H 0.05239 0.7057 0.44058 0.0
H21 H 0.01705 0.714 0.4821 0.0
H22 H 0.05272 0.73896 0.49698 0.0
H23 H 0.01909 0.745 0.07149 0.0
H24 H 0.05635 0.771 0.05228 0.0
H25 H 0.02303 0.78781 0.04934 0.0
C26 C 0.79247 0.03107 0.21951 0.0
N27 N 0.7636 0.03638 0.21445 0.0
N28 N 0.80858 0.04468 0.13256 0.0
C29 C 0.80512 0.01337 0.3098 0.0
C30 C 0.78854 0.05849 0.07455 0.0
N31 N 0.76124 0.05341 0.12431 0.0
C32 C 0.79534 0.07653 0.96907 0.0
H33 H 0.81487 0.03069 0.35359 0.0
H34 H 0.82359 1.00187 0.29076 0.0
H35 H 0.78682 0.99483 0.3558 0.0
H36 H 0.82016 0.0856 0.95112 0.0
H37 H 0.78332 0.09687 0.95236 0.0
H38 H 0.78684 0.06013 0.92114 0.0
C39 C 0.53817 0.82161 0.53494 0.0
N40 N 0.52992 0.78923 0.55048 0.0
N41 N 0.52423 0.83625 0.45627 0.0
C42 C 0.5611 0.83872 0.5924 0.0
C43 C 0.50726 0.81126 0.42593 0.0
N44 N 0.51093 0.78299 0.48231 0.0
C45 C 0.48665 0.81394 0.34156 0.0
H46 H 0.54877 0.84551 0.6509 0.0
H47 H 0.57481 0.86089 0.5442 0.0
H48 H 0.57656 0.82306 0.62772 0.0
H49 H 0.49972 0.81401 0.27373 0.0
H50 H 0.47751 0.83621 0.33032 0.0
H51 H 0.46728 0.79297 0.35519 0.0
C52 C 0.2987 0.53483 0.68332 0.0
N53 N 0.27002 0.54055 0.68363 0.0
N54 N 0.3136 0.54326 0.76037 0.0
C55 C 0.31157 0.51962 0.61074 0.0
C56 C 0.2926 0.55416 0.80747 0.0
N57 N 0.26627 0.55276 0.76014 0.0
C58 C 0.29801 0.56694 0.89785 0.0
H59 H 0.29309 0.50426 0.58063 0.0
H60 H 0.32805 0.50511 0.64528 0.0
H61 H 0.32381 0.53879 0.54896 0.0
H62 H 0.28348 0.58455 0.90133 0.0
H63 H 0.32242 0.57834 0.89942 0.0
H64 H 0.29193 0.54676 0.96353 0.0
C65 C 0.02857 0.32533 0.57729 0.0
N66 N 0.02406 0.29339 0.58206 0.0
N67 N 0.02016 0.33095 0.66509 0.0
C68 C 0.04226 0.35072 0.48808 0.0
C69 C 0.01028 0.30081 0.72244 0.0
N70 N 0.01279 0.27835 0.6721 0.0
C71 C 0.99755 0.29311 0.82698 0.0
H72 H 0.05772 0.34152 0.44421 0.0
H73 H 0.05516 0.37234 0.50904 0.0
H74 H 0.02365 0.35751 0.44127 0.0
H75 H 0.98183 0.2694 0.84679 0.0
H76 H 0.98505 0.31154 0.83914 0.0
H77 H 0.01667 0.29237 0.87669 0.0
C78 C 0.27679 0.07954 0.66789 0.0
N79 N 0.3058 0.07493 0.67487 0.0
N80 N 0.25945 0.06338 0.75068 0.0
C81 C 0.26531 0.1001 0.58065 0.0
C82 C 0.27902 0.04866 0.80847 0.0
N83 N 0.30716 0.05568 0.76234 0.0
C84 C 0.2698 0.02492 0.90514 0.0
H85 H 0.24602 0.1099 0.60356 0.0
H86 H 0.257 0.08536 0.52794 0.0
H87 H 0.28394 0.12008 0.54285 0.0
H88 H 0.28602 0.00853 0.92351 0.0
H89 H 0.24645 0.01057 0.90391 0.0
H90 H 0.26953 0.03822 0.96358 0.0
C91 C 0.52929 0.28078 0.35316 0.0
N92 N 0.54121 0.31278 0.33326 0.0
N93 N 0.54517 0.26444 0.42248 0.0
C94 C 0.50122 0.26574 0.30974 0.0
C95 C 0.56714 0.2878 0.44282 0.0
N96 N 0.5645 0.31701 0.3901 0.0
C97 C 0.59174 0.28233 0.51347 0.0
H98 H 0.4875 0.24543 0.36532 0.0
H99 H 0.50834 0.25619 0.2482 0.0
H100 H 0.48696 0.28348 0.28085 0.0
H101 H 0.59785 0.25876 0.51665 0.0
H102 H 0.58345 0.2828 0.58788 0.0
H103 H 0.61246 0.3016 0.49132 0.0
Nd104 Nd 0.01749 0.02055 0.86438 0.0
Nd105 Nd 0.03951 0.04864 0.05201 0.0
C106 C 0.98811 0.98567 0.74926 0.0
C107 C 0.99234 0.95822 0.70709 0.0
C108 C 0.96735 0.93306 0.70782 0.0
C109 C 0.97025 0.90756 0.66543 0.0
C110 C 0.99829 0.90636 0.62041 0.0
C111 C 0.02359 0.93121 0.62208 0.0
C112 C 0.02066 0.95679 0.66475 0.0
C113 C 0.08067 0.03202 0.86714 0.0
C114 C 0.03669 0.97462 0.06362 0.0
C115 C 0.06378 0.08306 0.17705 0.0
C116 C 0.06148 0.11173 0.21487 0.0
C117 C 0.0801 0.11894 0.28994 0.0
C118 C 0.07857 0.14557 0.32829 0.0
C119 C 0.05835 0.16601 0.29262 0.0
C120 C 0.03945 0.15855 0.2175 0.0
C121 C 0.04104 0.13176 0.17896 0.0
C122 C 0.97779 0.02441 0.04704 0.0
C123 C 0.02456 0.09697 0.84583 0.0
O124 O 0.98182 0.97949 0.84425 0.0
O125 O 0.00672 0.01345 0.71565 0.0
O126 O 0.06549 0.02161 0.79897 0.0
O127 O 0.06208 0.03615 0.9284 0.0
O128 O 0.0168 0.97784 0.99478 0.0
O129 O 0.05337 0.99971 0.08926 0.0
O130 O 0.07465 0.08775 0.08659 0.0
O131 O 0.04125 0.05814 0.20143 0.0
O132 O 0.99263 0.02203 0.12645 0.0
O133 O 0.99519 0.04101 0.97465 0.0
O134 O 0.03707 0.0933 0.93169 0.0
O135 O 0.0124 0.0728 0.80681 0.0
H136 H 0.94533 0.93327 0.74052 0.0
H137 H 0.95032 0.88873 0.66781 0.0
H138 H 0.0455 0.93144 0.58788 0.0
H139 H 0.04049 0.97566 0.66342 0.0
H140 H 0.09588 0.1038 0.31953 0.0
H141 H 0.09306 0.14982 0.38724 0.0
H142 H 0.02372 0.17367 0.18738 0.0
H143 H 0.02636 0.12672 0.12111 0.0
Nd144 Nd 0.53342 0.02711 0.86368 0.0
Nd145 Nd 0.53339 0.07454 0.02079 0.0
C146 C 0.54234 0.98102 0.78073 0.0
C147 C 0.56488 0.97916 0.70464 0.0
C148 C 0.59263 0.97014 0.73236 0.0
C149 C 0.61564 0.97212 0.66166 0.0
C150 C 0.6114 0.9829 0.56136 0.0
C151 C 0.58296 0.99 0.5331 0.0
C152 C 0.55993 0.98819 0.60404 0.0
C153 C 0.53841 0.09133 0.76884 0.0
C154 C 0.59827 0.06478 0.93578 0.0
C155 C 0.52512 0.12027 0.1059 0.0
C156 C 0.50259 0.11903 0.18459 0.0
C157 C 0.50207 0.14566 0.22393 0.0
C158 C 0.47925 0.14419 0.29546 0.0
C159 C 0.45664 0.11613 0.3277 0.0
C160 C 0.45785 0.08937 0.28939 0.0
C161 C 0.48056 0.09081 0.21868 0.0
C162 C 0.52784 0.01019 0.116 0.0
C163 C 0.46854 0.03708 0.94864 0.0
O164 O 0.5534 0.98479 0.86445 0.0
O165 O 0.52182 0.99844 0.75232 0.0
O166 O 0.53685 0.06851 0.7228 0.0
O167 O 0.53809 0.0789 0.85926 0.0
O168 O 0.58361 0.04163 0.89667 0.0
O169 O 0.58442 0.08321 0.97663 0.0
O170 O 0.51336 0.11675 0.02282 0.0
O171 O 0.54599 0.10312 0.13145 0.0
O172 O 0.52909 0.03299 0.1619 0.0
O173 O 0.52895 0.02271 0.02541 0.0
O174 O 0.48327 0.06035 0.98707 0.0
O175 O 0.4823 0.01855 0.90778 0.0
H176 H 0.59703 0.96247 0.80907 0.0
H177 H 0.63703 0.96577 0.68569 0.0
H178 H 0.57894 0.9983 0.45634 0.0
H179 H 0.53867 0.99487 0.58001 0.0
H180 H 0.51896 0.16762 0.19849 0.0
H181 H 0.47882 0.16518 0.32363 0.0
H182 H 0.4411 0.06725 0.31395 0.0
H183 H 0.4807 0.06995 0.18949 0.0
Nd184 Nd 0.51158 0.54682 0.03133 0.0
Nd185 Nd 0.55294 0.55374 0.85826 0.0
C186 C 0.46899 0.54936 0.16051 0.0
C187 C 0.46748 0.56943 0.23068 0.0
C188 C 0.44164 0.5827 0.23772 0.0
C189 C 0.44184 0.6055 0.2934 0.0
C190 C 0.46798 0.6153 0.34236 0.0
C191 C 0.49298 0.60033 0.34042 0.0
C192 C 0.49284 0.57778 0.28458 0.0
C193 C 0.57232 0.55241 0.07482 0.0
C194 C 0.5368 0.61904 0.88433 0.0
C195 C 0.59515 0.54984 0.73028 0.0
C196 C 0.60212 0.52306 0.69263 0.0
C197 C 0.59834 0.523 0.59339 0.0
C198 C 0.59835 0.49519 0.56058 0.0
C199 C 0.60235 0.46704 0.62656 0.0
C200 C 0.60888 0.46807 0.72381 0.0
C201 C 0.6086 0.49575 0.75675 0.0
C202 C 0.49237 0.54985 0.81581 0.0
C203 C 0.52717 0.48166 1.00186 0.0
O204 O 0.47026 0.56403 0.06782 0.0
O205 O 0.48782 0.52969 0.1788 0.0
O206 O 0.54967 0.53473 0.13274 0.0
O207 O 0.56263 0.56867 0.99955 0.0
O208 O 0.51513 0.59993 0.94801 0.0
O209 O 0.55853 0.60745 0.84934 0.0
O210 O 0.60022 0.54954 0.82219 0.0
O211 O 0.56917 0.55778 0.70522 0.0
O212 O 0.51515 0.56859 0.76039 0.0
O213 O 0.50169 0.53239 0.88973 0.0
O214 O 0.54955 0.50073 0.9412 0.0
O215 O 0.50502 0.49342 0.03349 0.0
H216 H 0.42188 0.57655 0.19654 0.0
H217 H 0.42236 0.61684 0.29318 0.0
H218 H 0.51327 0.60721 0.3785 0.0
H219 H 0.51311 0.56792 0.2804 0.0
H220 H 0.59344 0.54385 0.54255 0.0
H221 H 0.59317 0.49519 0.48529 0.0
H222 H 0.61272 0.44695 0.77584 0.0
H223 H 0.61187 0.4951 0.83357 0.0
Nd224 Nd 0.0287 0.55088 0.87379 0.0
Nd225 Nd 0.03233 0.51061 0.08115 0.0
C226 C 0.0139 0.58889 0.71301 0.0
C227 C 0.98839 0.58713 0.64589 0.0
C228 C 0.99322 0.5814 0.55283 0.0
C229 C 0.96951 0.57951 0.48876 0.0
C230 C 0.94049 0.58387 0.51524 0.0
C231 C 0.93545 0.58923 0.6087 0.0
C232 C 0.95914 0.59092 0.67329 0.0
C233 C 0.03001 0.48774 0.87782 0.0
C234 C 0.96498 0.51973 0.01769 0.0
C235 C 0.04431 0.46795 0.23425 0.0
C236 C 0.07034 0.47097 0.29818 0.0
C237 C 0.06708 0.45675 0.39912 0.0
C238 C 0.09185 0.4617 0.45874 0.0
C239 C 0.1205 0.48063 0.41807 0.0
C240 C 0.12347 0.49416 0.31636 0.0
C241 C 0.09863 0.49002 0.25822 0.0
C242 C 0.04335 0.57479 0.09287 0.0
C243 C 0.09515 0.54334 0.94148 0.0
O244 O 0.00786 0.59177 0.80162 0.0
O245 O 0.03248 0.56937 0.71194 0.0
O246 O 0.04305 0.51219 0.8099 0.0
O247 O 0.01503 0.49664 0.94084 0.0
O248 O 0.97849 0.53919 0.93555 0.0
O249 O 0.98032 0.50312 0.0829 0.0
O250 O 0.05136 0.46774 0.14343 0.0
O251 O 0.02476 0.48625 0.23987 0.0
O252 O 0.04232 0.55067 0.16641 0.0
O253 O 0.03812 0.56444 0.01631 0.0
O254 O 0.08 0.51846 1.00737 0.0
O255 O 0.08072 0.56444 0.88865 0.0
H256 H 0.01541 0.57832 0.52945 0.0
H257 H 0.97387 0.5746 0.41814 0.0
H258 H 0.91334 0.59275 0.63113 0.0
H259 H 0.95453 0.59534 0.74438 0.0
H260 H 0.0453 0.44234 0.43208 0.0
H261 H 0.08823 0.4512 0.53677 0.0
H262 H 0.14503 0.50812 0.28057 0.0
H263 H 0.10149 0.50215 0.18161 0.0
H264 H 0.22403 0.07232 0.89501 0.0
H265 H 0.22174 0.0369 0.63226 0.0
H266 H 0.16596 0.02399 0.64667 0.0
H267 H 0.11829 0.02301 0.73227 0.0
H268 H 0.11835 0.05763 0.99646 0.0
H269 H 0.17467 0.07051 0.98444 0.0
C270 C 0.21107 0.0618 0.84142 0.0
C271 C 0.22663 0.056 0.76168 0.0
C272 C 0.17886 0.05429 0.85074 0.0
C273 C 0.20999 0.04214 0.69268 0.0
C274 C 0.17822 0.0346 0.70133 0.0
C275 C 0.13056 0.03337 0.78748 0.0
C276 C 0.11434 0.0395 0.86493 0.0
C277 C 0.16249 0.04068 0.77967 0.0
C278 C 0.13049 0.05279 0.93606 0.0
C279 C 0.1626 0.06014 0.92905 0.0
H280 H 0.53946 0.23945 0.61765 0.0
H281 H 0.53706 0.21362 0.33897 0.0
H282 H 0.53305 0.15713 0.42295 0.0
H283 H 0.53405 0.11585 0.575 0.0
H284 H 0.54133 0.14264 0.85246 0.0
H285 H 0.54028 0.19815 0.76999 0.0
C286 C 0.53821 0.22144 0.57541 0.0
C287 C 0.53896 0.23077 0.47205 0.0
C288 C 0.5371 0.18929 0.62413 0.0
C289 C 0.53637 0.20705 0.41835 0.0
C290 C 0.53437 0.17483 0.46641 0.0
C291 C 0.53532 0.13382 0.61757 0.0
C292 C 0.53756 0.12506 0.7202 0.0
C293 C 0.53535 0.16578 0.56912 0.0
C294 C 0.53923 0.14864 0.77398 0.0
C295 C 0.53874 0.1804 0.7266 0.0
H296 H 0.3649 0.56805 0.64462 0.0
H297 H 0.33152 0.51316 0.93429 0.0
H298 H 0.38392 0.50919 0.97838 0.0
H299 H 0.43982 0.52186 0.93365 0.0
H300 H 0.47227 0.57767 0.6428 0.0
H301 H 0.42004 0.58019 0.59957 0.0
C302 C 0.36919 0.55504 0.71703 0.0
C303 C 0.34448 0.54094 0.78616 0.0
C304 C 0.39932 0.55289 0.74148 0.0
C305 C 0.35028 0.52447 0.8803 0.0
C306 C 0.3802 0.52208 0.90522 0.0
C307 C 0.43535 0.53436 0.86075 0.0
C308 C 0.45999 0.54942 0.79155 0.0
C309 C 0.40501 0.53623 0.8364 0.0
C310 C 0.45382 0.56583 0.69761 0.0
C311 C 0.4239 0.56739 0.67267 0.0
H312 H 0.03767 0.34838 0.83486 0.0
H313 H 1.00215 0.38307 0.55489 0.0
H314 H 1.00196 0.43426 0.59612 0.0
H315 H 0.01156 0.46947 0.71225 0.0
H316 H 0.04016 0.43265 1.00073 0.0
H317 H 0.04166 0.38146 0.95838 0.0
C318 C 0.02915 0.36673 0.78355 0.0
C319 C 0.02019 0.36151 0.69088 0.0
C320 C 0.02727 0.39564 0.8104 0.0
C321 C 0.01008 0.38635 0.62513 0.0
C322 C 0.00949 0.4156 0.64945 0.0
C323 C 0.01755 0.44999 0.76658 0.0
C324 C 0.02543 0.45481 0.86013 0.0
C325 C 0.01794 0.42051 0.74191 0.0
C326 C 0.03342 0.42944 0.92916 0.0
C327 C 0.03462 0.40028 0.90432 0.0
H328 H 0.83461 0.99554 0.11958 0.0
H329 H 0.85313 0.09732 0.09418 0.0
H330 H 0.9075 0.10062 0.05479 0.0
H331 H 0.94997 0.0739 0.03517 0.0
H332 H 0.93251 0.97141 0.07467 0.0
H333 H 0.87744 0.96859 0.10067 0.0
C334 C 0.85076 0.01828 0.10549 0.0
C335 C 0.84031 0.0462 0.10933 0.0
C336 C 0.88194 0.01972 0.0852 0.0
C337 C 0.86102 0.0757 0.09091 0.0
C338 C 0.89194 0.07752 0.0686 0.0
C339 C 0.93391 0.05109 0.04802 0.0
C340 C 0.94477 0.02293 0.05166 0.0
C341 C 0.90267 0.04966 0.06618 0.0
C342 C 0.92424 0.99332 0.07049 0.0
C343 C 0.89293 0.99174 0.08581 0.0
H344 H 0.5344 0.86387 0.26265 0.0
H345 H 0.52268 0.88517 0.54418 0.0
H346 H 0.52481 0.94157 0.46365 0.0
H347 H 0.52638 0.98402 0.31185 0.0
H348 H 0.53 0.9602 0.03102 0.0
H349 H 0.53339 0.90533 0.1117 0.0
C350 C 0.53176 0.88069 0.30642 0.0
C351 C 0.52798 0.87008 0.40951 0.0
C352 C 0.53114 0.91257 0.25923 0.0
C353 C 0.52588 0.89262 0.46505 0.0
C354 C 0.52671 0.92481 0.41881 0.0
C355 C 0.52789 0.9668 0.26824 0.0
C356 C 0.52852 0.97641 0.16484 0.0
C357 C 0.52874 0.93493 0.31579 0.0
C358 C 0.53019 0.95371 0.10991 0.0
C359 C 0.53197 0.92225 0.15635 0.0
H360 H 0.70086 0.53032 0.22876 0.0
H361 H 0.73308 0.59675 0.95383 0.0
H362 H 0.68033 0.60082 0.9152 0.0
H363 H 0.62451 0.58521 0.96067 0.0
H364 H 0.59323 0.5187 0.23761 0.0
H365 H 0.64572 0.51537 0.27512 0.0
C366 C 0.69624 0.54586 0.16088 0.0
C367 C 0.72076 0.56319 0.09419 0.0
C368 C 0.66591 0.54818 0.13973 0.0
C369 C 0.71452 0.58295 1.00576 0.0
C370 C 0.68438 0.58538 0.98401 0.0
C371 C 0.62926 0.57011 0.02922 0.0
C372 C 0.60486 0.55227 0.09613 0.0
C373 C 0.65979 0.56808 0.05044 0.0
C374 C 0.61146 0.53277 0.18469 0.0
C375 C 0.64155 0.53076 0.20632 0.0
H376 H 0.06819 0.72117 0.11554 0.0
H377 H 1.00382 0.68068 0.36527 0.0
H378 H 1.00138 0.6275 0.33702 0.0
H379 H 0.01597 0.59184 0.23997 0.0
H380 H 0.07327 0.63237 0.97444 0.0
H381 H 0.07861 0.6861 1.00692 0.0
C382 C 0.05305 0.7009 0.16278 0.0
C383 C 0.03657 0.70541 0.24392 0.0
C384 C 0.04999 0.67021 0.14207 0.0
C385 C 0.01768 0.67828 0.30477 0.0
C386 C 0.01581 0.6477 0.28759 0.0
C387 C 0.02947 0.61248 0.18864 0.0
C388 C 0.04432 0.60803 0.1049 0.0
C389 C 0.03168 0.64331 0.20644 0.0
C390 C 0.06146 0.63509 0.03893 0.0
C391 C 0.06465 0.66579 0.05804 0.0
H392 H 0.057 0.24549 0.68743 0.0
H393 H 0.96003 0.23527 0.73502 0.0
H394 H 0.95401 0.17659 0.78562 0.0
H395 H 0.97737 0.12829 0.81912 0.0
H396 H 0.07444 0.1399 0.76291 0.0
H397 H 0.07952 0.19793 0.70769 0.0
C398 C 0.03462 0.23023 0.70886 0.0
C399 C 0.00909 0.24429 0.70985 0.0
C400 C 0.0314 0.19689 0.73347 0.0
C401 C 0.98004 0.22469 0.73677 0.0
C402 C 0.97662 0.19128 0.76414 0.0
C403 C 0.99938 0.14361 0.79204 0.0
C404 C 0.02546 0.13014 0.79289 0.0
C405 C 1.00219 0.17708 0.7626 0.0
C406 C 0.05409 0.14999 0.76079 0.0
C407 C 0.05703 0.18308 0.73052 0.0
H408 H 0.33581 0.0635 0.92317 0.0
H409 H 0.33707 0.01997 0.678 0.0
H410 H 0.38648 1.00607 0.72212 0.0
H411 H 0.43182 0.01227 0.81954 0.0
H412 H 0.43056 0.05699 0.06362 0.0
H413 H 0.3784 0.06367 0.03305 0.0
C414 C 0.34677 0.05035 0.88123 0.0
C415 C 0.33347 0.04315 0.79701 0.0
C416 C 0.37512 0.04274 0.9068 0.0
C417 C 0.34746 0.02611 0.74234 0.0
C418 C 0.37557 0.01818 0.76763 0.0
C419 C 0.41985 0.02272 0.86753 0.0
C420 C 0.43518 0.03445 0.94288 0.0
C421 C 0.39004 0.02721 0.84814 0.0
C422 C 0.4194 0.04808 1.00426 0.0
C423 C 0.38958 0.05202 0.98675 0.0
H424 H 0.55333 0.32886 0.56206 0.0
H425 H 0.60091 0.37081 0.28018 0.0
H426 H 0.61807 0.42173 0.32892 0.0
H427 H 0.61857 0.45402 0.45309 0.0
H428 H 0.57018 0.41034 0.73497 0.0
H429 H 0.55523 0.35991 0.68658 0.0
C430 C 0.56784 0.34913 0.51223 0.0
C431 C 0.57601 0.34648 0.41828 0.0
C432 C 0.5777 0.37773 0.5413 0.0
C433 C 0.59431 0.37272 0.35274 0.0
C434 C 0.60416 0.40161 0.38085 0.0
C435 C 0.60485 0.43341 0.50387 0.0
C436 C 0.59579 0.43593 0.59787 0.0
C437 C 0.59585 0.40441 0.47504 0.0
C438 C 0.5781 0.40896 0.66307 0.0
C439 C 0.56922 0.38015 0.63518 0.0
H440 H 0.23022 0.52088 0.91796 0.0
H441 H 0.23834 0.59911 0.66437 0.0
H442 H 0.18611 0.60529 0.7 0.0
H443 H 0.13648 0.58527 0.79864 0.0
H444 H 0.12921 0.50375 0.04513 0.0
H445 H 0.18223 0.50247 0.01871 0.0
C446 C 0.22064 0.53972 0.87235 0.0
C447 C 0.23785 0.55972 0.78971 0.0
C448 C 0.19052 0.54246 0.89201 0.0
C449 C 0.22527 0.58363 0.72894 0.0
C450 C 0.19544 0.58701 0.7491 0.0
C451 C 0.14662 0.56753 0.84717 0.0
C452 C 0.12855 0.54506 0.92499 0.0
C453 C 0.17751 0.5661 0.82966 0.0
C454 C 0.14224 0.52195 0.98608 0.0
C455 C 0.17278 0.5209 0.97063 0.0
H456 H 0.07322 0.84209 0.24873 0.0
H457 H 0.98682 0.80706 0.13903 0.0
H458 H 0.97988 0.86209 0.07648 0.0
H459 H 0.99811 0.91956 0.05567 0.0
H460 H 0.08334 0.95548 0.17287 0.0
H461 H 0.09068 0.90045 0.23353 0.0
C462 C 0.05313 0.84679 0.21005 0.0
C463 C 0.03101 0.82094 0.19497 0.0
C464 C 0.04888 0.87837 0.17793 0.0
C465 C 0.00458 0.82683 0.14751 0.0
C466 C 1.00047 0.85815 0.11334 0.0
C467 C 0.01835 0.9155 0.09453 0.0
C468 C 0.04028 0.94165 0.10911 0.0
C469 C 0.02244 0.88404 0.1284 0.0
C470 C 0.06609 0.93579 0.1609 0.0
C471 C 0.07039 0.90437 0.1949 0.0
H472 H 0.73146 0.03989 0.97048 0.0
H473 H 0.73057 0.09043 0.19951 0.0
H474 H 0.68055 0.10229 0.15318 0.0
H475 H 0.63507 0.09307 0.05824 0.0
H476 H 0.63624 0.04158 0.83002 0.0
H477 H 0.68858 0.03616 0.86283 0.0
C478 C 0.72058 0.05426 1.008 0.0
C479 C 0.73426 0.06426 0.08808 0.0
C480 C 0.69194 0.0607 0.98121 0.0
C481 C 0.72003 0.08241 0.13796 0.0
C482 C 0.69156 0.08913 0.11148 0.0
C483 C 0.647 0.08134 0.01413 0.0
C484 C 0.63162 0.06745 0.94261 0.0
C485 C 0.67695 0.07768 0.03472 0.0
C486 C 0.64742 0.0522 0.88632 0.0
C487 C 0.67734 0.04899 0.90514 0.0
H488 H 0.46259 0.73364 0.52683 0.0
H489 H 0.55026 0.7674 0.36853 0.0
H490 H 0.54526 0.71735 0.31457 0.0
H491 H 0.51556 0.66507 0.30951 0.0
H492 H 0.42689 0.63034 0.46291 0.0
H493 H 0.43229 0.67969 0.52212 0.0
C494 C 0.4803 0.72973 0.48023 0.0
C495 C 0.50663 0.75371 0.45032 0.0
C496 C 0.47707 0.70093 0.44935 0.0
C497 C 0.52982 0.74894 0.39087 0.0
C498 C 0.52697 0.72047 0.3606 0.0
C499 C 0.4976 0.66803 0.35728 0.0
C500 C 0.4711 0.644 0.38323 0.0
C501 C 0.5007 0.69639 0.38922 0.0
C502 C 0.44759 0.64854 0.44262 0.0
C503 C 0.45067 0.67671 0.47624 0.0
H504 H 0.83159 0.50981 0.19553 0.0
H505 H 0.83156 0.58464 0.93626 0.0
H506 H 0.88185 0.57875 0.88034 0.0
H507 H 0.9274 0.55523 0.91204 0.0
H508 H 0.9285 0.48196 0.17625 0.0
H509 H 0.87645 0.4844 0.22367 0.0
C510 C 0.84264 0.52459 0.12656 0.0
C511 C 0.82806 0.54762 0.06988 0.0
C512 C 0.87184 0.52154 0.09634 0.0
C513 C 0.84233 0.56657 0.98031 0.0
C514 C 0.87113 0.56336 0.94891 0.0
C515 C 0.91619 0.53945 0.97942 0.0
C516 C 0.93207 0.51849 0.04045 0.0
C517 C 0.88635 0.5413 1.00717 0.0
C518 C 0.917 0.49836 0.12767 0.0
C519 C 0.88719 0.49978 0.15511 0.0
H520 H 0.07554 0.28148 0.50772 0.0
H521 H 0.97795 0.26527 0.4915 0.0
H522 H 0.9796 0.22538 0.39498 0.0
H523 H 0.00835 0.19093 0.33008 0.0
H524 H 0.10628 0.20645 0.34971 0.0
H525 H 0.10497 0.25004 0.43013 0.0
C526 C 0.05488 0.26999 0.47972 0.0
C527 C 0.0267 0.27688 0.50451 0.0
C528 C 0.05598 0.24616 0.42705 0.0
C529 C 0.99992 0.26095 0.471 0.0
C530 C 1.00086 0.2378 0.41709 0.0
C531 C 0.02952 0.20414 0.35023 0.0
C532 C 0.05733 0.19473 0.33442 0.0
C533 C 0.02869 0.22953 0.39674 0.0
C534 C 0.08437 0.21231 0.36253 0.0
C535 C 0.08372 0.23758 0.40808 0.0
H536 H 0.36336 0.10723 0.6815 0.0
H537 H 0.30166 0.06243 0.49652 0.0
H538 H 0.34269 0.07354 0.36906 0.0
H539 H 0.39658 0.0929 0.31466 0.0
H540 H 0.45975 0.13573 0.50058 0.0
H541 H 0.41785 0.1287 0.62335 0.0
C542 C 0.35906 0.1003 0.61265 0.0
C543 C 0.32959 0.08442 0.59734 0.0
C544 C 0.38302 0.10617 0.54064 0.0
C545 C 0.32404 0.07531 0.5085 0.0
C546 C 0.34754 0.08135 0.43629 0.0
C547 C 0.40119 0.10069 0.38211 0.0
C548 C 0.43123 0.11449 0.39905 0.0
C549 C 0.37718 0.0963 0.4522 0.0
C550 C 0.43678 0.12512 0.48578 0.0
C551 C 0.41287 0.12095 0.55611 0.0
H552 H 0.56428 0.34724 0.15563 0.0
H553 H 0.49397 0.33782 0.37799 0.0
H554 H 0.48102 0.38847 0.28978 0.0
H555 H 0.49348 0.4381 0.15743 0.0
H556 H 0.56567 0.44807 0.93839 0.0
H557 H 0.574 0.39483 0.01595 0.0
C558 C 0.54561 0.35603 0.18283 0.0
C559 C 0.5297 0.33878 0.272 0.0
C560 C 0.53897 0.38554 0.13281 0.0
C561 C 0.50601 0.35052 0.30844 0.0
C562 C 0.4989 0.3796 0.25845 0.0
C563 C 0.51067 0.42844 0.12554 0.0
C564 C 0.52898 0.44739 0.04203 0.0
C565 C 0.51572 0.39775 0.17165 0.0
C566 C 0.55129 0.43432 1.00261 0.0
C567 C 0.55614 0.40378 0.04711 0.0
H568 H 0.22654 0.48713 0.71733 0.0
H569 H 0.25985 0.577 0.51111 0.0
H570 H 0.21548 0.56714 0.41229 0.0
H571 H 0.16655 0.53413 0.38996 0.0
H572 H 0.13507 0.44132 0.58775 0.0
H573 H 0.17877 0.4516 0.68687 0.0
C574 C 0.22413 0.50407 0.64961 0.0
C575 C 0.24626 0.53252 0.61993 0.0
C576 C 0.19869 0.49802 0.59335 0.0
C577 C 0.2431 0.5548 0.53352 0.0
C578 C 0.21769 0.54924 0.47796 0.0
C579 C 0.16937 0.51559 0.45312 0.0
C580 C 0.14719 0.4868 0.48009 0.0
C581 C 0.19524 0.52103 0.50764 0.0
C582 C 0.15119 0.46393 0.56516 0.0
C583 C 0.17646 0.46962 0.62161 0.0
H584 H 0.98585 0.80094 0.36799 0.0
H585 H 0.07681 0.79725 0.45917 0.0
H586 H 0.07366 0.83635 0.55817 0.0
H587 H 0.04574 0.8743 0.61092 0.0
H588 H 0.95559 0.87942 0.50907 0.0
H589 H 0.95778 0.83763 0.42244 0.0
C590 C 0.00469 0.80826 0.41134 0.0
C591 C 0.03127 0.79564 0.40801 0.0
C592 C 1.003 0.83155 0.46516 0.0
C593 C 0.0558 0.80583 0.46283 0.0
C594 C 0.05411 0.82859 0.51817 0.0
C595 C 0.02656 0.86635 0.56974 0.0
C596 C 1.00037 0.88018 0.56809 0.0
C597 C 0.02799 0.84211 0.51863 0.0
C598 C 0.97581 0.8691 0.51419 0.0
C599 C 0.97707 0.84517 0.46378 0.0
H600 H 0.70718 1.00231 0.20491 0.0
H601 H 0.76593 0.04824 0.39452 0.0
H602 H 0.72415 0.0342 0.52136 0.0
H603 H 0.67032 0.01151 0.5741 0.0
H604 H 0.61038 0.96776 0.38175 0.0
H605 H 0.6529 0.97911 0.25857 0.0
C606 C 0.71067 0.0091 0.27426 0.0
C607 C 0.73951 0.02604 0.29118 0.0
C608 C 0.68628 1.00174 0.34534 0.0
C609 C 0.74403 0.03471 0.38105 0.0
C610 C 0.72009 0.02695 0.45291 0.0
C611 C 0.66663 1.004 0.50586 0.0
C612 C 0.63726 0.98861 0.48745 0.0
C613 C 0.69107 0.01076 0.43545 0.0
C614 C 0.63273 0.97976 0.39756 0.0
C615 C 0.65705 0.98612 0.32733 0.0
H616 H 0.49682 0.75024 0.70596 0.0
H617 H 0.58404 0.77083 0.54778 0.0
H618 H 0.59541 0.72019 0.64259 0.0
H619 H 0.57769 0.6673 0.75887 0.0
H620 H 0.48987 0.64761 0.9169 0.0
H621 H 0.48169 0.70044 0.83534 0.0
C622 C 0.51874 0.74403 0.69526 0.0
C623 C 0.53993 0.76444 0.62209 0.0
C624 C 0.52473 0.7147 0.74902 0.0
C625 C 0.56786 0.75584 0.60587 0.0
C626 C 0.57409 0.7267 0.65915 0.0
C627 C 0.55698 0.67473 0.7767 0.0
C628 C 0.53436 0.65311 0.84384 0.0
C629 C 0.55232 0.70548 0.72926 0.0
C630 C 0.50772 0.66344 0.86579 0.0
C631 C 0.50292 0.69375 0.81884 0.0
H632 H 0.85253 0.5962 0.16335 0.0
H633 H 0.78927 0.52984 0.38467 0.0
H634 H 0.8281 0.53229 0.50646 0.0
H635 H 0.88095 0.55184 0.54803 0.0
H636 H 0.94506 0.61542 0.32245 0.0
H637 H 0.9055 0.61488 0.2037 0.0
C638 C 0.84741 0.58219 0.23817 0.0
C639 C 0.81814 0.56289 0.26529 0.0
C640 C 0.87015 0.58296 0.30663 0.0
C641 C 0.81155 0.54514 0.3627 0.0
C642 C 0.83382 0.54636 0.43195 0.0
C643 C 0.88614 0.56573 0.47304 0.0
C644 C 0.91595 0.58361 0.4442 0.0
C645 C 0.8633 0.56502 0.40462 0.0
C646 C 0.92243 0.6012 0.34637 0.0
C647 C 0.89976 0.60104 0.27849 0.0
loop_
_geom_bond_atom_site_label_1
_geom_bond_atom_site_label_2
_geom_bond_distance
_geom_bond_site_symmetry_2
_ccdc_geom_bond_type
C0 N1 1.317 . S
C0 N2 1.348 1_554 S
C0 C3 1.485 . S
N1 C0 1.317 . S
N1 N5 1.370 1_554 S
N2 C0 1.348 1_556 S
N2 C4 1.346 . S
C3 C0 1.485 . S
C3 H7 0.960 . S
C3 H8 0.961 . S
C3 H9 0.960 . S
C4 N2 1.346 . S
C4 N5 1.307 . S
C4 C6 1.486 . S
N5 N1 1.370 1_556 S
N5 C4 1.307 . S
C6 C4 1.486 . S
C6 H10 0.960 . S
C6 H11 0.960 . S
C6 H12 0.959 . S
H7 C3 0.960 . S
H8 C3 0.961 . S
H9 C3 0.960 . S
H10 C6 0.960 . S
H11 C6 0.960 . S
H12 C6 0.959 . S
C13 N14 1.317 . S
C13 N15 1.348 . S
C13 C16 1.485 . S
N14 C13 1.317 . S
N14 N18 1.370 . S
N15 C13 1.348 . S
N15 C17 1.346 . S
C16 C13 1.485 . S
C16 H20 0.960 1_655 S
C16 H21 0.961 . S
C16 H22 0.960 . S
C17 N15 1.346 . S
C17 N18 1.307 . S
C17 C19 1.486 1_554 S
N18 N14 1.370 . S
N18 C17 1.307 . S
C19 C17 1.486 1_556 S
C19 H23 0.960 . S
C19 H24 0.960 1_655 S
C19 H25 0.959 . S
H20 C16 0.960 1_455 S
H21 C16 0.961 . S
H22 C16 0.960 . S
H23 C19 0.960 . S
H24 C19 0.960 1_455 S
H25 C19 0.959 . S
C26 N27 1.317 . S
C26 N28 1.348 . S
C26 C29 1.485 . S
N27 C26 1.317 . S
N27 N31 1.370 . S
N28 C26 1.348 . S
N28 C30 1.346 1_554 S
C29 C26 1.485 . S
C29 H33 0.960 . S
C29 H34 0.961 . S
C29 H35 0.960 . S
C30 N28 1.346 1_556 S
C30 N31 1.307 1_556 S
C30 C32 1.486 . S
N31 N27 1.370 . S
N31 C30 1.307 1_554 S
C32 C30 1.486 . S
C32 H36 0.960 . S
C32 H37 0.960 . S
C32 H38 0.959 . S
H33 C29 0.960 . S
H34 C29 0.961 . S
H35 C29 0.960 . S
H36 C32 0.960 . S
H37 C32 0.960 . S
H38 C32 0.959 . S
C39 N40 1.317 . S
C39 N41 1.348 . S
C39 C42 1.485 . S
N40 C39 1.317 . S
N40 N44 1.370 . S
N41 C39 1.348 . S
N41 C43 1.346 . S
C42 C39 1.485 . S
C42 H46 0.960 . S
C42 H47 0.961 . S
C42 H48 0.960 . S
C43 N41 1.346 . S
C43 N44 1.307 . S
C43 C45 1.486 . S
N44 N40 1.370 . S
N44 C43 1.307 . S
C45 C43 1.486 . S
C45 H49 0.960 . S
C45 H50 0.960 . S
C45 H51 0.959 . S
H46 C42 0.960 . S
H47 C42 0.961 . S
H48 C42 0.960 . S
H49 C45 0.960 . S
H50 C45 0.960 . S
H51 C45 0.959 . S
C52 N53 1.317 . S
C52 N54 1.348 . S
C52 C55 1.485 . S
N53 C52 1.317 . S
N53 N57 1.370 . S
N54 C52 1.348 . S
N54 C56 1.346 . S
C55 C52 1.485 . S
C55 H59 0.960 . S
C55 H60 0.961 . S
C55 H61 0.960 . S
C56 N54 1.346 . S
C56 N57 1.307 . S
C56 C58 1.486 1_556 S
N57 N53 1.370 . S
N57 C56 1.307 . S
C58 C56 1.486 1_554 S
C58 H62 0.960 . S
C58 H63 0.960 . S
C58 H64 0.959 . S
H59 C55 0.960 . S
H60 C55 0.961 . S
H61 C55 0.960 . S
H62 C58 0.960 . S
H63 C58 0.960 . S
H64 C58 0.959 . S
C65 N66 1.317 . S
C65 N67 1.348 . S
C65 C68 1.485 . S
N66 C65 1.317 . S
N66 N70 1.370 . S
N67 C65 1.348 . S
N67 C69 1.346 . S
C68 C65 1.485 . S
C68 H72 0.960 . S
C68 H73 0.961 . S
C68 H74 0.960 . S
C69 N67 1.346 . S
C69 N70 1.307 . S
C69 C71 1.486 . S
N70 N66 1.370 . S
N70 C69 1.307 . S
C71 C69 1.486 . S
C71 H75 0.960 . S
C71 H76 0.960 . S
C71 H77 0.959 . S
H72 C68 0.960 . S
H73 C68 0.961 . S
H74 C68 0.960 . S
H75 C71 0.960 . S
H76 C71 0.960 . S
H77 C71 0.959 . S
C78 N79 1.317 . S
C78 N80 1.348 . S
C78 C81 1.485 . S
N79 C78 1.317 . S
N79 N83 1.370 . S
N80 C78 1.348 . S
N80 C82 1.346 . S
C81 C78 1.485 . S
C81 H85 0.960 . S
C81 H86 0.961 . S
C81 H87 0.960 . S
C82 N80 1.346 . S
C82 N83 1.307 . S
C82 C84 1.486 . S
N83 N79 1.370 . S
N83 C82 1.307 . S
C84 C82 1.486 . S
C84 H88 0.960 1_556 S
C84 H89 0.960 . S
C84 H90 0.959 1_556 S
H85 C81 0.960 . S
H86 C81 0.961 . S
H87 C81 0.960 . S
H88 C84 0.960 1_554 S
H89 C84 0.960 . S
H90 C84 0.959 1_554 S
C91 N92 1.317 . S
C91 N93 1.348 . S
C91 C94 1.485 . S
N92 C91 1.317 . S
N92 N96 1.370 . S
N93 C91 1.348 . S
N93 C95 1.346 . S
C94 C91 1.485 . S
C94 H98 0.960 . S
C94 H99 0.961 . S
C94 H100 0.960 . S
C95 N93 1.346 . S
C95 N96 1.307 . S
C95 C97 1.486 . S
N96 N92 1.370 . S
N96 C95 1.307 . S
C97 C95 1.486 . S
C97 H101 0.960 . S
C97 H102 0.960 . S
C97 H103 0.959 . S
H98 C94 0.960 . S
H99 C94 0.961 . S
H100 C94 0.960 . S
H101 C97 0.960 . S
H102 C97 0.960 . S
H103 C97 0.959 . S
Nd104 C106 2.836 1_545 S
Nd104 O124 2.500 1_445 S
Nd104 O125 2.492 . S
Nd104 O126 2.487 . S
Nd104 O127 2.682 . S
Nd104 O128 2.410 1_545 S
Nd104 O133 2.414 1_455 S
Nd104 O135 2.424 . S
Nd105 C115 2.836 . S
Nd105 O127 2.414 1_554 S
Nd105 O129 2.424 1_545 S
Nd105 O130 2.500 . S
Nd105 O131 2.492 . S
Nd105 O132 2.487 1_455 S
Nd105 O133 2.682 1_454 S
Nd105 O134 2.410 1_554 S
C106 Nd104 2.836 1_565 S
C106 C107 1.498 . S
C106 O124 1.258 1_455 S
C106 O125 1.239 1_565 S
C107 C106 1.498 . S
C107 C108 1.366 1_455 S
C107 C112 1.407 . S
C108 C107 1.366 1_655 S
C108 C109 1.392 . S
C108 H136 0.930 . S
C109 C108 1.392 . S
C109 C110 1.407 . S
C109 H137 0.929 . S
C110 C109 1.407 . S
C110 C111 1.343 1_655 S
C111 C110 1.343 1_455 S
C111 C112 1.384 . S
C111 H138 0.930 . S
C112 C107 1.407 . S
C112 C111 1.384 . S
C112 H139 0.929 . S
C113 O126 1.241 . S
C113 O127 1.273 . S
C114 O128 1.251 . S
C114 O129 1.268 1_556 S
C115 Nd105 2.836 . S
C115 C116 1.498 . S
C115 O130 1.258 . S
C115 O131 1.239 . S
C116 C115 1.498 . S
C116 C117 1.366 . S
C116 C121 1.407 . S
C117 C116 1.366 . S
C117 C118 1.392 . S
C117 H140 0.930 . S
C118 C117 1.392 . S
C118 C119 1.398 . S
C118 H141 0.929 . S
C119 C118 1.398 . S
C119 C120 1.352 . S
C120 C119 1.352 . S
C120 C121 1.384 . S
C120 H142 0.930 . S
C121 C116 1.407 . S
C121 C120 1.384 . S
C121 H143 0.929 . S
C122 O132 1.241 1_556 S
C122 O133 1.273 . S
C123 O134 1.251 . S
C123 O135 1.268 . S
O124 Nd104 2.500 1_665 S
O124 C106 1.258 1_655 S
O125 Nd104 2.492 . S
O125 C106 1.239 1_545 S
O126 Nd104 2.487 . S
O126 C113 1.241 . S
O127 Nd104 2.682 . S
O127 Nd105 2.414 1_556 S
O127 C113 1.273 . S
O128 Nd104 2.410 1_565 S
O128 C114 1.251 . S
O129 Nd105 2.424 1_565 S
O129 C114 1.268 1_554 S
O130 Nd105 2.500 . S
O130 C115 1.258 . S
O131 Nd105 2.492 . S
O131 C115 1.239 . S
O132 Nd105 2.487 1_655 S
O132 C122 1.241 1_554 S
O133 Nd104 2.414 1_655 S
O133 Nd105 2.682 1_656 S
O133 C122 1.273 . S
O134 Nd105 2.410 1_556 S
O134 C123 1.251 . S
O135 Nd104 2.424 . S
O135 C123 1.268 . S
H136 C108 0.930 . S
H137 C109 0.929 . S
H138 C111 0.930 . S
H139 C112 0.929 . S
H140 C117 0.930 . S
H141 C118 0.929 . S
H142 C120 0.930 . S
H143 C121 0.929 . S
Nd144 C146 2.834 1_545 S
Nd144 O164 2.500 1_545 S
Nd144 O165 2.492 . S
Nd144 O166 2.487 . S
Nd144 O167 2.682 . S
Nd144 O168 2.410 . S
Nd144 O173 2.414 . S
Nd144 O175 2.424 . S
Nd145 C155 2.836 . S
Nd145 O167 2.414 1_554 S
Nd145 O169 2.424 . S
Nd145 O170 2.500 . S
Nd145 O171 2.492 . S
Nd145 O172 2.487 1_545 S
Nd145 O173 2.682 1_554 S
Nd145 O174 2.410 . S
C146 Nd144 2.834 1_565 S
C146 C147 1.500 . S
C146 O164 1.259 . S
C146 O165 1.236 1_565 S
C147 C146 1.500 . S
C147 C148 1.366 . S
C147 C152 1.407 1_565 S
C148 C147 1.366 . S
C148 C149 1.392 . S
C148 H176 0.930 . S
C149 C148 1.392 . S
C149 C150 1.398 . S
C149 H177 0.929 . S
C150 C149 1.398 . S
C150 C151 1.352 . S
C151 C150 1.352 . S
C151 C152 1.384 1_565 S
C151 H178 0.930 1_565 S
C152 C147 1.407 1_545 S
C152 C151 1.384 1_545 S
C152 H179 0.929 . S
C153 O166 1.241 . S
C153 O167 1.273 . S
C154 O168 1.251 . S
C154 O169 1.268 1_556 S
C155 Nd145 2.836 . S
C155 C156 1.498 . S
C155 O170 1.258 . S
C155 O171 1.239 . S
C156 C155 1.498 . S
C156 C157 1.366 . S
C156 C161 1.407 . S
C157 C156 1.366 . S
C157 C158 1.392 . S
C157 H180 0.930 . S
C158 C157 1.392 . S
C158 C159 1.398 . S
C158 H181 0.929 . S
C159 C158 1.398 . S
C159 C160 1.352 . S
C160 C159 1.352 . S
C160 C161 1.384 . S
C160 H182 0.930 . S
C161 C156 1.407 . S
C161 C160 1.384 . S
C161 H183 0.929 . S
C162 O172 1.241 . S
C162 O173 1.273 1_564 S
C163 O174 1.251 1_556 S
C163 O175 1.268 . S
O164 Nd144 2.500 1_565 S
O164 C146 1.259 . S
O165 Nd144 2.492 . S
O165 C146 1.236 1_545 S
O166 Nd144 2.487 . S
O166 C153 1.241 . S
O167 Nd144 2.682 . S
O167 Nd145 2.414 1_556 S
O167 C153 1.273 . S
O168 Nd144 2.410 . S
O168 C154 1.251 . S
O169 Nd145 2.424 . S
O169 C154 1.268 1_554 S
O170 Nd145 2.500 . S
O170 C155 1.258 . S
O171 Nd145 2.492 . S
O171 C155 1.239 . S
O172 Nd145 2.487 1_565 S
O172 C162 1.241 . S
O173 Nd144 2.414 . S
O173 Nd145 2.682 1_556 S
O173 C162 1.273 1_546 S
O174 Nd145 2.410 . S
O174 C163 1.251 1_554 S
O175 Nd144 2.424 . S
O175 C163 1.268 . S
H176 C148 0.930 . S
H177 C149 0.929 . S
H178 C151 0.930 1_545 S
H179 C152 0.929 . S
H180 C157 0.930 . S
H181 C158 0.929 . S
H182 C160 0.930 . S
H183 C161 0.929 . S
Nd184 C186 2.836 . S
Nd184 O204 2.500 . S
Nd184 O205 2.492 . S
Nd184 O206 2.487 . S
Nd184 O207 2.682 1_554 S
Nd184 O208 2.410 1_554 S
Nd184 O213 2.414 1_554 S
Nd184 O215 2.424 . S
Nd185 C195 2.836 . S
Nd185 O207 2.414 . S
Nd185 O209 2.424 . S
Nd185 O210 2.500 . S
Nd185 O211 2.492 . S
Nd185 O212 2.487 . S
Nd185 O213 2.682 . S
Nd185 O214 2.410 . S
C186 Nd184 2.836 . S
C186 C187 1.498 . S
C186 O204 1.258 . S
C186 O205 1.239 . S
C187 C186 1.498 . S
C187 C188 1.366 . S
C187 C192 1.407 . S
C188 C187 1.366 . S
C188 C189 1.392 . S
C188 H216 0.930 . S
C189 C188 1.392 . S
C189 C190 1.398 . S
C189 H217 0.929 . S
C190 C189 1.398 . S
C190 C191 1.352 . S
C191 C190 1.352 . S
C191 C192 1.384 . S
C191 H218 0.930 . S
C192 C187 1.407 . S
C192 C191 1.384 . S
C192 H219 0.929 . S
C193 O206 1.241 1_556 S
C193 O207 1.273 . S
C194 O208 1.251 . S
C194 O209 1.268 . S
C195 Nd185 2.836 . S
C195 C196 1.498 . S
C195 O210 1.258 . S
C195 O211 1.239 . S
C196 C195 1.498 . S
C196 C197 1.366 . S
C196 C201 1.407 . S
C197 C196 1.366 . S
C197 C198 1.392 . S
C197 H220 0.930 . S
C198 C197 1.392 . S
C198 C199 1.398 . S
C198 H221 0.929 . S
C199 C198 1.398 . S
C199 C200 1.352 . S
C200 C199 1.352 . S
C200 C201 1.384 . S
C200 H222 0.930 . S
C201 C196 1.407 . S
C201 C200 1.384 . S
C201 H223 0.929 . S
C202 O212 1.241 . S
C202 O213 1.273 . S
C203 O214 1.251 1_554 S
C203 O215 1.268 . S
O204 Nd184 2.500 . S
O204 C186 1.258 . S
O205 Nd184 2.492 . S
O205 C186 1.239 . S
O206 Nd184 2.487 . S
O206 C193 1.241 1_554 S
O207 Nd184 2.682 1_556 S
O207 Nd185 2.414 . S
O207 C193 1.273 . S
O208 Nd184 2.410 1_556 S
O208 C194 1.251 . S
O209 Nd185 2.424 . S
O209 C194 1.268 . S
O210 Nd185 2.500 . S
O210 C195 1.258 . S
O211 Nd185 2.492 . S
O211 C195 1.239 . S
O212 Nd185 2.487 . S
O212 C202 1.241 . S
O213 Nd184 2.414 1_556 S
O213 Nd185 2.682 . S
O213 C202 1.273 . S
O214 Nd185 2.410 . S
O214 C203 1.251 1_556 S
O215 Nd184 2.424 . S
O215 C203 1.268 . S
H216 C188 0.930 . S
H217 C189 0.929 . S
H218 C191 0.930 . S
H219 C192 0.929 . S
H220 C197 0.930 . S
H221 C198 0.929 . S
H222 C200 0.930 . S
H223 C201 0.929 . S
Nd224 C226 2.836 1_455 S
Nd224 O244 2.500 1_455 S
Nd224 O245 2.492 1_455 S
Nd224 O246 2.487 . S
Nd224 O247 2.682 . S
Nd224 O248 2.410 1_455 S
Nd224 O253 2.414 . S
Nd224 O255 2.424 . S
Nd225 C235 2.836 . S
Nd225 O247 2.414 1_554 S
Nd225 O249 2.424 1_455 S
Nd225 O250 2.500 . S
Nd225 O251 2.492 . S
Nd225 O252 2.487 . S
Nd225 O253 2.682 1_554 S
Nd225 O254 2.410 1_554 S
C226 Nd224 2.836 1_655 S
C226 C227 1.498 . S
C226 O244 1.258 . S
C226 O245 1.239 . S
C227 C226 1.498 . S
C227 C228 1.366 . S
C227 C232 1.407 . S
C228 C227 1.366 . S
C228 C229 1.392 . S
C228 H256 0.930 . S
C229 C228 1.392 . S
C229 C230 1.398 . S
C229 H257 0.929 . S
C230 C229 1.398 . S
C230 C231 1.352 . S
C231 C230 1.352 . S
C231 C232 1.384 . S
C231 H258 0.930 . S
C232 C227 1.407 . S
C232 C231 1.384 . S
C232 H259 0.929 . S
C233 O246 1.241 . S
C233 O247 1.273 . S
C234 O248 1.251 . S
C234 O249 1.268 1_556 S
C235 Nd225 2.836 . S
C235 C236 1.498 . S
C235 O250 1.258 . S
C235 O251 1.239 . S
C236 C235 1.498 . S
C236 C237 1.366 . S
C236 C241 1.407 . S
C237 C236 1.366 . S
C237 C238 1.392 . S
C237 H260 0.930 . S
C238 C237 1.392 . S
C238 C239 1.398 . S
C238 H261 0.929 . S
C239 C238 1.398 . S
C239 C240 1.352 . S
C240 C239 1.352 . S
C240 C241 1.384 . S
C240 H262 0.930 . S
C241 C236 1.407 . S
C241 C240 1.384 . S
C241 H263 0.929 . S
C242 O252 1.241 1_556 S
C242 O253 1.273 . S
C243 O254 1.251 . S
C243 O255 1.268 . S
O244 Nd224 2.500 1_655 S
O244 C226 1.258 . S
O245 Nd224 2.492 1_655 S
O245 C226 1.239 . S
O246 Nd224 2.487 . S
O246 C233 1.241 . S
O247 Nd224 2.682 . S
O247 Nd225 2.414 1_556 S
O247 C233 1.273 . S
O248 Nd224 2.410 1_655 S
O248 C234 1.251 . S
O249 Nd225 2.424 1_655 S
O249 C234 1.268 1_554 S
O250 Nd225 2.500 . S
O250 C235 1.258 . S
O251 Nd225 2.492 . S
O251 C235 1.239 . S
O252 Nd225 2.487 . S
O252 C242 1.241 1_554 S
O253 Nd224 2.414 . S
O253 Nd225 2.682 1_556 S
O253 C242 1.273 . S
O254 Nd225 2.410 1_556 S
O254 C243 1.251 . S
O255 Nd224 2.424 . S
O255 C243 1.268 . S
H256 C228 0.930 . S
H257 C229 0.929 . S
H258 C231 0.930 . S
H259 C232 0.929 . S
H260 C237 0.930 . S
H261 C238 0.929 . S
H262 C240 0.930 . S
H263 C241 0.929 . S
H264 C270 0.930 . S
H265 C273 0.930 . S
H266 C274 0.930 . S
H267 C275 0.930 . S
H268 C278 0.930 . S
H269 C279 0.930 . S
C270 H264 0.930 . S
C270 C271 1.355 . S
C270 C272 1.415 . S
C271 C270 1.355 . S
C271 C273 1.419 . S
C272 C270 1.415 . S
C272 C277 1.425 . S
C272 C279 1.409 . S
C273 H265 0.930 . S
C273 C271 1.419 . S
C273 C274 1.362 . S
C274 H266 0.930 . S
C274 C273 1.362 . S
C274 C277 1.409 . S
C275 H267 0.930 . S
C275 C276 1.355 . S
C275 C277 1.415 . S
C276 C275 1.355 . S
C276 C278 1.419 . S
C277 C272 1.425 . S
C277 C274 1.409 . S
C277 C275 1.415 . S
C278 H268 0.930 . S
C278 C276 1.419 . S
C278 C279 1.362 . S
C279 H269 0.930 . S
C279 C272 1.409 . S
C279 C278 1.362 . S
H280 C286 0.930 . S
H281 C289 0.930 . S
H282 C290 0.930 . S
H283 C291 0.930 . S
H284 C294 0.930 . S
H285 C295 0.930 . S
C286 H280 0.930 . S
C286 C287 1.355 . S
C286 C288 1.415 . S
C287 C286 1.355 . S
C287 C289 1.419 . S
C288 C286 1.415 . S
C288 C293 1.425 . S
C288 C295 1.409 . S
C289 H281 0.930 . S
C289 C287 1.419 . S
C289 C290 1.362 . S
C290 H282 0.930 . S
C290 C289 1.362 . S
C290 C293 1.409 . S
C291 H283 0.930 . S
C291 C292 1.355 . S
C291 C293 1.415 . S
C292 C291 1.355 . S
C292 C294 1.419 . S
C293 C288 1.425 . S
C293 C290 1.409 . S
C293 C291 1.415 . S
C294 H284 0.930 . S
C294 C292 1.419 . S
C294 C295 1.362 . S
C295 H285 0.930 . S
C295 C288 1.409 . S
C295 C294 1.362 . S
H296 C302 0.930 . S
H297 C305 0.930 . S
H298 C306 0.930 1_554 S
H299 C307 0.930 . S
H300 C310 0.930 . S
H301 C311 0.930 . S
C302 H296 0.930 . S
C302 C303 1.355 . S
C302 C304 1.415 . S
C303 C302 1.355 . S
C303 C305 1.419 . S
C304 C302 1.415 . S
C304 C309 1.425 . S
C304 C311 1.409 . S
C305 H297 0.930 . S
C305 C303 1.419 . S
C305 C306 1.362 . S
C306 H298 0.930 1_556 S
C306 C305 1.362 . S
C306 C309 1.409 . S
C307 H299 0.930 . S
C307 C308 1.355 . S
C307 C309 1.415 . S
C308 C307 1.355 . S
C308 C310 1.419 . S
C309 C304 1.425 . S
C309 C306 1.409 . S
C309 C307 1.415 . S
C310 H300 0.930 . S
C310 C308 1.419 . S
C310 C311 1.362 . S
C311 H301 0.930 . S
C311 C304 1.409 . S
C311 C310 1.362 . S
H312 C318 0.930 . S
H313 C321 0.930 . S
H314 C322 0.906 1_655 S
H315 C323 0.930 . S
H316 C326 0.930 . S
H317 C327 0.930 . S
C318 H312 0.930 . S
C318 C319 1.355 . S
C318 C320 1.415 . S
C319 C318 1.355 . S
C319 C321 1.419 . S
C320 C318 1.415 . S
C320 C325 1.425 . S
C320 C327 1.409 . S
C321 H313 0.930 . S
C321 C319 1.419 . S
C321 C322 1.362 . S
C322 H314 0.906 1_455 S
C322 C321 1.362 . S
C322 C325 1.409 . S
C323 H315 0.930 . S
C323 C324 1.355 . S
C323 C325 1.415 . S
C324 C323 1.355 . S
C324 C326 1.419 . S
C325 C320 1.425 . S
C325 C322 1.409 . S
C325 C323 1.415 . S
C326 H316 0.930 . S
C326 C324 1.419 . S
C326 C327 1.362 . S
C327 H317 0.930 . S
C327 C320 1.409 . S
C327 C326 1.362 . S
H328 C334 0.930 . S
H329 C337 0.930 . S
H330 C338 0.930 . S
H331 C339 0.930 . S
H332 C342 0.930 . S
H333 C343 0.930 . S
C334 H328 0.930 . S
C334 C335 1.355 . S
C334 C336 1.415 . S
C335 C334 1.355 . S
C335 C337 1.419 1_564 S
C336 C334 1.415 . S
C336 C341 1.425 1_564 S
C336 C343 1.409 . S
C337 H329 0.930 . S
C337 C335 1.419 1_546 S
C337 C338 1.362 . S
C338 H330 0.930 . S
C338 C337 1.362 . S
C338 C341 1.409 . S
C339 H331 0.930 . S
C339 C340 1.355 . S
C339 C341 1.415 . S
C340 C339 1.355 . S
C340 C342 1.419 1_546 S
C341 C336 1.425 1_546 S
C341 C338 1.409 . S
C341 C339 1.415 . S
C342 H332 0.930 . S
C342 C340 1.419 1_564 S
C342 C343 1.362 . S
C343 H333 0.930 . S
C343 C336 1.409 . S
C343 C342 1.362 . S
H344 C350 0.930 . S
H345 C353 0.930 . S
H346 C354 0.930 . S
H347 C355 0.930 . S
H348 C358 0.930 . S
H349 C359 0.930 . S
C350 H344 0.930 . S
C350 C351 1.355 . S
C350 C352 1.415 . S
C351 C350 1.355 . S
C351 C353 1.419 . S
C352 C350 1.415 . S
C352 C357 1.425 . S
C352 C359 1.409 . S
C353 H345 0.930 . S
C353 C351 1.419 . S
C353 C354 1.362 . S
C354 H346 0.930 . S
C354 C353 1.362 . S
C354 C357 1.409 . S
C355 H347 0.930 . S
C355 C356 1.355 . S
C355 C357 1.415 . S
C356 C355 1.355 . S
C356 C358 1.419 . S
C357 C352 1.425 . S
C357 C354 1.409 . S
C357 C355 1.415 . S
C358 H348 0.930 . S
C358 C356 1.419 . S
C358 C359 1.362 . S
C359 H349 0.930 . S
C359 C352 1.409 . S
C359 C358 1.362 . S
H360 C366 0.930 . S
H361 C369 0.930 . S
H362 C370 0.930 . S
H363 C371 0.930 . S
H364 C374 0.930 . S
H365 C375 0.930 . S
C366 H360 0.930 . S
C366 C367 1.355 1_554 S
C366 C368 1.415 . S
C367 C366 1.355 1_556 S
C367 C369 1.419 . S
C368 C366 1.415 . S
C368 C373 1.425 1_554 S
C368 C375 1.409 . S
C369 H361 0.930 . S
C369 C367 1.419 . S
C369 C370 1.362 . S
C370 H362 0.930 . S
C370 C369 1.362 . S
C370 C373 1.409 . S
C371 H363 0.930 . S
C371 C372 1.355 . S
C371 C373 1.415 . S
C372 C371 1.355 . S
C372 C374 1.419 1_556 S
C373 C368 1.425 1_556 S
C373 C370 1.409 . S
C373 C371 1.415 . S
C374 H364 0.930 . S
C374 C372 1.419 1_554 S
C374 C375 1.362 . S
C375 H365 0.930 . S
C375 C368 1.409 . S
C375 C374 1.362 . S
H376 C382 0.930 . S
H377 C385 0.930 . S
H378 C386 0.930 . S
H379 C387 0.930 1_655 S
H380 C390 0.930 . S
H381 C391 0.930 . S
C382 H376 0.930 . S
C382 C383 1.355 1_455 S
C382 C384 1.415 . S
C383 C382 1.355 1_655 S
C383 C385 1.419 1_554 S
C384 C382 1.415 . S
C384 C389 1.432 1_554 S
C384 C391 1.409 . S
C385 H377 0.930 . S
C385 C383 1.419 1_556 S
C385 C386 1.362 . S
C386 H378 0.930 . S
C386 C385 1.362 . S
C386 C389 1.397 1_655 S
C387 H379 0.930 1_455 S
C387 C388 1.355 . S
C387 C389 1.421 . S
C388 C387 1.355 . S
C388 C390 1.419 1_556 S
C389 C384 1.432 1_556 S
C389 C386 1.397 1_455 S
C389 C387 1.421 . S
C390 H380 0.930 . S
C390 C388 1.419 1_554 S
C390 C391 1.362 . S
C391 H381 0.930 . S
C391 C384 1.409 . S
C391 C390 1.362 . S
H392 C398 0.930 . S
H393 C401 0.930 . S
H394 C402 0.930 1_554 S
H395 C403 0.930 . S
H396 C406 0.930 . S
H397 C407 0.930 . S
C398 H392 0.930 . S
C398 C399 1.355 . S
C398 C400 1.415 . S
C399 C398 1.355 . S
C399 C401 1.419 . S
C400 C398 1.415 . S
C400 C405 1.425 . S
C400 C407 1.409 . S
C401 H393 0.930 . S
C401 C399 1.419 . S
C401 C402 1.362 . S
C402 H394 0.930 1_556 S
C402 C401 1.362 . S
C402 C405 1.409 . S
C403 H395 0.930 . S
C403 C404 1.355 . S
C403 C405 1.415 . S
C404 C403 1.355 . S
C404 C406 1.419 . S
C405 C400 1.425 . S
C405 C402 1.409 . S
C405 C403 1.415 . S
C406 H396 0.930 . S
C406 C404 1.419 . S
C406 C407 1.362 . S
C407 H397 0.930 . S
C407 C400 1.409 . S
C407 C406 1.362 . S
H408 C414 0.930 . S
H409 C417 0.930 . S
H410 C418 0.930 . S
H411 C419 0.930 . S
H412 C422 0.930 . S
H413 C423 0.930 . S
C414 H408 0.930 . S
C414 C415 1.355 . S
C414 C416 1.415 . S
C415 C414 1.355 . S
C415 C417 1.419 . S
C416 C414 1.415 . S
C416 C421 1.425 . S
C416 C423 1.409 . S
C417 H409 0.930 . S
C417 C415 1.419 . S
C417 C418 1.362 . S
C418 H410 0.930 . S
C418 C417 1.362 . S
C418 C421 1.409 . S
C419 H411 0.930 . S
C419 C420 1.355 . S
C419 C421 1.415 . S
C420 C419 1.355 . S
C420 C422 1.419 . S
C421 C416 1.425 . S
C421 C418 1.409 . S
C421 C419 1.415 . S
C422 H412 0.930 . S
C422 C420 1.419 . S
C422 C423 1.362 . S
C423 H413 0.930 . S
C423 C416 1.409 . S
C423 C422 1.362 . S
H424 C430 0.930 . S
H425 C433 0.930 . S
H426 C434 0.930 . S
H427 C435 0.930 . S
H428 C438 0.930 . S
H429 C439 0.930 . S
C430 H424 0.930 . S
C430 C431 1.355 . S
C430 C432 1.415 . S
C431 C430 1.355 . S
C431 C433 1.419 . S
C432 C430 1.415 . S
C432 C437 1.425 . S
C432 C439 1.409 . S
C433 H425 0.930 . S
C433 C431 1.419 . S
C433 C434 1.362 . S
C434 H426 0.930 . S
C434 C433 1.362 . S
C434 C437 1.409 . S
C435 H427 0.930 . S
C435 C436 1.355 . S
C435 C437 1.415 . S
C436 C435 1.355 . S
C436 C438 1.419 . S
C437 C432 1.425 . S
C437 C434 1.409 . S
C437 C435 1.415 . S
C438 H428 0.930 . S
C438 C436 1.419 . S
C438 C439 1.362 . S
C439 H429 0.930 . S
C439 C432 1.409 . S
C439 C438 1.362 . S
H440 C446 0.930 . S
H441 C449 0.930 . S
H442 C450 0.930 . S
H443 C451 0.930 . S
H444 C454 0.930 . S
H445 C455 0.930 . S
C446 H440 0.930 . S
C446 C447 1.355 . S
C446 C448 1.415 . S
C447 C446 1.355 . S
C447 C449 1.419 . S
C448 C446 1.415 . S
C448 C453 1.425 . S
C448 C455 1.409 . S
C449 H441 0.930 . S
C449 C447 1.419 . S
C449 C450 1.362 . S
C450 H442 0.930 . S
C450 C449 1.362 . S
C450 C453 1.409 . S
C451 H443 0.930 . S
C451 C452 1.355 . S
C451 C453 1.415 . S
C452 C451 1.355 . S
C452 C454 1.419 . S
C453 C448 1.425 . S
C453 C450 1.409 . S
C453 C451 1.415 . S
C454 H444 0.930 . S
C454 C452 1.419 . S
C454 C455 1.362 . S
C455 H445 0.930 . S
C455 C448 1.409 . S
C455 C454 1.362 . S
H456 C462 0.930 . S
H457 C465 0.930 . S
H458 C466 0.930 . S
H459 C467 0.930 . S
H460 C470 0.930 . S
H461 C471 0.930 . S
C462 H456 0.930 . S
C462 C463 1.355 1_455 S
C462 C464 1.415 . S
C463 C462 1.355 1_655 S
C463 C465 1.419 . S
C464 C462 1.415 . S
C464 C469 1.425 1_455 S
C464 C471 1.409 1_554 S
C465 H457 0.930 . S
C465 C463 1.419 . S
C465 C466 1.362 . S
C466 H458 0.930 . S
C466 C465 1.362 . S
C466 C469 1.409 . S
C467 H459 0.930 . S
C467 C468 1.355 1_654 S
C467 C469 1.415 . S
C468 C467 1.355 1_456 S
C468 C470 1.419 . S
C469 C464 1.425 1_655 S
C469 C466 1.409 . S
C469 C467 1.415 . S
C470 H460 0.930 . S
C470 C468 1.419 . S
C470 C471 1.362 . S
C471 H461 0.930 . S
C471 C464 1.409 1_556 S
C471 C470 1.362 . S
H472 C478 0.930 . S
H473 C481 0.930 . S
H474 C482 0.930 . S
H475 C483 0.930 1_554 S
H476 C486 0.930 . S
H477 C487 0.930 . S
C478 H472 0.930 . S
C478 C479 1.355 1_556 S
C478 C480 1.415 . S
C479 C478 1.355 1_554 S
C479 C481 1.419 1_565 S
C480 C478 1.415 . S
C480 C485 1.425 1_565 S
C480 C487 1.409 . S
C481 H473 0.930 . S
C481 C479 1.419 1_545 S
C481 C482 1.362 . S
C482 H474 0.930 . S
C482 C481 1.362 . S
C482 C485 1.409 1_554 S
C483 H475 0.930 1_556 S
C483 C484 1.355 . S
C483 C485 1.415 . S
C484 C483 1.355 . S
C484 C486 1.419 1_545 S
C485 C480 1.425 1_545 S
C485 C482 1.409 1_556 S
C485 C483 1.415 . S
C486 H476 0.930 . S
C486 C484 1.419 1_565 S
C486 C487 1.362 . S
C487 H477 0.930 . S
C487 C480 1.409 . S
C487 C486 1.362 . S
H488 C494 0.930 . S
H489 C497 0.930 . S
H490 C498 0.930 . S
H491 C499 0.930 . S
H492 C502 0.930 . S
H493 C503 0.930 . S
C494 H488 0.930 . S
C494 C495 1.355 . S
C494 C496 1.415 . S
C495 C494 1.355 . S
C495 C497 1.419 . S
C496 C494 1.415 . S
C496 C501 1.425 . S
C496 C503 1.409 . S
C497 H489 0.930 . S
C497 C495 1.419 . S
C497 C498 1.362 . S
C498 H490 0.930 . S
C498 C497 1.362 . S
C498 C501 1.409 . S
C499 H491 0.930 . S
C499 C500 1.355 . S
C499 C501 1.415 . S
C500 C499 1.355 . S
C500 C502 1.419 . S
C501 C496 1.425 . S
C501 C498 1.409 . S
C501 C499 1.415 . S
C502 H492 0.930 . S
C502 C500 1.419 . S
C502 C503 1.362 . S
C503 H493 0.930 . S
C503 C496 1.409 . S
C503 C502 1.362 . S
H504 C510 0.930 . S
H505 C513 0.930 1_554 S
H506 C514 0.930 . S
H507 C515 0.930 1_554 S
H508 C518 0.930 . S
H509 C519 0.930 . S
C510 H504 0.930 . S
C510 C511 1.355 . S
C510 C512 1.415 . S
C511 C510 1.355 . S
C511 C513 1.419 . S
C512 C510 1.415 . S
C512 C517 1.425 . S
C512 C519 1.409 . S
C513 H505 0.930 1_556 S
C513 C511 1.419 . S
C513 C514 1.362 1_556 S
C514 H506 0.930 . S
C514 C513 1.362 1_554 S
C514 C517 1.409 1_554 S
C515 H507 0.930 1_556 S
C515 C516 1.355 . S
C515 C517 1.415 . S
C516 C515 1.355 . S
C516 C518 1.419 . S
C517 C512 1.425 . S
C517 C514 1.409 1_556 S
C517 C515 1.415 . S
C518 H508 0.930 . S
C518 C516 1.419 . S
C518 C519 1.362 . S
C519 H509 0.930 . S
C519 C512 1.409 . S
C519 C518 1.362 . S
H520 C526 0.930 . S
H521 C529 0.930 . S
H522 C530 0.930 . S
H523 C531 0.930 . S
H524 C534 0.930 . S
H525 C535 0.930 . S
C526 H520 0.930 . S
C526 C527 1.355 . S
C526 C528 1.415 . S
C527 C526 1.355 . S
C527 C529 1.419 . S
C528 C526 1.415 . S
C528 C533 1.425 . S
C528 C535 1.409 . S
C529 H521 0.930 . S
C529 C527 1.419 . S
C529 C530 1.362 . S
C530 H522 0.930 . S
C530 C529 1.362 . S
C530 C533 1.409 . S
C531 H523 0.930 . S
C531 C532 1.355 . S
C531 C533 1.415 . S
C532 C531 1.355 . S
C532 C534 1.419 . S
C533 C528 1.425 . S
C533 C530 1.409 . S
C533 C531 1.415 . S
C534 H524 0.930 . S
C534 C532 1.419 . S
C534 C535 1.362 . S
C535 H525 0.930 . S
C535 C528 1.409 . S
C535 C534 1.362 . S
H536 C542 0.930 . S
H537 C545 0.930 . S
H538 C546 0.930 . S
H539 C547 0.930 . S
H540 C550 0.930 . S
H541 C551 0.930 . S
C542 H536 0.930 . S
C542 C543 1.355 . S
C542 C544 1.415 . S
C543 C542 1.355 . S
C543 C545 1.419 . S
C544 C542 1.415 . S
C544 C549 1.425 . S
C544 C551 1.409 . S
C545 H537 0.930 . S
C545 C543 1.419 . S
C545 C546 1.362 . S
C546 H538 0.930 . S
C546 C545 1.362 . S
C546 C549 1.409 . S
C547 H539 0.930 . S
C547 C548 1.355 . S
C547 C549 1.415 . S
C548 C547 1.355 . S
C548 C550 1.419 . S
C549 C544 1.425 . S
C549 C546 1.409 . S
C549 C547 1.415 . S
C550 H540 0.930 . S
C550 C548 1.419 . S
C550 C551 1.362 . S
C551 H541 0.930 . S
C551 C544 1.409 . S
C551 C550 1.362 . S
H552 C558 0.930 . S
H553 C561 0.930 . S
H554 C562 0.930 . S
H555 C563 0.930 . S
H556 C566 0.930 . S
H557 C567 0.930 . S
C558 H552 0.930 . S
C558 C559 1.355 . S
C558 C560 1.415 . S
C559 C558 1.355 . S
C559 C561 1.419 . S
C560 C558 1.415 . S
C560 C565 1.425 . S
C560 C567 1.409 . S
C561 H553 0.930 . S
C561 C559 1.419 . S
C561 C562 1.362 . S
C562 H554 0.930 . S
C562 C561 1.362 . S
C562 C565 1.409 . S
C563 H555 0.930 . S
C563 C564 1.355 . S
C563 C565 1.415 . S
C564 C563 1.355 . S
C564 C566 1.419 . S
C565 C560 1.425 . S
C565 C562 1.409 . S
C565 C563 1.415 . S
C566 H556 0.930 . S
C566 C564 1.419 . S
C566 C567 1.362 . S
C567 H557 0.930 . S
C567 C560 1.409 . S
C567 C566 1.362 . S
H568 C574 0.930 . S
H569 C577 0.930 . S
H570 C578 0.930 . S
H571 C579 0.930 . S
H572 C582 0.930 . S
H573 C583 0.930 . S
C574 H568 0.930 . S
C574 C575 1.355 . S
C574 C576 1.415 . S
C575 C574 1.355 . S
C575 C577 1.419 . S
C576 C574 1.415 . S
C576 C581 1.425 . S
C576 C583 1.409 . S
C577 H569 0.930 . S
C577 C575 1.419 . S
C577 C578 1.362 . S
C578 H570 0.930 . S
C578 C577 1.362 . S
C578 C581 1.409 . S
C579 H571 0.930 . S
C579 C580 1.355 . S
C579 C581 1.415 . S
C580 C579 1.355 . S
C580 C582 1.419 . S
C581 C576 1.425 . S
C581 C578 1.409 . S
C581 C579 1.415 . S
C582 H572 0.930 . S
C582 C580 1.419 . S
C582 C583 1.362 . S
C583 H573 0.930 . S
C583 C576 1.409 . S
C583 C582 1.362 . S
H584 C590 0.930 . S
H585 C593 0.930 . S
H586 C594 0.930 . S
H587 C595 0.930 . S
H588 C598 0.930 . S
H589 C599 0.930 . S
C590 H584 0.930 . S
C590 C591 1.355 . S
C590 C592 1.415 . S
C591 C590 1.355 . S
C591 C593 1.419 1_655 S
C592 C590 1.415 . S
C592 C597 1.425 1_655 S
C592 C599 1.409 . S
C593 H585 0.930 . S
C593 C591 1.419 1_455 S
C593 C594 1.362 . S
C594 H586 0.930 . S
C594 C593 1.362 . S
C594 C597 1.409 . S
C595 H587 0.930 . S
C595 C596 1.355 1_455 S
C595 C597 1.415 . S
C596 C595 1.355 1_655 S
C596 C598 1.419 . S
C597 C592 1.425 1_455 S
C597 C594 1.409 . S
C597 C595 1.415 . S
C598 H588 0.930 . S
C598 C596 1.419 . S
C598 C599 1.362 . S
C599 H589 0.930 . S
C599 C592 1.409 . S
C599 C598 1.362 . S
H600 C606 0.930 . S
H601 C609 0.930 . S
H602 C610 0.930 . S
H603 C611 0.930 . S
H604 C614 0.930 . S
H605 C615 0.930 . S
C606 H600 0.930 . S
C606 C607 1.355 . S
C606 C608 1.415 . S
C607 C606 1.355 . S
C607 C609 1.419 . S
C608 C606 1.415 . S
C608 C613 1.425 . S
C608 C615 1.409 . S
C609 H601 0.930 . S
C609 C607 1.419 . S
C609 C610 1.362 . S
C610 H602 0.930 . S
C610 C609 1.362 . S
C610 C613 1.409 . S
C611 H603 0.930 . S
C611 C612 1.355 . S
C611 C613 1.415 . S
C612 C611 1.355 . S
C612 C614 1.419 . S
C613 C608 1.425 . S
C613 C610 1.409 . S
C613 C611 1.415 . S
C614 H604 0.930 . S
C614 C612 1.419 . S
C614 C615 1.362 . S
C615 H605 0.930 . S
C615 C608 1.409 . S
C615 C614 1.362 . S
H616 C622 0.930 . S
H617 C625 0.930 . S
H618 C626 0.930 . S
H619 C627 0.930 . S
H620 C630 0.930 . S
H621 C631 0.930 . S
C622 H616 0.930 . S
C622 C623 1.355 . S
C622 C624 1.415 . S
C623 C622 1.355 . S
C623 C625 1.419 . S
C624 C622 1.415 . S
C624 C629 1.425 . S
C624 C631 1.409 . S
C625 H617 0.930 . S
C625 C623 1.419 . S
C625 C626 1.362 . S
C626 H618 0.930 . S
C626 C625 1.362 . S
C626 C629 1.409 . S
C627 H619 0.930 . S
C627 C628 1.355 . S
C627 C629 1.415 . S
C628 C627 1.355 . S
C628 C630 1.419 . S
C629 C624 1.425 . S
C629 C626 1.409 . S
C629 C627 1.415 . S
C630 H620 0.930 . S
C630 C628 1.419 . S
C630 C631 1.362 . S
C631 H621 0.930 . S
C631 C624 1.409 . S
C631 C630 1.362 . S
H632 C638 0.930 . S
H633 C641 0.930 . S
H634 C642 0.930 . S
H635 C643 0.930 . S
H636 C646 0.930 . S
H637 C647 0.930 . S
C638 H632 0.930 . S
C638 C639 1.355 . S
C638 C640 1.415 . S
C639 C638 1.355 . S
C639 C641 1.419 . S
C640 C638 1.415 . S
C640 C645 1.425 . S
C640 C647 1.409 . S
C641 H633 0.930 . S
C641 C639 1.419 . S
C641 C642 1.362 . S
C642 H634 0.930 . S
C642 C641 1.362 . S
C642 C645 1.409 . S
C643 H635 0.930 . S
C643 C644 1.355 . S
C643 C645 1.415 . S
C644 C643 1.355 . S
C644 C646 1.419 . S
C645 C640 1.425 . S
C645 C642 1.409 . S
C645 C643 1.415 . S
C646 H636 0.930 . S
C646 C644 1.419 . S
C646 C647 1.362 . S
C647 H637 0.930 . S
C647 C640 1.409 . S
C647 C646 1.362 . S
C271 N80 1.572 . S
C276 C113 1.555 . S
C292 C153 1.338 . S
C287 N93 1.393 . S
C308 C202 1.363 . S
C303 N54 1.393 . S
C324 C233 1.720 . S
C319 N67 1.823 . S
C340 C122 1.556 . S
C335 N28 1.591 . S
C351 N41 1.391 . S
C356 C162 1.322 . S
C367 N2 1.401 . S
C372 C193 1.315 . S
C383 N15 1.845 . S
C388 C242 1.712 . S
C404 C123 1.021 . S
C399 N70 1.020 . S
C420 C163 1.451 . S
C415 N83 1.364 . S
C436 C199 0.780 . S
C431 N96 0.778 . S
C447 N57 1.184 . S
C452 C243 1.214 . S
C463 N18 0.995 . S
C468 C114 1.014 . S
C484 C154 1.445 . S
C479 N31 1.378 . S
C500 C190 0.788 . S
C495 N44 0.782 . S
C511 N5 1.174 . S
C516 C234 1.229 . S
C527 N66 1.637 . S
C532 C119 1.661 . S
C543 N79 1.482 . S
C548 C159 1.471 . S
C564 C203 1.920 . S
C559 N92 1.847 . S
C580 C239 1.462 . S
C575 N53 1.472 . S
C591 N14 1.651 . S
C596 C110 1.661 . S
C612 C150 1.452 . S
C607 N27 1.483 . S
C628 C194 1.917 . S
C623 N40 1.864 . S
C639 N1 1.456 . S
C644 C230 1.447 . S
