# Generated by pormake.
# Topology ptr, (4,4)-cn, num edge types: 1
# Building blocks:
#     Node 0, Type 0, BuildingBlock: NAHDIM_clean_sbu_0, # of connection points: 4
#     Node 1, Type 0, BuildingBlock: NAHDIM_clean_sbu_0, # of connection points: 4
#     Node 2, Type 0, BuildingBlock: NAHDIM_clean_sbu_0, # of connection points: 4
#     Node 3, Type 0, BuildingBlock: NAHDIM_clean_sbu_0, # of connection points: 4
#     Node 4, Type 0, BuildingBlock: NAHDIM_clean_sbu_0, # of connection points: 4
#     Node 5, Type 0, BuildingBlock: NAHDIM_clean_sbu_0, # of connection points: 4
#     Node 6, Type 0, BuildingBlock: NAHDIM_clean_sbu_0, # of connection points: 4
#     Node 7, Type 0, BuildingBlock: NAHDIM_clean_sbu_0, # of connection points: 4
#     Node 8, Type 0, BuildingBlock: NAHDIM_clean_sbu_0, # of connection points: 4
#     Node 9, Type 0, BuildingBlock: NAHDIM_clean_sbu_0, # of connection points: 4
#     Node 10, Type 0, BuildingBlock: NAHDIM_clean_sbu_0, # of connection points: 4
#     Node 11, Type 0, BuildingBlock: NAHDIM_clean_sbu_0, # of connection points: 4
#     Node 12, Type 0, BuildingBlock: NAHDIM_clean_sbu_0, # of connection points: 4
#     Node 13, Type 0, BuildingBlock: NAHDIM_clean_sbu_0, # of connection points: 4
#     Node 14, Type 0, BuildingBlock: NAHDIM_clean_sbu_0, # of connection points: 4
#     Node 15, Type 0, BuildingBlock: NAHDIM_clean_sbu_0, # of connection points: 4
#     Node 16, Type 0, BuildingBlock: NAHDIM_clean_sbu_0, # of connection points: 4
#     Node 17, Type 0, BuildingBlock: NAHDIM_clean_sbu_0, # of connection points: 4
#     Node 18, Type 1, BuildingBlock: AZAVOO_clean_linker_0, # of connection points: 4
#     Node 19, Type 1, BuildingBlock: AZAVOO_clean_linker_0, # of connection points: 4
#     Node 20, Type 1, BuildingBlock: AZAVOO_clean_linker_0, # of connection points: 4
#     Node 21, Type 1, BuildingBlock: AZAVOO_clean_linker_0, # of connection points: 4
#     Node 22, Type 1, BuildingBlock: AZAVOO_clean_linker_0, # of connection points: 4
#     Node 23, Type 1, BuildingBlock: AZAVOO_clean_linker_0, # of connection points: 4
#     Node 24, Type 1, BuildingBlock: AZAVOO_clean_linker_0, # of connection points: 4
#     Node 25, Type 1, BuildingBlock: AZAVOO_clean_linker_0, # of connection points: 4
#     Node 26, Type 1, BuildingBlock: AZAVOO_clean_linker_0, # of connection points: 4
#     Node 27, Type 1, BuildingBlock: AZAVOO_clean_linker_0, # of connection points: 4
#     Node 28, Type 1, BuildingBlock: AZAVOO_clean_linker_0, # of connection points: 4
#     Node 29, Type 1, BuildingBlock: AZAVOO_clean_linker_0, # of connection points: 4
#     Node 30, Type 1, BuildingBlock: AZAVOO_clean_linker_0, # of connection points: 4
#     Node 31, Type 1, BuildingBlock: AZAVOO_clean_linker_0, # of connection points: 4
#     Node 32, Type 1, BuildingBlock: AZAVOO_clean_linker_0, # of connection points: 4
#     Node 33, Type 1, BuildingBlock: AZAVOO_clean_linker_0, # of connection points: 4
#     Node 34, Type 1, BuildingBlock: AZAVOO_clean_linker_0, # of connection points: 4
#     Node 35, Type 1, BuildingBlock: AZAVOO_clean_linker_0, # of connection points: 4
#     Edge 36, Type (0, 1), None
#     Edge 37, Type (0, 1), None
#     Edge 38, Type (0, 1), None
#     Edge 39, Type (0, 1), None
#     Edge 40, Type (0, 1), None
#     Edge 41, Type (0, 1), None
#     Edge 42, Type (0, 1), None
#     Edge 43, Type (0, 1), None
#     Edge 44, Type (0, 1), None
#     Edge 45, Type (0, 1), None
#     Edge 46, Type (0, 1), None
#     Edge 47, Type (0, 1), None
#     Edge 48, Type (0, 1), None
#     Edge 49, Type (0, 1), None
#     Edge 50, Type (0, 1), None
#     Edge 51, Type (0, 1), None
#     Edge 52, Type (0, 1), None
#     Edge 53, Type (0, 1), None
#     Edge 54, Type (0, 1), None
#     Edge 55, Type (0, 1), None
#     Edge 56, Type (0, 1), None
#     Edge 57, Type (0, 1), None
#     Edge 58, Type (0, 1), None
#     Edge 59, Type (0, 1), None
#     Edge 60, Type (0, 1), None
#     Edge 61, Type (0, 1), None
#     Edge 62, Type (0, 1), None
#     Edge 63, Type (0, 1), None
#     Edge 64, Type (0, 1), None
#     Edge 65, Type (0, 1), None
#     Edge 66, Type (0, 1), None
#     Edge 67, Type (0, 1), None
#     Edge 68, Type (0, 1), None
#     Edge 69, Type (0, 1), None
#     Edge 70, Type (0, 1), None
#     Edge 71, Type (0, 1), None
#     Edge 72, Type (0, 1), None
#     Edge 73, Type (0, 1), None
#     Edge 74, Type (0, 1), None
#     Edge 75, Type (0, 1), None
#     Edge 76, Type (0, 1), None
#     Edge 77, Type (0, 1), None
#     Edge 78, Type (0, 1), None
#     Edge 79, Type (0, 1), None
#     Edge 80, Type (0, 1), None
#     Edge 81, Type (0, 1), None
#     Edge 82, Type (0, 1), None
#     Edge 83, Type (0, 1), None
#     Edge 84, Type (0, 1), None
#     Edge 85, Type (0, 1), None
#     Edge 86, Type (0, 1), None
#     Edge 87, Type (0, 1), None
#     Edge 88, Type (0, 1), None
#     Edge 89, Type (0, 1), None
#     Edge 90, Type (0, 1), None
#     Edge 91, Type (0, 1), None
#     Edge 92, Type (0, 1), None
#     Edge 93, Type (0, 1), None
#     Edge 94, Type (0, 1), None
#     Edge 95, Type (0, 1), None
#     Edge 96, Type (0, 1), None
#     Edge 97, Type (0, 1), None
#     Edge 98, Type (0, 1), None
#     Edge 99, Type (0, 1), None
#     Edge 100, Type (0, 1), None
#     Edge 101, Type (0, 1), None
#     Edge 102, Type (0, 1), None
#     Edge 103, Type (0, 1), None
#     Edge 104, Type (0, 1), None
#     Edge 105, Type (0, 1), None
#     Edge 106, Type (0, 1), None
#     Edge 107, Type (0, 1), None
# Relax obj value: 0.119
# Max RMSD: 0.300
# Mean RMSD: 0.175
data_MOF--net-ptr--node1-NAHDIM_clean_sbu_0--node2-AZAVOO_clean_linker_0--edge1-none
_symmetry_space_group_name_H-M    P1
_symmetry_Int_Tables_number       1
_symmetry_cell_setting            triclinic
loop_
_symmetry_equiv_pos_as_xyz
'x, y, z'
_cell_length_a     45.44052
_cell_length_b     43.829831
_cell_length_c     36.18197
_cell_angle_alpha  96.477789
_cell_angle_beta   92.155215
_cell_angle_gamma 122.17722
loop_
_atom_site_label
_atom_site_type_symbol
_atom_site_fract_x
_atom_site_fract_y
_atom_site_fract_z
_atom_type_partial_charge
C0 C 0.04375 0.36046 0.06669 0.0
O1 O 0.01099 0.34316 0.07368 0.0
O2 O 0.97456 0.3328 0.00262 0.0
Zn3 Zn 0.01435 0.38474 0.01954 0.0
O4 O 0.00482 0.4102 0.062 0.0
C5 C -2e-05 0.40607 0.95437 0.0
O6 O 0.96844 0.38023 0.96007 0.0
O7 O 0.05331 0.38158 0.04211 0.0
C8 C 0.98308 0.41986 0.06486 0.0
O9 O 0.96037 0.41214 0.03617 0.0
C10 C 0.94521 0.31769 0.01549 0.0
O11 O 0.93871 0.3367 0.04066 0.0
O12 O 0.02603 0.41335 0.97658 0.0
C13 C 0.70305 0.63586 0.08035 0.0
O14 O 0.7064 0.66237 0.10476 0.0
O15 O 0.64016 0.64846 0.10905 0.0
Zn16 Zn 0.63065 0.59837 0.09412 0.0
O17 O 0.59555 0.57227 0.04837 0.0
C18 C 0.58944 0.57503 0.1522 0.0
O19 O 0.58319 0.59851 0.14036 0.0
O20 O 0.67463 0.60462 0.0759 0.0
C21 C 0.57116 0.57602 0.03651 0.0
O22 O 0.56498 0.59853 0.05652 0.0
C23 C 0.64243 0.66829 0.08499 0.0
O24 O 0.63745 0.65581 0.04909 0.0
O25 O 0.6112 0.56948 0.13657 0.0
C26 C 0.35313 0.03628 0.01564 0.0
O27 O 0.33468 0.00103 0.0033 0.0
O28 O 0.35406 0.97026 0.05438 0.0
Zn29 Zn 0.39678 0.01467 0.04043 0.0
O30 O 0.41469 0.0082 0.99176 0.0
C31 C 0.43724 0.00566 0.0909 0.0
O32 O 0.42195 0.9754 0.06653 0.0
O33 O 0.38311 0.05052 0.03399 0.0
C34 C 0.39918 0.98242 0.96415 0.0
O35 O 0.36828 0.95351 0.9666 0.0
C36 C 0.34157 0.97966 0.08104 0.0
O37 O 0.35684 0.01437 0.0949 0.0
O38 O 0.433 0.03107 0.08439 0.0
C39 C 0.95805 0.64549 0.01402 0.0
O40 O 0.99092 0.66581 0.00787 0.0
O41 O 0.02843 0.66733 0.07692 0.0
Zn42 Zn 0.98808 0.61647 0.05538 0.0
O43 O -0.00277 0.59174 0.01086 0.0
C44 C -0.00026 0.58973 0.11756 0.0
O45 O 0.03179 0.61237 0.11019 0.0
O46 O 0.94949 0.6215 0.03529 0.0
C47 C 0.02156 0.58623 0.00503 0.0
O48 O 0.04774 0.59818 0.03117 0.0
C49 C 0.05829 0.68487 0.06537 0.0
O50 O 0.06523 0.67007 0.03621 0.0
O51 O 0.97432 0.58583 0.09693 0.0
C52 C 0.30007 0.36354 0.02369 0.0
O53 O 0.29342 0.34032 0.99337 0.0
O54 O 0.36149 0.34015 0.99972 0.0
Zn55 Zn 0.37377 0.39087 0.01733 0.0
O56 O 0.40947 0.41424 0.06247 0.0
C57 C 0.41435 0.41241 0.95881 0.0
O58 O 0.42002 0.38856 0.97074 0.0
O59 O 0.33157 0.38879 0.03536 0.0
C60 C 0.42292 0.39962 0.0789 0.0
O61 O 0.41555 0.36714 0.06436 0.0
C62 C 0.33998 0.31118 0.01213 0.0
O63 O 0.32374 0.31266 0.04089 0.0
O64 O 0.3939 0.41954 0.97519 0.0
C65 C 0.62003 0.9345 0.03687 0.0
O66 O 0.63821 0.9538 0.01155 0.0
O67 O 0.64153 0.02556 0.03712 0.0
Zn68 Zn 0.59648 0.98527 0.05145 0.0
O69 O 0.58469 -0.00053 0.10138 0.0
C70 C 0.55648 -0.00134 0.00329 0.0
O71 O 0.57446 0.03004 0.0259 0.0
O72 O 0.60072 0.94256 0.05426 0.0
C73 C 0.57358 0.97686 0.12448 0.0
O74 O 0.57074 0.94545 0.11556 0.0
C75 C 0.67149 0.0324 0.0487 0.0
O76 O 0.67427 0.01539 0.07498 0.0
O77 O 0.55977 0.97275 0.00999 0.0
C78 C 0.70451 0.69005 0.40304 0.0
O79 O 0.67195 0.67195 0.41071 0.0
O80 O 0.63336 0.66048 0.34129 0.0
Zn81 Zn 0.67259 0.71286 0.35708 0.0
O82 O 0.66347 0.73824 0.40005 0.0
C83 C 0.6556 0.73137 0.29069 0.0
O84 O 0.62476 0.7038 0.29582 0.0
O85 O 0.71291 0.7111 0.37845 0.0
C86 C 0.64246 0.74887 0.40297 0.0
O87 O 0.62021 0.74211 0.3742 0.0
C88 C 0.6034 0.6455 0.35279 0.0
O89 O 0.59579 0.66494 0.37596 0.0
O90 O 0.68203 0.74078 0.31358 0.0
C91 C 0.36503 0.96013 0.41215 0.0
O92 O 0.36889 0.9862 0.43766 0.0
O93 O 0.3031 0.97436 0.43986 0.0
Zn94 Zn 0.29248 0.92384 0.42504 0.0
O95 O 0.25722 0.8984 0.37931 0.0
C96 C 0.25145 0.90157 0.48339 0.0
O97 O 0.24567 0.9253 0.47137 0.0
O98 O 0.33615 0.92929 0.40676 0.0
C99 C 0.23418 0.90418 0.36757 0.0
O100 O 0.22983 0.92806 0.38773 0.0
C101 C 0.30768 0.99475 0.41559 0.0
O102 O 0.30415 0.98246 0.37986 0.0
O103 O 0.27274 0.89532 0.46768 0.0
C104 C 0.02379 0.37298 0.34954 0.0
O105 O 0.00547 0.33764 0.33768 0.0
O106 O 0.0269 0.30809 0.38848 0.0
Zn107 Zn 0.06873 0.3526 0.37347 0.0
O108 O 0.08554 0.34529 0.32434 0.0
C109 C 0.11142 0.34585 0.42305 0.0
O110 O 0.09648 0.31546 0.3989 0.0
O111 O 0.05414 0.38769 0.36713 0.0
C112 C 0.06868 0.31935 0.29706 0.0
O113 O 0.03745 0.29141 0.30045 0.0
C114 C 0.01455 0.31735 0.41537 0.0
O115 O 0.02952 0.35208 0.429 0.0
O116 O 0.10599 0.37048 0.41665 0.0
C117 C 0.626 0.98013 0.34931 0.0
O118 O 0.65868 0.00187 0.34322 0.0
O119 O 0.69788 0.00738 0.4153 0.0
Zn120 Zn 0.65871 0.95596 0.39482 0.0
O121 O 0.67279 0.9337 0.35319 0.0
C122 C 0.6693 0.92593 0.45477 0.0
O123 O 0.70095 0.94458 0.44466 0.0
O124 O 0.6189 0.9575 0.37189 0.0
C125 C 0.6505 0.90086 0.3385 0.0
O126 O 0.62081 0.88262 0.35286 0.0
C127 C 0.72959 0.01908 0.41098 0.0
O128 O 0.73723 -0.00279 0.3922 0.0
O129 O 0.64474 0.92592 0.43677 0.0
C130 C 0.96407 0.6974 0.35842 0.0
O131 O 0.95692 0.67413 0.32798 0.0
O132 O 0.02458 0.67291 0.33316 0.0
Zn133 Zn 0.03752 0.72379 0.35119 0.0
O134 O 0.07325 0.74625 0.39638 0.0
C135 C 0.07683 0.74443 0.29097 0.0
O136 O 0.08165 0.71954 0.30149 0.0
O137 O -0.00426 0.72233 0.36983 0.0
C138 C 0.08491 0.73024 0.41327 0.0
O139 O 0.07594 0.69714 0.39893 0.0
C140 C 0.00281 0.64364 0.34492 0.0
O141 O 0.98614 0.64455 0.37349 0.0
O142 O 0.05774 0.75258 0.30894 0.0
C143 C 0.28084 0.25565 0.36372 0.0
O144 O 0.29883 0.27648 0.33928 0.0
O145 O 0.30058 0.3461 0.36819 0.0
Zn146 Zn 0.25533 0.30391 0.38001 0.0
O147 O 0.24169 0.3129 0.43027 0.0
C148 C 0.21636 0.31941 0.33349 0.0
O149 O 0.23408 0.34984 0.35757 0.0
O150 O 0.26025 0.26164 0.38118 0.0
C151 C 0.25685 0.3424 0.45343 0.0
O152 O 0.28381 0.37209 0.44448 0.0
C153 C 0.33073 0.35358 0.37999 0.0
O154 O 0.3337 0.33581 0.4053 0.0
O155 O 0.21922 0.29289 0.33862 0.0
C156 C 0.37098 0.01983 0.73352 0.0
O157 O 0.33833 0.00121 0.7408 0.0
O158 O 0.29967 0.99034 0.67172 0.0
Zn159 Zn 0.33933 0.04259 0.68695 0.0
O160 O 0.3305 0.0688 0.72926 0.0
C161 C 0.32303 0.0607 0.62009 0.0
O162 O 0.29201 0.03353 0.62535 0.0
O163 O 0.37936 0.04083 0.70891 0.0
C164 C 0.30972 0.07976 0.73172 0.0
O165 O 0.28753 0.07281 0.70282 0.0
C166 C 0.26996 0.97607 0.68373 0.0
O167 O 0.26314 0.99615 0.70701 0.0
O168 O 0.34932 0.06997 0.64311 0.0
C169 C 0.04253 0.30461 0.74426 0.0
O170 O 0.04668 0.33149 0.76874 0.0
O171 O 0.98118 0.31967 0.77383 0.0
Zn172 Zn 0.97033 0.26908 0.75854 0.0
O173 O 0.93463 0.24359 0.71327 0.0
C174 C 0.92916 0.24615 0.8165 0.0
O175 O 0.92345 0.27006 0.80482 0.0
O176 O 0.01356 0.27387 0.73975 0.0
C177 C 0.9105 0.24799 0.70208 0.0
O178 O 0.90534 0.27118 0.72237 0.0
C179 C 0.98381 0.33964 0.74979 0.0
O180 O 0.97834 0.32701 0.71389 0.0
O181 O 0.95067 0.24023 0.80087 0.0
C182 C 0.68745 0.70746 0.68622 0.0
O183 O 0.66872 0.67207 0.67464 0.0
O184 O 0.69164 0.64247 0.72366 0.0
Zn185 Zn 0.73313 0.6873 0.70888 0.0
O186 O 0.75006 0.6803 0.65979 0.0
C187 C 0.77574 0.68084 0.75878 0.0
O188 O 0.76115 0.65051 0.73458 0.0
O189 O 0.71812 0.72206 0.70295 0.0
C190 C 0.73356 0.6538 0.63299 0.0
O191 O 0.70285 0.62535 0.63698 0.0
C192 C 0.67944 0.65134 0.751 0.0
O193 O 0.69436 0.68596 0.76508 0.0
O194 O 0.77027 0.70538 0.75217 0.0
C195 C 0.29763 0.31279 0.67746 0.0
O196 O 0.33078 0.33429 0.67292 0.0
O197 O 0.36673 0.337 0.74436 0.0
Zn198 Zn 0.32772 0.28589 0.72261 0.0
O199 O 0.34231 0.26391 0.68113 0.0
C200 C 0.33698 0.25583 0.78332 0.0
O201 O 0.36898 0.27516 0.77429 0.0
O202 O 0.28899 0.2889 0.69887 0.0
C203 C 0.31995 0.23113 0.6663 0.0
O204 O 0.29017 0.21299 0.68052 0.0
C205 C 0.39873 0.34929 0.74109 0.0
O206 O 0.40726 0.32813 0.72246 0.0
O207 O 0.31256 0.25522 0.76423 0.0
C208 C 0.63418 0.03524 0.69141 0.0
O209 O 0.62751 0.0118 0.66128 0.0
O210 O 0.69498 0.01133 0.66705 0.0
Zn211 Zn 0.70766 0.06228 0.68449 0.0
O212 O 0.74365 0.08539 0.72937 0.0
C213 C 0.74845 0.08367 0.62607 0.0
O214 O 0.75378 0.05959 0.638 0.0
O215 O 0.66569 0.06064 0.70283 0.0
C216 C 0.75797 0.07109 0.74477 0.0
O217 O 0.7511 0.039 0.72946 0.0
C218 C 0.67389 0.98275 0.6803 0.0
O219 O 0.65841 0.98489 0.70952 0.0
O220 O 0.72803 0.09094 0.64231 0.0
C221 C 0.94933 0.59516 0.7022 0.0
O222 O 0.96531 0.61567 0.67676 0.0
O223 O 0.9658 0.68349 0.70705 0.0
Zn224 Zn 0.92074 0.64046 0.71816 0.0
O225 O 0.90578 0.64859 0.76807 0.0
C226 C 0.88182 0.65485 0.66992 0.0
O227 O 0.89883 0.68528 0.69406 0.0
O228 O 0.92799 0.59962 0.72003 0.0
C229 C 0.92011 0.67811 0.79116 0.0
O230 O 0.94674 0.70813 0.78235 0.0
C231 C -0.00407 0.69117 0.71931 0.0
O232 O -0.00128 0.67383 0.74522 0.0
O233 O 0.88502 0.62862 0.67558 0.0
H234 H 0.17065 0.388 0.91865 0.0
H235 H 0.30445 0.26605 0.25088 0.0
H236 H 0.15553 0.39847 0.11628 0.0
H237 H 0.11382 0.40873 0.08436 0.0
H238 H 0.02957 0.29995 0.09556 0.0
H239 H 0.07176 0.28906 0.12548 0.0
H240 H 0.20868 0.3957 0.07723 0.0
H241 H 0.20149 0.40279 0.01203 0.0
H242 H 0.1076 0.29439 0.99097 0.0
H243 H 0.11537 0.28748 0.05613 0.0
H244 H 0.26179 0.39172 0.13178 0.0
H245 H 0.30568 0.40571 0.08848 0.0
H246 H 0.23284 0.30391 0.01604 0.0
H247 H 0.18918 0.29001 0.06 0.0
H248 H 0.25697 0.37891 0.20728 0.0
H249 H 0.29712 0.36873 0.2427 0.0
H250 H 0.24321 0.258 0.18389 0.0
H251 H 0.2032 0.26857 0.14871 0.0
H252 H 0.19827 0.37791 0.2452 0.0
H253 H 0.21596 0.37567 0.30878 0.0
H254 H 0.17908 0.26178 0.27653 0.0
H255 H 0.16052 0.2642 0.21305 0.0
H256 H 0.14658 0.38408 0.2144 0.0
H257 H 0.1153 0.38041 0.2691 0.0
H258 H 0.05759 0.2627 0.2452 0.0
H259 H 0.08993 0.26669 0.19117 0.0
O260 O 0.17302 0.38462 0.94432 0.0
O261 O 0.12472 0.32889 0.93508 0.0
O262 O 0.31686 0.32852 0.26528 0.0
O263 O 0.29034 0.27147 0.23564 0.0
C264 C 0.14293 0.33495 0.13554 0.0
C265 C 0.16704 0.33645 0.11091 0.0
C266 C 0.19507 0.33355 0.12385 0.0
C267 C 0.19821 0.32783 0.16098 0.0
C268 C 0.17323 0.32478 0.18498 0.0
C269 C 0.14547 0.3281 0.17231 0.0
C270 C 0.11667 0.3429 0.12288 0.0
C271 C 0.12802 0.37691 0.11198 0.0
C272 C 0.10431 0.38267 0.09359 0.0
C273 C 0.0687 0.35493 0.08705 0.0
C274 C 0.05701 0.32169 0.1001 0.0
C275 C 0.08094 0.31554 0.11752 0.0
C276 C 0.16271 0.34096 0.07131 0.0
C277 C 0.18674 0.37343 0.05841 0.0
C278 C 0.18248 0.37745 0.02119 0.0
C279 C 0.154 0.34912 0.99625 0.0
C280 C 0.12986 0.31671 0.0094 0.0
C281 C 0.1342 0.3127 0.0466 0.0
C282 C 0.22252 0.33964 0.09929 0.0
C283 C 0.25553 0.37221 0.10684 0.0
C284 C 0.28036 0.38038 0.08175 0.0
C285 C 0.2726 0.35614 0.04851 0.0
C286 C 0.23949 0.32338 0.04111 0.0
C287 C 0.21469 0.31515 0.06639 0.0
C288 C 0.22724 0.32448 0.17542 0.0
C289 C 0.25447 0.35278 0.20141 0.0
C290 C 0.2771 0.34676 0.2219 0.0
C291 C 0.27287 0.31229 0.21667 0.0
C292 C 0.24688 0.28471 0.18894 0.0
C293 C 0.22427 0.2908 0.16844 0.0
C294 C 0.17817 0.32123 0.22465 0.0
C295 C 0.19296 0.3522 0.25224 0.0
C296 C 0.2032 0.35086 0.2885 0.0
C297 C 0.19929 0.31864 0.29757 0.0
C298 C 0.18255 0.28704 0.27036 0.0
C299 C 0.17195 0.28833 0.23414 0.0
C300 C 0.1204 0.32568 0.19877 0.0
C301 C 0.12655 0.35753 0.22041 0.0
C302 C 0.109 0.35535 0.25188 0.0
C303 C 0.08447 0.32124 0.26172 0.0
C304 C 0.07646 0.28932 0.23836 0.0
C305 C 0.09465 0.29154 0.20736 0.0
C306 C 0.14957 0.35346 0.95671 0.0
C307 C 0.29475 0.30474 0.24071 0.0
H308 H 0.64496 0.76176 0.90713 0.0
H309 H 0.65617 0.03888 0.21103 0.0
H310 H 0.607 0.74925 0.0928 0.0
H311 H 0.60003 0.69127 0.06764 0.0
H312 H 0.69733 0.72468 0.13155 0.0
H313 H 0.70595 0.78428 0.15427 0.0
H314 H 0.61051 0.80026 0.05212 0.0
H315 H 0.61541 0.78251 0.9872 0.0
H316 H 0.72245 0.81632 0.01913 0.0
H317 H 0.71732 0.83429 0.08385 0.0
H318 H 0.59256 0.84503 0.10911 0.0
H319 H 0.5764 0.87734 0.0707 0.0
H320 H 0.68127 0.93649 0.03889 0.0
H321 H 0.69745 0.90413 0.0781 0.0
H322 H 0.60157 0.86293 0.19454 0.0
H323 H 0.59306 0.91248 0.2154 0.0
H324 H 0.692 0.98945 0.17847 0.0
H325 H 0.70063 0.93973 0.15856 0.0
H326 H 0.60996 0.81159 0.23386 0.0
H327 H 0.60551 0.83366 0.29713 0.0
H328 H 0.7068 0.93288 0.29867 0.0
H329 H 0.71119 0.91015 0.23548 0.0
H330 H 0.60845 0.74978 0.18596 0.0
H331 H 0.60566 0.71327 0.23354 0.0
H332 H 0.71197 0.79718 0.27923 0.0
H333 H 0.71446 0.83358 0.23121 0.0
O334 O 0.64382 0.76989 0.93274 0.0
O335 O 0.69967 0.79082 0.95001 0.0
O336 O 0.61287 0.97974 0.22953 0.0
O337 O 0.65906 0.01887 0.20314 0.0
C338 C 0.66131 0.80659 0.13889 0.0
C339 C 0.66047 0.82778 0.11266 0.0
C340 C 0.65638 0.85685 0.12462 0.0
C341 C 0.65713 0.86751 0.16319 0.0
C342 C 0.66106 0.84825 0.18978 0.0
C343 C 0.66216 0.81712 0.17757 0.0
C344 C 0.65724 0.77123 0.12498 0.0
C345 C 0.62731 0.74452 0.10067 0.0
C346 C 0.62326 0.71149 0.08641 0.0
C347 C 0.64831 0.7041 0.09759 0.0
C348 C 0.67787 0.73025 0.12255 0.0
C349 C 0.68265 0.76399 0.13568 0.0
C350 C 0.66371 0.81902 0.07265 0.0
C351 C 0.63518 0.80443 0.04493 0.0
C352 C 0.63797 0.79401 0.00792 0.0
C353 C 0.66932 0.79797 0.99797 0.0
C354 C 0.69794 0.81296 0.0258 0.0
C355 C 0.69511 0.82331 0.06277 0.0
C356 C 0.64629 0.87288 0.09684 0.0
C357 C 0.61187 0.86453 0.09334 0.0
C358 C 0.60265 0.88277 0.07126 0.0
C359 C 0.62764 0.90942 0.05203 0.0
C360 C 0.66146 0.91578 0.05321 0.0
C361 C 0.67082 0.89765 0.07574 0.0
C362 C 0.65196 0.89778 0.17552 0.0
C363 C 0.62157 0.89056 0.19136 0.0
C364 C 0.6167 0.91888 0.20311 0.0
C365 C 0.64195 0.95496 0.19876 0.0
C366 C 0.67209 0.962 0.18228 0.0
C367 C 0.67709 0.93366 0.17088 0.0
C368 C 0.66095 0.85921 0.23013 0.0
C369 C 0.63163 0.8376 0.2483 0.0
C370 C 0.62905 0.85041 0.28438 0.0
C371 C 0.65566 0.8852 0.30281 0.0
C372 C 0.6858 0.90601 0.28522 0.0
C373 C 0.6884 0.89309 0.24916 0.0
C374 C 0.66165 0.79425 0.20513 0.0
C375 C 0.63126 0.76005 0.20597 0.0
C376 C 0.62972 0.73932 0.23327 0.0
C377 C 0.65859 0.75239 0.26024 0.0
C378 C 0.68935 0.78633 0.25878 0.0
C379 C 0.6908 0.80717 0.23149 0.0
C380 C 0.672 0.78612 0.95885 0.0
C381 C 0.63695 0.98515 0.21143 0.0
H382 H 0.15664 0.83364 0.92236 0.0
H383 H 0.37598 0.01799 0.33611 0.0
H384 H 0.095 0.79523 0.14008 0.0
H385 H 0.04932 0.7356 0.10493 0.0
H386 H 0.12847 0.71485 0.07303 0.0
H387 H 0.17359 0.77312 0.11006 0.0
H388 H 0.15187 0.85892 0.08368 0.0
H389 H 0.14644 0.85085 0.01519 0.0
H390 H 0.22295 0.82078 0.01611 0.0
H391 H 0.22774 0.82847 0.08452 0.0
H392 H 0.23569 0.9424 0.12654 0.0
H393 H 0.28597 0.98401 0.09542 0.0
H394 H 0.32769 0.91622 0.10266 0.0
H395 H 0.27786 0.87527 0.13498 0.0
H396 H 0.23795 0.95651 0.20969 0.0
H397 H 0.28373 0.00547 0.25692 0.0
H398 H 0.32553 0.93868 0.27242 0.0
H399 H 0.27964 0.89005 0.22514 0.0
H400 H 0.18629 0.91065 0.25541 0.0
H401 H 0.20247 0.92793 0.32342 0.0
H402 H 0.22989 0.84735 0.32294 0.0
H403 H 0.21385 0.83056 0.25523 0.0
H404 H 0.11918 0.84091 0.22327 0.0
H405 H 0.08145 0.80428 0.26807 0.0
H406 H 0.11486 0.72898 0.24501 0.0
H407 H 0.15254 0.76588 0.20071 0.0
O408 O 0.1591 0.83655 0.94944 0.0
O409 O 0.1985 0.8212 0.95145 0.0
O410 O 0.33582 0.0329 0.30754 0.0
O411 O 0.35822 -0.00044 0.3166 0.0
C412 C 0.16577 0.82443 0.14902 0.0
C413 C 0.19348 0.84985 0.13064 0.0
C414 C 0.22313 0.88107 0.15173 0.0
C415 C 0.22434 0.88804 0.19089 0.0
C416 C 0.19591 0.86376 0.20903 0.0
C417 C 0.16661 0.83199 0.18824 0.0
C418 C 0.1377 0.78873 0.12743 0.0
C419 C 0.10241 0.77768 0.12577 0.0
C420 C 0.07645 0.74377 0.1056 0.0
C421 C 0.08553 0.7209 0.08605 0.0
C422 C 0.12084 0.7322 0.08741 0.0
C423 C 0.14661 0.76551 0.10845 0.0
C424 C 0.19051 0.84474 0.08906 0.0
C425 C 0.16745 0.85062 0.069 0.0
C426 C 0.16442 0.84601 0.0299 0.0
C427 C 0.18438 0.83533 0.01015 0.0
C428 C 0.20732 0.82921 0.03043 0.0
C429 C 0.21029 0.83381 0.06953 0.0
C430 C 0.25328 0.90598 0.13286 0.0
C431 C 0.25565 0.93655 0.12134 0.0
C432 C 0.28412 0.96001 0.10345 0.0
C433 C 0.3102 0.95282 0.09641 0.0
C434 C 0.3075 0.92183 0.10733 0.0
C435 C 0.27936 0.89876 0.12596 0.0
C436 C 0.25575 0.91996 0.2138 0.0
C437 C 0.25751 0.95289 0.22272 0.0
C438 C 0.28339 0.98058 0.25004 0.0
C439 C 0.30803 0.97578 0.26878 0.0
C440 C 0.30684 0.94317 0.25873 0.0
C441 C 0.28095 0.91553 0.23142 0.0
C442 C 0.19918 0.86959 0.25055 0.0
C443 C 0.195 0.89622 0.27027 0.0
C444 C 0.20415 0.90594 0.30906 0.0
C445 C 0.21778 0.88923 0.32844 0.0
C446 C 0.21969 0.86089 0.30876 0.0
C447 C 0.21044 0.85115 0.27014 0.0
C448 C 0.13848 0.80594 0.20874 0.0
C449 C 0.11759 0.81597 0.22731 0.0
C450 C 0.09622 0.79515 0.25298 0.0
C451 C 0.09559 0.76407 0.2605 0.0
C452 C 0.11502 0.753 0.24014 0.0
C453 C 0.13632 0.7738 0.21451 0.0
C454 C 0.18118 0.83056 0.96861 0.0
C455 C 0.33478 0.00454 0.29878 0.0
H456 H 0.29687 0.17756 0.16709 0.0
H457 H 0.34848 0.96864 0.83793 0.0
H458 H 0.26716 0.18604 0.97387 0.0
H459 H 0.27984 0.24404 0.00854 0.0
H460 H 0.3825 0.29952 0.97084 0.0
H461 H 0.37038 0.24159 0.93814 0.0
H462 H 0.26276 0.11736 0.00744 0.0
H463 H 0.26729 0.13376 0.07531 0.0
H464 H 0.3735 0.22457 0.07467 0.0
H465 H 0.36872 0.20767 0.00693 0.0
H466 H 0.26873 0.0496 0.95852 0.0
H467 H 0.28704 0.01354 0.98732 0.0
H468 H 0.39072 0.11023 0.01895 0.0
H469 H 0.37244 0.14574 0.98926 0.0
H470 H 0.25569 0.04484 0.86808 0.0
H471 H 0.25882 0.99308 0.84052 0.0
H472 H 0.36835 0.05207 0.88382 0.0
H473 H 0.36499 0.10373 0.91062 0.0
H474 H 0.25451 0.10348 0.82581 0.0
H475 H 0.25531 0.08109 0.76051 0.0
H476 H 0.36452 0.11965 0.78559 0.0
H477 H 0.36358 0.14229 0.84995 0.0
H478 H 0.26349 0.17607 0.86135 0.0
H479 H 0.27443 0.2138 0.81176 0.0
H480 H 0.38373 0.2497 0.82561 0.0
H481 H 0.37241 0.21194 0.87427 0.0
O482 O 0.29567 0.1714 0.14029 0.0
O483 O 0.3509 0.21623 0.13874 0.0
O484 O 0.29057 0.9602 0.82494 0.0
O485 O 0.34645 0.98869 0.84836 0.0
C486 C 0.31215 0.17446 0.93651 0.0
C487 C 0.3122 0.15147 0.961 0.0
C488 C 0.31145 0.11983 0.9464 0.0
C489 C 0.30843 0.10982 0.90729 0.0
C490 C 0.30761 0.13237 0.88292 0.0
C491 C 0.31059 0.16525 0.89744 0.0
C492 C 0.31748 0.20982 0.95258 0.0
C493 C 0.29217 0.21087 0.97278 0.0
C494 C 0.29959 0.24379 0.99288 0.0
C495 C 0.33215 0.27608 0.99236 0.0
C496 C 0.35709 0.27501 0.97148 0.0
C497 C 0.34998 0.24207 0.95218 0.0
C498 C 0.31525 0.16154 0.00224 0.0
C499 C 0.28696 0.14077 0.02204 0.0
C500 C 0.28962 0.15024 0.06079 0.0
C501 C 0.32073 0.18056 0.08041 0.0
C502 C 0.34914 0.20113 0.06042 0.0
C503 C 0.34643 0.19163 0.02171 0.0
C504 C 0.31928 0.10017 0.97173 0.0
C505 C 0.29507 0.0631 0.97258 0.0
C506 C 0.30567 0.04258 0.98881 0.0
C507 C 0.34049 0.05905 0.00475 0.0
C508 C 0.36378 0.09683 0.00675 0.0
C509 C 0.35329 0.11721 0.9901 0.0
C510 C 0.30998 0.07783 0.89173 0.0
C511 C 0.28027 0.04643 0.87167 0.0
C512 C 0.28216 0.01696 0.85594 0.0
C513 C 0.31385 0.01841 0.86005 0.0
C514 C 0.34353 0.04997 0.88022 0.0
C515 C 0.34164 0.07945 0.89575 0.0
C516 C 0.30887 0.12393 0.84247 0.0
C517 C 0.2787 0.10773 0.81676 0.0
C518 C 0.27921 0.09507 0.77964 0.0
C519 C 0.30983 0.09822 0.76832 0.0
C520 C 0.34044 0.11645 0.79374 0.0
C521 C 0.34001 0.12943 0.83043 0.0
C522 C 0.31729 0.19182 0.87177 0.0
C523 C 0.28984 0.19273 0.85406 0.0
C524 C 0.29612 0.21403 0.8256 0.0
C525 C 0.32993 0.23462 0.81459 0.0
C526 C 0.35739 0.23423 0.83328 0.0
C527 C 0.35106 0.2129 0.86135 0.0
C528 C 0.32349 0.19056 0.12155 0.0
C529 C 0.31611 0.98729 0.84333 0.0
H530 H 0.81688 0.2004 0.18387 0.0
H531 H 0.64126 0.92139 0.80926 0.0
H532 H 0.83052 0.21971 0.98871 0.0
H533 H 0.87466 0.2833 0.0141 0.0
H534 H 0.95628 0.26481 0.98698 0.0
H535 H 0.9119 0.2005 0.96336 0.0
H536 H 0.77756 0.16351 0.02173 0.0
H537 H 0.7859 0.18047 0.08981 0.0
H538 H 0.87304 0.1663 0.09644 0.0
H539 H 0.86411 0.14891 0.02835 0.0
H540 H 0.72247 0.10562 0.95788 0.0
H541 H 0.67515 0.07391 0.99621 0.0
H542 H 0.73488 0.0387 0.0529 0.0
H543 H 0.78214 0.07051 0.01402 0.0
H544 H 0.7289 0.09857 0.87947 0.0
H545 H 0.68099 0.04611 0.83737 0.0
H546 H 0.71239 0.97696 0.87692 0.0
H547 H 0.7606 0.02991 0.91866 0.0
H548 H 0.79456 0.15729 0.85088 0.0
H549 H 0.77381 0.13561 0.78453 0.0
H550 H 0.7849 0.04421 0.79119 0.0
H551 H 0.80681 0.06703 0.85778 0.0
H552 H 0.84868 0.2206 0.90194 0.0
H553 H 0.88767 0.25871 0.85931 0.0
H554 H 0.92348 0.18529 0.83819 0.0
H555 H 0.88428 0.14728 0.88143 0.0
O556 O 0.81397 0.19353 0.15698 0.0
O557 O 0.85879 0.1862 0.15879 0.0
O558 O 0.64762 0.98021 0.8038 0.0
O559 O 0.65945 0.94231 0.82645 0.0
C560 C 0.84066 0.16753 0.95715 0.0
C561 C 0.81502 0.14408 0.97875 0.0
C562 C 0.7847 0.11122 0.96091 0.0
C563 C 0.78097 0.10101 0.92176 0.0
C564 C 0.80788 0.12325 0.90057 0.0
C565 C 0.83761 0.15661 0.91818 0.0
C566 C 0.86801 0.20537 0.97452 0.0
C567 C 0.85795 0.22913 0.9891 0.0
C568 C 0.88312 0.26547 0.00333 0.0
C569 C 0.91875 0.2789 0.00223 0.0
C570 C 0.92888 0.25511 0.98782 0.0
C571 C 0.90367 0.21846 0.97445 0.0
C572 C 0.81994 0.15451 0.02014 0.0
C573 C 0.7982 0.16372 0.03796 0.0
C574 C 0.80314 0.17358 0.07685 0.0
C575 C 0.83007 0.17464 0.0986 0.0
C576 C 0.85199 0.16568 0.08056 0.0
C577 C 0.84697 0.15575 0.04168 0.0
C578 C 0.75541 0.08979 0.98275 0.0
C579 C 0.72514 0.09072 0.9783 0.0
C580 C 0.69836 0.07299 1.00057 0.0
C581 C 0.70136 0.05398 0.02777 0.0
C582 C 0.73191 0.05337 0.03242 0.0
C583 C 0.75872 0.07111 0.00999 0.0
C584 C 0.74825 0.06802 0.90201 0.0
C585 C 0.72505 0.07195 0.87942 0.0
C586 C 0.69793 0.04202 0.85513 0.0
C587 C 0.69329 0.00747 0.85327 0.0
C588 C 0.71551 0.00328 0.87738 0.0
C589 C 0.7428 0.03335 0.90156 0.0
C590 C 0.8022 0.11376 0.85911 0.0
C591 C 0.79376 0.13336 0.83774 0.0
C592 C 0.78158 0.12067 0.79983 0.0
C593 C 0.77719 0.08784 0.7827 0.0
C594 C 0.78786 0.0695 0.80361 0.0
C595 C 0.80039 0.08247 0.84159 0.0
C596 C 0.86379 0.18132 0.89491 0.0
C597 C 0.8654 0.21311 0.88866 0.0
C598 C 0.88759 0.23471 0.86411 0.0
C599 C 0.90856 0.2249 0.84522 0.0
C600 C 0.90772 0.1936 0.8524 0.0
C601 C 0.88536 0.17187 0.87698 0.0
C602 C 0.83526 0.18512 0.13992 0.0
C603 C 0.66541 0.97595 0.8263 0.0
H604 H 0.88544 0.6723 0.18288 0.0
H605 H 0.65232 0.68656 0.8428 0.0
H606 H 0.92389 0.71589 0.96264 0.0
H607 H 0.96863 0.70622 0.98794 0.0
H608 H 0.88786 0.59601 0.9996 0.0
H609 H 0.84358 0.60529 0.97267 0.0
H610 H 0.88247 0.71525 0.03616 0.0
H611 H 0.89265 0.70738 0.1003 0.0
H612 H 0.80083 0.59754 0.07897 0.0
H613 H 0.79122 0.60564 0.01478 0.0
H614 H 0.80885 0.71322 0.03589 0.0
H615 H 0.76803 0.69787 0.08333 0.0
H616 H 0.6954 0.59373 0.01447 0.0
H617 H 0.73628 0.60948 0.96733 0.0
H618 H 0.79234 0.73409 0.95934 0.0
H619 H 0.75014 0.74755 0.93514 0.0
H620 H 0.69566 0.64367 0.86159 0.0
H621 H 0.73775 0.63032 0.88648 0.0
H622 H 0.82558 0.73701 0.8813 0.0
H623 H 0.80673 0.73805 0.81721 0.0
H624 H 0.78021 0.62747 0.78484 0.0
H625 H 0.79766 0.6263 0.84879 0.0
H626 H 0.89737 0.73531 0.8918 0.0
H627 H 0.9275 0.73666 0.83657 0.0
H628 H 0.88026 0.62014 0.82696 0.0
H629 H 0.85081 0.61922 0.88248 0.0
O630 O 0.88103 0.67475 0.15734 0.0
O631 O 0.83369 0.61841 0.1449 0.0
O632 O 0.69844 0.73487 0.89092 0.0
O633 O 0.66892 0.68147 0.85319 0.0
C634 C 0.85299 0.66837 0.95571 0.0
C635 C 0.83001 0.66631 0.98207 0.0
C636 C 0.80161 0.66951 0.97166 0.0
C637 C 0.79686 0.67608 0.93529 0.0
C638 C 0.82022 0.67879 0.90913 0.0
C639 C 0.84846 0.67523 0.91943 0.0
C640 C 0.88052 0.66139 0.96611 0.0
C641 C 0.916 0.68944 0.96987 0.0
C642 C 0.94142 0.68394 0.98456 0.0
C643 C 0.93155 0.65057 0.99634 0.0
C644 C 0.89611 0.62218 0.99134 0.0
C645 C 0.87087 0.62739 0.97583 0.0
C646 C 0.83599 0.66113 0.02095 0.0
C647 C 0.86463 0.68951 0.04541 0.0
C648 C 0.87035 0.68494 0.08203 0.0
C649 C 0.84749 0.65187 0.09481 0.0
C650 C 0.81888 0.6234 0.07008 0.0
C651 C 0.81325 0.62799 0.03345 0.0
C652 C 0.77531 0.66261 0.99806 0.0
C653 C 0.78392 0.68731 0.03098 0.0
C654 C 0.76079 0.67827 0.05821 0.0
C655 C 0.72876 0.64429 0.05301 0.0
C656 C 0.72012 0.61984 0.01971 0.0
C657 C 0.74313 0.62902 0.99242 0.0
C658 C 0.76815 0.6813 0.92461 0.0
C659 C 0.77091 0.714 0.93851 0.0
C660 C 0.74701 0.72178 0.92433 0.0
C661 C 0.71987 0.69692 0.89601 0.0
C662 C 0.71645 0.66356 0.88312 0.0
C663 C 0.74029 0.65575 0.89747 0.0
C664 C 0.81294 0.68156 0.86966 0.0
C665 C 0.81604 0.71324 0.86015 0.0
C666 C 0.80541 0.71382 0.82355 0.0
C667 C 0.79192 0.68283 0.79594 0.0
C668 C 0.79056 0.65186 0.80531 0.0
C669 C 0.80063 0.65114 0.84187 0.0
C670 C 0.87199 0.67717 0.89112 0.0
C671 C 0.89435 0.71029 0.8783 0.0
C672 C 0.91137 0.71097 0.84669 0.0
C673 C 0.90575 0.67842 0.82711 0.0
C674 C 0.88472 0.6456 0.8412 0.0
C675 C 0.86818 0.64504 0.87312 0.0
C676 C 0.85354 0.64719 0.1338 0.0
C677 C 0.69521 0.7057 0.87995 0.0
H678 H 0.83395 0.72019 0.25355 0.0
H679 H 0.92778 0.58512 0.57243 0.0
H680 H 0.81791 0.7313 0.4503 0.0
H681 H 0.77465 0.73958 0.41865 0.0
H682 H 0.69272 0.63072 0.43276 0.0
H683 H 0.7364 0.62179 0.46239 0.0
H684 H 0.87264 0.72992 0.41246 0.0
H685 H 0.86507 0.73622 0.34704 0.0
H686 H 0.77192 0.62727 0.32692 0.0
H687 H 0.78007 0.62115 0.3923 0.0
H688 H 0.92687 0.72687 0.4668 0.0
H689 H 0.97031 0.74031 0.42296 0.0
H690 H 0.8969 0.63787 0.3518 0.0
H691 H 0.85377 0.6245 0.39627 0.0
H692 H 0.92125 0.71472 0.54451 0.0
H693 H 0.96014 0.70449 0.58206 0.0
H694 H 0.91017 0.59523 0.5201 0.0
H695 H 0.87088 0.60558 0.4837 0.0
H696 H 0.86175 0.71228 0.58173 0.0
H697 H 0.87962 0.71018 0.64528 0.0
H698 H 0.84647 0.59747 0.61222 0.0
H699 H 0.82759 0.59966 0.54875 0.0
H700 H 0.8101 0.7182 0.54917 0.0
H701 H 0.77884 0.71462 0.60385 0.0
H702 H 0.72358 0.59698 0.58226 0.0
H703 H 0.75591 0.60091 0.52823 0.0
O704 O 0.83646 0.71713 0.27932 0.0
O705 O 0.78851 0.66116 0.27058 0.0
O706 O 0.98382 0.66656 0.6014 0.0
O707 O 0.949 0.60679 0.58498 0.0
C708 C 0.80742 0.66906 0.47134 0.0
C709 C 0.83169 0.67091 0.44674 0.0
C710 C 0.86012 0.66865 0.45976 0.0
C711 C 0.86358 0.66333 0.49701 0.0
C712 C 0.83841 0.65981 0.52101 0.0
C713 C 0.81028 0.66252 0.50822 0.0
C714 C 0.78033 0.67583 0.4584 0.0
C715 C 0.79059 0.70927 0.44665 0.0
C716 C 0.76597 0.71391 0.42841 0.0
C717 C 0.73054 0.68561 0.42284 0.0
C718 C 0.71999 0.6529 0.43657 0.0
C719 C 0.74479 0.64788 0.45384 0.0
C720 C 0.82705 0.67498 0.40703 0.0
C721 C 0.85077 0.70736 0.3938 0.0
C722 C 0.84629 0.71093 0.35646 0.0
C723 C 0.81792 0.68222 0.33172 0.0
C724 C 0.79408 0.64989 0.3452 0.0
C725 C 0.79864 0.64632 0.38252 0.0
C726 C 0.88736 0.67453 0.43496 0.0
C727 C 0.9204 0.70711 0.44201 0.0
C728 C 0.94496 0.71496 0.41663 0.0
C729 C 0.93691 0.69037 0.38359 0.0
C730 C 0.90378 0.65761 0.3767 0.0
C731 C 0.87928 0.6497 0.40227 0.0
C732 C 0.89305 0.66077 0.51165 0.0
C733 C 0.91932 0.68889 0.53856 0.0
C734 C 0.94128 0.68282 0.56022 0.0
C735 C 0.93738 0.64849 0.55533 0.0
C736 C 0.91304 0.62148 0.52598 0.0
C737 C 0.891 0.62757 0.50441 0.0
C738 C 0.84338 0.65613 0.56071 0.0
C739 C 0.85725 0.68679 0.58855 0.0
C740 C 0.86764 0.68556 0.62482 0.0
C741 C 0.86482 0.65376 0.63371 0.0
C742 C 0.84907 0.62241 0.60623 0.0
C743 C 0.83828 0.62357 0.57 0.0
C744 C 0.78514 0.65984 0.53469 0.0
C745 C 0.79059 0.69166 0.55567 0.0
C746 C 0.77305 0.68955 0.58713 0.0
C747 C 0.74922 0.65551 0.59761 0.0
C748 C 0.74189 0.62354 0.5749 0.0
C749 C 0.76008 0.62572 0.54391 0.0
C750 C 0.81328 0.68606 0.29203 0.0
C751 C 0.95811 0.64109 0.58163 0.0
H752 H 0.31239 0.08583 0.23625 0.0
H753 H 0.32152 0.36588 0.53368 0.0
H754 H 0.27447 0.07746 0.42309 0.0
H755 H 0.26591 0.01853 0.39881 0.0
H756 H 0.36403 0.05134 0.46034 0.0
H757 H 0.37412 0.11179 0.4823 0.0
H758 H 0.27843 0.12618 0.38067 0.0
H759 H 0.28305 0.10751 0.31598 0.0
H760 H 0.39093 0.14398 0.34733 0.0
H761 H 0.38607 0.16283 0.41186 0.0
H762 H 0.2595 0.16834 0.43665 0.0
H763 H 0.23988 0.19737 0.39745 0.0
H764 H 0.34423 0.26218 0.36554 0.0
H765 H 0.36376 0.23279 0.40527 0.0
H766 H 0.27049 0.19125 0.52241 0.0
H767 H 0.26107 0.24034 0.54203 0.0
H768 H 0.3588 0.31735 0.50296 0.0
H769 H 0.36844 0.26811 0.48445 0.0
H770 H 0.27947 0.14115 0.56235 0.0
H771 H 0.27518 0.16365 0.62545 0.0
H772 H 0.37597 0.26318 0.62598 0.0
H773 H 0.38024 0.23999 0.5629 0.0
H774 H 0.27684 0.07928 0.51483 0.0
H775 H 0.27337 0.04288 0.56278 0.0
H776 H 0.38005 0.12585 0.60825 0.0
H777 H 0.38322 0.16214 0.55982 0.0
O778 O 0.31136 0.09435 0.26175 0.0
O779 O 0.36776 0.11732 0.27845 0.0
O780 O 0.27943 0.30721 0.55393 0.0
O781 O 0.32494 0.34612 0.52655 0.0
C782 C 0.33007 0.13496 0.46743 0.0
C783 C 0.3291 0.15574 0.44084 0.0
C784 C 0.3249 0.1848 0.45233 0.0
C785 C 0.32606 0.19613 0.49081 0.0
C786 C 0.33029 0.17739 0.51782 0.0
C787 C 0.33117 0.14604 0.50602 0.0
C788 C 0.32521 0.09915 0.45398 0.0
C789 C 0.29462 0.07238 0.43059 0.0
C790 C 0.28965 0.03882 0.41685 0.0
C791 C 0.31451 0.03103 0.42761 0.0
C792 C 0.34475 0.05726 0.45165 0.0
C793 C 0.35038 0.09148 0.46432 0.0
C794 C 0.33209 0.1464 0.4009 0.0
C795 C 0.30323 0.13077 0.37339 0.0
C796 C 0.30585 0.1198 0.33651 0.0
C797 C 0.33737 0.12426 0.32647 0.0
C798 C 0.3663 0.14024 0.35407 0.0
C799 C 0.36362 0.15111 0.39093 0.0
C800 C 0.31312 0.19914 0.42424 0.0
C801 C 0.27795 0.18833 0.42064 0.0
C802 C 0.26676 0.2047 0.39809 0.0
C803 C 0.29059 0.23207 0.37869 0.0
C804 C 0.32529 0.24088 0.37998 0.0
C805 C 0.33656 0.22449 0.40285 0.0
C806 C 0.32042 0.22618 0.50254 0.0
C807 C 0.29008 0.21881 0.51857 0.0
C808 C 0.28467 0.24687 0.52957 0.0
C809 C 0.30926 0.28281 0.5242 0.0
C810 C 0.33938 0.29 0.50757 0.0
C811 C 0.34495 0.26194 0.49696 0.0
C812 C 0.33026 0.18882 0.5581 0.0
C813 C 0.30109 0.16732 0.57653 0.0
C814 C 0.29859 0.18038 0.61252 0.0
C815 C 0.3251 0.21536 0.63064 0.0
C816 C 0.35507 0.23615 0.61278 0.0
C817 C 0.3576 0.22296 0.57679 0.0
C818 C 0.33028 0.12325 0.53385 0.0
C819 C 0.29959 0.08935 0.53486 0.0
C820 C 0.29765 0.06869 0.56237 0.0
C821 C 0.32642 0.08155 0.58939 0.0
C822 C 0.35749 0.11518 0.58776 0.0
C823 C 0.35934 0.13595 0.56024 0.0
C824 C 0.33989 0.11187 0.28749 0.0
C825 C 0.30353 0.31267 0.53583 0.0
H826 H 0.8356 0.15819 0.25622 0.0
H827 H 0.05059 0.35907 0.66877 0.0
H828 H 0.76988 0.13591 0.47244 0.0
H829 H 0.72308 0.07506 0.44114 0.0
H830 H 0.79957 0.0468 0.4214 0.0
H831 H 0.84577 0.10701 0.45371 0.0
H832 H 0.82879 0.19498 0.41493 0.0
H833 H 0.82465 0.18256 0.3466 0.0
H834 H 0.89697 0.14757 0.35729 0.0
H835 H 0.9005 0.1597 0.42552 0.0
H836 H 0.90913 0.27977 0.46201 0.0
H837 H 0.95914 0.32162 0.4308 0.0
H838 H 0.00077 0.25355 0.43605 0.0
H839 H 0.95119 0.21233 0.4685 0.0
H840 H 0.91063 0.2951 0.54433 0.0
H841 H 0.95671 0.34472 0.59083 0.0
H842 H 0.00052 0.27956 0.60527 0.0
H843 H 0.95432 0.23026 0.55873 0.0
H844 H 0.85961 0.25057 0.58981 0.0
H845 H 0.87708 0.26978 0.65759 0.0
H846 H 0.906 0.1905 0.65884 0.0
H847 H 0.88871 0.17181 0.59144 0.0
H848 H 0.79244 0.18012 0.55811 0.0
H849 H 0.75354 0.14338 0.60217 0.0
H850 H 0.78824 0.06886 0.58256 0.0
H851 H 0.82701 0.1058 0.53903 0.0
O852 O 0.83753 0.16281 0.28328 0.0
O853 O 0.87486 0.1452 0.29032 0.0
O854 O 0.00978 0.37325 0.6404 0.0
O855 O 0.03274 0.34042 0.64946 0.0
C856 C 0.83961 0.16203 0.48541 0.0
C857 C 0.86748 0.18629 0.46646 0.0
C858 C 0.89682 0.21845 0.48674 0.0
C859 C 0.8979 0.22693 0.52569 0.0
C860 C 0.86957 0.20332 0.5444 0.0
C861 C 0.84037 0.171 0.52434 0.0
C862 C 0.81123 0.12596 0.46505 0.0
C863 C 0.77643 0.11653 0.46127 0.0
C864 C 0.74981 0.08183 0.4434 0.0
C865 C 0.7577 0.05621 0.42871 0.0
C866 C 0.79268 0.066 0.43212 0.0
C867 C 0.81912 0.10044 0.45043 0.0
C868 C 0.86525 0.17864 0.42509 0.0
C869 C 0.84373 0.18467 0.40241 0.0
C870 C 0.84143 0.17756 0.36341 0.0
C871 C 0.8606 0.16421 0.34646 0.0
C872 C 0.88198 0.15799 0.36941 0.0
C873 C 0.88421 0.16507 0.40838 0.0
C874 C 0.9266 0.24309 0.46725 0.0
C875 C 0.92898 0.27387 0.4563 0.0
C876 C 0.95732 0.2975 0.43841 0.0
C877 C 0.98335 0.29036 0.43085 0.0
C878 C 0.98062 0.25914 0.44114 0.0
C879 C 0.95257 0.23585 0.45975 0.0
C880 C 0.92939 0.25931 0.54797 0.0
C881 C 0.93068 0.29198 0.55696 0.0
C882 C 0.95675 0.32005 0.58386 0.0
C883 C 0.98203 0.31588 0.60213 0.0
C884 C 0.98132 0.28355 0.59196 0.0
C885 C 0.95525 0.25554 0.56505 0.0
C886 C 0.87321 0.21005 0.58589 0.0
C887 C 0.86889 0.23682 0.60504 0.0
C888 C 0.87878 0.24764 0.64368 0.0
C889 C 0.89325 0.23189 0.66339 0.0
C890 C 0.89519 0.20333 0.64435 0.0
C891 C 0.88522 0.1925 0.60592 0.0
C892 C 0.81238 0.14547 0.54535 0.0
C893 C 0.79095 0.15537 0.56281 0.0
C894 C 0.76887 0.13446 0.588 0.0
C895 C 0.76815 0.1035 0.59618 0.0
C896 C 0.7884 0.09274 0.57712 0.0
C897 C 0.81036 0.11359 0.55197 0.0
C898 C 0.85818 0.15678 0.30504 0.0
C899 C 0.00894 0.34499 0.63178 0.0
H900 H 0.96069 0.51185 0.49963 0.0
H901 H 0.03264 0.31402 0.1794 0.0
H902 H 0.93257 0.51826 0.30644 0.0
H903 H 0.94347 0.57567 0.34076 0.0
H904 H 0.04657 0.63359 0.30433 0.0
H905 H 0.03622 0.57635 0.27201 0.0
H906 H 0.93014 0.45078 0.34032 0.0
H907 H 0.93325 0.46738 0.40795 0.0
H908 H 0.0386 0.56027 0.40858 0.0
H909 H 0.03526 0.54314 0.34113 0.0
H910 H 0.93893 0.3848 0.29115 0.0
H911 H 0.95773 0.34916 0.31993 0.0
H912 H 0.06004 0.4471 0.35465 0.0
H913 H 0.04121 0.48224 0.32511 0.0
H914 H 0.93031 0.38001 0.2005 0.0
H915 H 0.93796 0.3308 0.17476 0.0
H916 H 0.04643 0.39572 0.22268 0.0
H917 H 0.0386 0.44482 0.24755 0.0
H918 H 0.92493 0.43832 0.15903 0.0
H919 H 0.92725 0.41815 0.09349 0.0
H920 H 0.03702 0.45955 0.1198 0.0
H921 H 0.03456 0.48003 0.18447 0.0
H922 H 0.92898 0.50714 0.19485 0.0
H923 H 0.93782 0.54466 0.14555 0.0
H924 H 0.04853 0.58647 0.15956 0.0
H925 H 0.03927 0.54875 0.20783 0.0
O926 O 0.96007 0.50559 0.47297 0.0
O927 O 0.01462 0.55214 0.47194 0.0
O928 O 0.97376 0.3019 0.16212 0.0
O929 O 0.02888 0.3331 0.18881 0.0
C930 C 0.97913 0.50853 0.26997 0.0
C931 C 0.98001 0.48608 0.29463 0.0
C932 C 0.98098 0.45541 0.28031 0.0
C933 C 0.97943 0.44607 0.2413 0.0
C934 C 0.97751 0.4679 0.21673 0.0
C935 C 0.97835 0.49966 0.231 0.0
C936 C 0.98323 0.54335 0.28581 0.0
C937 C 0.95727 0.5435 0.30553 0.0
C938 C 0.96367 0.57609 0.32542 0.0
C939 C -0.00415 0.60889 0.32515 0.0
C940 C 0.02142 0.60868 0.30473 0.0
C941 C 0.01533 0.57612 0.28566 0.0
C942 C 0.98231 0.49596 0.3358 0.0
C943 C 0.95386 0.47465 0.35517 0.0
C944 C 0.9557 0.48424 0.39376 0.0
C945 C 0.98612 0.51526 0.41365 0.0
C946 C 0.01474 0.5363 0.39412 0.0
C947 C 0.01286 0.52666 0.35557 0.0
C948 C 0.98874 0.43598 0.30598 0.0
C949 C 0.96502 0.39864 0.30595 0.0
C950 C 0.97592 0.37837 0.32215 0.0
C951 C 0.01058 0.39532 0.33884 0.0
C952 C 0.03326 0.43331 0.34179 0.0
C953 C 0.02244 0.45348 0.32526 0.0
C954 C 0.98375 0.41577 0.22629 0.0
C955 C 0.95565 0.38347 0.20543 0.0
C956 C 0.96012 0.35546 0.19076 0.0
C957 C 0.99281 0.35929 0.19678 0.0
C958 C 0.0209 0.39178 0.21763 0.0
C959 C 0.01644 0.41981 0.23205 0.0
C960 C 0.97946 0.45999 0.17637 0.0
C961 C 0.94954 0.44358 0.15024 0.0
C962 C 0.95093 0.43223 0.11297 0.0
C963 C 0.98219 0.43691 0.10185 0.0
C964 C 0.01247 0.45521 0.12776 0.0
C965 C 0.01116 0.46689 0.16464 0.0
C966 C 0.98359 0.52576 0.20526 0.0
C967 C 0.95514 0.52498 0.18762 0.0
C968 C 0.96023 0.54617 0.15933 0.0
C969 C 0.99387 0.56845 0.14854 0.0
C970 C 0.0223 0.56972 0.16715 0.0
C971 C 0.01714 0.54839 0.19496 0.0
C972 C 0.98794 0.52555 0.45459 0.0
C973 C -0.00223 0.32964 0.18144 0.0
H974 H 0.47009 0.5256 0.51747 0.0
H975 H 0.3061 0.2492 0.13976 0.0
H976 H 0.48911 0.54694 0.3235 0.0
H977 H 0.53259 0.6105 0.34977 0.0
H978 H 0.61534 0.59297 0.32539 0.0
H979 H 0.57157 0.52878 0.3007 0.0
H980 H 0.43471 0.48885 0.35479 0.0
H981 H 0.44119 0.50543 0.42278 0.0
H982 H 0.5302 0.49452 0.43278 0.0
H983 H 0.52313 0.4775 0.36476 0.0
H984 H 0.38109 0.42964 0.2912 0.0
H985 H 0.33339 0.3954 0.32824 0.0
H986 H 0.39563 0.36335 0.38553 0.0
H987 H 0.44327 0.39769 0.34794 0.0
H988 H 0.38994 0.42544 0.21287 0.0
H989 H 0.3432 0.37306 0.16962 0.0
H990 H 0.37551 0.30468 0.20931 0.0
H991 H 0.42251 0.35755 0.25225 0.0
H992 H 0.45615 0.48502 0.18504 0.0
H993 H 0.43714 0.46364 0.11836 0.0
H994 H 0.44944 0.37321 0.12645 0.0
H995 H 0.46971 0.3958 0.19336 0.0
H996 H 0.50891 0.54874 0.23771 0.0
H997 H 0.54768 0.58707 0.19509 0.0
H998 H 0.5848 0.51478 0.17436 0.0
H999 H 0.54584 0.47656 0.21762 0.0
O1000 O 0.46793 0.51889 0.49063 0.0
O1001 O 0.51372 0.51322 0.49419 0.0
O1002 O 0.31126 0.30759 0.13512 0.0
O1003 O 0.32376 0.27004 0.15745 0.0
C1004 C 0.50031 0.49533 0.29255 0.0
C1005 C 0.47436 0.47135 0.31355 0.0
C1006 C 0.4447 0.43819 0.29516 0.0
C1007 C 0.44181 0.42841 0.25604 0.0
C1008 C 0.46902 0.45124 0.23548 0.0
C1009 C 0.4982 0.48478 0.25364 0.0
C1010 C 0.52718 0.53315 0.31046 0.0
C1011 C 0.51663 0.55658 0.32465 0.0
C1012 C 0.54145 0.5929 0.33943 0.0
C1013 C 0.57724 0.60662 0.33938 0.0
C1014 C 0.58783 0.58308 0.32548 0.0
C1015 C 0.56296 0.54649 0.31146 0.0
C1016 C 0.47819 0.48154 0.35488 0.0
C1017 C 0.45537 0.4897 0.37174 0.0
C1018 C 0.45925 0.49934 0.41058 0.0
C1019 C 0.48616 0.5012 0.43325 0.0
C1020 C 0.50914 0.49327 0.41617 0.0
C1021 C 0.50518 0.48356 0.37733 0.0
C1022 C 0.41535 0.4156 0.31646 0.0
C1023 C 0.38427 0.41493 0.3115 0.0
C1024 C 0.35724 0.39573 0.33305 0.0
C1025 C 0.3608 0.37682 0.36001 0.0
C1026 C 0.39218 0.37788 0.36522 0.0
C1027 C 0.41924 0.3971 0.34354 0.0
C1028 C 0.40963 0.39526 0.23561 0.0
C1029 C 0.38651 0.39899 0.21262 0.0
C1030 C 0.36007 0.36912 0.18767 0.0
C1031 C 0.35607 0.33484 0.1855 0.0
C1032 C 0.37816 0.3308 0.20999 0.0
C1033 C 0.40475 0.36082 0.23486 0.0
C1034 C 0.4643 0.44197 0.19402 0.0
C1035 C 0.456 0.46138 0.17217 0.0
C1036 C 0.44484 0.44888 0.13406 0.0
C1037 C 0.44127 0.41637 0.11719 0.0
C1038 C 0.45177 0.39824 0.13865 0.0
C1039 C 0.46335 0.41107 0.17682 0.0
C1040 C 0.52469 0.51 0.23091 0.0
C1041 C 0.52592 0.54159 0.22459 0.0
C1042 C 0.54797 0.56331 0.20001 0.0
C1043 C 0.56918 0.55382 0.18113 0.0
C1044 C 0.56884 0.52283 0.18852 0.0
C1045 C 0.54662 0.50099 0.21315 0.0
C1046 C 0.49022 0.51145 0.47451 0.0
C1047 C 0.329 0.30344 0.15779 0.0
H1048 H 0.55037 0.00474 0.51659 0.0
H1049 H 0.3161 0.01167 0.17156 0.0
H1050 H 0.58537 0.04245 0.2918 0.0
H1051 H 0.63265 0.03705 0.31806 0.0
H1052 H 0.55625 0.92811 0.33798 0.0
H1053 H 0.5094 0.93317 0.31033 0.0
H1054 H 0.54512 0.04303 0.3678 0.0
H1055 H 0.55614 0.03723 0.43258 0.0
H1056 H 0.46534 0.92673 0.41409 0.0
H1057 H 0.45488 0.93277 0.34927 0.0
H1058 H 0.4706 0.03855 0.36784 0.0
H1059 H 0.42971 0.02265 0.41521 0.0
H1060 H 0.3578 0.91841 0.34611 0.0
H1061 H 0.39883 0.93465 0.29913 0.0
H1062 H 0.45532 0.05944 0.28956 0.0
H1063 H 0.41382 0.07325 0.26402 0.0
H1064 H 0.35806 0.96801 0.19287 0.0
H1065 H 0.39948 0.95435 0.21905 0.0
H1066 H 0.48853 0.06085 0.21321 0.0
H1067 H 0.46951 0.06257 0.14954 0.0
H1068 H 0.44037 0.95118 0.11629 0.0
H1069 H 0.45822 0.94942 0.17993 0.0
H1070 H 0.55351 0.04956 0.21016 0.0
H1071 H 0.57994 0.04051 0.15552 0.0
H1072 H 0.53843 0.92921 0.17255 0.0
H1073 H 0.51154 0.93823 0.22617 0.0
O1074 O 0.54562 0.00639 0.49083 0.0
O1075 O 0.49876 0.94969 0.47985 0.0
O1076 O 0.36283 0.06069 0.21863 0.0
O1077 O 0.33234 0.0064 0.18255 0.0
C1078 C 0.51516 0.9932 0.28824 0.0
C1079 C 0.49264 0.99226 0.31465 0.0
C1080 C 0.46398 0.99486 0.30375 0.0
C1081 C 0.45903 0.00063 0.26705 0.0
C1082 C 0.48183 0.00205 0.24068 0.0
C1083 C 0.50955 -0.00234 0.25109 0.0
C1084 C 0.54398 0.98841 0.29969 0.0
C1085 C 0.57897 0.01721 0.3012 0.0
C1086 C 0.60585 0.01414 0.31636 0.0
C1087 C 0.59799 0.98241 0.3307 0.0
C1088 C 0.563 0.9531 0.32776 0.0
C1089 C 0.53626 0.95593 0.31193 0.0
C1090 C 0.49909 0.98843 0.35397 0.0
C1091 C 0.52768 0.0176 0.37783 0.0
C1092 C 0.53388 0.01421 0.4148 0.0
C1093 C 0.51156 0.98155 0.42856 0.0
C1094 C 0.48299 0.9523 0.40444 0.0
C1095 C 0.47687 0.9557 0.36745 0.0
C1096 C 0.43748 0.98789 0.32994 0.0
C1097 C 0.44581 0.0125 0.36286 0.0
C1098 C 0.42263 0.00314 0.39005 0.0
C1099 C 0.39078 0.96897 0.38478 0.0
C1100 C 0.38236 0.94467 0.35141 0.0
C1101 C 0.40546 0.95414 0.3242 0.0
C1102 C 0.43046 0.00598 0.25608 0.0
C1103 C 0.43373 0.03913 0.269 0.0
C1104 C 0.41024 0.04711 0.25404 0.0
C1105 C 0.38299 0.02197 0.22594 0.0
C1106 C 0.37897 0.98812 0.21418 0.0
C1107 C 0.40241 0.98013 0.22929 0.0
C1108 C 0.4746 0.00495 0.20122 0.0
C1109 C 0.47837 0.03702 0.19197 0.0
C1110 C 0.46762 0.03799 0.1556 0.0
C1111 C 0.45332 0.00699 0.12787 0.0
C1112 C 0.45129 0.97558 0.1369 0.0
C1113 C 0.46156 0.97449 0.17327 0.0
C1114 C 0.53053 0.99453 0.2221 0.0
C1115 C 0.5506 0.02342 0.2023 0.0
C1116 C 0.56555 0.01816 0.17107 0.0
C1117 C 0.56092 0.98402 0.15944 0.0
C1118 C 0.54235 0.9558 0.18059 0.0
C1119 C 0.52719 0.96097 0.2115 0.0
C1120 C 0.51814 0.9781 0.46791 0.0
C1121 C 0.35889 0.03099 0.20889 0.0
H1122 H 0.5002 0.05528 0.58649 0.0
H1123 H 0.64419 0.94463 0.92173 0.0
H1124 H 0.48441 0.0648 0.78378 0.0
H1125 H 0.44036 0.07133 0.75119 0.0
H1126 H 0.36059 0.96079 0.76285 0.0
H1127 H 0.40517 0.9537 0.79355 0.0
H1128 H 0.53999 0.06537 0.74515 0.0
H1129 H 0.5318 0.07161 0.67985 0.0
H1130 H 0.44072 0.96129 0.65937 0.0
H1131 H 0.44949 0.95526 0.72464 0.0
H1132 H 0.59565 0.06421 0.79893 0.0
H1133 H 0.63937 0.07826 0.75533 0.0
H1134 H 0.56752 0.97487 0.68484 0.0
H1135 H 0.52412 0.96089 0.7291 0.0
H1136 H 0.59262 0.05319 0.87442 0.0
H1137 H 0.63429 0.04524 0.9101 0.0
H1138 H 0.58156 0.93349 0.85448 0.0
H1139 H 0.54009 0.94184 0.819 0.0
H1140 H 0.53327 0.0513 0.91209 0.0
H1141 H 0.55322 0.0524 0.97604 0.0
H1142 H 0.51938 0.93892 0.94846 0.0
H1143 H 0.49865 0.93801 0.8846 0.0
H1144 H 0.47769 0.0512 0.88386 0.0
H1145 H 0.44502 0.04494 0.93786 0.0
H1146 H 0.39135 0.92761 0.91185 0.0
H1147 H 0.42515 0.93424 0.85856 0.0
O1148 O 0.50299 0.05221 0.6122 0.0
O1149 O 0.45616 0.99549 0.60325 0.0
O1150 O 0.656 0.00697 0.93365 0.0
O1151 O 0.62951 0.94919 0.90628 0.0
C1152 C 0.47583 0.0031 0.80383 0.0
C1153 C 0.50043 0.00587 0.77924 0.0
C1154 C 0.52955 0.00482 0.79231 0.0
C1155 C 0.53356 0.00011 0.82968 0.0
C1156 C 0.50845 0.99635 0.85383 0.0
C1157 C 0.47934 -0.00268 0.84088 0.0
C1158 C 0.44799 0.00869 0.79081 0.0
C1159 C 0.45736 0.04206 0.77949 0.0
C1160 C 0.43233 0.04568 0.76067 0.0
C1161 C 0.39731 0.01638 0.75408 0.0
C1162 C 0.38754 0.98372 0.76746 0.0
C1163 C 0.41282 0.97974 0.78535 0.0
C1164 C 0.49549 0.00977 0.73954 0.0
C1165 C 0.51845 0.04251 0.72644 0.0
C1166 C 0.51362 0.04603 0.68916 0.0
C1167 C 0.48563 0.01693 0.66436 0.0
C1168 C 0.46257 0.98422 0.6777 0.0
C1169 C 0.46749 0.9807 0.71496 0.0
C1170 C 0.55692 0.01134 0.76745 0.0
C1171 C 0.58957 0.0444 0.77434 0.0
C1172 C 0.6143 0.05258 0.74909 0.0
C1173 C 0.60677 0.02788 0.71633 0.0
C1174 C 0.57399 0.9947 0.70953 0.0
C1175 C 0.54933 0.98644 0.73498 0.0
C1176 C 0.56342 -0.00189 0.8441 0.0
C1177 C 0.59071 0.02733 0.86927 0.0
C1178 C 0.61422 0.02258 0.8899 0.0
C1179 C 0.61077 0.98847 0.88569 0.0
C1180 C 0.58466 0.95995 0.85875 0.0
C1181 C 0.56121 0.96477 0.83807 0.0
C1182 C 0.51459 0.9946 0.89384 0.0
C1183 C 0.52916 0.02639 0.92025 0.0
C1184 C 0.54069 0.02698 0.95672 0.0
C1185 C 0.53826 0.99586 0.9672 0.0
C1186 C 0.52173 0.96338 0.94121 0.0
C1187 C 0.50987 0.96275 0.90477 0.0
C1188 C 0.45362 0.9932 0.8672 0.0
C1189 C 0.45828 0.02416 0.88929 0.0
C1190 C 0.43992 0.0205 0.92035 0.0
C1191 C 0.41604 0.98576 0.92935 0.0
C1192 C 0.40965 0.95468 0.90564 0.0
C1193 C 0.42868 0.95841 0.87506 0.0
C1194 C 0.48058 0.02075 0.62476 0.0
C1195 C 0.63352 0.98226 0.91002 0.0
H1196 H 0.97067 0.42171 0.57104 0.0
H1197 H 0.03404 0.72911 0.87614 0.0
H1198 H 0.95105 0.42282 0.76164 0.0
H1199 H 0.94113 0.36331 0.73702 0.0
H1200 H 0.04194 0.39655 0.7919 0.0
H1201 H 0.05323 0.45746 0.81405 0.0
H1202 H 0.95164 0.4706 0.72028 0.0
H1203 H 0.94987 0.44846 0.65463 0.0
H1204 H 0.05824 0.48217 0.67468 0.0
H1205 H 0.0598 0.50464 0.7402 0.0
H1206 H 0.93886 0.51349 0.77838 0.0
H1207 H 0.91413 0.53911 0.74084 0.0
H1208 H 0.01407 0.60517 0.69971 0.0
H1209 H 0.03876 0.57917 0.73782 0.0
H1210 H 0.95659 0.54812 0.85207 0.0
H1211 H 0.95447 0.60221 0.87118 0.0
H1212 H 0.06065 0.67075 0.84542 0.0
H1213 H 0.06248 0.61634 0.82674 0.0
H1214 H 0.96178 0.50683 0.89464 0.0
H1215 H 0.9642 0.53256 0.9592 0.0
H1216 H 0.07699 0.59979 0.96662 0.0
H1217 H 0.0742 0.57488 0.90116 0.0
H1218 H 0.9555 0.43158 0.85323 0.0
H1219 H 0.94965 0.39412 0.90092 0.0
H1220 H 0.06006 0.46692 0.93934 0.0
H1221 H 0.0656 0.50422 0.89103 0.0
O1222 O 0.97219 0.43164 0.59684 0.0
O1223 O 0.02874 0.45232 0.60788 0.0
O1224 O 0.97978 0.6708 0.88197 0.0
O1225 O 0.03428 0.70729 0.86906 0.0
C1226 C 0.00931 0.48119 0.80209 0.0
C1227 C 0.00694 0.50127 0.77549 0.0
C1228 C 0.00526 0.53188 0.78764 0.0
C1229 C 0.01082 0.5455 0.82621 0.0
C1230 C 0.01547 0.5268 0.85285 0.0
C1231 C 0.01339 0.49385 0.84083 0.0
C1232 C 0.00318 0.44474 0.78899 0.0
C1233 C 0.97142 0.41767 0.7676 0.0
C1234 C 0.96568 0.38377 0.7537 0.0
C1235 C 0.99099 0.37599 0.76241 0.0
C1236 C 0.0223 0.40245 0.78476 0.0
C1237 C 0.02863 0.43694 0.79754 0.0
C1238 C 0.00604 0.48983 0.73493 0.0
C1239 C 0.97519 0.47393 0.7103 0.0
C1240 C 0.97414 0.46094 0.67286 0.0
C1241 C 0.00392 0.46355 0.65939 0.0
C1242 C 0.03486 0.47981 0.6841 0.0
C1243 C 0.03586 0.49275 0.72151 0.0
C1244 C 0.99065 0.54504 0.76116 0.0
C1245 C 0.95526 0.53311 0.76081 0.0
C1246 C 0.94114 0.54754 0.73921 0.0
C1247 C 0.9622 0.57413 0.71748 0.0
C1248 C -0.00282 0.5844 0.71595 0.0
C1249 C 0.01142 0.56995 0.73788 0.0
C1250 C 0.00987 0.57841 0.83858 0.0
C1251 C 0.9795 0.57487 0.85102 0.0
C1252 C 0.9783 0.6058 0.86171 0.0
C1253 C 0.00744 0.64084 0.85992 0.0
C1254 C 0.03779 0.6442 0.84725 0.0
C1255 C 0.03895 0.61321 0.83661 0.0
C1256 C 0.01777 0.5393 0.89326 0.0
C1257 C 0.987 0.5269 0.91031 0.0
C1258 C 0.98845 0.54161 0.94708 0.0
C1259 C 0.02079 0.56821 0.96774 0.0
C1260 C 0.05177 0.57917 0.9513 0.0
C1261 C 0.05023 0.56509 0.91404 0.0
C1262 C 0.01094 0.47051 0.86871 0.0
C1263 C 0.97847 0.43919 0.87171 0.0
C1264 C 0.97521 0.41791 0.89905 0.0
C1265 C 0.00439 0.4276 0.924 0.0
C1266 C 0.03712 0.45871 0.92049 0.0
C1267 C 0.04033 0.48007 0.89305 0.0
C1268 C 0.00251 0.44893 0.61985 0.0
C1269 C 0.0062 0.67377 0.87102 0.0
H1270 H 0.50448 0.49557 0.59026 0.0
H1271 H 0.71199 0.69185 0.00537 0.0
H1272 H 0.43581 0.46489 0.80354 0.0
H1273 H 0.39036 0.40407 0.77082 0.0
H1274 H 0.46881 0.37808 0.75416 0.0
H1275 H 0.51365 0.43829 0.78787 0.0
H1276 H 0.497 0.52956 0.74941 0.0
H1277 H 0.49351 0.5188 0.68103 0.0
H1278 H 0.56201 0.47891 0.69023 0.0
H1279 H 0.56501 0.48954 0.75851 0.0
H1280 H 0.57527 0.61326 0.80082 0.0
H1281 H 0.62516 0.65625 0.77028 0.0
H1282 H 0.6648 0.58587 0.76747 0.0
H1283 H 0.61539 0.54347 0.79931 0.0
H1284 H 0.5728 0.62487 0.87892 0.0
H1285 H 0.61758 0.67484 0.9261 0.0
H1286 H 0.66433 0.6125 0.94112 0.0
H1287 H 0.61944 0.56285 0.89382 0.0
H1288 H 0.52177 0.57873 0.92326 0.0
H1289 H 0.53744 0.59701 0.99132 0.0
H1290 H 0.56943 0.5202 0.99304 0.0
H1291 H 0.55392 0.50246 0.92535 0.0
H1292 H 0.45624 0.50801 0.88997 0.0
H1293 H 0.41769 0.47095 0.93403 0.0
H1294 H 0.45507 0.39864 0.91576 0.0
H1295 H 0.49352 0.43595 0.87223 0.0
O1296 O 0.50614 0.49952 0.61733 0.0
O1297 O 0.54142 0.47925 0.62359 0.0
O1298 O 0.67013 0.70438 0.97647 0.0
O1299 O 0.69464 0.67304 0.9858 0.0
C1300 C 0.50561 0.49227 0.81864 0.0
C1301 C 0.53336 0.5174 0.80021 0.0
C1302 C 0.56199 0.54985 0.82098 0.0
C1303 C 0.56239 0.55775 0.85991 0.0
C1304 C 0.5341 0.53326 0.87807 0.0
C1305 C 0.50562 0.50068 0.8575 0.0
C1306 C 0.47803 0.45609 0.79774 0.0
C1307 C 0.44307 0.44601 0.79276 0.0
C1308 C 0.41724 0.41133 0.77407 0.0
C1309 C 0.42608 0.38636 0.75979 0.0
C1310 C 0.46121 0.39678 0.76452 0.0
C1311 C 0.48687 0.43121 0.78363 0.0
C1312 C 0.53147 0.51062 0.75883 0.0
C1313 C 0.51124 0.51852 0.73654 0.0
C1314 C 0.5093 0.51235 0.69753 0.0
C1315 C 0.52757 0.49809 0.68015 0.0
C1316 C 0.54771 0.49003 0.70269 0.0
C1317 C 0.54958 0.4962 0.7417 0.0
C1318 C 0.59177 0.57532 0.80203 0.0
C1319 C 0.59469 0.60713 0.79357 0.0
C1320 C 0.62299 0.63145 0.77607 0.0
C1321 C 0.64842 0.62399 0.76644 0.0
C1322 C 0.64514 0.59178 0.77424 0.0
C1323 C 0.61715 0.56778 0.79245 0.0
C1324 C 0.59315 0.59048 0.88273 0.0
C1325 C 0.59323 0.62246 0.89181 0.0
C1326 C 0.61856 0.65073 0.91911 0.0
C1327 C 0.64428 0.64745 0.93772 0.0
C1328 C 0.64477 0.61581 0.92753 0.0
C1329 C 0.61945 0.58761 0.9002 0.0
C1330 C 0.53703 0.53954 0.91955 0.0
C1331 C 0.53137 0.56533 0.93863 0.0
C1332 C 0.54021 0.5756 0.97743 0.0
C1333 C 0.55499 0.56028 0.99742 0.0
C1334 C 0.55834 0.53268 0.97837 0.0
C1335 C 0.54941 0.5224 0.93976 0.0
C1336 C 0.47752 0.47452 0.87791 0.0
C1337 C 0.45538 0.48364 0.89492 0.0
C1338 C 0.43353 0.46256 0.92014 0.0
C1339 C 0.43371 0.4322 0.92875 0.0
C1340 C 0.45455 0.42208 0.90999 0.0
C1341 C 0.47631 0.44312 0.88482 0.0
C1342 C 0.52555 0.49166 0.63869 0.0
C1343 C 0.67038 0.67674 0.9678 0.0
H1344 H 0.63217 0.84956 0.83877 0.0
H1345 H 0.68361 0.64006 0.5105 0.0
H1346 H 0.60104 0.85717 0.64523 0.0
H1347 H 0.614 0.91576 0.67858 0.0
H1348 H 0.71583 0.9702 0.63891 0.0
H1349 H 0.7035 0.91173 0.60757 0.0
H1350 H 0.59644 0.78836 0.67936 0.0
H1351 H 0.60165 0.80526 0.74724 0.0
H1352 H 0.70756 0.89612 0.74523 0.0
H1353 H 0.70211 0.87873 0.6775 0.0
H1354 H 0.60201 0.72018 0.63081 0.0
H1355 H 0.62088 0.68434 0.65912 0.0
H1356 H 0.72451 0.78138 0.68986 0.0
H1357 H 0.70566 0.81662 0.6607 0.0
H1358 H 0.58921 0.71449 0.54019 0.0
H1359 H 0.5929 0.66294 0.51313 0.0
H1360 H 0.70248 0.72305 0.55648 0.0
H1361 H 0.69856 0.77446 0.58278 0.0
H1362 H 0.5878 0.77357 0.49715 0.0
H1363 H 0.58835 0.75078 0.43191 0.0
H1364 H 0.6972 0.78797 0.45708 0.0
H1365 H 0.69653 0.81107 0.52135 0.0
H1366 H 0.59703 0.84748 0.53434 0.0
H1367 H 0.60759 0.88543 0.48507 0.0
H1368 H 0.71607 0.91809 0.49472 0.0
H1369 H 0.70512 0.88017 0.54318 0.0
O1370 O 0.63067 0.84327 0.81195 0.0
O1371 O 0.68576 0.88806 0.80969 0.0
O1372 O 0.62517 0.63053 0.4981 0.0
O1373 O 0.68129 0.65991 0.52093 0.0
C1374 C 0.64541 0.84478 0.60747 0.0
C1375 C 0.64539 0.82199 0.63227 0.0
C1376 C 0.64455 0.79022 0.61802 0.0
C1377 C 0.64165 0.77993 0.57898 0.0
C1378 C 0.64086 0.80225 0.55428 0.0
C1379 C 0.64384 0.8352 0.56846 0.0
C1380 C 0.65096 0.88037 0.6231 0.0
C1381 C 0.62595 0.88188 0.64346 0.0
C1382 C 0.63351 0.91516 0.66278 0.0
C1383 C 0.6659 0.94733 0.66127 0.0
C1384 C 0.69055 0.94578 0.64027 0.0
C1385 C 0.68333 0.91251 0.62179 0.0
C1386 C 0.64873 0.83254 0.67348 0.0
C1387 C 0.62071 0.81191 0.69366 0.0
C1388 C 0.62376 0.82166 0.73241 0.0
C1389 C 0.655 0.85211 0.75166 0.0
C1390 C 0.68311 0.87257 0.73128 0.0
C1391 C 0.68001 0.8628 0.69257 0.0
C1392 C 0.6525 0.77087 0.64363 0.0
C1393 C 0.62845 0.7338 0.64466 0.0
C1394 C 0.63937 0.71341 0.66058 0.0
C1395 C 0.67436 0.73002 0.67599 0.0
C1396 C 0.69745 0.76785 0.67801 0.0
C1397 C 0.68663 0.78809 0.66169 0.0
C1398 C 0.64347 0.748 0.56384 0.0
C1399 C 0.61391 0.71635 0.54393 0.0
C1400 C 0.61612 0.68701 0.52848 0.0
C1401 C 0.648 0.68886 0.53271 0.0
C1402 C 0.67753 0.72065 0.55278 0.0
C1403 C 0.67531 0.74998 0.56804 0.0
C1404 C 0.642 0.79339 0.51386 0.0
C1405 C 0.61185 0.77739 0.48814 0.0
C1406 C 0.61222 0.76448 0.45106 0.0
C1407 C 0.64266 0.76716 0.43975 0.0
C1408 C 0.67323 0.78509 0.4652 0.0
C1409 C 0.67296 0.79834 0.50184 0.0
C1410 C 0.65042 0.86149 0.54253 0.0
C1411 C 0.62312 0.86341 0.52613 0.0
C1412 C 0.62918 0.88486 0.49789 0.0
C1413 C 0.66264 0.90461 0.48584 0.0
C1414 C 0.68999 0.90324 0.50322 0.0
C1415 C 0.68388 0.88176 0.5311 0.0
C1416 C 0.65821 0.86233 0.79282 0.0
C1417 C 0.65065 0.65794 0.51615 0.0
H1418 H 0.13847 0.86202 0.85194 0.0
H1419 H 0.987 0.58778 0.53288 0.0
H1420 H 0.1548 0.87903 0.65658 0.0
H1421 H 0.19938 0.94256 0.6817 0.0
H1422 H 0.28028 0.92227 0.65657 0.0
H1423 H 0.23541 0.85812 0.63306 0.0
H1424 H 0.10076 0.8227 0.6896 0.0
H1425 H 0.10845 0.84073 0.75747 0.0
H1426 H 0.19613 0.82762 0.76699 0.0
H1427 H 0.18785 0.80914 0.6991 0.0
H1428 H 0.04595 0.76241 0.62673 0.0
H1429 H -0.00113 0.73127 0.66552 0.0
H1430 H 0.06013 0.69931 0.72493 0.0
H1431 H 0.10719 0.73066 0.6857 0.0
H1432 H 0.05186 0.7507 0.54632 0.0
H1433 H 0.00508 0.69505 0.50671 0.0
H1434 H 0.04179 0.63336 0.55448 0.0
H1435 H 0.08833 0.68918 0.59382 0.0
H1436 H 0.11827 0.8146 0.52041 0.0
H1437 H 0.09932 0.79395 0.45368 0.0
H1438 H 0.11018 0.70244 0.46052 0.0
H1439 H 0.13053 0.72437 0.52753 0.0
H1440 H 0.17269 0.87848 0.57044 0.0
H1441 H 0.21099 0.91541 0.52668 0.0
H1442 H 0.24592 0.84118 0.50627 0.0
H1443 H 0.20743 0.80435 0.55065 0.0
O1444 O 0.13587 0.85482 0.82514 0.0
O1445 O 0.1811 0.84821 0.82841 0.0
O1446 O 0.97925 0.62924 0.47317 0.0
O1447 O 0.97998 0.59236 0.50967 0.0
C1448 C 0.16434 0.82599 0.62633 0.0
C1449 C 0.1388 0.8029 0.64824 0.0
C1450 C 0.10884 0.76947 0.63088 0.0
C1451 C 0.10523 0.75846 0.59188 0.0
C1452 C 0.13168 0.7808 0.57028 0.0
C1453 C 0.16126 0.81453 0.58748 0.0
C1454 C 0.19188 0.86388 0.6433 0.0
C1455 C 0.18216 0.88808 0.6573 0.0
C1456 C 0.2076 0.92437 0.67143 0.0
C1457 C 0.24318 0.93727 0.67087 0.0
C1458 C 0.25294 0.913 0.65706 0.0
C1459 C 0.22745 0.87644 0.6437 0.0
C1460 C 0.14348 0.81418 0.68948 0.0
C1461 C 0.1214 0.82341 0.70642 0.0
C1462 C 0.12596 0.83387 0.74519 0.0
C1463 C 0.15284 0.83552 0.7677 0.0
C1464 C 0.17512 0.82656 0.75051 0.0
C1465 C 0.17047 0.81602 0.71175 0.0
C1466 C 0.07967 0.74824 0.653 0.0
C1467 C 0.04904 0.74841 0.64791 0.0
C1468 C 0.0224 0.73103 0.67047 0.0
C1469 C 0.02586 0.71304 0.69853 0.0
C1470 C 0.05679 0.71322 0.70382 0.0
C1471 C 0.08349 0.73066 0.68116 0.0
C1472 C 0.07344 0.72392 0.57296 0.0
C1473 C 0.04934 0.725 0.54861 0.0
C1474 C 0.02288 0.69324 0.52575 0.0
C1475 C 0.01959 0.65963 0.52729 0.0
C1476 C 0.04303 0.6585 0.55282 0.0
C1477 C 0.06968 0.69039 0.57549 0.0
C1478 C 0.1258 0.77102 0.52881 0.0
C1479 C 0.11773 0.79081 0.50728 0.0
C1480 C 0.10666 0.77876 0.46912 0.0
C1481 C 0.10284 0.74626 0.45182 0.0
C1482 C 0.11276 0.7275 0.47303 0.0
C1483 C 0.12434 0.73993 0.51127 0.0
C1484 C 0.1874 0.83886 0.56387 0.0
C1485 C 0.18911 0.87058 0.55712 0.0
C1486 C 0.21088 0.8915 0.53188 0.0
C1487 C 0.23135 0.88107 0.5128 0.0
C1488 C 0.23052 0.84993 0.52057 0.0
C1489 C 0.20858 0.8289 0.54584 0.0
C1490 C 0.15758 0.84655 0.80889 0.0
C1491 C 0.99194 0.62624 0.50183 0.0
H1492 H 0.22648 0.33869 0.84554 0.0
H1493 H 0.98986 0.35023 0.50587 0.0
H1494 H 0.26253 0.38196 0.62497 0.0
H1495 H 0.30766 0.37287 0.65023 0.0
H1496 H 0.22758 0.26254 0.6624 0.0
H1497 H 0.18289 0.27132 0.63564 0.0
H1498 H 0.22203 0.38126 0.69894 0.0
H1499 H 0.23285 0.37354 0.76295 0.0
H1500 H 0.14062 0.26396 0.7426 0.0
H1501 H 0.13036 0.2719 0.67852 0.0
H1502 H 0.14872 0.3798 0.69938 0.0
H1503 H 0.10809 0.36571 0.74688 0.0
H1504 H 0.03422 0.26141 0.67895 0.0
H1505 H 0.07496 0.27589 0.63177 0.0
H1506 H 0.13095 0.40006 0.62188 0.0
H1507 H 0.08847 0.41297 0.59724 0.0
H1508 H 0.03322 0.30772 0.52612 0.0
H1509 H 0.07566 0.29498 0.55138 0.0
H1510 H 0.1638 0.40267 0.54479 0.0
H1511 H 0.14369 0.4034 0.48113 0.0
H1512 H 0.11628 0.29252 0.44863 0.0
H1513 H 0.13497 0.29166 0.51219 0.0
H1514 H 0.23629 0.4007 0.55497 0.0
H1515 H 0.26593 0.40151 0.49943 0.0
H1516 H 0.21633 0.2846 0.48899 0.0
H1517 H 0.18757 0.28424 0.54489 0.0
O1518 O 0.2218 0.34109 0.82006 0.0
O1519 O 0.1742 0.2849 0.80815 0.0
O1520 O 0.03649 0.39948 0.55289 0.0
O1521 O 0.0065 0.34532 0.51652 0.0
C1522 C 0.19171 0.33422 0.61875 0.0
C1523 C 0.16899 0.33229 0.64539 0.0
C1524 C 0.14049 0.33545 0.63527 0.0
C1525 C 0.13537 0.34178 0.5989 0.0
C1526 C 0.15849 0.34441 0.57247 0.0
C1527 C 0.18679 0.34088 0.58249 0.0
C1528 C 0.21945 0.32742 0.62883 0.0
C1529 C 0.25487 0.35559 0.63226 0.0
C1530 C 0.28053 0.35041 0.6469 0.0
C1531 C 0.27098 0.31721 0.65891 0.0
C1532 C 0.23561 0.28859 0.65396 0.0
C1533 C 0.21012 0.29353 0.63858 0.0
C1534 C 0.17531 0.32725 0.68422 0.0
C1535 C 0.20424 0.35561 0.70838 0.0
C1536 C 0.21032 0.35113 0.74492 0.0
C1537 C 0.18754 0.31816 0.75794 0.0
C1538 C 0.15862 0.28973 0.73351 0.0
C1539 C 0.15262 0.29423 0.69695 0.0
C1540 C 0.11458 0.32901 0.66203 0.0
C1541 C 0.12361 0.35409 0.69473 0.0
C1542 C 0.10055 0.34579 0.72197 0.0
C1543 C 0.06817 0.31217 0.71701 0.0
C1544 C 0.05918 0.28727 0.68399 0.0
C1545 C 0.08214 0.29571 0.65669 0.0
C1546 C 0.10641 0.34666 0.58836 0.0
C1547 C 0.10927 0.37956 0.60151 0.0
C1548 C 0.08521 0.38702 0.58707 0.0
C1549 C 0.0578 0.3616 0.55925 0.0
C1550 C 0.05423 0.32802 0.54723 0.0
C1551 C 0.07825 0.32056 0.56181 0.0
C1552 C 0.15084 0.3471 0.53307 0.0
C1553 C 0.15383 0.37878 0.52368 0.0
C1554 C 0.14245 0.37917 0.48734 0.0
C1555 C 0.12831 0.34799 0.45984 0.0
C1556 C 0.1271 0.31705 0.46903 0.0
C1557 C 0.13792 0.31651 0.50535 0.0
C1558 C 0.20987 0.34241 0.55389 0.0
C1559 C 0.23267 0.37547 0.54121 0.0
C1560 C 0.2494 0.37586 0.50944 0.0
C1561 C 0.24295 0.34305 0.48956 0.0
C1562 C 0.2214 0.31025 0.50346 0.0
C1563 C 0.20526 0.31 0.53558 0.0
C1564 C 0.19399 0.31357 0.79684 0.0
C1565 C 0.03307 0.37009 0.54276 0.0
loop_
_geom_bond_atom_site_label_1
_geom_bond_atom_site_label_2
_geom_bond_distance
_geom_bond_site_symmetry_2
_ccdc_geom_bond_type
C0 O1 1.160 . S
C0 O7 1.185 . S
O1 C0 1.160 . S
O2 Zn3 1.899 1_655 S
O2 C10 1.284 . S
Zn3 O2 1.899 1_455 S
Zn3 O4 2.032 . S
Zn3 O7 2.086 . S
Zn3 O12 1.990 . S
O4 Zn3 2.032 . S
O4 C8 1.278 1_455 S
C5 O6 1.203 1_455 S
C5 O12 1.254 1_556 S
O6 C5 1.203 1_655 S
O7 C0 1.185 . S
O7 Zn3 2.086 . S
C8 O4 1.278 1_655 S
C8 O9 1.211 . S
O9 C8 1.211 . S
C10 O2 1.284 . S
C10 O11 1.273 . S
O11 C10 1.273 . S
O12 Zn3 1.990 . S
O12 C5 1.254 1_554 S
C13 O14 1.160 . S
C13 O20 1.185 . S
O14 C13 1.160 . S
O15 Zn16 1.899 . S
O15 C23 1.284 . S
Zn16 O15 1.899 . S
Zn16 O17 2.032 . S
Zn16 O20 2.086 . S
Zn16 O25 1.977 . S
O17 Zn16 2.032 . S
O17 C21 1.278 . S
C18 O19 1.203 . S
C18 O25 1.267 . S
O19 C18 1.203 . S
O20 C13 1.185 . S
O20 Zn16 2.086 . S
C21 O17 1.278 . S
C21 O22 1.211 . S
O22 C21 1.211 . S
C23 O15 1.284 . S
C23 O24 1.273 . S
O24 C23 1.273 . S
O25 Zn16 1.977 . S
O25 C18 1.267 . S
C26 O27 1.160 . S
C26 O33 1.185 . S
O27 C26 1.160 . S
O28 Zn29 1.899 1_565 S
O28 C36 1.284 . S
Zn29 O28 1.899 1_545 S
Zn29 O30 2.032 1_544 S
Zn29 O33 2.086 . S
Zn29 O38 1.977 . S
O30 Zn29 2.032 1_566 S
O30 C34 1.278 . S
C31 O32 1.203 1_545 S
C31 O38 1.267 . S
O32 C31 1.203 1_565 S
O33 C26 1.185 . S
O33 Zn29 2.086 . S
C34 O30 1.278 . S
C34 O35 1.211 1_556 S
O35 C34 1.211 1_554 S
C36 O28 1.284 . S
C36 O37 1.273 . S
O37 C36 1.273 . S
O38 Zn29 1.977 . S
O38 C31 1.267 . S
C39 O40 1.160 . S
C39 O46 1.185 . S
O40 C39 1.160 . S
O41 Zn42 1.899 1_455 S
O41 C49 1.284 . S
Zn42 O41 1.899 1_655 S
Zn42 O43 2.032 1_655 S
Zn42 O46 2.086 . S
Zn42 O51 1.977 . S
O43 Zn42 2.032 1_455 S
O43 C47 1.278 . S
C44 O45 1.203 1_655 S
C44 O51 1.267 . S
O45 C44 1.203 1_455 S
O46 C39 1.185 . S
O46 Zn42 2.086 . S
C47 O43 1.278 . S
C47 O48 1.211 . S
O48 C47 1.211 . S
C49 O41 1.284 . S
C49 O50 1.273 . S
O50 C49 1.273 . S
O51 Zn42 1.977 . S
O51 C44 1.267 . S
C52 O53 1.160 . S
C52 O59 1.185 . S
O53 C52 1.160 . S
O54 Zn55 1.899 1_556 S
O54 C62 1.284 . S
Zn55 O54 1.899 1_554 S
Zn55 O56 2.032 . S
Zn55 O59 2.086 . S
Zn55 O64 1.977 1_554 S
O56 Zn55 2.032 . S
O56 C60 1.278 . S
C57 O58 1.203 . S
C57 O64 1.267 . S
O58 C57 1.203 . S
O59 C52 1.185 . S
O59 Zn55 2.086 . S
C60 O56 1.278 . S
C60 O61 1.211 . S
O61 C60 1.211 . S
C62 O54 1.284 . S
C62 O63 1.273 . S
O63 C62 1.273 . S
O64 Zn55 1.977 1_556 S
O64 C57 1.267 . S
C65 O66 1.160 . S
C65 O72 1.185 . S
O66 C65 1.160 . S
O67 Zn68 1.899 1_545 S
O67 C75 1.284 . S
Zn68 O67 1.899 1_565 S
Zn68 O69 2.032 1_565 S
Zn68 O72 2.086 . S
Zn68 O77 1.977 . S
O69 Zn68 2.032 1_545 S
O69 C73 1.278 . S
C70 O71 1.203 1_565 S
C70 O77 1.267 1_556 S
O71 C70 1.203 1_545 S
O72 C65 1.185 . S
O72 Zn68 2.086 . S
C73 O69 1.278 . S
C73 O74 1.211 . S
O74 C73 1.211 . S
C75 O67 1.284 . S
C75 O76 1.273 . S
O76 C75 1.273 . S
O77 Zn68 1.977 . S
O77 C70 1.267 1_554 S
C78 O79 1.160 . S
C78 O85 1.185 . S
O79 C78 1.160 . S
O80 Zn81 1.899 . S
O80 C88 1.284 . S
Zn81 O80 1.899 . S
Zn81 O82 2.032 . S
Zn81 O85 2.086 . S
Zn81 O90 1.977 . S
O82 Zn81 2.032 . S
O82 C86 1.278 . S
C83 O84 1.203 . S
C83 O90 1.267 . S
O84 C83 1.203 . S
O85 C78 1.185 . S
O85 Zn81 2.086 . S
C86 O82 1.278 . S
C86 O87 1.211 . S
O87 C86 1.211 . S
C88 O80 1.284 . S
C88 O89 1.273 . S
O89 C88 1.273 . S
O90 Zn81 1.977 . S
O90 C83 1.267 . S
C91 O92 1.160 . S
C91 O98 1.185 . S
O92 C91 1.160 . S
O93 Zn94 1.899 . S
O93 C101 1.284 1_565 S
Zn94 O93 1.899 . S
Zn94 O95 2.032 . S
Zn94 O98 2.086 . S
Zn94 O103 1.977 . S
O95 Zn94 2.032 . S
O95 C99 1.278 . S
C96 O97 1.203 . S
C96 O103 1.267 . S
O97 C96 1.203 . S
O98 C91 1.185 . S
O98 Zn94 2.086 . S
C99 O95 1.278 . S
C99 O100 1.211 . S
O100 C99 1.211 . S
C101 O93 1.284 1_545 S
C101 O102 1.273 1_545 S
O102 C101 1.273 1_565 S
O103 Zn94 1.977 . S
O103 C96 1.267 . S
C104 O105 1.160 . S
C104 O111 1.185 . S
O105 C104 1.160 . S
O106 Zn107 1.899 . S
O106 C114 1.284 . S
Zn107 O106 1.899 . S
Zn107 O108 2.032 . S
Zn107 O111 2.086 . S
Zn107 O116 1.977 . S
O108 Zn107 2.032 . S
O108 C112 1.278 . S
C109 O110 1.203 . S
C109 O116 1.267 . S
O110 C109 1.203 . S
O111 C104 1.185 . S
O111 Zn107 2.086 . S
C112 O108 1.278 . S
C112 O113 1.211 . S
O113 C112 1.211 . S
C114 O106 1.284 . S
C114 O115 1.283 . S
O115 C114 1.283 . S
O116 Zn107 1.977 . S
O116 C109 1.267 . S
C117 O118 1.164 . S
C117 O124 1.185 . S
O118 C117 1.164 . S
O119 Zn120 1.899 1_545 S
O119 C127 1.284 . S
Zn120 O119 1.899 1_565 S
Zn120 O121 2.032 . S
Zn120 O124 2.086 . S
Zn120 O129 1.977 . S
O121 Zn120 2.032 . S
O121 C125 1.278 . S
C122 O123 1.203 . S
C122 O129 1.267 . S
O123 C122 1.203 . S
O124 C117 1.185 . S
O124 Zn120 2.086 . S
C125 O121 1.278 . S
C125 O126 1.211 . S
O126 C125 1.211 . S
C127 O119 1.284 . S
C127 O128 1.273 . S
O128 C127 1.273 . S
O129 Zn120 1.977 . S
O129 C122 1.267 . S
C130 O131 1.160 . S
C130 O137 1.185 . S
O131 C130 1.160 . S
O132 Zn133 1.899 . S
O132 C140 1.284 . S
Zn133 O132 1.899 . S
Zn133 O134 2.032 . S
Zn133 O137 2.086 1_455 S
Zn133 O142 1.977 . S
O134 Zn133 2.032 . S
O134 C138 1.278 . S
C135 O136 1.203 . S
C135 O142 1.267 . S
O136 C135 1.203 . S
O137 C130 1.185 . S
O137 Zn133 2.086 1_655 S
C138 O134 1.278 . S
C138 O139 1.211 . S
O139 C138 1.211 . S
C140 O132 1.284 . S
C140 O141 1.273 . S
O141 C140 1.273 . S
O142 Zn133 1.977 . S
O142 C135 1.267 . S
C143 O144 1.160 . S
C143 O150 1.185 . S
O144 C143 1.160 . S
O145 Zn146 1.899 . S
O145 C153 1.284 . S
Zn146 O145 1.899 . S
Zn146 O147 2.032 . S
Zn146 O150 2.086 . S
Zn146 O155 1.977 . S
O147 Zn146 2.032 . S
O147 C151 1.278 . S
C148 O149 1.203 . S
C148 O155 1.267 . S
O149 C148 1.203 . S
O150 C143 1.185 . S
O150 Zn146 2.086 . S
C151 O147 1.278 . S
C151 O152 1.211 . S
O152 C151 1.211 . S
C153 O145 1.284 . S
C153 O154 1.273 . S
O154 C153 1.273 . S
O155 Zn146 1.977 . S
O155 C148 1.267 . S
C156 O157 1.163 . S
C156 O163 1.185 . S
O157 C156 1.163 . S
O158 Zn159 1.899 1_565 S
O158 C166 1.284 . S
Zn159 O158 1.899 1_545 S
Zn159 O160 2.032 . S
Zn159 O163 2.086 . S
Zn159 O168 1.977 . S
O160 Zn159 2.032 . S
O160 C164 1.278 . S
C161 O162 1.203 . S
C161 O168 1.267 . S
O162 C161 1.203 . S
O163 C156 1.185 . S
O163 Zn159 2.086 . S
C164 O160 1.278 . S
C164 O165 1.211 . S
O165 C164 1.211 . S
C166 O158 1.284 . S
C166 O167 1.273 . S
O167 C166 1.273 . S
O168 Zn159 1.977 . S
O168 C161 1.267 . S
C169 O170 1.160 . S
C169 O176 1.185 . S
O170 C169 1.160 . S
O171 Zn172 1.899 . S
O171 C179 1.284 . S
Zn172 O171 1.899 . S
Zn172 O173 2.032 . S
Zn172 O176 2.086 1_655 S
Zn172 O181 1.977 . S
O173 Zn172 2.032 . S
O173 C177 1.278 . S
C174 O175 1.203 . S
C174 O181 1.267 . S
O175 C174 1.203 . S
O176 C169 1.185 . S
O176 Zn172 2.086 1_455 S
C177 O173 1.278 . S
C177 O178 1.211 . S
O178 C177 1.211 . S
C179 O171 1.284 . S
C179 O180 1.273 . S
O180 C179 1.273 . S
O181 Zn172 1.977 . S
O181 C174 1.267 . S
C182 O183 1.160 . S
C182 O189 1.185 . S
O183 C182 1.160 . S
O184 Zn185 1.899 . S
O184 C192 1.284 . S
Zn185 O184 1.899 . S
Zn185 O186 2.032 . S
Zn185 O189 2.086 . S
Zn185 O194 1.977 . S
O186 Zn185 2.032 . S
O186 C190 1.278 . S
C187 O188 1.203 . S
C187 O194 1.267 . S
O188 C187 1.203 . S
O189 C182 1.185 . S
O189 Zn185 2.086 . S
C190 O186 1.278 . S
C190 O191 1.211 . S
O191 C190 1.211 . S
C192 O184 1.284 . S
C192 O193 1.273 . S
O193 C192 1.273 . S
O194 Zn185 1.977 . S
O194 C187 1.267 . S
C195 O196 1.160 . S
C195 O202 1.185 . S
O196 C195 1.160 . S
O197 Zn198 1.899 . S
O197 C205 1.284 . S
Zn198 O197 1.899 . S
Zn198 O199 2.032 . S
Zn198 O202 2.086 . S
Zn198 O207 1.977 . S
O199 Zn198 2.032 . S
O199 C203 1.278 . S
C200 O201 1.203 . S
C200 O207 1.267 . S
O201 C200 1.203 . S
O202 C195 1.185 . S
O202 Zn198 2.086 . S
C203 O199 1.278 . S
C203 O204 1.211 . S
O204 C203 1.211 . S
C205 O197 1.284 . S
C205 O206 1.273 . S
O206 C205 1.273 . S
O207 Zn198 1.977 . S
O207 C200 1.267 . S
C208 O209 1.160 . S
C208 O215 1.185 . S
O209 C208 1.160 . S
O210 Zn211 1.899 . S
O210 C218 1.284 1_545 S
Zn211 O210 1.899 . S
Zn211 O212 2.032 . S
Zn211 O215 2.086 . S
Zn211 O220 1.977 . S
O212 Zn211 2.032 . S
O212 C216 1.278 . S
C213 O214 1.203 . S
C213 O220 1.267 . S
O214 C213 1.203 . S
O215 C208 1.185 . S
O215 Zn211 2.086 . S
C216 O212 1.278 . S
C216 O217 1.211 . S
O217 C216 1.211 . S
C218 O210 1.284 1_565 S
C218 O219 1.273 1_565 S
O219 C218 1.273 1_545 S
O220 Zn211 1.977 . S
O220 C213 1.267 . S
C221 O222 1.160 . S
C221 O228 1.185 . S
O222 C221 1.160 . S
O223 Zn224 1.899 . S
O223 C231 1.284 1_655 S
Zn224 O223 1.899 . S
Zn224 O225 2.032 . S
Zn224 O228 2.086 . S
Zn224 O233 1.977 . S
O225 Zn224 2.032 . S
O225 C229 1.278 . S
C226 O227 1.203 . S
C226 O233 1.267 . S
O227 C226 1.203 . S
O228 C221 1.185 . S
O228 Zn224 2.086 . S
C229 O225 1.278 . S
C229 O230 1.211 . S
O230 C229 1.211 . S
C231 O223 1.284 1_455 S
C231 O232 1.273 1_455 S
O232 C231 1.273 1_655 S
O233 Zn224 1.977 . S
O233 C226 1.267 . S
H234 O260 0.856 . S
H235 O263 0.854 . S
H236 C271 0.930 . S
H237 C272 0.930 . S
H238 C274 0.930 . S
H239 C275 0.930 . S
H240 C277 0.931 . S
H241 C278 0.930 . S
H242 C280 0.930 . S
H243 C281 0.929 . S
H244 C283 0.930 . S
H245 C284 0.931 . S
H246 C286 0.930 . S
H247 C287 0.929 . S
H248 C289 0.931 . S
H249 C290 0.930 . S
H250 C292 0.930 . S
H251 C293 0.932 . S
H252 C295 0.930 . S
H253 C296 0.929 . S
H254 C298 0.931 . S
H255 C299 0.930 . S
H256 C301 0.929 . S
H257 C302 0.931 . S
H258 C304 0.930 . S
H259 C305 0.929 . S
O260 H234 0.856 . S
O260 C306 1.300 . S
O261 C306 1.209 . S
O262 C307 1.199 . S
O263 H235 0.854 . S
O263 C307 1.297 . S
C264 C265 1.404 . S
C264 C269 1.397 . S
C264 C270 1.492 . S
C265 C264 1.404 . S
C265 C266 1.396 . S
C265 C276 1.492 . S
C266 C265 1.396 . S
C266 C267 1.397 . S
C266 C282 1.509 . S
C267 C266 1.397 . S
C267 C268 1.412 . S
C267 C288 1.485 . S
C268 C267 1.412 . S
C268 C269 1.388 . S
C268 C294 1.490 . S
C269 C264 1.397 . S
C269 C268 1.388 . S
C269 C300 1.519 . S
C270 C264 1.492 . S
C270 C271 1.363 . S
C270 C275 1.390 . S
C271 H236 0.930 . S
C271 C270 1.363 . S
C271 C272 1.372 . S
C272 H237 0.930 . S
C272 C271 1.372 . S
C272 C273 1.383 . S
C273 C272 1.383 . S
C273 C274 1.395 . S
C274 H238 0.930 . S
C274 C273 1.395 . S
C274 C275 1.362 . S
C275 H239 0.930 . S
C275 C270 1.390 . S
C275 C274 1.362 . S
C276 C265 1.492 . S
C276 C277 1.377 . S
C276 C281 1.397 . S
C277 H240 0.931 . S
C277 C276 1.377 . S
C277 C278 1.376 . S
C278 H241 0.930 . S
C278 C277 1.376 . S
C278 C279 1.376 . S
C279 C278 1.376 . S
C279 C280 1.378 . S
C279 C306 1.486 1_554 S
C280 H242 0.930 . S
C280 C279 1.378 . S
C280 C281 1.376 . S
C281 H243 0.929 . S
C281 C276 1.397 . S
C281 C280 1.376 . S
C282 C266 1.509 . S
C282 C283 1.391 . S
C282 C287 1.386 . S
C283 H244 0.930 . S
C283 C282 1.391 . S
C283 C284 1.375 . S
C284 H245 0.931 . S
C284 C283 1.375 . S
C284 C285 1.375 . S
C285 C284 1.375 . S
C285 C286 1.361 . S
C286 H246 0.930 . S
C286 C285 1.361 . S
C286 C287 1.399 . S
C287 H247 0.929 . S
C287 C282 1.386 . S
C287 C286 1.399 . S
C288 C267 1.485 . S
C288 C289 1.394 . S
C288 C293 1.360 . S
C289 H248 0.931 . S
C289 C288 1.394 . S
C289 C290 1.372 . S
C290 H249 0.930 . S
C290 C289 1.372 . S
C290 C291 1.397 . S
C291 C290 1.397 . S
C291 C292 1.390 . S
C291 C307 1.476 . S
C292 H250 0.930 . S
C292 C291 1.390 . S
C292 C293 1.366 . S
C293 H251 0.932 . S
C293 C288 1.360 . S
C293 C292 1.366 . S
C294 C268 1.490 . S
C294 C295 1.380 . S
C294 C299 1.386 . S
C295 H252 0.930 . S
C295 C294 1.380 . S
C295 C296 1.381 . S
C296 H253 0.929 . S
C296 C295 1.381 . S
C296 C297 1.371 . S
C297 C296 1.371 . S
C297 C298 1.380 . S
C298 H254 0.931 . S
C298 C297 1.380 . S
C298 C299 1.387 . S
C299 H255 0.930 . S
C299 C294 1.386 . S
C299 C298 1.387 . S
C300 C269 1.519 . S
C300 C301 1.377 . S
C300 C305 1.361 . S
C301 H256 0.929 . S
C301 C300 1.377 . S
C301 C302 1.386 . S
C302 H257 0.931 . S
C302 C301 1.386 . S
C302 C303 1.363 . S
C303 C302 1.363 . S
C303 C304 1.385 . S
C304 H258 0.930 . S
C304 C303 1.385 . S
C304 C305 1.396 . S
C305 H259 0.929 . S
C305 C300 1.361 . S
C305 C304 1.396 . S
C306 O260 1.300 . S
C306 O261 1.209 . S
C306 C279 1.486 1_556 S
C307 O262 1.199 . S
C307 O263 1.297 . S
C307 C291 1.476 . S
H308 O334 0.856 . S
H309 O337 0.854 . S
H310 C345 0.930 . S
H311 C346 0.930 . S
H312 C348 0.930 . S
H313 C349 0.930 . S
H314 C351 0.931 . S
H315 C352 0.930 . S
H316 C354 0.930 . S
H317 C355 0.929 . S
H318 C357 0.930 . S
H319 C358 0.931 . S
H320 C360 0.930 . S
H321 C361 0.929 . S
H322 C363 0.931 . S
H323 C364 0.930 . S
H324 C366 0.930 1_545 S
H325 C367 0.932 . S
H326 C369 0.930 . S
H327 C370 0.929 . S
H328 C372 0.931 . S
H329 C373 0.930 . S
H330 C375 0.929 . S
H331 C376 0.931 . S
H332 C378 0.930 . S
H333 C379 0.929 . S
O334 H308 0.856 . S
O334 C380 1.300 . S
O335 C380 1.209 . S
O336 C381 1.199 . S
O337 H309 0.854 . S
O337 C381 1.297 . S
C338 C339 1.404 . S
C338 C343 1.397 . S
C338 C344 1.492 . S
C339 C338 1.404 . S
C339 C340 1.396 . S
C339 C350 1.492 . S
C340 C339 1.396 . S
C340 C341 1.397 . S
C340 C356 1.509 . S
C341 C340 1.397 . S
C341 C342 1.412 . S
C341 C362 1.485 . S
C342 C341 1.412 . S
C342 C343 1.388 . S
C342 C368 1.490 . S
C343 C338 1.397 . S
C343 C342 1.388 . S
C343 C374 1.519 . S
C344 C338 1.492 . S
C344 C345 1.363 . S
C344 C349 1.390 . S
C345 H310 0.930 . S
C345 C344 1.363 . S
C345 C346 1.372 . S
C346 H311 0.930 . S
C346 C345 1.372 . S
C346 C347 1.383 . S
C347 C346 1.383 . S
C347 C348 1.395 . S
C348 H312 0.930 . S
C348 C347 1.395 . S
C348 C349 1.362 . S
C349 H313 0.930 . S
C349 C344 1.390 . S
C349 C348 1.362 . S
C350 C339 1.492 . S
C350 C351 1.377 . S
C350 C355 1.397 . S
C351 H314 0.931 . S
C351 C350 1.377 . S
C351 C352 1.376 . S
C352 H315 0.930 . S
C352 C351 1.376 . S
C352 C353 1.376 . S
C353 C352 1.376 . S
C353 C354 1.378 . S
C353 C380 1.486 1_554 S
C354 H316 0.930 . S
C354 C353 1.378 . S
C354 C355 1.376 . S
C355 H317 0.929 . S
C355 C350 1.397 . S
C355 C354 1.376 . S
C356 C340 1.509 . S
C356 C357 1.391 . S
C356 C361 1.386 . S
C357 H318 0.930 . S
C357 C356 1.391 . S
C357 C358 1.375 . S
C358 H319 0.931 . S
C358 C357 1.375 . S
C358 C359 1.375 . S
C359 C358 1.375 . S
C359 C360 1.361 . S
C360 H320 0.930 . S
C360 C359 1.361 . S
C360 C361 1.399 . S
C361 H321 0.929 . S
C361 C356 1.386 . S
C361 C360 1.399 . S
C362 C341 1.485 . S
C362 C363 1.394 . S
C362 C367 1.360 . S
C363 H322 0.931 . S
C363 C362 1.394 . S
C363 C364 1.372 . S
C364 H323 0.930 . S
C364 C363 1.372 . S
C364 C365 1.397 . S
C365 C364 1.397 . S
C365 C366 1.390 . S
C365 C381 1.476 1_565 S
C366 H324 0.930 1_565 S
C366 C365 1.390 . S
C366 C367 1.366 . S
C367 H325 0.932 . S
C367 C362 1.360 . S
C367 C366 1.366 . S
C368 C342 1.490 . S
C368 C369 1.380 . S
C368 C373 1.386 . S
C369 H326 0.930 . S
C369 C368 1.380 . S
C369 C370 1.381 . S
C370 H327 0.929 . S
C370 C369 1.381 . S
C370 C371 1.371 . S
C371 C370 1.371 . S
C371 C372 1.380 . S
C372 H328 0.931 . S
C372 C371 1.380 . S
C372 C373 1.387 . S
C373 H329 0.930 . S
C373 C368 1.386 . S
C373 C372 1.387 . S
C374 C343 1.519 . S
C374 C375 1.377 . S
C374 C379 1.361 . S
C375 H330 0.929 . S
C375 C374 1.377 . S
C375 C376 1.386 . S
C376 H331 0.931 . S
C376 C375 1.386 . S
C376 C377 1.363 . S
C377 C376 1.363 . S
C377 C378 1.385 . S
C378 H332 0.930 . S
C378 C377 1.385 . S
C378 C379 1.396 . S
C379 H333 0.929 . S
C379 C374 1.361 . S
C379 C378 1.396 . S
C380 O334 1.300 . S
C380 O335 1.209 . S
C380 C353 1.486 1_556 S
C381 O336 1.199 . S
C381 O337 1.297 . S
C381 C365 1.476 1_545 S
H382 O408 0.856 . S
H383 O411 0.854 . S
H384 C419 0.930 . S
H385 C420 0.930 . S
H386 C422 0.930 . S
H387 C423 0.930 . S
H388 C425 0.931 . S
H389 C426 0.930 . S
H390 C428 0.930 . S
H391 C429 0.929 . S
H392 C431 0.930 . S
H393 C432 0.931 . S
H394 C434 0.930 . S
H395 C435 0.929 . S
H396 C437 0.931 . S
H397 C438 0.924 1_545 S
H398 C440 0.930 . S
H399 C441 0.932 . S
H400 C443 0.930 . S
H401 C444 0.929 . S
H402 C446 0.931 . S
H403 C447 0.930 . S
H404 C449 0.929 . S
H405 C450 0.931 . S
H406 C452 0.930 . S
H407 C453 0.929 . S
O408 H382 0.856 . S
O408 C454 1.300 . S
O409 C454 1.209 . S
O410 C455 1.199 . S
O411 H383 0.854 . S
O411 C455 1.297 . S
C412 C413 1.404 . S
C412 C417 1.397 . S
C412 C418 1.492 . S
C413 C412 1.404 . S
C413 C414 1.396 . S
C413 C424 1.492 . S
C414 C413 1.396 . S
C414 C415 1.397 . S
C414 C430 1.509 . S
C415 C414 1.397 . S
C415 C416 1.412 . S
C415 C436 1.485 . S
C416 C415 1.412 . S
C416 C417 1.388 . S
C416 C442 1.490 . S
C417 C412 1.397 . S
C417 C416 1.388 . S
C417 C448 1.519 . S
C418 C412 1.492 . S
C418 C419 1.363 . S
C418 C423 1.390 . S
C419 H384 0.930 . S
C419 C418 1.363 . S
C419 C420 1.372 . S
C420 H385 0.930 . S
C420 C419 1.372 . S
C420 C421 1.383 . S
C421 C420 1.383 . S
C421 C422 1.395 . S
C422 H386 0.930 . S
C422 C421 1.395 . S
C422 C423 1.362 . S
C423 H387 0.930 . S
C423 C418 1.390 . S
C423 C422 1.362 . S
C424 C413 1.492 . S
C424 C425 1.377 . S
C424 C429 1.397 . S
C425 H388 0.931 . S
C425 C424 1.377 . S
C425 C426 1.376 . S
C426 H389 0.930 . S
C426 C425 1.376 . S
C426 C427 1.376 . S
C427 C426 1.376 . S
C427 C428 1.378 . S
C427 C454 1.486 1_554 S
C428 H390 0.930 . S
C428 C427 1.378 . S
C428 C429 1.376 . S
C429 H391 0.929 . S
C429 C424 1.397 . S
C429 C428 1.376 . S
C430 C414 1.509 . S
C430 C431 1.391 . S
C430 C435 1.386 . S
C431 H392 0.930 . S
C431 C430 1.391 . S
C431 C432 1.375 . S
C432 H393 0.931 . S
C432 C431 1.375 . S
C432 C433 1.375 . S
C433 C432 1.375 . S
C433 C434 1.361 . S
C434 H394 0.930 . S
C434 C433 1.361 . S
C434 C435 1.399 . S
C435 H395 0.929 . S
C435 C430 1.386 . S
C435 C434 1.399 . S
C436 C415 1.485 . S
C436 C437 1.394 . S
C436 C441 1.360 . S
C437 H396 0.931 . S
C437 C436 1.394 . S
C437 C438 1.374 . S
C438 H397 0.924 1_565 S
C438 C437 1.374 . S
C438 C439 1.400 1_565 S
C439 C438 1.400 1_545 S
C439 C440 1.390 1_545 S
C439 C455 1.476 . S
C440 H398 0.930 . S
C440 C439 1.390 1_565 S
C440 C441 1.366 . S
C441 H399 0.932 . S
C441 C436 1.360 . S
C441 C440 1.366 . S
C442 C416 1.490 . S
C442 C443 1.380 . S
C442 C447 1.386 . S
C443 H400 0.930 . S
C443 C442 1.380 . S
C443 C444 1.381 . S
C444 H401 0.929 . S
C444 C443 1.381 . S
C444 C445 1.371 . S
C445 C444 1.371 . S
C445 C446 1.380 . S
C446 H402 0.931 . S
C446 C445 1.380 . S
C446 C447 1.387 . S
C447 H403 0.930 . S
C447 C442 1.386 . S
C447 C446 1.387 . S
C448 C417 1.519 . S
C448 C449 1.377 . S
C448 C453 1.361 . S
C449 H404 0.929 . S
C449 C448 1.377 . S
C449 C450 1.386 . S
C450 H405 0.931 . S
C450 C449 1.386 . S
C450 C451 1.363 . S
C451 C450 1.363 . S
C451 C452 1.385 . S
C452 H406 0.930 . S
C452 C451 1.385 . S
C452 C453 1.396 . S
C453 H407 0.929 . S
C453 C448 1.361 . S
C453 C452 1.396 . S
C454 O408 1.300 . S
C454 O409 1.209 . S
C454 C427 1.486 1_556 S
C455 O410 1.199 . S
C455 O411 1.297 . S
C455 C439 1.476 . S
H456 O482 0.856 . S
H457 O485 0.854 . S
H458 C493 0.930 . S
H459 C494 0.930 . S
H460 C496 0.930 . S
H461 C497 0.930 . S
H462 C499 0.931 . S
H463 C500 0.930 . S
H464 C502 0.930 . S
H465 C503 0.929 1_556 S
H466 C505 0.930 . S
H467 C506 0.940 . S
H468 C508 0.930 . S
H469 C509 0.929 . S
H470 C511 0.931 . S
H471 C512 0.930 1_565 S
H472 C514 0.930 . S
H473 C515 0.932 . S
H474 C517 0.930 . S
H475 C518 0.929 . S
H476 C520 0.931 . S
H477 C521 0.930 . S
H478 C523 0.929 . S
H479 C524 0.931 . S
H480 C526 0.930 . S
H481 C527 0.929 . S
O482 H456 0.856 . S
O482 C528 1.300 . S
O483 C528 1.209 . S
O484 C529 1.199 . S
O485 H457 0.854 . S
O485 C529 1.297 . S
C486 C487 1.404 . S
C486 C491 1.397 . S
C486 C492 1.492 . S
C487 C486 1.404 . S
C487 C488 1.396 . S
C487 C498 1.492 . S
C488 C487 1.396 . S
C488 C489 1.397 . S
C488 C504 1.509 . S
C489 C488 1.397 . S
C489 C490 1.412 . S
C489 C510 1.485 . S
C490 C489 1.412 . S
C490 C491 1.388 . S
C490 C516 1.490 . S
C491 C486 1.397 . S
C491 C490 1.388 . S
C491 C522 1.519 . S
C492 C486 1.492 . S
C492 C493 1.363 . S
C492 C497 1.390 . S
C493 H458 0.930 . S
C493 C492 1.363 . S
C493 C494 1.372 . S
C494 H459 0.930 . S
C494 C493 1.372 . S
C494 C495 1.383 . S
C495 C494 1.383 . S
C495 C496 1.395 . S
C496 H460 0.930 . S
C496 C495 1.395 . S
C496 C497 1.362 . S
C497 H461 0.930 . S
C497 C492 1.390 . S
C497 C496 1.362 . S
C498 C487 1.492 . S
C498 C499 1.377 1_556 S
C498 C503 1.397 1_556 S
C499 H462 0.931 . S
C499 C498 1.377 1_554 S
C499 C500 1.376 . S
C500 H463 0.930 . S
C500 C499 1.376 . S
C500 C501 1.376 . S
C501 C500 1.376 . S
C501 C502 1.378 . S
C501 C528 1.486 . S
C502 H464 0.930 . S
C502 C501 1.378 . S
C502 C503 1.376 . S
C503 H465 0.929 1_554 S
C503 C498 1.397 1_554 S
C503 C502 1.376 . S
C504 C488 1.509 . S
C504 C505 1.391 . S
C504 C509 1.386 . S
C505 H466 0.930 . S
C505 C504 1.391 . S
C505 C506 1.357 1_556 S
C506 H467 0.940 . S
C506 C505 1.357 1_554 S
C506 C507 1.384 . S
C507 C506 1.384 . S
C507 C508 1.361 . S
C508 H468 0.930 . S
C508 C507 1.361 . S
C508 C509 1.399 1_554 S
C509 H469 0.929 . S
C509 C504 1.386 . S
C509 C508 1.399 1_556 S
C510 C489 1.485 . S
C510 C511 1.394 . S
C510 C515 1.360 . S
C511 H470 0.931 . S
C511 C510 1.394 . S
C511 C512 1.372 . S
C512 H471 0.930 1_545 S
C512 C511 1.372 . S
C512 C513 1.397 . S
C513 C512 1.397 . S
C513 C514 1.390 . S
C513 C529 1.476 1_545 S
C514 H472 0.930 . S
C514 C513 1.390 . S
C514 C515 1.366 . S
C515 H473 0.932 . S
C515 C510 1.360 . S
C515 C514 1.366 . S
C516 C490 1.490 . S
C516 C517 1.380 . S
C516 C521 1.386 . S
C517 H474 0.930 . S
C517 C516 1.380 . S
C517 C518 1.381 . S
C518 H475 0.929 . S
C518 C517 1.381 . S
C518 C519 1.371 . S
C519 C518 1.371 . S
C519 C520 1.380 . S
C520 H476 0.931 . S
C520 C519 1.380 . S
C520 C521 1.387 . S
C521 H477 0.930 . S
C521 C516 1.386 . S
C521 C520 1.387 . S
C522 C491 1.519 . S
C522 C523 1.377 . S
C522 C527 1.361 . S
C523 H478 0.929 . S
C523 C522 1.377 . S
C523 C524 1.386 . S
C524 H479 0.931 . S
C524 C523 1.386 . S
C524 C525 1.363 . S
C525 C524 1.363 . S
C525 C526 1.385 . S
C526 H480 0.930 . S
C526 C525 1.385 . S
C526 C527 1.396 . S
C527 H481 0.929 . S
C527 C522 1.361 . S
C527 C526 1.396 . S
C528 O482 1.300 . S
C528 O483 1.209 . S
C528 C501 1.486 . S
C529 O484 1.199 . S
C529 O485 1.297 . S
C529 C513 1.476 1_565 S
H530 O556 0.856 . S
H531 O559 0.854 . S
H532 C567 0.930 . S
H533 C568 0.930 . S
H534 C570 0.930 . S
H535 C571 0.930 . S
H536 C573 0.931 . S
H537 C574 0.930 . S
H538 C576 0.930 . S
H539 C577 0.929 . S
H540 C579 0.930 . S
H541 C580 0.931 . S
H542 C582 0.930 . S
H543 C583 0.929 . S
H544 C585 0.931 . S
H545 C586 0.930 . S
H546 C588 0.930 . S
H547 C589 0.932 . S
H548 C591 0.930 . S
H549 C592 0.929 . S
H550 C594 0.931 . S
H551 C595 0.930 . S
H552 C597 0.929 . S
H553 C598 0.931 . S
H554 C600 0.930 . S
H555 C601 0.929 . S
O556 H530 0.856 . S
O556 C602 1.300 . S
O557 C602 1.209 . S
O558 C603 1.199 . S
O559 H531 0.854 . S
O559 C603 1.297 . S
C560 C561 1.404 . S
C560 C565 1.397 . S
C560 C566 1.492 . S
C561 C560 1.404 . S
C561 C562 1.396 . S
C561 C572 1.492 1_556 S
C562 C561 1.396 . S
C562 C563 1.397 . S
C562 C578 1.509 . S
C563 C562 1.397 . S
C563 C564 1.412 . S
C563 C584 1.485 . S
C564 C563 1.412 . S
C564 C565 1.388 . S
C564 C590 1.490 . S
C565 C560 1.397 . S
C565 C564 1.388 . S
C565 C596 1.519 . S
C566 C560 1.492 . S
C566 C567 1.363 . S
C566 C571 1.390 . S
C567 H532 0.930 . S
C567 C566 1.363 . S
C567 C568 1.372 . S
C568 H533 0.930 . S
C568 C567 1.372 . S
C568 C569 1.383 . S
C569 C568 1.383 . S
C569 C570 1.395 . S
C570 H534 0.930 . S
C570 C569 1.395 . S
C570 C571 1.362 . S
C571 H535 0.930 . S
C571 C566 1.390 . S
C571 C570 1.362 . S
C572 C561 1.492 1_554 S
C572 C573 1.377 . S
C572 C577 1.397 . S
C573 H536 0.931 . S
C573 C572 1.377 . S
C573 C574 1.376 . S
C574 H537 0.930 . S
C574 C573 1.376 . S
C574 C575 1.376 . S
C575 C574 1.376 . S
C575 C576 1.378 . S
C575 C602 1.486 . S
C576 H538 0.930 . S
C576 C575 1.378 . S
C576 C577 1.376 . S
C577 H539 0.929 . S
C577 C572 1.397 . S
C577 C576 1.376 . S
C578 C562 1.509 . S
C578 C579 1.391 . S
C578 C583 1.386 . S
C579 H540 0.930 . S
C579 C578 1.391 . S
C579 C580 1.375 1_556 S
C580 H541 0.931 . S
C580 C579 1.375 1_554 S
C580 C581 1.375 . S
C581 C580 1.375 . S
C581 C582 1.361 . S
C582 H542 0.930 . S
C582 C581 1.361 . S
C582 C583 1.399 1_554 S
C583 H543 0.929 . S
C583 C578 1.386 . S
C583 C582 1.399 1_556 S
C584 C563 1.485 . S
C584 C585 1.394 . S
C584 C589 1.360 . S
C585 H544 0.931 . S
C585 C584 1.394 . S
C585 C586 1.372 . S
C586 H545 0.930 . S
C586 C585 1.372 . S
C586 C587 1.397 1_545 S
C587 C586 1.397 1_565 S
C587 C588 1.390 . S
C587 C603 1.476 . S
C588 H546 0.930 . S
C588 C587 1.390 . S
C588 C589 1.366 1_565 S
C589 H547 0.932 . S
C589 C584 1.360 . S
C589 C588 1.366 1_545 S
C590 C564 1.490 . S
C590 C591 1.380 . S
C590 C595 1.386 . S
C591 H548 0.930 . S
C591 C590 1.380 . S
C591 C592 1.381 . S
C592 H549 0.929 . S
C592 C591 1.381 . S
C592 C593 1.371 . S
C593 C592 1.371 . S
C593 C594 1.380 . S
C594 H550 0.931 . S
C594 C593 1.380 . S
C594 C595 1.387 . S
C595 H551 0.930 . S
C595 C590 1.386 . S
C595 C594 1.387 . S
C596 C565 1.519 . S
C596 C597 1.377 . S
C596 C601 1.361 . S
C597 H552 0.929 . S
C597 C596 1.377 . S
C597 C598 1.386 . S
C598 H553 0.931 . S
C598 C597 1.386 . S
C598 C599 1.363 . S
C599 C598 1.363 . S
C599 C600 1.385 . S
C600 H554 0.930 . S
C600 C599 1.385 . S
C600 C601 1.396 . S
C601 H555 0.929 . S
C601 C596 1.361 . S
C601 C600 1.396 . S
C602 O556 1.300 . S
C602 O557 1.209 . S
C602 C575 1.486 . S
C603 O558 1.199 . S
C603 O559 1.297 . S
C603 C587 1.476 . S
H604 O630 0.856 . S
H605 O633 0.854 . S
H606 C641 0.930 . S
H607 C642 0.930 1_554 S
H608 C644 0.930 . S
H609 C645 0.930 . S
H610 C647 0.931 . S
H611 C648 0.930 . S
H612 C650 0.930 . S
H613 C651 0.929 1_556 S
H614 C653 0.930 . S
H615 C654 0.931 . S
H616 C656 0.930 . S
H617 C657 0.929 1_556 S
H618 C659 0.931 . S
H619 C660 0.930 . S
H620 C662 0.930 . S
H621 C663 0.932 . S
H622 C665 0.930 . S
H623 C666 0.929 . S
H624 C668 0.931 . S
H625 C669 0.930 . S
H626 C671 0.929 . S
H627 C672 0.931 . S
H628 C674 0.930 . S
H629 C675 0.929 . S
O630 H604 0.856 . S
O630 C676 1.300 . S
O631 C676 1.209 . S
O632 C677 1.199 . S
O633 H605 0.854 . S
O633 C677 1.297 . S
C634 C635 1.404 . S
C634 C639 1.397 . S
C634 C640 1.492 . S
C635 C634 1.404 . S
C635 C636 1.396 . S
C635 C646 1.492 1_556 S
C636 C635 1.396 . S
C636 C637 1.397 . S
C636 C652 1.509 . S
C637 C636 1.397 . S
C637 C638 1.412 . S
C637 C658 1.485 . S
C638 C637 1.412 . S
C638 C639 1.388 . S
C638 C664 1.490 . S
C639 C634 1.397 . S
C639 C638 1.388 . S
C639 C670 1.519 . S
C640 C634 1.492 . S
C640 C641 1.363 . S
C640 C645 1.390 . S
C641 H606 0.930 . S
C641 C640 1.363 . S
C641 C642 1.372 . S
C642 H607 0.930 1_556 S
C642 C641 1.372 . S
C642 C643 1.383 . S
C643 C642 1.383 . S
C643 C644 1.395 . S
C644 H608 0.930 . S
C644 C643 1.395 . S
C644 C645 1.362 . S
C645 H609 0.930 . S
C645 C640 1.390 . S
C645 C644 1.362 . S
C646 C635 1.492 1_554 S
C646 C647 1.377 . S
C646 C651 1.397 . S
C647 H610 0.931 . S
C647 C646 1.377 . S
C647 C648 1.376 . S
C648 H611 0.930 . S
C648 C647 1.376 . S
C648 C649 1.376 . S
C649 C648 1.376 . S
C649 C650 1.378 . S
C649 C676 1.486 . S
C650 H612 0.930 . S
C650 C649 1.378 . S
C650 C651 1.376 . S
C651 H613 0.929 1_554 S
C651 C646 1.397 . S
C651 C650 1.376 . S
C652 C636 1.509 . S
C652 C653 1.391 1_556 S
C652 C657 1.386 1_556 S
C653 H614 0.930 . S
C653 C652 1.391 1_554 S
C653 C654 1.375 . S
C654 H615 0.931 . S
C654 C653 1.375 . S
C654 C655 1.375 . S
C655 C654 1.375 . S
C655 C656 1.361 . S
C656 H616 0.930 . S
C656 C655 1.361 . S
C656 C657 1.399 . S
C657 H617 0.929 1_554 S
C657 C652 1.386 1_554 S
C657 C656 1.399 . S
C658 C637 1.485 . S
C658 C659 1.394 . S
C658 C663 1.360 . S
C659 H618 0.931 . S
C659 C658 1.394 . S
C659 C660 1.372 . S
C660 H619 0.930 . S
C660 C659 1.372 . S
C660 C661 1.397 . S
C661 C660 1.397 . S
C661 C662 1.390 . S
C661 C677 1.476 . S
C662 H620 0.930 . S
C662 C661 1.390 . S
C662 C663 1.366 . S
C663 H621 0.932 . S
C663 C658 1.360 . S
C663 C662 1.366 . S
C664 C638 1.490 . S
C664 C665 1.380 . S
C664 C669 1.386 . S
C665 H622 0.930 . S
C665 C664 1.380 . S
C665 C666 1.381 . S
C666 H623 0.929 . S
C666 C665 1.381 . S
C666 C667 1.371 . S
C667 C666 1.371 . S
C667 C668 1.380 . S
C668 H624 0.931 . S
C668 C667 1.380 . S
C668 C669 1.387 . S
C669 H625 0.930 . S
C669 C664 1.386 . S
C669 C668 1.387 . S
C670 C639 1.519 . S
C670 C671 1.377 . S
C670 C675 1.361 . S
C671 H626 0.929 . S
C671 C670 1.377 . S
C671 C672 1.386 . S
C672 H627 0.931 . S
C672 C671 1.386 . S
C672 C673 1.363 . S
C673 C672 1.363 . S
C673 C674 1.385 . S
C674 H628 0.930 . S
C674 C673 1.385 . S
C674 C675 1.396 . S
C675 H629 0.929 . S
C675 C670 1.361 . S
C675 C674 1.396 . S
C676 O630 1.300 . S
C676 O631 1.209 . S
C676 C649 1.486 . S
C677 O632 1.199 . S
C677 O633 1.297 . S
C677 C661 1.476 . S
H678 O704 0.856 . S
H679 O707 0.854 . S
H680 C715 0.930 . S
H681 C716 0.930 . S
H682 C718 0.930 . S
H683 C719 0.930 . S
H684 C721 0.931 . S
H685 C722 0.930 . S
H686 C724 0.930 . S
H687 C725 0.929 . S
H688 C727 0.930 . S
H689 C728 0.931 . S
H690 C730 0.930 . S
H691 C731 0.929 . S
H692 C733 0.931 . S
H693 C734 0.930 . S
H694 C736 0.930 . S
H695 C737 0.932 . S
H696 C739 0.930 . S
H697 C740 0.929 . S
H698 C742 0.931 . S
H699 C743 0.930 . S
H700 C745 0.929 . S
H701 C746 0.931 . S
H702 C748 0.930 . S
H703 C749 0.929 . S
O704 H678 0.856 . S
O704 C750 1.300 . S
O705 C750 1.209 . S
O706 C751 1.199 . S
O707 H679 0.854 . S
O707 C751 1.297 . S
C708 C709 1.404 . S
C708 C713 1.397 . S
C708 C714 1.492 . S
C709 C708 1.404 . S
C709 C710 1.396 . S
C709 C720 1.492 . S
C710 C709 1.396 . S
C710 C711 1.397 . S
C710 C726 1.509 . S
C711 C710 1.397 . S
C711 C712 1.412 . S
C711 C732 1.485 . S
C712 C711 1.412 . S
C712 C713 1.388 . S
C712 C738 1.490 . S
C713 C708 1.397 . S
C713 C712 1.388 . S
C713 C744 1.519 . S
C714 C708 1.492 . S
C714 C715 1.363 . S
C714 C719 1.390 . S
C715 H680 0.930 . S
C715 C714 1.363 . S
C715 C716 1.372 . S
C716 H681 0.930 . S
C716 C715 1.372 . S
C716 C717 1.383 . S
C717 C716 1.383 . S
C717 C718 1.395 . S
C718 H682 0.930 . S
C718 C717 1.395 . S
C718 C719 1.362 . S
C719 H683 0.930 . S
C719 C714 1.390 . S
C719 C718 1.362 . S
C720 C709 1.492 . S
C720 C721 1.377 . S
C720 C725 1.397 . S
C721 H684 0.931 . S
C721 C720 1.377 . S
C721 C722 1.376 . S
C722 H685 0.930 . S
C722 C721 1.376 . S
C722 C723 1.376 . S
C723 C722 1.376 . S
C723 C724 1.378 . S
C723 C750 1.486 . S
C724 H686 0.930 . S
C724 C723 1.378 . S
C724 C725 1.376 . S
C725 H687 0.929 . S
C725 C720 1.397 . S
C725 C724 1.376 . S
C726 C710 1.509 . S
C726 C727 1.391 . S
C726 C731 1.386 . S
C727 H688 0.930 . S
C727 C726 1.391 . S
C727 C728 1.375 . S
C728 H689 0.931 . S
C728 C727 1.375 . S
C728 C729 1.375 . S
C729 C728 1.375 . S
C729 C730 1.361 . S
C730 H690 0.930 . S
C730 C729 1.361 . S
C730 C731 1.399 . S
C731 H691 0.929 . S
C731 C726 1.386 . S
C731 C730 1.399 . S
C732 C711 1.485 . S
C732 C733 1.394 . S
C732 C737 1.360 . S
C733 H692 0.931 . S
C733 C732 1.394 . S
C733 C734 1.372 . S
C734 H693 0.930 . S
C734 C733 1.372 . S
C734 C735 1.397 . S
C735 C734 1.397 . S
C735 C736 1.390 . S
C735 C751 1.476 . S
C736 H694 0.930 . S
C736 C735 1.390 . S
C736 C737 1.366 . S
C737 H695 0.932 . S
C737 C732 1.360 . S
C737 C736 1.366 . S
C738 C712 1.490 . S
C738 C739 1.380 . S
C738 C743 1.386 . S
C739 H696 0.930 . S
C739 C738 1.380 . S
C739 C740 1.381 . S
C740 H697 0.929 . S
C740 C739 1.381 . S
C740 C741 1.371 . S
C741 C740 1.371 . S
C741 C742 1.380 . S
C742 H698 0.931 . S
C742 C741 1.380 . S
C742 C743 1.387 . S
C743 H699 0.930 . S
C743 C738 1.386 . S
C743 C742 1.387 . S
C744 C713 1.519 . S
C744 C745 1.377 . S
C744 C749 1.361 . S
C745 H700 0.929 . S
C745 C744 1.377 . S
C745 C746 1.386 . S
C746 H701 0.931 . S
C746 C745 1.386 . S
C746 C747 1.363 . S
C747 C746 1.363 . S
C747 C748 1.385 . S
C748 H702 0.930 . S
C748 C747 1.385 . S
C748 C749 1.396 . S
C749 H703 0.929 . S
C749 C744 1.361 . S
C749 C748 1.396 . S
C750 O704 1.300 . S
C750 O705 1.209 . S
C750 C723 1.486 . S
C751 O706 1.199 . S
C751 O707 1.297 . S
C751 C735 1.476 . S
H752 O778 0.856 . S
H753 O781 0.854 . S
H754 C789 0.930 . S
H755 C790 0.930 . S
H756 C792 0.930 . S
H757 C793 0.930 . S
H758 C795 0.931 . S
H759 C796 0.930 . S
H760 C798 0.930 . S
H761 C799 0.929 . S
H762 C801 0.930 . S
H763 C802 0.931 . S
H764 C804 0.930 . S
H765 C805 0.929 . S
H766 C807 0.931 . S
H767 C808 0.930 . S
H768 C810 0.930 . S
H769 C811 0.932 . S
H770 C813 0.930 . S
H771 C814 0.929 . S
H772 C816 0.931 . S
H773 C817 0.930 . S
H774 C819 0.929 . S
H775 C820 0.931 . S
H776 C822 0.930 . S
H777 C823 0.929 . S
O778 H752 0.856 . S
O778 C824 1.300 . S
O779 C824 1.209 . S
O780 C825 1.199 . S
O781 H753 0.854 . S
O781 C825 1.297 . S
C782 C783 1.404 . S
C782 C787 1.397 . S
C782 C788 1.492 . S
C783 C782 1.404 . S
C783 C784 1.396 . S
C783 C794 1.492 . S
C784 C783 1.396 . S
C784 C785 1.397 . S
C784 C800 1.509 . S
C785 C784 1.397 . S
C785 C786 1.412 . S
C785 C806 1.485 . S
C786 C785 1.412 . S
C786 C787 1.388 . S
C786 C812 1.490 . S
C787 C782 1.397 . S
C787 C786 1.388 . S
C787 C818 1.519 . S
C788 C782 1.492 . S
C788 C789 1.363 . S
C788 C793 1.390 . S
C789 H754 0.930 . S
C789 C788 1.363 . S
C789 C790 1.372 . S
C790 H755 0.930 . S
C790 C789 1.372 . S
C790 C791 1.383 . S
C791 C790 1.383 . S
C791 C792 1.395 . S
C792 H756 0.930 . S
C792 C791 1.395 . S
C792 C793 1.362 . S
C793 H757 0.930 . S
C793 C788 1.390 . S
C793 C792 1.362 . S
C794 C783 1.492 . S
C794 C795 1.377 . S
C794 C799 1.397 . S
C795 H758 0.931 . S
C795 C794 1.377 . S
C795 C796 1.376 . S
C796 H759 0.930 . S
C796 C795 1.376 . S
C796 C797 1.376 . S
C797 C796 1.376 . S
C797 C798 1.378 . S
C797 C824 1.486 . S
C798 H760 0.930 . S
C798 C797 1.378 . S
C798 C799 1.376 . S
C799 H761 0.929 . S
C799 C794 1.397 . S
C799 C798 1.376 . S
C800 C784 1.509 . S
C800 C801 1.391 . S
C800 C805 1.386 . S
C801 H762 0.930 . S
C801 C800 1.391 . S
C801 C802 1.375 . S
C802 H763 0.931 . S
C802 C801 1.375 . S
C802 C803 1.375 . S
C803 C802 1.375 . S
C803 C804 1.361 . S
C804 H764 0.930 . S
C804 C803 1.361 . S
C804 C805 1.399 . S
C805 H765 0.929 . S
C805 C800 1.386 . S
C805 C804 1.399 . S
C806 C785 1.485 . S
C806 C807 1.394 . S
C806 C811 1.360 . S
C807 H766 0.931 . S
C807 C806 1.394 . S
C807 C808 1.372 . S
C808 H767 0.930 . S
C808 C807 1.372 . S
C808 C809 1.397 . S
C809 C808 1.397 . S
C809 C810 1.390 . S
C809 C825 1.476 . S
C810 H768 0.930 . S
C810 C809 1.390 . S
C810 C811 1.366 . S
C811 H769 0.932 . S
C811 C806 1.360 . S
C811 C810 1.366 . S
C812 C786 1.490 . S
C812 C813 1.380 . S
C812 C817 1.386 . S
C813 H770 0.930 . S
C813 C812 1.380 . S
C813 C814 1.381 . S
C814 H771 0.929 . S
C814 C813 1.381 . S
C814 C815 1.371 . S
C815 C814 1.371 . S
C815 C816 1.380 . S
C816 H772 0.931 . S
C816 C815 1.380 . S
C816 C817 1.387 . S
C817 H773 0.930 . S
C817 C812 1.386 . S
C817 C816 1.387 . S
C818 C787 1.519 . S
C818 C819 1.377 . S
C818 C823 1.361 . S
C819 H774 0.929 . S
C819 C818 1.377 . S
C819 C820 1.386 . S
C820 H775 0.931 . S
C820 C819 1.386 . S
C820 C821 1.363 . S
C821 C820 1.363 . S
C821 C822 1.385 . S
C822 H776 0.930 . S
C822 C821 1.385 . S
C822 C823 1.396 . S
C823 H777 0.929 . S
C823 C818 1.361 . S
C823 C822 1.396 . S
C824 O778 1.300 . S
C824 O779 1.209 . S
C824 C797 1.486 . S
C825 O780 1.199 . S
C825 O781 1.297 . S
C825 C809 1.476 . S
H826 O852 0.856 . S
H827 O855 0.854 . S
H828 C863 0.930 . S
H829 C864 0.930 . S
H830 C866 0.930 . S
H831 C867 0.930 . S
H832 C869 0.931 . S
H833 C870 0.930 . S
H834 C872 0.930 . S
H835 C873 0.929 . S
H836 C875 0.930 . S
H837 C876 0.931 . S
H838 C878 0.930 . S
H839 C879 0.929 . S
H840 C881 0.931 . S
H841 C882 0.930 . S
H842 C884 0.930 1_455 S
H843 C885 0.932 . S
H844 C887 0.930 . S
H845 C888 0.929 . S
H846 C890 0.931 . S
H847 C891 0.930 . S
H848 C893 0.929 . S
H849 C894 0.931 . S
H850 C896 0.930 . S
H851 C897 0.929 . S
O852 H826 0.856 . S
O852 C898 1.300 . S
O853 C898 1.209 . S
O854 C899 1.199 . S
O855 H827 0.854 . S
O855 C899 1.297 . S
C856 C857 1.404 . S
C856 C861 1.397 . S
C856 C862 1.492 . S
C857 C856 1.404 . S
C857 C858 1.396 . S
C857 C868 1.492 . S
C858 C857 1.396 . S
C858 C859 1.397 . S
C858 C874 1.509 . S
C859 C858 1.397 . S
C859 C860 1.412 . S
C859 C880 1.485 . S
C860 C859 1.412 . S
C860 C861 1.388 . S
C860 C886 1.490 . S
C861 C856 1.397 . S
C861 C860 1.388 . S
C861 C892 1.519 . S
C862 C856 1.492 . S
C862 C863 1.363 . S
C862 C867 1.390 . S
C863 H828 0.930 . S
C863 C862 1.363 . S
C863 C864 1.372 . S
C864 H829 0.930 . S
C864 C863 1.372 . S
C864 C865 1.383 . S
C865 C864 1.383 . S
C865 C866 1.395 . S
C866 H830 0.930 . S
C866 C865 1.395 . S
C866 C867 1.362 . S
C867 H831 0.930 . S
C867 C862 1.390 . S
C867 C866 1.362 . S
C868 C857 1.492 . S
C868 C869 1.377 . S
C868 C873 1.397 . S
C869 H832 0.931 . S
C869 C868 1.377 . S
C869 C870 1.376 . S
C870 H833 0.930 . S
C870 C869 1.376 . S
C870 C871 1.376 . S
C871 C870 1.376 . S
C871 C872 1.378 . S
C871 C898 1.486 . S
C872 H834 0.930 . S
C872 C871 1.378 . S
C872 C873 1.376 . S
C873 H835 0.929 . S
C873 C868 1.397 . S
C873 C872 1.376 . S
C874 C858 1.509 . S
C874 C875 1.391 . S
C874 C879 1.386 . S
C875 H836 0.930 . S
C875 C874 1.391 . S
C875 C876 1.375 . S
C876 H837 0.931 . S
C876 C875 1.375 . S
C876 C877 1.375 . S
C877 C876 1.375 . S
C877 C878 1.361 . S
C878 H838 0.930 . S
C878 C877 1.361 . S
C878 C879 1.399 . S
C879 H839 0.929 . S
C879 C874 1.386 . S
C879 C878 1.399 . S
C880 C859 1.485 . S
C880 C881 1.394 . S
C880 C885 1.360 . S
C881 H840 0.931 . S
C881 C880 1.394 . S
C881 C882 1.372 . S
C882 H841 0.930 . S
C882 C881 1.372 . S
C882 C883 1.397 . S
C883 C882 1.397 . S
C883 C884 1.390 . S
C883 C899 1.476 1_655 S
C884 H842 0.930 1_655 S
C884 C883 1.390 . S
C884 C885 1.366 . S
C885 H843 0.932 . S
C885 C880 1.360 . S
C885 C884 1.366 . S
C886 C860 1.490 . S
C886 C887 1.380 . S
C886 C891 1.386 . S
C887 H844 0.930 . S
C887 C886 1.380 . S
C887 C888 1.381 . S
C888 H845 0.929 . S
C888 C887 1.381 . S
C888 C889 1.371 . S
C889 C888 1.371 . S
C889 C890 1.380 . S
C890 H846 0.931 . S
C890 C889 1.380 . S
C890 C891 1.387 . S
C891 H847 0.930 . S
C891 C886 1.386 . S
C891 C890 1.387 . S
C892 C861 1.519 . S
C892 C893 1.377 . S
C892 C897 1.361 . S
C893 H848 0.929 . S
C893 C892 1.377 . S
C893 C894 1.386 . S
C894 H849 0.931 . S
C894 C893 1.386 . S
C894 C895 1.363 . S
C895 C894 1.363 . S
C895 C896 1.385 . S
C896 H850 0.930 . S
C896 C895 1.385 . S
C896 C897 1.396 . S
C897 H851 0.929 . S
C897 C892 1.361 . S
C897 C896 1.396 . S
C898 O852 1.300 . S
C898 O853 1.209 . S
C898 C871 1.486 . S
C899 O854 1.199 . S
C899 O855 1.297 . S
C899 C883 1.476 1_455 S
H900 O926 0.856 . S
H901 O929 0.854 . S
H902 C937 0.930 . S
H903 C938 0.930 . S
H904 C940 0.930 . S
H905 C941 0.930 . S
H906 C943 0.923 1_655 S
H907 C944 0.930 1_655 S
H908 C946 0.930 . S
H909 C947 0.929 . S
H910 C949 0.930 . S
H911 C950 0.931 1_655 S
H912 C952 0.930 . S
H913 C953 0.929 . S
H914 C955 0.931 . S
H915 C956 0.930 . S
H916 C958 0.930 . S
H917 C959 0.932 . S
H918 C961 0.930 . S
H919 C962 0.929 . S
H920 C964 0.931 . S
H921 C965 0.930 . S
H922 C967 0.929 . S
H923 C968 0.931 . S
H924 C970 0.930 . S
H925 C971 0.929 . S
O926 H900 0.856 . S
O926 C972 1.300 . S
O927 C972 1.209 . S
O928 C973 1.199 1_655 S
O929 H901 0.854 . S
O929 C973 1.297 . S
C930 C931 1.404 . S
C930 C935 1.397 . S
C930 C936 1.492 . S
C931 C930 1.404 . S
C931 C932 1.396 . S
C931 C942 1.492 . S
C932 C931 1.396 . S
C932 C933 1.397 . S
C932 C948 1.509 . S
C933 C932 1.397 . S
C933 C934 1.422 . S
C933 C954 1.485 . S
C934 C933 1.422 . S
C934 C935 1.379 . S
C934 C960 1.491 1_455 S
C935 C930 1.397 . S
C935 C934 1.379 . S
C935 C966 1.519 1_455 S
C936 C930 1.492 . S
C936 C937 1.363 1_455 S
C936 C941 1.390 . S
C937 H902 0.930 . S
C937 C936 1.363 1_655 S
C937 C938 1.372 . S
C938 H903 0.930 . S
C938 C937 1.372 . S
C938 C939 1.383 . S
C939 C938 1.383 . S
C939 C940 1.395 1_655 S
C940 H904 0.930 . S
C940 C939 1.395 1_455 S
C940 C941 1.362 . S
C941 H905 0.930 . S
C941 C936 1.390 . S
C941 C940 1.362 . S
C942 C931 1.492 . S
C942 C943 1.386 . S
C942 C947 1.397 . S
C943 H906 0.923 1_455 S
C943 C942 1.386 . S
C943 C944 1.374 . S
C944 H907 0.930 1_455 S
C944 C943 1.374 . S
C944 C945 1.376 . S
C945 C944 1.376 . S
C945 C946 1.378 . S
C945 C972 1.486 . S
C946 H908 0.930 . S
C946 C945 1.378 . S
C946 C947 1.376 . S
C947 H909 0.929 . S
C947 C942 1.397 . S
C947 C946 1.376 . S
C948 C932 1.509 . S
C948 C949 1.391 1_455 S
C948 C953 1.386 . S
C949 H910 0.930 . S
C949 C948 1.391 1_655 S
C949 C950 1.375 1_655 S
C950 H911 0.931 1_455 S
C950 C949 1.375 1_455 S
C950 C951 1.375 . S
C951 C950 1.375 . S
C951 C952 1.361 . S
C952 H912 0.930 . S
C952 C951 1.361 . S
C952 C953 1.399 . S
C953 H913 0.929 . S
C953 C948 1.386 . S
C953 C952 1.399 . S
C954 C933 1.485 . S
C954 C955 1.394 1_455 S
C954 C959 1.360 . S
C955 H914 0.931 . S
C955 C954 1.394 1_655 S
C955 C956 1.372 . S
C956 H915 0.930 . S
C956 C955 1.372 . S
C956 C957 1.397 1_655 S
C957 C956 1.397 1_455 S
C957 C958 1.390 . S
C957 C973 1.476 . S
C958 H916 0.930 . S
C958 C957 1.390 . S
C958 C959 1.366 . S
C959 H917 0.932 . S
C959 C954 1.360 . S
C959 C958 1.366 . S
C960 C934 1.491 1_655 S
C960 C961 1.380 . S
C960 C965 1.386 1_655 S
C961 H918 0.930 . S
C961 C960 1.380 . S
C961 C962 1.381 . S
C962 H919 0.929 . S
C962 C961 1.381 . S
C962 C963 1.371 . S
C963 C962 1.371 . S
C963 C964 1.380 1_655 S
C964 H920 0.931 . S
C964 C963 1.380 1_455 S
C964 C965 1.387 . S
C965 H921 0.930 . S
C965 C960 1.386 1_455 S
C965 C964 1.387 . S
C966 C935 1.519 1_655 S
C966 C967 1.377 . S
C966 C971 1.361 1_655 S
C967 H922 0.929 . S
C967 C966 1.377 . S
C967 C968 1.386 . S
C968 H923 0.931 . S
C968 C967 1.386 . S
C968 C969 1.363 . S
C969 C968 1.363 . S
C969 C970 1.385 1_655 S
C970 H924 0.930 . S
C970 C969 1.385 1_455 S
C970 C971 1.396 . S
C971 H925 0.929 . S
C971 C966 1.361 1_455 S
C971 C970 1.396 . S
C972 O926 1.300 . S
C972 O927 1.209 . S
C972 C945 1.486 . S
C973 O928 1.199 1_455 S
C973 O929 1.297 . S
C973 C957 1.476 . S
H974 O1000 0.856 . S
H975 O1003 0.854 . S
H976 C1011 0.930 . S
H977 C1012 0.930 . S
H978 C1014 0.930 . S
H979 C1015 0.930 . S
H980 C1017 0.931 . S
H981 C1018 0.930 . S
H982 C1020 0.930 . S
H983 C1021 0.929 . S
H984 C1023 0.930 . S
H985 C1024 0.931 . S
H986 C1026 0.930 . S
H987 C1027 0.929 . S
H988 C1029 0.931 . S
H989 C1030 0.930 . S
H990 C1032 0.930 . S
H991 C1033 0.932 . S
H992 C1035 0.930 . S
H993 C1036 0.929 . S
H994 C1038 0.931 . S
H995 C1039 0.930 . S
H996 C1041 0.929 . S
H997 C1042 0.931 . S
H998 C1044 0.930 . S
H999 C1045 0.929 . S
O1000 H974 0.856 . S
O1000 C1046 1.300 . S
O1001 C1046 1.209 . S
O1002 C1047 1.199 . S
O1003 H975 0.854 . S
O1003 C1047 1.297 . S
C1004 C1005 1.404 . S
C1004 C1009 1.397 . S
C1004 C1010 1.492 . S
C1005 C1004 1.404 . S
C1005 C1006 1.396 . S
C1005 C1016 1.492 . S
C1006 C1005 1.396 . S
C1006 C1007 1.397 . S
C1006 C1022 1.509 . S
C1007 C1006 1.397 . S
C1007 C1008 1.412 . S
C1007 C1028 1.485 . S
C1008 C1007 1.412 . S
C1008 C1009 1.388 . S
C1008 C1034 1.490 . S
C1009 C1004 1.397 . S
C1009 C1008 1.388 . S
C1009 C1040 1.519 . S
C1010 C1004 1.492 . S
C1010 C1011 1.363 . S
C1010 C1015 1.390 . S
C1011 H976 0.930 . S
C1011 C1010 1.363 . S
C1011 C1012 1.372 . S
C1012 H977 0.930 . S
C1012 C1011 1.372 . S
C1012 C1013 1.383 . S
C1013 C1012 1.383 . S
C1013 C1014 1.395 . S
C1014 H978 0.930 . S
C1014 C1013 1.395 . S
C1014 C1015 1.362 . S
C1015 H979 0.930 . S
C1015 C1010 1.390 . S
C1015 C1014 1.362 . S
C1016 C1005 1.492 . S
C1016 C1017 1.377 . S
C1016 C1021 1.397 . S
C1017 H980 0.931 . S
C1017 C1016 1.377 . S
C1017 C1018 1.376 . S
C1018 H981 0.930 . S
C1018 C1017 1.376 . S
C1018 C1019 1.376 . S
C1019 C1018 1.376 . S
C1019 C1020 1.378 . S
C1019 C1046 1.486 . S
C1020 H982 0.930 . S
C1020 C1019 1.378 . S
C1020 C1021 1.376 . S
C1021 H983 0.929 . S
C1021 C1016 1.397 . S
C1021 C1020 1.376 . S
C1022 C1006 1.509 . S
C1022 C1023 1.391 . S
C1022 C1027 1.386 . S
C1023 H984 0.930 . S
C1023 C1022 1.391 . S
C1023 C1024 1.375 . S
C1024 H985 0.931 . S
C1024 C1023 1.375 . S
C1024 C1025 1.375 . S
C1025 C1024 1.375 . S
C1025 C1026 1.361 . S
C1026 H986 0.930 . S
C1026 C1025 1.361 . S
C1026 C1027 1.399 . S
C1027 H987 0.929 . S
C1027 C1022 1.386 . S
C1027 C1026 1.399 . S
C1028 C1007 1.485 . S
C1028 C1029 1.394 . S
C1028 C1033 1.360 . S
C1029 H988 0.931 . S
C1029 C1028 1.394 . S
C1029 C1030 1.372 . S
C1030 H989 0.930 . S
C1030 C1029 1.372 . S
C1030 C1031 1.397 . S
C1031 C1030 1.397 . S
C1031 C1032 1.390 . S
C1031 C1047 1.476 . S
C1032 H990 0.930 . S
C1032 C1031 1.390 . S
C1032 C1033 1.366 . S
C1033 H991 0.932 . S
C1033 C1028 1.360 . S
C1033 C1032 1.366 . S
C1034 C1008 1.490 . S
C1034 C1035 1.380 . S
C1034 C1039 1.386 . S
C1035 H992 0.930 . S
C1035 C1034 1.380 . S
C1035 C1036 1.381 . S
C1036 H993 0.929 . S
C1036 C1035 1.381 . S
C1036 C1037 1.371 . S
C1037 C1036 1.371 . S
C1037 C1038 1.380 . S
C1038 H994 0.931 . S
C1038 C1037 1.380 . S
C1038 C1039 1.387 . S
C1039 H995 0.930 . S
C1039 C1034 1.386 . S
C1039 C1038 1.387 . S
C1040 C1009 1.519 . S
C1040 C1041 1.377 . S
C1040 C1045 1.361 . S
C1041 H996 0.929 . S
C1041 C1040 1.377 . S
C1041 C1042 1.386 . S
C1042 H997 0.931 . S
C1042 C1041 1.386 . S
C1042 C1043 1.363 . S
C1043 C1042 1.363 . S
C1043 C1044 1.385 . S
C1044 H998 0.930 . S
C1044 C1043 1.385 . S
C1044 C1045 1.396 . S
C1045 H999 0.929 . S
C1045 C1040 1.361 . S
C1045 C1044 1.396 . S
C1046 O1000 1.300 . S
C1046 O1001 1.209 . S
C1046 C1019 1.486 . S
C1047 O1002 1.199 . S
C1047 O1003 1.297 . S
C1047 C1031 1.476 . S
H1048 O1074 0.856 . S
H1049 O1077 0.854 . S
H1050 C1085 0.930 . S
H1051 C1086 0.930 . S
H1052 C1088 0.930 . S
H1053 C1089 0.930 . S
H1054 C1091 0.931 . S
H1055 C1092 0.930 1_545 S
H1056 C1094 0.930 . S
H1057 C1095 0.929 . S
H1058 C1097 0.930 . S
H1059 C1098 0.931 . S
H1060 C1100 0.930 . S
H1061 C1101 0.929 . S
H1062 C1103 0.931 . S
H1063 C1104 0.930 . S
H1064 C1106 0.930 . S
H1065 C1107 0.932 . S
H1066 C1109 0.930 . S
H1067 C1110 0.929 . S
H1068 C1112 0.931 . S
H1069 C1113 0.930 . S
H1070 C1115 0.929 . S
H1071 C1116 0.931 . S
H1072 C1118 0.930 . S
H1073 C1119 0.929 . S
O1074 H1048 0.856 . S
O1074 C1120 1.300 . S
O1075 C1120 1.209 . S
O1076 C1121 1.199 1_545 S
O1077 H1049 0.854 . S
O1077 C1121 1.297 . S
C1078 C1079 1.404 . S
C1078 C1083 1.397 . S
C1078 C1084 1.492 . S
C1079 C1078 1.404 . S
C1079 C1080 1.396 . S
C1079 C1090 1.492 . S
C1080 C1079 1.396 . S
C1080 C1081 1.397 . S
C1080 C1096 1.509 . S
C1081 C1080 1.397 . S
C1081 C1082 1.413 . S
C1081 C1102 1.485 . S
C1082 C1081 1.413 . S
C1082 C1083 1.387 . S
C1082 C1108 1.492 1_565 S
C1083 C1078 1.397 . S
C1083 C1082 1.387 . S
C1083 C1114 1.523 1_565 S
C1084 C1078 1.492 . S
C1084 C1085 1.363 1_565 S
C1084 C1089 1.390 . S
C1085 H1050 0.930 . S
C1085 C1084 1.363 1_545 S
C1085 C1086 1.372 . S
C1086 H1051 0.930 . S
C1086 C1085 1.372 . S
C1086 C1087 1.383 . S
C1087 C1086 1.383 . S
C1087 C1088 1.395 1_545 S
C1088 H1052 0.930 . S
C1088 C1087 1.395 1_565 S
C1088 C1089 1.362 . S
C1089 H1053 0.930 . S
C1089 C1084 1.390 . S
C1089 C1088 1.362 . S
C1090 C1079 1.492 . S
C1090 C1091 1.377 1_565 S
C1090 C1095 1.397 . S
C1091 H1054 0.931 . S
C1091 C1090 1.377 1_545 S
C1091 C1092 1.376 1_545 S
C1092 H1055 0.930 1_565 S
C1092 C1091 1.376 1_565 S
C1092 C1093 1.376 . S
C1093 C1092 1.376 . S
C1093 C1094 1.378 . S
C1093 C1120 1.486 . S
C1094 H1056 0.930 . S
C1094 C1093 1.378 . S
C1094 C1095 1.376 . S
C1095 H1057 0.929 . S
C1095 C1090 1.397 . S
C1095 C1094 1.376 . S
C1096 C1080 1.509 . S
C1096 C1097 1.391 1_565 S
C1096 C1101 1.386 . S
C1097 H1058 0.930 . S
C1097 C1096 1.391 1_545 S
C1097 C1098 1.375 . S
C1098 H1059 0.931 . S
C1098 C1097 1.375 . S
C1098 C1099 1.375 1_545 S
C1099 C1098 1.375 1_565 S
C1099 C1100 1.361 . S
C1100 H1060 0.930 . S
C1100 C1099 1.361 . S
C1100 C1101 1.399 . S
C1101 H1061 0.929 . S
C1101 C1096 1.386 . S
C1101 C1100 1.399 . S
C1102 C1081 1.485 . S
C1102 C1103 1.394 1_565 S
C1102 C1107 1.360 . S
C1103 H1062 0.931 . S
C1103 C1102 1.394 1_545 S
C1103 C1104 1.372 . S
C1104 H1063 0.930 . S
C1104 C1103 1.372 . S
C1104 C1105 1.397 1_545 S
C1105 C1104 1.397 1_565 S
C1105 C1106 1.390 . S
C1105 C1121 1.476 . S
C1106 H1064 0.930 . S
C1106 C1105 1.390 . S
C1106 C1107 1.366 . S
C1107 H1065 0.932 . S
C1107 C1102 1.360 . S
C1107 C1106 1.366 . S
C1108 C1082 1.492 1_545 S
C1108 C1109 1.380 . S
C1108 C1113 1.386 1_545 S
C1109 H1066 0.930 . S
C1109 C1108 1.380 . S
C1109 C1110 1.381 . S
C1110 H1067 0.929 . S
C1110 C1109 1.381 . S
C1110 C1111 1.371 . S
C1111 C1110 1.371 . S
C1111 C1112 1.380 1_545 S
C1112 H1068 0.931 . S
C1112 C1111 1.380 1_565 S
C1112 C1113 1.387 . S
C1113 H1069 0.930 . S
C1113 C1108 1.386 1_565 S
C1113 C1112 1.387 . S
C1114 C1083 1.523 1_545 S
C1114 C1115 1.382 . S
C1114 C1119 1.351 1_545 S
C1115 H1070 0.929 . S
C1115 C1114 1.382 . S
C1115 C1116 1.386 . S
C1116 H1071 0.931 . S
C1116 C1115 1.386 . S
C1116 C1117 1.340 1_545 S
C1117 C1116 1.340 1_565 S
C1117 C1118 1.397 . S
C1118 H1072 0.930 . S
C1118 C1117 1.397 . S
C1118 C1119 1.396 . S
C1119 H1073 0.929 . S
C1119 C1114 1.351 1_565 S
C1119 C1118 1.396 . S
C1120 O1074 1.300 . S
C1120 O1075 1.209 . S
C1120 C1093 1.486 . S
C1121 O1076 1.199 1_565 S
C1121 O1077 1.297 . S
C1121 C1105 1.476 . S
H1122 O1148 0.856 . S
H1123 O1151 0.854 . S
H1124 C1159 0.930 . S
H1125 C1160 0.930 . S
H1126 C1162 0.930 . S
H1127 C1163 0.930 . S
H1128 C1165 0.931 . S
H1129 C1166 0.930 . S
H1130 C1168 0.930 . S
H1131 C1169 0.929 . S
H1132 C1171 0.930 . S
H1133 C1172 0.931 . S
H1134 C1174 0.930 . S
H1135 C1175 0.929 . S
H1136 C1177 0.931 . S
H1137 C1178 0.930 . S
H1138 C1180 0.930 . S
H1139 C1181 0.932 . S
H1140 C1183 0.930 . S
H1141 C1184 0.929 . S
H1142 C1186 0.931 . S
H1143 C1187 0.930 . S
H1144 C1189 0.929 . S
H1145 C1190 0.931 . S
H1146 C1192 0.930 . S
H1147 C1193 0.929 . S
O1148 H1122 0.856 . S
O1148 C1194 1.300 . S
O1149 C1194 1.209 1_565 S
O1150 C1195 1.199 1_545 S
O1151 H1123 0.854 . S
O1151 C1195 1.297 . S
C1152 C1153 1.404 . S
C1152 C1157 1.396 1_545 S
C1152 C1158 1.492 . S
C1153 C1152 1.404 . S
C1153 C1154 1.396 . S
C1153 C1164 1.492 . S
C1154 C1153 1.396 . S
C1154 C1155 1.394 1_545 S
C1154 C1170 1.509 . S
C1155 C1154 1.394 1_565 S
C1155 C1156 1.409 . S
C1155 C1176 1.492 . S
C1156 C1155 1.409 . S
C1156 C1157 1.390 . S
C1156 C1182 1.490 . S
C1157 C1152 1.396 1_565 S
C1157 C1156 1.390 . S
C1157 C1188 1.518 . S
C1158 C1152 1.492 . S
C1158 C1159 1.363 . S
C1158 C1163 1.390 1_545 S
C1159 H1124 0.930 . S
C1159 C1158 1.363 . S
C1159 C1160 1.372 . S
C1160 H1125 0.930 . S
C1160 C1159 1.372 . S
C1160 C1161 1.383 . S
C1161 C1160 1.383 . S
C1161 C1162 1.395 1_545 S
C1162 H1126 0.930 . S
C1162 C1161 1.395 1_565 S
C1162 C1163 1.362 . S
C1163 H1127 0.930 . S
C1163 C1158 1.390 1_565 S
C1163 C1162 1.362 . S
C1164 C1153 1.492 . S
C1164 C1165 1.377 . S
C1164 C1169 1.397 1_545 S
C1165 H1128 0.931 . S
C1165 C1164 1.377 . S
C1165 C1166 1.376 . S
C1166 H1129 0.930 . S
C1166 C1165 1.376 . S
C1166 C1167 1.376 . S
C1167 C1166 1.376 . S
C1167 C1168 1.378 1_545 S
C1167 C1194 1.486 . S
C1168 H1130 0.930 . S
C1168 C1167 1.378 1_565 S
C1168 C1169 1.376 . S
C1169 H1131 0.929 . S
C1169 C1164 1.397 1_565 S
C1169 C1168 1.376 . S
C1170 C1154 1.509 . S
C1170 C1171 1.391 . S
C1170 C1175 1.386 1_545 S
C1171 H1132 0.930 . S
C1171 C1170 1.391 . S
C1171 C1172 1.375 . S
C1172 H1133 0.931 . S
C1172 C1171 1.375 . S
C1172 C1173 1.375 . S
C1173 C1172 1.375 . S
C1173 C1174 1.361 1_545 S
C1174 H1134 0.930 . S
C1174 C1173 1.361 1_565 S
C1174 C1175 1.399 . S
C1175 H1135 0.929 . S
C1175 C1170 1.386 1_565 S
C1175 C1174 1.399 . S
C1176 C1155 1.492 . S
C1176 C1177 1.394 1_565 S
C1176 C1181 1.360 . S
C1177 H1136 0.931 . S
C1177 C1176 1.394 1_545 S
C1177 C1178 1.372 . S
C1178 H1137 0.930 . S
C1178 C1177 1.372 . S
C1178 C1179 1.397 1_545 S
C1179 C1178 1.397 1_565 S
C1179 C1180 1.390 . S
C1179 C1195 1.476 . S
C1180 H1138 0.930 . S
C1180 C1179 1.390 . S
C1180 C1181 1.366 . S
C1181 H1139 0.932 . S
C1181 C1176 1.360 . S
C1181 C1180 1.366 . S
C1182 C1156 1.490 . S
C1182 C1183 1.380 1_565 S
C1182 C1187 1.386 . S
C1183 H1140 0.930 . S
C1183 C1182 1.380 1_545 S
C1183 C1184 1.381 . S
C1184 H1141 0.929 . S
C1184 C1183 1.381 . S
C1184 C1185 1.371 1_545 S
C1185 C1184 1.371 1_565 S
C1185 C1186 1.380 . S
C1186 H1142 0.931 . S
C1186 C1185 1.380 . S
C1186 C1187 1.387 . S
C1187 H1143 0.930 . S
C1187 C1182 1.386 . S
C1187 C1186 1.387 . S
C1188 C1157 1.518 . S
C1188 C1189 1.377 1_565 S
C1188 C1193 1.361 . S
C1189 H1144 0.929 . S
C1189 C1188 1.377 1_545 S
C1189 C1190 1.386 . S
C1190 H1145 0.931 . S
C1190 C1189 1.386 . S
C1190 C1191 1.363 1_545 S
C1191 C1190 1.363 1_565 S
C1191 C1192 1.385 . S
C1192 H1146 0.930 . S
C1192 C1191 1.385 . S
C1192 C1193 1.396 . S
C1193 H1147 0.929 . S
C1193 C1188 1.361 . S
C1193 C1192 1.396 . S
C1194 O1148 1.300 . S
C1194 O1149 1.209 1_545 S
C1194 C1167 1.486 . S
C1195 O1150 1.199 1_565 S
C1195 O1151 1.297 . S
C1195 C1179 1.476 . S
H1196 O1222 0.856 . S
H1197 O1225 0.854 . S
H1198 C1233 0.930 . S
H1199 C1234 0.930 . S
H1200 C1236 0.930 . S
H1201 C1237 0.930 . S
H1202 C1239 0.931 . S
H1203 C1240 0.930 . S
H1204 C1242 0.930 . S
H1205 C1243 0.929 . S
H1206 C1245 0.930 . S
H1207 C1246 0.931 . S
H1208 C1248 0.930 . S
H1209 C1249 0.929 . S
H1210 C1251 0.931 . S
H1211 C1252 0.930 . S
H1212 C1254 0.930 . S
H1213 C1255 0.932 . S
H1214 C1257 0.930 . S
H1215 C1258 0.929 . S
H1216 C1260 0.931 . S
H1217 C1261 0.930 . S
H1218 C1263 0.929 . S
H1219 C1264 0.931 . S
H1220 C1266 0.930 . S
H1221 C1267 0.929 . S
O1222 H1196 0.856 . S
O1222 C1268 1.300 . S
O1223 C1268 1.209 . S
O1224 C1269 1.199 1_655 S
O1225 H1197 0.854 . S
O1225 C1269 1.297 . S
C1226 C1227 1.404 . S
C1226 C1231 1.397 . S
C1226 C1232 1.492 . S
C1227 C1226 1.404 . S
C1227 C1228 1.396 . S
C1227 C1238 1.492 . S
C1228 C1227 1.396 . S
C1228 C1229 1.397 . S
C1228 C1244 1.509 . S
C1229 C1228 1.397 . S
C1229 C1230 1.412 1_655 S
C1229 C1250 1.485 1_655 S
C1230 C1229 1.412 1_455 S
C1230 C1231 1.387 1_455 S
C1230 C1256 1.490 . S
C1231 C1226 1.397 . S
C1231 C1230 1.387 1_655 S
C1231 C1262 1.520 1_655 S
C1232 C1226 1.492 . S
C1232 C1233 1.363 . S
C1232 C1237 1.390 1_655 S
C1233 H1198 0.930 . S
C1233 C1232 1.363 . S
C1233 C1234 1.372 . S
C1234 H1199 0.930 . S
C1234 C1233 1.372 . S
C1234 C1235 1.383 . S
C1235 C1234 1.383 . S
C1235 C1236 1.395 1_655 S
C1236 H1200 0.930 . S
C1236 C1235 1.395 1_455 S
C1236 C1237 1.362 . S
C1237 H1201 0.930 . S
C1237 C1232 1.390 1_455 S
C1237 C1236 1.362 . S
C1238 C1227 1.492 . S
C1238 C1239 1.377 . S
C1238 C1243 1.397 1_655 S
C1239 H1202 0.931 . S
C1239 C1238 1.377 . S
C1239 C1240 1.376 . S
C1240 H1203 0.930 . S
C1240 C1239 1.376 . S
C1240 C1241 1.376 . S
C1241 C1240 1.376 . S
C1241 C1242 1.378 1_655 S
C1241 C1268 1.486 . S
C1242 H1204 0.930 . S
C1242 C1241 1.378 1_455 S
C1242 C1243 1.376 . S
C1243 H1205 0.929 . S
C1243 C1238 1.397 1_455 S
C1243 C1242 1.376 . S
C1244 C1228 1.509 . S
C1244 C1245 1.391 . S
C1244 C1249 1.386 1_655 S
C1245 H1206 0.930 . S
C1245 C1244 1.391 . S
C1245 C1246 1.375 . S
C1246 H1207 0.931 . S
C1246 C1245 1.375 . S
C1246 C1247 1.375 . S
C1247 C1246 1.375 . S
C1247 C1248 1.361 1_655 S
C1248 H1208 0.930 . S
C1248 C1247 1.361 1_455 S
C1248 C1249 1.399 . S
C1249 H1209 0.929 . S
C1249 C1244 1.386 1_455 S
C1249 C1248 1.399 . S
C1250 C1229 1.485 1_455 S
C1250 C1251 1.394 1_455 S
C1250 C1255 1.360 . S
C1251 H1210 0.931 . S
C1251 C1250 1.394 1_655 S
C1251 C1252 1.372 . S
C1252 H1211 0.930 . S
C1252 C1251 1.372 . S
C1252 C1253 1.397 1_655 S
C1253 C1252 1.397 1_455 S
C1253 C1254 1.390 . S
C1253 C1269 1.476 . S
C1254 H1212 0.930 . S
C1254 C1253 1.390 . S
C1254 C1255 1.366 . S
C1255 H1213 0.932 . S
C1255 C1250 1.360 . S
C1255 C1254 1.366 . S
C1256 C1230 1.490 . S
C1256 C1257 1.380 1_455 S
C1256 C1261 1.386 . S
C1257 H1214 0.930 . S
C1257 C1256 1.380 1_655 S
C1257 C1258 1.381 . S
C1258 H1215 0.929 . S
C1258 C1257 1.381 . S
C1258 C1259 1.371 1_656 S
C1259 C1258 1.371 1_454 S
C1259 C1260 1.380 1_554 S
C1260 H1216 0.931 . S
C1260 C1259 1.380 1_556 S
C1260 C1261 1.387 . S
C1261 H1217 0.930 . S
C1261 C1256 1.386 . S
C1261 C1260 1.387 . S
C1262 C1231 1.520 1_455 S
C1262 C1263 1.377 1_455 S
C1262 C1267 1.361 . S
C1263 H1218 0.929 . S
C1263 C1262 1.377 1_655 S
C1263 C1264 1.386 . S
C1264 H1219 0.931 . S
C1264 C1263 1.386 . S
C1264 C1265 1.363 1_655 S
C1265 C1264 1.363 1_455 S
C1265 C1266 1.385 . S
C1266 H1220 0.930 . S
C1266 C1265 1.385 . S
C1266 C1267 1.396 . S
C1267 H1221 0.929 . S
C1267 C1262 1.361 . S
C1267 C1266 1.396 . S
C1268 O1222 1.300 . S
C1268 O1223 1.209 . S
C1268 C1241 1.486 . S
C1269 O1224 1.199 1_455 S
C1269 O1225 1.297 . S
C1269 C1253 1.476 . S
H1270 O1296 0.856 . S
H1271 O1299 0.854 . S
H1272 C1307 0.930 . S
H1273 C1308 0.930 . S
H1274 C1310 0.930 . S
H1275 C1311 0.930 . S
H1276 C1313 0.931 . S
H1277 C1314 0.930 . S
H1278 C1316 0.930 . S
H1279 C1317 0.929 . S
H1280 C1319 0.930 . S
H1281 C1320 0.931 . S
H1282 C1322 0.930 . S
H1283 C1323 0.929 . S
H1284 C1325 0.931 . S
H1285 C1326 0.930 . S
H1286 C1328 0.930 . S
H1287 C1329 0.932 . S
H1288 C1331 0.930 . S
H1289 C1332 0.929 . S
H1290 C1334 0.931 . S
H1291 C1335 0.930 . S
H1292 C1337 0.929 . S
H1293 C1338 0.931 . S
H1294 C1340 0.930 . S
H1295 C1341 0.929 . S
O1296 H1270 0.856 . S
O1296 C1342 1.300 . S
O1297 C1342 1.209 . S
O1298 C1343 1.199 . S
O1299 H1271 0.854 . S
O1299 C1343 1.297 . S
C1300 C1301 1.404 . S
C1300 C1305 1.397 . S
C1300 C1306 1.492 . S
C1301 C1300 1.404 . S
C1301 C1302 1.396 . S
C1301 C1312 1.492 . S
C1302 C1301 1.396 . S
C1302 C1303 1.397 . S
C1302 C1318 1.509 . S
C1303 C1302 1.397 . S
C1303 C1304 1.412 . S
C1303 C1324 1.485 . S
C1304 C1303 1.412 . S
C1304 C1305 1.388 . S
C1304 C1330 1.490 . S
C1305 C1300 1.397 . S
C1305 C1304 1.388 . S
C1305 C1336 1.519 . S
C1306 C1300 1.492 . S
C1306 C1307 1.363 . S
C1306 C1311 1.390 . S
C1307 H1272 0.930 . S
C1307 C1306 1.363 . S
C1307 C1308 1.372 . S
C1308 H1273 0.930 . S
C1308 C1307 1.372 . S
C1308 C1309 1.383 . S
C1309 C1308 1.383 . S
C1309 C1310 1.395 . S
C1310 H1274 0.930 . S
C1310 C1309 1.395 . S
C1310 C1311 1.362 . S
C1311 H1275 0.930 . S
C1311 C1306 1.390 . S
C1311 C1310 1.362 . S
C1312 C1301 1.492 . S
C1312 C1313 1.377 . S
C1312 C1317 1.397 . S
C1313 H1276 0.931 . S
C1313 C1312 1.377 . S
C1313 C1314 1.376 . S
C1314 H1277 0.930 . S
C1314 C1313 1.376 . S
C1314 C1315 1.376 . S
C1315 C1314 1.376 . S
C1315 C1316 1.378 . S
C1315 C1342 1.486 . S
C1316 H1278 0.930 . S
C1316 C1315 1.378 . S
C1316 C1317 1.376 . S
C1317 H1279 0.929 . S
C1317 C1312 1.397 . S
C1317 C1316 1.376 . S
C1318 C1302 1.509 . S
C1318 C1319 1.391 . S
C1318 C1323 1.386 . S
C1319 H1280 0.930 . S
C1319 C1318 1.391 . S
C1319 C1320 1.375 . S
C1320 H1281 0.931 . S
C1320 C1319 1.375 . S
C1320 C1321 1.375 . S
C1321 C1320 1.375 . S
C1321 C1322 1.361 . S
C1322 H1282 0.930 . S
C1322 C1321 1.361 . S
C1322 C1323 1.399 . S
C1323 H1283 0.929 . S
C1323 C1318 1.386 . S
C1323 C1322 1.399 . S
C1324 C1303 1.485 . S
C1324 C1325 1.394 . S
C1324 C1329 1.360 . S
C1325 H1284 0.931 . S
C1325 C1324 1.394 . S
C1325 C1326 1.372 . S
C1326 H1285 0.930 . S
C1326 C1325 1.372 . S
C1326 C1327 1.397 . S
C1327 C1326 1.397 . S
C1327 C1328 1.390 . S
C1327 C1343 1.476 . S
C1328 H1286 0.930 . S
C1328 C1327 1.390 . S
C1328 C1329 1.366 . S
C1329 H1287 0.932 . S
C1329 C1324 1.360 . S
C1329 C1328 1.366 . S
C1330 C1304 1.490 . S
C1330 C1331 1.380 . S
C1330 C1335 1.386 . S
C1331 H1288 0.930 . S
C1331 C1330 1.380 . S
C1331 C1332 1.381 . S
C1332 H1289 0.929 . S
C1332 C1331 1.381 . S
C1332 C1333 1.371 . S
C1333 C1332 1.371 . S
C1333 C1334 1.380 . S
C1334 H1290 0.931 . S
C1334 C1333 1.380 . S
C1334 C1335 1.387 . S
C1335 H1291 0.930 . S
C1335 C1330 1.386 . S
C1335 C1334 1.387 . S
C1336 C1305 1.519 . S
C1336 C1337 1.377 . S
C1336 C1341 1.361 . S
C1337 H1292 0.929 . S
C1337 C1336 1.377 . S
C1337 C1338 1.386 . S
C1338 H1293 0.931 . S
C1338 C1337 1.386 . S
C1338 C1339 1.363 . S
C1339 C1338 1.363 . S
C1339 C1340 1.385 . S
C1340 H1294 0.930 . S
C1340 C1339 1.385 . S
C1340 C1341 1.396 . S
C1341 H1295 0.929 . S
C1341 C1336 1.361 . S
C1341 C1340 1.396 . S
C1342 O1296 1.300 . S
C1342 O1297 1.209 . S
C1342 C1315 1.486 . S
C1343 O1298 1.199 . S
C1343 O1299 1.297 . S
C1343 C1327 1.476 . S
H1344 O1370 0.856 . S
H1345 O1373 0.854 . S
H1346 C1381 0.930 . S
H1347 C1382 0.930 . S
H1348 C1384 0.930 . S
H1349 C1385 0.930 . S
H1350 C1387 0.931 . S
H1351 C1388 0.930 . S
H1352 C1390 0.930 . S
H1353 C1391 0.929 . S
H1354 C1393 0.930 . S
H1355 C1394 0.931 . S
H1356 C1396 0.930 . S
H1357 C1397 0.929 . S
H1358 C1399 0.931 . S
H1359 C1400 0.930 . S
H1360 C1402 0.930 . S
H1361 C1403 0.932 . S
H1362 C1405 0.930 . S
H1363 C1406 0.929 . S
H1364 C1408 0.931 . S
H1365 C1409 0.930 . S
H1366 C1411 0.929 . S
H1367 C1412 0.931 . S
H1368 C1414 0.930 . S
H1369 C1415 0.929 . S
O1370 H1344 0.856 . S
O1370 C1416 1.300 . S
O1371 C1416 1.209 . S
O1372 C1417 1.199 . S
O1373 H1345 0.854 . S
O1373 C1417 1.297 . S
C1374 C1375 1.404 . S
C1374 C1379 1.397 . S
C1374 C1380 1.492 . S
C1375 C1374 1.404 . S
C1375 C1376 1.396 . S
C1375 C1386 1.492 . S
C1376 C1375 1.396 . S
C1376 C1377 1.397 . S
C1376 C1392 1.509 . S
C1377 C1376 1.397 . S
C1377 C1378 1.412 . S
C1377 C1398 1.485 . S
C1378 C1377 1.412 . S
C1378 C1379 1.388 . S
C1378 C1404 1.490 . S
C1379 C1374 1.397 . S
C1379 C1378 1.388 . S
C1379 C1410 1.519 . S
C1380 C1374 1.492 . S
C1380 C1381 1.363 . S
C1380 C1385 1.390 . S
C1381 H1346 0.930 . S
C1381 C1380 1.363 . S
C1381 C1382 1.372 . S
C1382 H1347 0.930 . S
C1382 C1381 1.372 . S
C1382 C1383 1.383 . S
C1383 C1382 1.383 . S
C1383 C1384 1.395 . S
C1384 H1348 0.930 . S
C1384 C1383 1.395 . S
C1384 C1385 1.362 . S
C1385 H1349 0.930 . S
C1385 C1380 1.390 . S
C1385 C1384 1.362 . S
C1386 C1375 1.492 . S
C1386 C1387 1.377 . S
C1386 C1391 1.397 . S
C1387 H1350 0.931 . S
C1387 C1386 1.377 . S
C1387 C1388 1.376 . S
C1388 H1351 0.930 . S
C1388 C1387 1.376 . S
C1388 C1389 1.376 . S
C1389 C1388 1.376 . S
C1389 C1390 1.378 . S
C1389 C1416 1.486 . S
C1390 H1352 0.930 . S
C1390 C1389 1.378 . S
C1390 C1391 1.376 . S
C1391 H1353 0.929 . S
C1391 C1386 1.397 . S
C1391 C1390 1.376 . S
C1392 C1376 1.509 . S
C1392 C1393 1.391 . S
C1392 C1397 1.386 . S
C1393 H1354 0.930 . S
C1393 C1392 1.391 . S
C1393 C1394 1.375 . S
C1394 H1355 0.931 . S
C1394 C1393 1.375 . S
C1394 C1395 1.375 . S
C1395 C1394 1.375 . S
C1395 C1396 1.361 . S
C1396 H1356 0.930 . S
C1396 C1395 1.361 . S
C1396 C1397 1.399 . S
C1397 H1357 0.929 . S
C1397 C1392 1.386 . S
C1397 C1396 1.399 . S
C1398 C1377 1.485 . S
C1398 C1399 1.394 . S
C1398 C1403 1.360 . S
C1399 H1358 0.931 . S
C1399 C1398 1.394 . S
C1399 C1400 1.372 . S
C1400 H1359 0.930 . S
C1400 C1399 1.372 . S
C1400 C1401 1.397 . S
C1401 C1400 1.397 . S
C1401 C1402 1.390 . S
C1401 C1417 1.476 . S
C1402 H1360 0.930 . S
C1402 C1401 1.390 . S
C1402 C1403 1.366 . S
C1403 H1361 0.932 . S
C1403 C1398 1.360 . S
C1403 C1402 1.366 . S
C1404 C1378 1.490 . S
C1404 C1405 1.380 . S
C1404 C1409 1.386 . S
C1405 H1362 0.930 . S
C1405 C1404 1.380 . S
C1405 C1406 1.381 . S
C1406 H1363 0.929 . S
C1406 C1405 1.381 . S
C1406 C1407 1.371 . S
C1407 C1406 1.371 . S
C1407 C1408 1.380 . S
C1408 H1364 0.931 . S
C1408 C1407 1.380 . S
C1408 C1409 1.387 . S
C1409 H1365 0.930 . S
C1409 C1404 1.386 . S
C1409 C1408 1.387 . S
C1410 C1379 1.519 . S
C1410 C1411 1.377 . S
C1410 C1415 1.361 . S
C1411 H1366 0.929 . S
C1411 C1410 1.377 . S
C1411 C1412 1.386 . S
C1412 H1367 0.931 . S
C1412 C1411 1.386 . S
C1412 C1413 1.363 . S
C1413 C1412 1.363 . S
C1413 C1414 1.385 . S
C1414 H1368 0.930 . S
C1414 C1413 1.385 . S
C1414 C1415 1.396 . S
C1415 H1369 0.929 . S
C1415 C1410 1.361 . S
C1415 C1414 1.396 . S
C1416 O1370 1.300 . S
C1416 O1371 1.209 . S
C1416 C1389 1.486 . S
C1417 O1372 1.199 . S
C1417 O1373 1.297 . S
C1417 C1401 1.476 . S
H1418 O1444 0.856 . S
H1419 O1447 0.854 . S
H1420 C1455 0.930 . S
H1421 C1456 0.930 . S
H1422 C1458 0.930 . S
H1423 C1459 0.930 . S
H1424 C1461 0.931 . S
H1425 C1462 0.930 . S
H1426 C1464 0.930 . S
H1427 C1465 0.929 . S
H1428 C1467 0.930 . S
H1429 C1468 0.931 . S
H1430 C1470 0.930 . S
H1431 C1471 0.929 . S
H1432 C1473 0.931 . S
H1433 C1474 0.930 . S
H1434 C1476 0.930 . S
H1435 C1477 0.932 . S
H1436 C1479 0.930 . S
H1437 C1480 0.929 . S
H1438 C1482 0.931 . S
H1439 C1483 0.930 . S
H1440 C1485 0.929 . S
H1441 C1486 0.931 . S
H1442 C1488 0.930 . S
H1443 C1489 0.929 . S
O1444 H1418 0.856 . S
O1444 C1490 1.300 . S
O1445 C1490 1.209 . S
O1446 C1491 1.199 . S
O1447 H1419 0.854 . S
O1447 C1491 1.297 . S
C1448 C1449 1.404 . S
C1448 C1453 1.397 . S
C1448 C1454 1.492 . S
C1449 C1448 1.404 . S
C1449 C1450 1.396 . S
C1449 C1460 1.492 . S
C1450 C1449 1.396 . S
C1450 C1451 1.397 . S
C1450 C1466 1.509 . S
C1451 C1450 1.397 . S
C1451 C1452 1.412 . S
C1451 C1472 1.485 . S
C1452 C1451 1.412 . S
C1452 C1453 1.388 . S
C1452 C1478 1.490 . S
C1453 C1448 1.397 . S
C1453 C1452 1.388 . S
C1453 C1484 1.519 . S
C1454 C1448 1.492 . S
C1454 C1455 1.363 . S
C1454 C1459 1.390 . S
C1455 H1420 0.930 . S
C1455 C1454 1.363 . S
C1455 C1456 1.372 . S
C1456 H1421 0.930 . S
C1456 C1455 1.372 . S
C1456 C1457 1.383 . S
C1457 C1456 1.383 . S
C1457 C1458 1.395 . S
C1458 H1422 0.930 . S
C1458 C1457 1.395 . S
C1458 C1459 1.362 . S
C1459 H1423 0.930 . S
C1459 C1454 1.390 . S
C1459 C1458 1.362 . S
C1460 C1449 1.492 . S
C1460 C1461 1.377 . S
C1460 C1465 1.397 . S
C1461 H1424 0.931 . S
C1461 C1460 1.377 . S
C1461 C1462 1.376 . S
C1462 H1425 0.930 . S
C1462 C1461 1.376 . S
C1462 C1463 1.376 . S
C1463 C1462 1.376 . S
C1463 C1464 1.378 . S
C1463 C1490 1.486 . S
C1464 H1426 0.930 . S
C1464 C1463 1.378 . S
C1464 C1465 1.376 . S
C1465 H1427 0.929 . S
C1465 C1460 1.397 . S
C1465 C1464 1.376 . S
C1466 C1450 1.509 . S
C1466 C1467 1.391 . S
C1466 C1471 1.386 . S
C1467 H1428 0.930 . S
C1467 C1466 1.391 . S
C1467 C1468 1.375 . S
C1468 H1429 0.931 . S
C1468 C1467 1.375 . S
C1468 C1469 1.375 . S
C1469 C1468 1.375 . S
C1469 C1470 1.361 . S
C1470 H1430 0.930 . S
C1470 C1469 1.361 . S
C1470 C1471 1.399 . S
C1471 H1431 0.929 . S
C1471 C1466 1.386 . S
C1471 C1470 1.399 . S
C1472 C1451 1.485 . S
C1472 C1473 1.394 . S
C1472 C1477 1.360 . S
C1473 H1432 0.931 . S
C1473 C1472 1.394 . S
C1473 C1474 1.372 . S
C1474 H1433 0.930 . S
C1474 C1473 1.372 . S
C1474 C1475 1.397 . S
C1475 C1474 1.397 . S
C1475 C1476 1.390 . S
C1475 C1491 1.476 1_455 S
C1476 H1434 0.930 . S
C1476 C1475 1.390 . S
C1476 C1477 1.366 . S
C1477 H1435 0.932 . S
C1477 C1472 1.360 . S
C1477 C1476 1.366 . S
C1478 C1452 1.490 . S
C1478 C1479 1.380 . S
C1478 C1483 1.386 . S
C1479 H1436 0.930 . S
C1479 C1478 1.380 . S
C1479 C1480 1.381 . S
C1480 H1437 0.929 . S
C1480 C1479 1.381 . S
C1480 C1481 1.371 . S
C1481 C1480 1.371 . S
C1481 C1482 1.380 . S
C1482 H1438 0.931 . S
C1482 C1481 1.380 . S
C1482 C1483 1.387 . S
C1483 H1439 0.930 . S
C1483 C1478 1.386 . S
C1483 C1482 1.387 . S
C1484 C1453 1.519 . S
C1484 C1485 1.377 . S
C1484 C1489 1.361 . S
C1485 H1440 0.929 . S
C1485 C1484 1.377 . S
C1485 C1486 1.386 . S
C1486 H1441 0.931 . S
C1486 C1485 1.386 . S
C1486 C1487 1.363 . S
C1487 C1486 1.363 . S
C1487 C1488 1.385 . S
C1488 H1442 0.930 . S
C1488 C1487 1.385 . S
C1488 C1489 1.396 . S
C1489 H1443 0.929 . S
C1489 C1484 1.361 . S
C1489 C1488 1.396 . S
C1490 O1444 1.300 . S
C1490 O1445 1.209 . S
C1490 C1463 1.486 . S
C1491 O1446 1.199 . S
C1491 O1447 1.297 . S
C1491 C1475 1.476 1_655 S
H1492 O1518 0.856 . S
H1493 O1521 0.854 . S
H1494 C1529 0.930 . S
H1495 C1530 0.930 . S
H1496 C1532 0.930 . S
H1497 C1533 0.930 . S
H1498 C1535 0.931 . S
H1499 C1536 0.930 . S
H1500 C1538 0.930 . S
H1501 C1539 0.929 . S
H1502 C1541 0.930 . S
H1503 C1542 0.931 . S
H1504 C1544 0.930 . S
H1505 C1545 0.929 . S
H1506 C1547 0.931 . S
H1507 C1548 0.930 . S
H1508 C1550 0.930 . S
H1509 C1551 0.932 . S
H1510 C1553 0.930 . S
H1511 C1554 0.929 . S
H1512 C1556 0.931 . S
H1513 C1557 0.930 . S
H1514 C1559 0.929 . S
H1515 C1560 0.931 . S
H1516 C1562 0.930 . S
H1517 C1563 0.929 . S
O1518 H1492 0.856 . S
O1518 C1564 1.300 . S
O1519 C1564 1.209 . S
O1520 C1565 1.199 . S
O1521 H1493 0.854 . S
O1521 C1565 1.297 1_655 S
C1522 C1523 1.404 . S
C1522 C1527 1.397 . S
C1522 C1528 1.492 . S
C1523 C1522 1.404 . S
C1523 C1524 1.396 . S
C1523 C1534 1.492 . S
C1524 C1523 1.396 . S
C1524 C1525 1.397 . S
C1524 C1540 1.509 . S
C1525 C1524 1.397 . S
C1525 C1526 1.412 . S
C1525 C1546 1.485 . S
C1526 C1525 1.412 . S
C1526 C1527 1.388 . S
C1526 C1552 1.490 . S
C1527 C1522 1.397 . S
C1527 C1526 1.388 . S
C1527 C1558 1.519 . S
C1528 C1522 1.492 . S
C1528 C1529 1.363 . S
C1528 C1533 1.390 . S
C1529 H1494 0.930 . S
C1529 C1528 1.363 . S
C1529 C1530 1.372 . S
C1530 H1495 0.930 . S
C1530 C1529 1.372 . S
C1530 C1531 1.383 . S
C1531 C1530 1.383 . S
C1531 C1532 1.395 . S
C1532 H1496 0.930 . S
C1532 C1531 1.395 . S
C1532 C1533 1.362 . S
C1533 H1497 0.930 . S
C1533 C1528 1.390 . S
C1533 C1532 1.362 . S
C1534 C1523 1.492 . S
C1534 C1535 1.377 . S
C1534 C1539 1.397 . S
C1535 H1498 0.931 . S
C1535 C1534 1.377 . S
C1535 C1536 1.376 . S
C1536 H1499 0.930 . S
C1536 C1535 1.376 . S
C1536 C1537 1.376 . S
C1537 C1536 1.376 . S
C1537 C1538 1.378 . S
C1537 C1564 1.486 . S
C1538 H1500 0.930 . S
C1538 C1537 1.378 . S
C1538 C1539 1.376 . S
C1539 H1501 0.929 . S
C1539 C1534 1.397 . S
C1539 C1538 1.376 . S
C1540 C1524 1.509 . S
C1540 C1541 1.391 . S
C1540 C1545 1.386 . S
C1541 H1502 0.930 . S
C1541 C1540 1.391 . S
C1541 C1542 1.375 . S
C1542 H1503 0.931 . S
C1542 C1541 1.375 . S
C1542 C1543 1.375 . S
C1543 C1542 1.375 . S
C1543 C1544 1.361 . S
C1544 H1504 0.930 . S
C1544 C1543 1.361 . S
C1544 C1545 1.399 . S
C1545 H1505 0.929 . S
C1545 C1540 1.386 . S
C1545 C1544 1.399 . S
C1546 C1525 1.485 . S
C1546 C1547 1.394 . S
C1546 C1551 1.360 . S
C1547 H1506 0.931 . S
C1547 C1546 1.394 . S
C1547 C1548 1.372 . S
C1548 H1507 0.930 . S
C1548 C1547 1.372 . S
C1548 C1549 1.397 . S
C1549 C1548 1.397 . S
C1549 C1550 1.390 . S
C1549 C1565 1.476 . S
C1550 H1508 0.930 . S
C1550 C1549 1.390 . S
C1550 C1551 1.366 . S
C1551 H1509 0.932 . S
C1551 C1546 1.360 . S
C1551 C1550 1.366 . S
C1552 C1526 1.490 . S
C1552 C1553 1.380 . S
C1552 C1557 1.386 . S
C1553 H1510 0.930 . S
C1553 C1552 1.380 . S
C1553 C1554 1.381 . S
C1554 H1511 0.929 . S
C1554 C1553 1.381 . S
C1554 C1555 1.371 . S
C1555 C1554 1.371 . S
C1555 C1556 1.380 . S
C1556 H1512 0.931 . S
C1556 C1555 1.380 . S
C1556 C1557 1.387 . S
C1557 H1513 0.930 . S
C1557 C1552 1.386 . S
C1557 C1556 1.387 . S
C1558 C1527 1.519 . S
C1558 C1559 1.377 . S
C1558 C1563 1.361 . S
C1559 H1514 0.929 . S
C1559 C1558 1.377 . S
C1559 C1560 1.386 . S
C1560 H1515 0.931 . S
C1560 C1559 1.386 . S
C1560 C1561 1.363 . S
C1561 C1560 1.363 . S
C1561 C1562 1.385 . S
C1562 H1516 0.930 . S
C1562 C1561 1.385 . S
C1562 C1563 1.396 . S
C1563 H1517 0.929 . S
C1563 C1558 1.361 . S
C1563 C1562 1.396 . S
C1564 O1518 1.300 . S
C1564 O1519 1.209 . S
C1564 C1537 1.486 . S
C1565 O1520 1.199 . S
C1565 O1521 1.297 1_455 S
C1565 C1549 1.476 . S
C8 C963 1.478 . S
C18 C1043 1.739 . S
C1111 C31 1.435 . S
C34 C1191 1.974 . S
C5 C1265 1.554 . S
C21 C1333 1.886 1_554 S
C47 C1259 1.375 . S
C1339 C57 1.335 . S
C1185 C70 1.373 . S
C73 C1117 2.072 1_545 S
C969 C44 1.447 . S
C60 C1037 1.424 . S
C86 C1407 1.955 . S
C96 C1487 1.928 . S
C1555 C109 2.243 . S
C112 C303 2.544 . S
C83 C377 2.007 . S
C99 C445 2.044 . S
C125 C371 1.234 . S
C135 C451 1.423 . S
C297 C148 1.497 . S
C1561 C151 2.237 . S
C1413 C122 1.535 . S
C1481 C138 1.548 . S
C164 C519 1.804 . S
C174 C599 1.932 . S
C187 C667 2.192 . S
C190 C747 2.625 . S
C821 C161 2.046 . S
C889 C177 2.124 . S
C815 C203 1.374 . S
C895 C213 1.389 . S
C226 C741 1.509 . S
C673 C229 2.164 . S
C200 C525 1.549 . S
C593 C216 1.486 . S
C273 C0 2.543 . S
C23 C347 1.776 . S
C433 C36 2.090 . S
C507 C26 1.569 . S
C569 C10 2.125 1_556 S
C655 C13 1.715 . S
C39 C643 3.014 1_554 S
C62 C495 2.511 . S
C75 C581 2.945 . S
C65 C359 2.412 . S
C421 C49 2.844 . S
C52 C285 2.562 . S
C717 C78 2.400 . S
C101 C791 1.830 . S
C114 C877 1.970 1_455 S
C951 C104 1.389 . S
C88 C1013 1.846 . S
C91 C1099 1.321 . S
C117 C1087 2.245 1_565 S
C140 C939 1.833 1_455 S
C1025 C153 2.641 . S
C143 C803 2.467 . S
C127 C865 2.680 . S
C729 C130 2.539 . S
C1161 C156 2.082 . S
C179 C1235 1.226 . S
C192 C1321 1.835 . S
C1395 C182 1.683 . S
C1457 C166 2.007 . S
C169 C1543 1.730 . S
C195 C1531 2.900 . S
C218 C1383 2.531 . S
C1469 C231 2.792 . S
C1247 C221 1.836 . S
C1309 C205 2.535 . S
C208 C1173 1.628 . S
