# Generated by pormake.
# Topology anh, (6,3)-cn, num edge types: 1
# Building blocks:
#     Node 0, Type 0, BuildingBlock: BETDEL_clean_sbu_0, # of connection points: 6
#     Node 1, Type 0, BuildingBlock: BETDEL_clean_sbu_0, # of connection points: 6
#     Node 2, Type 0, BuildingBlock: BETDEL_clean_sbu_0, # of connection points: 6
#     Node 3, Type 1, BuildingBlock: CUQRIR_clean_linker_1, # of connection points: 3
#     Node 4, Type 1, BuildingBlock: CUQRIR_clean_linker_1, # of connection points: 3
#     Node 5, Type 1, BuildingBlock: CUQRIR_clean_linker_1, # of connection points: 3
#     Node 6, Type 1, BuildingBlock: CUQRIR_clean_linker_1, # of connection points: 3
#     Node 7, Type 1, BuildingBlock: CUQRIR_clean_linker_1, # of connection points: 3
#     Node 8, Type 1, BuildingBlock: CUQRIR_clean_linker_1, # of connection points: 3
#     Edge 9, Type (0, 1), BuildingBlock: XIVTED_clean_linker_0, # of connection points: 2
#     Edge 10, Type (0, 1), BuildingBlock: XIVTED_clean_linker_0, # of connection points: 2
#     Edge 11, Type (0, 1), BuildingBlock: XIVTED_clean_linker_0, # of connection points: 2
#     Edge 12, Type (0, 1), BuildingBlock: XIVTED_clean_linker_0, # of connection points: 2
#     Edge 13, Type (0, 1), BuildingBlock: XIVTED_clean_linker_0, # of connection points: 2
#     Edge 14, Type (0, 1), BuildingBlock: XIVTED_clean_linker_0, # of connection points: 2
#     Edge 15, Type (0, 1), BuildingBlock: XIVTED_clean_linker_0, # of connection points: 2
#     Edge 16, Type (0, 1), BuildingBlock: XIVTED_clean_linker_0, # of connection points: 2
#     Edge 17, Type (0, 1), BuildingBlock: XIVTED_clean_linker_0, # of connection points: 2
#     Edge 18, Type (0, 1), BuildingBlock: XIVTED_clean_linker_0, # of connection points: 2
#     Edge 19, Type (0, 1), BuildingBlock: XIVTED_clean_linker_0, # of connection points: 2
#     Edge 20, Type (0, 1), BuildingBlock: XIVTED_clean_linker_0, # of connection points: 2
#     Edge 21, Type (0, 1), BuildingBlock: XIVTED_clean_linker_0, # of connection points: 2
#     Edge 22, Type (0, 1), BuildingBlock: XIVTED_clean_linker_0, # of connection points: 2
#     Edge 23, Type (0, 1), BuildingBlock: XIVTED_clean_linker_0, # of connection points: 2
#     Edge 24, Type (0, 1), BuildingBlock: XIVTED_clean_linker_0, # of connection points: 2
#     Edge 25, Type (0, 1), BuildingBlock: XIVTED_clean_linker_0, # of connection points: 2
#     Edge 26, Type (0, 1), BuildingBlock: XIVTED_clean_linker_0, # of connection points: 2
# Relax obj value: 0.127
# Max RMSD: 0.199
# Mean RMSD: 0.139
data_MOF--net-anh--node1-BETDEL_clean_sbu_0--node2-CUQRIR_clean_linker_1--edge1-XIVTED_clean_linker_0
_symmetry_space_group_name_H-M    P1
_symmetry_Int_Tables_number       1
_symmetry_cell_setting            triclinic
loop_
_symmetry_equiv_pos_as_xyz
'x, y, z'
_cell_length_a     28.047438
_cell_length_b     28.179748
_cell_length_c     44.970302
_cell_angle_alpha  85.692104
_cell_angle_beta   89.24202
_cell_angle_gamma 120.03188
loop_
_atom_site_label
_atom_site_type_symbol
_atom_site_fract_x
_atom_site_fract_y
_atom_site_fract_z
_atom_type_partial_charge
Dy0 Dy 0.04183 0.47037 0.17761 0.0
C1 C 0.9116 0.56401 0.18037 0.0
C2 C 0.11635 0.43704 0.18224 0.0
Dy3 Dy 0.98258 0.52888 0.16854 0.0
O4 O 0.09659 0.45071 0.20392 0.0
O5 O 0.09406 0.43987 0.15752 0.0
O6 O 0.99378 0.43162 0.2208 0.0
O7 O 0.01981 0.51463 0.20775 0.0
C8 C 0.99464 0.47562 0.22812 0.0
C9 C 1.00775 0.51649 0.11318 0.0
O10 O 0.0652 0.60452 0.17348 0.0
O11 O 0.11388 0.55835 0.17424 0.0
O12 O 0.95597 0.5911 0.16279 0.0
O13 O 0.90819 0.51924 0.19271 0.0
O14 O 0.97922 0.53956 0.11903 0.0
O15 O 0.02029 0.49949 0.13695 0.0
O16 O 0.96118 0.39573 0.16917 0.0
O17 O 0.91172 0.44013 0.174 0.0
C18 C 0.11262 0.60486 0.17397 0.0
C19 C 0.91342 0.39439 0.17158 0.0
Dy20 Dy 0.52001 0.03883 0.50573 0.0
C21 C 0.74008 0.16573 0.50355 0.0
C22 C 0.41445 0.9632 0.49887 0.0
Dy23 Dy 0.63142 0.09139 0.50164 0.0
O24 O 0.43152 0.99107 0.52187 0.0
O25 O 0.4544 0.97959 0.47884 0.0
O26 O 0.51944 0.07181 0.54898 0.0
O27 O 0.57666 0.04555 0.5406 0.0
C28 C 0.55995 0.06672 0.55883 0.0
C29 C 0.59083 0.06349 0.4481 0.0
O30 O 0.6257 0.00981 0.51373 0.0
O31 O 0.53301 0.96462 0.50721 0.0
O32 O 0.71722 0.13645 0.48168 0.0
O33 O 0.70372 0.15127 0.52547 0.0
O34 O 0.62944 0.05615 0.45879 0.0
O35 O 0.57477 0.0852 0.46647 0.0
O36 O 0.52597 0.1211 0.49573 0.0
O37 O 0.61709 0.16395 0.50578 0.0
C38 C 0.57898 0.96325 0.51181 0.0
C39 C 0.57183 0.16653 0.50074 0.0
Dy40 Dy 0.60519 0.67882 0.82971 0.0
C41 C 0.51852 0.45792 0.86086 0.0
C42 C 0.63416 0.78198 0.80796 0.0
Dy43 Dy 0.54638 0.56218 0.84068 0.0
O44 O 0.65163 0.76973 0.83222 0.0
O45 O 0.603 0.73802 0.79497 0.0
O46 O 0.64267 0.68947 0.87381 0.0
O47 O 0.56125 0.62486 0.86989 0.0
C48 C 0.60041 0.64587 0.88697 0.0
C49 C 0.55333 0.59663 0.78268 0.0
O50 O 0.47216 0.56902 0.85196 0.0
O51 O 0.5151 0.65961 0.83249 0.0
O52 O 0.50268 0.47213 0.83652 0.0
O53 O 0.547 0.50093 0.87496 0.0
O54 O 0.50975 0.55526 0.79636 0.0
O55 O 0.59223 0.61645 0.80011 0.0
O56 O 0.67986 0.66969 0.82144 0.0
O57 O 0.6348 0.58064 0.84315 0.0
C58 C 0.46966 0.61365 0.84346 0.0
C59 C 0.6811 0.62536 0.8325 0.0
C60 C 0.51138 1.00062 0.18746 0.0
N61 N 0.54525 0.03839 0.20615 0.0
N62 N 0.46262 0.96163 0.20209 0.0
C63 C 0.52769 0.9986 0.15588 0.0
C64 C 0.46792 0.97775 0.23005 0.0
N65 N 0.51742 0.02327 0.23267 0.0
C66 C 0.42453 0.94864 0.25533 0.0
H67 H 0.51458 0.02219 0.14063 0.0
H68 H 0.50697 0.95552 0.14987 0.0
H69 H 0.57307 0.01722 0.15268 0.0
H70 H 0.43264 0.91867 0.26838 0.0
H71 H 0.38266 0.92629 0.2468 0.0
H72 H 0.42596 0.97843 0.27059 0.0
C73 C 0.56723 0.56061 0.51963 0.0
N74 N 0.56707 0.59596 0.53895 0.0
N75 N 0.5693 0.51756 0.53455 0.0
C76 C 0.56417 0.56689 0.48642 0.0
C77 C 0.57028 0.52813 0.5635 0.0
N78 N 0.56897 0.57503 0.56615 0.0
C79 C 0.57141 0.49175 0.58944 0.0
H80 H 0.52576 0.5312 0.47977 0.0
H81 H 0.59935 0.5663 0.47524 0.0
H82 H 0.56447 0.60537 0.47878 0.0
H83 H 0.61497 0.5044 0.59339 0.0
H84 H 0.54969 0.44801 0.58455 0.0
H85 H 0.55219 0.49556 0.61016 0.0
C86 C 0.07178 0.60913 0.85318 0.0
N87 N 0.10393 0.60179 0.87352 0.0
N88 N 0.02875 0.61033 0.86703 0.0
C89 C 0.08093 0.61292 0.81997 0.0
C90 C 0.03658 0.60399 0.89637 0.0
N91 N 0.08139 0.59847 0.90037 0.0
C92 C 0.99971 0.60248 0.92153 0.0
H93 H 0.10429 0.65698 0.81124 0.0
H94 H 0.04085 0.59331 0.80929 0.0
H95 H 0.10506 0.59325 0.81398 0.0
H96 H 0.96715 0.55917 0.9279 0.0
H97 H 0.97969 0.62668 0.91467 0.0
H98 H 0.02354 0.61909 0.94142 0.0
C99 C 0.04151 0.5915 0.48236 0.0
N100 N 1.01003 0.55842 0.46196 0.0
N101 N 0.08629 0.63562 0.46867 0.0
C102 C 0.032 0.57789 0.51577 0.0
C103 C 0.08064 0.62917 0.43922 0.0
N104 N 0.03378 0.58231 0.43513 0.0
C105 C 0.12335 0.66545 0.41478 0.0
H106 H 0.04017 0.61475 0.52693 0.0
H107 H 0.06113 0.56476 0.52402 0.0
H108 H 0.98906 0.54472 0.52216 0.0
H109 H 0.14844 0.64653 0.40926 0.0
H110 H 0.15102 0.70708 0.42186 0.0
H111 H 0.10323 0.66892 0.39431 0.0
C112 C 0.56367 0.11884 0.8188 0.0
N113 N 0.56595 0.0912 0.79622 0.0
N114 N 0.55962 0.16233 0.8079 0.0
C115 C 0.57128 0.10716 0.8511 0.0
C116 C 0.55971 0.16033 0.77796 0.0
N117 N 0.56429 0.11713 0.77073 0.0
C118 C 0.55357 0.19964 0.75601 0.0
H119 H 0.53275 0.09492 0.86452 0.0
H120 H 0.60465 0.14513 0.85952 0.0
H121 H 0.58122 0.07377 0.85452 0.0
H122 H 0.59492 0.23512 0.74883 0.0
H123 H 0.52897 0.21551 0.76651 0.0
H124 H 0.53334 0.1791 0.73597 0.0
C125 C 0.5341 0.53115 0.15151 0.0
N126 N 0.56453 0.53507 0.12697 0.0
N127 N 0.49492 0.54323 0.1439 0.0
C128 C 0.54343 0.51787 0.18319 0.0
C129 C 0.50222 0.55451 0.11396 0.0
N130 N 0.54509 0.55029 0.10373 0.0
C131 C 0.4638 0.56399 0.09466 0.0
H132 H 0.52396 0.47259 0.18791 0.0
H133 H 0.52461 0.53285 0.19918 0.0
H134 H 0.58819 0.53689 0.18663 0.0
H135 H 0.4561 0.59519 0.10379 0.0
H136 H 0.42361 0.52507 0.0952 0.0
H137 H 0.48039 0.57779 0.07115 0.0
H138 H 0.16022 0.39371 0.14582 0.0
H139 H 0.45722 0.60578 0.16454 0.0
H140 H 0.19318 0.49125 0.22067 0.0
H141 H 0.41876 0.43879 0.1582 0.0
H142 H 0.36053 0.57139 0.18135 0.0
H143 H 0.25671 0.4149 0.14442 0.0
C144 C 0.18744 0.41832 0.16228 0.0
C145 C 0.1693 0.44011 0.18363 0.0
C146 C 0.37393 0.54238 0.17713 0.0
C147 C 0.27775 0.46561 0.18156 0.0
C148 C 0.42845 0.56188 0.16777 0.0
C149 C 0.44447 0.52453 0.16041 0.0
C150 C 0.33625 0.48571 0.1781 0.0
C151 C 0.40678 0.46806 0.16411 0.0
C152 C 0.24192 0.43032 0.16152 0.0
C153 C 0.20579 0.47287 0.20424 0.0
N154 N 0.35348 0.45007 0.17208 0.0
N155 N 0.25903 0.48576 0.2023 0.0
H156 H 0.7624 0.22902 0.45208 0.0
H157 H 0.02705 0.48354 0.49235 0.0
H158 H 0.81279 0.23114 0.54255 0.0
H159 H 0.9055 0.50547 0.44544 0.0
H160 H 0.95797 0.38703 0.50636 0.0
H161 H 0.82439 0.32795 0.44397 0.0
C162 C 0.78788 0.2502 0.46997 0.0
C163 C 0.78435 0.22219 0.49774 0.0
C164 C 0.9464 0.41324 0.49332 0.0
C165 C 0.85394 0.33442 0.48862 0.0
C166 C 0.98543 0.46765 0.48527 0.0
C167 C 0.97076 0.50159 0.46831 0.0
C168 C 0.89343 0.3927 0.48322 0.0
C169 C 0.91745 0.47981 0.45864 0.0
C170 C 0.8221 0.30654 0.46547 0.0
C171 C 0.81601 0.2516 0.52063 0.0
N172 N 0.88024 0.42594 0.46606 0.0
N173 N 0.85063 0.30668 0.51541 0.0
H174 H 0.56075 0.7949 0.77556 0.0
H175 H 0.66567 0.10227 0.80122 0.0
H176 H 0.69755 0.87956 0.83121 0.0
H177 H 0.49297 0.98396 0.79882 0.0
H178 H 0.68585 0.02646 0.80596 0.0
H179 H 0.54297 0.87099 0.77574 0.0
C180 C 0.58799 0.8303 0.78712 0.0
C181 C 0.63127 0.83189 0.80296 0.0
C182 C 0.64361 0.01728 0.80446 0.0
C183 C 0.61074 0.91787 0.80352 0.0
C184 C 0.6324 0.06004 0.80153 0.0
C185 C 0.57809 0.04806 0.79882 0.0
C186 C 0.60001 0.96316 0.80398 0.0
C187 C 0.53538 0.99366 0.80008 0.0
C188 C 0.5772 0.87303 0.78764 0.0
C189 C 0.6644 0.87771 0.81833 0.0
N190 N 0.54728 0.95268 0.80213 0.0
N191 N 0.65361 0.91952 0.81813 0.0
H192 H 0.90114 0.63088 0.13807 0.0
H193 H 0.57379 0.44956 0.15074 0.0
H194 H 0.81012 0.501 0.2086 0.0
H195 H 0.66491 0.61171 0.1041 0.0
H196 H 0.66132 0.45536 0.16347 0.0
H197 H 0.81455 0.61454 0.11831 0.0
C198 C 0.86285 0.60023 0.15 0.0
C199 C 0.86241 0.5674 0.17504 0.0
C200 C 0.6619 0.48897 0.14976 0.0
C201 C 0.76379 0.54768 0.15221 0.0
C202 C 0.61237 0.4855 0.1424 0.0
C203 C 0.61286 0.53056 0.12666 0.0
C204 C 0.71145 0.53748 0.14071 0.0
C205 C 0.66306 0.57598 0.11584 0.0
C206 C 0.81355 0.59023 0.1384 0.0
C207 C 0.81182 0.52736 0.18931 0.0
N208 N 0.71064 0.57861 0.12336 0.0
N209 N 0.76411 0.51825 0.17752 0.0
H210 H 0.32896 0.91829 0.54062 0.0
H211 H 0.18376 0.64003 0.46337 0.0
H212 H 0.39421 0.88376 0.46281 0.0
H213 H 0.09721 0.70873 0.5064 0.0
H214 H 0.27031 0.71025 0.4823 0.0
H215 H 0.25256 0.82272 0.54557 0.0
C216 C 0.32675 0.89066 0.52449 0.0
C217 C 0.36606 0.90886 0.50057 0.0
C218 C 0.23202 0.70885 0.48825 0.0
C219 C 0.2817 0.80066 0.50689 0.0
C220 C 0.18337 0.6697 0.4772 0.0
C221 C 0.13493 0.67104 0.48266 0.0
C222 C 0.23122 0.74892 0.50459 0.0
C223 C 0.13467 0.70799 0.50146 0.0
C224 C 0.28416 0.83631 0.52769 0.0
C225 C 0.36325 0.87153 0.48088 0.0
N226 N 0.18268 0.7465 0.51147 0.0
N227 N 0.32128 0.81899 0.48435 0.0
H228 H 0.49975 0.37653 0.90483 0.0
H229 H 0.64191 0.26643 0.79725 0.0
H230 H 0.57847 0.45066 0.81743 0.0
H231 H 0.49766 0.15902 0.85488 0.0
H232 H 0.64978 0.34559 0.82061 0.0
H233 H 0.52869 0.30727 0.90117 0.0
C234 C 0.52302 0.37793 0.88504 0.0
C235 C 0.53454 0.41662 0.86072 0.0
C236 C 0.61721 0.30451 0.82864 0.0
C237 C 0.5698 0.34171 0.85717 0.0
C238 C 0.61235 0.25993 0.81509 0.0
C239 C 0.56795 0.2074 0.82369 0.0
C240 C 0.57702 0.29591 0.85061 0.0
C241 C 0.53163 0.19963 0.84753 0.0
C242 C 0.54004 0.3394 0.88314 0.0
C243 C 0.5668 0.41938 0.836 0.0
N244 N 0.53624 0.24391 0.85995 0.0
N245 N 0.58299 0.38195 0.83473 0.0
H246 H 0.65887 0.93989 0.49377 0.0
H247 H 0.48895 0.61919 0.55756 0.0
H248 H 0.49567 0.86198 0.5365 0.0
H249 H 0.64335 0.69043 0.50607 0.0
H250 H 0.49184 0.70789 0.5509 0.0
H251 H 0.65511 0.85043 0.49833 0.0
C252 C 0.6224 0.9041 0.50437 0.0
C253 C 0.57763 0.90892 0.51488 0.0
C254 C 0.52508 0.70435 0.54086 0.0
C255 C 0.57319 0.80555 0.52054 0.0
C256 C 0.52352 0.65356 0.54482 0.0
C257 C 0.56605 0.64711 0.53252 0.0
C258 C 0.5697 0.74991 0.52442 0.0
C259 C 0.60947 0.69326 0.51579 0.0
C260 C 0.62017 0.85281 0.50687 0.0
C261 C 0.53116 0.86055 0.52797 0.0
N262 N 0.61028 0.74246 0.51235 0.0
N263 N 0.53038 0.81142 0.53062 0.0
H264 H 0.78567 0.69994 0.80565 0.0
H265 H 0.92329 0.52853 0.87718 0.0
H266 H 0.6993 0.54898 0.86352 0.0
H267 H 0.02233 0.69029 0.83152 0.0
H268 H 0.84005 0.53274 0.86683 0.0
H269 H 0.87123 0.69563 0.80999 0.0
C270 C 0.78448 0.66595 0.81926 0.0
C271 C 0.73453 0.62467 0.83412 0.0
C272 C 0.87971 0.56728 0.85863 0.0
C273 C 0.83289 0.61954 0.83923 0.0
C274 C 0.92734 0.56459 0.86437 0.0
C275 C 0.97997 0.60896 0.85517 0.0
C276 C 0.8839 0.61479 0.84334 0.0
C277 C 0.98263 0.65493 0.8388 0.0
C278 C 0.83348 0.66352 0.82171 0.0
C279 C 0.73613 0.58166 0.85135 0.0
N280 N 0.93542 0.65683 0.83356 0.0
N281 N 0.78398 0.58038 0.8534 0.0
H282 H 0.18991 0.62658 0.21514 0.0
H283 H 0.39441 0.94633 0.15615 0.0
H284 H 0.15646 0.70415 0.13857 0.0
H285 H 0.42725 0.85863 0.22778 0.0
H286 H 0.30959 0.8596 0.1474 0.0
H287 H 0.27666 0.71243 0.21961 0.0
C288 C 0.2011 0.66164 0.19906 0.0
C289 C 0.16564 0.65786 0.17645 0.0
C290 C 0.33554 0.85925 0.16492 0.0
C291 C 0.26651 0.75724 0.18103 0.0
C292 C 0.38429 0.90872 0.16969 0.0
C293 C 0.41802 0.90999 0.19286 0.0
C294 C 0.32009 0.81056 0.18356 0.0
C295 C 0.40241 0.85986 0.20987 0.0
C296 C 0.25085 0.71088 0.20159 0.0
C297 C 0.18222 0.70521 0.15652 0.0
N298 N 0.35481 0.81284 0.20511 0.0
N299 N 0.23137 0.75264 0.15915 0.0
H300 H 0.65581 0.26484 0.51721 0.0
H301 H 0.49046 0.43196 0.50641 0.0
H302 H 0.4892 0.19198 0.4892 0.0
H303 H 0.65196 0.49486 0.5399 0.0
H304 H 0.49033 0.34682 0.49616 0.0
H305 H 0.656 0.35067 0.52241 0.0
C306 C 0.61923 0.26676 0.5119 0.0
C307 C 0.57248 0.22035 0.50262 0.0
C308 C 0.52613 0.37948 0.5054 0.0
C309 C 0.57244 0.32032 0.50864 0.0
C310 C 0.52643 0.42843 0.51091 0.0
C311 C 0.57173 0.47122 0.52359 0.0
C312 C 0.57149 0.37293 0.51263 0.0
C313 C 0.61651 0.46341 0.5298 0.0
C314 C 0.61935 0.31615 0.51496 0.0
C315 C 0.52636 0.22625 0.49637 0.0
N316 N 0.6152 0.41568 0.52437 0.0
N317 N 0.52752 0.27494 0.49947 0.0
H318 H 0.45034 0.70095 0.84209 0.0
H319 H 0.11793 0.51517 0.86361 0.0
H320 H 0.36424 0.52356 0.85285 0.0
H321 H 0.20752 0.68928 0.8715 0.0
H322 H 0.20643 0.51725 0.85568 0.0
H323 H 0.3617 0.69778 0.84882 0.0
C324 C 0.4129 0.66125 0.84575 0.0
C325 C 0.41542 0.61249 0.847 0.0
C326 C 0.2069 0.55511 0.85909 0.0
C327 C 0.31255 0.6085 0.85452 0.0
C328 C 0.15634 0.55384 0.86354 0.0
C329 C 0.15547 0.60219 0.86804 0.0
C330 C 0.25729 0.60524 0.85902 0.0
C331 C 0.20644 0.65122 0.86792 0.0
C332 C 0.36207 0.65947 0.84968 0.0
C333 C 0.36489 0.56237 0.85189 0.0
N334 N 0.25497 0.65154 0.86343 0.0
N335 N 0.31594 0.5617 0.85533 0.0
H336 H 0.87422 0.31899 0.22047 0.0
H337 H 0.57669 0.11747 0.15925 0.0
H338 H 0.83115 0.34675 0.13199 0.0
H339 H 0.64024 0.07251 0.23625 0.0
H340 H 0.66662 0.20264 0.14936 0.0
H341 H 0.78583 0.23188 0.22803 0.0
C342 C 0.84642 0.30631 0.20245 0.0
C343 C 0.86058 0.34001 0.17542 0.0
C344 C 0.6608 0.1742 0.16851 0.0
C345 C 0.75835 0.23966 0.18392 0.0
C346 C 0.60939 0.12521 0.17408 0.0
C347 C 0.59974 0.08748 0.19901 0.0
C348 C 0.70333 0.18648 0.18819 0.0
C349 C 0.64416 0.10061 0.21746 0.0
C350 C 0.79577 0.25651 0.20678 0.0
C351 C 0.82213 0.322 0.15313 0.0
N352 N 0.69333 0.14875 0.21185 0.0
N353 N 0.77306 0.27326 0.15783 0.0
H354 H 0.1142 0.56858 0.09017 0.0
H355 H 0.0258 0.49416 0.92417 0.0
H356 H 0.94616 0.46929 0.06661 0.0
H357 H 0.15395 0.65594 0.94094 0.0
H358 H 0.01427 0.46544 0.9779 0.0
H359 H 0.14488 0.58315 0.03684 0.0
C360 C 0.08408 0.54843 0.07384 0.0
C361 C 0.02774 0.51693 0.08263 0.0
C362 C 0.0463 0.50666 0.96975 0.0
C363 C 0.06229 0.53295 0.02218 0.0
C364 C 0.05352 0.52268 0.93914 0.0
C365 C 0.09121 0.57719 0.92827 0.0
C366 C 0.07767 0.5453 0.98964 0.0
C367 C 0.12506 0.61337 0.94855 0.0
C368 C 0.1015 0.55712 0.04354 0.0
C369 C 0.99002 0.49314 0.06067 0.0
N370 N 0.1171 0.59702 0.97842 0.0
N371 N 1.00795 0.50141 0.03148 0.0
H372 H 0.60815 1.00195 0.41126 0.0
H373 H 0.51672 0.1033 0.26239 0.0
H374 H 0.54711 0.1151 0.4123 0.0
H375 H 0.56178 0.97804 0.26845 0.0
H376 H 0.53472 0.11603 0.31574 0.0
H377 H 0.59607 0.99811 0.35792 0.0
C378 C 0.59198 0.02596 0.40017 0.0
C379 C 0.57866 0.05889 0.4162 0.0
C380 C 0.54162 0.08648 0.30524 0.0
C381 C 0.56522 0.05535 0.3546 0.0
C382 C 0.53215 0.0799 0.27483 0.0
C383 C 0.53947 0.04075 0.26111 0.0
C384 C 0.55802 0.05321 0.32184 0.0
C385 C 0.55722 0.00961 0.27822 0.0
C386 C 0.58518 0.02388 0.36961 0.0
C387 C 0.55758 0.08894 0.40072 0.0
N388 N 0.5658 0.01643 0.30759 0.0
N389 N 0.55174 0.0867 0.37065 0.0
H390 H 0.64855 0.65338 0.74594 0.0
H391 H 0.47952 0.5539 0.59952 0.0
H392 H 0.47118 0.56662 0.74466 0.0
H393 H 0.65663 0.63991 0.59702 0.0
H394 H 0.4773 0.57233 0.65166 0.0
H395 H 0.65459 0.66186 0.69091 0.0
C396 C 0.61098 0.63683 0.73407 0.0
C397 C 0.55923 0.60852 0.7498 0.0
C398 C 0.5169 0.58845 0.63969 0.0
C399 C 0.56571 0.61815 0.68713 0.0
C400 C 0.51798 0.57854 0.60983 0.0
C401 C 0.56826 0.59678 0.594 0.0
C402 C 0.56658 0.6156 0.65414 0.0
C403 C 0.61717 0.62632 0.60855 0.0
C404 C 0.6144 0.64159 0.7027 0.0
C405 C 0.51187 0.588 0.73341 0.0
N406 N 0.61521 0.63438 0.63796 0.0
N407 N 0.51625 0.59289 0.70309 0.0
H408 H 0.57031 0.99569 0.59945 0.0
H409 H 0.64433 0.19047 0.73064 0.0
H410 H 0.58347 0.15513 0.58783 0.0
H411 H 0.51192 0.02205 0.7441 0.0
H412 H 0.65619 0.17782 0.67821 0.0
H413 H 0.58249 1.00579 0.6534 0.0
C414 C 0.57719 0.03326 0.60822 0.0
C415 C 0.57581 0.07471 0.58964 0.0
C416 C 0.62542 0.1434 0.69293 0.0
C417 C 0.59077 0.08678 0.6501 0.0
C418 C 0.61829 0.15067 0.72257 0.0
C419 C 0.57637 0.1075 0.74134 0.0
C420 C 0.59129 0.0922 0.6823 0.0
C421 C 0.54479 0.05613 0.73029 0.0
C422 C 0.5838 0.0388 0.63876 0.0
C423 C 0.58417 0.12238 0.60172 0.0
N424 N 0.55258 0.04986 0.70125 0.0
N425 N 0.59146 0.12726 0.63129 0.0
H426 H 0.52228 0.54862 0.91679 0.0
H427 H 0.61522 0.64805 0.07528 0.0
H428 H 0.67014 0.7017 0.92899 0.0
H429 H 0.51599 0.47593 0.06346 0.0
H430 H 0.6361 0.6685 0.02134 0.0
H431 H 0.51746 0.51995 0.97013 0.0
C432 C 0.55385 0.57594 0.93069 0.0
C433 C 0.59669 0.62749 0.91868 0.0
C434 C 0.61083 0.62602 0.03046 0.0
C435 C 0.59098 0.59567 0.97929 0.0
C436 C 0.59947 0.61456 0.06111 0.0
C437 C 0.56543 0.56039 0.07332 0.0
C438 C 0.58604 0.58303 0.01193 0.0
C439 C 0.54353 0.51804 0.05444 0.0
C440 C 0.55123 0.55952 0.961 0.0
C441 C 0.63647 0.6616 0.93748 0.0
N442 N 0.55356 0.5303 0.0244 0.0
N443 N 0.63228 0.64534 0.96698 0.0
H444 H 1.01166 0.42287 0.27628 0.0
H445 H 0.97671 0.60348 0.39436 0.0
H446 H 0.97408 0.55087 0.2514 0.0
H447 H 0.0574 0.50988 0.41291 0.0
H448 H 0.96055 0.57284 0.34381 0.0
H449 H 0.01528 0.44364 0.32821 0.0
C450 C 1.00319 0.45477 0.28188 0.0
C451 C 0.99214 0.48508 0.25966 0.0
C452 C 0.98135 0.55854 0.35897 0.0
C453 C 0.99605 0.50884 0.31902 0.0
C454 C 0.99005 0.57563 0.38769 0.0
C455 C 0.01778 0.5585 0.40737 0.0
C456 C 1.00079 0.52425 0.35005 0.0
C457 C 0.03528 0.52314 0.39813 0.0
C458 C 1.00562 0.4668 0.31149 0.0
C459 C 0.98261 0.52662 0.26799 0.0
N460 N 0.02668 0.50721 0.36997 0.0
N461 N 0.98459 0.53722 0.2971 0.0
loop_
_geom_bond_atom_site_label_1
_geom_bond_atom_site_label_2
_geom_bond_distance
_geom_bond_site_symmetry_2
_ccdc_geom_bond_type
Dy0 O4 2.398 . S
Dy0 O5 2.491 . S
Dy0 O6 2.403 . S
Dy0 O7 2.664 1_455 S
Dy0 O11 2.326 . S
Dy0 O15 2.310 . S
Dy0 O16 2.351 1_455 S
C1 O12 1.185 . S
C1 O13 1.355 . S
C2 O4 1.185 . S
C2 O5 1.355 . S
Dy3 O7 2.310 . S
Dy3 O10 2.351 1_655 S
Dy3 O12 2.398 . S
Dy3 O13 2.491 . S
Dy3 O14 2.403 . S
Dy3 O15 2.664 1_655 S
Dy3 O17 2.326 . S
O4 Dy0 2.398 . S
O4 C2 1.185 . S
O5 Dy0 2.491 . S
O5 C2 1.355 . S
O6 Dy0 2.403 . S
O6 C8 1.254 . S
O7 Dy0 2.664 1_655 S
O7 Dy3 2.310 . S
O7 C8 1.268 1_655 S
C8 O6 1.254 . S
C8 O7 1.268 1_455 S
C9 O14 1.254 1_455 S
C9 O15 1.268 . S
O10 Dy3 2.351 1_455 S
O10 C18 1.249 . S
O11 Dy0 2.326 . S
O11 C18 1.267 . S
O12 C1 1.185 . S
O12 Dy3 2.398 . S
O13 C1 1.355 . S
O13 Dy3 2.491 . S
O14 Dy3 2.403 . S
O14 C9 1.254 1_655 S
O15 Dy0 2.310 . S
O15 Dy3 2.664 1_455 S
O15 C9 1.268 . S
O16 Dy0 2.351 1_655 S
O16 C19 1.249 . S
O17 Dy3 2.326 . S
O17 C19 1.267 . S
C18 O10 1.249 . S
C18 O11 1.267 . S
C19 O16 1.249 . S
C19 O17 1.267 . S
Dy20 O24 2.398 1_545 S
Dy20 O25 2.491 1_545 S
Dy20 O26 2.403 . S
Dy20 O27 2.664 . S
Dy20 O31 2.326 1_545 S
Dy20 O35 2.310 . S
Dy20 O36 2.351 . S
C21 O32 1.185 . S
C21 O33 1.355 . S
C22 O24 1.185 . S
C22 O25 1.355 . S
Dy23 O27 2.310 . S
Dy23 O30 2.351 . S
Dy23 O32 2.398 . S
Dy23 O33 2.491 . S
Dy23 O34 2.403 . S
Dy23 O35 2.664 . S
Dy23 O37 2.326 . S
O24 Dy20 2.398 1_565 S
O24 C22 1.185 . S
O25 Dy20 2.491 1_565 S
O25 C22 1.355 . S
O26 Dy20 2.403 . S
O26 C28 1.254 . S
O27 Dy20 2.664 . S
O27 Dy23 2.310 . S
O27 C28 1.268 . S
C28 O26 1.254 . S
C28 O27 1.268 . S
C29 O34 1.254 . S
C29 O35 1.268 . S
O30 Dy23 2.351 . S
O30 C38 1.249 1_545 S
O31 Dy20 2.326 1_565 S
O31 C38 1.267 . S
O32 C21 1.185 . S
O32 Dy23 2.398 . S
O33 C21 1.355 . S
O33 Dy23 2.491 . S
O34 Dy23 2.403 . S
O34 C29 1.254 . S
O35 Dy20 2.310 . S
O35 Dy23 2.664 . S
O35 C29 1.268 . S
O36 Dy20 2.351 . S
O36 C39 1.249 . S
O37 Dy23 2.326 . S
O37 C39 1.267 . S
C38 O30 1.249 1_565 S
C38 O31 1.267 . S
C39 O36 1.249 . S
C39 O37 1.267 . S
Dy40 O44 2.398 . S
Dy40 O45 2.491 . S
Dy40 O46 2.403 . S
Dy40 O47 2.664 . S
Dy40 O51 2.326 . S
Dy40 O55 2.310 . S
Dy40 O56 2.351 . S
C41 O52 1.185 . S
C41 O53 1.355 . S
C42 O44 1.185 . S
C42 O45 1.355 . S
Dy43 O47 2.310 . S
Dy43 O50 2.351 . S
Dy43 O52 2.398 . S
Dy43 O53 2.491 . S
Dy43 O54 2.403 . S
Dy43 O55 2.664 . S
Dy43 O57 2.326 . S
O44 Dy40 2.398 . S
O44 C42 1.185 . S
O45 Dy40 2.491 . S
O45 C42 1.355 . S
O46 Dy40 2.403 . S
O46 C48 1.254 . S
O47 Dy40 2.664 . S
O47 Dy43 2.310 . S
O47 C48 1.268 . S
C48 O46 1.254 . S
C48 O47 1.268 . S
C49 O54 1.254 . S
C49 O55 1.268 . S
O50 Dy43 2.351 . S
O50 C58 1.249 . S
O51 Dy40 2.326 . S
O51 C58 1.267 . S
O52 C41 1.185 . S
O52 Dy43 2.398 . S
O53 C41 1.355 . S
O53 Dy43 2.491 . S
O54 Dy43 2.403 . S
O54 C49 1.254 . S
O55 Dy40 2.310 . S
O55 Dy43 2.664 . S
O55 C49 1.268 . S
O56 Dy40 2.351 . S
O56 C59 1.249 . S
O57 Dy43 2.326 . S
O57 C59 1.267 . S
C58 O50 1.249 . S
C58 O51 1.267 . S
C59 O56 1.249 . S
C59 O57 1.267 . S
C60 N61 1.317 . S
C60 N62 1.348 1_545 S
C60 C63 1.485 . S
N61 C60 1.317 . S
N61 N65 1.370 . S
N62 C60 1.348 1_565 S
N62 C64 1.346 . S
C63 C60 1.485 . S
C63 H67 0.960 . S
C63 H68 0.961 1_545 S
C63 H69 0.960 . S
C64 N62 1.346 . S
C64 N65 1.307 1_565 S
C64 C66 1.486 . S
N65 N61 1.370 . S
N65 C64 1.307 1_545 S
C66 C64 1.486 . S
C66 H70 0.960 . S
C66 H71 0.960 . S
C66 H72 0.959 . S
H67 C63 0.960 . S
H68 C63 0.961 1_565 S
H69 C63 0.960 . S
H70 C66 0.960 . S
H71 C66 0.960 . S
H72 C66 0.959 . S
C73 N74 1.317 . S
C73 N75 1.348 . S
C73 C76 1.485 . S
N74 C73 1.317 . S
N74 N78 1.370 . S
N75 C73 1.348 . S
N75 C77 1.346 . S
C76 C73 1.485 . S
C76 H80 0.960 . S
C76 H81 0.961 . S
C76 H82 0.960 . S
C77 N75 1.346 . S
C77 N78 1.307 . S
C77 C79 1.486 . S
N78 N74 1.370 . S
N78 C77 1.307 . S
C79 C77 1.486 . S
C79 H83 0.960 . S
C79 H84 0.960 . S
C79 H85 0.959 . S
H80 C76 0.960 . S
H81 C76 0.961 . S
H82 C76 0.960 . S
H83 C79 0.960 . S
H84 C79 0.960 . S
H85 C79 0.959 . S
C86 N87 1.317 . S
C86 N88 1.348 . S
C86 C89 1.485 . S
N87 C86 1.317 . S
N87 N91 1.370 . S
N88 C86 1.348 . S
N88 C90 1.346 . S
C89 C86 1.485 . S
C89 H93 0.960 . S
C89 H94 0.961 . S
C89 H95 0.960 . S
C90 N88 1.346 . S
C90 N91 1.307 . S
C90 C92 1.486 1_455 S
N91 N87 1.370 . S
N91 C90 1.307 . S
C92 C90 1.486 1_655 S
C92 H96 0.960 . S
C92 H97 0.960 . S
C92 H98 0.959 . S
H93 C89 0.960 . S
H94 C89 0.961 . S
H95 C89 0.960 . S
H96 C92 0.960 . S
H97 C92 0.960 . S
H98 C92 0.959 . S
C99 N100 1.317 . S
C99 N101 1.348 . S
C99 C102 1.485 . S
N100 C99 1.317 . S
N100 N104 1.370 . S
N101 C99 1.348 . S
N101 C103 1.346 . S
C102 C99 1.485 . S
C102 H106 0.960 . S
C102 H107 0.961 . S
C102 H108 0.960 . S
C103 N101 1.346 . S
C103 N104 1.307 . S
C103 C105 1.486 . S
N104 N100 1.370 . S
N104 C103 1.307 . S
C105 C103 1.486 . S
C105 H109 0.960 . S
C105 H110 0.960 . S
C105 H111 0.959 . S
H106 C102 0.960 . S
H107 C102 0.961 . S
H108 C102 0.960 . S
H109 C105 0.960 . S
H110 C105 0.960 . S
H111 C105 0.959 . S
C112 N113 1.317 . S
C112 N114 1.348 . S
C112 C115 1.485 . S
N113 C112 1.317 . S
N113 N117 1.370 . S
N114 C112 1.348 . S
N114 C116 1.346 . S
C115 C112 1.485 . S
C115 H119 0.960 . S
C115 H120 0.961 . S
C115 H121 0.960 . S
C116 N114 1.346 . S
C116 N117 1.307 . S
C116 C118 1.486 . S
N117 N113 1.370 . S
N117 C116 1.307 . S
C118 C116 1.486 . S
C118 H122 0.960 . S
C118 H123 0.960 . S
C118 H124 0.959 . S
H119 C115 0.960 . S
H120 C115 0.961 . S
H121 C115 0.960 . S
H122 C118 0.960 . S
H123 C118 0.960 . S
H124 C118 0.959 . S
C125 N126 1.317 . S
C125 N127 1.348 . S
C125 C128 1.485 . S
N126 C125 1.317 . S
N126 N130 1.370 . S
N127 C125 1.348 . S
N127 C129 1.346 . S
C128 C125 1.485 . S
C128 H132 0.960 . S
C128 H133 0.961 . S
C128 H134 0.960 . S
C129 N127 1.346 . S
C129 N130 1.307 . S
C129 C131 1.486 . S
N130 N126 1.370 . S
N130 C129 1.307 . S
C131 C129 1.486 . S
C131 H135 0.960 . S
C131 H136 0.960 . S
C131 H137 0.959 . S
H132 C128 0.960 . S
H133 C128 0.961 . S
H134 C128 0.960 . S
H135 C131 0.960 . S
H136 C131 0.960 . S
H137 C131 0.959 . S
H138 C144 0.930 . S
H139 C148 0.930 . S
H140 C153 0.929 . S
H141 C151 0.929 . S
H142 C146 0.929 . S
H143 C152 0.929 . S
C144 H138 0.930 . S
C144 C145 1.367 . S
C144 C152 1.378 . S
C145 C144 1.367 . S
C145 C153 1.433 . S
C146 H142 0.929 . S
C146 C148 1.378 . S
C146 C150 1.350 . S
C147 C150 1.463 . S
C147 C152 1.350 . S
C147 N155 1.427 . S
C148 H139 0.930 . S
C148 C146 1.378 . S
C148 C149 1.367 . S
C149 C148 1.367 . S
C149 C151 1.433 . S
C150 C146 1.350 . S
C150 C147 1.463 . S
C150 N154 1.427 . S
C151 H141 0.929 . S
C151 C149 1.433 . S
C151 N154 1.384 . S
C152 H143 0.929 . S
C152 C144 1.378 . S
C152 C147 1.350 . S
C153 H140 0.929 . S
C153 C145 1.433 . S
C153 N155 1.384 . S
N154 C150 1.427 . S
N154 C151 1.384 . S
N155 C147 1.427 . S
N155 C153 1.384 . S
H156 C162 0.930 . S
H157 C166 0.930 . S
H158 C171 0.929 . S
H159 C169 0.929 . S
H160 C164 0.929 . S
H161 C170 0.929 . S
C162 H156 0.930 . S
C162 C163 1.367 . S
C162 C170 1.378 . S
C163 C162 1.367 . S
C163 C171 1.433 . S
C164 H160 0.929 . S
C164 C166 1.378 . S
C164 C168 1.350 . S
C165 C168 1.463 . S
C165 C170 1.350 . S
C165 N173 1.427 . S
C166 H157 0.930 . S
C166 C164 1.378 . S
C166 C167 1.367 . S
C167 C166 1.367 . S
C167 C169 1.433 . S
C168 C164 1.350 . S
C168 C165 1.463 . S
C168 N172 1.427 . S
C169 H159 0.929 . S
C169 C167 1.433 . S
C169 N172 1.384 . S
C170 H161 0.929 . S
C170 C162 1.378 . S
C170 C165 1.350 . S
C171 H158 0.929 . S
C171 C163 1.433 . S
C171 N173 1.384 . S
N172 C168 1.427 . S
N172 C169 1.384 . S
N173 C165 1.427 . S
N173 C171 1.384 . S
H174 C180 0.930 . S
H175 C184 0.930 . S
H176 C189 0.929 . S
H177 C187 0.918 1_545 S
H178 C182 0.929 . S
H179 C188 0.929 . S
C180 H174 0.930 . S
C180 C181 1.367 . S
C180 C188 1.378 . S
C181 C180 1.367 . S
C181 C189 1.433 . S
C182 H178 0.929 . S
C182 C184 1.378 1_565 S
C182 C186 1.350 . S
C183 C186 1.463 . S
C183 C188 1.350 . S
C183 N191 1.427 . S
C184 H175 0.930 . S
C184 C182 1.378 1_545 S
C184 C185 1.367 . S
C185 C184 1.367 . S
C185 C187 1.428 1_545 S
C186 C182 1.350 . S
C186 C183 1.463 . S
C186 N190 1.427 . S
C187 H177 0.918 1_565 S
C187 C185 1.428 1_565 S
C187 N190 1.392 . S
C188 H179 0.929 . S
C188 C180 1.378 . S
C188 C183 1.350 . S
C189 H176 0.929 . S
C189 C181 1.433 . S
C189 N191 1.384 . S
N190 C186 1.427 . S
N190 C187 1.392 . S
N191 C183 1.427 . S
N191 C189 1.384 . S
H192 C198 0.930 . S
H193 C202 0.930 . S
H194 C207 0.929 . S
H195 C205 0.929 . S
H196 C200 0.929 . S
H197 C206 0.929 . S
C198 H192 0.930 . S
C198 C199 1.367 . S
C198 C206 1.378 . S
C199 C198 1.367 . S
C199 C207 1.433 . S
C200 H196 0.929 . S
C200 C202 1.378 . S
C200 C204 1.350 . S
C201 C204 1.463 . S
C201 C206 1.350 . S
C201 N209 1.427 . S
C202 H193 0.930 . S
C202 C200 1.378 . S
C202 C203 1.367 . S
C203 C202 1.367 . S
C203 C205 1.433 . S
C204 C200 1.350 . S
C204 C201 1.463 . S
C204 N208 1.427 . S
C205 H195 0.929 . S
C205 C203 1.433 . S
C205 N208 1.384 . S
C206 H197 0.929 . S
C206 C198 1.378 . S
C206 C201 1.350 . S
C207 H194 0.929 . S
C207 C199 1.433 . S
C207 N209 1.384 . S
N208 C204 1.427 . S
N208 C205 1.384 . S
N209 C201 1.427 . S
N209 C207 1.384 . S
H210 C216 0.930 . S
H211 C220 0.930 . S
H212 C225 0.929 . S
H213 C223 0.929 . S
H214 C218 0.929 . S
H215 C224 0.929 . S
C216 H210 0.930 . S
C216 C217 1.367 . S
C216 C224 1.378 . S
C217 C216 1.367 . S
C217 C225 1.433 . S
C218 H214 0.929 . S
C218 C220 1.378 . S
C218 C222 1.350 . S
C219 C222 1.463 . S
C219 C224 1.350 . S
C219 N227 1.427 . S
C220 H211 0.930 . S
C220 C218 1.378 . S
C220 C221 1.367 . S
C221 C220 1.367 . S
C221 C223 1.433 . S
C222 C218 1.350 . S
C222 C219 1.463 . S
C222 N226 1.427 . S
C223 H213 0.929 . S
C223 C221 1.433 . S
C223 N226 1.384 . S
C224 H215 0.929 . S
C224 C216 1.378 . S
C224 C219 1.350 . S
C225 H212 0.929 . S
C225 C217 1.433 . S
C225 N227 1.384 . S
N226 C222 1.427 . S
N226 C223 1.384 . S
N227 C219 1.427 . S
N227 C225 1.384 . S
H228 C234 0.930 . S
H229 C238 0.930 . S
H230 C243 0.929 . S
H231 C241 0.929 . S
H232 C236 0.929 . S
H233 C242 0.929 . S
C234 H228 0.930 . S
C234 C235 1.367 . S
C234 C242 1.378 . S
C235 C234 1.367 . S
C235 C243 1.433 . S
C236 H232 0.929 . S
C236 C238 1.378 . S
C236 C240 1.350 . S
C237 C240 1.463 . S
C237 C242 1.350 . S
C237 N245 1.427 . S
C238 H229 0.930 . S
C238 C236 1.378 . S
C238 C239 1.367 . S
C239 C238 1.367 . S
C239 C241 1.433 . S
C240 C236 1.350 . S
C240 C237 1.463 . S
C240 N244 1.427 . S
C241 H231 0.929 . S
C241 C239 1.433 . S
C241 N244 1.384 . S
C242 H233 0.929 . S
C242 C234 1.378 . S
C242 C237 1.350 . S
C243 H230 0.929 . S
C243 C235 1.433 . S
C243 N245 1.384 . S
N244 C240 1.427 . S
N244 C241 1.384 . S
N245 C237 1.427 . S
N245 C243 1.384 . S
H246 C252 0.930 . S
H247 C256 0.930 . S
H248 C261 0.929 . S
H249 C259 0.929 . S
H250 C254 0.929 . S
H251 C260 0.929 . S
C252 H246 0.930 . S
C252 C253 1.367 . S
C252 C260 1.378 . S
C253 C252 1.367 . S
C253 C261 1.433 . S
C254 H250 0.929 . S
C254 C256 1.378 . S
C254 C258 1.350 . S
C255 C258 1.463 . S
C255 C260 1.350 . S
C255 N263 1.427 . S
C256 H247 0.930 . S
C256 C254 1.378 . S
C256 C257 1.367 . S
C257 C256 1.367 . S
C257 C259 1.433 . S
C258 C254 1.350 . S
C258 C255 1.463 . S
C258 N262 1.427 . S
C259 H249 0.929 . S
C259 C257 1.433 . S
C259 N262 1.384 . S
C260 H251 0.929 . S
C260 C252 1.378 . S
C260 C255 1.350 . S
C261 H248 0.929 . S
C261 C253 1.433 . S
C261 N263 1.384 . S
N262 C258 1.427 . S
N262 C259 1.384 . S
N263 C255 1.427 . S
N263 C261 1.384 . S
H264 C270 0.930 . S
H265 C274 0.930 . S
H266 C279 0.929 . S
H267 C277 0.929 . S
H268 C272 0.929 . S
H269 C278 0.929 . S
C270 H264 0.930 . S
C270 C271 1.367 . S
C270 C278 1.378 . S
C271 C270 1.367 . S
C271 C279 1.433 . S
C272 H268 0.929 . S
C272 C274 1.378 . S
C272 C276 1.350 . S
C273 C276 1.463 . S
C273 C278 1.350 . S
C273 N281 1.427 . S
C274 H265 0.930 . S
C274 C272 1.378 . S
C274 C275 1.367 . S
C275 C274 1.367 . S
C275 C277 1.433 . S
C276 C272 1.350 . S
C276 C273 1.463 . S
C276 N280 1.427 . S
C277 H267 0.929 . S
C277 C275 1.433 . S
C277 N280 1.384 . S
C278 H269 0.929 . S
C278 C270 1.378 . S
C278 C273 1.350 . S
C279 H266 0.929 . S
C279 C271 1.433 . S
C279 N281 1.384 . S
N280 C276 1.427 . S
N280 C277 1.384 . S
N281 C273 1.427 . S
N281 C279 1.384 . S
H282 C288 0.930 . S
H283 C292 0.930 . S
H284 C297 0.929 . S
H285 C295 0.929 . S
H286 C290 0.929 . S
H287 C296 0.929 . S
C288 H282 0.930 . S
C288 C289 1.367 . S
C288 C296 1.378 . S
C289 C288 1.367 . S
C289 C297 1.433 . S
C290 H286 0.929 . S
C290 C292 1.378 . S
C290 C294 1.350 . S
C291 C294 1.463 . S
C291 C296 1.350 . S
C291 N299 1.427 . S
C292 H283 0.930 . S
C292 C290 1.378 . S
C292 C293 1.367 . S
C293 C292 1.367 . S
C293 C295 1.433 . S
C294 C290 1.350 . S
C294 C291 1.463 . S
C294 N298 1.427 . S
C295 H285 0.929 . S
C295 C293 1.433 . S
C295 N298 1.384 . S
C296 H287 0.929 . S
C296 C288 1.378 . S
C296 C291 1.350 . S
C297 H284 0.929 . S
C297 C289 1.433 . S
C297 N299 1.384 . S
N298 C294 1.427 . S
N298 C295 1.384 . S
N299 C291 1.427 . S
N299 C297 1.384 . S
H300 C306 0.930 . S
H301 C310 0.930 . S
H302 C315 0.929 . S
H303 C313 0.929 . S
H304 C308 0.929 . S
H305 C314 0.929 . S
C306 H300 0.930 . S
C306 C307 1.367 . S
C306 C314 1.378 . S
C307 C306 1.367 . S
C307 C315 1.433 . S
C308 H304 0.929 . S
C308 C310 1.378 . S
C308 C312 1.350 . S
C309 C312 1.463 . S
C309 C314 1.350 . S
C309 N317 1.427 . S
C310 H301 0.930 . S
C310 C308 1.378 . S
C310 C311 1.367 . S
C311 C310 1.367 . S
C311 C313 1.433 . S
C312 C308 1.350 . S
C312 C309 1.463 . S
C312 N316 1.427 . S
C313 H303 0.929 . S
C313 C311 1.433 . S
C313 N316 1.384 . S
C314 H305 0.929 . S
C314 C306 1.378 . S
C314 C309 1.350 . S
C315 H302 0.929 . S
C315 C307 1.433 . S
C315 N317 1.384 . S
N316 C312 1.427 . S
N316 C313 1.384 . S
N317 C309 1.427 . S
N317 C315 1.384 . S
H318 C324 0.930 . S
H319 C328 0.930 . S
H320 C333 0.929 . S
H321 C331 0.929 . S
H322 C326 0.929 . S
H323 C332 0.929 . S
C324 H318 0.930 . S
C324 C325 1.367 . S
C324 C332 1.378 . S
C325 C324 1.367 . S
C325 C333 1.433 . S
C326 H322 0.929 . S
C326 C328 1.378 . S
C326 C330 1.350 . S
C327 C330 1.463 . S
C327 C332 1.350 . S
C327 N335 1.427 . S
C328 H319 0.930 . S
C328 C326 1.378 . S
C328 C329 1.367 . S
C329 C328 1.367 . S
C329 C331 1.433 . S
C330 C326 1.350 . S
C330 C327 1.463 . S
C330 N334 1.427 . S
C331 H321 0.929 . S
C331 C329 1.433 . S
C331 N334 1.384 . S
C332 H323 0.929 . S
C332 C324 1.378 . S
C332 C327 1.350 . S
C333 H320 0.929 . S
C333 C325 1.433 . S
C333 N335 1.384 . S
N334 C330 1.427 . S
N334 C331 1.384 . S
N335 C327 1.427 . S
N335 C333 1.384 . S
H336 C342 0.930 . S
H337 C346 0.930 . S
H338 C351 0.929 . S
H339 C349 0.929 . S
H340 C344 0.929 . S
H341 C350 0.929 . S
C342 H336 0.930 . S
C342 C343 1.367 . S
C342 C350 1.378 . S
C343 C342 1.367 . S
C343 C351 1.433 . S
C344 H340 0.929 . S
C344 C346 1.378 . S
C344 C348 1.350 . S
C345 C348 1.463 . S
C345 C350 1.350 . S
C345 N353 1.427 . S
C346 H337 0.930 . S
C346 C344 1.378 . S
C346 C347 1.367 . S
C347 C346 1.367 . S
C347 C349 1.433 . S
C348 C344 1.350 . S
C348 C345 1.463 . S
C348 N352 1.427 . S
C349 H339 0.929 . S
C349 C347 1.433 . S
C349 N352 1.384 . S
C350 H341 0.929 . S
C350 C342 1.378 . S
C350 C345 1.350 . S
C351 H338 0.929 . S
C351 C343 1.433 . S
C351 N353 1.384 . S
N352 C348 1.427 . S
N352 C349 1.384 . S
N353 C345 1.427 . S
N353 C351 1.384 . S
H354 C360 0.930 . S
H355 C364 0.930 1_655 S
H356 C369 0.929 . S
H357 C367 0.929 . S
H358 C362 0.929 . S
H359 C368 0.929 . S
C360 H354 0.930 . S
C360 C361 1.367 . S
C360 C368 1.378 . S
C361 C360 1.367 . S
C361 C369 1.433 1_455 S
C362 H358 0.929 . S
C362 C364 1.378 1_655 S
C362 C366 1.350 1_655 S
C363 C366 1.463 1_554 S
C363 C368 1.350 . S
C363 N371 1.427 1_455 S
C364 H355 0.930 1_455 S
C364 C362 1.378 1_455 S
C364 C365 1.367 . S
C365 C364 1.367 . S
C365 C367 1.433 . S
C366 C362 1.350 1_455 S
C366 C363 1.463 1_556 S
C366 N370 1.427 . S
C367 H357 0.929 . S
C367 C365 1.433 . S
C367 N370 1.384 . S
C368 H359 0.929 . S
C368 C360 1.378 . S
C368 C363 1.350 . S
C369 H356 0.929 . S
C369 C361 1.433 1_655 S
C369 N371 1.384 . S
N370 C366 1.427 . S
N370 C367 1.384 . S
N371 C363 1.427 1_655 S
N371 C369 1.384 . S
H372 C378 0.930 1_565 S
H373 C382 0.930 . S
H374 C387 0.929 . S
H375 C385 0.929 . S
H376 C380 0.929 . S
H377 C386 0.929 1_565 S
C378 H372 0.930 1_545 S
C378 C379 1.367 . S
C378 C386 1.378 . S
C379 C378 1.367 . S
C379 C387 1.433 . S
C380 H376 0.929 . S
C380 C382 1.378 . S
C380 C384 1.350 . S
C381 C384 1.463 . S
C381 C386 1.350 . S
C381 N389 1.427 . S
C382 H373 0.930 . S
C382 C380 1.378 . S
C382 C383 1.367 . S
C383 C382 1.367 . S
C383 C385 1.433 1_545 S
C384 C380 1.350 . S
C384 C381 1.463 . S
C384 N388 1.427 1_545 S
C385 H375 0.929 . S
C385 C383 1.433 1_565 S
C385 N388 1.384 . S
C386 H377 0.929 1_545 S
C386 C378 1.378 . S
C386 C381 1.350 . S
C387 H374 0.929 . S
C387 C379 1.433 . S
C387 N389 1.384 . S
N388 C384 1.427 1_565 S
N388 C385 1.384 . S
N389 C381 1.427 . S
N389 C387 1.384 . S
H390 C396 0.930 . S
H391 C400 0.930 . S
H392 C405 0.929 . S
H393 C403 0.929 . S
H394 C398 0.929 . S
H395 C404 0.929 . S
C396 H390 0.930 . S
C396 C397 1.367 . S
C396 C404 1.378 . S
C397 C396 1.367 . S
C397 C405 1.433 . S
C398 H394 0.929 . S
C398 C400 1.378 . S
C398 C402 1.350 . S
C399 C402 1.463 . S
C399 C404 1.350 . S
C399 N407 1.427 . S
C400 H391 0.930 . S
C400 C398 1.378 . S
C400 C401 1.367 . S
C401 C400 1.367 . S
C401 C403 1.433 . S
C402 C398 1.350 . S
C402 C399 1.463 . S
C402 N406 1.427 . S
C403 H393 0.929 . S
C403 C401 1.433 . S
C403 N406 1.384 . S
C404 H395 0.929 . S
C404 C396 1.378 . S
C404 C399 1.350 . S
C405 H392 0.929 . S
C405 C397 1.433 . S
C405 N407 1.384 . S
N406 C402 1.427 . S
N406 C403 1.384 . S
N407 C399 1.427 . S
N407 C405 1.384 . S
H408 C414 0.930 1_565 S
H409 C418 0.930 . S
H410 C423 0.929 . S
H411 C421 0.929 . S
H412 C416 0.929 . S
H413 C422 0.929 . S
C414 H408 0.930 1_545 S
C414 C415 1.367 . S
C414 C422 1.378 . S
C415 C414 1.367 . S
C415 C423 1.433 . S
C416 H412 0.929 . S
C416 C418 1.378 . S
C416 C420 1.350 . S
C417 C420 1.463 . S
C417 C422 1.350 . S
C417 N425 1.427 . S
C418 H409 0.930 . S
C418 C416 1.378 . S
C418 C419 1.367 . S
C419 C418 1.367 . S
C419 C421 1.433 . S
C420 C416 1.350 . S
C420 C417 1.463 . S
C420 N424 1.427 . S
C421 H411 0.929 . S
C421 C419 1.433 . S
C421 N424 1.384 . S
C422 H413 0.929 . S
C422 C414 1.378 . S
C422 C417 1.350 . S
C423 H410 0.929 . S
C423 C415 1.433 . S
C423 N425 1.384 . S
N424 C420 1.427 . S
N424 C421 1.384 . S
N425 C417 1.427 . S
N425 C423 1.384 . S
H426 C432 0.930 . S
H427 C436 0.930 . S
H428 C441 0.929 . S
H429 C439 0.929 . S
H430 C434 0.929 . S
H431 C440 0.929 . S
C432 H426 0.930 . S
C432 C433 1.367 . S
C432 C440 1.378 . S
C433 C432 1.367 . S
C433 C441 1.433 . S
C434 H430 0.929 . S
C434 C436 1.378 . S
C434 C438 1.350 . S
C435 C438 1.463 1_556 S
C435 C440 1.350 . S
C435 N443 1.427 . S
C436 H427 0.930 . S
C436 C434 1.378 . S
C436 C437 1.367 . S
C437 C436 1.367 . S
C437 C439 1.433 . S
C438 C434 1.350 . S
C438 C435 1.463 1_554 S
C438 N442 1.427 . S
C439 H429 0.929 . S
C439 C437 1.433 . S
C439 N442 1.384 . S
C440 H431 0.929 . S
C440 C432 1.378 . S
C440 C435 1.350 . S
C441 H428 0.929 . S
C441 C433 1.433 . S
C441 N443 1.384 . S
N442 C438 1.427 . S
N442 C439 1.384 . S
N443 C435 1.427 . S
N443 C441 1.384 . S
H444 C450 0.930 . S
H445 C454 0.930 . S
H446 C459 0.929 . S
H447 C457 0.929 . S
H448 C452 0.929 . S
H449 C458 0.929 . S
C450 H444 0.930 . S
C450 C451 1.367 1_455 S
C450 C458 1.378 . S
C451 C450 1.367 1_655 S
C451 C459 1.433 . S
C452 H448 0.929 . S
C452 C454 1.378 . S
C452 C456 1.350 1_655 S
C453 C456 1.463 . S
C453 C458 1.350 . S
C453 N461 1.427 1_455 S
C454 H445 0.930 . S
C454 C452 1.378 . S
C454 C455 1.367 1_655 S
C455 C454 1.367 1_455 S
C455 C457 1.433 . S
C456 C452 1.350 1_455 S
C456 C453 1.463 . S
C456 N460 1.427 . S
C457 H447 0.929 . S
C457 C455 1.433 . S
C457 N460 1.384 . S
C458 H449 0.929 . S
C458 C450 1.378 . S
C458 C453 1.350 . S
C459 H446 0.929 . S
C459 C451 1.433 . S
C459 N461 1.384 . S
N460 C456 1.427 . S
N460 C457 1.384 . S
N461 C453 1.427 1_655 S
N461 C459 1.384 . S
C145 C2 0.814 . S
C149 N127 0.820 . S
C163 C21 0.917 . S
C167 N100 0.922 1_655 S
C181 C42 0.980 . S
C185 N113 0.977 . S
C199 C1 1.225 . S
C203 N126 1.267 . S
C221 N101 1.138 . S
C217 C22 1.128 . S
C239 N114 1.058 . S
C235 C41 1.047 . S
C253 C38 1.762 . S
C257 N74 1.772 . S
C271 C59 1.677 . S
C275 N88 1.643 1_655 S
C289 C18 1.895 . S
C293 N62 1.910 . S
C311 N75 1.972 . S
C307 C39 1.993 . S
C329 N87 2.134 . S
C325 C58 2.097 . S
C343 C19 1.835 . S
C347 N61 1.833 . S
C365 N91 1.585 . S
C361 C9 1.561 . S
C379 C29 1.552 . S
C383 N65 1.567 . S
C397 C49 1.529 . S
C401 N78 1.611 . S
C419 N117 1.433 . S
C415 C28 1.404 . S
C437 N130 1.457 . S
C433 C48 1.471 . S
C451 C8 1.462 1_655 S
C455 N104 1.487 . S
