# Generated by pormake.
# Topology ctn, (3,4)-cn, num edge types: 1
# Building blocks:
#     Node 0, Type 0, BuildingBlock: ESEHIV_clean_linker_0, # of connection points: 3
#     Node 1, Type 0, BuildingBlock: ESEHIV_clean_linker_0, # of connection points: 3
#     Node 2, Type 0, BuildingBlock: ESEHIV_clean_linker_0, # of connection points: 3
#     Node 3, Type 0, BuildingBlock: ESEHIV_clean_linker_0, # of connection points: 3
#     Node 4, Type 0, BuildingBlock: ESEHIV_clean_linker_0, # of connection points: 3
#     Node 5, Type 0, BuildingBlock: ESEHIV_clean_linker_0, # of connection points: 3
#     Node 6, Type 0, BuildingBlock: ESEHIV_clean_linker_0, # of connection points: 3
#     Node 7, Type 0, BuildingBlock: ESEHIV_clean_linker_0, # of connection points: 3
#     Node 8, Type 0, BuildingBlock: ESEHIV_clean_linker_0, # of connection points: 3
#     Node 9, Type 0, BuildingBlock: ESEHIV_clean_linker_0, # of connection points: 3
#     Node 10, Type 0, BuildingBlock: ESEHIV_clean_linker_0, # of connection points: 3
#     Node 11, Type 0, BuildingBlock: ESEHIV_clean_linker_0, # of connection points: 3
#     Node 12, Type 0, BuildingBlock: ESEHIV_clean_linker_0, # of connection points: 3
#     Node 13, Type 0, BuildingBlock: ESEHIV_clean_linker_0, # of connection points: 3
#     Node 14, Type 0, BuildingBlock: ESEHIV_clean_linker_0, # of connection points: 3
#     Node 15, Type 0, BuildingBlock: ESEHIV_clean_linker_0, # of connection points: 3
#     Node 16, Type 1, BuildingBlock: QUQFOY_clean_sbu_1, # of connection points: 4
#     Node 17, Type 1, BuildingBlock: QUQFOY_clean_sbu_1, # of connection points: 4
#     Node 18, Type 1, BuildingBlock: QUQFOY_clean_sbu_1, # of connection points: 4
#     Node 19, Type 1, BuildingBlock: QUQFOY_clean_sbu_1, # of connection points: 4
#     Node 20, Type 1, BuildingBlock: QUQFOY_clean_sbu_1, # of connection points: 4
#     Node 21, Type 1, BuildingBlock: QUQFOY_clean_sbu_1, # of connection points: 4
#     Node 22, Type 1, BuildingBlock: QUQFOY_clean_sbu_1, # of connection points: 4
#     Node 23, Type 1, BuildingBlock: QUQFOY_clean_sbu_1, # of connection points: 4
#     Node 24, Type 1, BuildingBlock: QUQFOY_clean_sbu_1, # of connection points: 4
#     Node 25, Type 1, BuildingBlock: QUQFOY_clean_sbu_1, # of connection points: 4
#     Node 26, Type 1, BuildingBlock: QUQFOY_clean_sbu_1, # of connection points: 4
#     Node 27, Type 1, BuildingBlock: QUQFOY_clean_sbu_1, # of connection points: 4
#     Edge 28, Type (0, 1), BuildingBlock: OJICUG_clean_linker_0, # of connection points: 2
#     Edge 29, Type (0, 1), BuildingBlock: OJICUG_clean_linker_0, # of connection points: 2
#     Edge 30, Type (0, 1), BuildingBlock: OJICUG_clean_linker_0, # of connection points: 2
#     Edge 31, Type (0, 1), BuildingBlock: OJICUG_clean_linker_0, # of connection points: 2
#     Edge 32, Type (0, 1), BuildingBlock: OJICUG_clean_linker_0, # of connection points: 2
#     Edge 33, Type (0, 1), BuildingBlock: OJICUG_clean_linker_0, # of connection points: 2
#     Edge 34, Type (0, 1), BuildingBlock: OJICUG_clean_linker_0, # of connection points: 2
#     Edge 35, Type (0, 1), BuildingBlock: OJICUG_clean_linker_0, # of connection points: 2
#     Edge 36, Type (0, 1), BuildingBlock: OJICUG_clean_linker_0, # of connection points: 2
#     Edge 37, Type (0, 1), BuildingBlock: OJICUG_clean_linker_0, # of connection points: 2
#     Edge 38, Type (0, 1), BuildingBlock: OJICUG_clean_linker_0, # of connection points: 2
#     Edge 39, Type (0, 1), BuildingBlock: OJICUG_clean_linker_0, # of connection points: 2
#     Edge 40, Type (0, 1), BuildingBlock: OJICUG_clean_linker_0, # of connection points: 2
#     Edge 41, Type (0, 1), BuildingBlock: OJICUG_clean_linker_0, # of connection points: 2
#     Edge 42, Type (0, 1), BuildingBlock: OJICUG_clean_linker_0, # of connection points: 2
#     Edge 43, Type (0, 1), BuildingBlock: OJICUG_clean_linker_0, # of connection points: 2
#     Edge 44, Type (0, 1), BuildingBlock: OJICUG_clean_linker_0, # of connection points: 2
#     Edge 45, Type (0, 1), BuildingBlock: OJICUG_clean_linker_0, # of connection points: 2
#     Edge 46, Type (0, 1), BuildingBlock: OJICUG_clean_linker_0, # of connection points: 2
#     Edge 47, Type (0, 1), BuildingBlock: OJICUG_clean_linker_0, # of connection points: 2
#     Edge 48, Type (0, 1), BuildingBlock: OJICUG_clean_linker_0, # of connection points: 2
#     Edge 49, Type (0, 1), BuildingBlock: OJICUG_clean_linker_0, # of connection points: 2
#     Edge 50, Type (0, 1), BuildingBlock: OJICUG_clean_linker_0, # of connection points: 2
#     Edge 51, Type (0, 1), BuildingBlock: OJICUG_clean_linker_0, # of connection points: 2
#     Edge 52, Type (0, 1), BuildingBlock: OJICUG_clean_linker_0, # of connection points: 2
#     Edge 53, Type (0, 1), BuildingBlock: OJICUG_clean_linker_0, # of connection points: 2
#     Edge 54, Type (0, 1), BuildingBlock: OJICUG_clean_linker_0, # of connection points: 2
#     Edge 55, Type (0, 1), BuildingBlock: OJICUG_clean_linker_0, # of connection points: 2
#     Edge 56, Type (0, 1), BuildingBlock: OJICUG_clean_linker_0, # of connection points: 2
#     Edge 57, Type (0, 1), BuildingBlock: OJICUG_clean_linker_0, # of connection points: 2
#     Edge 58, Type (0, 1), BuildingBlock: OJICUG_clean_linker_0, # of connection points: 2
#     Edge 59, Type (0, 1), BuildingBlock: OJICUG_clean_linker_0, # of connection points: 2
#     Edge 60, Type (0, 1), BuildingBlock: OJICUG_clean_linker_0, # of connection points: 2
#     Edge 61, Type (0, 1), BuildingBlock: OJICUG_clean_linker_0, # of connection points: 2
#     Edge 62, Type (0, 1), BuildingBlock: OJICUG_clean_linker_0, # of connection points: 2
#     Edge 63, Type (0, 1), BuildingBlock: OJICUG_clean_linker_0, # of connection points: 2
#     Edge 64, Type (0, 1), BuildingBlock: OJICUG_clean_linker_0, # of connection points: 2
#     Edge 65, Type (0, 1), BuildingBlock: OJICUG_clean_linker_0, # of connection points: 2
#     Edge 66, Type (0, 1), BuildingBlock: OJICUG_clean_linker_0, # of connection points: 2
#     Edge 67, Type (0, 1), BuildingBlock: OJICUG_clean_linker_0, # of connection points: 2
#     Edge 68, Type (0, 1), BuildingBlock: OJICUG_clean_linker_0, # of connection points: 2
#     Edge 69, Type (0, 1), BuildingBlock: OJICUG_clean_linker_0, # of connection points: 2
#     Edge 70, Type (0, 1), BuildingBlock: OJICUG_clean_linker_0, # of connection points: 2
#     Edge 71, Type (0, 1), BuildingBlock: OJICUG_clean_linker_0, # of connection points: 2
#     Edge 72, Type (0, 1), BuildingBlock: OJICUG_clean_linker_0, # of connection points: 2
#     Edge 73, Type (0, 1), BuildingBlock: OJICUG_clean_linker_0, # of connection points: 2
#     Edge 74, Type (0, 1), BuildingBlock: OJICUG_clean_linker_0, # of connection points: 2
#     Edge 75, Type (0, 1), BuildingBlock: OJICUG_clean_linker_0, # of connection points: 2
# Relax obj value: 0.038
# Max RMSD: 0.147
# Mean RMSD: 0.068
data_MOF--net-ctn--node1-QUQFOY_clean_sbu_1--node2-ESEHIV_clean_linker_0--edge1-OJICUG_clean_linker_0
_symmetry_space_group_name_H-M    P1
_symmetry_Int_Tables_number       1
_symmetry_cell_setting            triclinic
loop_
_symmetry_equiv_pos_as_xyz
'x, y, z'
_cell_length_a     37.465967
_cell_length_b     37.189893
_cell_length_c     37.312958
_cell_angle_alpha  92.719957
_cell_angle_beta   89.817296
_cell_angle_gamma 94.398469
loop_
_atom_site_label
_atom_site_type_symbol
_atom_site_fract_x
_atom_site_fract_y
_atom_site_fract_z
_atom_type_partial_charge
H0 H 0.9704 0.08616 0.06088 0.0
H1 H 0.03755 0.00168 0.08461 0.0
H2 H 0.05773 0.06284 0.99082 0.0
C3 C -0.00709 0.07048 0.05424 0.0
C4 C 0.01308 0.0778 0.02327 0.0
C5 C 0.00151 0.04312 0.07664 0.0
C6 C 0.0307 0.02288 0.06756 0.0
C7 C 0.05099 0.02949 0.03654 0.0
C8 C 0.04213 0.05727 0.01469 0.0
H9 H 0.29457 0.70537 0.27726 0.0
H10 H 0.3332 0.78669 0.20581 0.0
H11 H 0.23126 0.72773 0.18628 0.0
C12 C 0.29091 0.72061 0.25373 0.0
C13 C 0.25984 0.71317 0.23302 0.0
C14 C 0.31755 0.74698 0.24431 0.0
C15 C 0.31267 0.76644 0.21361 0.0
C16 C 0.28155 0.75977 0.19261 0.0
C17 C 0.25513 0.73319 0.20256 0.0
H18 H 0.93756 0.52523 0.1066 0.0
H19 H 0.99095 0.42802 0.08499 0.0
H20 H 0.90413 0.45257 0.01792 0.0
C21 C 0.94004 0.5002 0.09107 0.0
C22 C 0.91781 0.49188 0.06114 0.0
C23 C 0.96651 0.47729 0.10008 0.0
C24 C 0.96993 0.44536 0.07919 0.0
C25 C 0.94726 0.43626 0.04983 0.0
C26 C 0.92105 0.45933 0.04116 0.0
H27 H 0.68328 0.72969 0.25235 0.0
H28 H 0.78781 0.77893 0.22839 0.0
H29 H 0.72395 0.82497 0.31208 0.0
C30 C 0.70535 0.74951 0.25879 0.0
C31 C 0.70093 0.7764 0.28561 0.0
C32 C 0.73647 0.7506 0.23756 0.0
C33 C 0.76422 0.77747 0.24526 0.0
C34 C 0.76006 0.80462 0.27213 0.0
C35 C 0.72854 0.80329 0.29256 0.0
H36 H 0.98039 0.96641 0.47607 0.0
H37 H 0.06188 0.04292 0.43864 0.0
H38 H 0.08378 0.97944 0.52787 0.0
C39 C 0.00735 0.97905 0.47835 0.0
C40 C 0.03069 0.96875 0.50491 0.0
C41 C 0.0187 0.00515 0.45396 0.0
C42 C 0.05324 0.02212 0.45688 0.0
C43 C 0.07618 0.01349 0.48413 0.0
C44 C 0.06511 0.98665 0.5078 0.0
H45 H 0.17656 0.77212 0.79651 0.0
H46 H 0.2554 0.7075 0.8386 0.0
H47 H 0.19786 0.67139 0.7423 0.0
C48 C 0.19169 0.74841 0.79448 0.0
C49 C 0.18433 0.72268 0.76629 0.0
C50 C 0.21679 0.74298 0.82108 0.0
C51 C 0.23608 0.71214 0.8181 0.0
C52 C 0.22993 0.68645 0.78952 0.0
C53 C 0.20378 0.69172 0.76367 0.0
H54 H 0.89776 0.58778 0.52019 0.0
H55 H -0.00183 0.61981 0.47025 0.0
H56 H 0.93714 0.52283 0.43238 0.0
C57 C 0.91789 0.58325 0.49985 0.0
C58 C 0.91384 0.55274 0.47635 0.0
C59 C 0.94821 0.6075 0.49768 0.0
C60 C 0.97451 0.60122 0.47182 0.0
C61 C 0.97049 0.57075 0.44823 0.0
C62 C 0.94012 0.54658 0.45046 0.0
H63 H 0.7633 0.85435 0.88873 0.0
H64 H 0.80777 0.87572 0.78502 0.0
H65 H 0.84203 0.78747 0.84342 0.0
C66 C 0.78139 0.84762 0.86715 0.0
C67 C 0.80193 0.81776 0.86953 0.0
C68 C 0.78339 0.8686 0.83676 0.0
C69 C 0.80667 0.85979 0.80861 0.0
C70 C 0.82848 0.83075 0.8109 0.0
C71 C 0.82576 0.81007 0.84153 0.0
H72 H 0.25599 0.34308 0.37748 0.0
H73 H 0.30873 0.37558 0.28064 0.0
H74 H 0.35049 0.29335 0.34247 0.0
C75 C 0.27795 0.3409 0.35872 0.0
C76 C 0.30227 0.31449 0.36275 0.0
C77 C 0.28077 0.36364 0.32966 0.0
C78 C 0.30759 0.35898 0.30374 0.0
C79 C 0.3327 0.33308 0.30761 0.0
C80 C 0.33041 0.31209 0.33803 0.0
H81 H 0.45261 0.03948 0.60595 0.0
H82 H 0.50977 0.94558 0.57867 0.0
H83 H 0.42874 0.97663 0.50819 0.0
C84 C 0.45734 0.01658 0.58801 0.0
C85 C 0.43791 0.01133 0.55585 0.0
C86 C 0.48347 0.99306 0.59664 0.0
C87 C 0.48913 0.96343 0.57309 0.0
C88 C 0.4696 0.95777 0.54117 0.0
C89 C 0.44406 0.98158 0.53277 0.0
H90 H 0.17695 0.22782 0.75426 0.0
H91 H 0.27899 0.28058 0.72749 0.0
H92 H 0.21587 0.32529 0.81231 0.0
C93 C 0.19835 0.24855 0.7601 0.0
C94 C 0.19368 0.27541 0.78708 0.0
C95 C 0.22914 0.25039 0.73838 0.0
C96 C 0.25579 0.2785 0.7449 0.0
C97 C 0.2509 0.30616 0.77092 0.0
C98 C 0.22036 0.30368 0.79268 0.0
H99 H 0.79633 0.20788 0.77364 0.0
H100 H 0.83519 0.28632 0.69956 0.0
H101 H 0.72864 0.23446 0.68755 0.0
C102 C 0.79192 0.2234 0.75043 0.0
C103 C 0.75903 0.21852 0.73247 0.0
C104 C 0.8195 0.24755 0.73876 0.0
C105 C 0.81392 0.26749 0.70864 0.0
C106 C 0.78123 0.26283 0.68985 0.0
C107 C 0.75376 0.23841 0.70204 0.0
H108 H 0.46827 0.58829 0.54806 0.0
H109 H 0.53278 0.50165 0.5704 0.0
H110 H 0.56599 0.57522 0.48938 0.0
C111 C 0.49227 0.57438 0.54306 0.0
C112 C 0.51652 0.58596 0.51633 0.0
C113 C 0.49833 0.54459 0.56327 0.0
C114 C 0.52814 0.52498 0.55526 0.0
C115 C 0.5521 0.53524 0.52795 0.0
C116 C 0.54649 0.56619 0.50913 0.0
H117 H 0.49354 0.44706 0.94856 0.0
H118 H 0.56915 0.53231 0.91721 0.0
H119 H 0.58572 0.47883 0.01482 0.0
C120 C 0.51817 0.46372 0.95377 0.0
C121 C 0.53826 0.45946 0.98485 0.0
C122 C 0.52922 0.49005 0.9296 0.0
C123 C 0.561 0.51159 0.93572 0.0
C124 C 0.58168 0.50727 0.9662 0.0
C125 C 0.57015 0.48136 0.99077 0.0
H126 H 0.67967 0.27751 0.28946 0.0
H127 H 0.7521 0.20888 0.33634 0.0
H128 H 0.6983 0.17489 0.2375 0.0
C129 C 0.69359 0.253 0.28839 0.0
C130 C 0.68627 0.22723 0.26019 0.0
C131 C 0.71689 0.24653 0.3163 0.0
C132 C 0.73441 0.21452 0.31472 0.0
C133 C 0.7284 0.18889 0.28613 0.0
C134 C 0.70416 0.19524 0.25887 0.0
H135 H 0.39321 0.09031 0.02055 0.0
H136 H 0.49681 0.11742 0.97499 0.0
H137 H 0.43391 0.0217 0.93652 0.0
C138 C 0.414 0.08465 0.00124 0.0
C139 C 0.40995 0.05365 0.97842 0.0
C140 C 0.44523 0.10776 -3e-05 0.0
C141 C 0.47261 0.09952 0.97593 0.0
C142 C 0.4686 0.06871 0.95266 0.0
C143 C 0.43695 0.04605 0.95376 0.0
O144 O 0.25839 0.84222 0.966 0.0
Cd145 Cd 0.26572 0.8729 0.0133 0.0
Cd146 Cd 0.21852 0.91376 0.9795 0.0
O147 O 0.2112 0.86786 0.94706 0.0
O148 O 0.29444 0.8426 0.0427 0.0
O149 O 0.24029 0.85718 0.05836 0.0
C150 C 0.26833 0.84052 0.06521 0.0
C151 C 0.16838 0.94336 -0.0031 0.0
C152 C 0.23277 0.84323 0.94397 0.0
C153 C 0.29278 0.94631 0.99187 0.0
O154 O 0.26448 0.9468 0.97337 0.0
O155 O 0.29687 0.92074 0.01246 0.0
O156 O 0.17996 0.94348 0.96437 0.0
O157 O 0.18503 0.92566 0.01977 0.0
O158 O 0.17367 0.57433 0.30078 0.0
Cd159 Cd 0.14891 0.52588 0.31615 0.0
Cd160 Cd 0.10086 0.54225 0.26406 0.0
O161 O 0.14329 0.57682 0.25057 0.0
O162 O 0.18526 0.50282 0.34422 0.0
O163 O 0.16334 0.47934 0.29253 0.0
C164 C 0.18471 0.47746 0.3194 0.0
C165 C 0.06453 0.52107 0.21587 0.0
C166 C 0.16862 0.58885 0.27125 0.0
C167 C 0.07719 0.54362 0.34138 0.0
O168 O 0.0726 0.55395 0.30992 0.0
O169 O 0.10486 0.52788 0.34907 0.0
O170 O 0.06642 0.55431 0.22724 0.0
O171 O 0.0836 0.49923 0.23189 0.0
O172 O 0.75431 0.7087 -0.00314 0.0
Cd173 Cd 0.7422 0.66964 0.03351 0.0
Cd174 Cd 0.78213 0.63146 0.98966 0.0
O175 O 0.79622 0.68046 0.96802 0.0
O176 O 0.71688 0.69542 0.07217 0.0
O177 O 0.76785 0.67085 0.08104 0.0
C178 C 0.74173 0.68821 0.09385 0.0
C179 C 0.82455 0.59604 0.01149 0.0
C180 C 0.77898 0.70831 0.97345 0.0
C181 C 0.70624 0.60502 0.99403 0.0
O182 O 0.73427 0.60378 0.97497 0.0
O183 O 0.70518 0.6279 0.0202 0.0
O184 O 0.81967 0.59827 0.97747 0.0
O185 O 0.80615 0.61537 0.03331 0.0
O186 O 0.9305 0.00778 0.30728 0.0
Cd187 Cd 0.89902 -0.00243 0.26221 0.0
Cd188 Cd 0.84846 0.01978 0.30812 0.0
O189 O 0.89003 0.02941 0.3437 0.0
O190 O 0.93397 0.98498 0.22461 0.0
O191 O 0.90186 0.0323 0.2222 0.0
C192 C 0.92543 0.01252 0.20787 0.0
C193 C 0.81096 0.06538 0.2979 0.0
C194 C 0.92179 0.02098 0.33782 0.0
C195 C 0.839 0.94356 0.28033 0.0
O196 O 0.82809 0.96703 0.3027 0.0
O197 O 0.86538 0.9512 0.25997 0.0
O198 O 0.80893 0.04783 0.32693 0.0
O199 O 0.83463 0.05697 0.27429 0.0
O200 O 0.25889 0.21196 0.4964 0.0
Cd201 Cd 0.24312 0.17418 0.53372 0.0
Cd202 Cd 0.28121 0.1304 0.49138 0.0
O203 O 0.28948 0.17544 0.46211 0.0
O204 O 0.21769 0.20145 0.57135 0.0
O205 O 0.26669 0.17415 0.5822 0.0
C206 C 0.24077 0.19238 0.59408 0.0
C207 C 0.32972 0.10227 0.51167 0.0
C208 C 0.27783 0.20624 0.46867 0.0
C209 C 0.20582 0.10531 0.50027 0.0
O210 O 0.23441 0.09883 0.48378 0.0
O211 O 0.20457 0.13331 0.52088 0.0
O212 O 0.32035 0.09955 0.47836 0.0
O213 O 0.31168 0.12176 0.53368 0.0
O214 O 0.43118 0.49055 0.78682 0.0
Cd215 Cd 0.39533 0.4895 0.74504 0.0
Cd216 Cd 0.35538 0.51856 0.79614 0.0
O217 O 0.40266 0.5258 0.82439 0.0
O218 O 0.42387 0.47525 0.70265 0.0
O219 O 0.39984 0.52773 0.70855 0.0
C220 C 0.41867 0.50596 0.68989 0.0
C221 C 0.31854 0.56599 0.79177 0.0
C222 C 0.42982 0.50857 0.81649 0.0
C223 C 0.33309 0.44363 0.76969 0.0
O224 O 0.3305 0.46717 0.79513 0.0
O225 O 0.355 0.44931 0.74426 0.0
O226 O 0.32121 0.54942 0.82112 0.0
O227 O 0.33758 0.55603 0.76465 0.0
O228 O 0.75662 0.34414 0.46249 0.0
Cd229 Cd 0.76481 0.37467 0.50977 0.0
Cd230 Cd 0.71956 0.41756 0.47496 0.0
O231 O 0.71177 0.37224 0.44177 0.0
O232 O 0.79275 0.34323 0.53865 0.0
O233 O 0.73957 0.35978 0.55528 0.0
C234 C 0.76706 0.34214 0.56164 0.0
C235 C 0.67005 0.44882 0.49104 0.0
C236 C 0.73211 0.34649 0.4395 0.0
C237 C 0.79478 0.4473 0.48866 0.0
O238 O 0.76661 0.44918 0.47029 0.0
O239 O 0.7979 0.42124 0.50887 0.0
O240 O 0.68286 0.44906 0.45898 0.0
O241 O 0.68507 0.43004 0.51417 0.0
O242 O 0.67894 0.08402 0.81021 0.0
Cd243 Cd 0.6571 0.03612 0.82905 0.0
Cd244 Cd 0.60581 0.04253 0.7733 0.0
O245 O 0.64398 0.08334 0.76263 0.0
O246 O 0.69517 0.01332 0.855 0.0
O247 O 0.66981 0.98938 0.80493 0.0
C248 C 0.69286 0.98764 0.8304 0.0
C249 C 0.57159 0.02512 0.72243 0.0
C250 C 0.67007 0.09755 0.78122 0.0
C251 C 0.58192 0.04276 0.85201 0.0
O252 O 0.575 0.04512 0.81896 0.0
O253 O 0.61347 0.03835 0.86236 0.0
O254 O 0.57004 0.05618 0.73859 0.0
O255 O 0.59259 0.00303 0.73533 0.0
O256 O 0.9492 0.29069 0.94559 0.0
Cd257 Cd 0.95826 0.24658 0.91201 0.0
Cd258 Cd -0.00037 0.29378 0.87834 0.0
O259 O -0.00568 0.32489 0.92458 0.0
O260 O 0.94193 0.2035 0.93871 0.0
O261 O -0.00144 0.21675 0.92381 0.0
C262 C 0.97487 0.19571 0.93937 0.0
C263 C 0.05636 0.28718 0.85533 0.0
C264 C 0.96964 0.31958 0.94751 0.0
C265 C 0.9356 0.26337 0.83882 0.0
O266 O 0.95876 0.29007 0.84135 0.0
O267 O 0.93307 0.24049 0.86306 0.0
O268 O 0.04099 0.31684 0.85304 0.0
O269 O 0.03955 0.26101 0.87154 0.0
O270 O 0.47494 0.80939 0.44448 0.0
Cd271 Cd 0.4733 0.76318 0.41124 0.0
Cd272 Cd 0.50596 0.80923 0.36722 0.0
O273 O 0.50293 0.84706 0.40816 0.0
O274 O 0.45767 0.72557 0.44509 0.0
O275 O 0.50962 0.72662 0.41645 0.0
C276 C 0.48769 0.71169 0.43908 0.0
C277 C 0.56139 0.79768 0.34442 0.0
C278 C 0.48839 0.84083 0.43816 0.0
C279 C 0.4373 0.77461 0.34089 0.0
O280 O 0.46205 0.79882 0.33517 0.0
O281 O 0.43744 0.7565 0.36895 0.0
O282 O 0.54603 0.82617 0.3365 0.0
O283 O 0.54494 0.77535 0.36554 0.0
O284 O 0.95402 0.77222 0.70727 0.0
Cd285 Cd -0.00494 0.75514 0.67464 0.0
Cd286 Cd 0.96411 0.803 0.62807 0.0
O287 O 0.93312 0.81248 0.67252 0.0
O288 O 0.02362 0.72504 0.70462 0.0
O289 O 0.04637 0.77504 0.68072 0.0
C290 C 0.05107 0.74704 0.69888 0.0
C291 C 0.98465 0.85234 0.59593 0.0
C292 C 0.93252 0.7963 0.70175 0.0
C293 C 0.96656 0.72519 0.60303 0.0
O294 O 0.95521 0.75567 0.5973 0.0
O295 O 0.98334 0.72027 0.63158 0.0
O296 O 0.95195 0.83904 0.59355 0.0
O297 O 0.00593 0.83817 0.61748 0.0
O298 O 0.46027 0.28172 0.20158 0.0
Cd299 Cd 0.49969 0.26511 0.16675 0.0
Cd300 Cd 0.46294 0.30874 0.12139 0.0
O301 O 0.4363 0.32111 0.16813 0.0
O302 O 0.52778 0.2339 0.19591 0.0
O303 O 0.55167 0.28345 0.17219 0.0
C304 C 0.55571 0.25516 0.1901 0.0
C305 C 0.48583 0.35513 0.08646 0.0
C306 C 0.43812 0.3055 0.19753 0.0
C307 C 0.46503 0.23137 0.09861 0.0
O308 O 0.45013 0.26023 0.09362 0.0
O309 O 0.48616 0.22945 0.12477 0.0
O310 O 0.45196 0.34605 0.08771 0.0
O311 O 0.50691 0.33831 0.10604 0.0
C312 C 0.25485 0.77663 0.8691 0.0
C313 C 0.22112 0.76834 0.85303 0.0
H314 H 0.28488 0.80649 0.91093 0.0
C315 C 0.19118 0.78405 0.8681 0.0
H316 H 0.27855 0.76538 0.85802 0.0
C317 C 0.19501 0.8082 0.89778 0.0
C318 C 0.22869 0.81651 0.91363 0.0
H319 H 0.1646 0.77752 0.85721 0.0
H320 H 0.17151 0.82016 0.90851 0.0
C321 C 0.25853 0.80022 0.89935 0.0
C322 C 0.02027 0.53568 0.42493 0.0
C323 C -0.00188 0.56402 0.42132 0.0
H324 H 0.06335 0.50726 0.40245 0.0
C325 C 0.00214 0.58574 0.39174 0.0
H326 H 0.01739 0.51872 0.44774 0.0
C327 C 0.02777 0.57888 0.36562 0.0
C328 C 0.05022 0.55063 0.36914 0.0
H329 H 0.98515 0.60769 0.38865 0.0
H330 H 0.03024 0.59591 0.34284 0.0
C331 C 0.04647 0.52926 0.39918 0.0
C332 C 0.82589 0.77475 0.91222 0.0
C333 C 0.7971 0.79311 0.8999 0.0
H334 H 0.84257 0.73307 0.94473 0.0
C335 C 0.76296 0.78543 0.91487 0.0
H336 H 0.8528 0.78063 0.90235 0.0
C337 C 0.75753 0.75912 0.94025 0.0
C338 C 0.78586 0.73927 0.95053 0.0
H339 H 0.73996 0.79845 0.90586 0.0
H340 H 0.73072 0.75298 0.95036 0.0
C341 C 0.82019 0.74769 0.93678 0.0
C342 C 0.0073 0.01319 0.38908 0.0
C343 C -0.00516 0.01367 0.42461 0.0
H344 H -0.0061 0.01538 0.33361 0.0
C345 C 0.95906 0.02036 0.43161 0.0
H346 H 0.03479 0.00799 0.38302 0.0
C347 C 0.93572 0.02495 0.4034 0.0
C348 C 0.94766 0.02242 0.36768 0.0
H349 H 0.94899 0.02129 0.45887 0.0
H350 H 0.90796 0.02882 0.40955 0.0
C351 C 0.98388 0.01734 0.36084 0.0
C352 C 0.20111 0.2276 0.68058 0.0
C353 C 0.23031 0.22866 0.70416 0.0
H354 H 0.18176 0.21563 0.62731 0.0
C355 C 0.26226 0.21455 0.69215 0.0
H356 H 0.17635 0.2388 0.68882 0.0
C357 C 0.26548 0.20138 0.6566 0.0
C358 C 0.23694 0.2026 0.6325 0.0
H359 H 0.2852 0.21514 0.70983 0.0
H360 H 0.29073 0.19176 0.64765 0.0
C361 C 0.20443 0.21485 0.64513 0.0
C362 C 0.46125 0.56164 0.61681 0.0
C363 C 0.47437 0.53469 0.59364 0.0
H364 H 0.4329 0.57364 0.66539 0.0
C365 C 0.46617 0.49828 0.60098 0.0
H366 H 0.46736 0.58997 0.61218 0.0
C367 C 0.44709 0.48905 0.63177 0.0
C368 C 0.43526 0.516 0.65559 0.0
H369 H 0.47502 0.47683 0.58326 0.0
H370 H 0.44209 0.46075 0.6372 0.0
C371 C 0.44165 0.55234 0.64739 0.0
C372 C 0.8043 0.2847 0.63127 0.0
C373 C 0.77665 0.28252 0.65672 0.0
H374 H 0.82288 0.30501 0.58151 0.0
C375 C 0.74515 0.29951 0.65038 0.0
H376 H 0.82864 0.27137 0.63509 0.0
C377 C 0.74175 0.3189 0.61943 0.0
C378 C 0.76972 0.32138 0.59424 0.0
H379 H 0.72346 0.29838 0.66965 0.0
H380 H 0.71738 0.33206 0.61535 0.0
C381 C 0.80089 0.30385 0.60043 0.0
C382 C 0.51746 0.03653 0.63963 0.0
C383 C 0.50626 0.0007 0.62902 0.0
H384 H 0.54671 0.07208 0.67741 0.0
C385 C 0.51772 0.97254 0.64907 0.0
H386 H 0.51017 0.05888 0.62432 0.0
C387 C 0.53974 0.98017 0.67912 0.0
C388 C 0.55005 0.01608 0.68993 0.0
H389 H 0.50934 0.94463 0.64186 0.0
H390 H 0.54797 0.95812 0.69432 0.0
C391 C 0.53876 0.04411 0.6699 0.0
C392 C 0.86994 0.28616 0.76843 0.0
C393 C 0.85363 0.25174 0.75899 0.0
H394 H 0.90932 0.31686 0.80127 0.0
C395 C 0.86789 0.22117 0.77242 0.0
H396 H 0.85951 0.31018 0.75854 0.0
C397 C 0.89556 0.22504 0.79739 0.0
C398 C 0.91021 0.25948 0.8087 0.0
H399 H 0.85658 0.19422 0.76479 0.0
H400 H 0.90484 0.20107 0.80861 0.0
C401 C 0.89828 0.28999 0.79298 0.0
C402 C 0.48483 0.93487 0.47978 0.0
C403 C 0.47663 0.92779 0.51558 0.0
H404 H 0.49547 0.91282 0.42729 0.0
C405 C 0.47389 0.89207 0.52634 0.0
H406 H 0.48728 0.96234 0.47107 0.0
C407 C 0.47808 0.86363 0.50124 0.0
C408 C 0.48573 0.87066 0.46521 0.0
H409 H 0.4675 0.88615 0.55389 0.0
H410 H 0.47512 0.8362 0.50996 0.0
C411 C 0.48963 0.90657 0.45486 0.0
C412 C 0.14102 0.24751 0.82076 0.0
C413 C 0.15876 0.27766 0.80537 0.0
H414 H 0.09458 0.2269 0.84929 0.0
C415 C 0.14264 0.31056 0.80674 0.0
H416 H 0.15291 0.22184 0.81994 0.0
C417 C 0.10969 0.31349 0.82338 0.0
C418 C 0.09188 0.28355 0.83897 0.0
H419 H 0.15528 0.33407 0.79439 0.0
H420 H 0.09809 0.3393 0.82371 0.0
C421 C 0.10783 0.25048 0.83764 0.0
C422 C 0.49371 0.64762 0.51343 0.0
C423 C 0.51056 0.61885 0.49642 0.0
H424 H 0.47279 0.69905 0.50827 0.0
C425 C 0.52116 0.62178 0.4603 0.0
H426 H 0.4862 0.6472 0.54145 0.0
C427 C 0.51476 0.6525 0.44175 0.0
C428 C 0.4967 0.68026 0.45864 0.0
H429 H 0.53371 0.60011 0.44599 0.0
H430 H 0.52283 0.654 0.41392 0.0
C431 C 0.48631 0.67762 0.49456 0.0
C432 C 0.8625 0.78588 0.77422 0.0
C433 C 0.85428 0.82186 0.78173 0.0
H434 H 0.89436 0.74987 0.74386 0.0
C435 C 0.87191 0.84925 0.76192 0.0
H436 H 0.84881 0.76373 0.78779 0.0
C437 C 0.89703 0.84088 0.73561 0.0
C438 C 0.90588 0.80514 0.72927 0.0
H439 H 0.86693 0.8773 0.76714 0.0
H440 H 0.9102 0.86249 0.72081 0.0
C441 C 0.88847 0.77774 0.74881 0.0
C442 C -0.00445 0.90995 0.51591 0.0
C443 C 0.01935 0.93881 0.52873 0.0
H444 H 0.96561 0.86057 0.52745 0.0
C445 C 0.03232 0.93837 0.56416 0.0
H446 H 0.98583 0.90835 0.48856 0.0
C447 C 0.0218 0.90983 0.58597 0.0
C448 C -0.00271 0.88186 0.57315 0.0
H449 H 0.05019 0.96025 0.57536 0.0
H450 H 0.03204 0.91012 0.61311 0.0
C451 C 0.98419 0.88221 0.53806 0.0
C452 C 0.14817 0.76006 0.72814 0.0
C453 C 0.15304 0.72674 0.74305 0.0
H454 H 0.11207 0.79269 0.70236 0.0
C455 C 0.12512 0.69937 0.74082 0.0
H456 H 0.16933 0.78163 0.72962 0.0
C457 C 0.09223 0.70588 0.72585 0.0
C458 C 0.08673 0.73977 0.71248 0.0
H459 H 0.12798 0.67364 0.75253 0.0
H460 H 0.07082 0.68457 0.72556 0.0
C461 C 0.11537 0.76645 0.71278 0.0
C462 C 0.98224 0.64054 0.54752 0.0
C463 C 0.95321 0.6383 0.52376 0.0
H464 H 0.0088 0.66969 0.59176 0.0
C465 C 0.92847 0.66479 0.52589 0.0
H466 H 0.00142 0.62014 0.54633 0.0
C467 C 0.93294 0.69349 0.55143 0.0
C468 C 0.96168 0.69541 0.57569 0.0
H469 H 0.90586 0.66332 0.50771 0.0
H470 H 0.91366 0.71377 0.5526 0.0
C471 C 0.98624 0.66867 0.57355 0.0
C472 C 0.7997 0.85294 0.24381 0.0
C473 C 0.78503 0.83769 0.27495 0.0
H474 H 0.82852 0.89847 0.22126 0.0
C475 C 0.79062 0.85681 0.30818 0.0
H476 H 0.79544 0.83953 0.21763 0.0
C477 C 0.80816 0.89129 0.30988 0.0
C478 C 0.82154 0.90682 0.27859 0.0
H479 H 0.78046 0.8456 0.3328 0.0
H480 H 0.81121 0.90584 0.33567 0.0
C481 C 0.81821 0.88699 0.24573 0.0
C482 C 0.74402 0.13465 0.31755 0.0
C483 C 0.74623 0.15476 0.28664 0.0
H484 H 0.76244 0.09069 0.34517 0.0
C485 C 0.76803 0.14384 0.25807 0.0
H486 H 0.72716 0.1424 0.33982 0.0
C487 C 0.78866 0.11423 0.2612 0.0
C488 C 0.78746 0.09497 0.29282 0.0
H489 H 0.77024 0.15909 0.23403 0.0
H490 H 0.80611 0.10697 0.23927 0.0
C491 C 0.76428 0.10505 0.32057 0.0
C492 C 0.37352 0.01006 0.01442 0.0
C493 C 0.37878 0.02768 0.98223 0.0
H494 H 0.34215 0.96995 0.04252 0.0
C495 C 0.35508 0.01936 0.95352 0.0
H496 H 0.39175 0.01609 0.03676 0.0
C497 C 0.32634 0.99355 0.95698 0.0
C498 C 0.3216 0.97514 0.98889 0.0
H499 H 0.3589 0.03277 0.92848 0.0
H500 H 0.30846 0.98729 0.93441 0.0
C501 C 0.34535 0.98368 0.0176 0.0
C502 C 0.24915 0.41516 0.35666 0.0
C503 C 0.25561 0.3923 0.32668 0.0
H504 H 0.22191 0.45994 0.37777 0.0
C505 C 0.23808 0.3972 0.29422 0.0
H506 H 0.26251 0.41217 0.38194 0.0
C507 C 0.21447 0.42445 0.29186 0.0
C508 C 0.20841 0.44759 0.32179 0.0
H509 H 0.24238 0.37977 0.27077 0.0
H510 H 0.20137 0.4277 0.26651 0.0
C511 C 0.226 0.4426 0.3542 0.0
C512 C 0.118 0.05451 0.52117 0.0
C513 C 0.11092 0.03427 0.48902 0.0
H514 H 0.1536 0.0934 0.54962 0.0
C515 C 0.13583 0.03629 0.46087 0.0
H516 H 0.0989 0.05348 0.54304 0.0
C517 C 0.16739 0.05868 0.46476 0.0
C518 C 0.17385 0.07998 0.49649 0.0
H519 H 0.13063 0.02087 0.43582 0.0
H520 H 0.18615 0.06019 0.44263 0.0
C521 C 0.14905 0.07748 0.52476 0.0
C522 C 0.72741 0.1854 0.78176 0.0
C523 C 0.73179 0.19069 0.74483 0.0
H524 H 0.70524 0.15129 0.82213 0.0
C525 C 0.71324 0.16652 0.72008 0.0
H526 H 0.74053 0.20407 0.80161 0.0
C527 C 0.69231 0.1367 0.732 0.0
C528 C 0.69011 0.13023 0.76879 0.0
H529 H 0.71624 0.1696 0.69149 0.0
H530 H 0.67907 0.1179 0.71233 0.0
C531 C 0.70725 0.1552 0.79358 0.0
C532 C 0.38848 0.05179 0.57095 0.0
C533 C 0.41186 0.03717 0.54555 0.0
H534 H 0.34415 0.08428 0.58017 0.0
C535 C 0.40962 0.04661 0.50963 0.0
H536 H 0.38941 0.04492 0.59879 0.0
C537 C 0.38351 0.06858 0.49898 0.0
C538 C 0.35936 0.08213 0.52406 0.0
H539 H 0.42786 0.03669 0.48956 0.0
H540 H 0.382 0.0746 0.47092 0.0
C541 C 0.36254 0.07425 0.5603 0.0
C542 C 0.59225 0.50682 0.48276 0.0
C543 C 0.58268 0.5133 0.5188 0.0
H544 H 0.62712 0.4813 0.44582 0.0
C545 C 0.60194 0.49791 0.54576 0.0
H546 H 0.5776 0.51767 0.46129 0.0
C547 C 0.63 0.47644 0.53682 0.0
C548 C 0.63959 0.47025 0.50079 0.0
H549 H 0.59563 0.50276 0.57383 0.0
H550 H 0.64448 0.46516 0.55815 0.0
C551 C 0.62046 0.48569 0.47387 0.0
C552 C 0.7541 0.27852 0.36587 0.0
C553 C 0.72097 0.27201 0.34818 0.0
H554 H 0.78344 0.30684 0.40906 0.0
C555 C 0.69137 0.28951 0.36163 0.0
H556 H 0.77755 0.26589 0.35605 0.0
C557 C 0.695 0.31356 0.39141 0.0
C558 C 0.72807 0.32 0.40895 0.0
H559 H 0.66518 0.28441 0.34944 0.0
H560 H 0.6718 0.32687 0.40093 0.0
C561 C 0.75752 0.30202 0.39619 0.0
C562 C 0.48965 0.05107 0.89124 0.0
C563 C 0.49756 0.06017 0.9274 0.0
H564 H 0.51017 0.0384 0.83906 0.0
C565 C 0.53328 0.06173 0.9391 0.0
H566 H 0.46234 0.04983 0.88153 0.0
C567 C 0.56073 0.05492 0.91486 0.0
C568 C 0.55293 0.04688 0.87843 0.0
H569 H 0.53997 0.0683 0.96699 0.0
H570 H 0.58809 0.05686 0.92449 0.0
C571 C 0.51707 0.04467 0.86695 0.0
C572 C 0.28418 0.297 0.42536 0.0
C573 C 0.2971 0.28756 0.39098 0.0
H574 H 0.26793 0.27874 0.47708 0.0
C575 C 0.30405 0.25143 0.38297 0.0
H576 H 0.27884 0.32462 0.43258 0.0
C577 C 0.29846 0.22549 0.4085 0.0
C578 C 0.28516 0.23472 0.44267 0.0
H579 H 0.31309 0.24282 0.35656 0.0
H580 H 0.30383 0.19792 0.40105 0.0
C581 C 0.27811 0.27078 0.45092 0.0
C582 C 0.48626 0.52685 0.90008 0.0
C583 C 0.50628 0.49647 0.8991 0.0
H584 H 0.44605 0.55458 0.87443 0.0
C585 C 0.50303 0.47154 0.86979 0.0
H586 H 0.48855 0.54631 0.92266 0.0
C587 C 0.47939 0.47654 0.84195 0.0
C588 C 0.45811 0.50616 0.84347 0.0
H589 H 0.51836 0.44796 0.86875 0.0
H590 H 0.47672 0.4564 0.81998 0.0
C591 C 0.46208 0.53152 0.87259 0.0
C592 C 0.70673 0.72788 0.18049 0.0
C593 C 0.73684 0.72928 0.20299 0.0
H594 H 0.6848 0.71387 0.12865 0.0
C595 C 0.76814 0.71448 0.1901 0.0
H596 H 0.68243 0.73968 0.18922 0.0
C597 C 0.76962 0.69983 0.15489 0.0
C598 C 0.73993 0.70014 0.13203 0.0
H599 H 0.79173 0.7152 0.2069 0.0
H600 H 0.79431 0.68948 0.14524 0.0
C601 C 0.70827 0.71351 0.14549 0.0
C602 C 0.96637 0.06355 0.13068 0.0
C603 C 0.98004 0.03543 0.1094 0.0
H604 H 0.93779 0.07828 0.17846 0.0
C605 C 0.97364 -0.00024 0.12006 0.0
H606 H 0.9711 0.0914 0.12358 0.0
C607 C 0.95551 0.99251 0.15186 0.0
C608 C 0.94253 0.02062 0.17334 0.0
H609 H 0.98272 0.97728 0.10391 0.0
H610 H 0.95161 0.96478 0.15964 0.0
C611 C 0.94744 0.05614 0.1622 0.0
C612 C 0.24511 0.79491 0.15208 0.0
C613 C 0.27742 0.77991 0.1597 0.0
H614 H 0.21688 0.82623 0.1163 0.0
C615 C 0.30625 0.78463 0.13583 0.0
H616 H 0.22252 0.79183 0.17016 0.0
C617 C 0.30306 0.80418 0.1052 0.0
C618 C 0.27099 0.81963 0.09771 0.0
H619 H 0.3313 0.77294 0.14071 0.0
H620 H 0.32591 0.80728 0.08745 0.0
C621 C 0.24196 0.81473 0.1214 0.0
C622 C 0.00423 0.46217 0.15226 0.0
C623 C 0.99212 0.48797 0.12966 0.0
H624 H 0.0371 0.45234 0.19723 0.0
C625 C 0.0052 0.52424 0.13504 0.0
H626 H -0.00551 0.43403 0.14898 0.0
C627 C 0.02897 0.53466 0.16286 0.0
C628 C 0.04075 0.50902 0.18562 0.0
H629 H -0.00264 0.54468 0.11756 0.0
H630 H 0.03826 0.56292 0.16642 0.0
C631 C 0.02855 0.47259 0.17989 0.0
C632 C 0.36592 0.78925 0.2732 0.0
C633 C 0.35015 0.75396 0.26695 0.0
H634 H 0.40632 0.82335 0.3014 0.0
C635 C 0.36473 0.72542 0.28401 0.0
H636 H 0.35524 0.81194 0.26092 0.0
C637 C 0.39297 0.73222 0.30817 0.0
C638 C 0.40811 0.76749 0.31481 0.0
H639 H 0.35418 0.69773 0.27899 0.0
H640 H 0.40319 0.70984 0.32145 0.0
C641 C 0.39496 0.79587 0.29659 0.0
C642 C 0.92511 0.37889 0.01663 0.0
C643 C 0.95334 0.40462 0.0259 0.0
H644 H 0.90836 0.3311 0.98484 0.0
C645 C 0.98723 0.40126 0.01058 0.0
H646 H 0.89877 0.38108 0.02821 0.0
C647 C -0.00742 0.37322 0.98549 0.0
C648 C 0.96428 0.34771 0.97573 0.0
H649 H 0.00929 0.42102 0.01714 0.0
H650 H 0.01883 0.37172 0.97348 0.0
C651 C 0.93065 0.35036 0.992 0.0
C652 C 0.65019 0.81407 0.29834 0.0
C653 C 0.66528 0.78095 0.30131 0.0
H654 H 0.60571 0.84516 0.30953 0.0
C655 C 0.64587 0.7528 0.31829 0.0
H656 H 0.66438 0.83597 0.28474 0.0
C657 C 0.61201 0.75811 0.33275 0.0
C658 C 0.59706 0.79141 0.32978 0.0
H659 H 0.65701 0.72699 0.32064 0.0
H660 H 0.5975 0.73616 0.34595 0.0
C661 C 0.61647 0.81922 0.31233 0.0
C662 C 0.96757 0.11146 0.99243 0.0
C663 C 0.00361 0.10687 -8e-05 0.0
H664 H 0.9303 0.14296 0.96733 0.0
C665 C 0.03036 0.13073 0.98568 0.0
H666 H 0.94636 0.09311 0.00236 0.0
C667 C 0.02115 0.15912 0.96516 0.0
C668 C 0.98503 0.16427 0.95865 0.0
H669 H 0.05837 0.12808 0.99122 0.0
H670 H 0.04228 0.17753 0.95517 0.0
C671 C 0.95838 0.13991 0.97214 0.0
C672 C 0.37527 0.35476 0.25883 0.0
C673 C 0.36052 0.32666 0.27964 0.0
H674 H 0.41117 0.37002 0.21624 0.0
C675 C 0.37232 0.29181 0.27322 0.0
H676 H 0.3675 0.38206 0.26317 0.0
C677 C 0.39841 0.28541 0.24744 0.0
C678 C 0.41251 0.31331 0.22643 0.0
H679 H 0.36098 0.26903 0.28755 0.0
H680 H 0.40665 0.25824 0.2431 0.0
C681 C 0.4006 0.34802 0.23215 0.0
C682 C 0.54913 0.41267 0.0294 0.0
C683 C 0.52522 0.43327 0.01171 0.0
H684 H 0.55549 0.37195 0.06717 0.0
C685 C 0.48859 0.42887 0.02004 0.0
H686 H 0.57748 0.41518 0.0234 0.0
C687 C 0.47602 0.40394 0.04478 0.0
C688 C 0.4998 0.38301 0.06205 0.0
H689 H 0.46953 0.44486 0.00759 0.0
H690 H 0.44756 0.40101 0.05025 0.0
C691 C 0.53654 0.38787 0.05443 0.0
C692 C 0.65236 0.26573 0.22096 0.0
C693 C 0.65604 0.23214 0.23585 0.0
H694 H 0.61767 0.29944 0.19464 0.0
C695 C 0.62768 0.2053 0.23258 0.0
H696 H 0.67389 0.28688 0.22315 0.0
C697 C 0.59545 0.21264 0.21684 0.0
C698 C 0.59101 0.24687 0.20374 0.0
H699 H 0.62959 0.17936 0.2442 0.0
H700 H 0.57362 0.19175 0.21591 0.0
C701 C 0.62017 0.27297 0.20484 0.0
C702 C 0.48032 0.14434 0.04695 0.0
C703 C 0.44998 0.13965 0.02489 0.0
H704 H 0.50854 0.17688 0.08784 0.0
C705 C 0.42428 0.16524 0.02707 0.0
H706 H 0.50032 0.12476 0.04583 0.0
C707 C 0.42913 0.19544 0.05082 0.0
C708 C 0.45937 0.19993 0.07319 0.0
H709 H 0.4007 0.16204 0.01014 0.0
H710 H 0.40911 0.21499 0.05197 0.0
C711 C 0.48483 0.17403 0.07109 0.0
C712 C 0.28594 0.35466 0.73865 0.0
C713 C 0.27409 0.34036 0.77125 0.0
H714 H 0.31374 0.39851 0.71272 0.0
C715 C 0.28179 0.36062 0.80346 0.0
H716 H 0.27959 0.34049 0.71319 0.0
C717 C 0.30032 0.39463 0.80298 0.0
C718 C 0.31208 0.40866 0.77034 0.0
H719 H 0.27332 0.35031 0.82904 0.0
H720 H 0.30594 0.40969 0.82816 0.0
C721 C 0.30505 0.38823 0.73826 0.0
C722 C 0.26839 0.64261 0.75735 0.0
C723 C 0.24999 0.65355 0.78838 0.0
H724 H 0.30502 0.60643 0.73406 0.0
C725 C 0.25294 0.63439 0.81963 0.0
H726 H 0.26665 0.65705 0.73296 0.0
C727 C 0.27479 0.60576 0.82036 0.0
C728 C 0.29432 0.59551 0.78983 0.0
H729 H 0.23868 0.64194 0.84381 0.0
H730 H 0.27675 0.59201 0.84515 0.0
C731 C 0.29051 0.61387 0.7581 0.0
C732 C 0.85856 0.51965 0.4513 0.0
C733 C 0.88282 0.52655 0.47975 0.0
H734 H 0.81095 0.48937 0.43216 0.0
C735 C 0.87772 0.50795 0.51139 0.0
H736 H 0.86219 0.53389 0.42672 0.0
C737 C 0.849 0.48212 0.5143 0.0
C738 C 0.82456 0.47516 0.4859 0.0
H739 H 0.89635 0.51297 0.53354 0.0
H740 H 0.84581 0.46772 0.53882 0.0
C741 C 0.82933 0.4944 0.45451 0.0
C742 C 0.74044 0.90385 0.80365 0.0
C743 C 0.76076 0.89951 0.83454 0.0
H744 H 0.70264 0.93487 0.77821 0.0
C745 C 0.75874 0.92446 0.8638 0.0
H746 H 0.74127 0.88483 0.78081 0.0
C747 C 0.73683 0.9531 0.86229 0.0
C748 C 0.71614 0.95726 0.8316 0.0
H749 H 0.77432 0.92194 0.88784 0.0
H750 H 0.73595 0.97184 0.88534 0.0
C751 C 0.71817 0.93234 0.80227 0.0
C752 C 0.64052 0.5364 0.94681 0.0
C753 C 0.61422 0.53134 0.97339 0.0
H754 H 0.69075 0.56355 0.93262 0.0
C755 C 0.61854 0.55026 0.00667 0.0
H756 H 0.63768 0.52194 0.92096 0.0
C757 C 0.64845 0.57424 0.01318 0.0
C758 C 0.67485 0.57942 0.98668 0.0
H759 H 0.5984 0.54703 0.02741 0.0
H760 H 0.6509 0.58864 0.03909 0.0
C761 C 0.67081 0.56006 0.95351 0.0
C762 C 0.22697 0.67603 0.27888 0.0
C763 C 0.23377 0.68303 0.24262 0.0
H764 H 0.2019 0.64022 0.31628 0.0
C765 C 0.21789 0.6592 0.21585 0.0
H766 H 0.23795 0.69428 0.30023 0.0
C767 C 0.19647 0.62866 0.22517 0.0
C768 C 0.19114 0.62102 0.26139 0.0
H769 H 0.22289 0.66344 0.18771 0.0
H770 H 0.18482 0.61054 0.20403 0.0
C771 C 0.20634 0.64508 0.28815 0.0
C772 C 0.89179 0.52543 0.01221 0.0
C773 C 0.89361 0.51859 0.04885 0.0
H774 H 0.86896 0.55539 0.97184 0.0
C775 C 0.87331 0.53837 0.07343 0.0
H776 H 0.90772 0.5113 0.99267 0.0
C777 C 0.85133 0.56414 0.06149 0.0
C778 C 0.84927 0.57056 0.02476 0.0
H779 H 0.87407 0.53362 0.10182 0.0
H780 H 0.83561 0.57862 0.08095 0.0
C781 C 0.86984 0.55103 0.00031 0.0
C782 C 0.08686 -0.00355 0.99053 0.0
C783 C 0.08092 0.00688 0.02663 0.0
H784 H 0.11903 0.96819 0.95295 0.0
C785 C 0.10351 -0.00483 0.05309 0.0
H786 H 0.06955 0.00423 0.96951 0.0
C787 C 0.13142 0.97369 0.04361 0.0
C788 C 0.13762 0.96397 0.00746 0.0
H789 H 0.10008 0.00309 0.08111 0.0
H790 H 0.14864 0.96547 0.0645 0.0
C791 C 0.11503 0.97548 0.98105 0.0
loop_
_geom_bond_atom_site_label_1
_geom_bond_atom_site_label_2
_geom_bond_distance
_geom_bond_site_symmetry_2
_ccdc_geom_bond_type
H0 C3 0.931 . S
H1 C6 0.928 . S
H2 C8 0.930 . S
C3 H0 0.931 . S
C3 C4 1.413 . S
C3 C5 1.360 . S
C4 C3 1.413 . S
C4 C8 1.429 . S
C5 C3 1.360 . S
C5 C6 1.372 . S
C6 H1 0.928 . S
C6 C5 1.372 . S
C6 C7 1.404 . S
C7 C6 1.404 . S
C7 C8 1.391 . S
C8 H2 0.930 . S
C8 C4 1.429 . S
C8 C7 1.391 . S
H9 C12 0.931 . S
H10 C15 0.928 . S
H11 C17 0.930 . S
C12 H9 0.931 . S
C12 C13 1.413 . S
C12 C14 1.360 . S
C13 C12 1.413 . S
C13 C17 1.429 . S
C14 C12 1.360 . S
C14 C15 1.372 . S
C15 H10 0.928 . S
C15 C14 1.372 . S
C15 C16 1.404 . S
C16 C15 1.404 . S
C16 C17 1.391 . S
C17 H11 0.930 . S
C17 C13 1.429 . S
C17 C16 1.391 . S
H18 C21 0.931 . S
H19 C24 0.928 . S
H20 C26 0.930 . S
C21 H18 0.931 . S
C21 C22 1.413 . S
C21 C23 1.360 . S
C22 C21 1.413 . S
C22 C26 1.429 . S
C23 C21 1.360 . S
C23 C24 1.372 . S
C24 H19 0.928 . S
C24 C23 1.372 . S
C24 C25 1.404 . S
C25 C24 1.404 . S
C25 C26 1.391 . S
C26 H20 0.930 . S
C26 C22 1.429 . S
C26 C25 1.391 . S
H27 C30 0.931 . S
H28 C33 0.928 . S
H29 C35 0.930 . S
C30 H27 0.931 . S
C30 C31 1.413 . S
C30 C32 1.360 . S
C31 C30 1.413 . S
C31 C35 1.429 . S
C32 C30 1.360 . S
C32 C33 1.372 . S
C33 H28 0.928 . S
C33 C32 1.372 . S
C33 C34 1.404 . S
C34 C33 1.404 . S
C34 C35 1.391 . S
C35 H29 0.930 . S
C35 C31 1.429 . S
C35 C34 1.391 . S
H36 C39 0.931 . S
H37 C42 0.928 1_545 S
H38 C44 0.930 . S
C39 H36 0.931 . S
C39 C40 1.413 . S
C39 C41 1.360 . S
C40 C39 1.413 . S
C40 C44 1.429 . S
C41 C39 1.360 . S
C41 C42 1.372 . S
C42 H37 0.928 1_565 S
C42 C41 1.372 . S
C42 C43 1.404 . S
C43 C42 1.404 . S
C43 C44 1.391 . S
C44 H38 0.930 . S
C44 C40 1.429 . S
C44 C43 1.391 . S
H45 C48 0.931 . S
H46 C51 0.928 . S
H47 C53 0.930 . S
C48 H45 0.931 . S
C48 C49 1.413 . S
C48 C50 1.360 . S
C49 C48 1.413 . S
C49 C53 1.429 . S
C50 C48 1.360 . S
C50 C51 1.372 . S
C51 H46 0.928 . S
C51 C50 1.372 . S
C51 C52 1.404 . S
C52 C51 1.404 . S
C52 C53 1.391 . S
C53 H47 0.930 . S
C53 C49 1.429 . S
C53 C52 1.391 . S
H54 C57 0.931 . S
H55 C60 0.928 . S
H56 C62 0.930 . S
C57 H54 0.931 . S
C57 C58 1.413 . S
C57 C59 1.360 . S
C58 C57 1.413 . S
C58 C62 1.429 . S
C59 C57 1.360 . S
C59 C60 1.372 . S
C60 H55 0.928 . S
C60 C59 1.372 . S
C60 C61 1.404 . S
C61 C60 1.404 . S
C61 C62 1.391 . S
C62 H56 0.930 . S
C62 C58 1.429 . S
C62 C61 1.391 . S
H63 C66 0.931 . S
H64 C69 0.928 . S
H65 C71 0.930 . S
C66 H63 0.931 . S
C66 C67 1.413 . S
C66 C68 1.360 . S
C67 C66 1.413 . S
C67 C71 1.429 . S
C68 C66 1.360 . S
C68 C69 1.372 . S
C69 H64 0.928 . S
C69 C68 1.372 . S
C69 C70 1.404 . S
C70 C69 1.404 . S
C70 C71 1.391 . S
C71 H65 0.930 . S
C71 C67 1.429 . S
C71 C70 1.391 . S
H72 C75 0.931 . S
H73 C78 0.928 . S
H74 C80 0.930 . S
C75 H72 0.931 . S
C75 C76 1.413 . S
C75 C77 1.360 . S
C76 C75 1.413 . S
C76 C80 1.429 . S
C77 C75 1.360 . S
C77 C78 1.372 . S
C78 H73 0.928 . S
C78 C77 1.372 . S
C78 C79 1.404 . S
C79 C78 1.404 . S
C79 C80 1.391 . S
C80 H74 0.930 . S
C80 C76 1.429 . S
C80 C79 1.391 . S
H81 C84 0.931 . S
H82 C87 0.928 . S
H83 C89 0.930 . S
C84 H81 0.931 . S
C84 C85 1.413 . S
C84 C86 1.360 . S
C85 C84 1.413 . S
C85 C89 1.429 . S
C86 C84 1.360 . S
C86 C87 1.372 . S
C87 H82 0.928 . S
C87 C86 1.372 . S
C87 C88 1.404 . S
C88 C87 1.404 . S
C88 C89 1.391 . S
C89 H83 0.930 . S
C89 C85 1.429 . S
C89 C88 1.391 . S
H90 C93 0.931 . S
H91 C96 0.928 . S
H92 C98 0.930 . S
C93 H90 0.931 . S
C93 C94 1.413 . S
C93 C95 1.360 . S
C94 C93 1.413 . S
C94 C98 1.429 . S
C95 C93 1.360 . S
C95 C96 1.372 . S
C96 H91 0.928 . S
C96 C95 1.372 . S
C96 C97 1.404 . S
C97 C96 1.404 . S
C97 C98 1.391 . S
C98 H92 0.930 . S
C98 C94 1.429 . S
C98 C97 1.391 . S
H99 C102 0.931 . S
H100 C105 0.928 . S
H101 C107 0.930 . S
C102 H99 0.931 . S
C102 C103 1.413 . S
C102 C104 1.360 . S
C103 C102 1.413 . S
C103 C107 1.429 . S
C104 C102 1.360 . S
C104 C105 1.372 . S
C105 H100 0.928 . S
C105 C104 1.372 . S
C105 C106 1.404 . S
C106 C105 1.404 . S
C106 C107 1.391 . S
C107 H101 0.930 . S
C107 C103 1.429 . S
C107 C106 1.391 . S
H108 C111 0.931 . S
H109 C114 0.928 . S
H110 C116 0.930 . S
C111 H108 0.931 . S
C111 C112 1.413 . S
C111 C113 1.360 . S
C112 C111 1.413 . S
C112 C116 1.429 . S
C113 C111 1.360 . S
C113 C114 1.372 . S
C114 H109 0.928 . S
C114 C113 1.372 . S
C114 C115 1.404 . S
C115 C114 1.404 . S
C115 C116 1.391 . S
C116 H110 0.930 . S
C116 C112 1.429 . S
C116 C115 1.391 . S
H117 C120 0.931 . S
H118 C123 0.928 . S
H119 C125 0.930 . S
C120 H117 0.931 . S
C120 C121 1.413 . S
C120 C122 1.360 . S
C121 C120 1.413 . S
C121 C125 1.429 . S
C122 C120 1.360 . S
C122 C123 1.372 . S
C123 H118 0.928 . S
C123 C122 1.372 . S
C123 C124 1.404 . S
C124 C123 1.404 . S
C124 C125 1.391 . S
C125 H119 0.930 . S
C125 C121 1.429 . S
C125 C124 1.391 . S
H126 C129 0.931 . S
H127 C132 0.928 . S
H128 C134 0.930 . S
C129 H126 0.931 . S
C129 C130 1.413 . S
C129 C131 1.360 . S
C130 C129 1.413 . S
C130 C134 1.429 . S
C131 C129 1.360 . S
C131 C132 1.372 . S
C132 H127 0.928 . S
C132 C131 1.372 . S
C132 C133 1.404 . S
C133 C132 1.404 . S
C133 C134 1.391 . S
C134 H128 0.930 . S
C134 C130 1.429 . S
C134 C133 1.391 . S
H135 C138 0.931 . S
H136 C141 0.928 . S
H137 C143 0.930 . S
C138 H135 0.931 . S
C138 C139 1.413 . S
C138 C140 1.360 . S
C139 C138 1.413 . S
C139 C143 1.429 . S
C140 C138 1.360 . S
C140 C141 1.372 . S
C141 H136 0.928 . S
C141 C140 1.372 . S
C141 C142 1.404 . S
C142 C141 1.404 . S
C142 C143 1.391 . S
C143 H137 0.930 . S
C143 C139 1.429 . S
C143 C142 1.391 . S
O144 Cd145 2.223 . S
O144 C152 1.309 1_554 S
Cd145 O144 2.223 . S
Cd145 O148 2.297 . S
Cd145 O149 2.439 . S
Cd145 O155 2.240 . S
Cd146 O147 2.240 . S
Cd146 O154 2.223 1_554 S
Cd146 O156 2.297 . S
Cd146 O157 2.439 . S
O147 Cd146 2.240 . S
O147 C152 1.266 1_554 S
O148 Cd145 2.297 . S
O148 C150 1.247 . S
O149 Cd145 2.439 . S
O149 C150 1.208 . S
C150 O148 1.247 . S
C150 O149 1.208 . S
C151 O156 1.247 . S
C151 O157 1.208 . S
C152 O144 1.309 1_556 S
C152 O147 1.266 1_556 S
C153 O154 1.315 1_554 S
C153 O155 1.279 . S
O154 Cd146 2.223 1_556 S
O154 C153 1.315 1_556 S
O155 Cd145 2.240 . S
O155 C153 1.279 . S
O156 Cd146 2.297 . S
O156 C151 1.247 . S
O157 Cd146 2.439 . S
O157 C151 1.208 . S
O158 Cd159 2.223 . S
O158 C166 1.315 . S
Cd159 O158 2.223 . S
Cd159 O162 2.297 . S
Cd159 O163 2.439 . S
Cd159 O169 2.240 . S
Cd160 O161 2.240 . S
Cd160 O168 2.223 . S
Cd160 O170 2.297 . S
Cd160 O171 2.439 . S
O161 Cd160 2.240 . S
O161 C166 1.279 . S
O162 Cd159 2.297 . S
O162 C164 1.247 . S
O163 Cd159 2.439 . S
O163 C164 1.208 . S
C164 O162 1.247 . S
C164 O163 1.208 . S
C165 O170 1.247 . S
C165 O171 1.208 . S
C166 O158 1.315 . S
C166 O161 1.279 . S
C167 O168 1.315 . S
C167 O169 1.279 . S
O168 Cd160 2.223 . S
O168 C167 1.315 . S
O169 Cd159 2.240 . S
O169 C167 1.279 . S
O170 Cd160 2.297 . S
O170 C165 1.247 . S
O171 Cd160 2.439 . S
O171 C165 1.208 . S
O172 Cd173 2.223 1_556 S
O172 C180 1.315 . S
Cd173 O172 2.223 1_554 S
Cd173 O176 2.297 . S
Cd173 O177 2.439 . S
Cd173 O183 2.240 . S
Cd174 O175 2.240 . S
Cd174 O182 2.223 . S
Cd174 O184 2.304 . S
Cd174 O185 2.439 1_556 S
O175 Cd174 2.240 . S
O175 C180 1.279 . S
O176 Cd173 2.297 . S
O176 C178 1.247 . S
O177 Cd173 2.439 . S
O177 C178 1.208 . S
C178 O176 1.247 . S
C178 O177 1.208 . S
C179 O184 1.230 1_554 S
C179 O185 1.208 . S
C180 O172 1.315 . S
C180 O175 1.279 . S
C181 O182 1.315 . S
C181 O183 1.279 1_556 S
O182 Cd174 2.223 . S
O182 C181 1.315 . S
O183 Cd173 2.240 . S
O183 C181 1.279 1_554 S
O184 Cd174 2.304 . S
O184 C179 1.230 1_556 S
O185 Cd174 2.439 1_554 S
O185 C179 1.208 . S
O186 Cd187 2.223 1_565 S
O186 C194 1.315 1_565 S
Cd187 O186 2.223 1_545 S
Cd187 O190 2.297 . S
Cd187 O191 2.439 . S
Cd187 O197 2.240 . S
Cd188 O189 2.240 . S
Cd188 O196 2.223 . S
Cd188 O198 2.297 . S
Cd188 O199 2.439 . S
O189 Cd188 2.240 . S
O189 C194 1.279 . S
O190 Cd187 2.297 . S
O190 C192 1.247 . S
O191 Cd187 2.439 . S
O191 C192 1.208 . S
C192 O190 1.247 . S
C192 O191 1.208 . S
C193 O198 1.247 . S
C193 O199 1.208 . S
C194 O186 1.315 1_545 S
C194 O189 1.279 . S
C195 O196 1.314 1_565 S
C195 O197 1.276 1_565 S
O196 Cd188 2.223 . S
O196 C195 1.314 1_545 S
O197 Cd187 2.240 . S
O197 C195 1.276 1_545 S
O198 Cd188 2.297 . S
O198 C193 1.247 . S
O199 Cd188 2.439 . S
O199 C193 1.208 . S
O200 Cd201 2.223 . S
O200 C208 1.315 . S
Cd201 O200 2.223 . S
Cd201 O204 2.297 . S
Cd201 O205 2.439 . S
Cd201 O211 2.240 . S
Cd202 O203 2.240 . S
Cd202 O210 2.223 . S
Cd202 O212 2.297 . S
Cd202 O213 2.439 . S
O203 Cd202 2.240 . S
O203 C208 1.279 . S
O204 Cd201 2.297 . S
O204 C206 1.247 . S
O205 Cd201 2.439 . S
O205 C206 1.208 . S
C206 O204 1.247 . S
C206 O205 1.208 . S
C207 O212 1.247 . S
C207 O213 1.208 . S
C208 O200 1.315 . S
C208 O203 1.279 . S
C209 O210 1.315 . S
C209 O211 1.279 . S
O210 Cd202 2.223 . S
O210 C209 1.315 . S
O211 Cd201 2.240 . S
O211 C209 1.279 . S
O212 Cd202 2.297 . S
O212 C207 1.247 . S
O213 Cd202 2.439 . S
O213 C207 1.208 . S
O214 Cd215 2.223 . S
O214 C222 1.315 . S
Cd215 O214 2.223 . S
Cd215 O218 2.297 . S
Cd215 O219 2.439 . S
Cd215 O225 2.240 . S
Cd216 O217 2.240 . S
Cd216 O224 2.223 . S
Cd216 O226 2.297 . S
Cd216 O227 2.439 . S
O217 Cd216 2.240 . S
O217 C222 1.279 . S
O218 Cd215 2.297 . S
O218 C220 1.247 . S
O219 Cd215 2.439 . S
O219 C220 1.208 . S
C220 O218 1.247 . S
C220 O219 1.208 . S
C221 O226 1.247 . S
C221 O227 1.208 . S
C222 O214 1.315 . S
C222 O217 1.279 . S
C223 O224 1.315 . S
C223 O225 1.279 . S
O224 Cd216 2.223 . S
O224 C223 1.315 . S
O225 Cd215 2.240 . S
O225 C223 1.279 . S
O226 Cd216 2.297 . S
O226 C221 1.247 . S
O227 Cd216 2.439 . S
O227 C221 1.208 . S
O228 Cd229 2.223 . S
O228 C236 1.315 . S
Cd229 O228 2.223 . S
Cd229 O232 2.297 . S
Cd229 O233 2.439 . S
Cd229 O239 2.240 . S
Cd230 O231 2.240 . S
Cd230 O238 2.223 . S
Cd230 O240 2.297 . S
Cd230 O241 2.439 . S
O231 Cd230 2.240 . S
O231 C236 1.279 . S
O232 Cd229 2.297 . S
O232 C234 1.247 . S
O233 Cd229 2.439 . S
O233 C234 1.208 . S
C234 O232 1.247 . S
C234 O233 1.208 . S
C235 O240 1.247 . S
C235 O241 1.208 . S
C236 O228 1.315 . S
C236 O231 1.279 . S
C237 O238 1.315 . S
C237 O239 1.279 . S
O238 Cd230 2.223 . S
O238 C237 1.315 . S
O239 Cd229 2.240 . S
O239 C237 1.279 . S
O240 Cd230 2.297 . S
O240 C235 1.247 . S
O241 Cd230 2.439 . S
O241 C235 1.208 . S
O242 Cd243 2.223 1_545 S
O242 C250 1.315 . S
Cd243 O242 2.223 1_565 S
Cd243 O246 2.297 . S
Cd243 O247 2.439 . S
Cd243 O253 2.240 1_565 S
Cd244 O245 2.240 . S
Cd244 O252 2.223 . S
Cd244 O254 2.297 . S
Cd244 O255 2.439 1_545 S
O245 Cd244 2.240 . S
O245 C250 1.279 . S
O246 Cd243 2.297 . S
O246 C248 1.247 . S
O247 Cd243 2.439 . S
O247 C248 1.208 . S
C248 O246 1.247 . S
C248 O247 1.208 . S
C249 O254 1.247 1_565 S
C249 O255 1.208 . S
C250 O242 1.315 . S
C250 O245 1.279 . S
C251 O252 1.315 . S
C251 O253 1.279 . S
O252 Cd244 2.223 . S
O252 C251 1.315 . S
O253 Cd243 2.240 1_545 S
O253 C251 1.279 . S
O254 Cd244 2.297 . S
O254 C249 1.247 1_545 S
O255 Cd244 2.439 1_565 S
O255 C249 1.208 . S
O256 Cd257 2.223 . S
O256 C264 1.315 . S
Cd257 O256 2.223 . S
Cd257 O260 2.297 1_655 S
Cd257 O261 2.439 1_655 S
Cd257 O267 2.240 . S
Cd258 O259 2.240 . S
Cd258 O266 2.223 1_455 S
Cd258 O268 2.297 . S
Cd258 O269 2.439 . S
O259 Cd258 2.240 . S
O259 C264 1.279 1_455 S
O260 Cd257 2.297 1_455 S
O260 C262 1.247 . S
O261 Cd257 2.439 1_455 S
O261 C262 1.208 . S
C262 O260 1.247 . S
C262 O261 1.208 . S
C263 O268 1.247 . S
C263 O269 1.208 . S
C264 O256 1.315 . S
C264 O259 1.279 1_655 S
C265 O266 1.315 . S
C265 O267 1.279 . S
O266 Cd258 2.223 1_655 S
O266 C265 1.315 . S
O267 Cd257 2.240 . S
O267 C265 1.279 . S
O268 Cd258 2.297 . S
O268 C263 1.247 . S
O269 Cd258 2.439 . S
O269 C263 1.208 . S
O270 Cd271 2.223 . S
O270 C278 1.315 . S
Cd271 O270 2.223 . S
Cd271 O274 2.297 . S
Cd271 O275 2.439 . S
Cd271 O281 2.240 . S
Cd272 O273 2.240 . S
Cd272 O280 2.223 . S
Cd272 O282 2.297 . S
Cd272 O283 2.439 . S
O273 Cd272 2.240 . S
O273 C278 1.279 . S
O274 Cd271 2.297 . S
O274 C276 1.247 . S
O275 Cd271 2.439 . S
O275 C276 1.208 . S
C276 O274 1.247 . S
C276 O275 1.208 . S
C277 O282 1.247 . S
C277 O283 1.208 . S
C278 O270 1.315 . S
C278 O273 1.279 . S
C279 O280 1.315 . S
C279 O281 1.279 . S
O280 Cd272 2.223 . S
O280 C279 1.315 . S
O281 Cd271 2.240 . S
O281 C279 1.279 . S
O282 Cd272 2.297 . S
O282 C277 1.247 . S
O283 Cd272 2.439 . S
O283 C277 1.208 . S
O284 Cd285 2.223 1_655 S
O284 C292 1.315 . S
Cd285 O284 2.223 1_455 S
Cd285 O288 2.297 . S
Cd285 O289 2.439 . S
Cd285 O295 2.240 . S
Cd286 O287 2.240 . S
Cd286 O294 2.223 . S
Cd286 O296 2.307 . S
Cd286 O297 2.439 1_655 S
O287 Cd286 2.240 . S
O287 C292 1.279 . S
O288 Cd285 2.297 . S
O288 C290 1.247 . S
O289 Cd285 2.439 . S
O289 C290 1.208 . S
C290 O288 1.247 . S
C290 O289 1.208 . S
C291 O296 1.217 1_455 S
C291 O297 1.208 . S
C292 O284 1.315 . S
C292 O287 1.279 . S
C293 O294 1.315 . S
C293 O295 1.279 1_655 S
O294 Cd286 2.223 . S
O294 C293 1.315 . S
O295 Cd285 2.240 . S
O295 C293 1.279 1_455 S
O296 Cd286 2.307 . S
O296 C291 1.217 1_655 S
O297 Cd286 2.439 1_455 S
O297 C291 1.208 . S
O298 Cd299 2.223 . S
O298 C306 1.315 . S
Cd299 O298 2.223 . S
Cd299 O302 2.297 . S
Cd299 O303 2.439 . S
Cd299 O309 2.240 . S
Cd300 O301 2.240 . S
Cd300 O308 2.223 . S
Cd300 O310 2.297 . S
Cd300 O311 2.439 . S
O301 Cd300 2.240 . S
O301 C306 1.279 . S
O302 Cd299 2.297 . S
O302 C304 1.247 . S
O303 Cd299 2.439 . S
O303 C304 1.208 . S
C304 O302 1.247 . S
C304 O303 1.208 . S
C305 O310 1.247 . S
C305 O311 1.208 . S
C306 O298 1.315 . S
C306 O301 1.279 . S
C307 O308 1.315 . S
C307 O309 1.279 . S
O308 Cd300 2.223 . S
O308 C307 1.315 . S
O309 Cd299 2.240 . S
O309 C307 1.279 . S
O310 Cd300 2.297 . S
O310 C305 1.247 . S
O311 Cd300 2.439 . S
O311 C305 1.208 . S
C312 C313 1.387 . S
C312 H316 0.950 . S
C312 C321 1.390 . S
C313 C312 1.387 . S
C313 C315 1.387 . S
H314 C321 0.950 . S
C315 C313 1.387 . S
C315 C317 1.390 . S
C315 H319 0.950 . S
H316 C312 0.950 . S
C317 C315 1.390 . S
C317 C318 1.387 . S
C317 H320 0.950 . S
C318 C317 1.387 . S
C318 C321 1.387 . S
H319 C315 0.950 . S
H320 C317 0.950 . S
C321 C312 1.390 . S
C321 H314 0.950 . S
C321 C318 1.387 . S
C322 C323 1.387 . S
C322 H326 0.950 . S
C322 C331 1.390 1_655 S
C323 C322 1.387 . S
C323 C325 1.386 1_655 S
H324 C331 0.950 . S
C325 C323 1.386 1_455 S
C325 C327 1.393 . S
C325 H329 0.948 1_455 S
H326 C322 0.950 . S
C327 C325 1.393 . S
C327 C328 1.387 . S
C327 H330 0.950 . S
C328 C327 1.387 . S
C328 C331 1.387 . S
H329 C325 0.948 1_655 S
H330 C327 0.950 . S
C331 C322 1.390 1_455 S
C331 H324 0.950 . S
C331 C328 1.387 . S
C332 C333 1.387 . S
C332 H336 0.950 . S
C332 C341 1.390 . S
C333 C332 1.387 . S
C333 C335 1.387 . S
H334 C341 0.950 . S
C335 C333 1.387 . S
C335 C337 1.390 . S
C335 H339 0.950 . S
H336 C332 0.950 . S
C337 C335 1.390 . S
C337 C338 1.387 . S
C337 H340 0.950 . S
C338 C337 1.387 . S
C338 C341 1.387 . S
H339 C335 0.950 . S
H340 C337 0.950 . S
C341 C332 1.390 . S
C341 H334 0.950 . S
C341 C338 1.387 . S
C342 C343 1.387 . S
C342 H346 0.950 . S
C342 C351 1.390 1_455 S
C343 C342 1.387 . S
C343 C345 1.387 1_565 S
H344 C351 0.950 . S
C345 C343 1.387 1_545 S
C345 C347 1.390 1_455 S
C345 H349 0.950 . S
H346 C342 0.950 . S
C347 C345 1.390 1_655 S
C347 C348 1.384 1_545 S
C347 H350 0.950 . S
C348 C347 1.384 1_565 S
C348 C351 1.396 . S
H349 C345 0.950 . S
H350 C347 0.950 . S
C351 C342 1.390 1_655 S
C351 H344 0.950 . S
C351 C348 1.396 . S
C352 C353 1.387 . S
C352 H356 0.950 . S
C352 C361 1.390 . S
C353 C352 1.387 . S
C353 C355 1.387 . S
H354 C361 0.950 . S
C355 C353 1.387 . S
C355 C357 1.390 . S
C355 H359 0.950 . S
H356 C352 0.950 . S
C357 C355 1.390 . S
C357 C358 1.387 . S
C357 H360 0.950 . S
C358 C357 1.387 . S
C358 C361 1.387 . S
H359 C355 0.950 . S
H360 C357 0.950 . S
C361 C352 1.390 . S
C361 H354 0.950 . S
C361 C358 1.387 . S
C362 C363 1.387 . S
C362 H366 0.950 . S
C362 C371 1.390 . S
C363 C362 1.387 . S
C363 C365 1.387 . S
H364 C371 0.950 . S
C365 C363 1.387 . S
C365 C367 1.390 . S
C365 H369 0.950 . S
H366 C362 0.950 . S
C367 C365 1.390 . S
C367 C368 1.387 . S
C367 H370 0.950 . S
C368 C367 1.387 . S
C368 C371 1.387 . S
H369 C365 0.950 . S
H370 C367 0.950 . S
C371 C362 1.390 . S
C371 H364 0.950 . S
C371 C368 1.387 . S
C372 C373 1.387 . S
C372 H376 0.950 . S
C372 C381 1.390 . S
C373 C372 1.387 . S
C373 C375 1.387 . S
H374 C381 0.950 . S
C375 C373 1.387 . S
C375 C377 1.390 . S
C375 H379 0.950 . S
H376 C372 0.950 . S
C377 C375 1.390 . S
C377 C378 1.387 . S
C377 H380 0.950 . S
C378 C377 1.387 . S
C378 C381 1.387 . S
H379 C375 0.950 . S
H380 C377 0.950 . S
C381 C372 1.390 . S
C381 H374 0.950 . S
C381 C378 1.387 . S
C382 C383 1.387 . S
C382 H386 0.950 . S
C382 C391 1.390 . S
C383 C382 1.387 . S
C383 C385 1.387 . S
H384 C391 0.950 1_545 S
C385 C383 1.387 . S
C385 C387 1.390 . S
C385 H389 0.950 . S
H386 C382 0.950 . S
C387 C385 1.390 . S
C387 C388 1.387 . S
C387 H390 0.950 . S
C388 C387 1.387 . S
C388 C391 1.387 . S
H389 C385 0.950 . S
H390 C387 0.950 . S
C391 C382 1.390 . S
C391 H384 0.950 1_565 S
C391 C388 1.387 . S
C392 C393 1.387 . S
C392 H396 0.950 . S
C392 C401 1.390 . S
C393 C392 1.387 . S
C393 C395 1.387 . S
H394 C401 0.950 . S
C395 C393 1.387 . S
C395 C397 1.390 . S
C395 H399 0.950 . S
H396 C392 0.950 . S
C397 C395 1.390 . S
C397 C398 1.387 . S
C397 H400 0.950 . S
C398 C397 1.387 . S
C398 C401 1.387 . S
H399 C395 0.950 . S
H400 C397 0.950 . S
C401 C392 1.390 . S
C401 H394 0.950 . S
C401 C398 1.387 . S
C402 C403 1.387 . S
C402 H406 0.950 . S
C402 C411 1.390 . S
C403 C402 1.387 . S
C403 C405 1.387 . S
H404 C411 0.950 . S
C405 C403 1.387 . S
C405 C407 1.390 . S
C405 H409 0.950 . S
H406 C402 0.950 . S
C407 C405 1.390 . S
C407 C408 1.387 . S
C407 H410 0.950 . S
C408 C407 1.387 . S
C408 C411 1.387 . S
H409 C405 0.950 . S
H410 C407 0.950 . S
C411 C402 1.390 . S
C411 H404 0.950 . S
C411 C408 1.387 . S
C412 C413 1.387 . S
C412 H416 0.950 . S
C412 C421 1.390 . S
C413 C412 1.387 . S
C413 C415 1.387 . S
H414 C421 0.950 . S
C415 C413 1.387 . S
C415 C417 1.390 . S
C415 H419 0.950 . S
H416 C412 0.950 . S
C417 C415 1.390 . S
C417 C418 1.387 . S
C417 H420 0.950 . S
C418 C417 1.387 . S
C418 C421 1.387 . S
H419 C415 0.950 . S
H420 C417 0.950 . S
C421 C412 1.390 . S
C421 H414 0.950 . S
C421 C418 1.387 . S
C422 C423 1.387 . S
C422 H426 0.950 . S
C422 C431 1.390 . S
C423 C422 1.387 . S
C423 C425 1.387 . S
H424 C431 0.950 . S
C425 C423 1.387 . S
C425 C427 1.390 . S
C425 H429 0.950 . S
H426 C422 0.950 . S
C427 C425 1.390 . S
C427 C428 1.387 . S
C427 H430 0.950 . S
C428 C427 1.387 . S
C428 C431 1.387 . S
H429 C425 0.950 . S
H430 C427 0.950 . S
C431 C422 1.390 . S
C431 H424 0.950 . S
C431 C428 1.387 . S
C432 C433 1.387 . S
C432 H436 0.950 . S
C432 C441 1.390 . S
C433 C432 1.387 . S
C433 C435 1.387 . S
H434 C441 0.950 . S
C435 C433 1.387 . S
C435 C437 1.390 . S
C435 H439 0.950 . S
H436 C432 0.950 . S
C437 C435 1.390 . S
C437 C438 1.387 . S
C437 H440 0.950 . S
C438 C437 1.387 . S
C438 C441 1.387 . S
H439 C435 0.950 . S
H440 C437 0.950 . S
C441 C432 1.390 . S
C441 H434 0.950 . S
C441 C438 1.387 . S
C442 C443 1.387 . S
C442 H446 0.950 . S
C442 C451 1.390 . S
C443 C442 1.387 . S
C443 C445 1.387 . S
H444 C451 0.950 . S
C445 C443 1.387 . S
C445 C447 1.390 . S
C445 H449 0.950 . S
H446 C442 0.950 . S
C447 C445 1.390 . S
C447 C448 1.387 . S
C447 H450 0.950 . S
C448 C447 1.387 . S
C448 C451 1.387 . S
H449 C445 0.950 . S
H450 C447 0.950 . S
C451 C442 1.390 . S
C451 H444 0.950 . S
C451 C448 1.387 . S
C452 C453 1.387 . S
C452 H456 0.950 . S
C452 C461 1.390 . S
C453 C452 1.387 . S
C453 C455 1.387 . S
H454 C461 0.950 . S
C455 C453 1.387 . S
C455 C457 1.390 . S
C455 H459 0.950 . S
H456 C452 0.950 . S
C457 C455 1.390 . S
C457 C458 1.387 . S
C457 H460 0.950 . S
C458 C457 1.387 . S
C458 C461 1.387 . S
H459 C455 0.950 . S
H460 C457 0.950 . S
C461 C452 1.390 . S
C461 H454 0.950 . S
C461 C458 1.387 . S
C462 C463 1.387 . S
C462 H466 0.950 . S
C462 C471 1.390 . S
C463 C462 1.387 . S
C463 C465 1.387 . S
H464 C471 0.950 1_455 S
C465 C463 1.387 . S
C465 C467 1.390 . S
C465 H469 0.950 . S
H466 C462 0.950 . S
C467 C465 1.390 . S
C467 C468 1.387 . S
C467 H470 0.950 . S
C468 C467 1.387 . S
C468 C471 1.387 . S
H469 C465 0.950 . S
H470 C467 0.950 . S
C471 C462 1.390 . S
C471 H464 0.950 1_655 S
C471 C468 1.387 . S
C472 C473 1.387 . S
C472 H476 0.950 . S
C472 C481 1.390 . S
C473 C472 1.387 . S
C473 C475 1.387 . S
H474 C481 0.950 . S
C475 C473 1.387 . S
C475 C477 1.390 . S
C475 H479 0.950 . S
H476 C472 0.950 . S
C477 C475 1.390 . S
C477 C478 1.387 . S
C477 H480 0.950 . S
C478 C477 1.387 . S
C478 C481 1.387 . S
H479 C475 0.950 . S
H480 C477 0.950 . S
C481 C472 1.390 . S
C481 H474 0.950 . S
C481 C478 1.387 . S
C482 C483 1.387 . S
C482 H486 0.950 . S
C482 C491 1.390 . S
C483 C482 1.387 . S
C483 C485 1.387 . S
H484 C491 0.950 . S
C485 C483 1.387 . S
C485 C487 1.390 . S
C485 H489 0.950 . S
H486 C482 0.950 . S
C487 C485 1.390 . S
C487 C488 1.387 . S
C487 H490 0.950 . S
C488 C487 1.387 . S
C488 C491 1.387 . S
H489 C485 0.950 . S
H490 C487 0.950 . S
C491 C482 1.390 . S
C491 H484 0.950 . S
C491 C488 1.387 . S
C492 C493 1.387 1_554 S
C492 H496 0.950 . S
C492 C501 1.390 . S
C493 C492 1.387 1_556 S
C493 C495 1.387 . S
H494 C501 0.950 . S
C495 C493 1.387 . S
C495 C497 1.390 1_545 S
C495 H499 0.950 . S
H496 C492 0.950 . S
C497 C495 1.390 1_565 S
C497 C498 1.387 . S
C497 H500 0.950 . S
C498 C497 1.387 . S
C498 C501 1.387 1_566 S
H499 C495 0.950 . S
H500 C497 0.950 . S
C501 C492 1.390 . S
C501 H494 0.950 . S
C501 C498 1.387 1_544 S
C502 C503 1.387 . S
C502 H506 0.950 . S
C502 C511 1.390 . S
C503 C502 1.387 . S
C503 C505 1.387 . S
H504 C511 0.950 . S
C505 C503 1.387 . S
C505 C507 1.390 . S
C505 H509 0.950 . S
H506 C502 0.950 . S
C507 C505 1.390 . S
C507 C508 1.387 . S
C507 H510 0.950 . S
C508 C507 1.387 . S
C508 C511 1.387 . S
H509 C505 0.950 . S
H510 C507 0.950 . S
C511 C502 1.390 . S
C511 H504 0.950 . S
C511 C508 1.387 . S
C512 C513 1.387 . S
C512 H516 0.950 1_545 S
C512 C521 1.390 . S
C513 C512 1.387 . S
C513 C515 1.387 . S
H514 C521 0.950 . S
C515 C513 1.387 . S
C515 C517 1.390 . S
C515 H519 0.950 . S
H516 C512 0.950 1_565 S
C517 C515 1.390 . S
C517 C518 1.387 . S
C517 H520 0.950 . S
C518 C517 1.387 . S
C518 C521 1.387 . S
H519 C515 0.950 . S
H520 C517 0.950 . S
C521 C512 1.390 . S
C521 H514 0.950 . S
C521 C518 1.387 . S
C522 C523 1.387 . S
C522 H526 0.950 . S
C522 C531 1.390 . S
C523 C522 1.387 . S
C523 C525 1.387 . S
H524 C531 0.950 . S
C525 C523 1.387 . S
C525 C527 1.390 . S
C525 H529 0.950 . S
H526 C522 0.950 . S
C527 C525 1.390 . S
C527 C528 1.387 . S
C527 H530 0.950 . S
C528 C527 1.387 . S
C528 C531 1.387 . S
H529 C525 0.950 . S
H530 C527 0.950 . S
C531 C522 1.390 . S
C531 H524 0.950 . S
C531 C528 1.387 . S
C532 C533 1.387 . S
C532 H536 0.950 . S
C532 C541 1.390 1_565 S
C533 C532 1.387 . S
C533 C535 1.387 . S
H534 C541 0.950 . S
C535 C533 1.387 . S
C535 C537 1.390 1_565 S
C535 H539 0.950 . S
H536 C532 0.950 . S
C537 C535 1.390 1_545 S
C537 C538 1.387 . S
C537 H540 0.950 . S
C538 C537 1.387 . S
C538 C541 1.387 . S
H539 C535 0.950 . S
H540 C537 0.950 . S
C541 C532 1.390 1_545 S
C541 H534 0.950 . S
C541 C538 1.387 . S
C542 C543 1.387 . S
C542 H546 0.950 . S
C542 C551 1.390 . S
C543 C542 1.387 . S
C543 C545 1.387 . S
H544 C551 0.950 . S
C545 C543 1.387 . S
C545 C547 1.390 . S
C545 H549 0.950 . S
H546 C542 0.950 . S
C547 C545 1.390 . S
C547 C548 1.387 . S
C547 H550 0.950 . S
C548 C547 1.387 . S
C548 C551 1.387 . S
H549 C545 0.950 . S
H550 C547 0.950 . S
C551 C542 1.390 . S
C551 H544 0.950 . S
C551 C548 1.387 . S
C552 C553 1.387 . S
C552 H556 0.950 . S
C552 C561 1.390 . S
C553 C552 1.387 . S
C553 C555 1.387 . S
H554 C561 0.950 . S
C555 C553 1.387 . S
C555 C557 1.390 . S
C555 H559 0.950 . S
H556 C552 0.950 . S
C557 C555 1.390 . S
C557 C558 1.387 . S
C557 H560 0.950 . S
C558 C557 1.387 . S
C558 C561 1.387 . S
H559 C555 0.950 . S
H560 C557 0.950 . S
C561 C552 1.390 . S
C561 H554 0.950 . S
C561 C558 1.387 . S
C562 C563 1.387 . S
C562 H566 0.950 . S
C562 C571 1.390 . S
C563 C562 1.387 . S
C563 C565 1.387 . S
H564 C571 0.950 . S
C565 C563 1.387 . S
C565 C567 1.390 . S
C565 H569 0.950 . S
H566 C562 0.950 . S
C567 C565 1.390 . S
C567 C568 1.387 . S
C567 H570 0.950 . S
C568 C567 1.387 . S
C568 C571 1.387 . S
H569 C565 0.950 . S
H570 C567 0.950 . S
C571 C562 1.390 . S
C571 H564 0.950 . S
C571 C568 1.387 . S
C572 C573 1.387 . S
C572 H576 0.950 . S
C572 C581 1.390 . S
C573 C572 1.387 . S
C573 C575 1.387 . S
H574 C581 0.950 . S
C575 C573 1.387 . S
C575 C577 1.390 . S
C575 H579 0.950 . S
H576 C572 0.950 . S
C577 C575 1.390 . S
C577 C578 1.387 . S
C577 H580 0.950 . S
C578 C577 1.387 . S
C578 C581 1.387 . S
H579 C575 0.950 . S
H580 C577 0.950 . S
C581 C572 1.390 . S
C581 H574 0.950 . S
C581 C578 1.387 . S
C582 C583 1.387 . S
C582 H586 0.950 . S
C582 C591 1.390 . S
C583 C582 1.387 . S
C583 C585 1.387 . S
H584 C591 0.950 . S
C585 C583 1.387 . S
C585 C587 1.390 . S
C585 H589 0.950 . S
H586 C582 0.950 . S
C587 C585 1.390 . S
C587 C588 1.387 . S
C587 H590 0.950 . S
C588 C587 1.387 . S
C588 C591 1.387 . S
H589 C585 0.950 . S
H590 C587 0.950 . S
C591 C582 1.390 . S
C591 H584 0.950 . S
C591 C588 1.387 . S
C592 C593 1.387 . S
C592 H596 0.950 . S
C592 C601 1.390 . S
C593 C592 1.387 . S
C593 C595 1.387 . S
H594 C601 0.950 . S
C595 C593 1.387 . S
C595 C597 1.390 . S
C595 H599 0.950 . S
H596 C592 0.950 . S
C597 C595 1.390 . S
C597 C598 1.387 . S
C597 H600 0.950 . S
C598 C597 1.387 . S
C598 C601 1.387 . S
H599 C595 0.950 . S
H600 C597 0.950 . S
C601 C592 1.390 . S
C601 H594 0.950 . S
C601 C598 1.387 . S
C602 C603 1.387 . S
C602 H606 0.950 . S
C602 C611 1.390 . S
C603 C602 1.387 . S
C603 C605 1.387 . S
H604 C611 0.950 1_655 S
C605 C603 1.387 . S
C605 C607 1.390 . S
C605 H609 0.950 . S
H606 C602 0.950 . S
C607 C605 1.390 . S
C607 C608 1.387 1_455 S
C607 H610 0.950 . S
C608 C607 1.387 1_655 S
C608 C611 1.387 1_655 S
H609 C605 0.950 . S
H610 C607 0.950 . S
C611 C602 1.390 . S
C611 H604 0.950 1_455 S
C611 C608 1.387 1_455 S
C612 C613 1.387 . S
C612 H616 0.950 . S
C612 C621 1.390 . S
C613 C612 1.387 . S
C613 C615 1.387 . S
H614 C621 0.950 . S
C615 C613 1.387 . S
C615 C617 1.390 . S
C615 H619 0.950 . S
H616 C612 0.950 . S
C617 C615 1.390 . S
C617 C618 1.387 . S
C617 H620 0.950 . S
C618 C617 1.387 . S
C618 C621 1.387 . S
H619 C615 0.950 . S
H620 C617 0.950 . S
C621 C612 1.390 . S
C621 H614 0.950 . S
C621 C618 1.387 . S
C622 C623 1.387 . S
C622 H626 0.950 . S
C622 C631 1.390 . S
C623 C622 1.387 . S
C623 C625 1.387 . S
H624 C631 0.950 . S
C625 C623 1.387 . S
C625 C627 1.390 1_655 S
C625 H629 0.950 . S
H626 C622 0.950 . S
C627 C625 1.390 1_455 S
C627 C628 1.387 . S
C627 H630 0.950 . S
C628 C627 1.387 . S
C628 C631 1.387 1_455 S
H629 C625 0.950 . S
H630 C627 0.950 . S
C631 C622 1.390 . S
C631 H624 0.950 . S
C631 C628 1.387 1_655 S
C632 C633 1.387 . S
C632 H636 0.950 . S
C632 C641 1.390 . S
C633 C632 1.387 . S
C633 C635 1.387 . S
H634 C641 0.950 . S
C635 C633 1.387 . S
C635 C637 1.390 . S
C635 H639 0.950 . S
H636 C632 0.950 . S
C637 C635 1.390 . S
C637 C638 1.387 . S
C637 H640 0.950 . S
C638 C637 1.387 . S
C638 C641 1.387 . S
H639 C635 0.950 . S
H640 C637 0.950 . S
C641 C632 1.390 . S
C641 H634 0.950 . S
C641 C638 1.387 . S
C642 C643 1.387 . S
C642 H646 0.950 . S
C642 C651 1.390 1_554 S
C643 C642 1.387 . S
C643 C645 1.387 . S
H644 C651 0.950 . S
C645 C643 1.387 . S
C645 C647 1.390 . S
C645 H649 0.950 . S
H646 C642 0.950 . S
C647 C645 1.390 . S
C647 C648 1.387 1_554 S
C647 H650 0.950 1_654 S
C648 C647 1.387 1_556 S
C648 C651 1.387 . S
H649 C645 0.950 . S
H650 C647 0.950 1_456 S
C651 C642 1.390 1_556 S
C651 H644 0.950 . S
C651 C648 1.387 . S
C652 C653 1.387 . S
C652 H656 0.950 . S
C652 C661 1.390 . S
C653 C652 1.387 . S
C653 C655 1.387 . S
H654 C661 0.950 . S
C655 C653 1.387 . S
C655 C657 1.390 . S
C655 H659 0.950 . S
H656 C652 0.950 . S
C657 C655 1.390 . S
C657 C658 1.387 . S
C657 H660 0.950 . S
C658 C657 1.387 . S
C658 C661 1.387 . S
H659 C655 0.950 . S
H660 C657 0.950 . S
C661 C652 1.390 . S
C661 H654 0.950 . S
C661 C658 1.387 . S
C662 C663 1.387 . S
C662 H666 0.950 . S
C662 C671 1.390 . S
C663 C662 1.387 . S
C663 C665 1.387 . S
H664 C671 0.950 1_556 S
C665 C663 1.387 . S
C665 C667 1.390 . S
C665 H669 0.950 . S
H666 C662 0.950 . S
C667 C665 1.390 . S
C667 C668 1.387 . S
C667 H670 0.950 . S
C668 C667 1.387 . S
C668 C671 1.387 . S
H669 C665 0.950 . S
H670 C667 0.950 . S
C671 C662 1.390 . S
C671 H664 0.950 1_554 S
C671 C668 1.387 . S
C672 C673 1.387 . S
C672 H676 0.950 . S
C672 C681 1.390 . S
C673 C672 1.387 . S
C673 C675 1.387 . S
H674 C681 0.950 . S
C675 C673 1.387 . S
C675 C677 1.390 . S
C675 H679 0.950 . S
H676 C672 0.950 . S
C677 C675 1.390 . S
C677 C678 1.387 . S
C677 H680 0.950 . S
C678 C677 1.387 . S
C678 C681 1.387 . S
H679 C675 0.950 . S
H680 C677 0.950 . S
C681 C672 1.390 . S
C681 H674 0.950 . S
C681 C678 1.387 . S
C682 C683 1.387 . S
C682 H686 0.950 . S
C682 C691 1.390 1_556 S
C683 C682 1.387 . S
C683 C685 1.387 . S
H684 C691 0.950 . S
C685 C683 1.387 . S
C685 C687 1.390 1_556 S
C685 H689 0.950 . S
H686 C682 0.950 . S
C687 C685 1.390 1_554 S
C687 C688 1.387 . S
C687 H690 0.950 . S
C688 C687 1.387 . S
C688 C691 1.387 . S
H689 C685 0.950 . S
H690 C687 0.950 . S
C691 C682 1.390 1_554 S
C691 H684 0.950 . S
C691 C688 1.387 . S
C692 C693 1.387 . S
C692 H696 0.950 . S
C692 C701 1.390 . S
C693 C692 1.387 . S
C693 C695 1.387 . S
H694 C701 0.950 . S
C695 C693 1.387 . S
C695 C697 1.390 . S
C695 H699 0.950 . S
H696 C692 0.950 . S
C697 C695 1.390 . S
C697 C698 1.387 . S
C697 H700 0.950 . S
C698 C697 1.387 . S
C698 C701 1.387 . S
H699 C695 0.950 . S
H700 C697 0.950 . S
C701 C692 1.390 . S
C701 H694 0.950 . S
C701 C698 1.387 . S
C702 C703 1.392 . S
C702 H706 0.950 . S
C702 C711 1.390 . S
C703 C702 1.392 . S
C703 C705 1.389 . S
H704 C711 0.950 . S
C705 C703 1.389 . S
C705 C707 1.390 . S
C705 H709 0.950 1_554 S
H706 C702 0.950 . S
C707 C705 1.390 . S
C707 C708 1.387 . S
C707 H710 0.950 . S
C708 C707 1.387 . S
C708 C711 1.387 . S
H709 C705 0.950 1_556 S
H710 C707 0.950 . S
C711 C702 1.390 . S
C711 H704 0.950 . S
C711 C708 1.387 . S
C712 C713 1.387 . S
C712 H716 0.950 . S
C712 C721 1.390 . S
C713 C712 1.387 . S
C713 C715 1.387 . S
H714 C721 0.950 . S
C715 C713 1.387 . S
C715 C717 1.390 . S
C715 H719 0.950 . S
H716 C712 0.950 . S
C717 C715 1.390 . S
C717 C718 1.387 . S
C717 H720 0.950 . S
C718 C717 1.387 . S
C718 C721 1.387 . S
H719 C715 0.950 . S
H720 C717 0.950 . S
C721 C712 1.390 . S
C721 H714 0.950 . S
C721 C718 1.387 . S
C722 C723 1.387 . S
C722 H726 0.950 . S
C722 C731 1.390 . S
C723 C722 1.387 . S
C723 C725 1.387 . S
H724 C731 0.950 . S
C725 C723 1.387 . S
C725 C727 1.390 . S
C725 H729 0.950 . S
H726 C722 0.950 . S
C727 C725 1.390 . S
C727 C728 1.387 . S
C727 H730 0.950 . S
C728 C727 1.387 . S
C728 C731 1.387 . S
H729 C725 0.950 . S
H730 C727 0.950 . S
C731 C722 1.390 . S
C731 H724 0.950 . S
C731 C728 1.387 . S
C732 C733 1.387 . S
C732 H736 0.950 . S
C732 C741 1.390 . S
C733 C732 1.387 . S
C733 C735 1.387 . S
H734 C741 0.950 . S
C735 C733 1.387 . S
C735 C737 1.390 . S
C735 H739 0.950 . S
H736 C732 0.950 . S
C737 C735 1.390 . S
C737 C738 1.387 . S
C737 H740 0.950 . S
C738 C737 1.387 . S
C738 C741 1.387 . S
H739 C735 0.950 . S
H740 C737 0.950 . S
C741 C732 1.390 . S
C741 H734 0.950 . S
C741 C738 1.387 . S
C742 C743 1.387 . S
C742 H746 0.950 . S
C742 C751 1.390 . S
C743 C742 1.387 . S
C743 C745 1.387 . S
H744 C751 0.950 . S
C745 C743 1.387 . S
C745 C747 1.390 . S
C745 H749 0.950 . S
H746 C742 0.950 . S
C747 C745 1.390 . S
C747 C748 1.387 . S
C747 H750 0.950 . S
C748 C747 1.387 . S
C748 C751 1.387 . S
H749 C745 0.950 . S
H750 C747 0.950 . S
C751 C742 1.390 . S
C751 H744 0.950 . S
C751 C748 1.387 . S
C752 C753 1.387 . S
C752 H756 0.950 . S
C752 C761 1.390 . S
C753 C752 1.387 . S
C753 C755 1.387 . S
H754 C761 0.950 . S
C755 C753 1.387 . S
C755 C757 1.390 . S
C755 H759 0.950 . S
H756 C752 0.950 . S
C757 C755 1.390 . S
C757 C758 1.387 . S
C757 H760 0.950 1_556 S
C758 C757 1.387 . S
C758 C761 1.387 . S
H759 C755 0.950 . S
H760 C757 0.950 1_554 S
C761 C752 1.390 . S
C761 H754 0.950 . S
C761 C758 1.387 . S
C762 C763 1.387 . S
C762 H766 0.950 . S
C762 C771 1.390 . S
C763 C762 1.387 . S
C763 C765 1.387 . S
H764 C771 0.950 . S
C765 C763 1.387 . S
C765 C767 1.390 . S
C765 H769 0.950 . S
H766 C762 0.950 . S
C767 C765 1.390 . S
C767 C768 1.387 . S
C767 H770 0.950 . S
C768 C767 1.387 . S
C768 C771 1.387 . S
H769 C765 0.950 . S
H770 C767 0.950 . S
C771 C762 1.390 . S
C771 H764 0.950 . S
C771 C768 1.387 . S
C772 C773 1.387 . S
C772 H776 0.950 . S
C772 C781 1.390 . S
C773 C772 1.387 . S
C773 C775 1.387 . S
H774 C781 0.973 . S
C775 C773 1.387 . S
C775 C777 1.390 . S
C775 H779 0.950 . S
H776 C772 0.950 . S
C777 C775 1.390 . S
C777 C778 1.387 . S
C777 H780 0.950 . S
C778 C777 1.387 . S
C778 C781 1.387 . S
H779 C775 0.950 . S
H780 C777 0.950 . S
C781 C772 1.390 . S
C781 H774 0.973 . S
C781 C778 1.387 . S
C782 C783 1.387 . S
C782 H786 0.950 . S
C782 C791 1.390 . S
C783 C782 1.387 . S
C783 C785 1.387 . S
H784 C791 0.950 . S
C785 C783 1.387 . S
C785 C787 1.390 . S
C785 H789 0.950 . S
H786 C782 0.950 . S
C787 C785 1.390 . S
C787 C788 1.387 . S
C787 H790 0.950 . S
C788 C787 1.387 . S
C788 C791 1.387 . S
H789 C785 0.950 . S
H790 C787 0.950 . S
C791 C782 1.390 . S
C791 H784 0.950 . S
C791 C788 1.387 . S
C318 C152 1.586 . S
C313 C50 1.567 . S
C328 C167 1.628 . S
C323 C61 1.666 . S
C333 C67 1.630 . S
C338 C180 1.620 . S
C348 C194 1.483 1_565 S
C343 C41 1.536 . S
C358 C206 1.557 . S
C353 C95 1.629 . S
C368 C220 1.337 . S
C363 C113 1.346 . S
C373 C106 1.657 . S
C378 C234 1.615 . S
C388 C249 1.454 . S
C383 C86 1.465 . S
C393 C104 1.589 . S
C398 C265 1.582 . S
C408 C278 1.486 . S
C403 C88 1.499 . S
C413 C94 1.565 . S
C418 C263 1.513 . S
C428 C276 1.474 . S
C423 C112 1.454 . S
C433 C70 1.723 . S
C438 C292 1.714 . S
C443 C40 1.521 . S
C448 C291 1.501 . S
C453 C49 1.655 . S
C458 C290 1.585 . S
C463 C59 1.606 . S
C468 C293 1.579 . S
C473 C34 1.622 . S
C478 C195 1.624 . S
C483 C133 1.492 . S
C488 C193 1.468 . S
C498 C153 1.500 1_556 S
C493 C139 1.532 . S
C508 C164 1.653 . S
C503 C77 1.676 . S
C513 C43 1.568 1_545 S
C518 C209 1.547 . S
C528 C250 1.758 . S
C523 C103 1.762 . S
C538 C207 1.483 . S
C533 C85 1.480 . S
C548 C235 1.444 . S
C543 C115 1.453 . S
C558 C236 1.568 . S
C553 C131 1.566 . S
C563 C142 1.667 . S
C568 C251 1.628 . S
C573 C76 1.629 . S
C578 C208 1.621 . S
C588 C222 1.484 . S
C583 C122 1.535 . S
C593 C32 1.630 . S
C598 C178 1.558 . S
C608 C192 1.337 . S
C603 C5 1.346 . S
C618 C150 1.615 . S
C613 C16 1.656 . S
C628 C165 1.455 . S
C623 C23 1.466 . S
C633 C14 1.589 . S
C638 C279 1.582 . S
C643 C25 1.499 . S
C648 C264 1.488 . S
C653 C31 1.565 . S
C658 C277 1.513 . S
C663 C4 1.455 . S
C668 C262 1.472 1_554 S
C678 C306 1.713 . S
C673 C79 1.723 . S
C688 C305 1.501 . S
C683 C121 1.522 . S
C698 C304 1.585 . S
C693 C130 1.655 . S
C703 C140 1.601 1_554 S
C708 C307 1.578 . S
C713 C97 1.622 . S
C718 C223 1.620 . S
C728 C221 1.467 . S
C723 C52 1.492 . S
C738 C237 1.503 . S
C733 C58 1.533 . S
C748 C248 1.652 . S
C743 C68 1.675 . S
C753 C124 1.570 . S
C758 C181 1.550 . S
C768 C166 1.758 . S
C763 C13 1.762 . S
C773 C22 1.478 . S
C778 C179 1.482 . S
C788 C151 1.445 1_545 S
C783 C7 1.453 . S
