# Generated by pormake.
# Topology tbo, (3,4)-cn, num edge types: 1
# Building blocks:
#     Node 0, Type 0, BuildingBlock: CUQRIR_clean_linker_1, # of connection points: 3
#     Node 1, Type 0, BuildingBlock: CUQRIR_clean_linker_1, # of connection points: 3
#     Node 2, Type 0, BuildingBlock: CUQRIR_clean_linker_1, # of connection points: 3
#     Node 3, Type 0, BuildingBlock: CUQRIR_clean_linker_1, # of connection points: 3
#     Node 4, Type 0, BuildingBlock: CUQRIR_clean_linker_1, # of connection points: 3
#     Node 5, Type 0, BuildingBlock: CUQRIR_clean_linker_1, # of connection points: 3
#     Node 6, Type 0, BuildingBlock: CUQRIR_clean_linker_1, # of connection points: 3
#     Node 7, Type 0, BuildingBlock: CUQRIR_clean_linker_1, # of connection points: 3
#     Node 8, Type 0, BuildingBlock: CUQRIR_clean_linker_1, # of connection points: 3
#     Node 9, Type 0, BuildingBlock: CUQRIR_clean_linker_1, # of connection points: 3
#     Node 10, Type 0, BuildingBlock: CUQRIR_clean_linker_1, # of connection points: 3
#     Node 11, Type 0, BuildingBlock: CUQRIR_clean_linker_1, # of connection points: 3
#     Node 12, Type 0, BuildingBlock: CUQRIR_clean_linker_1, # of connection points: 3
#     Node 13, Type 0, BuildingBlock: CUQRIR_clean_linker_1, # of connection points: 3
#     Node 14, Type 0, BuildingBlock: CUQRIR_clean_linker_1, # of connection points: 3
#     Node 15, Type 0, BuildingBlock: CUQRIR_clean_linker_1, # of connection points: 3
#     Node 16, Type 0, BuildingBlock: CUQRIR_clean_linker_1, # of connection points: 3
#     Node 17, Type 0, BuildingBlock: CUQRIR_clean_linker_1, # of connection points: 3
#     Node 18, Type 0, BuildingBlock: CUQRIR_clean_linker_1, # of connection points: 3
#     Node 19, Type 0, BuildingBlock: CUQRIR_clean_linker_1, # of connection points: 3
#     Node 20, Type 0, BuildingBlock: CUQRIR_clean_linker_1, # of connection points: 3
#     Node 21, Type 0, BuildingBlock: CUQRIR_clean_linker_1, # of connection points: 3
#     Node 22, Type 0, BuildingBlock: CUQRIR_clean_linker_1, # of connection points: 3
#     Node 23, Type 0, BuildingBlock: CUQRIR_clean_linker_1, # of connection points: 3
#     Node 24, Type 0, BuildingBlock: CUQRIR_clean_linker_1, # of connection points: 3
#     Node 25, Type 0, BuildingBlock: CUQRIR_clean_linker_1, # of connection points: 3
#     Node 26, Type 0, BuildingBlock: CUQRIR_clean_linker_1, # of connection points: 3
#     Node 27, Type 0, BuildingBlock: CUQRIR_clean_linker_1, # of connection points: 3
#     Node 28, Type 0, BuildingBlock: CUQRIR_clean_linker_1, # of connection points: 3
#     Node 29, Type 0, BuildingBlock: CUQRIR_clean_linker_1, # of connection points: 3
#     Node 30, Type 0, BuildingBlock: CUQRIR_clean_linker_1, # of connection points: 3
#     Node 31, Type 0, BuildingBlock: CUQRIR_clean_linker_1, # of connection points: 3
#     Node 32, Type 1, BuildingBlock: ESEHIV_clean_sbu_0, # of connection points: 4
#     Node 33, Type 1, BuildingBlock: ESEHIV_clean_sbu_0, # of connection points: 4
#     Node 34, Type 1, BuildingBlock: ESEHIV_clean_sbu_0, # of connection points: 4
#     Node 35, Type 1, BuildingBlock: ESEHIV_clean_sbu_0, # of connection points: 4
#     Node 36, Type 1, BuildingBlock: ESEHIV_clean_sbu_0, # of connection points: 4
#     Node 37, Type 1, BuildingBlock: ESEHIV_clean_sbu_0, # of connection points: 4
#     Node 38, Type 1, BuildingBlock: ESEHIV_clean_sbu_0, # of connection points: 4
#     Node 39, Type 1, BuildingBlock: ESEHIV_clean_sbu_0, # of connection points: 4
#     Node 40, Type 1, BuildingBlock: ESEHIV_clean_sbu_0, # of connection points: 4
#     Node 41, Type 1, BuildingBlock: ESEHIV_clean_sbu_0, # of connection points: 4
#     Node 42, Type 1, BuildingBlock: ESEHIV_clean_sbu_0, # of connection points: 4
#     Node 43, Type 1, BuildingBlock: ESEHIV_clean_sbu_0, # of connection points: 4
#     Node 44, Type 1, BuildingBlock: ESEHIV_clean_sbu_0, # of connection points: 4
#     Node 45, Type 1, BuildingBlock: ESEHIV_clean_sbu_0, # of connection points: 4
#     Node 46, Type 1, BuildingBlock: ESEHIV_clean_sbu_0, # of connection points: 4
#     Node 47, Type 1, BuildingBlock: ESEHIV_clean_sbu_0, # of connection points: 4
#     Node 48, Type 1, BuildingBlock: ESEHIV_clean_sbu_0, # of connection points: 4
#     Node 49, Type 1, BuildingBlock: ESEHIV_clean_sbu_0, # of connection points: 4
#     Node 50, Type 1, BuildingBlock: ESEHIV_clean_sbu_0, # of connection points: 4
#     Node 51, Type 1, BuildingBlock: ESEHIV_clean_sbu_0, # of connection points: 4
#     Node 52, Type 1, BuildingBlock: ESEHIV_clean_sbu_0, # of connection points: 4
#     Node 53, Type 1, BuildingBlock: ESEHIV_clean_sbu_0, # of connection points: 4
#     Node 54, Type 1, BuildingBlock: ESEHIV_clean_sbu_0, # of connection points: 4
#     Node 55, Type 1, BuildingBlock: ESEHIV_clean_sbu_0, # of connection points: 4
#     Edge 56, Type (0, 1), BuildingBlock: CIFDUS_clean_linker_0, # of connection points: 2
#     Edge 57, Type (0, 1), BuildingBlock: CIFDUS_clean_linker_0, # of connection points: 2
#     Edge 58, Type (0, 1), BuildingBlock: CIFDUS_clean_linker_0, # of connection points: 2
#     Edge 59, Type (0, 1), BuildingBlock: CIFDUS_clean_linker_0, # of connection points: 2
#     Edge 60, Type (0, 1), BuildingBlock: CIFDUS_clean_linker_0, # of connection points: 2
#     Edge 61, Type (0, 1), BuildingBlock: CIFDUS_clean_linker_0, # of connection points: 2
#     Edge 62, Type (0, 1), BuildingBlock: CIFDUS_clean_linker_0, # of connection points: 2
#     Edge 63, Type (0, 1), BuildingBlock: CIFDUS_clean_linker_0, # of connection points: 2
#     Edge 64, Type (0, 1), BuildingBlock: CIFDUS_clean_linker_0, # of connection points: 2
#     Edge 65, Type (0, 1), BuildingBlock: CIFDUS_clean_linker_0, # of connection points: 2
#     Edge 66, Type (0, 1), BuildingBlock: CIFDUS_clean_linker_0, # of connection points: 2
#     Edge 67, Type (0, 1), BuildingBlock: CIFDUS_clean_linker_0, # of connection points: 2
#     Edge 68, Type (0, 1), BuildingBlock: CIFDUS_clean_linker_0, # of connection points: 2
#     Edge 69, Type (0, 1), BuildingBlock: CIFDUS_clean_linker_0, # of connection points: 2
#     Edge 70, Type (0, 1), BuildingBlock: CIFDUS_clean_linker_0, # of connection points: 2
#     Edge 71, Type (0, 1), BuildingBlock: CIFDUS_clean_linker_0, # of connection points: 2
#     Edge 72, Type (0, 1), BuildingBlock: CIFDUS_clean_linker_0, # of connection points: 2
#     Edge 73, Type (0, 1), BuildingBlock: CIFDUS_clean_linker_0, # of connection points: 2
#     Edge 74, Type (0, 1), BuildingBlock: CIFDUS_clean_linker_0, # of connection points: 2
#     Edge 75, Type (0, 1), BuildingBlock: CIFDUS_clean_linker_0, # of connection points: 2
#     Edge 76, Type (0, 1), BuildingBlock: CIFDUS_clean_linker_0, # of connection points: 2
#     Edge 77, Type (0, 1), BuildingBlock: CIFDUS_clean_linker_0, # of connection points: 2
#     Edge 78, Type (0, 1), BuildingBlock: CIFDUS_clean_linker_0, # of connection points: 2
#     Edge 79, Type (0, 1), BuildingBlock: CIFDUS_clean_linker_0, # of connection points: 2
#     Edge 80, Type (0, 1), BuildingBlock: CIFDUS_clean_linker_0, # of connection points: 2
#     Edge 81, Type (0, 1), BuildingBlock: CIFDUS_clean_linker_0, # of connection points: 2
#     Edge 82, Type (0, 1), BuildingBlock: CIFDUS_clean_linker_0, # of connection points: 2
#     Edge 83, Type (0, 1), BuildingBlock: CIFDUS_clean_linker_0, # of connection points: 2
#     Edge 84, Type (0, 1), BuildingBlock: CIFDUS_clean_linker_0, # of connection points: 2
#     Edge 85, Type (0, 1), BuildingBlock: CIFDUS_clean_linker_0, # of connection points: 2
#     Edge 86, Type (0, 1), BuildingBlock: CIFDUS_clean_linker_0, # of connection points: 2
#     Edge 87, Type (0, 1), BuildingBlock: CIFDUS_clean_linker_0, # of connection points: 2
#     Edge 88, Type (0, 1), BuildingBlock: CIFDUS_clean_linker_0, # of connection points: 2
#     Edge 89, Type (0, 1), BuildingBlock: CIFDUS_clean_linker_0, # of connection points: 2
#     Edge 90, Type (0, 1), BuildingBlock: CIFDUS_clean_linker_0, # of connection points: 2
#     Edge 91, Type (0, 1), BuildingBlock: CIFDUS_clean_linker_0, # of connection points: 2
#     Edge 92, Type (0, 1), BuildingBlock: CIFDUS_clean_linker_0, # of connection points: 2
#     Edge 93, Type (0, 1), BuildingBlock: CIFDUS_clean_linker_0, # of connection points: 2
#     Edge 94, Type (0, 1), BuildingBlock: CIFDUS_clean_linker_0, # of connection points: 2
#     Edge 95, Type (0, 1), BuildingBlock: CIFDUS_clean_linker_0, # of connection points: 2
#     Edge 96, Type (0, 1), BuildingBlock: CIFDUS_clean_linker_0, # of connection points: 2
#     Edge 97, Type (0, 1), BuildingBlock: CIFDUS_clean_linker_0, # of connection points: 2
#     Edge 98, Type (0, 1), BuildingBlock: CIFDUS_clean_linker_0, # of connection points: 2
#     Edge 99, Type (0, 1), BuildingBlock: CIFDUS_clean_linker_0, # of connection points: 2
#     Edge 100, Type (0, 1), BuildingBlock: CIFDUS_clean_linker_0, # of connection points: 2
#     Edge 101, Type (0, 1), BuildingBlock: CIFDUS_clean_linker_0, # of connection points: 2
#     Edge 102, Type (0, 1), BuildingBlock: CIFDUS_clean_linker_0, # of connection points: 2
#     Edge 103, Type (0, 1), BuildingBlock: CIFDUS_clean_linker_0, # of connection points: 2
#     Edge 104, Type (0, 1), BuildingBlock: CIFDUS_clean_linker_0, # of connection points: 2
#     Edge 105, Type (0, 1), BuildingBlock: CIFDUS_clean_linker_0, # of connection points: 2
#     Edge 106, Type (0, 1), BuildingBlock: CIFDUS_clean_linker_0, # of connection points: 2
#     Edge 107, Type (0, 1), BuildingBlock: CIFDUS_clean_linker_0, # of connection points: 2
#     Edge 108, Type (0, 1), BuildingBlock: CIFDUS_clean_linker_0, # of connection points: 2
#     Edge 109, Type (0, 1), BuildingBlock: CIFDUS_clean_linker_0, # of connection points: 2
#     Edge 110, Type (0, 1), BuildingBlock: CIFDUS_clean_linker_0, # of connection points: 2
#     Edge 111, Type (0, 1), BuildingBlock: CIFDUS_clean_linker_0, # of connection points: 2
#     Edge 112, Type (0, 1), BuildingBlock: CIFDUS_clean_linker_0, # of connection points: 2
#     Edge 113, Type (0, 1), BuildingBlock: CIFDUS_clean_linker_0, # of connection points: 2
#     Edge 114, Type (0, 1), BuildingBlock: CIFDUS_clean_linker_0, # of connection points: 2
#     Edge 115, Type (0, 1), BuildingBlock: CIFDUS_clean_linker_0, # of connection points: 2
#     Edge 116, Type (0, 1), BuildingBlock: CIFDUS_clean_linker_0, # of connection points: 2
#     Edge 117, Type (0, 1), BuildingBlock: CIFDUS_clean_linker_0, # of connection points: 2
#     Edge 118, Type (0, 1), BuildingBlock: CIFDUS_clean_linker_0, # of connection points: 2
#     Edge 119, Type (0, 1), BuildingBlock: CIFDUS_clean_linker_0, # of connection points: 2
#     Edge 120, Type (0, 1), BuildingBlock: CIFDUS_clean_linker_0, # of connection points: 2
#     Edge 121, Type (0, 1), BuildingBlock: CIFDUS_clean_linker_0, # of connection points: 2
#     Edge 122, Type (0, 1), BuildingBlock: CIFDUS_clean_linker_0, # of connection points: 2
#     Edge 123, Type (0, 1), BuildingBlock: CIFDUS_clean_linker_0, # of connection points: 2
#     Edge 124, Type (0, 1), BuildingBlock: CIFDUS_clean_linker_0, # of connection points: 2
#     Edge 125, Type (0, 1), BuildingBlock: CIFDUS_clean_linker_0, # of connection points: 2
#     Edge 126, Type (0, 1), BuildingBlock: CIFDUS_clean_linker_0, # of connection points: 2
#     Edge 127, Type (0, 1), BuildingBlock: CIFDUS_clean_linker_0, # of connection points: 2
#     Edge 128, Type (0, 1), BuildingBlock: CIFDUS_clean_linker_0, # of connection points: 2
#     Edge 129, Type (0, 1), BuildingBlock: CIFDUS_clean_linker_0, # of connection points: 2
#     Edge 130, Type (0, 1), BuildingBlock: CIFDUS_clean_linker_0, # of connection points: 2
#     Edge 131, Type (0, 1), BuildingBlock: CIFDUS_clean_linker_0, # of connection points: 2
#     Edge 132, Type (0, 1), BuildingBlock: CIFDUS_clean_linker_0, # of connection points: 2
#     Edge 133, Type (0, 1), BuildingBlock: CIFDUS_clean_linker_0, # of connection points: 2
#     Edge 134, Type (0, 1), BuildingBlock: CIFDUS_clean_linker_0, # of connection points: 2
#     Edge 135, Type (0, 1), BuildingBlock: CIFDUS_clean_linker_0, # of connection points: 2
#     Edge 136, Type (0, 1), BuildingBlock: CIFDUS_clean_linker_0, # of connection points: 2
#     Edge 137, Type (0, 1), BuildingBlock: CIFDUS_clean_linker_0, # of connection points: 2
#     Edge 138, Type (0, 1), BuildingBlock: CIFDUS_clean_linker_0, # of connection points: 2
#     Edge 139, Type (0, 1), BuildingBlock: CIFDUS_clean_linker_0, # of connection points: 2
#     Edge 140, Type (0, 1), BuildingBlock: CIFDUS_clean_linker_0, # of connection points: 2
#     Edge 141, Type (0, 1), BuildingBlock: CIFDUS_clean_linker_0, # of connection points: 2
#     Edge 142, Type (0, 1), BuildingBlock: CIFDUS_clean_linker_0, # of connection points: 2
#     Edge 143, Type (0, 1), BuildingBlock: CIFDUS_clean_linker_0, # of connection points: 2
#     Edge 144, Type (0, 1), BuildingBlock: CIFDUS_clean_linker_0, # of connection points: 2
#     Edge 145, Type (0, 1), BuildingBlock: CIFDUS_clean_linker_0, # of connection points: 2
#     Edge 146, Type (0, 1), BuildingBlock: CIFDUS_clean_linker_0, # of connection points: 2
#     Edge 147, Type (0, 1), BuildingBlock: CIFDUS_clean_linker_0, # of connection points: 2
#     Edge 148, Type (0, 1), BuildingBlock: CIFDUS_clean_linker_0, # of connection points: 2
#     Edge 149, Type (0, 1), BuildingBlock: CIFDUS_clean_linker_0, # of connection points: 2
#     Edge 150, Type (0, 1), BuildingBlock: CIFDUS_clean_linker_0, # of connection points: 2
#     Edge 151, Type (0, 1), BuildingBlock: CIFDUS_clean_linker_0, # of connection points: 2
# Relax obj value: 0.019
# Max RMSD: 0.191
# Mean RMSD: 0.116
data_MOF--net-tbo--node1-ESEHIV_clean_sbu_0--node2-CUQRIR_clean_linker_1--edge1-CIFDUS_clean_linker_0
_symmetry_space_group_name_H-M    P1
_symmetry_Int_Tables_number       1
_symmetry_cell_setting            triclinic
loop_
_symmetry_equiv_pos_as_xyz
'x, y, z'
_cell_length_a     58.451303
_cell_length_b     58.836506
_cell_length_c     56.613087
_cell_angle_alpha  87.152178
_cell_angle_beta   95.885019
_cell_angle_gamma 95.231776
loop_
_atom_site_label
_atom_site_type_symbol
_atom_site_fract_x
_atom_site_fract_y
_atom_site_fract_z
_atom_type_partial_charge
C0 C 0.18882 0.17553 0.22012 0.0
N1 N 0.20719 0.17391 0.20748 0.0
N2 N 0.17632 0.19288 0.21124 0.0
C3 C 0.18361 0.16095 0.24188 0.0
C4 C 0.18782 0.20206 0.19303 0.0
N5 N 0.2068 0.1909 0.19092 0.0
C6 C 0.18072 0.22237 0.17762 0.0
H7 H 0.17347 0.14494 0.23626 0.0
H8 H 0.1732 0.16959 0.25342 0.0
H9 H 0.1998 0.1565 0.25237 0.0
H10 H 0.18902 0.23822 0.18573 0.0
H11 H 0.16181 0.22337 0.17612 0.0
H12 H 0.18619 0.22163 0.1595 0.0
C13 C 0.85683 0.18748 0.20002 0.0
N14 N 0.86993 0.1777 0.21816 0.0
N15 N 0.86204 0.21045 0.19887 0.0
C16 C 0.83821 0.17475 0.18428 0.0
C17 C 0.87878 0.21416 0.21704 0.0
N18 N 0.8833 0.19429 0.22894 0.0
C19 C 0.89257 0.23672 0.22149 0.0
H20 H 0.84593 0.16844 0.16901 0.0
H21 H 0.82462 0.18603 0.17736 0.0
H22 H 0.83028 0.15977 0.19412 0.0
H23 H 0.88425 0.24598 0.23444 0.0
H24 H 0.89325 0.24744 0.20485 0.0
H25 H 0.91048 0.23426 0.22906 0.0
C26 C 0.90503 0.88202 0.18082 0.0
N27 N 0.91057 0.86324 0.17058 0.0
N28 N 0.88446 0.88851 0.17091 0.0
C29 C 0.9197 0.89396 0.20069 0.0
C30 C 0.87754 0.8728 0.15435 0.0
N31 N 0.89335 0.85724 0.15423 0.0
C32 C 0.85652 0.87396 0.13675 0.0
H33 H 0.92899 0.88153 0.21258 0.0
H34 H 0.90906 0.90346 0.21128 0.0
H35 H 0.93275 0.90624 0.19299 0.0
H36 H 0.86054 0.86986 0.11878 0.0
H37 H 0.84986 0.89107 0.13584 0.0
H38 H 0.84279 0.86108 0.14222 0.0
C39 C 0.20599 0.84292 0.16774 0.0
N40 N 0.22394 0.85912 0.1661 0.0
N41 N 0.19057 0.84974 0.18169 0.0
C42 C 0.2021 0.82173 0.15348 0.0
C43 C 0.19973 0.87077 0.18828 0.0
N44 N 0.21994 0.87649 0.17881 0.0
C45 C 0.18905 0.8857 0.20412 0.0
H46 H 0.20906 0.82477 0.13599 0.0
H47 H 0.18349 0.81589 0.1505 0.0
H48 H 0.21121 0.8079 0.16336 0.0
H49 H 0.17785 0.87529 0.21599 0.0
H50 H 0.17838 0.89754 0.19292 0.0
H51 H 0.20263 0.8961 0.215 0.0
C52 C 0.17673 0.85282 0.86993 0.0
N53 N 0.19788 0.86273 0.8775 0.0
N54 N 0.16628 0.86597 0.85247 0.0
C55 C 0.16715 0.82935 0.87776 0.0
C56 C 0.18182 0.88404 0.84944 0.0
N57 N 0.20098 0.88212 0.86467 0.0
C58 C 0.17824 0.90349 0.83161 0.0
H59 H 0.15437 0.82171 0.86389 0.0
H60 H 0.15836 0.8307 0.89403 0.0
H61 H 0.18118 0.81786 0.88195 0.0
H62 H 0.18697 0.9197 0.83856 0.0
H63 H 0.15958 0.90542 0.82703 0.0
H64 H 0.18589 0.89993 0.81518 0.0
C65 C 0.21094 0.167 0.85647 0.0
N66 N 0.20791 0.17956 0.87521 0.0
N67 N 0.23074 0.15662 0.86047 0.0
C68 C 0.19491 0.16542 0.83399 0.0
C69 C 0.23974 0.16326 0.88223 0.0
N70 N 0.22602 0.17737 0.8913 0.0
C71 C 0.26172 0.15522 0.89474 0.0
H72 H 0.19777 0.15042 0.82389 0.0
H73 H 0.19811 0.18113 0.82271 0.0
H74 H 0.17668 0.16431 0.83812 0.0
H75 H 0.26435 0.13787 0.88926 0.0
H76 H 0.26145 0.15492 0.91432 0.0
H77 H 0.27655 0.16695 0.88971 0.0
C78 C 0.87988 0.19165 0.88689 0.0
N79 N 0.88989 0.18452 0.86828 0.0
N80 N 0.88918 0.21272 0.89311 0.0
C81 C 0.86151 0.17778 0.89944 0.0
C82 C 0.90515 0.21817 0.87753 0.0
N83 N 0.90541 0.20118 0.86227 0.0
C84 C 0.92124 0.23963 0.87779 0.0
H85 H 0.851 0.18881 0.90842 0.0
H86 H 0.86992 0.16628 0.91313 0.0
H87 H 0.85001 0.16711 0.88674 0.0
H88 H 0.91731 0.25162 0.89101 0.0
H89 H 0.91997 0.24835 0.85994 0.0
H90 H 0.93928 0.23508 0.88186 0.0
C91 C 0.88898 0.89283 0.83769 0.0
N92 N 0.89798 0.87307 0.84541 0.0
N93 N 0.89614 0.90018 0.81642 0.0
C94 C 0.87384 0.90552 0.85142 0.0
C95 C 0.91 0.88412 0.81147 0.0
N96 N 0.91104 0.86744 0.82902 0.0
C97 C 0.92437 0.88599 0.79078 0.0
H98 H 0.86314 0.9167 0.83937 0.0
H99 H 0.88493 0.91632 0.86431 0.0
H100 H 0.86243 0.8934 0.86153 0.0
H101 H 0.92539 0.90351 0.78253 0.0
H102 H 0.91644 0.87397 0.77716 0.0
H103 H 0.94206 0.88118 0.79656 0.0
C104 C 0.21712 0.67676 0.7 0.0
N105 N 0.23188 0.67302 0.68382 0.0
N106 N 0.20167 0.6916 0.69089 0.0
C107 C 0.21716 0.66539 0.72443 0.0
C108 C 0.20762 0.69666 0.66853 0.0
N109 N 0.22588 0.68534 0.66423 0.0
C110 C 0.19551 0.7126 0.65086 0.0
H111 H 0.2053 0.64955 0.72343 0.0
H112 H 0.21097 0.67674 0.73703 0.0
H113 H 0.23447 0.66057 0.73149 0.0
H114 H 0.20402 0.73013 0.65288 0.0
H115 H 0.17711 0.71276 0.65401 0.0
H116 H 0.19655 0.70776 0.63236 0.0
C117 C 0.87293 0.67597 0.64261 0.0
N118 N 0.893 0.67155 0.65545 0.0
N119 N 0.87622 0.6943 0.62761 0.0
C120 C 0.84976 0.66377 0.6462 0.0
C121 C 0.89897 0.70095 0.63194 0.0
N122 N 0.90925 0.68725 0.64896 0.0
C123 C 0.91071 0.72187 0.6205 0.0
H124 H 0.85146 0.64551 0.65138 0.0
H125 H 0.83775 0.66513 0.62979 0.0
H126 H 0.84238 0.6718 0.6607 0.0
H127 H 0.90805 0.7371 0.63036 0.0
H128 H 0.90305 0.72444 0.6019 0.0
H129 H 0.92953 0.72039 0.62074 0.0
C130 C 0.90081 0.37661 0.70329 0.0
N131 N 0.9039 0.35793 0.69131 0.0
N132 N 0.88111 0.38588 0.69478 0.0
C133 C 0.91653 0.38519 0.72432 0.0
C134 C 0.87229 0.37221 0.67691 0.0
N135 N 0.88608 0.35515 0.67477 0.0
C136 C 0.84952 0.37481 0.66253 0.0
H137 H 0.91105 0.3762 0.74078 0.0
H138 H 0.91561 0.40379 0.72597 0.0
H139 H 0.93462 0.38171 0.72264 0.0
H140 H 0.84526 0.39283 0.66163 0.0
H141 H 0.83576 0.36425 0.67115 0.0
H142 H 0.84981 0.36894 0.64425 0.0
C143 C 0.19201 0.34577 0.69685 0.0
N144 N 0.21223 0.35897 0.69654 0.0
N145 N 0.17949 0.35236 0.71375 0.0
C146 C 0.18389 0.32735 0.67964 0.0
C147 C 0.19285 0.37016 0.7237 0.0
N148 N 0.21269 0.37438 0.71308 0.0
C149 C 0.18773 0.38155 0.74558 0.0
H150 H 0.19134 0.33107 0.66247 0.0
H151 H 0.16477 0.32567 0.67641 0.0
H152 H 0.18962 0.31083 0.68722 0.0
H153 H 0.17719 0.36965 0.7568 0.0
H154 H 0.17786 0.3965 0.74014 0.0
H155 H 0.20389 0.38757 0.75632 0.0
C156 C 0.18149 0.32793 0.3978 0.0
N157 N 0.202 0.34063 0.40065 0.0
N158 N 0.1712 0.33122 0.37557 0.0
C159 C 0.17037 0.31405 0.41731 0.0
C160 C 0.18595 0.34669 0.36506 0.0
N161 N 0.2047 0.3525 0.38036 0.0
C162 C 0.18275 0.35491 0.33946 0.0
H163 H 0.17517 0.29623 0.41741 0.0
H164 H 0.15128 0.31368 0.41436 0.0
H165 H 0.17622 0.32111 0.43494 0.0
H166 H 0.1736 0.3707 0.33823 0.0
H167 H 0.17224 0.34192 0.32849 0.0
H168 H 0.19967 0.35895 0.33224 0.0
C169 C 0.21269 0.64561 0.33076 0.0
N170 N 0.21238 0.66507 0.34274 0.0
N171 N 0.23104 0.634 0.33922 0.0
C172 C 0.19515 0.63785 0.31084 0.0
C173 C 0.24191 0.64713 0.35674 0.0
N174 N 0.23076 0.66607 0.35875 0.0
C175 C 0.26326 0.64135 0.37226 0.0
H176 H 0.18049 0.62776 0.31846 0.0
H177 H 0.20259 0.62681 0.29885 0.0
H178 H 0.18847 0.6527 0.30036 0.0
H179 H 0.27817 0.65291 0.36716 0.0
H180 H 0.26737 0.62356 0.37045 0.0
H181 H 0.26116 0.64416 0.39113 0.0
C182 C 0.87634 0.71096 0.35445 0.0
N183 N 0.8886 0.70217 0.33847 0.0
N184 N 0.88915 0.72818 0.36602 0.0
C185 C 0.85221 0.70211 0.35936 0.0
C186 C 0.90954 0.72959 0.35639 0.0
N187 N 0.90917 0.71404 0.33949 0.0
C188 C 0.93002 0.74597 0.36371 0.0
H189 H 0.84195 0.69646 0.34278 0.0
H190 H 0.8431 0.71504 0.36732 0.0
H191 H 0.85316 0.68722 0.37212 0.0
H192 H 0.94131 0.73754 0.3778 0.0
H193 H 0.92448 0.76161 0.37082 0.0
H194 H 0.94022 0.75077 0.34846 0.0
C195 C 0.85597 0.39112 0.35169 0.0
N196 N 0.86679 0.37209 0.35911 0.0
N197 N 0.86212 0.39915 0.33011 0.0
C198 C 0.84146 0.40336 0.36654 0.0
C199 C 0.87678 0.38423 0.32452 0.0
N200 N 0.87985 0.36797 0.34204 0.0
C201 C 0.88864 0.38572 0.30199 0.0
H202 H 0.82306 0.39709 0.36246 0.0
H203 H 0.84322 0.42203 0.36241 0.0
H204 H 0.84643 0.40015 0.38577 0.0
H205 H 0.90608 0.39478 0.30547 0.0
H206 H 0.87873 0.3951 0.28749 0.0
H207 H 0.89079 0.36844 0.29604 0.0
C208 C 0.71274 0.17828 0.68647 0.0
N209 N 0.73053 0.18092 0.67269 0.0
N210 N 0.69838 0.19502 0.6815 0.0
C211 C 0.70968 0.15983 0.7056 0.0
C212 C 0.70807 0.20809 0.66409 0.0
N213 N 0.72765 0.1995 0.65854 0.0
C214 C 0.69867 0.22952 0.65299 0.0
H215 H 0.70405 0.16709 0.72156 0.0
H216 H 0.72564 0.15122 0.71073 0.0
H217 H 0.6959 0.14681 0.69897 0.0
H218 H 0.71288 0.24215 0.64816 0.0
H219 H 0.68813 0.23738 0.66502 0.0
H220 H 0.68737 0.22517 0.63658 0.0
C221 C 0.36429 0.19092 0.71007 0.0
N222 N 0.3839 0.19097 0.72508 0.0
N223 N 0.3631 0.21135 0.69821 0.0
C224 C 0.34589 0.17137 0.70766 0.0
C225 C 0.38265 0.22378 0.70638 0.0
N226 N 0.39515 0.2115 0.72295 0.0
C227 C 0.38997 0.2475 0.69716 0.0
H228 H 0.35119 0.15882 0.69574 0.0
H229 H 0.32914 0.17733 0.69994 0.0
H230 H 0.34371 0.16261 0.72521 0.0
H231 H 0.3797 0.25982 0.70469 0.0
H232 H 0.38638 0.24873 0.67753 0.0
H233 H 0.40853 0.25244 0.70216 0.0
C234 C 0.38853 0.87776 0.71945 0.0
N235 N 0.39039 0.86239 0.70286 0.0
N236 N 0.36955 0.8893 0.71386 0.0
C237 C 0.40528 0.88144 0.74129 0.0
C238 C 0.35996 0.88046 0.69312 0.0
N239 N 0.37265 0.86412 0.68629 0.0
C240 C 0.33712 0.88638 0.68069 0.0
H241 H 0.40045 0.86869 0.75543 0.0
H242 H 0.40495 0.89883 0.7479 0.0
H243 H 0.42315 0.87906 0.73768 0.0
H244 H 0.34024 0.90029 0.66714 0.0
H245 H 0.326 0.89241 0.69342 0.0
H246 H 0.32789 0.87143 0.67161 0.0
C247 C 0.67953 0.85099 0.65212 0.0
N248 N 0.69611 0.86877 0.65198 0.0
N249 N 0.66326 0.85499 0.66641 0.0
C250 C 0.67792 0.8308 0.63652 0.0
C251 C 0.67037 0.87585 0.67486 0.0
N252 N 0.69019 0.88435 0.66595 0.0
C253 C 0.65845 0.88743 0.69267 0.0
H254 H 0.68435 0.8359 0.61909 0.0
H255 H 0.65991 0.82303 0.63351 0.0
H256 H 0.68877 0.81772 0.64535 0.0
H257 H 0.6484 0.87473 0.70355 0.0
H258 H 0.6464 0.89903 0.68304 0.0
H259 H 0.67116 0.89776 0.70458 0.0
C260 C 0.64979 0.84587 0.35703 0.0
N261 N 0.67209 0.85453 0.36083 0.0
N262 N 0.63824 0.85836 0.33974 0.0
C263 C 0.63981 0.82405 0.36843 0.0
C264 C 0.65424 0.8748 0.33305 0.0
N265 N 0.67478 0.8725 0.34585 0.0
C266 C 0.64958 0.8935 0.31456 0.0
H267 H 0.62584 0.81552 0.35635 0.0
H268 H 0.63236 0.8281 0.38481 0.0
H269 H 0.65332 0.81211 0.37333 0.0
H270 H 0.66076 0.90933 0.31883 0.0
H271 H 0.6312 0.89719 0.31316 0.0
H272 H 0.65344 0.88791 0.29707 0.0
C273 C 0.7033 0.1449 0.32009 0.0
N274 N 0.70283 0.16298 0.3341 0.0
N275 N 0.72306 0.13459 0.32534 0.0
C276 C 0.68329 0.13534 0.30353 0.0
C277 C 0.73452 0.14674 0.34317 0.0
N278 N 0.72237 0.16395 0.34865 0.0
C279 C 0.75684 0.14062 0.35661 0.0
H280 H 0.66658 0.1389 0.30963 0.0
H281 H 0.68354 0.11663 0.30214 0.0
H282 H 0.68463 0.14338 0.28553 0.0
H283 H 0.76764 0.15623 0.36239 0.0
H284 H 0.76667 0.13072 0.34555 0.0
H285 H 0.75295 0.13003 0.37272 0.0
C286 C 0.36484 0.1861 0.39964 0.0
N287 N 0.37841 0.17929 0.38363 0.0
N288 N 0.37713 0.20094 0.4148 0.0
C289 C 0.33952 0.17885 0.40004 0.0
C290 C 0.39867 0.20256 0.40769 0.0
N291 N 0.39946 0.18943 0.38887 0.0
C292 C 0.41886 0.21772 0.41852 0.0
H293 H 0.32952 0.19016 0.38746 0.0
H294 H 0.3337 0.18027 0.41786 0.0
H295 H 0.33559 0.16099 0.39446 0.0
H296 H 0.4152 0.22526 0.43512 0.0
H297 H 0.42357 0.23159 0.40542 0.0
H298 H 0.43406 0.20781 0.42291 0.0
C299 C 0.34788 0.87142 0.37355 0.0
N300 N 0.36235 0.85474 0.37888 0.0
N301 N 0.3485 0.87914 0.35064 0.0
C302 C 0.33242 0.87954 0.39045 0.0
C303 C 0.36389 0.86639 0.34221 0.0
N304 N 0.37226 0.85144 0.35934 0.0
C305 C 0.37222 0.87 0.31792 0.0
H306 H 0.32707 0.86551 0.4031 0.0
H307 H 0.31683 0.88624 0.3807 0.0
H308 H 0.34206 0.89348 0.40083 0.0
H309 H 0.39079 0.86719 0.31854 0.0
H310 H 0.36962 0.88749 0.31051 0.0
H311 H 0.3623 0.85755 0.30585 0.0
C312 C 0.68244 0.70622 0.18612 0.0
N313 N 0.69936 0.70879 0.17125 0.0
N314 N 0.66868 0.72369 0.18279 0.0
C315 C 0.67835 0.68572 0.20261 0.0
C316 C 0.67785 0.73693 0.16515 0.0
N317 N 0.69641 0.72779 0.15791 0.0
C318 C 0.67008 0.75991 0.15675 0.0
H319 H 0.65974 0.68228 0.20505 0.0
H320 H 0.688 0.68905 0.22019 0.0
H321 H 0.68456 0.67031 0.1957 0.0
H322 H 0.66204 0.76781 0.17089 0.0
H323 H 0.65705 0.75774 0.14116 0.0
H324 H 0.6848 0.7716 0.15137 0.0
C325 C 0.32783 0.65967 0.17241 0.0
N326 N 0.3445 0.65864 0.19087 0.0
N327 N 0.33183 0.67869 0.1586 0.0
C328 C 0.30772 0.64214 0.16765 0.0
C329 C 0.35152 0.68922 0.16906 0.0
N330 N 0.35947 0.67689 0.18856 0.0
C331 C 0.36221 0.71216 0.16083 0.0
H332 H 0.31222 0.62494 0.17446 0.0
H333 H 0.30212 0.64163 0.14834 0.0
H334 H 0.29302 0.64685 0.17678 0.0
H335 H 0.34931 0.72233 0.15045 0.0
H336 H 0.37576 0.70951 0.14914 0.0
H337 H 0.37025 0.72206 0.17616 0.0
C338 C 0.40227 0.34628 0.22276 0.0
N339 N 0.40655 0.32886 0.20948 0.0
N340 N 0.38765 0.36018 0.21026 0.0
C341 C 0.41299 0.35017 0.24773 0.0
C342 C 0.3832 0.35046 0.18885 0.0
N343 N 0.39463 0.33141 0.18839 0.0
C344 C 0.36847 0.36021 0.16816 0.0
H345 H 0.41434 0.33379 0.25808 0.0
H346 H 0.40282 0.36124 0.25712 0.0
H347 H 0.43071 0.35853 0.247 0.0
H348 H 0.372 0.35344 0.15108 0.0
H349 H 0.37136 0.37912 0.16731 0.0
H350 H 0.35005 0.35559 0.17077 0.0
C351 C 0.71824 0.36323 0.21195 0.0
N352 N 0.73287 0.37972 0.20274 0.0
N353 N 0.71043 0.37019 0.23183 0.0
C354 C 0.71137 0.34038 0.20135 0.0
C355 C 0.72071 0.39159 0.2344 0.0
N356 N 0.73417 0.3976 0.21652 0.0
C357 C 0.71713 0.40674 0.25418 0.0
H358 H 0.69752 0.34238 0.18664 0.0
H359 H 0.70479 0.32774 0.21479 0.0
H360 H 0.72622 0.3339 0.19385 0.0
H361 H 0.73209 0.41955 0.25766 0.0
H362 H 0.7146 0.39669 0.27089 0.0
H363 H 0.70138 0.41575 0.24913 0.0
C364 C 0.70685 0.36894 0.89066 0.0
N365 N 0.72694 0.3824 0.89196 0.0
N366 N 0.69615 0.36934 0.86827 0.0
C367 C 0.6991 0.35321 0.91063 0.0
C368 C 0.71047 0.38372 0.85598 0.0
N369 N 0.72937 0.39139 0.87029 0.0
C370 C 0.70646 0.38909 0.8297 0.0
H371 H 0.70992 0.33855 0.91283 0.0
H372 H 0.68071 0.34671 0.90703 0.0
H373 H 0.70145 0.36228 0.92754 0.0
H374 H 0.68777 0.38936 0.82404 0.0
H375 H 0.71312 0.37559 0.81996 0.0
H376 H 0.71536 0.40587 0.82482 0.0
C377 C 0.71694 0.66401 0.83475 0.0
N378 N 0.71503 0.6829 0.84711 0.0
N379 N 0.73673 0.65442 0.84231 0.0
C380 C 0.69866 0.65371 0.8168 0.0
C381 C 0.7468 0.66802 0.85971 0.0
N382 N 0.7335 0.68508 0.86303 0.0
C383 C 0.77074 0.66575 0.87181 0.0
H384 H 0.69927 0.63493 0.8166 0.0
H385 H 0.70179 0.66105 0.79887 0.0
H386 H 0.6812 0.65751 0.82066 0.0
H387 H 0.78142 0.6575 0.86017 0.0
H388 H 0.76956 0.65493 0.88833 0.0
H389 H 0.77947 0.6827 0.87652 0.0
C390 C 0.38155 0.67645 0.86561 0.0
N391 N 0.39255 0.67098 0.84688 0.0
N392 N 0.39116 0.69642 0.87461 0.0
C393 C 0.36315 0.66127 0.87681 0.0
C394 C 0.40842 0.70289 0.86092 0.0
N395 N 0.40938 0.68748 0.84418 0.0
C396 C 0.42422 0.72445 0.86374 0.0
H397 H 0.34602 0.6648 0.86776 0.0
H398 H 0.36323 0.66465 0.89593 0.0
H399 H 0.36562 0.64299 0.87501 0.0
H400 H 0.44005 0.72054 0.87521 0.0
H401 H 0.41582 0.73767 0.8722 0.0
H402 H 0.42942 0.73128 0.84627 0.0
C403 C 0.39207 0.35885 0.86605 0.0
N404 N 0.40129 0.34006 0.87659 0.0
N405 N 0.40238 0.36586 0.84623 0.0
C406 C 0.37176 0.36928 0.87412 0.0
C407 C 0.41826 0.35062 0.84509 0.0
N408 N 0.41761 0.33492 0.86345 0.0
C409 C 0.43433 0.35095 0.82588 0.0
H410 H 0.36041 0.35626 0.88322 0.0
H411 H 0.36148 0.37726 0.85888 0.0
H412 H 0.37819 0.38269 0.88686 0.0
H413 H 0.45127 0.34508 0.83291 0.0
H414 H 0.43721 0.36835 0.81764 0.0
H415 H 0.42658 0.33917 0.81196 0.0
Cu416 Cu 0.31719 0.26028 0.04066 0.0
N417 N 0.32676 0.28694 0.02327 0.0
N418 N 0.34513 0.30917 0.99644 0.0
C419 C 0.33824 0.28756 1.00365 0.0
C420 C 0.33739 0.32258 1.0121 0.0
C421 C 0.3262 0.30887 0.0286 0.0
O422 O 0.30692 0.23769 0.01663 0.0
C423 C 0.35965 0.26677 0.07025 0.0
O424 O 0.36659 0.28148 0.05372 0.0
H425 H 0.34237 0.27237 0.99553 0.0
H426 H 0.31897 0.31451 0.04391 0.0
N427 N 0.2931 0.2638 0.05933 0.0
N428 N 0.27164 0.25709 0.08994 0.0
C429 C 0.28759 0.24926 0.07752 0.0
C430 C 0.28 0.28135 0.06013 0.0
C431 C 0.26682 0.2773 0.07906 0.0
C432 C 0.28552 0.23392 1.00938 0.0
O433 O 0.27005 0.24258 0.02069 0.0
H434 H 0.29598 0.23379 0.08227 0.0
H435 H 0.28042 0.2963 0.04825 0.0
O436 O 0.34183 0.25299 0.06526 0.0
H437 H 0.33986 0.34103 1.01194 0.0
H438 H 0.2549 0.28852 0.08465 0.0
Cu439 Cu 0.80734 0.30888 0.04052 0.0
N440 N 0.78228 0.31776 0.05794 0.0
N441 N 0.76178 0.33449 0.08245 0.0
C442 C 0.78313 0.33188 0.07622 0.0
C443 C 0.74714 0.3215 0.06756 0.0
C444 C 0.75979 0.31126 0.05253 0.0
O445 O 0.81654 0.28613 0.06735 0.0
C446 C 0.79517 0.35139 1.01372 0.0
O447 O 0.79957 0.36136 0.03413 0.0
H448 H 0.79887 0.34059 0.0843 0.0
H449 H 0.75308 0.29998 0.03846 0.0
N450 N 0.83168 0.29947 0.02267 0.0
N451 N 0.84927 0.28334 0.99524 0.0
C452 C 0.82882 0.28705 1.00303 0.0
C453 C 0.85459 0.30386 0.02756 0.0
C454 C 0.86549 0.29393 1.0107 0.0
C455 C 0.82657 0.29179 0.08747 0.0
O456 O 0.83144 0.31347 0.09193 0.0
H457 H 0.81208 0.28063 0.99487 0.0
H458 H 0.86276 0.31359 0.04233 0.0
O459 O 0.79753 0.33019 1.01259 0.0
H460 H 0.72856 0.31933 0.06767 0.0
H461 H 0.88395 0.29478 1.00976 0.0
Cu462 Cu 0.80982 0.78348 1.00852 0.0
N463 N 0.82227 0.80726 0.98884 0.0
N464 N 0.84048 0.82455 0.95893 0.0
C465 C 0.83097 0.80463 0.96802 0.0
C466 C 0.83763 0.84034 0.97464 0.0
C467 C 0.82633 0.82966 0.99301 0.0
O468 O 0.79932 0.75781 0.98831 0.0
C469 C 0.85119 0.78899 0.04081 0.0
O470 O 0.86054 0.80091 0.02348 0.0
H471 H 0.83085 0.7883 0.95999 0.0
H472 H 0.82185 0.83754 1.00857 0.0
N473 N 0.78368 0.79044 0.02237 0.0
N474 N 0.75559 0.78537 0.04677 0.0
C475 C 0.77611 0.77901 0.04173 0.0
C476 C 0.76748 0.80473 1.01492 0.0
C477 C 0.75009 0.80158 0.02991 0.0
C478 C 0.7853 0.7624 0.97021 0.0
O479 O 0.77943 0.78342 0.96661 0.0
H480 H 0.785 0.76545 0.05124 0.0
H481 H 0.76791 0.81605 0.99929 0.0
O482 O 0.83166 0.77767 0.03637 0.0
H483 H 0.84318 0.85836 0.9729 0.0
H484 H 0.73443 0.81029 0.02828 0.0
Cu485 Cu 0.29939 0.78153 0.01897 0.0
N486 N 0.30632 0.8051 0.04007 0.0
N487 N 0.3024 0.82487 0.07192 0.0
C488 C 0.29926 0.8043 0.062 0.0
C489 C 0.31194 0.83923 0.05558 0.0
C490 C 0.31442 0.82694 0.03594 0.0
O491 O 0.29134 0.7546 0.03856 0.0
C492 C 0.27879 0.80445 0.97967 0.0
O493 O 0.3004 0.81206 0.97788 0.0
H494 H 0.29025 0.78931 0.06975 0.0
H495 H 0.32038 0.83372 0.01932 0.0
N496 N 0.32458 0.77643 1.00264 0.0
N497 N 0.34452 0.76326 0.97528 0.0
C498 C 0.3234 0.76557 0.98211 0.0
C499 C 0.3472 0.78141 1.00903 0.0
C500 C 0.35956 0.77331 0.99219 0.0
C501 C 0.29486 0.73426 0.0343 0.0
O502 O 0.30141 0.72991 1.01362 0.0
H503 H 0.30728 0.75882 0.97287 0.0
H504 H 0.35419 0.79003 0.02496 0.0
O505 O 0.27406 0.79015 0.99647 0.0
H506 H 0.31589 0.85744 0.05729 0.0
H507 H 0.37817 0.77471 0.99248 0.0
Cu508 Cu 0.02259 0.25706 0.29155 0.0
N509 N 0.03669 0.254 0.26379 0.0
N510 N 0.06106 0.24264 0.23959 0.0
C511 C 0.05652 0.24431 0.26233 0.0
C512 C 0.0434 0.25173 0.22623 0.0
C513 C 0.02842 0.25873 0.2412 0.0
O514 O 0.04659 0.26497 0.31626 0.0
C515 C 0.99071 0.22598 0.31398 0.0
O516 O 0.99374 0.23998 0.33164 0.0
H517 H 0.06694 0.23777 0.27759 0.0
H518 H 1.01233 0.26621 0.236 0.0
N519 N 1.00381 0.28145 0.28876 0.0
N520 N 0.97633 0.30296 0.29743 0.0
C521 C 0.98216 0.28154 0.29514 0.0
C522 C 1.01166 0.30358 0.28645 0.0
C523 C 0.9948 0.31687 0.29179 0.0
C524 C 0.0614 0.25229 0.32639 0.0
O525 O 0.05943 0.23035 0.32245 0.0
H526 H 0.97151 0.26635 0.29981 0.0
H527 H 0.02908 0.30956 0.28292 0.0
O528 O 1.00383 0.22904 0.29735 0.0
H529 H 0.04132 0.25305 0.20701 0.0
H530 H 0.99639 0.3353 0.29255 0.0
Cu531 Cu 0.80571 1.00087 0.26352 0.0
N532 N 0.83319 0.01914 0.26992 0.0
N533 N 0.85581 0.05173 0.27065 0.0
C534 C 0.83415 0.04197 0.27108 0.0
C535 C 0.86916 0.03446 0.26913 0.0
C536 C 0.85514 1.01421 0.26907 0.0
O537 O 0.78101 0.02144 0.2615 0.0
C538 C 0.82114 0.98667 0.22024 0.0
O539 O 0.8339 1.00622 0.21979 0.0
H540 H 0.81903 0.05146 0.26999 0.0
H541 H 0.86026 0.99737 0.26649 0.0
N542 N 0.80103 0.97901 0.28779 0.0
N543 N 0.78245 0.94993 0.30666 0.0
C544 C 0.78338 0.96274 0.28635 0.0
C545 C 0.81195 0.9764 0.30975 0.0
C546 C 0.80033 0.95847 0.32158 0.0
C547 C 0.77486 0.02719 0.2812 0.0
O548 O 0.78405 0.01778 0.30101 0.0
H549 H 0.77082 0.96105 0.27096 0.0
H550 H 0.82678 0.9872 0.31685 0.0
O551 O 0.80666 0.98298 0.23562 0.0
H552 H 0.88739 0.03648 0.26677 0.0
H553 H 0.8045 0.9524 0.33973 0.0
Cu554 Cu 0.05765 0.76031 0.26098 0.0
N555 N 0.043 0.78747 0.25895 0.0
N556 N 1.01538 0.80966 0.2441 0.0
C557 C 0.02092 0.78819 0.24962 0.0
C558 C 0.03475 0.82319 0.25041 0.0
C559 C 0.0518 0.80943 0.25965 0.0
O560 O 0.03173 0.73658 0.26175 0.0
C561 C 0.07746 0.77663 0.21842 0.0
O562 O 0.05956 0.78867 0.21398 0.0
H563 H 1.00978 0.77313 0.24479 0.0
H564 H 0.06974 0.81492 0.2646 0.0
N565 N 0.07901 0.75719 0.28777 0.0
N566 N 0.10792 0.74153 0.31002 0.0
C567 C 0.08987 0.73809 0.29334 0.0
C568 C 0.09071 0.7734 0.30133 0.0
C569 C 0.10859 0.76377 0.3151 0.0
C570 C 0.0257 0.72793 0.28158 0.0
O571 O 0.03995 0.73098 0.30085 0.0
H572 H 0.08552 0.72233 0.28415 0.0
H573 H 0.08737 0.79121 0.30029 0.0
O574 O 0.07717 0.76092 0.23478 0.0
H575 H 0.03675 0.84156 0.24755 0.0
H576 H 0.12148 0.77258 0.3273 0.0
Cu577 Cu 0.30714 0.03302 0.26586 0.0
N578 N 0.33412 0.05181 0.27418 0.0
N579 N 0.35738 0.07827 0.29409 0.0
C580 C 0.33546 0.06928 0.28896 0.0
C581 C 0.3704 0.06588 0.28214 0.0
C582 C 0.35599 0.04958 0.26982 0.0
O583 O 0.28183 0.05332 0.25999 0.0
C584 C 0.294 0.9909 0.29279 0.0
O585 O 0.27697 0.98669 0.27614 0.0
H586 H 0.32069 0.07462 0.29663 0.0
H587 H 0.36114 0.03656 0.25912 0.0
N588 N 0.30821 0.0175 0.23766 0.0
N589 N 0.29921 0.98837 0.21323 0.0
C590 C 0.30671 0.99461 0.23556 0.0
C591 C 0.3025 0.02602 0.21555 0.0
C592 C 0.29694 1.00818 0.20052 0.0
C593 C 0.28598 0.07231 0.24844 0.0
O594 O 0.3067 0.07739 0.2416 0.0
H595 H 0.30885 0.98258 0.25049 0.0
H596 H 0.3002 0.04378 0.21105 0.0
O597 O 0.30592 1.01017 0.29242 0.0
H598 H 0.38902 0.06818 0.28257 0.0
H599 H 0.28996 1.00966 0.18209 0.0
Cu600 Cu 0.04716 0.76435 0.76259 0.0
N601 N 0.06771 0.7413 0.76693 0.0
N602 N 0.09591 0.72001 0.75932 0.0
C603 C 0.08475 0.73889 0.75305 0.0
C604 C 0.08549 0.71027 0.77802 0.0
C605 C 0.0682 0.72346 0.78272 0.0
O606 O 0.06685 0.79259 0.76016 0.0
C607 C 0.01975 0.73833 0.72829 0.0
O608 O 0.0302 0.72138 0.73923 0.0
H609 H 0.08834 0.75038 0.73809 0.0
H610 H 0.0565 0.72002 0.79633 0.0
N611 N 0.02875 0.76645 0.78773 0.0
N612 N 1.00039 0.77975 0.8058 0.0
C613 C 1.00778 0.77471 0.78491 0.0
C614 C 0.03479 0.76586 0.81131 0.0
C615 C 1.01736 0.77398 0.82248 0.0
C616 C 0.06287 0.81102 0.76922 0.0
O617 O 0.04245 0.81297 0.77623 0.0
H618 H 0.99917 0.77895 0.76762 0.0
H619 H 0.05134 0.76135 0.81965 0.0
O620 O 0.02568 0.75869 0.73459 0.0
H621 H 0.08996 0.69466 0.78759 0.0
H622 H 1.0177 0.77635 0.84135 0.0
Cu623 Cu 0.32296 0.02926 0.80421 0.0
N624 N 0.35042 0.04809 0.80877 0.0
N625 N 0.37641 0.07612 0.79838 0.0
C626 C 0.36049 0.05931 0.79077 0.0
C627 C 0.37678 0.07496 0.82231 0.0
C628 C 0.3607 0.05767 0.82866 0.0
O629 O 0.29658 0.04764 0.80275 0.0
C630 C 0.33935 0.99642 0.77989 0.0
O631 O 0.35239 0.99586 0.80022 0.0
H632 H 0.35419 0.05697 0.77231 0.0
H633 H 0.35553 0.05384 0.8463 0.0
N634 N 0.31864 1.00781 0.82907 0.0
N635 N 0.30267 0.97586 0.84584 0.0
C636 C 0.30565 0.98805 0.82546 0.0
C637 C 0.32408 1.00837 0.85275 0.0
C638 C 0.31417 0.9886 0.86318 0.0
C639 C 0.29765 0.0692 0.79868 0.0
O640 O 0.31653 0.07976 0.7913 0.0
H641 H 0.2975 0.98335 0.80815 0.0
H642 H 0.33371 0.02242 0.8619 0.0
O643 O 0.3246 1.01124 0.77645 0.0
H644 H 0.38665 0.08683 0.83426 0.0
H645 H 0.31492 0.98424 0.88203 0.0
Cu646 Cu 0.04393 0.25529 0.79239 0.0
N647 N 0.02353 0.27802 0.79241 0.0
N648 N 0.99287 0.29696 0.77934 0.0
C649 C 1.00888 0.28368 0.77346 0.0
C650 C 0.99772 0.29986 0.8029 0.0
C651 C 1.01663 0.28815 0.81092 0.0
O652 O 0.02242 0.22794 0.78944 0.0
C653 C 0.07169 0.28389 0.76548 0.0
O654 O 0.06488 0.2983 0.77974 0.0
H655 H 1.00901 0.27687 0.75606 0.0
H656 H 0.024 0.28615 0.82913 0.0
N657 N 0.06425 0.25315 0.82028 0.0
N658 N 0.09654 0.24486 0.84277 0.0
C659 C 0.08675 0.24953 0.82059 0.0
C660 C 0.05965 0.25091 0.84315 0.0
C661 C 0.07952 0.24568 0.85704 0.0
C662 C 0.02224 0.21139 0.80483 0.0
O663 O 0.04137 0.20779 0.81824 0.0
H664 H 0.0954 0.24888 0.80465 0.0
H665 H 0.04276 0.25166 0.84913 0.0
O666 O 0.06366 0.263 0.76682 0.0
H667 H 0.98784 0.30918 0.81371 0.0
H668 H 0.08113 0.24208 0.87605 0.0
Cu669 Cu 0.81468 0.03851 0.7388 0.0
N670 N 0.82081 0.05318 0.7678 0.0
N671 N 0.83519 0.07951 0.79385 0.0
C672 C 0.833 0.07358 0.77094 0.0
C673 C 0.82404 0.06203 0.80563 0.0
C674 C 0.81515 0.04583 0.7895 0.0
O675 O 0.81029 0.06237 0.71336 0.0
C676 C 0.85488 0.01463 0.75289 0.0
O677 O 0.86044 0.03088 0.76804 0.0
H678 H 0.84031 0.08377 0.75665 0.0
H679 H 0.80535 0.02981 0.7933 0.0
N680 N 0.78715 0.01954 0.73725 0.0
N681 N 0.76214 0.99035 0.72513 0.0
C682 C 0.78445 0.99884 0.72762 0.0
C683 C 0.7658 0.02427 0.74118 0.0
C684 C 0.75031 1.00629 0.73367 0.0
C685 C 0.7981 0.07829 0.718 0.0
O686 O 0.78986 0.07775 0.73875 0.0
H687 H 0.79844 0.99073 0.7213 0.0
H688 H 0.76165 0.04003 0.74809 0.0
O689 O 0.83822 0.01695 0.73674 0.0
H690 H 0.82211 0.06118 0.82447 0.0
H691 H 0.73177 1.00521 0.73405 0.0
Cu692 Cu 0.30292 0.7635 0.52101 0.0
N693 N 0.30431 0.79096 0.53669 0.0
N694 N 0.31668 0.81738 0.56338 0.0
C695 C 0.31707 0.79546 0.55746 0.0
C696 C 0.30285 0.82691 0.5457 0.0
C697 C 0.29526 0.81059 0.52929 0.0
O698 O 0.3038 0.74003 0.54698 0.0
C699 C 0.34136 0.78317 0.49703 0.0
O700 O 0.3447 0.79764 0.51422 0.0
H701 H 0.32732 0.78314 0.5674 0.0
H702 H 0.28447 0.81301 0.51282 0.0
N703 N 0.2756 0.75852 0.50079 0.0
N704 N 0.25196 0.74399 0.47046 0.0
C705 C 0.27386 0.74661 0.48084 0.0
C706 C 0.25407 0.76386 0.50312 0.0
C707 C 0.23943 0.75485 0.48447 0.0
C708 C 0.28761 0.72419 0.5492 0.0
O709 O 0.27249 0.71967 0.53089 0.0
H710 H 0.28831 0.73914 0.47466 0.0
H711 H 0.24928 0.77309 0.51765 0.0
O712 O 0.32706 0.76561 0.49907 0.0
H713 H 0.29868 0.8445 0.54452 0.0
H714 H 0.22097 0.756 0.48163 0.0
Cu715 Cu 0.79087 0.80554 0.50554 0.0
N716 N 0.81685 0.80815 0.48846 0.0
N717 N 0.83943 0.79917 0.46133 0.0
C718 C 0.81772 0.79828 0.46763 0.0
C719 C 0.85284 0.80992 0.47894 0.0
C720 C 0.83883 0.8155 0.49567 0.0
O721 O 0.76329 0.80546 0.48333 0.0
C722 C 0.80754 0.77805 0.54271 0.0
O723 O 0.81935 0.79757 0.54775 0.0
H724 H 0.80289 0.7894 0.45798 0.0
H725 H 0.8444 0.8233 0.51243 0.0
N726 N 0.78966 0.82937 0.52605 0.0
N727 N 0.77915 0.84702 0.55686 0.0
C728 C 0.77953 0.82694 0.54644 0.0
C729 C 0.79576 0.85189 0.52325 0.0
C730 C 0.78922 0.86287 0.54226 0.0
C731 C 0.7636 0.81975 0.46571 0.0
O732 O 0.7823 0.83343 0.46316 0.0
H733 H 0.77184 0.81075 0.55309 0.0
H734 H 0.80382 0.85982 0.50818 0.0
O735 O 0.79288 0.77721 0.52446 0.0
H736 H 0.87145 0.81298 0.47994 0.0
H737 H 0.79152 0.88104 0.54501 0.0
Cu738 Cu 0.81329 0.26815 0.5082 0.0
N739 N 0.80926 0.2427 0.48897 0.0
N740 N 0.79284 0.22187 0.45862 0.0
C741 C 0.79837 0.24305 0.46674 0.0
C742 C 0.80071 0.20756 0.47638 0.0
C743 C 0.81086 0.22044 0.49506 0.0
O744 O 0.81368 0.29449 0.48512 0.0
C745 C 0.79257 0.24912 0.54732 0.0
O746 O 0.81166 0.23876 0.54887 0.0
H747 H 0.7931 0.25849 0.45735 0.0
H748 H 0.81771 0.21395 0.51229 0.0
N749 N 0.84106 0.27116 0.52843 0.0
N750 N 0.8651 0.28303 0.55969 0.0
C751 C 0.8437 0.28334 0.54826 0.0
C752 C 0.86156 0.2627 0.52733 0.0
C753 C 0.87652 0.27023 0.54648 0.0
C754 C 0.83155 0.29715 0.47356 0.0
O755 O 0.84795 0.28341 0.47895 0.0
H756 H 0.83017 0.2925 0.55407 0.0
H757 H 0.86539 0.25194 0.51356 0.0
O758 O 0.78871 0.26358 0.52997 0.0
H759 H 0.79866 0.18909 0.47613 0.0
H760 H 0.89431 0.26643 0.55052 0.0
Cu761 Cu 0.31057 0.30217 0.55592 0.0
N762 N 0.31133 0.32828 0.57362 0.0
N763 N 0.29945 0.34991 0.60062 0.0
C764 C 0.29822 0.32895 0.5917 0.0
C765 C 0.314 0.36308 0.58754 0.0
C766 C 0.32142 0.34964 0.57092 0.0
O767 O 0.30843 0.27698 0.57888 0.0
C768 C 0.28327 0.31937 0.5186 0.0
O769 O 0.29891 0.33669 0.52194 0.0
H770 H 0.28706 0.31446 0.59741 0.0
H771 H 0.33262 0.35527 0.55733 0.0
N772 N 0.33589 0.30017 0.53876 0.0
N773 N 0.35496 0.28802 0.51021 0.0
C774 C 0.33592 0.28484 0.52188 0.0
C775 C 0.35566 0.31369 0.53771 0.0
C776 C 0.36746 0.30624 0.51996 0.0
C777 C 0.30853 0.25577 0.5757 0.0
O778 O 0.30874 0.24853 0.55417 0.0
H779 H 0.32164 0.27228 0.51738 0.0
H780 H 0.36084 0.32823 0.54857 0.0
O781 O 0.28428 0.30181 0.53255 0.0
H782 H 0.31864 0.38117 0.58956 0.0
H783 H 0.38381 0.31374 0.51452 0.0
Cu784 Cu 0.83194 0.52951 0.77843 0.0
N785 N 0.85787 0.54975 0.77492 0.0
N786 N 0.878 0.58009 0.75972 0.0
C787 C 0.85707 0.57099 0.76511 0.0
C788 C 0.89261 0.56397 0.7665 0.0
C789 C 0.88013 0.54525 0.776 0.0
O790 O 0.80551 0.54797 0.77723 0.0
C791 C 0.84285 0.49026 0.75823 0.0
O792 O 0.8555 0.48899 0.77871 0.0
H793 H 0.84113 0.5788 0.76003 0.0
H794 H 0.88651 0.52898 0.78168 0.0
N795 N 0.83367 0.51362 0.80793 0.0
N796 N 0.82263 0.48866 0.83635 0.0
C797 C 0.81888 0.49577 0.81342 0.0
C798 C 0.84745 0.5179 0.82808 0.0
C799 C 0.84045 0.50259 0.84581 0.0
C800 C 0.80486 0.55941 0.79569 0.0
O801 O 0.82141 0.55806 0.81307 0.0
H802 H 0.80504 0.48867 0.80102 0.0
H803 H 0.86103 0.53165 0.82992 0.0
O804 O 0.83046 0.50703 0.75369 0.0
H805 H 0.91071 0.56517 0.76361 0.0
H806 H 0.84762 0.50193 0.86421 0.0
Cu807 Cu 0.32591 0.52412 0.7507 0.0
N808 N 0.35149 0.5067 0.75528 0.0
N809 N 0.37234 0.47908 0.77216 0.0
C810 C 0.35597 0.49323 0.77486 0.0
C811 C 0.37858 0.48391 0.75004 0.0
C812 C 0.36579 0.50111 0.73969 0.0
O813 O 0.29856 0.5023 0.75082 0.0
C814 C 0.34891 0.55823 0.77775 0.0
O815 O 0.36541 0.55298 0.76544 0.0
H816 H 0.34623 0.49269 0.79017 0.0
H817 H 0.36586 0.50799 0.72163 0.0
N818 N 0.32294 0.54129 0.722 0.0
N819 N 0.30829 0.56839 0.69721 0.0
C820 C 0.31385 0.56163 0.72005 0.0
C821 C 0.32332 0.53492 0.69954 0.0
C822 C 0.31427 0.55162 0.6842 0.0
C823 C 0.29896 0.48453 0.73884 0.0
O824 O 0.31693 0.48238 0.72727 0.0
H825 H 0.30947 0.57031 0.73517 0.0
H826 H 0.32823 0.51863 0.6947 0.0
O827 O 0.32931 0.54668 0.77517 0.0
H828 H 0.39092 0.47514 0.74171 0.0
H829 H 0.31124 0.55091 0.66505 0.0
Cu830 Cu 0.31415 0.49506 0.28725 0.0
N831 N 0.31192 0.4767 0.31494 0.0
N832 N 0.29439 0.45156 0.33961 0.0
C833 C 0.29167 0.46657 0.32098 0.0
C834 C 0.31741 0.45215 0.34552 0.0
C835 C 0.32822 0.46774 0.33023 0.0
O836 O 0.31743 0.47384 0.26209 0.0
C837 C 0.28453 0.524 0.30239 0.0
O838 O 0.29744 0.51951 0.32215 0.0
H839 H 0.27529 0.4693 0.31095 0.0
H840 H 0.34661 0.47148 0.32967 0.0
N841 N 0.33895 0.51753 0.28839 0.0
N842 N 0.35678 0.55102 0.27743 0.0
C843 C 0.3372 0.53708 0.27532 0.0
C844 C 0.36055 0.51913 0.29946 0.0
C845 C 0.37175 0.5398 0.29244 0.0
C846 C 0.33707 0.46568 0.26291 0.0
O847 O 0.3534 0.47296 0.27912 0.0
H848 H 0.32189 0.54073 0.26382 0.0
H849 H 0.3678 0.50613 0.31138 0.0
O850 O 0.28757 0.51375 0.28367 0.0
H851 H 0.32584 0.44172 0.35949 0.0
H852 H 0.38939 0.54607 0.29791 0.0
Cu853 Cu 0.8089 0.56299 0.23908 0.0
N854 N 0.83355 0.54481 0.23948 0.0
N855 N 0.85258 0.51451 0.25237 0.0
C856 C 0.83397 0.52601 0.25398 0.0
C857 C 0.86464 0.52677 0.23619 0.0
C858 C 0.85275 0.54549 0.22813 0.0
O859 O 0.78253 0.5402 0.238 0.0
C860 C 0.8332 0.59598 0.26458 0.0
O861 O 0.84357 0.59609 0.24503 0.0
H862 H 0.82081 0.52109 0.26584 0.0
H863 H 0.85773 0.55854 0.21505 0.0
N864 N 0.80352 0.58423 0.21368 0.0
N865 N 0.78836 0.61527 0.19626 0.0
C866 C 0.79199 0.60251 0.21653 0.0
C867 C 0.8074 0.58527 0.19059 0.0
C868 C 0.79792 0.60442 0.17974 0.0
C869 C 0.78222 0.52741 0.22037 0.0
O870 O 0.79716 0.53254 0.2047 0.0
H871 H 0.78572 0.60595 0.23322 0.0
H872 H 0.81608 0.57286 0.18216 0.0
O873 O 0.81599 0.58136 0.26708 0.0
H874 H 0.88074 0.52245 0.23043 0.0
H875 H 0.79805 0.6099 0.16121 0.0
Cu876 Cu 0.55737 0.25891 0.79144 0.0
N877 N 0.54193 0.25173 0.81866 0.0
N878 N 0.51621 0.25956 0.84335 0.0
C879 C 0.53377 0.26795 0.83076 0.0
C880 C 0.51332 0.23704 0.83917 0.0
C881 C 0.52913 0.23228 0.82391 0.0
O882 O 0.53198 0.26191 0.76703 0.0
C883 C 0.59376 0.28443 0.81299 0.0
O884 O 0.59618 0.26405 0.82303 0.0
H885 H 0.53868 0.28601 0.82799 0.0
H886 H 0.52943 0.21636 0.81527 0.0
N887 N 0.57638 0.23689 0.78316 0.0
N888 N 0.60341 0.22243 0.76427 0.0
C889 C 0.59477 0.24157 0.77054 0.0
C890 C 0.57336 0.21394 0.78511 0.0
C891 C 0.58997 0.20499 0.77346 0.0
C892 C 0.52823 0.24947 0.74906 0.0
O893 O 0.54493 0.23838 0.74266 0.0
H894 H 0.60097 0.25873 0.76507 0.0
H895 H 0.55956 0.20435 0.79355 0.0
O896 O 0.5768 0.28693 0.79739 0.0
H897 H 0.49966 0.22521 0.84524 0.0
H898 H 0.59181 0.18704 0.77166 0.0
Cu899 Cu 0.54846 0.76158 0.76027 0.0
N900 N 0.57314 0.76113 0.78442 0.0
N901 N 0.60661 0.75111 0.80331 0.0
C902 C 0.59133 0.7487 0.7838 0.0
C903 C 0.59767 0.7657 0.8168 0.0
C904 C 0.57712 0.772 0.80502 0.0
O905 O 0.56391 0.76041 0.73142 0.0
C906 C 0.51912 0.73583 0.78756 0.0
O907 O 0.52812 0.75167 0.80211 0.0
H908 H 0.59317 0.73786 0.76934 0.0
H909 H 0.56589 0.78366 0.81107 0.0
N910 N 0.53366 0.78869 0.75875 0.0
N911 N 0.50825 0.81383 0.74536 0.0
C912 C 0.51211 0.79152 0.74852 0.0
C913 C 0.54358 0.80987 0.76262 0.0
C914 C 0.52797 0.82539 0.75442 0.0
C915 C 0.56087 0.77439 0.71369 0.0
O916 O 0.54197 0.78508 0.71088 0.0
H917 H 0.50026 0.7776 0.74172 0.0
H918 H 0.56137 0.81379 0.76953 0.0
O919 O 0.52551 0.73627 0.76667 0.0
H920 H 0.60561 0.7717 0.83374 0.0
H921 H 0.53122 0.8438 0.75434 0.0
Cu922 Cu 0.50994 0.76498 0.27056 0.0
N923 N 0.4959 0.76844 0.29856 0.0
N924 N 0.46943 0.77942 0.32079 0.0
C925 C 0.47409 0.77416 0.29887 0.0
C926 C 0.48917 0.77661 0.3349 0.0
C927 C 0.50544 0.76989 0.32115 0.0
O928 O 0.48689 0.75049 0.24777 0.0
C929 C 0.52136 0.81276 0.27047 0.0
O930 O 0.50349 0.81397 0.28247 0.0
H931 H 0.46247 0.77604 0.28289 0.0
H932 H 0.52327 0.7674 0.327 0.0
N933 N 0.53534 0.74736 0.27433 0.0
N934 N 0.56866 0.73482 0.266 0.0
C935 C 0.55125 0.7479 0.25857 0.0
C936 C 0.54282 0.73336 0.29241 0.0
C937 C 0.56338 0.72564 0.28734 0.0
C938 C 0.47463 0.73315 0.25531 0.0
O939 O 0.47833 0.72594 0.27759 0.0
H940 H 0.55038 0.75836 0.24227 0.0
H941 H 0.53417 0.72933 0.30828 0.0
O942 O 0.52315 0.79464 0.25969 0.0
H943 H 0.49198 0.77982 0.35366 0.0
H944 H 0.57363 0.71416 0.29856 0.0
Cu945 Cu 0.55521 0.25787 0.29224 0.0
N946 N 0.54164 0.24822 0.32008 0.0
N947 N 0.51802 0.22873 0.34395 0.0
C948 C 0.52266 0.23352 0.32131 0.0
C949 C 0.53468 0.24076 0.35753 0.0
C950 C 0.54919 0.25278 0.34279 0.0
O951 O 0.53087 0.26088 0.26579 0.0
C952 C 0.59479 0.23654 0.30577 0.0
O953 O 0.5942 0.24998 0.32346 0.0
H954 H 0.51257 0.22635 0.3059 0.0
H955 H 0.56434 0.26382 0.34843 0.0
N956 N 0.57153 0.28651 0.29435 0.0
N957 N 0.59785 0.31418 0.28443 0.0
C958 C 0.58517 0.29494 0.2777 0.0
C959 C 0.57544 0.30118 0.31215 0.0
C960 C 0.59197 0.31822 0.30614 0.0
C961 C 0.51261 0.26962 0.27026 0.0
O962 O 0.51069 0.27525 0.29207 0.0
H963 H 0.58678 0.28634 0.26156 0.0
H964 H 0.56754 0.29929 0.32864 0.0
O965 O 0.57877 0.23683 0.28859 0.0
H966 H 0.53601 0.24117 0.37673 0.0
H967 H 0.59944 0.33216 0.31701 0.0
H968 H 0.23061 0.23157 0.18686 0.0
H969 H 0.22008 0.16518 0.15714 0.0
H970 H 0.24161 0.17945 0.12344 0.0
H971 H 0.25922 0.21246 0.10008 0.0
H972 H 0.26521 0.27953 0.1286 0.0
H973 H 0.24925 0.26375 0.16476 0.0
C974 C 0.23334 0.22022 0.1731 0.0
C975 C 0.22367 0.19746 0.17428 0.0
C976 C 0.24443 0.22892 0.15328 0.0
C977 C 0.22748 0.18273 0.1566 0.0
C978 C 0.23951 0.19101 0.13722 0.0
C979 C 0.2572 0.22348 0.11436 0.0
C980 C 0.26319 0.24719 0.1116 0.0
C981 C 0.24738 0.2143 0.13496 0.0
C982 C 0.2604 0.26134 0.13017 0.0
C983 C 0.25141 0.25229 0.15089 0.0
H984 H 0.85841 0.20723 0.15141 0.0
H985 H 0.84668 0.25089 0.20697 0.0
H986 H 0.83526 0.28057 0.17732 0.0
H987 H 0.82931 0.29426 0.13544 0.0
H988 H 0.83792 0.24915 0.07986 0.0
H989 H 0.84948 0.21967 0.10955 0.0
C990 C 0.85289 0.22306 0.15694 0.0
C991 C 0.85346 0.22698 0.18128 0.0
C992 C 0.84589 0.23976 0.13978 0.0
C993 C 0.84664 0.2477 0.1883 0.0
C994 C 0.84007 0.2646 0.17137 0.0
C995 C 0.83374 0.27796 0.12989 0.0
C996 C 0.83298 0.27392 0.10555 0.0
C997 C 0.83984 0.2609 0.14705 0.0
C998 C 0.83838 0.25263 0.09853 0.0
C999 C 0.84502 0.23579 0.11547 0.0
H1000 H 0.86226 0.8215 0.1457 0.0
H1001 H 0.9238 0.85695 0.1218 0.0
H1002 H 0.91805 0.83593 0.08501 0.0
H1003 H 0.89195 0.81223 0.05718 0.0
H1004 H 0.8297 0.77735 0.08103 0.0
H1005 H 0.83936 0.79297 0.12025 0.0
C1006 C 0.87473 0.82397 0.13269 0.0
C1007 C 0.89344 0.84064 0.13633 0.0
C1008 C 0.87093 0.81219 0.11139 0.0
C1009 C 0.90948 0.84396 0.11942 0.0
C1010 C 0.90599 0.83215 0.09828 0.0
C1011 C 0.88075 0.80759 0.0711 0.0
C1012 C 0.85992 0.79386 0.0659 0.0
C1013 C 0.88626 0.81692 0.09366 0.0
C1014 C 0.84577 0.78792 0.08433 0.0
C1015 C 0.85121 0.79698 0.10682 0.0
H1016 H 0.25373 0.82736 0.16505 0.0
H1017 H 0.23311 0.89027 0.13099 0.0
H1018 H 0.25866 0.88688 0.09992 0.0
H1019 H 0.28283 0.86327 0.0797 0.0
H1020 H 0.30096 0.79875 0.11225 0.0
H1021 H 0.28041 0.80524 0.1465 0.0
C1022 C 0.25525 0.84045 0.15099 0.0
C1023 C 0.24177 0.85909 0.1503 0.0
C1024 C 0.26923 0.83784 0.13272 0.0
C1025 C 0.24369 0.87603 0.13209 0.0
C1026 C 0.25807 0.87391 0.11417 0.0
C1027 C 0.28274 0.85092 0.09456 0.0
C1028 C 0.2933 0.8305 0.09342 0.0
C1029 C 0.27039 0.85454 0.11392 0.0
C1030 C 0.29275 0.81447 0.11266 0.0
C1031 C 0.28102 0.81819 0.13222 0.0
H1032 H 0.19265 0.84506 0.92154 0.0
H1033 H 0.24171 0.85745 0.86958 0.0
H1034 H 0.27135 0.8409 0.89697 0.0
H1035 H 0.28315 0.82252 0.93548 0.0
H1036 H 0.23334 0.80658 0.98635 0.0
H1037 H 0.20384 0.82415 0.95936 0.0
C1038 C 0.2098 0.84393 0.91627 0.0
C1039 C 0.2152 0.85287 0.89383 0.0
C1040 C 0.22645 0.8335 0.93176 0.0
C1041 C 0.23744 0.85139 0.88707 0.0
C1042 C 0.25427 0.84165 0.9026 0.0
C1043 C 0.26581 0.82284 0.94064 0.0
C1044 C 0.26042 0.81341 0.96289 0.0
C1045 C 0.24896 0.83266 0.92497 0.0
C1046 C 0.23785 0.81367 0.96925 0.0
C1047 C 0.22103 0.82381 0.95389 0.0
H1048 H 0.26531 0.20302 0.90343 0.0
H1049 H 0.20058 0.17752 0.92888 0.0
H1050 H 0.21302 0.19342 0.96762 0.0
H1051 H 0.24353 0.21245 0.9952 0.0
H1052 H 0.31038 0.23279 0.97123 0.0
H1053 H 0.2965 0.21993 0.93145 0.0
C1054 C 0.25393 0.20103 0.91749 0.0
C1055 C 0.2318 0.18951 0.91303 0.0
C1056 C 0.26196 0.20863 0.94025 0.0
C1057 C 0.21722 0.18708 0.93137 0.0
C1058 C 0.2246 0.19572 0.95376 0.0
C1059 C 0.25512 0.21388 0.9813 0.0
C1060 C 0.27802 0.22346 0.98623 0.0
C1061 C 0.2471 0.20615 0.95853 0.0
C1062 C 0.29281 0.22518 0.96805 0.0
C1063 C 0.2848 0.21807 0.94522 0.0
H1064 H 0.85091 0.23269 0.8997 0.0
H1065 H 0.91874 0.22036 0.93191 0.0
H1066 H 0.9125 0.24132 0.96682 0.0
H1067 H 0.88751 0.26278 0.98818 0.0
H1068 H 0.81956 0.27556 0.95573 0.0
H1069 H 0.82581 0.25455 0.92119 0.0
C1070 C 0.86418 0.23463 0.91448 0.0
C1071 C 0.88521 0.22506 0.91347 0.0
C1072 C 0.86038 0.24665 0.93445 0.0
C1073 C 0.90247 0.22767 0.9325 0.0
C1074 C 0.89886 0.2396 0.95238 0.0
C1075 C 0.87411 0.2612 0.97351 0.0
C1076 C 0.85305 0.27084 0.97475 0.0
C1077 C 0.87788 0.24917 0.95356 0.0
C1078 C 0.83581 0.26815 0.95557 0.0
C1079 C 0.83943 0.25622 0.93567 0.0
H1080 H 0.86896 0.83631 0.85438 0.0
H1081 H 0.91864 0.88631 0.8874 0.0
H1082 H 0.90582 0.87494 0.9265 0.0
H1083 H 0.87739 0.8537 0.95052 0.0
H1084 H 0.82739 0.80361 0.91765 0.0
H1085 H 0.84324 0.81182 0.87942 0.0
C1086 C 0.87747 0.844 0.87034 0.0
C1087 C 0.89501 0.86178 0.86824 0.0
C1088 C 0.86952 0.8377 0.89268 0.0
C1089 C 0.90549 0.87223 0.88883 0.0
C1090 C 0.89792 0.86595 0.91107 0.0
C1091 C 0.87007 0.84453 0.935 0.0
C1092 C 0.85104 0.82827 0.93688 0.0
C1093 C 0.87942 0.84923 0.91311 0.0
C1094 C 0.84202 0.81619 0.91669 0.0
C1095 C 0.85106 0.82092 0.8948 0.0
H1096 H 0.13294 0.19209 0.19047 0.0
H1097 H 0.17669 0.21382 0.2524 0.0
H1098 H 0.14443 0.23089 0.26734 0.0
H1099 H 0.10403 0.24074 0.26186 0.0
H1100 H 0.06077 0.22045 0.19878 0.0
H1101 H 0.09251 0.20215 0.18488 0.0
C1102 C 0.13521 0.20049 0.20727 0.0
C1103 C 0.15692 0.20159 0.22053 0.0
C1104 C 0.11676 0.21075 0.21532 0.0
C1105 C 0.15995 0.21261 0.24218 0.0
C1106 C 0.14158 0.22245 0.25057 0.0
C1107 C 0.10151 0.23217 0.24517 0.0
C1108 C 0.08 0.23202 0.2314 0.0
C1109 C 0.11993 0.22177 0.2372 0.0
C1110 C 0.07717 0.22111 0.2096 0.0
C1111 C 0.09529 0.21049 0.20171 0.0
H1112 H 0.86169 0.15829 0.2604 0.0
H1113 H 0.87863 0.14405 0.19081 0.0
H1114 H 0.87851 0.10318 0.20201 0.0
H1115 H 0.87134 0.07132 0.23117 0.0
H1116 H 0.85129 0.08529 0.2996 0.0
H1117 H 0.85519 0.12651 0.2898 0.0
C1118 C 0.86543 0.14611 0.24787 0.0
C1119 C 0.86996 0.15381 0.22484 0.0
C1120 C 0.86495 0.12275 0.25438 0.0
C1121 C 0.87478 0.13818 0.20851 0.0
C1122 C 0.87484 0.11495 0.21497 0.0
C1123 C 0.86841 0.08356 0.24401 0.0
C1124 C 0.86156 0.07564 0.26621 0.0
C1125 C 0.86973 0.10701 0.23779 0.0
C1126 C 0.85698 0.09132 0.2826 0.0
C1127 C 0.85903 0.11474 0.27691 0.0
H1128 H 0.91498 0.82557 0.19845 0.0
H1129 H 0.95274 0.87777 0.15877 0.0
H1130 H 0.98941 0.86577 0.17826 0.0
H1131 H 1.01043 0.84246 0.20932 0.0
H1132 H 0.97252 0.79035 0.24939 0.0
H1133 H 0.93625 0.80016 0.22737 0.0
C1134 C 0.93134 0.83365 0.19357 0.0
C1135 C 0.93139 0.85212 0.17689 0.0
C1136 C 0.95224 0.82706 0.20544 0.0
C1137 C 0.95253 0.86313 0.17115 0.0
C1138 C 0.97339 0.8565 0.18257 0.0
C1139 C 0.9942 0.83338 0.21327 0.0
C1140 C 0.99411 0.81595 0.23121 0.0
C1141 C 0.97343 0.83892 0.20026 0.0
C1142 C 0.973 0.80392 0.23575 0.0
C1143 C 0.95227 0.80948 0.22312 0.0
H1144 H 0.26202 0.88498 0.2023 0.0
H1145 H 0.20759 0.91649 0.1595 0.0
H1146 H 0.22857 0.95424 0.16457 0.0
H1147 H 0.26098 0.97836 0.18347 0.0
H1148 H 0.31451 0.94764 0.2288 0.0
H1149 H 0.29548 0.90952 0.22067 0.0
C1150 C 0.25507 0.90019 0.19392 0.0
C1151 C 0.23347 0.8982 0.18043 0.0
C1152 C 0.26701 0.92188 0.19754 0.0
C1153 C 0.22425 0.91786 0.16987 0.0
C1154 C 0.23622 0.93934 0.17281 0.0
C1155 C 0.2688 0.96334 0.19116 0.0
C1156 C 0.28933 0.96588 0.20653 0.0
C1157 C 0.25745 0.94161 0.18688 0.0
C1158 C 0.29878 0.94615 0.21688 0.0
C1159 C 0.28788 0.92437 0.21225 0.0
H1160 H 0.16078 0.85508 0.80696 0.0
H1161 H 0.12415 0.86435 0.86734 0.0
H1162 H 0.08741 0.85171 0.84482 0.0
H1163 H 0.06675 0.83419 0.80956 0.0
H1164 H 0.10402 0.82087 0.75051 0.0
H1165 H 0.13951 0.83941 0.77046 0.0
C1166 C 0.1446 0.85461 0.81484 0.0
C1167 C 0.14478 0.86057 0.83854 0.0
C1168 C 0.12383 0.84665 0.80201 0.0
C1169 C 0.12405 0.85977 0.84904 0.0
C1170 C 0.1032 0.85257 0.83619 0.0
C1171 C 0.08249 0.83591 0.80076 0.0
C1172 C 0.08279 0.82633 0.77854 0.0
C1173 C 0.10296 0.84549 0.81285 0.0
C1174 C 0.10341 0.82823 0.76757 0.0
C1175 C 0.1237 0.83866 0.77905 0.0
H1176 H 0.22259 0.11222 0.85121 0.0
H1177 H 0.26442 0.17366 0.83451 0.0
H1178 H 0.28756 0.1522 0.81111 0.0
H1179 H 0.29803 0.11547 0.79884 0.0
H1180 H 0.25727 0.05335 0.81704 0.0
H1181 H 0.23132 0.07542 0.83602 0.0
C1182 C 0.2365 0.12078 0.84197 0.0
C1183 C 0.24188 0.14436 0.84424 0.0
C1184 C 0.24994 0.10819 0.829 0.0
C1185 C 0.26006 0.1555 0.83265 0.0
C1186 C 0.27327 0.14323 0.81944 0.0
C1187 C 0.28327 0.10673 0.8066 0.0
C1188 C 0.27977 0.08272 0.80663 0.0
C1189 C 0.2687 0.11948 0.81794 0.0
C1190 C 0.26048 0.07178 0.8168 0.0
C1191 C 0.24565 0.08439 0.82777 0.0
H1192 H 0.94114 0.17537 0.8655 0.0
H1193 H 0.90673 0.22585 0.82125 0.0
H1194 H 0.93903 0.23101 0.79647 0.0
H1195 H 0.97924 0.22513 0.79125 0.0
H1196 H 1.0147 0.17592 0.83699 0.0
H1197 H 0.97984 0.16585 0.85694 0.0
C1198 C 0.94058 0.18693 0.84997 0.0
C1199 C 0.92177 0.20024 0.84503 0.0
C1200 C 0.95952 0.19018 0.83627 0.0
C1201 C 0.92112 0.21546 0.82517 0.0
C1202 C 0.93962 0.21847 0.81116 0.0
C1203 C 0.97923 0.21176 0.80515 0.0
C1204 C 0.99976 0.20148 0.81272 0.0
C1205 C 0.95928 0.20651 0.81705 0.0
C1206 C 0.99927 0.18424 0.83085 0.0
C1207 C 0.97934 0.17854 0.8424 0.0
H1208 H 0.87182 0.91035 0.77468 0.0
H1209 H 0.91502 0.93995 0.83334 0.0
H1210 H 0.90824 0.97844 0.81718 0.0
H1211 H 0.88744 1.00343 0.78836 0.0
H1212 H 0.84251 0.9743 0.73026 0.0
H1213 H 0.85279 0.93604 0.74377 0.0
C1214 C 0.87994 0.92533 0.78358 0.0
C1215 C 0.89387 0.92252 0.80514 0.0
C1216 C 0.87559 0.94744 0.7743 0.0
C1217 C 0.90425 0.9419 0.81675 0.0
C1218 C 0.90033 0.96382 0.80752 0.0
C1219 C 0.88012 0.98881 0.77836 0.0
C1220 C 0.86411 0.9919 0.75831 0.0
C1221 C 0.88567 0.96681 0.78657 0.0
C1222 C 0.8549 0.97258 0.74569 0.0
C1223 C 0.86067 0.95061 0.75352 0.0
H1224 H 0.19986 0.12821 0.21456 0.0
H1225 H 0.2537 0.1831 0.21181 0.0
H1226 H 0.28283 0.15626 0.22371 0.0
H1227 H 0.29283 0.11757 0.2369 0.0
H1228 H 0.23875 0.06339 0.24397 0.0
H1229 H 0.20973 0.08975 0.22955 0.0
C1230 C 0.21796 0.13432 0.21681 0.0
C1231 C 0.22455 0.1577 0.21228 0.0
C1232 C 0.23449 0.11898 0.22493 0.0
C1233 C 0.24814 0.16521 0.2147 0.0
C1234 C 0.26477 0.1499 0.22186 0.0
C1235 C 0.27468 0.11149 0.23536 0.0
C1236 C 0.268 0.08845 0.24152 0.0
C1237 C 0.25812 0.12681 0.22734 0.0
C1238 C 0.24438 0.081 0.23956 0.0
C1239 C 0.22781 0.09605 0.23113 0.0
H1240 H 0.23018 0.89161 0.83178 0.0
H1241 H 0.21649 0.90788 0.90183 0.0
H1242 H 0.24881 0.93785 0.90346 0.0
H1243 H 0.27865 0.96142 0.88303 0.0
H1244 H 0.29298 0.94347 0.81336 0.0
H1245 H 0.26289 0.912 0.81343 0.0
C1246 C 0.23455 0.90169 0.84738 0.0
C1247 C 0.22112 0.89805 0.86653 0.0
C1248 C 0.25313 0.91854 0.84816 0.0
C1249 C 0.22679 0.91073 0.88693 0.0
C1250 C 0.24515 0.92777 0.88779 0.0
C1251 C 0.27553 0.95034 0.86811 0.0
C1252 C 0.2877 0.95515 0.84799 0.0
C1253 C 0.25818 0.93213 0.86828 0.0
C1254 C 0.28342 0.94055 0.82879 0.0
C1255 C 0.26627 0.92249 0.82882 0.0
H1256 H 0.19914 0.21858 0.85105 0.0
H1257 H 0.17156 0.16761 0.89988 0.0
H1258 H 0.13494 0.18523 0.89646 0.0
H1259 H 0.1093 0.21264 0.87597 0.0
H1260 H 0.13545 0.26082 0.82333 0.0
H1261 H 0.1738 0.24687 0.83139 0.0
C1262 C 0.18528 0.21192 0.86148 0.0
C1263 C 0.18842 0.19262 0.87675 0.0
C1264 C 0.16379 0.22135 0.85818 0.0
C1265 C 0.17002 0.18329 0.88925 0.0
C1266 C 0.1489 0.19308 0.88683 0.0
C1267 C 0.12351 0.22035 0.86661 0.0
C1268 C 0.11952 0.23779 0.84909 0.0
C1269 C 0.1454 0.21182 0.87093 0.0
C1270 C 0.13803 0.24729 0.83676 0.0
C1271 C 0.15998 0.23936 0.84142 0.0
H1272 H 0.87445 0.17868 0.82253 0.0
H1273 H 0.89265 0.14249 0.88866 0.0
H1274 H 0.87767 0.10613 0.87121 0.0
H1275 H 0.85706 0.08503 0.83778 0.0
H1276 H 0.83864 0.12124 0.77148 0.0
H1277 H 0.85614 0.15706 0.78805 0.0
C1278 C 0.87547 0.16271 0.83283 0.0
C1279 C 0.88441 0.16309 0.85681 0.0
C1280 C 0.86658 0.14194 0.82269 0.0
C1281 C 0.88561 0.14245 0.87022 0.0
C1282 C 0.877 0.12174 0.86026 0.0
C1283 C 0.85686 0.10077 0.82699 0.0
C1284 C 0.8464 0.10044 0.80347 0.0
C1285 C 0.86696 0.12133 0.83666 0.0
C1286 C 0.84668 0.12095 0.78957 0.0
C1287 C 0.85661 0.14148 0.79907 0.0
H1288 H 0.91207 0.83467 0.79792 0.0
H1289 H 0.94502 0.8602 0.86392 0.0
H1290 H 0.97514 0.83379 0.8637 0.0
H1291 H 0.99417 0.80621 0.84247 0.0
H1292 H 0.96114 0.78112 0.77594 0.0
H1293 H 0.92933 0.80468 0.7784 0.0
C1294 C 0.92568 0.8341 0.8124 0.0
C1295 C 0.92627 0.84923 0.83099 0.0
C1296 C 0.9432 0.81923 0.81179 0.0
C1297 C 0.94397 0.84843 0.84968 0.0
C1298 C 0.96134 0.83352 0.84936 0.0
C1299 C 0.97987 0.80551 0.82869 0.0
C1300 C 0.98043 0.79198 0.80883 0.0
C1301 C 0.96145 0.8192 0.83021 0.0
C1302 C 0.9616 0.79163 0.79116 0.0
C1303 C 0.94326 0.80505 0.79261 0.0
H1304 H 0.84239 0.89126 0.18519 0.0
H1305 H 0.90344 0.93156 0.16624 0.0
H1306 H 0.88787 0.96642 0.17722 0.0
H1307 H 0.85847 0.98478 0.19554 0.0
H1308 H 0.79773 0.94435 0.21597 0.0
H1309 H 0.81122 0.91037 0.20067 0.0
C1310 C 0.85199 0.90779 0.18321 0.0
C1311 C 0.87405 0.90901 0.17519 0.0
C1312 C 0.84299 0.92768 0.18983 0.0
C1313 C 0.88653 0.93037 0.17266 0.0
C1314 C 0.87761 0.95023 0.17888 0.0
C1315 C 0.84793 0.96866 0.19625 0.0
C1316 C 0.82716 0.96718 0.20704 0.0
C1317 C 0.85607 0.94904 0.18797 0.0
C1318 C 0.81383 0.94603 0.20784 0.0
C1319 C 0.82158 0.92652 0.1992 0.0
H1320 H 0.18112 0.80717 0.19998 0.0
H1321 H 0.14965 0.86735 0.17163 0.0
H1322 H 0.1114 0.84913 0.17843 0.0
H1323 H 0.08716 0.81677 0.19396 0.0
H1324 H 0.11841 0.75657 0.2234 0.0
H1325 H 0.15633 0.77375 0.21412 0.0
C1326 C 0.1658 0.81613 0.19526 0.0
C1327 C 0.16812 0.83865 0.18564 0.0
C1328 C 0.14384 0.80546 0.1992 0.0
C1329 C 0.14824 0.85019 0.17948 0.0
C1330 C 0.1264 0.8397 0.1832 0.0
C1331 C 0.10216 0.80718 0.19803 0.0
C1332 C 0.0998 0.78532 0.20935 0.0
C1333 C 0.124 0.81741 0.19323 0.0
C1334 C 0.1196 0.77335 0.21462 0.0
C1335 C 0.14136 0.78325 0.20946 0.0
H1336 H 0.88891 0.21083 0.27248 0.0
H1337 H 0.91997 0.1712 0.22462 0.0
H1338 H 0.95597 0.17274 0.25104 0.0
H1339 H 0.98028 0.19187 0.28332 0.0
H1340 H 0.94965 0.23313 0.33038 0.0
H1341 H 0.91163 0.22383 0.30942 0.0
C1342 C 0.90346 0.20207 0.26836 0.0
C1343 C 0.90219 0.19114 0.24675 0.0
C1344 C 0.92412 0.20345 0.28342 0.0
C1345 C 0.92083 0.17967 0.24128 0.0
C1346 C 0.94135 0.18068 0.25629 0.0
C1347 C 0.96516 0.19816 0.2895 0.0
C1348 C 0.96786 0.21357 0.308 0.0
C1349 C 0.94349 0.19342 0.27683 0.0
C1350 C 0.94811 0.22134 0.3161 0.0
C1351 C 0.92635 0.21628 0.30389 0.0
H1352 H 0.26662 0.70803 0.6565 0.0
H1353 H 0.20964 0.66564 0.62352 0.0
H1354 H 0.22546 0.67161 0.58495 0.0
H1355 H 0.25328 0.6921 0.56011 0.0
H1356 H 0.3099 0.73581 0.59266 0.0
H1357 H 0.29686 0.72587 0.63184 0.0
C1358 C 0.25803 0.69987 0.64084 0.0
C1359 C 0.23699 0.68655 0.64255 0.0
C1360 C 0.26712 0.70373 0.61869 0.0
C1361 C 0.22581 0.676 0.62235 0.0
C1362 C 0.23483 0.67948 0.60039 0.0
C1363 C 0.26305 0.69919 0.57577 0.0
C1364 C 0.28249 0.71485 0.57327 0.0
C1365 C 0.25516 0.69378 0.59823 0.0
C1366 C 0.2949 0.72372 0.59392 0.0
C1367 C 0.28735 0.71816 0.61638 0.0
H1368 H 0.85142 0.68966 0.58525 0.0
H1369 H 0.86352 0.73116 0.64644 0.0
H1370 H 0.84003 0.76005 0.62621 0.0
H1371 H 0.82072 0.77552 0.5894 0.0
H1372 H 0.80835 0.73468 0.52754 0.0
H1373 H 0.82677 0.70315 0.54969 0.0
C1374 C 0.8483 0.70482 0.59414 0.0
C1375 C 0.85908 0.70864 0.61707 0.0
C1376 C 0.83495 0.72139 0.58223 0.0
C1377 C 0.85524 0.7282 0.62872 0.0
C1378 C 0.84196 0.74464 0.61715 0.0
C1379 C 0.82165 0.75952 0.58094 0.0
C1380 C 0.81352 0.7574 0.55691 0.0
C1381 C 0.83241 0.74176 0.59365 0.0
C1382 C 0.8145 0.73659 0.54611 0.0
C1383 C 0.8252 0.71868 0.55869 0.0
H1384 H 0.91224 0.3462 0.64051 0.0
H1385 H 0.84931 0.32408 0.67134 0.0
H1386 H 0.83723 0.29884 0.63835 0.0
H1387 H 0.84313 0.28576 0.5988 0.0
H1388 H 0.9068 0.30643 0.56859 0.0
H1389 H 0.92034 0.32924 0.60322 0.0
C1390 C 0.89629 0.33526 0.64031 0.0
C1391 C 0.88162 0.33696 0.65823 0.0
C1392 C 0.88949 0.32081 0.62119 0.0
C1393 C 0.86075 0.32306 0.65762 0.0
C1394 C 0.85383 0.30874 0.63872 0.0
C1395 C 0.86002 0.29516 0.59995 0.0
C1396 C 0.87385 0.29468 0.58106 0.0
C1397 C 0.86776 0.30797 0.62005 0.0
C1398 C 0.89588 0.30657 0.58291 0.0
C1399 C 0.90357 0.31966 0.60267 0.0
H1400 H 0.23152 0.38875 0.66488 0.0
H1401 H 0.23411 0.32104 0.69688 0.0
H1402 H 0.26298 0.31269 0.67091 0.0
H1403 H 0.2856 0.32381 0.63758 0.0
H1404 H 0.28301 0.39119 0.60446 0.0
H1405 H 0.2566 0.40086 0.63265 0.0
C1406 C 0.2387 0.37233 0.66619 0.0
C1407 C 0.23065 0.35536 0.68244 0.0
C1408 C 0.25526 0.36766 0.65105 0.0
C1409 C 0.23995 0.33413 0.6842 0.0
C1410 C 0.25644 0.32941 0.66943 0.0
C1411 C 0.27927 0.34062 0.63652 0.0
C1412 C 0.28604 0.35663 0.61874 0.0
C1413 C 0.26389 0.34588 0.6525 0.0
C1414 C 0.27813 0.37855 0.618 0.0
C1415 C 0.26289 0.38403 0.63402 0.0
H1416 H 0.2175 0.30415 0.42474 0.0
H1417 H 0.22221 0.37763 0.4235 0.0
H1418 H 0.24834 0.37761 0.46027 0.0
H1419 H 0.26885 0.35637 0.49317 0.0
H1420 H 0.26084 0.28266 0.49618 0.0
H1421 H 0.23603 0.28293 0.45871 0.0
C1422 C 0.22409 0.3201 0.43275 0.0
C1423 C 0.2181 0.34084 0.42161 0.0
C1424 C 0.23809 0.31983 0.45429 0.0
C1425 C 0.22697 0.3615 0.4317 0.0
C1426 C 0.24165 0.36145 0.45278 0.0
C1427 C 0.26155 0.34039 0.48566 0.0
C1428 C 0.26661 0.31953 0.49731 0.0
C1429 C 0.24715 0.34069 0.46431 0.0
C1430 C 0.25698 0.29892 0.48757 0.0
C1431 C 0.24298 0.29906 0.4661 0.0
H1432 H 0.20466 0.67769 0.39204 0.0
H1433 H 0.27047 0.69297 0.36449 0.0
H1434 H 0.28284 0.71927 0.39649 0.0
H1435 H 0.27553 0.73651 0.43339 0.0
H1436 H 0.2096 0.72144 0.46115 0.0
H1437 H 0.19646 0.69696 0.42791 0.0
C1438 C 0.22156 0.68706 0.393 0.0
C1439 C 0.23682 0.68325 0.37623 0.0
C1440 C 0.2285 0.70216 0.4115 0.0
C1441 C 0.25869 0.69539 0.37752 0.0
C1442 C 0.26569 0.71045 0.39574 0.0
C1443 C 0.25831 0.72785 0.43221 0.0
C1444 C 0.24369 0.73073 0.44994 0.0
C1445 C 0.2509 0.71367 0.41308 0.0
C1446 C 0.22121 0.7197 0.44777 0.0
C1447 C 0.21371 0.70556 0.4288 0.0
H1448 H 0.8545 0.75531 0.36567 0.0
H1449 H 0.91138 0.72942 0.40998 0.0
H1450 H 0.90208 0.75065 0.44346 0.0
H1451 H 0.87664 0.77549 0.46051 0.0
H1452 H 0.81793 0.79892 0.41698 0.0
H1453 H 0.82865 0.77959 0.3829 0.0
C1454 C 0.86462 0.75419 0.38278 0.0
C1455 C 0.88342 0.7407 0.38556 0.0
C1456 C 0.85876 0.76598 0.40203 0.0
C1457 C 0.89683 0.73973 0.40757 0.0
C1458 C 0.89147 0.7518 0.42666 0.0
C1459 C 0.86641 0.77653 0.44347 0.0
C1460 C 0.84661 0.7887 0.44115 0.0
C1461 C 0.87238 0.76488 0.42416 0.0
C1462 C 0.8332 0.78959 0.41912 0.0
C1463 C 0.83933 0.77857 0.39967 0.0
H1464 H 0.82671 0.35595 0.37633 0.0
H1465 H 0.90057 0.3586 0.39215 0.0
H1466 H 0.89595 0.33605 0.42884 0.0
H1467 H 0.87106 0.31547 0.45666 0.0
H1468 H 0.79708 0.31512 0.44329 0.0
H1469 H 0.80152 0.3377 0.40608 0.0
C1470 C 0.84178 0.3517 0.38792 0.0
C1471 C 0.86403 0.35853 0.38098 0.0
C1472 C 0.83893 0.33949 0.40971 0.0
C1473 C 0.88333 0.35285 0.39626 0.0
C1474 C 0.88066 0.34025 0.41758 0.0
C1475 C 0.85585 0.3205 0.44574 0.0
C1476 C 0.83373 0.31356 0.4528 0.0
C1477 C 0.85857 0.33344 0.42446 0.0
C1478 C 0.81428 0.32039 0.43846 0.0
C1479 C 0.81685 0.33312 0.41705 0.0
H1480 H 0.1679 0.6671 0.7127 0.0
H1481 H 0.19446 0.73582 0.69512 0.0
H1482 H 0.16358 0.75096 0.71422 0.0
H1483 H 0.12918 0.74459 0.73658 0.0
H1484 H 0.10382 0.67574 0.75574 0.0
H1485 H 0.1342 0.66076 0.73602 0.0
C1486 C 0.16702 0.68537 0.7133 0.0
C1487 C 0.18342 0.70032 0.70243 0.0
C1488 C 0.14946 0.69394 0.72476 0.0
C1489 C 0.18187 0.72398 0.70306 0.0
C1490 C 0.16429 0.73262 0.71411 0.0
C1491 C 0.13023 0.72632 0.73633 0.0
C1492 C 0.11414 0.71135 0.7477 0.0
C1493 C 0.14796 0.71777 0.72504 0.0
C1494 C 0.11604 0.68769 0.74743 0.0
C1495 C 0.13338 0.67909 0.73601 0.0
H1496 H 0.87554 0.67099 0.69736 0.0
H1497 H 0.91522 0.63373 0.6552 0.0
H1498 H 0.91696 0.60284 0.68587 0.0
H1499 H 0.90381 0.58493 0.72291 0.0
H1500 H 0.86075 0.62049 0.76322 0.0
H1501 H 0.86348 0.65358 0.73527 0.0
C1502 C 0.8848 0.65619 0.69525 0.0
C1503 C 0.89573 0.65466 0.67452 0.0
C1504 C 0.88486 0.63819 0.71252 0.0
C1505 C 0.90738 0.6354 0.67146 0.0
C1506 C 0.90811 0.6177 0.68883 0.0
C1507 C 0.89551 0.60015 0.72581 0.0
C1508 C 0.88222 0.60044 0.7451 0.0
C1509 C 0.89656 0.61872 0.70925 0.0
C1510 C 0.87105 0.62001 0.74844 0.0
C1511 C 0.87258 0.63885 0.73246 0.0
H1512 H 0.90058 0.33185 0.7306 0.0
H1513 H 0.94293 0.34843 0.67343 0.0
H1514 H 0.97439 0.32858 0.69516 0.0
H1515 H 0.99147 0.31113 0.73308 0.0
H1516 H 0.9498 0.29882 0.79172 0.0
H1517 H 0.91664 0.31266 0.76726 0.0
C1518 C 0.91648 0.33035 0.72268 0.0
C1519 C 0.91935 0.34106 0.7003 0.0
C1520 C 0.93484 0.32034 0.73598 0.0
C1521 C 0.94015 0.33971 0.69031 0.0
C1522 C 0.95825 0.32876 0.70298 0.0
C1523 C 0.97503 0.31126 0.74033 0.0
C1524 C 0.97317 0.3042 0.76428 0.0
C1525 C 0.95608 0.31974 0.72622 0.0
C1526 C 0.9518 0.30457 0.77353 0.0
C1527 C 0.93278 0.31231 0.75948 0.0
H1528 H 0.20825 0.4189 0.71847 0.0
H1529 H 0.25842 0.36928 0.72141 0.0
H1530 H 0.28959 0.39922 0.72993 0.0
H1531 H 0.30256 0.43956 0.73597 0.0
H1532 H 0.25249 0.48882 0.73726 0.0
H1533 H 0.22107 0.45881 0.7287 0.0
C1534 C 0.22599 0.41465 0.72132 0.0
C1535 C 0.23107 0.39199 0.71882 0.0
C1536 C 0.24372 0.43181 0.72729 0.0
C1537 C 0.25413 0.38669 0.72244 0.0
C1538 C 0.27192 0.40375 0.72762 0.0
C1539 C 0.28473 0.44367 0.73459 0.0
C1540 C 0.27977 0.46634 0.73708 0.0
C1541 C 0.26691 0.42636 0.72995 0.0
C1542 C 0.25667 0.47145 0.73555 0.0
C1543 C 0.23876 0.45434 0.73047 0.0
H1544 H 0.16009 0.28618 0.3744 0.0
H1545 H 0.13453 0.35149 0.35472 0.0
H1546 H 0.09736 0.33257 0.33895 0.0
H1547 H 0.07268 0.29764 0.33067 0.0
H1548 H 0.09817 0.23187 0.34968 0.0
H1549 H 0.13483 0.2508 0.36657 0.0
C1550 C 0.14624 0.29612 0.36671 0.0
C1551 C 0.14979 0.32007 0.36554 0.0
C1552 C 0.12503 0.2851 0.35792 0.0
C1553 C 0.13205 0.33301 0.35544 0.0
C1554 C 0.11086 0.32221 0.34665 0.0
C1555 C 0.08612 0.28734 0.33868 0.0
C1556 C 0.08266 0.26333 0.33893 0.0
C1557 C 0.10719 0.29828 0.34783 0.0
C1558 C 0.10036 0.25036 0.34932 0.0
C1559 C 0.12135 0.26117 0.35885 0.0
H1560 H 0.24601 0.62104 0.29862 0.0
H1561 H 0.22728 0.5963 0.36742 0.0
H1562 H 0.23975 0.55868 0.36078 0.0
H1563 H 0.2595 0.53418 0.33713 0.0
H1564 H 0.27799 0.55796 0.26787 0.0
H1565 H 0.26169 0.59435 0.2725 0.0
C1566 C 0.24433 0.6072 0.31187 0.0
C1567 C 0.23598 0.61135 0.33362 0.0
C1568 C 0.25147 0.58551 0.30778 0.0
C1569 C 0.23383 0.5934 0.35071 0.0
C1570 C 0.24095 0.57197 0.34689 0.0
C1571 C 0.25942 0.54712 0.32279 0.0
C1572 C 0.26983 0.54334 0.30215 0.0
C1573 C 0.25027 0.56798 0.32574 0.0
C1574 C 0.26973 0.56028 0.28375 0.0
C1575 C 0.26067 0.58121 0.28656 0.0
H1576 H 0.92138 0.72957 0.29666 0.0
H1577 H 0.94224 0.68833 0.35856 0.0
H1578 H 0.98023 0.68614 0.34435 0.0
H1579 H 1.00883 0.70047 0.31688 0.0
H1580 H 0.98709 0.73958 0.25342 0.0
H1581 H 0.94782 0.73736 0.26503 0.0
C1582 C 0.9339 0.71923 0.30639 0.0
C1583 C 0.92901 0.70868 0.32835 0.0
C1584 C 0.95555 0.71788 0.2979 0.0
C1585 C 0.94566 0.69617 0.34142 0.0
C1586 C 0.96735 0.69508 0.33336 0.0
C1587 C 0.99536 0.70796 0.30524 0.0
C1588 C 1.00109 0.72066 0.28459 0.0
C1589 C 0.97272 0.70646 0.31197 0.0
C1590 C 0.98334 0.72999 0.26957 0.0
C1591 C 0.96083 0.72883 0.27628 0.0
H1592 H 0.89211 0.43258 0.31454 0.0
H1593 H 0.81964 0.41233 0.31619 0.0
H1594 H 0.81008 0.44645 0.2917 0.0
H1595 H 0.82254 0.48136 0.26895 0.0
H1596 H 0.89518 0.50105 0.26639 0.0
H1597 H 0.90459 0.46731 0.29129 0.0
C1598 C 0.87425 0.43565 0.30938 0.0
C1599 C 0.85655 0.41998 0.31702 0.0
C1600 C 0.86899 0.45497 0.29488 0.0
C1601 C 0.83347 0.42427 0.31063 0.0
C1602 C 0.82806 0.44364 0.2965 0.0
C1603 C 0.84044 0.4784 0.27397 0.0
C1604 C 0.85815 0.49388 0.2659 0.0
C1605 C 0.84569 0.45903 0.2884 0.0
C1606 C 0.88124 0.48939 0.27215 0.0
C1607 C 0.88661 0.47019 0.28657 0.0
H1608 H 0.23384 0.63553 0.65917 0.0
H1609 H 0.2703 0.67621 0.71438 0.0
H1610 H 0.29845 0.64765 0.72278 0.0
H1611 H 0.31081 0.60964 0.71631 0.0
H1612 H 0.27493 0.56928 0.6603 0.0
H1613 H 0.24876 0.59918 0.64988 0.0
C1614 C 0.24821 0.63817 0.67274 0.0
C1615 C 0.24987 0.65757 0.68654 0.0
C1616 C 0.26434 0.6217 0.67732 0.0
C1617 C 0.26857 0.6611 0.70395 0.0
C1618 C 0.28461 0.64481 0.7087 0.0
C1619 C 0.29737 0.60751 0.70171 0.0
C1620 C 0.29474 0.58718 0.68923 0.0
C1621 C 0.28236 0.62479 0.69586 0.0
C1622 C 0.27745 0.58479 0.6701 0.0
C1623 C 0.26236 0.60183 0.66425 0.0
H1624 H 0.20327 0.39651 0.36711 0.0
H1625 H 0.24942 0.34377 0.38319 0.0
H1626 H 0.28231 0.37051 0.37356 0.0
H1627 H 0.29729 0.40853 0.35826 0.0
H1628 H 0.2505 0.46102 0.34213 0.0
H1629 H 0.21847 0.4349 0.35397 0.0
C1630 C 0.22059 0.39102 0.36845 0.0
C1631 C 0.2241 0.36835 0.37561 0.0
C1632 C 0.23919 0.40643 0.36281 0.0
C1633 C 0.24651 0.36124 0.37769 0.0
C1634 C 0.26521 0.37649 0.37215 0.0
C1635 C 0.28017 0.41433 0.35772 0.0
C1636 C 0.27627 0.43665 0.3491 0.0
C1637 C 0.26172 0.3991 0.36443 0.0
C1638 C 0.25389 0.44383 0.34831 0.0
C1639 C 0.23557 0.42892 0.35513 0.0
H1640 H 0.16599 0.65813 0.34011 0.0
H1641 H 0.222 0.7105 0.33589 0.0
H1642 H 0.19445 0.73954 0.32733 0.0
H1643 H 0.15419 0.74966 0.31863 0.0
H1644 H 0.09836 0.69664 0.31975 0.0
H1645 H 0.12586 0.66816 0.33144 0.0
C1646 C 0.17209 0.67587 0.3371 0.0
C1647 C 0.19597 0.68217 0.33849 0.0
C1648 C 0.15612 0.69232 0.33147 0.0
C1649 C 0.2037 0.7053 0.3351 0.0
C1650 C 0.18795 0.72186 0.33006 0.0
C1651 C 0.14809 0.73192 0.32175 0.0
C1652 C 0.12426 0.72525 0.3184 0.0
C1653 C 0.16409 0.71555 0.32793 0.0
C1654 C 0.11661 0.70212 0.3221 0.0
C1655 C 0.13232 0.68587 0.32881 0.0
H1656 H 0.86977 0.65978 0.34976 0.0
H1657 H 0.88816 0.70463 0.29099 0.0
H1658 H 0.87322 0.67531 0.26308 0.0
H1659 H 0.85377 0.6376 0.25527 0.0
H1660 H 0.83103 0.59365 0.31306 0.0
H1661 H 0.8478 0.62229 0.34157 0.0
C1662 C 0.87036 0.66308 0.33083 0.0
C1663 C 0.8806 0.68417 0.32242 0.0
C1664 C 0.86052 0.6465 0.31479 0.0
C1665 C 0.88133 0.68825 0.2979 0.0
C1666 C 0.87237 0.67163 0.28194 0.0
C1667 C 0.85246 0.63425 0.27412 0.0
C1668 C 0.84134 0.61349 0.28211 0.0
C1669 C 0.86183 0.65079 0.29018 0.0
C1670 C 0.83943 0.60955 0.30652 0.0
C1671 C 0.84916 0.62585 0.32278 0.0
H1672 H 0.87954 0.32657 0.32386 0.0
H1673 H 0.92273 0.37918 0.36079 0.0
H1674 H 0.95733 0.36247 0.35143 0.0
H1675 H 0.97506 0.3362 0.32795 0.0
H1676 H 0.93243 0.28396 0.28958 0.0
H1677 H 0.89784 0.29699 0.30407 0.0
C1678 C 0.89658 0.3336 0.33072 0.0
C1679 C 0.89869 0.35362 0.34366 0.0
C1680 C 0.91642 0.3244 0.32426 0.0
C1681 C 0.92081 0.3633 0.3516 0.0
C1682 C 0.94054 0.35401 0.34581 0.0
C1683 C 0.95819 0.32766 0.32281 0.0
C1684 C 0.9562 0.30951 0.30728 0.0
C1685 C 0.93853 0.33515 0.33134 0.0
C1686 C 0.93432 0.29813 0.30132 0.0
C1687 C 0.91458 0.30557 0.30963 0.0
H1688 H 0.86955 0.42804 0.67952 0.0
H1689 H 0.86646 0.37842 0.73782 0.0
H1690 H 0.8519 0.40608 0.7621 0.0
H1691 H 0.84406 0.44538 0.7681 0.0
H1692 H 0.8457 0.49549 0.71008 0.0
H1693 H 0.85627 0.4667 0.68403 0.0
C1694 C 0.86517 0.4233 0.69735 0.0
C1695 C 0.86926 0.4014 0.70711 0.0
C1696 C 0.85666 0.43939 0.71119 0.0
C1697 C 0.86362 0.3953 0.73021 0.0
C1698 C 0.85533 0.41109 0.74403 0.0
C1699 C 0.84629 0.44987 0.7496 0.0
C1700 C 0.84427 0.47247 0.741 0.0
C1701 C 0.85238 0.43333 0.73493 0.0
C1702 C 0.84703 0.47811 0.71701 0.0
C1703 C 0.85328 0.46171 0.70221 0.0
H1704 H 0.16675 0.30777 0.72285 0.0
H1705 H 0.14241 0.37491 0.71871 0.0
H1706 H 0.10568 0.35912 0.73248 0.0
H1707 H 0.08172 0.32669 0.74821 0.0
H1708 H 0.10509 0.25909 0.75137 0.0
H1709 H 0.14068 0.27435 0.73456 0.0
C1710 C 0.15319 0.3188 0.72454 0.0
C1711 C 0.1573 0.34251 0.72009 0.0
C1712 C 0.13198 0.30949 0.73211 0.0
C1713 C 0.13973 0.3567 0.72252 0.0
C1714 C 0.11873 0.34765 0.73023 0.0
C1715 C 0.09445 0.31523 0.74486 0.0
C1716 C 0.09087 0.29183 0.75112 0.0
C1717 C 0.11484 0.32415 0.73546 0.0
C1718 C 0.10738 0.27714 0.74653 0.0
C1719 C 0.12783 0.28591 0.73715 0.0
H1720 H 0.92116 0.72559 0.67208 0.0
H1721 H 0.9462 0.6623 0.65558 0.0
H1722 H 0.9832 0.67263 0.67865 0.0
H1723 H 1.00824 0.69995 0.70354 0.0
H1724 H 0.98408 0.7649 0.71673 0.0
H1725 H 0.9472 0.75419 0.69398 0.0
C1726 C 0.93487 0.71422 0.67341 0.0
C1727 C 0.93098 0.69306 0.6626 0.0
C1728 C 0.9563 0.7208 0.6857 0.0
C1729 C 0.94865 0.67832 0.66443 0.0
C1730 C 0.96986 0.6844 0.6773 0.0
C1731 C 0.99497 0.71184 0.70121 0.0
C1732 C 0.99885 0.73316 0.71183 0.0
C1733 C 0.97386 0.70562 0.68802 0.0
C1734 C 0.98159 0.74847 0.70857 0.0
C1735 C 0.96043 0.74228 0.69575 0.0
H1736 H 0.7147 0.21121 0.61256 0.0
H1737 H 0.77402 0.20978 0.66433 0.0
H1738 H 0.79905 0.22535 0.63451 0.0
H1739 H 0.80426 0.23931 0.59366 0.0
H1740 H 0.74498 0.24482 0.54245 0.0
H1741 H 0.71955 0.22889 0.57233 0.0
C1742 C 0.73307 0.21456 0.61737 0.0
C1743 C 0.74248 0.20871 0.64065 0.0
C1744 C 0.74728 0.22469 0.6003 0.0
C1745 C 0.76636 0.21308 0.64646 0.0
C1746 C 0.78066 0.22243 0.62946 0.0
C1747 C 0.78572 0.23726 0.58909 0.0
C1748 C 0.7765 0.24319 0.56584 0.0
C1749 C 0.77133 0.22824 0.60634 0.0
C1750 C 0.75247 0.24061 0.56025 0.0
C1751 C 0.73799 0.23128 0.57729 0.0
H1752 H 0.35382 0.19253 0.65596 0.0
H1753 H 0.33584 0.24544 0.69861 0.0
H1754 H 0.3132 0.26194 0.66421 0.0
H1755 H 0.30378 0.26439 0.62125 0.0
H1756 H 0.32386 0.21295 0.5776 0.0
H1757 H 0.33982 0.19224 0.61316 0.0
C1758 C 0.34434 0.20728 0.65765 0.0
C1759 C 0.34639 0.218 0.67944 0.0
C1760 C 0.33198 0.21693 0.63765 0.0
C1761 C 0.33441 0.23719 0.68178 0.0
C1762 C 0.32159 0.24657 0.66217 0.0
C1763 C 0.31128 0.24842 0.6195 0.0
C1764 C 0.31307 0.24045 0.59681 0.0
C1765 C 0.32104 0.23709 0.63986 0.0
C1766 C 0.32242 0.21953 0.59486 0.0
C1767 C 0.33171 0.20778 0.61518 0.0
H1768 H 0.36752 0.88134 0.64174 0.0
H1769 H 0.36434 0.81826 0.68342 0.0
H1770 H 0.34795 0.7975 0.64825 0.0
H1771 H 0.33069 0.79817 0.60641 0.0
H1772 H 0.33193 0.86214 0.56564 0.0
H1773 H 0.35221 0.88176 0.59961 0.0
C1774 C 0.36362 0.86297 0.64289 0.0
C1775 C 0.36745 0.85127 0.66502 0.0
C1776 C 0.35323 0.85144 0.62285 0.0
C1777 C 0.36217 0.82752 0.6665 0.0
C1778 C 0.35241 0.81575 0.64643 0.0
C1779 C 0.33564 0.81634 0.60485 0.0
C1780 C 0.32949 0.82865 0.58344 0.0
C1781 C 0.3473 0.82763 0.62463 0.0
C1782 C 0.33594 0.85227 0.58193 0.0
C1783 C 0.34775 0.8635 0.60133 0.0
H1784 H 0.72845 0.83992 0.64947 0.0
H1785 H 0.70456 0.90324 0.61992 0.0
H1786 H 0.7307 0.90364 0.58858 0.0
H1787 H 0.75652 0.88305 0.56667 0.0
H1788 H 0.77823 0.81835 0.59538 0.0
H1789 H 0.75671 0.82112 0.62972 0.0
C1790 C 0.72935 0.85395 0.63635 0.0
C1791 C 0.71465 0.87146 0.63683 0.0
C1792 C 0.7437 0.85352 0.61797 0.0
C1793 C 0.71593 0.88971 0.61995 0.0
C1794 C 0.73066 0.88976 0.6019 0.0
C1795 C 0.75687 0.86982 0.58068 0.0
C1796 C 0.76872 0.85037 0.57832 0.0
C1797 C 0.74407 0.87135 0.60027 0.0
C1798 C 0.7689 0.83326 0.59657 0.0
C1799 C 0.75667 0.83488 0.61626 0.0
H1800 H 0.67071 0.84304 0.40728 0.0
H1801 H 0.71391 0.845 0.34986 0.0
H1802 H 0.74626 0.83379 0.37745 0.0
H1803 H 0.76277 0.8256 0.41831 0.0
H1804 H 0.71883 0.81955 0.47532 0.0
H1805 H 0.68588 0.82942 0.44745 0.0
C1806 C 0.68709 0.84056 0.40083 0.0
C1807 C 0.6902 0.84544 0.37676 0.0
C1808 C 0.70534 0.83328 0.41668 0.0
C1809 C 0.71144 0.84212 0.36849 0.0
C1810 C 0.72983 0.83551 0.3842 0.0
C1811 C 0.74587 0.82616 0.4245 0.0
C1812 C 0.7431 0.8221 0.44871 0.0
C1813 C 0.72709 0.83146 0.40838 0.0
C1814 C 0.7212 0.82256 0.45666 0.0
C1815 C 0.70246 0.82835 0.44078 0.0
H1816 H 0.74769 0.2042 0.35446 0.0
H1817 H 0.71122 0.14905 0.39153 0.0
H1818 H 0.72959 0.16251 0.42972 0.0
H1819 H 0.75924 0.18762 0.45219 0.0
H1820 H 0.79598 0.24306 0.41551 0.0
H1821 H 0.77455 0.23207 0.37765 0.0
C1822 C 0.74314 0.19582 0.37103 0.0
C1823 C 0.72759 0.17609 0.37034 0.0
C1824 C 0.75436 0.20337 0.39291 0.0
C1825 C 0.72253 0.1647 0.39182 0.0
C1826 C 0.73334 0.17218 0.41357 0.0
C1827 C 0.76249 0.19728 0.43589 0.0
C1828 C 0.77944 0.21589 0.43656 0.0
C1829 C 0.74984 0.19105 0.41429 0.0
C1830 C 0.78311 0.2286 0.41539 0.0
C1831 C 0.77085 0.22232 0.39376 0.0
H1832 H 0.37939 0.24649 0.41668 0.0
H1833 H 0.3584 0.18398 0.45431 0.0
H1834 H 0.34834 0.20572 0.4871 0.0
H1835 H 0.34766 0.24262 0.50595 0.0
H1836 H 0.37306 0.30477 0.47027 0.0
H1837 H 0.37998 0.28324 0.43608 0.0
C1838 C 0.37244 0.23775 0.43205 0.0
C1839 C 0.36921 0.21375 0.433 0.0
C1840 C 0.36799 0.25032 0.4513 0.0
C1841 C 0.36045 0.20246 0.453 0.0
C1842 C 0.35501 0.21488 0.47183 0.0
C1843 C 0.35465 0.25138 0.49062 0.0
C1844 C 0.35984 0.27522 0.49053 0.0
C1845 C 0.35901 0.2388 0.47131 0.0
C1846 C 0.36917 0.28642 0.47076 0.0
C1847 C 0.37295 0.27413 0.4512 0.0
H1848 H 0.34934 0.81053 0.38863 0.0
H1849 H 0.38188 0.87196 0.41972 0.0
H1850 H 0.38144 0.85371 0.45958 0.0
H1851 H 0.36742 0.8221 0.48554 0.0
H1852 H 0.33231 0.76115 0.45487 0.0
H1853 H 0.33847 0.77702 0.41503 0.0
C1854 C 0.35681 0.81956 0.40419 0.0
C1855 C 0.36572 0.84246 0.40148 0.0
C1856 C 0.35581 0.80909 0.4271 0.0
C1857 C 0.37507 0.8543 0.42161 0.0
C1858 C 0.37469 0.84389 0.44432 0.0
C1859 C 0.36148 0.81202 0.47022 0.0
C1860 C 0.34924 0.79048 0.47335 0.0
C1861 C 0.36446 0.82154 0.44732 0.0
C1862 C 0.34176 0.77776 0.45313 0.0
C1863 C 0.34515 0.78691 0.43027 0.0
H1864 H 0.69275 0.22947 0.70941 0.0
H1865 H 0.65943 0.16708 0.68106 0.0
H1866 H 0.62674 0.16978 0.70445 0.0
H1867 H 0.60811 0.18953 0.73378 0.0
H1868 H 0.6412 0.25235 0.76185 0.0
H1869 H 0.67325 0.25015 0.73767 0.0
C1870 C 0.67806 0.21679 0.70808 0.0
C1871 C 0.67823 0.19825 0.69334 0.0
C1872 C 0.65938 0.2185 0.72166 0.0
C1873 C 0.65945 0.18155 0.69216 0.0
C1874 C 0.64086 0.18308 0.70558 0.0
C1875 C 0.62239 0.20267 0.73471 0.0
C1876 C 0.62224 0.22103 0.74977 0.0
C1877 C 0.64072 0.20136 0.7206 0.0
C1878 C 0.64075 0.23812 0.75036 0.0
C1879 C 0.65914 0.23683 0.73657 0.0
H1880 H 0.39149 0.14827 0.71597 0.0
H1881 H 0.38873 0.19384 0.77244 0.0
H1882 H 0.39003 0.16176 0.80174 0.0
H1883 H 0.38529 0.12033 0.80996 0.0
H1884 H 0.38685 0.07445 0.75316 0.0
H1885 H 0.39278 0.10694 0.72522 0.0
C1886 C 0.39178 0.15106 0.73479 0.0
C1887 C 0.38997 0.17315 0.74224 0.0
C1888 C 0.3919 0.13246 0.75131 0.0
C1889 C 0.39037 0.1769 0.76653 0.0
C1890 C 0.39085 0.15855 0.78317 0.0
C1891 C 0.38765 0.11737 0.79167 0.0
C1892 C 0.3852 0.09494 0.78358 0.0
C1893 C 0.39069 0.13615 0.77564 0.0
C1894 C 0.3882 0.09154 0.75972 0.0
C1895 C 0.39158 0.11011 0.74374 0.0
H1896 H 0.43322 0.87238 0.69103 0.0
H1897 H 0.38815 0.8192 0.72066 0.0
H1898 H 0.4212 0.79762 0.7347 0.0
H1899 H 0.46352 0.79685 0.74366 0.0
H1900 H 0.50854 0.85248 0.71749 0.0
H1901 H 0.47535 0.87032 0.69743 0.0
C1902 C 0.43073 0.85559 0.69966 0.0
C1903 C 0.40829 0.84694 0.70406 0.0
C1904 C 0.44999 0.84417 0.70912 0.0
C1905 C 0.40517 0.82568 0.71622 0.0
C1906 C 0.42415 0.81364 0.72472 0.0
C1907 C 0.46603 0.8127 0.73329 0.0
C1908 C 0.4885 0.82345 0.73239 0.0
C1909 C 0.44672 0.82313 0.72207 0.0
C1910 C 0.49145 0.84408 0.71895 0.0
C1911 C 0.47246 0.85422 0.70728 0.0
H1912 H 0.73334 0.8919 0.68718 0.0
H1913 H 0.67407 0.9254 0.65714 0.0
H1914 H 0.69133 0.96184 0.6727 0.0
H1915 H 0.72206 0.98347 0.69743 0.0
H1916 H 0.78175 0.95034 0.72743 0.0
H1917 H 0.76582 0.91454 0.70941 0.0
C1918 C 0.7246 0.90737 0.68365 0.0
C1919 C 0.70252 0.90616 0.67114 0.0
C1920 C 0.73456 0.92818 0.693 0.0
C1921 C 0.69108 0.92613 0.66678 0.0
C1922 C 0.70088 0.94685 0.6758 0.0
C1923 C 0.73151 0.96838 0.70007 0.0
C1924 C 0.7529 0.96946 0.71401 0.0
C1925 C 0.72234 0.94796 0.68946 0.0
C1926 C 0.76524 0.94991 0.7168 0.0
C1927 C 0.75612 0.92944 0.70652 0.0
H1928 H 0.62465 0.84988 0.29429 0.0
H1929 H 0.59993 0.85689 0.36231 0.0
H1930 H 0.56009 0.84713 0.34537 0.0
H1931 H 0.53322 0.83308 0.31224 0.0
H1932 H 0.55836 0.82273 0.24488 0.0
H1933 H 0.59711 0.83806 0.26015 0.0
C1934 C 0.61038 0.84956 0.30516 0.0
C1935 C 0.61489 0.85398 0.3294 0.0
C1936 C 0.58774 0.84352 0.29535 0.0
C1937 C 0.59658 0.85335 0.34362 0.0
C1938 C 0.57393 0.84787 0.33392 0.0
C1939 C 0.547 0.8348 0.30065 0.0
C1940 C 0.54293 0.82695 0.2774 0.0
C1941 C 0.56937 0.84251 0.30992 0.0
C1942 C 0.56109 0.82883 0.26279 0.0
C1943 C 0.58326 0.83737 0.27158 0.0
H1944 H 0.73473 0.12307 0.283 0.0
H1945 H 0.72212 0.0966 0.35311 0.0
H1946 H 0.73438 0.05951 0.34428 0.0
H1947 H 0.75218 0.03614 0.31819 0.0
H1948 H 0.76653 0.06225 0.24824 0.0
H1949 H 0.74963 0.09778 0.255 0.0
C1950 C 0.73443 0.10896 0.29605 0.0
C1951 C 0.72787 0.11235 0.31873 0.0
C1952 C 0.74181 0.08777 0.29086 0.0
C1953 C 0.72738 0.09417 0.33568 0.0
C1954 C 0.73436 0.07308 0.33061 0.0
C1955 C 0.75133 0.04946 0.30425 0.0
C1956 C 0.76078 0.04665 0.28283 0.0
C1957 C 0.74214 0.06988 0.3085 0.0
C1958 C 0.7593 0.06396 0.26486 0.0
C1959 C 0.74983 0.08436 0.26882 0.0
H1960 H 0.44207 0.17695 0.40094 0.0
H1961 H 0.39838 0.20589 0.34372 0.0
H1962 H 0.43211 0.21801 0.32222 0.0
H1963 H 0.4744 0.22615 0.3234 0.0
H1964 H 0.51799 0.2009 0.38312 0.0
H1965 H 0.48422 0.18188 0.40035 0.0
C1966 C 0.44009 0.18561 0.38359 0.0
C1967 C 0.41808 0.19096 0.37397 0.0
C1968 C 0.45961 0.19361 0.37217 0.0
C1969 C 0.41531 0.20169 0.35131 0.0
C1970 C 0.43458 0.20883 0.33924 0.0
C1971 C 0.47645 0.21603 0.33989 0.0
C1972 C 0.49853 0.21505 0.35215 0.0
C1973 C 0.45689 0.20579 0.35001 0.0
C1974 C 0.50107 0.20211 0.37362 0.0
C1975 C 0.48181 0.19121 0.3834 0.0
H1976 H 0.34856 0.92276 0.36316 0.0
H1977 H 0.32018 0.87535 0.31016 0.0
H1978 H 0.29899 0.90534 0.28847 0.0
H1979 H 0.2897 0.9455 0.28387 0.0
H1980 H 0.31979 0.99354 0.33583 0.0
H1981 H 0.33874 0.96298 0.35886 0.0
C1982 C 0.33755 0.91907 0.34697 0.0
C1983 C 0.33586 0.89692 0.33821 0.0
C1984 C 0.32563 0.93651 0.33452 0.0
C1985 C 0.32179 0.89231 0.31708 0.0
C1986 C 0.30964 0.90943 0.30478 0.0
C1987 C 0.30004 0.94921 0.30047 0.0
C1988 C 0.30304 0.9718 0.30825 0.0
C1989 C 0.3115 0.93165 0.31325 0.0
C1990 C 0.31702 0.97634 0.32951 0.0
C1991 C 0.32797 0.95886 0.34264 0.0
H1992 H 0.73724 0.14199 0.65211 0.0
H1993 H 0.76712 0.18994 0.70387 0.0
H1994 H 0.79459 0.16292 0.72022 0.0
H1995 H 0.80481 0.12331 0.72451 0.0
H1996 H 0.77465 0.07431 0.67382 0.0
H1997 H 0.75291 0.10388 0.65197 0.0
C1998 C 0.75051 0.14676 0.66622 0.0
C1999 C 0.75061 0.16811 0.67647 0.0
C2000 C 0.76588 0.13073 0.67596 0.0
C2001 C 0.76728 0.17388 0.69535 0.0
C2002 C 0.78272 0.1583 0.70488 0.0
C2003 C 0.79417 0.11937 0.70812 0.0
C2004 C 0.79143 0.09676 0.70065 0.0
C2005 C 0.7815 0.13634 0.696 0.0
C2006 C 0.77733 0.0917 0.67965 0.0
C2007 C 0.76467 0.10856 0.66736 0.0
H2008 H 0.69664 0.87824 0.30678 0.0
H2009 H 0.70014 0.8974 0.37941 0.0
H2010 H 0.73569 0.92221 0.37448 0.0
H2011 H 0.76427 0.94013 0.3483 0.0
H2012 H 0.76018 0.92047 0.27553 0.0
H2013 H 0.72639 0.8941 0.28152 0.0
C2014 C 0.70529 0.88797 0.32139 0.0
C2015 C 0.69592 0.88647 0.34326 0.0
C2016 C 0.72551 0.90201 0.31834 0.0
C2017 C 0.70722 0.89861 0.3624 0.0
C2018 C 0.72744 0.91269 0.35955 0.0
C2019 C 0.75621 0.92975 0.33395 0.0
C2020 C 0.76453 0.93239 0.31144 0.0
C2021 C 0.7366 0.91474 0.33748 0.0
C2022 C 0.75382 0.91898 0.29289 0.0
C2023 C 0.73454 0.90389 0.2963 0.0
H2024 H 0.6821 0.18313 0.29498 0.0
H2025 H 0.68094 0.17571 0.37097 0.0
H2026 H 0.64787 0.19837 0.36867 0.0
H2027 H 0.61804 0.21881 0.34493 0.0
H2028 H 0.61565 0.22211 0.26847 0.0
H2029 H 0.65057 0.20147 0.27087 0.0
C2030 C 0.6745 0.18638 0.31102 0.0
C2031 C 0.68438 0.17798 0.33319 0.0
C2032 C 0.65446 0.19818 0.30936 0.0
C2033 C 0.67446 0.18256 0.35382 0.0
C2034 C 0.65516 0.19518 0.35243 0.0
C2035 C 0.6251 0.21492 0.32875 0.0
C2036 C 0.61431 0.22201 0.30652 0.0
C2037 C 0.64488 0.20283 0.3303 0.0
C2038 C 0.62351 0.21666 0.28574 0.0
C2039 C 0.64357 0.20506 0.28715 0.0
H2040 H 0.40123 0.14362 0.37446 0.0
H2041 H 0.34169 0.17952 0.35022 0.0
H2042 H 0.32966 0.15113 0.32023 0.0
H2043 H 0.33573 0.11546 0.3014 0.0
H2044 H 0.39663 0.0809 0.32397 0.0
H2045 H 0.40885 0.10958 0.35362 0.0
C2046 C 0.38577 0.1453 0.36241 0.0
C2047 C 0.37204 0.16331 0.36494 0.0
C2048 C 0.37929 0.12918 0.34484 0.0
C2049 C 0.35209 0.16539 0.34917 0.0
C2050 C 0.34534 0.14927 0.33188 0.0
C2051 C 0.35167 0.11425 0.31283 0.0
C2052 C 0.36518 0.09598 0.31058 0.0
C2053 C 0.35867 0.13093 0.32971 0.0
C2054 C 0.386 0.09484 0.32523 0.0
C2055 C 0.39292 0.11117 0.34228 0.0
H2056 H 0.37396 0.81947 0.32736 0.0
H2057 H 0.41245 0.85173 0.38736 0.0
H2058 H 0.44591 0.83097 0.38184 0.0
H2059 H 0.4652 0.8061 0.35776 0.0
H2060 H 0.4265 0.77391 0.29747 0.0
H2061 H 0.39242 0.79235 0.30499 0.0
C2062 C 0.38965 0.82171 0.3393 0.0
C2063 C 0.3908 0.83706 0.35774 0.0
C2064 C 0.40892 0.80999 0.33571 0.0
C2065 C 0.41111 0.83979 0.37324 0.0
C2066 C 0.43029 0.82808 0.36992 0.0
C2067 C 0.44927 0.80276 0.34646 0.0
C2068 C 0.44872 0.78875 0.32682 0.0
C2069 C 0.42956 0.81344 0.35093 0.0
C2070 C 0.42775 0.78492 0.31238 0.0
C2071 C 0.40812 0.79538 0.31675 0.0
H2072 H 0.35793 0.93156 0.6995 0.0
H2073 H 0.36116 0.88374 0.7596 0.0
H2074 H 0.3508 0.91268 0.78516 0.0
H2075 H 0.34369 0.95221 0.79101 0.0
H2076 H 0.3382 1.00023 0.73118 0.0
H2077 H 0.34607 0.97057 0.70465 0.0
C2078 C 0.35598 0.92751 0.71811 0.0
C2079 C 0.36081 0.90578 0.72789 0.0
C2080 C 0.34968 0.94424 0.73264 0.0
C2081 C 0.35809 0.90055 0.75194 0.0
C2082 C 0.35208 0.91704 0.76649 0.0
C2083 C 0.34401 0.95611 0.7721 0.0
C2084 C 0.3407 0.97835 0.76301 0.0
C2085 C 0.34836 0.93905 0.75715 0.0
C2086 C 0.34072 0.98318 0.73849 0.0
C2087 C 0.34534 0.96627 0.72341 0.0
H2088 H 0.65909 0.81191 0.68458 0.0
H2089 H 0.62026 0.86763 0.65669 0.0
H2090 H 0.58422 0.84596 0.66589 0.0
H2091 H 0.5644 0.81271 0.68502 0.0
H2092 H 0.60327 0.75747 0.71517 0.0
H2093 H 0.63853 0.777 0.70142 0.0
C2094 C 0.64263 0.81903 0.68031 0.0
C2095 C 0.64213 0.84131 0.67021 0.0
C2096 C 0.62206 0.80653 0.686 0.0
C2097 C 0.62087 0.85058 0.66473 0.0
C2098 C 0.60035 0.83818 0.66992 0.0
C2099 C 0.58045 0.80465 0.6882 0.0
C2100 C 0.58111 0.78364 0.70122 0.0
C2101 C 0.60078 0.81632 0.68099 0.0
C2102 C 0.6022 0.77361 0.70521 0.0
C2103 C 0.62243 0.78485 0.6975 0.0
H2104 H 0.43283 0.20517 0.70259 0.0
H2105 H 0.40877 0.23344 0.76307 0.0
H2106 H 0.44819 0.24926 0.77603 0.0
H2107 H 0.48919 0.2554 0.76943 0.0
H2108 H 0.51327 0.22744 0.7083 0.0
H2109 H 0.47403 0.21156 0.69579 0.0
C2110 C 0.43654 0.21444 0.71882 0.0
C2111 C 0.41843 0.21777 0.73234 0.0
C2112 C 0.45899 0.22394 0.72559 0.0
C2113 C 0.42281 0.23031 0.75293 0.0
C2114 C 0.44519 0.23953 0.76007 0.0
C2115 C 0.48584 0.24615 0.75315 0.0
C2116 C 0.50413 0.24278 0.73969 0.0
C2117 C 0.46337 0.23666 0.74636 0.0
C2118 C 0.49948 0.2304 0.71889 0.0
C2119 C 0.4771 0.22117 0.71182 0.0
H2120 H 0.68183 0.74242 0.11356 0.0
H2121 H 0.74312 0.73435 0.1612 0.0
H2122 H 0.76717 0.75081 0.13058 0.0
H2123 H 0.77066 0.76872 0.09044 0.0
H2124 H 0.70899 0.77923 0.04404 0.0
H2125 H 0.6852 0.76141 0.07411 0.0
C2126 C 0.70044 0.74448 0.11727 0.0
C2127 C 0.71066 0.73706 0.1396 0.0
C2128 C 0.71408 0.75469 0.09985 0.0
C2129 C 0.73484 0.73951 0.14404 0.0
C2130 C 0.74858 0.74914 0.1266 0.0
C2131 C 0.75202 0.76702 0.08691 0.0
C2132 C 0.74165 0.77535 0.06496 0.0
C2133 C 0.73839 0.75692 0.10445 0.0
C2134 C 0.71743 0.77326 0.06082 0.0
C2135 C 0.70381 0.76291 0.07797 0.0
H2136 H 0.33186 0.66555 0.11421 0.0
H2137 H 0.30175 0.71045 0.1575 0.0
H2138 H 0.28404 0.73 0.12184 0.0
H2139 H 0.28205 0.73746 0.07874 0.0
H2140 H 0.31313 0.693 0.0352 0.0
H2141 H 0.32502 0.66965 0.07039 0.0
C2142 C 0.32088 0.67922 0.1156 0.0
C2143 C 0.318 0.6868 0.13808 0.0
C2144 C 0.31114 0.69047 0.09504 0.0
C2145 C 0.30396 0.70452 0.14014 0.0
C2146 C 0.29402 0.71569 0.11983 0.0
C2147 C 0.291 0.72239 0.07685 0.0
C2148 C 0.29706 0.71726 0.05441 0.0
C2149 C 0.29819 0.70931 0.0972 0.0
C2150 C 0.30839 0.69748 0.05227 0.0
C2151 C 0.31534 0.68418 0.07242 0.0
H2152 H 0.36654 0.29409 0.17711 0.0
H2153 H 0.42313 0.33865 0.15421 0.0
H2154 H 0.4195 0.32004 0.11597 0.0
H2155 H 0.39693 0.29446 0.08749 0.0
H2156 H 0.33957 0.25016 0.11012 0.0
H2157 H 0.34701 0.26473 0.15006 0.0
C2158 C 0.37837 0.29917 0.16388 0.0
C2159 C 0.39514 0.31754 0.16824 0.0
C2160 C 0.37589 0.28854 0.14186 0.0
C2161 C 0.41029 0.32438 0.15107 0.0
C2162 C 0.40808 0.31384 0.12925 0.0
C2163 C 0.38636 0.28759 0.10127 0.0
C2164 C 0.36756 0.27136 0.09559 0.0
C2165 C 0.39048 0.29636 0.12417 0.0
C2166 C 0.35416 0.26262 0.11383 0.0
C2167 C 0.35829 0.2711 0.13671 0.0
H2168 H 0.71409 0.38339 0.15788 0.0
H2169 H 0.77608 0.36846 0.20107 0.0
H2170 H 0.79218 0.35515 0.1664 0.0
H2171 H 0.78626 0.34311 0.12479 0.0
H2172 H 0.7228 0.35584 0.0824 0.0
H2173 H 0.70954 0.37448 0.11542 0.0
C2174 C 0.73145 0.37802 0.15932 0.0
C2175 C 0.74431 0.3777 0.18167 0.0
C2176 C 0.74004 0.36941 0.13952 0.0
C2177 C 0.76638 0.36976 0.18378 0.0
C2178 C 0.77536 0.36177 0.16405 0.0
C2179 C 0.76976 0.35038 0.12266 0.0
C2180 C 0.75545 0.34781 0.1012 0.0
C2181 C 0.76205 0.36086 0.14194 0.0
C2182 C 0.73398 0.35717 0.09884 0.0
C2183 C 0.72641 0.36795 0.1177 0.0
H2184 H 0.73125 0.40052 0.93483 0.0
H2185 H 0.76295 0.35791 0.89043 0.0
H2186 H 0.78914 0.34586 0.92446 0.0
H2187 H 0.79907 0.34365 0.96769 0.0
H2188 H 0.76779 0.38667 1.01242 0.0
H2189 H 0.74548 0.40267 0.97754 0.0
C2190 C 0.74442 0.38915 0.93269 0.0
C2191 C 0.74541 0.38002 0.91044 0.0
C2192 C 0.75913 0.38217 0.9524 0.0
C2193 C 0.76224 0.36517 0.90752 0.0
C2194 C 0.77697 0.35816 0.92696 0.0
C2195 C 0.78764 0.3568 0.96972 0.0
C2196 C 0.78479 0.36376 0.99255 0.0
C2197 C 0.77498 0.36593 0.94963 0.0
C2198 C 0.77021 0.38103 0.99499 0.0
C2199 C 0.75738 0.3901 0.97508 0.0
H2200 H 0.74578 0.67755 0.90951 0.0
H2201 H 0.73355 0.731 0.85622 0.0
H2202 H 0.74758 0.75989 0.88534 0.0
H2203 H 0.76604 0.76962 0.92508 0.0
H2204 H 0.78221 0.71581 0.97705 0.0
H2205 H 0.76478 0.6872 0.94906 0.0
C2206 C 0.74626 0.69555 0.90432 0.0
C2207 C 0.73875 0.70218 0.88075 0.0
C2208 C 0.75552 0.71187 0.92078 0.0
C2209 C 0.73898 0.72552 0.8743 0.0
C2210 C 0.74728 0.74197 0.89087 0.0
C2211 C 0.76572 0.75163 0.93034 0.0
C2212 C 0.77544 0.74485 0.95318 0.0
C2213 C 0.75604 0.73531 0.91401 0.0
C2214 C 0.77502 0.72147 0.95958 0.0
C2215 C 0.76494 0.70513 0.94362 0.0
H2216 H 0.35122 0.71334 0.88052 0.0
H2217 H 0.41917 0.70425 0.91449 0.0
H2218 H 0.41085 0.7244 0.94914 0.0
H2219 H 0.38418 0.74465 0.9695 0.0
H2220 H 0.31651 0.75519 0.9347 0.0
H2221 H 0.32459 0.73431 0.90082 0.0
C2222 C 0.36402 0.71574 0.89566 0.0
C2223 C 0.38571 0.70744 0.8952 0.0
C2224 C 0.35915 0.72758 0.91529 0.0
C2225 C 0.4024 0.71065 0.91465 0.0
C2226 C 0.39763 0.72214 0.93436 0.0
C2227 C 0.37125 0.74265 0.95445 0.0
C2228 C 0.34971 0.75151 0.95487 0.0
C2229 C 0.3761 0.7308 0.93482 0.0
C2230 C 0.33311 0.74833 0.93518 0.0
C2231 C 0.33775 0.73646 0.91567 0.0
H2232 H 0.40508 0.35799 0.91928 0.0
H2233 H 0.38075 0.29725 0.882 0.0
H2234 H 0.36206 0.28125 0.91677 0.0
H2235 H 0.34927 0.28653 0.95646 0.0
H2236 H 0.37291 0.34843 0.99277 0.0
H2237 H 0.39469 0.36214 0.95978 0.0
C2238 C 0.39616 0.341 0.91912 0.0
C2239 C 0.3947 0.32859 0.89835 0.0
C2240 C 0.38476 0.3324 0.93884 0.0
C2241 C 0.38273 0.30679 0.89802 0.0
C2242 C 0.3717 0.29786 0.91779 0.0
C2243 C 0.35941 0.30287 0.95733 0.0
C2244 C 0.35902 0.3165 0.97714 0.0
C2245 C 0.3721 0.31077 0.93812 0.0
C2246 C 0.37228 0.33773 0.97769 0.0
C2247 C 0.38499 0.34555 0.95885 0.0
H2248 H 0.66525 0.72186 0.2301 0.0
H2249 H 0.62651 0.73257 0.16222 0.0
H2250 H 0.592 0.73752 0.18195 0.0
H2251 H 0.57256 0.73791 0.21861 0.0
H2252 H 0.61105 0.72578 0.28653 0.0
H2253 H 0.64561 0.72166 0.2668 0.0
C2254 C 0.64918 0.72511 0.21968 0.0
C2255 C 0.64847 0.72693 0.19471 0.0
C2256 C 0.62928 0.72748 0.23119 0.0
C2257 C 0.62759 0.73143 0.18144 0.0
C2258 C 0.60782 0.73409 0.19273 0.0
C2259 C 0.58853 0.73452 0.22913 0.0
C2260 C 0.58905 0.73217 0.25411 0.0
C2261 C 0.60842 0.7321 0.21762 0.0
C2262 C 0.60993 0.72742 0.26733 0.0
C2263 C 0.6298 0.72519 0.25604 0.0
H2264 H 0.37933 0.6327 0.20578 0.0
H2265 H 0.3111 0.6471 0.21938 0.0
H2266 H 0.30971 0.61583 0.24944 0.0
H2267 H 0.32661 0.58257 0.26937 0.0
H2268 H 0.39493 0.56766 0.25663 0.0
H2269 H 0.39809 0.60132 0.22927 0.0
C2270 C 0.36439 0.62907 0.21565 0.0
C2271 C 0.34511 0.64171 0.21015 0.0
C2272 C 0.36382 0.61109 0.23302 0.0
C2273 C 0.32583 0.63712 0.22303 0.0
C2274 C 0.3251 0.61938 0.24025 0.0
C2275 C 0.34228 0.58688 0.26076 0.0
C2276 C 0.36041 0.57262 0.26471 0.0
C2277 C 0.34376 0.60594 0.24498 0.0
C2278 C 0.3808 0.5785 0.25386 0.0
C2279 C 0.3825 0.59759 0.23809 0.0
H2280 H 0.44919 0.32504 0.19675 0.0
H2281 H 0.39767 0.29378 0.23992 0.0
H2282 H 0.42592 0.26977 0.26104 0.0
H2283 H 0.46657 0.26239 0.27129 0.0
H2284 H 0.51846 0.29261 0.22779 0.0
H2285 H 0.48896 0.31204 0.2024 0.0
C2286 C 0.44412 0.31238 0.21023 0.0
C2287 C 0.42152 0.31113 0.217 0.0
C2288 C 0.46062 0.29874 0.22238 0.0
C2289 C 0.41501 0.29486 0.23455 0.0
C2290 C 0.43119 0.28132 0.2467 0.0
C2291 C 0.47127 0.2727 0.2558 0.0
C2292 C 0.49461 0.27614 0.25141 0.0
C2293 C 0.45424 0.28378 0.2414 0.0
C2294 C 0.50056 0.28953 0.23136 0.0
C2295 C 0.48371 0.30083 0.217 0.0
H2296 H 0.71491 0.43738 0.21416 0.0
H2297 H 0.7793 0.40819 0.21057 0.0
H2298 H 0.79969 0.44638 0.21009 0.0
H2299 H 0.79955 0.4878 0.21426 0.0
H2300 H 0.73622 0.51648 0.22456 0.0
H2301 H 0.71499 0.47862 0.22019 0.0
C2302 C 0.73341 0.43947 0.21322 0.0
C2303 C 0.74559 0.42 0.21222 0.0
C2304 C 0.74516 0.4613 0.21492 0.0
C2305 C 0.76947 0.42285 0.21069 0.0
C2306 C 0.78117 0.44468 0.21092 0.0
C2307 C 0.78107 0.4857 0.21553 0.0
C2308 C 0.76931 0.50474 0.21962 0.0
C2309 C 0.76925 0.46393 0.2136 0.0
C2310 C 0.74552 0.50194 0.22158 0.0
C2311 C 0.73344 0.4804 0.21888 0.0
H2312 H 0.65401 0.37457 0.84542 0.0
H2313 H 0.70216 0.32491 0.86849 0.0
H2314 H 0.67466 0.29418 0.8529 0.0
H2315 H 0.63689 0.28142 0.83362 0.0
H2316 H 0.58856 0.33049 0.80848 0.0
H2317 H 0.61625 0.36165 0.82347 0.0
C2318 C 0.65835 0.357 0.84679 0.0
C2319 C 0.6798 0.35177 0.8583 0.0
C2320 C 0.64253 0.33946 0.83737 0.0
C2321 C 0.68551 0.32907 0.86002 0.0
C2322 C 0.66988 0.3116 0.85103 0.0
C2323 C 0.63238 0.29894 0.83136 0.0
C2324 C 0.61066 0.30366 0.82019 0.0
C2325 C 0.64832 0.31658 0.83985 0.0
C2326 C 0.60521 0.32646 0.81705 0.0
C2327 C 0.62099 0.34423 0.8257 0.0
H2328 H 0.74496 0.64289 0.79845 0.0
H2329 H 0.74604 0.61865 0.87153 0.0
H2330 H 0.76509 0.58523 0.86266 0.0
H2331 H 0.7853 0.56542 0.83533 0.0
H2332 H 0.78464 0.58856 0.76191 0.0
H2333 H 0.76113 0.61961 0.76935 0.0
C2334 C 0.74899 0.62996 0.81219 0.0
C2335 C 0.74452 0.63326 0.8357 0.0
C2336 C 0.76006 0.61075 0.80688 0.0
C2337 C 0.74972 0.61651 0.85345 0.0
C2338 C 0.76057 0.59745 0.84837 0.0
C2339 C 0.77961 0.57701 0.82084 0.0
C2340 C 0.78675 0.57487 0.79817 0.0
C2341 C 0.76642 0.59477 0.82535 0.0
C2342 C 0.77918 0.58983 0.77948 0.0
C2343 C 0.76595 0.60769 0.78382 0.0
H2344 H 0.45377 0.68127 0.85386 0.0
H2345 H 0.40278 0.69852 0.79735 0.0
H2346 H 0.43335 0.71176 0.77177 0.0
H2347 H 0.47478 0.7247 0.76873 0.0
H2348 H 0.52501 0.70919 0.82709 0.0
H2349 H 0.49492 0.68851 0.84855 0.0
C2350 C 0.44952 0.68716 0.83561 0.0
C2351 C 0.4263 0.68889 0.82728 0.0
C2352 C 0.46714 0.69526 0.8215 0.0
C2353 C 0.42065 0.69685 0.80385 0.0
C2354 C 0.43813 0.70461 0.78941 0.0
C2355 C 0.47913 0.71599 0.78572 0.0
C2356 C 0.50203 0.71829 0.79634 0.0
C2357 C 0.46149 0.7048 0.79841 0.0
C2358 C 0.50749 0.70748 0.8186 0.0
C2359 C 0.49028 0.69581 0.83095 0.0
H2360 H 0.39923 0.40963 0.85637 0.0
H2361 H 0.39294 0.3638 0.79867 0.0
H2362 H 0.38463 0.39533 0.77011 0.0
H2363 H 0.37825 0.436 0.76163 0.0
H2364 H 0.38134 0.48118 0.81961 0.0
H2365 H 0.39152 0.45003 0.84803 0.0
C2366 C 0.39586 0.40661 0.83755 0.0
C2367 C 0.39695 0.3845 0.82957 0.0
C2368 C 0.39052 0.42475 0.82132 0.0
C2369 C 0.39264 0.38076 0.80514 0.0
C2370 C 0.38776 0.39876 0.78885 0.0
C2371 C 0.38143 0.439 0.78047 0.0
C2372 C 0.37931 0.46086 0.78856 0.0
C2373 C 0.38667 0.42084 0.79671 0.0
C2374 C 0.38292 0.46447 0.81305 0.0
C2375 C 0.38873 0.44668 0.82926 0.0
H2376 H 0.73131 0.69892 0.20635 0.0
H2377 H 0.7069 0.68431 0.13405 0.0
H2378 H 0.73401 0.65457 0.13441 0.0
H2379 H 0.76235 0.63047 0.157 0.0
H2380 H 0.7864 0.64609 0.22948 0.0
H2381 H 0.76189 0.67756 0.22748 0.0
C2382 C 0.73224 0.68934 0.19065 0.0
C2383 C 0.71721 0.69354 0.17026 0.0
C2384 C 0.74764 0.67229 0.19117 0.0
C2385 C 0.71845 0.68127 0.14988 0.0
C2386 C 0.73383 0.66424 0.15018 0.0
C2387 C 0.7625 0.64101 0.17218 0.0
C2388 C 0.77593 0.63557 0.19353 0.0
C2389 C 0.74821 0.65925 0.17094 0.0
C2390 C 0.77585 0.64946 0.21305 0.0
C2391 C 0.76191 0.66758 0.2119 0.0
H2392 H 0.74996 0.42866 0.89146 0.0
H2393 H 0.75436 0.38429 0.8342 0.0
H2394 H 0.78507 0.41033 0.8191 0.0
H2395 H 0.80821 0.4474 0.82035 0.0
H2396 H 0.80566 0.49104 0.87863 0.0
H2397 H 0.77709 0.4635 0.89569 0.0
C2398 C 0.75796 0.42466 0.87591 0.0
C2399 C 0.74943 0.40517 0.86336 0.0
C2400 C 0.77587 0.43955 0.86761 0.0
C2401 C 0.76008 0.39975 0.84349 0.0
C2402 C 0.77772 0.41451 0.83499 0.0
C2403 C 0.80155 0.45063 0.83695 0.0
C2404 C 0.8087 0.47117 0.84818 0.0
C2405 C 0.78529 0.43475 0.84655 0.0
C2406 C 0.80035 0.47524 0.86981 0.0
C2407 C 0.78394 0.45959 0.87943 0.0
H2408 H 0.69837 0.70255 0.80602 0.0
H2409 H 0.68939 0.69586 0.88058 0.0
H2410 H 0.65545 0.71799 0.87398 0.0
H2411 H 0.62673 0.73708 0.84621 0.0
H2412 H 0.63499 0.74134 0.77126 0.0
H2413 H 0.67039 0.72198 0.77858 0.0
C2414 C 0.68891 0.70596 0.82077 0.0
C2415 C 0.69627 0.69756 0.84372 0.0
C2416 C 0.6691 0.71802 0.81667 0.0
C2417 C 0.68415 0.70234 0.86281 0.0
C2418 C 0.66466 0.71482 0.85897 0.0
C2419 C 0.63643 0.73395 0.83155 0.0
C2420 C 0.62809 0.74055 0.80817 0.0
C2421 C 0.65673 0.72246 0.83589 0.0
C2422 C 0.64078 0.73616 0.78934 0.0
C2423 C 0.66111 0.72519 0.79354 0.0
H2424 H 0.35143 0.65218 0.82791 0.0
H2425 H 0.42406 0.64269 0.83732 0.0
H2426 H 0.41689 0.60691 0.81663 0.0
H2427 H 0.38988 0.57791 0.79658 0.0
H2428 H 0.31673 0.58526 0.79039 0.0
H2429 H 0.32399 0.62176 0.81008 0.0
C2430 C 0.36562 0.64214 0.82557 0.0
C2431 C 0.3883 0.65027 0.83382 0.0
C2432 C 0.36119 0.621 0.81467 0.0
C2433 C 0.40657 0.63723 0.83048 0.0
C2434 C 0.40242 0.61657 0.81899 0.0
C2435 C 0.37549 0.58742 0.79969 0.0
C2436 C 0.35279 0.5789 0.79204 0.0
C2437 C 0.3798 0.60825 0.81112 0.0
C2438 C 0.33434 0.59134 0.79632 0.0
C2439 C 0.33851 0.6123 0.80738 0.0
H2440 H 0.46206 0.33571 0.88034 0.0
H2441 H 0.40445 0.29199 0.85085 0.0
H2442 H 0.43014 0.26256 0.84486 0.0
H2443 H 0.4697 0.2521 0.84212 0.0
H2444 H 0.52774 0.2978 0.86777 0.0
H2445 H 0.50155 0.32368 0.88097 0.0
C2446 C 0.45519 0.3193 0.87354 0.0
C2447 C 0.43136 0.31565 0.8667 0.0
C2448 C 0.47033 0.30314 0.86879 0.0
C2449 C 0.42258 0.29476 0.85703 0.0
C2450 C 0.43738 0.27817 0.85317 0.0
C2451 C 0.47662 0.26741 0.85115 0.0
C2452 C 0.50071 0.27302 0.85394 0.0
C2453 C 0.46138 0.28253 0.85813 0.0
C2454 C 0.50932 0.2932 0.86527 0.0
C2455 C 0.49434 0.30798 0.87284 0.0
H2456 H 0.34452 0.37337 0.2117 0.0
H2457 H 0.41672 0.39602 0.22401 0.0
H2458 H 0.40716 0.43164 0.23956 0.0
H2459 H 0.37865 0.455 0.25237 0.0
H2460 H 0.30607 0.43348 0.24031 0.0
H2461 H 0.31522 0.39909 0.22146 0.0
C2462 C 0.35804 0.38631 0.21751 0.0
C2463 C 0.38135 0.38197 0.21712 0.0
C2464 C 0.35232 0.4069 0.22645 0.0
C2465 C 0.39874 0.39886 0.22459 0.0
C2466 C 0.39326 0.41922 0.2334 0.0
C2467 C 0.36474 0.44294 0.24539 0.0
C2468 C 0.34169 0.44678 0.24794 0.0
C2469 C 0.37016 0.42322 0.23486 0.0
C2470 C 0.32395 0.43104 0.23852 0.0
C2471 C 0.32921 0.41127 0.22791 0.0
H2472 H 0.66672 0.35988 0.21464 0.0
H2473 H 0.71395 0.35578 0.27783 0.0
H2474 H 0.68245 0.3394 0.30067 0.0
H2475 H 0.64128 0.32606 0.30232 0.0
H2476 H 0.59475 0.32752 0.23834 0.0
H2477 H 0.62594 0.34519 0.21591 0.0
C2478 C 0.66997 0.3552 0.23337 0.0
C2479 C 0.69232 0.3592 0.24478 0.0
C2480 C 0.65189 0.34553 0.24614 0.0
C2481 C 0.69666 0.35309 0.26897 0.0
C2482 C 0.67872 0.34375 0.28193 0.0
C2483 C 0.63805 0.33058 0.28354 0.0
C2484 C 0.61585 0.32592 0.27193 0.0
C2485 C 0.65622 0.34003 0.27073 0.0
C2486 C 0.61178 0.33119 0.2475 0.0
C2487 C 0.62957 0.34118 0.23474 0.0
H2488 H 0.40211 0.68931 0.17667 0.0
H2489 H 0.36167 0.67931 0.23635 0.0
H2490 H 0.39485 0.69405 0.26289 0.0
H2491 H 0.43432 0.71282 0.26836 0.0
H2492 H 0.47265 0.72814 0.20753 0.0
H2493 H 0.4411 0.70909 0.18186 0.0
C2494 C 0.40062 0.69049 0.19548 0.0
C2495 C 0.37957 0.68326 0.20459 0.0
C2496 C 0.41924 0.70034 0.21023 0.0
C2497 C 0.37784 0.6844 0.22904 0.0
C2498 C 0.3967 0.69312 0.24411 0.0
C2499 C 0.43578 0.71184 0.24949 0.0
C2500 C 0.45572 0.72175 0.23977 0.0
C2501 C 0.41732 0.70157 0.23481 0.0
C2502 C 0.45737 0.72071 0.21531 0.0
C2503 C 0.43941 0.70975 0.20069 0.0
loop_
_geom_bond_atom_site_label_1
_geom_bond_atom_site_label_2
_geom_bond_distance
_geom_bond_site_symmetry_2
_ccdc_geom_bond_type
C0 N1 1.317 . S
C0 N2 1.348 . S
C0 C3 1.485 . S
N1 C0 1.317 . S
N1 N5 1.370 . S
N2 C0 1.348 . S
N2 C4 1.346 . S
C3 C0 1.485 . S
C3 H7 0.960 . S
C3 H8 0.961 . S
C3 H9 0.960 . S
C4 N2 1.346 . S
C4 N5 1.307 . S
C4 C6 1.486 . S
N5 N1 1.370 . S
N5 C4 1.307 . S
C6 C4 1.486 . S
C6 H10 0.960 . S
C6 H11 0.960 . S
C6 H12 0.959 . S
H7 C3 0.960 . S
H8 C3 0.961 . S
H9 C3 0.960 . S
H10 C6 0.960 . S
H11 C6 0.960 . S
H12 C6 0.959 . S
C13 N14 1.317 . S
C13 N15 1.348 . S
C13 C16 1.485 . S
N14 C13 1.317 . S
N14 N18 1.370 . S
N15 C13 1.348 . S
N15 C17 1.346 . S
C16 C13 1.485 . S
C16 H20 0.960 . S
C16 H21 0.961 . S
C16 H22 0.960 . S
C17 N15 1.346 . S
C17 N18 1.307 . S
C17 C19 1.486 . S
N18 N14 1.370 . S
N18 C17 1.307 . S
C19 C17 1.486 . S
C19 H23 0.960 . S
C19 H24 0.960 . S
C19 H25 0.959 . S
H20 C16 0.960 . S
H21 C16 0.961 . S
H22 C16 0.960 . S
H23 C19 0.960 . S
H24 C19 0.960 . S
H25 C19 0.959 . S
C26 N27 1.317 . S
C26 N28 1.348 . S
C26 C29 1.485 . S
N27 C26 1.317 . S
N27 N31 1.370 . S
N28 C26 1.348 . S
N28 C30 1.346 . S
C29 C26 1.485 . S
C29 H33 0.960 . S
C29 H34 0.961 . S
C29 H35 0.960 . S
C30 N28 1.346 . S
C30 N31 1.307 . S
C30 C32 1.486 . S
N31 N27 1.370 . S
N31 C30 1.307 . S
C32 C30 1.486 . S
C32 H36 0.960 . S
C32 H37 0.960 . S
C32 H38 0.959 . S
H33 C29 0.960 . S
H34 C29 0.961 . S
H35 C29 0.960 . S
H36 C32 0.960 . S
H37 C32 0.960 . S
H38 C32 0.959 . S
C39 N40 1.317 . S
C39 N41 1.348 . S
C39 C42 1.485 . S
N40 C39 1.317 . S
N40 N44 1.370 . S
N41 C39 1.348 . S
N41 C43 1.346 . S
C42 C39 1.485 . S
C42 H46 0.960 . S
C42 H47 0.961 . S
C42 H48 0.960 . S
C43 N41 1.346 . S
C43 N44 1.307 . S
C43 C45 1.486 . S
N44 N40 1.370 . S
N44 C43 1.307 . S
C45 C43 1.486 . S
C45 H49 0.960 . S
C45 H50 0.960 . S
C45 H51 0.959 . S
H46 C42 0.960 . S
H47 C42 0.961 . S
H48 C42 0.960 . S
H49 C45 0.960 . S
H50 C45 0.960 . S
H51 C45 0.959 . S
C52 N53 1.317 . S
C52 N54 1.348 . S
C52 C55 1.485 . S
N53 C52 1.317 . S
N53 N57 1.370 . S
N54 C52 1.348 . S
N54 C56 1.346 . S
C55 C52 1.485 . S
C55 H59 0.960 . S
C55 H60 0.961 . S
C55 H61 0.960 . S
C56 N54 1.346 . S
C56 N57 1.307 . S
C56 C58 1.486 . S
N57 N53 1.370 . S
N57 C56 1.307 . S
C58 C56 1.486 . S
C58 H62 0.960 . S
C58 H63 0.960 . S
C58 H64 0.959 . S
H59 C55 0.960 . S
H60 C55 0.961 . S
H61 C55 0.960 . S
H62 C58 0.960 . S
H63 C58 0.960 . S
H64 C58 0.959 . S
C65 N66 1.317 . S
C65 N67 1.348 . S
C65 C68 1.485 . S
N66 C65 1.317 . S
N66 N70 1.370 . S
N67 C65 1.348 . S
N67 C69 1.346 . S
C68 C65 1.485 . S
C68 H72 0.960 . S
C68 H73 0.961 . S
C68 H74 0.960 . S
C69 N67 1.346 . S
C69 N70 1.307 . S
C69 C71 1.486 . S
N70 N66 1.370 . S
N70 C69 1.307 . S
C71 C69 1.486 . S
C71 H75 0.960 . S
C71 H76 0.960 . S
C71 H77 0.959 . S
H72 C68 0.960 . S
H73 C68 0.961 . S
H74 C68 0.960 . S
H75 C71 0.960 . S
H76 C71 0.960 . S
H77 C71 0.959 . S
C78 N79 1.317 . S
C78 N80 1.348 . S
C78 C81 1.485 . S
N79 C78 1.317 . S
N79 N83 1.370 . S
N80 C78 1.348 . S
N80 C82 1.346 . S
C81 C78 1.485 . S
C81 H85 0.960 . S
C81 H86 0.961 . S
C81 H87 0.960 . S
C82 N80 1.346 . S
C82 N83 1.307 . S
C82 C84 1.486 . S
N83 N79 1.370 . S
N83 C82 1.307 . S
C84 C82 1.486 . S
C84 H88 0.960 . S
C84 H89 0.960 . S
C84 H90 0.959 . S
H85 C81 0.960 . S
H86 C81 0.961 . S
H87 C81 0.960 . S
H88 C84 0.960 . S
H89 C84 0.960 . S
H90 C84 0.959 . S
C91 N92 1.317 . S
C91 N93 1.348 . S
C91 C94 1.485 . S
N92 C91 1.317 . S
N92 N96 1.370 . S
N93 C91 1.348 . S
N93 C95 1.346 . S
C94 C91 1.485 . S
C94 H98 0.960 . S
C94 H99 0.961 . S
C94 H100 0.960 . S
C95 N93 1.346 . S
C95 N96 1.307 . S
C95 C97 1.486 . S
N96 N92 1.370 . S
N96 C95 1.307 . S
C97 C95 1.486 . S
C97 H101 0.960 . S
C97 H102 0.960 . S
C97 H103 0.959 . S
H98 C94 0.960 . S
H99 C94 0.961 . S
H100 C94 0.960 . S
H101 C97 0.960 . S
H102 C97 0.960 . S
H103 C97 0.959 . S
C104 N105 1.317 . S
C104 N106 1.348 . S
C104 C107 1.485 . S
N105 C104 1.317 . S
N105 N109 1.370 . S
N106 C104 1.348 . S
N106 C108 1.346 . S
C107 C104 1.485 . S
C107 H111 0.960 . S
C107 H112 0.961 . S
C107 H113 0.960 . S
C108 N106 1.346 . S
C108 N109 1.307 . S
C108 C110 1.486 . S
N109 N105 1.370 . S
N109 C108 1.307 . S
C110 C108 1.486 . S
C110 H114 0.960 . S
C110 H115 0.960 . S
C110 H116 0.959 . S
H111 C107 0.960 . S
H112 C107 0.961 . S
H113 C107 0.960 . S
H114 C110 0.960 . S
H115 C110 0.960 . S
H116 C110 0.959 . S
C117 N118 1.317 . S
C117 N119 1.348 . S
C117 C120 1.485 . S
N118 C117 1.317 . S
N118 N122 1.370 . S
N119 C117 1.348 . S
N119 C121 1.346 . S
C120 C117 1.485 . S
C120 H124 0.960 . S
C120 H125 0.961 . S
C120 H126 0.960 . S
C121 N119 1.346 . S
C121 N122 1.307 . S
C121 C123 1.486 . S
N122 N118 1.370 . S
N122 C121 1.307 . S
C123 C121 1.486 . S
C123 H127 0.960 . S
C123 H128 0.960 . S
C123 H129 0.959 . S
H124 C120 0.960 . S
H125 C120 0.961 . S
H126 C120 0.960 . S
H127 C123 0.960 . S
H128 C123 0.960 . S
H129 C123 0.959 . S
C130 N131 1.317 . S
C130 N132 1.348 . S
C130 C133 1.485 . S
N131 C130 1.317 . S
N131 N135 1.370 . S
N132 C130 1.348 . S
N132 C134 1.346 . S
C133 C130 1.485 . S
C133 H137 0.960 . S
C133 H138 0.961 . S
C133 H139 0.960 . S
C134 N132 1.346 . S
C134 N135 1.307 . S
C134 C136 1.486 . S
N135 N131 1.370 . S
N135 C134 1.307 . S
C136 C134 1.486 . S
C136 H140 0.960 . S
C136 H141 0.960 . S
C136 H142 0.959 . S
H137 C133 0.960 . S
H138 C133 0.961 . S
H139 C133 0.960 . S
H140 C136 0.960 . S
H141 C136 0.960 . S
H142 C136 0.959 . S
C143 N144 1.317 . S
C143 N145 1.348 . S
C143 C146 1.485 . S
N144 C143 1.317 . S
N144 N148 1.370 . S
N145 C143 1.348 . S
N145 C147 1.346 . S
C146 C143 1.485 . S
C146 H150 0.960 . S
C146 H151 0.961 . S
C146 H152 0.960 . S
C147 N145 1.346 . S
C147 N148 1.307 . S
C147 C149 1.486 . S
N148 N144 1.370 . S
N148 C147 1.307 . S
C149 C147 1.486 . S
C149 H153 0.960 . S
C149 H154 0.960 . S
C149 H155 0.959 . S
H150 C146 0.960 . S
H151 C146 0.961 . S
H152 C146 0.960 . S
H153 C149 0.960 . S
H154 C149 0.960 . S
H155 C149 0.959 . S
C156 N157 1.317 . S
C156 N158 1.348 . S
C156 C159 1.485 . S
N157 C156 1.317 . S
N157 N161 1.370 . S
N158 C156 1.348 . S
N158 C160 1.346 . S
C159 C156 1.485 . S
C159 H163 0.960 . S
C159 H164 0.961 . S
C159 H165 0.960 . S
C160 N158 1.346 . S
C160 N161 1.307 . S
C160 C162 1.486 . S
N161 N157 1.370 . S
N161 C160 1.307 . S
C162 C160 1.486 . S
C162 H166 0.960 . S
C162 H167 0.960 . S
C162 H168 0.959 . S
H163 C159 0.960 . S
H164 C159 0.961 . S
H165 C159 0.960 . S
H166 C162 0.960 . S
H167 C162 0.960 . S
H168 C162 0.959 . S
C169 N170 1.317 . S
C169 N171 1.348 . S
C169 C172 1.485 . S
N170 C169 1.317 . S
N170 N174 1.370 . S
N171 C169 1.348 . S
N171 C173 1.346 . S
C172 C169 1.485 . S
C172 H176 0.960 . S
C172 H177 0.961 . S
C172 H178 0.960 . S
C173 N171 1.346 . S
C173 N174 1.307 . S
C173 C175 1.486 . S
N174 N170 1.370 . S
N174 C173 1.307 . S
C175 C173 1.486 . S
C175 H179 0.960 . S
C175 H180 0.960 . S
C175 H181 0.959 . S
H176 C172 0.960 . S
H177 C172 0.961 . S
H178 C172 0.960 . S
H179 C175 0.960 . S
H180 C175 0.960 . S
H181 C175 0.959 . S
C182 N183 1.317 . S
C182 N184 1.348 . S
C182 C185 1.485 . S
N183 C182 1.317 . S
N183 N187 1.370 . S
N184 C182 1.348 . S
N184 C186 1.346 . S
C185 C182 1.485 . S
C185 H189 0.960 . S
C185 H190 0.961 . S
C185 H191 0.960 . S
C186 N184 1.346 . S
C186 N187 1.307 . S
C186 C188 1.486 . S
N187 N183 1.370 . S
N187 C186 1.307 . S
C188 C186 1.486 . S
C188 H192 0.960 . S
C188 H193 0.960 . S
C188 H194 0.959 . S
H189 C185 0.960 . S
H190 C185 0.961 . S
H191 C185 0.960 . S
H192 C188 0.960 . S
H193 C188 0.960 . S
H194 C188 0.959 . S
C195 N196 1.317 . S
C195 N197 1.348 . S
C195 C198 1.485 . S
N196 C195 1.317 . S
N196 N200 1.370 . S
N197 C195 1.348 . S
N197 C199 1.346 . S
C198 C195 1.485 . S
C198 H202 0.960 . S
C198 H203 0.961 . S
C198 H204 0.960 . S
C199 N197 1.346 . S
C199 N200 1.307 . S
C199 C201 1.486 . S
N200 N196 1.370 . S
N200 C199 1.307 . S
C201 C199 1.486 . S
C201 H205 0.960 . S
C201 H206 0.960 . S
C201 H207 0.959 . S
H202 C198 0.960 . S
H203 C198 0.961 . S
H204 C198 0.960 . S
H205 C201 0.960 . S
H206 C201 0.960 . S
H207 C201 0.959 . S
C208 N209 1.317 . S
C208 N210 1.348 . S
C208 C211 1.485 . S
N209 C208 1.317 . S
N209 N213 1.370 . S
N210 C208 1.348 . S
N210 C212 1.346 . S
C211 C208 1.485 . S
C211 H215 0.960 . S
C211 H216 0.961 . S
C211 H217 0.960 . S
C212 N210 1.346 . S
C212 N213 1.307 . S
C212 C214 1.486 . S
N213 N209 1.370 . S
N213 C212 1.307 . S
C214 C212 1.486 . S
C214 H218 0.960 . S
C214 H219 0.960 . S
C214 H220 0.959 . S
H215 C211 0.960 . S
H216 C211 0.961 . S
H217 C211 0.960 . S
H218 C214 0.960 . S
H219 C214 0.960 . S
H220 C214 0.959 . S
C221 N222 1.317 . S
C221 N223 1.348 . S
C221 C224 1.485 . S
N222 C221 1.317 . S
N222 N226 1.370 . S
N223 C221 1.348 . S
N223 C225 1.346 . S
C224 C221 1.485 . S
C224 H228 0.960 . S
C224 H229 0.961 . S
C224 H230 0.960 . S
C225 N223 1.346 . S
C225 N226 1.307 . S
C225 C227 1.486 . S
N226 N222 1.370 . S
N226 C225 1.307 . S
C227 C225 1.486 . S
C227 H231 0.960 . S
C227 H232 0.960 . S
C227 H233 0.959 . S
H228 C224 0.960 . S
H229 C224 0.961 . S
H230 C224 0.960 . S
H231 C227 0.960 . S
H232 C227 0.960 . S
H233 C227 0.959 . S
C234 N235 1.317 . S
C234 N236 1.348 . S
C234 C237 1.485 . S
N235 C234 1.317 . S
N235 N239 1.370 . S
N236 C234 1.348 . S
N236 C238 1.346 . S
C237 C234 1.485 . S
C237 H241 0.960 . S
C237 H242 0.961 . S
C237 H243 0.960 . S
C238 N236 1.346 . S
C238 N239 1.307 . S
C238 C240 1.486 . S
N239 N235 1.370 . S
N239 C238 1.307 . S
C240 C238 1.486 . S
C240 H244 0.960 . S
C240 H245 0.960 . S
C240 H246 0.959 . S
H241 C237 0.960 . S
H242 C237 0.961 . S
H243 C237 0.960 . S
H244 C240 0.960 . S
H245 C240 0.960 . S
H246 C240 0.959 . S
C247 N248 1.317 . S
C247 N249 1.348 . S
C247 C250 1.485 . S
N248 C247 1.317 . S
N248 N252 1.370 . S
N249 C247 1.348 . S
N249 C251 1.346 . S
C250 C247 1.485 . S
C250 H254 0.960 . S
C250 H255 0.961 . S
C250 H256 0.960 . S
C251 N249 1.346 . S
C251 N252 1.307 . S
C251 C253 1.486 . S
N252 N248 1.370 . S
N252 C251 1.307 . S
C253 C251 1.486 . S
C253 H257 0.960 . S
C253 H258 0.960 . S
C253 H259 0.959 . S
H254 C250 0.960 . S
H255 C250 0.961 . S
H256 C250 0.960 . S
H257 C253 0.960 . S
H258 C253 0.960 . S
H259 C253 0.959 . S
C260 N261 1.317 . S
C260 N262 1.348 . S
C260 C263 1.485 . S
N261 C260 1.317 . S
N261 N265 1.370 . S
N262 C260 1.348 . S
N262 C264 1.346 . S
C263 C260 1.485 . S
C263 H267 0.960 . S
C263 H268 0.961 . S
C263 H269 0.960 . S
C264 N262 1.346 . S
C264 N265 1.307 . S
C264 C266 1.486 . S
N265 N261 1.370 . S
N265 C264 1.307 . S
C266 C264 1.486 . S
C266 H270 0.960 . S
C266 H271 0.960 . S
C266 H272 0.959 . S
H267 C263 0.960 . S
H268 C263 0.961 . S
H269 C263 0.960 . S
H270 C266 0.960 . S
H271 C266 0.960 . S
H272 C266 0.959 . S
C273 N274 1.317 . S
C273 N275 1.348 . S
C273 C276 1.485 . S
N274 C273 1.317 . S
N274 N278 1.370 . S
N275 C273 1.348 . S
N275 C277 1.346 . S
C276 C273 1.485 . S
C276 H280 0.960 . S
C276 H281 0.961 . S
C276 H282 0.960 . S
C277 N275 1.346 . S
C277 N278 1.307 . S
C277 C279 1.486 . S
N278 N274 1.370 . S
N278 C277 1.307 . S
C279 C277 1.486 . S
C279 H283 0.960 . S
C279 H284 0.960 . S
C279 H285 0.959 . S
H280 C276 0.960 . S
H281 C276 0.961 . S
H282 C276 0.960 . S
H283 C279 0.960 . S
H284 C279 0.960 . S
H285 C279 0.959 . S
C286 N287 1.317 . S
C286 N288 1.348 . S
C286 C289 1.485 . S
N287 C286 1.317 . S
N287 N291 1.370 . S
N288 C286 1.348 . S
N288 C290 1.346 . S
C289 C286 1.485 . S
C289 H293 0.960 . S
C289 H294 0.961 . S
C289 H295 0.960 . S
C290 N288 1.346 . S
C290 N291 1.307 . S
C290 C292 1.486 . S
N291 N287 1.370 . S
N291 C290 1.307 . S
C292 C290 1.486 . S
C292 H296 0.960 . S
C292 H297 0.960 . S
C292 H298 0.959 . S
H293 C289 0.960 . S
H294 C289 0.961 . S
H295 C289 0.960 . S
H296 C292 0.960 . S
H297 C292 0.960 . S
H298 C292 0.959 . S
C299 N300 1.317 . S
C299 N301 1.348 . S
C299 C302 1.485 . S
N300 C299 1.317 . S
N300 N304 1.370 . S
N301 C299 1.348 . S
N301 C303 1.346 . S
C302 C299 1.485 . S
C302 H306 0.960 . S
C302 H307 0.961 . S
C302 H308 0.960 . S
C303 N301 1.346 . S
C303 N304 1.307 . S
C303 C305 1.486 . S
N304 N300 1.370 . S
N304 C303 1.307 . S
C305 C303 1.486 . S
C305 H309 0.960 . S
C305 H310 0.960 . S
C305 H311 0.959 . S
H306 C302 0.960 . S
H307 C302 0.961 . S
H308 C302 0.960 . S
H309 C305 0.960 . S
H310 C305 0.960 . S
H311 C305 0.959 . S
C312 N313 1.317 . S
C312 N314 1.348 . S
C312 C315 1.485 . S
N313 C312 1.317 . S
N313 N317 1.370 . S
N314 C312 1.348 . S
N314 C316 1.346 . S
C315 C312 1.485 . S
C315 H319 0.960 . S
C315 H320 0.961 . S
C315 H321 0.960 . S
C316 N314 1.346 . S
C316 N317 1.307 . S
C316 C318 1.486 . S
N317 N313 1.370 . S
N317 C316 1.307 . S
C318 C316 1.486 . S
C318 H322 0.960 . S
C318 H323 0.960 . S
C318 H324 0.959 . S
H319 C315 0.960 . S
H320 C315 0.961 . S
H321 C315 0.960 . S
H322 C318 0.960 . S
H323 C318 0.960 . S
H324 C318 0.959 . S
C325 N326 1.317 . S
C325 N327 1.348 . S
C325 C328 1.485 . S
N326 C325 1.317 . S
N326 N330 1.370 . S
N327 C325 1.348 . S
N327 C329 1.346 . S
C328 C325 1.485 . S
C328 H332 0.960 . S
C328 H333 0.961 . S
C328 H334 0.960 . S
C329 N327 1.346 . S
C329 N330 1.307 . S
C329 C331 1.486 . S
N330 N326 1.370 . S
N330 C329 1.307 . S
C331 C329 1.486 . S
C331 H335 0.960 . S
C331 H336 0.960 . S
C331 H337 0.959 . S
H332 C328 0.960 . S
H333 C328 0.961 . S
H334 C328 0.960 . S
H335 C331 0.960 . S
H336 C331 0.960 . S
H337 C331 0.959 . S
C338 N339 1.317 . S
C338 N340 1.348 . S
C338 C341 1.485 . S
N339 C338 1.317 . S
N339 N343 1.370 . S
N340 C338 1.348 . S
N340 C342 1.346 . S
C341 C338 1.485 . S
C341 H345 0.960 . S
C341 H346 0.961 . S
C341 H347 0.960 . S
C342 N340 1.346 . S
C342 N343 1.307 . S
C342 C344 1.486 . S
N343 N339 1.370 . S
N343 C342 1.307 . S
C344 C342 1.486 . S
C344 H348 0.960 . S
C344 H349 0.960 . S
C344 H350 0.959 . S
H345 C341 0.960 . S
H346 C341 0.961 . S
H347 C341 0.960 . S
H348 C344 0.960 . S
H349 C344 0.960 . S
H350 C344 0.959 . S
C351 N352 1.317 . S
C351 N353 1.348 . S
C351 C354 1.485 . S
N352 C351 1.317 . S
N352 N356 1.370 . S
N353 C351 1.348 . S
N353 C355 1.346 . S
C354 C351 1.485 . S
C354 H358 0.960 . S
C354 H359 0.961 . S
C354 H360 0.960 . S
C355 N353 1.346 . S
C355 N356 1.307 . S
C355 C357 1.486 . S
N356 N352 1.370 . S
N356 C355 1.307 . S
C357 C355 1.486 . S
C357 H361 0.960 . S
C357 H362 0.960 . S
C357 H363 0.959 . S
H358 C354 0.960 . S
H359 C354 0.961 . S
H360 C354 0.960 . S
H361 C357 0.960 . S
H362 C357 0.960 . S
H363 C357 0.959 . S
C364 N365 1.317 . S
C364 N366 1.348 . S
C364 C367 1.485 . S
N365 C364 1.317 . S
N365 N369 1.370 . S
N366 C364 1.348 . S
N366 C368 1.346 . S
C367 C364 1.485 . S
C367 H371 0.960 . S
C367 H372 0.961 . S
C367 H373 0.960 . S
C368 N366 1.346 . S
C368 N369 1.307 . S
C368 C370 1.486 . S
N369 N365 1.370 . S
N369 C368 1.307 . S
C370 C368 1.486 . S
C370 H374 0.960 . S
C370 H375 0.960 . S
C370 H376 0.959 . S
H371 C367 0.960 . S
H372 C367 0.961 . S
H373 C367 0.960 . S
H374 C370 0.960 . S
H375 C370 0.960 . S
H376 C370 0.959 . S
C377 N378 1.317 . S
C377 N379 1.348 . S
C377 C380 1.485 . S
N378 C377 1.317 . S
N378 N382 1.370 . S
N379 C377 1.348 . S
N379 C381 1.346 . S
C380 C377 1.485 . S
C380 H384 0.960 . S
C380 H385 0.961 . S
C380 H386 0.960 . S
C381 N379 1.346 . S
C381 N382 1.307 . S
C381 C383 1.486 . S
N382 N378 1.370 . S
N382 C381 1.307 . S
C383 C381 1.486 . S
C383 H387 0.960 . S
C383 H388 0.960 . S
C383 H389 0.959 . S
H384 C380 0.960 . S
H385 C380 0.961 . S
H386 C380 0.960 . S
H387 C383 0.960 . S
H388 C383 0.960 . S
H389 C383 0.959 . S
C390 N391 1.317 . S
C390 N392 1.348 . S
C390 C393 1.485 . S
N391 C390 1.317 . S
N391 N395 1.370 . S
N392 C390 1.348 . S
N392 C394 1.346 . S
C393 C390 1.485 . S
C393 H397 0.960 . S
C393 H398 0.961 . S
C393 H399 0.960 . S
C394 N392 1.346 . S
C394 N395 1.307 . S
C394 C396 1.486 . S
N395 N391 1.370 . S
N395 C394 1.307 . S
C396 C394 1.486 . S
C396 H400 0.960 . S
C396 H401 0.960 . S
C396 H402 0.959 . S
H397 C393 0.960 . S
H398 C393 0.961 . S
H399 C393 0.960 . S
H400 C396 0.960 . S
H401 C396 0.960 . S
H402 C396 0.959 . S
C403 N404 1.317 . S
C403 N405 1.348 . S
C403 C406 1.485 . S
N404 C403 1.317 . S
N404 N408 1.370 . S
N405 C403 1.348 . S
N405 C407 1.346 . S
C406 C403 1.485 . S
C406 H410 0.960 . S
C406 H411 0.961 . S
C406 H412 0.960 . S
C407 N405 1.346 . S
C407 N408 1.307 . S
C407 C409 1.486 . S
N408 N404 1.370 . S
N408 C407 1.307 . S
C409 C407 1.486 . S
C409 H413 0.960 . S
C409 H414 0.960 . S
C409 H415 0.959 . S
H410 C406 0.960 . S
H411 C406 0.961 . S
H412 C406 0.960 . S
H413 C409 0.960 . S
H414 C409 0.960 . S
H415 C409 0.959 . S
Cu416 N417 1.999 . S
Cu416 O422 1.974 1_554 S
Cu416 N427 1.985 . S
Cu416 O436 1.959 . S
N417 Cu416 1.999 . S
N417 C419 1.263 1_554 S
N417 C421 1.389 . S
N418 C419 1.358 . S
N418 C420 1.400 . S
C419 N417 1.263 1_556 S
C419 N418 1.358 . S
C419 H425 0.930 . S
C420 N418 1.400 . S
C420 C421 1.351 1_556 S
C420 H437 0.930 . S
C421 N417 1.389 . S
C421 C420 1.351 1_554 S
C421 H426 0.930 . S
O422 Cu416 1.974 1_556 S
O422 C432 1.282 . S
C423 O424 1.261 . S
C423 O436 1.251 . S
O424 C423 1.261 . S
H425 C419 0.930 . S
H426 C421 0.930 . S
N427 Cu416 1.985 . S
N427 C429 1.335 . S
N427 C430 1.390 . S
N428 C429 1.345 . S
N428 C431 1.336 . S
C429 N427 1.335 . S
C429 N428 1.345 . S
C429 H434 0.930 . S
C430 N427 1.390 . S
C430 C431 1.346 . S
C430 H435 0.930 . S
C431 N428 1.336 . S
C431 C430 1.346 . S
C431 H438 0.929 . S
C432 O422 1.282 . S
C432 O433 1.216 . S
O433 C432 1.216 . S
H434 C429 0.930 . S
H435 C430 0.930 . S
O436 Cu416 1.959 . S
O436 C423 1.251 . S
H437 C420 0.930 . S
H438 C431 0.929 . S
Cu439 N440 1.999 . S
Cu439 O445 1.974 . S
Cu439 N450 1.985 1_554 S
Cu439 O459 1.959 1_554 S
N440 Cu439 1.999 . S
N440 C442 1.263 . S
N440 C444 1.389 . S
N441 C442 1.358 . S
N441 C443 1.400 . S
C442 N440 1.263 . S
C442 N441 1.358 . S
C442 H448 0.930 . S
C443 N441 1.400 . S
C443 C444 1.351 . S
C443 H460 0.930 . S
C444 N440 1.389 . S
C444 C443 1.351 . S
C444 H449 0.930 . S
O445 Cu439 1.974 . S
O445 C455 1.282 . S
C446 O447 1.261 . S
C446 O459 1.251 . S
O447 C446 1.261 . S
H448 C442 0.930 . S
H449 C444 0.930 . S
N450 Cu439 1.985 1_556 S
N450 C452 1.335 . S
N450 C453 1.390 1_556 S
N451 C452 1.345 . S
N451 C454 1.336 . S
C452 N450 1.335 . S
C452 N451 1.345 . S
C452 H457 0.930 . S
C453 N450 1.390 1_554 S
C453 C454 1.346 1_554 S
C453 H458 0.930 . S
C454 N451 1.336 . S
C454 C453 1.346 1_556 S
C454 H461 0.929 . S
C455 O445 1.282 . S
C455 O456 1.216 . S
O456 C455 1.216 . S
H457 C452 0.930 . S
H458 C453 0.930 . S
O459 Cu439 1.959 1_556 S
O459 C446 1.251 . S
H460 C443 0.930 . S
H461 C454 0.929 . S
Cu462 N463 1.999 1_554 S
Cu462 O468 1.974 1_554 S
Cu462 N473 1.985 . S
Cu462 O482 1.959 . S
N463 Cu462 1.999 1_556 S
N463 C465 1.263 . S
N463 C467 1.389 . S
N464 C465 1.358 . S
N464 C466 1.400 . S
C465 N463 1.263 . S
C465 N464 1.358 . S
C465 H471 0.930 . S
C466 N464 1.400 . S
C466 C467 1.351 . S
C466 H483 0.930 . S
C467 N463 1.389 . S
C467 C466 1.351 . S
C467 H472 0.930 1_556 S
O468 Cu462 1.974 1_556 S
O468 C478 1.282 . S
C469 O470 1.261 . S
C469 O482 1.251 . S
O470 C469 1.261 . S
H471 C465 0.930 . S
H472 C467 0.930 1_554 S
N473 Cu462 1.985 . S
N473 C475 1.335 . S
N473 C476 1.390 . S
N474 C475 1.345 . S
N474 C477 1.336 . S
C475 N473 1.335 . S
C475 N474 1.345 . S
C475 H480 0.930 . S
C476 N473 1.390 . S
C476 C477 1.346 . S
C476 H481 0.921 1_554 S
C477 N474 1.336 . S
C477 C476 1.346 . S
C477 H484 0.929 . S
C478 O468 1.282 . S
C478 O479 1.216 . S
O479 C478 1.216 . S
H480 C475 0.930 . S
H481 C476 0.921 1_556 S
O482 Cu462 1.959 . S
O482 C469 1.251 . S
H483 C466 0.930 . S
H484 C477 0.929 . S
Cu485 N486 1.999 . S
Cu485 O491 1.974 . S
Cu485 N496 1.985 1_554 S
Cu485 O505 1.959 1_554 S
N486 Cu485 1.999 . S
N486 C488 1.263 . S
N486 C490 1.389 . S
N487 C488 1.358 . S
N487 C489 1.400 . S
C488 N486 1.263 . S
C488 N487 1.358 . S
C488 H494 0.930 . S
C489 N487 1.400 . S
C489 C490 1.351 . S
C489 H506 0.930 . S
C490 N486 1.389 . S
C490 C489 1.351 . S
C490 H495 0.934 1_554 S
O491 Cu485 1.974 . S
O491 C501 1.282 . S
C492 O493 1.261 . S
C492 O505 1.251 . S
O493 C492 1.261 . S
H494 C488 0.930 . S
H495 C490 0.934 1_556 S
N496 Cu485 1.985 1_556 S
N496 C498 1.335 . S
N496 C499 1.390 . S
N497 C498 1.345 . S
N497 C500 1.336 . S
C498 N496 1.335 . S
C498 N497 1.345 . S
C498 H503 0.930 . S
C499 N496 1.390 . S
C499 C500 1.346 . S
C499 H504 0.930 1_556 S
C500 N497 1.336 . S
C500 C499 1.346 . S
C500 H507 0.929 . S
C501 O491 1.282 . S
C501 O502 1.216 . S
O502 C501 1.216 . S
H503 C498 0.930 . S
H504 C499 0.930 1_554 S
O505 Cu485 1.959 1_556 S
O505 C492 1.251 . S
H506 C489 0.930 . S
H507 C500 0.929 . S
Cu508 N509 1.999 . S
Cu508 O514 1.974 . S
Cu508 N519 1.985 1_455 S
Cu508 O528 1.959 1_455 S
N509 Cu508 1.999 . S
N509 C511 1.263 . S
N509 C513 1.389 . S
N510 C511 1.358 . S
N510 C512 1.400 . S
C511 N509 1.263 . S
C511 N510 1.358 . S
C511 H517 0.930 . S
C512 N510 1.400 . S
C512 C513 1.351 . S
C512 H529 0.930 . S
C513 N509 1.389 . S
C513 C512 1.351 . S
C513 H518 0.930 . S
O514 Cu508 1.974 . S
O514 C524 1.282 . S
C515 O516 1.261 . S
C515 O528 1.251 . S
O516 C515 1.261 . S
H517 C511 0.930 . S
H518 C513 0.930 . S
N519 Cu508 1.985 1_655 S
N519 C521 1.335 . S
N519 C522 1.390 1_655 S
N520 C521 1.345 . S
N520 C523 1.336 . S
C521 N519 1.335 . S
C521 N520 1.345 . S
C521 H526 0.930 . S
C522 N519 1.390 1_455 S
C522 C523 1.346 1_455 S
C522 H527 0.930 . S
C523 N520 1.336 . S
C523 C522 1.346 1_655 S
C523 H530 0.929 . S
C524 O514 1.282 . S
C524 O525 1.216 . S
O525 C524 1.216 . S
H526 C521 0.930 . S
H527 C522 0.930 . S
O528 Cu508 1.959 1_655 S
O528 C515 1.251 . S
H529 C512 0.930 . S
H530 C523 0.929 . S
Cu531 N532 2.024 . S
Cu531 O537 2.002 . S
Cu531 N542 1.962 1_545 S
Cu531 O551 1.931 1_545 S
N532 Cu531 2.024 . S
N532 C534 1.263 . S
N532 C536 1.389 . S
N533 C534 1.358 . S
N533 C535 1.400 . S
C534 N532 1.263 . S
C534 N533 1.358 . S
C534 H540 0.930 . S
C535 N533 1.400 . S
C535 C536 1.351 . S
C535 H552 0.930 . S
C536 N532 1.389 . S
C536 C535 1.351 . S
C536 H541 0.930 . S
O537 Cu531 2.002 . S
O537 C547 1.282 . S
C538 O539 1.261 . S
C538 O551 1.251 . S
O539 C538 1.261 . S
H540 C534 0.930 . S
H541 C536 0.930 . S
N542 Cu531 1.962 1_565 S
N542 C544 1.335 . S
N542 C545 1.390 . S
N543 C544 1.345 . S
N543 C546 1.336 . S
C544 N542 1.335 . S
C544 N543 1.345 . S
C544 H549 0.930 . S
C545 N542 1.390 . S
C545 C546 1.346 . S
C545 H550 0.930 . S
C546 N543 1.336 . S
C546 C545 1.346 . S
C546 H553 0.929 . S
C547 O537 1.282 . S
C547 O548 1.216 . S
O548 C547 1.216 . S
H549 C544 0.930 . S
H550 C545 0.930 . S
O551 Cu531 1.931 1_565 S
O551 C538 1.251 . S
H552 C535 0.930 . S
H553 C546 0.929 . S
Cu554 N555 1.999 1_455 S
Cu554 O560 1.974 1_455 S
Cu554 N565 1.985 . S
Cu554 O574 1.959 . S
N555 Cu554 1.999 1_655 S
N555 C557 1.263 . S
N555 C559 1.389 . S
N556 C557 1.358 . S
N556 C558 1.400 . S
C557 N555 1.263 . S
C557 N556 1.358 . S
C557 H563 0.930 . S
C558 N556 1.400 . S
C558 C559 1.351 . S
C558 H575 0.930 . S
C559 N555 1.389 . S
C559 C558 1.351 . S
C559 H564 0.930 1_655 S
O560 Cu554 1.974 1_655 S
O560 C570 1.282 . S
C561 O562 1.261 . S
C561 O574 1.251 . S
O562 C561 1.261 . S
H563 C557 0.930 . S
H564 C559 0.930 1_455 S
N565 Cu554 1.985 . S
N565 C567 1.335 . S
N565 C568 1.390 . S
N566 C567 1.345 . S
N566 C569 1.336 . S
C567 N565 1.335 . S
C567 N566 1.345 . S
C567 H572 0.930 . S
C568 N565 1.390 . S
C568 C569 1.346 . S
C568 H573 0.930 . S
C569 N566 1.336 . S
C569 C568 1.346 . S
C569 H576 0.929 . S
C570 O560 1.282 . S
C570 O571 1.216 . S
O571 C570 1.216 . S
H572 C567 0.930 . S
H573 C568 0.930 . S
O574 Cu554 1.959 . S
O574 C561 1.251 . S
H575 C558 0.930 . S
H576 C569 0.929 . S
Cu577 N578 1.999 . S
Cu577 O583 1.974 . S
Cu577 N588 1.985 1_545 S
Cu577 O597 1.959 1_545 S
N578 Cu577 1.999 . S
N578 C580 1.263 . S
N578 C582 1.389 . S
N579 C580 1.358 . S
N579 C581 1.400 . S
C580 N578 1.263 . S
C580 N579 1.358 . S
C580 H586 0.930 . S
C581 N579 1.400 . S
C581 C582 1.351 . S
C581 H598 0.930 . S
C582 N578 1.389 . S
C582 C581 1.351 . S
C582 H587 0.930 . S
O583 Cu577 1.974 . S
O583 C593 1.282 . S
C584 O585 1.261 . S
C584 O597 1.251 . S
O585 C584 1.261 . S
H586 C580 0.930 . S
H587 C582 0.930 . S
N588 Cu577 1.985 1_565 S
N588 C590 1.335 . S
N588 C591 1.385 1_565 S
N589 C590 1.345 . S
N589 C592 1.336 . S
C590 N588 1.335 . S
C590 N589 1.345 . S
C590 H595 0.930 . S
C591 N588 1.385 1_545 S
C591 C592 1.325 1_545 S
C591 H596 0.953 . S
C592 N589 1.336 . S
C592 C591 1.325 1_565 S
C592 H599 0.929 . S
C593 O583 1.282 . S
C593 O594 1.216 . S
O594 C593 1.216 . S
H595 C590 0.930 . S
H596 C591 0.953 . S
O597 Cu577 1.959 1_565 S
O597 C584 1.251 . S
H598 C581 0.930 . S
H599 C592 0.929 . S
Cu600 N601 1.999 . S
Cu600 O606 1.974 . S
Cu600 N611 1.985 1_455 S
Cu600 O620 1.959 1_455 S
N601 Cu600 1.999 . S
N601 C603 1.263 . S
N601 C605 1.389 . S
N602 C603 1.358 . S
N602 C604 1.400 . S
C603 N601 1.263 . S
C603 N602 1.358 . S
C603 H609 0.930 . S
C604 N602 1.400 . S
C604 C605 1.351 . S
C604 H621 0.930 . S
C605 N601 1.389 . S
C605 C604 1.351 . S
C605 H610 0.930 . S
O606 Cu600 1.974 . S
O606 C616 1.282 . S
C607 O608 1.261 . S
C607 O620 1.251 . S
O608 C607 1.261 . S
H609 C603 0.930 . S
H610 C605 0.930 . S
N611 Cu600 1.985 1_655 S
N611 C613 1.335 . S
N611 C614 1.385 1_655 S
N612 C613 1.345 . S
N612 C615 1.336 . S
C613 N611 1.335 . S
C613 N612 1.345 . S
C613 H618 0.930 . S
C614 N611 1.385 1_455 S
C614 C615 1.323 1_455 S
C614 H619 0.954 . S
C615 N612 1.336 . S
C615 C614 1.323 1_655 S
C615 H622 0.929 . S
C616 O606 1.282 . S
C616 O617 1.216 . S
O617 C616 1.216 . S
H618 C613 0.930 . S
H619 C614 0.954 . S
O620 Cu600 1.959 1_655 S
O620 C607 1.251 . S
H621 C604 0.930 . S
H622 C615 0.929 . S
Cu623 N624 1.999 . S
Cu623 O629 1.974 . S
Cu623 N634 1.985 1_545 S
Cu623 O643 1.959 1_545 S
N624 Cu623 1.999 . S
N624 C626 1.263 . S
N624 C628 1.389 . S
N625 C626 1.358 . S
N625 C627 1.400 . S
C626 N624 1.263 . S
C626 N625 1.358 . S
C626 H632 0.930 . S
C627 N625 1.400 . S
C627 C628 1.351 . S
C627 H644 0.930 . S
C628 N624 1.389 . S
C628 C627 1.351 . S
C628 H633 0.930 . S
O629 Cu623 1.974 . S
O629 C639 1.282 . S
C630 O631 1.261 . S
C630 O643 1.251 . S
O631 C630 1.261 . S
H632 C626 0.930 . S
H633 C628 0.930 . S
N634 Cu623 1.985 1_565 S
N634 C636 1.335 . S
N634 C637 1.390 . S
N635 C636 1.345 . S
N635 C638 1.336 . S
C636 N634 1.335 . S
C636 N635 1.345 . S
C636 H641 0.930 . S
C637 N634 1.390 . S
C637 C638 1.346 . S
C637 H642 0.952 . S
C638 N635 1.336 . S
C638 C637 1.346 . S
C638 H645 0.929 . S
C639 O629 1.282 . S
C639 O640 1.216 . S
O640 C639 1.216 . S
H641 C636 0.930 . S
H642 C637 0.952 . S
O643 Cu623 1.959 1_565 S
O643 C630 1.251 . S
H644 C627 0.930 . S
H645 C638 0.929 . S
Cu646 N647 1.999 . S
Cu646 O652 1.974 . S
Cu646 N657 1.985 . S
Cu646 O666 1.959 . S
N647 Cu646 1.999 . S
N647 C649 1.263 . S
N647 C651 1.389 . S
N648 C649 1.358 1_655 S
N648 C650 1.400 1_655 S
C649 N647 1.263 . S
C649 N648 1.358 1_455 S
C649 H655 0.940 . S
C650 N648 1.400 1_455 S
C650 C651 1.351 . S
C650 H667 0.930 . S
C651 N647 1.389 . S
C651 C650 1.351 . S
C651 H656 0.930 . S
O652 Cu646 1.974 . S
O652 C662 1.282 . S
C653 O654 1.261 . S
C653 O666 1.251 . S
O654 C653 1.261 . S
H655 C649 0.940 . S
H656 C651 0.930 . S
N657 Cu646 1.985 . S
N657 C659 1.335 . S
N657 C660 1.390 . S
N658 C659 1.345 . S
N658 C661 1.336 . S
C659 N657 1.335 . S
C659 N658 1.345 . S
C659 H664 0.930 . S
C660 N657 1.390 . S
C660 C661 1.346 . S
C660 H665 0.930 . S
C661 N658 1.336 . S
C661 C660 1.346 . S
C661 H668 0.929 . S
C662 O652 1.282 . S
C662 O663 1.216 . S
O663 C662 1.216 . S
H664 C659 0.930 . S
H665 C660 0.930 . S
O666 Cu646 1.959 . S
O666 C653 1.251 . S
H667 C650 0.930 . S
H668 C661 0.929 . S
Cu669 N670 1.999 . S
Cu669 O675 1.974 . S
Cu669 N680 1.985 . S
Cu669 O689 1.959 . S
N670 Cu669 1.999 . S
N670 C672 1.263 . S
N670 C674 1.389 . S
N671 C672 1.358 . S
N671 C673 1.400 . S
C672 N670 1.263 . S
C672 N671 1.358 . S
C672 H678 0.930 . S
C673 N671 1.400 . S
C673 C674 1.351 . S
C673 H690 0.930 . S
C674 N670 1.389 . S
C674 C673 1.351 . S
C674 H679 0.930 . S
O675 Cu669 1.974 . S
O675 C685 1.282 . S
C676 O677 1.261 . S
C676 O689 1.251 . S
O677 C676 1.261 . S
H678 C672 0.930 . S
H679 C674 0.930 . S
N680 Cu669 1.985 . S
N680 C682 1.335 1_545 S
N680 C683 1.390 . S
N681 C682 1.345 . S
N681 C684 1.309 1_565 S
C682 N680 1.335 1_565 S
C682 N681 1.345 . S
C682 H687 0.930 . S
C683 N680 1.390 . S
C683 C684 1.378 . S
C683 H688 0.930 . S
C684 N681 1.309 1_545 S
C684 C683 1.378 . S
C684 H691 0.927 1_545 S
C685 O675 1.282 . S
C685 O686 1.216 . S
O686 C685 1.216 . S
H687 C682 0.930 . S
H688 C683 0.930 . S
O689 Cu669 1.959 . S
O689 C676 1.251 . S
H690 C673 0.930 . S
H691 C684 0.927 1_565 S
Cu692 N693 1.999 . S
Cu692 O698 1.974 . S
Cu692 N703 1.985 . S
Cu692 O712 1.959 . S
N693 Cu692 1.999 . S
N693 C695 1.263 . S
N693 C697 1.389 . S
N694 C695 1.358 . S
N694 C696 1.400 . S
C695 N693 1.263 . S
C695 N694 1.358 . S
C695 H701 0.930 . S
C696 N694 1.400 . S
C696 C697 1.351 . S
C696 H713 0.930 . S
C697 N693 1.389 . S
C697 C696 1.351 . S
C697 H702 0.930 . S
O698 Cu692 1.974 . S
O698 C708 1.282 . S
C699 O700 1.261 . S
C699 O712 1.251 . S
O700 C699 1.261 . S
H701 C695 0.930 . S
H702 C697 0.930 . S
N703 Cu692 1.985 . S
N703 C705 1.335 . S
N703 C706 1.390 . S
N704 C705 1.345 . S
N704 C707 1.336 . S
C705 N703 1.335 . S
C705 N704 1.345 . S
C705 H710 0.930 . S
C706 N703 1.390 . S
C706 C707 1.346 . S
C706 H711 0.930 . S
C707 N704 1.336 . S
C707 C706 1.346 . S
C707 H714 0.929 . S
C708 O698 1.282 . S
C708 O709 1.216 . S
O709 C708 1.216 . S
H710 C705 0.930 . S
H711 C706 0.930 . S
O712 Cu692 1.959 . S
O712 C699 1.251 . S
H713 C696 0.930 . S
H714 C707 0.929 . S
Cu715 N716 1.999 . S
Cu715 O721 1.974 . S
Cu715 N726 1.985 . S
Cu715 O735 1.959 . S
N716 Cu715 1.999 . S
N716 C718 1.263 . S
N716 C720 1.389 . S
N717 C718 1.358 . S
N717 C719 1.400 . S
C718 N716 1.263 . S
C718 N717 1.358 . S
C718 H724 0.930 . S
C719 N717 1.400 . S
C719 C720 1.351 . S
C719 H736 0.930 . S
C720 N716 1.389 . S
C720 C719 1.351 . S
C720 H725 0.930 . S
O721 Cu715 1.974 . S
O721 C731 1.282 . S
C722 O723 1.261 . S
C722 O735 1.251 . S
O723 C722 1.261 . S
H724 C718 0.930 . S
H725 C720 0.930 . S
N726 Cu715 1.985 . S
N726 C728 1.335 . S
N726 C729 1.390 . S
N727 C728 1.345 . S
N727 C730 1.336 . S
C728 N726 1.335 . S
C728 N727 1.345 . S
C728 H733 0.930 . S
C729 N726 1.390 . S
C729 C730 1.346 . S
C729 H734 0.930 . S
C730 N727 1.336 . S
C730 C729 1.346 . S
C730 H737 0.929 . S
C731 O721 1.282 . S
C731 O732 1.216 . S
O732 C731 1.216 . S
H733 C728 0.930 . S
H734 C729 0.930 . S
O735 Cu715 1.959 . S
O735 C722 1.251 . S
H736 C719 0.930 . S
H737 C730 0.929 . S
Cu738 N739 1.999 . S
Cu738 O744 1.974 . S
Cu738 N749 1.985 . S
Cu738 O758 1.959 . S
N739 Cu738 1.999 . S
N739 C741 1.263 . S
N739 C743 1.389 . S
N740 C741 1.358 . S
N740 C742 1.400 . S
C741 N739 1.263 . S
C741 N740 1.358 . S
C741 H747 0.930 . S
C742 N740 1.400 . S
C742 C743 1.351 . S
C742 H759 0.930 . S
C743 N739 1.389 . S
C743 C742 1.351 . S
C743 H748 0.930 . S
O744 Cu738 1.974 . S
O744 C754 1.282 . S
C745 O746 1.261 . S
C745 O758 1.251 . S
O746 C745 1.261 . S
H747 C741 0.930 . S
H748 C743 0.930 . S
N749 Cu738 1.985 . S
N749 C751 1.335 . S
N749 C752 1.390 . S
N750 C751 1.345 . S
N750 C753 1.336 . S
C751 N749 1.335 . S
C751 N750 1.345 . S
C751 H756 0.930 . S
C752 N749 1.390 . S
C752 C753 1.346 . S
C752 H757 0.930 . S
C753 N750 1.336 . S
C753 C752 1.346 . S
C753 H760 0.929 . S
C754 O744 1.282 . S
C754 O755 1.216 . S
O755 C754 1.216 . S
H756 C751 0.930 . S
H757 C752 0.930 . S
O758 Cu738 1.959 . S
O758 C745 1.251 . S
H759 C742 0.930 . S
H760 C753 0.929 . S
Cu761 N762 1.999 . S
Cu761 O767 1.974 . S
Cu761 N772 1.985 . S
Cu761 O781 1.959 . S
N762 Cu761 1.999 . S
N762 C764 1.263 . S
N762 C766 1.389 . S
N763 C764 1.358 . S
N763 C765 1.400 . S
C764 N762 1.263 . S
C764 N763 1.358 . S
C764 H770 0.930 . S
C765 N763 1.400 . S
C765 C766 1.351 . S
C765 H782 0.930 . S
C766 N762 1.389 . S
C766 C765 1.351 . S
C766 H771 0.930 . S
O767 Cu761 1.974 . S
O767 C777 1.282 . S
C768 O769 1.261 . S
C768 O781 1.251 . S
O769 C768 1.261 . S
H770 C764 0.930 . S
H771 C766 0.930 . S
N772 Cu761 1.985 . S
N772 C774 1.335 . S
N772 C775 1.390 . S
N773 C774 1.345 . S
N773 C776 1.336 . S
C774 N772 1.335 . S
C774 N773 1.345 . S
C774 H779 0.930 . S
C775 N772 1.390 . S
C775 C776 1.346 . S
C775 H780 0.930 . S
C776 N773 1.336 . S
C776 C775 1.346 . S
C776 H783 0.929 . S
C777 O767 1.282 . S
C777 O778 1.216 . S
O778 C777 1.216 . S
H779 C774 0.930 . S
H780 C775 0.930 . S
O781 Cu761 1.959 . S
O781 C768 1.251 . S
H782 C765 0.930 . S
H783 C776 0.929 . S
Cu784 N785 1.999 . S
Cu784 O790 1.974 . S
Cu784 N795 1.985 . S
Cu784 O804 1.959 . S
N785 Cu784 1.999 . S
N785 C787 1.263 . S
N785 C789 1.389 . S
N786 C787 1.358 . S
N786 C788 1.400 . S
C787 N785 1.263 . S
C787 N786 1.358 . S
C787 H793 0.930 . S
C788 N786 1.400 . S
C788 C789 1.351 . S
C788 H805 0.930 . S
C789 N785 1.389 . S
C789 C788 1.351 . S
C789 H794 0.930 . S
O790 Cu784 1.974 . S
O790 C800 1.282 . S
C791 O792 1.261 . S
C791 O804 1.251 . S
O792 C791 1.261 . S
H793 C787 0.930 . S
H794 C789 0.930 . S
N795 Cu784 1.985 . S
N795 C797 1.335 . S
N795 C798 1.390 . S
N796 C797 1.345 . S
N796 C799 1.336 . S
C797 N795 1.335 . S
C797 N796 1.345 . S
C797 H802 0.930 . S
C798 N795 1.390 . S
C798 C799 1.346 . S
C798 H803 0.930 . S
C799 N796 1.336 . S
C799 C798 1.346 . S
C799 H806 0.929 . S
C800 O790 1.282 . S
C800 O801 1.216 . S
O801 C800 1.216 . S
H802 C797 0.930 . S
H803 C798 0.930 . S
O804 Cu784 1.959 . S
O804 C791 1.251 . S
H805 C788 0.930 . S
H806 C799 0.929 . S
Cu807 N808 1.999 . S
Cu807 O813 1.974 . S
Cu807 N818 1.985 . S
Cu807 O827 1.959 . S
N808 Cu807 1.999 . S
N808 C810 1.263 . S
N808 C812 1.389 . S
N809 C810 1.358 . S
N809 C811 1.400 . S
C810 N808 1.263 . S
C810 N809 1.358 . S
C810 H816 0.930 . S
C811 N809 1.400 . S
C811 C812 1.351 . S
C811 H828 0.930 . S
C812 N808 1.389 . S
C812 C811 1.351 . S
C812 H817 0.930 . S
O813 Cu807 1.974 . S
O813 C823 1.282 . S
C814 O815 1.261 . S
C814 O827 1.251 . S
O815 C814 1.261 . S
H816 C810 0.930 . S
H817 C812 0.930 . S
N818 Cu807 1.985 . S
N818 C820 1.335 . S
N818 C821 1.390 . S
N819 C820 1.345 . S
N819 C822 1.336 . S
C820 N818 1.335 . S
C820 N819 1.345 . S
C820 H825 0.930 . S
C821 N818 1.390 . S
C821 C822 1.346 . S
C821 H826 0.930 . S
C822 N819 1.336 . S
C822 C821 1.346 . S
C822 H829 0.929 . S
C823 O813 1.282 . S
C823 O824 1.216 . S
O824 C823 1.216 . S
H825 C820 0.930 . S
H826 C821 0.930 . S
O827 Cu807 1.959 . S
O827 C814 1.251 . S
H828 C811 0.930 . S
H829 C822 0.929 . S
Cu830 N831 1.999 . S
Cu830 O836 1.974 . S
Cu830 N841 1.985 . S
Cu830 O850 1.959 . S
N831 Cu830 1.999 . S
N831 C833 1.263 . S
N831 C835 1.389 . S
N832 C833 1.358 . S
N832 C834 1.400 . S
C833 N831 1.263 . S
C833 N832 1.358 . S
C833 H839 0.930 . S
C834 N832 1.400 . S
C834 C835 1.351 . S
C834 H851 0.930 . S
C835 N831 1.389 . S
C835 C834 1.351 . S
C835 H840 0.930 . S
O836 Cu830 1.974 . S
O836 C846 1.282 . S
C837 O838 1.261 . S
C837 O850 1.251 . S
O838 C837 1.261 . S
H839 C833 0.930 . S
H840 C835 0.930 . S
N841 Cu830 1.985 . S
N841 C843 1.335 . S
N841 C844 1.390 . S
N842 C843 1.345 . S
N842 C845 1.336 . S
C843 N841 1.335 . S
C843 N842 1.345 . S
C843 H848 0.930 . S
C844 N841 1.390 . S
C844 C845 1.346 . S
C844 H849 0.930 . S
C845 N842 1.336 . S
C845 C844 1.346 . S
C845 H852 0.929 . S
C846 O836 1.282 . S
C846 O847 1.216 . S
O847 C846 1.216 . S
H848 C843 0.930 . S
H849 C844 0.930 . S
O850 Cu830 1.959 . S
O850 C837 1.251 . S
H851 C834 0.930 . S
H852 C845 0.929 . S
Cu853 N854 1.999 . S
Cu853 O859 1.974 . S
Cu853 N864 1.985 . S
Cu853 O873 1.959 . S
N854 Cu853 1.999 . S
N854 C856 1.263 . S
N854 C858 1.389 . S
N855 C856 1.358 . S
N855 C857 1.400 . S
C856 N854 1.263 . S
C856 N855 1.358 . S
C856 H862 0.930 . S
C857 N855 1.400 . S
C857 C858 1.351 . S
C857 H874 0.930 . S
C858 N854 1.389 . S
C858 C857 1.351 . S
C858 H863 0.930 . S
O859 Cu853 1.974 . S
O859 C869 1.282 . S
C860 O861 1.261 . S
C860 O873 1.251 . S
O861 C860 1.261 . S
H862 C856 0.930 . S
H863 C858 0.930 . S
N864 Cu853 1.985 . S
N864 C866 1.335 . S
N864 C867 1.390 . S
N865 C866 1.345 . S
N865 C868 1.336 . S
C866 N864 1.335 . S
C866 N865 1.345 . S
C866 H871 0.930 . S
C867 N864 1.390 . S
C867 C868 1.346 . S
C867 H872 0.930 . S
C868 N865 1.336 . S
C868 C867 1.346 . S
C868 H875 0.929 . S
C869 O859 1.282 . S
C869 O870 1.216 . S
O870 C869 1.216 . S
H871 C866 0.930 . S
H872 C867 0.930 . S
O873 Cu853 1.959 . S
O873 C860 1.251 . S
H874 C857 0.930 . S
H875 C868 0.929 . S
Cu876 N877 1.999 . S
Cu876 O882 1.974 . S
Cu876 N887 1.985 . S
Cu876 O896 1.959 . S
N877 Cu876 1.999 . S
N877 C879 1.263 . S
N877 C881 1.389 . S
N878 C879 1.358 . S
N878 C880 1.400 . S
C879 N877 1.263 . S
C879 N878 1.358 . S
C879 H885 0.930 . S
C880 N878 1.400 . S
C880 C881 1.351 . S
C880 H897 0.930 . S
C881 N877 1.389 . S
C881 C880 1.351 . S
C881 H886 0.930 . S
O882 Cu876 1.974 . S
O882 C892 1.282 . S
C883 O884 1.261 . S
C883 O896 1.251 . S
O884 C883 1.261 . S
H885 C879 0.930 . S
H886 C881 0.930 . S
N887 Cu876 1.985 . S
N887 C889 1.335 . S
N887 C890 1.390 . S
N888 C889 1.345 . S
N888 C891 1.336 . S
C889 N887 1.335 . S
C889 N888 1.345 . S
C889 H894 0.930 . S
C890 N887 1.390 . S
C890 C891 1.346 . S
C890 H895 0.930 . S
C891 N888 1.336 . S
C891 C890 1.346 . S
C891 H898 0.929 . S
C892 O882 1.282 . S
C892 O893 1.216 . S
O893 C892 1.216 . S
H894 C889 0.930 . S
H895 C890 0.930 . S
O896 Cu876 1.959 . S
O896 C883 1.251 . S
H897 C880 0.930 . S
H898 C891 0.929 . S
Cu899 N900 1.999 . S
Cu899 O905 1.974 . S
Cu899 N910 1.985 . S
Cu899 O919 1.959 . S
N900 Cu899 1.999 . S
N900 C902 1.263 . S
N900 C904 1.389 . S
N901 C902 1.358 . S
N901 C903 1.400 . S
C902 N900 1.263 . S
C902 N901 1.358 . S
C902 H908 0.930 . S
C903 N901 1.400 . S
C903 C904 1.351 . S
C903 H920 0.930 . S
C904 N900 1.389 . S
C904 C903 1.351 . S
C904 H909 0.930 . S
O905 Cu899 1.974 . S
O905 C915 1.282 . S
C906 O907 1.261 . S
C906 O919 1.251 . S
O907 C906 1.261 . S
H908 C902 0.930 . S
H909 C904 0.930 . S
N910 Cu899 1.985 . S
N910 C912 1.335 . S
N910 C913 1.390 . S
N911 C912 1.345 . S
N911 C914 1.336 . S
C912 N910 1.335 . S
C912 N911 1.345 . S
C912 H917 0.930 . S
C913 N910 1.390 . S
C913 C914 1.346 . S
C913 H918 0.930 . S
C914 N911 1.336 . S
C914 C913 1.346 . S
C914 H921 0.929 . S
C915 O905 1.282 . S
C915 O916 1.216 . S
O916 C915 1.216 . S
H917 C912 0.930 . S
H918 C913 0.930 . S
O919 Cu899 1.959 . S
O919 C906 1.251 . S
H920 C903 0.930 . S
H921 C914 0.929 . S
Cu922 N923 1.999 . S
Cu922 O928 1.974 . S
Cu922 N933 1.985 . S
Cu922 O942 1.959 . S
N923 Cu922 1.999 . S
N923 C925 1.263 . S
N923 C927 1.389 . S
N924 C925 1.358 . S
N924 C926 1.400 . S
C925 N923 1.263 . S
C925 N924 1.358 . S
C925 H931 0.930 . S
C926 N924 1.400 . S
C926 C927 1.351 . S
C926 H943 0.930 . S
C927 N923 1.389 . S
C927 C926 1.351 . S
C927 H932 0.930 . S
O928 Cu922 1.974 . S
O928 C938 1.282 . S
C929 O930 1.261 . S
C929 O942 1.251 . S
O930 C929 1.261 . S
H931 C925 0.930 . S
H932 C927 0.930 . S
N933 Cu922 1.985 . S
N933 C935 1.335 . S
N933 C936 1.390 . S
N934 C935 1.345 . S
N934 C937 1.336 . S
C935 N933 1.335 . S
C935 N934 1.345 . S
C935 H940 0.930 . S
C936 N933 1.390 . S
C936 C937 1.346 . S
C936 H941 0.930 . S
C937 N934 1.336 . S
C937 C936 1.346 . S
C937 H944 0.929 . S
C938 O928 1.282 . S
C938 O939 1.216 . S
O939 C938 1.216 . S
H940 C935 0.930 . S
H941 C936 0.930 . S
O942 Cu922 1.959 . S
O942 C929 1.251 . S
H943 C926 0.930 . S
H944 C937 0.929 . S
Cu945 N946 1.999 . S
Cu945 O951 1.974 . S
Cu945 N956 1.985 . S
Cu945 O965 1.959 . S
N946 Cu945 1.999 . S
N946 C948 1.263 . S
N946 C950 1.389 . S
N947 C948 1.358 . S
N947 C949 1.400 . S
C948 N946 1.263 . S
C948 N947 1.358 . S
C948 H954 0.930 . S
C949 N947 1.400 . S
C949 C950 1.351 . S
C949 H966 0.930 . S
C950 N946 1.389 . S
C950 C949 1.351 . S
C950 H955 0.930 . S
O951 Cu945 1.974 . S
O951 C961 1.282 . S
C952 O953 1.261 . S
C952 O965 1.251 . S
O953 C952 1.261 . S
H954 C948 0.930 . S
H955 C950 0.930 . S
N956 Cu945 1.985 . S
N956 C958 1.335 . S
N956 C959 1.390 . S
N957 C958 1.345 . S
N957 C960 1.336 . S
C958 N956 1.335 . S
C958 N957 1.345 . S
C958 H963 0.930 . S
C959 N956 1.390 . S
C959 C960 1.346 . S
C959 H964 0.930 . S
C960 N957 1.336 . S
C960 C959 1.346 . S
C960 H967 0.929 . S
C961 O951 1.282 . S
C961 O962 1.216 . S
O962 C961 1.216 . S
H963 C958 0.930 . S
H964 C959 0.930 . S
O965 Cu945 1.959 . S
O965 C952 1.251 . S
H966 C949 0.930 . S
H967 C960 0.929 . S
H968 C974 0.930 . S
H969 C977 0.930 . S
H970 C978 0.930 . S
H971 C979 0.930 . S
H972 C982 0.930 . S
H973 C983 0.930 . S
C974 H968 0.930 . S
C974 C975 1.355 . S
C974 C976 1.415 . S
C975 C974 1.355 . S
C975 C977 1.419 . S
C976 C974 1.415 . S
C976 C981 1.425 . S
C976 C983 1.409 . S
C977 H969 0.930 . S
C977 C975 1.419 . S
C977 C978 1.362 . S
C978 H970 0.930 . S
C978 C977 1.362 . S
C978 C981 1.409 . S
C979 H971 0.930 . S
C979 C980 1.355 . S
C979 C981 1.415 . S
C980 C979 1.355 . S
C980 C982 1.419 . S
C981 C976 1.425 . S
C981 C978 1.409 . S
C981 C979 1.415 . S
C982 H972 0.930 . S
C982 C980 1.419 . S
C982 C983 1.362 . S
C983 H973 0.930 . S
C983 C976 1.409 . S
C983 C982 1.362 . S
H984 C990 0.930 . S
H985 C993 0.930 . S
H986 C994 0.930 . S
H987 C995 0.930 . S
H988 C998 0.930 . S
H989 C999 0.930 . S
C990 H984 0.930 . S
C990 C991 1.355 . S
C990 C992 1.415 . S
C991 C990 1.355 . S
C991 C993 1.419 . S
C992 C990 1.415 . S
C992 C997 1.425 . S
C992 C999 1.409 . S
C993 H985 0.930 . S
C993 C991 1.419 . S
C993 C994 1.362 . S
C994 H986 0.930 . S
C994 C993 1.362 . S
C994 C997 1.409 . S
C995 H987 0.930 . S
C995 C996 1.355 . S
C995 C997 1.415 . S
C996 C995 1.355 . S
C996 C998 1.419 . S
C997 C992 1.425 . S
C997 C994 1.409 . S
C997 C995 1.415 . S
C998 H988 0.930 . S
C998 C996 1.419 . S
C998 C999 1.362 . S
C999 H989 0.930 . S
C999 C992 1.409 . S
C999 C998 1.362 . S
H1000 C1006 0.930 . S
H1001 C1009 0.930 . S
H1002 C1010 0.930 . S
H1003 C1011 0.930 . S
H1004 C1014 0.930 . S
H1005 C1015 0.930 . S
C1006 H1000 0.930 . S
C1006 C1007 1.355 . S
C1006 C1008 1.415 . S
C1007 C1006 1.355 . S
C1007 C1009 1.419 . S
C1008 C1006 1.415 . S
C1008 C1013 1.425 . S
C1008 C1015 1.409 . S
C1009 H1001 0.930 . S
C1009 C1007 1.419 . S
C1009 C1010 1.362 . S
C1010 H1002 0.930 . S
C1010 C1009 1.362 . S
C1010 C1013 1.409 . S
C1011 H1003 0.930 . S
C1011 C1012 1.355 . S
C1011 C1013 1.415 . S
C1012 C1011 1.355 . S
C1012 C1014 1.419 . S
C1013 C1008 1.425 . S
C1013 C1010 1.409 . S
C1013 C1011 1.415 . S
C1014 H1004 0.930 . S
C1014 C1012 1.419 . S
C1014 C1015 1.362 . S
C1015 H1005 0.930 . S
C1015 C1008 1.409 . S
C1015 C1014 1.362 . S
H1016 C1022 0.930 . S
H1017 C1025 0.930 . S
H1018 C1026 0.930 . S
H1019 C1027 0.930 . S
H1020 C1030 0.930 . S
H1021 C1031 0.930 . S
C1022 H1016 0.930 . S
C1022 C1023 1.355 . S
C1022 C1024 1.415 . S
C1023 C1022 1.355 . S
C1023 C1025 1.419 . S
C1024 C1022 1.415 . S
C1024 C1029 1.425 . S
C1024 C1031 1.409 . S
C1025 H1017 0.930 . S
C1025 C1023 1.419 . S
C1025 C1026 1.362 . S
C1026 H1018 0.930 . S
C1026 C1025 1.362 . S
C1026 C1029 1.409 . S
C1027 H1019 0.930 . S
C1027 C1028 1.355 . S
C1027 C1029 1.415 . S
C1028 C1027 1.355 . S
C1028 C1030 1.419 . S
C1029 C1024 1.425 . S
C1029 C1026 1.409 . S
C1029 C1027 1.415 . S
C1030 H1020 0.930 . S
C1030 C1028 1.419 . S
C1030 C1031 1.362 . S
C1031 H1021 0.930 . S
C1031 C1024 1.409 . S
C1031 C1030 1.362 . S
H1032 C1038 0.930 . S
H1033 C1041 0.930 . S
H1034 C1042 0.930 . S
H1035 C1043 0.930 . S
H1036 C1046 0.930 . S
H1037 C1047 0.930 . S
C1038 H1032 0.930 . S
C1038 C1039 1.355 . S
C1038 C1040 1.415 . S
C1039 C1038 1.355 . S
C1039 C1041 1.419 . S
C1040 C1038 1.415 . S
C1040 C1045 1.425 . S
C1040 C1047 1.409 . S
C1041 H1033 0.930 . S
C1041 C1039 1.419 . S
C1041 C1042 1.362 . S
C1042 H1034 0.930 . S
C1042 C1041 1.362 . S
C1042 C1045 1.409 . S
C1043 H1035 0.930 . S
C1043 C1044 1.355 . S
C1043 C1045 1.415 . S
C1044 C1043 1.355 . S
C1044 C1046 1.419 . S
C1045 C1040 1.425 . S
C1045 C1042 1.409 . S
C1045 C1043 1.415 . S
C1046 H1036 0.930 . S
C1046 C1044 1.419 . S
C1046 C1047 1.362 . S
C1047 H1037 0.930 . S
C1047 C1040 1.409 . S
C1047 C1046 1.362 . S
H1048 C1054 0.930 . S
H1049 C1057 0.930 . S
H1050 C1058 0.930 . S
H1051 C1059 0.930 . S
H1052 C1062 0.930 . S
H1053 C1063 0.930 . S
C1054 H1048 0.930 . S
C1054 C1055 1.355 . S
C1054 C1056 1.415 . S
C1055 C1054 1.355 . S
C1055 C1057 1.419 . S
C1056 C1054 1.415 . S
C1056 C1061 1.425 . S
C1056 C1063 1.409 . S
C1057 H1049 0.930 . S
C1057 C1055 1.419 . S
C1057 C1058 1.362 . S
C1058 H1050 0.930 . S
C1058 C1057 1.362 . S
C1058 C1061 1.409 . S
C1059 H1051 0.930 . S
C1059 C1060 1.355 . S
C1059 C1061 1.415 . S
C1060 C1059 1.355 . S
C1060 C1062 1.419 . S
C1061 C1056 1.425 . S
C1061 C1058 1.409 . S
C1061 C1059 1.415 . S
C1062 H1052 0.930 . S
C1062 C1060 1.419 . S
C1062 C1063 1.362 . S
C1063 H1053 0.930 . S
C1063 C1056 1.409 . S
C1063 C1062 1.362 . S
H1064 C1070 0.930 . S
H1065 C1073 0.930 . S
H1066 C1074 0.930 . S
H1067 C1075 0.930 . S
H1068 C1078 0.930 . S
H1069 C1079 0.930 . S
C1070 H1064 0.930 . S
C1070 C1071 1.355 . S
C1070 C1072 1.415 . S
C1071 C1070 1.355 . S
C1071 C1073 1.419 . S
C1072 C1070 1.415 . S
C1072 C1077 1.425 . S
C1072 C1079 1.409 . S
C1073 H1065 0.930 . S
C1073 C1071 1.419 . S
C1073 C1074 1.362 . S
C1074 H1066 0.930 . S
C1074 C1073 1.362 . S
C1074 C1077 1.409 . S
C1075 H1067 0.930 . S
C1075 C1076 1.355 . S
C1075 C1077 1.415 . S
C1076 C1075 1.355 . S
C1076 C1078 1.419 . S
C1077 C1072 1.425 . S
C1077 C1074 1.409 . S
C1077 C1075 1.415 . S
C1078 H1068 0.930 . S
C1078 C1076 1.419 . S
C1078 C1079 1.362 . S
C1079 H1069 0.930 . S
C1079 C1072 1.409 . S
C1079 C1078 1.362 . S
H1080 C1086 0.930 . S
H1081 C1089 0.930 . S
H1082 C1090 0.930 . S
H1083 C1091 0.930 . S
H1084 C1094 0.930 . S
H1085 C1095 0.930 . S
C1086 H1080 0.930 . S
C1086 C1087 1.355 . S
C1086 C1088 1.415 . S
C1087 C1086 1.355 . S
C1087 C1089 1.419 . S
C1088 C1086 1.415 . S
C1088 C1093 1.425 . S
C1088 C1095 1.409 . S
C1089 H1081 0.930 . S
C1089 C1087 1.419 . S
C1089 C1090 1.362 . S
C1090 H1082 0.930 . S
C1090 C1089 1.362 . S
C1090 C1093 1.409 . S
C1091 H1083 0.930 . S
C1091 C1092 1.355 . S
C1091 C1093 1.415 . S
C1092 C1091 1.355 . S
C1092 C1094 1.419 . S
C1093 C1088 1.425 . S
C1093 C1090 1.409 . S
C1093 C1091 1.415 . S
C1094 H1084 0.930 . S
C1094 C1092 1.419 . S
C1094 C1095 1.362 . S
C1095 H1085 0.930 . S
C1095 C1088 1.409 . S
C1095 C1094 1.362 . S
H1096 C1102 0.930 . S
H1097 C1105 0.930 . S
H1098 C1106 0.930 . S
H1099 C1107 0.930 . S
H1100 C1110 0.930 . S
H1101 C1111 0.930 . S
C1102 H1096 0.930 . S
C1102 C1103 1.355 . S
C1102 C1104 1.415 . S
C1103 C1102 1.355 . S
C1103 C1105 1.419 . S
C1104 C1102 1.415 . S
C1104 C1109 1.425 . S
C1104 C1111 1.409 . S
C1105 H1097 0.930 . S
C1105 C1103 1.419 . S
C1105 C1106 1.362 . S
C1106 H1098 0.930 . S
C1106 C1105 1.362 . S
C1106 C1109 1.409 . S
C1107 H1099 0.930 . S
C1107 C1108 1.355 . S
C1107 C1109 1.415 . S
C1108 C1107 1.355 . S
C1108 C1110 1.419 . S
C1109 C1104 1.425 . S
C1109 C1106 1.409 . S
C1109 C1107 1.415 . S
C1110 H1100 0.930 . S
C1110 C1108 1.419 . S
C1110 C1111 1.362 . S
C1111 H1101 0.930 . S
C1111 C1104 1.409 . S
C1111 C1110 1.362 . S
H1112 C1118 0.930 . S
H1113 C1121 0.930 . S
H1114 C1122 0.930 . S
H1115 C1123 0.930 . S
H1116 C1126 0.930 . S
H1117 C1127 0.930 . S
C1118 H1112 0.930 . S
C1118 C1119 1.355 . S
C1118 C1120 1.415 . S
C1119 C1118 1.355 . S
C1119 C1121 1.419 . S
C1120 C1118 1.415 . S
C1120 C1125 1.425 . S
C1120 C1127 1.409 . S
C1121 H1113 0.930 . S
C1121 C1119 1.419 . S
C1121 C1122 1.362 . S
C1122 H1114 0.930 . S
C1122 C1121 1.362 . S
C1122 C1125 1.409 . S
C1123 H1115 0.930 . S
C1123 C1124 1.355 . S
C1123 C1125 1.415 . S
C1124 C1123 1.355 . S
C1124 C1126 1.419 . S
C1125 C1120 1.425 . S
C1125 C1122 1.409 . S
C1125 C1123 1.415 . S
C1126 H1116 0.930 . S
C1126 C1124 1.419 . S
C1126 C1127 1.362 . S
C1127 H1117 0.930 . S
C1127 C1120 1.409 . S
C1127 C1126 1.362 . S
H1128 C1134 0.930 . S
H1129 C1137 0.930 . S
H1130 C1138 0.930 . S
H1131 C1139 0.930 . S
H1132 C1142 0.930 . S
H1133 C1143 0.930 . S
C1134 H1128 0.930 . S
C1134 C1135 1.355 . S
C1134 C1136 1.415 . S
C1135 C1134 1.355 . S
C1135 C1137 1.419 . S
C1136 C1134 1.415 . S
C1136 C1141 1.425 . S
C1136 C1143 1.409 . S
C1137 H1129 0.930 . S
C1137 C1135 1.419 . S
C1137 C1138 1.362 . S
C1138 H1130 0.930 . S
C1138 C1137 1.362 . S
C1138 C1141 1.409 . S
C1139 H1131 0.930 . S
C1139 C1140 1.355 . S
C1139 C1141 1.415 . S
C1140 C1139 1.355 . S
C1140 C1142 1.419 . S
C1141 C1136 1.425 . S
C1141 C1138 1.409 . S
C1141 C1139 1.415 . S
C1142 H1132 0.930 . S
C1142 C1140 1.419 . S
C1142 C1143 1.362 . S
C1143 H1133 0.930 . S
C1143 C1136 1.409 . S
C1143 C1142 1.362 . S
H1144 C1150 0.930 . S
H1145 C1153 0.930 . S
H1146 C1154 0.930 . S
H1147 C1155 0.930 . S
H1148 C1158 0.930 . S
H1149 C1159 0.930 . S
C1150 H1144 0.930 . S
C1150 C1151 1.355 . S
C1150 C1152 1.415 . S
C1151 C1150 1.355 . S
C1151 C1153 1.419 . S
C1152 C1150 1.415 . S
C1152 C1157 1.425 . S
C1152 C1159 1.409 . S
C1153 H1145 0.930 . S
C1153 C1151 1.419 . S
C1153 C1154 1.362 . S
C1154 H1146 0.930 . S
C1154 C1153 1.362 . S
C1154 C1157 1.409 . S
C1155 H1147 0.930 . S
C1155 C1156 1.355 . S
C1155 C1157 1.415 . S
C1156 C1155 1.355 . S
C1156 C1158 1.419 . S
C1157 C1152 1.425 . S
C1157 C1154 1.409 . S
C1157 C1155 1.415 . S
C1158 H1148 0.930 . S
C1158 C1156 1.419 . S
C1158 C1159 1.362 . S
C1159 H1149 0.930 . S
C1159 C1152 1.409 . S
C1159 C1158 1.362 . S
H1160 C1166 0.930 . S
H1161 C1169 0.930 . S
H1162 C1170 0.930 . S
H1163 C1171 0.930 . S
H1164 C1174 0.930 . S
H1165 C1175 0.930 . S
C1166 H1160 0.930 . S
C1166 C1167 1.355 . S
C1166 C1168 1.415 . S
C1167 C1166 1.355 . S
C1167 C1169 1.419 . S
C1168 C1166 1.415 . S
C1168 C1173 1.425 . S
C1168 C1175 1.409 . S
C1169 H1161 0.930 . S
C1169 C1167 1.419 . S
C1169 C1170 1.362 . S
C1170 H1162 0.930 . S
C1170 C1169 1.362 . S
C1170 C1173 1.409 . S
C1171 H1163 0.930 . S
C1171 C1172 1.355 . S
C1171 C1173 1.415 . S
C1172 C1171 1.355 . S
C1172 C1174 1.419 . S
C1173 C1168 1.425 . S
C1173 C1170 1.409 . S
C1173 C1171 1.415 . S
C1174 H1164 0.930 . S
C1174 C1172 1.419 . S
C1174 C1175 1.362 . S
C1175 H1165 0.930 . S
C1175 C1168 1.409 . S
C1175 C1174 1.362 . S
H1176 C1182 0.930 . S
H1177 C1185 0.930 . S
H1178 C1186 0.930 . S
H1179 C1187 0.930 . S
H1180 C1190 0.930 . S
H1181 C1191 0.930 . S
C1182 H1176 0.930 . S
C1182 C1183 1.355 . S
C1182 C1184 1.415 . S
C1183 C1182 1.355 . S
C1183 C1185 1.419 . S
C1184 C1182 1.415 . S
C1184 C1189 1.425 . S
C1184 C1191 1.409 . S
C1185 H1177 0.930 . S
C1185 C1183 1.419 . S
C1185 C1186 1.362 . S
C1186 H1178 0.930 . S
C1186 C1185 1.362 . S
C1186 C1189 1.409 . S
C1187 H1179 0.930 . S
C1187 C1188 1.355 . S
C1187 C1189 1.415 . S
C1188 C1187 1.355 . S
C1188 C1190 1.419 . S
C1189 C1184 1.425 . S
C1189 C1186 1.409 . S
C1189 C1187 1.415 . S
C1190 H1180 0.930 . S
C1190 C1188 1.419 . S
C1190 C1191 1.362 . S
C1191 H1181 0.930 . S
C1191 C1184 1.409 . S
C1191 C1190 1.362 . S
H1192 C1198 0.930 . S
H1193 C1201 0.930 . S
H1194 C1202 0.930 . S
H1195 C1203 0.930 . S
H1196 C1206 0.975 . S
H1197 C1207 0.930 . S
C1198 H1192 0.930 . S
C1198 C1199 1.355 . S
C1198 C1200 1.415 . S
C1199 C1198 1.355 . S
C1199 C1201 1.419 . S
C1200 C1198 1.415 . S
C1200 C1205 1.425 . S
C1200 C1207 1.409 . S
C1201 H1193 0.930 . S
C1201 C1199 1.419 . S
C1201 C1202 1.362 . S
C1202 H1194 0.930 . S
C1202 C1201 1.362 . S
C1202 C1205 1.409 . S
C1203 H1195 0.930 . S
C1203 C1204 1.355 . S
C1203 C1205 1.415 . S
C1204 C1203 1.355 . S
C1204 C1206 1.408 1_655 S
C1205 C1200 1.425 . S
C1205 C1202 1.409 . S
C1205 C1203 1.415 . S
C1206 H1196 0.975 . S
C1206 C1204 1.408 1_455 S
C1206 C1207 1.329 1_455 S
C1207 H1197 0.930 . S
C1207 C1200 1.409 . S
C1207 C1206 1.329 1_655 S
H1208 C1214 0.930 . S
H1209 C1217 0.930 . S
H1210 C1218 0.930 . S
H1211 C1219 0.930 . S
H1212 C1222 0.930 . S
H1213 C1223 0.930 . S
C1214 H1208 0.930 . S
C1214 C1215 1.355 . S
C1214 C1216 1.415 . S
C1215 C1214 1.355 . S
C1215 C1217 1.419 . S
C1216 C1214 1.415 . S
C1216 C1221 1.425 . S
C1216 C1223 1.409 . S
C1217 H1209 0.930 . S
C1217 C1215 1.419 . S
C1217 C1218 1.362 . S
C1218 H1210 0.930 . S
C1218 C1217 1.362 . S
C1218 C1221 1.409 . S
C1219 H1211 0.930 . S
C1219 C1220 1.355 . S
C1219 C1221 1.415 . S
C1220 C1219 1.355 . S
C1220 C1222 1.419 . S
C1221 C1216 1.425 . S
C1221 C1218 1.409 . S
C1221 C1219 1.415 . S
C1222 H1212 0.930 . S
C1222 C1220 1.419 . S
C1222 C1223 1.362 . S
C1223 H1213 0.930 . S
C1223 C1216 1.409 . S
C1223 C1222 1.362 . S
H1224 C1230 0.930 . S
H1225 C1233 0.930 . S
H1226 C1234 0.930 . S
H1227 C1235 0.930 . S
H1228 C1238 0.930 . S
H1229 C1239 0.930 . S
C1230 H1224 0.930 . S
C1230 C1231 1.355 . S
C1230 C1232 1.415 . S
C1231 C1230 1.355 . S
C1231 C1233 1.419 . S
C1232 C1230 1.415 . S
C1232 C1237 1.425 . S
C1232 C1239 1.409 . S
C1233 H1225 0.930 . S
C1233 C1231 1.419 . S
C1233 C1234 1.362 . S
C1234 H1226 0.930 . S
C1234 C1233 1.362 . S
C1234 C1237 1.409 . S
C1235 H1227 0.930 . S
C1235 C1236 1.355 . S
C1235 C1237 1.415 . S
C1236 C1235 1.355 . S
C1236 C1238 1.419 . S
C1237 C1232 1.425 . S
C1237 C1234 1.409 . S
C1237 C1235 1.415 . S
C1238 H1228 0.930 . S
C1238 C1236 1.419 . S
C1238 C1239 1.362 . S
C1239 H1229 0.930 . S
C1239 C1232 1.409 . S
C1239 C1238 1.362 . S
H1240 C1246 0.930 . S
H1241 C1249 0.930 . S
H1242 C1250 0.930 . S
H1243 C1251 0.930 . S
H1244 C1254 0.930 . S
H1245 C1255 0.930 . S
C1246 H1240 0.930 . S
C1246 C1247 1.355 . S
C1246 C1248 1.415 . S
C1247 C1246 1.355 . S
C1247 C1249 1.419 . S
C1248 C1246 1.415 . S
C1248 C1253 1.425 . S
C1248 C1255 1.409 . S
C1249 H1241 0.930 . S
C1249 C1247 1.419 . S
C1249 C1250 1.362 . S
C1250 H1242 0.930 . S
C1250 C1249 1.362 . S
C1250 C1253 1.409 . S
C1251 H1243 0.930 . S
C1251 C1252 1.355 . S
C1251 C1253 1.415 . S
C1252 C1251 1.355 . S
C1252 C1254 1.419 . S
C1253 C1248 1.425 . S
C1253 C1250 1.409 . S
C1253 C1251 1.415 . S
C1254 H1244 0.930 . S
C1254 C1252 1.419 . S
C1254 C1255 1.362 . S
C1255 H1245 0.930 . S
C1255 C1248 1.409 . S
C1255 C1254 1.362 . S
H1256 C1262 0.930 . S
H1257 C1265 0.930 . S
H1258 C1266 0.930 . S
H1259 C1267 0.930 . S
H1260 C1270 0.930 . S
H1261 C1271 0.930 . S
C1262 H1256 0.930 . S
C1262 C1263 1.355 . S
C1262 C1264 1.415 . S
C1263 C1262 1.355 . S
C1263 C1265 1.419 . S
C1264 C1262 1.415 . S
C1264 C1269 1.425 . S
C1264 C1271 1.409 . S
C1265 H1257 0.930 . S
C1265 C1263 1.419 . S
C1265 C1266 1.362 . S
C1266 H1258 0.930 . S
C1266 C1265 1.362 . S
C1266 C1269 1.409 . S
C1267 H1259 0.930 . S
C1267 C1268 1.355 . S
C1267 C1269 1.415 . S
C1268 C1267 1.355 . S
C1268 C1270 1.419 . S
C1269 C1264 1.425 . S
C1269 C1266 1.409 . S
C1269 C1267 1.415 . S
C1270 H1260 0.930 . S
C1270 C1268 1.419 . S
C1270 C1271 1.362 . S
C1271 H1261 0.930 . S
C1271 C1264 1.409 . S
C1271 C1270 1.362 . S
H1272 C1278 0.930 . S
H1273 C1281 0.930 . S
H1274 C1282 0.930 . S
H1275 C1283 0.930 . S
H1276 C1286 0.930 . S
H1277 C1287 0.930 . S
C1278 H1272 0.930 . S
C1278 C1279 1.355 . S
C1278 C1280 1.415 . S
C1279 C1278 1.355 . S
C1279 C1281 1.419 . S
C1280 C1278 1.415 . S
C1280 C1285 1.425 . S
C1280 C1287 1.409 . S
C1281 H1273 0.930 . S
C1281 C1279 1.419 . S
C1281 C1282 1.362 . S
C1282 H1274 0.930 . S
C1282 C1281 1.362 . S
C1282 C1285 1.409 . S
C1283 H1275 0.930 . S
C1283 C1284 1.355 . S
C1283 C1285 1.415 . S
C1284 C1283 1.355 . S
C1284 C1286 1.419 . S
C1285 C1280 1.425 . S
C1285 C1282 1.409 . S
C1285 C1283 1.415 . S
C1286 H1276 0.930 . S
C1286 C1284 1.419 . S
C1286 C1287 1.362 . S
C1287 H1277 0.930 . S
C1287 C1280 1.409 . S
C1287 C1286 1.362 . S
H1288 C1294 0.930 . S
H1289 C1297 0.930 . S
H1290 C1298 0.930 . S
H1291 C1299 0.930 . S
H1292 C1302 0.930 . S
H1293 C1303 0.930 . S
C1294 H1288 0.930 . S
C1294 C1295 1.355 . S
C1294 C1296 1.415 . S
C1295 C1294 1.355 . S
C1295 C1297 1.419 . S
C1296 C1294 1.415 . S
C1296 C1301 1.425 . S
C1296 C1303 1.409 . S
C1297 H1289 0.930 . S
C1297 C1295 1.419 . S
C1297 C1298 1.362 . S
C1298 H1290 0.930 . S
C1298 C1297 1.362 . S
C1298 C1301 1.409 . S
C1299 H1291 0.930 . S
C1299 C1300 1.355 . S
C1299 C1301 1.415 . S
C1300 C1299 1.355 . S
C1300 C1302 1.419 . S
C1301 C1296 1.425 . S
C1301 C1298 1.409 . S
C1301 C1299 1.415 . S
C1302 H1292 0.930 . S
C1302 C1300 1.419 . S
C1302 C1303 1.362 . S
C1303 H1293 0.930 . S
C1303 C1296 1.409 . S
C1303 C1302 1.362 . S
H1304 C1310 0.930 . S
H1305 C1313 0.930 . S
H1306 C1314 0.930 . S
H1307 C1315 0.930 . S
H1308 C1318 0.930 . S
H1309 C1319 0.930 . S
C1310 H1304 0.930 . S
C1310 C1311 1.355 . S
C1310 C1312 1.415 . S
C1311 C1310 1.355 . S
C1311 C1313 1.419 . S
C1312 C1310 1.415 . S
C1312 C1317 1.425 . S
C1312 C1319 1.409 . S
C1313 H1305 0.930 . S
C1313 C1311 1.419 . S
C1313 C1314 1.362 . S
C1314 H1306 0.930 . S
C1314 C1313 1.362 . S
C1314 C1317 1.409 . S
C1315 H1307 0.930 . S
C1315 C1316 1.355 . S
C1315 C1317 1.415 . S
C1316 C1315 1.355 . S
C1316 C1318 1.419 . S
C1317 C1312 1.425 . S
C1317 C1314 1.409 . S
C1317 C1315 1.415 . S
C1318 H1308 0.930 . S
C1318 C1316 1.419 . S
C1318 C1319 1.362 . S
C1319 H1309 0.930 . S
C1319 C1312 1.409 . S
C1319 C1318 1.362 . S
H1320 C1326 0.930 . S
H1321 C1329 0.930 . S
H1322 C1330 0.930 . S
H1323 C1331 0.930 . S
H1324 C1334 0.930 . S
H1325 C1335 0.930 . S
C1326 H1320 0.930 . S
C1326 C1327 1.355 . S
C1326 C1328 1.415 . S
C1327 C1326 1.355 . S
C1327 C1329 1.419 . S
C1328 C1326 1.415 . S
C1328 C1333 1.425 . S
C1328 C1335 1.409 . S
C1329 H1321 0.930 . S
C1329 C1327 1.419 . S
C1329 C1330 1.362 . S
C1330 H1322 0.930 . S
C1330 C1329 1.362 . S
C1330 C1333 1.409 . S
C1331 H1323 0.930 . S
C1331 C1332 1.355 . S
C1331 C1333 1.415 . S
C1332 C1331 1.355 . S
C1332 C1334 1.419 . S
C1333 C1328 1.425 . S
C1333 C1330 1.409 . S
C1333 C1331 1.415 . S
C1334 H1324 0.930 . S
C1334 C1332 1.419 . S
C1334 C1335 1.362 . S
C1335 H1325 0.930 . S
C1335 C1328 1.409 . S
C1335 C1334 1.362 . S
H1336 C1342 0.930 . S
H1337 C1345 0.930 . S
H1338 C1346 0.930 . S
H1339 C1347 0.930 . S
H1340 C1350 0.930 . S
H1341 C1351 0.930 . S
C1342 H1336 0.930 . S
C1342 C1343 1.355 . S
C1342 C1344 1.415 . S
C1343 C1342 1.355 . S
C1343 C1345 1.419 . S
C1344 C1342 1.415 . S
C1344 C1349 1.425 . S
C1344 C1351 1.409 . S
C1345 H1337 0.930 . S
C1345 C1343 1.419 . S
C1345 C1346 1.362 . S
C1346 H1338 0.930 . S
C1346 C1345 1.362 . S
C1346 C1349 1.409 . S
C1347 H1339 0.930 . S
C1347 C1348 1.355 . S
C1347 C1349 1.415 . S
C1348 C1347 1.355 . S
C1348 C1350 1.419 . S
C1349 C1344 1.425 . S
C1349 C1346 1.409 . S
C1349 C1347 1.415 . S
C1350 H1340 0.930 . S
C1350 C1348 1.419 . S
C1350 C1351 1.362 . S
C1351 H1341 0.930 . S
C1351 C1344 1.409 . S
C1351 C1350 1.362 . S
H1352 C1358 0.930 . S
H1353 C1361 0.930 . S
H1354 C1362 0.930 . S
H1355 C1363 0.930 . S
H1356 C1366 0.930 . S
H1357 C1367 0.930 . S
C1358 H1352 0.930 . S
C1358 C1359 1.355 . S
C1358 C1360 1.415 . S
C1359 C1358 1.355 . S
C1359 C1361 1.419 . S
C1360 C1358 1.415 . S
C1360 C1365 1.425 . S
C1360 C1367 1.409 . S
C1361 H1353 0.930 . S
C1361 C1359 1.419 . S
C1361 C1362 1.362 . S
C1362 H1354 0.930 . S
C1362 C1361 1.362 . S
C1362 C1365 1.409 . S
C1363 H1355 0.930 . S
C1363 C1364 1.355 . S
C1363 C1365 1.415 . S
C1364 C1363 1.355 . S
C1364 C1366 1.419 . S
C1365 C1360 1.425 . S
C1365 C1362 1.409 . S
C1365 C1363 1.415 . S
C1366 H1356 0.930 . S
C1366 C1364 1.419 . S
C1366 C1367 1.362 . S
C1367 H1357 0.930 . S
C1367 C1360 1.409 . S
C1367 C1366 1.362 . S
H1368 C1374 0.930 . S
H1369 C1377 0.930 . S
H1370 C1378 0.930 . S
H1371 C1379 0.930 . S
H1372 C1382 0.930 . S
H1373 C1383 0.930 . S
C1374 H1368 0.930 . S
C1374 C1375 1.355 . S
C1374 C1376 1.415 . S
C1375 C1374 1.355 . S
C1375 C1377 1.419 . S
C1376 C1374 1.415 . S
C1376 C1381 1.425 . S
C1376 C1383 1.409 . S
C1377 H1369 0.930 . S
C1377 C1375 1.419 . S
C1377 C1378 1.362 . S
C1378 H1370 0.930 . S
C1378 C1377 1.362 . S
C1378 C1381 1.409 . S
C1379 H1371 0.930 . S
C1379 C1380 1.355 . S
C1379 C1381 1.415 . S
C1380 C1379 1.355 . S
C1380 C1382 1.419 . S
C1381 C1376 1.425 . S
C1381 C1378 1.409 . S
C1381 C1379 1.415 . S
C1382 H1372 0.930 . S
C1382 C1380 1.419 . S
C1382 C1383 1.362 . S
C1383 H1373 0.930 . S
C1383 C1376 1.409 . S
C1383 C1382 1.362 . S
H1384 C1390 0.930 . S
H1385 C1393 0.930 . S
H1386 C1394 0.930 . S
H1387 C1395 0.930 . S
H1388 C1398 0.930 . S
H1389 C1399 0.930 . S
C1390 H1384 0.930 . S
C1390 C1391 1.355 . S
C1390 C1392 1.415 . S
C1391 C1390 1.355 . S
C1391 C1393 1.419 . S
C1392 C1390 1.415 . S
C1392 C1397 1.425 . S
C1392 C1399 1.409 . S
C1393 H1385 0.930 . S
C1393 C1391 1.419 . S
C1393 C1394 1.362 . S
C1394 H1386 0.930 . S
C1394 C1393 1.362 . S
C1394 C1397 1.409 . S
C1395 H1387 0.930 . S
C1395 C1396 1.355 . S
C1395 C1397 1.415 . S
C1396 C1395 1.355 . S
C1396 C1398 1.419 . S
C1397 C1392 1.425 . S
C1397 C1394 1.409 . S
C1397 C1395 1.415 . S
C1398 H1388 0.930 . S
C1398 C1396 1.419 . S
C1398 C1399 1.362 . S
C1399 H1389 0.930 . S
C1399 C1392 1.409 . S
C1399 C1398 1.362 . S
H1400 C1406 0.930 . S
H1401 C1409 0.930 . S
H1402 C1410 0.930 . S
H1403 C1411 0.930 . S
H1404 C1414 0.930 . S
H1405 C1415 0.930 . S
C1406 H1400 0.930 . S
C1406 C1407 1.355 . S
C1406 C1408 1.415 . S
C1407 C1406 1.355 . S
C1407 C1409 1.419 . S
C1408 C1406 1.415 . S
C1408 C1413 1.425 . S
C1408 C1415 1.409 . S
C1409 H1401 0.930 . S
C1409 C1407 1.419 . S
C1409 C1410 1.362 . S
C1410 H1402 0.930 . S
C1410 C1409 1.362 . S
C1410 C1413 1.409 . S
C1411 H1403 0.930 . S
C1411 C1412 1.355 . S
C1411 C1413 1.415 . S
C1412 C1411 1.355 . S
C1412 C1414 1.419 . S
C1413 C1408 1.425 . S
C1413 C1410 1.409 . S
C1413 C1411 1.415 . S
C1414 H1404 0.930 . S
C1414 C1412 1.419 . S
C1414 C1415 1.362 . S
C1415 H1405 0.930 . S
C1415 C1408 1.409 . S
C1415 C1414 1.362 . S
H1416 C1422 0.930 . S
H1417 C1425 0.930 . S
H1418 C1426 0.930 . S
H1419 C1427 0.930 . S
H1420 C1430 0.930 . S
H1421 C1431 0.930 . S
C1422 H1416 0.930 . S
C1422 C1423 1.355 . S
C1422 C1424 1.415 . S
C1423 C1422 1.355 . S
C1423 C1425 1.419 . S
C1424 C1422 1.415 . S
C1424 C1429 1.425 . S
C1424 C1431 1.409 . S
C1425 H1417 0.930 . S
C1425 C1423 1.419 . S
C1425 C1426 1.362 . S
C1426 H1418 0.930 . S
C1426 C1425 1.362 . S
C1426 C1429 1.409 . S
C1427 H1419 0.930 . S
C1427 C1428 1.355 . S
C1427 C1429 1.415 . S
C1428 C1427 1.355 . S
C1428 C1430 1.419 . S
C1429 C1424 1.425 . S
C1429 C1426 1.409 . S
C1429 C1427 1.415 . S
C1430 H1420 0.930 . S
C1430 C1428 1.419 . S
C1430 C1431 1.362 . S
C1431 H1421 0.930 . S
C1431 C1424 1.409 . S
C1431 C1430 1.362 . S
H1432 C1438 0.930 . S
H1433 C1441 0.930 . S
H1434 C1442 0.930 . S
H1435 C1443 0.930 . S
H1436 C1446 0.930 . S
H1437 C1447 0.930 . S
C1438 H1432 0.930 . S
C1438 C1439 1.355 . S
C1438 C1440 1.415 . S
C1439 C1438 1.355 . S
C1439 C1441 1.419 . S
C1440 C1438 1.415 . S
C1440 C1445 1.425 . S
C1440 C1447 1.409 . S
C1441 H1433 0.930 . S
C1441 C1439 1.419 . S
C1441 C1442 1.362 . S
C1442 H1434 0.930 . S
C1442 C1441 1.362 . S
C1442 C1445 1.409 . S
C1443 H1435 0.930 . S
C1443 C1444 1.355 . S
C1443 C1445 1.415 . S
C1444 C1443 1.355 . S
C1444 C1446 1.419 . S
C1445 C1440 1.425 . S
C1445 C1442 1.409 . S
C1445 C1443 1.415 . S
C1446 H1436 0.930 . S
C1446 C1444 1.419 . S
C1446 C1447 1.362 . S
C1447 H1437 0.930 . S
C1447 C1440 1.409 . S
C1447 C1446 1.362 . S
H1448 C1454 0.930 . S
H1449 C1457 0.930 . S
H1450 C1458 0.930 . S
H1451 C1459 0.930 . S
H1452 C1462 0.930 . S
H1453 C1463 0.930 . S
C1454 H1448 0.930 . S
C1454 C1455 1.355 . S
C1454 C1456 1.415 . S
C1455 C1454 1.355 . S
C1455 C1457 1.419 . S
C1456 C1454 1.415 . S
C1456 C1461 1.425 . S
C1456 C1463 1.409 . S
C1457 H1449 0.930 . S
C1457 C1455 1.419 . S
C1457 C1458 1.362 . S
C1458 H1450 0.930 . S
C1458 C1457 1.362 . S
C1458 C1461 1.409 . S
C1459 H1451 0.930 . S
C1459 C1460 1.355 . S
C1459 C1461 1.415 . S
C1460 C1459 1.355 . S
C1460 C1462 1.419 . S
C1461 C1456 1.425 . S
C1461 C1458 1.409 . S
C1461 C1459 1.415 . S
C1462 H1452 0.930 . S
C1462 C1460 1.419 . S
C1462 C1463 1.362 . S
C1463 H1453 0.930 . S
C1463 C1456 1.409 . S
C1463 C1462 1.362 . S
H1464 C1470 0.930 . S
H1465 C1473 0.930 . S
H1466 C1474 0.930 . S
H1467 C1475 0.930 . S
H1468 C1478 0.930 . S
H1469 C1479 0.930 . S
C1470 H1464 0.930 . S
C1470 C1471 1.355 . S
C1470 C1472 1.415 . S
C1471 C1470 1.355 . S
C1471 C1473 1.419 . S
C1472 C1470 1.415 . S
C1472 C1477 1.425 . S
C1472 C1479 1.409 . S
C1473 H1465 0.930 . S
C1473 C1471 1.419 . S
C1473 C1474 1.362 . S
C1474 H1466 0.930 . S
C1474 C1473 1.362 . S
C1474 C1477 1.409 . S
C1475 H1467 0.930 . S
C1475 C1476 1.355 . S
C1475 C1477 1.415 . S
C1476 C1475 1.355 . S
C1476 C1478 1.419 . S
C1477 C1472 1.425 . S
C1477 C1474 1.409 . S
C1477 C1475 1.415 . S
C1478 H1468 0.930 . S
C1478 C1476 1.419 . S
C1478 C1479 1.362 . S
C1479 H1469 0.930 . S
C1479 C1472 1.409 . S
C1479 C1478 1.362 . S
H1480 C1486 0.930 . S
H1481 C1489 0.930 . S
H1482 C1490 0.930 . S
H1483 C1491 0.930 . S
H1484 C1494 0.930 . S
H1485 C1495 0.930 . S
C1486 H1480 0.930 . S
C1486 C1487 1.355 . S
C1486 C1488 1.415 . S
C1487 C1486 1.355 . S
C1487 C1489 1.419 . S
C1488 C1486 1.415 . S
C1488 C1493 1.425 . S
C1488 C1495 1.409 . S
C1489 H1481 0.930 . S
C1489 C1487 1.419 . S
C1489 C1490 1.362 . S
C1490 H1482 0.930 . S
C1490 C1489 1.362 . S
C1490 C1493 1.409 . S
C1491 H1483 0.930 . S
C1491 C1492 1.355 . S
C1491 C1493 1.415 . S
C1492 C1491 1.355 . S
C1492 C1494 1.419 . S
C1493 C1488 1.425 . S
C1493 C1490 1.409 . S
C1493 C1491 1.415 . S
C1494 H1484 0.930 . S
C1494 C1492 1.419 . S
C1494 C1495 1.362 . S
C1495 H1485 0.930 . S
C1495 C1488 1.409 . S
C1495 C1494 1.362 . S
H1496 C1502 0.930 . S
H1497 C1505 0.930 . S
H1498 C1506 0.930 . S
H1499 C1507 0.930 . S
H1500 C1510 0.930 . S
H1501 C1511 0.930 . S
C1502 H1496 0.930 . S
C1502 C1503 1.355 . S
C1502 C1504 1.415 . S
C1503 C1502 1.355 . S
C1503 C1505 1.419 . S
C1504 C1502 1.415 . S
C1504 C1509 1.425 . S
C1504 C1511 1.409 . S
C1505 H1497 0.930 . S
C1505 C1503 1.419 . S
C1505 C1506 1.362 . S
C1506 H1498 0.930 . S
C1506 C1505 1.362 . S
C1506 C1509 1.409 . S
C1507 H1499 0.930 . S
C1507 C1508 1.355 . S
C1507 C1509 1.415 . S
C1508 C1507 1.355 . S
C1508 C1510 1.419 . S
C1509 C1504 1.425 . S
C1509 C1506 1.409 . S
C1509 C1507 1.415 . S
C1510 H1500 0.930 . S
C1510 C1508 1.419 . S
C1510 C1511 1.362 . S
C1511 H1501 0.930 . S
C1511 C1504 1.409 . S
C1511 C1510 1.362 . S
H1512 C1518 0.930 . S
H1513 C1521 0.930 . S
H1514 C1522 0.930 . S
H1515 C1523 0.930 . S
H1516 C1526 0.930 . S
H1517 C1527 0.930 . S
C1518 H1512 0.930 . S
C1518 C1519 1.355 . S
C1518 C1520 1.415 . S
C1519 C1518 1.355 . S
C1519 C1521 1.419 . S
C1520 C1518 1.415 . S
C1520 C1525 1.425 . S
C1520 C1527 1.409 . S
C1521 H1513 0.930 . S
C1521 C1519 1.419 . S
C1521 C1522 1.362 . S
C1522 H1514 0.930 . S
C1522 C1521 1.362 . S
C1522 C1525 1.409 . S
C1523 H1515 0.930 . S
C1523 C1524 1.355 . S
C1523 C1525 1.415 . S
C1524 C1523 1.355 . S
C1524 C1526 1.419 . S
C1525 C1520 1.425 . S
C1525 C1522 1.409 . S
C1525 C1523 1.415 . S
C1526 H1516 0.930 . S
C1526 C1524 1.419 . S
C1526 C1527 1.362 . S
C1527 H1517 0.930 . S
C1527 C1520 1.409 . S
C1527 C1526 1.362 . S
H1528 C1534 0.930 . S
H1529 C1537 0.930 . S
H1530 C1538 0.930 . S
H1531 C1539 0.930 . S
H1532 C1542 0.930 . S
H1533 C1543 0.930 . S
C1534 H1528 0.930 . S
C1534 C1535 1.355 . S
C1534 C1536 1.415 . S
C1535 C1534 1.355 . S
C1535 C1537 1.419 . S
C1536 C1534 1.415 . S
C1536 C1541 1.425 . S
C1536 C1543 1.409 . S
C1537 H1529 0.930 . S
C1537 C1535 1.419 . S
C1537 C1538 1.362 . S
C1538 H1530 0.930 . S
C1538 C1537 1.362 . S
C1538 C1541 1.409 . S
C1539 H1531 0.930 . S
C1539 C1540 1.355 . S
C1539 C1541 1.415 . S
C1540 C1539 1.355 . S
C1540 C1542 1.419 . S
C1541 C1536 1.425 . S
C1541 C1538 1.409 . S
C1541 C1539 1.415 . S
C1542 H1532 0.930 . S
C1542 C1540 1.419 . S
C1542 C1543 1.362 . S
C1543 H1533 0.930 . S
C1543 C1536 1.409 . S
C1543 C1542 1.362 . S
H1544 C1550 0.930 . S
H1545 C1553 0.930 . S
H1546 C1554 0.930 . S
H1547 C1555 0.930 . S
H1548 C1558 0.930 . S
H1549 C1559 0.930 . S
C1550 H1544 0.930 . S
C1550 C1551 1.355 . S
C1550 C1552 1.415 . S
C1551 C1550 1.355 . S
C1551 C1553 1.419 . S
C1552 C1550 1.415 . S
C1552 C1557 1.425 . S
C1552 C1559 1.409 . S
C1553 H1545 0.930 . S
C1553 C1551 1.419 . S
C1553 C1554 1.362 . S
C1554 H1546 0.930 . S
C1554 C1553 1.362 . S
C1554 C1557 1.409 . S
C1555 H1547 0.930 . S
C1555 C1556 1.355 . S
C1555 C1557 1.415 . S
C1556 C1555 1.355 . S
C1556 C1558 1.419 . S
C1557 C1552 1.425 . S
C1557 C1554 1.409 . S
C1557 C1555 1.415 . S
C1558 H1548 0.930 . S
C1558 C1556 1.419 . S
C1558 C1559 1.362 . S
C1559 H1549 0.930 . S
C1559 C1552 1.409 . S
C1559 C1558 1.362 . S
H1560 C1566 0.930 . S
H1561 C1569 0.930 . S
H1562 C1570 0.930 . S
H1563 C1571 0.930 . S
H1564 C1574 0.930 . S
H1565 C1575 0.930 . S
C1566 H1560 0.930 . S
C1566 C1567 1.355 . S
C1566 C1568 1.415 . S
C1567 C1566 1.355 . S
C1567 C1569 1.419 . S
C1568 C1566 1.415 . S
C1568 C1573 1.425 . S
C1568 C1575 1.409 . S
C1569 H1561 0.930 . S
C1569 C1567 1.419 . S
C1569 C1570 1.362 . S
C1570 H1562 0.930 . S
C1570 C1569 1.362 . S
C1570 C1573 1.409 . S
C1571 H1563 0.930 . S
C1571 C1572 1.355 . S
C1571 C1573 1.415 . S
C1572 C1571 1.355 . S
C1572 C1574 1.419 . S
C1573 C1568 1.425 . S
C1573 C1570 1.409 . S
C1573 C1571 1.415 . S
C1574 H1564 0.930 . S
C1574 C1572 1.419 . S
C1574 C1575 1.362 . S
C1575 H1565 0.930 . S
C1575 C1568 1.409 . S
C1575 C1574 1.362 . S
H1576 C1582 0.930 . S
H1577 C1585 0.930 . S
H1578 C1586 0.930 . S
H1579 C1587 0.930 . S
H1580 C1590 0.930 . S
H1581 C1591 0.930 . S
C1582 H1576 0.930 . S
C1582 C1583 1.355 . S
C1582 C1584 1.415 . S
C1583 C1582 1.355 . S
C1583 C1585 1.419 . S
C1584 C1582 1.415 . S
C1584 C1589 1.425 . S
C1584 C1591 1.409 . S
C1585 H1577 0.930 . S
C1585 C1583 1.419 . S
C1585 C1586 1.362 . S
C1586 H1578 0.930 . S
C1586 C1585 1.362 . S
C1586 C1589 1.409 . S
C1587 H1579 0.930 . S
C1587 C1588 1.355 . S
C1587 C1589 1.415 . S
C1588 C1587 1.355 . S
C1588 C1590 1.419 . S
C1589 C1584 1.425 . S
C1589 C1586 1.409 . S
C1589 C1587 1.415 . S
C1590 H1580 0.930 . S
C1590 C1588 1.419 . S
C1590 C1591 1.362 . S
C1591 H1581 0.930 . S
C1591 C1584 1.409 . S
C1591 C1590 1.362 . S
H1592 C1598 0.930 . S
H1593 C1601 0.930 . S
H1594 C1602 0.930 . S
H1595 C1603 0.930 . S
H1596 C1606 0.930 . S
H1597 C1607 0.930 . S
C1598 H1592 0.930 . S
C1598 C1599 1.355 . S
C1598 C1600 1.415 . S
C1599 C1598 1.355 . S
C1599 C1601 1.419 . S
C1600 C1598 1.415 . S
C1600 C1605 1.425 . S
C1600 C1607 1.409 . S
C1601 H1593 0.930 . S
C1601 C1599 1.419 . S
C1601 C1602 1.362 . S
C1602 H1594 0.930 . S
C1602 C1601 1.362 . S
C1602 C1605 1.409 . S
C1603 H1595 0.930 . S
C1603 C1604 1.355 . S
C1603 C1605 1.415 . S
C1604 C1603 1.355 . S
C1604 C1606 1.419 . S
C1605 C1600 1.425 . S
C1605 C1602 1.409 . S
C1605 C1603 1.415 . S
C1606 H1596 0.930 . S
C1606 C1604 1.419 . S
C1606 C1607 1.362 . S
C1607 H1597 0.930 . S
C1607 C1600 1.409 . S
C1607 C1606 1.362 . S
H1608 C1614 0.930 . S
H1609 C1617 0.930 . S
H1610 C1618 0.930 . S
H1611 C1619 0.930 . S
H1612 C1622 0.930 . S
H1613 C1623 0.930 . S
C1614 H1608 0.930 . S
C1614 C1615 1.355 . S
C1614 C1616 1.415 . S
C1615 C1614 1.355 . S
C1615 C1617 1.419 . S
C1616 C1614 1.415 . S
C1616 C1621 1.425 . S
C1616 C1623 1.409 . S
C1617 H1609 0.930 . S
C1617 C1615 1.419 . S
C1617 C1618 1.362 . S
C1618 H1610 0.930 . S
C1618 C1617 1.362 . S
C1618 C1621 1.409 . S
C1619 H1611 0.930 . S
C1619 C1620 1.355 . S
C1619 C1621 1.415 . S
C1620 C1619 1.355 . S
C1620 C1622 1.419 . S
C1621 C1616 1.425 . S
C1621 C1618 1.409 . S
C1621 C1619 1.415 . S
C1622 H1612 0.930 . S
C1622 C1620 1.419 . S
C1622 C1623 1.362 . S
C1623 H1613 0.930 . S
C1623 C1616 1.409 . S
C1623 C1622 1.362 . S
H1624 C1630 0.930 . S
H1625 C1633 0.930 . S
H1626 C1634 0.930 . S
H1627 C1635 0.930 . S
H1628 C1638 0.930 . S
H1629 C1639 0.930 . S
C1630 H1624 0.930 . S
C1630 C1631 1.355 . S
C1630 C1632 1.415 . S
C1631 C1630 1.355 . S
C1631 C1633 1.419 . S
C1632 C1630 1.415 . S
C1632 C1637 1.425 . S
C1632 C1639 1.409 . S
C1633 H1625 0.930 . S
C1633 C1631 1.419 . S
C1633 C1634 1.362 . S
C1634 H1626 0.930 . S
C1634 C1633 1.362 . S
C1634 C1637 1.409 . S
C1635 H1627 0.930 . S
C1635 C1636 1.355 . S
C1635 C1637 1.415 . S
C1636 C1635 1.355 . S
C1636 C1638 1.419 . S
C1637 C1632 1.425 . S
C1637 C1634 1.409 . S
C1637 C1635 1.415 . S
C1638 H1628 0.930 . S
C1638 C1636 1.419 . S
C1638 C1639 1.362 . S
C1639 H1629 0.930 . S
C1639 C1632 1.409 . S
C1639 C1638 1.362 . S
H1640 C1646 0.930 . S
H1641 C1649 0.930 . S
H1642 C1650 0.930 . S
H1643 C1651 0.930 . S
H1644 C1654 0.930 . S
H1645 C1655 0.930 . S
C1646 H1640 0.930 . S
C1646 C1647 1.355 . S
C1646 C1648 1.415 . S
C1647 C1646 1.355 . S
C1647 C1649 1.419 . S
C1648 C1646 1.415 . S
C1648 C1653 1.425 . S
C1648 C1655 1.409 . S
C1649 H1641 0.930 . S
C1649 C1647 1.419 . S
C1649 C1650 1.362 . S
C1650 H1642 0.930 . S
C1650 C1649 1.362 . S
C1650 C1653 1.409 . S
C1651 H1643 0.930 . S
C1651 C1652 1.355 . S
C1651 C1653 1.415 . S
C1652 C1651 1.355 . S
C1652 C1654 1.419 . S
C1653 C1648 1.425 . S
C1653 C1650 1.409 . S
C1653 C1651 1.415 . S
C1654 H1644 0.930 . S
C1654 C1652 1.419 . S
C1654 C1655 1.362 . S
C1655 H1645 0.930 . S
C1655 C1648 1.409 . S
C1655 C1654 1.362 . S
H1656 C1662 0.930 . S
H1657 C1665 0.930 . S
H1658 C1666 0.930 . S
H1659 C1667 0.930 . S
H1660 C1670 0.930 . S
H1661 C1671 0.930 . S
C1662 H1656 0.930 . S
C1662 C1663 1.355 . S
C1662 C1664 1.415 . S
C1663 C1662 1.355 . S
C1663 C1665 1.419 . S
C1664 C1662 1.415 . S
C1664 C1669 1.425 . S
C1664 C1671 1.409 . S
C1665 H1657 0.930 . S
C1665 C1663 1.419 . S
C1665 C1666 1.362 . S
C1666 H1658 0.930 . S
C1666 C1665 1.362 . S
C1666 C1669 1.409 . S
C1667 H1659 0.930 . S
C1667 C1668 1.355 . S
C1667 C1669 1.415 . S
C1668 C1667 1.355 . S
C1668 C1670 1.419 . S
C1669 C1664 1.425 . S
C1669 C1666 1.409 . S
C1669 C1667 1.415 . S
C1670 H1660 0.930 . S
C1670 C1668 1.419 . S
C1670 C1671 1.362 . S
C1671 H1661 0.930 . S
C1671 C1664 1.409 . S
C1671 C1670 1.362 . S
H1672 C1678 0.930 . S
H1673 C1681 0.930 . S
H1674 C1682 0.930 . S
H1675 C1683 0.930 . S
H1676 C1686 0.930 . S
H1677 C1687 0.930 . S
C1678 H1672 0.930 . S
C1678 C1679 1.355 . S
C1678 C1680 1.415 . S
C1679 C1678 1.355 . S
C1679 C1681 1.419 . S
C1680 C1678 1.415 . S
C1680 C1685 1.425 . S
C1680 C1687 1.409 . S
C1681 H1673 0.930 . S
C1681 C1679 1.419 . S
C1681 C1682 1.362 . S
C1682 H1674 0.930 . S
C1682 C1681 1.362 . S
C1682 C1685 1.409 . S
C1683 H1675 0.930 . S
C1683 C1684 1.355 . S
C1683 C1685 1.415 . S
C1684 C1683 1.355 . S
C1684 C1686 1.419 . S
C1685 C1680 1.425 . S
C1685 C1682 1.409 . S
C1685 C1683 1.415 . S
C1686 H1676 0.930 . S
C1686 C1684 1.419 . S
C1686 C1687 1.362 . S
C1687 H1677 0.930 . S
C1687 C1680 1.409 . S
C1687 C1686 1.362 . S
H1688 C1694 0.930 . S
H1689 C1697 0.930 . S
H1690 C1698 0.930 . S
H1691 C1699 0.930 . S
H1692 C1702 0.930 . S
H1693 C1703 0.930 . S
C1694 H1688 0.930 . S
C1694 C1695 1.355 . S
C1694 C1696 1.415 . S
C1695 C1694 1.355 . S
C1695 C1697 1.419 . S
C1696 C1694 1.415 . S
C1696 C1701 1.425 . S
C1696 C1703 1.409 . S
C1697 H1689 0.930 . S
C1697 C1695 1.419 . S
C1697 C1698 1.362 . S
C1698 H1690 0.930 . S
C1698 C1697 1.362 . S
C1698 C1701 1.409 . S
C1699 H1691 0.930 . S
C1699 C1700 1.355 . S
C1699 C1701 1.415 . S
C1700 C1699 1.355 . S
C1700 C1702 1.419 . S
C1701 C1696 1.425 . S
C1701 C1698 1.409 . S
C1701 C1699 1.415 . S
C1702 H1692 0.930 . S
C1702 C1700 1.419 . S
C1702 C1703 1.362 . S
C1703 H1693 0.930 . S
C1703 C1696 1.409 . S
C1703 C1702 1.362 . S
H1704 C1710 0.930 . S
H1705 C1713 0.930 . S
H1706 C1714 0.930 . S
H1707 C1715 0.930 . S
H1708 C1718 0.930 . S
H1709 C1719 0.930 . S
C1710 H1704 0.930 . S
C1710 C1711 1.355 . S
C1710 C1712 1.415 . S
C1711 C1710 1.355 . S
C1711 C1713 1.419 . S
C1712 C1710 1.415 . S
C1712 C1717 1.425 . S
C1712 C1719 1.409 . S
C1713 H1705 0.930 . S
C1713 C1711 1.419 . S
C1713 C1714 1.362 . S
C1714 H1706 0.930 . S
C1714 C1713 1.362 . S
C1714 C1717 1.409 . S
C1715 H1707 0.930 . S
C1715 C1716 1.355 . S
C1715 C1717 1.415 . S
C1716 C1715 1.355 . S
C1716 C1718 1.419 . S
C1717 C1712 1.425 . S
C1717 C1714 1.409 . S
C1717 C1715 1.415 . S
C1718 H1708 0.930 . S
C1718 C1716 1.419 . S
C1718 C1719 1.362 . S
C1719 H1709 0.930 . S
C1719 C1712 1.409 . S
C1719 C1718 1.362 . S
H1720 C1726 0.930 . S
H1721 C1729 0.930 . S
H1722 C1730 0.930 . S
H1723 C1731 0.930 . S
H1724 C1734 0.930 . S
H1725 C1735 0.930 . S
C1726 H1720 0.930 . S
C1726 C1727 1.355 . S
C1726 C1728 1.415 . S
C1727 C1726 1.355 . S
C1727 C1729 1.419 . S
C1728 C1726 1.415 . S
C1728 C1733 1.425 . S
C1728 C1735 1.409 . S
C1729 H1721 0.930 . S
C1729 C1727 1.419 . S
C1729 C1730 1.362 . S
C1730 H1722 0.930 . S
C1730 C1729 1.362 . S
C1730 C1733 1.409 . S
C1731 H1723 0.930 . S
C1731 C1732 1.355 . S
C1731 C1733 1.415 . S
C1732 C1731 1.355 . S
C1732 C1734 1.419 . S
C1733 C1728 1.425 . S
C1733 C1730 1.409 . S
C1733 C1731 1.415 . S
C1734 H1724 0.930 . S
C1734 C1732 1.419 . S
C1734 C1735 1.362 . S
C1735 H1725 0.930 . S
C1735 C1728 1.409 . S
C1735 C1734 1.362 . S
H1736 C1742 0.930 . S
H1737 C1745 0.930 . S
H1738 C1746 0.930 . S
H1739 C1747 0.930 . S
H1740 C1750 0.930 . S
H1741 C1751 0.930 . S
C1742 H1736 0.930 . S
C1742 C1743 1.355 . S
C1742 C1744 1.415 . S
C1743 C1742 1.355 . S
C1743 C1745 1.419 . S
C1744 C1742 1.415 . S
C1744 C1749 1.425 . S
C1744 C1751 1.409 . S
C1745 H1737 0.930 . S
C1745 C1743 1.419 . S
C1745 C1746 1.362 . S
C1746 H1738 0.930 . S
C1746 C1745 1.362 . S
C1746 C1749 1.409 . S
C1747 H1739 0.930 . S
C1747 C1748 1.355 . S
C1747 C1749 1.415 . S
C1748 C1747 1.355 . S
C1748 C1750 1.419 . S
C1749 C1744 1.425 . S
C1749 C1746 1.409 . S
C1749 C1747 1.415 . S
C1750 H1740 0.930 . S
C1750 C1748 1.419 . S
C1750 C1751 1.362 . S
C1751 H1741 0.930 . S
C1751 C1744 1.409 . S
C1751 C1750 1.362 . S
H1752 C1758 0.930 . S
H1753 C1761 0.930 . S
H1754 C1762 0.930 . S
H1755 C1763 0.930 . S
H1756 C1766 0.930 . S
H1757 C1767 0.930 . S
C1758 H1752 0.930 . S
C1758 C1759 1.355 . S
C1758 C1760 1.415 . S
C1759 C1758 1.355 . S
C1759 C1761 1.419 . S
C1760 C1758 1.415 . S
C1760 C1765 1.425 . S
C1760 C1767 1.409 . S
C1761 H1753 0.930 . S
C1761 C1759 1.419 . S
C1761 C1762 1.362 . S
C1762 H1754 0.930 . S
C1762 C1761 1.362 . S
C1762 C1765 1.409 . S
C1763 H1755 0.930 . S
C1763 C1764 1.355 . S
C1763 C1765 1.415 . S
C1764 C1763 1.355 . S
C1764 C1766 1.419 . S
C1765 C1760 1.425 . S
C1765 C1762 1.409 . S
C1765 C1763 1.415 . S
C1766 H1756 0.930 . S
C1766 C1764 1.419 . S
C1766 C1767 1.362 . S
C1767 H1757 0.930 . S
C1767 C1760 1.409 . S
C1767 C1766 1.362 . S
H1768 C1774 0.930 . S
H1769 C1777 0.930 . S
H1770 C1778 0.930 . S
H1771 C1779 0.930 . S
H1772 C1782 0.930 . S
H1773 C1783 0.930 . S
C1774 H1768 0.930 . S
C1774 C1775 1.355 . S
C1774 C1776 1.415 . S
C1775 C1774 1.355 . S
C1775 C1777 1.419 . S
C1776 C1774 1.415 . S
C1776 C1781 1.425 . S
C1776 C1783 1.409 . S
C1777 H1769 0.930 . S
C1777 C1775 1.419 . S
C1777 C1778 1.362 . S
C1778 H1770 0.930 . S
C1778 C1777 1.362 . S
C1778 C1781 1.409 . S
C1779 H1771 0.930 . S
C1779 C1780 1.355 . S
C1779 C1781 1.415 . S
C1780 C1779 1.355 . S
C1780 C1782 1.419 . S
C1781 C1776 1.425 . S
C1781 C1778 1.409 . S
C1781 C1779 1.415 . S
C1782 H1772 0.930 . S
C1782 C1780 1.419 . S
C1782 C1783 1.362 . S
C1783 H1773 0.930 . S
C1783 C1776 1.409 . S
C1783 C1782 1.362 . S
H1784 C1790 0.930 . S
H1785 C1793 0.930 . S
H1786 C1794 0.930 . S
H1787 C1795 0.930 . S
H1788 C1798 0.930 . S
H1789 C1799 0.930 . S
C1790 H1784 0.930 . S
C1790 C1791 1.355 . S
C1790 C1792 1.415 . S
C1791 C1790 1.355 . S
C1791 C1793 1.419 . S
C1792 C1790 1.415 . S
C1792 C1797 1.425 . S
C1792 C1799 1.409 . S
C1793 H1785 0.930 . S
C1793 C1791 1.419 . S
C1793 C1794 1.362 . S
C1794 H1786 0.930 . S
C1794 C1793 1.362 . S
C1794 C1797 1.409 . S
C1795 H1787 0.930 . S
C1795 C1796 1.355 . S
C1795 C1797 1.415 . S
C1796 C1795 1.355 . S
C1796 C1798 1.419 . S
C1797 C1792 1.425 . S
C1797 C1794 1.409 . S
C1797 C1795 1.415 . S
C1798 H1788 0.930 . S
C1798 C1796 1.419 . S
C1798 C1799 1.362 . S
C1799 H1789 0.930 . S
C1799 C1792 1.409 . S
C1799 C1798 1.362 . S
H1800 C1806 0.930 . S
H1801 C1809 0.930 . S
H1802 C1810 0.930 . S
H1803 C1811 0.930 . S
H1804 C1814 0.930 . S
H1805 C1815 0.930 . S
C1806 H1800 0.930 . S
C1806 C1807 1.355 . S
C1806 C1808 1.415 . S
C1807 C1806 1.355 . S
C1807 C1809 1.419 . S
C1808 C1806 1.415 . S
C1808 C1813 1.425 . S
C1808 C1815 1.409 . S
C1809 H1801 0.930 . S
C1809 C1807 1.419 . S
C1809 C1810 1.362 . S
C1810 H1802 0.930 . S
C1810 C1809 1.362 . S
C1810 C1813 1.409 . S
C1811 H1803 0.930 . S
C1811 C1812 1.355 . S
C1811 C1813 1.415 . S
C1812 C1811 1.355 . S
C1812 C1814 1.419 . S
C1813 C1808 1.425 . S
C1813 C1810 1.409 . S
C1813 C1811 1.415 . S
C1814 H1804 0.930 . S
C1814 C1812 1.419 . S
C1814 C1815 1.362 . S
C1815 H1805 0.930 . S
C1815 C1808 1.409 . S
C1815 C1814 1.362 . S
H1816 C1822 0.930 . S
H1817 C1825 0.930 . S
H1818 C1826 0.930 . S
H1819 C1827 0.930 . S
H1820 C1830 0.930 . S
H1821 C1831 0.930 . S
C1822 H1816 0.930 . S
C1822 C1823 1.355 . S
C1822 C1824 1.415 . S
C1823 C1822 1.355 . S
C1823 C1825 1.419 . S
C1824 C1822 1.415 . S
C1824 C1829 1.425 . S
C1824 C1831 1.409 . S
C1825 H1817 0.930 . S
C1825 C1823 1.419 . S
C1825 C1826 1.362 . S
C1826 H1818 0.930 . S
C1826 C1825 1.362 . S
C1826 C1829 1.409 . S
C1827 H1819 0.930 . S
C1827 C1828 1.355 . S
C1827 C1829 1.415 . S
C1828 C1827 1.355 . S
C1828 C1830 1.419 . S
C1829 C1824 1.425 . S
C1829 C1826 1.409 . S
C1829 C1827 1.415 . S
C1830 H1820 0.930 . S
C1830 C1828 1.419 . S
C1830 C1831 1.362 . S
C1831 H1821 0.930 . S
C1831 C1824 1.409 . S
C1831 C1830 1.362 . S
H1832 C1838 0.930 . S
H1833 C1841 0.930 . S
H1834 C1842 0.930 . S
H1835 C1843 0.930 . S
H1836 C1846 0.930 . S
H1837 C1847 0.930 . S
C1838 H1832 0.930 . S
C1838 C1839 1.355 . S
C1838 C1840 1.415 . S
C1839 C1838 1.355 . S
C1839 C1841 1.419 . S
C1840 C1838 1.415 . S
C1840 C1845 1.425 . S
C1840 C1847 1.409 . S
C1841 H1833 0.930 . S
C1841 C1839 1.419 . S
C1841 C1842 1.362 . S
C1842 H1834 0.930 . S
C1842 C1841 1.362 . S
C1842 C1845 1.409 . S
C1843 H1835 0.930 . S
C1843 C1844 1.355 . S
C1843 C1845 1.415 . S
C1844 C1843 1.355 . S
C1844 C1846 1.419 . S
C1845 C1840 1.425 . S
C1845 C1842 1.409 . S
C1845 C1843 1.415 . S
C1846 H1836 0.930 . S
C1846 C1844 1.419 . S
C1846 C1847 1.362 . S
C1847 H1837 0.930 . S
C1847 C1840 1.409 . S
C1847 C1846 1.362 . S
H1848 C1854 0.930 . S
H1849 C1857 0.930 . S
H1850 C1858 0.930 . S
H1851 C1859 0.930 . S
H1852 C1862 0.930 . S
H1853 C1863 0.930 . S
C1854 H1848 0.930 . S
C1854 C1855 1.355 . S
C1854 C1856 1.415 . S
C1855 C1854 1.355 . S
C1855 C1857 1.419 . S
C1856 C1854 1.415 . S
C1856 C1861 1.425 . S
C1856 C1863 1.409 . S
C1857 H1849 0.930 . S
C1857 C1855 1.419 . S
C1857 C1858 1.362 . S
C1858 H1850 0.930 . S
C1858 C1857 1.362 . S
C1858 C1861 1.409 . S
C1859 H1851 0.930 . S
C1859 C1860 1.355 . S
C1859 C1861 1.415 . S
C1860 C1859 1.355 . S
C1860 C1862 1.419 . S
C1861 C1856 1.425 . S
C1861 C1858 1.409 . S
C1861 C1859 1.415 . S
C1862 H1852 0.930 . S
C1862 C1860 1.419 . S
C1862 C1863 1.362 . S
C1863 H1853 0.930 . S
C1863 C1856 1.409 . S
C1863 C1862 1.362 . S
H1864 C1870 0.930 . S
H1865 C1873 0.930 . S
H1866 C1874 0.930 . S
H1867 C1875 0.930 . S
H1868 C1878 0.930 . S
H1869 C1879 0.930 . S
C1870 H1864 0.930 . S
C1870 C1871 1.355 . S
C1870 C1872 1.415 . S
C1871 C1870 1.355 . S
C1871 C1873 1.419 . S
C1872 C1870 1.415 . S
C1872 C1877 1.425 . S
C1872 C1879 1.409 . S
C1873 H1865 0.930 . S
C1873 C1871 1.419 . S
C1873 C1874 1.362 . S
C1874 H1866 0.930 . S
C1874 C1873 1.362 . S
C1874 C1877 1.409 . S
C1875 H1867 0.930 . S
C1875 C1876 1.355 . S
C1875 C1877 1.415 . S
C1876 C1875 1.355 . S
C1876 C1878 1.419 . S
C1877 C1872 1.425 . S
C1877 C1874 1.409 . S
C1877 C1875 1.415 . S
C1878 H1868 0.930 . S
C1878 C1876 1.419 . S
C1878 C1879 1.362 . S
C1879 H1869 0.930 . S
C1879 C1872 1.409 . S
C1879 C1878 1.362 . S
H1880 C1886 0.930 . S
H1881 C1889 0.930 . S
H1882 C1890 0.930 . S
H1883 C1891 0.930 . S
H1884 C1894 0.930 . S
H1885 C1895 0.930 . S
C1886 H1880 0.930 . S
C1886 C1887 1.355 . S
C1886 C1888 1.415 . S
C1887 C1886 1.355 . S
C1887 C1889 1.419 . S
C1888 C1886 1.415 . S
C1888 C1893 1.425 . S
C1888 C1895 1.409 . S
C1889 H1881 0.930 . S
C1889 C1887 1.419 . S
C1889 C1890 1.362 . S
C1890 H1882 0.930 . S
C1890 C1889 1.362 . S
C1890 C1893 1.409 . S
C1891 H1883 0.930 . S
C1891 C1892 1.355 . S
C1891 C1893 1.415 . S
C1892 C1891 1.355 . S
C1892 C1894 1.419 . S
C1893 C1888 1.425 . S
C1893 C1890 1.409 . S
C1893 C1891 1.415 . S
C1894 H1884 0.930 . S
C1894 C1892 1.419 . S
C1894 C1895 1.362 . S
C1895 H1885 0.930 . S
C1895 C1888 1.409 . S
C1895 C1894 1.362 . S
H1896 C1902 0.930 . S
H1897 C1905 0.930 . S
H1898 C1906 0.930 . S
H1899 C1907 0.930 . S
H1900 C1910 0.930 . S
H1901 C1911 0.930 . S
C1902 H1896 0.930 . S
C1902 C1903 1.355 . S
C1902 C1904 1.415 . S
C1903 C1902 1.355 . S
C1903 C1905 1.419 . S
C1904 C1902 1.415 . S
C1904 C1909 1.425 . S
C1904 C1911 1.409 . S
C1905 H1897 0.930 . S
C1905 C1903 1.419 . S
C1905 C1906 1.362 . S
C1906 H1898 0.930 . S
C1906 C1905 1.362 . S
C1906 C1909 1.409 . S
C1907 H1899 0.930 . S
C1907 C1908 1.355 . S
C1907 C1909 1.415 . S
C1908 C1907 1.355 . S
C1908 C1910 1.419 . S
C1909 C1904 1.425 . S
C1909 C1906 1.409 . S
C1909 C1907 1.415 . S
C1910 H1900 0.930 . S
C1910 C1908 1.419 . S
C1910 C1911 1.362 . S
C1911 H1901 0.930 . S
C1911 C1904 1.409 . S
C1911 C1910 1.362 . S
H1912 C1918 0.930 . S
H1913 C1921 0.930 . S
H1914 C1922 0.930 . S
H1915 C1923 0.930 . S
H1916 C1926 0.930 . S
H1917 C1927 0.930 . S
C1918 H1912 0.930 . S
C1918 C1919 1.355 . S
C1918 C1920 1.415 . S
C1919 C1918 1.355 . S
C1919 C1921 1.419 . S
C1920 C1918 1.415 . S
C1920 C1925 1.425 . S
C1920 C1927 1.409 . S
C1921 H1913 0.930 . S
C1921 C1919 1.419 . S
C1921 C1922 1.362 . S
C1922 H1914 0.930 . S
C1922 C1921 1.362 . S
C1922 C1925 1.409 . S
C1923 H1915 0.930 . S
C1923 C1924 1.355 . S
C1923 C1925 1.415 . S
C1924 C1923 1.355 . S
C1924 C1926 1.419 . S
C1925 C1920 1.425 . S
C1925 C1922 1.409 . S
C1925 C1923 1.415 . S
C1926 H1916 0.930 . S
C1926 C1924 1.419 . S
C1926 C1927 1.362 . S
C1927 H1917 0.930 . S
C1927 C1920 1.409 . S
C1927 C1926 1.362 . S
H1928 C1934 0.930 . S
H1929 C1937 0.930 . S
H1930 C1938 0.930 . S
H1931 C1939 0.930 . S
H1932 C1942 0.930 . S
H1933 C1943 0.930 . S
C1934 H1928 0.930 . S
C1934 C1935 1.355 . S
C1934 C1936 1.415 . S
C1935 C1934 1.355 . S
C1935 C1937 1.419 . S
C1936 C1934 1.415 . S
C1936 C1941 1.425 . S
C1936 C1943 1.409 . S
C1937 H1929 0.930 . S
C1937 C1935 1.419 . S
C1937 C1938 1.362 . S
C1938 H1930 0.930 . S
C1938 C1937 1.362 . S
C1938 C1941 1.409 . S
C1939 H1931 0.930 . S
C1939 C1940 1.355 . S
C1939 C1941 1.415 . S
C1940 C1939 1.355 . S
C1940 C1942 1.419 . S
C1941 C1936 1.425 . S
C1941 C1938 1.409 . S
C1941 C1939 1.415 . S
C1942 H1932 0.930 . S
C1942 C1940 1.419 . S
C1942 C1943 1.362 . S
C1943 H1933 0.930 . S
C1943 C1936 1.409 . S
C1943 C1942 1.362 . S
H1944 C1950 0.930 . S
H1945 C1953 0.930 . S
H1946 C1954 0.930 . S
H1947 C1955 0.930 . S
H1948 C1958 0.930 . S
H1949 C1959 0.930 . S
C1950 H1944 0.930 . S
C1950 C1951 1.355 . S
C1950 C1952 1.415 . S
C1951 C1950 1.355 . S
C1951 C1953 1.419 . S
C1952 C1950 1.415 . S
C1952 C1957 1.425 . S
C1952 C1959 1.409 . S
C1953 H1945 0.930 . S
C1953 C1951 1.419 . S
C1953 C1954 1.362 . S
C1954 H1946 0.930 . S
C1954 C1953 1.362 . S
C1954 C1957 1.409 . S
C1955 H1947 0.930 . S
C1955 C1956 1.355 . S
C1955 C1957 1.415 . S
C1956 C1955 1.355 . S
C1956 C1958 1.419 . S
C1957 C1952 1.425 . S
C1957 C1954 1.409 . S
C1957 C1955 1.415 . S
C1958 H1948 0.930 . S
C1958 C1956 1.419 . S
C1958 C1959 1.362 . S
C1959 H1949 0.930 . S
C1959 C1952 1.409 . S
C1959 C1958 1.362 . S
H1960 C1966 0.930 . S
H1961 C1969 0.930 . S
H1962 C1970 0.930 . S
H1963 C1971 0.930 . S
H1964 C1974 0.930 . S
H1965 C1975 0.930 . S
C1966 H1960 0.930 . S
C1966 C1967 1.355 . S
C1966 C1968 1.415 . S
C1967 C1966 1.355 . S
C1967 C1969 1.419 . S
C1968 C1966 1.415 . S
C1968 C1973 1.425 . S
C1968 C1975 1.409 . S
C1969 H1961 0.930 . S
C1969 C1967 1.419 . S
C1969 C1970 1.362 . S
C1970 H1962 0.930 . S
C1970 C1969 1.362 . S
C1970 C1973 1.409 . S
C1971 H1963 0.930 . S
C1971 C1972 1.355 . S
C1971 C1973 1.415 . S
C1972 C1971 1.355 . S
C1972 C1974 1.419 . S
C1973 C1968 1.425 . S
C1973 C1970 1.409 . S
C1973 C1971 1.415 . S
C1974 H1964 0.930 . S
C1974 C1972 1.419 . S
C1974 C1975 1.362 . S
C1975 H1965 0.930 . S
C1975 C1968 1.409 . S
C1975 C1974 1.362 . S
H1976 C1982 0.930 . S
H1977 C1985 0.930 . S
H1978 C1986 0.930 . S
H1979 C1987 0.930 . S
H1980 C1990 0.930 . S
H1981 C1991 0.930 . S
C1982 H1976 0.930 . S
C1982 C1983 1.355 . S
C1982 C1984 1.415 . S
C1983 C1982 1.355 . S
C1983 C1985 1.419 . S
C1984 C1982 1.415 . S
C1984 C1989 1.425 . S
C1984 C1991 1.409 . S
C1985 H1977 0.930 . S
C1985 C1983 1.419 . S
C1985 C1986 1.362 . S
C1986 H1978 0.930 . S
C1986 C1985 1.362 . S
C1986 C1989 1.409 . S
C1987 H1979 0.930 . S
C1987 C1988 1.355 . S
C1987 C1989 1.415 . S
C1988 C1987 1.355 . S
C1988 C1990 1.419 . S
C1989 C1984 1.425 . S
C1989 C1986 1.409 . S
C1989 C1987 1.415 . S
C1990 H1980 0.930 . S
C1990 C1988 1.419 . S
C1990 C1991 1.362 . S
C1991 H1981 0.930 . S
C1991 C1984 1.409 . S
C1991 C1990 1.362 . S
H1992 C1998 0.930 . S
H1993 C2001 0.930 . S
H1994 C2002 0.930 . S
H1995 C2003 0.930 . S
H1996 C2006 0.930 . S
H1997 C2007 0.930 . S
C1998 H1992 0.930 . S
C1998 C1999 1.355 . S
C1998 C2000 1.415 . S
C1999 C1998 1.355 . S
C1999 C2001 1.419 . S
C2000 C1998 1.415 . S
C2000 C2005 1.425 . S
C2000 C2007 1.409 . S
C2001 H1993 0.930 . S
C2001 C1999 1.419 . S
C2001 C2002 1.362 . S
C2002 H1994 0.930 . S
C2002 C2001 1.362 . S
C2002 C2005 1.409 . S
C2003 H1995 0.930 . S
C2003 C2004 1.355 . S
C2003 C2005 1.415 . S
C2004 C2003 1.355 . S
C2004 C2006 1.419 . S
C2005 C2000 1.425 . S
C2005 C2002 1.409 . S
C2005 C2003 1.415 . S
C2006 H1996 0.930 . S
C2006 C2004 1.419 . S
C2006 C2007 1.362 . S
C2007 H1997 0.930 . S
C2007 C2000 1.409 . S
C2007 C2006 1.362 . S
H2008 C2014 0.930 . S
H2009 C2017 0.930 . S
H2010 C2018 0.930 . S
H2011 C2019 0.930 . S
H2012 C2022 0.930 . S
H2013 C2023 0.930 . S
C2014 H2008 0.930 . S
C2014 C2015 1.355 . S
C2014 C2016 1.415 . S
C2015 C2014 1.355 . S
C2015 C2017 1.419 . S
C2016 C2014 1.415 . S
C2016 C2021 1.425 . S
C2016 C2023 1.409 . S
C2017 H2009 0.930 . S
C2017 C2015 1.419 . S
C2017 C2018 1.362 . S
C2018 H2010 0.930 . S
C2018 C2017 1.362 . S
C2018 C2021 1.409 . S
C2019 H2011 0.930 . S
C2019 C2020 1.355 . S
C2019 C2021 1.415 . S
C2020 C2019 1.355 . S
C2020 C2022 1.419 . S
C2021 C2016 1.425 . S
C2021 C2018 1.409 . S
C2021 C2019 1.415 . S
C2022 H2012 0.930 . S
C2022 C2020 1.419 . S
C2022 C2023 1.362 . S
C2023 H2013 0.930 . S
C2023 C2016 1.409 . S
C2023 C2022 1.362 . S
H2024 C2030 0.930 . S
H2025 C2033 0.930 . S
H2026 C2034 0.930 . S
H2027 C2035 0.930 . S
H2028 C2038 0.930 . S
H2029 C2039 0.930 . S
C2030 H2024 0.930 . S
C2030 C2031 1.355 . S
C2030 C2032 1.415 . S
C2031 C2030 1.355 . S
C2031 C2033 1.419 . S
C2032 C2030 1.415 . S
C2032 C2037 1.425 . S
C2032 C2039 1.409 . S
C2033 H2025 0.930 . S
C2033 C2031 1.419 . S
C2033 C2034 1.362 . S
C2034 H2026 0.930 . S
C2034 C2033 1.362 . S
C2034 C2037 1.409 . S
C2035 H2027 0.930 . S
C2035 C2036 1.355 . S
C2035 C2037 1.415 . S
C2036 C2035 1.355 . S
C2036 C2038 1.419 . S
C2037 C2032 1.425 . S
C2037 C2034 1.409 . S
C2037 C2035 1.415 . S
C2038 H2028 0.930 . S
C2038 C2036 1.419 . S
C2038 C2039 1.362 . S
C2039 H2029 0.930 . S
C2039 C2032 1.409 . S
C2039 C2038 1.362 . S
H2040 C2046 0.930 . S
H2041 C2049 0.930 . S
H2042 C2050 0.930 . S
H2043 C2051 0.930 . S
H2044 C2054 0.930 . S
H2045 C2055 0.930 . S
C2046 H2040 0.930 . S
C2046 C2047 1.355 . S
C2046 C2048 1.415 . S
C2047 C2046 1.355 . S
C2047 C2049 1.419 . S
C2048 C2046 1.415 . S
C2048 C2053 1.425 . S
C2048 C2055 1.409 . S
C2049 H2041 0.930 . S
C2049 C2047 1.419 . S
C2049 C2050 1.362 . S
C2050 H2042 0.930 . S
C2050 C2049 1.362 . S
C2050 C2053 1.409 . S
C2051 H2043 0.930 . S
C2051 C2052 1.355 . S
C2051 C2053 1.415 . S
C2052 C2051 1.355 . S
C2052 C2054 1.419 . S
C2053 C2048 1.425 . S
C2053 C2050 1.409 . S
C2053 C2051 1.415 . S
C2054 H2044 0.930 . S
C2054 C2052 1.419 . S
C2054 C2055 1.362 . S
C2055 H2045 0.930 . S
C2055 C2048 1.409 . S
C2055 C2054 1.362 . S
H2056 C2062 0.930 . S
H2057 C2065 0.930 . S
H2058 C2066 0.930 . S
H2059 C2067 0.930 . S
H2060 C2070 0.930 . S
H2061 C2071 0.930 . S
C2062 H2056 0.930 . S
C2062 C2063 1.355 . S
C2062 C2064 1.415 . S
C2063 C2062 1.355 . S
C2063 C2065 1.419 . S
C2064 C2062 1.415 . S
C2064 C2069 1.425 . S
C2064 C2071 1.409 . S
C2065 H2057 0.930 . S
C2065 C2063 1.419 . S
C2065 C2066 1.362 . S
C2066 H2058 0.930 . S
C2066 C2065 1.362 . S
C2066 C2069 1.409 . S
C2067 H2059 0.930 . S
C2067 C2068 1.355 . S
C2067 C2069 1.415 . S
C2068 C2067 1.355 . S
C2068 C2070 1.419 . S
C2069 C2064 1.425 . S
C2069 C2066 1.409 . S
C2069 C2067 1.415 . S
C2070 H2060 0.930 . S
C2070 C2068 1.419 . S
C2070 C2071 1.362 . S
C2071 H2061 0.930 . S
C2071 C2064 1.409 . S
C2071 C2070 1.362 . S
H2072 C2078 0.930 . S
H2073 C2081 0.930 . S
H2074 C2082 0.930 . S
H2075 C2083 0.930 . S
H2076 C2086 0.930 . S
H2077 C2087 0.930 . S
C2078 H2072 0.930 . S
C2078 C2079 1.355 . S
C2078 C2080 1.415 . S
C2079 C2078 1.355 . S
C2079 C2081 1.419 . S
C2080 C2078 1.415 . S
C2080 C2085 1.425 . S
C2080 C2087 1.409 . S
C2081 H2073 0.930 . S
C2081 C2079 1.419 . S
C2081 C2082 1.362 . S
C2082 H2074 0.930 . S
C2082 C2081 1.362 . S
C2082 C2085 1.409 . S
C2083 H2075 0.930 . S
C2083 C2084 1.355 . S
C2083 C2085 1.415 . S
C2084 C2083 1.355 . S
C2084 C2086 1.419 . S
C2085 C2080 1.425 . S
C2085 C2082 1.409 . S
C2085 C2083 1.415 . S
C2086 H2076 0.930 . S
C2086 C2084 1.419 . S
C2086 C2087 1.362 . S
C2087 H2077 0.930 . S
C2087 C2080 1.409 . S
C2087 C2086 1.362 . S
H2088 C2094 0.930 . S
H2089 C2097 0.930 . S
H2090 C2098 0.930 . S
H2091 C2099 0.930 . S
H2092 C2102 0.930 . S
H2093 C2103 0.930 . S
C2094 H2088 0.930 . S
C2094 C2095 1.355 . S
C2094 C2096 1.415 . S
C2095 C2094 1.355 . S
C2095 C2097 1.419 . S
C2096 C2094 1.415 . S
C2096 C2101 1.425 . S
C2096 C2103 1.409 . S
C2097 H2089 0.930 . S
C2097 C2095 1.419 . S
C2097 C2098 1.362 . S
C2098 H2090 0.930 . S
C2098 C2097 1.362 . S
C2098 C2101 1.409 . S
C2099 H2091 0.930 . S
C2099 C2100 1.355 . S
C2099 C2101 1.415 . S
C2100 C2099 1.355 . S
C2100 C2102 1.419 . S
C2101 C2096 1.425 . S
C2101 C2098 1.409 . S
C2101 C2099 1.415 . S
C2102 H2092 0.930 . S
C2102 C2100 1.419 . S
C2102 C2103 1.362 . S
C2103 H2093 0.930 . S
C2103 C2096 1.409 . S
C2103 C2102 1.362 . S
H2104 C2110 0.930 . S
H2105 C2113 0.930 . S
H2106 C2114 0.930 . S
H2107 C2115 0.930 . S
H2108 C2118 0.930 . S
H2109 C2119 0.930 . S
C2110 H2104 0.930 . S
C2110 C2111 1.355 . S
C2110 C2112 1.415 . S
C2111 C2110 1.355 . S
C2111 C2113 1.419 . S
C2112 C2110 1.415 . S
C2112 C2117 1.425 . S
C2112 C2119 1.409 . S
C2113 H2105 0.930 . S
C2113 C2111 1.419 . S
C2113 C2114 1.362 . S
C2114 H2106 0.930 . S
C2114 C2113 1.362 . S
C2114 C2117 1.409 . S
C2115 H2107 0.930 . S
C2115 C2116 1.355 . S
C2115 C2117 1.415 . S
C2116 C2115 1.355 . S
C2116 C2118 1.419 . S
C2117 C2112 1.425 . S
C2117 C2114 1.409 . S
C2117 C2115 1.415 . S
C2118 H2108 0.930 . S
C2118 C2116 1.419 . S
C2118 C2119 1.362 . S
C2119 H2109 0.930 . S
C2119 C2112 1.409 . S
C2119 C2118 1.362 . S
H2120 C2126 0.930 . S
H2121 C2129 0.930 . S
H2122 C2130 0.930 . S
H2123 C2131 0.930 . S
H2124 C2134 0.930 . S
H2125 C2135 0.930 . S
C2126 H2120 0.930 . S
C2126 C2127 1.355 . S
C2126 C2128 1.415 . S
C2127 C2126 1.355 . S
C2127 C2129 1.419 . S
C2128 C2126 1.415 . S
C2128 C2133 1.425 . S
C2128 C2135 1.409 . S
C2129 H2121 0.930 . S
C2129 C2127 1.419 . S
C2129 C2130 1.362 . S
C2130 H2122 0.930 . S
C2130 C2129 1.362 . S
C2130 C2133 1.409 . S
C2131 H2123 0.930 . S
C2131 C2132 1.355 . S
C2131 C2133 1.415 . S
C2132 C2131 1.355 . S
C2132 C2134 1.419 . S
C2133 C2128 1.425 . S
C2133 C2130 1.409 . S
C2133 C2131 1.415 . S
C2134 H2124 0.930 . S
C2134 C2132 1.419 . S
C2134 C2135 1.362 . S
C2135 H2125 0.930 . S
C2135 C2128 1.409 . S
C2135 C2134 1.362 . S
H2136 C2142 0.930 . S
H2137 C2145 0.930 . S
H2138 C2146 0.930 . S
H2139 C2147 0.930 . S
H2140 C2150 0.930 . S
H2141 C2151 0.930 . S
C2142 H2136 0.930 . S
C2142 C2143 1.355 . S
C2142 C2144 1.415 . S
C2143 C2142 1.355 . S
C2143 C2145 1.419 . S
C2144 C2142 1.415 . S
C2144 C2149 1.425 . S
C2144 C2151 1.409 . S
C2145 H2137 0.930 . S
C2145 C2143 1.419 . S
C2145 C2146 1.362 . S
C2146 H2138 0.930 . S
C2146 C2145 1.362 . S
C2146 C2149 1.409 . S
C2147 H2139 0.930 . S
C2147 C2148 1.355 . S
C2147 C2149 1.415 . S
C2148 C2147 1.355 . S
C2148 C2150 1.419 . S
C2149 C2144 1.425 . S
C2149 C2146 1.409 . S
C2149 C2147 1.415 . S
C2150 H2140 0.930 . S
C2150 C2148 1.419 . S
C2150 C2151 1.362 . S
C2151 H2141 0.930 . S
C2151 C2144 1.409 . S
C2151 C2150 1.362 . S
H2152 C2158 0.930 . S
H2153 C2161 0.930 . S
H2154 C2162 0.930 . S
H2155 C2163 0.930 . S
H2156 C2166 0.930 . S
H2157 C2167 0.930 . S
C2158 H2152 0.930 . S
C2158 C2159 1.355 . S
C2158 C2160 1.415 . S
C2159 C2158 1.355 . S
C2159 C2161 1.419 . S
C2160 C2158 1.415 . S
C2160 C2165 1.425 . S
C2160 C2167 1.409 . S
C2161 H2153 0.930 . S
C2161 C2159 1.419 . S
C2161 C2162 1.362 . S
C2162 H2154 0.930 . S
C2162 C2161 1.362 . S
C2162 C2165 1.409 . S
C2163 H2155 0.930 . S
C2163 C2164 1.355 . S
C2163 C2165 1.415 . S
C2164 C2163 1.355 . S
C2164 C2166 1.419 . S
C2165 C2160 1.425 . S
C2165 C2162 1.409 . S
C2165 C2163 1.415 . S
C2166 H2156 0.930 . S
C2166 C2164 1.419 . S
C2166 C2167 1.362 . S
C2167 H2157 0.930 . S
C2167 C2160 1.409 . S
C2167 C2166 1.362 . S
H2168 C2174 0.930 . S
H2169 C2177 0.930 . S
H2170 C2178 0.930 . S
H2171 C2179 0.930 . S
H2172 C2182 0.930 . S
H2173 C2183 0.930 . S
C2174 H2168 0.930 . S
C2174 C2175 1.355 . S
C2174 C2176 1.415 . S
C2175 C2174 1.355 . S
C2175 C2177 1.419 . S
C2176 C2174 1.415 . S
C2176 C2181 1.425 . S
C2176 C2183 1.409 . S
C2177 H2169 0.930 . S
C2177 C2175 1.419 . S
C2177 C2178 1.362 . S
C2178 H2170 0.930 . S
C2178 C2177 1.362 . S
C2178 C2181 1.409 . S
C2179 H2171 0.930 . S
C2179 C2180 1.355 . S
C2179 C2181 1.415 . S
C2180 C2179 1.355 . S
C2180 C2182 1.419 . S
C2181 C2176 1.425 . S
C2181 C2178 1.409 . S
C2181 C2179 1.415 . S
C2182 H2172 0.930 . S
C2182 C2180 1.419 . S
C2182 C2183 1.362 . S
C2183 H2173 0.930 . S
C2183 C2176 1.409 . S
C2183 C2182 1.362 . S
H2184 C2190 0.930 . S
H2185 C2193 0.930 . S
H2186 C2194 0.930 . S
H2187 C2195 0.930 . S
H2188 C2198 0.930 . S
H2189 C2199 0.930 . S
C2190 H2184 0.930 . S
C2190 C2191 1.355 . S
C2190 C2192 1.415 . S
C2191 C2190 1.355 . S
C2191 C2193 1.419 . S
C2192 C2190 1.415 . S
C2192 C2197 1.425 . S
C2192 C2199 1.409 . S
C2193 H2185 0.930 . S
C2193 C2191 1.419 . S
C2193 C2194 1.362 . S
C2194 H2186 0.930 . S
C2194 C2193 1.362 . S
C2194 C2197 1.409 . S
C2195 H2187 0.930 . S
C2195 C2196 1.355 . S
C2195 C2197 1.415 . S
C2196 C2195 1.355 . S
C2196 C2198 1.419 . S
C2197 C2192 1.425 . S
C2197 C2194 1.409 . S
C2197 C2195 1.415 . S
C2198 H2188 0.930 . S
C2198 C2196 1.419 . S
C2198 C2199 1.362 . S
C2199 H2189 0.930 . S
C2199 C2192 1.409 . S
C2199 C2198 1.362 . S
H2200 C2206 0.930 . S
H2201 C2209 0.930 . S
H2202 C2210 0.930 . S
H2203 C2211 0.930 . S
H2204 C2214 0.930 . S
H2205 C2215 0.930 . S
C2206 H2200 0.930 . S
C2206 C2207 1.355 . S
C2206 C2208 1.415 . S
C2207 C2206 1.355 . S
C2207 C2209 1.419 . S
C2208 C2206 1.415 . S
C2208 C2213 1.425 . S
C2208 C2215 1.409 . S
C2209 H2201 0.930 . S
C2209 C2207 1.419 . S
C2209 C2210 1.362 . S
C2210 H2202 0.930 . S
C2210 C2209 1.362 . S
C2210 C2213 1.409 . S
C2211 H2203 0.930 . S
C2211 C2212 1.355 . S
C2211 C2213 1.415 . S
C2212 C2211 1.355 . S
C2212 C2214 1.419 . S
C2213 C2208 1.425 . S
C2213 C2210 1.409 . S
C2213 C2211 1.415 . S
C2214 H2204 0.930 . S
C2214 C2212 1.419 . S
C2214 C2215 1.362 . S
C2215 H2205 0.930 . S
C2215 C2208 1.409 . S
C2215 C2214 1.362 . S
H2216 C2222 0.930 . S
H2217 C2225 0.930 . S
H2218 C2226 0.930 . S
H2219 C2227 0.930 . S
H2220 C2230 0.930 . S
H2221 C2231 0.930 . S
C2222 H2216 0.930 . S
C2222 C2223 1.355 . S
C2222 C2224 1.415 . S
C2223 C2222 1.355 . S
C2223 C2225 1.419 . S
C2224 C2222 1.415 . S
C2224 C2229 1.425 . S
C2224 C2231 1.409 . S
C2225 H2217 0.930 . S
C2225 C2223 1.419 . S
C2225 C2226 1.362 . S
C2226 H2218 0.930 . S
C2226 C2225 1.362 . S
C2226 C2229 1.409 . S
C2227 H2219 0.930 . S
C2227 C2228 1.355 . S
C2227 C2229 1.415 . S
C2228 C2227 1.355 . S
C2228 C2230 1.419 . S
C2229 C2224 1.425 . S
C2229 C2226 1.409 . S
C2229 C2227 1.415 . S
C2230 H2220 0.930 . S
C2230 C2228 1.419 . S
C2230 C2231 1.362 . S
C2231 H2221 0.930 . S
C2231 C2224 1.409 . S
C2231 C2230 1.362 . S
H2232 C2238 0.930 . S
H2233 C2241 0.930 . S
H2234 C2242 0.930 . S
H2235 C2243 0.930 . S
H2236 C2246 0.930 . S
H2237 C2247 0.930 . S
C2238 H2232 0.930 . S
C2238 C2239 1.355 . S
C2238 C2240 1.415 . S
C2239 C2238 1.355 . S
C2239 C2241 1.419 . S
C2240 C2238 1.415 . S
C2240 C2245 1.425 . S
C2240 C2247 1.409 . S
C2241 H2233 0.930 . S
C2241 C2239 1.419 . S
C2241 C2242 1.362 . S
C2242 H2234 0.930 . S
C2242 C2241 1.362 . S
C2242 C2245 1.409 . S
C2243 H2235 0.930 . S
C2243 C2244 1.355 . S
C2243 C2245 1.415 . S
C2244 C2243 1.355 . S
C2244 C2246 1.419 . S
C2245 C2240 1.425 . S
C2245 C2242 1.409 . S
C2245 C2243 1.415 . S
C2246 H2236 0.930 . S
C2246 C2244 1.419 . S
C2246 C2247 1.362 . S
C2247 H2237 0.930 . S
C2247 C2240 1.409 . S
C2247 C2246 1.362 . S
H2248 C2254 0.930 . S
H2249 C2257 0.930 . S
H2250 C2258 0.930 . S
H2251 C2259 0.930 . S
H2252 C2262 0.930 . S
H2253 C2263 0.930 . S
C2254 H2248 0.930 . S
C2254 C2255 1.355 . S
C2254 C2256 1.415 . S
C2255 C2254 1.355 . S
C2255 C2257 1.419 . S
C2256 C2254 1.415 . S
C2256 C2261 1.425 . S
C2256 C2263 1.409 . S
C2257 H2249 0.930 . S
C2257 C2255 1.419 . S
C2257 C2258 1.362 . S
C2258 H2250 0.930 . S
C2258 C2257 1.362 . S
C2258 C2261 1.409 . S
C2259 H2251 0.930 . S
C2259 C2260 1.355 . S
C2259 C2261 1.415 . S
C2260 C2259 1.355 . S
C2260 C2262 1.419 . S
C2261 C2256 1.425 . S
C2261 C2258 1.409 . S
C2261 C2259 1.415 . S
C2262 H2252 0.930 . S
C2262 C2260 1.419 . S
C2262 C2263 1.362 . S
C2263 H2253 0.930 . S
C2263 C2256 1.409 . S
C2263 C2262 1.362 . S
H2264 C2270 0.930 . S
H2265 C2273 0.930 . S
H2266 C2274 0.930 . S
H2267 C2275 0.930 . S
H2268 C2278 0.930 . S
H2269 C2279 0.930 . S
C2270 H2264 0.930 . S
C2270 C2271 1.355 . S
C2270 C2272 1.415 . S
C2271 C2270 1.355 . S
C2271 C2273 1.419 . S
C2272 C2270 1.415 . S
C2272 C2277 1.425 . S
C2272 C2279 1.409 . S
C2273 H2265 0.930 . S
C2273 C2271 1.419 . S
C2273 C2274 1.362 . S
C2274 H2266 0.930 . S
C2274 C2273 1.362 . S
C2274 C2277 1.409 . S
C2275 H2267 0.930 . S
C2275 C2276 1.355 . S
C2275 C2277 1.415 . S
C2276 C2275 1.355 . S
C2276 C2278 1.419 . S
C2277 C2272 1.425 . S
C2277 C2274 1.409 . S
C2277 C2275 1.415 . S
C2278 H2268 0.930 . S
C2278 C2276 1.419 . S
C2278 C2279 1.362 . S
C2279 H2269 0.930 . S
C2279 C2272 1.409 . S
C2279 C2278 1.362 . S
H2280 C2286 0.930 . S
H2281 C2289 0.930 . S
H2282 C2290 0.930 . S
H2283 C2291 0.930 . S
H2284 C2294 0.930 . S
H2285 C2295 0.930 . S
C2286 H2280 0.930 . S
C2286 C2287 1.355 . S
C2286 C2288 1.415 . S
C2287 C2286 1.355 . S
C2287 C2289 1.419 . S
C2288 C2286 1.415 . S
C2288 C2293 1.425 . S
C2288 C2295 1.409 . S
C2289 H2281 0.930 . S
C2289 C2287 1.419 . S
C2289 C2290 1.362 . S
C2290 H2282 0.930 . S
C2290 C2289 1.362 . S
C2290 C2293 1.409 . S
C2291 H2283 0.930 . S
C2291 C2292 1.355 . S
C2291 C2293 1.415 . S
C2292 C2291 1.355 . S
C2292 C2294 1.419 . S
C2293 C2288 1.425 . S
C2293 C2290 1.409 . S
C2293 C2291 1.415 . S
C2294 H2284 0.930 . S
C2294 C2292 1.419 . S
C2294 C2295 1.362 . S
C2295 H2285 0.930 . S
C2295 C2288 1.409 . S
C2295 C2294 1.362 . S
H2296 C2302 0.930 . S
H2297 C2305 0.930 . S
H2298 C2306 0.930 . S
H2299 C2307 0.930 . S
H2300 C2310 0.930 . S
H2301 C2311 0.930 . S
C2302 H2296 0.930 . S
C2302 C2303 1.355 . S
C2302 C2304 1.415 . S
C2303 C2302 1.355 . S
C2303 C2305 1.419 . S
C2304 C2302 1.415 . S
C2304 C2309 1.425 . S
C2304 C2311 1.409 . S
C2305 H2297 0.930 . S
C2305 C2303 1.419 . S
C2305 C2306 1.362 . S
C2306 H2298 0.930 . S
C2306 C2305 1.362 . S
C2306 C2309 1.409 . S
C2307 H2299 0.930 . S
C2307 C2308 1.355 . S
C2307 C2309 1.415 . S
C2308 C2307 1.355 . S
C2308 C2310 1.419 . S
C2309 C2304 1.425 . S
C2309 C2306 1.409 . S
C2309 C2307 1.415 . S
C2310 H2300 0.930 . S
C2310 C2308 1.419 . S
C2310 C2311 1.362 . S
C2311 H2301 0.930 . S
C2311 C2304 1.409 . S
C2311 C2310 1.362 . S
H2312 C2318 0.930 . S
H2313 C2321 0.930 . S
H2314 C2322 0.930 . S
H2315 C2323 0.930 . S
H2316 C2326 0.930 . S
H2317 C2327 0.930 . S
C2318 H2312 0.930 . S
C2318 C2319 1.355 . S
C2318 C2320 1.415 . S
C2319 C2318 1.355 . S
C2319 C2321 1.419 . S
C2320 C2318 1.415 . S
C2320 C2325 1.425 . S
C2320 C2327 1.409 . S
C2321 H2313 0.930 . S
C2321 C2319 1.419 . S
C2321 C2322 1.362 . S
C2322 H2314 0.930 . S
C2322 C2321 1.362 . S
C2322 C2325 1.409 . S
C2323 H2315 0.930 . S
C2323 C2324 1.355 . S
C2323 C2325 1.415 . S
C2324 C2323 1.355 . S
C2324 C2326 1.419 . S
C2325 C2320 1.425 . S
C2325 C2322 1.409 . S
C2325 C2323 1.415 . S
C2326 H2316 0.930 . S
C2326 C2324 1.419 . S
C2326 C2327 1.362 . S
C2327 H2317 0.930 . S
C2327 C2320 1.409 . S
C2327 C2326 1.362 . S
H2328 C2334 0.930 . S
H2329 C2337 0.930 . S
H2330 C2338 0.930 . S
H2331 C2339 0.930 . S
H2332 C2342 0.930 . S
H2333 C2343 0.930 . S
C2334 H2328 0.930 . S
C2334 C2335 1.355 . S
C2334 C2336 1.415 . S
C2335 C2334 1.355 . S
C2335 C2337 1.419 . S
C2336 C2334 1.415 . S
C2336 C2341 1.425 . S
C2336 C2343 1.409 . S
C2337 H2329 0.930 . S
C2337 C2335 1.419 . S
C2337 C2338 1.362 . S
C2338 H2330 0.930 . S
C2338 C2337 1.362 . S
C2338 C2341 1.409 . S
C2339 H2331 0.930 . S
C2339 C2340 1.355 . S
C2339 C2341 1.415 . S
C2340 C2339 1.355 . S
C2340 C2342 1.419 . S
C2341 C2336 1.425 . S
C2341 C2338 1.409 . S
C2341 C2339 1.415 . S
C2342 H2332 0.930 . S
C2342 C2340 1.419 . S
C2342 C2343 1.362 . S
C2343 H2333 0.930 . S
C2343 C2336 1.409 . S
C2343 C2342 1.362 . S
H2344 C2350 0.930 . S
H2345 C2353 0.930 . S
H2346 C2354 0.930 . S
H2347 C2355 0.930 . S
H2348 C2358 0.930 . S
H2349 C2359 0.930 . S
C2350 H2344 0.930 . S
C2350 C2351 1.355 . S
C2350 C2352 1.415 . S
C2351 C2350 1.355 . S
C2351 C2353 1.419 . S
C2352 C2350 1.415 . S
C2352 C2357 1.425 . S
C2352 C2359 1.409 . S
C2353 H2345 0.930 . S
C2353 C2351 1.419 . S
C2353 C2354 1.362 . S
C2354 H2346 0.930 . S
C2354 C2353 1.362 . S
C2354 C2357 1.409 . S
C2355 H2347 0.930 . S
C2355 C2356 1.355 . S
C2355 C2357 1.415 . S
C2356 C2355 1.355 . S
C2356 C2358 1.419 . S
C2357 C2352 1.425 . S
C2357 C2354 1.409 . S
C2357 C2355 1.415 . S
C2358 H2348 0.930 . S
C2358 C2356 1.419 . S
C2358 C2359 1.362 . S
C2359 H2349 0.930 . S
C2359 C2352 1.409 . S
C2359 C2358 1.362 . S
H2360 C2366 0.930 . S
H2361 C2369 0.930 . S
H2362 C2370 0.930 . S
H2363 C2371 0.930 . S
H2364 C2374 0.930 . S
H2365 C2375 0.930 . S
C2366 H2360 0.930 . S
C2366 C2367 1.355 . S
C2366 C2368 1.415 . S
C2367 C2366 1.355 . S
C2367 C2369 1.419 . S
C2368 C2366 1.415 . S
C2368 C2373 1.425 . S
C2368 C2375 1.409 . S
C2369 H2361 0.930 . S
C2369 C2367 1.419 . S
C2369 C2370 1.362 . S
C2370 H2362 0.930 . S
C2370 C2369 1.362 . S
C2370 C2373 1.409 . S
C2371 H2363 0.930 . S
C2371 C2372 1.355 . S
C2371 C2373 1.415 . S
C2372 C2371 1.355 . S
C2372 C2374 1.419 . S
C2373 C2368 1.425 . S
C2373 C2370 1.409 . S
C2373 C2371 1.415 . S
C2374 H2364 0.930 . S
C2374 C2372 1.419 . S
C2374 C2375 1.362 . S
C2375 H2365 0.930 . S
C2375 C2368 1.409 . S
C2375 C2374 1.362 . S
H2376 C2382 0.930 . S
H2377 C2385 0.930 . S
H2378 C2386 0.930 . S
H2379 C2387 0.930 . S
H2380 C2390 0.930 . S
H2381 C2391 0.930 . S
C2382 H2376 0.930 . S
C2382 C2383 1.355 . S
C2382 C2384 1.415 . S
C2383 C2382 1.355 . S
C2383 C2385 1.419 . S
C2384 C2382 1.415 . S
C2384 C2389 1.425 . S
C2384 C2391 1.409 . S
C2385 H2377 0.930 . S
C2385 C2383 1.419 . S
C2385 C2386 1.362 . S
C2386 H2378 0.930 . S
C2386 C2385 1.362 . S
C2386 C2389 1.409 . S
C2387 H2379 0.930 . S
C2387 C2388 1.355 . S
C2387 C2389 1.415 . S
C2388 C2387 1.355 . S
C2388 C2390 1.419 . S
C2389 C2384 1.425 . S
C2389 C2386 1.409 . S
C2389 C2387 1.415 . S
C2390 H2380 0.930 . S
C2390 C2388 1.419 . S
C2390 C2391 1.362 . S
C2391 H2381 0.930 . S
C2391 C2384 1.409 . S
C2391 C2390 1.362 . S
H2392 C2398 0.930 . S
H2393 C2401 0.930 . S
H2394 C2402 0.930 . S
H2395 C2403 0.930 . S
H2396 C2406 0.930 . S
H2397 C2407 0.930 . S
C2398 H2392 0.930 . S
C2398 C2399 1.355 . S
C2398 C2400 1.415 . S
C2399 C2398 1.355 . S
C2399 C2401 1.419 . S
C2400 C2398 1.415 . S
C2400 C2405 1.425 . S
C2400 C2407 1.409 . S
C2401 H2393 0.930 . S
C2401 C2399 1.419 . S
C2401 C2402 1.362 . S
C2402 H2394 0.930 . S
C2402 C2401 1.362 . S
C2402 C2405 1.409 . S
C2403 H2395 0.930 . S
C2403 C2404 1.355 . S
C2403 C2405 1.415 . S
C2404 C2403 1.355 . S
C2404 C2406 1.419 . S
C2405 C2400 1.425 . S
C2405 C2402 1.409 . S
C2405 C2403 1.415 . S
C2406 H2396 0.930 . S
C2406 C2404 1.419 . S
C2406 C2407 1.362 . S
C2407 H2397 0.930 . S
C2407 C2400 1.409 . S
C2407 C2406 1.362 . S
H2408 C2414 0.930 . S
H2409 C2417 0.930 . S
H2410 C2418 0.930 . S
H2411 C2419 0.930 . S
H2412 C2422 0.930 . S
H2413 C2423 0.930 . S
C2414 H2408 0.930 . S
C2414 C2415 1.355 . S
C2414 C2416 1.415 . S
C2415 C2414 1.355 . S
C2415 C2417 1.419 . S
C2416 C2414 1.415 . S
C2416 C2421 1.425 . S
C2416 C2423 1.409 . S
C2417 H2409 0.930 . S
C2417 C2415 1.419 . S
C2417 C2418 1.362 . S
C2418 H2410 0.930 . S
C2418 C2417 1.362 . S
C2418 C2421 1.409 . S
C2419 H2411 0.930 . S
C2419 C2420 1.355 . S
C2419 C2421 1.415 . S
C2420 C2419 1.355 . S
C2420 C2422 1.419 . S
C2421 C2416 1.425 . S
C2421 C2418 1.409 . S
C2421 C2419 1.415 . S
C2422 H2412 0.930 . S
C2422 C2420 1.419 . S
C2422 C2423 1.362 . S
C2423 H2413 0.930 . S
C2423 C2416 1.409 . S
C2423 C2422 1.362 . S
H2424 C2430 0.930 . S
H2425 C2433 0.930 . S
H2426 C2434 0.930 . S
H2427 C2435 0.930 . S
H2428 C2438 0.930 . S
H2429 C2439 0.930 . S
C2430 H2424 0.930 . S
C2430 C2431 1.355 . S
C2430 C2432 1.415 . S
C2431 C2430 1.355 . S
C2431 C2433 1.419 . S
C2432 C2430 1.415 . S
C2432 C2437 1.425 . S
C2432 C2439 1.409 . S
C2433 H2425 0.930 . S
C2433 C2431 1.419 . S
C2433 C2434 1.362 . S
C2434 H2426 0.930 . S
C2434 C2433 1.362 . S
C2434 C2437 1.409 . S
C2435 H2427 0.930 . S
C2435 C2436 1.355 . S
C2435 C2437 1.415 . S
C2436 C2435 1.355 . S
C2436 C2438 1.419 . S
C2437 C2432 1.425 . S
C2437 C2434 1.409 . S
C2437 C2435 1.415 . S
C2438 H2428 0.930 . S
C2438 C2436 1.419 . S
C2438 C2439 1.362 . S
C2439 H2429 0.930 . S
C2439 C2432 1.409 . S
C2439 C2438 1.362 . S
H2440 C2446 0.930 . S
H2441 C2449 0.930 . S
H2442 C2450 0.930 . S
H2443 C2451 0.930 . S
H2444 C2454 0.930 . S
H2445 C2455 0.930 . S
C2446 H2440 0.930 . S
C2446 C2447 1.355 . S
C2446 C2448 1.415 . S
C2447 C2446 1.355 . S
C2447 C2449 1.419 . S
C2448 C2446 1.415 . S
C2448 C2453 1.425 . S
C2448 C2455 1.409 . S
C2449 H2441 0.930 . S
C2449 C2447 1.419 . S
C2449 C2450 1.362 . S
C2450 H2442 0.930 . S
C2450 C2449 1.362 . S
C2450 C2453 1.409 . S
C2451 H2443 0.930 . S
C2451 C2452 1.355 . S
C2451 C2453 1.415 . S
C2452 C2451 1.355 . S
C2452 C2454 1.419 . S
C2453 C2448 1.425 . S
C2453 C2450 1.409 . S
C2453 C2451 1.415 . S
C2454 H2444 0.930 . S
C2454 C2452 1.419 . S
C2454 C2455 1.362 . S
C2455 H2445 0.930 . S
C2455 C2448 1.409 . S
C2455 C2454 1.362 . S
H2456 C2462 0.930 . S
H2457 C2465 0.930 . S
H2458 C2466 0.930 . S
H2459 C2467 0.930 . S
H2460 C2470 0.930 . S
H2461 C2471 0.930 . S
C2462 H2456 0.930 . S
C2462 C2463 1.355 . S
C2462 C2464 1.415 . S
C2463 C2462 1.355 . S
C2463 C2465 1.419 . S
C2464 C2462 1.415 . S
C2464 C2469 1.425 . S
C2464 C2471 1.409 . S
C2465 H2457 0.930 . S
C2465 C2463 1.419 . S
C2465 C2466 1.362 . S
C2466 H2458 0.930 . S
C2466 C2465 1.362 . S
C2466 C2469 1.409 . S
C2467 H2459 0.930 . S
C2467 C2468 1.355 . S
C2467 C2469 1.415 . S
C2468 C2467 1.355 . S
C2468 C2470 1.419 . S
C2469 C2464 1.425 . S
C2469 C2466 1.409 . S
C2469 C2467 1.415 . S
C2470 H2460 0.930 . S
C2470 C2468 1.419 . S
C2470 C2471 1.362 . S
C2471 H2461 0.930 . S
C2471 C2464 1.409 . S
C2471 C2470 1.362 . S
H2472 C2478 0.930 . S
H2473 C2481 0.930 . S
H2474 C2482 0.930 . S
H2475 C2483 0.930 . S
H2476 C2486 0.930 . S
H2477 C2487 0.930 . S
C2478 H2472 0.930 . S
C2478 C2479 1.355 . S
C2478 C2480 1.415 . S
C2479 C2478 1.355 . S
C2479 C2481 1.419 . S
C2480 C2478 1.415 . S
C2480 C2485 1.425 . S
C2480 C2487 1.409 . S
C2481 H2473 0.930 . S
C2481 C2479 1.419 . S
C2481 C2482 1.362 . S
C2482 H2474 0.930 . S
C2482 C2481 1.362 . S
C2482 C2485 1.409 . S
C2483 H2475 0.930 . S
C2483 C2484 1.355 . S
C2483 C2485 1.415 . S
C2484 C2483 1.355 . S
C2484 C2486 1.419 . S
C2485 C2480 1.425 . S
C2485 C2482 1.409 . S
C2485 C2483 1.415 . S
C2486 H2476 0.930 . S
C2486 C2484 1.419 . S
C2486 C2487 1.362 . S
C2487 H2477 0.930 . S
C2487 C2480 1.409 . S
C2487 C2486 1.362 . S
H2488 C2494 0.930 . S
H2489 C2497 0.930 . S
H2490 C2498 0.930 . S
H2491 C2499 0.930 . S
H2492 C2502 0.930 . S
H2493 C2503 0.930 . S
C2494 H2488 0.930 . S
C2494 C2495 1.355 . S
C2494 C2496 1.415 . S
C2495 C2494 1.355 . S
C2495 C2497 1.419 . S
C2496 C2494 1.415 . S
C2496 C2501 1.425 . S
C2496 C2503 1.409 . S
C2497 H2489 0.930 . S
C2497 C2495 1.419 . S
C2497 C2498 1.362 . S
C2498 H2490 0.930 . S
C2498 C2497 1.362 . S
C2498 C2501 1.409 . S
C2499 H2491 0.930 . S
C2499 C2500 1.355 . S
C2499 C2501 1.415 . S
C2500 C2499 1.355 . S
C2500 C2502 1.419 . S
C2501 C2496 1.425 . S
C2501 C2498 1.409 . S
C2501 C2499 1.415 . S
C2502 H2492 0.930 . S
C2502 C2500 1.419 . S
C2502 C2503 1.362 . S
C2503 H2493 0.930 . S
C2503 C2496 1.409 . S
C2503 C2502 1.362 . S
C980 N428 1.634 . S
C975 N5 1.695 . S
C996 C455 1.634 . S
C991 N15 1.654 . S
C1007 N31 1.692 . S
C1012 C469 1.698 . S
C1028 N487 1.513 . S
C1023 N40 1.546 . S
C1039 N53 1.522 . S
C1044 C492 1.452 . S
C1055 N70 1.590 . S
C1060 C432 1.612 . S
C1071 N80 1.493 . S
C1076 N451 1.482 . S
C1092 N464 1.691 . S
C1087 N92 1.700 . S
C1108 N510 1.581 . S
C1103 N2 1.696 . S
C1119 N14 1.463 . S
C1124 N533 1.416 . S
C1135 N27 1.706 . S
C1140 N556 1.699 . S
C1156 N589 1.639 . S
C1151 N44 1.680 . S
C1167 N54 1.382 . S
C1172 C616 1.404 . S
C1188 C639 1.429 . S
C1183 N67 1.419 . S
C1199 N83 1.315 . S
C1204 C662 1.316 1_655 S
C1220 C676 1.547 1_565 S
C1215 N93 1.566 . S
C1231 N1 1.618 . S
C1236 C593 1.544 . S
C1247 N57 1.453 . S
C1252 N635 1.458 . S
C1268 N658 1.734 . S
C1263 N66 1.754 . S
C1279 N79 1.815 . S
C1284 N671 1.785 . S
C1300 N612 1.705 . S
C1295 N96 1.755 . S
C1316 C538 1.608 . S
C1311 N28 1.608 . S
C1327 N41 1.442 . S
C1332 C561 1.428 . S
C1348 C515 1.559 . S
C1343 N18 1.578 . S
C1364 C708 1.715 . S
C1359 N109 1.715 . S
C1375 N119 1.527 . S
C1380 C722 1.482 . S
C1391 N135 1.585 . S
C1396 N750 1.540 . S
C1412 N763 1.424 . S
C1407 N144 1.513 . S
C1423 N157 1.553 . S
C1428 C768 1.510 . S
C1439 N174 1.619 . S
C1444 N704 1.544 . S
C1455 N184 1.576 . S
C1460 N717 1.452 . S
C1471 N196 1.712 . S
C1476 C754 1.712 . S
C1492 N602 1.625 . S
C1487 N106 1.700 . S
C1503 N118 1.463 . S
C1508 N786 1.431 . S
C1524 N648 1.621 . S
C1519 N131 1.625 . S
C1535 N148 1.770 . S
C1540 C823 1.751 . S
C1551 N158 1.545 . S
C1556 C524 1.552 . S
C1572 C837 1.494 . S
C1567 N171 1.491 . S
C1583 N187 1.395 . S
C1588 C570 1.414 . S
C1604 N855 1.541 . S
C1599 N197 1.638 . S
C1615 N105 1.628 . S
C1620 N819 1.590 . S
C1636 N832 1.377 . S
C1631 N161 1.492 . S
C1647 N170 1.778 . S
C1652 N566 1.744 . S
C1668 C860 1.696 . S
C1663 N183 1.738 . S
C1679 N200 1.755 . S
C1684 N520 1.730 . S
C1695 N132 1.516 . S
C1700 C791 1.504 . S
C1711 N145 1.473 . S
C1716 C653 1.471 . S
C1727 N122 1.408 . S
C1732 C607 1.355 . S
C1743 N213 1.745 . S
C1748 C745 1.733 . S
C1764 C777 1.541 . S
C1759 N223 1.561 . S
C1775 N239 1.609 . S
C1780 N694 1.599 . S
C1791 N248 1.536 . S
C1796 N727 1.535 . S
C1807 N261 1.572 . S
C1812 C731 1.536 . S
C1823 N278 1.638 . S
C1828 N740 1.632 . S
C1844 N773 1.452 . S
C1839 N288 1.484 . S
C1855 N300 1.757 . S
C1860 C699 1.744 . S
C1876 N888 1.737 . S
C1871 N210 1.750 . S
C1887 N222 1.464 . S
C1892 N625 1.375 . S
C1908 N911 1.545 . S
C1903 N235 1.627 . S
C1919 N252 1.749 . S
C1924 N681 1.697 . S
C1935 N262 1.482 . S
C1940 C929 1.475 . S
C1951 N275 1.509 . S
C1956 C547 1.505 . S
C1972 N947 1.251 . S
C1967 N291 1.312 . S
C1983 N301 1.594 . S
C1988 C584 1.584 . S
C2004 C685 1.647 . S
C1999 N209 1.654 . S
C2020 N543 1.396 . S
C2015 N265 1.459 . S
C2031 N274 1.825 . S
C2036 C952 1.852 . S
C2047 N287 1.731 . S
C2052 N579 1.694 . S
C2068 N924 1.714 . S
C2063 N304 1.789 . S
C2084 C630 1.514 . S
C2079 N236 1.524 . S
C2100 C915 1.435 . S
C2095 N249 1.460 . S
C2116 C892 1.452 . S
C2111 N226 1.482 . S
C2127 N317 1.639 . S
C2132 N474 1.566 . S
C2143 N327 1.532 . S
C2148 C501 1.529 . S
C2164 C423 1.684 . S
C2159 N343 1.649 . S
C2180 N441 1.377 . S
C2175 N352 1.490 . S
C2196 C446 1.556 . S
C2191 N365 1.647 . S
C2212 C478 1.614 . S
C2207 N382 1.599 . S
C2228 N497 1.565 . S
C2223 N392 1.580 . S
C2239 N404 1.700 . S
C2244 N418 1.655 . S
C2255 N314 1.662 . S
C2260 N934 1.651 . S
C2276 N842 1.413 . S
C2271 N326 1.440 . S
C2292 C961 1.747 . S
C2287 N339 1.749 . S
C2308 C869 1.598 . S
C2303 N356 1.614 . S
C2319 N366 1.471 . S
C2324 C883 1.437 . S
C2340 C800 1.456 . S
C2335 N379 1.447 . S
C2356 C906 1.459 . S
C2351 N395 1.448 . S
C2367 N405 1.574 . S
C2372 N809 1.439 . S
C2388 N865 1.627 . S
C2383 N313 1.653 . S
C2404 N796 1.398 . S
C2399 N369 1.449 . S
C2420 N901 1.784 . S
C2415 N378 1.739 . S
C2431 N391 1.842 . S
C2436 C814 1.825 . S
C2447 N408 1.754 . S
C2452 N878 1.595 . S
C2463 N340 1.631 . S
C2468 C846 1.637 . S
C2479 N353 1.422 . S
C2484 N957 1.378 . S
C2500 C938 1.451 . S
C2495 N330 1.493 . S
