# Generated by pormake.
# Topology csq, (4,8)-cn, num edge types: 1
# Building blocks:
#     Node 0, Type 0, BuildingBlock: GIZVER_clean_linker_0, # of connection points: 4
#     Node 1, Type 0, BuildingBlock: GIZVER_clean_linker_0, # of connection points: 4
#     Node 2, Type 0, BuildingBlock: GIZVER_clean_linker_0, # of connection points: 4
#     Node 3, Type 0, BuildingBlock: GIZVER_clean_linker_0, # of connection points: 4
#     Node 4, Type 0, BuildingBlock: GIZVER_clean_linker_0, # of connection points: 4
#     Node 5, Type 0, BuildingBlock: GIZVER_clean_linker_0, # of connection points: 4
#     Node 6, Type 1, BuildingBlock: TAGTUT_clean_sbu_3, # of connection points: 8
#     Node 7, Type 1, BuildingBlock: TAGTUT_clean_sbu_3, # of connection points: 8
#     Node 8, Type 1, BuildingBlock: TAGTUT_clean_sbu_3, # of connection points: 8
#     Edge 9, Type (0, 1), BuildingBlock: TEMPAE_clean_linker_10, # of connection points: 2
#     Edge 10, Type (0, 1), BuildingBlock: TEMPAE_clean_linker_10, # of connection points: 2
#     Edge 11, Type (0, 1), BuildingBlock: TEMPAE_clean_linker_10, # of connection points: 2
#     Edge 12, Type (0, 1), BuildingBlock: TEMPAE_clean_linker_10, # of connection points: 2
#     Edge 13, Type (0, 1), BuildingBlock: TEMPAE_clean_linker_10, # of connection points: 2
#     Edge 14, Type (0, 1), BuildingBlock: TEMPAE_clean_linker_10, # of connection points: 2
#     Edge 15, Type (0, 1), BuildingBlock: TEMPAE_clean_linker_10, # of connection points: 2
#     Edge 16, Type (0, 1), BuildingBlock: TEMPAE_clean_linker_10, # of connection points: 2
#     Edge 17, Type (0, 1), BuildingBlock: TEMPAE_clean_linker_10, # of connection points: 2
#     Edge 18, Type (0, 1), BuildingBlock: TEMPAE_clean_linker_10, # of connection points: 2
#     Edge 19, Type (0, 1), BuildingBlock: TEMPAE_clean_linker_10, # of connection points: 2
#     Edge 20, Type (0, 1), BuildingBlock: TEMPAE_clean_linker_10, # of connection points: 2
#     Edge 21, Type (0, 1), BuildingBlock: TEMPAE_clean_linker_10, # of connection points: 2
#     Edge 22, Type (0, 1), BuildingBlock: TEMPAE_clean_linker_10, # of connection points: 2
#     Edge 23, Type (0, 1), BuildingBlock: TEMPAE_clean_linker_10, # of connection points: 2
#     Edge 24, Type (0, 1), BuildingBlock: TEMPAE_clean_linker_10, # of connection points: 2
#     Edge 25, Type (0, 1), BuildingBlock: TEMPAE_clean_linker_10, # of connection points: 2
#     Edge 26, Type (0, 1), BuildingBlock: TEMPAE_clean_linker_10, # of connection points: 2
#     Edge 27, Type (0, 1), BuildingBlock: TEMPAE_clean_linker_10, # of connection points: 2
#     Edge 28, Type (0, 1), BuildingBlock: TEMPAE_clean_linker_10, # of connection points: 2
#     Edge 29, Type (0, 1), BuildingBlock: TEMPAE_clean_linker_10, # of connection points: 2
#     Edge 30, Type (0, 1), BuildingBlock: TEMPAE_clean_linker_10, # of connection points: 2
#     Edge 31, Type (0, 1), BuildingBlock: TEMPAE_clean_linker_10, # of connection points: 2
#     Edge 32, Type (0, 1), BuildingBlock: TEMPAE_clean_linker_10, # of connection points: 2
# Relax obj value: 0.038
# Max RMSD: 0.114
# Mean RMSD: 0.081
data_MOF--net-csq--node1-TAGTUT_clean_sbu_3--node2-GIZVER_clean_linker_0--edge1-TEMPAE_clean_linker_10
_symmetry_space_group_name_H-M    P1
_symmetry_Int_Tables_number       1
_symmetry_cell_setting            triclinic
loop_
_symmetry_equiv_pos_as_xyz
'x, y, z'
_cell_length_a     55.761967
_cell_length_b     55.016422
_cell_length_c     18.06881
_cell_angle_alpha  93.179732
_cell_angle_beta   92.73665
_cell_angle_gamma 119.84407
loop_
_atom_site_label
_atom_site_type_symbol
_atom_site_fract_x
_atom_site_fract_y
_atom_site_fract_z
_atom_type_partial_charge
H0 H 0.22576 0.49429 0.02663 0.0
H1 H 0.22811 0.53138 0.24542 0.0
H2 H 0.15052 0.46792 0.13262 0.0
H3 H 0.26565 0.5413 0.08072 0.0
H4 H 0.26861 0.55206 0.17719 0.0
H5 H 0.27428 0.50255 0.03819 0.0
H6 H 0.32598 0.48789 0.1914 0.0
H7 H 0.28918 0.53571 0.26868 0.0
C8 C 0.21538 0.49474 0.07542 0.0
C9 C 0.18639 0.47814 0.07326 0.0
C10 C 0.23076 0.51333 0.13856 0.0
C11 C 0.21666 0.51579 0.19886 0.0
C12 C 0.18758 0.49977 0.19599 0.0
C13 C 0.173 0.48001 0.13505 0.0
C14 C 0.26149 0.53332 0.13666 0.0
C15 C 0.27823 0.51918 0.15262 0.0
C16 C 0.28291 0.50418 0.09445 0.0
C17 C 0.29987 0.49245 0.10847 0.0
C18 C 0.3117 0.49558 0.18068 0.0
C19 C 0.30844 0.51152 0.23776 0.0
C20 C 0.29127 0.52291 0.22452 0.0
H21 H 0.79553 0.27594 0.96761 0.0
H22 H 0.79727 0.26798 0.20319 0.0
H23 H 0.83154 0.34975 0.1213 0.0
H24 H 0.78272 0.23132 0.0094 0.0
H25 H 0.79601 0.23147 0.10138 0.0
H26 H 0.73545 0.23009 0.99505 0.0
H27 H 0.67708 0.17123 0.13371 0.0
H28 H 0.76398 0.20524 0.18699 0.0
C29 C 0.79979 0.28539 0.02443 0.0
C30 C 0.81299 0.31474 0.03801 0.0
C31 C 0.7936 0.26838 0.08392 0.0
C32 C 0.80092 0.28101 0.15744 0.0
C33 C 0.8144 0.31041 0.17173 0.0
C34 C 0.81964 0.32699 0.11148 0.0
C35 C 0.78234 0.2372 0.06907 0.0
C36 C 0.75303 0.22059 0.09049 0.0
C37 C 0.73098 0.21878 0.04444 0.0
C38 C 0.70329 0.20098 0.05934 0.0
C39 C 0.69818 0.18628 0.12309 0.0
C40 C 0.71983 0.18778 0.16895 0.0
C41 C 0.74729 0.20489 0.15278 0.0
H42 H 0.57051 0.82171 0.96593 0.0
H43 H 0.57177 0.81569 0.20271 0.0
H44 H 0.53554 0.86039 0.10293 0.0
H45 H 0.59894 0.80474 0.02827 0.0
H46 H 0.60184 0.80544 0.12744 0.0
H47 H 0.56139 0.76462 0.95292 0.0
H48 H 0.51686 0.68751 0.05598 0.0
H49 H 0.5682 0.76502 0.19163 0.0
C50 C 0.56516 0.82604 0.02004 0.0
C51 C 0.55173 0.84185 0.02681 0.0
C52 C 0.57183 0.816 0.08349 0.0
C53 C 0.56561 0.82243 0.15365 0.0
C54 C 0.55293 0.83879 0.16119 0.0
C55 C 0.54537 0.8477 0.09734 0.0
C56 C 0.58677 0.79959 0.07786 0.0
C57 C 0.56627 0.76847 0.07287 0.0
C58 C 0.55511 0.75363 0.00267 0.0
C59 C 0.53734 0.72443 0.99613 0.0
C60 C 0.52951 0.71028 0.06073 0.0
C61 C 0.54053 0.72464 0.13136 0.0
C62 C 0.55899 0.75386 0.13734 0.0
H63 H 0.73242 0.53643 0.984 0.0
H64 H 0.77368 0.57161 0.20296 0.0
H65 H 0.68478 0.52363 0.17269 0.0
H66 H 0.78184 0.57795 0.0091 0.0
H67 H 0.80038 0.58328 0.0976 0.0
H68 H 0.80288 0.56227 0.92316 0.0
H69 H 0.82785 0.50304 0.97551 0.0
H70 H 0.79051 0.53036 0.13878 0.0
C71 C 0.73139 0.53815 0.04368 0.0
C72 C 0.70554 0.52815 0.07294 0.0
C73 C 0.75618 0.553 0.09061 0.0
C74 C 0.75484 0.5582 0.16727 0.0
C75 C 0.72903 0.54734 0.19699 0.0
C76 C 0.70471 0.53116 0.15001 0.0
C77 C 0.78375 0.56697 0.05701 0.0
C78 C 0.79274 0.5463 0.03128 0.0
C79 C 0.80287 0.54755 0.96063 0.0
C80 C 0.81473 0.53115 0.94028 0.0
C81 C 0.81652 0.51364 0.99041 0.0
C82 C 0.80891 0.51386 0.06314 0.0
C83 C 0.79603 0.52951 0.08239 0.0
H84 H 0.26692 0.78632 0.9315 0.0
H85 H 0.29653 0.79121 0.15998 0.0
H86 H 0.3282 0.86559 0.04232 0.0
H87 H 0.26354 0.74343 0.99597 0.0
H88 H 0.26803 0.74614 0.09505 0.0
H89 H 0.22491 0.74766 0.93252 0.0
H90 H 0.15106 0.71437 0.04689 0.0
H91 H 0.22881 0.73509 0.16434 0.0
C92 C 0.27918 0.79849 0.98211 0.0
C93 C 0.29631 0.82759 0.98175 0.0
C94 C 0.27866 0.78522 0.04709 0.0
C95 C 0.29641 0.80137 0.11036 0.0
C96 C 0.3145 0.83041 0.10912 0.0
C97 C 0.31387 0.84332 0.04494 0.0
C98 C 0.261 0.75371 0.04741 0.0
C99 C 0.23064 0.74456 0.04974 0.0
C100 C 0.21505 0.7425 0.98398 0.0
C101 C 0.18636 0.73153 0.98245 0.0
C102 C 0.17335 0.72339 0.04847 0.0
C103 C 0.18814 0.72364 0.11413 0.0
C104 C 0.21709 0.73516 0.11488 0.0
H105 H 0.52329 0.29986 0.08023 0.0
H106 H 0.49344 0.27844 0.29579 0.0
H107 H 0.45901 0.31485 0.15099 0.0
H108 H 0.5503 0.2916 0.17697 0.0
H109 H 0.53998 0.28751 0.26979 0.0
H110 H 0.5237 0.25086 0.0786 0.0
H111 H 0.49373 0.16924 0.15633 0.0
H112 H 0.51746 0.24076 0.31328 0.0
C113 C 0.50877 0.29789 0.12049 0.0
C114 C 0.49013 0.30767 0.10606 0.0
C115 C 0.50994 0.28731 0.18924 0.0
C116 C 0.49195 0.28594 0.24248 0.0
C117 C 0.47404 0.29658 0.23028 0.0
C118 C 0.47248 0.30622 0.16074 0.0
C119 C 0.53224 0.28035 0.21025 0.0
C120 C 0.52109 0.24918 0.19714 0.0
C121 C 0.51788 0.23747 0.12404 0.0
C122 C 0.5078 0.20872 0.1094 0.0
C123 C 0.50051 0.1914 0.16795 0.0
C124 C 0.50404 0.20263 0.24178 0.0
C125 C 0.51438 0.23173 0.2564 0.0
C126 C 0.04496 0.49616 0.51979 0.0
C127 C 0.03431 0.46653 0.78279 0.0
C128 C 0.95207 0.45933 0.75553 0.0
Mg129 Mg 0.01701 0.52332 0.42103 0.0
Mg130 Mg 0.9977 0.56674 0.49324 0.0
O131 O 0.99611 0.53207 0.49536 0.0
Mg132 Mg 0.00488 0.51802 0.58576 0.0
O133 O 0.01447 0.50107 0.66904 0.0
Mg134 Mg 0.99536 0.46057 0.62726 0.0
Mg135 Mg 0.01203 0.50824 0.76953 0.0
C136 C 0.96387 0.54293 0.63491 0.0
O137 O 0.03533 0.56179 0.64561 0.0
O138 O 0.9894 0.52886 0.33095 0.0
O139 O 0.03241 0.55368 0.76716 0.0
O140 O 0.05186 0.57015 0.42544 0.0
O141 O 0.97424 0.55551 0.38782 0.0
O142 O 0.03999 0.5989 0.48381 0.0
O143 O 0.97401 0.4729 0.53661 0.0
O144 O 0.98275 0.4777 0.41802 0.0
C145 C 0.96923 0.46261 0.46889 0.0
C146 C 0.97386 0.53994 0.33202 0.0
O147 O 0.9708 0.52389 0.64103 0.0
O148 O 0.02056 0.4534 0.7206 0.0
O149 O 0.97426 0.56197 0.58912 0.0
O150 O 0.95861 0.44865 0.70077 0.0
O151 O 0.03435 0.48841 0.8115 0.0
O152 O 0.96916 0.4834 0.78899 0.0
O153 O 0.03838 0.51536 0.52255 0.0
O154 O 0.03197 0.47407 0.55431 0.0
C155 C 0.05754 0.59484 0.45049 0.0
C156 C 0.04104 0.57045 0.71531 0.0
C157 C 0.5037 0.04533 0.48595 0.0
C158 C 0.591 0.03355 0.44418 0.0
C159 C 0.53993 0.95344 0.53731 0.0
Mg160 Mg 0.45998 0.01811 0.61391 0.0
Mg161 Mg 0.4808 0.00368 0.77108 0.0
O162 O 0.47513 0.99681 0.66726 0.0
Mg163 Mg 0.50883 0.00827 0.61378 0.0
O164 O 0.54157 0.01983 0.55639 0.0
Mg165 Mg 0.52168 0.99745 0.46015 0.0
Mg166 Mg 0.57008 0.01459 0.59907 0.0
C167 C 0.51368 0.9712 0.74737 0.0
O168 O 0.53834 0.04241 0.70342 0.0
O169 O 0.42128 0.99387 0.68195 0.0
O170 O 0.57752 0.03994 0.70419 0.0
O171 O 0.48013 0.05624 0.70192 0.0
O172 O 0.43782 0.98546 0.78786 0.0
O173 O 0.50109 0.04789 0.79723 0.0
O174 O 0.48105 0.97573 0.51964 0.0
O175 O 0.44375 0.98084 0.52671 0.0
C176 C 0.45611 0.96883 0.49727 0.0
C177 C 0.41773 0.98341 0.74526 0.0
O178 O 0.51608 0.97674 0.67895 0.0
O179 O 0.56572 0.02192 0.41521 0.0
O180 O 0.50297 0.98121 0.79255 0.0
O181 O 0.52876 0.96129 0.48777 0.0
O182 O 0.59705 0.03283 0.51306 0.0
O183 O 0.55609 0.97027 0.59189 0.0
O184 O 0.50021 0.03891 0.55336 0.0
O185 O 0.51288 0.03348 0.44135 0.0
C186 C 0.49583 0.06447 0.76264 0.0
C187 C 0.56303 0.05019 0.73033 0.0
C188 C 0.51749 0.55818 0.73386 0.0
C189 C 0.43249 0.466 0.81191 0.0
C190 C 0.47731 0.42555 0.73119 0.0
Mg191 Mg 0.55615 0.56577 0.59747 0.0
Mg192 Mg 0.52966 0.52315 0.44366 0.0
O193 O 0.53632 0.52648 0.54718 0.0
Mg194 Mg 0.50562 0.50715 0.61338 0.0
O195 O 0.47681 0.48941 0.6842 0.0
Mg196 Mg 0.50018 0.49484 0.77761 0.0
Mg197 Mg 0.44714 0.45277 0.65604 0.0
C198 C 0.49293 0.45888 0.47808 0.0
O199 O 0.47139 0.50589 0.53714 0.0
O200 O 0.59238 0.5741 0.5228 0.0
O201 O 0.43449 0.46305 0.55044 0.0
O202 O 0.53756 0.58297 0.5105 0.0
O203 O 0.57265 0.54245 0.42255 0.0
O204 O 0.51521 0.55128 0.41329 0.0
O205 O 0.53671 0.507 0.70109 0.0
O206 O 0.57344 0.54819 0.68265 0.0
C207 C 0.56232 0.52568 0.71609 0.0
C208 C 0.59408 0.5624 0.46103 0.0
O209 O 0.49418 0.46528 0.54832 0.0
O210 O 0.45846 0.48107 0.83549 0.0
O211 O 0.50309 0.47744 0.43088 0.0
O212 O 0.49154 0.44934 0.76904 0.0
O213 O 0.42441 0.45352 0.74613 0.0
O214 O 0.45912 0.4215 0.67888 0.0
O215 O 0.51781 0.55035 0.66634 0.0
O216 O 0.51032 0.54083 0.78394 0.0
C217 C 0.52304 0.57527 0.44774 0.0
C218 C 0.44602 0.48655 0.5205 0.0
C219 C 0.14873 0.50809 0.22269 0.0
C220 C 0.17136 0.5056 0.24995 0.0
C221 C 0.13014 0.50913 0.27024 0.0
C222 C 0.13464 0.50848 0.34757 0.0
C223 C 0.15866 0.50825 0.37627 0.0
C224 C 0.17674 0.50665 0.32692 0.0
C225 C 0.10488 0.5094 0.23707 0.0
C226 C 0.16464 0.50865 0.45876 0.0
C227 C 0.08959 0.52635 0.46433 0.0
C228 C 0.06813 0.49948 0.47662 0.0
C229 C 0.11223 0.52975 0.42589 0.0
C230 C 0.11289 0.50567 0.39677 0.0
C231 C 0.09125 0.4785 0.40912 0.0
C232 C 0.06934 0.47576 0.44974 0.0
C233 C 0.13502 0.55911 0.41523 0.0
C234 C 0.09076 0.45225 0.37742 0.0
H235 H 0.14496 0.50818 0.16328 0.0
H236 H 0.19437 0.50505 0.34821 0.0
H237 H 0.08579 0.49003 0.24889 0.0
H238 H 0.10389 0.52761 0.26284 0.0
H239 H 0.10483 0.51054 0.17587 0.0
H240 H 0.18558 0.51159 0.47279 0.0
H241 H 0.16307 0.52582 0.4893 0.0
H242 H 0.14896 0.48854 0.47872 0.0
H243 H 0.08893 0.5448 0.48574 0.0
H244 H 0.05279 0.45495 0.45903 0.0
H245 H 0.13127 0.5647 0.35951 0.0
H246 H 0.15565 0.56062 0.41825 0.0
H247 H 0.13561 0.57485 0.45764 0.0
H248 H 0.08965 0.45146 0.31576 0.0
H249 H 0.07283 0.43273 0.39371 0.0
H250 H 0.11016 0.45265 0.39651 0.0
C251 C 0.69789 0.16971 0.28447 0.0
C252 C 0.71224 0.16751 0.22549 0.0
C253 C 0.68173 0.14635 0.32323 0.0
C254 C 0.67964 0.12018 0.30141 0.0
C255 C 0.69603 0.11854 0.24603 0.0
C256 C 0.71225 0.14237 0.20863 0.0
C257 C 0.66495 0.14911 0.3829 0.0
C258 C 0.69447 0.09109 0.22135 0.0
C259 C 0.64176 0.06384 0.43105 0.0
C260 C 0.61418 0.05146 0.39987 0.0
C261 C 0.66367 0.08516 0.39727 0.0
C262 C 0.6579 0.09423 0.33058 0.0
C263 C 0.63049 0.08033 0.2957 0.0
C264 C 0.60892 0.05908 0.33079 0.0
C265 C 0.69264 0.09924 0.43572 0.0
C266 C 0.62361 0.08916 0.22372 0.0
H267 H 0.69763 0.18911 0.29635 0.0
H268 H 0.72295 0.14064 0.1618 0.0
H269 H 0.64266 0.13779 0.36225 0.0
H270 H 0.66707 0.13938 0.43313 0.0
H271 H 0.67138 0.17143 0.39916 0.0
H272 H 0.71204 0.09439 0.18856 0.0
H273 H 0.69439 0.07954 0.26981 0.0
H274 H 0.67482 0.07756 0.18598 0.0
H275 H 0.64617 0.05787 0.48394 0.0
H276 H 0.58777 0.04956 0.30595 0.0
H277 H 0.69826 0.12049 0.46064 0.0
H278 H 0.70798 0.10201 0.39529 0.0
H279 H 0.69441 0.08708 0.48065 0.0
H280 H 0.6263 0.11051 0.23361 0.0
H281 H 0.60195 0.07449 0.2001 0.0
H282 H 0.63797 0.09027 0.18187 0.0
C283 C 0.5582 0.70695 0.23198 0.0
C284 C 0.53585 0.70774 0.19591 0.0
C285 C 0.55372 0.68609 0.27994 0.0
C286 C 0.52623 0.66588 0.29314 0.0
C287 C 0.50372 0.66809 0.26158 0.0
C288 C 0.50876 0.68872 0.21229 0.0
C289 C 0.57831 0.68457 0.31262 0.0
C290 C 0.47427 0.64789 0.27734 0.0
C291 C 0.51543 0.59403 0.33141 0.0
C292 C 0.51891 0.5963 0.40939 0.0
C293 C 0.51688 0.61619 0.29311 0.0
C294 C 0.52108 0.641 0.33367 0.0
C295 C 0.52249 0.64256 0.41243 0.0
C296 C 0.52192 0.62043 0.44934 0.0
C297 C 0.51568 0.61372 0.20914 0.0
C298 C 0.52606 0.66806 0.45845 0.0
H299 H 0.5791 0.72141 0.21856 0.0
H300 H 0.49146 0.68932 0.18422 0.0
H301 H 0.5782 0.6847 0.374 0.0
H302 H 0.57687 0.66455 0.2911 0.0
H303 H 0.59838 0.70237 0.29897 0.0
H304 H 0.45957 0.65455 0.25633 0.0
H305 H 0.4676 0.62662 0.25051 0.0
H306 H 0.47294 0.64617 0.33812 0.0
H307 H 0.51328 0.57559 0.29994 0.0
H308 H 0.52459 0.62239 0.50958 0.0
H309 H 0.53574 0.62999 0.19088 0.0
H310 H 0.4993 0.61753 0.18515 0.0
H311 H 0.51146 0.59272 0.18581 0.0
H312 H 0.54848 0.6826 0.47452 0.0
H313 H 0.51548 0.66194 0.51036 0.0
H314 H 0.51775 0.67959 0.42782 0.0
C315 C 0.82669 0.4823 0.10203 0.0
C316 C 0.82189 0.5046 0.12064 0.0
C317 C 0.8495 0.48169 0.13604 0.0
C318 C 0.86662 0.50284 0.19316 0.0
C319 C 0.8587 0.52211 0.22129 0.0
C320 C 0.83658 0.523 0.18411 0.0
C321 C 0.85699 0.46063 0.10411 0.0
C322 C 0.87548 0.54396 0.28533 0.0
C323 C 0.92493 0.50391 0.31056 0.0
C324 C 0.94808 0.52622 0.28336 0.0
C325 C 0.89808 0.49464 0.27883 0.0
C326 C 0.89455 0.50759 0.21723 0.0
C327 C 0.91814 0.52831 0.18513 0.0
C328 C 0.9448 0.53789 0.21979 0.0
C329 C 0.87357 0.47287 0.3153 0.0
C330 C 0.9151 0.54176 0.1174 0.0
H331 H 0.81472 0.46731 0.0547 0.0
H332 H 0.83298 0.54011 0.20012 0.0
H333 H 0.87145 0.47018 0.06048 0.0
H334 H 0.86753 0.45464 0.14689 0.0
H335 H 0.83833 0.4413 0.07785 0.0
H336 H 0.86401 0.55394 0.30845 0.0
H337 H 0.88118 0.53446 0.33062 0.0
H338 H 0.89501 0.56067 0.26581 0.0
H339 H 0.92774 0.49516 0.36046 0.0
H340 H 0.9628 0.55528 0.19948 0.0
H341 H 0.8587 0.45578 0.2734 0.0
H342 H 0.86239 0.48277 0.34057 0.0
H343 H 0.87995 0.46348 0.35956 0.0
H344 H 0.89996 0.52544 0.07421 0.0
H345 H 0.93518 0.55423 0.09306 0.0
H346 H 0.90704 0.55598 0.13301 0.0
C347 C 0.35115 0.83706 0.20747 0.0
C348 C 0.33546 0.84734 0.17212 0.0
C349 C 0.37283 0.85408 0.26223 0.0
C350 C 0.37904 0.88203 0.28125 0.0
C351 C 0.3631 0.89238 0.24625 0.0
C352 C 0.34135 0.87482 0.19281 0.0
C353 C 0.38914 0.84228 0.29942 0.0
C354 C 0.36904 0.92208 0.26511 0.0
C355 C 0.41283 0.92379 0.46524 0.0
C356 C 0.43911 0.94363 0.44591 0.0
C357 C 0.39384 0.90193 0.41365 0.0
C358 C 0.40117 0.90035 0.34045 0.0
C359 C 0.42845 0.91919 0.32216 0.0
C360 C 0.44734 0.94062 0.37576 0.0
C361 C 0.36523 0.88193 0.436 0.0
C362 C 0.43692 0.91821 0.2445 0.0
H363 H 0.34695 0.81597 0.19099 0.0
H364 H 0.32905 0.88274 0.16652 0.0
H365 H 0.41139 0.85505 0.28967 0.0
H366 H 0.38783 0.84346 0.36047 0.0
H367 H 0.38154 0.82004 0.2787 0.0
H368 H 0.35557 0.92726 0.23006 0.0
H369 H 0.36578 0.92494 0.32432 0.0
H370 H 0.39103 0.93735 0.25759 0.0
H371 H 0.40674 0.92604 0.52022 0.0
H372 H 0.46775 0.95606 0.3613 0.0
H373 H 0.35869 0.85991 0.41597 0.0
H374 H 0.35003 0.88704 0.41006 0.0
H375 H 0.3643 0.88329 0.49729 0.0
H376 H 0.43015 0.89628 0.22305 0.0
H377 H 0.45973 0.9313 0.24223 0.0
H378 H 0.42662 0.92616 0.20677 0.0
C379 C 0.4385 0.30635 0.2828 0.0
C380 C 0.4627 0.30464 0.294 0.0
C381 C 0.43483 0.32572 0.3275 0.0
C382 C 0.45567 0.34317 0.38446 0.0
C383 C 0.4766 0.33696 0.40584 0.0
C384 C 0.48002 0.3178 0.35991 0.0
C385 C 0.41111 0.33049 0.30645 0.0
C386 C 0.49837 0.35403 0.46921 0.0
C387 C 0.48749 0.42166 0.38289 0.0
C388 C 0.48039 0.42895 0.45043 0.0
C389 C 0.47807 0.39353 0.35898 0.0
C390 C 0.46112 0.37209 0.40396 0.0
C391 C 0.45256 0.37917 0.47015 0.0
C392 C 0.46212 0.4076 0.49215 0.0
C393 C 0.48757 0.38699 0.28729 0.0
C394 C 0.43362 0.35696 0.5181 0.0
H395 H 0.42418 0.29509 0.23411 0.0
H396 H 0.49847 0.31626 0.37083 0.0
H397 H 0.40381 0.33652 0.3565 0.0
H398 H 0.41826 0.34793 0.26986 0.0
H399 H 0.39344 0.3114 0.27575 0.0
H400 H 0.5094 0.34305 0.48825 0.0
H401 H 0.51389 0.37448 0.45033 0.0
H402 H 0.48899 0.35849 0.5171 0.0
H403 H 0.50133 0.43804 0.34984 0.0
H404 H 0.45549 0.41315 0.54229 0.0
H405 H 0.46944 0.37145 0.24942 0.0
H406 H 0.50077 0.3776 0.2993 0.0
H407 H 0.49968 0.40602 0.25756 0.0
H408 H 0.41205 0.34658 0.49179 0.0
H409 H 0.43394 0.36612 0.57478 0.0
H410 H 0.43933 0.34044 0.52326 0.0
C411 C 0.51961 0.85093 0.9478 0.0
C412 C 0.5462 0.85473 0.96295 0.0
C413 C 0.51512 0.86796 0.90057 0.0
C414 C 0.53788 0.88966 0.8686 0.0
C415 C 0.56439 0.89213 0.87914 0.0
C416 C 0.56822 0.87453 0.92611 0.0
C417 C 0.48638 0.86411 0.88958 0.0
C418 C 0.58917 0.91487 0.84596 0.0
C419 C 0.52091 0.92972 0.72888 0.0
C420 C 0.52261 0.95187 0.77559 0.0
C421 C 0.52663 0.90964 0.75749 0.0
C422 C 0.53457 0.91206 0.83446 0.0
C423 C 0.53739 0.93508 0.88108 0.0
C424 C 0.53119 0.95451 0.85122 0.0
C425 C 0.52348 0.88554 0.70574 0.0
C426 C 0.54604 0.9387 0.96332 0.0
H427 H 0.50255 0.83556 0.97616 0.0
H428 H 0.58885 0.87765 0.93827 0.0
H429 H 0.48593 0.88185 0.92057 0.0
H430 H 0.48082 0.86428 0.82989 0.0
H431 H 0.4704 0.84413 0.90964 0.0
H432 H 0.6072 0.91145 0.84994 0.0
H433 H 0.5839 0.91593 0.78671 0.0
H434 H 0.59539 0.93557 0.87599 0.0
H435 H 0.51392 0.92735 0.67062 0.0
H436 H 0.53274 0.9717 0.8875 0.0
H437 H 0.51062 0.86518 0.72921 0.0
H438 H 0.54418 0.88787 0.69931 0.0
H439 H 0.51385 0.88472 0.64971 0.0
H440 H 0.5299 0.92102 0.99099 0.0
H441 H 0.54916 0.95875 0.99077 0.0
H442 H 0.56562 0.93821 0.97228 0.0
C443 C 0.66369 0.53211 0.04207 0.0
C444 C 0.6801 0.52022 0.02388 0.0
C445 C 0.6414 0.52799 0.99382 0.0
C446 C 0.63539 0.51176 0.92496 0.0
C447 C 0.65084 0.4984 0.90769 0.0
C448 C 0.67323 0.50296 0.95726 0.0
C449 C 0.62576 0.54296 0.01421 0.0
C450 C 0.64475 0.48067 0.83504 0.0
C451 C 0.5697 0.49816 0.8127 0.0
C452 C 0.58047 0.52083 0.7684 0.0
C453 C 0.58738 0.49412 0.86233 0.0
C454 C 0.61638 0.51308 0.86703 0.0
C455 C 0.62732 0.53548 0.82095 0.0
C456 C 0.60929 0.53909 0.77253 0.0
C457 C 0.57506 0.47011 0.91107 0.0
C458 C 0.6581 0.55635 0.82449 0.0
H459 H 0.66916 0.54603 0.09255 0.0
H460 H 0.68574 0.49361 0.94318 0.0
H461 H 0.63135 0.56053 0.97871 0.0
H462 H 0.60306 0.52848 0.00412 0.0
H463 H 0.63064 0.55174 0.07338 0.0
H464 H 0.65553 0.46828 0.83497 0.0
H465 H 0.6221 0.46604 0.82348 0.0
H466 H 0.65169 0.49451 0.78893 0.0
H467 H 0.54751 0.48386 0.80949 0.0
H468 H 0.61794 0.55649 0.73795 0.0
H469 H 0.57883 0.4785 0.97031 0.0
H470 H 0.58534 0.45735 0.90506 0.0
H471 H 0.55235 0.45625 0.89755 0.0
H472 H 0.6653 0.56825 0.88025 0.0
H473 H 0.66335 0.57165 0.7819 0.0
H474 H 0.66985 0.54517 0.8163 0.0
C475 C 0.14466 0.72349 0.90212 0.0
C476 C 0.16897 0.7219 0.91055 0.0
C477 C 0.12304 0.70529 0.84862 0.0
C478 C 0.12576 0.6848 0.80497 0.0
C479 C 0.152 0.68673 0.80418 0.0
C480 C 0.1734 0.70535 0.85721 0.0
C481 C 0.09603 0.70537 0.84608 0.0
C482 C 0.15618 0.66608 0.75594 0.0
C483 C 0.06996 0.60944 0.81292 0.0
C484 C 0.05989 0.60076 0.73802 0.0
C485 C 0.09041 0.63715 0.83546 0.0
C486 C 0.10074 0.65709 0.78195 0.0
C487 C 0.08925 0.64906 0.70705 0.0
C488 C 0.06915 0.62082 0.68575 0.0
C489 C 0.10203 0.64451 0.91621 0.0
C490 C 0.0987 0.66959 0.64828 0.0
H491 H 0.14151 0.73699 0.94163 0.0
H492 H 0.19227 0.70424 0.86243 0.0
H493 H 0.08559 0.69925 0.78876 0.0
H494 H 0.08195 0.6899 0.88291 0.0
H495 H 0.09935 0.72641 0.86569 0.0
H496 H 0.17852 0.67287 0.75396 0.0
H497 H 0.14566 0.64521 0.77847 0.0
H498 H 0.14689 0.66352 0.69841 0.0
H499 H 0.06278 0.59425 0.85402 0.0
H500 H 0.06119 0.61444 0.62791 0.0
H501 H 0.09924 0.66169 0.9413 0.0
H502 H 0.12462 0.65204 0.92024 0.0
H503 H 0.09188 0.62632 0.9501 0.0
H504 H 0.1091 0.69181 0.67236 0.0
H505 H 0.08077 0.66544 0.60934 0.0
H506 H 0.11338 0.66658 0.61493 0.0
C507 C 0.48393 0.17251 0.00314 0.0
C508 C 0.50774 0.1968 0.03457 0.0
C509 C 0.48539 0.15635 0.94303 0.0
C510 C 0.5114 0.16474 0.91486 0.0
C511 C 0.53479 0.19098 0.94082 0.0
C512 C 0.53269 0.20683 0.00091 0.0
C513 C 0.45978 0.12878 0.91543 0.0
C514 C 0.56266 0.20088 0.91081 0.0
C515 C 0.51615 0.09995 0.87213 0.0
C516 C 0.50612 0.09319 0.79696 0.0
C517 C 0.52031 0.12473 0.91008 0.0
C518 C 0.5149 0.14339 0.87122 0.0
C519 C 0.50814 0.13837 0.79346 0.0
C520 C 0.50352 0.11306 0.75715 0.0
C521 C 0.52763 0.12939 0.99326 0.0
C522 C 0.50344 0.15835 0.74944 0.0
H523 H 0.46462 0.16513 0.02903 0.0
H524 H 0.5511 0.22576 0.02543 0.0
H525 H 0.45707 0.12641 0.85376 0.0
H526 H 0.46213 0.11109 0.9337 0.0
H527 H 0.4407 0.12702 0.93698 0.0
H528 H 0.57597 0.22413 0.9202 0.0
H529 H 0.57346 0.19134 0.94 0.0
H530 H 0.56037 0.19441 0.85042 0.0
H531 H 0.51882 0.08497 0.90286 0.0
H532 H 0.49665 0.10833 0.69836 0.0
H533 H 0.50939 0.12651 0.02217 0.0
H534 H 0.54478 0.15117 0.00931 0.0
H535 H 0.5339 0.11448 0.01351 0.0
H536 H 0.48114 0.152 0.74713 0.0
H537 H 0.50891 0.15757 0.69141 0.0
H538 H 0.51575 0.18037 0.77498 0.0
C539 C 0.31271 0.45773 0.05874 0.0
C540 C 0.31013 0.48147 0.04851 0.0
C541 C 0.33097 0.45256 0.01918 0.0
C542 C 0.34647 0.4712 0.96674 0.0
C543 C 0.34183 0.49354 0.95077 0.0
C544 C 0.32376 0.4985 0.9922 0.0
C545 C 0.33526 0.42851 0.03789 0.0
C546 C 0.35739 0.51337 0.8936 0.0
C547 C 0.41707 0.48129 0.92565 0.0
C548 C 0.41054 0.46492 0.85756 0.0
C549 C 0.39624 0.4829 0.96298 0.0
C550 C 0.36838 0.46809 0.93093 0.0
C551 C 0.36156 0.45083 0.8637 0.0
C552 C 0.3826 0.44925 0.82835 0.0
C553 C 0.40414 0.50107 0.03568 0.0
C554 C 0.33219 0.43486 0.8275 0.0
H555 H 0.30211 0.4445 0.10224 0.0
H556 H 0.32207 0.51702 0.98461 0.0
H557 H 0.33434 0.41595 0.98653 0.0
H558 H 0.35619 0.43705 0.06727 0.0
H559 H 0.31959 0.41431 0.07411 0.0
H560 H 0.3493 0.52774 0.88221 0.0
H561 H 0.37967 0.52628 0.9138 0.0
H562 H 0.35603 0.50137 0.84063 0.0
H563 H 0.43849 0.49343 0.94875 0.0
H564 H 0.37709 0.43633 0.77601 0.0
H565 H 0.39112 0.48866 0.07918 0.0
H566 H 0.4002 0.51874 0.02897 0.0
H567 H 0.42633 0.5099 0.05538 0.0
H568 H 0.31778 0.42133 0.86709 0.0
H569 H 0.33012 0.42142 0.77663 0.0
H570 H 0.32544 0.44992 0.81209 0.0
C571 C 0.8459 0.33158 0.94045 0.0
C572 C 0.8252 0.33313 0.97766 0.0
C573 C 0.86271 0.35275 0.89619 0.0
C574 C 0.85816 0.37562 0.88738 0.0
C575 C 0.83567 0.37597 0.91969 0.0
C576 C 0.81978 0.35498 0.96595 0.0
C577 C 0.88668 0.35171 0.86371 0.0
C578 C 0.82925 0.39918 0.90835 0.0
C579 C 0.92453 0.44311 0.86478 0.0
C580 C 0.92553 0.44158 0.78743 0.0
C581 C 0.90183 0.42257 0.89802 0.0
C582 C 0.87914 0.40054 0.85251 0.0
C583 C 0.87884 0.40063 0.77408 0.0
C584 C 0.90235 0.42083 0.7424 0.0
C585 C 0.90333 0.4231 0.9819 0.0
C586 C 0.85455 0.3785 0.72327 0.0
H587 H 0.85028 0.31486 0.95045 0.0
H588 H 0.80375 0.35613 0.99499 0.0
H589 H 0.88555 0.35296 0.80274 0.0
H590 H 0.90658 0.37008 0.88797 0.0
H591 H 0.887 0.33218 0.87456 0.0
H592 H 0.80822 0.39351 0.92436 0.0
H593 H 0.84462 0.41863 0.94279 0.0
H594 H 0.83067 0.40401 0.84933 0.0
H595 H 0.94244 0.45913 0.89976 0.0
H596 H 0.90291 0.41991 0.68246 0.0
H597 H 0.90415 0.40442 -0.00116 0.0
H598 H 0.88454 0.42203 0.0031 0.0
H599 H 0.92185 0.44233 0.00916 0.0
H600 H 0.85764 0.36035 0.71038 0.0
H601 H 0.85287 0.38682 0.66983 0.0
H602 H 0.83469 0.37079 0.74933 0.0
C603 C 0.82601 0.51452 0.82346 0.0
C604 C 0.83187 0.53668 0.87675 0.0
C605 C 0.84657 0.51573 0.7793 0.0
C606 C 0.87373 0.53936 0.79025 0.0
C607 C 0.87925 0.56247 0.84101 0.0
C608 C 0.85813 0.56094 0.88318 0.0
C609 C 0.83964 0.49099 0.72435 0.0
C610 C 0.90798 0.58792 0.8549 0.0
C611 C 0.93416 0.529 0.74289 0.0
C612 C 0.94104 0.54179 0.67623 0.0
C613 C 0.91228 0.52807 0.78088 0.0
C614 C 0.89662 0.53964 0.75039 0.0
C615 C 0.90312 0.55195 0.68231 0.0
C616 C 0.92537 0.55314 0.64659 0.0
C617 C 0.90615 0.51504 0.85399 0.0
C618 C 0.88648 0.56377 0.6469 0.0
H619 H 0.80588 0.4955 0.81992 0.0
H620 H 0.86285 0.57768 0.92602 0.0
H621 H 0.84736 0.49827 0.66976 0.0
H622 H 0.85008 0.47964 0.74477 0.0
H623 H 0.81696 0.47593 0.71602 0.0
H624 H 0.90845 0.60477 0.89285 0.0
H625 H 0.9224 0.58162 0.88005 0.0
H626 H 0.91593 0.59666 0.80175 0.0
H627 H 0.94611 0.52013 0.76587 0.0
H628 H 0.93016 0.56259 0.59428 0.0
H629 H 0.88442 0.49738 0.85052 0.0
H630 H 0.9083 0.53085 0.8987 0.0
H631 H 0.92021 0.50697 0.87007 0.0
H632 H 0.86421 0.54733 0.63871 0.0
H633 H 0.89357 0.57167 0.59226 0.0
H634 H 0.88809 0.58132 0.68421 0.0
C635 C 0.28795 0.85986 0.90828 0.0
C636 C 0.29915 0.84215 0.91403 0.0
C637 C 0.2991 0.8821 0.86249 0.0
C638 C 0.32258 0.88715 0.82466 0.0
C639 C 0.33141 0.86701 0.82292 0.0
C640 C 0.31942 0.84458 0.86762 0.0
C641 C 0.28791 0.90202 0.86179 0.0
C642 C 0.3561 0.87126 0.78247 0.0
C643 C 0.36769 0.9473 0.71209 0.0
C644 C 0.38945 0.96445 0.7664 0.0
C645 C 0.34389 0.92316 0.73107 0.0
C646 C 0.34227 0.91606 0.80556 0.0
C647 C 0.36278 0.93514 0.86154 0.0
C648 C 0.38592 0.95923 0.84123 0.0
C649 C 0.32188 0.90423 0.67018 0.0
C650 C 0.36196 0.92872 0.94203 0.0
H651 H 0.2722 0.85787 0.94441 0.0
H652 H 0.32807 0.83086 0.87269 0.0
H653 H 0.30006 0.91988 0.90479 0.0
H654 H 0.2897 0.91072 0.80703 0.0
H655 H 0.26584 0.89139 0.87442 0.0
H656 H 0.35815 0.85215 0.77912 0.0
H657 H 0.35442 0.87687 0.72526 0.0
H658 H 0.37535 0.8889 0.81221 0.0
H659 H 0.37017 0.95131 0.65408 0.0
H660 H 0.40246 0.97279 0.88353 0.0
H661 H 0.3013 0.89172 0.69187 0.0
H662 H 0.32776 0.88945 0.64391 0.0
H663 H 0.32014 0.91671 0.62613 0.0
H664 H 0.34182 0.92404 0.96261 0.0
H665 H 0.37884 0.94643 0.9789 0.0
H666 H 0.36407 0.90983 0.94696 0.0
C667 C 0.49119 0.31163 0.96696 0.0
C668 C 0.49088 0.32258 0.03874 0.0
C669 C 0.48988 0.32505 0.90367 0.0
C670 C 0.48801 0.34983 0.91252 0.0
C671 C 0.48851 0.36131 0.98509 0.0
C672 C 0.49023 0.34778 0.04688 0.0
C673 C 0.48996 0.31243 0.82749 0.0
C674 C 0.48686 0.38782 -0.00222 0.0
C675 C 0.50652 0.40669 0.78157 0.0
C676 C 0.48019 0.40193 0.75666 0.0
C677 C 0.50948 0.38788 0.82545 0.0
C678 C 0.48552 0.36427 0.8472 0.0
C679 C 0.45896 0.35807 0.81654 0.0
C680 C 0.45663 0.37685 0.7708 0.0
C681 C 0.53822 0.39471 0.85407 0.0
C682 C 0.43284 0.33327 0.83833 0.0
H683 H 0.49178 0.29224 0.96017 0.0
H684 H 0.49086 0.35693 0.10216 0.0
H685 H 0.46921 0.30361 0.79691 0.0
H686 H 0.50517 0.32885 0.79468 0.0
H687 H 0.49504 0.29536 0.83042 0.0
H688 H 0.48668 0.39352 0.05763 0.0
H689 H 0.50485 0.40566 0.9757 0.0
H690 H 0.46777 0.38508 0.96746 0.0
H691 H 0.52481 0.426 0.77024 0.0
H692 H 0.43625 0.37321 0.75207 0.0
H693 H 0.53988 0.37541 0.85232 0.0
H694 H 0.54249 0.40363 0.91294 0.0
H695 H 0.5544 0.41024 0.82132 0.0
H696 H 0.43484 0.31419 0.83713 0.0
H697 H 0.41435 0.3287 0.80118 0.0
H698 H 0.42935 0.33787 0.89615 0.0
C699 C 0.17173 0.48114 0.94434 0.0
C700 C 0.16882 0.46438 0.00267 0.0
C701 C 0.14885 0.47475 0.89469 0.0
C702 C 0.1227 0.45112 0.90409 0.0
C703 C 0.12101 0.4316 0.95428 0.0
C704 C 0.14427 0.43841 0.00297 0.0
C705 C 0.1518 0.49556 0.83977 0.0
C706 C 0.09378 0.4056 0.96411 0.0
C707 C 0.06578 0.46949 0.89029 0.0
C708 C 0.05349 0.45832 0.81795 0.0
C709 C 0.08738 0.46594 0.92008 0.0
C710 C 0.09708 0.45094 0.87626 0.0
C711 C 0.08363 0.43809 0.80498 0.0
C712 C 0.06195 0.44192 0.77662 0.0
C713 C 0.10077 0.47954 0.99721 0.0
C714 C 0.09311 0.42177 0.75664 0.0
H715 H 0.19073 0.50112 0.94333 0.0
H716 H 0.14216 0.42516 0.04734 0.0
H717 H 0.13969 0.48453 0.78609 0.0
H718 H 0.14356 0.50888 0.86224 0.0
H719 H 0.17384 0.50954 0.82935 0.0
H720 H 0.09703 0.38965 0.99093 0.0
H721 H 0.08155 0.41147 0.00016 0.0
H722 H 0.08136 0.39603 0.90993 0.0
H723 H 0.05918 0.4819 0.9229 0.0
H724 H 0.05262 0.43322 0.72053 0.0
H725 H 0.12257 0.49634 0.9937 0.0
H726 H 0.10121 0.46382 0.03229 0.0
H727 H 0.0897 0.48902 0.0255 0.0
H728 H 0.11105 0.4367 0.7276 0.0
H729 H 0.07642 0.40704 0.71374 0.0
H730 H 0.09992 0.40965 0.79016 0.0
C731 C 0.65289 0.18334 0.02503 0.0
C732 C 0.67961 0.19234 0.00243 0.0
C733 C 0.62924 0.16343 0.97988 0.0
C734 C 0.6325 0.1537 0.90912 0.0
C735 C 0.65887 0.16711 0.88061 0.0
C736 C 0.68227 0.18602 0.92808 0.0
C737 C 0.60165 0.15026 0.01291 0.0
C738 C 0.66294 0.15864 0.80341 0.0
C739 C 0.59604 0.07658 0.84129 0.0
C740 C 0.57683 0.07479 0.78562 0.0
C741 C 0.61269 0.10175 0.88617 0.0
C742 C 0.6108 0.12594 0.87271 0.0
C743 C 0.59028 0.12377 0.81937 0.0
C744 C 0.57327 0.09802 0.77686 0.0
C745 C 0.63335 0.10282 0.94539 0.0
C746 C 0.58749 0.14897 0.80387 0.0
H747 H 0.65056 0.18916 0.08144 0.0
H748 H 0.70266 0.19319 0.90899 0.0
H749 H 0.58388 0.13956 0.96997 0.0
H750 H 0.60059 0.13443 0.05018 0.0
H751 H 0.59957 0.16642 0.04711 0.0
H752 H 0.68281 0.17489 0.78404 0.0
H753 H 0.66334 0.13868 0.80376 0.0
H754 H 0.6456 0.15505 0.76308 0.0
H755 H 0.59853 0.05849 0.84838 0.0
H756 H 0.55847 0.09664 0.73328 0.0
H757 H 0.63232 0.1132 -0.00136 0.0
H758 H 0.65468 0.11539 0.92812 0.0
H759 H 0.62964 0.08151 0.95527 0.0
H760 H 0.58624 0.15955 0.85637 0.0
H761 H 0.56886 0.14317 0.76568 0.0
H762 H 0.60617 0.16448 0.77829 0.0
C763 C 0.55393 0.71166 0.88347 0.0
C764 C 0.5316 0.70763 0.92407 0.0
C765 C 0.55139 0.69022 0.83244 0.0
C766 C 0.52604 0.66442 0.82258 0.0
C767 C 0.50234 0.66212 0.85421 0.0
C768 C 0.50544 0.68381 0.90519 0.0
C769 C 0.57676 0.69381 0.79693 0.0
C770 C 0.47458 0.63537 0.84166 0.0
C771 C 0.51819 0.60198 0.70029 0.0
C772 C 0.52275 0.58683 0.75377 0.0
C773 C 0.51934 0.62753 0.72115 0.0
C774 C 0.52604 0.6384 0.79674 0.0
C775 C 0.53191 0.62374 0.85021 0.0
C776 C 0.52998 0.59805 0.82808 0.0
C777 C 0.51313 0.64247 0.6622 0.0
C778 C 0.53941 0.63472 0.9315 0.0
H779 H 0.57419 0.73017 0.89735 0.0
H780 H 0.48801 0.68101 0.93535 0.0
H781 H 0.58538 0.68239 0.82692 0.0
H782 H 0.57127 0.68473 0.73811 0.0
H783 H 0.59315 0.71631 0.79897 0.0
H784 H 0.45742 0.63878 0.85782 0.0
H785 H 0.47032 0.62685 0.7824 0.0
H786 H 0.47485 0.61929 0.87565 0.0
H787 H 0.51255 0.59332 0.64263 0.0
H788 H 0.53372 0.58646 0.86936 0.0
H789 H 0.50367 0.65463 0.68459 0.0
H790 H 0.49892 0.62733 0.61553 0.0
H791 H 0.53281 0.65737 0.63945 0.0
H792 H 0.55755 0.65639 0.93756 0.0
H793 H 0.54448 0.62131 0.96511 0.0
H794 H 0.52183 0.63567 0.95495 0.0
C795 C 0.52168 0.1887 0.35212 0.0
C796 C 0.49948 0.18366 0.30165 0.0
C797 C 0.52032 0.16722 0.39381 0.0
C798 C 0.49614 0.14019 0.38497 0.0
C799 C 0.47271 0.13599 0.33969 0.0
C800 C 0.47472 0.15771 0.2983 0.0
C801 C 0.54573 0.17272 0.44174 0.0
C802 C 0.44634 0.10776 0.32947 0.0
C803 C 0.50711 0.0774 0.38897 0.0
C804 C 0.49994 0.0686 0.46014 0.0
C805 C 0.50592 0.10055 0.36446 0.0
C806 C 0.49702 0.11537 0.41172 0.0
C807 C 0.48907 0.10629 0.483 0.0
C808 C 0.4908 0.08314 0.50662 0.0
C809 C 0.51459 0.10937 0.28792 0.0
C810 C 0.47914 0.12128 0.53464 0.0
H811 H 0.54093 0.20864 0.3544 0.0
H812 H 0.45749 0.15379 0.25939 0.0
H813 H 0.53995 0.16387 0.49603 0.0
H814 H 0.55581 0.16215 0.4136 0.0
H815 H 0.56108 0.19556 0.45194 0.0
H816 H 0.4287 0.10923 0.30345 0.0
H817 H 0.44961 0.09294 0.29303 0.0
H818 H 0.44066 0.09872 0.38359 0.0
H819 H 0.51424 0.06649 0.35238 0.0
H820 H 0.48525 0.07662 0.5617 0.0
H821 H 0.53206 0.13141 0.29246 0.0
H822 H 0.49713 0.10861 0.25367 0.0
H823 H 0.52117 0.09574 0.25818 0.0
H824 H 0.46295 0.12414 0.50503 0.0
H825 H 0.4967 0.14254 0.55382 0.0
H826 H 0.47056 0.10972 0.58411 0.0
C827 C 0.31988 0.5013 0.36177 0.0
C828 C 0.32746 0.51943 0.30519 0.0
C829 C 0.34022 0.49974 0.40672 0.0
C830 C 0.36846 0.51594 0.39229 0.0
C831 C 0.37628 0.53638 0.3404 0.0
C832 C 0.35559 0.53824 0.29844 0.0
C833 C 0.33124 0.47873 0.46431 0.0
C834 C 0.40602 0.55371 0.32202 0.0
C835 C 0.42574 0.51726 0.51698 0.0
C836 C 0.42771 0.49487 0.48291 0.0
C837 C 0.40626 0.52415 0.48889 0.0
C838 C 0.38912 0.5089 0.42358 0.0
C839 C 0.39171 0.48681 0.38749 0.0
C840 C 0.4106 0.47957 0.41881 0.0
C841 C 0.40343 0.54707 0.53039 0.0
C842 C 0.37445 0.47077 0.31602 0.0
H843 H 0.29809 0.48652 0.36611 0.0
H844 H 0.36128 0.55186 0.25349 0.0
H845 H 0.33169 0.45975 0.44223 0.0
H846 H 0.34562 0.48766 0.51567 0.0
H847 H 0.30984 0.47211 0.4789 0.0
H848 H 0.40919 0.5715 0.28959 0.0
H849 H 0.42049 0.56223 0.37313 0.0
H850 H 0.41164 0.54007 0.28837 0.0
H851 H 0.43873 0.52866 0.56765 0.0
H852 H 0.41214 0.46216 0.39318 0.0
H853 H 0.38223 0.53807 0.54912 0.0
H854 H 0.40619 0.56349 0.49323 0.0
H855 H 0.41874 0.55722 0.57978 0.0
H856 H 0.35218 0.459 0.32616 0.0
H857 H 0.38035 0.45559 0.29243 0.0
H858 H 0.37685 0.48562 0.274 0.0
C859 C 0.84424 0.31601 0.28655 0.0
C860 C 0.82791 0.32456 0.24665 0.0
C861 C 0.86442 0.33419 0.34319 0.0
C862 C 0.86857 0.36155 0.35886 0.0
C863 C 0.84949 0.3686 0.32638 0.0
C864 C 0.82921 0.34989 0.27085 0.0
C865 C 0.88344 0.32539 0.37974 0.0
C866 C 0.85273 0.39732 0.34305 0.0
C867 C 0.92538 0.41907 0.49473 0.0
C868 C 0.94564 0.434 0.44614 0.0
C869 C 0.90063 0.39426 0.46865 0.0
C870 C 0.89604 0.38456 0.39221 0.0
C871 C 0.91722 0.39862 0.34425 0.0
C872 C 0.94175 0.42294 0.37195 0.0
C873 C 0.87905 0.37967 0.52243 0.0
C874 C 0.91338 0.389 0.26227 0.0
H875 H 0.84324 0.29634 0.26894 0.0
H876 H 0.81605 0.35621 0.24163 0.0
H877 H 0.90314 0.33453 0.35247 0.0
H878 H 0.88857 0.33334 0.43949 0.0
H879 H 0.874 0.30214 0.3748 0.0
H880 H 0.83401 0.39802 0.32249 0.0
H881 H 0.85691 0.40359 0.40376 0.0
H882 H 0.87073 0.41303 0.31556 0.0
H883 H 0.92823 0.42736 0.55232 0.0
H884 H 0.95743 0.43406 0.33418 0.0
H885 H 0.88908 0.38123 0.57846 0.0
H886 H 0.86475 0.35713 0.50383 0.0
H887 H 0.86661 0.39026 0.5279 0.0
H888 H 0.90798 0.36666 0.25464 0.0
H889 H 0.93229 0.40174 0.23332 0.0
H890 H 0.89601 0.39055 0.23488 0.0
C891 C 0.53989 0.83128 0.29299 0.0
C892 C 0.55011 0.84916 0.23582 0.0
C893 C 0.53669 0.8414 0.3629 0.0
C894 C 0.54362 0.86989 0.37499 0.0
C895 C 0.55492 0.88815 0.31802 0.0
C896 C 0.55817 0.87758 0.24963 0.0
C897 C 0.52502 0.82125 0.42205 0.0
C898 C 0.56291 0.91884 0.32811 0.0
C899 C 0.51223 0.90432 0.48155 0.0
C900 C 0.53614 0.92507 0.52412 0.0
C901 C 0.51247 0.88204 0.44112 0.0
C902 C 0.53729 0.88095 0.44352 0.0
C903 C 0.5592 0.89835 0.49833 0.0
C904 C 0.55848 0.92059 0.5382 0.0
C905 C 0.48799 0.86286 0.38642 0.0
C906 C 0.58516 0.89635 0.50628 0.0
H907 H 0.53381 0.80928 0.28262 0.0
H908 H 0.56695 0.89165 0.20638 0.0
H909 H 0.53173 0.83217 0.479 0.0
H910 H 0.50203 0.81016 0.41442 0.0
H911 H 0.53135 0.80504 0.41707 0.0
H912 H 0.57161 0.93007 0.27824 0.0
H913 H 0.54447 0.92066 0.33962 0.0
H914 H 0.57863 0.92973 0.37622 0.0
H915 H 0.49445 0.90722 0.47315 0.0
H916 H 0.57669 0.93616 0.57309 0.0
H917 H 0.48427 0.84106 0.38369 0.0
H918 H 0.49242 0.87031 0.33013 0.0
H919 H 0.46879 0.86266 0.40136 0.0
H920 H 0.58025 0.87419 0.49644 0.0
H921 H 0.5963 0.90514 0.56241 0.0
H922 H 0.59927 0.9086 0.46437 0.0
C923 C 0.73095 0.58535 0.28105 0.0
C924 C 0.7258 0.55766 0.27107 0.0
C925 C 0.71576 0.59231 0.32915 0.0
C926 C 0.69516 0.57102 0.36769 0.0
C927 C 0.69343 0.54442 0.36712 0.0
C928 C 0.7088 0.53802 0.3185 0.0
C929 C 0.719 0.62122 0.33017 0.0
C930 C 0.67236 0.52133 0.4091 0.0
C931 C 0.64519 0.58044 0.48682 0.0
C932 C 0.62166 0.56985 0.43587 0.0
C933 C 0.67001 0.58246 0.46507 0.0
C934 C 0.67119 0.57367 0.3908 0.0
C935 C 0.64805 0.56479 0.33821 0.0
C936 C 0.62366 0.563 0.36143 0.0
C937 C 0.69421 0.59235 0.52273 0.0
C938 C 0.64839 0.5556 0.25795 0.0
H939 H 0.74409 0.6006 0.24435 0.0
H940 H 0.70487 0.51662 0.31083 0.0
H941 H 0.70285 0.62053 0.29032 0.0
H942 H 0.71625 0.62834 0.38617 0.0
H943 H 0.73965 0.63689 0.31349 0.0
H944 H 0.67713 0.50412 0.41437 0.0
H945 H 0.67148 0.52972 0.46551 0.0
H946 H 0.6515 0.5123 0.37887 0.0
H947 H 0.6438 0.5857 0.54457 0.0
H948 H 0.6057 0.55515 0.32153 0.0
H949 H 0.7143 0.60467 0.49845 0.0
H950 H 0.69386 0.57378 0.54493 0.0
H951 H 0.69309 0.60542 0.57007 0.0
H952 H 0.66649 0.5723 0.23309 0.0
H953 H 0.62924 0.55074 0.22345 0.0
H954 H 0.65042 0.53651 0.25511 0.0
C955 C 0.14719 0.68292 0.16157 0.0
C956 C 0.17255 0.70822 0.17711 0.0
C957 C 0.13179 0.66776 0.21848 0.0
C958 C 0.14223 0.67748 0.29361 0.0
C959 C 0.16815 0.70253 0.31025 0.0
C960 C 0.18293 0.71775 0.25178 0.0
C961 C 0.10432 0.64108 0.19779 0.0
C962 C 0.18042 0.7129 0.38958 0.0
C963 C 0.08404 0.64477 0.41956 0.0
C964 C 0.08331 0.61932 0.42973 0.0
C965 C 0.10481 0.6654 0.38089 0.0
C966 C 0.1257 0.66073 0.35343 0.0
C967 C 0.12694 0.63665 0.37182 0.0
C968 C 0.10549 0.61602 0.40874 0.0
C969 C 0.10253 0.69063 0.36241 0.0
C970 C 0.14933 0.63112 0.34652 0.0
H971 H 0.13939 0.67454 0.10438 0.0
H972 H 0.20255 0.73713 0.26458 0.0
H973 H 0.10551 0.62276 0.21607 0.0
H974 H 0.08763 0.64205 0.22654 0.0
H975 H 0.09836 0.63737 0.13691 0.0
H976 H 0.20068 0.73282 0.39341 0.0
H977 H 0.16593 0.71634 0.42258 0.0
H978 H 0.18344 0.69668 0.41547 0.0
H979 H 0.06706 0.64759 0.43598 0.0
H980 H 0.10535 0.59662 0.41751 0.0
H981 H 0.09418 0.68747 0.30349 0.0
H982 H 0.12319 0.71003 0.36871 0.0
H983 H 0.08847 0.69381 0.39813 0.0
H984 H 0.14186 0.61791 0.29262 0.0
H985 H 0.15415 0.61946 0.38729 0.0
H986 H 0.16875 0.65085 0.33893 0.0
loop_
_geom_bond_atom_site_label_1
_geom_bond_atom_site_label_2
_geom_bond_distance
_geom_bond_site_symmetry_2
_ccdc_geom_bond_type
H0 C8 0.930 . S
H1 C11 0.930 . S
H2 C13 0.930 . S
H3 C14 0.970 . S
H4 C14 0.970 . S
H5 C16 0.930 . S
H6 C18 0.930 . S
H7 C20 0.930 . S
C8 H0 0.930 . S
C8 C9 1.382 . S
C8 C10 1.426 . S
C9 C8 1.382 . S
C9 C13 1.389 . S
C10 C8 1.426 . S
C10 C11 1.375 . S
C10 C14 1.532 . S
C11 H1 0.930 . S
C11 C10 1.375 . S
C11 C12 1.416 . S
C12 C11 1.416 . S
C12 C13 1.371 . S
C13 H2 0.930 . S
C13 C9 1.389 . S
C13 C12 1.371 . S
C14 H3 0.970 . S
C14 H4 0.970 . S
C14 C10 1.532 . S
C14 C15 1.499 . S
C15 C14 1.499 . S
C15 C16 1.370 . S
C15 C20 1.415 . S
C16 H5 0.930 . S
C16 C15 1.370 . S
C16 C17 1.407 . S
C17 C16 1.407 . S
C17 C18 1.365 . S
C18 H6 0.930 . S
C18 C17 1.365 . S
C18 C19 1.393 . S
C19 C18 1.393 . S
C19 C20 1.387 . S
C20 H7 0.930 . S
C20 C15 1.415 . S
C20 C19 1.387 . S
H21 C29 0.930 1_556 S
H22 C32 0.930 . S
H23 C34 0.930 . S
H24 C35 0.970 . S
H25 C35 0.970 . S
H26 C37 0.930 1_556 S
H27 C39 0.930 . S
H28 C41 0.930 . S
C29 H21 0.930 1_554 S
C29 C30 1.382 . S
C29 C31 1.426 . S
C30 C29 1.382 . S
C30 C34 1.389 . S
C31 C29 1.426 . S
C31 C32 1.375 . S
C31 C35 1.532 . S
C32 H22 0.930 . S
C32 C31 1.375 . S
C32 C33 1.416 . S
C33 C32 1.416 . S
C33 C34 1.371 . S
C34 H23 0.930 . S
C34 C30 1.389 . S
C34 C33 1.371 . S
C35 H24 0.970 . S
C35 H25 0.970 . S
C35 C31 1.532 . S
C35 C36 1.499 . S
C36 C35 1.499 . S
C36 C37 1.370 . S
C36 C41 1.415 . S
C37 H26 0.930 1_554 S
C37 C36 1.370 . S
C37 C38 1.407 . S
C38 C37 1.407 . S
C38 C39 1.365 . S
C39 H27 0.930 . S
C39 C38 1.365 . S
C39 C40 1.393 . S
C40 C39 1.393 . S
C40 C41 1.387 . S
C41 H28 0.930 . S
C41 C36 1.415 . S
C41 C40 1.387 . S
H42 C50 0.930 . S
H43 C53 0.930 . S
H44 C55 0.930 . S
H45 C56 0.970 . S
H46 C56 0.970 . S
H47 C58 0.930 . S
H48 C60 0.930 . S
H49 C62 0.930 . S
C50 H42 0.930 . S
C50 C51 1.382 . S
C50 C52 1.426 1_556 S
C51 C50 1.382 . S
C51 C55 1.389 1_556 S
C52 C50 1.426 1_554 S
C52 C53 1.375 . S
C52 C56 1.532 . S
C53 H43 0.930 . S
C53 C52 1.375 . S
C53 C54 1.416 . S
C54 C53 1.416 . S
C54 C55 1.371 . S
C55 H44 0.930 . S
C55 C51 1.389 1_554 S
C55 C54 1.371 . S
C56 H45 0.970 . S
C56 H46 0.970 . S
C56 C52 1.532 . S
C56 C57 1.499 . S
C57 C56 1.499 . S
C57 C58 1.370 1_554 S
C57 C62 1.415 . S
C58 H47 0.930 . S
C58 C57 1.370 1_556 S
C58 C59 1.407 . S
C59 C58 1.407 . S
C59 C60 1.365 1_556 S
C60 H48 0.930 . S
C60 C59 1.365 1_554 S
C60 C61 1.393 . S
C61 C60 1.393 . S
C61 C62 1.387 . S
C62 H49 0.930 . S
C62 C57 1.415 . S
C62 C61 1.387 . S
H63 C71 0.930 . S
H64 C74 0.930 . S
H65 C76 0.930 . S
H66 C77 0.970 1_556 S
H67 C77 0.970 . S
H68 C79 0.930 . S
H69 C81 0.930 . S
H70 C83 0.930 . S
C71 H63 0.930 . S
C71 C72 1.382 . S
C71 C73 1.426 1_556 S
C72 C71 1.382 . S
C72 C76 1.389 1_556 S
C73 C71 1.426 1_554 S
C73 C74 1.375 . S
C73 C77 1.532 . S
C74 H64 0.930 . S
C74 C73 1.375 . S
C74 C75 1.416 . S
C75 C74 1.416 . S
C75 C76 1.371 . S
C76 H65 0.930 . S
C76 C72 1.389 1_554 S
C76 C75 1.371 . S
C77 H66 0.970 1_554 S
C77 H67 0.970 . S
C77 C73 1.532 . S
C77 C78 1.499 . S
C78 C77 1.499 . S
C78 C79 1.370 1_554 S
C78 C83 1.415 . S
C79 H68 0.930 . S
C79 C78 1.370 1_556 S
C79 C80 1.407 . S
C80 C79 1.407 . S
C80 C81 1.365 1_556 S
C81 H69 0.930 . S
C81 C80 1.365 1_554 S
C81 C82 1.393 . S
C82 C81 1.393 . S
C82 C83 1.387 . S
C83 H70 0.930 . S
C83 C78 1.415 . S
C83 C82 1.387 . S
H84 C92 0.930 . S
H85 C95 0.930 . S
H86 C97 0.930 . S
H87 C98 0.970 . S
H88 C98 0.970 . S
H89 C100 0.930 . S
H90 C102 0.930 . S
H91 C104 0.930 . S
C92 H84 0.930 . S
C92 C93 1.382 . S
C92 C94 1.426 . S
C93 C92 1.382 . S
C93 C97 1.389 . S
C94 C92 1.426 . S
C94 C95 1.375 . S
C94 C98 1.532 . S
C95 H85 0.930 . S
C95 C94 1.375 . S
C95 C96 1.416 . S
C96 C95 1.416 . S
C96 C97 1.371 . S
C97 H86 0.930 . S
C97 C93 1.389 . S
C97 C96 1.371 . S
C98 H87 0.970 . S
C98 H88 0.970 . S
C98 C94 1.532 . S
C98 C99 1.499 . S
C99 C98 1.499 . S
C99 C100 1.370 . S
C99 C104 1.415 . S
C100 H89 0.930 . S
C100 C99 1.370 . S
C100 C101 1.407 . S
C101 C100 1.407 . S
C101 C102 1.365 . S
C102 H90 0.930 . S
C102 C101 1.365 . S
C102 C103 1.393 . S
C103 C102 1.393 . S
C103 C104 1.387 . S
C104 H91 0.930 . S
C104 C99 1.415 . S
C104 C103 1.387 . S
H105 C113 0.930 . S
H106 C116 0.930 . S
H107 C118 0.930 . S
H108 C119 0.970 . S
H109 C119 0.970 . S
H110 C121 0.930 . S
H111 C123 0.930 . S
H112 C125 0.930 . S
C113 H105 0.930 . S
C113 C114 1.382 . S
C113 C115 1.426 . S
C114 C113 1.382 . S
C114 C118 1.389 . S
C115 C113 1.426 . S
C115 C116 1.375 . S
C115 C119 1.532 . S
C116 H106 0.930 . S
C116 C115 1.375 . S
C116 C117 1.416 . S
C117 C116 1.416 . S
C117 C118 1.371 . S
C118 H107 0.930 . S
C118 C114 1.389 . S
C118 C117 1.371 . S
C119 H108 0.970 . S
C119 H109 0.970 . S
C119 C115 1.532 . S
C119 C120 1.499 . S
C120 C119 1.499 . S
C120 C121 1.370 . S
C120 C125 1.415 . S
C121 H110 0.930 . S
C121 C120 1.370 . S
C121 C122 1.407 . S
C122 C121 1.407 . S
C122 C123 1.365 . S
C123 H111 0.930 . S
C123 C122 1.365 . S
C123 C124 1.393 . S
C124 C123 1.393 . S
C124 C125 1.387 . S
C125 H112 0.930 . S
C125 C120 1.415 . S
C125 C124 1.387 . S
C126 O153 1.312 . S
C126 O154 1.208 . S
C127 O148 1.331 . S
C127 O151 1.244 . S
C128 O150 1.264 . S
C128 O152 1.273 . S
Mg129 O131 1.936 1_455 S
Mg129 O138 2.081 1_455 S
Mg129 O140 2.023 . S
Mg129 O144 2.031 1_455 S
Mg129 O153 2.291 . S
Mg130 O131 1.963 . S
Mg130 O141 1.942 . S
Mg130 O142 1.955 1_655 S
Mg130 O149 1.986 . S
O131 Mg129 1.936 1_655 S
O131 Mg130 1.963 . S
O131 Mg132 1.915 1_655 S
Mg132 O131 1.915 1_455 S
Mg132 O133 1.915 . S
Mg132 O137 2.013 . S
Mg132 O143 2.114 1_455 S
Mg132 O147 2.013 1_455 S
Mg132 O153 2.114 . S
O133 Mg132 1.915 . S
O133 Mg134 1.936 . S
O133 Mg135 1.963 . S
Mg134 O133 1.936 . S
Mg134 O143 2.291 1_455 S
Mg134 O148 2.081 . S
Mg134 O150 2.023 1_455 S
Mg134 O154 2.031 . S
Mg135 O133 1.963 . S
Mg135 O139 1.986 . S
Mg135 O151 1.942 . S
Mg135 O152 1.955 1_455 S
C136 O147 1.191 . S
C136 O149 1.307 . S
O137 Mg132 2.013 . S
O137 C156 1.191 . S
O138 Mg129 2.081 1_655 S
O138 C146 1.331 . S
O139 Mg135 1.986 . S
O139 C156 1.307 . S
O140 Mg129 2.023 . S
O140 C155 1.264 . S
O141 Mg130 1.942 . S
O141 C146 1.244 . S
O142 Mg130 1.955 1_455 S
O142 C155 1.273 . S
O143 Mg132 2.114 1_655 S
O143 Mg134 2.291 1_655 S
O143 C145 1.312 . S
O144 Mg129 2.031 1_655 S
O144 C145 1.208 . S
C145 O143 1.312 . S
C145 O144 1.208 . S
C146 O138 1.331 . S
C146 O141 1.244 . S
O147 Mg132 2.013 1_655 S
O147 C136 1.191 . S
O148 C127 1.331 . S
O148 Mg134 2.081 . S
O149 Mg130 1.986 . S
O149 C136 1.307 . S
O150 C128 1.264 . S
O150 Mg134 2.023 1_655 S
O151 C127 1.244 . S
O151 Mg135 1.942 . S
O152 C128 1.273 . S
O152 Mg135 1.955 1_655 S
O153 C126 1.312 . S
O153 Mg129 2.291 . S
O153 Mg132 2.114 . S
O154 C126 1.208 . S
O154 Mg134 2.031 . S
C155 O140 1.264 . S
C155 O142 1.273 . S
C156 O137 1.191 . S
C156 O139 1.307 . S
C157 O184 1.312 . S
C157 O185 1.208 . S
C158 O179 1.331 . S
C158 O182 1.244 . S
C159 O181 1.264 . S
C159 O183 1.273 . S
Mg160 O162 1.936 . S
Mg160 O169 2.081 1_545 S
Mg160 O171 2.023 . S
Mg160 O175 2.031 1_545 S
Mg160 O184 2.291 . S
Mg161 O162 1.963 . S
Mg161 O172 1.942 1_545 S
Mg161 O173 1.955 . S
Mg161 O180 1.986 1_545 S
O162 Mg160 1.936 . S
O162 Mg161 1.963 . S
O162 Mg163 1.915 . S
Mg163 O162 1.915 . S
Mg163 O164 1.915 . S
Mg163 O168 2.013 . S
Mg163 O174 2.114 1_545 S
Mg163 O178 2.013 1_545 S
Mg163 O184 2.114 . S
O164 Mg163 1.915 . S
O164 Mg165 1.936 . S
O164 Mg166 1.963 . S
Mg165 O164 1.936 . S
Mg165 O174 2.291 1_545 S
Mg165 O179 2.081 . S
Mg165 O181 2.023 1_545 S
Mg165 O185 2.031 . S
Mg166 O164 1.963 . S
Mg166 O170 1.986 . S
Mg166 O182 1.942 . S
Mg166 O183 1.955 1_545 S
C167 O178 1.191 . S
C167 O180 1.307 . S
O168 Mg163 2.013 . S
O168 C187 1.191 . S
O169 Mg160 2.081 1_565 S
O169 C177 1.331 . S
O170 Mg166 1.986 . S
O170 C187 1.307 . S
O171 Mg160 2.023 . S
O171 C186 1.264 . S
O172 Mg161 1.942 1_565 S
O172 C177 1.244 . S
O173 Mg161 1.955 . S
O173 C186 1.273 . S
O174 Mg163 2.114 1_565 S
O174 Mg165 2.291 1_565 S
O174 C176 1.312 . S
O175 Mg160 2.031 1_565 S
O175 C176 1.208 . S
C176 O174 1.312 . S
C176 O175 1.208 . S
C177 O169 1.331 . S
C177 O172 1.244 . S
O178 Mg163 2.013 1_565 S
O178 C167 1.191 . S
O179 C158 1.331 . S
O179 Mg165 2.081 . S
O180 Mg161 1.986 1_565 S
O180 C167 1.307 . S
O181 C159 1.264 . S
O181 Mg165 2.023 1_565 S
O182 C158 1.244 . S
O182 Mg166 1.942 . S
O183 C159 1.273 . S
O183 Mg166 1.955 1_565 S
O184 C157 1.312 . S
O184 Mg160 2.291 . S
O184 Mg163 2.114 . S
O185 C157 1.208 . S
O185 Mg165 2.031 . S
C186 O171 1.264 . S
C186 O173 1.273 . S
C187 O168 1.191 . S
C187 O170 1.307 . S
C188 O215 1.312 . S
C188 O216 1.208 . S
C189 O210 1.331 . S
C189 O213 1.244 . S
C190 O212 1.264 . S
C190 O214 1.273 . S
Mg191 O193 1.936 . S
Mg191 O200 2.081 . S
Mg191 O202 2.023 . S
Mg191 O206 2.031 . S
Mg191 O215 2.291 . S
Mg192 O193 1.963 . S
Mg192 O203 1.942 . S
Mg192 O204 1.955 . S
Mg192 O211 1.986 . S
O193 Mg191 1.936 . S
O193 Mg192 1.963 . S
O193 Mg194 1.915 . S
Mg194 O193 1.915 . S
Mg194 O195 1.915 . S
Mg194 O199 2.013 . S
Mg194 O205 2.114 . S
Mg194 O209 2.013 . S
Mg194 O215 2.114 . S
O195 Mg194 1.915 . S
O195 Mg196 1.936 . S
O195 Mg197 1.963 . S
Mg196 O195 1.936 . S
Mg196 O205 2.291 . S
Mg196 O210 2.081 . S
Mg196 O212 2.023 . S
Mg196 O216 2.031 . S
Mg197 O195 1.963 . S
Mg197 O201 1.986 . S
Mg197 O213 1.942 . S
Mg197 O214 1.955 . S
C198 O209 1.191 . S
C198 O211 1.307 . S
O199 Mg194 2.013 . S
O199 C218 1.191 . S
O200 Mg191 2.081 . S
O200 C208 1.331 . S
O201 Mg197 1.986 . S
O201 C218 1.307 . S
O202 Mg191 2.023 . S
O202 C217 1.264 . S
O203 Mg192 1.942 . S
O203 C208 1.244 . S
O204 Mg192 1.955 . S
O204 C217 1.273 . S
O205 Mg194 2.114 . S
O205 Mg196 2.291 . S
O205 C207 1.312 . S
O206 Mg191 2.031 . S
O206 C207 1.208 . S
C207 O205 1.312 . S
C207 O206 1.208 . S
C208 O200 1.331 . S
C208 O203 1.244 . S
O209 Mg194 2.013 . S
O209 C198 1.191 . S
O210 C189 1.331 . S
O210 Mg196 2.081 . S
O211 Mg192 1.986 . S
O211 C198 1.307 . S
O212 C190 1.264 . S
O212 Mg196 2.023 . S
O213 C189 1.244 . S
O213 Mg197 1.942 . S
O214 C190 1.273 . S
O214 Mg197 1.955 . S
O215 C188 1.312 . S
O215 Mg191 2.291 . S
O215 Mg194 2.114 . S
O216 C188 1.208 . S
O216 Mg196 2.031 . S
C217 O202 1.264 . S
C217 O204 1.273 . S
C218 O199 1.191 . S
C218 O201 1.307 . S
C219 C220 1.391 . S
C219 C221 1.394 . S
C219 H235 0.931 . S
C220 C219 1.391 . S
C220 C224 1.376 . S
C221 C219 1.394 . S
C221 C222 1.369 . S
C221 C225 1.531 . S
C222 C221 1.369 . S
C222 C223 1.410 . S
C222 C230 1.503 . S
C223 C222 1.410 . S
C223 C224 1.392 . S
C223 C226 1.511 . S
C224 C220 1.376 . S
C224 C223 1.392 . S
C224 H236 0.929 . S
C225 C221 1.531 . S
C225 H237 0.960 . S
C225 H238 0.962 . S
C225 H239 0.960 . S
C226 C223 1.511 . S
C226 H240 0.961 . S
C226 H241 0.961 . S
C226 H242 0.961 . S
C227 C228 1.370 . S
C227 C229 1.363 . S
C227 H243 0.931 . S
C228 C227 1.370 . S
C228 C232 1.408 . S
C229 C227 1.363 . S
C229 C230 1.370 . S
C229 C233 1.524 . S
C230 C222 1.503 . S
C230 C229 1.370 . S
C230 C231 1.403 . S
C231 C230 1.403 . S
C231 C232 1.404 . S
C231 C234 1.539 . S
C232 C228 1.408 . S
C232 C231 1.404 . S
C232 H244 0.930 . S
C233 C229 1.524 . S
C233 H245 0.956 . S
C233 H246 0.961 . S
C233 H247 0.961 . S
C234 C231 1.539 . S
C234 H248 0.958 . S
C234 H249 0.961 . S
C234 H250 0.960 . S
H235 C219 0.931 . S
H236 C224 0.929 . S
H237 C225 0.960 . S
H238 C225 0.962 . S
H239 C225 0.960 . S
H240 C226 0.961 . S
H241 C226 0.961 . S
H242 C226 0.961 . S
H243 C227 0.931 . S
H244 C232 0.930 . S
H245 C233 0.956 . S
H246 C233 0.961 . S
H247 C233 0.961 . S
H248 C234 0.958 . S
H249 C234 0.961 . S
H250 C234 0.960 . S
C251 C252 1.391 . S
C251 C253 1.394 . S
C251 H267 0.931 . S
C252 C251 1.391 . S
C252 C256 1.376 . S
C253 C251 1.394 . S
C253 C254 1.369 . S
C253 C257 1.531 . S
C254 C253 1.369 . S
C254 C255 1.410 . S
C254 C262 1.503 . S
C255 C254 1.410 . S
C255 C256 1.392 . S
C255 C258 1.511 . S
C256 C252 1.376 . S
C256 C255 1.392 . S
C256 H268 0.929 . S
C257 C253 1.531 . S
C257 H269 0.960 . S
C257 H270 0.962 . S
C257 H271 0.960 . S
C258 C255 1.511 . S
C258 H272 0.961 . S
C258 H273 0.961 . S
C258 H274 0.961 . S
C259 C260 1.370 . S
C259 C261 1.363 . S
C259 H275 0.931 . S
C260 C259 1.370 . S
C260 C264 1.408 . S
C261 C259 1.363 . S
C261 C262 1.370 . S
C261 C265 1.524 . S
C262 C254 1.503 . S
C262 C261 1.370 . S
C262 C263 1.403 . S
C263 C262 1.403 . S
C263 C264 1.404 . S
C263 C266 1.539 . S
C264 C260 1.408 . S
C264 C263 1.404 . S
C264 H276 0.930 . S
C265 C261 1.524 . S
C265 H277 0.956 . S
C265 H278 0.961 . S
C265 H279 0.961 . S
C266 C263 1.539 . S
C266 H280 0.958 . S
C266 H281 0.961 . S
C266 H282 0.960 . S
H267 C251 0.931 . S
H268 C256 0.929 . S
H269 C257 0.960 . S
H270 C257 0.962 . S
H271 C257 0.960 . S
H272 C258 0.961 . S
H273 C258 0.961 . S
H274 C258 0.961 . S
H275 C259 0.931 . S
H276 C264 0.930 . S
H277 C265 0.956 . S
H278 C265 0.961 . S
H279 C265 0.961 . S
H280 C266 0.958 . S
H281 C266 0.961 . S
H282 C266 0.960 . S
C283 C284 1.391 . S
C283 C285 1.394 . S
C283 H299 0.931 . S
C284 C283 1.391 . S
C284 C288 1.376 . S
C285 C283 1.394 . S
C285 C286 1.369 . S
C285 C289 1.531 . S
C286 C285 1.369 . S
C286 C287 1.410 . S
C286 C294 1.503 . S
C287 C286 1.410 . S
C287 C288 1.392 . S
C287 C290 1.511 . S
C288 C284 1.376 . S
C288 C287 1.392 . S
C288 H300 0.929 . S
C289 C285 1.531 . S
C289 H301 0.960 . S
C289 H302 0.962 . S
C289 H303 0.960 . S
C290 C287 1.511 . S
C290 H304 0.961 . S
C290 H305 0.961 . S
C290 H306 0.961 . S
C291 C292 1.370 . S
C291 C293 1.363 . S
C291 H307 0.931 . S
C292 C291 1.370 . S
C292 C296 1.408 . S
C293 C291 1.363 . S
C293 C294 1.370 . S
C293 C297 1.524 . S
C294 C286 1.503 . S
C294 C293 1.370 . S
C294 C295 1.403 . S
C295 C294 1.403 . S
C295 C296 1.404 . S
C295 C298 1.539 . S
C296 C292 1.408 . S
C296 C295 1.404 . S
C296 H308 0.930 . S
C297 C293 1.524 . S
C297 H309 0.956 . S
C297 H310 0.961 . S
C297 H311 0.961 . S
C298 C295 1.539 . S
C298 H312 0.958 . S
C298 H313 0.961 . S
C298 H314 0.960 . S
H299 C283 0.931 . S
H300 C288 0.929 . S
H301 C289 0.960 . S
H302 C289 0.962 . S
H303 C289 0.960 . S
H304 C290 0.961 . S
H305 C290 0.961 . S
H306 C290 0.961 . S
H307 C291 0.931 . S
H308 C296 0.930 . S
H309 C297 0.956 . S
H310 C297 0.961 . S
H311 C297 0.961 . S
H312 C298 0.958 . S
H313 C298 0.961 . S
H314 C298 0.960 . S
C315 C316 1.391 . S
C315 C317 1.394 . S
C315 H331 0.931 . S
C316 C315 1.391 . S
C316 C320 1.376 . S
C317 C315 1.394 . S
C317 C318 1.369 . S
C317 C321 1.531 . S
C318 C317 1.369 . S
C318 C319 1.410 . S
C318 C326 1.503 . S
C319 C318 1.410 . S
C319 C320 1.392 . S
C319 C322 1.511 . S
C320 C316 1.376 . S
C320 C319 1.392 . S
C320 H332 0.929 . S
C321 C317 1.531 . S
C321 H333 0.960 . S
C321 H334 0.962 . S
C321 H335 0.960 . S
C322 C319 1.511 . S
C322 H336 0.961 . S
C322 H337 0.961 . S
C322 H338 0.961 . S
C323 C324 1.370 . S
C323 C325 1.363 . S
C323 H339 0.931 . S
C324 C323 1.370 . S
C324 C328 1.408 . S
C325 C323 1.363 . S
C325 C326 1.370 . S
C325 C329 1.524 . S
C326 C318 1.503 . S
C326 C325 1.370 . S
C326 C327 1.403 . S
C327 C326 1.403 . S
C327 C328 1.404 . S
C327 C330 1.539 . S
C328 C324 1.408 . S
C328 C327 1.404 . S
C328 H340 0.930 . S
C329 C325 1.524 . S
C329 H341 0.956 . S
C329 H342 0.961 . S
C329 H343 0.961 . S
C330 C327 1.539 . S
C330 H344 0.958 . S
C330 H345 0.961 . S
C330 H346 0.960 . S
H331 C315 0.931 . S
H332 C320 0.929 . S
H333 C321 0.960 . S
H334 C321 0.962 . S
H335 C321 0.960 . S
H336 C322 0.961 . S
H337 C322 0.961 . S
H338 C322 0.961 . S
H339 C323 0.931 . S
H340 C328 0.930 . S
H341 C329 0.956 . S
H342 C329 0.961 . S
H343 C329 0.961 . S
H344 C330 0.958 . S
H345 C330 0.961 . S
H346 C330 0.960 . S
C347 C348 1.391 . S
C347 C349 1.394 . S
C347 H363 0.931 . S
C348 C347 1.391 . S
C348 C352 1.376 . S
C349 C347 1.394 . S
C349 C350 1.369 . S
C349 C353 1.531 . S
C350 C349 1.369 . S
C350 C351 1.410 . S
C350 C358 1.503 . S
C351 C350 1.410 . S
C351 C352 1.392 . S
C351 C354 1.511 . S
C352 C348 1.376 . S
C352 C351 1.392 . S
C352 H364 0.929 . S
C353 C349 1.531 . S
C353 H365 0.960 . S
C353 H366 0.962 . S
C353 H367 0.960 . S
C354 C351 1.511 . S
C354 H368 0.961 . S
C354 H369 0.961 . S
C354 H370 0.961 . S
C355 C356 1.370 . S
C355 C357 1.363 . S
C355 H371 0.931 . S
C356 C355 1.370 . S
C356 C360 1.408 . S
C357 C355 1.363 . S
C357 C358 1.370 . S
C357 C361 1.524 . S
C358 C350 1.503 . S
C358 C357 1.370 . S
C358 C359 1.403 . S
C359 C358 1.403 . S
C359 C360 1.404 . S
C359 C362 1.539 . S
C360 C356 1.408 . S
C360 C359 1.404 . S
C360 H372 0.930 . S
C361 C357 1.524 . S
C361 H373 0.956 . S
C361 H374 0.961 . S
C361 H375 0.961 . S
C362 C359 1.539 . S
C362 H376 0.958 . S
C362 H377 0.961 . S
C362 H378 0.960 . S
H363 C347 0.931 . S
H364 C352 0.929 . S
H365 C353 0.960 . S
H366 C353 0.962 . S
H367 C353 0.960 . S
H368 C354 0.961 . S
H369 C354 0.961 . S
H370 C354 0.961 . S
H371 C355 0.931 . S
H372 C360 0.930 . S
H373 C361 0.956 . S
H374 C361 0.961 . S
H375 C361 0.961 . S
H376 C362 0.958 . S
H377 C362 0.961 . S
H378 C362 0.960 . S
C379 C380 1.391 . S
C379 C381 1.394 . S
C379 H395 0.931 . S
C380 C379 1.391 . S
C380 C384 1.376 . S
C381 C379 1.394 . S
C381 C382 1.369 . S
C381 C385 1.531 . S
C382 C381 1.369 . S
C382 C383 1.410 . S
C382 C390 1.503 . S
C383 C382 1.410 . S
C383 C384 1.392 . S
C383 C386 1.511 . S
C384 C380 1.376 . S
C384 C383 1.392 . S
C384 H396 0.929 . S
C385 C381 1.531 . S
C385 H397 0.960 . S
C385 H398 0.962 . S
C385 H399 0.960 . S
C386 C383 1.511 . S
C386 H400 0.961 . S
C386 H401 0.961 . S
C386 H402 0.961 . S
C387 C388 1.370 . S
C387 C389 1.363 . S
C387 H403 0.931 . S
C388 C387 1.370 . S
C388 C392 1.408 . S
C389 C387 1.363 . S
C389 C390 1.370 . S
C389 C393 1.524 . S
C390 C382 1.503 . S
C390 C389 1.370 . S
C390 C391 1.403 . S
C391 C390 1.403 . S
C391 C392 1.404 . S
C391 C394 1.539 . S
C392 C388 1.408 . S
C392 C391 1.404 . S
C392 H404 0.930 . S
C393 C389 1.524 . S
C393 H405 0.956 . S
C393 H406 0.961 . S
C393 H407 0.961 . S
C394 C391 1.539 . S
C394 H408 0.958 . S
C394 H409 0.961 . S
C394 H410 0.960 . S
H395 C379 0.931 . S
H396 C384 0.929 . S
H397 C385 0.960 . S
H398 C385 0.962 . S
H399 C385 0.960 . S
H400 C386 0.961 . S
H401 C386 0.961 . S
H402 C386 0.961 . S
H403 C387 0.931 . S
H404 C392 0.930 . S
H405 C393 0.956 . S
H406 C393 0.961 . S
H407 C393 0.961 . S
H408 C394 0.958 . S
H409 C394 0.961 . S
H410 C394 0.960 . S
C411 C412 1.391 . S
C411 C413 1.394 . S
C411 H427 0.931 . S
C412 C411 1.391 . S
C412 C416 1.376 . S
C413 C411 1.394 . S
C413 C414 1.369 . S
C413 C417 1.531 . S
C414 C413 1.369 . S
C414 C415 1.410 . S
C414 C422 1.503 . S
C415 C414 1.410 . S
C415 C416 1.392 . S
C415 C418 1.511 . S
C416 C412 1.376 . S
C416 C415 1.392 . S
C416 H428 0.929 . S
C417 C413 1.531 . S
C417 H429 0.960 . S
C417 H430 0.962 . S
C417 H431 0.960 . S
C418 C415 1.511 . S
C418 H432 0.961 . S
C418 H433 0.961 . S
C418 H434 0.961 . S
C419 C420 1.370 . S
C419 C421 1.363 . S
C419 H435 0.931 . S
C420 C419 1.370 . S
C420 C424 1.408 . S
C421 C419 1.363 . S
C421 C422 1.370 . S
C421 C425 1.524 . S
C422 C414 1.503 . S
C422 C421 1.370 . S
C422 C423 1.403 . S
C423 C422 1.403 . S
C423 C424 1.404 . S
C423 C426 1.539 . S
C424 C420 1.408 . S
C424 C423 1.404 . S
C424 H436 0.930 . S
C425 C421 1.524 . S
C425 H437 0.956 . S
C425 H438 0.961 . S
C425 H439 0.961 . S
C426 C423 1.539 . S
C426 H440 0.958 . S
C426 H441 0.961 . S
C426 H442 0.960 . S
H427 C411 0.931 . S
H428 C416 0.929 . S
H429 C417 0.960 . S
H430 C417 0.962 . S
H431 C417 0.960 . S
H432 C418 0.961 . S
H433 C418 0.961 . S
H434 C418 0.961 . S
H435 C419 0.931 . S
H436 C424 0.930 . S
H437 C425 0.956 . S
H438 C425 0.961 . S
H439 C425 0.961 . S
H440 C426 0.958 . S
H441 C426 0.961 . S
H442 C426 0.960 . S
C443 C444 1.391 . S
C443 C445 1.394 . S
C443 H459 0.931 . S
C444 C443 1.391 . S
C444 C448 1.376 . S
C445 C443 1.394 . S
C445 C446 1.369 . S
C445 C449 1.531 . S
C446 C445 1.369 . S
C446 C447 1.410 . S
C446 C454 1.503 . S
C447 C446 1.410 . S
C447 C448 1.392 . S
C447 C450 1.511 . S
C448 C444 1.376 . S
C448 C447 1.392 . S
C448 H460 0.929 . S
C449 C445 1.531 . S
C449 H461 0.960 . S
C449 H462 0.962 . S
C449 H463 0.960 . S
C450 C447 1.511 . S
C450 H464 0.961 . S
C450 H465 0.961 . S
C450 H466 0.961 . S
C451 C452 1.370 . S
C451 C453 1.363 . S
C451 H467 0.931 . S
C452 C451 1.370 . S
C452 C456 1.408 . S
C453 C451 1.363 . S
C453 C454 1.370 . S
C453 C457 1.524 . S
C454 C446 1.503 . S
C454 C453 1.370 . S
C454 C455 1.403 . S
C455 C454 1.403 . S
C455 C456 1.404 . S
C455 C458 1.539 . S
C456 C452 1.408 . S
C456 C455 1.404 . S
C456 H468 0.930 . S
C457 C453 1.524 . S
C457 H469 0.956 . S
C457 H470 0.961 . S
C457 H471 0.961 . S
C458 C455 1.539 . S
C458 H472 0.958 . S
C458 H473 0.961 . S
C458 H474 0.960 . S
H459 C443 0.931 . S
H460 C448 0.929 . S
H461 C449 0.960 . S
H462 C449 0.962 . S
H463 C449 0.960 . S
H464 C450 0.961 . S
H465 C450 0.961 . S
H466 C450 0.961 . S
H467 C451 0.931 . S
H468 C456 0.930 . S
H469 C457 0.956 . S
H470 C457 0.961 . S
H471 C457 0.961 . S
H472 C458 0.958 . S
H473 C458 0.961 . S
H474 C458 0.960 . S
C475 C476 1.391 . S
C475 C477 1.394 . S
C475 H491 0.931 . S
C476 C475 1.391 . S
C476 C480 1.376 . S
C477 C475 1.394 . S
C477 C478 1.369 . S
C477 C481 1.531 . S
C478 C477 1.369 . S
C478 C479 1.410 . S
C478 C486 1.503 . S
C479 C478 1.410 . S
C479 C480 1.392 . S
C479 C482 1.511 . S
C480 C476 1.376 . S
C480 C479 1.392 . S
C480 H492 0.929 . S
C481 C477 1.531 . S
C481 H493 0.960 . S
C481 H494 0.962 . S
C481 H495 0.960 . S
C482 C479 1.511 . S
C482 H496 0.961 . S
C482 H497 0.961 . S
C482 H498 0.961 . S
C483 C484 1.370 . S
C483 C485 1.363 . S
C483 H499 0.931 . S
C484 C483 1.370 . S
C484 C488 1.408 . S
C485 C483 1.363 . S
C485 C486 1.370 . S
C485 C489 1.524 . S
C486 C478 1.503 . S
C486 C485 1.370 . S
C486 C487 1.403 . S
C487 C486 1.403 . S
C487 C488 1.404 . S
C487 C490 1.539 . S
C488 C484 1.408 . S
C488 C487 1.404 . S
C488 H500 0.930 . S
C489 C485 1.524 . S
C489 H501 0.956 . S
C489 H502 0.961 . S
C489 H503 0.961 . S
C490 C487 1.539 . S
C490 H504 0.958 . S
C490 H505 0.961 . S
C490 H506 0.960 . S
H491 C475 0.931 . S
H492 C480 0.929 . S
H493 C481 0.960 . S
H494 C481 0.962 . S
H495 C481 0.960 . S
H496 C482 0.961 . S
H497 C482 0.961 . S
H498 C482 0.961 . S
H499 C483 0.931 . S
H500 C488 0.930 . S
H501 C489 0.956 . S
H502 C489 0.961 . S
H503 C489 0.961 . S
H504 C490 0.958 . S
H505 C490 0.961 . S
H506 C490 0.960 . S
C507 C508 1.391 1_556 S
C507 C509 1.394 . S
C507 H523 0.931 . S
C508 C507 1.391 1_554 S
C508 C512 1.376 . S
C509 C507 1.394 . S
C509 C510 1.369 . S
C509 C513 1.531 . S
C510 C509 1.369 . S
C510 C511 1.410 1_556 S
C510 C518 1.503 . S
C511 C510 1.410 1_554 S
C511 C512 1.392 . S
C511 C514 1.511 . S
C512 C508 1.376 . S
C512 C511 1.392 . S
C512 H524 0.929 . S
C513 C509 1.531 . S
C513 H525 0.960 . S
C513 H526 0.962 . S
C513 H527 0.960 . S
C514 C511 1.511 . S
C514 H528 0.961 . S
C514 H529 0.961 . S
C514 H530 0.961 . S
C515 C516 1.370 . S
C515 C517 1.363 . S
C515 H531 0.931 . S
C516 C515 1.370 . S
C516 C520 1.408 . S
C517 C515 1.363 . S
C517 C518 1.370 . S
C517 C521 1.524 . S
C518 C510 1.503 . S
C518 C517 1.370 . S
C518 C519 1.403 . S
C519 C518 1.403 . S
C519 C520 1.404 . S
C519 C522 1.539 . S
C520 C516 1.408 . S
C520 C519 1.404 . S
C520 H532 0.930 . S
C521 C517 1.524 . S
C521 H533 0.956 . S
C521 H534 0.961 1_556 S
C521 H535 0.961 1_556 S
C522 C519 1.539 . S
C522 H536 0.958 . S
C522 H537 0.961 . S
C522 H538 0.960 . S
H523 C507 0.931 . S
H524 C512 0.929 . S
H525 C513 0.960 . S
H526 C513 0.962 . S
H527 C513 0.960 . S
H528 C514 0.961 . S
H529 C514 0.961 . S
H530 C514 0.961 . S
H531 C515 0.931 . S
H532 C520 0.930 . S
H533 C521 0.956 . S
H534 C521 0.961 1_554 S
H535 C521 0.961 1_554 S
H536 C522 0.958 . S
H537 C522 0.961 . S
H538 C522 0.960 . S
C539 C540 1.391 . S
C539 C541 1.394 1_554 S
C539 H555 0.931 . S
C540 C539 1.391 . S
C540 C544 1.376 . S
C541 C539 1.394 1_556 S
C541 C542 1.369 . S
C541 C545 1.531 . S
C542 C541 1.369 . S
C542 C543 1.410 . S
C542 C550 1.503 . S
C543 C542 1.410 . S
C543 C544 1.392 1_556 S
C543 C546 1.511 . S
C544 C540 1.376 . S
C544 C543 1.392 1_554 S
C544 H556 0.929 . S
C545 C541 1.531 . S
C545 H557 0.960 . S
C545 H558 0.962 1_556 S
C545 H559 0.960 . S
C546 C543 1.511 . S
C546 H560 0.961 . S
C546 H561 0.961 . S
C546 H562 0.961 . S
C547 C548 1.370 . S
C547 C549 1.363 . S
C547 H563 0.931 . S
C548 C547 1.370 . S
C548 C552 1.408 . S
C549 C547 1.363 . S
C549 C550 1.370 . S
C549 C553 1.524 1_556 S
C550 C542 1.503 . S
C550 C549 1.370 . S
C550 C551 1.403 . S
C551 C550 1.403 . S
C551 C552 1.404 . S
C551 C554 1.539 . S
C552 C548 1.408 . S
C552 C551 1.404 . S
C552 H564 0.930 . S
C553 C549 1.524 1_554 S
C553 H565 0.956 . S
C553 H566 0.961 . S
C553 H567 0.961 . S
C554 C551 1.539 . S
C554 H568 0.958 . S
C554 H569 0.961 . S
C554 H570 0.960 . S
H555 C539 0.931 . S
H556 C544 0.929 . S
H557 C545 0.960 . S
H558 C545 0.962 1_554 S
H559 C545 0.960 . S
H560 C546 0.961 . S
H561 C546 0.961 . S
H562 C546 0.961 . S
H563 C547 0.931 . S
H564 C552 0.930 . S
H565 C553 0.956 . S
H566 C553 0.961 . S
H567 C553 0.961 . S
H568 C554 0.958 . S
H569 C554 0.961 . S
H570 C554 0.960 . S
C571 C572 1.391 . S
C571 C573 1.394 . S
C571 H587 0.931 1_556 S
C572 C571 1.391 . S
C572 C576 1.376 . S
C573 C571 1.394 . S
C573 C574 1.369 . S
C573 C577 1.531 . S
C574 C573 1.369 . S
C574 C575 1.410 . S
C574 C582 1.503 . S
C575 C574 1.410 . S
C575 C576 1.392 . S
C575 C578 1.511 . S
C576 C572 1.376 . S
C576 C575 1.392 . S
C576 H588 0.929 . S
C577 C573 1.531 . S
C577 H589 0.960 . S
C577 H590 0.962 . S
C577 H591 0.960 . S
C578 C575 1.511 . S
C578 H592 0.961 . S
C578 H593 0.961 . S
C578 H594 0.961 . S
C579 C580 1.370 . S
C579 C581 1.363 . S
C579 H595 0.931 . S
C580 C579 1.370 . S
C580 C584 1.408 . S
C581 C579 1.363 . S
C581 C582 1.370 . S
C581 C585 1.524 . S
C582 C574 1.503 . S
C582 C581 1.370 . S
C582 C583 1.403 . S
C583 C582 1.403 . S
C583 C584 1.404 . S
C583 C586 1.539 . S
C584 C580 1.408 . S
C584 C583 1.404 . S
C584 H596 0.930 . S
C585 C581 1.524 . S
C585 H597 0.956 1_556 S
C585 H598 0.961 . S
C585 H599 0.961 . S
C586 C583 1.539 . S
C586 H600 0.958 . S
C586 H601 0.961 . S
C586 H602 0.960 . S
H587 C571 0.931 1_554 S
H588 C576 0.929 . S
H589 C577 0.960 . S
H590 C577 0.962 . S
H591 C577 0.960 . S
H592 C578 0.961 . S
H593 C578 0.961 . S
H594 C578 0.961 . S
H595 C579 0.931 . S
H596 C584 0.930 . S
H597 C585 0.956 1_554 S
H598 C585 0.961 . S
H599 C585 0.961 . S
H600 C586 0.958 . S
H601 C586 0.961 . S
H602 C586 0.960 . S
C603 C604 1.391 . S
C603 C605 1.394 . S
C603 H619 0.931 . S
C604 C603 1.391 . S
C604 C608 1.376 . S
C605 C603 1.394 . S
C605 C606 1.369 . S
C605 C609 1.531 . S
C606 C605 1.369 . S
C606 C607 1.410 . S
C606 C614 1.503 . S
C607 C606 1.410 . S
C607 C608 1.392 . S
C607 C610 1.511 . S
C608 C604 1.376 . S
C608 C607 1.392 . S
C608 H620 0.929 . S
C609 C605 1.531 . S
C609 H621 0.960 . S
C609 H622 0.962 . S
C609 H623 0.960 . S
C610 C607 1.511 . S
C610 H624 0.961 . S
C610 H625 0.961 . S
C610 H626 0.961 . S
C611 C612 1.370 . S
C611 C613 1.363 . S
C611 H627 0.931 . S
C612 C611 1.370 . S
C612 C616 1.408 . S
C613 C611 1.363 . S
C613 C614 1.370 . S
C613 C617 1.524 . S
C614 C606 1.503 . S
C614 C613 1.370 . S
C614 C615 1.403 . S
C615 C614 1.403 . S
C615 C616 1.404 . S
C615 C618 1.539 . S
C616 C612 1.408 . S
C616 C615 1.404 . S
C616 H628 0.930 . S
C617 C613 1.524 . S
C617 H629 0.956 . S
C617 H630 0.961 . S
C617 H631 0.961 . S
C618 C615 1.539 . S
C618 H632 0.958 . S
C618 H633 0.961 . S
C618 H634 0.960 . S
H619 C603 0.931 . S
H620 C608 0.929 . S
H621 C609 0.960 . S
H622 C609 0.962 . S
H623 C609 0.960 . S
H624 C610 0.961 . S
H625 C610 0.961 . S
H626 C610 0.961 . S
H627 C611 0.931 . S
H628 C616 0.930 . S
H629 C617 0.956 . S
H630 C617 0.961 . S
H631 C617 0.961 . S
H632 C618 0.958 . S
H633 C618 0.961 . S
H634 C618 0.960 . S
C635 C636 1.391 1_556 S
C635 C637 1.394 . S
C635 H651 0.931 . S
C636 C635 1.391 1_554 S
C636 C640 1.376 . S
C637 C635 1.394 . S
C637 C638 1.369 . S
C637 C641 1.531 . S
C638 C637 1.369 . S
C638 C639 1.410 . S
C638 C646 1.503 . S
C639 C638 1.410 . S
C639 C640 1.392 1_556 S
C639 C642 1.511 1_556 S
C640 C636 1.376 . S
C640 C639 1.392 1_554 S
C640 H652 0.929 . S
C641 C637 1.531 . S
C641 H653 0.960 . S
C641 H654 0.962 . S
C641 H655 0.960 . S
C642 C639 1.511 1_554 S
C642 H656 0.961 . S
C642 H657 0.961 1_554 S
C642 H658 0.961 . S
C643 C644 1.370 . S
C643 C645 1.363 . S
C643 H659 0.931 . S
C644 C643 1.370 . S
C644 C648 1.408 . S
C645 C643 1.363 . S
C645 C646 1.370 . S
C645 C649 1.524 . S
C646 C638 1.503 . S
C646 C645 1.370 . S
C646 C647 1.403 . S
C647 C646 1.403 . S
C647 C648 1.404 . S
C647 C650 1.539 . S
C648 C644 1.408 . S
C648 C647 1.404 . S
C648 H660 0.930 . S
C649 C645 1.524 . S
C649 H661 0.956 . S
C649 H662 0.961 . S
C649 H663 0.961 . S
C650 C647 1.539 . S
C650 H664 0.958 . S
C650 H665 0.961 . S
C650 H666 0.960 . S
H651 C635 0.931 . S
H652 C640 0.929 . S
H653 C641 0.960 . S
H654 C641 0.962 . S
H655 C641 0.960 . S
H656 C642 0.961 . S
H657 C642 0.961 1_556 S
H658 C642 0.961 . S
H659 C643 0.931 . S
H660 C648 0.930 . S
H661 C649 0.956 . S
H662 C649 0.961 . S
H663 C649 0.961 . S
H664 C650 0.958 . S
H665 C650 0.961 . S
H666 C650 0.960 . S
C667 C668 1.391 1_556 S
C667 C669 1.394 . S
C667 H683 0.931 . S
C668 C667 1.391 1_554 S
C668 C672 1.376 . S
C669 C667 1.394 . S
C669 C670 1.369 . S
C669 C673 1.531 . S
C670 C669 1.369 . S
C670 C671 1.410 1_556 S
C670 C678 1.503 . S
C671 C670 1.410 1_554 S
C671 C672 1.392 . S
C671 C674 1.511 . S
C672 C668 1.376 . S
C672 C671 1.392 . S
C672 H684 0.929 . S
C673 C669 1.531 . S
C673 H685 0.960 . S
C673 H686 0.962 . S
C673 H687 0.960 . S
C674 C671 1.511 . S
C674 H688 0.961 . S
C674 H689 0.961 . S
C674 H690 0.961 . S
C675 C676 1.370 . S
C675 C677 1.363 . S
C675 H691 0.931 . S
C676 C675 1.370 . S
C676 C680 1.408 . S
C677 C675 1.363 . S
C677 C678 1.370 . S
C677 C681 1.524 . S
C678 C670 1.503 . S
C678 C677 1.370 . S
C678 C679 1.403 . S
C679 C678 1.403 . S
C679 C680 1.404 . S
C679 C682 1.539 . S
C680 C676 1.408 . S
C680 C679 1.404 . S
C680 H692 0.930 . S
C681 C677 1.524 . S
C681 H693 0.956 . S
C681 H694 0.961 . S
C681 H695 0.961 . S
C682 C679 1.539 . S
C682 H696 0.958 . S
C682 H697 0.961 . S
C682 H698 0.960 . S
H683 C667 0.931 . S
H684 C672 0.929 . S
H685 C673 0.960 . S
H686 C673 0.962 . S
H687 C673 0.960 . S
H688 C674 0.961 . S
H689 C674 0.961 . S
H690 C674 0.961 . S
H691 C675 0.931 . S
H692 C680 0.930 . S
H693 C681 0.956 . S
H694 C681 0.961 . S
H695 C681 0.961 . S
H696 C682 0.958 . S
H697 C682 0.961 . S
H698 C682 0.960 . S
C699 C700 1.391 . S
C699 C701 1.394 . S
C699 H715 0.931 . S
C700 C699 1.391 . S
C700 C704 1.376 1_554 S
C701 C699 1.394 . S
C701 C702 1.369 1_554 S
C701 C705 1.531 . S
C702 C701 1.369 1_556 S
C702 C703 1.410 . S
C702 C710 1.503 . S
C703 C702 1.410 . S
C703 C704 1.392 . S
C703 C706 1.511 . S
C704 C700 1.376 1_556 S
C704 C703 1.392 . S
C704 H716 0.929 . S
C705 C701 1.531 . S
C705 H717 0.960 . S
C705 H718 0.962 . S
C705 H719 0.960 . S
C706 C703 1.511 . S
C706 H720 0.961 . S
C706 H721 0.961 . S
C706 H722 0.961 . S
C707 C708 1.370 . S
C707 C709 1.363 . S
C707 H723 0.931 . S
C708 C707 1.370 . S
C708 C712 1.408 . S
C709 C707 1.363 . S
C709 C710 1.370 . S
C709 C713 1.524 . S
C710 C702 1.503 . S
C710 C709 1.370 . S
C710 C711 1.403 . S
C711 C710 1.403 . S
C711 C712 1.404 . S
C711 C714 1.539 . S
C712 C708 1.408 . S
C712 C711 1.404 . S
C712 H724 0.930 . S
C713 C709 1.524 . S
C713 H725 0.956 1_556 S
C713 H726 0.961 . S
C713 H727 0.961 . S
C714 C711 1.539 . S
C714 H728 0.958 . S
C714 H729 0.961 . S
C714 H730 0.960 . S
H715 C699 0.931 . S
H716 C704 0.929 . S
H717 C705 0.960 . S
H718 C705 0.962 . S
H719 C705 0.960 . S
H720 C706 0.961 . S
H721 C706 0.961 . S
H722 C706 0.961 . S
H723 C707 0.931 . S
H724 C712 0.930 . S
H725 C713 0.956 1_554 S
H726 C713 0.961 . S
H727 C713 0.961 . S
H728 C714 0.958 . S
H729 C714 0.961 . S
H730 C714 0.960 . S
C731 C732 1.391 . S
C731 C733 1.394 . S
C731 H747 0.931 . S
C732 C731 1.391 . S
C732 C736 1.376 . S
C733 C731 1.394 . S
C733 C734 1.369 . S
C733 C737 1.531 . S
C734 C733 1.369 . S
C734 C735 1.410 . S
C734 C742 1.503 . S
C735 C734 1.410 . S
C735 C736 1.392 . S
C735 C738 1.511 . S
C736 C732 1.376 . S
C736 C735 1.392 . S
C736 H748 0.929 1_556 S
C737 C733 1.531 . S
C737 H749 0.960 . S
C737 H750 0.962 . S
C737 H751 0.960 . S
C738 C735 1.511 . S
C738 H752 0.961 . S
C738 H753 0.961 . S
C738 H754 0.961 . S
C739 C740 1.370 . S
C739 C741 1.363 . S
C739 H755 0.931 . S
C740 C739 1.370 . S
C740 C744 1.408 . S
C741 C739 1.363 . S
C741 C742 1.370 . S
C741 C745 1.524 . S
C742 C734 1.503 . S
C742 C741 1.370 . S
C742 C743 1.403 . S
C743 C742 1.403 . S
C743 C744 1.404 . S
C743 C746 1.539 . S
C744 C740 1.408 . S
C744 C743 1.404 . S
C744 H756 0.930 . S
C745 C741 1.524 . S
C745 H757 0.956 . S
C745 H758 0.961 . S
C745 H759 0.961 . S
C746 C743 1.539 . S
C746 H760 0.958 . S
C746 H761 0.961 . S
C746 H762 0.960 . S
H747 C731 0.931 . S
H748 C736 0.929 1_554 S
H749 C737 0.960 . S
H750 C737 0.962 . S
H751 C737 0.960 . S
H752 C738 0.961 . S
H753 C738 0.961 . S
H754 C738 0.961 . S
H755 C739 0.931 . S
H756 C744 0.930 . S
H757 C745 0.956 . S
H758 C745 0.961 . S
H759 C745 0.961 . S
H760 C746 0.958 . S
H761 C746 0.961 . S
H762 C746 0.960 . S
C763 C764 1.391 . S
C763 C765 1.394 . S
C763 H779 0.931 . S
C764 C763 1.391 . S
C764 C768 1.376 . S
C765 C763 1.394 . S
C765 C766 1.369 . S
C765 C769 1.531 . S
C766 C765 1.369 . S
C766 C767 1.410 . S
C766 C774 1.503 . S
C767 C766 1.410 . S
C767 C768 1.392 . S
C767 C770 1.511 . S
C768 C764 1.376 . S
C768 C767 1.392 . S
C768 H780 0.929 . S
C769 C765 1.531 . S
C769 H781 0.960 . S
C769 H782 0.962 . S
C769 H783 0.960 . S
C770 C767 1.511 . S
C770 H784 0.961 . S
C770 H785 0.961 . S
C770 H786 0.961 . S
C771 C772 1.370 . S
C771 C773 1.363 . S
C771 H787 0.931 . S
C772 C771 1.370 . S
C772 C776 1.408 . S
C773 C771 1.363 . S
C773 C774 1.370 . S
C773 C777 1.524 . S
C774 C766 1.503 . S
C774 C773 1.370 . S
C774 C775 1.403 . S
C775 C774 1.403 . S
C775 C776 1.404 . S
C775 C778 1.539 . S
C776 C772 1.408 . S
C776 C775 1.404 . S
C776 H788 0.930 . S
C777 C773 1.524 . S
C777 H789 0.956 . S
C777 H790 0.961 . S
C777 H791 0.961 . S
C778 C775 1.539 . S
C778 H792 0.958 . S
C778 H793 0.961 . S
C778 H794 0.960 . S
H779 C763 0.931 . S
H780 C768 0.929 . S
H781 C769 0.960 . S
H782 C769 0.962 . S
H783 C769 0.960 . S
H784 C770 0.961 . S
H785 C770 0.961 . S
H786 C770 0.961 . S
H787 C771 0.931 . S
H788 C776 0.930 . S
H789 C777 0.956 . S
H790 C777 0.961 . S
H791 C777 0.961 . S
H792 C778 0.958 . S
H793 C778 0.961 . S
H794 C778 0.960 . S
C795 C796 1.391 . S
C795 C797 1.394 . S
C795 H811 0.931 . S
C796 C795 1.391 . S
C796 C800 1.376 . S
C797 C795 1.394 . S
C797 C798 1.369 . S
C797 C801 1.531 . S
C798 C797 1.369 . S
C798 C799 1.410 . S
C798 C806 1.503 . S
C799 C798 1.410 . S
C799 C800 1.392 . S
C799 C802 1.511 . S
C800 C796 1.376 . S
C800 C799 1.392 . S
C800 H812 0.929 . S
C801 C797 1.531 . S
C801 H813 0.960 . S
C801 H814 0.962 . S
C801 H815 0.960 . S
C802 C799 1.511 . S
C802 H816 0.961 . S
C802 H817 0.961 . S
C802 H818 0.961 . S
C803 C804 1.370 . S
C803 C805 1.363 . S
C803 H819 0.931 . S
C804 C803 1.370 . S
C804 C808 1.408 . S
C805 C803 1.363 . S
C805 C806 1.370 . S
C805 C809 1.524 . S
C806 C798 1.503 . S
C806 C805 1.370 . S
C806 C807 1.403 . S
C807 C806 1.403 . S
C807 C808 1.404 . S
C807 C810 1.539 . S
C808 C804 1.408 . S
C808 C807 1.404 . S
C808 H820 0.930 . S
C809 C805 1.524 . S
C809 H821 0.956 . S
C809 H822 0.961 . S
C809 H823 0.961 . S
C810 C807 1.539 . S
C810 H824 0.958 . S
C810 H825 0.961 . S
C810 H826 0.960 . S
H811 C795 0.931 . S
H812 C800 0.929 . S
H813 C801 0.960 . S
H814 C801 0.962 . S
H815 C801 0.960 . S
H816 C802 0.961 . S
H817 C802 0.961 . S
H818 C802 0.961 . S
H819 C803 0.931 . S
H820 C808 0.930 . S
H821 C809 0.956 . S
H822 C809 0.961 . S
H823 C809 0.961 . S
H824 C810 0.958 . S
H825 C810 0.961 . S
H826 C810 0.960 . S
C827 C828 1.391 . S
C827 C829 1.394 . S
C827 H843 0.931 . S
C828 C827 1.391 . S
C828 C832 1.376 . S
C829 C827 1.394 . S
C829 C830 1.369 . S
C829 C833 1.531 . S
C830 C829 1.369 . S
C830 C831 1.410 . S
C830 C838 1.503 . S
C831 C830 1.410 . S
C831 C832 1.392 . S
C831 C834 1.511 . S
C832 C828 1.376 . S
C832 C831 1.392 . S
C832 H844 0.929 . S
C833 C829 1.531 . S
C833 H845 0.960 . S
C833 H846 0.962 . S
C833 H847 0.960 . S
C834 C831 1.511 . S
C834 H848 0.961 . S
C834 H849 0.961 . S
C834 H850 0.961 . S
C835 C836 1.370 . S
C835 C837 1.363 . S
C835 H851 0.931 . S
C836 C835 1.370 . S
C836 C840 1.408 . S
C837 C835 1.363 . S
C837 C838 1.370 . S
C837 C841 1.524 . S
C838 C830 1.503 . S
C838 C837 1.370 . S
C838 C839 1.403 . S
C839 C838 1.403 . S
C839 C840 1.404 . S
C839 C842 1.539 . S
C840 C836 1.408 . S
C840 C839 1.404 . S
C840 H852 0.930 . S
C841 C837 1.524 . S
C841 H853 0.956 . S
C841 H854 0.961 . S
C841 H855 0.961 . S
C842 C839 1.539 . S
C842 H856 0.958 . S
C842 H857 0.961 . S
C842 H858 0.960 . S
H843 C827 0.931 . S
H844 C832 0.929 . S
H845 C833 0.960 . S
H846 C833 0.962 . S
H847 C833 0.960 . S
H848 C834 0.961 . S
H849 C834 0.961 . S
H850 C834 0.961 . S
H851 C835 0.931 . S
H852 C840 0.930 . S
H853 C841 0.956 . S
H854 C841 0.961 . S
H855 C841 0.961 . S
H856 C842 0.958 . S
H857 C842 0.961 . S
H858 C842 0.960 . S
C859 C860 1.391 . S
C859 C861 1.394 . S
C859 H875 0.931 . S
C860 C859 1.391 . S
C860 C864 1.376 . S
C861 C859 1.394 . S
C861 C862 1.369 . S
C861 C865 1.531 . S
C862 C861 1.369 . S
C862 C863 1.410 . S
C862 C870 1.503 . S
C863 C862 1.410 . S
C863 C864 1.392 . S
C863 C866 1.511 . S
C864 C860 1.376 . S
C864 C863 1.392 . S
C864 H876 0.929 . S
C865 C861 1.531 . S
C865 H877 0.960 . S
C865 H878 0.962 . S
C865 H879 0.960 . S
C866 C863 1.511 . S
C866 H880 0.961 . S
C866 H881 0.961 . S
C866 H882 0.961 . S
C867 C868 1.370 . S
C867 C869 1.363 . S
C867 H883 0.931 . S
C868 C867 1.370 . S
C868 C872 1.408 . S
C869 C867 1.363 . S
C869 C870 1.370 . S
C869 C873 1.524 . S
C870 C862 1.503 . S
C870 C869 1.370 . S
C870 C871 1.403 . S
C871 C870 1.403 . S
C871 C872 1.404 . S
C871 C874 1.539 . S
C872 C868 1.408 . S
C872 C871 1.404 . S
C872 H884 0.930 . S
C873 C869 1.524 . S
C873 H885 0.956 . S
C873 H886 0.961 . S
C873 H887 0.961 . S
C874 C871 1.539 . S
C874 H888 0.958 . S
C874 H889 0.961 . S
C874 H890 0.960 . S
H875 C859 0.931 . S
H876 C864 0.929 . S
H877 C865 0.960 . S
H878 C865 0.962 . S
H879 C865 0.960 . S
H880 C866 0.961 . S
H881 C866 0.961 . S
H882 C866 0.961 . S
H883 C867 0.931 . S
H884 C872 0.930 . S
H885 C873 0.956 . S
H886 C873 0.961 . S
H887 C873 0.961 . S
H888 C874 0.958 . S
H889 C874 0.961 . S
H890 C874 0.960 . S
C891 C892 1.391 . S
C891 C893 1.394 . S
C891 H907 0.931 . S
C892 C891 1.391 . S
C892 C896 1.376 . S
C893 C891 1.394 . S
C893 C894 1.369 . S
C893 C897 1.531 . S
C894 C893 1.369 . S
C894 C895 1.410 . S
C894 C902 1.503 . S
C895 C894 1.410 . S
C895 C896 1.392 . S
C895 C898 1.511 . S
C896 C892 1.376 . S
C896 C895 1.392 . S
C896 H908 0.929 . S
C897 C893 1.531 . S
C897 H909 0.960 . S
C897 H910 0.962 . S
C897 H911 0.960 . S
C898 C895 1.511 . S
C898 H912 0.961 . S
C898 H913 0.961 . S
C898 H914 0.961 . S
C899 C900 1.370 . S
C899 C901 1.363 . S
C899 H915 0.931 . S
C900 C899 1.370 . S
C900 C904 1.408 . S
C901 C899 1.363 . S
C901 C902 1.370 . S
C901 C905 1.524 . S
C902 C894 1.503 . S
C902 C901 1.370 . S
C902 C903 1.403 . S
C903 C902 1.403 . S
C903 C904 1.404 . S
C903 C906 1.539 . S
C904 C900 1.408 . S
C904 C903 1.404 . S
C904 H916 0.930 . S
C905 C901 1.524 . S
C905 H917 0.956 . S
C905 H918 0.961 . S
C905 H919 0.961 . S
C906 C903 1.539 . S
C906 H920 0.958 . S
C906 H921 0.961 . S
C906 H922 0.960 . S
H907 C891 0.931 . S
H908 C896 0.929 . S
H909 C897 0.960 . S
H910 C897 0.962 . S
H911 C897 0.960 . S
H912 C898 0.961 . S
H913 C898 0.961 . S
H914 C898 0.961 . S
H915 C899 0.931 . S
H916 C904 0.930 . S
H917 C905 0.956 . S
H918 C905 0.961 . S
H919 C905 0.961 . S
H920 C906 0.958 . S
H921 C906 0.961 . S
H922 C906 0.960 . S
C923 C924 1.391 . S
C923 C925 1.394 . S
C923 H939 0.931 . S
C924 C923 1.391 . S
C924 C928 1.376 . S
C925 C923 1.394 . S
C925 C926 1.369 . S
C925 C929 1.531 . S
C926 C925 1.369 . S
C926 C927 1.410 . S
C926 C934 1.503 . S
C927 C926 1.410 . S
C927 C928 1.392 . S
C927 C930 1.511 . S
C928 C924 1.376 . S
C928 C927 1.392 . S
C928 H940 0.929 . S
C929 C925 1.531 . S
C929 H941 0.960 . S
C929 H942 0.962 . S
C929 H943 0.960 . S
C930 C927 1.511 . S
C930 H944 0.961 . S
C930 H945 0.961 . S
C930 H946 0.961 . S
C931 C932 1.370 . S
C931 C933 1.363 . S
C931 H947 0.931 . S
C932 C931 1.370 . S
C932 C936 1.408 . S
C933 C931 1.363 . S
C933 C934 1.370 . S
C933 C937 1.524 . S
C934 C926 1.503 . S
C934 C933 1.370 . S
C934 C935 1.403 . S
C935 C934 1.403 . S
C935 C936 1.404 . S
C935 C938 1.539 . S
C936 C932 1.408 . S
C936 C935 1.404 . S
C936 H948 0.930 . S
C937 C933 1.524 . S
C937 H949 0.956 . S
C937 H950 0.961 . S
C937 H951 0.961 . S
C938 C935 1.539 . S
C938 H952 0.958 . S
C938 H953 0.961 . S
C938 H954 0.960 . S
H939 C923 0.931 . S
H940 C928 0.929 . S
H941 C929 0.960 . S
H942 C929 0.962 . S
H943 C929 0.960 . S
H944 C930 0.961 . S
H945 C930 0.961 . S
H946 C930 0.961 . S
H947 C931 0.931 . S
H948 C936 0.930 . S
H949 C937 0.956 . S
H950 C937 0.961 . S
H951 C937 0.961 . S
H952 C938 0.958 . S
H953 C938 0.961 . S
H954 C938 0.960 . S
C955 C956 1.391 . S
C955 C957 1.394 . S
C955 H971 0.931 . S
C956 C955 1.391 . S
C956 C960 1.376 . S
C957 C955 1.394 . S
C957 C958 1.369 . S
C957 C961 1.531 . S
C958 C957 1.369 . S
C958 C959 1.410 . S
C958 C966 1.503 . S
C959 C958 1.410 . S
C959 C960 1.392 . S
C959 C962 1.511 . S
C960 C956 1.376 . S
C960 C959 1.392 . S
C960 H972 0.929 . S
C961 C957 1.531 . S
C961 H973 0.960 . S
C961 H974 0.962 . S
C961 H975 0.960 . S
C962 C959 1.511 . S
C962 H976 0.961 . S
C962 H977 0.961 . S
C962 H978 0.961 . S
C963 C964 1.370 . S
C963 C965 1.363 . S
C963 H979 0.931 . S
C964 C963 1.370 . S
C964 C968 1.408 . S
C965 C963 1.363 . S
C965 C966 1.370 . S
C965 C969 1.524 . S
C966 C958 1.503 . S
C966 C965 1.370 . S
C966 C967 1.403 . S
C967 C966 1.403 . S
C967 C968 1.404 . S
C967 C970 1.539 . S
C968 C964 1.408 . S
C968 C967 1.404 . S
C968 H980 0.930 . S
C969 C965 1.524 . S
C969 H981 0.956 . S
C969 H982 0.961 . S
C969 H983 0.961 . S
C970 C967 1.539 . S
C970 H984 0.958 . S
C970 H985 0.961 . S
C970 H986 0.960 . S
H971 C955 0.931 . S
H972 C960 0.929 . S
H973 C961 0.960 . S
H974 C961 0.962 . S
H975 C961 0.960 . S
H976 C962 0.961 . S
H977 C962 0.961 . S
H978 C962 0.961 . S
H979 C963 0.931 . S
H980 C968 0.930 . S
H981 C969 0.956 . S
H982 C969 0.961 . S
H983 C969 0.961 . S
H984 C970 0.958 . S
H985 C970 0.961 . S
H986 C970 0.960 . S
C220 C12 1.652 . S
C228 C126 1.742 . S
C252 C40 1.491 . S
C260 C158 1.538 . S
C292 C217 1.894 . S
C284 C61 1.914 . S
C324 C146 1.419 . S
C316 C82 1.401 . S
C348 C96 1.558 . S
C356 C176 1.618 . S
C388 C198 1.301 . S
C380 C117 1.225 . S
C420 C167 1.737 . S
C412 C51 1.675 . S
C444 C72 1.344 . S
C452 C207 1.312 . S
C484 C156 1.638 . S
C476 C101 1.554 1_556 S
C508 C122 1.454 . S
C516 C186 1.526 . S
C540 C17 1.781 . S
C548 C189 1.834 . S
C580 C128 1.626 . S
C572 C30 1.611 1_556 S
C612 C136 1.680 . S
C604 C80 1.676 . S
C644 C177 1.511 . S
C636 C93 1.444 . S
C676 C190 1.890 . S
C668 C114 1.869 . S
C708 C127 1.449 . S
C700 C9 1.389 . S
C740 C187 1.567 . S
C732 C38 1.592 1_556 S
C764 C59 1.224 . S
C772 C188 1.275 . S
C804 C157 1.670 . S
C796 C124 1.584 . S
C836 C218 1.258 . S
C828 C19 1.234 . S
C868 C145 1.557 . S
C860 C33 1.562 . S
C900 C159 1.522 . S
C892 C54 1.491 . S
C924 C75 1.808 . S
C932 C208 1.813 . S
C956 C103 1.503 . S
C964 C155 1.608 . S
