# Generated by pormake.
# Topology zzz, (3,6)-cn, num edge types: 1
# Building blocks:
#     Node 0, Type 0, BuildingBlock: VETTIZ_charged_linker_0, # of connection points: 3
#     Node 1, Type 0, BuildingBlock: VETTIZ_charged_linker_0, # of connection points: 3
#     Node 2, Type 0, BuildingBlock: VETTIZ_charged_linker_0, # of connection points: 3
#     Node 3, Type 0, BuildingBlock: VETTIZ_charged_linker_0, # of connection points: 3
#     Node 4, Type 0, BuildingBlock: VETTIZ_charged_linker_0, # of connection points: 3
#     Node 5, Type 0, BuildingBlock: VETTIZ_charged_linker_0, # of connection points: 3
#     Node 6, Type 0, BuildingBlock: VETTIZ_charged_linker_0, # of connection points: 3
#     Node 7, Type 0, BuildingBlock: VETTIZ_charged_linker_0, # of connection points: 3
#     Node 8, Type 1, BuildingBlock: BETGAK_clean_sbu_0, # of connection points: 6
#     Node 9, Type 1, BuildingBlock: BETGAK_clean_sbu_0, # of connection points: 6
#     Node 10, Type 1, BuildingBlock: BETGAK_clean_sbu_0, # of connection points: 6
#     Node 11, Type 1, BuildingBlock: BETGAK_clean_sbu_0, # of connection points: 6
#     Edge 12, Type (0, 1), BuildingBlock: CIFDUS_clean_linker_0, # of connection points: 2
#     Edge 13, Type (0, 1), BuildingBlock: CIFDUS_clean_linker_0, # of connection points: 2
#     Edge 14, Type (0, 1), BuildingBlock: CIFDUS_clean_linker_0, # of connection points: 2
#     Edge 15, Type (0, 1), BuildingBlock: CIFDUS_clean_linker_0, # of connection points: 2
#     Edge 16, Type (0, 1), BuildingBlock: CIFDUS_clean_linker_0, # of connection points: 2
#     Edge 17, Type (0, 1), BuildingBlock: CIFDUS_clean_linker_0, # of connection points: 2
#     Edge 18, Type (0, 1), BuildingBlock: CIFDUS_clean_linker_0, # of connection points: 2
#     Edge 19, Type (0, 1), BuildingBlock: CIFDUS_clean_linker_0, # of connection points: 2
#     Edge 20, Type (0, 1), BuildingBlock: CIFDUS_clean_linker_0, # of connection points: 2
#     Edge 21, Type (0, 1), BuildingBlock: CIFDUS_clean_linker_0, # of connection points: 2
#     Edge 22, Type (0, 1), BuildingBlock: CIFDUS_clean_linker_0, # of connection points: 2
#     Edge 23, Type (0, 1), BuildingBlock: CIFDUS_clean_linker_0, # of connection points: 2
#     Edge 24, Type (0, 1), BuildingBlock: CIFDUS_clean_linker_0, # of connection points: 2
#     Edge 25, Type (0, 1), BuildingBlock: CIFDUS_clean_linker_0, # of connection points: 2
#     Edge 26, Type (0, 1), BuildingBlock: CIFDUS_clean_linker_0, # of connection points: 2
#     Edge 27, Type (0, 1), BuildingBlock: CIFDUS_clean_linker_0, # of connection points: 2
#     Edge 28, Type (0, 1), BuildingBlock: CIFDUS_clean_linker_0, # of connection points: 2
#     Edge 29, Type (0, 1), BuildingBlock: CIFDUS_clean_linker_0, # of connection points: 2
#     Edge 30, Type (0, 1), BuildingBlock: CIFDUS_clean_linker_0, # of connection points: 2
#     Edge 31, Type (0, 1), BuildingBlock: CIFDUS_clean_linker_0, # of connection points: 2
#     Edge 32, Type (0, 1), BuildingBlock: CIFDUS_clean_linker_0, # of connection points: 2
#     Edge 33, Type (0, 1), BuildingBlock: CIFDUS_clean_linker_0, # of connection points: 2
#     Edge 34, Type (0, 1), BuildingBlock: CIFDUS_clean_linker_0, # of connection points: 2
#     Edge 35, Type (0, 1), BuildingBlock: CIFDUS_clean_linker_0, # of connection points: 2
# Relax obj value: 0.483
# Max RMSD: 0.270
# Mean RMSD: 0.257
data_MOF--net-zzz--node1-BETGAK_clean_sbu_0--node2-VETTIZ_charged_linker_0--edge1-CIFDUS_clean_linker_0
_symmetry_space_group_name_H-M    P1
_symmetry_Int_Tables_number       1
_symmetry_cell_setting            triclinic
loop_
_symmetry_equiv_pos_as_xyz
'x, y, z'
_cell_length_a     52.976043
_cell_length_b     52.972655
_cell_length_c     16.543256
_cell_angle_alpha  89.633803
_cell_angle_beta   89.932048
_cell_angle_gamma 89.983854
loop_
_atom_site_label
_atom_site_type_symbol
_atom_site_fract_x
_atom_site_fract_y
_atom_site_fract_z
_atom_type_partial_charge
C0 C 0.81202 0.49906 0.4144 0.0
C1 C 0.83341 0.48632 0.44744 0.0
C2 C 0.83671 0.46064 0.43035 0.0
C3 C 0.80016 0.46088 0.34242 0.0
C4 C 0.7953 0.48568 0.36225 0.0
C5 C 0.7711 0.49476 0.32049 0.0
H6 H 0.67544 0.46379 0.05093 0.0
C7 C 0.78143 0.45238 0.28231 0.0
C8 C 0.76352 0.4717 0.26965 0.0
H9 H 0.68194 0.53437 0.17727 0.0
H10 H 0.72053 0.51927 0.24388 0.0
H11 H 0.72832 0.46496 0.9973 0.0
H12 H 0.69343 0.42428 0.19194 0.0
H13 H 0.71305 0.40319 0.13846 0.0
H14 H 0.68781 0.41909 0.08623 0.0
H15 H 0.7156 0.4341 0.98211 0.0
H16 H 0.74812 0.43885 1.0113 0.0
C17 C 0.7773 0.5178 0.26686 0.0
C18 C 0.75126 0.50063 0.38579 0.0
C19 C 0.80436 0.37611 0.11733 0.0
C20 C 0.79593 0.36851 0.04078 0.0
C21 C 0.77149 0.37557 0.01592 0.0
C22 C 0.75723 0.39265 0.06184 0.0
C23 C 0.76794 0.4034 0.13155 0.0
C24 C 0.79064 0.39421 0.15998 0.0
C25 C 0.80062 0.40927 0.22958 0.0
C26 C 0.78102 0.43016 0.23483 0.0
C27 C 0.76181 0.42644 0.17827 0.0
C28 C 0.82715 0.41951 0.20537 0.0
C29 C 0.80029 0.39196 0.30577 0.0
C30 C 0.68461 0.47584 0.09472 0.0
C31 C 0.67505 0.49997 0.1103 0.0
C32 C 0.68862 0.51548 0.16475 0.0
C33 C 0.71097 0.5067 0.20349 0.0
C34 C 0.72027 0.48235 0.18643 0.0
C35 C 0.707 0.46769 0.13174 0.0
C36 C 0.72039 0.44374 0.1115 0.0
C37 C 0.74275 0.44496 0.16806 0.0
C38 C 0.74324 0.46767 0.21265 0.0
C39 C 0.72846 0.44525 0.02103 0.0
C40 C 0.7028 0.42127 0.13254 0.0
H41 H 0.82446 0.42854 0.3682 0.0
H42 H 0.80862 0.51871 0.42815 0.0
H43 H 0.74924 0.48438 0.42819 0.0
H44 H 0.73244 0.50423 0.35973 0.0
H45 H 0.75694 0.51742 0.42137 0.0
H46 H 0.79346 0.5135 0.22623 0.0
H47 H 0.78249 0.5343 0.30447 0.0
H48 H 0.76126 0.52324 0.22798 0.0
H49 H 0.82311 0.37117 0.13808 0.0
H50 H 0.76441 0.36969 0.9576 0.0
H51 H 0.7392 0.39809 0.0382 0.0
H52 H 0.82765 0.42483 0.14019 0.0
H53 H 0.84201 0.40507 0.21577 0.0
H54 H 0.83269 0.43687 0.23689 0.0
H55 H 0.78694 0.37589 0.2992 0.0
H56 H 0.7936 0.40206 0.36026 0.0
H57 H 0.81923 0.38381 0.318 0.0
H58 H 0.85255 0.45037 0.45581 0.0
C59 C 0.82024 0.44793 0.37927 0.0
C60 C 0.13911 0.77073 0.0898 0.0
C61 C 0.15075 0.79352 0.11308 0.0
C62 C 0.15146 0.79941 0.19633 0.0
C63 C 0.12047 0.76721 0.22256 0.0
C64 C 0.12384 0.75785 0.1459 0.0
C65 C 0.10669 0.73574 0.1304 0.0
H66 H 0.99545 0.68544 0.14096 0.0
C67 C 0.09722 0.75637 0.25658 0.0
C68 C 0.09031 0.73623 0.20715 0.0
H69 H 0.06571 0.6461 0.09332 0.0
H70 H 0.08845 0.6789 0.16544 0.0
H71 H 0.01876 0.70162 0.33892 0.0
H72 H 0.01523 0.74892 0.12299 0.0
H73 H 1.00045 0.76153 0.21085 0.0
H74 H 0.98707 0.73436 0.16273 0.0
H75 H 0.9891 0.70703 0.28866 0.0
H76 H 1.00291 0.73106 0.35056 0.0
C77 C 0.12321 0.71188 0.12194 0.0
C78 C 0.0908 0.74051 0.0535 0.0
C79 C 0.04761 0.81731 0.42943 0.0
C80 C 0.02192 0.82211 0.44241 0.0
C81 C 1.00424 0.80509 0.40833 0.0
C82 C 1.01228 0.7838 0.36299 0.0
C83 C 0.03826 0.77972 0.3496 0.0
C84 C 0.05523 0.79684 0.38186 0.0
C85 C 0.08179 0.79226 0.35493 0.0
C86 C 0.07853 0.76863 0.30428 0.0
C87 C 0.05297 0.7608 0.30135 0.0
C88 C 0.09812 0.78682 0.43049 0.0
C89 C 0.09077 0.81568 0.30488 0.0
C90 C 0.01585 0.68442 0.14247 0.0
C91 C 0.0288 0.66356 0.10695 0.0
C92 C 0.05525 0.66212 0.11613 0.0
C93 C 0.06871 0.68149 0.15323 0.0
C94 C 0.05598 0.70311 0.17802 0.0
C95 C 0.03008 0.70374 0.1808 0.0
C96 C 0.02137 0.72615 0.23217 0.0
C97 C 0.04665 0.73862 0.25543 0.0
C98 C 0.06616 0.72545 0.21678 0.0
C99 C 1.00716 0.71602 0.30679 0.0
C100 C 1.00504 0.74377 0.17956 0.0
H101 H 0.13681 0.79148 0.31376 0.0
H102 H 0.13966 0.76468 0.02747 0.0
H103 H 0.103 0.74169 0.99897 0.0
H104 H 0.07996 0.75841 0.05866 0.0
H105 H 0.07723 0.72491 0.04344 0.0
H106 H 0.14139 0.71625 0.0912 0.0
H107 H 0.11408 0.69756 0.08318 0.0
H108 H 0.12769 0.70354 0.18207 0.0
H109 H 0.06175 0.83028 0.45178 0.0
H110 H 0.98422 0.80829 0.41655 0.0
H111 H 0.9981 0.77161 0.33827 0.0
H112 H 0.08803 0.77405 0.47332 0.0
H113 H 0.10262 0.80457 0.46286 0.0
H114 H 0.11596 0.7771 0.41524 0.0
H115 H 0.07778 0.83208 0.30943 0.0
H116 H 0.09189 0.81152 0.23927 0.0
H117 H 0.10925 0.82287 0.32606 0.0
H118 H 0.16104 0.81609 0.21795 0.0
C119 C 0.13664 0.78589 0.25157 0.0
C120 C 0.83854 0.99319 0.1666 0.0
C121 C 0.85738 1.00812 0.12695 0.0
C122 C 0.85333 0.03441 0.12085 0.0
C123 C 0.8108 0.02942 0.16997 0.0
C124 C 0.81555 1.00476 0.19128 0.0
C125 C 0.79247 0.99362 0.23437 0.0
H126 H 0.66422 1.00367 0.28936 0.0
C127 C 0.7838 0.03457 0.17882 0.0
C128 C 0.77317 0.01533 0.22745 0.0
H129 H 0.71337 0.98887 0.49171 0.0
H130 H 0.75059 0.99758 0.40447 0.0
H131 H 0.69305 0.05433 0.24768 0.0
H132 H 0.69422 0.98033 0.14484 0.0
H133 H 0.70525 1.00016 0.06656 0.0
H134 H 0.67366 1.00425 0.1057 0.0
H135 H 0.66701 0.03878 0.19928 0.0
H136 H 0.68927 0.05653 0.14173 0.0
C137 C 0.79905 0.98737 0.32265 0.0
C138 C 0.78318 0.96993 0.18988 0.0
C139 C 0.74565 0.08576 0.94616 0.0
C140 C 0.72208 0.08379 0.90819 0.0
C141 C 0.70451 0.06574 0.93601 0.0
C142 C 0.7097 0.05074 1.00326 0.0
C143 C 0.73262 0.05384 0.04373 0.0
C144 C 0.75084 0.06983 0.01252 0.0
C145 C 0.77546 0.06734 0.05744 0.0
C146 C 0.76835 0.0477 0.12218 0.0
C147 C 0.74288 0.04105 0.11528 0.0
C148 C 0.78184 0.09305 0.09564 0.0
C149 C 0.79599 0.05816 0.99726 0.0
C150 C 0.68288 1.00109 0.31477 0.0
C151 C 0.68564 0.99463 0.39678 0.0
C152 C 0.71054 0.99307 0.42823 0.0
C153 C 0.73201 0.99736 0.37786 0.0
C154 C 0.72857 1.00318 0.29542 0.0
C155 C 0.70417 1.00623 0.26678 0.0
C156 C 0.70355 0.01918 0.18568 0.0
C157 C 0.73138 0.02508 0.17351 0.0
C158 C 0.74624 1.01368 0.2334 0.0
C159 C 0.68736 0.04347 0.19333 0.0
C160 C 0.69356 1.00016 0.12226 0.0
H161 H 0.82776 0.06511 0.1366 0.0
H162 H 0.84139 0.97314 0.17579 0.0
H163 H 0.77901 0.97442 0.12551 0.0
H164 H 0.76566 0.96253 0.21845 0.0
H165 H 0.79768 0.95479 0.19191 0.0
H166 H 0.80272 1.00489 0.35735 0.0
H167 H 0.81621 0.97531 0.32562 0.0
H168 H 0.78354 0.97671 0.3521 0.0
H169 H 0.7595 0.09933 0.92506 0.0
H170 H 0.68616 0.06406 0.90755 0.0
H171 H 0.69539 0.03776 0.02252 0.0
H172 H 0.76503 0.10105 0.12671 0.0
H173 H 0.7881 0.10677 0.04862 0.0
H174 H 0.79681 0.09141 0.14181 0.0
H175 H 0.79777 0.03725 0.99842 0.0
H176 H 0.81462 0.06678 1.00924 0.0
H177 H 0.79169 0.06367 0.93384 0.0
H178 H 0.86737 0.04664 0.09357 0.0
C179 C 0.83025 0.04509 0.14307 0.0
C180 C 0.51447 0.7091 0.41074 0.0
C181 C 0.50046 0.69181 0.46018 0.0
C182 C 0.47424 0.69585 0.4685 0.0
C183 C 0.4754 0.72804 0.36521 0.0
C184 C 0.5013 0.72794 0.36564 0.0
C185 C 0.51107 0.75033 0.31539 0.0
H186 H 0.47668 0.84341 0.03729 0.0
C187 C 0.46634 0.74544 0.30283 0.0
C188 C 0.48667 0.76026 0.27538 0.0
H189 H 0.54972 0.83666 0.14949 0.0
H190 H 0.53545 0.79885 0.22341 0.0
H191 H 0.47635 0.78939 0.99245 0.0
H192 H 0.43854 0.82809 0.1828 0.0
H193 H 0.41685 0.80786 0.13353 0.0
H194 H 0.43311 0.83176 0.07607 0.0
H195 H 0.44438 0.79928 0.98063 0.0
H196 H 0.45223 0.76827 0.01931 0.0
C197 C 0.53032 0.74113 0.25245 0.0
C198 C 0.52238 0.76973 0.3741 0.0
C199 C 0.39217 0.71376 0.14429 0.0
C200 C 0.38451 0.71947 0.06506 0.0
C201 C 0.39042 0.7434 0.03257 0.0
C202 C 0.40633 0.75993 0.07471 0.0
C203 C 0.41729 0.75192 0.14799 0.0
C204 C 0.40925 0.72966 0.18336 0.0
C205 C 0.42399 0.72293 0.25804 0.0
C206 C 0.44361 0.74412 0.25803 0.0
C207 C 0.43972 0.76075 0.19314 0.0
C208 C 0.43625 0.69661 0.24587 0.0
C209 C 0.40585 0.72369 0.33173 0.0
C210 C 0.48941 0.83436 0.07972 0.0
C211 C 0.51394 0.84365 0.08983 0.0
C212 C 0.53045 0.83027 0.14213 0.0
C213 C 0.52212 0.80857 0.18559 0.0
C214 C 0.49715 0.7999 0.17581 0.0
C215 C 0.48163 0.8126 0.12164 0.0
C216 C 0.45711 0.79923 0.10843 0.0
C217 C 0.45864 0.77862 0.17216 0.0
C218 C 0.4823 0.77845 0.21169 0.0
C219 C 0.45732 0.78855 0.02092 0.0
C220 C 0.43512 0.81767 0.12568 0.0
H221 H 0.44211 0.71713 0.43231 0.0
H222 H 0.53482 0.70778 0.407 0.0
H223 H 0.50882 0.77392 0.42363 0.0
H224 H 0.52673 0.78785 0.3443 0.0
H225 H 0.53999 0.76227 0.40182 0.0
H226 H 0.52193 0.726 0.21473 0.0
H227 H 0.54743 0.73343 0.28257 0.0
H228 H 0.53626 0.75662 0.21151 0.0
H229 H 0.38769 0.69561 0.17108 0.0
H230 H 0.38436 0.74846 0.97208 0.0
H231 H 0.41071 0.77764 0.04641 0.0
H232 H 0.44797 0.69645 0.19004 0.0
H233 H 0.4217 0.68163 0.24083 0.0
H234 H 0.44842 0.69083 0.29659 0.0
H235 H 0.38568 0.72515 0.31364 0.0
H236 H 0.40978 0.7402 0.37085 0.0
H237 H 0.40716 0.70615 0.36862 0.0
H238 H 0.46287 0.68392 0.50746 0.0
C239 C 0.46188 0.71428 0.42286 0.0
C240 C 0.34146 0.51016 0.30295 0.0
C241 C 0.36168 0.52318 0.34206 0.0
C242 C 0.36151 0.54983 0.33995 0.0
C243 C 0.32012 0.54999 0.27993 0.0
C244 C 0.32105 0.52431 0.26944 0.0
C245 C 0.29904 0.51606 0.21537 0.0
H246 H 0.18397 0.5532 0.04918 0.0
C247 C 0.29641 0.55988 0.24824 0.0
C248 C 0.28395 0.54083 0.20484 0.0
H249 H 0.21988 0.48138 1.00941 0.0
H250 H 0.25596 0.49459 0.09274 0.0
H251 H 0.18943 0.59288 0.19228 0.0
H252 H 0.23414 0.58663 0.02182 0.0
H253 H 0.23278 0.61086 0.09424 0.0
H254 H 0.20384 0.59778 0.05494 0.0
H255 H 0.20828 0.57713 0.26843 0.0
H256 H 0.18785 0.55978 0.206 0.0
C257 C 0.28348 0.49557 0.25885 0.0
C258 C 0.31 0.50692 0.13444 0.0
C259 C 0.25339 0.6273 0.41107 0.0
C260 C 0.22883 0.63733 0.40398 0.0
C261 C 0.21738 0.63746 0.32678 0.0
C262 C 0.22803 0.62397 0.26297 0.0
C263 C 0.2498 0.60967 0.27705 0.0
C264 C 0.26343 0.61326 0.34685 0.0
C265 C 0.28754 0.5982 0.34674 0.0
C266 C 0.28383 0.58239 0.26998 0.0
C267 C 0.26091 0.58836 0.23276 0.0
C268 C 0.2888 0.58149 0.42366 0.0
C269 C 0.30989 0.61701 0.34174 0.0
C270 C 0.19953 0.54018 0.05809 0.0
C271 C 0.19883 0.51621 0.02318 0.0
C272 C 0.21984 0.50004 0.03568 0.0
C273 C 0.24078 0.50773 0.08365 0.0
C274 C 0.24103 0.53204 0.11818 0.0
C275 C 0.22044 0.54765 0.10416 0.0
C276 C 0.22304 0.57289 0.14299 0.0
C277 C 0.24886 0.57045 0.18206 0.0
C278 C 0.25976 0.54642 0.16862 0.0
C279 C 0.20117 0.576 0.20549 0.0
C280 C 0.22331 0.59326 0.07532 0.0
H281 H 0.34258 0.5832 0.30107 0.0
H282 H 0.34169 0.48979 0.2984 0.0
H283 H 0.3233 0.52117 0.10911 0.0
H284 H 0.29525 0.50396 0.08856 0.0
H285 H 0.3205 0.48893 0.14297 0.0
H286 H 0.27702 0.50243 0.31879 0.0
H287 H 0.29498 0.47827 0.26851 0.0
H288 H 0.26656 0.49034 0.22368 0.0
H289 H 0.26343 0.62828 0.46789 0.0
H290 H 0.19888 0.64558 0.31717 0.0
H291 H 0.21809 0.62381 0.20668 0.0
H292 H 0.27199 0.56897 0.42774 0.0
H293 H 0.28959 0.59322 0.47898 0.0
H294 H 0.30588 0.56948 0.42424 0.0
H295 H 0.30477 0.63594 0.36542 0.0
H296 H 0.31632 0.61973 0.2783 0.0
H297 H 0.32598 0.61081 0.37983 0.0
H298 H 0.37687 0.5606 0.36563 0.0
C299 C 0.3412 0.56312 0.30712 0.0
C300 C 0.89482 0.23959 0.4222 0.0
C301 C 0.88403 0.21563 0.40852 0.0
C302 C 0.88256 0.20704 0.32781 0.0
C303 C 0.91123 0.23983 0.28588 0.0
C304 C 0.90866 0.25127 0.35993 0.0
C305 C 0.92494 0.27446 0.36592 0.0
H306 H 0.03437 0.32642 0.329 0.0
C307 C 0.93316 0.25089 0.24414 0.0
C308 C 0.94015 0.27242 0.28703 0.0
H309 H 0.96398 0.36446 0.38499 0.0
H310 H 0.941 0.33062 0.31893 0.0
H311 H 0.01747 0.26263 0.35284 0.0
H312 H 1.00699 0.30811 0.13524 0.0
H313 H 0.02375 0.27924 0.12228 0.0
H314 H 0.03794 0.30438 0.17858 0.0
H315 H 0.044 0.27816 0.30595 0.0
H316 H 0.03079 0.2502 0.26219 0.0
C317 C 0.94213 0.27262 0.44121 0.0
C318 C 0.9074 0.29775 0.36987 0.0
C319 C 0.98023 0.19036 0.06271 0.0
C320 C 1.00555 0.18672 0.04119 0.0
C321 C 0.02339 0.20477 0.06841 0.0
C322 C 0.01584 0.22599 0.11503 0.0
C323 C 0.99025 0.22901 0.13654 0.0
C324 C 0.9732 0.21085 0.11119 0.0
C325 C 0.94747 0.21437 0.14661 0.0
C326 C 0.95106 0.23872 0.1933 0.0
C327 C 0.97617 0.24777 0.18745 0.0
C328 C 0.94156 0.19114 0.20206 0.0
C329 C 0.92843 0.21804 0.07665 0.0
C330 C 0.01396 0.32697 0.33059 0.0
C331 C 1.00106 0.34773 0.367 0.0
C332 C 0.97448 0.34854 0.3616 0.0
C333 C 0.96096 0.3286 0.32806 0.0
C334 C 0.9738 0.30707 0.30312 0.0
C335 C 0.99961 0.30705 0.29579 0.0
C336 C 1.00792 0.28448 0.24433 0.0
C337 C 0.98264 0.27088 0.22835 0.0
C338 C 0.96354 0.28395 0.26955 0.0
C339 C 0.02613 0.26789 0.29383 0.0
C340 C 0.0199 0.2945 0.16565 0.0
H341 H 0.89487 0.21185 0.20626 0.0
H342 H 0.89468 0.24774 0.482 0.0
H343 H 0.90247 0.30468 0.30831 0.0
H344 H 0.91595 0.31323 0.40533 0.0
H345 H 0.88945 0.29331 0.40187 0.0
H346 H 0.95379 0.25517 0.43932 0.0
H347 H 0.93079 0.27238 0.49771 0.0
H348 H 0.95499 0.28905 0.445 0.0
H349 H 0.9661 0.17655 0.04609 0.0
H350 H 0.04318 0.20245 0.05373 0.0
H351 H 0.03014 0.23896 0.13452 0.0
H352 H 0.95601 0.17598 0.198 0.0
H353 H 0.92351 0.18192 0.18556 0.0
H354 H 0.94111 0.19631 0.26696 0.0
H355 H 0.93636 0.23075 0.0292 0.0
H356 H 0.91071 0.22706 0.09687 0.0
H357 H 0.92383 0.1997 0.04797 0.0
H358 H 0.87363 0.18931 0.31299 0.0
C359 C 0.89575 0.21945 0.26608 0.0
C360 C 0.30554 0.02385 0.0461 0.0
C361 C 0.32738 0.03696 0.01721 0.0
C362 C 0.33019 0.06257 0.03695 0.0
C363 C 0.29457 0.06017 0.12761 0.0
C364 C 0.28883 0.03634 0.10067 0.0
C365 C 0.2634 0.02796 0.13649 0.0
H366 H 0.17253 0.05507 0.42765 0.0
C367 C 0.27703 0.06732 0.19206 0.0
C368 C 0.25737 0.04943 0.19619 0.0
H369 H 0.16697 0.99479 0.25466 0.0
H370 H 0.20799 1.0073 0.19669 0.0
H371 H 0.22257 0.04325 0.47498 0.0
H372 H 0.19377 0.09913 0.31551 0.0
H373 H 0.21738 0.11385 0.37377 0.0
H374 H 0.19118 0.09865 0.42381 0.0
H375 H 0.21866 0.07479 0.50924 0.0
H376 H 0.24842 0.06374 0.46906 0.0
C377 C 0.26646 1.00243 0.18013 0.0
C378 C 0.24396 0.02686 0.06752 0.0
C379 C 0.31464 0.11543 0.4223 0.0
C380 C 0.30636 0.11568 0.50298 0.0
C381 C 0.28027 0.11559 0.51855 0.0
C382 C 0.26324 0.11019 0.45627 0.0
C383 C 0.2727 0.10355 0.37973 0.0
C384 C 0.29777 0.10796 0.36195 0.0
C385 C 0.30497 0.09862 0.27927 0.0
C386 C 0.2806 0.08513 0.25468 0.0
C387 C 0.26213 0.08776 0.31452 0.0
C388 C 0.32749 0.08003 0.28767 0.0
C389 C 0.31121 0.12189 0.22536 0.0
C390 C 0.1794 0.0449 0.37543 0.0
C391 C 0.16575 0.0245 0.34452 0.0
C392 C 0.17673 1.01094 0.27943 0.0
C393 C 0.20039 0.01831 0.24531 0.0
C394 C 0.21342 0.0393 0.27694 0.0
C395 C 0.20266 0.05178 0.34178 0.0
C396 C 0.21924 0.07187 0.37519 0.0
C397 C 0.2407 0.07172 0.31483 0.0
C398 C 0.23798 0.05233 0.25699 0.0
C399 C 0.22765 0.06322 0.46143 0.0
C400 C 0.2047 0.09727 0.37264 0.0
H401 H 0.31591 0.09402 0.10127 0.0
H402 H 0.30194 1.00459 0.02803 0.0
H403 H 0.24388 0.0449 0.03277 0.0
H404 H 0.2246 0.02388 0.09016 0.0
H405 H 0.24863 1.01135 0.02511 0.0
H406 H 0.28165 1.00356 0.22629 0.0
H407 H 0.27151 0.98737 0.13653 0.0
H408 H 0.24888 0.99676 0.2114 0.0
H409 H 0.33462 0.11628 0.40893 0.0
H410 H 0.27338 0.11643 0.58016 0.0
H411 H 0.24368 0.10903 0.4721 0.0
H412 H 0.32304 0.06487 0.33226 0.0
H413 H 0.34482 0.08993 0.30778 0.0
H414 H 0.33254 0.07084 0.23041 0.0
H415 H 0.31235 0.1397 0.26045 0.0
H416 H 0.29654 0.12496 0.17833 0.0
H417 H 0.3299 0.11992 0.19556 0.0
H418 H 0.34577 0.07344 0.01229 0.0
C419 C 0.31352 0.07433 0.09002 0.0
C420 C 0.51939 0.30149 0.04405 0.0
C421 C 0.534 0.31965 0.99992 0.0
C422 C 0.56043 0.31648 0.99826 0.0
C423 C 0.55782 0.28225 0.09493 0.0
C424 C 0.53193 0.28212 0.08898 0.0
C425 C 0.52116 0.25969 0.13686 0.0
H426 H 0.54224 0.1731 0.44079 0.0
C427 C 0.56583 0.26392 0.15671 0.0
C428 C 0.54515 0.24827 0.17591 0.0
H429 H 0.49452 0.15714 0.23694 0.0
H430 H 0.50957 0.19607 0.16921 0.0
H431 H 0.58557 0.18022 0.33543 0.0
H432 H 0.53852 0.23679 0.44365 0.0
H433 H 0.56985 0.24682 0.45493 0.0
H434 H 0.56009 0.21732 0.49977 0.0
H435 H 0.58973 0.18967 0.4385 0.0
H436 H 0.60587 0.20542 0.35619 0.0
C437 C 0.50795 0.2415 0.0783 0.0
C438 C 0.50274 0.26916 0.20194 0.0
C439 C 0.63364 0.29771 0.34095 0.0
C440 C 0.63895 0.29259 0.4229 0.0
C441 C 0.6316 0.269 0.4551 0.0
C442 C 0.61592 0.25287 0.41104 0.0
C443 C 0.60742 0.26036 0.33399 0.0
C444 C 0.61722 0.28186 0.29862 0.0
C445 C 0.60689 0.28636 0.21494 0.0
C446 C 0.58665 0.26579 0.21072 0.0
C447 C 0.58737 0.2506 0.28041 0.0
C448 C 0.62863 0.28137 0.15456 0.0
C449 C 0.59584 0.31356 0.20828 0.0
C450 C 0.53378 0.1786 0.3837 0.0
C451 C 0.51626 0.16271 0.34638 0.0
C452 C 0.50719 0.16964 0.26875 0.0
C453 C 0.51522 0.19242 0.23052 0.0
C454 C 0.53229 0.20845 0.27041 0.0
C455 C 0.54219 0.20047 0.3438 0.0
C456 C 0.56505 0.21526 0.3675 0.0
C457 C 0.56798 0.23274 0.29523 0.0
C458 C 0.54768 0.23032 0.241 0.0
C459 C 0.58779 0.19684 0.37558 0.0
C460 C 0.55832 0.22976 0.44576 0.0
H461 H 0.59234 0.2962 0.04057 0.0
H462 H 0.49899 0.3025 0.04388 0.0
H463 H 0.51218 0.283 0.24214 0.0
H464 H 0.4959 0.25317 0.23981 0.0
H465 H 0.48612 0.27846 0.17366 0.0
H466 H 0.52194 0.22976 0.0454 0.0
H467 H 0.49663 0.25212 0.03292 0.0
H468 H 0.49442 0.22913 0.11057 0.0
H469 H 0.63992 0.31502 0.3125 0.0
H470 H 0.63636 0.26384 0.51667 0.0
H471 H 0.60982 0.23592 0.44094 0.0
H472 H 0.64082 0.29833 0.14789 0.0
H473 H 0.62178 0.27561 0.09447 0.0
H474 H 0.64078 0.26546 0.17538 0.0
H475 H 0.5753 0.31382 0.22196 0.0
H476 H 0.59912 0.32204 0.14791 0.0
H477 H 0.60462 0.32705 0.25067 0.0
H478 H 0.57232 0.32936 0.9643 0.0
C479 C 0.57222 0.29772 0.04421 0.0
La480 La 0.0329 0.99989 0.79511 0.0
La481 La 0.99343 1.00868 0.68707 0.0
C482 C 0.06328 0.98206 0.89824 0.0
C483 C 0.08046 0.96036 0.89787 0.0
C484 C 0.08453 0.94668 0.82664 0.0
C485 C 0.09894 0.92458 0.82828 0.0
C486 C 0.10975 0.91605 0.90104 0.0
C487 C 0.10667 0.93059 0.9713 0.0
C488 C 0.09204 0.95253 0.96972 0.0
C489 C 0.04965 0.01739 0.65351 0.0
C490 C 0.01455 0.95451 0.68131 0.0
C491 C 0.96318 0.02564 0.58214 0.0
C492 C 0.94331 0.04488 0.58121 0.0
C493 C 0.93762 0.05879 0.65081 0.0
C494 C 0.91971 0.07818 0.64752 0.0
C495 C 0.90718 0.08381 0.57464 0.0
C496 C 0.91224 0.06898 0.50617 0.0
C497 C 0.93018 0.04971 0.5095 0.0
C498 C 0.97614 0.99318 0.8315 0.0
C499 C 1.01192 0.05432 0.80086 0.0
O500 O 0.06892 1.00019 0.84772 0.0
O501 O 0.03921 0.97663 0.89652 0.0
O502 O 0.0575 0.02438 0.7236 0.0
O503 O 0.03272 1.00081 0.6636 0.0
O504 O 0.02538 0.96109 0.75021 0.0
O505 O 1.00329 0.97194 0.63732 0.0
O506 O 0.95866 1.00591 0.62733 0.0
O507 O 0.98625 0.03391 0.59128 0.0
O508 O 0.96795 0.98578 0.76219 0.0
O509 O 0.99391 1.00858 0.81803 0.0
O510 O 1.00044 0.04758 0.73295 0.0
O511 O 0.02375 0.037 0.84413 0.0
H512 H 0.07597 0.9527 0.77029 0.0
H513 H 0.10104 0.91379 0.77328 0.0
H514 H 0.11442 0.92428 0.02853 0.0
H515 H 0.08913 0.96294 0.02512 0.0
H516 H 0.94742 0.05501 0.70705 0.0
H517 H 0.91616 0.08919 0.7013 0.0
H518 H 0.90333 0.07309 0.4487 0.0
H519 H 0.93431 0.03903 0.45541 0.0
La520 La 0.51966 0.02682 0.80019 0.0
La521 La 0.50117 0.99397 0.68585 0.0
C522 C 0.54345 0.05324 0.90037 0.0
C523 C 0.56132 0.07382 0.88534 0.0
C524 C 0.56516 0.08281 0.80621 0.0
C525 C 0.58391 0.10069 0.79018 0.0
C526 C 0.59919 0.10974 0.85305 0.0
C527 C 0.59408 0.10176 0.93297 0.0
C528 C 0.5753 0.08392 0.94888 0.0
C529 C 0.49934 0.0519 0.67523 0.0
C530 C 0.55852 1.00464 0.66852 0.0
C531 C 0.47214 0.97545 0.58206 0.0
C532 C 0.44563 0.98319 0.56866 0.0
C533 C 0.42659 0.97578 0.62346 0.0
C534 C 0.40412 0.98951 0.62864 0.0
C535 C 0.40055 1.01096 0.57985 0.0
C536 C 0.41819 0.01648 0.51884 0.0
C537 C 0.44042 1.00257 0.51276 0.0
C538 C 0.52059 0.96858 0.81146 0.0
C539 C 0.46449 1.0132 0.82446 0.0
O540 O 0.52039 0.05797 0.87758 0.0
O541 O 0.55092 0.03087 0.87731 0.0
O542 O 0.49608 0.05683 0.75052 0.0
O543 O 0.51342 0.03264 0.67143 0.0
O544 O 0.55523 0.01698 0.73716 0.0
O545 O 0.53896 0.99426 0.63225 0.0
O546 O 0.477 0.96443 0.65113 0.0
O547 O 0.48893 0.99279 0.56532 0.0
O548 O 0.52333 0.96252 0.73615 0.0
O549 O 0.50743 0.98849 0.81393 0.0
O550 O 0.46627 1.00904 0.74575 0.0
O551 O 0.48567 0.01577 0.86506 0.0
H552 H 0.55428 0.07528 0.75642 0.0
H553 H 0.58731 0.10646 0.72818 0.0
H554 H 0.60577 0.10787 0.9828 0.0
H555 H 0.57245 0.07723 1.01026 0.0
H556 H 0.42983 0.96071 0.6668 0.0
H557 H 0.39054 0.98459 0.67514 0.0
H558 H 0.41538 0.03239 0.47835 0.0
H559 H 0.45446 1.00844 0.46884 0.0
La560 La 0.4978 0.50939 0.78454 0.0
La561 La 0.53589 0.50206 0.67027 0.0
C562 C 0.46902 0.52672 0.89226 0.0
C563 C 0.45177 0.54839 0.88986 0.0
C564 C 0.44126 0.55772 0.96129 0.0
C565 C 0.42671 0.57975 0.9596 0.0
C566 C 0.42258 0.59282 0.88635 0.0
C567 C 0.4324 0.58278 0.81443 0.0
C568 C 0.44683 0.56073 0.81618 0.0
C569 C 0.47853 0.49788 0.63955 0.0
C570 C 0.51672 0.55683 0.67893 0.0
C571 C 0.56452 0.48722 0.55816 0.0
C572 C 0.58454 0.46828 0.55178 0.0
C573 C 0.59458 0.45676 0.62124 0.0
C574 C 0.61279 0.43781 0.61413 0.0
C575 C 0.62106 0.42995 0.5374 0.0
C576 C 0.61151 0.44231 0.46825 0.0
C577 C 0.59342 0.46132 0.4755 0.0
C578 C 0.5551 0.51363 0.81534 0.0
C579 C 0.51718 0.45442 0.77701 0.0
O580 O 0.46299 0.50803 0.84513 0.0
O581 O 0.49299 0.53233 0.88663 0.0
O582 O 0.47061 0.48934 0.70823 0.0
O583 O 0.49697 0.51234 0.65375 0.0
O584 O 0.50701 0.54892 0.74846 0.0
O585 O 0.52618 0.54005 0.62902 0.0
O586 O 0.54171 0.47852 0.57005 0.0
O587 O 0.56954 0.50627 0.605 0.0
O588 O 0.56286 0.52231 0.7467 0.0
O589 O 0.53678 0.49902 0.80104 0.0
O590 O 0.52776 0.46241 0.70856 0.0
O591 O 0.50658 0.47105 0.82542 0.0
H592 H 0.44496 0.54844 0.01862 0.0
H593 H 0.4198 0.58722 0.01625 0.0
H594 H 0.42947 0.59235 0.75713 0.0
H595 H 0.45474 0.55368 0.76025 0.0
H596 H 0.58796 0.46207 0.68077 0.0
H597 H 0.61987 0.42882 0.66855 0.0
H598 H 0.61701 0.43644 0.40816 0.0
H599 H 0.58586 0.47011 0.42137 0.0
La600 La 1.00489 0.48857 0.7881 0.0
La601 La 0.0242 0.52405 0.68032 0.0
C602 C 0.97964 0.46228 0.88672 0.0
C603 C 0.95875 0.44448 0.8761 0.0
C604 C 0.94946 0.43102 0.94271 0.0
C605 C 0.9288 0.41492 0.93388 0.0
C606 C 0.91705 0.41206 0.85813 0.0
C607 C 0.92703 0.42499 0.79082 0.0
C608 C 0.9478 0.44102 0.79971 0.0
C609 C 0.02351 0.46628 0.65518 0.0
C610 C 0.96793 0.51018 0.65308 0.0
C611 C 0.04792 0.55046 0.57813 0.0
C612 C 0.06653 0.57087 0.58137 0.0
C613 C 0.07994 0.57604 0.6525 0.0
C614 C 0.09801 0.59531 0.65332 0.0
C615 C 0.10275 0.60973 0.58317 0.0
C616 C 0.08841 0.60502 0.51326 0.0
C617 C 0.07049 0.58577 0.51248 0.0
C618 C 1.00568 0.54633 0.81369 0.0
C619 C 0.06121 0.5026 0.81582 0.0
O620 O 1.00116 0.45518 0.85598 0.0
O621 O 0.97459 0.48588 0.86968 0.0
O622 O 0.02627 0.45836 0.72846 0.0
O623 O 1.01081 0.48642 0.65851 0.0
O624 O 0.96941 0.50137 0.72793 0.0
O625 O 0.98907 0.51638 0.61567 0.0
O626 O 0.02565 0.55619 0.60603 0.0
O627 O 0.05537 0.52815 0.6026 0.0
O628 O 1.00321 0.55445 0.74057 0.0
O629 O 0.01833 0.52621 0.80994 0.0
O630 O 0.05979 0.51149 0.74089 0.0
O631 O 0.0401 0.49601 0.85293 0.0
H632 H 0.95779 0.43343 1.00195 0.0
H633 H 0.92129 0.40567 0.9873 0.0
H634 H 0.91844 0.42314 0.73177 0.0
H635 H 0.95499 0.45109 0.74735 0.0
H636 H 0.07673 0.56492 0.70675 0.0
H637 H 0.1087 0.59852 0.70807 0.0
H638 H 0.0919 0.61536 0.45767 0.0
H639 H 0.06007 0.58215 0.45741 0.0
H640 H 0.12852 0.0563 0.39634 0.0
H641 H 0.14717 0.97719 0.38568 0.0
H642 H 0.11076 0.96729 0.47235 0.0
H643 H 0.07629 0.98189 0.56549 0.0
H644 H 0.06081 0.06155 0.58161 0.0
H645 H 0.09307 0.0704 0.47964 0.0
C646 C 0.12462 0.0368 0.41235 0.0
C647 C 0.14101 0.01759 0.38471 0.0
C648 C 0.10409 0.03136 0.46419 0.0
C649 C 0.13505 0.99244 0.40524 0.0
C650 C 0.11427 0.98679 0.45569 0.0
C651 C 0.07956 1.00108 0.54481 0.0
C652 C 0.06576 0.02107 0.58023 0.0
C653 C 0.09899 1.00616 0.48745 0.0
C654 C 0.07081 0.04587 0.55459 0.0
C655 C 0.08942 0.05094 0.49656 0.0
H656 H 0.48857 0.15512 0.48283 0.0
H657 H 0.53205 0.1153 0.30473 0.0
H658 H 0.52993 0.07659 0.38725 0.0
H659 H 0.51884 0.05498 0.51812 0.0
H660 H 0.47394 0.09565 0.6919 0.0
H661 H 0.47326 0.13249 0.60367 0.0
C662 C 0.49698 0.13776 0.4611 0.0
C663 C 0.51015 0.13807 0.38709 0.0
C664 C 0.49572 0.1156 0.5091 0.0
C665 C 0.52137 0.1155 0.3606 0.0
C666 C 0.52037 0.09339 0.40837 0.0
C667 C 0.5086 0.07176 0.53598 0.0
C668 C 0.49677 0.07244 0.6127 0.0
C669 C 0.50807 0.09329 0.48391 0.0
C670 C 0.4835 0.09447 0.63411 0.0
C671 C 0.48307 0.11571 0.5835 0.0
H672 H 0.41245 0.53392 0.34074 0.0
H673 H 0.358 0.48419 0.452 0.0
H674 H 0.38985 0.4704 0.55032 0.0
H675 H 0.43192 0.47622 0.61478 0.0
H676 H 0.48559 0.52712 0.50461 0.0
H677 H 0.45541 0.5368 0.39705 0.0
C678 C 0.40756 0.5198 0.38583 0.0
C679 C 0.38255 0.51032 0.38884 0.0
C680 C 0.42585 0.51246 0.44361 0.0
C681 C 0.37695 0.49173 0.44725 0.0
C682 C 0.39516 0.48406 0.50434 0.0
C683 C 0.43716 0.48918 0.56661 0.0
C684 C 0.46112 0.50105 0.56858 0.0
C685 C 0.41948 0.49486 0.50471 0.0
C686 C 0.46743 0.51772 0.50523 0.0
C687 C 0.45008 0.52332 0.44358 0.0
H688 H 0.99426 0.39889 0.35433 0.0
H689 H 0.03564 0.34278 0.48944 0.0
H690 H 0.04801 0.3749 0.58802 0.0
H691 H 0.04268 0.41805 0.64484 0.0
H692 H 1.00087 0.47373 0.50861 0.0
H693 H 0.99307 0.44286 0.40243 0.0
C694 C 1.00643 0.39375 0.40448 0.0
C695 C 0.0139 0.36826 0.41424 0.0
C696 C 1.01305 0.41229 0.46185 0.0
C697 C 0.02979 0.36215 0.47955 0.0
C698 C 0.03661 0.38053 0.53666 0.0
C699 C 0.0322 0.42355 0.5913 0.0
C700 C 0.02221 0.4483 0.58553 0.0
C701 C 0.02769 0.40552 0.52989 0.0
C702 C 1.00876 0.45496 0.51528 0.0
C703 C 1.00421 0.43723 0.45438 0.0
H704 H 0.90651 0.02506 0.12574 0.0
H705 H 0.8587 0.96731 0.02592 0.0
H706 H 0.89195 0.95609 0.92955 0.0
H707 H 0.93276 0.96625 0.86219 0.0
H708 H 0.98019 0.02434 0.96217 0.0
H709 H 0.94912 0.03186 0.06875 0.0
C710 C 0.90348 1.00969 0.08387 0.0
C711 C 0.87985 0.99718 0.08332 0.0
C712 C 0.92259 1.00367 0.0273 0.0
C713 C 0.87659 0.97715 0.02883 0.0
C714 C 0.89557 0.97094 0.97277 0.0
C715 C 0.93649 0.98028 0.90808 0.0
C716 C 0.95886 0.99484 0.90329 0.0
C717 C 0.91836 0.98459 0.96965 0.0
C718 C 0.96328 1.01285 0.96378 0.0
C719 C 0.9454 0.01724 0.02483 0.0
H720 H 0.494 0.89111 0.09348 0.0
H721 H 0.55098 0.84684 0.9745 0.0
H722 H 0.55901 0.88169 0.87922 0.0
H723 H 0.54728 0.92393 0.82279 0.0
H724 H 0.49187 0.9687 0.94846 0.0
H725 H 0.48598 0.9349 0.04749 0.0
C726 C 0.50853 0.8893 0.04763 0.0
C727 C 0.52193 0.86635 0.04141 0.0
C728 C 0.51317 0.90957 0.99346 0.0
C729 C 0.54061 0.86432 0.98135 0.0
C730 C 0.54504 0.88423 0.92637 0.0
C731 C 0.53418 0.92641 0.87252 0.0
C732 C 0.51991 0.94894 0.87726 0.0
C733 C 0.53109 0.90682 0.93073 0.0
C734 C 0.50314 0.95175 0.94269 0.0
C735 C 0.49966 0.9323 0.9995 0.0
H736 H 0.62978 0.47565 0.0905 0.0
H737 H 0.66911 0.54381 0.02308 0.0
H738 H 0.63499 0.55485 0.92921 0.0
H739 H 0.5955 0.54321 0.85703 0.0
H740 H 0.5556 0.47575 0.92879 0.0
H741 H 0.58811 0.46649 0.02964 0.0
C742 C 0.63072 0.49314 0.05617 0.0
C743 C 0.65218 0.50884 0.06405 0.0
C744 C 0.61091 0.49939 1.00221 0.0
C745 C 0.65286 0.53147 0.01916 0.0
C746 C 0.63339 0.53768 0.96478 0.0
C747 C 0.59373 0.52668 0.89562 0.0
C748 C 0.57306 0.51015 0.88462 0.0
C749 C 0.61254 0.52153 0.95443 0.0
C750 C 0.57113 0.48887 0.9356 0.0
C751 C 0.58985 0.48348 0.99324 0.0
H752 H 0.03442 0.61224 0.11822 0.0
H753 H 0.99559 0.66973 0.98119 0.0
H754 H 0.98319 0.63818 0.88079 0.0
H755 H 0.98775 0.59503 0.82354 0.0
H756 H 0.02688 0.53793 0.96184 0.0
H757 H 0.03481 0.56836 0.06921 0.0
C758 C 0.02283 0.61782 0.06714 0.0
C759 C 0.01608 0.64352 0.05742 0.0
C760 C 0.01617 0.5996 1.00885 0.0
C761 C 1.00089 0.6502 0.99099 0.0
C762 C 0.99405 0.63214 0.9329 0.0
C763 C 0.99767 0.58913 0.87775 0.0
C764 C 1.00694 0.56412 0.88378 0.0
C765 C 1.00223 0.60691 0.93984 0.0
C766 C 0.01964 0.55693 0.95491 0.0
C767 C 0.02424 0.57442 0.0165 0.0
H768 H 0.85143 0.17514 0.42089 0.0
H769 H 0.91062 0.21368 0.55098 0.0
H770 H 0.91861 0.17613 0.6301 0.0
H771 H 0.91768 0.13013 0.634 0.0
H772 H 0.86237 0.0899 0.49359 0.0
H773 H 0.84467 0.12991 0.44574 0.0
C774 C 0.86585 0.1755 0.46729 0.0
C775 C 0.88109 0.19712 0.47647 0.0
C776 C 0.87177 0.15311 0.50914 0.0
C777 C 0.89863 0.1975 0.5406 0.0
C778 C 0.90361 0.17573 0.58558 0.0
C779 C 0.90114 0.13005 0.59544 0.0
C780 C 0.89178 0.10709 0.56572 0.0
C781 C 0.89166 0.15304 0.566 0.0
C782 C 0.87032 0.10738 0.51568 0.0
C783 C 0.8602 0.13025 0.48832 0.0
H784 H 0.3001 0.07199 0.58159 0.0
H785 H 0.35269 0.13336 0.55061 0.0
H786 H 0.38766 0.10529 0.58671 0.0
H787 H 0.40344 0.06169 0.59239 0.0
H788 H 0.35073 0.99972 0.60397 0.0
H789 H 0.31551 0.02952 0.61028 0.0
C790 C 0.31906 0.07956 0.58688 0.0
C791 C 0.32393 0.10463 0.56276 0.0
C792 C 0.33909 0.06286 0.60071 0.0
C793 C 0.34857 0.11415 0.56915 0.0
C794 C 0.36857 0.09795 0.58804 0.0
C795 C 0.38421 0.05477 0.59691 0.0
C796 C 0.37951 0.02864 0.5951 0.0
C797 C 0.36413 0.07197 0.5979 0.0
C798 C 0.35469 0.01978 0.60388 0.0
C799 C 0.33461 0.03681 0.60757 0.0
H800 H 0.66944 0.33371 0.39158 0.0
H801 H 0.62274 0.30033 0.57825 0.0
H802 H 0.61834 0.34089 0.64237 0.0
H803 H 0.61702 0.38642 0.62323 0.0
H804 H 0.65955 0.42106 0.42952 0.0
H805 H 0.67547 0.37969 0.38931 0.0
C806 C 0.65864 0.33519 0.44704 0.0
C807 C 0.64555 0.31396 0.47735 0.0
C808 C 0.65455 0.35908 0.48095 0.0
C809 C 0.63286 0.31611 0.55198 0.0
C810 C 0.62991 0.33956 0.58846 0.0
C811 C 0.63056 0.38516 0.57421 0.0
C812 C 0.63651 0.40674 0.52809 0.0
C813 C 0.63903 0.36132 0.55003 0.0
C814 C 0.65408 0.40461 0.46461 0.0
C815 C 0.66324 0.38097 0.44167 0.0
H816 H 0.18918 0.67021 0.42637 0.0
H817 H 0.23142 0.61141 0.54785 0.0
H818 H 0.19565 0.60231 0.63379 0.0
H819 H 0.14969 0.6013 0.642 0.0
H820 H 0.10575 0.65633 0.51012 0.0
H821 H 0.14442 0.67612 0.46011 0.0
C822 C 0.19076 0.65579 0.47287 0.0
C823 C 0.21264 0.6407 0.47703 0.0
C824 C 0.16936 0.64921 0.51848 0.0
C825 C 0.21482 0.62314 0.54111 0.0
C826 C 0.19409 0.61753 0.58996 0.0
C827 C 0.14851 0.61828 0.60519 0.0
C828 C 0.12491 0.62681 0.57757 0.0
C829 C 0.17075 0.62893 0.57423 0.0
C830 C 0.12376 0.64894 0.53021 0.0
C831 C 0.14588 0.66025 0.50154 0.0
H832 H 0.12436 0.80256 0.97502 0.0
H833 H 0.18663 0.83153 0.11499 0.0
H834 H 0.18163 0.87274 0.05 0.0
H835 H 0.15343 0.90223 0.9768 0.0
H836 H 0.09096 0.87246 0.84009 0.0
H837 H 0.10283 0.82965 0.87861 0.0
C838 C 0.1377 0.81738 0.98929 0.0
C839 C 0.15523 0.81405 0.05253 0.0
C840 C 0.13437 0.84112 0.9531 0.0
C841 C 0.17231 0.83374 0.06881 0.0
C842 C 0.16943 0.85738 0.0318 0.0
C843 C 0.14283 0.88628 0.95401 0.0
C844 C 0.12106 0.89051 0.90714 0.0
C845 C 0.14944 0.86165 0.97786 0.0
C846 C 0.10776 0.86973 0.87644 0.0
C847 C 0.11442 0.84522 0.89897 0.0
H848 H 0.70649 0.13099 0.93548 0.0
H849 H 0.71572 0.07652 0.74645 0.0
H850 H 0.67485 0.08806 0.68993 0.0
H851 H 0.63216 0.09919 0.73255 0.0
H852 H 0.62114 0.14913 0.93445 0.0
H853 H 0.66671 0.15432 0.94736 0.0
C854 C 0.70024 0.123 0.87863 0.0
C855 C 0.71315 0.10208 0.84738 0.0
C856 C 0.67565 0.12805 0.85167 0.0
C857 C 0.70559 0.09226 0.77259 0.0
C858 C 0.68187 0.09843 0.74153 0.0
C859 C 0.63958 0.11233 0.77657 0.0
C860 C 0.62343 0.12272 0.83526 0.0
C861 C 0.66578 0.11411 0.78626 0.0
C862 C 0.63335 0.1401 0.89072 0.0
C863 C 0.65943 0.14299 0.89829 0.0
H864 H 0.40559 0.70812 0.92173 0.0
H865 H 0.34983 0.6818 0.0925 0.0
H866 H 0.35387 0.63894 0.04008 0.0
H867 H 0.38068 0.60811 0.96904 0.0
H868 H 0.43859 0.6349 0.80605 0.0
H869 H 0.42593 0.67834 0.83067 0.0
C870 C 0.39338 0.6933 0.94487 0.0
C871 C 0.37782 0.69801 1.01204 0.0
C872 C 0.39676 0.66856 0.91722 0.0
C873 C 0.36218 0.67854 0.04137 0.0
C874 C 0.36475 0.65397 1.01213 0.0
C875 C 0.39016 0.62347 0.93776 0.0
C876 C 0.41087 0.61829 0.88713 0.0
C877 C 0.38325 0.64854 0.95398 0.0
C878 C 0.42262 0.63831 0.84545 0.0
C879 C 0.4155 0.66323 0.85993 0.0
H880 H 0.80367 0.3898 0.89473 0.0
H881 H 0.83307 0.33248 0.05495 0.0
H882 H 0.87501 0.33761 0.99544 0.0
H883 H 0.90439 0.36689 0.92733 0.0
H884 H 0.87462 0.42695 0.77789 0.0
H885 H 0.83187 0.41188 0.80185 0.0
C886 C 0.8189 0.37744 0.91379 0.0
C887 C 0.81548 0.36134 0.98088 0.0
C888 C 0.84318 0.38164 0.88277 0.0
C889 C 0.83539 0.34533 1.00428 0.0
C890 C 0.85946 0.34856 0.97111 0.0
C891 C 0.88854 0.37626 0.89845 0.0
C892 C 0.89263 0.39842 0.85287 0.0
C893 C 0.86386 0.36809 0.91513 0.0
C894 C 0.87205 0.40997 0.81378 0.0
C895 C 0.84751 0.40147 0.82799 0.0
H896 H 0.98228 0.16563 0.9095 0.0
H897 H 0.04455 0.1538 0.07287 0.0
H898 H 0.05236 0.1123 0.01299 0.0
H899 H 0.03978 0.07792 0.91939 0.0
H900 H 0.97825 0.09075 0.7535 0.0
H901 H 0.97186 0.13285 0.80925 0.0
C902 C 0.99773 0.1541 0.93166 0.0
C903 C 1.01274 0.16305 0.99623 0.0
C904 C 1.0021 0.13012 0.89686 0.0
C905 C 0.03281 0.14774 0.02306 0.0
C906 C 0.03714 0.12381 0.98919 0.0
C907 C 0.02504 0.08996 0.89506 0.0
C908 C 1.00939 0.0808 0.83234 0.0
C909 C 0.02164 0.11456 0.92691 0.0
C910 C 0.99059 0.09699 0.8015 0.0
C911 C 0.98689 0.12119 0.83357 0.0
H912 H 0.37296 0.02175 0.07207 0.0
H913 H 0.32994 0.02943 0.85303 0.0
H914 H 0.36828 0.02218 0.77256 0.0
H915 H 0.41541 0.01778 0.76472 0.0
H916 H 0.45744 1.01071 0.98685 0.0
H917 H 0.41865 1.01382 0.06467 0.0
C918 C 0.37181 0.0209 1.00667 0.0
C919 C 0.34834 0.02534 0.96893 0.0
C920 C 0.39411 0.01741 0.96083 0.0
C921 C 0.34748 0.02521 0.88391 0.0
C922 C 0.36957 0.02145 0.83778 0.0
C923 C 0.416 0.01638 0.82994 0.0
C924 C 0.43966 1.01394 0.86911 0.0
C925 C 0.3932 0.01812 0.87544 0.0
C926 C 0.43983 1.01276 0.95425 0.0
C927 C 0.41751 0.01443 0.99928 0.0
H928 H 0.54597 0.33999 0.85146 0.0
H929 H 0.49846 0.35274 0.05888 0.0
H930 H 0.48814 0.39504 1.0074 0.0
H931 H 0.49591 0.43019 0.90943 0.0
H932 H 0.54427 0.41694 0.70383 0.0
H933 H 0.55116 0.37357 0.74917 0.0
C934 C 0.5331 0.35186 0.88522 0.0
C935 C 0.52317 0.34295 0.9597 0.0
C936 C 0.52773 0.37646 0.85606 0.0
C937 C 0.50624 0.35872 1.00131 0.0
C938 C 0.50059 0.38315 0.97223 0.0
C939 C 0.5078 0.41779 0.87408 0.0
C940 C 0.51964 0.42721 0.80309 0.0
C941 C 0.51174 0.39253 0.90069 0.0
C942 C 0.53488 0.41055 0.75843 0.0
C943 C 0.53887 0.3856 0.78447 0.0
H944 H 0.14976 0.51468 0.07237 0.0
H945 H 0.19635 0.50304 0.86262 0.0
H946 H 0.15841 0.49828 0.77846 0.0
H947 H 0.11123 0.49952 0.76345 0.0
H948 H 0.06567 0.50848 0.97777 0.0
H949 H 0.10351 0.51226 0.05997 0.0
C950 C 0.15162 0.51068 1.00841 0.0
C951 C 0.176 0.50909 0.97416 0.0
C952 C 0.12969 0.50777 0.96061 0.0
C953 C 0.17794 0.50402 0.89099 0.0
C954 C 0.15616 0.50153 0.84266 0.0
C955 C 0.10962 0.5022 0.82815 0.0
C956 C 0.08533 0.50384 0.86377 0.0
C957 C 0.13182 0.50373 0.87647 0.0
C958 C 0.08385 0.50707 0.94809 0.0
C959 C 0.1056 0.50928 0.99555 0.0
H960 H 0.04202 0.84194 0.58119 0.0
H961 H 0.98545 0.85667 0.39983 0.0
H962 H 0.97775 0.89843 0.45784 0.0
H963 H 0.98912 0.93216 0.5551 0.0
H964 H 0.04503 0.91657 0.73821 0.0
H965 H 0.05106 0.87423 0.68425 0.0
C966 C 0.02783 0.85418 0.5546 0.0
C967 C 0.01442 0.84597 0.48562 0.0
C968 C 0.0236 0.87833 0.58817 0.0
C969 C 0.99591 0.86216 0.4531 0.0
C970 C 0.99168 0.88624 0.48592 0.0
C971 C 1.00256 0.91949 0.58353 0.0
C972 C 0.01682 0.92795 0.65047 0.0
C973 C 1.00572 0.89476 0.55262 0.0
C974 C 0.03389 0.91093 0.6866 0.0
C975 C 0.03735 0.88656 0.65567 0.0
H976 H 0.67242 0.01632 0.54333 0.0
H977 H 0.64497 0.96528 0.36166 0.0
H978 H 0.60394 0.96336 0.42873 0.0
H979 H 0.57455 0.9779 0.53494 0.0
H980 H 0.60156 0.02917 0.71692 0.0
H981 H 0.64338 0.02922 0.65456 0.0
C982 C 0.65763 1.00439 0.51937 0.0
C983 C 0.66207 0.99092 0.44711 0.0
C984 C 0.63361 1.00363 0.55803 0.0
C985 C 0.6423 0.9759 0.41676 0.0
C986 C 0.61868 0.97485 0.45508 0.0
C987 C 0.58957 0.989 0.5614 0.0
C988 C 0.58451 1.00354 0.63098 0.0
C989 C 0.61387 0.98896 0.525 0.0
C990 C 0.60455 0.01771 0.66377 0.0
C991 C 0.62866 0.01778 0.62792 0.0
H992 H 0.4911 0.67225 0.61167 0.0
H993 H 0.53389 0.65782 0.395 0.0
H994 H 0.54376 0.61524 0.44465 0.0
H995 H 0.53647 0.58038 0.54355 0.0
H996 H 0.49237 0.59507 0.75778 0.0
H997 H 0.48638 0.63876 0.71434 0.0
C998 C 0.50282 0.65994 0.57539 0.0
C999 C 0.51153 0.66844 0.49892 0.0
C1000 C 0.50778 0.63515 0.60334 0.0
C1001 C 0.52708 0.65213 0.45412 0.0
C1002 C 0.53244 0.62755 0.48215 0.0
C1003 C 0.5257 0.59317 0.58116 0.0
C1004 C 0.51475 0.5841 0.65395 0.0
C1005 C 0.52228 0.61856 0.55563 0.0
C1006 C 0.501 0.60121 0.70162 0.0
C1007 C 0.49756 0.62634 0.67674 0.0
H1008 H 0.87799 0.50662 0.39875 0.0
H1009 H 0.8348 0.48911 0.61205 0.0
H1010 H 0.87234 0.49536 0.69644 0.0
H1011 H 0.91894 0.50166 0.708 0.0
H1012 H 0.96153 0.51898 0.49202 0.0
H1013 H 0.92322 0.51697 0.41148 0.0
C1014 C 0.87657 0.50523 0.46404 0.0
C1015 C 0.8533 0.49822 0.49907 0.0
C1016 C 0.8985 0.50821 0.51198 0.0
C1017 C 0.85215 0.49536 0.58364 0.0
C1018 C 0.87381 0.49852 0.63183 0.0
C1019 C 0.91981 0.50525 0.64347 0.0
C1020 C 0.94345 0.51034 0.60674 0.0
C1021 C 0.89734 0.50426 0.59654 0.0
C1022 C 0.9439 0.51498 0.52274 0.0
C1023 C 0.92186 0.51385 0.47615 0.0
loop_
_geom_bond_atom_site_label_1
_geom_bond_atom_site_label_2
_geom_bond_distance
_geom_bond_site_symmetry_2
_ccdc_geom_bond_type
C0 C1 1.391 . S
C0 C4 1.391 . S
C0 H42 0.948 . S
C1 C0 1.391 . S
C1 C2 1.391 . S
C2 C1 1.391 . S
C2 H58 0.947 . S
C2 C59 1.392 . S
C3 C4 1.391 . S
C3 C7 1.397 . S
C3 C59 1.419 . S
C4 C0 1.391 . S
C4 C3 1.391 . S
C4 C5 1.399 . S
C5 C4 1.399 . S
C5 C8 1.396 . S
C5 C17 1.453 . S
C5 C18 1.684 . S
H6 C30 0.948 . S
C7 C3 1.397 . S
C7 C8 1.394 . S
C7 C26 1.723 . S
C8 C5 1.396 . S
C8 C7 1.394 . S
C8 C38 1.723 . S
H9 C32 0.947 . S
H10 C33 0.948 . S
H11 C39 0.982 . S
H12 C40 0.979 . S
H13 C40 0.980 . S
H14 C40 0.983 . S
H15 C39 0.979 . S
H16 C39 0.977 . S
C17 C5 1.453 . S
C17 H46 0.982 . S
C17 H47 0.979 . S
C17 H48 0.977 . S
C18 C5 1.684 . S
C18 H43 0.979 . S
C18 H44 0.980 . S
C18 H45 0.983 . S
C19 C20 1.391 . S
C19 C24 1.391 . S
C19 H49 0.948 . S
C20 C19 1.391 . S
C20 C21 1.391 . S
C21 C20 1.391 . S
C21 C22 1.392 . S
C21 H50 0.947 . S
C22 C21 1.392 . S
C22 C23 1.419 . S
C22 H51 0.948 . S
C23 C22 1.419 . S
C23 C24 1.391 . S
C23 C27 1.397 . S
C24 C19 1.391 . S
C24 C23 1.391 . S
C24 C25 1.399 . S
C25 C24 1.399 . S
C25 C26 1.396 . S
C25 C28 1.453 . S
C25 C29 1.684 . S
C26 C7 1.723 . S
C26 C25 1.396 . S
C26 C27 1.394 . S
C27 C23 1.397 . S
C27 C26 1.394 . S
C27 C37 1.723 . S
C28 C25 1.453 . S
C28 H52 0.982 . S
C28 H53 0.979 . S
C28 H54 0.977 . S
C29 C25 1.684 . S
C29 H55 0.979 . S
C29 H56 0.980 . S
C29 H57 0.983 . S
C30 H6 0.948 . S
C30 C31 1.391 . S
C30 C35 1.391 . S
C31 C30 1.391 . S
C31 C32 1.391 . S
C32 H9 0.947 . S
C32 C31 1.391 . S
C32 C33 1.392 . S
C33 H10 0.948 . S
C33 C32 1.392 . S
C33 C34 1.419 . S
C34 C33 1.419 . S
C34 C35 1.391 . S
C34 C38 1.397 . S
C35 C30 1.391 . S
C35 C34 1.391 . S
C35 C36 1.399 . S
C36 C35 1.399 . S
C36 C37 1.396 . S
C36 C39 1.453 . S
C36 C40 1.684 . S
C37 C27 1.723 . S
C37 C36 1.396 . S
C37 C38 1.394 . S
C38 C8 1.723 . S
C38 C34 1.397 . S
C38 C37 1.394 . S
C39 H11 0.982 . S
C39 H15 0.979 . S
C39 H16 0.977 . S
C39 C36 1.453 . S
C40 H12 0.979 . S
C40 H13 0.980 . S
C40 H14 0.983 . S
C40 C36 1.684 . S
H41 C59 0.948 . S
H42 C0 0.948 . S
H43 C18 0.979 . S
H44 C18 0.980 . S
H45 C18 0.983 . S
H46 C17 0.982 . S
H47 C17 0.979 . S
H48 C17 0.977 . S
H49 C19 0.948 . S
H50 C21 0.947 . S
H51 C22 0.948 . S
H52 C28 0.982 . S
H53 C28 0.979 . S
H54 C28 0.977 . S
H55 C29 0.979 . S
H56 C29 0.980 . S
H57 C29 0.983 . S
H58 C2 0.947 . S
C59 C2 1.392 . S
C59 C3 1.419 . S
C59 H41 0.948 . S
C60 C61 1.391 . S
C60 C64 1.391 . S
C60 H102 0.948 . S
C61 C60 1.391 . S
C61 C62 1.391 . S
C62 C61 1.391 . S
C62 H118 0.947 . S
C62 C119 1.392 . S
C63 C64 1.391 . S
C63 C67 1.397 1_655 S
C63 C119 1.419 . S
C64 C60 1.391 . S
C64 C63 1.391 . S
C64 C65 1.399 . S
C65 C64 1.399 . S
C65 C68 1.396 1_655 S
C65 C77 1.453 1_655 S
C65 C78 1.684 . S
H66 C90 0.948 . S
C67 C63 1.397 1_455 S
C67 C68 1.394 . S
C67 C86 1.723 . S
C68 C65 1.396 1_455 S
C68 C67 1.394 . S
C68 C98 1.723 . S
H69 C92 0.947 . S
H70 C93 0.948 . S
H71 C99 0.982 . S
H72 C100 0.979 . S
H73 C100 0.980 . S
H74 C100 0.983 . S
H75 C99 0.979 . S
H76 C99 0.977 . S
C77 C65 1.453 1_455 S
C77 H106 0.982 . S
C77 H107 0.979 . S
C77 H108 0.977 . S
C78 C65 1.684 . S
C78 H103 0.979 . S
C78 H104 0.980 . S
C78 H105 0.983 . S
C79 C80 1.391 . S
C79 C84 1.391 . S
C79 H109 0.948 . S
C80 C79 1.391 . S
C80 C81 1.391 . S
C81 C80 1.391 . S
C81 C82 1.392 . S
C81 H110 0.947 . S
C82 C81 1.392 . S
C82 C83 1.419 . S
C82 H111 0.948 . S
C83 C82 1.419 . S
C83 C84 1.391 . S
C83 C87 1.397 1_655 S
C84 C79 1.391 . S
C84 C83 1.391 . S
C84 C85 1.399 . S
C85 C84 1.399 . S
C85 C86 1.396 1_655 S
C85 C88 1.453 1_655 S
C85 C89 1.684 . S
C86 C67 1.723 . S
C86 C85 1.396 1_455 S
C86 C87 1.394 . S
C87 C83 1.397 1_455 S
C87 C86 1.394 . S
C87 C97 1.723 . S
C88 C85 1.453 1_455 S
C88 H112 0.982 . S
C88 H113 0.979 . S
C88 H114 0.977 . S
C89 C85 1.684 . S
C89 H115 0.979 . S
C89 H116 0.980 . S
C89 H117 0.983 . S
C90 H66 0.948 . S
C90 C91 1.391 . S
C90 C95 1.391 . S
C91 C90 1.391 . S
C91 C92 1.391 . S
C92 H69 0.947 . S
C92 C91 1.391 . S
C92 C93 1.392 . S
C93 H70 0.948 . S
C93 C92 1.392 . S
C93 C94 1.419 . S
C94 C93 1.419 . S
C94 C95 1.391 . S
C94 C98 1.397 1_655 S
C95 C90 1.391 . S
C95 C94 1.391 . S
C95 C96 1.399 . S
C96 C95 1.399 . S
C96 C97 1.396 1_655 S
C96 C99 1.453 1_655 S
C96 C100 1.684 . S
C97 C87 1.723 . S
C97 C96 1.396 1_455 S
C97 C98 1.394 . S
C98 C68 1.723 . S
C98 C94 1.397 1_455 S
C98 C97 1.394 . S
C99 H71 0.982 . S
C99 H75 0.979 . S
C99 H76 0.977 . S
C99 C96 1.453 1_455 S
C100 H72 0.979 . S
C100 H73 0.980 . S
C100 H74 0.983 . S
C100 C96 1.684 . S
H101 C119 0.948 . S
H102 C60 0.948 . S
H103 C78 0.979 . S
H104 C78 0.980 . S
H105 C78 0.983 . S
H106 C77 0.982 . S
H107 C77 0.979 . S
H108 C77 0.977 . S
H109 C79 0.948 . S
H110 C81 0.947 . S
H111 C82 0.948 . S
H112 C88 0.982 . S
H113 C88 0.979 . S
H114 C88 0.977 . S
H115 C89 0.979 . S
H116 C89 0.980 . S
H117 C89 0.983 . S
H118 C62 0.947 . S
C119 C62 1.392 . S
C119 C63 1.419 . S
C119 H101 0.948 . S
C120 C121 1.391 . S
C120 C124 1.391 . S
C120 H162 0.948 . S
C121 C120 1.391 . S
C121 C122 1.391 . S
C122 C121 1.391 . S
C122 H178 0.947 . S
C122 C179 1.392 . S
C123 C124 1.391 . S
C123 C127 1.397 1_565 S
C123 C179 1.419 . S
C124 C120 1.391 . S
C124 C123 1.391 . S
C124 C125 1.399 . S
C125 C124 1.399 . S
C125 C128 1.396 1_565 S
C125 C137 1.453 1_565 S
C125 C138 1.684 . S
H126 C150 0.948 . S
C127 C123 1.397 1_545 S
C127 C128 1.394 . S
C127 C146 1.723 . S
C128 C125 1.396 1_545 S
C128 C127 1.394 . S
C128 C158 1.723 . S
H129 C152 0.947 . S
H130 C153 0.948 . S
H131 C159 0.982 . S
H132 C160 0.979 . S
H133 C160 0.980 . S
H134 C160 0.983 . S
H135 C159 0.979 . S
H136 C159 0.977 . S
C137 C125 1.453 1_545 S
C137 H166 0.982 . S
C137 H167 0.979 . S
C137 H168 0.977 . S
C138 C125 1.684 . S
C138 H163 0.979 . S
C138 H164 0.980 . S
C138 H165 0.983 . S
C139 C140 1.391 . S
C139 C144 1.391 . S
C139 H169 0.948 . S
C140 C139 1.391 . S
C140 C141 1.391 . S
C141 C140 1.391 . S
C141 C142 1.392 . S
C141 H170 0.947 . S
C142 C141 1.392 . S
C142 C143 1.419 . S
C142 H171 0.948 . S
C143 C142 1.419 . S
C143 C144 1.391 . S
C143 C147 1.397 1_565 S
C144 C139 1.391 . S
C144 C143 1.391 . S
C144 C145 1.399 . S
C145 C144 1.399 . S
C145 C146 1.396 1_565 S
C145 C148 1.453 1_565 S
C145 C149 1.684 . S
C146 C127 1.723 . S
C146 C145 1.396 1_545 S
C146 C147 1.394 . S
C147 C143 1.397 1_545 S
C147 C146 1.394 . S
C147 C157 1.723 . S
C148 C145 1.453 1_545 S
C148 H172 0.982 . S
C148 H173 0.979 . S
C148 H174 0.977 . S
C149 C145 1.684 . S
C149 H175 0.979 . S
C149 H176 0.980 . S
C149 H177 0.983 . S
C150 H126 0.948 . S
C150 C151 1.391 . S
C150 C155 1.391 . S
C151 C150 1.391 . S
C151 C152 1.391 . S
C152 H129 0.947 . S
C152 C151 1.391 . S
C152 C153 1.392 . S
C153 H130 0.948 . S
C153 C152 1.392 . S
C153 C154 1.419 . S
C154 C153 1.419 . S
C154 C155 1.391 . S
C154 C158 1.397 1_565 S
C155 C150 1.391 . S
C155 C154 1.391 . S
C155 C156 1.399 . S
C156 C155 1.399 . S
C156 C157 1.396 1_565 S
C156 C159 1.453 1_565 S
C156 C160 1.684 . S
C157 C147 1.723 . S
C157 C156 1.396 1_545 S
C157 C158 1.394 . S
C158 C128 1.723 . S
C158 C154 1.397 1_545 S
C158 C157 1.394 . S
C159 H131 0.982 . S
C159 H135 0.979 . S
C159 H136 0.977 . S
C159 C156 1.453 1_545 S
C160 H132 0.979 . S
C160 H133 0.980 . S
C160 H134 0.983 . S
C160 C156 1.684 . S
H161 C179 0.948 . S
H162 C120 0.948 . S
H163 C138 0.979 . S
H164 C138 0.980 . S
H165 C138 0.983 . S
H166 C137 0.982 . S
H167 C137 0.979 . S
H168 C137 0.977 . S
H169 C139 0.948 . S
H170 C141 0.947 . S
H171 C142 0.948 . S
H172 C148 0.982 . S
H173 C148 0.979 . S
H174 C148 0.977 . S
H175 C149 0.979 . S
H176 C149 0.980 . S
H177 C149 0.983 . S
H178 C122 0.947 . S
C179 C122 1.392 . S
C179 C123 1.419 . S
C179 H161 0.948 . S
C180 C181 1.391 . S
C180 C184 1.391 . S
C180 H222 0.948 . S
C181 C180 1.391 . S
C181 C182 1.391 . S
C182 C181 1.391 . S
C182 H238 0.947 . S
C182 C239 1.392 . S
C183 C184 1.391 . S
C183 C187 1.397 . S
C183 C239 1.419 . S
C184 C180 1.391 . S
C184 C183 1.391 . S
C184 C185 1.399 . S
C185 C184 1.399 . S
C185 C188 1.396 . S
C185 C197 1.453 . S
C185 C198 1.684 . S
H186 C210 0.948 . S
C187 C183 1.397 . S
C187 C188 1.394 . S
C187 C206 1.723 . S
C188 C185 1.396 . S
C188 C187 1.394 . S
C188 C218 1.723 . S
H189 C212 0.947 . S
H190 C213 0.948 . S
H191 C219 0.982 . S
H192 C220 0.979 . S
H193 C220 0.980 . S
H194 C220 0.983 . S
H195 C219 0.979 . S
H196 C219 0.977 . S
C197 C185 1.453 . S
C197 H226 0.982 . S
C197 H227 0.979 . S
C197 H228 0.977 . S
C198 C185 1.684 . S
C198 H223 0.979 . S
C198 H224 0.980 . S
C198 H225 0.983 . S
C199 C200 1.391 . S
C199 C204 1.391 . S
C199 H229 0.948 . S
C200 C199 1.391 . S
C200 C201 1.391 . S
C201 C200 1.391 . S
C201 C202 1.392 . S
C201 H230 0.947 . S
C202 C201 1.392 . S
C202 C203 1.419 . S
C202 H231 0.948 . S
C203 C202 1.419 . S
C203 C204 1.391 . S
C203 C207 1.397 . S
C204 C199 1.391 . S
C204 C203 1.391 . S
C204 C205 1.399 . S
C205 C204 1.399 . S
C205 C206 1.396 . S
C205 C208 1.453 . S
C205 C209 1.684 . S
C206 C187 1.723 . S
C206 C205 1.396 . S
C206 C207 1.394 . S
C207 C203 1.397 . S
C207 C206 1.394 . S
C207 C217 1.723 . S
C208 C205 1.453 . S
C208 H232 0.982 . S
C208 H233 0.979 . S
C208 H234 0.977 . S
C209 C205 1.684 . S
C209 H235 0.979 . S
C209 H236 0.980 . S
C209 H237 0.983 . S
C210 H186 0.948 . S
C210 C211 1.391 . S
C210 C215 1.391 . S
C211 C210 1.391 . S
C211 C212 1.391 . S
C212 H189 0.947 . S
C212 C211 1.391 . S
C212 C213 1.392 . S
C213 H190 0.948 . S
C213 C212 1.392 . S
C213 C214 1.419 . S
C214 C213 1.419 . S
C214 C215 1.391 . S
C214 C218 1.397 . S
C215 C210 1.391 . S
C215 C214 1.391 . S
C215 C216 1.399 . S
C216 C215 1.399 . S
C216 C217 1.396 . S
C216 C219 1.453 . S
C216 C220 1.684 . S
C217 C207 1.723 . S
C217 C216 1.396 . S
C217 C218 1.394 . S
C218 C188 1.723 . S
C218 C214 1.397 . S
C218 C217 1.394 . S
C219 H191 0.982 . S
C219 H195 0.979 . S
C219 H196 0.977 . S
C219 C216 1.453 . S
C220 H192 0.979 . S
C220 H193 0.980 . S
C220 H194 0.983 . S
C220 C216 1.684 . S
H221 C239 0.948 . S
H222 C180 0.948 . S
H223 C198 0.979 . S
H224 C198 0.980 . S
H225 C198 0.983 . S
H226 C197 0.982 . S
H227 C197 0.979 . S
H228 C197 0.977 . S
H229 C199 0.948 . S
H230 C201 0.947 . S
H231 C202 0.948 . S
H232 C208 0.982 . S
H233 C208 0.979 . S
H234 C208 0.977 . S
H235 C209 0.979 . S
H236 C209 0.980 . S
H237 C209 0.983 . S
H238 C182 0.947 . S
C239 C182 1.392 . S
C239 C183 1.419 . S
C239 H221 0.948 . S
C240 C241 1.391 . S
C240 C244 1.391 . S
C240 H282 0.948 . S
C241 C240 1.391 . S
C241 C242 1.391 . S
C242 C241 1.391 . S
C242 H298 0.947 . S
C242 C299 1.392 . S
C243 C244 1.391 . S
C243 C247 1.397 . S
C243 C299 1.419 . S
C244 C240 1.391 . S
C244 C243 1.391 . S
C244 C245 1.399 1_554 S
C245 C244 1.399 1_556 S
C245 C248 1.396 . S
C245 C257 1.453 . S
C245 C258 1.684 . S
H246 C270 0.948 . S
C247 C243 1.397 . S
C247 C248 1.394 1_554 S
C247 C266 1.723 . S
C248 C245 1.396 . S
C248 C247 1.394 1_556 S
C248 C278 1.723 . S
H249 C272 0.947 . S
H250 C273 0.948 . S
H251 C279 0.982 . S
H252 C280 0.979 . S
H253 C280 0.980 1_554 S
H254 C280 0.983 . S
H255 C279 0.979 . S
H256 C279 0.977 1_554 S
C257 C245 1.453 . S
C257 H286 0.982 . S
C257 H287 0.979 . S
C257 H288 0.977 . S
C258 C245 1.684 . S
C258 H283 0.979 . S
C258 H284 0.980 . S
C258 H285 0.983 . S
C259 C260 1.391 . S
C259 C264 1.391 . S
C259 H289 0.948 . S
C260 C259 1.391 . S
C260 C261 1.391 . S
C261 C260 1.391 . S
C261 C262 1.392 . S
C261 H290 0.947 . S
C262 C261 1.392 . S
C262 C263 1.419 . S
C262 H291 0.948 . S
C263 C262 1.419 . S
C263 C264 1.391 . S
C263 C267 1.397 . S
C264 C259 1.391 . S
C264 C263 1.391 . S
C264 C265 1.399 . S
C265 C264 1.399 . S
C265 C266 1.396 . S
C265 C268 1.453 . S
C265 C269 1.684 . S
C266 C247 1.723 . S
C266 C265 1.396 . S
C266 C267 1.394 . S
C267 C263 1.397 . S
C267 C266 1.394 . S
C267 C277 1.723 1_554 S
C268 C265 1.453 . S
C268 H292 0.982 . S
C268 H293 0.979 . S
C268 H294 0.977 . S
C269 C265 1.684 . S
C269 H295 0.979 . S
C269 H296 0.980 . S
C269 H297 0.983 . S
C270 H246 0.948 . S
C270 C271 1.391 . S
C270 C275 1.391 . S
C271 C270 1.391 . S
C271 C272 1.391 . S
C272 H249 0.947 . S
C272 C271 1.391 . S
C272 C273 1.392 . S
C273 H250 0.948 . S
C273 C272 1.392 . S
C273 C274 1.419 . S
C274 C273 1.419 . S
C274 C275 1.391 . S
C274 C278 1.397 . S
C275 C270 1.391 . S
C275 C274 1.391 . S
C275 C276 1.399 . S
C276 C275 1.399 . S
C276 C277 1.396 . S
C276 C279 1.453 . S
C276 C280 1.684 . S
C277 C267 1.723 1_556 S
C277 C276 1.396 . S
C277 C278 1.394 . S
C278 C248 1.723 . S
C278 C274 1.397 . S
C278 C277 1.394 . S
C279 H251 0.982 . S
C279 H255 0.979 . S
C279 H256 0.977 1_556 S
C279 C276 1.453 . S
C280 H252 0.979 . S
C280 H253 0.980 1_556 S
C280 H254 0.983 . S
C280 C276 1.684 . S
H281 C299 0.948 . S
H282 C240 0.948 . S
H283 C258 0.979 . S
H284 C258 0.980 . S
H285 C258 0.983 . S
H286 C257 0.982 . S
H287 C257 0.979 . S
H288 C257 0.977 . S
H289 C259 0.948 . S
H290 C261 0.947 . S
H291 C262 0.948 . S
H292 C268 0.982 . S
H293 C268 0.979 . S
H294 C268 0.977 . S
H295 C269 0.979 . S
H296 C269 0.980 . S
H297 C269 0.983 . S
H298 C242 0.947 . S
C299 C242 1.392 . S
C299 C243 1.419 . S
C299 H281 0.948 . S
C300 C301 1.391 . S
C300 C304 1.391 . S
C300 H342 0.948 . S
C301 C300 1.391 . S
C301 C302 1.391 . S
C302 C301 1.391 . S
C302 H358 0.947 . S
C302 C359 1.392 . S
C303 C304 1.391 . S
C303 C307 1.396 1_655 S
C303 C359 1.419 . S
C304 C300 1.391 . S
C304 C303 1.391 . S
C304 C305 1.399 . S
C305 C304 1.399 . S
C305 C308 1.396 1_655 S
C305 C317 1.453 1_655 S
C305 C318 1.684 . S
H306 C330 0.948 . S
C307 C303 1.396 1_455 S
C307 C308 1.395 . S
C307 C326 1.726 . S
C308 C305 1.396 1_455 S
C308 C307 1.395 . S
C308 C338 1.723 . S
H309 C332 0.947 . S
H310 C333 0.948 . S
H311 C339 0.982 . S
H312 C340 0.979 . S
H313 C340 0.980 . S
H314 C340 0.983 . S
H315 C339 0.979 . S
H316 C339 0.977 . S
C317 C305 1.453 1_455 S
C317 H346 0.982 . S
C317 H347 0.979 . S
C317 H348 0.977 . S
C318 C305 1.684 . S
C318 H343 0.979 . S
C318 H344 0.980 . S
C318 H345 0.983 . S
C319 C320 1.391 . S
C319 C324 1.391 . S
C319 H349 0.948 . S
C320 C319 1.391 . S
C320 C321 1.391 . S
C321 C320 1.391 . S
C321 C322 1.392 . S
C321 H350 0.947 . S
C322 C321 1.392 . S
C322 C323 1.419 . S
C322 H351 0.948 . S
C323 C322 1.419 . S
C323 C324 1.391 . S
C323 C327 1.396 1_655 S
C324 C319 1.391 . S
C324 C323 1.391 . S
C324 C325 1.399 . S
C325 C324 1.399 . S
C325 C326 1.394 1_656 S
C325 C328 1.453 1_655 S
C325 C329 1.684 . S
C326 C307 1.726 . S
C326 C325 1.394 1_454 S
C326 C327 1.393 1_554 S
C327 C323 1.396 1_455 S
C327 C326 1.393 1_556 S
C327 C337 1.723 . S
C328 C325 1.453 1_455 S
C328 H352 0.982 . S
C328 H353 0.979 . S
C328 H354 0.977 1_556 S
C329 C325 1.684 . S
C329 H355 0.979 . S
C329 H356 0.980 1_556 S
C329 H357 0.983 . S
C330 H306 0.948 . S
C330 C331 1.391 . S
C330 C335 1.391 . S
C331 C330 1.391 . S
C331 C332 1.391 . S
C332 H309 0.947 . S
C332 C331 1.391 . S
C332 C333 1.392 . S
C333 H310 0.948 . S
C333 C332 1.392 . S
C333 C334 1.419 . S
C334 C333 1.419 . S
C334 C335 1.391 . S
C334 C338 1.396 1_655 S
C335 C330 1.391 . S
C335 C334 1.391 . S
C335 C336 1.399 1_554 S
C336 C335 1.399 1_556 S
C336 C337 1.396 1_655 S
C336 C339 1.453 1_655 S
C336 C340 1.684 . S
C337 C327 1.723 . S
C337 C336 1.396 1_455 S
C337 C338 1.395 1_556 S
C338 C308 1.723 . S
C338 C334 1.396 1_455 S
C338 C337 1.395 1_554 S
C339 H311 0.982 . S
C339 H315 0.979 . S
C339 H316 0.977 . S
C339 C336 1.453 1_455 S
C340 H312 0.979 . S
C340 H313 0.980 . S
C340 H314 0.983 . S
C340 C336 1.684 . S
H341 C359 0.948 . S
H342 C300 0.948 . S
H343 C318 0.979 . S
H344 C318 0.980 . S
H345 C318 0.983 . S
H346 C317 0.982 . S
H347 C317 0.979 . S
H348 C317 0.977 . S
H349 C319 0.948 . S
H350 C321 0.947 . S
H351 C322 0.948 . S
H352 C328 0.982 . S
H353 C328 0.979 . S
H354 C328 0.977 1_554 S
H355 C329 0.979 . S
H356 C329 0.980 1_554 S
H357 C329 0.983 . S
H358 C302 0.947 . S
C359 C302 1.392 . S
C359 C303 1.419 . S
C359 H341 0.948 . S
C360 C361 1.391 . S
C360 C364 1.391 . S
C360 H402 0.948 . S
C361 C360 1.391 . S
C361 C362 1.391 . S
C362 C361 1.391 . S
C362 H418 0.947 . S
C362 C419 1.392 . S
C363 C364 1.391 . S
C363 C367 1.397 1_545 S
C363 C419 1.419 . S
C364 C360 1.391 . S
C364 C363 1.391 . S
C364 C365 1.399 . S
C365 C364 1.399 . S
C365 C368 1.396 1_545 S
C365 C377 1.453 1_545 S
C365 C378 1.684 . S
H366 C390 0.948 . S
C367 C363 1.397 1_565 S
C367 C368 1.394 . S
C367 C386 1.723 1_556 S
C368 C365 1.396 1_565 S
C368 C367 1.394 . S
C368 C398 1.723 1_556 S
H369 C392 0.947 1_556 S
H370 C393 0.955 . S
H371 C399 0.982 . S
H372 C400 0.979 . S
H373 C400 0.980 . S
H374 C400 0.983 . S
H375 C399 0.979 . S
H376 C399 0.977 . S
C377 C365 1.453 1_565 S
C377 H406 0.982 . S
C377 H407 0.979 . S
C377 H408 0.977 . S
C378 C365 1.684 . S
C378 H403 0.979 . S
C378 H404 0.980 . S
C378 H405 0.983 . S
C379 C380 1.391 . S
C379 C384 1.391 . S
C379 H409 0.948 . S
C380 C379 1.391 . S
C380 C381 1.391 . S
C381 C380 1.391 . S
C381 C382 1.392 . S
C381 H410 0.947 . S
C382 C381 1.392 . S
C382 C383 1.419 . S
C382 H411 0.948 . S
C383 C382 1.419 . S
C383 C384 1.391 . S
C383 C387 1.397 1_545 S
C384 C379 1.391 . S
C384 C383 1.391 . S
C384 C385 1.399 . S
C385 C384 1.399 . S
C385 C386 1.396 1_545 S
C385 C388 1.453 1_545 S
C385 C389 1.684 . S
C386 C367 1.723 1_554 S
C386 C385 1.396 1_565 S
C386 C387 1.394 . S
C387 C383 1.397 1_565 S
C387 C386 1.394 . S
C387 C397 1.723 . S
C388 C385 1.453 1_565 S
C388 H412 0.982 . S
C388 H413 0.979 . S
C388 H414 0.977 1_554 S
C389 C385 1.684 . S
C389 H415 0.979 . S
C389 H416 0.980 1_554 S
C389 H417 0.983 . S
C390 H366 0.948 . S
C390 C391 1.391 . S
C390 C395 1.391 . S
C391 C390 1.391 . S
C391 C392 1.391 . S
C392 H369 0.947 1_554 S
C392 C391 1.391 . S
C392 C393 1.389 1_554 S
C393 H370 0.955 . S
C393 C392 1.389 1_556 S
C393 C394 1.413 1_556 S
C394 C393 1.413 1_554 S
C394 C395 1.391 . S
C394 C398 1.397 1_545 S
C395 C390 1.391 . S
C395 C394 1.391 . S
C395 C396 1.399 . S
C396 C395 1.399 . S
C396 C397 1.396 1_545 S
C396 C399 1.453 1_545 S
C396 C400 1.684 . S
C397 C387 1.723 . S
C397 C396 1.396 1_565 S
C397 C398 1.394 . S
C398 C368 1.723 1_554 S
C398 C394 1.397 1_565 S
C398 C397 1.394 . S
C399 H371 0.982 . S
C399 H375 0.979 . S
C399 H376 0.977 . S
C399 C396 1.453 1_565 S
C400 H372 0.979 . S
C400 H373 0.980 . S
C400 H374 0.983 . S
C400 C396 1.684 . S
H401 C419 0.948 . S
H402 C360 0.948 . S
H403 C378 0.979 . S
H404 C378 0.980 . S
H405 C378 0.983 . S
H406 C377 0.982 . S
H407 C377 0.979 . S
H408 C377 0.977 . S
H409 C379 0.948 . S
H410 C381 0.947 . S
H411 C382 0.948 . S
H412 C388 0.982 . S
H413 C388 0.979 . S
H414 C388 0.977 1_556 S
H415 C389 0.979 . S
H416 C389 0.980 1_556 S
H417 C389 0.983 . S
H418 C362 0.947 . S
C419 C362 1.392 . S
C419 C363 1.419 . S
C419 H401 0.948 . S
C420 C421 1.391 . S
C420 C424 1.391 . S
C420 H462 0.948 . S
C421 C420 1.391 . S
C421 C422 1.391 . S
C422 C421 1.391 . S
C422 H478 0.947 . S
C422 C479 1.392 . S
C423 C424 1.391 . S
C423 C427 1.397 . S
C423 C479 1.419 . S
C424 C420 1.391 . S
C424 C423 1.391 . S
C424 C425 1.399 . S
C425 C424 1.399 . S
C425 C428 1.396 . S
C425 C437 1.453 . S
C425 C438 1.684 . S
H426 C450 0.948 . S
C427 C423 1.397 . S
C427 C428 1.394 . S
C427 C446 1.723 1_556 S
C428 C425 1.396 . S
C428 C427 1.394 . S
C428 C458 1.723 1_556 S
H429 C452 0.947 1_556 S
H430 C453 0.948 . S
H431 C459 0.982 . S
H432 C460 0.979 . S
H433 C460 0.980 . S
H434 C460 0.983 . S
H435 C459 0.979 . S
H436 C459 0.977 . S
C437 C425 1.453 . S
C437 H466 0.982 . S
C437 H467 0.979 . S
C437 H468 0.977 . S
C438 C425 1.684 . S
C438 H463 0.979 . S
C438 H464 0.980 . S
C438 H465 0.983 . S
C439 C440 1.391 . S
C439 C444 1.391 . S
C439 H469 0.948 . S
C440 C439 1.391 . S
C440 C441 1.391 . S
C441 C440 1.391 . S
C441 C442 1.392 . S
C441 H470 0.947 . S
C442 C441 1.392 . S
C442 C443 1.419 . S
C442 H471 0.948 . S
C443 C442 1.419 . S
C443 C444 1.391 . S
C443 C447 1.397 . S
C444 C439 1.391 . S
C444 C443 1.391 . S
C444 C445 1.399 . S
C445 C444 1.399 . S
C445 C446 1.396 . S
C445 C448 1.453 . S
C445 C449 1.684 . S
C446 C427 1.723 1_554 S
C446 C445 1.396 . S
C446 C447 1.394 . S
C447 C443 1.397 . S
C447 C446 1.394 . S
C447 C457 1.723 . S
C448 C445 1.453 . S
C448 H472 0.982 . S
C448 H473 0.979 . S
C448 H474 0.977 1_554 S
C449 C445 1.684 . S
C449 H475 0.979 . S
C449 H476 0.980 1_554 S
C449 H477 0.983 . S
C450 H426 0.948 . S
C450 C451 1.391 . S
C450 C455 1.391 . S
C451 C450 1.391 . S
C451 C452 1.391 . S
C452 H429 0.947 1_554 S
C452 C451 1.391 . S
C452 C453 1.392 1_554 S
C453 H430 0.948 . S
C453 C452 1.392 1_556 S
C453 C454 1.419 1_556 S
C454 C453 1.419 1_554 S
C454 C455 1.391 . S
C454 C458 1.397 . S
C455 C450 1.391 . S
C455 C454 1.391 . S
C455 C456 1.399 . S
C456 C455 1.399 . S
C456 C457 1.396 . S
C456 C459 1.453 . S
C456 C460 1.684 . S
C457 C447 1.723 . S
C457 C456 1.396 . S
C457 C458 1.394 . S
C458 C428 1.723 1_554 S
C458 C454 1.397 . S
C458 C457 1.394 . S
C459 H431 0.982 . S
C459 H435 0.979 . S
C459 H436 0.977 . S
C459 C456 1.453 . S
C460 H432 0.979 . S
C460 H433 0.980 . S
C460 H434 0.983 . S
C460 C456 1.684 . S
H461 C479 0.948 . S
H462 C420 0.948 . S
H463 C438 0.979 . S
H464 C438 0.980 . S
H465 C438 0.983 . S
H466 C437 0.982 . S
H467 C437 0.979 . S
H468 C437 0.977 . S
H469 C439 0.948 . S
H470 C441 0.947 . S
H471 C442 0.948 . S
H472 C448 0.982 . S
H473 C448 0.979 . S
H474 C448 0.977 1_556 S
H475 C449 0.979 . S
H476 C449 0.980 1_556 S
H477 C449 0.983 . S
H478 C422 0.947 . S
C479 C422 1.392 . S
C479 C423 1.419 . S
C479 H461 0.948 . S
La480 C482 2.928 . S
La480 O500 2.521 . S
La480 O501 2.628 . S
La480 O502 2.554 . S
La480 O503 2.757 1_565 S
La480 O504 2.470 . S
La480 O509 2.482 1_455 S
La480 O511 2.503 1_565 S
La481 C491 2.928 . S
La481 O503 2.482 1_655 S
La481 O505 2.503 1_545 S
La481 O506 2.521 . S
La481 O507 2.628 . S
La481 O508 2.554 . S
La481 O509 2.757 1_545 S
La481 O510 2.470 . S
C482 La480 2.928 . S
C482 C483 1.503 . S
C482 O500 1.261 . S
C482 O501 1.243 . S
C483 C482 1.503 . S
C483 C484 1.394 . S
C483 C488 1.373 . S
C484 C483 1.394 . S
C484 C485 1.380 . S
C484 H512 0.930 . S
C485 C484 1.380 . S
C485 C486 1.376 . S
C485 H513 0.930 . S
C486 C485 1.376 . S
C486 C487 1.370 . S
C487 C486 1.370 . S
C487 C488 1.396 . S
C487 H514 0.929 1_556 S
C488 C483 1.373 . S
C488 C487 1.396 . S
C488 H515 0.929 1_455 S
C489 O502 1.240 . S
C489 O503 1.289 1_565 S
C490 O504 1.258 1_655 S
C490 O505 1.256 . S
C491 La481 2.928 . S
C491 C492 1.503 . S
C491 O506 1.261 . S
C491 O507 1.243 . S
C492 C491 1.503 . S
C492 C493 1.394 . S
C492 C497 1.373 . S
C493 C492 1.394 . S
C493 C494 1.380 . S
C493 H516 0.930 . S
C494 C493 1.380 . S
C494 C495 1.376 . S
C494 H517 0.930 . S
C495 C494 1.376 . S
C495 C496 1.370 . S
C496 C495 1.370 . S
C496 C497 1.396 . S
C496 H518 0.929 . S
C497 C492 1.373 . S
C497 C496 1.396 . S
C497 H519 0.929 1_655 S
C498 O508 1.240 . S
C498 O509 1.289 1_545 S
C499 O510 1.258 1_455 S
C499 O511 1.256 . S
O500 La480 2.521 . S
O500 C482 1.261 . S
O501 La480 2.628 . S
O501 C482 1.243 . S
O502 La480 2.554 . S
O502 C489 1.240 . S
O503 La480 2.757 1_545 S
O503 La481 2.482 1_455 S
O503 C489 1.289 1_545 S
O504 La480 2.470 . S
O504 C490 1.258 1_455 S
O505 La481 2.503 1_565 S
O505 C490 1.256 . S
O506 La481 2.521 . S
O506 C491 1.261 . S
O507 La481 2.628 . S
O507 C491 1.243 . S
O508 La481 2.554 . S
O508 C498 1.240 . S
O509 La480 2.482 1_655 S
O509 La481 2.757 1_565 S
O509 C498 1.289 1_565 S
O510 La481 2.470 . S
O510 C499 1.258 1_655 S
O511 La480 2.503 1_545 S
O511 C499 1.256 . S
H512 C484 0.930 . S
H513 C485 0.930 . S
H514 C487 0.929 1_554 S
H515 C488 0.929 1_655 S
H516 C493 0.930 . S
H517 C494 0.930 . S
H518 C496 0.929 . S
H519 C497 0.929 1_455 S
La520 C522 2.928 . S
La520 O540 2.521 . S
La520 O541 2.628 . S
La520 O542 2.554 . S
La520 O543 2.757 . S
La520 O544 2.470 . S
La520 O549 2.482 1_545 S
La520 O551 2.503 . S
La521 C531 2.928 . S
La521 O543 2.482 1_565 S
La521 O545 2.503 . S
La521 O546 2.521 . S
La521 O547 2.628 . S
La521 O548 2.554 . S
La521 O549 2.757 . S
La521 O550 2.470 . S
C522 La520 2.928 . S
C522 C523 1.503 . S
C522 O540 1.261 . S
C522 O541 1.243 . S
C523 C522 1.503 . S
C523 C524 1.394 . S
C523 C528 1.373 . S
C524 C523 1.394 . S
C524 C525 1.380 . S
C524 H552 0.930 . S
C525 C524 1.380 . S
C525 C526 1.376 . S
C525 H553 0.930 . S
C526 C525 1.376 . S
C526 C527 1.370 . S
C527 C526 1.370 . S
C527 C528 1.396 . S
C527 H554 0.929 1_556 S
C528 C523 1.373 . S
C528 C527 1.396 . S
C528 H555 0.929 1_545 S
C529 O542 1.240 . S
C529 O543 1.289 . S
C530 O544 1.258 1_565 S
C530 O545 1.256 . S
C531 La521 2.928 . S
C531 C532 1.503 . S
C531 O546 1.261 . S
C531 O547 1.243 . S
C532 C531 1.503 . S
C532 C533 1.394 . S
C532 C537 1.373 . S
C533 C532 1.394 . S
C533 C534 1.380 . S
C533 H556 0.930 . S
C534 C533 1.380 . S
C534 C535 1.376 . S
C534 H557 0.930 . S
C535 C534 1.376 . S
C535 C536 1.370 . S
C536 C535 1.370 . S
C536 C537 1.396 . S
C536 H558 0.929 . S
C537 C532 1.373 . S
C537 C536 1.396 . S
C537 H559 0.929 1_565 S
C538 O548 1.240 . S
C538 O549 1.289 . S
C539 O550 1.258 1_545 S
C539 O551 1.256 . S
O540 La520 2.521 . S
O540 C522 1.261 . S
O541 La520 2.628 . S
O541 C522 1.243 . S
O542 La520 2.554 . S
O542 C529 1.240 . S
O543 La520 2.757 . S
O543 La521 2.482 1_545 S
O543 C529 1.289 . S
O544 La520 2.470 . S
O544 C530 1.258 1_545 S
O545 La521 2.503 . S
O545 C530 1.256 . S
O546 La521 2.521 . S
O546 C531 1.261 . S
O547 La521 2.628 . S
O547 C531 1.243 . S
O548 La521 2.554 . S
O548 C538 1.240 . S
O549 La520 2.482 1_565 S
O549 La521 2.757 . S
O549 C538 1.289 . S
O550 La521 2.470 . S
O550 C539 1.258 1_565 S
O551 La520 2.503 . S
O551 C539 1.256 . S
H552 C524 0.930 . S
H553 C525 0.930 . S
H554 C527 0.929 1_554 S
H555 C528 0.929 1_565 S
H556 C533 0.930 . S
H557 C534 0.930 . S
H558 C536 0.929 . S
H559 C537 0.929 1_545 S
La560 C562 2.928 . S
La560 O580 2.521 . S
La560 O581 2.628 . S
La560 O582 2.554 . S
La560 O583 2.757 . S
La560 O584 2.470 . S
La560 O589 2.482 . S
La560 O591 2.503 . S
La561 C571 2.928 . S
La561 O583 2.482 . S
La561 O585 2.503 . S
La561 O586 2.521 . S
La561 O587 2.628 . S
La561 O588 2.554 . S
La561 O589 2.757 . S
La561 O590 2.470 . S
C562 La560 2.928 . S
C562 C563 1.503 . S
C562 O580 1.261 . S
C562 O581 1.243 . S
C563 C562 1.503 . S
C563 C564 1.394 . S
C563 C568 1.373 . S
C564 C563 1.394 . S
C564 C565 1.380 . S
C564 H592 0.930 . S
C565 C564 1.380 . S
C565 C566 1.376 . S
C565 H593 0.930 . S
C566 C565 1.376 . S
C566 C567 1.370 . S
C567 C566 1.370 . S
C567 C568 1.396 . S
C567 H594 0.929 1_556 S
C568 C563 1.373 . S
C568 C567 1.396 . S
C568 H595 0.929 . S
C569 O582 1.240 . S
C569 O583 1.289 . S
C570 O584 1.258 . S
C570 O585 1.256 . S
C571 La561 2.928 . S
C571 C572 1.503 . S
C571 O586 1.261 . S
C571 O587 1.243 . S
C572 C571 1.503 . S
C572 C573 1.394 . S
C572 C577 1.373 . S
C573 C572 1.394 . S
C573 C574 1.380 . S
C573 H596 0.930 . S
C574 C573 1.380 . S
C574 C575 1.376 . S
C574 H597 0.930 . S
C575 C574 1.376 . S
C575 C576 1.370 . S
C576 C575 1.370 . S
C576 C577 1.396 . S
C576 H598 0.929 . S
C577 C572 1.373 . S
C577 C576 1.396 . S
C577 H599 0.929 . S
C578 O588 1.240 . S
C578 O589 1.289 . S
C579 O590 1.258 . S
C579 O591 1.256 . S
O580 La560 2.521 . S
O580 C562 1.261 . S
O581 La560 2.628 . S
O581 C562 1.243 . S
O582 La560 2.554 . S
O582 C569 1.240 . S
O583 La560 2.757 . S
O583 La561 2.482 . S
O583 C569 1.289 . S
O584 La560 2.470 . S
O584 C570 1.258 . S
O585 La561 2.503 . S
O585 C570 1.256 . S
O586 La561 2.521 . S
O586 C571 1.261 . S
O587 La561 2.628 . S
O587 C571 1.243 . S
O588 La561 2.554 . S
O588 C578 1.240 . S
O589 La560 2.482 . S
O589 La561 2.757 . S
O589 C578 1.289 . S
O590 La561 2.470 . S
O590 C579 1.258 . S
O591 La560 2.503 . S
O591 C579 1.256 . S
H592 C564 0.930 . S
H593 C565 0.930 . S
H594 C567 0.929 1_554 S
H595 C568 0.929 . S
H596 C573 0.930 . S
H597 C574 0.930 . S
H598 C576 0.929 . S
H599 C577 0.929 . S
La600 C602 2.928 . S
La600 O620 2.521 . S
La600 O621 2.628 . S
La600 O622 2.554 . S
La600 O623 2.757 1_655 S
La600 O624 2.470 . S
La600 O629 2.482 . S
La600 O631 2.503 1_655 S
La601 C611 2.928 . S
La601 O623 2.482 . S
La601 O625 2.503 1_455 S
La601 O626 2.521 . S
La601 O627 2.628 . S
La601 O628 2.554 . S
La601 O629 2.757 1_455 S
La601 O630 2.470 . S
C602 La600 2.928 . S
C602 C603 1.503 . S
C602 O620 1.261 . S
C602 O621 1.243 . S
C603 C602 1.503 . S
C603 C604 1.394 . S
C603 C608 1.373 . S
C604 C603 1.394 . S
C604 C605 1.380 . S
C604 H632 0.930 . S
C605 C604 1.380 . S
C605 C606 1.376 . S
C605 H633 0.930 . S
C606 C605 1.376 . S
C606 C607 1.370 . S
C607 C606 1.370 . S
C607 C608 1.396 . S
C607 H634 0.929 1_556 S
C608 C603 1.373 . S
C608 C607 1.396 . S
C608 H635 0.929 . S
C609 O622 1.251 . S
C609 O623 1.283 1_655 S
C610 O624 1.258 . S
C610 O625 1.256 . S
C611 La601 2.928 . S
C611 C612 1.503 . S
C611 O626 1.261 . S
C611 O627 1.243 . S
C612 C611 1.503 . S
C612 C613 1.394 . S
C612 C617 1.373 . S
C613 C612 1.394 . S
C613 C614 1.380 . S
C613 H636 0.930 . S
C614 C613 1.380 . S
C614 C615 1.376 . S
C614 H637 0.930 . S
C615 C614 1.376 . S
C615 C616 1.370 . S
C616 C615 1.370 . S
C616 C617 1.396 . S
C616 H638 0.929 . S
C617 C612 1.373 . S
C617 C616 1.396 . S
C617 H639 0.929 . S
C618 O628 1.257 . S
C618 O629 1.279 1_455 S
C619 O630 1.258 . S
C619 O631 1.256 . S
O620 La600 2.521 . S
O620 C602 1.261 . S
O621 La600 2.628 . S
O621 C602 1.243 . S
O622 La600 2.554 . S
O622 C609 1.251 . S
O623 La600 2.757 1_455 S
O623 La601 2.482 . S
O623 C609 1.283 1_455 S
O624 La600 2.470 . S
O624 C610 1.258 . S
O625 La601 2.503 1_655 S
O625 C610 1.256 . S
O626 La601 2.521 . S
O626 C611 1.261 . S
O627 La601 2.628 . S
O627 C611 1.243 . S
O628 La601 2.554 . S
O628 C618 1.257 . S
O629 La600 2.482 . S
O629 La601 2.757 1_655 S
O629 C618 1.279 1_655 S
O630 La601 2.470 . S
O630 C619 1.258 . S
O631 La600 2.503 1_455 S
O631 C619 1.256 . S
H632 C604 0.930 . S
H633 C605 0.930 . S
H634 C607 0.929 1_554 S
H635 C608 0.929 . S
H636 C613 0.930 . S
H637 C614 0.930 . S
H638 C616 0.929 . S
H639 C617 0.929 . S
H640 C646 0.930 . S
H641 C649 0.930 . S
H642 C650 0.930 . S
H643 C651 0.930 . S
H644 C654 0.930 . S
H645 C655 0.930 . S
C646 H640 0.930 . S
C646 C647 1.355 1_545 S
C646 C648 1.415 . S
C647 C646 1.355 1_565 S
C647 C649 1.419 . S
C648 C646 1.415 . S
C648 C653 1.425 1_545 S
C648 C655 1.409 . S
C649 H641 0.930 . S
C649 C647 1.419 . S
C649 C650 1.362 . S
C650 H642 0.930 . S
C650 C649 1.362 . S
C650 C653 1.409 . S
C651 H643 0.930 . S
C651 C652 1.355 1_565 S
C651 C653 1.415 . S
C652 C651 1.355 1_545 S
C652 C654 1.419 . S
C653 C648 1.425 1_565 S
C653 C650 1.409 . S
C653 C651 1.415 . S
C654 H644 0.930 . S
C654 C652 1.419 . S
C654 C655 1.362 . S
C655 H645 0.930 . S
C655 C648 1.409 . S
C655 C654 1.362 . S
H656 C662 0.930 . S
H657 C665 0.930 . S
H658 C666 0.930 . S
H659 C667 0.930 . S
H660 C670 0.930 . S
H661 C671 0.930 . S
C662 H656 0.930 . S
C662 C663 1.355 . S
C662 C664 1.415 . S
C663 C662 1.355 . S
C663 C665 1.419 . S
C664 C662 1.415 . S
C664 C669 1.425 . S
C664 C671 1.409 . S
C665 H657 0.930 . S
C665 C663 1.419 . S
C665 C666 1.362 . S
C666 H658 0.930 . S
C666 C665 1.362 . S
C666 C669 1.409 . S
C667 H659 0.930 . S
C667 C668 1.355 . S
C667 C669 1.415 . S
C668 C667 1.355 . S
C668 C670 1.419 . S
C669 C664 1.425 . S
C669 C666 1.409 . S
C669 C667 1.415 . S
C670 H660 0.930 . S
C670 C668 1.419 . S
C670 C671 1.362 . S
C671 H661 0.930 . S
C671 C664 1.409 . S
C671 C670 1.362 . S
H672 C678 0.930 . S
H673 C681 0.930 . S
H674 C682 0.930 . S
H675 C683 0.930 . S
H676 C686 0.930 . S
H677 C687 0.930 . S
C678 H672 0.930 . S
C678 C679 1.355 . S
C678 C680 1.415 . S
C679 C678 1.355 . S
C679 C681 1.419 . S
C680 C678 1.415 . S
C680 C685 1.425 . S
C680 C687 1.409 . S
C681 H673 0.930 . S
C681 C679 1.419 . S
C681 C682 1.362 . S
C682 H674 0.930 . S
C682 C681 1.362 . S
C682 C685 1.409 . S
C683 H675 0.930 . S
C683 C684 1.355 . S
C683 C685 1.415 . S
C684 C683 1.355 . S
C684 C686 1.419 . S
C685 C680 1.425 . S
C685 C682 1.409 . S
C685 C683 1.415 . S
C686 H676 0.930 . S
C686 C684 1.419 . S
C686 C687 1.362 . S
C687 H677 0.930 . S
C687 C680 1.409 . S
C687 C686 1.362 . S
H688 C694 0.930 . S
H689 C697 0.930 . S
H690 C698 0.930 . S
H691 C699 0.930 . S
H692 C702 0.930 . S
H693 C703 0.930 . S
C694 H688 0.930 . S
C694 C695 1.353 1_655 S
C694 C696 1.415 . S
C695 C694 1.353 1_455 S
C695 C697 1.421 . S
C696 C694 1.415 . S
C696 C701 1.425 1_655 S
C696 C703 1.409 . S
C697 H689 0.930 . S
C697 C695 1.421 . S
C697 C698 1.362 . S
C698 H690 0.930 . S
C698 C697 1.362 . S
C698 C701 1.409 . S
C699 H691 0.930 . S
C699 C700 1.355 . S
C699 C701 1.415 . S
C700 C699 1.355 . S
C700 C702 1.419 1_455 S
C701 C696 1.425 1_455 S
C701 C698 1.409 . S
C701 C699 1.415 . S
C702 H692 0.930 . S
C702 C700 1.419 1_655 S
C702 C703 1.362 . S
C703 H693 0.930 . S
C703 C696 1.409 . S
C703 C702 1.362 . S
H704 C710 0.930 . S
H705 C713 0.930 . S
H706 C714 0.930 . S
H707 C715 0.930 . S
H708 C718 0.930 . S
H709 C719 0.930 . S
C710 H704 0.930 . S
C710 C711 1.337 1_545 S
C710 C712 1.415 . S
C711 C710 1.337 1_565 S
C711 C713 1.442 . S
C712 C710 1.415 . S
C712 C717 1.425 1_545 S
C712 C719 1.409 . S
C713 H705 0.930 . S
C713 C711 1.442 . S
C713 C714 1.362 . S
C714 H706 0.930 . S
C714 C713 1.362 . S
C714 C717 1.409 . S
C715 H707 0.930 . S
C715 C716 1.357 . S
C715 C717 1.415 1_556 S
C716 C715 1.357 . S
C716 C718 1.417 1_565 S
C717 C712 1.425 1_565 S
C717 C714 1.409 . S
C717 C715 1.415 1_554 S
C718 H708 0.930 . S
C718 C716 1.417 1_545 S
C718 C719 1.362 1_556 S
C719 H709 0.930 . S
C719 C712 1.409 . S
C719 C718 1.362 1_554 S
H720 C726 0.930 . S
H721 C729 0.930 . S
H722 C730 0.930 . S
H723 C731 0.930 . S
H724 C734 0.930 . S
H725 C735 0.930 . S
C726 H720 0.930 . S
C726 C727 1.355 . S
C726 C728 1.415 . S
C727 C726 1.355 . S
C727 C729 1.419 . S
C728 C726 1.415 . S
C728 C733 1.425 . S
C728 C735 1.409 . S
C729 H721 0.930 . S
C729 C727 1.419 . S
C729 C730 1.362 . S
C730 H722 0.930 . S
C730 C729 1.362 . S
C730 C733 1.409 . S
C731 H723 0.930 . S
C731 C732 1.355 . S
C731 C733 1.415 1_556 S
C732 C731 1.355 . S
C732 C734 1.419 . S
C733 C728 1.425 . S
C733 C730 1.409 . S
C733 C731 1.415 1_554 S
C734 H724 0.930 . S
C734 C732 1.419 . S
C734 C735 1.362 1_556 S
C735 H725 0.930 . S
C735 C728 1.409 . S
C735 C734 1.362 1_554 S
H736 C742 0.930 . S
H737 C745 0.930 . S
H738 C746 0.930 . S
H739 C747 0.930 . S
H740 C750 0.930 . S
H741 C751 0.930 . S
C742 H736 0.930 . S
C742 C743 1.355 . S
C742 C744 1.415 . S
C743 C742 1.355 . S
C743 C745 1.419 . S
C744 C742 1.415 . S
C744 C749 1.425 . S
C744 C751 1.409 . S
C745 H737 0.930 . S
C745 C743 1.419 . S
C745 C746 1.362 . S
C746 H738 0.930 . S
C746 C745 1.362 . S
C746 C749 1.409 . S
C747 H739 0.930 . S
C747 C748 1.355 . S
C747 C749 1.415 1_556 S
C748 C747 1.355 . S
C748 C750 1.419 . S
C749 C744 1.425 . S
C749 C746 1.409 . S
C749 C747 1.415 1_554 S
C750 H740 0.930 . S
C750 C748 1.419 . S
C750 C751 1.362 1_556 S
C751 H741 0.930 . S
C751 C744 1.409 . S
C751 C750 1.362 1_554 S
H752 C758 0.930 . S
H753 C761 0.930 . S
H754 C762 0.930 . S
H755 C763 0.930 . S
H756 C766 0.930 . S
H757 C767 0.930 . S
C758 H752 0.930 . S
C758 C759 1.355 1_455 S
C758 C760 1.415 . S
C759 C758 1.355 1_655 S
C759 C761 1.419 . S
C760 C758 1.415 . S
C760 C765 1.425 1_455 S
C760 C767 1.409 . S
C761 H753 0.930 . S
C761 C759 1.419 . S
C761 C762 1.362 . S
C762 H754 0.930 . S
C762 C761 1.362 . S
C762 C765 1.409 . S
C763 H755 0.930 . S
C763 C764 1.331 1_655 S
C763 C765 1.415 1_556 S
C764 C763 1.331 1_455 S
C764 C766 1.449 . S
C765 C760 1.425 1_655 S
C765 C762 1.409 . S
C765 C763 1.415 1_554 S
C766 H756 0.930 . S
C766 C764 1.449 . S
C766 C767 1.362 1_556 S
C767 H757 0.930 . S
C767 C760 1.409 . S
C767 C766 1.362 1_554 S
H768 C774 0.930 . S
H769 C777 0.930 . S
H770 C778 0.930 . S
H771 C779 0.930 . S
H772 C782 0.930 . S
H773 C783 0.930 . S
C774 H768 0.930 . S
C774 C775 1.355 1_655 S
C774 C776 1.415 . S
C775 C774 1.355 1_455 S
C775 C777 1.419 . S
C776 C774 1.415 . S
C776 C781 1.425 . S
C776 C783 1.409 . S
C777 H769 0.930 . S
C777 C775 1.419 . S
C777 C778 1.362 . S
C778 H770 0.930 . S
C778 C777 1.362 . S
C778 C781 1.409 1_455 S
C779 H771 0.930 . S
C779 C780 1.355 . S
C779 C781 1.415 . S
C780 C779 1.355 . S
C780 C782 1.419 . S
C781 C776 1.425 . S
C781 C778 1.409 1_655 S
C781 C779 1.415 . S
C782 H772 0.930 . S
C782 C780 1.419 . S
C782 C783 1.362 . S
C783 H773 0.930 . S
C783 C776 1.409 . S
C783 C782 1.362 . S
H784 C790 0.930 . S
H785 C793 0.930 . S
H786 C794 0.930 . S
H787 C795 0.930 . S
H788 C798 0.930 . S
H789 C799 0.930 . S
C790 H784 0.930 . S
C790 C791 1.355 1_565 S
C790 C792 1.415 . S
C791 C790 1.355 1_545 S
C791 C793 1.419 . S
C792 C790 1.415 . S
C792 C797 1.425 . S
C792 C799 1.409 . S
C793 H785 0.930 . S
C793 C791 1.419 . S
C793 C794 1.362 . S
C794 H786 0.930 . S
C794 C793 1.362 . S
C794 C797 1.409 1_545 S
C795 H787 0.930 . S
C795 C796 1.355 . S
C795 C797 1.415 . S
C796 C795 1.355 . S
C796 C798 1.419 . S
C797 C792 1.425 . S
C797 C794 1.409 1_565 S
C797 C795 1.415 . S
C798 H788 0.930 . S
C798 C796 1.419 . S
C798 C799 1.362 . S
C799 H789 0.930 . S
C799 C792 1.409 . S
C799 C798 1.362 . S
H800 C806 0.930 . S
H801 C809 0.930 . S
H802 C810 0.930 . S
H803 C811 0.930 . S
H804 C814 0.930 . S
H805 C815 0.930 . S
C806 H800 0.930 . S
C806 C807 1.355 . S
C806 C808 1.415 . S
C807 C806 1.355 . S
C807 C809 1.419 . S
C808 C806 1.415 . S
C808 C813 1.425 . S
C808 C815 1.409 . S
C809 H801 0.930 . S
C809 C807 1.419 . S
C809 C810 1.362 . S
C810 H802 0.930 . S
C810 C809 1.362 . S
C810 C813 1.409 . S
C811 H803 0.930 . S
C811 C812 1.355 . S
C811 C813 1.415 . S
C812 C811 1.355 . S
C812 C814 1.419 . S
C813 C808 1.425 . S
C813 C810 1.409 . S
C813 C811 1.415 . S
C814 H804 0.930 . S
C814 C812 1.419 . S
C814 C815 1.362 . S
C815 H805 0.930 . S
C815 C808 1.409 . S
C815 C814 1.362 . S
H816 C822 0.930 . S
H817 C825 0.930 . S
H818 C826 0.930 . S
H819 C827 0.930 . S
H820 C830 0.930 . S
H821 C831 0.930 . S
C822 H816 0.930 . S
C822 C823 1.355 . S
C822 C824 1.415 . S
C823 C822 1.355 . S
C823 C825 1.419 . S
C824 C822 1.415 . S
C824 C829 1.425 . S
C824 C831 1.409 . S
C825 H817 0.930 . S
C825 C823 1.419 . S
C825 C826 1.362 . S
C826 H818 0.930 . S
C826 C825 1.362 . S
C826 C829 1.409 . S
C827 H819 0.930 . S
C827 C828 1.355 . S
C827 C829 1.415 . S
C828 C827 1.355 . S
C828 C830 1.419 . S
C829 C824 1.425 . S
C829 C826 1.409 . S
C829 C827 1.415 . S
C830 H820 0.930 . S
C830 C828 1.419 . S
C830 C831 1.362 . S
C831 H821 0.930 . S
C831 C824 1.409 . S
C831 C830 1.362 . S
H832 C838 0.930 . S
H833 C841 0.930 . S
H834 C842 0.930 . S
H835 C843 0.930 . S
H836 C846 0.930 . S
H837 C847 0.910 1_656 S
C838 H832 0.930 . S
C838 C839 1.358 . S
C838 C840 1.415 1_655 S
C839 C838 1.358 . S
C839 C841 1.409 1_655 S
C840 C838 1.415 1_455 S
C840 C845 1.425 . S
C840 C847 1.416 . S
C841 H833 0.930 . S
C841 C839 1.409 1_455 S
C841 C842 1.362 . S
C842 H834 0.930 . S
C842 C841 1.362 . S
C842 C845 1.409 . S
C843 H835 0.930 . S
C843 C844 1.355 . S
C843 C845 1.415 . S
C844 C843 1.355 . S
C844 C846 1.419 1_554 S
C845 C840 1.425 . S
C845 C842 1.409 . S
C845 C843 1.415 . S
C846 H836 0.930 . S
C846 C844 1.419 1_556 S
C846 C847 1.376 1_556 S
C847 H837 0.910 1_454 S
C847 C840 1.416 . S
C847 C846 1.376 1_554 S
H848 C854 0.930 . S
H849 C857 0.934 . S
H850 C858 0.930 . S
H851 C859 0.930 . S
H852 C862 0.930 . S
H853 C863 0.930 . S
C854 H848 0.930 . S
C854 C855 1.355 1_545 S
C854 C856 1.415 . S
C855 C854 1.355 1_565 S
C855 C857 1.420 . S
C856 C854 1.415 . S
C856 C861 1.425 . S
C856 C863 1.409 . S
C857 H849 0.934 . S
C857 C855 1.420 . S
C857 C858 1.357 1_564 S
C858 H850 0.930 . S
C858 C857 1.357 1_546 S
C858 C861 1.409 1_556 S
C859 H851 0.930 . S
C859 C860 1.355 1_556 S
C859 C861 1.415 1_556 S
C860 C859 1.355 1_554 S
C860 C862 1.419 . S
C861 C856 1.425 . S
C861 C858 1.409 1_554 S
C861 C859 1.415 1_554 S
C862 H852 0.930 . S
C862 C860 1.419 . S
C862 C863 1.362 . S
C863 H853 0.930 . S
C863 C856 1.409 . S
C863 C862 1.362 . S
H864 C870 0.930 . S
H865 C873 0.930 . S
H866 C874 0.930 . S
H867 C875 0.930 . S
H868 C878 0.930 . S
H869 C879 0.930 . S
C870 H864 0.930 . S
C870 C871 1.355 . S
C870 C872 1.415 . S
C871 C870 1.355 . S
C871 C873 1.419 . S
C872 C870 1.415 . S
C872 C877 1.425 . S
C872 C879 1.409 . S
C873 H865 0.930 . S
C873 C871 1.419 . S
C873 C874 1.362 . S
C874 H866 0.930 . S
C874 C873 1.362 . S
C874 C877 1.409 . S
C875 H867 0.930 . S
C875 C876 1.355 . S
C875 C877 1.415 . S
C876 C875 1.355 . S
C876 C878 1.419 . S
C877 C872 1.425 . S
C877 C874 1.409 . S
C877 C875 1.415 . S
C878 H868 0.930 . S
C878 C876 1.419 . S
C878 C879 1.362 . S
C879 H869 0.930 . S
C879 C872 1.409 . S
C879 C878 1.362 . S
H880 C886 0.930 . S
H881 C889 0.930 . S
H882 C890 0.930 1_556 S
H883 C891 0.930 1_556 S
H884 C894 0.930 . S
H885 C895 0.930 . S
C886 H880 0.930 . S
C886 C887 1.355 . S
C886 C888 1.415 . S
C887 C886 1.355 . S
C887 C889 1.419 . S
C888 C886 1.415 . S
C888 C893 1.425 . S
C888 C895 1.409 . S
C889 H881 0.930 . S
C889 C887 1.419 . S
C889 C890 1.362 . S
C890 H882 0.930 1_554 S
C890 C889 1.362 . S
C890 C893 1.409 . S
C891 H883 0.930 1_554 S
C891 C892 1.355 . S
C891 C893 1.415 . S
C892 C891 1.355 . S
C892 C894 1.419 . S
C893 C888 1.425 . S
C893 C890 1.409 . S
C893 C891 1.415 . S
C894 H884 0.930 . S
C894 C892 1.419 . S
C894 C895 1.362 . S
C895 H885 0.930 . S
C895 C888 1.409 . S
C895 C894 1.362 . S
H896 C902 0.935 . S
H897 C905 0.930 . S
H898 C906 0.930 . S
H899 C907 0.930 . S
H900 C910 0.930 . S
H901 C911 0.922 1_655 S
C902 H896 0.935 . S
C902 C903 1.355 . S
C902 C904 1.415 . S
C903 C902 1.355 . S
C903 C905 1.419 . S
C904 C902 1.415 . S
C904 C909 1.425 . S
C904 C911 1.409 . S
C905 H897 0.930 . S
C905 C903 1.419 . S
C905 C906 1.362 . S
C906 H898 0.930 . S
C906 C905 1.362 . S
C906 C909 1.409 . S
C907 H899 0.930 . S
C907 C908 1.355 . S
C907 C909 1.415 . S
C908 C907 1.355 . S
C908 C910 1.419 . S
C909 C904 1.425 . S
C909 C906 1.409 . S
C909 C907 1.415 . S
C910 H900 0.930 . S
C910 C908 1.419 . S
C910 C911 1.362 . S
C911 H901 0.922 1_455 S
C911 C904 1.409 . S
C911 C910 1.362 . S
H912 C918 0.930 . S
H913 C921 0.930 . S
H914 C922 0.930 . S
H915 C923 0.930 . S
H916 C926 0.930 . S
H917 C927 0.930 . S
C918 H912 0.930 . S
C918 C919 1.355 1_565 S
C918 C920 1.415 . S
C919 C918 1.355 1_545 S
C919 C921 1.419 . S
C920 C918 1.415 . S
C920 C925 1.425 1_565 S
C920 C927 1.409 . S
C921 H913 0.930 . S
C921 C919 1.419 . S
C921 C922 1.362 . S
C922 H914 0.930 . S
C922 C921 1.362 . S
C922 C925 1.409 . S
C923 H915 0.930 . S
C923 C924 1.355 . S
C923 C925 1.415 . S
C924 C923 1.355 . S
C924 C926 1.419 1_545 S
C925 C920 1.425 1_545 S
C925 C922 1.409 . S
C925 C923 1.415 . S
C926 H916 0.930 . S
C926 C924 1.419 1_565 S
C926 C927 1.362 . S
C927 H917 0.930 . S
C927 C920 1.409 . S
C927 C926 1.362 . S
H928 C934 0.930 . S
H929 C937 0.930 . S
H930 C938 0.930 . S
H931 C939 0.930 . S
H932 C942 0.930 . S
H933 C943 0.930 . S
C934 H928 0.930 . S
C934 C935 1.355 . S
C934 C936 1.415 . S
C935 C934 1.355 . S
C935 C937 1.419 . S
C936 C934 1.415 . S
C936 C941 1.425 . S
C936 C943 1.409 . S
C937 H929 0.930 . S
C937 C935 1.419 . S
C937 C938 1.362 . S
C938 H930 0.930 . S
C938 C937 1.362 . S
C938 C941 1.409 . S
C939 H931 0.930 . S
C939 C940 1.355 . S
C939 C941 1.415 . S
C940 C939 1.355 . S
C940 C942 1.419 . S
C941 C936 1.425 . S
C941 C938 1.409 . S
C941 C939 1.415 . S
C942 H932 0.930 . S
C942 C940 1.419 . S
C942 C943 1.362 . S
C943 H933 0.930 . S
C943 C936 1.409 . S
C943 C942 1.362 . S
H944 C950 0.930 . S
H945 C953 0.930 . S
H946 C954 0.930 . S
H947 C955 0.930 . S
H948 C958 0.930 . S
H949 C959 0.930 . S
C950 H944 0.930 . S
C950 C951 1.355 . S
C950 C952 1.415 . S
C951 C950 1.355 . S
C951 C953 1.419 . S
C952 C950 1.415 . S
C952 C957 1.425 . S
C952 C959 1.409 . S
C953 H945 0.930 . S
C953 C951 1.419 . S
C953 C954 1.362 . S
C954 H946 0.930 . S
C954 C953 1.362 . S
C954 C957 1.409 . S
C955 H947 0.930 . S
C955 C956 1.355 . S
C955 C957 1.415 . S
C956 C955 1.355 . S
C956 C958 1.419 . S
C957 C952 1.425 . S
C957 C954 1.409 . S
C957 C955 1.415 . S
C958 H948 0.930 . S
C958 C956 1.419 . S
C958 C959 1.362 . S
C959 H949 0.930 . S
C959 C952 1.409 . S
C959 C958 1.362 . S
H960 C966 0.930 . S
H961 C969 0.930 . S
H962 C970 0.930 . S
H963 C971 0.930 . S
H964 C974 0.930 . S
H965 C975 0.930 . S
C966 H960 0.930 . S
C966 C967 1.355 1_455 S
C966 C968 1.415 . S
C967 C966 1.355 1_655 S
C967 C969 1.419 . S
C968 C966 1.415 . S
C968 C973 1.425 1_455 S
C968 C975 1.409 . S
C969 H961 0.930 . S
C969 C967 1.419 . S
C969 C970 1.362 . S
C970 H962 0.930 . S
C970 C969 1.362 . S
C970 C973 1.409 . S
C971 H963 0.930 . S
C971 C972 1.355 . S
C971 C973 1.415 . S
C972 C971 1.355 . S
C972 C974 1.419 1_655 S
C973 C968 1.425 1_655 S
C973 C970 1.409 . S
C973 C971 1.415 . S
C974 H964 0.930 . S
C974 C972 1.419 1_455 S
C974 C975 1.362 . S
C975 H965 0.930 . S
C975 C968 1.409 . S
C975 C974 1.362 . S
H976 C982 0.930 . S
H977 C985 0.930 . S
H978 C986 0.930 . S
H979 C987 0.930 . S
H980 C990 0.930 . S
H981 C991 0.930 . S
C982 H976 0.930 . S
C982 C983 1.355 1_545 S
C982 C984 1.418 . S
C983 C982 1.355 1_565 S
C983 C985 1.419 . S
C984 C982 1.418 . S
C984 C989 1.414 1_545 S
C984 C991 1.418 . S
C985 H977 0.930 . S
C985 C983 1.419 . S
C985 C986 1.362 . S
C986 H978 0.930 . S
C986 C985 1.362 . S
C986 C989 1.409 . S
C987 H979 0.930 . S
C987 C988 1.355 . S
C987 C989 1.415 . S
C988 C987 1.355 . S
C988 C990 1.419 1_565 S
C989 C984 1.414 1_565 S
C989 C986 1.409 . S
C989 C987 1.415 . S
C990 H980 0.930 . S
C990 C988 1.419 1_545 S
C990 C991 1.362 . S
C991 H981 0.930 . S
C991 C984 1.418 . S
C991 C990 1.362 . S
H992 C998 0.930 . S
H993 C1001 0.930 . S
H994 C1002 0.930 . S
H995 C1003 0.930 . S
H996 C1006 0.930 . S
H997 C1007 0.930 . S
C998 H992 0.930 . S
C998 C999 1.355 . S
C998 C1000 1.415 . S
C999 C998 1.355 . S
C999 C1001 1.419 . S
C1000 C998 1.415 . S
C1000 C1005 1.425 . S
C1000 C1007 1.409 . S
C1001 H993 0.930 . S
C1001 C999 1.419 . S
C1001 C1002 1.362 . S
C1002 H994 0.930 . S
C1002 C1001 1.362 . S
C1002 C1005 1.409 . S
C1003 H995 0.930 . S
C1003 C1004 1.355 . S
C1003 C1005 1.415 . S
C1004 C1003 1.355 . S
C1004 C1006 1.419 . S
C1005 C1000 1.425 . S
C1005 C1002 1.409 . S
C1005 C1003 1.415 . S
C1006 H996 0.930 . S
C1006 C1004 1.419 . S
C1006 C1007 1.362 . S
C1007 H997 0.930 . S
C1007 C1000 1.409 . S
C1007 C1006 1.362 . S
H1008 C1014 0.930 . S
H1009 C1017 0.930 . S
H1010 C1018 0.930 . S
H1011 C1019 0.930 . S
H1012 C1022 0.930 . S
H1013 C1023 0.930 . S
C1014 H1008 0.930 . S
C1014 C1015 1.355 . S
C1014 C1016 1.415 . S
C1015 C1014 1.355 . S
C1015 C1017 1.419 . S
C1016 C1014 1.415 . S
C1016 C1021 1.425 . S
C1016 C1023 1.409 . S
C1017 H1009 0.930 . S
C1017 C1015 1.419 . S
C1017 C1018 1.362 . S
C1018 H1010 0.930 . S
C1018 C1017 1.362 . S
C1018 C1021 1.409 . S
C1019 H1011 0.930 . S
C1019 C1020 1.355 . S
C1019 C1021 1.415 . S
C1020 C1019 1.355 . S
C1020 C1022 1.419 . S
C1021 C1016 1.425 . S
C1021 C1018 1.409 . S
C1021 C1019 1.415 . S
C1022 H1012 0.930 . S
C1022 C1020 1.419 . S
C1022 C1023 1.362 . S
C1023 H1013 0.930 . S
C1023 C1016 1.409 . S
C1023 C1022 1.362 . S
C647 C391 2.452 1_565 S
C652 C489 2.567 1_545 S
C668 C529 2.582 . S
C663 C451 2.456 . S
C684 C569 2.584 . S
C679 C241 2.186 . S
C700 C609 2.569 1_455 S
C695 C331 2.167 1_455 S
C716 C498 2.548 1_565 S
C711 C121 2.074 . S
C727 C211 2.425 . S
C732 C538 2.563 . S
C743 C31 2.432 . S
C748 C578 2.563 . S
C759 C91 2.099 . S
C764 C618 2.551 . S
C780 C495 0.672 . S
C775 C301 0.775 1_455 S
C796 C535 0.700 . S
C791 C380 0.596 . S
C812 C575 0.472 . S
C807 C440 0.467 . S
C823 C260 0.630 . S
C828 C615 0.642 . S
C839 C61 0.577 . S
C844 C486 0.478 1_554 S
C860 C526 0.655 1_554 S
C855 C140 0.707 . S
C876 C566 0.509 1_554 S
C871 C200 0.502 . S
C887 C20 0.555 . S
C892 C606 0.568 1_554 S
C903 C320 3.213 1_455 S
C908 C499 3.435 . S
C919 C361 2.705 . S
C924 C539 3.404 . S
C940 C579 3.401 . S
C935 C421 2.682 . S
C956 C619 3.438 . S
C951 C271 3.204 . S
C967 C80 3.174 . S
C972 C490 3.437 . S
C988 C530 3.404 . S
C983 C151 3.121 . S
C1004 C570 3.400 . S
C999 C181 2.777 . S
C1015 C1 2.802 . S
C1020 C610 3.449 . S
