# Generated by pormake.
# Topology rtl, (3,6)-cn, num edge types: 1
# Building blocks:
#     Node 0, Type 0, BuildingBlock: ESEHIV_clean_linker_0, # of connection points: 3
#     Node 1, Type 0, BuildingBlock: ESEHIV_clean_linker_0, # of connection points: 3
#     Node 2, Type 0, BuildingBlock: ESEHIV_clean_linker_0, # of connection points: 3
#     Node 3, Type 0, BuildingBlock: ESEHIV_clean_linker_0, # of connection points: 3
#     Node 4, Type 1, BuildingBlock: FUNLAD_clean_sbu_0, # of connection points: 6
#     Node 5, Type 1, BuildingBlock: FUNLAD_clean_sbu_0, # of connection points: 6
#     Edge 6, Type (0, 1), BuildingBlock: FUNLAD_clean_linker_0, # of connection points: 2
#     Edge 7, Type (0, 1), BuildingBlock: FUNLAD_clean_linker_0, # of connection points: 2
#     Edge 8, Type (0, 1), BuildingBlock: FUNLAD_clean_linker_0, # of connection points: 2
#     Edge 9, Type (0, 1), BuildingBlock: FUNLAD_clean_linker_0, # of connection points: 2
#     Edge 10, Type (0, 1), BuildingBlock: FUNLAD_clean_linker_0, # of connection points: 2
#     Edge 11, Type (0, 1), BuildingBlock: FUNLAD_clean_linker_0, # of connection points: 2
#     Edge 12, Type (0, 1), BuildingBlock: FUNLAD_clean_linker_0, # of connection points: 2
#     Edge 13, Type (0, 1), BuildingBlock: FUNLAD_clean_linker_0, # of connection points: 2
#     Edge 14, Type (0, 1), BuildingBlock: FUNLAD_clean_linker_0, # of connection points: 2
#     Edge 15, Type (0, 1), BuildingBlock: FUNLAD_clean_linker_0, # of connection points: 2
#     Edge 16, Type (0, 1), BuildingBlock: FUNLAD_clean_linker_0, # of connection points: 2
#     Edge 17, Type (0, 1), BuildingBlock: FUNLAD_clean_linker_0, # of connection points: 2
# Relax obj value: 0.026
# Max RMSD: 0.097
# Mean RMSD: 0.081
data_MOF--net-rtl--node1-FUNLAD_clean_sbu_0--node2-ESEHIV_clean_linker_0--edge1-FUNLAD_clean_linker_0
_symmetry_space_group_name_H-M    P1
_symmetry_Int_Tables_number       1
_symmetry_cell_setting            triclinic
loop_
_symmetry_equiv_pos_as_xyz
'x, y, z'
_cell_length_a     44.902477
_cell_length_b     36.329634
_cell_length_c     25.638499
_cell_angle_alpha  89.987086
_cell_angle_beta   90.774531
_cell_angle_gamma 90.375107
loop_
_atom_site_label
_atom_site_type_symbol
_atom_site_fract_x
_atom_site_fract_y
_atom_site_fract_z
_atom_type_partial_charge
H0 H 0.0674 0.78771 0.01465 0.0
H1 H 0.14089 0.73156 0.0877 0.0
H2 H 0.13401 0.73704 0.92026 0.0
C3 C 0.0874 0.77132 0.01157 0.0
C4 C 0.09869 0.76335 0.96209 0.0
C5 C 0.10243 0.75995 0.05707 0.0
C6 C 0.12883 0.7397 0.0527 0.0
C7 C 0.14037 0.7312 0.00346 0.0
C8 C 0.12496 0.74284 0.95834 0.0
H9 H 0.57017 0.71204 0.51278 0.0
H10 H 0.63429 0.77799 0.43206 0.0
H11 H 0.62528 0.78858 0.59857 0.0
C12 C 0.58706 0.73352 0.51347 0.0
C13 C 0.59589 0.7493 0.56114 0.0
C14 C 0.6008 0.74373 0.46693 0.0
C15 C 0.62273 0.77134 0.46774 0.0
C16 C 0.63178 0.78776 0.51513 0.0
C17 C 0.61789 0.77692 0.56167 0.0
H18 H 0.9237 0.19269 0.00669 0.0
H19 H 0.8571 0.25933 0.07897 0.0
H20 H 0.86567 0.25919 0.91195 0.0
C21 C 0.90603 0.21279 0.00364 0.0
C22 C 0.89669 0.22491 0.95414 0.0
C23 C 0.89198 0.2251 0.04896 0.0
C24 C 0.86849 0.25029 0.04429 0.0
C25 C 0.8588 0.26271 0.995 0.0
C26 C 0.8733 0.25022 0.95014 0.0
H27 H 0.42079 0.31585 0.50635 0.0
H28 H 0.36709 0.23932 0.5922 0.0
H29 H 0.36226 0.24086 0.42461 0.0
C30 C 0.4053 0.29285 0.50691 0.0
C31 C 0.39367 0.279 0.45961 0.0
C32 C 0.3956 0.27901 0.55495 0.0
C33 C 0.37432 0.25055 0.55528 0.0
C34 C 0.3618 0.23697 0.50856 0.0
C35 C 0.37194 0.25097 0.46083 0.0
C36 C 0.02431 0.94823 0.4289 0.0
N37 N 0.06498 0.03646 0.5088 0.0
C38 C 0.09038 0.01626 0.51064 0.0
C39 C 0.11816 0.03374 0.51291 0.0
C40 C 0.11975 0.07236 0.5134 0.0
C41 C 0.09314 0.09246 0.51127 0.0
C42 C 0.0659 0.07388 0.50899 0.0
Zn43 Zn 0.0246 0.0106 0.50553 0.0
C44 C 0.98479 0.04373 0.42548 0.0
N45 N 0.94039 0.95601 0.49798 0.0
C46 C 0.93817 0.91868 0.49996 0.0
C47 C 0.9157 0.9775 0.49633 0.0
C48 C 0.88737 0.96161 0.49753 0.0
C49 C 0.88435 0.92319 0.50054 0.0
C50 C 0.91022 0.90161 0.50129 0.0
Zn51 Zn 0.98112 0.98118 0.50071 0.0
O52 O 0.04064 0.9736 0.44838 0.0
C53 C 0.02131 0.94882 0.58143 0.0
O54 O 0.99754 0.94486 0.44375 0.0
H55 H 0.91796 0.00714 0.49505 0.0
H56 H 0.08911 0.98652 0.51052 0.0
H57 H 0.95811 0.90213 0.50117 0.0
O58 O 0.03819 0.97443 0.56514 0.0
O59 O 0.99554 0.9447 0.56098 0.0
H60 H 0.04543 0.08939 0.50728 0.0
O61 O 0.96525 0.01765 0.55793 0.0
O62 O 0.00797 0.04704 0.56278 0.0
O63 O 0.96745 0.01821 0.44068 0.0
O64 O 0.01054 0.04676 0.44613 0.0
C65 C 0.98129 0.04307 0.57778 0.0
H66 H 0.13812 0.01721 0.51502 0.0
H67 H 0.09336 0.12227 0.51077 0.0
H68 H 0.86806 0.97933 0.49755 0.0
H69 H 0.90889 0.87186 0.50294 0.0
C70 C 0.48987 0.46002 0.93293 0.0
N71 N 0.57045 0.47513 0.01401 0.0
C72 C 0.57359 0.43798 0.01095 0.0
C73 C 0.60187 0.42241 0.00935 0.0
C74 C 0.62719 0.44526 0.01127 0.0
C75 C 0.62336 0.48346 0.0155 0.0
C76 C 0.59462 0.4979 0.01657 0.0
Zn77 Zn 0.52861 0.49675 0.01226 0.0
C78 C 0.52429 0.55864 0.9362 0.0
N79 N 0.44137 0.54262 0.00688 0.0
C80 C 0.41761 0.51917 0.0069 0.0
C81 C 0.43756 0.57973 0.00591 0.0
C82 C 0.40895 0.59459 0.00499 0.0
C83 C 0.38401 0.57102 0.0053 0.0
C84 C 0.38863 0.53283 0.00622 0.0
Zn85 Zn 0.48336 0.52131 0.00897 0.0
O86 O 0.51598 0.45941 0.95256 0.0
C87 C 0.48826 0.45936 0.0857 0.0
O88 O 0.47127 0.48329 0.94964 0.0
H89 H 0.45675 0.59788 0.0061 0.0
H90 H 0.55409 0.42036 0.00921 0.0
H91 H 0.42113 0.48975 0.00748 0.0
O92 O 0.5148 0.45874 0.06925 0.0
O93 O 0.47019 0.48298 0.06724 0.0
H94 H 0.59162 0.52737 0.01874 0.0
O95 O 0.49614 0.55926 0.06775 0.0
O96 O 0.54063 0.53466 0.07144 0.0
O97 O 0.49742 0.55932 0.95115 0.0
O98 O 0.54197 0.53496 0.9555 0.0
C99 C 0.52234 0.55867 0.0871 0.0
H100 H 0.6039 0.39278 0.00677 0.0
H101 H 0.64234 0.50201 0.01666 0.0
H102 H 0.40638 0.62421 0.00488 0.0
H103 H 0.37004 0.51368 0.00582 0.0
C104 C 0.31384 0.21525 0.54692 0.0
C105 C 0.33636 0.21065 0.50996 0.0
C106 C 0.28894 0.19217 0.5469 0.0
C107 C 0.28563 0.16422 0.50925 0.0
C108 C 0.30855 0.15875 0.47342 0.0
C109 C 0.33363 0.18184 0.47355 0.0
C110 C 0.25856 0.14051 0.50652 0.0
C111 C 0.23172 0.15232 0.52222 0.0
C112 C 0.20385 0.13007 0.52014 0.0
C113 C 0.17964 0.14198 0.54967 0.0
C114 C 0.15255 0.12302 0.54795 0.0
C115 C 0.14892 0.09173 0.5163 0.0
H116 H 0.21805 0.0889 0.46413 0.0
C117 C 0.17314 0.07956 0.48687 0.0
C118 C 0.20032 0.09857 0.48859 0.0
H119 H 0.17087 0.05586 0.46148 0.0
H120 H 0.31506 0.2373 0.57531 0.0
H121 H 0.2724 0.19642 0.57654 0.0
H122 H 0.30677 0.13706 0.44452 0.0
H123 H 0.3508 0.17722 0.44507 0.0
H124 H 0.26093 0.11328 0.48986 0.0
H125 H 0.22975 0.18002 0.53762 0.0
H126 H 0.18166 0.16614 0.57429 0.0
H127 H 0.13445 0.13281 0.57165 0.0
C128 C 0.17687 0.68264 0.03149 0.0
C129 C 0.16961 0.71265 -0.00074 0.0
C130 C 0.20496 0.66636 0.02899 0.0
C131 C 0.22639 0.67978 0.99401 0.0
C132 C 0.21906 0.70978 0.96193 0.0
C133 C 0.191 0.72594 0.96432 0.0
C134 C 0.25703 0.66464 0.99142 0.0
C135 C 0.26436 0.63032 0.00665 0.0
C136 C 0.29522 0.61563 0.00493 0.0
C137 C 0.30253 0.58537 0.03657 0.0
C138 C 0.33128 0.57084 0.03666 0.0
C139 C 0.35338 0.58617 0.00484 0.0
H140 H 0.3124 0.65288 0.94571 0.0
C141 C 0.34599 0.61605 0.97249 0.0
C142 C 0.31722 0.63051 0.97225 0.0
H143 H 0.36235 0.62793 0.94665 0.0
H144 H 0.16085 0.67183 0.05884 0.0
H145 H 0.2099 0.644 0.05549 0.0
H146 H 0.2352 0.72094 0.93504 0.0
H147 H 0.18632 0.74948 0.93966 0.0
H148 H 0.27401 0.68285 0.97605 0.0
H149 H 0.24732 0.61216 0.02203 0.0
H150 H 0.28604 0.57316 0.06186 0.0
H151 H 0.33631 0.54795 0.06231 0.0
C152 C 0.68078 0.80704 0.55447 0.0
C153 C 0.65833 0.81232 0.51651 0.0
C154 C 0.70743 0.82693 0.55239 0.0
C155 C 0.71233 0.85237 0.51198 0.0
C156 C 0.68932 0.85906 0.47567 0.0
C157 C 0.66265 0.83906 0.47765 0.0
C158 C 0.74126 0.87188 0.50628 0.0
C159 C 0.76738 0.85669 0.52105 0.0
C160 C 0.79698 0.87457 0.51459 0.0
C161 C 0.82119 0.86106 0.5439 0.0
C162 C 0.84954 0.87659 0.53904 0.0
C163 C 0.8544 0.90593 0.50443 0.0
H164 H 0.78423 0.91412 0.45458 0.0
C165 C 0.8303 0.91915 0.47445 0.0
C166 C 0.80192 0.90361 0.47928 0.0
H167 H 0.83346 0.94128 0.4467 0.0
H168 H 0.67827 0.78651 0.58476 0.0
H169 H 0.72419 0.82201 0.58225 0.0
H170 H 0.69236 0.87893 0.44464 0.0
H171 H 0.6456 0.84402 0.44824 0.0
H172 H 0.74084 0.89863 0.48753 0.0
H173 H 0.76731 0.82959 0.53892 0.0
H174 H 0.81813 0.83859 0.57114 0.0
H175 H 0.86754 0.86603 0.56315 0.0
C176 C 0.82739 0.31558 0.02466 0.0
C177 C 0.83192 0.2861 0.99024 0.0
C178 C 0.80099 0.33577 0.02241 0.0
C179 C 0.77856 0.32684 0.98551 0.0
C180 C 0.78333 0.29765 0.95082 0.0
C181 C 0.8097 0.2776 0.95298 0.0
C182 C 0.74919 0.34543 0.98388 0.0
C183 C 0.7442 0.37933 0.00315 0.0
C184 C 0.71425 0.39666 0.00309 0.0
C185 C 0.70866 0.42495 0.03894 0.0
C186 C 0.68052 0.44107 0.04137 0.0
C187 C 0.65737 0.42921 0.00789 0.0
H188 H 0.69482 0.36531 0.93848 0.0
C189 C 0.66314 0.40169 0.97102 0.0
C190 C 0.69128 0.38577 0.96832 0.0
H191 H 0.64593 0.39269 0.9438 0.0
H192 H 0.84415 0.32276 0.05378 0.0
H193 H 0.79798 0.35741 0.05076 0.0
H194 H 0.76636 0.28995 0.92232 0.0
H195 H 0.81226 0.25463 0.92651 0.0
H196 H 0.73096 0.32993 0.96622 0.0
H197 H 0.76239 0.39477 0.02109 0.0
H198 H 0.72597 0.43417 0.06583 0.0
H199 H 0.67669 0.46225 0.0702 0.0
C200 C 0.11192 0.78787 0.14516 0.0
C201 C 0.09185 0.77231 0.10873 0.0
C202 C 0.10158 0.80359 0.19118 0.0
C203 C 0.07089 0.80418 0.20159 0.0
C204 C 0.05104 0.7868 0.16658 0.0
C205 C 0.06136 0.77124 0.12043 0.0
C206 C 0.05874 0.82346 0.24767 0.0
C207 C 0.07174 0.85379 0.26836 0.0
C208 C 0.05901 0.87621 0.31118 0.0
C209 C 0.07728 0.903 0.33515 0.0
C210 C 0.06613 0.92612 0.37364 0.0
C211 C 0.03631 0.92311 0.38904 0.0
H212 H 0.01391 0.85357 0.30889 0.0
C213 C 0.018 0.89618 0.36546 0.0
C214 C 0.02914 0.87307 0.32685 0.0
H215 H 0.99486 0.89325 0.37629 0.0
H216 H 0.13553 0.78916 0.13723 0.0
H217 H 0.11767 0.81555 0.21813 0.0
H218 H 0.02734 0.7864 0.17403 0.0
H219 H 0.04543 0.75898 0.09339 0.0
H220 H 0.03765 0.8135 0.26232 0.0
H221 H 0.09257 0.86362 0.25222 0.0
H222 H 0.10031 0.90626 0.32379 0.0
H223 H 0.08087 0.94655 0.39104 0.0
C224 C 0.58388 0.69484 0.61614 0.0
C225 C 0.58482 0.73327 0.61042 0.0
C226 C 0.57401 0.67894 0.66216 0.0
C227 C 0.56512 0.70109 0.70403 0.0
C228 C 0.56552 0.73953 0.69823 0.0
C229 C 0.57561 0.75557 0.65191 0.0
C230 C 0.55482 0.68411 0.75326 0.0
C231 C 0.56676 0.65256 0.77118 0.0
C232 C 0.55576 0.63164 0.81673 0.0
C233 C 0.57474 0.60558 0.83969 0.0
C234 C 0.56462 0.58247 0.87912 0.0
C235 C 0.5351 0.58464 0.89625 0.0
H236 H 0.51083 0.65365 0.817 0.0
C237 C 0.51614 0.61119 0.87406 0.0
C238 C 0.52635 0.6345 0.83457 0.0
H239 H 0.49326 0.61351 0.88645 0.0
H240 H 0.59112 0.67691 0.58509 0.0
H241 H 0.57312 0.6492 0.6646 0.0
H242 H 0.55843 0.75713 0.72977 0.0
H243 H 0.57596 0.78528 0.64834 0.0
H244 H 0.53774 0.6981 0.77514 0.0
H245 H 0.58586 0.64119 0.75133 0.0
H246 H 0.59743 0.60264 0.82646 0.0
H247 H 0.57987 0.56242 0.89546 0.0
C248 C 0.93047 0.20246 0.11297 0.0
C249 C 0.90044 0.20919 0.10041 0.0
C250 C 0.93829 0.18375 0.15867 0.0
C251 C 0.91619 0.1717 0.19341 0.0
C252 C 0.88626 0.17949 0.18154 0.0
C253 C 0.87844 0.19801 0.13564 0.0
C254 C 0.92306 0.14877 0.24016 0.0
C255 C 0.95065 0.14457 0.26061 0.0
C256 C 0.95792 0.1191 0.30435 0.0
C257 C 0.98519 0.12378 0.331 0.0
C258 C 0.99378 0.09947 0.3705 0.0
C259 C 0.9753 0.06974 0.38422 0.0
H260 H 0.91862 0.08381 0.2976 0.0
C261 C 0.94793 0.06501 0.3578 0.0
C262 C 0.93937 0.08927 0.31808 0.0
H263 H 0.93329 0.04222 0.36723 0.0
H264 H 0.94797 0.21098 0.08683 0.0
H265 H 0.96158 0.17784 0.16519 0.0
H266 H 0.86873 0.17038 0.20724 0.0
H267 H 0.85506 0.20224 0.12683 0.0
H268 H 0.90439 0.13492 0.25829 0.0
H269 H 0.96897 0.16076 0.24549 0.0
H270 H 5e-05 0.14625 0.32103 0.0
H271 H 0.01502 0.10394 0.3901 0.0
C272 C 0.43547 0.30793 0.61171 0.0
C273 C 0.40577 0.29634 0.60464 0.0
C274 C 0.44437 0.32655 0.65709 0.0
C275 C 0.42373 0.3337 0.69671 0.0
C276 C 0.3942 0.32156 0.68984 0.0
C277 C 0.3853 0.30315 0.64445 0.0
C278 C 0.43129 0.35562 0.74414 0.0
C279 C 0.45926 0.3636 0.76037 0.0
C280 C 0.46604 0.38765 0.80599 0.0
C281 C 0.49403 0.38498 0.83072 0.0
C282 C 0.50166 0.4081 0.87243 0.0
C283 C 0.48147 0.4346 0.8901 0.0
H284 H 0.42451 0.41831 0.8046 0.0
C285 C 0.45347 0.43732 0.8654 0.0
C286 C 0.44588 0.41431 0.82363 0.0
H287 H 0.43752 0.45771 0.87769 0.0
H288 H 0.45181 0.30296 0.58186 0.0
H289 H 0.4672 0.33603 0.65992 0.0
H290 H 0.37773 0.32693 0.71934 0.0
H291 H 0.3621 0.29528 0.63995 0.0
H292 H 0.41269 0.36517 0.76699 0.0
H293 H 0.47807 0.35158 0.74066 0.0
H294 H 0.5101 0.36499 0.81766 0.0
H295 H 0.52348 0.40537 0.89052 0.0
C296 C 0.58807 0.73905 0.37141 0.0
C297 C 0.59486 0.72196 0.41918 0.0
C298 C 0.58207 0.71773 0.32695 0.0
C299 C 0.58314 0.67904 0.32971 0.0
C300 C 0.59079 0.66222 0.37718 0.0
C301 C 0.59636 0.6834 0.42153 0.0
C302 C 0.57691 0.6551 0.28408 0.0
C303 C 0.55775 0.66405 0.2454 0.0
C304 C 0.54951 0.63773 0.20332 0.0
C305 C 0.52082 0.63906 0.18111 0.0
C306 C 0.51189 0.61335 0.1434 0.0
C307 C 0.53168 0.58603 0.12678 0.0
H308 H 0.59222 0.60999 0.20054 0.0
C309 C 0.56071 0.58543 0.14788 0.0
C310 C 0.56958 0.61106 0.1856 0.0
H311 H 0.57664 0.56511 0.13533 0.0
H312 H 0.58706 0.76877 0.36868 0.0
H313 H 0.577 0.73157 0.29054 0.0
H314 H 0.59207 0.63252 0.38018 0.0
H315 H 0.60212 0.66959 0.45772 0.0
H316 H 0.58647 0.62771 0.28501 0.0
H317 H 0.54576 0.68989 0.24708 0.0
H318 H 0.50504 0.65954 0.19377 0.0
H319 H 0.48946 0.6148 0.12748 0.0
C320 C 0.91369 0.17047 0.9033 0.0
C321 C 0.90973 0.20871 0.9066 0.0
C322 C 0.92505 0.15465 0.85829 0.0
C323 C 0.93256 0.17672 0.81529 0.0
C324 C 0.92933 0.21504 0.81896 0.0
C325 C 0.91773 0.23091 0.86405 0.0
C326 C 0.94421 0.16022 0.76677 0.0
C327 C 0.9352 0.12677 0.75005 0.0
C328 C 0.94687 0.10813 0.70317 0.0
C329 C 0.92959 0.08011 0.68008 0.0
C330 C 0.9405 0.05972 0.63851 0.0
C331 C 0.96919 0.0666 0.61939 0.0
H332 H 0.98966 0.13645 0.70099 0.0
C333 C 0.98641 0.09505 0.64189 0.0
C334 C 0.97538 0.11565 0.68343 0.0
H335 H 0.00864 0.10094 0.62813 0.0
H336 H 0.90755 0.15261 0.9353 0.0
H337 H 0.92811 0.12513 0.85748 0.0
H338 H 0.9353 0.23265 0.78658 0.0
H339 H 0.91517 0.26051 0.86578 0.0
H340 H 0.95939 0.17659 0.74354 0.0
H341 H 0.91772 0.11245 0.77104 0.0
H342 H 0.90764 0.07361 0.69469 0.0
H343 H 0.92662 0.03801 0.62212 0.0
C344 C 0.43255 0.30606 0.4012 0.0
C345 C 0.40274 0.29581 0.40935 0.0
C346 C 0.44074 0.32451 0.35574 0.0
C347 C 0.4193 0.33281 0.31693 0.0
C348 C 0.38962 0.32192 0.32475 0.0
C349 C 0.38141 0.30363 0.37034 0.0
C350 C 0.4264 0.35481 0.26963 0.0
C351 C 0.45426 0.36068 0.25236 0.0
C352 C 0.46152 0.38514 0.20766 0.0
C353 C 0.48964 0.38208 0.18482 0.0
C354 C 0.49817 0.40582 0.14478 0.0
C355 C 0.47875 0.43334 0.1267 0.0
H356 H 0.42051 0.41692 0.20676 0.0
C357 C 0.4505 0.43631 0.14914 0.0
C358 C 0.44202 0.41266 0.18938 0.0
H359 H 0.43511 0.45741 0.13637 0.0
H360 H 0.44955 0.30025 0.43037 0.0
H361 H 0.46372 0.33307 0.35234 0.0
H362 H 0.37255 0.3282 0.29588 0.0
H363 H 0.35816 0.29673 0.3757 0.0
H364 H 0.40766 0.36627 0.24814 0.0
H365 H 0.47281 0.34667 0.27101 0.0
H366 H 0.50523 0.36139 0.19829 0.0
H367 H 0.52011 0.40277 0.12833 0.0
C368 C 0.07646 0.81672 0.91434 0.0
C369 C 0.08467 0.77947 0.91467 0.0
C370 C 0.06513 0.83296 0.86904 0.0
C371 C 0.06187 0.81236 0.82288 0.0
C372 C 0.06896 0.77479 0.82362 0.0
C373 C 0.08054 0.75853 0.869 0.0
C374 C 0.05143 0.82978 0.77363 0.0
C375 C 0.05902 0.86463 0.7615 0.0
C376 C 0.04958 0.88367 0.71293 0.0
C377 C 0.06703 0.91315 0.69523 0.0
C378 C 0.05817 0.93358 0.65176 0.0
C379 C 0.03134 0.92533 0.62531 0.0
H380 H 0.0086 0.85278 0.69924 0.0
C381 C 0.01391 0.89554 0.64259 0.0
C382 C 0.02296 0.87482 0.68599 0.0
H383 H 0.99306 0.88859 0.62312 0.0
H384 H 0.07953 0.83366 0.94878 0.0
H385 H 0.05904 0.86174 0.87025 0.0
H386 H 0.06631 0.75825 0.78868 0.0
H387 H 0.0864 0.72966 0.86834 0.0
H388 H 0.03899 0.81297 0.74579 0.0
H389 H 0.07405 0.87969 0.78749 0.0
H390 H 0.08755 0.92066 0.71542 0.0
H391 H 0.07213 0.95637 0.63961 0.0
loop_
_geom_bond_atom_site_label_1
_geom_bond_atom_site_label_2
_geom_bond_distance
_geom_bond_site_symmetry_2
_ccdc_geom_bond_type
H0 C3 0.931 . S
H1 C6 0.928 . S
H2 C8 0.930 . S
C3 H0 0.931 . S
C3 C4 1.413 1_554 S
C3 C5 1.360 . S
C4 C3 1.413 1_556 S
C4 C8 1.429 . S
C5 C3 1.360 . S
C5 C6 1.372 . S
C6 H1 0.928 . S
C6 C5 1.372 . S
C6 C7 1.404 . S
C7 C6 1.404 . S
C7 C8 1.391 1_554 S
C8 H2 0.930 . S
C8 C4 1.429 . S
C8 C7 1.391 1_556 S
H9 C12 0.931 . S
H10 C15 0.928 . S
H11 C17 0.930 . S
C12 H9 0.931 . S
C12 C13 1.413 . S
C12 C14 1.360 . S
C13 C12 1.413 . S
C13 C17 1.429 . S
C14 C12 1.360 . S
C14 C15 1.372 . S
C15 H10 0.928 . S
C15 C14 1.372 . S
C15 C16 1.404 . S
C16 C15 1.404 . S
C16 C17 1.391 . S
C17 H11 0.930 . S
C17 C13 1.429 . S
C17 C16 1.391 . S
H18 C21 0.931 . S
H19 C24 0.928 . S
H20 C26 0.930 . S
C21 H18 0.931 . S
C21 C22 1.413 1_554 S
C21 C23 1.360 . S
C22 C21 1.413 1_556 S
C22 C26 1.429 . S
C23 C21 1.360 . S
C23 C24 1.372 . S
C24 H19 0.928 . S
C24 C23 1.372 . S
C24 C25 1.404 . S
C25 C24 1.404 . S
C25 C26 1.391 1_554 S
C26 H20 0.930 . S
C26 C22 1.429 . S
C26 C25 1.391 1_556 S
H27 C30 0.931 . S
H28 C33 0.928 . S
H29 C35 0.930 . S
C30 H27 0.931 . S
C30 C31 1.413 . S
C30 C32 1.360 . S
C31 C30 1.413 . S
C31 C35 1.429 . S
C32 C30 1.360 . S
C32 C33 1.372 . S
C33 H28 0.928 . S
C33 C32 1.372 . S
C33 C34 1.404 . S
C34 C33 1.404 . S
C34 C35 1.391 . S
C35 H29 0.930 . S
C35 C31 1.429 . S
C35 C34 1.391 . S
C36 O52 1.251 . S
C36 O54 1.254 1_455 S
N37 C38 1.333 . S
N37 C42 1.307 . S
N37 Zn43 2.020 . S
C38 N37 1.333 . S
C38 C39 1.379 . S
C38 H56 0.952 . S
C39 C38 1.379 . S
C39 C40 1.390 . S
C39 H66 0.949 . S
C40 C39 1.390 . S
C40 C41 1.357 . S
C41 C40 1.357 . S
C41 C42 1.370 . S
C41 H67 0.950 . S
C42 N37 1.307 . S
C42 C41 1.370 . S
C42 H60 0.948 . S
Zn43 N37 2.020 . S
Zn43 O52 2.039 1_545 S
Zn43 O58 2.034 1_545 S
Zn43 O62 2.025 . S
Zn43 O64 2.024 . S
C44 O63 1.246 . S
C44 O64 1.249 1_655 S
N45 C46 1.307 . S
N45 C47 1.333 . S
N45 Zn51 2.020 . S
C46 N45 1.307 . S
C46 C50 1.370 . S
C46 H57 0.948 . S
C47 N45 1.333 . S
C47 C48 1.379 . S
C47 H55 0.977 . S
C48 C47 1.379 . S
C48 C49 1.390 . S
C48 H68 0.949 . S
C49 C48 1.390 . S
C49 C50 1.357 . S
C50 C46 1.370 . S
C50 C49 1.357 . S
C50 H69 0.950 . S
Zn51 N45 2.020 . S
Zn51 O54 2.025 . S
Zn51 O59 2.024 . S
Zn51 O61 2.039 1_565 S
Zn51 O63 2.034 1_565 S
O52 C36 1.251 . S
O52 Zn43 2.039 1_565 S
C53 O58 1.246 . S
C53 O59 1.249 1_455 S
O54 C36 1.254 1_655 S
O54 Zn51 2.025 . S
H55 C47 0.977 . S
H56 C38 0.952 . S
H57 C46 0.948 . S
O58 Zn43 2.034 1_565 S
O58 C53 1.246 . S
O59 Zn51 2.024 . S
O59 C53 1.249 1_655 S
H60 C42 0.948 . S
O61 Zn51 2.039 1_545 S
O61 C65 1.251 . S
O62 Zn43 2.025 . S
O62 C65 1.254 1_455 S
O63 C44 1.246 . S
O63 Zn51 2.034 1_545 S
O64 Zn43 2.024 . S
O64 C44 1.249 1_455 S
C65 O61 1.251 . S
C65 O62 1.254 1_655 S
H66 C39 0.949 . S
H67 C41 0.950 . S
H68 C48 0.949 . S
H69 C50 0.950 . S
C70 O86 1.251 . S
C70 O88 1.254 . S
N71 C72 1.333 . S
N71 C76 1.307 . S
N71 Zn77 2.020 . S
C72 N71 1.333 . S
C72 C73 1.380 . S
C72 H90 0.952 1_554 S
C73 C72 1.380 . S
C73 C74 1.392 . S
C73 H100 0.946 1_554 S
C74 C73 1.392 . S
C74 C75 1.357 . S
C75 C74 1.357 . S
C75 C76 1.370 . S
C75 H101 0.950 . S
C76 N71 1.307 . S
C76 C75 1.370 . S
C76 H94 0.948 . S
Zn77 N71 2.020 . S
Zn77 O86 2.039 1_554 S
Zn77 O92 2.034 . S
Zn77 O96 2.025 . S
Zn77 O98 2.024 1_554 S
C78 O97 1.246 . S
C78 O98 1.249 . S
N79 C80 1.307 . S
N79 C81 1.333 . S
N79 Zn85 2.020 . S
C80 N79 1.307 . S
C80 C84 1.370 . S
C80 H91 0.948 1_554 S
C81 N79 1.333 . S
C81 C82 1.379 . S
C81 H89 0.952 . S
C82 C81 1.379 . S
C82 C83 1.390 . S
C82 H102 0.949 . S
C83 C82 1.390 . S
C83 C84 1.357 . S
C84 C80 1.370 . S
C84 C83 1.357 . S
C84 H103 0.950 1_554 S
Zn85 N79 2.020 . S
Zn85 O88 2.025 1_554 S
Zn85 O93 2.024 . S
Zn85 O95 2.039 . S
Zn85 O97 2.034 1_554 S
O86 C70 1.251 . S
O86 Zn77 2.039 1_556 S
C87 O92 1.246 . S
C87 O93 1.249 . S
O88 C70 1.254 . S
O88 Zn85 2.025 1_556 S
H89 C81 0.952 . S
H90 C72 0.952 1_556 S
H91 C80 0.948 1_556 S
O92 Zn77 2.034 . S
O92 C87 1.246 . S
O93 Zn85 2.024 . S
O93 C87 1.249 . S
H94 C76 0.948 . S
O95 Zn85 2.039 . S
O95 C99 1.251 . S
O96 Zn77 2.025 . S
O96 C99 1.254 . S
O97 C78 1.246 . S
O97 Zn85 2.034 1_556 S
O98 Zn77 2.024 1_556 S
O98 C78 1.249 . S
C99 O95 1.251 . S
C99 O96 1.254 . S
H100 C73 0.946 1_556 S
H101 C75 0.950 . S
H102 C82 0.949 . S
H103 C84 0.950 1_556 S
C104 C105 1.386 . S
C104 C106 1.383 . S
C104 H120 0.951 . S
C105 C104 1.386 . S
C105 C109 1.383 . S
C106 C104 1.383 . S
C106 C107 1.402 . S
C106 H121 0.951 . S
C107 C106 1.402 . S
C107 C108 1.375 . S
C107 C110 1.481 . S
C108 C107 1.375 . S
C108 C109 1.367 . S
C108 H122 0.951 . S
C109 C105 1.383 . S
C109 C108 1.367 . S
C109 H123 0.950 . S
C110 C107 1.481 . S
C110 C111 1.297 . S
C110 H124 0.950 . S
C111 C110 1.297 . S
C111 C112 1.479 . S
C111 H125 0.950 . S
C112 C111 1.479 . S
C112 C113 1.375 . S
C112 C118 1.404 . S
C113 C112 1.375 . S
C113 C114 1.369 . S
C113 H126 0.950 . S
C114 C113 1.369 . S
C114 C115 1.392 . S
C114 H127 0.951 . S
C115 C114 1.392 . S
C115 C117 1.384 . S
H116 C118 0.949 . S
C117 C115 1.384 . S
C117 C118 1.385 . S
C117 H119 0.950 . S
C118 C112 1.404 . S
C118 H116 0.949 . S
C118 C117 1.385 . S
H119 C117 0.950 . S
H120 C104 0.951 . S
H121 C106 0.951 . S
H122 C108 0.951 . S
H123 C109 0.950 . S
H124 C110 0.950 . S
H125 C111 0.950 . S
H126 C113 0.950 . S
H127 C114 0.951 . S
C128 C129 1.386 . S
C128 C130 1.383 . S
C128 H144 0.951 . S
C129 C128 1.386 . S
C129 C133 1.383 1_554 S
C130 C128 1.383 . S
C130 C131 1.390 1_554 S
C130 H145 0.951 . S
C131 C130 1.390 1_556 S
C131 C132 1.384 . S
C131 C134 1.484 . S
C132 C131 1.384 . S
C132 C133 1.367 . S
C132 H146 0.951 . S
C133 C129 1.383 1_556 S
C133 C132 1.367 . S
C133 H147 0.950 . S
C134 C131 1.484 . S
C134 C135 1.297 1_556 S
C134 H148 0.950 . S
C135 C134 1.297 1_554 S
C135 C136 1.479 . S
C135 H149 0.950 . S
C136 C135 1.479 . S
C136 C137 1.375 . S
C136 C142 1.404 1_554 S
C137 C136 1.375 . S
C137 C138 1.369 . S
C137 H150 0.950 . S
C138 C137 1.369 . S
C138 C139 1.392 . S
C138 H151 0.951 . S
C139 C138 1.392 . S
C139 C141 1.384 1_554 S
H140 C142 0.949 . S
C141 C139 1.384 1_556 S
C141 C142 1.385 . S
C141 H143 0.950 . S
C142 C136 1.404 1_556 S
C142 H140 0.949 . S
C142 C141 1.385 . S
H143 C141 0.950 . S
H144 C128 0.951 . S
H145 C130 0.951 . S
H146 C132 0.951 . S
H147 C133 0.950 . S
H148 C134 0.950 . S
H149 C135 0.950 . S
H150 C137 0.950 . S
H151 C138 0.951 . S
C152 C153 1.386 . S
C152 C154 1.383 . S
C152 H168 0.951 . S
C153 C152 1.386 . S
C153 C157 1.383 . S
C154 C152 1.383 . S
C154 C155 1.402 . S
C154 H169 0.951 . S
C155 C154 1.402 . S
C155 C156 1.375 . S
C155 C158 1.481 . S
C156 C155 1.375 . S
C156 C157 1.367 . S
C156 H170 0.951 . S
C157 C153 1.383 . S
C157 C156 1.367 . S
C157 H171 0.950 . S
C158 C155 1.481 . S
C158 C159 1.297 . S
C158 H172 0.950 . S
C159 C158 1.297 . S
C159 C160 1.479 . S
C159 H173 0.950 . S
C160 C159 1.479 . S
C160 C161 1.375 . S
C160 C166 1.404 . S
C161 C160 1.375 . S
C161 C162 1.369 . S
C161 H174 0.950 . S
C162 C161 1.369 . S
C162 C163 1.392 . S
C162 H175 0.951 . S
C163 C162 1.392 . S
C163 C165 1.384 . S
H164 C166 0.949 . S
C165 C163 1.384 . S
C165 C166 1.385 . S
C165 H167 0.950 . S
C166 C160 1.404 . S
C166 H164 0.949 . S
C166 C165 1.385 . S
H167 C165 0.950 . S
H168 C152 0.951 . S
H169 C154 0.951 . S
H170 C156 0.951 . S
H171 C157 0.950 . S
H172 C158 0.950 . S
H173 C159 0.950 . S
H174 C161 0.950 . S
H175 C162 0.951 . S
C176 C177 1.386 . S
C176 C178 1.383 . S
C176 H192 0.951 . S
C177 C176 1.386 . S
C177 C181 1.383 1_554 S
C178 C176 1.383 . S
C178 C179 1.402 1_554 S
C178 H193 0.951 . S
C179 C178 1.402 1_556 S
C179 C180 1.375 . S
C179 C182 1.481 . S
C180 C179 1.375 . S
C180 C181 1.367 . S
C180 H194 0.951 . S
C181 C177 1.383 1_556 S
C181 C180 1.367 . S
C181 H195 0.950 . S
C182 C179 1.481 . S
C182 C183 1.297 1_556 S
C182 H196 0.950 . S
C183 C182 1.297 1_554 S
C183 C184 1.479 . S
C183 H197 0.950 . S
C184 C183 1.479 . S
C184 C185 1.375 . S
C184 C190 1.404 1_554 S
C185 C184 1.375 . S
C185 C186 1.369 . S
C185 H198 0.950 . S
C186 C185 1.369 . S
C186 C187 1.392 . S
C186 H199 0.951 . S
C187 C186 1.392 . S
C187 C189 1.384 1_554 S
H188 C190 0.949 . S
C189 C187 1.384 1_556 S
C189 C190 1.385 . S
C189 H191 0.950 . S
C190 C184 1.404 1_556 S
C190 H188 0.949 . S
C190 C189 1.385 . S
H191 C189 0.950 . S
H192 C176 0.951 . S
H193 C178 0.951 . S
H194 C180 0.951 . S
H195 C181 0.950 . S
H196 C182 0.950 . S
H197 C183 0.950 . S
H198 C185 0.950 . S
H199 C186 0.951 . S
C200 C201 1.386 . S
C200 C202 1.383 . S
C200 H216 0.951 . S
C201 C200 1.386 . S
C201 C205 1.383 . S
C202 C200 1.383 . S
C202 C203 1.402 . S
C202 H217 0.951 . S
C203 C202 1.402 . S
C203 C204 1.375 . S
C203 C206 1.481 . S
C204 C203 1.375 . S
C204 C205 1.367 . S
C204 H218 0.951 . S
C205 C201 1.383 . S
C205 C204 1.367 . S
C205 H219 0.950 . S
C206 C203 1.481 . S
C206 C207 1.297 . S
C206 H220 0.950 . S
C207 C206 1.297 . S
C207 C208 1.479 . S
C207 H221 0.950 . S
C208 C207 1.479 . S
C208 C209 1.375 . S
C208 C214 1.404 . S
C209 C208 1.375 . S
C209 C210 1.369 . S
C209 H222 0.950 . S
C210 C209 1.369 . S
C210 C211 1.392 . S
C210 H223 0.951 . S
C211 C210 1.392 . S
C211 C213 1.384 . S
H212 C214 0.949 . S
C213 C211 1.384 . S
C213 C214 1.385 . S
C213 H215 0.950 1_455 S
C214 C208 1.404 . S
C214 H212 0.949 . S
C214 C213 1.385 . S
H215 C213 0.950 1_655 S
H216 C200 0.951 . S
H217 C202 0.951 . S
H218 C204 0.951 . S
H219 C205 0.950 . S
H220 C206 0.950 . S
H221 C207 0.950 . S
H222 C209 0.950 . S
H223 C210 0.951 . S
C224 C225 1.386 . S
C224 C226 1.383 . S
C224 H240 0.951 . S
C225 C224 1.386 . S
C225 C229 1.383 . S
C226 C224 1.383 . S
C226 C227 1.402 . S
C226 H241 0.951 . S
C227 C226 1.402 . S
C227 C228 1.375 . S
C227 C230 1.481 . S
C228 C227 1.375 . S
C228 C229 1.367 . S
C228 H242 0.951 . S
C229 C225 1.383 . S
C229 C228 1.367 . S
C229 H243 0.950 . S
C230 C227 1.481 . S
C230 C231 1.297 . S
C230 H244 0.950 . S
C231 C230 1.297 . S
C231 C232 1.479 . S
C231 H245 0.950 . S
C232 C231 1.479 . S
C232 C233 1.375 . S
C232 C238 1.404 . S
C233 C232 1.375 . S
C233 C234 1.369 . S
C233 H246 0.950 . S
C234 C233 1.369 . S
C234 C235 1.392 . S
C234 H247 0.951 . S
C235 C234 1.392 . S
C235 C237 1.384 . S
H236 C238 0.949 . S
C237 C235 1.384 . S
C237 C238 1.385 . S
C237 H239 0.950 . S
C238 C232 1.404 . S
C238 H236 0.949 . S
C238 C237 1.385 . S
H239 C237 0.950 . S
H240 C224 0.951 . S
H241 C226 0.951 . S
H242 C228 0.951 . S
H243 C229 0.950 . S
H244 C230 0.950 . S
H245 C231 0.950 . S
H246 C233 0.950 . S
H247 C234 0.951 . S
C248 C249 1.386 . S
C248 C250 1.383 . S
C248 H264 0.951 . S
C249 C248 1.386 . S
C249 C253 1.383 . S
C250 C248 1.383 . S
C250 C251 1.402 . S
C250 H265 0.951 . S
C251 C250 1.402 . S
C251 C252 1.375 . S
C251 C254 1.481 . S
C252 C251 1.375 . S
C252 C253 1.367 . S
C252 H266 0.951 . S
C253 C249 1.383 . S
C253 C252 1.367 . S
C253 H267 0.950 . S
C254 C251 1.481 . S
C254 C255 1.297 . S
C254 H268 0.950 . S
C255 C254 1.297 . S
C255 C256 1.479 . S
C255 H269 0.950 . S
C256 C255 1.479 . S
C256 C257 1.375 . S
C256 C262 1.404 . S
C257 C256 1.375 . S
C257 C258 1.369 . S
C257 H270 0.950 1_655 S
C258 C257 1.369 . S
C258 C259 1.392 . S
C258 H271 0.951 1_655 S
C259 C258 1.392 . S
C259 C261 1.384 . S
H260 C262 0.949 . S
C261 C259 1.384 . S
C261 C262 1.385 . S
C261 H263 0.950 . S
C262 C256 1.404 . S
C262 H260 0.949 . S
C262 C261 1.385 . S
H263 C261 0.950 . S
H264 C248 0.951 . S
H265 C250 0.951 . S
H266 C252 0.951 . S
H267 C253 0.950 . S
H268 C254 0.950 . S
H269 C255 0.950 . S
H270 C257 0.950 1_455 S
H271 C258 0.951 1_455 S
C272 C273 1.386 . S
C272 C274 1.383 . S
C272 H288 0.951 . S
C273 C272 1.386 . S
C273 C277 1.383 . S
C274 C272 1.383 . S
C274 C275 1.402 . S
C274 H289 0.951 . S
C275 C274 1.402 . S
C275 C276 1.375 . S
C275 C278 1.481 . S
C276 C275 1.375 . S
C276 C277 1.367 . S
C276 H290 0.951 . S
C277 C273 1.383 . S
C277 C276 1.367 . S
C277 H291 0.950 . S
C278 C275 1.481 . S
C278 C279 1.297 . S
C278 H292 0.950 . S
C279 C278 1.297 . S
C279 C280 1.479 . S
C279 H293 0.950 . S
C280 C279 1.479 . S
C280 C281 1.375 . S
C280 C286 1.404 . S
C281 C280 1.375 . S
C281 C282 1.369 . S
C281 H294 0.950 . S
C282 C281 1.369 . S
C282 C283 1.392 . S
C282 H295 0.951 . S
C283 C282 1.392 . S
C283 C285 1.384 . S
H284 C286 0.949 . S
C285 C283 1.384 . S
C285 C286 1.385 . S
C285 H287 0.950 . S
C286 C280 1.404 . S
C286 H284 0.949 . S
C286 C285 1.385 . S
H287 C285 0.950 . S
H288 C272 0.951 . S
H289 C274 0.951 . S
H290 C276 0.951 . S
H291 C277 0.950 . S
H292 C278 0.950 . S
H293 C279 0.950 . S
H294 C281 0.950 . S
H295 C282 0.951 . S
C296 C297 1.386 . S
C296 C298 1.383 . S
C296 H312 0.951 . S
C297 C296 1.386 . S
C297 C301 1.383 . S
C298 C296 1.383 . S
C298 C299 1.402 . S
C298 H313 0.951 . S
C299 C298 1.402 . S
C299 C300 1.375 . S
C299 C302 1.481 . S
C300 C299 1.375 . S
C300 C301 1.367 . S
C300 H314 0.951 . S
C301 C297 1.383 . S
C301 C300 1.367 . S
C301 H315 0.950 . S
C302 C299 1.481 . S
C302 C303 1.297 . S
C302 H316 0.950 . S
C303 C302 1.297 . S
C303 C304 1.479 . S
C303 H317 0.950 . S
C304 C303 1.479 . S
C304 C305 1.375 . S
C304 C310 1.404 . S
C305 C304 1.375 . S
C305 C306 1.369 . S
C305 H318 0.950 . S
C306 C305 1.369 . S
C306 C307 1.392 . S
C306 H319 0.951 . S
C307 C306 1.392 . S
C307 C309 1.384 . S
H308 C310 0.949 . S
C309 C307 1.384 . S
C309 C310 1.385 . S
C309 H311 0.950 . S
C310 C304 1.404 . S
C310 H308 0.949 . S
C310 C309 1.385 . S
H311 C309 0.950 . S
H312 C296 0.951 . S
H313 C298 0.951 . S
H314 C300 0.951 . S
H315 C301 0.950 . S
H316 C302 0.950 . S
H317 C303 0.950 . S
H318 C305 0.950 . S
H319 C306 0.951 . S
C320 C321 1.386 . S
C320 C322 1.383 . S
C320 H336 0.951 . S
C321 C320 1.386 . S
C321 C325 1.383 . S
C322 C320 1.383 . S
C322 C323 1.402 . S
C322 H337 0.951 . S
C323 C322 1.402 . S
C323 C324 1.375 . S
C323 C326 1.481 . S
C324 C323 1.375 . S
C324 C325 1.367 . S
C324 H338 0.951 . S
C325 C321 1.383 . S
C325 C324 1.367 . S
C325 H339 0.950 . S
C326 C323 1.481 . S
C326 C327 1.297 . S
C326 H340 0.950 . S
C327 C326 1.297 . S
C327 C328 1.479 . S
C327 H341 0.950 . S
C328 C327 1.479 . S
C328 C329 1.375 . S
C328 C334 1.404 . S
C329 C328 1.375 . S
C329 C330 1.369 . S
C329 H342 0.950 . S
C330 C329 1.369 . S
C330 C331 1.392 . S
C330 H343 0.951 . S
C331 C330 1.392 . S
C331 C333 1.384 . S
H332 C334 0.949 . S
C333 C331 1.384 . S
C333 C334 1.385 . S
C333 H335 0.950 . S
C334 C328 1.404 . S
C334 H332 0.949 . S
C334 C333 1.385 . S
H335 C333 0.950 . S
H336 C320 0.951 . S
H337 C322 0.951 . S
H338 C324 0.951 . S
H339 C325 0.950 . S
H340 C326 0.950 . S
H341 C327 0.950 . S
H342 C329 0.950 . S
H343 C330 0.951 . S
C344 C345 1.386 . S
C344 C346 1.383 . S
C344 H360 0.951 . S
C345 C344 1.386 . S
C345 C349 1.383 . S
C346 C344 1.383 . S
C346 C347 1.402 . S
C346 H361 0.951 . S
C347 C346 1.402 . S
C347 C348 1.375 . S
C347 C350 1.481 . S
C348 C347 1.375 . S
C348 C349 1.367 . S
C348 H362 0.951 . S
C349 C345 1.383 . S
C349 C348 1.367 . S
C349 H363 0.950 . S
C350 C347 1.481 . S
C350 C351 1.297 . S
C350 H364 0.950 . S
C351 C350 1.297 . S
C351 C352 1.479 . S
C351 H365 0.950 . S
C352 C351 1.479 . S
C352 C353 1.375 . S
C352 C358 1.404 . S
C353 C352 1.375 . S
C353 C354 1.369 . S
C353 H366 0.950 . S
C354 C353 1.369 . S
C354 C355 1.392 . S
C354 H367 0.951 . S
C355 C354 1.392 . S
C355 C357 1.384 . S
H356 C358 0.949 . S
C357 C355 1.384 . S
C357 C358 1.385 . S
C357 H359 0.950 . S
C358 C352 1.404 . S
C358 H356 0.949 . S
C358 C357 1.385 . S
H359 C357 0.950 . S
H360 C344 0.951 . S
H361 C346 0.951 . S
H362 C348 0.951 . S
H363 C349 0.950 . S
H364 C350 0.950 . S
H365 C351 0.950 . S
H366 C353 0.950 . S
H367 C354 0.951 . S
C368 C369 1.386 . S
C368 C370 1.383 . S
C368 H384 0.951 . S
C369 C368 1.386 . S
C369 C373 1.383 . S
C370 C368 1.383 . S
C370 C371 1.402 . S
C370 H385 0.951 . S
C371 C370 1.402 . S
C371 C372 1.375 . S
C371 C374 1.481 . S
C372 C371 1.375 . S
C372 C373 1.367 . S
C372 H386 0.951 . S
C373 C369 1.383 . S
C373 C372 1.367 . S
C373 H387 0.950 . S
C374 C371 1.481 . S
C374 C375 1.297 . S
C374 H388 0.950 . S
C375 C374 1.297 . S
C375 C376 1.479 . S
C375 H389 0.950 . S
C376 C375 1.479 . S
C376 C377 1.375 . S
C376 C382 1.404 . S
C377 C376 1.375 . S
C377 C378 1.369 . S
C377 H390 0.950 . S
C378 C377 1.369 . S
C378 C379 1.392 . S
C378 H391 0.951 . S
C379 C378 1.392 . S
C379 C381 1.384 . S
H380 C382 0.949 . S
C381 C379 1.384 . S
C381 C382 1.385 . S
C381 H383 0.950 . S
C382 C376 1.404 . S
C382 H380 0.949 . S
C382 C381 1.385 . S
H383 C381 0.950 . S
H384 C368 0.951 . S
H385 C370 0.951 . S
H386 C372 0.951 . S
H387 C373 0.950 . S
H388 C374 0.950 . S
H389 C375 0.950 . S
H390 C377 0.950 . S
H391 C378 0.951 . S
C115 C40 1.532 . S
C105 C34 1.528 . S
C129 C7 1.495 . S
C139 C83 1.481 . S
C153 C16 1.523 . S
C163 C49 1.523 . S
C177 C25 1.495 . S
C187 C74 1.490 . S
C211 C36 1.507 . S
C201 C5 1.507 . S
C235 C78 1.554 . S
C225 C13 1.561 . S
C249 C23 1.499 . S
C259 C44 1.501 . S
C273 C32 1.534 . S
C283 C70 1.554 . S
C307 C99 1.558 . S
C297 C14 1.525 . S
C331 C65 1.513 . S
C321 C22 1.511 . S
C355 C87 1.552 . S
C345 C31 1.542 . S
C369 C4 1.509 . S
C379 C53 1.507 . S
