# Generated by pormake.
# Topology anh, (6,3)-cn, num edge types: 1
# Building blocks:
#     Node 0, Type 0, BuildingBlock: HISSIN_clean_sbu_0, # of connection points: 6
#     Node 1, Type 0, BuildingBlock: HISSIN_clean_sbu_0, # of connection points: 6
#     Node 2, Type 0, BuildingBlock: HISSIN_clean_sbu_0, # of connection points: 6
#     Node 3, Type 1, BuildingBlock: ESEHIV_clean_linker_0, # of connection points: 3
#     Node 4, Type 1, BuildingBlock: ESEHIV_clean_linker_0, # of connection points: 3
#     Node 5, Type 1, BuildingBlock: ESEHIV_clean_linker_0, # of connection points: 3
#     Node 6, Type 1, BuildingBlock: ESEHIV_clean_linker_0, # of connection points: 3
#     Node 7, Type 1, BuildingBlock: ESEHIV_clean_linker_0, # of connection points: 3
#     Node 8, Type 1, BuildingBlock: ESEHIV_clean_linker_0, # of connection points: 3
#     Edge 9, Type (0, 1), BuildingBlock: TEMPAE_clean_linker_10, # of connection points: 2
#     Edge 10, Type (0, 1), BuildingBlock: TEMPAE_clean_linker_10, # of connection points: 2
#     Edge 11, Type (0, 1), BuildingBlock: TEMPAE_clean_linker_10, # of connection points: 2
#     Edge 12, Type (0, 1), BuildingBlock: TEMPAE_clean_linker_10, # of connection points: 2
#     Edge 13, Type (0, 1), BuildingBlock: TEMPAE_clean_linker_10, # of connection points: 2
#     Edge 14, Type (0, 1), BuildingBlock: TEMPAE_clean_linker_10, # of connection points: 2
#     Edge 15, Type (0, 1), BuildingBlock: TEMPAE_clean_linker_10, # of connection points: 2
#     Edge 16, Type (0, 1), BuildingBlock: TEMPAE_clean_linker_10, # of connection points: 2
#     Edge 17, Type (0, 1), BuildingBlock: TEMPAE_clean_linker_10, # of connection points: 2
#     Edge 18, Type (0, 1), BuildingBlock: TEMPAE_clean_linker_10, # of connection points: 2
#     Edge 19, Type (0, 1), BuildingBlock: TEMPAE_clean_linker_10, # of connection points: 2
#     Edge 20, Type (0, 1), BuildingBlock: TEMPAE_clean_linker_10, # of connection points: 2
#     Edge 21, Type (0, 1), BuildingBlock: TEMPAE_clean_linker_10, # of connection points: 2
#     Edge 22, Type (0, 1), BuildingBlock: TEMPAE_clean_linker_10, # of connection points: 2
#     Edge 23, Type (0, 1), BuildingBlock: TEMPAE_clean_linker_10, # of connection points: 2
#     Edge 24, Type (0, 1), BuildingBlock: TEMPAE_clean_linker_10, # of connection points: 2
#     Edge 25, Type (0, 1), BuildingBlock: TEMPAE_clean_linker_10, # of connection points: 2
#     Edge 26, Type (0, 1), BuildingBlock: TEMPAE_clean_linker_10, # of connection points: 2
# Relax obj value: 0.300
# Max RMSD: 0.197
# Mean RMSD: 0.163
data_MOF--net-anh--node1-HISSIN_clean_sbu_0--node2-ESEHIV_clean_linker_0--edge1-TEMPAE_clean_linker_10
_symmetry_space_group_name_H-M    P1
_symmetry_Int_Tables_number       1
_symmetry_cell_setting            triclinic
loop_
_symmetry_equiv_pos_as_xyz
'x, y, z'
_cell_length_a     28.387186
_cell_length_b     28.252797
_cell_length_c     52.729953
_cell_angle_alpha  92.988941
_cell_angle_beta   91.130175
_cell_angle_gamma 119.54498
loop_
_atom_site_label
_atom_site_type_symbol
_atom_site_fract_x
_atom_site_fract_y
_atom_site_fract_z
_atom_type_partial_charge
Eu0 Eu 1.09643 0.51014 0.1692 0.0
Eu1 Eu 0.15288 0.63869 0.17132 0.0
C2 C 1.12194 0.58166 0.22446 0.0
C3 C 0.98875 0.37964 0.18438 0.0
C4 C 0.99082 0.39298 0.21066 0.0
C5 C 0.89203 0.34515 0.1825 0.0
C6 C 0.94427 0.3846 0.22247 0.0
C7 C 0.93857 0.35342 0.17068 0.0
C8 C 0.89512 0.36271 0.2082 0.0
C9 C 1.03835 0.40601 0.17037 0.0
O10 O 0.22497 0.62274 0.16726 0.0
O11 O 0.18423 0.52975 0.16801 0.0
C12 C 0.22813 0.57748 0.1666 0.0
O13 O 0.13421 0.53041 0.13166 0.0
O14 O 0.22117 0.72146 0.17698 0.0
O15 O 0.14772 0.70629 0.15628 0.0
O16 O 1.1223 0.60346 0.13129 0.0
C17 C 0.13247 0.56823 0.11938 0.0
O18 O 1.02742 0.52992 0.16107 0.0
O19 O 1.06649 0.61785 0.17795 0.0
O20 O 0.14549 0.6282 0.21357 0.0
O21 O 1.03509 0.43203 0.15122 0.0
O22 O 1.08335 0.43461 0.18429 0.0
O23 O 1.10096 0.53455 0.21107 0.0
C24 C 0.22911 0.76108 0.13821 0.0
C25 C 0.24813 0.73104 0.12401 0.0
C26 C 0.27461 0.83532 0.11134 0.0
C27 C 0.28446 0.75535 0.10507 0.0
C28 C 0.23857 0.81114 0.13035 0.0
C29 C 0.30366 0.81062 0.10103 0.0
C30 C 0.1992 0.7396 0.16091 0.0
C31 C 1.02348 0.57339 0.16836 0.0
H32 H 1.02891 0.41352 0.22181 0.0
H33 H 0.85391 0.32664 0.17135 0.0
H34 H 0.94725 0.39784 0.24239 0.0
H35 H 0.93605 0.34324 0.15041 0.0
H36 H 0.238 0.69035 0.12874 0.0
H37 H 0.28527 0.87675 0.10789 0.0
H38 H 0.3028 0.73339 0.09619 0.0
H39 H 0.22152 0.83338 0.1402 0.0
Eu40 Eu 0.6365 1.03993 0.49962 0.0
Eu41 Eu 0.57141 0.10193 0.50302 0.0
C42 C 0.61318 1.07521 0.55448 0.0
C43 C 0.72385 0.96461 0.48873 0.0
C44 C 0.70889 0.91612 0.50026 0.0
C45 C 0.80479 0.96602 0.47423 0.0
C46 C 0.74247 0.89349 0.49945 0.0
C47 C 0.77087 0.98857 0.47494 0.0
C48 C 0.79157 0.91924 0.48714 0.0
C49 C 0.69232 0.99184 0.49266 0.0
O50 O 0.65877 0.17445 0.50599 0.0
O51 O 0.70093 0.12761 0.4922 0.0
C52 C 0.70263 0.17447 0.49799 0.0
O53 O 0.5885 1.02221 0.46269 0.0
O54 O 0.5465 0.15717 0.52019 0.0
O55 O 0.50752 0.11085 0.48446 0.0
O56 O 0.60247 0.10761 0.46376 0.0
C57 C 0.59189 1.06274 0.4507 0.0
O58 O 0.55122 0.96916 0.50518 0.0
O59 O 0.50478 1.0129 0.49493 0.0
O60 O 0.57304 1.07795 0.54318 0.0
O61 O 0.69261 1.02626 0.47703 0.0
O62 O 0.66244 0.98399 0.51224 0.0
O63 O 0.64946 1.07104 0.54096 0.0
C64 C 0.52809 0.20104 0.48871 0.0
C65 C 0.49229 0.2215 0.48905 0.0
C66 C 0.59671 0.28325 0.47177 0.0
C67 C 0.50945 0.27392 0.48155 0.0
C68 C 0.57909 0.23068 0.4787 0.0
C69 C 0.56312 0.30666 0.47445 0.0
C70 C 0.51492 0.15096 0.50043 0.0
C71 C 0.50503 0.96755 0.49933 0.0
H72 H 0.67245 0.89696 0.51081 0.0
H73 H 0.84252 0.98651 0.46472 0.0
H74 H 0.73173 0.85799 0.51004 0.0
H75 H 0.7828 1.02612 0.46587 0.0
H76 H 0.45236 0.19823 0.49634 0.0
H77 H 0.63847 0.30685 0.46672 0.0
H78 H 0.48217 0.29027 0.48323 0.0
H79 H 0.60677 0.21464 0.47793 0.0
Eu80 Eu 0.58074 0.56011 0.83134 0.0
Eu81 Eu 0.70712 0.622 0.8393 0.0
C82 C 0.63669 0.59159 0.88827 0.0
C83 C 0.44804 0.53348 0.80572 0.0
C84 C 0.39723 0.52184 0.81377 0.0
C85 C 0.45182 0.60557 0.7812 0.0
C86 C 0.37505 0.55374 0.80674 0.0
C87 C 0.47431 0.57393 0.78852 0.0
C88 C 0.40345 0.5979 0.79143 0.0
C89 C 0.47793 0.51199 0.81926 0.0
O90 O 0.68771 0.5338 0.84274 0.0
O91 O 0.60018 0.4908 0.82621 0.0
C92 C 0.6437 0.4889 0.83381 0.0
O93 O 0.6174 0.59742 0.79477 0.0
O94 O 0.78587 0.64187 0.85624 0.0
O95 O 0.78066 0.68485 0.82423 0.0
O96 O 0.68336 0.5773 0.80088 0.0
C97 C 0.65367 0.587 0.78534 0.0
O98 O 0.59921 0.64844 0.83785 0.0
O99 O 0.68814 0.68843 0.82846 0.0
O100 O 0.68061 0.62927 0.87856 0.0
O101 O 0.51201 0.50407 0.80597 0.0
O102 O 0.49867 0.5368 0.84161 0.0
O103 O 0.5961 0.55441 0.87331 0.0
C104 C 0.84469 0.65699 0.82354 0.0
C105 C 0.81968 0.61045 0.80647 0.0
C106 C 0.9319 0.66711 0.81502 0.0
C107 C 0.85063 0.59141 0.79417 0.0
C108 C 0.90087 0.68623 0.82715 0.0
C109 C 0.9069 0.61835 0.7991 0.0
C110 C 0.81155 0.67328 0.83814 0.0
C111 C 0.64419 0.69186 0.83214 0.0
H112 H 0.37695 0.49131 0.8273 0.0
H113 H 0.4744 0.63869 0.7692 0.0
H114 H 0.33828 0.54691 0.81553 0.0
H115 H 0.51406 0.58386 0.78224 0.0
H116 H 0.7761 0.58746 0.80348 0.0
H117 H 0.97508 0.68843 0.81975 0.0
H118 H 0.83032 0.55392 0.78207 0.0
H119 H 0.92048 0.72229 0.84021 0.0
H120 H 0.45955 0.98927 0.25097 0.0
H121 H 0.54479 0.15479 0.28259 0.0
H122 H 0.50943 0.1209 0.20211 0.0
C123 C 0.47597 1.03237 0.24856 0.0
C124 C 0.48193 1.05115 0.2241 0.0
C125 C 0.4954 1.07009 0.26984 0.0
C126 C 0.52315 0.12613 0.26641 0.0
C127 C 0.53065 0.14435 0.24187 0.0
C128 C 0.50419 0.10673 0.22115 0.0
H129 H 0.87106 0.7453 0.62466 0.0
H130 H 0.76362 0.57755 0.59834 0.0
H131 H 0.86681 0.69052 0.54666 0.0
C132 C 0.85725 0.71219 0.61005 0.0
C133 C 0.87668 0.72364 0.58554 0.0
C134 C 0.81601 0.65957 0.61491 0.0
C135 C 0.79607 0.61809 0.59514 0.0
C136 C 0.81419 0.62975 0.57058 0.0
C137 C 0.85541 0.68169 0.56609 0.0
H138 H 1.12021 0.57959 0.92711 0.0
H139 H 0.28967 0.70189 0.93927 0.0
H140 H 0.20987 0.66645 0.86513 0.0
C141 C 0.15836 0.60991 0.92017 0.0
C142 C 0.16114 0.61875 0.89435 0.0
C143 C 0.20461 0.63957 0.93677 0.0
C144 C 0.25294 0.68015 0.92716 0.0
C145 C 0.25441 0.69116 0.90147 0.0
C146 C 0.20845 0.65993 0.88527 0.0
H147 H 1.02268 0.49398 0.41696 0.0
H148 H 0.17455 0.64127 0.42211 0.0
H149 H 1.10078 0.56861 0.49115 0.0
C150 C 1.05502 0.5266 0.42892 0.0
C151 C 1.05317 0.52603 0.45578 0.0
C152 C 1.09858 0.56756 0.41686 0.0
C153 C 0.14212 0.60893 0.43173 0.0
C154 C 0.14541 0.60995 0.45842 0.0
C155 C 1.09983 0.56826 0.47061 0.0
H156 H 0.6376 0.15806 0.75225 0.0
H157 H 0.64016 1.00825 0.74937 0.0
H158 H 0.64695 0.08971 0.82235 0.0
C159 C 0.64038 0.12689 0.76224 0.0
C160 C 0.64543 0.1318 0.78903 0.0
C161 C 0.63846 1.08282 0.7479 0.0
C162 C 0.63947 1.04101 0.76067 0.0
C163 C 0.64061 1.04097 0.7875 0.0
C164 C 0.64454 0.08767 0.80177 0.0
H165 H 0.55139 0.58014 0.08356 0.0
H166 H 0.704 0.58565 0.0847 0.0
H167 H 0.6284 0.58195 0.15561 0.0
C168 C 0.58527 0.58272 0.09459 0.0
C169 C 0.58495 0.58479 0.12144 0.0
C170 C 0.62775 0.58319 0.08134 0.0
C171 C 0.6704 0.58313 0.09511 0.0
C172 C 0.67113 0.58024 0.12176 0.0
C173 C 0.6282 0.58233 0.13509 0.0
C174 C 0.28441 0.53539 0.15045 0.0
C175 C 0.28213 0.57962 0.1628 0.0
C176 C 0.33445 0.53719 0.1458 0.0
C177 C 0.38466 0.58347 0.1546 0.0
C178 C 0.38234 0.62773 0.1677 0.0
C179 C 0.33178 0.62573 0.17107 0.0
C180 C 0.33338 0.48978 0.13073 0.0
C181 C 0.43298 0.67819 0.17825 0.0
C182 C 0.51024 0.56101 0.15418 0.0
C183 C 0.53818 0.58954 0.13328 0.0
C184 C 0.46192 0.56033 0.16204 0.0
C185 C 0.43895 0.58707 0.14827 0.0
C186 C 0.46797 0.61702 0.12772 0.0
C187 C 0.51721 0.61939 0.12125 0.0
C188 C 0.4353 0.52978 0.18491 0.0
C189 C 0.44646 0.64581 0.1118 0.0
H190 H 0.24678 0.49959 0.14362 0.0
H191 H 0.33126 0.66035 0.18065 0.0
H192 H 0.36197 0.50457 0.11518 0.0
H193 H 0.34658 0.46781 0.14331 0.0
H194 H 0.29226 0.46038 0.12231 0.0
H195 H 0.42576 0.69255 0.19702 0.0
H196 H 0.46818 0.67156 0.18054 0.0
H197 H 0.44334 0.71134 0.16532 0.0
H198 H 0.52513 0.53793 0.16405 0.0
H199 H 0.5387 0.64388 0.10584 0.0
H200 H 0.40877 0.48598 0.17887 0.0
H201 H 0.41034 0.54523 0.19425 0.0
H202 H 0.46624 0.53269 0.1991 0.0
H203 H 0.40237 0.61933 0.10708 0.0
H204 H 0.46754 0.65802 0.09376 0.0
H205 H 0.4524 0.68317 0.12266 0.0
C206 C 0.76312 0.27896 0.5045 0.0
C207 C 0.75482 0.22803 0.4944 0.0
C208 C 0.81173 0.32881 0.50107 0.0
C209 C 0.85371 0.32925 0.48646 0.0
C210 C 0.8452 0.27795 0.47603 0.0
C211 C 0.79692 0.22868 0.48033 0.0
C212 C 0.81752 0.38123 0.51296 0.0
C213 C 0.88676 0.2751 0.4596 0.0
C214 C 0.9508 0.4596 0.4533 0.0
C215 C 1.0017 0.47998 0.46657 0.0
C216 C 0.90348 0.41171 0.45953 0.0
C217 C 0.90448 0.38292 0.48061 0.0
C218 C 0.95458 0.40502 0.49531 0.0
C219 C 1.00225 0.45243 0.48807 0.0
C220 C 0.85242 0.39107 0.44284 0.0
C221 C 0.95799 0.37791 0.51859 0.0
H222 H 0.73157 0.28002 0.51534 0.0
H223 H 0.79173 0.19036 0.47207 0.0
H224 H 0.85955 0.4088 0.5208 0.0
H225 H 0.80836 0.40265 0.49827 0.0
H226 H 0.78915 0.37361 0.52842 0.0
H227 H 0.87468 0.23261 0.45272 0.0
H228 H 0.89273 0.29945 0.44289 0.0
H229 H 0.92639 0.29309 0.47043 0.0
H230 H 0.94784 0.48071 0.43731 0.0
H231 H 1.04026 0.46684 0.49889 0.0
H232 H 0.82006 0.39161 0.45406 0.0
H233 H 0.83773 0.34819 0.43566 0.0
H234 H 0.85866 0.41594 0.42628 0.0
H235 H 0.9247 0.37149 0.53116 0.0
H236 H 0.9974 0.40232 0.52956 0.0
H237 H 0.95277 0.33719 0.51289 0.0
C238 C 0.68018 0.78193 0.81152 0.0
C239 C 0.64515 0.74513 0.82849 0.0
C240 C 0.68046 0.83124 0.80719 0.0
C241 C 0.6457 0.8457 0.82045 0.0
C242 C 0.61198 0.80966 0.83847 0.0
C243 C 0.6114 0.75983 0.84186 0.0
C244 C 0.71784 0.86778 0.7881 0.0
C245 C 0.57749 0.82365 0.85519 0.0
C246 C 0.67009 0.99403 0.82021 0.0
C247 C 0.63752 0.99088 0.79896 0.0
C248 C 0.67231 0.9473 0.82777 0.0
C249 C 0.6417 0.8957 0.8138 0.0
C250 C 0.6078 0.89231 0.79281 0.0
C251 C 0.6053 0.93886 0.78621 0.0
C252 C 0.70912 0.9535 0.8502 0.0
C253 C 0.57598 0.84062 0.77579 0.0
H254 H 0.70668 0.77153 0.80105 0.0
H255 H 0.58499 0.73272 0.85546 0.0
H256 H 0.6935 0.86787 0.7714 0.0
H257 H 0.74145 0.91037 0.79655 0.0
H258 H 0.74649 0.85432 0.78138 0.0
H259 H 0.53857 0.78645 0.85832 0.0
H260 H 0.59905 0.84013 0.87409 0.0
H261 H 0.56903 0.85461 0.84748 0.0
H262 H 0.69548 1.03335 0.83037 0.0
H263 H 0.57873 0.93449 0.77013 0.0
H264 H 0.73883 0.94091 0.84419 0.0
H265 H 0.68492 0.92623 0.86493 0.0
H266 H 0.7315 0.99605 0.85881 0.0
H267 H 0.59797 0.84439 0.75817 0.0
H268 H 0.53566 0.83512 0.76996 0.0
H269 H 0.57001 0.80347 0.78467 0.0
C270 C 0.97006 0.61733 0.15205 0.0
C271 C 0.97081 0.57426 0.16407 0.0
C272 C 0.92114 0.61853 0.14719 0.0
C273 C 0.87103 0.57711 0.15558 0.0
C274 C 0.87227 0.53488 0.16867 0.0
C275 C 0.9212 0.53301 0.17206 0.0
C276 C 0.92287 0.66346 0.13231 0.0
C277 C 0.82181 0.4906 0.17905 0.0
C278 C 0.74865 0.60461 0.15592 0.0
C279 C 0.71776 0.57447 0.13366 0.0
C280 C 0.79731 0.60469 0.16376 0.0
C281 C 0.81725 0.5754 0.14876 0.0
C282 C 0.78494 0.54337 0.12698 0.0
C283 C 0.73591 0.5423 0.12023 0.0
C284 C 0.82769 0.63649 0.18809 0.0
C285 C 0.80276 0.51077 0.11022 0.0
H286 H 1.00782 0.64951 0.14564 0.0
H287 H 0.92069 0.49963 0.18155 0.0
H288 H 0.89539 0.64554 0.11499 0.0
H289 H 0.90815 0.68698 0.14387 0.0
H290 H 0.96435 0.69197 0.1265 0.0
H291 H 0.83169 0.48019 0.19768 0.0
H292 H 0.79 0.50207 0.18176 0.0
H293 H 0.80532 0.45389 0.16561 0.0
H294 H 0.73582 0.62943 0.16684 0.0
H295 H 0.71221 0.517 0.10354 0.0
H296 H 0.86631 0.67261 0.18365 0.0
H297 H 0.83806 0.61103 0.19981 0.0
H298 H 0.8039 0.65066 0.19946 0.0
H299 H 0.84471 0.53744 0.10442 0.0
H300 H 0.77578 0.49154 0.09281 0.0
H301 H 0.80296 0.47816 0.12097 0.0
C302 C 0.44398 0.86814 0.50936 0.0
C303 C 0.45221 0.91356 0.49625 0.0
C304 C 0.39416 0.81785 0.50669 0.0
C305 C 0.35127 0.81112 0.48972 0.0
C306 C 0.35991 0.85677 0.47615 0.0
C307 C 0.40931 0.90707 0.47987 0.0
C308 C 0.38749 0.77174 0.52216 0.0
C309 C 0.31727 0.85222 0.4571 0.0
C310 C 0.24798 0.66711 0.46039 0.0
C311 C 0.19863 0.65543 0.47134 0.0
C312 C 0.297 0.71655 0.46627 0.0
C313 C 0.29914 0.75587 0.48481 0.0
C314 C 0.25068 0.74276 0.49755 0.0
C315 C 0.20113 0.69348 0.49047 0.0
C316 C 0.34594 0.72792 0.45137 0.0
C317 C 0.25067 0.78189 0.51808 0.0
H318 H 0.47633 0.87214 0.52213 0.0
H319 H 0.41485 0.94123 0.46933 0.0
H320 H 0.34877 0.75481 0.53193 0.0
H321 H 0.38576 0.73834 0.50945 0.0
H322 H 0.42138 0.78493 0.53663 0.0
H323 H 0.33033 0.89058 0.44754 0.0
H324 H 0.30775 0.81876 0.44238 0.0
H325 H 0.27931 0.84185 0.46671 0.0
H326 H 0.24753 0.63842 0.44578 0.0
H327 H 0.16401 0.68609 0.49912 0.0
H328 H 0.38055 0.73597 0.46443 0.0
H329 H 0.35849 0.76504 0.44088 0.0
H330 H 0.33795 0.69355 0.43746 0.0
H331 H 0.28665 0.79679 0.53143 0.0
H332 H 0.21344 0.76284 0.52901 0.0
H333 H 0.25312 0.8179 0.50938 0.0
C334 C 0.68324 0.42755 0.84352 0.0
C335 C 0.64395 0.43538 0.83069 0.0
C336 C 0.68442 0.37793 0.84018 0.0
C337 C 0.64636 0.33475 0.82297 0.0
C338 C 0.60664 0.34255 0.80994 0.0
C339 C 0.60552 0.39199 0.81415 0.0
C340 C 0.72713 0.37213 0.85492 0.0
C341 C 0.56607 0.29913 0.79084 0.0
C342 C 0.68551 0.23427 0.79096 0.0
C343 C 0.65206 0.18456 0.80185 0.0
C344 C 0.68434 0.28268 0.79779 0.0
C345 C 0.65053 0.28348 0.81703 0.0
C346 C 0.61954 0.23464 0.82956 0.0
C347 C 0.62018 0.18584 0.82172 0.0
C348 C 0.71759 0.33248 0.78334 0.0
C349 C 0.58421 0.23351 0.85075 0.0
H350 H 0.71323 0.46031 0.85636 0.0
H351 H 0.57515 0.39717 0.80384 0.0
H352 H 0.70867 0.33238 0.86366 0.0
H353 H 0.75762 0.37301 0.84183 0.0
H354 H 0.74842 0.4054 0.87013 0.0
H355 H 0.53733 0.31075 0.78245 0.0
H356 H 0.58769 0.29145 0.77525 0.0
H357 H 0.54254 0.26026 0.8 0.0
H358 H 0.71125 0.23474 0.77595 0.0
H359 H 0.59398 0.14829 0.8304 0.0
H360 H 0.74576 0.36728 0.79664 0.0
H361 H 0.69045 0.34457 0.77367 0.0
H362 H 0.74164 0.32539 0.76879 0.0
H363 H 0.60742 0.26887 0.86476 0.0
H364 H 0.56804 0.19533 0.86077 0.0
H365 H 0.54956 0.23693 0.84289 0.0
C366 C 0.88371 0.94175 0.50243 0.0
C367 C 0.83217 0.90263 0.49218 0.0
C368 C 0.91504 0.92601 0.51669 0.0
C369 C 0.89333 0.87039 0.52104 0.0
C370 C 0.84505 0.83034 0.50754 0.0
C371 C 0.81534 0.84719 0.49288 0.0
C372 C 0.96782 0.96954 0.52955 0.0
C373 C 0.82081 0.77016 0.5112 0.0
C374 C 0.94149 0.79266 0.5579 0.0
C375 C 0.90589 0.78014 0.57778 0.0
C376 C 0.94455 0.82938 0.54033 0.0
C377 C 0.91251 0.85449 0.54349 0.0
C378 C 0.88644 0.85102 0.5665 0.0
C379 C 0.88355 0.81364 0.58356 0.0
C380 C 0.97496 0.8344 0.51658 0.0
C381 C 0.85366 0.87928 0.57112 0.0
H382 H 0.89714 0.98482 0.50171 0.0
H383 H 0.77597 0.81713 0.48433 0.0
H384 H 0.9595 0.98537 0.5476 0.0
H385 H 0.99556 0.95359 0.53398 0.0
H386 H 0.9885 1.00432 0.51738 0.0
H387 H 0.78588 0.74453 0.49754 0.0
H388 H 0.85166 0.75731 0.50886 0.0
H389 H 0.80644 0.76193 0.53076 0.0
H390 H 0.96025 0.76785 0.5539 0.0
H391 H 0.85686 0.80509 0.59918 0.0
H392 H 0.98906 0.87458 0.50866 0.0
H393 H 0.94773 0.8022 0.50193 0.0
H394 H 1.01039 0.82873 0.52045 0.0
H395 H 0.87663 0.92236 0.56629 0.0
H396 H 0.84242 0.8784 0.59123 0.0
H397 H 0.81578 0.85862 0.5588 0.0
C398 C 0.99351 0.62202 0.78945 0.0
C399 C 0.93804 0.59041 0.79312 0.0
C400 C 1.02962 0.60705 0.79968 0.0
C401 C 1.00849 0.55836 0.81245 0.0
C402 C 0.95287 0.51963 0.80919 0.0
C403 C 0.91746 0.53651 0.79988 0.0
C404 C 1.08946 0.64795 0.80103 0.0
C405 C 0.93006 0.46453 0.81985 0.0
C406 C 1.11896 0.56153 0.85422 0.0
C407 C 1.11422 0.58798 0.87646 0.0
C408 C 1.08095 0.54561 0.83374 0.0
C409 C 1.03889 0.55844 0.8355 0.0
C410 C 1.03145 0.58073 0.85893 0.0
C411 C 1.0691 0.59454 0.87928 0.0
C412 C 1.08871 0.51894 0.80988 0.0
C413 C 0.98718 0.59537 0.86192 0.0
H414 H 1.00907 0.66245 0.78271 0.0
H415 H 0.87431 0.51042 0.8017 0.0
H416 H 1.10252 0.6668 0.82074 0.0
H417 H 1.11307 0.62747 0.79602 0.0
H418 H 1.09943 0.68094 0.78801 0.0
H419 H 0.89152 0.43439 0.8094 0.0
H420 H 0.95952 0.44948 0.81886 0.0
H421 H 0.92138 0.46774 0.8401 0.0
H422 H 0.15411 0.55626 0.8523 0.0
H423 H 1.06611 0.61526 0.89657 0.0
H424 H 1.12393 0.5497 0.80009 0.0
H425 H 1.05249 0.50029 0.7965 0.0
H426 H 1.09834 0.48684 0.81487 0.0
H427 H 0.99239 0.6264 0.84853 0.0
H428 H 0.9874 0.61211 0.88149 0.0
H429 H 0.94684 0.55894 0.85749 0.0
C430 C 0.37982 0.90139 0.09227 0.0
C431 C 0.36219 0.84648 0.09614 0.0
C432 C 0.41799 0.9419 0.10982 0.0
C433 C 0.44218 0.92634 0.12897 0.0
C434 C 0.43869 0.87478 0.12618 0.0
C435 C 0.39927 0.83509 0.10882 0.0
C436 C 0.42447 0.99822 0.1107 0.0
C437 C 0.46824 0.85832 0.1447 0.0
C438 C 0.51616 1.0285 0.18489 0.0
C439 C 0.47374 1.01513 0.20138 0.0
C440 C 0.50734 0.99922 0.16139 0.0
C441 C 0.45501 0.95532 0.15454 0.0
C442 C 0.413 0.93996 0.17196 0.0
C443 C 0.42301 0.97021 0.1952 0.0
C444 C 0.55402 1.01554 0.14418 0.0
C445 C 0.3562 0.89396 0.16556 0.0
H446 H 0.35534 0.91133 0.07998 0.0
H447 H 0.39076 0.79342 0.10969 0.0
H448 H 0.3976 1.00103 0.12501 0.0
H449 H 0.4668 1.02968 0.11648 0.0
H450 H 0.41316 1.00719 0.092 0.0
H451 H 0.47172 0.82311 0.13664 0.0
H452 H 0.50937 0.89287 0.15005 0.0
H453 H 0.44541 0.84622 0.16227 0.0
H454 H 0.55606 1.06267 0.19019 0.0
H455 H 0.39057 0.96032 0.20806 0.0
H456 H 0.54055 1.0089 0.12378 0.0
H457 H 0.57325 0.99032 0.14756 0.0
H458 H 0.58543 1.05902 0.14822 0.0
H459 H 0.3371 0.90733 0.1512 0.0
H460 H 0.33083 0.88283 0.18238 0.0
H461 H 0.3564 0.85701 0.15756 0.0
C462 C 0.57621 0.39211 0.49666 0.0
C463 C 0.5886 0.36682 0.47629 0.0
C464 C 0.61371 0.44482 0.50624 0.0
C465 C 0.66479 0.47188 0.49545 0.0
C466 C 0.67385 0.45044 0.47245 0.0
C467 C 0.63473 0.39821 0.46272 0.0
C468 C 0.60172 0.46781 0.5302 0.0
C469 C 0.72746 0.47894 0.46009 0.0
C470 C 0.76062 0.60755 0.52961 0.0
C471 C 0.78312 0.59114 0.54889 0.0
C472 C 0.72453 0.56971 0.51071 0.0
C473 C 0.71097 0.51458 0.51134 0.0
C474 C 0.73637 0.49858 0.52982 0.0
C475 C 0.77195 0.53721 0.54858 0.0
C476 C 0.69792 0.5881 0.49149 0.0
C477 C 0.7233 0.44001 0.53085 0.0
H478 H 0.54051 0.36893 0.50723 0.0
H479 H 0.64335 0.37968 0.44626 0.0
H480 H 0.62282 0.46237 0.5468 0.0
H481 H 0.6167 0.51209 0.5294 0.0
H482 H 0.5576 0.44695 0.53338 0.0
H483 H 0.72356 0.46439 0.43976 0.0
H484 H 0.74435 0.52378 0.46145 0.0
H485 H 0.75688 0.47026 0.47008 0.0
H486 H 0.76892 0.6494 0.5301 0.0
H487 H 0.78977 0.52503 0.56348 0.0
H488 H 0.65853 0.5812 0.49844 0.0
H489 H 0.68968 0.56475 0.47281 0.0
H490 H 0.72338 0.63227 0.48874 0.0
H491 H 0.68097 0.41475 0.53647 0.0
H492 H 0.75066 0.4357 0.54473 0.0
H493 H 0.72653 0.42341 0.51183 0.0
C494 C 0.33498 0.62809 0.79474 0.0
C495 C 0.38903 0.64174 0.79173 0.0
C496 C 0.32304 0.6628 0.80965 0.0
C497 C 0.36633 0.71336 0.82 0.0
C498 C 0.41842 0.73298 0.81075 0.0
C499 C 0.42992 0.69631 0.79705 0.0
C500 C 0.26573 0.64098 0.81788 0.0
C501 C 0.463 0.79022 0.81817 0.0
C502 C 0.30531 0.75906 0.87054 0.0
C503 C 0.30534 0.72566 0.88936 0.0
C504 C 0.3332 0.76345 0.84839 0.0
C505 C 0.36086 0.73374 0.84555 0.0
C506 C 0.37098 0.71097 0.86699 0.0
C507 C 0.3432 0.70776 0.88897 0.0
C508 C 0.32683 0.79347 0.82698 0.0
C509 C 0.404 0.68231 0.86552 0.0
H510 H 0.30284 0.58707 0.78902 0.0
H511 H 0.47179 0.70869 0.79361 0.0
H512 H 0.26347 0.62966 0.83786 0.0
H513 H 0.25335 0.67242 0.81704 0.0
H514 H 0.23621 0.60425 0.80585 0.0
H515 H 0.50299 0.79626 0.81297 0.0
H516 H 0.45482 0.8193 0.80824 0.0
H517 H 0.46461 0.80042 0.83888 0.0
H518 H 0.27709 0.77447 0.8713 0.0
H519 H 0.34428 0.68325 0.9039 0.0
H520 H 0.28773 0.7669 0.81615 0.0
H521 H 0.36013 0.80567 0.8137 0.0
H522 H 0.32603 0.83044 0.83461 0.0
H523 H 0.38218 0.64437 0.85286 0.0
H524 H 0.41159 0.67122 0.88448 0.0
H525 H 0.44366 0.70873 0.85747 0.0
C526 C 0.83091 0.33275 0.24275 0.0
C527 C 0.84672 0.35782 0.21992 0.0
C528 C 0.77869 0.31556 0.25073 0.0
C529 C 0.74247 0.32413 0.23536 0.0
C530 C 0.76134 0.35722 0.21463 0.0
C531 C 0.81348 0.37309 0.20688 0.0
C532 C 0.75973 0.27996 0.27289 0.0
C533 C 0.72465 0.36981 0.19858 0.0
C534 C 0.61532 0.19252 0.21981 0.0
C535 C 0.57997 0.19547 0.23721 0.0
C536 C 0.66746 0.23543 0.21828 0.0
C537 C 0.68492 0.28287 0.2347 0.0
C538 C 0.64859 0.28829 0.25091 0.0
C539 C 0.59628 0.24374 0.25236 0.0
C540 C 0.70434 0.22853 0.19984 0.0
C541 C 0.66542 0.34018 0.26713 0.0
H542 H 0.85712 0.32157 0.25294 0.0
H543 H 0.8268 0.39373 0.18952 0.0
H544 H 0.73215 0.28856 0.28433 0.0
H545 H 0.7369 0.23649 0.26556 0.0
H546 H 0.79431 0.28579 0.28547 0.0
H547 H 0.73325 0.36914 0.17815 0.0
H548 H 0.68088 0.34145 0.2005 0.0
H549 H 0.73241 0.41129 0.20469 0.0
H550 H 0.60371 0.15505 0.20842 0.0
H551 H 0.56889 0.24597 0.26578 0.0
H552 H 0.74147 0.23418 0.21009 0.0
H553 H 0.71697 0.25963 0.18563 0.0
H554 H 0.68439 0.18771 0.18932 0.0
H555 H 0.68983 0.3417 0.28415 0.0
H556 H 0.62969 0.34266 0.27368 0.0
H557 H 0.69089 0.37641 0.25647 0.0
C558 C 1.11741 0.59218 0.07669 0.0
C559 C 0.14391 0.57331 0.09242 0.0
C560 C 0.13071 0.60152 0.05137 0.0
C561 C 0.17271 0.59339 0.04194 0.0
C562 C 0.19991 0.57466 0.05783 0.0
C563 C 0.18451 0.56395 0.08291 0.0
C564 C 1.09999 0.6203 0.03476 0.0
C565 C 0.24613 0.56746 0.04857 0.0
C566 C 0.1695 0.57332 0.97055 0.0
C567 C 0.20202 0.6271 0.96386 0.0
C568 C 0.16086 0.56145 -0.004 0.0
C569 C 0.18727 0.60404 0.01527 0.0
C570 C 0.22343 0.65772 0.00881 0.0
C571 C 0.22975 0.66883 0.98311 0.0
C572 C 1.12108 0.50392 0.00217 0.0
C573 C 0.25349 0.7038 0.02902 0.0
H574 H 1.08611 0.5995 0.08422 0.0
H575 H 0.20565 0.5504 0.09538 0.0
H576 H 0.12808 0.66137 0.02848 0.0
H577 H 1.08227 0.59221 0.01741 0.0
H578 H 1.06683 0.62222 0.04476 0.0
H579 H 0.26318 0.55279 0.0634 0.0
H580 H 0.2323 0.538 0.03164 0.0
H581 H 0.27896 0.60689 0.04262 0.0
H582 H 0.14948 0.54041 0.95586 0.0
H583 H 0.25488 0.71052 0.97821 0.0
H584 H 1.0858 0.50331 0.01119 0.0
H585 H 0.14006 0.48924 0.01598 0.0
H586 H 1.10603 0.47498 0.98499 0.0
H587 H 0.2246 0.71395 0.03836 0.0
H588 H 0.28552 0.74117 0.02102 0.0
H589 H 0.27246 0.69142 0.04396 0.0
C590 C 0.6034 0.10054 0.40845 0.0
C591 C 0.57776 1.05605 0.42338 0.0
C592 C 0.58779 0.0957 0.38268 0.0
C593 C 0.54427 1.04571 0.372 0.0
C594 C 0.51873 1.00041 0.38697 0.0
C595 C 0.53646 1.0059 0.4125 0.0
C596 C 0.61696 0.14446 0.36705 0.0
C597 C 0.47121 0.9471 0.37637 0.0
C598 C 0.47504 1.06679 0.3154 0.0
C599 C 0.4982 1.05275 0.29531 0.0
C600 C 0.48681 1.06095 0.34056 0.0
C601 C 0.52389 1.0423 0.34554 0.0
C602 C 0.54552 1.02585 0.32517 0.0
C603 C 0.53198 1.03089 0.30016 0.0
C604 C 0.46214 1.07781 0.36184 0.0
C605 C 0.58613 1.007 0.32978 0.0
H606 H 0.63562 0.13913 0.41696 0.0
H607 H 0.51637 0.97169 0.42425 0.0
H608 H 0.6302 0.13273 0.3493 0.0
H609 H 0.58899 0.15942 0.36146 0.0
H610 H 0.65303 0.17852 0.37761 0.0
H611 H 0.4577 0.91497 0.39014 0.0
H612 H 0.43669 0.95345 0.37131 0.0
H613 H 0.48181 0.93228 0.35869 0.0
H614 H 0.44948 0.08435 0.31143 0.0
H615 H 0.55069 1.02128 0.28447 0.0
H616 H 0.49382 0.1162 0.372 0.0
H617 H 0.44585 1.04626 0.37587 0.0
H618 H 0.42898 0.08457 0.35473 0.0
H619 H 0.62475 1.04193 0.33796 0.0
H620 H 0.5946 0.99032 0.31199 0.0
H621 H 0.57142 0.97532 0.34373 0.0
C622 C 0.66508 0.63373 0.74523 0.0
C623 C 0.66733 0.59326 0.75855 0.0
C624 C 0.68693 0.64582 0.72121 0.0
C625 C 0.71007 0.61566 0.71025 0.0
C626 C 0.70978 0.57289 0.72316 0.0
C627 C 0.689 0.56268 0.74733 0.0
C628 C 0.68781 0.69255 0.70817 0.0
C629 C 0.73303 0.53908 0.71182 0.0
C630 C 0.73242 0.61605 0.63977 0.0
C631 C 0.78894 0.64959 0.63944 0.0
C632 C 0.70607 0.60517 0.66265 0.0
C633 C 0.73665 0.62986 0.68573 0.0
C634 C 0.79329 0.66552 0.68555 0.0
C635 C 0.81889 0.67447 0.66241 0.0
C636 C 0.64574 0.56617 0.66215 0.0
C637 C 0.82699 0.69337 0.70986 0.0
H638 H 0.64904 0.65788 0.75416 0.0
H639 H 0.69065 0.53134 0.75772 0.0
H640 H 0.73042 0.72531 0.70678 0.0
H641 H 0.66974 0.67899 0.6885 0.0
H642 H 0.66553 0.70997 0.71855 0.0
H643 H 0.72572 0.50461 0.72343 0.0
H644 H 0.71504 0.52247 0.69232 0.0
H645 H 0.77741 0.56509 0.7103 0.0
H646 H 0.70847 0.5982 0.62208 0.0
H647 H 0.86249 0.7004 0.66238 0.0
H648 H 0.62489 0.58623 0.67153 0.0
H649 H 0.63764 0.53047 0.67296 0.0
H650 H 0.6277 0.55128 0.64249 0.0
H651 H 0.8091 0.71472 0.72078 0.0
H652 H 0.86963 0.72339 0.70624 0.0
H653 H 0.8271 0.6625 0.72199 0.0
C654 C 0.58171 0.0855 0.5978 0.0
C655 C 0.61714 1.07609 0.58286 0.0
C656 C 0.58482 0.08618 0.62454 0.0
C657 C 0.62411 1.07694 0.63686 0.0
C658 C 0.65983 1.0672 0.62191 0.0
C659 C 0.65605 1.06705 0.5952 0.0
C660 C 0.54611 0.09703 0.63967 0.0
C661 C 0.70212 1.05687 0.63417 0.0
C662 C 0.66603 0.1283 0.7066 0.0
C663 C 0.63552 1.08082 0.71938 0.0
C664 C 0.66268 0.12758 0.67989 0.0
C665 C 0.62825 1.07811 0.66535 0.0
C666 C 0.59776 1.0299 0.67809 0.0
C667 C 0.60167 1.03183 0.70486 0.0
C668 C 0.69594 0.17998 0.66723 0.0
C669 C 0.56059 0.97625 0.66342 0.0
H670 H 0.55151 0.09262 0.5886 0.0
H671 H 0.68355 1.05951 0.58397 0.0
H672 H 0.52204 1.06232 0.65142 0.0
H673 H 0.5692 0.13382 0.6529 0.0
H674 H 0.51777 0.10329 0.62733 0.0
H675 H 0.72646 1.04932 0.61995 0.0
H676 H 0.72996 0.09243 0.64722 0.0
H677 H 0.68233 1.02106 0.64577 0.0
H678 H 0.69302 0.16623 0.7175 0.0
H679 H 0.57738 0.99501 0.71445 0.0
H680 H 0.66888 0.18946 0.65573 0.0
H681 H 0.72356 0.17528 0.65404 0.0
H682 H 0.72056 0.21509 0.68119 0.0
H683 H 0.52885 0.97958 0.65234 0.0
H684 H 0.54049 0.94221 0.67605 0.0
H685 H 0.58382 0.96606 0.64964 0.0
C686 C 0.67873 0.62742 0.93258 0.0
C687 C 0.63387 0.59045 0.91657 0.0
C688 C 0.67736 0.62634 0.95926 0.0
C689 C 0.62995 0.58748 0.97047 0.0
C690 C 0.58441 0.55029 0.95447 0.0
C691 C 0.58693 0.55213 0.92781 0.0
C692 C 0.72693 0.66667 0.97549 0.0
C693 C 0.53298 0.50832 0.96553 0.0
C694 C 0.64422 0.55209 0.03824 0.0
C695 C 0.6276 0.58374 0.05286 0.0
C696 C 0.64487 0.55269 0.01153 0.0
C697 C 0.62831 0.58556 -0.0011 0.0
C698 C 0.61116 0.61733 0.01351 0.0
C699 C 0.61108 0.61612 0.04021 0.0
C700 C 0.66355 0.51822 -0.00317 0.0
C701 C 0.59333 0.65311 0.00096 0.0
H702 H 0.71536 0.65719 0.92428 0.0
H703 H 0.55199 0.52336 0.91576 0.0
H704 H 0.71646 0.69142 0.98878 0.0
H705 H 0.74158 0.64456 0.98721 0.0
H706 H 0.76052 0.69463 0.96394 0.0
H707 H 0.50086 0.48276 0.95062 0.0
H708 H 0.54157 0.48129 0.97695 0.0
H709 H 0.51727 0.52884 0.97855 0.0
H710 H 0.65633 0.52631 0.04767 0.0
H711 H 0.59885 0.64133 0.05123 0.0
H712 H 0.69917 0.54459 0.98595 0.0
H713 H 0.631 0.48928 0.98286 0.0
H714 H 0.67484 0.49464 0.0094 0.0
H715 H 0.62728 0.68429 0.99069 0.0
H716 H 0.57978 0.67423 0.01487 0.0
H717 H 0.55958 0.62828 0.98668 0.0
C718 C 0.13343 0.62844 0.26842 0.0
C719 C 1.11803 0.58077 0.25276 0.0
C720 C 0.12899 0.62679 0.29506 0.0
C721 C 1.10903 0.57641 0.30646 0.0
C722 C 1.09343 0.52831 0.29076 0.0
C723 C 1.098 0.53106 0.26429 0.0
C724 C 0.14578 0.67901 0.31106 0.0
C725 C 1.07236 0.47375 0.30193 0.0
C726 C 0.14732 0.57731 0.37646 0.0
C727 C 1.09991 0.56751 0.38847 0.0
C728 C 0.15081 0.58044 0.34995 0.0
C729 C 1.10589 0.57394 0.33484 0.0
C730 C 1.05769 0.56358 0.34682 0.0
C731 C 1.05516 0.56019 0.37342 0.0
C732 C 0.20269 0.59062 0.33812 0.0
C733 C 1.00891 0.5566 0.33153 0.0
H734 H 0.14875 0.66707 0.25987 0.0
H735 H 1.08609 0.49384 0.25261 0.0
H736 H 1.11151 0.67487 0.32234 0.0
H737 H 0.17956 0.68722 0.32476 0.0
H738 H 0.15902 0.71462 0.29938 0.0
H739 H 1.06079 0.43991 0.28712 0.0
H740 H 1.10381 0.47499 0.31523 0.0
H741 H 1.03644 0.46463 0.31305 0.0
H742 H 0.1819 0.58237 0.38787 0.0
H743 H 1.01856 0.55309 0.38254 0.0
H744 H 0.21943 0.62832 0.32775 0.0
H745 H 0.19432 0.55647 0.32403 0.0
H746 H 0.23398 0.59491 0.35247 0.0
H747 H 1.02012 0.59358 0.32115 0.0
H748 H 0.97469 0.5493 0.34363 0.0
H749 H 0.99493 0.52178 0.31708 0.0
loop_
_geom_bond_atom_site_label_1
_geom_bond_atom_site_label_2
_geom_bond_distance
_geom_bond_site_symmetry_2
_ccdc_geom_bond_type
Eu0 C9 2.828 . S
Eu0 O11 2.392 1_655 S
Eu0 O13 2.418 . S
Eu0 O18 2.373 . S
Eu0 O21 2.488 . S
Eu0 O22 2.471 . S
Eu0 O23 2.349 . S
Eu1 O10 2.373 . S
Eu1 O14 2.488 . S
Eu1 O15 2.471 . S
Eu1 O16 2.349 . S
Eu1 O19 2.392 1_455 S
Eu1 O20 2.418 . S
Eu1 C30 2.828 . S
C2 O20 1.244 . S
C2 O23 1.265 1_455 S
C3 C4 1.379 . S
C3 C7 1.373 . S
C3 C9 1.505 . S
C4 C3 1.379 . S
C4 C6 1.369 . S
C4 H32 0.930 . S
C5 C7 1.383 . S
C5 C8 1.382 . S
C5 H33 0.930 . S
C6 C4 1.369 . S
C6 C8 1.392 . S
C6 H34 0.930 . S
C7 C3 1.373 . S
C7 C5 1.383 . S
C7 H35 0.931 . S
C8 C5 1.382 . S
C8 C6 1.392 . S
C9 Eu0 2.828 . S
C9 C3 1.505 . S
C9 O21 1.249 . S
C9 O22 1.244 . S
O10 Eu1 2.373 . S
O10 C12 1.258 . S
O11 Eu0 2.392 1_455 S
O11 C12 1.242 . S
C12 O10 1.258 . S
C12 O11 1.242 . S
O13 Eu0 2.418 . S
O13 C17 1.246 . S
O14 Eu1 2.488 . S
O14 C30 1.249 . S
O15 Eu1 2.471 . S
O15 C30 1.244 . S
O16 Eu1 2.349 . S
O16 C17 1.263 1_455 S
C17 O13 1.246 . S
C17 O16 1.263 1_655 S
O18 Eu0 2.373 . S
O18 C31 1.258 . S
O19 Eu1 2.392 1_655 S
O19 C31 1.242 . S
O20 Eu1 2.418 . S
O20 C2 1.244 . S
O21 Eu0 2.488 . S
O21 C9 1.249 . S
O22 Eu0 2.471 . S
O22 C9 1.244 . S
O23 Eu0 2.349 . S
O23 C2 1.265 1_655 S
C24 C25 1.379 . S
C24 C28 1.373 . S
C24 C30 1.505 . S
C25 C24 1.379 . S
C25 C27 1.369 . S
C25 H36 0.930 . S
C26 C28 1.383 . S
C26 C29 1.382 . S
C26 H37 0.930 . S
C27 C25 1.369 . S
C27 C29 1.392 . S
C27 H38 0.930 . S
C28 C24 1.373 . S
C28 C26 1.383 . S
C28 H39 0.931 . S
C29 C26 1.382 . S
C29 C27 1.392 . S
C30 Eu1 2.828 . S
C30 O14 1.249 . S
C30 O15 1.244 . S
C30 C24 1.505 . S
C31 O18 1.258 . S
C31 O19 1.242 . S
H32 C4 0.930 . S
H33 C5 0.930 . S
H34 C6 0.930 . S
H35 C7 0.931 . S
H36 C25 0.930 . S
H37 C26 0.930 . S
H38 C27 0.930 . S
H39 C28 0.931 . S
Eu40 C49 2.828 . S
Eu40 O51 2.392 1_565 S
Eu40 O53 2.418 . S
Eu40 O58 2.373 . S
Eu40 O61 2.488 . S
Eu40 O62 2.471 . S
Eu40 O63 2.349 . S
Eu41 O50 2.373 . S
Eu41 O54 2.488 . S
Eu41 O55 2.471 . S
Eu41 O56 2.349 . S
Eu41 O59 2.392 1_545 S
Eu41 O60 2.418 . S
Eu41 C70 2.828 . S
C42 O60 1.244 . S
C42 O63 1.265 1_545 S
C43 C44 1.379 . S
C43 C47 1.373 . S
C43 C49 1.505 . S
C44 C43 1.379 . S
C44 C46 1.369 . S
C44 H72 0.930 . S
C45 C47 1.383 . S
C45 C48 1.382 . S
C45 H73 0.930 . S
C46 C44 1.369 . S
C46 C48 1.392 . S
C46 H74 0.930 . S
C47 C43 1.373 . S
C47 C45 1.383 . S
C47 H75 0.931 . S
C48 C45 1.382 . S
C48 C46 1.392 . S
C49 Eu40 2.828 . S
C49 C43 1.505 . S
C49 O61 1.249 . S
C49 O62 1.244 . S
O50 Eu41 2.373 . S
O50 C52 1.258 . S
O51 Eu40 2.392 1_545 S
O51 C52 1.242 . S
C52 O50 1.258 . S
C52 O51 1.242 . S
O53 Eu40 2.418 . S
O53 C57 1.244 1_565 S
O54 Eu41 2.488 . S
O54 C70 1.249 . S
O55 Eu41 2.471 . S
O55 C70 1.244 . S
O56 Eu41 2.349 . S
O56 C57 1.265 . S
C57 O53 1.244 1_545 S
C57 O56 1.265 . S
O58 Eu40 2.373 . S
O58 C71 1.258 . S
O59 Eu41 2.392 1_565 S
O59 C71 1.242 . S
O60 Eu41 2.418 . S
O60 C42 1.244 . S
O61 Eu40 2.488 . S
O61 C49 1.249 . S
O62 Eu40 2.471 . S
O62 C49 1.244 . S
O63 Eu40 2.349 . S
O63 C42 1.265 1_565 S
C64 C65 1.379 . S
C64 C68 1.373 . S
C64 C70 1.505 . S
C65 C64 1.379 . S
C65 C67 1.369 . S
C65 H76 0.930 . S
C66 C68 1.383 . S
C66 C69 1.382 . S
C66 H77 0.930 . S
C67 C65 1.369 . S
C67 C69 1.392 . S
C67 H78 0.930 . S
C68 C64 1.373 . S
C68 C66 1.383 . S
C68 H79 0.931 . S
C69 C66 1.382 . S
C69 C67 1.392 . S
C70 Eu41 2.828 . S
C70 O54 1.249 . S
C70 O55 1.244 . S
C70 C64 1.505 . S
C71 O58 1.258 . S
C71 O59 1.242 . S
H72 C44 0.930 . S
H73 C45 0.930 . S
H74 C46 0.930 . S
H75 C47 0.931 . S
H76 C65 0.930 . S
H77 C66 0.930 . S
H78 C67 0.930 . S
H79 C68 0.931 . S
Eu80 C89 2.828 . S
Eu80 O91 2.392 . S
Eu80 O93 2.418 . S
Eu80 O98 2.373 . S
Eu80 O101 2.488 . S
Eu80 O102 2.471 . S
Eu80 O103 2.349 . S
Eu81 O90 2.373 . S
Eu81 O94 2.488 . S
Eu81 O95 2.471 . S
Eu81 O96 2.349 . S
Eu81 O99 2.392 . S
Eu81 O100 2.418 . S
Eu81 C110 2.828 . S
C82 O100 1.244 . S
C82 O103 1.265 . S
C83 C84 1.379 . S
C83 C87 1.373 . S
C83 C89 1.505 . S
C84 C83 1.379 . S
C84 C86 1.369 . S
C84 H112 0.930 . S
C85 C87 1.383 . S
C85 C88 1.382 . S
C85 H113 0.930 . S
C86 C84 1.369 . S
C86 C88 1.392 . S
C86 H114 0.930 . S
C87 C83 1.373 . S
C87 C85 1.383 . S
C87 H115 0.931 . S
C88 C85 1.382 . S
C88 C86 1.392 . S
C89 Eu80 2.828 . S
C89 C83 1.505 . S
C89 O101 1.249 . S
C89 O102 1.244 . S
O90 Eu81 2.373 . S
O90 C92 1.258 . S
O91 Eu80 2.392 . S
O91 C92 1.242 . S
C92 O90 1.258 . S
C92 O91 1.242 . S
O93 Eu80 2.418 . S
O93 C97 1.244 . S
O94 Eu81 2.488 . S
O94 C110 1.249 . S
O95 Eu81 2.471 . S
O95 C110 1.244 . S
O96 Eu81 2.349 . S
O96 C97 1.265 . S
C97 O93 1.244 . S
C97 O96 1.265 . S
O98 Eu80 2.373 . S
O98 C111 1.258 . S
O99 Eu81 2.392 . S
O99 C111 1.242 . S
O100 Eu81 2.418 . S
O100 C82 1.244 . S
O101 Eu80 2.488 . S
O101 C89 1.249 . S
O102 Eu80 2.471 . S
O102 C89 1.244 . S
O103 Eu80 2.349 . S
O103 C82 1.265 . S
C104 C105 1.379 . S
C104 C108 1.373 . S
C104 C110 1.505 . S
C105 C104 1.379 . S
C105 C107 1.369 . S
C105 H116 0.930 . S
C106 C108 1.383 . S
C106 C109 1.382 . S
C106 H117 0.930 . S
C107 C105 1.369 . S
C107 C109 1.392 . S
C107 H118 0.930 . S
C108 C104 1.373 . S
C108 C106 1.383 . S
C108 H119 0.931 . S
C109 C106 1.382 . S
C109 C107 1.392 . S
C110 Eu81 2.828 . S
C110 O94 1.249 . S
C110 O95 1.244 . S
C110 C104 1.505 . S
C111 O98 1.258 . S
C111 O99 1.242 . S
H112 C84 0.930 . S
H113 C85 0.930 . S
H114 C86 0.930 . S
H115 C87 0.931 . S
H116 C105 0.930 . S
H117 C106 0.930 . S
H118 C107 0.930 . S
H119 C108 0.931 . S
H120 C123 0.931 . S
H121 C126 0.928 . S
H122 C128 0.930 . S
C123 H120 0.931 . S
C123 C124 1.413 . S
C123 C125 1.360 1_565 S
C124 C123 1.413 . S
C124 C128 1.429 1_565 S
C125 C123 1.360 1_545 S
C125 C126 1.372 . S
C126 H121 0.928 . S
C126 C125 1.372 . S
C126 C127 1.404 . S
C127 C126 1.404 . S
C127 C128 1.391 . S
C128 H122 0.930 . S
C128 C124 1.429 1_545 S
C128 C127 1.391 . S
H129 C132 0.931 . S
H130 C135 0.928 . S
H131 C137 0.930 . S
C132 H129 0.931 . S
C132 C133 1.413 . S
C132 C134 1.360 . S
C133 C132 1.413 . S
C133 C137 1.429 . S
C134 C132 1.360 . S
C134 C135 1.372 . S
C135 H130 0.928 . S
C135 C134 1.372 . S
C135 C136 1.404 . S
C136 C135 1.404 . S
C136 C137 1.391 . S
C137 H131 0.930 . S
C137 C133 1.429 . S
C137 C136 1.391 . S
H138 C141 0.931 1_655 S
H139 C144 0.928 . S
H140 C146 0.930 . S
C141 H138 0.931 1_455 S
C141 C142 1.413 . S
C141 C143 1.360 . S
C142 C141 1.413 . S
C142 C146 1.429 . S
C143 C141 1.360 . S
C143 C144 1.372 . S
C144 H139 0.928 . S
C144 C143 1.372 . S
C144 C145 1.404 . S
C145 C144 1.404 . S
C145 C146 1.391 . S
C146 H140 0.930 . S
C146 C142 1.429 . S
C146 C145 1.391 . S
H147 C150 0.931 . S
H148 C153 0.928 . S
H149 C155 0.930 . S
C150 H147 0.931 . S
C150 C151 1.413 . S
C150 C152 1.360 1_655 S
C151 C150 1.413 . S
C151 C155 1.429 1_655 S
C152 C150 1.360 1_455 S
C152 C153 1.372 . S
C153 H148 0.928 . S
C153 C152 1.372 . S
C153 C154 1.404 . S
C154 C153 1.404 . S
C154 C155 1.391 . S
C155 H149 0.930 . S
C155 C151 1.429 1_455 S
C155 C154 1.391 . S
H156 C159 0.931 . S
H157 C162 0.928 . S
H158 C164 0.930 . S
C159 H156 0.931 . S
C159 C160 1.413 . S
C159 C161 1.360 . S
C160 C159 1.413 . S
C160 C164 1.429 . S
C161 C159 1.360 . S
C161 C162 1.372 1_545 S
C162 H157 0.928 . S
C162 C161 1.372 1_565 S
C162 C163 1.404 . S
C163 C162 1.404 . S
C163 C164 1.391 1_565 S
C164 H158 0.930 . S
C164 C160 1.429 . S
C164 C163 1.391 1_545 S
H165 C168 0.931 . S
H166 C171 0.928 . S
H167 C173 0.930 . S
C168 H165 0.931 . S
C168 C169 1.413 . S
C168 C170 1.360 . S
C169 C168 1.413 . S
C169 C173 1.429 . S
C170 C168 1.360 . S
C170 C171 1.372 . S
C171 H166 0.928 . S
C171 C170 1.372 . S
C171 C172 1.404 . S
C172 C171 1.404 . S
C172 C173 1.391 . S
C173 H167 0.930 . S
C173 C169 1.429 . S
C173 C172 1.391 . S
C174 C175 1.391 . S
C174 C176 1.394 . S
C174 H190 0.931 . S
C175 C174 1.391 . S
C175 C179 1.376 . S
C176 C174 1.394 . S
C176 C177 1.369 . S
C176 C180 1.531 . S
C177 C176 1.369 . S
C177 C178 1.410 . S
C177 C185 1.503 . S
C178 C177 1.410 . S
C178 C179 1.392 . S
C178 C181 1.511 . S
C179 C175 1.376 . S
C179 C178 1.392 . S
C179 H191 0.929 . S
C180 C176 1.531 . S
C180 H192 0.960 . S
C180 H193 0.962 . S
C180 H194 0.960 . S
C181 C178 1.511 . S
C181 H195 0.961 . S
C181 H196 0.961 . S
C181 H197 0.961 . S
C182 C183 1.370 . S
C182 C184 1.363 . S
C182 H198 0.931 . S
C183 C182 1.370 . S
C183 C187 1.408 . S
C184 C182 1.363 . S
C184 C185 1.370 . S
C184 C188 1.524 . S
C185 C177 1.503 . S
C185 C184 1.370 . S
C185 C186 1.403 . S
C186 C185 1.403 . S
C186 C187 1.404 . S
C186 C189 1.539 . S
C187 C183 1.408 . S
C187 C186 1.404 . S
C187 H199 0.930 . S
C188 C184 1.524 . S
C188 H200 0.956 . S
C188 H201 0.961 . S
C188 H202 0.961 . S
C189 C186 1.539 . S
C189 H203 0.958 . S
C189 H204 0.961 . S
C189 H205 0.960 . S
H190 C174 0.931 . S
H191 C179 0.929 . S
H192 C180 0.960 . S
H193 C180 0.962 . S
H194 C180 0.960 . S
H195 C181 0.961 . S
H196 C181 0.961 . S
H197 C181 0.961 . S
H198 C182 0.931 . S
H199 C187 0.930 . S
H200 C188 0.956 . S
H201 C188 0.961 . S
H202 C188 0.961 . S
H203 C189 0.958 . S
H204 C189 0.961 . S
H205 C189 0.960 . S
C206 C207 1.391 . S
C206 C208 1.394 . S
C206 H222 0.931 . S
C207 C206 1.391 . S
C207 C211 1.376 . S
C208 C206 1.394 . S
C208 C209 1.369 . S
C208 C212 1.531 . S
C209 C208 1.369 . S
C209 C210 1.410 . S
C209 C217 1.503 . S
C210 C209 1.410 . S
C210 C211 1.392 . S
C210 C213 1.511 . S
C211 C207 1.376 . S
C211 C210 1.392 . S
C211 H223 0.929 . S
C212 C208 1.531 . S
C212 H224 0.960 . S
C212 H225 0.962 . S
C212 H226 0.960 . S
C213 C210 1.511 . S
C213 H227 0.961 . S
C213 H228 0.961 . S
C213 H229 0.961 . S
C214 C215 1.370 . S
C214 C216 1.363 . S
C214 H230 0.931 . S
C215 C214 1.370 . S
C215 C219 1.408 . S
C216 C214 1.363 . S
C216 C217 1.370 . S
C216 C220 1.524 . S
C217 C209 1.503 . S
C217 C216 1.370 . S
C217 C218 1.403 . S
C218 C217 1.403 . S
C218 C219 1.404 . S
C218 C221 1.539 . S
C219 C215 1.408 . S
C219 C218 1.404 . S
C219 H231 0.930 . S
C220 C216 1.524 . S
C220 H232 0.956 . S
C220 H233 0.961 . S
C220 H234 0.961 . S
C221 C218 1.539 . S
C221 H235 0.958 . S
C221 H236 0.961 . S
C221 H237 0.960 . S
H222 C206 0.931 . S
H223 C211 0.929 . S
H224 C212 0.960 . S
H225 C212 0.962 . S
H226 C212 0.960 . S
H227 C213 0.961 . S
H228 C213 0.961 . S
H229 C213 0.961 . S
H230 C214 0.931 . S
H231 C219 0.930 . S
H232 C220 0.956 . S
H233 C220 0.961 . S
H234 C220 0.961 . S
H235 C221 0.958 . S
H236 C221 0.961 . S
H237 C221 0.960 . S
C238 C239 1.391 . S
C238 C240 1.394 . S
C238 H254 0.931 . S
C239 C238 1.391 . S
C239 C243 1.376 . S
C240 C238 1.394 . S
C240 C241 1.369 . S
C240 C244 1.531 . S
C241 C240 1.369 . S
C241 C242 1.410 . S
C241 C249 1.503 . S
C242 C241 1.410 . S
C242 C243 1.392 . S
C242 C245 1.511 . S
C243 C239 1.376 . S
C243 C242 1.392 . S
C243 H255 0.929 . S
C244 C240 1.531 . S
C244 H256 0.960 . S
C244 H257 0.962 . S
C244 H258 0.960 . S
C245 C242 1.511 . S
C245 H259 0.961 . S
C245 H260 0.961 . S
C245 H261 0.961 . S
C246 C247 1.370 . S
C246 C248 1.363 . S
C246 H262 0.931 . S
C247 C246 1.370 . S
C247 C251 1.408 . S
C248 C246 1.363 . S
C248 C249 1.370 . S
C248 C252 1.524 . S
C249 C241 1.503 . S
C249 C248 1.370 . S
C249 C250 1.403 . S
C250 C249 1.403 . S
C250 C251 1.404 . S
C250 C253 1.539 . S
C251 C247 1.408 . S
C251 C250 1.404 . S
C251 H263 0.930 . S
C252 C248 1.524 . S
C252 H264 0.956 . S
C252 H265 0.961 . S
C252 H266 0.961 . S
C253 C250 1.539 . S
C253 H267 0.958 . S
C253 H268 0.961 . S
C253 H269 0.960 . S
H254 C238 0.931 . S
H255 C243 0.929 . S
H256 C244 0.960 . S
H257 C244 0.962 . S
H258 C244 0.960 . S
H259 C245 0.961 . S
H260 C245 0.961 . S
H261 C245 0.961 . S
H262 C246 0.931 . S
H263 C251 0.930 . S
H264 C252 0.956 . S
H265 C252 0.961 . S
H266 C252 0.961 . S
H267 C253 0.958 . S
H268 C253 0.961 . S
H269 C253 0.960 . S
C270 C271 1.391 . S
C270 C272 1.394 . S
C270 H286 0.931 . S
C271 C270 1.391 . S
C271 C275 1.376 . S
C272 C270 1.394 . S
C272 C273 1.369 . S
C272 C276 1.531 . S
C273 C272 1.369 . S
C273 C274 1.410 . S
C273 C281 1.503 . S
C274 C273 1.410 . S
C274 C275 1.392 . S
C274 C277 1.511 . S
C275 C271 1.376 . S
C275 C274 1.392 . S
C275 H287 0.929 . S
C276 C272 1.531 . S
C276 H288 0.960 . S
C276 H289 0.962 . S
C276 H290 0.960 . S
C277 C274 1.511 . S
C277 H291 0.961 . S
C277 H292 0.961 . S
C277 H293 0.961 . S
C278 C279 1.370 . S
C278 C280 1.363 . S
C278 H294 0.931 . S
C279 C278 1.370 . S
C279 C283 1.408 . S
C280 C278 1.363 . S
C280 C281 1.370 . S
C280 C284 1.524 . S
C281 C273 1.503 . S
C281 C280 1.370 . S
C281 C282 1.403 . S
C282 C281 1.403 . S
C282 C283 1.404 . S
C282 C285 1.539 . S
C283 C279 1.408 . S
C283 C282 1.404 . S
C283 H295 0.930 . S
C284 C280 1.524 . S
C284 H296 0.956 . S
C284 H297 0.961 . S
C284 H298 0.961 . S
C285 C282 1.539 . S
C285 H299 0.958 . S
C285 H300 0.961 . S
C285 H301 0.960 . S
H286 C270 0.931 . S
H287 C275 0.929 . S
H288 C276 0.960 . S
H289 C276 0.962 . S
H290 C276 0.960 . S
H291 C277 0.961 . S
H292 C277 0.961 . S
H293 C277 0.961 . S
H294 C278 0.931 . S
H295 C283 0.930 . S
H296 C284 0.956 . S
H297 C284 0.961 . S
H298 C284 0.961 . S
H299 C285 0.958 . S
H300 C285 0.961 . S
H301 C285 0.960 . S
C302 C303 1.391 . S
C302 C304 1.394 . S
C302 H318 0.931 . S
C303 C302 1.391 . S
C303 C307 1.376 . S
C304 C302 1.394 . S
C304 C305 1.369 . S
C304 C308 1.531 . S
C305 C304 1.369 . S
C305 C306 1.410 . S
C305 C313 1.503 . S
C306 C305 1.410 . S
C306 C307 1.392 . S
C306 C309 1.511 . S
C307 C303 1.376 . S
C307 C306 1.392 . S
C307 H319 0.929 . S
C308 C304 1.531 . S
C308 H320 0.960 . S
C308 H321 0.962 . S
C308 H322 0.960 . S
C309 C306 1.511 . S
C309 H323 0.961 . S
C309 H324 0.961 . S
C309 H325 0.961 . S
C310 C311 1.370 . S
C310 C312 1.363 . S
C310 H326 0.931 . S
C311 C310 1.370 . S
C311 C315 1.408 . S
C312 C310 1.363 . S
C312 C313 1.370 . S
C312 C316 1.524 . S
C313 C305 1.503 . S
C313 C312 1.370 . S
C313 C314 1.403 . S
C314 C313 1.403 . S
C314 C315 1.404 . S
C314 C317 1.539 . S
C315 C311 1.408 . S
C315 C314 1.404 . S
C315 H327 0.930 . S
C316 C312 1.524 . S
C316 H328 0.956 . S
C316 H329 0.961 . S
C316 H330 0.961 . S
C317 C314 1.539 . S
C317 H331 0.958 . S
C317 H332 0.961 . S
C317 H333 0.960 . S
H318 C302 0.931 . S
H319 C307 0.929 . S
H320 C308 0.960 . S
H321 C308 0.962 . S
H322 C308 0.960 . S
H323 C309 0.961 . S
H324 C309 0.961 . S
H325 C309 0.961 . S
H326 C310 0.931 . S
H327 C315 0.930 . S
H328 C316 0.956 . S
H329 C316 0.961 . S
H330 C316 0.961 . S
H331 C317 0.958 . S
H332 C317 0.961 . S
H333 C317 0.960 . S
C334 C335 1.391 . S
C334 C336 1.394 . S
C334 H350 0.931 . S
C335 C334 1.391 . S
C335 C339 1.376 . S
C336 C334 1.394 . S
C336 C337 1.369 . S
C336 C340 1.531 . S
C337 C336 1.369 . S
C337 C338 1.410 . S
C337 C345 1.503 . S
C338 C337 1.410 . S
C338 C339 1.392 . S
C338 C341 1.511 . S
C339 C335 1.376 . S
C339 C338 1.392 . S
C339 H351 0.929 . S
C340 C336 1.531 . S
C340 H352 0.960 . S
C340 H353 0.962 . S
C340 H354 0.960 . S
C341 C338 1.511 . S
C341 H355 0.961 . S
C341 H356 0.961 . S
C341 H357 0.961 . S
C342 C343 1.370 . S
C342 C344 1.363 . S
C342 H358 0.931 . S
C343 C342 1.370 . S
C343 C347 1.408 . S
C344 C342 1.363 . S
C344 C345 1.370 . S
C344 C348 1.524 . S
C345 C337 1.503 . S
C345 C344 1.370 . S
C345 C346 1.403 . S
C346 C345 1.403 . S
C346 C347 1.404 . S
C346 C349 1.539 . S
C347 C343 1.408 . S
C347 C346 1.404 . S
C347 H359 0.930 . S
C348 C344 1.524 . S
C348 H360 0.956 . S
C348 H361 0.961 . S
C348 H362 0.961 . S
C349 C346 1.539 . S
C349 H363 0.958 . S
C349 H364 0.961 . S
C349 H365 0.960 . S
H350 C334 0.931 . S
H351 C339 0.929 . S
H352 C340 0.960 . S
H353 C340 0.962 . S
H354 C340 0.960 . S
H355 C341 0.961 . S
H356 C341 0.961 . S
H357 C341 0.961 . S
H358 C342 0.931 . S
H359 C347 0.930 . S
H360 C348 0.956 . S
H361 C348 0.961 . S
H362 C348 0.961 . S
H363 C349 0.958 . S
H364 C349 0.961 . S
H365 C349 0.960 . S
C366 C367 1.391 . S
C366 C368 1.394 . S
C366 H382 0.931 . S
C367 C366 1.391 . S
C367 C371 1.376 . S
C368 C366 1.394 . S
C368 C369 1.369 . S
C368 C372 1.531 . S
C369 C368 1.369 . S
C369 C370 1.410 . S
C369 C377 1.503 . S
C370 C369 1.410 . S
C370 C371 1.392 . S
C370 C373 1.511 . S
C371 C367 1.376 . S
C371 C370 1.392 . S
C371 H383 0.929 . S
C372 C368 1.531 . S
C372 H384 0.960 . S
C372 H385 0.962 . S
C372 H386 0.960 . S
C373 C370 1.511 . S
C373 H387 0.961 . S
C373 H388 0.961 . S
C373 H389 0.961 . S
C374 C375 1.370 . S
C374 C376 1.363 . S
C374 H390 0.931 . S
C375 C374 1.370 . S
C375 C379 1.408 . S
C376 C374 1.363 . S
C376 C377 1.370 . S
C376 C380 1.524 . S
C377 C369 1.503 . S
C377 C376 1.370 . S
C377 C378 1.403 . S
C378 C377 1.403 . S
C378 C379 1.404 . S
C378 C381 1.539 . S
C379 C375 1.408 . S
C379 C378 1.404 . S
C379 H391 0.930 . S
C380 C376 1.524 . S
C380 H392 0.956 . S
C380 H393 0.961 . S
C380 H394 0.961 . S
C381 C378 1.539 . S
C381 H395 0.958 . S
C381 H396 0.961 . S
C381 H397 0.960 . S
H382 C366 0.931 . S
H383 C371 0.929 . S
H384 C372 0.960 . S
H385 C372 0.962 . S
H386 C372 0.960 . S
H387 C373 0.961 . S
H388 C373 0.961 . S
H389 C373 0.961 . S
H390 C374 0.931 . S
H391 C379 0.930 . S
H392 C380 0.956 . S
H393 C380 0.961 . S
H394 C380 0.961 . S
H395 C381 0.958 . S
H396 C381 0.961 . S
H397 C381 0.960 . S
C398 C399 1.391 . S
C398 C400 1.394 . S
C398 H414 0.931 . S
C399 C398 1.391 . S
C399 C403 1.376 . S
C400 C398 1.394 . S
C400 C401 1.369 . S
C400 C404 1.531 . S
C401 C400 1.369 . S
C401 C402 1.410 . S
C401 C409 1.503 . S
C402 C401 1.410 . S
C402 C403 1.392 . S
C402 C405 1.511 . S
C403 C399 1.376 . S
C403 C402 1.392 . S
C403 H415 0.929 . S
C404 C400 1.531 . S
C404 H416 0.960 . S
C404 H417 0.962 . S
C404 H418 0.960 . S
C405 C402 1.511 . S
C405 H419 0.961 . S
C405 H420 0.961 . S
C405 H421 0.961 . S
C406 C407 1.370 . S
C406 C408 1.363 . S
C406 H422 0.931 . S
C407 C406 1.370 . S
C407 C411 1.408 . S
C408 C406 1.363 . S
C408 C409 1.370 . S
C408 C412 1.524 . S
C409 C401 1.503 . S
C409 C408 1.370 . S
C409 C410 1.403 . S
C410 C409 1.403 . S
C410 C411 1.404 . S
C410 C413 1.539 . S
C411 C407 1.408 . S
C411 C410 1.404 . S
C411 H423 0.930 1_655 S
C412 C408 1.524 . S
C412 H424 0.956 . S
C412 H425 0.961 . S
C412 H426 0.961 . S
C413 C410 1.539 . S
C413 H427 0.958 . S
C413 H428 0.961 . S
C413 H429 0.960 . S
H414 C398 0.931 . S
H415 C403 0.929 . S
H416 C404 0.960 . S
H417 C404 0.962 . S
H418 C404 0.960 . S
H419 C405 0.961 . S
H420 C405 0.961 . S
H421 C405 0.961 . S
H422 C406 0.931 . S
H423 C411 0.930 1_455 S
H424 C412 0.956 . S
H425 C412 0.961 . S
H426 C412 0.961 . S
H427 C413 0.958 . S
H428 C413 0.961 . S
H429 C413 0.960 . S
C430 C431 1.391 . S
C430 C432 1.394 . S
C430 H446 0.931 . S
C431 C430 1.391 . S
C431 C435 1.376 . S
C432 C430 1.394 . S
C432 C433 1.369 . S
C432 C436 1.531 . S
C433 C432 1.369 . S
C433 C434 1.410 . S
C433 C441 1.503 . S
C434 C433 1.410 . S
C434 C435 1.392 . S
C434 C437 1.511 . S
C435 C431 1.376 . S
C435 C434 1.392 . S
C435 H447 0.929 . S
C436 C432 1.531 . S
C436 H448 0.960 . S
C436 H449 0.962 . S
C436 H450 0.960 . S
C437 C434 1.511 . S
C437 H451 0.961 . S
C437 H452 0.961 . S
C437 H453 0.961 . S
C438 C439 1.370 . S
C438 C440 1.363 . S
C438 H454 0.931 . S
C439 C438 1.370 . S
C439 C443 1.408 . S
C440 C438 1.363 . S
C440 C441 1.370 . S
C440 C444 1.524 . S
C441 C433 1.503 . S
C441 C440 1.370 . S
C441 C442 1.403 . S
C442 C441 1.403 . S
C442 C443 1.404 . S
C442 C445 1.539 . S
C443 C439 1.408 . S
C443 C442 1.404 . S
C443 H455 0.930 1_565 S
C444 C440 1.524 . S
C444 H456 0.956 . S
C444 H457 0.961 . S
C444 H458 0.961 . S
C445 C442 1.539 . S
C445 H459 0.958 . S
C445 H460 0.961 . S
C445 H461 0.960 . S
H446 C430 0.931 . S
H447 C435 0.929 . S
H448 C436 0.960 . S
H449 C436 0.962 . S
H450 C436 0.960 . S
H451 C437 0.961 . S
H452 C437 0.961 . S
H453 C437 0.961 . S
H454 C438 0.931 . S
H455 C443 0.930 1_545 S
H456 C444 0.956 . S
H457 C444 0.961 . S
H458 C444 0.961 . S
H459 C445 0.958 . S
H460 C445 0.961 . S
H461 C445 0.960 . S
C462 C463 1.391 . S
C462 C464 1.394 . S
C462 H478 0.931 . S
C463 C462 1.391 . S
C463 C467 1.376 . S
C464 C462 1.394 . S
C464 C465 1.369 . S
C464 C468 1.531 . S
C465 C464 1.369 . S
C465 C466 1.410 . S
C465 C473 1.503 . S
C466 C465 1.410 . S
C466 C467 1.392 . S
C466 C469 1.511 . S
C467 C463 1.376 . S
C467 C466 1.392 . S
C467 H479 0.929 . S
C468 C464 1.531 . S
C468 H480 0.960 . S
C468 H481 0.962 . S
C468 H482 0.960 . S
C469 C466 1.511 . S
C469 H483 0.961 . S
C469 H484 0.961 . S
C469 H485 0.961 . S
C470 C471 1.370 . S
C470 C472 1.363 . S
C470 H486 0.931 . S
C471 C470 1.370 . S
C471 C475 1.408 . S
C472 C470 1.363 . S
C472 C473 1.370 . S
C472 C476 1.524 . S
C473 C465 1.503 . S
C473 C472 1.370 . S
C473 C474 1.403 . S
C474 C473 1.403 . S
C474 C475 1.404 . S
C474 C477 1.539 . S
C475 C471 1.408 . S
C475 C474 1.404 . S
C475 H487 0.930 . S
C476 C472 1.524 . S
C476 H488 0.956 . S
C476 H489 0.961 . S
C476 H490 0.961 . S
C477 C474 1.539 . S
C477 H491 0.958 . S
C477 H492 0.961 . S
C477 H493 0.960 . S
H478 C462 0.931 . S
H479 C467 0.929 . S
H480 C468 0.960 . S
H481 C468 0.962 . S
H482 C468 0.960 . S
H483 C469 0.961 . S
H484 C469 0.961 . S
H485 C469 0.961 . S
H486 C470 0.931 . S
H487 C475 0.930 . S
H488 C476 0.956 . S
H489 C476 0.961 . S
H490 C476 0.961 . S
H491 C477 0.958 . S
H492 C477 0.961 . S
H493 C477 0.960 . S
C494 C495 1.391 . S
C494 C496 1.394 . S
C494 H510 0.931 . S
C495 C494 1.391 . S
C495 C499 1.376 . S
C496 C494 1.394 . S
C496 C497 1.369 . S
C496 C500 1.531 . S
C497 C496 1.369 . S
C497 C498 1.410 . S
C497 C505 1.503 . S
C498 C497 1.410 . S
C498 C499 1.392 . S
C498 C501 1.511 . S
C499 C495 1.376 . S
C499 C498 1.392 . S
C499 H511 0.929 . S
C500 C496 1.531 . S
C500 H512 0.960 . S
C500 H513 0.962 . S
C500 H514 0.960 . S
C501 C498 1.511 . S
C501 H515 0.961 . S
C501 H516 0.961 . S
C501 H517 0.961 . S
C502 C503 1.370 . S
C502 C504 1.363 . S
C502 H518 0.931 . S
C503 C502 1.370 . S
C503 C507 1.408 . S
C504 C502 1.363 . S
C504 C505 1.370 . S
C504 C508 1.524 . S
C505 C497 1.503 . S
C505 C504 1.370 . S
C505 C506 1.403 . S
C506 C505 1.403 . S
C506 C507 1.404 . S
C506 C509 1.539 . S
C507 C503 1.408 . S
C507 C506 1.404 . S
C507 H519 0.930 . S
C508 C504 1.524 . S
C508 H520 0.956 . S
C508 H521 0.961 . S
C508 H522 0.961 . S
C509 C506 1.539 . S
C509 H523 0.958 . S
C509 H524 0.961 . S
C509 H525 0.960 . S
H510 C494 0.931 . S
H511 C499 0.929 . S
H512 C500 0.960 . S
H513 C500 0.962 . S
H514 C500 0.960 . S
H515 C501 0.961 . S
H516 C501 0.961 . S
H517 C501 0.961 . S
H518 C502 0.931 . S
H519 C507 0.930 . S
H520 C508 0.956 . S
H521 C508 0.961 . S
H522 C508 0.961 . S
H523 C509 0.958 . S
H524 C509 0.961 . S
H525 C509 0.960 . S
C526 C527 1.391 . S
C526 C528 1.394 . S
C526 H542 0.931 . S
C527 C526 1.391 . S
C527 C531 1.376 . S
C528 C526 1.394 . S
C528 C529 1.369 . S
C528 C532 1.531 . S
C529 C528 1.369 . S
C529 C530 1.410 . S
C529 C537 1.503 . S
C530 C529 1.410 . S
C530 C531 1.392 . S
C530 C533 1.511 . S
C531 C527 1.376 . S
C531 C530 1.392 . S
C531 H543 0.929 . S
C532 C528 1.531 . S
C532 H544 0.960 . S
C532 H545 0.962 . S
C532 H546 0.960 . S
C533 C530 1.511 . S
C533 H547 0.961 . S
C533 H548 0.961 . S
C533 H549 0.961 . S
C534 C535 1.370 . S
C534 C536 1.363 . S
C534 H550 0.931 . S
C535 C534 1.370 . S
C535 C539 1.408 . S
C536 C534 1.363 . S
C536 C537 1.370 . S
C536 C540 1.524 . S
C537 C529 1.503 . S
C537 C536 1.370 . S
C537 C538 1.403 . S
C538 C537 1.403 . S
C538 C539 1.404 . S
C538 C541 1.539 . S
C539 C535 1.408 . S
C539 C538 1.404 . S
C539 H551 0.930 . S
C540 C536 1.524 . S
C540 H552 0.956 . S
C540 H553 0.961 . S
C540 H554 0.961 . S
C541 C538 1.539 . S
C541 H555 0.958 . S
C541 H556 0.961 . S
C541 H557 0.960 . S
H542 C526 0.931 . S
H543 C531 0.929 . S
H544 C532 0.960 . S
H545 C532 0.962 . S
H546 C532 0.960 . S
H547 C533 0.961 . S
H548 C533 0.961 . S
H549 C533 0.961 . S
H550 C534 0.931 . S
H551 C539 0.930 . S
H552 C540 0.956 . S
H553 C540 0.961 . S
H554 C540 0.961 . S
H555 C541 0.958 . S
H556 C541 0.961 . S
H557 C541 0.960 . S
C558 C559 1.391 1_655 S
C558 C560 1.394 1_655 S
C558 H574 0.931 . S
C559 C558 1.391 1_455 S
C559 C563 1.376 . S
C560 C558 1.394 1_455 S
C560 C561 1.369 . S
C560 C564 1.531 1_455 S
C561 C560 1.369 . S
C561 C562 1.410 . S
C561 C569 1.503 . S
C562 C561 1.410 . S
C562 C563 1.392 . S
C562 C565 1.511 . S
C563 C559 1.376 . S
C563 C562 1.392 . S
C563 H575 0.929 . S
C564 C560 1.531 1_655 S
C564 H576 0.960 1_655 S
C564 H577 0.962 . S
C564 H578 0.960 . S
C565 C562 1.511 . S
C565 H579 0.961 . S
C565 H580 0.961 . S
C565 H581 0.961 . S
C566 C567 1.369 1_655 S
C566 C568 1.329 1_556 S
C566 H582 0.932 . S
C567 C566 1.369 1_455 S
C567 C571 1.408 . S
C568 C566 1.329 1_554 S
C568 C569 1.391 1_655 S
C568 C572 1.539 . S
C569 C561 1.503 . S
C569 C568 1.391 1_455 S
C569 C570 1.403 . S
C570 C569 1.403 . S
C570 C571 1.404 1_554 S
C570 C573 1.539 . S
C571 C567 1.408 . S
C571 C570 1.404 1_556 S
C571 H583 0.930 . S
C572 C568 1.539 . S
C572 H584 0.956 . S
C572 H585 0.961 . S
C572 H586 0.961 1_554 S
C573 C570 1.539 . S
C573 H587 0.958 . S
C573 H588 0.961 . S
C573 H589 0.960 . S
H574 C558 0.931 . S
H575 C563 0.929 . S
H576 C564 0.960 1_455 S
H577 C564 0.962 . S
H578 C564 0.960 . S
H579 C565 0.961 . S
H580 C565 0.961 . S
H581 C565 0.961 . S
H582 C566 0.932 . S
H583 C571 0.930 . S
H584 C572 0.956 . S
H585 C572 0.961 . S
H586 C572 0.961 1_556 S
H587 C573 0.958 . S
H588 C573 0.961 . S
H589 C573 0.960 . S
C590 C591 1.391 1_565 S
C590 C592 1.394 . S
C590 H606 0.931 . S
C591 C590 1.391 1_545 S
C591 C595 1.376 . S
C592 C590 1.394 . S
C592 C593 1.369 1_565 S
C592 C596 1.531 . S
C593 C592 1.369 1_545 S
C593 C594 1.410 . S
C593 C601 1.503 . S
C594 C593 1.410 . S
C594 C595 1.392 . S
C594 C597 1.511 . S
C595 C591 1.376 . S
C595 C594 1.392 . S
C595 H607 0.929 . S
C596 C592 1.531 . S
C596 H608 0.960 . S
C596 H609 0.962 1_565 S
C596 H610 0.960 . S
C597 C594 1.511 . S
C597 H611 0.961 . S
C597 H612 0.961 . S
C597 H613 0.961 . S
C598 C599 1.370 . S
C598 C600 1.363 . S
C598 H614 0.931 . S
C599 C598 1.370 . S
C599 C603 1.408 1_545 S
C600 C598 1.363 . S
C600 C601 1.370 . S
C600 C604 1.524 . S
C601 C593 1.503 . S
C601 C600 1.370 . S
C601 C602 1.403 1_545 S
C602 C601 1.403 1_565 S
C602 C603 1.404 . S
C602 C605 1.539 . S
C603 C599 1.408 1_565 S
C603 C602 1.404 . S
C603 H615 0.930 . S
C604 C600 1.524 . S
C604 H616 0.956 . S
C604 H617 0.961 . S
C604 H618 0.961 . S
C605 C602 1.539 . S
C605 H619 0.958 . S
C605 H620 0.961 . S
C605 H621 0.960 . S
H606 C590 0.931 . S
H607 C595 0.929 . S
H608 C596 0.960 . S
H609 C596 0.962 1_545 S
H610 C596 0.960 . S
H611 C597 0.961 . S
H612 C597 0.961 . S
H613 C597 0.961 . S
H614 C598 0.931 . S
H615 C603 0.930 . S
H616 C604 0.956 . S
H617 C604 0.961 . S
H618 C604 0.961 . S
H619 C605 0.958 . S
H620 C605 0.961 . S
H621 C605 0.960 . S
C622 C623 1.391 . S
C622 C624 1.394 . S
C622 H638 0.931 . S
C623 C622 1.391 . S
C623 C627 1.376 . S
C624 C622 1.394 . S
C624 C625 1.369 . S
C624 C628 1.531 . S
C625 C624 1.369 . S
C625 C626 1.410 . S
C625 C633 1.503 . S
C626 C625 1.410 . S
C626 C627 1.392 . S
C626 C629 1.511 . S
C627 C623 1.376 . S
C627 C626 1.392 . S
C627 H639 0.929 . S
C628 C624 1.531 . S
C628 H640 0.960 . S
C628 H641 0.962 . S
C628 H642 0.960 . S
C629 C626 1.511 . S
C629 H643 0.961 . S
C629 H644 0.961 . S
C629 H645 0.961 . S
C630 C631 1.370 . S
C630 C632 1.363 . S
C630 H646 0.931 . S
C631 C630 1.370 . S
C631 C635 1.408 . S
C632 C630 1.363 . S
C632 C633 1.370 . S
C632 C636 1.524 . S
C633 C625 1.503 . S
C633 C632 1.370 . S
C633 C634 1.403 . S
C634 C633 1.403 . S
C634 C635 1.404 . S
C634 C637 1.539 . S
C635 C631 1.408 . S
C635 C634 1.404 . S
C635 H647 0.930 . S
C636 C632 1.524 . S
C636 H648 0.956 . S
C636 H649 0.961 . S
C636 H650 0.961 . S
C637 C634 1.539 . S
C637 H651 0.958 . S
C637 H652 0.961 . S
C637 H653 0.960 . S
H638 C622 0.931 . S
H639 C627 0.929 . S
H640 C628 0.960 . S
H641 C628 0.962 . S
H642 C628 0.960 . S
H643 C629 0.961 . S
H644 C629 0.961 . S
H645 C629 0.961 . S
H646 C630 0.931 . S
H647 C635 0.930 . S
H648 C636 0.956 . S
H649 C636 0.961 . S
H650 C636 0.961 . S
H651 C637 0.958 . S
H652 C637 0.961 . S
H653 C637 0.960 . S
C654 C655 1.391 1_565 S
C654 C656 1.394 . S
C654 H670 0.931 . S
C655 C654 1.391 1_545 S
C655 C659 1.376 . S
C656 C654 1.394 . S
C656 C657 1.369 . S
C656 C660 1.531 . S
C657 C656 1.369 . S
C657 C658 1.410 1_565 S
C657 C665 1.502 1_565 S
C658 C657 1.410 1_545 S
C658 C659 1.392 . S
C658 C661 1.511 . S
C659 C655 1.376 . S
C659 C658 1.392 . S
C659 H671 0.929 . S
C660 C656 1.531 . S
C660 H672 0.960 . S
C660 H673 0.962 . S
C660 H674 0.960 . S
C661 C658 1.511 . S
C661 H675 0.961 . S
C661 H676 0.961 . S
C661 H677 0.961 1_545 S
C662 C663 1.370 . S
C662 C664 1.363 . S
C662 H678 0.931 . S
C663 C662 1.370 . S
C663 C667 1.408 1_545 S
C664 C662 1.363 . S
C664 C665 1.395 . S
C664 C668 1.524 . S
C665 C657 1.502 1_545 S
C665 C664 1.395 . S
C665 C666 1.380 1_545 S
C666 C665 1.380 1_565 S
C666 C667 1.404 . S
C666 C669 1.539 . S
C667 C663 1.408 1_565 S
C667 C666 1.404 . S
C667 H679 0.930 . S
C668 C664 1.524 . S
C668 H680 0.956 . S
C668 H681 0.961 . S
C668 H682 0.961 . S
C669 C666 1.539 . S
C669 H683 0.958 . S
C669 H684 0.961 . S
C669 H685 0.960 . S
H670 C654 0.931 . S
H671 C659 0.929 . S
H672 C660 0.960 . S
H673 C660 0.962 . S
H674 C660 0.960 . S
H675 C661 0.961 . S
H676 C661 0.961 . S
H677 C661 0.961 1_565 S
H678 C662 0.931 . S
H679 C667 0.930 . S
H680 C668 0.956 . S
H681 C668 0.961 . S
H682 C668 0.961 . S
H683 C669 0.958 . S
H684 C669 0.961 . S
H685 C669 0.960 . S
C686 C687 1.391 . S
C686 C688 1.394 . S
C686 H702 0.931 . S
C687 C686 1.391 . S
C687 C691 1.376 . S
C688 C686 1.394 . S
C688 C689 1.369 . S
C688 C692 1.531 . S
C689 C688 1.369 . S
C689 C690 1.410 . S
C689 C697 1.503 . S
C690 C689 1.410 . S
C690 C691 1.392 . S
C690 C693 1.511 . S
C691 C687 1.376 . S
C691 C690 1.392 . S
C691 H703 0.929 . S
C692 C688 1.531 . S
C692 H704 0.960 . S
C692 H705 0.962 . S
C692 H706 0.960 . S
C693 C690 1.511 . S
C693 H707 0.961 . S
C693 H708 0.961 . S
C693 H709 0.961 . S
C694 C695 1.370 . S
C694 C696 1.363 . S
C694 H710 0.931 . S
C695 C694 1.370 . S
C695 C699 1.408 . S
C696 C694 1.363 . S
C696 C697 1.370 1_554 S
C696 C700 1.524 1_554 S
C697 C689 1.503 . S
C697 C696 1.370 1_556 S
C697 C698 1.403 1_556 S
C698 C697 1.403 1_554 S
C698 C699 1.404 . S
C698 C701 1.531 1_554 S
C699 C695 1.408 . S
C699 C698 1.404 . S
C699 H711 0.930 . S
C700 C696 1.524 1_556 S
C700 H712 0.956 . S
C700 H713 0.961 . S
C700 H714 0.961 . S
C701 C698 1.531 1_556 S
C701 H715 0.960 . S
C701 H716 0.950 1_556 S
C701 H717 0.977 . S
H702 C686 0.931 . S
H703 C691 0.929 . S
H704 C692 0.960 . S
H705 C692 0.962 . S
H706 C692 0.960 . S
H707 C693 0.961 . S
H708 C693 0.961 . S
H709 C693 0.961 . S
H710 C694 0.931 . S
H711 C699 0.930 . S
H712 C700 0.956 . S
H713 C700 0.961 . S
H714 C700 0.961 . S
H715 C701 0.960 . S
H716 C701 0.950 1_554 S
H717 C701 0.977 . S
C718 C719 1.391 1_455 S
C718 C720 1.394 . S
C718 H734 0.931 . S
C719 C718 1.391 1_655 S
C719 C723 1.376 . S
C720 C718 1.394 . S
C720 C721 1.369 1_455 S
C720 C724 1.531 . S
C721 C720 1.369 1_655 S
C721 C722 1.410 . S
C721 C729 1.503 1_655 S
C722 C721 1.410 . S
C722 C723 1.392 . S
C722 C725 1.511 . S
C723 C719 1.376 . S
C723 C722 1.392 . S
C723 H735 0.929 . S
C724 C720 1.531 . S
C724 H736 0.960 . S
C724 H737 0.962 . S
C724 H738 0.960 . S
C725 C722 1.511 . S
C725 H739 0.961 . S
C725 H740 0.961 . S
C725 H741 0.961 . S
C726 C727 1.370 . S
C726 C728 1.363 . S
C726 H742 0.931 . S
C727 C726 1.370 . S
C727 C731 1.408 1_455 S
C728 C726 1.363 . S
C728 C729 1.370 . S
C728 C732 1.524 . S
C729 C721 1.503 1_455 S
C729 C728 1.370 . S
C729 C730 1.403 1_455 S
C730 C729 1.403 1_655 S
C730 C731 1.404 . S
C730 C733 1.539 . S
C731 C727 1.408 1_655 S
C731 C730 1.404 . S
C731 H743 0.930 . S
C732 C728 1.524 . S
C732 H744 0.956 . S
C732 H745 0.961 . S
C732 H746 0.961 . S
C733 C730 1.539 . S
C733 H747 0.958 . S
C733 H748 0.961 . S
C733 H749 0.960 . S
H734 C718 0.931 . S
H735 C723 0.929 . S
H736 C724 0.960 . S
H737 C724 0.962 . S
H738 C724 0.960 . S
H739 C725 0.961 . S
H740 C725 0.961 . S
H741 C725 0.961 . S
H742 C726 0.931 . S
H743 C731 0.930 . S
H744 C732 0.956 . S
H745 C732 0.961 . S
H746 C732 0.961 . S
H747 C733 0.958 . S
H748 C733 0.961 . S
H749 C733 0.960 . S
C175 C12 2.851 . S
C183 C169 2.843 . S
C207 C52 2.871 . S
C215 C151 2.866 . S
C239 C111 2.882 . S
C247 C163 2.859 . S
C271 C31 2.973 . S
C279 C172 2.942 . S
C311 C154 2.937 . S
C303 C71 2.970 . S
C343 C160 2.928 . S
C335 C92 2.948 . S
C367 C48 0.550 . S
C375 C133 0.534 . S
C399 C109 0.643 . S
C407 C142 0.633 1_655 S
C431 C29 0.605 . S
C439 C124 0.589 . S
C471 C136 0.516 . S
C463 C69 0.505 . S
C503 C145 0.404 . S
C495 C88 0.420 . S
C527 C8 0.481 . S
C535 C127 0.413 . S
C567 C143 1.025 . S
C559 C17 1.028 1_455 S
C591 C57 1.001 . S
C599 C125 1.015 . S
C623 C97 1.033 . S
C631 C134 1.030 . S
C663 C161 1.808 . S
C655 C42 1.754 . S
C695 C170 1.804 . S
C687 C82 1.743 . S
C719 C2 1.748 1_655 S
C727 C152 1.808 . S
