# Generated by pormake.
# Topology apo, (3,6)-cn, num edge types: 1
# Building blocks:
#     Node 0, Type 0, BuildingBlock: VETTIZ_charged_linker_0, # of connection points: 3
#     Node 1, Type 0, BuildingBlock: VETTIZ_charged_linker_0, # of connection points: 3
#     Node 2, Type 0, BuildingBlock: VETTIZ_charged_linker_0, # of connection points: 3
#     Node 3, Type 0, BuildingBlock: VETTIZ_charged_linker_0, # of connection points: 3
#     Node 4, Type 0, BuildingBlock: VETTIZ_charged_linker_0, # of connection points: 3
#     Node 5, Type 0, BuildingBlock: VETTIZ_charged_linker_0, # of connection points: 3
#     Node 6, Type 0, BuildingBlock: VETTIZ_charged_linker_0, # of connection points: 3
#     Node 7, Type 0, BuildingBlock: VETTIZ_charged_linker_0, # of connection points: 3
#     Node 8, Type 1, BuildingBlock: KUMBOL_clean_sbu_1, # of connection points: 6
#     Node 9, Type 1, BuildingBlock: KUMBOL_clean_sbu_1, # of connection points: 6
#     Node 10, Type 1, BuildingBlock: KUMBOL_clean_sbu_1, # of connection points: 6
#     Node 11, Type 1, BuildingBlock: KUMBOL_clean_sbu_1, # of connection points: 6
#     Edge 12, Type (0, 1), BuildingBlock: XUDNAN_clean_linker_2, # of connection points: 2
#     Edge 13, Type (0, 1), BuildingBlock: XUDNAN_clean_linker_2, # of connection points: 2
#     Edge 14, Type (0, 1), BuildingBlock: XUDNAN_clean_linker_2, # of connection points: 2
#     Edge 15, Type (0, 1), BuildingBlock: XUDNAN_clean_linker_2, # of connection points: 2
#     Edge 16, Type (0, 1), BuildingBlock: XUDNAN_clean_linker_2, # of connection points: 2
#     Edge 17, Type (0, 1), BuildingBlock: XUDNAN_clean_linker_2, # of connection points: 2
#     Edge 18, Type (0, 1), BuildingBlock: XUDNAN_clean_linker_2, # of connection points: 2
#     Edge 19, Type (0, 1), BuildingBlock: XUDNAN_clean_linker_2, # of connection points: 2
#     Edge 20, Type (0, 1), BuildingBlock: XUDNAN_clean_linker_2, # of connection points: 2
#     Edge 21, Type (0, 1), BuildingBlock: XUDNAN_clean_linker_2, # of connection points: 2
#     Edge 22, Type (0, 1), BuildingBlock: XUDNAN_clean_linker_2, # of connection points: 2
#     Edge 23, Type (0, 1), BuildingBlock: XUDNAN_clean_linker_2, # of connection points: 2
#     Edge 24, Type (0, 1), BuildingBlock: XUDNAN_clean_linker_2, # of connection points: 2
#     Edge 25, Type (0, 1), BuildingBlock: XUDNAN_clean_linker_2, # of connection points: 2
#     Edge 26, Type (0, 1), BuildingBlock: XUDNAN_clean_linker_2, # of connection points: 2
#     Edge 27, Type (0, 1), BuildingBlock: XUDNAN_clean_linker_2, # of connection points: 2
#     Edge 28, Type (0, 1), BuildingBlock: XUDNAN_clean_linker_2, # of connection points: 2
#     Edge 29, Type (0, 1), BuildingBlock: XUDNAN_clean_linker_2, # of connection points: 2
#     Edge 30, Type (0, 1), BuildingBlock: XUDNAN_clean_linker_2, # of connection points: 2
#     Edge 31, Type (0, 1), BuildingBlock: XUDNAN_clean_linker_2, # of connection points: 2
#     Edge 32, Type (0, 1), BuildingBlock: XUDNAN_clean_linker_2, # of connection points: 2
#     Edge 33, Type (0, 1), BuildingBlock: XUDNAN_clean_linker_2, # of connection points: 2
#     Edge 34, Type (0, 1), BuildingBlock: XUDNAN_clean_linker_2, # of connection points: 2
#     Edge 35, Type (0, 1), BuildingBlock: XUDNAN_clean_linker_2, # of connection points: 2
# Relax obj value: 0.010
# Max RMSD: 0.096
# Mean RMSD: 0.076
data_MOF--net-apo--node1-KUMBOL_clean_sbu_1--node2-VETTIZ_charged_linker_0--edge1-XUDNAN_clean_linker_2
_symmetry_space_group_name_H-M    P1
_symmetry_Int_Tables_number       1
_symmetry_cell_setting            triclinic
loop_
_symmetry_equiv_pos_as_xyz
'x, y, z'
_cell_length_a     29.082516
_cell_length_b     51.888413
_cell_length_c     63.569894
_cell_angle_alpha  89.999259
_cell_angle_beta   89.973418
_cell_angle_gamma 90.436648
loop_
_atom_site_label
_atom_site_type_symbol
_atom_site_fract_x
_atom_site_fract_y
_atom_site_fract_z
_atom_type_partial_charge
C0 C 0.30666 0.36919 0.48961 0.0
C1 C 0.33063 0.38824 0.50115 0.0
C2 C 0.34252 0.41157 0.4911 0.0
C3 C 0.30993 0.39626 0.45841 0.0
C4 C 0.29674 0.37362 0.46823 0.0
C5 C 0.27212 0.35562 0.45325 0.0
H6 H 0.19765 0.33064 0.35366 0.0
C7 C 0.2958 0.39489 0.43616 0.0
C8 C 0.27329 0.37121 0.43292 0.0
H9 H 0.18033 0.28323 0.40897 0.0
H10 H 0.22061 0.315 0.43003 0.0
H11 H 0.17008 0.382 0.37562 0.0
H12 H 0.30458 0.35065 0.36405 0.0
H13 H 0.30458 0.38334 0.35656 0.0
H14 H 0.26666 0.361 0.34347 0.0
H15 H 0.19636 0.38355 0.3501 0.0
H16 H 0.2067 0.40806 0.36975 0.0
C17 C 0.22243 0.35148 0.46138 0.0
C18 C 0.30048 0.33061 0.45149 0.0
C19 C 0.34401 0.46689 0.38679 0.0
C20 C 0.33708 0.47124 0.36527 0.0
C21 C 0.30863 0.4543 0.35377 0.0
C22 C 0.28912 0.43247 0.36345 0.0
C23 C 0.29805 0.4277 0.38486 0.0
C24 C 0.32394 0.44524 0.39626 0.0
C25 C 0.32853 0.43774 0.41895 0.0
C26 C 0.30245 0.41231 0.41921 0.0
C27 C 0.28522 0.4063 0.39918 0.0
C28 C 0.30449 0.45861 0.43248 0.0
C29 C 0.38039 0.43415 0.42374 0.0
C30 C 0.20329 0.32699 0.37024 0.0
C31 C 0.18637 0.30436 0.37968 0.0
C32 C 0.19324 0.30054 0.4014 0.0
C33 C 0.21655 0.31901 0.41359 0.0
C34 C 0.23278 0.34175 0.40402 0.0
C35 C 0.22585 0.34547 0.3827 0.0
C36 C 0.24351 0.37127 0.37538 0.0
C37 C 0.26263 0.38229 0.39572 0.0
C38 C 0.25658 0.36485 0.41248 0.0
C39 C 0.20232 0.38713 0.36711 0.0
C40 C 0.28171 0.36654 0.35889 0.0
H41 H 0.34308 0.4337 0.46331 0.0
H42 H 0.29676 0.35111 0.49689 0.0
H43 H 0.33786 0.33518 0.45051 0.0
H44 H 0.29266 0.3194 0.43718 0.0
H45 H 0.29498 0.31808 0.46545 0.0
H46 H 0.20901 0.36939 0.46871 0.0
H47 H 0.22099 0.336 0.47344 0.0
H48 H 0.19782 0.3469 0.44867 0.0
H49 H 0.36559 0.47979 0.39595 0.0
H50 H 0.30317 0.45737 0.3371 0.0
H51 H 0.26873 0.41986 0.35379 0.0
H52 H 0.27735 0.46878 0.42344 0.0
H53 H 0.32943 0.47342 0.43805 0.0
H54 H 0.28606 0.45033 0.44618 0.0
H55 H 0.39798 0.42459 0.41032 0.0
H56 H 0.38691 0.42158 0.43739 0.0
H57 H 0.39772 0.45302 0.42642 0.0
H58 H 0.35975 0.42688 0.49968 0.0
C59 C 0.33243 0.41563 0.46992 0.0
C60 C 0.31539 0.17287 0.86601 0.0
C61 C 0.32872 0.1974 0.87308 0.0
C62 C 0.31661 0.20514 0.89358 0.0
C63 C 0.27933 0.16365 0.89967 0.0
C64 C 0.29061 0.15652 0.87937 0.0
C65 C 0.27281 0.1302 0.87372 0.0
H66 H 0.13531 0.029 0.89658 0.0
C67 C 0.25282 0.14208 0.90921 0.0
C68 C 0.24858 0.12262 0.89389 0.0
H69 H 0.21409 0.04211 0.83993 0.0
H70 H 0.24928 0.07995 0.85553 0.0
H71 H 0.22265 0.04271 0.92796 0.0
H72 H 0.10593 0.08473 0.90531 0.0
H73 H 0.11316 0.09348 0.93178 0.0
H74 H 0.10109 0.06029 0.92518 0.0
H75 H 0.16561 0.03726 0.93781 0.0
H76 H 0.20323 0.06137 0.94911 0.0
C77 C 0.31444 0.11258 0.86906 0.0
C78 C 0.23881 0.13322 0.85512 0.0
C79 C 0.20139 0.1448 0.98608 0.0
C80 C 0.17412 0.12789 0.99838 0.0
C81 C 0.15384 0.10626 0.98845 0.0
C82 C 0.16234 0.10075 0.96731 0.0
C83 C 0.19074 0.11723 0.95553 0.0
C84 C 0.20884 0.13921 0.96469 0.0
C85 C 0.23527 0.15538 0.94897 0.0
C86 C 0.23255 0.13849 0.92941 0.0
C87 C 0.20646 0.11615 0.93348 0.0
C88 C 0.28525 0.15864 0.95683 0.0
C89 C 0.20943 0.18112 0.94603 0.0
C90 C 0.16055 0.03994 0.88768 0.0
C91 C 0.17171 0.03288 0.86697 0.0
C92 C 0.20512 0.04725 0.85593 0.0
C93 C 0.22507 0.06934 0.86494 0.0
C94 C 0.21152 0.07706 0.88523 0.0
C95 C 0.18113 0.06187 0.89653 0.0
C96 C 0.17261 0.07226 0.91825 0.0
C97 C 0.20114 0.0969 0.91776 0.0
C98 C 0.22319 0.09979 0.89829 0.0
C99 C 0.19157 0.05245 0.93426 0.0
C100 C 0.12052 0.07787 0.92048 0.0
H101 H 0.28472 0.19496 0.9226 0.0
H102 H 0.32399 0.16652 0.85025 0.0
H103 H 0.21708 0.15058 0.85731 0.0
H104 H 0.21426 0.11704 0.85365 0.0
H105 H 0.25753 0.13546 0.83999 0.0
H106 H 0.34514 0.11856 0.87835 0.0
H107 H 0.3241 0.11331 0.85216 0.0
H108 H 0.30811 0.09231 0.87368 0.0
H109 H 0.21725 0.16176 0.99293 0.0
H110 H 0.13104 0.09341 0.99698 0.0
H111 H 0.14621 0.08381 0.96096 0.0
H112 H 0.29921 0.13977 0.962 0.0
H113 H 0.28691 0.17208 0.97042 0.0
H114 H 0.30878 0.16584 0.94451 0.0
H115 H 0.17168 0.17837 0.94797 0.0
H116 H 0.21347 0.18918 0.93005 0.0
H117 H 0.22083 0.19568 0.95778 0.0
H118 H 0.32696 0.22395 0.89936 0.0
C119 C 0.29225 0.18829 0.907 0.0
C120 C 0.81051 0.15013 0.53064 0.0
C121 C 0.83444 0.13312 0.51743 0.0
C122 C 0.84971 0.10945 0.52568 0.0
C123 C 0.81756 0.12008 0.55971 0.0
C124 C 0.80252 0.14327 0.55163 0.0
C125 C 0.77757 0.15913 0.56776 0.0
H126 H 0.70359 0.17146 0.66821 0.0
C127 C 0.80389 0.11883 0.58205 0.0
C128 C 0.78048 0.14173 0.58688 0.0
H129 H 0.68224 0.22487 0.61696 0.0
H130 H 0.72529 0.19702 0.59364 0.0
H131 H 0.67693 0.12313 0.64259 0.0
H132 H 0.80687 0.15762 0.65828 0.0
H133 H 0.81449 0.12423 0.6606 0.0
H134 H 0.77246 0.14004 0.67689 0.0
H135 H 0.70309 0.1188 0.66787 0.0
H136 H 0.71424 0.09717 0.64622 0.0
C137 C 0.72736 0.16267 0.56028 0.0
C138 C 0.80457 0.18466 0.57093 0.0
C139 C 0.84366 0.04035 0.62667 0.0
C140 C 0.8348 0.03412 0.64789 0.0
C141 C 0.81045 0.05178 0.66043 0.0
C142 C 0.79569 0.07524 0.6522 0.0
C143 C 0.80489 0.08125 0.63109 0.0
C144 C 0.8283 0.06395 0.61862 0.0
C145 C 0.83427 0.07375 0.59645 0.0
C146 C 0.8105 0.09974 0.59779 0.0
C147 C 0.79362 0.1039 0.61814 0.0
C148 C 0.80882 0.05495 0.58144 0.0
C149 C 0.88644 0.07666 0.59206 0.0
C150 C 0.70756 0.17719 0.65192 0.0
C151 C 0.68886 0.2003 0.64442 0.0
C152 C 0.69635 0.2072 0.6232 0.0
C153 C 0.72105 0.19089 0.60965 0.0
C154 C 0.73827 0.16743 0.6174 0.0
C155 C 0.73124 0.16107 0.63824 0.0
C156 C 0.75014 0.13521 0.64389 0.0
C157 C 0.77034 0.127 0.62306 0.0
C158 C 0.76358 0.14585 0.60756 0.0
C159 C 0.70933 0.11757 0.65066 0.0
C160 C 0.78777 0.13924 0.6609 0.0
H161 H 0.85399 0.08461 0.55202 0.0
H162 H 0.7977 0.16829 0.52473 0.0
H163 H 0.84227 0.18113 0.57089 0.0
H164 H 0.79744 0.19392 0.58619 0.0
H165 H 0.79704 0.19854 0.55811 0.0
H166 H 0.71431 0.14489 0.55243 0.0
H167 H 0.72481 0.17875 0.54881 0.0
H168 H 0.70318 0.16611 0.57334 0.0
H169 H 0.86253 0.02732 0.61661 0.0
H170 H 0.80218 0.04733 0.67665 0.0
H171 H 0.77751 0.08773 0.66268 0.0
H172 H 0.77643 0.04771 0.58875 0.0
H173 H 0.83042 0.03799 0.57772 0.0
H174 H 0.7979 0.06413 0.56662 0.0
H175 H 0.90492 0.08358 0.60633 0.0
H176 H 0.89436 0.09116 0.57985 0.0
H177 H 0.90169 0.05794 0.58741 0.0
H178 H 0.86864 0.09611 0.51591 0.0
C179 C 0.8414 0.10285 0.54671 0.0
C180 C 0.81014 0.3232 0.14625 0.0
C181 C 0.81964 0.29936 0.13668 0.0
C182 C 0.80358 0.29492 0.116 0.0
C183 C 0.77107 0.33772 0.11468 0.0
C184 C 0.78552 0.34183 0.1351 0.0
C185 C 0.77062 0.36756 0.14341 0.0
H186 H 0.64018 0.47351 0.13232 0.0
C187 C 0.74661 0.36102 0.10759 0.0
C188 C 0.7459 0.37848 0.12439 0.0
H189 H 0.72052 0.44925 0.186 0.0
H190 H 0.75186 0.41449 0.16598 0.0
H191 H 0.72601 0.46593 0.10025 0.0
H192 H 0.6087 0.4176 0.11396 0.0
H193 H 0.61542 0.4212 0.08643 0.0
H194 H 0.60543 0.44913 0.10234 0.0
H195 H 0.67186 0.47071 0.08743 0.0
H196 H 0.71398 0.44852 0.07721 0.0
C197 C 0.81421 0.38354 0.14903 0.0
C198 C 0.73746 0.3625 0.1621 0.0
C199 C 0.69017 0.3671 0.03232 0.0
C200 C 0.67017 0.38711 0.02076 0.0
C201 C 0.65898 0.41034 0.03092 0.0
C202 C 0.66759 0.41358 0.05247 0.0
C203 C 0.68826 0.39352 0.06382 0.0
C204 C 0.69954 0.37085 0.05368 0.0
C205 C 0.72399 0.35229 0.06786 0.0
C206 C 0.72615 0.36769 0.0881 0.0
C207 C 0.70448 0.39165 0.08577 0.0
C208 C 0.77247 0.34744 0.05861 0.0
C209 C 0.69367 0.32773 0.07014 0.0
C210 C 0.66471 0.46076 0.13966 0.0
C211 C 0.67624 0.46349 0.1611 0.0
C212 C 0.70937 0.44693 0.16984 0.0
C213 C 0.72776 0.42673 0.15818 0.0
C214 C 0.71329 0.42297 0.13739 0.0
C215 C 0.6839 0.4404 0.12808 0.0
C216 C 0.6758 0.43414 0.10519 0.0
C217 C 0.70183 0.40889 0.10308 0.0
C218 C 0.72333 0.40248 0.1221 0.0
C219 C 0.69766 0.45592 0.0917 0.0
C220 C 0.62357 0.43039 0.10163 0.0
H221 H 0.76875 0.30937 0.08928 0.0
H222 H 0.82194 0.32753 0.16201 0.0
H223 H 0.71539 0.34528 0.15906 0.0
H224 H 0.71296 0.37826 0.16483 0.0
H225 H 0.75684 0.35888 0.17685 0.0
H226 H 0.84359 0.37841 0.13866 0.0
H227 H 0.82503 0.38007 0.16554 0.0
H228 H 0.80955 0.40446 0.14658 0.0
H229 H 0.69978 0.34924 0.02472 0.0
H230 H 0.64359 0.42595 0.02215 0.0
H231 H 0.65815 0.43161 0.05943 0.0
H232 H 0.78771 0.36566 0.05243 0.0
H233 H 0.77088 0.33342 0.04542 0.0
H234 H 0.7973 0.34046 0.07037 0.0
H235 H 0.65649 0.33236 0.06874 0.0
H236 H 0.69691 0.31859 0.08577 0.0
H237 H 0.70185 0.31337 0.05776 0.0
H238 H 0.80904 0.27658 0.10832 0.0
C239 C 0.7797 0.31396 0.10496 0.0
C240 C 0.69897 0.55098 0.65064 0.0
C241 C 0.67617 0.52861 0.64352 0.0
C242 C 0.66491 0.52708 0.62188 0.0
C243 C 0.70077 0.56903 0.61554 0.0
C244 C 0.7124 0.57005 0.63652 0.0
C245 C 0.74266 0.59256 0.6419 0.0
H246 H 0.81236 0.71258 0.62104 0.0
C247 C 0.71977 0.59268 0.60551 0.0
C248 C 0.745 0.60617 0.62087 0.0
H249 H 0.84271 0.665 0.67509 0.0
H250 H 0.81073 0.62822 0.65784 0.0
H251 H 0.85108 0.6705 0.58912 0.0
H252 H 0.7125 0.68809 0.60699 0.0
H253 H 0.7174 0.68625 0.57922 0.0
H254 H 0.75141 0.7094 0.59336 0.0
H255 H 0.81781 0.69315 0.57445 0.0
H256 H 0.81677 0.65914 0.56828 0.0
C257 C 0.79032 0.58208 0.6488 0.0
C258 C 0.71778 0.60881 0.65885 0.0
C259 C 0.6768 0.61652 0.5304 0.0
C260 C 0.6885 0.63769 0.51748 0.0
C261 C 0.71766 0.6571 0.52576 0.0
C262 C 0.7335 0.65595 0.54648 0.0
C263 C 0.72094 0.63499 0.55915 0.0
C264 C 0.69383 0.61542 0.55101 0.0
C265 C 0.68686 0.59377 0.56652 0.0
C266 C 0.71393 0.60382 0.58528 0.0
C267 C 0.73327 0.62821 0.58088 0.0
C268 C 0.70827 0.569 0.5573 0.0
C269 C 0.63487 0.59138 0.57128 0.0
C270 C 0.8124 0.69409 0.62893 0.0
C271 C 0.82783 0.69192 0.64988 0.0
C272 C 0.82922 0.66738 0.65932 0.0
C273 C 0.81061 0.64593 0.64929 0.0
C274 C 0.7908 0.64874 0.6294 0.0
C275 C 0.79447 0.67195 0.61887 0.0
C276 C 0.77644 0.66967 0.59665 0.0
C277 C 0.75818 0.64194 0.59657 0.0
C278 C 0.76558 0.63031 0.61609 0.0
C279 C 0.81736 0.67343 0.58124 0.0
C280 C 0.73741 0.68943 0.59374 0.0
H281 H 0.66715 0.54506 0.59171 0.0
H282 H 0.70711 0.55396 0.66703 0.0
H283 H 0.6813 0.61198 0.65432 0.0
H284 H 0.73296 0.6281 0.66112 0.0
H285 H 0.71805 0.59886 0.67431 0.0
H286 H 0.795 0.56147 0.64449 0.0
H287 H 0.79495 0.5835 0.66611 0.0
H288 H 0.81913 0.59227 0.64083 0.0
H289 H 0.65466 0.60116 0.52476 0.0
H290 H 0.72898 0.67317 0.51617 0.0
H291 H 0.75508 0.67143 0.55183 0.0
H292 H 0.73993 0.57361 0.54817 0.0
H293 H 0.68383 0.55901 0.54657 0.0
H294 H 0.71952 0.55541 0.5696 0.0
H295 H 0.61997 0.61069 0.57439 0.0
H296 H 0.62737 0.57967 0.58533 0.0
H297 H 0.61621 0.58278 0.55771 0.0
H298 H 0.64769 0.51024 0.61556 0.0
C299 C 0.67665 0.54728 0.60793 0.0
C300 C 0.69051 0.8263 0.14623 0.0
C301 C 0.67157 0.80506 0.13542 0.0
C302 C 0.68024 0.80265 0.11365 0.0
C303 C 0.7254 0.84216 0.11393 0.0
C304 C 0.71725 0.84441 0.13527 0.0
C305 C 0.74014 0.86783 0.1446 0.0
H306 H 0.85951 0.97882 0.1303 0.0
C307 C 0.75432 0.86434 0.10734 0.0
C308 C 0.76317 0.87936 0.12535 0.0
H309 H 0.8084 0.94749 0.18873 0.0
H310 H 0.78029 0.90942 0.17048 0.0
H311 H 0.90401 0.92874 0.11503 0.0
H312 H 0.77334 0.9623 0.10111 0.0
H313 H 0.79695 0.95163 0.0772 0.0
H314 H 0.82765 0.97524 0.09257 0.0
H315 H 0.8979 0.95203 0.09444 0.0
H316 H 0.89117 0.91789 0.08956 0.0
C317 C 0.77573 0.85881 0.16114 0.0
C318 C 0.70217 0.88557 0.15345 0.0
C319 C 0.80038 0.8769 0.03036 0.0
C320 C 0.82696 0.89609 0.02021 0.0
C321 C 0.84692 0.91589 0.03243 0.0
C322 C 0.83945 0.91721 0.05405 0.0
C323 C 0.8121 0.89841 0.06389 0.0
C324 C 0.79357 0.87842 0.05223 0.0
C325 C 0.76669 0.85981 0.06585 0.0
C326 C 0.77206 0.8722 0.08745 0.0
C327 C 0.7984 0.89489 0.086 0.0
C328 C 0.79027 0.8332 0.06471 0.0
C329 C 0.71609 0.85972 0.05833 0.0
C330 C 0.84238 0.96363 0.13908 0.0
C331 C 0.83573 0.96592 0.16082 0.0
C332 C 0.81383 0.94586 0.17193 0.0
C333 C 0.79742 0.92394 0.16128 0.0
C334 C 0.80337 0.9221 0.13935 0.0
C335 C 0.82641 0.94154 0.12875 0.0
C336 C 0.83159 0.93594 0.10573 0.0
C337 C 0.80677 0.9102 0.10409 0.0
C338 C 0.7898 0.90232 0.12372 0.0
C339 C 0.88373 0.93366 0.10076 0.0
C340 C 0.80642 0.95738 0.09334 0.0
H341 H 0.71212 0.81811 0.08634 0.0
H342 H 0.68428 0.82905 0.16287 0.0
H343 H 0.67233 0.88627 0.14252 0.0
H344 H 0.7135 0.90577 0.1553 0.0
H345 H 0.68945 0.87839 0.16888 0.0
H346 H 0.79029 0.83975 0.15685 0.0
H347 H 0.75979 0.85687 0.17695 0.0
H348 H 0.80591 0.87182 0.1622 0.0
H349 H 0.78463 0.86135 0.02151 0.0
H350 H 0.86873 0.93046 0.02527 0.0
H351 H 0.85522 0.93301 0.06222 0.0
H352 H 0.82832 0.83546 0.06402 0.0
H353 H 0.77926 0.82242 0.05045 0.0
H354 H 0.78375 0.8212 0.07874 0.0
H355 H 0.70485 0.87961 0.05445 0.0
H356 H 0.69178 0.85284 0.07044 0.0
H357 H 0.71182 0.84773 0.04397 0.0
H358 H 0.66691 0.7863 0.10492 0.0
C359 C 0.70688 0.82106 0.10287 0.0
C360 C 0.18936 0.96272 0.37059 0.0
C361 C 0.16277 0.98205 0.3801 0.0
C362 C 0.14895 0.97878 0.40123 0.0
C363 C 0.18869 0.93796 0.40306 0.0
C364 C 0.20169 0.94092 0.3823 0.0
C365 C 0.22901 0.91838 0.37445 0.0
H366 H 0.30266 0.79645 0.38765 0.0
C367 C 0.20686 0.91307 0.41064 0.0
C368 C 0.23031 0.90143 0.39396 0.0
H369 H 0.31647 0.8464 0.33349 0.0
H370 H 0.28546 0.88163 0.35303 0.0
H371 H 0.33969 0.84404 0.42093 0.0
H372 H 0.20371 0.81573 0.40506 0.0
H373 H 0.21022 0.81815 0.43265 0.0
H374 H 0.24556 0.7961 0.41818 0.0
H375 H 0.31935 0.81308 0.42967 0.0
H376 H 0.30607 0.84221 0.44386 0.0
C377 C 0.27765 0.92822 0.36817 0.0
C378 C 0.20132 0.90569 0.35632 0.0
C379 C 0.18201 0.88778 0.48667 0.0
C380 C 0.19573 0.86673 0.49899 0.0
C381 C 0.21847 0.84606 0.48905 0.0
C382 C 0.22845 0.8468 0.46738 0.0
C383 C 0.21582 0.86849 0.45549 0.0
C384 C 0.19267 0.88838 0.46524 0.0
C385 C 0.18209 0.91011 0.45051 0.0
C386 C 0.20397 0.90049 0.43041 0.0
C387 C 0.22348 0.87597 0.43322 0.0
C388 C 0.20633 0.93478 0.45888 0.0
C389 C 0.12906 0.91217 0.44856 0.0
C390 C 0.29918 0.81508 0.38017 0.0
C391 C 0.31037 0.81838 0.35871 0.0
C392 C 0.30656 0.84309 0.34971 0.0
C393 C 0.28845 0.8636 0.36108 0.0
C394 C 0.27388 0.85963 0.38183 0.0
C395 C 0.28109 0.83612 0.39148 0.0
C396 C 0.26637 0.83672 0.41432 0.0
C397 C 0.24613 0.86371 0.41604 0.0
C398 C 0.25035 0.87677 0.39677 0.0
C399 C 0.30987 0.83369 0.42806 0.0
C400 C 0.22964 0.8155 0.41792 0.0
H401 H 0.15025 0.95579 0.42872 0.0
H402 H 0.2009 0.96459 0.35446 0.0
H403 H 0.16399 0.90505 0.36017 0.0
H404 H 0.21068 0.88548 0.35335 0.0
H405 H 0.20546 0.91677 0.34148 0.0
H406 H 0.28727 0.94604 0.3769 0.0
H407 H 0.27955 0.93274 0.35111 0.0
H408 H 0.30497 0.91431 0.37219 0.0
H409 H 0.1635 0.90373 0.49357 0.0
H410 H 0.22962 0.82957 0.4981 0.0
H411 H 0.24593 0.83058 0.46074 0.0
H412 H 0.24088 0.93016 0.46531 0.0
H413 H 0.18606 0.94378 0.4717 0.0
H414 H 0.21282 0.94932 0.44655 0.0
H415 H 0.112 0.89312 0.45093 0.0
H416 H 0.11791 0.91829 0.43271 0.0
H417 H 0.11488 0.92562 0.46046 0.0
H418 H 0.12766 0.99301 0.40889 0.0
C419 C 0.16182 0.95697 0.41272 0.0
C420 C 0.19944 0.67673 0.86482 0.0
C421 C 0.18664 0.70132 0.87185 0.0
C422 C 0.19092 0.70712 0.89346 0.0
C423 C 0.22436 0.66493 0.8999 0.0
C424 C 0.21871 0.65921 0.87885 0.0
C425 C 0.23865 0.63366 0.87289 0.0
H426 H 0.34628 0.52452 0.90046 0.0
C427 C 0.24749 0.64259 0.90984 0.0
C428 C 0.25559 0.62427 0.89402 0.0
H429 H 0.31465 0.55285 0.83787 0.0
H430 H 0.27698 0.589 0.85285 0.0
H431 H 0.3852 0.58031 0.91545 0.0
H432 H 0.2545 0.54197 0.92427 0.0
H433 H 0.26825 0.55789 0.94787 0.0
H434 H 0.30498 0.53245 0.93844 0.0
H435 H 0.37849 0.55181 0.93122 0.0
H436 H 0.36905 0.58335 0.94196 0.0
C437 C 0.27882 0.63855 0.8572 0.0
C438 C 0.19934 0.61638 0.86424 0.0
C439 C 0.294 0.64508 0.98692 0.0
C440 C 0.31448 0.62689 1.00026 0.0
C441 C 0.32235 0.60179 0.99278 0.0
C442 C 0.31211 0.59524 0.97189 0.0
C443 C 0.29368 0.61398 0.95839 0.0
C444 C 0.28334 0.63814 0.96618 0.0
C445 C 0.26094 0.65499 0.94991 0.0
C446 C 0.26177 0.63745 0.9308 0.0
C447 C 0.2817 0.61357 0.9358 0.0
C448 C 0.29122 0.67934 0.94676 0.0
C449 C 0.21126 0.66064 0.95722 0.0
C450 C 0.33218 0.53855 0.88974 0.0
C451 C 0.33405 0.53511 0.86767 0.0
C452 C 0.31339 0.55402 0.85483 0.0
C453 C 0.29204 0.57558 0.86359 0.0
C454 C 0.29243 0.57912 0.88546 0.0
C455 C 0.3125 0.56087 0.89817 0.0
C456 C 0.31303 0.56896 0.92095 0.0
C457 C 0.2899 0.59512 0.91971 0.0
C458 C 0.2774 0.60068 0.89891 0.0
C459 C 0.36393 0.57114 0.92798 0.0
C460 C 0.28403 0.5493 0.93372 0.0
H461 H 0.21309 0.6947 0.9237 0.0
H462 H 0.19604 0.67138 0.84842 0.0
H463 H 0.16789 0.61832 0.87407 0.0
H464 H 0.20768 0.59567 0.86448 0.0
H465 H 0.19032 0.62194 0.84789 0.0
H466 H 0.29246 0.65861 0.8583 0.0
H467 H 0.26765 0.63545 0.84068 0.0
H468 H 0.30903 0.62633 0.86049 0.0
H469 H 0.28679 0.66436 0.9925 0.0
H470 H 0.33784 0.58749 1.00292 0.0
H471 H 0.31969 0.57597 0.96695 0.0
H472 H 0.32828 0.67416 0.94646 0.0
H473 H 0.28606 0.69332 0.95976 0.0
H474 H 0.28475 0.68917 0.93168 0.0
H475 H 0.19591 0.64358 0.96527 0.0
H476 H 0.18776 0.66472 0.94402 0.0
H477 H 0.21061 0.67703 0.96846 0.0
H478 H 0.18147 0.72594 0.89932 0.0
C479 C 0.20962 0.68901 0.90754 0.0
C480 C 0.85398 0.13001 0.26189 0.0
C481 C 0.85174 0.08389 0.26829 0.0
C482 C 0.87484 0.10784 0.26949 0.0
C483 C 0.80778 0.08251 0.2592 0.0
C484 C 0.80961 0.12874 0.25301 0.0
C485 C 0.78675 0.10487 0.25162 0.0
N486 N 0.87707 0.15282 0.26324 0.0
C487 C 0.85753 0.17514 0.2565 0.0
C488 C 0.78954 0.15154 0.2458 0.0
C489 C 0.81352 0.17486 0.24766 0.0
Gd490 Gd 0.06657 0.14181 0.24175 0.0
Gd491 Gd 0.95147 0.15126 0.27715 0.0
N492 N 0.91793 0.10971 0.27781 0.0
C493 C 0.87343 0.06205 0.27636 0.0
C494 C 0.9379 0.08874 0.28685 0.0
C495 C 0.91642 0.06456 0.28593 0.0
H496 H 0.96989 0.09044 0.29511 0.0
H497 H 0.93287 0.04792 0.29278 0.0
H498 H 0.05139 0.20121 0.22089 0.0
H499 H 0.87563 0.19321 0.25836 0.0
H500 H 0.09359 0.24225 0.21877 0.0
H501 H 0.85691 0.04328 0.27568 0.0
H502 H 0.78962 0.06425 0.25808 0.0
H503 H 0.13514 0.1012 0.26788 0.0
H504 H 0.75546 0.15138 0.23892 0.0
H505 H 0.79806 0.19261 0.24236 0.0
H506 H 0.23608 0.22568 0.254 0.0
H507 H 0.75271 0.1035 0.24477 0.0
H508 H 0.25906 0.14181 0.28352 0.0
H509 H 0.21158 0.10206 0.28471 0.0
N510 N 0.13832 0.14041 0.2583 0.0
C511 C 0.16422 0.16229 0.257 0.0
C512 C 0.15496 0.11886 0.26785 0.0
C513 C 0.22529 0.14163 0.27632 0.0
C514 C 0.19853 0.11918 0.27711 0.0
C515 C 0.20836 0.16351 0.26613 0.0
H516 H 0.26801 0.18779 0.27186 0.0
N517 N 0.10259 0.18233 0.23893 0.0
C518 C 0.14605 0.18376 0.24689 0.0
C519 C 0.15241 0.22815 0.23567 0.0
C520 C 0.17187 0.20684 0.24567 0.0
C521 C 0.08425 0.20276 0.22846 0.0
C522 C 0.10855 0.22603 0.22691 0.0
O523 O 0.94564 0.12941 0.24672 0.0
O524 O 0.01481 0.10893 0.24257 0.0
O525 O 0.07491 0.14303 0.20718 0.0
O526 O 0.11458 0.11649 0.22667 0.0
O527 O 0.01443 0.13273 0.2915 0.0
O528 O 0.05034 0.11035 0.26495 0.0
O529 O 0.07239 0.1666 0.27138 0.0
O530 O 0.00072 0.18426 0.27319 0.0
O531 O 0.95392 0.14954 0.31124 0.0
O532 O 0.90438 0.17413 0.29595 0.0
O533 O 0.00516 0.16125 0.2269 0.0
O534 O 0.96231 0.18241 0.25253 0.0
C535 C 0.97074 0.11114 0.23854 0.0
C536 C 0.04297 0.11488 0.28496 0.0
C537 C 0.13014 0.11429 0.18937 0.0
C538 C 0.14684 0.11258 0.15158 0.0
C539 C 0.18484 0.08327 0.17575 0.0
C540 C 0.16114 0.09399 0.19255 0.0
C541 C 0.17796 0.09248 0.15548 0.0
C542 C 0.12314 0.12369 0.16873 0.0
C543 C 0.10602 0.12506 0.20789 0.0
C544 C 0.2159 0.20806 0.2547 0.0
C545 C 0.23408 0.18648 0.26489 0.0
H546 H 0.17107 0.24625 0.23448 0.0
C547 C 0.04358 0.18344 0.27932 0.0
C548 C 0.97475 0.17867 0.23271 0.0
C549 C 0.8825 0.15401 0.32797 0.0
C550 C 0.85597 0.14556 0.36378 0.0
C551 C 0.8117 0.13002 0.33385 0.0
C552 C 0.84387 0.14082 0.32012 0.0
C553 C 0.81763 0.13232 0.35554 0.0
C554 C 0.88838 0.1564 0.34982 0.0
C555 C 0.91809 0.16415 0.31365 0.0
H556 H 0.20882 0.06777 0.17846 0.0
H557 H 0.16732 0.08632 0.20814 0.0
H558 H 0.19756 0.08396 0.14279 0.0
H559 H 0.09916 0.13922 0.16602 0.0
H560 H 0.782 0.11987 0.32766 0.0
H561 H 0.83853 0.13879 0.30342 0.0
H562 H 0.79179 0.12407 0.36587 0.0
H563 H 0.91852 0.1663 0.35592 0.0
C564 C 0.66458 0.37606 0.76221 0.0
C565 C 0.68262 0.41962 0.77364 0.0
C566 C 0.65212 0.39839 0.77263 0.0
C567 C 0.72446 0.41877 0.76266 0.0
C568 C 0.70769 0.37467 0.75207 0.0
C569 C 0.73683 0.39639 0.75178 0.0
N570 N 0.63639 0.35508 0.76354 0.0
C571 C 0.6519 0.33151 0.75713 0.0
C572 C 0.72122 0.35114 0.74342 0.0
C573 C 0.69359 0.32934 0.74634 0.0
Gd574 Gd 0.4564 0.36331 0.73999 0.0
Gd575 Gd 0.56538 0.36178 0.78084 0.0
N576 N 0.611 0.39893 0.78269 0.0
C577 C 0.67052 0.44085 0.78605 0.0
C578 C 0.59992 0.41894 0.79562 0.0
C579 C 0.62925 0.44033 0.79734 0.0
H580 H 0.56814 0.41843 0.80436 0.0
H581 H 0.61997 0.4564 0.80728 0.0
H582 H 0.47638 0.30515 0.7182 0.0
H583 H 0.63279 0.31409 0.76052 0.0
H584 H 0.4419 0.26164 0.71869 0.0
H585 H 0.69309 0.45748 0.78729 0.0
H586 H 0.748 0.43505 0.76293 0.0
H587 H 0.37715 0.40311 0.75965 0.0
H588 H 0.75395 0.3493 0.73542 0.0
H589 H 0.70487 0.31074 0.74072 0.0
H590 H 0.29953 0.27273 0.75572 0.0
H591 H 0.76983 0.39573 0.74388 0.0
H592 H 0.2605 0.35795 0.77833 0.0
H593 H 0.30012 0.40023 0.77576 0.0
N594 N 0.38237 0.36288 0.75446 0.0
C595 C 0.36031 0.33969 0.75468 0.0
C596 C 0.36088 0.38454 0.76135 0.0
C597 C 0.29457 0.35911 0.77148 0.0
C598 C 0.31689 0.38299 0.77015 0.0
C599 C 0.31605 0.33711 0.76352 0.0
H600 H 0.26072 0.31038 0.77087 0.0
N601 N 0.42474 0.32165 0.73738 0.0
C602 C 0.38217 0.31844 0.74598 0.0
C603 C 0.38274 0.27333 0.73663 0.0
C604 C 0.36032 0.2941 0.74609 0.0
C605 C 0.44523 0.30191 0.72692 0.0
C606 C 0.42507 0.27736 0.72672 0.0
O607 O 0.55551 0.3974 0.76094 0.0
O608 O 0.52559 0.37992 0.73098 0.0
O609 O 0.43818 0.35648 0.70747 0.0
O610 O 0.42189 0.39321 0.72189 0.0
O611 O 0.49598 0.37722 0.79015 0.0
O612 O 0.46141 0.39766 0.76228 0.0
O613 O 0.44921 0.34139 0.77121 0.0
O614 O 0.52194 0.32601 0.77785 0.0
O615 O 0.5531 0.36517 0.81436 0.0
O616 O 0.61406 0.34589 0.80315 0.0
O617 O 0.52185 0.34442 0.72828 0.0
O618 O 0.55645 0.32848 0.75829 0.0
C619 C 0.54697 0.39869 0.7407 0.0
C620 C 0.47369 0.39693 0.7823 0.0
C621 C 0.379 0.38015 0.69141 0.0
C622 C 0.3479 0.3808 0.65554 0.0
C623 C 0.29698 0.38399 0.68595 0.0
C624 C 0.33454 0.38248 0.6996 0.0
C625 C 0.30349 0.38337 0.66413 0.0
C626 C 0.38535 0.37885 0.66952 0.0
C627 C 0.41996 0.37905 0.70493 0.0
C628 C 0.3167 0.29133 0.75536 0.0
C629 C 0.29458 0.31278 0.76399 0.0
H630 H 0.36713 0.25431 0.73639 0.0
C631 C 0.47703 0.32445 0.77983 0.0
C632 C 0.55033 0.32866 0.73779 0.0
C633 C 0.58967 0.33686 0.83797 0.0
C634 C 0.60464 0.33287 0.87561 0.0
C635 C 0.58185 0.29531 0.85486 0.0
C636 C 0.57955 0.31049 0.83673 0.0
C637 C 0.59476 0.30629 0.87413 0.0
C638 C 0.601 0.34798 0.85734 0.0
C639 C 0.59082 0.35351 0.81943 0.0
H640 H 0.26265 0.38598 0.6923 0.0
H641 H 0.3289 0.38321 0.71642 0.0
H642 H 0.27374 0.38545 0.65407 0.0
H643 H 0.41986 0.37625 0.66348 0.0
H644 H 0.57436 0.27488 0.85392 0.0
H645 H 0.57042 0.30171 0.82183 0.0
H646 H 0.59778 0.2938 0.88768 0.0
H647 H 0.60719 0.36859 0.85799 0.0
C648 C 0.84993 0.8483 0.76299 0.0
C649 C 0.83701 0.80462 0.77531 0.0
C650 C 0.8659 0.82636 0.77282 0.0
C651 C 0.793 0.80461 0.76623 0.0
C652 C 0.80488 0.84887 0.75479 0.0
C653 C 0.77706 0.82665 0.75587 0.0
N654 N 0.87693 0.86974 0.76315 0.0
C655 C 0.85936 0.89292 0.75703 0.0
C656 C 0.78835 0.87211 0.7467 0.0
C657 C 0.81548 0.89434 0.74816 0.0
Gd658 Gd 0.05748 0.86522 0.73498 0.0
Gd659 Gd 0.951 0.86521 0.77772 0.0
N660 N 0.90858 0.82701 0.78143 0.0
C661 C 0.85273 0.78395 0.78746 0.0
C662 C 0.92336 0.80748 0.79408 0.0
C663 C 0.89584 0.78555 0.79714 0.0
H664 H 0.95644 0.80891 0.80174 0.0
H665 H 0.90787 0.76994 0.80693 0.0
H666 H 0.01753 0.91416 0.70445 0.0
H667 H 0.8788 0.91052 0.75924 0.0
H668 H 0.03381 0.96008 0.69893 0.0
H669 H 0.83147 0.76696 0.78984 0.0
H670 H 0.77054 0.78795 0.76768 0.0
H671 H 0.14621 0.84201 0.76145 0.0
H672 H 0.75399 0.87334 0.74021 0.0
H673 H 0.80227 0.91268 0.74287 0.0
H674 H 0.17328 0.97526 0.73718 0.0
H675 H 0.74251 0.82665 0.7495 0.0
H676 H 0.24324 0.90327 0.77156 0.0
H677 H 0.22028 0.85756 0.77606 0.0
N678 N 0.12736 0.87859 0.74958 0.0
C679 C 0.13987 0.90353 0.74628 0.0
C680 C 0.15597 0.86196 0.75965 0.0
C681 C 0.21077 0.89651 0.76519 0.0
C682 C 0.19789 0.87071 0.76782 0.0
C683 C 0.18178 0.91325 0.7542 0.0
H684 H 0.22542 0.94712 0.75693 0.0
N685 N 0.07085 0.90902 0.72695 0.0
C686 C 0.11029 0.91933 0.73506 0.0
C687 C 0.09336 0.96038 0.71901 0.0
C688 C 0.12235 0.94535 0.73145 0.0
C689 C 0.04493 0.92303 0.71326 0.0
C690 C 0.05498 0.94902 0.70955 0.0
O691 O 0.96078 0.82955 0.75765 0.0
O692 O 0.99171 0.84397 0.72619 0.0
O693 O 0.0859 0.86791 0.70326 0.0
O694 O 0.09732 0.83341 0.72233 0.0
O695 O 0.01664 0.84477 0.78794 0.0
O696 O 0.05488 0.83173 0.75741 0.0
O697 O 0.06745 0.88297 0.76761 0.0
O698 O 0.99594 0.89841 0.76914 0.0
O699 O 0.96711 0.86726 0.81126 0.0
O700 O 0.90652 0.88566 0.79932 0.0
O701 O 0.98754 0.87729 0.72309 0.0
O702 O 0.956 0.89614 0.75238 0.0
C703 C 0.96714 0.82732 0.73719 0.0
C704 C 0.04648 0.83009 0.77778 0.0
C705 C 0.13022 0.83347 0.68698 0.0
C706 C 0.15326 0.83237 0.64989 0.0
C707 C 0.17797 0.79875 0.67397 0.0
C708 C 0.1545 0.81057 0.69042 0.0
C709 C 0.17736 0.80948 0.65386 0.0
C710 C 0.12994 0.84442 0.66665 0.0
C711 C 0.10375 0.84505 0.7044 0.0
C712 C 0.16361 0.9553 0.73973 0.0
C713 C 0.1934 0.93925 0.75093 0.0
H714 H 0.10138 0.98045 0.71588 0.0
C715 C 0.03799 0.89892 0.77595 0.0
C716 C 0.95639 0.892 0.73193 0.0
C717 C 0.90081 0.86708 0.83295 0.0
C718 C 0.87803 0.86414 0.8699 0.0
C719 C 0.8407 0.83706 0.84375 0.0
C720 C 0.86718 0.84849 0.82804 0.0
C721 C 0.84604 0.84476 0.86456 0.0
C722 C 0.90591 0.87506 0.85398 0.0
C723 C 0.92892 0.8788 0.81604 0.0
H724 H 0.19672 0.78115 0.6768 0.0
H725 H 0.15525 0.80172 0.70585 0.0
H726 H 0.19638 0.8 0.64146 0.0
H727 H 0.11077 0.8619 0.66377 0.0
H728 H 0.81507 0.82266 0.8397 0.0
H729 H 0.86039 0.84319 0.81203 0.0
H730 H 0.82367 0.83629 0.87636 0.0
H731 H 0.93089 0.88992 0.85786 0.0
C732 C 0.64903 0.67338 0.26074 0.0
C733 C 0.65162 0.71938 0.26813 0.0
C734 C 0.62779 0.69559 0.2681 0.0
C735 C 0.6967 0.72068 0.2603 0.0
C736 C 0.69463 0.67464 0.25316 0.0
C737 C 0.71804 0.69841 0.25274 0.0
N738 N 0.62622 0.6504 0.26211 0.0
C739 C 0.64844 0.62792 0.2576 0.0
C740 C 0.71606 0.65183 0.24694 0.0
C741 C 0.69304 0.62836 0.24942 0.0
Gd742 Gd 0.44722 0.63895 0.23577 0.0
Gd743 Gd 0.55195 0.65271 0.27675 0.0
N744 N 0.58401 0.69395 0.27547 0.0
C745 C 0.62948 0.74114 0.27618 0.0
C746 C 0.56297 0.71478 0.28421 0.0
C747 C 0.58505 0.73879 0.28436 0.0
H748 H 0.52914 0.7128 0.29103 0.0
H749 H 0.56802 0.7554 0.29098 0.0
H750 H 0.48401 0.58836 0.20683 0.0
H751 H 0.63287 0.60943 0.26083 0.0
H752 H 0.46432 0.54268 0.20185 0.0
H753 H 0.64661 0.75975 0.2764 0.0
H754 H 0.71541 0.73881 0.26005 0.0
H755 H 0.3618 0.66444 0.26332 0.0
H756 H 0.75097 0.65204 0.24097 0.0
H757 H 0.71009 0.6105 0.24554 0.0
H758 H 0.3224 0.53213 0.23924 0.0
H759 H 0.75301 0.69971 0.24692 0.0
H760 H 0.25972 0.60605 0.27379 0.0
H761 H 0.28688 0.65105 0.27818 0.0
N762 N 0.37822 0.62712 0.25213 0.0
C763 C 0.36352 0.60252 0.24903 0.0
C764 C 0.35087 0.64465 0.26196 0.0
C765 C 0.29297 0.61177 0.26759 0.0
C766 C 0.30823 0.63716 0.27016 0.0
C767 C 0.32043 0.59416 0.25669 0.0
H768 H 0.27275 0.56196 0.25868 0.0
N769 N 0.43106 0.59514 0.22922 0.0
C770 C 0.39123 0.5859 0.23766 0.0
C771 C 0.40432 0.54433 0.22165 0.0
C772 C 0.37666 0.56028 0.23399 0.0
C773 C 0.45591 0.58026 0.2157 0.0
C774 C 0.44386 0.55448 0.21226 0.0
O775 O 0.53931 0.6822 0.25088 0.0
O776 O 0.51496 0.65507 0.22494 0.0
O777 O 0.41838 0.6328 0.20432 0.0
O778 O 0.40844 0.66945 0.22078 0.0
O779 O 0.48298 0.66931 0.28539 0.0
O780 O 0.44599 0.67667 0.25368 0.0
O781 O 0.44031 0.62448 0.26961 0.0
O782 O 0.51514 0.61467 0.27668 0.0
O783 O 0.53627 0.65286 0.31038 0.0
O784 O 0.60616 0.6484 0.2996 0.0
O785 O 0.51733 0.62298 0.22665 0.0
O786 O 0.55333 0.61512 0.25846 0.0
C787 C 0.53131 0.67742 0.23091 0.0
C788 C 0.45267 0.68156 0.27382 0.0
C789 C 0.37303 0.66554 0.18634 0.0
C790 C 0.35373 0.66654 0.14902 0.0
C791 C 0.3108 0.69248 0.17385 0.0
C792 C 0.33798 0.68336 0.19028 0.0
C793 C 0.31859 0.68413 0.15331 0.0
C794 C 0.38086 0.65708 0.16558 0.0
C795 C 0.40038 0.65565 0.20406 0.0
C796 C 0.33418 0.55171 0.24197 0.0
C797 C 0.30585 0.56871 0.253 0.0
H798 H 0.39444 0.52452 0.21856 0.0
C799 C 0.47109 0.61114 0.28003 0.0
C800 C 0.54626 0.60984 0.2384 0.0
C801 C 0.58723 0.62814 0.33134 0.0
C802 C 0.60685 0.61738 0.36777 0.0
C803 C 0.61319 0.58519 0.33985 0.0
C804 C 0.59834 0.60308 0.32504 0.0
C805 C 0.61837 0.59233 0.36091 0.0
C806 C 0.58987 0.63488 0.35265 0.0
C807 C 0.57869 0.64837 0.31569 0.0
H808 H 0.28373 0.70614 0.17702 0.0
H809 H 0.33124 0.69004 0.20613 0.0
H810 H 0.29759 0.69167 0.14069 0.0
H811 H 0.40818 0.64357 0.16228 0.0
H812 H 0.62241 0.56597 0.33487 0.0
H813 H 0.59709 0.59766 0.3086 0.0
H814 H 0.63278 0.57823 0.37147 0.0
H815 H 0.57969 0.65414 0.35706 0.0
H816 H 0.13652 0.98603 0.33842 0.0
H817 H 0.15927 0.03157 0.39487 0.0
H818 H 0.1339 0.07041 0.37608 0.0
H819 H 0.17669 0.03576 0.30143 0.0
H820 H 0.13443 0.02741 0.2818 0.0
H821 H 0.15569 0.00307 0.29946 0.0
H822 H 0.07222 0.99236 0.31102 0.0
H823 H 0.05079 0.01668 0.29344 0.0
H824 H 0.03625 0.01775 0.32098 0.0
H825 H 0.10213 0.10369 0.35225 0.0
H826 H 0.06769 0.13002 0.32416 0.0
H827 H 0.06875 0.06399 0.28228 0.0
C828 C 0.1369 0.00423 0.34675 0.0
C829 C 0.14958 0.00562 0.36824 0.0
C830 C 0.14888 0.02982 0.37858 0.0
C831 C 0.1349 0.05208 0.36798 0.0
C832 C 0.12217 0.04996 0.34695 0.0
C833 C 0.12332 0.02675 0.33635 0.0
C834 C 0.107 0.02984 0.31381 0.0
C835 C 0.14577 0.02365 0.2982 0.0
C836 C 0.06401 0.01317 0.30958 0.0
C837 C 0.09567 0.05833 0.31359 0.0
C838 C 0.10482 0.0695 0.3329 0.0
C839 C 0.09525 0.09526 0.337 0.0
C840 C 0.07553 0.11001 0.32099 0.0
C841 C 0.06583 0.09904 0.30108 0.0
C842 C 0.07648 0.07292 0.29728 0.0
H843 H 0.32251 0.51278 0.82788 0.0
H844 H 0.40497 0.50664 0.88493 0.0
H845 H 0.44596 0.47045 0.86947 0.0
H846 H 0.31734 0.4465 0.81357 0.0
H847 H 0.32588 0.45219 0.78587 0.0
H848 H 0.29893 0.47638 0.80193 0.0
H849 H 0.36003 0.50997 0.79007 0.0
H850 H 0.38699 0.4859 0.77388 0.0
H851 H 0.4202 0.50296 0.79344 0.0
H852 H 0.47629 0.4341 0.84892 0.0
H853 H 0.50069 0.40237 0.82302 0.0
H854 H 0.41093 0.43687 0.77635 0.0
C855 C 0.34947 0.50432 0.83724 0.0
C856 C 0.35915 0.51281 0.85807 0.0
C857 C 0.39473 0.50033 0.86942 0.0
C858 C 0.41899 0.47978 0.86064 0.0
C859 C 0.40859 0.47226 0.8402 0.0
C860 C 0.37541 0.4844 0.82844 0.0
C861 C 0.37347 0.47352 0.80625 0.0
C862 C 0.32609 0.46143 0.80165 0.0
C863 C 0.38592 0.49433 0.78995 0.0
C864 C 0.41043 0.4531 0.80757 0.0
C865 C 0.4295 0.45256 0.82747 0.0
C866 C 0.46223 0.43458 0.83317 0.0
C867 C 0.47595 0.41658 0.81818 0.0
C868 C 0.45811 0.41693 0.7974 0.0
C869 C 0.42519 0.43578 0.79201 0.0
H870 H 0.60827 0.48954 0.64159 0.0
H871 H 0.72195 0.51719 0.68042 0.0
H872 H 0.6959 0.48993 0.70908 0.0
H873 H 0.52416 0.4779 0.67987 0.0
H874 H 0.50566 0.44672 0.67049 0.0
H875 H 0.52993 0.46984 0.65241 0.0
H876 H 0.59154 0.4369 0.64096 0.0
H877 H 0.56693 0.41351 0.65877 0.0
H878 H 0.62705 0.42191 0.66065 0.0
H879 H 0.64834 0.46787 0.73555 0.0
H880 H 0.6011 0.43753 0.75547 0.0
H881 H 0.53595 0.41087 0.69822 0.0
C882 C 0.62831 0.48973 0.6559 0.0
C883 C 0.66516 0.50755 0.65897 0.0
C884 C 0.691 0.50595 0.67793 0.0
C885 C 0.67706 0.49005 0.69439 0.0
C886 C 0.63915 0.47422 0.69131 0.0
C887 C 0.61676 0.47256 0.67225 0.0
C888 C 0.58036 0.45129 0.67292 0.0
C889 C 0.53217 0.4621 0.66867 0.0
C890 C 0.59218 0.42961 0.6574 0.0
C891 C 0.58502 0.44228 0.6956 0.0
C892 C 0.61822 0.4566 0.70589 0.0
C893 C 0.62459 0.45514 0.72746 0.0
C894 C 0.59816 0.43742 0.73869 0.0
C895 C 0.56836 0.41991 0.72837 0.0
C896 C 0.56049 0.42296 0.70648 0.0
H897 H 0.90562 0.97343 0.18913 0.0
H898 H 0.79643 0.01243 0.15577 0.0
H899 H 0.81925 0.05371 0.17239 0.0
H900 H 0.89913 0.01079 0.23766 0.0
H901 H 0.9605 0.01158 0.24152 0.0
H902 H 0.93411 0.98484 0.22792 0.0
H903 H 0.98781 0.9929 0.19595 0.0
H904 H 0.01413 0.01973 0.20946 0.0
H905 H 0.98916 0.02429 0.18379 0.0
H906 H 0.85233 0.08999 0.19268 0.0
H907 H 0.89699 0.1207 0.2141 0.0
H908 H 0.98879 0.05935 0.23309 0.0
C909 C 0.88644 0.99071 0.18559 0.0
C910 C 0.84904 0.99001 0.17146 0.0
C911 C 0.82497 0.01283 0.16672 0.0
C912 C 0.83766 0.03623 0.17606 0.0
C913 C 0.87484 0.03643 0.18987 0.0
C914 C 0.89917 0.01438 0.19455 0.0
C915 C 0.93885 0.02031 0.20932 0.0
C916 C 0.93277 0.00603 0.23035 0.0
C917 C 0.98523 0.01393 0.19901 0.0
C918 C 0.93314 0.04913 0.21206 0.0
C919 C 0.89556 0.05785 0.20088 0.0
C920 C 0.88208 0.08348 0.20135 0.0
C921 C 0.9077 0.10075 0.21355 0.0
C922 C 0.94668 0.09242 0.22496 0.0
C923 C 0.95971 0.06628 0.22415 0.0
H924 H 0.86995 0.02603 0.68737 0.0
H925 H 0.83477 0.9862 0.62942 0.0
H926 H 0.8582 0.94496 0.64547 0.0
H927 H 0.96785 0.98974 0.7 0.0
H928 H 0.95761 0.98896 0.72797 0.0
H929 H 0.93703 0.01553 0.71249 0.0
H930 H 0.85401 0.00777 0.72545 0.0
H931 H 0.87367 0.98146 0.74154 0.0
H932 H 0.82816 0.97625 0.72273 0.0
H933 H 0.88662 0.90833 0.66763 0.0
H934 H 0.92131 0.87912 0.69384 0.0
H935 H 0.93448 0.94272 0.73772 0.0
C936 C 0.86657 0.00863 0.67809 0.0
C937 C 0.8503 0.00937 0.65713 0.0
C938 C 0.84759 0.98618 0.64541 0.0
C939 C 0.86037 0.96264 0.65446 0.0
C940 C 0.87552 0.96261 0.67526 0.0
C941 C 0.87874 0.98501 0.68691 0.0
C942 C 0.89695 0.97986 0.70881 0.0
C943 C 0.94257 0.99437 0.71254 0.0
C944 C 0.86105 0.98675 0.72562 0.0
C945 C 0.90399 0.95105 0.7076 0.0
C946 C 0.89122 0.94146 0.68814 0.0
C947 C 0.89635 0.91557 0.68297 0.0
C948 C 0.91595 0.89915 0.69792 0.0
C949 C 0.92987 0.9087 0.71779 0.0
C950 C 0.92307 0.93486 0.72281 0.0
H951 H 0.65108 0.51392 0.15234 0.0
H952 H 0.64695 0.45536 0.2012 0.0
H953 H 0.6144 0.48667 0.22587 0.0
H954 H 0.68122 0.56693 0.18465 0.0
H955 H 0.6443 0.58989 0.17191 0.0
H956 H 0.66629 0.56289 0.15732 0.0
H957 H 0.58325 0.54897 0.14738 0.0
H958 H 0.56113 0.57615 0.16173 0.0
H959 H 0.54129 0.54405 0.16792 0.0
H960 H 0.58786 0.52416 0.24605 0.0
H961 H 0.55994 0.56553 0.25987 0.0
H962 H 0.57588 0.60005 0.19809 0.0
C963 C 0.64273 0.50763 0.16814 0.0
C964 C 0.6527 0.4823 0.17496 0.0
C965 C 0.6411 0.47484 0.19577 0.0
C966 C 0.62223 0.49242 0.2099 0.0
C967 C 0.61423 0.51735 0.20294 0.0
C968 C 0.62321 0.52495 0.1825 0.0
C969 C 0.61078 0.55305 0.17929 0.0
C970 C 0.65318 0.56913 0.17292 0.0
C971 C 0.57179 0.5557 0.16312 0.0
C972 C 0.59447 0.56001 0.20122 0.0
C973 C 0.59697 0.53906 0.21456 0.0
C974 C 0.58525 0.54068 0.23574 0.0
C975 C 0.5698 0.56428 0.24347 0.0
C976 C 0.56574 0.58585 0.23 0.0
C977 C 0.57849 0.58373 0.20863 0.0
H978 H 0.30514 0.51377 0.344 0.0
H979 H 0.42939 0.47408 0.36248 0.0
H980 H 0.47628 0.50634 0.3434 0.0
H981 H 0.33921 0.53383 0.29201 0.0
H982 H 0.31096 0.56449 0.29521 0.0
H983 H 0.29095 0.53698 0.30967 0.0
H984 H 0.3007 0.56635 0.34303 0.0
H985 H 0.325 0.59204 0.32739 0.0
H986 H 0.35688 0.57915 0.34924 0.0
H987 H 0.50894 0.54015 0.3209 0.0
H988 H 0.52794 0.57594 0.29747 0.0
H989 H 0.38362 0.59686 0.29432 0.0
C990 C 0.34224 0.51209 0.34401 0.0
C991 C 0.36395 0.4915 0.3545 0.0
C992 C 0.41243 0.48982 0.35449 0.0
C993 C 0.43922 0.50799 0.34371 0.0
C994 C 0.41694 0.52796 0.33335 0.0
C995 C 0.36971 0.53047 0.33365 0.0
C996 C 0.35503 0.55417 0.32141 0.0
C997 C 0.32217 0.54684 0.30346 0.0
C998 C 0.33311 0.5741 0.33616 0.0
C999 C 0.40124 0.5637 0.3132 0.0
C1000 C 0.4363 0.54832 0.32061 0.0
C1001 C 0.48193 0.55255 0.31517 0.0
C1002 C 0.49232 0.5731 0.30183 0.0
C1003 C 0.45741 0.5895 0.29403 0.0
C1004 C 0.4111 0.58468 0.29987 0.0
H1005 H 0.20293 0.98979 0.84599 0.0
H1006 H 0.07936 0.03116 0.86308 0.0
H1007 H 0.03245 1.00001 0.84295 0.0
H1008 H 0.17213 0.97252 0.79361 0.0
H1009 H 0.19707 0.94086 0.79548 0.0
H1010 H 0.21906 0.96663 0.81149 0.0
H1011 H 0.20477 0.93698 0.84405 0.0
H1012 H 0.18049 0.91227 0.82739 0.0
H1013 H 0.14756 0.92484 0.84905 0.0
H1014 H 0.99966 0.9671 0.8197 0.0
H1015 H 0.98068 0.93253 0.79495 0.0
H1016 H 0.12435 0.91008 0.79291 0.0
C1017 C 0.16594 0.992 0.8456 0.0
C1018 C 0.14452 0.01273 0.8561 0.0
C1019 C 0.09617 0.01519 0.85533 0.0
C1020 C 0.06933 0.99766 0.84391 0.0
C1021 C 0.09132 0.97754 0.83362 0.0
C1022 C 0.13837 0.97429 0.83453 0.0
C1023 C 0.1528 0.95081 0.82191 0.0
C1024 C 0.18725 0.95821 0.80457 0.0
C1025 C 0.17257 0.93 0.83647 0.0
C1026 C 0.10676 0.94231 0.81284 0.0
C1027 C 0.07191 0.95792 0.82016 0.0
C1028 C 0.0265 0.95457 0.81397 0.0
C1029 C 0.01616 0.93482 0.79982 0.0
C1030 C 0.05104 0.91856 0.79182 0.0
C1031 C 0.09699 0.92221 0.79864 0.0
H1032 H 0.16399 0.09106 0.02913 0.0
H1033 H 0.16895 0.17408 0.0204 0.0
H1034 H 0.15702 0.17994 0.05862 0.0
H1035 H 0.07178 0.09172 0.06788 0.0
H1036 H 0.09539 0.06485 0.08211 0.0
H1037 H 0.10439 0.06757 0.05415 0.0
H1038 H 0.19254 0.06516 0.05974 0.0
H1039 H 0.18392 0.06235 0.08765 0.0
H1040 H 0.2202 0.08768 0.07734 0.0
H1041 H 0.14722 0.17601 0.09893 0.0
H1042 H 0.14379 0.16248 0.13638 0.0
H1043 H 0.13743 0.08253 0.1167 0.0
C1044 C 0.16152 0.1106 0.03495 0.0
C1045 C 0.16706 0.13207 0.02145 0.0
C1046 C 0.16531 0.15719 0.03027 0.0
C1047 C 0.15802 0.16075 0.05198 0.0
C1048 C 0.15185 0.13904 0.06467 0.0
C1049 C 0.1533 0.11447 0.05633 0.0
C1050 C 0.14629 0.09413 0.07304 0.0
C1051 C 0.10181 0.07866 0.06905 0.0
C1052 C 0.18824 0.0763 0.07453 0.0
C1053 C 0.14194 0.11097 0.0923 0.0
C1054 C 0.14494 0.13685 0.0873 0.0
C1055 C 0.14433 0.15579 0.10294 0.0
C1056 C 0.14203 0.14796 0.12416 0.0
C1057 C 0.14057 0.12145 0.12948 0.0
C1058 C 0.13891 0.10295 0.11319 0.0
H1059 H 0.27931 0.36722 0.53367 0.0
H1060 H 0.41279 0.40082 0.51919 0.0
H1061 H 0.4328 0.40043 0.55677 0.0
H1062 H 0.25868 0.40114 0.57993 0.0
H1063 H 0.23286 0.37482 0.59431 0.0
H1064 H 0.22984 0.3754 0.56604 0.0
H1065 H 0.26765 0.33044 0.56422 0.0
H1066 H 0.27036 0.32953 0.59255 0.0
H1067 H 0.32189 0.32524 0.57721 0.0
H1068 H 0.43506 0.40148 0.59573 0.0
H1069 H 0.42234 0.40049 0.63384 0.0
H1070 H 0.29025 0.36251 0.62387 0.0
C1071 C 0.31314 0.37388 0.53838 0.0
C1072 C 0.34423 0.38437 0.52348 0.0
C1073 C 0.38802 0.39317 0.53033 0.0
C1074 C 0.39987 0.39289 0.55165 0.0
C1075 C 0.36794 0.38331 0.566 0.0
C1076 C 0.32581 0.37353 0.5597 0.0
C1077 C 0.29748 0.36509 0.57858 0.0
C1078 C 0.25203 0.38001 0.57978 0.0
C1079 C 0.28884 0.33584 0.57811 0.0
C1080 C 0.32967 0.37257 0.59641 0.0
C1081 C 0.37014 0.38294 0.58872 0.0
C1082 C 0.404 0.39278 0.60199 0.0
C1083 C 0.39648 0.39193 0.62375 0.0
C1084 C 0.35554 0.38101 0.63223 0.0
C1085 C 0.32189 0.37109 0.61816 0.0
H1086 H 0.62 0.34987 1.00068 0.0
H1087 H 0.70547 0.41734 0.98971 0.0
H1088 H 0.69835 0.41077 0.95124 0.0
H1089 H 0.66166 0.31142 0.95839 0.0
H1090 H 0.60627 0.2979 0.95174 0.0
H1091 H 0.61798 0.30789 0.97835 0.0
H1092 H 0.5469 0.33772 0.97761 0.0
H1093 H 0.53478 0.32772 0.95104 0.0
H1094 H 0.54181 0.36147 0.95706 0.0
H1095 H 0.68652 0.39487 0.91441 0.0
H1096 H 0.66471 0.37375 0.88133 0.0
H1097 H 0.57961 0.3192 0.91618 0.0
C1098 C 0.63691 0.36328 0.99009 0.0
C1099 C 0.66326 0.3841 0.99793 0.0
C1100 C 0.68489 0.40141 0.98382 0.0
C1101 C 0.68121 0.39775 0.96204 0.0
C1102 C 0.65521 0.37691 0.95476 0.0
C1103 C 0.63284 0.3602 0.96833 0.0
C1104 C 0.60618 0.33973 0.95639 0.0
C1105 C 0.62411 0.31263 0.96153 0.0
C1106 C 0.55434 0.3418 0.96079 0.0
C1107 C 0.61757 0.34733 0.93399 0.0
C1108 C 0.64625 0.36865 0.93343 0.0
C1109 C 0.66325 0.3785 0.91462 0.0
C1110 C 0.65017 0.36641 0.89583 0.0
C1111 C 0.61946 0.34496 0.89586 0.0
C1112 C 0.60322 0.33538 0.91536 0.0
H1113 H 0.82739 0.10156 0.483 0.0
H1114 H 0.86088 0.18005 0.50137 0.0
H1115 H 0.87431 0.19135 0.46409 0.0
H1116 H 0.91227 0.09682 0.44104 0.0
H1117 H 0.87489 0.07786 0.42443 0.0
H1118 H 0.86959 0.07582 0.45263 0.0
H1119 H 0.78339 0.08768 0.44997 0.0
H1120 H 0.78832 0.08972 0.4218 0.0
H1121 H 0.76711 0.11682 0.43654 0.0
H1122 H 0.88252 0.19418 0.42461 0.0
H1123 H 0.88047 0.18889 0.38594 0.0
H1124 H 0.84286 0.10838 0.39382 0.0
C1125 C 0.83824 0.12103 0.47924 0.0
C1126 C 0.84326 0.1399 0.4951 0.0
C1127 C 0.85646 0.16532 0.48945 0.0
C1128 C 0.86452 0.17188 0.46835 0.0
C1129 C 0.85935 0.15277 0.45312 0.0
C1130 C 0.84643 0.12788 0.45831 0.0
C1131 C 0.84162 0.11114 0.43895 0.0
C1132 C 0.87669 0.08911 0.43929 0.0
C1133 C 0.79217 0.10074 0.43669 0.0
C1134 C 0.85301 0.13062 0.42199 0.0
C1135 C 0.86369 0.15444 0.43046 0.0
C1136 C 0.87444 0.17558 0.4178 0.0
C1137 C 0.87342 0.17236 0.39588 0.0
C1138 C 0.86134 0.14826 0.38689 0.0
C1139 C 0.85177 0.1271 0.40022 0.0
H1140 H 0.84075 0.85439 0.99393 0.0
H1141 H 0.82882 0.93781 0.99388 0.0
H1142 H 0.8475 0.93875 0.95617 0.0
H1143 H 0.93331 0.84947 0.95701 0.0
H1144 H 0.91024 0.82144 0.94386 0.0
H1145 H 0.8973 0.82699 0.9712 0.0
H1146 H 0.81002 0.82489 0.96314 0.0
H1147 H 0.82265 0.81897 0.93584 0.0
H1148 H 0.7865 0.84558 0.94313 0.0
H1149 H 0.86816 0.93104 0.91861 0.0
H1150 H 0.8798 0.91449 0.88258 0.0
H1151 H 0.87595 0.83616 0.90653 0.0
C1152 C 0.84162 0.87283 0.98597 0.0
C1153 C 0.83424 0.89606 0.99706 0.0
C1154 C 0.83569 0.91978 0.98595 0.0
C1155 C 0.84611 0.92055 0.96447 0.0
C1156 C 0.85442 0.89742 0.95417 0.0
C1157 C 0.85152 0.87397 0.96442 0.0
C1158 C 0.85994 0.85189 0.94935 0.0
C1159 C 0.90275 0.83655 0.95574 0.0
C1160 C 0.81723 0.8343 0.94777 0.0
C1161 C 0.86802 0.86666 0.92911 0.0
C1162 C 0.86516 0.89292 0.93229 0.0
C1163 C 0.87057 0.91051 0.91589 0.0
C1164 C 0.87762 0.90095 0.89552 0.0
C1165 C 0.87884 0.87407 0.89177 0.0
C1166 C 0.87503 0.85682 0.90892 0.0
H1167 H 0.66882 0.59819 0.48939 0.0
H1168 H 0.66774 0.68172 0.49539 0.0
H1169 H 0.64619 0.68543 0.45821 0.0
H1170 H 0.71166 0.59406 0.43806 0.0
H1171 H 0.67463 0.56791 0.4299 0.0
H1172 H 0.69004 0.57134 0.45718 0.0
H1173 H 0.60397 0.57239 0.46763 0.0
H1174 H 0.5882 0.56859 0.44039 0.0
H1175 H 0.56647 0.59542 0.45532 0.0
H1176 H 0.6337 0.6803 0.41967 0.0
H1177 H 0.62057 0.667 0.38341 0.0
H1178 H 0.61398 0.5868 0.40384 0.0
C1179 C 0.66317 0.61731 0.48315 0.0
C1180 C 0.67121 0.63966 0.49545 0.0
C1181 C 0.66367 0.66423 0.48629 0.0
C1182 C 0.65086 0.6666 0.46517 0.0
C1183 C 0.64427 0.64424 0.45349 0.0
C1184 C 0.64903 0.62006 0.46223 0.0
C1185 C 0.63896 0.59915 0.4462 0.0
C1186 C 0.68135 0.58212 0.44263 0.0
C1187 C 0.59689 0.58294 0.45278 0.0
C1188 C 0.62871 0.61546 0.42701 0.0
C1189 C 0.63262 0.64136 0.43154 0.0
C1190 C 0.62894 0.66008 0.41603 0.0
C1191 C 0.62077 0.65215 0.39531 0.0
C1192 C 0.61477 0.62563 0.39016 0.0
C1193 C 0.61849 0.6072 0.40659 0.0
H1194 H 0.28914 0.60549 0.03801 0.0
H1195 H 0.37386 0.66555 0.01023 0.0
H1196 H 0.40054 0.67861 0.04564 0.0
H1197 H 0.25137 0.64304 0.08116 0.0
H1198 H 0.25068 0.61674 0.09968 0.0
H1199 H 0.24225 0.61047 0.07211 0.0
H1200 H 0.31006 0.5784 0.07268 0.0
H1201 H 0.31904 0.58477 0.10026 0.0
H1202 H 0.36567 0.58907 0.08186 0.0
H1203 H 0.41581 0.68617 0.08376 0.0
H1204 H 0.41147 0.69129 0.12243 0.0
H1205 H 0.31399 0.62793 0.12587 0.0
C1206 C 0.31374 0.62117 0.03948 0.0
C1207 C 0.32987 0.63446 0.02153 0.0
C1208 C 0.36126 0.65521 0.0239 0.0
C1209 C 0.37681 0.66259 0.04388 0.0
C1210 C 0.36032 0.64914 0.06133 0.0
C1211 C 0.32901 0.62909 0.05939 0.0
C1212 C 0.31359 0.61939 0.08078 0.0
C1213 C 0.26139 0.62262 0.08359 0.0
C1214 C 0.32796 0.59124 0.08408 0.0
C1215 C 0.34048 0.63745 0.09504 0.0
C1216 C 0.36798 0.65406 0.08347 0.0
C1217 C 0.39476 0.67314 0.09301 0.0
C1218 C 0.39231 0.67585 0.11492 0.0
C1219 C 0.36306 0.65973 0.12693 0.0
C1220 C 0.33739 0.64004 0.11695 0.0
H1221 H 0.17071 0.82608 0.52476 0.0
H1222 H 0.20284 0.90795 0.52586 0.0
H1223 H 0.18857 0.9089 0.56403 0.0
H1224 H 0.08112 0.82731 0.56477 0.0
H1225 H 0.09806 0.79705 0.5762 0.0
H1226 H 0.10765 0.80304 0.54862 0.0
H1227 H 0.19436 0.79339 0.55326 0.0
H1228 H 0.18504 0.78719 0.58079 0.0
H1229 H 0.22702 0.81094 0.57272 0.0
H1230 H 0.17387 0.90067 0.60256 0.0
H1231 H 0.16469 0.88313 0.63852 0.0
H1232 H 0.14329 0.80671 0.6124 0.0
C1233 C 0.17486 0.84421 0.533 0.0
C1234 C 0.18745 0.86698 0.52215 0.0
C1235 C 0.19223 0.89032 0.53364 0.0
C1236 C 0.18437 0.89107 0.55539 0.0
C1237 C 0.17182 0.86832 0.56556 0.0
C1238 C 0.16729 0.84531 0.55476 0.0
C1239 C 0.15543 0.82339 0.56957 0.0
C1240 C 0.10773 0.81203 0.56448 0.0
C1241 C 0.19269 0.8025 0.56905 0.0
C1242 C 0.15515 0.83755 0.59042 0.0
C1243 C 0.16403 0.86352 0.58776 0.0
C1244 C 0.16666 0.88037 0.60483 0.0
C1245 C 0.16114 0.87026 0.62519 0.0
C1246 C 0.15352 0.84353 0.62831 0.0
C1247 C 0.14957 0.82718 0.61057 0.0
H1248 H 0.20998 0.28018 0.34264 0.0
H1249 H 0.10074 0.28645 0.38879 0.0
H1250 H 0.05287 0.25623 0.36805 0.0
H1251 H 0.13772 0.27554 0.29661 0.0
H1252 H 0.1729 0.25202 0.28352 0.0
H1253 H 0.19868 0.27458 0.30163 0.0
H1254 H 0.23226 0.23671 0.32308 0.0
H1255 H 0.2065 0.21404 0.30506 0.0
H1256 H 0.19429 0.21178 0.33279 0.0
H1257 H 0.01501 0.22802 0.34143 0.0
H1258 H 0.99205 0.19948 0.31226 0.0
H1259 H 0.12807 0.20721 0.28504 0.0
C1260 C 0.17597 0.2751 0.34831 0.0
C1261 C 0.15886 0.2856 0.36728 0.0
C1262 C 0.11444 0.27846 0.37436 0.0
C1263 C 0.08699 0.26143 0.36266 0.0
C1264 C 0.10472 0.25142 0.34404 0.0
C1265 C 0.14838 0.25765 0.33699 0.0
C1266 C 0.15933 0.24347 0.3167 0.0
C1267 C 0.16765 0.26254 0.29854 0.0
C1268 C 0.20054 0.22543 0.31959 0.0
C1269 C 0.115 0.22836 0.31353 0.0
C1270 C 0.08376 0.23366 0.3293 0.0
C1271 C 0.03941 0.2234 0.32917 0.0
C1272 C 0.02665 0.20722 0.31251 0.0
C1273 C 0.05838 0.20084 0.29649 0.0
C1274 C 0.10326 0.21144 0.29714 0.0
H1275 H 0.31207 0.24723 0.85984 0.0
H1276 H 0.40904 0.18442 0.85469 0.0
H1277 H 0.45538 0.20985 0.82957 0.0
H1278 H 0.31605 0.26591 0.80489 0.0
H1279 H 0.3123 0.29996 0.81013 0.0
H1280 H 0.28684 0.27716 0.82814 0.0
H1281 H 0.33458 0.29715 0.85864 0.0
H1282 H 0.35995 0.31987 0.84053 0.0
H1283 H 0.39624 0.29941 0.85617 0.0
H1284 H 0.49182 0.2414 0.80597 0.0
H1285 H 0.51748 0.27803 0.78443 0.0
H1286 H 0.39569 0.32068 0.80236 0.0
C1287 C 0.34334 0.23907 0.85353 0.0
C1288 C 0.35726 0.21393 0.8592 0.0
C1289 C 0.39794 0.20363 0.85049 0.0
C1290 C 0.42439 0.2179 0.83621 0.0
C1291 C 0.4095 0.24239 0.83065 0.0
C1292 C 0.37001 0.25301 0.83893 0.0
C1293 C 0.36196 0.27975 0.82989 0.0
C1294 C 0.31658 0.28073 0.81753 0.0
C1295 C 0.36327 0.30026 0.84735 0.0
C1296 C 0.40313 0.28237 0.81532 0.0
C1297 C 0.43005 0.26056 0.81619 0.0
C1298 C 0.4709 0.25851 0.80499 0.0
C1299 C 0.48512 0.27945 0.79275 0.0
C1300 C 0.4584 0.30211 0.79156 0.0
C1301 C 0.41643 0.30344 0.80275 0.0
H1302 H 0.68577 0.25359 0.64739 0.0
H1303 H 0.6277 0.18337 0.67403 0.0
H1304 H 0.58802 0.2088 0.70092 0.0
H1305 H 0.70268 0.2875 0.69541 0.0
H1306 H 0.68515 0.31843 0.68549 0.0
H1307 H 0.70979 0.29506 0.66791 0.0
H1308 H 0.63787 0.2975 0.64389 0.0
H1309 H 0.61334 0.32114 0.66127 0.0
H1310 H 0.58164 0.29213 0.6551 0.0
H1311 H 0.56093 0.24062 0.72684 0.0
H1312 H 0.53638 0.2786 0.74721 0.0
H1313 H 0.60298 0.32909 0.70202 0.0
C1314 C 0.66411 0.24361 0.65865 0.0
C1315 C 0.6609 0.21637 0.65887 0.0
C1316 C 0.6321 0.20411 0.67392 0.0
C1317 C 0.6091 0.21838 0.68922 0.0
C1318 C 0.61424 0.24501 0.68901 0.0
C1319 C 0.64004 0.25765 0.6739 0.0
C1320 C 0.63865 0.28662 0.67718 0.0
C1321 C 0.68694 0.29753 0.68176 0.0
C1322 C 0.61655 0.30014 0.65823 0.0
C1323 C 0.60817 0.28809 0.69649 0.0
C1324 C 0.59537 0.26376 0.70324 0.0
C1325 C 0.56996 0.25982 0.72153 0.0
C1326 C 0.5565 0.2814 0.73305 0.0
C1327 C 0.56733 0.30651 0.72589 0.0
C1328 C 0.59359 0.30997 0.70745 0.0
H1329 H 0.8203 0.28824 0.17938 0.0
H1330 H 0.88126 0.2653 0.11981 0.0
H1331 H 0.92479 0.23166 0.13802 0.0
H1332 H 0.92494 0.28081 0.20953 0.0
H1333 H 0.89562 0.2693 0.23273 0.0
H1334 H 0.86694 0.29091 0.21495 0.0
H1335 H 0.79986 0.25799 0.21096 0.0
H1336 H 0.82857 0.23653 0.22883 0.0
H1337 H 0.81224 0.22542 0.20301 0.0
H1338 H 0.96049 0.20027 0.16192 0.0
H1339 H 0.99112 0.1742 0.19067 0.0
H1340 H 0.91449 0.21997 0.23582 0.0
C1341 C 0.84307 0.27637 0.17011 0.0
C1342 C 0.84657 0.27933 0.14798 0.0
C1343 C 0.87666 0.26307 0.13661 0.0
C1344 C 0.90195 0.24399 0.14684 0.0
C1345 C 0.89746 0.24158 0.16853 0.0
C1346 C 0.86929 0.25745 0.18013 0.0
C1347 C 0.87232 0.25124 0.20344 0.0
C1348 C 0.89109 0.27445 0.21589 0.0
C1349 C 0.82545 0.24225 0.21205 0.0
C1350 C 0.90652 0.22932 0.20302 0.0
C1351 C 0.92003 0.224 0.18265 0.0
C1352 C 0.95043 0.20431 0.17797 0.0
C1353 C 0.96766 0.1896 0.19453 0.0
C1354 C 0.95504 0.19476 0.21569 0.0
C1355 C 0.92423 0.2151 0.21992 0.0
H1356 H 0.88491 0.73455 0.64215 0.0
H1357 H 0.79242 0.70041 0.68825 0.0
H1358 H 0.8184 0.73165 0.71463 0.0
H1359 H 0.97657 0.74868 0.67581 0.0
H1360 H 0.99115 0.78 0.66541 0.0
H1361 H 0.96385 0.75632 0.64877 0.0
H1362 H 0.89818 0.78812 0.64038 0.0
H1363 H 0.92573 0.8121 0.6567 0.0
H1364 H 0.86687 0.80281 0.66167 0.0
H1365 H 0.86704 0.75727 0.73755 0.0
H1366 H 0.91822 0.78806 0.75472 0.0
H1367 H 0.96694 0.81527 0.69431 0.0
C1368 C 0.86935 0.73423 0.65763 0.0
C1369 C 0.83765 0.71458 0.66339 0.0
C1370 C 0.81776 0.7148 0.68373 0.0
C1371 C 0.83218 0.73247 0.69883 0.0
C1372 C 0.86538 0.75051 0.69318 0.0
C1373 C 0.88251 0.75246 0.67297 0.0
C1374 C 0.91769 0.77434 0.67164 0.0
C1375 C 0.96512 0.76422 0.66501 0.0
C1376 C 0.90111 0.79561 0.65671 0.0
C1377 C 0.91822 0.78354 0.69438 0.0
C1378 C 0.88854 0.76884 0.70643 0.0
C1379 C 0.88791 0.77028 0.72819 0.0
C1380 C 0.91653 0.78828 0.7379 0.0
C1381 C 0.943 0.806 0.72605 0.0
C1382 C 0.94504 0.80302 0.70387 0.0
H1383 H 0.6838 0.78645 0.17564 0.0
H1384 H 0.59457 0.77933 0.12113 0.0
H1385 H 0.5482 0.74657 0.13985 0.0
H1386 H 0.68232 0.72055 0.18928 0.0
H1387 H 0.68139 0.72544 0.21725 0.0
H1388 H 0.70812 0.74914 0.20048 0.0
H1389 H 0.65636 0.78512 0.215 0.0
H1390 H 0.63042 0.76225 0.23278 0.0
H1391 H 0.59481 0.78066 0.21522 0.0
H1392 H 0.51323 0.71325 0.16413 0.0
H1393 H 0.49118 0.68305 0.19252 0.0
H1394 H 0.5995 0.71452 0.2318 0.0
C1395 C 0.65409 0.77839 0.16769 0.0
C1396 C 0.64305 0.78555 0.14682 0.0
C1397 C 0.60437 0.77393 0.13694 0.0
C1398 C 0.57752 0.75544 0.14752 0.0
C1399 C 0.58944 0.7489 0.16804 0.0
C1400 C 0.62663 0.76015 0.17807 0.0
C1401 C 0.63271 0.74938 0.20001 0.0
C1402 C 0.67889 0.73531 0.20185 0.0
C1403 C 0.62829 0.77063 0.21674 0.0
C1404 C 0.59263 0.73062 0.20093 0.0
C1405 C 0.56846 0.73036 0.18223 0.0
C1406 C 0.53162 0.71351 0.17892 0.0
C1407 C 0.51938 0.69642 0.19513 0.0
C1408 C 0.54341 0.69656 0.21452 0.0
C1409 C 0.5801 0.71414 0.21742 0.0
H1410 H 0.37431 0.77942 0.36511 0.0
H1411 H 0.27379 0.80798 0.32053 0.0
H1412 H 0.29873 0.77592 0.29457 0.0
H1413 H 0.46309 0.76718 0.32831 0.0
H1414 H 0.48241 0.73757 0.34007 0.0
H1415 H 0.45554 0.76177 0.35613 0.0
H1416 H 0.39497 0.72839 0.36884 0.0
H1417 H 0.42201 0.70401 0.35299 0.0
H1418 H 0.36168 0.71063 0.34972 0.0
H1419 H 0.33823 0.74421 0.27224 0.0
H1420 H 0.38526 0.71067 0.25569 0.0
H1421 H 0.45819 0.69977 0.31468 0.0
C1422 C 0.35708 0.77852 0.35003 0.0
C1423 C 0.32252 0.79647 0.34473 0.0
C1424 C 0.3009 0.79476 0.32479 0.0
C1425 C 0.3147 0.77656 0.30994 0.0
C1426 C 0.34982 0.75979 0.31528 0.0
C1427 C 0.37033 0.76018 0.3349 0.0
C1428 C 0.40772 0.73991 0.3362 0.0
C1429 C 0.45498 0.75237 0.34043 0.0
C1430 C 0.39587 0.71953 0.35293 0.0
C1431 C 0.40528 0.72859 0.31416 0.0
C1432 C 0.37172 0.7405 0.30241 0.0
C1433 C 0.36414 0.73438 0.28136 0.0
C1434 C 0.39118 0.71528 0.27208 0.0
C1435 C 0.42514 0.70221 0.28387 0.0
C1436 C 0.43222 0.70912 0.30523 0.0
H1437 H 0.11741 0.73809 0.87462 0.0
H1438 H 0.22511 0.70963 0.83347 0.0
H1439 H 0.19964 0.73883 0.80561 0.0
H1440 H 0.03115 0.74664 0.83507 0.0
H1441 H 0.00923 0.77646 0.84541 0.0
H1442 H 0.03519 0.75337 0.86283 0.0
H1443 H 0.09271 0.78816 0.87594 0.0
H1444 H 0.06663 0.81143 0.8587 0.0
H1445 H 0.12753 0.80549 0.85711 0.0
H1446 H 0.16037 0.76764 0.78134 0.0
H1447 H 0.11481 0.79958 0.76255 0.0
H1448 H 0.03576 0.8142 0.81939 0.0
C1449 C 0.13588 0.73826 0.85983 0.0
C1450 C 0.1726 0.721 0.8561 0.0
C1451 C 0.19597 0.72195 0.83653 0.0
C1452 C 0.18198 0.73862 0.8206 0.0
C1453 C 0.14504 0.75474 0.82449 0.0
C1454 C 0.12266 0.75518 0.84365 0.0
C1455 C 0.08435 0.77502 0.84342 0.0
C1456 C 0.03719 0.76209 0.84689 0.0
C1457 C 0.09336 0.79629 0.85977 0.0
C1458 C 0.08884 0.78535 0.82112 0.0
C1459 C 0.12381 0.77301 0.81055 0.0
C1460 C 0.13349 0.77789 0.78953 0.0
C1461 C 0.10727 0.79623 0.77901 0.0
C1462 C 0.07222 0.81008 0.78954 0.0
C1463 C 0.06275 0.80435 0.81093 0.0
loop_
_geom_bond_atom_site_label_1
_geom_bond_atom_site_label_2
_geom_bond_distance
_geom_bond_site_symmetry_2
_ccdc_geom_bond_type
C0 C1 1.391 . S
C0 C4 1.391 . S
C0 H42 0.948 . S
C1 C0 1.391 . S
C1 C2 1.391 . S
C2 C1 1.391 . S
C2 H58 0.947 . S
C2 C59 1.392 . S
C3 C4 1.391 . S
C3 C7 1.397 . S
C3 C59 1.419 . S
C4 C0 1.391 . S
C4 C3 1.391 . S
C4 C5 1.399 . S
C5 C4 1.399 . S
C5 C8 1.396 . S
C5 C17 1.453 . S
C5 C18 1.684 . S
H6 C30 0.948 . S
C7 C3 1.397 . S
C7 C8 1.394 . S
C7 C26 1.723 . S
C8 C5 1.396 . S
C8 C7 1.394 . S
C8 C38 1.723 . S
H9 C32 0.947 . S
H10 C33 0.948 . S
H11 C39 0.982 . S
H12 C40 0.979 . S
H13 C40 0.980 . S
H14 C40 0.983 . S
H15 C39 0.979 . S
H16 C39 0.977 . S
C17 C5 1.453 . S
C17 H46 0.982 . S
C17 H47 0.979 . S
C17 H48 0.977 . S
C18 C5 1.684 . S
C18 H43 0.979 . S
C18 H44 0.980 . S
C18 H45 0.983 . S
C19 C20 1.391 . S
C19 C24 1.391 . S
C19 H49 0.948 . S
C20 C19 1.391 . S
C20 C21 1.391 . S
C21 C20 1.391 . S
C21 C22 1.392 . S
C21 H50 0.947 . S
C22 C21 1.392 . S
C22 C23 1.419 . S
C22 H51 0.948 . S
C23 C22 1.419 . S
C23 C24 1.391 . S
C23 C27 1.397 . S
C24 C19 1.391 . S
C24 C23 1.391 . S
C24 C25 1.399 . S
C25 C24 1.399 . S
C25 C26 1.396 . S
C25 C28 1.453 . S
C25 C29 1.684 . S
C26 C7 1.723 . S
C26 C25 1.396 . S
C26 C27 1.394 . S
C27 C23 1.397 . S
C27 C26 1.394 . S
C27 C37 1.723 . S
C28 C25 1.453 . S
C28 H52 0.982 . S
C28 H53 0.979 . S
C28 H54 0.977 . S
C29 C25 1.684 . S
C29 H55 0.979 . S
C29 H56 0.980 . S
C29 H57 0.983 . S
C30 H6 0.948 . S
C30 C31 1.391 . S
C30 C35 1.391 . S
C31 C30 1.391 . S
C31 C32 1.391 . S
C32 H9 0.947 . S
C32 C31 1.391 . S
C32 C33 1.392 . S
C33 H10 0.948 . S
C33 C32 1.392 . S
C33 C34 1.419 . S
C34 C33 1.419 . S
C34 C35 1.391 . S
C34 C38 1.397 . S
C35 C30 1.391 . S
C35 C34 1.391 . S
C35 C36 1.399 . S
C36 C35 1.399 . S
C36 C37 1.396 . S
C36 C39 1.453 . S
C36 C40 1.684 . S
C37 C27 1.723 . S
C37 C36 1.396 . S
C37 C38 1.394 . S
C38 C8 1.723 . S
C38 C34 1.397 . S
C38 C37 1.394 . S
C39 H11 0.982 . S
C39 H15 0.979 . S
C39 H16 0.977 . S
C39 C36 1.453 . S
C40 H12 0.979 . S
C40 H13 0.980 . S
C40 H14 0.983 . S
C40 C36 1.684 . S
H41 C59 0.948 . S
H42 C0 0.948 . S
H43 C18 0.979 . S
H44 C18 0.980 . S
H45 C18 0.983 . S
H46 C17 0.982 . S
H47 C17 0.979 . S
H48 C17 0.977 . S
H49 C19 0.948 . S
H50 C21 0.947 . S
H51 C22 0.948 . S
H52 C28 0.982 . S
H53 C28 0.979 . S
H54 C28 0.977 . S
H55 C29 0.979 . S
H56 C29 0.980 . S
H57 C29 0.983 . S
H58 C2 0.947 . S
C59 C2 1.392 . S
C59 C3 1.419 . S
C59 H41 0.948 . S
C60 C61 1.391 . S
C60 C64 1.391 . S
C60 H102 0.948 . S
C61 C60 1.391 . S
C61 C62 1.391 . S
C62 C61 1.391 . S
C62 H118 0.947 . S
C62 C119 1.392 . S
C63 C64 1.391 . S
C63 C67 1.397 . S
C63 C119 1.419 . S
C64 C60 1.391 . S
C64 C63 1.391 . S
C64 C65 1.399 . S
C65 C64 1.399 . S
C65 C68 1.396 . S
C65 C77 1.453 . S
C65 C78 1.684 . S
H66 C90 0.948 . S
C67 C63 1.397 . S
C67 C68 1.394 . S
C67 C86 1.723 . S
C68 C65 1.396 . S
C68 C67 1.394 . S
C68 C98 1.723 . S
H69 C92 0.947 . S
H70 C93 0.948 . S
H71 C99 0.982 . S
H72 C100 0.979 . S
H73 C100 0.980 . S
H74 C100 0.983 . S
H75 C99 0.979 . S
H76 C99 0.977 . S
C77 C65 1.453 . S
C77 H106 0.982 . S
C77 H107 0.979 . S
C77 H108 0.977 . S
C78 C65 1.684 . S
C78 H103 0.979 . S
C78 H104 0.980 . S
C78 H105 0.983 . S
C79 C80 1.391 . S
C79 C84 1.391 . S
C79 H109 0.948 . S
C80 C79 1.391 . S
C80 C81 1.391 . S
C81 C80 1.391 . S
C81 C82 1.392 . S
C81 H110 0.947 . S
C82 C81 1.392 . S
C82 C83 1.419 . S
C82 H111 0.948 . S
C83 C82 1.419 . S
C83 C84 1.391 . S
C83 C87 1.397 . S
C84 C79 1.391 . S
C84 C83 1.391 . S
C84 C85 1.399 . S
C85 C84 1.399 . S
C85 C86 1.396 . S
C85 C88 1.453 . S
C85 C89 1.684 . S
C86 C67 1.723 . S
C86 C85 1.396 . S
C86 C87 1.394 . S
C87 C83 1.397 . S
C87 C86 1.394 . S
C87 C97 1.723 . S
C88 C85 1.453 . S
C88 H112 0.982 . S
C88 H113 0.979 . S
C88 H114 0.977 . S
C89 C85 1.684 . S
C89 H115 0.979 . S
C89 H116 0.980 . S
C89 H117 0.983 . S
C90 H66 0.948 . S
C90 C91 1.391 . S
C90 C95 1.391 . S
C91 C90 1.391 . S
C91 C92 1.391 . S
C92 H69 0.947 . S
C92 C91 1.391 . S
C92 C93 1.392 . S
C93 H70 0.948 . S
C93 C92 1.392 . S
C93 C94 1.419 . S
C94 C93 1.419 . S
C94 C95 1.391 . S
C94 C98 1.397 . S
C95 C90 1.391 . S
C95 C94 1.391 . S
C95 C96 1.399 . S
C96 C95 1.399 . S
C96 C97 1.396 . S
C96 C99 1.453 . S
C96 C100 1.684 . S
C97 C87 1.723 . S
C97 C96 1.396 . S
C97 C98 1.394 . S
C98 C68 1.723 . S
C98 C94 1.397 . S
C98 C97 1.394 . S
C99 H71 0.982 . S
C99 H75 0.979 . S
C99 H76 0.977 . S
C99 C96 1.453 . S
C100 H72 0.979 . S
C100 H73 0.980 . S
C100 H74 0.983 . S
C100 C96 1.684 . S
H101 C119 0.948 . S
H102 C60 0.948 . S
H103 C78 0.979 . S
H104 C78 0.980 . S
H105 C78 0.983 . S
H106 C77 0.982 . S
H107 C77 0.979 . S
H108 C77 0.977 . S
H109 C79 0.948 . S
H110 C81 0.947 . S
H111 C82 0.948 . S
H112 C88 0.982 . S
H113 C88 0.979 . S
H114 C88 0.977 . S
H115 C89 0.979 . S
H116 C89 0.980 . S
H117 C89 0.983 . S
H118 C62 0.947 . S
C119 C62 1.392 . S
C119 C63 1.419 . S
C119 H101 0.948 . S
C120 C121 1.391 . S
C120 C124 1.391 . S
C120 H162 0.948 . S
C121 C120 1.391 . S
C121 C122 1.391 . S
C122 C121 1.391 . S
C122 H178 0.947 . S
C122 C179 1.392 . S
C123 C124 1.391 . S
C123 C127 1.397 . S
C123 C179 1.419 . S
C124 C120 1.391 . S
C124 C123 1.391 . S
C124 C125 1.399 . S
C125 C124 1.399 . S
C125 C128 1.396 . S
C125 C137 1.453 . S
C125 C138 1.684 . S
H126 C150 0.948 . S
C127 C123 1.397 . S
C127 C128 1.394 . S
C127 C146 1.723 . S
C128 C125 1.396 . S
C128 C127 1.394 . S
C128 C158 1.723 . S
H129 C152 0.947 . S
H130 C153 0.948 . S
H131 C159 0.982 . S
H132 C160 0.979 . S
H133 C160 0.980 . S
H134 C160 0.983 . S
H135 C159 0.979 . S
H136 C159 0.977 . S
C137 C125 1.453 . S
C137 H166 0.982 . S
C137 H167 0.979 . S
C137 H168 0.977 . S
C138 C125 1.684 . S
C138 H163 0.979 . S
C138 H164 0.980 . S
C138 H165 0.983 . S
C139 C140 1.391 . S
C139 C144 1.391 . S
C139 H169 0.948 . S
C140 C139 1.391 . S
C140 C141 1.391 . S
C141 C140 1.391 . S
C141 C142 1.392 . S
C141 H170 0.947 . S
C142 C141 1.392 . S
C142 C143 1.419 . S
C142 H171 0.948 . S
C143 C142 1.419 . S
C143 C144 1.391 . S
C143 C147 1.397 . S
C144 C139 1.391 . S
C144 C143 1.391 . S
C144 C145 1.399 . S
C145 C144 1.399 . S
C145 C146 1.396 . S
C145 C148 1.453 . S
C145 C149 1.684 . S
C146 C127 1.723 . S
C146 C145 1.396 . S
C146 C147 1.394 . S
C147 C143 1.397 . S
C147 C146 1.394 . S
C147 C157 1.723 . S
C148 C145 1.453 . S
C148 H172 0.982 . S
C148 H173 0.979 . S
C148 H174 0.977 . S
C149 C145 1.684 . S
C149 H175 0.979 . S
C149 H176 0.980 . S
C149 H177 0.983 . S
C150 H126 0.948 . S
C150 C151 1.391 . S
C150 C155 1.391 . S
C151 C150 1.391 . S
C151 C152 1.391 . S
C152 H129 0.947 . S
C152 C151 1.391 . S
C152 C153 1.392 . S
C153 H130 0.948 . S
C153 C152 1.392 . S
C153 C154 1.419 . S
C154 C153 1.419 . S
C154 C155 1.391 . S
C154 C158 1.397 . S
C155 C150 1.391 . S
C155 C154 1.391 . S
C155 C156 1.399 . S
C156 C155 1.399 . S
C156 C157 1.396 . S
C156 C159 1.453 . S
C156 C160 1.684 . S
C157 C147 1.723 . S
C157 C156 1.396 . S
C157 C158 1.394 . S
C158 C128 1.723 . S
C158 C154 1.397 . S
C158 C157 1.394 . S
C159 H131 0.982 . S
C159 H135 0.979 . S
C159 H136 0.977 . S
C159 C156 1.453 . S
C160 H132 0.979 . S
C160 H133 0.980 . S
C160 H134 0.983 . S
C160 C156 1.684 . S
H161 C179 0.948 . S
H162 C120 0.948 . S
H163 C138 0.979 . S
H164 C138 0.980 . S
H165 C138 0.983 . S
H166 C137 0.982 . S
H167 C137 0.979 . S
H168 C137 0.977 . S
H169 C139 0.948 . S
H170 C141 0.947 . S
H171 C142 0.948 . S
H172 C148 0.982 . S
H173 C148 0.979 . S
H174 C148 0.977 . S
H175 C149 0.979 . S
H176 C149 0.980 . S
H177 C149 0.983 . S
H178 C122 0.947 . S
C179 C122 1.392 . S
C179 C123 1.419 . S
C179 H161 0.948 . S
C180 C181 1.391 . S
C180 C184 1.391 . S
C180 H222 0.948 . S
C181 C180 1.391 . S
C181 C182 1.391 . S
C182 C181 1.391 . S
C182 H238 0.947 . S
C182 C239 1.392 . S
C183 C184 1.391 . S
C183 C187 1.397 . S
C183 C239 1.419 . S
C184 C180 1.391 . S
C184 C183 1.391 . S
C184 C185 1.399 . S
C185 C184 1.399 . S
C185 C188 1.396 . S
C185 C197 1.453 . S
C185 C198 1.684 . S
H186 C210 0.948 . S
C187 C183 1.397 . S
C187 C188 1.394 . S
C187 C206 1.723 . S
C188 C185 1.396 . S
C188 C187 1.394 . S
C188 C218 1.723 . S
H189 C212 0.947 . S
H190 C213 0.948 . S
H191 C219 0.982 . S
H192 C220 0.979 . S
H193 C220 0.980 . S
H194 C220 0.983 . S
H195 C219 0.979 . S
H196 C219 0.977 . S
C197 C185 1.453 . S
C197 H226 0.982 . S
C197 H227 0.979 . S
C197 H228 0.977 . S
C198 C185 1.684 . S
C198 H223 0.979 . S
C198 H224 0.980 . S
C198 H225 0.983 . S
C199 C200 1.391 . S
C199 C204 1.391 . S
C199 H229 0.948 . S
C200 C199 1.391 . S
C200 C201 1.391 . S
C201 C200 1.391 . S
C201 C202 1.392 . S
C201 H230 0.947 . S
C202 C201 1.392 . S
C202 C203 1.419 . S
C202 H231 0.948 . S
C203 C202 1.419 . S
C203 C204 1.391 . S
C203 C207 1.397 . S
C204 C199 1.391 . S
C204 C203 1.391 . S
C204 C205 1.399 . S
C205 C204 1.399 . S
C205 C206 1.396 . S
C205 C208 1.453 . S
C205 C209 1.684 . S
C206 C187 1.723 . S
C206 C205 1.396 . S
C206 C207 1.394 . S
C207 C203 1.397 . S
C207 C206 1.394 . S
C207 C217 1.723 . S
C208 C205 1.453 . S
C208 H232 0.982 . S
C208 H233 0.979 . S
C208 H234 0.977 . S
C209 C205 1.684 . S
C209 H235 0.979 . S
C209 H236 0.980 . S
C209 H237 0.983 . S
C210 H186 0.948 . S
C210 C211 1.391 . S
C210 C215 1.391 . S
C211 C210 1.391 . S
C211 C212 1.391 . S
C212 H189 0.947 . S
C212 C211 1.391 . S
C212 C213 1.392 . S
C213 H190 0.948 . S
C213 C212 1.392 . S
C213 C214 1.419 . S
C214 C213 1.419 . S
C214 C215 1.391 . S
C214 C218 1.397 . S
C215 C210 1.391 . S
C215 C214 1.391 . S
C215 C216 1.399 . S
C216 C215 1.399 . S
C216 C217 1.396 . S
C216 C219 1.453 . S
C216 C220 1.684 . S
C217 C207 1.723 . S
C217 C216 1.396 . S
C217 C218 1.394 . S
C218 C188 1.723 . S
C218 C214 1.397 . S
C218 C217 1.394 . S
C219 H191 0.982 . S
C219 H195 0.979 . S
C219 H196 0.977 . S
C219 C216 1.453 . S
C220 H192 0.979 . S
C220 H193 0.980 . S
C220 H194 0.983 . S
C220 C216 1.684 . S
H221 C239 0.948 . S
H222 C180 0.948 . S
H223 C198 0.979 . S
H224 C198 0.980 . S
H225 C198 0.983 . S
H226 C197 0.982 . S
H227 C197 0.979 . S
H228 C197 0.977 . S
H229 C199 0.948 . S
H230 C201 0.947 . S
H231 C202 0.948 . S
H232 C208 0.982 . S
H233 C208 0.979 . S
H234 C208 0.977 . S
H235 C209 0.979 . S
H236 C209 0.980 . S
H237 C209 0.983 . S
H238 C182 0.947 . S
C239 C182 1.392 . S
C239 C183 1.419 . S
C239 H221 0.948 . S
C240 C241 1.391 . S
C240 C244 1.391 . S
C240 H282 0.948 . S
C241 C240 1.391 . S
C241 C242 1.391 . S
C242 C241 1.391 . S
C242 H298 0.947 . S
C242 C299 1.392 . S
C243 C244 1.391 . S
C243 C247 1.397 . S
C243 C299 1.419 . S
C244 C240 1.391 . S
C244 C243 1.391 . S
C244 C245 1.399 . S
C245 C244 1.399 . S
C245 C248 1.396 . S
C245 C257 1.453 . S
C245 C258 1.684 . S
H246 C270 0.948 . S
C247 C243 1.397 . S
C247 C248 1.394 . S
C247 C266 1.723 . S
C248 C245 1.396 . S
C248 C247 1.394 . S
C248 C278 1.723 . S
H249 C272 0.947 . S
H250 C273 0.948 . S
H251 C279 0.982 . S
H252 C280 0.979 . S
H253 C280 0.980 . S
H254 C280 0.983 . S
H255 C279 0.979 . S
H256 C279 0.977 . S
C257 C245 1.453 . S
C257 H286 0.982 . S
C257 H287 0.979 . S
C257 H288 0.977 . S
C258 C245 1.684 . S
C258 H283 0.979 . S
C258 H284 0.980 . S
C258 H285 0.983 . S
C259 C260 1.391 . S
C259 C264 1.391 . S
C259 H289 0.948 . S
C260 C259 1.391 . S
C260 C261 1.391 . S
C261 C260 1.391 . S
C261 C262 1.392 . S
C261 H290 0.947 . S
C262 C261 1.392 . S
C262 C263 1.419 . S
C262 H291 0.948 . S
C263 C262 1.419 . S
C263 C264 1.391 . S
C263 C267 1.397 . S
C264 C259 1.391 . S
C264 C263 1.391 . S
C264 C265 1.399 . S
C265 C264 1.399 . S
C265 C266 1.396 . S
C265 C268 1.453 . S
C265 C269 1.684 . S
C266 C247 1.723 . S
C266 C265 1.396 . S
C266 C267 1.394 . S
C267 C263 1.397 . S
C267 C266 1.394 . S
C267 C277 1.723 . S
C268 C265 1.453 . S
C268 H292 0.982 . S
C268 H293 0.979 . S
C268 H294 0.977 . S
C269 C265 1.684 . S
C269 H295 0.979 . S
C269 H296 0.980 . S
C269 H297 0.983 . S
C270 H246 0.948 . S
C270 C271 1.391 . S
C270 C275 1.391 . S
C271 C270 1.391 . S
C271 C272 1.391 . S
C272 H249 0.947 . S
C272 C271 1.391 . S
C272 C273 1.392 . S
C273 H250 0.948 . S
C273 C272 1.392 . S
C273 C274 1.419 . S
C274 C273 1.419 . S
C274 C275 1.391 . S
C274 C278 1.397 . S
C275 C270 1.391 . S
C275 C274 1.391 . S
C275 C276 1.399 . S
C276 C275 1.399 . S
C276 C277 1.396 . S
C276 C279 1.453 . S
C276 C280 1.684 . S
C277 C267 1.723 . S
C277 C276 1.396 . S
C277 C278 1.394 . S
C278 C248 1.723 . S
C278 C274 1.397 . S
C278 C277 1.394 . S
C279 H251 0.982 . S
C279 H255 0.979 . S
C279 H256 0.977 . S
C279 C276 1.453 . S
C280 H252 0.979 . S
C280 H253 0.980 . S
C280 H254 0.983 . S
C280 C276 1.684 . S
H281 C299 0.948 . S
H282 C240 0.948 . S
H283 C258 0.979 . S
H284 C258 0.980 . S
H285 C258 0.983 . S
H286 C257 0.982 . S
H287 C257 0.979 . S
H288 C257 0.977 . S
H289 C259 0.948 . S
H290 C261 0.947 . S
H291 C262 0.948 . S
H292 C268 0.982 . S
H293 C268 0.979 . S
H294 C268 0.977 . S
H295 C269 0.979 . S
H296 C269 0.980 . S
H297 C269 0.983 . S
H298 C242 0.947 . S
C299 C242 1.392 . S
C299 C243 1.419 . S
C299 H281 0.948 . S
C300 C301 1.391 . S
C300 C304 1.391 . S
C300 H342 0.948 . S
C301 C300 1.391 . S
C301 C302 1.391 . S
C302 C301 1.391 . S
C302 H358 0.947 . S
C302 C359 1.392 . S
C303 C304 1.391 . S
C303 C307 1.397 . S
C303 C359 1.419 . S
C304 C300 1.391 . S
C304 C303 1.391 . S
C304 C305 1.399 . S
C305 C304 1.399 . S
C305 C308 1.396 . S
C305 C317 1.453 . S
C305 C318 1.684 . S
H306 C330 0.948 . S
C307 C303 1.397 . S
C307 C308 1.394 . S
C307 C326 1.723 . S
C308 C305 1.396 . S
C308 C307 1.394 . S
C308 C338 1.723 . S
H309 C332 0.947 . S
H310 C333 0.948 . S
H311 C339 0.982 . S
H312 C340 0.979 . S
H313 C340 0.980 . S
H314 C340 0.983 . S
H315 C339 0.979 . S
H316 C339 0.977 . S
C317 C305 1.453 . S
C317 H346 0.982 . S
C317 H347 0.979 . S
C317 H348 0.977 . S
C318 C305 1.684 . S
C318 H343 0.979 . S
C318 H344 0.980 . S
C318 H345 0.983 . S
C319 C320 1.391 . S
C319 C324 1.391 . S
C319 H349 0.948 . S
C320 C319 1.391 . S
C320 C321 1.391 . S
C321 C320 1.391 . S
C321 C322 1.392 . S
C321 H350 0.947 . S
C322 C321 1.392 . S
C322 C323 1.419 . S
C322 H351 0.948 . S
C323 C322 1.419 . S
C323 C324 1.391 . S
C323 C327 1.397 . S
C324 C319 1.391 . S
C324 C323 1.391 . S
C324 C325 1.399 . S
C325 C324 1.399 . S
C325 C326 1.396 . S
C325 C328 1.453 . S
C325 C329 1.684 . S
C326 C307 1.723 . S
C326 C325 1.396 . S
C326 C327 1.394 . S
C327 C323 1.397 . S
C327 C326 1.394 . S
C327 C337 1.723 . S
C328 C325 1.453 . S
C328 H352 0.982 . S
C328 H353 0.979 . S
C328 H354 0.977 . S
C329 C325 1.684 . S
C329 H355 0.979 . S
C329 H356 0.980 . S
C329 H357 0.983 . S
C330 H306 0.948 . S
C330 C331 1.391 . S
C330 C335 1.391 . S
C331 C330 1.391 . S
C331 C332 1.391 . S
C332 H309 0.947 . S
C332 C331 1.391 . S
C332 C333 1.392 . S
C333 H310 0.948 . S
C333 C332 1.392 . S
C333 C334 1.419 . S
C334 C333 1.419 . S
C334 C335 1.391 . S
C334 C338 1.397 . S
C335 C330 1.391 . S
C335 C334 1.391 . S
C335 C336 1.399 . S
C336 C335 1.399 . S
C336 C337 1.396 . S
C336 C339 1.453 . S
C336 C340 1.684 . S
C337 C327 1.723 . S
C337 C336 1.396 . S
C337 C338 1.394 . S
C338 C308 1.723 . S
C338 C334 1.397 . S
C338 C337 1.394 . S
C339 H311 0.982 . S
C339 H315 0.979 . S
C339 H316 0.977 . S
C339 C336 1.453 . S
C340 H312 0.979 . S
C340 H313 0.980 . S
C340 H314 0.983 . S
C340 C336 1.684 . S
H341 C359 0.948 . S
H342 C300 0.948 . S
H343 C318 0.979 . S
H344 C318 0.980 . S
H345 C318 0.983 . S
H346 C317 0.982 . S
H347 C317 0.979 . S
H348 C317 0.977 . S
H349 C319 0.948 . S
H350 C321 0.947 . S
H351 C322 0.948 . S
H352 C328 0.982 . S
H353 C328 0.979 . S
H354 C328 0.977 . S
H355 C329 0.979 . S
H356 C329 0.980 . S
H357 C329 0.983 . S
H358 C302 0.947 . S
C359 C302 1.392 . S
C359 C303 1.419 . S
C359 H341 0.948 . S
C360 C361 1.391 . S
C360 C364 1.391 . S
C360 H402 0.948 . S
C361 C360 1.391 . S
C361 C362 1.391 . S
C362 C361 1.391 . S
C362 H418 0.947 . S
C362 C419 1.392 . S
C363 C364 1.391 . S
C363 C367 1.397 . S
C363 C419 1.419 . S
C364 C360 1.391 . S
C364 C363 1.391 . S
C364 C365 1.399 . S
C365 C364 1.399 . S
C365 C368 1.396 . S
C365 C377 1.453 . S
C365 C378 1.684 . S
H366 C390 0.948 . S
C367 C363 1.397 . S
C367 C368 1.394 . S
C367 C386 1.723 . S
C368 C365 1.396 . S
C368 C367 1.394 . S
C368 C398 1.723 . S
H369 C392 0.947 . S
H370 C393 0.948 . S
H371 C399 0.982 . S
H372 C400 0.979 . S
H373 C400 0.980 . S
H374 C400 0.983 . S
H375 C399 0.979 . S
H376 C399 0.977 . S
C377 C365 1.453 . S
C377 H406 0.982 . S
C377 H407 0.979 . S
C377 H408 0.977 . S
C378 C365 1.684 . S
C378 H403 0.979 . S
C378 H404 0.980 . S
C378 H405 0.983 . S
C379 C380 1.391 . S
C379 C384 1.391 . S
C379 H409 0.948 . S
C380 C379 1.391 . S
C380 C381 1.391 . S
C381 C380 1.391 . S
C381 C382 1.392 . S
C381 H410 0.947 . S
C382 C381 1.392 . S
C382 C383 1.419 . S
C382 H411 0.948 . S
C383 C382 1.419 . S
C383 C384 1.391 . S
C383 C387 1.397 . S
C384 C379 1.391 . S
C384 C383 1.391 . S
C384 C385 1.399 . S
C385 C384 1.399 . S
C385 C386 1.396 . S
C385 C388 1.453 . S
C385 C389 1.684 . S
C386 C367 1.723 . S
C386 C385 1.396 . S
C386 C387 1.394 . S
C387 C383 1.397 . S
C387 C386 1.394 . S
C387 C397 1.723 . S
C388 C385 1.453 . S
C388 H412 0.982 . S
C388 H413 0.979 . S
C388 H414 0.977 . S
C389 C385 1.684 . S
C389 H415 0.979 . S
C389 H416 0.980 . S
C389 H417 0.983 . S
C390 H366 0.948 . S
C390 C391 1.391 . S
C390 C395 1.391 . S
C391 C390 1.391 . S
C391 C392 1.391 . S
C392 H369 0.947 . S
C392 C391 1.391 . S
C392 C393 1.392 . S
C393 H370 0.948 . S
C393 C392 1.392 . S
C393 C394 1.419 . S
C394 C393 1.419 . S
C394 C395 1.391 . S
C394 C398 1.397 . S
C395 C390 1.391 . S
C395 C394 1.391 . S
C395 C396 1.399 . S
C396 C395 1.399 . S
C396 C397 1.396 . S
C396 C399 1.453 . S
C396 C400 1.684 . S
C397 C387 1.723 . S
C397 C396 1.396 . S
C397 C398 1.394 . S
C398 C368 1.723 . S
C398 C394 1.397 . S
C398 C397 1.394 . S
C399 H371 0.982 . S
C399 H375 0.979 . S
C399 H376 0.977 . S
C399 C396 1.453 . S
C400 H372 0.979 . S
C400 H373 0.980 . S
C400 H374 0.983 . S
C400 C396 1.684 . S
H401 C419 0.948 . S
H402 C360 0.948 . S
H403 C378 0.979 . S
H404 C378 0.980 . S
H405 C378 0.983 . S
H406 C377 0.982 . S
H407 C377 0.979 . S
H408 C377 0.977 . S
H409 C379 0.948 . S
H410 C381 0.947 . S
H411 C382 0.948 . S
H412 C388 0.982 . S
H413 C388 0.979 . S
H414 C388 0.977 . S
H415 C389 0.979 . S
H416 C389 0.980 . S
H417 C389 0.983 . S
H418 C362 0.947 . S
C419 C362 1.392 . S
C419 C363 1.419 . S
C419 H401 0.948 . S
C420 C421 1.391 . S
C420 C424 1.391 . S
C420 H462 0.948 . S
C421 C420 1.391 . S
C421 C422 1.391 . S
C422 C421 1.391 . S
C422 H478 0.947 . S
C422 C479 1.392 . S
C423 C424 1.391 . S
C423 C427 1.397 . S
C423 C479 1.419 . S
C424 C420 1.391 . S
C424 C423 1.391 . S
C424 C425 1.399 . S
C425 C424 1.399 . S
C425 C428 1.396 . S
C425 C437 1.453 . S
C425 C438 1.684 . S
H426 C450 0.948 . S
C427 C423 1.397 . S
C427 C428 1.394 . S
C427 C446 1.723 . S
C428 C425 1.396 . S
C428 C427 1.394 . S
C428 C458 1.723 . S
H429 C452 0.947 . S
H430 C453 0.948 . S
H431 C459 0.982 . S
H432 C460 0.979 . S
H433 C460 0.980 . S
H434 C460 0.983 . S
H435 C459 0.979 . S
H436 C459 0.977 . S
C437 C425 1.453 . S
C437 H466 0.982 . S
C437 H467 0.979 . S
C437 H468 0.977 . S
C438 C425 1.684 . S
C438 H463 0.979 . S
C438 H464 0.980 . S
C438 H465 0.983 . S
C439 C440 1.391 . S
C439 C444 1.391 . S
C439 H469 0.948 . S
C440 C439 1.391 . S
C440 C441 1.391 . S
C441 C440 1.391 . S
C441 C442 1.392 . S
C441 H470 0.947 . S
C442 C441 1.392 . S
C442 C443 1.419 . S
C442 H471 0.948 . S
C443 C442 1.419 . S
C443 C444 1.391 . S
C443 C447 1.397 . S
C444 C439 1.391 . S
C444 C443 1.391 . S
C444 C445 1.399 . S
C445 C444 1.399 . S
C445 C446 1.396 . S
C445 C448 1.453 . S
C445 C449 1.684 . S
C446 C427 1.723 . S
C446 C445 1.396 . S
C446 C447 1.394 . S
C447 C443 1.397 . S
C447 C446 1.394 . S
C447 C457 1.723 . S
C448 C445 1.453 . S
C448 H472 0.982 . S
C448 H473 0.979 . S
C448 H474 0.977 . S
C449 C445 1.684 . S
C449 H475 0.979 . S
C449 H476 0.980 . S
C449 H477 0.983 . S
C450 H426 0.948 . S
C450 C451 1.391 . S
C450 C455 1.391 . S
C451 C450 1.391 . S
C451 C452 1.391 . S
C452 H429 0.947 . S
C452 C451 1.391 . S
C452 C453 1.392 . S
C453 H430 0.948 . S
C453 C452 1.392 . S
C453 C454 1.419 . S
C454 C453 1.419 . S
C454 C455 1.391 . S
C454 C458 1.397 . S
C455 C450 1.391 . S
C455 C454 1.391 . S
C455 C456 1.399 . S
C456 C455 1.399 . S
C456 C457 1.396 . S
C456 C459 1.453 . S
C456 C460 1.684 . S
C457 C447 1.723 . S
C457 C456 1.396 . S
C457 C458 1.394 . S
C458 C428 1.723 . S
C458 C454 1.397 . S
C458 C457 1.394 . S
C459 H431 0.982 . S
C459 H435 0.979 . S
C459 H436 0.977 . S
C459 C456 1.453 . S
C460 H432 0.979 . S
C460 H433 0.980 . S
C460 H434 0.983 . S
C460 C456 1.684 . S
H461 C479 0.948 . S
H462 C420 0.948 . S
H463 C438 0.979 . S
H464 C438 0.980 . S
H465 C438 0.983 . S
H466 C437 0.982 . S
H467 C437 0.979 . S
H468 C437 0.977 . S
H469 C439 0.948 . S
H470 C441 0.947 . S
H471 C442 0.948 . S
H472 C448 0.982 . S
H473 C448 0.979 . S
H474 C448 0.977 . S
H475 C449 0.979 . S
H476 C449 0.980 . S
H477 C449 0.983 . S
H478 C422 0.947 . S
C479 C422 1.392 . S
C479 C423 1.419 . S
C479 H461 0.948 . S
C480 C482 1.422 . S
C480 C484 1.415 . S
C480 N486 1.369 . S
C481 C482 1.421 . S
C481 C483 1.417 . S
C481 C493 1.422 . S
C482 C480 1.422 . S
C482 C481 1.421 . S
C482 N492 1.359 . S
C483 C481 1.417 . S
C483 C485 1.329 . S
C483 H502 0.930 . S
C484 C480 1.415 . S
C484 C485 1.437 . S
C484 C488 1.413 . S
C485 C483 1.329 . S
C485 C484 1.437 . S
C485 H507 0.929 . S
N486 C480 1.369 . S
N486 C487 1.338 . S
N486 Gd491 2.622 . S
C487 N486 1.338 . S
C487 C489 1.378 . S
C487 H499 0.929 . S
C488 C484 1.413 . S
C488 C489 1.348 . S
C488 H504 0.931 . S
C489 C487 1.378 . S
C489 C488 1.348 . S
C489 H505 0.930 . S
Gd490 N510 2.622 . S
Gd490 N517 2.570 . S
Gd490 O524 2.353 . S
Gd490 O525 2.468 . S
Gd490 O526 2.427 . S
Gd490 O528 2.388 . S
Gd490 O529 2.386 . S
Gd490 O533 2.313 . S
Gd490 C543 2.805 . S
Gd491 N486 2.622 . S
Gd491 N492 2.570 . S
Gd491 O523 2.386 . S
Gd491 O527 2.307 1_655 S
Gd491 O530 2.341 1_655 S
Gd491 O531 2.468 . S
Gd491 O532 2.427 . S
Gd491 O534 2.388 . S
Gd491 C555 2.805 . S
N492 C482 1.359 . S
N492 Gd491 2.570 . S
N492 C494 1.343 . S
C493 C481 1.422 . S
C493 C495 1.321 . S
C493 H501 0.931 . S
C494 N492 1.343 . S
C494 C495 1.390 . S
C494 H496 0.931 . S
C495 C493 1.321 . S
C495 C494 1.390 . S
C495 H497 0.930 . S
H496 C494 0.931 . S
H497 C495 0.930 . S
H498 C521 0.931 . S
H499 C487 0.929 . S
H500 C522 0.930 . S
H501 C493 0.931 . S
H502 C483 0.930 . S
H503 C512 0.929 . S
H504 C488 0.931 . S
H505 C489 0.930 . S
H506 C544 0.930 . S
H507 C485 0.929 . S
H508 C513 0.931 . S
H509 C514 0.930 . S
N510 Gd490 2.622 . S
N510 C511 1.369 . S
N510 C512 1.338 . S
C511 N510 1.369 . S
C511 C515 1.415 . S
C511 C518 1.422 . S
C512 H503 0.929 . S
C512 N510 1.338 . S
C512 C514 1.378 . S
C513 H508 0.931 . S
C513 C514 1.348 . S
C513 C515 1.413 . S
C514 H509 0.930 . S
C514 C512 1.378 . S
C514 C513 1.348 . S
C515 C511 1.415 . S
C515 C513 1.413 . S
C515 C545 1.437 . S
H516 C545 0.929 . S
N517 Gd490 2.570 . S
N517 C518 1.359 . S
N517 C521 1.343 . S
C518 C511 1.422 . S
C518 N517 1.359 . S
C518 C520 1.421 . S
C519 C520 1.422 . S
C519 C522 1.321 . S
C519 H546 0.931 . S
C520 C518 1.421 . S
C520 C519 1.422 . S
C520 C544 1.417 . S
C521 H498 0.931 . S
C521 N517 1.343 . S
C521 C522 1.390 . S
C522 H500 0.930 . S
C522 C519 1.321 . S
C522 C521 1.390 . S
O523 Gd491 2.386 . S
O523 C535 1.265 . S
O524 Gd490 2.353 . S
O524 C535 1.242 1_455 S
O525 Gd490 2.468 . S
O525 C543 1.263 . S
O526 Gd490 2.427 . S
O526 C543 1.252 . S
O527 Gd491 2.307 1_455 S
O527 C536 1.261 . S
O528 Gd490 2.388 . S
O528 C536 1.252 . S
O529 Gd490 2.386 . S
O529 C547 1.265 . S
O530 Gd491 2.341 1_455 S
O530 C547 1.257 . S
O531 Gd491 2.468 . S
O531 C555 1.263 . S
O532 Gd491 2.427 . S
O532 C555 1.252 . S
O533 Gd490 2.313 . S
O533 C548 1.254 1_455 S
O534 Gd491 2.388 . S
O534 C548 1.252 . S
C535 O523 1.265 . S
C535 O524 1.242 1_655 S
C536 O527 1.261 . S
C536 O528 1.252 . S
C537 C540 1.394 . S
C537 C542 1.370 . S
C537 C543 1.500 . S
C538 C541 1.383 . S
C538 C542 1.395 . S
C539 C540 1.396 . S
C539 C541 1.365 . S
C539 H556 0.929 . S
C540 C537 1.394 . S
C540 C539 1.396 . S
C540 H557 0.930 . S
C541 C538 1.383 . S
C541 C539 1.365 . S
C541 H558 0.931 . S
C542 C537 1.370 . S
C542 C538 1.395 . S
C542 H559 0.930 . S
C543 Gd490 2.805 . S
C543 O525 1.263 . S
C543 O526 1.252 . S
C543 C537 1.500 . S
C544 H506 0.930 . S
C544 C520 1.417 . S
C544 C545 1.329 . S
C545 C515 1.437 . S
C545 H516 0.929 . S
C545 C544 1.329 . S
H546 C519 0.931 . S
C547 O529 1.265 . S
C547 O530 1.257 . S
C548 O533 1.254 1_655 S
C548 O534 1.252 . S
C549 C552 1.394 . S
C549 C554 1.370 . S
C549 C555 1.500 . S
C550 C553 1.383 . S
C550 C554 1.395 . S
C551 C552 1.396 . S
C551 C553 1.365 . S
C551 H560 0.929 . S
C552 C549 1.394 . S
C552 C551 1.396 . S
C552 H561 0.930 . S
C553 C550 1.383 . S
C553 C551 1.365 . S
C553 H562 0.931 . S
C554 C549 1.370 . S
C554 C550 1.395 . S
C554 H563 0.930 . S
C555 Gd491 2.805 . S
C555 O531 1.263 . S
C555 O532 1.252 . S
C555 C549 1.500 . S
H556 C539 0.929 . S
H557 C540 0.930 . S
H558 C541 0.931 . S
H559 C542 0.930 . S
H560 C551 0.929 . S
H561 C552 0.930 . S
H562 C553 0.931 . S
H563 C554 0.930 . S
C564 C566 1.422 . S
C564 C568 1.415 . S
C564 N570 1.369 . S
C565 C566 1.421 . S
C565 C567 1.417 . S
C565 C577 1.422 . S
C566 C564 1.422 . S
C566 C565 1.421 . S
C566 N576 1.359 . S
C567 C565 1.417 . S
C567 C569 1.329 . S
C567 H586 0.930 . S
C568 C564 1.415 . S
C568 C569 1.437 . S
C568 C572 1.413 . S
C569 C567 1.329 . S
C569 C568 1.437 . S
C569 H591 0.929 . S
N570 C564 1.369 . S
N570 C571 1.338 . S
N570 Gd575 2.622 . S
C571 N570 1.338 . S
C571 C573 1.378 . S
C571 H583 0.929 . S
C572 C568 1.413 . S
C572 C573 1.348 . S
C572 H588 0.931 . S
C573 C571 1.378 . S
C573 C572 1.348 . S
C573 H589 0.930 . S
Gd574 N594 2.622 . S
Gd574 N601 2.570 . S
Gd574 O608 2.353 . S
Gd574 O609 2.468 . S
Gd574 O610 2.427 . S
Gd574 O612 2.388 . S
Gd574 O613 2.386 . S
Gd574 O617 2.307 . S
Gd574 C627 2.805 . S
Gd575 N570 2.622 . S
Gd575 N576 2.570 . S
Gd575 O607 2.386 . S
Gd575 O611 2.307 . S
Gd575 O614 2.353 . S
Gd575 O615 2.468 . S
Gd575 O616 2.427 . S
Gd575 O618 2.388 . S
Gd575 C639 2.805 . S
N576 C566 1.359 . S
N576 Gd575 2.570 . S
N576 C578 1.343 . S
C577 C565 1.422 . S
C577 C579 1.321 . S
C577 H585 0.931 . S
C578 N576 1.343 . S
C578 C579 1.390 . S
C578 H580 0.931 . S
C579 C577 1.321 . S
C579 C578 1.390 . S
C579 H581 0.930 . S
H580 C578 0.931 . S
H581 C579 0.930 . S
H582 C605 0.931 . S
H583 C571 0.929 . S
H584 C606 0.930 . S
H585 C577 0.931 . S
H586 C567 0.930 . S
H587 C596 0.929 . S
H588 C572 0.931 . S
H589 C573 0.930 . S
H590 C628 0.930 . S
H591 C569 0.929 . S
H592 C597 0.931 . S
H593 C598 0.930 . S
N594 Gd574 2.622 . S
N594 C595 1.369 . S
N594 C596 1.338 . S
C595 N594 1.369 . S
C595 C599 1.415 . S
C595 C602 1.422 . S
C596 H587 0.929 . S
C596 N594 1.338 . S
C596 C598 1.378 . S
C597 H592 0.931 . S
C597 C598 1.348 . S
C597 C599 1.413 . S
C598 H593 0.930 . S
C598 C596 1.378 . S
C598 C597 1.348 . S
C599 C595 1.415 . S
C599 C597 1.413 . S
C599 C629 1.437 . S
H600 C629 0.929 . S
N601 Gd574 2.570 . S
N601 C602 1.359 . S
N601 C605 1.343 . S
C602 C595 1.422 . S
C602 N601 1.359 . S
C602 C604 1.421 . S
C603 C604 1.422 . S
C603 C606 1.321 . S
C603 H630 0.931 . S
C604 C602 1.421 . S
C604 C603 1.422 . S
C604 C628 1.417 . S
C605 H582 0.931 . S
C605 N601 1.343 . S
C605 C606 1.390 . S
C606 H584 0.930 . S
C606 C603 1.321 . S
C606 C605 1.390 . S
O607 Gd575 2.386 . S
O607 C619 1.265 . S
O608 Gd574 2.353 . S
O608 C619 1.242 . S
O609 Gd574 2.468 . S
O609 C627 1.263 . S
O610 Gd574 2.427 . S
O610 C627 1.252 . S
O611 Gd575 2.307 . S
O611 C620 1.261 . S
O612 Gd574 2.388 . S
O612 C620 1.252 . S
O613 Gd574 2.386 . S
O613 C631 1.265 . S
O614 Gd575 2.353 . S
O614 C631 1.242 . S
O615 Gd575 2.468 . S
O615 C639 1.263 . S
O616 Gd575 2.427 . S
O616 C639 1.252 . S
O617 Gd574 2.307 . S
O617 C632 1.261 . S
O618 Gd575 2.388 . S
O618 C632 1.252 . S
C619 O607 1.265 . S
C619 O608 1.242 . S
C620 O611 1.261 . S
C620 O612 1.252 . S
C621 C624 1.394 . S
C621 C626 1.370 . S
C621 C627 1.500 . S
C622 C625 1.383 . S
C622 C626 1.395 . S
C623 C624 1.396 . S
C623 C625 1.365 . S
C623 H640 0.929 . S
C624 C621 1.394 . S
C624 C623 1.396 . S
C624 H641 0.930 . S
C625 C622 1.383 . S
C625 C623 1.365 . S
C625 H642 0.931 . S
C626 C621 1.370 . S
C626 C622 1.395 . S
C626 H643 0.930 . S
C627 Gd574 2.805 . S
C627 O609 1.263 . S
C627 O610 1.252 . S
C627 C621 1.500 . S
C628 H590 0.930 . S
C628 C604 1.417 . S
C628 C629 1.329 . S
C629 C599 1.437 . S
C629 H600 0.929 . S
C629 C628 1.329 . S
H630 C603 0.931 . S
C631 O613 1.265 . S
C631 O614 1.242 . S
C632 O617 1.261 . S
C632 O618 1.252 . S
C633 C636 1.394 . S
C633 C638 1.370 . S
C633 C639 1.500 . S
C634 C637 1.383 . S
C634 C638 1.395 . S
C635 C636 1.396 . S
C635 C637 1.365 . S
C635 H644 0.929 . S
C636 C633 1.394 . S
C636 C635 1.396 . S
C636 H645 0.930 . S
C637 C634 1.383 . S
C637 C635 1.365 . S
C637 H646 0.931 . S
C638 C633 1.370 . S
C638 C634 1.395 . S
C638 H647 0.930 . S
C639 Gd575 2.805 . S
C639 O615 1.263 . S
C639 O616 1.252 . S
C639 C633 1.500 . S
H640 C623 0.929 . S
H641 C624 0.930 . S
H642 C625 0.931 . S
H643 C626 0.930 . S
H644 C635 0.929 . S
H645 C636 0.930 . S
H646 C637 0.931 . S
H647 C638 0.930 . S
C648 C650 1.422 . S
C648 C652 1.415 . S
C648 N654 1.369 . S
C649 C650 1.421 . S
C649 C651 1.417 . S
C649 C661 1.422 . S
C650 C648 1.422 . S
C650 C649 1.421 . S
C650 N660 1.359 . S
C651 C649 1.417 . S
C651 C653 1.329 . S
C651 H670 0.930 . S
C652 C648 1.415 . S
C652 C653 1.437 . S
C652 C656 1.413 . S
C653 C651 1.329 . S
C653 C652 1.437 . S
C653 H675 0.929 . S
N654 C648 1.369 . S
N654 C655 1.338 . S
N654 Gd659 2.622 . S
C655 N654 1.338 . S
C655 C657 1.378 . S
C655 H667 0.929 . S
C656 C652 1.413 . S
C656 C657 1.348 . S
C656 H672 0.931 . S
C657 C655 1.378 . S
C657 C656 1.348 . S
C657 H673 0.930 . S
Gd658 N678 2.622 . S
Gd658 N685 2.570 . S
Gd658 O692 2.353 . S
Gd658 O693 2.468 . S
Gd658 O694 2.427 . S
Gd658 O696 2.388 . S
Gd658 O697 2.386 . S
Gd658 O701 2.307 . S
Gd658 C711 2.805 . S
Gd659 N654 2.622 . S
Gd659 N660 2.570 . S
Gd659 O691 2.386 . S
Gd659 O695 2.307 1_655 S
Gd659 O698 2.353 1_655 S
Gd659 O699 2.468 . S
Gd659 O700 2.427 . S
Gd659 O702 2.388 . S
Gd659 C723 2.805 . S
N660 C650 1.359 . S
N660 Gd659 2.570 . S
N660 C662 1.343 . S
C661 C649 1.422 . S
C661 C663 1.321 . S
C661 H669 0.931 . S
C662 N660 1.343 . S
C662 C663 1.390 . S
C662 H664 0.931 . S
C663 C661 1.321 . S
C663 C662 1.390 . S
C663 H665 0.930 . S
H664 C662 0.931 . S
H665 C663 0.930 . S
H666 C689 0.931 . S
H667 C655 0.929 . S
H668 C690 0.930 . S
H669 C661 0.931 . S
H670 C651 0.930 . S
H671 C680 0.929 . S
H672 C656 0.931 . S
H673 C657 0.930 . S
H674 C712 0.930 . S
H675 C653 0.929 . S
H676 C681 0.931 . S
H677 C682 0.930 . S
N678 Gd658 2.622 . S
N678 C679 1.369 . S
N678 C680 1.338 . S
C679 N678 1.369 . S
C679 C683 1.415 . S
C679 C686 1.422 . S
C680 H671 0.929 . S
C680 N678 1.338 . S
C680 C682 1.378 . S
C681 H676 0.931 . S
C681 C682 1.348 . S
C681 C683 1.413 . S
C682 H677 0.930 . S
C682 C680 1.378 . S
C682 C681 1.348 . S
C683 C679 1.415 . S
C683 C681 1.413 . S
C683 C713 1.437 . S
H684 C713 0.929 . S
N685 Gd658 2.570 . S
N685 C686 1.359 . S
N685 C689 1.343 . S
C686 C679 1.422 . S
C686 N685 1.359 . S
C686 C688 1.421 . S
C687 C688 1.422 . S
C687 C690 1.321 . S
C687 H714 0.931 . S
C688 C686 1.421 . S
C688 C687 1.422 . S
C688 C712 1.417 . S
C689 H666 0.931 . S
C689 N685 1.343 . S
C689 C690 1.390 . S
C690 H668 0.930 . S
C690 C687 1.321 . S
C690 C689 1.390 . S
O691 Gd659 2.386 . S
O691 C703 1.265 . S
O692 Gd658 2.353 . S
O692 C703 1.242 1_455 S
O693 Gd658 2.468 . S
O693 C711 1.263 . S
O694 Gd658 2.427 . S
O694 C711 1.252 . S
O695 Gd659 2.307 1_455 S
O695 C704 1.261 . S
O696 Gd658 2.388 . S
O696 C704 1.252 . S
O697 Gd658 2.386 . S
O697 C715 1.265 . S
O698 Gd659 2.353 1_455 S
O698 C715 1.242 . S
O699 Gd659 2.468 . S
O699 C723 1.263 . S
O700 Gd659 2.427 . S
O700 C723 1.252 . S
O701 Gd658 2.307 . S
O701 C716 1.261 1_455 S
O702 Gd659 2.388 . S
O702 C716 1.252 . S
C703 O691 1.265 . S
C703 O692 1.242 1_655 S
C704 O695 1.261 . S
C704 O696 1.252 . S
C705 C708 1.394 . S
C705 C710 1.370 . S
C705 C711 1.500 . S
C706 C709 1.383 . S
C706 C710 1.395 . S
C707 C708 1.396 . S
C707 C709 1.365 . S
C707 H724 0.929 . S
C708 C705 1.394 . S
C708 C707 1.396 . S
C708 H725 0.930 . S
C709 C706 1.383 . S
C709 C707 1.365 . S
C709 H726 0.931 . S
C710 C705 1.370 . S
C710 C706 1.395 . S
C710 H727 0.930 . S
C711 Gd658 2.805 . S
C711 O693 1.263 . S
C711 O694 1.252 . S
C711 C705 1.500 . S
C712 H674 0.930 . S
C712 C688 1.417 . S
C712 C713 1.329 . S
C713 C683 1.437 . S
C713 H684 0.929 . S
C713 C712 1.329 . S
H714 C687 0.931 . S
C715 O697 1.265 . S
C715 O698 1.242 . S
C716 O701 1.261 1_655 S
C716 O702 1.252 . S
C717 C720 1.394 . S
C717 C722 1.370 . S
C717 C723 1.500 . S
C718 C721 1.383 . S
C718 C722 1.395 . S
C719 C720 1.396 . S
C719 C721 1.365 . S
C719 H728 0.929 . S
C720 C717 1.394 . S
C720 C719 1.396 . S
C720 H729 0.930 . S
C721 C718 1.383 . S
C721 C719 1.365 . S
C721 H730 0.931 . S
C722 C717 1.370 . S
C722 C718 1.395 . S
C722 H731 0.930 . S
C723 Gd659 2.805 . S
C723 O699 1.263 . S
C723 O700 1.252 . S
C723 C717 1.500 . S
H724 C707 0.929 . S
H725 C708 0.930 . S
H726 C709 0.931 . S
H727 C710 0.930 . S
H728 C719 0.929 . S
H729 C720 0.930 . S
H730 C721 0.931 . S
H731 C722 0.930 . S
C732 C734 1.422 . S
C732 C736 1.415 . S
C732 N738 1.369 . S
C733 C734 1.421 . S
C733 C735 1.417 . S
C733 C745 1.422 . S
C734 C732 1.422 . S
C734 C733 1.421 . S
C734 N744 1.359 . S
C735 C733 1.417 . S
C735 C737 1.329 . S
C735 H754 0.930 . S
C736 C732 1.415 . S
C736 C737 1.437 . S
C736 C740 1.413 . S
C737 C735 1.329 . S
C737 C736 1.437 . S
C737 H759 0.929 . S
N738 C732 1.369 . S
N738 C739 1.338 . S
N738 Gd743 2.622 . S
C739 N738 1.338 . S
C739 C741 1.378 . S
C739 H751 0.929 . S
C740 C736 1.413 . S
C740 C741 1.348 . S
C740 H756 0.931 . S
C741 C739 1.378 . S
C741 C740 1.348 . S
C741 H757 0.930 . S
Gd742 N762 2.622 . S
Gd742 N769 2.570 . S
Gd742 O776 2.353 . S
Gd742 O777 2.468 . S
Gd742 O778 2.427 . S
Gd742 O780 2.388 . S
Gd742 O781 2.386 . S
Gd742 O785 2.307 . S
Gd742 C795 2.805 . S
Gd743 N738 2.622 . S
Gd743 N744 2.570 . S
Gd743 O775 2.386 . S
Gd743 O779 2.307 . S
Gd743 O782 2.353 . S
Gd743 O783 2.468 . S
Gd743 O784 2.427 . S
Gd743 O786 2.388 . S
Gd743 C807 2.805 . S
N744 C734 1.359 . S
N744 Gd743 2.570 . S
N744 C746 1.343 . S
C745 C733 1.422 . S
C745 C747 1.321 . S
C745 H753 0.931 . S
C746 N744 1.343 . S
C746 C747 1.390 . S
C746 H748 0.931 . S
C747 C745 1.321 . S
C747 C746 1.390 . S
C747 H749 0.930 . S
H748 C746 0.931 . S
H749 C747 0.930 . S
H750 C773 0.931 . S
H751 C739 0.929 . S
H752 C774 0.930 . S
H753 C745 0.931 . S
H754 C735 0.930 . S
H755 C764 0.929 . S
H756 C740 0.931 . S
H757 C741 0.930 . S
H758 C796 0.930 . S
H759 C737 0.929 . S
H760 C765 0.931 . S
H761 C766 0.930 . S
N762 Gd742 2.622 . S
N762 C763 1.369 . S
N762 C764 1.338 . S
C763 N762 1.369 . S
C763 C767 1.415 . S
C763 C770 1.422 . S
C764 H755 0.929 . S
C764 N762 1.338 . S
C764 C766 1.378 . S
C765 H760 0.931 . S
C765 C766 1.348 . S
C765 C767 1.413 . S
C766 H761 0.930 . S
C766 C764 1.378 . S
C766 C765 1.348 . S
C767 C763 1.415 . S
C767 C765 1.413 . S
C767 C797 1.437 . S
H768 C797 0.929 . S
N769 Gd742 2.570 . S
N769 C770 1.359 . S
N769 C773 1.343 . S
C770 C763 1.422 . S
C770 N769 1.359 . S
C770 C772 1.421 . S
C771 C772 1.422 . S
C771 C774 1.321 . S
C771 H798 0.931 . S
C772 C770 1.421 . S
C772 C771 1.422 . S
C772 C796 1.417 . S
C773 H750 0.931 . S
C773 N769 1.343 . S
C773 C774 1.390 . S
C774 H752 0.930 . S
C774 C771 1.321 . S
C774 C773 1.390 . S
O775 Gd743 2.386 . S
O775 C787 1.265 . S
O776 Gd742 2.353 . S
O776 C787 1.242 . S
O777 Gd742 2.468 . S
O777 C795 1.263 . S
O778 Gd742 2.427 . S
O778 C795 1.252 . S
O779 Gd743 2.307 . S
O779 C788 1.261 . S
O780 Gd742 2.388 . S
O780 C788 1.252 . S
O781 Gd742 2.386 . S
O781 C799 1.265 . S
O782 Gd743 2.353 . S
O782 C799 1.242 . S
O783 Gd743 2.468 . S
O783 C807 1.263 . S
O784 Gd743 2.427 . S
O784 C807 1.252 . S
O785 Gd742 2.307 . S
O785 C800 1.261 . S
O786 Gd743 2.388 . S
O786 C800 1.252 . S
C787 O775 1.265 . S
C787 O776 1.242 . S
C788 O779 1.261 . S
C788 O780 1.252 . S
C789 C792 1.394 . S
C789 C794 1.370 . S
C789 C795 1.500 . S
C790 C793 1.383 . S
C790 C794 1.395 . S
C791 C792 1.396 . S
C791 C793 1.365 . S
C791 H808 0.929 . S
C792 C789 1.394 . S
C792 C791 1.396 . S
C792 H809 0.930 . S
C793 C790 1.383 . S
C793 C791 1.365 . S
C793 H810 0.931 . S
C794 C789 1.370 . S
C794 C790 1.395 . S
C794 H811 0.930 . S
C795 Gd742 2.805 . S
C795 O777 1.263 . S
C795 O778 1.252 . S
C795 C789 1.500 . S
C796 H758 0.930 . S
C796 C772 1.417 . S
C796 C797 1.329 . S
C797 C767 1.437 . S
C797 H768 0.929 . S
C797 C796 1.329 . S
H798 C771 0.931 . S
C799 O781 1.265 . S
C799 O782 1.242 . S
C800 O785 1.261 . S
C800 O786 1.252 . S
C801 C804 1.394 . S
C801 C806 1.370 . S
C801 C807 1.500 . S
C802 C805 1.383 . S
C802 C806 1.395 . S
C803 C804 1.396 . S
C803 C805 1.365 . S
C803 H812 0.929 . S
C804 C801 1.394 . S
C804 C803 1.396 . S
C804 H813 0.930 . S
C805 C802 1.383 . S
C805 C803 1.365 . S
C805 H814 0.931 . S
C806 C801 1.370 . S
C806 C802 1.395 . S
C806 H815 0.930 . S
C807 Gd743 2.805 . S
C807 O783 1.263 . S
C807 O784 1.252 . S
C807 C801 1.500 . S
H808 C791 0.929 . S
H809 C792 0.930 . S
H810 C793 0.931 . S
H811 C794 0.930 . S
H812 C803 0.929 . S
H813 C804 0.930 . S
H814 C805 0.931 . S
H815 C806 0.930 . S
H816 C828 0.930 . S
H817 C830 0.930 . S
H818 C831 0.930 . S
H819 C835 0.959 . S
H820 C835 0.959 . S
H821 C835 0.961 . S
H822 C836 0.945 1_565 S
H823 C836 0.965 . S
H824 C836 0.959 . S
H825 C839 0.929 . S
H826 C840 0.931 . S
H827 C842 0.930 . S
C828 H816 0.930 . S
C828 C829 1.399 . S
C828 C833 1.399 1_565 S
C829 C828 1.399 . S
C829 C830 1.376 1_565 S
C830 H817 0.930 . S
C830 C829 1.376 1_545 S
C830 C831 1.388 . S
C831 H818 0.930 . S
C831 C830 1.388 . S
C831 C832 1.390 . S
C832 C831 1.390 . S
C832 C833 1.394 . S
C832 C838 1.465 . S
C833 C828 1.399 1_545 S
C833 C832 1.394 . S
C833 C834 1.516 . S
C834 C833 1.516 . S
C834 C835 1.502 . S
C834 C836 1.572 . S
C834 C837 1.526 . S
C835 H819 0.959 . S
C835 H820 0.959 . S
C835 H821 0.961 . S
C835 C834 1.502 . S
C836 H822 0.945 1_545 S
C836 H823 0.965 . S
C836 H824 0.959 . S
C836 C834 1.572 . S
C837 C834 1.526 . S
C837 C838 1.396 . S
C837 C842 1.390 . S
C838 C832 1.465 . S
C838 C837 1.396 . S
C838 C839 1.399 . S
C839 H825 0.929 . S
C839 C838 1.399 . S
C839 C840 1.385 . S
C840 H826 0.931 . S
C840 C839 1.385 . S
C840 C841 1.389 . S
C841 C840 1.389 . S
C841 C842 1.387 . S
C842 H827 0.930 . S
C842 C837 1.390 . S
C842 C841 1.387 . S
H843 C855 0.930 . S
H844 C857 0.930 . S
H845 C858 0.930 . S
H846 C862 0.959 . S
H847 C862 0.959 . S
H848 C862 0.961 . S
H849 C863 0.960 . S
H850 C863 0.961 . S
H851 C863 0.959 . S
H852 C866 0.929 . S
H853 C867 0.931 . S
H854 C869 0.930 . S
C855 H843 0.930 . S
C855 C856 1.399 . S
C855 C860 1.399 . S
C856 C855 1.399 . S
C856 C857 1.376 . S
C857 H844 0.930 . S
C857 C856 1.376 . S
C857 C858 1.388 . S
C858 H845 0.930 . S
C858 C857 1.388 . S
C858 C859 1.390 . S
C859 C858 1.390 . S
C859 C860 1.394 . S
C859 C865 1.465 . S
C860 C855 1.399 . S
C860 C859 1.394 . S
C860 C861 1.516 . S
C861 C860 1.516 . S
C861 C862 1.502 . S
C861 C863 1.561 . S
C861 C864 1.526 . S
C862 H846 0.959 . S
C862 H847 0.959 . S
C862 H848 0.961 . S
C862 C861 1.502 . S
C863 H849 0.960 . S
C863 H850 0.961 . S
C863 H851 0.959 . S
C863 C861 1.561 . S
C864 C861 1.526 . S
C864 C865 1.396 . S
C864 C869 1.390 . S
C865 C859 1.465 . S
C865 C864 1.396 . S
C865 C866 1.399 . S
C866 H852 0.929 . S
C866 C865 1.399 . S
C866 C867 1.385 . S
C867 H853 0.931 . S
C867 C866 1.385 . S
C867 C868 1.389 . S
C868 C867 1.389 . S
C868 C869 1.387 . S
C869 H854 0.930 . S
C869 C864 1.390 . S
C869 C868 1.387 . S
H870 C882 0.930 . S
H871 C884 0.930 . S
H872 C885 0.930 . S
H873 C889 0.959 . S
H874 C889 0.959 . S
H875 C889 0.961 . S
H876 C890 0.960 . S
H877 C890 0.961 . S
H878 C890 0.959 . S
H879 C893 0.929 . S
H880 C894 0.931 . S
H881 C896 0.930 . S
C882 H870 0.930 . S
C882 C883 1.399 . S
C882 C887 1.399 . S
C883 C882 1.399 . S
C883 C884 1.376 . S
C884 H871 0.930 . S
C884 C883 1.376 . S
C884 C885 1.388 . S
C885 H872 0.930 . S
C885 C884 1.388 . S
C885 C886 1.390 . S
C886 C885 1.390 . S
C886 C887 1.394 . S
C886 C892 1.465 . S
C887 C882 1.399 . S
C887 C886 1.394 . S
C887 C888 1.516 . S
C888 C887 1.516 . S
C888 C889 1.502 . S
C888 C890 1.561 . S
C888 C891 1.526 . S
C889 H873 0.959 . S
C889 H874 0.959 . S
C889 H875 0.961 . S
C889 C888 1.502 . S
C890 H876 0.960 . S
C890 H877 0.961 . S
C890 H878 0.959 . S
C890 C888 1.561 . S
C891 C888 1.526 . S
C891 C892 1.396 . S
C891 C896 1.390 . S
C892 C886 1.465 . S
C892 C891 1.396 . S
C892 C893 1.399 . S
C893 H879 0.929 . S
C893 C892 1.399 . S
C893 C894 1.385 . S
C894 H880 0.931 . S
C894 C893 1.385 . S
C894 C895 1.389 . S
C895 C894 1.389 . S
C895 C896 1.387 . S
C896 H881 0.930 . S
C896 C891 1.390 . S
C896 C895 1.387 . S
H897 C909 0.930 . S
H898 C911 0.930 . S
H899 C912 0.930 . S
H900 C916 0.955 1_545 S
H901 C916 0.957 1_545 S
H902 C916 0.979 . S
H903 C917 0.960 1_565 S
H904 C917 0.961 1_455 S
H905 C917 0.959 . S
H906 C920 0.929 . S
H907 C921 0.931 . S
H908 C923 0.930 . S
C909 H897 0.930 . S
C909 C910 1.399 . S
C909 C914 1.399 1_565 S
C910 C909 1.399 . S
C910 C911 1.376 1_565 S
C911 H898 0.930 . S
C911 C910 1.376 1_545 S
C911 C912 1.388 . S
C912 H899 0.930 . S
C912 C911 1.388 . S
C912 C913 1.390 . S
C913 C912 1.390 . S
C913 C914 1.394 . S
C913 C919 1.465 . S
C914 C909 1.399 1_545 S
C914 C913 1.394 . S
C914 C915 1.516 . S
C915 C914 1.516 . S
C915 C916 1.490 1_545 S
C915 C917 1.561 . S
C915 C918 1.526 . S
C916 H900 0.955 1_565 S
C916 H901 0.957 1_565 S
C916 H902 0.979 . S
C916 C915 1.490 1_565 S
C917 H903 0.960 1_545 S
C917 H904 0.961 1_655 S
C917 H905 0.959 . S
C917 C915 1.561 . S
C918 C915 1.526 . S
C918 C919 1.396 . S
C918 C923 1.390 . S
C919 C913 1.465 . S
C919 C918 1.396 . S
C919 C920 1.399 . S
C920 H906 0.929 . S
C920 C919 1.399 . S
C920 C921 1.385 . S
C921 H907 0.931 . S
C921 C920 1.385 . S
C921 C922 1.389 . S
C922 C921 1.389 . S
C922 C923 1.387 . S
C923 H908 0.930 . S
C923 C918 1.390 . S
C923 C922 1.387 . S
H924 C936 0.930 . S
H925 C938 0.930 . S
H926 C939 0.930 . S
H927 C943 0.959 . S
H928 C943 0.959 . S
H929 C943 0.961 1_545 S
H930 C944 0.960 1_545 S
H931 C944 0.961 . S
H932 C944 0.959 . S
H933 C947 0.929 . S
H934 C948 0.931 . S
H935 C950 0.930 . S
C936 H924 0.930 . S
C936 C937 1.399 . S
C936 C941 1.399 1_545 S
C937 C936 1.399 . S
C937 C938 1.376 1_545 S
C938 H925 0.930 . S
C938 C937 1.376 1_565 S
C938 C939 1.388 . S
C939 H926 0.930 . S
C939 C938 1.388 . S
C939 C940 1.390 . S
C940 C939 1.390 . S
C940 C941 1.394 . S
C940 C946 1.465 . S
C941 C936 1.399 1_565 S
C941 C940 1.394 . S
C941 C942 1.516 . S
C942 C941 1.516 . S
C942 C943 1.502 . S
C942 C944 1.561 . S
C942 C945 1.526 . S
C943 H927 0.959 . S
C943 H928 0.959 . S
C943 H929 0.961 1_565 S
C943 C942 1.502 . S
C944 H930 0.960 1_565 S
C944 H931 0.961 . S
C944 H932 0.959 . S
C944 C942 1.561 . S
C945 C942 1.526 . S
C945 C946 1.396 . S
C945 C950 1.390 . S
C946 C940 1.465 . S
C946 C945 1.396 . S
C946 C947 1.399 . S
C947 H933 0.929 . S
C947 C946 1.399 . S
C947 C948 1.385 . S
C948 H934 0.931 . S
C948 C947 1.385 . S
C948 C949 1.389 . S
C949 C948 1.389 . S
C949 C950 1.387 . S
C950 H935 0.930 . S
C950 C945 1.390 . S
C950 C949 1.387 . S
H951 C963 0.930 . S
H952 C965 0.930 . S
H953 C966 0.930 . S
H954 C970 0.959 . S
H955 C970 0.959 . S
H956 C970 0.961 . S
H957 C971 0.960 . S
H958 C971 0.961 . S
H959 C971 0.959 . S
H960 C974 0.929 . S
H961 C975 0.931 . S
H962 C977 0.930 . S
C963 H951 0.930 . S
C963 C964 1.399 . S
C963 C968 1.399 . S
C964 C963 1.399 . S
C964 C965 1.376 . S
C965 H952 0.930 . S
C965 C964 1.376 . S
C965 C966 1.388 . S
C966 H953 0.930 . S
C966 C965 1.388 . S
C966 C967 1.390 . S
C967 C966 1.390 . S
C967 C968 1.394 . S
C967 C973 1.465 . S
C968 C963 1.399 . S
C968 C967 1.394 . S
C968 C969 1.516 . S
C969 C968 1.516 . S
C969 C970 1.502 . S
C969 C971 1.561 . S
C969 C972 1.526 . S
C970 H954 0.959 . S
C970 H955 0.959 . S
C970 H956 0.961 . S
C970 C969 1.502 . S
C971 H957 0.960 . S
C971 H958 0.961 . S
C971 H959 0.959 . S
C971 C969 1.561 . S
C972 C969 1.526 . S
C972 C973 1.396 . S
C972 C977 1.390 . S
C973 C967 1.465 . S
C973 C972 1.396 . S
C973 C974 1.399 . S
C974 H960 0.929 . S
C974 C973 1.399 . S
C974 C975 1.385 . S
C975 H961 0.931 . S
C975 C974 1.385 . S
C975 C976 1.389 . S
C976 C975 1.389 . S
C976 C977 1.387 . S
C977 H962 0.930 . S
C977 C972 1.390 . S
C977 C976 1.387 . S
H978 C990 0.930 . S
H979 C992 0.930 . S
H980 C993 0.930 . S
H981 C997 0.959 . S
H982 C997 0.959 . S
H983 C997 0.961 . S
H984 C998 0.960 . S
H985 C998 0.961 . S
H986 C998 0.959 . S
H987 C1001 0.929 . S
H988 C1002 0.931 . S
H989 C1004 0.930 . S
C990 H978 0.930 . S
C990 C991 1.399 . S
C990 C995 1.399 . S
C991 C990 1.399 . S
C991 C992 1.376 . S
C992 H979 0.930 . S
C992 C991 1.376 . S
C992 C993 1.388 . S
C993 H980 0.930 . S
C993 C992 1.388 . S
C993 C994 1.390 . S
C994 C993 1.390 . S
C994 C995 1.394 . S
C994 C1000 1.465 . S
C995 C990 1.399 . S
C995 C994 1.394 . S
C995 C996 1.516 . S
C996 C995 1.516 . S
C996 C997 1.502 . S
C996 C998 1.561 . S
C996 C999 1.526 . S
C997 H981 0.959 . S
C997 H982 0.959 . S
C997 H983 0.961 . S
C997 C996 1.502 . S
C998 H984 0.960 . S
C998 H985 0.961 . S
C998 H986 0.959 . S
C998 C996 1.561 . S
C999 C996 1.526 . S
C999 C1000 1.396 . S
C999 C1004 1.390 . S
C1000 C994 1.465 . S
C1000 C999 1.396 . S
C1000 C1001 1.399 . S
C1001 H987 0.929 . S
C1001 C1000 1.399 . S
C1001 C1002 1.385 . S
C1002 H988 0.931 . S
C1002 C1001 1.385 . S
C1002 C1003 1.389 . S
C1003 C1002 1.389 . S
C1003 C1004 1.387 . S
C1004 H989 0.930 . S
C1004 C999 1.390 . S
C1004 C1003 1.387 . S
H1005 C1017 0.930 . S
H1006 C1019 0.930 . S
H1007 C1020 0.930 . S
H1008 C1024 0.959 . S
H1009 C1024 0.959 . S
H1010 C1024 0.961 . S
H1011 C1025 0.960 . S
H1012 C1025 0.961 . S
H1013 C1025 0.959 . S
H1014 C1028 0.929 . S
H1015 C1029 0.931 . S
H1016 C1031 0.930 . S
C1017 H1005 0.930 . S
C1017 C1018 1.399 1_565 S
C1017 C1022 1.399 . S
C1018 C1017 1.399 1_545 S
C1018 C1019 1.376 . S
C1019 H1006 0.930 . S
C1019 C1018 1.376 . S
C1019 C1020 1.388 . S
C1020 H1007 0.930 . S
C1020 C1019 1.388 . S
C1020 C1021 1.390 1_545 S
C1021 C1020 1.390 1_565 S
C1021 C1022 1.394 . S
C1021 C1027 1.465 . S
C1022 C1017 1.399 . S
C1022 C1021 1.394 . S
C1022 C1023 1.516 . S
C1023 C1022 1.516 . S
C1023 C1024 1.502 . S
C1023 C1025 1.561 . S
C1023 C1026 1.526 . S
C1024 H1008 0.959 . S
C1024 H1009 0.959 . S
C1024 H1010 0.961 . S
C1024 C1023 1.502 . S
C1025 H1011 0.960 . S
C1025 H1012 0.961 . S
C1025 H1013 0.959 . S
C1025 C1023 1.561 . S
C1026 C1023 1.526 . S
C1026 C1027 1.396 . S
C1026 C1031 1.390 . S
C1027 C1021 1.465 . S
C1027 C1026 1.396 . S
C1027 C1028 1.399 . S
C1028 H1014 0.929 . S
C1028 C1027 1.399 . S
C1028 C1029 1.385 . S
C1029 H1015 0.931 . S
C1029 C1028 1.385 . S
C1029 C1030 1.389 . S
C1030 C1029 1.389 . S
C1030 C1031 1.387 . S
C1031 H1016 0.930 . S
C1031 C1026 1.390 . S
C1031 C1030 1.387 . S
H1032 C1044 0.930 . S
H1033 C1046 0.930 . S
H1034 C1047 0.930 . S
H1035 C1051 0.959 . S
H1036 C1051 0.959 . S
H1037 C1051 0.961 . S
H1038 C1052 0.960 . S
H1039 C1052 0.961 . S
H1040 C1052 0.959 . S
H1041 C1055 0.929 . S
H1042 C1056 0.931 . S
H1043 C1058 0.930 . S
C1044 H1032 0.930 . S
C1044 C1045 1.399 . S
C1044 C1049 1.399 . S
C1045 C1044 1.399 . S
C1045 C1046 1.376 . S
C1046 H1033 0.930 . S
C1046 C1045 1.376 . S
C1046 C1047 1.388 . S
C1047 H1034 0.930 . S
C1047 C1046 1.388 . S
C1047 C1048 1.390 . S
C1048 C1047 1.390 . S
C1048 C1049 1.394 . S
C1048 C1054 1.465 . S
C1049 C1044 1.399 . S
C1049 C1048 1.394 . S
C1049 C1050 1.516 . S
C1050 C1049 1.516 . S
C1050 C1051 1.502 . S
C1050 C1052 1.561 . S
C1050 C1053 1.526 . S
C1051 H1035 0.959 . S
C1051 H1036 0.959 . S
C1051 H1037 0.961 . S
C1051 C1050 1.502 . S
C1052 H1038 0.960 . S
C1052 H1039 0.961 . S
C1052 H1040 0.959 . S
C1052 C1050 1.561 . S
C1053 C1050 1.526 . S
C1053 C1054 1.396 . S
C1053 C1058 1.390 . S
C1054 C1048 1.465 . S
C1054 C1053 1.396 . S
C1054 C1055 1.399 . S
C1055 H1041 0.929 . S
C1055 C1054 1.399 . S
C1055 C1056 1.385 . S
C1056 H1042 0.931 . S
C1056 C1055 1.385 . S
C1056 C1057 1.389 . S
C1057 C1056 1.389 . S
C1057 C1058 1.387 . S
C1058 H1043 0.930 . S
C1058 C1053 1.390 . S
C1058 C1057 1.387 . S
H1059 C1071 0.930 . S
H1060 C1073 0.930 . S
H1061 C1074 0.930 . S
H1062 C1078 0.959 . S
H1063 C1078 0.959 . S
H1064 C1078 0.961 . S
H1065 C1079 0.960 . S
H1066 C1079 0.961 . S
H1067 C1079 0.959 . S
H1068 C1082 0.929 . S
H1069 C1083 0.931 . S
H1070 C1085 0.930 . S
C1071 H1059 0.930 . S
C1071 C1072 1.399 . S
C1071 C1076 1.399 . S
C1072 C1071 1.399 . S
C1072 C1073 1.376 . S
C1073 H1060 0.930 . S
C1073 C1072 1.376 . S
C1073 C1074 1.388 . S
C1074 H1061 0.930 . S
C1074 C1073 1.388 . S
C1074 C1075 1.390 . S
C1075 C1074 1.390 . S
C1075 C1076 1.394 . S
C1075 C1081 1.465 . S
C1076 C1071 1.399 . S
C1076 C1075 1.394 . S
C1076 C1077 1.516 . S
C1077 C1076 1.516 . S
C1077 C1078 1.502 . S
C1077 C1079 1.561 . S
C1077 C1080 1.526 . S
C1078 H1062 0.959 . S
C1078 H1063 0.959 . S
C1078 H1064 0.961 . S
C1078 C1077 1.502 . S
C1079 H1065 0.960 . S
C1079 H1066 0.961 . S
C1079 H1067 0.959 . S
C1079 C1077 1.561 . S
C1080 C1077 1.526 . S
C1080 C1081 1.396 . S
C1080 C1085 1.390 . S
C1081 C1075 1.465 . S
C1081 C1080 1.396 . S
C1081 C1082 1.399 . S
C1082 H1068 0.929 . S
C1082 C1081 1.399 . S
C1082 C1083 1.385 . S
C1083 H1069 0.931 . S
C1083 C1082 1.385 . S
C1083 C1084 1.389 . S
C1084 C1083 1.389 . S
C1084 C1085 1.387 . S
C1085 H1070 0.930 . S
C1085 C1080 1.390 . S
C1085 C1084 1.387 . S
H1086 C1098 0.930 . S
H1087 C1100 0.930 . S
H1088 C1101 0.930 . S
H1089 C1105 0.959 . S
H1090 C1105 0.959 . S
H1091 C1105 0.961 . S
H1092 C1106 0.960 . S
H1093 C1106 0.961 . S
H1094 C1106 0.959 . S
H1095 C1109 0.929 . S
H1096 C1110 0.931 . S
H1097 C1112 0.930 . S
C1098 H1086 0.930 . S
C1098 C1099 1.399 . S
C1098 C1103 1.399 . S
C1099 C1098 1.399 . S
C1099 C1100 1.376 . S
C1100 H1087 0.930 . S
C1100 C1099 1.376 . S
C1100 C1101 1.388 . S
C1101 H1088 0.930 . S
C1101 C1100 1.388 . S
C1101 C1102 1.390 . S
C1102 C1101 1.390 . S
C1102 C1103 1.394 . S
C1102 C1108 1.465 . S
C1103 C1098 1.399 . S
C1103 C1102 1.394 . S
C1103 C1104 1.516 . S
C1104 C1103 1.516 . S
C1104 C1105 1.502 . S
C1104 C1106 1.561 . S
C1104 C1107 1.526 . S
C1105 H1089 0.959 . S
C1105 H1090 0.959 . S
C1105 H1091 0.961 . S
C1105 C1104 1.502 . S
C1106 H1092 0.960 . S
C1106 H1093 0.961 . S
C1106 H1094 0.959 . S
C1106 C1104 1.561 . S
C1107 C1104 1.526 . S
C1107 C1108 1.396 . S
C1107 C1112 1.390 . S
C1108 C1102 1.465 . S
C1108 C1107 1.396 . S
C1108 C1109 1.399 . S
C1109 H1095 0.929 . S
C1109 C1108 1.399 . S
C1109 C1110 1.385 . S
C1110 H1096 0.931 . S
C1110 C1109 1.385 . S
C1110 C1111 1.389 . S
C1111 C1110 1.389 . S
C1111 C1112 1.387 . S
C1112 H1097 0.930 . S
C1112 C1107 1.390 . S
C1112 C1111 1.387 . S
H1113 C1125 0.930 . S
H1114 C1127 0.930 . S
H1115 C1128 0.930 . S
H1116 C1132 0.959 . S
H1117 C1132 0.959 . S
H1118 C1132 0.961 . S
H1119 C1133 0.960 . S
H1120 C1133 0.961 . S
H1121 C1133 0.959 . S
H1122 C1136 0.929 . S
H1123 C1137 0.931 . S
H1124 C1139 0.930 . S
C1125 H1113 0.930 . S
C1125 C1126 1.399 . S
C1125 C1130 1.399 . S
C1126 C1125 1.399 . S
C1126 C1127 1.376 . S
C1127 H1114 0.930 . S
C1127 C1126 1.376 . S
C1127 C1128 1.388 . S
C1128 H1115 0.930 . S
C1128 C1127 1.388 . S
C1128 C1129 1.390 . S
C1129 C1128 1.390 . S
C1129 C1130 1.394 . S
C1129 C1135 1.465 . S
C1130 C1125 1.399 . S
C1130 C1129 1.394 . S
C1130 C1131 1.516 . S
C1131 C1130 1.516 . S
C1131 C1132 1.502 . S
C1131 C1133 1.561 . S
C1131 C1134 1.526 . S
C1132 H1116 0.959 . S
C1132 H1117 0.959 . S
C1132 H1118 0.961 . S
C1132 C1131 1.502 . S
C1133 H1119 0.960 . S
C1133 H1120 0.961 . S
C1133 H1121 0.959 . S
C1133 C1131 1.561 . S
C1134 C1131 1.526 . S
C1134 C1135 1.396 . S
C1134 C1139 1.390 . S
C1135 C1129 1.465 . S
C1135 C1134 1.396 . S
C1135 C1136 1.399 . S
C1136 H1122 0.929 . S
C1136 C1135 1.399 . S
C1136 C1137 1.385 . S
C1137 H1123 0.931 . S
C1137 C1136 1.385 . S
C1137 C1138 1.389 . S
C1138 C1137 1.389 . S
C1138 C1139 1.387 . S
C1139 H1124 0.930 . S
C1139 C1134 1.390 . S
C1139 C1138 1.387 . S
H1140 C1152 0.930 . S
H1141 C1154 0.930 . S
H1142 C1155 0.930 . S
H1143 C1159 0.959 . S
H1144 C1159 0.959 . S
H1145 C1159 0.961 . S
H1146 C1160 0.960 . S
H1147 C1160 0.961 . S
H1148 C1160 0.959 . S
H1149 C1163 0.929 . S
H1150 C1164 0.931 . S
H1151 C1166 0.930 . S
C1152 H1140 0.930 . S
C1152 C1153 1.399 . S
C1152 C1157 1.399 . S
C1153 C1152 1.399 . S
C1153 C1154 1.376 . S
C1154 H1141 0.930 . S
C1154 C1153 1.376 . S
C1154 C1155 1.388 . S
C1155 H1142 0.930 . S
C1155 C1154 1.388 . S
C1155 C1156 1.390 . S
C1156 C1155 1.390 . S
C1156 C1157 1.394 . S
C1156 C1162 1.465 . S
C1157 C1152 1.399 . S
C1157 C1156 1.394 . S
C1157 C1158 1.516 . S
C1158 C1157 1.516 . S
C1158 C1159 1.502 . S
C1158 C1160 1.561 . S
C1158 C1161 1.526 . S
C1159 H1143 0.959 . S
C1159 H1144 0.959 . S
C1159 H1145 0.961 . S
C1159 C1158 1.502 . S
C1160 H1146 0.960 . S
C1160 H1147 0.961 . S
C1160 H1148 0.959 . S
C1160 C1158 1.561 . S
C1161 C1158 1.526 . S
C1161 C1162 1.396 . S
C1161 C1166 1.390 . S
C1162 C1156 1.465 . S
C1162 C1161 1.396 . S
C1162 C1163 1.399 . S
C1163 H1149 0.929 . S
C1163 C1162 1.399 . S
C1163 C1164 1.385 . S
C1164 H1150 0.931 . S
C1164 C1163 1.385 . S
C1164 C1165 1.389 . S
C1165 C1164 1.389 . S
C1165 C1166 1.387 . S
C1166 H1151 0.930 . S
C1166 C1161 1.390 . S
C1166 C1165 1.387 . S
H1167 C1179 0.930 . S
H1168 C1181 0.930 . S
H1169 C1182 0.930 . S
H1170 C1186 0.959 . S
H1171 C1186 0.959 . S
H1172 C1186 0.961 . S
H1173 C1187 0.960 . S
H1174 C1187 0.961 . S
H1175 C1187 0.959 . S
H1176 C1190 0.929 . S
H1177 C1191 0.931 . S
H1178 C1193 0.930 . S
C1179 H1167 0.930 . S
C1179 C1180 1.399 . S
C1179 C1184 1.399 . S
C1180 C1179 1.399 . S
C1180 C1181 1.376 . S
C1181 H1168 0.930 . S
C1181 C1180 1.376 . S
C1181 C1182 1.388 . S
C1182 H1169 0.930 . S
C1182 C1181 1.388 . S
C1182 C1183 1.390 . S
C1183 C1182 1.390 . S
C1183 C1184 1.394 . S
C1183 C1189 1.465 . S
C1184 C1179 1.399 . S
C1184 C1183 1.394 . S
C1184 C1185 1.516 . S
C1185 C1184 1.516 . S
C1185 C1186 1.502 . S
C1185 C1187 1.561 . S
C1185 C1188 1.526 . S
C1186 H1170 0.959 . S
C1186 H1171 0.959 . S
C1186 H1172 0.961 . S
C1186 C1185 1.502 . S
C1187 H1173 0.960 . S
C1187 H1174 0.961 . S
C1187 H1175 0.959 . S
C1187 C1185 1.561 . S
C1188 C1185 1.526 . S
C1188 C1189 1.396 . S
C1188 C1193 1.390 . S
C1189 C1183 1.465 . S
C1189 C1188 1.396 . S
C1189 C1190 1.399 . S
C1190 H1176 0.929 . S
C1190 C1189 1.399 . S
C1190 C1191 1.385 . S
C1191 H1177 0.931 . S
C1191 C1190 1.385 . S
C1191 C1192 1.389 . S
C1192 C1191 1.389 . S
C1192 C1193 1.387 . S
C1193 H1178 0.930 . S
C1193 C1188 1.390 . S
C1193 C1192 1.387 . S
H1194 C1206 0.930 . S
H1195 C1208 0.930 1_556 S
H1196 C1209 0.930 . S
H1197 C1213 0.959 . S
H1198 C1213 0.959 . S
H1199 C1213 0.961 . S
H1200 C1214 0.960 . S
H1201 C1214 0.961 . S
H1202 C1214 0.959 . S
H1203 C1217 0.929 . S
H1204 C1218 0.931 . S
H1205 C1220 0.930 . S
C1206 H1194 0.930 . S
C1206 C1207 1.399 . S
C1206 C1211 1.399 . S
C1207 C1206 1.399 . S
C1207 C1208 1.376 . S
C1208 H1195 0.930 1_554 S
C1208 C1207 1.376 . S
C1208 C1209 1.388 . S
C1209 H1196 0.930 . S
C1209 C1208 1.388 . S
C1209 C1210 1.390 . S
C1210 C1209 1.390 . S
C1210 C1211 1.394 . S
C1210 C1216 1.465 . S
C1211 C1206 1.399 . S
C1211 C1210 1.394 . S
C1211 C1212 1.516 . S
C1212 C1211 1.516 . S
C1212 C1213 1.502 . S
C1212 C1214 1.561 . S
C1212 C1215 1.526 . S
C1213 H1197 0.959 . S
C1213 H1198 0.959 . S
C1213 H1199 0.961 . S
C1213 C1212 1.502 . S
C1214 H1200 0.960 . S
C1214 H1201 0.961 . S
C1214 H1202 0.959 . S
C1214 C1212 1.561 . S
C1215 C1212 1.526 . S
C1215 C1216 1.396 . S
C1215 C1220 1.390 . S
C1216 C1210 1.465 . S
C1216 C1215 1.396 . S
C1216 C1217 1.399 . S
C1217 H1203 0.929 . S
C1217 C1216 1.399 . S
C1217 C1218 1.385 . S
C1218 H1204 0.931 . S
C1218 C1217 1.385 . S
C1218 C1219 1.389 . S
C1219 C1218 1.389 . S
C1219 C1220 1.387 . S
C1220 H1205 0.930 . S
C1220 C1215 1.390 . S
C1220 C1219 1.387 . S
H1221 C1233 0.930 . S
H1222 C1235 0.930 . S
H1223 C1236 0.930 . S
H1224 C1240 0.959 . S
H1225 C1240 0.959 . S
H1226 C1240 0.961 . S
H1227 C1241 0.960 . S
H1228 C1241 0.961 . S
H1229 C1241 0.959 . S
H1230 C1244 0.929 . S
H1231 C1245 0.931 . S
H1232 C1247 0.930 . S
C1233 H1221 0.930 . S
C1233 C1234 1.399 . S
C1233 C1238 1.399 . S
C1234 C1233 1.399 . S
C1234 C1235 1.376 . S
C1235 H1222 0.930 . S
C1235 C1234 1.376 . S
C1235 C1236 1.388 . S
C1236 H1223 0.930 . S
C1236 C1235 1.388 . S
C1236 C1237 1.390 . S
C1237 C1236 1.390 . S
C1237 C1238 1.394 . S
C1237 C1243 1.465 . S
C1238 C1233 1.399 . S
C1238 C1237 1.394 . S
C1238 C1239 1.516 . S
C1239 C1238 1.516 . S
C1239 C1240 1.502 . S
C1239 C1241 1.561 . S
C1239 C1242 1.526 . S
C1240 H1224 0.959 . S
C1240 H1225 0.959 . S
C1240 H1226 0.961 . S
C1240 C1239 1.502 . S
C1241 H1227 0.960 . S
C1241 H1228 0.961 . S
C1241 H1229 0.959 . S
C1241 C1239 1.561 . S
C1242 C1239 1.526 . S
C1242 C1243 1.396 . S
C1242 C1247 1.390 . S
C1243 C1237 1.465 . S
C1243 C1242 1.396 . S
C1243 C1244 1.399 . S
C1244 H1230 0.929 . S
C1244 C1243 1.399 . S
C1244 C1245 1.385 . S
C1245 H1231 0.931 . S
C1245 C1244 1.385 . S
C1245 C1246 1.389 . S
C1246 C1245 1.389 . S
C1246 C1247 1.387 . S
C1247 H1232 0.930 . S
C1247 C1242 1.390 . S
C1247 C1246 1.387 . S
H1248 C1260 0.930 . S
H1249 C1262 0.930 . S
H1250 C1263 0.930 . S
H1251 C1267 0.959 . S
H1252 C1267 0.959 . S
H1253 C1267 0.961 . S
H1254 C1268 0.960 . S
H1255 C1268 0.961 . S
H1256 C1268 0.959 . S
H1257 C1271 0.929 . S
H1258 C1272 0.931 . S
H1259 C1274 0.930 . S
C1260 H1248 0.930 . S
C1260 C1261 1.399 . S
C1260 C1265 1.399 . S
C1261 C1260 1.399 . S
C1261 C1262 1.376 . S
C1262 H1249 0.930 . S
C1262 C1261 1.376 . S
C1262 C1263 1.388 . S
C1263 H1250 0.930 . S
C1263 C1262 1.388 . S
C1263 C1264 1.390 . S
C1264 C1263 1.390 . S
C1264 C1265 1.394 . S
C1264 C1270 1.465 . S
C1265 C1260 1.399 . S
C1265 C1264 1.394 . S
C1265 C1266 1.516 . S
C1266 C1265 1.516 . S
C1266 C1267 1.502 . S
C1266 C1268 1.561 . S
C1266 C1269 1.526 . S
C1267 H1251 0.959 . S
C1267 H1252 0.959 . S
C1267 H1253 0.961 . S
C1267 C1266 1.502 . S
C1268 H1254 0.960 . S
C1268 H1255 0.961 . S
C1268 H1256 0.959 . S
C1268 C1266 1.561 . S
C1269 C1266 1.526 . S
C1269 C1270 1.396 . S
C1269 C1274 1.390 . S
C1270 C1264 1.465 . S
C1270 C1269 1.396 . S
C1270 C1271 1.399 . S
C1271 H1257 0.929 . S
C1271 C1270 1.399 . S
C1271 C1272 1.385 . S
C1272 H1258 0.931 . S
C1272 C1271 1.385 . S
C1272 C1273 1.389 . S
C1273 C1272 1.389 . S
C1273 C1274 1.387 . S
C1274 H1259 0.930 . S
C1274 C1269 1.390 . S
C1274 C1273 1.387 . S
H1275 C1287 0.930 . S
H1276 C1289 0.930 . S
H1277 C1290 0.930 . S
H1278 C1294 0.959 . S
H1279 C1294 0.959 . S
H1280 C1294 0.961 . S
H1281 C1295 0.960 . S
H1282 C1295 0.961 . S
H1283 C1295 0.959 . S
H1284 C1298 0.929 . S
H1285 C1299 0.931 . S
H1286 C1301 0.930 . S
C1287 H1275 0.930 . S
C1287 C1288 1.399 . S
C1287 C1292 1.399 . S
C1288 C1287 1.399 . S
C1288 C1289 1.376 . S
C1289 H1276 0.930 . S
C1289 C1288 1.376 . S
C1289 C1290 1.388 . S
C1290 H1277 0.930 . S
C1290 C1289 1.388 . S
C1290 C1291 1.390 . S
C1291 C1290 1.390 . S
C1291 C1292 1.394 . S
C1291 C1297 1.465 . S
C1292 C1287 1.399 . S
C1292 C1291 1.394 . S
C1292 C1293 1.516 . S
C1293 C1292 1.516 . S
C1293 C1294 1.502 . S
C1293 C1295 1.561 . S
C1293 C1296 1.526 . S
C1294 H1278 0.959 . S
C1294 H1279 0.959 . S
C1294 H1280 0.961 . S
C1294 C1293 1.502 . S
C1295 H1281 0.960 . S
C1295 H1282 0.961 . S
C1295 H1283 0.959 . S
C1295 C1293 1.561 . S
C1296 C1293 1.526 . S
C1296 C1297 1.396 . S
C1296 C1301 1.390 . S
C1297 C1291 1.465 . S
C1297 C1296 1.396 . S
C1297 C1298 1.399 . S
C1298 H1284 0.929 . S
C1298 C1297 1.399 . S
C1298 C1299 1.385 . S
C1299 H1285 0.931 . S
C1299 C1298 1.385 . S
C1299 C1300 1.389 . S
C1300 C1299 1.389 . S
C1300 C1301 1.387 . S
C1301 H1286 0.930 . S
C1301 C1296 1.390 . S
C1301 C1300 1.387 . S
H1302 C1314 0.930 . S
H1303 C1316 0.930 . S
H1304 C1317 0.930 . S
H1305 C1321 0.959 . S
H1306 C1321 0.959 . S
H1307 C1321 0.961 . S
H1308 C1322 0.960 . S
H1309 C1322 0.961 . S
H1310 C1322 0.959 . S
H1311 C1325 0.929 . S
H1312 C1326 0.931 . S
H1313 C1328 0.930 . S
C1314 H1302 0.930 . S
C1314 C1315 1.399 . S
C1314 C1319 1.399 . S
C1315 C1314 1.399 . S
C1315 C1316 1.376 . S
C1316 H1303 0.930 . S
C1316 C1315 1.376 . S
C1316 C1317 1.388 . S
C1317 H1304 0.930 . S
C1317 C1316 1.388 . S
C1317 C1318 1.390 . S
C1318 C1317 1.390 . S
C1318 C1319 1.394 . S
C1318 C1324 1.465 . S
C1319 C1314 1.399 . S
C1319 C1318 1.394 . S
C1319 C1320 1.516 . S
C1320 C1319 1.516 . S
C1320 C1321 1.502 . S
C1320 C1322 1.561 . S
C1320 C1323 1.526 . S
C1321 H1305 0.959 . S
C1321 H1306 0.959 . S
C1321 H1307 0.961 . S
C1321 C1320 1.502 . S
C1322 H1308 0.960 . S
C1322 H1309 0.961 . S
C1322 H1310 0.959 . S
C1322 C1320 1.561 . S
C1323 C1320 1.526 . S
C1323 C1324 1.396 . S
C1323 C1328 1.390 . S
C1324 C1318 1.465 . S
C1324 C1323 1.396 . S
C1324 C1325 1.399 . S
C1325 H1311 0.929 . S
C1325 C1324 1.399 . S
C1325 C1326 1.385 . S
C1326 H1312 0.931 . S
C1326 C1325 1.385 . S
C1326 C1327 1.389 . S
C1327 C1326 1.389 . S
C1327 C1328 1.387 . S
C1328 H1313 0.930 . S
C1328 C1323 1.390 . S
C1328 C1327 1.387 . S
H1329 C1341 0.930 . S
H1330 C1343 0.930 . S
H1331 C1344 0.930 . S
H1332 C1348 0.959 . S
H1333 C1348 0.959 . S
H1334 C1348 0.961 . S
H1335 C1349 0.960 . S
H1336 C1349 0.961 . S
H1337 C1349 0.959 . S
H1338 C1352 0.929 . S
H1339 C1353 0.931 . S
H1340 C1355 0.930 . S
C1341 H1329 0.930 . S
C1341 C1342 1.399 . S
C1341 C1346 1.399 . S
C1342 C1341 1.399 . S
C1342 C1343 1.376 . S
C1343 H1330 0.930 . S
C1343 C1342 1.376 . S
C1343 C1344 1.388 . S
C1344 H1331 0.930 . S
C1344 C1343 1.388 . S
C1344 C1345 1.390 . S
C1345 C1344 1.390 . S
C1345 C1346 1.394 . S
C1345 C1351 1.465 . S
C1346 C1341 1.399 . S
C1346 C1345 1.394 . S
C1346 C1347 1.516 . S
C1347 C1346 1.516 . S
C1347 C1348 1.502 . S
C1347 C1349 1.561 . S
C1347 C1350 1.526 . S
C1348 H1332 0.959 . S
C1348 H1333 0.959 . S
C1348 H1334 0.961 . S
C1348 C1347 1.502 . S
C1349 H1335 0.960 . S
C1349 H1336 0.961 . S
C1349 H1337 0.959 . S
C1349 C1347 1.561 . S
C1350 C1347 1.526 . S
C1350 C1351 1.396 . S
C1350 C1355 1.390 . S
C1351 C1345 1.465 . S
C1351 C1350 1.396 . S
C1351 C1352 1.399 . S
C1352 H1338 0.929 . S
C1352 C1351 1.399 . S
C1352 C1353 1.385 . S
C1353 H1339 0.931 . S
C1353 C1352 1.385 . S
C1353 C1354 1.389 . S
C1354 C1353 1.389 . S
C1354 C1355 1.387 . S
C1355 H1340 0.930 . S
C1355 C1350 1.390 . S
C1355 C1354 1.387 . S
H1356 C1368 0.930 . S
H1357 C1370 0.930 . S
H1358 C1371 0.930 . S
H1359 C1375 0.959 . S
H1360 C1375 0.959 1_455 S
H1361 C1375 0.961 . S
H1362 C1376 0.960 . S
H1363 C1376 0.961 . S
H1364 C1376 0.959 . S
H1365 C1379 0.929 . S
H1366 C1380 0.931 . S
H1367 C1382 0.930 . S
C1368 H1356 0.930 . S
C1368 C1369 1.399 . S
C1368 C1373 1.399 . S
C1369 C1368 1.399 . S
C1369 C1370 1.376 . S
C1370 H1357 0.930 . S
C1370 C1369 1.376 . S
C1370 C1371 1.388 . S
C1371 H1358 0.930 . S
C1371 C1370 1.388 . S
C1371 C1372 1.390 . S
C1372 C1371 1.390 . S
C1372 C1373 1.394 . S
C1372 C1378 1.465 . S
C1373 C1368 1.399 . S
C1373 C1372 1.394 . S
C1373 C1374 1.516 . S
C1374 C1373 1.516 . S
C1374 C1375 1.502 . S
C1374 C1376 1.561 . S
C1374 C1377 1.526 . S
C1375 H1359 0.959 . S
C1375 H1360 0.959 1_655 S
C1375 H1361 0.961 . S
C1375 C1374 1.502 . S
C1376 H1362 0.960 . S
C1376 H1363 0.961 . S
C1376 H1364 0.959 . S
C1376 C1374 1.561 . S
C1377 C1374 1.526 . S
C1377 C1378 1.396 . S
C1377 C1382 1.390 . S
C1378 C1372 1.465 . S
C1378 C1377 1.396 . S
C1378 C1379 1.399 . S
C1379 H1365 0.929 . S
C1379 C1378 1.399 . S
C1379 C1380 1.385 . S
C1380 H1366 0.931 . S
C1380 C1379 1.385 . S
C1380 C1381 1.389 . S
C1381 C1380 1.389 . S
C1381 C1382 1.387 . S
C1382 H1367 0.930 . S
C1382 C1377 1.390 . S
C1382 C1381 1.387 . S
H1383 C1395 0.930 . S
H1384 C1397 0.930 . S
H1385 C1398 0.930 . S
H1386 C1402 0.959 . S
H1387 C1402 0.959 . S
H1388 C1402 0.961 . S
H1389 C1403 0.960 . S
H1390 C1403 0.961 . S
H1391 C1403 0.959 . S
H1392 C1406 0.929 . S
H1393 C1407 0.931 . S
H1394 C1409 0.930 . S
C1395 H1383 0.930 . S
C1395 C1396 1.399 . S
C1395 C1400 1.399 . S
C1396 C1395 1.399 . S
C1396 C1397 1.376 . S
C1397 H1384 0.930 . S
C1397 C1396 1.376 . S
C1397 C1398 1.388 . S
C1398 H1385 0.930 . S
C1398 C1397 1.388 . S
C1398 C1399 1.390 . S
C1399 C1398 1.390 . S
C1399 C1400 1.394 . S
C1399 C1405 1.465 . S
C1400 C1395 1.399 . S
C1400 C1399 1.394 . S
C1400 C1401 1.516 . S
C1401 C1400 1.516 . S
C1401 C1402 1.502 . S
C1401 C1403 1.561 . S
C1401 C1404 1.526 . S
C1402 H1386 0.959 . S
C1402 H1387 0.959 . S
C1402 H1388 0.961 . S
C1402 C1401 1.502 . S
C1403 H1389 0.960 . S
C1403 H1390 0.961 . S
C1403 H1391 0.959 . S
C1403 C1401 1.561 . S
C1404 C1401 1.526 . S
C1404 C1405 1.396 . S
C1404 C1409 1.390 . S
C1405 C1399 1.465 . S
C1405 C1404 1.396 . S
C1405 C1406 1.399 . S
C1406 H1392 0.929 . S
C1406 C1405 1.399 . S
C1406 C1407 1.385 . S
C1407 H1393 0.931 . S
C1407 C1406 1.385 . S
C1407 C1408 1.389 . S
C1408 C1407 1.389 . S
C1408 C1409 1.387 . S
C1409 H1394 0.930 . S
C1409 C1404 1.390 . S
C1409 C1408 1.387 . S
H1410 C1422 0.930 . S
H1411 C1424 0.930 . S
H1412 C1425 0.930 . S
H1413 C1429 0.959 . S
H1414 C1429 0.959 . S
H1415 C1429 0.961 . S
H1416 C1430 0.960 . S
H1417 C1430 0.961 . S
H1418 C1430 0.959 . S
H1419 C1433 0.929 . S
H1420 C1434 0.931 . S
H1421 C1436 0.930 . S
C1422 H1410 0.930 . S
C1422 C1423 1.399 . S
C1422 C1427 1.399 . S
C1423 C1422 1.399 . S
C1423 C1424 1.376 . S
C1424 H1411 0.930 . S
C1424 C1423 1.376 . S
C1424 C1425 1.388 . S
C1425 H1412 0.930 . S
C1425 C1424 1.388 . S
C1425 C1426 1.390 . S
C1426 C1425 1.390 . S
C1426 C1427 1.394 . S
C1426 C1432 1.465 . S
C1427 C1422 1.399 . S
C1427 C1426 1.394 . S
C1427 C1428 1.516 . S
C1428 C1427 1.516 . S
C1428 C1429 1.502 . S
C1428 C1430 1.561 . S
C1428 C1431 1.526 . S
C1429 H1413 0.959 . S
C1429 H1414 0.959 . S
C1429 H1415 0.961 . S
C1429 C1428 1.502 . S
C1430 H1416 0.960 . S
C1430 H1417 0.961 . S
C1430 H1418 0.959 . S
C1430 C1428 1.561 . S
C1431 C1428 1.526 . S
C1431 C1432 1.396 . S
C1431 C1436 1.390 . S
C1432 C1426 1.465 . S
C1432 C1431 1.396 . S
C1432 C1433 1.399 . S
C1433 H1419 0.929 . S
C1433 C1432 1.399 . S
C1433 C1434 1.385 . S
C1434 H1420 0.931 . S
C1434 C1433 1.385 . S
C1434 C1435 1.389 . S
C1435 C1434 1.389 . S
C1435 C1436 1.387 . S
C1436 H1421 0.930 . S
C1436 C1431 1.390 . S
C1436 C1435 1.387 . S
H1437 C1449 0.930 . S
H1438 C1451 0.930 . S
H1439 C1452 0.930 . S
H1440 C1456 0.959 . S
H1441 C1456 0.959 1_655 S
H1442 C1456 0.961 . S
H1443 C1457 0.960 . S
H1444 C1457 0.961 . S
H1445 C1457 0.959 . S
H1446 C1460 0.929 . S
H1447 C1461 0.931 . S
H1448 C1463 0.930 . S
C1449 H1437 0.930 . S
C1449 C1450 1.399 . S
C1449 C1454 1.399 . S
C1450 C1449 1.399 . S
C1450 C1451 1.376 . S
C1451 H1438 0.930 . S
C1451 C1450 1.376 . S
C1451 C1452 1.388 . S
C1452 H1439 0.930 . S
C1452 C1451 1.388 . S
C1452 C1453 1.390 . S
C1453 C1452 1.390 . S
C1453 C1454 1.394 . S
C1453 C1459 1.465 . S
C1454 C1449 1.399 . S
C1454 C1453 1.394 . S
C1454 C1455 1.516 . S
C1455 C1454 1.516 . S
C1455 C1456 1.502 . S
C1455 C1457 1.561 . S
C1455 C1458 1.526 . S
C1456 H1440 0.959 . S
C1456 H1441 0.959 1_455 S
C1456 H1442 0.961 . S
C1456 C1455 1.502 . S
C1457 H1443 0.960 . S
C1457 H1444 0.961 . S
C1457 H1445 0.959 . S
C1457 C1455 1.561 . S
C1458 C1455 1.526 . S
C1458 C1459 1.396 . S
C1458 C1463 1.390 . S
C1459 C1453 1.465 . S
C1459 C1458 1.396 . S
C1459 C1460 1.399 . S
C1460 H1446 0.929 . S
C1460 C1459 1.399 . S
C1460 C1461 1.385 . S
C1461 H1447 0.931 . S
C1461 C1460 1.385 . S
C1461 C1462 1.389 . S
C1462 C1461 1.389 . S
C1462 C1463 1.387 . S
C1463 H1448 0.930 . S
C1463 C1458 1.390 . S
C1463 C1462 1.387 . S
C829 C361 1.410 . S
C841 C536 1.473 . S
C868 C620 1.468 . S
C856 C451 1.469 . S
C895 C619 1.462 . S
C883 C241 1.458 . S
C910 C331 1.455 . S
C922 C535 1.444 . S
C949 C716 1.463 . S
C937 C140 1.454 . S
C976 C800 1.428 . S
C964 C211 1.396 . S
C991 C20 1.415 . S
C1003 C799 1.463 . S
C1018 C91 1.396 . S
C1030 C715 1.467 . S
C1057 C538 1.346 . S
C1045 C80 1.500 1_554 S
C1084 C622 1.322 . S
C1072 C1 1.434 . S
C1111 C634 1.394 . S
C1099 C200 1.496 1_556 S
C1138 C550 1.343 . S
C1126 C121 1.526 . S
C1165 C718 1.263 . S
C1153 C320 1.483 1_556 S
C1180 C260 1.452 . S
C1192 C802 1.394 . S
C1219 C790 1.418 . S
C1207 C440 1.512 1_554 S
C1234 C380 1.532 . S
C1246 C706 1.410 . S
C1273 C547 1.567 . S
C1261 C31 1.546 . S
C1300 C631 1.586 . S
C1288 C61 1.579 . S
C1315 C151 1.563 . S
C1327 C632 1.551 . S
C1354 C548 1.571 . S
C1342 C181 1.528 . S
C1381 C703 1.584 . S
C1369 C271 1.476 . S
C1396 C301 1.574 . S
C1408 C787 1.572 . S
C1423 C391 1.470 . S
C1435 C788 1.541 . S
C1450 C421 1.565 . S
C1462 C704 1.548 . S
