# Generated by pormake.
# Topology eea, (3,6)-cn, num edge types: 1
# Building blocks:
#     Node 0, Type 0, BuildingBlock: ESEHIV_clean_linker_0, # of connection points: 3
#     Node 1, Type 0, BuildingBlock: ESEHIV_clean_linker_0, # of connection points: 3
#     Node 2, Type 0, BuildingBlock: ESEHIV_clean_linker_0, # of connection points: 3
#     Node 3, Type 0, BuildingBlock: ESEHIV_clean_linker_0, # of connection points: 3
#     Node 4, Type 0, BuildingBlock: ESEHIV_clean_linker_0, # of connection points: 3
#     Node 5, Type 0, BuildingBlock: ESEHIV_clean_linker_0, # of connection points: 3
#     Node 6, Type 0, BuildingBlock: ESEHIV_clean_linker_0, # of connection points: 3
#     Node 7, Type 0, BuildingBlock: ESEHIV_clean_linker_0, # of connection points: 3
#     Node 8, Type 0, BuildingBlock: ESEHIV_clean_linker_0, # of connection points: 3
#     Node 9, Type 0, BuildingBlock: ESEHIV_clean_linker_0, # of connection points: 3
#     Node 10, Type 0, BuildingBlock: ESEHIV_clean_linker_0, # of connection points: 3
#     Node 11, Type 0, BuildingBlock: ESEHIV_clean_linker_0, # of connection points: 3
#     Node 12, Type 0, BuildingBlock: ESEHIV_clean_linker_0, # of connection points: 3
#     Node 13, Type 0, BuildingBlock: ESEHIV_clean_linker_0, # of connection points: 3
#     Node 14, Type 0, BuildingBlock: ESEHIV_clean_linker_0, # of connection points: 3
#     Node 15, Type 0, BuildingBlock: ESEHIV_clean_linker_0, # of connection points: 3
#     Node 16, Type 0, BuildingBlock: ESEHIV_clean_linker_0, # of connection points: 3
#     Node 17, Type 0, BuildingBlock: ESEHIV_clean_linker_0, # of connection points: 3
#     Node 18, Type 1, BuildingBlock: NUHQIS_clean_sbu_0, # of connection points: 6
#     Node 19, Type 1, BuildingBlock: NUHQIS_clean_sbu_0, # of connection points: 6
#     Node 20, Type 1, BuildingBlock: NUHQIS_clean_sbu_0, # of connection points: 6
#     Node 21, Type 1, BuildingBlock: NUHQIS_clean_sbu_0, # of connection points: 6
#     Node 22, Type 1, BuildingBlock: NUHQIS_clean_sbu_0, # of connection points: 6
#     Node 23, Type 1, BuildingBlock: NUHQIS_clean_sbu_0, # of connection points: 6
#     Node 24, Type 1, BuildingBlock: NUHQIS_clean_sbu_0, # of connection points: 6
#     Node 25, Type 1, BuildingBlock: NUHQIS_clean_sbu_0, # of connection points: 6
#     Node 26, Type 1, BuildingBlock: NUHQIS_clean_sbu_0, # of connection points: 6
#     Edge 27, Type (0, 1), BuildingBlock: AJUNOK_clean_linker_0, # of connection points: 2
#     Edge 28, Type (0, 1), BuildingBlock: AJUNOK_clean_linker_0, # of connection points: 2
#     Edge 29, Type (0, 1), BuildingBlock: AJUNOK_clean_linker_0, # of connection points: 2
#     Edge 30, Type (0, 1), BuildingBlock: AJUNOK_clean_linker_0, # of connection points: 2
#     Edge 31, Type (0, 1), BuildingBlock: AJUNOK_clean_linker_0, # of connection points: 2
#     Edge 32, Type (0, 1), BuildingBlock: AJUNOK_clean_linker_0, # of connection points: 2
#     Edge 33, Type (0, 1), BuildingBlock: AJUNOK_clean_linker_0, # of connection points: 2
#     Edge 34, Type (0, 1), BuildingBlock: AJUNOK_clean_linker_0, # of connection points: 2
#     Edge 35, Type (0, 1), BuildingBlock: AJUNOK_clean_linker_0, # of connection points: 2
#     Edge 36, Type (0, 1), BuildingBlock: AJUNOK_clean_linker_0, # of connection points: 2
#     Edge 37, Type (0, 1), BuildingBlock: AJUNOK_clean_linker_0, # of connection points: 2
#     Edge 38, Type (0, 1), BuildingBlock: AJUNOK_clean_linker_0, # of connection points: 2
#     Edge 39, Type (0, 1), BuildingBlock: AJUNOK_clean_linker_0, # of connection points: 2
#     Edge 40, Type (0, 1), BuildingBlock: AJUNOK_clean_linker_0, # of connection points: 2
#     Edge 41, Type (0, 1), BuildingBlock: AJUNOK_clean_linker_0, # of connection points: 2
#     Edge 42, Type (0, 1), BuildingBlock: AJUNOK_clean_linker_0, # of connection points: 2
#     Edge 43, Type (0, 1), BuildingBlock: AJUNOK_clean_linker_0, # of connection points: 2
#     Edge 44, Type (0, 1), BuildingBlock: AJUNOK_clean_linker_0, # of connection points: 2
#     Edge 45, Type (0, 1), BuildingBlock: AJUNOK_clean_linker_0, # of connection points: 2
#     Edge 46, Type (0, 1), BuildingBlock: AJUNOK_clean_linker_0, # of connection points: 2
#     Edge 47, Type (0, 1), BuildingBlock: AJUNOK_clean_linker_0, # of connection points: 2
#     Edge 48, Type (0, 1), BuildingBlock: AJUNOK_clean_linker_0, # of connection points: 2
#     Edge 49, Type (0, 1), BuildingBlock: AJUNOK_clean_linker_0, # of connection points: 2
#     Edge 50, Type (0, 1), BuildingBlock: AJUNOK_clean_linker_0, # of connection points: 2
#     Edge 51, Type (0, 1), BuildingBlock: AJUNOK_clean_linker_0, # of connection points: 2
#     Edge 52, Type (0, 1), BuildingBlock: AJUNOK_clean_linker_0, # of connection points: 2
#     Edge 53, Type (0, 1), BuildingBlock: AJUNOK_clean_linker_0, # of connection points: 2
#     Edge 54, Type (0, 1), BuildingBlock: AJUNOK_clean_linker_0, # of connection points: 2
#     Edge 55, Type (0, 1), BuildingBlock: AJUNOK_clean_linker_0, # of connection points: 2
#     Edge 56, Type (0, 1), BuildingBlock: AJUNOK_clean_linker_0, # of connection points: 2
#     Edge 57, Type (0, 1), BuildingBlock: AJUNOK_clean_linker_0, # of connection points: 2
#     Edge 58, Type (0, 1), BuildingBlock: AJUNOK_clean_linker_0, # of connection points: 2
#     Edge 59, Type (0, 1), BuildingBlock: AJUNOK_clean_linker_0, # of connection points: 2
#     Edge 60, Type (0, 1), BuildingBlock: AJUNOK_clean_linker_0, # of connection points: 2
#     Edge 61, Type (0, 1), BuildingBlock: AJUNOK_clean_linker_0, # of connection points: 2
#     Edge 62, Type (0, 1), BuildingBlock: AJUNOK_clean_linker_0, # of connection points: 2
#     Edge 63, Type (0, 1), BuildingBlock: AJUNOK_clean_linker_0, # of connection points: 2
#     Edge 64, Type (0, 1), BuildingBlock: AJUNOK_clean_linker_0, # of connection points: 2
#     Edge 65, Type (0, 1), BuildingBlock: AJUNOK_clean_linker_0, # of connection points: 2
#     Edge 66, Type (0, 1), BuildingBlock: AJUNOK_clean_linker_0, # of connection points: 2
#     Edge 67, Type (0, 1), BuildingBlock: AJUNOK_clean_linker_0, # of connection points: 2
#     Edge 68, Type (0, 1), BuildingBlock: AJUNOK_clean_linker_0, # of connection points: 2
#     Edge 69, Type (0, 1), BuildingBlock: AJUNOK_clean_linker_0, # of connection points: 2
#     Edge 70, Type (0, 1), BuildingBlock: AJUNOK_clean_linker_0, # of connection points: 2
#     Edge 71, Type (0, 1), BuildingBlock: AJUNOK_clean_linker_0, # of connection points: 2
#     Edge 72, Type (0, 1), BuildingBlock: AJUNOK_clean_linker_0, # of connection points: 2
#     Edge 73, Type (0, 1), BuildingBlock: AJUNOK_clean_linker_0, # of connection points: 2
#     Edge 74, Type (0, 1), BuildingBlock: AJUNOK_clean_linker_0, # of connection points: 2
#     Edge 75, Type (0, 1), BuildingBlock: AJUNOK_clean_linker_0, # of connection points: 2
#     Edge 76, Type (0, 1), BuildingBlock: AJUNOK_clean_linker_0, # of connection points: 2
#     Edge 77, Type (0, 1), BuildingBlock: AJUNOK_clean_linker_0, # of connection points: 2
#     Edge 78, Type (0, 1), BuildingBlock: AJUNOK_clean_linker_0, # of connection points: 2
#     Edge 79, Type (0, 1), BuildingBlock: AJUNOK_clean_linker_0, # of connection points: 2
#     Edge 80, Type (0, 1), BuildingBlock: AJUNOK_clean_linker_0, # of connection points: 2
# Relax obj value: 0.034
# Max RMSD: 0.130
# Mean RMSD: 0.112
data_MOF--net-eea--node1-NUHQIS_clean_sbu_0--node2-ESEHIV_clean_linker_0--edge1-AJUNOK_clean_linker_0
_symmetry_space_group_name_H-M    P1
_symmetry_Int_Tables_number       1
_symmetry_cell_setting            triclinic
loop_
_symmetry_equiv_pos_as_xyz
'x, y, z'
_cell_length_a     33.988678
_cell_length_b     34.368822
_cell_length_c     55.912967
_cell_angle_alpha  92.802635
_cell_angle_beta   92.367303
_cell_angle_gamma 120.05446
loop_
_atom_site_label
_atom_site_type_symbol
_atom_site_fract_x
_atom_site_fract_y
_atom_site_fract_z
_atom_type_partial_charge
H0 H 0.27317 0.20053 0.45236 0.0
H1 H 0.267 0.07293 0.45615 0.0
H2 H 0.22487 0.10579 0.39026 0.0
C3 C 0.26509 0.16803 0.44397 0.0
C4 C 0.24593 0.15543 0.42017 0.0
C5 C 0.2736 0.13865 0.45693 0.0
C6 C 0.26263 0.09652 0.44581 0.0
C7 C 0.24525 0.0844 0.4217 0.0
C8 C 0.23748 0.11436 0.40901 0.0
H9 H 0.82257 0.09081 0.45407 0.0
H10 H 0.94797 0.21708 0.45207 0.0
H11 H 0.90349 0.11443 0.39372 0.0
C12 C 0.85243 0.11293 0.44494 0.0
C13 C 0.85861 0.09838 0.42229 0.0
C14 C 0.8846 0.15556 0.45601 0.0
C15 C 0.92325 0.18385 0.44392 0.0
C16 C 0.92968 0.1695 0.42111 0.0
C17 C 0.89754 0.12655 0.41069 0.0
H18 H 0.81203 0.7343 0.45464 0.0
H19 H 0.94433 0.74579 0.45967 0.0
H20 H 0.90293 0.79267 0.39903 0.0
C21 C 0.84478 0.74512 0.44749 0.0
C22 C 0.85357 0.76465 0.42538 0.0
C23 C 0.87751 0.73892 0.46034 0.0
C24 C 0.91893 0.75063 0.45009 0.0
C25 C 0.9283 0.76999 0.42785 0.0
C26 C 0.89555 0.77714 0.41589 0.0
H27 H 0.07027 0.25755 0.58872 0.0
H28 H 0.19205 0.24856 0.5883 0.0
H29 H 0.10892 0.20516 0.64807 0.0
C30 C 0.09356 0.24883 0.59743 0.0
C31 C 0.08418 0.22974 0.6198 0.0
C32 C 0.13331 0.25717 0.5863 0.0
C33 C 0.16244 0.24402 0.59719 0.0
C34 C 0.15336 0.22432 0.6192 0.0
C35 C 0.11476 0.21824 0.63052 0.0
H36 H 0.73482 0.91899 0.59325 0.0
H37 H 0.73225 0.79288 0.59461 0.0
H38 H 0.78863 0.88963 0.65624 0.0
C39 C 0.7422 0.89622 0.60264 0.0
C40 C 0.76395 0.90948 0.62582 0.0
C41 C 0.73016 0.85402 0.59139 0.0
C42 C 0.73952 0.82462 0.60369 0.0
C43 C 0.7601 0.83698 0.62726 0.0
C44 C 0.77207 0.87947 0.63822 0.0
H45 H 0.06662 0.7777 0.59186 0.0
H46 H 0.18767 0.90678 0.589 0.0
H47 H 0.1124 0.87733 0.65193 0.0
C48 C 0.09106 0.81082 0.60026 0.0
C49 C 0.08493 0.82417 0.62342 0.0
C50 C 0.12928 0.83999 0.58816 0.0
C51 C 0.15997 0.88327 0.59896 0.0
C52 C 0.15474 0.89678 0.62212 0.0
C53 C 0.11715 0.86692 0.63419 0.0
H54 H 0.96295 0.54786 0.78444 0.0
H55 H 0.95569 0.4193 0.78567 0.0
H56 H 0.90273 0.45096 0.72318 0.0
C57 C 0.95367 0.51528 0.77563 0.0
C58 C 0.93224 0.50309 0.75225 0.0
C59 C 0.9627 0.48535 0.78771 0.0
C60 C 0.95021 0.44315 0.77618 0.0
C61 C 0.92823 0.43047 0.75302 0.0
C62 C 0.92009 0.46087 0.74102 0.0
H63 H 0.49562 0.40618 0.7901 0.0
H64 H 0.61868 0.53429 0.78754 0.0
H65 H 0.57303 0.43353 0.72813 0.0
C66 C 0.52481 0.42893 0.78074 0.0
C67 C 0.53125 0.41449 0.7581 0.0
C68 C 0.55602 0.47214 0.79156 0.0
C69 C 0.59449 0.50084 0.77945 0.0
C70 C 0.60154 0.4866 0.75676 0.0
C71 C 0.56919 0.4438 0.74611 0.0
H72 H 0.48357 0.06157 0.78835 0.0
H73 H 0.61382 0.06815 0.78936 0.0
H74 H 0.56863 0.11444 0.72996 0.0
C75 C 0.51495 0.07021 0.78011 0.0
C76 C 0.52184 0.08807 0.75755 0.0
C77 C 0.54773 0.06259 0.79189 0.0
C78 C 0.58792 0.07315 0.7805 0.0
C79 C 0.59498 0.09043 0.75769 0.0
C80 C 0.5622 0.09867 0.74678 0.0
H81 H 0.72741 0.58179 0.92169 0.0
H82 H 0.85465 0.58359 0.91961 0.0
H83 H 0.77495 0.53567 0.98047 0.0
C84 C 0.75275 0.57536 0.93001 0.0
C85 C 0.746 0.55698 0.95251 0.0
C86 C 0.79158 0.58437 0.91789 0.0
C87 C 0.82411 0.57546 0.9286 0.0
C88 C 0.81819 0.55749 0.9511 0.0
C89 C 0.77928 0.54882 0.96295 0.0
H90 H 0.40493 0.25703 0.928 0.0
H91 H 0.40774 0.13341 0.92542 0.0
H92 H 0.44785 0.21828 0.99141 0.0
C93 C 0.41106 0.23313 0.93699 0.0
C94 C 0.42715 0.24227 0.96124 0.0
C95 C 0.40351 0.19376 0.92406 0.0
C96 C 0.41232 0.16327 0.93557 0.0
C97 C 0.42864 0.17214 0.95987 0.0
C98 C 0.43566 0.21152 0.9726 0.0
H99 H 0.7251 0.11745 0.92219 0.0
H100 H 0.85042 0.24318 0.92004 0.0
H101 H 0.77634 0.21591 0.9832 0.0
C102 C 0.75077 0.14975 0.93089 0.0
C103 C 0.74558 0.16331 0.95427 0.0
C104 C 0.78931 0.17805 0.91871 0.0
C105 C 0.82176 0.22052 0.92975 0.0
C106 C 0.8171 0.23443 0.95289 0.0
C107 C 0.77928 0.20552 0.96506 0.0
H108 H 0.62613 0.87917 0.1192 0.0
H109 H 0.61744 0.74983 0.11883 0.0
H110 H 0.56613 0.78461 0.05695 0.0
C111 C 0.61675 0.84687 0.10998 0.0
C112 C 0.59565 0.83569 0.08653 0.0
C113 C 0.62576 0.81644 0.12153 0.0
C114 C 0.61245 0.77428 0.10965 0.0
C115 C 0.59069 0.76258 0.08645 0.0
C116 C 0.58311 0.79369 0.07487 0.0
H117 H 0.16002 0.74024 0.12224 0.0
H118 H 0.28661 0.86594 0.12294 0.0
H119 H 0.23878 0.77075 0.06069 0.0
C120 C 0.19026 0.76289 0.11354 0.0
C121 C 0.19583 0.75062 0.0902 0.0
C122 C 0.22252 0.80455 0.12549 0.0
C123 C 0.26102 0.83417 0.11367 0.0
C124 C 0.26697 0.82235 0.0901 0.0
C125 C 0.23433 0.78032 0.07869 0.0
H126 H 0.15143 0.40154 0.12237 0.0
H127 H 0.27492 0.39558 0.12069 0.0
H128 H 0.23317 0.44678 0.06211 0.0
C129 C 0.18066 0.40614 0.1131 0.0
C130 C 0.18785 0.42423 0.0906 0.0
C131 C 0.21126 0.39474 0.124 0.0
C132 C 0.25087 0.40385 0.11248 0.0
C133 C 0.25882 0.42239 0.08999 0.0
C134 C 0.2271 0.43234 0.07932 0.0
H135 H 0.40039 0.93382 0.25929 0.0
H136 H 0.52845 0.93683 0.25914 0.0
H137 H 0.44052 0.87708 0.31583 0.0
C138 C 0.42458 0.92566 0.26742 0.0
C139 C 0.41539 0.90395 0.28899 0.0
C140 C 0.46548 0.9379 0.25658 0.0
C141 C 0.49702 0.92778 0.26743 0.0
C142 C 0.48832 0.90597 0.28881 0.0
C143 C 0.44767 0.89459 0.29954 0.0
H144 H 0.06637 0.5796 0.2573 0.0
H145 H 0.07072 0.45663 0.25845 0.0
H146 H 0.11808 0.55052 0.32112 0.0
C147 C 0.07419 0.55723 0.26678 0.0
C148 C 0.09438 0.57022 0.2903 0.0
C149 C 0.06474 0.51587 0.25529 0.0
C150 C 0.0762 0.48773 0.26755 0.0
C151 C 0.09636 0.5005 0.29119 0.0
C152 C 0.10412 0.54118 0.30259 0.0
H153 H 0.39359 0.46684 0.25316 0.0
H154 H 0.51962 0.59367 0.25672 0.0
H155 H 0.44027 0.55609 0.31788 0.0
C156 C 0.41885 0.49784 0.26322 0.0
C157 C 0.41226 0.50749 0.28705 0.0
C158 C 0.45748 0.52903 0.25209 0.0
C159 C 0.4895 0.5696 0.26502 0.0
C160 C 0.48267 0.57996 0.2884 0.0
C161 C 0.44458 0.54855 0.29944 0.0
Tb162 Tb 0.48969 0.96882 0.99713 0.0
Eu163 Eu 0.52213 0.03012 0.05007 0.0
C164 C 0.53085 0.9436 0.04109 0.0
C165 C 0.42327 0.94231 0.03836 0.0
C166 C 0.48218 0.95047 0.93108 0.0
C167 C 0.48121 0.93998 0.88756 0.0
C168 C 0.46958 0.92196 0.90992 0.0
C169 C 0.50639 0.99738 0.92949 0.0
C170 C 0.5182 0.01543 0.90718 0.0
C171 C 0.50612 0.98701 0.88589 0.0
C172 C 0.47156 0.93139 0.95477 0.0
O173 O 0.46065 0.01265 0.99778 0.0
O174 O 0.51211 0.07219 0.02385 0.0
O175 O 0.58538 0.05461 0.02959 0.0
O176 O 0.54933 0.03254 0.99159 0.0
C177 C 0.47991 0.05506 1.00622 0.0
O178 O 0.50962 0.06578 0.07958 0.0
O179 O 0.56838 0.05699 0.08256 0.0
O180 O 0.51574 0.96349 0.05542 0.0
O181 O 0.53128 0.94835 1.01789 0.0
O182 O 0.43881 0.92666 0.02139 0.0
O183 O 0.4461 0.98466 0.04698 0.0
C184 C 0.58617 0.05517 1.00611 0.0
O185 O 0.50664 0.93885 0.96874 0.0
O186 O 0.44311 0.9383 0.96664 0.0
C187 C 0.53014 0.05086 0.11816 0.0
C188 C 0.50806 0.0171 0.1641 0.0
C189 C 0.47657 0.02224 0.14944 0.0
C190 C 0.48748 0.03901 0.12678 0.0
C191 C 0.56152 0.04562 0.13284 0.0
C192 C 0.55053 0.02869 0.15539 0.0
C193 C 0.54209 0.06795 0.09396 0.0
H194 H 0.47021 0.91702 0.87155 0.0
H195 H 0.4508 0.88569 0.91068 0.0
H196 H 0.51648 0.02013 0.94554 0.0
H197 H 0.53735 0.05173 0.90664 0.0
H198 H 0.44358 0.01368 0.15559 0.0
H199 H 0.46239 0.04256 0.11603 0.0
H200 H 0.5946 0.05427 0.12679 0.0
H201 H 0.57519 0.0241 0.16588 0.0
Tb202 Tb 0.03515 0.50662 0.9983 0.0
Eu203 Eu 0.97422 0.48046 0.04509 0.0
C204 C 0.06297 0.57518 0.04336 0.0
C205 C 0.0613 0.46831 0.04189 0.0
C206 C 0.06395 0.51977 0.93555 0.0
C207 C 0.08014 0.53893 0.89453 0.0
C208 C 0.09521 0.54287 0.91866 0.0
C209 C 0.01758 0.49215 0.92809 0.0
C210 C 1.00251 0.48831 0.90403 0.0
C211 C 0.03355 0.51221 0.8871 0.0
C212 C 0.07899 0.52708 0.96115 0.0
O213 O 0.98864 0.43383 0.99396 0.0
O214 O 0.93037 0.42841 1.01546 0.0
O215 O 0.95132 0.51901 0.02227 0.0
O216 O 0.97178 0.50318 0.98613 0.0
C217 C 0.9459 0.41171 0.9993 0.0
O218 O 0.93282 0.43119 0.06976 0.0
O219 O 0.94738 0.50015 0.07517 0.0
O220 O 0.04176 0.54154 0.05673 0.0
O221 O 0.05578 0.56914 1.01991 0.0
O222 O 0.07694 0.49922 0.02635 0.0
O223 O 0.01887 0.44947 0.04752 0.0
C224 C 0.94826 0.51661 0.99865 0.0
O225 O 0.06958 0.55407 0.9735 0.0
O226 O 0.069 0.49105 0.97217 0.0
C227 C 0.94951 0.46416 0.10923 0.0
C228 C 0.98547 0.47414 0.1568 0.0
C229 C 0.93925 0.46062 0.1519 0.0
C230 C 0.92138 0.45568 0.12822 0.0
C231 C 0.99543 0.47692 0.11404 0.0
C232 C 0.01329 0.48194 0.13763 0.0
C233 C 0.93199 0.46145 0.08444 0.0
H234 H 0.10469 0.55754 0.88177 0.0
H235 H 0.13108 0.56455 0.92421 0.0
H236 H 0.99298 0.47409 0.94094 0.0
H237 H 0.96656 0.46671 0.89866 0.0
H238 H 0.91732 0.45517 0.1664 0.0
H239 H 0.88592 0.44602 0.12476 0.0
H240 H 0.01763 0.48363 0.09953 0.0
H241 H 0.04897 0.49232 0.14094 0.0
Tb242 Tb 0.52621 0.49345 0.0476 0.0
Eu243 Eu 0.48749 0.5122 0.99656 0.0
C244 C 0.48071 0.41847 1.00487 0.0
C245 C 0.58664 0.5223 1.00392 0.0
C246 C 0.53794 0.49021 0.11246 0.0
C247 C 0.5377 0.48398 0.15554 0.0
C248 C 0.55265 0.47858 0.13328 0.0
C249 C 0.50808 0.50706 0.11411 0.0
C250 C 0.49238 0.51151 0.13613 0.0
C251 C 0.50747 0.50065 0.1572 0.0
C252 C 0.55097 0.48234 0.08875 0.0
O253 O 0.55428 0.56563 0.04611 0.0
O254 O 0.49606 0.56561 0.02424 0.0
O255 O 0.42584 0.4742 1.01785 0.0
O256 O 0.46405 0.49377 0.05519 0.0
C257 C 0.53096 0.58517 0.04023 0.0
O258 O 0.4964 0.55918 0.96953 0.0
O259 O 0.44125 0.48991 0.96414 0.0
O260 O 0.48904 0.44862 0.98948 0.0
O261 O 0.48561 0.42779 0.02817 0.0
O262 O 0.57342 0.49577 0.02166 0.0
O263 O 0.5634 0.54086 0.99612 0.0
C264 C 0.42593 0.47664 0.04144 0.0
O265 O 0.51767 0.45047 0.07479 0.0
O266 O 0.57483 0.51807 0.0773 0.0
C267 C 0.48119 0.52345 0.93062 0.0
C268 C 0.51181 0.51493 0.88548 0.0
C269 C 0.48508 0.53542 0.8881 0.0
C270 C 0.46996 0.5397 0.9105 0.0
C271 C 0.50816 0.50335 0.92815 0.0
C272 C 0.52311 0.4989 0.9058 0.0
C273 C 0.46547 0.52767 0.95425 0.0
H274 H 0.55005 0.47546 0.17147 0.0
H275 H 0.57548 0.46523 0.13232 0.0
H276 H 0.49649 0.51638 0.09829 0.0
H277 H 0.46809 0.52313 0.13657 0.0
H278 H 0.47583 0.54811 0.87279 0.0
H279 H 0.44939 0.55552 0.91209 0.0
H280 H 0.5173 0.49067 0.94352 0.0
H281 H 0.54261 0.48193 0.90434 0.0
Tb282 Tb 0.15739 0.3009 0.32891 0.0
Eu283 Eu 0.19406 0.36103 0.38228 0.0
C284 C 0.20156 0.27372 0.36984 0.0
C285 C 0.09593 0.27378 0.3729 0.0
C286 C 0.14902 0.28192 0.26287 0.0
C287 C 0.14811 0.2699 0.2195 0.0
C288 C 0.13684 0.2527 0.24204 0.0
C289 C 0.17352 0.32872 0.26087 0.0
C290 C 0.18464 0.34595 0.23833 0.0
C291 C 0.17152 0.31678 0.21728 0.0
C292 C 0.13599 0.26357 0.28655 0.0
O293 O 0.16083 0.36436 0.3239 0.0
O294 O 0.15216 0.38477 0.36225 0.0
O295 O 0.24365 0.40449 0.35635 0.0
O296 O 0.23086 0.34552 0.32965 0.0
C297 C 0.14912 0.38649 0.3389 0.0
O298 O 0.17958 0.39183 0.41319 0.0
O299 O 0.24238 0.39018 0.41407 0.0
O300 O 0.22411 0.31615 0.37829 0.0
O301 O 0.16745 0.25871 0.3533 0.0
O302 O 0.09696 0.27763 0.34954 0.0
O303 O 0.13316 0.2945 0.38722 0.0
C304 C 0.25534 0.38802 0.338 0.0
O305 O 0.16856 0.26557 0.30066 0.0
O306 O 0.11128 0.27615 0.29823 0.0
C307 C 0.20431 0.37783 0.45001 0.0
C308 C 0.18052 0.33996 0.49477 0.0
C309 C 0.20184 0.38695 0.49329 0.0
C310 C 0.21361 0.40565 0.47114 0.0
C311 C 0.18276 0.3309 0.45134 0.0
C312 C 0.17089 0.31216 0.47347 0.0
C313 C 0.21471 0.3975 0.42653 0.0
H314 H 0.13855 0.24643 0.2038 0.0
H315 H 0.11841 0.21652 0.24317 0.0
H316 H 0.18364 0.35196 0.27674 0.0
H317 H 0.20269 0.38216 0.23733 0.0
H318 H 0.20888 0.40926 0.50924 0.0
H319 H 0.22958 0.44185 0.47048 0.0
H320 H 0.17491 0.30873 0.43522 0.0
H321 H 0.15459 0.2759 0.47398 0.0
Tb322 Tb 0.70057 0.84762 0.33364 0.0
Eu323 Eu 0.64225 0.82589 0.38182 0.0
C324 C 0.73179 0.91874 0.37826 0.0
C325 C 0.72831 0.81108 0.37793 0.0
C326 C 0.72664 0.8579 0.27006 0.0
C327 C 0.74322 0.87438 0.22877 0.0
C328 C 0.75804 0.87984 0.25305 0.0
C329 C 0.68023 0.83039 0.26264 0.0
C330 C 0.66538 0.82495 0.23839 0.0
C331 C 0.69675 0.84684 0.22122 0.0
C332 C 0.74204 0.86582 0.29563 0.0
O333 O 0.65289 0.77528 0.33053 0.0
O334 O 0.59696 0.77302 0.35295 0.0
O335 O 0.62119 0.86552 0.35883 0.0
O336 O 0.63716 0.84503 0.32255 0.0
C337 C 0.61062 0.75487 0.33657 0.0
O338 O 0.59869 0.77771 0.40632 0.0
O339 O 0.61763 0.848 0.41198 0.0
O340 O 0.71056 0.88635 0.39234 0.0
O341 O 0.72427 0.91123 0.35484 0.0
O342 O 0.74265 0.83816 0.36047 0.0
O343 O 0.68797 0.79643 0.38608 0.0
C344 C 0.61602 0.8611 0.33524 0.0
O345 O 0.73345 0.89352 0.30789 0.0
O346 O 0.73206 0.83013 0.30696 0.0
C347 C 0.61656 0.81017 0.44578 0.0
C348 C 0.65122 0.81637 0.49315 0.0
C349 C 0.60564 0.8052 0.48832 0.0
C350 C 0.58839 0.80208 0.46471 0.0
C351 C 0.66178 0.8206 0.45052 0.0
C352 C 0.67898 0.82366 0.47402 0.0
C353 C 0.59982 0.80893 0.42107 0.0
H354 H 0.76797 0.89227 0.21597 0.0
H355 H 0.7939 0.90164 0.25857 0.0
H356 H 0.65551 0.81343 0.27562 0.0
H357 H 0.62942 0.80345 0.23303 0.0
H358 H 0.58384 0.80026 0.50283 0.0
H359 H 0.55344 0.79414 0.46127 0.0
H360 H 0.68395 0.82701 0.43604 0.0
H361 H 0.71417 0.83225 0.47728 0.0
Tb362 Tb 0.1861 0.81589 0.38058 0.0
Eu363 Eu 0.14594 0.83646 0.33042 0.0
C364 C 0.14059 0.74326 0.33765 0.0
C365 C 0.24585 0.84819 0.3357 0.0
C366 C 0.1952 0.80026 0.4447 0.0
C367 C 0.19168 0.78102 0.48612 0.0
C368 C 0.20468 0.77881 0.46287 0.0
C369 C 0.17162 0.82312 0.44992 0.0
C370 C 0.15879 0.82552 0.47318 0.0
C371 C 0.16922 0.80503 0.49164 0.0
C372 C 0.209 0.79797 0.42025 0.0
O373 O 0.18672 0.87802 0.38943 0.0
O374 O 0.18907 0.90304 0.35178 0.0
O375 O 0.09834 0.83296 0.35808 0.0
O376 O 0.11301 0.78983 0.38313 0.0
C377 C 0.19507 0.91003 0.37524 0.0
O378 O 0.15355 0.8828 0.30335 0.0
O379 O 0.09881 0.81352 0.29811 0.0
O380 O 0.1163 0.76165 0.33157 0.0
O381 O 0.176 0.76422 0.3533 0.0
O382 O 0.24579 0.85058 0.35937 0.0
O383 O 0.20848 0.83433 0.32191 0.0
C384 C 0.08855 0.80796 0.37644 0.0
O385 O 0.17696 0.76784 0.40493 0.0
O386 O 0.23248 0.8365 0.41096 0.0
C387 C 0.13863 0.84735 0.26386 0.0
C388 C 0.17064 0.83797 0.21912 0.0
C389 C 0.19619 0.87716 0.23462 0.0
C390 C 0.18037 0.88186 0.25669 0.0
C391 C 0.11281 0.80843 0.24816 0.0
C392 C 0.12873 0.80372 0.22611 0.0
C393 C 0.12326 0.851 0.288 0.0
H394 H 0.19925 0.76397 0.49979 0.0
H395 H 0.22221 0.76042 0.45909 0.0
H396 H 0.16346 0.83944 0.43605 0.0
H397 H 0.14161 0.84429 0.47685 0.0
H398 H 0.22893 0.90382 0.22992 0.0
H399 H 0.20132 0.91233 0.26829 0.0
H400 H 0.08052 0.78129 0.25304 0.0
H401 H 0.10814 0.77323 0.21445 0.0
Tb402 Tb 0.8232 0.63559 0.66366 0.0
Eu403 Eu 0.85584 0.69502 0.71658 0.0
C404 C 0.86427 0.60868 0.70694 0.0
C405 C 0.75773 0.60612 0.70514 0.0
C406 C 0.81419 0.62017 0.5977 0.0
C407 C 0.81289 0.61282 0.55406 0.0
C408 C 0.8025 0.59311 0.57605 0.0
C409 C 0.83647 0.66722 0.59703 0.0
C410 C 0.84732 0.68695 0.57514 0.0
C411 C 0.83534 0.66004 0.55329 0.0
C412 C 0.80521 0.59977 0.621 0.0
O413 O 0.79261 0.67815 0.66535 0.0
O414 O 0.84505 0.73764 0.69106 0.0
O415 O 0.91904 0.71782 0.69602 0.0
O416 O 0.88145 0.70082 0.65887 0.0
C417 C 0.81191 0.72051 0.67394 0.0
O418 O 0.84433 0.73131 0.74611 0.0
O419 O 0.90111 0.71954 0.74948 0.0
O420 O 0.84916 0.6282 0.7215 0.0
O421 O 0.86485 0.61427 0.68382 0.0
O422 O 0.77321 0.59174 0.68759 0.0
O423 O 0.77979 0.64833 0.71406 0.0
C424 C 0.91947 0.72085 0.67263 0.0
O425 O 0.8414 0.60865 0.63445 0.0
O426 O 0.77595 0.60422 0.63352 0.0
C427 C 0.85951 0.71035 0.78346 0.0
C428 C 0.83217 0.66777 0.82669 0.0
C429 C 0.86713 0.71316 0.82708 0.0
C430 C 0.88077 0.73421 0.80564 0.0
C431 C 0.82397 0.66533 0.78302 0.0
C432 C 0.81031 0.64433 0.8044 0.0
C433 C 0.87535 0.73136 0.76073 0.0
H434 H 0.80306 0.59107 0.53762 0.0
H435 H 0.7855 0.55675 0.57615 0.0
H436 H 0.84592 0.68879 0.6135 0.0
H437 H 0.86572 0.72338 0.5754 0.0
H438 H 0.88469 0.73207 0.84395 0.0
H439 H 0.90835 0.76888 0.80637 0.0
H440 H 0.80706 0.64625 0.76607 0.0
H441 H 0.78266 0.60968 0.80348 0.0
Tb442 Tb 0.36689 0.17026 0.66582 0.0
Eu443 Eu 0.30777 0.14575 0.71357 0.0
C444 C 0.39868 0.23965 0.71031 0.0
C445 C 0.39469 0.133 0.71027 0.0
C446 C 0.38915 0.18719 0.60292 0.0
C447 C 0.40069 0.20125 0.56099 0.0
C448 C 0.41852 0.20535 0.58459 0.0
C449 C 0.34184 0.16536 0.59754 0.0
C450 C 0.32402 0.16102 0.574 0.0
C451 C 0.35323 0.17896 0.55546 0.0
C452 C 0.40734 0.19065 0.62767 0.0
O453 O 0.30469 0.10761 0.6546 0.0
O454 O 0.28132 0.08032 0.69132 0.0
O455 O 0.26271 0.14915 0.68443 0.0
O456 O 0.32045 0.1969 0.66239 0.0
C457 C 0.28024 0.07468 0.66791 0.0
O458 O 0.27351 0.10043 0.74117 0.0
O459 O 0.27592 0.16462 0.74147 0.0
O460 O 0.3561 0.2208 0.71565 0.0
O461 O 0.41151 0.21978 0.69442 0.0
O462 O 0.39099 0.13303 0.68672 0.0
O463 O 0.37218 0.14561 0.72411 0.0
C464 C 0.27756 0.17717 0.66755 0.0
O465 O 0.40465 0.21965 0.64242 0.0
O466 O 0.39373 0.15229 0.63698 0.0
C467 C 0.28693 0.1404 0.77828 0.0
C468 C 0.326 0.15859 0.82563 0.0
C469 C 0.2788 0.14078 0.82111 0.0
C470 C 0.25934 0.1317 0.79751 0.0
C471 C 0.33399 0.15822 0.78276 0.0
C472 C 0.35332 0.16688 0.80622 0.0
C473 C 0.26725 0.12987 0.75344 0.0
H474 H 0.42396 0.21537 0.54703 0.0
H475 H 0.45513 0.22244 0.5885 0.0
H476 H 0.31865 0.15116 0.61153 0.0
H477 H 0.28736 0.14267 0.57024 0.0
H478 H 0.25708 0.13417 0.83582 0.0
H479 H 0.22293 0.11781 0.79428 0.0
H480 H 0.35574 0.16499 0.76807 0.0
H481 H 0.38956 0.17953 0.80915 0.0
Tb482 Tb 0.86039 0.15786 0.7136 0.0
Eu483 Eu 0.82301 0.18048 0.66381 0.0
C484 C 0.82001 0.08827 0.66868 0.0
C485 C 0.92391 0.19447 0.67112 0.0
C486 C 0.86737 0.1434 0.77788 0.0
C487 C 0.85752 0.12159 0.81888 0.0
C488 C 0.87342 0.12024 0.79631 0.0
C489 C 0.84498 0.16776 0.78226 0.0
C490 C 0.82893 0.16899 0.80477 0.0
C491 C 0.83488 0.14579 0.82332 0.0
C492 C 0.88154 0.13967 0.75372 0.0
O493 O 0.88828 0.23053 0.71508 0.0
O494 O 0.83232 0.23307 0.69217 0.0
O495 O 0.76145 0.14059 0.68503 0.0
O496 O 0.79976 0.16011 0.72222 0.0
C497 C 0.86629 0.25124 0.70874 0.0
O498 O 0.83005 0.22846 0.63775 0.0
O499 O 0.77629 0.15858 0.63164 0.0
O500 O 0.83128 0.1212 0.65484 0.0
O501 O 0.8186 0.09443 0.69188 0.0
O502 O 0.91058 0.16589 0.68801 0.0
O503 O 0.89929 0.21179 0.66358 0.0
C504 C 0.76157 0.14331 0.70862 0.0
O505 O 0.84893 0.11018 0.73853 0.0
O506 O 0.90671 0.17737 0.74405 0.0
C507 C 0.81434 0.19518 0.59822 0.0
C508 C 0.84392 0.19129 0.55215 0.0
C509 C 0.81877 0.21297 0.55654 0.0
C510 C 0.80416 0.21494 0.57941 0.0
C511 C 0.83979 0.1739 0.594 0.0
C512 C 0.85418 0.17171 0.57117 0.0
C513 C 0.79921 0.19722 0.62232 0.0
H514 H 0.86266 0.10348 0.83284 0.0
H515 H 0.89016 0.10087 0.79319 0.0
H516 H 0.83986 0.1858 0.76825 0.0
H517 H 0.81261 0.18878 0.80777 0.0
H518 H 0.81036 0.22837 0.54226 0.0
H519 H 0.78483 0.23176 0.58238 0.0
H520 H 0.84816 0.15859 0.60835 0.0
H521 H 0.87243 0.15377 0.56829 0.0
C522 C 0.331 0.83728 0.06403 0.0
C523 C 0.30666 0.85358 0.07691 0.0
C524 C 0.36754 0.86566 0.0508 0.0
C525 C 0.38135 0.91155 0.05002 0.0
H526 H 0.32212 0.80235 0.06445 0.0
H527 H 0.38589 0.8518 0.04173 0.0
S528 S 0.32649 0.97012 0.07886 0.0
N529 N 0.29717 0.91791 0.08665 0.0
N530 N 0.36608 0.97142 0.06222 0.0
C531 C 0.3567 0.92806 0.06242 0.0
C532 C 0.31943 0.89912 0.07578 0.0
C533 C 0.17035 0.47575 0.0678 0.0
C534 C 0.15464 0.43489 0.07867 0.0
C535 C 0.14003 0.48601 0.05576 0.0
C536 C 0.09265 0.45603 0.05426 0.0
H537 H 0.20645 0.50025 0.06873 0.0
H538 H 0.1539 0.51803 0.04786 0.0
S539 S 0.03395 0.34353 0.07862 0.0
N540 N 0.08853 0.36338 0.08618 0.0
N541 N 0.03149 0.3831 0.06416 0.0
C542 C 0.07641 0.41503 0.06504 0.0
C543 C 0.10735 0.40439 0.0771 0.0
C544 C 0.60439 0.70019 0.07345 0.0
C545 C 0.57459 0.71727 0.07456 0.0
C546 C 0.58997 0.65746 0.0622 0.0
C547 C 0.54527 0.63038 0.05159 0.0
H548 H 0.63924 0.72019 0.08114 0.0
H549 H 0.61421 0.64577 0.06167 0.0
S550 S 0.45306 0.6584 0.05141 0.0
N551 N 0.49771 0.70305 0.06545 0.0
N552 N 0.47067 0.62288 0.04394 0.0
C553 C 0.51497 0.64692 0.0528 0.0
C554 C 0.52962 0.69033 0.06439 0.0
C555 C 0.83598 0.3071 0.97528 0.0
C556 C 0.85101 0.27971 0.96427 0.0
C557 C 0.86698 0.34973 0.98645 0.0
C558 C 0.91427 0.36681 0.98693 0.0
H559 H 0.79989 0.29562 0.97513 0.0
H560 H 0.85365 0.36956 0.99461 0.0
S561 S 0.97116 0.30764 0.96145 0.0
N562 N 0.9162 0.27195 0.95517 0.0
N563 N 0.97468 0.35258 0.97576 0.0
C564 C 0.92985 0.33986 0.97588 0.0
C565 C 0.89818 0.29622 0.96465 0.0
C566 C 0.69017 0.5787 0.9673 0.0
C567 C 0.7047 0.54693 0.96541 0.0
C568 C 0.65232 0.57063 0.97999 0.0
C569 C 0.62771 0.53066 0.99155 0.0
H570 H 0.70854 0.61039 0.95916 0.0
H571 H 0.64252 0.59616 0.98091 0.0
S572 S 0.64882 0.43466 0.99017 0.0
N573 N 0.68911 0.47227 0.97472 0.0
N574 N 0.61895 0.45781 0.99909 0.0
C575 C 0.64148 0.49836 0.9896 0.0
C576 C 0.67966 0.5063 0.97641 0.0
C577 C 0.48259 0.15922 0.98518 0.0
C578 C 0.4403 0.14147 0.97189 0.0
C579 C 0.49475 0.13109 0.99665 0.0
C580 C 0.46515 0.08417 0.99511 0.0
H581 H 0.50681 0.19512 0.98642 0.0
H582 H 0.528 0.14619 1.00633 0.0
S583 S 0.34902 0.0214 0.96397 0.0
N584 N 0.36774 0.07459 0.95896 0.0
N585 N 0.39068 0.02136 0.98021 0.0
C586 C 0.42242 0.06604 0.98216 0.0
C587 C 0.41 0.09478 0.9706 0.0
C588 C 0.68407 0.15459 0.98073 0.0
C589 C 0.70511 0.13459 0.96773 0.0
C590 C 0.64684 0.12908 0.99419 0.0
C591 C 0.62909 0.08261 0.99502 0.0
H592 H 0.696 0.19024 0.9802 0.0
H593 H 0.63099 0.14553 1.00339 0.0
S594 S 0.67117 0.0135 0.96503 0.0
N595 N 0.7056 0.06515 0.95751 0.0
N596 N 0.63434 0.01714 0.98202 0.0
C597 C 0.64935 0.062 0.98223 0.0
C598 C 0.68764 0.08796 0.96875 0.0
C599 C 0.86745 0.56126 0.98693 0.0
C600 C 0.85258 0.54789 0.96249 0.0
C601 C 0.89846 0.55122 0.99837 0.0
C602 C 0.91613 0.52754 0.98585 0.0
H603 H 0.8551 0.57981 0.99735 0.0
H604 H 0.90871 0.5623 1.01721 0.0
S605 S 0.88686 0.4835 0.92166 0.0
N606 N 0.8569 0.50857 0.92626 0.0
N607 N 0.91567 0.49032 0.94752 0.0
C608 C 0.90172 0.51416 0.96131 0.0
C609 C 0.86992 0.52421 0.9497 0.0
C610 C 0.48017 0.31121 0.98781 0.0
C611 C 0.43805 0.28542 0.97421 0.0
C612 C 0.49327 0.35401 0.99847 0.0
C613 C 0.46495 0.3724 0.99552 0.0
H614 H 0.50384 0.2989 0.98955 0.0
H615 H 0.52634 0.37345 1.00834 0.0
S616 S 0.34982 0.31759 0.96407 0.0
N617 N 0.36639 0.28008 0.96051 0.0
N618 N 0.39242 0.36174 0.9797 0.0
C619 C 0.42244 0.34686 0.98267 0.0
C620 C 0.40861 0.30297 0.97221 0.0
C621 C 0.14635 0.66692 0.08988 0.0
C622 C 0.16135 0.70646 0.07792 0.0
C623 C 0.11424 0.62471 0.07862 0.0
C624 C 0.09604 0.62042 0.05492 0.0
H625 H 0.16002 0.66854 0.10799 0.0
H626 H 0.10417 0.59518 0.08848 0.0
S627 S 0.12157 0.71425 1.01651 0.0
N628 N 0.15368 0.73916 0.04169 0.0
N629 N 0.09385 0.65978 0.02029 0.0
C630 C 0.1103 0.65984 0.04288 0.0
C631 C 0.14283 0.70285 0.05442 0.0
C632 C 0.34397 0.45959 0.08986 0.0
C633 C 0.30074 0.43289 0.07764 0.0
C634 C 0.38397 0.47355 0.07797 0.0
C635 C 0.38254 0.46134 0.05332 0.0
H636 H 0.34694 0.47087 0.10863 0.0
H637 H 0.41628 0.49473 0.08822 0.0
S638 S 0.27751 0.38807 1.0137 0.0
N639 N 0.25867 0.39222 0.03991 0.0
N640 N 0.33366 0.41844 1.01754 0.0
C641 C 0.3394 0.43366 0.04104 0.0
C642 C 0.29864 0.41943 0.05318 0.0
C643 C 0.55681 0.88071 0.08713 0.0
C644 C 0.58254 0.86569 0.0749 0.0
C645 C 0.54006 0.90546 0.07589 0.0
C646 C 0.5484 0.91627 0.05192 0.0
H647 H 0.54848 0.87222 0.10537 0.0
H648 H 0.51996 0.91577 0.08611 0.0
S649 S 0.61701 0.88738 1.01264 0.0
N650 N 0.61773 0.86501 0.03802 0.0
N651 N 0.58615 0.91167 1.01671 0.0
C652 C 0.57486 0.90209 0.03959 0.0
C653 C 0.59197 0.87682 0.05112 0.0
C654 C 0.01427 0.2156 0.42071 0.0
C655 C 0.97115 0.1978 0.40853 0.0
C656 C 0.05403 0.23929 0.40882 0.0
C657 C 0.05246 0.24642 0.38421 0.0
H658 H 0.01736 0.21031 0.43948 0.0
H659 H 0.08632 0.25195 0.41917 0.0
S660 S 0.94744 0.20838 0.34449 0.0
N661 N 0.92872 0.19001 0.37076 0.0
N662 N 1.00362 0.23461 0.34831 0.0
C663 C 0.00941 0.22912 0.37185 0.0
C664 C 0.96878 0.20488 0.38402 0.0
C665 C 0.79698 0.79152 0.42605 0.0
C666 C 0.81983 0.77398 0.41278 0.0
C667 C 0.76688 0.80278 0.41465 0.0
C668 C 0.75924 0.79793 0.38952 0.0
H669 H 0.80308 0.79755 0.4454 0.0
H670 H 0.75038 0.8165 0.42556 0.0
S671 S 0.80619 0.74944 0.34648 0.0
N672 N 0.82869 0.7483 0.373 0.0
N673 N 0.77426 0.77217 0.3517 0.0
C674 C 0.78107 0.77994 0.376 0.0
C675 C 0.81081 0.76731 0.38758 0.0
C676 C 0.19315 0.0153 0.39474 0.0
C677 C 0.23373 0.04005 0.40976 0.0
C678 C 0.18145 0.97364 0.383 0.0
C679 C 0.2094 0.95492 0.38633 0.0
H680 H 0.16986 0.02789 0.39225 0.0
H681 H 0.14981 0.95542 0.37177 0.0
S682 S 0.31977 0.00586 0.42255 0.0
N683 N 0.30307 0.04327 0.42599 0.0
N684 N 0.27923 0.96341 0.40497 0.0
C685 C 0.24978 0.97877 0.4012 0.0
C686 C 0.2624 0.02174 0.41271 0.0
C687 C 0.56185 0.64065 0.30222 0.0
C688 C 0.51471 0.62438 0.301 0.0
C689 C 0.59273 0.68304 0.31371 0.0
C690 C 0.57745 0.71047 0.32443 0.0
H691 H 0.57491 0.62031 0.29439 0.0
H692 H 0.62877 0.69414 0.31441 0.0
S693 S 0.45748 0.68469 0.32421 0.0
N694 N 0.45427 0.63979 0.31005 0.0
N695 N 0.51216 0.71933 0.33191 0.0
C696 C 0.53036 0.69477 0.32303 0.0
C697 C 0.49901 0.65173 0.31125 0.0
C698 C 0.3722 0.89888 0.32544 0.0
C699 C 0.37185 0.89001 0.3005 0.0
C700 C 0.33152 0.88484 0.33679 0.0
C701 C 0.28875 0.86127 0.32368 0.0
H702 H 0.40428 0.91722 0.33628 0.0
H703 H 0.33374 0.89301 0.35593 0.0
S704 S 0.2691 0.82689 0.25803 0.0
N705 N 0.32505 0.85423 0.26327 0.0
N706 N 0.24887 0.82813 0.2842 0.0
C707 C 0.28802 0.85168 0.29869 0.0
C708 C 0.32941 0.86601 0.28722 0.0
C709 C 0.0799 0.42528 0.30391 0.0
C710 C 0.11018 0.47198 0.304 0.0
C711 C 0.0923 0.39784 0.31601 0.0
C712 C 0.13499 0.41637 0.32883 0.0
H713 H 0.04643 0.40988 0.29446 0.0
H714 H 0.06856 0.36185 0.31518 0.0
S715 S 0.22788 0.53543 0.33325 0.0
N716 N 0.18602 0.53484 0.31683 0.0
N717 N 0.2083 0.48301 0.34019 0.0
C718 C 0.16561 0.46268 0.32908 0.0
C719 C 0.15341 0.49061 0.31652 0.0
C720 C 0.3481 0.49247 0.31268 0.0
C721 C 0.37158 0.47582 0.2993 0.0
C722 C 0.31135 0.46412 0.32567 0.0
C723 C 0.29626 0.41787 0.32557 0.0
H724 H 0.3581 0.5278 0.31305 0.0
H725 H 0.29409 0.47843 0.33544 0.0
S726 S 0.34711 0.35767 0.29429 0.0
N727 N 0.37811 0.41041 0.28755 0.0
N728 N 0.30828 0.35673 0.31142 0.0
C729 C 0.31935 0.40069 0.31226 0.0
C730 C 0.35708 0.4297 0.29922 0.0
C731 C 0.5351 0.90597 0.32468 0.0
C732 C 0.5215 0.89476 0.30004 0.0
C733 C 0.56578 0.8952 0.33582 0.0
C734 C 0.58412 0.87268 0.32277 0.0
H735 H 0.52212 0.92352 0.33545 0.0
H736 H 0.57519 0.90476 0.35483 0.0
S737 S 0.55754 0.83391 0.25782 0.0
N738 N 0.52734 0.85854 0.26302 0.0
N739 N 0.58521 0.83855 0.28373 0.0
C740 C 0.5706 0.86113 0.29805 0.0
C741 C 0.53931 0.87212 0.28674 0.0
C742 C 0.07445 0.62865 0.30288 0.0
C743 C 0.10689 0.61481 0.30194 0.0
C744 C 0.0856 0.67032 0.3145 0.0
C745 C 0.12952 0.69942 0.3256 0.0
H746 H 0.04006 0.60683 0.2949 0.0
H747 H 0.05945 0.67953 0.31502 0.0
S748 S 0.22792 0.68041 0.32583 0.0
N749 N 0.18545 0.6345 0.31139 0.0
N750 N 0.20647 0.71261 0.33344 0.0
C751 C 0.16253 0.68626 0.32428 0.0
C752 C 0.1512 0.644 0.31239 0.0
C753 C 0.81057 0.01493 0.42399 0.0
C754 C 0.82511 0.05311 0.41092 0.0
C755 C 0.78031 0.97163 0.41327 0.0
C756 C 0.76361 0.96493 0.38907 0.0
H757 H 0.82331 0.01846 0.44252 0.0
H758 H 0.77046 0.94319 0.42401 0.0
S759 S 0.78884 0.05457 0.34765 0.0
N760 N 0.81874 0.08198 0.37302 0.0
N761 N 0.76234 0.00064 0.35268 0.0
C762 C 0.77742 0.00302 0.3759 0.0
C763 C 0.80804 0.04709 0.38688 0.0
C764 C 0.98663 0.75056 0.41432 0.0
C765 C 0.9716 0.78195 0.41648 0.0
C766 C 0.0246 0.7593 0.40149 0.0
C767 C 0.04871 0.79952 0.39006 0.0
H768 H 0.96813 0.71843 0.42202 0.0
H769 H 0.03449 0.73386 0.40007 0.0
S770 S 0.02744 0.89544 0.39315 0.0
N771 N 0.98722 0.85709 0.40832 0.0
N772 N 0.05743 0.87277 0.38369 0.0
C773 C 0.03504 0.83181 0.39278 0.0
C774 C 0.99687 0.82324 0.40612 0.0
C775 C 0.2665 0.23062 0.40588 0.0
C776 C 0.23419 0.18479 0.40681 0.0
C777 C 0.25596 0.25881 0.39326 0.0
C778 C 0.21276 0.24215 0.38109 0.0
H779 H 0.30023 0.24474 0.41487 0.0
H780 H 0.28186 0.29403 0.39318 0.0
S781 S 0.11537 0.12496 0.37923 0.0
N782 N 0.15674 0.12419 0.39535 0.0
N783 N 0.13704 0.17708 0.37139 0.0
C784 C 0.18017 0.19628 0.38183 0.0
C785 C 0.19084 0.16765 0.39479 0.0
C786 C 0.65397 0.56173 0.74151 0.0
C787 C 0.64182 0.51654 0.74362 0.0
C788 C 0.69079 0.59004 0.7285 0.0
C789 C 0.71669 0.57419 0.71689 0.0
H790 H 0.63457 0.57524 0.74975 0.0
H791 H 0.69902 0.62469 0.72752 0.0
S792 S 0.70128 0.45966 0.71852 0.0
N793 N 0.66045 0.45801 0.73422 0.0
N794 N 0.72898 0.51099 0.70936 0.0
C795 C 0.7051 0.52917 0.71894 0.0
C796 C 0.6679 0.50045 0.73242 0.0
C797 C 0.46984 0.12029 0.75804 0.0
C798 C 0.48761 0.09698 0.74533 0.0
C799 C 0.43971 0.13145 0.74657 0.0
C800 C 0.42611 0.11986 0.72186 0.0
H801 H 0.48011 0.13095 0.77692 0.0
H802 H 0.42761 0.15002 0.75718 0.0
S803 S 0.45971 0.05493 0.68092 0.0
N804 N 0.48698 0.05986 0.70703 0.0
N805 N 0.43094 0.08131 0.6854 0.0
C806 C 0.44289 0.09565 0.70904 0.0
C807 C 0.47342 0.0841 0.72077 0.0
C808 C 0.94104 0.36698 0.74101 0.0
C809 C 0.91161 0.38454 0.74184 0.0
C810 C 0.92599 0.32364 0.73038 0.0
C811 C 0.88105 0.2965 0.72013 0.0
H812 H 0.9761 0.38709 0.74838 0.0
H813 H 0.94997 0.31162 0.7299 0.0
S814 S 0.78948 0.32544 0.71978 0.0
N815 N 0.83468 0.3705 0.73313 0.0
N816 N 0.80652 0.28929 0.71276 0.0
C817 C 0.85106 0.31342 0.72122 0.0
C818 C 0.86631 0.35739 0.73218 0.0
C819 C 0.17179 0.96766 0.64625 0.0
C820 C 0.18776 0.94247 0.63356 0.0
C821 C 0.20206 0.01046 0.65752 0.0
C822 C 0.24918 0.02991 0.65602 0.0
H823 H 0.13558 0.9544 0.64734 0.0
H824 H 0.18852 0.02874 0.66718 0.0
S825 S 0.30918 0.97835 0.62624 0.0
N826 N 0.25459 0.93989 0.62149 0.0
N827 N 0.31105 0.0216 0.6416 0.0
C828 C 0.26583 0.00571 0.64339 0.0
C829 C 0.23521 0.96166 0.63238 0.0
C830 C 0.0178 0.18125 0.64377 0.0
C831 C 0.0429 0.22153 0.63241 0.0
C832 C 0.98026 0.1733 0.65674 0.0
C833 C 0.96571 0.20501 0.65872 0.0
H834 H 0.02703 0.15533 0.64248 0.0
H835 H 0.96188 0.14155 0.66482 0.0
S836 S 0.02046 0.31679 0.63348 0.0
N837 N 0.05132 0.2944 0.6251 0.0
N838 N 0.98003 0.27886 0.64873 0.0
C839 C 0.99035 0.24541 0.64749 0.0
C840 C 0.02897 0.25377 0.63451 0.0
C841 C 0.81524 0.82421 0.65173 0.0
C842 C 0.7716 0.80676 0.63999 0.0
C843 C 0.82756 0.79624 0.66327 0.0
C844 C 0.79686 0.74972 0.66325 0.0
H845 H 0.84048 0.85963 0.65157 0.0
H846 H 0.86185 0.811 0.67163 0.0
S847 S 0.67713 0.68801 0.63691 0.0
N848 N 0.69655 0.74069 0.63056 0.0
N849 N 0.72003 0.68776 0.65173 0.0
C850 C 0.75279 0.73194 0.65201 0.0
C851 C 0.7401 0.76053 0.64048 0.0
C852 C 1.00028 0.77872 0.62431 0.0
C853 C 0.04361 0.7952 0.63604 0.0
C854 C 0.96073 0.75536 0.63647 0.0
C855 C 0.96271 0.74729 0.6609 0.0
H856 H 0.99691 0.785 0.60575 0.0
H857 H 0.92832 0.74394 0.62654 0.0
S858 S 0.06821 0.78081 0.69926 0.0
N859 N 0.0865 0.80006 0.67306 0.0
N860 N 0.01208 0.75612 0.69599 0.0
C861 C 1.00593 0.76291 0.67273 0.0
C862 C 0.04632 0.78679 0.66029 0.0
C863 C 0.23215 0.24049 0.63246 0.0
C864 C 0.18464 0.21084 0.63069 0.0
C865 C 0.26204 0.22915 0.64409 0.0
C866 C 0.24556 0.18788 0.65458 0.0
H867 H 0.24631 0.27313 0.62523 0.0
H868 H 0.29825 0.25335 0.64531 0.0
S869 S 0.12462 0.09619 0.65239 0.0
N870 N 0.12297 0.13671 0.63852 0.0
N871 N 0.17886 0.11581 0.66076 0.0
C872 C 0.19825 0.15743 0.65235 0.0
C873 C 0.1679 0.1688 0.64034 0.0
C874 C 0.76794 0.96149 0.65986 0.0
C875 C 0.77956 0.95534 0.63672 0.0
C876 C 0.78168 0.00472 0.67024 0.0
C877 C 0.80744 0.04319 0.65778 0.0
H878 H 0.74745 0.93264 0.66984 0.0
H879 H 0.77131 0.00787 0.68795 0.0
S880 S 0.85041 0.04508 0.59758 0.0
N881 N 0.82094 0.99109 0.60234 0.0
N882 N 0.84657 0.07237 0.62166 0.0
C883 C 0.82022 0.03745 0.63484 0.0
C884 C 0.80631 0.9935 0.62434 0.0
C885 C 0.45098 0.35401 0.74544 0.0
C886 C 0.49792 0.36904 0.74666 0.0
C887 C 0.41909 0.31198 0.73381 0.0
C888 C 0.43299 0.28354 0.72285 0.0
H889 H 0.43886 0.37526 0.75314 0.0
H890 H 0.38336 0.3021 0.73306 0.0
S891 S 0.55169 0.30539 0.72324 0.0
N892 N 0.55648 0.35086 0.73759 0.0
N893 N 0.49679 0.27221 0.71544 0.0
C894 C 0.47979 0.29777 0.72445 0.0
C895 C 0.51217 0.34042 0.73641 0.0
C896 C 0.6803 0.12679 0.7574 0.0
C897 C 0.63689 0.10121 0.74517 0.0
C898 C 0.72014 0.14014 0.74541 0.0
C899 C 0.71837 0.12854 0.72063 0.0
H900 H 0.68361 0.13756 0.77627 0.0
H901 H 0.75263 0.16028 0.7557 0.0
S902 S 0.61281 0.05823 0.68086 0.0
N903 N 0.59438 0.062 0.70725 0.0
N904 N 0.669 0.08757 0.68469 0.0
C905 C 0.67508 0.10207 0.70832 0.0
C906 C 0.63451 0.08829 0.72057 0.0
C907 C 0.89188 0.54663 0.75279 0.0
C908 C 0.91782 0.532 0.74045 0.0
C909 C 0.8743 0.57072 0.74158 0.0
C910 C 0.88203 0.58131 0.71754 0.0
H911 H 0.88416 0.53849 0.77112 0.0
H912 H 0.85422 0.58086 0.75194 0.0
S913 S 0.94999 0.5524 0.67777 0.0
N914 N 0.95189 0.5308 0.70325 0.0
N915 N 0.91881 0.5763 0.68201 0.0
C916 C 0.90836 0.5672 0.70502 0.0
C917 C 0.92628 0.54254 0.71652 0.0
C918 C 0.44378 0.94156 0.21344 0.0
C919 C 0.47536 0.96051 0.23366 0.0
C920 C 0.45419 0.96043 0.19116 0.0
C921 C 0.49655 -0.00091 0.18825 0.0
H922 H 0.41132 0.91111 0.21465 0.0
H923 H 0.42934 0.94385 0.17594 0.0
S924 S 0.58854 0.06488 0.23649 0.0
N925 N 0.54907 0.02224 0.24985 0.0
N926 N 0.56842 0.05794 0.20826 0.0
C927 C 0.52761 0.01932 0.20863 0.0
C928 C 0.51708 2e-05 0.23122 0.0
C929 C 0.06409 0.53457 0.21274 0.0
C930 C 0.04468 0.50337 0.23014 0.0
C931 C 0.04501 0.52447 0.18903 0.0
C932 C 1.0056 0.48293 0.18186 0.0
H933 H 0.09431 0.5671 0.21751 0.0
H934 H 0.06078 0.54974 0.17629 0.0
S935 S 0.94234 0.38924 0.22034 0.0
N936 N 0.98429 0.429 0.23855 0.0
N937 N 0.94855 0.40984 0.19379 0.0
C938 C 0.98612 0.45119 0.19897 0.0
C939 C 1.00572 0.4614 0.22314 0.0
C940 C 0.46473 0.47999 0.2199 0.0
C941 C 0.46529 0.5201 0.22698 0.0
C942 C 0.47798 0.47372 0.19723 0.0
C943 C 0.49214 0.50728 0.18083 0.0
H944 H 0.45547 0.45394 0.23225 0.0
H945 H 0.47742 0.44247 0.19258 0.0
S946 S 0.49722 0.61748 0.19042 0.0
N947 N 0.47825 0.59259 0.21531 0.0
N948 N 0.50509 0.58183 0.1733 0.0
C949 C 0.49168 0.54706 0.18755 0.0
C950 C 0.47777 0.55319 0.21046 0.0
C951 C 0.0198 0.4905 0.81928 0.0
C952 C 0.9828 0.49647 0.81287 0.0
C953 C 0.03689 0.49688 0.84327 0.0
C954 C 0.01722 0.50894 0.86171 0.0
H955 H 0.03526 0.48021 0.80565 0.0
H956 H 0.06481 0.49103 0.8475 0.0
S957 S 0.92114 0.53063 0.85438 0.0
N958 N 0.92786 0.51637 0.82686 0.0
N959 N 0.96041 0.52891 0.87193 0.0
C960 C 0.98101 0.51616 0.8555 0.0
C961 C 0.96374 0.50988 0.83108 0.0
C962 C 0.50333 0.47929 0.81914 0.0
C963 C 0.5472 0.48678 0.81531 0.0
C964 C 0.49268 0.48959 0.84166 0.0
C965 C 0.52542 0.50775 0.86138 0.0
H966 H 0.47672 0.46484 0.80461 0.0
H967 H 0.45808 0.48204 0.84378 0.0
S968 S 0.64615 0.53614 0.86067 0.0
N969 N 0.62411 0.51474 0.83305 0.0
N970 N 0.60441 0.53512 0.87527 0.0
C971 C 0.56985 0.51662 0.85768 0.0
C972 C 0.5807 0.50606 0.83468 0.0
C973 C 0.52187 0.06038 0.83374 0.0
C974 C 0.53942 0.04381 0.81607 0.0
C975 C 0.51177 0.04226 0.85619 0.0
C976 C 0.51857 0.00654 0.86206 0.0
H977 H 0.5158 0.08772 0.83021 0.0
H978 H 0.4977 0.05588 0.8689 0.0
S979 S 0.56539 0.95181 0.8227 0.0
N980 N 0.56365 0.98966 0.8063 0.0
N981 N 0.54602 0.95663 0.84862 0.0
C982 C 0.53689 0.99015 0.84476 0.0
C983 C 0.5471 0.00857 0.82184 0.0
C984 C 0.11312 0.26382 0.54329 0.0
C985 C 0.14506 0.27982 0.56338 0.0
C986 C 0.12475 0.28332 0.5212 0.0
C987 C 0.1686 0.31998 0.51842 0.0
H988 H 0.0792 0.2354 0.54449 0.0
H989 H 0.09913 0.2697 0.50621 0.0
S990 S 0.26427 0.37511 0.56569 0.0
N991 N 0.22204 0.33527 0.57917 0.0
N992 N 0.24396 0.37133 0.5378 0.0
C993 C 0.20058 0.33658 0.53848 0.0
C994 C 0.18882 0.31666 0.56087 0.0
C995 C 0.73085 0.87323 0.54898 0.0
C996 C 0.71005 0.84221 0.5663 0.0
C997 C 0.71178 0.86417 0.52534 0.0
C998 C 0.67109 0.82383 0.51814 0.0
H999 H 0.76211 0.90488 0.55378 0.0
H1000 H 0.7286 0.88937 0.5127 0.0
S1001 S 0.60403 0.73091 0.55638 0.0
N1002 N 0.64706 0.76921 0.57462 0.0
N1003 N 0.61133 0.75189 0.5299 0.0
C1004 C 0.65023 0.79218 0.53515 0.0
C1005 C 0.66979 0.80136 0.55928 0.0
C1006 C 0.10474 0.81093 0.54477 0.0
C1007 C 0.13798 0.82632 0.56418 0.0
C1008 C 0.11474 0.80328 0.52143 0.0
C1009 C 0.15818 0.81028 0.51671 0.0
H1010 H 0.07134 0.80633 0.54748 0.0
H1011 H 0.08843 0.79228 0.5069 0.0
S1012 S 0.25631 0.84839 0.56172 0.0
N1013 N 0.21524 0.84615 0.57741 0.0
N1014 N 0.23427 0.83268 0.53368 0.0
C1015 C 0.19119 0.82438 0.53616 0.0
C1016 C 0.18103 0.83218 0.55983 0.0
C1017 C 0.62736 0.84067 0.16466 0.0
C1018 C 0.64655 0.82721 0.14654 0.0
C1019 C 0.64402 0.84726 0.18876 0.0
C1020 C 0.68074 0.84107 0.19553 0.0
H1021 H 0.59847 0.84492 0.16028 0.0
H1022 H 0.62795 0.85713 0.20222 0.0
S1023 S 0.7438 0.80744 0.15474 0.0
N1024 N 0.70506 0.80935 0.13682 0.0
N1025 N 0.73611 0.82131 0.18213 0.0
C1026 C 0.7008 0.82852 0.1775 0.0
C1027 C 0.68372 0.82163 0.15301 0.0
C1028 C 0.20093 0.78428 0.16736 0.0
C1029 C 0.21458 0.81638 0.15015 0.0
C1030 C 0.18772 0.79197 0.18971 0.0
C1031 C 0.18773 0.83216 0.19587 0.0
H1032 H 0.19967 0.7525 0.16333 0.0
H1033 H 0.177 0.76603 0.20222 0.0
S1034 S 0.22084 0.92724 0.15741 0.0
N1035 N 0.22773 0.89016 0.14096 0.0
N1036 N 0.20318 0.90478 0.18306 0.0
C1037 C 0.20257 0.86514 0.17915 0.0
C1038 C 0.21596 0.85724 0.15631 0.0
C1039 C 0.23485 0.38965 0.16671 0.0
C1040 C 0.2013 0.37318 0.14734 0.0
C1041 C 0.2251 0.37125 0.18916 0.0
C1042 C 0.18153 0.33527 0.19312 0.0
H1043 H 0.26867 0.41763 0.16467 0.0
H1044 H 0.25199 0.38527 0.20353 0.0
S1045 S 0.08197 0.27911 0.14809 0.0
N1046 N 0.12309 0.3177 0.13347 0.0
N1047 N 0.10456 0.28407 0.17557 0.0
C1048 C 0.1479 0.31818 0.17379 0.0
C1049 C 0.1578 0.33687 0.15099 0.0
C1050 C 0.80089 0.64506 0.89142 0.0
C1051 C 0.79881 0.6036 0.89409 0.0
C1052 C 0.81136 0.66544 0.86956 0.0
C1053 C 0.81942 0.64477 0.84945 0.0
H1054 H 0.79557 0.66244 0.90652 0.0
H1055 H 0.81321 0.69768 0.86841 0.0
S1056 S 0.81546 0.5347 0.8469 0.0
N1057 N 0.80385 0.54171 0.87463 0.0
N1058 N 0.82341 0.57973 0.83364 0.0
C1059 C 0.81623 0.60269 0.85179 0.0
C1060 C 0.80603 0.58223 0.87407 0.0
C1061 C 0.34697 0.1432 0.89071 0.0
C1062 C 0.38596 0.1846 0.89856 0.0
C1063 C 0.32762 0.13511 0.86711 0.0
C1064 C 0.34679 0.16806 0.85054 0.0
H1065 H 0.33074 0.11727 0.90306 0.0
H1066 H 0.29757 0.10276 0.86175 0.0
S1067 S 0.44972 0.28157 0.86206 0.0
N1068 N 0.44409 0.25827 0.88777 0.0
N1069 N 0.40697 0.2436 0.8436 0.0
C1070 C 0.38611 0.20941 0.85811 0.0
C1071 C 0.40587 0.21755 0.88208 0.0
C1072 C 0.84012 0.16886 0.89081 0.0
C1073 C 0.79731 0.16418 0.89461 0.0
C1074 C 0.85127 0.1614 0.86785 0.0
C1075 C 0.82018 0.14921 0.84768 0.0
H1076 H 0.86568 0.1794 0.90569 0.0
H1077 H 0.88517 0.16682 0.86579 0.0
S1078 S 0.70221 0.12908 0.84809 0.0
N1079 N 0.72272 0.14425 0.87642 0.0
N1080 N 0.74351 0.12973 0.8332 0.0
C1081 C 0.77658 0.14275 0.8513 0.0
C1082 C 0.76513 0.15018 0.87478 0.0
C1083 C 0.33118 0.14519 0.48855 0.0
C1084 C 0.29455 0.15164 0.48197 0.0
C1085 C 0.35062 0.15522 0.5122 0.0
C1086 C 0.33415 0.17202 0.53023 0.0
H1087 H 0.3448 0.132 0.47531 0.0
H1088 H 0.37801 0.14864 0.5165 0.0
S1089 S 0.24006 0.19668 0.52225 0.0
N1090 N 0.24299 0.1766 0.49535 0.0
N1091 N 0.28043 0.19666 0.53973 0.0
C1092 C 0.29822 0.17963 0.52383 0.0
C1093 C 0.27829 0.16928 0.49971 0.0
C1094 C 0.83394 0.16337 0.48477 0.0
C1095 C 0.87706 0.16954 0.48023 0.0
C1096 C 0.82409 0.1718 0.5079 0.0
C1097 C 0.85691 0.18664 0.52749 0.0
H1098 H 0.80723 0.15112 0.47037 0.0
H1099 H 0.78995 0.16518 0.51057 0.0
S1100 S 0.97607 0.21096 0.52499 0.0
N1101 N 0.9535 0.19312 0.49712 0.0
N1102 N 0.93533 0.20996 0.54053 0.0
C1103 C 0.90071 0.19448 0.52308 0.0
C1104 C 0.91075 0.18585 0.49947 0.0
C1105 C 0.87624 0.68535 0.49011 0.0
C1106 C 0.86806 0.72031 0.48447 0.0
C1107 C 0.86553 0.66606 0.51227 0.0
C1108 C 0.84644 0.68108 0.52983 0.0
H1109 H 0.89029 0.67219 0.47711 0.0
H1110 H 0.87256 0.63932 0.51573 0.0
S1111 S 0.81931 0.77253 0.52427 0.0
N1112 N 0.84117 0.77026 0.49878 0.0
N1113 N 0.81963 0.73309 0.53983 0.0
C1114 C 0.83846 0.71628 0.52448 0.0
C1115 C 0.84954 0.73603 0.50199 0.0
loop_
_geom_bond_atom_site_label_1
_geom_bond_atom_site_label_2
_geom_bond_distance
_geom_bond_site_symmetry_2
_ccdc_geom_bond_type
H0 C3 0.931 . S
H1 C6 0.928 . S
H2 C8 0.930 . S
C3 H0 0.931 . S
C3 C4 1.413 . S
C3 C5 1.360 . S
C4 C3 1.413 . S
C4 C8 1.429 . S
C5 C3 1.360 . S
C5 C6 1.372 . S
C6 H1 0.928 . S
C6 C5 1.372 . S
C6 C7 1.404 . S
C7 C6 1.404 . S
C7 C8 1.391 . S
C8 H2 0.930 . S
C8 C4 1.429 . S
C8 C7 1.391 . S
H9 C12 0.931 . S
H10 C15 0.928 . S
H11 C17 0.930 . S
C12 H9 0.931 . S
C12 C13 1.413 . S
C12 C14 1.360 . S
C13 C12 1.413 . S
C13 C17 1.429 . S
C14 C12 1.360 . S
C14 C15 1.372 . S
C15 H10 0.928 . S
C15 C14 1.372 . S
C15 C16 1.404 . S
C16 C15 1.404 . S
C16 C17 1.391 . S
C17 H11 0.930 . S
C17 C13 1.429 . S
C17 C16 1.391 . S
H18 C21 0.931 . S
H19 C24 0.928 . S
H20 C26 0.930 . S
C21 H18 0.931 . S
C21 C22 1.413 . S
C21 C23 1.360 . S
C22 C21 1.413 . S
C22 C26 1.429 . S
C23 C21 1.360 . S
C23 C24 1.372 . S
C24 H19 0.928 . S
C24 C23 1.372 . S
C24 C25 1.404 . S
C25 C24 1.404 . S
C25 C26 1.391 . S
C26 H20 0.930 . S
C26 C22 1.429 . S
C26 C25 1.391 . S
H27 C30 0.931 . S
H28 C33 0.928 . S
H29 C35 0.930 . S
C30 H27 0.931 . S
C30 C31 1.413 . S
C30 C32 1.360 . S
C31 C30 1.413 . S
C31 C35 1.429 . S
C32 C30 1.360 . S
C32 C33 1.372 . S
C33 H28 0.928 . S
C33 C32 1.372 . S
C33 C34 1.404 . S
C34 C33 1.404 . S
C34 C35 1.391 . S
C35 H29 0.930 . S
C35 C31 1.429 . S
C35 C34 1.391 . S
H36 C39 0.931 . S
H37 C42 0.928 . S
H38 C44 0.930 . S
C39 H36 0.931 . S
C39 C40 1.413 . S
C39 C41 1.360 . S
C40 C39 1.413 . S
C40 C44 1.429 . S
C41 C39 1.360 . S
C41 C42 1.372 . S
C42 H37 0.928 . S
C42 C41 1.372 . S
C42 C43 1.404 . S
C43 C42 1.404 . S
C43 C44 1.391 . S
C44 H38 0.930 . S
C44 C40 1.429 . S
C44 C43 1.391 . S
H45 C48 0.931 . S
H46 C51 0.928 . S
H47 C53 0.930 . S
C48 H45 0.931 . S
C48 C49 1.413 . S
C48 C50 1.360 . S
C49 C48 1.413 . S
C49 C53 1.429 . S
C50 C48 1.360 . S
C50 C51 1.372 . S
C51 H46 0.928 . S
C51 C50 1.372 . S
C51 C52 1.404 . S
C52 C51 1.404 . S
C52 C53 1.391 . S
C53 H47 0.930 . S
C53 C49 1.429 . S
C53 C52 1.391 . S
H54 C57 0.931 . S
H55 C60 0.928 . S
H56 C62 0.930 . S
C57 H54 0.931 . S
C57 C58 1.413 . S
C57 C59 1.360 . S
C58 C57 1.413 . S
C58 C62 1.429 . S
C59 C57 1.360 . S
C59 C60 1.372 . S
C60 H55 0.928 . S
C60 C59 1.372 . S
C60 C61 1.404 . S
C61 C60 1.404 . S
C61 C62 1.391 . S
C62 H56 0.930 . S
C62 C58 1.429 . S
C62 C61 1.391 . S
H63 C66 0.931 . S
H64 C69 0.928 . S
H65 C71 0.930 . S
C66 H63 0.931 . S
C66 C67 1.413 . S
C66 C68 1.360 . S
C67 C66 1.413 . S
C67 C71 1.429 . S
C68 C66 1.360 . S
C68 C69 1.372 . S
C69 H64 0.928 . S
C69 C68 1.372 . S
C69 C70 1.404 . S
C70 C69 1.404 . S
C70 C71 1.391 . S
C71 H65 0.930 . S
C71 C67 1.429 . S
C71 C70 1.391 . S
H72 C75 0.931 . S
H73 C78 0.928 . S
H74 C80 0.930 . S
C75 H72 0.931 . S
C75 C76 1.413 . S
C75 C77 1.360 . S
C76 C75 1.413 . S
C76 C80 1.429 . S
C77 C75 1.360 . S
C77 C78 1.372 . S
C78 H73 0.928 . S
C78 C77 1.372 . S
C78 C79 1.404 . S
C79 C78 1.404 . S
C79 C80 1.391 . S
C80 H74 0.930 . S
C80 C76 1.429 . S
C80 C79 1.391 . S
H81 C84 0.931 . S
H82 C87 0.928 . S
H83 C89 0.930 . S
C84 H81 0.931 . S
C84 C85 1.413 . S
C84 C86 1.360 . S
C85 C84 1.413 . S
C85 C89 1.429 . S
C86 C84 1.360 . S
C86 C87 1.372 . S
C87 H82 0.928 . S
C87 C86 1.372 . S
C87 C88 1.404 . S
C88 C87 1.404 . S
C88 C89 1.391 . S
C89 H83 0.930 . S
C89 C85 1.429 . S
C89 C88 1.391 . S
H90 C93 0.931 . S
H91 C96 0.928 . S
H92 C98 0.930 . S
C93 H90 0.931 . S
C93 C94 1.413 . S
C93 C95 1.360 . S
C94 C93 1.413 . S
C94 C98 1.429 . S
C95 C93 1.360 . S
C95 C96 1.372 . S
C96 H91 0.928 . S
C96 C95 1.372 . S
C96 C97 1.404 . S
C97 C96 1.404 . S
C97 C98 1.391 . S
C98 H92 0.930 . S
C98 C94 1.429 . S
C98 C97 1.391 . S
H99 C102 0.931 . S
H100 C105 0.928 . S
H101 C107 0.930 . S
C102 H99 0.931 . S
C102 C103 1.413 . S
C102 C104 1.360 . S
C103 C102 1.413 . S
C103 C107 1.429 . S
C104 C102 1.360 . S
C104 C105 1.372 . S
C105 H100 0.928 . S
C105 C104 1.372 . S
C105 C106 1.404 . S
C106 C105 1.404 . S
C106 C107 1.391 . S
C107 H101 0.930 . S
C107 C103 1.429 . S
C107 C106 1.391 . S
H108 C111 0.931 . S
H109 C114 0.928 . S
H110 C116 0.930 . S
C111 H108 0.931 . S
C111 C112 1.413 . S
C111 C113 1.360 . S
C112 C111 1.413 . S
C112 C116 1.429 . S
C113 C111 1.360 . S
C113 C114 1.372 . S
C114 H109 0.928 . S
C114 C113 1.372 . S
C114 C115 1.404 . S
C115 C114 1.404 . S
C115 C116 1.391 . S
C116 H110 0.930 . S
C116 C112 1.429 . S
C116 C115 1.391 . S
H117 C120 0.931 . S
H118 C123 0.928 . S
H119 C125 0.930 . S
C120 H117 0.931 . S
C120 C121 1.413 . S
C120 C122 1.360 . S
C121 C120 1.413 . S
C121 C125 1.429 . S
C122 C120 1.360 . S
C122 C123 1.372 . S
C123 H118 0.928 . S
C123 C122 1.372 . S
C123 C124 1.404 . S
C124 C123 1.404 . S
C124 C125 1.391 . S
C125 H119 0.930 . S
C125 C121 1.429 . S
C125 C124 1.391 . S
H126 C129 0.931 . S
H127 C132 0.928 . S
H128 C134 0.930 . S
C129 H126 0.931 . S
C129 C130 1.413 . S
C129 C131 1.360 . S
C130 C129 1.413 . S
C130 C134 1.429 . S
C131 C129 1.360 . S
C131 C132 1.372 . S
C132 H127 0.928 . S
C132 C131 1.372 . S
C132 C133 1.404 . S
C133 C132 1.404 . S
C133 C134 1.391 . S
C134 H128 0.930 . S
C134 C130 1.429 . S
C134 C133 1.391 . S
H135 C138 0.931 . S
H136 C141 0.928 . S
H137 C143 0.930 . S
C138 H135 0.931 . S
C138 C139 1.413 . S
C138 C140 1.360 . S
C139 C138 1.413 . S
C139 C143 1.429 . S
C140 C138 1.360 . S
C140 C141 1.372 . S
C141 H136 0.928 . S
C141 C140 1.372 . S
C141 C142 1.404 . S
C142 C141 1.404 . S
C142 C143 1.391 . S
C143 H137 0.930 . S
C143 C139 1.429 . S
C143 C142 1.391 . S
H144 C147 0.931 . S
H145 C150 0.928 . S
H146 C152 0.930 . S
C147 H144 0.931 . S
C147 C148 1.413 . S
C147 C149 1.360 . S
C148 C147 1.413 . S
C148 C152 1.429 . S
C149 C147 1.360 . S
C149 C150 1.372 . S
C150 H145 0.928 . S
C150 C149 1.372 . S
C150 C151 1.404 . S
C151 C150 1.404 . S
C151 C152 1.391 . S
C152 H146 0.930 . S
C152 C148 1.429 . S
C152 C151 1.391 . S
H153 C156 0.931 . S
H154 C159 0.928 . S
H155 C161 0.930 . S
C156 H153 0.931 . S
C156 C157 1.413 . S
C156 C158 1.360 . S
C157 C156 1.413 . S
C157 C161 1.429 . S
C158 C156 1.360 . S
C158 C159 1.372 . S
C159 H154 0.928 . S
C159 C158 1.372 . S
C159 C160 1.404 . S
C160 C159 1.404 . S
C160 C161 1.391 . S
C161 H155 0.930 . S
C161 C157 1.429 . S
C161 C160 1.391 . S
Tb162 C172 2.825 . S
Tb162 O173 2.347 1_565 S
Tb162 O176 2.366 1_565 S
Tb162 O181 2.418 . S
Tb162 O182 2.399 . S
Tb162 O185 2.479 . S
Tb162 O186 2.471 . S
Eu163 O174 2.418 . S
Eu163 O175 2.384 . S
Eu163 O178 2.479 . S
Eu163 O179 2.471 . S
Eu163 O180 2.347 1_545 S
Eu163 O183 2.366 1_545 S
Eu163 C193 2.825 . S
C164 O180 1.259 . S
C164 O181 1.265 1_554 S
C165 O182 1.238 1_554 S
C165 O183 1.265 . S
C166 C168 1.380 . S
C166 C169 1.374 1_565 S
C166 C172 1.507 . S
C167 C168 1.384 . S
C167 C171 1.387 1_565 S
C167 H194 0.930 . S
C168 C166 1.380 . S
C168 C167 1.384 . S
C168 H195 0.931 . S
C169 C166 1.374 1_545 S
C169 C170 1.390 . S
C169 H196 0.930 . S
C170 C169 1.390 . S
C170 C171 1.391 . S
C170 H197 0.930 . S
C171 C167 1.387 1_545 S
C171 C170 1.391 . S
C172 Tb162 2.825 . S
C172 C166 1.507 . S
C172 O185 1.238 . S
C172 O186 1.247 . S
O173 Tb162 2.347 1_545 S
O173 C177 1.259 . S
O174 Eu163 2.418 . S
O174 C177 1.265 1_554 S
O175 Eu163 2.384 . S
O175 C184 1.255 1_554 S
O176 Tb162 2.366 1_545 S
O176 C184 1.265 . S
C177 O173 1.259 . S
C177 O174 1.265 1_556 S
O178 Eu163 2.479 . S
O178 C193 1.238 . S
O179 Eu163 2.471 . S
O179 C193 1.247 . S
O180 Eu163 2.347 1_565 S
O180 C164 1.259 . S
O181 Tb162 2.418 . S
O181 C164 1.265 1_556 S
O182 Tb162 2.399 . S
O182 C165 1.238 1_556 S
O183 Eu163 2.366 1_565 S
O183 C165 1.265 . S
C184 O175 1.255 1_556 S
C184 O176 1.265 . S
O185 Tb162 2.479 . S
O185 C172 1.238 . S
O186 Tb162 2.471 . S
O186 C172 1.247 . S
C187 C190 1.380 . S
C187 C191 1.374 1_545 S
C187 C193 1.507 . S
C188 C189 1.361 1_565 S
C188 C192 1.414 . S
C189 C188 1.361 1_545 S
C189 C190 1.384 . S
C189 H198 0.930 . S
C190 C187 1.380 . S
C190 C189 1.384 . S
C190 H199 0.931 . S
C191 C187 1.374 1_565 S
C191 C192 1.390 . S
C191 H200 0.930 . S
C192 C188 1.414 . S
C192 C191 1.390 . S
C192 H201 0.930 . S
C193 Eu163 2.825 . S
C193 O178 1.238 . S
C193 O179 1.247 . S
C193 C187 1.507 . S
H194 C167 0.930 . S
H195 C168 0.931 . S
H196 C169 0.930 . S
H197 C170 0.930 . S
H198 C189 0.930 . S
H199 C190 0.931 . S
H200 C191 0.930 . S
H201 C192 0.930 . S
Tb202 C212 2.825 . S
Tb202 O213 2.347 1_455 S
Tb202 O216 2.366 1_455 S
Tb202 O221 2.418 . S
Tb202 O222 2.384 1_556 S
Tb202 O225 2.479 . S
Tb202 O226 2.471 1_455 S
Eu203 O214 2.418 . S
Eu203 O215 2.351 1_554 S
Eu203 O218 2.479 . S
Eu203 O219 2.471 1_655 S
Eu203 O220 2.347 1_655 S
Eu203 O223 2.366 1_655 S
Eu203 C233 2.825 . S
C204 O220 1.259 . S
C204 O221 1.265 1_554 S
C205 O222 1.255 . S
C205 O223 1.265 . S
C206 C208 1.380 . S
C206 C209 1.374 1_455 S
C206 C212 1.507 . S
C207 C208 1.384 . S
C207 C211 1.387 1_455 S
C207 H234 0.930 . S
C208 C206 1.380 . S
C208 C207 1.384 . S
C208 H235 0.931 . S
C209 C206 1.374 1_655 S
C209 C210 1.390 . S
C209 H236 0.930 . S
C210 C209 1.390 . S
C210 C211 1.391 . S
C210 H237 0.930 . S
C211 C207 1.387 1_655 S
C211 C210 1.391 . S
C212 Tb202 2.825 . S
C212 C206 1.507 . S
C212 O225 1.238 . S
C212 O226 1.247 1_455 S
O213 Tb202 2.347 1_655 S
O213 C217 1.259 . S
O214 Eu203 2.418 . S
O214 C217 1.265 1_554 S
O215 Eu203 2.351 1_556 S
O215 C224 1.296 . S
O216 Tb202 2.366 1_655 S
O216 C224 1.265 . S
C217 O213 1.259 . S
C217 O214 1.265 1_556 S
O218 Eu203 2.479 . S
O218 C233 1.238 . S
O219 Eu203 2.471 1_455 S
O219 C233 1.247 1_455 S
O220 Eu203 2.347 1_455 S
O220 C204 1.259 . S
O221 Tb202 2.418 . S
O221 C204 1.265 1_556 S
O222 Tb202 2.384 1_554 S
O222 C205 1.255 . S
O223 Eu203 2.366 1_455 S
O223 C205 1.265 . S
C224 O215 1.296 . S
C224 O216 1.265 . S
O225 Tb202 2.479 . S
O225 C212 1.238 . S
O226 Tb202 2.471 1_655 S
O226 C212 1.247 1_655 S
C227 C230 1.380 . S
C227 C231 1.374 1_655 S
C227 C233 1.507 . S
C228 C229 1.387 1_455 S
C228 C232 1.391 . S
C229 C228 1.387 1_655 S
C229 C230 1.384 . S
C229 H238 0.930 . S
C230 C227 1.380 . S
C230 C229 1.384 . S
C230 H239 0.931 . S
C231 C227 1.374 1_455 S
C231 C232 1.390 . S
C231 H240 0.930 . S
C232 C228 1.391 . S
C232 C231 1.390 . S
C232 H241 0.930 . S
C233 Eu203 2.825 . S
C233 O218 1.238 . S
C233 O219 1.247 1_655 S
C233 C227 1.507 . S
H234 C207 0.930 . S
H235 C208 0.931 . S
H236 C209 0.930 . S
H237 C210 0.930 . S
H238 C229 0.930 . S
H239 C230 0.931 . S
H240 C231 0.930 . S
H241 C232 0.930 . S
Tb242 C252 2.825 . S
Tb242 O253 2.347 . S
Tb242 O256 2.366 . S
Tb242 O261 2.418 . S
Tb242 O262 2.384 . S
Tb242 O265 2.479 . S
Tb242 O266 2.471 . S
Eu243 O254 2.418 . S
Eu243 O255 2.384 1_556 S
Eu243 O258 2.479 . S
Eu243 O259 2.471 . S
Eu243 O260 2.347 . S
Eu243 O263 2.366 . S
Eu243 C273 2.825 . S
C244 O260 1.259 . S
C244 O261 1.265 1_556 S
C245 O262 1.255 1_556 S
C245 O263 1.265 . S
C246 C248 1.380 . S
C246 C249 1.374 . S
C246 C252 1.507 . S
C247 C248 1.384 . S
C247 C251 1.387 . S
C247 H274 0.930 . S
C248 C246 1.380 . S
C248 C247 1.384 . S
C248 H275 0.931 . S
C249 C246 1.374 . S
C249 C250 1.390 . S
C249 H276 0.930 . S
C250 C249 1.390 . S
C250 C251 1.391 . S
C250 H277 0.930 . S
C251 C247 1.387 . S
C251 C250 1.391 . S
C252 Tb242 2.825 . S
C252 C246 1.507 . S
C252 O265 1.238 . S
C252 O266 1.247 . S
O253 Tb242 2.347 . S
O253 C257 1.259 . S
O254 Eu243 2.418 . S
O254 C257 1.265 1_556 S
O255 Eu243 2.384 1_554 S
O255 C264 1.255 . S
O256 Tb242 2.366 . S
O256 C264 1.265 . S
C257 O253 1.259 . S
C257 O254 1.265 1_554 S
O258 Eu243 2.479 . S
O258 C273 1.238 . S
O259 Eu243 2.471 . S
O259 C273 1.247 . S
O260 Eu243 2.347 . S
O260 C244 1.259 . S
O261 Tb242 2.418 . S
O261 C244 1.265 1_554 S
O262 Tb242 2.384 . S
O262 C245 1.255 1_554 S
O263 Eu243 2.366 . S
O263 C245 1.265 . S
C264 O255 1.255 . S
C264 O256 1.265 . S
O265 Tb242 2.479 . S
O265 C252 1.238 . S
O266 Tb242 2.471 . S
O266 C252 1.247 . S
C267 C270 1.380 . S
C267 C271 1.374 . S
C267 C273 1.507 . S
C268 C269 1.387 . S
C268 C272 1.391 . S
C269 C268 1.387 . S
C269 C270 1.384 . S
C269 H278 0.930 . S
C270 C267 1.380 . S
C270 C269 1.384 . S
C270 H279 0.931 . S
C271 C267 1.374 . S
C271 C272 1.390 . S
C271 H280 0.930 . S
C272 C268 1.391 . S
C272 C271 1.390 . S
C272 H281 0.930 . S
C273 Eu243 2.825 . S
C273 O258 1.238 . S
C273 O259 1.247 . S
C273 C267 1.507 . S
H274 C247 0.930 . S
H275 C248 0.931 . S
H276 C249 0.930 . S
H277 C250 0.930 . S
H278 C269 0.930 . S
H279 C270 0.931 . S
H280 C271 0.930 . S
H281 C272 0.930 . S
Tb282 C292 2.825 . S
Tb282 O293 2.347 . S
Tb282 O296 2.366 . S
Tb282 O301 2.418 . S
Tb282 O302 2.384 . S
Tb282 O305 2.479 . S
Tb282 O306 2.471 . S
Eu283 O294 2.418 . S
Eu283 O295 2.384 . S
Eu283 O298 2.479 . S
Eu283 O299 2.471 . S
Eu283 O300 2.347 . S
Eu283 O303 2.366 . S
Eu283 C313 2.825 . S
C284 O300 1.259 . S
C284 O301 1.265 . S
C285 O302 1.255 . S
C285 O303 1.265 . S
C286 C288 1.380 . S
C286 C289 1.374 . S
C286 C292 1.507 . S
C287 C288 1.384 . S
C287 C291 1.387 . S
C287 H314 0.930 . S
C288 C286 1.380 . S
C288 C287 1.384 . S
C288 H315 0.931 . S
C289 C286 1.374 . S
C289 C290 1.390 . S
C289 H316 0.930 . S
C290 C289 1.390 . S
C290 C291 1.391 . S
C290 H317 0.930 . S
C291 C287 1.387 . S
C291 C290 1.391 . S
C292 Tb282 2.825 . S
C292 C286 1.507 . S
C292 O305 1.238 . S
C292 O306 1.247 . S
O293 Tb282 2.347 . S
O293 C297 1.259 . S
O294 Eu283 2.418 . S
O294 C297 1.265 . S
O295 Eu283 2.384 . S
O295 C304 1.255 . S
O296 Tb282 2.366 . S
O296 C304 1.265 . S
C297 O293 1.259 . S
C297 O294 1.265 . S
O298 Eu283 2.479 . S
O298 C313 1.238 . S
O299 Eu283 2.471 . S
O299 C313 1.247 . S
O300 Eu283 2.347 . S
O300 C284 1.259 . S
O301 Tb282 2.418 . S
O301 C284 1.265 . S
O302 Tb282 2.384 . S
O302 C285 1.255 . S
O303 Eu283 2.366 . S
O303 C285 1.265 . S
C304 O295 1.255 . S
C304 O296 1.265 . S
O305 Tb282 2.479 . S
O305 C292 1.238 . S
O306 Tb282 2.471 . S
O306 C292 1.247 . S
C307 C310 1.380 . S
C307 C311 1.374 . S
C307 C313 1.507 . S
C308 C309 1.387 . S
C308 C312 1.391 . S
C309 C308 1.387 . S
C309 C310 1.384 . S
C309 H318 0.930 . S
C310 C307 1.380 . S
C310 C309 1.384 . S
C310 H319 0.931 . S
C311 C307 1.374 . S
C311 C312 1.390 . S
C311 H320 0.930 . S
C312 C308 1.391 . S
C312 C311 1.390 . S
C312 H321 0.930 . S
C313 Eu283 2.825 . S
C313 O298 1.238 . S
C313 O299 1.247 . S
C313 C307 1.507 . S
H314 C287 0.930 . S
H315 C288 0.931 . S
H316 C289 0.930 . S
H317 C290 0.930 . S
H318 C309 0.930 . S
H319 C310 0.931 . S
H320 C311 0.930 . S
H321 C312 0.930 . S
Tb322 C332 2.825 . S
Tb322 O333 2.347 . S
Tb322 O336 2.366 . S
Tb322 O341 2.418 . S
Tb322 O342 2.384 . S
Tb322 O345 2.479 . S
Tb322 O346 2.471 . S
Eu323 O334 2.418 . S
Eu323 O335 2.384 . S
Eu323 O338 2.479 . S
Eu323 O339 2.471 . S
Eu323 O340 2.347 . S
Eu323 O343 2.366 . S
Eu323 C353 2.825 . S
C324 O340 1.259 . S
C324 O341 1.265 . S
C325 O342 1.255 . S
C325 O343 1.265 . S
C326 C328 1.380 . S
C326 C329 1.374 . S
C326 C332 1.507 . S
C327 C328 1.384 . S
C327 C331 1.387 . S
C327 H354 0.930 . S
C328 C326 1.380 . S
C328 C327 1.384 . S
C328 H355 0.931 . S
C329 C326 1.374 . S
C329 C330 1.390 . S
C329 H356 0.930 . S
C330 C329 1.390 . S
C330 C331 1.391 . S
C330 H357 0.930 . S
C331 C327 1.387 . S
C331 C330 1.391 . S
C332 Tb322 2.825 . S
C332 C326 1.507 . S
C332 O345 1.238 . S
C332 O346 1.247 . S
O333 Tb322 2.347 . S
O333 C337 1.259 . S
O334 Eu323 2.418 . S
O334 C337 1.265 . S
O335 Eu323 2.384 . S
O335 C344 1.255 . S
O336 Tb322 2.366 . S
O336 C344 1.265 . S
C337 O333 1.259 . S
C337 O334 1.265 . S
O338 Eu323 2.479 . S
O338 C353 1.238 . S
O339 Eu323 2.471 . S
O339 C353 1.247 . S
O340 Eu323 2.347 . S
O340 C324 1.259 . S
O341 Tb322 2.418 . S
O341 C324 1.265 . S
O342 Tb322 2.384 . S
O342 C325 1.255 . S
O343 Eu323 2.366 . S
O343 C325 1.265 . S
C344 O335 1.255 . S
C344 O336 1.265 . S
O345 Tb322 2.479 . S
O345 C332 1.238 . S
O346 Tb322 2.471 . S
O346 C332 1.247 . S
C347 C350 1.380 . S
C347 C351 1.374 . S
C347 C353 1.507 . S
C348 C349 1.387 . S
C348 C352 1.391 . S
C349 C348 1.387 . S
C349 C350 1.384 . S
C349 H358 0.930 . S
C350 C347 1.380 . S
C350 C349 1.384 . S
C350 H359 0.931 . S
C351 C347 1.374 . S
C351 C352 1.390 . S
C351 H360 0.930 . S
C352 C348 1.391 . S
C352 C351 1.390 . S
C352 H361 0.930 . S
C353 Eu323 2.825 . S
C353 O338 1.238 . S
C353 O339 1.247 . S
C353 C347 1.507 . S
H354 C327 0.930 . S
H355 C328 0.931 . S
H356 C329 0.930 . S
H357 C330 0.930 . S
H358 C349 0.930 . S
H359 C350 0.931 . S
H360 C351 0.930 . S
H361 C352 0.930 . S
Tb362 C372 2.825 . S
Tb362 O373 2.347 . S
Tb362 O376 2.366 . S
Tb362 O381 2.418 . S
Tb362 O382 2.384 . S
Tb362 O385 2.479 . S
Tb362 O386 2.471 . S
Eu363 O374 2.418 . S
Eu363 O375 2.384 . S
Eu363 O378 2.479 . S
Eu363 O379 2.471 . S
Eu363 O380 2.347 . S
Eu363 O383 2.366 . S
Eu363 C393 2.825 . S
C364 O380 1.259 . S
C364 O381 1.265 . S
C365 O382 1.255 . S
C365 O383 1.265 . S
C366 C368 1.380 . S
C366 C369 1.374 . S
C366 C372 1.507 . S
C367 C368 1.384 . S
C367 C371 1.387 . S
C367 H394 0.930 . S
C368 C366 1.380 . S
C368 C367 1.384 . S
C368 H395 0.931 . S
C369 C366 1.374 . S
C369 C370 1.390 . S
C369 H396 0.930 . S
C370 C369 1.390 . S
C370 C371 1.391 . S
C370 H397 0.930 . S
C371 C367 1.387 . S
C371 C370 1.391 . S
C372 Tb362 2.825 . S
C372 C366 1.507 . S
C372 O385 1.238 . S
C372 O386 1.247 . S
O373 Tb362 2.347 . S
O373 C377 1.259 . S
O374 Eu363 2.418 . S
O374 C377 1.265 . S
O375 Eu363 2.384 . S
O375 C384 1.255 . S
O376 Tb362 2.366 . S
O376 C384 1.265 . S
C377 O373 1.259 . S
C377 O374 1.265 . S
O378 Eu363 2.479 . S
O378 C393 1.238 . S
O379 Eu363 2.471 . S
O379 C393 1.247 . S
O380 Eu363 2.347 . S
O380 C364 1.259 . S
O381 Tb362 2.418 . S
O381 C364 1.265 . S
O382 Tb362 2.384 . S
O382 C365 1.255 . S
O383 Eu363 2.366 . S
O383 C365 1.265 . S
C384 O375 1.255 . S
C384 O376 1.265 . S
O385 Tb362 2.479 . S
O385 C372 1.238 . S
O386 Tb362 2.471 . S
O386 C372 1.247 . S
C387 C390 1.380 . S
C387 C391 1.374 . S
C387 C393 1.507 . S
C388 C389 1.387 . S
C388 C392 1.391 . S
C389 C388 1.387 . S
C389 C390 1.384 . S
C389 H398 0.930 . S
C390 C387 1.380 . S
C390 C389 1.384 . S
C390 H399 0.931 . S
C391 C387 1.374 . S
C391 C392 1.390 . S
C391 H400 0.930 . S
C392 C388 1.391 . S
C392 C391 1.390 . S
C392 H401 0.930 . S
C393 Eu363 2.825 . S
C393 O378 1.238 . S
C393 O379 1.247 . S
C393 C387 1.507 . S
H394 C367 0.930 . S
H395 C368 0.931 . S
H396 C369 0.930 . S
H397 C370 0.930 . S
H398 C389 0.930 . S
H399 C390 0.931 . S
H400 C391 0.930 . S
H401 C392 0.930 . S
Tb402 C412 2.825 . S
Tb402 O413 2.347 . S
Tb402 O416 2.366 . S
Tb402 O421 2.418 . S
Tb402 O422 2.384 . S
Tb402 O425 2.479 . S
Tb402 O426 2.471 . S
Eu403 O414 2.418 . S
Eu403 O415 2.384 . S
Eu403 O418 2.479 . S
Eu403 O419 2.471 . S
Eu403 O420 2.347 . S
Eu403 O423 2.366 . S
Eu403 C433 2.825 . S
C404 O420 1.259 . S
C404 O421 1.265 . S
C405 O422 1.255 . S
C405 O423 1.265 . S
C406 C408 1.380 . S
C406 C409 1.374 . S
C406 C412 1.507 . S
C407 C408 1.384 . S
C407 C411 1.387 . S
C407 H434 0.930 . S
C408 C406 1.380 . S
C408 C407 1.384 . S
C408 H435 0.931 . S
C409 C406 1.374 . S
C409 C410 1.390 . S
C409 H436 0.930 . S
C410 C409 1.390 . S
C410 C411 1.391 . S
C410 H437 0.930 . S
C411 C407 1.387 . S
C411 C410 1.391 . S
C412 Tb402 2.825 . S
C412 C406 1.507 . S
C412 O425 1.238 . S
C412 O426 1.247 . S
O413 Tb402 2.347 . S
O413 C417 1.259 . S
O414 Eu403 2.418 . S
O414 C417 1.265 . S
O415 Eu403 2.384 . S
O415 C424 1.255 . S
O416 Tb402 2.366 . S
O416 C424 1.265 . S
C417 O413 1.259 . S
C417 O414 1.265 . S
O418 Eu403 2.479 . S
O418 C433 1.238 . S
O419 Eu403 2.471 . S
O419 C433 1.247 . S
O420 Eu403 2.347 . S
O420 C404 1.259 . S
O421 Tb402 2.418 . S
O421 C404 1.265 . S
O422 Tb402 2.384 . S
O422 C405 1.255 . S
O423 Eu403 2.366 . S
O423 C405 1.265 . S
C424 O415 1.255 . S
C424 O416 1.265 . S
O425 Tb402 2.479 . S
O425 C412 1.238 . S
O426 Tb402 2.471 . S
O426 C412 1.247 . S
C427 C430 1.380 . S
C427 C431 1.374 . S
C427 C433 1.507 . S
C428 C429 1.387 . S
C428 C432 1.391 . S
C429 C428 1.387 . S
C429 C430 1.384 . S
C429 H438 0.930 . S
C430 C427 1.380 . S
C430 C429 1.384 . S
C430 H439 0.931 . S
C431 C427 1.374 . S
C431 C432 1.390 . S
C431 H440 0.930 . S
C432 C428 1.391 . S
C432 C431 1.390 . S
C432 H441 0.930 . S
C433 Eu403 2.825 . S
C433 O418 1.238 . S
C433 O419 1.247 . S
C433 C427 1.507 . S
H434 C407 0.930 . S
H435 C408 0.931 . S
H436 C409 0.930 . S
H437 C410 0.930 . S
H438 C429 0.930 . S
H439 C430 0.931 . S
H440 C431 0.930 . S
H441 C432 0.930 . S
Tb442 C452 2.825 . S
Tb442 O453 2.347 . S
Tb442 O456 2.366 . S
Tb442 O461 2.418 . S
Tb442 O462 2.384 . S
Tb442 O465 2.479 . S
Tb442 O466 2.471 . S
Eu443 O454 2.418 . S
Eu443 O455 2.384 . S
Eu443 O458 2.479 . S
Eu443 O459 2.471 . S
Eu443 O460 2.347 . S
Eu443 O463 2.366 . S
Eu443 C473 2.825 . S
C444 O460 1.259 . S
C444 O461 1.265 . S
C445 O462 1.255 . S
C445 O463 1.265 . S
C446 C448 1.380 . S
C446 C449 1.374 . S
C446 C452 1.507 . S
C447 C448 1.384 . S
C447 C451 1.387 . S
C447 H474 0.930 . S
C448 C446 1.380 . S
C448 C447 1.384 . S
C448 H475 0.931 . S
C449 C446 1.374 . S
C449 C450 1.390 . S
C449 H476 0.930 . S
C450 C449 1.390 . S
C450 C451 1.391 . S
C450 H477 0.930 . S
C451 C447 1.387 . S
C451 C450 1.391 . S
C452 Tb442 2.825 . S
C452 C446 1.507 . S
C452 O465 1.238 . S
C452 O466 1.247 . S
O453 Tb442 2.347 . S
O453 C457 1.259 . S
O454 Eu443 2.418 . S
O454 C457 1.265 . S
O455 Eu443 2.384 . S
O455 C464 1.255 . S
O456 Tb442 2.366 . S
O456 C464 1.265 . S
C457 O453 1.259 . S
C457 O454 1.265 . S
O458 Eu443 2.479 . S
O458 C473 1.238 . S
O459 Eu443 2.471 . S
O459 C473 1.247 . S
O460 Eu443 2.347 . S
O460 C444 1.259 . S
O461 Tb442 2.418 . S
O461 C444 1.265 . S
O462 Tb442 2.384 . S
O462 C445 1.255 . S
O463 Eu443 2.366 . S
O463 C445 1.265 . S
C464 O455 1.255 . S
C464 O456 1.265 . S
O465 Tb442 2.479 . S
O465 C452 1.238 . S
O466 Tb442 2.471 . S
O466 C452 1.247 . S
C467 C470 1.380 . S
C467 C471 1.374 . S
C467 C473 1.507 . S
C468 C469 1.387 . S
C468 C472 1.391 . S
C469 C468 1.387 . S
C469 C470 1.384 . S
C469 H478 0.930 . S
C470 C467 1.380 . S
C470 C469 1.384 . S
C470 H479 0.931 . S
C471 C467 1.374 . S
C471 C472 1.390 . S
C471 H480 0.930 . S
C472 C468 1.391 . S
C472 C471 1.390 . S
C472 H481 0.930 . S
C473 Eu443 2.825 . S
C473 O458 1.238 . S
C473 O459 1.247 . S
C473 C467 1.507 . S
H474 C447 0.930 . S
H475 C448 0.931 . S
H476 C449 0.930 . S
H477 C450 0.930 . S
H478 C469 0.930 . S
H479 C470 0.931 . S
H480 C471 0.930 . S
H481 C472 0.930 . S
Tb482 C492 2.825 . S
Tb482 O493 2.347 . S
Tb482 O496 2.366 . S
Tb482 O501 2.418 . S
Tb482 O502 2.384 . S
Tb482 O505 2.479 . S
Tb482 O506 2.471 . S
Eu483 O494 2.418 . S
Eu483 O495 2.384 . S
Eu483 O498 2.479 . S
Eu483 O499 2.471 . S
Eu483 O500 2.347 . S
Eu483 O503 2.366 . S
Eu483 C513 2.825 . S
C484 O500 1.259 . S
C484 O501 1.265 . S
C485 O502 1.255 . S
C485 O503 1.265 . S
C486 C488 1.380 . S
C486 C489 1.374 . S
C486 C492 1.507 . S
C487 C488 1.384 . S
C487 C491 1.387 . S
C487 H514 0.930 . S
C488 C486 1.380 . S
C488 C487 1.384 . S
C488 H515 0.931 . S
C489 C486 1.374 . S
C489 C490 1.390 . S
C489 H516 0.930 . S
C490 C489 1.390 . S
C490 C491 1.391 . S
C490 H517 0.930 . S
C491 C487 1.387 . S
C491 C490 1.391 . S
C492 Tb482 2.825 . S
C492 C486 1.507 . S
C492 O505 1.238 . S
C492 O506 1.247 . S
O493 Tb482 2.347 . S
O493 C497 1.259 . S
O494 Eu483 2.418 . S
O494 C497 1.265 . S
O495 Eu483 2.384 . S
O495 C504 1.255 . S
O496 Tb482 2.366 . S
O496 C504 1.265 . S
C497 O493 1.259 . S
C497 O494 1.265 . S
O498 Eu483 2.479 . S
O498 C513 1.238 . S
O499 Eu483 2.471 . S
O499 C513 1.247 . S
O500 Eu483 2.347 . S
O500 C484 1.259 . S
O501 Tb482 2.418 . S
O501 C484 1.265 . S
O502 Tb482 2.384 . S
O502 C485 1.255 . S
O503 Eu483 2.366 . S
O503 C485 1.265 . S
C504 O495 1.255 . S
C504 O496 1.265 . S
O505 Tb482 2.479 . S
O505 C492 1.238 . S
O506 Tb482 2.471 . S
O506 C492 1.247 . S
C507 C510 1.380 . S
C507 C511 1.374 . S
C507 C513 1.507 . S
C508 C509 1.387 . S
C508 C512 1.391 . S
C509 C508 1.387 . S
C509 C510 1.384 . S
C509 H518 0.930 . S
C510 C507 1.380 . S
C510 C509 1.384 . S
C510 H519 0.931 . S
C511 C507 1.374 . S
C511 C512 1.390 . S
C511 H520 0.930 . S
C512 C508 1.391 . S
C512 C511 1.390 . S
C512 H521 0.930 . S
C513 Eu483 2.825 . S
C513 O498 1.238 . S
C513 O499 1.247 . S
C513 C507 1.507 . S
H514 C487 0.930 . S
H515 C488 0.931 . S
H516 C489 0.930 . S
H517 C490 0.930 . S
H518 C509 0.930 . S
H519 C510 0.931 . S
H520 C511 0.930 . S
H521 C512 0.930 . S
C522 C523 1.369 . S
C522 C524 1.419 . S
C522 H526 0.930 . S
C523 C522 1.369 . S
C523 C532 1.429 . S
C524 C522 1.419 . S
C524 C525 1.363 . S
C524 H527 0.929 . S
C525 C524 1.363 . S
C525 C531 1.428 . S
H526 C522 0.930 . S
H527 C524 0.929 . S
S528 N529 1.613 . S
S528 N530 1.610 . S
N529 S528 1.613 . S
N529 C532 1.350 . S
N530 S528 1.610 . S
N530 C531 1.351 . S
C531 C525 1.428 . S
C531 N530 1.351 . S
C531 C532 1.434 . S
C532 C523 1.429 . S
C532 N529 1.350 . S
C532 C531 1.434 . S
C533 C534 1.369 . S
C533 C535 1.419 . S
C533 H537 0.930 . S
C534 C533 1.369 . S
C534 C543 1.429 . S
C535 C533 1.419 . S
C535 C536 1.363 . S
C535 H538 0.929 . S
C536 C535 1.363 . S
C536 C542 1.428 . S
H537 C533 0.930 . S
H538 C535 0.929 . S
S539 N540 1.613 . S
S539 N541 1.610 . S
N540 S539 1.613 . S
N540 C543 1.350 . S
N541 S539 1.610 . S
N541 C542 1.351 . S
C542 C536 1.428 . S
C542 N541 1.351 . S
C542 C543 1.434 . S
C543 C534 1.429 . S
C543 N540 1.350 . S
C543 C542 1.434 . S
C544 C545 1.369 . S
C544 C546 1.419 . S
C544 H548 0.930 . S
C545 C544 1.369 . S
C545 C554 1.429 . S
C546 C544 1.419 . S
C546 C547 1.363 . S
C546 H549 0.929 . S
C547 C546 1.363 . S
C547 C553 1.428 . S
H548 C544 0.930 . S
H549 C546 0.929 . S
S550 N551 1.613 1_556 S
S550 N552 1.610 . S
N551 S550 1.613 1_554 S
N551 C554 1.350 . S
N552 S550 1.610 . S
N552 C553 1.351 1_556 S
C553 C547 1.428 . S
C553 N552 1.351 1_554 S
C553 C554 1.434 . S
C554 C545 1.429 . S
C554 N551 1.350 . S
C554 C553 1.434 . S
C555 C556 1.369 . S
C555 C557 1.419 . S
C555 H559 0.930 . S
C556 C555 1.369 . S
C556 C565 1.429 . S
C557 C555 1.419 . S
C557 C558 1.363 . S
C557 H560 0.929 . S
C558 C557 1.363 . S
C558 C564 1.428 . S
H559 C555 0.930 . S
H560 C557 0.929 . S
S561 N562 1.613 . S
S561 N563 1.610 . S
N562 S561 1.613 . S
N562 C565 1.350 . S
N563 S561 1.610 . S
N563 C564 1.351 . S
C564 C558 1.428 . S
C564 N563 1.351 . S
C564 C565 1.434 . S
C565 C556 1.429 . S
C565 N562 1.350 . S
C565 C564 1.434 . S
C566 C567 1.369 . S
C566 C568 1.419 . S
C566 H570 0.930 . S
C567 C566 1.369 . S
C567 C576 1.429 . S
C568 C566 1.419 . S
C568 C569 1.363 . S
C568 H571 0.929 . S
C569 C568 1.363 . S
C569 C575 1.428 . S
H570 C566 0.930 . S
H571 C568 0.929 . S
S572 N573 1.613 . S
S572 N574 1.610 . S
N573 S572 1.613 . S
N573 C576 1.350 . S
N574 S572 1.610 . S
N574 C575 1.351 . S
C575 C569 1.428 . S
C575 N574 1.351 . S
C575 C576 1.434 . S
C576 C567 1.429 . S
C576 N573 1.350 . S
C576 C575 1.434 . S
C577 C578 1.369 . S
C577 C579 1.419 . S
C577 H581 0.930 . S
C578 C577 1.369 . S
C578 C587 1.429 . S
C579 C577 1.419 . S
C579 C580 1.363 . S
C579 H582 0.929 . S
C580 C579 1.363 . S
C580 C586 1.428 . S
H581 C577 0.930 . S
H582 C579 0.929 . S
S583 N584 1.613 1_565 S
S583 N585 1.610 1_565 S
N584 S583 1.613 1_545 S
N584 C587 1.350 . S
N585 S583 1.610 1_545 S
N585 C586 1.351 . S
C586 C580 1.428 . S
C586 N585 1.351 . S
C586 C587 1.434 . S
C587 C578 1.429 . S
C587 N584 1.350 . S
C587 C586 1.434 . S
C588 C589 1.369 . S
C588 C590 1.419 . S
C588 H592 0.930 . S
C589 C588 1.369 . S
C589 C598 1.429 . S
C590 C588 1.419 . S
C590 C591 1.363 . S
C590 H593 0.929 . S
C591 C590 1.363 . S
C591 C597 1.428 . S
H592 C588 0.930 . S
H593 C590 0.929 . S
S594 N595 1.613 1_565 S
S594 N596 1.610 1_565 S
N595 S594 1.613 1_545 S
N595 C598 1.350 . S
N596 S594 1.610 1_545 S
N596 C597 1.351 . S
C597 C591 1.428 . S
C597 N596 1.351 . S
C597 C598 1.434 . S
C598 C589 1.429 . S
C598 N595 1.350 . S
C598 C597 1.434 . S
C599 C600 1.369 . S
C599 C601 1.419 . S
C599 H603 0.930 . S
C600 C599 1.369 . S
C600 C609 1.429 . S
C601 C599 1.419 . S
C601 C602 1.363 . S
C601 H604 0.929 . S
C602 C601 1.363 . S
C602 C608 1.428 . S
H603 C599 0.930 . S
H604 C601 0.929 . S
S605 N606 1.613 . S
S605 N607 1.610 . S
N606 S605 1.613 . S
N606 C609 1.350 . S
N607 S605 1.610 . S
N607 C608 1.351 . S
C608 C602 1.428 . S
C608 N607 1.351 . S
C608 C609 1.434 . S
C609 C600 1.429 . S
C609 N606 1.350 . S
C609 C608 1.434 . S
C610 C611 1.369 . S
C610 C612 1.419 . S
C610 H614 0.930 . S
C611 C610 1.369 . S
C611 C620 1.429 . S
C612 C610 1.419 . S
C612 C613 1.363 . S
C612 H615 0.929 1_556 S
C613 C612 1.363 . S
C613 C619 1.428 . S
H614 C610 0.930 . S
H615 C612 0.929 1_554 S
S616 N617 1.613 . S
S616 N618 1.610 . S
N617 S616 1.613 . S
N617 C620 1.350 . S
N618 S616 1.610 . S
N618 C619 1.351 . S
C619 C613 1.428 . S
C619 N618 1.351 . S
C619 C620 1.434 . S
C620 C611 1.429 . S
C620 N617 1.350 . S
C620 C619 1.434 . S
C621 C622 1.369 . S
C621 C623 1.419 . S
C621 H625 0.930 . S
C622 C621 1.369 . S
C622 C631 1.429 . S
C623 C621 1.419 . S
C623 C624 1.363 . S
C623 H626 0.929 . S
C624 C623 1.363 . S
C624 C630 1.428 . S
H625 C621 0.930 . S
H626 C623 0.929 . S
S627 N628 1.632 . S
S627 N629 1.617 . S
N628 S627 1.632 . S
N628 C631 1.350 . S
N629 S627 1.617 . S
N629 C630 1.351 . S
C630 C624 1.428 . S
C630 N629 1.351 . S
C630 C631 1.434 . S
C631 C622 1.429 . S
C631 N628 1.350 . S
C631 C630 1.434 . S
C632 C633 1.369 . S
C632 C634 1.419 . S
C632 H636 0.930 . S
C633 C632 1.369 . S
C633 C642 1.429 . S
C634 C632 1.419 . S
C634 C635 1.363 . S
C634 H637 0.929 . S
C635 C634 1.363 . S
C635 C641 1.428 . S
H636 C632 0.930 . S
H637 C634 0.929 . S
S638 N639 1.613 1_556 S
S638 N640 1.609 1_556 S
N639 S638 1.613 1_554 S
N639 C642 1.350 . S
N640 S638 1.609 1_554 S
N640 C641 1.367 . S
C641 C635 1.428 . S
C641 N640 1.367 . S
C641 C642 1.434 . S
C642 C633 1.429 . S
C642 N639 1.350 . S
C642 C641 1.434 . S
C643 C644 1.369 . S
C643 C645 1.419 . S
C643 H647 0.930 . S
C644 C643 1.369 . S
C644 C653 1.429 . S
C645 C643 1.419 . S
C645 C646 1.363 . S
C645 H648 0.929 . S
C646 C645 1.363 . S
C646 C652 1.428 . S
H647 C643 0.930 . S
H648 C645 0.929 . S
S649 N650 1.613 1_556 S
S649 N651 1.610 . S
N650 S649 1.613 1_554 S
N650 C653 1.350 . S
N651 S649 1.610 . S
N651 C652 1.351 1_556 S
C652 C646 1.428 . S
C652 N651 1.351 1_554 S
C652 C653 1.434 . S
C653 C644 1.429 . S
C653 N650 1.350 . S
C653 C652 1.434 . S
C654 C655 1.369 . S
C654 C656 1.419 1_655 S
C654 H658 0.930 . S
C655 C654 1.369 . S
C655 C664 1.429 . S
C656 C654 1.419 1_455 S
C656 C657 1.363 . S
C656 H659 0.929 . S
C657 C656 1.363 . S
C657 C663 1.428 . S
H658 C654 0.930 . S
H659 C656 0.929 . S
S660 N661 1.613 . S
S660 N662 1.610 1_655 S
N661 S660 1.613 . S
N661 C664 1.350 . S
N662 S660 1.610 1_455 S
N662 C663 1.351 . S
C663 C657 1.428 . S
C663 N662 1.351 . S
C663 C664 1.434 1_455 S
C664 C655 1.429 . S
C664 N661 1.350 . S
C664 C663 1.434 1_655 S
C665 C666 1.369 . S
C665 C667 1.419 . S
C665 H669 0.930 . S
C666 C665 1.369 . S
C666 C675 1.429 . S
C667 C665 1.419 . S
C667 C668 1.363 . S
C667 H670 0.929 . S
C668 C667 1.363 . S
C668 C674 1.428 . S
H669 C665 0.930 . S
H670 C667 0.929 . S
S671 N672 1.613 . S
S671 N673 1.610 . S
N672 S671 1.613 . S
N672 C675 1.350 . S
N673 S671 1.610 . S
N673 C674 1.351 . S
C674 C668 1.428 . S
C674 N673 1.351 . S
C674 C675 1.434 . S
C675 C666 1.429 . S
C675 N672 1.350 . S
C675 C674 1.434 . S
C676 C677 1.369 . S
C676 C678 1.419 . S
C676 H680 0.930 . S
C677 C676 1.369 . S
C677 C686 1.429 . S
C678 C676 1.419 . S
C678 C679 1.363 1_545 S
C678 H681 0.929 1_545 S
C679 C678 1.363 1_565 S
C679 C685 1.428 . S
H680 C676 0.930 . S
H681 C678 0.929 1_565 S
S682 N683 1.613 . S
S682 N684 1.610 1_545 S
N683 S682 1.613 . S
N683 C686 1.350 . S
N684 S682 1.610 1_565 S
N684 C685 1.351 . S
C685 C679 1.428 . S
C685 N684 1.351 . S
C685 C686 1.434 1_565 S
C686 C677 1.429 . S
C686 N683 1.350 . S
C686 C685 1.434 1_545 S
C687 C688 1.369 . S
C687 C689 1.419 . S
C687 H691 0.930 . S
C688 C687 1.369 . S
C688 C697 1.429 . S
C689 C687 1.419 . S
C689 C690 1.363 . S
C689 H692 0.929 . S
C690 C689 1.363 . S
C690 C696 1.428 . S
H691 C687 0.930 . S
H692 C689 0.929 . S
S693 N694 1.613 . S
S693 N695 1.610 . S
N694 S693 1.613 . S
N694 C697 1.350 . S
N695 S693 1.610 . S
N695 C696 1.351 . S
C696 C690 1.428 . S
C696 N695 1.351 . S
C696 C697 1.434 . S
C697 C688 1.429 . S
C697 N694 1.350 . S
C697 C696 1.434 . S
C698 C699 1.369 . S
C698 C700 1.419 . S
C698 H702 0.930 . S
C699 C698 1.369 . S
C699 C708 1.429 . S
C700 C698 1.419 . S
C700 C701 1.363 . S
C700 H703 0.929 . S
C701 C700 1.363 . S
C701 C707 1.428 . S
H702 C698 0.930 . S
H703 C700 0.929 . S
S704 N705 1.613 . S
S704 N706 1.610 . S
N705 S704 1.613 . S
N705 C708 1.350 . S
N706 S704 1.610 . S
N706 C707 1.351 . S
C707 C701 1.428 . S
C707 N706 1.351 . S
C707 C708 1.434 . S
C708 C699 1.429 . S
C708 N705 1.350 . S
C708 C707 1.434 . S
C709 C710 1.369 . S
C709 C711 1.419 . S
C709 H713 0.930 . S
C710 C709 1.369 . S
C710 C719 1.429 . S
C711 C709 1.419 . S
C711 C712 1.363 . S
C711 H714 0.929 . S
C712 C711 1.363 . S
C712 C718 1.428 . S
H713 C709 0.930 . S
H714 C711 0.929 . S
S715 N716 1.613 . S
S715 N717 1.610 . S
N716 S715 1.613 . S
N716 C719 1.350 . S
N717 S715 1.610 . S
N717 C718 1.351 . S
C718 C712 1.428 . S
C718 N717 1.351 . S
C718 C719 1.434 . S
C719 C710 1.429 . S
C719 N716 1.350 . S
C719 C718 1.434 . S
C720 C721 1.369 . S
C720 C722 1.419 . S
C720 H724 0.930 . S
C721 C720 1.369 . S
C721 C730 1.429 . S
C722 C720 1.419 . S
C722 C723 1.363 . S
C722 H725 0.929 . S
C723 C722 1.363 . S
C723 C729 1.428 . S
H724 C720 0.930 . S
H725 C722 0.929 . S
S726 N727 1.613 . S
S726 N728 1.610 . S
N727 S726 1.613 . S
N727 C730 1.350 . S
N728 S726 1.610 . S
N728 C729 1.351 . S
C729 C723 1.428 . S
C729 N728 1.351 . S
C729 C730 1.434 . S
C730 C721 1.429 . S
C730 N727 1.350 . S
C730 C729 1.434 . S
C731 C732 1.369 . S
C731 C733 1.419 . S
C731 H735 0.930 . S
C732 C731 1.369 . S
C732 C741 1.429 . S
C733 C731 1.419 . S
C733 C734 1.363 . S
C733 H736 0.929 . S
C734 C733 1.363 . S
C734 C740 1.428 . S
H735 C731 0.930 . S
H736 C733 0.929 . S
S737 N738 1.613 . S
S737 N739 1.610 . S
N738 S737 1.613 . S
N738 C741 1.350 . S
N739 S737 1.610 . S
N739 C740 1.351 . S
C740 C734 1.428 . S
C740 N739 1.351 . S
C740 C741 1.434 . S
C741 C732 1.429 . S
C741 N738 1.350 . S
C741 C740 1.434 . S
C742 C743 1.369 . S
C742 C744 1.419 . S
C742 H746 0.930 . S
C743 C742 1.369 . S
C743 C752 1.429 . S
C744 C742 1.419 . S
C744 C745 1.363 . S
C744 H747 0.929 . S
C745 C744 1.363 . S
C745 C751 1.428 . S
H746 C742 0.930 . S
H747 C744 0.929 . S
S748 N749 1.613 . S
S748 N750 1.610 . S
N749 S748 1.613 . S
N749 C752 1.350 . S
N750 S748 1.610 . S
N750 C751 1.351 . S
C751 C745 1.428 . S
C751 N750 1.351 . S
C751 C752 1.434 . S
C752 C743 1.429 . S
C752 N749 1.350 . S
C752 C751 1.434 . S
C753 C754 1.369 . S
C753 C755 1.419 1_545 S
C753 H757 0.930 . S
C754 C753 1.369 . S
C754 C763 1.429 . S
C755 C753 1.419 1_565 S
C755 C756 1.363 . S
C755 H758 0.929 . S
C756 C755 1.363 . S
C756 C762 1.428 1_565 S
H757 C753 0.930 . S
H758 C755 0.929 . S
S759 N760 1.613 . S
S759 N761 1.610 1_545 S
N760 S759 1.613 . S
N760 C763 1.350 . S
N761 S759 1.610 1_565 S
N761 C762 1.351 1_565 S
C762 C756 1.428 1_545 S
C762 N761 1.351 1_545 S
C762 C763 1.434 . S
C763 C754 1.429 . S
C763 N760 1.350 . S
C763 C762 1.434 . S
C764 C765 1.369 . S
C764 C766 1.419 1_655 S
C764 H768 0.930 . S
C765 C764 1.369 . S
C765 C774 1.429 . S
C766 C764 1.419 1_455 S
C766 C767 1.363 . S
C766 H769 0.929 . S
C767 C766 1.363 . S
C767 C773 1.428 . S
H768 C764 0.930 . S
H769 C766 0.929 . S
S770 N771 1.613 . S
S770 N772 1.610 1_655 S
N771 S770 1.613 . S
N771 C774 1.350 . S
N772 S770 1.610 1_455 S
N772 C773 1.351 . S
C773 C767 1.428 . S
C773 N772 1.351 . S
C773 C774 1.434 1_455 S
C774 C765 1.429 . S
C774 N771 1.350 . S
C774 C773 1.434 1_655 S
C775 C776 1.369 . S
C775 C777 1.419 . S
C775 H779 0.930 . S
C776 C775 1.369 . S
C776 C785 1.429 . S
C777 C775 1.419 . S
C777 C778 1.363 . S
C777 H780 0.929 . S
C778 C777 1.363 . S
C778 C784 1.428 . S
H779 C775 0.930 . S
H780 C777 0.929 . S
S781 N782 1.613 . S
S781 N783 1.610 . S
N782 S781 1.613 . S
N782 C785 1.350 . S
N783 S781 1.610 . S
N783 C784 1.351 . S
C784 C778 1.428 . S
C784 N783 1.351 . S
C784 C785 1.434 . S
C785 C776 1.429 . S
C785 N782 1.350 . S
C785 C784 1.434 . S
C786 C787 1.369 . S
C786 C788 1.419 . S
C786 H790 0.930 . S
C787 C786 1.369 . S
C787 C796 1.429 . S
C788 C786 1.419 . S
C788 C789 1.363 . S
C788 H791 0.929 . S
C789 C788 1.363 . S
C789 C795 1.428 . S
H790 C786 0.930 . S
H791 C788 0.929 . S
S792 N793 1.613 . S
S792 N794 1.610 . S
N793 S792 1.613 . S
N793 C796 1.350 . S
N794 S792 1.610 . S
N794 C795 1.351 . S
C795 C789 1.428 . S
C795 N794 1.351 . S
C795 C796 1.434 . S
C796 C787 1.429 . S
C796 N793 1.350 . S
C796 C795 1.434 . S
C797 C798 1.369 . S
C797 C799 1.419 . S
C797 H801 0.930 . S
C798 C797 1.369 . S
C798 C807 1.429 . S
C799 C797 1.419 . S
C799 C800 1.363 . S
C799 H802 0.929 . S
C800 C799 1.363 . S
C800 C806 1.428 . S
H801 C797 0.930 . S
H802 C799 0.929 . S
S803 N804 1.613 . S
S803 N805 1.610 . S
N804 S803 1.613 . S
N804 C807 1.350 . S
N805 S803 1.610 . S
N805 C806 1.351 . S
C806 C800 1.428 . S
C806 N805 1.351 . S
C806 C807 1.434 . S
C807 C798 1.429 . S
C807 N804 1.350 . S
C807 C806 1.434 . S
C808 C809 1.369 . S
C808 C810 1.419 . S
C808 H812 0.930 . S
C809 C808 1.369 . S
C809 C818 1.429 . S
C810 C808 1.419 . S
C810 C811 1.363 . S
C810 H813 0.929 . S
C811 C810 1.363 . S
C811 C817 1.428 . S
H812 C808 0.930 . S
H813 C810 0.929 . S
S814 N815 1.613 . S
S814 N816 1.610 . S
N815 S814 1.613 . S
N815 C818 1.350 . S
N816 S814 1.610 . S
N816 C817 1.351 . S
C817 C811 1.428 . S
C817 N816 1.351 . S
C817 C818 1.434 . S
C818 C809 1.429 . S
C818 N815 1.350 . S
C818 C817 1.434 . S
C819 C820 1.369 . S
C819 C821 1.419 1_565 S
C819 H823 0.930 . S
C820 C819 1.369 . S
C820 C829 1.429 . S
C821 C819 1.419 1_545 S
C821 C822 1.363 . S
C821 H824 0.929 . S
C822 C821 1.363 . S
C822 C828 1.428 . S
H823 C819 0.930 . S
H824 C821 0.929 . S
S825 N826 1.613 . S
S825 N827 1.610 1_565 S
N826 S825 1.613 . S
N826 C829 1.350 . S
N827 S825 1.610 1_545 S
N827 C828 1.351 . S
C828 C822 1.428 . S
C828 N827 1.351 . S
C828 C829 1.434 1_545 S
C829 C820 1.429 . S
C829 N826 1.350 . S
C829 C828 1.434 1_565 S
C830 C831 1.369 . S
C830 C832 1.419 1_455 S
C830 H834 0.930 . S
C831 C830 1.369 . S
C831 C840 1.413 1_455 S
C832 C830 1.419 1_655 S
C832 C833 1.363 . S
C832 H835 0.929 . S
C833 C832 1.363 . S
C833 C839 1.428 . S
H834 C830 0.930 . S
H835 C832 0.929 . S
S836 N837 1.636 . S
S836 N838 1.610 . S
N837 S836 1.636 . S
N837 C840 1.348 . S
N838 S836 1.610 . S
N838 C839 1.351 . S
C839 C833 1.428 . S
C839 N838 1.351 . S
C839 C840 1.448 . S
C840 C831 1.413 1_655 S
C840 N837 1.348 . S
C840 C839 1.448 . S
C841 C842 1.369 . S
C841 C843 1.419 . S
C841 H845 0.930 . S
C842 C841 1.369 . S
C842 C851 1.429 . S
C843 C841 1.419 . S
C843 C844 1.363 . S
C843 H846 0.929 . S
C844 C843 1.363 . S
C844 C850 1.428 . S
H845 C841 0.930 . S
H846 C843 0.929 . S
S847 N848 1.613 . S
S847 N849 1.610 . S
N848 S847 1.613 . S
N848 C851 1.350 . S
N849 S847 1.610 . S
N849 C850 1.351 . S
C850 C844 1.428 . S
C850 N849 1.351 . S
C850 C851 1.434 . S
C851 C842 1.429 . S
C851 N848 1.350 . S
C851 C850 1.434 . S
C852 C853 1.369 . S
C852 C854 1.419 1_455 S
C852 H856 0.930 . S
C853 C852 1.369 . S
C853 C862 1.429 . S
C854 C852 1.419 1_655 S
C854 C855 1.363 . S
C854 H857 0.929 . S
C855 C854 1.363 . S
C855 C861 1.428 1_655 S
H856 C852 0.930 . S
H857 C854 0.929 . S
S858 N859 1.613 . S
S858 N860 1.610 . S
N859 S858 1.613 . S
N859 C862 1.350 . S
N860 S858 1.610 . S
N860 C861 1.351 . S
C861 C855 1.428 1_455 S
C861 N860 1.351 . S
C861 C862 1.434 . S
C862 C853 1.429 . S
C862 N859 1.350 . S
C862 C861 1.434 . S
C863 C864 1.369 . S
C863 C865 1.419 . S
C863 H867 0.930 . S
C864 C863 1.369 . S
C864 C873 1.429 . S
C865 C863 1.419 . S
C865 C866 1.363 . S
C865 H868 0.929 . S
C866 C865 1.363 . S
C866 C872 1.428 . S
H867 C863 0.930 . S
H868 C865 0.929 . S
S869 N870 1.613 . S
S869 N871 1.610 . S
N870 S869 1.613 . S
N870 C873 1.350 . S
N871 S869 1.610 . S
N871 C872 1.351 . S
C872 C866 1.428 . S
C872 N871 1.351 . S
C872 C873 1.434 . S
C873 C864 1.429 . S
C873 N870 1.350 . S
C873 C872 1.434 . S
C874 C875 1.369 . S
C874 C876 1.419 . S
C874 H878 0.930 . S
C875 C874 1.369 . S
C875 C884 1.429 . S
C876 C874 1.419 . S
C876 C877 1.363 1_565 S
C876 H879 0.929 1_565 S
C877 C876 1.363 1_545 S
C877 C883 1.428 . S
H878 C874 0.930 . S
H879 C876 0.929 1_545 S
S880 N881 1.613 . S
S880 N882 1.610 1_565 S
N881 S880 1.613 . S
N881 C884 1.350 . S
N882 S880 1.610 1_545 S
N882 C883 1.351 . S
C883 C877 1.428 . S
C883 N882 1.351 . S
C883 C884 1.434 1_545 S
C884 C875 1.429 . S
C884 N881 1.350 . S
C884 C883 1.434 1_565 S
C885 C886 1.369 . S
C885 C887 1.419 . S
C885 H889 0.930 . S
C886 C885 1.369 . S
C886 C895 1.429 . S
C887 C885 1.419 . S
C887 C888 1.363 . S
C887 H890 0.929 . S
C888 C887 1.363 . S
C888 C894 1.428 . S
H889 C885 0.930 . S
H890 C887 0.929 . S
S891 N892 1.613 . S
S891 N893 1.610 . S
N892 S891 1.613 . S
N892 C895 1.350 . S
N893 S891 1.610 . S
N893 C894 1.351 . S
C894 C888 1.428 . S
C894 N893 1.351 . S
C894 C895 1.434 . S
C895 C886 1.429 . S
C895 N892 1.350 . S
C895 C894 1.434 . S
C896 C897 1.369 . S
C896 C898 1.419 . S
C896 H900 0.930 . S
C897 C896 1.369 . S
C897 C906 1.429 . S
C898 C896 1.419 . S
C898 C899 1.363 . S
C898 H901 0.929 . S
C899 C898 1.363 . S
C899 C905 1.428 . S
H900 C896 0.930 . S
H901 C898 0.929 . S
S902 N903 1.613 . S
S902 N904 1.610 . S
N903 S902 1.613 . S
N903 C906 1.350 . S
N904 S902 1.610 . S
N904 C905 1.351 . S
C905 C899 1.428 . S
C905 N904 1.351 . S
C905 C906 1.434 . S
C906 C897 1.429 . S
C906 N903 1.350 . S
C906 C905 1.434 . S
C907 C908 1.369 . S
C907 C909 1.419 . S
C907 H911 0.930 . S
C908 C907 1.369 . S
C908 C917 1.429 . S
C909 C907 1.419 . S
C909 C910 1.363 . S
C909 H912 0.929 . S
C910 C909 1.363 . S
C910 C916 1.428 . S
H911 C907 0.930 . S
H912 C909 0.929 . S
S913 N914 1.613 . S
S913 N915 1.610 . S
N914 S913 1.613 . S
N914 C917 1.350 . S
N915 S913 1.610 . S
N915 C916 1.351 . S
C916 C910 1.428 . S
C916 N915 1.351 . S
C916 C917 1.434 . S
C917 C908 1.429 . S
C917 N914 1.350 . S
C917 C916 1.434 . S
C918 C919 1.369 . S
C918 C920 1.419 . S
C918 H922 0.930 . S
C919 C918 1.369 . S
C919 C928 1.429 . S
C920 C918 1.419 . S
C920 C921 1.363 . S
C920 H923 0.929 . S
C921 C920 1.363 . S
C921 C927 1.428 . S
H922 C918 0.930 . S
H923 C920 0.929 . S
S924 N925 1.613 . S
S924 N926 1.610 . S
N925 S924 1.613 . S
N925 C928 1.350 . S
N926 S924 1.610 . S
N926 C927 1.351 . S
C927 C921 1.428 . S
C927 N926 1.351 . S
C927 C928 1.434 . S
C928 C919 1.429 . S
C928 N925 1.350 . S
C928 C927 1.434 . S
C929 C930 1.369 . S
C929 C931 1.419 . S
C929 H933 0.930 . S
C930 C929 1.369 . S
C930 C939 1.428 . S
C931 C929 1.419 . S
C931 C932 1.363 . S
C931 H934 0.929 . S
C932 C931 1.363 . S
C932 C938 1.428 . S
H933 C929 0.930 . S
H934 C931 0.929 . S
S935 N936 1.613 . S
S935 N937 1.610 . S
N936 S935 1.613 . S
N936 C939 1.348 1_655 S
N937 S935 1.610 . S
N937 C938 1.351 1_655 S
C938 C932 1.428 . S
C938 N937 1.351 1_455 S
C938 C939 1.438 . S
C939 C930 1.428 . S
C939 N936 1.348 1_455 S
C939 C938 1.438 . S
C940 C941 1.369 . S
C940 C942 1.419 . S
C940 H944 0.930 . S
C941 C940 1.369 . S
C941 C950 1.429 . S
C942 C940 1.419 . S
C942 C943 1.363 . S
C942 H945 0.929 . S
C943 C942 1.363 . S
C943 C949 1.428 . S
H944 C940 0.930 . S
H945 C942 0.929 . S
S946 N947 1.613 . S
S946 N948 1.610 . S
N947 S946 1.613 . S
N947 C950 1.350 . S
N948 S946 1.610 . S
N948 C949 1.351 . S
C949 C943 1.428 . S
C949 N948 1.351 . S
C949 C950 1.434 . S
C950 C941 1.429 . S
C950 N947 1.350 . S
C950 C949 1.434 . S
C951 C952 1.369 1_455 S
C951 C953 1.419 . S
C951 H955 0.930 . S
C952 C951 1.369 1_655 S
C952 C961 1.429 . S
C953 C951 1.419 . S
C953 C954 1.363 1_455 S
C953 H956 0.929 . S
C954 C953 1.363 1_655 S
C954 C960 1.428 . S
H955 C951 0.930 . S
H956 C953 0.929 . S
S957 N958 1.613 . S
S957 N959 1.610 . S
N958 S957 1.613 . S
N958 C961 1.350 . S
N959 S957 1.610 . S
N959 C960 1.351 . S
C960 C954 1.428 . S
C960 N959 1.351 . S
C960 C961 1.434 . S
C961 C952 1.429 . S
C961 N958 1.350 . S
C961 C960 1.434 . S
C962 C963 1.369 . S
C962 C964 1.419 . S
C962 H966 0.930 . S
C963 C962 1.369 . S
C963 C972 1.429 . S
C964 C962 1.419 . S
C964 C965 1.363 . S
C964 H967 0.929 . S
C965 C964 1.363 . S
C965 C971 1.428 . S
H966 C962 0.930 . S
H967 C964 0.929 . S
S968 N969 1.613 . S
S968 N970 1.610 . S
N969 S968 1.613 . S
N969 C972 1.350 . S
N970 S968 1.610 . S
N970 C971 1.351 . S
C971 C965 1.428 . S
C971 N970 1.351 . S
C971 C972 1.434 . S
C972 C963 1.429 . S
C972 N969 1.350 . S
C972 C971 1.434 . S
C973 C974 1.369 . S
C973 C975 1.419 . S
C973 H977 0.930 . S
C974 C973 1.369 . S
C974 C983 1.429 . S
C975 C973 1.419 . S
C975 C976 1.363 . S
C975 H978 0.929 . S
C976 C975 1.363 . S
C976 C982 1.428 . S
H977 C973 0.930 . S
H978 C975 0.929 . S
S979 N980 1.613 . S
S979 N981 1.610 . S
N980 S979 1.613 . S
N980 C983 1.350 . S
N981 S979 1.610 . S
N981 C982 1.351 . S
C982 C976 1.428 . S
C982 N981 1.351 . S
C982 C983 1.434 . S
C983 C974 1.429 . S
C983 N980 1.350 . S
C983 C982 1.434 . S
C984 C985 1.369 . S
C984 C986 1.419 . S
C984 H988 0.930 . S
C985 C984 1.369 . S
C985 C994 1.429 . S
C986 C984 1.419 . S
C986 C987 1.363 . S
C986 H989 0.929 . S
C987 C986 1.363 . S
C987 C993 1.428 . S
H988 C984 0.930 . S
H989 C986 0.929 . S
S990 N991 1.613 . S
S990 N992 1.610 . S
N991 S990 1.613 . S
N991 C994 1.350 . S
N992 S990 1.610 . S
N992 C993 1.351 . S
C993 C987 1.428 . S
C993 N992 1.351 . S
C993 C994 1.434 . S
C994 C985 1.429 . S
C994 N991 1.350 . S
C994 C993 1.434 . S
C995 C996 1.369 . S
C995 C997 1.419 . S
C995 H999 0.930 . S
C996 C995 1.369 . S
C996 C1005 1.429 . S
C997 C995 1.419 . S
C997 C998 1.363 . S
C997 H1000 0.929 . S
C998 C997 1.363 . S
C998 C1004 1.428 . S
H999 C995 0.930 . S
H1000 C997 0.929 . S
S1001 N1002 1.613 . S
S1001 N1003 1.610 . S
N1002 S1001 1.613 . S
N1002 C1005 1.350 . S
N1003 S1001 1.610 . S
N1003 C1004 1.351 . S
C1004 C998 1.428 . S
C1004 N1003 1.351 . S
C1004 C1005 1.434 . S
C1005 C996 1.429 . S
C1005 N1002 1.350 . S
C1005 C1004 1.434 . S
C1006 C1007 1.369 . S
C1006 C1008 1.419 . S
C1006 H1010 0.930 . S
C1007 C1006 1.369 . S
C1007 C1016 1.429 . S
C1008 C1006 1.419 . S
C1008 C1009 1.363 . S
C1008 H1011 0.929 . S
C1009 C1008 1.363 . S
C1009 C1015 1.428 . S
H1010 C1006 0.930 . S
H1011 C1008 0.929 . S
S1012 N1013 1.613 . S
S1012 N1014 1.610 . S
N1013 S1012 1.613 . S
N1013 C1016 1.350 . S
N1014 S1012 1.610 . S
N1014 C1015 1.351 . S
C1015 C1009 1.428 . S
C1015 N1014 1.351 . S
C1015 C1016 1.434 . S
C1016 C1007 1.429 . S
C1016 N1013 1.350 . S
C1016 C1015 1.434 . S
C1017 C1018 1.369 . S
C1017 C1019 1.419 . S
C1017 H1021 0.930 . S
C1018 C1017 1.369 . S
C1018 C1027 1.429 . S
C1019 C1017 1.419 . S
C1019 C1020 1.363 . S
C1019 H1022 0.929 . S
C1020 C1019 1.363 . S
C1020 C1026 1.428 . S
H1021 C1017 0.930 . S
H1022 C1019 0.929 . S
S1023 N1024 1.613 . S
S1023 N1025 1.610 . S
N1024 S1023 1.613 . S
N1024 C1027 1.350 . S
N1025 S1023 1.610 . S
N1025 C1026 1.351 . S
C1026 C1020 1.428 . S
C1026 N1025 1.351 . S
C1026 C1027 1.434 . S
C1027 C1018 1.429 . S
C1027 N1024 1.350 . S
C1027 C1026 1.434 . S
C1028 C1029 1.369 . S
C1028 C1030 1.419 . S
C1028 H1032 0.930 . S
C1029 C1028 1.369 . S
C1029 C1038 1.429 . S
C1030 C1028 1.419 . S
C1030 C1031 1.363 . S
C1030 H1033 0.929 . S
C1031 C1030 1.363 . S
C1031 C1037 1.428 . S
H1032 C1028 0.930 . S
H1033 C1030 0.929 . S
S1034 N1035 1.613 . S
S1034 N1036 1.610 . S
N1035 S1034 1.613 . S
N1035 C1038 1.350 . S
N1036 S1034 1.610 . S
N1036 C1037 1.351 . S
C1037 C1031 1.428 . S
C1037 N1036 1.351 . S
C1037 C1038 1.434 . S
C1038 C1029 1.429 . S
C1038 N1035 1.350 . S
C1038 C1037 1.434 . S
C1039 C1040 1.369 . S
C1039 C1041 1.419 . S
C1039 H1043 0.930 . S
C1040 C1039 1.369 . S
C1040 C1049 1.429 . S
C1041 C1039 1.419 . S
C1041 C1042 1.363 . S
C1041 H1044 0.929 . S
C1042 C1041 1.363 . S
C1042 C1048 1.428 . S
H1043 C1039 0.930 . S
H1044 C1041 0.929 . S
S1045 N1046 1.613 . S
S1045 N1047 1.610 . S
N1046 S1045 1.613 . S
N1046 C1049 1.350 . S
N1047 S1045 1.610 . S
N1047 C1048 1.351 . S
C1048 C1042 1.428 . S
C1048 N1047 1.351 . S
C1048 C1049 1.434 . S
C1049 C1040 1.429 . S
C1049 N1046 1.350 . S
C1049 C1048 1.434 . S
C1050 C1051 1.369 . S
C1050 C1052 1.419 . S
C1050 H1054 0.930 . S
C1051 C1050 1.369 . S
C1051 C1060 1.429 . S
C1052 C1050 1.419 . S
C1052 C1053 1.363 . S
C1052 H1055 0.929 . S
C1053 C1052 1.363 . S
C1053 C1059 1.428 . S
H1054 C1050 0.930 . S
H1055 C1052 0.929 . S
S1056 N1057 1.613 . S
S1056 N1058 1.610 . S
N1057 S1056 1.613 . S
N1057 C1060 1.350 . S
N1058 S1056 1.610 . S
N1058 C1059 1.351 . S
C1059 C1053 1.428 . S
C1059 N1058 1.351 . S
C1059 C1060 1.434 . S
C1060 C1051 1.429 . S
C1060 N1057 1.350 . S
C1060 C1059 1.434 . S
C1061 C1062 1.369 . S
C1061 C1063 1.419 . S
C1061 H1065 0.930 . S
C1062 C1061 1.369 . S
C1062 C1071 1.429 . S
C1063 C1061 1.419 . S
C1063 C1064 1.363 . S
C1063 H1066 0.929 . S
C1064 C1063 1.363 . S
C1064 C1070 1.428 . S
H1065 C1061 0.930 . S
H1066 C1063 0.929 . S
S1067 N1068 1.613 . S
S1067 N1069 1.610 . S
N1068 S1067 1.613 . S
N1068 C1071 1.350 . S
N1069 S1067 1.610 . S
N1069 C1070 1.351 . S
C1070 C1064 1.428 . S
C1070 N1069 1.351 . S
C1070 C1071 1.434 . S
C1071 C1062 1.429 . S
C1071 N1068 1.350 . S
C1071 C1070 1.434 . S
C1072 C1073 1.369 . S
C1072 C1074 1.419 . S
C1072 H1076 0.930 . S
C1073 C1072 1.369 . S
C1073 C1082 1.429 . S
C1074 C1072 1.419 . S
C1074 C1075 1.363 . S
C1074 H1077 0.929 . S
C1075 C1074 1.363 . S
C1075 C1081 1.428 . S
H1076 C1072 0.930 . S
H1077 C1074 0.929 . S
S1078 N1079 1.613 . S
S1078 N1080 1.610 . S
N1079 S1078 1.613 . S
N1079 C1082 1.350 . S
N1080 S1078 1.610 . S
N1080 C1081 1.351 . S
C1081 C1075 1.428 . S
C1081 N1080 1.351 . S
C1081 C1082 1.434 . S
C1082 C1073 1.429 . S
C1082 N1079 1.350 . S
C1082 C1081 1.434 . S
C1083 C1084 1.369 . S
C1083 C1085 1.419 . S
C1083 H1087 0.930 . S
C1084 C1083 1.369 . S
C1084 C1093 1.429 . S
C1085 C1083 1.419 . S
C1085 C1086 1.363 . S
C1085 H1088 0.929 . S
C1086 C1085 1.363 . S
C1086 C1092 1.428 . S
H1087 C1083 0.930 . S
H1088 C1085 0.929 . S
S1089 N1090 1.613 . S
S1089 N1091 1.610 . S
N1090 S1089 1.613 . S
N1090 C1093 1.350 . S
N1091 S1089 1.610 . S
N1091 C1092 1.351 . S
C1092 C1086 1.428 . S
C1092 N1091 1.351 . S
C1092 C1093 1.434 . S
C1093 C1084 1.429 . S
C1093 N1090 1.350 . S
C1093 C1092 1.434 . S
C1094 C1095 1.369 . S
C1094 C1096 1.419 . S
C1094 H1098 0.930 . S
C1095 C1094 1.369 . S
C1095 C1104 1.429 . S
C1096 C1094 1.419 . S
C1096 C1097 1.363 . S
C1096 H1099 0.929 . S
C1097 C1096 1.363 . S
C1097 C1103 1.428 . S
H1098 C1094 0.930 . S
H1099 C1096 0.929 . S
S1100 N1101 1.613 . S
S1100 N1102 1.610 . S
N1101 S1100 1.613 . S
N1101 C1104 1.350 . S
N1102 S1100 1.610 . S
N1102 C1103 1.351 . S
C1103 C1097 1.428 . S
C1103 N1102 1.351 . S
C1103 C1104 1.434 . S
C1104 C1095 1.429 . S
C1104 N1101 1.350 . S
C1104 C1103 1.434 . S
C1105 C1106 1.369 . S
C1105 C1107 1.419 . S
C1105 H1109 0.930 . S
C1106 C1105 1.369 . S
C1106 C1115 1.429 . S
C1107 C1105 1.419 . S
C1107 C1108 1.363 . S
C1107 H1110 0.929 . S
C1108 C1107 1.363 . S
C1108 C1114 1.428 . S
H1109 C1105 0.930 . S
H1110 C1107 0.929 . S
S1111 N1112 1.613 . S
S1111 N1113 1.610 . S
N1112 S1111 1.613 . S
N1112 C1115 1.350 . S
N1113 S1111 1.610 . S
N1113 C1114 1.351 . S
C1114 C1108 1.428 . S
C1114 N1113 1.351 . S
C1114 C1115 1.434 . S
C1115 C1106 1.429 . S
C1115 N1112 1.350 . S
C1115 C1114 1.434 . S
C523 C124 1.571 . S
C525 C165 1.587 . S
C534 C130 1.688 . S
C536 C205 1.693 . S
C545 C115 1.568 . S
C547 C257 1.583 . S
C556 C106 1.498 . S
C558 C217 1.498 . S
C569 C245 1.485 . S
C567 C85 1.467 . S
C578 C97 1.376 . S
C580 C177 1.395 . S
C591 C184 1.605 . S
C589 C103 1.589 . S
C602 C224 1.676 . S
C600 C88 1.664 . S
C611 C94 1.568 . S
C613 C244 1.584 . S
C622 C121 1.497 . S
C624 C204 1.496 . S
C633 C133 1.450 . S
C635 C264 1.463 . S
C646 C164 1.414 . S
C644 C112 1.393 . S
C657 C285 1.586 . S
C655 C16 1.571 . S
C666 C22 1.688 . S
C668 C325 1.692 . S
C677 C7 1.570 . S
C679 C377 1.586 . S
C688 C160 1.493 . S
C690 C337 1.499 . S
C699 C139 1.470 . S
C701 C365 1.484 . S
C710 C151 1.368 . S
C712 C297 1.397 . S
C721 C157 1.589 . S
C723 C304 1.606 . S
C732 C142 1.663 . S
C734 C344 1.676 . S
C745 C364 1.581 . S
C743 C148 1.568 . S
C754 C13 1.496 . S
C756 C324 1.493 . S
C767 C384 1.464 . S
C765 C25 1.448 . S
C776 C4 1.386 . S
C778 C284 1.414 . S
C789 C405 1.589 . S
C787 C70 1.567 . S
C798 C76 1.688 . S
C800 C445 1.692 . S
C811 C497 1.586 . S
C809 C61 1.566 . S
C822 C457 1.498 . S
C820 C52 1.498 . S
C833 C485 1.483 . S
C831 C31 1.472 . S
C842 C43 1.376 . S
C844 C417 1.395 . S
C853 C49 1.588 . S
C855 C424 1.605 . S
C864 C34 1.667 . S
C866 C464 1.674 . S
C877 C484 1.584 . S
C875 C40 1.566 . S
C886 C67 1.495 . S
C888 C444 1.494 . S
C897 C79 1.452 . S
C899 C504 1.462 . S
C908 C58 1.392 . S
C910 C404 1.413 . S
C919 C140 1.497 . S
C921 C188 1.476 . S
C932 C228 1.683 . S
C930 C149 1.704 . S
C941 C158 1.547 . S
C943 C251 1.541 . S
C952 C59 1.720 . S
C954 C211 1.699 . S
C963 C68 1.531 . S
C965 C268 1.527 . S
C976 C171 1.473 . S
C974 C77 1.494 . S
C985 C32 1.496 . S
C987 C308 1.468 . S
C996 C41 1.704 . S
C998 C348 1.683 . S
C1007 C50 1.548 . S
C1009 C371 1.540 . S
C1018 C113 1.723 . S
C1020 C331 1.694 . S
C1031 C388 1.527 . S
C1029 C122 1.532 . S
C1040 C131 1.497 . S
C1042 C291 1.468 . S
C1051 C86 1.497 . S
C1053 C428 1.467 . S
C1062 C95 1.704 . S
C1064 C468 1.681 . S
C1075 C491 1.542 . S
C1073 C104 1.548 . S
C1084 C5 1.719 . S
C1086 C451 1.699 . S
C1095 C14 1.531 . S
C1097 C508 1.526 . S
C1106 C23 1.496 . S
C1108 C411 1.469 . S
