# Generated by pormake.
# Topology eea, (3,6)-cn, num edge types: 1
# Building blocks:
#     Node 0, Type 0, BuildingBlock: BETDIP_clean_linker_0, # of connection points: 3
#     Node 1, Type 0, BuildingBlock: BETDIP_clean_linker_0, # of connection points: 3
#     Node 2, Type 0, BuildingBlock: BETDIP_clean_linker_0, # of connection points: 3
#     Node 3, Type 0, BuildingBlock: BETDIP_clean_linker_0, # of connection points: 3
#     Node 4, Type 0, BuildingBlock: BETDIP_clean_linker_0, # of connection points: 3
#     Node 5, Type 0, BuildingBlock: BETDIP_clean_linker_0, # of connection points: 3
#     Node 6, Type 0, BuildingBlock: BETDIP_clean_linker_0, # of connection points: 3
#     Node 7, Type 0, BuildingBlock: BETDIP_clean_linker_0, # of connection points: 3
#     Node 8, Type 0, BuildingBlock: BETDIP_clean_linker_0, # of connection points: 3
#     Node 9, Type 0, BuildingBlock: BETDIP_clean_linker_0, # of connection points: 3
#     Node 10, Type 0, BuildingBlock: BETDIP_clean_linker_0, # of connection points: 3
#     Node 11, Type 0, BuildingBlock: BETDIP_clean_linker_0, # of connection points: 3
#     Node 12, Type 0, BuildingBlock: BETDIP_clean_linker_0, # of connection points: 3
#     Node 13, Type 0, BuildingBlock: BETDIP_clean_linker_0, # of connection points: 3
#     Node 14, Type 0, BuildingBlock: BETDIP_clean_linker_0, # of connection points: 3
#     Node 15, Type 0, BuildingBlock: BETDIP_clean_linker_0, # of connection points: 3
#     Node 16, Type 0, BuildingBlock: BETDIP_clean_linker_0, # of connection points: 3
#     Node 17, Type 0, BuildingBlock: BETDIP_clean_linker_0, # of connection points: 3
#     Node 18, Type 1, BuildingBlock: KUMBUR_clean_sbu_0, # of connection points: 6
#     Node 19, Type 1, BuildingBlock: KUMBUR_clean_sbu_0, # of connection points: 6
#     Node 20, Type 1, BuildingBlock: KUMBUR_clean_sbu_0, # of connection points: 6
#     Node 21, Type 1, BuildingBlock: KUMBUR_clean_sbu_0, # of connection points: 6
#     Node 22, Type 1, BuildingBlock: KUMBUR_clean_sbu_0, # of connection points: 6
#     Node 23, Type 1, BuildingBlock: KUMBUR_clean_sbu_0, # of connection points: 6
#     Node 24, Type 1, BuildingBlock: KUMBUR_clean_sbu_0, # of connection points: 6
#     Node 25, Type 1, BuildingBlock: KUMBUR_clean_sbu_0, # of connection points: 6
#     Node 26, Type 1, BuildingBlock: KUMBUR_clean_sbu_0, # of connection points: 6
#     Edge 27, Type (0, 1), BuildingBlock: CIFDUS_clean_linker_0, # of connection points: 2
#     Edge 28, Type (0, 1), BuildingBlock: CIFDUS_clean_linker_0, # of connection points: 2
#     Edge 29, Type (0, 1), BuildingBlock: CIFDUS_clean_linker_0, # of connection points: 2
#     Edge 30, Type (0, 1), BuildingBlock: CIFDUS_clean_linker_0, # of connection points: 2
#     Edge 31, Type (0, 1), BuildingBlock: CIFDUS_clean_linker_0, # of connection points: 2
#     Edge 32, Type (0, 1), BuildingBlock: CIFDUS_clean_linker_0, # of connection points: 2
#     Edge 33, Type (0, 1), BuildingBlock: CIFDUS_clean_linker_0, # of connection points: 2
#     Edge 34, Type (0, 1), BuildingBlock: CIFDUS_clean_linker_0, # of connection points: 2
#     Edge 35, Type (0, 1), BuildingBlock: CIFDUS_clean_linker_0, # of connection points: 2
#     Edge 36, Type (0, 1), BuildingBlock: CIFDUS_clean_linker_0, # of connection points: 2
#     Edge 37, Type (0, 1), BuildingBlock: CIFDUS_clean_linker_0, # of connection points: 2
#     Edge 38, Type (0, 1), BuildingBlock: CIFDUS_clean_linker_0, # of connection points: 2
#     Edge 39, Type (0, 1), BuildingBlock: CIFDUS_clean_linker_0, # of connection points: 2
#     Edge 40, Type (0, 1), BuildingBlock: CIFDUS_clean_linker_0, # of connection points: 2
#     Edge 41, Type (0, 1), BuildingBlock: CIFDUS_clean_linker_0, # of connection points: 2
#     Edge 42, Type (0, 1), BuildingBlock: CIFDUS_clean_linker_0, # of connection points: 2
#     Edge 43, Type (0, 1), BuildingBlock: CIFDUS_clean_linker_0, # of connection points: 2
#     Edge 44, Type (0, 1), BuildingBlock: CIFDUS_clean_linker_0, # of connection points: 2
#     Edge 45, Type (0, 1), BuildingBlock: CIFDUS_clean_linker_0, # of connection points: 2
#     Edge 46, Type (0, 1), BuildingBlock: CIFDUS_clean_linker_0, # of connection points: 2
#     Edge 47, Type (0, 1), BuildingBlock: CIFDUS_clean_linker_0, # of connection points: 2
#     Edge 48, Type (0, 1), BuildingBlock: CIFDUS_clean_linker_0, # of connection points: 2
#     Edge 49, Type (0, 1), BuildingBlock: CIFDUS_clean_linker_0, # of connection points: 2
#     Edge 50, Type (0, 1), BuildingBlock: CIFDUS_clean_linker_0, # of connection points: 2
#     Edge 51, Type (0, 1), BuildingBlock: CIFDUS_clean_linker_0, # of connection points: 2
#     Edge 52, Type (0, 1), BuildingBlock: CIFDUS_clean_linker_0, # of connection points: 2
#     Edge 53, Type (0, 1), BuildingBlock: CIFDUS_clean_linker_0, # of connection points: 2
#     Edge 54, Type (0, 1), BuildingBlock: CIFDUS_clean_linker_0, # of connection points: 2
#     Edge 55, Type (0, 1), BuildingBlock: CIFDUS_clean_linker_0, # of connection points: 2
#     Edge 56, Type (0, 1), BuildingBlock: CIFDUS_clean_linker_0, # of connection points: 2
#     Edge 57, Type (0, 1), BuildingBlock: CIFDUS_clean_linker_0, # of connection points: 2
#     Edge 58, Type (0, 1), BuildingBlock: CIFDUS_clean_linker_0, # of connection points: 2
#     Edge 59, Type (0, 1), BuildingBlock: CIFDUS_clean_linker_0, # of connection points: 2
#     Edge 60, Type (0, 1), BuildingBlock: CIFDUS_clean_linker_0, # of connection points: 2
#     Edge 61, Type (0, 1), BuildingBlock: CIFDUS_clean_linker_0, # of connection points: 2
#     Edge 62, Type (0, 1), BuildingBlock: CIFDUS_clean_linker_0, # of connection points: 2
#     Edge 63, Type (0, 1), BuildingBlock: CIFDUS_clean_linker_0, # of connection points: 2
#     Edge 64, Type (0, 1), BuildingBlock: CIFDUS_clean_linker_0, # of connection points: 2
#     Edge 65, Type (0, 1), BuildingBlock: CIFDUS_clean_linker_0, # of connection points: 2
#     Edge 66, Type (0, 1), BuildingBlock: CIFDUS_clean_linker_0, # of connection points: 2
#     Edge 67, Type (0, 1), BuildingBlock: CIFDUS_clean_linker_0, # of connection points: 2
#     Edge 68, Type (0, 1), BuildingBlock: CIFDUS_clean_linker_0, # of connection points: 2
#     Edge 69, Type (0, 1), BuildingBlock: CIFDUS_clean_linker_0, # of connection points: 2
#     Edge 70, Type (0, 1), BuildingBlock: CIFDUS_clean_linker_0, # of connection points: 2
#     Edge 71, Type (0, 1), BuildingBlock: CIFDUS_clean_linker_0, # of connection points: 2
#     Edge 72, Type (0, 1), BuildingBlock: CIFDUS_clean_linker_0, # of connection points: 2
#     Edge 73, Type (0, 1), BuildingBlock: CIFDUS_clean_linker_0, # of connection points: 2
#     Edge 74, Type (0, 1), BuildingBlock: CIFDUS_clean_linker_0, # of connection points: 2
#     Edge 75, Type (0, 1), BuildingBlock: CIFDUS_clean_linker_0, # of connection points: 2
#     Edge 76, Type (0, 1), BuildingBlock: CIFDUS_clean_linker_0, # of connection points: 2
#     Edge 77, Type (0, 1), BuildingBlock: CIFDUS_clean_linker_0, # of connection points: 2
#     Edge 78, Type (0, 1), BuildingBlock: CIFDUS_clean_linker_0, # of connection points: 2
#     Edge 79, Type (0, 1), BuildingBlock: CIFDUS_clean_linker_0, # of connection points: 2
#     Edge 80, Type (0, 1), BuildingBlock: CIFDUS_clean_linker_0, # of connection points: 2
# Relax obj value: 0.026
# Max RMSD: 0.174
# Mean RMSD: 0.125
data_MOF--net-eea--node1-KUMBUR_clean_sbu_0--node2-BETDIP_clean_linker_0--edge1-CIFDUS_clean_linker_0
_symmetry_space_group_name_H-M    P1
_symmetry_Int_Tables_number       1
_symmetry_cell_setting            triclinic
loop_
_symmetry_equiv_pos_as_xyz
'x, y, z'
_cell_length_a     46.81451
_cell_length_b     48.467341
_cell_length_c     59.513453
_cell_angle_alpha  89.974868
_cell_angle_beta   89.59721
_cell_angle_gamma 120.27159
loop_
_atom_site_label
_atom_site_type_symbol
_atom_site_fract_x
_atom_site_fract_y
_atom_site_fract_z
_atom_type_partial_charge
H0 H 0.23761 0.09801 0.37878 0.0
H1 H 0.29312 0.16234 0.43197 0.0
H2 H 0.28295 0.06953 0.42959 0.0
H3 H 0.25144 0.17276 0.42982 0.0
C4 C 0.24907 0.17467 0.41182 0.0
C5 C 0.25223 0.10296 0.39385 0.0
C6 C 0.25992 0.08031 0.4023 0.0
C7 C 0.26276 0.13193 0.40504 0.0
C8 C 0.28302 0.13921 0.42407 0.0
C9 C 0.29079 0.11695 0.43286 0.0
C10 C 0.27856 0.08742 0.4221 0.0
N11 N 0.25227 0.15318 0.39718 0.0
H12 H 0.93491 0.13074 0.39257 0.0
H13 H 0.87272 0.10441 0.45165 0.0
H14 H 0.95265 0.20081 0.44322 0.0
H15 H 0.86501 0.05606 0.44429 0.0
C16 C 0.86247 0.05444 0.42615 0.0
C17 C 0.92854 0.13697 0.40858 0.0
C18 C 0.94691 0.16851 0.4165 0.0
C19 C 0.90183 0.11344 0.42123 0.0
C20 C 0.89354 0.12199 0.44188 0.0
C21 C 0.91193 0.15332 0.45013 0.0
C22 C 0.93852 0.17643 0.43723 0.0
N23 N 0.88306 0.08176 0.41258 0.0
H24 H 0.8866 0.79656 0.38026 0.0
H25 H 0.92137 0.76644 0.4367 0.0
H26 H 0.82347 0.75368 0.43789 0.0
H27 H 0.97439 0.82699 0.41684 0.0
C28 C 0.96954 0.80963 0.40371 0.0
C29 C 0.88275 0.78685 0.39714 0.0
C30 C 0.85224 0.77621 0.4081 0.0
C31 C 0.90802 0.78399 0.40758 0.0
C32 C 0.90253 0.77011 0.42916 0.0
C33 C 0.87167 0.75831 0.44 0.0
C34 C 0.84713 0.76223 0.4295 0.0
N35 N 0.937 0.79121 0.39508 0.0
H36 H 0.09717 0.19782 0.6598 0.0
H37 H 0.16348 0.23128 0.60291 0.0
H38 H 0.07567 0.23843 0.60236 0.0
H39 H 0.20034 0.25001 0.63538 0.0
C40 C 0.19021 0.22591 0.64199 0.0
C41 C 0.10348 0.20837 0.64315 0.0
C42 C 0.08283 0.2178 0.63248 0.0
C43 C 0.13319 0.21408 0.63283 0.0
C44 C 0.14105 0.22749 0.61112 0.0
C45 C 0.12043 0.2362 0.59992 0.0
C46 C 0.0917 0.23178 0.6109 0.0
N47 N 0.15512 0.20642 0.64425 0.0
H48 H 0.82086 0.90239 0.64726 0.0
H49 H 0.76546 0.91311 0.59405 0.0
H50 H 0.76151 0.82397 0.6026 0.0
H51 H 0.79514 0.96309 0.59935 0.0
C52 C 0.80378 0.96749 0.61653 0.0
C53 C 0.80421 0.89236 0.63319 0.0
C54 C 0.79232 0.86034 0.62666 0.0
C55 C 0.79521 0.91199 0.62143 0.0
C56 C 0.77402 0.89924 0.6029 0.0
C57 C 0.76268 0.86793 0.59569 0.0
C58 C 0.77127 0.84845 0.6079 0.0
N59 N 0.80721 0.94405 0.62884 0.0
H60 H 0.1525 0.92871 0.654 0.0
H61 H 0.11102 0.86199 0.59968 0.0
H62 H 0.20453 0.94876 0.59075 0.0
H63 H 0.06165 0.87363 0.6244 0.0
C64 C 0.06775 0.86056 0.63644 0.0
C65 C 0.15393 0.92238 0.63674 0.0
C66 C 0.18167 0.94255 0.62334 0.0
C67 C 0.12809 0.89374 0.62804 0.0
C68 C 0.13031 0.8848 0.6059 0.0
C69 C 0.15838 0.90408 0.5925 0.0
C70 C 0.18342 0.93321 0.60124 0.0
N71 N 0.10139 0.87264 0.64228 0.0
H72 H 0.87828 0.42245 0.73106 0.0
H73 H 0.91971 0.48802 0.78587 0.0
H74 H 0.91843 0.3988 0.78803 0.0
H75 H 0.9265 0.52374 0.76003 0.0
C76 C 0.90475 0.51181 0.74952 0.0
C77 C 0.88986 0.42819 0.74742 0.0
C78 C 0.89752 0.40684 0.75819 0.0
C79 C 0.89804 0.4576 0.7571 0.0
C80 C 0.91353 0.46552 0.77819 0.0
C81 C 0.92136 0.44467 0.7895 0.0
C82 C 0.91318 0.41534 0.77931 0.0
N83 N 0.88994 0.47843 0.74537 0.0
H84 H 0.62426 0.46263 0.72312 0.0
H85 H 0.55762 0.43877 0.77951 0.0
H86 H 0.64096 0.53364 0.77295 0.0
H87 H 0.55194 0.39013 0.77388 0.0
C88 C 0.54879 0.3881 0.75577 0.0
C89 C 0.61718 0.46943 0.73862 0.0
C90 C 0.63606 0.50098 0.74658 0.0
C91 C 0.58899 0.44662 0.75052 0.0
C92 C 0.57961 0.45583 0.77043 0.0
C93 C 0.59832 0.48703 0.7788 0.0
C94 C 0.62649 0.50943 0.76673 0.0
N95 N 0.56976 0.41494 0.74192 0.0
H96 H 0.57927 0.16238 0.71766 0.0
H97 H 0.59964 0.11578 0.7718 0.0
H98 H 0.50583 0.11135 0.76903 0.0
H99 H 0.6262 0.10694 0.74038 0.0
C100 C 0.64093 0.13173 0.73504 0.0
C101 C 0.57157 0.14847 0.73306 0.0
C102 C 0.53937 0.13729 0.74179 0.0
C103 C 0.59335 0.14032 0.74353 0.0
C104 C 0.58309 0.12194 0.76349 0.0
C105 C 0.55139 0.11111 0.77267 0.0
C106 C 0.53002 0.11912 0.76174 0.0
N107 N 0.62524 0.15048 0.73377 0.0
H108 H 0.7575 0.53993 0.99354 0.0
H109 H 0.83307 0.57851 0.94211 0.0
H110 H 0.75132 0.59503 0.93886 0.0
H111 H 0.86437 0.58685 0.97594 0.0
C112 C 0.85073 0.56186 0.98099 0.0
C113 C 0.76718 0.55301 0.97793 0.0
C114 C 0.75053 0.56682 0.96721 0.0
C115 C 0.79756 0.55791 0.96928 0.0
C116 C 0.81026 0.57544 0.9492 0.0
C117 C 0.79364 0.58868 0.93797 0.0
C118 C 0.76382 0.58416 0.9471 0.0
N119 N 0.81539 0.54559 0.98093 0.0
H120 H 0.45968 0.20634 0.98762 0.0
H121 H 0.41547 0.23698 0.93812 0.0
H122 H 0.40138 0.14272 0.93427 0.0
H123 H 0.46033 0.28382 0.9436 0.0
C124 C 0.46353 0.2845 0.96168 0.0
C125 C 0.44495 0.20128 0.9726 0.0
C126 C 0.43107 0.17111 0.96218 0.0
C127 C 0.44052 0.2255 0.96357 0.0
C128 C 0.42008 0.21885 0.94481 0.0
C129 C 0.40573 0.18901 0.93427 0.0
C130 C 0.41171 0.16543 0.94284 0.0
N131 N 0.45684 0.25635 0.97355 0.0
H132 H 0.80587 0.25128 0.98952 0.0
H133 H 0.80384 0.18114 0.94406 0.0
H134 H 0.87885 0.27983 0.9368 0.0
H135 H 0.74879 0.21269 0.99204 0.0
C136 C 0.74763 0.18984 0.99034 0.0
C137 C 0.81582 0.2452 0.97511 0.0
C138 C 0.844 0.26932 0.96387 0.0
C139 C 0.80102 0.21329 0.96766 0.0
C140 C 0.81498 0.20578 0.94945 0.0
C141 C 0.84301 0.22961 0.9382 0.0
C142 C 0.85719 0.26126 0.94547 0.0
N143 N 0.77268 0.1877 0.97819 0.0
H144 H 0.54773 0.75494 0.05069 0.0
H145 H 0.58944 0.81917 0.1064 0.0
H146 H 0.58216 0.72747 0.10885 0.0
H147 H 0.59979 0.85582 0.07967 0.0
C148 C 0.57795 0.84467 0.06917 0.0
C149 C 0.55849 0.75992 0.06731 0.0
C150 C 0.56374 0.73732 0.0785 0.0
C151 C 0.56801 0.78958 0.07699 0.0
C152 C 0.58274 0.79671 0.09835 0.0
C153 C 0.58807 0.77442 0.10983 0.0
C154 C 0.57819 0.74471 0.09991 0.0
N155 N 0.5617 0.81132 0.06503 0.0
H156 H 0.27757 0.80856 0.04728 0.0
H157 H 0.21336 0.77196 0.10534 0.0
H158 H 0.29059 0.87015 0.10322 0.0
H159 H 0.21768 0.72796 0.09547 0.0
C160 C 0.2109 0.72685 0.07792 0.0
C161 C 0.27034 0.81212 0.06388 0.0
C162 C 0.28729 0.84256 0.0739 0.0
C163 C 0.24386 0.78627 0.07525 0.0
C164 C 0.23418 0.79138 0.09664 0.0
C165 C 0.25111 0.82143 0.10698 0.0
C166 C 0.27761 0.84677 0.09547 0.0
N167 N 0.22659 0.75552 0.06491 0.0
H168 H 0.22655 0.46425 0.05576 0.0
H169 H 0.23645 0.41113 0.1102 0.0
H170 H 0.14795 0.41651 0.10469 0.0
H171 H 0.28681 0.48719 0.05484 0.0
C172 C 0.28905 0.4665 0.05886 0.0
C173 C 0.21691 0.4501 0.07094 0.0
C174 C 0.18506 0.442 0.07898 0.0
C175 C 0.2354 0.43857 0.08216 0.0
C176 C 0.22234 0.42012 0.1017 0.0
C177 C 0.19111 0.41231 0.11009 0.0
C178 C 0.17232 0.42283 0.09842 0.0
N179 N 0.26587 0.44252 0.07376 0.0
H180 H 0.4252 0.86815 0.3261 0.0
H181 H 0.50152 0.90526 0.27527 0.0
H182 H 0.41964 0.92142 0.26994 0.0
H183 H 0.52939 0.92011 0.31435 0.0
C184 C 0.51868 0.89459 0.31723 0.0
C185 C 0.43495 0.88056 0.31027 0.0
C186 C 0.41851 0.89404 0.2989 0.0
C187 C 0.46543 0.88531 0.30204 0.0
C188 C 0.47841 0.90217 0.28179 0.0
C189 C 0.46194 0.91501 0.26992 0.0
C190 C 0.43201 0.91074 0.27861 0.0
N191 N 0.48387 0.87449 0.31452 0.0
H192 H 0.13772 0.54182 0.32707 0.0
H193 H 0.08784 0.56473 0.27607 0.0
H194 H 0.09119 0.47824 0.27155 0.0
H195 H 0.08228 0.59276 0.30421 0.0
C196 C 0.10627 0.60336 0.31224 0.0
C197 C 0.12313 0.53557 0.31189 0.0
C198 C 0.11569 0.50757 0.30024 0.0
C199 C 0.11263 0.55611 0.30362 0.0
C200 C 0.09487 0.54858 0.28334 0.0
C201 C 0.08665 0.52025 0.27197 0.0
C202 C 0.09696 0.49986 0.28059 0.0
N203 N 0.12193 0.58502 0.31525 0.0
H204 H 0.45868 0.59861 0.31673 0.0
H205 H 0.4322 0.5314 0.2628 0.0
H206 H 0.522 0.62235 0.25841 0.0
H207 H 0.40799 0.49609 0.29372 0.0
C208 C 0.39585 0.50762 0.30175 0.0
C209 C 0.46419 0.59261 0.30035 0.0
C210 C 0.49337 0.61438 0.28882 0.0
C211 C 0.4424 0.56248 0.29135 0.0
C212 C 0.44947 0.55418 0.2702 0.0
C213 C 0.47812 0.57575 0.25811 0.0
C214 C 0.49985 0.60572 0.2676 0.0
N215 N 0.41298 0.54152 0.30356 0.0
Tb216 Tb 0.50418 0.99945 0.9947 0.0
C217 C 0.55147 0.10632 0.0651 0.0
C218 C 0.61063 0.1292 0.0679 0.0
C219 C 0.58612 0.16225 0.07499 0.0
C220 C 0.57895 0.10311 0.0633 0.0
C221 C 0.55454 0.13576 0.07128 0.0
C222 C 0.61414 0.15896 0.07331 0.0
C223 C 0.49495 0.10999 0.07119 0.0
N224 N 0.52149 0.08009 0.06154 0.0
C225 C 0.4932 0.08125 0.06524 0.0
C226 C 0.52577 0.13746 0.07401 0.0
Tb227 Tb 0.5211 0.03441 0.05069 0.0
N228 N 0.57437 0.07391 0.05815 0.0
C229 C 0.60051 0.06874 0.05888 0.0
C230 C 0.63765 0.12436 0.06747 0.0
C231 C 0.63248 0.09388 0.06323 0.0
H232 H 0.46921 0.06031 0.06296 0.0
H233 H 0.65313 0.08972 0.06317 0.0
H234 H 0.63831 0.17938 0.07669 0.0
H235 H 0.47251 0.11092 0.07358 0.0
H236 H 0.59724 0.04554 0.05543 0.0
H237 H 0.37181 0.94687 0.98623 0.0
H238 H 0.66243 0.14378 0.07082 0.0
H239 H 0.55342 0.97217 0.97891 0.0
H240 H 0.42889 0.9906 0.99154 0.0
H241 H 0.54804 0.92052 0.96831 0.0
H242 H 0.58906 0.18516 0.0796 0.0
H243 H 0.36034 0.89176 0.97993 0.0
H244 H 0.38255 0.85458 0.97376 0.0
H245 H 0.52704 0.15965 0.0787 0.0
H246 H 0.43069 0.84736 0.96884 0.0
N247 N 0.45009 0.96074 0.98891 0.0
C248 C 0.42455 0.96683 0.98871 0.0
C249 C 0.38557 0.91092 0.98225 0.0
C250 C 0.41197 0.90517 0.98107 0.0
C251 C 0.39197 0.942 0.98573 0.0
C252 C 0.44429 0.93096 0.98433 0.0
H253 H 0.49264 0.87197 0.96645 0.0
N254 N 0.50163 0.95292 0.98363 0.0
C255 C 0.52617 0.92194 0.9721 0.0
C256 C 0.4711 0.92688 0.98161 0.0
C257 C 0.52911 0.9512 0.97803 0.0
C258 C 0.49487 0.89457 0.97114 0.0
C259 C 0.46677 0.89693 0.97551 0.0
O260 O 0.53311 0.01555 0.96512 0.0
O261 O 0.53753 0.03736 0.01647 0.0
O262 O 0.51757 0.06751 0.02785 0.0
O263 O 0.48435 0.03206 1.0001 0.0
O264 O 0.55845 0.02338 0.99231 0.0
O265 O 0.4866 0.0142 0.96737 0.0
O266 O 0.49221 0.01863 0.08029 0.0
O267 O 0.48791 0.9958 0.02907 0.0
O268 O 0.5123 0.96799 0.01693 0.0
O269 O 0.54301 1.00402 0.04526 0.0
O270 O 0.46687 0.01084 0.05218 0.0
O271 O 0.53781 0.01808 0.0775 0.0
C272 C 0.565 0.04332 1.00837 0.0
C273 C 0.50392 0.00736 0.93134 0.0
C274 C 0.50971 0.01656 0.89056 0.0
C275 C 0.51648 0.02839 0.91278 0.0
C276 C 0.49045 0.98328 0.88742 0.0
C277 C 0.48455 0.97443 0.92764 0.0
C278 C 0.47795 0.96251 0.90581 0.0
C279 C 0.4972 0.05991 0.0107 0.0
C280 C 0.5116 0.01999 0.95443 0.0
C281 C 0.43461 0.87068 0.9733 0.0
C282 C 0.40721 0.8748 0.97609 0.0
C283 C 0.46031 0.99011 0.0367 0.0
C284 C 0.52149 0.02484 0.11378 0.0
C285 C 0.5074 1.00336 0.1319 0.0
C286 C 0.5153 0.01411 0.15424 0.0
C287 C 0.53738 0.04678 0.15808 0.0
C288 C 0.54341 0.05725 0.11804 0.0
C289 C 0.55126 0.06812 0.14008 0.0
C290 C 0.53261 0.97678 0.0343 0.0
C291 C 0.51318 0.01297 0.0906 0.0
H292 H 0.53113 0.05388 0.91568 0.0
H293 H 0.48529 0.97317 0.87071 0.0
H294 H 0.47461 0.95792 0.94159 0.0
H295 H 0.46317 0.93701 0.90311 0.0
H296 H 0.49067 0.97824 0.12857 0.0
H297 H 0.54361 0.05595 0.17502 0.0
H298 H 0.55448 0.07412 0.10439 0.0
H299 H 0.56814 0.0932 0.14324 0.0
Tb300 Tb 0.03754 0.50351 0.98857 0.0
C301 C 0.93581 0.47078 0.05923 0.0
C302 C 0.92255 0.51276 0.05528 0.0
C303 C 0.87988 0.45962 0.06696 0.0
C304 C 0.94539 0.50193 0.05349 0.0
C305 C 0.90331 0.44964 0.06686 0.0
C306 C 0.8895 0.49115 0.06118 0.0
C307 C 0.92089 0.4123 0.0771 0.0
N308 N 0.95921 0.46212 0.0593 0.0
C309 C 0.95285 0.43425 0.0696 0.0
C310 C 0.89579 0.41971 0.07524 0.0
Tb311 Tb 1.00994 0.49888 0.04492 0.0
N312 N 0.97767 0.52222 0.04798 0.0
C313 C 0.98915 0.55437 0.04632 0.0
C314 C 0.93386 0.54522 0.05201 0.0
C315 C 0.96742 0.56618 0.04807 0.0
H316 H 0.9721 0.42837 0.07128 0.0
H317 H 0.9766 0.59149 0.04611 0.0
H318 H 0.87151 0.49893 0.06219 0.0
H319 H 0.91568 0.38976 0.08439 0.0
H320 H 1.01474 0.57143 0.04307 0.0
H321 H 0.97909 0.41013 0.92667 0.0
H322 H 0.91712 0.55447 0.05322 0.0
H323 H 0.11489 0.54011 1.00746 0.0
H324 H 0.98638 0.45563 0.9497 0.0
H325 H 0.16205 0.53121 1.0075 0.0
H326 H 0.85464 0.44356 0.07241 0.0
H327 H 0.01927 0.39132 0.92952 0.0
H328 H 0.07312 0.39985 0.94497 0.0
H329 H 0.87111 0.40279 0.08125 0.0
H330 H 0.12342 0.4333 0.96688 0.0
N331 N 0.02892 0.46109 0.96653 0.0
C332 C 1.00383 0.44735 0.95121 0.0
C333 C 0.02233 0.41104 0.93983 0.0
C334 C 0.04964 0.42715 0.95393 0.0
C335 C 0.99965 0.42162 0.93813 0.0
C336 C 0.05243 0.45267 0.96696 0.0
H337 H 0.15725 0.48295 0.98972 0.0
N338 N 0.08298 0.49725 0.98974 0.0
C339 C 0.13923 0.51415 0.99945 0.0
C340 C 0.0806 0.47153 0.979 0.0
C341 C 0.11225 0.51912 0.99933 0.0
C342 C 0.13638 0.48681 0.9895 0.0
C343 C 0.10699 0.46536 0.97874 0.0
O344 O 0.07536 0.53884 0.96833 0.0
O345 O 1.00992 0.51671 0.01166 0.0
O346 O 0.9732 0.45487 0.02796 0.0
O347 O 0.99945 0.45336 0.99465 0.0
O348 O 0.98839 0.49594 0.98173 0.0
O349 O 0.02486 0.5179 0.95854 0.0
O350 O 0.05067 0.5126 0.06625 0.0
O351 O 0.04586 0.49591 0.02324 0.0
O352 O 0.07052 0.5504 1.00407 0.0
O353 O 0.04694 0.54867 0.03903 0.0
O354 O 0.01929 0.45922 0.04554 0.0
O355 O 1.00545 0.50648 0.07943 0.0
C356 C 0.98415 0.5076 0.99994 0.0
C357 C 0.06442 0.5296 0.92934 0.0
C358 C 0.04949 0.50638 0.89152 0.0
C359 C 0.0402 0.51193 0.91296 0.0
C360 C 0.08335 0.51921 0.88669 0.0
C361 C 0.09795 0.54207 0.92382 0.0
C362 C 0.10725 0.53683 0.9027 0.0
C363 C 0.97485 0.44043 1.0095 0.0
C364 C 0.0554 0.53543 0.95213 0.0
C365 C 0.1036 0.4387 0.96705 0.0
C366 C 0.07494 0.41962 0.95462 0.0
C367 C 0.04271 0.46994 0.03082 0.0
C368 C 0.03652 0.49295 0.10327 0.0
C369 C 0.04117 0.50542 0.12509 0.0
C370 C 0.0433 0.48824 0.14344 0.0
C371 C 0.04054 0.45833 0.13967 0.0
C372 C 0.03423 0.4632 0.09991 0.0
C373 C 0.03603 0.44597 0.11803 0.0
C374 C 0.06997 0.5636 0.02346 0.0
C375 C 0.03455 0.51142 0.08429 0.0
H376 H 1.01424 0.50218 0.91695 0.0
H377 H 0.09154 0.51615 0.8703 0.0
H378 H 0.11713 0.55597 0.93588 0.0
H379 H 0.13318 0.54664 0.89865 0.0
H380 H 0.04313 0.52844 0.12775 0.0
H381 H 0.04271 0.44482 0.15339 0.0
H382 H 0.03133 0.45317 0.0834 0.0
H383 H 0.03433 0.42312 0.11526 0.0
Tb384 Tb 0.52875 0.50285 0.04508 0.0
C385 C 0.4806 0.56807 0.98006 0.0
C386 C 0.42153 0.53256 0.97758 0.0
C387 C 0.44471 0.5898 0.97298 0.0
C388 C 0.4536 0.53769 0.98108 0.0
C389 C 0.47667 0.59451 0.97555 0.0
C390 C 0.41716 0.55885 0.97399 0.0
C391 C 0.53621 0.62764 0.97456 0.0
N392 N 0.51097 0.57146 0.98241 0.0
C393 C 0.53879 0.60059 0.97882 0.0
C394 C 0.505 0.62466 0.97319 0.0
Tb395 Tb 0.51277 0.52611 0.99067 0.0
N396 N 0.45899 0.51302 0.98453 0.0
C397 C 0.43326 0.48223 0.98316 0.0
C398 C 0.39496 0.50116 0.97734 0.0
C399 C 0.40093 0.47588 0.97985 0.0
H400 H 0.56303 0.6032 0.98 0.0
H401 H 0.38062 0.45147 0.97935 0.0
H402 H 0.39268 0.55544 0.9715 0.0
H403 H 0.55828 0.65075 0.97234 0.0
H404 H 0.43717 0.46228 0.98517 0.0
H405 H 0.66172 0.57338 0.05357 0.0
H406 H 0.3699 0.49617 0.9748 0.0
H407 H 0.4765 0.42778 0.06002 0.0
H408 H 0.60568 0.56466 0.04885 0.0
H409 H 0.47897 0.37975 0.07023 0.0
H410 H 0.4411 0.60982 0.9697 0.0
H411 H 0.67017 0.52732 0.05853 0.0
H412 H 0.64503 0.46796 0.06382 0.0
H413 H 0.50306 0.64562 0.96979 0.0
H414 H 0.59508 0.41504 0.06858 0.0
N415 N 0.58207 0.51383 0.05024 0.0
C416 C 0.60869 0.54419 0.05102 0.0
C417 C 0.64538 0.52328 0.05638 0.0
C418 C 0.61789 0.49241 0.05716 0.0
C419 C 0.64069 0.54932 0.05368 0.0
C420 C 0.58622 0.48852 0.05413 0.0
H421 H 0.53293 0.38199 0.07152 0.0
N422 N 0.52858 0.45704 0.0551 0.0
C423 C 0.50151 0.40186 0.06638 0.0
C424 C 0.55838 0.45897 0.05677 0.0
C425 C 0.50024 0.42922 0.0606 0.0
C426 C 0.532 0.40319 0.06702 0.0
C427 C 0.56101 0.43214 0.06254 0.0
O428 O 0.50044 0.49075 0.07497 0.0
O429 O 0.49579 0.51102 0.02458 0.0
O430 O 0.51839 0.56188 0.01515 0.0
O431 O 0.55085 0.5551 0.04156 0.0
O432 O 0.47435 0.47462 0.04703 0.0
O433 O 0.54799 0.53354 0.07289 0.0
O434 O 0.54177 0.54185 0.96109 0.0
O435 O 0.54565 0.51739 0.0109 0.0
O436 O 0.52088 0.465 0.02162 0.0
O437 O 0.4918 0.474 0.99354 0.0
O438 O 0.56695 0.55517 0.9894 0.0
O439 O 0.49632 0.49672 0.9621 0.0
C440 C 0.468 0.48985 0.03211 0.0
C441 C 0.53093 0.50854 0.10849 0.0
C442 C 0.52461 0.50822 0.1494 0.0
C443 C 0.51792 0.51536 0.12775 0.0
C444 C 0.54474 0.49448 0.15141 0.0
C445 C 0.55105 0.49501 0.11101 0.0
C446 C 0.55788 0.48803 0.13235 0.0
C447 C 0.53901 0.57215 0.03228 0.0
C448 C 0.52301 0.5152 0.08591 0.0
C449 C 0.59248 0.43542 0.0644 0.0
C450 C 0.62091 0.46554 0.06168 0.0
C451 C 0.57334 0.53915 1.00363 0.0
C452 C 0.5126 0.52339 0.92706 0.0
C453 C 0.52408 0.51505 0.90772 0.0
C454 C 0.51523 0.52004 0.88612 0.0
C455 C 0.49529 0.53398 0.8842 0.0
C456 C 0.4928 0.53728 0.92466 0.0
C457 C 0.48431 0.54264 0.90335 0.0
C458 C 0.50199 0.45598 1.00351 0.0
C459 C 0.52097 0.51702 0.94958 0.0
H460 H 0.50224 0.52571 0.12586 0.0
H461 H 0.5507 0.48909 0.16779 0.0
H462 H 0.56152 0.48986 0.09654 0.0
H463 H 0.57347 0.47761 0.13413 0.0
H464 H 0.53917 0.50406 0.90949 0.0
H465 H 0.48832 0.53835 0.86784 0.0
H466 H 0.48375 0.54385 0.9392 0.0
H467 H 0.46901 0.55338 0.90166 0.0
Tb468 Tb 0.15744 0.31918 0.32754 0.0
C469 C 0.2286 0.42083 0.39515 0.0
C470 C 0.28544 0.43532 0.38825 0.0
C471 C 0.27269 0.4754 0.40144 0.0
C472 C 0.25137 0.41256 0.38822 0.0
C473 C 0.23898 0.45202 0.40268 0.0
C474 C 0.29591 0.46706 0.3942 0.0
C475 C 0.1829 0.43325 0.41519 0.0
N476 N 0.19648 0.39737 0.3965 0.0
C477 C 0.17399 0.40259 0.40773 0.0
C478 C 0.21542 0.45825 0.41224 0.0
Tb479 Tb 0.18402 0.34804 0.38344 0.0
N480 N 0.2402 0.38157 0.383 0.0
C481 C 0.26211 0.37126 0.37907 0.0
C482 C 0.30792 0.42522 0.38309 0.0
C483 C 0.2962 0.39293 0.37888 0.0
H484 H 0.14887 0.38325 0.41013 0.0
H485 H 0.31339 0.38473 0.37528 0.0
H486 H 0.32195 0.48503 0.39401 0.0
H487 H 0.16474 0.43754 0.4233 0.0
H488 H 0.2535 0.34649 0.37558 0.0
H489 H 0.09303 0.36109 0.27519 0.0
H490 H 0.33431 0.44195 0.38287 0.0
H491 H 0.1336 0.24445 0.34347 0.0
H492 H 0.14189 0.36219 0.29178 0.0
H493 H 0.08189 0.19319 0.34693 0.0
H494 H 0.28117 0.49965 0.40685 0.0
H495 H 0.03691 0.31595 0.28367 0.0
H496 H 1.00171 0.26139 0.3009 0.0
H497 H 0.22236 0.4819 0.41825 0.0
H498 H 0.99883 0.21498 0.32004 0.0
N499 N 0.11349 0.32002 0.31129 0.0
C500 C 0.11741 0.34291 0.29601 0.0
C501 C 0.05823 0.31673 0.29133 0.0
C502 C 0.05475 0.29146 0.30474 0.0
C503 C 0.08984 0.34221 0.28648 0.0
C504 C 0.08333 0.29366 0.31424 0.0
H505 H 0.02879 0.18893 0.33647 0.0
N506 N 0.1106 0.26992 0.33136 0.0
C507 C 0.08148 0.21397 0.34069 0.0
C508 C 0.08185 0.26754 0.32455 0.0
C509 C 0.11092 0.24333 0.33873 0.0
C510 C 0.05155 0.21167 0.33485 0.0
C511 C 0.05152 0.2385 0.32625 0.0
O512 O 0.15718 0.28695 0.30356 0.0
O513 O 0.19956 0.34853 0.3489 0.0
O514 O 0.17295 0.38171 0.36673 0.0
O515 O 0.13911 0.3515 0.33696 0.0
O516 O 0.19495 0.3681 0.31944 0.0
O517 O 0.18086 0.33678 0.29606 0.0
O518 O 0.1577 0.33092 0.41408 0.0
O519 O 0.14656 0.31001 0.36307 0.0
O520 O 0.18355 0.29468 0.33956 0.0
O521 O 0.19376 0.30932 0.3773 0.0
O522 O 0.13118 0.32992 0.38727 0.0
O523 O 0.206 0.33721 0.41025 0.0
C524 C 0.21343 0.37339 0.33661 0.0
C525 C 0.15014 0.30212 0.26673 0.0
C526 C 0.14405 0.31894 0.22873 0.0
C527 C 0.16372 0.32248 0.24778 0.0
C528 C 0.11051 0.29461 0.22932 0.0
C529 C 0.11693 0.2775 0.26617 0.0
C530 C 0.09734 0.27397 0.24769 0.0
C531 C 0.15178 0.37662 0.35047 0.0
C532 C 0.16954 0.3085 0.28773 0.0
C533 C 0.02244 0.23692 0.31855 0.0
C534 C 0.02406 0.26338 0.30774 0.0
C535 C 0.12102 0.30773 0.37244 0.0
C536 C 0.19042 0.34498 0.44659 0.0
C537 C 0.17378 0.32699 0.4659 0.0
C538 C 0.18106 0.34137 0.48731 0.0
C539 C 0.20525 0.37387 0.48907 0.0
C540 C 0.21486 0.37721 0.44892 0.0
C541 C 0.22207 0.39155 0.47002 0.0
C542 C 0.19379 0.29244 0.35988 0.0
C543 C 0.18172 0.33011 0.42415 0.0
H544 H 0.18947 0.34108 0.24811 0.0
H545 H 0.09395 0.29164 0.21576 0.0
H546 H 0.10568 0.2614 0.28029 0.0
H547 H 0.07155 0.2554 0.24775 0.0
H548 H 0.15495 0.30205 0.46424 0.0
H549 H 0.21159 0.3855 0.50529 0.0
H550 H 0.22847 0.39132 0.43448 0.0
H551 H 0.2409 0.41646 0.47162 0.0
Tb552 Tb 0.71327 0.84528 0.31924 0.0
C553 C 0.59212 0.79466 0.38113 0.0
C554 C 0.57749 0.83578 0.38379 0.0
C555 C 0.53473 0.7799 0.38707 0.0
C556 C 0.6013 0.82647 0.38044 0.0
C557 C 0.55889 0.77098 0.38501 0.0
C558 C 0.54403 0.81229 0.38648 0.0
C559 C 0.57656 0.73203 0.38701 0.0
N560 N 0.61629 0.78715 0.37946 0.0
C561 C 0.60923 0.75647 0.38341 0.0
C562 C 0.55119 0.73923 0.38748 0.0
Tb563 Tb 0.66886 0.82861 0.37254 0.0
N564 N 0.63388 0.84836 0.37785 0.0
C565 C 0.64457 0.88019 0.38023 0.0
C566 C 0.58817 0.86838 0.38498 0.0
C567 C 0.62192 0.89065 0.38355 0.0
H568 H 0.62867 0.75066 0.38292 0.0
H569 H 0.63053 0.91592 0.38486 0.0
H570 H 0.52531 0.81896 0.38874 0.0
H571 H 0.57098 0.70767 0.38941 0.0
H572 H 0.6705 0.89786 0.37908 0.0
H573 H 0.75738 0.76122 0.32019 0.0
H574 H 0.57069 0.87655 0.38747 0.0
H575 H 0.74872 0.91777 0.29714 0.0
H576 H 0.71547 0.77744 0.32079 0.0
H577 H 0.80467 0.96025 0.28601 0.0
H578 H 0.50898 0.76205 0.3898 0.0
H579 H 0.81663 0.80186 0.31593 0.0
H580 H 0.85986 0.8593 0.30851 0.0
H581 H 0.52593 0.72029 0.39042 0.0
H582 H 0.8729 0.91397 0.29909 0.0
N583 N 0.75035 0.82729 0.31777 0.0
C584 C 0.74108 0.79563 0.31885 0.0
C585 C 0.79828 0.80921 0.31625 0.0
C586 C 0.80741 0.84126 0.31338 0.0
C587 C 0.76487 0.78622 0.31855 0.0
C588 C 0.78251 0.8495 0.31408 0.0
H589 H 0.85225 0.95172 0.29002 0.0
N590 N 0.76441 0.88571 0.30808 0.0
C591 C 0.80092 0.93786 0.29264 0.0
C592 C 0.78986 0.88 0.30901 0.0
C593 C 0.76918 0.91365 0.29896 0.0
C594 C 0.82774 0.93302 0.29502 0.0
C595 C 0.82227 0.90349 0.3028 0.0
O596 O 0.69974 0.85656 0.28837 0.0
O597 O 0.67325 0.84402 0.33829 0.0
O598 O 0.6357 0.7945 0.34743 0.0
O599 O 0.67552 0.79447 0.32401 0.0
O600 O 0.69511 0.87868 0.31423 0.0
O601 O 0.69954 0.81246 0.29268 0.0
O602 O 0.6755 0.8097 0.40255 0.0
O603 O 0.71069 0.83243 0.35424 0.0
O604 O 0.74536 0.88541 0.34095 0.0
O605 O 0.7084 0.87962 0.37012 0.0
O606 O 0.68707 0.79503 0.37593 0.0
O607 O 0.6839 0.85771 0.40129 0.0
C608 C 0.6722 0.86704 0.32928 0.0
C609 C 0.71187 0.83567 0.2565 0.0
C610 C 0.70811 0.83585 0.21564 0.0
C611 C 0.69319 0.83061 0.23702 0.0
C612 C 0.74207 0.84629 0.21406 0.0
C613 C 0.7456 0.84571 0.25459 0.0
C614 C 0.76061 0.85107 0.23345 0.0
C615 C 0.64473 0.78099 0.33174 0.0
C616 C 0.69586 0.83095 0.2786 0.0
C617 C 0.84771 0.89615 0.30349 0.0
C618 C 0.84028 0.86503 0.30883 0.0
C619 C 0.71221 0.80937 0.36271 0.0
C620 C 0.66694 0.83039 0.43609 0.0
C621 C 0.68656 0.83975 0.45543 0.0
C622 C 0.67198 0.83451 0.47695 0.0
C623 C 0.63737 0.81973 0.47879 0.0
C624 C 0.6325 0.81583 0.43826 0.0
C625 C 0.61783 0.81054 0.45953 0.0
C626 C 0.73714 0.896 0.35908 0.0
C627 C 0.683 0.83535 0.41397 0.0
H628 H 0.66713 0.82299 0.23852 0.0
H629 H 0.75414 0.85023 0.19782 0.0
H630 H 0.76032 0.84936 0.26935 0.0
H631 H 0.78666 0.85885 0.23208 0.0
H632 H 0.71317 0.85068 0.45369 0.0
H633 H 0.62543 0.81571 0.49508 0.0
H634 H 0.61697 0.8084 0.42362 0.0
H635 H 0.59122 0.7993 0.46109 0.0
Tb636 Tb 0.20171 0.83553 0.37667 0.0
C637 C 0.15086 0.90148 0.31485 0.0
C638 C 0.09134 0.8688 0.31686 0.0
C639 C 0.11701 0.92609 0.31087 0.0
C640 C 0.12299 0.8721 0.31798 0.0
C641 C 0.14835 0.92882 0.31083 0.0
C642 C 0.08851 0.89608 0.31386 0.0
C643 C 0.20757 0.95871 0.30521 0.0
N644 N 0.18052 0.90291 0.31475 0.0
C645 C 0.20871 0.93081 0.30912 0.0
C646 C 0.1773 0.95782 0.30634 0.0
Tb647 Tb 0.1803 0.85655 0.32316 0.0
N648 N 0.12692 0.84643 0.32059 0.0
C649 C 0.09991 0.81629 0.32035 0.0
C650 C 0.06359 0.83811 0.31801 0.0
C651 C 0.06794 0.81171 0.31932 0.0
H652 H 0.23229 0.93188 0.30843 0.0
H653 H 0.04667 0.7878 0.31976 0.0
H654 H 0.06443 0.89411 0.31322 0.0
H655 H 0.23005 0.9809 0.30137 0.0
H656 H 0.10264 0.79557 0.32163 0.0
H657 H 0.33523 0.90429 0.3817 0.0
H658 H 0.03882 0.8345 0.31727 0.0
H659 H 0.1493 0.76028 0.39136 0.0
H660 H 0.27939 0.89648 0.37863 0.0
H661 H 0.15134 0.71148 0.39963 0.0
H662 H 0.1145 0.94685 0.30802 0.0
H663 H 0.34296 0.85766 0.38561 0.0
H664 H 0.31723 0.79815 0.39029 0.0
H665 H 0.17647 0.97943 0.30324 0.0
H666 H 0.26701 0.74545 0.39518 0.0
N667 N 0.255 0.84563 0.38014 0.0
C668 C 0.28203 0.87578 0.38041 0.0
C669 C 0.31823 0.85402 0.38426 0.0
C670 C 0.29045 0.82335 0.38534 0.0
C671 C 0.31395 0.88039 0.38213 0.0
C672 C 0.25885 0.82001 0.38338 0.0
H673 H 0.20494 0.71293 0.39905 0.0
N674 N 0.20122 0.78915 0.38551 0.0
C675 C 0.17392 0.73357 0.39579 0.0
C676 C 0.23087 0.7906 0.38613 0.0
C677 C 0.17289 0.76137 0.39115 0.0
C678 C 0.2042 0.73445 0.39537 0.0
C679 C 0.23327 0.76336 0.3909 0.0
O680 O 0.17616 0.82402 0.40765 0.0
O681 O 0.16752 0.84394 0.35794 0.0
O682 O 0.19081 0.89464 0.34692 0.0
O683 O 0.22506 0.88785 0.37184 0.0
O684 O 0.14761 0.8086 0.38126 0.0
O685 O 0.22307 0.86725 0.40377 0.0
O686 O 0.20484 0.86861 0.29178 0.0
O687 O 0.21456 0.84817 0.34187 0.0
O688 O 0.1911 0.79721 0.35298 0.0
O689 O 0.15741 0.80435 0.32772 0.0
O690 O 0.2343 0.88322 0.3182 0.0
O691 O 0.15865 0.82467 0.29625 0.0
C692 C 0.14037 0.82361 0.36672 0.0
C693 C 0.20962 0.84328 0.43977 0.0
C694 C 0.21341 0.85052 0.48053 0.0
C695 C 0.20315 0.85546 0.45943 0.0
C696 C 0.2296 0.83275 0.48165 0.0
C697 C 0.22589 0.82576 0.44137 0.0
C698 C 0.2357 0.82044 0.4622 0.0
C699 C 0.21369 0.90542 0.36266 0.0
C700 C 0.19941 0.84902 0.41772 0.0
C701 C 0.2646 0.76614 0.39176 0.0
C702 C 0.29318 0.79613 0.38898 0.0
C703 C 0.24156 0.86831 0.33282 0.0
C704 C 0.17035 0.84825 0.26013 0.0
C705 C 0.18073 0.84025 0.24014 0.0
C706 C 0.16927 0.84397 0.21913 0.0
C707 C 0.14771 0.85625 0.21848 0.0
C708 C 0.14893 0.86051 0.25901 0.0
C709 C 0.13776 0.86454 0.23828 0.0
C710 C 0.16849 0.78662 0.337 0.0
C711 C 0.18164 0.84323 0.28199 0.0
H712 H 0.19083 0.86927 0.45825 0.0
H713 H 0.23746 0.82825 0.49764 0.0
H714 H 0.23107 0.81622 0.42656 0.0
H715 H 0.24819 0.80681 0.46327 0.0
H716 H 0.19713 0.83058 0.24097 0.0
H717 H 0.13878 0.85972 0.20259 0.0
H718 H 0.1407 0.86681 0.27412 0.0
H719 H 0.12124 0.87404 0.23756 0.0
Tb720 Tb 0.83776 0.66435 0.66474 0.0
C721 C 0.88745 0.77872 0.72924 0.0
C722 C 0.94658 0.80058 0.72884 0.0
C723 C 0.92415 0.83541 0.73583 0.0
C724 C 0.91415 0.77457 0.72641 0.0
C725 C 0.89195 0.80897 0.73462 0.0
C726 C 0.95148 0.83122 0.73291 0.0
C727 C 0.8328 0.78393 0.73953 0.0
N728 N 0.85693 0.75249 0.72818 0.0
C729 C 0.82969 0.75445 0.73406 0.0
C730 C 0.86403 0.81143 0.73941 0.0
Tb731 Tb 0.8538 0.70532 0.71814 0.0
N732 N 0.90815 0.74449 0.72296 0.0
C733 C 0.9337 0.73843 0.72378 0.0
C734 C 0.97292 0.79475 0.72804 0.0
C735 C 0.96638 0.76343 0.72595 0.0
H736 H 0.80536 0.73349 0.73407 0.0
H737 H 0.9865 0.7585 0.72588 0.0
H738 H 0.9762 0.85159 0.73458 0.0
H739 H 0.81108 0.78542 0.74369 0.0
H740 H 0.92939 0.71453 0.722 0.0
H741 H 0.70623 0.6134 0.65268 0.0
H742 H 0.99823 0.81406 0.72977 0.0
H743 H 0.88623 0.63412 0.65448 0.0
H744 H 0.76359 0.65691 0.65765 0.0
H745 H 0.87976 0.58097 0.64783 0.0
H746 H 0.92819 0.85895 0.73969 0.0
H747 H 0.69357 0.55736 0.65056 0.0
H748 H 0.71461 0.51873 0.64897 0.0
H749 H 0.86639 0.83422 0.74366 0.0
H750 H 0.762 0.50986 0.64749 0.0
N751 N 0.78361 0.62599 0.65902 0.0
C752 C 0.75867 0.63268 0.65666 0.0
C753 C 0.7189 0.57641 0.65275 0.0
C754 C 0.74479 0.56992 0.65366 0.0
C755 C 0.72596 0.60801 0.65387 0.0
C756 C 0.77725 0.5956 0.65663 0.0
H757 H 0.82383 0.53305 0.64665 0.0
N758 N 0.83447 0.61637 0.65758 0.0
C759 C 0.85814 0.58332 0.65015 0.0
C760 C 0.80368 0.59058 0.65583 0.0
C761 C 0.8617 0.61341 0.65385 0.0
C762 C 0.82652 0.55631 0.64956 0.0
C763 C 0.79875 0.5598 0.65203 0.0
O764 O 0.86798 0.67647 0.63582 0.0
O765 O 0.87062 0.7053 0.68443 0.0
O766 O 0.84667 0.73565 0.69411 0.0
O767 O 0.81989 0.69889 0.66509 0.0
O768 O 0.89203 0.68709 0.66426 0.0
O769 O 0.82137 0.67513 0.63493 0.0
O770 O 0.82411 0.69055 0.74749 0.0
O771 O 0.81993 0.66473 0.69817 0.0
O772 O 0.84223 0.63386 0.68993 0.0
O773 O 0.87399 0.67281 0.71614 0.0
O774 O 0.80019 0.68496 0.71821 0.0
O775 O 0.8705 0.69163 0.74641 0.0
C776 C 0.89839 0.71011 0.67779 0.0
C777 C 0.84102 0.66541 0.60084 0.0
C778 C 0.84577 0.67201 0.5599 0.0
C779 C 0.85118 0.68525 0.58165 0.0
C780 C 0.83031 0.63858 0.55782 0.0
C781 C 0.82544 0.63222 0.59827 0.0
C782 C 0.82022 0.61893 0.57685 0.0
C783 C 0.82985 0.72692 0.67501 0.0
C784 C 0.84716 0.6798 0.62335 0.0
C785 C 0.76638 0.53379 0.65017 0.0
C786 C 0.73941 0.53884 0.65101 0.0
C787 C 0.79281 0.66208 0.70437 0.0
C788 C 0.85219 0.69863 0.78184 0.0
C789 C 0.83819 0.67739 0.80012 0.0
C790 C 0.84544 0.68858 0.82241 0.0
C791 C 0.86674 0.72146 0.82601 0.0
C792 C 0.87328 0.73127 0.78585 0.0
C793 C 0.88043 0.74258 0.80785 0.0
C794 C 0.86223 0.64389 0.70741 0.0
C795 C 0.84513 0.68611 0.75878 0.0
H796 H 0.86284 0.7109 0.5837 0.0
H797 H 0.82627 0.62755 0.54144 0.0
H798 H 0.81741 0.6166 0.61275 0.0
H799 H 0.80835 0.59328 0.57498 0.0
H800 H 0.82216 0.6521 0.79697 0.0
H801 H 0.8725 0.73092 0.8429 0.0
H802 H 0.88435 0.74793 0.77201 0.0
H803 H 0.89671 0.76782 0.81086 0.0
Tb804 Tb 0.38289 0.17531 0.65604 0.0
C805 C 0.26473 0.14275 0.71687 0.0
C806 C 0.25562 0.1875 0.7141 0.0
C807 C 0.20929 0.1343 0.72178 0.0
C808 C 0.27687 0.17481 0.71294 0.0
C809 C 0.23096 0.1222 0.7219 0.0
C810 C 0.22162 0.16693 0.71792 0.0
C811 C 0.24334 0.0803 0.72923 0.0
N812 N 0.28658 0.13217 0.71725 0.0
C813 C 0.27666 0.10172 0.72433 0.0
C814 C 0.22029 0.09045 0.7277 0.0
Tb815 Tb 0.34051 0.16888 0.70864 0.0
N816 N 0.30995 0.19391 0.70962 0.0
C817 C 0.3236 0.22639 0.70881 0.0
C818 C 0.26932 0.22056 0.71207 0.0
C819 C 0.30351 0.2401 0.70974 0.0
H820 H 0.2943 0.09364 0.72548 0.0
H821 H 0.31444 0.26576 0.70855 0.0
H822 H 0.20482 0.17616 0.71852 0.0
H823 H 0.23547 0.05599 0.73419 0.0
H824 H 0.34994 0.24196 0.70693 0.0
H825 H 0.41231 0.08085 0.66259 0.0
H826 H 0.25384 0.23125 0.71277 0.0
H827 H 0.42572 0.24573 0.63115 0.0
H828 H 0.37563 0.10325 0.6611 0.0
H829 H 0.4836 0.28292 0.61988 0.0
H830 H 0.18318 0.11884 0.72535 0.0
H831 H 0.47283 0.11619 0.65845 0.0
H832 H 0.52084 0.1711 0.64999 0.0
H833 H 0.19453 0.07387 0.73165 0.0
H834 H 0.54049 0.22664 0.63828 0.0
N835 N 0.41476 0.15146 0.65681 0.0
C836 C 0.40187 0.11919 0.65913 0.0
C837 C 0.45679 0.12626 0.65778 0.0
C838 C 0.46965 0.15885 0.65372 0.0
C839 C 0.42266 0.10625 0.66003 0.0
C840 C 0.44766 0.17071 0.65312 0.0
H841 H 0.52656 0.26838 0.62631 0.0
N842 N 0.43589 0.21086 0.64454 0.0
C843 C 0.477 0.26024 0.62761 0.0
C844 C 0.45869 0.20171 0.64675 0.0
C845 C 0.44418 0.23904 0.63398 0.0
C846 C 0.5012 0.25202 0.63137 0.0
C847 C 0.49204 0.22208 0.64055 0.0
O848 O 0.37252 0.18664 0.62408 0.0
O849 O 0.34453 0.17941 0.67335 0.0
O850 O 0.3048 0.13291 0.68583 0.0
O851 O 0.34097 0.12629 0.66256 0.0
O852 O 0.36945 0.21169 0.64842 0.0
O853 O 0.36658 0.14045 0.63068 0.0
O854 O 0.34633 0.15283 0.74017 0.0
O855 O 0.38041 0.16654 0.69179 0.0
O856 O 0.41825 0.2164 0.67593 0.0
O857 O 0.38364 0.21765 0.70425 0.0
O858 O 0.35369 0.13217 0.71516 0.0
O859 O 0.35485 0.2006 0.73594 0.0
C860 C 0.34594 0.20272 0.66292 0.0
C861 C 0.38194 0.16112 0.59383 0.0
C862 C 0.37958 0.15976 0.55279 0.0
C863 C 0.36446 0.15707 0.57388 0.0
C864 C 0.41266 0.16674 0.55212 0.0
C865 C 0.41464 0.1675 0.59275 0.0
C866 C 0.42992 0.17041 0.57198 0.0
C867 C 0.31096 0.11609 0.6711 0.0
C868 C 0.36588 0.15942 0.61551 0.0
C869 C 0.51464 0.21122 0.64263 0.0
C870 C 0.50345 0.1796 0.64926 0.0
C871 C 0.37884 0.14291 0.70188 0.0
C872 C 0.33394 0.17504 0.7711 0.0
C873 C 0.34707 0.17246 0.79157 0.0
C874 C 0.32896 0.16671 0.81176 0.0
C875 C 0.29721 0.16315 0.81096 0.0
C876 C 0.30275 0.17246 0.77086 0.0
C877 C 0.28439 0.16626 0.79065 0.0
C878 C 0.41223 0.23049 0.69299 0.0
C879 C 0.35265 0.17915 0.75019 0.0
H880 H 0.33896 0.15147 0.57489 0.0
H881 H 0.42536 0.16967 0.53626 0.0
H882 H 0.42837 0.17029 0.60787 0.0
H883 H 0.45528 0.17565 0.57126 0.0
H884 H 0.37161 0.17541 0.79171 0.0
H885 H 0.2822 0.15795 0.82601 0.0
H886 H 0.29251 0.17517 0.75549 0.0
H887 H 0.26012 0.16386 0.79025 0.0
Tb888 Tb 0.88771 0.18379 0.71737 0.0
C889 C 0.8111 0.22958 0.66092 0.0
C890 C 0.75405 0.18693 0.66118 0.0
C891 C 0.76709 0.24208 0.65797 0.0
C892 C 0.78811 0.19754 0.66256 0.0
C893 C 0.801 0.25227 0.65808 0.0
C894 C 0.74363 0.20942 0.65948 0.0
C895 C 0.85848 0.29271 0.65328 0.0
N896 N 0.84351 0.23827 0.66067 0.0
C897 C 0.8672 0.26921 0.65589 0.0
C898 C 0.82525 0.28428 0.65469 0.0
Tb899 Tb 0.85556 0.19839 0.66633 0.0
N900 N 0.79928 0.17665 0.66411 0.0
C901 C 0.77749 0.14452 0.66265 0.0
C902 C 0.73161 0.15406 0.66093 0.0
C903 C 0.74344 0.13278 0.66133 0.0
H904 H 0.89297 0.27599 0.65493 0.0
H905 H 0.72634 0.1073 0.66076 0.0
H906 H 0.71755 0.20177 0.65874 0.0
H907 H 0.87739 0.31729 0.65017 0.0
H908 H 0.78599 0.12759 0.66306 0.0
H909 H 0.01858 0.27113 0.71485 0.0
H910 H 0.70523 0.1449 0.65997 0.0
H911 H 0.8486 0.10807 0.73434 0.0
H912 H 0.95927 0.25302 0.71504 0.0
H913 H 0.86238 0.06645 0.74283 0.0
H914 H 0.75878 0.25915 0.65605 0.0
H915 H 0.03739 0.2319 0.71813 0.0
H916 H 0.02277 0.17485 0.72419 0.0
H917 H 0.81854 0.30249 0.6525 0.0
H918 H 0.98015 0.11898 0.73202 0.0
N919 N 0.94384 0.20353 0.71772 0.0
C920 C 0.96677 0.23543 0.71657 0.0
C921 C 1.01116 0.22372 0.71821 0.0
C922 C 0.9877 0.19133 0.72084 0.0
C923 C 1.00063 0.24592 0.71643 0.0
C924 C 0.95388 0.18198 0.72068 0.0
H925 H 0.92026 0.07845 0.73953 0.0
N926 N 0.89813 0.14349 0.72583 0.0
C927 C 0.88169 0.09005 0.73771 0.0
C928 C 0.93012 0.15078 0.725 0.0
C929 C 0.87399 0.11382 0.7329 0.0
C930 C 0.91436 0.09688 0.73578 0.0
C931 C 0.93917 0.12771 0.72966 0.0
O932 O 0.86438 0.17 0.74905 0.0
O933 O 0.84658 0.18381 0.70093 0.0
O934 O 0.85929 0.23283 0.69195 0.0
O935 O 0.90108 0.23418 0.71358 0.0
O936 O 0.83535 0.14863 0.72387 0.0
O937 O 0.90837 0.21588 0.74426 0.0
O938 O 0.87736 0.21678 0.6347 0.0
O939 O 0.89628 0.1974 0.68238 0.0
O940 O 0.88236 0.14737 0.69358 0.0
O941 O 0.84377 0.14789 0.66907 0.0
O942 O 0.90803 0.23356 0.66031 0.0
O943 O 0.83939 0.16744 0.63857 0.0
C944 C 0.8226 0.16003 0.71038 0.0
C945 C 0.89958 0.19149 0.78 0.0
C946 C 0.89587 0.18813 0.82092 0.0
C947 C 0.8845 0.19252 0.80016 0.0
C948 C 0.92252 0.18245 0.82118 0.0
C949 C 0.9262 0.18592 0.78056 0.0
C950 C 0.93751 0.18133 0.80108 0.0
C951 C 0.88316 0.24683 0.70699 0.0
C952 C 0.88677 0.19595 0.75869 0.0
C953 C 0.97268 0.13642 0.72874 0.0
C954 C 0.99694 0.16822 0.72429 0.0
C955 C 0.92052 0.22096 0.67297 0.0
C956 C 0.84334 0.19168 0.60341 0.0
C957 C 0.85204 0.183 0.58305 0.0
C958 C 0.83732 0.18409 0.56274 0.0
C959 C 0.81393 0.1942 0.56315 0.0
C960 C 0.82005 0.20176 0.60338 0.0
C961 C 0.80546 0.20301 0.58335 0.0
C962 C 0.86007 0.13428 0.67748 0.0
C963 C 0.85861 0.18986 0.62447 0.0
H964 H 0.86425 0.19732 0.79965 0.0
H965 H 0.93163 0.17869 0.83689 0.0
H966 H 0.93827 0.1852 0.76525 0.0
H967 H 0.95801 0.17695 0.80142 0.0
H968 H 0.86985 0.17495 0.5831 0.0
H969 H 0.80247 0.19567 0.5478 0.0
H970 H 0.81314 0.20866 0.61877 0.0
H971 H 0.78753 0.21087 0.58347 0.0
H972 H 0.34486 0.84907 0.05658 0.0
H973 H 0.29169 0.89951 0.06575 0.0
H974 H 0.33985 0.94908 0.05286 0.0
H975 H 0.39881 0.97937 0.04301 0.0
H976 H 0.45344 0.93028 0.03512 0.0
H977 H 0.4033 0.87909 0.04311 0.0
C978 C 0.3437 0.8708 0.05524 0.0
C979 C 0.31483 0.8707 0.06225 0.0
C980 C 0.37191 0.89955 0.04821 0.0
C981 C 0.31371 0.89907 0.06062 0.0
C982 C 0.34127 0.92744 0.0533 0.0
C983 C 0.39952 0.95733 0.04268 0.0
C984 C 0.4296 0.95853 0.03814 0.0
C985 C 0.37077 0.92817 0.04771 0.0
C986 C 0.43044 0.92994 0.03808 0.0
C987 C 0.40177 0.90067 0.04284 0.0
H988 H 0.12981 0.40797 0.05363 0.0
H989 H 0.1944 0.50209 0.07974 0.0
H990 H 0.15719 0.52009 0.0659 0.0
H991 H 0.1037 0.50763 0.0491 0.0
H992 H 0.04012 0.41413 0.02173 0.0
H993 H 0.07926 0.39725 0.03313 0.0
C994 C 0.13594 0.43256 0.05589 0.0
C995 C 0.16484 0.45374 0.06764 0.0
C996 C 0.11449 0.44277 0.0477 0.0
C997 C 0.17245 0.48547 0.07061 0.0
C998 C 0.15107 0.49569 0.0628 0.0
C999 C 0.09895 0.48387 0.04508 0.0
C1000 C 0.06953 0.46242 0.03392 0.0
C1001 C 0.1217 0.47441 0.05167 0.0
C1002 C 0.06301 0.43129 0.0297 0.0
C1003 C 0.08531 0.4216 0.03635 0.0
H1004 H 0.59791 0.70556 0.07992 0.0
H1005 H 0.50971 0.69943 0.05249 0.0
H1006 H 0.49555 0.64885 0.03462 0.0
H1007 H 0.50706 0.60545 0.02798 0.0
H1008 H 0.59305 0.6098 0.05777 0.0
H1009 H 0.60876 0.66174 0.07402 0.0
C1010 C 0.57529 0.693 0.07035 0.0
C1011 C 0.5549 0.70637 0.06767 0.0
C1012 C 0.56679 0.66353 0.06064 0.0
C1013 C 0.52615 0.69002 0.05464 0.0
C1014 C 0.51787 0.66094 0.04454 0.0
C1015 C 0.52936 0.61786 0.03791 0.0
C1016 C 0.54892 0.60386 0.04163 0.0
C1017 C 0.53792 0.64742 0.04753 0.0
C1018 C 0.57752 0.62003 0.05474 0.0
C1019 C 0.58654 0.64974 0.06401 0.0
H1020 H 0.87067 0.29302 1.00474 0.0
H1021 H 0.85734 0.32113 0.93872 0.0
H1022 H 0.89612 0.37715 0.94732 0.0
H1023 H 0.93752 0.41754 0.97241 0.0
H1024 H 0.95225 0.3898 0.03808 0.0
H1025 H 0.9091 0.33444 0.03111 0.0
C1026 C 0.87562 0.31158 0.99254 0.0
C1027 C 0.86122 0.30311 0.97117 0.0
C1028 C 0.89856 0.34372 0.99745 0.0
C1029 C 0.86817 0.32723 0.9553 0.0
C1030 C 0.89049 0.35919 0.96014 0.0
C1031 C 0.93125 0.39927 0.98511 0.0
C1032 C 0.94803 0.40747 1.00562 0.0
C1033 C 0.90656 0.36759 0.9809 0.0
C1034 C 0.93933 0.38394 0.02224 0.0
C1035 C 0.9148 0.3523 0.0182 0.0
H1036 H 0.6918 0.51478 0.98182 0.0
H1037 H 0.74275 0.61745 0.97564 0.0
H1038 H 0.69326 0.61782 0.98808 0.0
H1039 H 0.63434 0.58912 0.99772 0.0
H1040 H 0.58157 0.48654 1.00305 0.0
H1041 H 0.63257 0.48587 0.99435 0.0
C1042 C 0.6921 0.53719 0.98355 0.0
C1043 C 0.7209 0.56604 0.97751 0.0
C1044 C 0.66311 0.53723 0.99051 0.0
C1045 C 0.72085 0.5949 0.97982 0.0
C1046 C 0.69254 0.59515 0.98697 0.0
C1047 C 0.63415 0.56665 0.99727 0.0
C1048 C 0.60437 0.53801 1.00137 0.0
C1049 C 0.66335 0.56649 0.99185 0.0
C1050 C 0.60431 0.50899 1.00043 0.0
C1051 C 0.63347 0.50862 0.99526 0.0
H1052 H 0.48746 0.17958 0.98192 0.0
H1053 H 0.38976 0.10576 0.96216 0.0
H1054 H 0.40219 0.06493 0.97418 0.0
H1055 H 0.44086 0.05 0.99047 0.0
H1056 H 0.5357 0.12421 0.01413 0.0
H1057 H 0.52384 0.16496 1.00101 0.0
C1058 C 0.46846 0.15465 0.98064 0.0
C1059 C 0.43778 0.14605 0.97088 0.0
C1060 C 0.47525 0.13122 0.98832 0.0
C1061 C 0.41395 0.11335 0.96903 0.0
C1062 C 0.42089 0.08986 0.97609 0.0
C1063 C 0.45889 0.0751 0.99265 0.0
C1064 C 0.48925 0.0841 1.00294 0.0
C1065 C 0.45154 0.09852 0.98564 0.0
C1066 C 0.5122 0.11667 1.00612 0.0
C1067 C 0.50546 0.14002 0.99863 0.0
H1068 H 0.68817 0.18324 1.00182 0.0
H1069 H 0.73774 0.1293 0.99259 0.0
H1070 H 0.68584 0.07957 0.99894 0.0
H1071 H 0.62559 0.05091 1.00444 0.0
H1072 H 0.57518 0.10407 0.01201 0.0
H1073 H 0.62779 0.15434 1.00922 0.0
C1074 C 0.68758 0.16058 1.00146 0.0
C1075 C 0.7167 0.15999 0.99651 0.0
C1076 C 0.6574 0.13186 1.0048 0.0
C1077 C 0.71565 0.13048 0.9961 0.0
C1078 C 0.68595 0.10196 0.99974 0.0
C1079 C 0.6263 0.07357 1.00577 0.0
C1080 C 0.59672 0.07383 1.00907 0.0
C1081 C 0.65659 0.10232 1.00366 0.0
C1082 C 0.5977 0.10323 1.01024 0.0
C1083 C 0.6278 0.13201 1.0084 0.0
H1084 H 0.91685 0.5903 0.98374 0.0
H1085 H 0.82827 0.49865 0.9921 0.0
H1086 H 0.8619 0.47398 0.99992 0.0
H1087 H 0.91708 0.47821 1.00237 0.0
H1088 H 1.00504 0.57018 0.99386 0.0
H1089 H 0.97127 0.59501 0.98788 0.0
C1090 C 0.90488 0.56494 0.98741 0.0
C1091 C 0.87012 0.54635 0.98725 0.0
C1092 C 0.92436 0.551 0.99176 0.0
C1093 C 0.85496 0.51353 0.99209 0.0
C1094 C 0.87421 0.49941 0.9965 0.0
C1095 C 0.92867 0.50377 0.99959 0.0
C1096 C 0.96344 0.52263 0.9993 0.0
C1097 C 0.90897 0.51784 0.99612 0.0
C1098 C 0.97834 0.55548 0.99487 0.0
C1099 C 0.95904 0.56959 0.99131 0.0
H1100 H 0.45291 0.33039 0.94679 0.0
H1101 H 0.49418 0.30567 1.00246 0.0
H1102 H 0.51052 0.35722 0.02024 0.0
H1103 H 0.51416 0.40973 0.01905 0.0
H1104 H 0.46769 0.43137 0.96476 0.0
H1105 H 0.45274 0.38074 0.94712 0.0
C1106 C 0.46543 0.33633 0.96285 0.0
C1107 C 0.47256 0.31461 0.97329 0.0
C1108 C 0.47389 0.36543 0.97312 0.0
C1109 C 0.48843 0.32217 0.99418 0.0
C1110 C 0.49782 0.3516 1.00428 0.0
C1111 C 0.5002 0.40319 1.00364 0.0
C1112 C 0.49191 0.42443 0.99346 0.0
C1113 C 0.49074 0.37346 0.99383 0.0
C1114 C 0.47445 0.41566 0.97311 0.0
C1115 C 0.46582 0.38662 0.96294 0.0
H1116 H 0.19294 0.70461 0.03428 0.0
H1117 H 0.16548 0.68034 0.10393 0.0
H1118 H 0.11883 0.62894 0.09317 0.0
H1119 H 0.08676 0.59022 0.06459 0.0
H1120 H 0.1147 0.61076 0.99471 0.0
H1121 H 0.16012 0.66407 1.00487 0.0
C1122 C 0.17656 0.68807 0.04699 0.0
C1123 C 0.18255 0.69633 0.06991 0.0
C1124 C 0.14994 0.65785 0.04067 0.0
C1125 C 0.1614 0.67453 0.08622 0.0
C1126 C 0.13468 0.64511 0.08009 0.0
C1127 C 0.10248 0.60636 0.05144 0.0
C1128 C 0.09699 0.5965 0.02886 0.0
C1129 C 0.12883 0.63644 0.05743 0.0
C1130 C 0.11821 0.61771 0.01222 0.0
C1131 C 0.14422 0.64821 0.01804 0.0
H1132 H 0.34918 0.51641 0.04558 0.0
H1133 H 0.29705 0.41457 0.0569 0.0
H1134 H 0.34706 0.41285 0.04796 0.0
H1135 H 0.40646 0.44039 0.03886 0.0
H1136 H 0.46021 0.54259 0.0305 0.0
H1137 H 0.40922 0.54414 0.03605 0.0
C1138 C 0.34879 0.49385 0.0459 0.0
C1139 C 0.31937 0.4657 0.05203 0.0
C1140 C 0.37806 0.49311 0.04121 0.0
C1141 C 0.31932 0.43666 0.05247 0.0
C1142 C 0.34796 0.43562 0.04732 0.0
C1143 C 0.40687 0.46294 0.03798 0.0
C1144 C 0.43695 0.49118 0.03345 0.0
C1145 C 0.37757 0.46371 0.04196 0.0
C1146 C 0.4373 0.52035 0.03306 0.0
C1147 C 0.4081 0.52127 0.03651 0.0
H1148 H 0.60158 0.90666 0.07731 0.0
H1149 H 0.52704 0.82775 0.0393 0.0
H1150 H 0.50695 0.86199 0.02451 0.0
H1151 H 0.50965 0.91422 0.02344 0.0
H1152 H 0.58403 0.99226 0.06247 0.0
H1153 H 0.60483 0.95849 0.07584 0.0
C1154 C 0.58101 0.89703 0.06572 0.0
C1155 C 0.56582 0.86487 0.05944 0.0
C1156 C 0.56943 0.91667 0.05752 0.0
C1157 C 0.53913 0.85251 0.04445 0.0
C1158 C 0.52761 0.87206 0.03599 0.0
C1159 C 0.53062 0.92391 0.03467 0.0
C1160 C 0.5453 0.95586 0.04178 0.0
C1161 C 0.54246 0.90417 0.04254 0.0
C1162 C 0.57215 0.96784 0.05665 0.0
C1163 C 0.58416 0.94853 0.06435 0.0
H1164 H 1.00812 0.1763 0.41141 0.0
H1165 H 0.94887 0.21779 0.39357 0.0
H1166 H 0.99728 0.26374 0.3764 0.0
H1167 H 0.05765 0.29432 0.36945 0.0
H1168 H 0.1174 0.25428 0.38951 0.0
H1169 H 0.06805 0.2058 0.40297 0.0
C1170 C 1.00585 0.19518 0.40336 0.0
C1171 C 0.97511 0.1937 0.40348 0.0
C1172 C 0.034 0.22192 0.39416 0.0
C1173 C 0.97236 0.21846 0.39343 0.0
C1174 C 1.00003 0.24476 0.38377 0.0
C1175 C 0.05959 0.27463 0.3764 0.0
C1176 C 0.09077 0.2772 0.37779 0.0
C1177 C 0.03113 0.24709 0.38445 0.0
C1178 C 0.0934 0.25222 0.3876 0.0
C1179 C 0.06524 0.22464 0.39542 0.0
H1180 H 0.85156 0.82788 0.38987 0.0
H1181 H 0.79026 0.72661 0.40171 0.0
H1182 H 0.74214 0.72781 0.38743 0.0
H1183 H 0.7165 0.75801 0.37401 0.0
H1184 H 0.77636 0.8596 0.36359 0.0
H1185 H 0.82586 0.85805 0.37464 0.0
C1186 C 0.82773 0.80608 0.38898 0.0
C1187 C 0.8244 0.77721 0.39696 0.0
C1188 C 0.79985 0.80706 0.38112 0.0
C1189 C 0.79335 0.74914 0.39586 0.0
C1190 C 0.76582 0.74981 0.38772 0.0
C1191 C 0.74048 0.77974 0.37399 0.0
C1192 C 0.74288 0.80873 0.3676 0.0
C1193 C 0.76862 0.77869 0.38073 0.0
C1194 C 0.77397 0.83685 0.36796 0.0
C1195 C 0.80226 0.83598 0.37442 0.0
H1196 H 0.29168 0.04635 0.39874 0.0
H1197 H 0.20057 0.0428 0.38094 0.0
H1198 H 0.17931 0.98926 0.3657 0.0
H1199 H 0.18491 0.94191 0.36006 0.0
H1200 H 0.27391 0.94402 0.38143 0.0
H1201 H 0.2971 0.99929 0.3935 0.0
C1202 C 0.26697 0.03384 0.39182 0.0
C1203 C 0.24773 0.04871 0.39129 0.0
C1204 C 0.25427 1.00254 0.38405 0.0
C1205 C 0.21621 0.0323 0.38144 0.0
C1206 C 0.20382 1.00146 0.37294 0.0
C1207 C 0.20945 0.95454 0.36726 0.0
C1208 C 0.22765 0.93887 0.3699 0.0
C1209 C 0.22241 0.98615 0.37454 0.0
C1210 C 0.25928 0.95542 0.37941 0.0
C1211 C 0.27262 0.98708 0.38621 0.0
H1212 H 0.5608 0.6451 0.28732 0.0
H1213 H 0.48008 0.6548 0.31343 0.0
H1214 H 0.51947 0.70639 0.32977 0.0
H1215 H 0.5771 0.74981 0.33558 0.0
H1216 H 0.65713 0.74017 0.30789 0.0
H1217 H 0.61773 0.68807 0.29282 0.0
C1218 C 0.55167 0.65859 0.2963 0.0
C1219 C 0.51736 0.64592 0.29896 0.0
C1220 C 0.57442 0.6885 0.30532 0.0
C1221 C 0.50627 0.66363 0.31124 0.0
C1222 C 0.52881 0.69331 0.32049 0.0
C1223 C 0.58592 0.73621 0.32639 0.0
C1224 C 0.62015 0.74901 0.32299 0.0
C1225 C 0.56298 0.70609 0.31754 0.0
C1226 C 0.63103 0.73112 0.31078 0.0
C1227 C 0.60847 0.70119 0.30214 0.0
H1228 H 0.35937 0.84257 0.31308 0.0
H1229 H 0.41142 0.94521 0.30657 0.0
H1230 H 0.36188 0.94624 0.31804 0.0
H1231 H 0.30267 0.91802 0.32692 0.0
H1232 H 0.24905 0.81547 0.33261 0.0
H1233 H 0.2999 0.81421 0.32472 0.0
C1234 C 0.35988 0.86511 0.31453 0.0
C1235 C 0.38896 0.89376 0.30872 0.0
C1236 C 0.33091 0.86552 0.32088 0.0
C1237 C 0.38925 0.92282 0.31064 0.0
C1238 C 0.36092 0.92344 0.3172 0.0
C1239 C 0.3023 0.89544 0.32672 0.0
C1240 C 0.27239 0.86698 0.33081 0.0
C1241 C 0.33145 0.89495 0.32185 0.0
C1242 C 0.27197 0.83779 0.3301 0.0
C1243 C 0.30103 0.83707 0.32539 0.0
H1244 H 0.10901 0.48042 0.34151 0.0
H1245 H 0.15015 0.48753 0.27525 0.0
H1246 H 0.16556 0.44795 0.28526 0.0
H1247 H 0.16529 0.4098 0.31222 0.0
H1248 H 0.12328 0.40085 0.37821 0.0
H1249 H 0.11079 0.44314 0.36929 0.0
C1250 C 0.12178 0.47356 0.32947 0.0
C1251 C 0.12827 0.48658 0.30766 0.0
C1252 C 0.13017 0.45041 0.33526 0.0
C1253 C 0.14466 0.4775 0.29207 0.0
C1254 C 0.15344 0.45491 0.29776 0.0
C1255 C 0.15289 0.41681 0.32445 0.0
C1256 C 0.14442 0.40199 0.34556 0.0
C1257 C 0.14574 0.44079 0.31912 0.0
C1258 C 0.12978 0.41203 0.36178 0.0
C1259 C 0.12262 0.43608 0.35665 0.0
H1260 H 0.36273 0.44355 0.30642 0.0
H1261 H 0.35355 0.52638 0.31889 0.0
H1262 H 0.29677 0.49205 0.33241 0.0
H1263 H 0.24819 0.43795 0.33819 0.0
H1264 H 0.25787 0.35544 0.3261 0.0
H1265 H 0.31582 0.38995 0.31489 0.0
C1266 C 0.34832 0.45405 0.31225 0.0
C1267 C 0.36223 0.48739 0.31149 0.0
C1268 C 0.31574 0.43417 0.32003 0.0
C1269 C 0.34343 0.50077 0.31923 0.0
C1270 C 0.31091 0.48114 0.32692 0.0
C1271 C 0.26336 0.42773 0.33354 0.0
C1272 C 0.24935 0.39439 0.33358 0.0
C1273 C 0.29662 0.44778 0.32707 0.0
C1274 C 0.26863 0.38114 0.32681 0.0
C1275 C 0.30161 0.40084 0.32026 0.0
H1276 H 0.58394 0.93031 0.32258 0.0
H1277 H 0.50518 0.83211 0.32225 0.0
H1278 H 0.54563 0.81444 0.32728 0.0
H1279 H 0.60448 0.82743 0.32953 0.0
H1280 H 0.68202 0.92624 0.32921 0.0
H1281 H 0.64115 0.94319 0.32643 0.0
C1282 C 0.57557 0.905 0.32376 0.0
C1283 C 0.54169 0.88259 0.32196 0.0
C1284 C 0.59888 0.89517 0.32638 0.0
C1285 C 0.53116 0.84988 0.32355 0.0
C1286 C 0.55432 0.83979 0.32632 0.0
C1287 C 0.61219 0.85261 0.32932 0.0
C1288 C 0.64615 0.87567 0.33026 0.0
C1289 C 0.58837 0.86225 0.32747 0.0
C1290 C 0.656 0.90818 0.329 0.0
C1291 C 0.63267 0.91787 0.32734 0.0
H1292 H 0.08528 0.64438 0.30329 0.0
H1293 H 0.16363 0.63811 0.33617 0.0
H1294 H 0.19011 0.6946 0.34636 0.0
H1295 H 0.19115 0.74578 0.34546 0.0
H1296 H 0.11251 0.75167 0.31246 0.0
H1297 H 0.08643 0.69549 0.30232 0.0
C1298 C 0.10812 0.65542 0.31274 0.0
C1299 C 0.12245 0.63721 0.31901 0.0
C1300 C 0.1233 0.68786 0.31832 0.0
C1301 C 0.15212 0.65168 0.33113 0.0
C1302 C 0.16729 0.68397 0.33693 0.0
C1303 C 0.16815 0.73473 0.33624 0.0
C1304 C 0.15361 0.75289 0.33003 0.0
C1305 C 0.15311 0.70229 0.33056 0.0
C1306 C 0.12424 0.73833 0.31756 0.0
C1307 C 0.1092 0.70613 0.31179 0.0
H1308 H 0.85112 0.03657 0.38173 0.0
H1309 H 0.81723 1.00262 0.44914 0.0
H1310 H 0.77473 0.95103 0.43458 0.0
H1311 H 0.74743 0.91519 0.40267 0.0
H1312 H 0.78207 0.94871 0.33543 0.0
H1313 H 0.8239 1.00045 0.34977 0.0
C1314 C 0.83443 0.01789 0.3932 0.0
C1315 C 0.83728 0.02342 0.4165 0.0
C1316 C 0.81017 0.98807 0.38471 0.0
C1317 C 0.81552 0.99889 0.43114 0.0
C1318 C 0.79118 0.9694 0.42283 0.0
C1319 C 0.764 0.9339 0.39115 0.0
C1320 C 0.76174 0.92787 0.36792 0.0
C1321 C 0.78825 0.96368 0.39964 0.0
C1322 C 0.78364 0.95233 0.35331 0.0
C1323 C 0.80748 0.98212 0.36155 0.0
H1324 H 0.03211 0.85814 0.39567 0.0
H1325 H 0.96936 0.75619 0.38957 0.0
H1326 H 0.01667 0.75157 0.37686 0.0
H1327 H 0.0768 0.7763 0.36995 0.0
H1328 H 0.13856 0.87869 0.37254 0.0
H1329 H 0.09095 0.88359 0.3838 0.0
C1330 C 0.02885 0.835 0.3913 0.0
C1331 C 0.99747 0.80748 0.39374 0.0
C1332 C 0.056 0.83268 0.38337 0.0
C1333 C 0.99332 0.77767 0.3878 0.0
C1334 C 0.02038 0.77502 0.38062 0.0
C1335 C 0.0796 0.79967 0.37266 0.0
C1336 C 0.11101 0.8271 0.37017 0.0
C1337 C 0.05194 0.8023 0.3787 0.0
C1338 C 0.11454 0.85728 0.37386 0.0
C1339 C 0.08733 0.86006 0.3805 0.0
H1340 H 0.23079 0.18344 0.36936 0.0
H1341 H 0.25011 0.2207 0.43689 0.0
H1342 H 0.23655 0.26118 0.42631 0.0
H1343 H 0.21799 0.28487 0.3989 0.0
H1344 H 0.19562 0.24816 0.33128 0.0
H1345 H 0.21202 0.20874 0.34081 0.0
C1346 C 0.23214 0.20057 0.38164 0.0
C1347 C 0.24143 0.19915 0.40392 0.0
C1348 C 0.22383 0.22378 0.37547 0.0
C1349 C 0.24297 0.22133 0.4197 0.0
C1350 C 0.23526 0.24449 0.41366 0.0
C1351 C 0.21662 0.26841 0.38604 0.0
C1352 C 0.20538 0.26952 0.36436 0.0
C1353 C 0.22544 0.24576 0.39171 0.0
C1354 C 0.20417 0.24792 0.3481 0.0
C1355 C 0.21345 0.22531 0.35358 0.0
H1356 H 0.64839 0.55902 0.73244 0.0
H1357 H 0.69059 0.49802 0.73298 0.0
H1358 H 0.74265 0.54158 0.71734 0.0
H1359 H 0.77819 0.59937 0.70782 0.0
H1360 H 0.73441 0.65915 0.70717 0.0
H1361 H 0.68109 0.6139 0.71841 0.0
C1362 C 0.66889 0.55519 0.72888 0.0
C1363 C 0.66585 0.52555 0.73414 0.0
C1364 C 0.69858 0.58026 0.71998 0.0
C1365 C 0.69239 0.52069 0.72913 0.0
C1366 C 0.7222 0.54565 0.7203 0.0
C1367 C 0.75672 0.60216 0.70952 0.0
C1368 C 0.76014 0.63254 0.70651 0.0
C1369 C 0.72592 0.57588 0.71622 0.0
C1370 C 0.73228 0.63597 0.70928 0.0
C1371 C 0.70181 0.61014 0.7158 0.0
H1372 H 0.47424 0.09502 0.73485 0.0
H1373 H 0.54855 0.19335 0.72281 0.0
H1374 H 0.50604 0.20398 0.70818 0.0
H1375 H 0.44639 0.18596 0.70181 0.0
H1376 H 0.37325 0.08746 0.71483 0.0
H1377 H 0.41639 0.07656 0.72665 0.0
C1378 C 0.48126 0.11887 0.72909 0.0
C1379 C 0.51461 0.14345 0.73034 0.0
C1380 C 0.45667 0.12488 0.72113 0.0
C1381 C 0.52317 0.17394 0.72212 0.0
C1382 C 0.49877 0.18009 0.71394 0.0
C1383 C 0.44008 0.16205 0.70689 0.0
C1384 C 0.40661 0.13736 0.70708 0.0
C1385 C 0.46525 0.15588 0.71379 0.0
C1386 C 0.39876 0.10673 0.71432 0.0
C1387 C 0.42344 0.10047 0.72107 0.0
H1388 H 0.93516 0.37836 0.75728 0.0
H1389 H 0.84232 0.36593 0.73398 0.0
H1390 H 0.83027 0.3164 0.71524 0.0
H1391 H 0.8455 0.27566 0.70612 0.0
H1392 H 0.93778 0.28796 0.73072 0.0
H1393 H 0.95015 0.33792 0.74846 0.0
C1394 C 0.91206 0.36468 0.74837 0.0
C1395 C 0.88974 0.37607 0.74717 0.0
C1396 C 0.90507 0.33598 0.73781 0.0
C1397 C 0.86025 0.35813 0.73505 0.0
C1398 C 0.8532 0.32962 0.72439 0.0
C1399 C 0.86843 0.28939 0.71521 0.0
C1400 C 0.89065 0.27791 0.71696 0.0
C1401 C 0.87542 0.31825 0.72566 0.0
C1402 C 0.92009 0.29597 0.72905 0.0
C1403 C 0.92727 0.32468 0.73926 0.0
H1404 H 0.17807 0.98864 0.64764 0.0
H1405 H 0.24787 0.965 0.61891 0.0
H1406 H 0.2938 0.01631 0.63096 0.0
H1407 H 0.31436 0.06848 0.64895 0.0
H1408 H 0.24471 0.09258 0.67741 0.0
H1409 H 0.19883 0.04065 0.66645 0.0
C1410 C 0.20335 0.99459 0.64426 0.0
C1411 C 0.20943 0.97303 0.63224 0.0
C1412 C 0.22979 0.02433 0.65117 0.0
C1413 C 0.24239 0.98129 0.62783 0.0
C1414 C 0.26873 0.01063 0.63478 0.0
C1415 C 0.28917 0.06242 0.65276 0.0
C1416 C 0.28317 0.08445 0.66418 0.0
C1417 C 0.26275 0.03249 0.64626 0.0
C1418 C 0.25024 0.07604 0.66894 0.0
C1419 C 0.22388 0.04631 0.66258 0.0
H1420 H 0.06435 0.26227 0.63794 0.0
H1421 H 0.03199 0.16352 0.65182 0.0
H1422 H 0.97902 0.15538 0.66635 0.0
H1423 H 0.94022 0.17576 0.67237 0.0
H1424 H 0.97468 0.27541 0.66014 0.0
H1425 H 0.02808 0.28363 0.64731 0.0
C1426 C 0.04575 0.23899 0.64425 0.0
C1427 C 0.05201 0.21346 0.64354 0.0
C1428 C 1.01552 0.23458 0.65266 0.0
C1429 C 0.02784 0.18358 0.65215 0.0
C1430 C 0.99745 0.17888 0.66031 0.0
C1431 C 0.95967 0.19938 0.6674 0.0
C1432 C 0.95359 0.2251 0.6676 0.0
C1433 C 0.99075 0.2041 0.6603 0.0
C1434 C 0.97881 0.25533 0.66038 0.0
C1435 C 1.00938 0.26006 0.65303 0.0
H1436 H 0.80188 0.813 0.60967 0.0
H1437 H 0.80431 0.85971 0.67204 0.0
H1438 H 0.8179 0.82404 0.69225 0.0
H1439 H 0.82694 0.77798 0.69241 0.0
H1440 H 0.81825 0.72837 0.63041 0.0
H1441 H 0.80823 0.76613 0.6101 0.0
C1442 C 0.80466 0.8152 0.62774 0.0
C1443 C 0.80171 0.83917 0.63915 0.0
C1444 C 0.81107 0.79375 0.63946 0.0
C1445 C 0.80679 0.84197 0.66256 0.0
C1446 C 0.81426 0.82129 0.67424 0.0
C1447 C 0.82269 0.77531 0.67453 0.0
C1448 C 0.82307 0.75002 0.66314 0.0
C1449 C 0.81615 0.79686 0.66289 0.0
C1450 C 0.81767 0.74718 0.63981 0.0
C1451 C 0.81208 0.76894 0.62808 0.0
H1452 H 1.00606 0.84879 0.64612 0.0
H1453 H 0.06871 0.80772 0.65137 0.0
H1454 H 0.02196 0.75774 0.66568 0.0
H1455 H 0.96203 0.72438 0.674 0.0
H1456 H 0.90071 0.76715 0.67134 0.0
H1457 H 0.94797 0.81776 0.65915 0.0
C1458 C 1.00947 0.82896 0.65067 0.0
C1459 C 0.04061 0.83174 0.64753 0.0
C1460 C 0.98267 0.80061 0.65937 0.0
C1461 C 0.04494 0.80612 0.65369 0.0
C1462 C 0.01819 0.77751 0.66177 0.0
C1463 C 0.95925 0.745 0.67106 0.0
C1464 C 0.92791 0.74202 0.67371 0.0
C1465 C 0.98678 0.77428 0.6643 0.0
C1466 C 0.92453 0.76882 0.66981 0.0
C1467 C 0.95158 0.79778 0.66264 0.0
H1468 H 0.25617 0.26241 0.64293 0.0
H1469 H 0.17782 0.16559 0.65451 0.0
H1470 H 0.21894 0.14943 0.66207 0.0
H1471 H 0.27791 0.16301 0.66416 0.0
H1472 H 0.35513 0.26065 0.65348 0.0
H1473 H 0.31387 0.27621 0.64637 0.0
C1474 C 0.24804 0.23776 0.64722 0.0
C1475 C 0.21401 0.21527 0.64811 0.0
C1476 C 0.27173 0.22878 0.65153 0.0
C1477 C 0.20387 0.18343 0.65373 0.0
C1478 C 0.22741 0.17417 0.65793 0.0
C1479 C 0.28558 0.18774 0.66068 0.0
C1480 C 0.31959 0.21091 0.66005 0.0
C1481 C 0.2615 0.19663 0.65675 0.0
C1482 C 0.32915 0.24258 0.65452 0.0
C1483 C 0.30557 0.25149 0.65044 0.0
H1484 H 0.84562 1.00112 0.65091 0.0
H1485 H 0.77641 1.00231 0.60411 0.0
H1486 H 0.78657 0.05338 0.61914 0.0
H1487 H 0.81573 0.09814 0.64514 0.0
H1488 H 0.8895 0.0998 0.68912 0.0
H1489 H 0.87687 0.04744 0.67584 0.0
C1490 C 0.83263 0.01251 0.64418 0.0
C1491 C 0.81004 0.99792 0.62663 0.0
C1492 C 0.83939 0.04244 0.65243 0.0
C1493 C 0.79383 0.01315 0.61771 0.0
C1494 C 0.79964 0.04234 0.62627 0.0
C1495 C 0.82903 0.08709 0.6519 0.0
C1496 C 0.85288 0.10272 0.66866 0.0
C1497 C 0.8225 0.05732 0.64356 0.0
C1498 C 0.87022 0.08807 0.6768 0.0
C1499 C 0.86324 0.05811 0.66905 0.0
H1500 H 0.53509 0.36829 0.71166 0.0
H1501 H 0.50183 0.33912 0.77989 0.0
H1502 H 0.45623 0.28836 0.76667 0.0
H1503 H 0.42581 0.25188 0.73583 0.0
H1504 H 0.45933 0.28002 0.66767 0.0
H1505 H 0.50469 0.33111 0.68059 0.0
C1506 C 0.51785 0.35081 0.72359 0.0
C1507 C 0.52179 0.35749 0.74674 0.0
C1508 C 0.49174 0.32133 0.71586 0.0
C1509 C 0.49932 0.33451 0.76199 0.0
C1510 C 0.4732 0.30548 0.75445 0.0
C1511 C 0.44297 0.26927 0.72379 0.0
C1512 C 0.43934 0.26192 0.70076 0.0
C1513 C 0.46913 0.2986 0.73144 0.0
C1514 C 0.46196 0.28463 0.68545 0.0
C1515 C 0.48779 0.31406 0.69287 0.0
H1516 H 0.66948 0.09624 0.72916 0.0
H1517 H 0.69127 0.19372 0.72563 0.0
H1518 H 0.74953 0.21158 0.7169 0.0
H1519 H 0.79519 0.1992 0.71214 0.0
H1520 H 0.77112 0.10088 0.71492 0.0
H1521 H 0.71319 0.0837 0.72227 0.0
C1522 C 0.68693 0.12142 0.72635 0.0
C1523 C 0.67601 0.14357 0.72817 0.0
C1524 C 0.72017 0.13137 0.72131 0.0
C1525 C 0.69894 0.17611 0.72437 0.0
C1526 C 0.73233 0.18633 0.71948 0.0
C1527 C 0.77706 0.17402 0.71389 0.0
C1528 C 0.78732 0.1512 0.71238 0.0
C1529 C 0.74337 0.16418 0.71812 0.0
C1530 C 0.76376 0.11878 0.71559 0.0
C1531 C 0.73061 0.10894 0.71984 0.0
H1532 H 0.92751 0.57407 0.75671 0.0
H1533 H 0.85393 0.49379 0.71925 0.0
H1534 H 0.83426 0.52758 0.70284 0.0
H1535 H 0.83774 0.58008 0.69962 0.0
H1536 H 0.91174 0.65989 0.73753 0.0
H1537 H 0.93106 0.62607 0.75347 0.0
C1538 C 0.90717 0.56399 0.74493 0.0
C1539 C 0.89226 0.53155 0.7392 0.0
C1540 C 0.89594 0.58346 0.73572 0.0
C1541 C 0.86586 0.51871 0.72397 0.0
C1542 C 0.8546 0.53803 0.71459 0.0
C1543 C 0.85829 0.59016 0.71118 0.0
C1544 C 0.87341 0.62269 0.71711 0.0
C1545 C 0.86944 0.57048 0.72037 0.0
C1546 C 0.89959 0.63507 0.73254 0.0
C1547 C 0.91076 0.61572 0.74169 0.0
H1548 H 0.43138 0.91389 0.23063 0.0
H1549 H 0.52659 0.96054 0.26288 0.0
H1550 H 0.55153 0.99417 0.22977 0.0
H1551 H 0.54622 0.01154 0.1921 0.0
H1552 H 0.45105 0.96598 0.15988 0.0
H1553 H 0.4263 0.93068 0.19241 0.0
C1554 C 0.45756 0.93148 0.23042 0.0
C1555 C 0.47704 0.9346 0.24926 0.0
C1556 C 0.4718 0.95097 0.21132 0.0
C1557 C 0.51105 0.95727 0.24856 0.0
C1558 C 0.52533 0.9767 0.22967 0.0
C1559 C 0.52002 0.99399 0.19222 0.0
C1560 C 0.50052 0.99158 0.17359 0.0
C1561 C 0.50592 0.97393 0.21103 0.0
C1562 C 0.46672 0.96823 0.17389 0.0
C1563 C 0.4525 0.94815 0.19256 0.0
H1564 H 0.10376 0.5577 0.23478 0.0
H1565 H 0.0315 0.46496 0.26051 0.0
H1566 H 1.00873 0.44809 0.22288 0.0
H1567 H 1.01377 0.45764 0.18229 0.0
H1568 H 0.08827 0.54919 0.15605 0.0
H1569 H 0.10523 0.56898 0.19425 0.0
C1570 C 0.0825 0.53412 0.23215 0.0
C1571 C 0.06934 0.51248 0.25022 0.0
C1572 C 0.07016 0.52433 0.21039 0.0
C1573 C 0.04206 0.48185 0.24671 0.0
C1574 C 0.02914 0.4722 0.22524 0.0
C1575 C 0.03356 0.482 0.18496 0.0
C1576 C 0.05004 0.50177 0.16641 0.0
C1577 C 0.04373 0.49288 0.20687 0.0
C1578 C 0.07513 0.53351 0.17007 0.0
C1579 C 0.08501 0.54476 0.1919 0.0
H1580 H 0.47211 0.51898 0.24533 0.0
H1581 H 0.50117 0.61315 0.22027 0.0
H1582 H 0.51645 0.60018 0.18411 0.0
H1583 H 0.52388 0.56276 0.16 0.0
H1584 H 0.49502 0.46879 0.18533 0.0
H1585 H 0.47699 0.48084 0.22072 0.0
C1586 C 0.48136 0.53653 0.23186 0.0
C1587 C 0.48564 0.56707 0.23564 0.0
C1588 C 0.49022 0.52896 0.21109 0.0
C1589 C 0.49808 0.58962 0.21801 0.0
C1590 C 0.50668 0.58217 0.19726 0.0
C1591 C 0.51321 0.54479 0.17316 0.0
C1592 C 0.51099 0.51498 0.17004 0.0
C1593 C 0.5032 0.55202 0.19366 0.0
C1594 C 0.4974 0.49207 0.18738 0.0
C1595 C 0.48701 0.49891 0.20763 0.0
H1596 H 0.9701 0.43402 0.80478 0.0
H1597 H 0.91238 0.47708 0.82423 0.0
H1598 H 0.94548 0.49846 0.858 0.0
H1599 H 0.99366 0.50845 0.88071 0.0
H1600 H 0.04914 0.46274 0.86223 0.0
H1601 H 1.01373 0.43856 0.82979 0.0
C1602 C 0.9642 0.44749 0.81658 0.0
C1603 C 0.93902 0.45432 0.81154 0.0
C1604 C 0.98314 0.4595 0.83622 0.0
C1605 C 0.93215 0.47211 0.82717 0.0
C1606 C 0.95096 0.48422 0.84666 0.0
C1607 C 0.99763 0.4927 0.86987 0.0
C1608 C 0.02458 0.48806 0.87377 0.0
C1609 C 0.97699 0.47864 0.85115 0.0
C1610 C 0.02921 0.46753 0.85939 0.0
C1611 C 1.00885 0.45352 0.84083 0.0
H1612 H 0.53642 0.47267 0.79187 0.0
H1613 H 0.63776 0.52157 0.8139 0.0
H1614 H 0.62113 0.53518 0.84937 0.0
H1615 H 0.57747 0.53329 0.87422 0.0
H1616 H 0.47646 0.48482 0.85153 0.0
H1617 H 0.49314 0.47052 0.8165 0.0
C1618 C 0.55486 0.48609 0.80449 0.0
C1619 C 0.58829 0.496 0.8002 0.0
C1620 C 0.54512 0.4938 0.82484 0.0
C1621 C 0.6119 0.5139 0.81663 0.0
C1622 C 0.60237 0.52151 0.837 0.0
C1623 C 0.55915 0.51935 0.86166 0.0
C1624 C 0.52577 0.51014 0.86547 0.0
C1625 C 0.56902 0.51157 0.84132 0.0
C1626 C 0.50233 0.4924 0.84894 0.0
C1627 C 0.51184 0.48419 0.8289 0.0
H1628 H 0.58435 0.11801 0.81225 0.0
H1629 H 0.49168 0.05719 0.77914 0.0
H1630 H 0.47052 0.02375 0.81263 0.0
H1631 H 0.47778 0.01166 0.85131 0.0
H1632 H 0.57058 0.07086 0.8847 0.0
H1633 H 0.59189 0.10518 0.85138 0.0
C1634 C 0.55964 0.09729 0.81234 0.0
C1635 C 0.53962 0.09033 0.79316 0.0
C1636 C 0.54747 0.07795 0.8318 0.0
C1637 C 0.50751 0.06348 0.79369 0.0
C1638 C 0.49538 0.04421 0.81284 0.0
C1639 C 0.50282 0.03186 0.85131 0.0
C1640 C 0.52251 0.03842 0.87059 0.0
C1641 C 0.51507 0.05124 0.832 0.0
C1642 C 0.55463 0.06528 0.87028 0.0
C1643 C 0.56697 0.08482 0.85112 0.0
H1644 H 0.11954 0.2884 0.58354 0.0
H1645 H 0.14152 0.21525 0.56436 0.0
H1646 H 0.15979 0.23978 0.52724 0.0
H1647 H 0.17267 0.28395 0.50085 0.0
H1648 H 0.15222 0.3579 0.52052 0.0
H1649 H 0.12985 0.33103 0.55653 0.0
C1650 C 0.12789 0.2776 0.57112 0.0
C1651 C 0.12933 0.25013 0.57681 0.0
C1652 C 0.13874 0.29206 0.54984 0.0
C1653 C 0.14058 0.23664 0.56056 0.0
C1654 C 0.15093 0.25059 0.53927 0.0
C1655 C 0.16281 0.29385 0.51289 0.0
C1656 C 0.16418 0.32291 0.50803 0.0
C1657 C 0.15057 0.27857 0.53381 0.0
C1658 C 0.15168 0.33568 0.52393 0.0
C1659 C 0.13889 0.32033 0.54453 0.0
H1660 H 0.77405 0.89887 0.55582 0.0
H1661 H 0.70599 0.81035 0.5891 0.0
H1662 H 0.67218 0.79193 0.55518 0.0
H1663 H 0.66151 0.80158 0.51625 0.0
H1664 H 0.7295 0.8907 0.48351 0.0
H1665 H 0.76377 0.9083 0.51706 0.0
C1666 C 0.75168 0.87562 0.5557 0.0
C1667 C 0.74242 0.8561 0.575 0.0
C1668 C 0.73238 0.86531 0.53624 0.0
C1669 C 0.71376 0.82576 0.57443 0.0
C1670 C 0.69434 0.8153 0.55509 0.0
C1671 C 0.68372 0.82493 0.51653 0.0
C1672 C 0.69289 0.84481 0.49739 0.0
C1673 C 0.70331 0.83497 0.53594 0.0
C1674 C 0.72204 0.87479 0.4979 0.0
C1675 C 0.74157 0.88495 0.51712 0.0
H1676 H 0.21462 0.90897 0.57536 0.0
H1677 H 0.11236 0.87401 0.55918 0.0
H1678 H 0.12044 0.85544 0.52267 0.0
H1679 H 0.15674 0.84825 0.49554 0.0
H1680 H 0.25885 0.88376 0.51256 0.0
H1681 H 0.25079 0.90356 0.5483 0.0
C1682 C 0.19415 0.89775 0.56375 0.0
C1683 C 0.16297 0.89313 0.57002 0.0
C1684 C 0.19899 0.88725 0.54286 0.0
C1685 C 0.13657 0.87773 0.5549 0.0
C1686 C 0.14124 0.86725 0.53395 0.0
C1687 C 0.17724 0.86065 0.50701 0.0
C1688 C 0.20831 0.86436 0.50145 0.0
C1689 C 0.17235 0.87178 0.52776 0.0
C1690 C 0.23461 0.88024 0.51655 0.0
C1691 C 0.23005 0.89163 0.53698 0.0
H1692 H 0.64477 0.82844 0.12086 0.0
H1693 H 0.56947 0.73796 0.14799 0.0
H1694 H 0.59932 0.74955 0.1835 0.0
H1695 H 0.64807 0.78446 0.20622 0.0
H1696 H 0.72402 0.87436 0.1787 0.0
H1697 H 0.69269 0.86402 0.14396 0.0
C1698 C 0.63471 0.81149 0.13468 0.0
C1699 C 0.605 0.78242 0.13185 0.0
C1700 C 0.65223 0.81813 0.15489 0.0
C1701 C 0.59245 0.76041 0.14974 0.0
C1702 C 0.60947 0.76704 0.17004 0.0
C1703 C 0.65754 0.80193 0.19271 0.0
C1704 C 0.68832 0.83009 0.19499 0.0
C1705 C 0.63956 0.79567 0.17271 0.0
C1706 C 0.70054 0.85234 0.17723 0.0
C1707 C 0.68259 0.8465 0.15741 0.0
H1708 H 0.1887 0.80168 0.12236 0.0
H1709 H 0.29085 0.85303 0.14258 0.0
H1710 H 0.27464 0.86331 0.17939 0.0
H1711 H 0.23141 0.85919 0.20552 0.0
H1712 H 0.12946 0.80865 0.1848 0.0
H1713 H 0.14552 0.79632 0.14871 0.0
C1714 C 0.20737 0.8148 0.13491 0.0
C1715 C 0.24094 0.82659 0.12967 0.0
C1716 C 0.19789 0.82083 0.156 0.0
C1717 C 0.26487 0.84397 0.14606 0.0
C1718 C 0.2556 0.84975 0.16716 0.0
C1719 C 0.21272 0.84518 0.19319 0.0
C1720 C 0.1793 0.83495 0.19783 0.0
C1721 C 0.2222 0.83851 0.17228 0.0
C1722 C 0.15539 0.8171 0.18156 0.0
C1723 C 0.16454 0.80997 0.16093 0.0
H1724 H 0.21315 0.42691 0.15315 0.0
H1725 H 0.13983 0.35137 0.1123 0.0
H1726 H 0.12026 0.31541 0.14492 0.0
H1727 H 0.12498 0.30515 0.18453 0.0
H1728 H 0.19406 0.38237 0.22674 0.0
H1729 H 0.215 0.41749 0.19401 0.0
C1730 C 0.1927 0.40263 0.15154 0.0
C1731 C 0.1778 0.39172 0.13042 0.0
C1732 C 0.18118 0.38226 0.17051 0.0
C1733 C 0.1514 0.36028 0.12844 0.0
C1734 C 0.14037 0.33972 0.14705 0.0
C1735 C 0.14413 0.32979 0.18692 0.0
C1736 C 0.15765 0.34067 0.2085 0.0
C1737 C 0.15514 0.35042 0.16816 0.0
C1738 C 0.18335 0.37267 0.21055 0.0
C1739 C 0.19518 0.39306 0.19178 0.0
H1740 H 0.76263 0.5877 0.89889 0.0
H1741 H 0.85793 0.63509 0.93097 0.0
H1742 H 0.88235 0.66939 0.89805 0.0
H1743 H 0.8766 0.6869 0.86046 0.0
H1744 H 0.78153 0.63985 0.82814 0.0
H1745 H 0.75719 0.60446 0.86069 0.0
C1746 C 0.78872 0.6056 0.89868 0.0
C1747 C 0.80838 0.60876 0.91742 0.0
C1748 C 0.80269 0.62534 0.87962 0.0
C1749 C 0.84226 0.63184 0.91672 0.0
C1750 C 0.85624 0.65162 0.89794 0.0
C1751 C 0.85051 0.669 0.86057 0.0
C1752 C 0.83091 0.66621 0.8419 0.0
C1753 C 0.83668 0.64873 0.87935 0.0
C1754 C 0.79727 0.64243 0.84219 0.0
C1755 C 0.78328 0.62228 0.86086 0.0
H1756 H 0.40776 0.16012 0.89546 0.0
H1757 H 0.35879 0.20551 0.92697 0.0
H1758 H 0.33048 0.20215 0.89198 0.0
H1759 H 0.32243 0.18957 0.85204 0.0
H1760 H 0.36845 0.14115 0.82078 0.0
H1761 H 0.3953 0.14268 0.85613 0.0
C1762 C 0.39039 0.16869 0.8948 0.0
C1763 C 0.38571 0.18338 0.91374 0.0
C1764 C 0.374 0.16653 0.87464 0.0
C1765 C 0.36335 0.19466 0.91251 0.0
C1766 C 0.34705 0.19266 0.89254 0.0
C1767 C 0.33772 0.17868 0.85297 0.0
C1768 C 0.34352 0.16549 0.83363 0.0
C1769 C 0.35263 0.17914 0.87341 0.0
C1770 C 0.36404 0.1521 0.83522 0.0
C1771 C 0.37923 0.15273 0.8555 0.0
H1772 H 0.81077 0.19277 0.90219 0.0
H1773 H 0.908 0.24953 0.93046 0.0
H1774 H 0.93281 0.24062 0.89703 0.0
H1775 H 0.92712 0.21908 0.85903 0.0
H1776 H 0.83002 0.16246 0.83051 0.0
H1777 H 0.80489 0.16895 0.86475 0.0
C1778 C 0.83733 0.20276 0.90113 0.0
C1779 C 0.85754 0.22187 0.91869 0.0
C1780 C 0.85146 0.1978 0.88177 0.0
C1781 C 0.89197 0.23503 0.91702 0.0
C1782 C 0.90616 0.2299 0.89795 0.0
C1783 C 0.90043 0.20774 0.86044 0.0
C1784 C 0.8805 0.1904 0.84223 0.0
C1785 C 0.88619 0.21168 0.88011 0.0
C1786 C 0.84596 0.17628 0.84419 0.0
C1787 C 0.83156 0.17986 0.86379 0.0
H1788 H 0.2884 0.14747 0.47084 0.0
H1789 H 0.33895 0.10228 0.44135 0.0
H1790 H 0.37023 0.11105 0.47579 0.0
H1791 H 0.38239 0.13035 0.51447 0.0
H1792 H 0.33461 0.17863 0.5433 0.0
H1793 H 0.30303 0.16966 0.50894 0.0
C1794 C 0.3066 0.13995 0.4718 0.0
C1795 C 0.31108 0.12403 0.45352 0.0
C1796 C 0.32486 0.14539 0.4916 0.0
C1797 C 0.3345 0.11407 0.45526 0.0
C1798 C 0.35256 0.11923 0.47492 0.0
C1799 C 0.36548 0.1394 0.51319 0.0
C1800 C 0.36091 0.15506 0.53159 0.0
C1801 C 0.34781 0.13468 0.49323 0.0
C1802 C 0.3383 0.16599 0.52963 0.0
C1803 C 0.32037 0.16109 0.50989 0.0
H1804 H 0.85066 0.13612 0.46658 0.0
H1805 H 0.95417 0.18968 0.48343 0.0
H1806 H 0.94036 0.20346 0.51983 0.0
H1807 H 0.89877 0.20055 0.54688 0.0
H1808 H 0.79531 0.14649 0.52996 0.0
H1809 H 0.80919 0.13242 0.49374 0.0
C1810 C 0.87019 0.15056 0.47829 0.0
C1811 C 0.9034 0.16182 0.47224 0.0
C1812 C 0.86208 0.15829 0.49923 0.0
C1813 C 0.92842 0.18099 0.48751 0.0
C1814 C 0.92053 0.18872 0.5084 0.0
C1815 C 0.87927 0.18543 0.53534 0.0
C1816 C 0.84606 0.17466 0.54111 0.0
C1817 C 0.88744 0.17752 0.51445 0.0
C1818 C 0.8211 0.15542 0.52584 0.0
C1819 C 0.829 0.14726 0.50515 0.0
H1820 H 0.90789 0.77123 0.47883 0.0
H1821 H 0.81634 0.70133 0.4483 0.0
H1822 H 0.80017 0.66932 0.48252 0.0
H1823 H 0.8113 0.66103 0.52115 0.0
H1824 H 0.90275 0.72963 0.55236 0.0
H1825 H 0.91935 0.76238 0.51814 0.0
C1826 C 0.88452 0.74892 0.47969 0.0
C1827 C 0.86325 0.73891 0.46105 0.0
C1828 C 0.87518 0.73044 0.49963 0.0
C1829 C 0.83296 0.70993 0.46248 0.0
C1830 C 0.8237 0.69149 0.48204 0.0
C1831 C 0.83505 0.68298 0.52046 0.0
C1832 C 0.85577 0.69265 0.53934 0.0
C1833 C 0.84451 0.70152 0.50073 0.0
C1834 C 0.88611 0.72164 0.5382 0.0
C1835 C 0.89574 0.7403 0.51855 0.0
loop_
_geom_bond_atom_site_label_1
_geom_bond_atom_site_label_2
_geom_bond_distance
_geom_bond_site_symmetry_2
_ccdc_geom_bond_type
H0 C5 0.930 . S
H1 C8 0.930 . S
H2 C10 0.930 . S
H3 C4 1.016 . S
C4 H3 1.016 . S
C4 N11 1.286 . S
C5 H0 0.930 . S
C5 C6 1.397 . S
C5 C7 1.361 . S
C6 C5 1.397 . S
C6 C10 1.390 . S
C7 C5 1.361 . S
C7 C8 1.393 . S
C7 N11 1.413 . S
C8 H1 0.930 . S
C8 C7 1.393 . S
C8 C9 1.399 . S
C9 C8 1.399 . S
C9 C10 1.381 . S
C10 H2 0.930 . S
C10 C6 1.390 . S
C10 C9 1.381 . S
N11 C4 1.286 . S
N11 C7 1.413 . S
H12 C17 0.930 . S
H13 C20 0.930 . S
H14 C22 0.930 . S
H15 C16 1.016 . S
C16 H15 1.016 . S
C16 N23 1.286 . S
C17 H12 0.930 . S
C17 C18 1.397 . S
C17 C19 1.361 . S
C18 C17 1.397 . S
C18 C22 1.390 . S
C19 C17 1.361 . S
C19 C20 1.393 . S
C19 N23 1.413 . S
C20 H13 0.930 . S
C20 C19 1.393 . S
C20 C21 1.399 . S
C21 C20 1.399 . S
C21 C22 1.381 . S
C22 H14 0.930 . S
C22 C18 1.390 . S
C22 C21 1.381 . S
N23 C16 1.286 . S
N23 C19 1.413 . S
H24 C29 0.930 . S
H25 C32 0.930 . S
H26 C34 0.930 . S
H27 C28 1.016 . S
C28 H27 1.016 . S
C28 N35 1.286 . S
C29 H24 0.930 . S
C29 C30 1.397 . S
C29 C31 1.361 . S
C30 C29 1.397 . S
C30 C34 1.390 . S
C31 C29 1.361 . S
C31 C32 1.393 . S
C31 N35 1.413 . S
C32 H25 0.930 . S
C32 C31 1.393 . S
C32 C33 1.399 . S
C33 C32 1.399 . S
C33 C34 1.381 . S
C34 H26 0.930 . S
C34 C30 1.390 . S
C34 C33 1.381 . S
N35 C28 1.286 . S
N35 C31 1.413 . S
H36 C41 0.930 . S
H37 C44 0.930 . S
H38 C46 0.930 . S
H39 C40 1.016 . S
C40 H39 1.016 . S
C40 N47 1.286 . S
C41 H36 0.930 . S
C41 C42 1.397 . S
C41 C43 1.361 . S
C42 C41 1.397 . S
C42 C46 1.390 . S
C43 C41 1.361 . S
C43 C44 1.393 . S
C43 N47 1.413 . S
C44 H37 0.930 . S
C44 C43 1.393 . S
C44 C45 1.399 . S
C45 C44 1.399 . S
C45 C46 1.381 . S
C46 H38 0.930 . S
C46 C42 1.390 . S
C46 C45 1.381 . S
N47 C40 1.286 . S
N47 C43 1.413 . S
H48 C53 0.930 . S
H49 C56 0.930 . S
H50 C58 0.930 . S
H51 C52 1.016 . S
C52 H51 1.016 . S
C52 N59 1.286 . S
C53 H48 0.930 . S
C53 C54 1.397 . S
C53 C55 1.361 . S
C54 C53 1.397 . S
C54 C58 1.390 . S
C55 C53 1.361 . S
C55 C56 1.393 . S
C55 N59 1.413 . S
C56 H49 0.930 . S
C56 C55 1.393 . S
C56 C57 1.399 . S
C57 C56 1.399 . S
C57 C58 1.381 . S
C58 H50 0.930 . S
C58 C54 1.390 . S
C58 C57 1.381 . S
N59 C52 1.286 . S
N59 C55 1.413 . S
H60 C65 0.930 . S
H61 C68 0.930 . S
H62 C70 0.930 . S
H63 C64 1.016 . S
C64 H63 1.016 . S
C64 N71 1.286 . S
C65 H60 0.930 . S
C65 C66 1.397 . S
C65 C67 1.361 . S
C66 C65 1.397 . S
C66 C70 1.390 . S
C67 C65 1.361 . S
C67 C68 1.393 . S
C67 N71 1.413 . S
C68 H61 0.930 . S
C68 C67 1.393 . S
C68 C69 1.399 . S
C69 C68 1.399 . S
C69 C70 1.381 . S
C70 H62 0.930 . S
C70 C66 1.390 . S
C70 C69 1.381 . S
N71 C64 1.286 . S
N71 C67 1.413 . S
H72 C77 0.930 . S
H73 C80 0.930 . S
H74 C82 0.930 . S
H75 C76 1.016 . S
C76 H75 1.016 . S
C76 N83 1.286 . S
C77 H72 0.930 . S
C77 C78 1.397 . S
C77 C79 1.361 . S
C78 C77 1.397 . S
C78 C82 1.390 . S
C79 C77 1.361 . S
C79 C80 1.393 . S
C79 N83 1.413 . S
C80 H73 0.930 . S
C80 C79 1.393 . S
C80 C81 1.399 . S
C81 C80 1.399 . S
C81 C82 1.381 . S
C82 H74 0.930 . S
C82 C78 1.390 . S
C82 C81 1.381 . S
N83 C76 1.286 . S
N83 C79 1.413 . S
H84 C89 0.930 . S
H85 C92 0.930 . S
H86 C94 0.930 . S
H87 C88 1.016 . S
C88 H87 1.016 . S
C88 N95 1.286 . S
C89 H84 0.930 . S
C89 C90 1.397 . S
C89 C91 1.361 . S
C90 C89 1.397 . S
C90 C94 1.390 . S
C91 C89 1.361 . S
C91 C92 1.393 . S
C91 N95 1.413 . S
C92 H85 0.930 . S
C92 C91 1.393 . S
C92 C93 1.399 . S
C93 C92 1.399 . S
C93 C94 1.381 . S
C94 H86 0.930 . S
C94 C90 1.390 . S
C94 C93 1.381 . S
N95 C88 1.286 . S
N95 C91 1.413 . S
H96 C101 0.930 . S
H97 C104 0.930 . S
H98 C106 0.930 . S
H99 C100 1.016 . S
C100 H99 1.016 . S
C100 N107 1.286 . S
C101 H96 0.930 . S
C101 C102 1.397 . S
C101 C103 1.361 . S
C102 C101 1.397 . S
C102 C106 1.390 . S
C103 C101 1.361 . S
C103 C104 1.393 . S
C103 N107 1.413 . S
C104 H97 0.930 . S
C104 C103 1.393 . S
C104 C105 1.399 . S
C105 C104 1.399 . S
C105 C106 1.381 . S
C106 H98 0.930 . S
C106 C102 1.390 . S
C106 C105 1.381 . S
N107 C100 1.286 . S
N107 C103 1.413 . S
H108 C113 0.930 . S
H109 C116 0.930 . S
H110 C118 0.930 . S
H111 C112 1.016 . S
C112 H111 1.016 . S
C112 N119 1.286 . S
C113 H108 0.930 . S
C113 C114 1.397 . S
C113 C115 1.361 . S
C114 C113 1.397 . S
C114 C118 1.390 . S
C115 C113 1.361 . S
C115 C116 1.393 . S
C115 N119 1.413 . S
C116 H109 0.930 . S
C116 C115 1.393 . S
C116 C117 1.399 . S
C117 C116 1.399 . S
C117 C118 1.381 . S
C118 H110 0.930 . S
C118 C114 1.390 . S
C118 C117 1.381 . S
N119 C112 1.286 . S
N119 C115 1.413 . S
H120 C125 0.930 . S
H121 C128 0.930 . S
H122 C130 0.930 . S
H123 C124 1.016 . S
C124 H123 1.016 . S
C124 N131 1.286 . S
C125 H120 0.930 . S
C125 C126 1.397 . S
C125 C127 1.361 . S
C126 C125 1.397 . S
C126 C130 1.390 . S
C127 C125 1.361 . S
C127 C128 1.393 . S
C127 N131 1.413 . S
C128 H121 0.930 . S
C128 C127 1.393 . S
C128 C129 1.399 . S
C129 C128 1.399 . S
C129 C130 1.381 . S
C130 H122 0.930 . S
C130 C126 1.390 . S
C130 C129 1.381 . S
N131 C124 1.286 . S
N131 C127 1.413 . S
H132 C137 0.930 . S
H133 C140 0.930 . S
H134 C142 0.930 . S
H135 C136 1.016 . S
C136 H135 1.016 . S
C136 N143 1.286 . S
C137 H132 0.930 . S
C137 C138 1.397 . S
C137 C139 1.361 . S
C138 C137 1.397 . S
C138 C142 1.390 . S
C139 C137 1.361 . S
C139 C140 1.393 . S
C139 N143 1.413 . S
C140 H133 0.930 . S
C140 C139 1.393 . S
C140 C141 1.399 . S
C141 C140 1.399 . S
C141 C142 1.381 . S
C142 H134 0.930 . S
C142 C138 1.390 . S
C142 C141 1.381 . S
N143 C136 1.286 . S
N143 C139 1.413 . S
H144 C149 0.930 . S
H145 C152 0.930 . S
H146 C154 0.930 . S
H147 C148 1.016 . S
C148 H147 1.016 . S
C148 N155 1.286 . S
C149 H144 0.930 . S
C149 C150 1.397 . S
C149 C151 1.361 . S
C150 C149 1.397 . S
C150 C154 1.390 . S
C151 C149 1.361 . S
C151 C152 1.393 . S
C151 N155 1.413 . S
C152 H145 0.930 . S
C152 C151 1.393 . S
C152 C153 1.399 . S
C153 C152 1.399 . S
C153 C154 1.381 . S
C154 H146 0.930 . S
C154 C150 1.390 . S
C154 C153 1.381 . S
N155 C148 1.286 . S
N155 C151 1.413 . S
H156 C161 0.930 . S
H157 C164 0.930 . S
H158 C166 0.930 . S
H159 C160 1.016 . S
C160 H159 1.016 . S
C160 N167 1.286 . S
C161 H156 0.930 . S
C161 C162 1.397 . S
C161 C163 1.361 . S
C162 C161 1.397 . S
C162 C166 1.390 . S
C163 C161 1.361 . S
C163 C164 1.393 . S
C163 N167 1.413 . S
C164 H157 0.930 . S
C164 C163 1.393 . S
C164 C165 1.399 . S
C165 C164 1.399 . S
C165 C166 1.381 . S
C166 H158 0.930 . S
C166 C162 1.390 . S
C166 C165 1.381 . S
N167 C160 1.286 . S
N167 C163 1.413 . S
H168 C173 0.930 . S
H169 C176 0.930 . S
H170 C178 0.930 . S
H171 C172 1.016 . S
C172 H171 1.016 . S
C172 N179 1.286 . S
C173 H168 0.930 . S
C173 C174 1.397 . S
C173 C175 1.361 . S
C174 C173 1.397 . S
C174 C178 1.390 . S
C175 C173 1.361 . S
C175 C176 1.393 . S
C175 N179 1.413 . S
C176 H169 0.930 . S
C176 C175 1.393 . S
C176 C177 1.399 . S
C177 C176 1.399 . S
C177 C178 1.381 . S
C178 H170 0.930 . S
C178 C174 1.390 . S
C178 C177 1.381 . S
N179 C172 1.286 . S
N179 C175 1.413 . S
H180 C185 0.930 . S
H181 C188 0.930 . S
H182 C190 0.930 . S
H183 C184 1.016 . S
C184 H183 1.016 . S
C184 N191 1.286 . S
C185 H180 0.930 . S
C185 C186 1.397 . S
C185 C187 1.361 . S
C186 C185 1.397 . S
C186 C190 1.390 . S
C187 C185 1.361 . S
C187 C188 1.393 . S
C187 N191 1.413 . S
C188 H181 0.930 . S
C188 C187 1.393 . S
C188 C189 1.399 . S
C189 C188 1.399 . S
C189 C190 1.381 . S
C190 H182 0.930 . S
C190 C186 1.390 . S
C190 C189 1.381 . S
N191 C184 1.286 . S
N191 C187 1.413 . S
H192 C197 0.930 . S
H193 C200 0.930 . S
H194 C202 0.930 . S
H195 C196 1.016 . S
C196 H195 1.016 . S
C196 N203 1.286 . S
C197 H192 0.930 . S
C197 C198 1.397 . S
C197 C199 1.361 . S
C198 C197 1.397 . S
C198 C202 1.390 . S
C199 C197 1.361 . S
C199 C200 1.393 . S
C199 N203 1.413 . S
C200 H193 0.930 . S
C200 C199 1.393 . S
C200 C201 1.399 . S
C201 C200 1.399 . S
C201 C202 1.381 . S
C202 H194 0.930 . S
C202 C198 1.390 . S
C202 C201 1.381 . S
N203 C196 1.286 . S
N203 C199 1.413 . S
H204 C209 0.930 . S
H205 C212 0.930 . S
H206 C214 0.930 . S
H207 C208 1.016 . S
C208 H207 1.016 . S
C208 N215 1.286 . S
C209 H204 0.930 . S
C209 C210 1.397 . S
C209 C211 1.361 . S
C210 C209 1.397 . S
C210 C214 1.390 . S
C211 C209 1.361 . S
C211 C212 1.393 . S
C211 N215 1.413 . S
C212 H205 0.930 . S
C212 C211 1.393 . S
C212 C213 1.399 . S
C213 C212 1.399 . S
C213 C214 1.381 . S
C214 H206 0.930 . S
C214 C210 1.390 . S
C214 C213 1.381 . S
N215 C208 1.286 . S
N215 C211 1.413 . S
Tb216 N247 2.660 . S
Tb216 N254 2.600 . S
Tb216 O260 2.546 . S
Tb216 O261 2.610 1_566 S
Tb216 O263 2.320 1_565 S
Tb216 O264 2.552 1_565 S
Tb216 O265 2.413 1_565 S
Tb216 O267 2.362 1_556 S
Tb216 O268 2.421 . S
Tb216 C280 2.833 . S
C217 C220 1.432 . S
C217 C221 1.414 . S
C217 N224 1.359 . S
C218 C220 1.417 . S
C218 C222 1.432 . S
C218 C230 1.410 . S
C219 C221 1.444 . S
C219 C222 1.317 . S
C219 H242 0.929 . S
C220 C217 1.432 . S
C220 C218 1.417 . S
C220 N228 1.360 . S
C221 C217 1.414 . S
C221 C219 1.444 . S
C221 C226 1.385 . S
C222 C218 1.432 . S
C222 C219 1.317 . S
C222 H234 0.930 . S
C223 C225 1.392 . S
C223 C226 1.370 . S
C223 H235 0.931 . S
N224 C217 1.359 . S
N224 C225 1.327 . S
N224 Tb227 2.600 . S
C225 C223 1.392 . S
C225 N224 1.327 . S
C225 H232 0.930 . S
C226 C221 1.385 . S
C226 C223 1.370 . S
C226 H245 0.930 . S
Tb227 N224 2.600 . S
Tb227 N228 2.660 . S
Tb227 O261 2.362 . S
Tb227 O262 2.421 . S
Tb227 O266 2.546 . S
Tb227 O267 2.610 1_545 S
Tb227 O269 2.320 1_545 S
Tb227 O270 2.552 1_545 S
Tb227 O271 2.413 1_545 S
Tb227 C291 2.833 . S
N228 C220 1.360 . S
N228 Tb227 2.660 . S
N228 C229 1.305 . S
C229 N228 1.305 . S
C229 C231 1.407 . S
C229 H236 0.930 . S
C230 C218 1.410 . S
C230 C231 1.345 . S
C230 H238 0.930 . S
C231 C229 1.407 . S
C231 C230 1.345 . S
C231 H233 0.930 . S
H232 C225 0.930 . S
H233 C231 0.930 . S
H234 C222 0.930 . S
H235 C223 0.931 . S
H236 C229 0.930 . S
H237 C251 0.930 . S
H238 C230 0.930 . S
H239 C257 0.930 . S
H240 C248 0.930 . S
H241 C255 0.931 . S
H242 C219 0.929 . S
H243 C249 0.930 . S
H244 C282 0.930 . S
H245 C226 0.930 . S
H246 C281 0.929 . S
N247 Tb216 2.660 . S
N247 C248 1.305 . S
N247 C252 1.360 . S
C248 H240 0.930 . S
C248 N247 1.305 . S
C248 C251 1.407 . S
C249 H243 0.930 . S
C249 C250 1.410 . S
C249 C251 1.345 . S
C250 C249 1.410 . S
C250 C252 1.417 . S
C250 C282 1.432 . S
C251 H237 0.930 . S
C251 C248 1.407 . S
C251 C249 1.345 . S
C252 N247 1.360 . S
C252 C250 1.417 . S
C252 C256 1.432 . S
H253 C258 0.930 . S
N254 Tb216 2.600 . S
N254 C256 1.359 . S
N254 C257 1.327 . S
C255 H241 0.931 . S
C255 C257 1.392 . S
C255 C258 1.370 . S
C256 C252 1.432 . S
C256 N254 1.359 . S
C256 C259 1.414 . S
C257 H239 0.930 . S
C257 N254 1.327 . S
C257 C255 1.392 . S
C258 H253 0.930 . S
C258 C255 1.370 . S
C258 C259 1.385 . S
C259 C256 1.414 . S
C259 C258 1.385 . S
C259 C281 1.444 . S
O260 Tb216 2.546 . S
O260 C280 1.251 . S
O261 Tb216 2.610 1_544 S
O261 Tb227 2.362 . S
O261 C272 1.283 1_554 S
O262 Tb227 2.421 . S
O262 C279 1.286 . S
O263 Tb216 2.320 1_545 S
O263 C279 1.243 1_556 S
O264 Tb216 2.552 1_545 S
O264 C272 1.243 . S
O265 Tb216 2.413 1_545 S
O265 C280 1.256 1_545 S
O266 Tb227 2.546 . S
O266 C291 1.251 . S
O267 Tb216 2.362 1_554 S
O267 Tb227 2.610 1_565 S
O267 C283 1.283 . S
O268 Tb216 2.421 . S
O268 C290 1.262 1_556 S
O269 Tb227 2.320 1_565 S
O269 C290 1.260 . S
O270 Tb227 2.552 1_565 S
O270 C283 1.243 . S
O271 Tb227 2.413 1_565 S
O271 C291 1.256 1_565 S
C272 O261 1.283 1_556 S
C272 O264 1.243 . S
C273 C275 1.382 . S
C273 C277 1.393 1_545 S
C273 C280 1.500 1_545 S
C274 C275 1.400 . S
C274 C276 1.384 . S
C275 C273 1.382 . S
C275 C274 1.400 . S
C275 H292 0.930 . S
C276 C274 1.384 . S
C276 C278 1.392 1_545 S
C276 H293 0.931 . S
C277 C273 1.393 1_565 S
C277 C278 1.401 . S
C277 H294 0.930 . S
C278 C276 1.392 1_565 S
C278 C277 1.401 . S
C278 H295 0.930 . S
C279 O262 1.286 . S
C279 O263 1.243 1_554 S
C280 Tb216 2.833 . S
C280 O260 1.251 . S
C280 O265 1.256 1_565 S
C280 C273 1.500 1_565 S
C281 H246 0.929 . S
C281 C259 1.444 . S
C281 C282 1.317 . S
C282 H244 0.930 . S
C282 C250 1.432 . S
C282 C281 1.317 . S
C283 O267 1.283 . S
C283 O270 1.243 . S
C284 C285 1.385 . S
C284 C288 1.391 1_565 S
C284 C291 1.499 1_565 S
C285 C284 1.385 . S
C285 C286 1.400 . S
C285 H296 0.930 . S
C286 C285 1.400 . S
C286 C287 1.384 . S
C287 C286 1.384 . S
C287 C289 1.392 1_565 S
C287 H297 0.931 . S
C288 C284 1.391 1_545 S
C288 C289 1.401 . S
C288 H298 0.930 . S
C289 C287 1.392 1_545 S
C289 C288 1.401 . S
C289 H299 0.930 . S
C290 O268 1.262 1_554 S
C290 O269 1.260 . S
C291 Tb227 2.833 . S
C291 O266 1.251 . S
C291 O271 1.256 1_545 S
C291 C284 1.499 1_545 S
H292 C275 0.930 . S
H293 C276 0.931 . S
H294 C277 0.930 . S
H295 C278 0.930 . S
H296 C285 0.930 . S
H297 C287 0.931 . S
H298 C288 0.930 . S
H299 C289 0.930 . S
Tb300 N331 2.660 . S
Tb300 N338 2.600 . S
Tb300 O344 2.546 . S
Tb300 O345 2.610 1_456 S
Tb300 O347 2.320 1_455 S
Tb300 O348 2.552 1_455 S
Tb300 O349 2.410 1_455 S
Tb300 O351 2.362 1_556 S
Tb300 O352 2.421 . S
Tb300 C364 2.833 . S
C301 C304 1.432 . S
C301 C305 1.414 . S
C301 N308 1.359 . S
C302 C304 1.417 . S
C302 C306 1.432 . S
C302 C314 1.410 . S
C303 C305 1.444 . S
C303 C306 1.317 . S
C303 H326 0.929 . S
C304 C301 1.432 . S
C304 C302 1.417 . S
C304 N312 1.360 . S
C305 C301 1.414 . S
C305 C303 1.444 . S
C305 C310 1.385 . S
C306 C302 1.432 . S
C306 C303 1.317 . S
C306 H318 0.930 . S
C307 C309 1.392 . S
C307 C310 1.370 . S
C307 H319 0.931 . S
N308 C301 1.359 . S
N308 C309 1.327 . S
N308 Tb311 2.600 . S
C309 C307 1.392 . S
C309 N308 1.327 . S
C309 H316 0.930 . S
C310 C305 1.385 . S
C310 C307 1.370 . S
C310 H329 0.930 . S
Tb311 N308 2.600 . S
Tb311 N312 2.660 . S
Tb311 O345 2.362 . S
Tb311 O346 2.421 . S
Tb311 O350 2.546 . S
Tb311 O351 2.610 1_655 S
Tb311 O353 2.320 1_655 S
Tb311 O354 2.552 1_655 S
Tb311 O355 2.413 1_655 S
Tb311 C375 2.833 . S
N312 C304 1.360 . S
N312 Tb311 2.660 . S
N312 C313 1.305 . S
C313 N312 1.305 . S
C313 C315 1.407 . S
C313 H320 0.930 . S
C314 C302 1.410 . S
C314 C315 1.345 . S
C314 H322 0.930 . S
C315 C313 1.407 . S
C315 C314 1.345 . S
C315 H317 0.930 . S
H316 C309 0.930 . S
H317 C315 0.930 . S
H318 C306 0.930 . S
H319 C307 0.931 . S
H320 C313 0.930 . S
H321 C335 0.930 . S
H322 C314 0.930 . S
H323 C341 0.930 . S
H324 C332 0.930 . S
H325 C339 0.931 . S
H326 C303 0.929 . S
H327 C333 0.930 . S
H328 C366 0.930 . S
H329 C310 0.930 . S
H330 C365 0.929 . S
N331 Tb300 2.660 . S
N331 C332 1.305 . S
N331 C336 1.360 . S
C332 H324 0.930 . S
C332 N331 1.305 . S
C332 C335 1.407 . S
C333 H327 0.930 . S
C333 C334 1.410 . S
C333 C335 1.345 . S
C334 C333 1.410 . S
C334 C336 1.417 . S
C334 C366 1.432 . S
C335 H321 0.930 . S
C335 C332 1.407 . S
C335 C333 1.345 . S
C336 N331 1.360 . S
C336 C334 1.417 . S
C336 C340 1.432 . S
H337 C342 0.930 . S
N338 Tb300 2.600 . S
N338 C340 1.359 . S
N338 C341 1.327 . S
C339 H325 0.931 . S
C339 C341 1.392 . S
C339 C342 1.370 . S
C340 C336 1.432 . S
C340 N338 1.359 . S
C340 C343 1.414 . S
C341 H323 0.930 . S
C341 N338 1.327 . S
C341 C339 1.392 . S
C342 H337 0.930 . S
C342 C339 1.370 . S
C342 C343 1.385 . S
C343 C340 1.414 . S
C343 C342 1.385 . S
C343 C365 1.444 . S
O344 Tb300 2.546 . S
O344 C364 1.251 . S
O345 Tb300 2.610 1_654 S
O345 Tb311 2.362 . S
O345 C356 1.283 1_554 S
O346 Tb311 2.421 . S
O346 C363 1.231 1_554 S
O347 Tb300 2.320 1_655 S
O347 C363 1.281 . S
O348 Tb300 2.552 1_655 S
O348 C356 1.243 . S
O349 Tb300 2.410 1_655 S
O349 C364 1.258 1_655 S
O350 Tb311 2.546 . S
O350 C375 1.251 . S
O351 Tb300 2.362 1_554 S
O351 Tb311 2.610 1_455 S
O351 C367 1.283 . S
O352 Tb300 2.421 . S
O352 C374 1.262 1_556 S
O353 Tb311 2.320 1_455 S
O353 C374 1.260 . S
O354 Tb311 2.552 1_455 S
O354 C367 1.243 . S
O355 Tb311 2.413 1_455 S
O355 C375 1.256 1_455 S
C356 O345 1.283 1_556 S
C356 O348 1.243 . S
C357 C359 1.382 1_455 S
C357 C361 1.393 . S
C357 C364 1.500 . S
C358 C359 1.400 . S
C358 C360 1.384 . S
C359 C357 1.382 1_655 S
C359 C358 1.400 . S
C359 H376 0.930 . S
C360 C358 1.384 . S
C360 C362 1.392 1_655 S
C360 H377 0.931 . S
C361 C357 1.393 . S
C361 C362 1.401 . S
C361 H378 0.930 . S
C362 C360 1.392 1_455 S
C362 C361 1.401 . S
C362 H379 0.930 . S
C363 O346 1.231 1_556 S
C363 O347 1.281 . S
C364 Tb300 2.833 . S
C364 O344 1.251 . S
C364 O349 1.258 1_455 S
C364 C357 1.500 . S
C365 H330 0.929 . S
C365 C343 1.444 . S
C365 C366 1.317 . S
C366 H328 0.930 . S
C366 C334 1.432 . S
C366 C365 1.317 . S
C367 O351 1.283 . S
C367 O354 1.243 . S
C368 C369 1.382 . S
C368 C372 1.393 1_455 S
C368 C375 1.500 1_455 S
C369 C368 1.382 . S
C369 C370 1.400 . S
C369 H380 0.930 . S
C370 C369 1.400 . S
C370 C371 1.384 . S
C371 C370 1.384 . S
C371 C373 1.392 1_455 S
C371 H381 0.931 . S
C372 C368 1.393 1_655 S
C372 C373 1.401 . S
C372 H382 0.930 . S
C373 C371 1.392 1_655 S
C373 C372 1.401 . S
C373 H383 0.930 . S
C374 O352 1.262 1_554 S
C374 O353 1.260 . S
C375 Tb311 2.833 . S
C375 O350 1.251 . S
C375 O355 1.256 1_655 S
C375 C368 1.500 1_655 S
H376 C359 0.930 . S
H377 C360 0.931 . S
H378 C361 0.930 . S
H379 C362 0.930 . S
H380 C369 0.930 . S
H381 C371 0.931 . S
H382 C372 0.930 . S
H383 C373 0.930 . S
Tb384 N415 2.660 . S
Tb384 N422 2.600 . S
Tb384 O428 2.546 . S
Tb384 O429 2.610 . S
Tb384 O431 2.320 . S
Tb384 O432 2.552 . S
Tb384 O433 2.413 . S
Tb384 O435 2.362 . S
Tb384 O436 2.421 . S
Tb384 C448 2.833 . S
C385 C388 1.432 . S
C385 C389 1.414 . S
C385 N392 1.359 . S
C386 C388 1.417 . S
C386 C390 1.432 . S
C386 C398 1.410 . S
C387 C389 1.444 . S
C387 C390 1.317 . S
C387 H410 0.929 . S
C388 C385 1.432 . S
C388 C386 1.417 . S
C388 N396 1.360 . S
C389 C385 1.414 . S
C389 C387 1.444 . S
C389 C394 1.385 . S
C390 C386 1.432 . S
C390 C387 1.317 . S
C390 H402 0.930 . S
C391 C393 1.392 . S
C391 C394 1.370 . S
C391 H403 0.931 . S
N392 C385 1.359 . S
N392 C393 1.327 . S
N392 Tb395 2.600 . S
C393 C391 1.392 . S
C393 N392 1.327 . S
C393 H400 0.930 . S
C394 C389 1.385 . S
C394 C391 1.370 . S
C394 H413 0.930 . S
Tb395 N392 2.600 . S
Tb395 N396 2.660 . S
Tb395 O429 2.362 1_556 S
Tb395 O430 2.442 . S
Tb395 O434 2.546 . S
Tb395 O435 2.610 1_556 S
Tb395 O437 2.320 . S
Tb395 O438 2.552 . S
Tb395 O439 2.413 . S
Tb395 C459 2.833 . S
N396 C388 1.360 . S
N396 Tb395 2.660 . S
N396 C397 1.305 . S
C397 N396 1.305 . S
C397 C399 1.407 . S
C397 H404 0.930 . S
C398 C386 1.410 . S
C398 C399 1.345 . S
C398 H406 0.930 . S
C399 C397 1.407 . S
C399 C398 1.345 . S
C399 H401 0.930 . S
H400 C393 0.930 . S
H401 C399 0.930 . S
H402 C390 0.930 . S
H403 C391 0.931 . S
H404 C397 0.930 . S
H405 C419 0.930 . S
H406 C398 0.930 . S
H407 C425 0.930 . S
H408 C416 0.930 . S
H409 C423 0.931 . S
H410 C387 0.929 . S
H411 C417 0.930 . S
H412 C450 0.930 . S
H413 C394 0.930 . S
H414 C449 0.929 . S
N415 Tb384 2.660 . S
N415 C416 1.305 . S
N415 C420 1.360 . S
C416 H408 0.930 . S
C416 N415 1.305 . S
C416 C419 1.407 . S
C417 H411 0.930 . S
C417 C418 1.410 . S
C417 C419 1.345 . S
C418 C417 1.410 . S
C418 C420 1.417 . S
C418 C450 1.432 . S
C419 H405 0.930 . S
C419 C416 1.407 . S
C419 C417 1.345 . S
C420 N415 1.360 . S
C420 C418 1.417 . S
C420 C424 1.432 . S
H421 C426 0.930 . S
N422 Tb384 2.600 . S
N422 C424 1.359 . S
N422 C425 1.327 . S
C423 H409 0.931 . S
C423 C425 1.392 . S
C423 C426 1.370 . S
C424 C420 1.432 . S
C424 N422 1.359 . S
C424 C427 1.414 . S
C425 H407 0.930 . S
C425 N422 1.327 . S
C425 C423 1.392 . S
C426 H421 0.930 . S
C426 C423 1.370 . S
C426 C427 1.385 . S
C427 C424 1.414 . S
C427 C426 1.385 . S
C427 C449 1.444 . S
O428 Tb384 2.546 . S
O428 C448 1.251 . S
O429 Tb384 2.610 . S
O429 Tb395 2.362 1_554 S
O429 C440 1.283 . S
O430 Tb395 2.442 . S
O430 C447 1.220 1_556 S
O431 Tb384 2.320 . S
O431 C447 1.260 . S
O432 Tb384 2.552 . S
O432 C440 1.243 . S
O433 Tb384 2.413 . S
O433 C448 1.256 . S
O434 Tb395 2.546 . S
O434 C459 1.251 . S
O435 Tb384 2.362 . S
O435 Tb395 2.610 1_554 S
O435 C451 1.283 1_554 S
O436 Tb384 2.421 . S
O436 C458 1.262 . S
O437 Tb395 2.320 . S
O437 C458 1.260 1_556 S
O438 Tb395 2.552 . S
O438 C451 1.243 . S
O439 Tb395 2.413 . S
O439 C459 1.256 . S
C440 O429 1.283 . S
C440 O432 1.243 . S
C441 C443 1.382 . S
C441 C445 1.393 . S
C441 C448 1.500 . S
C442 C443 1.400 . S
C442 C444 1.384 . S
C443 C441 1.382 . S
C443 C442 1.400 . S
C443 H460 0.930 . S
C444 C442 1.384 . S
C444 C446 1.392 . S
C444 H461 0.931 . S
C445 C441 1.393 . S
C445 C446 1.401 . S
C445 H462 0.930 . S
C446 C444 1.392 . S
C446 C445 1.401 . S
C446 H463 0.930 . S
C447 O430 1.220 1_554 S
C447 O431 1.260 . S
C448 Tb384 2.833 . S
C448 O428 1.251 . S
C448 O433 1.256 . S
C448 C441 1.500 . S
C449 H414 0.929 . S
C449 C427 1.444 . S
C449 C450 1.317 . S
C450 H412 0.930 . S
C450 C418 1.432 . S
C450 C449 1.317 . S
C451 O435 1.283 1_556 S
C451 O438 1.243 . S
C452 C453 1.382 . S
C452 C456 1.393 . S
C452 C459 1.500 . S
C453 C452 1.382 . S
C453 C454 1.400 . S
C453 H464 0.930 . S
C454 C453 1.400 . S
C454 C455 1.384 . S
C455 C454 1.384 . S
C455 C457 1.392 . S
C455 H465 0.931 . S
C456 C452 1.393 . S
C456 C457 1.401 . S
C456 H466 0.930 . S
C457 C455 1.392 . S
C457 C456 1.401 . S
C457 H467 0.930 . S
C458 O436 1.262 . S
C458 O437 1.260 1_554 S
C459 Tb395 2.833 . S
C459 O434 1.251 . S
C459 O439 1.256 . S
C459 C452 1.500 . S
H460 C443 0.930 . S
H461 C444 0.931 . S
H462 C445 0.930 . S
H463 C446 0.930 . S
H464 C453 0.930 . S
H465 C455 0.931 . S
H466 C456 0.930 . S
H467 C457 0.930 . S
Tb468 N499 2.660 . S
Tb468 N506 2.600 . S
Tb468 O512 2.546 . S
Tb468 O513 2.610 . S
Tb468 O515 2.320 . S
Tb468 O516 2.552 . S
Tb468 O517 2.413 . S
Tb468 O519 2.362 . S
Tb468 O520 2.421 . S
Tb468 C532 2.833 . S
C469 C472 1.432 . S
C469 C473 1.414 . S
C469 N476 1.359 . S
C470 C472 1.417 . S
C470 C474 1.432 . S
C470 C482 1.410 . S
C471 C473 1.444 . S
C471 C474 1.317 . S
C471 H494 0.929 . S
C472 C469 1.432 . S
C472 C470 1.417 . S
C472 N480 1.360 . S
C473 C469 1.414 . S
C473 C471 1.444 . S
C473 C478 1.385 . S
C474 C470 1.432 . S
C474 C471 1.317 . S
C474 H486 0.930 . S
C475 C477 1.392 . S
C475 C478 1.370 . S
C475 H487 0.931 . S
N476 C469 1.359 . S
N476 C477 1.327 . S
N476 Tb479 2.600 . S
C477 C475 1.392 . S
C477 N476 1.327 . S
C477 H484 0.930 . S
C478 C473 1.385 . S
C478 C475 1.370 . S
C478 H497 0.930 . S
Tb479 N476 2.600 . S
Tb479 N480 2.660 . S
Tb479 O513 2.362 . S
Tb479 O514 2.421 . S
Tb479 O518 2.546 . S
Tb479 O519 2.610 . S
Tb479 O521 2.320 . S
Tb479 O522 2.552 . S
Tb479 O523 2.413 . S
Tb479 C543 2.833 . S
N480 C472 1.360 . S
N480 Tb479 2.660 . S
N480 C481 1.305 . S
C481 N480 1.305 . S
C481 C483 1.407 . S
C481 H488 0.930 . S
C482 C470 1.410 . S
C482 C483 1.345 . S
C482 H490 0.930 . S
C483 C481 1.407 . S
C483 C482 1.345 . S
C483 H485 0.930 . S
H484 C477 0.930 . S
H485 C483 0.930 . S
H486 C474 0.930 . S
H487 C475 0.931 . S
H488 C481 0.930 . S
H489 C503 0.930 . S
H490 C482 0.930 . S
H491 C509 0.930 . S
H492 C500 0.930 . S
H493 C507 0.931 . S
H494 C471 0.929 . S
H495 C501 0.930 . S
H496 C534 0.930 . S
H497 C478 0.930 . S
H498 C533 0.929 . S
N499 Tb468 2.660 . S
N499 C500 1.305 . S
N499 C504 1.360 . S
C500 H492 0.930 . S
C500 N499 1.305 . S
C500 C503 1.407 . S
C501 H495 0.930 . S
C501 C502 1.410 1_655 S
C501 C503 1.345 1_655 S
C502 C501 1.410 1_455 S
C502 C504 1.417 . S
C502 C534 1.432 1_455 S
C503 H489 0.930 . S
C503 C500 1.407 . S
C503 C501 1.345 1_455 S
C504 N499 1.360 . S
C504 C502 1.417 . S
C504 C508 1.432 . S
H505 C510 0.930 . S
N506 Tb468 2.600 . S
N506 C508 1.359 . S
N506 C509 1.327 . S
C507 H493 0.931 . S
C507 C509 1.392 . S
C507 C510 1.370 . S
C508 C504 1.432 . S
C508 N506 1.359 . S
C508 C511 1.414 . S
C509 H491 0.930 . S
C509 N506 1.327 . S
C509 C507 1.392 . S
C510 H505 0.930 . S
C510 C507 1.370 . S
C510 C511 1.385 . S
C511 C508 1.414 . S
C511 C510 1.385 . S
C511 C533 1.444 . S
O512 Tb468 2.546 . S
O512 C532 1.251 . S
O513 Tb468 2.610 . S
O513 Tb479 2.362 . S
O513 C524 1.283 . S
O514 Tb479 2.421 . S
O514 C531 1.262 . S
O515 Tb468 2.320 . S
O515 C531 1.260 . S
O516 Tb468 2.552 . S
O516 C524 1.243 . S
O517 Tb468 2.413 . S
O517 C532 1.256 . S
O518 Tb479 2.546 . S
O518 C543 1.251 . S
O519 Tb468 2.362 . S
O519 Tb479 2.610 . S
O519 C535 1.283 . S
O520 Tb468 2.421 . S
O520 C542 1.262 . S
O521 Tb479 2.320 . S
O521 C542 1.260 . S
O522 Tb479 2.552 . S
O522 C535 1.243 . S
O523 Tb479 2.413 . S
O523 C543 1.256 . S
C524 O513 1.283 . S
C524 O516 1.243 . S
C525 C527 1.382 . S
C525 C529 1.393 . S
C525 C532 1.500 . S
C526 C527 1.400 . S
C526 C528 1.384 . S
C527 C525 1.382 . S
C527 C526 1.400 . S
C527 H544 0.930 . S
C528 C526 1.384 . S
C528 C530 1.392 . S
C528 H545 0.931 . S
C529 C525 1.393 . S
C529 C530 1.401 . S
C529 H546 0.930 . S
C530 C528 1.392 . S
C530 C529 1.401 . S
C530 H547 0.930 . S
C531 O514 1.262 . S
C531 O515 1.260 . S
C532 Tb468 2.833 . S
C532 O512 1.251 . S
C532 O517 1.256 . S
C532 C525 1.500 . S
C533 H498 0.929 . S
C533 C511 1.444 . S
C533 C534 1.317 1_455 S
C534 H496 0.930 . S
C534 C502 1.432 1_655 S
C534 C533 1.317 1_655 S
C535 O519 1.283 . S
C535 O522 1.243 . S
C536 C537 1.382 . S
C536 C540 1.393 . S
C536 C543 1.500 . S
C537 C536 1.382 . S
C537 C538 1.400 . S
C537 H548 0.930 . S
C538 C537 1.400 . S
C538 C539 1.384 . S
C539 C538 1.384 . S
C539 C541 1.392 . S
C539 H549 0.931 . S
C540 C536 1.393 . S
C540 C541 1.401 . S
C540 H550 0.930 . S
C541 C539 1.392 . S
C541 C540 1.401 . S
C541 H551 0.930 . S
C542 O520 1.262 . S
C542 O521 1.260 . S
C543 Tb479 2.833 . S
C543 O518 1.251 . S
C543 O523 1.256 . S
C543 C536 1.500 . S
H544 C527 0.930 . S
H545 C528 0.931 . S
H546 C529 0.930 . S
H547 C530 0.930 . S
H548 C537 0.930 . S
H549 C539 0.931 . S
H550 C540 0.930 . S
H551 C541 0.930 . S
Tb552 N583 2.660 . S
Tb552 N590 2.600 . S
Tb552 O596 2.546 . S
Tb552 O597 2.610 . S
Tb552 O599 2.320 . S
Tb552 O600 2.552 . S
Tb552 O601 2.413 . S
Tb552 O603 2.362 . S
Tb552 O604 2.421 . S
Tb552 C616 2.833 . S
C553 C556 1.432 . S
C553 C557 1.414 . S
C553 N560 1.359 . S
C554 C556 1.417 . S
C554 C558 1.432 . S
C554 C566 1.410 . S
C555 C557 1.444 . S
C555 C558 1.317 . S
C555 H578 0.929 . S
C556 C553 1.432 . S
C556 C554 1.417 . S
C556 N564 1.360 . S
C557 C553 1.414 . S
C557 C555 1.444 . S
C557 C562 1.385 . S
C558 C554 1.432 . S
C558 C555 1.317 . S
C558 H570 0.930 . S
C559 C561 1.392 . S
C559 C562 1.370 . S
C559 H571 0.931 . S
N560 C553 1.359 . S
N560 C561 1.327 . S
N560 Tb563 2.600 . S
C561 C559 1.392 . S
C561 N560 1.327 . S
C561 H568 0.930 . S
C562 C557 1.385 . S
C562 C559 1.370 . S
C562 H581 0.930 . S
Tb563 N560 2.600 . S
Tb563 N564 2.660 . S
Tb563 O597 2.362 . S
Tb563 O598 2.421 . S
Tb563 O602 2.546 . S
Tb563 O603 2.610 . S
Tb563 O605 2.320 . S
Tb563 O606 2.552 . S
Tb563 O607 2.413 . S
Tb563 C627 2.833 . S
N564 C556 1.360 . S
N564 Tb563 2.660 . S
N564 C565 1.305 . S
C565 N564 1.305 . S
C565 C567 1.407 . S
C565 H572 0.930 . S
C566 C554 1.410 . S
C566 C567 1.345 . S
C566 H574 0.930 . S
C567 C565 1.407 . S
C567 C566 1.345 . S
C567 H569 0.930 . S
H568 C561 0.930 . S
H569 C567 0.930 . S
H570 C558 0.930 . S
H571 C559 0.931 . S
H572 C565 0.930 . S
H573 C587 0.930 . S
H574 C566 0.930 . S
H575 C593 0.930 . S
H576 C584 0.930 . S
H577 C591 0.931 . S
H578 C555 0.929 . S
H579 C585 0.930 . S
H580 C618 0.930 . S
H581 C562 0.930 . S
H582 C617 0.929 . S
N583 Tb552 2.660 . S
N583 C584 1.305 . S
N583 C588 1.360 . S
C584 H576 0.930 . S
C584 N583 1.305 . S
C584 C587 1.407 . S
C585 H579 0.930 . S
C585 C586 1.410 . S
C585 C587 1.345 . S
C586 C585 1.410 . S
C586 C588 1.417 . S
C586 C618 1.432 . S
C587 H573 0.930 . S
C587 C584 1.407 . S
C587 C585 1.345 . S
C588 N583 1.360 . S
C588 C586 1.417 . S
C588 C592 1.432 . S
H589 C594 0.930 . S
N590 Tb552 2.600 . S
N590 C592 1.359 . S
N590 C593 1.327 . S
C591 H577 0.931 . S
C591 C593 1.392 . S
C591 C594 1.370 . S
C592 C588 1.432 . S
C592 N590 1.359 . S
C592 C595 1.414 . S
C593 H575 0.930 . S
C593 N590 1.327 . S
C593 C591 1.392 . S
C594 H589 0.930 . S
C594 C591 1.370 . S
C594 C595 1.385 . S
C595 C592 1.414 . S
C595 C594 1.385 . S
C595 C617 1.444 . S
O596 Tb552 2.546 . S
O596 C616 1.251 . S
O597 Tb552 2.610 . S
O597 Tb563 2.362 . S
O597 C608 1.283 . S
O598 Tb563 2.421 . S
O598 C615 1.262 . S
O599 Tb552 2.320 . S
O599 C615 1.260 . S
O600 Tb552 2.552 . S
O600 C608 1.243 . S
O601 Tb552 2.413 . S
O601 C616 1.256 . S
O602 Tb563 2.546 . S
O602 C627 1.251 . S
O603 Tb552 2.362 . S
O603 Tb563 2.610 . S
O603 C619 1.283 . S
O604 Tb552 2.421 . S
O604 C626 1.262 . S
O605 Tb563 2.320 . S
O605 C626 1.260 . S
O606 Tb563 2.552 . S
O606 C619 1.243 . S
O607 Tb563 2.413 . S
O607 C627 1.256 . S
C608 O597 1.283 . S
C608 O600 1.243 . S
C609 C611 1.382 . S
C609 C613 1.393 . S
C609 C616 1.500 . S
C610 C611 1.400 . S
C610 C612 1.384 . S
C611 C609 1.382 . S
C611 C610 1.400 . S
C611 H628 0.930 . S
C612 C610 1.384 . S
C612 C614 1.392 . S
C612 H629 0.931 . S
C613 C609 1.393 . S
C613 C614 1.401 . S
C613 H630 0.930 . S
C614 C612 1.392 . S
C614 C613 1.401 . S
C614 H631 0.930 . S
C615 O598 1.262 . S
C615 O599 1.260 . S
C616 Tb552 2.833 . S
C616 O596 1.251 . S
C616 O601 1.256 . S
C616 C609 1.500 . S
C617 H582 0.929 . S
C617 C595 1.444 . S
C617 C618 1.317 . S
C618 H580 0.930 . S
C618 C586 1.432 . S
C618 C617 1.317 . S
C619 O603 1.283 . S
C619 O606 1.243 . S
C620 C621 1.382 . S
C620 C624 1.393 . S
C620 C627 1.500 . S
C621 C620 1.382 . S
C621 C622 1.400 . S
C621 H632 0.930 . S
C622 C621 1.400 . S
C622 C623 1.384 . S
C623 C622 1.384 . S
C623 C625 1.392 . S
C623 H633 0.931 . S
C624 C620 1.393 . S
C624 C625 1.401 . S
C624 H634 0.930 . S
C625 C623 1.392 . S
C625 C624 1.401 . S
C625 H635 0.930 . S
C626 O604 1.262 . S
C626 O605 1.260 . S
C627 Tb563 2.833 . S
C627 O602 1.251 . S
C627 O607 1.256 . S
C627 C620 1.500 . S
H628 C611 0.930 . S
H629 C612 0.931 . S
H630 C613 0.930 . S
H631 C614 0.930 . S
H632 C621 0.930 . S
H633 C623 0.931 . S
H634 C624 0.930 . S
H635 C625 0.930 . S
Tb636 N667 2.660 . S
Tb636 N674 2.600 . S
Tb636 O680 2.546 . S
Tb636 O681 2.610 . S
Tb636 O683 2.320 . S
Tb636 O684 2.552 . S
Tb636 O685 2.413 . S
Tb636 O687 2.362 . S
Tb636 O688 2.421 . S
Tb636 C700 2.833 . S
C637 C640 1.432 . S
C637 C641 1.414 . S
C637 N644 1.359 . S
C638 C640 1.417 . S
C638 C642 1.432 . S
C638 C650 1.410 . S
C639 C641 1.444 . S
C639 C642 1.317 . S
C639 H662 0.929 . S
C640 C637 1.432 . S
C640 C638 1.417 . S
C640 N648 1.360 . S
C641 C637 1.414 . S
C641 C639 1.444 . S
C641 C646 1.385 . S
C642 C638 1.432 . S
C642 C639 1.317 . S
C642 H654 0.930 . S
C643 C645 1.392 . S
C643 C646 1.370 . S
C643 H655 0.931 . S
N644 C637 1.359 . S
N644 C645 1.327 . S
N644 Tb647 2.600 . S
C645 C643 1.392 . S
C645 N644 1.327 . S
C645 H652 0.930 . S
C646 C641 1.385 . S
C646 C643 1.370 . S
C646 H665 0.930 . S
Tb647 N644 2.600 . S
Tb647 N648 2.660 . S
Tb647 O681 2.362 . S
Tb647 O682 2.421 . S
Tb647 O686 2.546 . S
Tb647 O687 2.610 . S
Tb647 O689 2.320 . S
Tb647 O690 2.552 . S
Tb647 O691 2.413 . S
Tb647 C711 2.833 . S
N648 C640 1.360 . S
N648 Tb647 2.660 . S
N648 C649 1.305 . S
C649 N648 1.305 . S
C649 C651 1.407 . S
C649 H656 0.930 . S
C650 C638 1.410 . S
C650 C651 1.345 . S
C650 H658 0.930 . S
C651 C649 1.407 . S
C651 C650 1.345 . S
C651 H653 0.930 . S
H652 C645 0.930 . S
H653 C651 0.930 . S
H654 C642 0.930 . S
H655 C643 0.931 . S
H656 C649 0.930 . S
H657 C671 0.930 . S
H658 C650 0.930 . S
H659 C677 0.930 . S
H660 C668 0.930 . S
H661 C675 0.931 . S
H662 C639 0.929 . S
H663 C669 0.930 . S
H664 C702 0.930 . S
H665 C646 0.930 . S
H666 C701 0.929 . S
N667 Tb636 2.660 . S
N667 C668 1.305 . S
N667 C672 1.360 . S
C668 H660 0.930 . S
C668 N667 1.305 . S
C668 C671 1.407 . S
C669 H663 0.930 . S
C669 C670 1.410 . S
C669 C671 1.345 . S
C670 C669 1.410 . S
C670 C672 1.417 . S
C670 C702 1.432 . S
C671 H657 0.930 . S
C671 C668 1.407 . S
C671 C669 1.345 . S
C672 N667 1.360 . S
C672 C670 1.417 . S
C672 C676 1.432 . S
H673 C678 0.930 . S
N674 Tb636 2.600 . S
N674 C676 1.359 . S
N674 C677 1.327 . S
C675 H661 0.931 . S
C675 C677 1.392 . S
C675 C678 1.370 . S
C676 C672 1.432 . S
C676 N674 1.359 . S
C676 C679 1.414 . S
C677 H659 0.930 . S
C677 N674 1.327 . S
C677 C675 1.392 . S
C678 H673 0.930 . S
C678 C675 1.370 . S
C678 C679 1.385 . S
C679 C676 1.414 . S
C679 C678 1.385 . S
C679 C701 1.444 . S
O680 Tb636 2.546 . S
O680 C700 1.251 . S
O681 Tb636 2.610 . S
O681 Tb647 2.362 . S
O681 C692 1.283 . S
O682 Tb647 2.421 . S
O682 C699 1.262 . S
O683 Tb636 2.320 . S
O683 C699 1.260 . S
O684 Tb636 2.552 . S
O684 C692 1.243 . S
O685 Tb636 2.413 . S
O685 C700 1.256 . S
O686 Tb647 2.546 . S
O686 C711 1.251 . S
O687 Tb636 2.362 . S
O687 Tb647 2.610 . S
O687 C703 1.283 . S
O688 Tb636 2.421 . S
O688 C710 1.262 . S
O689 Tb647 2.320 . S
O689 C710 1.260 . S
O690 Tb647 2.552 . S
O690 C703 1.243 . S
O691 Tb647 2.413 . S
O691 C711 1.256 . S
C692 O681 1.283 . S
C692 O684 1.243 . S
C693 C695 1.382 . S
C693 C697 1.393 . S
C693 C700 1.500 . S
C694 C695 1.400 . S
C694 C696 1.384 . S
C695 C693 1.382 . S
C695 C694 1.400 . S
C695 H712 0.930 . S
C696 C694 1.384 . S
C696 C698 1.392 . S
C696 H713 0.931 . S
C697 C693 1.393 . S
C697 C698 1.401 . S
C697 H714 0.930 . S
C698 C696 1.392 . S
C698 C697 1.401 . S
C698 H715 0.930 . S
C699 O682 1.262 . S
C699 O683 1.260 . S
C700 Tb636 2.833 . S
C700 O680 1.251 . S
C700 O685 1.256 . S
C700 C693 1.500 . S
C701 H666 0.929 . S
C701 C679 1.444 . S
C701 C702 1.317 . S
C702 H664 0.930 . S
C702 C670 1.432 . S
C702 C701 1.317 . S
C703 O687 1.283 . S
C703 O690 1.243 . S
C704 C705 1.382 . S
C704 C708 1.393 . S
C704 C711 1.500 . S
C705 C704 1.382 . S
C705 C706 1.400 . S
C705 H716 0.930 . S
C706 C705 1.400 . S
C706 C707 1.384 . S
C707 C706 1.384 . S
C707 C709 1.392 . S
C707 H717 0.931 . S
C708 C704 1.393 . S
C708 C709 1.401 . S
C708 H718 0.930 . S
C709 C707 1.392 . S
C709 C708 1.401 . S
C709 H719 0.930 . S
C710 O688 1.262 . S
C710 O689 1.260 . S
C711 Tb647 2.833 . S
C711 O686 1.251 . S
C711 O691 1.256 . S
C711 C704 1.500 . S
H712 C695 0.930 . S
H713 C696 0.931 . S
H714 C697 0.930 . S
H715 C698 0.930 . S
H716 C705 0.930 . S
H717 C707 0.931 . S
H718 C708 0.930 . S
H719 C709 0.930 . S
Tb720 N751 2.660 . S
Tb720 N758 2.600 . S
Tb720 O764 2.546 . S
Tb720 O765 2.610 . S
Tb720 O767 2.320 . S
Tb720 O768 2.552 . S
Tb720 O769 2.413 . S
Tb720 O771 2.362 . S
Tb720 O772 2.421 . S
Tb720 C784 2.833 . S
C721 C724 1.432 . S
C721 C725 1.414 . S
C721 N728 1.359 . S
C722 C724 1.417 . S
C722 C726 1.432 . S
C722 C734 1.410 . S
C723 C725 1.444 . S
C723 C726 1.317 . S
C723 H746 0.929 . S
C724 C721 1.432 . S
C724 C722 1.417 . S
C724 N732 1.360 . S
C725 C721 1.414 . S
C725 C723 1.444 . S
C725 C730 1.385 . S
C726 C722 1.432 . S
C726 C723 1.317 . S
C726 H738 0.930 . S
C727 C729 1.392 . S
C727 C730 1.370 . S
C727 H739 0.931 . S
N728 C721 1.359 . S
N728 C729 1.327 . S
N728 Tb731 2.600 . S
C729 C727 1.392 . S
C729 N728 1.327 . S
C729 H736 0.930 . S
C730 C725 1.385 . S
C730 C727 1.370 . S
C730 H749 0.930 . S
Tb731 N728 2.600 . S
Tb731 N732 2.660 . S
Tb731 O765 2.362 . S
Tb731 O766 2.421 . S
Tb731 O770 2.546 . S
Tb731 O771 2.610 . S
Tb731 O773 2.320 . S
Tb731 O774 2.552 . S
Tb731 O775 2.413 . S
Tb731 C795 2.833 . S
N732 C724 1.360 . S
N732 Tb731 2.660 . S
N732 C733 1.305 . S
C733 N732 1.305 . S
C733 C735 1.407 . S
C733 H740 0.930 . S
C734 C722 1.410 . S
C734 C735 1.345 . S
C734 H742 0.930 . S
C735 C733 1.407 . S
C735 C734 1.345 . S
C735 H737 0.930 . S
H736 C729 0.930 . S
H737 C735 0.930 . S
H738 C726 0.930 . S
H739 C727 0.931 . S
H740 C733 0.930 . S
H741 C755 0.930 . S
H742 C734 0.930 . S
H743 C761 0.930 . S
H744 C752 0.930 . S
H745 C759 0.931 . S
H746 C723 0.929 . S
H747 C753 0.930 . S
H748 C786 0.930 . S
H749 C730 0.930 . S
H750 C785 0.929 . S
N751 Tb720 2.660 . S
N751 C752 1.305 . S
N751 C756 1.360 . S
C752 H744 0.930 . S
C752 N751 1.305 . S
C752 C755 1.407 . S
C753 H747 0.930 . S
C753 C754 1.410 . S
C753 C755 1.345 . S
C754 C753 1.410 . S
C754 C756 1.417 . S
C754 C786 1.432 . S
C755 H741 0.930 . S
C755 C752 1.407 . S
C755 C753 1.345 . S
C756 N751 1.360 . S
C756 C754 1.417 . S
C756 C760 1.432 . S
H757 C762 0.930 . S
N758 Tb720 2.600 . S
N758 C760 1.359 . S
N758 C761 1.327 . S
C759 H745 0.931 . S
C759 C761 1.392 . S
C759 C762 1.370 . S
C760 C756 1.432 . S
C760 N758 1.359 . S
C760 C763 1.414 . S
C761 H743 0.930 . S
C761 N758 1.327 . S
C761 C759 1.392 . S
C762 H757 0.930 . S
C762 C759 1.370 . S
C762 C763 1.385 . S
C763 C760 1.414 . S
C763 C762 1.385 . S
C763 C785 1.444 . S
O764 Tb720 2.546 . S
O764 C784 1.251 . S
O765 Tb720 2.610 . S
O765 Tb731 2.362 . S
O765 C776 1.283 . S
O766 Tb731 2.421 . S
O766 C783 1.262 . S
O767 Tb720 2.320 . S
O767 C783 1.260 . S
O768 Tb720 2.552 . S
O768 C776 1.243 . S
O769 Tb720 2.413 . S
O769 C784 1.256 . S
O770 Tb731 2.546 . S
O770 C795 1.251 . S
O771 Tb720 2.362 . S
O771 Tb731 2.610 . S
O771 C787 1.283 . S
O772 Tb720 2.421 . S
O772 C794 1.262 . S
O773 Tb731 2.320 . S
O773 C794 1.260 . S
O774 Tb731 2.552 . S
O774 C787 1.243 . S
O775 Tb731 2.413 . S
O775 C795 1.256 . S
C776 O765 1.283 . S
C776 O768 1.243 . S
C777 C779 1.382 . S
C777 C781 1.393 . S
C777 C784 1.500 . S
C778 C779 1.400 . S
C778 C780 1.384 . S
C779 C777 1.382 . S
C779 C778 1.400 . S
C779 H796 0.930 . S
C780 C778 1.384 . S
C780 C782 1.392 . S
C780 H797 0.931 . S
C781 C777 1.393 . S
C781 C782 1.401 . S
C781 H798 0.930 . S
C782 C780 1.392 . S
C782 C781 1.401 . S
C782 H799 0.930 . S
C783 O766 1.262 . S
C783 O767 1.260 . S
C784 Tb720 2.833 . S
C784 O764 1.251 . S
C784 O769 1.256 . S
C784 C777 1.500 . S
C785 H750 0.929 . S
C785 C763 1.444 . S
C785 C786 1.317 . S
C786 H748 0.930 . S
C786 C754 1.432 . S
C786 C785 1.317 . S
C787 O771 1.283 . S
C787 O774 1.243 . S
C788 C789 1.382 . S
C788 C792 1.393 . S
C788 C795 1.500 . S
C789 C788 1.382 . S
C789 C790 1.400 . S
C789 H800 0.930 . S
C790 C789 1.400 . S
C790 C791 1.384 . S
C791 C790 1.384 . S
C791 C793 1.392 . S
C791 H801 0.931 . S
C792 C788 1.393 . S
C792 C793 1.401 . S
C792 H802 0.930 . S
C793 C791 1.392 . S
C793 C792 1.401 . S
C793 H803 0.930 . S
C794 O772 1.262 . S
C794 O773 1.260 . S
C795 Tb731 2.833 . S
C795 O770 1.251 . S
C795 O775 1.256 . S
C795 C788 1.500 . S
H796 C779 0.930 . S
H797 C780 0.931 . S
H798 C781 0.930 . S
H799 C782 0.930 . S
H800 C789 0.930 . S
H801 C791 0.931 . S
H802 C792 0.930 . S
H803 C793 0.930 . S
Tb804 N835 2.660 . S
Tb804 N842 2.600 . S
Tb804 O848 2.546 . S
Tb804 O849 2.610 . S
Tb804 O851 2.320 . S
Tb804 O852 2.552 . S
Tb804 O853 2.413 . S
Tb804 O855 2.362 . S
Tb804 O856 2.421 . S
Tb804 C868 2.833 . S
C805 C808 1.432 . S
C805 C809 1.414 . S
C805 N812 1.359 . S
C806 C808 1.417 . S
C806 C810 1.432 . S
C806 C818 1.410 . S
C807 C809 1.444 . S
C807 C810 1.317 . S
C807 H830 0.929 . S
C808 C805 1.432 . S
C808 C806 1.417 . S
C808 N816 1.360 . S
C809 C805 1.414 . S
C809 C807 1.444 . S
C809 C814 1.385 . S
C810 C806 1.432 . S
C810 C807 1.317 . S
C810 H822 0.930 . S
C811 C813 1.392 . S
C811 C814 1.370 . S
C811 H823 0.931 . S
N812 C805 1.359 . S
N812 C813 1.327 . S
N812 Tb815 2.600 . S
C813 C811 1.392 . S
C813 N812 1.327 . S
C813 H820 0.930 . S
C814 C809 1.385 . S
C814 C811 1.370 . S
C814 H833 0.930 . S
Tb815 N812 2.600 . S
Tb815 N816 2.660 . S
Tb815 O849 2.362 . S
Tb815 O850 2.421 . S
Tb815 O854 2.546 . S
Tb815 O855 2.610 . S
Tb815 O857 2.320 . S
Tb815 O858 2.552 . S
Tb815 O859 2.413 . S
Tb815 C879 2.833 . S
N816 C808 1.360 . S
N816 Tb815 2.660 . S
N816 C817 1.305 . S
C817 N816 1.305 . S
C817 C819 1.407 . S
C817 H824 0.930 . S
C818 C806 1.410 . S
C818 C819 1.345 . S
C818 H826 0.930 . S
C819 C817 1.407 . S
C819 C818 1.345 . S
C819 H821 0.930 . S
H820 C813 0.930 . S
H821 C819 0.930 . S
H822 C810 0.930 . S
H823 C811 0.931 . S
H824 C817 0.930 . S
H825 C839 0.930 . S
H826 C818 0.930 . S
H827 C845 0.930 . S
H828 C836 0.930 . S
H829 C843 0.931 . S
H830 C807 0.929 . S
H831 C837 0.930 . S
H832 C870 0.930 . S
H833 C814 0.930 . S
H834 C869 0.929 . S
N835 Tb804 2.660 . S
N835 C836 1.305 . S
N835 C840 1.360 . S
C836 H828 0.930 . S
C836 N835 1.305 . S
C836 C839 1.407 . S
C837 H831 0.930 . S
C837 C838 1.410 . S
C837 C839 1.345 . S
C838 C837 1.410 . S
C838 C840 1.417 . S
C838 C870 1.432 . S
C839 H825 0.930 . S
C839 C836 1.407 . S
C839 C837 1.345 . S
C840 N835 1.360 . S
C840 C838 1.417 . S
C840 C844 1.432 . S
H841 C846 0.930 . S
N842 Tb804 2.600 . S
N842 C844 1.359 . S
N842 C845 1.327 . S
C843 H829 0.931 . S
C843 C845 1.392 . S
C843 C846 1.370 . S
C844 C840 1.432 . S
C844 N842 1.359 . S
C844 C847 1.414 . S
C845 H827 0.930 . S
C845 N842 1.327 . S
C845 C843 1.392 . S
C846 H841 0.930 . S
C846 C843 1.370 . S
C846 C847 1.385 . S
C847 C844 1.414 . S
C847 C846 1.385 . S
C847 C869 1.444 . S
O848 Tb804 2.546 . S
O848 C868 1.251 . S
O849 Tb804 2.610 . S
O849 Tb815 2.362 . S
O849 C860 1.283 . S
O850 Tb815 2.421 . S
O850 C867 1.262 . S
O851 Tb804 2.320 . S
O851 C867 1.260 . S
O852 Tb804 2.552 . S
O852 C860 1.243 . S
O853 Tb804 2.413 . S
O853 C868 1.256 . S
O854 Tb815 2.546 . S
O854 C879 1.251 . S
O855 Tb804 2.362 . S
O855 Tb815 2.610 . S
O855 C871 1.283 . S
O856 Tb804 2.421 . S
O856 C878 1.262 . S
O857 Tb815 2.320 . S
O857 C878 1.260 . S
O858 Tb815 2.552 . S
O858 C871 1.243 . S
O859 Tb815 2.413 . S
O859 C879 1.256 . S
C860 O849 1.283 . S
C860 O852 1.243 . S
C861 C863 1.382 . S
C861 C865 1.393 . S
C861 C868 1.500 . S
C862 C863 1.400 . S
C862 C864 1.384 . S
C863 C861 1.382 . S
C863 C862 1.400 . S
C863 H880 0.930 . S
C864 C862 1.384 . S
C864 C866 1.392 . S
C864 H881 0.931 . S
C865 C861 1.393 . S
C865 C866 1.401 . S
C865 H882 0.930 . S
C866 C864 1.392 . S
C866 C865 1.401 . S
C866 H883 0.930 . S
C867 O850 1.262 . S
C867 O851 1.260 . S
C868 Tb804 2.833 . S
C868 O848 1.251 . S
C868 O853 1.256 . S
C868 C861 1.500 . S
C869 H834 0.929 . S
C869 C847 1.444 . S
C869 C870 1.317 . S
C870 H832 0.930 . S
C870 C838 1.432 . S
C870 C869 1.317 . S
C871 O855 1.283 . S
C871 O858 1.243 . S
C872 C873 1.382 . S
C872 C876 1.393 . S
C872 C879 1.500 . S
C873 C872 1.382 . S
C873 C874 1.400 . S
C873 H884 0.930 . S
C874 C873 1.400 . S
C874 C875 1.384 . S
C875 C874 1.384 . S
C875 C877 1.392 . S
C875 H885 0.931 . S
C876 C872 1.393 . S
C876 C877 1.401 . S
C876 H886 0.930 . S
C877 C875 1.392 . S
C877 C876 1.401 . S
C877 H887 0.930 . S
C878 O856 1.262 . S
C878 O857 1.260 . S
C879 Tb815 2.833 . S
C879 O854 1.251 . S
C879 O859 1.256 . S
C879 C872 1.500 . S
H880 C863 0.930 . S
H881 C864 0.931 . S
H882 C865 0.930 . S
H883 C866 0.930 . S
H884 C873 0.930 . S
H885 C875 0.931 . S
H886 C876 0.930 . S
H887 C877 0.930 . S
Tb888 N919 2.660 . S
Tb888 N926 2.600 . S
Tb888 O932 2.546 . S
Tb888 O933 2.610 . S
Tb888 O935 2.320 . S
Tb888 O936 2.552 . S
Tb888 O937 2.413 . S
Tb888 O939 2.362 . S
Tb888 O940 2.421 . S
Tb888 C952 2.833 . S
C889 C892 1.432 . S
C889 C893 1.414 . S
C889 N896 1.359 . S
C890 C892 1.417 . S
C890 C894 1.432 . S
C890 C902 1.410 . S
C891 C893 1.444 . S
C891 C894 1.317 . S
C891 H914 0.929 . S
C892 C889 1.432 . S
C892 C890 1.417 . S
C892 N900 1.360 . S
C893 C889 1.414 . S
C893 C891 1.444 . S
C893 C898 1.385 . S
C894 C890 1.432 . S
C894 C891 1.317 . S
C894 H906 0.930 . S
C895 C897 1.392 . S
C895 C898 1.370 . S
C895 H907 0.931 . S
N896 C889 1.359 . S
N896 C897 1.327 . S
N896 Tb899 2.600 . S
C897 C895 1.392 . S
C897 N896 1.327 . S
C897 H904 0.930 . S
C898 C893 1.385 . S
C898 C895 1.370 . S
C898 H917 0.930 . S
Tb899 N896 2.600 . S
Tb899 N900 2.660 . S
Tb899 O933 2.362 . S
Tb899 O934 2.421 . S
Tb899 O938 2.546 . S
Tb899 O939 2.610 . S
Tb899 O941 2.320 . S
Tb899 O942 2.552 . S
Tb899 O943 2.413 . S
Tb899 C963 2.833 . S
N900 C892 1.360 . S
N900 Tb899 2.660 . S
N900 C901 1.305 . S
C901 N900 1.305 . S
C901 C903 1.407 . S
C901 H908 0.930 . S
C902 C890 1.410 . S
C902 C903 1.345 . S
C902 H910 0.930 . S
C903 C901 1.407 . S
C903 C902 1.345 . S
C903 H905 0.930 . S
H904 C897 0.930 . S
H905 C903 0.930 . S
H906 C894 0.930 . S
H907 C895 0.931 . S
H908 C901 0.930 . S
H909 C923 0.930 1_455 S
H910 C902 0.930 . S
H911 C929 0.930 . S
H912 C920 0.930 . S
H913 C927 0.931 . S
H914 C891 0.929 . S
H915 C921 0.930 . S
H916 C954 0.930 . S
H917 C898 0.930 . S
H918 C953 0.929 1_455 S
N919 Tb888 2.660 . S
N919 C920 1.305 . S
N919 C924 1.360 . S
C920 H912 0.930 . S
C920 N919 1.305 . S
C920 C923 1.407 . S
C921 H915 0.930 . S
C921 C922 1.410 1_455 S
C921 C923 1.345 1_455 S
C922 C921 1.410 1_655 S
C922 C924 1.417 . S
C922 C954 1.432 1_655 S
C923 H909 0.930 1_655 S
C923 C920 1.407 . S
C923 C921 1.345 1_655 S
C924 N919 1.360 . S
C924 C922 1.417 . S
C924 C928 1.432 . S
H925 C930 0.930 . S
N926 Tb888 2.600 . S
N926 C928 1.359 . S
N926 C929 1.327 . S
C927 H913 0.931 . S
C927 C929 1.392 . S
C927 C930 1.370 . S
C928 C924 1.432 . S
C928 N926 1.359 . S
C928 C931 1.414 . S
C929 H911 0.930 . S
C929 N926 1.327 . S
C929 C927 1.392 . S
C930 H925 0.930 . S
C930 C927 1.370 . S
C930 C931 1.385 . S
C931 C928 1.414 . S
C931 C930 1.385 . S
C931 C953 1.444 . S
O932 Tb888 2.546 . S
O932 C952 1.251 . S
O933 Tb888 2.610 . S
O933 Tb899 2.362 . S
O933 C944 1.283 . S
O934 Tb899 2.421 . S
O934 C951 1.262 . S
O935 Tb888 2.320 . S
O935 C951 1.260 . S
O936 Tb888 2.552 . S
O936 C944 1.243 . S
O937 Tb888 2.413 . S
O937 C952 1.256 . S
O938 Tb899 2.546 . S
O938 C963 1.251 . S
O939 Tb888 2.362 . S
O939 Tb899 2.610 . S
O939 C955 1.283 . S
O940 Tb888 2.421 . S
O940 C962 1.262 . S
O941 Tb899 2.320 . S
O941 C962 1.260 . S
O942 Tb899 2.552 . S
O942 C955 1.243 . S
O943 Tb899 2.413 . S
O943 C963 1.256 . S
C944 O933 1.283 . S
C944 O936 1.243 . S
C945 C947 1.382 . S
C945 C949 1.393 . S
C945 C952 1.500 . S
C946 C947 1.400 . S
C946 C948 1.384 . S
C947 C945 1.382 . S
C947 C946 1.400 . S
C947 H964 0.930 . S
C948 C946 1.384 . S
C948 C950 1.392 . S
C948 H965 0.931 . S
C949 C945 1.393 . S
C949 C950 1.401 . S
C949 H966 0.930 . S
C950 C948 1.392 . S
C950 C949 1.401 . S
C950 H967 0.930 . S
C951 O934 1.262 . S
C951 O935 1.260 . S
C952 Tb888 2.833 . S
C952 O932 1.251 . S
C952 O937 1.256 . S
C952 C945 1.500 . S
C953 H918 0.929 1_655 S
C953 C931 1.444 . S
C953 C954 1.317 1_655 S
C954 H916 0.930 . S
C954 C922 1.432 1_455 S
C954 C953 1.317 1_455 S
C955 O939 1.283 . S
C955 O942 1.243 . S
C956 C957 1.382 . S
C956 C960 1.393 . S
C956 C963 1.500 . S
C957 C956 1.382 . S
C957 C958 1.400 . S
C957 H968 0.930 . S
C958 C957 1.400 . S
C958 C959 1.384 . S
C959 C958 1.384 . S
C959 C961 1.392 . S
C959 H969 0.931 . S
C960 C956 1.393 . S
C960 C961 1.401 . S
C960 H970 0.930 . S
C961 C959 1.392 . S
C961 C960 1.401 . S
C961 H971 0.930 . S
C962 O940 1.262 . S
C962 O941 1.260 . S
C963 Tb899 2.833 . S
C963 O938 1.251 . S
C963 O943 1.256 . S
C963 C956 1.500 . S
H964 C947 0.930 . S
H965 C948 0.931 . S
H966 C949 0.930 . S
H967 C950 0.930 . S
H968 C957 0.930 . S
H969 C959 0.931 . S
H970 C960 0.930 . S
H971 C961 0.930 . S
H972 C978 0.930 . S
H973 C981 0.930 . S
H974 C982 0.930 . S
H975 C983 0.930 . S
H976 C986 0.930 . S
H977 C987 0.930 . S
C978 H972 0.930 . S
C978 C979 1.355 . S
C978 C980 1.415 . S
C979 C978 1.355 . S
C979 C981 1.419 . S
C980 C978 1.415 . S
C980 C985 1.425 . S
C980 C987 1.409 . S
C981 H973 0.930 . S
C981 C979 1.419 . S
C981 C982 1.362 . S
C982 H974 0.930 . S
C982 C981 1.362 . S
C982 C985 1.409 . S
C983 H975 0.930 . S
C983 C984 1.355 . S
C983 C985 1.415 . S
C984 C983 1.355 . S
C984 C986 1.419 . S
C985 C980 1.425 . S
C985 C982 1.409 . S
C985 C983 1.415 . S
C986 H976 0.930 . S
C986 C984 1.419 . S
C986 C987 1.362 . S
C987 H977 0.930 . S
C987 C980 1.409 . S
C987 C986 1.362 . S
H988 C994 0.930 . S
H989 C997 0.930 . S
H990 C998 0.930 . S
H991 C999 0.930 . S
H992 C1002 0.930 1_556 S
H993 C1003 0.930 . S
C994 H988 0.930 . S
C994 C995 1.355 . S
C994 C996 1.415 . S
C995 C994 1.355 . S
C995 C997 1.419 . S
C996 C994 1.415 . S
C996 C1001 1.425 . S
C996 C1003 1.409 . S
C997 H989 0.930 . S
C997 C995 1.419 . S
C997 C998 1.362 . S
C998 H990 0.930 . S
C998 C997 1.362 . S
C998 C1001 1.409 . S
C999 H991 0.930 . S
C999 C1000 1.355 . S
C999 C1001 1.415 . S
C1000 C999 1.355 . S
C1000 C1002 1.419 . S
C1001 C996 1.425 . S
C1001 C998 1.409 . S
C1001 C999 1.415 . S
C1002 H992 0.930 1_554 S
C1002 C1000 1.419 . S
C1002 C1003 1.362 . S
C1003 H993 0.930 . S
C1003 C996 1.409 . S
C1003 C1002 1.362 . S
H1004 C1010 0.930 . S
H1005 C1013 0.930 . S
H1006 C1014 0.930 . S
H1007 C1015 0.930 . S
H1008 C1018 0.930 . S
H1009 C1019 0.930 . S
C1010 H1004 0.930 . S
C1010 C1011 1.355 . S
C1010 C1012 1.415 . S
C1011 C1010 1.355 . S
C1011 C1013 1.419 . S
C1012 C1010 1.415 . S
C1012 C1017 1.425 . S
C1012 C1019 1.409 . S
C1013 H1005 0.930 . S
C1013 C1011 1.419 . S
C1013 C1014 1.362 . S
C1014 H1006 0.930 . S
C1014 C1013 1.362 . S
C1014 C1017 1.409 . S
C1015 H1007 0.930 . S
C1015 C1016 1.355 . S
C1015 C1017 1.415 . S
C1016 C1015 1.355 . S
C1016 C1018 1.419 . S
C1017 C1012 1.425 . S
C1017 C1014 1.409 . S
C1017 C1015 1.415 . S
C1018 H1008 0.930 . S
C1018 C1016 1.419 . S
C1018 C1019 1.362 . S
C1019 H1009 0.930 . S
C1019 C1012 1.409 . S
C1019 C1018 1.362 . S
H1020 C1026 0.930 . S
H1021 C1029 0.930 . S
H1022 C1030 0.930 . S
H1023 C1031 0.930 . S
H1024 C1034 0.930 . S
H1025 C1035 0.930 . S
C1026 H1020 0.930 . S
C1026 C1027 1.355 . S
C1026 C1028 1.415 . S
C1027 C1026 1.355 . S
C1027 C1029 1.419 . S
C1028 C1026 1.415 . S
C1028 C1033 1.425 . S
C1028 C1035 1.409 1_556 S
C1029 H1021 0.930 . S
C1029 C1027 1.419 . S
C1029 C1030 1.362 . S
C1030 H1022 0.930 . S
C1030 C1029 1.362 . S
C1030 C1033 1.409 . S
C1031 H1023 0.930 . S
C1031 C1032 1.355 . S
C1031 C1033 1.415 . S
C1032 C1031 1.355 . S
C1032 C1034 1.419 1_556 S
C1033 C1028 1.425 . S
C1033 C1030 1.409 . S
C1033 C1031 1.415 . S
C1034 H1024 0.930 . S
C1034 C1032 1.419 1_554 S
C1034 C1035 1.362 . S
C1035 H1025 0.930 . S
C1035 C1028 1.409 1_554 S
C1035 C1034 1.362 . S
H1036 C1042 0.930 . S
H1037 C1045 0.930 . S
H1038 C1046 0.930 . S
H1039 C1047 0.930 . S
H1040 C1050 0.930 . S
H1041 C1051 0.930 . S
C1042 H1036 0.930 . S
C1042 C1043 1.355 . S
C1042 C1044 1.415 . S
C1043 C1042 1.355 . S
C1043 C1045 1.419 . S
C1044 C1042 1.415 . S
C1044 C1049 1.425 . S
C1044 C1051 1.409 1_556 S
C1045 H1037 0.930 . S
C1045 C1043 1.419 . S
C1045 C1046 1.362 . S
C1046 H1038 0.930 . S
C1046 C1045 1.362 . S
C1046 C1049 1.409 . S
C1047 H1039 0.930 . S
C1047 C1048 1.355 . S
C1047 C1049 1.415 . S
C1048 C1047 1.355 . S
C1048 C1050 1.419 1_556 S
C1049 C1044 1.425 . S
C1049 C1046 1.409 . S
C1049 C1047 1.415 . S
C1050 H1040 0.930 . S
C1050 C1048 1.419 1_554 S
C1050 C1051 1.362 . S
C1051 H1041 0.930 . S
C1051 C1044 1.409 1_554 S
C1051 C1050 1.362 . S
H1052 C1058 0.930 . S
H1053 C1061 0.930 . S
H1054 C1062 0.930 . S
H1055 C1063 0.930 . S
H1056 C1066 0.912 1_554 S
H1057 C1067 0.930 . S
C1058 H1052 0.930 . S
C1058 C1059 1.355 . S
C1058 C1060 1.415 . S
C1059 C1058 1.355 . S
C1059 C1061 1.419 . S
C1060 C1058 1.415 . S
C1060 C1065 1.425 . S
C1060 C1067 1.409 . S
C1061 H1053 0.930 . S
C1061 C1059 1.419 . S
C1061 C1062 1.362 . S
C1062 H1054 0.930 . S
C1062 C1061 1.362 . S
C1062 C1065 1.409 . S
C1063 H1055 0.930 . S
C1063 C1064 1.355 . S
C1063 C1065 1.415 . S
C1064 C1063 1.355 . S
C1064 C1066 1.428 . S
C1065 C1060 1.425 . S
C1065 C1062 1.409 . S
C1065 C1063 1.415 . S
C1066 H1056 0.912 1_556 S
C1066 C1064 1.428 . S
C1066 C1067 1.373 . S
C1067 H1057 0.930 . S
C1067 C1060 1.409 . S
C1067 C1066 1.373 . S
H1068 C1074 0.930 . S
H1069 C1077 0.930 1_554 S
H1070 C1078 0.930 . S
H1071 C1079 0.930 . S
H1072 C1082 0.930 . S
H1073 C1083 0.930 . S
C1074 H1068 0.930 . S
C1074 C1075 1.355 . S
C1074 C1076 1.415 . S
C1075 C1074 1.355 . S
C1075 C1077 1.419 . S
C1076 C1074 1.415 . S
C1076 C1081 1.425 . S
C1076 C1083 1.409 . S
C1077 H1069 0.930 1_556 S
C1077 C1075 1.419 . S
C1077 C1078 1.362 1_556 S
C1078 H1070 0.930 . S
C1078 C1077 1.362 1_554 S
C1078 C1081 1.409 1_554 S
C1079 H1071 0.930 . S
C1079 C1080 1.355 1_554 S
C1079 C1081 1.415 1_554 S
C1080 C1079 1.355 1_556 S
C1080 C1082 1.419 . S
C1081 C1076 1.425 . S
C1081 C1078 1.409 1_556 S
C1081 C1079 1.415 1_556 S
C1082 H1072 0.930 . S
C1082 C1080 1.419 . S
C1082 C1083 1.362 . S
C1083 H1073 0.930 . S
C1083 C1076 1.409 . S
C1083 C1082 1.362 . S
H1084 C1090 0.930 . S
H1085 C1093 0.930 . S
H1086 C1094 0.930 . S
H1087 C1095 0.930 . S
H1088 C1098 0.930 . S
H1089 C1099 0.930 . S
C1090 H1084 0.930 . S
C1090 C1091 1.355 . S
C1090 C1092 1.415 . S
C1091 C1090 1.355 . S
C1091 C1093 1.419 . S
C1092 C1090 1.415 . S
C1092 C1097 1.425 . S
C1092 C1099 1.409 . S
C1093 H1085 0.930 . S
C1093 C1091 1.419 . S
C1093 C1094 1.362 . S
C1094 H1086 0.930 . S
C1094 C1093 1.362 . S
C1094 C1097 1.409 . S
C1095 H1087 0.930 . S
C1095 C1096 1.355 . S
C1095 C1097 1.415 . S
C1096 C1095 1.355 . S
C1096 C1098 1.419 . S
C1097 C1092 1.425 . S
C1097 C1094 1.409 . S
C1097 C1095 1.415 . S
C1098 H1088 0.930 . S
C1098 C1096 1.419 . S
C1098 C1099 1.362 . S
C1099 H1089 0.930 . S
C1099 C1092 1.409 . S
C1099 C1098 1.362 . S
H1100 C1106 0.930 . S
H1101 C1109 0.930 . S
H1102 C1110 0.930 . S
H1103 C1111 0.930 . S
H1104 C1114 0.930 . S
H1105 C1115 0.930 . S
C1106 H1100 0.930 . S
C1106 C1107 1.355 . S
C1106 C1108 1.415 . S
C1107 C1106 1.355 . S
C1107 C1109 1.419 . S
C1108 C1106 1.415 . S
C1108 C1113 1.425 . S
C1108 C1115 1.409 . S
C1109 H1101 0.930 . S
C1109 C1107 1.419 . S
C1109 C1110 1.362 . S
C1110 H1102 0.930 . S
C1110 C1109 1.362 . S
C1110 C1113 1.409 . S
C1111 H1103 0.930 . S
C1111 C1112 1.355 . S
C1111 C1113 1.415 . S
C1112 C1111 1.355 . S
C1112 C1114 1.419 . S
C1113 C1108 1.425 . S
C1113 C1110 1.409 . S
C1113 C1111 1.415 . S
C1114 H1104 0.930 . S
C1114 C1112 1.419 . S
C1114 C1115 1.362 . S
C1115 H1105 0.930 . S
C1115 C1108 1.409 . S
C1115 C1114 1.362 . S
H1116 C1122 0.930 . S
H1117 C1125 0.930 . S
H1118 C1126 0.930 . S
H1119 C1127 0.930 . S
H1120 C1130 0.930 . S
H1121 C1131 0.930 . S
C1122 H1116 0.930 . S
C1122 C1123 1.355 . S
C1122 C1124 1.415 . S
C1123 C1122 1.355 . S
C1123 C1125 1.419 . S
C1124 C1122 1.415 . S
C1124 C1129 1.425 . S
C1124 C1131 1.409 . S
C1125 H1117 0.930 . S
C1125 C1123 1.419 . S
C1125 C1126 1.362 . S
C1126 H1118 0.930 . S
C1126 C1125 1.362 . S
C1126 C1129 1.409 . S
C1127 H1119 0.930 . S
C1127 C1128 1.355 . S
C1127 C1129 1.415 . S
C1128 C1127 1.355 . S
C1128 C1130 1.419 . S
C1129 C1124 1.425 . S
C1129 C1126 1.409 . S
C1129 C1127 1.415 . S
C1130 H1120 0.930 . S
C1130 C1128 1.419 . S
C1130 C1131 1.362 . S
C1131 H1121 0.930 . S
C1131 C1124 1.409 . S
C1131 C1130 1.362 . S
H1132 C1138 0.930 . S
H1133 C1141 0.930 . S
H1134 C1142 0.930 . S
H1135 C1143 0.930 . S
H1136 C1146 0.930 . S
H1137 C1147 0.930 . S
C1138 H1132 0.930 . S
C1138 C1139 1.355 . S
C1138 C1140 1.415 . S
C1139 C1138 1.355 . S
C1139 C1141 1.419 . S
C1140 C1138 1.415 . S
C1140 C1145 1.425 . S
C1140 C1147 1.409 . S
C1141 H1133 0.930 . S
C1141 C1139 1.419 . S
C1141 C1142 1.362 . S
C1142 H1134 0.930 . S
C1142 C1141 1.362 . S
C1142 C1145 1.409 . S
C1143 H1135 0.930 . S
C1143 C1144 1.355 . S
C1143 C1145 1.415 . S
C1144 C1143 1.355 . S
C1144 C1146 1.419 . S
C1145 C1140 1.425 . S
C1145 C1142 1.409 . S
C1145 C1143 1.415 . S
C1146 H1136 0.930 . S
C1146 C1144 1.419 . S
C1146 C1147 1.362 . S
C1147 H1137 0.930 . S
C1147 C1140 1.409 . S
C1147 C1146 1.362 . S
H1148 C1154 0.930 . S
H1149 C1157 0.930 . S
H1150 C1158 0.930 . S
H1151 C1159 0.930 . S
H1152 C1162 0.930 . S
H1153 C1163 0.930 . S
C1154 H1148 0.930 . S
C1154 C1155 1.355 . S
C1154 C1156 1.415 . S
C1155 C1154 1.355 . S
C1155 C1157 1.419 . S
C1156 C1154 1.415 . S
C1156 C1161 1.425 . S
C1156 C1163 1.409 . S
C1157 H1149 0.930 . S
C1157 C1155 1.419 . S
C1157 C1158 1.362 . S
C1158 H1150 0.930 . S
C1158 C1157 1.362 . S
C1158 C1161 1.409 . S
C1159 H1151 0.930 . S
C1159 C1160 1.355 . S
C1159 C1161 1.415 . S
C1160 C1159 1.355 . S
C1160 C1162 1.419 . S
C1161 C1156 1.425 . S
C1161 C1158 1.409 . S
C1161 C1159 1.415 . S
C1162 H1152 0.930 . S
C1162 C1160 1.419 . S
C1162 C1163 1.362 . S
C1163 H1153 0.930 . S
C1163 C1156 1.409 . S
C1163 C1162 1.362 . S
H1164 C1170 0.930 . S
H1165 C1173 0.930 . S
H1166 C1174 0.930 . S
H1167 C1175 0.930 . S
H1168 C1178 0.930 . S
H1169 C1179 0.930 . S
C1170 H1164 0.930 . S
C1170 C1171 1.355 . S
C1170 C1172 1.415 1_655 S
C1171 C1170 1.355 . S
C1171 C1173 1.419 . S
C1172 C1170 1.415 1_455 S
C1172 C1177 1.425 1_455 S
C1172 C1179 1.409 . S
C1173 H1165 0.930 . S
C1173 C1171 1.419 . S
C1173 C1174 1.362 . S
C1174 H1166 0.930 . S
C1174 C1173 1.362 . S
C1174 C1177 1.409 . S
C1175 H1167 0.930 . S
C1175 C1176 1.355 . S
C1175 C1177 1.415 1_455 S
C1176 C1175 1.355 . S
C1176 C1178 1.419 . S
C1177 C1172 1.425 1_655 S
C1177 C1174 1.409 . S
C1177 C1175 1.415 1_655 S
C1178 H1168 0.930 . S
C1178 C1176 1.419 . S
C1178 C1179 1.362 . S
C1179 H1169 0.930 . S
C1179 C1172 1.409 . S
C1179 C1178 1.362 . S
H1180 C1186 0.930 . S
H1181 C1189 0.930 . S
H1182 C1190 0.930 . S
H1183 C1191 0.930 . S
H1184 C1194 0.930 . S
H1185 C1195 0.930 . S
C1186 H1180 0.930 . S
C1186 C1187 1.355 . S
C1186 C1188 1.415 . S
C1187 C1186 1.355 . S
C1187 C1189 1.419 . S
C1188 C1186 1.415 . S
C1188 C1193 1.425 . S
C1188 C1195 1.409 . S
C1189 H1181 0.930 . S
C1189 C1187 1.419 . S
C1189 C1190 1.362 . S
C1190 H1182 0.930 . S
C1190 C1189 1.362 . S
C1190 C1193 1.409 . S
C1191 H1183 0.930 . S
C1191 C1192 1.355 . S
C1191 C1193 1.415 . S
C1192 C1191 1.355 . S
C1192 C1194 1.419 . S
C1193 C1188 1.425 . S
C1193 C1190 1.409 . S
C1193 C1191 1.415 . S
C1194 H1184 0.930 . S
C1194 C1192 1.419 . S
C1194 C1195 1.362 . S
C1195 H1185 0.930 . S
C1195 C1188 1.409 . S
C1195 C1194 1.362 . S
H1196 C1202 0.930 . S
H1197 C1205 0.930 . S
H1198 C1206 0.930 1_565 S
H1199 C1207 0.930 . S
H1200 C1210 0.930 . S
H1201 C1211 0.930 . S
C1202 H1196 0.930 . S
C1202 C1203 1.355 . S
C1202 C1204 1.415 . S
C1203 C1202 1.355 . S
C1203 C1205 1.419 . S
C1204 C1202 1.415 . S
C1204 C1209 1.425 1_545 S
C1204 C1211 1.409 . S
C1205 H1197 0.930 . S
C1205 C1203 1.419 . S
C1205 C1206 1.362 . S
C1206 H1198 0.930 1_545 S
C1206 C1205 1.362 . S
C1206 C1209 1.409 1_545 S
C1207 H1199 0.930 . S
C1207 C1208 1.355 . S
C1207 C1209 1.415 . S
C1208 C1207 1.355 . S
C1208 C1210 1.419 . S
C1209 C1204 1.425 1_565 S
C1209 C1206 1.409 1_565 S
C1209 C1207 1.415 . S
C1210 H1200 0.930 . S
C1210 C1208 1.419 . S
C1210 C1211 1.362 1_565 S
C1211 H1201 0.930 . S
C1211 C1204 1.409 . S
C1211 C1210 1.362 1_545 S
H1212 C1218 0.930 . S
H1213 C1221 0.930 . S
H1214 C1222 0.930 . S
H1215 C1223 0.930 . S
H1216 C1226 0.930 . S
H1217 C1227 0.930 . S
C1218 H1212 0.930 . S
C1218 C1219 1.355 . S
C1218 C1220 1.415 . S
C1219 C1218 1.355 . S
C1219 C1221 1.419 . S
C1220 C1218 1.415 . S
C1220 C1225 1.425 . S
C1220 C1227 1.409 . S
C1221 H1213 0.930 . S
C1221 C1219 1.419 . S
C1221 C1222 1.362 . S
C1222 H1214 0.930 . S
C1222 C1221 1.362 . S
C1222 C1225 1.409 . S
C1223 H1215 0.930 . S
C1223 C1224 1.355 . S
C1223 C1225 1.415 . S
C1224 C1223 1.355 . S
C1224 C1226 1.419 . S
C1225 C1220 1.425 . S
C1225 C1222 1.409 . S
C1225 C1223 1.415 . S
C1226 H1216 0.930 . S
C1226 C1224 1.419 . S
C1226 C1227 1.362 . S
C1227 H1217 0.930 . S
C1227 C1220 1.409 . S
C1227 C1226 1.362 . S
H1228 C1234 0.930 . S
H1229 C1237 0.930 . S
H1230 C1238 0.930 . S
H1231 C1239 0.930 . S
H1232 C1242 0.930 . S
H1233 C1243 0.930 . S
C1234 H1228 0.930 . S
C1234 C1235 1.355 . S
C1234 C1236 1.415 . S
C1235 C1234 1.355 . S
C1235 C1237 1.419 . S
C1236 C1234 1.415 . S
C1236 C1241 1.425 . S
C1236 C1243 1.409 . S
C1237 H1229 0.930 . S
C1237 C1235 1.419 . S
C1237 C1238 1.362 . S
C1238 H1230 0.930 . S
C1238 C1237 1.362 . S
C1238 C1241 1.409 . S
C1239 H1231 0.930 . S
C1239 C1240 1.355 . S
C1239 C1241 1.415 . S
C1240 C1239 1.355 . S
C1240 C1242 1.419 . S
C1241 C1236 1.425 . S
C1241 C1238 1.409 . S
C1241 C1239 1.415 . S
C1242 H1232 0.930 . S
C1242 C1240 1.419 . S
C1242 C1243 1.362 . S
C1243 H1233 0.930 . S
C1243 C1236 1.409 . S
C1243 C1242 1.362 . S
H1244 C1250 0.930 . S
H1245 C1253 0.930 . S
H1246 C1254 0.930 . S
H1247 C1255 0.930 . S
H1248 C1258 0.930 . S
H1249 C1259 0.930 . S
C1250 H1244 0.930 . S
C1250 C1251 1.355 . S
C1250 C1252 1.415 . S
C1251 C1250 1.355 . S
C1251 C1253 1.419 . S
C1252 C1250 1.415 . S
C1252 C1257 1.425 . S
C1252 C1259 1.409 . S
C1253 H1245 0.930 . S
C1253 C1251 1.419 . S
C1253 C1254 1.362 . S
C1254 H1246 0.930 . S
C1254 C1253 1.362 . S
C1254 C1257 1.409 . S
C1255 H1247 0.930 . S
C1255 C1256 1.355 . S
C1255 C1257 1.415 . S
C1256 C1255 1.355 . S
C1256 C1258 1.419 . S
C1257 C1252 1.425 . S
C1257 C1254 1.409 . S
C1257 C1255 1.415 . S
C1258 H1248 0.930 . S
C1258 C1256 1.419 . S
C1258 C1259 1.362 . S
C1259 H1249 0.930 . S
C1259 C1252 1.409 . S
C1259 C1258 1.362 . S
H1260 C1266 0.930 . S
H1261 C1269 0.930 . S
H1262 C1270 0.930 . S
H1263 C1271 0.930 . S
H1264 C1274 0.930 . S
H1265 C1275 0.930 . S
C1266 H1260 0.930 . S
C1266 C1267 1.355 . S
C1266 C1268 1.415 . S
C1267 C1266 1.355 . S
C1267 C1269 1.419 . S
C1268 C1266 1.415 . S
C1268 C1273 1.425 . S
C1268 C1275 1.409 . S
C1269 H1261 0.930 . S
C1269 C1267 1.419 . S
C1269 C1270 1.362 . S
C1270 H1262 0.930 . S
C1270 C1269 1.362 . S
C1270 C1273 1.409 . S
C1271 H1263 0.930 . S
C1271 C1272 1.355 . S
C1271 C1273 1.415 . S
C1272 C1271 1.355 . S
C1272 C1274 1.419 . S
C1273 C1268 1.425 . S
C1273 C1270 1.409 . S
C1273 C1271 1.415 . S
C1274 H1264 0.930 . S
C1274 C1272 1.419 . S
C1274 C1275 1.362 . S
C1275 H1265 0.930 . S
C1275 C1268 1.409 . S
C1275 C1274 1.362 . S
H1276 C1282 0.930 . S
H1277 C1285 0.930 . S
H1278 C1286 0.930 . S
H1279 C1287 0.930 . S
H1280 C1290 0.930 . S
H1281 C1291 0.930 . S
C1282 H1276 0.930 . S
C1282 C1283 1.355 . S
C1282 C1284 1.415 . S
C1283 C1282 1.355 . S
C1283 C1285 1.419 . S
C1284 C1282 1.415 . S
C1284 C1289 1.425 . S
C1284 C1291 1.409 . S
C1285 H1277 0.930 . S
C1285 C1283 1.419 . S
C1285 C1286 1.362 . S
C1286 H1278 0.930 . S
C1286 C1285 1.362 . S
C1286 C1289 1.409 . S
C1287 H1279 0.930 . S
C1287 C1288 1.355 . S
C1287 C1289 1.415 . S
C1288 C1287 1.355 . S
C1288 C1290 1.419 . S
C1289 C1284 1.425 . S
C1289 C1286 1.409 . S
C1289 C1287 1.415 . S
C1290 H1280 0.930 . S
C1290 C1288 1.419 . S
C1290 C1291 1.362 . S
C1291 H1281 0.930 . S
C1291 C1284 1.409 . S
C1291 C1290 1.362 . S
H1292 C1298 0.930 . S
H1293 C1301 0.930 . S
H1294 C1302 0.930 . S
H1295 C1303 0.930 . S
H1296 C1306 0.930 . S
H1297 C1307 0.930 . S
C1298 H1292 0.930 . S
C1298 C1299 1.355 . S
C1298 C1300 1.415 . S
C1299 C1298 1.355 . S
C1299 C1301 1.419 . S
C1300 C1298 1.415 . S
C1300 C1305 1.425 . S
C1300 C1307 1.409 . S
C1301 H1293 0.930 . S
C1301 C1299 1.419 . S
C1301 C1302 1.362 . S
C1302 H1294 0.930 . S
C1302 C1301 1.362 . S
C1302 C1305 1.409 . S
C1303 H1295 0.930 . S
C1303 C1304 1.355 . S
C1303 C1305 1.415 . S
C1304 C1303 1.355 . S
C1304 C1306 1.419 . S
C1305 C1300 1.425 . S
C1305 C1302 1.409 . S
C1305 C1303 1.415 . S
C1306 H1296 0.930 . S
C1306 C1304 1.419 . S
C1306 C1307 1.362 . S
C1307 H1297 0.930 . S
C1307 C1300 1.409 . S
C1307 C1306 1.362 . S
H1308 C1314 0.930 1_545 S
H1309 C1317 0.930 . S
H1310 C1318 0.930 . S
H1311 C1319 0.930 . S
H1312 C1322 0.930 . S
H1313 C1323 0.930 . S
C1314 H1308 0.930 1_565 S
C1314 C1315 1.355 1_565 S
C1314 C1316 1.415 . S
C1315 C1314 1.355 1_545 S
C1315 C1317 1.419 1_545 S
C1316 C1314 1.415 . S
C1316 C1321 1.425 . S
C1316 C1323 1.409 . S
C1317 H1309 0.930 . S
C1317 C1315 1.419 1_565 S
C1317 C1318 1.362 . S
C1318 H1310 0.930 . S
C1318 C1317 1.362 . S
C1318 C1321 1.409 . S
C1319 H1311 0.930 . S
C1319 C1320 1.355 . S
C1319 C1321 1.415 . S
C1320 C1319 1.355 . S
C1320 C1322 1.419 . S
C1321 C1316 1.425 . S
C1321 C1318 1.409 . S
C1321 C1319 1.415 . S
C1322 H1312 0.930 . S
C1322 C1320 1.419 . S
C1322 C1323 1.362 . S
C1323 H1313 0.930 . S
C1323 C1316 1.409 . S
C1323 C1322 1.362 . S
H1324 C1330 0.930 . S
H1325 C1333 0.930 1_655 S
H1326 C1334 0.930 . S
H1327 C1335 0.930 . S
H1328 C1338 0.930 . S
H1329 C1339 0.930 . S
C1330 H1324 0.930 . S
C1330 C1331 1.355 . S
C1330 C1332 1.415 . S
C1331 C1330 1.355 . S
C1331 C1333 1.419 . S
C1332 C1330 1.415 . S
C1332 C1337 1.425 . S
C1332 C1339 1.409 . S
C1333 H1325 0.930 1_455 S
C1333 C1331 1.419 . S
C1333 C1334 1.362 . S
C1334 H1326 0.930 . S
C1334 C1333 1.362 . S
C1334 C1337 1.409 . S
C1335 H1327 0.930 . S
C1335 C1336 1.355 . S
C1335 C1337 1.415 . S
C1336 C1335 1.355 . S
C1336 C1338 1.419 . S
C1337 C1332 1.425 . S
C1337 C1334 1.409 . S
C1337 C1335 1.415 . S
C1338 H1328 0.930 . S
C1338 C1336 1.419 . S
C1338 C1339 1.362 . S
C1339 H1329 0.930 . S
C1339 C1332 1.409 . S
C1339 C1338 1.362 . S
H1340 C1346 0.930 . S
H1341 C1349 0.930 . S
H1342 C1350 0.930 . S
H1343 C1351 0.930 . S
H1344 C1354 0.930 . S
H1345 C1355 0.930 . S
C1346 H1340 0.930 . S
C1346 C1347 1.355 . S
C1346 C1348 1.415 . S
C1347 C1346 1.355 . S
C1347 C1349 1.419 . S
C1348 C1346 1.415 . S
C1348 C1353 1.425 . S
C1348 C1355 1.409 . S
C1349 H1341 0.930 . S
C1349 C1347 1.419 . S
C1349 C1350 1.362 . S
C1350 H1342 0.930 . S
C1350 C1349 1.362 . S
C1350 C1353 1.409 . S
C1351 H1343 0.930 . S
C1351 C1352 1.355 . S
C1351 C1353 1.415 . S
C1352 C1351 1.355 . S
C1352 C1354 1.419 . S
C1353 C1348 1.425 . S
C1353 C1350 1.409 . S
C1353 C1351 1.415 . S
C1354 H1344 0.930 . S
C1354 C1352 1.419 . S
C1354 C1355 1.362 . S
C1355 H1345 0.930 . S
C1355 C1348 1.409 . S
C1355 C1354 1.362 . S
H1356 C1362 0.930 . S
H1357 C1365 0.930 . S
H1358 C1366 0.930 . S
H1359 C1367 0.930 . S
H1360 C1370 0.930 . S
H1361 C1371 0.930 . S
C1362 H1356 0.930 . S
C1362 C1363 1.355 . S
C1362 C1364 1.415 . S
C1363 C1362 1.355 . S
C1363 C1365 1.419 . S
C1364 C1362 1.415 . S
C1364 C1369 1.425 . S
C1364 C1371 1.409 . S
C1365 H1357 0.930 . S
C1365 C1363 1.419 . S
C1365 C1366 1.362 . S
C1366 H1358 0.930 . S
C1366 C1365 1.362 . S
C1366 C1369 1.409 . S
C1367 H1359 0.930 . S
C1367 C1368 1.355 . S
C1367 C1369 1.415 . S
C1368 C1367 1.355 . S
C1368 C1370 1.419 . S
C1369 C1364 1.425 . S
C1369 C1366 1.409 . S
C1369 C1367 1.415 . S
C1370 H1360 0.930 . S
C1370 C1368 1.419 . S
C1370 C1371 1.362 . S
C1371 H1361 0.930 . S
C1371 C1364 1.409 . S
C1371 C1370 1.362 . S
H1372 C1378 0.930 . S
H1373 C1381 0.930 . S
H1374 C1382 0.930 . S
H1375 C1383 0.930 . S
H1376 C1386 0.930 . S
H1377 C1387 0.930 . S
C1378 H1372 0.930 . S
C1378 C1379 1.355 . S
C1378 C1380 1.415 . S
C1379 C1378 1.355 . S
C1379 C1381 1.419 . S
C1380 C1378 1.415 . S
C1380 C1385 1.425 . S
C1380 C1387 1.409 . S
C1381 H1373 0.930 . S
C1381 C1379 1.419 . S
C1381 C1382 1.362 . S
C1382 H1374 0.930 . S
C1382 C1381 1.362 . S
C1382 C1385 1.409 . S
C1383 H1375 0.930 . S
C1383 C1384 1.355 . S
C1383 C1385 1.415 . S
C1384 C1383 1.355 . S
C1384 C1386 1.419 . S
C1385 C1380 1.425 . S
C1385 C1382 1.409 . S
C1385 C1383 1.415 . S
C1386 H1376 0.930 . S
C1386 C1384 1.419 . S
C1386 C1387 1.362 . S
C1387 H1377 0.930 . S
C1387 C1380 1.409 . S
C1387 C1386 1.362 . S
H1388 C1394 0.930 . S
H1389 C1397 0.930 . S
H1390 C1398 0.930 . S
H1391 C1399 0.930 . S
H1392 C1402 0.930 . S
H1393 C1403 0.930 . S
C1394 H1388 0.930 . S
C1394 C1395 1.355 . S
C1394 C1396 1.415 . S
C1395 C1394 1.355 . S
C1395 C1397 1.419 . S
C1396 C1394 1.415 . S
C1396 C1401 1.425 . S
C1396 C1403 1.409 . S
C1397 H1389 0.930 . S
C1397 C1395 1.419 . S
C1397 C1398 1.362 . S
C1398 H1390 0.930 . S
C1398 C1397 1.362 . S
C1398 C1401 1.409 . S
C1399 H1391 0.930 . S
C1399 C1400 1.355 . S
C1399 C1401 1.415 . S
C1400 C1399 1.355 . S
C1400 C1402 1.419 . S
C1401 C1396 1.425 . S
C1401 C1398 1.409 . S
C1401 C1399 1.415 . S
C1402 H1392 0.930 . S
C1402 C1400 1.419 . S
C1402 C1403 1.362 . S
C1403 H1393 0.930 . S
C1403 C1396 1.409 . S
C1403 C1402 1.362 . S
H1404 C1410 0.930 . S
H1405 C1413 0.930 . S
H1406 C1414 0.930 . S
H1407 C1415 0.930 . S
H1408 C1418 0.930 . S
H1409 C1419 0.930 . S
C1410 H1404 0.930 . S
C1410 C1411 1.355 . S
C1410 C1412 1.402 1_565 S
C1411 C1410 1.355 . S
C1411 C1413 1.419 . S
C1412 C1410 1.402 1_545 S
C1412 C1417 1.396 1_545 S
C1412 C1419 1.442 . S
C1413 H1405 0.930 . S
C1413 C1411 1.419 . S
C1413 C1414 1.362 . S
C1414 H1406 0.930 . S
C1414 C1413 1.362 . S
C1414 C1417 1.426 . S
C1415 H1407 0.930 . S
C1415 C1416 1.355 . S
C1415 C1417 1.408 1_545 S
C1416 C1415 1.355 . S
C1416 C1418 1.419 . S
C1417 C1412 1.396 1_565 S
C1417 C1414 1.426 . S
C1417 C1415 1.408 1_565 S
C1418 H1408 0.930 . S
C1418 C1416 1.419 . S
C1418 C1419 1.362 . S
C1419 H1409 0.930 . S
C1419 C1412 1.442 . S
C1419 C1418 1.362 . S
H1420 C1426 0.930 . S
H1421 C1429 0.930 . S
H1422 C1430 0.930 1_655 S
H1423 C1431 0.930 . S
H1424 C1434 0.930 . S
H1425 C1435 0.930 1_455 S
C1426 H1420 0.930 . S
C1426 C1427 1.355 . S
C1426 C1428 1.415 . S
C1427 C1426 1.355 . S
C1427 C1429 1.419 . S
C1428 C1426 1.415 . S
C1428 C1433 1.425 1_455 S
C1428 C1435 1.409 1_455 S
C1429 H1421 0.930 . S
C1429 C1427 1.419 . S
C1429 C1430 1.362 . S
C1430 H1422 0.930 1_455 S
C1430 C1429 1.362 . S
C1430 C1433 1.409 1_455 S
C1431 H1423 0.930 . S
C1431 C1432 1.355 . S
C1431 C1433 1.415 . S
C1432 C1431 1.355 . S
C1432 C1434 1.419 . S
C1433 C1428 1.425 1_655 S
C1433 C1430 1.409 1_655 S
C1433 C1431 1.415 . S
C1434 H1424 0.930 . S
C1434 C1432 1.419 . S
C1434 C1435 1.362 . S
C1435 H1425 0.930 1_655 S
C1435 C1428 1.409 1_655 S
C1435 C1434 1.362 . S
H1436 C1442 0.930 . S
H1437 C1445 0.930 . S
H1438 C1446 0.930 . S
H1439 C1447 0.930 . S
H1440 C1450 0.930 . S
H1441 C1451 0.930 . S
C1442 H1436 0.930 . S
C1442 C1443 1.355 . S
C1442 C1444 1.415 . S
C1443 C1442 1.355 . S
C1443 C1445 1.419 . S
C1444 C1442 1.415 . S
C1444 C1449 1.425 . S
C1444 C1451 1.409 . S
C1445 H1437 0.930 . S
C1445 C1443 1.419 . S
C1445 C1446 1.362 . S
C1446 H1438 0.930 . S
C1446 C1445 1.362 . S
C1446 C1449 1.409 . S
C1447 H1439 0.930 . S
C1447 C1448 1.355 . S
C1447 C1449 1.415 . S
C1448 C1447 1.355 . S
C1448 C1450 1.419 . S
C1449 C1444 1.425 . S
C1449 C1446 1.409 . S
C1449 C1447 1.415 . S
C1450 H1440 0.930 . S
C1450 C1448 1.419 . S
C1450 C1451 1.362 . S
C1451 H1441 0.930 . S
C1451 C1444 1.409 . S
C1451 C1450 1.362 . S
H1452 C1458 0.930 . S
H1453 C1461 0.930 1_455 S
H1454 C1462 0.930 . S
H1455 C1463 0.930 . S
H1456 C1466 0.930 . S
H1457 C1467 0.930 . S
C1458 H1452 0.930 . S
C1458 C1459 1.321 1_655 S
C1458 C1460 1.415 . S
C1459 C1458 1.321 1_455 S
C1459 C1461 1.433 1_455 S
C1460 C1458 1.415 . S
C1460 C1465 1.425 . S
C1460 C1467 1.409 . S
C1461 H1453 0.930 1_655 S
C1461 C1459 1.433 1_655 S
C1461 C1462 1.362 . S
C1462 H1454 0.930 . S
C1462 C1461 1.362 . S
C1462 C1465 1.409 . S
C1463 H1455 0.930 . S
C1463 C1464 1.355 . S
C1463 C1465 1.415 . S
C1464 C1463 1.355 . S
C1464 C1466 1.419 . S
C1465 C1460 1.425 . S
C1465 C1462 1.409 . S
C1465 C1463 1.415 . S
C1466 H1456 0.930 . S
C1466 C1464 1.419 . S
C1466 C1467 1.362 . S
C1467 H1457 0.930 . S
C1467 C1460 1.409 . S
C1467 C1466 1.362 . S
H1468 C1474 0.930 . S
H1469 C1477 0.930 . S
H1470 C1478 0.930 . S
H1471 C1479 0.930 . S
H1472 C1482 0.930 . S
H1473 C1483 0.930 . S
C1474 H1468 0.930 . S
C1474 C1475 1.355 . S
C1474 C1476 1.415 . S
C1475 C1474 1.355 . S
C1475 C1477 1.419 . S
C1476 C1474 1.415 . S
C1476 C1481 1.425 . S
C1476 C1483 1.409 . S
C1477 H1469 0.930 . S
C1477 C1475 1.419 . S
C1477 C1478 1.362 . S
C1478 H1470 0.930 . S
C1478 C1477 1.362 . S
C1478 C1481 1.409 . S
C1479 H1471 0.930 . S
C1479 C1480 1.355 . S
C1479 C1481 1.415 . S
C1480 C1479 1.355 . S
C1480 C1482 1.419 . S
C1481 C1476 1.425 . S
C1481 C1478 1.409 . S
C1481 C1479 1.415 . S
C1482 H1472 0.930 . S
C1482 C1480 1.419 . S
C1482 C1483 1.362 . S
C1483 H1473 0.930 . S
C1483 C1476 1.409 . S
C1483 C1482 1.362 . S
H1484 C1490 0.930 . S
H1485 C1493 0.930 . S
H1486 C1494 0.930 . S
H1487 C1495 0.930 . S
H1488 C1498 0.930 . S
H1489 C1499 0.930 . S
C1490 H1484 0.930 . S
C1490 C1491 1.345 1_545 S
C1490 C1492 1.415 . S
C1491 C1490 1.345 1_565 S
C1491 C1493 1.405 1_565 S
C1492 C1490 1.415 . S
C1492 C1497 1.425 . S
C1492 C1499 1.409 . S
C1493 H1485 0.930 . S
C1493 C1491 1.405 1_545 S
C1493 C1494 1.362 . S
C1494 H1486 0.930 . S
C1494 C1493 1.362 . S
C1494 C1497 1.409 . S
C1495 H1487 0.930 . S
C1495 C1496 1.355 . S
C1495 C1497 1.415 . S
C1496 C1495 1.355 . S
C1496 C1498 1.419 . S
C1497 C1492 1.425 . S
C1497 C1494 1.409 . S
C1497 C1495 1.415 . S
C1498 H1488 0.930 . S
C1498 C1496 1.419 . S
C1498 C1499 1.362 . S
C1499 H1489 0.930 . S
C1499 C1492 1.409 . S
C1499 C1498 1.362 . S
H1500 C1506 0.930 . S
H1501 C1509 0.930 . S
H1502 C1510 0.930 . S
H1503 C1511 0.930 . S
H1504 C1514 0.930 . S
H1505 C1515 0.930 . S
C1506 H1500 0.930 . S
C1506 C1507 1.355 . S
C1506 C1508 1.415 . S
C1507 C1506 1.355 . S
C1507 C1509 1.419 . S
C1508 C1506 1.415 . S
C1508 C1513 1.425 . S
C1508 C1515 1.409 . S
C1509 H1501 0.930 . S
C1509 C1507 1.419 . S
C1509 C1510 1.362 . S
C1510 H1502 0.930 . S
C1510 C1509 1.362 . S
C1510 C1513 1.409 . S
C1511 H1503 0.930 . S
C1511 C1512 1.355 . S
C1511 C1513 1.415 . S
C1512 C1511 1.355 . S
C1512 C1514 1.419 . S
C1513 C1508 1.425 . S
C1513 C1510 1.409 . S
C1513 C1511 1.415 . S
C1514 H1504 0.930 . S
C1514 C1512 1.419 . S
C1514 C1515 1.362 . S
C1515 H1505 0.930 . S
C1515 C1508 1.409 . S
C1515 C1514 1.362 . S
H1516 C1522 0.930 . S
H1517 C1525 0.930 . S
H1518 C1526 0.930 . S
H1519 C1527 0.930 . S
H1520 C1530 0.930 . S
H1521 C1531 0.930 . S
C1522 H1516 0.930 . S
C1522 C1523 1.355 . S
C1522 C1524 1.415 . S
C1523 C1522 1.355 . S
C1523 C1525 1.419 . S
C1524 C1522 1.415 . S
C1524 C1529 1.425 . S
C1524 C1531 1.409 . S
C1525 H1517 0.930 . S
C1525 C1523 1.419 . S
C1525 C1526 1.362 . S
C1526 H1518 0.930 . S
C1526 C1525 1.362 . S
C1526 C1529 1.409 . S
C1527 H1519 0.930 . S
C1527 C1528 1.355 . S
C1527 C1529 1.415 . S
C1528 C1527 1.355 . S
C1528 C1530 1.419 . S
C1529 C1524 1.425 . S
C1529 C1526 1.409 . S
C1529 C1527 1.415 . S
C1530 H1520 0.930 . S
C1530 C1528 1.419 . S
C1530 C1531 1.362 . S
C1531 H1521 0.930 . S
C1531 C1524 1.409 . S
C1531 C1530 1.362 . S
H1532 C1538 0.930 . S
H1533 C1541 0.930 . S
H1534 C1542 0.930 . S
H1535 C1543 0.930 . S
H1536 C1546 0.930 . S
H1537 C1547 0.930 . S
C1538 H1532 0.930 . S
C1538 C1539 1.355 . S
C1538 C1540 1.415 . S
C1539 C1538 1.355 . S
C1539 C1541 1.419 . S
C1540 C1538 1.415 . S
C1540 C1545 1.425 . S
C1540 C1547 1.409 . S
C1541 H1533 0.930 . S
C1541 C1539 1.419 . S
C1541 C1542 1.362 . S
C1542 H1534 0.930 . S
C1542 C1541 1.362 . S
C1542 C1545 1.409 . S
C1543 H1535 0.930 . S
C1543 C1544 1.355 . S
C1543 C1545 1.415 . S
C1544 C1543 1.355 . S
C1544 C1546 1.419 . S
C1545 C1540 1.425 . S
C1545 C1542 1.409 . S
C1545 C1543 1.415 . S
C1546 H1536 0.930 . S
C1546 C1544 1.419 . S
C1546 C1547 1.362 . S
C1547 H1537 0.930 . S
C1547 C1540 1.409 . S
C1547 C1546 1.362 . S
H1548 C1554 0.930 . S
H1549 C1557 0.930 . S
H1550 C1558 0.930 . S
H1551 C1559 0.930 . S
H1552 C1562 0.930 . S
H1553 C1563 0.930 . S
C1554 H1548 0.930 . S
C1554 C1555 1.355 . S
C1554 C1556 1.415 . S
C1555 C1554 1.355 . S
C1555 C1557 1.419 . S
C1556 C1554 1.415 . S
C1556 C1561 1.425 . S
C1556 C1563 1.409 . S
C1557 H1549 0.930 . S
C1557 C1555 1.419 . S
C1557 C1558 1.362 . S
C1558 H1550 0.930 . S
C1558 C1557 1.362 . S
C1558 C1561 1.409 . S
C1559 H1551 0.930 . S
C1559 C1560 1.355 . S
C1559 C1561 1.415 . S
C1560 C1559 1.355 . S
C1560 C1562 1.419 . S
C1561 C1556 1.425 . S
C1561 C1558 1.409 . S
C1561 C1559 1.415 . S
C1562 H1552 0.930 . S
C1562 C1560 1.419 . S
C1562 C1563 1.362 . S
C1563 H1553 0.930 . S
C1563 C1556 1.409 . S
C1563 C1562 1.362 . S
H1564 C1570 0.930 . S
H1565 C1573 0.930 . S
H1566 C1574 0.930 . S
H1567 C1575 0.930 . S
H1568 C1578 0.930 . S
H1569 C1579 0.930 . S
C1570 H1564 0.930 . S
C1570 C1571 1.355 . S
C1570 C1572 1.415 . S
C1571 C1570 1.355 . S
C1571 C1573 1.419 . S
C1572 C1570 1.415 . S
C1572 C1577 1.425 . S
C1572 C1579 1.409 . S
C1573 H1565 0.930 . S
C1573 C1571 1.419 . S
C1573 C1574 1.362 . S
C1574 H1566 0.930 . S
C1574 C1573 1.362 . S
C1574 C1577 1.409 . S
C1575 H1567 0.930 . S
C1575 C1576 1.355 . S
C1575 C1577 1.415 . S
C1576 C1575 1.355 . S
C1576 C1578 1.419 . S
C1577 C1572 1.425 . S
C1577 C1574 1.409 . S
C1577 C1575 1.415 . S
C1578 H1568 0.930 . S
C1578 C1576 1.419 . S
C1578 C1579 1.362 . S
C1579 H1569 0.930 . S
C1579 C1572 1.409 . S
C1579 C1578 1.362 . S
H1580 C1586 0.930 . S
H1581 C1589 0.930 . S
H1582 C1590 0.930 . S
H1583 C1591 0.930 . S
H1584 C1594 0.930 . S
H1585 C1595 0.930 . S
C1586 H1580 0.930 . S
C1586 C1587 1.355 . S
C1586 C1588 1.415 . S
C1587 C1586 1.355 . S
C1587 C1589 1.419 . S
C1588 C1586 1.415 . S
C1588 C1593 1.425 . S
C1588 C1595 1.409 . S
C1589 H1581 0.930 . S
C1589 C1587 1.419 . S
C1589 C1590 1.362 . S
C1590 H1582 0.930 . S
C1590 C1589 1.362 . S
C1590 C1593 1.409 . S
C1591 H1583 0.930 . S
C1591 C1592 1.355 . S
C1591 C1593 1.415 . S
C1592 C1591 1.355 . S
C1592 C1594 1.419 . S
C1593 C1588 1.425 . S
C1593 C1590 1.409 . S
C1593 C1591 1.415 . S
C1594 H1584 0.930 . S
C1594 C1592 1.419 . S
C1594 C1595 1.362 . S
C1595 H1585 0.930 . S
C1595 C1588 1.409 . S
C1595 C1594 1.362 . S
H1596 C1602 0.930 . S
H1597 C1605 0.930 . S
H1598 C1606 0.930 . S
H1599 C1607 0.930 . S
H1600 C1610 0.930 . S
H1601 C1611 0.930 . S
C1602 H1596 0.930 . S
C1602 C1603 1.355 . S
C1602 C1604 1.415 . S
C1603 C1602 1.355 . S
C1603 C1605 1.419 . S
C1604 C1602 1.415 . S
C1604 C1609 1.425 . S
C1604 C1611 1.409 . S
C1605 H1597 0.930 . S
C1605 C1603 1.419 . S
C1605 C1606 1.362 . S
C1606 H1598 0.930 . S
C1606 C1605 1.362 . S
C1606 C1609 1.409 . S
C1607 H1599 0.930 . S
C1607 C1608 1.355 . S
C1607 C1609 1.415 . S
C1608 C1607 1.355 . S
C1608 C1610 1.419 . S
C1609 C1604 1.425 . S
C1609 C1606 1.409 . S
C1609 C1607 1.415 . S
C1610 H1600 0.930 . S
C1610 C1608 1.419 . S
C1610 C1611 1.362 . S
C1611 H1601 0.930 . S
C1611 C1604 1.409 . S
C1611 C1610 1.362 . S
H1612 C1618 0.930 . S
H1613 C1621 0.930 . S
H1614 C1622 0.930 . S
H1615 C1623 0.930 . S
H1616 C1626 0.930 . S
H1617 C1627 0.930 . S
C1618 H1612 0.930 . S
C1618 C1619 1.355 . S
C1618 C1620 1.415 . S
C1619 C1618 1.355 . S
C1619 C1621 1.419 . S
C1620 C1618 1.415 . S
C1620 C1625 1.425 . S
C1620 C1627 1.409 . S
C1621 H1613 0.930 . S
C1621 C1619 1.419 . S
C1621 C1622 1.362 . S
C1622 H1614 0.930 . S
C1622 C1621 1.362 . S
C1622 C1625 1.409 . S
C1623 H1615 0.930 . S
C1623 C1624 1.355 . S
C1623 C1625 1.415 . S
C1624 C1623 1.355 . S
C1624 C1626 1.419 . S
C1625 C1620 1.425 . S
C1625 C1622 1.409 . S
C1625 C1623 1.415 . S
C1626 H1616 0.930 . S
C1626 C1624 1.419 . S
C1626 C1627 1.362 . S
C1627 H1617 0.930 . S
C1627 C1620 1.409 . S
C1627 C1626 1.362 . S
H1628 C1634 0.930 . S
H1629 C1637 0.930 . S
H1630 C1638 0.930 . S
H1631 C1639 0.930 . S
H1632 C1642 0.930 . S
H1633 C1643 0.930 . S
C1634 H1628 0.930 . S
C1634 C1635 1.355 . S
C1634 C1636 1.415 . S
C1635 C1634 1.355 . S
C1635 C1637 1.419 . S
C1636 C1634 1.415 . S
C1636 C1641 1.425 . S
C1636 C1643 1.409 . S
C1637 H1629 0.930 . S
C1637 C1635 1.419 . S
C1637 C1638 1.362 . S
C1638 H1630 0.930 . S
C1638 C1637 1.362 . S
C1638 C1641 1.409 . S
C1639 H1631 0.930 . S
C1639 C1640 1.355 . S
C1639 C1641 1.415 . S
C1640 C1639 1.355 . S
C1640 C1642 1.419 . S
C1641 C1636 1.425 . S
C1641 C1638 1.409 . S
C1641 C1639 1.415 . S
C1642 H1632 0.930 . S
C1642 C1640 1.419 . S
C1642 C1643 1.362 . S
C1643 H1633 0.930 . S
C1643 C1636 1.409 . S
C1643 C1642 1.362 . S
H1644 C1650 0.930 . S
H1645 C1653 0.930 . S
H1646 C1654 0.930 . S
H1647 C1655 0.930 . S
H1648 C1658 0.930 . S
H1649 C1659 0.930 . S
C1650 H1644 0.930 . S
C1650 C1651 1.355 . S
C1650 C1652 1.415 . S
C1651 C1650 1.355 . S
C1651 C1653 1.419 . S
C1652 C1650 1.415 . S
C1652 C1657 1.425 . S
C1652 C1659 1.409 . S
C1653 H1645 0.930 . S
C1653 C1651 1.419 . S
C1653 C1654 1.362 . S
C1654 H1646 0.930 . S
C1654 C1653 1.362 . S
C1654 C1657 1.409 . S
C1655 H1647 0.930 . S
C1655 C1656 1.355 . S
C1655 C1657 1.415 . S
C1656 C1655 1.355 . S
C1656 C1658 1.419 . S
C1657 C1652 1.425 . S
C1657 C1654 1.409 . S
C1657 C1655 1.415 . S
C1658 H1648 0.930 . S
C1658 C1656 1.419 . S
C1658 C1659 1.362 . S
C1659 H1649 0.930 . S
C1659 C1652 1.409 . S
C1659 C1658 1.362 . S
H1660 C1666 0.930 . S
H1661 C1669 0.930 . S
H1662 C1670 0.930 . S
H1663 C1671 0.930 . S
H1664 C1674 0.930 . S
H1665 C1675 0.930 . S
C1666 H1660 0.930 . S
C1666 C1667 1.355 . S
C1666 C1668 1.415 . S
C1667 C1666 1.355 . S
C1667 C1669 1.419 . S
C1668 C1666 1.415 . S
C1668 C1673 1.425 . S
C1668 C1675 1.409 . S
C1669 H1661 0.930 . S
C1669 C1667 1.419 . S
C1669 C1670 1.362 . S
C1670 H1662 0.930 . S
C1670 C1669 1.362 . S
C1670 C1673 1.409 . S
C1671 H1663 0.930 . S
C1671 C1672 1.355 . S
C1671 C1673 1.415 . S
C1672 C1671 1.355 . S
C1672 C1674 1.419 . S
C1673 C1668 1.425 . S
C1673 C1670 1.409 . S
C1673 C1671 1.415 . S
C1674 H1664 0.930 . S
C1674 C1672 1.419 . S
C1674 C1675 1.362 . S
C1675 H1665 0.930 . S
C1675 C1668 1.409 . S
C1675 C1674 1.362 . S
H1676 C1682 0.930 . S
H1677 C1685 0.930 . S
H1678 C1686 0.930 . S
H1679 C1687 0.930 . S
H1680 C1690 0.930 . S
H1681 C1691 0.930 . S
C1682 H1676 0.930 . S
C1682 C1683 1.355 . S
C1682 C1684 1.415 . S
C1683 C1682 1.355 . S
C1683 C1685 1.419 . S
C1684 C1682 1.415 . S
C1684 C1689 1.425 . S
C1684 C1691 1.409 . S
C1685 H1677 0.930 . S
C1685 C1683 1.419 . S
C1685 C1686 1.362 . S
C1686 H1678 0.930 . S
C1686 C1685 1.362 . S
C1686 C1689 1.409 . S
C1687 H1679 0.930 . S
C1687 C1688 1.355 . S
C1687 C1689 1.415 . S
C1688 C1687 1.355 . S
C1688 C1690 1.419 . S
C1689 C1684 1.425 . S
C1689 C1686 1.409 . S
C1689 C1687 1.415 . S
C1690 H1680 0.930 . S
C1690 C1688 1.419 . S
C1690 C1691 1.362 . S
C1691 H1681 0.930 . S
C1691 C1684 1.409 . S
C1691 C1690 1.362 . S
H1692 C1698 0.930 . S
H1693 C1701 0.930 . S
H1694 C1702 0.930 . S
H1695 C1703 0.930 . S
H1696 C1706 0.930 . S
H1697 C1707 0.930 . S
C1698 H1692 0.930 . S
C1698 C1699 1.355 . S
C1698 C1700 1.415 . S
C1699 C1698 1.355 . S
C1699 C1701 1.419 . S
C1700 C1698 1.415 . S
C1700 C1705 1.425 . S
C1700 C1707 1.409 . S
C1701 H1693 0.930 . S
C1701 C1699 1.419 . S
C1701 C1702 1.362 . S
C1702 H1694 0.930 . S
C1702 C1701 1.362 . S
C1702 C1705 1.409 . S
C1703 H1695 0.930 . S
C1703 C1704 1.355 . S
C1703 C1705 1.415 . S
C1704 C1703 1.355 . S
C1704 C1706 1.419 . S
C1705 C1700 1.425 . S
C1705 C1702 1.409 . S
C1705 C1703 1.415 . S
C1706 H1696 0.930 . S
C1706 C1704 1.419 . S
C1706 C1707 1.362 . S
C1707 H1697 0.930 . S
C1707 C1700 1.409 . S
C1707 C1706 1.362 . S
H1708 C1714 0.930 . S
H1709 C1717 0.930 . S
H1710 C1718 0.930 . S
H1711 C1719 0.930 . S
H1712 C1722 0.930 . S
H1713 C1723 0.930 . S
C1714 H1708 0.930 . S
C1714 C1715 1.355 . S
C1714 C1716 1.415 . S
C1715 C1714 1.355 . S
C1715 C1717 1.419 . S
C1716 C1714 1.415 . S
C1716 C1721 1.425 . S
C1716 C1723 1.409 . S
C1717 H1709 0.930 . S
C1717 C1715 1.419 . S
C1717 C1718 1.362 . S
C1718 H1710 0.930 . S
C1718 C1717 1.362 . S
C1718 C1721 1.409 . S
C1719 H1711 0.930 . S
C1719 C1720 1.355 . S
C1719 C1721 1.415 . S
C1720 C1719 1.355 . S
C1720 C1722 1.419 . S
C1721 C1716 1.425 . S
C1721 C1718 1.409 . S
C1721 C1719 1.415 . S
C1722 H1712 0.930 . S
C1722 C1720 1.419 . S
C1722 C1723 1.362 . S
C1723 H1713 0.930 . S
C1723 C1716 1.409 . S
C1723 C1722 1.362 . S
H1724 C1730 0.930 . S
H1725 C1733 0.930 . S
H1726 C1734 0.930 . S
H1727 C1735 0.930 . S
H1728 C1738 0.930 . S
H1729 C1739 0.930 . S
C1730 H1724 0.930 . S
C1730 C1731 1.355 . S
C1730 C1732 1.415 . S
C1731 C1730 1.355 . S
C1731 C1733 1.419 . S
C1732 C1730 1.415 . S
C1732 C1737 1.425 . S
C1732 C1739 1.409 . S
C1733 H1725 0.930 . S
C1733 C1731 1.419 . S
C1733 C1734 1.362 . S
C1734 H1726 0.930 . S
C1734 C1733 1.362 . S
C1734 C1737 1.409 . S
C1735 H1727 0.930 . S
C1735 C1736 1.355 . S
C1735 C1737 1.415 . S
C1736 C1735 1.355 . S
C1736 C1738 1.419 . S
C1737 C1732 1.425 . S
C1737 C1734 1.409 . S
C1737 C1735 1.415 . S
C1738 H1728 0.930 . S
C1738 C1736 1.419 . S
C1738 C1739 1.362 . S
C1739 H1729 0.930 . S
C1739 C1732 1.409 . S
C1739 C1738 1.362 . S
H1740 C1746 0.930 . S
H1741 C1749 0.930 . S
H1742 C1750 0.930 . S
H1743 C1751 0.930 . S
H1744 C1754 0.930 . S
H1745 C1755 0.930 . S
C1746 H1740 0.930 . S
C1746 C1747 1.355 . S
C1746 C1748 1.415 . S
C1747 C1746 1.355 . S
C1747 C1749 1.419 . S
C1748 C1746 1.415 . S
C1748 C1753 1.425 . S
C1748 C1755 1.409 . S
C1749 H1741 0.930 . S
C1749 C1747 1.419 . S
C1749 C1750 1.362 . S
C1750 H1742 0.930 . S
C1750 C1749 1.362 . S
C1750 C1753 1.409 . S
C1751 H1743 0.930 . S
C1751 C1752 1.355 . S
C1751 C1753 1.415 . S
C1752 C1751 1.355 . S
C1752 C1754 1.419 . S
C1753 C1748 1.425 . S
C1753 C1750 1.409 . S
C1753 C1751 1.415 . S
C1754 H1744 0.930 . S
C1754 C1752 1.419 . S
C1754 C1755 1.362 . S
C1755 H1745 0.930 . S
C1755 C1748 1.409 . S
C1755 C1754 1.362 . S
H1756 C1762 0.930 . S
H1757 C1765 0.930 . S
H1758 C1766 0.930 . S
H1759 C1767 0.930 . S
H1760 C1770 0.930 . S
H1761 C1771 0.930 . S
C1762 H1756 0.930 . S
C1762 C1763 1.355 . S
C1762 C1764 1.415 . S
C1763 C1762 1.355 . S
C1763 C1765 1.419 . S
C1764 C1762 1.415 . S
C1764 C1769 1.425 . S
C1764 C1771 1.409 . S
C1765 H1757 0.930 . S
C1765 C1763 1.419 . S
C1765 C1766 1.362 . S
C1766 H1758 0.930 . S
C1766 C1765 1.362 . S
C1766 C1769 1.409 . S
C1767 H1759 0.930 . S
C1767 C1768 1.355 . S
C1767 C1769 1.415 . S
C1768 C1767 1.355 . S
C1768 C1770 1.419 . S
C1769 C1764 1.425 . S
C1769 C1766 1.409 . S
C1769 C1767 1.415 . S
C1770 H1760 0.930 . S
C1770 C1768 1.419 . S
C1770 C1771 1.362 . S
C1771 H1761 0.930 . S
C1771 C1764 1.409 . S
C1771 C1770 1.362 . S
H1772 C1778 0.930 . S
H1773 C1781 0.930 . S
H1774 C1782 0.930 . S
H1775 C1783 0.930 . S
H1776 C1786 0.930 . S
H1777 C1787 0.930 . S
C1778 H1772 0.930 . S
C1778 C1779 1.355 . S
C1778 C1780 1.415 . S
C1779 C1778 1.355 . S
C1779 C1781 1.419 . S
C1780 C1778 1.415 . S
C1780 C1785 1.425 . S
C1780 C1787 1.409 . S
C1781 H1773 0.930 . S
C1781 C1779 1.419 . S
C1781 C1782 1.362 . S
C1782 H1774 0.930 . S
C1782 C1781 1.362 . S
C1782 C1785 1.409 . S
C1783 H1775 0.930 . S
C1783 C1784 1.355 . S
C1783 C1785 1.415 . S
C1784 C1783 1.355 . S
C1784 C1786 1.419 . S
C1785 C1780 1.425 . S
C1785 C1782 1.409 . S
C1785 C1783 1.415 . S
C1786 H1776 0.930 . S
C1786 C1784 1.419 . S
C1786 C1787 1.362 . S
C1787 H1777 0.930 . S
C1787 C1780 1.409 . S
C1787 C1786 1.362 . S
H1788 C1794 0.930 . S
H1789 C1797 0.930 . S
H1790 C1798 0.930 . S
H1791 C1799 0.930 . S
H1792 C1802 0.930 . S
H1793 C1803 0.930 . S
C1794 H1788 0.930 . S
C1794 C1795 1.355 . S
C1794 C1796 1.415 . S
C1795 C1794 1.355 . S
C1795 C1797 1.419 . S
C1796 C1794 1.415 . S
C1796 C1801 1.425 . S
C1796 C1803 1.409 . S
C1797 H1789 0.930 . S
C1797 C1795 1.419 . S
C1797 C1798 1.362 . S
C1798 H1790 0.930 . S
C1798 C1797 1.362 . S
C1798 C1801 1.409 . S
C1799 H1791 0.930 . S
C1799 C1800 1.355 . S
C1799 C1801 1.415 . S
C1800 C1799 1.355 . S
C1800 C1802 1.419 . S
C1801 C1796 1.425 . S
C1801 C1798 1.409 . S
C1801 C1799 1.415 . S
C1802 H1792 0.930 . S
C1802 C1800 1.419 . S
C1802 C1803 1.362 . S
C1803 H1793 0.930 . S
C1803 C1796 1.409 . S
C1803 C1802 1.362 . S
H1804 C1810 0.930 . S
H1805 C1813 0.930 . S
H1806 C1814 0.930 . S
H1807 C1815 0.930 . S
H1808 C1818 0.930 . S
H1809 C1819 0.930 . S
C1810 H1804 0.930 . S
C1810 C1811 1.355 . S
C1810 C1812 1.415 . S
C1811 C1810 1.355 . S
C1811 C1813 1.419 . S
C1812 C1810 1.415 . S
C1812 C1817 1.425 . S
C1812 C1819 1.409 . S
C1813 H1805 0.930 . S
C1813 C1811 1.419 . S
C1813 C1814 1.362 . S
C1814 H1806 0.930 . S
C1814 C1813 1.362 . S
C1814 C1817 1.409 . S
C1815 H1807 0.930 . S
C1815 C1816 1.355 . S
C1815 C1817 1.415 . S
C1816 C1815 1.355 . S
C1816 C1818 1.419 . S
C1817 C1812 1.425 . S
C1817 C1814 1.409 . S
C1817 C1815 1.415 . S
C1818 H1808 0.930 . S
C1818 C1816 1.419 . S
C1818 C1819 1.362 . S
C1819 H1809 0.930 . S
C1819 C1812 1.409 . S
C1819 C1818 1.362 . S
H1820 C1826 0.930 . S
H1821 C1829 0.930 . S
H1822 C1830 0.930 . S
H1823 C1831 0.930 . S
H1824 C1834 0.930 . S
H1825 C1835 0.930 . S
C1826 H1820 0.930 . S
C1826 C1827 1.355 . S
C1826 C1828 1.415 . S
C1827 C1826 1.355 . S
C1827 C1829 1.419 . S
C1828 C1826 1.415 . S
C1828 C1833 1.425 . S
C1828 C1835 1.409 . S
C1829 H1821 0.930 . S
C1829 C1827 1.419 . S
C1829 C1830 1.362 . S
C1830 H1822 0.930 . S
C1830 C1829 1.362 . S
C1830 C1833 1.409 . S
C1831 H1823 0.930 . S
C1831 C1832 1.355 . S
C1831 C1833 1.415 . S
C1832 C1831 1.355 . S
C1832 C1834 1.419 . S
C1833 C1828 1.425 . S
C1833 C1830 1.409 . S
C1833 C1831 1.415 . S
C1834 H1824 0.930 . S
C1834 C1832 1.419 . S
C1834 C1835 1.362 . S
C1835 H1825 0.930 . S
C1835 C1828 1.409 . S
C1835 C1834 1.362 . S
C979 C162 1.447 . S
C984 C283 1.407 . S
C995 C174 1.482 . S
C1000 C367 1.457 . S
C1011 C150 1.464 . S
C1016 C447 1.453 . S
C1027 C138 1.439 . S
C1032 C363 1.429 . S
C1048 C451 1.424 . S
C1043 C114 1.438 . S
C1059 C126 1.402 . S
C1064 C279 1.412 1_556 S
C1080 C272 1.404 . S
C1075 C136 1.516 . S
C1096 C356 1.453 . S
C1091 C112 1.513 . S
C1107 C124 1.522 . S
C1112 C458 1.515 1_556 S
C1123 C160 1.482 . S
C1128 C374 1.482 . S
C1139 C172 1.479 . S
C1144 C440 1.437 . S
C1160 C290 1.468 . S
C1155 C148 1.488 . S
C1176 C535 1.409 . S
C1171 C18 1.446 . S
C1187 C30 1.469 . S
C1192 C619 1.435 . S
C1203 C6 1.462 . S
C1208 C699 1.436 . S
C1219 C210 1.450 . S
C1224 C615 1.429 . S
C1235 C186 1.440 . S
C1240 C703 1.357 . S
C1251 C198 1.411 . S
C1256 C531 1.394 . S
C1267 C208 1.493 . S
C1272 C524 1.419 . S
C1283 C184 1.521 . S
C1288 C608 1.441 . S
C1304 C710 1.441 . S
C1299 C196 1.501 . S
C1315 C16 1.464 . S
C1320 C626 1.453 . S
C1336 C692 1.379 . S
C1331 C28 1.495 1_455 S
C1347 C4 1.441 . S
C1352 C542 1.404 . S
C1368 C787 1.359 . S
C1363 C90 1.467 . S
C1379 C102 1.485 . S
C1384 C871 1.392 . S
C1400 C951 1.436 . S
C1395 C78 1.462 . S
C1416 C867 1.439 . S
C1411 C66 1.421 . S
C1432 C955 1.347 . S
C1427 C42 1.455 . S
C1443 C54 1.406 . S
C1448 C783 1.425 . S
C1459 C64 1.527 . S
C1464 C776 1.460 . S
C1475 C40 1.518 . S
C1480 C860 1.446 . S
C1496 C962 1.483 . S
C1491 C52 1.514 . S
C1507 C88 1.462 . S
C1512 C878 1.446 . S
C1523 C100 1.451 . S
C1528 C944 1.448 . S
C1539 C76 1.464 . S
C1544 C794 1.398 . S
C1555 C189 1.584 . S
C1560 C286 1.460 . S
C1576 C370 1.529 . S
C1571 C201 1.616 . S
C1587 C213 1.551 . S
C1592 C442 1.355 . S
C1603 C81 1.591 . S
C1608 C358 1.334 . S
C1619 C93 1.577 . S
C1624 C454 1.405 . S
C1640 C274 1.355 . S
C1635 C105 1.517 . S
C1651 C45 1.584 . S
C1656 C538 1.406 . S
C1667 C57 1.609 . S
C1672 C622 1.523 . S
C1683 C69 1.568 . S
C1688 C694 1.321 . S
C1699 C153 1.575 . S
C1704 C610 1.329 . S
C1720 C706 1.395 . S
C1715 C165 1.582 . S
C1731 C177 1.555 . S
C1736 C526 1.375 . S
C1747 C117 1.583 . S
C1752 C790 1.467 . S
C1763 C129 1.635 . S
C1768 C874 1.497 . S
C1784 C946 1.411 . S
C1779 C141 1.556 . S
C1795 C9 1.574 . S
C1800 C862 1.403 . S
C1811 C21 1.577 . S
C1816 C958 1.402 . S
C1827 C33 1.527 . S
C1832 C778 1.417 . S
