# Generated by pormake.
# Topology cml, (3,6)-cn, num edge types: 1
# Building blocks:
#     Node 0, Type 0, BuildingBlock: ESEHIV_clean_linker_0, # of connection points: 3
#     Node 1, Type 0, BuildingBlock: ESEHIV_clean_linker_0, # of connection points: 3
#     Node 2, Type 0, BuildingBlock: ESEHIV_clean_linker_0, # of connection points: 3
#     Node 3, Type 0, BuildingBlock: ESEHIV_clean_linker_0, # of connection points: 3
#     Node 4, Type 0, BuildingBlock: ESEHIV_clean_linker_0, # of connection points: 3
#     Node 5, Type 0, BuildingBlock: ESEHIV_clean_linker_0, # of connection points: 3
#     Node 6, Type 0, BuildingBlock: ESEHIV_clean_linker_0, # of connection points: 3
#     Node 7, Type 0, BuildingBlock: ESEHIV_clean_linker_0, # of connection points: 3
#     Node 8, Type 1, BuildingBlock: OJICUG_clean_sbu_0, # of connection points: 6
#     Node 9, Type 1, BuildingBlock: OJICUG_clean_sbu_0, # of connection points: 6
#     Node 10, Type 1, BuildingBlock: OJICUG_clean_sbu_0, # of connection points: 6
#     Node 11, Type 1, BuildingBlock: OJICUG_clean_sbu_0, # of connection points: 6
#     Edge 12, Type (0, 1), BuildingBlock: EYOCIG_clean_linker_4, # of connection points: 2
#     Edge 13, Type (0, 1), BuildingBlock: EYOCIG_clean_linker_4, # of connection points: 2
#     Edge 14, Type (0, 1), BuildingBlock: EYOCIG_clean_linker_4, # of connection points: 2
#     Edge 15, Type (0, 1), BuildingBlock: EYOCIG_clean_linker_4, # of connection points: 2
#     Edge 16, Type (0, 1), BuildingBlock: EYOCIG_clean_linker_4, # of connection points: 2
#     Edge 17, Type (0, 1), BuildingBlock: EYOCIG_clean_linker_4, # of connection points: 2
#     Edge 18, Type (0, 1), BuildingBlock: EYOCIG_clean_linker_4, # of connection points: 2
#     Edge 19, Type (0, 1), BuildingBlock: EYOCIG_clean_linker_4, # of connection points: 2
#     Edge 20, Type (0, 1), BuildingBlock: EYOCIG_clean_linker_4, # of connection points: 2
#     Edge 21, Type (0, 1), BuildingBlock: EYOCIG_clean_linker_4, # of connection points: 2
#     Edge 22, Type (0, 1), BuildingBlock: EYOCIG_clean_linker_4, # of connection points: 2
#     Edge 23, Type (0, 1), BuildingBlock: EYOCIG_clean_linker_4, # of connection points: 2
#     Edge 24, Type (0, 1), BuildingBlock: EYOCIG_clean_linker_4, # of connection points: 2
#     Edge 25, Type (0, 1), BuildingBlock: EYOCIG_clean_linker_4, # of connection points: 2
#     Edge 26, Type (0, 1), BuildingBlock: EYOCIG_clean_linker_4, # of connection points: 2
#     Edge 27, Type (0, 1), BuildingBlock: EYOCIG_clean_linker_4, # of connection points: 2
#     Edge 28, Type (0, 1), BuildingBlock: EYOCIG_clean_linker_4, # of connection points: 2
#     Edge 29, Type (0, 1), BuildingBlock: EYOCIG_clean_linker_4, # of connection points: 2
#     Edge 30, Type (0, 1), BuildingBlock: EYOCIG_clean_linker_4, # of connection points: 2
#     Edge 31, Type (0, 1), BuildingBlock: EYOCIG_clean_linker_4, # of connection points: 2
#     Edge 32, Type (0, 1), BuildingBlock: EYOCIG_clean_linker_4, # of connection points: 2
#     Edge 33, Type (0, 1), BuildingBlock: EYOCIG_clean_linker_4, # of connection points: 2
#     Edge 34, Type (0, 1), BuildingBlock: EYOCIG_clean_linker_4, # of connection points: 2
#     Edge 35, Type (0, 1), BuildingBlock: EYOCIG_clean_linker_4, # of connection points: 2
# Relax obj value: 0.072
# Max RMSD: 0.084
# Mean RMSD: 0.079
data_MOF--net-cml--node1-OJICUG_clean_sbu_0--node2-ESEHIV_clean_linker_0--edge1-EYOCIG_clean_linker_4
_symmetry_space_group_name_H-M    P1
_symmetry_Int_Tables_number       1
_symmetry_cell_setting            triclinic
loop_
_symmetry_equiv_pos_as_xyz
'x, y, z'
_cell_length_a     28.506249
_cell_length_b     29.82069
_cell_length_c     27.508068
_cell_angle_alpha  90.062694
_cell_angle_beta   89.955266
_cell_angle_gamma 90.030847
loop_
_atom_site_label
_atom_site_type_symbol
_atom_site_fract_x
_atom_site_fract_y
_atom_site_fract_z
_atom_type_partial_charge
H0 H 0.33442 0.42874 0.04288 0.0
H1 H 0.23622 0.41411 0.92532 0.0
H2 H 0.23527 0.31989 0.044 0.0
C3 C 0.30455 0.41169 0.02682 0.0
C4 C 0.28611 0.37337 0.04919 0.0
C5 C 0.28652 0.42648 0.98233 0.0
C6 C 0.24922 0.40346 0.96053 0.0
C7 C 0.23062 0.36508 0.98278 0.0
C8 C 0.24872 0.3503 0.02744 0.0
H9 H 0.67096 0.53847 0.54275 0.0
H10 H 0.76899 0.55298 0.4249 0.0
H11 H 0.76937 0.64793 0.54311 0.0
C12 C 0.70072 0.5556 0.52655 0.0
C13 C 0.71892 0.59416 0.5487 0.0
C14 C 0.7188 0.54066 0.48207 0.0
C15 C 0.75595 0.56375 0.46009 0.0
C16 C 0.7743 0.60239 0.4821 0.0
C17 C 0.75612 0.61734 0.52674 0.0
H18 H 0.67077 0.42906 0.04355 0.0
H19 H 0.76972 0.32015 0.04303 0.0
H20 H 0.76794 0.41489 0.92486 0.0
C21 C 0.70049 0.41207 0.02709 0.0
C22 C 0.71817 0.42706 0.98249 0.0
C23 C 0.71903 0.37363 0.04903 0.0
C24 C 0.7562 0.35065 0.02678 0.0
C25 C 0.77394 0.36562 0.98201 0.0
C26 C 0.75523 0.40411 0.96015 0.0
H27 H 0.33482 0.53901 0.54136 0.0
H28 H 0.23676 0.55453 0.42386 0.0
H29 H 0.2362 0.64818 0.5433 0.0
C30 C 0.30507 0.55628 0.52539 0.0
C31 C 0.28681 0.59454 0.54805 0.0
C32 C 0.28698 0.54174 0.4808 0.0
C33 C 0.24983 0.565 0.45913 0.0
C34 C 0.2314 0.60333 0.48169 0.0
C35 C 0.24955 0.61784 0.52647 0.0
H36 H 0.83489 0.92844 0.04174 0.0
H37 H 0.73562 0.91458 0.92503 0.0
H38 H 0.7362 0.81921 0.04262 0.0
C39 C 0.80494 0.91142 0.02579 0.0
C40 C 0.78685 0.87284 0.04792 0.0
C41 C 0.78643 0.92657 0.98165 0.0
C42 C 0.749 0.90365 0.95998 0.0
C43 C 0.7308 0.86498 0.98197 0.0
C44 C 0.74938 0.84982 0.02627 0.0
H45 H 0.17039 0.03931 0.54292 0.0
H46 H 0.26833 0.05337 0.42492 0.0
H47 H 0.27008 0.14771 0.5437 0.0
C48 C 0.20031 0.05621 0.52674 0.0
C49 C 0.219 0.09446 0.54907 0.0
C50 C 0.21813 0.04129 0.48215 0.0
C51 C 0.25548 0.06411 0.4602 0.0
C52 C 0.27433 0.10244 0.4824 0.0
C53 C 0.25644 0.11734 0.52717 0.0
H54 H 0.17065 0.92905 0.04314 0.0
H55 H 0.26958 0.82013 0.04273 0.0
H56 H 0.26809 0.915 0.92467 0.0
C57 C 0.2004 0.91207 0.02673 0.0
C58 C 0.21817 0.9271 0.98219 0.0
C59 C 0.21889 0.87362 0.04868 0.0
C60 C 0.2561 0.85064 0.02648 0.0
C61 C 0.27395 0.86565 0.98177 0.0
C62 C 0.25529 0.90417 0.95992 0.0
H63 H 0.83475 0.03952 0.54205 0.0
H64 H 0.73713 0.05453 0.42409 0.0
H65 H 0.73602 0.14862 0.54311 0.0
C66 C 0.80504 0.05669 0.5259 0.0
C67 C 0.78666 0.09503 0.54832 0.0
C68 C 0.78714 0.04199 0.48128 0.0
C69 C 0.75005 0.06513 0.45938 0.0
C70 C 0.73149 0.10352 0.4817 0.0
C71 C 0.74945 0.11822 0.52649 0.0
Sc72 Sc 0.00279 0.75911 0.2863 0.0
Sc73 Sc 0.00249 0.87758 0.29414 0.0
Sc74 Sc 0.00204 0.81262 0.40108 0.0
O75 O 0.00242 0.81635 0.32714 0.0
C76 C 0.93332 0.73246 0.3727 0.0
C77 C 0.93264 0.82203 0.22659 0.0
C78 C 0.93176 0.89383 0.38206 0.0
C79 C 0.07328 0.82239 0.22731 0.0
C80 C 0.07149 0.73291 0.37336 0.0
C81 C 0.07231 0.89408 0.38269 0.0
O82 O 0.94865 0.72748 0.3296 0.0
O83 O 0.94864 0.85852 0.24354 0.0
O84 O 0.94753 0.86227 0.40827 0.0
O85 O 0.05763 0.78387 0.23872 0.0
O86 O 0.05574 0.76217 0.40261 0.0
O87 O 0.05653 0.90376 0.34089 0.0
O88 O 0.05663 0.72783 0.33013 0.0
O89 O 0.05688 0.8588 0.24403 0.0
O90 O 0.05628 0.86252 0.40879 0.0
O91 O 0.94836 0.78359 0.23814 0.0
O92 O 0.94857 0.76186 0.40207 0.0
O93 O 0.94796 0.90358 0.34043 0.0
Sc94 Sc 0.0025 0.20842 0.78663 0.0
Sc95 Sc 0.0025 0.09001 0.79495 0.0
Sc96 Sc 0.00176 0.15557 0.90162 0.0
O97 O 0.00226 0.15142 0.8277 0.0
C98 C 0.07109 0.23532 0.87364 0.0
C99 C 0.07316 0.14505 0.72786 0.0
C100 C 0.07229 0.07426 0.88362 0.0
C101 C 0.93238 0.14493 0.72735 0.0
C102 C 0.93294 0.23539 0.87284 0.0
C103 C 0.9316 0.07415 0.88279 0.0
O104 O 0.05628 0.2401 0.83036 0.0
O105 O 0.05686 0.10867 0.74473 0.0
O106 O 0.05607 0.10584 0.90961 0.0
O107 O 0.94806 0.18347 0.73869 0.0
O108 O 0.94821 0.2062 0.90236 0.0
O109 O 0.94799 0.0641 0.8413 0.0
O110 O 0.94831 0.24016 0.82975 0.0
O111 O 0.94855 0.10856 0.74433 0.0
O112 O 0.94726 0.10591 0.90889 0.0
O113 O 0.05739 0.18357 0.73913 0.0
O114 O 0.05537 0.20616 0.90299 0.0
O115 O 0.05663 0.06433 0.84181 0.0
Sc116 Sc 0.50255 0.25923 0.2863 0.0
Sc117 Sc 0.50287 0.37767 0.29458 0.0
Sc118 Sc 0.50246 0.31237 0.40127 0.0
O119 O 0.50261 0.31633 0.32736 0.0
C120 C 0.43351 0.23238 0.37301 0.0
C121 C 0.43228 0.32263 0.22737 0.0
C122 C 0.43233 0.39379 0.38268 0.0
C123 C 0.5731 0.32245 0.22726 0.0
C124 C 0.57166 0.23265 0.37284 0.0
C125 C 0.57306 0.39357 0.38291 0.0
O126 O 0.44864 0.22751 0.32983 0.0
O127 O 0.44872 0.35901 0.24417 0.0
O128 O 0.44804 0.3621 0.40877 0.0
O129 O 0.55718 0.28398 0.23846 0.0
O130 O 0.55605 0.2618 0.4023 0.0
O131 O 0.55722 0.40345 0.3412 0.0
O132 O 0.55661 0.22774 0.32965 0.0
O133 O 0.55703 0.35887 0.24426 0.0
O134 O 0.55689 0.36206 0.40897 0.0
O135 O 0.44782 0.28407 0.23873 0.0
O136 O 0.44889 0.26171 0.40237 0.0
O137 O 0.44858 0.40368 0.34111 0.0
Sc138 Sc 0.50236 0.70817 0.78635 0.0
Sc139 Sc 0.50261 0.58978 0.79509 0.0
Sc140 Sc 0.50192 0.65565 0.90153 0.0
O141 O 0.5023 0.65129 0.82763 0.0
C142 C 0.57108 0.73541 0.87307 0.0
C143 C 0.57299 0.64473 0.72762 0.0
C144 C 0.57252 0.57436 0.88373 0.0
C145 C 0.43232 0.6444 0.72738 0.0
C146 C 0.43296 0.73533 0.87266 0.0
C147 C 0.43191 0.574 0.88316 0.0
O148 O 0.5562 0.74003 0.8298 0.0
O149 O 0.55687 0.60838 0.74473 0.0
O150 O 0.55634 0.60603 0.90962 0.0
O151 O 0.44788 0.68301 0.73863 0.0
O152 O 0.4483 0.70621 0.90222 0.0
O153 O 0.44821 0.56392 0.84164 0.0
O154 O 0.44825 0.74001 0.82953 0.0
O155 O 0.4486 0.60811 0.74445 0.0
O156 O 0.44756 0.60587 0.90912 0.0
O157 O 0.55714 0.68325 0.73875 0.0
O158 O 0.55544 0.70634 0.90257 0.0
O159 O 0.5568 0.56429 0.84198 0.0
C160 C 0.16727 0.31672 0.93594 0.0
C161 C 0.19613 0.33862 0.95745 0.0
C162 C 0.13445 0.28983 0.91091 0.0
C163 C 0.10567 0.26596 0.89188 0.0
C164 C 0.83728 0.65084 0.43486 0.0
C165 C 0.80859 0.62889 0.45654 0.0
C166 C 0.87 0.67778 0.40973 0.0
C167 C 0.89878 0.70169 0.39077 0.0
C168 C 0.83682 0.31724 0.93449 0.0
C169 C 0.80817 0.33922 0.95621 0.0
C170 C 0.86953 0.29018 0.9095 0.0
C171 C 0.89835 0.2662 0.89072 0.0
C172 C 0.16802 0.6519 0.43537 0.0
C173 C 0.19689 0.62991 0.45666 0.0
C174 C 0.13508 0.67875 0.41056 0.0
C175 C 0.10619 0.70249 0.39164 0.0
C176 C 0.66731 0.81682 0.93513 0.0
C177 C 0.69624 0.83862 0.95665 0.0
C178 C 0.63445 0.79 0.91009 0.0
C179 C 0.60567 0.76611 0.89112 0.0
C180 C 0.33765 0.15061 0.43527 0.0
C181 C 0.3088 0.12877 0.45688 0.0
C182 C 0.37038 0.17756 0.41017 0.0
C183 C 0.39907 0.20155 0.39117 0.0
C184 C 0.33692 0.81728 0.93434 0.0
C185 C 0.30823 0.83927 0.95601 0.0
C186 C 0.36963 0.7902 0.90936 0.0
C187 C 0.39841 0.76618 0.89056 0.0
C188 C 0.66828 0.15178 0.43478 0.0
C189 C 0.69708 0.12996 0.45636 0.0
C190 C 0.63537 0.17848 0.40975 0.0
C191 C 0.60642 0.20217 0.39084 0.0
C192 C 0.33269 0.49178 0.93861 0.0
C193 C 0.31023 0.46196 0.95679 0.0
C194 C 0.36455 0.5229 0.91863 0.0
C195 C 0.3953 0.54645 0.90278 0.0
C196 C 0.67275 0.47517 0.43851 0.0
C197 C 0.69515 0.50508 0.45662 0.0
C198 C 0.64076 0.44418 0.41849 0.0
C199 C 0.60985 0.42087 0.40257 0.0
C200 C 0.67174 0.4925 0.93947 0.0
C201 C 0.69426 0.46262 0.95737 0.0
C202 C 0.63984 0.52359 0.91961 0.0
C203 C 0.6091 0.54703 0.90364 0.0
C204 C 0.33284 0.47621 0.43715 0.0
C205 C 0.31042 0.50614 0.45516 0.0
C206 C 0.36478 0.44494 0.4176 0.0
C207 C 0.39562 0.42131 0.4021 0.0
C208 C 0.8321 -0.00781 0.938 0.0
C209 C 0.80984 0.96223 0.95616 0.0
C210 C 0.86396 0.02328 0.91801 0.0
C211 C 0.89484 0.0467 0.90223 0.0
C212 C 0.17151 0.9762 0.43846 0.0
C213 C 0.19414 0.00592 0.45666 0.0
C214 C 0.13956 0.94519 0.41839 0.0
C215 C 0.10886 0.92166 0.4024 0.0
C216 C 0.17172 -0.00748 0.93915 0.0
C217 C 0.19428 0.96265 0.95703 0.0
C218 C 0.13973 0.02354 0.91934 0.0
C219 C 0.10894 0.04694 0.90342 0.0
C220 C 0.83296 0.97647 0.4375 0.0
C221 C 0.81071 0.0064 0.45576 0.0
C222 C 0.86459 0.94519 0.41744 0.0
C223 C 0.89526 0.92154 0.4016 0.0
C224 C 0.33221 0.34395 0.1261 0.0
C225 C 0.30947 0.3554 0.09131 0.0
C226 C 0.36436 0.33268 0.16317 0.0
C227 C 0.39519 0.32594 0.19226 0.0
C228 C 0.67278 0.62363 0.62573 0.0
C229 C 0.69553 0.61217 0.59088 0.0
C230 C 0.64071 0.63479 0.663 0.0
C231 C 0.60994 0.64143 0.69227 0.0
C232 C 0.67328 0.34376 0.12601 0.0
C233 C 0.69589 0.35538 0.09117 0.0
C234 C 0.64113 0.33236 0.16308 0.0
C235 C 0.61023 0.32562 0.19214 0.0
C236 C 0.3328 0.62328 0.62539 0.0
C237 C 0.31013 0.61213 0.59042 0.0
C238 C 0.36479 0.63428 0.66273 0.0
C239 C 0.39547 0.64093 0.69203 0.0
C240 C 0.83336 0.84302 0.12441 0.0
C241 C 0.81049 0.85469 0.0898 0.0
C242 C 0.86534 0.8317 0.16162 0.0
C243 C 0.89591 0.82508 0.19105 0.0
C244 C 0.17319 0.124 0.62626 0.0
C245 C 0.19586 0.11254 0.59136 0.0
C246 C 0.14109 0.13517 0.66349 0.0
C247 C 0.11023 0.1418 0.69265 0.0
C248 C 0.17318 0.8438 0.12575 0.0
C249 C 0.19575 0.85541 0.09087 0.0
C250 C 0.14116 0.8324 0.16295 0.0
C251 C 0.11035 0.82563 0.19211 0.0
C252 C 0.83254 0.12407 0.62561 0.0
C253 C 0.80987 0.11284 0.59067 0.0
C254 C 0.86464 0.13506 0.66286 0.0
C255 C 0.89542 0.14163 0.69209 0.0
loop_
_geom_bond_atom_site_label_1
_geom_bond_atom_site_label_2
_geom_bond_distance
_geom_bond_site_symmetry_2
_ccdc_geom_bond_type
H0 C3 0.931 . S
H1 C6 0.928 . S
H2 C8 0.930 . S
C3 H0 0.931 . S
C3 C4 1.413 . S
C3 C5 1.360 1_554 S
C4 C3 1.413 . S
C4 C8 1.429 . S
C5 C3 1.360 1_556 S
C5 C6 1.372 . S
C6 H1 0.928 . S
C6 C5 1.372 . S
C6 C7 1.404 . S
C7 C6 1.404 . S
C7 C8 1.391 1_556 S
C8 H2 0.930 . S
C8 C4 1.429 . S
C8 C7 1.391 1_554 S
H9 C12 0.931 . S
H10 C15 0.928 . S
H11 C17 0.930 . S
C12 H9 0.931 . S
C12 C13 1.413 . S
C12 C14 1.360 . S
C13 C12 1.413 . S
C13 C17 1.429 . S
C14 C12 1.360 . S
C14 C15 1.372 . S
C15 H10 0.928 . S
C15 C14 1.372 . S
C15 C16 1.404 . S
C16 C15 1.404 . S
C16 C17 1.391 . S
C17 H11 0.930 . S
C17 C13 1.429 . S
C17 C16 1.391 . S
H18 C21 0.931 . S
H19 C24 0.928 . S
H20 C26 0.930 . S
C21 H18 0.931 . S
C21 C22 1.413 1_554 S
C21 C23 1.360 . S
C22 C21 1.413 1_556 S
C22 C26 1.429 . S
C23 C21 1.360 . S
C23 C24 1.372 . S
C24 H19 0.928 . S
C24 C23 1.372 . S
C24 C25 1.404 1_554 S
C25 C24 1.404 1_556 S
C25 C26 1.391 . S
C26 H20 0.930 . S
C26 C22 1.429 . S
C26 C25 1.391 . S
H27 C30 0.931 . S
H28 C33 0.928 . S
H29 C35 0.930 . S
C30 H27 0.931 . S
C30 C31 1.413 . S
C30 C32 1.360 . S
C31 C30 1.413 . S
C31 C35 1.429 . S
C32 C30 1.360 . S
C32 C33 1.372 . S
C33 H28 0.928 . S
C33 C32 1.372 . S
C33 C34 1.404 . S
C34 C33 1.404 . S
C34 C35 1.391 . S
C35 H29 0.930 . S
C35 C31 1.429 . S
C35 C34 1.391 . S
H36 C39 0.931 . S
H37 C42 0.928 . S
H38 C44 0.930 . S
C39 H36 0.931 . S
C39 C40 1.413 . S
C39 C41 1.360 1_554 S
C40 C39 1.413 . S
C40 C44 1.429 . S
C41 C39 1.360 1_556 S
C41 C42 1.372 . S
C42 H37 0.928 . S
C42 C41 1.372 . S
C42 C43 1.404 . S
C43 C42 1.404 . S
C43 C44 1.391 1_556 S
C44 H38 0.930 . S
C44 C40 1.429 . S
C44 C43 1.391 1_554 S
H45 C48 0.931 . S
H46 C51 0.928 . S
H47 C53 0.930 . S
C48 H45 0.931 . S
C48 C49 1.413 . S
C48 C50 1.360 . S
C49 C48 1.413 . S
C49 C53 1.429 . S
C50 C48 1.360 . S
C50 C51 1.372 . S
C51 H46 0.928 . S
C51 C50 1.372 . S
C51 C52 1.404 . S
C52 C51 1.404 . S
C52 C53 1.391 . S
C53 H47 0.930 . S
C53 C49 1.429 . S
C53 C52 1.391 . S
H54 C57 0.931 . S
H55 C60 0.928 . S
H56 C62 0.930 . S
C57 H54 0.931 . S
C57 C58 1.413 1_554 S
C57 C59 1.360 . S
C58 C57 1.413 1_556 S
C58 C62 1.429 . S
C59 C57 1.360 . S
C59 C60 1.372 . S
C60 H55 0.928 . S
C60 C59 1.372 . S
C60 C61 1.404 1_554 S
C61 C60 1.404 1_556 S
C61 C62 1.391 . S
C62 H56 0.930 . S
C62 C58 1.429 . S
C62 C61 1.391 . S
H63 C66 0.931 . S
H64 C69 0.928 . S
H65 C71 0.930 . S
C66 H63 0.931 . S
C66 C67 1.413 . S
C66 C68 1.360 . S
C67 C66 1.413 . S
C67 C71 1.429 . S
C68 C66 1.360 . S
C68 C69 1.372 . S
C69 H64 0.928 . S
C69 C68 1.372 . S
C69 C70 1.404 . S
C70 C69 1.404 . S
C70 C71 1.391 . S
C71 H65 0.930 . S
C71 C67 1.429 . S
C71 C70 1.391 . S
Sc72 O75 2.025 . S
Sc72 O82 2.090 1_455 S
Sc72 O85 2.120 . S
Sc72 O88 2.120 . S
Sc72 O91 2.090 1_455 S
Sc73 O75 2.025 . S
Sc73 O83 2.090 1_455 S
Sc73 O87 2.120 . S
Sc73 O89 2.120 . S
Sc73 O93 2.090 1_455 S
Sc74 O75 2.025 . S
Sc74 O84 2.090 1_455 S
Sc74 O86 2.119 . S
Sc74 O90 2.119 . S
Sc74 O92 2.090 1_455 S
O75 Sc72 2.025 . S
O75 Sc73 2.025 . S
O75 Sc74 2.025 . S
C76 O82 1.268 . S
C76 O92 1.268 . S
C77 O83 1.268 . S
C77 O91 1.268 . S
C78 O84 1.268 . S
C78 O93 1.268 . S
C79 O85 1.268 . S
C79 O89 1.268 . S
C80 O86 1.268 . S
C80 O88 1.268 . S
C81 O87 1.268 . S
C81 O90 1.268 . S
O82 Sc72 2.090 1_655 S
O82 C76 1.268 . S
O83 Sc73 2.090 1_655 S
O83 C77 1.268 . S
O84 Sc74 2.090 1_655 S
O84 C78 1.268 . S
O85 Sc72 2.120 . S
O85 C79 1.268 . S
O86 Sc74 2.119 . S
O86 C80 1.268 . S
O87 Sc73 2.120 . S
O87 C81 1.268 . S
O88 Sc72 2.120 . S
O88 C80 1.268 . S
O89 Sc73 2.120 . S
O89 C79 1.268 . S
O90 Sc74 2.119 . S
O90 C81 1.268 . S
O91 Sc72 2.090 1_655 S
O91 C77 1.268 . S
O92 Sc74 2.090 1_655 S
O92 C76 1.268 . S
O93 Sc73 2.090 1_655 S
O93 C78 1.268 . S
Sc94 O97 2.025 . S
Sc94 O104 2.116 . S
Sc94 O107 2.094 1_455 S
Sc94 O110 2.094 1_455 S
Sc94 O113 2.116 . S
Sc95 O97 2.025 . S
Sc95 O105 2.115 . S
Sc95 O109 2.095 1_455 S
Sc95 O111 2.095 1_455 S
Sc95 O115 2.115 . S
Sc96 O97 2.025 . S
Sc96 O106 2.115 . S
Sc96 O108 2.095 1_455 S
Sc96 O112 2.095 1_455 S
Sc96 O114 2.115 . S
O97 Sc94 2.025 . S
O97 Sc95 2.025 . S
O97 Sc96 2.025 . S
C98 O104 1.268 . S
C98 O114 1.268 . S
C99 O105 1.268 . S
C99 O113 1.268 . S
C100 O106 1.268 . S
C100 O115 1.268 . S
C101 O107 1.268 . S
C101 O111 1.268 . S
C102 O108 1.268 . S
C102 O110 1.268 . S
C103 O109 1.268 . S
C103 O112 1.268 . S
O104 Sc94 2.116 . S
O104 C98 1.268 . S
O105 Sc95 2.115 . S
O105 C99 1.268 . S
O106 Sc96 2.115 . S
O106 C100 1.268 . S
O107 Sc94 2.094 1_655 S
O107 C101 1.268 . S
O108 Sc96 2.095 1_655 S
O108 C102 1.268 . S
O109 Sc95 2.095 1_655 S
O109 C103 1.268 . S
O110 Sc94 2.094 1_655 S
O110 C102 1.268 . S
O111 Sc95 2.095 1_655 S
O111 C101 1.268 . S
O112 Sc96 2.095 1_655 S
O112 C103 1.268 . S
O113 Sc94 2.116 . S
O113 C99 1.268 . S
O114 Sc96 2.115 . S
O114 C98 1.268 . S
O115 Sc95 2.115 . S
O115 C100 1.268 . S
Sc116 O119 2.025 . S
Sc116 O126 2.105 . S
Sc116 O129 2.105 . S
Sc116 O132 2.105 . S
Sc116 O135 2.105 . S
Sc117 O119 2.025 . S
Sc117 O127 2.105 . S
Sc117 O131 2.105 . S
Sc117 O133 2.105 . S
Sc117 O137 2.105 . S
Sc118 O119 2.025 . S
Sc118 O128 2.105 . S
Sc118 O130 2.105 . S
Sc118 O134 2.105 . S
Sc118 O136 2.105 . S
O119 Sc116 2.025 . S
O119 Sc117 2.025 . S
O119 Sc118 2.025 . S
C120 O126 1.268 . S
C120 O136 1.268 . S
C121 O127 1.268 . S
C121 O135 1.268 . S
C122 O128 1.268 . S
C122 O137 1.268 . S
C123 O129 1.268 . S
C123 O133 1.268 . S
C124 O130 1.268 . S
C124 O132 1.268 . S
C125 O131 1.268 . S
C125 O134 1.268 . S
O126 Sc116 2.105 . S
O126 C120 1.268 . S
O127 Sc117 2.105 . S
O127 C121 1.268 . S
O128 Sc118 2.105 . S
O128 C122 1.268 . S
O129 Sc116 2.105 . S
O129 C123 1.268 . S
O130 Sc118 2.105 . S
O130 C124 1.268 . S
O131 Sc117 2.105 . S
O131 C125 1.268 . S
O132 Sc116 2.105 . S
O132 C124 1.268 . S
O133 Sc117 2.105 . S
O133 C123 1.268 . S
O134 Sc118 2.105 . S
O134 C125 1.268 . S
O135 Sc116 2.105 . S
O135 C121 1.268 . S
O136 Sc118 2.105 . S
O136 C120 1.268 . S
O137 Sc117 2.105 . S
O137 C122 1.268 . S
Sc138 O141 2.025 . S
Sc138 O148 2.105 . S
Sc138 O151 2.105 . S
Sc138 O154 2.105 . S
Sc138 O157 2.105 . S
Sc139 O141 2.025 . S
Sc139 O149 2.105 . S
Sc139 O153 2.105 . S
Sc139 O155 2.105 . S
Sc139 O159 2.105 . S
Sc140 O141 2.025 . S
Sc140 O150 2.105 . S
Sc140 O152 2.105 . S
Sc140 O156 2.105 . S
Sc140 O158 2.105 . S
O141 Sc138 2.025 . S
O141 Sc139 2.025 . S
O141 Sc140 2.025 . S
C142 O148 1.268 . S
C142 O158 1.268 . S
C143 O149 1.268 . S
C143 O157 1.268 . S
C144 O150 1.268 . S
C144 O159 1.268 . S
C145 O151 1.268 . S
C145 O155 1.268 . S
C146 O152 1.268 . S
C146 O154 1.268 . S
C147 O153 1.268 . S
C147 O156 1.268 . S
O148 Sc138 2.105 . S
O148 C142 1.268 . S
O149 Sc139 2.105 . S
O149 C143 1.268 . S
O150 Sc140 2.105 . S
O150 C144 1.268 . S
O151 Sc138 2.105 . S
O151 C145 1.268 . S
O152 Sc140 2.105 . S
O152 C146 1.268 . S
O153 Sc139 2.105 . S
O153 C147 1.268 . S
O154 Sc138 2.105 . S
O154 C146 1.268 . S
O155 Sc139 2.105 . S
O155 C145 1.268 . S
O156 Sc140 2.105 . S
O156 C147 1.268 . S
O157 Sc138 2.105 . S
O157 C143 1.268 . S
O158 Sc140 2.105 . S
O158 C142 1.268 . S
O159 Sc139 2.105 . S
O159 C144 1.268 . S
C160 C161 1.170 . S
C160 C162 1.380 . S
C161 C160 1.170 . S
C162 C160 1.380 . S
C162 C163 1.170 . S
C163 C162 1.170 . S
C164 C165 1.170 . S
C164 C166 1.380 . S
C165 C164 1.170 . S
C166 C164 1.380 . S
C166 C167 1.170 . S
C167 C166 1.170 . S
C168 C169 1.170 . S
C168 C170 1.380 . S
C169 C168 1.170 . S
C170 C168 1.380 . S
C170 C171 1.170 . S
C171 C170 1.170 . S
C172 C173 1.170 . S
C172 C174 1.380 . S
C173 C172 1.170 . S
C174 C172 1.380 . S
C174 C175 1.170 . S
C175 C174 1.170 . S
C176 C177 1.170 . S
C176 C178 1.380 . S
C177 C176 1.170 . S
C178 C176 1.380 . S
C178 C179 1.170 . S
C179 C178 1.170 . S
C180 C181 1.170 . S
C180 C182 1.380 . S
C181 C180 1.170 . S
C182 C180 1.380 . S
C182 C183 1.170 . S
C183 C182 1.170 . S
C184 C185 1.170 . S
C184 C186 1.380 . S
C185 C184 1.170 . S
C186 C184 1.380 . S
C186 C187 1.170 . S
C187 C186 1.170 . S
C188 C189 1.170 . S
C188 C190 1.380 . S
C189 C188 1.170 . S
C190 C188 1.380 . S
C190 C191 1.170 . S
C191 C190 1.170 . S
C192 C193 1.170 . S
C192 C194 1.380 . S
C193 C192 1.170 . S
C194 C192 1.380 . S
C194 C195 1.170 . S
C195 C194 1.170 . S
C196 C197 1.170 . S
C196 C198 1.380 . S
C197 C196 1.170 . S
C198 C196 1.380 . S
C198 C199 1.170 . S
C199 C198 1.170 . S
C200 C201 1.170 . S
C200 C202 1.380 . S
C201 C200 1.170 . S
C202 C200 1.380 . S
C202 C203 1.170 . S
C203 C202 1.170 . S
C204 C205 1.170 . S
C204 C206 1.380 . S
C205 C204 1.170 . S
C206 C204 1.380 . S
C206 C207 1.170 . S
C207 C206 1.170 . S
C208 C209 1.170 1_545 S
C208 C210 1.380 . S
C209 C208 1.170 1_565 S
C210 C208 1.380 . S
C210 C211 1.170 . S
C211 C210 1.170 . S
C212 C213 1.170 1_565 S
C212 C214 1.380 . S
C213 C212 1.170 1_545 S
C214 C212 1.380 . S
C214 C215 1.170 . S
C215 C214 1.170 . S
C216 C217 1.170 1_545 S
C216 C218 1.380 . S
C217 C216 1.170 1_565 S
C218 C216 1.380 . S
C218 C219 1.170 . S
C219 C218 1.170 . S
C220 C221 1.170 1_565 S
C220 C222 1.380 . S
C221 C220 1.170 1_545 S
C222 C220 1.380 . S
C222 C223 1.170 . S
C223 C222 1.170 . S
C224 C225 1.170 . S
C224 C226 1.380 . S
C225 C224 1.170 . S
C226 C224 1.380 . S
C226 C227 1.170 . S
C227 C226 1.170 . S
C228 C229 1.170 . S
C228 C230 1.380 . S
C229 C228 1.170 . S
C230 C228 1.380 . S
C230 C231 1.170 . S
C231 C230 1.170 . S
C232 C233 1.170 . S
C232 C234 1.380 . S
C233 C232 1.170 . S
C234 C232 1.380 . S
C234 C235 1.170 . S
C235 C234 1.170 . S
C236 C237 1.170 . S
C236 C238 1.380 . S
C237 C236 1.170 . S
C238 C236 1.380 . S
C238 C239 1.170 . S
C239 C238 1.170 . S
C240 C241 1.170 . S
C240 C242 1.380 . S
C241 C240 1.170 . S
C242 C240 1.380 . S
C242 C243 1.170 . S
C243 C242 1.170 . S
C244 C245 1.170 . S
C244 C246 1.380 . S
C245 C244 1.170 . S
C246 C244 1.380 . S
C246 C247 1.170 . S
C247 C246 1.170 . S
C248 C249 1.170 . S
C248 C250 1.380 . S
C249 C248 1.170 . S
C250 C248 1.380 . S
C250 C251 1.170 . S
C251 C250 1.170 . S
C252 C253 1.170 . S
C252 C254 1.380 . S
C253 C252 1.170 . S
C254 C252 1.380 . S
C254 C255 1.170 . S
C255 C254 1.170 . S
C161 C7 1.526 . S
C163 C98 1.483 . S
C167 C76 1.489 . S
C165 C16 1.513 . S
C171 C102 1.500 . S
C169 C25 1.518 . S
C175 C80 1.479 . S
C173 C34 1.521 . S
C179 C142 1.491 . S
C177 C43 1.512 . S
C183 C120 1.477 . S
C181 C52 1.521 . S
C185 C61 1.519 . S
C187 C146 1.497 . S
C191 C124 1.504 . S
C189 C70 1.515 . S
C193 C5 1.481 . S
C195 C147 1.460 . S
C199 C125 1.482 . S
C197 C14 1.498 . S
C201 C22 1.479 . S
C203 C144 1.459 . S
C205 C32 1.484 . S
C207 C122 1.480 . S
C211 C103 1.466 . S
C209 C41 1.490 . S
C213 C50 1.483 . S
C215 C81 1.460 . S
C219 C100 1.461 . S
C217 C58 1.482 . S
C223 C78 1.467 . S
C221 C68 1.476 . S
C227 C121 1.460 . S
C225 C4 1.493 . S
C231 C143 1.472 . S
C229 C13 1.495 . S
C233 C23 1.488 . S
C235 C123 1.468 . S
C239 C145 1.457 . S
C237 C31 1.477 . S
C243 C77 1.457 . S
C241 C40 1.476 . S
C245 C49 1.495 . S
C247 C99 1.469 . S
C249 C59 1.480 . S
C251 C79 1.455 . S
C253 C67 1.482 . S
C255 C101 1.463 . S
