# Generated by pormake.
# Topology ptr, (4,4)-cn, num edge types: 1
# Building blocks:
#     Node 0, Type 0, BuildingBlock: QUQFOY_clean_sbu_3, # of connection points: 4
#     Node 1, Type 0, BuildingBlock: QUQFOY_clean_sbu_3, # of connection points: 4
#     Node 2, Type 0, BuildingBlock: QUQFOY_clean_sbu_3, # of connection points: 4
#     Node 3, Type 0, BuildingBlock: QUQFOY_clean_sbu_3, # of connection points: 4
#     Node 4, Type 0, BuildingBlock: QUQFOY_clean_sbu_3, # of connection points: 4
#     Node 5, Type 0, BuildingBlock: QUQFOY_clean_sbu_3, # of connection points: 4
#     Node 6, Type 0, BuildingBlock: QUQFOY_clean_sbu_3, # of connection points: 4
#     Node 7, Type 0, BuildingBlock: QUQFOY_clean_sbu_3, # of connection points: 4
#     Node 8, Type 0, BuildingBlock: QUQFOY_clean_sbu_3, # of connection points: 4
#     Node 9, Type 0, BuildingBlock: QUQFOY_clean_sbu_3, # of connection points: 4
#     Node 10, Type 0, BuildingBlock: QUQFOY_clean_sbu_3, # of connection points: 4
#     Node 11, Type 0, BuildingBlock: QUQFOY_clean_sbu_3, # of connection points: 4
#     Node 12, Type 0, BuildingBlock: QUQFOY_clean_sbu_3, # of connection points: 4
#     Node 13, Type 0, BuildingBlock: QUQFOY_clean_sbu_3, # of connection points: 4
#     Node 14, Type 0, BuildingBlock: QUQFOY_clean_sbu_3, # of connection points: 4
#     Node 15, Type 0, BuildingBlock: QUQFOY_clean_sbu_3, # of connection points: 4
#     Node 16, Type 0, BuildingBlock: QUQFOY_clean_sbu_3, # of connection points: 4
#     Node 17, Type 0, BuildingBlock: QUQFOY_clean_sbu_3, # of connection points: 4
#     Node 18, Type 1, BuildingBlock: MUDLON_clean_linker_0, # of connection points: 4
#     Node 19, Type 1, BuildingBlock: MUDLON_clean_linker_0, # of connection points: 4
#     Node 20, Type 1, BuildingBlock: MUDLON_clean_linker_0, # of connection points: 4
#     Node 21, Type 1, BuildingBlock: MUDLON_clean_linker_0, # of connection points: 4
#     Node 22, Type 1, BuildingBlock: MUDLON_clean_linker_0, # of connection points: 4
#     Node 23, Type 1, BuildingBlock: MUDLON_clean_linker_0, # of connection points: 4
#     Node 24, Type 1, BuildingBlock: MUDLON_clean_linker_0, # of connection points: 4
#     Node 25, Type 1, BuildingBlock: MUDLON_clean_linker_0, # of connection points: 4
#     Node 26, Type 1, BuildingBlock: MUDLON_clean_linker_0, # of connection points: 4
#     Node 27, Type 1, BuildingBlock: MUDLON_clean_linker_0, # of connection points: 4
#     Node 28, Type 1, BuildingBlock: MUDLON_clean_linker_0, # of connection points: 4
#     Node 29, Type 1, BuildingBlock: MUDLON_clean_linker_0, # of connection points: 4
#     Node 30, Type 1, BuildingBlock: MUDLON_clean_linker_0, # of connection points: 4
#     Node 31, Type 1, BuildingBlock: MUDLON_clean_linker_0, # of connection points: 4
#     Node 32, Type 1, BuildingBlock: MUDLON_clean_linker_0, # of connection points: 4
#     Node 33, Type 1, BuildingBlock: MUDLON_clean_linker_0, # of connection points: 4
#     Node 34, Type 1, BuildingBlock: MUDLON_clean_linker_0, # of connection points: 4
#     Node 35, Type 1, BuildingBlock: MUDLON_clean_linker_0, # of connection points: 4
#     Edge 36, Type (0, 1), BuildingBlock: UVAHIK_clean_linker_0, # of connection points: 2
#     Edge 37, Type (0, 1), BuildingBlock: UVAHIK_clean_linker_0, # of connection points: 2
#     Edge 38, Type (0, 1), BuildingBlock: UVAHIK_clean_linker_0, # of connection points: 2
#     Edge 39, Type (0, 1), BuildingBlock: UVAHIK_clean_linker_0, # of connection points: 2
#     Edge 40, Type (0, 1), BuildingBlock: UVAHIK_clean_linker_0, # of connection points: 2
#     Edge 41, Type (0, 1), BuildingBlock: UVAHIK_clean_linker_0, # of connection points: 2
#     Edge 42, Type (0, 1), BuildingBlock: UVAHIK_clean_linker_0, # of connection points: 2
#     Edge 43, Type (0, 1), BuildingBlock: UVAHIK_clean_linker_0, # of connection points: 2
#     Edge 44, Type (0, 1), BuildingBlock: UVAHIK_clean_linker_0, # of connection points: 2
#     Edge 45, Type (0, 1), BuildingBlock: UVAHIK_clean_linker_0, # of connection points: 2
#     Edge 46, Type (0, 1), BuildingBlock: UVAHIK_clean_linker_0, # of connection points: 2
#     Edge 47, Type (0, 1), BuildingBlock: UVAHIK_clean_linker_0, # of connection points: 2
#     Edge 48, Type (0, 1), BuildingBlock: UVAHIK_clean_linker_0, # of connection points: 2
#     Edge 49, Type (0, 1), BuildingBlock: UVAHIK_clean_linker_0, # of connection points: 2
#     Edge 50, Type (0, 1), BuildingBlock: UVAHIK_clean_linker_0, # of connection points: 2
#     Edge 51, Type (0, 1), BuildingBlock: UVAHIK_clean_linker_0, # of connection points: 2
#     Edge 52, Type (0, 1), BuildingBlock: UVAHIK_clean_linker_0, # of connection points: 2
#     Edge 53, Type (0, 1), BuildingBlock: UVAHIK_clean_linker_0, # of connection points: 2
#     Edge 54, Type (0, 1), BuildingBlock: UVAHIK_clean_linker_0, # of connection points: 2
#     Edge 55, Type (0, 1), BuildingBlock: UVAHIK_clean_linker_0, # of connection points: 2
#     Edge 56, Type (0, 1), BuildingBlock: UVAHIK_clean_linker_0, # of connection points: 2
#     Edge 57, Type (0, 1), BuildingBlock: UVAHIK_clean_linker_0, # of connection points: 2
#     Edge 58, Type (0, 1), BuildingBlock: UVAHIK_clean_linker_0, # of connection points: 2
#     Edge 59, Type (0, 1), BuildingBlock: UVAHIK_clean_linker_0, # of connection points: 2
#     Edge 60, Type (0, 1), BuildingBlock: UVAHIK_clean_linker_0, # of connection points: 2
#     Edge 61, Type (0, 1), BuildingBlock: UVAHIK_clean_linker_0, # of connection points: 2
#     Edge 62, Type (0, 1), BuildingBlock: UVAHIK_clean_linker_0, # of connection points: 2
#     Edge 63, Type (0, 1), BuildingBlock: UVAHIK_clean_linker_0, # of connection points: 2
#     Edge 64, Type (0, 1), BuildingBlock: UVAHIK_clean_linker_0, # of connection points: 2
#     Edge 65, Type (0, 1), BuildingBlock: UVAHIK_clean_linker_0, # of connection points: 2
#     Edge 66, Type (0, 1), BuildingBlock: UVAHIK_clean_linker_0, # of connection points: 2
#     Edge 67, Type (0, 1), BuildingBlock: UVAHIK_clean_linker_0, # of connection points: 2
#     Edge 68, Type (0, 1), BuildingBlock: UVAHIK_clean_linker_0, # of connection points: 2
#     Edge 69, Type (0, 1), BuildingBlock: UVAHIK_clean_linker_0, # of connection points: 2
#     Edge 70, Type (0, 1), BuildingBlock: UVAHIK_clean_linker_0, # of connection points: 2
#     Edge 71, Type (0, 1), BuildingBlock: UVAHIK_clean_linker_0, # of connection points: 2
#     Edge 72, Type (0, 1), BuildingBlock: UVAHIK_clean_linker_0, # of connection points: 2
#     Edge 73, Type (0, 1), BuildingBlock: UVAHIK_clean_linker_0, # of connection points: 2
#     Edge 74, Type (0, 1), BuildingBlock: UVAHIK_clean_linker_0, # of connection points: 2
#     Edge 75, Type (0, 1), BuildingBlock: UVAHIK_clean_linker_0, # of connection points: 2
#     Edge 76, Type (0, 1), BuildingBlock: UVAHIK_clean_linker_0, # of connection points: 2
#     Edge 77, Type (0, 1), BuildingBlock: UVAHIK_clean_linker_0, # of connection points: 2
#     Edge 78, Type (0, 1), BuildingBlock: UVAHIK_clean_linker_0, # of connection points: 2
#     Edge 79, Type (0, 1), BuildingBlock: UVAHIK_clean_linker_0, # of connection points: 2
#     Edge 80, Type (0, 1), BuildingBlock: UVAHIK_clean_linker_0, # of connection points: 2
#     Edge 81, Type (0, 1), BuildingBlock: UVAHIK_clean_linker_0, # of connection points: 2
#     Edge 82, Type (0, 1), BuildingBlock: UVAHIK_clean_linker_0, # of connection points: 2
#     Edge 83, Type (0, 1), BuildingBlock: UVAHIK_clean_linker_0, # of connection points: 2
#     Edge 84, Type (0, 1), BuildingBlock: UVAHIK_clean_linker_0, # of connection points: 2
#     Edge 85, Type (0, 1), BuildingBlock: UVAHIK_clean_linker_0, # of connection points: 2
#     Edge 86, Type (0, 1), BuildingBlock: UVAHIK_clean_linker_0, # of connection points: 2
#     Edge 87, Type (0, 1), BuildingBlock: UVAHIK_clean_linker_0, # of connection points: 2
#     Edge 88, Type (0, 1), BuildingBlock: UVAHIK_clean_linker_0, # of connection points: 2
#     Edge 89, Type (0, 1), BuildingBlock: UVAHIK_clean_linker_0, # of connection points: 2
#     Edge 90, Type (0, 1), BuildingBlock: UVAHIK_clean_linker_0, # of connection points: 2
#     Edge 91, Type (0, 1), BuildingBlock: UVAHIK_clean_linker_0, # of connection points: 2
#     Edge 92, Type (0, 1), BuildingBlock: UVAHIK_clean_linker_0, # of connection points: 2
#     Edge 93, Type (0, 1), BuildingBlock: UVAHIK_clean_linker_0, # of connection points: 2
#     Edge 94, Type (0, 1), BuildingBlock: UVAHIK_clean_linker_0, # of connection points: 2
#     Edge 95, Type (0, 1), BuildingBlock: UVAHIK_clean_linker_0, # of connection points: 2
#     Edge 96, Type (0, 1), BuildingBlock: UVAHIK_clean_linker_0, # of connection points: 2
#     Edge 97, Type (0, 1), BuildingBlock: UVAHIK_clean_linker_0, # of connection points: 2
#     Edge 98, Type (0, 1), BuildingBlock: UVAHIK_clean_linker_0, # of connection points: 2
#     Edge 99, Type (0, 1), BuildingBlock: UVAHIK_clean_linker_0, # of connection points: 2
#     Edge 100, Type (0, 1), BuildingBlock: UVAHIK_clean_linker_0, # of connection points: 2
#     Edge 101, Type (0, 1), BuildingBlock: UVAHIK_clean_linker_0, # of connection points: 2
#     Edge 102, Type (0, 1), BuildingBlock: UVAHIK_clean_linker_0, # of connection points: 2
#     Edge 103, Type (0, 1), BuildingBlock: UVAHIK_clean_linker_0, # of connection points: 2
#     Edge 104, Type (0, 1), BuildingBlock: UVAHIK_clean_linker_0, # of connection points: 2
#     Edge 105, Type (0, 1), BuildingBlock: UVAHIK_clean_linker_0, # of connection points: 2
#     Edge 106, Type (0, 1), BuildingBlock: UVAHIK_clean_linker_0, # of connection points: 2
#     Edge 107, Type (0, 1), BuildingBlock: UVAHIK_clean_linker_0, # of connection points: 2
# Relax obj value: 0.031
# Max RMSD: 0.095
# Mean RMSD: 0.059
data_MOF--net-ptr--node1-QUQFOY_clean_sbu_3--node2-MUDLON_clean_linker_0--edge1-UVAHIK_clean_linker_0
_symmetry_space_group_name_H-M    P1
_symmetry_Int_Tables_number       1
_symmetry_cell_setting            triclinic
loop_
_symmetry_equiv_pos_as_xyz
'x, y, z'
_cell_length_a     128.32473
_cell_length_b     128.91002
_cell_length_c     78.500724
_cell_angle_alpha  90.168671
_cell_angle_beta   89.698867
_cell_angle_gamma 120.47073
loop_
_atom_site_label
_atom_site_type_symbol
_atom_site_fract_x
_atom_site_fract_y
_atom_site_fract_z
_atom_type_partial_charge
C0 C 0.96739 0.33401 0.01657 0.0
O1 O 0.96268 0.33962 0.02341 0.0
Cd2 Cd 0.97423 0.36024 0.03248 0.0
O3 O 0.97883 0.33906 0.01491 0.0
Cd4 Cd -0.00259 0.35827 0.02243 0.0
C5 C 0.98993 0.37392 0.99552 0.0
O6 O 0.99037 0.36203 0.04965 0.0
O7 O 0.00712 0.37653 0.0397 0.0
O8 O 0.00528 0.34528 0.0304 0.0
C9 C -0.00065 0.37256 0.0516 0.0
O10 O 0.98206 0.37249 0.00668 0.0
C11 C 0.0155 0.35153 0.02321 0.0
O12 O 0.99634 0.36901 -0.00265 0.0
O13 O 0.01734 0.36093 0.01537 0.0
C14 C 0.6342 0.665 0.02147 0.0
O15 O 0.62303 0.65924 0.0178 0.0
Cd16 Cd 0.613 0.63872 0.0081 0.0
O17 O 0.6406 0.66008 0.01955 0.0
Cd18 Cd 0.63872 0.64101 0.00912 0.0
C19 C 0.61906 0.62468 0.04054 0.0
O20 O 0.62494 0.63747 0.98535 0.0
O21 O 0.62817 0.62304 0.99145 0.0
O22 O 0.65848 0.65388 0.99622 0.0
C23 C 0.62323 0.62713 0.98175 0.0
O24 O 0.61136 0.62628 0.03259 0.0
C25 C 0.66338 0.64821 0.00207 0.0
O26 O 0.62996 0.62958 0.03533 0.0
O27 O 0.65678 0.63906 0.01125 0.0
C28 C 0.33459 0.97037 0.01791 0.0
O29 O 0.34037 0.96512 0.01391 0.0
Cd30 Cd 0.36078 0.97555 0.00354 0.0
O31 O 0.33954 0.98176 0.01654 0.0
Cd32 Cd 0.35892 -0.00039 0.00737 0.0
C33 C 0.37502 0.99474 0.03732 0.0
O34 O 0.36181 0.98968 0.98302 0.0
O35 O 0.37653 0.0076 0.98808 0.0
O36 O 0.34583 0.00608 0.99528 0.0
C37 C 0.37212 -0.00171 0.97875 0.0
O38 O 0.37311 0.98574 0.02825 0.0
C39 C 0.35129 0.01665 0.00137 0.0
O40 O 0.37045 0.00117 0.03329 0.0
O41 O 0.36045 0.01945 0.01063 0.0
C42 C 0.96507 0.63563 0.00863 0.0
O43 O 0.96023 0.62505 0.01468 0.0
Cd44 Cd 0.97155 0.61611 0.02465 0.0
O45 O 0.97655 0.64226 0.00786 0.0
Cd46 Cd 0.99489 0.64142 0.01553 0.0
C47 C 0.98776 0.61826 0.98842 0.0
O48 O 0.98729 0.63061 0.04254 0.0
O49 O 0.00423 0.63293 0.03349 0.0
O50 O 0.00366 0.66251 0.02375 0.0
C51 C 0.99625 0.6292 0.04509 0.0
O52 O 0.97968 0.61168 -0.00073 0.0
C53 C 0.0137 0.66614 0.01622 0.0
O54 O 0.99414 0.62961 0.99054 0.0
O55 O 0.01492 0.6583 0.00804 0.0
C56 C 0.33645 0.36554 0.01614 0.0
O57 O 0.34176 0.37643 0.01123 0.0
Cd58 Cd 0.36214 0.38723 0.0009 0.0
O59 O 0.34179 0.35948 0.01531 0.0
Cd60 Cd 0.36133 0.36196 0.00508 0.0
C61 C 0.37746 0.38381 0.03427 0.0
O62 O 0.36306 0.37404 0.98023 0.0
O63 O 0.37839 0.37193 0.98509 0.0
O64 O 0.34915 0.3411 0.99552 0.0
C65 C 0.37342 0.37611 0.97562 0.0
O66 O 0.37514 0.39072 0.02556 0.0
C67 C 0.35613 0.33772 0.00146 0.0
O68 O 0.37313 0.37283 0.03006 0.0
O69 O 0.36549 0.3456 0.00923 0.0
C70 C 0.66225 0.02346 0.00571 0.0
O71 O 0.65681 0.02889 0.0105 0.0
Cd72 Cd 0.636 0.01819 0.01934 0.0
O73 O 0.65691 0.01201 0.00641 0.0
Cd74 Cd 0.63747 0.99448 0.01618 0.0
C75 C 0.62236 -0.00071 0.98501 0.0
O76 O 0.6335 0.00387 0.04079 0.0
O77 O 0.61893 0.9865 0.03281 0.0
O78 O 0.65038 0.98811 0.02925 0.0
C79 C 0.62289 0.9951 0.0434 0.0
O80 O 0.62427 0.00841 0.9938 0.0
C81 C 0.64482 0.9774 0.02365 0.0
O82 O 0.6266 0.99269 0.98966 0.0
O83 O 0.63568 0.97447 0.01428 0.0
C84 C 0.63259 0.66709 0.33851 0.0
O85 O 0.62703 0.67224 0.34405 0.0
Cd86 Cd 0.63709 0.69251 0.35438 0.0
O87 O 0.64409 0.67233 0.33923 0.0
Cd88 Cd 0.66149 0.69127 0.3508 0.0
C89 C 0.65712 0.70808 0.32164 0.0
O90 O 0.65083 0.69315 0.37535 0.0
O91 O 0.66859 0.70834 0.37057 0.0
O92 O 0.66908 0.67875 0.36209 0.0
C93 C 0.65923 0.70345 0.37993 0.0
O94 O 0.6476 0.70562 0.33 0.0
C95 C 0.67964 0.6849 0.35586 0.0
O96 O 0.66364 0.70368 0.326 0.0
O97 O 0.68182 0.69406 0.34709 0.0
C98 C 0.29805 -0.00029 0.35917 0.0
O99 O 0.28683 0.99427 0.35583 0.0
Cd100 Cd 0.27586 0.97429 0.34441 0.0
O101 O 0.30424 0.99466 0.3563 0.0
Cd102 Cd 0.30138 0.97543 0.34435 0.0
C103 C 0.28104 0.95838 0.37496 0.0
O104 O 0.28802 0.97409 0.32124 0.0
O105 O 0.29044 0.95884 0.32415 0.0
O106 O 0.32197 0.98804 0.33338 0.0
C107 C 0.28582 0.96391 0.31584 0.0
O108 O 0.2736 0.96067 0.36762 0.0
C109 C 0.32559 0.98088 0.33751 0.0
O110 O 0.2919 0.96307 0.36965 0.0
O111 O 0.31797 0.97119 0.34491 0.0
C112 C 0.00582 0.30521 0.34896 0.0
O113 O 0.01204 0.30085 0.34309 0.0
Cd114 Cd 0.03239 0.31249 0.3331 0.0
O115 O 0.0102 0.31657 0.3495 0.0
Cd116 Cd 0.02916 0.33523 0.34067 0.0
C117 C 0.04621 0.33008 0.36839 0.0
O118 O 0.03197 0.32684 0.31462 0.0
O119 O 0.04697 0.34417 0.32127 0.0
O120 O 0.01616 0.34259 0.33078 0.0
C121 C 0.04226 0.33556 0.31068 0.0
O122 O 0.04506 0.32194 0.35803 0.0
C123 C 0.02204 0.35289 0.3377 0.0
O124 O 0.04072 0.33586 0.36585 0.0
O125 O 0.03118 0.35494 0.34651 0.0
C126 C 0.6331 0.96058 0.34021 0.0
O127 O 0.62936 0.94978 0.34465 0.0
Cd128 Cd 0.64223 0.94269 0.35456 0.0
O129 O 0.64433 0.96848 0.34094 0.0
Cd130 Cd 0.66371 0.96985 0.34958 0.0
C131 C 0.66106 0.94942 0.31988 0.0
O132 O 0.65543 0.95726 0.37501 0.0
O133 O 0.67378 0.96255 0.36848 0.0
O134 O 0.66906 0.99013 0.35852 0.0
C135 C 0.66499 0.95721 0.37876 0.0
O136 O 0.65265 0.94148 0.32919 0.0
C137 C 0.67981 0.99525 0.35285 0.0
O138 O 0.66628 0.96053 0.32385 0.0
O139 O 0.68311 0.98857 0.34553 0.0
C140 C 0.00145 0.70226 0.35533 0.0
O141 O 0.00733 0.71354 0.35277 0.0
Cd142 Cd 0.02777 0.7241 0.34239 0.0
O143 O 0.0064 0.69595 0.35284 0.0
Cd144 Cd 0.02646 0.69919 0.34385 0.0
C145 C 0.0422 0.71934 0.37514 0.0
O146 O 0.02947 0.71248 0.31951 0.0
O147 O 0.0444 0.71008 0.32605 0.0
O148 O 0.01476 0.67872 0.33244 0.0
C149 C 0.03996 0.71443 0.31593 0.0
O150 O 0.04058 0.72686 0.3668 0.0
C151 C 0.02182 0.6753 0.33791 0.0
O152 O 0.03742 0.70845 0.37023 0.0
O153 O 0.03095 0.68292 0.34631 0.0
C154 C 0.33098 0.35912 0.34091 0.0
O155 O 0.32544 0.36404 0.34735 0.0
Cd156 Cd 0.30552 0.35305 0.35925 0.0
O157 O 0.32613 0.3477 0.34092 0.0
Cd158 Cd 0.30738 0.32943 0.35126 0.0
C159 C 0.28983 0.33488 0.32501 0.0
O160 O 0.30553 0.3384 0.37758 0.0
O161 O 0.29029 0.32102 0.3716 0.0
O162 O 0.32114 0.32262 0.3596 0.0
C163 C 0.29521 0.32981 0.38186 0.0
O164 O 0.29197 0.34342 0.33526 0.0
C165 C 0.31495 0.31205 0.35364 0.0
O166 O 0.29485 0.3286 0.32702 0.0
O167 O 0.30513 0.30946 0.34624 0.0
C168 C 0.30078 -0.00049 0.67126 0.0
O169 O 0.29484 0.00482 0.67374 0.0
Cd170 Cd 0.30332 0.0251 0.68364 0.0
O171 O 0.31213 0.00495 0.67409 0.0
Cd172 Cd 0.32835 0.02507 0.68443 0.0
C173 C 0.32468 0.04117 0.65297 0.0
O174 O 0.31623 0.02706 0.7068 0.0
O175 O 0.33376 0.04274 0.70236 0.0
O176 O 0.33844 0.01703 0.70168 0.0
C177 C 0.32409 0.03768 0.71111 0.0
O178 O 0.31461 0.03838 0.65997 0.0
C179 C 0.34802 0.02145 0.69273 0.0
O180 O 0.3312 0.03715 0.65882 0.0
O181 O 0.34846 0.02751 0.67974 0.0
C182 C 0.96461 0.33256 0.679 0.0
O183 O 0.95402 0.32645 0.67291 0.0
Cd184 Cd 0.94549 0.30621 0.66272 0.0
O185 O 0.97156 0.32818 0.67949 0.0
Cd186 Cd 0.97173 0.30969 0.67087 0.0
C187 C 0.94906 0.29271 0.69852 0.0
O188 O 0.96029 0.30593 0.64457 0.0
O189 O 0.96325 0.29171 0.65281 0.0
O190 O 0.99222 0.32333 0.66097 0.0
C191 C 0.95898 0.29565 0.64173 0.0
O192 O 0.94223 0.29396 0.68802 0.0
C193 C -0.00299 0.318 0.66823 0.0
O194 O 0.96046 0.29807 0.6961 0.0
O195 O 0.99004 0.30875 0.67703 0.0
C196 C 0.67239 0.64053 0.68119 0.0
O197 O 0.67836 0.63571 0.67602 0.0
Cd198 Cd 0.69879 0.64636 0.66626 0.0
O199 O 0.67704 0.65194 0.68099 0.0
Cd200 Cd 0.6962 0.67027 0.67147 0.0
C201 C 0.71271 0.6652 0.70062 0.0
O202 O 0.69846 0.66031 0.64683 0.0
O203 O 0.71303 0.67844 0.65039 0.0
O204 O 0.68246 0.67733 0.66348 0.0
C205 C 0.70846 0.66889 0.64159 0.0
O206 O 0.71087 0.6562 0.69159 0.0
C207 C 0.68933 0.68811 0.66833 0.0
O208 O 0.70813 0.67161 0.69653 0.0
O209 O 0.69937 0.6906 0.67487 0.0
C210 C 0.30188 0.29846 0.67302 0.0
O211 O 0.29676 0.28735 0.67668 0.0
Cd212 Cd 0.30783 0.27786 0.68544 0.0
O213 O 0.31333 0.30513 0.67398 0.0
Cd214 Cd 0.33134 0.30375 0.6818 0.0
C215 C 0.32631 0.28336 0.6507 0.0
O216 O 0.32211 0.29064 0.70664 0.0
O217 O 0.33988 0.29429 0.6993 0.0
O218 O 0.33856 0.32403 0.69259 0.0
C219 C 0.3311 0.28936 0.70969 0.0
O220 O 0.31739 0.27581 0.6597 0.0
C221 C 0.34916 0.32859 0.6865 0.0
O222 O 0.33261 0.29433 0.65528 0.0
O223 O 0.35156 0.32159 0.67815 0.0
C224 C 0.66838 0.03513 0.68458 0.0
O225 O 0.67453 0.04594 0.67945 0.0
Cd226 Cd 0.69418 0.0546 0.66651 0.0
O227 O 0.67255 0.02804 0.68319 0.0
Cd228 Cd 0.69101 0.02853 0.67226 0.0
C229 C 0.71001 0.05109 0.69882 0.0
O230 O 0.69274 0.03989 0.64653 0.0
O231 O 0.70748 0.03682 0.65114 0.0
O232 O 0.67774 0.00746 0.66398 0.0
C233 C 0.70263 0.041 0.64144 0.0
O234 O 0.70856 0.05822 0.68925 0.0
C235 C 0.68441 0.00377 0.67014 0.0
O236 O 0.70404 0.03976 0.69627 0.0
O237 O 0.69401 0.01155 0.67755 0.0
C238 C 0.99565 0.69579 0.66743 0.0
O239 O 0.99017 0.70141 0.67098 0.0
Cd240 Cd 0.96974 0.69203 0.68104 0.0
O241 O 0.99038 0.6844 0.66934 0.0
Cd242 Cd 0.97054 0.66751 0.67965 0.0
C243 C 0.95431 0.6718 0.64905 0.0
O244 O 0.96844 0.67871 0.70318 0.0
O245 O 0.95324 0.66088 0.69931 0.0
O246 O 0.98172 0.65895 0.69275 0.0
C247 C 0.95807 0.6705 0.70799 0.0
O248 O 0.9568 0.68145 0.65684 0.0
C249 C 0.97572 0.64869 0.68578 0.0
O250 O 0.95852 0.66527 0.65418 0.0
O251 O 0.96731 0.64715 0.67577 0.0
H252 H 0.21587 0.34621 0.15796 0.0
N253 N 0.2006 0.32904 0.13728 0.0
H254 H 0.22421 0.34387 0.18461 0.0
H255 H 0.19372 0.30772 0.15327 0.0
H256 H 0.20211 0.30521 0.18003 0.0
H257 H 0.2014 0.30967 0.12474 0.0
H258 H 0.21524 0.31012 0.10293 0.0
H259 H 0.21575 0.34772 0.11839 0.0
H260 H 0.23006 0.34846 0.09711 0.0
H261 H 0.18962 0.33988 0.15064 0.0
H262 H 0.18319 0.30982 0.11901 0.0
H263 H 0.16874 0.33481 0.14684 0.0
H264 H 0.16258 0.3052 0.11405 0.0
H265 H 0.11636 0.33028 0.13147 0.0
H266 H 0.10906 0.33488 0.15759 0.0
H267 H 0.09801 0.29938 0.17688 0.0
H268 H 0.10523 0.29482 0.15053 0.0
H269 H 0.09175 0.29627 0.11457 0.0
H270 H 0.08134 0.30139 0.09343 0.0
H271 H 0.11565 0.33115 0.07649 0.0
H272 H 0.12588 0.32641 0.09824 0.0
H273 H 0.1351 0.33126 0.12527 0.0
H274 H 0.15581 0.3357 0.12748 0.0
H275 H 0.14329 0.2976 0.12537 0.0
N276 N 0.11476 0.30886 0.1234 0.0
H277 H 0.12258 0.29336 0.12186 0.0
C278 C 0.20426 0.32718 0.15371 0.0
C279 C 0.2127 0.33726 0.16288 0.0
C280 C 0.21741 0.33588 0.1781 0.0
C281 C 0.21381 0.32434 0.18443 0.0
C282 C 0.20512 0.3142 0.17538 0.0
C283 C 0.20031 0.31561 0.16016 0.0
C284 C 0.20751 0.32868 0.12304 0.0
C285 C 0.20742 0.3181 0.11845 0.0
C286 C 0.21544 0.31841 0.10609 0.0
C287 C 0.22385 0.32934 0.09829 0.0
C288 C 0.22361 0.33983 0.10257 0.0
C289 C 0.21548 0.33946 0.11479 0.0
C290 C 0.18806 0.32537 0.13503 0.0
C291 C 0.1837 0.33223 0.14276 0.0
C292 C 0.17178 0.32939 0.14036 0.0
C293 C 0.16393 0.31971 0.12984 0.0
C294 C 0.16827 0.31267 0.12233 0.0
C295 C 0.18017 0.31539 0.12505 0.0
C296 C 0.11128 0.31215 0.13908 0.0
C297 C 0.11251 0.32355 0.1414 0.0
C298 C 0.10836 0.32617 0.15637 0.0
C299 C 0.1029 0.31747 0.16926 0.0
C300 C 0.10201 0.30621 0.16707 0.0
C301 C 0.10617 0.3036 0.15212 0.0
C302 C 0.10957 0.31095 0.10838 0.0
C303 C 0.09704 0.30378 0.10609 0.0
C304 C 0.0911 0.30671 0.09387 0.0
C305 C 0.0976 0.31681 0.08327 0.0
C306 C 0.11028 0.32351 0.08472 0.0
C307 C 0.1162 0.32071 0.09722 0.0
C308 C 0.12726 0.31194 0.12301 0.0
C309 C 0.13681 0.32387 0.12482 0.0
C310 C 0.1487 0.32638 0.1264 0.0
C311 C 0.15132 0.31702 0.12683 0.0
C312 C 0.14173 0.30509 0.12484 0.0
C313 C 0.12986 0.30262 0.12286 0.0
H314 H 0.71267 0.80137 0.14886 0.0
N315 N 0.7004 0.81047 0.13443 0.0
H316 H 0.70784 0.78981 0.1752 0.0
H317 H 0.68266 0.80694 0.15729 0.0
H318 H 0.67809 0.79594 0.18416 0.0
H319 H 0.67667 0.79294 0.13072 0.0
H320 H 0.66875 0.77627 0.1106 0.0
H321 H 0.71208 0.80797 0.1081 0.0
H322 H 0.70414 0.79145 0.08739 0.0
H323 H 0.71599 0.83173 0.14759 0.0
H324 H 0.68296 0.8137 0.1186 0.0
H325 H 0.71542 0.85032 0.14657 0.0
H326 H 0.68282 0.83235 0.11641 0.0
H327 H 0.71229 0.91019 0.14145 0.0
H328 H 0.70875 0.91879 0.16704 0.0
H329 H 0.67978 0.88342 0.18159 0.0
H330 H 0.68289 0.87513 0.15564 0.0
H331 H 0.67557 0.8814 0.12719 0.0
H332 H 0.66748 0.88979 0.10683 0.0
H333 H 0.70229 0.90869 0.08171 0.0
H334 H 0.71035 0.9004 0.1024 0.0
H335 H 0.71833 0.8849 0.12954 0.0
H336 H 0.71857 0.86609 0.12945 0.0
H337 H 0.67943 0.84616 0.1303 0.0
N338 N 0.69933 0.88777 0.1301 0.0
H339 H 0.67941 0.86502 0.12902 0.0
C340 C 0.69813 0.80509 0.15116 0.0
C341 C 0.70522 0.80034 0.15667 0.0
C342 C 0.70245 0.79378 0.1718 0.0
C343 C 0.69255 0.7919 0.1819 0.0
C344 C 0.68566 0.79702 0.17661 0.0
C345 C 0.68835 0.80346 0.16133 0.0
C346 C 0.69504 0.80167 0.12097 0.0
C347 C 0.6827 0.79278 0.12117 0.0
C348 C 0.67816 0.78327 0.10954 0.0
C349 C 0.68583 0.78245 0.09744 0.0
C350 C 0.69803 0.7917 0.09672 0.0
C351 C 0.70257 0.8012 0.10841 0.0
C352 C 0.69965 0.82127 0.13314 0.0
C353 C 0.7087 0.83182 0.14082 0.0
C354 C 0.70841 0.84249 0.14005 0.0
C355 C 0.69914 0.84298 0.13122 0.0
C356 C 0.69003 0.83237 0.12352 0.0
C357 C 0.69018 0.82161 0.12463 0.0
C358 C 0.69798 0.89203 0.14655 0.0
C359 C 0.7053 0.9043 0.15032 0.0
C360 C 0.70327 0.90918 0.16502 0.0
C361 C 0.69392 0.90183 0.17643 0.0
C362 C 0.6869 0.88943 0.17296 0.0
C363 C 0.6888 0.8846 0.15812 0.0
C364 C 0.69362 0.89037 0.11634 0.0
C365 C 0.68136 0.88706 0.11701 0.0
C366 C 0.67674 0.89186 0.10533 0.0
C367 C 0.6843 0.90004 0.09279 0.0
C368 C 0.6963 0.90258 0.09139 0.0
C369 C 0.70089 0.89779 0.10308 0.0
C370 C 0.69892 0.8764 0.12952 0.0
C371 C 0.70983 0.87643 0.12956 0.0
C372 C 0.70991 0.86564 0.12971 0.0
C373 C 0.69901 0.85449 0.13015 0.0
C374 C 0.68803 0.8545 0.12979 0.0
C375 C 0.68798 0.86533 0.12925 0.0
H376 H 0.12823 0.77938 0.14062 0.0
N377 N 0.12895 0.79768 0.12409 0.0
H378 H 0.11721 0.76982 0.16693 0.0
H379 H 0.1163 0.80514 0.14402 0.0
H380 H 0.10561 0.79592 0.1704 0.0
H381 H 0.10536 0.79139 0.11836 0.0
H382 H 0.0925 0.77815 0.09604 0.0
H383 H 0.13611 0.79133 0.09615 0.0
H384 H 0.12354 0.77897 0.07263 0.0
H385 H 0.15265 0.8086 0.12796 0.0
H386 H 0.12373 0.81542 0.11777 0.0
H387 H 0.16713 0.83018 0.1281 0.0
H388 H 0.13796 0.83711 0.11913 0.0
H389 H 0.2081 0.8866 0.14185 0.0
H390 H 0.21848 0.89586 0.16827 0.0
H391 H 0.19186 0.906 0.17967 0.0
H392 H 0.18156 0.89685 0.15276 0.0
H393 H 0.19755 0.90799 0.11483 0.0
H394 H 0.2144 0.91742 0.09476 0.0
H395 H 0.21461 0.88403 0.09111 0.0
H396 H 0.19838 0.875 0.112 0.0
H397 H 0.18785 0.86788 0.1474 0.0
H398 H 0.17313 0.84677 0.14544 0.0
H399 H 0.15416 0.85419 0.10637 0.0
N400 N 0.18815 0.88639 0.12904 0.0
H401 H 0.16869 0.87572 0.10926 0.0
C402 C 0.1232 0.793 0.14036 0.0
C403 C 0.1234 0.78309 0.1472 0.0
C404 C 0.11714 0.77768 0.16225 0.0
C405 C 0.11051 0.7821 0.17075 0.0
C406 C 0.11051 0.7922 0.16405 0.0
C407 C 0.11676 0.79759 0.14901 0.0
C408 C 0.12166 0.792 0.10926 0.0
C409 C 0.10943 0.78874 0.10845 0.0
C410 C 0.10206 0.78124 0.09542 0.0
C411 C 0.10684 0.77715 0.08258 0.0
C412 C 0.11937 0.78148 0.08258 0.0
C413 C 0.12664 0.7887 0.09589 0.0
C414 C 0.13716 0.81046 0.12316 0.0
C415 C 0.14946 0.81483 0.12587 0.0
C416 C 0.15768 0.82717 0.12613 0.0
C417 C 0.15373 0.83548 0.124 0.0
C418 C 0.14138 0.83104 0.12077 0.0
C419 C 0.13318 0.81863 0.12017 0.0
C420 C 0.19401 0.89106 0.14526 0.0
C421 C 0.20444 0.89077 0.15 0.0
C422 C 0.21033 0.89599 0.16523 0.0
C423 C 0.20599 0.90165 0.17611 0.0
C424 C 0.19549 0.9018 0.17149 0.0
C425 C 0.18955 0.89652 0.15621 0.0
C426 C 0.19663 0.89082 0.11495 0.0
C427 C 0.20112 0.90268 0.10944 0.0
C428 C 0.21074 0.90802 0.09788 0.0
C429 C 0.21599 0.90154 0.09134 0.0
C430 C 0.21101 0.88941 0.09614 0.0
C431 C 0.20155 0.88415 0.10795 0.0
C432 C 0.17937 0.87361 0.12857 0.0
C433 C 0.18051 0.86516 0.13854 0.0
C434 C 0.17209 0.8529 0.13722 0.0
C435 C 0.16246 0.84865 0.12561 0.0
C436 C 0.16133 0.85709 0.11563 0.0
C437 C 0.16967 0.86941 0.11719 0.0
H438 H 0.35613 0.2226 0.87906 0.0
N439 N 0.33843 0.20441 0.89613 0.0
H440 H 0.35455 0.23194 0.85285 0.0
H441 H 0.31815 0.19613 0.87616 0.0
H442 H 0.31657 0.20513 0.84985 0.0
H443 H 0.321 0.21041 0.90159 0.0
H444 H 0.32164 0.2243 0.92303 0.0
H445 H 0.35253 0.21205 0.92341 0.0
H446 H 0.35263 0.22511 0.94606 0.0
H447 H 0.35117 0.19351 0.8944 0.0
H448 H 0.31509 0.1868 0.90276 0.0
H449 H 0.34388 0.17204 0.89686 0.0
H450 H 0.30741 0.16517 0.90372 0.0
H451 H 0.3251 0.11369 0.88524 0.0
H452 H 0.32543 0.10449 0.85846 0.0
H453 H 0.28913 0.09658 0.84784 0.0
H454 H 0.28878 0.10579 0.87515 0.0
H455 H 0.29061 0.09605 0.91593 0.0
H456 H 0.29528 0.08482 0.93656 0.0
H457 H 0.3332 0.11185 0.93303 0.0
H458 H 0.32834 0.12326 0.91312 0.0
H459 H 0.32639 0.13322 0.88171 0.0
H460 H 0.33366 0.15447 0.88192 0.0
H461 H 0.30577 0.1488 0.91825 0.0
N462 N 0.30619 0.11546 0.89854 0.0
H463 H 0.29786 0.12712 0.91685 0.0
C464 C 0.33735 0.20865 0.87959 0.0
C465 C 0.34753 0.21866 0.87256 0.0
C466 C 0.3466 0.22394 0.85757 0.0
C467 C 0.33541 0.2193 0.84927 0.0
C468 C 0.32528 0.20903 0.85605 0.0
C469 C 0.32622 0.20377 0.87106 0.0
C470 C 0.33702 0.21054 0.91056 0.0
C471 C 0.32792 0.21355 0.91124 0.0
C472 C 0.32822 0.22143 0.92376 0.0
C473 C 0.33739 0.22615 0.93619 0.0
C474 C 0.34572 0.22209 0.93638 0.0
C475 C 0.34561 0.21449 0.92358 0.0
C476 C 0.33367 0.19169 0.89799 0.0
C477 C 0.34162 0.18732 0.89654 0.0
C478 C 0.33738 0.17502 0.89779 0.0
C479 C 0.32497 0.16673 0.90015 0.0
C480 C 0.31702 0.17121 0.90201 0.0
C481 C 0.32136 0.18358 0.90119 0.0
C482 C 0.30684 0.11045 0.88232 0.0
C483 C 0.31717 0.11001 0.87728 0.0
C484 C 0.31741 0.10482 0.8618 0.0
C485 C 0.30734 0.09987 0.85097 0.0
C486 C 0.29701 0.10028 0.85596 0.0
C487 C 0.29681 0.10557 0.87148 0.0
C488 C 0.30909 0.11037 0.91283 0.0
C489 C 0.29988 0.09968 0.92 0.0
C490 C 0.30259 0.09323 0.93164 0.0
C491 C 0.31466 0.09728 0.93619 0.0
C492 C 0.32381 0.10846 0.9299 0.0
C493 C 0.32105 0.11498 0.9184 0.0
C494 C 0.31132 0.12837 0.89906 0.0
C495 C 0.32168 0.13638 0.88963 0.0
C496 C 0.326 0.14873 0.88996 0.0
C497 C 0.32036 0.15351 0.90012 0.0
C498 C 0.31023 0.14551 0.90996 0.0
C499 C 0.30574 0.1331 0.90932 0.0
H500 H 0.8007 0.12497 0.86632 0.0
N501 N 0.80736 0.11335 0.88919 0.0
H502 H 0.79098 0.11718 0.839 0.0
H503 H 0.80446 0.09386 0.87315 0.0
H504 H 0.7951 0.08614 0.84535 0.0
H505 H 0.80566 0.09981 0.91588 0.0
H506 H 0.78804 0.08832 0.93457 0.0
H507 H 0.78665 0.11471 0.88994 0.0
H508 H 0.76928 0.10345 0.90845 0.0
H509 H 0.80445 0.13199 0.90122 0.0
H510 H 0.8307 0.12342 0.8817 0.0
H511 H 0.81981 0.15305 0.90251 0.0
H512 H 0.84615 0.14478 0.88222 0.0
H513 H 0.86599 0.21656 0.87011 0.0
H514 H 0.87672 0.22642 0.84384 0.0
H515 H 0.89595 0.20697 0.84601 0.0
H516 H 0.88513 0.19718 0.87243 0.0
H517 H 0.88963 0.20328 0.90192 0.0
H518 H 0.90189 0.21649 0.92505 0.0
H519 H 0.87569 0.2278 0.93242 0.0
H520 H 0.86335 0.21422 0.90967 0.0
H521 H 0.84554 0.1907 0.8828 0.0
H522 H 0.83067 0.16921 0.88363 0.0
H523 H 0.85863 0.16195 0.8993 0.0
N524 N 0.86894 0.20139 0.88922 0.0
H525 H 0.8735 0.18346 0.89762 0.0
C526 C 0.80328 0.10994 0.87186 0.0
C527 C 0.7997 0.11658 0.86177 0.0
C528 C 0.79417 0.11212 0.84603 0.0
C529 C 0.79216 0.10097 0.83998 0.0
C530 C 0.79629 0.09465 0.84974 0.0
C531 C 0.80176 0.09908 0.86554 0.0
C532 C 0.79755 0.10808 0.90144 0.0
C533 C 0.79781 0.10078 0.91443 0.0
C534 C 0.78776 0.09424 0.92507 0.0
C535 C 0.77722 0.09486 0.92281 0.0
C536 C 0.77717 0.1026 0.91029 0.0
C537 C 0.78718 0.10911 0.89972 0.0
C538 C 0.81638 0.12593 0.8914 0.0
C539 C 0.8135 0.13453 0.89725 0.0
C540 C 0.82235 0.14672 0.89783 0.0
C541 C 0.83424 0.15069 0.89231 0.0
C542 C 0.83715 0.14208 0.88677 0.0
C543 C 0.82832 0.12986 0.88639 0.0
C544 C 0.87477 0.2062 0.87314 0.0
C545 C 0.87242 0.21434 0.86476 0.0
C546 C 0.87853 0.21991 0.84975 0.0
C547 C 0.88718 0.21745 0.84281 0.0
C548 C 0.88942 0.20912 0.85113 0.0
C549 C 0.88322 0.20349 0.86617 0.0
C550 C 0.87552 0.20774 0.90418 0.0
C551 C 0.88638 0.20835 0.90881 0.0
C552 C 0.89345 0.21603 0.92194 0.0
C553 C 0.88984 0.22329 0.93057 0.0
C554 C 0.8787 0.22224 0.92629 0.0
C555 C 0.87164 0.21452 0.91325 0.0
C556 C 0.86054 0.18867 0.89029 0.0
C557 C 0.84841 0.18443 0.88643 0.0
C558 C 0.83992 0.17215 0.88707 0.0
C559 C 0.84339 0.1638 0.89173 0.0
C560 C 0.85563 0.16809 0.89554 0.0
C561 C 0.86416 0.18042 0.89473 0.0
H562 H 0.79903 0.71378 0.88141 0.0
N563 N 0.80792 0.70119 0.89535 0.0
H564 H 0.78757 0.70951 0.85505 0.0
H565 H 0.80335 0.68316 0.87271 0.0
H566 H 0.79252 0.67917 0.8458 0.0
H567 H 0.79003 0.67782 0.90041 0.0
H568 H 0.77392 0.6707 0.92171 0.0
H569 H 0.80657 0.71357 0.92154 0.0
H570 H 0.79056 0.70647 0.94318 0.0
H571 H 0.82919 0.71669 0.88185 0.0
H572 H 0.81094 0.68333 0.90989 0.0
H573 H 0.84757 0.71559 0.88129 0.0
H574 H 0.82944 0.68261 0.91052 0.0
H575 H 0.90636 0.71147 0.88062 0.0
H576 H 0.91459 0.70831 0.85428 0.0
H577 H 0.87935 0.67808 0.84212 0.0
H578 H 0.87142 0.68095 0.86874 0.0
H579 H 0.87737 0.67401 0.89613 0.0
H580 H 0.88518 0.66538 0.91647 0.0
H581 H 0.90537 0.69993 0.94141 0.0
H582 H 0.8977 0.70856 0.92065 0.0
H583 H 0.88215 0.71712 0.89555 0.0
H584 H 0.86359 0.71793 0.89729 0.0
H585 H 0.84263 0.67903 0.89496 0.0
N586 N 0.88436 0.69784 0.89342 0.0
H587 H 0.86126 0.67839 0.89463 0.0
C588 C 0.80213 0.69891 0.87894 0.0
C589 C 0.79769 0.70628 0.87358 0.0
C590 C 0.79121 0.70384 0.85843 0.0
C591 C 0.78912 0.69401 0.84816 0.0
C592 C 0.79378 0.68672 0.85345 0.0
C593 C 0.80012 0.68907 0.86876 0.0
C594 C 0.79949 0.69628 0.90938 0.0
C595 C 0.79034 0.68408 0.90989 0.0
C596 C 0.78116 0.68 0.92214 0.0
C597 C 0.78091 0.68805 0.93405 0.0
C598 C 0.79041 0.7001 0.93404 0.0
C599 C 0.79961 0.70415 0.9218 0.0
C600 C 0.81867 0.70024 0.896 0.0
C601 C 0.82921 0.70923 0.88812 0.0
C602 C 0.83976 0.70862 0.88796 0.0
C603 C 0.84013 0.69906 0.89602 0.0
C604 C 0.82953 0.69003 0.90397 0.0
C605 C 0.81888 0.69052 0.90379 0.0
C606 C 0.8883 0.69657 0.87669 0.0
C607 C 0.9004 0.70428 0.87211 0.0
C608 C 0.90506 0.70247 0.857 0.0
C609 C 0.89765 0.6929 0.84603 0.0
C610 C 0.88538 0.68541 0.85037 0.0
C611 C 0.88077 0.68716 0.86559 0.0
C612 C 0.88704 0.69198 0.90686 0.0
C613 C 0.88326 0.67967 0.90618 0.0
C614 C 0.88773 0.67473 0.91787 0.0
C615 C 0.89602 0.682 0.93045 0.0
C616 C 0.89917 0.69414 0.93169 0.0
C617 C 0.89473 0.69906 0.91997 0.0
C618 C 0.87312 0.69776 0.89468 0.0
C619 C 0.87352 0.70879 0.89552 0.0
C620 C 0.86287 0.70921 0.89634 0.0
C621 C 0.8515 0.69855 0.896 0.0
C622 C 0.85115 0.68744 0.89541 0.0
C623 C 0.86185 0.68705 0.89498 0.0
H624 H 0.75388 0.62372 0.46926 0.0
N625 N 0.77534 0.63569 0.45417 0.0
H626 H 0.74751 0.62875 0.49587 0.0
H627 H 0.78991 0.65391 0.47598 0.0
H628 H 0.78378 0.65879 0.50298 0.0
H629 H 0.7843 0.65972 0.44845 0.0
H630 H 0.77618 0.66829 0.42856 0.0
H631 H 0.75942 0.62416 0.42961 0.0
H632 H 0.75089 0.63259 0.41003 0.0
H633 H 0.77887 0.6189 0.46753 0.0
H634 H 0.7973 0.65224 0.43948 0.0
H635 H 0.79763 0.61854 0.46919 0.0
H636 H 0.81583 0.65159 0.44014 0.0
H637 H 0.859 0.61978 0.47702 0.0
H638 H 0.87039 0.62327 0.50329 0.0
H639 H 0.86822 0.6552 0.51266 0.0
H640 H 0.85753 0.65201 0.48602 0.0
H641 H 0.86921 0.65799 0.45716 0.0
H642 H 0.88633 0.66593 0.43741 0.0
H643 H 0.87466 0.62991 0.42001 0.0
H644 H 0.85712 0.622 0.43929 0.0
H645 H 0.83049 0.61547 0.45863 0.0
H646 H 0.81164 0.61552 0.45469 0.0
H647 H 0.83144 0.65439 0.45795 0.0
N648 N 0.85257 0.63419 0.46249 0.0
H649 H 0.85015 0.65423 0.46062 0.0
C650 C 0.77232 0.63835 0.47071 0.0
C651 C 0.76045 0.6313 0.47669 0.0
C652 C 0.75687 0.63417 0.49195 0.0
C653 C 0.76514 0.64417 0.50163 0.0
C654 C 0.77714 0.65112 0.49575 0.0
C655 C 0.78069 0.64828 0.48039 0.0
C656 C 0.77249 0.64124 0.44043 0.0
C657 C 0.77727 0.65376 0.43975 0.0
C658 C 0.7725 0.65865 0.42848 0.0
C659 C 0.76275 0.65113 0.41783 0.0
C660 C 0.75847 0.63869 0.41789 0.0
C661 C 0.76332 0.63383 0.42908 0.0
C662 C 0.78652 0.63552 0.45342 0.0
C663 C 0.78692 0.62603 0.46146 0.0
C664 C 0.79767 0.62581 0.46228 0.0
C665 C 0.80834 0.63503 0.45478 0.0
C666 C 0.80789 0.64443 0.44636 0.0
C667 C 0.79716 0.64476 0.44582 0.0
C668 C 0.85731 0.63552 0.47948 0.0
C669 C 0.86081 0.6274 0.48495 0.0
C670 C 0.8673 0.62941 0.50003 0.0
C671 C 0.87035 0.63959 0.51014 0.0
C672 C 0.86628 0.64741 0.50506 0.0
C673 C 0.85997 0.64548 0.48982 0.0
C674 C 0.86169 0.63938 0.44939 0.0
C675 C 0.86997 0.65183 0.44859 0.0
C676 C 0.87983 0.65637 0.43741 0.0
C677 C 0.88174 0.64851 0.42722 0.0
C678 C 0.87332 0.63612 0.42772 0.0
C679 C 0.86332 0.63162 0.43862 0.0
C680 C 0.84173 0.63476 0.46018 0.0
C681 C 0.83071 0.62398 0.4584 0.0
C682 C 0.81994 0.62405 0.45629 0.0
C683 C 0.81992 0.63496 0.45615 0.0
C684 C 0.83104 0.6458 0.45775 0.0
C685 C 0.84183 0.64571 0.45954 0.0
H686 H 0.38126 0.13772 0.48254 0.0
N687 N 0.36817 0.1465 0.46996 0.0
H688 H 0.37739 0.1259 0.50849 0.0
H689 H 0.35197 0.14365 0.4954 0.0
H690 H 0.34844 0.13242 0.52161 0.0
H691 H 0.34434 0.12881 0.46864 0.0
H692 H 0.33554 0.11172 0.44922 0.0
H693 H 0.37853 0.14358 0.44242 0.0
H694 H 0.3697 0.12659 0.42252 0.0
H695 H 0.38703 0.16854 0.46699 0.0
H696 H 0.3481 0.14891 0.46834 0.0
H697 H 0.38705 0.18736 0.46359 0.0
H698 H 0.34796 0.16765 0.46627 0.0
H699 H 0.37981 0.24624 0.47374 0.0
H700 H 0.37466 0.25375 0.49909 0.0
H701 H 0.34494 0.21782 0.50942 0.0
H702 H 0.3498 0.21062 0.48349 0.0
H703 H 0.34444 0.21734 0.4549 0.0
H704 H 0.33719 0.22532 0.43272 0.0
H705 H 0.37328 0.24507 0.41152 0.0
H706 H 0.38051 0.23727 0.43416 0.0
H707 H 0.38433 0.2202 0.47539 0.0
H708 H 0.3841 0.20127 0.4779 0.0
H709 H 0.35086 0.18343 0.44909 0.0
N710 N 0.36807 0.22416 0.4609 0.0
H711 H 0.35073 0.20217 0.44777 0.0
C712 C 0.36699 0.14164 0.48689 0.0
C713 C 0.37424 0.13679 0.49122 0.0
C714 C 0.37202 0.13005 0.5061 0.0
C715 C 0.36251 0.12808 0.51712 0.0
C716 C 0.35568 0.13353 0.51326 0.0
C717 C 0.35781 0.14013 0.49825 0.0
C718 C 0.36215 0.13747 0.45699 0.0
C719 C 0.34987 0.12856 0.45839 0.0
C720 C 0.34483 0.11877 0.44721 0.0
C721 C 0.35194 0.11771 0.4344 0.0
C722 C 0.36403 0.12702 0.43244 0.0
C723 C 0.36906 0.13678 0.44366 0.0
C724 C 0.36764 0.15735 0.46818 0.0
C725 C 0.37849 0.16834 0.46679 0.0
C726 C 0.37846 0.1791 0.46499 0.0
C727 C 0.3675 0.17915 0.46485 0.0
C728 C 0.35658 0.16805 0.46611 0.0
C729 C 0.35664 0.15726 0.46754 0.0
C730 C 0.36531 0.22791 0.47681 0.0
C731 C 0.37225 0.24001 0.4816 0.0
C732 C 0.36931 0.24424 0.49617 0.0
C733 C 0.35938 0.2364 0.50642 0.0
C734 C 0.35254 0.22418 0.50174 0.0
C735 C 0.35539 0.21999 0.487 0.0
C736 C 0.36308 0.22682 0.44624 0.0
C737 C 0.35075 0.22321 0.4453 0.0
C738 C 0.3466 0.22773 0.43252 0.0
C739 C 0.35468 0.23595 0.42044 0.0
C740 C 0.36686 0.23892 0.4208 0.0
C741 C 0.37099 0.23441 0.43361 0.0
C742 C 0.36768 0.21275 0.46128 0.0
C743 C 0.377 0.21218 0.46962 0.0
C744 C 0.37689 0.20133 0.4709 0.0
C745 C 0.36751 0.19072 0.46356 0.0
C746 C 0.35816 0.19131 0.45513 0.0
C747 C 0.35815 0.20215 0.45417 0.0
H748 H 0.77834 0.11714 0.46083 0.0
N749 N 0.77951 0.13843 0.45328 0.0
H750 H 0.76967 0.10508 0.48648 0.0
H751 H 0.77089 0.14399 0.48049 0.0
H752 H 0.76223 0.13196 0.50639 0.0
H753 H 0.75687 0.1302 0.44392 0.0
H754 H 0.74536 0.11491 0.42265 0.0
H755 H 0.78925 0.13036 0.42829 0.0
H756 H 0.778 0.11565 0.40648 0.0
H757 H 0.79802 0.13367 0.45595 0.0
H758 H 0.79004 0.16219 0.45088 0.0
H759 H 0.81945 0.14831 0.45728 0.0
H760 H 0.81156 0.17711 0.45337 0.0
H761 H 0.8854 0.19792 0.48203 0.0
H762 H 0.89441 0.20962 0.50786 0.0
H763 H 0.86929 0.22261 0.5062 0.0
H764 H 0.86047 0.21095 0.48009 0.0
H765 H 0.87033 0.21884 0.45232 0.0
H766 H 0.88454 0.23258 0.4311 0.0
H767 H 0.89684 0.20747 0.42141 0.0
H768 H 0.88221 0.19359 0.44218 0.0
H769 H 0.85549 0.17648 0.47789 0.0
H770 H 0.8339 0.16221 0.47551 0.0
H771 H 0.83063 0.1863 0.44059 0.0
N772 N 0.86834 0.1977 0.46296 0.0
H773 H 0.85197 0.20079 0.44398 0.0
C774 C 0.77526 0.13151 0.46879 0.0
C775 C 0.77503 0.12054 0.47081 0.0
C776 C 0.77008 0.11365 0.48551 0.0
C777 C 0.76523 0.11755 0.49844 0.0
C778 C 0.76575 0.12865 0.49655 0.0
C779 C 0.77075 0.13556 0.48186 0.0
C780 C 0.77389 0.1314 0.4381 0.0
C781 C 0.76158 0.12722 0.43556 0.0
C782 C 0.75501 0.11848 0.42328 0.0
C783 C 0.76068 0.11384 0.41291 0.0
C784 C 0.77323 0.11872 0.41455 0.0
C785 C 0.77976 0.1273 0.42708 0.0
C786 C 0.79238 0.14683 0.45301 0.0
C787 C 0.80087 0.1431 0.45507 0.0
C788 C 0.81319 0.15156 0.45608 0.0
C789 C 0.81733 0.16398 0.4556 0.0
C790 C 0.80879 0.16766 0.4535 0.0
C791 C 0.79647 0.15916 0.45214 0.0
C792 C 0.87232 0.20357 0.47921 0.0
C793 C 0.88174 0.20315 0.48744 0.0
C794 C 0.88683 0.2098 0.50222 0.0
C795 C 0.88257 0.21706 0.50911 0.0
C796 C 0.87286 0.21721 0.50111 0.0
C797 C 0.86776 0.21052 0.48627 0.0
C798 C 0.87517 0.20512 0.44873 0.0
C799 C 0.87586 0.21616 0.44531 0.0
C800 C 0.88409 0.22407 0.43327 0.0
C801 C 0.89194 0.22121 0.42462 0.0
C802 C 0.89084 0.20993 0.4276 0.0
C803 C 0.88252 0.20198 0.4395 0.0
C804 C 0.85548 0.18967 0.46108 0.0
C805 C 0.85007 0.17868 0.4698 0.0
C806 C 0.83773 0.17048 0.46825 0.0
C807 C 0.83046 0.17297 0.45764 0.0
C808 C 0.83586 0.18408 0.44902 0.0
C809 C 0.84821 0.1924 0.45085 0.0
H810 H 0.01186 0.55745 0.21836 0.0
N811 N 0.99181 0.537 0.22984 0.0
H812 H 0.01332 0.56847 0.19236 0.0
H813 H 0.97562 0.53003 0.20504 0.0
H814 H 0.97703 0.54096 0.17882 0.0
H815 H 0.97698 0.54413 0.24104 0.0
H816 H 0.98125 0.55996 0.26153 0.0
H817 H 0.01183 0.54805 0.2508 0.0
H818 H 0.01585 0.56323 0.27219 0.0
H819 H 0.01448 0.54068 0.2232 0.0
H820 H 0.97833 0.51402 0.23846 0.0
H821 H 0.02058 0.52564 0.2243 0.0
H822 H 0.98421 0.49869 0.23896 0.0
H823 H 0.03305 0.47222 0.21236 0.0
H824 H 0.02926 0.45963 0.18714 0.0
H825 H 0.99178 0.45021 0.18791 0.0
H826 H 0.99568 0.46279 0.21327 0.0
H827 H 0.99545 0.45648 0.24224 0.0
H828 H 0.99273 0.44156 0.26349 0.0
H829 H 0.0314 0.46036 0.27145 0.0
H830 H 0.03389 0.47556 0.25075 0.0
H831 H 0.02409 0.49343 0.20939 0.0
H832 H 0.01807 0.50856 0.20931 0.0
H833 H 0.99591 0.49209 0.2539 0.0
N834 N 0.01709 0.47494 0.2305 0.0
H835 H 0.00154 0.47683 0.25367 0.0
C836 C 0.99358 0.54289 0.21361 0.0
C837 C 0.00432 0.55365 0.20963 0.0
C838 C 0.00514 0.55995 0.19474 0.0
C839 C 0.99525 0.55563 0.1836 0.0
C840 C 0.98474 0.54461 0.18728 0.0
C841 C 0.98394 0.53831 0.20214 0.0
C842 C 0.99398 0.54481 0.24428 0.0
C843 C 0.98539 0.54814 0.24803 0.0
C844 C 0.98786 0.55719 0.25988 0.0
C845 C -0.00104 0.56302 0.26858 0.0
C846 C 0.00732 0.55919 0.2655 0.0
C847 C 0.00494 0.55031 0.25334 0.0
C848 C 0.9959 0.52847 0.23084 0.0
C849 C 0.00783 0.53158 0.22677 0.0
C850 C 0.01129 0.5229 0.22727 0.0
C851 C 0.00289 0.5109 0.23164 0.0
C852 C 0.99098 0.50786 0.23579 0.0
C853 C 0.98757 0.51658 0.23543 0.0
C854 C 0.0147 0.46843 0.21466 0.0
C855 C 0.02407 0.46756 0.20691 0.0
C856 C 0.02188 0.46039 0.19249 0.0
C857 C 0.0102 0.4539 0.18553 0.0
C858 C 0.00084 0.45499 0.1931 0.0
C859 C 0.00306 0.46221 0.20753 0.0
C860 C 0.01491 0.46722 0.24501 0.0
C861 C 0.0033 0.45756 0.24889 0.0
C862 C 0.00178 0.44896 0.26096 0.0
C863 C 0.01186 0.44962 0.26909 0.0
C864 C 0.0234 0.4596 0.26569 0.0
C865 C 0.02487 0.4683 0.25381 0.0
C866 C 0.01314 0.48368 0.23117 0.0
C867 C 0.01783 0.493 0.21906 0.0
C868 C 0.01447 0.50174 0.21915 0.0
C869 C 0.00646 0.50156 0.23159 0.0
C870 C 0.00189 0.49237 0.24391 0.0
C871 C 0.00517 0.48355 0.24374 0.0
H872 H 0.57896 0.53198 0.2154 0.0
N873 N 0.55598 0.52099 0.22526 0.0
H874 H 0.58775 0.54375 0.1895 0.0
H875 H 0.54325 0.52127 0.19705 0.0
H876 H 0.55187 0.53244 0.17102 0.0
H877 H 0.55222 0.54001 0.22179 0.0
H878 H 0.5594 0.55707 0.24084 0.0
H879 H 0.56413 0.52251 0.25682 0.0
H880 H 0.5704 0.53912 0.27692 0.0
H881 H 0.5523 0.49888 0.2279 0.0
H882 H 0.53348 0.51857 0.22516 0.0
H883 H 0.53301 0.47996 0.22926 0.0
H884 H 0.51414 0.49974 0.22536 0.0
H885 H 0.46685 0.42169 0.21053 0.0
H886 H 0.45569 0.41505 0.18384 0.0
H887 H 0.46344 0.45135 0.17448 0.0
H888 H 0.47405 0.45771 0.20165 0.0
H889 H 0.46055 0.45133 0.22831 0.0
H890 H 0.44316 0.44316 0.24749 0.0
H891 H 0.45409 0.41945 0.26942 0.0
H892 H 0.47169 0.42793 0.25039 0.0
H893 H 0.49763 0.44781 0.21243 0.0
H894 H 0.51682 0.46676 0.21261 0.0
H895 H 0.50011 0.48328 0.24116 0.0
N896 N 0.4765 0.44325 0.22487 0.0
H897 H 0.48089 0.46463 0.23996 0.0
C898 C 0.56047 0.52572 0.20839 0.0
C899 C 0.573 0.53185 0.20558 0.0
C900 C 0.578 0.53856 0.19073 0.0
C901 C 0.57053 0.53919 0.17823 0.0
C902 C 0.55792 0.5324 0.18055 0.0
C903 C 0.55294 0.52583 0.19548 0.0
C904 C 0.55797 0.5301 0.23768 0.0
C905 C 0.55614 0.53971 0.23381 0.0
C906 C 0.56016 0.54947 0.24492 0.0
C907 C 0.56575 0.5497 0.26044 0.0
C908 C 0.56657 0.53955 0.26487 0.0
C909 C 0.56284 0.52994 0.25352 0.0
C910 C 0.54435 0.51009 0.22626 0.0
C911 C 0.54397 0.49908 0.22745 0.0
C912 C 0.53291 0.48827 0.22807 0.0
C913 C 0.52192 0.48823 0.22722 0.0
C914 C 0.52235 0.49935 0.22627 0.0
C915 C 0.53344 0.51017 0.22599 0.0
C916 C 0.47134 0.44015 0.20803 0.0
C917 C 0.46626 0.42821 0.20256 0.0
C918 C 0.45993 0.42447 0.18724 0.0
C919 C 0.45863 0.43265 0.17692 0.0
C920 C 0.46408 0.44475 0.18219 0.0
C921 C 0.47029 0.44844 0.19765 0.0
C922 C 0.46746 0.44024 0.23797 0.0
C923 C 0.45938 0.44458 0.23752 0.0
C924 C 0.44936 0.43981 0.2484 0.0
C925 C 0.44714 0.43053 0.25984 0.0
C926 C 0.45558 0.42666 0.26088 0.0
C927 C 0.46564 0.43148 0.25002 0.0
C928 C 0.48774 0.45462 0.22616 0.0
C929 C 0.49813 0.45554 0.21872 0.0
C930 C 0.50914 0.46639 0.21898 0.0
C931 C 0.51012 0.47663 0.22701 0.0
C932 C 0.49971 0.47569 0.23462 0.0
C933 C 0.48863 0.46487 0.23407 0.0
H934 H 0.52516 0.96861 0.20617 0.0
N935 N 0.52439 0.98554 0.22444 0.0
H936 H 0.53719 0.97124 0.18059 0.0
H937 H 0.53798 0.00663 0.20706 0.0
H938 H 0.54992 0.00938 0.18121 0.0
H939 H 0.54701 0.00353 0.23363 0.0
H940 H 0.55985 0.00206 0.25498 0.0
H941 H 0.51751 0.96872 0.24836 0.0
H942 H 0.53002 0.96748 0.27073 0.0
H943 H 0.50369 0.9778 0.20828 0.0
H944 H 0.52792 0.00516 0.24333 0.0
H945 H 0.49012 0.98578 0.20963 0.0
H946 H 0.51396 0.01262 0.2459 0.0
H947 H 0.44643 0.99778 0.22022 0.0
H948 H 0.43586 0.99603 0.19364 0.0
H949 H 0.46394 0.03183 0.17935 0.0
H950 H 0.47457 0.03347 0.20603 0.0
H951 H 0.45878 0.0313 0.24052 0.0
H952 H 0.4427 0.02675 0.26089 0.0
H953 H 0.44266 0.99446 0.27578 0.0
H954 H 0.45815 -0.00133 0.25484 0.0
H955 H 0.46188 0.99396 0.22682 0.0
H956 H 0.47592 0.98665 0.22626 0.0
H957 H 0.50568 0.02303 0.23339 0.0
N958 N 0.46745 0.01739 0.23108 0.0
H959 H 0.49127 0.03011 0.23524 0.0
C960 C 0.53065 0.98737 0.20844 0.0
C961 C 0.53042 0.97749 0.20061 0.0
C962 C 0.53727 0.97903 0.18597 0.0
C963 C 0.54452 0.99053 0.17883 0.0
C964 C 0.54453 0.00043 0.18649 0.0
C965 C 0.53765 -0.00114 0.20117 0.0
C966 C 0.53136 0.98606 0.23914 0.0
C967 C 0.54321 0.99566 0.24173 0.0
C968 C 0.55052 0.99485 0.25415 0.0
C969 C 0.54609 0.98453 0.26446 0.0
C970 C 0.53389 0.9754 0.26271 0.0
C971 C 0.52666 0.97614 0.25009 0.0
C972 C 0.51673 0.99071 0.2258 0.0
C973 C 0.50599 0.98545 0.21644 0.0
C974 C 0.49817 0.98997 0.21742 0.0
C975 C 0.50075 -0.00024 0.22814 0.0
C976 C 0.51165 0.00515 0.23739 0.0
C977 C 0.51964 0.00078 0.23608 0.0
C978 C 0.4614 0.01575 0.215 0.0
C979 C 0.45046 0.00516 0.21123 0.0
C980 C 0.4444 0.00418 0.19605 0.0
C981 C 0.44907 0.0138 0.18443 0.0
C982 C 0.46007 0.02432 0.18814 0.0
C983 C 0.46619 0.02524 0.20326 0.0
C984 C 0.45966 0.01533 0.24568 0.0
C985 C 0.45542 0.02333 0.24836 0.0
C986 C 0.44623 0.02072 0.26014 0.0
C987 C 0.44117 0.01011 0.26992 0.0
C988 C 0.44603 0.00252 0.26813 0.0
C989 C 0.45507 0.00502 0.25607 0.0
C990 C 0.4755 0.01262 0.23139 0.0
C991 C 0.47139 0.00037 0.22853 0.0
C992 C 0.47953 0.9962 0.22797 0.0
C993 C 0.49205 0.00422 0.22962 0.0
C994 C 0.49613 0.0165 0.23238 0.0
C995 C 0.48792 0.0206 0.23336 0.0
H996 H 0.42434 0.96362 0.80205 0.0
N997 N 0.44674 0.97632 0.79 0.0
H998 H 0.41643 0.96664 0.82881 0.0
H999 H 0.46002 0.99238 0.81508 0.0
H1000 H 0.45233 0.9952 0.84219 0.0
H1001 H 0.45507 0.00054 0.78886 0.0
H1002 H 0.44722 0.01027 0.77051 0.0
H1003 H 0.43359 0.96709 0.76204 0.0
H1004 H 0.42583 0.97685 0.7434 0.0
H1005 H 0.44935 0.95844 0.80113 0.0
H1006 H 0.4695 0.99394 0.77916 0.0
H1007 H 0.46786 0.95775 0.80371 0.0
H1008 H 0.48792 0.99299 0.78048 0.0
H1009 H 0.5299 0.95767 0.8097 0.0
H1010 H 0.54115 0.95936 0.83553 0.0
H1011 H 0.53715 0.98918 0.8521 0.0
H1012 H 0.52649 0.98779 0.82597 0.0
H1013 H 0.54112 0.99596 0.79909 0.0
H1014 H 0.55831 0.00497 0.77951 0.0
H1015 H 0.54236 0.97188 0.75056 0.0
H1016 H 0.52529 0.96285 0.77054 0.0
H1017 H 0.50053 0.95452 0.79331 0.0
H1018 H 0.48219 0.95547 0.78949 0.0
H1019 H 0.50272 0.99394 0.79816 0.0
N1020 N 0.52272 0.9725 0.799 0.0
H1021 H 0.52109 0.99293 0.80051 0.0
C1022 C 0.44272 0.97767 0.80663 0.0
C1023 C 0.43049 0.97042 0.81089 0.0
C1024 C 0.42602 0.97215 0.82622 0.0
C1025 C 0.43375 0.98116 0.8377 0.0
C1026 C 0.4461 0.98828 0.83356 0.0
C1027 C 0.45054 0.9866 0.81813 0.0
C1028 C 0.4448 0.983 0.77691 0.0
C1029 C 0.44893 0.99536 0.77872 0.0
C1030 C 0.44442 0.00092 0.76826 0.0
C1031 C 0.43581 0.99427 0.75568 0.0
C1032 C 0.43249 0.98221 0.75294 0.0
C1033 C 0.43692 0.97662 0.76354 0.0
C1034 C 0.4579 0.97613 0.78985 0.0
C1035 C 0.45775 0.96599 0.79653 0.0
C1036 C 0.46838 0.96559 0.79787 0.0
C1037 C 0.47949 0.97528 0.79219 0.0
C1038 C 0.47962 0.98542 0.78525 0.0
C1039 C 0.46898 0.98591 0.78427 0.0
C1040 C 0.52728 0.97252 0.81579 0.0
C1041 C 0.53126 0.96441 0.81909 0.0
C1042 C 0.53767 0.96538 0.83392 0.0
C1043 C 0.54018 0.97449 0.84591 0.0
C1044 C 0.53562 0.98222 0.843 0.0
C1045 C 0.52934 0.98133 0.82805 0.0
C1046 C 0.53195 0.97868 0.78627 0.0
C1047 C 0.54119 0.99073 0.78834 0.0
C1048 C 0.55102 0.99588 0.77709 0.0
C1049 C 0.55177 0.98909 0.76357 0.0
C1050 C 0.54216 0.97727 0.76102 0.0
C1051 C 0.53236 0.97213 0.7723 0.0
C1052 C 0.51211 0.97355 0.79756 0.0
C1053 C 0.50101 0.96313 0.7944 0.0
C1054 C 0.49052 0.96372 0.79234 0.0
C1055 C 0.49083 0.97478 0.79373 0.0
C1056 C 0.50205 0.98526 0.79681 0.0
C1057 C 0.5126 0.98469 0.79847 0.0
H1058 H 0.96953 0.53415 0.81499 0.0
N1059 N 0.98627 0.5321 0.79796 0.0
H1060 H 0.97232 0.54659 0.84009 0.0
H1061 H 0.00734 0.54522 0.81569 0.0
H1062 H 0.01031 0.55791 0.84058 0.0
H1063 H 0.00715 0.55186 0.78662 0.0
H1064 H 0.00874 0.56534 0.76387 0.0
H1065 H 0.96936 0.5285 0.77558 0.0
H1066 H 0.97066 0.5423 0.7533 0.0
H1067 H 0.9731 0.50985 0.80946 0.0
H1068 H 0.00786 0.53438 0.7873 0.0
H1069 H 0.97884 0.49452 0.81188 0.0
H1070 H 0.01349 0.51901 0.78892 0.0
H1071 H 0.99123 0.45963 0.82822 0.0
H1072 H 0.98962 0.44865 0.85425 0.0
H1073 H 0.02672 0.45745 0.84796 0.0
H1074 H 0.02805 0.46801 0.82147 0.0
H1075 H 0.02404 0.4707 0.7795 0.0
H1076 H 0.019 0.45542 0.75726 0.0
H1077 H 0.98385 0.43334 0.78032 0.0
H1078 H 0.98889 0.44842 0.8023 0.0
H1079 H 0.98786 0.46581 0.79874 0.0
H1080 H 0.98233 0.4811 0.79585 0.0
H1081 H 0.01885 0.50855 0.8086 0.0
N1082 N 0.01053 0.46954 0.80608 0.0
H1083 H 0.02449 0.49309 0.81065 0.0
C1084 C 0.98817 0.53875 0.81352 0.0
C1085 C 0.97841 0.53922 0.82067 0.0
C1086 C 0.98006 0.54642 0.83488 0.0
C1087 C 0.99157 0.55334 0.84221 0.0
C1088 C 0.00133 0.55263 0.83528 0.0
C1089 C -0.00035 0.54541 0.82102 0.0
C1090 C 0.98811 0.53904 0.7827 0.0
C1091 C -0.00075 0.54943 0.77901 0.0
C1092 C 9e-05 0.55728 0.76612 0.0
C1093 C 0.98979 0.55504 0.75686 0.0
C1094 C 0.97883 0.54429 0.75998 0.0
C1095 C 0.97804 0.53638 0.77274 0.0
C1096 C 0.98992 0.52321 0.79805 0.0
C1097 C 0.9819 0.51185 0.80487 0.0
C1098 C 0.98519 0.50309 0.80616 0.0
C1099 C 0.99663 0.50548 0.80052 0.0
C1100 C 0.00467 0.51689 0.79359 0.0
C1101 C 0.00139 0.5257 0.79247 0.0
C1102 C 0.00979 0.4646 0.82281 0.0
C1103 C -0.00094 0.45933 0.83251 0.0
C1104 C -0.00182 0.45308 0.8475 0.0
C1105 C 0.008 0.45204 0.85315 0.0
C1106 C 0.01889 0.45784 0.84382 0.0
C1107 C 0.01973 0.464 0.82879 0.0
C1108 C 0.00688 0.46082 0.7925 0.0
C1109 C 0.01521 0.46262 0.77957 0.0
C1110 C 0.01234 0.45388 0.76697 0.0
C1111 C 0.00101 0.44322 0.76703 0.0
C1112 C 0.99257 0.44155 0.77977 0.0
C1113 C 0.99549 0.4502 0.79242 0.0
C1114 C 0.00672 0.4783 0.80474 0.0
C1115 C 0.99476 0.47507 0.8008 0.0
C1116 C 0.99154 0.48389 0.7993 0.0
C1117 C 0.00013 0.49611 0.80196 0.0
C1118 C 0.01203 0.49928 0.80614 0.0
C1119 C 0.01527 0.49045 0.80746 0.0
H1120 H 0.44701 0.45315 0.79583 0.0
N1121 N 0.44703 0.47364 0.78669 0.0
H1122 H 0.43923 0.44198 0.82237 0.0
H1123 H 0.43832 0.4796 0.81343 0.0
H1124 H 0.43055 0.46847 0.84022 0.0
H1125 H 0.42371 0.46223 0.77916 0.0
H1126 H 0.41302 0.44609 0.75871 0.0
H1127 H 0.45775 0.46732 0.76062 0.0
H1128 H 0.44719 0.45171 0.73968 0.0
H1129 H 0.46614 0.46976 0.78886 0.0
H1130 H 0.45674 0.49733 0.78434 0.0
H1131 H 0.48739 0.48499 0.79024 0.0
H1132 H 0.47807 0.51282 0.78693 0.0
H1133 H 0.55196 0.53502 0.81604 0.0
H1134 H 0.56052 0.54599 0.84253 0.0
H1135 H 0.53567 0.55933 0.84108 0.0
H1136 H 0.52728 0.54836 0.81431 0.0
H1137 H 0.537 0.55632 0.78648 0.0
H1138 H 0.55109 0.57011 0.76513 0.0
H1139 H 0.56344 0.54507 0.75505 0.0
H1140 H 0.54899 0.5312 0.776 0.0
H1141 H 0.52287 0.51374 0.81132 0.0
H1142 H 0.50144 0.49894 0.80866 0.0
H1143 H 0.49724 0.52288 0.77456 0.0
N1144 N 0.53514 0.53521 0.79693 0.0
H1145 H 0.51844 0.53791 0.77834 0.0
C1146 C 0.44324 0.46725 0.80269 0.0
C1147 C 0.44362 0.45667 0.80555 0.0
C1148 C 0.43918 0.45029 0.82075 0.0
C1149 C 0.43425 0.45433 0.83338 0.0
C1150 C 0.43416 0.46505 0.83064 0.0
C1151 C 0.43864 0.47145 0.81544 0.0
C1152 C 0.44153 0.46589 0.77203 0.0
C1153 C 0.42891 0.46009 0.77042 0.0
C1154 C 0.4228 0.45087 0.75858 0.0
C1155 C 0.42919 0.44737 0.74764 0.0
C1156 C 0.44191 0.45384 0.74827 0.0
C1157 C 0.44802 0.46293 0.76037 0.0
C1158 C 0.45981 0.4824 0.78618 0.0
C1159 C 0.46865 0.47912 0.78811 0.0
C1160 C 0.48086 0.48791 0.78915 0.0
C1161 C 0.48455 0.50023 0.78889 0.0
C1162 C 0.47567 0.50347 0.78689 0.0
C1163 C 0.46345 0.49463 0.78546 0.0
C1164 C 0.53904 0.54089 0.8133 0.0
C1165 C 0.54828 0.54019 0.82161 0.0
C1166 C 0.5531 0.54642 0.83676 0.0
C1167 C 0.54876 0.55352 0.84396 0.0
C1168 C 0.53928 0.55403 0.83578 0.0
C1169 C 0.53444 0.54774 0.82056 0.0
C1170 C 0.54194 0.54269 0.78274 0.0
C1171 C 0.54254 0.55369 0.77937 0.0
C1172 C 0.55068 0.56161 0.76725 0.0
C1173 C 0.55849 0.55877 0.75843 0.0
C1174 C 0.55747 0.54752 0.76137 0.0
C1175 C 0.54925 0.53958 0.77338 0.0
C1176 C 0.52236 0.52689 0.79497 0.0
C1177 C 0.51728 0.51579 0.80336 0.0
C1178 C 0.50503 0.50729 0.80164 0.0
C1179 C 0.49755 0.50956 0.79114 0.0
C1180 C 0.50264 0.52079 0.78287 0.0
C1181 C 0.51488 0.52942 0.78491 0.0
H1182 H 0.68772 0.89047 0.55172 0.0
N1183 N 0.6694 0.87144 0.56657 0.0
H1184 H 0.68732 0.90049 0.52551 0.0
H1185 H 0.65033 0.86334 0.54436 0.0
H1186 H 0.64995 0.87302 0.51801 0.0
H1187 H 0.65159 0.87714 0.57002 0.0
H1188 H 0.65102 0.89048 0.59135 0.0
H1189 H 0.68166 0.87805 0.59559 0.0
H1190 H 0.68045 0.8905 0.61809 0.0
H1191 H 0.68282 0.86125 0.56553 0.0
H1192 H 0.64604 0.85313 0.57078 0.0
H1193 H 0.6761 0.83986 0.56663 0.0
H1194 H 0.63899 0.83158 0.57055 0.0
H1195 H 0.66091 0.78278 0.55393 0.0
H1196 H 0.66245 0.7735 0.52774 0.0
H1197 H 0.62592 0.76375 0.51471 0.0
H1198 H 0.62437 0.77296 0.54132 0.0
H1199 H 0.62819 0.76132 0.57898 0.0
H1200 H 0.6349 0.75176 0.59931 0.0
H1201 H 0.66845 0.78552 0.60576 0.0
H1202 H 0.66203 0.79467 0.58439 0.0
H1203 H 0.66071 0.80182 0.54927 0.0
H1204 H 0.66685 0.82284 0.54998 0.0
H1205 H 0.6376 0.81505 0.58493 0.0
N1206 N 0.64098 0.78318 0.56569 0.0
H1207 H 0.6309 0.7936 0.58314 0.0
C1208 C 0.66915 0.87614 0.55001 0.0
C1209 C 0.67952 0.88653 0.54424 0.0
C1210 C 0.67927 0.89222 0.52924 0.0
C1211 C 0.66858 0.88758 0.51968 0.0
C1212 C 0.65828 0.87692 0.52519 0.0
C1213 C 0.65854 0.87127 0.54022 0.0
C1214 C 0.667 0.87696 0.58089 0.0
C1215 C 0.6579 0.87997 0.58048 0.0
C1216 C 0.65749 0.88754 0.59292 0.0
C1217 C 0.66592 0.89194 0.60635 0.0
C1218 C 0.67413 0.88777 0.60763 0.0
C1219 C 0.67475 0.8805 0.59491 0.0
C1220 C 0.66495 0.85873 0.56774 0.0
C1221 C 0.67326 0.85478 0.56674 0.0
C1222 C 0.66935 0.84252 0.56719 0.0
C1223 C 0.65694 0.83388 0.56833 0.0
C1224 C 0.64861 0.83792 0.56975 0.0
C1225 C 0.65259 0.85024 0.56965 0.0
C1226 C 0.64246 0.77855 0.54962 0.0
C1227 C 0.65324 0.77873 0.54543 0.0
C1228 C 0.65415 0.77348 0.53035 0.0
C1229 C 0.64431 0.76789 0.51912 0.0
C1230 C 0.63361 0.76789 0.52318 0.0
C1231 C 0.63273 0.7732 0.53828 0.0
C1232 C 0.6445 0.77868 0.5801 0.0
C1233 C 0.6369 0.76668 0.58502 0.0
C1234 C 0.64077 0.76125 0.59678 0.0
C1235 C 0.65231 0.76779 0.60422 0.0
C1236 C 0.65964 0.78007 0.60004 0.0
C1237 C 0.65587 0.78541 0.58795 0.0
C1238 C 0.64511 0.79593 0.56597 0.0
C1239 C 0.65543 0.80446 0.55694 0.0
C1240 C 0.6591 0.81666 0.55756 0.0
C1241 C 0.6528 0.82077 0.5676 0.0
C1242 C 0.64258 0.81226 0.57682 0.0
C1243 C 0.63877 0.79999 0.57592 0.0
H1244 H 0.24527 0.8635 0.54609 0.0
N1245 N 0.22332 0.85347 0.5597 0.0
H1246 H 0.25252 0.8755 0.52011 0.0
H1247 H 0.20911 0.85589 0.53553 0.0
H1248 H 0.21609 0.86723 0.50925 0.0
H1249 H 0.21704 0.87077 0.56269 0.0
H1250 H 0.22553 0.88748 0.58277 0.0
H1251 H 0.23687 0.85607 0.58665 0.0
H1252 H 0.2452 0.87264 0.60724 0.0
H1253 H 0.22033 0.83158 0.56008 0.0
H1254 H 0.20061 0.85036 0.56357 0.0
H1255 H 0.20144 0.81235 0.56237 0.0
H1256 H 0.18163 0.83128 0.56459 0.0
H1257 H 0.13468 0.75306 0.54801 0.0
H1258 H 0.1227 0.74657 0.52199 0.0
H1259 H 0.13067 0.78304 0.5136 0.0
H1260 H 0.14207 0.78924 0.54014 0.0
H1261 H 0.12881 0.78235 0.56722 0.0
H1262 H 0.11167 0.77373 0.58677 0.0
H1263 H 0.12397 0.75094 0.60811 0.0
H1264 H 0.14099 0.75943 0.58799 0.0
H1265 H 0.16561 0.77996 0.54752 0.0
H1266 H 0.18454 0.79914 0.54707 0.0
H1267 H 0.16867 0.81433 0.58024 0.0
N1268 N 0.14493 0.77461 0.56256 0.0
H1269 H 0.14965 0.79548 0.57967 0.0
C1270 C 0.22668 0.85871 0.54287 0.0
C1271 C 0.23884 0.86412 0.53792 0.0
C1272 C 0.24295 0.87095 0.52301 0.0
C1273 C 0.23491 0.87244 0.51258 0.0
C1274 C 0.2226 0.86651 0.51713 0.0
C1275 C 0.21853 0.85983 0.53217 0.0
C1276 C 0.22639 0.86218 0.57314 0.0
C1277 C 0.22295 0.87095 0.57259 0.0
C1278 C 0.22782 0.88051 0.58415 0.0
C1279 C 0.23616 0.88149 0.59653 0.0
C1280 C 0.23898 0.87229 0.59767 0.0
C1281 C 0.23415 0.86276 0.58606 0.0
C1282 C 0.21192 0.84239 0.56143 0.0
C1283 C 0.21189 0.83152 0.56119 0.0
C1284 C 0.20104 0.82053 0.56233 0.0
C1285 C 0.18989 0.82015 0.56345 0.0
C1286 C 0.18998 0.83113 0.56396 0.0
C1287 C 0.20087 0.84212 0.56318 0.0
C1288 C 0.13933 0.77159 0.54597 0.0
C1289 C 0.13395 0.75965 0.54039 0.0
C1290 C 0.12715 0.75599 0.52545 0.0
C1291 C 0.12567 0.76426 0.51563 0.0
C1292 C 0.13143 0.77636 0.52096 0.0
C1293 C 0.1381 0.77998 0.53604 0.0
C1294 C 0.13618 0.77148 0.57612 0.0
C1295 C 0.12796 0.77566 0.57631 0.0
C1296 C 0.11817 0.77076 0.5876 0.0
C1297 C 0.11637 0.76155 0.59894 0.0
C1298 C 0.12499 0.75788 0.59936 0.0
C1299 C 0.13478 0.7628 0.58803 0.0
C1300 C 0.1561 0.7861 0.56354 0.0
C1301 C 0.16623 0.78745 0.55468 0.0
C1302 C 0.17711 0.79844 0.55458 0.0
C1303 C 0.17825 0.80838 0.56369 0.0
C1304 C 0.16814 0.80699 0.5728 0.0
C1305 C 0.15716 0.79605 0.57261 0.0
H1306 H 0.21349 0.3333 0.55356 0.0
N1307 N 0.21554 0.35492 0.56208 0.0
H1308 H 0.22192 0.3291 0.52848 0.0
H1309 H 0.22646 0.36944 0.53567 0.0
H1310 H 0.2353 0.36539 0.51056 0.0
H1311 H 0.23779 0.36802 0.57413 0.0
H1312 H 0.24758 0.36207 0.59531 0.0
H1313 H 0.20394 0.33532 0.58356 0.0
H1314 H 0.21343 0.32965 0.60541 0.0
H1315 H 0.19524 0.33374 0.55234 0.0
H1316 H 0.2074 0.36892 0.57364 0.0
H1317 H 0.17452 0.32926 0.5535 0.0
H1318 H 0.18638 0.36427 0.57551 0.0
H1319 H 0.11777 0.31691 0.53964 0.0
H1320 H 0.10846 0.31855 0.51336 0.0
H1321 H 0.12074 0.35575 0.52508 0.0
H1322 H 0.12993 0.35402 0.55128 0.0
H1323 H 0.13441 0.35398 0.58139 0.0
H1324 H 0.12192 0.35563 0.60372 0.0
H1325 H 0.09701 0.31729 0.60049 0.0
H1326 H 0.10963 0.31577 0.57841 0.0
H1327 H 0.13753 0.31963 0.57216 0.0
H1328 H 0.15869 0.32488 0.57316 0.0
H1329 H 0.16971 0.36127 0.55808 0.0
N1330 N 0.12885 0.33358 0.56342 0.0
H1331 H 0.14859 0.35604 0.55785 0.0
C1332 C 0.21932 0.35174 0.5465 0.0
C1333 C 0.21804 0.34032 0.54414 0.0
C1334 C 0.22298 0.33795 0.52983 0.0
C1335 C 0.22941 0.34695 0.5176 0.0
C1336 C 0.23032 0.35823 0.51967 0.0
C1337 C 0.22531 0.36058 0.534 0.0
C1338 C 0.22016 0.3522 0.57714 0.0
C1339 C 0.23238 0.35976 0.58121 0.0
C1340 C 0.23795 0.35633 0.59339 0.0
C1341 C 0.23135 0.34528 0.602 0.0
C1342 C 0.21888 0.33809 0.59876 0.0
C1343 C 0.21337 0.34143 0.58636 0.0
C1344 C 0.20302 0.35181 0.56273 0.0
C1345 C 0.19352 0.34055 0.55728 0.0
C1346 C 0.18156 0.33792 0.55815 0.0
C1347 C 0.17873 0.34638 0.56467 0.0
C1348 C 0.18822 0.35759 0.57023 0.0
C1349 C 0.20023 0.36025 0.56925 0.0
C1350 C 0.1246 0.33531 0.54733 0.0
C1351 C 0.11858 0.32544 0.53637 0.0
C1352 C 0.11321 0.32638 0.52148 0.0
C1353 C 0.11384 0.33727 0.51723 0.0
C1354 C 0.12022 0.34728 0.52796 0.0
C1355 C 0.12549 0.3463 0.54295 0.0
C1356 C 0.12287 0.33471 0.57824 0.0
C1357 C 0.12639 0.34592 0.58574 0.0
C1358 C 0.11921 0.34685 0.59845 0.0
C1359 C 0.10843 0.3366 0.60386 0.0
C1360 C 0.10532 0.32534 0.59686 0.0
C1361 C 0.11248 0.32444 0.58419 0.0
C1362 C 0.14146 0.33735 0.56476 0.0
C1363 C 0.14456 0.32876 0.56924 0.0
C1364 C 0.15664 0.33177 0.56965 0.0
C1365 C 0.16593 0.34347 0.56545 0.0
C1366 C 0.16282 0.3522 0.56148 0.0
C1367 C 0.15069 0.34918 0.5612 0.0
C1368 C 0.00973 0.39231 0.06686 0.0
C1369 C -1e-05 0.38042 0.06582 0.0
C1370 C 0.01009 0.40001 0.07967 0.0
C1371 C -0.00212 0.40053 0.12206 0.0
H1372 H 0.00839 0.43358 0.11 0.0
C1373 C -0.00255 0.43411 0.17066 0.0
C1374 C 0.0078 0.44567 0.17087 0.0
C1375 C 0.99565 0.42605 0.15748 0.0
C1376 C 0.00552 0.42441 0.1136 0.0
H1377 H 0.98308 0.36723 0.0776 0.0
H1378 H 0.9837 0.38073 0.10002 0.0
H1379 H 0.00702 0.41956 0.088 0.0
H1380 H 0.02415 0.45796 0.15707 0.0
H1381 H 0.02112 0.44387 0.13426 0.0
H1382 H 0.99652 0.40543 0.14771 0.0
C1383 C 0.99109 0.38405 0.09095 0.0
C1384 C 0.00475 0.41638 0.101 0.0
C1385 C 0.99072 0.37633 0.07808 0.0
C1386 C 0.01615 0.44909 0.15738 0.0
C1387 C 0.01434 0.44104 0.1442 0.0
C1388 C -0.00133 0.40858 0.13468 0.0
C1389 C 0.00073 0.39602 0.09177 0.0
C1390 C 0.00104 0.40438 0.10511 0.0
C1391 C 0.00414 0.42938 0.14419 0.0
C1392 C 0.00262 0.42065 0.13063 0.0
H1393 H 0.01705 0.39572 0.05765 0.0
H1394 H 0.01775 0.40911 0.08013 0.0
H1395 H 0.9951 0.39139 0.12567 0.0
H1396 H 0.99089 0.43116 0.18094 0.0
H1397 H 0.98763 0.41718 0.15775 0.0
C1398 C 0.62234 0.61228 0.06212 0.0
C1399 C 0.61513 0.61669 0.05564 0.0
C1400 C 0.61825 0.60419 0.07577 0.0
C1401 C 0.59704 0.5936 0.11192 0.0
H1402 H 0.5982 0.5642 0.10805 0.0
C1403 C 0.5705 0.55421 0.15799 0.0
C1404 C 0.57585 0.54763 0.16358 0.0
C1405 C 0.57577 0.56266 0.14494 0.0
C1406 C 0.59797 0.57244 0.10947 0.0
H1407 H 0.59811 0.61629 0.05869 0.0
H1408 H 0.59108 0.60231 0.0826 0.0
H1409 H 0.60693 0.57931 0.08552 0.0
H1410 H 0.5909 0.5447 0.15947 0.0
H1411 H 0.60032 0.55975 0.13703 0.0
H1412 H 0.58821 0.58688 0.13587 0.0
C1413 C 0.59987 0.60509 0.0771 0.0
C1414 C 0.60296 0.58108 0.09654 0.0
C1415 C 0.60388 0.61305 0.06335 0.0
C1416 C 0.58658 0.54967 0.15562 0.0
C1417 C 0.59191 0.55822 0.14261 0.0
C1418 C 0.59216 0.58503 0.1249 0.0
C1419 C 0.60695 0.60049 0.08336 0.0
C1420 C 0.6024 0.59167 0.09754 0.0
C1421 C 0.58663 0.5649 0.13722 0.0
C1422 C 0.59239 0.57425 0.12373 0.0
H1423 H 0.63104 0.61488 0.05644 0.0
H1424 H 0.62393 0.60084 0.08044 0.0
H1425 H 0.59665 0.60177 0.11314 0.0
H1426 H 0.56236 0.55306 0.16396 0.0
H1427 H 0.57131 0.56747 0.14093 0.0
C1428 C 0.38648 0.98963 0.05797 0.0
C1429 C 0.38277 0.99765 0.0526 0.0
C1430 C 0.39409 0.99234 0.07194 0.0
C1431 C 0.40527 0.01126 0.1105 0.0
H1432 H 0.42996 0.00239 0.10806 0.0
C1433 C 0.44067 0.02249 0.16377 0.0
C1434 C 0.44231 0.01294 0.16871 0.0
C1435 C 0.43392 0.02149 0.14928 0.0
C1436 C 0.42307 0.00486 0.10897 0.0
H1437 H 0.38406 0.01479 0.0579 0.0
H1438 H 0.39756 0.01962 0.08231 0.0
H1439 H 0.41726 -0.00073 0.08341 0.0
H1440 H 0.43836 0.99496 0.1622 0.0
H1441 H 0.42659 0.99321 0.1369 0.0
H1442 H 0.41117 0.01686 0.13614 0.0
C1443 C 0.39444 0.01116 0.07574 0.0
C1444 C 0.41577 0.00305 0.09486 0.0
C1445 C 0.38674 0.00841 0.06172 0.0
C1446 C 0.43719 0.00244 0.15876 0.0
C1447 C 0.43054 0.00148 0.14421 0.0
C1448 C 0.41265 0.01314 0.12462 0.0
C1449 C 0.39829 0.00319 0.0809 0.0
C1450 C 0.40662 0.00602 0.09554 0.0
C1451 C 0.42879 0.01097 0.13935 0.0
C1452 C 0.42149 0.00977 0.12407 0.0
H1453 H 0.38351 0.9812 0.05138 0.0
H1454 H 0.39662 0.98586 0.07579 0.0
H1455 H 0.39826 0.01356 0.11151 0.0
H1456 H 0.44442 0.03066 0.17129 0.0
H1457 H 0.43278 0.02898 0.14579 0.0
C1458 C 0.3751 0.98583 0.957 0.0
C1459 C 0.37907 0.99711 0.96459 0.0
C1460 C 0.38184 0.98457 0.94399 0.0
C1461 C 0.40394 0.00115 0.9105 0.0
H1462 H 0.41003 0.97461 0.91222 0.0
C1463 C 0.43292 0.99516 0.85933 0.0
C1464 C 0.4288 0.98336 0.85359 0.0
C1465 C 0.42776 0.99724 0.8737 0.0
C1466 C 0.4083 0.98199 0.91144 0.0
H1467 H 0.39312 0.01593 0.96437 0.0
H1468 H 0.40482 0.01374 0.94139 0.0
H1469 H 0.39902 0.97745 0.93543 0.0
H1470 H 0.41627 0.96449 0.85888 0.0
H1471 H 0.40698 0.96812 0.88346 0.0
H1472 H 0.41288 0.0055 0.8863 0.0
C1473 C 0.39651 0.00589 0.94559 0.0
C1474 C 0.40203 0.98363 0.92476 0.0
C1475 C 0.38984 0.00713 0.95876 0.0
C1476 C 0.41955 0.9737 0.86278 0.0
C1477 C 0.41433 0.97578 0.87705 0.0
C1478 C 0.41012 -0.00056 0.89708 0.0
C1479 C 0.39261 0.99458 0.93818 0.0
C1480 C 0.39971 0.99316 0.92436 0.0
C1481 C 0.41829 0.98759 0.88261 0.0
C1482 C 0.41229 0.98978 0.89731 0.0
H1483 H 0.36685 0.97793 0.96123 0.0
H1484 H 0.37855 0.97577 0.93836 0.0
H1485 H 0.40217 0.0085 0.9098 0.0
H1486 H 0.43994 0.00283 0.85248 0.0
H1487 H 0.43116 0.00644 0.87775 0.0
C1488 C -0.00029 0.38278 0.96725 0.0
C1489 C 0.9918 0.38168 0.98053 0.0
C1490 C 0.00164 0.39038 0.9534 0.0
C1491 C -0.00022 0.41693 0.94108 0.0
H1492 H -0.00021 0.40627 0.89485 0.0
C1493 C -7e-05 0.44407 0.88252 0.0
C1494 C 0.00672 0.44443 0.86817 0.0
C1495 C -0.00163 0.43654 0.89629 0.0
C1496 C -1e-05 0.40947 0.90769 0.0
H1497 H 0.97968 0.38766 0.98954 0.0
H1498 H 0.98308 0.40086 0.96545 0.0
H1499 H 0.99669 0.39285 0.91863 0.0
H1500 H 0.01713 0.43706 0.85712 0.0
H1501 H 0.01477 0.42431 0.88131 0.0
H1502 H 0.0032 0.43358 0.93024 0.0
C1503 C 0.98784 0.39593 0.96581 0.0
C1504 C -0.00181 0.40175 0.92131 0.0
C1505 C 0.98584 0.38828 0.97957 0.0
C1506 C 0.012 0.43717 0.86804 0.0
C1507 C 0.01048 0.42969 0.88183 0.0
C1508 C 0.00167 0.42467 0.92748 0.0
C1509 C 0.9958 0.3971 0.95261 0.0
C1510 C -0.002 0.40538 0.93814 0.0
C1511 C 0.00358 0.42922 0.89609 0.0
C1512 C 0.00175 0.42103 0.9106 0.0
H1513 H 0.00445 0.37782 0.96758 0.0
H1514 H 0.00789 0.39116 0.94346 0.0
H1515 H -0.00014 0.42004 0.95394 0.0
H1516 H 0.99583 0.44962 0.88315 0.0
H1517 H 0.99288 0.43632 0.90697 0.0
C1518 C 0.6102 0.62458 0.95652 0.0
C1519 C 0.61522 0.6198 0.9677 0.0
C1520 C 0.60255 0.61753 0.94336 0.0
C1521 C 0.59415 0.59 0.91824 0.0
H1522 H 0.56578 0.5918 0.90652 0.0
C1523 C 0.55825 0.55598 0.87266 0.0
C1524 C 0.55457 0.56076 0.85949 0.0
C1525 C 0.56495 0.56317 0.88634 0.0
C1526 C 0.57372 0.59127 0.9096 0.0
H1527 H 0.61603 0.60385 0.97396 0.0
H1528 H 0.60254 0.59152 0.95131 0.0
H1529 H 0.5791 0.60454 0.92929 0.0
H1530 H 0.55467 0.57676 0.85072 0.0
H1531 H 0.56628 0.58929 0.87479 0.0
H1532 H 0.58873 0.57668 0.8987 0.0
C1533 C 0.6047 0.60078 0.95243 0.0
C1534 C 0.58137 0.59859 0.92259 0.0
C1535 C 0.61239 0.60783 0.96549 0.0
C1536 C 0.55727 0.57276 0.86073 0.0
C1537 C 0.56394 0.57995 0.87449 0.0
C1538 C 0.58648 0.58266 0.90537 0.0
C1539 C 0.59971 0.60554 0.94115 0.0
C1540 C 0.59166 0.598 0.92711 0.0
C1541 C 0.56808 0.5753 0.88723 0.0
C1542 C 0.57615 0.58316 0.90096 0.0
H1543 H 0.61224 0.63379 0.95789 0.0
H1544 H 0.59898 0.62153 0.93478 0.0
H1545 H 0.60213 0.5895 0.92111 0.0
H1546 H 0.5561 0.5467 0.87227 0.0
H1547 H 0.56781 0.55926 0.89615 0.0
C1548 C -0.00144 0.61947 0.961 0.0
C1549 C 0.98974 0.61255 0.97329 0.0
C1550 C 0.00038 0.61395 0.94683 0.0
C1551 C 0.99471 0.58439 0.93122 0.0
H1552 H -0.00189 0.59838 0.88643 0.0
C1553 C 0.00056 0.56219 0.87075 0.0
C1554 C 0.99334 0.5614 0.85683 0.0
C1555 C 0.00175 0.56942 0.88478 0.0
C1556 C -0.00284 0.59436 0.89886 0.0
H1557 H 0.9759 0.59439 0.98026 0.0
H1558 H 0.97898 0.58485 0.95557 0.0
H1559 H 0.99686 0.60895 0.9115 0.0
H1560 H 0.98215 0.56799 0.84643 0.0
H1561 H 0.984 0.58036 0.87099 0.0
H1562 H 0.99453 0.56959 0.91857 0.0
C1563 C 0.98463 0.59451 0.95698 0.0
C1564 C 0.99658 0.60047 0.91323 0.0
C1565 C 0.9828 0.60001 0.9711 0.0
C1566 C 0.98762 0.56825 0.85706 0.0
C1567 C 0.98882 0.57547 0.87105 0.0
C1568 C 0.99529 0.57828 0.91686 0.0
C1569 C 0.99344 0.6014 0.94469 0.0
C1570 C 0.99512 0.59545 0.92955 0.0
C1571 C 0.99579 0.57605 0.88516 0.0
C1572 C 0.99632 0.5831 0.90048 0.0
H1573 H 0.00409 0.62915 0.96232 0.0
H1574 H 0.00731 0.6195 0.93764 0.0
H1575 H 0.99377 0.58036 0.94364 0.0
H1576 H 0.00505 0.55699 0.87098 0.0
H1577 H 0.00729 0.56977 0.89538 0.0
C1578 C 0.39137 0.38624 0.95616 0.0
C1579 C 0.37983 0.38397 0.96095 0.0
C1580 C 0.3976 0.39402 0.94265 0.0
C1581 C 0.39914 0.41904 0.91801 0.0
H1582 H 0.41606 0.4107 0.8846 0.0
C1583 C 0.41761 0.44517 0.85511 0.0
C1584 C 0.42875 0.44707 0.84899 0.0
C1585 C 0.41208 0.43783 0.86926 0.0
C1586 C 0.41153 0.41325 0.89396 0.0
H1587 H 0.36571 0.38796 0.95521 0.0
H1588 H 0.37655 0.40147 0.93157 0.0
H1589 H 0.40546 0.39701 0.90818 0.0
H1590 H 0.44301 0.44303 0.85321 0.0
H1591 H 0.4334 0.43027 0.87803 0.0
H1592 H 0.40519 0.43526 0.90383 0.0
C1593 C 0.38084 0.39735 0.93839 0.0
C1594 C 0.40544 0.40539 0.90745 0.0
C1595 C 0.3746 0.38954 0.95185 0.0
C1596 C 0.43434 0.44161 0.8575 0.0
C1597 C 0.42883 0.43429 0.87169 0.0
C1598 C 0.40526 0.42691 0.90456 0.0
C1599 C 0.39243 0.39972 0.93369 0.0
C1600 C 0.39911 0.40816 0.91956 0.0
C1601 C 0.41758 0.43223 0.87765 0.0
C1602 C 0.41146 0.42407 0.89231 0.0
H1603 H 0.39565 0.38209 0.96294 0.0
H1604 H 0.40656 0.39575 0.93942 0.0
H1605 H 0.39452 0.42152 0.92731 0.0
H1606 H 0.41298 0.44908 0.84866 0.0
H1607 H 0.40333 0.43629 0.87334 0.0
C1608 C 0.61295 0.00503 0.96185 0.0
C1609 C 0.61482 0.99626 0.96952 0.0
C1610 C 0.60532 0.00214 0.94784 0.0
C1611 C 0.57897 0.97719 0.9279 0.0
H1612 H 0.58854 -0.00166 0.88868 0.0
C1613 C 0.54803 0.96665 0.86899 0.0
C1614 C 0.54823 0.97642 0.86069 0.0
C1615 C 0.55623 0.96859 0.88202 0.0
C1616 C 0.58564 0.99241 0.89962 0.0
H1617 H 0.61021 0.9776 0.96838 0.0
H1618 H 0.59664 0.97249 0.94393 0.0
H1619 H 0.60296 0.00259 0.91149 0.0
H1620 H 0.55725 0.99593 0.85988 0.0
H1621 H 0.57103 -0.00074 0.88303 0.0
H1622 H 0.56152 0.96723 0.91637 0.0
C1623 C 0.60117 0.98161 0.94881 0.0
C1624 C 0.59395 0.99482 0.91263 0.0
C1625 C 0.60899 0.98456 0.96271 0.0
C1626 C 0.55666 0.98816 0.86608 0.0
C1627 C 0.56476 0.99009 0.8792 0.0
C1628 C 0.57059 0.97485 0.91496 0.0
C1629 C 0.59924 0.99038 0.94129 0.0
C1630 C 0.59067 0.9873 0.92697 0.0
C1631 C 0.56478 0.98035 0.88719 0.0
C1632 C 0.57378 0.98251 0.90073 0.0
H1633 H 0.61733 0.01414 0.96676 0.0
H1634 H 0.60392 0.00905 0.94239 0.0
H1635 H 0.57617 0.97132 0.9389 0.0
H1636 H 0.54158 0.95748 0.86535 0.0
H1637 H 0.55601 0.96086 0.88778 0.0
C1638 C 0.60316 0.98567 0.059 0.0
C1639 C 0.61517 0.99515 0.05744 0.0
C1640 C 0.59574 0.98568 0.07204 0.0
C1641 C 0.59236 0.00561 0.10275 0.0
H1642 H 0.57036 0.97542 0.1251 0.0
C1643 C 0.56437 0.00187 0.16325 0.0
C1644 C 0.5524 0.99216 0.16392 0.0
C1645 C 0.5721 0.0028 0.14995 0.0
C1646 C 0.57635 0.9839 0.11886 0.0
H1647 H 0.62884 0.01209 0.06837 0.0
H1648 H 0.6159 0.01202 0.09139 0.0
H1649 H 0.58394 0.9759 0.10296 0.0
H1650 H 0.539 0.97616 0.15066 0.0
H1651 H 0.55249 0.97775 0.12754 0.0
H1652 H 0.58478 0.0136 0.11886 0.0
C1653 C 0.61218 0.00465 0.08235 0.0
C1654 C 0.58415 0.98418 0.10616 0.0
C1655 C 0.61962 0.00466 0.06924 0.0
C1656 C 0.54823 0.98362 0.1507 0.0
C1657 C 0.55596 0.98453 0.13746 0.0
C1658 C 0.58458 0.00533 0.11554 0.0
C1659 C 0.60015 0.99515 0.08392 0.0
C1660 C 0.59218 0.99501 0.09785 0.0
C1661 C 0.56803 0.99401 0.13708 0.0
C1662 C 0.57642 0.99445 0.12363 0.0
H1663 H 0.59943 0.97824 0.05006 0.0
H1664 H 0.58647 0.97832 0.07268 0.0
H1665 H 0.59833 0.01408 0.09647 0.0
H1666 H 0.56792 0.00853 0.17333 0.0
H1667 H 0.58138 0.01016 0.15008 0.0
C1668 C 0.98701 0.61692 0.07143 0.0
C1669 C 0.99675 0.62242 0.05993 0.0
C1670 C 0.98728 0.61005 0.08498 0.0
C1671 C 0.00205 0.59325 0.09889 0.0
H1672 H 0.98891 0.59426 0.14303 0.0
C1673 C 0.00601 0.56909 0.15859 0.0
C1674 C 0.99561 0.563 0.16885 0.0
C1675 C 0.00644 0.57645 0.14522 0.0
C1676 C 0.99252 0.5938 0.13073 0.0
H1677 H 0.01452 0.62526 0.05382 0.0
H1678 H 0.01507 0.61345 0.07762 0.0
H1679 H 0.98928 0.60718 0.12015 0.0
H1680 H 0.97754 0.55993 0.17319 0.0
H1681 H 0.97825 0.57262 0.14977 0.0
H1682 H 0.00531 0.57987 0.10955 0.0
C1683 C 0.00712 0.61425 0.076 0.0
C1684 C 0.99272 0.6012 0.11761 0.0
C1685 C 0.00684 0.62108 0.06242 0.0
C1686 C 0.98563 0.56437 0.16538 0.0
C1687 C 0.98609 0.57177 0.1521 0.0
C1688 C 0.00189 0.58588 0.11204 0.0
C1689 C -0.00269 0.60857 0.08737 0.0
C1690 C -0.00258 0.60096 0.10149 0.0
C1691 C 0.99652 0.57795 0.14194 0.0
C1692 C -0.00297 0.58601 0.12807 0.0
H1693 H 0.97909 0.61774 0.06981 0.0
H1694 H 0.97949 0.60568 0.09337 0.0
H1695 H 0.00558 0.5927 0.08656 0.0
H1696 H 0.01381 0.56816 0.16089 0.0
H1697 H 0.01463 0.58116 0.13766 0.0
C1698 C 0.38806 0.39968 0.05655 0.0
C1699 C 0.38557 0.38872 0.04916 0.0
C1700 C 0.39599 0.4045 0.07029 0.0
C1701 C 0.41126 0.39645 0.10363 0.0
H1702 H 0.43215 0.43109 0.10675 0.0
C1703 C 0.45088 0.41924 0.15109 0.0
C1704 C 0.45114 0.42841 0.1612 0.0
C1705 C 0.44316 0.41462 0.1371 0.0
C1706 C 0.42633 0.4214 0.10606 0.0
H1707 H 0.38951 0.37425 0.05035 0.0
H1708 H 0.40365 0.38283 0.07389 0.0
H1709 H 0.41806 0.42244 0.08307 0.0
H1710 H 0.4435 0.43997 0.16423 0.0
H1711 H 0.43034 0.43217 0.13947 0.0
H1712 H 0.41982 0.39548 0.12644 0.0
C1713 C 0.39923 0.38757 0.06944 0.0
C1714 C 0.41819 0.41643 0.09255 0.0
C1715 C 0.39116 0.38266 0.05585 0.0
C1716 C 0.44373 0.43308 0.15662 0.0
C1717 C 0.43613 0.42857 0.14248 0.0
C1718 C 0.41951 0.40142 0.11698 0.0
C1719 C 0.40178 0.39857 0.07683 0.0
C1720 C 0.4105 0.40388 0.09119 0.0
C1721 C 0.43565 0.41918 0.13275 0.0
C1722 C 0.42709 0.41394 0.11836 0.0
H1723 H 0.38382 0.40452 0.05178 0.0
H1724 H 0.39751 0.41285 0.07585 0.0
H1725 H 0.40535 0.38677 0.10323 0.0
H1726 H 0.45663 0.41559 0.15399 0.0
H1727 H 0.44307 0.40749 0.12965 0.0
C1728 C 0.64676 0.70465 0.40364 0.0
C1729 C 0.65765 0.70995 0.39435 0.0
C1730 C 0.64507 0.71095 0.41685 0.0
C1731 C 0.65638 0.74176 0.43308 0.0
H1732 H 0.64053 0.72534 0.47497 0.0
C1733 C 0.65578 0.76693 0.49375 0.0
C1734 C 0.64514 0.76172 0.50361 0.0
C1735 C 0.65691 0.76074 0.47989 0.0
C1736 C 0.64482 0.73002 0.46326 0.0
H1737 H 0.67538 0.72593 0.39179 0.0
H1738 H 0.67248 0.73687 0.41499 0.0
H1739 H 0.64348 0.71421 0.45214 0.0
H1740 H 0.62726 0.74601 0.50644 0.0
H1741 H 0.62915 0.73528 0.48205 0.0
H1742 H 0.65778 0.75759 0.44426 0.0
C1743 C 0.66518 0.72792 0.41189 0.0
C1744 C 0.64653 0.72365 0.45018 0.0
C1745 C 0.66687 0.72162 0.39868 0.0
C1746 C 0.63554 0.75031 0.49903 0.0
C1747 C 0.63667 0.7441 0.48518 0.0
C1748 C 0.65468 0.74814 0.44616 0.0
C1749 C 0.65423 0.72268 0.42108 0.0
C1750 C 0.65236 0.72945 0.43495 0.0
C1751 C 0.64743 0.74919 0.47557 0.0
C1752 C 0.64891 0.74235 0.46143 0.0
H1753 H 0.63947 0.69569 0.40058 0.0
H1754 H 0.63649 0.7067 0.42355 0.0
H1755 H 0.66072 0.74645 0.42139 0.0
H1756 H 0.6633 0.77576 0.49685 0.0
H1757 H 0.66535 0.76488 0.47284 0.0
C1758 C 0.26596 0.94681 0.39793 0.0
C1759 C 0.27688 0.94993 0.38954 0.0
C1760 C 0.26182 0.93858 0.41137 0.0
C1761 C 0.26337 0.91316 0.42868 0.0
H1762 H 0.25198 0.92026 0.47048 0.0
C1763 C 0.24914 0.8819 0.48765 0.0
C1764 C 0.23948 0.88075 0.49767 0.0
C1765 C 0.25388 0.89027 0.47437 0.0
C1766 C 0.25494 0.91803 0.45881 0.0
H1767 H 0.292 0.94685 0.38871 0.0
H1768 H 0.28464 0.93232 0.4121 0.0
H1769 H 0.25996 0.93509 0.44764 0.0
H1770 H 0.22723 0.88755 0.50135 0.0
H1771 H 0.23505 0.90162 0.47778 0.0
H1772 H 0.25807 0.89598 0.43958 0.0
C1773 C 0.27934 0.93629 0.40825 0.0
C1774 C 0.25958 0.92657 0.44577 0.0
C1775 C 0.28358 0.94466 0.39494 0.0
C1776 C 0.23454 0.88801 0.4938 0.0
C1777 C 0.23919 0.89628 0.48043 0.0
C1778 C 0.25859 0.90454 0.44165 0.0
C1779 C 0.26842 0.93317 0.41658 0.0
C1780 C 0.26381 0.92421 0.43057 0.0
C1781 C 0.24903 0.89764 0.47066 0.0
C1782 C 0.25427 0.90684 0.45687 0.0
H1783 H 0.26059 0.95072 0.39411 0.0
H1784 H 0.25333 0.93627 0.4175 0.0
H1785 H 0.26646 0.91107 0.417 0.0
H1786 H 0.25309 0.87636 0.49009 0.0
H1787 H 0.26153 0.89113 0.46724 0.0
C1788 C 0.05346 0.33955 0.3972 0.0
C1789 C 0.05396 0.3327 0.38358 0.0
C1790 C 0.06051 0.34157 0.41175 0.0
C1791 C 0.08762 0.34166 0.42733 0.0
H1792 H 0.07177 0.33488 0.47145 0.0
C1793 C 0.11304 0.34781 0.49081 0.0
C1794 C 0.10739 0.33799 0.50206 0.0
C1795 C 0.10688 0.34839 0.47652 0.0
C1796 C 0.07631 0.33683 0.45921 0.0
H1797 H 0.06249 0.32287 0.37441 0.0
H1798 H 0.07479 0.32647 0.39966 0.0
H1799 H 0.06051 0.33386 0.44586 0.0
H1800 H 0.09079 0.32127 0.50743 0.0
H1801 H 0.08006 0.32228 0.4825 0.0
H1802 H 0.10334 0.34438 0.44064 0.0
C1803 C 0.06897 0.33028 0.3991 0.0
C1804 C 0.06991 0.33636 0.4446 0.0
C1805 C 0.06184 0.32814 0.38468 0.0
C1806 C 0.09542 0.32887 0.49887 0.0
C1807 C 0.08924 0.32952 0.48471 0.0
C1808 C 0.09406 0.34225 0.44196 0.0
C1809 C 0.06831 0.33693 0.41284 0.0
C1810 C 0.07544 0.33856 0.42848 0.0
C1811 C 0.09491 0.33925 0.47335 0.0
C1812 C 0.0884 0.33963 0.45802 0.0
H1813 H 0.04749 0.34318 0.39675 0.0
H1814 H 0.05988 0.34678 0.42213 0.0
H1815 H 0.09213 0.3435 0.41507 0.0
H1816 H 0.12227 0.35494 0.49294 0.0
H1817 H 0.11146 0.35602 0.468 0.0
C1818 C 0.06082 0.34417 0.29217 0.0
C1819 C 0.04907 0.33478 0.29597 0.0
C1820 C 0.06741 0.34299 0.27879 0.0
C1821 C 0.06917 0.31978 0.25377 0.0
H1822 H 0.08683 0.34516 0.22074 0.0
C1823 C 0.0863 0.31106 0.1908 0.0
C1824 C 0.09766 0.3199 0.1846 0.0
C1825 C 0.08114 0.31336 0.20493 0.0
C1826 C 0.0821 0.33805 0.23001 0.0
H1827 H 0.03488 0.31693 0.28848 0.0
H1828 H 0.04632 0.3149 0.26522 0.0
H1829 H 0.07637 0.34847 0.24436 0.0
H1830 H 0.1126 0.33807 0.18849 0.0
H1831 H 0.10359 0.34208 0.21331 0.0
H1832 H 0.07483 0.30933 0.23952 0.0
C1833 C 0.05052 0.32311 0.27268 0.0
C1834 C 0.07609 0.33995 0.24351 0.0
C1835 C 0.04394 0.32431 0.28594 0.0
C1836 C 0.10377 0.33111 0.19288 0.0
C1837 C 0.09861 0.33341 0.20707 0.0
C1838 C 0.07519 0.3179 0.24035 0.0
C1839 C 0.06237 0.33237 0.26908 0.0
C1840 C 0.0694 0.33075 0.25536 0.0
C1841 C 0.08723 0.32455 0.21325 0.0
C1842 C 0.08156 0.32693 0.22815 0.0
H1843 H 0.065 0.35236 0.29967 0.0
H1844 H 0.07654 0.35026 0.27632 0.0
H1845 H 0.0643 0.31261 0.26291 0.0
H1846 H 0.08125 0.30242 0.1845 0.0
H1847 H 0.07225 0.30642 0.20912 0.0
C1848 C 0.67276 0.7223 0.30088 0.0
C1849 C 0.6608 0.71645 0.307 0.0
C1850 C 0.67635 0.73068 0.28765 0.0
C1851 C 0.66687 0.74987 0.2648 0.0
H1852 H 0.69074 0.75283 0.23165 0.0
C1853 C 0.67685 0.77638 0.20158 0.0
C1854 C 0.6891 0.78413 0.19736 0.0
C1855 C 0.67359 0.76857 0.21548 0.0
C1856 C 0.68414 0.75216 0.24091 0.0
H1857 H 0.64315 0.71455 0.30367 0.0
H1858 H 0.64926 0.72877 0.28021 0.0
H1859 H 0.68448 0.73794 0.25434 0.0
H1860 H 0.70751 0.78995 0.20501 0.0
H1861 H 0.70175 0.77603 0.22892 0.0
H1862 H 0.6663 0.76387 0.25093 0.0
C1863 C 0.656 0.72722 0.28596 0.0
C1864 C 0.68057 0.74366 0.25397 0.0
C1865 C 0.65246 0.71898 0.29935 0.0
C1866 C 0.69799 0.78396 0.20761 0.0
C1867 C 0.69471 0.77602 0.22136 0.0
C1868 C 0.67032 0.75824 0.2516 0.0
C1869 C 0.66804 0.7333 0.28004 0.0
C1870 C 0.67188 0.74239 0.26611 0.0
C1871 C 0.68248 0.7682 0.22536 0.0
C1872 C 0.67898 0.75948 0.23954 0.0
H1873 H 0.67943 0.72062 0.30659 0.0
H1874 H 0.68573 0.73529 0.28365 0.0
H1875 H 0.66036 0.74937 0.27409 0.0
H1876 H 0.66972 0.77605 0.19385 0.0
H1877 H 0.66408 0.76255 0.2182 0.0
C1878 C 0.27195 0.96335 0.29303 0.0
C1879 C 0.27738 0.95776 0.3016 0.0
C1880 C 0.26368 0.95736 0.27993 0.0
C1881 C 0.24306 0.92691 0.26309 0.0
H1882 H 0.24458 0.94382 0.22154 0.0
C1883 C 0.21769 0.90234 0.20202 0.0
C1884 C 0.2127 0.9077 0.19188 0.0
C1885 C 0.22481 0.9084 0.2161 0.0
C1886 C 0.2439 0.93901 0.23316 0.0
H1887 H 0.27851 0.94155 0.30301 0.0
H1888 H 0.26417 0.93115 0.28009 0.0
H1889 H 0.25872 0.95461 0.24453 0.0
H1890 H 0.2111 0.92354 0.18881 0.0
H1891 H 0.22335 0.93405 0.21363 0.0
H1892 H 0.22829 0.9113 0.2517 0.0
C1893 C 0.26617 0.9401 0.28364 0.0
C1894 C 0.25203 0.94519 0.24633 0.0
C1895 C 0.27446 0.9461 0.2967 0.0
C1896 C 0.21473 0.91913 0.19643 0.0
C1897 C 0.22187 0.92521 0.21053 0.0
C1898 C 0.23492 0.92074 0.24995 0.0
C1899 C 0.26065 0.94564 0.27516 0.0
C1900 C 0.25177 0.93918 0.26138 0.0
C1901 C 0.22712 0.91997 0.2204 0.0
C1902 C 0.23532 0.92669 0.23476 0.0
H1903 H 0.27399 0.97232 0.29654 0.0
H1904 H 0.2595 0.96182 0.27375 0.0
H1905 H 0.24248 0.92208 0.27466 0.0
H1906 H 0.21618 0.89348 0.19897 0.0
H1907 H 0.22879 0.90415 0.22334 0.0
C1908 C 0.67633 0.95288 0.29716 0.0
C1909 C 0.66481 0.94557 0.3044 0.0
C1910 C 0.67999 0.94891 0.28295 0.0
C1911 C 0.66844 0.92879 0.24632 0.0
H1912 H 0.69812 0.92784 0.24835 0.0
C1913 C 0.67902 0.90264 0.19654 0.0
C1914 C 0.69108 0.90718 0.19136 0.0
C1915 C 0.67625 0.90784 0.21015 0.0
C1916 C 0.68992 0.92823 0.2474 0.0
H1917 H 0.648 0.92852 0.3022 0.0
H1918 H 0.65429 0.92175 0.27718 0.0
H1919 H 0.69261 0.93648 0.27201 0.0
H1920 H 0.7097 0.92071 0.19678 0.0
H1921 H 0.70483 0.93013 0.21995 0.0
H1922 H 0.66577 0.92082 0.22167 0.0
C1923 C 0.66051 0.93048 0.28259 0.0
C1924 C 0.68676 0.93315 0.26099 0.0
C1925 C 0.65695 0.93434 0.29695 0.0
C1926 C 0.7003 0.91705 0.20023 0.0
C1927 C 0.69751 0.92236 0.21371 0.0
C1928 C 0.67167 0.92405 0.23262 0.0
C1929 C 0.67209 0.93768 0.27555 0.0
C1930 C 0.6759 0.9333 0.26067 0.0
C1931 C 0.68543 0.91785 0.21882 0.0
C1932 C 0.68236 0.92351 0.23308 0.0
H1933 H 0.6826 0.96155 0.30266 0.0
H1934 H 0.68895 0.95463 0.27769 0.0
H1935 H 0.66008 0.92894 0.24569 0.0
H1936 H 0.67164 0.89519 0.1899 0.0
H1937 H 0.66687 0.90393 0.21387 0.0
C1938 C 0.05878 0.7242 0.29822 0.0
C1939 C 0.04696 0.72183 0.30116 0.0
C1940 C 0.06551 0.73126 0.28441 0.0
C1941 C 0.06248 0.74187 0.24232 0.0
H1942 H 0.09651 0.76529 0.24829 0.0
C1943 C 0.09164 0.77421 0.18847 0.0
C1944 C 0.10331 0.77597 0.18624 0.0
C1945 C 0.08471 0.76813 0.20277 0.0
C1946 C 0.08705 0.75871 0.24637 0.0
H1947 H 0.03291 0.72499 0.29191 0.0
H1948 H 0.04471 0.73736 0.26773 0.0
H1949 H 0.08442 0.75369 0.27269 0.0
H1950 H 0.11693 0.7729 0.19745 0.0
H1951 H 0.10475 0.76209 0.22223 0.0
H1952 H 0.06514 0.74678 0.21596 0.0
C1953 C 0.04873 0.73368 0.27608 0.0
C1954 C 0.08012 0.75208 0.26036 0.0
C1955 C 0.04199 0.72664 0.28996 0.0
C1956 C 0.10793 0.7716 0.19871 0.0
C1957 C 0.101 0.76552 0.21301 0.0
C1958 C 0.06942 0.74849 0.22832 0.0
C1959 C 0.06058 0.73609 0.27319 0.0
C1960 C 0.06779 0.74351 0.25846 0.0
C1961 C 0.08929 0.76367 0.21517 0.0
C1962 C 0.08181 0.75693 0.23016 0.0
H1963 H 0.06286 0.7206 0.30659 0.0
H1964 H 0.07454 0.73279 0.28239 0.0
H1965 H 0.05304 0.73523 0.2404 0.0
H1966 H 0.08776 0.77734 0.17901 0.0
H1967 H 0.07578 0.76697 0.20413 0.0
C1968 C 0.27913 0.32357 0.29836 0.0
C1969 C 0.28143 0.33245 0.31063 0.0
C1970 C 0.27134 0.32162 0.28469 0.0
C1971 C 0.25867 0.33713 0.26039 0.0
H1972 H 0.23467 0.30521 0.24496 0.0
C1973 C 0.22175 0.33072 0.214 0.0
C1974 C 0.21962 0.3231 0.19999 0.0
C1975 C 0.22863 0.33077 0.22773 0.0
C1976 C 0.2414 0.31418 0.24905 0.0
H1977 H 0.27706 0.34601 0.31834 0.0
H1978 H 0.26354 0.34255 0.2948 0.0
H1979 H 0.24834 0.30747 0.26822 0.0
H1980 H 0.22256 0.30915 0.18976 0.0
H1981 H 0.23463 0.30923 0.21387 0.0
H1982 H 0.2518 0.34389 0.24139 0.0
C1983 C 0.26789 0.33723 0.29549 0.0
C1984 C 0.24924 0.31547 0.26233 0.0
C1985 C 0.27562 0.33917 0.30907 0.0
C1986 C 0.22399 0.31507 0.20043 0.0
C1987 C 0.23091 0.31513 0.21421 0.0
C1988 C 0.25086 0.33585 0.24721 0.0
C1989 C 0.26575 0.32854 0.28303 0.0
C1990 C 0.25785 0.32698 0.26829 0.0
C1991 C 0.23358 0.32322 0.22779 0.0
C1992 C 0.24202 0.32437 0.24153 0.0
H1993 H 0.28343 0.31821 0.2992 0.0
H1994 H 0.26991 0.31489 0.27524 0.0
H1995 H 0.26539 0.34613 0.26438 0.0
H1996 H 0.21831 0.33685 0.21418 0.0
H1997 H 0.23028 0.33691 0.23819 0.0
C1998 C 0.27664 0.32169 0.40016 0.0
C1999 C 0.28849 0.33091 0.39645 0.0
C2000 C 0.27003 0.3231 0.41326 0.0
C2001 C 0.26065 0.32605 0.44761 0.0
H2002 H 0.26254 0.35694 0.45214 0.0
C2003 C 0.24171 0.33837 0.50604 0.0
C2004 C 0.23563 0.34472 0.50324 0.0
C2005 C 0.24777 0.3364 0.49274 0.0
C2006 C 0.26183 0.34823 0.45095 0.0
H2007 H 0.3028 0.34873 0.40379 0.0
H2008 H 0.29131 0.35113 0.42672 0.0
H2009 H 0.27389 0.35395 0.42956 0.0
H2010 H 0.23107 0.35389 0.48418 0.0
H2011 H 0.24171 0.35048 0.4609 0.0
H2012 H 0.24849 0.3203 0.46889 0.0
C2013 C 0.28706 0.34289 0.41936 0.0
C2014 C 0.26845 0.34656 0.43815 0.0
C2015 C 0.29367 0.34147 0.4063 0.0
C2016 C 0.23577 0.34907 0.4868 0.0
C2017 C 0.24186 0.34712 0.47347 0.0
C2018 C 0.25406 0.32774 0.46044 0.0
C2019 C 0.27512 0.33377 0.42287 0.0
C2020 C 0.26797 0.33547 0.43638 0.0
C2021 C 0.24793 0.34077 0.47631 0.0
C2022 C 0.25461 0.33886 0.46231 0.0
H2023 H 0.27239 0.31345 0.39278 0.0
H2024 H 0.26082 0.31594 0.41556 0.0
H2025 H 0.26015 0.31743 0.44665 0.0
H2026 H 0.24201 0.33511 0.51862 0.0
H2027 H 0.25254 0.33167 0.49542 0.0
C2028 C 0.6759 0.94961 0.39648 0.0
C2029 C 0.66551 0.95035 0.39349 0.0
C2030 C 0.67626 0.9428 0.41005 0.0
C2031 C 0.66185 0.92955 0.45133 0.0
H2032 H 0.67543 0.90901 0.44397 0.0
C2033 C 0.65779 0.89527 0.50173 0.0
C2034 C 0.66801 0.89419 0.50453 0.0
C2035 C 0.65743 0.90193 0.48798 0.0
C2036 C 0.67173 0.9148 0.4463 0.0
H2037 H 0.64737 0.94462 0.40249 0.0
H2038 H 0.64798 0.93271 0.42617 0.0
H2039 H 0.67504 0.92122 0.42058 0.0
H2040 H 0.68578 0.89907 0.49481 0.0
H2041 H 0.68525 0.91091 0.471 0.0
H2042 H 0.65861 0.92321 0.47705 0.0
C2043 C 0.65589 0.93747 0.41809 0.0
C2044 C 0.67151 0.9218 0.43289 0.0
C2045 C 0.65552 0.94425 0.40448 0.0
C2046 C 0.67781 0.89981 0.49311 0.0
C2047 C 0.67745 0.90649 0.47936 0.0
C2048 C 0.66211 0.92259 0.46474 0.0
C2049 C 0.66624 0.93662 0.42097 0.0
C2050 C 0.66655 0.92924 0.43525 0.0
C2051 C 0.66729 0.90771 0.4767 0.0
C2052 C 0.66703 0.91511 0.46239 0.0
H2053 H 0.68376 0.95423 0.38827 0.0
H2054 H 0.68442 0.94246 0.41207 0.0
H2055 H 0.65813 0.93533 0.45362 0.0
H2056 H 0.65014 0.89119 0.51038 0.0
H2057 H 0.6494 0.90254 0.48618 0.0
C2058 C 0.05534 0.71691 0.39635 0.0
C2059 C 0.05014 0.72349 0.39026 0.0
C2060 C 0.0635 0.72128 0.4099 0.0
C2061 C 0.0835 0.74961 0.43353 0.0
H2062 H 0.08497 0.72782 0.46607 0.0
C2063 C 0.11033 0.76504 0.49663 0.0
C2064 C 0.11767 0.76013 0.50039 0.0
C2065 C 0.10236 0.76074 0.48287 0.0
C2066 C 0.0847 0.73399 0.45698 0.0
H2067 H 0.04904 0.73958 0.39403 0.0
H2068 H 0.06284 0.74696 0.41806 0.0
H2069 H 0.07005 0.71975 0.4433 0.0
H2070 H 0.12255 0.74704 0.49216 0.0
H2071 H 0.10834 0.73932 0.46849 0.0
H2072 H 0.09796 0.76385 0.44764 0.0
C2073 C 0.061 0.73864 0.41203 0.0
C2074 C 0.07619 0.72938 0.44389 0.0
C2075 C 0.05299 0.73435 0.39832 0.0
C2076 C 0.1169 0.75089 0.48989 0.0
C2077 C 0.10879 0.74648 0.47629 0.0
C2078 C 0.09189 0.75422 0.44678 0.0
C2079 C 0.0665 0.73225 0.41786 0.0
C2080 C 0.07548 0.73713 0.43195 0.0
C2081 C 0.10142 0.75133 0.47271 0.0
C2082 C 0.09259 0.74645 0.45859 0.0
H2083 H 0.05339 0.70855 0.39032 0.0
H2084 H 0.06767 0.71619 0.41384 0.0
H2085 H 0.08344 0.75586 0.42441 0.0
H2086 H 0.11047 0.77199 0.50458 0.0
H2087 H 0.09668 0.76456 0.48047 0.0
C2088 C 0.33041 0.05597 0.72916 0.0
C2089 C 0.32168 0.04411 0.72478 0.0
C2090 C 0.32805 0.06207 0.74196 0.0
C2091 C 0.30856 0.05687 0.77951 0.0
H2092 H 0.31922 0.09072 0.77422 0.0
C2093 C 0.29785 0.08281 0.83002 0.0
C2094 C 0.30765 0.09405 0.83478 0.0
C2095 C 0.29865 0.07683 0.81561 0.0
C2096 C 0.31624 0.08128 0.77592 0.0
H2097 H 0.30361 0.02937 0.73035 0.0
H2098 H 0.29945 0.04004 0.75258 0.0
H2099 H 0.32254 0.07998 0.75115 0.0
H2100 H 0.32572 0.10811 0.82772 0.0
H2101 H 0.32719 0.09766 0.80275 0.0
H2102 H 0.30239 0.0582 0.80435 0.0
C2103 C 0.30818 0.04458 0.74627 0.0
C2104 C 0.31817 0.07514 0.76272 0.0
C2105 C 0.31054 0.03848 0.73347 0.0
C2106 C 0.31807 0.09939 0.82449 0.0
C2107 C 0.31886 0.09345 0.81008 0.0
C2108 C 0.30662 0.06301 0.7927 0.0
C2109 C 0.3169 0.05645 0.75067 0.0
C2110 C 0.31445 0.06288 0.76443 0.0
C2111 C 0.30925 0.08201 0.80563 0.0
C2112 C 0.31055 0.07532 0.79113 0.0
H2113 H 0.33909 0.06054 0.72272 0.0
H2114 H 0.33503 0.07114 0.74521 0.0
H2115 H 0.30573 0.04747 0.78134 0.0
H2116 H 0.28972 0.07844 0.83775 0.0
H2117 H 0.29103 0.06809 0.8124 0.0
C2118 C 0.93093 0.279 0.71609 0.0
C2119 C 0.94351 0.28489 0.71363 0.0
C2120 C 0.92553 0.27164 0.73023 0.0
C2121 C 0.92997 0.25406 0.76333 0.0
H2122 H 0.90401 0.25596 0.78581 0.0
C2123 C 0.90662 0.22884 0.82625 0.0
C2124 C 0.89403 0.22392 0.82727 0.0
C2125 C 0.91318 0.23599 0.81233 0.0
C2126 C 0.91115 0.25522 0.77957 0.0
H2127 H 0.96029 0.28754 0.72415 0.0
H2128 H 0.95082 0.2747 0.74906 0.0
H2129 H 0.9147 0.26932 0.7621 0.0
H2130 H 0.87837 0.22202 0.814 0.0
H2131 H 0.88978 0.23442 0.78979 0.0
H2132 H 0.92636 0.23991 0.78094 0.0
C2133 C 0.94515 0.27575 0.73988 0.0
C2134 C 0.9173 0.26289 0.76598 0.0
C2135 C 0.95058 0.28315 0.72566 0.0
C2136 C 0.88809 0.22588 0.81376 0.0
C2137 C 0.89463 0.233 0.7999 0.0
C2138 C 0.92382 0.24636 0.777 0.0
C2139 C 0.93257 0.26998 0.74236 0.0
C2140 C 0.92665 0.26229 0.75752 0.0
C2141 C 0.90727 0.23836 0.79919 0.0
C2142 C 0.91422 0.24675 0.7851 0.0
H2143 H 0.92516 0.28003 0.70705 0.0
H2144 H 0.9158 0.26716 0.73158 0.0
H2145 H 0.93709 0.25333 0.757 0.0
H2146 H 0.91147 0.22757 0.83653 0.0
H2147 H 0.92292 0.24003 0.81218 0.0
C2148 C 0.72589 0.67988 0.723 0.0
C2149 C 0.72039 0.66827 0.71595 0.0
C2150 C 0.73351 0.68284 0.7371 0.0
C2151 C 0.75119 0.67217 0.76148 0.0
H2152 H 0.7523 0.69454 0.79556 0.0
C2153 C 0.77392 0.67918 0.82739 0.0
C2154 C 0.7818 0.69119 0.83231 0.0
C2155 C 0.76675 0.67654 0.81286 0.0
C2156 C 0.75213 0.68834 0.78606 0.0
H2157 H 0.71826 0.65055 0.71845 0.0
H2158 H 0.73109 0.65552 0.74337 0.0
H2159 H 0.73881 0.68946 0.77123 0.0
H2160 H 0.7885 0.70984 0.82536 0.0
H2161 H 0.77564 0.70516 0.80038 0.0
H2162 H 0.76424 0.67079 0.77675 0.0
C2163 C 0.72992 0.66251 0.73772 0.0
C2164 C 0.74445 0.68546 0.77206 0.0
C2165 C 0.72247 0.65962 0.72348 0.0
C2166 C 0.78237 0.70048 0.82222 0.0
C2167 C 0.77505 0.69783 0.80786 0.0
C2168 C 0.75871 0.6749 0.77562 0.0
C2169 C 0.73566 0.6742 0.74464 0.0
C2170 C 0.74387 0.67733 0.75956 0.0
C2171 C 0.76716 0.68584 0.80307 0.0
C2172 C 0.75926 0.68302 0.78802 0.0
H2173 H 0.72452 0.68677 0.7174 0.0
H2174 H 0.73789 0.69198 0.74186 0.0
H2175 H 0.75123 0.66609 0.75197 0.0
H2176 H 0.77303 0.67177 0.83496 0.0
H2177 H 0.76065 0.66721 0.80951 0.0
C2178 C 0.72556 0.67709 0.62051 0.0
C2179 C 0.71512 0.66723 0.62744 0.0
C2180 C 0.732 0.67536 0.60745 0.0
C2181 C 0.73779 0.65255 0.58929 0.0
H2182 H 0.7463 0.67151 0.5479 0.0
C2183 C 0.75261 0.63854 0.52839 0.0
C2184 C 0.76109 0.6475 0.51745 0.0
C2185 C 0.74811 0.64161 0.54256 0.0
C2186 C 0.74421 0.66628 0.55949 0.0
H2187 H 0.70321 0.64787 0.62614 0.0
H2188 H 0.71451 0.64486 0.60352 0.0
H2189 H 0.73638 0.67581 0.57119 0.0
H2190 H 0.77168 0.66678 0.51316 0.0
H2191 H 0.7642 0.67214 0.53826 0.0
H2192 H 0.74566 0.64307 0.57779 0.0
C2193 C 0.71773 0.6539 0.60819 0.0
C2194 C 0.73849 0.66873 0.57279 0.0
C2195 C 0.71122 0.65565 0.62104 0.0
C2196 C 0.76524 0.65964 0.52137 0.0
C2197 C 0.76082 0.66271 0.53565 0.0
C2198 C 0.74363 0.65019 0.57609 0.0
C2199 C 0.72819 0.66373 0.6013 0.0
C2200 C 0.73504 0.66175 0.58769 0.0
C2201 C 0.75207 0.65372 0.5463 0.0
C2202 C 0.74673 0.65688 0.56089 0.0
H2203 H 0.72877 0.68612 0.62519 0.0
H2204 H 0.74007 0.68307 0.60237 0.0
H2205 H 0.73539 0.64716 0.60077 0.0
H2206 H 0.74934 0.62912 0.52592 0.0
H2207 H 0.74128 0.63442 0.55033 0.0
C2208 C 0.32092 0.05201 0.62958 0.0
C2209 C 0.32895 0.04949 0.63823 0.0
C2210 C 0.32498 0.06024 0.61615 0.0
C2211 C 0.35196 0.08665 0.59938 0.0
H2212 H 0.33338 0.07923 0.55775 0.0
C2213 C 0.36804 0.11891 0.54127 0.0
C2214 C 0.35915 0.11966 0.53182 0.0
C2215 C 0.36475 0.11037 0.55425 0.0
C2216 C 0.3386 0.08154 0.56937 0.0
H2217 H 0.34756 0.05363 0.63948 0.0
H2218 H 0.35468 0.06816 0.61607 0.0
H2219 H 0.32691 0.06411 0.5801 0.0
H2220 H 0.33979 0.11196 0.52882 0.0
H2221 H 0.33413 0.09755 0.55182 0.0
H2222 H 0.36349 0.10419 0.58889 0.0
C2223 C 0.34524 0.06371 0.61973 0.0
C2224 C 0.33491 0.07283 0.58214 0.0
C2225 C 0.34114 0.05534 0.63305 0.0
C2226 C 0.34692 0.11182 0.53594 0.0
C2227 C 0.34365 0.10337 0.54898 0.0
C2228 C 0.3556 0.09542 0.58667 0.0
C2229 C 0.3372 0.06626 0.61118 0.0
C2230 C 0.3415 0.07532 0.59732 0.0
C2231 C 0.3525 0.1024 0.55815 0.0
C2232 C 0.3489 0.09301 0.57155 0.0
H2233 H 0.31148 0.04766 0.63323 0.0
H2234 H 0.3186 0.06211 0.60989 0.0
H2235 H 0.35714 0.08886 0.61104 0.0
H2236 H 0.37755 0.12489 0.5386 0.0
H2237 H 0.37183 0.10985 0.56095 0.0
C2238 C 0.94849 0.27592 0.62637 0.0
C2239 C 0.95129 0.28794 0.62769 0.0
C2240 C 0.94062 0.26839 0.61377 0.0
C2241 C 0.92762 0.26855 0.57217 0.0
H2242 H 0.9029 0.23615 0.58478 0.0
C2243 C 0.89129 0.23687 0.52441 0.0
C2244 C 0.88877 0.22491 0.52401 0.0
C2245 C 0.89816 0.2446 0.53759 0.0
C2246 C 0.90981 0.24513 0.581 0.0
H2247 H 0.94824 0.30156 0.61661 0.0
H2248 H 0.93452 0.28841 0.59454 0.0
H2249 H 0.91682 0.24965 0.60634 0.0
H2250 H 0.89101 0.21155 0.5376 0.0
H2251 H 0.90321 0.22508 0.56034 0.0
H2252 H 0.92077 0.264 0.5468 0.0
C2253 C 0.93844 0.28483 0.60324 0.0
C2254 C 0.91779 0.25286 0.59336 0.0
C2255 C 0.94626 0.29234 0.61591 0.0
C2256 C 0.89292 0.22075 0.5374 0.0
C2257 C 0.89981 0.22848 0.55056 0.0
C2258 C 0.91968 0.26081 0.55979 0.0
C2259 C 0.93544 0.27274 0.60215 0.0
C2260 C 0.92683 0.26463 0.58906 0.0
C2261 C 0.90267 0.24056 0.55068 0.0
C2262 C 0.91072 0.24897 0.56404 0.0
H2263 H 0.95224 0.27226 0.63523 0.0
H2264 H 0.93862 0.25917 0.61308 0.0
H2265 H 0.93458 0.27753 0.56844 0.0
H2266 H 0.88832 0.2404 0.51422 0.0
H2267 H 0.90004 0.2538 0.53743 0.0
C2268 C 0.34125 0.28565 0.62814 0.0
C2269 C 0.32954 0.27915 0.63507 0.0
C2270 C 0.34449 0.28119 0.61407 0.0
C2271 C 0.33464 0.25267 0.5902 0.0
H2272 H 0.35754 0.27413 0.55643 0.0
C2273 C 0.34378 0.23645 0.526 0.0
C2274 C 0.356 0.24106 0.52161 0.0
C2275 C 0.34061 0.24106 0.53994 0.0
C2276 C 0.35119 0.26805 0.56584 0.0
H2277 H 0.3119 0.26313 0.63228 0.0
H2278 H 0.31735 0.2556 0.60739 0.0
H2279 H 0.35167 0.28246 0.58005 0.0
H2280 H 0.37446 0.25401 0.52888 0.0
H2281 H 0.36885 0.26229 0.55283 0.0
H2282 H 0.33396 0.23826 0.57561 0.0
C2283 C 0.32421 0.26392 0.61313 0.0
C2284 C 0.34785 0.27281 0.57943 0.0
C2285 C 0.32104 0.26829 0.62734 0.0
C2286 C 0.36496 0.25039 0.53161 0.0
C2287 C 0.36177 0.25511 0.54539 0.0
C2288 C 0.33785 0.24792 0.57648 0.0
C2289 C 0.33603 0.2702 0.60645 0.0
C2290 C 0.33954 0.26518 0.59183 0.0
C2291 C 0.34957 0.2505 0.54966 0.0
C2292 C 0.34618 0.25556 0.5642 0.0
H2293 H 0.34803 0.29402 0.63389 0.0
H2294 H 0.35372 0.28622 0.60947 0.0
H2295 H 0.32844 0.2465 0.59966 0.0
H2296 H 0.33661 0.22945 0.51845 0.0
H2297 H 0.33112 0.23743 0.54288 0.0
C2298 C 0.70388 0.05371 0.61663 0.0
C2299 C 0.70886 0.04803 0.62604 0.0
C2300 C 0.71002 0.06083 0.60253 0.0
C2301 C 0.74053 0.0781 0.58359 0.0
H2302 H 0.72294 0.07771 0.54334 0.0
C2303 C 0.7642 0.10366 0.52162 0.0
C2304 C 0.75918 0.1098 0.51346 0.0
C2305 C 0.75822 0.09599 0.53534 0.0
C2306 C 0.72796 0.078 0.55456 0.0
H2307 H 0.72406 0.04513 0.62784 0.0
H2308 H 0.7347 0.05743 0.60306 0.0
H2309 H 0.71209 0.06423 0.56698 0.0
H2310 H 0.74394 0.11269 0.51328 0.0
H2311 H 0.73359 0.09944 0.53734 0.0
H2312 H 0.75641 0.09189 0.57111 0.0
C2313 C 0.72615 0.05655 0.60676 0.0
C2314 C 0.72175 0.07028 0.5681 0.0
C2315 C 0.72001 0.04944 0.62089 0.0
C2316 C 0.74811 0.10819 0.51941 0.0
C2317 C 0.7421 0.10049 0.53306 0.0
C2318 C 0.74676 0.08581 0.57001 0.0
C2319 C 0.72126 0.06239 0.59749 0.0
C2320 C 0.72794 0.07029 0.58283 0.0
C2321 C 0.74706 0.09425 0.54111 0.0
C2322 C 0.74052 0.0859 0.5554 0.0
H2323 H 0.69532 0.05283 0.62031 0.0
H2324 H 0.70607 0.06533 0.59583 0.0
H2325 H 0.74555 0.07847 0.59484 0.0
H2326 H 0.77277 0.1048 0.5174 0.0
H2327 H 0.76223 0.09126 0.54122 0.0
C2328 C 0.93997 0.65599 0.62866 0.0
C2329 C 0.9462 0.66804 0.63412 0.0
C2330 C 0.9318 0.65241 0.61512 0.0
C2331 C 0.92438 0.6637 0.57716 0.0
H2332 H 0.89168 0.63699 0.58344 0.0
C2333 C 0.88715 0.65447 0.52892 0.0
C2334 C 0.87842 0.64246 0.52518 0.0
C2335 C 0.89524 0.6572 0.54233 0.0
C2336 C 0.90082 0.64435 0.58133 0.0
H2337 H 0.94895 0.68584 0.62938 0.0
H2338 H 0.93491 0.67963 0.60556 0.0
H2339 H 0.90652 0.64225 0.60609 0.0
H2340 H 0.87122 0.62393 0.53312 0.0
H2341 H 0.88568 0.62866 0.55598 0.0
H2342 H 0.91891 0.66572 0.55235 0.0
C2343 C 0.93628 0.67295 0.61184 0.0
C2344 C 0.9093 0.64736 0.59434 0.0
C2345 C 0.94428 0.67648 0.62552 0.0
C2346 C 0.87792 0.63327 0.53542 0.0
C2347 C 0.88613 0.636 0.54872 0.0
C2348 C 0.91598 0.66059 0.56407 0.0
C2349 C 0.92988 0.66087 0.6066 0.0
C2350 C 0.92111 0.65716 0.59245 0.0
C2351 C 0.89498 0.64801 0.55226 0.0
C2352 C 0.90403 0.65098 0.56605 0.0
H2353 H 0.94122 0.64927 0.63507 0.0
H2354 H 0.92701 0.64305 0.61126 0.0
H2355 H 0.93348 0.6712 0.5753 0.0
H2356 H 0.88799 0.66181 0.52122 0.0
H2357 H 0.90175 0.66657 0.54485 0.0
C2358 C 0.95591 0.68408 0.7287 0.0
C2359 C 0.95155 0.67247 0.72203 0.0
C2360 C 0.94958 0.68605 0.7416 0.0
C2361 C 0.92808 0.67115 0.77641 0.0
H2362 H 0.92211 0.69767 0.77235 0.0
C2363 C 0.89905 0.67848 0.82583 0.0
C2364 C 0.90285 0.69039 0.83064 0.0
C2365 C 0.90439 0.67609 0.81197 0.0
C2366 C 0.92383 0.69032 0.77381 0.0
H2367 H 0.93723 0.6538 0.7238 0.0
H2368 H 0.92625 0.65724 0.7466 0.0
H2369 H 0.93285 0.69393 0.74964 0.0
H2370 H 0.91506 0.70914 0.82422 0.0
H2371 H 0.92471 0.705 0.80055 0.0
H2372 H 0.91941 0.66769 0.80074 0.0
C2373 C 0.93455 0.6648 0.74176 0.0
C2374 C 0.92994 0.68816 0.76076 0.0
C2375 C 0.9408 0.66285 0.72869 0.0
C2376 C 0.91201 0.69986 0.82105 0.0
C2377 C 0.91744 0.69747 0.80729 0.0
C2378 C 0.92209 0.67338 0.78955 0.0
C2379 C 0.93883 0.67644 0.74825 0.0
C2380 C 0.93215 0.67858 0.76196 0.0
C2381 C 0.91377 0.68555 0.80265 0.0
C2382 C 0.9199 0.68301 0.78844 0.0
H2383 H 0.96416 0.69168 0.72381 0.0
H2384 H 0.95315 0.69509 0.7465 0.0
H2385 H 0.92979 0.66377 0.77774 0.0
H2386 H 0.89214 0.67094 0.83301 0.0
H2387 H 0.90119 0.6668 0.80862 0.0
C2388 C 0.34092 0.2801 0.72626 0.0
C2389 C 0.3311 0.28191 0.72399 0.0
C2390 C 0.34087 0.27287 0.73951 0.0
C2391 C 0.32714 0.2605 0.78133 0.0
H2392 H 0.33858 0.2383 0.77274 0.0
C2393 C 0.32411 0.22694 0.83237 0.0
C2394 C 0.33421 0.22551 0.83411 0.0
C2395 C 0.32323 0.23328 0.81858 0.0
C2396 C 0.33547 0.24453 0.77539 0.0
H2397 H 0.31354 0.2776 0.73389 0.0
H2398 H 0.31346 0.26494 0.75707 0.0
H2399 H 0.33801 0.2505 0.74949 0.0
H2400 H 0.35117 0.22938 0.82245 0.0
H2401 H 0.34976 0.24066 0.79858 0.0
H2402 H 0.32472 0.25465 0.80727 0.0
C2403 C 0.32123 0.26919 0.74864 0.0
C2404 C 0.33513 0.25152 0.76207 0.0
C2405 C 0.32125 0.2764 0.73533 0.0
C2406 C 0.34333 0.23042 0.82158 0.0
C2407 C 0.34245 0.23677 0.8078 0.0
C2408 C 0.3275 0.25353 0.79468 0.0
C2409 C 0.33102 0.26731 0.75083 0.0
C2410 C 0.33103 0.25964 0.76491 0.0
C2411 C 0.33243 0.23836 0.8062 0.0
C2412 C 0.33172 0.24551 0.79189 0.0
H2413 H 0.34865 0.28424 0.71776 0.0
H2414 H 0.34863 0.27175 0.741 0.0
H2415 H 0.32407 0.26678 0.78398 0.0
H2416 H 0.31699 0.2234 0.84189 0.0
H2417 H 0.31532 0.23421 0.81764 0.0
C2418 C 0.71942 0.04851 0.72526 0.0
C2419 C 0.71888 0.05609 0.71289 0.0
C2420 C 0.72783 0.05331 0.73849 0.0
C2421 C 0.7476 0.08197 0.76123 0.0
H2422 H 0.76322 0.06492 0.77775 0.0
C2423 C 0.78628 0.10296 0.81014 0.0
C2424 C 0.78509 0.09564 0.82414 0.0
C2425 C 0.77883 0.09809 0.79591 0.0
C2426 C 0.75888 0.06975 0.77331 0.0
H2427 H 0.72691 0.07465 0.7046 0.0
H2428 H 0.74171 0.08295 0.72736 0.0
H2429 H 0.74888 0.05651 0.75426 0.0
H2430 H 0.7752 0.07737 0.83392 0.0
H2431 H 0.76242 0.06888 0.80896 0.0
H2432 H 0.75769 0.09525 0.7802 0.0
C2433 C 0.73546 0.07333 0.72712 0.0
C2434 C 0.75063 0.06491 0.7599 0.0
C2435 C 0.727 0.06855 0.71399 0.0
C2436 C 0.77654 0.08326 0.82329 0.0
C2437 C 0.76916 0.07838 0.809 0.0
C2438 C 0.75592 0.08684 0.77452 0.0
C2439 C 0.73595 0.06578 0.73959 0.0
C2440 C 0.74485 0.07094 0.75374 0.0
C2441 C 0.77009 0.08578 0.79529 0.0
C2442 C 0.76162 0.08077 0.78074 0.0
H2443 H 0.71327 0.03887 0.72482 0.0
H2444 H 0.72782 0.04724 0.748 0.0
H2445 H 0.74317 0.08676 0.75706 0.0
H2446 H 0.79291 0.11249 0.81022 0.0
H2447 H 0.77987 0.10398 0.78541 0.0
C2448 C 0.02179 0.33645 0.02911 0.0
C2449 C 0.02494 0.34823 0.02462 0.0
C2450 C 0.03074 0.33349 0.03175 0.0
C2451 C 0.06113 0.34645 0.04723 0.0
H2452 H 0.0603 0.31824 0.0283 0.0
C2453 C 0.09538 0.3332 0.06937 0.0
C2454 C 0.09104 0.32085 0.07187 0.0
C2455 C 0.08855 0.33704 0.06047 0.0
C2456 C 0.06061 0.32608 0.03387 0.0
H2457 H 0.0399 0.36611 0.01903 0.0
H2458 H 0.0556 0.361 0.02418 0.0
H2459 H 0.04574 0.32383 0.01867 0.0
H2460 H 0.07634 0.30291 0.0658 0.0
H2461 H 0.06413 0.30957 0.05136 0.0
H2462 H 0.07537 0.34839 0.06323 0.0
C2463 C 0.04618 0.35405 0.02543 0.0
C2464 C 0.05232 0.32931 0.02823 0.0
C2465 C 0.03721 0.35695 0.02244 0.0
C2466 C 0.0799 0.31248 0.06454 0.0
C2467 C 0.07295 0.31633 0.05594 0.0
C2468 C 0.06925 0.3431 0.05312 0.0
C2469 C 0.04302 0.34232 0.03026 0.0
C2470 C 0.05244 0.33946 0.03499 0.0
C2471 C 0.07705 0.32868 0.0541 0.0
C2472 C 0.06904 0.33278 0.04668 0.0
H2473 H 0.0124 0.32953 0.03082 0.0
H2474 H 0.02808 0.32441 0.0356 0.0
H2475 H 0.06129 0.35423 0.05281 0.0
H2476 H 0.10385 0.33997 0.07488 0.0
H2477 H 0.0922 0.34662 0.05896 0.0
C2478 C 0.65217 0.68386 0.03241 0.0
C2479 C 0.63987 0.67752 0.02792 0.0
C2480 C 0.65751 0.69562 0.03863 0.0
C2481 C 0.65384 0.72225 0.0405 0.0
H2482 H 0.675 0.73074 0.07957 0.0
C2483 C 0.66956 0.7657 0.07998 0.0
C2484 C 0.68134 0.7715 0.08666 0.0
C2485 C 0.66494 0.75472 0.0714 0.0
C2486 C 0.66927 0.7286 0.06849 0.0
H2487 H 0.62359 0.67864 0.02632 0.0
H2488 H 0.63292 0.69914 0.03729 0.0
H2489 H 0.66607 0.71063 0.06749 0.0
H2490 H 0.69759 0.7704 0.08911 0.0
H2491 H 0.68967 0.75149 0.07375 0.0
H2492 H 0.65702 0.74023 0.04158 0.0
C2493 C 0.63844 0.69504 0.03584 0.0
C2494 C 0.66413 0.71705 0.06158 0.0
C2495 C 0.63308 0.68326 0.02966 0.0
C2496 C 0.68853 0.76627 0.084 0.0
C2497 C 0.68393 0.75532 0.07539 0.0
C2498 C 0.65902 0.73383 0.04739 0.0
C2499 C 0.6507 0.70133 0.04047 0.0
C2500 C 0.65633 0.71372 0.04754 0.0
C2501 C 0.672 0.74929 0.06929 0.0
C2502 C 0.66677 0.73713 0.0615 0.0
H2503 H 0.65769 0.67975 0.03116 0.0
H2504 H 0.66702 0.70028 0.04188 0.0
H2505 H 0.64799 0.72 0.02954 0.0
H2506 H 0.66382 0.76955 0.08162 0.0
H2507 H 0.65569 0.75029 0.06695 0.0
C2508 C 0.31423 0.96792 0.02353 0.0
C2509 C 0.32195 0.96317 0.02396 0.0
C2510 C 0.30221 0.96102 0.02895 0.0
C2511 C 0.27839 0.92941 0.03913 0.0
H2512 H 0.26371 0.94504 0.06345 0.0
C2513 C 0.23629 0.90474 0.0825 0.0
C2514 C 0.22717 0.90767 0.08067 0.0
C2515 C 0.24719 0.9111 0.07359 0.0
C2516 C 0.26766 0.94058 0.05649 0.0
H2517 H 0.32319 0.94753 0.03065 0.0
H2518 H 0.30244 0.93569 0.04077 0.0
H2519 H 0.2842 0.9571 0.0523 0.0
H2520 H 0.22232 0.91938 0.06738 0.0
H2521 H 0.2416 0.93078 0.05235 0.0
H2522 H 0.26195 0.91282 0.04413 0.0
C2523 C 0.30548 0.94458 0.03572 0.0
C2524 C 0.27939 0.94749 0.05004 0.0
C2525 C 0.31743 0.95141 0.03004 0.0
C2526 C 0.22919 0.917 0.06939 0.0
C2527 C 0.24019 0.9235 0.0607 0.0
C2528 C 0.26673 0.9225 0.04583 0.0
C2529 C 0.29768 0.94927 0.03519 0.0
C2530 C 0.28497 0.94198 0.04139 0.0
C2531 C 0.24932 0.92066 0.06285 0.0
C2532 C 0.2613 0.92802 0.05467 0.0
H2533 H 0.31741 0.97692 0.01875 0.0
H2534 H 0.29645 0.96488 0.02807 0.0
H2535 H 0.28224 0.92486 0.03221 0.0
H2536 H 0.23524 0.89783 0.09131 0.0
H2537 H 0.25415 0.90884 0.07561 0.0
C2538 C 0.33701 0.02157 0.9871 0.0
C2539 C 0.34731 0.0253 -0.00277 0.0
C2540 C 0.33355 0.02976 0.9821 0.0
C2541 C 0.3368 0.0593 0.99129 0.0
H2542 H 0.32769 0.05734 0.94385 0.0
C2543 C 0.32735 0.09402 0.95763 0.0
C2544 C 0.31778 0.08931 0.94586 0.0
C2545 C 0.33097 0.08655 0.96526 0.0
C2546 C 0.33006 0.05793 0.95718 0.0
H2547 H 0.36183 0.04047 0.01054 0.0
H2548 H 0.35577 0.05487 0.00167 0.0
H2549 H 0.33404 0.04379 0.95469 0.0
H2550 H 0.3044 0.07294 0.93321 0.0
H2551 H 0.31044 0.05997 0.94683 0.0
H2552 H 0.33275 0.07348 0.99369 0.0
C2553 C 0.35037 0.04557 -0.00232 0.0
C2554 C 0.33372 0.05016 0.96339 0.0
C2555 C 0.35386 0.03734 0.0027 0.0
C2556 C 0.31169 0.0769 0.94237 0.0
C2557 C 0.31528 0.06947 0.94999 0.0
C2558 C 0.3331 0.0671 0.98505 0.0
C2559 C 0.3403 0.04189 0.98707 0.0
C2560 C 0.33698 0.05063 0.98055 0.0
C2561 C 0.32513 0.07423 0.96122 0.0
C2562 C 0.32953 0.06637 0.96797 0.0
H2563 H 0.33168 0.01234 0.98278 0.0
H2564 H 0.32561 0.02658 0.9742 0.0
H2565 H 0.33923 0.05984 0.00459 0.0
H2566 H 0.33216 0.10352 0.96076 0.0
H2567 H 0.33861 0.0905 0.97385 0.0
C2568 C 0.9472 0.31504 0.01476 0.0
C2569 C 0.95951 0.32156 0.01029 0.0
C2570 C 0.93969 0.30343 0.00844 0.0
C2571 C 0.94011 0.27785 0.98673 0.0
H2572 H 0.90787 0.26967 0.97285 0.0
C2573 C 0.91053 0.23954 0.93966 0.0
C2574 C 0.89802 0.23265 0.94291 0.0
C2575 C 0.91804 0.24931 0.95006 0.0
C2576 C 0.91678 0.27174 0.9769 0.0
H2577 H 0.97361 0.32091 0.9958 0.0
H2578 H 0.96046 0.30084 0.98436 0.0
H2579 H 0.92093 0.28891 0.98657 0.0
H2580 H 0.88378 0.23022 0.96036 0.0
H2581 H 0.89689 0.24742 0.97833 0.0
H2582 H 0.936 0.26078 0.97638 0.0
C2583 C 0.95663 0.30456 0.99307 0.0
C2584 C 0.92428 0.28278 0.98481 0.0
C2585 C 0.96418 0.31613 -0.00046 0.0
C2586 C 0.89332 0.23547 0.95728 0.0
C2587 C 0.90082 0.2453 0.96759 0.0
C2588 C 0.93262 0.26684 0.97866 0.0
C2589 C 0.94426 0.29809 -0.00266 0.0
C2590 C 0.93609 0.28603 0.98972 0.0
C2591 C 0.91321 0.25247 0.96388 0.0
C2592 C 0.92091 0.26371 0.97355 0.0
H2593 H 0.94334 0.31891 0.02316 0.0
H2594 H 0.93027 0.29865 0.01228 0.0
H2595 H 0.94906 0.27995 0.9906 0.0
H2596 H 0.91446 0.23777 0.92859 0.0
H2597 H 0.92753 0.25475 0.94678 0.0
C2598 C 0.68092 0.64471 0.0021 0.0
C2599 C 0.67615 0.65213 -0.00174 0.0
C2600 C 0.69293 0.64836 -0.00202 0.0
C2601 C 0.72242 0.67518 0.98813 0.0
H2602 H 0.72873 0.65317 0.96251 0.0
C2603 C 0.7651 0.69148 0.94721 0.0
C2604 C 0.77021 0.68414 0.94531 0.0
C2605 C 0.75437 0.68743 0.95636 0.0
C2606 C 0.7272 0.65937 0.96996 0.0
H2607 H 0.68027 0.66926 0.98742 0.0
H2608 H 0.70119 0.67564 0.98037 0.0
H2609 H 0.70848 0.64625 0.9737 0.0
H2610 H 0.76833 0.66699 0.95214 0.0
H2611 H 0.74961 0.65995 0.96835 0.0
H2612 H 0.74106 0.68834 0.9843 0.0
C2613 C 0.69568 0.66703 0.98659 0.0
C2614 C 0.71558 0.6554 0.97633 0.0
C2615 C 0.68367 0.66334 0.99052 0.0
C2616 C 0.76453 0.67279 0.95323 0.0
C2617 C 0.7538 0.66876 0.96248 0.0
C2618 C 0.73405 0.67912 0.98189 0.0
C2619 C 0.70042 0.65956 0.99017 0.0
C2620 C 0.71301 0.66335 0.98512 0.0
C2621 C 0.74849 0.67596 0.96393 0.0
C2622 C 0.73652 0.67135 0.97237 0.0
H2623 H 0.67534 0.63602 0.00807 0.0
H2624 H 0.69637 0.64245 0.00094 0.0
H2625 H 0.72073 0.68145 0.99512 0.0
H2626 H 0.76911 0.70017 0.941 0.0
H2627 H 0.75045 0.69314 0.9569 0.0
C2628 C 0.94468 0.63286 0.00214 0.0
C2629 C 0.95734 0.64028 0.00234 0.0
C2630 C 0.9374 0.6372 0.99596 0.0
C2631 C 0.93744 0.66531 0.98675 0.0
H2632 H 0.91123 0.64525 0.95604 0.0
C2633 C 0.91466 0.68429 0.94418 0.0
C2634 C 0.90216 0.67724 0.94123 0.0
C2635 C 0.92071 0.67964 0.95323 0.0
C2636 C 0.91838 0.65089 0.96482 0.0
H2637 H 0.97225 0.65812 0.99628 0.0
H2638 H 0.95956 0.66563 0.98544 0.0
H2639 H 0.92313 0.63738 0.96874 0.0
H2640 H 0.88615 0.65988 0.94593 0.0
H2641 H 0.89674 0.65174 0.96183 0.0
H2642 H 0.93278 0.67887 0.98271 0.0
C2643 C 0.95525 0.6565 0.99022 0.0
C2644 C 0.92521 0.64639 0.97208 0.0
C2645 C 0.96254 0.65216 0.99634 0.0
C2646 C 0.8958 0.66549 0.94783 0.0
C2647 C 0.90187 0.66082 0.95692 0.0
C2648 C 0.93059 0.66981 0.97953 0.0
C2649 C 0.94261 0.64905 0.9899 0.0
C2650 C 0.93492 0.6536 0.98295 0.0
C2651 C 0.91442 0.66781 0.95958 0.0
C2652 C 0.92108 0.66271 0.9683 0.0
H2653 H 0.94036 0.62368 0.0067 0.0
H2654 H 0.92767 0.63128 0.99605 0.0
H2655 H 0.94472 0.67102 0.99532 0.0
H2656 H 0.91988 0.69329 0.93898 0.0
H2657 H 0.9304 0.6852 0.95476 0.0
C2658 C 0.3424 0.31624 0.99294 0.0
C2659 C 0.35374 0.32535 -0.00122 0.0
C2660 C 0.34041 0.30476 0.98929 0.0
C2661 C 0.35651 0.29028 0.97422 0.0
H2662 H 0.32844 0.2604 0.9888 0.0
C2663 C 0.35066 0.24529 0.9523 0.0
C2664 C 0.33898 0.23612 0.94767 0.0
C2665 C 0.35238 0.2554 0.96125 0.0
C2666 C 0.33626 0.26865 0.98445 0.0
H2667 H 0.37177 0.32949 0.00579 0.0
H2668 H 0.36835 0.30948 -0.00098 0.0
H2669 H 0.33139 0.2796 -0.00072 0.0
H2670 H 0.31989 0.23021 0.94997 0.0
H2671 H 0.32295 0.24818 0.96454 0.0
H2672 H 0.36116 0.27963 0.95871 0.0
C2673 C 0.36101 0.31124 -0.00261 0.0
C2674 C 0.33797 0.27963 0.99054 0.0
C2675 C 0.36295 0.32266 0.0013 0.0
C2676 C 0.32904 0.23717 0.9529 0.0
C2677 C 0.33079 0.24744 0.96156 0.0
C2678 C 0.35472 0.27937 0.96791 0.0
C2679 C 0.34977 0.30223 0.99115 0.0
C2680 C 0.34811 0.29053 0.98545 0.0
C2681 C 0.34252 0.25683 0.96549 0.0
C2682 C 0.34457 0.26839 0.97291 0.0
H2683 H 0.33511 0.31804 0.99095 0.0
H2684 H 0.33169 0.29799 0.98438 0.0
H2685 H 0.3643 0.29858 0.96986 0.0
H2686 H 0.35861 0.245 0.94842 0.0
H2687 H 0.36153 0.26226 0.96445 0.0
C2688 C 0.68091 0.04308 -0.00154 0.0
C2689 C 0.67481 0.03043 -0.00089 0.0
C2690 C 0.69261 0.04962 0.99174 0.0
C2691 C 0.71312 0.04652 0.96212 0.0
H2692 H 0.73742 0.07692 0.98162 0.0
C2693 C 0.75484 0.08096 0.92436 0.0
C2694 C 0.76605 0.08701 0.9327 0.0
C2695 C 0.74423 0.0736 0.93343 0.0
C2696 C 0.73078 0.06838 0.97613 0.0
H2697 H 0.67639 0.01478 0.99351 0.0
H2698 H 0.6968 0.02622 0.98182 0.0
H2699 H 0.71802 0.06489 0.99619 0.0
H2700 H 0.77492 0.09002 0.95713 0.0
H2701 H 0.75628 0.07707 0.9731 0.0
H2702 H 0.72582 0.05001 0.94204 0.0
C2703 C 0.69247 0.03105 0.98637 0.0
C2704 C 0.71962 0.06156 0.98437 0.0
C2705 C 0.68078 0.02451 0.99313 0.0
C2706 C 0.76642 0.08544 0.95036 0.0
C2707 C 0.75575 0.07811 0.9595 0.0
C2708 C 0.72423 0.05335 0.95386 0.0
C2709 C 0.69848 0.04368 0.98546 0.0
C2710 C 0.71062 0.05061 0.97735 0.0
C2711 C 0.74454 0.0721 0.95111 0.0
C2712 C 0.73313 0.06444 0.96064 0.0
H2713 H 0.67659 0.04794 0.00296 0.0
H2714 H 0.69693 0.05933 0.99104 0.0
H2715 H 0.70635 0.03818 0.95629 0.0
H2716 H 0.75426 0.08184 0.91073 0.0
H2717 H 0.73574 0.06921 0.92662 0.0
C2718 C 0.6412 0.95635 0.02573 0.0
C2719 C 0.64874 0.96879 0.02833 0.0
C2720 C 0.64471 0.94827 0.03139 0.0
C2721 C 0.66552 0.9466 0.06238 0.0
H2722 H 0.65896 0.91792 0.03739 0.0
C2723 C 0.68777 0.91951 0.08083 0.0
C2724 C 0.68015 0.90701 0.08268 0.0
C2725 C 0.68363 0.92643 0.07301 0.0
C2726 C 0.66076 0.92586 0.04454 0.0
H2727 H 0.66609 0.98256 0.03814 0.0
H2728 H 0.67233 0.96861 0.04751 0.0
H2729 H 0.65235 0.93128 0.02581 0.0
H2730 H 0.66233 0.89191 0.07712 0.0
H2731 H 0.65506 0.9041 0.06332 0.0
H2732 H 0.67407 0.94133 0.08095 0.0
C2733 C 0.66355 0.96499 0.04162 0.0
C2734 C 0.65696 0.93349 0.03795 0.0
C2735 C 0.66 0.97301 0.03614 0.0
C2736 C 0.66839 0.90153 0.07597 0.0
C2737 C 0.66426 0.90848 0.06799 0.0
C2738 C 0.66938 0.93906 0.06885 0.0
C2739 C 0.65587 0.9525 0.03965 0.0
C2740 C 0.65943 0.94404 0.04672 0.0
C2741 C 0.67177 0.92104 0.06679 0.0
C2742 C 0.66717 0.92868 0.05994 0.0
H2743 H 0.63245 0.95283 0.01976 0.0
H2744 H 0.63854 0.93872 0.02974 0.0
H2745 H 0.66728 0.95444 0.06975 0.0
H2746 H 0.69682 0.92406 0.08605 0.0
H2747 H 0.68966 0.93608 0.0721 0.0
C2748 C 0.03566 0.68171 0.01404 0.0
C2749 C 0.02374 0.6787 0.01788 0.0
C2750 C 0.04531 0.69324 0.01751 0.0
C2751 C 0.05412 0.72463 0.02601 0.0
H2752 H 0.07787 0.72451 0.05616 0.0
C2753 C 0.08758 0.76633 0.06539 0.0
C2754 C 0.09865 0.76753 0.07041 0.0
C2755 C 0.07916 0.75627 0.05613 0.0
C2756 C 0.07155 0.72482 0.04741 0.0
H2757 H 0.01253 0.68559 0.02744 0.0
H2758 H 0.02943 0.70584 0.0332 0.0
H2759 H 0.06195 0.70568 0.04452 0.0
H2760 H 0.10971 0.75918 0.06853 0.0
H2761 H 0.09558 0.74234 0.05144 0.0
H2762 H 0.06377 0.7438 0.02871 0.0
C2763 C 0.03127 0.69923 0.02762 0.0
C2764 C 0.06236 0.71397 0.04082 0.0
C2765 C 0.02162 0.68764 0.02442 0.0
C2766 C 0.10139 0.75877 0.06488 0.0
C2767 C 0.09311 0.74888 0.0553 0.0
C2768 C 0.06347 0.73556 0.03237 0.0
C2769 C 0.04322 0.70204 0.0246 0.0
C2770 C 0.05347 0.71374 0.03025 0.0
C2771 C 0.0817 0.74724 0.05133 0.0
C2772 C 0.07224 0.73579 0.04336 0.0
H2773 H 0.03757 0.67502 0.00899 0.0
H2774 H 0.05445 0.69522 0.015 0.0
H2775 H 0.04738 0.72467 0.01781 0.0
H2776 H 0.08521 0.77299 0.06897 0.0
H2777 H 0.07048 0.75537 0.0534 0.0
C2778 C 0.3187 0.34884 0.03155 0.0
C2779 C 0.32391 0.35984 0.02272 0.0
C2780 C 0.30696 0.34367 0.03811 0.0
C2781 C 0.27835 0.34352 0.03392 0.0
H2782 H 0.27384 0.33479 0.08172 0.0
C2783 C 0.23777 0.33811 0.07301 0.0
C2784 C 0.23348 0.33006 0.08682 0.0
C2785 C 0.24782 0.3399 0.0636 0.0
C2786 C 0.27482 0.33691 0.06826 0.0
H2787 H 0.32076 0.37387 0.01347 0.0
H2788 H 0.30026 0.36478 0.02481 0.0
H2789 H 0.29328 0.34125 0.0682 0.0
H2790 H 0.23614 0.31715 0.10102 0.0
H2791 H 0.25325 0.31985 0.08415 0.0
H2792 H 0.25991 0.33922 0.03394 0.0
C2793 C 0.30526 0.36017 0.02665 0.0
C2794 C 0.286 0.34066 0.06054 0.0
C2795 C 0.31704 0.36542 0.02029 0.0
C2796 C 0.23909 0.32336 0.0904 0.0
C2797 C 0.24906 0.32505 0.08087 0.0
C2798 C 0.26711 0.33964 0.04159 0.0
C2799 C 0.30015 0.34931 0.03575 0.0
C2800 C 0.28794 0.34422 0.0434 0.0
C2801 C 0.25376 0.33358 0.06766 0.0
C2802 C 0.26527 0.33651 0.05895 0.0
H2803 H 0.32376 0.34432 0.03363 0.0
H2804 H 0.3032 0.33526 0.04502 0.0
H2805 H 0.27958 0.34608 0.02061 0.0
H2806 H 0.23354 0.34327 0.06968 0.0
H2807 H 0.25121 0.34661 0.05361 0.0
C2808 C 0.68602 0.67105 0.36798 0.0
C2809 C 0.68899 0.68163 0.35903 0.0
C2810 C 0.69487 0.66812 0.37159 0.0
C2811 C 0.71406 0.66098 0.37033 0.0
H2812 H 0.74454 0.68616 0.38856 0.0
C2813 C 0.75139 0.65143 0.39187 0.0
C2814 C 0.75631 0.65605 0.408 0.0
C2815 C 0.74429 0.65524 0.38354 0.0
C2816 C 0.73608 0.67903 0.38345 0.0
H2817 H 0.70356 0.69735 0.34661 0.0
H2818 H 0.71905 0.69223 0.35296 0.0
H2819 H 0.72965 0.69114 0.37842 0.0
H2820 H 0.7577 0.66844 0.42786 0.0
H2821 H 0.7455 0.67513 0.4133 0.0
H2822 H 0.7203 0.6488 0.37593 0.0
C2823 C 0.70987 0.68624 0.35726 0.0
C2824 C 0.7276 0.6819 0.37749 0.0
C2825 C 0.70099 0.68914 0.35356 0.0
C2826 C 0.75428 0.66485 0.41532 0.0
C2827 C 0.74725 0.66869 0.40697 0.0
C2828 C 0.72256 0.65812 0.37622 0.0
C2829 C 0.70692 0.67572 0.36641 0.0
C2830 C 0.71639 0.67287 0.37117 0.0
C2831 C 0.742 0.66379 0.39112 0.0
C2832 C 0.73357 0.66707 0.38315 0.0
H2833 H 0.67686 0.66506 0.37238 0.0
H2834 H 0.69232 0.66004 0.37886 0.0
H2835 H 0.70557 0.65384 0.36534 0.0
H2836 H 0.7529 0.64476 0.38575 0.0
H2837 H 0.7405 0.65141 0.37123 0.0
C2838 C 0.3164 0.01834 0.37003 0.0
C2839 C 0.304 0.01211 0.36613 0.0
C2840 C 0.32199 0.03009 0.3764 0.0
C2841 C 0.31844 0.05678 0.37926 0.0
H2842 H 0.34084 0.06564 0.41688 0.0
C2843 C 0.33502 0.10044 0.41848 0.0
C2844 C 0.34706 0.10649 0.42413 0.0
C2845 C 0.33018 0.08933 0.4102 0.0
C2846 C 0.33475 0.06338 0.40621 0.0
H2847 H 0.28777 0.01339 0.36591 0.0
H2848 H 0.2975 0.0338 0.37713 0.0
H2849 H 0.33165 0.04545 0.40493 0.0
H2850 H 0.36351 0.10564 0.42522 0.0
H2851 H 0.35518 0.08647 0.41041 0.0
H2852 H 0.32149 0.07471 0.38062 0.0
C2853 C 0.30293 0.02966 0.37507 0.0
C2854 C 0.32947 0.05179 0.39937 0.0
C2855 C 0.29734 0.01791 0.36875 0.0
C2856 C 0.35425 0.10132 0.42087 0.0
C2857 C 0.34942 0.09023 0.41258 0.0
C2858 C 0.32374 0.06839 0.38609 0.0
C2859 C 0.31532 0.03589 0.37897 0.0
C2860 C 0.3212 0.04833 0.38588 0.0
C2861 C 0.33727 0.08401 0.40739 0.0
C2862 C 0.33191 0.07181 0.3997 0.0
H2863 H 0.32182 0.01417 0.36812 0.0
H2864 H 0.33158 0.03469 0.37912 0.0
H2865 H 0.31224 0.05445 0.3687 0.0
H2866 H 0.32927 0.10422 0.42064 0.0
H2867 H 0.32076 0.08474 0.40647 0.0
C2868 C 0.98735 0.28475 0.35013 0.0
C2869 C 0.99333 0.29693 0.35494 0.0
C2870 C 0.97564 0.27681 0.35587 0.0
C2871 C 0.9487 0.2755 0.37623 0.0
H2872 H 0.94118 0.24324 0.38811 0.0
C2873 C 0.90833 0.24249 0.41863 0.0
C2874 C 0.90193 0.2303 0.41374 0.0
C2875 C 0.91859 0.25082 0.40959 0.0
C2876 C 0.94309 0.25216 0.38462 0.0
H2877 H 0.99167 0.31035 0.36946 0.0
H2878 H 0.97135 0.29638 0.38003 0.0
H2879 H 0.96099 0.25741 0.37652 0.0
H2880 H 0.90095 0.21751 0.39484 0.0
H2881 H 0.91906 0.23204 0.37934 0.0
H2882 H 0.93085 0.27024 0.38508 0.0
C2883 C 0.9756 0.29302 0.37146 0.0
C2884 C 0.95445 0.26031 0.37794 0.0
C2885 C 0.98729 0.30102 0.3655 0.0
C2886 C 0.90578 0.22676 0.39917 0.0
C2887 C 0.91613 0.23508 0.39026 0.0
C2888 C 0.93737 0.26737 0.38313 0.0
C2889 C 0.96966 0.28078 0.3668 0.0
C2890 C 0.95743 0.27209 0.37365 0.0
C2891 C 0.92276 0.24713 0.39558 0.0
C2892 C 0.93447 0.25563 0.38741 0.0
H2893 H 0.99169 0.28134 0.34181 0.0
H2894 H 0.97127 0.26753 0.35167 0.0
H2895 H 0.9506 0.28443 0.37284 0.0
H2896 H 0.90577 0.24553 0.42992 0.0
H2897 H 0.9236 0.26004 0.41408 0.0
C2898 C 0.00888 0.35967 0.3243 0.0
C2899 C 0.01886 0.36226 0.33457 0.0
C2900 C 0.00661 0.36877 0.31961 0.0
C2901 C 0.0138 0.39987 0.32884 0.0
H2902 H 0.00814 0.40038 0.28047 0.0
C2903 C 0.01811 0.44145 0.29371 0.0
C2904 C 0.01053 0.43944 0.27969 0.0
C2905 C 0.01785 0.43179 0.30222 0.0
C2906 C 0.00947 0.40029 0.29406 0.0
H2907 H 0.03391 0.37631 0.34869 0.0
H2908 H 0.02996 0.39226 0.34038 0.0
H2909 H 0.00985 0.38395 0.29228 0.0
H2910 H 0.99633 0.42552 0.26414 0.0
H2911 H 0.99549 0.4088 0.27939 0.0
H2912 H 0.0135 0.41632 0.33054 0.0
C2913 C 0.02388 0.38317 0.33604 0.0
C2914 C 0.01048 0.39085 0.30083 0.0
C2915 C 0.02617 0.37404 0.34073 0.0
C2916 C 0.00224 0.42749 0.27497 0.0
C2917 C 0.00189 0.41786 0.28356 0.0
C2918 C 0.01271 0.40931 0.32206 0.0
C2919 C 0.01425 0.38067 0.32507 0.0
C2920 C 0.01269 0.39054 0.31827 0.0
C2921 C 0.00993 0.41988 0.29696 0.0
C2922 C 0.01058 0.40965 0.30456 0.0
H2923 H 0.00301 0.35066 0.31946 0.0
H2924 H -0.001 0.36653 0.31138 0.0
H2925 H 0.01544 0.39982 0.34235 0.0
H2926 H 0.02447 0.45051 0.29791 0.0
H2927 H 0.0242 0.4337 0.31245 0.0
C2928 C 0.61388 0.64682 0.3376 0.0
C2929 C 0.62558 0.65479 0.3315 0.0
C2930 C 0.60724 0.63513 0.33115 0.0
C2931 C 0.61053 0.61268 0.3047 0.0
H2932 H 0.57561 0.59706 0.3033 0.0
C2933 C 0.58209 0.56402 0.28044 0.0
C2934 C 0.5715 0.56081 0.2712 0.0
C2935 C 0.58815 0.57494 0.28923 0.0
C2936 C 0.58536 0.6013 0.30334 0.0
H2937 H 0.63946 0.65691 0.31368 0.0
H2938 H 0.62766 0.63681 0.30162 0.0
H2939 H 0.58727 0.61728 0.31447 0.0
H2940 H 0.55873 0.56656 0.26487 0.0
H2941 H 0.56974 0.58587 0.27894 0.0
H2942 H 0.60871 0.5971 0.29235 0.0
C2943 C 0.62372 0.63931 0.31191 0.0
C2944 C 0.59209 0.6129 0.31011 0.0
C2945 C 0.63048 0.6509 0.31871 0.0
C2946 C 0.567 0.56875 0.27144 0.0
C2947 C 0.57324 0.57982 0.27986 0.0
C2948 C 0.60383 0.60121 0.29753 0.0
C2949 C 0.61201 0.6312 0.31809 0.0
C2950 C 0.60479 0.61878 0.31092 0.0
C2951 C 0.58401 0.58317 0.2887 0.0
C2952 C 0.59112 0.59532 0.29676 0.0
H2953 H 0.60993 0.64955 0.34762 0.0
H2954 H 0.59842 0.62915 0.33661 0.0
H2955 H 0.62025 0.61671 0.30535 0.0
H2956 H 0.58602 0.55832 0.28049 0.0
H2957 H 0.5962 0.57696 0.29625 0.0
C2958 C 0.34076 0.97433 0.33332 0.0
C2959 C 0.33799 0.98358 0.33353 0.0
C2960 C 0.35232 0.97678 0.32864 0.0
C2961 C 0.38403 0.00046 0.32567 0.0
H2962 H 0.38592 0.98196 0.28802 0.0
C2963 C 0.42851 0.01533 0.28885 0.0
C2964 C 0.43031 0.00657 0.28084 0.0
C2965 C 0.41765 0.01208 0.29728 0.0
C2966 C 0.38563 0.98706 0.2988 0.0
H2967 H 0.34523 0.00267 0.32958 0.0
H2968 H 0.36553 0.00697 0.32178 0.0
H2969 H 0.36627 0.97704 0.29936 0.0
H2970 H 0.42209 0.98736 0.27623 0.0
H2971 H 0.40363 0.98169 0.2918 0.0
H2972 H 0.40336 0.01037 0.32542 0.0
C2973 C 0.35872 0.99784 0.3251 0.0
C2974 C 0.37433 0.98426 0.30522 0.0
C2975 C 0.3471 0.99536 0.32946 0.0
C2976 C 0.42118 0.99441 0.28232 0.0
C2977 C 0.41042 0.99114 0.29102 0.0
C2978 C 0.39537 0.00314 0.31947 0.0
C2979 C 0.36138 0.98854 0.32443 0.0
C2980 C 0.37341 0.99104 0.31853 0.0
C2981 C 0.40835 -5e-05 0.29821 0.0
C2982 C 0.39633 0.99658 0.30577 0.0
H2983 H 0.33392 0.96516 0.33638 0.0
H2984 H 0.35418 0.96947 0.32826 0.0
H2985 H 0.38354 0.00575 0.33606 0.0
H2986 H 0.4354 0.02476 0.28835 0.0
H2987 H 0.41643 0.01917 0.30251 0.0
C2988 C 0.62758 0.9761 0.33246 0.0
C2989 C 0.62428 0.96396 0.33423 0.0
C2990 C 0.61913 0.97918 0.32703 0.0
C2991 C 0.58593 0.96629 0.32166 0.0
H2992 H 0.59584 0.99278 0.29008 0.0
C2993 C 0.55306 0.97135 0.27767 0.0
C2994 C 0.55439 0.98283 0.27583 0.0
C2995 C 0.56139 0.96981 0.28703 0.0
C2996 C 0.59298 0.98547 0.29909 0.0
H2997 H 0.60955 0.94554 0.33144 0.0
H2998 H 0.59499 0.95087 0.32152 0.0
H2999 H 0.61095 0.98865 0.30177 0.0
H3000 H 0.56544 0.00162 0.28307 0.0
H3001 H 0.58023 -0.00108 0.29895 0.0
H3002 H 0.56788 0.96283 0.31834 0.0
C3003 C 0.60398 0.95806 0.32479 0.0
C3004 C 0.60163 0.9831 0.30583 0.0
C3005 C 0.61238 0.95499 0.33035 0.0
C3006 C 0.5642 0.99269 0.28393 0.0
C3007 C 0.57266 0.99115 0.29309 0.0
C3008 C 0.57728 0.96858 0.31477 0.0
C3009 C 0.60721 0.97019 0.32312 0.0
C3010 C 0.59819 0.97335 0.31698 0.0
C3011 C 0.57138 0.97971 0.29459 0.0
C3012 C 0.58069 0.97807 0.30323 0.0
H3013 H 0.63667 0.98324 0.33543 0.0
H3014 H 0.62191 0.98862 0.32609 0.0
H3015 H 0.58297 0.9589 0.33054 0.0
H3016 H 0.54583 0.96357 0.27134 0.0
H3017 H 0.56027 0.96091 0.28778 0.0
C3018 C 0.00821 0.65381 0.32939 0.0
C3019 C 0.01975 0.66317 0.33411 0.0
C3020 C 0.0064 0.6425 0.32499 0.0
C3021 C 0.02132 0.62859 0.30498 0.0
H3022 H 0.99695 0.59874 0.32577 0.0
C3023 C 0.01405 0.58337 0.2805 0.0
C3024 C 0.0021 0.57361 0.27975 0.0
C3025 C 0.0168 0.59382 0.28948 0.0
C3026 C 0.00369 0.60696 0.31963 0.0
H3027 H 0.03839 0.66802 0.33807 0.0
H3028 H 0.03527 0.64831 0.32976 0.0
H3029 H 0.00026 0.61793 0.33677 0.0
H3030 H 0.98381 0.56709 0.2889 0.0
H3031 H 0.9884 0.58552 0.30341 0.0
H3032 H 0.02433 0.61787 0.28718 0.0
C3033 C 0.02764 0.64973 0.32976 0.0
C3034 C 0.00562 0.61793 0.32605 0.0
C3035 C 0.0294 0.66096 0.33453 0.0
C3036 C 0.99307 0.57448 0.28878 0.0
C3037 C 0.99577 0.58504 0.29743 0.0
C3038 C 0.01921 0.61765 0.29831 0.0
C3039 C 0.01614 0.64043 0.32487 0.0
C3040 C 0.01443 0.62882 0.31873 0.0
C3041 C 0.00764 0.59497 0.29764 0.0
C3042 C 0.01032 0.60664 0.30547 0.0
H3043 H 0.00061 0.65526 0.329 0.0
H3044 H -0.00253 0.63547 0.32115 0.0
H3045 H 0.02807 0.6369 0.29901 0.0
H3046 H 0.02129 0.58318 0.27363 0.0
H3047 H 0.02611 0.6011 0.28969 0.0
C3048 C 0.34949 0.36161 0.326 0.0
C3049 C 0.34321 0.36678 0.3335 0.0
C3050 C 0.36102 0.36889 0.319 0.0
C3051 C 0.38788 0.38651 0.31348 0.0
H3052 H 0.39387 0.41436 0.28696 0.0
C3053 C 0.43526 0.42046 0.28647 0.0
C3054 C 0.43559 0.42425 0.26959 0.0
C3055 C 0.42423 0.41394 0.29515 0.0
C3056 C 0.39234 0.40659 0.29427 0.0
H3057 H 0.34423 0.3837 0.33966 0.0
H3058 H 0.36432 0.39634 0.32762 0.0
H3059 H 0.37411 0.40174 0.30004 0.0
H3060 H 0.42455 0.424 0.24857 0.0
H3061 H 0.40542 0.41272 0.26367 0.0
H3062 H 0.40603 0.3912 0.30728 0.0
C3063 C 0.36027 0.38666 0.32693 0.0
C3064 C 0.38105 0.39943 0.30193 0.0
C3065 C 0.34876 0.3794 0.33391 0.0
C3066 C 0.42467 0.42147 0.26168 0.0
C3067 C 0.41368 0.41497 0.27033 0.0
C3068 C 0.39919 0.3937 0.30582 0.0
C3069 C 0.36652 0.3815 0.31933 0.0
C3070 C 0.37865 0.38926 0.31154 0.0
C3071 C 0.41331 0.41106 0.28713 0.0
C3072 C 0.40152 0.40377 0.29602 0.0
H3073 H 0.34549 0.35193 0.32545 0.0
H3074 H 0.36552 0.36462 0.31306 0.0
H3075 H 0.38638 0.37883 0.32096 0.0
H3076 H 0.44352 0.42256 0.29298 0.0
H3077 H 0.42427 0.41118 0.30816 0.0
C3078 C 0.31096 0.29085 0.35261 0.0
C3079 C 0.31888 0.30315 0.35583 0.0
C3080 C 0.31452 0.28242 0.35599 0.0
C3081 C 0.34139 0.27951 0.36364 0.0
H3082 H 0.31964 0.25202 0.39136 0.0
C3083 C 0.35808 0.25472 0.40594 0.0
C3084 C 0.35069 0.24227 0.40864 0.0
C3085 C 0.35397 0.26101 0.39633 0.0
C3086 C 0.32575 0.2595 0.38333 0.0
H3087 H 0.33686 0.31629 0.36455 0.0
H3088 H 0.34304 0.30166 0.37033 0.0
H3089 H 0.31279 0.26512 0.38 0.0
H3090 H 0.33333 0.22659 0.40272 0.0
H3091 H 0.32613 0.23761 0.38586 0.0
H3092 H 0.35444 0.27406 0.36723 0.0
C3093 C 0.33411 0.2985 0.36516 0.0
C3094 C 0.32181 0.26702 0.37683 0.0
C3095 C 0.33053 0.30688 0.36196 0.0
C3096 C 0.3392 0.2362 0.40104 0.0
C3097 C 0.33507 0.24252 0.3914 0.0
C3098 C 0.34531 0.27197 0.37006 0.0
C3099 C 0.3261 0.28616 0.36244 0.0
C3100 C 0.3297 0.27728 0.3673 0.0
C3101 C 0.34234 0.25504 0.38915 0.0
C3102 C 0.33765 0.26205 0.38037 0.0
H3103 H 0.30193 0.2877 0.34789 0.0
H3104 H 0.30818 0.27297 0.35367 0.0
H3105 H 0.3476 0.28724 0.35608 0.0
H3106 H 0.36688 0.25974 0.41187 0.0
H3107 H 0.35973 0.27068 0.39516 0.0
C3108 C 0.68369 0.01601 0.3584 0.0
C3109 C 0.68819 0.00829 0.35516 0.0
C3110 C 0.69159 0.02826 0.36142 0.0
C3111 C 0.72434 0.05236 0.35948 0.0
H3112 H 0.71425 0.06741 0.39346 0.0
C3113 C 0.75637 0.09422 0.39977 0.0
C3114 C 0.75332 0.10323 0.40169 0.0
C3115 C 0.74873 0.08357 0.39105 0.0
C3116 C 0.71712 0.06337 0.38378 0.0
H3117 H 0.70446 0.00729 0.35237 0.0
H3118 H 0.71825 0.02848 0.35849 0.0
H3119 H 0.70023 0.04689 0.38449 0.0
H3120 H 0.74009 0.10827 0.39486 0.0
H3121 H 0.72651 0.0894 0.38033 0.0
H3122 H 0.74154 0.06876 0.35974 0.0
C3123 C 0.70865 0.02526 0.35813 0.0
C3124 C 0.70907 0.0516 0.37854 0.0
C3125 C 0.70074 0.01306 0.35474 0.0
C3126 C 0.74263 0.10146 0.39403 0.0
C3127 C 0.73488 0.09069 0.3856 0.0
C3128 C 0.73247 0.06407 0.365 0.0
C3129 C 0.70419 0.03303 0.36168 0.0
C3130 C 0.71258 0.04587 0.36642 0.0
C3131 C 0.73777 0.08158 0.3843 0.0
C3132 C 0.72895 0.06963 0.37728 0.0
H3133 H 0.67404 0.01259 0.3586 0.0
H3134 H 0.68778 0.03395 0.36365 0.0
H3135 H 0.72733 0.04839 0.34987 0.0
H3136 H 0.76437 0.09508 0.4057 0.0
H3137 H 0.75109 0.07661 0.39037 0.0
C3138 C 0.98475 0.70294 0.37083 0.0
C3139 C 0.98877 0.69643 0.36126 0.0
C3140 C 0.97281 0.69743 0.37664 0.0
C3141 C 0.94534 0.66711 0.38319 0.0
H3142 H 0.93033 0.68636 0.39024 0.0
C3143 C 0.90093 0.64881 0.42104 0.0
C3144 C 0.8931 0.65311 0.41745 0.0
C3145 C 0.91213 0.65372 0.41289 0.0
C3146 C 0.93423 0.68074 0.38808 0.0
H3147 H 0.98341 0.67912 0.34985 0.0
H3148 H 0.96242 0.66964 0.35912 0.0
H3149 H 0.95035 0.69552 0.37782 0.0
H3150 H 0.89055 0.6656 0.40226 0.0
H3151 H 0.90984 0.67377 0.38717 0.0
H3152 H 0.92895 0.65216 0.39249 0.0
C3153 C 0.96854 0.67887 0.36281 0.0
C3154 C 0.94591 0.68609 0.38124 0.0
C3155 C 0.98058 0.68432 0.35737 0.0
C3156 C 0.8965 0.66219 0.40524 0.0
C3157 C 0.90761 0.66693 0.39675 0.0
C3158 C 0.93356 0.66169 0.38964 0.0
C3159 C 0.96449 0.68531 0.37265 0.0
C3160 C 0.95173 0.67942 0.37898 0.0
C3161 C 0.91568 0.66289 0.40064 0.0
C3162 C 0.9279 0.66847 0.3925 0.0
H3163 H 0.99092 0.71227 0.37415 0.0
H3164 H 0.97021 0.70265 0.38451 0.0
H3165 H 0.94948 0.66163 0.38187 0.0
H3166 H 0.89854 0.64191 0.43062 0.0
H3167 H 0.91813 0.65053 0.41661 0.0
C3168 C 0.35948 0.01712 0.7144 0.0
C3169 C 0.35821 0.01979 0.69747 0.0
C3170 C 0.3692 0.01574 0.71907 0.0
C3171 C 0.38911 0.0058 0.70464 0.0
H3172 H 0.41069 0.02571 0.74054 0.0
C3173 C 0.42703 0.99807 0.72945 0.0
C3174 C 0.42915 -0.00061 0.74707 0.0
C3175 C 0.41977 0.00198 0.72182 0.0
C3176 C 0.40468 0.01995 0.73065 0.0
H3177 H 0.36597 0.02293 0.67209 0.0
H3178 H 0.38278 0.02003 0.68022 0.0
H3179 H 0.39491 0.0294 0.73048 0.0
H3180 H 0.42531 0.00572 0.77053 0.0
H3181 H 0.41241 0.01211 0.75751 0.0
H3182 H 0.39826 0.99583 0.70542 0.0
C3183 C 0.37634 0.01923 0.68985 0.0
C3184 C 0.39571 0.02216 0.72481 0.0
C3185 C 0.36676 0.02091 0.68524 0.0
C3186 C 0.42403 0.00481 0.75686 0.0
C3187 C 0.41664 0.00852 0.74932 0.0
C3188 C 0.39791 0.00341 0.71072 0.0
C3189 C 0.37767 0.01672 0.70683 0.0
C3190 C 0.38777 0.01501 0.71192 0.0
C3191 C 0.4143 0.00709 0.73171 0.0
C3192 C 0.40571 0.01034 0.72402 0.0
H3193 H 0.35305 0.01625 0.7241 0.0
H3194 H 0.37002 0.01374 0.73222 0.0
H3195 H 0.38301 0.00013 0.69473 0.0
H3196 H 0.43091 0.99394 0.72162 0.0
H3197 H 0.41839 0.0009 0.70819 0.0
C3198 C 0.96105 0.3495 0.68605 0.0
C3199 C 0.96882 0.34479 0.68578 0.0
C3200 C 0.96486 0.36086 0.69295 0.0
C3201 C 0.99197 0.38953 0.70516 0.0
H3202 H 0.96969 0.39235 0.7357 0.0
C3203 C 0.00644 0.42972 0.75112 0.0
C3204 C -0.00188 0.43351 0.7545 0.0
C3205 C 0.00318 0.41964 0.74089 0.0
C3206 C 0.97596 0.39181 0.72698 0.0
H3207 H 0.98681 0.34849 0.69228 0.0
H3208 H 0.99342 0.3683 0.70444 0.0
H3209 H 0.9634 0.37333 0.72142 0.0
H3210 H 0.98015 0.43019 0.74902 0.0
H3211 H 0.97451 0.41272 0.73095 0.0
H3212 H 0.00457 0.40802 0.71087 0.0
C3213 C 0.9844 0.36321 0.69917 0.0
C3214 C 0.97235 0.38088 0.71881 0.0
C3215 C 0.98059 0.35182 0.6923 0.0
C3216 C 0.98668 0.42736 0.74683 0.0
C3217 C 0.98344 0.41733 0.73654 0.0
C3218 C 0.99557 0.40051 0.7133 0.0
C3219 C 0.97654 0.3678 0.69972 0.0
C3220 C 0.98033 0.37959 0.70788 0.0
C3221 C 0.99155 0.41317 0.73377 0.0
C3222 C 0.98763 0.40175 0.72438 0.0
H3223 H 0.95195 0.34436 0.68106 0.0
H3224 H 0.95865 0.36421 0.69299 0.0
H3225 H -0.00173 0.38885 0.69664 0.0
H3226 H 0.01528 0.43422 0.757 0.0
H3227 H 0.0096 0.41662 0.73917 0.0
C3228 C 0.65409 0.63717 0.69766 0.0
C3229 C 0.65982 0.63267 0.68722 0.0
C3230 C 0.64236 0.6295 0.70381 0.0
C3231 C 0.62066 0.59699 0.71108 0.0
H3232 H 0.59766 0.60768 0.71837 0.0
C3233 C 0.572 0.56421 0.73265 0.0
C3234 C 0.56834 0.56782 0.74735 0.0
C3235 C 0.58231 0.57244 0.72361 0.0
C3236 C 0.60401 0.6046 0.71638 0.0
H3237 H 0.65756 0.61674 0.67438 0.0
H3238 H 0.63709 0.60352 0.68453 0.0
H3239 H 0.61744 0.62149 0.70582 0.0
H3240 H 0.57244 0.5831 0.76355 0.0
H3241 H 0.59025 0.59748 0.7475 0.0
H3242 H 0.6072 0.58011 0.7215 0.0
C3243 C 0.64173 0.61285 0.68854 0.0
C3244 C 0.61537 0.61251 0.7093 0.0
C3245 C 0.65347 0.62045 0.68263 0.0
C3246 C 0.57487 0.58002 0.75219 0.0
C3247 C 0.58511 0.58827 0.74303 0.0
C3248 C 0.60929 0.58907 0.71793 0.0
C3249 C 0.63608 0.6172 0.69945 0.0
C3250 C 0.62386 0.60882 0.70663 0.0
C3251 C 0.58912 0.58448 0.72894 0.0
C3252 C 0.60087 0.5928 0.72073 0.0
H3253 H 0.65876 0.64656 0.70142 0.0
H3254 H 0.63837 0.63316 0.71233 0.0
H3255 H 0.62702 0.59388 0.70964 0.0
H3256 H 0.56705 0.55496 0.72835 0.0
H3257 H 0.58511 0.56933 0.71263 0.0
C3258 C 0.69496 0.70965 0.66513 0.0
C3259 C 0.68599 0.69741 0.66575 0.0
C3260 C 0.69192 0.71835 0.66115 0.0
C3261 C 0.66769 0.7252 0.66078 0.0
H3262 H 0.68306 0.74373 0.62006 0.0
C3263 C 0.64911 0.75154 0.62511 0.0
C3264 C 0.657 0.76156 0.6151 0.0
C3265 C 0.65327 0.74478 0.63349 0.0
C3266 C 0.67886 0.73891 0.6317 0.0
H3267 H 0.66678 0.68471 0.66348 0.0
H3268 H 0.66143 0.70001 0.657 0.0
H3269 H 0.68927 0.73015 0.63124 0.0
H3270 H 0.67572 0.77259 0.60695 0.0
H3271 H 0.68306 0.76145 0.62251 0.0
H3272 H 0.65743 0.73408 0.66157 0.0
C3273 C 0.67081 0.70281 0.65941 0.0
C3274 C 0.68239 0.73105 0.63802 0.0
C3275 C 0.67387 0.69408 0.66302 0.0
C3276 C 0.66932 0.76504 0.6146 0.0
C3277 C 0.67352 0.75845 0.6233 0.0
C3278 C 0.66432 0.73328 0.65469 0.0
C3279 C 0.67983 0.71498 0.65812 0.0
C3280 C 0.67672 0.72401 0.65245 0.0
C3281 C 0.6655 0.74799 0.63242 0.0
C3282 C 0.66972 0.74011 0.63988 0.0
H3283 H 0.70438 0.71246 0.66713 0.0
H3284 H 0.69902 0.7277 0.66024 0.0
H3285 H 0.66323 0.71989 0.67201 0.0
H3286 H 0.63962 0.74871 0.62622 0.0
H3287 H 0.64674 0.73677 0.64026 0.0
C3288 C 0.28176 0.98068 0.66288 0.0
C3289 C 0.29438 0.98689 0.66511 0.0
C3290 C 0.27567 0.96881 0.65699 0.0
C3291 C 0.28035 0.94709 0.63271 0.0
H3292 H 0.24924 0.9237 0.65189 0.0
C3293 C 0.25513 0.8978 0.6101 0.0
C3294 C 0.24265 0.89254 0.60716 0.0
C3295 C 0.26152 0.90877 0.61869 0.0
C3296 C 0.25787 0.93015 0.64631 0.0
H3297 H 0.31044 0.98542 0.663 0.0
H3298 H 0.29976 0.96467 0.65273 0.0
H3299 H 0.26036 0.94394 0.66391 0.0
H3300 H 0.22704 0.89451 0.61158 0.0
H3301 H 0.23825 0.91379 0.62624 0.0
H3302 H 0.2778 0.93341 0.61493 0.0
C3303 C 0.29462 0.96904 0.65543 0.0
C3304 C 0.26425 0.94174 0.6532 0.0
C3305 C 0.30073 0.98092 0.66138 0.0
C3306 C 0.23666 0.89836 0.61347 0.0
C3307 C 0.24308 0.90936 0.62204 0.0
C3308 C 0.27397 0.93551 0.6258 0.0
C3309 C 0.28202 0.96287 0.65315 0.0
C3310 C 0.27551 0.95037 0.64639 0.0
C3311 C 0.25562 0.91479 0.62451 0.0
C3312 C 0.26261 0.92692 0.63243 0.0
H3313 H 0.27656 0.98498 0.66561 0.0
H3314 H 0.26598 0.96437 0.65515 0.0
H3315 H 0.28892 0.95357 0.62701 0.0
H3316 H 0.26007 0.89366 0.60525 0.0
H3317 H 0.27114 0.9126 0.62059 0.0
C3318 C 0.01754 0.33294 0.65715 0.0
C3319 C 0.00998 0.32211 0.66579 0.0
C3320 C 0.02952 0.33637 0.65343 0.0
C3321 C 0.05412 0.33005 0.66301 0.0
H3322 H 0.06408 0.34136 0.61676 0.0
C3323 C 0.09304 0.32868 0.62755 0.0
C3324 C 0.09978 0.33766 0.61541 0.0
C3325 C 0.08347 0.32857 0.63631 0.0
C3326 C 0.06158 0.33845 0.62983 0.0
H3327 H 0.00919 0.30663 0.67791 0.0
H3328 H 0.03006 0.31252 0.67111 0.0
H3329 H 0.04469 0.33774 0.62716 0.0
H3330 H 0.10221 0.35399 0.60377 0.0
H3331 H 0.08576 0.35398 0.61937 0.0
H3332 H 0.07097 0.33047 0.66541 0.0
C3333 C 0.02678 0.31844 0.66741 0.0
C3334 C 0.05043 0.33636 0.63581 0.0
C3335 C 0.01479 0.31502 0.67122 0.0
C3336 C 0.09726 0.34697 0.61308 0.0
C3337 C 0.08771 0.34688 0.62187 0.0
C3338 C 0.06533 0.33214 0.657 0.0
C3339 C 0.03421 0.32904 0.65816 0.0
C3340 C 0.04649 0.33201 0.6524 0.0
C3341 C 0.08045 0.33746 0.63315 0.0
C3342 C 0.06912 0.33625 0.64027 0.0
H3343 H 0.01415 0.33867 0.65296 0.0
H3344 H 0.03506 0.34471 0.64659 0.0
H3345 H 0.05142 0.32684 0.67593 0.0
H3346 H 0.09487 0.32148 0.62983 0.0
H3347 H 0.07805 0.32116 0.64487 0.0
C3348 C 0.28238 0.29626 0.66283 0.0
C3349 C 0.29448 0.30373 0.66772 0.0
C3350 C 0.27542 0.30121 0.65768 0.0
C3351 C 0.27825 0.32971 0.64204 0.0
H3352 H 0.24381 0.31294 0.65148 0.0
C3353 C 0.2478 0.3488 0.62274 0.0
C3354 C 0.23766 0.3408 0.61303 0.0
C3355 C 0.25451 0.34471 0.63148 0.0
C3356 C 0.25342 0.31772 0.64878 0.0
H3357 H 0.3087 0.32227 0.67137 0.0
H3358 H 0.29648 0.33091 0.66289 0.0
H3359 H 0.25612 0.30511 0.66286 0.0
H3360 H 0.22656 0.3221 0.6053 0.0
H3361 H 0.23799 0.31498 0.621 0.0
H3362 H 0.27549 0.34236 0.62806 0.0
C3363 C 0.29243 0.32122 0.66258 0.0
C3364 C 0.26048 0.3132 0.65519 0.0
C3365 C 0.29943 0.31627 0.66753 0.0
C3366 C 0.23413 0.32852 0.61289 0.0
C3367 C 0.24072 0.32442 0.62182 0.0
C3368 C 0.27122 0.33431 0.63583 0.0
C3369 C 0.28034 0.31377 0.6575 0.0
C3370 C 0.27296 0.31902 0.65166 0.0
C3371 C 0.25111 0.3325 0.63092 0.0
C3372 C 0.25871 0.32825 0.63891 0.0
H3373 H 0.27831 0.28656 0.66273 0.0
H3374 H 0.26624 0.29517 0.65353 0.0
H3375 H 0.28778 0.33436 0.63882 0.0
H3376 H 0.25068 0.35827 0.62342 0.0
H3377 H 0.26242 0.3511 0.63857 0.0
C3378 C 0.67028 0.98239 0.66136 0.0
C3379 C 0.68154 0.9912 0.66787 0.0
C3380 C 0.66801 0.97079 0.65779 0.0
C3381 C 0.68403 0.95577 0.6444 0.0
H3382 H 0.65487 0.92603 0.65652 0.0
C3383 C 0.67844 0.91073 0.62356 0.0
C3384 C 0.667 0.90176 0.61772 0.0
C3385 C 0.67983 0.92078 0.63232 0.0
C3386 C 0.66301 0.93425 0.65287 0.0
H3387 H 0.69908 0.99461 0.67632 0.0
H3388 H 0.69517 0.97442 0.66979 0.0
H3389 H 0.65779 0.94526 0.66686 0.0
H3390 H 0.64792 0.89614 0.61772 0.0
H3391 H 0.65048 0.91403 0.632 0.0
H3392 H 0.68909 0.94507 0.62975 0.0
C3393 C 0.68811 0.97651 0.6675 0.0
C3394 C 0.66469 0.94524 0.65887 0.0
C3395 C 0.69033 0.98805 0.67127 0.0
C3396 C 0.65692 0.90294 0.6216 0.0
C3397 C 0.65837 0.91316 0.63008 0.0
C3398 C 0.68228 0.94485 0.63819 0.0
C3399 C 0.67702 0.96784 0.66046 0.0
C3400 C 0.67523 0.95609 0.6547 0.0
C3401 C 0.6699 0.92237 0.63517 0.0
C3402 C 0.67177 0.93392 0.64236 0.0
H3403 H 0.66332 0.98454 0.65866 0.0
H3404 H 0.65941 0.96428 0.65228 0.0
H3405 H 0.69214 0.96402 0.64072 0.0
H3406 H 0.6865 0.91035 0.62074 0.0
H3407 H 0.68881 0.92748 0.63645 0.0
C3408 C 0.01456 0.71525 0.6607 0.0
C3409 C 0.00836 0.70261 0.66137 0.0
C3410 C 0.02657 0.72175 0.6552 0.0
C3411 C 0.05386 0.7193 0.64847 0.0
H3412 H 0.06374 0.74706 0.61939 0.0
C3413 C 0.09883 0.74253 0.61054 0.0
C3414 C 0.10502 0.75515 0.60911 0.0
C3415 C 0.08751 0.73633 0.61846 0.0
C3416 C 0.06118 0.73943 0.6277 0.0
H3417 H 0.00999 0.68688 0.65671 0.0
H3418 H 0.0309 0.69823 0.6468 0.0
H3419 H 0.04298 0.7357 0.62965 0.0
H3420 H 0.10438 0.77117 0.61569 0.0
H3421 H 0.08457 0.76034 0.62944 0.0
H3422 H 0.07207 0.72297 0.64623 0.0
C3423 C 0.02651 0.70313 0.65082 0.0
C3424 C 0.04926 0.73291 0.63359 0.0
C3425 C 0.01449 0.69661 0.65639 0.0
C3426 C 0.09978 0.76144 0.61633 0.0
C3427 C 0.08843 0.75524 0.6242 0.0
C3428 C 0.06578 0.72581 0.64252 0.0
C3429 C 0.0327 0.71578 0.65014 0.0
C3430 C 0.04543 0.72275 0.64402 0.0
C3431 C 0.08207 0.7426 0.62508 0.0
C3432 C 0.06957 0.73594 0.63204 0.0
H3433 H 0.01016 0.72018 0.66455 0.0
H3434 H 0.0311 0.73148 0.65511 0.0
H3435 H 0.05127 0.71164 0.6567 0.0
H3436 H 0.10249 0.73736 0.60489 0.0
H3437 H 0.08279 0.72659 0.61876 0.0
C3438 C 0.98723 0.64079 0.70136 0.0
C3439 C 0.97826 0.63893 0.68952 0.0
C3440 C 0.98931 0.63148 0.70554 0.0
C3441 C 0.9743 0.59837 0.70582 0.0
H3442 H 0.00655 0.6049 0.71656 0.0
C3443 C 0.98305 0.56125 0.73056 0.0
C3444 C 0.99015 0.56442 0.74539 0.0
C3445 C 0.98242 0.57004 0.72095 0.0
C3446 C -0.00251 0.60294 0.7136 0.0
H3447 H 0.96465 0.6259 0.67246 0.0
H3448 H 0.96839 0.60964 0.67963 0.0
H3449 H 0.00384 0.62086 0.70476 0.0
H3450 H 0.0023 0.57944 0.76147 0.0
H3451 H 0.00137 0.59468 0.74459 0.0
H3452 H 0.96795 0.5805 0.71496 0.0
C3453 C 0.97369 0.61827 0.68586 0.0
C3454 C 0.99593 0.61209 0.70689 0.0
C3455 C 0.97159 0.6276 0.68169 0.0
C3456 C 0.99694 0.57665 0.74996 0.0
C3457 C 0.99638 0.58542 0.7403 0.0
C3458 C 0.97587 0.5892 0.71247 0.0
C3459 C 0.98251 0.62007 0.69796 0.0
C3460 C 0.98429 0.61 0.70329 0.0
C3461 C 0.98895 0.5822 0.72587 0.0
C3462 C 0.98746 0.59146 0.71679 0.0
H3463 H 0.99251 0.64941 0.70765 0.0
H3464 H 0.99603 0.63315 0.71511 0.0
H3465 H 0.9652 0.59647 0.70339 0.0
H3466 H 0.97784 0.55195 0.7265 0.0
H3467 H 0.97671 0.56732 0.70977 0.0
C3468 C 0.35466 0.34958 0.6942 0.0
C3469 C 0.35829 0.34139 0.68929 0.0
C3470 C 0.36325 0.3616 0.69749 0.0
C3471 C 0.39355 0.38025 0.71323 0.0
H3472 H 0.39154 0.40695 0.69438 0.0
C3473 C 0.42717 0.42871 0.73409 0.0
C3474 C 0.42257 0.43644 0.73671 0.0
C3475 C 0.42037 0.41776 0.72558 0.0
C3476 C 0.39217 0.39961 0.69993 0.0
H3477 H 0.37374 0.33936 0.68381 0.0
H3478 H 0.38881 0.36037 0.69009 0.0
H3479 H 0.37742 0.38646 0.68491 0.0
H3480 H 0.40738 0.43891 0.73134 0.0
H3481 H 0.39526 0.41958 0.71753 0.0
H3482 H 0.40774 0.39311 0.72899 0.0
C3483 C 0.3793 0.35747 0.69118 0.0
C3484 C 0.38413 0.38789 0.69439 0.0
C3485 C 0.37068 0.34549 0.68755 0.0
C3486 C 0.41115 0.43311 0.72994 0.0
C3487 C 0.40425 0.42205 0.72171 0.0
C3488 C 0.40144 0.39192 0.71901 0.0
C3489 C 0.37565 0.36561 0.69624 0.0
C3490 C 0.38469 0.3781 0.7011 0.0
C3491 C 0.40866 0.41409 0.71972 0.0
C3492 C 0.4008 0.40178 0.71257 0.0
H3493 H 0.34516 0.34669 0.69558 0.0
H3494 H 0.36022 0.36769 0.70151 0.0
H3495 H 0.39406 0.37282 0.71875 0.0
H3496 H 0.43586 0.43083 0.7392 0.0
H3497 H 0.42423 0.41205 0.72394 0.0
C3498 C 0.65156 0.03844 0.69393 0.0
C3499 C 0.65617 0.03066 0.69194 0.0
C3500 C 0.63997 0.03419 0.7006 0.0
C3501 C 0.61074 0.00629 0.70751 0.0
H3502 H 0.60553 0.02522 0.7413 0.0
C3503 C 0.56781 0.98662 0.74906 0.0
C3504 C 0.56295 0.99396 0.75309 0.0
C3505 C 0.57877 0.99131 0.7403 0.0
C3506 C 0.60678 0.01991 0.73168 0.0
H3507 H 0.65219 0.01231 0.69548 0.0
H3508 H 0.63203 0.00495 0.70723 0.0
H3509 H 0.62557 0.03301 0.72878 0.0
H3510 H 0.56565 0.01191 0.75061 0.0
H3511 H 0.58483 0.02012 0.73521 0.0
H3512 H 0.59199 0.99314 0.71049 0.0
C3513 C 0.63733 0.0143 0.70344 0.0
C3514 C 0.61828 0.02436 0.72453 0.0
C3515 C 0.64893 0.01855 0.69681 0.0
C3516 C 0.56922 0.00606 0.74786 0.0
C3517 C 0.5802 0.01076 0.73907 0.0
C3518 C 0.59925 0.00184 0.71463 0.0
C3519 C 0.63272 0.02207 0.70539 0.0
C3520 C 0.62041 0.01755 0.7125 0.0
C3521 C 0.58516 0.00346 0.73534 0.0
C3522 C 0.59717 0.00854 0.72693 0.0
H3523 H 0.65688 0.04782 0.69027 0.0
H3524 H 0.63663 0.04038 0.70179 0.0
H3525 H 0.61205 0.00092 0.69804 0.0
H3526 H 0.56335 0.97733 0.7532 0.0
H3527 H 0.58242 0.98549 0.73791 0.0
loop_
_geom_bond_atom_site_label_1
_geom_bond_atom_site_label_2
_geom_bond_distance
_geom_bond_site_symmetry_2
_ccdc_geom_bond_type
C0 O1 1.306 . S
C0 O3 1.160 . S
O1 C0 1.306 . S
O1 Cd2 2.228 . S
Cd2 O1 2.228 . S
Cd2 O6 2.273 . S
Cd2 O10 2.277 1_554 S
O3 C0 1.160 . S
O3 Cd4 2.203 1_655 S
Cd4 O3 2.203 1_455 S
Cd4 O6 2.411 1_455 S
Cd4 O7 2.333 . S
Cd4 O8 2.352 . S
Cd4 O12 2.277 1_554 S
Cd4 O13 2.356 . S
C5 O10 1.209 1_455 S
C5 O12 1.226 . S
O6 Cd2 2.273 . S
O6 Cd4 2.411 1_655 S
O6 C9 1.320 1_655 S
O7 Cd4 2.333 . S
O7 C9 1.214 . S
O8 Cd4 2.352 . S
O8 C11 1.258 . S
C9 O6 1.320 1_455 S
C9 O7 1.214 . S
O10 Cd2 2.277 1_556 S
O10 C5 1.209 1_655 S
C11 O8 1.258 . S
C11 O13 1.282 . S
O12 Cd4 2.277 1_556 S
O12 C5 1.226 . S
O13 Cd4 2.356 . S
O13 C11 1.282 . S
C14 O15 1.306 . S
C14 O17 1.160 . S
O15 C14 1.306 . S
O15 Cd16 2.228 . S
Cd16 O15 2.228 . S
Cd16 O20 2.273 1_554 S
Cd16 O24 2.277 . S
O17 C14 1.160 . S
O17 Cd18 2.203 . S
Cd18 O17 2.203 . S
Cd18 O20 2.411 1_554 S
Cd18 O21 2.333 1_554 S
Cd18 O22 2.352 1_554 S
Cd18 O26 2.277 . S
Cd18 O27 2.356 . S
C19 O24 1.209 . S
C19 O26 1.226 . S
O20 Cd16 2.273 1_556 S
O20 Cd18 2.411 1_556 S
O20 C23 1.320 . S
O21 Cd18 2.333 1_556 S
O21 C23 1.214 . S
O22 Cd18 2.352 1_556 S
O22 C25 1.258 1_556 S
C23 O20 1.320 . S
C23 O21 1.214 . S
O24 Cd16 2.277 . S
O24 C19 1.209 . S
C25 O22 1.258 1_554 S
C25 O27 1.282 . S
O26 Cd18 2.277 . S
O26 C19 1.226 . S
O27 Cd18 2.356 . S
O27 C25 1.282 . S
C28 O29 1.306 . S
C28 O31 1.160 . S
O29 C28 1.306 . S
O29 Cd30 2.228 . S
Cd30 O29 2.228 . S
Cd30 O34 2.273 1_554 S
Cd30 O38 2.277 . S
O31 C28 1.160 . S
O31 Cd32 2.203 1_565 S
Cd32 O31 2.203 1_545 S
Cd32 O34 2.411 1_544 S
Cd32 O35 2.333 1_554 S
Cd32 O36 2.352 1_554 S
Cd32 O40 2.277 . S
Cd32 O41 2.356 . S
C33 O38 1.209 1_545 S
C33 O40 1.226 . S
O34 Cd30 2.273 1_556 S
O34 Cd32 2.411 1_566 S
O34 C37 1.320 1_565 S
O35 Cd32 2.333 1_556 S
O35 C37 1.214 . S
O36 Cd32 2.352 1_556 S
O36 C39 1.258 1_556 S
C37 O34 1.320 1_545 S
C37 O35 1.214 . S
O38 Cd30 2.277 . S
O38 C33 1.209 1_565 S
C39 O36 1.258 1_554 S
C39 O41 1.282 . S
O40 Cd32 2.277 . S
O40 C33 1.226 . S
O41 Cd32 2.356 . S
O41 C39 1.282 . S
C42 O43 1.327 . S
C42 O45 1.154 1_554 S
O43 C42 1.327 . S
O43 Cd44 2.228 . S
Cd44 O43 2.228 . S
Cd44 O48 2.273 . S
Cd44 O52 2.277 1_554 S
O45 C42 1.154 1_556 S
O45 Cd46 2.178 1_656 S
Cd46 O45 2.178 1_454 S
Cd46 O48 2.411 1_455 S
Cd46 O49 2.333 . S
Cd46 O50 2.352 . S
Cd46 O54 2.277 1_554 S
Cd46 O55 2.356 . S
C47 O52 1.209 1_455 S
C47 O54 1.226 . S
O48 Cd44 2.273 . S
O48 Cd46 2.411 1_655 S
O48 C51 1.320 1_655 S
O49 Cd46 2.333 . S
O49 C51 1.214 . S
O50 Cd46 2.352 . S
O50 C53 1.258 . S
C51 O48 1.320 1_455 S
C51 O49 1.214 . S
O52 Cd44 2.277 1_556 S
O52 C47 1.209 1_655 S
C53 O50 1.258 . S
C53 O55 1.282 . S
O54 Cd46 2.277 1_556 S
O54 C47 1.226 . S
O55 Cd46 2.356 . S
O55 C53 1.282 . S
C56 O57 1.306 . S
C56 O59 1.160 . S
O57 C56 1.306 . S
O57 Cd58 2.228 . S
Cd58 O57 2.228 . S
Cd58 O62 2.273 1_554 S
Cd58 O66 2.277 . S
O59 C56 1.160 . S
O59 Cd60 2.203 . S
Cd60 O59 2.203 . S
Cd60 O62 2.411 1_554 S
Cd60 O63 2.333 1_554 S
Cd60 O64 2.352 1_554 S
Cd60 O68 2.277 . S
Cd60 O69 2.356 . S
C61 O66 1.209 . S
C61 O68 1.226 . S
O62 Cd58 2.273 1_556 S
O62 Cd60 2.411 1_556 S
O62 C65 1.320 . S
O63 Cd60 2.333 1_556 S
O63 C65 1.214 . S
O64 Cd60 2.352 1_556 S
O64 C67 1.271 . S
C65 O62 1.320 . S
C65 O63 1.214 . S
O66 Cd58 2.277 . S
O66 C61 1.209 . S
C67 O64 1.271 . S
C67 O69 1.258 1_556 S
O68 Cd60 2.277 . S
O68 C61 1.226 . S
O69 Cd60 2.356 . S
O69 C67 1.258 1_554 S
C70 O71 1.306 . S
C70 O73 1.163 . S
O71 C70 1.306 . S
O71 Cd72 2.228 . S
Cd72 O71 2.228 . S
Cd72 O76 2.273 . S
Cd72 O80 2.277 1_554 S
O73 C70 1.163 . S
O73 Cd74 2.219 1_545 S
Cd74 O73 2.219 1_565 S
Cd74 O76 2.411 1_565 S
Cd74 O77 2.333 . S
Cd74 O78 2.352 . S
Cd74 O82 2.277 1_554 S
Cd74 O83 2.356 . S
C75 O80 1.199 1_565 S
C75 O82 1.240 . S
O76 Cd72 2.273 . S
O76 Cd74 2.411 1_545 S
O76 C79 1.333 . S
O77 Cd74 2.333 . S
O77 C79 1.187 1_565 S
O78 Cd74 2.352 . S
O78 C81 1.258 . S
C79 O76 1.333 . S
C79 O77 1.187 1_545 S
O80 Cd72 2.277 1_556 S
O80 C75 1.199 1_545 S
C81 O78 1.258 . S
C81 O83 1.282 . S
O82 Cd74 2.277 1_556 S
O82 C75 1.240 . S
O83 Cd74 2.356 . S
O83 C81 1.282 . S
C84 O85 1.306 . S
C84 O87 1.160 . S
O85 C84 1.306 . S
O85 Cd86 2.228 . S
Cd86 O85 2.228 . S
Cd86 O90 2.273 . S
Cd86 O94 2.277 . S
O87 C84 1.160 . S
O87 Cd88 2.203 . S
Cd88 O87 2.203 . S
Cd88 O90 2.411 . S
Cd88 O91 2.333 . S
Cd88 O92 2.352 . S
Cd88 O96 2.277 . S
Cd88 O97 2.356 . S
C89 O94 1.209 . S
C89 O96 1.226 . S
O90 Cd86 2.273 . S
O90 Cd88 2.411 . S
O90 C93 1.320 . S
O91 Cd88 2.333 . S
O91 C93 1.214 . S
O92 Cd88 2.352 . S
O92 C95 1.258 . S
C93 O90 1.320 . S
C93 O91 1.214 . S
O94 Cd86 2.277 . S
O94 C89 1.209 . S
C95 O92 1.258 . S
C95 O97 1.282 . S
O96 Cd88 2.277 . S
O96 C89 1.226 . S
O97 Cd88 2.356 . S
O97 C95 1.282 . S
C98 O99 1.306 . S
C98 O101 1.160 . S
O99 C98 1.306 . S
O99 Cd100 2.228 . S
Cd100 O99 2.228 . S
Cd100 O104 2.273 . S
Cd100 O108 2.277 . S
O101 C98 1.160 . S
O101 Cd102 2.203 . S
Cd102 O101 2.203 . S
Cd102 O104 2.411 . S
Cd102 O105 2.333 . S
Cd102 O106 2.352 . S
Cd102 O110 2.277 . S
Cd102 O111 2.356 . S
C103 O108 1.209 . S
C103 O110 1.226 . S
O104 Cd100 2.273 . S
O104 Cd102 2.411 . S
O104 C107 1.320 . S
O105 Cd102 2.333 . S
O105 C107 1.214 . S
O106 Cd102 2.352 . S
O106 C109 1.258 . S
C107 O104 1.320 . S
C107 O105 1.214 . S
O108 Cd100 2.277 . S
O108 C103 1.209 . S
C109 O106 1.258 . S
C109 O111 1.282 . S
O110 Cd102 2.277 . S
O110 C103 1.226 . S
O111 Cd102 2.356 . S
O111 C109 1.282 . S
C112 O113 1.306 . S
C112 O115 1.160 . S
O113 C112 1.306 . S
O113 Cd114 2.228 . S
Cd114 O113 2.228 . S
Cd114 O118 2.273 . S
Cd114 O122 2.277 . S
O115 C112 1.160 . S
O115 Cd116 2.203 . S
Cd116 O115 2.203 . S
Cd116 O118 2.411 . S
Cd116 O119 2.333 . S
Cd116 O120 2.352 . S
Cd116 O124 2.277 . S
Cd116 O125 2.356 . S
C117 O122 1.209 . S
C117 O124 1.226 . S
O118 Cd114 2.273 . S
O118 Cd116 2.411 . S
O118 C121 1.320 . S
O119 Cd116 2.333 . S
O119 C121 1.214 . S
O120 Cd116 2.352 . S
O120 C123 1.258 . S
C121 O118 1.320 . S
C121 O119 1.214 . S
O122 Cd114 2.277 . S
O122 C117 1.209 . S
C123 O120 1.258 . S
C123 O125 1.282 . S
O124 Cd116 2.277 . S
O124 C117 1.226 . S
O125 Cd116 2.356 . S
O125 C123 1.282 . S
C126 O127 1.306 . S
C126 O129 1.160 . S
O127 C126 1.306 . S
O127 Cd128 2.228 . S
Cd128 O127 2.228 . S
Cd128 O132 2.273 . S
Cd128 O136 2.277 . S
O129 C126 1.160 . S
O129 Cd130 2.203 . S
Cd130 O129 2.203 . S
Cd130 O132 2.411 . S
Cd130 O133 2.333 . S
Cd130 O134 2.352 . S
Cd130 O138 2.277 . S
Cd130 O139 2.356 . S
C131 O136 1.209 . S
C131 O138 1.226 . S
O132 Cd128 2.273 . S
O132 Cd130 2.411 . S
O132 C135 1.320 . S
O133 Cd130 2.333 . S
O133 C135 1.214 . S
O134 Cd130 2.352 . S
O134 C137 1.258 1_565 S
C135 O132 1.320 . S
C135 O133 1.214 . S
O136 Cd128 2.277 . S
O136 C131 1.209 . S
C137 O134 1.258 1_545 S
C137 O139 1.248 1_545 S
O138 Cd130 2.277 . S
O138 C131 1.226 . S
O139 Cd130 2.356 . S
O139 C137 1.248 1_565 S
C140 O141 1.306 . S
C140 O143 1.160 . S
O141 C140 1.306 . S
O141 Cd142 2.228 . S
Cd142 O141 2.228 . S
Cd142 O146 2.273 . S
Cd142 O150 2.277 . S
O143 C140 1.160 . S
O143 Cd144 2.203 . S
Cd144 O143 2.203 . S
Cd144 O146 2.411 . S
Cd144 O147 2.333 . S
Cd144 O148 2.352 . S
Cd144 O152 2.277 . S
Cd144 O153 2.356 . S
C145 O150 1.209 . S
C145 O152 1.226 . S
O146 Cd142 2.273 . S
O146 Cd144 2.411 . S
O146 C149 1.320 . S
O147 Cd144 2.333 . S
O147 C149 1.214 . S
O148 Cd144 2.352 . S
O148 C151 1.258 . S
C149 O146 1.320 . S
C149 O147 1.214 . S
O150 Cd142 2.277 . S
O150 C145 1.209 . S
C151 O148 1.258 . S
C151 O153 1.282 . S
O152 Cd144 2.277 . S
O152 C145 1.226 . S
O153 Cd144 2.356 . S
O153 C151 1.282 . S
C154 O155 1.306 . S
C154 O157 1.160 . S
O155 C154 1.306 . S
O155 Cd156 2.228 . S
Cd156 O155 2.228 . S
Cd156 O160 2.273 . S
Cd156 O164 2.277 . S
O157 C154 1.160 . S
O157 Cd158 2.203 . S
Cd158 O157 2.203 . S
Cd158 O160 2.411 . S
Cd158 O161 2.333 . S
Cd158 O162 2.352 . S
Cd158 O166 2.277 . S
Cd158 O167 2.356 . S
C159 O164 1.209 . S
C159 O166 1.226 . S
O160 Cd156 2.273 . S
O160 Cd158 2.411 . S
O160 C163 1.320 . S
O161 Cd158 2.333 . S
O161 C163 1.214 . S
O162 Cd158 2.352 . S
O162 C165 1.258 . S
C163 O160 1.320 . S
C163 O161 1.214 . S
O164 Cd156 2.277 . S
O164 C159 1.209 . S
C165 O162 1.258 . S
C165 O167 1.282 . S
O166 Cd158 2.277 . S
O166 C159 1.226 . S
O167 Cd158 2.356 . S
O167 C165 1.282 . S
C168 O169 1.306 . S
C168 O171 1.160 . S
O169 C168 1.306 . S
O169 Cd170 2.228 . S
Cd170 O169 2.228 . S
Cd170 O174 2.273 . S
Cd170 O178 2.277 . S
O171 C168 1.160 . S
O171 Cd172 2.203 . S
Cd172 O171 2.203 . S
Cd172 O174 2.411 . S
Cd172 O175 2.333 . S
Cd172 O176 2.352 . S
Cd172 O180 2.277 . S
Cd172 O181 2.356 . S
C173 O178 1.209 . S
C173 O180 1.226 . S
O174 Cd170 2.273 . S
O174 Cd172 2.411 . S
O174 C177 1.320 . S
O175 Cd172 2.333 . S
O175 C177 1.214 . S
O176 Cd172 2.352 . S
O176 C179 1.258 . S
C177 O174 1.320 . S
C177 O175 1.214 . S
O178 Cd170 2.277 . S
O178 C173 1.209 . S
C179 O176 1.258 . S
C179 O181 1.282 . S
O180 Cd172 2.277 . S
O180 C173 1.226 . S
O181 Cd172 2.356 . S
O181 C179 1.282 . S
C182 O183 1.306 . S
C182 O185 1.160 . S
O183 C182 1.306 . S
O183 Cd184 2.228 . S
Cd184 O183 2.228 . S
Cd184 O188 2.273 . S
Cd184 O192 2.277 . S
O185 C182 1.160 . S
O185 Cd186 2.203 . S
Cd186 O185 2.203 . S
Cd186 O188 2.411 . S
Cd186 O189 2.333 . S
Cd186 O190 2.352 . S
Cd186 O194 2.277 . S
Cd186 O195 2.356 . S
C187 O192 1.209 . S
C187 O194 1.226 . S
O188 Cd184 2.273 . S
O188 Cd186 2.411 . S
O188 C191 1.320 . S
O189 Cd186 2.333 . S
O189 C191 1.214 . S
O190 Cd186 2.352 . S
O190 C193 1.258 1_655 S
C191 O188 1.320 . S
C191 O189 1.214 . S
O192 Cd184 2.277 . S
O192 C187 1.209 . S
C193 O190 1.258 1_455 S
C193 O195 1.282 1_455 S
O194 Cd186 2.277 . S
O194 C187 1.226 . S
O195 Cd186 2.356 . S
O195 C193 1.282 1_655 S
C196 O197 1.306 . S
C196 O199 1.160 . S
O197 C196 1.306 . S
O197 Cd198 2.228 . S
Cd198 O197 2.228 . S
Cd198 O202 2.273 . S
Cd198 O206 2.277 . S
O199 C196 1.160 . S
O199 Cd200 2.203 . S
Cd200 O199 2.203 . S
Cd200 O202 2.411 . S
Cd200 O203 2.333 . S
Cd200 O204 2.352 . S
Cd200 O208 2.277 . S
Cd200 O209 2.356 . S
C201 O206 1.209 . S
C201 O208 1.226 . S
O202 Cd198 2.273 . S
O202 Cd200 2.411 . S
O202 C205 1.320 . S
O203 Cd200 2.333 . S
O203 C205 1.214 . S
O204 Cd200 2.352 . S
O204 C207 1.258 . S
C205 O202 1.320 . S
C205 O203 1.214 . S
O206 Cd198 2.277 . S
O206 C201 1.209 . S
C207 O204 1.258 . S
C207 O209 1.282 . S
O208 Cd200 2.277 . S
O208 C201 1.226 . S
O209 Cd200 2.356 . S
O209 C207 1.282 . S
C210 O211 1.306 . S
C210 O213 1.160 . S
O211 C210 1.306 . S
O211 Cd212 2.228 . S
Cd212 O211 2.228 . S
Cd212 O216 2.273 . S
Cd212 O220 2.277 . S
O213 C210 1.160 . S
O213 Cd214 2.203 . S
Cd214 O213 2.203 . S
Cd214 O216 2.411 . S
Cd214 O217 2.333 . S
Cd214 O218 2.352 . S
Cd214 O222 2.277 . S
Cd214 O223 2.356 . S
C215 O220 1.209 . S
C215 O222 1.226 . S
O216 Cd212 2.273 . S
O216 Cd214 2.411 . S
O216 C219 1.320 . S
O217 Cd214 2.333 . S
O217 C219 1.214 . S
O218 Cd214 2.352 . S
O218 C221 1.258 . S
C219 O216 1.320 . S
C219 O217 1.214 . S
O220 Cd212 2.277 . S
O220 C215 1.209 . S
C221 O218 1.258 . S
C221 O223 1.282 . S
O222 Cd214 2.277 . S
O222 C215 1.226 . S
O223 Cd214 2.356 . S
O223 C221 1.282 . S
C224 O225 1.306 . S
C224 O227 1.160 . S
O225 C224 1.306 . S
O225 Cd226 2.228 . S
Cd226 O225 2.228 . S
Cd226 O230 2.273 . S
Cd226 O234 2.277 . S
O227 C224 1.160 . S
O227 Cd228 2.203 . S
Cd228 O227 2.203 . S
Cd228 O230 2.411 . S
Cd228 O231 2.333 . S
Cd228 O232 2.352 . S
Cd228 O236 2.277 . S
Cd228 O237 2.356 . S
C229 O234 1.209 . S
C229 O236 1.226 . S
O230 Cd226 2.273 . S
O230 Cd228 2.411 . S
O230 C233 1.320 . S
O231 Cd228 2.333 . S
O231 C233 1.214 . S
O232 Cd228 2.352 . S
O232 C235 1.258 . S
C233 O230 1.320 . S
C233 O231 1.214 . S
O234 Cd226 2.277 . S
O234 C229 1.209 . S
C235 O232 1.258 . S
C235 O237 1.282 . S
O236 Cd228 2.277 . S
O236 C229 1.226 . S
O237 Cd228 2.356 . S
O237 C235 1.282 . S
C238 O239 1.306 . S
C238 O241 1.160 . S
O239 C238 1.306 . S
O239 Cd240 2.228 . S
Cd240 O239 2.228 . S
Cd240 O244 2.273 . S
Cd240 O248 2.277 . S
O241 C238 1.160 . S
O241 Cd242 2.203 . S
Cd242 O241 2.203 . S
Cd242 O244 2.411 . S
Cd242 O245 2.333 . S
Cd242 O246 2.352 . S
Cd242 O250 2.277 . S
Cd242 O251 2.356 . S
C243 O248 1.209 . S
C243 O250 1.226 . S
O244 Cd240 2.273 . S
O244 Cd242 2.411 . S
O244 C247 1.320 . S
O245 Cd242 2.333 . S
O245 C247 1.214 . S
O246 Cd242 2.352 . S
O246 C249 1.258 . S
C247 O244 1.320 . S
C247 O245 1.214 . S
O248 Cd240 2.277 . S
O248 C243 1.209 . S
C249 O246 1.258 . S
C249 O251 1.282 . S
O250 Cd242 2.277 . S
O250 C243 1.226 . S
O251 Cd242 2.356 . S
O251 C249 1.282 . S
H252 C279 0.929 . S
N253 C278 1.433 . S
N253 C284 1.435 . S
N253 C290 1.423 . S
H254 C280 0.930 . S
H255 C283 0.931 . S
H256 C282 0.929 . S
H257 C285 0.930 . S
H258 C286 0.932 . S
H259 C289 0.929 . S
H260 C288 0.931 . S
H261 C291 0.929 . S
H262 C295 0.932 . S
H263 C292 0.931 . S
H264 C294 0.929 . S
H265 C297 0.929 . S
H266 C298 0.930 . S
H267 C300 0.929 . S
H268 C301 0.931 . S
H269 C303 0.930 . S
H270 C304 0.932 . S
H271 C306 0.931 . S
H272 C307 0.929 . S
H273 C309 0.929 . S
H274 C310 0.931 . S
H275 C312 0.929 . S
N276 C296 1.433 . S
N276 C302 1.435 . S
N276 C308 1.423 . S
H277 C313 0.932 . S
C278 N253 1.433 . S
C278 C279 1.363 . S
C278 C283 1.370 . S
C279 H252 0.929 . S
C279 C278 1.363 . S
C279 C280 1.385 . S
C280 H254 0.930 . S
C280 C279 1.385 . S
C280 C281 1.357 . S
C281 C280 1.357 . S
C281 C282 1.406 . S
C282 H256 0.929 . S
C282 C281 1.406 . S
C282 C283 1.391 . S
C283 H255 0.931 . S
C283 C278 1.370 . S
C283 C282 1.391 . S
C284 N253 1.435 . S
C284 C285 1.358 . S
C284 C289 1.371 . S
C285 H257 0.930 . S
C285 C284 1.358 . S
C285 C286 1.405 . S
C286 H258 0.932 . S
C286 C285 1.405 . S
C286 C287 1.383 . S
C287 C286 1.383 . S
C287 C288 1.393 . S
C288 H260 0.931 . S
C288 C287 1.393 . S
C288 C289 1.382 . S
C289 H259 0.929 . S
C289 C284 1.371 . S
C289 C288 1.382 . S
C290 N253 1.423 . S
C290 C291 1.362 . S
C290 C295 1.388 . S
C291 H261 0.929 . S
C291 C290 1.362 . S
C291 C292 1.376 . S
C292 H263 0.931 . S
C292 C291 1.376 . S
C292 C293 1.396 . S
C293 C292 1.396 . S
C293 C294 1.348 . S
C293 C311 1.472 . S
C294 H264 0.929 . S
C294 C293 1.348 . S
C294 C295 1.443 . S
C295 H262 0.932 . S
C295 C290 1.388 . S
C295 C294 1.443 . S
C296 N276 1.433 . S
C296 C297 1.363 . S
C296 C301 1.370 . S
C297 H265 0.929 . S
C297 C296 1.363 . S
C297 C298 1.385 . S
C298 H266 0.930 . S
C298 C297 1.385 . S
C298 C299 1.357 . S
C299 C298 1.357 . S
C299 C300 1.406 . S
C300 H267 0.929 . S
C300 C299 1.406 . S
C300 C301 1.391 . S
C301 H268 0.931 . S
C301 C296 1.370 . S
C301 C300 1.391 . S
C302 N276 1.435 . S
C302 C303 1.358 . S
C302 C307 1.371 . S
C303 H269 0.930 . S
C303 C302 1.358 . S
C303 C304 1.405 . S
C304 H270 0.932 . S
C304 C303 1.405 . S
C304 C305 1.383 . S
C305 C304 1.383 . S
C305 C306 1.393 . S
C306 H271 0.931 . S
C306 C305 1.393 . S
C306 C307 1.382 . S
C307 H272 0.929 . S
C307 C302 1.371 . S
C307 C306 1.382 . S
C308 N276 1.423 . S
C308 C309 1.362 . S
C308 C313 1.388 . S
C309 H273 0.929 . S
C309 C308 1.362 . S
C309 C310 1.376 . S
C310 H274 0.931 . S
C310 C309 1.376 . S
C310 C311 1.396 . S
C311 C293 1.472 . S
C311 C310 1.396 . S
C311 C312 1.348 . S
C312 H275 0.929 . S
C312 C311 1.348 . S
C312 C313 1.443 . S
C313 H277 0.932 . S
C313 C308 1.388 . S
C313 C312 1.443 . S
H314 C341 0.929 . S
N315 C340 1.433 . S
N315 C346 1.435 . S
N315 C352 1.423 . S
H316 C342 0.930 . S
H317 C345 0.931 . S
H318 C344 0.929 . S
H319 C347 0.930 . S
H320 C348 0.932 . S
H321 C351 0.929 . S
H322 C350 0.931 . S
H323 C353 0.929 . S
H324 C357 0.932 . S
H325 C354 0.931 . S
H326 C356 0.929 . S
H327 C359 0.929 . S
H328 C360 0.930 . S
H329 C362 0.929 . S
H330 C363 0.931 . S
H331 C365 0.930 . S
H332 C366 0.932 . S
H333 C368 0.931 . S
H334 C369 0.929 . S
H335 C371 0.929 . S
H336 C372 0.931 . S
H337 C374 0.929 . S
N338 C358 1.433 . S
N338 C364 1.435 . S
N338 C370 1.423 . S
H339 C375 0.932 . S
C340 N315 1.433 . S
C340 C341 1.363 . S
C340 C345 1.370 . S
C341 H314 0.929 . S
C341 C340 1.363 . S
C341 C342 1.385 . S
C342 H316 0.930 . S
C342 C341 1.385 . S
C342 C343 1.357 . S
C343 C342 1.357 . S
C343 C344 1.406 . S
C344 H318 0.929 . S
C344 C343 1.406 . S
C344 C345 1.391 . S
C345 H317 0.931 . S
C345 C340 1.370 . S
C345 C344 1.391 . S
C346 N315 1.435 . S
C346 C347 1.358 . S
C346 C351 1.371 . S
C347 H319 0.930 . S
C347 C346 1.358 . S
C347 C348 1.405 . S
C348 H320 0.932 . S
C348 C347 1.405 . S
C348 C349 1.383 . S
C349 C348 1.383 . S
C349 C350 1.393 . S
C350 H322 0.931 . S
C350 C349 1.393 . S
C350 C351 1.382 . S
C351 H321 0.929 . S
C351 C346 1.371 . S
C351 C350 1.382 . S
C352 N315 1.423 . S
C352 C353 1.362 . S
C352 C357 1.388 . S
C353 H323 0.929 . S
C353 C352 1.362 . S
C353 C354 1.376 . S
C354 H325 0.931 . S
C354 C353 1.376 . S
C354 C355 1.396 . S
C355 C354 1.396 . S
C355 C356 1.348 . S
C355 C373 1.472 . S
C356 H326 0.929 . S
C356 C355 1.348 . S
C356 C357 1.443 . S
C357 H324 0.932 . S
C357 C352 1.388 . S
C357 C356 1.443 . S
C358 N338 1.433 . S
C358 C359 1.363 . S
C358 C363 1.370 . S
C359 H327 0.929 . S
C359 C358 1.363 . S
C359 C360 1.385 . S
C360 H328 0.930 . S
C360 C359 1.385 . S
C360 C361 1.357 . S
C361 C360 1.357 . S
C361 C362 1.406 . S
C362 H329 0.929 . S
C362 C361 1.406 . S
C362 C363 1.391 . S
C363 H330 0.931 . S
C363 C358 1.370 . S
C363 C362 1.391 . S
C364 N338 1.435 . S
C364 C365 1.358 . S
C364 C369 1.371 . S
C365 H331 0.930 . S
C365 C364 1.358 . S
C365 C366 1.405 . S
C366 H332 0.932 . S
C366 C365 1.405 . S
C366 C367 1.383 . S
C367 C366 1.383 . S
C367 C368 1.393 . S
C368 H333 0.931 . S
C368 C367 1.393 . S
C368 C369 1.382 . S
C369 H334 0.929 . S
C369 C364 1.371 . S
C369 C368 1.382 . S
C370 N338 1.423 . S
C370 C371 1.362 . S
C370 C375 1.388 . S
C371 H335 0.929 . S
C371 C370 1.362 . S
C371 C372 1.376 . S
C372 H336 0.931 . S
C372 C371 1.376 . S
C372 C373 1.396 . S
C373 C355 1.472 . S
C373 C372 1.396 . S
C373 C374 1.348 . S
C374 H337 0.929 . S
C374 C373 1.348 . S
C374 C375 1.443 . S
C375 H339 0.932 . S
C375 C370 1.388 . S
C375 C374 1.443 . S
H376 C403 0.929 . S
N377 C402 1.433 . S
N377 C408 1.435 . S
N377 C414 1.423 . S
H378 C404 0.930 . S
H379 C407 0.931 . S
H380 C406 0.929 . S
H381 C409 0.930 . S
H382 C410 0.932 . S
H383 C413 0.929 . S
H384 C412 0.931 . S
H385 C415 0.929 . S
H386 C419 0.932 . S
H387 C416 0.931 . S
H388 C418 0.929 . S
H389 C421 0.929 . S
H390 C422 0.930 . S
H391 C424 0.929 . S
H392 C425 0.931 . S
H393 C427 0.930 . S
H394 C428 0.932 . S
H395 C430 0.931 . S
H396 C431 0.929 . S
H397 C433 0.929 . S
H398 C434 0.931 . S
H399 C436 0.929 . S
N400 C420 1.433 . S
N400 C426 1.435 . S
N400 C432 1.423 . S
H401 C437 0.932 . S
C402 N377 1.433 . S
C402 C403 1.363 . S
C402 C407 1.370 . S
C403 H376 0.929 . S
C403 C402 1.363 . S
C403 C404 1.385 . S
C404 H378 0.930 . S
C404 C403 1.385 . S
C404 C405 1.357 . S
C405 C404 1.357 . S
C405 C406 1.406 . S
C406 H380 0.929 . S
C406 C405 1.406 . S
C406 C407 1.391 . S
C407 H379 0.931 . S
C407 C402 1.370 . S
C407 C406 1.391 . S
C408 N377 1.435 . S
C408 C409 1.358 . S
C408 C413 1.371 . S
C409 H381 0.930 . S
C409 C408 1.358 . S
C409 C410 1.405 . S
C410 H382 0.932 . S
C410 C409 1.405 . S
C410 C411 1.383 . S
C411 C410 1.383 . S
C411 C412 1.393 . S
C412 H384 0.931 . S
C412 C411 1.393 . S
C412 C413 1.382 . S
C413 H383 0.929 . S
C413 C408 1.371 . S
C413 C412 1.382 . S
C414 N377 1.423 . S
C414 C415 1.362 . S
C414 C419 1.388 . S
C415 H385 0.929 . S
C415 C414 1.362 . S
C415 C416 1.376 . S
C416 H387 0.931 . S
C416 C415 1.376 . S
C416 C417 1.396 . S
C417 C416 1.396 . S
C417 C418 1.348 . S
C417 C435 1.472 . S
C418 H388 0.929 . S
C418 C417 1.348 . S
C418 C419 1.443 . S
C419 H386 0.932 . S
C419 C414 1.388 . S
C419 C418 1.443 . S
C420 N400 1.433 . S
C420 C421 1.363 . S
C420 C425 1.370 . S
C421 H389 0.929 . S
C421 C420 1.363 . S
C421 C422 1.385 . S
C422 H390 0.930 . S
C422 C421 1.385 . S
C422 C423 1.357 . S
C423 C422 1.357 . S
C423 C424 1.406 . S
C424 H391 0.929 . S
C424 C423 1.406 . S
C424 C425 1.391 . S
C425 H392 0.931 . S
C425 C420 1.370 . S
C425 C424 1.391 . S
C426 N400 1.435 . S
C426 C427 1.358 . S
C426 C431 1.371 . S
C427 H393 0.930 . S
C427 C426 1.358 . S
C427 C428 1.405 . S
C428 H394 0.932 . S
C428 C427 1.405 . S
C428 C429 1.383 . S
C429 C428 1.383 . S
C429 C430 1.393 . S
C430 H395 0.931 . S
C430 C429 1.393 . S
C430 C431 1.382 . S
C431 H396 0.929 . S
C431 C426 1.371 . S
C431 C430 1.382 . S
C432 N400 1.423 . S
C432 C433 1.362 . S
C432 C437 1.388 . S
C433 H397 0.929 . S
C433 C432 1.362 . S
C433 C434 1.376 . S
C434 H398 0.931 . S
C434 C433 1.376 . S
C434 C435 1.396 . S
C435 C417 1.472 . S
C435 C434 1.396 . S
C435 C436 1.348 . S
C436 H399 0.929 . S
C436 C435 1.348 . S
C436 C437 1.443 . S
C437 H401 0.932 . S
C437 C432 1.388 . S
C437 C436 1.443 . S
H438 C465 0.929 . S
N439 C464 1.433 . S
N439 C470 1.435 . S
N439 C476 1.423 . S
H440 C466 0.930 . S
H441 C469 0.931 . S
H442 C468 0.929 . S
H443 C471 0.930 . S
H444 C472 0.932 . S
H445 C475 0.929 . S
H446 C474 0.931 . S
H447 C477 0.929 . S
H448 C481 0.932 . S
H449 C478 0.931 . S
H450 C480 0.929 . S
H451 C483 0.929 . S
H452 C484 0.930 . S
H453 C486 0.929 . S
H454 C487 0.931 . S
H455 C489 0.930 . S
H456 C490 0.932 . S
H457 C492 0.931 . S
H458 C493 0.929 . S
H459 C495 0.929 . S
H460 C496 0.931 . S
H461 C498 0.929 . S
N462 C482 1.433 . S
N462 C488 1.435 . S
N462 C494 1.423 . S
H463 C499 0.932 . S
C464 N439 1.433 . S
C464 C465 1.363 . S
C464 C469 1.370 . S
C465 H438 0.929 . S
C465 C464 1.363 . S
C465 C466 1.385 . S
C466 H440 0.930 . S
C466 C465 1.385 . S
C466 C467 1.357 . S
C467 C466 1.357 . S
C467 C468 1.406 . S
C468 H442 0.929 . S
C468 C467 1.406 . S
C468 C469 1.391 . S
C469 H441 0.931 . S
C469 C464 1.370 . S
C469 C468 1.391 . S
C470 N439 1.435 . S
C470 C471 1.358 . S
C470 C475 1.371 . S
C471 H443 0.930 . S
C471 C470 1.358 . S
C471 C472 1.405 . S
C472 H444 0.932 . S
C472 C471 1.405 . S
C472 C473 1.383 . S
C473 C472 1.383 . S
C473 C474 1.393 . S
C474 H446 0.931 . S
C474 C473 1.393 . S
C474 C475 1.382 . S
C475 H445 0.929 . S
C475 C470 1.371 . S
C475 C474 1.382 . S
C476 N439 1.423 . S
C476 C477 1.362 . S
C476 C481 1.388 . S
C477 H447 0.929 . S
C477 C476 1.362 . S
C477 C478 1.376 . S
C478 H449 0.931 . S
C478 C477 1.376 . S
C478 C479 1.396 . S
C479 C478 1.396 . S
C479 C480 1.348 . S
C479 C497 1.472 . S
C480 H450 0.929 . S
C480 C479 1.348 . S
C480 C481 1.443 . S
C481 H448 0.932 . S
C481 C476 1.388 . S
C481 C480 1.443 . S
C482 N462 1.433 . S
C482 C483 1.363 . S
C482 C487 1.370 . S
C483 H451 0.929 . S
C483 C482 1.363 . S
C483 C484 1.385 . S
C484 H452 0.930 . S
C484 C483 1.385 . S
C484 C485 1.357 . S
C485 C484 1.357 . S
C485 C486 1.406 . S
C486 H453 0.929 . S
C486 C485 1.406 . S
C486 C487 1.391 . S
C487 H454 0.931 . S
C487 C482 1.370 . S
C487 C486 1.391 . S
C488 N462 1.435 . S
C488 C489 1.358 . S
C488 C493 1.371 . S
C489 H455 0.930 . S
C489 C488 1.358 . S
C489 C490 1.405 . S
C490 H456 0.932 . S
C490 C489 1.405 . S
C490 C491 1.383 . S
C491 C490 1.383 . S
C491 C492 1.393 . S
C492 H457 0.931 . S
C492 C491 1.393 . S
C492 C493 1.382 . S
C493 H458 0.929 . S
C493 C488 1.371 . S
C493 C492 1.382 . S
C494 N462 1.423 . S
C494 C495 1.362 . S
C494 C499 1.388 . S
C495 H459 0.929 . S
C495 C494 1.362 . S
C495 C496 1.376 . S
C496 H460 0.931 . S
C496 C495 1.376 . S
C496 C497 1.396 . S
C497 C479 1.472 . S
C497 C496 1.396 . S
C497 C498 1.348 . S
C498 H461 0.929 . S
C498 C497 1.348 . S
C498 C499 1.443 . S
C499 H463 0.932 . S
C499 C494 1.388 . S
C499 C498 1.443 . S
H500 C527 0.929 . S
N501 C526 1.433 . S
N501 C532 1.435 . S
N501 C538 1.423 . S
H502 C528 0.930 . S
H503 C531 0.931 . S
H504 C530 0.929 . S
H505 C533 0.930 . S
H506 C534 0.932 . S
H507 C537 0.929 . S
H508 C536 0.931 . S
H509 C539 0.929 . S
H510 C543 0.932 . S
H511 C540 0.931 . S
H512 C542 0.929 . S
H513 C545 0.929 . S
H514 C546 0.930 . S
H515 C548 0.929 . S
H516 C549 0.931 . S
H517 C551 0.930 . S
H518 C552 0.932 . S
H519 C554 0.931 . S
H520 C555 0.929 . S
H521 C557 0.929 . S
H522 C558 0.931 . S
H523 C560 0.929 . S
N524 C544 1.433 . S
N524 C550 1.435 . S
N524 C556 1.423 . S
H525 C561 0.932 . S
C526 N501 1.433 . S
C526 C527 1.363 . S
C526 C531 1.370 . S
C527 H500 0.929 . S
C527 C526 1.363 . S
C527 C528 1.385 . S
C528 H502 0.930 . S
C528 C527 1.385 . S
C528 C529 1.357 . S
C529 C528 1.357 . S
C529 C530 1.406 . S
C530 H504 0.929 . S
C530 C529 1.406 . S
C530 C531 1.391 . S
C531 H503 0.931 . S
C531 C526 1.370 . S
C531 C530 1.391 . S
C532 N501 1.435 . S
C532 C533 1.358 . S
C532 C537 1.371 . S
C533 H505 0.930 . S
C533 C532 1.358 . S
C533 C534 1.405 . S
C534 H506 0.932 . S
C534 C533 1.405 . S
C534 C535 1.383 . S
C535 C534 1.383 . S
C535 C536 1.393 . S
C536 H508 0.931 . S
C536 C535 1.393 . S
C536 C537 1.382 . S
C537 H507 0.929 . S
C537 C532 1.371 . S
C537 C536 1.382 . S
C538 N501 1.423 . S
C538 C539 1.362 . S
C538 C543 1.388 . S
C539 H509 0.929 . S
C539 C538 1.362 . S
C539 C540 1.376 . S
C540 H511 0.931 . S
C540 C539 1.376 . S
C540 C541 1.396 . S
C541 C540 1.396 . S
C541 C542 1.348 . S
C541 C559 1.472 . S
C542 H512 0.929 . S
C542 C541 1.348 . S
C542 C543 1.443 . S
C543 H510 0.932 . S
C543 C538 1.388 . S
C543 C542 1.443 . S
C544 N524 1.433 . S
C544 C545 1.363 . S
C544 C549 1.370 . S
C545 H513 0.929 . S
C545 C544 1.363 . S
C545 C546 1.385 . S
C546 H514 0.930 . S
C546 C545 1.385 . S
C546 C547 1.357 . S
C547 C546 1.357 . S
C547 C548 1.406 . S
C548 H515 0.929 . S
C548 C547 1.406 . S
C548 C549 1.391 . S
C549 H516 0.931 . S
C549 C544 1.370 . S
C549 C548 1.391 . S
C550 N524 1.435 . S
C550 C551 1.358 . S
C550 C555 1.371 . S
C551 H517 0.930 . S
C551 C550 1.358 . S
C551 C552 1.405 . S
C552 H518 0.932 . S
C552 C551 1.405 . S
C552 C553 1.383 . S
C553 C552 1.383 . S
C553 C554 1.393 . S
C554 H519 0.931 . S
C554 C553 1.393 . S
C554 C555 1.382 . S
C555 H520 0.929 . S
C555 C550 1.371 . S
C555 C554 1.382 . S
C556 N524 1.423 . S
C556 C557 1.362 . S
C556 C561 1.388 . S
C557 H521 0.929 . S
C557 C556 1.362 . S
C557 C558 1.376 . S
C558 H522 0.931 . S
C558 C557 1.376 . S
C558 C559 1.396 . S
C559 C541 1.472 . S
C559 C558 1.396 . S
C559 C560 1.348 . S
C560 H523 0.929 . S
C560 C559 1.348 . S
C560 C561 1.443 . S
C561 H525 0.932 . S
C561 C556 1.388 . S
C561 C560 1.443 . S
H562 C589 0.929 . S
N563 C588 1.433 . S
N563 C594 1.435 . S
N563 C600 1.423 . S
H564 C590 0.930 . S
H565 C593 0.931 . S
H566 C592 0.929 . S
H567 C595 0.930 . S
H568 C596 0.932 . S
H569 C599 0.929 . S
H570 C598 0.931 . S
H571 C601 0.929 . S
H572 C605 0.932 . S
H573 C602 0.931 . S
H574 C604 0.929 . S
H575 C607 0.929 . S
H576 C608 0.930 . S
H577 C610 0.929 . S
H578 C611 0.931 . S
H579 C613 0.930 . S
H580 C614 0.932 . S
H581 C616 0.931 . S
H582 C617 0.929 . S
H583 C619 0.929 . S
H584 C620 0.931 . S
H585 C622 0.929 . S
N586 C606 1.433 . S
N586 C612 1.435 . S
N586 C618 1.423 . S
H587 C623 0.932 . S
C588 N563 1.433 . S
C588 C589 1.363 . S
C588 C593 1.370 . S
C589 H562 0.929 . S
C589 C588 1.363 . S
C589 C590 1.385 . S
C590 H564 0.930 . S
C590 C589 1.385 . S
C590 C591 1.357 . S
C591 C590 1.357 . S
C591 C592 1.406 . S
C592 H566 0.929 . S
C592 C591 1.406 . S
C592 C593 1.391 . S
C593 H565 0.931 . S
C593 C588 1.370 . S
C593 C592 1.391 . S
C594 N563 1.435 . S
C594 C595 1.358 . S
C594 C599 1.371 . S
C595 H567 0.930 . S
C595 C594 1.358 . S
C595 C596 1.405 . S
C596 H568 0.932 . S
C596 C595 1.405 . S
C596 C597 1.383 . S
C597 C596 1.383 . S
C597 C598 1.393 . S
C598 H570 0.931 . S
C598 C597 1.393 . S
C598 C599 1.382 . S
C599 H569 0.929 . S
C599 C594 1.371 . S
C599 C598 1.382 . S
C600 N563 1.423 . S
C600 C601 1.362 . S
C600 C605 1.388 . S
C601 H571 0.929 . S
C601 C600 1.362 . S
C601 C602 1.376 . S
C602 H573 0.931 . S
C602 C601 1.376 . S
C602 C603 1.396 . S
C603 C602 1.396 . S
C603 C604 1.348 . S
C603 C621 1.472 . S
C604 H574 0.929 . S
C604 C603 1.348 . S
C604 C605 1.443 . S
C605 H572 0.932 . S
C605 C600 1.388 . S
C605 C604 1.443 . S
C606 N586 1.433 . S
C606 C607 1.363 . S
C606 C611 1.370 . S
C607 H575 0.929 . S
C607 C606 1.363 . S
C607 C608 1.385 . S
C608 H576 0.930 . S
C608 C607 1.385 . S
C608 C609 1.357 . S
C609 C608 1.357 . S
C609 C610 1.406 . S
C610 H577 0.929 . S
C610 C609 1.406 . S
C610 C611 1.391 . S
C611 H578 0.931 . S
C611 C606 1.370 . S
C611 C610 1.391 . S
C612 N586 1.435 . S
C612 C613 1.358 . S
C612 C617 1.371 . S
C613 H579 0.930 . S
C613 C612 1.358 . S
C613 C614 1.405 . S
C614 H580 0.932 . S
C614 C613 1.405 . S
C614 C615 1.383 . S
C615 C614 1.383 . S
C615 C616 1.393 . S
C616 H581 0.931 . S
C616 C615 1.393 . S
C616 C617 1.382 . S
C617 H582 0.929 . S
C617 C612 1.371 . S
C617 C616 1.382 . S
C618 N586 1.423 . S
C618 C619 1.362 . S
C618 C623 1.388 . S
C619 H583 0.929 . S
C619 C618 1.362 . S
C619 C620 1.376 . S
C620 H584 0.931 . S
C620 C619 1.376 . S
C620 C621 1.396 . S
C621 C603 1.472 . S
C621 C620 1.396 . S
C621 C622 1.348 . S
C622 H585 0.929 . S
C622 C621 1.348 . S
C622 C623 1.443 . S
C623 H587 0.932 . S
C623 C618 1.388 . S
C623 C622 1.443 . S
H624 C651 0.929 . S
N625 C650 1.433 . S
N625 C656 1.435 . S
N625 C662 1.423 . S
H626 C652 0.930 . S
H627 C655 0.931 . S
H628 C654 0.929 . S
H629 C657 0.930 . S
H630 C658 0.932 . S
H631 C661 0.929 . S
H632 C660 0.931 . S
H633 C663 0.929 . S
H634 C667 0.932 . S
H635 C664 0.931 . S
H636 C666 0.929 . S
H637 C669 0.929 . S
H638 C670 0.930 . S
H639 C672 0.929 . S
H640 C673 0.931 . S
H641 C675 0.930 . S
H642 C676 0.932 . S
H643 C678 0.931 . S
H644 C679 0.929 . S
H645 C681 0.929 . S
H646 C682 0.931 . S
H647 C684 0.929 . S
N648 C668 1.433 . S
N648 C674 1.435 . S
N648 C680 1.423 . S
H649 C685 0.932 . S
C650 N625 1.433 . S
C650 C651 1.363 . S
C650 C655 1.370 . S
C651 H624 0.929 . S
C651 C650 1.363 . S
C651 C652 1.385 . S
C652 H626 0.930 . S
C652 C651 1.385 . S
C652 C653 1.357 . S
C653 C652 1.357 . S
C653 C654 1.406 . S
C654 H628 0.929 . S
C654 C653 1.406 . S
C654 C655 1.391 . S
C655 H627 0.931 . S
C655 C650 1.370 . S
C655 C654 1.391 . S
C656 N625 1.435 . S
C656 C657 1.358 . S
C656 C661 1.371 . S
C657 H629 0.930 . S
C657 C656 1.358 . S
C657 C658 1.405 . S
C658 H630 0.932 . S
C658 C657 1.405 . S
C658 C659 1.383 . S
C659 C658 1.383 . S
C659 C660 1.393 . S
C660 H632 0.931 . S
C660 C659 1.393 . S
C660 C661 1.382 . S
C661 H631 0.929 . S
C661 C656 1.371 . S
C661 C660 1.382 . S
C662 N625 1.423 . S
C662 C663 1.362 . S
C662 C667 1.388 . S
C663 H633 0.929 . S
C663 C662 1.362 . S
C663 C664 1.376 . S
C664 H635 0.931 . S
C664 C663 1.376 . S
C664 C665 1.396 . S
C665 C664 1.396 . S
C665 C666 1.348 . S
C665 C683 1.472 . S
C666 H636 0.929 . S
C666 C665 1.348 . S
C666 C667 1.443 . S
C667 H634 0.932 . S
C667 C662 1.388 . S
C667 C666 1.443 . S
C668 N648 1.433 . S
C668 C669 1.363 . S
C668 C673 1.370 . S
C669 H637 0.929 . S
C669 C668 1.363 . S
C669 C670 1.385 . S
C670 H638 0.930 . S
C670 C669 1.385 . S
C670 C671 1.357 . S
C671 C670 1.357 . S
C671 C672 1.406 . S
C672 H639 0.929 . S
C672 C671 1.406 . S
C672 C673 1.391 . S
C673 H640 0.931 . S
C673 C668 1.370 . S
C673 C672 1.391 . S
C674 N648 1.435 . S
C674 C675 1.358 . S
C674 C679 1.371 . S
C675 H641 0.930 . S
C675 C674 1.358 . S
C675 C676 1.405 . S
C676 H642 0.932 . S
C676 C675 1.405 . S
C676 C677 1.383 . S
C677 C676 1.383 . S
C677 C678 1.393 . S
C678 H643 0.931 . S
C678 C677 1.393 . S
C678 C679 1.382 . S
C679 H644 0.929 . S
C679 C674 1.371 . S
C679 C678 1.382 . S
C680 N648 1.423 . S
C680 C681 1.362 . S
C680 C685 1.388 . S
C681 H645 0.929 . S
C681 C680 1.362 . S
C681 C682 1.376 . S
C682 H646 0.931 . S
C682 C681 1.376 . S
C682 C683 1.396 . S
C683 C665 1.472 . S
C683 C682 1.396 . S
C683 C684 1.348 . S
C684 H647 0.929 . S
C684 C683 1.348 . S
C684 C685 1.443 . S
C685 H649 0.932 . S
C685 C680 1.388 . S
C685 C684 1.443 . S
H686 C713 0.929 . S
N687 C712 1.433 . S
N687 C718 1.435 . S
N687 C724 1.423 . S
H688 C714 0.930 . S
H689 C717 0.931 . S
H690 C716 0.929 . S
H691 C719 0.930 . S
H692 C720 0.932 . S
H693 C723 0.929 . S
H694 C722 0.931 . S
H695 C725 0.929 . S
H696 C729 0.932 . S
H697 C726 0.931 . S
H698 C728 0.929 . S
H699 C731 0.929 . S
H700 C732 0.930 . S
H701 C734 0.929 . S
H702 C735 0.931 . S
H703 C737 0.930 . S
H704 C738 0.932 . S
H705 C740 0.931 . S
H706 C741 0.929 . S
H707 C743 0.929 . S
H708 C744 0.931 . S
H709 C746 0.929 . S
N710 C730 1.433 . S
N710 C736 1.435 . S
N710 C742 1.423 . S
H711 C747 0.932 . S
C712 N687 1.433 . S
C712 C713 1.363 . S
C712 C717 1.370 . S
C713 H686 0.929 . S
C713 C712 1.363 . S
C713 C714 1.385 . S
C714 H688 0.930 . S
C714 C713 1.385 . S
C714 C715 1.357 . S
C715 C714 1.357 . S
C715 C716 1.406 . S
C716 H690 0.929 . S
C716 C715 1.406 . S
C716 C717 1.391 . S
C717 H689 0.931 . S
C717 C712 1.370 . S
C717 C716 1.391 . S
C718 N687 1.435 . S
C718 C719 1.358 . S
C718 C723 1.371 . S
C719 H691 0.930 . S
C719 C718 1.358 . S
C719 C720 1.405 . S
C720 H692 0.932 . S
C720 C719 1.405 . S
C720 C721 1.383 . S
C721 C720 1.383 . S
C721 C722 1.393 . S
C722 H694 0.931 . S
C722 C721 1.393 . S
C722 C723 1.382 . S
C723 H693 0.929 . S
C723 C718 1.371 . S
C723 C722 1.382 . S
C724 N687 1.423 . S
C724 C725 1.362 . S
C724 C729 1.388 . S
C725 H695 0.929 . S
C725 C724 1.362 . S
C725 C726 1.376 . S
C726 H697 0.931 . S
C726 C725 1.376 . S
C726 C727 1.396 . S
C727 C726 1.396 . S
C727 C728 1.348 . S
C727 C745 1.472 . S
C728 H698 0.929 . S
C728 C727 1.348 . S
C728 C729 1.443 . S
C729 H696 0.932 . S
C729 C724 1.388 . S
C729 C728 1.443 . S
C730 N710 1.433 . S
C730 C731 1.363 . S
C730 C735 1.370 . S
C731 H699 0.929 . S
C731 C730 1.363 . S
C731 C732 1.385 . S
C732 H700 0.930 . S
C732 C731 1.385 . S
C732 C733 1.357 . S
C733 C732 1.357 . S
C733 C734 1.406 . S
C734 H701 0.929 . S
C734 C733 1.406 . S
C734 C735 1.391 . S
C735 H702 0.931 . S
C735 C730 1.370 . S
C735 C734 1.391 . S
C736 N710 1.435 . S
C736 C737 1.358 . S
C736 C741 1.371 . S
C737 H703 0.930 . S
C737 C736 1.358 . S
C737 C738 1.405 . S
C738 H704 0.932 . S
C738 C737 1.405 . S
C738 C739 1.383 . S
C739 C738 1.383 . S
C739 C740 1.393 . S
C740 H705 0.931 . S
C740 C739 1.393 . S
C740 C741 1.382 . S
C741 H706 0.929 . S
C741 C736 1.371 . S
C741 C740 1.382 . S
C742 N710 1.423 . S
C742 C743 1.362 . S
C742 C747 1.388 . S
C743 H707 0.929 . S
C743 C742 1.362 . S
C743 C744 1.376 . S
C744 H708 0.931 . S
C744 C743 1.376 . S
C744 C745 1.396 . S
C745 C727 1.472 . S
C745 C744 1.396 . S
C745 C746 1.348 . S
C746 H709 0.929 . S
C746 C745 1.348 . S
C746 C747 1.443 . S
C747 H711 0.932 . S
C747 C742 1.388 . S
C747 C746 1.443 . S
H748 C775 0.929 . S
N749 C774 1.433 . S
N749 C780 1.435 . S
N749 C786 1.423 . S
H750 C776 0.930 . S
H751 C779 0.931 . S
H752 C778 0.929 . S
H753 C781 0.930 . S
H754 C782 0.932 . S
H755 C785 0.929 . S
H756 C784 0.931 . S
H757 C787 0.929 . S
H758 C791 0.932 . S
H759 C788 0.931 . S
H760 C790 0.929 . S
H761 C793 0.929 . S
H762 C794 0.930 . S
H763 C796 0.929 . S
H764 C797 0.931 . S
H765 C799 0.930 . S
H766 C800 0.932 . S
H767 C802 0.931 . S
H768 C803 0.929 . S
H769 C805 0.929 . S
H770 C806 0.931 . S
H771 C808 0.929 . S
N772 C792 1.433 . S
N772 C798 1.435 . S
N772 C804 1.423 . S
H773 C809 0.932 . S
C774 N749 1.433 . S
C774 C775 1.363 . S
C774 C779 1.370 . S
C775 H748 0.929 . S
C775 C774 1.363 . S
C775 C776 1.385 . S
C776 H750 0.930 . S
C776 C775 1.385 . S
C776 C777 1.357 . S
C777 C776 1.357 . S
C777 C778 1.406 . S
C778 H752 0.929 . S
C778 C777 1.406 . S
C778 C779 1.391 . S
C779 H751 0.931 . S
C779 C774 1.370 . S
C779 C778 1.391 . S
C780 N749 1.435 . S
C780 C781 1.358 . S
C780 C785 1.371 . S
C781 H753 0.930 . S
C781 C780 1.358 . S
C781 C782 1.405 . S
C782 H754 0.932 . S
C782 C781 1.405 . S
C782 C783 1.383 . S
C783 C782 1.383 . S
C783 C784 1.393 . S
C784 H756 0.931 . S
C784 C783 1.393 . S
C784 C785 1.382 . S
C785 H755 0.929 . S
C785 C780 1.371 . S
C785 C784 1.382 . S
C786 N749 1.423 . S
C786 C787 1.362 . S
C786 C791 1.388 . S
C787 H757 0.929 . S
C787 C786 1.362 . S
C787 C788 1.376 . S
C788 H759 0.931 . S
C788 C787 1.376 . S
C788 C789 1.396 . S
C789 C788 1.396 . S
C789 C790 1.348 . S
C789 C807 1.472 . S
C790 H760 0.929 . S
C790 C789 1.348 . S
C790 C791 1.443 . S
C791 H758 0.932 . S
C791 C786 1.388 . S
C791 C790 1.443 . S
C792 N772 1.433 . S
C792 C793 1.363 . S
C792 C797 1.370 . S
C793 H761 0.929 . S
C793 C792 1.363 . S
C793 C794 1.385 . S
C794 H762 0.930 . S
C794 C793 1.385 . S
C794 C795 1.357 . S
C795 C794 1.357 . S
C795 C796 1.406 . S
C796 H763 0.929 . S
C796 C795 1.406 . S
C796 C797 1.391 . S
C797 H764 0.931 . S
C797 C792 1.370 . S
C797 C796 1.391 . S
C798 N772 1.435 . S
C798 C799 1.358 . S
C798 C803 1.371 . S
C799 H765 0.930 . S
C799 C798 1.358 . S
C799 C800 1.405 . S
C800 H766 0.932 . S
C800 C799 1.405 . S
C800 C801 1.383 . S
C801 C800 1.383 . S
C801 C802 1.393 . S
C802 H767 0.931 . S
C802 C801 1.393 . S
C802 C803 1.382 . S
C803 H768 0.929 . S
C803 C798 1.371 . S
C803 C802 1.382 . S
C804 N772 1.423 . S
C804 C805 1.362 . S
C804 C809 1.388 . S
C805 H769 0.929 . S
C805 C804 1.362 . S
C805 C806 1.376 . S
C806 H770 0.931 . S
C806 C805 1.376 . S
C806 C807 1.396 . S
C807 C789 1.472 . S
C807 C806 1.396 . S
C807 C808 1.348 . S
C808 H771 0.929 . S
C808 C807 1.348 . S
C808 C809 1.443 . S
C809 H773 0.932 . S
C809 C804 1.388 . S
C809 C808 1.443 . S
H810 C837 0.929 . S
N811 C836 1.433 . S
N811 C842 1.435 . S
N811 C848 1.423 . S
H812 C838 0.930 . S
H813 C841 0.931 . S
H814 C840 0.929 . S
H815 C843 0.930 . S
H816 C844 0.932 . S
H817 C847 0.929 . S
H818 C846 0.931 . S
H819 C849 0.929 . S
H820 C853 0.932 1_655 S
H821 C850 0.931 . S
H822 C852 0.936 . S
H823 C855 0.929 . S
H824 C856 0.930 . S
H825 C858 0.929 . S
H826 C859 0.931 . S
H827 C861 0.930 . S
H828 C862 0.932 . S
H829 C864 0.931 . S
H830 C865 0.929 . S
H831 C867 0.929 . S
H832 C868 0.931 . S
H833 C870 0.971 . S
N834 C854 1.433 . S
N834 C860 1.435 . S
N834 C866 1.423 . S
H835 C871 0.932 1_655 S
C836 N811 1.433 . S
C836 C837 1.363 . S
C836 C841 1.370 1_455 S
C837 H810 0.929 . S
C837 C836 1.363 . S
C837 C838 1.385 . S
C838 H812 0.930 . S
C838 C837 1.385 . S
C838 C839 1.357 1_455 S
C839 C838 1.357 1_655 S
C839 C840 1.406 . S
C840 H814 0.929 . S
C840 C839 1.406 . S
C840 C841 1.391 . S
C841 H813 0.931 . S
C841 C836 1.370 1_655 S
C841 C840 1.391 . S
C842 N811 1.435 . S
C842 C843 1.358 1_455 S
C842 C847 1.371 . S
C843 H815 0.930 . S
C843 C842 1.358 1_655 S
C843 C844 1.405 . S
C844 H816 0.932 . S
C844 C843 1.405 . S
C844 C845 1.383 1_655 S
C845 C844 1.383 1_455 S
C845 C846 1.393 . S
C846 H818 0.931 . S
C846 C845 1.393 . S
C846 C847 1.382 . S
C847 H817 0.929 . S
C847 C842 1.371 . S
C847 C846 1.382 . S
C848 N811 1.423 . S
C848 C849 1.362 . S
C848 C853 1.388 . S
C849 H819 0.929 . S
C849 C848 1.362 . S
C849 C850 1.376 . S
C850 H821 0.931 . S
C850 C849 1.376 . S
C850 C851 1.396 . S
C851 C850 1.396 . S
C851 C852 1.348 . S
C851 C869 1.472 . S
C852 H822 0.936 . S
C852 C851 1.348 . S
C852 C853 1.443 . S
C853 H820 0.932 1_455 S
C853 C848 1.388 . S
C853 C852 1.443 . S
C854 N834 1.433 . S
C854 C855 1.363 . S
C854 C859 1.370 1_455 S
C855 H823 0.929 . S
C855 C854 1.363 . S
C855 C856 1.385 . S
C856 H824 0.930 . S
C856 C855 1.385 . S
C856 C857 1.357 1_455 S
C857 C856 1.357 1_655 S
C857 C858 1.406 . S
C858 H825 0.929 . S
C858 C857 1.406 . S
C858 C859 1.391 . S
C859 H826 0.931 . S
C859 C854 1.370 1_655 S
C859 C858 1.391 . S
C860 N834 1.435 . S
C860 C861 1.358 1_455 S
C860 C865 1.371 . S
C861 H827 0.930 . S
C861 C860 1.358 1_655 S
C861 C862 1.405 . S
C862 H828 0.932 . S
C862 C861 1.405 . S
C862 C863 1.383 1_655 S
C863 C862 1.383 1_455 S
C863 C864 1.393 . S
C864 H829 0.931 . S
C864 C863 1.393 . S
C864 C865 1.382 . S
C865 H830 0.929 . S
C865 C860 1.371 . S
C865 C864 1.382 . S
C866 N834 1.423 . S
C866 C867 1.362 . S
C866 C871 1.388 . S
C867 H831 0.929 . S
C867 C866 1.362 . S
C867 C868 1.376 . S
C868 H832 0.931 . S
C868 C867 1.376 . S
C868 C869 1.396 . S
C869 C851 1.472 . S
C869 C868 1.396 . S
C869 C870 1.348 . S
C870 H833 0.971 . S
C870 C869 1.348 . S
C870 C871 1.443 . S
C871 H835 0.932 1_455 S
C871 C866 1.388 . S
C871 C870 1.443 . S
H872 C899 0.929 . S
N873 C898 1.433 . S
N873 C904 1.435 . S
N873 C910 1.423 . S
H874 C900 0.930 . S
H875 C903 0.931 . S
H876 C902 0.929 . S
H877 C905 0.930 . S
H878 C906 0.932 . S
H879 C909 0.929 . S
H880 C908 0.931 . S
H881 C911 0.929 . S
H882 C915 0.932 . S
H883 C912 0.931 . S
H884 C914 0.929 . S
H885 C917 0.929 . S
H886 C918 0.930 . S
H887 C920 0.929 . S
H888 C921 0.931 . S
H889 C923 0.930 . S
H890 C924 0.932 . S
H891 C926 0.931 . S
H892 C927 0.929 . S
H893 C929 0.929 . S
H894 C930 0.931 . S
H895 C932 0.929 . S
N896 C916 1.433 . S
N896 C922 1.435 . S
N896 C928 1.423 . S
H897 C933 0.932 . S
C898 N873 1.433 . S
C898 C899 1.363 . S
C898 C903 1.370 . S
C899 H872 0.929 . S
C899 C898 1.363 . S
C899 C900 1.385 . S
C900 H874 0.930 . S
C900 C899 1.385 . S
C900 C901 1.357 . S
C901 C900 1.357 . S
C901 C902 1.406 . S
C902 H876 0.929 . S
C902 C901 1.406 . S
C902 C903 1.391 . S
C903 H875 0.931 . S
C903 C898 1.370 . S
C903 C902 1.391 . S
C904 N873 1.435 . S
C904 C905 1.358 . S
C904 C909 1.371 . S
C905 H877 0.930 . S
C905 C904 1.358 . S
C905 C906 1.405 . S
C906 H878 0.932 . S
C906 C905 1.405 . S
C906 C907 1.383 . S
C907 C906 1.383 . S
C907 C908 1.393 . S
C908 H880 0.931 . S
C908 C907 1.393 . S
C908 C909 1.382 . S
C909 H879 0.929 . S
C909 C904 1.371 . S
C909 C908 1.382 . S
C910 N873 1.423 . S
C910 C911 1.362 . S
C910 C915 1.388 . S
C911 H881 0.929 . S
C911 C910 1.362 . S
C911 C912 1.376 . S
C912 H883 0.931 . S
C912 C911 1.376 . S
C912 C913 1.396 . S
C913 C912 1.396 . S
C913 C914 1.348 . S
C913 C931 1.472 . S
C914 H884 0.929 . S
C914 C913 1.348 . S
C914 C915 1.443 . S
C915 H882 0.932 . S
C915 C910 1.388 . S
C915 C914 1.443 . S
C916 N896 1.433 . S
C916 C917 1.363 . S
C916 C921 1.370 . S
C917 H885 0.929 . S
C917 C916 1.363 . S
C917 C918 1.385 . S
C918 H886 0.930 . S
C918 C917 1.385 . S
C918 C919 1.357 . S
C919 C918 1.357 . S
C919 C920 1.406 . S
C920 H887 0.929 . S
C920 C919 1.406 . S
C920 C921 1.391 . S
C921 H888 0.931 . S
C921 C916 1.370 . S
C921 C920 1.391 . S
C922 N896 1.435 . S
C922 C923 1.358 . S
C922 C927 1.371 . S
C923 H889 0.930 . S
C923 C922 1.358 . S
C923 C924 1.405 . S
C924 H890 0.932 . S
C924 C923 1.405 . S
C924 C925 1.383 . S
C925 C924 1.383 . S
C925 C926 1.393 . S
C926 H891 0.931 . S
C926 C925 1.393 . S
C926 C927 1.382 . S
C927 H892 0.929 . S
C927 C922 1.371 . S
C927 C926 1.382 . S
C928 N896 1.423 . S
C928 C929 1.362 . S
C928 C933 1.388 . S
C929 H893 0.929 . S
C929 C928 1.362 . S
C929 C930 1.376 . S
C930 H894 0.931 . S
C930 C929 1.376 . S
C930 C931 1.396 . S
C931 C913 1.472 . S
C931 C930 1.396 . S
C931 C932 1.348 . S
C932 H895 0.929 . S
C932 C931 1.348 . S
C932 C933 1.443 . S
C933 H897 0.932 . S
C933 C928 1.388 . S
C933 C932 1.443 . S
H934 C961 0.929 . S
N935 C960 1.433 . S
N935 C966 1.435 . S
N935 C972 1.423 . S
H936 C962 0.930 . S
H937 C965 0.931 . S
H938 C964 0.929 . S
H939 C967 0.930 . S
H940 C968 0.932 . S
H941 C971 0.929 . S
H942 C970 0.931 . S
H943 C973 0.929 . S
H944 C977 0.932 1_545 S
H945 C974 0.931 . S
H946 C976 0.975 . S
H947 C979 0.929 . S
H948 C980 0.930 . S
H949 C982 0.929 . S
H950 C983 0.931 . S
H951 C985 0.930 . S
H952 C986 0.932 . S
H953 C988 0.931 . S
H954 C989 0.929 . S
H955 C991 0.929 . S
H956 C992 0.931 . S
H957 C994 0.936 . S
N958 C978 1.433 . S
N958 C984 1.435 . S
N958 C990 1.423 . S
H959 C995 0.932 1_545 S
C960 N935 1.433 . S
C960 C961 1.363 . S
C960 C965 1.370 1_565 S
C961 H934 0.929 . S
C961 C960 1.363 . S
C961 C962 1.385 . S
C962 H936 0.930 . S
C962 C961 1.385 . S
C962 C963 1.357 1_565 S
C963 C962 1.357 1_545 S
C963 C964 1.406 . S
C964 H938 0.929 . S
C964 C963 1.406 . S
C964 C965 1.391 . S
C965 H937 0.931 . S
C965 C960 1.370 1_545 S
C965 C964 1.391 . S
C966 N935 1.435 . S
C966 C967 1.358 1_565 S
C966 C971 1.371 . S
C967 H939 0.930 . S
C967 C966 1.358 1_545 S
C967 C968 1.405 . S
C968 H940 0.932 . S
C968 C967 1.405 . S
C968 C969 1.383 1_545 S
C969 C968 1.383 1_565 S
C969 C970 1.393 . S
C970 H942 0.931 . S
C970 C969 1.393 . S
C970 C971 1.382 . S
C971 H941 0.929 . S
C971 C966 1.371 . S
C971 C970 1.382 . S
C972 N935 1.423 . S
C972 C973 1.362 . S
C972 C977 1.388 . S
C973 H943 0.929 . S
C973 C972 1.362 . S
C973 C974 1.376 . S
C974 H945 0.931 . S
C974 C973 1.376 . S
C974 C975 1.396 . S
C975 C974 1.396 . S
C975 C976 1.348 . S
C975 C993 1.472 . S
C976 H946 0.975 . S
C976 C975 1.348 . S
C976 C977 1.443 . S
C977 H944 0.932 1_565 S
C977 C972 1.388 . S
C977 C976 1.443 . S
C978 N958 1.433 . S
C978 C979 1.363 . S
C978 C983 1.370 1_565 S
C979 H947 0.929 . S
C979 C978 1.363 . S
C979 C980 1.385 . S
C980 H948 0.930 . S
C980 C979 1.385 . S
C980 C981 1.357 1_565 S
C981 C980 1.357 1_545 S
C981 C982 1.406 . S
C982 H949 0.929 . S
C982 C981 1.406 . S
C982 C983 1.391 . S
C983 H950 0.931 . S
C983 C978 1.370 1_545 S
C983 C982 1.391 . S
C984 N958 1.435 . S
C984 C985 1.358 1_565 S
C984 C989 1.371 . S
C985 H951 0.930 . S
C985 C984 1.358 1_545 S
C985 C986 1.405 . S
C986 H952 0.932 . S
C986 C985 1.405 . S
C986 C987 1.383 1_545 S
C987 C986 1.383 1_565 S
C987 C988 1.393 . S
C988 H953 0.931 . S
C988 C987 1.393 . S
C988 C989 1.382 . S
C989 H954 0.929 . S
C989 C984 1.371 . S
C989 C988 1.382 . S
C990 N958 1.423 . S
C990 C991 1.362 . S
C990 C995 1.388 . S
C991 H955 0.929 . S
C991 C990 1.362 . S
C991 C992 1.376 . S
C992 H956 0.931 . S
C992 C991 1.376 . S
C992 C993 1.396 . S
C993 C975 1.472 . S
C993 C992 1.396 . S
C993 C994 1.348 . S
C994 H957 0.936 . S
C994 C993 1.348 . S
C994 C995 1.443 . S
C995 H959 0.932 1_565 S
C995 C990 1.388 . S
C995 C994 1.443 . S
H996 C1023 0.929 . S
N997 C1022 1.433 . S
N997 C1028 1.435 . S
N997 C1034 1.423 . S
H998 C1024 0.930 . S
H999 C1027 0.931 . S
H1000 C1026 0.929 . S
H1001 C1029 0.930 . S
H1002 C1030 0.932 . S
H1003 C1033 0.929 . S
H1004 C1032 0.931 . S
H1005 C1035 0.929 . S
H1006 C1039 1.008 . S
H1007 C1036 0.931 . S
H1008 C1038 0.918 1_545 S
H1009 C1041 0.929 . S
H1010 C1042 0.930 . S
H1011 C1044 0.929 . S
H1012 C1045 0.997 . S
H1013 C1047 0.930 . S
H1014 C1048 0.932 . S
H1015 C1050 0.931 . S
H1016 C1051 0.929 . S
H1017 C1053 0.929 . S
H1018 C1054 0.931 . S
H1019 C1056 0.874 1_545 S
N1020 C1040 1.433 . S
N1020 C1046 1.435 . S
N1020 C1052 1.423 . S
H1021 C1057 0.953 . S
C1022 N997 1.433 . S
C1022 C1023 1.363 . S
C1022 C1027 1.370 1_565 S
C1023 H996 0.929 . S
C1023 C1022 1.363 . S
C1023 C1024 1.385 . S
C1024 H998 0.930 . S
C1024 C1023 1.385 . S
C1024 C1025 1.357 . S
C1025 C1024 1.357 . S
C1025 C1026 1.406 1_565 S
C1026 H1000 0.929 . S
C1026 C1025 1.406 1_545 S
C1026 C1027 1.391 . S
C1027 H999 0.931 . S
C1027 C1022 1.370 1_545 S
C1027 C1026 1.391 . S
C1028 N997 1.435 . S
C1028 C1029 1.358 1_565 S
C1028 C1033 1.371 . S
C1029 H1001 0.930 . S
C1029 C1028 1.358 1_545 S
C1029 C1030 1.405 . S
C1030 H1002 0.932 . S
C1030 C1029 1.405 . S
C1030 C1031 1.383 . S
C1031 C1030 1.383 . S
C1031 C1032 1.393 1_545 S
C1032 H1004 0.931 . S
C1032 C1031 1.393 1_565 S
C1032 C1033 1.382 . S
C1033 H1003 0.929 . S
C1033 C1028 1.371 . S
C1033 C1032 1.382 . S
C1034 N997 1.423 . S
C1034 C1035 1.362 . S
C1034 C1039 1.368 1_565 S
C1035 H1005 0.929 . S
C1035 C1034 1.362 . S
C1035 C1036 1.376 . S
C1036 H1007 0.931 . S
C1036 C1035 1.376 . S
C1036 C1037 1.396 . S
C1037 C1036 1.396 . S
C1037 C1038 1.400 . S
C1037 C1055 1.472 . S
C1038 H1008 0.918 1_565 S
C1038 C1037 1.400 . S
C1038 C1039 1.357 1_565 S
C1039 H1006 1.008 . S
C1039 C1034 1.368 1_545 S
C1039 C1038 1.357 1_545 S
C1040 N1020 1.433 . S
C1040 C1041 1.363 . S
C1040 C1045 1.318 1_565 S
C1041 H1009 0.929 . S
C1041 C1040 1.363 . S
C1041 C1042 1.385 . S
C1042 H1010 0.930 . S
C1042 C1041 1.385 . S
C1042 C1043 1.357 . S
C1043 C1042 1.357 . S
C1043 C1044 1.406 1_565 S
C1044 H1011 0.929 . S
C1044 C1043 1.406 1_545 S
C1044 C1045 1.381 . S
C1045 H1012 0.997 . S
C1045 C1040 1.318 1_545 S
C1045 C1044 1.381 . S
C1046 N1020 1.435 . S
C1046 C1047 1.358 1_565 S
C1046 C1051 1.371 . S
C1047 H1013 0.930 . S
C1047 C1046 1.358 1_545 S
C1047 C1048 1.405 . S
C1048 H1014 0.932 . S
C1048 C1047 1.405 . S
C1048 C1049 1.383 . S
C1049 C1048 1.383 . S
C1049 C1050 1.393 1_545 S
C1050 H1015 0.931 . S
C1050 C1049 1.393 1_565 S
C1050 C1051 1.382 . S
C1051 H1016 0.929 . S
C1051 C1046 1.371 . S
C1051 C1050 1.382 . S
C1052 N1020 1.423 . S
C1052 C1053 1.362 . S
C1052 C1057 1.344 1_565 S
C1053 H1017 0.929 . S
C1053 C1052 1.362 . S
C1053 C1054 1.376 . S
C1054 H1018 0.931 . S
C1054 C1053 1.376 . S
C1054 C1055 1.396 . S
C1055 C1037 1.472 . S
C1055 C1054 1.396 . S
C1055 C1056 1.371 . S
C1056 H1019 0.874 1_565 S
C1056 C1055 1.371 . S
C1056 C1057 1.506 1_565 S
C1057 H1021 0.953 . S
C1057 C1052 1.344 1_545 S
C1057 C1056 1.506 1_545 S
H1058 C1085 0.929 . S
N1059 C1084 1.433 . S
N1059 C1090 1.435 . S
N1059 C1096 1.423 . S
H1060 C1086 0.930 . S
H1061 C1089 0.931 . S
H1062 C1088 0.929 . S
H1063 C1091 0.930 . S
H1064 C1092 0.932 . S
H1065 C1095 0.929 . S
H1066 C1094 0.931 . S
H1067 C1097 0.929 . S
H1068 C1101 0.932 1_455 S
H1069 C1098 0.931 . S
H1070 C1100 0.971 . S
H1071 C1103 0.929 . S
H1072 C1104 0.930 . S
H1073 C1106 0.929 . S
H1074 C1107 0.931 . S
H1075 C1109 0.930 . S
H1076 C1110 0.932 . S
H1077 C1112 0.931 . S
H1078 C1113 0.929 . S
H1079 C1115 0.929 . S
H1080 C1116 0.931 . S
H1081 C1118 0.937 . S
N1082 C1102 1.433 . S
N1082 C1108 1.435 . S
N1082 C1114 1.423 . S
H1083 C1119 0.932 1_455 S
C1084 N1059 1.433 . S
C1084 C1085 1.363 . S
C1084 C1089 1.370 1_655 S
C1085 H1058 0.929 . S
C1085 C1084 1.363 . S
C1085 C1086 1.385 . S
C1086 H1060 0.930 . S
C1086 C1085 1.385 . S
C1086 C1087 1.357 1_655 S
C1087 C1086 1.357 1_455 S
C1087 C1088 1.406 . S
C1088 H1062 0.929 . S
C1088 C1087 1.406 . S
C1088 C1089 1.391 . S
C1089 H1061 0.931 . S
C1089 C1084 1.370 1_455 S
C1089 C1088 1.391 . S
C1090 N1059 1.435 . S
C1090 C1091 1.358 1_655 S
C1090 C1095 1.371 . S
C1091 H1063 0.930 . S
C1091 C1090 1.358 1_455 S
C1091 C1092 1.405 . S
C1092 H1064 0.932 . S
C1092 C1091 1.405 . S
C1092 C1093 1.383 1_455 S
C1093 C1092 1.383 1_655 S
C1093 C1094 1.393 . S
C1094 H1066 0.931 . S
C1094 C1093 1.393 . S
C1094 C1095 1.382 . S
C1095 H1065 0.929 . S
C1095 C1090 1.371 . S
C1095 C1094 1.382 . S
C1096 N1059 1.423 . S
C1096 C1097 1.362 . S
C1096 C1101 1.388 . S
C1097 H1067 0.929 . S
C1097 C1096 1.362 . S
C1097 C1098 1.376 . S
C1098 H1069 0.931 . S
C1098 C1097 1.376 . S
C1098 C1099 1.396 . S
C1099 C1098 1.396 . S
C1099 C1100 1.348 . S
C1099 C1117 1.472 . S
C1100 H1070 0.971 . S
C1100 C1099 1.348 . S
C1100 C1101 1.443 . S
C1101 H1068 0.932 1_655 S
C1101 C1096 1.388 . S
C1101 C1100 1.443 . S
C1102 N1082 1.433 . S
C1102 C1103 1.363 . S
C1102 C1107 1.370 1_655 S
C1103 H1071 0.929 . S
C1103 C1102 1.363 . S
C1103 C1104 1.385 . S
C1104 H1072 0.930 . S
C1104 C1103 1.385 . S
C1104 C1105 1.357 1_655 S
C1105 C1104 1.357 1_455 S
C1105 C1106 1.406 . S
C1106 H1073 0.929 . S
C1106 C1105 1.406 . S
C1106 C1107 1.391 . S
C1107 H1074 0.931 . S
C1107 C1102 1.370 1_455 S
C1107 C1106 1.391 . S
C1108 N1082 1.435 . S
C1108 C1109 1.358 1_655 S
C1108 C1113 1.371 . S
C1109 H1075 0.930 . S
C1109 C1108 1.358 1_455 S
C1109 C1110 1.405 . S
C1110 H1076 0.932 . S
C1110 C1109 1.405 . S
C1110 C1111 1.383 1_455 S
C1111 C1110 1.383 1_655 S
C1111 C1112 1.393 . S
C1112 H1077 0.931 . S
C1112 C1111 1.393 . S
C1112 C1113 1.382 . S
C1113 H1078 0.929 . S
C1113 C1108 1.371 . S
C1113 C1112 1.382 . S
C1114 N1082 1.423 . S
C1114 C1115 1.362 . S
C1114 C1119 1.388 . S
C1115 H1079 0.929 . S
C1115 C1114 1.362 . S
C1115 C1116 1.376 . S
C1116 H1080 0.931 . S
C1116 C1115 1.376 . S
C1116 C1117 1.396 . S
C1117 C1099 1.472 . S
C1117 C1116 1.396 . S
C1117 C1118 1.348 . S
C1118 H1081 0.937 . S
C1118 C1117 1.348 . S
C1118 C1119 1.443 . S
C1119 H1083 0.932 1_655 S
C1119 C1114 1.388 . S
C1119 C1118 1.443 . S
H1120 C1147 0.929 . S
N1121 C1146 1.433 . S
N1121 C1152 1.435 . S
N1121 C1158 1.423 . S
H1122 C1148 0.930 . S
H1123 C1151 0.931 . S
H1124 C1150 0.929 . S
H1125 C1153 0.930 . S
H1126 C1154 0.932 . S
H1127 C1157 0.929 . S
H1128 C1156 0.931 . S
H1129 C1159 0.929 . S
H1130 C1163 0.932 . S
H1131 C1160 0.931 . S
H1132 C1162 0.929 . S
H1133 C1165 0.929 . S
H1134 C1166 0.930 . S
H1135 C1168 0.929 . S
H1136 C1169 0.931 . S
H1137 C1171 0.930 . S
H1138 C1172 0.932 . S
H1139 C1174 0.931 . S
H1140 C1175 0.929 . S
H1141 C1177 0.929 . S
H1142 C1178 0.931 . S
H1143 C1180 0.929 . S
N1144 C1164 1.433 . S
N1144 C1170 1.435 . S
N1144 C1176 1.423 . S
H1145 C1181 0.932 . S
C1146 N1121 1.433 . S
C1146 C1147 1.363 . S
C1146 C1151 1.370 . S
C1147 H1120 0.929 . S
C1147 C1146 1.363 . S
C1147 C1148 1.385 . S
C1148 H1122 0.930 . S
C1148 C1147 1.385 . S
C1148 C1149 1.357 . S
C1149 C1148 1.357 . S
C1149 C1150 1.406 . S
C1150 H1124 0.929 . S
C1150 C1149 1.406 . S
C1150 C1151 1.391 . S
C1151 H1123 0.931 . S
C1151 C1146 1.370 . S
C1151 C1150 1.391 . S
C1152 N1121 1.435 . S
C1152 C1153 1.358 . S
C1152 C1157 1.371 . S
C1153 H1125 0.930 . S
C1153 C1152 1.358 . S
C1153 C1154 1.405 . S
C1154 H1126 0.932 . S
C1154 C1153 1.405 . S
C1154 C1155 1.383 . S
C1155 C1154 1.383 . S
C1155 C1156 1.393 . S
C1156 H1128 0.931 . S
C1156 C1155 1.393 . S
C1156 C1157 1.382 . S
C1157 H1127 0.929 . S
C1157 C1152 1.371 . S
C1157 C1156 1.382 . S
C1158 N1121 1.423 . S
C1158 C1159 1.362 . S
C1158 C1163 1.388 . S
C1159 H1129 0.929 . S
C1159 C1158 1.362 . S
C1159 C1160 1.376 . S
C1160 H1131 0.931 . S
C1160 C1159 1.376 . S
C1160 C1161 1.396 . S
C1161 C1160 1.396 . S
C1161 C1162 1.348 . S
C1161 C1179 1.472 . S
C1162 H1132 0.929 . S
C1162 C1161 1.348 . S
C1162 C1163 1.443 . S
C1163 H1130 0.932 . S
C1163 C1158 1.388 . S
C1163 C1162 1.443 . S
C1164 N1144 1.433 . S
C1164 C1165 1.363 . S
C1164 C1169 1.370 . S
C1165 H1133 0.929 . S
C1165 C1164 1.363 . S
C1165 C1166 1.385 . S
C1166 H1134 0.930 . S
C1166 C1165 1.385 . S
C1166 C1167 1.357 . S
C1167 C1166 1.357 . S
C1167 C1168 1.406 . S
C1168 H1135 0.929 . S
C1168 C1167 1.406 . S
C1168 C1169 1.391 . S
C1169 H1136 0.931 . S
C1169 C1164 1.370 . S
C1169 C1168 1.391 . S
C1170 N1144 1.435 . S
C1170 C1171 1.358 . S
C1170 C1175 1.371 . S
C1171 H1137 0.930 . S
C1171 C1170 1.358 . S
C1171 C1172 1.405 . S
C1172 H1138 0.932 . S
C1172 C1171 1.405 . S
C1172 C1173 1.383 . S
C1173 C1172 1.383 . S
C1173 C1174 1.393 . S
C1174 H1139 0.931 . S
C1174 C1173 1.393 . S
C1174 C1175 1.382 . S
C1175 H1140 0.929 . S
C1175 C1170 1.371 . S
C1175 C1174 1.382 . S
C1176 N1144 1.423 . S
C1176 C1177 1.362 . S
C1176 C1181 1.388 . S
C1177 H1141 0.929 . S
C1177 C1176 1.362 . S
C1177 C1178 1.376 . S
C1178 H1142 0.931 . S
C1178 C1177 1.376 . S
C1178 C1179 1.396 . S
C1179 C1161 1.472 . S
C1179 C1178 1.396 . S
C1179 C1180 1.348 . S
C1180 H1143 0.929 . S
C1180 C1179 1.348 . S
C1180 C1181 1.443 . S
C1181 H1145 0.932 . S
C1181 C1176 1.388 . S
C1181 C1180 1.443 . S
H1182 C1209 0.929 . S
N1183 C1208 1.433 . S
N1183 C1214 1.435 . S
N1183 C1220 1.423 . S
H1184 C1210 0.930 . S
H1185 C1213 0.931 . S
H1186 C1212 0.929 . S
H1187 C1215 0.930 . S
H1188 C1216 0.932 . S
H1189 C1219 0.929 . S
H1190 C1218 0.931 . S
H1191 C1221 0.929 . S
H1192 C1225 0.932 . S
H1193 C1222 0.931 . S
H1194 C1224 0.929 . S
H1195 C1227 0.929 . S
H1196 C1228 0.930 . S
H1197 C1230 0.929 . S
H1198 C1231 0.931 . S
H1199 C1233 0.930 . S
H1200 C1234 0.932 . S
H1201 C1236 0.931 . S
H1202 C1237 0.929 . S
H1203 C1239 0.929 . S
H1204 C1240 0.931 . S
H1205 C1242 0.929 . S
N1206 C1226 1.433 . S
N1206 C1232 1.435 . S
N1206 C1238 1.423 . S
H1207 C1243 0.932 . S
C1208 N1183 1.433 . S
C1208 C1209 1.363 . S
C1208 C1213 1.370 . S
C1209 H1182 0.929 . S
C1209 C1208 1.363 . S
C1209 C1210 1.385 . S
C1210 H1184 0.930 . S
C1210 C1209 1.385 . S
C1210 C1211 1.357 . S
C1211 C1210 1.357 . S
C1211 C1212 1.406 . S
C1212 H1186 0.929 . S
C1212 C1211 1.406 . S
C1212 C1213 1.391 . S
C1213 H1185 0.931 . S
C1213 C1208 1.370 . S
C1213 C1212 1.391 . S
C1214 N1183 1.435 . S
C1214 C1215 1.358 . S
C1214 C1219 1.371 . S
C1215 H1187 0.930 . S
C1215 C1214 1.358 . S
C1215 C1216 1.405 . S
C1216 H1188 0.932 . S
C1216 C1215 1.405 . S
C1216 C1217 1.383 . S
C1217 C1216 1.383 . S
C1217 C1218 1.393 . S
C1218 H1190 0.931 . S
C1218 C1217 1.393 . S
C1218 C1219 1.382 . S
C1219 H1189 0.929 . S
C1219 C1214 1.371 . S
C1219 C1218 1.382 . S
C1220 N1183 1.423 . S
C1220 C1221 1.362 . S
C1220 C1225 1.388 . S
C1221 H1191 0.929 . S
C1221 C1220 1.362 . S
C1221 C1222 1.376 . S
C1222 H1193 0.931 . S
C1222 C1221 1.376 . S
C1222 C1223 1.396 . S
C1223 C1222 1.396 . S
C1223 C1224 1.348 . S
C1223 C1241 1.472 . S
C1224 H1194 0.929 . S
C1224 C1223 1.348 . S
C1224 C1225 1.443 . S
C1225 H1192 0.932 . S
C1225 C1220 1.388 . S
C1225 C1224 1.443 . S
C1226 N1206 1.433 . S
C1226 C1227 1.363 . S
C1226 C1231 1.370 . S
C1227 H1195 0.929 . S
C1227 C1226 1.363 . S
C1227 C1228 1.385 . S
C1228 H1196 0.930 . S
C1228 C1227 1.385 . S
C1228 C1229 1.357 . S
C1229 C1228 1.357 . S
C1229 C1230 1.406 . S
C1230 H1197 0.929 . S
C1230 C1229 1.406 . S
C1230 C1231 1.391 . S
C1231 H1198 0.931 . S
C1231 C1226 1.370 . S
C1231 C1230 1.391 . S
C1232 N1206 1.435 . S
C1232 C1233 1.358 . S
C1232 C1237 1.371 . S
C1233 H1199 0.930 . S
C1233 C1232 1.358 . S
C1233 C1234 1.405 . S
C1234 H1200 0.932 . S
C1234 C1233 1.405 . S
C1234 C1235 1.383 . S
C1235 C1234 1.383 . S
C1235 C1236 1.393 . S
C1236 H1201 0.931 . S
C1236 C1235 1.393 . S
C1236 C1237 1.382 . S
C1237 H1202 0.929 . S
C1237 C1232 1.371 . S
C1237 C1236 1.382 . S
C1238 N1206 1.423 . S
C1238 C1239 1.362 . S
C1238 C1243 1.388 . S
C1239 H1203 0.929 . S
C1239 C1238 1.362 . S
C1239 C1240 1.376 . S
C1240 H1204 0.931 . S
C1240 C1239 1.376 . S
C1240 C1241 1.396 . S
C1241 C1223 1.472 . S
C1241 C1240 1.396 . S
C1241 C1242 1.348 . S
C1242 H1205 0.929 . S
C1242 C1241 1.348 . S
C1242 C1243 1.443 . S
C1243 H1207 0.932 . S
C1243 C1238 1.388 . S
C1243 C1242 1.443 . S
H1244 C1271 0.929 . S
N1245 C1270 1.433 . S
N1245 C1276 1.435 . S
N1245 C1282 1.423 . S
H1246 C1272 0.930 . S
H1247 C1275 0.931 . S
H1248 C1274 0.929 . S
H1249 C1277 0.930 . S
H1250 C1278 0.932 . S
H1251 C1281 0.929 . S
H1252 C1280 0.931 . S
H1253 C1283 0.929 . S
H1254 C1287 0.932 . S
H1255 C1284 0.931 . S
H1256 C1286 0.929 . S
H1257 C1289 0.929 . S
H1258 C1290 0.930 . S
H1259 C1292 0.929 . S
H1260 C1293 0.931 . S
H1261 C1295 0.930 . S
H1262 C1296 0.932 . S
H1263 C1298 0.931 . S
H1264 C1299 0.929 . S
H1265 C1301 0.929 . S
H1266 C1302 0.931 . S
H1267 C1304 0.929 . S
N1268 C1288 1.433 . S
N1268 C1294 1.435 . S
N1268 C1300 1.423 . S
H1269 C1305 0.932 . S
C1270 N1245 1.433 . S
C1270 C1271 1.363 . S
C1270 C1275 1.370 . S
C1271 H1244 0.929 . S
C1271 C1270 1.363 . S
C1271 C1272 1.385 . S
C1272 H1246 0.930 . S
C1272 C1271 1.385 . S
C1272 C1273 1.357 . S
C1273 C1272 1.357 . S
C1273 C1274 1.406 . S
C1274 H1248 0.929 . S
C1274 C1273 1.406 . S
C1274 C1275 1.391 . S
C1275 H1247 0.931 . S
C1275 C1270 1.370 . S
C1275 C1274 1.391 . S
C1276 N1245 1.435 . S
C1276 C1277 1.358 . S
C1276 C1281 1.371 . S
C1277 H1249 0.930 . S
C1277 C1276 1.358 . S
C1277 C1278 1.405 . S
C1278 H1250 0.932 . S
C1278 C1277 1.405 . S
C1278 C1279 1.383 . S
C1279 C1278 1.383 . S
C1279 C1280 1.393 . S
C1280 H1252 0.931 . S
C1280 C1279 1.393 . S
C1280 C1281 1.382 . S
C1281 H1251 0.929 . S
C1281 C1276 1.371 . S
C1281 C1280 1.382 . S
C1282 N1245 1.423 . S
C1282 C1283 1.362 . S
C1282 C1287 1.388 . S
C1283 H1253 0.929 . S
C1283 C1282 1.362 . S
C1283 C1284 1.376 . S
C1284 H1255 0.931 . S
C1284 C1283 1.376 . S
C1284 C1285 1.396 . S
C1285 C1284 1.396 . S
C1285 C1286 1.348 . S
C1285 C1303 1.472 . S
C1286 H1256 0.929 . S
C1286 C1285 1.348 . S
C1286 C1287 1.443 . S
C1287 H1254 0.932 . S
C1287 C1282 1.388 . S
C1287 C1286 1.443 . S
C1288 N1268 1.433 . S
C1288 C1289 1.363 . S
C1288 C1293 1.370 . S
C1289 H1257 0.929 . S
C1289 C1288 1.363 . S
C1289 C1290 1.385 . S
C1290 H1258 0.930 . S
C1290 C1289 1.385 . S
C1290 C1291 1.357 . S
C1291 C1290 1.357 . S
C1291 C1292 1.406 . S
C1292 H1259 0.929 . S
C1292 C1291 1.406 . S
C1292 C1293 1.391 . S
C1293 H1260 0.931 . S
C1293 C1288 1.370 . S
C1293 C1292 1.391 . S
C1294 N1268 1.435 . S
C1294 C1295 1.358 . S
C1294 C1299 1.371 . S
C1295 H1261 0.930 . S
C1295 C1294 1.358 . S
C1295 C1296 1.405 . S
C1296 H1262 0.932 . S
C1296 C1295 1.405 . S
C1296 C1297 1.383 . S
C1297 C1296 1.383 . S
C1297 C1298 1.393 . S
C1298 H1263 0.931 . S
C1298 C1297 1.393 . S
C1298 C1299 1.382 . S
C1299 H1264 0.929 . S
C1299 C1294 1.371 . S
C1299 C1298 1.382 . S
C1300 N1268 1.423 . S
C1300 C1301 1.362 . S
C1300 C1305 1.388 . S
C1301 H1265 0.929 . S
C1301 C1300 1.362 . S
C1301 C1302 1.376 . S
C1302 H1266 0.931 . S
C1302 C1301 1.376 . S
C1302 C1303 1.396 . S
C1303 C1285 1.472 . S
C1303 C1302 1.396 . S
C1303 C1304 1.348 . S
C1304 H1267 0.929 . S
C1304 C1303 1.348 . S
C1304 C1305 1.443 . S
C1305 H1269 0.932 . S
C1305 C1300 1.388 . S
C1305 C1304 1.443 . S
H1306 C1333 0.929 . S
N1307 C1332 1.433 . S
N1307 C1338 1.435 . S
N1307 C1344 1.423 . S
H1308 C1334 0.930 . S
H1309 C1337 0.931 . S
H1310 C1336 0.929 . S
H1311 C1339 0.930 . S
H1312 C1340 0.932 . S
H1313 C1343 0.929 . S
H1314 C1342 0.931 . S
H1315 C1345 0.929 . S
H1316 C1349 0.932 . S
H1317 C1346 0.931 . S
H1318 C1348 0.929 . S
H1319 C1351 0.929 . S
H1320 C1352 0.930 . S
H1321 C1354 0.929 . S
H1322 C1355 0.931 . S
H1323 C1357 0.930 . S
H1324 C1358 0.932 . S
H1325 C1360 0.931 . S
H1326 C1361 0.929 . S
H1327 C1363 0.929 . S
H1328 C1364 0.931 . S
H1329 C1366 0.929 . S
N1330 C1350 1.433 . S
N1330 C1356 1.435 . S
N1330 C1362 1.423 . S
H1331 C1367 0.932 . S
C1332 N1307 1.433 . S
C1332 C1333 1.363 . S
C1332 C1337 1.370 . S
C1333 H1306 0.929 . S
C1333 C1332 1.363 . S
C1333 C1334 1.385 . S
C1334 H1308 0.930 . S
C1334 C1333 1.385 . S
C1334 C1335 1.357 . S
C1335 C1334 1.357 . S
C1335 C1336 1.406 . S
C1336 H1310 0.929 . S
C1336 C1335 1.406 . S
C1336 C1337 1.391 . S
C1337 H1309 0.931 . S
C1337 C1332 1.370 . S
C1337 C1336 1.391 . S
C1338 N1307 1.435 . S
C1338 C1339 1.358 . S
C1338 C1343 1.371 . S
C1339 H1311 0.930 . S
C1339 C1338 1.358 . S
C1339 C1340 1.405 . S
C1340 H1312 0.932 . S
C1340 C1339 1.405 . S
C1340 C1341 1.383 . S
C1341 C1340 1.383 . S
C1341 C1342 1.393 . S
C1342 H1314 0.931 . S
C1342 C1341 1.393 . S
C1342 C1343 1.382 . S
C1343 H1313 0.929 . S
C1343 C1338 1.371 . S
C1343 C1342 1.382 . S
C1344 N1307 1.423 . S
C1344 C1345 1.362 . S
C1344 C1349 1.388 . S
C1345 H1315 0.929 . S
C1345 C1344 1.362 . S
C1345 C1346 1.376 . S
C1346 H1317 0.931 . S
C1346 C1345 1.376 . S
C1346 C1347 1.396 . S
C1347 C1346 1.396 . S
C1347 C1348 1.348 . S
C1347 C1365 1.472 . S
C1348 H1318 0.929 . S
C1348 C1347 1.348 . S
C1348 C1349 1.443 . S
C1349 H1316 0.932 . S
C1349 C1344 1.388 . S
C1349 C1348 1.443 . S
C1350 N1330 1.433 . S
C1350 C1351 1.363 . S
C1350 C1355 1.370 . S
C1351 H1319 0.929 . S
C1351 C1350 1.363 . S
C1351 C1352 1.385 . S
C1352 H1320 0.930 . S
C1352 C1351 1.385 . S
C1352 C1353 1.357 . S
C1353 C1352 1.357 . S
C1353 C1354 1.406 . S
C1354 H1321 0.929 . S
C1354 C1353 1.406 . S
C1354 C1355 1.391 . S
C1355 H1322 0.931 . S
C1355 C1350 1.370 . S
C1355 C1354 1.391 . S
C1356 N1330 1.435 . S
C1356 C1357 1.358 . S
C1356 C1361 1.371 . S
C1357 H1323 0.930 . S
C1357 C1356 1.358 . S
C1357 C1358 1.405 . S
C1358 H1324 0.932 . S
C1358 C1357 1.405 . S
C1358 C1359 1.383 . S
C1359 C1358 1.383 . S
C1359 C1360 1.393 . S
C1360 H1325 0.931 . S
C1360 C1359 1.393 . S
C1360 C1361 1.382 . S
C1361 H1326 0.929 . S
C1361 C1356 1.371 . S
C1361 C1360 1.382 . S
C1362 N1330 1.423 . S
C1362 C1363 1.362 . S
C1362 C1367 1.388 . S
C1363 H1327 0.929 . S
C1363 C1362 1.362 . S
C1363 C1364 1.376 . S
C1364 H1328 0.931 . S
C1364 C1363 1.376 . S
C1364 C1365 1.396 . S
C1365 C1347 1.472 . S
C1365 C1364 1.396 . S
C1365 C1366 1.348 . S
C1366 H1329 0.929 . S
C1366 C1365 1.348 . S
C1366 C1367 1.443 . S
C1367 H1331 0.932 . S
C1367 C1362 1.388 . S
C1367 C1366 1.443 . S
C1368 C1369 1.346 1_655 S
C1368 C1370 1.327 . S
C1368 H1393 0.950 . S
C1369 C1368 1.346 1_455 S
C1369 C1385 1.350 . S
C1370 C1368 1.327 . S
C1370 C1389 1.456 . S
C1370 H1394 0.950 . S
C1371 C1388 1.574 . S
C1371 C1390 1.368 1_455 S
C1371 H1395 0.949 . S
H1372 C1376 0.949 . S
C1373 C1374 1.342 . S
C1373 C1375 1.310 1_655 S
C1373 H1396 0.953 1_655 S
C1374 C1373 1.342 . S
C1374 C1386 1.349 . S
C1375 C1373 1.310 1_455 S
C1375 C1391 1.415 1_455 S
C1375 H1397 0.987 . S
C1376 H1372 0.949 . S
C1376 C1384 1.574 . S
C1376 C1392 1.368 . S
H1377 C1385 0.950 . S
H1378 C1383 0.950 . S
H1379 C1384 0.949 . S
H1380 C1386 0.950 . S
H1381 C1387 0.950 . S
H1382 C1388 0.949 . S
C1383 H1378 0.950 . S
C1383 C1385 1.327 . S
C1383 C1389 1.367 1_455 S
C1384 C1376 1.574 . S
C1384 H1379 0.949 . S
C1384 C1390 1.368 . S
C1385 C1369 1.350 . S
C1385 H1377 0.950 . S
C1385 C1383 1.327 . S
C1386 C1374 1.349 . S
C1386 H1380 0.950 . S
C1386 C1387 1.327 . S
C1387 H1381 0.950 . S
C1387 C1386 1.327 . S
C1387 C1391 1.429 . S
C1388 C1371 1.574 . S
C1388 H1382 0.949 . S
C1388 C1392 1.368 1_455 S
C1389 C1370 1.456 . S
C1389 C1383 1.367 1_655 S
C1389 C1390 1.561 . S
C1390 C1371 1.368 1_655 S
C1390 C1384 1.368 . S
C1390 C1389 1.561 . S
C1391 C1375 1.415 1_655 S
C1391 C1387 1.429 . S
C1391 C1392 1.523 . S
C1392 C1376 1.368 . S
C1392 C1388 1.368 1_655 S
C1392 C1391 1.523 . S
H1393 C1368 0.950 . S
H1394 C1370 0.950 . S
H1395 C1371 0.949 . S
H1396 C1373 0.953 1_455 S
H1397 C1375 0.987 . S
C1398 C1399 1.349 . S
C1398 C1400 1.327 . S
C1398 H1423 0.950 . S
C1399 C1398 1.349 . S
C1399 C1415 1.349 . S
C1400 C1398 1.327 . S
C1400 C1419 1.429 . S
C1400 H1424 0.950 . S
C1401 C1418 1.574 . S
C1401 C1420 1.368 . S
C1401 H1425 0.949 . S
H1402 C1406 0.949 . S
C1403 C1404 1.349 . S
C1403 C1405 1.327 . S
C1403 H1426 0.950 . S
C1404 C1403 1.349 . S
C1404 C1416 1.349 . S
C1405 C1403 1.327 . S
C1405 C1421 1.429 . S
C1405 H1427 0.950 . S
C1406 H1402 0.949 . S
C1406 C1414 1.574 . S
C1406 C1422 1.368 . S
H1407 C1415 0.950 . S
H1408 C1413 0.950 . S
H1409 C1414 0.949 . S
H1410 C1416 0.950 . S
H1411 C1417 0.950 . S
H1412 C1418 0.949 . S
C1413 H1408 0.950 . S
C1413 C1415 1.327 . S
C1413 C1419 1.429 . S
C1414 C1406 1.574 . S
C1414 H1409 0.949 . S
C1414 C1420 1.368 . S
C1415 C1399 1.349 . S
C1415 H1407 0.950 . S
C1415 C1413 1.327 . S
C1416 C1404 1.349 . S
C1416 H1410 0.950 . S
C1416 C1417 1.327 . S
C1417 H1411 0.950 . S
C1417 C1416 1.327 . S
C1417 C1421 1.429 . S
C1418 C1401 1.574 . S
C1418 H1412 0.949 . S
C1418 C1422 1.368 . S
C1419 C1400 1.429 . S
C1419 C1413 1.429 . S
C1419 C1420 1.523 . S
C1420 C1401 1.368 . S
C1420 C1414 1.368 . S
C1420 C1419 1.523 . S
C1421 C1405 1.429 . S
C1421 C1417 1.429 . S
C1421 C1422 1.523 . S
C1422 C1406 1.368 . S
C1422 C1418 1.368 . S
C1422 C1421 1.523 . S
H1423 C1398 0.950 . S
H1424 C1400 0.950 . S
H1425 C1401 0.949 . S
H1426 C1403 0.950 . S
H1427 C1405 0.950 . S
C1428 C1429 1.349 1_565 S
C1428 C1430 1.327 . S
C1428 H1453 0.950 . S
C1429 C1428 1.349 1_545 S
C1429 C1445 1.349 . S
C1430 C1428 1.327 . S
C1430 C1449 1.429 1_565 S
C1430 H1454 0.950 . S
C1431 C1448 1.574 . S
C1431 C1450 1.368 . S
C1431 H1455 0.949 . S
H1432 C1436 0.949 . S
C1433 C1434 1.349 . S
C1433 C1435 1.327 . S
C1433 H1456 0.950 . S
C1434 C1433 1.349 . S
C1434 C1446 1.349 1_545 S
C1435 C1433 1.327 . S
C1435 C1451 1.429 . S
C1435 H1457 0.950 . S
C1436 H1432 0.949 . S
C1436 C1444 1.574 . S
C1436 C1452 1.368 1_565 S
H1437 C1445 0.950 . S
H1438 C1443 0.950 . S
H1439 C1444 0.949 . S
H1440 C1446 0.950 . S
H1441 C1447 0.950 . S
H1442 C1448 0.949 . S
C1443 H1438 0.950 . S
C1443 C1445 1.327 . S
C1443 C1449 1.429 . S
C1444 C1436 1.574 . S
C1444 H1439 0.949 . S
C1444 C1450 1.368 1_565 S
C1445 C1429 1.349 . S
C1445 H1437 0.950 . S
C1445 C1443 1.327 . S
C1446 C1434 1.349 1_565 S
C1446 H1440 0.950 . S
C1446 C1447 1.327 . S
C1447 H1441 0.950 . S
C1447 C1446 1.327 . S
C1447 C1451 1.429 1_565 S
C1448 C1431 1.574 . S
C1448 H1442 0.949 . S
C1448 C1452 1.368 . S
C1449 C1430 1.429 1_545 S
C1449 C1443 1.429 . S
C1449 C1450 1.523 . S
C1450 C1431 1.368 . S
C1450 C1444 1.368 1_545 S
C1450 C1449 1.523 . S
C1451 C1435 1.429 . S
C1451 C1447 1.429 1_545 S
C1451 C1452 1.523 . S
C1452 C1436 1.368 1_545 S
C1452 C1448 1.368 . S
C1452 C1451 1.523 . S
H1453 C1428 0.950 . S
H1454 C1430 0.950 . S
H1455 C1431 0.949 . S
H1456 C1433 0.950 . S
H1457 C1435 0.950 . S
C1458 C1459 1.349 1_565 S
C1458 C1460 1.327 . S
C1458 H1483 0.950 . S
C1459 C1458 1.349 1_545 S
C1459 C1475 1.349 . S
C1460 C1458 1.327 . S
C1460 C1479 1.428 1_565 S
C1460 H1484 0.950 . S
C1461 C1478 1.574 . S
C1461 C1480 1.336 1_545 S
C1461 H1485 0.949 . S
H1462 C1466 0.949 . S
C1463 C1464 1.349 1_545 S
C1463 C1465 1.327 . S
C1463 H1486 0.950 . S
C1464 C1463 1.349 1_565 S
C1464 C1476 1.349 . S
C1465 C1463 1.327 . S
C1465 C1481 1.429 1_545 S
C1465 H1487 0.950 . S
C1466 H1462 0.949 . S
C1466 C1474 1.574 . S
C1466 C1482 1.368 . S
H1467 C1475 0.950 . S
H1468 C1473 0.950 . S
H1469 C1474 0.949 . S
H1470 C1476 0.950 . S
H1471 C1477 0.950 . S
H1472 C1478 0.949 . S
C1473 H1468 0.950 . S
C1473 C1475 1.327 . S
C1473 C1479 1.430 . S
C1474 C1466 1.574 . S
C1474 H1469 0.949 . S
C1474 C1480 1.418 . S
C1475 C1459 1.349 . S
C1475 H1467 0.950 . S
C1475 C1473 1.327 . S
C1476 C1464 1.349 . S
C1476 H1470 0.950 . S
C1476 C1477 1.327 . S
C1477 H1471 0.950 . S
C1477 C1476 1.327 . S
C1477 C1481 1.429 . S
C1478 C1461 1.574 . S
C1478 H1472 0.949 . S
C1478 C1482 1.368 1_545 S
C1479 C1460 1.428 1_545 S
C1479 C1473 1.430 . S
C1479 C1480 1.502 1_545 S
C1480 C1461 1.336 1_565 S
C1480 C1474 1.418 . S
C1480 C1479 1.502 1_565 S
C1481 C1465 1.429 1_565 S
C1481 C1477 1.429 . S
C1481 C1482 1.523 . S
C1482 C1466 1.368 . S
C1482 C1478 1.368 1_565 S
C1482 C1481 1.523 . S
H1483 C1458 0.950 . S
H1484 C1460 0.950 . S
H1485 C1461 0.949 . S
H1486 C1463 0.950 . S
H1487 C1465 0.950 . S
C1488 C1489 1.349 . S
C1488 C1490 1.327 . S
C1488 H1513 0.950 . S
C1489 C1488 1.349 . S
C1489 C1505 1.349 1_455 S
C1490 C1488 1.327 . S
C1490 C1509 1.429 . S
C1490 H1514 0.950 . S
C1491 C1508 1.574 . S
C1491 C1510 1.368 1_655 S
C1491 H1515 0.949 . S
H1492 C1496 0.949 . S
C1493 C1494 1.349 1_655 S
C1493 C1495 1.327 . S
C1493 H1516 0.950 . S
C1494 C1493 1.349 1_455 S
C1494 C1506 1.349 . S
C1495 C1493 1.327 . S
C1495 C1511 1.429 1_655 S
C1495 H1517 0.950 . S
C1496 H1492 0.949 . S
C1496 C1504 1.574 . S
C1496 C1512 1.368 . S
H1497 C1505 0.950 . S
H1498 C1503 0.950 . S
H1499 C1504 0.949 . S
H1500 C1506 0.950 . S
H1501 C1507 0.950 . S
H1502 C1508 0.949 . S
C1503 H1498 0.950 . S
C1503 C1505 1.327 . S
C1503 C1509 1.429 1_655 S
C1504 C1496 1.574 . S
C1504 H1499 0.949 . S
C1504 C1510 1.368 . S
C1505 C1489 1.349 1_655 S
C1505 H1497 0.950 . S
C1505 C1503 1.327 . S
C1506 C1494 1.349 . S
C1506 H1500 0.950 . S
C1506 C1507 1.327 . S
C1507 H1501 0.950 . S
C1507 C1506 1.327 . S
C1507 C1511 1.429 . S
C1508 C1491 1.574 . S
C1508 H1502 0.949 . S
C1508 C1512 1.368 1_655 S
C1509 C1490 1.429 . S
C1509 C1503 1.429 1_455 S
C1509 C1510 1.523 . S
C1510 C1491 1.368 1_455 S
C1510 C1504 1.368 . S
C1510 C1509 1.523 . S
C1511 C1495 1.429 1_455 S
C1511 C1507 1.429 . S
C1511 C1512 1.523 . S
C1512 C1496 1.368 . S
C1512 C1508 1.368 1_455 S
C1512 C1511 1.523 . S
H1513 C1488 0.950 . S
H1514 C1490 0.950 . S
H1515 C1491 0.949 . S
H1516 C1493 0.950 . S
H1517 C1495 0.950 . S
C1518 C1519 1.349 . S
C1518 C1520 1.327 . S
C1518 H1543 0.950 . S
C1519 C1518 1.349 . S
C1519 C1535 1.349 . S
C1520 C1518 1.327 . S
C1520 C1539 1.429 . S
C1520 H1544 0.950 . S
C1521 C1538 1.574 . S
C1521 C1540 1.368 . S
C1521 H1545 0.949 . S
H1522 C1526 0.949 . S
C1523 C1524 1.349 . S
C1523 C1525 1.327 . S
C1523 H1546 0.950 . S
C1524 C1523 1.349 . S
C1524 C1536 1.349 . S
C1525 C1523 1.327 . S
C1525 C1541 1.429 . S
C1525 H1547 0.950 . S
C1526 H1522 0.949 . S
C1526 C1534 1.574 . S
C1526 C1542 1.368 . S
H1527 C1535 0.950 . S
H1528 C1533 0.950 . S
H1529 C1534 0.949 . S
H1530 C1536 0.950 . S
H1531 C1537 0.950 . S
H1532 C1538 0.949 . S
C1533 H1528 0.950 . S
C1533 C1535 1.327 . S
C1533 C1539 1.429 . S
C1534 C1526 1.574 . S
C1534 H1529 0.949 . S
C1534 C1540 1.368 . S
C1535 C1519 1.349 . S
C1535 H1527 0.950 . S
C1535 C1533 1.327 . S
C1536 C1524 1.349 . S
C1536 H1530 0.950 . S
C1536 C1537 1.327 . S
C1537 H1531 0.950 . S
C1537 C1536 1.327 . S
C1537 C1541 1.429 . S
C1538 C1521 1.574 . S
C1538 H1532 0.949 . S
C1538 C1542 1.368 . S
C1539 C1520 1.429 . S
C1539 C1533 1.429 . S
C1539 C1540 1.523 . S
C1540 C1521 1.368 . S
C1540 C1534 1.368 . S
C1540 C1539 1.523 . S
C1541 C1525 1.429 . S
C1541 C1537 1.429 . S
C1541 C1542 1.523 . S
C1542 C1526 1.368 . S
C1542 C1538 1.368 . S
C1542 C1541 1.523 . S
H1543 C1518 0.950 . S
H1544 C1520 0.950 . S
H1545 C1521 0.949 . S
H1546 C1523 0.950 . S
H1547 C1525 0.950 . S
C1548 C1549 1.349 . S
C1548 C1550 1.327 . S
C1548 H1573 0.950 . S
C1549 C1548 1.349 . S
C1549 C1565 1.349 1_455 S
C1550 C1548 1.327 . S
C1550 C1569 1.429 . S
C1550 H1574 0.950 . S
C1551 C1568 1.574 . S
C1551 C1570 1.368 1_655 S
C1551 H1575 0.949 . S
H1552 C1556 0.949 . S
C1553 C1554 1.349 1_655 S
C1553 C1555 1.327 . S
C1553 H1576 0.950 . S
C1554 C1553 1.349 1_455 S
C1554 C1566 1.349 . S
C1555 C1553 1.327 . S
C1555 C1571 1.429 1_655 S
C1555 H1577 0.950 . S
C1556 H1552 0.949 . S
C1556 C1564 1.574 . S
C1556 C1572 1.368 . S
H1557 C1565 0.950 . S
H1558 C1563 0.950 . S
H1559 C1564 0.949 . S
H1560 C1566 0.950 . S
H1561 C1567 0.950 . S
H1562 C1568 0.949 . S
C1563 H1558 0.950 . S
C1563 C1565 1.327 . S
C1563 C1569 1.429 1_655 S
C1564 C1556 1.574 . S
C1564 H1559 0.949 . S
C1564 C1570 1.368 . S
C1565 C1549 1.349 1_655 S
C1565 H1557 0.950 . S
C1565 C1563 1.327 . S
C1566 C1554 1.349 . S
C1566 H1560 0.950 . S
C1566 C1567 1.327 . S
C1567 H1561 0.950 . S
C1567 C1566 1.327 . S
C1567 C1571 1.429 . S
C1568 C1551 1.574 . S
C1568 H1562 0.949 . S
C1568 C1572 1.368 1_655 S
C1569 C1550 1.429 . S
C1569 C1563 1.429 1_455 S
C1569 C1570 1.523 . S
C1570 C1551 1.368 1_455 S
C1570 C1564 1.368 . S
C1570 C1569 1.523 . S
C1571 C1555 1.429 1_455 S
C1571 C1567 1.429 . S
C1571 C1572 1.523 . S
C1572 C1556 1.368 . S
C1572 C1568 1.368 1_455 S
C1572 C1571 1.523 . S
H1573 C1548 0.950 . S
H1574 C1550 0.950 . S
H1575 C1551 0.949 . S
H1576 C1553 0.950 . S
H1577 C1555 0.950 . S
C1578 C1579 1.349 . S
C1578 C1580 1.327 . S
C1578 H1603 0.950 . S
C1579 C1578 1.349 . S
C1579 C1595 1.349 . S
C1580 C1578 1.327 . S
C1580 C1599 1.429 . S
C1580 H1604 0.950 . S
C1581 C1598 1.574 . S
C1581 C1600 1.368 . S
C1581 H1605 0.949 . S
H1582 C1586 0.949 . S
C1583 C1584 1.349 . S
C1583 C1585 1.327 . S
C1583 H1606 0.950 . S
C1584 C1583 1.349 . S
C1584 C1596 1.349 . S
C1585 C1583 1.327 . S
C1585 C1601 1.429 . S
C1585 H1607 0.950 . S
C1586 H1582 0.949 . S
C1586 C1594 1.574 . S
C1586 C1602 1.368 . S
H1587 C1595 0.950 . S
H1588 C1593 0.950 . S
H1589 C1594 0.949 . S
H1590 C1596 0.950 . S
H1591 C1597 0.950 . S
H1592 C1598 0.949 . S
C1593 H1588 0.950 . S
C1593 C1595 1.327 . S
C1593 C1599 1.429 . S
C1594 C1586 1.574 . S
C1594 H1589 0.949 . S
C1594 C1600 1.368 . S
C1595 C1579 1.349 . S
C1595 H1587 0.950 . S
C1595 C1593 1.327 . S
C1596 C1584 1.349 . S
C1596 H1590 0.950 . S
C1596 C1597 1.327 . S
C1597 H1591 0.950 . S
C1597 C1596 1.327 . S
C1597 C1601 1.429 . S
C1598 C1581 1.574 . S
C1598 H1592 0.949 . S
C1598 C1602 1.368 . S
C1599 C1580 1.429 . S
C1599 C1593 1.429 . S
C1599 C1600 1.523 . S
C1600 C1581 1.368 . S
C1600 C1594 1.368 . S
C1600 C1599 1.523 . S
C1601 C1585 1.429 . S
C1601 C1597 1.429 . S
C1601 C1602 1.523 . S
C1602 C1586 1.368 . S
C1602 C1598 1.368 . S
C1602 C1601 1.523 . S
H1603 C1578 0.950 . S
H1604 C1580 0.950 . S
H1605 C1581 0.949 . S
H1606 C1583 0.950 . S
H1607 C1585 0.950 . S
C1608 C1609 1.296 1_545 S
C1608 C1610 1.327 . S
C1608 H1633 0.950 . S
C1609 C1608 1.296 1_565 S
C1609 C1625 1.374 . S
C1610 C1608 1.327 . S
C1610 C1629 1.429 1_545 S
C1610 H1634 0.950 . S
C1611 C1628 1.574 . S
C1611 C1630 1.368 . S
C1611 H1635 0.949 . S
H1612 C1616 0.949 . S
C1613 C1614 1.349 . S
C1613 C1615 1.327 . S
C1613 H1636 0.950 . S
C1614 C1613 1.349 . S
C1614 C1626 1.349 1_565 S
C1615 C1613 1.327 . S
C1615 C1631 1.429 . S
C1615 H1637 0.950 . S
C1616 H1612 0.949 . S
C1616 C1624 1.574 . S
C1616 C1632 1.368 1_545 S
H1617 C1625 0.950 . S
H1618 C1623 0.950 . S
H1619 C1624 0.949 . S
H1620 C1626 0.950 . S
H1621 C1627 0.950 . S
H1622 C1628 0.949 . S
C1623 H1618 0.950 . S
C1623 C1625 1.327 . S
C1623 C1629 1.429 . S
C1624 C1616 1.574 . S
C1624 H1619 0.949 . S
C1624 C1630 1.368 1_545 S
C1625 C1609 1.374 . S
C1625 H1617 0.950 . S
C1625 C1623 1.327 . S
C1626 C1614 1.349 1_545 S
C1626 H1620 0.950 . S
C1626 C1627 1.327 . S
C1627 H1621 0.950 . S
C1627 C1626 1.327 . S
C1627 C1631 1.429 1_545 S
C1628 C1611 1.574 . S
C1628 H1622 0.949 . S
C1628 C1632 1.368 . S
C1629 C1610 1.429 1_565 S
C1629 C1623 1.429 . S
C1629 C1630 1.523 . S
C1630 C1611 1.368 . S
C1630 C1624 1.368 1_565 S
C1630 C1629 1.523 . S
C1631 C1615 1.429 . S
C1631 C1627 1.429 1_565 S
C1631 C1632 1.523 . S
C1632 C1616 1.368 1_565 S
C1632 C1628 1.368 . S
C1632 C1631 1.523 . S
H1633 C1608 0.950 . S
H1634 C1610 0.950 . S
H1635 C1611 0.949 . S
H1636 C1613 0.950 . S
H1637 C1615 0.950 . S
C1638 C1639 1.349 1_565 S
C1638 C1640 1.327 . S
C1638 H1663 0.950 . S
C1639 C1638 1.349 1_545 S
C1639 C1655 1.349 . S
C1640 C1638 1.327 . S
C1640 C1659 1.429 1_565 S
C1640 H1664 0.950 . S
C1641 C1658 1.574 . S
C1641 C1660 1.368 . S
C1641 H1665 0.949 . S
H1642 C1646 0.949 . S
C1643 C1644 1.349 . S
C1643 C1645 1.327 . S
C1643 H1666 0.950 . S
C1644 C1643 1.349 . S
C1644 C1656 1.349 1_545 S
C1645 C1643 1.327 . S
C1645 C1661 1.429 . S
C1645 H1667 0.950 . S
C1646 H1642 0.949 . S
C1646 C1654 1.574 . S
C1646 C1662 1.368 1_565 S
H1647 C1655 0.950 . S
H1648 C1653 0.950 . S
H1649 C1654 0.949 . S
H1650 C1656 0.950 . S
H1651 C1657 0.950 . S
H1652 C1658 0.949 . S
C1653 H1648 0.950 . S
C1653 C1655 1.327 . S
C1653 C1659 1.429 . S
C1654 C1646 1.574 . S
C1654 H1649 0.949 . S
C1654 C1660 1.368 1_565 S
C1655 C1639 1.349 . S
C1655 H1647 0.950 . S
C1655 C1653 1.327 . S
C1656 C1644 1.349 1_565 S
C1656 H1650 0.950 . S
C1656 C1657 1.327 . S
C1657 H1651 0.950 . S
C1657 C1656 1.327 . S
C1657 C1661 1.429 1_565 S
C1658 C1641 1.574 . S
C1658 H1652 0.949 . S
C1658 C1662 1.368 . S
C1659 C1640 1.429 1_545 S
C1659 C1653 1.429 . S
C1659 C1660 1.523 . S
C1660 C1641 1.368 . S
C1660 C1654 1.368 1_545 S
C1660 C1659 1.523 . S
C1661 C1645 1.429 . S
C1661 C1657 1.429 1_545 S
C1661 C1662 1.523 . S
C1662 C1646 1.368 1_545 S
C1662 C1658 1.368 . S
C1662 C1661 1.523 . S
H1663 C1638 0.950 . S
H1664 C1640 0.950 . S
H1665 C1641 0.949 . S
H1666 C1643 0.950 . S
H1667 C1645 0.950 . S
C1668 C1669 1.350 1_655 S
C1668 C1670 1.327 . S
C1668 H1693 0.950 . S
C1669 C1668 1.350 1_455 S
C1669 C1685 1.295 . S
C1670 C1668 1.327 . S
C1670 C1689 1.488 . S
C1670 H1694 0.950 . S
C1671 C1688 1.558 . S
C1671 C1690 1.394 . S
C1671 H1695 0.938 1_655 S
H1672 C1676 0.949 . S
C1673 C1674 1.349 . S
C1673 C1675 1.327 . S
C1673 H1696 0.950 . S
C1674 C1673 1.349 . S
C1674 C1686 1.349 . S
C1675 C1673 1.327 . S
C1675 C1691 1.429 . S
C1675 H1697 0.950 . S
C1676 H1672 0.949 . S
C1676 C1684 1.574 . S
C1676 C1692 1.368 . S
H1677 C1685 0.973 . S
H1678 C1683 0.974 . S
H1679 C1684 0.949 . S
H1680 C1686 0.950 . S
H1681 C1687 0.950 . S
H1682 C1688 0.977 . S
C1683 H1678 0.974 . S
C1683 C1685 1.347 . S
C1683 C1689 1.411 1_455 S
C1684 C1676 1.574 . S
C1684 H1679 0.949 . S
C1684 C1690 1.368 . S
C1685 C1669 1.295 . S
C1685 H1677 0.973 . S
C1685 C1683 1.347 . S
C1686 C1674 1.349 . S
C1686 H1680 0.950 . S
C1686 C1687 1.327 . S
C1687 H1681 0.950 . S
C1687 C1686 1.327 . S
C1687 C1691 1.429 . S
C1688 C1671 1.558 . S
C1688 H1682 0.977 . S
C1688 C1692 1.368 . S
C1689 C1670 1.488 . S
C1689 C1683 1.411 1_655 S
C1689 C1690 1.490 . S
C1690 C1671 1.394 . S
C1690 C1684 1.368 . S
C1690 C1689 1.490 . S
C1691 C1675 1.429 . S
C1691 C1687 1.429 . S
C1691 C1692 1.523 . S
C1692 C1676 1.368 . S
C1692 C1688 1.368 . S
C1692 C1691 1.523 . S
H1693 C1668 0.950 . S
H1694 C1670 0.950 . S
H1695 C1671 0.938 1_455 S
H1696 C1673 0.950 . S
H1697 C1675 0.950 . S
C1698 C1699 1.349 . S
C1698 C1700 1.327 . S
C1698 H1723 0.950 . S
C1699 C1698 1.349 . S
C1699 C1715 1.349 . S
C1700 C1698 1.327 . S
C1700 C1719 1.429 . S
C1700 H1724 0.950 . S
C1701 C1718 1.574 . S
C1701 C1720 1.368 . S
C1701 H1725 0.949 . S
H1702 C1706 0.949 . S
C1703 C1704 1.349 . S
C1703 C1705 1.327 . S
C1703 H1726 0.950 . S
C1704 C1703 1.349 . S
C1704 C1716 1.349 . S
C1705 C1703 1.327 . S
C1705 C1721 1.429 . S
C1705 H1727 0.950 . S
C1706 H1702 0.949 . S
C1706 C1714 1.574 . S
C1706 C1722 1.368 . S
H1707 C1715 0.950 . S
H1708 C1713 0.950 . S
H1709 C1714 0.949 . S
H1710 C1716 0.950 . S
H1711 C1717 0.950 . S
H1712 C1718 0.949 . S
C1713 H1708 0.950 . S
C1713 C1715 1.327 . S
C1713 C1719 1.429 . S
C1714 C1706 1.574 . S
C1714 H1709 0.949 . S
C1714 C1720 1.368 . S
C1715 C1699 1.349 . S
C1715 H1707 0.950 . S
C1715 C1713 1.327 . S
C1716 C1704 1.349 . S
C1716 H1710 0.950 . S
C1716 C1717 1.327 . S
C1717 H1711 0.950 . S
C1717 C1716 1.327 . S
C1717 C1721 1.429 . S
C1718 C1701 1.574 . S
C1718 H1712 0.949 . S
C1718 C1722 1.368 . S
C1719 C1700 1.429 . S
C1719 C1713 1.429 . S
C1719 C1720 1.523 . S
C1720 C1701 1.368 . S
C1720 C1714 1.368 . S
C1720 C1719 1.523 . S
C1721 C1705 1.429 . S
C1721 C1717 1.429 . S
C1721 C1722 1.523 . S
C1722 C1706 1.368 . S
C1722 C1718 1.368 . S
C1722 C1721 1.523 . S
H1723 C1698 0.950 . S
H1724 C1700 0.950 . S
H1725 C1701 0.949 . S
H1726 C1703 0.950 . S
H1727 C1705 0.950 . S
C1728 C1729 1.349 . S
C1728 C1730 1.327 . S
C1728 H1753 0.950 . S
C1729 C1728 1.349 . S
C1729 C1745 1.349 . S
C1730 C1728 1.327 . S
C1730 C1749 1.429 . S
C1730 H1754 0.950 . S
C1731 C1748 1.574 . S
C1731 C1750 1.368 . S
C1731 H1755 0.949 . S
H1732 C1736 0.949 . S
C1733 C1734 1.349 . S
C1733 C1735 1.327 . S
C1733 H1756 0.950 . S
C1734 C1733 1.349 . S
C1734 C1746 1.349 . S
C1735 C1733 1.327 . S
C1735 C1751 1.429 . S
C1735 H1757 0.950 . S
C1736 H1732 0.949 . S
C1736 C1744 1.574 . S
C1736 C1752 1.368 . S
H1737 C1745 0.950 . S
H1738 C1743 0.950 . S
H1739 C1744 0.949 . S
H1740 C1746 0.950 . S
H1741 C1747 0.950 . S
H1742 C1748 0.949 . S
C1743 H1738 0.950 . S
C1743 C1745 1.327 . S
C1743 C1749 1.429 . S
C1744 C1736 1.574 . S
C1744 H1739 0.949 . S
C1744 C1750 1.368 . S
C1745 C1729 1.349 . S
C1745 H1737 0.950 . S
C1745 C1743 1.327 . S
C1746 C1734 1.349 . S
C1746 H1740 0.950 . S
C1746 C1747 1.327 . S
C1747 H1741 0.950 . S
C1747 C1746 1.327 . S
C1747 C1751 1.429 . S
C1748 C1731 1.574 . S
C1748 H1742 0.949 . S
C1748 C1752 1.368 . S
C1749 C1730 1.429 . S
C1749 C1743 1.429 . S
C1749 C1750 1.523 . S
C1750 C1731 1.368 . S
C1750 C1744 1.368 . S
C1750 C1749 1.523 . S
C1751 C1735 1.429 . S
C1751 C1747 1.429 . S
C1751 C1752 1.523 . S
C1752 C1736 1.368 . S
C1752 C1748 1.368 . S
C1752 C1751 1.523 . S
H1753 C1728 0.950 . S
H1754 C1730 0.950 . S
H1755 C1731 0.949 . S
H1756 C1733 0.950 . S
H1757 C1735 0.950 . S
C1758 C1759 1.349 . S
C1758 C1760 1.327 . S
C1758 H1783 0.950 . S
C1759 C1758 1.349 . S
C1759 C1775 1.349 . S
C1760 C1758 1.327 . S
C1760 C1779 1.429 . S
C1760 H1784 0.950 . S
C1761 C1778 1.574 . S
C1761 C1780 1.368 . S
C1761 H1785 0.949 . S
H1762 C1766 0.949 . S
C1763 C1764 1.349 . S
C1763 C1765 1.327 . S
C1763 H1786 0.950 . S
C1764 C1763 1.349 . S
C1764 C1776 1.349 . S
C1765 C1763 1.327 . S
C1765 C1781 1.429 . S
C1765 H1787 0.950 . S
C1766 H1762 0.949 . S
C1766 C1774 1.574 . S
C1766 C1782 1.368 . S
H1767 C1775 0.950 . S
H1768 C1773 0.950 . S
H1769 C1774 0.949 . S
H1770 C1776 0.950 . S
H1771 C1777 0.950 . S
H1772 C1778 0.949 . S
C1773 H1768 0.950 . S
C1773 C1775 1.327 . S
C1773 C1779 1.429 . S
C1774 C1766 1.574 . S
C1774 H1769 0.949 . S
C1774 C1780 1.368 . S
C1775 C1759 1.349 . S
C1775 H1767 0.950 . S
C1775 C1773 1.327 . S
C1776 C1764 1.349 . S
C1776 H1770 0.950 . S
C1776 C1777 1.327 . S
C1777 H1771 0.950 . S
C1777 C1776 1.327 . S
C1777 C1781 1.429 . S
C1778 C1761 1.574 . S
C1778 H1772 0.949 . S
C1778 C1782 1.368 . S
C1779 C1760 1.429 . S
C1779 C1773 1.429 . S
C1779 C1780 1.523 . S
C1780 C1761 1.368 . S
C1780 C1774 1.368 . S
C1780 C1779 1.523 . S
C1781 C1765 1.429 . S
C1781 C1777 1.429 . S
C1781 C1782 1.523 . S
C1782 C1766 1.368 . S
C1782 C1778 1.368 . S
C1782 C1781 1.523 . S
H1783 C1758 0.950 . S
H1784 C1760 0.950 . S
H1785 C1761 0.949 . S
H1786 C1763 0.950 . S
H1787 C1765 0.950 . S
C1788 C1789 1.349 . S
C1788 C1790 1.327 . S
C1788 H1813 0.950 . S
C1789 C1788 1.349 . S
C1789 C1805 1.349 . S
C1790 C1788 1.327 . S
C1790 C1809 1.429 . S
C1790 H1814 0.950 . S
C1791 C1808 1.574 . S
C1791 C1810 1.368 . S
C1791 H1815 0.949 . S
H1792 C1796 0.949 . S
C1793 C1794 1.349 . S
C1793 C1795 1.327 . S
C1793 H1816 0.950 . S
C1794 C1793 1.349 . S
C1794 C1806 1.349 . S
C1795 C1793 1.327 . S
C1795 C1811 1.429 . S
C1795 H1817 0.950 . S
C1796 H1792 0.949 . S
C1796 C1804 1.574 . S
C1796 C1812 1.368 . S
H1797 C1805 0.950 . S
H1798 C1803 0.950 . S
H1799 C1804 0.949 . S
H1800 C1806 0.950 . S
H1801 C1807 0.950 . S
H1802 C1808 0.949 . S
C1803 H1798 0.950 . S
C1803 C1805 1.327 . S
C1803 C1809 1.429 . S
C1804 C1796 1.574 . S
C1804 H1799 0.949 . S
C1804 C1810 1.368 . S
C1805 C1789 1.349 . S
C1805 H1797 0.950 . S
C1805 C1803 1.327 . S
C1806 C1794 1.349 . S
C1806 H1800 0.950 . S
C1806 C1807 1.327 . S
C1807 H1801 0.950 . S
C1807 C1806 1.327 . S
C1807 C1811 1.429 . S
C1808 C1791 1.574 . S
C1808 H1802 0.949 . S
C1808 C1812 1.368 . S
C1809 C1790 1.429 . S
C1809 C1803 1.429 . S
C1809 C1810 1.523 . S
C1810 C1791 1.368 . S
C1810 C1804 1.368 . S
C1810 C1809 1.523 . S
C1811 C1795 1.429 . S
C1811 C1807 1.429 . S
C1811 C1812 1.523 . S
C1812 C1796 1.368 . S
C1812 C1808 1.368 . S
C1812 C1811 1.523 . S
H1813 C1788 0.950 . S
H1814 C1790 0.950 . S
H1815 C1791 0.949 . S
H1816 C1793 0.950 . S
H1817 C1795 0.950 . S
C1818 C1819 1.349 . S
C1818 C1820 1.327 . S
C1818 H1843 0.950 . S
C1819 C1818 1.349 . S
C1819 C1835 1.349 . S
C1820 C1818 1.327 . S
C1820 C1839 1.429 . S
C1820 H1844 0.950 . S
C1821 C1838 1.574 . S
C1821 C1840 1.368 . S
C1821 H1845 0.949 . S
H1822 C1826 0.949 . S
C1823 C1824 1.349 . S
C1823 C1825 1.327 . S
C1823 H1846 0.950 . S
C1824 C1823 1.349 . S
C1824 C1836 1.349 . S
C1825 C1823 1.327 . S
C1825 C1841 1.429 . S
C1825 H1847 0.950 . S
C1826 H1822 0.949 . S
C1826 C1834 1.574 . S
C1826 C1842 1.368 . S
H1827 C1835 0.950 . S
H1828 C1833 0.950 . S
H1829 C1834 0.949 . S
H1830 C1836 0.950 . S
H1831 C1837 0.950 . S
H1832 C1838 0.949 . S
C1833 H1828 0.950 . S
C1833 C1835 1.327 . S
C1833 C1839 1.429 . S
C1834 C1826 1.574 . S
C1834 H1829 0.949 . S
C1834 C1840 1.368 . S
C1835 C1819 1.349 . S
C1835 H1827 0.950 . S
C1835 C1833 1.327 . S
C1836 C1824 1.349 . S
C1836 H1830 0.950 . S
C1836 C1837 1.327 . S
C1837 H1831 0.950 . S
C1837 C1836 1.327 . S
C1837 C1841 1.429 . S
C1838 C1821 1.574 . S
C1838 H1832 0.949 . S
C1838 C1842 1.368 . S
C1839 C1820 1.429 . S
C1839 C1833 1.429 . S
C1839 C1840 1.523 . S
C1840 C1821 1.368 . S
C1840 C1834 1.368 . S
C1840 C1839 1.523 . S
C1841 C1825 1.429 . S
C1841 C1837 1.429 . S
C1841 C1842 1.523 . S
C1842 C1826 1.368 . S
C1842 C1838 1.368 . S
C1842 C1841 1.523 . S
H1843 C1818 0.950 . S
H1844 C1820 0.950 . S
H1845 C1821 0.949 . S
H1846 C1823 0.950 . S
H1847 C1825 0.950 . S
C1848 C1849 1.349 . S
C1848 C1850 1.327 . S
C1848 H1873 0.950 . S
C1849 C1848 1.349 . S
C1849 C1865 1.349 . S
C1850 C1848 1.327 . S
C1850 C1869 1.429 . S
C1850 H1874 0.950 . S
C1851 C1868 1.574 . S
C1851 C1870 1.368 . S
C1851 H1875 0.949 . S
H1852 C1856 0.949 . S
C1853 C1854 1.349 . S
C1853 C1855 1.327 . S
C1853 H1876 0.950 . S
C1854 C1853 1.349 . S
C1854 C1866 1.349 . S
C1855 C1853 1.327 . S
C1855 C1871 1.429 . S
C1855 H1877 0.950 . S
C1856 H1852 0.949 . S
C1856 C1864 1.574 . S
C1856 C1872 1.368 . S
H1857 C1865 0.950 . S
H1858 C1863 0.950 . S
H1859 C1864 0.949 . S
H1860 C1866 0.950 . S
H1861 C1867 0.950 . S
H1862 C1868 0.949 . S
C1863 H1858 0.950 . S
C1863 C1865 1.327 . S
C1863 C1869 1.429 . S
C1864 C1856 1.574 . S
C1864 H1859 0.949 . S
C1864 C1870 1.368 . S
C1865 C1849 1.349 . S
C1865 H1857 0.950 . S
C1865 C1863 1.327 . S
C1866 C1854 1.349 . S
C1866 H1860 0.950 . S
C1866 C1867 1.327 . S
C1867 H1861 0.950 . S
C1867 C1866 1.327 . S
C1867 C1871 1.429 . S
C1868 C1851 1.574 . S
C1868 H1862 0.949 . S
C1868 C1872 1.368 . S
C1869 C1850 1.429 . S
C1869 C1863 1.429 . S
C1869 C1870 1.523 . S
C1870 C1851 1.368 . S
C1870 C1864 1.368 . S
C1870 C1869 1.523 . S
C1871 C1855 1.429 . S
C1871 C1867 1.429 . S
C1871 C1872 1.523 . S
C1872 C1856 1.368 . S
C1872 C1868 1.368 . S
C1872 C1871 1.523 . S
H1873 C1848 0.950 . S
H1874 C1850 0.950 . S
H1875 C1851 0.949 . S
H1876 C1853 0.950 . S
H1877 C1855 0.950 . S
C1878 C1879 1.349 . S
C1878 C1880 1.327 . S
C1878 H1903 0.950 . S
C1879 C1878 1.349 . S
C1879 C1895 1.349 . S
C1880 C1878 1.327 . S
C1880 C1899 1.429 . S
C1880 H1904 0.950 . S
C1881 C1898 1.574 . S
C1881 C1900 1.368 . S
C1881 H1905 0.949 . S
H1882 C1886 0.949 . S
C1883 C1884 1.349 . S
C1883 C1885 1.327 . S
C1883 H1906 0.950 . S
C1884 C1883 1.349 . S
C1884 C1896 1.349 . S
C1885 C1883 1.327 . S
C1885 C1901 1.429 . S
C1885 H1907 0.950 . S
C1886 H1882 0.949 . S
C1886 C1894 1.574 . S
C1886 C1902 1.368 . S
H1887 C1895 0.950 . S
H1888 C1893 0.950 . S
H1889 C1894 0.949 . S
H1890 C1896 0.950 . S
H1891 C1897 0.950 . S
H1892 C1898 0.949 . S
C1893 H1888 0.950 . S
C1893 C1895 1.327 . S
C1893 C1899 1.429 . S
C1894 C1886 1.574 . S
C1894 H1889 0.949 . S
C1894 C1900 1.368 . S
C1895 C1879 1.349 . S
C1895 H1887 0.950 . S
C1895 C1893 1.327 . S
C1896 C1884 1.349 . S
C1896 H1890 0.950 . S
C1896 C1897 1.327 . S
C1897 H1891 0.950 . S
C1897 C1896 1.327 . S
C1897 C1901 1.429 . S
C1898 C1881 1.574 . S
C1898 H1892 0.949 . S
C1898 C1902 1.368 . S
C1899 C1880 1.429 . S
C1899 C1893 1.429 . S
C1899 C1900 1.523 . S
C1900 C1881 1.368 . S
C1900 C1894 1.368 . S
C1900 C1899 1.523 . S
C1901 C1885 1.429 . S
C1901 C1897 1.429 . S
C1901 C1902 1.523 . S
C1902 C1886 1.368 . S
C1902 C1898 1.368 . S
C1902 C1901 1.523 . S
H1903 C1878 0.950 . S
H1904 C1880 0.950 . S
H1905 C1881 0.949 . S
H1906 C1883 0.950 . S
H1907 C1885 0.950 . S
C1908 C1909 1.349 . S
C1908 C1910 1.327 . S
C1908 H1933 0.950 . S
C1909 C1908 1.349 . S
C1909 C1925 1.349 . S
C1910 C1908 1.327 . S
C1910 C1929 1.429 . S
C1910 H1934 0.950 . S
C1911 C1928 1.574 . S
C1911 C1930 1.368 . S
C1911 H1935 0.949 . S
H1912 C1916 0.949 . S
C1913 C1914 1.349 . S
C1913 C1915 1.327 . S
C1913 H1936 0.950 . S
C1914 C1913 1.349 . S
C1914 C1926 1.349 . S
C1915 C1913 1.327 . S
C1915 C1931 1.429 . S
C1915 H1937 0.950 . S
C1916 H1912 0.949 . S
C1916 C1924 1.574 . S
C1916 C1932 1.368 . S
H1917 C1925 0.950 . S
H1918 C1923 0.950 . S
H1919 C1924 0.949 . S
H1920 C1926 0.950 . S
H1921 C1927 0.950 . S
H1922 C1928 0.949 . S
C1923 H1918 0.950 . S
C1923 C1925 1.327 . S
C1923 C1929 1.429 . S
C1924 C1916 1.574 . S
C1924 H1919 0.949 . S
C1924 C1930 1.368 . S
C1925 C1909 1.349 . S
C1925 H1917 0.950 . S
C1925 C1923 1.327 . S
C1926 C1914 1.349 . S
C1926 H1920 0.950 . S
C1926 C1927 1.327 . S
C1927 H1921 0.950 . S
C1927 C1926 1.327 . S
C1927 C1931 1.429 . S
C1928 C1911 1.574 . S
C1928 H1922 0.949 . S
C1928 C1932 1.368 . S
C1929 C1910 1.429 . S
C1929 C1923 1.429 . S
C1929 C1930 1.523 . S
C1930 C1911 1.368 . S
C1930 C1924 1.368 . S
C1930 C1929 1.523 . S
C1931 C1915 1.429 . S
C1931 C1927 1.429 . S
C1931 C1932 1.523 . S
C1932 C1916 1.368 . S
C1932 C1928 1.368 . S
C1932 C1931 1.523 . S
H1933 C1908 0.950 . S
H1934 C1910 0.950 . S
H1935 C1911 0.949 . S
H1936 C1913 0.950 . S
H1937 C1915 0.950 . S
C1938 C1939 1.349 . S
C1938 C1940 1.327 . S
C1938 H1963 0.950 . S
C1939 C1938 1.349 . S
C1939 C1955 1.349 . S
C1940 C1938 1.327 . S
C1940 C1959 1.429 . S
C1940 H1964 0.950 . S
C1941 C1958 1.574 . S
C1941 C1960 1.368 . S
C1941 H1965 0.949 . S
H1942 C1946 0.949 . S
C1943 C1944 1.349 . S
C1943 C1945 1.327 . S
C1943 H1966 0.950 . S
C1944 C1943 1.349 . S
C1944 C1956 1.349 . S
C1945 C1943 1.327 . S
C1945 C1961 1.429 . S
C1945 H1967 0.950 . S
C1946 H1942 0.949 . S
C1946 C1954 1.574 . S
C1946 C1962 1.368 . S
H1947 C1955 0.950 . S
H1948 C1953 0.950 . S
H1949 C1954 0.949 . S
H1950 C1956 0.950 . S
H1951 C1957 0.950 . S
H1952 C1958 0.949 . S
C1953 H1948 0.950 . S
C1953 C1955 1.327 . S
C1953 C1959 1.429 . S
C1954 C1946 1.574 . S
C1954 H1949 0.949 . S
C1954 C1960 1.368 . S
C1955 C1939 1.349 . S
C1955 H1947 0.950 . S
C1955 C1953 1.327 . S
C1956 C1944 1.349 . S
C1956 H1950 0.950 . S
C1956 C1957 1.327 . S
C1957 H1951 0.950 . S
C1957 C1956 1.327 . S
C1957 C1961 1.429 . S
C1958 C1941 1.574 . S
C1958 H1952 0.949 . S
C1958 C1962 1.368 . S
C1959 C1940 1.429 . S
C1959 C1953 1.429 . S
C1959 C1960 1.523 . S
C1960 C1941 1.368 . S
C1960 C1954 1.368 . S
C1960 C1959 1.523 . S
C1961 C1945 1.429 . S
C1961 C1957 1.429 . S
C1961 C1962 1.523 . S
C1962 C1946 1.368 . S
C1962 C1958 1.368 . S
C1962 C1961 1.523 . S
H1963 C1938 0.950 . S
H1964 C1940 0.950 . S
H1965 C1941 0.949 . S
H1966 C1943 0.950 . S
H1967 C1945 0.950 . S
C1968 C1969 1.349 . S
C1968 C1970 1.327 . S
C1968 H1993 0.950 . S
C1969 C1968 1.349 . S
C1969 C1985 1.349 . S
C1970 C1968 1.327 . S
C1970 C1989 1.429 . S
C1970 H1994 0.950 . S
C1971 C1988 1.574 . S
C1971 C1990 1.368 . S
C1971 H1995 0.949 . S
H1972 C1976 0.949 . S
C1973 C1974 1.349 . S
C1973 C1975 1.327 . S
C1973 H1996 0.950 . S
C1974 C1973 1.349 . S
C1974 C1986 1.349 . S
C1975 C1973 1.327 . S
C1975 C1991 1.429 . S
C1975 H1997 0.950 . S
C1976 H1972 0.949 . S
C1976 C1984 1.574 . S
C1976 C1992 1.368 . S
H1977 C1985 0.950 . S
H1978 C1983 0.950 . S
H1979 C1984 0.949 . S
H1980 C1986 0.950 . S
H1981 C1987 0.950 . S
H1982 C1988 0.949 . S
C1983 H1978 0.950 . S
C1983 C1985 1.327 . S
C1983 C1989 1.429 . S
C1984 C1976 1.574 . S
C1984 H1979 0.949 . S
C1984 C1990 1.368 . S
C1985 C1969 1.349 . S
C1985 H1977 0.950 . S
C1985 C1983 1.327 . S
C1986 C1974 1.349 . S
C1986 H1980 0.950 . S
C1986 C1987 1.327 . S
C1987 H1981 0.950 . S
C1987 C1986 1.327 . S
C1987 C1991 1.429 . S
C1988 C1971 1.574 . S
C1988 H1982 0.949 . S
C1988 C1992 1.368 . S
C1989 C1970 1.429 . S
C1989 C1983 1.429 . S
C1989 C1990 1.523 . S
C1990 C1971 1.368 . S
C1990 C1984 1.368 . S
C1990 C1989 1.523 . S
C1991 C1975 1.429 . S
C1991 C1987 1.429 . S
C1991 C1992 1.523 . S
C1992 C1976 1.368 . S
C1992 C1988 1.368 . S
C1992 C1991 1.523 . S
H1993 C1968 0.950 . S
H1994 C1970 0.950 . S
H1995 C1971 0.949 . S
H1996 C1973 0.950 . S
H1997 C1975 0.950 . S
C1998 C1999 1.349 . S
C1998 C2000 1.327 . S
C1998 H2023 0.950 . S
C1999 C1998 1.349 . S
C1999 C2015 1.349 . S
C2000 C1998 1.327 . S
C2000 C2019 1.429 . S
C2000 H2024 0.950 . S
C2001 C2018 1.574 . S
C2001 C2020 1.368 . S
C2001 H2025 0.949 . S
H2002 C2006 0.949 . S
C2003 C2004 1.349 . S
C2003 C2005 1.327 . S
C2003 H2026 0.950 . S
C2004 C2003 1.349 . S
C2004 C2016 1.349 . S
C2005 C2003 1.327 . S
C2005 C2021 1.429 . S
C2005 H2027 0.950 . S
C2006 H2002 0.949 . S
C2006 C2014 1.574 . S
C2006 C2022 1.368 . S
H2007 C2015 0.950 . S
H2008 C2013 0.950 . S
H2009 C2014 0.949 . S
H2010 C2016 0.950 . S
H2011 C2017 0.950 . S
H2012 C2018 0.949 . S
C2013 H2008 0.950 . S
C2013 C2015 1.327 . S
C2013 C2019 1.429 . S
C2014 C2006 1.574 . S
C2014 H2009 0.949 . S
C2014 C2020 1.368 . S
C2015 C1999 1.349 . S
C2015 H2007 0.950 . S
C2015 C2013 1.327 . S
C2016 C2004 1.349 . S
C2016 H2010 0.950 . S
C2016 C2017 1.327 . S
C2017 H2011 0.950 . S
C2017 C2016 1.327 . S
C2017 C2021 1.429 . S
C2018 C2001 1.574 . S
C2018 H2012 0.949 . S
C2018 C2022 1.368 . S
C2019 C2000 1.429 . S
C2019 C2013 1.429 . S
C2019 C2020 1.523 . S
C2020 C2001 1.368 . S
C2020 C2014 1.368 . S
C2020 C2019 1.523 . S
C2021 C2005 1.429 . S
C2021 C2017 1.429 . S
C2021 C2022 1.523 . S
C2022 C2006 1.368 . S
C2022 C2018 1.368 . S
C2022 C2021 1.523 . S
H2023 C1998 0.950 . S
H2024 C2000 0.950 . S
H2025 C2001 0.949 . S
H2026 C2003 0.950 . S
H2027 C2005 0.950 . S
C2028 C2029 1.349 . S
C2028 C2030 1.327 . S
C2028 H2053 0.950 . S
C2029 C2028 1.349 . S
C2029 C2045 1.349 . S
C2030 C2028 1.327 . S
C2030 C2049 1.429 . S
C2030 H2054 0.950 . S
C2031 C2048 1.574 . S
C2031 C2050 1.368 . S
C2031 H2055 0.949 . S
H2032 C2036 0.949 . S
C2033 C2034 1.349 . S
C2033 C2035 1.327 . S
C2033 H2056 0.950 . S
C2034 C2033 1.349 . S
C2034 C2046 1.349 . S
C2035 C2033 1.327 . S
C2035 C2051 1.429 . S
C2035 H2057 0.950 . S
C2036 H2032 0.949 . S
C2036 C2044 1.574 . S
C2036 C2052 1.368 . S
H2037 C2045 0.950 . S
H2038 C2043 0.950 . S
H2039 C2044 0.949 . S
H2040 C2046 0.950 . S
H2041 C2047 0.950 . S
H2042 C2048 0.949 . S
C2043 H2038 0.950 . S
C2043 C2045 1.327 . S
C2043 C2049 1.429 . S
C2044 C2036 1.574 . S
C2044 H2039 0.949 . S
C2044 C2050 1.368 . S
C2045 C2029 1.349 . S
C2045 H2037 0.950 . S
C2045 C2043 1.327 . S
C2046 C2034 1.349 . S
C2046 H2040 0.950 . S
C2046 C2047 1.327 . S
C2047 H2041 0.950 . S
C2047 C2046 1.327 . S
C2047 C2051 1.429 . S
C2048 C2031 1.574 . S
C2048 H2042 0.949 . S
C2048 C2052 1.368 . S
C2049 C2030 1.429 . S
C2049 C2043 1.429 . S
C2049 C2050 1.523 . S
C2050 C2031 1.368 . S
C2050 C2044 1.368 . S
C2050 C2049 1.523 . S
C2051 C2035 1.429 . S
C2051 C2047 1.429 . S
C2051 C2052 1.523 . S
C2052 C2036 1.368 . S
C2052 C2048 1.368 . S
C2052 C2051 1.523 . S
H2053 C2028 0.950 . S
H2054 C2030 0.950 . S
H2055 C2031 0.949 . S
H2056 C2033 0.950 . S
H2057 C2035 0.950 . S
C2058 C2059 1.349 . S
C2058 C2060 1.327 . S
C2058 H2083 0.950 . S
C2059 C2058 1.349 . S
C2059 C2075 1.349 . S
C2060 C2058 1.327 . S
C2060 C2079 1.429 . S
C2060 H2084 0.950 . S
C2061 C2078 1.574 . S
C2061 C2080 1.368 . S
C2061 H2085 0.949 . S
H2062 C2066 0.949 . S
C2063 C2064 1.349 . S
C2063 C2065 1.327 . S
C2063 H2086 0.950 . S
C2064 C2063 1.349 . S
C2064 C2076 1.349 . S
C2065 C2063 1.327 . S
C2065 C2081 1.429 . S
C2065 H2087 0.950 . S
C2066 H2062 0.949 . S
C2066 C2074 1.574 . S
C2066 C2082 1.368 . S
H2067 C2075 0.950 . S
H2068 C2073 0.950 . S
H2069 C2074 0.949 . S
H2070 C2076 0.950 . S
H2071 C2077 0.950 . S
H2072 C2078 0.949 . S
C2073 H2068 0.950 . S
C2073 C2075 1.327 . S
C2073 C2079 1.429 . S
C2074 C2066 1.574 . S
C2074 H2069 0.949 . S
C2074 C2080 1.368 . S
C2075 C2059 1.349 . S
C2075 H2067 0.950 . S
C2075 C2073 1.327 . S
C2076 C2064 1.349 . S
C2076 H2070 0.950 . S
C2076 C2077 1.327 . S
C2077 H2071 0.950 . S
C2077 C2076 1.327 . S
C2077 C2081 1.429 . S
C2078 C2061 1.574 . S
C2078 H2072 0.949 . S
C2078 C2082 1.368 . S
C2079 C2060 1.429 . S
C2079 C2073 1.429 . S
C2079 C2080 1.523 . S
C2080 C2061 1.368 . S
C2080 C2074 1.368 . S
C2080 C2079 1.523 . S
C2081 C2065 1.429 . S
C2081 C2077 1.429 . S
C2081 C2082 1.523 . S
C2082 C2066 1.368 . S
C2082 C2078 1.368 . S
C2082 C2081 1.523 . S
H2083 C2058 0.950 . S
H2084 C2060 0.950 . S
H2085 C2061 0.949 . S
H2086 C2063 0.950 . S
H2087 C2065 0.950 . S
C2088 C2089 1.349 . S
C2088 C2090 1.327 . S
C2088 H2113 0.950 . S
C2089 C2088 1.349 . S
C2089 C2105 1.349 . S
C2090 C2088 1.327 . S
C2090 C2109 1.429 . S
C2090 H2114 0.950 . S
C2091 C2108 1.574 . S
C2091 C2110 1.368 . S
C2091 H2115 0.949 . S
H2092 C2096 0.949 . S
C2093 C2094 1.349 . S
C2093 C2095 1.327 . S
C2093 H2116 0.950 . S
C2094 C2093 1.349 . S
C2094 C2106 1.349 . S
C2095 C2093 1.327 . S
C2095 C2111 1.429 . S
C2095 H2117 0.950 . S
C2096 H2092 0.949 . S
C2096 C2104 1.574 . S
C2096 C2112 1.368 . S
H2097 C2105 0.950 . S
H2098 C2103 0.950 . S
H2099 C2104 0.949 . S
H2100 C2106 0.950 . S
H2101 C2107 0.950 . S
H2102 C2108 0.949 . S
C2103 H2098 0.950 . S
C2103 C2105 1.327 . S
C2103 C2109 1.429 . S
C2104 C2096 1.574 . S
C2104 H2099 0.949 . S
C2104 C2110 1.368 . S
C2105 C2089 1.349 . S
C2105 H2097 0.950 . S
C2105 C2103 1.327 . S
C2106 C2094 1.349 . S
C2106 H2100 0.950 . S
C2106 C2107 1.327 . S
C2107 H2101 0.950 . S
C2107 C2106 1.327 . S
C2107 C2111 1.429 . S
C2108 C2091 1.574 . S
C2108 H2102 0.949 . S
C2108 C2112 1.368 . S
C2109 C2090 1.429 . S
C2109 C2103 1.429 . S
C2109 C2110 1.523 . S
C2110 C2091 1.368 . S
C2110 C2104 1.368 . S
C2110 C2109 1.523 . S
C2111 C2095 1.429 . S
C2111 C2107 1.429 . S
C2111 C2112 1.523 . S
C2112 C2096 1.368 . S
C2112 C2108 1.368 . S
C2112 C2111 1.523 . S
H2113 C2088 0.950 . S
H2114 C2090 0.950 . S
H2115 C2091 0.949 . S
H2116 C2093 0.950 . S
H2117 C2095 0.950 . S
C2118 C2119 1.349 . S
C2118 C2120 1.327 . S
C2118 H2143 0.950 . S
C2119 C2118 1.349 . S
C2119 C2135 1.349 . S
C2120 C2118 1.327 . S
C2120 C2139 1.429 . S
C2120 H2144 0.950 . S
C2121 C2138 1.574 . S
C2121 C2140 1.368 . S
C2121 H2145 0.949 . S
H2122 C2126 0.949 . S
C2123 C2124 1.349 . S
C2123 C2125 1.327 . S
C2123 H2146 0.950 . S
C2124 C2123 1.349 . S
C2124 C2136 1.349 . S
C2125 C2123 1.327 . S
C2125 C2141 1.429 . S
C2125 H2147 0.950 . S
C2126 H2122 0.949 . S
C2126 C2134 1.574 . S
C2126 C2142 1.368 . S
H2127 C2135 0.950 . S
H2128 C2133 0.950 . S
H2129 C2134 0.949 . S
H2130 C2136 0.950 . S
H2131 C2137 0.950 . S
H2132 C2138 0.949 . S
C2133 H2128 0.950 . S
C2133 C2135 1.327 . S
C2133 C2139 1.429 . S
C2134 C2126 1.574 . S
C2134 H2129 0.949 . S
C2134 C2140 1.368 . S
C2135 C2119 1.349 . S
C2135 H2127 0.950 . S
C2135 C2133 1.327 . S
C2136 C2124 1.349 . S
C2136 H2130 0.950 . S
C2136 C2137 1.327 . S
C2137 H2131 0.950 . S
C2137 C2136 1.327 . S
C2137 C2141 1.429 . S
C2138 C2121 1.574 . S
C2138 H2132 0.949 . S
C2138 C2142 1.368 . S
C2139 C2120 1.429 . S
C2139 C2133 1.429 . S
C2139 C2140 1.523 . S
C2140 C2121 1.368 . S
C2140 C2134 1.368 . S
C2140 C2139 1.523 . S
C2141 C2125 1.429 . S
C2141 C2137 1.429 . S
C2141 C2142 1.523 . S
C2142 C2126 1.368 . S
C2142 C2138 1.368 . S
C2142 C2141 1.523 . S
H2143 C2118 0.950 . S
H2144 C2120 0.950 . S
H2145 C2121 0.949 . S
H2146 C2123 0.950 . S
H2147 C2125 0.950 . S
C2148 C2149 1.349 . S
C2148 C2150 1.327 . S
C2148 H2173 0.950 . S
C2149 C2148 1.349 . S
C2149 C2165 1.349 . S
C2150 C2148 1.327 . S
C2150 C2169 1.429 . S
C2150 H2174 0.950 . S
C2151 C2168 1.574 . S
C2151 C2170 1.368 . S
C2151 H2175 0.949 . S
H2152 C2156 0.949 . S
C2153 C2154 1.349 . S
C2153 C2155 1.327 . S
C2153 H2176 0.950 . S
C2154 C2153 1.349 . S
C2154 C2166 1.349 . S
C2155 C2153 1.327 . S
C2155 C2171 1.429 . S
C2155 H2177 0.950 . S
C2156 H2152 0.949 . S
C2156 C2164 1.574 . S
C2156 C2172 1.368 . S
H2157 C2165 0.950 . S
H2158 C2163 0.950 . S
H2159 C2164 0.949 . S
H2160 C2166 0.950 . S
H2161 C2167 0.950 . S
H2162 C2168 0.949 . S
C2163 H2158 0.950 . S
C2163 C2165 1.327 . S
C2163 C2169 1.429 . S
C2164 C2156 1.574 . S
C2164 H2159 0.949 . S
C2164 C2170 1.368 . S
C2165 C2149 1.349 . S
C2165 H2157 0.950 . S
C2165 C2163 1.327 . S
C2166 C2154 1.349 . S
C2166 H2160 0.950 . S
C2166 C2167 1.327 . S
C2167 H2161 0.950 . S
C2167 C2166 1.327 . S
C2167 C2171 1.429 . S
C2168 C2151 1.574 . S
C2168 H2162 0.949 . S
C2168 C2172 1.368 . S
C2169 C2150 1.429 . S
C2169 C2163 1.429 . S
C2169 C2170 1.523 . S
C2170 C2151 1.368 . S
C2170 C2164 1.368 . S
C2170 C2169 1.523 . S
C2171 C2155 1.429 . S
C2171 C2167 1.429 . S
C2171 C2172 1.523 . S
C2172 C2156 1.368 . S
C2172 C2168 1.368 . S
C2172 C2171 1.523 . S
H2173 C2148 0.950 . S
H2174 C2150 0.950 . S
H2175 C2151 0.949 . S
H2176 C2153 0.950 . S
H2177 C2155 0.950 . S
C2178 C2179 1.349 . S
C2178 C2180 1.327 . S
C2178 H2203 0.950 . S
C2179 C2178 1.349 . S
C2179 C2195 1.349 . S
C2180 C2178 1.327 . S
C2180 C2199 1.429 . S
C2180 H2204 0.950 . S
C2181 C2198 1.574 . S
C2181 C2200 1.368 . S
C2181 H2205 0.949 . S
H2182 C2186 0.949 . S
C2183 C2184 1.349 . S
C2183 C2185 1.327 . S
C2183 H2206 0.950 . S
C2184 C2183 1.349 . S
C2184 C2196 1.349 . S
C2185 C2183 1.327 . S
C2185 C2201 1.429 . S
C2185 H2207 0.950 . S
C2186 H2182 0.949 . S
C2186 C2194 1.574 . S
C2186 C2202 1.368 . S
H2187 C2195 0.950 . S
H2188 C2193 0.950 . S
H2189 C2194 0.949 . S
H2190 C2196 0.950 . S
H2191 C2197 0.950 . S
H2192 C2198 0.949 . S
C2193 H2188 0.950 . S
C2193 C2195 1.327 . S
C2193 C2199 1.429 . S
C2194 C2186 1.574 . S
C2194 H2189 0.949 . S
C2194 C2200 1.368 . S
C2195 C2179 1.349 . S
C2195 H2187 0.950 . S
C2195 C2193 1.327 . S
C2196 C2184 1.349 . S
C2196 H2190 0.950 . S
C2196 C2197 1.327 . S
C2197 H2191 0.950 . S
C2197 C2196 1.327 . S
C2197 C2201 1.429 . S
C2198 C2181 1.574 . S
C2198 H2192 0.949 . S
C2198 C2202 1.368 . S
C2199 C2180 1.429 . S
C2199 C2193 1.429 . S
C2199 C2200 1.523 . S
C2200 C2181 1.368 . S
C2200 C2194 1.368 . S
C2200 C2199 1.523 . S
C2201 C2185 1.429 . S
C2201 C2197 1.429 . S
C2201 C2202 1.523 . S
C2202 C2186 1.368 . S
C2202 C2198 1.368 . S
C2202 C2201 1.523 . S
H2203 C2178 0.950 . S
H2204 C2180 0.950 . S
H2205 C2181 0.949 . S
H2206 C2183 0.950 . S
H2207 C2185 0.950 . S
C2208 C2209 1.349 . S
C2208 C2210 1.327 . S
C2208 H2233 0.950 . S
C2209 C2208 1.349 . S
C2209 C2225 1.349 . S
C2210 C2208 1.327 . S
C2210 C2229 1.429 . S
C2210 H2234 0.950 . S
C2211 C2228 1.574 . S
C2211 C2230 1.368 . S
C2211 H2235 0.949 . S
H2212 C2216 0.949 . S
C2213 C2214 1.349 . S
C2213 C2215 1.327 . S
C2213 H2236 0.950 . S
C2214 C2213 1.349 . S
C2214 C2226 1.349 . S
C2215 C2213 1.327 . S
C2215 C2231 1.429 . S
C2215 H2237 0.950 . S
C2216 H2212 0.949 . S
C2216 C2224 1.574 . S
C2216 C2232 1.368 . S
H2217 C2225 0.950 . S
H2218 C2223 0.950 . S
H2219 C2224 0.949 . S
H2220 C2226 0.950 . S
H2221 C2227 0.950 . S
H2222 C2228 0.949 . S
C2223 H2218 0.950 . S
C2223 C2225 1.327 . S
C2223 C2229 1.429 . S
C2224 C2216 1.574 . S
C2224 H2219 0.949 . S
C2224 C2230 1.368 . S
C2225 C2209 1.349 . S
C2225 H2217 0.950 . S
C2225 C2223 1.327 . S
C2226 C2214 1.349 . S
C2226 H2220 0.950 . S
C2226 C2227 1.327 . S
C2227 H2221 0.950 . S
C2227 C2226 1.327 . S
C2227 C2231 1.429 . S
C2228 C2211 1.574 . S
C2228 H2222 0.949 . S
C2228 C2232 1.368 . S
C2229 C2210 1.429 . S
C2229 C2223 1.429 . S
C2229 C2230 1.523 . S
C2230 C2211 1.368 . S
C2230 C2224 1.368 . S
C2230 C2229 1.523 . S
C2231 C2215 1.429 . S
C2231 C2227 1.429 . S
C2231 C2232 1.523 . S
C2232 C2216 1.368 . S
C2232 C2228 1.368 . S
C2232 C2231 1.523 . S
H2233 C2208 0.950 . S
H2234 C2210 0.950 . S
H2235 C2211 0.949 . S
H2236 C2213 0.950 . S
H2237 C2215 0.950 . S
C2238 C2239 1.349 . S
C2238 C2240 1.327 . S
C2238 H2263 0.950 . S
C2239 C2238 1.349 . S
C2239 C2255 1.349 . S
C2240 C2238 1.327 . S
C2240 C2259 1.429 . S
C2240 H2264 0.950 . S
C2241 C2258 1.574 . S
C2241 C2260 1.368 . S
C2241 H2265 0.949 . S
H2242 C2246 0.949 . S
C2243 C2244 1.349 . S
C2243 C2245 1.327 . S
C2243 H2266 0.950 . S
C2244 C2243 1.349 . S
C2244 C2256 1.349 . S
C2245 C2243 1.327 . S
C2245 C2261 1.429 . S
C2245 H2267 0.950 . S
C2246 H2242 0.949 . S
C2246 C2254 1.574 . S
C2246 C2262 1.368 . S
H2247 C2255 0.950 . S
H2248 C2253 0.950 . S
H2249 C2254 0.949 . S
H2250 C2256 0.950 . S
H2251 C2257 0.950 . S
H2252 C2258 0.949 . S
C2253 H2248 0.950 . S
C2253 C2255 1.327 . S
C2253 C2259 1.429 . S
C2254 C2246 1.574 . S
C2254 H2249 0.949 . S
C2254 C2260 1.368 . S
C2255 C2239 1.349 . S
C2255 H2247 0.950 . S
C2255 C2253 1.327 . S
C2256 C2244 1.349 . S
C2256 H2250 0.950 . S
C2256 C2257 1.327 . S
C2257 H2251 0.950 . S
C2257 C2256 1.327 . S
C2257 C2261 1.429 . S
C2258 C2241 1.574 . S
C2258 H2252 0.949 . S
C2258 C2262 1.368 . S
C2259 C2240 1.429 . S
C2259 C2253 1.429 . S
C2259 C2260 1.523 . S
C2260 C2241 1.368 . S
C2260 C2254 1.368 . S
C2260 C2259 1.523 . S
C2261 C2245 1.429 . S
C2261 C2257 1.429 . S
C2261 C2262 1.523 . S
C2262 C2246 1.368 . S
C2262 C2258 1.368 . S
C2262 C2261 1.523 . S
H2263 C2238 0.950 . S
H2264 C2240 0.950 . S
H2265 C2241 0.949 . S
H2266 C2243 0.950 . S
H2267 C2245 0.950 . S
C2268 C2269 1.349 . S
C2268 C2270 1.327 . S
C2268 H2293 0.950 . S
C2269 C2268 1.349 . S
C2269 C2285 1.349 . S
C2270 C2268 1.327 . S
C2270 C2289 1.429 . S
C2270 H2294 0.950 . S
C2271 C2288 1.574 . S
C2271 C2290 1.368 . S
C2271 H2295 0.949 . S
H2272 C2276 0.949 . S
C2273 C2274 1.349 . S
C2273 C2275 1.327 . S
C2273 H2296 0.950 . S
C2274 C2273 1.349 . S
C2274 C2286 1.349 . S
C2275 C2273 1.327 . S
C2275 C2291 1.429 . S
C2275 H2297 0.950 . S
C2276 H2272 0.949 . S
C2276 C2284 1.574 . S
C2276 C2292 1.368 . S
H2277 C2285 0.950 . S
H2278 C2283 0.950 . S
H2279 C2284 0.949 . S
H2280 C2286 0.950 . S
H2281 C2287 0.950 . S
H2282 C2288 0.949 . S
C2283 H2278 0.950 . S
C2283 C2285 1.327 . S
C2283 C2289 1.429 . S
C2284 C2276 1.574 . S
C2284 H2279 0.949 . S
C2284 C2290 1.368 . S
C2285 C2269 1.349 . S
C2285 H2277 0.950 . S
C2285 C2283 1.327 . S
C2286 C2274 1.349 . S
C2286 H2280 0.950 . S
C2286 C2287 1.327 . S
C2287 H2281 0.950 . S
C2287 C2286 1.327 . S
C2287 C2291 1.429 . S
C2288 C2271 1.574 . S
C2288 H2282 0.949 . S
C2288 C2292 1.368 . S
C2289 C2270 1.429 . S
C2289 C2283 1.429 . S
C2289 C2290 1.523 . S
C2290 C2271 1.368 . S
C2290 C2284 1.368 . S
C2290 C2289 1.523 . S
C2291 C2275 1.429 . S
C2291 C2287 1.429 . S
C2291 C2292 1.523 . S
C2292 C2276 1.368 . S
C2292 C2288 1.368 . S
C2292 C2291 1.523 . S
H2293 C2268 0.950 . S
H2294 C2270 0.950 . S
H2295 C2271 0.949 . S
H2296 C2273 0.950 . S
H2297 C2275 0.950 . S
C2298 C2299 1.349 . S
C2298 C2300 1.327 . S
C2298 H2323 0.950 . S
C2299 C2298 1.349 . S
C2299 C2315 1.349 . S
C2300 C2298 1.327 . S
C2300 C2319 1.429 . S
C2300 H2324 0.950 . S
C2301 C2318 1.574 . S
C2301 C2320 1.368 . S
C2301 H2325 0.949 . S
H2302 C2306 0.949 . S
C2303 C2304 1.349 . S
C2303 C2305 1.327 . S
C2303 H2326 0.950 . S
C2304 C2303 1.349 . S
C2304 C2316 1.349 . S
C2305 C2303 1.327 . S
C2305 C2321 1.429 . S
C2305 H2327 0.950 . S
C2306 H2302 0.949 . S
C2306 C2314 1.574 . S
C2306 C2322 1.368 . S
H2307 C2315 0.950 . S
H2308 C2313 0.950 . S
H2309 C2314 0.949 . S
H2310 C2316 0.950 . S
H2311 C2317 0.950 . S
H2312 C2318 0.949 . S
C2313 H2308 0.950 . S
C2313 C2315 1.327 . S
C2313 C2319 1.429 . S
C2314 C2306 1.574 . S
C2314 H2309 0.949 . S
C2314 C2320 1.368 . S
C2315 C2299 1.349 . S
C2315 H2307 0.950 . S
C2315 C2313 1.327 . S
C2316 C2304 1.349 . S
C2316 H2310 0.950 . S
C2316 C2317 1.327 . S
C2317 H2311 0.950 . S
C2317 C2316 1.327 . S
C2317 C2321 1.429 . S
C2318 C2301 1.574 . S
C2318 H2312 0.949 . S
C2318 C2322 1.368 . S
C2319 C2300 1.429 . S
C2319 C2313 1.429 . S
C2319 C2320 1.523 . S
C2320 C2301 1.368 . S
C2320 C2314 1.368 . S
C2320 C2319 1.523 . S
C2321 C2305 1.429 . S
C2321 C2317 1.429 . S
C2321 C2322 1.523 . S
C2322 C2306 1.368 . S
C2322 C2318 1.368 . S
C2322 C2321 1.523 . S
H2323 C2298 0.950 . S
H2324 C2300 0.950 . S
H2325 C2301 0.949 . S
H2326 C2303 0.950 . S
H2327 C2305 0.950 . S
C2328 C2329 1.349 . S
C2328 C2330 1.327 . S
C2328 H2353 0.950 . S
C2329 C2328 1.349 . S
C2329 C2345 1.349 . S
C2330 C2328 1.327 . S
C2330 C2349 1.429 . S
C2330 H2354 0.950 . S
C2331 C2348 1.574 . S
C2331 C2350 1.368 . S
C2331 H2355 0.949 . S
H2332 C2336 0.949 . S
C2333 C2334 1.349 . S
C2333 C2335 1.327 . S
C2333 H2356 0.950 . S
C2334 C2333 1.349 . S
C2334 C2346 1.349 . S
C2335 C2333 1.327 . S
C2335 C2351 1.429 . S
C2335 H2357 0.950 . S
C2336 H2332 0.949 . S
C2336 C2344 1.574 . S
C2336 C2352 1.368 . S
H2337 C2345 0.950 . S
H2338 C2343 0.950 . S
H2339 C2344 0.949 . S
H2340 C2346 0.950 . S
H2341 C2347 0.950 . S
H2342 C2348 0.949 . S
C2343 H2338 0.950 . S
C2343 C2345 1.327 . S
C2343 C2349 1.429 . S
C2344 C2336 1.574 . S
C2344 H2339 0.949 . S
C2344 C2350 1.368 . S
C2345 C2329 1.349 . S
C2345 H2337 0.950 . S
C2345 C2343 1.327 . S
C2346 C2334 1.349 . S
C2346 H2340 0.950 . S
C2346 C2347 1.327 . S
C2347 H2341 0.950 . S
C2347 C2346 1.327 . S
C2347 C2351 1.429 . S
C2348 C2331 1.574 . S
C2348 H2342 0.949 . S
C2348 C2352 1.368 . S
C2349 C2330 1.429 . S
C2349 C2343 1.429 . S
C2349 C2350 1.523 . S
C2350 C2331 1.368 . S
C2350 C2344 1.368 . S
C2350 C2349 1.523 . S
C2351 C2335 1.429 . S
C2351 C2347 1.429 . S
C2351 C2352 1.523 . S
C2352 C2336 1.368 . S
C2352 C2348 1.368 . S
C2352 C2351 1.523 . S
H2353 C2328 0.950 . S
H2354 C2330 0.950 . S
H2355 C2331 0.949 . S
H2356 C2333 0.950 . S
H2357 C2335 0.950 . S
C2358 C2359 1.349 . S
C2358 C2360 1.327 . S
C2358 H2383 0.950 . S
C2359 C2358 1.349 . S
C2359 C2375 1.349 . S
C2360 C2358 1.327 . S
C2360 C2379 1.429 . S
C2360 H2384 0.950 . S
C2361 C2378 1.574 . S
C2361 C2380 1.368 . S
C2361 H2385 0.949 . S
H2362 C2366 0.949 . S
C2363 C2364 1.349 . S
C2363 C2365 1.327 . S
C2363 H2386 0.950 . S
C2364 C2363 1.349 . S
C2364 C2376 1.349 . S
C2365 C2363 1.327 . S
C2365 C2381 1.429 . S
C2365 H2387 0.950 . S
C2366 H2362 0.949 . S
C2366 C2374 1.574 . S
C2366 C2382 1.368 . S
H2367 C2375 0.950 . S
H2368 C2373 0.950 . S
H2369 C2374 0.949 . S
H2370 C2376 0.950 . S
H2371 C2377 0.950 . S
H2372 C2378 0.949 . S
C2373 H2368 0.950 . S
C2373 C2375 1.327 . S
C2373 C2379 1.429 . S
C2374 C2366 1.574 . S
C2374 H2369 0.949 . S
C2374 C2380 1.368 . S
C2375 C2359 1.349 . S
C2375 H2367 0.950 . S
C2375 C2373 1.327 . S
C2376 C2364 1.349 . S
C2376 H2370 0.950 . S
C2376 C2377 1.327 . S
C2377 H2371 0.950 . S
C2377 C2376 1.327 . S
C2377 C2381 1.429 . S
C2378 C2361 1.574 . S
C2378 H2372 0.949 . S
C2378 C2382 1.368 . S
C2379 C2360 1.429 . S
C2379 C2373 1.429 . S
C2379 C2380 1.523 . S
C2380 C2361 1.368 . S
C2380 C2374 1.368 . S
C2380 C2379 1.523 . S
C2381 C2365 1.429 . S
C2381 C2377 1.429 . S
C2381 C2382 1.523 . S
C2382 C2366 1.368 . S
C2382 C2378 1.368 . S
C2382 C2381 1.523 . S
H2383 C2358 0.950 . S
H2384 C2360 0.950 . S
H2385 C2361 0.949 . S
H2386 C2363 0.950 . S
H2387 C2365 0.950 . S
C2388 C2389 1.349 . S
C2388 C2390 1.327 . S
C2388 H2413 0.950 . S
C2389 C2388 1.349 . S
C2389 C2405 1.349 . S
C2390 C2388 1.327 . S
C2390 C2409 1.429 . S
C2390 H2414 0.950 . S
C2391 C2408 1.574 . S
C2391 C2410 1.368 . S
C2391 H2415 0.949 . S
H2392 C2396 0.949 . S
C2393 C2394 1.349 . S
C2393 C2395 1.327 . S
C2393 H2416 0.950 . S
C2394 C2393 1.349 . S
C2394 C2406 1.349 . S
C2395 C2393 1.327 . S
C2395 C2411 1.429 . S
C2395 H2417 0.950 . S
C2396 H2392 0.949 . S
C2396 C2404 1.574 . S
C2396 C2412 1.368 . S
H2397 C2405 0.950 . S
H2398 C2403 0.950 . S
H2399 C2404 0.949 . S
H2400 C2406 0.950 . S
H2401 C2407 0.950 . S
H2402 C2408 0.949 . S
C2403 H2398 0.950 . S
C2403 C2405 1.327 . S
C2403 C2409 1.429 . S
C2404 C2396 1.574 . S
C2404 H2399 0.949 . S
C2404 C2410 1.368 . S
C2405 C2389 1.349 . S
C2405 H2397 0.950 . S
C2405 C2403 1.327 . S
C2406 C2394 1.349 . S
C2406 H2400 0.950 . S
C2406 C2407 1.327 . S
C2407 H2401 0.950 . S
C2407 C2406 1.327 . S
C2407 C2411 1.429 . S
C2408 C2391 1.574 . S
C2408 H2402 0.949 . S
C2408 C2412 1.368 . S
C2409 C2390 1.429 . S
C2409 C2403 1.429 . S
C2409 C2410 1.523 . S
C2410 C2391 1.368 . S
C2410 C2404 1.368 . S
C2410 C2409 1.523 . S
C2411 C2395 1.429 . S
C2411 C2407 1.429 . S
C2411 C2412 1.523 . S
C2412 C2396 1.368 . S
C2412 C2408 1.368 . S
C2412 C2411 1.523 . S
H2413 C2388 0.950 . S
H2414 C2390 0.950 . S
H2415 C2391 0.949 . S
H2416 C2393 0.950 . S
H2417 C2395 0.950 . S
C2418 C2419 1.349 . S
C2418 C2420 1.327 . S
C2418 H2443 0.950 . S
C2419 C2418 1.349 . S
C2419 C2435 1.349 . S
C2420 C2418 1.327 . S
C2420 C2439 1.429 . S
C2420 H2444 0.950 . S
C2421 C2438 1.574 . S
C2421 C2440 1.368 . S
C2421 H2445 0.949 . S
H2422 C2426 0.949 . S
C2423 C2424 1.349 . S
C2423 C2425 1.327 . S
C2423 H2446 0.950 . S
C2424 C2423 1.349 . S
C2424 C2436 1.349 . S
C2425 C2423 1.327 . S
C2425 C2441 1.429 . S
C2425 H2447 0.950 . S
C2426 H2422 0.949 . S
C2426 C2434 1.574 . S
C2426 C2442 1.368 . S
H2427 C2435 0.950 . S
H2428 C2433 0.950 . S
H2429 C2434 0.949 . S
H2430 C2436 0.950 . S
H2431 C2437 0.950 . S
H2432 C2438 0.949 . S
C2433 H2428 0.950 . S
C2433 C2435 1.327 . S
C2433 C2439 1.429 . S
C2434 C2426 1.574 . S
C2434 H2429 0.949 . S
C2434 C2440 1.368 . S
C2435 C2419 1.349 . S
C2435 H2427 0.950 . S
C2435 C2433 1.327 . S
C2436 C2424 1.349 . S
C2436 H2430 0.950 . S
C2436 C2437 1.327 . S
C2437 H2431 0.950 . S
C2437 C2436 1.327 . S
C2437 C2441 1.429 . S
C2438 C2421 1.574 . S
C2438 H2432 0.949 . S
C2438 C2442 1.368 . S
C2439 C2420 1.429 . S
C2439 C2433 1.429 . S
C2439 C2440 1.523 . S
C2440 C2421 1.368 . S
C2440 C2434 1.368 . S
C2440 C2439 1.523 . S
C2441 C2425 1.429 . S
C2441 C2437 1.429 . S
C2441 C2442 1.523 . S
C2442 C2426 1.368 . S
C2442 C2438 1.368 . S
C2442 C2441 1.523 . S
H2443 C2418 0.950 . S
H2444 C2420 0.950 . S
H2445 C2421 0.949 . S
H2446 C2423 0.950 . S
H2447 C2425 0.950 . S
C2448 C2449 1.349 . S
C2448 C2450 1.327 . S
C2448 H2473 0.950 . S
C2449 C2448 1.349 . S
C2449 C2465 1.349 . S
C2450 C2448 1.327 . S
C2450 C2469 1.429 . S
C2450 H2474 0.950 . S
C2451 C2468 1.574 . S
C2451 C2470 1.368 . S
C2451 H2475 0.949 . S
H2452 C2456 0.949 . S
C2453 C2454 1.349 . S
C2453 C2455 1.327 . S
C2453 H2476 0.950 . S
C2454 C2453 1.349 . S
C2454 C2466 1.349 . S
C2455 C2453 1.327 . S
C2455 C2471 1.429 . S
C2455 H2477 0.950 . S
C2456 H2452 0.949 . S
C2456 C2464 1.574 . S
C2456 C2472 1.368 . S
H2457 C2465 0.950 . S
H2458 C2463 0.950 . S
H2459 C2464 0.949 . S
H2460 C2466 0.950 . S
H2461 C2467 0.950 . S
H2462 C2468 0.949 . S
C2463 H2458 0.950 . S
C2463 C2465 1.327 . S
C2463 C2469 1.429 . S
C2464 C2456 1.574 . S
C2464 H2459 0.949 . S
C2464 C2470 1.368 . S
C2465 C2449 1.349 . S
C2465 H2457 0.950 . S
C2465 C2463 1.327 . S
C2466 C2454 1.349 . S
C2466 H2460 0.950 . S
C2466 C2467 1.327 . S
C2467 H2461 0.950 . S
C2467 C2466 1.327 . S
C2467 C2471 1.429 . S
C2468 C2451 1.574 . S
C2468 H2462 0.949 . S
C2468 C2472 1.368 . S
C2469 C2450 1.429 . S
C2469 C2463 1.429 . S
C2469 C2470 1.523 . S
C2470 C2451 1.368 . S
C2470 C2464 1.368 . S
C2470 C2469 1.523 . S
C2471 C2455 1.429 . S
C2471 C2467 1.429 . S
C2471 C2472 1.523 . S
C2472 C2456 1.368 . S
C2472 C2468 1.368 . S
C2472 C2471 1.523 . S
H2473 C2448 0.950 . S
H2474 C2450 0.950 . S
H2475 C2451 0.949 . S
H2476 C2453 0.950 . S
H2477 C2455 0.950 . S
C2478 C2479 1.349 . S
C2478 C2480 1.327 . S
C2478 H2503 0.950 . S
C2479 C2478 1.349 . S
C2479 C2495 1.349 . S
C2480 C2478 1.327 . S
C2480 C2499 1.429 . S
C2480 H2504 0.950 . S
C2481 C2498 1.574 . S
C2481 C2500 1.368 . S
C2481 H2505 0.949 . S
H2482 C2486 0.949 . S
C2483 C2484 1.349 . S
C2483 C2485 1.327 . S
C2483 H2506 0.950 . S
C2484 C2483 1.349 . S
C2484 C2496 1.349 . S
C2485 C2483 1.327 . S
C2485 C2501 1.429 . S
C2485 H2507 0.950 . S
C2486 H2482 0.949 . S
C2486 C2494 1.574 . S
C2486 C2502 1.368 . S
H2487 C2495 0.950 . S
H2488 C2493 0.950 . S
H2489 C2494 0.949 . S
H2490 C2496 0.950 . S
H2491 C2497 0.950 . S
H2492 C2498 0.949 . S
C2493 H2488 0.950 . S
C2493 C2495 1.327 . S
C2493 C2499 1.429 . S
C2494 C2486 1.574 . S
C2494 H2489 0.949 . S
C2494 C2500 1.368 . S
C2495 C2479 1.349 . S
C2495 H2487 0.950 . S
C2495 C2493 1.327 . S
C2496 C2484 1.349 . S
C2496 H2490 0.950 . S
C2496 C2497 1.327 . S
C2497 H2491 0.950 . S
C2497 C2496 1.327 . S
C2497 C2501 1.429 . S
C2498 C2481 1.574 . S
C2498 H2492 0.949 . S
C2498 C2502 1.368 . S
C2499 C2480 1.429 . S
C2499 C2493 1.429 . S
C2499 C2500 1.523 . S
C2500 C2481 1.368 . S
C2500 C2494 1.368 . S
C2500 C2499 1.523 . S
C2501 C2485 1.429 . S
C2501 C2497 1.429 . S
C2501 C2502 1.523 . S
C2502 C2486 1.368 . S
C2502 C2498 1.368 . S
C2502 C2501 1.523 . S
H2503 C2478 0.950 . S
H2504 C2480 0.950 . S
H2505 C2481 0.949 . S
H2506 C2483 0.950 . S
H2507 C2485 0.950 . S
C2508 C2509 1.349 . S
C2508 C2510 1.327 . S
C2508 H2533 0.950 . S
C2509 C2508 1.349 . S
C2509 C2525 1.349 . S
C2510 C2508 1.327 . S
C2510 C2529 1.429 . S
C2510 H2534 0.950 . S
C2511 C2528 1.574 . S
C2511 C2530 1.368 . S
C2511 H2535 0.949 . S
H2512 C2516 0.949 . S
C2513 C2514 1.349 . S
C2513 C2515 1.327 . S
C2513 H2536 0.950 . S
C2514 C2513 1.349 . S
C2514 C2526 1.349 . S
C2515 C2513 1.327 . S
C2515 C2531 1.429 . S
C2515 H2537 0.950 . S
C2516 H2512 0.949 . S
C2516 C2524 1.574 . S
C2516 C2532 1.368 . S
H2517 C2525 0.950 . S
H2518 C2523 0.950 . S
H2519 C2524 0.949 . S
H2520 C2526 0.950 . S
H2521 C2527 0.950 . S
H2522 C2528 0.949 . S
C2523 H2518 0.950 . S
C2523 C2525 1.327 . S
C2523 C2529 1.429 . S
C2524 C2516 1.574 . S
C2524 H2519 0.949 . S
C2524 C2530 1.368 . S
C2525 C2509 1.349 . S
C2525 H2517 0.950 . S
C2525 C2523 1.327 . S
C2526 C2514 1.349 . S
C2526 H2520 0.950 . S
C2526 C2527 1.327 . S
C2527 H2521 0.950 . S
C2527 C2526 1.327 . S
C2527 C2531 1.429 . S
C2528 C2511 1.574 . S
C2528 H2522 0.949 . S
C2528 C2532 1.368 . S
C2529 C2510 1.429 . S
C2529 C2523 1.429 . S
C2529 C2530 1.523 . S
C2530 C2511 1.368 . S
C2530 C2524 1.368 . S
C2530 C2529 1.523 . S
C2531 C2515 1.429 . S
C2531 C2527 1.429 . S
C2531 C2532 1.523 . S
C2532 C2516 1.368 . S
C2532 C2528 1.368 . S
C2532 C2531 1.523 . S
H2533 C2508 0.950 . S
H2534 C2510 0.950 . S
H2535 C2511 0.949 . S
H2536 C2513 0.950 . S
H2537 C2515 0.950 . S
C2538 C2539 1.349 . S
C2538 C2540 1.327 . S
C2538 H2563 0.950 . S
C2539 C2538 1.349 . S
C2539 C2555 1.366 . S
C2540 C2538 1.327 . S
C2540 C2559 1.429 . S
C2540 H2564 0.950 . S
C2541 C2558 1.574 . S
C2541 C2560 1.368 . S
C2541 H2565 0.949 . S
H2542 C2546 0.949 . S
C2543 C2544 1.349 . S
C2543 C2545 1.327 . S
C2543 H2566 0.950 . S
C2544 C2543 1.349 . S
C2544 C2556 1.349 . S
C2545 C2543 1.327 . S
C2545 C2561 1.429 . S
C2545 H2567 0.950 . S
C2546 H2542 0.949 . S
C2546 C2554 1.574 . S
C2546 C2562 1.368 . S
H2547 C2555 0.914 1_554 S
H2548 C2553 0.950 . S
H2549 C2554 0.949 . S
H2550 C2556 0.950 . S
H2551 C2557 0.950 . S
H2552 C2558 0.949 . S
C2553 H2548 0.950 . S
C2553 C2555 1.348 . S
C2553 C2559 1.429 . S
C2554 C2546 1.574 . S
C2554 H2549 0.949 . S
C2554 C2560 1.368 . S
C2555 C2539 1.366 . S
C2555 H2547 0.914 1_556 S
C2555 C2553 1.348 . S
C2556 C2544 1.349 . S
C2556 H2550 0.950 . S
C2556 C2557 1.327 . S
C2557 H2551 0.950 . S
C2557 C2556 1.327 . S
C2557 C2561 1.429 . S
C2558 C2541 1.574 . S
C2558 H2552 0.949 . S
C2558 C2562 1.368 . S
C2559 C2540 1.429 . S
C2559 C2553 1.429 . S
C2559 C2560 1.523 . S
C2560 C2541 1.368 . S
C2560 C2554 1.368 . S
C2560 C2559 1.523 . S
C2561 C2545 1.429 . S
C2561 C2557 1.429 . S
C2561 C2562 1.523 . S
C2562 C2546 1.368 . S
C2562 C2558 1.368 . S
C2562 C2561 1.523 . S
H2563 C2538 0.950 . S
H2564 C2540 0.950 . S
H2565 C2541 0.949 . S
H2566 C2543 0.950 . S
H2567 C2545 0.950 . S
C2568 C2569 1.349 1_554 S
C2568 C2570 1.318 1_554 S
C2568 H2593 0.950 . S
C2569 C2568 1.349 1_556 S
C2569 C2585 1.349 . S
C2570 C2568 1.318 1_556 S
C2570 C2589 1.453 . S
C2570 H2594 0.935 1_556 S
C2571 C2588 1.574 . S
C2571 C2590 1.368 . S
C2571 H2595 0.949 . S
H2572 C2576 0.949 . S
C2573 C2574 1.349 . S
C2573 C2575 1.327 . S
C2573 H2596 0.950 . S
C2574 C2573 1.349 . S
C2574 C2586 1.349 . S
C2575 C2573 1.327 . S
C2575 C2591 1.429 . S
C2575 H2597 0.950 . S
C2576 H2572 0.949 . S
C2576 C2584 1.574 . S
C2576 C2592 1.368 . S
H2577 C2585 0.950 . S
H2578 C2583 0.950 . S
H2579 C2584 0.949 . S
H2580 C2586 0.950 . S
H2581 C2587 0.950 . S
H2582 C2588 0.949 . S
C2583 H2578 0.950 . S
C2583 C2585 1.327 . S
C2583 C2589 1.429 . S
C2584 C2576 1.574 . S
C2584 H2579 0.949 . S
C2584 C2590 1.368 . S
C2585 C2569 1.349 . S
C2585 H2577 0.950 . S
C2585 C2583 1.327 . S
C2586 C2574 1.349 . S
C2586 H2580 0.950 . S
C2586 C2587 1.327 . S
C2587 H2581 0.950 . S
C2587 C2586 1.327 . S
C2587 C2591 1.429 . S
C2588 C2571 1.574 . S
C2588 H2582 0.949 . S
C2588 C2592 1.368 . S
C2589 C2570 1.453 . S
C2589 C2583 1.429 . S
C2589 C2590 1.523 . S
C2590 C2571 1.368 . S
C2590 C2584 1.368 . S
C2590 C2589 1.523 . S
C2591 C2575 1.429 . S
C2591 C2587 1.429 . S
C2591 C2592 1.523 . S
C2592 C2576 1.368 . S
C2592 C2588 1.368 . S
C2592 C2591 1.523 . S
H2593 C2568 0.950 . S
H2594 C2570 0.935 1_554 S
H2595 C2571 0.949 . S
H2596 C2573 0.950 . S
H2597 C2575 0.950 . S
C2598 C2599 1.349 . S
C2598 C2600 1.327 . S
C2598 H2623 0.950 . S
C2599 C2598 1.349 . S
C2599 C2615 1.349 1_556 S
C2600 C2598 1.327 . S
C2600 C2619 1.429 . S
C2600 H2624 0.950 . S
C2601 C2618 1.574 . S
C2601 C2620 1.368 . S
C2601 H2625 0.949 . S
H2602 C2606 0.949 . S
C2603 C2604 1.349 . S
C2603 C2605 1.327 . S
C2603 H2626 0.950 . S
C2604 C2603 1.349 . S
C2604 C2616 1.349 . S
C2605 C2603 1.327 . S
C2605 C2621 1.429 . S
C2605 H2627 0.950 . S
C2606 H2602 0.949 . S
C2606 C2614 1.574 . S
C2606 C2622 1.368 . S
H2607 C2615 0.950 . S
H2608 C2613 0.950 1_554 S
H2609 C2614 0.949 . S
H2610 C2616 0.950 . S
H2611 C2617 0.950 . S
H2612 C2618 0.949 . S
C2613 H2608 0.950 1_556 S
C2613 C2615 1.327 1_556 S
C2613 C2619 1.429 . S
C2614 C2606 1.574 . S
C2614 H2609 0.949 . S
C2614 C2620 1.368 . S
C2615 C2599 1.349 1_554 S
C2615 H2607 0.950 . S
C2615 C2613 1.327 1_554 S
C2616 C2604 1.349 . S
C2616 H2610 0.950 . S
C2616 C2617 1.327 . S
C2617 H2611 0.950 . S
C2617 C2616 1.327 . S
C2617 C2621 1.429 . S
C2618 C2601 1.574 . S
C2618 H2612 0.949 . S
C2618 C2622 1.368 . S
C2619 C2600 1.429 . S
C2619 C2613 1.429 . S
C2619 C2620 1.523 . S
C2620 C2601 1.368 . S
C2620 C2614 1.368 . S
C2620 C2619 1.523 . S
C2621 C2605 1.429 . S
C2621 C2617 1.429 . S
C2621 C2622 1.523 . S
C2622 C2606 1.368 . S
C2622 C2618 1.368 . S
C2622 C2621 1.523 . S
H2623 C2598 0.950 . S
H2624 C2600 0.950 . S
H2625 C2601 0.949 . S
H2626 C2603 0.950 . S
H2627 C2605 0.950 . S
C2628 C2629 1.349 . S
C2628 C2630 1.327 . S
C2628 H2653 0.950 . S
C2629 C2628 1.349 . S
C2629 C2645 1.349 . S
C2630 C2628 1.327 . S
C2630 C2649 1.429 . S
C2630 H2654 0.950 . S
C2631 C2648 1.574 . S
C2631 C2650 1.368 . S
C2631 H2655 0.949 . S
H2632 C2636 0.949 . S
C2633 C2634 1.349 . S
C2633 C2635 1.327 . S
C2633 H2656 0.950 . S
C2634 C2633 1.349 . S
C2634 C2646 1.349 . S
C2635 C2633 1.327 . S
C2635 C2651 1.429 . S
C2635 H2657 0.950 . S
C2636 H2632 0.949 . S
C2636 C2644 1.574 . S
C2636 C2652 1.368 . S
H2637 C2645 0.939 1_554 S
H2638 C2643 0.950 . S
H2639 C2644 0.949 . S
H2640 C2646 0.950 . S
H2641 C2647 0.950 . S
H2642 C2648 0.949 . S
C2643 H2638 0.950 . S
C2643 C2645 1.327 . S
C2643 C2649 1.429 . S
C2644 C2636 1.574 . S
C2644 H2639 0.949 . S
C2644 C2650 1.368 . S
C2645 C2629 1.349 . S
C2645 H2637 0.939 1_556 S
C2645 C2643 1.327 . S
C2646 C2634 1.349 . S
C2646 H2640 0.950 . S
C2646 C2647 1.327 . S
C2647 H2641 0.950 . S
C2647 C2646 1.327 . S
C2647 C2651 1.429 . S
C2648 C2631 1.574 . S
C2648 H2642 0.949 . S
C2648 C2652 1.368 . S
C2649 C2630 1.429 . S
C2649 C2643 1.429 . S
C2649 C2650 1.523 . S
C2650 C2631 1.368 . S
C2650 C2644 1.368 . S
C2650 C2649 1.523 . S
C2651 C2635 1.429 . S
C2651 C2647 1.429 . S
C2651 C2652 1.523 . S
C2652 C2636 1.368 . S
C2652 C2648 1.368 . S
C2652 C2651 1.523 . S
H2653 C2628 0.950 . S
H2654 C2630 0.950 . S
H2655 C2631 0.949 . S
H2656 C2633 0.950 . S
H2657 C2635 0.950 . S
C2658 C2659 1.349 . S
C2658 C2660 1.327 . S
C2658 H2683 0.950 1_556 S
C2659 C2658 1.349 . S
C2659 C2675 1.349 . S
C2660 C2658 1.327 . S
C2660 C2679 1.429 . S
C2660 H2684 0.950 . S
C2661 C2678 1.574 . S
C2661 C2680 1.368 . S
C2661 H2685 0.949 . S
H2662 C2666 0.949 . S
C2663 C2664 1.349 . S
C2663 C2665 1.327 . S
C2663 H2686 0.950 . S
C2664 C2663 1.349 . S
C2664 C2676 1.349 . S
C2665 C2663 1.327 . S
C2665 C2681 1.429 . S
C2665 H2687 0.950 . S
C2666 H2662 0.949 . S
C2666 C2674 1.574 . S
C2666 C2682 1.368 . S
H2667 C2675 0.950 . S
H2668 C2673 0.950 . S
H2669 C2674 0.949 . S
H2670 C2676 0.950 . S
H2671 C2677 0.950 . S
H2672 C2678 0.949 . S
C2673 H2668 0.950 . S
C2673 C2675 1.327 . S
C2673 C2679 1.429 . S
C2674 C2666 1.574 . S
C2674 H2669 0.949 . S
C2674 C2680 1.368 . S
C2675 C2659 1.349 . S
C2675 H2667 0.950 . S
C2675 C2673 1.327 . S
C2676 C2664 1.349 . S
C2676 H2670 0.950 . S
C2676 C2677 1.327 . S
C2677 H2671 0.950 . S
C2677 C2676 1.327 . S
C2677 C2681 1.429 . S
C2678 C2661 1.574 . S
C2678 H2672 0.949 . S
C2678 C2682 1.368 . S
C2679 C2660 1.429 . S
C2679 C2673 1.429 . S
C2679 C2680 1.523 . S
C2680 C2661 1.368 . S
C2680 C2674 1.368 . S
C2680 C2679 1.523 . S
C2681 C2665 1.429 . S
C2681 C2677 1.429 . S
C2681 C2682 1.523 . S
C2682 C2666 1.368 . S
C2682 C2678 1.368 . S
C2682 C2681 1.523 . S
H2683 C2658 0.950 1_554 S
H2684 C2660 0.950 . S
H2685 C2661 0.949 . S
H2686 C2663 0.950 . S
H2687 C2665 0.950 . S
C2688 C2689 1.349 1_554 S
C2688 C2690 1.328 . S
C2688 H2713 0.950 . S
C2689 C2688 1.349 1_556 S
C2689 C2705 1.349 . S
C2690 C2688 1.328 . S
C2690 C2709 1.426 1_554 S
C2690 H2714 0.951 . S
C2691 C2708 1.574 . S
C2691 C2710 1.368 . S
C2691 H2715 0.949 . S
H2692 C2696 0.949 . S
C2693 C2694 1.349 . S
C2693 C2695 1.327 . S
C2693 H2716 0.950 . S
C2694 C2693 1.349 . S
C2694 C2706 1.349 . S
C2695 C2693 1.327 . S
C2695 C2711 1.429 . S
C2695 H2717 0.950 . S
C2696 H2692 0.949 . S
C2696 C2704 1.574 . S
C2696 C2712 1.368 . S
H2697 C2705 0.950 . S
H2698 C2703 0.950 . S
H2699 C2704 0.990 . S
H2700 C2706 0.950 . S
H2701 C2707 0.950 . S
H2702 C2708 0.949 . S
C2703 H2698 0.950 . S
C2703 C2705 1.327 . S
C2703 C2709 1.429 . S
C2704 C2696 1.574 . S
C2704 H2699 0.990 . S
C2704 C2710 1.368 . S
C2705 C2689 1.349 . S
C2705 H2697 0.950 . S
C2705 C2703 1.327 . S
C2706 C2694 1.349 . S
C2706 H2700 0.950 . S
C2706 C2707 1.327 . S
C2707 H2701 0.950 . S
C2707 C2706 1.327 . S
C2707 C2711 1.429 . S
C2708 C2691 1.574 . S
C2708 H2702 0.949 . S
C2708 C2712 1.368 . S
C2709 C2690 1.426 1_556 S
C2709 C2703 1.429 . S
C2709 C2710 1.523 . S
C2710 C2691 1.368 . S
C2710 C2704 1.368 . S
C2710 C2709 1.523 . S
C2711 C2695 1.429 . S
C2711 C2707 1.429 . S
C2711 C2712 1.523 . S
C2712 C2696 1.368 . S
C2712 C2708 1.368 . S
C2712 C2711 1.523 . S
H2713 C2688 0.950 . S
H2714 C2690 0.951 . S
H2715 C2691 0.949 . S
H2716 C2693 0.950 . S
H2717 C2695 0.950 . S
C2718 C2719 1.349 . S
C2718 C2720 1.327 . S
C2718 H2743 0.950 . S
C2719 C2718 1.349 . S
C2719 C2735 1.349 . S
C2720 C2718 1.327 . S
C2720 C2739 1.429 . S
C2720 H2744 0.950 . S
C2721 C2738 1.574 . S
C2721 C2740 1.368 . S
C2721 H2745 0.949 . S
H2722 C2726 0.949 . S
C2723 C2724 1.349 . S
C2723 C2725 1.327 . S
C2723 H2746 0.950 . S
C2724 C2723 1.349 . S
C2724 C2736 1.349 . S
C2725 C2723 1.327 . S
C2725 C2741 1.429 . S
C2725 H2747 0.950 . S
C2726 H2722 0.949 . S
C2726 C2734 1.574 . S
C2726 C2742 1.368 . S
H2727 C2735 0.950 . S
H2728 C2733 0.950 . S
H2729 C2734 0.949 . S
H2730 C2736 0.950 . S
H2731 C2737 0.950 . S
H2732 C2738 0.949 . S
C2733 H2728 0.950 . S
C2733 C2735 1.327 . S
C2733 C2739 1.429 . S
C2734 C2726 1.574 . S
C2734 H2729 0.949 . S
C2734 C2740 1.368 . S
C2735 C2719 1.349 . S
C2735 H2727 0.950 . S
C2735 C2733 1.327 . S
C2736 C2724 1.349 . S
C2736 H2730 0.950 . S
C2736 C2737 1.327 . S
C2737 H2731 0.950 . S
C2737 C2736 1.327 . S
C2737 C2741 1.429 . S
C2738 C2721 1.574 . S
C2738 H2732 0.949 . S
C2738 C2742 1.368 . S
C2739 C2720 1.429 . S
C2739 C2733 1.429 . S
C2739 C2740 1.523 . S
C2740 C2721 1.368 . S
C2740 C2734 1.368 . S
C2740 C2739 1.523 . S
C2741 C2725 1.429 . S
C2741 C2737 1.429 . S
C2741 C2742 1.523 . S
C2742 C2726 1.368 . S
C2742 C2738 1.368 . S
C2742 C2741 1.523 . S
H2743 C2718 0.950 . S
H2744 C2720 0.950 . S
H2745 C2721 0.949 . S
H2746 C2723 0.950 . S
H2747 C2725 0.950 . S
C2748 C2749 1.349 . S
C2748 C2750 1.327 . S
C2748 H2773 0.950 . S
C2749 C2748 1.349 . S
C2749 C2765 1.349 . S
C2750 C2748 1.327 . S
C2750 C2769 1.429 . S
C2750 H2774 0.950 . S
C2751 C2768 1.574 . S
C2751 C2770 1.368 . S
C2751 H2775 0.949 . S
H2752 C2756 0.949 . S
C2753 C2754 1.349 . S
C2753 C2755 1.327 . S
C2753 H2776 0.950 . S
C2754 C2753 1.349 . S
C2754 C2766 1.349 . S
C2755 C2753 1.327 . S
C2755 C2771 1.429 . S
C2755 H2777 0.950 . S
C2756 H2752 0.949 . S
C2756 C2764 1.574 . S
C2756 C2772 1.368 . S
H2757 C2765 0.950 . S
H2758 C2763 0.950 . S
H2759 C2764 0.949 . S
H2760 C2766 0.950 . S
H2761 C2767 0.950 . S
H2762 C2768 0.949 . S
C2763 H2758 0.950 . S
C2763 C2765 1.327 . S
C2763 C2769 1.429 . S
C2764 C2756 1.574 . S
C2764 H2759 0.949 . S
C2764 C2770 1.368 . S
C2765 C2749 1.349 . S
C2765 H2757 0.950 . S
C2765 C2763 1.327 . S
C2766 C2754 1.349 . S
C2766 H2760 0.950 . S
C2766 C2767 1.327 . S
C2767 H2761 0.950 . S
C2767 C2766 1.327 . S
C2767 C2771 1.429 . S
C2768 C2751 1.574 . S
C2768 H2762 0.949 . S
C2768 C2772 1.368 . S
C2769 C2750 1.429 . S
C2769 C2763 1.429 . S
C2769 C2770 1.523 . S
C2770 C2751 1.368 . S
C2770 C2764 1.368 . S
C2770 C2769 1.523 . S
C2771 C2755 1.429 . S
C2771 C2767 1.429 . S
C2771 C2772 1.523 . S
C2772 C2756 1.368 . S
C2772 C2768 1.368 . S
C2772 C2771 1.523 . S
H2773 C2748 0.950 . S
H2774 C2750 0.950 . S
H2775 C2751 0.949 . S
H2776 C2753 0.950 . S
H2777 C2755 0.950 . S
C2778 C2779 1.349 . S
C2778 C2780 1.327 . S
C2778 H2803 0.950 . S
C2779 C2778 1.349 . S
C2779 C2795 1.349 . S
C2780 C2778 1.327 . S
C2780 C2799 1.429 . S
C2780 H2804 0.950 . S
C2781 C2798 1.574 . S
C2781 C2800 1.368 . S
C2781 H2805 0.949 . S
H2782 C2786 0.949 . S
C2783 C2784 1.349 . S
C2783 C2785 1.327 . S
C2783 H2806 0.950 . S
C2784 C2783 1.349 . S
C2784 C2796 1.349 . S
C2785 C2783 1.327 . S
C2785 C2801 1.429 . S
C2785 H2807 0.950 . S
C2786 H2782 0.949 . S
C2786 C2794 1.574 . S
C2786 C2802 1.368 . S
H2787 C2795 0.950 . S
H2788 C2793 0.950 . S
H2789 C2794 0.949 . S
H2790 C2796 0.950 . S
H2791 C2797 0.950 . S
H2792 C2798 0.949 . S
C2793 H2788 0.950 . S
C2793 C2795 1.327 . S
C2793 C2799 1.429 . S
C2794 C2786 1.574 . S
C2794 H2789 0.949 . S
C2794 C2800 1.368 . S
C2795 C2779 1.349 . S
C2795 H2787 0.950 . S
C2795 C2793 1.327 . S
C2796 C2784 1.349 . S
C2796 H2790 0.950 . S
C2796 C2797 1.327 . S
C2797 H2791 0.950 . S
C2797 C2796 1.327 . S
C2797 C2801 1.429 . S
C2798 C2781 1.574 . S
C2798 H2792 0.949 . S
C2798 C2802 1.368 . S
C2799 C2780 1.429 . S
C2799 C2793 1.429 . S
C2799 C2800 1.523 . S
C2800 C2781 1.368 . S
C2800 C2794 1.368 . S
C2800 C2799 1.523 . S
C2801 C2785 1.429 . S
C2801 C2797 1.429 . S
C2801 C2802 1.523 . S
C2802 C2786 1.368 . S
C2802 C2798 1.368 . S
C2802 C2801 1.523 . S
H2803 C2778 0.950 . S
H2804 C2780 0.950 . S
H2805 C2781 0.949 . S
H2806 C2783 0.950 . S
H2807 C2785 0.950 . S
C2808 C2809 1.349 . S
C2808 C2810 1.327 . S
C2808 H2833 0.950 . S
C2809 C2808 1.349 . S
C2809 C2825 1.349 . S
C2810 C2808 1.327 . S
C2810 C2829 1.429 . S
C2810 H2834 0.950 . S
C2811 C2828 1.574 . S
C2811 C2830 1.368 . S
C2811 H2835 0.949 . S
H2812 C2816 0.949 . S
C2813 C2814 1.349 . S
C2813 C2815 1.327 . S
C2813 H2836 0.950 . S
C2814 C2813 1.349 . S
C2814 C2826 1.349 . S
C2815 C2813 1.327 . S
C2815 C2831 1.429 . S
C2815 H2837 0.950 . S
C2816 H2812 0.949 . S
C2816 C2824 1.574 . S
C2816 C2832 1.368 . S
H2817 C2825 0.950 . S
H2818 C2823 0.950 . S
H2819 C2824 0.949 . S
H2820 C2826 0.950 . S
H2821 C2827 0.950 . S
H2822 C2828 0.949 . S
C2823 H2818 0.950 . S
C2823 C2825 1.327 . S
C2823 C2829 1.429 . S
C2824 C2816 1.574 . S
C2824 H2819 0.949 . S
C2824 C2830 1.368 . S
C2825 C2809 1.349 . S
C2825 H2817 0.950 . S
C2825 C2823 1.327 . S
C2826 C2814 1.349 . S
C2826 H2820 0.950 . S
C2826 C2827 1.327 . S
C2827 H2821 0.950 . S
C2827 C2826 1.327 . S
C2827 C2831 1.429 . S
C2828 C2811 1.574 . S
C2828 H2822 0.949 . S
C2828 C2832 1.368 . S
C2829 C2810 1.429 . S
C2829 C2823 1.429 . S
C2829 C2830 1.523 . S
C2830 C2811 1.368 . S
C2830 C2824 1.368 . S
C2830 C2829 1.523 . S
C2831 C2815 1.429 . S
C2831 C2827 1.429 . S
C2831 C2832 1.523 . S
C2832 C2816 1.368 . S
C2832 C2828 1.368 . S
C2832 C2831 1.523 . S
H2833 C2808 0.950 . S
H2834 C2810 0.950 . S
H2835 C2811 0.949 . S
H2836 C2813 0.950 . S
H2837 C2815 0.950 . S
C2838 C2839 1.349 . S
C2838 C2840 1.327 . S
C2838 H2863 0.950 . S
C2839 C2838 1.349 . S
C2839 C2855 1.349 . S
C2840 C2838 1.327 . S
C2840 C2859 1.429 . S
C2840 H2864 0.950 . S
C2841 C2858 1.574 . S
C2841 C2860 1.368 . S
C2841 H2865 0.949 . S
H2842 C2846 0.949 . S
C2843 C2844 1.349 . S
C2843 C2845 1.327 . S
C2843 H2866 0.950 . S
C2844 C2843 1.349 . S
C2844 C2856 1.349 . S
C2845 C2843 1.327 . S
C2845 C2861 1.429 . S
C2845 H2867 0.950 . S
C2846 H2842 0.949 . S
C2846 C2854 1.574 . S
C2846 C2862 1.368 . S
H2847 C2855 0.950 . S
H2848 C2853 0.950 . S
H2849 C2854 0.949 . S
H2850 C2856 0.950 . S
H2851 C2857 0.950 . S
H2852 C2858 0.949 . S
C2853 H2848 0.950 . S
C2853 C2855 1.327 . S
C2853 C2859 1.429 . S
C2854 C2846 1.574 . S
C2854 H2849 0.949 . S
C2854 C2860 1.368 . S
C2855 C2839 1.349 . S
C2855 H2847 0.950 . S
C2855 C2853 1.327 . S
C2856 C2844 1.349 . S
C2856 H2850 0.950 . S
C2856 C2857 1.327 . S
C2857 H2851 0.950 . S
C2857 C2856 1.327 . S
C2857 C2861 1.429 . S
C2858 C2841 1.574 . S
C2858 H2852 0.949 . S
C2858 C2862 1.368 . S
C2859 C2840 1.429 . S
C2859 C2853 1.429 . S
C2859 C2860 1.523 . S
C2860 C2841 1.368 . S
C2860 C2854 1.368 . S
C2860 C2859 1.523 . S
C2861 C2845 1.429 . S
C2861 C2857 1.429 . S
C2861 C2862 1.523 . S
C2862 C2846 1.368 . S
C2862 C2858 1.368 . S
C2862 C2861 1.523 . S
H2863 C2838 0.950 . S
H2864 C2840 0.950 . S
H2865 C2841 0.949 . S
H2866 C2843 0.950 . S
H2867 C2845 0.950 . S
C2868 C2869 1.349 . S
C2868 C2870 1.327 . S
C2868 H2893 0.950 . S
C2869 C2868 1.349 . S
C2869 C2885 1.349 . S
C2870 C2868 1.327 . S
C2870 C2889 1.429 . S
C2870 H2894 0.950 . S
C2871 C2888 1.574 . S
C2871 C2890 1.368 . S
C2871 H2895 0.949 . S
H2872 C2876 0.949 . S
C2873 C2874 1.349 . S
C2873 C2875 1.327 . S
C2873 H2896 0.950 . S
C2874 C2873 1.349 . S
C2874 C2886 1.349 . S
C2875 C2873 1.327 . S
C2875 C2891 1.429 . S
C2875 H2897 0.950 . S
C2876 H2872 0.949 . S
C2876 C2884 1.574 . S
C2876 C2892 1.368 . S
H2877 C2885 0.950 . S
H2878 C2883 0.950 . S
H2879 C2884 0.949 . S
H2880 C2886 0.950 . S
H2881 C2887 0.950 . S
H2882 C2888 0.949 . S
C2883 H2878 0.950 . S
C2883 C2885 1.327 . S
C2883 C2889 1.429 . S
C2884 C2876 1.574 . S
C2884 H2879 0.949 . S
C2884 C2890 1.368 . S
C2885 C2869 1.349 . S
C2885 H2877 0.950 . S
C2885 C2883 1.327 . S
C2886 C2874 1.349 . S
C2886 H2880 0.950 . S
C2886 C2887 1.327 . S
C2887 H2881 0.950 . S
C2887 C2886 1.327 . S
C2887 C2891 1.429 . S
C2888 C2871 1.574 . S
C2888 H2882 0.949 . S
C2888 C2892 1.368 . S
C2889 C2870 1.429 . S
C2889 C2883 1.429 . S
C2889 C2890 1.523 . S
C2890 C2871 1.368 . S
C2890 C2884 1.368 . S
C2890 C2889 1.523 . S
C2891 C2875 1.429 . S
C2891 C2887 1.429 . S
C2891 C2892 1.523 . S
C2892 C2876 1.368 . S
C2892 C2888 1.368 . S
C2892 C2891 1.523 . S
H2893 C2868 0.950 . S
H2894 C2870 0.950 . S
H2895 C2871 0.949 . S
H2896 C2873 0.950 . S
H2897 C2875 0.950 . S
C2898 C2899 1.349 . S
C2898 C2900 1.327 . S
C2898 H2923 0.950 . S
C2899 C2898 1.349 . S
C2899 C2915 1.349 . S
C2900 C2898 1.327 . S
C2900 C2919 1.429 . S
C2900 H2924 0.950 . S
C2901 C2918 1.574 . S
C2901 C2920 1.368 . S
C2901 H2925 0.949 . S
H2902 C2906 0.949 1_655 S
C2903 C2904 1.349 . S
C2903 C2905 1.327 . S
C2903 H2926 0.950 . S
C2904 C2903 1.349 . S
C2904 C2916 1.349 1_455 S
C2905 C2903 1.327 . S
C2905 C2921 1.429 . S
C2905 H2927 0.950 . S
C2906 H2902 0.949 1_455 S
C2906 C2914 1.574 . S
C2906 C2922 1.368 . S
H2907 C2915 0.950 . S
H2908 C2913 0.950 . S
H2909 C2914 0.949 . S
H2910 C2916 0.950 . S
H2911 C2917 0.946 1_655 S
H2912 C2918 0.949 . S
C2913 H2908 0.950 . S
C2913 C2915 1.327 . S
C2913 C2919 1.429 . S
C2914 C2906 1.574 . S
C2914 H2909 0.949 . S
C2914 C2920 1.368 . S
C2915 C2899 1.349 . S
C2915 H2907 0.950 . S
C2915 C2913 1.327 . S
C2916 C2904 1.349 1_655 S
C2916 H2910 0.950 . S
C2916 C2917 1.298 1_655 S
C2917 H2911 0.946 1_455 S
C2917 C2916 1.298 1_455 S
C2917 C2921 1.463 . S
C2918 C2901 1.574 . S
C2918 H2912 0.949 . S
C2918 C2922 1.368 . S
C2919 C2900 1.429 . S
C2919 C2913 1.429 . S
C2919 C2920 1.523 . S
C2920 C2901 1.368 . S
C2920 C2914 1.368 . S
C2920 C2919 1.523 . S
C2921 C2905 1.429 . S
C2921 C2917 1.463 . S
C2921 C2922 1.523 . S
C2922 C2906 1.368 . S
C2922 C2918 1.368 . S
C2922 C2921 1.523 . S
H2923 C2898 0.950 . S
H2924 C2900 0.950 . S
H2925 C2901 0.949 . S
H2926 C2903 0.950 . S
H2927 C2905 0.950 . S
C2928 C2929 1.349 . S
C2928 C2930 1.327 . S
C2928 H2953 0.950 . S
C2929 C2928 1.349 . S
C2929 C2945 1.349 . S
C2930 C2928 1.327 . S
C2930 C2949 1.429 . S
C2930 H2954 0.950 . S
C2931 C2948 1.574 . S
C2931 C2950 1.368 . S
C2931 H2955 0.949 . S
H2932 C2936 0.949 . S
C2933 C2934 1.349 . S
C2933 C2935 1.327 . S
C2933 H2956 0.950 . S
C2934 C2933 1.349 . S
C2934 C2946 1.349 . S
C2935 C2933 1.327 . S
C2935 C2951 1.429 . S
C2935 H2957 0.950 . S
C2936 H2932 0.949 . S
C2936 C2944 1.574 . S
C2936 C2952 1.368 . S
H2937 C2945 0.950 . S
H2938 C2943 0.950 . S
H2939 C2944 0.949 . S
H2940 C2946 0.950 . S
H2941 C2947 0.950 . S
H2942 C2948 0.949 . S
C2943 H2938 0.950 . S
C2943 C2945 1.327 . S
C2943 C2949 1.429 . S
C2944 C2936 1.574 . S
C2944 H2939 0.949 . S
C2944 C2950 1.368 . S
C2945 C2929 1.349 . S
C2945 H2937 0.950 . S
C2945 C2943 1.327 . S
C2946 C2934 1.349 . S
C2946 H2940 0.950 . S
C2946 C2947 1.327 . S
C2947 H2941 0.950 . S
C2947 C2946 1.327 . S
C2947 C2951 1.429 . S
C2948 C2931 1.574 . S
C2948 H2942 0.949 . S
C2948 C2952 1.368 . S
C2949 C2930 1.429 . S
C2949 C2943 1.429 . S
C2949 C2950 1.523 . S
C2950 C2931 1.368 . S
C2950 C2944 1.368 . S
C2950 C2949 1.523 . S
C2951 C2935 1.429 . S
C2951 C2947 1.429 . S
C2951 C2952 1.523 . S
C2952 C2936 1.368 . S
C2952 C2948 1.368 . S
C2952 C2951 1.523 . S
H2953 C2928 0.950 . S
H2954 C2930 0.950 . S
H2955 C2931 0.949 . S
H2956 C2933 0.950 . S
H2957 C2935 0.950 . S
C2958 C2959 1.349 . S
C2958 C2960 1.327 . S
C2958 H2983 0.950 . S
C2959 C2958 1.349 . S
C2959 C2975 1.349 . S
C2960 C2958 1.327 . S
C2960 C2979 1.429 . S
C2960 H2984 0.950 . S
C2961 C2978 1.574 . S
C2961 C2980 1.368 . S
C2961 H2985 0.926 1_565 S
H2962 C2966 0.949 . S
C2963 C2964 1.349 1_545 S
C2963 C2965 1.306 . S
C2963 H2986 0.950 . S
C2964 C2963 1.349 1_565 S
C2964 C2976 1.349 . S
C2965 C2963 1.306 . S
C2965 C2981 1.420 1_545 S
C2965 H2987 0.984 . S
C2966 H2962 0.949 . S
C2966 C2974 1.574 . S
C2966 C2982 1.368 . S
H2967 C2975 0.950 . S
H2968 C2973 0.950 . S
H2969 C2974 0.949 . S
H2970 C2976 0.950 . S
H2971 C2977 0.950 . S
H2972 C2978 0.949 1_545 S
C2973 H2968 0.950 . S
C2973 C2975 1.327 . S
C2973 C2979 1.429 . S
C2974 C2966 1.574 . S
C2974 H2969 0.949 . S
C2974 C2980 1.368 . S
C2975 C2959 1.349 . S
C2975 H2967 0.950 . S
C2975 C2973 1.327 . S
C2976 C2964 1.349 . S
C2976 H2970 0.950 . S
C2976 C2977 1.327 . S
C2977 H2971 0.950 . S
C2977 C2976 1.327 . S
C2977 C2981 1.429 . S
C2978 C2961 1.574 . S
C2978 H2972 0.949 1_565 S
C2978 C2982 1.368 . S
C2979 C2960 1.429 . S
C2979 C2973 1.429 . S
C2979 C2980 1.523 . S
C2980 C2961 1.368 . S
C2980 C2974 1.368 . S
C2980 C2979 1.523 . S
C2981 C2965 1.420 1_565 S
C2981 C2977 1.429 . S
C2981 C2982 1.523 . S
C2982 C2966 1.368 . S
C2982 C2978 1.368 . S
C2982 C2981 1.523 . S
H2983 C2958 0.950 . S
H2984 C2960 0.950 . S
H2985 C2961 0.926 1_545 S
H2986 C2963 0.950 . S
H2987 C2965 0.984 . S
C2988 C2989 1.349 . S
C2988 C2990 1.327 . S
C2988 H3013 0.943 1_565 S
C2989 C2988 1.349 . S
C2989 C3005 1.349 . S
C2990 C2988 1.327 . S
C2990 C3009 1.429 . S
C2990 H3014 0.950 1_565 S
C2991 C3008 1.574 . S
C2991 C3010 1.368 . S
C2991 H3015 0.949 . S
H2992 C2996 1.017 . S
C2993 C2994 1.349 . S
C2993 C2995 1.327 . S
C2993 H3016 0.950 . S
C2994 C2993 1.349 . S
C2994 C3006 1.349 1_565 S
C2995 C2993 1.327 . S
C2995 C3011 1.429 . S
C2995 H3017 0.950 . S
C2996 H2992 1.017 . S
C2996 C3004 1.535 1_545 S
C2996 C3012 1.333 1_545 S
H2997 C3005 0.950 . S
H2998 C3003 0.950 . S
H2999 C3004 0.949 1_545 S
H3000 C3006 0.950 . S
H3001 C3007 0.950 . S
H3002 C3008 0.949 . S
C3003 H2998 0.950 . S
C3003 C3005 1.327 . S
C3003 C3009 1.429 . S
C3004 C2996 1.535 1_565 S
C3004 H2999 0.949 1_565 S
C3004 C3010 1.368 . S
C3005 C2989 1.349 . S
C3005 H2997 0.950 . S
C3005 C3003 1.327 . S
C3006 C2994 1.349 1_545 S
C3006 H3000 0.950 . S
C3006 C3007 1.327 . S
C3007 H3001 0.950 . S
C3007 C3006 1.327 . S
C3007 C3011 1.429 1_545 S
C3008 C2991 1.574 . S
C3008 H3002 0.949 . S
C3008 C3012 1.368 . S
C3009 C2990 1.429 . S
C3009 C3003 1.429 . S
C3009 C3010 1.523 . S
C3010 C2991 1.368 . S
C3010 C3004 1.368 . S
C3010 C3009 1.523 . S
C3011 C2995 1.429 . S
C3011 C3007 1.429 1_565 S
C3011 C3012 1.523 . S
C3012 C2996 1.333 1_565 S
C3012 C3008 1.368 . S
C3012 C3011 1.523 . S
H3013 C2988 0.943 1_545 S
H3014 C2990 0.950 1_545 S
H3015 C2991 0.949 . S
H3016 C2993 0.950 . S
H3017 C2995 0.950 . S
C3018 C3019 1.349 . S
C3018 C3020 1.327 . S
C3018 H3043 0.950 . S
C3019 C3018 1.349 . S
C3019 C3035 1.349 . S
C3020 C3018 1.327 . S
C3020 C3039 1.429 . S
C3020 H3044 0.950 . S
C3021 C3038 1.574 . S
C3021 C3040 1.368 . S
C3021 H3045 0.949 . S
H3022 C3026 0.949 1_655 S
C3023 C3024 1.349 . S
C3023 C3025 1.327 . S
C3023 H3046 0.950 . S
C3024 C3023 1.349 . S
C3024 C3036 1.349 1_455 S
C3025 C3023 1.327 . S
C3025 C3041 1.429 . S
C3025 H3047 0.950 . S
C3026 H3022 0.949 1_455 S
C3026 C3034 1.574 . S
C3026 C3042 1.368 . S
H3027 C3035 0.950 . S
H3028 C3033 0.950 . S
H3029 C3034 0.944 1_655 S
H3030 C3036 0.950 . S
H3031 C3037 1.000 . S
H3032 C3038 0.949 . S
C3033 H3028 0.950 . S
C3033 C3035 1.327 . S
C3033 C3039 1.429 . S
C3034 C3026 1.574 . S
C3034 H3029 0.944 1_455 S
C3034 C3040 1.368 . S
C3035 C3019 1.349 . S
C3035 H3027 0.950 . S
C3035 C3033 1.327 . S
C3036 C3024 1.349 1_655 S
C3036 H3030 0.950 . S
C3036 C3037 1.302 . S
C3037 H3031 1.000 . S
C3037 C3036 1.302 . S
C3037 C3041 1.410 1_655 S
C3038 C3021 1.574 . S
C3038 H3032 0.949 . S
C3038 C3042 1.368 . S
C3039 C3020 1.429 . S
C3039 C3033 1.429 . S
C3039 C3040 1.523 . S
C3040 C3021 1.368 . S
C3040 C3034 1.368 . S
C3040 C3039 1.523 . S
C3041 C3025 1.429 . S
C3041 C3037 1.410 1_455 S
C3041 C3042 1.523 . S
C3042 C3026 1.368 . S
C3042 C3038 1.368 . S
C3042 C3041 1.523 . S
H3043 C3018 0.950 . S
H3044 C3020 0.950 . S
H3045 C3021 0.949 . S
H3046 C3023 0.950 . S
H3047 C3025 0.950 . S
C3048 C3049 1.349 . S
C3048 C3050 1.327 . S
C3048 H3073 0.950 . S
C3049 C3048 1.349 . S
C3049 C3065 1.349 . S
C3050 C3048 1.327 . S
C3050 C3069 1.429 . S
C3050 H3074 0.950 . S
C3051 C3068 1.574 . S
C3051 C3070 1.368 . S
C3051 H3075 0.949 . S
H3052 C3056 0.949 . S
C3053 C3054 1.349 . S
C3053 C3055 1.327 . S
C3053 H3076 0.950 . S
C3054 C3053 1.349 . S
C3054 C3066 1.349 . S
C3055 C3053 1.327 . S
C3055 C3071 1.429 . S
C3055 H3077 0.950 . S
C3056 H3052 0.949 . S
C3056 C3064 1.574 . S
C3056 C3072 1.368 . S
H3057 C3065 0.950 . S
H3058 C3063 0.950 . S
H3059 C3064 0.949 . S
H3060 C3066 0.950 . S
H3061 C3067 0.950 . S
H3062 C3068 0.949 . S
C3063 H3058 0.950 . S
C3063 C3065 1.327 . S
C3063 C3069 1.429 . S
C3064 C3056 1.574 . S
C3064 H3059 0.949 . S
C3064 C3070 1.368 . S
C3065 C3049 1.349 . S
C3065 H3057 0.950 . S
C3065 C3063 1.327 . S
C3066 C3054 1.349 . S
C3066 H3060 0.950 . S
C3066 C3067 1.327 . S
C3067 H3061 0.950 . S
C3067 C3066 1.327 . S
C3067 C3071 1.429 . S
C3068 C3051 1.574 . S
C3068 H3062 0.949 . S
C3068 C3072 1.368 . S
C3069 C3050 1.429 . S
C3069 C3063 1.429 . S
C3069 C3070 1.523 . S
C3070 C3051 1.368 . S
C3070 C3064 1.368 . S
C3070 C3069 1.523 . S
C3071 C3055 1.429 . S
C3071 C3067 1.429 . S
C3071 C3072 1.523 . S
C3072 C3056 1.368 . S
C3072 C3068 1.368 . S
C3072 C3071 1.523 . S
H3073 C3048 0.950 . S
H3074 C3050 0.950 . S
H3075 C3051 0.949 . S
H3076 C3053 0.950 . S
H3077 C3055 0.950 . S
C3078 C3079 1.349 . S
C3078 C3080 1.327 . S
C3078 H3103 0.950 . S
C3079 C3078 1.349 . S
C3079 C3095 1.349 . S
C3080 C3078 1.327 . S
C3080 C3099 1.429 . S
C3080 H3104 0.950 . S
C3081 C3098 1.574 . S
C3081 C3100 1.368 . S
C3081 H3105 0.949 . S
H3082 C3086 0.949 . S
C3083 C3084 1.349 . S
C3083 C3085 1.327 . S
C3083 H3106 0.950 . S
C3084 C3083 1.349 . S
C3084 C3096 1.349 . S
C3085 C3083 1.327 . S
C3085 C3101 1.429 . S
C3085 H3107 0.950 . S
C3086 H3082 0.949 . S
C3086 C3094 1.574 . S
C3086 C3102 1.368 . S
H3087 C3095 0.950 . S
H3088 C3093 0.950 . S
H3089 C3094 0.949 . S
H3090 C3096 0.950 . S
H3091 C3097 0.950 . S
H3092 C3098 0.949 . S
C3093 H3088 0.950 . S
C3093 C3095 1.327 . S
C3093 C3099 1.429 . S
C3094 C3086 1.574 . S
C3094 H3089 0.949 . S
C3094 C3100 1.368 . S
C3095 C3079 1.349 . S
C3095 H3087 0.950 . S
C3095 C3093 1.327 . S
C3096 C3084 1.349 . S
C3096 H3090 0.950 . S
C3096 C3097 1.327 . S
C3097 H3091 0.950 . S
C3097 C3096 1.327 . S
C3097 C3101 1.429 . S
C3098 C3081 1.574 . S
C3098 H3092 0.949 . S
C3098 C3102 1.368 . S
C3099 C3080 1.429 . S
C3099 C3093 1.429 . S
C3099 C3100 1.523 . S
C3100 C3081 1.368 . S
C3100 C3094 1.368 . S
C3100 C3099 1.523 . S
C3101 C3085 1.429 . S
C3101 C3097 1.429 . S
C3101 C3102 1.523 . S
C3102 C3086 1.368 . S
C3102 C3098 1.368 . S
C3102 C3101 1.523 . S
H3103 C3078 0.950 . S
H3104 C3080 0.950 . S
H3105 C3081 0.949 . S
H3106 C3083 0.950 . S
H3107 C3085 0.950 . S
C3108 C3109 1.349 . S
C3108 C3110 1.327 . S
C3108 H3133 0.950 . S
C3109 C3108 1.349 . S
C3109 C3125 1.349 . S
C3110 C3108 1.327 . S
C3110 C3129 1.429 . S
C3110 H3134 0.950 . S
C3111 C3128 1.574 . S
C3111 C3130 1.368 . S
C3111 H3135 0.949 . S
H3112 C3116 0.949 . S
C3113 C3114 1.349 . S
C3113 C3115 1.327 . S
C3113 H3136 0.950 . S
C3114 C3113 1.349 . S
C3114 C3126 1.349 . S
C3115 C3113 1.327 . S
C3115 C3131 1.429 . S
C3115 H3137 0.950 . S
C3116 H3112 0.949 . S
C3116 C3124 1.574 . S
C3116 C3132 1.368 . S
H3117 C3125 0.950 . S
H3118 C3123 0.950 . S
H3119 C3124 0.949 . S
H3120 C3126 0.950 . S
H3121 C3127 0.950 . S
H3122 C3128 0.949 . S
C3123 H3118 0.950 . S
C3123 C3125 1.327 . S
C3123 C3129 1.429 . S
C3124 C3116 1.574 . S
C3124 H3119 0.949 . S
C3124 C3130 1.368 . S
C3125 C3109 1.349 . S
C3125 H3117 0.950 . S
C3125 C3123 1.327 . S
C3126 C3114 1.349 . S
C3126 H3120 0.950 . S
C3126 C3127 1.327 . S
C3127 H3121 0.950 . S
C3127 C3126 1.327 . S
C3127 C3131 1.429 . S
C3128 C3111 1.574 . S
C3128 H3122 0.949 . S
C3128 C3132 1.368 . S
C3129 C3110 1.429 . S
C3129 C3123 1.429 . S
C3129 C3130 1.523 . S
C3130 C3111 1.368 . S
C3130 C3124 1.368 . S
C3130 C3129 1.523 . S
C3131 C3115 1.429 . S
C3131 C3127 1.429 . S
C3131 C3132 1.523 . S
C3132 C3116 1.368 . S
C3132 C3128 1.368 . S
C3132 C3131 1.523 . S
H3133 C3108 0.950 . S
H3134 C3110 0.950 . S
H3135 C3111 0.949 . S
H3136 C3113 0.950 . S
H3137 C3115 0.950 . S
C3138 C3139 1.349 . S
C3138 C3140 1.327 . S
C3138 H3163 0.950 . S
C3139 C3138 1.349 . S
C3139 C3155 1.349 . S
C3140 C3138 1.327 . S
C3140 C3159 1.429 . S
C3140 H3164 0.950 . S
C3141 C3158 1.574 . S
C3141 C3160 1.368 . S
C3141 H3165 0.949 . S
H3142 C3146 0.949 . S
C3143 C3144 1.349 . S
C3143 C3145 1.327 . S
C3143 H3166 0.950 . S
C3144 C3143 1.349 . S
C3144 C3156 1.349 . S
C3145 C3143 1.327 . S
C3145 C3161 1.429 . S
C3145 H3167 0.950 . S
C3146 H3142 0.949 . S
C3146 C3154 1.574 . S
C3146 C3162 1.368 . S
H3147 C3155 0.950 . S
H3148 C3153 0.950 . S
H3149 C3154 0.949 . S
H3150 C3156 0.950 . S
H3151 C3157 0.950 . S
H3152 C3158 0.949 . S
C3153 H3148 0.950 . S
C3153 C3155 1.327 . S
C3153 C3159 1.429 . S
C3154 C3146 1.574 . S
C3154 H3149 0.949 . S
C3154 C3160 1.368 . S
C3155 C3139 1.349 . S
C3155 H3147 0.950 . S
C3155 C3153 1.327 . S
C3156 C3144 1.349 . S
C3156 H3150 0.950 . S
C3156 C3157 1.327 . S
C3157 H3151 0.950 . S
C3157 C3156 1.327 . S
C3157 C3161 1.429 . S
C3158 C3141 1.574 . S
C3158 H3152 0.949 . S
C3158 C3162 1.368 . S
C3159 C3140 1.429 . S
C3159 C3153 1.429 . S
C3159 C3160 1.523 . S
C3160 C3141 1.368 . S
C3160 C3154 1.368 . S
C3160 C3159 1.523 . S
C3161 C3145 1.429 . S
C3161 C3157 1.429 . S
C3161 C3162 1.523 . S
C3162 C3146 1.368 . S
C3162 C3158 1.368 . S
C3162 C3161 1.523 . S
H3163 C3138 0.950 . S
H3164 C3140 0.950 . S
H3165 C3141 0.949 . S
H3166 C3143 0.950 . S
H3167 C3145 0.950 . S
C3168 C3169 1.349 . S
C3168 C3170 1.327 . S
C3168 H3193 0.950 . S
C3169 C3168 1.349 . S
C3169 C3185 1.349 . S
C3170 C3168 1.327 . S
C3170 C3189 1.429 . S
C3170 H3194 0.950 . S
C3171 C3188 1.574 . S
C3171 C3190 1.368 . S
C3171 H3195 0.949 . S
H3172 C3176 0.949 . S
C3173 C3174 1.349 . S
C3173 C3175 1.327 . S
C3173 H3196 0.950 1_545 S
C3174 C3173 1.349 . S
C3174 C3186 1.349 . S
C3175 C3173 1.327 . S
C3175 C3191 1.429 . S
C3175 H3197 0.952 1_545 S
C3176 H3172 0.949 . S
C3176 C3184 1.574 . S
C3176 C3192 1.368 . S
H3177 C3185 0.950 . S
H3178 C3183 0.950 . S
H3179 C3184 0.949 . S
H3180 C3186 0.950 . S
H3181 C3187 0.950 . S
H3182 C3188 0.949 . S
C3183 H3178 0.950 . S
C3183 C3185 1.327 . S
C3183 C3189 1.429 . S
C3184 C3176 1.574 . S
C3184 H3179 0.949 . S
C3184 C3190 1.368 . S
C3185 C3169 1.349 . S
C3185 H3177 0.950 . S
C3185 C3183 1.327 . S
C3186 C3174 1.349 . S
C3186 H3180 0.950 . S
C3186 C3187 1.327 . S
C3187 H3181 0.950 . S
C3187 C3186 1.327 . S
C3187 C3191 1.429 . S
C3188 C3171 1.574 . S
C3188 H3182 0.949 . S
C3188 C3192 1.368 . S
C3189 C3170 1.429 . S
C3189 C3183 1.429 . S
C3189 C3190 1.523 . S
C3190 C3171 1.368 . S
C3190 C3184 1.368 . S
C3190 C3189 1.523 . S
C3191 C3175 1.429 . S
C3191 C3187 1.429 . S
C3191 C3192 1.523 . S
C3192 C3176 1.368 . S
C3192 C3188 1.368 . S
C3192 C3191 1.523 . S
H3193 C3168 0.950 . S
H3194 C3170 0.950 . S
H3195 C3171 0.949 . S
H3196 C3173 0.950 1_565 S
H3197 C3175 0.952 1_565 S
C3198 C3199 1.349 . S
C3198 C3200 1.327 . S
C3198 H3223 0.950 . S
C3199 C3198 1.349 . S
C3199 C3215 1.349 . S
C3200 C3198 1.327 . S
C3200 C3219 1.429 . S
C3200 H3224 0.950 . S
C3201 C3218 1.574 . S
C3201 C3220 1.368 . S
C3201 H3225 0.949 . S
H3202 C3206 0.949 . S
C3203 C3204 1.349 . S
C3203 C3205 1.327 . S
C3203 H3226 0.950 1_655 S
C3204 C3203 1.349 . S
C3204 C3216 1.349 . S
C3205 C3203 1.327 . S
C3205 C3221 1.429 . S
C3205 H3227 0.952 . S
C3206 H3202 0.949 . S
C3206 C3214 1.574 . S
C3206 C3222 1.368 . S
H3207 C3215 0.950 . S
H3208 C3213 0.950 . S
H3209 C3214 0.949 . S
H3210 C3216 0.950 . S
H3211 C3217 0.950 . S
H3212 C3218 0.949 . S
C3213 H3208 0.950 . S
C3213 C3215 1.327 . S
C3213 C3219 1.429 . S
C3214 C3206 1.574 . S
C3214 H3209 0.949 . S
C3214 C3220 1.368 . S
C3215 C3199 1.349 . S
C3215 H3207 0.950 . S
C3215 C3213 1.327 . S
C3216 C3204 1.349 . S
C3216 H3210 0.950 . S
C3216 C3217 1.327 . S
C3217 H3211 0.950 . S
C3217 C3216 1.327 . S
C3217 C3221 1.429 . S
C3218 C3201 1.574 . S
C3218 H3212 0.949 . S
C3218 C3222 1.368 . S
C3219 C3200 1.429 . S
C3219 C3213 1.429 . S
C3219 C3220 1.523 . S
C3220 C3201 1.368 . S
C3220 C3214 1.368 . S
C3220 C3219 1.523 . S
C3221 C3205 1.429 . S
C3221 C3217 1.429 . S
C3221 C3222 1.523 . S
C3222 C3206 1.368 . S
C3222 C3218 1.368 . S
C3222 C3221 1.523 . S
H3223 C3198 0.950 . S
H3224 C3200 0.950 . S
H3225 C3201 0.949 . S
H3226 C3203 0.950 1_455 S
H3227 C3205 0.952 . S
C3228 C3229 1.349 . S
C3228 C3230 1.327 . S
C3228 H3253 0.950 . S
C3229 C3228 1.349 . S
C3229 C3245 1.349 . S
C3230 C3228 1.327 . S
C3230 C3249 1.429 . S
C3230 H3254 0.950 . S
C3231 C3248 1.574 . S
C3231 C3250 1.368 . S
C3231 H3255 0.949 . S
H3232 C3236 0.949 . S
C3233 C3234 1.349 . S
C3233 C3235 1.327 . S
C3233 H3256 0.950 . S
C3234 C3233 1.349 . S
C3234 C3246 1.349 . S
C3235 C3233 1.327 . S
C3235 C3251 1.429 . S
C3235 H3257 0.950 . S
C3236 H3232 0.949 . S
C3236 C3244 1.574 . S
C3236 C3252 1.368 . S
H3237 C3245 0.950 . S
H3238 C3243 0.950 . S
H3239 C3244 0.949 . S
H3240 C3246 0.950 . S
H3241 C3247 0.950 . S
H3242 C3248 0.949 . S
C3243 H3238 0.950 . S
C3243 C3245 1.327 . S
C3243 C3249 1.429 . S
C3244 C3236 1.574 . S
C3244 H3239 0.949 . S
C3244 C3250 1.368 . S
C3245 C3229 1.349 . S
C3245 H3237 0.950 . S
C3245 C3243 1.327 . S
C3246 C3234 1.349 . S
C3246 H3240 0.950 . S
C3246 C3247 1.327 . S
C3247 H3241 0.950 . S
C3247 C3246 1.327 . S
C3247 C3251 1.429 . S
C3248 C3231 1.574 . S
C3248 H3242 0.949 . S
C3248 C3252 1.368 . S
C3249 C3230 1.429 . S
C3249 C3243 1.429 . S
C3249 C3250 1.523 . S
C3250 C3231 1.368 . S
C3250 C3244 1.368 . S
C3250 C3249 1.523 . S
C3251 C3235 1.429 . S
C3251 C3247 1.429 . S
C3251 C3252 1.523 . S
C3252 C3236 1.368 . S
C3252 C3248 1.368 . S
C3252 C3251 1.523 . S
H3253 C3228 0.950 . S
H3254 C3230 0.950 . S
H3255 C3231 0.949 . S
H3256 C3233 0.950 . S
H3257 C3235 0.950 . S
C3258 C3259 1.349 . S
C3258 C3260 1.327 . S
C3258 H3283 0.950 . S
C3259 C3258 1.349 . S
C3259 C3275 1.349 . S
C3260 C3258 1.327 . S
C3260 C3279 1.429 . S
C3260 H3284 0.950 . S
C3261 C3278 1.574 . S
C3261 C3280 1.368 . S
C3261 H3285 0.949 . S
H3262 C3266 0.949 . S
C3263 C3264 1.349 . S
C3263 C3265 1.327 . S
C3263 H3286 0.950 . S
C3264 C3263 1.349 . S
C3264 C3276 1.349 . S
C3265 C3263 1.327 . S
C3265 C3281 1.429 . S
C3265 H3287 0.950 . S
C3266 H3262 0.949 . S
C3266 C3274 1.574 . S
C3266 C3282 1.368 . S
H3267 C3275 0.950 . S
H3268 C3273 0.950 . S
H3269 C3274 0.949 . S
H3270 C3276 0.950 . S
H3271 C3277 0.950 . S
H3272 C3278 0.949 . S
C3273 H3268 0.950 . S
C3273 C3275 1.327 . S
C3273 C3279 1.429 . S
C3274 C3266 1.574 . S
C3274 H3269 0.949 . S
C3274 C3280 1.368 . S
C3275 C3259 1.349 . S
C3275 H3267 0.950 . S
C3275 C3273 1.327 . S
C3276 C3264 1.349 . S
C3276 H3270 0.950 . S
C3276 C3277 1.327 . S
C3277 H3271 0.950 . S
C3277 C3276 1.327 . S
C3277 C3281 1.429 . S
C3278 C3261 1.574 . S
C3278 H3272 0.949 . S
C3278 C3282 1.368 . S
C3279 C3260 1.429 . S
C3279 C3273 1.429 . S
C3279 C3280 1.523 . S
C3280 C3261 1.368 . S
C3280 C3274 1.368 . S
C3280 C3279 1.523 . S
C3281 C3265 1.429 . S
C3281 C3277 1.429 . S
C3281 C3282 1.523 . S
C3282 C3266 1.368 . S
C3282 C3278 1.368 . S
C3282 C3281 1.523 . S
H3283 C3258 0.950 . S
H3284 C3260 0.950 . S
H3285 C3261 0.949 . S
H3286 C3263 0.950 . S
H3287 C3265 0.950 . S
C3288 C3289 1.349 . S
C3288 C3290 1.327 . S
C3288 H3313 0.950 . S
C3289 C3288 1.349 . S
C3289 C3305 1.349 . S
C3290 C3288 1.327 . S
C3290 C3309 1.429 . S
C3290 H3314 0.950 . S
C3291 C3308 1.574 . S
C3291 C3310 1.368 . S
C3291 H3315 0.949 . S
H3292 C3296 0.949 . S
C3293 C3294 1.349 . S
C3293 C3295 1.327 . S
C3293 H3316 0.950 . S
C3294 C3293 1.349 . S
C3294 C3306 1.349 . S
C3295 C3293 1.327 . S
C3295 C3311 1.429 . S
C3295 H3317 0.950 . S
C3296 H3292 0.949 . S
C3296 C3304 1.574 . S
C3296 C3312 1.368 . S
H3297 C3305 0.950 . S
H3298 C3303 0.950 . S
H3299 C3304 0.949 . S
H3300 C3306 0.950 . S
H3301 C3307 0.950 . S
H3302 C3308 0.949 . S
C3303 H3298 0.950 . S
C3303 C3305 1.327 . S
C3303 C3309 1.429 . S
C3304 C3296 1.574 . S
C3304 H3299 0.949 . S
C3304 C3310 1.368 . S
C3305 C3289 1.349 . S
C3305 H3297 0.950 . S
C3305 C3303 1.327 . S
C3306 C3294 1.349 . S
C3306 H3300 0.950 . S
C3306 C3307 1.327 . S
C3307 H3301 0.950 . S
C3307 C3306 1.327 . S
C3307 C3311 1.429 . S
C3308 C3291 1.574 . S
C3308 H3302 0.949 . S
C3308 C3312 1.368 . S
C3309 C3290 1.429 . S
C3309 C3303 1.429 . S
C3309 C3310 1.523 . S
C3310 C3291 1.368 . S
C3310 C3304 1.368 . S
C3310 C3309 1.523 . S
C3311 C3295 1.429 . S
C3311 C3307 1.429 . S
C3311 C3312 1.523 . S
C3312 C3296 1.368 . S
C3312 C3308 1.368 . S
C3312 C3311 1.523 . S
H3313 C3288 0.950 . S
H3314 C3290 0.950 . S
H3315 C3291 0.949 . S
H3316 C3293 0.950 . S
H3317 C3295 0.950 . S
C3318 C3319 1.349 . S
C3318 C3320 1.327 . S
C3318 H3343 0.950 . S
C3319 C3318 1.349 . S
C3319 C3335 1.349 . S
C3320 C3318 1.327 . S
C3320 C3339 1.429 . S
C3320 H3344 0.950 . S
C3321 C3338 1.574 . S
C3321 C3340 1.368 . S
C3321 H3345 0.949 . S
H3322 C3326 0.949 . S
C3323 C3324 1.349 . S
C3323 C3325 1.327 . S
C3323 H3346 0.950 . S
C3324 C3323 1.349 . S
C3324 C3336 1.349 . S
C3325 C3323 1.327 . S
C3325 C3341 1.429 . S
C3325 H3347 0.950 . S
C3326 H3322 0.949 . S
C3326 C3334 1.574 . S
C3326 C3342 1.368 . S
H3327 C3335 0.950 . S
H3328 C3333 0.950 . S
H3329 C3334 0.949 . S
H3330 C3336 0.950 . S
H3331 C3337 0.950 . S
H3332 C3338 0.949 . S
C3333 H3328 0.950 . S
C3333 C3335 1.327 . S
C3333 C3339 1.429 . S
C3334 C3326 1.574 . S
C3334 H3329 0.949 . S
C3334 C3340 1.368 . S
C3335 C3319 1.349 . S
C3335 H3327 0.950 . S
C3335 C3333 1.327 . S
C3336 C3324 1.349 . S
C3336 H3330 0.950 . S
C3336 C3337 1.327 . S
C3337 H3331 0.950 . S
C3337 C3336 1.327 . S
C3337 C3341 1.429 . S
C3338 C3321 1.574 . S
C3338 H3332 0.949 . S
C3338 C3342 1.368 . S
C3339 C3320 1.429 . S
C3339 C3333 1.429 . S
C3339 C3340 1.523 . S
C3340 C3321 1.368 . S
C3340 C3334 1.368 . S
C3340 C3339 1.523 . S
C3341 C3325 1.429 . S
C3341 C3337 1.429 . S
C3341 C3342 1.523 . S
C3342 C3326 1.368 . S
C3342 C3338 1.368 . S
C3342 C3341 1.523 . S
H3343 C3318 0.950 . S
H3344 C3320 0.950 . S
H3345 C3321 0.949 . S
H3346 C3323 0.950 . S
H3347 C3325 0.950 . S
C3348 C3349 1.349 . S
C3348 C3350 1.327 . S
C3348 H3373 0.950 . S
C3349 C3348 1.349 . S
C3349 C3365 1.349 . S
C3350 C3348 1.327 . S
C3350 C3369 1.429 . S
C3350 H3374 0.950 . S
C3351 C3368 1.574 . S
C3351 C3370 1.368 . S
C3351 H3375 0.949 . S
H3352 C3356 0.949 . S
C3353 C3354 1.349 . S
C3353 C3355 1.327 . S
C3353 H3376 0.950 . S
C3354 C3353 1.349 . S
C3354 C3366 1.349 . S
C3355 C3353 1.327 . S
C3355 C3371 1.429 . S
C3355 H3377 0.950 . S
C3356 H3352 0.949 . S
C3356 C3364 1.574 . S
C3356 C3372 1.368 . S
H3357 C3365 0.950 . S
H3358 C3363 0.950 . S
H3359 C3364 0.949 . S
H3360 C3366 0.950 . S
H3361 C3367 0.950 . S
H3362 C3368 0.949 . S
C3363 H3358 0.950 . S
C3363 C3365 1.327 . S
C3363 C3369 1.429 . S
C3364 C3356 1.574 . S
C3364 H3359 0.949 . S
C3364 C3370 1.368 . S
C3365 C3349 1.349 . S
C3365 H3357 0.950 . S
C3365 C3363 1.327 . S
C3366 C3354 1.349 . S
C3366 H3360 0.950 . S
C3366 C3367 1.327 . S
C3367 H3361 0.950 . S
C3367 C3366 1.327 . S
C3367 C3371 1.429 . S
C3368 C3351 1.574 . S
C3368 H3362 0.949 . S
C3368 C3372 1.368 . S
C3369 C3350 1.429 . S
C3369 C3363 1.429 . S
C3369 C3370 1.523 . S
C3370 C3351 1.368 . S
C3370 C3364 1.368 . S
C3370 C3369 1.523 . S
C3371 C3355 1.429 . S
C3371 C3367 1.429 . S
C3371 C3372 1.523 . S
C3372 C3356 1.368 . S
C3372 C3368 1.368 . S
C3372 C3371 1.523 . S
H3373 C3348 0.950 . S
H3374 C3350 0.950 . S
H3375 C3351 0.949 . S
H3376 C3353 0.950 . S
H3377 C3355 0.950 . S
C3378 C3379 1.349 . S
C3378 C3380 1.327 . S
C3378 H3403 0.950 . S
C3379 C3378 1.349 . S
C3379 C3395 1.349 . S
C3380 C3378 1.327 . S
C3380 C3399 1.429 . S
C3380 H3404 0.950 . S
C3381 C3398 1.574 . S
C3381 C3400 1.368 . S
C3381 H3405 0.949 . S
H3382 C3386 0.949 . S
C3383 C3384 1.349 . S
C3383 C3385 1.327 . S
C3383 H3406 0.950 . S
C3384 C3383 1.349 . S
C3384 C3396 1.349 . S
C3385 C3383 1.327 . S
C3385 C3401 1.429 . S
C3385 H3407 0.950 . S
C3386 H3382 0.949 . S
C3386 C3394 1.574 . S
C3386 C3402 1.368 . S
H3387 C3395 0.950 . S
H3388 C3393 0.950 . S
H3389 C3394 0.949 . S
H3390 C3396 0.950 . S
H3391 C3397 0.950 . S
H3392 C3398 0.949 . S
C3393 H3388 0.950 . S
C3393 C3395 1.327 . S
C3393 C3399 1.429 . S
C3394 C3386 1.574 . S
C3394 H3389 0.949 . S
C3394 C3400 1.368 . S
C3395 C3379 1.349 . S
C3395 H3387 0.950 . S
C3395 C3393 1.327 . S
C3396 C3384 1.349 . S
C3396 H3390 0.950 . S
C3396 C3397 1.327 . S
C3397 H3391 0.950 . S
C3397 C3396 1.327 . S
C3397 C3401 1.429 . S
C3398 C3381 1.574 . S
C3398 H3392 0.949 . S
C3398 C3402 1.368 . S
C3399 C3380 1.429 . S
C3399 C3393 1.429 . S
C3399 C3400 1.523 . S
C3400 C3381 1.368 . S
C3400 C3394 1.368 . S
C3400 C3399 1.523 . S
C3401 C3385 1.429 . S
C3401 C3397 1.429 . S
C3401 C3402 1.523 . S
C3402 C3386 1.368 . S
C3402 C3398 1.368 . S
C3402 C3401 1.523 . S
H3403 C3378 0.950 . S
H3404 C3380 0.950 . S
H3405 C3381 0.949 . S
H3406 C3383 0.950 . S
H3407 C3385 0.950 . S
C3408 C3409 1.349 . S
C3408 C3410 1.327 . S
C3408 H3433 0.950 . S
C3409 C3408 1.349 . S
C3409 C3425 1.349 . S
C3410 C3408 1.327 . S
C3410 C3429 1.429 . S
C3410 H3434 0.950 . S
C3411 C3428 1.574 . S
C3411 C3430 1.368 . S
C3411 H3435 0.949 . S
H3412 C3416 0.949 . S
C3413 C3414 1.349 . S
C3413 C3415 1.327 . S
C3413 H3436 0.950 . S
C3414 C3413 1.349 . S
C3414 C3426 1.349 . S
C3415 C3413 1.327 . S
C3415 C3431 1.429 . S
C3415 H3437 0.950 . S
C3416 H3412 0.949 . S
C3416 C3424 1.574 . S
C3416 C3432 1.368 . S
H3417 C3425 0.950 . S
H3418 C3423 0.950 . S
H3419 C3424 0.949 . S
H3420 C3426 0.950 . S
H3421 C3427 0.950 . S
H3422 C3428 0.949 . S
C3423 H3418 0.950 . S
C3423 C3425 1.327 . S
C3423 C3429 1.429 . S
C3424 C3416 1.574 . S
C3424 H3419 0.949 . S
C3424 C3430 1.368 . S
C3425 C3409 1.349 . S
C3425 H3417 0.950 . S
C3425 C3423 1.327 . S
C3426 C3414 1.349 . S
C3426 H3420 0.950 . S
C3426 C3427 1.327 . S
C3427 H3421 0.950 . S
C3427 C3426 1.327 . S
C3427 C3431 1.429 . S
C3428 C3411 1.574 . S
C3428 H3422 0.949 . S
C3428 C3432 1.368 . S
C3429 C3410 1.429 . S
C3429 C3423 1.429 . S
C3429 C3430 1.523 . S
C3430 C3411 1.368 . S
C3430 C3424 1.368 . S
C3430 C3429 1.523 . S
C3431 C3415 1.429 . S
C3431 C3427 1.429 . S
C3431 C3432 1.523 . S
C3432 C3416 1.368 . S
C3432 C3428 1.368 . S
C3432 C3431 1.523 . S
H3433 C3408 0.950 . S
H3434 C3410 0.950 . S
H3435 C3411 0.949 . S
H3436 C3413 0.950 . S
H3437 C3415 0.950 . S
C3438 C3439 1.349 . S
C3438 C3440 1.327 . S
C3438 H3463 0.950 . S
C3439 C3438 1.349 . S
C3439 C3455 1.349 . S
C3440 C3438 1.327 . S
C3440 C3459 1.429 . S
C3440 H3464 0.950 . S
C3441 C3458 1.574 . S
C3441 C3460 1.368 . S
C3441 H3465 0.949 . S
H3442 C3446 0.949 1_455 S
C3443 C3444 1.349 . S
C3443 C3445 1.327 . S
C3443 H3466 0.950 . S
C3444 C3443 1.349 . S
C3444 C3456 1.350 1_655 S
C3445 C3443 1.327 . S
C3445 C3461 1.429 . S
C3445 H3467 0.950 . S
C3446 H3442 0.949 1_655 S
C3446 C3454 1.574 . S
C3446 C3462 1.368 . S
H3447 C3455 0.950 . S
H3448 C3453 0.950 . S
H3449 C3454 0.950 . S
H3450 C3456 1.012 . S
H3451 C3457 0.949 1_455 S
H3452 C3458 0.949 . S
C3453 H3448 0.950 . S
C3453 C3455 1.327 . S
C3453 C3459 1.429 . S
C3454 C3446 1.574 . S
C3454 H3449 0.950 . S
C3454 C3460 1.368 . S
C3455 C3439 1.349 . S
C3455 H3447 0.950 . S
C3455 C3453 1.327 . S
C3456 C3444 1.350 1_455 S
C3456 H3450 1.012 . S
C3456 C3457 1.261 1_455 S
C3457 H3451 0.949 1_655 S
C3457 C3456 1.261 1_655 S
C3457 C3461 1.445 . S
C3458 C3441 1.574 . S
C3458 H3452 0.949 . S
C3458 C3462 1.368 . S
C3459 C3440 1.429 . S
C3459 C3453 1.429 . S
C3459 C3460 1.523 . S
C3460 C3441 1.368 . S
C3460 C3454 1.368 . S
C3460 C3459 1.523 . S
C3461 C3445 1.429 . S
C3461 C3457 1.445 . S
C3461 C3462 1.523 . S
C3462 C3446 1.368 . S
C3462 C3458 1.368 . S
C3462 C3461 1.523 . S
H3463 C3438 0.950 . S
H3464 C3440 0.950 . S
H3465 C3441 0.949 . S
H3466 C3443 0.950 . S
H3467 C3445 0.950 . S
C3468 C3469 1.349 . S
C3468 C3470 1.327 . S
C3468 H3493 0.950 . S
C3469 C3468 1.349 . S
C3469 C3485 1.349 . S
C3470 C3468 1.327 . S
C3470 C3489 1.429 . S
C3470 H3494 0.950 . S
C3471 C3488 1.574 . S
C3471 C3490 1.368 . S
C3471 H3495 0.949 . S
H3472 C3476 0.949 . S
C3473 C3474 1.349 . S
C3473 C3475 1.327 . S
C3473 H3496 0.950 . S
C3474 C3473 1.349 . S
C3474 C3486 1.349 . S
C3475 C3473 1.327 . S
C3475 C3491 1.429 . S
C3475 H3497 0.950 . S
C3476 H3472 0.949 . S
C3476 C3484 1.574 . S
C3476 C3492 1.368 . S
H3477 C3485 0.950 . S
H3478 C3483 0.950 . S
H3479 C3484 0.949 . S
H3480 C3486 0.950 . S
H3481 C3487 0.950 . S
H3482 C3488 0.949 . S
C3483 H3478 0.950 . S
C3483 C3485 1.327 . S
C3483 C3489 1.429 . S
C3484 C3476 1.574 . S
C3484 H3479 0.949 . S
C3484 C3490 1.368 . S
C3485 C3469 1.349 . S
C3485 H3477 0.950 . S
C3485 C3483 1.327 . S
C3486 C3474 1.349 . S
C3486 H3480 0.950 . S
C3486 C3487 1.327 . S
C3487 H3481 0.950 . S
C3487 C3486 1.327 . S
C3487 C3491 1.429 . S
C3488 C3471 1.574 . S
C3488 H3482 0.949 . S
C3488 C3492 1.368 . S
C3489 C3470 1.429 . S
C3489 C3483 1.429 . S
C3489 C3490 1.523 . S
C3490 C3471 1.368 . S
C3490 C3484 1.368 . S
C3490 C3489 1.523 . S
C3491 C3475 1.429 . S
C3491 C3487 1.429 . S
C3491 C3492 1.523 . S
C3492 C3476 1.368 . S
C3492 C3488 1.368 . S
C3492 C3491 1.523 . S
H3493 C3468 0.950 . S
H3494 C3470 0.950 . S
H3495 C3471 0.949 . S
H3496 C3473 0.950 . S
H3497 C3475 0.950 . S
C3498 C3499 1.349 . S
C3498 C3500 1.327 . S
C3498 H3523 0.950 . S
C3499 C3498 1.349 . S
C3499 C3515 1.349 . S
C3500 C3498 1.327 . S
C3500 C3519 1.429 . S
C3500 H3524 0.950 . S
C3501 C3518 1.574 . S
C3501 C3520 1.368 . S
C3501 H3525 0.949 . S
H3502 C3506 0.949 . S
C3503 C3504 1.349 1_565 S
C3503 C3505 1.348 1_565 S
C3503 H3526 0.950 . S
C3504 C3503 1.349 1_545 S
C3504 C3516 1.349 . S
C3505 C3503 1.348 1_545 S
C3505 C3521 1.455 . S
C3505 H3527 0.903 1_545 S
C3506 H3502 0.949 . S
C3506 C3514 1.574 . S
C3506 C3522 1.368 . S
H3507 C3515 0.950 . S
H3508 C3513 0.950 . S
H3509 C3514 0.949 . S
H3510 C3516 0.950 . S
H3511 C3517 0.950 . S
H3512 C3518 0.949 1_565 S
C3513 H3508 0.950 . S
C3513 C3515 1.327 . S
C3513 C3519 1.429 . S
C3514 C3506 1.574 . S
C3514 H3509 0.949 . S
C3514 C3520 1.368 . S
C3515 C3499 1.349 . S
C3515 H3507 0.950 . S
C3515 C3513 1.327 . S
C3516 C3504 1.349 . S
C3516 H3510 0.950 . S
C3516 C3517 1.327 . S
C3517 H3511 0.950 . S
C3517 C3516 1.327 . S
C3517 C3521 1.429 . S
C3518 C3501 1.574 . S
C3518 H3512 0.949 1_545 S
C3518 C3522 1.368 . S
C3519 C3500 1.429 . S
C3519 C3513 1.429 . S
C3519 C3520 1.523 . S
C3520 C3501 1.368 . S
C3520 C3514 1.368 . S
C3520 C3519 1.523 . S
C3521 C3505 1.455 . S
C3521 C3517 1.429 . S
C3521 C3522 1.523 . S
C3522 C3506 1.368 . S
C3522 C3518 1.368 . S
C3522 C3521 1.523 . S
H3523 C3498 0.950 . S
H3524 C3500 0.950 . S
H3525 C3501 0.949 . S
H3526 C3503 0.950 . S
H3527 C3505 0.903 1_565 S
C1369 C9 1.578 . S
C1374 C857 1.510 . S
C1399 C19 1.604 . S
C1404 C901 1.556 . S
C1434 C981 1.550 . S
C1429 C33 1.617 . S
C1459 C37 1.593 . S
C1464 C1025 1.542 . S
C1489 C5 1.570 . S
C1494 C1105 1.514 . S
C1519 C23 1.629 . S
C1524 C1167 1.551 . S
C1549 C47 1.592 . S
C1554 C1087 1.528 . S
C1584 C1149 1.570 . S
C1579 C65 1.649 . S
C1614 C1043 1.535 . S
C1609 C75 1.614 . S
C1639 C79 1.539 . S
C1644 C963 1.464 . S
C1674 C839 1.541 . S
C1669 C51 1.610 . S
C1699 C61 1.627 . S
C1704 C919 1.578 . S
C1729 C93 1.702 . S
C1734 C1229 1.617 . S
C1759 C103 1.648 . S
C1764 C1273 1.602 . S
C1794 C1353 1.609 . S
C1789 C117 1.688 . S
C1819 C121 1.662 . S
C1824 C299 1.583 . S
C1849 C89 1.665 . S
C1854 C343 1.617 . S
C1879 C107 1.665 . S
C1884 C423 1.585 . S
C1909 C131 1.654 . S
C1914 C361 1.603 . S
C1939 C149 1.677 . S
C1944 C405 1.598 . S
C1974 C281 1.572 . S
C1969 C159 1.650 . S
C2004 C1335 1.587 . S
C1999 C163 1.666 . S
C2034 C1211 1.617 . S
C2029 C135 1.704 . S
C2064 C1291 1.625 . S
C2059 C145 1.672 . S
C2089 C177 1.657 . S
C2094 C485 1.574 . S
C2119 C187 1.627 . S
C2124 C547 1.556 . S
C2149 C201 1.691 . S
C2154 C591 1.639 . S
C2179 C205 1.709 . S
C2184 C653 1.658 . S
C2214 C715 1.615 . S
C2209 C173 1.663 . S
C2244 C795 1.603 . S
C2239 C191 1.685 . S
C2274 C733 1.656 . S
C2269 C215 1.707 . S
C2304 C777 1.623 . S
C2299 C233 1.704 . S
C2329 C243 1.642 . S
C2334 C671 1.593 . S
C2364 C609 1.564 . S
C2359 C247 1.612 . S
C2389 C219 1.709 . S
C2394 C467 1.623 . S
C2424 C529 1.592 . S
C2419 C229 1.665 . S
C2454 C305 1.469 . S
C2449 C11 1.536 . S
C2479 C14 1.513 . S
C2484 C349 1.459 . S
C2514 C429 1.533 . S
C2509 C28 1.604 . S
C2544 C491 1.525 . S
C2539 C39 1.598 1_556 S
C2574 C553 1.480 . S
C2569 C0 1.549 1_556 S
C2604 C597 1.417 . S
C2599 C25 1.471 1_556 S
C2629 C42 1.584 1_556 S
C2634 C615 1.546 . S
C2659 C67 1.541 . S
C2664 C473 1.457 . S
C2689 C70 1.493 1_556 S
C2694 C535 1.425 . S
C2719 C81 1.533 . S
C2724 C367 1.486 . S
C2754 C411 1.502 . S
C2749 C53 1.574 . S
C2779 C56 1.544 . S
C2784 C287 1.474 . S
C2814 C659 1.472 . S
C2809 C95 1.527 . S
C2839 C98 1.587 1_545 S
C2844 C721 1.532 . S
C2869 C112 1.661 1_655 S
C2874 C801 1.588 . S
C2904 C863 1.425 . S
C2899 C123 1.472 . S
C2929 C84 1.541 . S
C2934 C907 1.487 . S
C2959 C109 1.408 . S
C2964 C987 1.361 . S
C2989 C126 1.501 . S
C2994 C969 1.444 . S
C3019 C151 1.452 . S
C3024 C845 1.404 . S
C3054 C925 1.463 . S
C3049 C154 1.515 . S
C3079 C165 1.513 . S
C3084 C739 1.457 . S
C3109 C137 1.653 . S
C3114 C783 1.541 . S
C3144 C677 1.565 . S
C3139 C140 1.620 1_655 S
C3174 C1031 1.405 . S
C3169 C179 1.445 . S
C3199 C182 1.447 . S
C3204 C1111 1.403 . S
C3229 C196 1.595 . S
C3234 C1173 1.528 . S
C3264 C1235 1.513 . S
C3259 C207 1.586 . S
C3294 C1279 1.535 . S
C3289 C168 1.592 1_565 S
C3319 C193 1.555 . S
C3324 C1359 1.486 . S
C3349 C210 1.601 . S
C3354 C1341 1.531 . S
C3379 C235 1.601 1_565 S
C3384 C1217 1.531 . S
C3414 C1297 1.507 . S
C3409 C238 1.563 1_455 S
C3444 C1093 1.356 . S
C3439 C249 1.400 . S
C3474 C1155 1.491 . S
C3469 C221 1.560 . S
C3499 C224 1.484 . S
C3504 C1049 1.442 . S
