# Generated by pormake.
# Topology ssb, (4,4)-cn, num edge types: 1
# Building blocks:
#     Node 0, Type 0, BuildingBlock: NAWXER_clean_linker_0, # of connection points: 4
#     Node 1, Type 0, BuildingBlock: NAWXER_clean_linker_0, # of connection points: 4
#     Node 2, Type 0, BuildingBlock: NAWXER_clean_linker_0, # of connection points: 4
#     Node 3, Type 0, BuildingBlock: NAWXER_clean_linker_0, # of connection points: 4
#     Node 4, Type 0, BuildingBlock: NAWXER_clean_linker_0, # of connection points: 4
#     Node 5, Type 0, BuildingBlock: NAWXER_clean_linker_0, # of connection points: 4
#     Node 6, Type 0, BuildingBlock: NAWXER_clean_linker_0, # of connection points: 4
#     Node 7, Type 0, BuildingBlock: NAWXER_clean_linker_0, # of connection points: 4
#     Node 8, Type 1, BuildingBlock: KOZSID_clean_sbu_0, # of connection points: 4
#     Node 9, Type 1, BuildingBlock: KOZSID_clean_sbu_0, # of connection points: 4
#     Node 10, Type 1, BuildingBlock: KOZSID_clean_sbu_0, # of connection points: 4
#     Node 11, Type 1, BuildingBlock: KOZSID_clean_sbu_0, # of connection points: 4
#     Node 12, Type 1, BuildingBlock: KOZSID_clean_sbu_0, # of connection points: 4
#     Node 13, Type 1, BuildingBlock: KOZSID_clean_sbu_0, # of connection points: 4
#     Node 14, Type 1, BuildingBlock: KOZSID_clean_sbu_0, # of connection points: 4
#     Node 15, Type 1, BuildingBlock: KOZSID_clean_sbu_0, # of connection points: 4
#     Edge 16, Type (0, 1), BuildingBlock: KIFKEQ_clean_linker_1, # of connection points: 2
#     Edge 17, Type (0, 1), BuildingBlock: KIFKEQ_clean_linker_1, # of connection points: 2
#     Edge 18, Type (0, 1), BuildingBlock: KIFKEQ_clean_linker_1, # of connection points: 2
#     Edge 19, Type (0, 1), BuildingBlock: KIFKEQ_clean_linker_1, # of connection points: 2
#     Edge 20, Type (0, 1), BuildingBlock: KIFKEQ_clean_linker_1, # of connection points: 2
#     Edge 21, Type (0, 1), BuildingBlock: KIFKEQ_clean_linker_1, # of connection points: 2
#     Edge 22, Type (0, 1), BuildingBlock: KIFKEQ_clean_linker_1, # of connection points: 2
#     Edge 23, Type (0, 1), BuildingBlock: KIFKEQ_clean_linker_1, # of connection points: 2
#     Edge 24, Type (0, 1), BuildingBlock: KIFKEQ_clean_linker_1, # of connection points: 2
#     Edge 25, Type (0, 1), BuildingBlock: KIFKEQ_clean_linker_1, # of connection points: 2
#     Edge 26, Type (0, 1), BuildingBlock: KIFKEQ_clean_linker_1, # of connection points: 2
#     Edge 27, Type (0, 1), BuildingBlock: KIFKEQ_clean_linker_1, # of connection points: 2
#     Edge 28, Type (0, 1), BuildingBlock: KIFKEQ_clean_linker_1, # of connection points: 2
#     Edge 29, Type (0, 1), BuildingBlock: KIFKEQ_clean_linker_1, # of connection points: 2
#     Edge 30, Type (0, 1), BuildingBlock: KIFKEQ_clean_linker_1, # of connection points: 2
#     Edge 31, Type (0, 1), BuildingBlock: KIFKEQ_clean_linker_1, # of connection points: 2
#     Edge 32, Type (0, 1), BuildingBlock: KIFKEQ_clean_linker_1, # of connection points: 2
#     Edge 33, Type (0, 1), BuildingBlock: KIFKEQ_clean_linker_1, # of connection points: 2
#     Edge 34, Type (0, 1), BuildingBlock: KIFKEQ_clean_linker_1, # of connection points: 2
#     Edge 35, Type (0, 1), BuildingBlock: KIFKEQ_clean_linker_1, # of connection points: 2
#     Edge 36, Type (0, 1), BuildingBlock: KIFKEQ_clean_linker_1, # of connection points: 2
#     Edge 37, Type (0, 1), BuildingBlock: KIFKEQ_clean_linker_1, # of connection points: 2
#     Edge 38, Type (0, 1), BuildingBlock: KIFKEQ_clean_linker_1, # of connection points: 2
#     Edge 39, Type (0, 1), BuildingBlock: KIFKEQ_clean_linker_1, # of connection points: 2
#     Edge 40, Type (0, 1), BuildingBlock: KIFKEQ_clean_linker_1, # of connection points: 2
#     Edge 41, Type (0, 1), BuildingBlock: KIFKEQ_clean_linker_1, # of connection points: 2
#     Edge 42, Type (0, 1), BuildingBlock: KIFKEQ_clean_linker_1, # of connection points: 2
#     Edge 43, Type (0, 1), BuildingBlock: KIFKEQ_clean_linker_1, # of connection points: 2
#     Edge 44, Type (0, 1), BuildingBlock: KIFKEQ_clean_linker_1, # of connection points: 2
#     Edge 45, Type (0, 1), BuildingBlock: KIFKEQ_clean_linker_1, # of connection points: 2
#     Edge 46, Type (0, 1), BuildingBlock: KIFKEQ_clean_linker_1, # of connection points: 2
#     Edge 47, Type (0, 1), BuildingBlock: KIFKEQ_clean_linker_1, # of connection points: 2
# Relax obj value: 0.002
# Max RMSD: 0.030
# Mean RMSD: 0.018
data_MOF--net-ssb--node1-KOZSID_clean_sbu_0--node2-NAWXER_clean_linker_0--edge1-KIFKEQ_clean_linker_1
_symmetry_space_group_name_H-M    P1
_symmetry_Int_Tables_number       1
_symmetry_cell_setting            triclinic
loop_
_symmetry_equiv_pos_as_xyz
'x, y, z'
_cell_length_a     64.207417
_cell_length_b     63.935014
_cell_length_c     47.2003
_cell_angle_alpha  92.119976
_cell_angle_beta   94.204943
_cell_angle_gamma 89.99514
loop_
_atom_site_label
_atom_site_type_symbol
_atom_site_fract_x
_atom_site_fract_y
_atom_site_fract_z
_atom_type_partial_charge
C0 C 0.30261 0.25185 0.19005 0.0
C1 C 0.32295 0.24946 0.2028 0.0
C2 C 0.28527 0.25097 0.20622 0.0
C3 C 0.28785 0.24818 0.23566 0.0
C4 C 0.32541 0.246 0.23215 0.0
C5 C 0.30805 0.24532 0.24836 0.0
C6 C 0.2696 0.24767 0.25319 0.0
C7 C 0.27105 0.31245 0.21722 0.0
C8 C 0.25378 0.317 0.19827 0.0
C9 C 0.27094 0.29492 0.23433 0.0
C10 C 0.25358 0.28137 0.23297 0.0
C11 C 0.23631 0.30356 0.19727 0.0
C12 C 0.23616 0.28612 0.21454 0.0
C13 C 0.25326 0.26259 0.25108 0.0
C14 C 0.20411 0.24637 0.35035 0.0
C15 C 0.18356 0.24541 0.3379 0.0
C16 C 0.22104 0.24562 0.33333 0.0
C17 C 0.21766 0.24418 0.30359 0.0
C18 C 0.18022 0.24386 0.30815 0.0
C19 C 0.19715 0.24355 0.29111 0.0
C20 C 0.23545 0.24417 0.28546 0.0
C21 C 0.23299 0.18088 0.3245 0.0
C22 C 0.25107 0.17482 0.34095 0.0
C23 C 0.23317 0.19828 0.30719 0.0
C24 C 0.25132 0.21053 0.3061 0.0
C25 C 0.26935 0.18684 0.33931 0.0
C26 C 0.26948 0.20434 0.3221 0.0
C27 C 0.25172 0.2292 0.28763 0.0
H28 H 0.30004 0.25466 0.16759 0.0
H29 H 0.26983 0.25251 0.19565 0.0
H30 H 0.34076 0.24362 0.24261 0.0
H31 H 0.31043 0.24279 0.27093 0.0
H32 H 0.28483 0.32231 0.21859 0.0
H33 H 0.28446 0.292 0.24873 0.0
H34 H 0.22258 0.30666 0.18335 0.0
H35 H 0.22246 0.27614 0.21322 0.0
H36 H 0.20705 0.24754 0.37325 0.0
H37 H 0.23676 0.24641 0.34334 0.0
H38 H 0.1645 0.24326 0.29809 0.0
H39 H 0.19425 0.2426 0.2682 0.0
H40 H 0.21852 0.17229 0.32511 0.0
H41 H 0.21907 0.20197 0.29439 0.0
H42 H 0.28376 0.18259 0.35104 0.0
H43 H 0.28383 0.21316 0.32145 0.0
N44 N 0.26823 0.23171 0.27146 0.0
N45 N 0.23678 0.26009 0.26723 0.0
C46 C 0.68042 0.28121 0.22867 0.0
C47 C 0.67508 0.26435 0.20953 0.0
C48 C 0.69941 0.28129 0.2452 0.0
C49 C 0.71362 0.26475 0.24238 0.0
C50 C 0.68908 0.24758 0.20732 0.0
C51 C 0.70813 0.24777 0.22361 0.0
C52 C 0.7339 0.26444 0.25951 0.0
C53 C 0.73584 0.32039 0.20558 0.0
C54 C 0.73949 0.33951 0.22068 0.0
C55 C 0.73855 0.30156 0.21932 0.0
C56 C 0.74428 0.30156 0.24862 0.0
C57 C 0.74576 0.33956 0.24979 0.0
C58 C 0.74808 0.3207 0.26367 0.0
C59 C 0.74766 0.28174 0.26335 0.0
C60 C 0.82459 0.24419 0.3225 0.0
C61 C 0.8299 0.2602 0.34303 0.0
C62 C 0.80563 0.24474 0.30599 0.0
C63 C 0.79142 0.2611 0.31002 0.0
C64 C 0.81591 0.2769 0.34631 0.0
C65 C 0.79692 0.27737 0.32991 0.0
C66 C 0.77105 0.26173 0.29319 0.0
C67 C 0.76914 0.20421 0.34503 0.0
C68 C 0.76505 0.18551 0.32904 0.0
C69 C 0.7668 0.22346 0.33219 0.0
C70 C 0.76094 0.22426 0.30299 0.0
C71 C 0.75896 0.18631 0.29996 0.0
C72 C 0.75696 0.20553 0.28703 0.0
C73 C 0.75733 0.24441 0.2892 0.0
H74 H 0.66977 0.29418 0.23113 0.0
H75 H 0.70293 0.29423 0.26024 0.0
H76 H 0.68546 0.23446 0.19261 0.0
H77 H 0.71873 0.23474 0.22124 0.0
H78 H 0.73145 0.32002 0.18295 0.0
H79 H 0.73643 0.28702 0.20693 0.0
H80 H 0.74877 0.35416 0.26176 0.0
H81 H 0.75285 0.32106 0.28619 0.0
H82 H 0.83493 0.23105 0.31946 0.0
H83 H 0.80204 0.23231 0.29017 0.0
H84 H 0.81969 0.28971 0.36147 0.0
H85 H 0.78635 0.29033 0.33306 0.0
H86 H 0.77347 0.20394 0.36763 0.0
H87 H 0.76915 0.23767 0.34522 0.0
H88 H 0.75572 0.17206 0.28726 0.0
H89 H 0.75218 0.20579 0.26455 0.0
N90 N 0.7394 0.24646 0.27245 0.0
N91 N 0.76559 0.27974 0.28022 0.0
C92 C 0.695 0.74847 0.17707 0.0
C93 C 0.67556 0.75035 0.18882 0.0
C94 C 0.71354 0.74989 0.19447 0.0
C95 C 0.71303 0.75284 0.22406 0.0
C96 C 0.6751 0.75377 0.21838 0.0
C97 C 0.69366 0.75507 0.2358 0.0
C98 C 0.73258 0.75445 0.24274 0.0
C99 C 0.7309 0.68864 0.20309 0.0
C100 C 0.74751 0.68376 0.18605 0.0
C101 C 0.73135 0.70685 0.22073 0.0
C102 C 0.74836 0.72083 0.22171 0.0
C103 C 0.76462 0.69766 0.18737 0.0
C104 C 0.76509 0.71582 0.20509 0.0
C105 C 0.7493 0.74014 0.24077 0.0
C106 C 0.80772 0.76422 0.34194 0.0
C107 C 0.82687 0.76155 0.32958 0.0
C108 C 0.78894 0.76413 0.32494 0.0
C109 C 0.78899 0.76175 0.29523 0.0
C110 C 0.82684 0.75907 0.29986 0.0
C111 C 0.80809 0.75909 0.2829 0.0
C112 C 0.76929 0.76042 0.2769 0.0
C113 C 0.7717 0.82518 0.31934 0.0
C114 C 0.75429 0.83093 0.33436 0.0
C115 C 0.7712 0.80721 0.30122 0.0
C116 C 0.75347 0.79408 0.29818 0.0
C117 C 0.73636 0.81815 0.33066 0.0
C118 C 0.73597 0.80002 0.31285 0.0
C119 C 0.75256 0.77477 0.27896 0.0
H120 H 0.69589 0.74629 0.15432 0.0
H121 H 0.72829 0.74886 0.18475 0.0
H122 H 0.66037 0.75518 0.22809 0.0
H123 H 0.69289 0.75758 0.25852 0.0
H124 H 0.7174 0.67845 0.20264 0.0
H125 H 0.71843 0.70991 0.23379 0.0
H126 H 0.77788 0.69435 0.17503 0.0
H127 H 0.77854 0.7261 0.20564 0.0
H128 H 0.80722 0.76583 0.3648 0.0
H129 H 0.77437 0.76554 0.33505 0.0
H130 H 0.84133 0.75719 0.28968 0.0
H131 H 0.80851 0.75704 0.26006 0.0
H132 H 0.78563 0.83484 0.32113 0.0
H133 H 0.78466 0.80375 0.28935 0.0
H134 H 0.72267 0.82199 0.3419 0.0
H135 H 0.72196 0.79048 0.31078 0.0
N136 N 0.73483 0.77102 0.26181 0.0
N137 N 0.767 0.74387 0.25785 0.0
C138 C 0.32046 0.73117 0.20369 0.0
C139 C 0.3232 0.74671 0.18394 0.0
C140 C 0.30317 0.73161 0.2201 0.0
C141 C 0.28816 0.74753 0.21693 0.0
C142 C 0.30823 0.76269 0.181 0.0
C143 C 0.29098 0.76314 0.19741 0.0
C144 C 0.27011 0.74877 0.23484 0.0
C145 C 0.25791 0.69074 0.18051 0.0
C146 C 0.25777 0.67212 0.19536 0.0
C147 C 0.25841 0.71004 0.19517 0.0
C148 C 0.25901 0.71106 0.22495 0.0
C149 C 0.25863 0.67312 0.2252 0.0
C150 C 0.25906 0.6925 0.23989 0.0
C151 C 0.25759 0.73143 0.24023 0.0
C152 C 0.18584 0.76972 0.29818 0.0
C153 C 0.18429 0.7561 0.32067 0.0
C154 C 0.20311 0.76885 0.28173 0.0
C155 C 0.2192 0.75439 0.28754 0.0
C156 C 0.20032 0.74149 0.32618 0.0
C157 C 0.21751 0.74054 0.30962 0.0
C158 C 0.23744 0.75303 0.27007 0.0
C159 C 0.24292 0.81568 0.31673 0.0
C160 C 0.24502 0.83279 0.29938 0.0
C161 C 0.24411 0.7953 0.30539 0.0
C162 C 0.24677 0.79179 0.27634 0.0
C163 C 0.2478 0.82934 0.27043 0.0
C164 C 0.24858 0.80898 0.25897 0.0
C165 C 0.24971 0.77049 0.26419 0.0
H166 H 0.33165 0.71859 0.2064 0.0
H167 H 0.30171 0.71968 0.23553 0.0
H168 H 0.31003 0.77511 0.16637 0.0
H169 H 0.27977 0.77572 0.1948 0.0
H170 H 0.25742 0.69038 0.15751 0.0
H171 H 0.25777 0.72417 0.18316 0.0
H172 H 0.25835 0.65897 0.23709 0.0
H173 H 0.25922 0.69302 0.26288 0.0
H174 H 0.1738 0.7812 0.29346 0.0
H175 H 0.20385 0.7794 0.2644 0.0
H176 H 0.19943 0.73057 0.34307 0.0
H177 H 0.2296 0.72908 0.31424 0.0
H178 H 0.24117 0.81808 0.33928 0.0
H179 H 0.24359 0.7824 0.31954 0.0
H180 H 0.24952 0.84238 0.25677 0.0
H181 H 0.25088 0.80664 0.23656 0.0
N182 N 0.26554 0.76763 0.24689 0.0
N183 N 0.2419 0.73415 0.25785 0.0
C184 C 0.18577 0.7835 0.69872 0.0
C185 C 0.17943 0.76585 0.68155 0.0
C186 C 0.20433 0.78316 0.71617 0.0
C187 C 0.21695 0.76522 0.71661 0.0
C188 C 0.19202 0.74786 0.6823 0.0
C189 C 0.21052 0.74752 0.69979 0.0
C190 C 0.23632 0.76428 0.73552 0.0
C191 C 0.24644 0.813 0.67051 0.0
C192 C 0.25142 0.83329 0.68178 0.0
C193 C 0.24679 0.79569 0.68806 0.0
C194 C 0.25178 0.79809 0.71756 0.0
C195 C 0.25687 0.83555 0.71125 0.0
C196 C 0.25714 0.81822 0.72879 0.0
C197 C 0.2522 0.77977 0.73666 0.0
C198 C 0.32134 0.73878 0.80787 0.0
C199 C 0.32926 0.75609 0.82449 0.0
C200 C 0.30262 0.74031 0.79104 0.0
C201 C 0.29121 0.75907 0.79087 0.0
C202 C 0.31807 0.77501 0.82375 0.0
C203 C 0.29927 0.77649 0.80702 0.0
C204 C 0.27135 0.76086 0.77305 0.0
C205 C 0.26047 0.71298 0.83892 0.0
C206 C 0.25517 0.69269 0.82795 0.0
C207 C 0.26049 0.7301 0.82106 0.0
C208 C 0.25544 0.72746 0.7916 0.0
C209 C 0.24976 0.6902 0.79852 0.0
C210 C 0.24978 0.70733 0.78068 0.0
C211 C 0.25528 0.74559 0.77222 0.0
H212 H 0.17644 0.79762 0.69854 0.0
H213 H 0.20872 0.79685 0.72947 0.0
H214 H 0.1874 0.7339 0.66971 0.0
H215 H 0.21988 0.73341 0.7001 0.0
H216 H 0.24205 0.81045 0.64807 0.0
H217 H 0.24323 0.78036 0.67842 0.0
H218 H 0.26124 0.85071 0.72083 0.0
H219 H 0.26139 0.82062 0.75131 0.0
H220 H 0.3298 0.72413 0.80751 0.0
H221 H 0.29714 0.72685 0.77798 0.0
H222 H 0.32371 0.78859 0.83643 0.0
H223 H 0.29087 0.79119 0.80699 0.0
H224 H 0.26484 0.71565 0.86135 0.0
H225 H 0.26436 0.74545 0.83041 0.0
H226 H 0.24519 0.67501 0.78921 0.0
H227 H 0.24552 0.70478 0.75819 0.0
N228 N 0.23854 0.74789 0.7532 0.0
N229 N 0.26905 0.77738 0.75555 0.0
C230 C 0.32224 0.2802 0.83014 0.0
C231 C 0.32836 0.2631 0.84665 0.0
C232 C 0.30319 0.27982 0.81373 0.0
C233 C 0.28972 0.26251 0.81403 0.0
C234 C 0.31498 0.24572 0.84665 0.0
C235 C 0.29588 0.24543 0.83048 0.0
C236 C 0.26985 0.2613 0.79597 0.0
C237 C 0.26212 0.31648 0.85587 0.0
C238 C 0.25917 0.33559 0.84236 0.0
C239 C 0.26118 0.29764 0.83998 0.0
C240 C 0.25755 0.29764 0.81031 0.0
C241 C 0.25554 0.33552 0.81264 0.0
C242 C 0.25463 0.31668 0.79677 0.0
C243 C 0.25537 0.27787 0.79339 0.0
C244 C 0.18189 0.23695 0.72586 0.0
C245 C 0.17608 0.25309 0.70743 0.0
C246 C 0.20047 0.23829 0.74323 0.0
C247 C 0.21378 0.25565 0.74222 0.0
C248 C 0.18915 0.27073 0.70712 0.0
C249 C 0.20776 0.27201 0.72441 0.0
C250 C 0.23373 0.25717 0.76006 0.0
C251 C 0.24094 0.20226 0.69974 0.0
C252 C 0.24563 0.18319 0.71268 0.0
C253 C 0.24163 0.22098 0.71584 0.0
C254 C 0.24637 0.22092 0.74533 0.0
C255 C 0.25059 0.18322 0.74218 0.0
C256 C 0.25096 0.20193 0.75833 0.0
C257 C 0.2483 0.24065 0.76247 0.0
H258 H 0.33241 0.29366 0.82939 0.0
H259 H 0.29921 0.29289 0.80043 0.0
H260 H 0.31921 0.23238 0.85934 0.0
H261 H 0.28587 0.23181 0.83087 0.0
H262 H 0.26506 0.31608 0.87874 0.0
H263 H 0.26295 0.28308 0.85093 0.0
H264 H 0.25288 0.34999 0.80172 0.0
H265 H 0.25154 0.31695 0.77391 0.0
H266 H 0.17225 0.22311 0.72658 0.0
H267 H 0.20446 0.22572 0.75739 0.0
H268 H 0.18495 0.28364 0.69365 0.0
H269 H 0.21761 0.2857 0.72358 0.0
H270 H 0.23685 0.20278 0.67711 0.0
H271 H 0.23876 0.2355 0.70512 0.0
H272 H 0.25467 0.16888 0.75273 0.0
H273 H 0.25502 0.20159 0.781 0.0
N274 N 0.26566 0.24333 0.78044 0.0
N275 N 0.23795 0.2752 0.77547 0.0
C276 C 0.81747 0.23502 0.71781 0.0
C277 C 0.82132 0.25155 0.69996 0.0
C278 C 0.79991 0.23528 0.73367 0.0
C279 C 0.78579 0.25203 0.73199 0.0
C280 C 0.80715 0.26836 0.69852 0.0
C281 C 0.78969 0.26867 0.71456 0.0
C282 C 0.76741 0.25272 0.74915 0.0
C283 C 0.75696 0.20021 0.68299 0.0
C284 C 0.75399 0.18019 0.69357 0.0
C285 C 0.75647 0.21826 0.70081 0.0
C286 C 0.75342 0.21685 0.72994 0.0
C287 C 0.75041 0.17885 0.72256 0.0
C288 C 0.75007 0.19691 0.74043 0.0
C289 C 0.75291 0.23601 0.74928 0.0
C290 C 0.68539 0.27344 0.81689 0.0
C291 C 0.68208 0.25747 0.83577 0.0
C292 C 0.70251 0.27268 0.80021 0.0
C293 C 0.71663 0.25591 0.80207 0.0
C294 C 0.69608 0.24056 0.83727 0.0
C295 C 0.71308 0.2397 0.82036 0.0
C296 C 0.73493 0.25509 0.78473 0.0
C297 C 0.74584 0.30789 0.85064 0.0
C298 C 0.7487 0.32788 0.83983 0.0
C299 C 0.74612 0.28976 0.83294 0.0
C300 C 0.7489 0.29103 0.80373 0.0
C301 C 0.75193 0.32904 0.81069 0.0
C302 C 0.75211 0.3109 0.79298 0.0
C303 C 0.74941 0.2718 0.78456 0.0
H304 H 0.82822 0.22204 0.71996 0.0
H305 H 0.79748 0.2225 0.74753 0.0
H306 H 0.80939 0.28121 0.68475 0.0
H307 H 0.77905 0.2818 0.71307 0.0
H308 H 0.75927 0.202 0.66071 0.0
H309 H 0.75824 0.23336 0.69163 0.0
H310 H 0.74816 0.16377 0.73161 0.0
H311 H 0.74745 0.19525 0.76265 0.0
H312 H 0.67491 0.28669 0.81534 0.0
H313 H 0.70475 0.28519 0.78587 0.0
H314 H 0.69376 0.22789 0.85135 0.0
H315 H 0.72368 0.22653 0.82191 0.0
H316 H 0.74319 0.30619 0.87282 0.0
H317 H 0.74433 0.27471 0.84226 0.0
H318 H 0.75464 0.34399 0.80153 0.0
H319 H 0.75464 0.31243 0.77071 0.0
N320 N 0.76499 0.26992 0.76656 0.0
N321 N 0.73732 0.23787 0.76731 0.0
C322 C 0.80237 0.76049 0.67137 0.0
C323 C 0.82241 0.75559 0.68325 0.0
C324 C 0.78498 0.75909 0.68742 0.0
C325 C 0.78736 0.75333 0.71596 0.0
C326 C 0.82474 0.74952 0.7116 0.0
C327 C 0.80741 0.74842 0.72777 0.0
C328 C 0.76908 0.75091 0.73316 0.0
C329 C 0.76679 0.81875 0.7103 0.0
C330 C 0.74908 0.82378 0.6926 0.0
C331 C 0.76807 0.79945 0.72318 0.0
C332 C 0.75169 0.78493 0.71847 0.0
C333 C 0.7327 0.80922 0.68801 0.0
C334 C 0.73394 0.79001 0.70104 0.0
C335 C 0.75219 0.76506 0.73323 0.0
C336 C 0.70252 0.73625 0.82809 0.0
C337 C 0.68251 0.74156 0.81652 0.0
C338 C 0.71967 0.73664 0.81146 0.0
C339 C 0.71705 0.74173 0.78266 0.0
C340 C 0.67991 0.74683 0.78787 0.0
C341 C 0.69698 0.74688 0.77113 0.0
C342 C 0.73515 0.74376 0.76504 0.0
C343 C 0.73784 0.67711 0.79261 0.0
C344 C 0.75563 0.67298 0.81069 0.0
C345 C 0.73651 0.6956 0.77775 0.0
C346 C 0.75294 0.71018 0.78082 0.0
C347 C 0.77216 0.68746 0.81331 0.0
C348 C 0.77088 0.70583 0.79833 0.0
C349 C 0.75207 0.72961 0.76503 0.0
H350 H 0.80008 0.76485 0.6494 0.0
H351 H 0.76967 0.76208 0.67726 0.0
H352 H 0.84001 0.74572 0.72133 0.0
H353 H 0.8097 0.74371 0.74959 0.0
H354 H 0.77966 0.8297 0.71405 0.0
H355 H 0.7817 0.79598 0.73711 0.0
H356 H 0.71879 0.81283 0.67472 0.0
H357 H 0.72102 0.77909 0.6975 0.0
H358 H 0.705 0.73247 0.85027 0.0
H359 H 0.73503 0.73354 0.82141 0.0
H360 H 0.66464 0.75092 0.7784 0.0
H361 H 0.69451 0.75113 0.74913 0.0
H362 H 0.72487 0.66621 0.79032 0.0
H363 H 0.72272 0.69849 0.76382 0.0
H364 H 0.78614 0.6845 0.82682 0.0
H365 H 0.78381 0.71679 0.80066 0.0
N366 N 0.76834 0.73379 0.74926 0.0
N367 N 0.73591 0.76087 0.74895 0.0
C368 C 0.03507 0.26896 0.56997 0.0
C369 C 0.04233 0.2878 0.58261 0.0
C370 C 0.03175 0.30331 0.5687 0.0
C371 C 0.01875 0.29313 0.54841 0.0
N372 N 0.02023 0.27202 0.54859 0.0
Co373 Co 0.00441 0.25122 0.52227 0.0
N374 N 0.99001 0.27414 0.50052 0.0
C375 C 0.99314 0.29498 0.5047 0.0
C376 C 0.9807 0.30689 0.48686 0.0
C377 C 0.96874 0.29285 0.47042 0.0
C378 C 0.97467 0.27308 0.47917 0.0
N379 N 0.98814 0.23043 0.49648 0.0
C380 C 0.97273 0.23354 0.4759 0.0
C381 C 0.96504 0.21475 0.46361 0.0
C382 C 0.97567 0.19918 0.47734 0.0
C383 C 0.9892 0.2093 0.49706 0.0
N384 N 0.0192 0.2283 0.54355 0.0
C385 C 0.01694 0.20743 0.53836 0.0
C386 C 0.02967 0.19556 0.55591 0.0
C387 C 0.04097 0.20967 0.57312 0.0
C388 C 0.03448 0.22941 0.56496 0.0
N389 N 0.98157 0.25114 0.54848 0.0
C390 C 0.94769 0.25096 0.58325 0.0
C391 C 0.95635 0.23226 0.57347 0.0
C392 C 0.97323 0.2327 0.55644 0.0
C393 C 0.95652 0.26976 0.57579 0.0
C394 C 0.97325 0.26949 0.55844 0.0
N395 N 0.02729 0.25128 0.49597 0.0
C396 C 0.04945 0.23276 0.46416 0.0
C397 C 0.06068 0.25098 0.46037 0.0
C398 C 0.05484 0.26942 0.47436 0.0
C399 C 0.03806 0.26928 0.49163 0.0
C400 C 0.0331 0.23321 0.48212 0.0
H401 H 0.0342 0.28392 0.50131 0.0
H402 H 0.02558 0.21866 0.48463 0.0
H403 H 0.97916 0.21792 0.54979 0.0
H404 H 0.97901 0.28433 0.55307 0.0
C405 C 0.00632 0.30295 0.52736 0.0
C406 C 0.04364 0.24868 0.57785 0.0
C407 C 0.96447 0.25386 0.46775 0.0
C408 C 0.00286 0.19945 0.51671 0.0
H409 H 0.05442 0.29019 0.59961 0.0
H410 H 0.03382 0.32002 0.57231 0.0
H411 H 0.97984 0.32379 0.48658 0.0
H412 H 0.95663 0.2968 0.45437 0.0
H413 H 0.95282 0.21255 0.44672 0.0
H414 H 0.97357 0.18248 0.47366 0.0
H415 H 0.03075 0.17867 0.55598 0.0
H416 H 0.05282 0.20588 0.58963 0.0
H417 H 0.95022 0.2173 0.57906 0.0
H418 H 0.95023 0.28465 0.58274 0.0
H419 H 0.05359 0.21809 0.45382 0.0
H420 H 0.06304 0.28395 0.47175 0.0
C421 C 0.73663 0.04186 0.54758 0.0
C422 C 0.71748 0.05125 0.55134 0.0
C423 C 0.70289 0.04001 0.53469 0.0
C424 C 0.71389 0.02451 0.52165 0.0
N425 N 0.73463 0.02501 0.52909 0.0
Co426 Co 0.75632 0.00579 0.51382 0.0
N427 N 0.73474 0.98902 0.48964 0.0
C428 C 0.71383 0.99187 0.48866 0.0
C429 C 0.70271 0.9773 0.47176 0.0
C430 C 0.71735 0.96423 0.46137 0.0
C431 C 0.73672 0.97172 0.47231 0.0
N432 N 0.77809 0.98705 0.49778 0.0
C433 C 0.77618 0.97055 0.47866 0.0
C434 C 0.79558 0.96268 0.47257 0.0
C435 C 0.81018 0.97426 0.48872 0.0
C436 C 0.799 0.98866 0.50352 0.0
N437 N 0.77783 0.02207 0.53882 0.0
C438 C 0.7986 0.01828 0.54149 0.0
C439 C 0.80948 0.03174 0.56041 0.0
C440 C 0.79481 0.04496 0.5705 0.0
C441 C 0.77574 0.03884 0.557 0.0
N442 N 0.75326 0.98644 0.54502 0.0
C443 C 0.74876 0.95663 0.58647 0.0
C444 C 0.7684 0.96147 0.57759 0.0
C445 C 0.77029 0.97637 0.55718 0.0
C446 C 0.73149 0.96758 0.57506 0.0
C447 C 0.73407 0.98231 0.55452 0.0
N448 N 0.7594 0.02519 0.48267 0.0
C449 C 0.78075 0.04898 0.45873 0.0
C450 C 0.7633 0.05596 0.44251 0.0
C451 C 0.74402 0.0466 0.44558 0.0
C452 C 0.74241 0.03136 0.46572 0.0
C453 C 0.7785 0.03355 0.47832 0.0
H454 H 0.72721 0.02516 0.46762 0.0
H455 H 0.7924 0.02899 0.49005 0.0
H456 H 0.78565 0.97913 0.55117 0.0
H457 H 0.72028 0.9899 0.54637 0.0
C458 C 0.70512 0.00869 0.50335 0.0
C459 C 0.7562 0.04969 0.56195 0.0
C460 C 0.75646 0.96167 0.46583 0.0
C461 C 0.80757 0.00299 0.52428 0.0
H462 H 0.71439 0.06482 0.56475 0.0
H463 H 0.68622 0.04274 0.53248 0.0
H464 H 0.68593 0.97625 0.46757 0.0
H465 H 0.71405 0.95062 0.44747 0.0
H466 H 0.79888 0.94981 0.45808 0.0
H467 H 0.82695 0.97222 0.48985 0.0
H468 H 0.82616 0.03217 0.5658 0.0
H469 H 0.79783 0.05782 0.58581 0.0
H470 H 0.78227 0.95328 0.58555 0.0
H471 H 0.71599 0.96464 0.58166 0.0
H472 H 0.79606 0.05561 0.45657 0.0
H473 H 0.73009 0.0516 0.43332 0.0
C474 C 0.03418 0.78103 0.54921 0.0
C475 C 0.04006 0.80053 0.56106 0.0
C476 C 0.02835 0.81494 0.54645 0.0
C477 C 0.01597 0.80346 0.52672 0.0
N478 N 0.01892 0.78256 0.528 0.0
Co479 Co 0.0041 0.76012 0.50347 0.0
N480 N 0.98859 0.78142 0.47999 0.0
C481 C 0.99092 0.80246 0.48223 0.0
C482 C 0.97806 0.81298 0.46319 0.0
C483 C 0.96667 0.79778 0.44806 0.0
C484 C 0.97322 0.77881 0.45893 0.0
N485 N 0.98861 0.73768 0.47963 0.0
C486 C 0.97271 0.7393 0.45929 0.0
C487 C 0.96533 0.7198 0.44928 0.0
C488 C 0.97681 0.70531 0.46407 0.0
C489 C 0.99041 0.71675 0.48225 0.0
N490 N 0.02025 0.73882 0.52627 0.0
C491 C 0.01916 0.71776 0.5225 0.0
C492 C 0.03302 0.70723 0.54023 0.0
C493 C 0.04389 0.72248 0.55598 0.0
C494 C 0.0359 0.7415 0.54698 0.0
N495 N 0.98143 0.76008 0.53002 0.0
C496 C 0.9475 0.7595 0.56496 0.0
C497 C 0.9589 0.74135 0.55935 0.0
C498 C 0.97555 0.74196 0.54191 0.0
C499 C 0.95378 0.77805 0.55321 0.0
C500 C 0.9707 0.77802 0.53619 0.0
N501 N 0.02675 0.76014 0.47688 0.0
C502 C 0.04986 0.74144 0.44656 0.0
C503 C 0.06023 0.75994 0.44127 0.0
C504 C 0.05332 0.77858 0.45375 0.0
C505 C 0.03665 0.77835 0.47118 0.0
C506 C 0.03336 0.74188 0.46432 0.0
H507 H 0.03215 0.79311 0.47993 0.0
H508 H 0.02638 0.72719 0.4678 0.0
H509 H 0.98329 0.72751 0.5382 0.0
H510 H 0.97461 0.79268 0.52796 0.0
C511 C 0.0033 0.81189 0.5047 0.0
C512 C 0.04428 0.76165 0.55788 0.0
C513 C 0.96353 0.75888 0.44973 0.0
C514 C 0.00492 0.70834 0.50216 0.0
H515 H 0.05198 0.80397 0.57801 0.0
H516 H 0.02932 0.83181 0.54917 0.0
H517 H 0.9765 0.82975 0.46136 0.0
H518 H 0.95446 0.80037 0.43152 0.0
H519 H 0.95271 0.71641 0.43329 0.0
H520 H 0.97518 0.68845 0.46216 0.0
H521 H 0.03517 0.69048 0.54129 0.0
H522 H 0.0565 0.71989 0.57195 0.0
H523 H 0.95509 0.72664 0.56839 0.0
H524 H 0.94544 0.79254 0.55655 0.0
H525 H 0.05475 0.72655 0.43757 0.0
H526 H 0.06066 0.79338 0.44994 0.0
C527 C 0.26898 0.96892 0.54711 0.0
C528 C 0.28835 0.96111 0.5565 0.0
C529 C 0.30301 0.97367 0.54624 0.0
C530 C 0.29187 0.98831 0.53103 0.0
N531 N 0.27093 0.98594 0.53097 0.0
Co532 Co 0.2492 0.00345 0.51013 0.0
N533 N 0.27084 0.02262 0.49632 0.0
C534 C 0.29171 0.02159 0.50253 0.0
C535 C 0.30272 0.03701 0.49076 0.0
C536 C 0.28802 0.0487 0.47623 0.0
C537 C 0.26879 0.0397 0.47994 0.0
N538 N 0.22749 0.02046 0.48836 0.0
C539 C 0.22951 0.03718 0.4717 0.0
C540 C 0.21028 0.04378 0.46 0.0
C541 C 0.19561 0.0308 0.46945 0.0
C542 C 0.20663 0.01703 0.48632 0.0
N543 N 0.22749 0.98481 0.52494 0.0
C544 C 0.20653 0.98674 0.52035 0.0
C545 C 0.19545 0.97233 0.53394 0.0
C546 C 0.21016 0.9605 0.54822 0.0
C547 C 0.2295 0.96828 0.54235 0.0
N548 N 0.2475 0.02225 0.54405 0.0
C549 C 0.24558 0.05287 0.58775 0.0
C550 C 0.2275 0.04609 0.57198 0.0
C551 C 0.22878 0.03073 0.55057 0.0
C552 C 0.26447 0.0432 0.58264 0.0
C553 C 0.26508 0.02799 0.56076 0.0
N554 N 0.25085 0.98478 0.476 0.0
C555 C 0.23374 0.96244 0.43911 0.0
C556 C 0.25255 0.95902 0.42664 0.0
C557 C 0.27056 0.96869 0.43935 0.0
C558 C 0.26938 0.98133 0.46393 0.0
C559 C 0.23324 0.97531 0.46342 0.0
H560 H 0.28367 0.98811 0.47274 0.0
H561 H 0.21838 0.97721 0.47166 0.0
H562 H 0.21447 0.02641 0.53913 0.0
H563 H 0.28002 0.02157 0.55724 0.0
C564 C 0.30055 0.00522 0.51807 0.0
C565 C 0.24926 0.95949 0.55405 0.0
C566 C 0.24914 0.04769 0.46683 0.0
C567 C 0.19779 1.00156 0.50191 0.0
H568 H 0.29157 0.94774 0.56951 0.0
H569 H 0.31981 0.97243 0.54974 0.0
H570 H 0.31948 0.03929 0.49221 0.0
H571 H 0.29113 0.06219 0.464 0.0
H572 H 0.20715 0.05679 0.44629 0.0
H573 H 0.17886 0.03153 0.46493 0.0
H574 H 0.17866 0.97052 0.53335 0.0
H575 H 0.20699 0.94757 0.56144 0.0
H576 H 0.21248 0.05298 0.57573 0.0
H577 H 0.27885 0.04803 0.59454 0.0
H578 H 0.21942 0.95487 0.43058 0.0
H579 H 0.28551 0.96657 0.43043 0.0
C580 C 0.53577 0.76604 0.04817 0.0
C581 C 0.5437 0.78518 0.05887 0.0
C582 C 0.53312 0.80023 0.04403 0.0
C583 C 0.51946 0.78948 0.02515 0.0
N584 N 0.52044 0.76845 0.02723 0.0
Co585 Co 0.5042 0.74689 0.00273 0.0
N586 N 0.48884 0.76909 0.98062 0.0
C587 C 0.4909 0.79007 0.98478 0.0
C588 C 0.47741 0.80139 0.96757 0.0
C589 C 0.46577 0.7868 0.95168 0.0
C590 C 0.473 0.76732 0.96002 0.0
N591 N 0.4884 0.72535 0.97773 0.0
C592 C 0.47303 0.72773 0.95684 0.0
C593 C 0.46636 0.70861 0.94453 0.0
C594 C 0.47764 0.69357 0.95851 0.0
C595 C 0.49058 0.70431 0.97835 0.0
N596 N 0.51906 0.7247 0.02542 0.0
C597 C 0.51626 0.70374 0.02218 0.0
C598 C 0.52867 0.69248 0.04092 0.0
C599 C 0.54019 0.70709 0.057 0.0
C600 C 0.53417 0.72648 0.04699 0.0
N601 N 0.48169 0.74725 0.02947 0.0
C602 C 0.44852 0.74773 0.06557 0.0
C603 C 0.45555 0.72897 0.05356 0.0
C604 C 0.47199 0.72908 0.03578 0.0
C605 C 0.4586 0.76624 0.05949 0.0
C606 C 0.47504 0.76564 0.0416 0.0
N607 N 0.52677 0.74649 0.97594 0.0
C608 C 0.55292 0.72753 0.95099 0.0
C609 C 0.5599 0.7459 0.93955 0.0
C610 C 0.54976 0.76458 0.94649 0.0
C611 C 0.53349 0.76453 0.96465 0.0
C612 C 0.53642 0.72815 0.96869 0.0
H613 H 0.52667 0.77932 0.96931 0.0
H614 H 0.53194 0.71354 0.97644 0.0
H615 H 0.4764 0.71427 0.02712 0.0
H616 H 0.48204 0.78028 0.03776 0.0
C617 C 0.50544 0.79867 0.00537 0.0
C618 C 0.54382 0.74604 0.05795 0.0
C619 C 0.46376 0.74763 0.94861 0.0
C620 C 0.50331 0.69509 0.99968 0.0
H621 H 0.55604 0.78797 0.07546 0.0
H622 H 0.53527 0.81701 0.04652 0.0
H623 H 0.47592 0.81824 0.96705 0.0
H624 H 0.45313 0.79019 0.9361 0.0
H625 H 0.45427 0.70582 0.9276 0.0
H626 H 0.47609 0.67678 0.95524 0.0
H627 H 0.52967 0.67563 0.04216 0.0
H628 H 0.55201 0.70385 0.0738 0.0
H629 H 0.44811 0.71422 0.05731 0.0
H630 H 0.45394 0.78116 0.0686 0.0
H631 H 0.56035 0.71264 0.94679 0.0
H632 H 0.55421 0.77925 0.93787 0.0
C633 C 0.23426 0.53182 0.06095 0.0
C634 C 0.21492 0.53776 0.06985 0.0
C635 C 0.20028 0.5284 0.05117 0.0
C636 C 0.21149 0.51736 0.03206 0.0
N637 N 0.23242 0.51889 0.03757 0.0
Co638 Co 0.25462 0.50589 0.01496 0.0
N639 N 0.23309 0.49248 0.98716 0.0
C640 C 0.21208 0.49386 0.98745 0.0
C641 C 0.20143 0.48225 0.96611 0.0
C642 C 0.21652 0.47261 0.95152 0.0
C643 C 0.23556 0.479 0.96488 0.0
N644 N 0.27682 0.49319 0.99213 0.0
C645 C 0.27499 0.47996 0.96907 0.0
C646 C 0.29429 0.47474 0.95942 0.0
C647 C 0.30893 0.4848 0.97739 0.0
C648 C 0.29774 0.49556 0.9968 0.0
N649 N 0.27616 0.51895 0.04304 0.0
C650 C 0.29716 0.51723 0.043 0.0
C651 C 0.30784 0.52791 0.06521 0.0
C652 C 0.29278 0.53715 0.08027 0.0
C653 C 0.27373 0.53153 0.06624 0.0
N654 N 0.25453 0.48035 0.0384 0.0
C655 C 0.25446 0.44442 0.07248 0.0
C656 C 0.2731 0.45288 0.06404 0.0
C657 C 0.27278 0.47061 0.04729 0.0
C658 C 0.23586 0.45433 0.06312 0.0
C659 C 0.23624 0.47196 0.04623 0.0
N660 N 0.25471 0.53146 0.99146 0.0
C661 C 0.27346 0.55884 0.96935 0.0
C662 C 0.25491 0.56711 0.95688 0.0
C663 C 0.23624 0.55724 0.96249 0.0
C664 C 0.23649 0.53971 0.97962 0.0
C665 C 0.27301 0.5413 0.9864 0.0
H666 H 0.22169 0.53304 0.98286 0.0
H667 H 0.28771 0.536 0.99528 0.0
H668 H 0.28755 0.47615 0.04171 0.0
H669 H 0.22148 0.47859 0.03984 0.0
C670 C 0.20283 0.50556 0.00866 0.0
C671 C 0.25387 0.53955 0.07477 0.0
C672 C 0.2555 0.47091 0.95675 0.0
C673 C 0.30641 0.50652 0.02091 0.0
H674 H 0.21178 0.54801 0.0878 0.0
H675 H 0.18347 0.52968 0.05131 0.0
H676 H 0.18468 0.4806 0.96205 0.0
H677 H 0.21383 0.46175 0.93349 0.0
H678 H 0.29742 0.46429 0.94167 0.0
H679 H 0.32573 0.48383 0.97693 0.0
H680 H 0.32459 0.52924 0.06955 0.0
H681 H 0.29549 0.54724 0.09909 0.0
H682 H 0.28799 0.44575 0.07002 0.0
H683 H 0.22093 0.44879 0.06911 0.0
H684 H 0.28838 0.56599 0.96632 0.0
H685 H 0.22139 0.56274 0.9533 0.0
C686 C 0.47401 0.28008 0.97848 0.0
C687 C 0.46802 0.29935 0.968 0.0
C688 C 0.47934 0.31414 0.984 0.0
C689 C 0.49167 0.3031 0.00306 0.0
N690 N 0.48906 0.28213 1.00005 0.0
Co691 Co 0.50445 0.26025 0.02255 0.0
N692 N 0.51917 0.28207 0.04828 0.0
C693 C 0.51611 0.30299 0.04805 0.0
C694 C 0.52789 0.31399 0.06893 0.0
C695 C 0.53927 0.29922 0.08328 0.0
C696 C 0.53389 0.28001 0.07005 0.0
N697 N 0.52069 0.2384 0.04418 0.0
C698 C 0.53619 0.24053 0.06523 0.0
C699 C 0.54452 0.22128 0.0727 0.0
C700 C 0.53389 0.20647 0.05585 0.0
C701 C 0.51988 0.21746 0.03895 0.0
N702 N 0.48884 0.23842 0.99774 0.0
C703 C 0.49047 0.21741 0.99964 0.0
C704 C 0.47662 0.20637 0.98137 0.0
C705 C 0.46518 0.22119 0.96721 0.0
C706 C 0.4729 0.24052 0.97754 0.0
N707 N 0.52709 0.26102 0.99597 0.0
C708 C 0.56013 0.26166 0.95974 0.0
C709 C 0.54901 0.24327 0.96314 0.0
C710 C 0.53278 0.24327 0.98128 0.0
C711 C 0.5543 0.27979 0.97454 0.0
C712 C 0.53778 0.27917 0.99222 0.0
N713 N 0.48183 0.25943 0.04906 0.0
C714 C 0.45984 0.23982 0.07808 0.0
C715 C 0.44815 0.25766 0.08422 0.0
C716 C 0.45398 0.27652 0.07289 0.0
C717 C 0.47078 0.27708 0.05567 0.0
C718 C 0.47638 0.24102 0.06058 0.0
H719 H 0.47437 0.29193 0.04766 0.0
H720 H 0.48442 0.22678 0.05652 0.0
H721 H 0.52523 0.22863 0.98322 0.0
H722 H 0.53402 0.29358 0.0027 0.0
C723 C 0.50381 0.31196 0.02614 0.0
C724 C 0.46415 0.26042 0.96826 0.0
C725 C 0.54392 0.26042 0.07812 0.0
C726 C 0.50536 0.20855 0.01858 0.0
H727 H 0.45625 0.30242 0.95107 0.0
H728 H 0.47812 0.33097 0.98264 0.0
H729 H 0.52862 0.33078 0.07269 0.0
H730 H 0.55063 0.30228 0.10104 0.0
H731 H 0.55712 0.2182 0.08847 0.0
H732 H 0.53619 0.1897 0.05582 0.0
H733 H 0.47487 0.18955 0.97891 0.0
H734 H 0.45241 0.21806 0.95139 0.0
H735 H 0.5531 0.22878 0.9523 0.0
H736 H 0.56233 0.29447 0.9723 0.0
H737 H 0.45633 0.2249 0.08679 0.0
H738 H 0.44538 0.29079 0.07672 0.0
C739 C 0.72696 0.54196 0.046 0.0
C740 C 0.70759 0.55042 0.05095 0.0
C741 C 0.69301 0.53829 0.03561 0.0
C742 C 0.7042 0.52306 0.02233 0.0
N743 N 0.72509 0.52471 0.0282 0.0
Co744 Co 0.74691 0.50517 0.01396 0.0
N745 N 0.72545 0.48792 0.99025 0.0
C746 C 0.70467 0.49161 0.98723 0.0
C747 C 0.69385 0.47748 0.96922 0.0
C748 C 0.70858 0.46394 0.96006 0.0
C749 C 0.72762 0.47056 0.97315 0.0
N750 N 0.76864 0.48522 1.0005 0.0
C751 C 0.76673 0.4678 0.98304 0.0
C752 C 0.78589 0.45823 0.98009 0.0
C753 C 0.80042 0.46997 0.99615 0.0
C754 C 0.78937 0.48594 0.00806 0.0
N755 N 0.76844 0.52286 0.03686 0.0
C756 C 0.78936 0.51995 0.03834 0.0
C757 C 0.80035 0.53491 0.05475 0.0
C758 C 0.78562 0.54828 0.06426 0.0
C759 C 0.76636 0.54061 0.05324 0.0
N760 N 0.74369 0.48741 0.04687 0.0
C761 C 0.73943 0.46 0.09122 0.0
C762 C 0.75882 0.46863 0.08682 0.0
C763 C 0.7606 0.48215 0.0646 0.0
C764 C 0.7221 0.46584 0.07382 0.0
C765 C 0.72453 0.4796 0.0521 0.0
N766 N 0.75012 0.5229 0.98105 0.0
C767 C 0.77197 0.5397 0.94904 0.0
C768 C 0.7547 0.54985 0.93614 0.0
C769 C 0.73505 0.54577 0.94555 0.0
C770 C 0.73312 0.53228 0.9677 0.0
C771 C 0.76935 0.52642 0.97131 0.0
H772 H 0.71773 0.53 0.97393 0.0
H773 H 0.78314 0.51938 0.98047 0.0
H774 H 0.77588 0.48784 0.06191 0.0
H775 H 0.7107 0.48342 0.03963 0.0
C776 C 0.69566 0.50777 0.00292 0.0
C777 C 0.74661 0.5509 0.0588 0.0
C778 C 0.74724 0.45971 0.96874 0.0
C779 C 0.79811 0.50248 0.02511 0.0
H780 H 0.70433 0.56403 0.06421 0.0
H781 H 0.67626 0.54047 0.03404 0.0
H782 H 0.67719 0.47691 0.9637 0.0
H783 H 0.70564 0.45059 0.94554 0.0
H784 H 0.78904 0.44425 0.96749 0.0
H785 H 0.81709 0.4673 0.99859 0.0
H786 H 0.81709 0.5359 0.05937 0.0
H787 H 0.78873 0.56212 0.07779 0.0
H788 H 0.77268 0.4644 0.09981 0.0
H789 H 0.70672 0.4597 0.07681 0.0
H790 H 0.7875 0.54209 0.94218 0.0
H791 H 0.72119 0.55344 0.93654 0.0
H792 H 0.17567 0.27488 0.3788 0.0
H793 H 0.15112 0.21794 0.33735 0.0
H794 H 0.14572 0.27693 0.40767 0.0
H795 H 0.12171 0.2191 0.36724 0.0
H796 H 0.0612 0.23629 0.40553 0.0
H797 H 0.09058 0.23557 0.3756 0.0
H798 H 0.13014 0.26303 0.44541 0.0
H799 H 0.10031 0.26479 0.47451 0.0
C800 C 0.16392 0.26266 0.3762 0.0
C801 C 0.16562 0.24628 0.35589 0.0
C802 C 0.14679 0.26372 0.39285 0.0
C803 C 0.13114 0.24817 0.38998 0.0
C804 C 0.1331 0.23164 0.36975 0.0
C805 C 0.15002 0.23084 0.35272 0.0
C806 C 0.07621 0.24222 0.41431 0.0
C807 C 0.07854 0.25065 0.44223 0.0
C808 C 0.09314 0.24168 0.39727 0.0
C809 C 0.11293 0.24916 0.40797 0.0
C810 C 0.11515 0.25751 0.43609 0.0
C811 C 0.0981 0.25843 0.4529 0.0
H812 H 0.79727 0.17054 0.36304 0.0
H813 H 0.73532 0.15519 0.32658 0.0
H814 H 0.79844 0.1378 0.38811 0.0
H815 H 0.73595 0.1229 0.35249 0.0
H816 H 0.74832 0.05886 0.38713 0.0
H817 H 0.75042 0.08908 0.3572 0.0
H818 H 0.78336 0.1237 0.42719 0.0
H819 H 0.78193 0.0933 0.4564 0.0
C820 C 0.78391 0.16011 0.36051 0.0
C821 C 0.7662 0.16528 0.34303 0.0
C822 C 0.7845 0.14143 0.37491 0.0
C823 C 0.76723 0.12776 0.37249 0.0
C824 C 0.74967 0.13285 0.3545 0.0
C825 C 0.74923 0.15138 0.33977 0.0
C826 C 0.7561 0.07295 0.39589 0.0
C827 C 0.76505 0.07381 0.42392 0.0
C828 C 0.75725 0.09026 0.37887 0.0
C829 C 0.76708 0.10885 0.38977 0.0
C830 C 0.7761 0.10954 0.41785 0.0
C831 C 0.7752 0.09217 0.43467 0.0
H832 H 0.85941 0.73448 0.32439 0.0
H833 H 0.83938 0.78714 0.37545 0.0
H834 H 0.89228 0.73349 0.35356 0.0
H835 H 0.87239 0.78633 0.40452 0.0
H836 H 0.92493 0.76528 0.4679 0.0
H837 H 0.89158 0.76556 0.43918 0.0
H838 H 0.9242 0.75313 0.36338 0.0
H839 H 0.95738 0.75236 0.3925 0.0
C840 C 0.86212 0.74598 0.3417 0.0
C841 C 0.84682 0.76093 0.34757 0.0
C842 C 0.88098 0.74543 0.35842 0.0
C843 C 0.88502 0.75986 0.38135 0.0
C844 C 0.86967 0.77478 0.38728 0.0
C845 C 0.85076 0.77527 0.37061 0.0
C846 C 0.92478 0.76254 0.44509 0.0
C847 C 0.94345 0.7587 0.43221 0.0
C848 C 0.9058 0.76284 0.42862 0.0
C849 C 0.9052 0.75939 0.39894 0.0
C850 C 0.92405 0.75555 0.38619 0.0
C851 C 0.94302 0.7552 0.40271 0.0
H852 H 0.21589 0.85146 0.33053 0.0
H853 H 0.27565 0.86178 0.29695 0.0
H854 H 0.21858 0.8856 0.35575 0.0
H855 H 0.27851 0.89586 0.32258 0.0
H856 H 0.28302 0.93057 0.41561 0.0
H857 H 0.28147 0.90287 0.37865 0.0
H858 H 0.22185 0.92589 0.34503 0.0
H859 H 0.22368 0.95425 0.3812 0.0
C860 C 0.22943 0.86122 0.32831 0.0
C861 C 0.24558 0.85417 0.31199 0.0
C862 C 0.23091 0.88072 0.34249 0.0
C863 C 0.24873 0.89324 0.34092 0.0
C864 C 0.26463 0.88643 0.32397 0.0
C865 C 0.26297 0.86707 0.30934 0.0
C866 C 0.26992 0.93022 0.3998 0.0
C867 C 0.25331 0.94441 0.40164 0.0
C868 C 0.26903 0.91433 0.37869 0.0
C869 C 0.25145 0.91226 0.35932 0.0
C870 C 0.23545 0.92713 0.36001 0.0
C871 C 0.23647 0.94321 0.38081 0.0
H872 H 0.14147 0.78134 0.69486 0.0
H873 H 0.17262 0.75064 0.62677 0.0
H874 H 0.10879 0.78095 0.6649 0.0
H875 H 0.13986 0.7497 0.59714 0.0
H876 H 0.08268 0.77174 0.54233 0.0
H877 H 0.11552 0.77356 0.57223 0.0
H878 H 0.08279 0.75532 0.6443 0.0
H879 H 0.04996 0.75386 0.61422 0.0
C880 C 0.14136 0.7746 0.67345 0.0
C881 C 0.15963 0.76601 0.66319 0.0
C882 C 0.1226 0.77417 0.65641 0.0
C883 C 0.12172 0.76525 0.62867 0.0
C884 C 0.14005 0.75685 0.61832 0.0
C885 C 0.15877 0.7572 0.63539 0.0
C886 C 0.08266 0.76815 0.56458 0.0
C887 C 0.06405 0.76258 0.57615 0.0
C888 C 0.10138 0.76908 0.58165 0.0
C889 C 0.10176 0.76454 0.61063 0.0
C890 C 0.08297 0.75912 0.62215 0.0
C891 C 0.06426 0.75814 0.60501 0.0
H892 H 0.23238 0.14431 0.72642 0.0
H893 H 0.25972 0.17729 0.65976 0.0
H894 H 0.2328 0.11188 0.69737 0.0
H895 H 0.25922 0.14509 0.63053 0.0
H896 H 0.22792 0.09035 0.57685 0.0
H897 H 0.22808 0.12154 0.60829 0.0
H898 H 0.26212 0.08792 0.67445 0.0
H899 H 0.2621 0.05655 0.64276 0.0
C900 C 0.23858 0.14465 0.70572 0.0
C901 C 0.24588 0.16343 0.69532 0.0
C902 C 0.23875 0.12612 0.68915 0.0
C903 C 0.24593 0.12617 0.66182 0.0
C904 C 0.25337 0.14482 0.65148 0.0
C905 C 0.2535 0.16324 0.66814 0.0
C906 C 0.23524 0.08958 0.59821 0.0
C907 C 0.24493 0.07114 0.60755 0.0
C908 C 0.23546 0.1074 0.61604 0.0
C909 C 0.24517 0.107 0.6436 0.0
C910 C 0.25449 0.08846 0.65325 0.0
C911 C 0.25456 0.07065 0.63519 0.0
H912 H 0.83909 0.21793 0.67309 0.0
H913 H 0.84616 0.2847 0.68853 0.0
H914 H 0.86999 0.21754 0.6462 0.0
H915 H 0.8762 0.28452 0.66007 0.0
H916 H 0.94174 0.27445 0.63158 0.0
H917 H 0.91163 0.27428 0.66022 0.0
H918 H 0.88189 0.22747 0.60235 0.0
H919 H 0.91228 0.22728 0.5743 0.0
C920 C 0.84721 0.23254 0.67079 0.0
C921 C 0.84007 0.25134 0.68309 0.0
C922 C 0.8648 0.23236 0.65497 0.0
C923 C 0.87564 0.25101 0.65082 0.0
C924 C 0.86847 0.2698 0.66308 0.0
C925 C 0.85098 0.26995 0.67909 0.0
C926 C 0.92872 0.26417 0.625 0.0
C927 C 0.92938 0.25085 0.60074 0.0
C928 C 0.91141 0.26411 0.64134 0.0
C929 C 0.89424 0.25087 0.63365 0.0
C930 C 0.89494 0.23759 0.60928 0.0
C931 C 0.91234 0.23751 0.59312 0.0
H932 H 0.73725 0.83094 0.63734 0.0
H933 H 0.75762 0.86246 0.71706 0.0
H934 H 0.73525 0.86439 0.61434 0.0
H935 H 0.75522 0.89613 0.69421 0.0
H936 H 0.77435 0.94659 0.63296 0.0
H937 H 0.77314 0.91508 0.66017 0.0
H938 H 0.71585 0.89641 0.61207 0.0
H939 H 0.71773 0.92725 0.58374 0.0
C940 C 0.74104 0.8451 0.64999 0.0
C941 C 0.74763 0.84417 0.67891 0.0
C942 C 0.73979 0.86427 0.63689 0.0
C943 C 0.74496 0.88294 0.6525 0.0
C944 C 0.75136 0.88201 0.68155 0.0
C945 C 0.75275 0.86277 0.69461 0.0
C946 C 0.76149 0.93576 0.62822 0.0
C947 C 0.74631 0.93929 0.60593 0.0
C948 C 0.76065 0.91783 0.64405 0.0
C949 C 0.74452 0.90313 0.63805 0.0
C950 C 0.7287 0.90725 0.61683 0.0
C951 C 0.72962 0.9251 0.60087 0.0
H952 H 0.83371 0.78694 0.64958 0.0
H953 H 0.85248 0.72585 0.67788 0.0
H954 H 0.86404 0.78802 0.62105 0.0
H955 H 0.88274 0.72692 0.64936 0.0
H956 H 0.91865 0.72798 0.56748 0.0
H957 H 0.88878 0.72711 0.5964 0.0
H958 H 0.90399 0.78924 0.63042 0.0
H959 H 0.93442 0.78995 0.60242 0.0
C960 C 0.8443 0.77374 0.64961 0.0
C961 C 0.84077 0.75633 0.66596 0.0
C962 C 0.8617 0.77442 0.63347 0.0
C963 C 0.87573 0.75756 0.63301 0.0
C964 C 0.87212 0.74008 0.64919 0.0
C965 C 0.8549 0.73954 0.66565 0.0
C966 C 0.91592 0.74136 0.58144 0.0
C967 C 0.92912 0.75902 0.58258 0.0
C968 C 0.8987 0.74087 0.5979 0.0
C969 C 0.89406 0.75811 0.61562 0.0
C970 C 0.90707 0.77582 0.61668 0.0
C971 C 0.92447 0.77622 0.60052 0.0
H972 H 0.23952 0.87397 0.69414 0.0
H973 H 0.26242 0.83518 0.62637 0.0
H974 H 0.23897 0.90402 0.6638 0.0
H975 H 0.26166 0.8652 0.59598 0.0
H976 H 0.23843 0.91886 0.53931 0.0
H977 H 0.23867 0.88863 0.56982 0.0
H978 H 0.261 0.92826 0.64178 0.0
H979 H 0.26036 0.95842 0.61113 0.0
C980 C 0.24463 0.8718 0.67288 0.0
C981 C 0.25102 0.8519 0.66296 0.0
C982 C 0.24429 0.88914 0.65537 0.0
C983 C 0.25025 0.88723 0.62724 0.0
C984 C 0.25661 0.86735 0.61728 0.0
C985 C 0.25702 0.85002 0.63482 0.0
C986 C 0.24333 0.92104 0.56168 0.0
C987 C 0.24934 0.94099 0.57286 0.0
C988 C 0.24362 0.90369 0.5792 0.0
C989 C 0.24988 0.90582 0.60845 0.0
C990 C 0.25583 0.92592 0.61954 0.0
C991 C 0.25559 0.94323 0.60197 0.0
H992 H 0.13789 0.23805 0.71979 0.0
H993 H 0.16997 0.26457 0.65216 0.0
H994 H 0.10596 0.23536 0.68856 0.0
H995 H 0.13784 0.26284 0.62145 0.0
H996 H 0.08271 0.2384 0.56413 0.0
H997 H 0.11475 0.23816 0.59559 0.0
H998 H 0.07941 0.25736 0.66661 0.0
H999 H 0.04738 0.25688 0.63504 0.0
C1000 C 0.13816 0.24327 0.69826 0.0
C1001 C 0.15652 0.25154 0.68851 0.0
C1002 C 0.11978 0.24195 0.68045 0.0
C1003 C 0.11931 0.24889 0.65248 0.0
C1004 C 0.13769 0.2571 0.64273 0.0
C1005 C 0.15606 0.25837 0.6605 0.0
C1006 C 0.08192 0.24238 0.58654 0.0
C1007 C 0.0628 0.24774 0.59733 0.0
C1008 C 0.10021 0.24242 0.60451 0.0
C1009 C 0.09969 0.24789 0.63362 0.0
C1010 C 0.08035 0.25286 0.6444 0.0
C1011 C 0.06206 0.25272 0.62641 0.0
H1012 H 0.78041 0.17116 0.65139 0.0
H1013 H 0.72873 0.14525 0.69212 0.0
H1014 H 0.78126 0.13994 0.62028 0.0
H1015 H 0.72931 0.11415 0.66074 0.0
H1016 H 0.74759 0.05208 0.61784 0.0
H1017 H 0.74748 0.08315 0.64979 0.0
H1018 H 0.76403 0.12144 0.5812 0.0
H1019 H 0.76472 0.0901 0.54982 0.0
C1020 C 0.76906 0.1589 0.65357 0.0
C1021 C 0.7545 0.16088 0.67442 0.0
C1022 C 0.76951 0.1409 0.6356 0.0
C1023 C 0.75534 0.12429 0.63773 0.0
C1024 C 0.74076 0.1263 0.65861 0.0
C1025 C 0.74039 0.14425 0.67668 0.0
C1026 C 0.75126 0.06718 0.60978 0.0
C1027 C 0.75621 0.06874 0.58146 0.0
C1028 C 0.75105 0.08507 0.62798 0.0
C1029 C 0.75571 0.10505 0.61829 0.0
C1030 C 0.76067 0.10643 0.58977 0.0
C1031 C 0.76096 0.08851 0.57164 0.0
H1032 H 0.83652 0.27082 0.39969 0.0
H1033 H 0.86845 0.24771 0.32743 0.0
H1034 H 0.86912 0.26984 0.42932 0.0
H1035 H 0.90087 0.24569 0.35745 0.0
H1036 H 0.95973 0.26563 0.41275 0.0
H1037 H 0.92722 0.26753 0.38237 0.0
H1038 H 0.89294 0.2452 0.45082 0.0
H1039 H 0.92543 0.24407 0.48121 0.0
C1040 C 0.8505 0.26557 0.39008 0.0
C1041 C 0.84984 0.2594 0.36112 0.0
C1042 C 0.86916 0.26473 0.40719 0.0
C1043 C 0.88763 0.25762 0.39582 0.0
C1044 C 0.88699 0.25146 0.36685 0.0
C1045 C 0.86833 0.25236 0.34971 0.0
C1046 C 0.94515 0.26126 0.42114 0.0
C1047 C 0.94486 0.2549 0.4492 0.0
C1048 C 0.92659 0.26217 0.40378 0.0
C1049 C 0.90743 0.25656 0.41416 0.0
C1050 C 0.90733 0.24997 0.44228 0.0
C1051 C 0.92587 0.24918 0.45963 0.0
H1052 H 0.72377 0.86075 0.33952 0.0
H1053 H 0.78591 0.84493 0.37291 0.0
H1054 H 0.72448 0.89205 0.37098 0.0
H1055 H 0.78667 0.87632 0.40427 0.0
H1056 H 0.76993 0.92212 0.47831 0.0
H1057 H 0.76973 0.89077 0.4467 0.0
H1058 H 0.7425 0.92661 0.37769 0.0
H1059 H 0.74305 0.95795 0.40931 0.0
C1060 C 0.73758 0.86389 0.35363 0.0
C1061 C 0.75478 0.85022 0.35359 0.0
C1062 C 0.73806 0.88198 0.37153 0.0
C1063 C 0.75564 0.88681 0.39025 0.0
C1064 C 0.7728 0.87307 0.39034 0.0
C1065 C 0.77243 0.85513 0.37215 0.0
C1066 C 0.76403 0.92327 0.45633 0.0
C1067 C 0.75647 0.94249 0.44632 0.0
C1068 C 0.76395 0.90533 0.43817 0.0
C1069 C 0.75605 0.90606 0.40956 0.0
C1070 C 0.74847 0.92534 0.39962 0.0
C1071 C 0.74883 0.94333 0.41769 0.0
H1072 H 0.18423 0.75459 0.3785 0.0
H1073 H 0.14299 0.75965 0.30259 0.0
H1074 H 0.15418 0.75555 0.40737 0.0
H1075 H 0.11294 0.76102 0.33152 0.0
H1076 H 0.06403 0.73834 0.39072 0.0
H1077 H 0.09398 0.73753 0.36161 0.0
H1078 H 0.12704 0.78052 0.42172 0.0
H1079 H 0.09727 0.78101 0.4511 0.0
C1080 C 0.16874 0.75588 0.36798 0.0
C1081 C 0.16599 0.75702 0.33826 0.0
C1082 C 0.15154 0.75663 0.38454 0.0
C1083 C 0.13117 0.75838 0.37174 0.0
C1084 C 0.12842 0.75949 0.342 0.0
C1085 C 0.14564 0.75891 0.32546 0.0
C1086 C 0.07774 0.74753 0.39778 0.0
C1087 C 0.07827 0.75974 0.42322 0.0
C1088 C 0.09481 0.74722 0.38097 0.0
C1089 C 0.11288 0.75896 0.38935 0.0
C1090 C 0.11342 0.77116 0.4148 0.0
C1091 C 0.09628 0.77161 0.43148 0.0
H1092 H 0.27251 0.16895 0.39306 0.0
H1093 H 0.22914 0.13768 0.33121 0.0
H1094 H 0.27244 0.13855 0.42259 0.0
H1095 H 0.22811 0.10783 0.36151 0.0
H1096 H 0.24549 0.04828 0.40876 0.0
H1097 H 0.24635 0.07852 0.37851 0.0
H1098 H 0.25324 0.11955 0.45351 0.0
H1099 H 0.25305 0.08906 0.48342 0.0
C1100 C 0.26294 0.15564 0.38563 0.0
C1101 C 0.25085 0.15604 0.35947 0.0
C1102 C 0.26266 0.13819 0.4029 0.0
C1103 C 0.25021 0.12049 0.39474 0.0
C1104 C 0.23813 0.1209 0.36859 0.0
C1105 C 0.23848 0.13831 0.35127 0.0
C1106 C 0.24718 0.06381 0.41864 0.0
C1107 C 0.24919 0.06635 0.44839 0.0
C1108 C 0.24754 0.08124 0.40134 0.0
C1109 C 0.24984 0.10176 0.41332 0.0
C1110 C 0.25178 0.10414 0.44326 0.0
C1111 C 0.25151 0.08668 0.46052 0.0
H1112 H 0.67015 0.71158 0.85155 0.0
H1113 H 0.65433 0.77309 0.82203 0.0
H1114 H 0.64027 0.71275 0.88106 0.0
H1115 H 0.62459 0.77432 0.85167 0.0
H1116 H 0.59031 0.77584 0.93588 0.0
H1117 H 0.61957 0.77494 0.90571 0.0
H1118 H 0.59994 0.71399 0.87161 0.0
H1119 H 0.57009 0.71513 0.90067 0.0
C1120 C 0.66031 0.72535 0.85147 0.0
C1121 C 0.66449 0.74222 0.83448 0.0
C1122 C 0.64318 0.72597 0.86819 0.0
C1123 C 0.63014 0.74363 0.86861 0.0
C1124 C 0.63446 0.76058 0.85185 0.0
C1125 C 0.65136 0.75981 0.83477 0.0
C1126 C 0.59193 0.76237 0.92163 0.0
C1127 C 0.57771 0.74555 0.92087 0.0
C1128 C 0.6088 0.76184 0.90447 0.0
C1129 C 0.61206 0.74435 0.88646 0.0
C1130 C 0.59794 0.72754 0.88561 0.0
C1131 C 0.58089 0.7282 0.90241 0.0
H1132 H 0.2673 0.652 0.81666 0.0
H1133 H 0.2431 0.69138 0.88284 0.0
H1134 H 0.26688 0.62214 0.84722 0.0
H1135 H 0.24349 0.66169 0.91384 0.0
H1136 H 0.22663 0.59961 0.95243 0.0
H1137 H 0.22651 0.62929 0.92146 0.0
H1138 H 0.28382 0.60721 0.88844 0.0
H1139 H 0.28348 0.57709 0.91854 0.0
C1140 C 0.26184 0.65436 0.8377 0.0
C1141 C 0.2552 0.6743 0.84705 0.0
C1142 C 0.26185 0.63719 0.85547 0.0
C1143 C 0.25519 0.63931 0.88323 0.0
C1144 C 0.24853 0.65924 0.89258 0.0
C1145 C 0.24856 0.67643 0.87483 0.0
C1146 C 0.23913 0.60091 0.93838 0.0
C1147 C 0.25504 0.58572 0.93816 0.0
C1148 C 0.2392 0.61817 0.92078 0.0
C1149 C 0.25517 0.62086 0.90225 0.0
C1150 C 0.2711 0.60569 0.90206 0.0
C1151 C 0.27105 0.58845 0.9197 0.0
H1152 H 0.34565 0.29474 0.88117 0.0
H1153 H 0.35706 0.23164 0.85034 0.0
H1154 H 0.37892 0.29449 0.90993 0.0
H1155 H 0.39013 0.23128 0.87937 0.0
H1156 H 0.45785 0.24766 0.91252 0.0
H1157 H 0.42519 0.24877 0.88218 0.0
H1158 H 0.39377 0.27588 0.95259 0.0
H1159 H 0.42644 0.27461 0.98276 0.0
C1160 C 0.35533 0.28088 0.88044 0.0
C1161 C 0.34875 0.26319 0.8636 0.0
C1162 C 0.37426 0.28067 0.89706 0.0
C1163 C 0.38709 0.26285 0.89693 0.0
C1164 C 0.38065 0.24529 0.87974 0.0
C1165 C 0.36164 0.24542 0.86334 0.0
C1166 C 0.44386 0.25372 0.92137 0.0
C1167 C 0.44442 0.26087 0.94986 0.0
C1168 C 0.42523 0.25435 0.90414 0.0
C1169 C 0.40694 0.2624 0.91505 0.0
C1170 C 0.40766 0.26978 0.94354 0.0
C1171 C 0.42624 0.26897 0.9608 0.0
H1172 H 0.73324 0.367 0.82706 0.0
H1173 H 0.76367 0.33323 0.89601 0.0
H1174 H 0.73299 0.39848 0.85776 0.0
H1175 H 0.76314 0.36466 0.92676 0.0
H1176 H 0.73958 0.4194 0.98227 0.0
H1177 H 0.73977 0.38769 0.95138 0.0
H1178 H 0.75573 0.42504 0.88163 0.0
H1179 H 0.75526 0.45664 0.91269 0.0
C1180 C 0.74005 0.36624 0.84866 0.0
C1181 C 0.74848 0.34734 0.85883 0.0
C1182 C 0.73988 0.38439 0.86636 0.0
C1183 C 0.74802 0.38426 0.89489 0.0
C1184 C 0.75641 0.36538 0.9051 0.0
C1185 C 0.75668 0.34725 0.88737 0.0
C1186 C 0.74311 0.42072 0.96031 0.0
C1187 C 0.74738 0.44039 0.94979 0.0
C1188 C 0.74335 0.40257 0.94261 0.0
C1189 C 0.74778 0.40367 0.91387 0.0
C1190 C 0.752 0.42351 0.90346 0.0
C1191 C 0.75185 0.44163 0.92123 0.0
H1192 H 0.65784 0.29635 0.17909 0.0
H1193 H 0.64732 0.2321 0.19955 0.0
H1194 H 0.6256 0.29572 0.1481 0.0
H1195 H 0.61525 0.23138 0.16827 0.0
H1196 H 0.54823 0.24618 0.13197 0.0
H1197 H 0.5796 0.24754 0.16498 0.0
H1198 H 0.6133 0.27778 0.10184 0.0
H1199 H 0.58193 0.27626 0.06899 0.0
C1200 C 0.64854 0.28216 0.17712 0.0
C1201 C 0.6551 0.26426 0.19167 0.0
C1202 C 0.63021 0.28174 0.15921 0.0
C1203 C 0.61796 0.26347 0.1557 0.0
C1204 C 0.6243 0.24571 0.1707 0.0
C1205 C 0.64273 0.24607 0.1884 0.0
C1206 C 0.56244 0.25299 0.12528 0.0
C1207 C 0.56289 0.261 0.09807 0.0
C1208 C 0.58033 0.25376 0.14404 0.0
C1209 C 0.59888 0.26279 0.13598 0.0
C1210 C 0.59918 0.27095 0.10875 0.0
C1211 C 0.58134 0.26999 0.08994 0.0
H1212 H 0.73334 0.64441 0.19717 0.0
H1213 H 0.76078 0.67862 0.13202 0.0
H1214 H 0.73267 0.61277 0.16658 0.0
H1215 H 0.7607 0.64683 0.10179 0.0
H1216 H 0.7379 0.59094 0.04321 0.0
H1217 H 0.73774 0.62288 0.07359 0.0
H1218 H 0.75535 0.58663 0.14697 0.0
H1219 H 0.75513 0.55477 0.11641 0.0
C1220 C 0.73918 0.64526 0.1763 0.0
C1221 C 0.7471 0.66424 0.16721 0.0
C1222 C 0.73902 0.62697 0.15881 0.0
C1223 C 0.74667 0.62707 0.13158 0.0
C1224 C 0.75448 0.64608 0.12244 0.0
C1225 C 0.75474 0.66434 0.13998 0.0
C1226 C 0.74169 0.58989 0.06585 0.0
C1227 C 0.74651 0.57042 0.07748 0.0
C1228 C 0.74174 0.60819 0.0833 0.0
C1229 C 0.74655 0.60749 0.11289 0.0
C1230 C 0.75131 0.58786 0.12442 0.0
C1231 C 0.75132 0.56959 0.10693 0.0
H1232 H 0.36383 0.73794 0.20132 0.0
H1233 H 0.32453 0.75512 0.12765 0.0
H1234 H 0.39429 0.73844 0.17334 0.0
H1235 H 0.35495 0.75559 0.09969 0.0
H1236 H 0.41635 0.77585 0.06623 0.0
H1237 H 0.38653 0.77577 0.09536 0.0
H1238 H 0.40974 0.7195 0.13453 0.0
H1239 H 0.43997 0.72004 0.10618 0.0
C1240 C 0.36165 0.74161 0.17908 0.0
C1241 C 0.34173 0.74652 0.16674 0.0
C1242 C 0.37912 0.74192 0.16304 0.0
C1243 C 0.37709 0.74713 0.13428 0.0
C1244 C 0.35714 0.75189 0.12191 0.0
C1245 C 0.33969 0.75159 0.13794 0.0
C1246 C 0.41524 0.76362 0.08132 0.0
C1247 C 0.43057 0.74795 0.08384 0.0
C1248 C 0.39801 0.76342 0.09778 0.0
C1249 C 0.39567 0.74757 0.1172 0.0
C1250 C 0.41112 0.73204 0.11996 0.0
C1251 C 0.42835 0.73222 0.10347 0.0
H1252 H 0.23896 0.31983 0.14228 0.0
H1253 H 0.26895 0.35668 0.2121 0.0
H1254 H 0.23935 0.34996 0.11217 0.0
H1255 H 0.26898 0.38698 0.18226 0.0
H1256 H 0.28367 0.43308 0.11513 0.0
H1257 H 0.28387 0.40251 0.14428 0.0
H1258 H 0.22475 0.38274 0.10226 0.0
H1259 H 0.2252 0.4126 0.07189 0.0
C1260 C 0.24546 0.33443 0.15136 0.0
C1261 C 0.25393 0.33567 0.17976 0.0
C1262 C 0.24564 0.35184 0.13403 0.0
C1263 C 0.25418 0.37118 0.14453 0.0
C1264 C 0.2626 0.3724 0.173 0.0
C1265 C 0.26255 0.35494 0.19026 0.0
C1266 C 0.27082 0.4221 0.1117 0.0
C1267 C 0.25444 0.42556 0.09084 0.0
C1268 C 0.27077 0.4046 0.12887 0.0
C1269 C 0.25429 0.38992 0.12596 0.0
C1270 C 0.2379 0.39339 0.10511 0.0
C1271 C 0.238 0.41083 0.08784 0.0
H1272 H 0.36135 0.26699 0.2183 0.0
H1273 H 0.3266 0.23449 0.14811 0.0
H1274 H 0.39164 0.26844 0.19035 0.0
H1275 H 0.3564 0.23717 0.11955 0.0
H1276 H 0.41958 0.22583 0.08516 0.0
H1277 H 0.39014 0.22355 0.1144 0.0
H1278 H 0.40483 0.28513 0.15131 0.0
H1279 H 0.43514 0.28683 0.12339 0.0
C1280 C 0.36013 0.26013 0.19692 0.0
C1281 C 0.34146 0.25057 0.18556 0.0
C1282 C 0.37745 0.26125 0.1807 0.0
C1283 C 0.37654 0.25297 0.15259 0.0
C1284 C 0.35784 0.24348 0.14122 0.0
C1285 C 0.34058 0.24221 0.15751 0.0
C1286 C 0.41678 0.23877 0.09982 0.0
C1287 C 0.42989 0.25649 0.10192 0.0
C1288 C 0.39964 0.2376 0.11633 0.0
C1289 C 0.39498 0.25418 0.13522 0.0
C1290 C 0.40804 0.27193 0.13728 0.0
C1291 C 0.4253 0.27304 0.12092 0.0
H1292 H 0.70628 0.35287 0.18722 0.0
H1293 H 0.76858 0.3703 0.22007 0.0
H1294 H 0.70427 0.38402 0.15882 0.0
H1295 H 0.76713 0.40096 0.19076 0.0
H1296 H 0.75466 0.4616 0.14684 0.0
H1297 H 0.75264 0.43425 0.18141 0.0
H1298 H 0.71871 0.39477 0.11738 0.0
H1299 H 0.7201 0.42234 0.08352 0.0
C1300 C 0.7195 0.36347 0.18833 0.0
C1301 C 0.7376 0.35927 0.20561 0.0
C1302 C 0.71844 0.38122 0.17199 0.0
C1303 C 0.73564 0.39489 0.17221 0.0
C1304 C 0.75349 0.39096 0.19032 0.0
C1305 C 0.7544 0.37338 0.20702 0.0
C1306 C 0.74666 0.44709 0.1404 0.0
C1307 C 0.73748 0.44403 0.11265 0.0
C1308 C 0.74555 0.43141 0.16009 0.0
C1309 C 0.7355 0.41228 0.15222 0.0
C1310 C 0.72616 0.40943 0.12445 0.0
C1311 C 0.72703 0.42518 0.10495 0.0
H1312 H 0.64088 0.77505 0.19117 0.0
H1313 H 0.66572 0.72253 0.14445 0.0
H1314 H 0.60888 0.77329 0.16 0.0
H1315 H 0.63364 0.7206 0.11342 0.0
H1316 H 0.58357 0.7392 0.04436 0.0
H1317 H 0.61536 0.73981 0.07637 0.0
H1318 H 0.57815 0.75215 0.14788 0.0
H1319 H 0.54653 0.75202 0.11545 0.0
C1320 C 0.6394 0.76297 0.17444 0.0
C1321 C 0.65586 0.74896 0.17024 0.0
C1322 C 0.62104 0.76193 0.15658 0.0
C1323 C 0.61867 0.74681 0.13416 0.0
C1324 C 0.63507 0.73266 0.13017 0.0
C1325 C 0.65345 0.73375 0.14796 0.0
C1326 C 0.58235 0.74195 0.06697 0.0
C1327 C 0.56285 0.74559 0.07766 0.0
C1328 C 0.60045 0.7422 0.08532 0.0
C1329 C 0.59933 0.74603 0.11474 0.0
C1330 C 0.57962 0.74944 0.12534 0.0
C1331 C 0.56153 0.74923 0.10692 0.0
H1332 H 0.2804 0.63662 0.20551 0.0
H1333 H 0.23108 0.66183 0.14967 0.0
H1334 H 0.2787 0.60372 0.17727 0.0
H1335 H 0.22923 0.62903 0.1217 0.0
H1336 H 0.2515 0.57947 0.05875 0.0
H1337 H 0.25182 0.61118 0.08934 0.0
H1338 H 0.25596 0.57327 0.16358 0.0
H1339 H 0.25605 0.54155 0.13257 0.0
C1340 C 0.26905 0.635 0.18741 0.0
C1341 C 0.25606 0.65179 0.1795 0.0
C1342 C 0.26804 0.61621 0.17132 0.0
C1343 C 0.25397 0.61392 0.14715 0.0
C1344 C 0.24053 0.63051 0.13987 0.0
C1345 C 0.24159 0.64926 0.15585 0.0
C1346 C 0.25243 0.57808 0.08163 0.0
C1347 C 0.25373 0.5584 0.0936 0.0
C1348 C 0.25249 0.5961 0.09911 0.0
C1349 C 0.2538 0.59466 0.12884 0.0
C1350 C 0.25511 0.57482 0.14075 0.0
C1351 C 0.25505 0.55676 0.12317 0.0
H1352 H 0.36142 0.78434 0.8311 0.0
H1353 H 0.34208 0.72405 0.85838 0.0
H1354 H 0.39399 0.78169 0.86083 0.0
H1355 H 0.37489 0.72116 0.88755 0.0
H1356 H 0.42492 0.73617 0.96126 0.0
H1357 H 0.39234 0.73778 0.93094 0.0
H1358 H 0.42654 0.76105 0.86308 0.0
H1359 H 0.45902 0.75949 0.89366 0.0
C1360 C 0.36411 0.77054 0.84349 0.0
C1361 C 0.34916 0.75442 0.84242 0.0
C1362 C 0.38287 0.76892 0.86027 0.0
C1363 C 0.38704 0.75119 0.8765 0.0
C1364 C 0.37207 0.73509 0.87547 0.0
C1365 C 0.35337 0.73665 0.85856 0.0
C1366 C 0.42535 0.7415 0.93978 0.0
C1367 C 0.44426 0.74783 0.92968 0.0
C1368 C 0.4068 0.74236 0.92241 0.0
C1369 C 0.40686 0.74963 0.89464 0.0
C1370 C 0.42594 0.75567 0.88449 0.0
C1371 C 0.4445 0.75469 0.90184 0.0
H1372 H 0.24053 0.3435 0.89164 0.0
H1373 H 0.27752 0.37261 0.83104 0.0
H1374 H 0.23979 0.37645 0.91914 0.0
H1375 H 0.27672 0.40566 0.85858 0.0
H1376 H 0.24984 0.46573 0.89931 0.0
H1377 H 0.25097 0.43274 0.87118 0.0
H1378 H 0.26426 0.39937 0.94846 0.0
H1379 H 0.26275 0.43233 0.97629 0.0
C1380 C 0.2487 0.35689 0.88439 0.0
C1381 C 0.25914 0.3555 0.85927 0.0
C1382 C 0.24824 0.37574 0.90009 0.0
C1383 C 0.25821 0.39358 0.89097 0.0
C1384 C 0.26868 0.39221 0.86587 0.0
C1385 C 0.26915 0.37332 0.85016 0.0
C1386 C 0.25294 0.45124 0.91002 0.0
C1387 C 0.2561 0.45122 0.93967 0.0
C1388 C 0.25373 0.43248 0.89408 0.0
C1389 C 0.25766 0.41353 0.90769 0.0
C1390 C 0.26092 0.4137 0.93747 0.0
C1391 C 0.26016 0.43244 0.95334 0.0
H1392 H 0.68213 0.2503 0.89248 0.0
H1393 H 0.64145 0.26689 0.8199 0.0
H1394 H 0.65253 0.25178 0.92226 0.0
H1395 H 0.61187 0.26854 0.84973 0.0
H1396 H 0.56158 0.24403 0.90626 0.0
H1397 H 0.59105 0.24332 0.87625 0.0
H1398 H 0.62809 0.2789 0.9412 0.0
H1399 H 0.59867 0.27946 0.97133 0.0
C1400 C 0.66685 0.2542 0.8829 0.0
C1401 C 0.66409 0.25845 0.85386 0.0
C1402 C 0.64995 0.25523 0.89998 0.0
C1403 C 0.62989 0.26029 0.88832 0.0
C1404 C 0.62712 0.26446 0.85926 0.0
C1405 C 0.64407 0.26368 0.84224 0.0
C1406 C 0.57604 0.25167 0.91413 0.0
C1407 C 0.57783 0.26179 0.94115 0.0
C1408 C 0.59284 0.2514 0.89687 0.0
C1409 C 0.61188 0.26104 0.90639 0.0
C1410 C 0.61366 0.2712 0.93339 0.0
C1411 C 0.59677 0.27168 0.95052 0.0
H1412 H 0.74641 0.63287 0.79195 0.0
H1413 H 0.76751 0.67005 0.8668 0.0
H1414 H 0.74839 0.60133 0.81975 0.0
H1415 H 0.76907 0.6388 0.8947 0.0
H1416 H 0.78587 0.57881 0.93463 0.0
H1417 H 0.788 0.60698 0.90178 0.0
H1418 H 0.73048 0.5856 0.85659 0.0
H1419 H 0.72904 0.55662 0.88839 0.0
C1420 C 0.75137 0.63426 0.81437 0.0
C1421 C 0.75686 0.65382 0.82727 0.0
C1422 C 0.75251 0.61625 0.83028 0.0
C1423 C 0.759 0.61753 0.8594 0.0
C1424 C 0.76448 0.63717 0.87219 0.0
C1425 C 0.76349 0.65509 0.85627 0.0
C1426 C 0.77397 0.57975 0.91725 0.0
C1427 C 0.75717 0.56556 0.9143 0.0
C1428 C 0.77503 0.5961 0.89865 0.0
C1429 C 0.75924 0.59873 0.87686 0.0
C1430 C 0.74296 0.58398 0.87309 0.0
C1431 C 0.74198 0.56752 0.89155 0.0
loop_
_geom_bond_atom_site_label_1
_geom_bond_atom_site_label_2
_geom_bond_distance
_geom_bond_site_symmetry_2
_ccdc_geom_bond_type
C0 C1 1.384 . S
C0 C2 1.384 . S
C0 H28 0.931 . S
C1 C0 1.384 . S
C1 C4 1.382 . S
C2 C0 1.384 . S
C2 C3 1.381 . S
C2 H29 0.930 . S
C3 C2 1.381 . S
C3 C5 1.381 . S
C3 C6 1.487 . S
C4 C1 1.382 . S
C4 C5 1.387 . S
C4 H30 0.930 . S
C5 C3 1.381 . S
C5 C4 1.387 . S
C5 H31 0.931 . S
C6 C3 1.487 . S
C6 C13 1.399 . S
C6 N44 1.343 . S
C7 C8 1.384 . S
C7 C9 1.384 . S
C7 H32 0.931 . S
C8 C7 1.384 . S
C8 C11 1.382 . S
C9 C7 1.384 . S
C9 C10 1.381 . S
C9 H33 0.930 . S
C10 C9 1.381 . S
C10 C12 1.381 . S
C10 C13 1.487 . S
C11 C8 1.382 . S
C11 C12 1.387 . S
C11 H34 0.930 . S
C12 C10 1.381 . S
C12 C11 1.387 . S
C12 H35 0.931 . S
C13 C6 1.399 . S
C13 C10 1.487 . S
C13 N45 1.343 . S
C14 C15 1.384 . S
C14 C16 1.384 . S
C14 H36 0.931 . S
C15 C14 1.384 . S
C15 C18 1.382 . S
C16 C14 1.384 . S
C16 C17 1.381 . S
C16 H37 0.930 . S
C17 C16 1.381 . S
C17 C19 1.381 . S
C17 C20 1.487 . S
C18 C15 1.382 . S
C18 C19 1.387 . S
C18 H38 0.930 . S
C19 C17 1.381 . S
C19 C18 1.387 . S
C19 H39 0.931 . S
C20 C17 1.487 . S
C20 C27 1.399 . S
C20 N45 1.343 . S
C21 C22 1.384 . S
C21 C23 1.384 . S
C21 H40 0.931 . S
C22 C21 1.384 . S
C22 C25 1.382 . S
C23 C21 1.384 . S
C23 C24 1.381 . S
C23 H41 0.930 . S
C24 C23 1.381 . S
C24 C26 1.381 . S
C24 C27 1.487 . S
C25 C22 1.382 . S
C25 C26 1.387 . S
C25 H42 0.930 . S
C26 C24 1.381 . S
C26 C25 1.387 . S
C26 H43 0.931 . S
C27 C20 1.399 . S
C27 C24 1.487 . S
C27 N44 1.343 . S
H28 C0 0.931 . S
H29 C2 0.930 . S
H30 C4 0.930 . S
H31 C5 0.931 . S
H32 C7 0.931 . S
H33 C9 0.930 . S
H34 C11 0.930 . S
H35 C12 0.931 . S
H36 C14 0.931 . S
H37 C16 0.930 . S
H38 C18 0.930 . S
H39 C19 0.931 . S
H40 C21 0.931 . S
H41 C23 0.930 . S
H42 C25 0.930 . S
H43 C26 0.931 . S
N44 C6 1.343 . S
N44 C27 1.343 . S
N45 C13 1.343 . S
N45 C20 1.343 . S
C46 C47 1.384 . S
C46 C48 1.384 . S
C46 H74 0.931 . S
C47 C46 1.384 . S
C47 C50 1.382 . S
C48 C46 1.384 . S
C48 C49 1.381 . S
C48 H75 0.930 . S
C49 C48 1.381 . S
C49 C51 1.381 . S
C49 C52 1.487 . S
C50 C47 1.382 . S
C50 C51 1.387 . S
C50 H76 0.930 . S
C51 C49 1.381 . S
C51 C50 1.387 . S
C51 H77 0.931 . S
C52 C49 1.487 . S
C52 C59 1.399 . S
C52 N90 1.343 . S
C53 C54 1.384 . S
C53 C55 1.384 . S
C53 H78 0.931 . S
C54 C53 1.384 . S
C54 C57 1.382 . S
C55 C53 1.384 . S
C55 C56 1.381 . S
C55 H79 0.930 . S
C56 C55 1.381 . S
C56 C58 1.381 . S
C56 C59 1.487 . S
C57 C54 1.382 . S
C57 C58 1.387 . S
C57 H80 0.930 . S
C58 C56 1.381 . S
C58 C57 1.387 . S
C58 H81 0.931 . S
C59 C52 1.399 . S
C59 C56 1.487 . S
C59 N91 1.343 . S
C60 C61 1.384 . S
C60 C62 1.384 . S
C60 H82 0.931 . S
C61 C60 1.384 . S
C61 C64 1.382 . S
C62 C60 1.384 . S
C62 C63 1.381 . S
C62 H83 0.930 . S
C63 C62 1.381 . S
C63 C65 1.381 . S
C63 C66 1.487 . S
C64 C61 1.382 . S
C64 C65 1.387 . S
C64 H84 0.930 . S
C65 C63 1.381 . S
C65 C64 1.387 . S
C65 H85 0.931 . S
C66 C63 1.487 . S
C66 C73 1.399 . S
C66 N91 1.343 . S
C67 C68 1.384 . S
C67 C69 1.384 . S
C67 H86 0.931 . S
C68 C67 1.384 . S
C68 C71 1.382 . S
C69 C67 1.384 . S
C69 C70 1.381 . S
C69 H87 0.930 . S
C70 C69 1.381 . S
C70 C72 1.381 . S
C70 C73 1.487 . S
C71 C68 1.382 . S
C71 C72 1.387 . S
C71 H88 0.930 . S
C72 C70 1.381 . S
C72 C71 1.387 . S
C72 H89 0.931 . S
C73 C66 1.399 . S
C73 C70 1.487 . S
C73 N90 1.343 . S
H74 C46 0.931 . S
H75 C48 0.930 . S
H76 C50 0.930 . S
H77 C51 0.931 . S
H78 C53 0.931 . S
H79 C55 0.930 . S
H80 C57 0.930 . S
H81 C58 0.931 . S
H82 C60 0.931 . S
H83 C62 0.930 . S
H84 C64 0.930 . S
H85 C65 0.931 . S
H86 C67 0.931 . S
H87 C69 0.930 . S
H88 C71 0.930 . S
H89 C72 0.931 . S
N90 C52 1.343 . S
N90 C73 1.343 . S
N91 C59 1.343 . S
N91 C66 1.343 . S
C92 C93 1.384 . S
C92 C94 1.384 . S
C92 H120 0.931 . S
C93 C92 1.384 . S
C93 C96 1.382 . S
C94 C92 1.384 . S
C94 C95 1.381 . S
C94 H121 0.930 . S
C95 C94 1.381 . S
C95 C97 1.381 . S
C95 C98 1.487 . S
C96 C93 1.382 . S
C96 C97 1.387 . S
C96 H122 0.930 . S
C97 C95 1.381 . S
C97 C96 1.387 . S
C97 H123 0.931 . S
C98 C95 1.487 . S
C98 C105 1.399 . S
C98 N136 1.343 . S
C99 C100 1.384 . S
C99 C101 1.384 . S
C99 H124 0.931 . S
C100 C99 1.384 . S
C100 C103 1.382 . S
C101 C99 1.384 . S
C101 C102 1.381 . S
C101 H125 0.930 . S
C102 C101 1.381 . S
C102 C104 1.381 . S
C102 C105 1.487 . S
C103 C100 1.382 . S
C103 C104 1.387 . S
C103 H126 0.930 . S
C104 C102 1.381 . S
C104 C103 1.387 . S
C104 H127 0.931 . S
C105 C98 1.399 . S
C105 C102 1.487 . S
C105 N137 1.343 . S
C106 C107 1.384 . S
C106 C108 1.384 . S
C106 H128 0.931 . S
C107 C106 1.384 . S
C107 C110 1.382 . S
C108 C106 1.384 . S
C108 C109 1.381 . S
C108 H129 0.930 . S
C109 C108 1.381 . S
C109 C111 1.381 . S
C109 C112 1.487 . S
C110 C107 1.382 . S
C110 C111 1.387 . S
C110 H130 0.930 . S
C111 C109 1.381 . S
C111 C110 1.387 . S
C111 H131 0.931 . S
C112 C109 1.487 . S
C112 C119 1.399 . S
C112 N137 1.343 . S
C113 C114 1.384 . S
C113 C115 1.384 . S
C113 H132 0.931 . S
C114 C113 1.384 . S
C114 C117 1.382 . S
C115 C113 1.384 . S
C115 C116 1.381 . S
C115 H133 0.930 . S
C116 C115 1.381 . S
C116 C118 1.381 . S
C116 C119 1.487 . S
C117 C114 1.382 . S
C117 C118 1.387 . S
C117 H134 0.930 . S
C118 C116 1.381 . S
C118 C117 1.387 . S
C118 H135 0.931 . S
C119 C112 1.399 . S
C119 C116 1.487 . S
C119 N136 1.343 . S
H120 C92 0.931 . S
H121 C94 0.930 . S
H122 C96 0.930 . S
H123 C97 0.931 . S
H124 C99 0.931 . S
H125 C101 0.930 . S
H126 C103 0.930 . S
H127 C104 0.931 . S
H128 C106 0.931 . S
H129 C108 0.930 . S
H130 C110 0.930 . S
H131 C111 0.931 . S
H132 C113 0.931 . S
H133 C115 0.930 . S
H134 C117 0.930 . S
H135 C118 0.931 . S
N136 C98 1.343 . S
N136 C119 1.343 . S
N137 C105 1.343 . S
N137 C112 1.343 . S
C138 C139 1.384 . S
C138 C140 1.384 . S
C138 H166 0.931 . S
C139 C138 1.384 . S
C139 C142 1.382 . S
C140 C138 1.384 . S
C140 C141 1.381 . S
C140 H167 0.930 . S
C141 C140 1.381 . S
C141 C143 1.381 . S
C141 C144 1.487 . S
C142 C139 1.382 . S
C142 C143 1.387 . S
C142 H168 0.930 . S
C143 C141 1.381 . S
C143 C142 1.387 . S
C143 H169 0.931 . S
C144 C141 1.487 . S
C144 C151 1.399 . S
C144 N182 1.343 . S
C145 C146 1.384 . S
C145 C147 1.384 . S
C145 H170 0.931 . S
C146 C145 1.384 . S
C146 C149 1.382 . S
C147 C145 1.384 . S
C147 C148 1.381 . S
C147 H171 0.930 . S
C148 C147 1.381 . S
C148 C150 1.381 . S
C148 C151 1.487 . S
C149 C146 1.382 . S
C149 C150 1.387 . S
C149 H172 0.930 . S
C150 C148 1.381 . S
C150 C149 1.387 . S
C150 H173 0.931 . S
C151 C144 1.399 . S
C151 C148 1.487 . S
C151 N183 1.343 . S
C152 C153 1.384 . S
C152 C154 1.384 . S
C152 H174 0.931 . S
C153 C152 1.384 . S
C153 C156 1.382 . S
C154 C152 1.384 . S
C154 C155 1.381 . S
C154 H175 0.930 . S
C155 C154 1.381 . S
C155 C157 1.381 . S
C155 C158 1.487 . S
C156 C153 1.382 . S
C156 C157 1.387 . S
C156 H176 0.930 . S
C157 C155 1.381 . S
C157 C156 1.387 . S
C157 H177 0.931 . S
C158 C155 1.487 . S
C158 C165 1.399 . S
C158 N183 1.343 . S
C159 C160 1.384 . S
C159 C161 1.384 . S
C159 H178 0.931 . S
C160 C159 1.384 . S
C160 C163 1.382 . S
C161 C159 1.384 . S
C161 C162 1.381 . S
C161 H179 0.930 . S
C162 C161 1.381 . S
C162 C164 1.381 . S
C162 C165 1.487 . S
C163 C160 1.382 . S
C163 C164 1.387 . S
C163 H180 0.930 . S
C164 C162 1.381 . S
C164 C163 1.387 . S
C164 H181 0.931 . S
C165 C158 1.399 . S
C165 C162 1.487 . S
C165 N182 1.343 . S
H166 C138 0.931 . S
H167 C140 0.930 . S
H168 C142 0.930 . S
H169 C143 0.931 . S
H170 C145 0.931 . S
H171 C147 0.930 . S
H172 C149 0.930 . S
H173 C150 0.931 . S
H174 C152 0.931 . S
H175 C154 0.930 . S
H176 C156 0.930 . S
H177 C157 0.931 . S
H178 C159 0.931 . S
H179 C161 0.930 . S
H180 C163 0.930 . S
H181 C164 0.931 . S
N182 C144 1.343 . S
N182 C165 1.343 . S
N183 C151 1.343 . S
N183 C158 1.343 . S
C184 C185 1.384 . S
C184 C186 1.384 . S
C184 H212 0.931 . S
C185 C184 1.384 . S
C185 C188 1.382 . S
C186 C184 1.384 . S
C186 C187 1.381 . S
C186 H213 0.930 . S
C187 C186 1.381 . S
C187 C189 1.381 . S
C187 C190 1.487 . S
C188 C185 1.382 . S
C188 C189 1.387 . S
C188 H214 0.930 . S
C189 C187 1.381 . S
C189 C188 1.387 . S
C189 H215 0.931 . S
C190 C187 1.487 . S
C190 C197 1.399 . S
C190 N228 1.343 . S
C191 C192 1.384 . S
C191 C193 1.384 . S
C191 H216 0.931 . S
C192 C191 1.384 . S
C192 C195 1.382 . S
C193 C191 1.384 . S
C193 C194 1.381 . S
C193 H217 0.930 . S
C194 C193 1.381 . S
C194 C196 1.381 . S
C194 C197 1.487 . S
C195 C192 1.382 . S
C195 C196 1.387 . S
C195 H218 0.930 . S
C196 C194 1.381 . S
C196 C195 1.387 . S
C196 H219 0.931 . S
C197 C190 1.399 . S
C197 C194 1.487 . S
C197 N229 1.343 . S
C198 C199 1.384 . S
C198 C200 1.384 . S
C198 H220 0.931 . S
C199 C198 1.384 . S
C199 C202 1.382 . S
C200 C198 1.384 . S
C200 C201 1.381 . S
C200 H221 0.930 . S
C201 C200 1.381 . S
C201 C203 1.381 . S
C201 C204 1.487 . S
C202 C199 1.382 . S
C202 C203 1.387 . S
C202 H222 0.930 . S
C203 C201 1.381 . S
C203 C202 1.387 . S
C203 H223 0.931 . S
C204 C201 1.487 . S
C204 C211 1.399 . S
C204 N229 1.343 . S
C205 C206 1.384 . S
C205 C207 1.384 . S
C205 H224 0.931 . S
C206 C205 1.384 . S
C206 C209 1.382 . S
C207 C205 1.384 . S
C207 C208 1.381 . S
C207 H225 0.930 . S
C208 C207 1.381 . S
C208 C210 1.381 . S
C208 C211 1.487 . S
C209 C206 1.382 . S
C209 C210 1.387 . S
C209 H226 0.930 . S
C210 C208 1.381 . S
C210 C209 1.387 . S
C210 H227 0.931 . S
C211 C204 1.399 . S
C211 C208 1.487 . S
C211 N228 1.343 . S
H212 C184 0.931 . S
H213 C186 0.930 . S
H214 C188 0.930 . S
H215 C189 0.931 . S
H216 C191 0.931 . S
H217 C193 0.930 . S
H218 C195 0.930 . S
H219 C196 0.931 . S
H220 C198 0.931 . S
H221 C200 0.930 . S
H222 C202 0.930 . S
H223 C203 0.931 . S
H224 C205 0.931 . S
H225 C207 0.930 . S
H226 C209 0.930 . S
H227 C210 0.931 . S
N228 C190 1.343 . S
N228 C211 1.343 . S
N229 C197 1.343 . S
N229 C204 1.343 . S
C230 C231 1.384 . S
C230 C232 1.384 . S
C230 H258 0.931 . S
C231 C230 1.384 . S
C231 C234 1.382 . S
C232 C230 1.384 . S
C232 C233 1.381 . S
C232 H259 0.930 . S
C233 C232 1.381 . S
C233 C235 1.381 . S
C233 C236 1.487 . S
C234 C231 1.382 . S
C234 C235 1.387 . S
C234 H260 0.930 . S
C235 C233 1.381 . S
C235 C234 1.387 . S
C235 H261 0.931 . S
C236 C233 1.487 . S
C236 C243 1.399 . S
C236 N274 1.343 . S
C237 C238 1.384 . S
C237 C239 1.384 . S
C237 H262 0.931 . S
C238 C237 1.384 . S
C238 C241 1.382 . S
C239 C237 1.384 . S
C239 C240 1.381 . S
C239 H263 0.930 . S
C240 C239 1.381 . S
C240 C242 1.381 . S
C240 C243 1.487 . S
C241 C238 1.382 . S
C241 C242 1.387 . S
C241 H264 0.930 . S
C242 C240 1.381 . S
C242 C241 1.387 . S
C242 H265 0.931 . S
C243 C236 1.399 . S
C243 C240 1.487 . S
C243 N275 1.343 . S
C244 C245 1.384 . S
C244 C246 1.384 . S
C244 H266 0.931 . S
C245 C244 1.384 . S
C245 C248 1.382 . S
C246 C244 1.384 . S
C246 C247 1.381 . S
C246 H267 0.930 . S
C247 C246 1.381 . S
C247 C249 1.381 . S
C247 C250 1.487 . S
C248 C245 1.382 . S
C248 C249 1.387 . S
C248 H268 0.930 . S
C249 C247 1.381 . S
C249 C248 1.387 . S
C249 H269 0.931 . S
C250 C247 1.487 . S
C250 C257 1.399 . S
C250 N275 1.343 . S
C251 C252 1.384 . S
C251 C253 1.384 . S
C251 H270 0.931 . S
C252 C251 1.384 . S
C252 C255 1.382 . S
C253 C251 1.384 . S
C253 C254 1.381 . S
C253 H271 0.930 . S
C254 C253 1.381 . S
C254 C256 1.381 . S
C254 C257 1.487 . S
C255 C252 1.382 . S
C255 C256 1.387 . S
C255 H272 0.930 . S
C256 C254 1.381 . S
C256 C255 1.387 . S
C256 H273 0.931 . S
C257 C250 1.399 . S
C257 C254 1.487 . S
C257 N274 1.343 . S
H258 C230 0.931 . S
H259 C232 0.930 . S
H260 C234 0.930 . S
H261 C235 0.931 . S
H262 C237 0.931 . S
H263 C239 0.930 . S
H264 C241 0.930 . S
H265 C242 0.931 . S
H266 C244 0.931 . S
H267 C246 0.930 . S
H268 C248 0.930 . S
H269 C249 0.931 . S
H270 C251 0.931 . S
H271 C253 0.930 . S
H272 C255 0.930 . S
H273 C256 0.931 . S
N274 C236 1.343 . S
N274 C257 1.343 . S
N275 C243 1.343 . S
N275 C250 1.343 . S
C276 C277 1.384 . S
C276 C278 1.384 . S
C276 H304 0.931 . S
C277 C276 1.384 . S
C277 C280 1.382 . S
C278 C276 1.384 . S
C278 C279 1.381 . S
C278 H305 0.930 . S
C279 C278 1.381 . S
C279 C281 1.381 . S
C279 C282 1.487 . S
C280 C277 1.382 . S
C280 C281 1.387 . S
C280 H306 0.930 . S
C281 C279 1.381 . S
C281 C280 1.387 . S
C281 H307 0.931 . S
C282 C279 1.487 . S
C282 C289 1.399 . S
C282 N320 1.343 . S
C283 C284 1.384 . S
C283 C285 1.384 . S
C283 H308 0.931 . S
C284 C283 1.384 . S
C284 C287 1.382 . S
C285 C283 1.384 . S
C285 C286 1.381 . S
C285 H309 0.930 . S
C286 C285 1.381 . S
C286 C288 1.381 . S
C286 C289 1.487 . S
C287 C284 1.382 . S
C287 C288 1.387 . S
C287 H310 0.930 . S
C288 C286 1.381 . S
C288 C287 1.387 . S
C288 H311 0.931 . S
C289 C282 1.399 . S
C289 C286 1.487 . S
C289 N321 1.343 . S
C290 C291 1.384 . S
C290 C292 1.384 . S
C290 H312 0.931 . S
C291 C290 1.384 . S
C291 C294 1.382 . S
C292 C290 1.384 . S
C292 C293 1.381 . S
C292 H313 0.930 . S
C293 C292 1.381 . S
C293 C295 1.381 . S
C293 C296 1.487 . S
C294 C291 1.382 . S
C294 C295 1.387 . S
C294 H314 0.930 . S
C295 C293 1.381 . S
C295 C294 1.387 . S
C295 H315 0.931 . S
C296 C293 1.487 . S
C296 C303 1.399 . S
C296 N321 1.343 . S
C297 C298 1.384 . S
C297 C299 1.384 . S
C297 H316 0.931 . S
C298 C297 1.384 . S
C298 C301 1.382 . S
C299 C297 1.384 . S
C299 C300 1.381 . S
C299 H317 0.930 . S
C300 C299 1.381 . S
C300 C302 1.381 . S
C300 C303 1.487 . S
C301 C298 1.382 . S
C301 C302 1.387 . S
C301 H318 0.930 . S
C302 C300 1.381 . S
C302 C301 1.387 . S
C302 H319 0.931 . S
C303 C296 1.399 . S
C303 C300 1.487 . S
C303 N320 1.343 . S
H304 C276 0.931 . S
H305 C278 0.930 . S
H306 C280 0.930 . S
H307 C281 0.931 . S
H308 C283 0.931 . S
H309 C285 0.930 . S
H310 C287 0.930 . S
H311 C288 0.931 . S
H312 C290 0.931 . S
H313 C292 0.930 . S
H314 C294 0.930 . S
H315 C295 0.931 . S
H316 C297 0.931 . S
H317 C299 0.930 . S
H318 C301 0.930 . S
H319 C302 0.931 . S
N320 C282 1.343 . S
N320 C303 1.343 . S
N321 C289 1.343 . S
N321 C296 1.343 . S
C322 C323 1.384 . S
C322 C324 1.384 . S
C322 H350 0.931 . S
C323 C322 1.384 . S
C323 C326 1.382 . S
C324 C322 1.384 . S
C324 C325 1.381 . S
C324 H351 0.930 . S
C325 C324 1.381 . S
C325 C327 1.381 . S
C325 C328 1.487 . S
C326 C323 1.382 . S
C326 C327 1.387 . S
C326 H352 0.930 . S
C327 C325 1.381 . S
C327 C326 1.387 . S
C327 H353 0.931 . S
C328 C325 1.487 . S
C328 C335 1.399 . S
C328 N366 1.343 . S
C329 C330 1.384 . S
C329 C331 1.384 . S
C329 H354 0.931 . S
C330 C329 1.384 . S
C330 C333 1.382 . S
C331 C329 1.384 . S
C331 C332 1.381 . S
C331 H355 0.930 . S
C332 C331 1.381 . S
C332 C334 1.381 . S
C332 C335 1.487 . S
C333 C330 1.382 . S
C333 C334 1.387 . S
C333 H356 0.930 . S
C334 C332 1.381 . S
C334 C333 1.387 . S
C334 H357 0.931 . S
C335 C328 1.399 . S
C335 C332 1.487 . S
C335 N367 1.343 . S
C336 C337 1.384 . S
C336 C338 1.384 . S
C336 H358 0.931 . S
C337 C336 1.384 . S
C337 C340 1.382 . S
C338 C336 1.384 . S
C338 C339 1.381 . S
C338 H359 0.930 . S
C339 C338 1.381 . S
C339 C341 1.381 . S
C339 C342 1.487 . S
C340 C337 1.382 . S
C340 C341 1.387 . S
C340 H360 0.930 . S
C341 C339 1.381 . S
C341 C340 1.387 . S
C341 H361 0.931 . S
C342 C339 1.487 . S
C342 C349 1.399 . S
C342 N367 1.343 . S
C343 C344 1.384 . S
C343 C345 1.384 . S
C343 H362 0.931 . S
C344 C343 1.384 . S
C344 C347 1.382 . S
C345 C343 1.384 . S
C345 C346 1.381 . S
C345 H363 0.930 . S
C346 C345 1.381 . S
C346 C348 1.381 . S
C346 C349 1.487 . S
C347 C344 1.382 . S
C347 C348 1.387 . S
C347 H364 0.930 . S
C348 C346 1.381 . S
C348 C347 1.387 . S
C348 H365 0.931 . S
C349 C342 1.399 . S
C349 C346 1.487 . S
C349 N366 1.343 . S
H350 C322 0.931 . S
H351 C324 0.930 . S
H352 C326 0.930 . S
H353 C327 0.931 . S
H354 C329 0.931 . S
H355 C331 0.930 . S
H356 C333 0.930 . S
H357 C334 0.931 . S
H358 C336 0.931 . S
H359 C338 0.930 . S
H360 C340 0.930 . S
H361 C341 0.931 . S
H362 C343 0.931 . S
H363 C345 0.930 . S
H364 C347 0.930 . S
H365 C348 0.931 . S
N366 C328 1.343 . S
N366 C349 1.343 . S
N367 C335 1.343 . S
N367 C342 1.343 . S
C368 C369 1.443 . S
C368 N372 1.376 . S
C368 C406 1.389 . S
C369 C368 1.443 . S
C369 C370 1.340 . S
C369 H409 0.951 . S
C370 C369 1.340 . S
C370 C371 1.439 . S
C370 H410 0.950 . S
C371 C370 1.439 . S
C371 N372 1.374 . S
C371 C405 1.395 . S
N372 C368 1.376 . S
N372 C371 1.374 . S
N372 Co373 2.008 . S
Co373 N372 2.008 . S
Co373 N374 1.995 1_455 S
Co373 N379 2.008 1_455 S
Co373 N384 1.995 . S
Co373 N389 2.282 1_455 S
Co373 N395 2.282 . S
N374 Co373 1.995 1_655 S
N374 C375 1.376 . S
N374 C378 1.383 . S
C375 N374 1.376 . S
C375 C376 1.446 . S
C375 C405 1.391 1_655 S
C376 C375 1.446 . S
C376 C377 1.339 . S
C376 H411 0.949 . S
C377 C376 1.339 . S
C377 C378 1.439 . S
C377 H412 0.950 . S
C378 N374 1.383 . S
C378 C377 1.439 . S
C378 C407 1.392 . S
N379 Co373 2.008 1_655 S
N379 C380 1.376 . S
N379 C383 1.374 . S
C380 N379 1.376 . S
C380 C381 1.443 . S
C380 C407 1.389 . S
C381 C380 1.443 . S
C381 C382 1.340 . S
C381 H413 0.951 . S
C382 C381 1.340 . S
C382 C383 1.439 . S
C382 H414 0.950 . S
C383 N379 1.374 . S
C383 C382 1.439 . S
C383 C408 1.416 . S
N384 Co373 1.995 . S
N384 C385 1.376 . S
N384 C388 1.383 . S
C385 N384 1.376 . S
C385 C386 1.446 . S
C385 C408 1.369 1_455 S
C386 C385 1.446 . S
C386 C387 1.339 . S
C386 H415 0.949 . S
C387 C386 1.339 . S
C387 C388 1.439 . S
C387 H416 0.950 . S
C388 N384 1.383 . S
C388 C387 1.439 . S
C388 C406 1.392 . S
N389 Co373 2.282 1_655 S
N389 C392 1.332 . S
N389 C394 1.332 . S
C390 C391 1.386 . S
C390 C393 1.388 . S
C391 C390 1.386 . S
C391 C392 1.382 . S
C391 H417 0.950 . S
C392 N389 1.332 . S
C392 C391 1.382 . S
C392 H403 0.952 . S
C393 C390 1.388 . S
C393 C394 1.382 . S
C393 H418 0.950 . S
C394 N389 1.332 . S
C394 C393 1.382 . S
C394 H404 0.948 . S
N395 Co373 2.282 . S
N395 C399 1.332 . S
N395 C400 1.332 . S
C396 C397 1.388 . S
C396 C400 1.382 . S
C396 H419 0.950 . S
C397 C396 1.388 . S
C397 C398 1.386 . S
C398 C397 1.386 . S
C398 C399 1.382 . S
C398 H420 0.950 . S
C399 N395 1.332 . S
C399 C398 1.382 . S
C399 H401 0.952 . S
C400 N395 1.332 . S
C400 C396 1.382 . S
C400 H402 0.948 . S
H401 C399 0.952 . S
H402 C400 0.948 . S
H403 C392 0.952 . S
H404 C394 0.948 . S
C405 C371 1.395 . S
C405 C375 1.391 1_455 S
C406 C368 1.389 . S
C406 C388 1.392 . S
C407 C378 1.392 . S
C407 C380 1.389 . S
C408 C383 1.416 . S
C408 C385 1.369 1_655 S
H409 C369 0.951 . S
H410 C370 0.950 . S
H411 C376 0.949 . S
H412 C377 0.950 . S
H413 C381 0.951 . S
H414 C382 0.950 . S
H415 C386 0.949 . S
H416 C387 0.950 . S
H417 C391 0.950 . S
H418 C393 0.950 . S
H419 C396 0.950 . S
H420 C398 0.950 . S
C421 C422 1.443 . S
C421 N425 1.376 . S
C421 C459 1.389 . S
C422 C421 1.443 . S
C422 C423 1.340 . S
C422 H462 0.951 . S
C423 C422 1.340 . S
C423 C424 1.439 . S
C423 H463 0.950 . S
C424 C423 1.439 . S
C424 N425 1.374 . S
C424 C458 1.395 . S
N425 C421 1.376 . S
N425 C424 1.374 . S
N425 Co426 2.008 . S
Co426 N425 2.008 . S
Co426 N427 1.995 1_545 S
Co426 N432 2.008 1_545 S
Co426 N437 1.995 . S
Co426 N442 2.282 1_545 S
Co426 N448 2.282 . S
N427 Co426 1.995 1_565 S
N427 C428 1.376 . S
N427 C431 1.383 . S
C428 N427 1.376 . S
C428 C429 1.446 . S
C428 C458 1.391 1_565 S
C429 C428 1.446 . S
C429 C430 1.339 . S
C429 H464 0.949 . S
C430 C429 1.339 . S
C430 C431 1.439 . S
C430 H465 0.950 . S
C431 N427 1.383 . S
C431 C430 1.439 . S
C431 C460 1.392 . S
N432 Co426 2.008 1_565 S
N432 C433 1.376 . S
N432 C436 1.374 . S
C433 N432 1.376 . S
C433 C434 1.443 . S
C433 C460 1.389 . S
C434 C433 1.443 . S
C434 C435 1.340 . S
C434 H466 0.951 . S
C435 C434 1.340 . S
C435 C436 1.439 . S
C435 H467 0.950 . S
C436 N432 1.374 . S
C436 C435 1.439 . S
C436 C461 1.409 . S
N437 Co426 1.995 . S
N437 C438 1.376 . S
N437 C441 1.383 . S
C438 N437 1.376 . S
C438 C439 1.446 . S
C438 C461 1.376 1_545 S
C439 C438 1.446 . S
C439 C440 1.339 . S
C439 H468 0.949 . S
C440 C439 1.339 . S
C440 C441 1.439 . S
C440 H469 0.950 . S
C441 N437 1.383 . S
C441 C440 1.439 . S
C441 C459 1.392 . S
N442 Co426 2.282 1_565 S
N442 C445 1.332 . S
N442 C447 1.332 . S
C443 C444 1.386 . S
C443 C446 1.388 . S
C444 C443 1.386 . S
C444 C445 1.382 . S
C444 H470 0.950 . S
C445 N442 1.332 . S
C445 C444 1.382 . S
C445 H456 0.952 . S
C446 C443 1.388 . S
C446 C447 1.382 . S
C446 H471 0.950 . S
C447 N442 1.332 . S
C447 C446 1.382 . S
C447 H457 0.948 . S
N448 Co426 2.282 . S
N448 C452 1.332 . S
N448 C453 1.332 . S
C449 C450 1.388 . S
C449 C453 1.382 . S
C449 H472 0.950 . S
C450 C449 1.388 . S
C450 C451 1.386 . S
C451 C450 1.386 . S
C451 C452 1.382 . S
C451 H473 0.950 . S
C452 N448 1.332 . S
C452 C451 1.382 . S
C452 H454 0.952 . S
C453 N448 1.332 . S
C453 C449 1.382 . S
C453 H455 0.948 . S
H454 C452 0.952 . S
H455 C453 0.948 . S
H456 C445 0.952 . S
H457 C447 0.948 . S
C458 C424 1.395 . S
C458 C428 1.391 1_545 S
C459 C421 1.389 . S
C459 C441 1.392 . S
C460 C431 1.392 . S
C460 C433 1.389 . S
C461 C436 1.409 . S
C461 C438 1.376 1_565 S
H462 C422 0.951 . S
H463 C423 0.950 . S
H464 C429 0.949 . S
H465 C430 0.950 . S
H466 C434 0.951 . S
H467 C435 0.950 . S
H468 C439 0.949 . S
H469 C440 0.950 . S
H470 C444 0.950 . S
H471 C446 0.950 . S
H472 C449 0.950 . S
H473 C451 0.950 . S
C474 C475 1.443 . S
C474 N478 1.376 . S
C474 C512 1.389 . S
C475 C474 1.443 . S
C475 C476 1.340 . S
C475 H515 0.951 . S
C476 C475 1.340 . S
C476 C477 1.439 . S
C476 H516 0.950 . S
C477 C476 1.439 . S
C477 N478 1.374 . S
C477 C511 1.395 . S
N478 C474 1.376 . S
N478 C477 1.374 . S
N478 Co479 2.008 . S
Co479 N478 2.008 . S
Co479 N480 1.995 1_455 S
Co479 N485 2.008 1_455 S
Co479 N490 1.995 . S
Co479 N495 2.282 1_455 S
Co479 N501 2.282 . S
N480 Co479 1.995 1_655 S
N480 C481 1.376 . S
N480 C484 1.383 . S
C481 N480 1.376 . S
C481 C482 1.446 . S
C481 C511 1.391 1_655 S
C482 C481 1.446 . S
C482 C483 1.339 . S
C482 H517 0.949 . S
C483 C482 1.339 . S
C483 C484 1.439 . S
C483 H518 0.950 . S
C484 N480 1.383 . S
C484 C483 1.439 . S
C484 C513 1.392 . S
N485 Co479 2.008 1_655 S
N485 C486 1.376 . S
N485 C489 1.374 . S
C486 N485 1.376 . S
C486 C487 1.443 . S
C486 C513 1.389 . S
C487 C486 1.443 . S
C487 C488 1.340 . S
C487 H519 0.951 . S
C488 C487 1.340 . S
C488 C489 1.439 . S
C488 H520 0.950 . S
C489 N485 1.374 . S
C489 C488 1.439 . S
C489 C514 1.395 . S
N490 Co479 1.995 . S
N490 C491 1.376 . S
N490 C494 1.383 . S
C491 N490 1.376 . S
C491 C492 1.446 . S
C491 C514 1.391 1_455 S
C492 C491 1.446 . S
C492 C493 1.339 . S
C492 H521 0.949 . S
C493 C492 1.339 . S
C493 C494 1.439 . S
C493 H522 0.950 . S
C494 N490 1.383 . S
C494 C493 1.439 . S
C494 C512 1.392 . S
N495 Co479 2.282 1_655 S
N495 C498 1.332 . S
N495 C500 1.332 . S
C496 C497 1.386 . S
C496 C499 1.388 . S
C497 C496 1.386 . S
C497 C498 1.382 . S
C497 H523 0.950 . S
C498 N495 1.332 . S
C498 C497 1.382 . S
C498 H509 0.952 . S
C499 C496 1.388 . S
C499 C500 1.382 . S
C499 H524 0.950 . S
C500 N495 1.332 . S
C500 C499 1.382 . S
C500 H510 0.948 . S
N501 Co479 2.282 . S
N501 C505 1.332 . S
N501 C506 1.332 . S
C502 C503 1.388 . S
C502 C506 1.382 . S
C502 H525 0.950 . S
C503 C502 1.388 . S
C503 C504 1.386 . S
C504 C503 1.386 . S
C504 C505 1.382 . S
C504 H526 0.950 . S
C505 N501 1.332 . S
C505 C504 1.382 . S
C505 H507 0.952 . S
C506 N501 1.332 . S
C506 C502 1.382 . S
C506 H508 0.948 . S
H507 C505 0.952 . S
H508 C506 0.948 . S
H509 C498 0.952 . S
H510 C500 0.948 . S
C511 C477 1.395 . S
C511 C481 1.391 1_455 S
C512 C474 1.389 . S
C512 C494 1.392 . S
C513 C484 1.392 . S
C513 C486 1.389 . S
C514 C489 1.395 . S
C514 C491 1.391 1_655 S
H515 C475 0.951 . S
H516 C476 0.950 . S
H517 C482 0.949 . S
H518 C483 0.950 . S
H519 C487 0.951 . S
H520 C488 0.950 . S
H521 C492 0.949 . S
H522 C493 0.950 . S
H523 C497 0.950 . S
H524 C499 0.950 . S
H525 C502 0.950 . S
H526 C504 0.950 . S
C527 C528 1.443 . S
C527 N531 1.376 . S
C527 C565 1.389 . S
C528 C527 1.443 . S
C528 C529 1.340 . S
C528 H568 0.951 . S
C529 C528 1.340 . S
C529 C530 1.439 . S
C529 H569 0.950 . S
C530 C529 1.439 . S
C530 N531 1.374 . S
C530 C564 1.414 . S
N531 C527 1.376 . S
N531 C530 1.374 . S
N531 Co532 2.008 1_565 S
Co532 N531 2.008 1_545 S
Co532 N533 1.995 . S
Co532 N538 2.008 . S
Co532 N543 1.995 1_545 S
Co532 N548 2.282 . S
Co532 N554 2.282 1_545 S
N533 Co532 1.995 . S
N533 C534 1.376 . S
N533 C537 1.383 . S
C534 N533 1.376 . S
C534 C535 1.446 . S
C534 C564 1.371 1_545 S
C535 C534 1.446 . S
C535 C536 1.339 . S
C535 H570 0.949 . S
C536 C535 1.339 . S
C536 C537 1.439 . S
C536 H571 0.950 . S
C537 N533 1.383 . S
C537 C536 1.439 . S
C537 C566 1.392 . S
N538 Co532 2.008 . S
N538 C539 1.376 . S
N538 C542 1.374 . S
C539 N538 1.376 . S
C539 C540 1.443 . S
C539 C566 1.389 . S
C540 C539 1.443 . S
C540 C541 1.340 . S
C540 H572 0.951 . S
C541 C540 1.340 . S
C541 C542 1.439 . S
C541 H573 0.950 . S
C542 N538 1.374 . S
C542 C541 1.439 . S
C542 C567 1.395 . S
N543 Co532 1.995 1_565 S
N543 C544 1.376 . S
N543 C547 1.383 . S
C544 N543 1.376 . S
C544 C545 1.446 . S
C544 C567 1.391 1_565 S
C545 C544 1.446 . S
C545 C546 1.339 . S
C545 H574 0.949 . S
C546 C545 1.339 . S
C546 C547 1.439 . S
C546 H575 0.950 . S
C547 N543 1.383 . S
C547 C546 1.439 . S
C547 C565 1.392 . S
N548 Co532 2.282 . S
N548 C551 1.332 . S
N548 C553 1.332 . S
C549 C550 1.386 . S
C549 C552 1.388 . S
C550 C549 1.386 . S
C550 C551 1.382 . S
C550 H576 0.950 . S
C551 N548 1.332 . S
C551 C550 1.382 . S
C551 H562 0.952 . S
C552 C549 1.388 . S
C552 C553 1.382 . S
C552 H577 0.950 . S
C553 N548 1.332 . S
C553 C552 1.382 . S
C553 H563 0.948 . S
N554 Co532 2.282 1_565 S
N554 C558 1.332 . S
N554 C559 1.332 . S
C555 C556 1.388 . S
C555 C559 1.382 . S
C555 H578 0.950 . S
C556 C555 1.388 . S
C556 C557 1.386 . S
C557 C556 1.386 . S
C557 C558 1.382 . S
C557 H579 0.950 . S
C558 N554 1.332 . S
C558 C557 1.382 . S
C558 H560 0.952 . S
C559 N554 1.332 . S
C559 C555 1.382 . S
C559 H561 0.948 . S
H560 C558 0.952 . S
H561 C559 0.948 . S
H562 C551 0.952 . S
H563 C553 0.948 . S
C564 C530 1.414 . S
C564 C534 1.371 1_565 S
C565 C527 1.389 . S
C565 C547 1.392 . S
C566 C537 1.392 . S
C566 C539 1.389 . S
C567 C542 1.395 . S
C567 C544 1.391 1_545 S
H568 C528 0.951 . S
H569 C529 0.950 . S
H570 C535 0.949 . S
H571 C536 0.950 . S
H572 C540 0.951 . S
H573 C541 0.950 . S
H574 C545 0.949 . S
H575 C546 0.950 . S
H576 C550 0.950 . S
H577 C552 0.950 . S
H578 C555 0.950 . S
H579 C557 0.950 . S
C580 C581 1.443 . S
C580 N584 1.376 . S
C580 C618 1.389 . S
C581 C580 1.443 . S
C581 C582 1.340 . S
C581 H621 0.951 . S
C582 C581 1.340 . S
C582 C583 1.439 . S
C582 H622 0.950 . S
C583 C582 1.439 . S
C583 N584 1.374 . S
C583 C617 1.395 1_554 S
N584 C580 1.376 . S
N584 C583 1.374 . S
N584 Co585 2.008 . S
Co585 N584 2.008 . S
Co585 N586 1.995 1_554 S
Co585 N591 2.008 1_554 S
Co585 N596 1.995 . S
Co585 N601 2.282 . S
Co585 N607 2.282 1_554 S
N586 Co585 1.995 1_556 S
N586 C587 1.376 . S
N586 C590 1.383 . S
C587 N586 1.376 . S
C587 C588 1.446 . S
C587 C617 1.391 . S
C588 C587 1.446 . S
C588 C589 1.339 . S
C588 H623 0.949 . S
C589 C588 1.339 . S
C589 C590 1.439 . S
C589 H624 0.950 . S
C590 N586 1.383 . S
C590 C589 1.439 . S
C590 C619 1.392 . S
N591 Co585 2.008 1_556 S
N591 C592 1.376 . S
N591 C595 1.374 . S
C592 N591 1.376 . S
C592 C593 1.443 . S
C592 C619 1.389 . S
C593 C592 1.443 . S
C593 C594 1.340 . S
C593 H625 0.951 . S
C594 C593 1.340 . S
C594 C595 1.439 . S
C594 H626 0.950 . S
C595 N591 1.374 . S
C595 C594 1.439 . S
C595 C620 1.395 1_556 S
N596 Co585 1.995 . S
N596 C597 1.376 . S
N596 C600 1.383 . S
C597 N596 1.376 . S
C597 C598 1.446 . S
C597 C620 1.391 . S
C598 C597 1.446 . S
C598 C599 1.339 . S
C598 H627 0.949 . S
C599 C598 1.339 . S
C599 C600 1.439 . S
C599 H628 0.950 . S
C600 N596 1.383 . S
C600 C599 1.439 . S
C600 C618 1.392 . S
N601 Co585 2.282 . S
N601 C604 1.332 . S
N601 C606 1.332 . S
C602 C603 1.386 . S
C602 C605 1.388 . S
C603 C602 1.386 . S
C603 C604 1.382 . S
C603 H629 0.950 . S
C604 N601 1.332 . S
C604 C603 1.382 . S
C604 H615 0.952 . S
C605 C602 1.388 . S
C605 C606 1.382 . S
C605 H630 0.950 . S
C606 N601 1.332 . S
C606 C605 1.382 . S
C606 H616 0.948 . S
N607 Co585 2.282 1_556 S
N607 C611 1.332 . S
N607 C612 1.332 . S
C608 C609 1.388 . S
C608 C612 1.382 . S
C608 H631 0.950 . S
C609 C608 1.388 . S
C609 C610 1.386 . S
C610 C609 1.386 . S
C610 C611 1.382 . S
C610 H632 0.950 . S
C611 N607 1.332 . S
C611 C610 1.382 . S
C611 H613 0.952 . S
C612 N607 1.332 . S
C612 C608 1.382 . S
C612 H614 0.948 . S
H613 C611 0.952 . S
H614 C612 0.948 . S
H615 C604 0.952 . S
H616 C606 0.948 . S
C617 C583 1.395 1_556 S
C617 C587 1.391 . S
C618 C580 1.389 . S
C618 C600 1.392 . S
C619 C590 1.392 . S
C619 C592 1.389 . S
C620 C595 1.395 1_554 S
C620 C597 1.391 . S
H621 C581 0.951 . S
H622 C582 0.950 . S
H623 C588 0.949 . S
H624 C589 0.950 . S
H625 C593 0.951 . S
H626 C594 0.950 . S
H627 C598 0.949 . S
H628 C599 0.950 . S
H629 C603 0.950 . S
H630 C605 0.950 . S
H631 C608 0.950 . S
H632 C610 0.950 . S
C633 C634 1.443 . S
C633 N637 1.376 . S
C633 C671 1.389 . S
C634 C633 1.443 . S
C634 C635 1.340 . S
C634 H674 0.951 . S
C635 C634 1.340 . S
C635 C636 1.439 . S
C635 H675 0.950 . S
C636 C635 1.439 . S
C636 N637 1.374 . S
C636 C670 1.419 . S
N637 C633 1.376 . S
N637 C636 1.374 . S
N637 Co638 2.008 . S
Co638 N637 2.008 . S
Co638 N639 1.995 1_554 S
Co638 N644 2.008 1_554 S
Co638 N649 1.995 . S
Co638 N654 2.282 . S
Co638 N660 2.282 1_554 S
N639 Co638 1.995 1_556 S
N639 C640 1.376 . S
N639 C643 1.383 . S
C640 N639 1.376 . S
C640 C641 1.446 . S
C640 C670 1.371 1_556 S
C641 C640 1.446 . S
C641 C642 1.339 . S
C641 H676 0.949 . S
C642 C641 1.339 . S
C642 C643 1.439 . S
C642 H677 0.950 . S
C643 N639 1.383 . S
C643 C642 1.439 . S
C643 C672 1.392 . S
N644 Co638 2.008 1_556 S
N644 C645 1.376 . S
N644 C648 1.374 1_556 S
C645 N644 1.376 . S
C645 C646 1.443 . S
C645 C672 1.389 . S
C646 C645 1.443 . S
C646 C647 1.340 . S
C646 H678 0.951 . S
C647 C646 1.340 . S
C647 C648 1.439 1_556 S
C647 H679 0.950 . S
C648 N644 1.374 1_554 S
C648 C647 1.439 1_554 S
C648 C673 1.395 . S
N649 Co638 1.995 . S
N649 C650 1.376 . S
N649 C653 1.383 . S
C650 N649 1.376 . S
C650 C651 1.446 . S
C650 C673 1.391 . S
C651 C650 1.446 . S
C651 C652 1.339 . S
C651 H680 0.949 . S
C652 C651 1.339 . S
C652 C653 1.439 . S
C652 H681 0.950 . S
C653 N649 1.383 . S
C653 C652 1.439 . S
C653 C671 1.392 . S
N654 Co638 2.282 . S
N654 C657 1.332 . S
N654 C659 1.332 . S
C655 C656 1.386 . S
C655 C658 1.388 . S
C656 C655 1.386 . S
C656 C657 1.382 . S
C656 H682 0.950 . S
C657 N654 1.332 . S
C657 C656 1.382 . S
C657 H668 0.952 . S
C658 C655 1.388 . S
C658 C659 1.382 . S
C658 H683 0.950 . S
C659 N654 1.332 . S
C659 C658 1.382 . S
C659 H669 0.948 . S
N660 Co638 2.282 1_556 S
N660 C664 1.332 . S
N660 C665 1.332 . S
C661 C662 1.388 . S
C661 C665 1.382 . S
C661 H684 0.950 . S
C662 C661 1.388 . S
C662 C663 1.386 . S
C663 C662 1.386 . S
C663 C664 1.382 . S
C663 H685 0.950 . S
C664 N660 1.332 . S
C664 C663 1.382 . S
C664 H666 0.952 . S
C665 N660 1.332 . S
C665 C661 1.382 . S
C665 H667 0.948 . S
H666 C664 0.952 . S
H667 C665 0.948 . S
H668 C657 0.952 . S
H669 C659 0.948 . S
C670 C636 1.419 . S
C670 C640 1.371 1_554 S
C671 C633 1.389 . S
C671 C653 1.392 . S
C672 C643 1.392 . S
C672 C645 1.389 . S
C673 C648 1.395 . S
C673 C650 1.391 . S
H674 C634 0.951 . S
H675 C635 0.950 . S
H676 C641 0.949 . S
H677 C642 0.950 . S
H678 C646 0.951 . S
H679 C647 0.950 . S
H680 C651 0.949 . S
H681 C652 0.950 . S
H682 C656 0.950 . S
H683 C658 0.950 . S
H684 C661 0.950 . S
H685 C663 0.950 . S
C686 C687 1.443 . S
C686 N690 1.376 1_556 S
C686 C724 1.389 . S
C687 C686 1.443 . S
C687 C688 1.340 . S
C687 H727 0.951 . S
C688 C687 1.340 . S
C688 C689 1.439 1_556 S
C688 H728 0.950 . S
C689 C688 1.439 1_554 S
C689 N690 1.374 . S
C689 C723 1.395 . S
N690 C686 1.376 1_554 S
N690 C689 1.374 . S
N690 Co691 2.008 . S
Co691 N690 2.008 . S
Co691 N692 1.995 . S
Co691 N697 2.008 . S
Co691 N702 1.995 1_554 S
Co691 N707 2.282 1_554 S
Co691 N713 2.282 . S
N692 Co691 1.995 . S
N692 C693 1.376 . S
N692 C696 1.383 . S
C693 N692 1.376 . S
C693 C694 1.446 . S
C693 C723 1.391 . S
C694 C693 1.446 . S
C694 C695 1.339 . S
C694 H729 0.949 . S
C695 C694 1.339 . S
C695 C696 1.439 . S
C695 H730 0.950 . S
C696 N692 1.383 . S
C696 C695 1.439 . S
C696 C725 1.392 . S
N697 Co691 2.008 . S
N697 C698 1.376 . S
N697 C701 1.374 . S
C698 N697 1.376 . S
C698 C699 1.443 . S
C698 C725 1.389 . S
C699 C698 1.443 . S
C699 C700 1.340 . S
C699 H731 0.951 . S
C700 C699 1.340 . S
C700 C701 1.439 . S
C700 H732 0.950 . S
C701 N697 1.374 . S
C701 C700 1.439 . S
C701 C726 1.395 . S
N702 Co691 1.995 1_556 S
N702 C703 1.376 . S
N702 C706 1.383 . S
C703 N702 1.376 . S
C703 C704 1.446 . S
C703 C726 1.391 1_556 S
C704 C703 1.446 . S
C704 C705 1.339 . S
C704 H733 0.949 . S
C705 C704 1.339 . S
C705 C706 1.439 . S
C705 H734 0.950 . S
C706 N702 1.383 . S
C706 C705 1.439 . S
C706 C724 1.392 . S
N707 Co691 2.282 1_556 S
N707 C710 1.332 . S
N707 C712 1.332 . S
C708 C709 1.386 . S
C708 C711 1.388 . S
C709 C708 1.386 . S
C709 C710 1.382 . S
C709 H735 0.950 . S
C710 N707 1.332 . S
C710 C709 1.382 . S
C710 H721 0.952 . S
C711 C708 1.388 . S
C711 C712 1.382 . S
C711 H736 0.950 . S
C712 N707 1.332 . S
C712 C711 1.382 . S
C712 H722 0.953 . S
N713 Co691 2.282 . S
N713 C717 1.332 . S
N713 C718 1.332 . S
C714 C715 1.388 . S
C714 C718 1.382 . S
C714 H737 0.950 . S
C715 C714 1.388 . S
C715 C716 1.386 . S
C716 C715 1.386 . S
C716 C717 1.382 . S
C716 H738 0.950 . S
C717 N713 1.332 . S
C717 C716 1.382 . S
C717 H719 0.952 . S
C718 N713 1.332 . S
C718 C714 1.382 . S
C718 H720 0.948 . S
H719 C717 0.952 . S
H720 C718 0.948 . S
H721 C710 0.952 . S
H722 C712 0.953 . S
C723 C689 1.395 . S
C723 C693 1.391 . S
C724 C686 1.389 . S
C724 C706 1.392 . S
C725 C696 1.392 . S
C725 C698 1.389 . S
C726 C701 1.395 . S
C726 C703 1.391 1_554 S
H727 C687 0.951 . S
H728 C688 0.950 . S
H729 C694 0.949 . S
H730 C695 0.950 . S
H731 C699 0.951 . S
H732 C700 0.950 . S
H733 C704 0.949 . S
H734 C705 0.950 . S
H735 C709 0.950 . S
H736 C711 0.950 . S
H737 C714 0.950 . S
H738 C716 0.950 . S
C739 C740 1.443 . S
C739 N743 1.376 . S
C739 C777 1.389 . S
C740 C739 1.443 . S
C740 C741 1.340 . S
C740 H780 0.951 . S
C741 C740 1.340 . S
C741 C742 1.439 . S
C741 H781 0.950 . S
C742 C741 1.439 . S
C742 N743 1.374 . S
C742 C776 1.395 1_554 S
N743 C739 1.376 . S
N743 C742 1.374 . S
N743 Co744 2.008 . S
Co744 N743 2.008 . S
Co744 N745 1.995 1_554 S
Co744 N750 2.008 1_554 S
Co744 N755 1.995 . S
Co744 N760 2.282 . S
Co744 N766 2.282 1_554 S
N745 Co744 1.995 1_556 S
N745 C746 1.376 . S
N745 C749 1.383 . S
C746 N745 1.376 . S
C746 C747 1.446 . S
C746 C776 1.391 . S
C747 C746 1.446 . S
C747 C748 1.339 . S
C747 H782 0.949 . S
C748 C747 1.339 . S
C748 C749 1.439 . S
C748 H783 0.950 . S
C749 N745 1.383 . S
C749 C748 1.439 . S
C749 C778 1.392 . S
N750 Co744 2.008 1_556 S
N750 C751 1.376 . S
N750 C754 1.374 1_556 S
C751 N750 1.376 . S
C751 C752 1.443 . S
C751 C778 1.389 . S
C752 C751 1.443 . S
C752 C753 1.340 . S
C752 H784 0.951 . S
C753 C752 1.340 . S
C753 C754 1.439 1_556 S
C753 H785 0.950 . S
C754 N750 1.374 1_554 S
C754 C753 1.439 1_554 S
C754 C779 1.395 . S
N755 Co744 1.995 . S
N755 C756 1.376 . S
N755 C759 1.383 . S
C756 N755 1.376 . S
C756 C757 1.446 . S
C756 C779 1.391 . S
C757 C756 1.446 . S
C757 C758 1.339 . S
C757 H786 0.949 . S
C758 C757 1.339 . S
C758 C759 1.439 . S
C758 H787 0.950 . S
C759 N755 1.383 . S
C759 C758 1.439 . S
C759 C777 1.392 . S
N760 Co744 2.282 . S
N760 C763 1.332 . S
N760 C765 1.332 . S
C761 C762 1.386 . S
C761 C764 1.388 . S
C762 C761 1.386 . S
C762 C763 1.382 . S
C762 H788 0.950 . S
C763 N760 1.332 . S
C763 C762 1.382 . S
C763 H774 0.952 . S
C764 C761 1.388 . S
C764 C765 1.382 . S
C764 H789 0.950 . S
C765 N760 1.332 . S
C765 C764 1.382 . S
C765 H775 0.948 . S
N766 Co744 2.282 1_556 S
N766 C770 1.332 . S
N766 C771 1.332 . S
C767 C768 1.388 . S
C767 C771 1.382 . S
C767 H790 0.950 . S
C768 C767 1.388 . S
C768 C769 1.386 . S
C769 C768 1.386 . S
C769 C770 1.382 . S
C769 H791 0.950 . S
C770 N766 1.332 . S
C770 C769 1.382 . S
C770 H772 0.952 . S
C771 N766 1.332 . S
C771 C767 1.382 . S
C771 H773 0.948 . S
H772 C770 0.952 . S
H773 C771 0.948 . S
H774 C763 0.952 . S
H775 C765 0.948 . S
C776 C742 1.395 1_556 S
C776 C746 1.391 . S
C777 C739 1.389 . S
C777 C759 1.392 . S
C778 C749 1.392 . S
C778 C751 1.389 . S
C779 C754 1.395 . S
C779 C756 1.391 . S
H780 C740 0.951 . S
H781 C741 0.950 . S
H782 C747 0.949 . S
H783 C748 0.950 . S
H784 C752 0.951 . S
H785 C753 0.950 . S
H786 C757 0.949 . S
H787 C758 0.950 . S
H788 C762 0.950 . S
H789 C764 0.950 . S
H790 C767 0.950 . S
H791 C769 0.950 . S
H792 C800 0.950 . S
H793 C805 0.950 . S
H794 C802 0.950 . S
H795 C804 0.950 . S
H796 C806 0.950 . S
H797 C808 0.950 . S
H798 C810 0.950 . S
H799 C811 0.950 . S
C800 H792 0.950 . S
C800 C801 1.386 . S
C800 C802 1.391 . S
C801 C800 1.386 . S
C801 C805 1.393 . S
C802 H794 0.950 . S
C802 C800 1.391 . S
C802 C803 1.400 . S
C803 C802 1.400 . S
C803 C804 1.398 . S
C803 C809 1.491 . S
C804 H795 0.950 . S
C804 C803 1.398 . S
C804 C805 1.391 . S
C805 H793 0.950 . S
C805 C801 1.393 . S
C805 C804 1.391 . S
C806 H796 0.950 . S
C806 C807 1.386 . S
C806 C808 1.391 . S
C807 C806 1.386 . S
C807 C811 1.393 . S
C808 H797 0.950 . S
C808 C806 1.391 . S
C808 C809 1.400 . S
C809 C803 1.491 . S
C809 C808 1.400 . S
C809 C810 1.398 . S
C810 H798 0.950 . S
C810 C809 1.398 . S
C810 C811 1.391 . S
C811 H799 0.950 . S
C811 C807 1.393 . S
C811 C810 1.391 . S
H812 C820 0.950 . S
H813 C825 0.950 . S
H814 C822 0.950 . S
H815 C824 0.950 . S
H816 C826 0.950 . S
H817 C828 0.950 . S
H818 C830 0.950 . S
H819 C831 0.950 . S
C820 H812 0.950 . S
C820 C821 1.386 . S
C820 C822 1.391 . S
C821 C820 1.386 . S
C821 C825 1.393 . S
C822 H814 0.950 . S
C822 C820 1.391 . S
C822 C823 1.400 . S
C823 C822 1.400 . S
C823 C824 1.398 . S
C823 C829 1.491 . S
C824 H815 0.950 . S
C824 C823 1.398 . S
C824 C825 1.391 . S
C825 H813 0.950 . S
C825 C821 1.393 . S
C825 C824 1.391 . S
C826 H816 0.950 . S
C826 C827 1.386 . S
C826 C828 1.391 . S
C827 C826 1.386 . S
C827 C831 1.393 . S
C828 H817 0.950 . S
C828 C826 1.391 . S
C828 C829 1.400 . S
C829 C823 1.491 . S
C829 C828 1.400 . S
C829 C830 1.398 . S
C830 H818 0.950 . S
C830 C829 1.398 . S
C830 C831 1.391 . S
C831 H819 0.950 . S
C831 C827 1.393 . S
C831 C830 1.391 . S
H832 C840 0.950 . S
H833 C845 0.950 . S
H834 C842 0.950 . S
H835 C844 0.950 . S
H836 C846 0.950 . S
H837 C848 0.950 . S
H838 C850 0.950 . S
H839 C851 0.950 . S
C840 H832 0.950 . S
C840 C841 1.386 . S
C840 C842 1.391 . S
C841 C840 1.386 . S
C841 C845 1.393 . S
C842 H834 0.950 . S
C842 C840 1.391 . S
C842 C843 1.400 . S
C843 C842 1.400 . S
C843 C844 1.398 . S
C843 C849 1.491 . S
C844 H835 0.950 . S
C844 C843 1.398 . S
C844 C845 1.391 . S
C845 H833 0.950 . S
C845 C841 1.393 . S
C845 C844 1.391 . S
C846 H836 0.950 . S
C846 C847 1.386 . S
C846 C848 1.391 . S
C847 C846 1.386 . S
C847 C851 1.393 . S
C848 H837 0.950 . S
C848 C846 1.391 . S
C848 C849 1.400 . S
C849 C843 1.491 . S
C849 C848 1.400 . S
C849 C850 1.398 . S
C850 H838 0.950 . S
C850 C849 1.398 . S
C850 C851 1.391 . S
C851 H839 0.950 . S
C851 C847 1.393 . S
C851 C850 1.391 . S
H852 C860 0.950 . S
H853 C865 0.950 . S
H854 C862 0.950 . S
H855 C864 0.950 . S
H856 C866 0.950 . S
H857 C868 0.950 . S
H858 C870 0.950 . S
H859 C871 0.950 . S
C860 H852 0.950 . S
C860 C861 1.386 . S
C860 C862 1.391 . S
C861 C860 1.386 . S
C861 C865 1.393 . S
C862 H854 0.950 . S
C862 C860 1.391 . S
C862 C863 1.400 . S
C863 C862 1.400 . S
C863 C864 1.398 . S
C863 C869 1.491 . S
C864 H855 0.950 . S
C864 C863 1.398 . S
C864 C865 1.391 . S
C865 H853 0.950 . S
C865 C861 1.393 . S
C865 C864 1.391 . S
C866 H856 0.950 . S
C866 C867 1.386 . S
C866 C868 1.391 . S
C867 C866 1.386 . S
C867 C871 1.393 . S
C868 H857 0.950 . S
C868 C866 1.391 . S
C868 C869 1.400 . S
C869 C863 1.491 . S
C869 C868 1.400 . S
C869 C870 1.398 . S
C870 H858 0.950 . S
C870 C869 1.398 . S
C870 C871 1.391 . S
C871 H859 0.950 . S
C871 C867 1.393 . S
C871 C870 1.391 . S
H872 C880 0.950 . S
H873 C885 0.950 . S
H874 C882 0.950 . S
H875 C884 0.950 . S
H876 C886 0.950 . S
H877 C888 0.950 . S
H878 C890 0.950 . S
H879 C891 0.950 . S
C880 H872 0.950 . S
C880 C881 1.386 . S
C880 C882 1.391 . S
C881 C880 1.386 . S
C881 C885 1.393 . S
C882 H874 0.950 . S
C882 C880 1.391 . S
C882 C883 1.400 . S
C883 C882 1.400 . S
C883 C884 1.398 . S
C883 C889 1.491 . S
C884 H875 0.950 . S
C884 C883 1.398 . S
C884 C885 1.391 . S
C885 H873 0.950 . S
C885 C881 1.393 . S
C885 C884 1.391 . S
C886 H876 0.950 . S
C886 C887 1.386 . S
C886 C888 1.391 . S
C887 C886 1.386 . S
C887 C891 1.393 . S
C888 H877 0.950 . S
C888 C886 1.391 . S
C888 C889 1.400 . S
C889 C883 1.491 . S
C889 C888 1.400 . S
C889 C890 1.398 . S
C890 H878 0.950 . S
C890 C889 1.398 . S
C890 C891 1.391 . S
C891 H879 0.950 . S
C891 C887 1.393 . S
C891 C890 1.391 . S
H892 C900 0.950 . S
H893 C905 0.950 . S
H894 C902 0.950 . S
H895 C904 0.950 . S
H896 C906 0.950 . S
H897 C908 0.950 . S
H898 C910 0.950 . S
H899 C911 0.950 . S
C900 H892 0.950 . S
C900 C901 1.386 . S
C900 C902 1.391 . S
C901 C900 1.386 . S
C901 C905 1.393 . S
C902 H894 0.950 . S
C902 C900 1.391 . S
C902 C903 1.400 . S
C903 C902 1.400 . S
C903 C904 1.398 . S
C903 C909 1.491 . S
C904 H895 0.950 . S
C904 C903 1.398 . S
C904 C905 1.391 . S
C905 H893 0.950 . S
C905 C901 1.393 . S
C905 C904 1.391 . S
C906 H896 0.950 . S
C906 C907 1.386 . S
C906 C908 1.391 . S
C907 C906 1.386 . S
C907 C911 1.393 . S
C908 H897 0.950 . S
C908 C906 1.391 . S
C908 C909 1.400 . S
C909 C903 1.491 . S
C909 C908 1.400 . S
C909 C910 1.398 . S
C910 H898 0.950 . S
C910 C909 1.398 . S
C910 C911 1.391 . S
C911 H899 0.950 . S
C911 C907 1.393 . S
C911 C910 1.391 . S
H912 C920 0.950 . S
H913 C925 0.950 . S
H914 C922 0.950 . S
H915 C924 0.950 . S
H916 C926 0.950 . S
H917 C928 0.950 . S
H918 C930 0.950 . S
H919 C931 0.950 . S
C920 H912 0.950 . S
C920 C921 1.386 . S
C920 C922 1.391 . S
C921 C920 1.386 . S
C921 C925 1.393 . S
C922 H914 0.950 . S
C922 C920 1.391 . S
C922 C923 1.400 . S
C923 C922 1.400 . S
C923 C924 1.398 . S
C923 C929 1.491 . S
C924 H915 0.950 . S
C924 C923 1.398 . S
C924 C925 1.391 . S
C925 H913 0.950 . S
C925 C921 1.393 . S
C925 C924 1.391 . S
C926 H916 0.950 . S
C926 C927 1.386 . S
C926 C928 1.391 . S
C927 C926 1.386 . S
C927 C931 1.393 . S
C928 H917 0.950 . S
C928 C926 1.391 . S
C928 C929 1.400 . S
C929 C923 1.491 . S
C929 C928 1.400 . S
C929 C930 1.398 . S
C930 H918 0.950 . S
C930 C929 1.398 . S
C930 C931 1.391 . S
C931 H919 0.950 . S
C931 C927 1.393 . S
C931 C930 1.391 . S
H932 C940 0.950 . S
H933 C945 0.950 . S
H934 C942 0.950 . S
H935 C944 0.950 . S
H936 C946 0.950 . S
H937 C948 0.950 . S
H938 C950 0.950 . S
H939 C951 0.950 . S
C940 H932 0.950 . S
C940 C941 1.386 . S
C940 C942 1.391 . S
C941 C940 1.386 . S
C941 C945 1.393 . S
C942 H934 0.950 . S
C942 C940 1.391 . S
C942 C943 1.400 . S
C943 C942 1.400 . S
C943 C944 1.398 . S
C943 C949 1.491 . S
C944 H935 0.950 . S
C944 C943 1.398 . S
C944 C945 1.391 . S
C945 H933 0.950 . S
C945 C941 1.393 . S
C945 C944 1.391 . S
C946 H936 0.950 . S
C946 C947 1.386 . S
C946 C948 1.391 . S
C947 C946 1.386 . S
C947 C951 1.393 . S
C948 H937 0.950 . S
C948 C946 1.391 . S
C948 C949 1.400 . S
C949 C943 1.491 . S
C949 C948 1.400 . S
C949 C950 1.398 . S
C950 H938 0.950 . S
C950 C949 1.398 . S
C950 C951 1.391 . S
C951 H939 0.950 . S
C951 C947 1.393 . S
C951 C950 1.391 . S
H952 C960 0.950 . S
H953 C965 0.950 . S
H954 C962 0.950 . S
H955 C964 0.950 . S
H956 C966 0.950 . S
H957 C968 0.950 . S
H958 C970 0.950 . S
H959 C971 0.950 . S
C960 H952 0.950 . S
C960 C961 1.386 . S
C960 C962 1.391 . S
C961 C960 1.386 . S
C961 C965 1.393 . S
C962 H954 0.950 . S
C962 C960 1.391 . S
C962 C963 1.400 . S
C963 C962 1.400 . S
C963 C964 1.398 . S
C963 C969 1.491 . S
C964 H955 0.950 . S
C964 C963 1.398 . S
C964 C965 1.391 . S
C965 H953 0.950 . S
C965 C961 1.393 . S
C965 C964 1.391 . S
C966 H956 0.950 . S
C966 C967 1.386 . S
C966 C968 1.391 . S
C967 C966 1.386 . S
C967 C971 1.393 . S
C968 H957 0.950 . S
C968 C966 1.391 . S
C968 C969 1.400 . S
C969 C963 1.491 . S
C969 C968 1.400 . S
C969 C970 1.398 . S
C970 H958 0.950 . S
C970 C969 1.398 . S
C970 C971 1.391 . S
C971 H959 0.950 . S
C971 C967 1.393 . S
C971 C970 1.391 . S
H972 C980 0.950 . S
H973 C985 0.950 . S
H974 C982 0.950 . S
H975 C984 0.950 . S
H976 C986 0.950 . S
H977 C988 0.950 . S
H978 C990 0.950 . S
H979 C991 0.950 . S
C980 H972 0.950 . S
C980 C981 1.386 . S
C980 C982 1.391 . S
C981 C980 1.386 . S
C981 C985 1.393 . S
C982 H974 0.950 . S
C982 C980 1.391 . S
C982 C983 1.400 . S
C983 C982 1.400 . S
C983 C984 1.398 . S
C983 C989 1.491 . S
C984 H975 0.950 . S
C984 C983 1.398 . S
C984 C985 1.391 . S
C985 H973 0.950 . S
C985 C981 1.393 . S
C985 C984 1.391 . S
C986 H976 0.950 . S
C986 C987 1.386 . S
C986 C988 1.391 . S
C987 C986 1.386 . S
C987 C991 1.393 . S
C988 H977 0.950 . S
C988 C986 1.391 . S
C988 C989 1.400 . S
C989 C983 1.491 . S
C989 C988 1.400 . S
C989 C990 1.398 . S
C990 H978 0.950 . S
C990 C989 1.398 . S
C990 C991 1.391 . S
C991 H979 0.950 . S
C991 C987 1.393 . S
C991 C990 1.391 . S
H992 C1000 0.950 . S
H993 C1005 0.950 . S
H994 C1002 0.950 . S
H995 C1004 0.950 . S
H996 C1006 0.950 . S
H997 C1008 0.950 . S
H998 C1010 0.950 . S
H999 C1011 0.950 . S
C1000 H992 0.950 . S
C1000 C1001 1.386 . S
C1000 C1002 1.391 . S
C1001 C1000 1.386 . S
C1001 C1005 1.393 . S
C1002 H994 0.950 . S
C1002 C1000 1.391 . S
C1002 C1003 1.400 . S
C1003 C1002 1.400 . S
C1003 C1004 1.398 . S
C1003 C1009 1.491 . S
C1004 H995 0.950 . S
C1004 C1003 1.398 . S
C1004 C1005 1.391 . S
C1005 H993 0.950 . S
C1005 C1001 1.393 . S
C1005 C1004 1.391 . S
C1006 H996 0.950 . S
C1006 C1007 1.386 . S
C1006 C1008 1.391 . S
C1007 C1006 1.386 . S
C1007 C1011 1.393 . S
C1008 H997 0.950 . S
C1008 C1006 1.391 . S
C1008 C1009 1.400 . S
C1009 C1003 1.491 . S
C1009 C1008 1.400 . S
C1009 C1010 1.398 . S
C1010 H998 0.950 . S
C1010 C1009 1.398 . S
C1010 C1011 1.391 . S
C1011 H999 0.950 . S
C1011 C1007 1.393 . S
C1011 C1010 1.391 . S
H1012 C1020 0.950 . S
H1013 C1025 0.950 . S
H1014 C1022 0.950 . S
H1015 C1024 0.950 . S
H1016 C1026 0.950 . S
H1017 C1028 0.950 . S
H1018 C1030 0.950 . S
H1019 C1031 0.950 . S
C1020 H1012 0.950 . S
C1020 C1021 1.386 . S
C1020 C1022 1.391 . S
C1021 C1020 1.386 . S
C1021 C1025 1.393 . S
C1022 H1014 0.950 . S
C1022 C1020 1.391 . S
C1022 C1023 1.400 . S
C1023 C1022 1.400 . S
C1023 C1024 1.398 . S
C1023 C1029 1.491 . S
C1024 H1015 0.950 . S
C1024 C1023 1.398 . S
C1024 C1025 1.391 . S
C1025 H1013 0.950 . S
C1025 C1021 1.393 . S
C1025 C1024 1.391 . S
C1026 H1016 0.950 . S
C1026 C1027 1.386 . S
C1026 C1028 1.391 . S
C1027 C1026 1.386 . S
C1027 C1031 1.393 . S
C1028 H1017 0.950 . S
C1028 C1026 1.391 . S
C1028 C1029 1.400 . S
C1029 C1023 1.491 . S
C1029 C1028 1.400 . S
C1029 C1030 1.398 . S
C1030 H1018 0.950 . S
C1030 C1029 1.398 . S
C1030 C1031 1.391 . S
C1031 H1019 0.950 . S
C1031 C1027 1.393 . S
C1031 C1030 1.391 . S
H1032 C1040 0.950 . S
H1033 C1045 0.950 . S
H1034 C1042 0.950 . S
H1035 C1044 0.950 . S
H1036 C1046 0.950 . S
H1037 C1048 0.950 . S
H1038 C1050 0.950 . S
H1039 C1051 0.950 . S
C1040 H1032 0.950 . S
C1040 C1041 1.386 . S
C1040 C1042 1.391 . S
C1041 C1040 1.386 . S
C1041 C1045 1.393 . S
C1042 H1034 0.950 . S
C1042 C1040 1.391 . S
C1042 C1043 1.400 . S
C1043 C1042 1.400 . S
C1043 C1044 1.398 . S
C1043 C1049 1.491 . S
C1044 H1035 0.950 . S
C1044 C1043 1.398 . S
C1044 C1045 1.391 . S
C1045 H1033 0.950 . S
C1045 C1041 1.393 . S
C1045 C1044 1.391 . S
C1046 H1036 0.950 . S
C1046 C1047 1.386 . S
C1046 C1048 1.391 . S
C1047 C1046 1.386 . S
C1047 C1051 1.393 . S
C1048 H1037 0.950 . S
C1048 C1046 1.391 . S
C1048 C1049 1.400 . S
C1049 C1043 1.491 . S
C1049 C1048 1.400 . S
C1049 C1050 1.398 . S
C1050 H1038 0.950 . S
C1050 C1049 1.398 . S
C1050 C1051 1.391 . S
C1051 H1039 0.950 . S
C1051 C1047 1.393 . S
C1051 C1050 1.391 . S
H1052 C1060 0.950 . S
H1053 C1065 0.950 . S
H1054 C1062 0.950 . S
H1055 C1064 0.950 . S
H1056 C1066 0.950 . S
H1057 C1068 0.950 . S
H1058 C1070 0.950 . S
H1059 C1071 0.950 . S
C1060 H1052 0.950 . S
C1060 C1061 1.386 . S
C1060 C1062 1.391 . S
C1061 C1060 1.386 . S
C1061 C1065 1.393 . S
C1062 H1054 0.950 . S
C1062 C1060 1.391 . S
C1062 C1063 1.400 . S
C1063 C1062 1.400 . S
C1063 C1064 1.398 . S
C1063 C1069 1.491 . S
C1064 H1055 0.950 . S
C1064 C1063 1.398 . S
C1064 C1065 1.391 . S
C1065 H1053 0.950 . S
C1065 C1061 1.393 . S
C1065 C1064 1.391 . S
C1066 H1056 0.950 . S
C1066 C1067 1.386 . S
C1066 C1068 1.391 . S
C1067 C1066 1.386 . S
C1067 C1071 1.393 . S
C1068 H1057 0.950 . S
C1068 C1066 1.391 . S
C1068 C1069 1.400 . S
C1069 C1063 1.491 . S
C1069 C1068 1.400 . S
C1069 C1070 1.398 . S
C1070 H1058 0.950 . S
C1070 C1069 1.398 . S
C1070 C1071 1.391 . S
C1071 H1059 0.950 . S
C1071 C1067 1.393 . S
C1071 C1070 1.391 . S
H1072 C1080 0.950 . S
H1073 C1085 0.950 . S
H1074 C1082 0.950 . S
H1075 C1084 0.950 . S
H1076 C1086 0.950 . S
H1077 C1088 0.950 . S
H1078 C1090 0.950 . S
H1079 C1091 0.950 . S
C1080 H1072 0.950 . S
C1080 C1081 1.386 . S
C1080 C1082 1.391 . S
C1081 C1080 1.386 . S
C1081 C1085 1.393 . S
C1082 H1074 0.950 . S
C1082 C1080 1.391 . S
C1082 C1083 1.400 . S
C1083 C1082 1.400 . S
C1083 C1084 1.398 . S
C1083 C1089 1.491 . S
C1084 H1075 0.950 . S
C1084 C1083 1.398 . S
C1084 C1085 1.391 . S
C1085 H1073 0.950 . S
C1085 C1081 1.393 . S
C1085 C1084 1.391 . S
C1086 H1076 0.950 . S
C1086 C1087 1.386 . S
C1086 C1088 1.391 . S
C1087 C1086 1.386 . S
C1087 C1091 1.393 . S
C1088 H1077 0.950 . S
C1088 C1086 1.391 . S
C1088 C1089 1.400 . S
C1089 C1083 1.491 . S
C1089 C1088 1.400 . S
C1089 C1090 1.398 . S
C1090 H1078 0.950 . S
C1090 C1089 1.398 . S
C1090 C1091 1.391 . S
C1091 H1079 0.950 . S
C1091 C1087 1.393 . S
C1091 C1090 1.391 . S
H1092 C1100 0.950 . S
H1093 C1105 0.950 . S
H1094 C1102 0.950 . S
H1095 C1104 0.950 . S
H1096 C1106 0.950 . S
H1097 C1108 0.950 . S
H1098 C1110 0.950 . S
H1099 C1111 0.950 . S
C1100 H1092 0.950 . S
C1100 C1101 1.386 . S
C1100 C1102 1.391 . S
C1101 C1100 1.386 . S
C1101 C1105 1.393 . S
C1102 H1094 0.950 . S
C1102 C1100 1.391 . S
C1102 C1103 1.400 . S
C1103 C1102 1.400 . S
C1103 C1104 1.398 . S
C1103 C1109 1.491 . S
C1104 H1095 0.950 . S
C1104 C1103 1.398 . S
C1104 C1105 1.391 . S
C1105 H1093 0.950 . S
C1105 C1101 1.393 . S
C1105 C1104 1.391 . S
C1106 H1096 0.950 . S
C1106 C1107 1.386 . S
C1106 C1108 1.391 . S
C1107 C1106 1.386 . S
C1107 C1111 1.393 . S
C1108 H1097 0.950 . S
C1108 C1106 1.391 . S
C1108 C1109 1.400 . S
C1109 C1103 1.491 . S
C1109 C1108 1.400 . S
C1109 C1110 1.398 . S
C1110 H1098 0.950 . S
C1110 C1109 1.398 . S
C1110 C1111 1.391 . S
C1111 H1099 0.950 . S
C1111 C1107 1.393 . S
C1111 C1110 1.391 . S
H1112 C1120 0.950 . S
H1113 C1125 0.950 . S
H1114 C1122 0.950 . S
H1115 C1124 0.950 . S
H1116 C1126 0.950 . S
H1117 C1128 0.950 . S
H1118 C1130 0.950 . S
H1119 C1131 0.950 . S
C1120 H1112 0.950 . S
C1120 C1121 1.386 . S
C1120 C1122 1.391 . S
C1121 C1120 1.386 . S
C1121 C1125 1.393 . S
C1122 H1114 0.950 . S
C1122 C1120 1.391 . S
C1122 C1123 1.400 . S
C1123 C1122 1.400 . S
C1123 C1124 1.398 . S
C1123 C1129 1.491 . S
C1124 H1115 0.950 . S
C1124 C1123 1.398 . S
C1124 C1125 1.391 . S
C1125 H1113 0.950 . S
C1125 C1121 1.393 . S
C1125 C1124 1.391 . S
C1126 H1116 0.950 . S
C1126 C1127 1.386 . S
C1126 C1128 1.391 . S
C1127 C1126 1.386 . S
C1127 C1131 1.393 . S
C1128 H1117 0.950 . S
C1128 C1126 1.391 . S
C1128 C1129 1.400 . S
C1129 C1123 1.491 . S
C1129 C1128 1.400 . S
C1129 C1130 1.398 . S
C1130 H1118 0.950 . S
C1130 C1129 1.398 . S
C1130 C1131 1.391 . S
C1131 H1119 0.950 . S
C1131 C1127 1.393 . S
C1131 C1130 1.391 . S
H1132 C1140 0.950 . S
H1133 C1145 0.950 . S
H1134 C1142 0.950 . S
H1135 C1144 0.950 . S
H1136 C1146 0.950 . S
H1137 C1148 0.950 . S
H1138 C1150 0.950 . S
H1139 C1151 0.950 . S
C1140 H1132 0.950 . S
C1140 C1141 1.386 . S
C1140 C1142 1.391 . S
C1141 C1140 1.386 . S
C1141 C1145 1.393 . S
C1142 H1134 0.950 . S
C1142 C1140 1.391 . S
C1142 C1143 1.400 . S
C1143 C1142 1.400 . S
C1143 C1144 1.398 . S
C1143 C1149 1.491 . S
C1144 H1135 0.950 . S
C1144 C1143 1.398 . S
C1144 C1145 1.391 . S
C1145 H1133 0.950 . S
C1145 C1141 1.393 . S
C1145 C1144 1.391 . S
C1146 H1136 0.950 . S
C1146 C1147 1.386 . S
C1146 C1148 1.391 . S
C1147 C1146 1.386 . S
C1147 C1151 1.393 . S
C1148 H1137 0.950 . S
C1148 C1146 1.391 . S
C1148 C1149 1.400 . S
C1149 C1143 1.491 . S
C1149 C1148 1.400 . S
C1149 C1150 1.398 . S
C1150 H1138 0.950 . S
C1150 C1149 1.398 . S
C1150 C1151 1.391 . S
C1151 H1139 0.950 . S
C1151 C1147 1.393 . S
C1151 C1150 1.391 . S
H1152 C1160 0.950 . S
H1153 C1165 0.950 . S
H1154 C1162 0.950 . S
H1155 C1164 0.950 . S
H1156 C1166 0.950 . S
H1157 C1168 0.950 . S
H1158 C1170 0.950 . S
H1159 C1171 0.950 . S
C1160 H1152 0.950 . S
C1160 C1161 1.386 . S
C1160 C1162 1.391 . S
C1161 C1160 1.386 . S
C1161 C1165 1.393 . S
C1162 H1154 0.950 . S
C1162 C1160 1.391 . S
C1162 C1163 1.400 . S
C1163 C1162 1.400 . S
C1163 C1164 1.398 . S
C1163 C1169 1.491 . S
C1164 H1155 0.950 . S
C1164 C1163 1.398 . S
C1164 C1165 1.391 . S
C1165 H1153 0.950 . S
C1165 C1161 1.393 . S
C1165 C1164 1.391 . S
C1166 H1156 0.950 . S
C1166 C1167 1.386 . S
C1166 C1168 1.391 . S
C1167 C1166 1.386 . S
C1167 C1171 1.393 . S
C1168 H1157 0.950 . S
C1168 C1166 1.391 . S
C1168 C1169 1.400 . S
C1169 C1163 1.491 . S
C1169 C1168 1.400 . S
C1169 C1170 1.398 . S
C1170 H1158 0.950 . S
C1170 C1169 1.398 . S
C1170 C1171 1.391 . S
C1171 H1159 0.950 . S
C1171 C1167 1.393 . S
C1171 C1170 1.391 . S
H1172 C1180 0.950 . S
H1173 C1185 0.950 . S
H1174 C1182 0.950 . S
H1175 C1184 0.950 . S
H1176 C1186 0.950 . S
H1177 C1188 0.950 . S
H1178 C1190 0.950 . S
H1179 C1191 0.950 . S
C1180 H1172 0.950 . S
C1180 C1181 1.386 . S
C1180 C1182 1.391 . S
C1181 C1180 1.386 . S
C1181 C1185 1.393 . S
C1182 H1174 0.950 . S
C1182 C1180 1.391 . S
C1182 C1183 1.400 . S
C1183 C1182 1.400 . S
C1183 C1184 1.398 . S
C1183 C1189 1.491 . S
C1184 H1175 0.950 . S
C1184 C1183 1.398 . S
C1184 C1185 1.391 . S
C1185 H1173 0.950 . S
C1185 C1181 1.393 . S
C1185 C1184 1.391 . S
C1186 H1176 0.950 . S
C1186 C1187 1.386 . S
C1186 C1188 1.391 . S
C1187 C1186 1.386 . S
C1187 C1191 1.393 . S
C1188 H1177 0.950 . S
C1188 C1186 1.391 . S
C1188 C1189 1.400 . S
C1189 C1183 1.491 . S
C1189 C1188 1.400 . S
C1189 C1190 1.398 . S
C1190 H1178 0.950 . S
C1190 C1189 1.398 . S
C1190 C1191 1.391 . S
C1191 H1179 0.950 . S
C1191 C1187 1.393 . S
C1191 C1190 1.391 . S
H1192 C1200 0.950 . S
H1193 C1205 0.950 . S
H1194 C1202 0.950 . S
H1195 C1204 0.950 . S
H1196 C1206 0.950 . S
H1197 C1208 0.950 . S
H1198 C1210 0.950 . S
H1199 C1211 0.950 . S
C1200 H1192 0.950 . S
C1200 C1201 1.386 . S
C1200 C1202 1.391 . S
C1201 C1200 1.386 . S
C1201 C1205 1.393 . S
C1202 H1194 0.950 . S
C1202 C1200 1.391 . S
C1202 C1203 1.400 . S
C1203 C1202 1.400 . S
C1203 C1204 1.398 . S
C1203 C1209 1.491 . S
C1204 H1195 0.950 . S
C1204 C1203 1.398 . S
C1204 C1205 1.391 . S
C1205 H1193 0.950 . S
C1205 C1201 1.393 . S
C1205 C1204 1.391 . S
C1206 H1196 0.950 . S
C1206 C1207 1.386 . S
C1206 C1208 1.391 . S
C1207 C1206 1.386 . S
C1207 C1211 1.393 . S
C1208 H1197 0.950 . S
C1208 C1206 1.391 . S
C1208 C1209 1.400 . S
C1209 C1203 1.491 . S
C1209 C1208 1.400 . S
C1209 C1210 1.398 . S
C1210 H1198 0.950 . S
C1210 C1209 1.398 . S
C1210 C1211 1.391 . S
C1211 H1199 0.950 . S
C1211 C1207 1.393 . S
C1211 C1210 1.391 . S
H1212 C1220 0.950 . S
H1213 C1225 0.950 . S
H1214 C1222 0.950 . S
H1215 C1224 0.950 . S
H1216 C1226 0.950 . S
H1217 C1228 0.950 . S
H1218 C1230 0.950 . S
H1219 C1231 0.950 . S
C1220 H1212 0.950 . S
C1220 C1221 1.386 . S
C1220 C1222 1.391 . S
C1221 C1220 1.386 . S
C1221 C1225 1.393 . S
C1222 H1214 0.950 . S
C1222 C1220 1.391 . S
C1222 C1223 1.400 . S
C1223 C1222 1.400 . S
C1223 C1224 1.398 . S
C1223 C1229 1.491 . S
C1224 H1215 0.950 . S
C1224 C1223 1.398 . S
C1224 C1225 1.391 . S
C1225 H1213 0.950 . S
C1225 C1221 1.393 . S
C1225 C1224 1.391 . S
C1226 H1216 0.950 . S
C1226 C1227 1.386 . S
C1226 C1228 1.391 . S
C1227 C1226 1.386 . S
C1227 C1231 1.393 . S
C1228 H1217 0.950 . S
C1228 C1226 1.391 . S
C1228 C1229 1.400 . S
C1229 C1223 1.491 . S
C1229 C1228 1.400 . S
C1229 C1230 1.398 . S
C1230 H1218 0.950 . S
C1230 C1229 1.398 . S
C1230 C1231 1.391 . S
C1231 H1219 0.950 . S
C1231 C1227 1.393 . S
C1231 C1230 1.391 . S
H1232 C1240 0.950 . S
H1233 C1245 0.950 . S
H1234 C1242 0.950 . S
H1235 C1244 0.950 . S
H1236 C1246 0.950 . S
H1237 C1248 0.950 . S
H1238 C1250 0.950 . S
H1239 C1251 0.950 . S
C1240 H1232 0.950 . S
C1240 C1241 1.386 . S
C1240 C1242 1.391 . S
C1241 C1240 1.386 . S
C1241 C1245 1.393 . S
C1242 H1234 0.950 . S
C1242 C1240 1.391 . S
C1242 C1243 1.400 . S
C1243 C1242 1.400 . S
C1243 C1244 1.398 . S
C1243 C1249 1.491 . S
C1244 H1235 0.950 . S
C1244 C1243 1.398 . S
C1244 C1245 1.391 . S
C1245 H1233 0.950 . S
C1245 C1241 1.393 . S
C1245 C1244 1.391 . S
C1246 H1236 0.950 . S
C1246 C1247 1.386 . S
C1246 C1248 1.391 . S
C1247 C1246 1.386 . S
C1247 C1251 1.393 . S
C1248 H1237 0.950 . S
C1248 C1246 1.391 . S
C1248 C1249 1.400 . S
C1249 C1243 1.491 . S
C1249 C1248 1.400 . S
C1249 C1250 1.398 . S
C1250 H1238 0.950 . S
C1250 C1249 1.398 . S
C1250 C1251 1.391 . S
C1251 H1239 0.950 . S
C1251 C1247 1.393 . S
C1251 C1250 1.391 . S
H1252 C1260 0.950 . S
H1253 C1265 0.950 . S
H1254 C1262 0.950 . S
H1255 C1264 0.950 . S
H1256 C1266 0.950 . S
H1257 C1268 0.950 . S
H1258 C1270 0.950 . S
H1259 C1271 0.950 . S
C1260 H1252 0.950 . S
C1260 C1261 1.386 . S
C1260 C1262 1.391 . S
C1261 C1260 1.386 . S
C1261 C1265 1.393 . S
C1262 H1254 0.950 . S
C1262 C1260 1.391 . S
C1262 C1263 1.400 . S
C1263 C1262 1.400 . S
C1263 C1264 1.398 . S
C1263 C1269 1.491 . S
C1264 H1255 0.950 . S
C1264 C1263 1.398 . S
C1264 C1265 1.391 . S
C1265 H1253 0.950 . S
C1265 C1261 1.393 . S
C1265 C1264 1.391 . S
C1266 H1256 0.950 . S
C1266 C1267 1.386 . S
C1266 C1268 1.391 . S
C1267 C1266 1.386 . S
C1267 C1271 1.393 . S
C1268 H1257 0.950 . S
C1268 C1266 1.391 . S
C1268 C1269 1.400 . S
C1269 C1263 1.491 . S
C1269 C1268 1.400 . S
C1269 C1270 1.398 . S
C1270 H1258 0.950 . S
C1270 C1269 1.398 . S
C1270 C1271 1.391 . S
C1271 H1259 0.950 . S
C1271 C1267 1.393 . S
C1271 C1270 1.391 . S
H1272 C1280 0.950 . S
H1273 C1285 0.950 . S
H1274 C1282 0.950 . S
H1275 C1284 0.950 . S
H1276 C1286 0.950 . S
H1277 C1288 0.950 . S
H1278 C1290 0.950 . S
H1279 C1291 0.950 . S
C1280 H1272 0.950 . S
C1280 C1281 1.386 . S
C1280 C1282 1.391 . S
C1281 C1280 1.386 . S
C1281 C1285 1.393 . S
C1282 H1274 0.950 . S
C1282 C1280 1.391 . S
C1282 C1283 1.400 . S
C1283 C1282 1.400 . S
C1283 C1284 1.398 . S
C1283 C1289 1.491 . S
C1284 H1275 0.950 . S
C1284 C1283 1.398 . S
C1284 C1285 1.391 . S
C1285 H1273 0.950 . S
C1285 C1281 1.393 . S
C1285 C1284 1.391 . S
C1286 H1276 0.950 . S
C1286 C1287 1.386 . S
C1286 C1288 1.391 . S
C1287 C1286 1.386 . S
C1287 C1291 1.393 . S
C1288 H1277 0.950 . S
C1288 C1286 1.391 . S
C1288 C1289 1.400 . S
C1289 C1283 1.491 . S
C1289 C1288 1.400 . S
C1289 C1290 1.398 . S
C1290 H1278 0.950 . S
C1290 C1289 1.398 . S
C1290 C1291 1.391 . S
C1291 H1279 0.950 . S
C1291 C1287 1.393 . S
C1291 C1290 1.391 . S
H1292 C1300 0.950 . S
H1293 C1305 0.950 . S
H1294 C1302 0.950 . S
H1295 C1304 0.950 . S
H1296 C1306 0.950 . S
H1297 C1308 0.950 . S
H1298 C1310 0.950 . S
H1299 C1311 0.950 . S
C1300 H1292 0.950 . S
C1300 C1301 1.386 . S
C1300 C1302 1.391 . S
C1301 C1300 1.386 . S
C1301 C1305 1.393 . S
C1302 H1294 0.950 . S
C1302 C1300 1.391 . S
C1302 C1303 1.400 . S
C1303 C1302 1.400 . S
C1303 C1304 1.398 . S
C1303 C1309 1.491 . S
C1304 H1295 0.950 . S
C1304 C1303 1.398 . S
C1304 C1305 1.391 . S
C1305 H1293 0.950 . S
C1305 C1301 1.393 . S
C1305 C1304 1.391 . S
C1306 H1296 0.950 . S
C1306 C1307 1.386 . S
C1306 C1308 1.391 . S
C1307 C1306 1.386 . S
C1307 C1311 1.393 . S
C1308 H1297 0.950 . S
C1308 C1306 1.391 . S
C1308 C1309 1.400 . S
C1309 C1303 1.491 . S
C1309 C1308 1.400 . S
C1309 C1310 1.398 . S
C1310 H1298 0.950 . S
C1310 C1309 1.398 . S
C1310 C1311 1.391 . S
C1311 H1299 0.950 . S
C1311 C1307 1.393 . S
C1311 C1310 1.391 . S
H1312 C1320 0.950 . S
H1313 C1325 0.950 . S
H1314 C1322 0.950 . S
H1315 C1324 0.950 . S
H1316 C1326 0.950 . S
H1317 C1328 0.950 . S
H1318 C1330 0.950 . S
H1319 C1331 0.950 . S
C1320 H1312 0.950 . S
C1320 C1321 1.386 . S
C1320 C1322 1.391 . S
C1321 C1320 1.386 . S
C1321 C1325 1.393 . S
C1322 H1314 0.950 . S
C1322 C1320 1.391 . S
C1322 C1323 1.400 . S
C1323 C1322 1.400 . S
C1323 C1324 1.398 . S
C1323 C1329 1.491 . S
C1324 H1315 0.950 . S
C1324 C1323 1.398 . S
C1324 C1325 1.391 . S
C1325 H1313 0.950 . S
C1325 C1321 1.393 . S
C1325 C1324 1.391 . S
C1326 H1316 0.950 . S
C1326 C1327 1.386 . S
C1326 C1328 1.391 . S
C1327 C1326 1.386 . S
C1327 C1331 1.393 . S
C1328 H1317 0.950 . S
C1328 C1326 1.391 . S
C1328 C1329 1.400 . S
C1329 C1323 1.491 . S
C1329 C1328 1.400 . S
C1329 C1330 1.398 . S
C1330 H1318 0.950 . S
C1330 C1329 1.398 . S
C1330 C1331 1.391 . S
C1331 H1319 0.950 . S
C1331 C1327 1.393 . S
C1331 C1330 1.391 . S
H1332 C1340 0.950 . S
H1333 C1345 0.950 . S
H1334 C1342 0.950 . S
H1335 C1344 0.950 . S
H1336 C1346 0.950 . S
H1337 C1348 0.950 . S
H1338 C1350 0.950 . S
H1339 C1351 0.950 . S
C1340 H1332 0.950 . S
C1340 C1341 1.386 . S
C1340 C1342 1.391 . S
C1341 C1340 1.386 . S
C1341 C1345 1.393 . S
C1342 H1334 0.950 . S
C1342 C1340 1.391 . S
C1342 C1343 1.400 . S
C1343 C1342 1.400 . S
C1343 C1344 1.398 . S
C1343 C1349 1.491 . S
C1344 H1335 0.950 . S
C1344 C1343 1.398 . S
C1344 C1345 1.391 . S
C1345 H1333 0.950 . S
C1345 C1341 1.393 . S
C1345 C1344 1.391 . S
C1346 H1336 0.950 . S
C1346 C1347 1.386 . S
C1346 C1348 1.391 . S
C1347 C1346 1.386 . S
C1347 C1351 1.393 . S
C1348 H1337 0.950 . S
C1348 C1346 1.391 . S
C1348 C1349 1.400 . S
C1349 C1343 1.491 . S
C1349 C1348 1.400 . S
C1349 C1350 1.398 . S
C1350 H1338 0.950 . S
C1350 C1349 1.398 . S
C1350 C1351 1.391 . S
C1351 H1339 0.950 . S
C1351 C1347 1.393 . S
C1351 C1350 1.391 . S
H1352 C1360 0.950 . S
H1353 C1365 0.950 . S
H1354 C1362 0.950 . S
H1355 C1364 0.950 . S
H1356 C1366 0.950 . S
H1357 C1368 0.950 . S
H1358 C1370 0.950 . S
H1359 C1371 0.950 . S
C1360 H1352 0.950 . S
C1360 C1361 1.386 . S
C1360 C1362 1.391 . S
C1361 C1360 1.386 . S
C1361 C1365 1.393 . S
C1362 H1354 0.950 . S
C1362 C1360 1.391 . S
C1362 C1363 1.400 . S
C1363 C1362 1.400 . S
C1363 C1364 1.398 . S
C1363 C1369 1.491 . S
C1364 H1355 0.950 . S
C1364 C1363 1.398 . S
C1364 C1365 1.391 . S
C1365 H1353 0.950 . S
C1365 C1361 1.393 . S
C1365 C1364 1.391 . S
C1366 H1356 0.950 . S
C1366 C1367 1.386 . S
C1366 C1368 1.391 . S
C1367 C1366 1.386 . S
C1367 C1371 1.393 . S
C1368 H1357 0.950 . S
C1368 C1366 1.391 . S
C1368 C1369 1.400 . S
C1369 C1363 1.491 . S
C1369 C1368 1.400 . S
C1369 C1370 1.398 . S
C1370 H1358 0.950 . S
C1370 C1369 1.398 . S
C1370 C1371 1.391 . S
C1371 H1359 0.950 . S
C1371 C1367 1.393 . S
C1371 C1370 1.391 . S
H1372 C1380 0.950 . S
H1373 C1385 0.950 . S
H1374 C1382 0.950 . S
H1375 C1384 0.950 . S
H1376 C1386 0.950 . S
H1377 C1388 0.950 . S
H1378 C1390 0.950 . S
H1379 C1391 0.950 . S
C1380 H1372 0.950 . S
C1380 C1381 1.386 . S
C1380 C1382 1.391 . S
C1381 C1380 1.386 . S
C1381 C1385 1.393 . S
C1382 H1374 0.950 . S
C1382 C1380 1.391 . S
C1382 C1383 1.400 . S
C1383 C1382 1.400 . S
C1383 C1384 1.398 . S
C1383 C1389 1.491 . S
C1384 H1375 0.950 . S
C1384 C1383 1.398 . S
C1384 C1385 1.391 . S
C1385 H1373 0.950 . S
C1385 C1381 1.393 . S
C1385 C1384 1.391 . S
C1386 H1376 0.950 . S
C1386 C1387 1.386 . S
C1386 C1388 1.391 . S
C1387 C1386 1.386 . S
C1387 C1391 1.393 . S
C1388 H1377 0.950 . S
C1388 C1386 1.391 . S
C1388 C1389 1.400 . S
C1389 C1383 1.491 . S
C1389 C1388 1.400 . S
C1389 C1390 1.398 . S
C1390 H1378 0.950 . S
C1390 C1389 1.398 . S
C1390 C1391 1.391 . S
C1391 H1379 0.950 . S
C1391 C1387 1.393 . S
C1391 C1390 1.391 . S
H1392 C1400 0.950 . S
H1393 C1405 0.950 . S
H1394 C1402 0.950 . S
H1395 C1404 0.950 . S
H1396 C1406 0.950 . S
H1397 C1408 0.950 . S
H1398 C1410 0.950 . S
H1399 C1411 0.950 . S
C1400 H1392 0.950 . S
C1400 C1401 1.386 . S
C1400 C1402 1.391 . S
C1401 C1400 1.386 . S
C1401 C1405 1.393 . S
C1402 H1394 0.950 . S
C1402 C1400 1.391 . S
C1402 C1403 1.400 . S
C1403 C1402 1.400 . S
C1403 C1404 1.398 . S
C1403 C1409 1.491 . S
C1404 H1395 0.950 . S
C1404 C1403 1.398 . S
C1404 C1405 1.391 . S
C1405 H1393 0.950 . S
C1405 C1401 1.393 . S
C1405 C1404 1.391 . S
C1406 H1396 0.950 . S
C1406 C1407 1.386 . S
C1406 C1408 1.391 . S
C1407 C1406 1.386 . S
C1407 C1411 1.393 . S
C1408 H1397 0.950 . S
C1408 C1406 1.391 . S
C1408 C1409 1.400 . S
C1409 C1403 1.491 . S
C1409 C1408 1.400 . S
C1409 C1410 1.398 . S
C1410 H1398 0.950 . S
C1410 C1409 1.398 . S
C1410 C1411 1.391 . S
C1411 H1399 0.950 . S
C1411 C1407 1.393 . S
C1411 C1410 1.391 . S
H1412 C1420 0.950 . S
H1413 C1425 0.950 . S
H1414 C1422 0.950 . S
H1415 C1424 0.950 . S
H1416 C1426 0.950 . S
H1417 C1428 0.950 . S
H1418 C1430 0.950 . S
H1419 C1431 0.950 . S
C1420 H1412 0.950 . S
C1420 C1421 1.386 . S
C1420 C1422 1.391 . S
C1421 C1420 1.386 . S
C1421 C1425 1.393 . S
C1422 H1414 0.950 . S
C1422 C1420 1.391 . S
C1422 C1423 1.400 . S
C1423 C1422 1.400 . S
C1423 C1424 1.398 . S
C1423 C1429 1.491 . S
C1424 H1415 0.950 . S
C1424 C1423 1.398 . S
C1424 C1425 1.391 . S
C1425 H1413 0.950 . S
C1425 C1421 1.393 . S
C1425 C1424 1.391 . S
C1426 H1416 0.950 . S
C1426 C1427 1.386 . S
C1426 C1428 1.391 . S
C1427 C1426 1.386 . S
C1427 C1431 1.393 . S
C1428 H1417 0.950 . S
C1428 C1426 1.391 . S
C1428 C1429 1.400 . S
C1429 C1423 1.491 . S
C1429 C1428 1.400 . S
C1429 C1430 1.398 . S
C1430 H1418 0.950 . S
C1430 C1429 1.398 . S
C1430 C1431 1.391 . S
C1431 H1419 0.950 . S
C1431 C1427 1.393 . S
C1431 C1430 1.391 . S
C807 C397 1.463 . S
C801 C15 1.468 . S
C827 C450 1.302 . S
C821 C68 1.305 . S
C847 C513 1.540 . S
C841 C107 1.540 . S
C867 C556 1.245 . S
C861 C160 1.245 . S
C881 C185 1.539 . S
C887 C512 1.539 . S
C907 C549 1.317 . S
C901 C252 1.315 . S
C927 C390 1.463 . S
C921 C277 1.461 . S
C947 C443 1.233 . S
C941 C330 1.234 . S
C967 C496 1.475 . S
C961 C323 1.470 . S
C987 C565 1.795 . S
C981 C192 1.797 . S
C1007 C406 1.557 . S
C1001 C245 1.557 . S
C1027 C459 1.734 . S
C1021 C284 1.732 . S
C1047 C407 1.543 . S
C1041 C61 1.540 . S
C1067 C460 1.802 . S
C1061 C114 1.803 . S
C1087 C503 1.484 . S
C1081 C153 1.481 . S
C1107 C566 1.720 . S
C1101 C22 1.719 . S
C1127 C609 1.433 . S
C1121 C337 1.436 . S
C1141 C206 1.668 . S
C1147 C662 1.669 . S
C1161 C231 1.578 . S
C1167 C724 1.576 . S
C1181 C298 1.676 . S
C1187 C778 1.680 . S
C1201 C47 1.504 . S
C1207 C725 1.504 . S
C1221 C100 1.756 . S
C1227 C777 1.756 . S
C1241 C139 1.502 . S
C1247 C602 1.504 . S
C1267 C655 1.603 . S
C1261 C8 1.603 . S
C1287 C715 1.456 . S
C1281 C1 1.453 . S
C1301 C54 1.360 . S
C1307 C761 1.360 . S
C1321 C93 1.586 . S
C1327 C618 1.585 . S
C1341 C146 1.318 . S
C1347 C671 1.317 . S
C1367 C619 1.521 . S
C1361 C199 1.521 . S
C1387 C672 1.397 . S
C1381 C238 1.399 . S
C1401 C291 1.507 . S
C1407 C708 1.511 . S
C1427 C768 1.286 . S
C1421 C344 1.285 . S
