# Generated by pormake.
# Topology anh, (6,3)-cn, num edge types: 1
# Building blocks:
#     Node 0, Type 0, BuildingBlock: HISSIN_clean_sbu_0, # of connection points: 6
#     Node 1, Type 0, BuildingBlock: HISSIN_clean_sbu_0, # of connection points: 6
#     Node 2, Type 0, BuildingBlock: HISSIN_clean_sbu_0, # of connection points: 6
#     Node 3, Type 1, BuildingBlock: MIDCAF_clean_linker_0, # of connection points: 3
#     Node 4, Type 1, BuildingBlock: MIDCAF_clean_linker_0, # of connection points: 3
#     Node 5, Type 1, BuildingBlock: MIDCAF_clean_linker_0, # of connection points: 3
#     Node 6, Type 1, BuildingBlock: MIDCAF_clean_linker_0, # of connection points: 3
#     Node 7, Type 1, BuildingBlock: MIDCAF_clean_linker_0, # of connection points: 3
#     Node 8, Type 1, BuildingBlock: MIDCAF_clean_linker_0, # of connection points: 3
#     Edge 9, Type (0, 1), BuildingBlock: XIVTED_clean_linker_0, # of connection points: 2
#     Edge 10, Type (0, 1), BuildingBlock: XIVTED_clean_linker_0, # of connection points: 2
#     Edge 11, Type (0, 1), BuildingBlock: XIVTED_clean_linker_0, # of connection points: 2
#     Edge 12, Type (0, 1), BuildingBlock: XIVTED_clean_linker_0, # of connection points: 2
#     Edge 13, Type (0, 1), BuildingBlock: XIVTED_clean_linker_0, # of connection points: 2
#     Edge 14, Type (0, 1), BuildingBlock: XIVTED_clean_linker_0, # of connection points: 2
#     Edge 15, Type (0, 1), BuildingBlock: XIVTED_clean_linker_0, # of connection points: 2
#     Edge 16, Type (0, 1), BuildingBlock: XIVTED_clean_linker_0, # of connection points: 2
#     Edge 17, Type (0, 1), BuildingBlock: XIVTED_clean_linker_0, # of connection points: 2
#     Edge 18, Type (0, 1), BuildingBlock: XIVTED_clean_linker_0, # of connection points: 2
#     Edge 19, Type (0, 1), BuildingBlock: XIVTED_clean_linker_0, # of connection points: 2
#     Edge 20, Type (0, 1), BuildingBlock: XIVTED_clean_linker_0, # of connection points: 2
#     Edge 21, Type (0, 1), BuildingBlock: XIVTED_clean_linker_0, # of connection points: 2
#     Edge 22, Type (0, 1), BuildingBlock: XIVTED_clean_linker_0, # of connection points: 2
#     Edge 23, Type (0, 1), BuildingBlock: XIVTED_clean_linker_0, # of connection points: 2
#     Edge 24, Type (0, 1), BuildingBlock: XIVTED_clean_linker_0, # of connection points: 2
#     Edge 25, Type (0, 1), BuildingBlock: XIVTED_clean_linker_0, # of connection points: 2
#     Edge 26, Type (0, 1), BuildingBlock: XIVTED_clean_linker_0, # of connection points: 2
# Relax obj value: 0.238
# Max RMSD: 0.188
# Mean RMSD: 0.155
data_MOF--net-anh--node1-HISSIN_clean_sbu_0--node2-MIDCAF_clean_linker_0--edge1-XIVTED_clean_linker_0
_symmetry_space_group_name_H-M    P1
_symmetry_Int_Tables_number       1
_symmetry_cell_setting            triclinic
loop_
_symmetry_equiv_pos_as_xyz
'x, y, z'
_cell_length_a     36.836193
_cell_length_b     36.944596
_cell_length_c     66.230559
_cell_angle_alpha  92.019321
_cell_angle_beta   90.326223
_cell_angle_gamma 120.11383
loop_
_atom_site_label
_atom_site_type_symbol
_atom_site_fract_x
_atom_site_fract_y
_atom_site_fract_z
_atom_type_partial_charge
Eu0 Eu 1.05826 0.51014 0.17147 0.0
Eu1 Eu 0.11178 0.61012 0.17928 0.0
C2 C 1.07853 0.55069 0.21657 0.0
C3 C 0.96734 0.41309 0.1523 0.0
C4 C 0.9368 0.37121 0.15465 0.0
C5 C 0.9147 0.42584 0.13726 0.0
C6 C 0.89509 0.35693 0.14876 0.0
C7 C 0.95629 0.43992 0.14297 0.0
C8 C 0.88349 0.38461 0.14072 0.0
C9 C 1.00874 0.43114 0.1623 0.0
O10 O 0.16209 0.59085 0.1811 0.0
O11 O 0.12541 0.52302 0.16819 0.0
C12 C 0.16122 0.55643 0.17412 0.0
O13 O 1.05905 0.54036 0.14222 0.0
O14 O 0.15624 0.66521 0.19755 0.0
O15 O 0.13027 0.67266 0.16956 0.0
O16 O 0.1238 0.59646 0.14776 0.0
C17 C 0.09321 0.57154 0.13528 0.0
O18 O 1.00774 0.52791 0.17625 0.0
O19 O 1.04577 0.59824 0.17116 0.0
O20 O 1.08204 0.5844 0.2088 0.0
O21 O 1.04047 0.45545 0.15133 0.0
O22 O 1.01107 0.44784 0.18031 0.0
O23 O 1.07713 0.52053 0.20482 0.0
C24 C 0.20334 0.71625 0.17597 0.0
C25 C 0.21079 0.72161 0.15514 0.0
C26 C 0.27837 0.74841 0.18246 0.0
C27 C 0.25163 0.73965 0.14806 0.0
C28 C 0.23767 0.7308 0.18956 0.0
C29 C 0.28565 0.75228 0.16163 0.0
C30 C 0.16032 0.69058 0.18334 0.0
C31 C 1.00921 0.56357 0.1729 0.0
H32 H 0.94472 0.35028 0.16204 0.0
H33 H 0.90662 0.44774 0.13108 0.0
H34 H 0.87152 0.3251 0.15185 0.0
H35 H 0.97941 0.47253 0.14117 0.0
H36 H 0.18505 0.71066 0.14421 0.0
H37 H 0.30422 0.75899 0.19329 0.0
H38 H 0.2565 0.74268 0.13195 0.0
H39 H 0.23292 0.72722 0.20566 0.0
Eu40 Eu 0.59691 1.02683 0.50847 0.0
Eu41 Eu 0.54688 0.07791 0.51189 0.0
C42 C 0.57458 1.05112 0.5518 0.0
C43 C 0.62619 0.94499 0.49458 0.0
C44 C 0.5849 0.91592 0.48813 0.0
C45 C 0.64858 0.89641 0.48349 0.0
C46 C 0.57526 0.87665 0.47992 0.0
C47 C 0.65809 0.93549 0.49177 0.0
C48 C 0.6069 0.86617 0.47794 0.0
C49 C 0.63615 0.98488 0.50463 0.0
O50 O 0.61604 0.1297 0.5155 0.0
O51 O 0.64813 0.09421 0.50347 0.0
C52 C 0.64985 0.1297 0.50896 0.0
O53 O 0.56822 1.02111 0.47767 0.0
O54 O 0.53464 0.12392 0.52712 0.0
O55 O 0.50265 0.09395 0.49861 0.0
O56 O 0.57187 0.08412 0.48059 0.0
C57 C 0.56931 1.05315 0.46933 0.0
O58 O 0.52867 0.97437 0.51039 0.0
O59 O 0.49329 1.01022 0.50598 0.0
O60 O 0.544 1.05354 0.5429 0.0
O61 O 0.64146 1.01434 0.49268 0.0
O62 O 0.61346 0.98251 0.52014 0.0
O63 O 0.60394 1.04989 0.54114 0.0
C64 C 0.53438 0.16731 0.50248 0.0
C65 C 0.56045 0.17456 0.48587 0.0
C66 C 0.56432 0.24235 0.50781 0.0
C67 C 0.58953 0.21523 0.48089 0.0
C68 C 0.53537 0.20144 0.51294 0.0
C69 C 0.59291 0.24943 0.49234 0.0
C70 C 0.51437 0.12592 0.51135 0.0
C71 C 0.49327 0.97458 0.50743 0.0
H72 H 0.55999 0.92317 0.48998 0.0
H73 H 0.67359 0.88913 0.48254 0.0
H74 H 0.54296 0.85407 0.47571 0.0
H75 H 0.69013 0.95778 0.49657 0.0
H76 H 0.56067 0.14889 0.47765 0.0
H77 H 0.56662 0.26832 0.51698 0.0
H78 H 0.61109 0.21992 0.46886 0.0
H79 H 0.51605 0.19658 0.52598 0.0
Eu80 Eu 0.54321 0.52458 0.8377 0.0
Eu81 Eu 0.6426 0.57394 0.8457 0.0
C82 C 0.58248 0.54765 0.88258 0.0
C83 C 0.4437 0.51955 0.82724 0.0
C84 C 0.46281 0.55302 0.81413 0.0
C85 C 0.4072 0.55206 0.84284 0.0
C86 C 0.45565 0.58668 0.81608 0.0
C87 C 0.41382 0.51813 0.84069 0.0
C88 C 0.42991 0.58754 0.83134 0.0
C89 C 0.46344 0.49426 0.83121 0.0
O90 O 0.62391 0.50455 0.84764 0.0
O91 O 0.55754 0.4715 0.83321 0.0
C92 C 0.59072 0.47023 0.83991 0.0
O93 O 0.57354 0.55175 0.80811 0.0
O94 O 0.69783 0.58561 0.86339 0.0
O95 O 0.70503 0.62051 0.83656 0.0
O96 O 0.63104 0.54644 0.81423 0.0
C97 C 0.6061 0.55004 0.80149 0.0
O98 O 0.55913 0.59245 0.84358 0.0
O99 O 0.62932 0.62621 0.83739 0.0
O100 O 0.6151 0.57948 0.87501 0.0
O101 O 0.48796 0.49306 0.81737 0.0
O102 O 0.48047 0.50115 0.84929 0.0
O103 O 0.55503 0.51678 0.87057 0.0
C104 C 0.7515 0.59467 0.84131 0.0
C105 C 0.75775 0.59397 0.82036 0.0
C106 C 0.79137 0.55952 0.84621 0.0
C107 C 0.78053 0.57612 0.81244 0.0
C108 C 0.76899 0.57771 0.85415 0.0
C109 C 0.79709 0.55828 0.82528 0.0
C110 C 0.72344 0.60889 0.84964 0.0
C111 C 0.59422 0.62715 0.83983 0.0
H112 H 0.48636 0.55525 0.80372 0.0
H113 H 0.38664 0.55191 0.85451 0.0
H114 H 0.47338 0.61371 0.80704 0.0
H115 H 0.39893 0.49287 0.85101 0.0
H116 H 0.74447 0.60653 0.80998 0.0
H117 H 0.80478 0.54697 0.85652 0.0
H118 H 0.78478 0.57581 0.79628 0.0
H119 H 0.76468 0.57781 0.87032 0.0
C120 C 0.55081 0.9551 0.20169 0.0
C121 C 0.55508 0.96067 0.18072 0.0
C122 C 0.57609 1.00168 0.17386 0.0
C123 C 0.58811 1.03586 0.18739 0.0
H124 H 0.54735 0.13264 0.19294 0.0
H125 H 0.56887 0.19242 0.17182 0.0
H126 H 0.66489 0.2712 0.2166 0.0
H127 H 0.64161 0.21185 0.23802 0.0
H128 H 0.60816 0.15463 0.28423 0.0
H129 H 0.60673 0.14746 0.32068 0.0
H130 H 0.56711 1.01623 0.31151 0.0
H131 H 0.56979 1.02362 0.27521 0.0
H132 H 0.55704 0.98359 0.23111 0.0
H133 H 0.5345 0.92411 0.20764 0.0
H134 H 0.58086 1.00722 0.15789 0.0
H135 H 0.60197 0.06687 0.18149 0.0
N136 N 0.58652 0.09864 0.21388 0.0
N137 N 0.59146 0.12804 0.24647 0.0
N138 N 0.58587 0.06201 0.24208 0.0
C139 C 0.58952 0.13028 0.2261 0.0
C140 C 0.58915 0.09359 0.25457 0.0
C141 C 0.58509 0.06461 0.22172 0.0
C142 C 0.59366 0.16768 0.21679 0.0
C143 C 0.57198 0.16321 0.19854 0.0
C144 C 0.5844 0.19743 0.18644 0.0
C145 C 0.61961 0.23635 0.19211 0.0
C146 C 0.63769 0.2418 0.21162 0.0
C147 C 0.62458 0.20768 0.22393 0.0
C148 C 0.58909 0.08973 0.27675 0.0
C149 C 0.59926 0.12428 0.28999 0.0
C150 C 0.59823 0.1201 0.3109 0.0
C151 C 0.5867 0.08122 0.31905 0.0
C152 C 0.57679 1.04679 0.3058 0.0
C153 C 0.57811 1.05102 0.28492 0.0
C154 C 0.57997 1.02976 0.20809 0.0
C155 C 0.56333 0.98931 0.21523 0.0
C156 C 0.79114 0.51828 0.55497 0.0
C157 C 0.80121 0.52649 0.53453 0.0
C158 C 0.81387 0.56671 0.5279 0.0
C159 C 0.80893 0.5952 0.54027 0.0
H160 H 0.71925 0.61841 0.52099 0.0
H161 H 0.67941 0.63366 0.49681 0.0
H162 H 0.63253 0.67783 0.54579 0.0
H163 H 0.67137 0.66144 0.57006 0.0
H164 H 0.68807 0.64417 0.61515 0.0
H165 H 0.66583 0.63421 0.64999 0.0
H166 H 0.72811 0.56304 0.65898 0.0
H167 H 0.75135 0.5739 0.62429 0.0
H168 H 0.77361 0.53762 0.58224 0.0
H169 H 0.78145 0.48768 0.56063 0.0
H170 H 0.82276 0.57427 0.51238 0.0
H171 H 0.81417 0.62406 0.53395 0.0
N172 N 0.74996 0.61736 0.55543 0.0
N173 N 0.71444 0.6275 0.58217 0.0
N174 N 0.75993 0.60153 0.58822 0.0
C175 C 0.72258 0.62903 0.56217 0.0
C176 C 0.73318 0.61408 0.59533 0.0
C177 C 0.769 0.60388 0.56827 0.0
C178 C 0.69886 0.63911 0.5475 0.0
C179 C 0.70042 0.63134 0.52665 0.0
C180 C 0.67747 0.63995 0.51275 0.0
C181 C 0.65264 0.65678 0.51933 0.0
C182 C 0.65063 0.66402 0.5402 0.0
C183 C 0.67336 0.65514 0.55413 0.0
C184 C 0.72153 0.60981 0.61686 0.0
C185 C 0.69724 0.62654 0.62456 0.0
C186 C 0.68418 0.62059 0.64453 0.0
C187 C 0.69496 0.59765 0.65728 0.0
C188 C 0.71969 0.58136 0.64966 0.0
C189 C 0.73293 0.58749 0.62972 0.0
C190 C 0.79169 0.58393 0.55947 0.0
C191 C 0.7865 0.54696 0.56741 0.0
C192 C 1.02846 0.55903 0.869 0.0
C193 C 1.03733 0.56094 0.84829 0.0
C194 C 1.07888 0.5867 0.84239 0.0
C195 C 0.11024 0.612 0.85673 0.0
H196 H 0.22568 0.71245 0.86039 0.0
H197 H 0.29568 0.73922 0.84866 0.0
H198 H 0.34499 0.77903 0.90991 0.0
H199 H 0.27366 0.74934 0.9219 0.0
H200 H 0.21196 0.69887 0.95781 0.0
H201 H 0.19894 0.68474 0.99342 0.0
H202 H 1.06641 0.60504 0.97953 0.0
H203 H 1.07954 0.61814 0.94385 0.0
H204 H 1.05136 0.58295 0.89903 0.0
H205 H 0.99672 0.54016 0.87415 0.0
H206 H 0.08685 0.58855 0.8266 0.0
H207 H 0.14167 0.63246 0.85157 0.0
N208 N 0.17087 0.67132 0.88601 0.0
N209 N 0.19327 0.6946 0.91956 0.0
N210 N 0.1252 0.63859 0.91228 0.0
C211 C 0.20117 0.69819 0.89947 0.0
C212 C 0.15511 0.66503 0.92605 0.0
C213 C 0.13292 0.64145 0.89223 0.0
C214 C 0.24386 0.72666 0.89222 0.0
C215 C 0.25138 0.72757 0.87141 0.0
C216 C 0.29208 0.74374 0.86459 0.0
C217 C 0.32638 0.75982 0.8784 0.0
C218 C 0.31925 0.76514 0.8989 0.0
C219 C 0.27827 0.74826 0.9058 0.0
C220 C 0.14688 0.65945 0.94792 0.0
C221 C 0.17999 0.6786 0.96234 0.0
C222 C 0.17247 0.6706 0.98281 0.0
C223 C 0.13162 0.64353 0.98936 0.0
C224 C 0.09836 0.62536 0.97499 0.0
C225 C 0.10591 0.63312 0.95451 0.0
C226 C 0.10071 0.61192 0.87729 0.0
C227 C 1.05979 0.58413 0.88333 0.0
C228 C 0.2195 0.6614 0.47532 0.0
C229 C 0.21801 0.69275 0.48748 0.0
C230 C 0.178 0.68337 0.49448 0.0
C231 C 0.14109 0.64477 0.48904 0.0
H232 H 0.99273 0.50526 0.49967 0.0
H233 H 0.92848 0.44218 0.51022 0.0
H234 H 0.93887 0.37118 0.45973 0.0
H235 H 1.00194 0.43265 0.44967 0.0
H236 H 1.01867 0.48054 0.4076 0.0
H237 H 1.01952 0.47912 0.37075 0.0
H238 H 0.13042 0.6019 0.37305 0.0
H239 H 0.12941 0.6037 0.40981 0.0
H240 H 0.18569 0.60137 0.45959 0.0
H241 H 0.24893 0.66685 0.46921 0.0
H242 H 0.17501 0.70612 0.50399 0.0
H243 H 0.11098 0.63971 0.49397 0.0
N244 N 1.07143 0.54631 0.47581 0.0
N245 N 1.04113 0.51248 0.4442 0.0
N246 N 0.10448 0.57595 0.44538 0.0
C247 C 1.03945 0.51286 0.46474 0.0
C248 C 1.07303 0.54372 0.43438 0.0
C249 C 0.10447 0.5781 0.46592 0.0
C250 C 1.00326 0.4746 0.47379 0.0
C251 C 0.98168 0.47595 0.4911 0.0
C252 C 0.94433 0.43966 0.49699 0.0
C253 C 0.92774 0.40071 0.48596 0.0
C254 C 0.9502 0.39969 0.46901 0.0
C255 C 0.98677 0.43555 0.46309 0.0
C256 C 1.07387 0.54234 0.41183 0.0
C257 C 1.0433 0.50729 0.40029 0.0
C258 C 1.04392 0.50631 0.37911 0.0
C259 C 1.07495 0.54043 0.36886 0.0
C260 C 0.10569 0.57529 0.38039 0.0
C261 C 0.10521 0.5762 0.40154 0.0
C262 C 0.14288 0.61436 0.47629 0.0
C263 C 0.18287 0.62339 0.46978 0.0
C264 C 0.55581 0.15965 0.80712 0.0
C265 C 0.58481 0.18923 0.82154 0.0
C266 C 0.61295 0.17872 0.83085 0.0
C267 C 0.61255 0.14079 0.82552 0.0
H268 H 0.63906 1.00625 0.83021 0.0
H269 H 0.64057 0.94298 0.83966 0.0
H270 H 0.53503 0.86771 0.79902 0.0
H271 H 0.53392 0.93032 0.78966 0.0
H272 H 0.59408 0.98816 0.74237 0.0
H273 H 0.59214 0.98791 0.70547 0.0
H274 H 0.58017 0.09838 0.70847 0.0
H275 H 0.58158 0.09849 0.74513 0.0
H276 H 0.53364 0.10176 0.79002 0.0
H277 H 0.53401 0.16594 0.79912 0.0
H278 H 0.63574 0.20003 0.84213 0.0
H279 H 0.63576 0.13491 0.83236 0.0
N280 N 0.58878 1.04481 0.81089 0.0
N281 N 0.58844 1.01212 0.77945 0.0
N282 N 0.58798 0.07512 0.78024 0.0
C283 C 0.58869 1.01199 0.80002 0.0
C284 C 0.58851 1.04358 0.76944 0.0
C285 C 0.58816 0.07667 0.80076 0.0
C286 C 0.58589 0.97376 0.80937 0.0
C287 C 0.61553 0.97606 0.82371 0.0
C288 C 0.61672 0.93959 0.8289 0.0
C289 C 0.58792 0.89942 0.82017 0.0
C290 C 0.55752 0.89735 0.8064 0.0
C291 C 0.55684 0.93362 0.801 0.0
C292 C 0.58788 1.04326 0.74688 0.0
C293 C 0.59101 1.01241 0.73519 0.0
C294 C 0.59014 1.01239 0.71399 0.0
C295 C 0.58582 1.04303 0.70393 0.0
C296 C 0.58288 0.07391 0.71564 0.0
C297 C 0.58397 0.07408 0.73676 0.0
C298 C 0.58414 0.11216 0.81062 0.0
C299 C 0.55559 0.12232 0.80181 0.0
C300 C 0.73337 0.5938 0.13664 0.0
C301 C 0.73443 0.56798 0.15154 0.0
C302 C 0.69608 0.54193 0.16114 0.0
C303 C 0.65828 0.54126 0.15569 0.0
H304 H 0.54126 0.59812 0.16474 0.0
H305 H 0.47739 0.59872 0.17533 0.0
H306 H 0.4056 0.5045 0.12853 0.0
H307 H 0.46816 0.5035 0.11852 0.0
H308 H 0.53382 0.57328 0.07496 0.0
H309 H 0.53153 0.571 0.03802 0.0
H310 H 0.62117 0.52835 0.03689 0.0
H311 H 0.62423 0.53136 0.0739 0.0
H312 H 0.69681 0.61218 0.119 0.0
H313 H 0.76136 0.61392 0.12851 0.0
H314 H 0.6951 0.52166 0.17279 0.0
H315 H 0.62944 0.51977 0.16289 0.0
N316 N 0.58394 0.55832 0.1414 0.0
N317 N 0.54859 0.55228 0.11049 0.0
N318 N 0.61492 0.55862 0.11018 0.0
C319 C 0.54912 0.55406 0.13105 0.0
C320 C 0.58098 0.55447 0.09995 0.0
C321 C 0.61726 0.56062 0.13075 0.0
C322 C 0.51031 0.55042 0.14085 0.0
C323 C 0.51158 0.57676 0.15713 0.0
C324 C 0.47479 0.57751 0.16298 0.0
C325 C 0.4354 0.55166 0.15289 0.0
C326 C 0.43441 0.52453 0.1371 0.0
C327 C 0.47082 0.52404 0.13123 0.0
C328 C 0.57929 0.55258 0.07744 0.0
C329 C 0.55304 0.56336 0.06687 0.0
C330 C 0.55182 0.56223 0.04571 0.0
C331 C 0.57612 0.54945 0.03457 0.0
C332 C 0.6019 0.53807 0.04508 0.0
C333 C 0.60381 0.54004 0.06627 0.0
C334 C 0.65744 0.56627 0.14028 0.0
C335 C 0.69588 0.59277 0.1311 0.0
H336 H 0.17245 0.49005 0.16243 0.0
H337 H 0.42659 0.61942 0.16656 0.0
H338 H 0.24397 0.62074 0.18126 0.0
H339 H 0.35197 0.48725 0.15106 0.0
H340 H 0.36155 0.62106 0.17257 0.0
H341 H 0.2381 0.48921 0.15846 0.0
C342 C 0.20185 0.51867 0.16583 0.0
C343 C 0.20193 0.5555 0.17229 0.0
C344 C 0.35941 0.59167 0.16788 0.0
C345 C 0.27867 0.55476 0.16757 0.0
C346 C 0.39682 0.59059 0.16455 0.0
C347 C 0.39569 0.55317 0.15805 0.0
C348 C 0.3199 0.55507 0.16479 0.0
C349 C 0.35532 0.5172 0.15559 0.0
C350 C 0.23963 0.51814 0.16352 0.0
C351 C 0.24174 0.59143 0.17633 0.0
N352 N 0.31963 0.51914 0.15886 0.0
N353 N 0.27811 0.59016 0.17388 0.0
H354 H 0.6686 0.21166 0.51847 0.0
H355 H 0.90892 0.31803 0.48273 0.0
H356 H 0.72592 0.14246 0.49501 0.0
H357 H 0.85326 0.39162 0.50195 0.0
H358 H 0.84295 0.25435 0.48883 0.0
H359 H 0.73554 0.27728 0.5145 0.0
C360 C 0.69508 0.21 0.51252 0.0
C361 C 0.69093 0.17075 0.50713 0.0
C362 C 0.84493 0.28431 0.49177 0.0
C363 C 0.76843 0.24684 0.50224 0.0
C364 C 0.88291 0.32113 0.48816 0.0
C365 C 0.88742 0.36117 0.4915 0.0
C366 C 0.81016 0.28651 0.49893 0.0
C367 C 0.85203 0.36199 0.49915 0.0
C368 C 0.73344 0.24775 0.51018 0.0
C369 C 0.72694 0.17144 0.49945 0.0
N370 N 0.81519 0.32555 0.50247 0.0
N371 N 0.76362 0.20842 0.49724 0.0
H372 H 0.52682 0.64066 0.84242 0.0
H373 H 0.65782 0.89017 0.82629 0.0
H374 H 0.66008 0.70769 0.83306 0.0
H375 H 0.52262 0.81748 0.82413 0.0
H376 H 0.65997 0.82566 0.83153 0.0
H377 H 0.52544 0.70569 0.83823 0.0
C378 C 0.55591 0.66891 0.83946 0.0
C379 C 0.59359 0.66786 0.83796 0.0
C380 C 0.62979 0.82377 0.82995 0.0
C381 C 0.59228 0.74398 0.83343 0.0
C382 C 0.62849 0.8609 0.82709 0.0
C383 C 0.58996 0.86007 0.82463 0.0
C384 C 0.5923 0.78484 0.83066 0.0
C385 C 0.55323 0.82035 0.82563 0.0
C386 C 0.55506 0.70633 0.8371 0.0
C387 C 0.63015 0.70632 0.83433 0.0
N388 N 0.55536 0.78487 0.82858 0.0
N389 N 0.62857 0.74241 0.83226 0.0
H390 H 0.92727 0.49753 0.17449 0.0
H391 H 0.81683 0.63422 0.15202 0.0
H392 H 0.99654 0.63042 0.16587 0.0
H393 H 0.74647 0.50186 0.16196 0.0
H394 H 0.88203 0.63316 0.15735 0.0
H395 H 0.86147 0.49848 0.17038 0.0
C396 C 0.92892 0.52706 0.1718 0.0
C397 C 0.96829 0.56405 0.17066 0.0
C398 C 0.85242 0.60427 0.15842 0.0
C399 C 0.89168 0.56513 0.16569 0.0
C400 C 0.81475 0.60473 0.15525 0.0
C401 C 0.77514 0.56797 0.15631 0.0
C402 C 0.85143 0.56675 0.16272 0.0
C403 C 0.77565 0.53121 0.16107 0.0
C404 C 0.891 0.52748 0.1694 0.0
C405 C 0.96746 0.60104 0.16698 0.0
N406 N 0.8128 0.53154 0.16396 0.0
N407 N 0.93016 0.60058 0.16463 0.0
H408 H 0.48069 0.89409 0.50732 0.0
H409 H 0.22799 0.77284 0.49159 0.0
H410 H 0.41124 0.95895 0.50254 0.0
H411 H 0.30034 0.71054 0.49361 0.0
H412 H 0.29323 0.84048 0.49692 0.0
H413 H 0.41476 0.82719 0.50338 0.0
C414 C 0.45168 0.89452 0.50551 0.0
C415 C 0.45224 0.93299 0.50533 0.0
C416 C 0.29486 0.812 0.49623 0.0
C417 C 0.37523 0.85498 0.50073 0.0
C418 C 0.25731 0.77302 0.49332 0.0
C419 C 0.25781 0.73502 0.49199 0.0
C420 C 0.33388 0.81373 0.49799 0.0
C421 C 0.29764 0.73838 0.49413 0.0
C422 C 0.41374 0.85596 0.50322 0.0
C423 C 0.41294 0.93057 0.50282 0.0
N424 N 0.33352 0.77654 0.49698 0.0
N425 N 0.37642 0.89261 0.50065 0.0
H426 H 0.65612 0.45475 0.84756 0.0
H427 H 0.5188 0.20562 0.82117 0.0
H428 H 0.52574 0.3907 0.8285 0.0
H429 H 0.65267 0.26904 0.83245 0.0
H430 H 0.5209 0.27244 0.82578 0.0
H431 H 0.65547 0.38782 0.84413 0.0
C432 C 0.62722 0.42675 0.84274 0.0
C433 C 0.59088 0.42907 0.83838 0.0
C434 C 0.54993 0.27194 0.82727 0.0
C435 C 0.58997 0.35123 0.8344 0.0
C436 C 0.54888 0.23342 0.8245 0.0
C437 C 0.58572 0.23069 0.82608 0.0
C438 C 0.58807 0.30909 0.83187 0.0
C439 C 0.62321 0.26867 0.83112 0.0
C440 C 0.62695 0.38833 0.84073 0.0
C441 C 0.55466 0.39113 0.83208 0.0
N442 N 0.62339 0.30588 0.83374 0.0
N443 N 0.55517 0.35428 0.83036 0.0
H444 H 0.54116 0.79437 0.49163 0.0
H445 H 0.68325 0.69466 0.4836 0.0
H446 H 0.64896 0.83823 0.45379 0.0
H447 H 0.57516 0.65048 0.52133 0.0
H448 H 0.6567 0.73099 0.46378 0.0
H449 H 0.5379 0.72709 0.493 0.0
C450 C 0.56331 0.78942 0.48301 0.0
C451 C 0.59636 0.82245 0.47318 0.0
C452 C 0.63824 0.71261 0.47611 0.0
C453 C 0.59361 0.74595 0.47526 0.0
C454 C 0.65333 0.69162 0.48743 0.0
C455 C 0.63208 0.67057 0.50459 0.0
C456 C 0.60209 0.7132 0.48223 0.0
C457 C 0.59341 0.66772 0.5087 0.0
C458 C 0.56163 0.75098 0.48394 0.0
C459 C 0.62394 0.81403 0.46219 0.0
N460 N 0.58014 0.68965 0.4979 0.0
N461 N 0.62268 0.77695 0.46398 0.0
H462 H 0.79333 0.48476 0.8342 0.0
H463 H 1.02978 0.59426 0.81327 0.0
H464 H 0.8603 0.59324 0.79837 0.0
H465 H 0.96403 0.48471 0.84865 0.0
H466 H 0.96411 0.57625 0.79617 0.0
H467 H 0.84845 0.46751 0.82848 0.0
C468 C 0.81926 0.50441 0.82475 0.0
C469 C 0.82321 0.54129 0.81736 0.0
C470 C 0.96408 0.55541 0.80728 0.0
C471 C 0.88654 0.52222 0.81099 0.0
C472 C 1.00184 0.56552 0.817 0.0
C473 C 1.00213 0.542 0.83314 0.0
C474 C 0.9264 0.52225 0.81411 0.0
C475 C 0.96486 0.50487 0.83698 0.0
C476 C 0.85062 0.49447 0.82139 0.0
C477 C 0.85655 0.56496 0.80469 0.0
N478 N 0.92818 0.49685 0.82802 0.0
N479 N 0.88758 0.55566 0.80235 0.0
H480 H 0.3461 0.73403 0.17256 0.0
H481 H 0.51292 0.95852 0.146 0.0
H482 H 0.32374 0.81326 0.13428 0.0
H483 H 0.53863 0.8792 0.1827 0.0
H484 H 0.45251 0.89697 0.131 0.0
H485 H 0.42119 0.77629 0.16665 0.0
C486 C 0.35705 0.75996 0.16261 0.0
C487 C 0.32905 0.77117 0.15444 0.0
C488 C 0.4719 0.89279 0.14196 0.0
C489 C 0.41472 0.81981 0.14774 0.0
C490 C 0.50695 0.92815 0.15046 0.0
C491 C 0.52994 0.92429 0.16642 0.0
C492 C 0.45923 0.85352 0.1498 0.0
C493 C 0.52053 0.8838 0.17119 0.0
C494 C 0.39986 0.78391 0.15912 0.0
C495 C 0.34446 0.80408 0.14116 0.0
N496 N 0.48501 0.84999 0.16343 0.0
N497 N 0.38645 0.82794 0.13862 0.0
H498 H 0.67472 0.26986 0.49189 0.0
H499 H 0.75594 0.5138 0.4998 0.0
H500 H 0.59522 0.32424 0.48883 0.0
H501 H 0.81005 0.45663 0.53582 0.0
H502 H 0.71147 0.44662 0.4821 0.0
H503 H 0.73651 0.34045 0.49507 0.0
C504 C 0.67044 0.29673 0.49139 0.0
C505 C 0.62996 0.29145 0.49038 0.0
C506 C 0.73405 0.44916 0.49344 0.0
C507 C 0.70005 0.37162 0.4936 0.0
C508 C 0.7599 0.48761 0.50345 0.0
C509 C 0.78638 0.49074 0.51961 0.0
C510 C 0.7349 0.41369 0.4995 0.0
C511 C 0.78954 0.45538 0.52371 0.0
C512 C 0.70558 0.33678 0.49323 0.0
C513 C 0.62591 0.3271 0.48981 0.0
N514 N 0.76343 0.41797 0.51395 0.0
N515 N 0.6606 0.3658 0.49154 0.0
H516 H 0.4497 0.62602 0.86847 0.0
H517 H 0.36514 0.77756 0.84123 0.0
H518 H 0.41602 0.63979 0.80797 0.0
H519 H 0.37754 0.74211 0.90128 0.0
H520 H 0.40765 0.74827 0.8286 0.0
H521 H 0.4466 0.68786 0.87981 0.0
C522 C 0.44159 0.64222 0.85759 0.0
C523 C 0.4315 0.62709 0.83746 0.0
C524 C 0.4019 0.74804 0.84463 0.0
C525 C 0.42792 0.69788 0.85027 0.0
C526 C 0.37752 0.76467 0.8519 0.0
C527 C 0.36551 0.7603 0.87222 0.0
C528 C 0.41486 0.72766 0.85788 0.0
C529 C 0.38467 0.74547 0.88541 0.0
C530 C 0.44025 0.67774 0.864 0.0
C531 C 0.42296 0.65006 0.82374 0.0
N532 N 0.40744 0.72875 0.87792 0.0
N533 N 0.42041 0.68393 0.8305 0.0
H534 H 0.84677 0.4287 0.1544 0.0
H535 H 0.62923 0.21954 0.15251 0.0
H536 H 0.81827 0.31215 0.1237 0.0
H537 H 0.66597 0.3229 0.19591 0.0
H538 H 0.68655 0.26502 0.1315 0.0
H539 H 0.77181 0.40126 0.15907 0.0
C540 C 0.82462 0.39782 0.14805 0.0
C541 C 0.83865 0.37224 0.13901 0.0
C542 C 0.68141 0.27809 0.14536 0.0
C543 C 0.75314 0.34065 0.14448 0.0
C544 C 0.64822 0.25219 0.15738 0.0
C545 C 0.6435 0.26692 0.17651 0.0
C546 C 0.71039 0.3188 0.15258 0.0
C547 C 0.66943 0.30972 0.1817 0.0
C548 C 0.78188 0.38215 0.1508 0.0
C549 C 0.8087 0.33246 0.13115 0.0
N550 N 0.70259 0.33393 0.17008 0.0
N551 N 0.76733 0.3176 0.13437 0.0
H552 H 1.04077 0.52339 0.10348 0.0
H553 H 0.16839 0.69621 0.02276 0.0
H554 H 0.15408 0.64094 0.11778 0.0
H555 H 1.07735 0.5679 0.00542 0.0
H556 H 0.15786 0.67828 0.05815 0.0
H557 H 1.0482 0.54088 0.06775 0.0
C558 C 1.06715 0.55279 0.09912 0.0
C559 C 0.09691 0.58066 0.11361 0.0
C560 C 0.14015 0.65404 0.04659 0.0
C561 C 0.10533 0.60095 0.07298 0.0
C562 C 0.14629 0.66422 0.02636 0.0
C563 C 0.12397 0.6335 0.01102 0.0
C564 C 0.1113 0.61286 0.05162 0.0
C565 C 0.09496 0.59276 0.0167 0.0
C566 C 1.07139 0.56272 0.07876 0.0
C567 C 0.13046 0.61836 0.10715 0.0
N568 N 0.08951 0.58361 0.03655 0.0
N569 N 0.13366 0.62741 0.08735 0.0
H570 H 0.5592 0.10847 0.44718 0.0
H571 H 0.60917 1.03415 0.34166 0.0
H572 H 0.58112 1.00432 0.44091 0.0
H573 H 0.55836 0.11691 0.34717 0.0
H574 H 0.60322 1.02548 0.37811 0.0
H575 H 0.56308 0.11483 0.4107 0.0
C576 C 0.56478 0.08686 0.43813 0.0
C577 C 0.56994 0.05586 0.44713 0.0
C578 C 0.59333 1.04547 0.37131 0.0
C579 C 0.57457 0.0631 0.40524 0.0
C580 C 0.59657 1.05035 0.35048 0.0
C581 C 0.58424 0.07633 0.34127 0.0
C582 C 0.57795 0.06694 0.38306 0.0
C583 C 0.56889 0.09711 0.35359 0.0
C584 C 0.56689 0.09046 0.41726 0.0
C585 C 0.57687 1.02861 0.43459 0.0
N586 N 0.56626 0.09201 0.37383 0.0
N587 N 0.57922 1.03301 0.41426 0.0
H588 H 0.67433 0.55249 0.7845 0.0
H589 H 0.61829 0.58084 0.67165 0.0
H590 H 0.56353 0.55891 0.76937 0.0
H591 H 0.73828 0.59822 0.69118 0.0
H592 H 0.59509 0.56857 0.70657 0.0
H593 H 0.69489 0.56366 0.74954 0.0
C594 C 0.65412 0.55607 0.7738 0.0
C595 C 0.61709 0.55482 0.77993 0.0
C596 C 0.62648 0.57511 0.70317 0.0
C597 C 0.6408 0.56785 0.73961 0.0
C598 C 0.63988 0.58236 0.68327 0.0
C599 C 0.68035 0.59052 0.67841 0.0
C600 C 0.65365 0.57581 0.71831 0.0
C601 C 0.70661 0.59137 0.69408 0.0
C602 C 0.66605 0.56262 0.75379 0.0
C603 C 0.59233 0.55969 0.7653 0.0
N604 N 0.69278 0.58404 0.71326 0.0
N605 N 0.60465 0.56602 0.74576 0.0
H606 H 0.52296 0.05903 0.57913 0.0
H607 H 0.63287 1.02717 0.67661 0.0
H608 H 0.62927 1.04006 0.57577 0.0
H609 H 0.53489 0.05862 0.67966 0.0
H610 H 0.63017 1.02856 0.63968 0.0
H611 H 0.52537 0.05633 0.61588 0.0
C612 C 0.54685 1.05429 0.58608 0.0
C613 C 0.57598 1.04981 0.57423 0.0
C614 C 0.60927 1.03517 0.64844 0.0
C615 C 0.57884 1.04655 0.61654 0.0
C616 C 0.6106 1.03412 0.66954 0.0
C617 C 0.58415 1.04291 0.68136 0.0
C618 C 0.58109 1.04482 0.63898 0.0
C619 C 0.55632 1.05222 0.67127 0.0
C620 C 0.54822 1.05278 0.60713 0.0
C621 C 0.6062 1.04377 0.58423 0.0
N622 N 0.5555 1.05287 0.65075 0.0
N623 N 0.60679 1.04225 0.60475 0.0
H624 H 0.53957 0.47892 0.90577 0.0
H625 H 0.58508 0.61147 0.01015 0.0
H626 H 0.61558 0.61366 0.91017 0.0
H627 H 0.56478 0.48586 0.0078 0.0
H628 H 0.58434 0.61033 0.97309 0.0
H629 H 0.53645 0.47837 0.94288 0.0
C630 C 0.55527 0.50836 0.91451 0.0
C631 C 0.57798 0.54638 0.90486 0.0
C632 C 0.57998 0.583 0.98069 0.0
C633 C 0.57416 0.54597 0.94718 0.0
C634 C 0.58021 0.58356 0.00182 0.0
C635 C 0.5751 0.54875 0.01206 0.0
C636 C 0.57377 0.54706 0.96966 0.0
C637 C 0.56918 0.51348 1.00049 0.0
C638 C 0.55368 0.50799 0.93566 0.0
C639 C 0.59793 0.5836 0.91696 0.0
N640 N 0.5684 0.51341 0.9799 0.0
N641 N 0.59537 0.58248 0.93743 0.0
H642 H 0.08587 0.61005 0.24468 0.0
H643 H 1.05869 0.47536 0.34161 0.0
H644 H 1.06783 0.48521 0.23978 0.0
H645 H 0.09076 0.60497 0.34444 0.0
H646 H 1.05866 0.47635 0.30457 0.0
H647 H 0.08454 0.60665 0.28125 0.0
C648 C 1.08152 0.58176 0.25125 0.0
C649 C 1.07696 0.54783 0.23898 0.0
C650 C 1.06576 0.50456 0.31332 0.0
C651 C 1.07544 0.54379 0.28132 0.0
C652 C 1.06557 0.50398 0.33448 0.0
C653 C 1.07487 0.5402 0.34627 0.0
C654 C 1.075 0.54152 0.3038 0.0
C655 C 0.084 0.57645 0.3361 0.0
C656 C 1.08085 0.57991 0.27226 0.0
C657 C 1.07151 0.51214 0.24859 0.0
N658 N 0.08373 0.57612 0.31556 0.0
N659 N 1.07086 0.51103 0.26918 0.0
loop_
_geom_bond_atom_site_label_1
_geom_bond_atom_site_label_2
_geom_bond_distance
_geom_bond_site_symmetry_2
_ccdc_geom_bond_type
Eu0 C9 2.828 . S
Eu0 O11 2.392 1_655 S
Eu0 O13 2.418 . S
Eu0 O18 2.373 . S
Eu0 O21 2.488 . S
Eu0 O22 2.471 . S
Eu0 O23 2.349 . S
Eu1 O10 2.373 . S
Eu1 O14 2.488 . S
Eu1 O15 2.471 . S
Eu1 O16 2.349 . S
Eu1 O19 2.392 1_455 S
Eu1 O20 2.418 . S
Eu1 C30 2.828 . S
C2 O20 1.244 . S
C2 O23 1.265 1_455 S
C3 C4 1.379 . S
C3 C7 1.373 . S
C3 C9 1.505 . S
C4 C3 1.379 . S
C4 C6 1.369 . S
C4 H32 0.930 . S
C5 C7 1.383 . S
C5 C8 1.382 . S
C5 H33 0.930 . S
C6 C4 1.369 . S
C6 C8 1.392 . S
C6 H34 0.930 . S
C7 C3 1.373 . S
C7 C5 1.383 . S
C7 H35 0.931 . S
C8 C5 1.382 . S
C8 C6 1.392 . S
C9 Eu0 2.828 . S
C9 C3 1.505 . S
C9 O21 1.249 . S
C9 O22 1.244 . S
O10 Eu1 2.373 . S
O10 C12 1.258 . S
O11 Eu0 2.392 1_455 S
O11 C12 1.242 . S
C12 O10 1.258 . S
C12 O11 1.242 . S
O13 Eu0 2.418 . S
O13 C17 1.244 1_655 S
O14 Eu1 2.488 . S
O14 C30 1.249 . S
O15 Eu1 2.471 . S
O15 C30 1.244 . S
O16 Eu1 2.349 . S
O16 C17 1.265 . S
C17 O13 1.244 1_455 S
C17 O16 1.265 . S
O18 Eu0 2.373 . S
O18 C31 1.258 . S
O19 Eu1 2.392 1_655 S
O19 C31 1.242 . S
O20 Eu1 2.418 . S
O20 C2 1.244 . S
O21 Eu0 2.488 . S
O21 C9 1.249 . S
O22 Eu0 2.471 . S
O22 C9 1.244 . S
O23 Eu0 2.349 . S
O23 C2 1.265 1_655 S
C24 C25 1.379 . S
C24 C28 1.373 . S
C24 C30 1.505 . S
C25 C24 1.379 . S
C25 C27 1.369 . S
C25 H36 0.930 . S
C26 C28 1.383 . S
C26 C29 1.382 . S
C26 H37 0.930 . S
C27 C25 1.369 . S
C27 C29 1.392 . S
C27 H38 0.930 . S
C28 C24 1.373 . S
C28 C26 1.383 . S
C28 H39 0.931 . S
C29 C26 1.382 . S
C29 C27 1.392 . S
C30 Eu1 2.828 . S
C30 O14 1.249 . S
C30 O15 1.244 . S
C30 C24 1.505 . S
C31 O18 1.258 . S
C31 O19 1.242 . S
H32 C4 0.930 . S
H33 C5 0.930 . S
H34 C6 0.930 . S
H35 C7 0.931 . S
H36 C25 0.930 . S
H37 C26 0.930 . S
H38 C27 0.930 . S
H39 C28 0.931 . S
Eu40 C49 2.828 . S
Eu40 O51 2.392 1_565 S
Eu40 O53 2.418 . S
Eu40 O58 2.373 . S
Eu40 O61 2.488 . S
Eu40 O62 2.471 . S
Eu40 O63 2.354 . S
Eu41 O50 2.373 . S
Eu41 O54 2.488 . S
Eu41 O55 2.471 . S
Eu41 O56 2.349 . S
Eu41 O59 2.392 1_545 S
Eu41 O60 2.418 . S
Eu41 C70 2.828 . S
C42 O60 1.244 . S
C42 O63 1.260 1_545 S
C43 C44 1.379 . S
C43 C47 1.373 . S
C43 C49 1.505 . S
C44 C43 1.379 . S
C44 C46 1.369 . S
C44 H72 0.930 . S
C45 C47 1.383 . S
C45 C48 1.382 . S
C45 H73 0.930 . S
C46 C44 1.369 . S
C46 C48 1.392 . S
C46 H74 0.930 . S
C47 C43 1.373 . S
C47 C45 1.383 . S
C47 H75 0.931 . S
C48 C45 1.382 . S
C48 C46 1.392 . S
C49 Eu40 2.828 . S
C49 C43 1.505 . S
C49 O61 1.249 . S
C49 O62 1.244 . S
O50 Eu41 2.373 . S
O50 C52 1.258 . S
O51 Eu40 2.392 1_545 S
O51 C52 1.242 . S
C52 O50 1.258 . S
C52 O51 1.242 . S
O53 Eu40 2.418 . S
O53 C57 1.244 1_565 S
O54 Eu41 2.488 . S
O54 C70 1.249 . S
O55 Eu41 2.471 . S
O55 C70 1.244 . S
O56 Eu41 2.349 . S
O56 C57 1.265 . S
C57 O53 1.244 1_545 S
C57 O56 1.265 . S
O58 Eu40 2.373 . S
O58 C71 1.258 . S
O59 Eu41 2.392 1_565 S
O59 C71 1.242 . S
O60 Eu41 2.418 . S
O60 C42 1.244 . S
O61 Eu40 2.488 . S
O61 C49 1.249 . S
O62 Eu40 2.471 . S
O62 C49 1.244 . S
O63 Eu40 2.354 . S
O63 C42 1.260 1_565 S
C64 C65 1.379 . S
C64 C68 1.373 . S
C64 C70 1.505 . S
C65 C64 1.379 . S
C65 C67 1.369 . S
C65 H76 0.930 . S
C66 C68 1.383 . S
C66 C69 1.382 . S
C66 H77 0.930 . S
C67 C65 1.369 . S
C67 C69 1.392 . S
C67 H78 0.930 . S
C68 C64 1.373 . S
C68 C66 1.383 . S
C68 H79 0.931 . S
C69 C66 1.382 . S
C69 C67 1.392 . S
C70 Eu41 2.828 . S
C70 O54 1.249 . S
C70 O55 1.244 . S
C70 C64 1.505 . S
C71 O58 1.258 . S
C71 O59 1.242 . S
H72 C44 0.930 . S
H73 C45 0.930 . S
H74 C46 0.930 . S
H75 C47 0.931 . S
H76 C65 0.930 . S
H77 C66 0.930 . S
H78 C67 0.930 . S
H79 C68 0.931 . S
Eu80 C89 2.828 . S
Eu80 O91 2.392 . S
Eu80 O93 2.418 . S
Eu80 O98 2.373 . S
Eu80 O101 2.488 . S
Eu80 O102 2.471 . S
Eu80 O103 2.349 . S
Eu81 O90 2.373 . S
Eu81 O94 2.488 . S
Eu81 O95 2.471 . S
Eu81 O96 2.349 . S
Eu81 O99 2.392 . S
Eu81 O100 2.418 . S
Eu81 C110 2.828 . S
C82 O100 1.244 . S
C82 O103 1.265 . S
C83 C84 1.379 . S
C83 C87 1.373 . S
C83 C89 1.505 . S
C84 C83 1.379 . S
C84 C86 1.369 . S
C84 H112 0.930 . S
C85 C87 1.383 . S
C85 C88 1.382 . S
C85 H113 0.930 . S
C86 C84 1.369 . S
C86 C88 1.392 . S
C86 H114 0.930 . S
C87 C83 1.373 . S
C87 C85 1.383 . S
C87 H115 0.931 . S
C88 C85 1.382 . S
C88 C86 1.392 . S
C89 Eu80 2.828 . S
C89 C83 1.505 . S
C89 O101 1.249 . S
C89 O102 1.244 . S
O90 Eu81 2.373 . S
O90 C92 1.258 . S
O91 Eu80 2.392 . S
O91 C92 1.242 . S
C92 O90 1.258 . S
C92 O91 1.242 . S
O93 Eu80 2.418 . S
O93 C97 1.244 . S
O94 Eu81 2.488 . S
O94 C110 1.249 . S
O95 Eu81 2.471 . S
O95 C110 1.244 . S
O96 Eu81 2.349 . S
O96 C97 1.265 . S
C97 O93 1.244 . S
C97 O96 1.265 . S
O98 Eu80 2.373 . S
O98 C111 1.258 . S
O99 Eu81 2.392 . S
O99 C111 1.242 . S
O100 Eu81 2.418 . S
O100 C82 1.244 . S
O101 Eu80 2.488 . S
O101 C89 1.249 . S
O102 Eu80 2.471 . S
O102 C89 1.244 . S
O103 Eu80 2.349 . S
O103 C82 1.265 . S
C104 C105 1.379 . S
C104 C108 1.373 . S
C104 C110 1.505 . S
C105 C104 1.379 . S
C105 C107 1.369 . S
C105 H116 0.930 . S
C106 C108 1.383 . S
C106 C109 1.382 . S
C106 H117 0.930 . S
C107 C105 1.369 . S
C107 C109 1.392 . S
C107 H118 0.930 . S
C108 C104 1.373 . S
C108 C106 1.383 . S
C108 H119 0.931 . S
C109 C106 1.382 . S
C109 C107 1.392 . S
C110 Eu81 2.828 . S
C110 O94 1.249 . S
C110 O95 1.244 . S
C110 C104 1.505 . S
C111 O98 1.258 . S
C111 O99 1.242 . S
H112 C84 0.930 . S
H113 C85 0.930 . S
H114 C86 0.930 . S
H115 C87 0.931 . S
H116 C105 0.930 . S
H117 C106 0.930 . S
H118 C107 0.930 . S
H119 C108 0.931 . S
C120 C121 1.384 . S
C120 H133 0.947 . S
C120 C155 1.382 . S
C121 C120 1.384 . S
C121 C122 1.378 . S
C122 C121 1.378 . S
C122 C123 1.378 . S
C122 H134 0.952 . S
C123 C122 1.378 . S
C123 H135 0.950 . S
C123 C154 1.383 . S
H124 C143 0.947 . S
H125 C144 0.946 . S
H126 C146 0.953 . S
H127 C147 0.945 . S
H128 C149 0.952 . S
H129 C150 0.949 . S
H130 C152 0.950 . S
H131 C153 0.948 . S
H132 C155 0.951 . S
H133 C120 0.947 . S
H134 C122 0.952 . S
H135 C123 0.950 . S
N136 C139 1.382 . S
N136 C141 1.363 1_545 S
N137 C139 1.371 . S
N137 C140 1.372 . S
N138 C140 1.361 1_565 S
N138 C141 1.377 . S
C139 N136 1.382 . S
C139 N137 1.371 . S
C139 C142 1.480 . S
C140 N137 1.372 . S
C140 N138 1.361 1_545 S
C140 C148 1.457 . S
C141 N136 1.363 1_565 S
C141 N138 1.377 . S
C141 C154 1.479 . S
C142 C139 1.480 . S
C142 C143 1.383 . S
C142 C147 1.385 . S
C143 H124 0.947 . S
C143 C142 1.383 . S
C143 C144 1.388 . S
C144 H125 0.946 . S
C144 C143 1.388 . S
C144 C145 1.384 . S
C145 C144 1.384 . S
C145 C146 1.377 . S
C146 H126 0.953 . S
C146 C145 1.377 . S
C146 C147 1.369 . S
C147 H127 0.945 . S
C147 C142 1.385 . S
C147 C146 1.369 . S
C148 C140 1.457 . S
C148 C149 1.372 . S
C148 C153 1.364 1_545 S
C149 H128 0.952 . S
C149 C148 1.372 . S
C149 C150 1.389 . S
C150 H129 0.949 . S
C150 C149 1.389 . S
C150 C151 1.387 . S
C151 C150 1.387 . S
C151 C152 1.372 1_545 S
C152 H130 0.950 . S
C152 C151 1.372 1_565 S
C152 C153 1.379 . S
C153 H131 0.948 . S
C153 C148 1.364 1_565 S
C153 C152 1.379 . S
C154 C123 1.383 . S
C154 C141 1.479 . S
C154 C155 1.398 . S
C155 C120 1.382 . S
C155 H132 0.951 . S
C155 C154 1.398 . S
C156 C157 1.384 . S
C156 H169 0.947 . S
C156 C191 1.382 . S
C157 C156 1.384 . S
C157 C158 1.378 . S
C158 C157 1.378 . S
C158 C159 1.378 . S
C158 H170 0.952 . S
C159 C158 1.378 . S
C159 H171 0.950 . S
C159 C190 1.383 . S
H160 C179 0.947 . S
H161 C180 0.946 . S
H162 C182 0.953 . S
H163 C183 0.945 . S
H164 C185 0.952 . S
H165 C186 0.949 . S
H166 C188 0.950 . S
H167 C189 0.948 . S
H168 C191 0.951 . S
H169 C156 0.947 . S
H170 C158 0.952 . S
H171 C159 0.950 . S
N172 C175 1.382 . S
N172 C177 1.363 . S
N173 C175 1.371 . S
N173 C176 1.372 . S
N174 C176 1.361 . S
N174 C177 1.377 . S
C175 N172 1.382 . S
C175 N173 1.371 . S
C175 C178 1.480 . S
C176 N173 1.372 . S
C176 N174 1.361 . S
C176 C184 1.457 . S
C177 N172 1.363 . S
C177 N174 1.377 . S
C177 C190 1.479 . S
C178 C175 1.480 . S
C178 C179 1.383 . S
C178 C183 1.385 . S
C179 H160 0.947 . S
C179 C178 1.383 . S
C179 C180 1.388 . S
C180 H161 0.946 . S
C180 C179 1.388 . S
C180 C181 1.384 . S
C181 C180 1.384 . S
C181 C182 1.377 . S
C182 H162 0.953 . S
C182 C181 1.377 . S
C182 C183 1.369 . S
C183 H163 0.945 . S
C183 C178 1.385 . S
C183 C182 1.369 . S
C184 C176 1.457 . S
C184 C185 1.372 . S
C184 C189 1.364 . S
C185 H164 0.952 . S
C185 C184 1.372 . S
C185 C186 1.389 . S
C186 H165 0.949 . S
C186 C185 1.389 . S
C186 C187 1.387 . S
C187 C186 1.387 . S
C187 C188 1.372 . S
C188 H166 0.950 . S
C188 C187 1.372 . S
C188 C189 1.379 . S
C189 H167 0.948 . S
C189 C184 1.364 . S
C189 C188 1.379 . S
C190 C159 1.383 . S
C190 C177 1.479 . S
C190 C191 1.398 . S
C191 C156 1.382 . S
C191 H168 0.951 . S
C191 C190 1.398 . S
C192 C193 1.384 . S
C192 H205 0.947 . S
C192 C227 1.382 . S
C193 C192 1.384 . S
C193 C194 1.378 . S
C194 C193 1.378 . S
C194 C195 1.378 . S
C194 H206 0.952 . S
C195 C194 1.378 . S
C195 H207 0.950 . S
C195 C226 1.383 . S
H196 C215 0.947 . S
H197 C216 0.946 . S
H198 C218 0.953 . S
H199 C219 0.945 . S
H200 C221 0.952 . S
H201 C222 0.949 . S
H202 C224 0.925 1_655 S
H203 C225 0.955 . S
H204 C227 0.951 . S
H205 C192 0.947 . S
H206 C194 0.952 . S
H207 C195 0.950 . S
N208 C211 1.382 . S
N208 C213 1.363 . S
N209 C211 1.371 . S
N209 C212 1.372 . S
N210 C212 1.361 . S
N210 C213 1.377 . S
C211 N208 1.382 . S
C211 N209 1.371 . S
C211 C214 1.480 . S
C212 N209 1.372 . S
C212 N210 1.361 . S
C212 C220 1.457 . S
C213 N208 1.363 . S
C213 N210 1.377 . S
C213 C226 1.479 1_455 S
C214 C211 1.480 . S
C214 C215 1.383 . S
C214 C219 1.385 . S
C215 H196 0.947 . S
C215 C214 1.383 . S
C215 C216 1.388 . S
C216 H197 0.946 . S
C216 C215 1.388 . S
C216 C217 1.384 . S
C217 C216 1.384 . S
C217 C218 1.377 . S
C218 H198 0.953 . S
C218 C217 1.377 . S
C218 C219 1.369 . S
C219 H199 0.945 . S
C219 C214 1.385 . S
C219 C218 1.369 . S
C220 C212 1.457 . S
C220 C221 1.372 . S
C220 C225 1.356 1_455 S
C221 H200 0.952 . S
C221 C220 1.372 . S
C221 C222 1.389 . S
C222 H201 0.949 . S
C222 C221 1.389 . S
C222 C223 1.387 . S
C223 C222 1.387 . S
C223 C224 1.396 . S
C224 H202 0.925 1_455 S
C224 C223 1.396 . S
C224 C225 1.379 1_455 S
C225 H203 0.955 . S
C225 C220 1.356 1_655 S
C225 C224 1.379 1_655 S
C226 C195 1.383 . S
C226 C213 1.479 1_655 S
C226 C227 1.398 . S
C227 C192 1.382 . S
C227 H204 0.951 . S
C227 C226 1.398 . S
C228 C229 1.384 . S
C228 H241 0.947 . S
C228 C263 1.382 . S
C229 C228 1.384 . S
C229 C230 1.378 . S
C230 C229 1.378 . S
C230 C231 1.378 . S
C230 H242 0.952 . S
C231 C230 1.378 . S
C231 H243 0.950 . S
C231 C262 1.383 . S
H232 C251 0.947 . S
H233 C252 0.946 . S
H234 C254 0.953 . S
H235 C255 0.945 . S
H236 C257 0.952 . S
H237 C258 0.949 . S
H238 C260 0.950 . S
H239 C261 0.948 . S
H240 C263 0.951 . S
H241 C228 0.947 . S
H242 C230 0.952 . S
H243 C231 0.950 . S
N244 C247 1.382 1_455 S
N244 C249 1.363 . S
N245 C247 1.371 . S
N245 C248 1.372 1_655 S
N246 C248 1.361 . S
N246 C249 1.377 . S
C247 N244 1.382 1_655 S
C247 N245 1.371 . S
C247 C250 1.480 . S
C248 N245 1.372 1_455 S
C248 N246 1.361 . S
C248 C256 1.457 . S
C249 N244 1.363 . S
C249 N246 1.377 . S
C249 C262 1.479 . S
C250 C247 1.480 . S
C250 C251 1.383 . S
C250 C255 1.385 . S
C251 H232 0.947 . S
C251 C250 1.383 . S
C251 C252 1.388 . S
C252 H233 0.946 . S
C252 C251 1.388 . S
C252 C253 1.384 . S
C253 C252 1.384 . S
C253 C254 1.377 . S
C254 H234 0.953 . S
C254 C253 1.377 . S
C254 C255 1.369 . S
C255 H235 0.945 . S
C255 C250 1.385 . S
C255 C254 1.369 . S
C256 C248 1.457 . S
C256 C257 1.372 1_455 S
C256 C261 1.364 . S
C257 H236 0.952 . S
C257 C256 1.372 1_655 S
C257 C258 1.389 . S
C258 H237 0.949 . S
C258 C257 1.389 . S
C258 C259 1.387 1_655 S
C259 C258 1.387 1_455 S
C259 C260 1.372 . S
C260 H238 0.950 . S
C260 C259 1.372 . S
C260 C261 1.379 . S
C261 H239 0.948 . S
C261 C256 1.364 . S
C261 C260 1.379 . S
C262 C231 1.383 . S
C262 C249 1.479 . S
C262 C263 1.398 . S
C263 C228 1.382 . S
C263 H240 0.951 . S
C263 C262 1.398 . S
C264 C265 1.384 . S
C264 H277 0.947 . S
C264 C299 1.382 . S
C265 C264 1.384 . S
C265 C266 1.378 . S
C266 C265 1.378 . S
C266 C267 1.378 . S
C266 H278 0.952 . S
C267 C266 1.378 . S
C267 H279 0.950 . S
C267 C298 1.383 . S
H268 C287 0.947 . S
H269 C288 0.946 . S
H270 C290 0.953 . S
H271 C291 0.945 . S
H272 C293 0.952 . S
H273 C294 0.949 . S
H274 C296 0.950 . S
H275 C297 0.948 . S
H276 C299 0.951 . S
H277 C264 0.947 . S
H278 C266 0.952 . S
H279 C267 0.950 . S
N280 C283 1.382 1_545 S
N280 C285 1.363 . S
N281 C283 1.371 . S
N281 C284 1.372 1_565 S
N282 C284 1.361 . S
N282 C285 1.377 . S
C283 N280 1.382 1_565 S
C283 N281 1.371 . S
C283 C286 1.480 . S
C284 N281 1.372 1_545 S
C284 N282 1.361 . S
C284 C292 1.457 . S
C285 N280 1.363 . S
C285 N282 1.377 . S
C285 C298 1.479 . S
C286 C283 1.480 . S
C286 C287 1.383 . S
C286 C291 1.385 . S
C287 H268 0.947 . S
C287 C286 1.383 . S
C287 C288 1.388 . S
C288 H269 0.946 . S
C288 C287 1.388 . S
C288 C289 1.384 . S
C289 C288 1.384 . S
C289 C290 1.377 . S
C290 H270 0.953 . S
C290 C289 1.377 . S
C290 C291 1.369 . S
C291 H271 0.945 . S
C291 C286 1.385 . S
C291 C290 1.369 . S
C292 C284 1.457 . S
C292 C293 1.372 1_545 S
C292 C297 1.364 . S
C293 H272 0.952 . S
C293 C292 1.372 1_565 S
C293 C294 1.389 . S
C294 H273 0.949 . S
C294 C293 1.389 . S
C294 C295 1.387 1_565 S
C295 C294 1.387 1_545 S
C295 C296 1.372 . S
C296 H274 0.950 . S
C296 C295 1.372 . S
C296 C297 1.379 . S
C297 H275 0.948 . S
C297 C292 1.364 . S
C297 C296 1.379 . S
C298 C267 1.383 . S
C298 C285 1.479 . S
C298 C299 1.398 . S
C299 C264 1.382 . S
C299 H276 0.951 . S
C299 C298 1.398 . S
C300 C301 1.384 . S
C300 H313 0.947 . S
C300 C335 1.382 . S
C301 C300 1.384 . S
C301 C302 1.378 . S
C302 C301 1.378 . S
C302 C303 1.378 . S
C302 H314 0.952 . S
C303 C302 1.378 . S
C303 H315 0.950 . S
C303 C334 1.383 . S
H304 C323 0.947 . S
H305 C324 0.946 . S
H306 C326 0.953 . S
H307 C327 0.945 . S
H308 C329 0.952 . S
H309 C330 0.949 . S
H310 C332 0.950 . S
H311 C333 0.948 . S
H312 C335 0.951 . S
H313 C300 0.947 . S
H314 C302 0.952 . S
H315 C303 0.950 . S
N316 C319 1.382 . S
N316 C321 1.363 . S
N317 C319 1.371 . S
N317 C320 1.372 . S
N318 C320 1.361 . S
N318 C321 1.377 . S
C319 N316 1.382 . S
C319 N317 1.371 . S
C319 C322 1.480 . S
C320 N317 1.372 . S
C320 N318 1.361 . S
C320 C328 1.457 . S
C321 N316 1.363 . S
C321 N318 1.377 . S
C321 C334 1.479 . S
C322 C319 1.480 . S
C322 C323 1.383 . S
C322 C327 1.385 . S
C323 H304 0.947 . S
C323 C322 1.383 . S
C323 C324 1.388 . S
C324 H305 0.946 . S
C324 C323 1.388 . S
C324 C325 1.384 . S
C325 C324 1.384 . S
C325 C326 1.377 . S
C326 H306 0.953 . S
C326 C325 1.377 . S
C326 C327 1.369 . S
C327 H307 0.945 . S
C327 C322 1.385 . S
C327 C326 1.369 . S
C328 C320 1.457 . S
C328 C329 1.372 . S
C328 C333 1.364 . S
C329 H308 0.952 . S
C329 C328 1.372 . S
C329 C330 1.389 . S
C330 H309 0.949 . S
C330 C329 1.389 . S
C330 C331 1.387 . S
C331 C330 1.387 . S
C331 C332 1.372 . S
C332 H310 0.950 . S
C332 C331 1.372 . S
C332 C333 1.379 . S
C333 H311 0.948 . S
C333 C328 1.364 . S
C333 C332 1.379 . S
C334 C303 1.383 . S
C334 C321 1.479 . S
C334 C335 1.398 . S
C335 C300 1.382 . S
C335 H312 0.951 . S
C335 C334 1.398 . S
H336 C342 0.930 . S
H337 C346 0.930 . S
H338 C351 0.929 . S
H339 C349 0.929 . S
H340 C344 0.929 . S
H341 C350 0.929 . S
C342 H336 0.930 . S
C342 C343 1.367 . S
C342 C350 1.378 . S
C343 C342 1.367 . S
C343 C351 1.433 . S
C344 H340 0.929 . S
C344 C346 1.378 . S
C344 C348 1.350 . S
C345 C348 1.463 . S
C345 C350 1.350 . S
C345 N353 1.427 . S
C346 H337 0.930 . S
C346 C344 1.378 . S
C346 C347 1.367 . S
C347 C346 1.367 . S
C347 C349 1.433 . S
C348 C344 1.350 . S
C348 C345 1.463 . S
C348 N352 1.427 . S
C349 H339 0.929 . S
C349 C347 1.433 . S
C349 N352 1.384 . S
C350 H341 0.929 . S
C350 C342 1.378 . S
C350 C345 1.350 . S
C351 H338 0.929 . S
C351 C343 1.433 . S
C351 N353 1.384 . S
N352 C348 1.427 . S
N352 C349 1.384 . S
N353 C345 1.427 . S
N353 C351 1.384 . S
H354 C360 0.930 . S
H355 C364 0.930 . S
H356 C369 0.929 . S
H357 C367 0.929 . S
H358 C362 0.929 . S
H359 C368 0.929 . S
C360 H354 0.930 . S
C360 C361 1.367 . S
C360 C368 1.378 . S
C361 C360 1.367 . S
C361 C369 1.433 . S
C362 H358 0.929 . S
C362 C364 1.378 . S
C362 C366 1.350 . S
C363 C366 1.463 . S
C363 C368 1.350 . S
C363 N371 1.427 . S
C364 H355 0.930 . S
C364 C362 1.378 . S
C364 C365 1.367 . S
C365 C364 1.367 . S
C365 C367 1.433 . S
C366 C362 1.350 . S
C366 C363 1.463 . S
C366 N370 1.427 . S
C367 H357 0.929 . S
C367 C365 1.433 . S
C367 N370 1.384 . S
C368 H359 0.929 . S
C368 C360 1.378 . S
C368 C363 1.350 . S
C369 H356 0.929 . S
C369 C361 1.433 . S
C369 N371 1.384 . S
N370 C366 1.427 . S
N370 C367 1.384 . S
N371 C363 1.427 . S
N371 C369 1.384 . S
H372 C378 0.930 . S
H373 C382 0.930 . S
H374 C387 0.929 . S
H375 C385 0.929 . S
H376 C380 0.929 . S
H377 C386 0.929 . S
C378 H372 0.930 . S
C378 C379 1.367 . S
C378 C386 1.378 . S
C379 C378 1.367 . S
C379 C387 1.433 . S
C380 H376 0.929 . S
C380 C382 1.378 . S
C380 C384 1.350 . S
C381 C384 1.463 . S
C381 C386 1.350 . S
C381 N389 1.427 . S
C382 H373 0.930 . S
C382 C380 1.378 . S
C382 C383 1.367 . S
C383 C382 1.367 . S
C383 C385 1.433 . S
C384 C380 1.350 . S
C384 C381 1.463 . S
C384 N388 1.427 . S
C385 H375 0.929 . S
C385 C383 1.433 . S
C385 N388 1.384 . S
C386 H377 0.929 . S
C386 C378 1.378 . S
C386 C381 1.350 . S
C387 H374 0.929 . S
C387 C379 1.433 . S
C387 N389 1.384 . S
N388 C384 1.427 . S
N388 C385 1.384 . S
N389 C381 1.427 . S
N389 C387 1.384 . S
H390 C396 0.930 . S
H391 C400 0.930 . S
H392 C405 0.929 . S
H393 C403 0.929 . S
H394 C398 0.929 . S
H395 C404 0.929 . S
C396 H390 0.930 . S
C396 C397 1.367 . S
C396 C404 1.378 . S
C397 C396 1.367 . S
C397 C405 1.433 . S
C398 H394 0.929 . S
C398 C400 1.378 . S
C398 C402 1.350 . S
C399 C402 1.463 . S
C399 C404 1.350 . S
C399 N407 1.427 . S
C400 H391 0.930 . S
C400 C398 1.378 . S
C400 C401 1.367 . S
C401 C400 1.367 . S
C401 C403 1.433 . S
C402 C398 1.350 . S
C402 C399 1.463 . S
C402 N406 1.427 . S
C403 H393 0.929 . S
C403 C401 1.433 . S
C403 N406 1.384 . S
C404 H395 0.929 . S
C404 C396 1.378 . S
C404 C399 1.350 . S
C405 H392 0.929 . S
C405 C397 1.433 . S
C405 N407 1.384 . S
N406 C402 1.427 . S
N406 C403 1.384 . S
N407 C399 1.427 . S
N407 C405 1.384 . S
H408 C414 0.930 . S
H409 C418 0.930 . S
H410 C423 0.929 . S
H411 C421 0.929 . S
H412 C416 0.929 . S
H413 C422 0.929 . S
C414 H408 0.930 . S
C414 C415 1.367 . S
C414 C422 1.378 . S
C415 C414 1.367 . S
C415 C423 1.433 . S
C416 H412 0.929 . S
C416 C418 1.378 . S
C416 C420 1.350 . S
C417 C420 1.463 . S
C417 C422 1.350 . S
C417 N425 1.427 . S
C418 H409 0.930 . S
C418 C416 1.378 . S
C418 C419 1.367 . S
C419 C418 1.367 . S
C419 C421 1.433 . S
C420 C416 1.350 . S
C420 C417 1.463 . S
C420 N424 1.427 . S
C421 H411 0.929 . S
C421 C419 1.433 . S
C421 N424 1.384 . S
C422 H413 0.929 . S
C422 C414 1.378 . S
C422 C417 1.350 . S
C423 H410 0.929 . S
C423 C415 1.433 . S
C423 N425 1.384 . S
N424 C420 1.427 . S
N424 C421 1.384 . S
N425 C417 1.427 . S
N425 C423 1.384 . S
H426 C432 0.930 . S
H427 C436 0.930 . S
H428 C441 0.929 . S
H429 C439 0.929 . S
H430 C434 0.929 . S
H431 C440 0.929 . S
C432 H426 0.930 . S
C432 C433 1.367 . S
C432 C440 1.378 . S
C433 C432 1.367 . S
C433 C441 1.433 . S
C434 H430 0.929 . S
C434 C436 1.378 . S
C434 C438 1.350 . S
C435 C438 1.463 . S
C435 C440 1.350 . S
C435 N443 1.427 . S
C436 H427 0.930 . S
C436 C434 1.378 . S
C436 C437 1.367 . S
C437 C436 1.367 . S
C437 C439 1.433 . S
C438 C434 1.350 . S
C438 C435 1.463 . S
C438 N442 1.427 . S
C439 H429 0.929 . S
C439 C437 1.433 . S
C439 N442 1.384 . S
C440 H431 0.929 . S
C440 C432 1.378 . S
C440 C435 1.350 . S
C441 H428 0.929 . S
C441 C433 1.433 . S
C441 N443 1.384 . S
N442 C438 1.427 . S
N442 C439 1.384 . S
N443 C435 1.427 . S
N443 C441 1.384 . S
H444 C450 0.930 . S
H445 C454 0.930 . S
H446 C459 0.929 . S
H447 C457 0.929 . S
H448 C452 0.929 . S
H449 C458 0.929 . S
C450 H444 0.930 . S
C450 C451 1.367 . S
C450 C458 1.378 . S
C451 C450 1.367 . S
C451 C459 1.433 . S
C452 H448 0.929 . S
C452 C454 1.378 . S
C452 C456 1.350 . S
C453 C456 1.463 . S
C453 C458 1.350 . S
C453 N461 1.427 . S
C454 H445 0.930 . S
C454 C452 1.378 . S
C454 C455 1.367 . S
C455 C454 1.367 . S
C455 C457 1.433 . S
C456 C452 1.350 . S
C456 C453 1.463 . S
C456 N460 1.427 . S
C457 H447 0.929 . S
C457 C455 1.433 . S
C457 N460 1.384 . S
C458 H449 0.929 . S
C458 C450 1.378 . S
C458 C453 1.350 . S
C459 H446 0.929 . S
C459 C451 1.433 . S
C459 N461 1.384 . S
N460 C456 1.427 . S
N460 C457 1.384 . S
N461 C453 1.427 . S
N461 C459 1.384 . S
H462 C468 0.930 . S
H463 C472 0.930 . S
H464 C477 0.929 . S
H465 C475 0.929 . S
H466 C470 0.929 . S
H467 C476 0.929 . S
C468 H462 0.930 . S
C468 C469 1.367 . S
C468 C476 1.378 . S
C469 C468 1.367 . S
C469 C477 1.433 . S
C470 H466 0.929 . S
C470 C472 1.378 . S
C470 C474 1.350 . S
C471 C474 1.463 . S
C471 C476 1.350 . S
C471 N479 1.427 . S
C472 H463 0.930 . S
C472 C470 1.378 . S
C472 C473 1.367 . S
C473 C472 1.367 . S
C473 C475 1.433 . S
C474 C470 1.350 . S
C474 C471 1.463 . S
C474 N478 1.427 . S
C475 H465 0.929 . S
C475 C473 1.433 . S
C475 N478 1.384 . S
C476 H467 0.929 . S
C476 C468 1.378 . S
C476 C471 1.350 . S
C477 H464 0.929 . S
C477 C469 1.433 . S
C477 N479 1.384 . S
N478 C474 1.427 . S
N478 C475 1.384 . S
N479 C471 1.427 . S
N479 C477 1.384 . S
H480 C486 0.930 . S
H481 C490 0.930 . S
H482 C495 0.929 . S
H483 C493 0.929 . S
H484 C488 0.929 . S
H485 C494 0.929 . S
C486 H480 0.930 . S
C486 C487 1.367 . S
C486 C494 1.378 . S
C487 C486 1.367 . S
C487 C495 1.433 . S
C488 H484 0.929 . S
C488 C490 1.378 . S
C488 C492 1.350 . S
C489 C492 1.463 . S
C489 C494 1.350 . S
C489 N497 1.427 . S
C490 H481 0.930 . S
C490 C488 1.378 . S
C490 C491 1.367 . S
C491 C490 1.367 . S
C491 C493 1.433 . S
C492 C488 1.350 . S
C492 C489 1.463 . S
C492 N496 1.427 . S
C493 H483 0.929 . S
C493 C491 1.433 . S
C493 N496 1.384 . S
C494 H485 0.929 . S
C494 C486 1.378 . S
C494 C489 1.350 . S
C495 H482 0.929 . S
C495 C487 1.433 . S
C495 N497 1.384 . S
N496 C492 1.427 . S
N496 C493 1.384 . S
N497 C489 1.427 . S
N497 C495 1.384 . S
H498 C504 0.930 . S
H499 C508 0.930 . S
H500 C513 0.929 . S
H501 C511 0.929 . S
H502 C506 0.929 . S
H503 C512 0.929 . S
C504 H498 0.930 . S
C504 C505 1.367 . S
C504 C512 1.378 . S
C505 C504 1.367 . S
C505 C513 1.433 . S
C506 H502 0.929 . S
C506 C508 1.378 . S
C506 C510 1.350 . S
C507 C510 1.463 . S
C507 C512 1.350 . S
C507 N515 1.427 . S
C508 H499 0.930 . S
C508 C506 1.378 . S
C508 C509 1.367 . S
C509 C508 1.367 . S
C509 C511 1.433 . S
C510 C506 1.350 . S
C510 C507 1.463 . S
C510 N514 1.427 . S
C511 H501 0.929 . S
C511 C509 1.433 . S
C511 N514 1.384 . S
C512 H503 0.929 . S
C512 C504 1.378 . S
C512 C507 1.350 . S
C513 H500 0.929 . S
C513 C505 1.433 . S
C513 N515 1.384 . S
N514 C510 1.427 . S
N514 C511 1.384 . S
N515 C507 1.427 . S
N515 C513 1.384 . S
H516 C522 0.930 . S
H517 C526 0.930 . S
H518 C531 0.929 . S
H519 C529 0.929 . S
H520 C524 0.929 . S
H521 C530 0.929 . S
C522 H516 0.930 . S
C522 C523 1.367 . S
C522 C530 1.378 . S
C523 C522 1.367 . S
C523 C531 1.433 . S
C524 H520 0.929 . S
C524 C526 1.378 . S
C524 C528 1.350 . S
C525 C528 1.463 . S
C525 C530 1.350 . S
C525 N533 1.427 . S
C526 H517 0.930 . S
C526 C524 1.378 . S
C526 C527 1.367 . S
C527 C526 1.367 . S
C527 C529 1.433 . S
C528 C524 1.350 . S
C528 C525 1.463 . S
C528 N532 1.427 . S
C529 H519 0.929 . S
C529 C527 1.433 . S
C529 N532 1.384 . S
C530 H521 0.929 . S
C530 C522 1.378 . S
C530 C525 1.350 . S
C531 H518 0.929 . S
C531 C523 1.433 . S
C531 N533 1.384 . S
N532 C528 1.427 . S
N532 C529 1.384 . S
N533 C525 1.427 . S
N533 C531 1.384 . S
H534 C540 0.930 . S
H535 C544 0.930 . S
H536 C549 0.929 . S
H537 C547 0.929 . S
H538 C542 0.929 . S
H539 C548 0.929 . S
C540 H534 0.930 . S
C540 C541 1.367 . S
C540 C548 1.378 . S
C541 C540 1.367 . S
C541 C549 1.433 . S
C542 H538 0.929 . S
C542 C544 1.378 . S
C542 C546 1.350 . S
C543 C546 1.463 . S
C543 C548 1.350 . S
C543 N551 1.427 . S
C544 H535 0.930 . S
C544 C542 1.378 . S
C544 C545 1.367 . S
C545 C544 1.367 . S
C545 C547 1.433 . S
C546 C542 1.350 . S
C546 C543 1.463 . S
C546 N550 1.427 . S
C547 H537 0.929 . S
C547 C545 1.433 . S
C547 N550 1.384 . S
C548 H539 0.929 . S
C548 C540 1.378 . S
C548 C543 1.350 . S
C549 H536 0.929 . S
C549 C541 1.433 . S
C549 N551 1.384 . S
N550 C546 1.427 . S
N550 C547 1.384 . S
N551 C543 1.427 . S
N551 C549 1.384 . S
H552 C558 0.930 . S
H553 C562 0.930 . S
H554 C567 0.929 . S
H555 C565 0.929 1_655 S
H556 C560 0.929 . S
H557 C566 0.929 . S
C558 H552 0.930 . S
C558 C559 1.367 1_655 S
C558 C566 1.378 . S
C559 C558 1.367 1_455 S
C559 C567 1.433 . S
C560 H556 0.929 . S
C560 C562 1.378 . S
C560 C564 1.350 . S
C561 C564 1.463 . S
C561 C566 1.350 1_455 S
C561 N569 1.427 . S
C562 H553 0.930 . S
C562 C560 1.378 . S
C562 C563 1.367 . S
C563 C562 1.367 . S
C563 C565 1.433 . S
C564 C560 1.350 . S
C564 C561 1.463 . S
C564 N568 1.423 1_455 S
C565 H555 0.929 1_455 S
C565 C563 1.433 . S
C565 N568 1.382 1_455 S
C566 H557 0.929 . S
C566 C558 1.378 . S
C566 C561 1.350 1_655 S
C567 H554 0.929 . S
C567 C559 1.433 . S
C567 N569 1.384 . S
N568 C564 1.423 1_655 S
N568 C565 1.382 1_655 S
N569 C561 1.427 . S
N569 C567 1.384 . S
H570 C576 0.930 . S
H571 C580 0.930 . S
H572 C585 0.929 . S
H573 C583 0.929 . S
H574 C578 0.929 . S
H575 C584 0.929 . S
C576 H570 0.930 . S
C576 C577 1.367 . S
C576 C584 1.378 . S
C577 C576 1.367 . S
C577 C585 1.433 1_545 S
C578 H574 0.929 . S
C578 C580 1.378 . S
C578 C582 1.350 1_565 S
C579 C582 1.463 . S
C579 C584 1.350 . S
C579 N587 1.427 1_545 S
C580 H571 0.930 . S
C580 C578 1.378 . S
C580 C581 1.367 1_565 S
C581 C580 1.367 1_545 S
C581 C583 1.433 . S
C582 C578 1.350 1_545 S
C582 C579 1.463 . S
C582 N586 1.427 . S
C583 H573 0.929 . S
C583 C581 1.433 . S
C583 N586 1.384 . S
C584 H575 0.929 . S
C584 C576 1.378 . S
C584 C579 1.350 . S
C585 H572 0.929 . S
C585 C577 1.433 1_565 S
C585 N587 1.384 . S
N586 C582 1.427 . S
N586 C583 1.384 . S
N587 C579 1.427 1_565 S
N587 C585 1.384 . S
H588 C594 0.930 . S
H589 C598 0.930 . S
H590 C603 0.929 . S
H591 C601 0.929 . S
H592 C596 0.929 . S
H593 C602 0.929 . S
C594 H588 0.930 . S
C594 C595 1.367 . S
C594 C602 1.378 . S
C595 C594 1.367 . S
C595 C603 1.433 . S
C596 H592 0.929 . S
C596 C598 1.378 . S
C596 C600 1.350 . S
C597 C600 1.463 . S
C597 C602 1.350 . S
C597 N605 1.427 . S
C598 H589 0.930 . S
C598 C596 1.378 . S
C598 C599 1.367 . S
C599 C598 1.367 . S
C599 C601 1.433 . S
C600 C596 1.350 . S
C600 C597 1.463 . S
C600 N604 1.427 . S
C601 H591 0.929 . S
C601 C599 1.433 . S
C601 N604 1.384 . S
C602 H593 0.929 . S
C602 C594 1.378 . S
C602 C597 1.350 . S
C603 H590 0.929 . S
C603 C595 1.433 . S
C603 N605 1.384 . S
N604 C600 1.427 . S
N604 C601 1.384 . S
N605 C597 1.427 . S
N605 C603 1.384 . S
H606 C612 0.930 . S
H607 C616 0.930 . S
H608 C621 0.929 . S
H609 C619 0.929 . S
H610 C614 0.929 . S
H611 C620 0.929 . S
C612 H606 0.930 . S
C612 C613 1.367 . S
C612 C620 1.378 . S
C613 C612 1.367 . S
C613 C621 1.433 1_545 S
C614 H610 0.929 . S
C614 C616 1.378 . S
C614 C618 1.350 1_565 S
C615 C618 1.463 . S
C615 C620 1.350 . S
C615 N623 1.427 1_545 S
C616 H607 0.930 . S
C616 C614 1.378 . S
C616 C617 1.367 1_565 S
C617 C616 1.367 1_545 S
C617 C619 1.433 . S
C618 C614 1.350 1_545 S
C618 C615 1.463 . S
C618 N622 1.427 . S
C619 H609 0.929 . S
C619 C617 1.433 . S
C619 N622 1.384 . S
C620 H611 0.929 . S
C620 C612 1.378 . S
C620 C615 1.350 . S
C621 H608 0.929 . S
C621 C613 1.433 1_565 S
C621 N623 1.384 . S
N622 C618 1.427 . S
N622 C619 1.384 . S
N623 C615 1.427 1_565 S
N623 C621 1.384 . S
H624 C630 0.930 . S
H625 C634 0.930 . S
H626 C639 0.929 . S
H627 C637 0.929 . S
H628 C632 0.929 . S
H629 C638 0.929 . S
C630 H624 0.930 . S
C630 C631 1.367 . S
C630 C638 1.378 . S
C631 C630 1.367 . S
C631 C639 1.433 . S
C632 H628 0.929 . S
C632 C634 1.378 . S
C632 C636 1.350 . S
C633 C636 1.463 . S
C633 C638 1.350 . S
C633 N641 1.427 . S
C634 H625 0.930 . S
C634 C632 1.378 . S
C634 C635 1.367 . S
C635 C634 1.367 . S
C635 C637 1.433 . S
C636 C632 1.350 . S
C636 C633 1.463 . S
C636 N640 1.427 . S
C637 H627 0.929 . S
C637 C635 1.433 . S
C637 N640 1.384 . S
C638 H629 0.929 . S
C638 C630 1.378 . S
C638 C633 1.350 . S
C639 H626 0.929 . S
C639 C631 1.433 . S
C639 N641 1.384 . S
N640 C636 1.427 . S
N640 C637 1.384 . S
N641 C633 1.427 . S
N641 C639 1.384 . S
H642 C648 0.930 . S
H643 C652 0.930 . S
H644 C657 0.929 . S
H645 C655 0.929 . S
H646 C650 0.929 1_655 S
H647 C656 0.929 . S
C648 H642 0.930 . S
C648 C649 1.367 . S
C648 C656 1.378 . S
C649 C648 1.367 . S
C649 C657 1.433 1_455 S
C650 H646 0.929 1_455 S
C650 C652 1.378 . S
C650 C654 1.350 . S
C651 C654 1.463 . S
C651 C656 1.350 . S
C651 N659 1.434 1_455 S
C652 H643 0.930 . S
C652 C650 1.378 . S
C652 C653 1.367 . S
C653 C652 1.367 . S
C653 C655 1.433 . S
C654 C650 1.350 . S
C654 C651 1.463 . S
C654 N658 1.427 . S
C655 H645 0.929 . S
C655 C653 1.433 . S
C655 N658 1.384 . S
C656 H647 0.929 . S
C656 C648 1.378 . S
C656 C651 1.350 . S
C657 H644 0.929 . S
C657 C649 1.433 1_655 S
C657 N659 1.385 . S
N658 C654 1.427 . S
N658 C655 1.384 . S
N659 C651 1.434 1_655 S
N659 C657 1.385 . S
C343 C12 2.947 . S
C347 C325 2.877 . S
C361 C52 2.943 . S
C365 C253 2.869 . S
C379 C111 2.997 . S
C383 C289 2.922 . S
C397 C31 3.138 . S
C401 C301 3.085 . S
C419 C229 3.090 . S
C415 C71 3.143 . S
C437 C265 3.031 . S
C433 C92 3.084 . S
C451 C48 0.502 . S
C455 C181 0.472 . S
C469 C109 0.535 . S
C473 C193 0.479 . S
C487 C29 0.497 . S
C491 C121 0.439 . S
C509 C157 0.321 . S
C505 C69 0.431 . S
C527 C217 0.384 . S
C523 C88 0.302 . S
C541 C8 0.310 . S
C545 C145 0.345 . S
C563 C223 1.078 1_554 S
C559 C17 1.061 . S
C577 C57 1.065 . S
C581 C151 1.063 . S
C595 C97 1.078 . S
C599 C187 1.086 . S
C617 C295 1.785 . S
C613 C42 1.720 . S
C635 C331 1.782 1_556 S
C631 C82 1.734 . S
C649 C2 1.734 . S
C653 C259 1.784 . S
