# Generated by pormake.
# Topology rtl, (3,6)-cn, num edge types: 1
# Building blocks:
#     Node 0, Type 0, BuildingBlock: CUQRIR_clean_linker_1, # of connection points: 3
#     Node 1, Type 0, BuildingBlock: CUQRIR_clean_linker_1, # of connection points: 3
#     Node 2, Type 0, BuildingBlock: CUQRIR_clean_linker_1, # of connection points: 3
#     Node 3, Type 0, BuildingBlock: CUQRIR_clean_linker_1, # of connection points: 3
#     Node 4, Type 1, BuildingBlock: VOLQOD_clean_sbu_1, # of connection points: 6
#     Node 5, Type 1, BuildingBlock: VOLQOD_clean_sbu_1, # of connection points: 6
#     Edge 6, Type (0, 1), BuildingBlock: TEMPAE_clean_linker_10, # of connection points: 2
#     Edge 7, Type (0, 1), BuildingBlock: TEMPAE_clean_linker_10, # of connection points: 2
#     Edge 8, Type (0, 1), BuildingBlock: TEMPAE_clean_linker_10, # of connection points: 2
#     Edge 9, Type (0, 1), BuildingBlock: TEMPAE_clean_linker_10, # of connection points: 2
#     Edge 10, Type (0, 1), BuildingBlock: TEMPAE_clean_linker_10, # of connection points: 2
#     Edge 11, Type (0, 1), BuildingBlock: TEMPAE_clean_linker_10, # of connection points: 2
#     Edge 12, Type (0, 1), BuildingBlock: TEMPAE_clean_linker_10, # of connection points: 2
#     Edge 13, Type (0, 1), BuildingBlock: TEMPAE_clean_linker_10, # of connection points: 2
#     Edge 14, Type (0, 1), BuildingBlock: TEMPAE_clean_linker_10, # of connection points: 2
#     Edge 15, Type (0, 1), BuildingBlock: TEMPAE_clean_linker_10, # of connection points: 2
#     Edge 16, Type (0, 1), BuildingBlock: TEMPAE_clean_linker_10, # of connection points: 2
#     Edge 17, Type (0, 1), BuildingBlock: TEMPAE_clean_linker_10, # of connection points: 2
# Relax obj value: 0.040
# Max RMSD: 0.143
# Mean RMSD: 0.104
data_MOF--net-rtl--node1-VOLQOD_clean_sbu_1--node2-CUQRIR_clean_linker_1--edge1-TEMPAE_clean_linker_10
_symmetry_space_group_name_H-M    P1
_symmetry_Int_Tables_number       1
_symmetry_cell_setting            triclinic
loop_
_symmetry_equiv_pos_as_xyz
'x, y, z'
_cell_length_a     35.905831
_cell_length_b     36.254635
_cell_length_c     20.317768
_cell_angle_alpha  90.06078
_cell_angle_beta   90.346667
_cell_angle_gamma 90.106475
loop_
_atom_site_label
_atom_site_type_symbol
_atom_site_fract_x
_atom_site_fract_y
_atom_site_fract_z
_atom_type_partial_charge
C0 C 0.17916 0.74886 0.95438 0.0
N1 N 0.15541 0.77559 0.97384 0.0
N2 N 0.19218 0.72989 0.00688 0.0
C3 C 0.19052 0.74174 0.88444 0.0
C4 C 0.1758 0.74617 0.05909 0.0
N5 N 0.1532 0.77381 0.03897 0.0
C6 C 0.18494 0.73771 0.12973 0.0
H7 H 0.16779 0.74928 0.84974 0.0
H8 H 0.19801 0.71231 0.87753 0.0
H9 H 0.21534 0.75879 0.87301 0.0
H10 H 0.2099 0.75386 0.14458 0.0
H11 H 0.19138 0.70801 0.13603 0.0
H12 H 0.16153 0.74546 0.16235 0.0
C13 C 0.69356 0.73799 0.55279 0.0
N14 N 0.66989 0.71123 0.53231 0.0
N15 N 0.7123 0.75237 0.50099 0.0
C16 C 0.69829 0.75006 0.62326 0.0
C17 C 0.69892 0.73338 0.44837 0.0
N18 N 0.67327 0.70835 0.46754 0.0
C19 C 0.71227 0.73767 0.37876 0.0
H20 H 0.70787 0.77913 0.62621 0.0
H21 H 0.71936 0.73219 0.64741 0.0
H22 H 0.67193 0.74726 0.65087 0.0
H23 H 0.74195 0.74622 0.37779 0.0
H24 H 0.69537 0.75919 0.35389 0.0
H25 H 0.7089 0.71153 0.35087 0.0
C26 C 0.79709 0.23551 0.05582 0.0
N27 N 0.82129 0.20904 0.03717 0.0
N28 N 0.78094 0.25134 0.00238 0.0
C29 C 0.79001 0.24643 0.12611 0.0
C30 C 0.79649 0.23353 0.95067 0.0
N31 N 0.82109 0.20791 0.9719 0.0
C32 C 0.78583 0.23921 0.87966 0.0
H33 H 0.76734 0.22892 0.14597 0.0
H34 H 0.78147 0.27576 0.12949 0.0
H35 H 0.81511 0.24209 0.15717 0.0
H36 H 0.80397 0.26087 0.85833 0.0
H37 H 0.75641 0.2482 0.87509 0.0
H38 H 0.78976 0.21348 0.8509 0.0
C39 C 0.32481 0.24025 0.44306 0.0
N40 N 0.34757 0.26826 0.46146 0.0
N41 N 0.30844 0.22496 0.49623 0.0
C42 C 0.31553 0.23036 0.37301 0.0
C43 C 0.32166 0.24489 0.54752 0.0
N44 N 0.34553 0.27118 0.52649 0.0
C45 C 0.30975 0.23973 0.61771 0.0
H46 H 0.33872 0.23783 0.33967 0.0
H47 H 0.29027 0.24578 0.35759 0.0
H48 H 0.30945 0.20045 0.36852 0.0
H49 H 0.30176 0.21059 0.62676 0.0
H50 H 0.28513 0.25735 0.62729 0.0
H51 H 0.33238 0.24794 0.6522 0.0
O52 O 0.91373 0.97253 0.5072 0.0
Zn53 Zn 0.94816 0.01665 0.50687 0.0
O54 O 0.00032 0.00093 0.50526 0.0
Zn55 Zn 0.02584 0.02001 0.58377 0.0
Zn56 Zn 0.00353 0.94717 0.50474 0.0
Zn57 Zn 0.024 0.01955 0.42537 0.0
O58 O 0.06991 0.05116 0.55798 0.0
O59 O 0.06779 0.05179 0.44864 0.0
O60 O 0.93724 0.04695 0.5875 0.0
O61 O 0.99147 0.05052 0.64008 0.0
O62 O 0.04441 0.97879 0.64154 0.0
O63 O 0.02901 0.92811 0.58635 0.0
O64 O 0.03157 0.92819 0.42648 0.0
O65 O 0.93556 0.04783 0.42736 0.0
O66 O 0.04281 0.97845 0.36768 0.0
O67 O 0.98814 0.04888 0.37031 0.0
C68 C 0.91961 0.93797 0.50289 0.0
C69 C 0.08298 0.06151 0.50279 0.0
C70 C 0.04367 0.94381 0.63629 0.0
C71 C 0.95698 0.05832 0.63573 0.0
C72 C 0.04456 0.94366 0.37532 0.0
C73 C 0.95416 0.0579 0.37725 0.0
O74 O 0.95243 0.92486 0.50028 0.0
O75 O 0.58194 0.47352 0.99517 0.0
Zn76 Zn 0.54666 0.51687 0.99632 0.0
O77 O 0.49476 0.50002 0.9961 0.0
Zn78 Zn 0.46875 0.51944 0.91855 0.0
Zn79 Zn 0.49256 0.44624 0.99259 0.0
Zn80 Zn 0.47084 0.51711 0.07694 0.0
O81 O 0.42483 0.55015 0.946 0.0
O82 O 0.42641 0.54873 0.05536 0.0
O83 O 0.55704 0.54871 0.91697 0.0
O84 O 0.50289 0.55059 0.86352 0.0
O85 O 0.4498 0.47897 0.85895 0.0
O86 O 0.46441 0.42798 0.91334 0.0
O87 O 0.4681 0.42517 0.07314 0.0
O88 O 0.55864 0.54705 0.07704 0.0
O89 O 0.45363 0.47446 0.13254 0.0
O90 O 0.50597 0.54697 0.13352 0.0
C91 C 0.57658 0.43889 0.9899 0.0
C92 C 0.41146 0.55935 0.0016 0.0
C93 C 0.44974 0.44399 0.86393 0.0
C94 C 0.53707 0.55961 0.86873 0.0
C95 C 0.45432 0.43963 0.12467 0.0
C96 C 0.5399 0.55652 0.12729 0.0
O97 O 0.54398 0.42513 0.98709 0.0
C98 C 0.28105 0.16327 0.48424 0.0
C99 C 0.27676 0.20092 0.49643 0.0
C100 C 0.25013 0.13954 0.48502 0.0
C101 C 0.21431 0.15418 0.49781 0.0
C102 C 0.21005 0.19242 0.50976 0.0
C103 C 0.24148 0.21534 0.50915 0.0
C104 C 0.25575 0.09889 0.47253 0.0
C105 C 0.17233 0.20912 0.52304 0.0
C106 C 0.1288 0.10078 0.4422 0.0
C107 C 0.11678 0.08499 0.50146 0.0
C108 C 0.16069 0.12313 0.44021 0.0
C109 C 0.1812 0.12962 0.49877 0.0
C110 C 0.1695 0.11351 0.5586 0.0
C111 C 0.13734 0.0915 0.55929 0.0
C112 C 0.1722 0.14013 0.3756 0.0
C113 C 0.19086 0.11968 0.62194 0.0
H114 H 0.30864 0.15256 0.47459 0.0
H115 H 0.23868 0.24467 0.51824 0.0
H116 H 0.24577 0.08272 0.5153 0.0
H117 H 0.23907 0.09007 0.42912 0.0
H118 H 0.28543 0.09195 0.46371 0.0
H119 H 0.17385 0.23943 0.53075 0.0
H120 H 0.1532 0.20343 0.48115 0.0
H121 H 0.15995 0.19632 0.5674 0.0
H122 H 0.11309 0.09596 0.39728 0.0
H123 H 0.12841 0.07926 0.60524 0.0
H124 H 0.20106 0.1318 0.36343 0.0
H125 H 0.17201 0.17065 0.37978 0.0
H126 H 0.15352 0.13193 0.33431 0.0
H127 H 0.22024 0.11091 0.61591 0.0
H128 H 0.17866 0.10432 0.66392 0.0
H129 H 0.19121 0.14949 0.63428 0.0
C130 C 0.21702 0.66754 0.0226 0.0
C131 C 0.22284 0.70472 0.00796 0.0
C132 C 0.24686 0.64259 0.02262 0.0
C133 C 0.28317 0.65552 0.00819 0.0
C134 C 0.28903 0.69332 0.99398 0.0
C135 C 0.25863 0.71747 0.99374 0.0
C136 C 0.23953 0.60245 0.03744 0.0
C137 C 0.32734 0.70823 0.97895 0.0
C138 C 0.36711 0.59978 0.06296 0.0
C139 C 0.37797 0.58309 0.00377 0.0
C140 C 0.33602 0.62312 0.06529 0.0
C141 C 0.3151 0.62958 0.00722 0.0
C142 C 0.32546 0.61229 0.94762 0.0
C143 C 0.35689 0.58941 0.94652 0.0
C144 C 0.32598 0.6414 0.1296 0.0
C145 C 0.30355 0.61829 0.88484 0.0
H146 H 0.18905 0.65813 0.03333 0.0
H147 H 0.26262 0.74645 0.98271 0.0
H148 H 0.24812 0.58518 0.99506 0.0
H149 H 0.2564 0.59363 0.08054 0.0
H150 H 0.2097 0.59695 0.04787 0.0
H151 H 0.32716 0.73848 0.97027 0.0
H152 H 0.34664 0.7022 0.0204 0.0
H153 H 0.33861 0.6944 0.93462 0.0
H154 H 0.38327 0.59513 0.1074 0.0
H155 H 0.3649 0.57641 0.90068 0.0
H156 H 0.29682 0.63466 0.14281 0.0
H157 H 0.32778 0.67181 0.12435 0.0
H158 H 0.34457 0.63277 0.17068 0.0
H159 H 0.27385 0.61108 0.89254 0.0
H160 H 0.31436 0.6016 0.84327 0.0
H161 H 0.3046 0.64784 0.87083 0.0
C162 C 0.77104 0.77746 0.54544 0.0
C163 C 0.74086 0.78028 0.50182 0.0
C164 C 0.7991 0.80438 0.54681 0.0
C165 C 0.79755 0.83409 0.50172 0.0
C166 C 0.76729 0.83686 0.45702 0.0
C167 C 0.73896 0.81018 0.45839 0.0
C168 C 0.83051 0.80088 0.59618 0.0
C169 C 0.76517 0.8676 0.40707 0.0
C170 C 0.8554 0.91981 0.53653 0.0
C171 C 0.88778 0.91227 0.50086 0.0
C172 C 0.82575 0.89453 0.53747 0.0
C173 C 0.82822 0.86161 0.50016 0.0
C174 C 0.86045 0.85447 0.46249 0.0
C175 C 0.89011 0.87964 0.46416 0.0
C176 C 0.79226 0.90255 0.57968 0.0
C177 C 0.86366 0.82019 0.42059 0.0
H178 H 0.77279 0.75396 0.57816 0.0
H179 H 0.71535 0.8125 0.42525 0.0
H180 H 0.8572 0.79647 0.57017 0.0
H181 H 0.83333 0.82676 0.625 0.0
H182 H 0.82614 0.77761 0.63085 0.0
H183 H 0.74003 0.86544 0.37514 0.0
H184 H 0.76481 0.89471 0.43237 0.0
H185 H 0.79025 0.86708 0.37542 0.0
H186 H 0.85375 0.94495 0.56531 0.0
H187 H 0.91505 0.87399 0.43607 0.0
H188 H 0.78885 0.88037 0.61679 0.0
H189 H 0.76661 0.90285 0.54901 0.0
H190 H 0.79468 0.92941 0.60574 0.0
H191 H 0.86335 0.79532 0.45232 0.0
H192 H 0.88961 0.81991 0.39108 0.0
H193 H 0.83943 0.8181 0.38661 0.0
C194 C 0.72119 0.27691 0.03964 0.0
C195 C 0.75309 0.27985 0.00075 0.0
C196 C 0.69377 0.30437 0.03843 0.0
C197 C 0.6978 0.3348 0.99542 0.0
C198 C 0.72985 0.33774 0.95552 0.0
C199 C 0.75744 0.31048 0.95954 0.0
C200 C 0.66037 0.30064 0.08278 0.0
C201 C 0.73466 0.36925 0.90778 0.0
C202 C 0.60741 0.38209 0.94875 0.0
C203 C 0.60872 0.41377 0.98821 0.0
C204 C 0.63695 0.35688 0.94873 0.0
C205 C 0.66787 0.36292 0.99096 0.0
C206 C 0.66942 0.39503 0.03066 0.0
C207 C 0.64001 0.42046 0.02795 0.0
C208 C 0.63484 0.32357 0.90414 0.0
C209 C 0.70143 0.40183 0.07768 0.0
H210 H 0.71759 0.25289 0.07061 0.0
H211 H 0.78239 0.3129 0.93017 0.0
H212 H 0.65689 0.3261 0.11247 0.0
H213 H 0.63475 0.29713 0.05266 0.0
H214 H 0.66284 0.27675 0.11672 0.0
H215 H 0.761 0.36717 0.87964 0.0
H216 H 0.71097 0.3697 0.87244 0.0
H217 H 0.73448 0.39592 0.93454 0.0
H218 H 0.58329 0.37714 0.91759 0.0
H219 H 0.6408 0.44485 0.05886 0.0
H220 H 0.633 0.29809 0.93413 0.0
H221 H 0.6605 0.32153 0.87417 0.0
H222 H 0.61037 0.32454 0.87048 0.0
H223 H 0.70272 0.37925 0.11446 0.0
H224 H 0.69876 0.42851 0.10418 0.0
H225 H 0.72821 0.40174 0.05078 0.0
C226 C 0.15978 0.82771 0.11077 0.0
C227 C 0.13697 0.80135 0.08052 0.0
C228 C 0.14512 0.85271 0.15644 0.0
C229 C 0.10665 0.85134 0.17133 0.0
C230 C 0.08334 0.82533 0.13907 0.0
C231 C 0.09898 0.80022 0.09458 0.0
C232 C 0.17098 0.87961 0.19047 0.0
C233 C 0.04213 0.82331 0.15297 0.0
C234 C 0.07462 0.88523 0.33827 0.0
C235 C 0.0613 0.92058 0.32327 0.0
C236 C 0.08993 0.86267 0.28936 0.0
C237 C 0.09126 0.87548 0.22362 0.0
C238 C 0.07779 0.9111 0.20805 0.0
C239 C 0.0633 0.93341 0.25826 0.0
C240 C 0.10466 0.82508 0.30807 0.0
C241 C 0.07819 0.92538 0.13827 0.0
H242 H 0.18928 0.82794 0.09976 0.0
H243 H 0.0818 0.77911 0.0719 0.0
H244 H 0.16055 0.90819 0.18449 0.0
H245 H 0.17179 0.87366 0.24403 0.0
H246 H 0.19981 0.87818 0.1711 0.0
H247 H 0.02743 0.80384 0.11945 0.0
H248 H 0.0377 0.81419 0.20444 0.0
H249 H 0.02933 0.851 0.14781 0.0
H250 H 0.07337 0.87528 0.38851 0.0
H251 H 0.05277 0.96061 0.24631 0.0
H252 H 0.13424 0.82256 0.29325 0.0
H253 H 0.08882 0.80333 0.28151 0.0
H254 H 0.10267 0.81976 0.36177 0.0
H255 H 0.1071 0.9257 0.11933 0.0
H256 H 0.06653 0.95366 0.1343 0.0
H257 H 0.06176 0.90671 0.1059 0.0
C258 C 0.65755 0.65223 0.58658 0.0
C259 C 0.64688 0.68847 0.57311 0.0
C260 C 0.63737 0.63055 0.63099 0.0
C261 C 0.60663 0.64614 0.6643 0.0
C262 C 0.59544 0.68273 0.64989 0.0
C263 C 0.61557 0.70337 0.60372 0.0
C264 C 0.64974 0.59143 0.64389 0.0
C265 C 0.56331 0.70057 0.68526 0.0
C266 C 0.53945 0.58236 0.7527 0.0
C267 C 0.55409 0.5826 0.81689 0.0
C268 C 0.55622 0.60293 0.70239 0.0
C269 C 0.5878 0.62492 0.7171 0.0
C270 C 0.60215 0.62594 0.78218 0.0
C271 C 0.58539 0.6044 0.83112 0.0
C272 C 0.5407 0.6005 0.63327 0.0
C273 C 0.63534 0.64966 0.80005 0.0
H274 H 0.68241 0.64133 0.56386 0.0
H275 H 0.60782 0.73163 0.59313 0.0
H276 H 0.66104 0.58922 0.69466 0.0
H277 H 0.62569 0.57227 0.64006 0.0
H278 H 0.67156 0.58232 0.60892 0.0
H279 H 0.55708 0.72859 0.66606 0.0
H280 H 0.53791 0.6833 0.68052 0.0
H281 H 0.56995 0.7028 0.73854 0.0
H282 H 0.51541 0.56531 0.74137 0.0
H283 H 0.59661 0.60489 0.88078 0.0
H284 H 0.56229 0.58956 0.59964 0.0
H285 H 0.53305 0.62835 0.61524 0.0
H286 H 0.51575 0.5824 0.63012 0.0
H287 H 0.66022 0.64013 0.77281 0.0
H288 H 0.64176 0.64892 0.85358 0.0
H289 H 0.63014 0.67869 0.78541 0.0
C290 C 0.83017 0.15094 0.09645 0.0
C291 C 0.84306 0.18607 0.07992 0.0
C292 C 0.84953 0.12912 0.14209 0.0
C293 C 0.88168 0.14358 0.17364 0.0
C294 C 0.89476 0.17924 0.15684 0.0
C295 C 0.87538 0.19996 0.10947 0.0
C296 C 0.83513 0.09097 0.15755 0.0
C297 C 0.92839 0.19596 0.19045 0.0
C298 C 0.90571 0.103 0.34074 0.0
C299 C 0.93586 0.08011 0.32542 0.0
C300 C 0.88829 0.12436 0.29195 0.0
C301 C 0.90069 0.12197 0.22604 0.0
C302 C 0.93087 0.09861 0.21017 0.0
C303 C 0.94842 0.07832 0.26025 0.0
C304 C 0.85668 0.14957 0.31099 0.0
C305 C 0.94423 0.09464 0.14018 0.0
H306 H 0.80453 0.14093 0.07438 0.0
H307 H 0.88465 0.22751 0.09685 0.0
H308 H 0.85783 0.07043 0.15275 0.0
H309 H 0.82533 0.08996 0.20918 0.0
H310 H 0.81173 0.08273 0.12462 0.0
H311 H 0.93533 0.22369 0.17075 0.0
H312 H 0.92314 0.19847 0.24404 0.0
H313 H 0.95292 0.17774 0.18443 0.0
H314 H 0.89611 0.10464 0.39115 0.0
H315 H 0.97153 0.06039 0.24812 0.0
H316 H 0.83075 0.14101 0.28522 0.0
H317 H 0.86294 0.17825 0.29546 0.0
H318 H 0.85149 0.14944 0.36483 0.0
H319 H 0.92102 0.08492 0.10822 0.0
H320 H 0.96776 0.07494 0.13594 0.0
H321 H 0.95332 0.12181 0.12095 0.0
C322 C 0.3991 0.30336 0.57567 0.0
C323 C 0.36069 0.30071 0.56549 0.0
C324 C 0.41397 0.32959 0.61934 0.0
C325 C 0.38958 0.35292 0.65471 0.0
C326 C 0.35072 0.35102 0.64283 0.0
C327 C 0.33678 0.32503 0.59784 0.0
C328 C 0.4556 0.33114 0.62988 0.0
C329 C 0.32376 0.37506 0.68004 0.0
C330 C 0.42309 0.38458 0.8228 0.0
C331 C 0.43323 0.4213 0.81063 0.0
C332 C 0.40841 0.36227 0.77258 0.0
C333 C 0.40435 0.37681 0.7083 0.0
C334 C 0.41449 0.41386 0.69558 0.0
C335 C 0.42851 0.4358 0.74711 0.0
C336 C 0.39733 0.32305 0.78832 0.0
C337 C 0.41108 0.43006 0.62738 0.0
H338 H 0.41731 0.28388 0.55154 0.0
H339 H 0.30704 0.32273 0.5894 0.0
H340 H 0.46565 0.36006 0.62729 0.0
H341 H 0.46256 0.32057 0.67966 0.0
H342 H 0.47083 0.31443 0.59295 0.0
H343 H 0.29473 0.37204 0.66154 0.0
H344 H 0.32439 0.36756 0.73298 0.0
H345 H 0.33204 0.40446 0.67637 0.0
H346 H 0.42645 0.37328 0.87185 0.0
H347 H 0.43656 0.46409 0.73729 0.0
H348 H 0.41424 0.30355 0.7589 0.0
H349 H 0.3677 0.31838 0.77478 0.0
H350 H 0.40112 0.31636 0.84128 0.0
H351 H 0.42832 0.41399 0.59249 0.0
H352 H 0.42004 0.45939 0.6257 0.0
H353 H 0.38182 0.42821 0.60984 0.0
C354 C 0.62368 0.70157 0.38525 0.0
C355 C 0.65099 0.68548 0.42512 0.0
C356 C 0.60397 0.68046 0.33878 0.0
C357 C 0.61186 0.64235 0.33253 0.0
C358 C 0.63893 0.62587 0.37407 0.0
C359 C 0.65853 0.64783 0.41947 0.0
C360 C 0.57561 0.69915 0.29502 0.0
C361 C 0.648 0.58532 0.36918 0.0
C362 C 0.54166 0.58194 0.24206 0.0
C363 C 0.55808 0.57867 0.17979 0.0
C364 C 0.55899 0.60231 0.29251 0.0
C365 C 0.59328 0.62024 0.2801 0.0
C366 C 0.60986 0.61727 0.21727 0.0
C367 C 0.59219 0.59635 0.16803 0.0
C368 C 0.54075 0.60451 0.35917 0.0
C369 C 0.64622 0.63635 0.20195 0.0
H370 H 0.61851 0.73091 0.38965 0.0
H371 H 0.68056 0.6359 0.44908 0.0
H372 H 0.58467 0.69749 0.24298 0.0
H373 H 0.54837 0.68481 0.29837 0.0
H374 H 0.57166 0.72863 0.30814 0.0
H375 H 0.66744 0.57625 0.40869 0.0
H376 H 0.62215 0.56861 0.37211 0.0
H377 H 0.66093 0.57946 0.32084 0.0
H378 H 0.51544 0.56818 0.25173 0.0
H379 H 0.60499 0.59411 0.12002 0.0
H380 H 0.53475 0.63368 0.37166 0.0
H381 H 0.55999 0.5938 0.39757 0.0
H382 H 0.51434 0.58855 0.36114 0.0
H383 H 0.64348 0.66648 0.21016 0.0
H384 H 0.6552 0.63164 0.15039 0.0
H385 H 0.66843 0.6263 0.23558 0.0
C386 C 0.87021 0.20272 0.88922 0.0
C387 C 0.84485 0.18567 0.93143 0.0
C388 C 0.89077 0.18199 0.84393 0.0
C389 C 0.88589 0.14324 0.84132 0.0
C390 C 0.86124 0.12578 0.88576 0.0
C391 C 0.84067 0.14735 0.9299 0.0
C392 C 0.91652 0.20169 0.79712 0.0
C393 C 0.85544 0.08454 0.88487 0.0
C394 C 0.90355 0.09534 0.67839 0.0
C395 C 0.93919 0.08046 0.68825 0.0
C396 C 0.88603 0.1159 0.72778 0.0
C397 C 0.90438 0.12142 0.78887 0.0
C398 C 0.94028 0.10641 0.79937 0.0
C399 C 0.95737 0.08628 0.74876 0.0
C400 C 0.84785 0.1318 0.71448 0.0
C401 C 0.96048 0.11142 0.86417 0.0
H402 H 0.87305 0.23248 0.89066 0.0
H403 H 0.82022 0.13445 0.96129 0.0
H404 H 0.94472 0.18931 0.79915 0.0
H405 H 0.90603 0.19847 0.74595 0.0
H406 H 0.91887 0.23161 0.80832 0.0
H407 H 0.8384 0.07496 0.92702 0.0
H408 H 0.84114 0.0764 0.83851 0.0
H409 H 0.88264 0.07008 0.88624 0.0
H410 H 0.88934 0.09112 0.63175 0.0
H411 H 0.98481 0.07469 0.75699 0.0
H412 H 0.84855 0.16221 0.72065 0.0
H413 H 0.82762 0.12078 0.75053 0.0
H414 H 0.83757 0.12535 0.66407 0.0
H415 H 0.96457 0.14122 0.87442 0.0
H416 H 0.98809 0.09765 0.86475 0.0
H417 H 0.94344 0.10003 0.90478 0.0
C418 C 0.34047 0.31892 0.38273 0.0
C419 C 0.36364 0.29522 0.41843 0.0
C420 C 0.35534 0.34358 0.33671 0.0
C421 C 0.39436 0.34471 0.32709 0.0
C422 C 0.41793 0.3214 0.36461 0.0
C423 C 0.40214 0.29651 0.40937 0.0
C424 C 0.32925 0.36761 0.29713 0.0
C425 C 0.45967 0.32212 0.35634 0.0
C426 C 0.42975 0.37868 0.16231 0.0
C427 C 0.43908 0.41541 0.17662 0.0
C428 C 0.41512 0.35542 0.21087 0.0
C429 C 0.41027 0.36904 0.27557 0.0
C430 C 0.42004 0.40595 0.29061 0.0
C431 C 0.43404 0.42881 0.24078 0.0
C432 C 0.40449 0.31635 0.19275 0.0
C433 C 0.4158 0.42121 0.35934 0.0
H434 H 0.31064 0.31746 0.39012 0.0
H435 H 0.41971 0.27742 0.4362 0.0
H436 H 0.33697 0.39706 0.3031 0.0
H437 H 0.33171 0.36084 0.24406 0.0
H438 H 0.29972 0.36403 0.31189 0.0
H439 H 0.47417 0.3044 0.39296 0.0
H440 H 0.46697 0.31242 0.30626 0.0
H441 H 0.47029 0.35075 0.36137 0.0
H442 H 0.43341 0.36818 0.11279 0.0
H443 H 0.44147 0.45709 0.25232 0.0
H444 H 0.37454 0.31166 0.203 0.0
H445 H 0.42052 0.29655 0.22332 0.0
H446 H 0.4097 0.31013 0.14005 0.0
H447 H 0.38615 0.42007 0.37421 0.0
H448 H 0.42565 0.4502 0.36337 0.0
H449 H 0.43176 0.40407 0.39484 0.0
C450 C 0.16199 0.82654 0.89523 0.0
C451 C 0.13914 0.80366 0.93299 0.0
C452 C 0.1466 0.85138 0.84983 0.0
C453 C 0.1074 0.85366 0.84306 0.0
C454 C 0.08421 0.83174 0.88349 0.0
C455 C 0.10046 0.80662 0.92753 0.0
C456 C 0.17228 0.87402 0.80729 0.0
C457 C 0.0423 0.83375 0.87842 0.0
C458 C 0.06722 0.93605 0.75179 0.0
C459 C 0.05999 0.9209 0.68938 0.0
C460 C 0.08227 0.91441 0.80266 0.0
C461 C 0.09078 0.87695 0.79045 0.0
C462 C 0.08376 0.86157 0.72749 0.0
C463 C 0.0682 0.88366 0.67789 0.0
C464 C 0.08888 0.93155 0.86951 0.0
C465 C 0.09293 0.82181 0.71237 0.0
H466 H 0.19196 0.82417 0.90021 0.0
H467 H 0.083 0.7883 0.95593 0.0
H468 H 0.16867 0.86583 0.75499 0.0
H469 H 0.16516 0.9037 0.81095 0.0
H470 H 0.20202 0.87042 0.82119 0.0
H471 H 0.0284 0.81789 0.9181 0.0
H472 H 0.03291 0.86286 0.88093 0.0
H473 H 0.03304 0.82253 0.83021 0.0
H474 H 0.06071 0.96475 0.76119 0.0
H475 H 0.06287 0.87179 0.62974 0.0
H476 H 0.11886 0.92994 0.88267 0.0
H477 H 0.07335 0.91599 0.90753 0.0
H478 H 0.08011 0.9609 0.87132 0.0
H479 H 0.123 0.81671 0.72136 0.0
H480 H 0.08624 0.81424 0.66063 0.0
H481 H 0.07717 0.80329 0.74556 0.0
loop_
_geom_bond_atom_site_label_1
_geom_bond_atom_site_label_2
_geom_bond_distance
_geom_bond_site_symmetry_2
_ccdc_geom_bond_type
C0 N1 1.317 . S
C0 N2 1.348 1_556 S
C0 C3 1.485 . S
N1 C0 1.317 . S
N1 N5 1.370 1_556 S
N2 C0 1.348 1_554 S
N2 C4 1.346 . S
C3 C0 1.485 . S
C3 H7 0.960 . S
C3 H8 0.961 . S
C3 H9 0.960 . S
C4 N2 1.346 . S
C4 N5 1.307 . S
C4 C6 1.486 . S
N5 N1 1.370 1_554 S
N5 C4 1.307 . S
C6 C4 1.486 . S
C6 H10 0.960 . S
C6 H11 0.960 . S
C6 H12 0.959 . S
H7 C3 0.960 . S
H8 C3 0.961 . S
H9 C3 0.960 . S
H10 C6 0.960 . S
H11 C6 0.960 . S
H12 C6 0.959 . S
C13 N14 1.317 . S
C13 N15 1.348 . S
C13 C16 1.485 . S
N14 C13 1.317 . S
N14 N18 1.370 . S
N15 C13 1.348 . S
N15 C17 1.346 . S
C16 C13 1.485 . S
C16 H20 0.960 . S
C16 H21 0.961 . S
C16 H22 0.960 . S
C17 N15 1.346 . S
C17 N18 1.307 . S
C17 C19 1.486 . S
N18 N14 1.370 . S
N18 C17 1.307 . S
C19 C17 1.486 . S
C19 H23 0.960 . S
C19 H24 0.960 . S
C19 H25 0.959 . S
H20 C16 0.960 . S
H21 C16 0.961 . S
H22 C16 0.960 . S
H23 C19 0.960 . S
H24 C19 0.960 . S
H25 C19 0.959 . S
C26 N27 1.317 . S
C26 N28 1.348 . S
C26 C29 1.485 . S
N27 C26 1.317 . S
N27 N31 1.370 1_554 S
N28 C26 1.348 . S
N28 C30 1.346 1_554 S
C29 C26 1.485 . S
C29 H33 0.960 . S
C29 H34 0.961 . S
C29 H35 0.960 . S
C30 N28 1.346 1_556 S
C30 N31 1.307 . S
C30 C32 1.486 . S
N31 N27 1.370 1_556 S
N31 C30 1.307 . S
C32 C30 1.486 . S
C32 H36 0.960 . S
C32 H37 0.960 . S
C32 H38 0.959 . S
H33 C29 0.960 . S
H34 C29 0.961 . S
H35 C29 0.960 . S
H36 C32 0.960 . S
H37 C32 0.960 . S
H38 C32 0.959 . S
C39 N40 1.317 . S
C39 N41 1.348 . S
C39 C42 1.485 . S
N40 C39 1.317 . S
N40 N44 1.370 . S
N41 C39 1.348 . S
N41 C43 1.346 . S
C42 C39 1.485 . S
C42 H46 0.960 . S
C42 H47 0.961 . S
C42 H48 0.960 . S
C43 N41 1.346 . S
C43 N44 1.307 . S
C43 C45 1.486 . S
N44 N40 1.370 . S
N44 C43 1.307 . S
C45 C43 1.486 . S
C45 H49 0.960 . S
C45 H50 0.960 . S
C45 H51 0.959 . S
H46 C42 0.960 . S
H47 C42 0.961 . S
H48 C42 0.960 . S
H49 C45 0.960 . S
H50 C45 0.960 . S
H51 C45 0.959 . S
O52 Zn53 1.953 1_565 S
O52 C68 1.225 . S
Zn53 O52 1.953 1_545 S
Zn53 O54 1.949 1_655 S
Zn53 O60 1.919 . S
Zn53 O65 1.924 . S
O54 Zn53 1.949 1_455 S
O54 Zn55 1.923 . S
O54 Zn56 1.950 1_545 S
O54 Zn57 1.945 . S
Zn55 O54 1.923 . S
Zn55 O58 1.933 . S
Zn55 O61 1.941 1_455 S
Zn55 O62 1.965 1_545 S
Zn56 O54 1.950 1_565 S
Zn56 O63 1.938 . S
Zn56 O64 1.906 . S
Zn56 O74 1.953 1_455 S
Zn57 O54 1.945 . S
Zn57 O59 1.932 . S
Zn57 O66 1.977 1_545 S
Zn57 O67 1.910 1_455 S
O58 Zn55 1.933 . S
O58 C69 1.226 . S
O59 Zn57 1.932 . S
O59 C69 1.307 . S
O60 Zn53 1.919 . S
O60 C71 1.253 . S
O61 Zn55 1.941 1_655 S
O61 C71 1.283 . S
O62 Zn55 1.965 1_565 S
O62 C70 1.303 . S
O63 Zn56 1.938 . S
O63 C70 1.247 . S
O64 Zn56 1.906 . S
O64 C72 1.304 . S
O65 Zn53 1.924 . S
O65 C73 1.311 . S
O66 Zn57 1.977 1_565 S
O66 C72 1.272 . S
O67 Zn57 1.910 1_655 S
O67 C73 1.231 . S
C68 O52 1.225 . S
C68 O74 1.298 . S
C69 O58 1.226 . S
C69 O59 1.307 . S
C70 O62 1.303 . S
C70 O63 1.247 . S
C71 O60 1.253 . S
C71 O61 1.283 . S
C72 O64 1.304 . S
C72 O66 1.272 . S
C73 O65 1.311 . S
C73 O67 1.231 . S
O74 Zn56 1.953 1_655 S
O74 C68 1.298 . S
O75 Zn76 1.953 . S
O75 C91 1.225 1_556 S
Zn76 O75 1.953 . S
Zn76 O77 1.949 1_556 S
Zn76 O83 1.919 . S
Zn76 O88 1.924 1_556 S
O77 Zn76 1.949 1_554 S
O77 Zn78 1.923 1_554 S
O77 Zn79 1.950 . S
O77 Zn80 1.945 . S
Zn78 O77 1.923 1_556 S
Zn78 O81 1.933 . S
Zn78 O84 1.941 . S
Zn78 O85 1.965 . S
Zn79 O77 1.950 . S
Zn79 O86 1.938 1_554 S
Zn79 O87 1.906 . S
Zn79 O97 1.953 . S
Zn80 O77 1.945 . S
Zn80 O82 1.932 . S
Zn80 O89 1.977 . S
Zn80 O90 1.910 . S
O81 Zn78 1.933 . S
O81 C92 1.226 1_556 S
O82 Zn80 1.932 . S
O82 C92 1.307 . S
O83 Zn76 1.919 . S
O83 C94 1.253 . S
O84 Zn78 1.941 . S
O84 C94 1.283 . S
O85 Zn78 1.965 . S
O85 C93 1.303 . S
O86 Zn79 1.938 1_556 S
O86 C93 1.247 . S
O87 Zn79 1.906 . S
O87 C95 1.304 . S
O88 Zn76 1.924 1_554 S
O88 C96 1.311 . S
O89 Zn80 1.977 . S
O89 C95 1.272 . S
O90 Zn80 1.910 . S
O90 C96 1.231 . S
C91 O75 1.225 1_554 S
C91 O97 1.298 . S
C92 O81 1.226 1_554 S
C92 O82 1.307 . S
C93 O85 1.303 . S
C93 O86 1.247 . S
C94 O83 1.253 . S
C94 O84 1.283 . S
C95 O87 1.304 . S
C95 O89 1.272 . S
C96 O88 1.311 . S
C96 O90 1.231 . S
O97 Zn79 1.953 . S
O97 C91 1.298 . S
C98 C99 1.391 . S
C98 C100 1.394 . S
C98 H114 0.931 . S
C99 C98 1.391 . S
C99 C103 1.376 . S
C100 C98 1.394 . S
C100 C101 1.369 . S
C100 C104 1.531 . S
C101 C100 1.369 . S
C101 C102 1.410 . S
C101 C109 1.503 . S
C102 C101 1.410 . S
C102 C103 1.392 . S
C102 C105 1.511 . S
C103 C99 1.376 . S
C103 C102 1.392 . S
C103 H115 0.929 . S
C104 C100 1.531 . S
C104 H116 0.960 . S
C104 H117 0.962 . S
C104 H118 0.960 . S
C105 C102 1.511 . S
C105 H119 0.961 . S
C105 H120 0.961 . S
C105 H121 0.961 . S
C106 C107 1.370 . S
C106 C108 1.363 . S
C106 H122 0.931 . S
C107 C106 1.370 . S
C107 C111 1.408 . S
C108 C106 1.363 . S
C108 C109 1.370 . S
C108 C112 1.524 . S
C109 C101 1.503 . S
C109 C108 1.370 . S
C109 C110 1.403 . S
C110 C109 1.403 . S
C110 C111 1.404 . S
C110 C113 1.539 . S
C111 C107 1.408 . S
C111 C110 1.404 . S
C111 H123 0.930 . S
C112 C108 1.524 . S
C112 H124 0.956 . S
C112 H125 0.961 . S
C112 H126 0.961 . S
C113 C110 1.539 . S
C113 H127 0.958 . S
C113 H128 0.961 . S
C113 H129 0.960 . S
H114 C98 0.931 . S
H115 C103 0.929 . S
H116 C104 0.960 . S
H117 C104 0.962 . S
H118 C104 0.960 . S
H119 C105 0.961 . S
H120 C105 0.961 . S
H121 C105 0.961 . S
H122 C106 0.931 . S
H123 C111 0.930 . S
H124 C112 0.956 . S
H125 C112 0.961 . S
H126 C112 0.961 . S
H127 C113 0.958 . S
H128 C113 0.961 . S
H129 C113 0.960 . S
C130 C131 1.401 . S
C130 C132 1.394 . S
C130 H146 0.931 . S
C131 C130 1.401 . S
C131 C135 1.367 1_556 S
C132 C130 1.394 . S
C132 C133 1.369 . S
C132 C136 1.531 . S
C133 C132 1.369 . S
C133 C134 1.410 1_556 S
C133 C141 1.503 . S
C134 C133 1.410 1_554 S
C134 C135 1.392 . S
C134 C137 1.511 . S
C135 C131 1.367 1_554 S
C135 C134 1.392 . S
C135 H147 0.929 . S
C136 C132 1.531 . S
C136 H148 0.960 . S
C136 H149 0.962 . S
C136 H150 0.960 . S
C137 C134 1.511 . S
C137 H151 0.961 . S
C137 H152 0.961 . S
C137 H153 0.961 . S
C138 C139 1.377 . S
C138 C140 1.363 . S
C138 H154 0.931 . S
C139 C138 1.377 . S
C139 C143 1.401 1_554 S
C140 C138 1.363 . S
C140 C141 1.370 1_554 S
C140 C144 1.524 . S
C141 C133 1.503 . S
C141 C140 1.370 1_556 S
C141 C142 1.403 . S
C142 C141 1.403 . S
C142 C143 1.404 . S
C142 C145 1.539 . S
C143 C139 1.401 1_556 S
C143 C142 1.404 . S
C143 H155 0.930 . S
C144 C140 1.524 . S
C144 H156 0.956 . S
C144 H157 0.961 . S
C144 H158 0.961 . S
C145 C142 1.539 . S
C145 H159 0.958 . S
C145 H160 0.961 . S
C145 H161 0.960 . S
H146 C130 0.931 . S
H147 C135 0.929 . S
H148 C136 0.960 . S
H149 C136 0.962 . S
H150 C136 0.960 . S
H151 C137 0.961 . S
H152 C137 0.961 . S
H153 C137 0.961 . S
H154 C138 0.931 . S
H155 C143 0.930 . S
H156 C144 0.956 . S
H157 C144 0.961 . S
H158 C144 0.961 . S
H159 C145 0.958 . S
H160 C145 0.961 . S
H161 C145 0.960 . S
C162 C163 1.391 . S
C162 C164 1.394 . S
C162 H178 0.931 . S
C163 C162 1.391 . S
C163 C167 1.376 . S
C164 C162 1.394 . S
C164 C165 1.369 . S
C164 C168 1.531 . S
C165 C164 1.369 . S
C165 C166 1.410 . S
C165 C173 1.503 . S
C166 C165 1.410 . S
C166 C167 1.392 . S
C166 C169 1.511 . S
C167 C163 1.376 . S
C167 C166 1.392 . S
C167 H179 0.929 . S
C168 C164 1.531 . S
C168 H180 0.960 . S
C168 H181 0.962 . S
C168 H182 0.960 . S
C169 C166 1.511 . S
C169 H183 0.961 . S
C169 H184 0.961 . S
C169 H185 0.961 . S
C170 C171 1.370 . S
C170 C172 1.363 . S
C170 H186 0.931 . S
C171 C170 1.370 . S
C171 C175 1.408 . S
C172 C170 1.363 . S
C172 C173 1.370 . S
C172 C176 1.524 . S
C173 C165 1.503 . S
C173 C172 1.370 . S
C173 C174 1.403 . S
C174 C173 1.403 . S
C174 C175 1.404 . S
C174 C177 1.539 . S
C175 C171 1.408 . S
C175 C174 1.404 . S
C175 H187 0.930 . S
C176 C172 1.524 . S
C176 H188 0.956 . S
C176 H189 0.961 . S
C176 H190 0.961 . S
C177 C174 1.539 . S
C177 H191 0.958 . S
C177 H192 0.961 . S
C177 H193 0.960 . S
H178 C162 0.931 . S
H179 C167 0.929 . S
H180 C168 0.960 . S
H181 C168 0.962 . S
H182 C168 0.960 . S
H183 C169 0.961 . S
H184 C169 0.961 . S
H185 C169 0.961 . S
H186 C170 0.931 . S
H187 C175 0.930 . S
H188 C176 0.956 . S
H189 C176 0.961 . S
H190 C176 0.961 . S
H191 C177 0.958 . S
H192 C177 0.961 . S
H193 C177 0.960 . S
C194 C195 1.391 . S
C194 C196 1.394 . S
C194 H210 0.931 . S
C195 C194 1.391 . S
C195 C199 1.376 1_554 S
C196 C194 1.394 . S
C196 C197 1.369 . S
C196 C200 1.531 . S
C197 C196 1.369 . S
C197 C198 1.410 1_554 S
C197 C205 1.503 . S
C198 C197 1.410 1_556 S
C198 C199 1.392 . S
C198 C201 1.511 . S
C199 C195 1.376 1_556 S
C199 C198 1.392 . S
C199 H211 0.929 . S
C200 C196 1.531 . S
C200 H212 0.960 . S
C200 H213 0.962 . S
C200 H214 0.960 . S
C201 C198 1.511 . S
C201 H215 0.961 . S
C201 H216 0.961 . S
C201 H217 0.961 . S
C202 C203 1.370 1_556 S
C202 C204 1.363 . S
C202 H218 0.931 . S
C203 C202 1.370 1_554 S
C203 C207 1.408 . S
C204 C202 1.363 . S
C204 C205 1.370 1_556 S
C204 C208 1.524 . S
C205 C197 1.503 . S
C205 C204 1.370 1_554 S
C205 C206 1.403 . S
C206 C205 1.403 . S
C206 C207 1.404 . S
C206 C209 1.539 . S
C207 C203 1.408 . S
C207 C206 1.404 . S
C207 H219 0.930 . S
C208 C204 1.524 . S
C208 H220 0.956 . S
C208 H221 0.961 . S
C208 H222 0.961 . S
C209 C206 1.539 . S
C209 H223 0.958 . S
C209 H224 0.961 . S
C209 H225 0.960 . S
H210 C194 0.931 . S
H211 C199 0.929 . S
H212 C200 0.960 . S
H213 C200 0.962 . S
H214 C200 0.960 . S
H215 C201 0.961 . S
H216 C201 0.961 . S
H217 C201 0.961 . S
H218 C202 0.931 . S
H219 C207 0.930 . S
H220 C208 0.956 . S
H221 C208 0.961 . S
H222 C208 0.961 . S
H223 C209 0.958 . S
H224 C209 0.961 . S
H225 C209 0.960 . S
C226 C227 1.391 . S
C226 C228 1.394 . S
C226 H242 0.931 . S
C227 C226 1.391 . S
C227 C231 1.376 . S
C228 C226 1.394 . S
C228 C229 1.369 . S
C228 C232 1.531 . S
C229 C228 1.369 . S
C229 C230 1.410 . S
C229 C237 1.503 . S
C230 C229 1.410 . S
C230 C231 1.392 . S
C230 C233 1.511 . S
C231 C227 1.376 . S
C231 C230 1.392 . S
C231 H243 0.929 . S
C232 C228 1.531 . S
C232 H244 0.960 . S
C232 H245 0.962 . S
C232 H246 0.960 . S
C233 C230 1.511 . S
C233 H247 0.961 . S
C233 H248 0.961 . S
C233 H249 0.961 . S
C234 C235 1.370 . S
C234 C236 1.363 . S
C234 H250 0.931 . S
C235 C234 1.370 . S
C235 C239 1.408 . S
C236 C234 1.363 . S
C236 C237 1.370 . S
C236 C240 1.524 . S
C237 C229 1.503 . S
C237 C236 1.370 . S
C237 C238 1.403 . S
C238 C237 1.403 . S
C238 C239 1.404 . S
C238 C241 1.539 . S
C239 C235 1.408 . S
C239 C238 1.404 . S
C239 H251 0.930 . S
C240 C236 1.524 . S
C240 H252 0.956 . S
C240 H253 0.961 . S
C240 H254 0.961 . S
C241 C238 1.539 . S
C241 H255 0.958 . S
C241 H256 0.961 . S
C241 H257 0.960 . S
H242 C226 0.931 . S
H243 C231 0.929 . S
H244 C232 0.960 . S
H245 C232 0.962 . S
H246 C232 0.960 . S
H247 C233 0.961 . S
H248 C233 0.961 . S
H249 C233 0.961 . S
H250 C234 0.931 . S
H251 C239 0.930 . S
H252 C240 0.956 . S
H253 C240 0.961 . S
H254 C240 0.961 . S
H255 C241 0.958 . S
H256 C241 0.961 . S
H257 C241 0.960 . S
C258 C259 1.391 . S
C258 C260 1.394 . S
C258 H274 0.931 . S
C259 C258 1.391 . S
C259 C263 1.376 . S
C260 C258 1.394 . S
C260 C261 1.369 . S
C260 C264 1.531 . S
C261 C260 1.369 . S
C261 C262 1.410 . S
C261 C269 1.503 . S
C262 C261 1.410 . S
C262 C263 1.392 . S
C262 C265 1.511 . S
C263 C259 1.376 . S
C263 C262 1.392 . S
C263 H275 0.929 . S
C264 C260 1.531 . S
C264 H276 0.960 . S
C264 H277 0.962 . S
C264 H278 0.960 . S
C265 C262 1.511 . S
C265 H279 0.961 . S
C265 H280 0.961 . S
C265 H281 0.961 . S
C266 C267 1.370 . S
C266 C268 1.363 . S
C266 H282 0.931 . S
C267 C266 1.370 . S
C267 C271 1.408 . S
C268 C266 1.363 . S
C268 C269 1.370 . S
C268 C272 1.524 . S
C269 C261 1.503 . S
C269 C268 1.370 . S
C269 C270 1.403 . S
C270 C269 1.403 . S
C270 C271 1.404 . S
C270 C273 1.539 . S
C271 C267 1.408 . S
C271 C270 1.404 . S
C271 H283 0.930 . S
C272 C268 1.524 . S
C272 H284 0.956 . S
C272 H285 0.961 . S
C272 H286 0.961 . S
C273 C270 1.539 . S
C273 H287 0.958 . S
C273 H288 0.961 . S
C273 H289 0.960 . S
H274 C258 0.931 . S
H275 C263 0.929 . S
H276 C264 0.960 . S
H277 C264 0.962 . S
H278 C264 0.960 . S
H279 C265 0.961 . S
H280 C265 0.961 . S
H281 C265 0.961 . S
H282 C266 0.931 . S
H283 C271 0.930 . S
H284 C272 0.956 . S
H285 C272 0.961 . S
H286 C272 0.961 . S
H287 C273 0.958 . S
H288 C273 0.961 . S
H289 C273 0.960 . S
C290 C291 1.391 . S
C290 C292 1.394 . S
C290 H306 0.931 . S
C291 C290 1.391 . S
C291 C295 1.376 . S
C292 C290 1.394 . S
C292 C293 1.369 . S
C292 C296 1.531 . S
C293 C292 1.369 . S
C293 C294 1.410 . S
C293 C301 1.503 . S
C294 C293 1.410 . S
C294 C295 1.392 . S
C294 C297 1.511 . S
C295 C291 1.376 . S
C295 C294 1.392 . S
C295 H307 0.929 . S
C296 C292 1.531 . S
C296 H308 0.960 . S
C296 H309 0.962 . S
C296 H310 0.960 . S
C297 C294 1.511 . S
C297 H311 0.961 . S
C297 H312 0.961 . S
C297 H313 0.961 . S
C298 C299 1.370 . S
C298 C300 1.363 . S
C298 H314 0.931 . S
C299 C298 1.370 . S
C299 C303 1.408 . S
C300 C298 1.363 . S
C300 C301 1.370 . S
C300 C304 1.524 . S
C301 C293 1.503 . S
C301 C300 1.370 . S
C301 C302 1.403 . S
C302 C301 1.403 . S
C302 C303 1.404 . S
C302 C305 1.539 . S
C303 C299 1.408 . S
C303 C302 1.404 . S
C303 H315 0.930 . S
C304 C300 1.524 . S
C304 H316 0.956 . S
C304 H317 0.961 . S
C304 H318 0.961 . S
C305 C302 1.539 . S
C305 H319 0.958 . S
C305 H320 0.961 . S
C305 H321 0.960 . S
H306 C290 0.931 . S
H307 C295 0.929 . S
H308 C296 0.960 . S
H309 C296 0.962 . S
H310 C296 0.960 . S
H311 C297 0.961 . S
H312 C297 0.961 . S
H313 C297 0.961 . S
H314 C298 0.931 . S
H315 C303 0.930 . S
H316 C304 0.956 . S
H317 C304 0.961 . S
H318 C304 0.961 . S
H319 C305 0.958 . S
H320 C305 0.961 . S
H321 C305 0.960 . S
C322 C323 1.391 . S
C322 C324 1.394 . S
C322 H338 0.931 . S
C323 C322 1.391 . S
C323 C327 1.376 . S
C324 C322 1.394 . S
C324 C325 1.369 . S
C324 C328 1.531 . S
C325 C324 1.369 . S
C325 C326 1.410 . S
C325 C333 1.503 . S
C326 C325 1.410 . S
C326 C327 1.392 . S
C326 C329 1.511 . S
C327 C323 1.376 . S
C327 C326 1.392 . S
C327 H339 0.929 . S
C328 C324 1.531 . S
C328 H340 0.960 . S
C328 H341 0.962 . S
C328 H342 0.960 . S
C329 C326 1.511 . S
C329 H343 0.961 . S
C329 H344 0.961 . S
C329 H345 0.961 . S
C330 C331 1.370 . S
C330 C332 1.363 . S
C330 H346 0.931 . S
C331 C330 1.370 . S
C331 C335 1.408 . S
C332 C330 1.363 . S
C332 C333 1.370 . S
C332 C336 1.524 . S
C333 C325 1.503 . S
C333 C332 1.370 . S
C333 C334 1.403 . S
C334 C333 1.403 . S
C334 C335 1.404 . S
C334 C337 1.539 . S
C335 C331 1.408 . S
C335 C334 1.404 . S
C335 H347 0.930 . S
C336 C332 1.524 . S
C336 H348 0.956 . S
C336 H349 0.961 . S
C336 H350 0.961 . S
C337 C334 1.539 . S
C337 H351 0.958 . S
C337 H352 0.961 . S
C337 H353 0.960 . S
H338 C322 0.931 . S
H339 C327 0.929 . S
H340 C328 0.960 . S
H341 C328 0.962 . S
H342 C328 0.960 . S
H343 C329 0.961 . S
H344 C329 0.961 . S
H345 C329 0.961 . S
H346 C330 0.931 . S
H347 C335 0.930 . S
H348 C336 0.956 . S
H349 C336 0.961 . S
H350 C336 0.961 . S
H351 C337 0.958 . S
H352 C337 0.961 . S
H353 C337 0.960 . S
C354 C355 1.391 . S
C354 C356 1.394 . S
C354 H370 0.931 . S
C355 C354 1.391 . S
C355 C359 1.376 . S
C356 C354 1.394 . S
C356 C357 1.369 . S
C356 C360 1.531 . S
C357 C356 1.369 . S
C357 C358 1.410 . S
C357 C365 1.503 . S
C358 C357 1.410 . S
C358 C359 1.392 . S
C358 C361 1.511 . S
C359 C355 1.376 . S
C359 C358 1.392 . S
C359 H371 0.929 . S
C360 C356 1.531 . S
C360 H372 0.960 . S
C360 H373 0.962 . S
C360 H374 0.960 . S
C361 C358 1.511 . S
C361 H375 0.961 . S
C361 H376 0.961 . S
C361 H377 0.961 . S
C362 C363 1.370 . S
C362 C364 1.363 . S
C362 H378 0.931 . S
C363 C362 1.370 . S
C363 C367 1.408 . S
C364 C362 1.363 . S
C364 C365 1.370 . S
C364 C368 1.524 . S
C365 C357 1.503 . S
C365 C364 1.370 . S
C365 C366 1.403 . S
C366 C365 1.403 . S
C366 C367 1.404 . S
C366 C369 1.539 . S
C367 C363 1.408 . S
C367 C366 1.404 . S
C367 H379 0.930 . S
C368 C364 1.524 . S
C368 H380 0.956 . S
C368 H381 0.961 . S
C368 H382 0.961 . S
C369 C366 1.539 . S
C369 H383 0.958 . S
C369 H384 0.961 . S
C369 H385 0.960 . S
H370 C354 0.931 . S
H371 C359 0.929 . S
H372 C360 0.960 . S
H373 C360 0.962 . S
H374 C360 0.960 . S
H375 C361 0.961 . S
H376 C361 0.961 . S
H377 C361 0.961 . S
H378 C362 0.931 . S
H379 C367 0.930 . S
H380 C368 0.956 . S
H381 C368 0.961 . S
H382 C368 0.961 . S
H383 C369 0.958 . S
H384 C369 0.961 . S
H385 C369 0.960 . S
C386 C387 1.391 . S
C386 C388 1.394 . S
C386 H402 0.931 . S
C387 C386 1.391 . S
C387 C391 1.376 . S
C388 C386 1.394 . S
C388 C389 1.369 . S
C388 C392 1.531 . S
C389 C388 1.369 . S
C389 C390 1.410 . S
C389 C397 1.503 . S
C390 C389 1.410 . S
C390 C391 1.392 . S
C390 C393 1.511 . S
C391 C387 1.376 . S
C391 C390 1.392 . S
C391 H403 0.929 . S
C392 C388 1.531 . S
C392 H404 0.960 . S
C392 H405 0.962 . S
C392 H406 0.960 . S
C393 C390 1.511 . S
C393 H407 0.961 . S
C393 H408 0.961 . S
C393 H409 0.961 . S
C394 C395 1.370 . S
C394 C396 1.363 . S
C394 H410 0.931 . S
C395 C394 1.370 . S
C395 C399 1.408 . S
C396 C394 1.363 . S
C396 C397 1.370 . S
C396 C400 1.524 . S
C397 C389 1.503 . S
C397 C396 1.370 . S
C397 C398 1.403 . S
C398 C397 1.403 . S
C398 C399 1.404 . S
C398 C401 1.539 . S
C399 C395 1.408 . S
C399 C398 1.404 . S
C399 H411 0.930 . S
C400 C396 1.524 . S
C400 H412 0.956 . S
C400 H413 0.961 . S
C400 H414 0.961 . S
C401 C398 1.539 . S
C401 H415 0.958 . S
C401 H416 0.961 . S
C401 H417 0.960 . S
H402 C386 0.931 . S
H403 C391 0.929 . S
H404 C392 0.960 . S
H405 C392 0.962 . S
H406 C392 0.960 . S
H407 C393 0.961 . S
H408 C393 0.961 . S
H409 C393 0.961 . S
H410 C394 0.931 . S
H411 C399 0.930 . S
H412 C400 0.956 . S
H413 C400 0.961 . S
H414 C400 0.961 . S
H415 C401 0.958 . S
H416 C401 0.961 . S
H417 C401 0.960 . S
C418 C419 1.391 . S
C418 C420 1.394 . S
C418 H434 0.931 . S
C419 C418 1.391 . S
C419 C423 1.376 . S
C420 C418 1.394 . S
C420 C421 1.369 . S
C420 C424 1.531 . S
C421 C420 1.369 . S
C421 C422 1.410 . S
C421 C429 1.503 . S
C422 C421 1.410 . S
C422 C423 1.392 . S
C422 C425 1.511 . S
C423 C419 1.376 . S
C423 C422 1.392 . S
C423 H435 0.929 . S
C424 C420 1.531 . S
C424 H436 0.960 . S
C424 H437 0.962 . S
C424 H438 0.960 . S
C425 C422 1.511 . S
C425 H439 0.961 . S
C425 H440 0.961 . S
C425 H441 0.961 . S
C426 C427 1.370 . S
C426 C428 1.363 . S
C426 H442 0.931 . S
C427 C426 1.370 . S
C427 C431 1.408 . S
C428 C426 1.363 . S
C428 C429 1.370 . S
C428 C432 1.524 . S
C429 C421 1.503 . S
C429 C428 1.370 . S
C429 C430 1.403 . S
C430 C429 1.403 . S
C430 C431 1.404 . S
C430 C433 1.539 . S
C431 C427 1.408 . S
C431 C430 1.404 . S
C431 H443 0.930 . S
C432 C428 1.524 . S
C432 H444 0.956 . S
C432 H445 0.961 . S
C432 H446 0.961 . S
C433 C430 1.539 . S
C433 H447 0.958 . S
C433 H448 0.961 . S
C433 H449 0.960 . S
H434 C418 0.931 . S
H435 C423 0.929 . S
H436 C424 0.960 . S
H437 C424 0.962 . S
H438 C424 0.960 . S
H439 C425 0.961 . S
H440 C425 0.961 . S
H441 C425 0.961 . S
H442 C426 0.931 . S
H443 C431 0.930 . S
H444 C432 0.956 . S
H445 C432 0.961 . S
H446 C432 0.961 . S
H447 C433 0.958 . S
H448 C433 0.961 . S
H449 C433 0.960 . S
C450 C451 1.391 . S
C450 C452 1.394 . S
C450 H466 0.931 . S
C451 C450 1.391 . S
C451 C455 1.376 . S
C452 C450 1.394 . S
C452 C453 1.369 . S
C452 C456 1.531 . S
C453 C452 1.369 . S
C453 C454 1.410 . S
C453 C461 1.503 . S
C454 C453 1.410 . S
C454 C455 1.392 . S
C454 C457 1.511 . S
C455 C451 1.376 . S
C455 C454 1.392 . S
C455 H467 0.929 . S
C456 C452 1.531 . S
C456 H468 0.960 . S
C456 H469 0.962 . S
C456 H470 0.960 . S
C457 C454 1.511 . S
C457 H471 0.961 . S
C457 H472 0.961 . S
C457 H473 0.961 . S
C458 C459 1.370 . S
C458 C460 1.363 . S
C458 H474 0.931 . S
C459 C458 1.370 . S
C459 C463 1.408 . S
C460 C458 1.363 . S
C460 C461 1.370 . S
C460 C464 1.524 . S
C461 C453 1.503 . S
C461 C460 1.370 . S
C461 C462 1.403 . S
C462 C461 1.403 . S
C462 C463 1.404 . S
C462 C465 1.539 . S
C463 C459 1.408 . S
C463 C462 1.404 . S
C463 H475 0.930 . S
C464 C460 1.524 . S
C464 H476 0.956 . S
C464 H477 0.961 . S
C464 H478 0.961 . S
C465 C462 1.539 . S
C465 H479 0.958 . S
C465 H480 0.961 . S
C465 H481 0.960 . S
H466 C450 0.931 . S
H467 C455 0.929 . S
H468 C456 0.960 . S
H469 C456 0.962 . S
H470 C456 0.960 . S
H471 C457 0.961 . S
H472 C457 0.961 . S
H473 C457 0.961 . S
H474 C458 0.931 . S
H475 C463 0.930 . S
H476 C464 0.956 . S
H477 C464 0.961 . S
H478 C464 0.961 . S
H479 C465 0.958 . S
H480 C465 0.961 . S
H481 C465 0.960 . S
C107 C69 1.493 . S
C99 N41 1.490 . S
C131 N2 1.486 1_556 S
C139 C92 1.495 . S
C163 N15 1.520 . S
C171 C68 1.528 . S
C195 N28 1.519 . S
C203 C91 1.527 . S
C235 C72 1.430 . S
C227 N5 1.484 . S
C267 C94 1.489 . S
C259 N14 1.522 . S
C291 N27 1.498 . S
C299 C73 1.446 . S
C323 N44 1.526 . S
C331 C93 1.470 . S
C363 C96 1.431 . S
C355 N18 1.487 . S
C395 C71 1.483 . S
C387 N31 1.524 . S
C427 C95 1.430 . S
C419 N40 1.480 . S
C451 N1 1.510 . S
C459 C70 1.463 . S
