# Generated by pormake.
# Topology bpr, (3,3)-cn, num edge types: 1
# Building blocks:
#     Node 0, Type 0, BuildingBlock: OLANEW_clean_sbu_2, # of connection points: 3
#     Node 1, Type 0, BuildingBlock: OLANEW_clean_sbu_2, # of connection points: 3
#     Node 2, Type 0, BuildingBlock: OLANEW_clean_sbu_2, # of connection points: 3
#     Node 3, Type 0, BuildingBlock: OLANEW_clean_sbu_2, # of connection points: 3
#     Node 4, Type 0, BuildingBlock: OLANEW_clean_sbu_2, # of connection points: 3
#     Node 5, Type 0, BuildingBlock: OLANEW_clean_sbu_2, # of connection points: 3
#     Node 6, Type 0, BuildingBlock: OLANEW_clean_sbu_2, # of connection points: 3
#     Node 7, Type 0, BuildingBlock: OLANEW_clean_sbu_2, # of connection points: 3
#     Node 8, Type 0, BuildingBlock: OLANEW_clean_sbu_2, # of connection points: 3
#     Node 9, Type 0, BuildingBlock: OLANEW_clean_sbu_2, # of connection points: 3
#     Node 10, Type 0, BuildingBlock: OLANEW_clean_sbu_2, # of connection points: 3
#     Node 11, Type 0, BuildingBlock: OLANEW_clean_sbu_2, # of connection points: 3
#     Node 12, Type 0, BuildingBlock: OLANEW_clean_sbu_2, # of connection points: 3
#     Node 13, Type 0, BuildingBlock: OLANEW_clean_sbu_2, # of connection points: 3
#     Node 14, Type 0, BuildingBlock: OLANEW_clean_sbu_2, # of connection points: 3
#     Node 15, Type 0, BuildingBlock: OLANEW_clean_sbu_2, # of connection points: 3
#     Node 16, Type 0, BuildingBlock: OLANEW_clean_sbu_2, # of connection points: 3
#     Node 17, Type 0, BuildingBlock: OLANEW_clean_sbu_2, # of connection points: 3
#     Node 18, Type 0, BuildingBlock: OLANEW_clean_sbu_2, # of connection points: 3
#     Node 19, Type 0, BuildingBlock: OLANEW_clean_sbu_2, # of connection points: 3
#     Node 20, Type 0, BuildingBlock: OLANEW_clean_sbu_2, # of connection points: 3
#     Node 21, Type 0, BuildingBlock: OLANEW_clean_sbu_2, # of connection points: 3
#     Node 22, Type 0, BuildingBlock: OLANEW_clean_sbu_2, # of connection points: 3
#     Node 23, Type 0, BuildingBlock: OLANEW_clean_sbu_2, # of connection points: 3
#     Node 24, Type 0, BuildingBlock: OLANEW_clean_sbu_2, # of connection points: 3
#     Node 25, Type 0, BuildingBlock: OLANEW_clean_sbu_2, # of connection points: 3
#     Node 26, Type 0, BuildingBlock: OLANEW_clean_sbu_2, # of connection points: 3
#     Node 27, Type 0, BuildingBlock: OLANEW_clean_sbu_2, # of connection points: 3
#     Node 28, Type 0, BuildingBlock: OLANEW_clean_sbu_2, # of connection points: 3
#     Node 29, Type 0, BuildingBlock: OLANEW_clean_sbu_2, # of connection points: 3
#     Node 30, Type 0, BuildingBlock: OLANEW_clean_sbu_2, # of connection points: 3
#     Node 31, Type 0, BuildingBlock: OLANEW_clean_sbu_2, # of connection points: 3
#     Node 32, Type 0, BuildingBlock: OLANEW_clean_sbu_2, # of connection points: 3
#     Node 33, Type 0, BuildingBlock: OLANEW_clean_sbu_2, # of connection points: 3
#     Node 34, Type 0, BuildingBlock: OLANEW_clean_sbu_2, # of connection points: 3
#     Node 35, Type 0, BuildingBlock: OLANEW_clean_sbu_2, # of connection points: 3
#     Node 36, Type 0, BuildingBlock: OLANEW_clean_sbu_2, # of connection points: 3
#     Node 37, Type 0, BuildingBlock: OLANEW_clean_sbu_2, # of connection points: 3
#     Node 38, Type 0, BuildingBlock: OLANEW_clean_sbu_2, # of connection points: 3
#     Node 39, Type 0, BuildingBlock: OLANEW_clean_sbu_2, # of connection points: 3
#     Node 40, Type 0, BuildingBlock: OLANEW_clean_sbu_2, # of connection points: 3
#     Node 41, Type 0, BuildingBlock: OLANEW_clean_sbu_2, # of connection points: 3
#     Node 42, Type 0, BuildingBlock: OLANEW_clean_sbu_2, # of connection points: 3
#     Node 43, Type 0, BuildingBlock: OLANEW_clean_sbu_2, # of connection points: 3
#     Node 44, Type 0, BuildingBlock: OLANEW_clean_sbu_2, # of connection points: 3
#     Node 45, Type 0, BuildingBlock: OLANEW_clean_sbu_2, # of connection points: 3
#     Node 46, Type 0, BuildingBlock: OLANEW_clean_sbu_2, # of connection points: 3
#     Node 47, Type 0, BuildingBlock: OLANEW_clean_sbu_2, # of connection points: 3
#     Node 48, Type 1, BuildingBlock: BELTOD_clean_linker_0, # of connection points: 3
#     Node 49, Type 1, BuildingBlock: BELTOD_clean_linker_0, # of connection points: 3
#     Node 50, Type 1, BuildingBlock: BELTOD_clean_linker_0, # of connection points: 3
#     Node 51, Type 1, BuildingBlock: BELTOD_clean_linker_0, # of connection points: 3
#     Node 52, Type 1, BuildingBlock: BELTOD_clean_linker_0, # of connection points: 3
#     Node 53, Type 1, BuildingBlock: BELTOD_clean_linker_0, # of connection points: 3
#     Node 54, Type 1, BuildingBlock: BELTOD_clean_linker_0, # of connection points: 3
#     Node 55, Type 1, BuildingBlock: BELTOD_clean_linker_0, # of connection points: 3
#     Node 56, Type 1, BuildingBlock: BELTOD_clean_linker_0, # of connection points: 3
#     Node 57, Type 1, BuildingBlock: BELTOD_clean_linker_0, # of connection points: 3
#     Node 58, Type 1, BuildingBlock: BELTOD_clean_linker_0, # of connection points: 3
#     Node 59, Type 1, BuildingBlock: BELTOD_clean_linker_0, # of connection points: 3
#     Node 60, Type 1, BuildingBlock: BELTOD_clean_linker_0, # of connection points: 3
#     Node 61, Type 1, BuildingBlock: BELTOD_clean_linker_0, # of connection points: 3
#     Node 62, Type 1, BuildingBlock: BELTOD_clean_linker_0, # of connection points: 3
#     Node 63, Type 1, BuildingBlock: BELTOD_clean_linker_0, # of connection points: 3
#     Node 64, Type 1, BuildingBlock: BELTOD_clean_linker_0, # of connection points: 3
#     Node 65, Type 1, BuildingBlock: BELTOD_clean_linker_0, # of connection points: 3
#     Node 66, Type 1, BuildingBlock: BELTOD_clean_linker_0, # of connection points: 3
#     Node 67, Type 1, BuildingBlock: BELTOD_clean_linker_0, # of connection points: 3
#     Node 68, Type 1, BuildingBlock: BELTOD_clean_linker_0, # of connection points: 3
#     Node 69, Type 1, BuildingBlock: BELTOD_clean_linker_0, # of connection points: 3
#     Node 70, Type 1, BuildingBlock: BELTOD_clean_linker_0, # of connection points: 3
#     Node 71, Type 1, BuildingBlock: BELTOD_clean_linker_0, # of connection points: 3
#     Node 72, Type 1, BuildingBlock: BELTOD_clean_linker_0, # of connection points: 3
#     Node 73, Type 1, BuildingBlock: BELTOD_clean_linker_0, # of connection points: 3
#     Node 74, Type 1, BuildingBlock: BELTOD_clean_linker_0, # of connection points: 3
#     Node 75, Type 1, BuildingBlock: BELTOD_clean_linker_0, # of connection points: 3
#     Node 76, Type 1, BuildingBlock: BELTOD_clean_linker_0, # of connection points: 3
#     Node 77, Type 1, BuildingBlock: BELTOD_clean_linker_0, # of connection points: 3
#     Node 78, Type 1, BuildingBlock: BELTOD_clean_linker_0, # of connection points: 3
#     Node 79, Type 1, BuildingBlock: BELTOD_clean_linker_0, # of connection points: 3
#     Node 80, Type 1, BuildingBlock: BELTOD_clean_linker_0, # of connection points: 3
#     Node 81, Type 1, BuildingBlock: BELTOD_clean_linker_0, # of connection points: 3
#     Node 82, Type 1, BuildingBlock: BELTOD_clean_linker_0, # of connection points: 3
#     Node 83, Type 1, BuildingBlock: BELTOD_clean_linker_0, # of connection points: 3
#     Node 84, Type 1, BuildingBlock: BELTOD_clean_linker_0, # of connection points: 3
#     Node 85, Type 1, BuildingBlock: BELTOD_clean_linker_0, # of connection points: 3
#     Node 86, Type 1, BuildingBlock: BELTOD_clean_linker_0, # of connection points: 3
#     Node 87, Type 1, BuildingBlock: BELTOD_clean_linker_0, # of connection points: 3
#     Node 88, Type 1, BuildingBlock: BELTOD_clean_linker_0, # of connection points: 3
#     Node 89, Type 1, BuildingBlock: BELTOD_clean_linker_0, # of connection points: 3
#     Node 90, Type 1, BuildingBlock: BELTOD_clean_linker_0, # of connection points: 3
#     Node 91, Type 1, BuildingBlock: BELTOD_clean_linker_0, # of connection points: 3
#     Node 92, Type 1, BuildingBlock: BELTOD_clean_linker_0, # of connection points: 3
#     Node 93, Type 1, BuildingBlock: BELTOD_clean_linker_0, # of connection points: 3
#     Node 94, Type 1, BuildingBlock: BELTOD_clean_linker_0, # of connection points: 3
#     Node 95, Type 1, BuildingBlock: BELTOD_clean_linker_0, # of connection points: 3
#     Edge 96, Type (0, 1), BuildingBlock: XIVTED_clean_linker_0, # of connection points: 2
#     Edge 97, Type (0, 1), BuildingBlock: XIVTED_clean_linker_0, # of connection points: 2
#     Edge 98, Type (0, 1), BuildingBlock: XIVTED_clean_linker_0, # of connection points: 2
#     Edge 99, Type (0, 1), BuildingBlock: XIVTED_clean_linker_0, # of connection points: 2
#     Edge 100, Type (0, 1), BuildingBlock: XIVTED_clean_linker_0, # of connection points: 2
#     Edge 101, Type (0, 1), BuildingBlock: XIVTED_clean_linker_0, # of connection points: 2
#     Edge 102, Type (0, 1), BuildingBlock: XIVTED_clean_linker_0, # of connection points: 2
#     Edge 103, Type (0, 1), BuildingBlock: XIVTED_clean_linker_0, # of connection points: 2
#     Edge 104, Type (0, 1), BuildingBlock: XIVTED_clean_linker_0, # of connection points: 2
#     Edge 105, Type (0, 1), BuildingBlock: XIVTED_clean_linker_0, # of connection points: 2
#     Edge 106, Type (0, 1), BuildingBlock: XIVTED_clean_linker_0, # of connection points: 2
#     Edge 107, Type (0, 1), BuildingBlock: XIVTED_clean_linker_0, # of connection points: 2
#     Edge 108, Type (0, 1), BuildingBlock: XIVTED_clean_linker_0, # of connection points: 2
#     Edge 109, Type (0, 1), BuildingBlock: XIVTED_clean_linker_0, # of connection points: 2
#     Edge 110, Type (0, 1), BuildingBlock: XIVTED_clean_linker_0, # of connection points: 2
#     Edge 111, Type (0, 1), BuildingBlock: XIVTED_clean_linker_0, # of connection points: 2
#     Edge 112, Type (0, 1), BuildingBlock: XIVTED_clean_linker_0, # of connection points: 2
#     Edge 113, Type (0, 1), BuildingBlock: XIVTED_clean_linker_0, # of connection points: 2
#     Edge 114, Type (0, 1), BuildingBlock: XIVTED_clean_linker_0, # of connection points: 2
#     Edge 115, Type (0, 1), BuildingBlock: XIVTED_clean_linker_0, # of connection points: 2
#     Edge 116, Type (0, 1), BuildingBlock: XIVTED_clean_linker_0, # of connection points: 2
#     Edge 117, Type (0, 1), BuildingBlock: XIVTED_clean_linker_0, # of connection points: 2
#     Edge 118, Type (0, 1), BuildingBlock: XIVTED_clean_linker_0, # of connection points: 2
#     Edge 119, Type (0, 1), BuildingBlock: XIVTED_clean_linker_0, # of connection points: 2
#     Edge 120, Type (0, 1), BuildingBlock: XIVTED_clean_linker_0, # of connection points: 2
#     Edge 121, Type (0, 1), BuildingBlock: XIVTED_clean_linker_0, # of connection points: 2
#     Edge 122, Type (0, 1), BuildingBlock: XIVTED_clean_linker_0, # of connection points: 2
#     Edge 123, Type (0, 1), BuildingBlock: XIVTED_clean_linker_0, # of connection points: 2
#     Edge 124, Type (0, 1), BuildingBlock: XIVTED_clean_linker_0, # of connection points: 2
#     Edge 125, Type (0, 1), BuildingBlock: XIVTED_clean_linker_0, # of connection points: 2
#     Edge 126, Type (0, 1), BuildingBlock: XIVTED_clean_linker_0, # of connection points: 2
#     Edge 127, Type (0, 1), BuildingBlock: XIVTED_clean_linker_0, # of connection points: 2
#     Edge 128, Type (0, 1), BuildingBlock: XIVTED_clean_linker_0, # of connection points: 2
#     Edge 129, Type (0, 1), BuildingBlock: XIVTED_clean_linker_0, # of connection points: 2
#     Edge 130, Type (0, 1), BuildingBlock: XIVTED_clean_linker_0, # of connection points: 2
#     Edge 131, Type (0, 1), BuildingBlock: XIVTED_clean_linker_0, # of connection points: 2
#     Edge 132, Type (0, 1), BuildingBlock: XIVTED_clean_linker_0, # of connection points: 2
#     Edge 133, Type (0, 1), BuildingBlock: XIVTED_clean_linker_0, # of connection points: 2
#     Edge 134, Type (0, 1), BuildingBlock: XIVTED_clean_linker_0, # of connection points: 2
#     Edge 135, Type (0, 1), BuildingBlock: XIVTED_clean_linker_0, # of connection points: 2
#     Edge 136, Type (0, 1), BuildingBlock: XIVTED_clean_linker_0, # of connection points: 2
#     Edge 137, Type (0, 1), BuildingBlock: XIVTED_clean_linker_0, # of connection points: 2
#     Edge 138, Type (0, 1), BuildingBlock: XIVTED_clean_linker_0, # of connection points: 2
#     Edge 139, Type (0, 1), BuildingBlock: XIVTED_clean_linker_0, # of connection points: 2
#     Edge 140, Type (0, 1), BuildingBlock: XIVTED_clean_linker_0, # of connection points: 2
#     Edge 141, Type (0, 1), BuildingBlock: XIVTED_clean_linker_0, # of connection points: 2
#     Edge 142, Type (0, 1), BuildingBlock: XIVTED_clean_linker_0, # of connection points: 2
#     Edge 143, Type (0, 1), BuildingBlock: XIVTED_clean_linker_0, # of connection points: 2
#     Edge 144, Type (0, 1), BuildingBlock: XIVTED_clean_linker_0, # of connection points: 2
#     Edge 145, Type (0, 1), BuildingBlock: XIVTED_clean_linker_0, # of connection points: 2
#     Edge 146, Type (0, 1), BuildingBlock: XIVTED_clean_linker_0, # of connection points: 2
#     Edge 147, Type (0, 1), BuildingBlock: XIVTED_clean_linker_0, # of connection points: 2
#     Edge 148, Type (0, 1), BuildingBlock: XIVTED_clean_linker_0, # of connection points: 2
#     Edge 149, Type (0, 1), BuildingBlock: XIVTED_clean_linker_0, # of connection points: 2
#     Edge 150, Type (0, 1), BuildingBlock: XIVTED_clean_linker_0, # of connection points: 2
#     Edge 151, Type (0, 1), BuildingBlock: XIVTED_clean_linker_0, # of connection points: 2
#     Edge 152, Type (0, 1), BuildingBlock: XIVTED_clean_linker_0, # of connection points: 2
#     Edge 153, Type (0, 1), BuildingBlock: XIVTED_clean_linker_0, # of connection points: 2
#     Edge 154, Type (0, 1), BuildingBlock: XIVTED_clean_linker_0, # of connection points: 2
#     Edge 155, Type (0, 1), BuildingBlock: XIVTED_clean_linker_0, # of connection points: 2
#     Edge 156, Type (0, 1), BuildingBlock: XIVTED_clean_linker_0, # of connection points: 2
#     Edge 157, Type (0, 1), BuildingBlock: XIVTED_clean_linker_0, # of connection points: 2
#     Edge 158, Type (0, 1), BuildingBlock: XIVTED_clean_linker_0, # of connection points: 2
#     Edge 159, Type (0, 1), BuildingBlock: XIVTED_clean_linker_0, # of connection points: 2
#     Edge 160, Type (0, 1), BuildingBlock: XIVTED_clean_linker_0, # of connection points: 2
#     Edge 161, Type (0, 1), BuildingBlock: XIVTED_clean_linker_0, # of connection points: 2
#     Edge 162, Type (0, 1), BuildingBlock: XIVTED_clean_linker_0, # of connection points: 2
#     Edge 163, Type (0, 1), BuildingBlock: XIVTED_clean_linker_0, # of connection points: 2
#     Edge 164, Type (0, 1), BuildingBlock: XIVTED_clean_linker_0, # of connection points: 2
#     Edge 165, Type (0, 1), BuildingBlock: XIVTED_clean_linker_0, # of connection points: 2
#     Edge 166, Type (0, 1), BuildingBlock: XIVTED_clean_linker_0, # of connection points: 2
#     Edge 167, Type (0, 1), BuildingBlock: XIVTED_clean_linker_0, # of connection points: 2
#     Edge 168, Type (0, 1), BuildingBlock: XIVTED_clean_linker_0, # of connection points: 2
#     Edge 169, Type (0, 1), BuildingBlock: XIVTED_clean_linker_0, # of connection points: 2
#     Edge 170, Type (0, 1), BuildingBlock: XIVTED_clean_linker_0, # of connection points: 2
#     Edge 171, Type (0, 1), BuildingBlock: XIVTED_clean_linker_0, # of connection points: 2
#     Edge 172, Type (0, 1), BuildingBlock: XIVTED_clean_linker_0, # of connection points: 2
#     Edge 173, Type (0, 1), BuildingBlock: XIVTED_clean_linker_0, # of connection points: 2
#     Edge 174, Type (0, 1), BuildingBlock: XIVTED_clean_linker_0, # of connection points: 2
#     Edge 175, Type (0, 1), BuildingBlock: XIVTED_clean_linker_0, # of connection points: 2
#     Edge 176, Type (0, 1), BuildingBlock: XIVTED_clean_linker_0, # of connection points: 2
#     Edge 177, Type (0, 1), BuildingBlock: XIVTED_clean_linker_0, # of connection points: 2
#     Edge 178, Type (0, 1), BuildingBlock: XIVTED_clean_linker_0, # of connection points: 2
#     Edge 179, Type (0, 1), BuildingBlock: XIVTED_clean_linker_0, # of connection points: 2
#     Edge 180, Type (0, 1), BuildingBlock: XIVTED_clean_linker_0, # of connection points: 2
#     Edge 181, Type (0, 1), BuildingBlock: XIVTED_clean_linker_0, # of connection points: 2
#     Edge 182, Type (0, 1), BuildingBlock: XIVTED_clean_linker_0, # of connection points: 2
#     Edge 183, Type (0, 1), BuildingBlock: XIVTED_clean_linker_0, # of connection points: 2
#     Edge 184, Type (0, 1), BuildingBlock: XIVTED_clean_linker_0, # of connection points: 2
#     Edge 185, Type (0, 1), BuildingBlock: XIVTED_clean_linker_0, # of connection points: 2
#     Edge 186, Type (0, 1), BuildingBlock: XIVTED_clean_linker_0, # of connection points: 2
#     Edge 187, Type (0, 1), BuildingBlock: XIVTED_clean_linker_0, # of connection points: 2
#     Edge 188, Type (0, 1), BuildingBlock: XIVTED_clean_linker_0, # of connection points: 2
#     Edge 189, Type (0, 1), BuildingBlock: XIVTED_clean_linker_0, # of connection points: 2
#     Edge 190, Type (0, 1), BuildingBlock: XIVTED_clean_linker_0, # of connection points: 2
#     Edge 191, Type (0, 1), BuildingBlock: XIVTED_clean_linker_0, # of connection points: 2
#     Edge 192, Type (0, 1), BuildingBlock: XIVTED_clean_linker_0, # of connection points: 2
#     Edge 193, Type (0, 1), BuildingBlock: XIVTED_clean_linker_0, # of connection points: 2
#     Edge 194, Type (0, 1), BuildingBlock: XIVTED_clean_linker_0, # of connection points: 2
#     Edge 195, Type (0, 1), BuildingBlock: XIVTED_clean_linker_0, # of connection points: 2
#     Edge 196, Type (0, 1), BuildingBlock: XIVTED_clean_linker_0, # of connection points: 2
#     Edge 197, Type (0, 1), BuildingBlock: XIVTED_clean_linker_0, # of connection points: 2
#     Edge 198, Type (0, 1), BuildingBlock: XIVTED_clean_linker_0, # of connection points: 2
#     Edge 199, Type (0, 1), BuildingBlock: XIVTED_clean_linker_0, # of connection points: 2
#     Edge 200, Type (0, 1), BuildingBlock: XIVTED_clean_linker_0, # of connection points: 2
#     Edge 201, Type (0, 1), BuildingBlock: XIVTED_clean_linker_0, # of connection points: 2
#     Edge 202, Type (0, 1), BuildingBlock: XIVTED_clean_linker_0, # of connection points: 2
#     Edge 203, Type (0, 1), BuildingBlock: XIVTED_clean_linker_0, # of connection points: 2
#     Edge 204, Type (0, 1), BuildingBlock: XIVTED_clean_linker_0, # of connection points: 2
#     Edge 205, Type (0, 1), BuildingBlock: XIVTED_clean_linker_0, # of connection points: 2
#     Edge 206, Type (0, 1), BuildingBlock: XIVTED_clean_linker_0, # of connection points: 2
#     Edge 207, Type (0, 1), BuildingBlock: XIVTED_clean_linker_0, # of connection points: 2
#     Edge 208, Type (0, 1), BuildingBlock: XIVTED_clean_linker_0, # of connection points: 2
#     Edge 209, Type (0, 1), BuildingBlock: XIVTED_clean_linker_0, # of connection points: 2
#     Edge 210, Type (0, 1), BuildingBlock: XIVTED_clean_linker_0, # of connection points: 2
#     Edge 211, Type (0, 1), BuildingBlock: XIVTED_clean_linker_0, # of connection points: 2
#     Edge 212, Type (0, 1), BuildingBlock: XIVTED_clean_linker_0, # of connection points: 2
#     Edge 213, Type (0, 1), BuildingBlock: XIVTED_clean_linker_0, # of connection points: 2
#     Edge 214, Type (0, 1), BuildingBlock: XIVTED_clean_linker_0, # of connection points: 2
#     Edge 215, Type (0, 1), BuildingBlock: XIVTED_clean_linker_0, # of connection points: 2
#     Edge 216, Type (0, 1), BuildingBlock: XIVTED_clean_linker_0, # of connection points: 2
#     Edge 217, Type (0, 1), BuildingBlock: XIVTED_clean_linker_0, # of connection points: 2
#     Edge 218, Type (0, 1), BuildingBlock: XIVTED_clean_linker_0, # of connection points: 2
#     Edge 219, Type (0, 1), BuildingBlock: XIVTED_clean_linker_0, # of connection points: 2
#     Edge 220, Type (0, 1), BuildingBlock: XIVTED_clean_linker_0, # of connection points: 2
#     Edge 221, Type (0, 1), BuildingBlock: XIVTED_clean_linker_0, # of connection points: 2
#     Edge 222, Type (0, 1), BuildingBlock: XIVTED_clean_linker_0, # of connection points: 2
#     Edge 223, Type (0, 1), BuildingBlock: XIVTED_clean_linker_0, # of connection points: 2
#     Edge 224, Type (0, 1), BuildingBlock: XIVTED_clean_linker_0, # of connection points: 2
#     Edge 225, Type (0, 1), BuildingBlock: XIVTED_clean_linker_0, # of connection points: 2
#     Edge 226, Type (0, 1), BuildingBlock: XIVTED_clean_linker_0, # of connection points: 2
#     Edge 227, Type (0, 1), BuildingBlock: XIVTED_clean_linker_0, # of connection points: 2
#     Edge 228, Type (0, 1), BuildingBlock: XIVTED_clean_linker_0, # of connection points: 2
#     Edge 229, Type (0, 1), BuildingBlock: XIVTED_clean_linker_0, # of connection points: 2
#     Edge 230, Type (0, 1), BuildingBlock: XIVTED_clean_linker_0, # of connection points: 2
#     Edge 231, Type (0, 1), BuildingBlock: XIVTED_clean_linker_0, # of connection points: 2
#     Edge 232, Type (0, 1), BuildingBlock: XIVTED_clean_linker_0, # of connection points: 2
#     Edge 233, Type (0, 1), BuildingBlock: XIVTED_clean_linker_0, # of connection points: 2
#     Edge 234, Type (0, 1), BuildingBlock: XIVTED_clean_linker_0, # of connection points: 2
#     Edge 235, Type (0, 1), BuildingBlock: XIVTED_clean_linker_0, # of connection points: 2
#     Edge 236, Type (0, 1), BuildingBlock: XIVTED_clean_linker_0, # of connection points: 2
#     Edge 237, Type (0, 1), BuildingBlock: XIVTED_clean_linker_0, # of connection points: 2
#     Edge 238, Type (0, 1), BuildingBlock: XIVTED_clean_linker_0, # of connection points: 2
#     Edge 239, Type (0, 1), BuildingBlock: XIVTED_clean_linker_0, # of connection points: 2
# Relax obj value: 0.030
# Max RMSD: 0.086
# Mean RMSD: 0.043
data_MOF--net-bpr--node1-OLANEW_clean_sbu_2--node2-BELTOD_clean_linker_0--edge1-XIVTED_clean_linker_0
_symmetry_space_group_name_H-M    P1
_symmetry_Int_Tables_number       1
_symmetry_cell_setting            triclinic
loop_
_symmetry_equiv_pos_as_xyz
'x, y, z'
_cell_length_a     93.613162
_cell_length_b     106.12774
_cell_length_c     100.21513
_cell_angle_alpha  89.943408
_cell_angle_beta   90.536553
_cell_angle_gamma 90.12476
loop_
_atom_site_label
_atom_site_type_symbol
_atom_site_fract_x
_atom_site_fract_y
_atom_site_fract_z
_atom_type_partial_charge
O0 O 0.05501 0.38252 0.26942 0.0
Cd1 Cd 0.0344 0.38731 0.25514 0.0
O2 O 0.04619 0.36421 0.27555 0.0
Cd3 Cd 0.02496 0.36855 0.26765 0.0
O4 O 0.00312 0.37506 0.27064 0.0
C5 C -0.00633 0.36719 0.27425 0.0
O6 O -0.00292 0.3552 0.27501 0.0
C7 C 0.05643 0.37211 0.27559 0.0
C8 C 0.04211 0.38286 0.22878 0.0
O9 O 0.04327 0.39388 0.23392 0.0
O10 O 0.03693 0.37403 0.236 0.0
O11 O 0.83279 0.78496 0.545 0.0
Cd12 Cd 0.83736 0.77204 0.5253 0.0
O13 O 0.85207 0.77843 0.55562 0.0
Cd14 Cd 0.85661 0.76327 0.54165 0.0
O15 O 0.85945 0.74298 0.53966 0.0
C16 C 0.84986 0.73616 0.54495 0.0
O17 O 0.83874 0.74168 0.55028 0.0
C18 C 0.84116 0.78552 0.55506 0.0
C19 C 0.84498 0.7874 0.50388 0.0
O20 O 0.83187 0.78473 0.50615 0.0
O21 O 0.85453 0.78267 0.51163 0.0
O22 O 0.45039 0.64749 0.7705 0.0
Cd23 Cd 0.46823 0.64689 0.75291 0.0
O24 O 0.44004 0.63006 0.76349 0.0
Cd25 Cd 0.45037 0.63018 0.74406 0.0
O26 O 0.44946 0.62974 0.7223 0.0
C27 C 0.43686 0.6299 0.71745 0.0
O28 O 0.42603 0.63039 0.72568 0.0
C29 C 0.44132 0.63871 0.77218 0.0
C30 C 0.49316 0.63821 0.76521 0.0
O31 O 0.49073 0.65004 0.76401 0.0
O32 O 0.4841 0.63051 0.76005 0.0
O33 O 0.61532 0.21856 0.03638 0.0
Cd34 Cd 0.60572 0.22912 0.01653 0.0
O35 O 0.63756 0.22099 0.02994 0.0
Cd36 Cd 0.63088 0.22546 0.0096 0.0
O37 O 0.62416 0.21888 0.98993 0.0
C38 C 0.61691 0.20875 0.98994 0.0
O39 O 0.61351 0.20367 0.00145 0.0
C40 C 0.62865 0.2177 0.03879 0.0
C41 C 0.60657 0.25477 0.02229 0.0
O42 O 0.59532 0.24822 0.02452 0.0
O43 O 0.61717 0.24931 0.01675 0.0
O44 O 0.03518 0.61288 0.22069 0.0
Cd45 Cd 0.01382 0.60729 0.23337 0.0
O46 O 0.03173 0.63333 0.22218 0.0
Cd47 Cd 0.00971 0.63016 0.22812 0.0
O48 O 0.9889 0.62323 0.22157 0.0
C49 C 0.98022 0.63085 0.21605 0.0
O50 O 0.98351 0.64288 0.21566 0.0
C51 C 0.03953 0.62411 0.21876 0.0
C52 C 0.01967 0.6117 0.2603 0.0
O53 O 0.02233 0.60098 0.25498 0.0
O54 O 0.01382 0.62017 0.25298 0.0
O55 O 0.61357 0.76797 0.44032 0.0
Cd56 Cd 0.60684 0.75754 0.4611 0.0
O57 O 0.63507 0.772 0.44828 0.0
Cd58 Cd 0.62892 0.76866 0.46893 0.0
O59 O 0.62309 0.77531 0.48874 0.0
C60 C 0.61698 0.78599 0.489 0.0
O61 O 0.6142 0.7917 0.47763 0.0
C62 C 0.62627 0.77187 0.43853 0.0
C63 C 0.61565 0.73261 0.45854 0.0
O64 O 0.62418 0.74109 0.46305 0.0
O65 O 0.60276 0.73582 0.45579 0.0
O66 O 0.44222 0.36717 0.73622 0.0
Cd67 Cd 0.46185 0.37204 0.75171 0.0
O68 O 0.44764 0.34705 0.73499 0.0
Cd69 Cd 0.46771 0.34994 0.74575 0.0
O70 O 0.48984 0.35561 0.74272 0.0
C71 C 0.49161 0.36341 0.73324 0.0
O72 O 0.48029 0.36771 0.72688 0.0
C73 C 0.43952 0.35618 0.73178 0.0
C74 C 0.45323 0.37377 0.7782 0.0
O75 O 0.45335 0.38348 0.77058 0.0
O76 O 0.45708 0.36319 0.77325 0.0
O77 O 0.83555 0.21521 0.94934 0.0
Cd78 Cd 0.8398 0.22792 0.96933 0.0
O79 O 0.81704 0.20533 0.95776 0.0
Cd80 Cd 0.82139 0.2124 0.97781 0.0
O81 O 0.83151 0.20676 -0.00342 0.0
C82 C 0.84495 0.2051 -0.00339 0.0
O83 O 0.85216 0.20795 0.98583 0.0
C84 C 0.82529 0.20743 0.948 0.0
C85 C 0.8474 0.2525 0.96263 0.0
O86 O 0.85689 0.24388 0.96394 0.0
O87 O 0.83431 0.2495 0.96458 0.0
O88 O 0.28614 0.03059 0.36461 0.0
Cd89 Cd 0.26676 0.01512 0.36548 0.0
O90 O 0.27653 0.04221 0.3803 0.0
Cd91 Cd 0.25614 0.03223 0.38026 0.0
O92 O 0.23292 0.03201 0.37828 0.0
C93 C 0.22763 0.03654 0.36759 0.0
O94 O 0.23633 0.04027 0.35815 0.0
C95 C 0.2868 0.04002 0.37243 0.0
C96 C 0.27776 0.99189 0.3735 0.0
O97 O 0.27616 -0.00544 0.3611 0.0
O98 O 0.27391 0.00011 0.3821 0.0
O99 O 0.18776 0.02855 0.59945 0.0
Cd100 Cd 0.20804 0.01408 0.59931 0.0
O101 O 0.19735 0.04126 0.58466 0.0
Cd102 Cd 0.21772 0.03135 0.58427 0.0
O103 O 0.24077 0.029 0.58639 0.0
C104 C 0.24626 0.02966 0.59801 0.0
O105 O 0.23779 0.03094 0.6083 0.0
C106 C 0.18697 0.03834 0.59215 0.0
C107 C 0.19888 0.98928 0.60258 0.0
O108 O 0.20223 -0.00387 0.61266 0.0
O109 O 0.19996 -0.00587 0.59091 0.0
O110 O 0.19919 0.95181 0.87529 0.0
Cd111 Cd 0.21717 0.96851 0.87708 0.0
O112 O 0.18568 0.96293 0.86163 0.0
Cd113 Cd 0.1986 0.98003 0.86263 0.0
O114 O 0.20218 0.00033 0.86329 0.0
C115 C 0.19976 0.00632 0.874 0.0
O116 O 0.19605 -2e-05 0.8847 0.0
C117 C 0.18804 0.95278 0.86803 0.0
C118 C 0.2448 0.9589 0.87556 0.0
O119 O 0.23844 0.95985 0.88678 0.0
O120 O 0.2381 0.96253 0.86503 0.0
O121 O 0.27733 0.97296 0.11813 0.0
Cd122 Cd 0.25846 0.98859 0.12091 0.0
O123 O 0.26834 0.96523 0.09951 0.0
Cd124 Cd 0.24778 0.97435 0.10269 0.0
O125 O 0.22611 0.97207 0.11016 0.0
C126 C 0.21718 0.96601 0.103 0.0
O127 O 0.22097 0.96243 0.091 0.0
C128 C 0.27839 0.96568 0.10812 0.0
C129 C 0.27065 0.01206 0.1158 0.0
O130 O 0.27057 0.00745 0.12762 0.0
O131 O 0.2645 0.00576 0.10646 0.0
O132 O 0.343 0.28804 0.04771 0.0
Cd133 Cd 0.34919 0.2752 0.02834 0.0
O134 O 0.35605 0.27672 0.06159 0.0
Cd135 Cd 0.36131 0.2618 0.04753 0.0
O136 O 0.36505 0.24176 0.04423 0.0
C137 C 0.35448 0.23429 0.04509 0.0
O138 O 0.34167 0.239 0.0469 0.0
C139 C 0.34799 0.28613 0.05937 0.0
C140 C 0.35921 0.29044 0.00769 0.0
O141 O 0.34589 0.28778 0.00866 0.0
O142 O 0.3678 0.28578 0.01641 0.0
O143 O 0.94276 0.86949 0.23803 0.0
Cd144 Cd 0.96021 0.87593 0.25504 0.0
O145 O 0.95135 0.85034 0.23601 0.0
Cd146 Cd 0.97044 0.85505 0.24759 0.0
O147 O 0.99246 0.86133 0.24521 0.0
C148 C -0.0057 0.86998 0.23661 0.0
O149 O 0.98302 0.87493 0.23073 0.0
C150 C 0.94202 0.85855 0.23291 0.0
C151 C 0.9482 0.87625 0.2804 0.0
O152 O 0.94735 0.88584 0.27266 0.0
O153 O 0.95479 0.86648 0.27618 0.0
O154 O 0.10326 0.72541 0.5494 0.0
Cd155 Cd 0.09469 0.7381 0.5306 0.0
O156 O 0.12061 0.71712 0.53768 0.0
Cd157 Cd 0.11265 0.72392 0.5185 0.0
O158 O 0.10711 0.72039 0.49767 0.0
C159 C 0.09897 0.71104 0.4953 0.0
O160 O 0.09372 0.70471 0.50542 0.0
C161 C 0.11435 0.71855 0.54877 0.0
C162 C 0.09998 0.76323 0.53698 0.0
O163 O 0.0879 0.7581 0.53952 0.0
O164 O 0.10938 0.7566 0.531 0.0
O165 O 0.98614 0.58041 0.6919 0.0
Cd166 Cd 0.00476 0.5763 0.70858 0.0
O167 O 0.97725 0.59538 0.70429 0.0
Cd168 Cd 0.9616 0.60918 0.71108 0.0
O169 O 0.94877 0.61968 0.72534 0.0
C170 C 0.93578 0.61675 0.72725 0.0
O171 O 0.92994 0.60782 0.71993 0.0
C172 C 0.97674 0.58885 0.69366 0.0
C173 C 0.03041 0.58819 0.70235 0.0
O174 O 0.0272 0.57739 0.69744 0.0
O175 O 0.02147 0.5934 0.71022 0.0
O176 O 0.10757 0.20955 0.45857 0.0
Cd177 Cd 0.11148 0.2275 0.47348 0.0
O178 O 0.13051 0.20557 0.45667 0.0
Cd179 Cd 0.1366 0.22405 0.46439 0.0
O180 O 0.14237 0.24342 0.45942 0.0
C181 C 0.13327 0.24956 0.45255 0.0
O182 O 0.12087 0.24428 0.44984 0.0
C183 C 0.11756 0.2025 0.45445 0.0
C184 C 0.1069 0.21902 0.49946 0.0
O185 O 0.09673 0.22391 0.49256 0.0
O186 O 0.11933 0.21854 0.49423 0.0
O187 O 0.50374 0.34354 0.21514 0.0
Cd188 Cd 0.48399 0.34345 0.23086 0.0
O189 O 0.50256 0.36393 0.21128 0.0
Cd190 Cd 0.48197 0.36571 0.22111 0.0
O191 O 0.45877 0.36715 0.22251 0.0
C192 C 0.45277 0.37695 0.21783 0.0
O193 O 0.46079 0.38605 0.21307 0.0
C194 C 0.50877 0.3534 0.20968 0.0
C195 C 0.49532 0.34699 0.25641 0.0
O196 O 0.494 0.33592 0.25145 0.0
O197 O 0.49095 0.35636 0.24941 0.0
O198 O 0.3523 0.78505 0.95855 0.0
Cd199 Cd 0.34867 0.76863 0.97532 0.0
O200 O 0.37564 0.78275 0.95924 0.0
Cd201 Cd 0.37504 0.7728 0.97829 0.0
O202 O 0.37591 0.77663 -0.00031 0.0
C203 C 0.36576 0.78313 0.00442 0.0
O204 O 0.35497 0.78608 -0.00345 0.0
C205 C 0.36458 0.78769 0.95396 0.0
C206 C 0.3486 0.74497 0.96323 0.0
O207 O 0.33686 0.75076 0.96546 0.0
O208 O 0.3603 0.75029 0.96687 0.0
O209 O 0.96779 0.35605 0.78371 0.0
Cd210 Cd 0.98394 0.35384 0.76481 0.0
O211 O 0.9683 0.37678 0.78298 0.0
Cd212 Cd 0.98654 0.37678 0.76966 0.0
O213 O 0.00948 0.37331 0.7693 0.0
C214 C 0.01366 0.36581 0.77842 0.0
O215 O 0.00408 0.36078 0.78632 0.0
C216 C 0.96339 0.36664 0.78796 0.0
C217 C 0.96951 0.35621 0.74046 0.0
O218 O 0.97204 0.34532 0.74548 0.0
O219 O 0.9738 0.36593 0.74694 0.0
O220 O 0.36039 0.19653 0.53061 0.0
Cd221 Cd 0.35673 0.21408 0.51514 0.0
O222 O 0.38365 0.19679 0.52768 0.0
Cd223 Cd 0.38262 0.20917 0.51028 0.0
O224 O 0.38364 0.21021 0.48855 0.0
C225 C 0.37271 0.20689 0.48181 0.0
O226 O 0.3609 0.20409 0.48816 0.0
C227 C 0.37276 0.19243 0.53364 0.0
C228 C 0.35849 0.23702 0.5286 0.0
O229 O 0.34637 0.23173 0.52643 0.0
O230 O 0.36971 0.23152 0.52431 0.0
O231 O 0.53458 0.63234 0.27668 0.0
Cd232 Cd 0.5146 0.63206 0.26086 0.0
O233 O 0.52293 0.62244 0.29254 0.0
Cd234 Cd 0.50247 0.62075 0.28205 0.0
O235 O 0.47957 0.61695 0.28304 0.0
C236 C 0.47083 0.62601 0.28428 0.0
O237 O 0.4757 0.63763 0.28381 0.0
C238 C 0.53428 0.62762 0.28834 0.0
C239 C 0.52512 0.63099 0.23495 0.0
O240 O 0.52306 0.64159 0.24073 0.0
O241 O 0.52198 0.62091 0.24135 0.0
O242 O 0.11096 0.78496 0.04859 0.0
Cd243 Cd 0.10808 0.7694 0.03084 0.0
O244 O 0.09081 0.79492 0.04453 0.0
Cd245 Cd 0.08709 0.7853 0.02555 0.0
O246 O 0.08352 0.78537 0.00399 0.0
C247 C 0.09416 0.78599 -0.00377 0.0
O248 O 0.10711 0.78557 0.00138 0.0
C249 C 0.10194 0.79337 0.05169 0.0
C250 C 0.11499 0.74614 0.04209 0.0
O251 O 0.12447 0.75282 0.03623 0.0
O252 O 0.10212 0.75025 0.04219 0.0
O253 O 0.68061 0.98609 0.55938 0.0
Cd254 Cd 0.69397 0.0041 0.55082 0.0
O255 O 0.69689 0.98401 0.57507 0.0
Cd256 Cd 0.70804 0.97398 0.59115 0.0
O257 O 0.72007 0.9625 0.60541 0.0
C258 C 0.73354 0.9617 0.60422 0.0
O259 O 0.7398 0.96797 0.59459 0.0
C260 C 0.68539 0.9802 0.56952 0.0
C261 C 0.68711 0.0266 0.5635 0.0
O262 O 0.68037 0.02304 0.55296 0.0
O263 O 0.69704 0.01947 0.56809 0.0
O264 O 0.77795 -0.00556 0.38886 0.0
Cd265 Cd 0.76269 0.0121 0.38235 0.0
O266 O 0.76467 0.98163 0.37694 0.0
Cd267 Cd 0.75709 0.96358 0.36897 0.0
O268 O 0.74713 0.94676 0.36043 0.0
C269 C 0.73508 0.94322 0.36482 0.0
O270 O 0.72914 0.94968 0.37447 0.0
C271 C 0.7755 0.98341 0.38448 0.0
C272 C 0.77852 0.03437 0.38251 0.0
O273 O 0.7714 0.03097 0.39277 0.0
O274 O 0.77797 0.02734 0.37213 0.0
O275 O 0.78569 0.00156 0.07056 0.0
Cd276 Cd 0.76792 0.98472 0.07191 0.0
O277 O 0.77414 0.0114 0.08629 0.0
Cd278 Cd 0.76892 0.02713 0.09944 0.0
O279 O 0.75905 0.042 0.11118 0.0
C280 C 0.76202 0.05353 0.10918 0.0
O281 O 0.77152 0.05649 0.10012 0.0
C282 C 0.78465 0.01093 0.07836 0.0
C283 C 0.78132 0.96202 0.07807 0.0
O284 O 0.77872 0.96512 0.06592 0.0
O285 O 0.77737 0.96957 0.0873 0.0
O286 O 0.67913 0.00672 0.93271 0.0
Cd287 Cd 0.69031 0.98824 0.9428 0.0
O288 O 0.69623 0.0072 0.91795 0.0
Cd289 Cd 0.70898 0.01593 0.90222 0.0
O290 O 0.72453 0.02559 0.88968 0.0
C291 C 0.73706 0.02108 0.88898 0.0
O292 O 0.74002 0.01062 0.89547 0.0
C293 C 0.68483 0.01189 0.92263 0.0
C294 C 0.68742 0.96705 0.92664 0.0
O295 O 0.67804 0.9697 0.93544 0.0
O296 O 0.69819 0.97444 0.9255 0.0
O297 O 0.61447 0.71264 0.96687 0.0
Cd298 Cd 0.62116 0.72963 0.98215 0.0
O299 O 0.63519 0.71269 0.95672 0.0
Cd300 Cd 0.6417 0.73101 0.96449 0.0
O301 O 0.64602 0.74928 0.95539 0.0
C302 C 0.6396 0.75067 0.94425 0.0
O303 O 0.63101 0.74166 0.94008 0.0
C304 C 0.62298 0.70777 0.95853 0.0
C305 C 0.61975 0.71977 0.00789 0.0
O306 O 0.60895 0.72523 0.00251 0.0
O307 O 0.63139 0.71937 0.00127 0.0
O308 O 0.02639 0.14085 0.7764 0.0
Cd309 Cd 0.00518 0.14037 0.76205 0.0
O310 O 0.02575 0.1204 0.77997 0.0
Cd311 Cd 0.00397 0.11838 0.77216 0.0
O312 O 0.98084 0.11594 0.77377 0.0
C313 C 0.97298 0.12551 0.77569 0.0
O314 O 0.97888 0.13676 0.77582 0.0
C315 C 0.03206 0.13096 0.78127 0.0
C316 C 0.01376 0.13964 0.73549 0.0
O317 O 0.01096 0.15015 0.74119 0.0
O318 O 0.01223 0.12949 0.74228 0.0
O319 O 0.85027 0.29503 0.45599 0.0
Cd320 Cd 0.8439 0.27929 0.47275 0.0
O321 O 0.87314 0.2937 0.46105 0.0
Cd322 Cd 0.86958 0.28387 0.47985 0.0
O323 O 0.87032 0.28634 0.50145 0.0
C324 C 0.88227 0.28526 0.50745 0.0
O325 O 0.8934 0.28146 0.50066 0.0
C326 C 0.86318 0.29799 0.45363 0.0
C327 C 0.84854 0.25526 0.46242 0.0
O328 O 0.83623 0.26047 0.46149 0.0
O329 O 0.85855 0.26133 0.46844 0.0
O330 O 0.54057 0.87732 0.7609 0.0
Cd331 Cd 0.51961 0.8811 0.74676 0.0
O332 O 0.53346 0.85828 0.76641 0.0
Cd333 Cd 0.51159 0.862 0.7598 0.0
O334 O 0.48992 0.8679 0.76468 0.0
C335 C 0.48176 0.85996 0.7703 0.0
O336 O 0.48628 0.84835 0.77196 0.0
C337 C 0.54304 0.86679 0.76653 0.0
C338 C 0.52815 0.87706 0.72054 0.0
O339 O 0.52848 0.88812 0.72568 0.0
O340 O 0.52328 0.868 0.72765 0.0
O341 O 0.96048 0.14868 0.2644 0.0
Cd342 Cd 0.97754 0.14532 0.24649 0.0
O343 O 0.94412 0.13566 0.25657 0.0
Cd344 Cd 0.95405 0.13339 0.23711 0.0
O345 O 0.95444 0.13067 0.21553 0.0
C346 C 0.95342 0.11959 0.21081 0.0
O347 O 0.95305 0.10999 0.21908 0.0
C348 C 0.94866 0.14292 0.26576 0.0
C349 C 0.00205 0.13616 0.25915 0.0
O350 O 0.00027 0.148 0.2573 0.0
O351 O 0.99256 0.12861 0.25445 0.0
O352 O 0.53743 0.11458 0.72136 0.0
Cd353 Cd 0.51787 0.10897 0.7362 0.0
O354 O 0.52825 0.13313 0.71663 0.0
Cd355 Cd 0.50732 0.12792 0.72431 0.0
O356 O 0.48582 0.1213 0.71939 0.0
C357 C 0.48368 0.10961 0.71744 0.0
O358 O 0.49422 0.10168 0.71959 0.0
C359 C 0.53851 0.12533 0.71584 0.0
C360 C 0.52801 0.11177 0.76223 0.0
O361 O 0.52859 0.1011 0.75629 0.0
O362 O 0.52219 0.12101 0.75601 0.0
O363 O 0.11429 0.27245 0.93988 0.0
Cd364 Cd 0.10608 0.25965 0.95862 0.0
O365 O 0.13372 0.27864 0.95051 0.0
Cd366 Cd 0.12614 0.27239 0.96996 0.0
O367 O 0.11958 0.27753 0.99007 0.0
C368 C 0.11172 0.28724 0.99084 0.0
O369 O 0.10753 0.29276 0.97973 0.0
C370 C 0.12623 0.27818 0.93988 0.0
C371 C 0.11213 0.23468 0.95226 0.0
O372 O 0.10005 0.23962 0.94917 0.0
O373 O 0.12114 0.24142 0.95881 0.0
O374 O 0.33205 0.72223 0.44695 0.0
Cd375 Cd 0.33452 0.73809 0.46455 0.0
O376 O 0.3152 0.71209 0.45773 0.0
Cd377 Cd 0.31979 0.72174 0.47648 0.0
O378 O 0.3323 0.71698 0.49426 0.0
C379 C 0.34508 0.71359 0.49208 0.0
O380 O 0.34997 0.71437 0.47985 0.0
C381 C 0.32276 0.71347 0.44735 0.0
C382 C 0.34023 0.76207 0.45445 0.0
O383 O 0.3504 0.75472 0.4581 0.0
O384 O 0.32737 0.75805 0.45553 0.0
O385 O 0.79094 0.51124 0.84767 0.0
Cd386 Cd 0.7765 0.49206 0.84822 0.0
O387 O 0.7719 0.52149 0.85377 0.0
Cd388 Cd 0.75791 0.53734 0.85828 0.0
O389 O 0.73828 0.5476 0.86232 0.0
C390 C 0.73321 0.55555 0.85407 0.0
O391 O 0.74031 0.55807 0.84314 0.0
C392 C 0.78505 0.5216 0.85072 0.0
C393 C 0.79165 0.47224 0.85978 0.0
O394 O 0.79203 0.47426 0.84717 0.0
O395 O 0.784 0.47956 0.86693 0.0
O396 O 0.69096 0.51215 0.12758 0.0
Cd397 Cd 0.70795 0.49479 0.12907 0.0
O398 O 0.70936 0.52324 0.12143 0.0
Cd399 Cd 0.72317 0.53898 0.11597 0.0
O400 O 0.74427 0.54689 0.11228 0.0
C401 C 0.75465 0.54006 0.11614 0.0
O402 O 0.75188 0.52924 0.12198 0.0
C403 C 0.69609 0.52268 0.12393 0.0
C404 C 0.6948 0.47134 0.12707 0.0
O405 O 0.69674 0.47664 0.13844 0.0
O406 O 0.69903 0.47718 0.11662 0.0
O407 O 0.70879 0.44782 0.38479 0.0
Cd408 Cd 0.72473 0.46513 0.3912 0.0
O409 O 0.7005 0.45821 0.36738 0.0
Cd410 Cd 0.71136 0.47574 0.37264 0.0
O411 O 0.70991 0.49542 0.37871 0.0
C412 C 0.69758 0.49862 0.38265 0.0
O413 O 0.68748 0.49001 0.38309 0.0
C414 C 0.7008 0.44827 0.37446 0.0
C415 C 0.75328 0.45899 0.38718 0.0
O416 O 0.7473 0.457 0.39845 0.0
O417 O 0.74575 0.46392 0.3778 0.0
O418 O 0.78359 0.47048 0.61766 0.0
Cd419 Cd 0.76383 0.4854 0.61924 0.0
O420 O 0.77199 0.45703 0.60486 0.0
Cd421 Cd 0.75134 0.46613 0.60752 0.0
O422 O 0.72923 0.46439 0.61398 0.0
C423 C 0.7201 0.45955 0.60603 0.0
O424 O 0.724 0.45683 0.5938 0.0
C425 C 0.78344 0.46045 0.61074 0.0
C426 C 0.77478 0.50922 0.61353 0.0
O427 O 0.77438 0.50511 0.62555 0.0
O428 O 0.76956 0.50222 0.60427 0.0
O429 O 0.48933 0.08832 0.19079 0.0
Cd430 Cd 0.50714 0.08659 0.20868 0.0
O431 O 0.47925 0.10298 0.20273 0.0
Cd432 Cd 0.46288 0.1161 0.20954 0.0
O433 O 0.45206 0.12543 0.22602 0.0
C434 C 0.46011 0.12892 0.23562 0.0
O435 O 0.47397 0.12733 0.23455 0.0
C436 C 0.47933 0.09627 0.19222 0.0
C437 C 0.53325 0.09739 0.2019 0.0
O438 O 0.53082 0.08565 0.19991 0.0
O439 O 0.5233 0.10403 0.20706 0.0
O440 O 0.01371 0.85844 0.7142 0.0
Cd441 Cd 0.99238 0.85662 0.72793 0.0
O442 O 0.01275 0.8791 0.71264 0.0
Cd443 Cd 0.99123 0.87957 0.72084 0.0
O444 O 0.96796 0.87825 0.72005 0.0
C445 C 0.96294 0.87086 0.7112 0.0
O446 O 0.97189 0.86448 0.70379 0.0
C447 C 0.01919 0.86879 0.71037 0.0
C448 C 0.0009 0.85691 0.75466 0.0
O449 O -0.00013 0.84652 0.74821 0.0
O450 O -0.00243 0.86712 0.74855 0.0
O451 O 0.46182 0.87167 0.27794 0.0
Cd452 Cd 0.47812 0.86724 0.2596 0.0
O453 O 0.47502 0.8874 0.28536 0.0
Cd454 Cd 0.49266 0.88374 0.27185 0.0
O455 O 0.51432 0.87719 0.26807 0.0
C456 C 0.51707 0.86583 0.27119 0.0
O457 O 0.50664 0.85864 0.27552 0.0
C458 C 0.46381 0.88066 0.28615 0.0
C459 C 0.46395 0.86728 0.235 0.0
O460 O 0.46593 0.85698 0.24144 0.0
O461 O 0.46869 0.87752 0.24019 0.0
O462 O 0.87346 0.70545 0.02085 0.0
Cd463 Cd 0.86761 0.72291 0.00589 0.0
O464 O 0.89421 0.70215 0.01136 0.0
Cd465 Cd 0.88966 0.71448 -0.00557 0.0
O466 O 0.88509 0.71509 0.97306 0.0
C467 C 0.87275 0.71176 0.96901 0.0
O468 O 0.86288 0.70928 0.97788 0.0
C469 C 0.8853 0.69962 0.02048 0.0
C470 C 0.86814 0.74536 0.02026 0.0
O471 O 0.85639 0.73938 0.01832 0.0
O472 O 0.87955 0.74083 0.01521 0.0
O473 O 0.61161 0.28613 0.54011 0.0
Cd474 Cd 0.60944 0.2712 0.52168 0.0
O475 O 0.58875 0.29083 0.54041 0.0
Cd476 Cd 0.58522 0.28251 0.52074 0.0
O477 O 0.58425 0.28529 0.49918 0.0
C478 C 0.59515 0.29043 0.49401 0.0
O479 O 0.60632 0.29276 0.50167 0.0
C480 C 0.60117 0.29168 0.54558 0.0
C481 C 0.61597 0.24763 0.53236 0.0
O482 O 0.62564 0.25442 0.52691 0.0
O483 O 0.60312 0.25178 0.53226 0.0
O484 O 0.17789 0.48654 0.0552 0.0
Cd485 Cd 0.19028 0.50468 0.04575 0.0
O486 O 0.19427 0.48568 0.07094 0.0
Cd487 Cd 0.20554 0.47642 0.08745 0.0
O488 O 0.21604 0.46442 0.10225 0.0
C489 C 0.22948 0.46507 0.10404 0.0
O490 O 0.23688 0.47326 0.09708 0.0
C491 C 0.18293 0.48127 0.06561 0.0
C492 C 0.18548 0.52671 0.06008 0.0
O493 O 0.1773 0.52355 0.05032 0.0
O494 O 0.19592 0.51942 0.06311 0.0
O495 O 0.28143 0.47695 0.89204 0.0
Cd496 Cd 0.2606 0.48998 0.88681 0.0
O497 O 0.28725 0.47519 0.87092 0.0
Cd498 Cd 0.26603 0.48073 0.86399 0.0
O499 O 0.2463 0.47129 0.85791 0.0
C500 C 0.24113 0.4637 0.86642 0.0
O501 O 0.24715 0.46303 0.87829 0.0
C502 C 0.2902 0.47341 0.88319 0.0
C503 C 0.26959 0.51504 0.88595 0.0
O504 O 0.26497 0.51016 0.89679 0.0
O505 O 0.26958 0.50817 0.87544 0.0
O506 O 0.29707 0.50755 0.57137 0.0
Cd507 Cd 0.27877 0.49114 0.57283 0.0
O508 O 0.28212 0.52055 0.58082 0.0
Cd509 Cd 0.27552 0.53802 0.59054 0.0
O510 O 0.26561 0.55349 0.60142 0.0
C511 C 0.25577 0.55079 0.60959 0.0
O512 O 0.25215 0.53892 0.6112 0.0
C513 C 0.29434 0.51848 0.57583 0.0
C514 C 0.29088 0.46777 0.57861 0.0
O515 O 0.28842 0.47113 0.56652 0.0
O516 O 0.28752 0.47542 0.58795 0.0
O517 O 0.19049 0.52293 0.37667 0.0
Cd518 Cd 0.20755 0.50559 0.37547 0.0
O519 O 0.19259 0.52553 0.39838 0.0
Cd520 Cd 0.20343 0.50741 0.40019 0.0
O521 O 0.20712 0.48719 0.39826 0.0
C522 C 0.20076 0.47966 0.40609 0.0
O523 O 0.19274 0.48432 0.41558 0.0
C524 C 0.18767 0.52918 0.38715 0.0
C525 C 0.23464 0.51633 0.37328 0.0
O526 O 0.22708 0.51387 0.36288 0.0
O527 O 0.22957 0.51334 0.38469 0.0
P528 P 0.12787 0.35982 0.11176 0.0
H529 H 0.12468 0.34812 0.13801 0.0
H530 H 0.10718 0.35082 0.15568 0.0
H531 H 0.08331 0.37649 0.13055 0.0
H532 H 0.10088 0.37374 0.11289 0.0
H533 H 0.13553 0.36068 0.08359 0.0
H534 H 0.1286 0.34787 0.06441 0.0
H535 H 0.10133 0.32539 0.08955 0.0
H536 H 0.10805 0.33852 0.10879 0.0
H537 H 0.15171 0.37604 0.11989 0.0
H538 H 0.11539 0.37824 0.0932 0.0
O539 O 0.14207 0.35244 0.1182 0.0
H540 H 0.15948 0.39693 0.11268 0.0
H541 H 0.12288 0.39927 0.08618 0.0
C542 C 0.11424 0.36093 0.12424 0.0
C543 C 0.11564 0.35427 0.13625 0.0
C544 C 0.10557 0.35575 0.14632 0.0
C545 C 0.09391 0.36394 0.14454 0.0
C546 C 0.09229 0.37026 0.13228 0.0
C547 C 0.10232 0.36869 0.12218 0.0
C548 C 0.12189 0.35086 0.09753 0.0
C549 C 0.12777 0.35323 0.08496 0.0
C550 C 0.12384 0.34587 0.074 0.0
C551 C 0.11429 0.33575 0.07548 0.0
C552 C 0.10865 0.33319 0.08814 0.0
C553 C 0.11241 0.34072 0.0991 0.0
C554 C 0.13313 0.3755 0.10689 0.0
C555 C 0.14537 0.38105 0.11252 0.0
C556 C 0.14974 0.39305 0.10846 0.0
C557 C 0.14186 0.39975 0.09877 0.0
C558 C 0.12933 0.39428 0.09348 0.0
C559 C 0.12499 0.38228 0.09755 0.0
P560 P 0.88487 0.88837 0.41261 0.0
H561 H 0.89264 0.86156 0.41134 0.0
H562 H 0.88536 0.84326 0.4246 0.0
H563 H 0.85697 0.86696 0.44718 0.0
H564 H 0.86432 0.88514 0.43399 0.0
H565 H 0.91412 0.88414 0.4036 0.0
H566 H 0.92429 0.88067 0.38149 0.0
H567 H 0.88182 0.88033 0.36427 0.0
H568 H 0.87173 0.88374 0.38635 0.0
H569 H 0.884 0.91588 0.41307 0.0
H570 H 0.8544 0.88532 0.40629 0.0
O571 O 0.89757 0.89512 0.42198 0.0
H572 H 0.86488 0.93109 0.40895 0.0
H573 H 0.83518 0.90047 0.40224 0.0
C574 C 0.8787 0.87464 0.42142 0.0
C575 C 0.88469 0.86277 0.41901 0.0
C576 C 0.88061 0.85234 0.42665 0.0
C577 C 0.87049 0.85365 0.43684 0.0
C578 C 0.86456 0.86558 0.43922 0.0
C579 C 0.86875 0.87599 0.43168 0.0
C580 C 0.89219 0.88452 0.39657 0.0
C581 C 0.90699 0.88325 0.39508 0.0
C582 C 0.91279 0.88119 0.38245 0.0
C583 C 0.90385 0.8804 0.37113 0.0
C584 C 0.88898 0.88115 0.37278 0.0
C585 C 0.8832 0.88309 0.38541 0.0
C586 C 0.87055 0.89949 0.41023 0.0
C587 C 0.87335 0.91244 0.41086 0.0
C588 C 0.8624 0.92113 0.40852 0.0
C589 C 0.8485 0.91698 0.40534 0.0
C590 C 0.84578 0.90396 0.4046 0.0
C591 C 0.85673 0.8953 0.40701 0.0
P592 P 0.40621 0.61532 0.57484 0.0
H593 H 0.42096 0.63486 0.55976 0.0
H594 H 0.41274 0.65397 0.54847 0.0
H595 H 0.36959 0.64609 0.56115 0.0
H596 H 0.37804 0.62733 0.57283 0.0
H597 H 0.43024 0.60706 0.59151 0.0
H598 H 0.43628 0.61046 0.61501 0.0
H599 H 0.39954 0.63476 0.61883 0.0
H600 H 0.39338 0.631 0.59546 0.0
H601 H 0.38494 0.60759 0.55486 0.0
H602 H 0.39793 0.59612 0.59446 0.0
O603 O 0.42022 0.60978 0.56653 0.0
H604 H 0.36638 0.59128 0.55473 0.0
H605 H 0.37951 0.57982 0.59435 0.0
C606 C 0.40004 0.62949 0.56677 0.0
C607 C 0.40973 0.63727 0.56009 0.0
C608 C 0.405 0.64818 0.5536 0.0
C609 C 0.39045 0.65153 0.55374 0.0
C610 C 0.38087 0.64389 0.56089 0.0
C611 C 0.38565 0.63304 0.56743 0.0
C612 C 0.41151 0.61896 0.5917 0.0
C613 C 0.42361 0.61326 0.59737 0.0
C614 C 0.42707 0.61524 0.61081 0.0
C615 C 0.41841 0.6229 0.61882 0.0
C616 C 0.40636 0.6287 0.613 0.0
C617 C 0.4029 0.62667 0.59959 0.0
C618 C 0.39255 0.60333 0.57481 0.0
C619 C 0.38371 0.60166 0.56357 0.0
C620 C 0.37312 0.59235 0.56351 0.0
C621 C 0.37143 0.58434 0.57457 0.0
C622 C 0.38058 0.58582 0.58567 0.0
C623 C 0.39106 0.59522 0.58577 0.0
P624 P 0.62792 0.13127 0.87176 0.0
H625 H 0.62078 0.14414 0.84682 0.0
H626 H 0.6013 0.14154 0.83066 0.0
H627 H 0.58272 0.11265 0.85551 0.0
H628 H 0.60226 0.11526 0.8716 0.0
H629 H 0.63843 0.1321 0.89927 0.0
H630 H 0.63279 0.14552 0.91823 0.0
H631 H 0.60232 0.16592 0.89392 0.0
H632 H 0.60778 0.15221 0.87494 0.0
H633 H 0.65128 0.11487 0.8634 0.0
H634 H 0.61712 0.11376 0.89195 0.0
O635 O 0.64146 0.1384 0.86408 0.0
H636 H 0.65991 0.09454 0.87151 0.0
H637 H 0.62537 0.09323 0.89983 0.0
C638 C 0.61317 0.12967 0.86024 0.0
C639 C 0.61252 0.13724 0.8488 0.0
C640 C 0.60131 0.13583 0.83962 0.0
C641 C 0.59052 0.12683 0.84177 0.0
C642 C 0.591 0.11952 0.85348 0.0
C643 C 0.60218 0.121 0.86268 0.0
C644 C 0.62315 0.14085 0.88583 0.0
C645 C 0.63029 0.13925 0.89806 0.0
C646 C 0.62709 0.14695 0.90889 0.0
C647 C 0.61698 0.15664 0.90758 0.0
C648 C 0.6101 0.15846 0.89521 0.0
C649 C 0.61315 0.1506 0.8844 0.0
C650 C 0.63371 0.11591 0.87723 0.0
C651 C 0.64558 0.11021 0.87136 0.0
C652 C 0.65043 0.09852 0.87594 0.0
C653 C 0.6434 0.09227 0.8864 0.0
C654 C 0.63121 0.09788 0.89195 0.0
C655 C 0.62642 0.10958 0.88739 0.0
P656 P 0.11247 0.64858 0.3671 0.0
H657 H 0.09754 0.66091 0.345 0.0
H658 H 0.07768 0.65431 0.33069 0.0
H659 H 0.07224 0.62087 0.35481 0.0
H660 H 0.09234 0.62745 0.36893 0.0
H661 H 0.12985 0.66502 0.38366 0.0
H662 H 0.12515 0.67672 0.40411 0.0
H663 H 0.08181 0.66256 0.40402 0.0
H664 H 0.0867 0.6507 0.38365 0.0
H665 H 0.13198 0.63358 0.35141 0.0
H666 H 0.11349 0.63197 0.39062 0.0
O667 O 0.12277 0.65765 0.35754 0.0
H668 H 0.14392 0.61351 0.35544 0.0
H669 H 0.12519 0.61169 0.39466 0.0
C670 C 0.09661 0.64452 0.3578 0.0
C671 C 0.09199 0.65221 0.34727 0.0
C672 C 0.08054 0.64847 0.33916 0.0
C673 C 0.07344 0.63699 0.34152 0.0
C674 C 0.07765 0.62964 0.35257 0.0
C675 C 0.08912 0.6334 0.36066 0.0
C676 C 0.10856 0.6572 0.38204 0.0
C677 C 0.11931 0.66451 0.388 0.0
C678 C 0.11658 0.67124 0.39965 0.0
C679 C 0.10305 0.6707 0.40561 0.0
C680 C 0.09235 0.66316 0.39969 0.0
C681 C 0.0951 0.65643 0.388 0.0
C682 C 0.12211 0.63436 0.37081 0.0
C683 C 0.13062 0.62895 0.36095 0.0
C684 C 0.13731 0.6174 0.36322 0.0
C685 C 0.13547 0.61097 0.37536 0.0
C686 C 0.12698 0.61648 0.38528 0.0
C687 C 0.12028 0.62807 0.38298 0.0
P688 P 0.62562 0.85907 0.61112 0.0
H689 H 0.62089 0.8485 0.6377 0.0
H690 H 0.60147 0.85066 0.65359 0.0
H691 H 0.57813 0.87357 0.62521 0.0
H692 H 0.59764 0.87132 0.6093 0.0
H693 H 0.63593 0.86075 0.58375 0.0
H694 H 0.63084 0.84853 0.56368 0.0
H695 H 0.60103 0.82556 0.58565 0.0
H696 H 0.60599 0.83805 0.60578 0.0
H697 H 0.64921 0.87463 0.62116 0.0
H698 H 0.61462 0.8783 0.59272 0.0
O699 O 0.63909 0.85136 0.61845 0.0
H700 H 0.65786 0.89558 0.61514 0.0
H701 H 0.62293 0.89942 0.58691 0.0
C702 C 0.6108 0.8599 0.62238 0.0
C703 C 0.61157 0.85391 0.63483 0.0
C704 C 0.60041 0.85509 0.64389 0.0
C705 C 0.58829 0.86233 0.64067 0.0
C706 C 0.58741 0.86806 0.62804 0.0
C707 C 0.59855 0.86679 0.61894 0.0
C708 C 0.62096 0.8506 0.59615 0.0
C709 C 0.62803 0.85331 0.58422 0.0
C710 C 0.62515 0.84629 0.57274 0.0
C711 C 0.61542 0.83619 0.57308 0.0
C712 C 0.60853 0.83333 0.58512 0.0
C713 C 0.61129 0.8405 0.59658 0.0
C714 C 0.63142 0.87484 0.60723 0.0
C715 C 0.64342 0.87998 0.61368 0.0
C716 C 0.64829 0.89202 0.6103 0.0
C717 C 0.64115 0.89917 0.60047 0.0
C718 C 0.62883 0.8941 0.59435 0.0
C719 C 0.62399 0.88206 0.59774 0.0
P720 P 0.40821 0.38859 0.91662 0.0
H721 H 0.42029 0.36374 0.92198 0.0
H722 H 0.41199 0.34577 0.9352 0.0
H723 H 0.37335 0.36609 0.94439 0.0
H724 H 0.38159 0.38382 0.93107 0.0
H725 H 0.43034 0.40065 0.90096 0.0
H726 H 0.43899 0.39716 0.87835 0.0
H727 H 0.41104 0.36487 0.87452 0.0
H728 H 0.40261 0.36834 0.89725 0.0
H729 H 0.40107 0.41334 0.9278 0.0
H730 H 0.38422 0.38803 0.89789 0.0
O731 O 0.42063 0.39537 0.92629 0.0
H732 H 0.38225 0.42856 0.92243 0.0
H733 H 0.36538 0.40313 0.89251 0.0
C734 C 0.40145 0.37501 0.92532 0.0
C735 C 0.40994 0.36422 0.92669 0.0
C736 C 0.40523 0.35401 0.93433 0.0
C737 C 0.39197 0.35447 0.94082 0.0
C738 C 0.38348 0.36531 0.93933 0.0
C739 C 0.38821 0.3755 0.93171 0.0
C740 C 0.41608 0.3846 0.90088 0.0
C741 C 0.42631 0.39265 0.89536 0.0
C742 C 0.43113 0.39073 0.88238 0.0
C743 C 0.42567 0.38076 0.87461 0.0
C744 C 0.41561 0.37252 0.88029 0.0
C745 C 0.41079 0.37448 0.8933 0.0
C746 C 0.39416 0.39966 0.91308 0.0
C747 C 0.39333 0.41106 0.92008 0.0
C748 C 0.38252 0.41972 0.91705 0.0
C749 C 0.37241 0.4171 0.90695 0.0
C750 C 0.37317 0.40554 0.90015 0.0
C751 C 0.38391 0.39688 0.90324 0.0
P752 P 0.90257 0.10186 0.07387 0.0
H753 H 0.91536 0.12675 0.07079 0.0
H754 H 0.90655 0.14652 0.06113 0.0
H755 H 0.86626 0.12846 0.05183 0.0
H756 H 0.87504 0.10888 0.06148 0.0
H757 H 0.92563 0.08924 0.08833 0.0
H758 H 0.93616 0.0924 0.11052 0.0
H759 H 0.90655 0.12282 0.11756 0.0
H760 H 0.8962 0.11967 0.09533 0.0
H761 H 0.89624 0.07861 0.05921 0.0
H762 H 0.87774 0.10005 0.09119 0.0
O763 O 0.91518 0.09653 0.06367 0.0
H764 H 0.87643 0.06367 0.06016 0.0
H765 H 0.85761 0.08537 0.09197 0.0
C766 C 0.89581 0.1164 0.06706 0.0
C767 C 0.9046 0.12711 0.06675 0.0
C768 C 0.89957 0.13837 0.06119 0.0
C769 C 0.88566 0.13908 0.05582 0.0
C770 C 0.87692 0.1283 0.05614 0.0
C771 C 0.88197 0.11705 0.06164 0.0
C772 C 0.91038 0.10441 0.0901 0.0
C773 C 0.9215 0.09665 0.09463 0.0
C774 C 0.92744 0.09841 0.10734 0.0
C775 C 0.92227 0.10793 0.11576 0.0
C776 C 0.91097 0.11558 0.11121 0.0
C777 C 0.90502 0.11377 0.09852 0.0
C778 C 0.88853 0.09034 0.07524 0.0
C779 C 0.88795 0.08006 0.0665 0.0
C780 C 0.87651 0.07159 0.06697 0.0
C781 C 0.86536 0.07333 0.07611 0.0
C782 C 0.86609 0.08362 0.08494 0.0
C783 C 0.87758 0.09205 0.0845 0.0
P784 P 0.08613 0.09174 0.37165 0.0
H785 H 0.0622 0.08193 0.35584 0.0
H786 H 0.05117 0.08868 0.33488 0.0
H787 H 0.08279 0.11823 0.33135 0.0
H788 H 0.09345 0.11165 0.35259 0.0
H789 H 0.09406 0.06552 0.37731 0.0
H790 H 0.11633 0.05386 0.37454 0.0
H791 H 0.13578 0.08688 0.35708 0.0
H792 H 0.11346 0.09841 0.35977 0.0
H793 H 0.07249 0.1164 0.37447 0.0
H794 H 0.1082 0.09653 0.39193 0.0
O795 O 0.07438 0.08289 0.37989 0.0
H796 H 0.07787 0.13468 0.38847 0.0
H797 H 0.11346 0.11462 0.40616 0.0
C798 C 0.07849 0.09642 0.35586 0.0
C799 C 0.06675 0.08987 0.35056 0.0
C800 C 0.06054 0.09367 0.33849 0.0
C801 C 0.06606 0.10403 0.33142 0.0
C802 C 0.07812 0.11034 0.33662 0.0
C803 C 0.08429 0.10654 0.34872 0.0
C804 C 0.10211 0.08282 0.36871 0.0
C805 C 0.10307 0.07021 0.37277 0.0
C806 C 0.11584 0.06357 0.37125 0.0
C807 C 0.12783 0.06944 0.3656 0.0
C808 C 0.12669 0.08202 0.36128 0.0
C809 C 0.11394 0.08864 0.36285 0.0
C810 C 0.09022 0.10526 0.38184 0.0
C811 C 0.08156 0.116 0.38124 0.0
C812 C 0.08456 0.1264 0.38936 0.0
C813 C 0.09618 0.12616 0.39837 0.0
C814 C 0.10463 0.11523 0.39913 0.0
C815 C 0.10162 0.10486 0.391 0.0
P816 P 0.14531 0.86136 0.62587 0.0
H817 H 0.15465 0.85934 0.59808 0.0
H818 H 0.14619 0.84646 0.57931 0.0
H819 H 0.11266 0.8314 0.60408 0.0
H820 H 0.12094 0.84437 0.62254 0.0
H821 H 0.16921 0.87554 0.63694 0.0
H822 H 0.17855 0.89661 0.6326 0.0
H823 H 0.14633 0.90196 0.60195 0.0
H824 H 0.13723 0.88068 0.60619 0.0
H825 H 0.1405 0.85126 0.6527 0.0
H826 H 0.11922 0.87633 0.62512 0.0
O827 O 0.15815 0.85243 0.63259 0.0
H828 H 0.12065 0.85329 0.6682 0.0
H829 H 0.09921 0.87828 0.64047 0.0
C830 C 0.13821 0.85308 0.6116 0.0
C831 C 0.14529 0.85346 0.59934 0.0
C832 C 0.14051 0.84602 0.58866 0.0
C833 C 0.12866 0.83797 0.59014 0.0
C834 C 0.12158 0.83772 0.60245 0.0
C835 C 0.12636 0.84513 0.61308 0.0
C836 C 0.15273 0.87648 0.6217 0.0
C837 C 0.16429 0.88117 0.62915 0.0
C838 C 0.16953 0.89328 0.62675 0.0
C839 C 0.16318 0.90098 0.61694 0.0
C840 C 0.15159 0.8962 0.60944 0.0
C841 C 0.14636 0.88406 0.61186 0.0
C842 C 0.13137 0.86374 0.63783 0.0
C843 C 0.13162 0.8573 0.65003 0.0
C844 C 0.12021 0.8584 0.65884 0.0
C845 C 0.10833 0.86593 0.65556 0.0
C846 C 0.10828 0.87255 0.64339 0.0
C847 C 0.11969 0.87143 0.63459 0.0
P848 P 0.38613 0.9001 0.87255 0.0
H849 H 0.40909 0.91165 0.85721 0.0
H850 H 0.42111 0.90542 0.83679 0.0
H851 H 0.39094 0.87485 0.83166 0.0
H852 H 0.37923 0.88097 0.85234 0.0
H853 H 0.373 0.91737 0.89115 0.0
H854 H 0.35005 0.92819 0.89131 0.0
H855 H 0.3399 0.91247 0.85257 0.0
H856 H 0.36312 0.90198 0.85235 0.0
H857 H 0.40383 0.88492 0.89045 0.0
H858 H 0.36144 0.88304 0.87336 0.0
O859 O 0.39812 0.90844 0.88127 0.0
H860 H 0.3996 0.86519 0.90233 0.0
H861 H 0.35725 0.8631 0.88484 0.0
C862 C 0.39346 0.89662 0.85643 0.0
C863 C 0.40498 0.90368 0.85163 0.0
C864 C 0.41178 0.90015 0.83986 0.0
C865 C 0.40709 0.88954 0.83262 0.0
C866 C 0.39501 0.88291 0.83712 0.0
C867 C 0.38826 0.88643 0.84893 0.0
C868 C 0.36986 0.90906 0.87165 0.0
C869 C 0.36594 0.91644 0.88258 0.0
C870 C 0.35274 0.92251 0.88272 0.0
C871 C 0.34308 0.92116 0.87198 0.0
C872 C 0.34715 0.91386 0.86093 0.0
C873 C 0.36042 0.90783 0.86079 0.0
C874 C 0.38285 0.88558 0.88128 0.0
C875 C 0.3936 0.88026 0.88927 0.0
C876 C 0.39121 0.86889 0.89594 0.0
C877 C 0.37805 0.86255 0.89459 0.0
C878 C 0.3674 0.86784 0.88633 0.0
C879 C 0.36979 0.87924 0.87972 0.0
P880 P 0.37967 0.10215 0.07893 0.0
H881 H 0.36157 0.08436 0.06429 0.0
H882 H 0.34074 0.07195 0.0706 0.0
H883 H 0.34088 0.09 0.10927 0.0
H884 H 0.36201 0.10205 0.103 0.0
H885 H 0.39459 0.11863 0.06052 0.0
H886 H 0.39038 0.14019 0.05296 0.0
H887 H 0.35334 0.14234 0.07829 0.0
H888 H 0.35741 0.12065 0.0855 0.0
H889 H 0.40242 0.08509 0.08718 0.0
H890 H 0.38292 0.11899 0.10204 0.0
O891 O 0.38748 0.09441 0.06649 0.0
H892 H 0.41819 0.08443 0.10664 0.0
H893 H 0.39826 0.11814 0.12189 0.0
C894 C 0.36352 0.09393 0.08327 0.0
C895 C 0.35711 0.08566 0.07412 0.0
C896 C 0.34509 0.07865 0.07771 0.0
C897 C 0.33916 0.07989 0.0905 0.0
C898 C 0.34532 0.0886 0.09944 0.0
C899 C 0.3574 0.09555 0.09586 0.0
C900 C 0.37617 0.11797 0.07336 0.0
C901 C 0.38548 0.12371 0.06434 0.0
C902 C 0.38313 0.13609 0.06011 0.0
C903 C 0.37148 0.143 0.06497 0.0
C904 C 0.36224 0.13721 0.07415 0.0
C905 C 0.36459 0.12481 0.07833 0.0
C906 C 0.39168 0.1022 0.09306 0.0
C907 C 0.40157 0.09243 0.09463 0.0
C908 C 0.41048 0.09199 0.10587 0.0
C909 C 0.40949 0.1012 0.11591 0.0
C910 C 0.39949 0.11099 0.11429 0.0
C911 C 0.39067 0.11148 0.10295 0.0
P912 P 0.12934 0.87533 0.16691 0.0
H913 H 0.15248 0.89245 0.17457 0.0
H914 H 0.16239 0.91116 0.16396 0.0
H915 H 0.12889 0.90976 0.13399 0.0
H916 H 0.11923 0.8908 0.14455 0.0
H917 H 0.11523 0.85757 0.18432 0.0
H918 H 0.09384 0.85879 0.19799 0.0
H919 H 0.08842 0.89778 0.18647 0.0
H920 H 0.10966 0.89636 0.17255 0.0
H921 H 0.1476 0.86104 0.14921 0.0
H922 H 0.10244 0.86725 0.15405 0.0
O923 O 0.14256 0.86897 0.17593 0.0
H924 H 0.14268 0.84749 0.13001 0.0
H925 H 0.09737 0.8534 0.13516 0.0
C926 C 0.13532 0.89012 0.16017 0.0
C927 C 0.14719 0.89623 0.16579 0.0
C928 C 0.15277 0.90702 0.15976 0.0
C929 C 0.1465 0.91193 0.14804 0.0
C930 C 0.13412 0.9061 0.14286 0.0
C931 C 0.12857 0.89529 0.1489 0.0
C932 C 0.11407 0.87688 0.17752 0.0
C933 C 0.10949 0.86641 0.18484 0.0
C934 C 0.0973 0.86715 0.19271 0.0
C935 C 0.08944 0.87841 0.1934 0.0
C936 C 0.09415 0.88893 0.18608 0.0
C937 C 0.10636 0.88816 0.17817 0.0
C938 C 0.12539 0.8649 0.15322 0.0
C939 C 0.13661 0.85932 0.14625 0.0
C940 C 0.13376 0.85154 0.1353 0.0
C941 C 0.11961 0.84925 0.13109 0.0
C942 C 0.10839 0.85502 0.13806 0.0
C943 C 0.11127 0.86284 0.14897 0.0
P944 P 0.37355 0.88865 0.40436 0.0
H945 H 0.3543 0.90189 0.42222 0.0
H946 H 0.33483 0.9168 0.41827 0.0
H947 H 0.34013 0.9123 0.3757 0.0
H948 H 0.35894 0.897 0.37977 0.0
H949 H 0.39067 0.86634 0.40908 0.0
H950 H 0.3851 0.84521 0.41709 0.0
H951 H 0.34073 0.8558 0.42092 0.0
H952 H 0.34634 0.87673 0.41232 0.0
H953 H 0.39382 0.90619 0.39269 0.0
H954 H 0.37585 0.86989 0.38289 0.0
O955 O 0.38342 0.89535 0.41636 0.0
H956 H 0.40759 0.9059 0.37213 0.0
H957 H 0.39008 0.86919 0.36265 0.0
C958 C 0.35823 0.89852 0.40131 0.0
C959 C 0.35111 0.90403 0.41205 0.0
C960 C 0.34005 0.91262 0.40976 0.0
C961 C 0.33599 0.91593 0.39665 0.0
C962 C 0.34281 0.90994 0.38593 0.0
C963 C 0.35374 0.90124 0.38825 0.0
C964 C 0.36892 0.87306 0.40996 0.0
C965 C 0.37972 0.86406 0.41154 0.0
C966 C 0.37653 0.85201 0.41626 0.0
C967 C 0.36245 0.84876 0.41972 0.0
C968 C 0.35164 0.85787 0.41816 0.0
C969 C 0.35485 0.86991 0.41331 0.0
C970 C 0.38417 0.88791 0.3895 0.0
C971 C 0.39305 0.89805 0.38621 0.0
C972 C 0.40095 0.89784 0.37445 0.0
C973 C 0.4001 0.88745 0.36575 0.0
C974 C 0.39095 0.87739 0.36903 0.0
C975 C 0.38295 0.87768 0.38072 0.0
P976 P 0.3917 0.07536 0.60877 0.0
H977 H 0.41472 0.06277 0.62349 0.0
H978 H 0.42617 0.06708 0.64496 0.0
H979 H 0.3955 0.09665 0.65224 0.0
H980 H 0.38454 0.09263 0.63046 0.0
H981 H 0.38183 0.05229 0.5955 0.0
H982 H 0.3588 0.0414 0.59508 0.0
H983 H 0.34197 0.06886 0.62257 0.0
H984 H 0.36503 0.07959 0.62304 0.0
H985 H 0.40826 0.09867 0.60946 0.0
H986 H 0.3696 0.08519 0.5905 0.0
O987 O 0.40347 0.06748 0.59958 0.0
H988 H 0.40506 0.11916 0.59877 0.0
H989 H 0.36651 0.10554 0.57951 0.0
C990 C 0.39891 0.07748 0.62532 0.0
C991 C 0.41041 0.07012 0.62975 0.0
C992 C 0.41687 0.07253 0.64212 0.0
C993 C 0.41183 0.08229 0.65034 0.0
C994 C 0.39983 0.08922 0.64609 0.0
C995 C 0.39345 0.08686 0.63368 0.0
C996 C 0.37519 0.06668 0.60942 0.0
C997 C 0.37325 0.05587 0.60158 0.0
C998 C 0.36005 0.04969 0.60128 0.0
C999 C 0.34856 0.05425 0.6088 0.0
C1000 C 0.35066 0.06497 0.61683 0.0
C1001 C 0.36385 0.07115 0.6171 0.0
C1002 C 0.38898 0.09051 0.60106 0.0
C1003 C 0.39902 0.10015 0.60307 0.0
C1004 C 0.39724 0.11184 0.59685 0.0
C1005 C 0.38548 0.11403 0.58832 0.0
C1006 C 0.37553 0.10427 0.58622 0.0
C1007 C 0.37731 0.09259 0.59248 0.0
P1008 P 0.16175 0.13872 0.86396 0.0
H1009 H 0.17487 0.15815 0.88069 0.0
H1010 H 0.16583 0.17078 0.89905 0.0
H1011 H 0.12673 0.149 0.89864 0.0
H1012 H 0.13573 0.13664 0.87999 0.0
H1013 H 0.18473 0.12483 0.85143 0.0
H1014 H 0.19417 0.10365 0.85466 0.0
H1015 H 0.16436 0.09764 0.88677 0.0
H1016 H 0.15541 0.11907 0.8838 0.0
H1017 H 0.15055 0.15488 0.84278 0.0
H1018 H 0.13974 0.11916 0.86062 0.0
O1019 O 0.1741 0.14767 0.85663 0.0
H1020 H 0.12978 0.15323 0.82796 0.0
H1021 H 0.1187 0.11763 0.8462 0.0
C1022 C 0.15585 0.14664 0.87879 0.0
C1023 C 0.1644 0.15602 0.88462 0.0
C1024 C 0.15925 0.16317 0.89523 0.0
C1025 C 0.14547 0.161 0.90027 0.0
C1026 C 0.13726 0.1511 0.89484 0.0
C1027 C 0.14242 0.14398 0.88419 0.0
C1028 C 0.16951 0.12358 0.86749 0.0
C1029 C 0.18041 0.11903 0.85933 0.0
C1030 C 0.1857 0.10685 0.86111 0.0
C1031 C 0.17998 0.09887 0.87093 0.0
C1032 C 0.16918 0.10356 0.87925 0.0
C1033 C 0.16399 0.11582 0.87753 0.0
C1034 C 0.14686 0.13703 0.85261 0.0
C1035 C 0.14375 0.14663 0.84344 0.0
C1036 C 0.13177 0.14574 0.83507 0.0
C1037 C 0.12254 0.13528 0.83585 0.0
C1038 C 0.1257 0.12569 0.84513 0.0
C1039 C 0.13774 0.12657 0.85343 0.0
P1040 P 0.8887 0.3777 0.91471 0.0
H1041 H 0.87711 0.40122 0.9255 0.0
H1042 H 0.85922 0.41596 0.91692 0.0
H1043 H 0.84997 0.39052 0.88428 0.0
H1044 H 0.86812 0.37605 0.89271 0.0
H1045 H 0.90367 0.35959 0.93138 0.0
H1046 H 0.89698 0.33912 0.9406 0.0
H1047 H 0.85495 0.34284 0.92278 0.0
H1048 H 0.86158 0.36343 0.91401 0.0
H1049 H 0.91066 0.39217 0.90118 0.0
H1050 H 0.88835 0.357 0.8953 0.0
O1051 O 0.89902 0.38541 0.92566 0.0
H1052 H 0.92257 0.38948 0.87978 0.0
H1053 H 0.89991 0.35438 0.87375 0.0
C1054 C 0.87404 0.38761 0.90967 0.0
C1055 C 0.87112 0.39877 0.91658 0.0
C1056 C 0.86083 0.40716 0.91169 0.0
C1057 C 0.85327 0.40449 0.89982 0.0
C1058 C 0.8558 0.393 0.89329 0.0
C1059 C 0.86612 0.38466 0.89815 0.0
C1060 C 0.88309 0.36311 0.92218 0.0
C1061 C 0.89295 0.35606 0.92963 0.0
C1062 C 0.88915 0.3443 0.93478 0.0
C1063 C 0.87542 0.33931 0.93243 0.0
C1064 C 0.86553 0.34647 0.92498 0.0
C1065 C 0.86935 0.35826 0.91988 0.0
C1066 C 0.89888 0.37466 0.89995 0.0
C1067 C 0.90851 0.38377 0.89537 0.0
C1068 C 0.91516 0.38229 0.88305 0.0
C1069 C 0.91215 0.37173 0.87501 0.0
C1070 C 0.90263 0.36252 0.87976 0.0
C1071 C 0.89601 0.36401 0.8921 0.0
P1072 P 0.90109 0.5861 0.10186 0.0
H1073 H 0.92606 0.57778 0.11738 0.0
H1074 H 0.9357 0.5842 0.13907 0.0
H1075 H 0.90012 0.60962 0.14404 0.0
H1076 H 0.89069 0.60328 0.12221 0.0
H1077 H 0.87901 0.5815 0.08175 0.0
H1078 H 0.8548 0.57286 0.08296 0.0
H1079 H 0.86092 0.56593 0.12513 0.0
H1080 H 0.8851 0.57441 0.12381 0.0
H1081 H 0.9222 0.59951 0.08596 0.0
H1082 H 0.87843 0.60474 0.0977 0.0
O1083 O 0.91215 0.57605 0.09444 0.0
H1084 H 0.92147 0.61944 0.07371 0.0
H1085 H 0.87732 0.62427 0.08499 0.0
C1086 C 0.90774 0.59013 0.11819 0.0
C1087 C 0.9203 0.58468 0.12317 0.0
C1088 C 0.92573 0.58829 0.13563 0.0
C1089 C 0.91868 0.59744 0.14329 0.0
C1090 C 0.9059 0.60268 0.13833 0.0
C1091 C 0.90049 0.59904 0.12588 0.0
C1092 C 0.88369 0.57892 0.10275 0.0
C1093 C 0.87512 0.5781 0.09124 0.0
C1094 C 0.86129 0.57321 0.09196 0.0
C1095 C 0.8559 0.56885 0.10417 0.0
C1096 C 0.86477 0.56919 0.11556 0.0
C1097 C 0.87858 0.57414 0.11484 0.0
C1098 C 0.90025 0.60047 0.09237 0.0
C1099 C 0.91236 0.60486 0.08571 0.0
C1100 C 0.9119 0.61624 0.07868 0.0
C1101 C 0.89929 0.62345 0.07824 0.0
C1102 C 0.88726 0.61907 0.08519 0.0
C1103 C 0.8878 0.60777 0.09231 0.0
P1104 P 0.66038 0.63101 0.37625 0.0
H1105 H 0.67783 0.64256 0.39724 0.0
H1106 H 0.67203 0.65623 0.41604 0.0
H1107 H 0.62714 0.65293 0.40591 0.0
H1108 H 0.63296 0.63882 0.38783 0.0
H1109 H 0.6617 0.60881 0.35943 0.0
H1110 H 0.66814 0.58689 0.36371 0.0
H1111 H 0.67832 0.59612 0.40464 0.0
H1112 H 0.67133 0.61808 0.40048 0.0
H1113 H 0.65192 0.64739 0.35398 0.0
H1114 H 0.63529 0.61467 0.37414 0.0
O1115 O 0.67405 0.63817 0.36881 0.0
H1116 H 0.63103 0.64753 0.33911 0.0
H1117 H 0.61468 0.61445 0.3591 0.0
C1118 C 0.65588 0.6398 0.391 0.0
C1119 C 0.66673 0.64464 0.39925 0.0
C1120 C 0.66339 0.65254 0.40994 0.0
C1121 C 0.6491 0.65587 0.41246 0.0
C1122 C 0.63825 0.65051 0.40446 0.0
C1123 C 0.6416 0.64249 0.39393 0.0
C1124 C 0.6656 0.61501 0.37973 0.0
C1125 C 0.66513 0.60613 0.36939 0.0
C1126 C 0.66884 0.59363 0.37181 0.0
C1127 C 0.67355 0.58986 0.38453 0.0
C1128 C 0.67464 0.59884 0.39477 0.0
C1129 C 0.67061 0.61136 0.3924 0.0
C1130 C 0.6453 0.63085 0.36494 0.0
C1131 C 0.64387 0.64013 0.35507 0.0
C1132 C 0.63194 0.64017 0.34656 0.0
C1133 C 0.62119 0.63096 0.34786 0.0
C1134 C 0.62266 0.62175 0.35788 0.0
C1135 C 0.63454 0.62176 0.3664 0.0
P1136 P 0.89656 0.40837 0.37305 0.0
H1137 H 0.91982 0.42007 0.35826 0.0
H1138 H 0.93175 0.41436 0.33762 0.0
H1139 H 0.90067 0.38475 0.33103 0.0
H1140 H 0.88906 0.39033 0.35196 0.0
H1141 H 0.88699 0.42967 0.38897 0.0
H1142 H 0.86408 0.44048 0.39038 0.0
H1143 H 0.84799 0.41829 0.35736 0.0
H1144 H 0.87104 0.40764 0.35589 0.0
H1145 H 0.91164 0.38434 0.37438 0.0
H1146 H 0.87273 0.40007 0.38991 0.0
O1147 O 0.90896 0.41564 0.38233 0.0
H1148 H 0.90639 0.36433 0.38544 0.0
H1149 H 0.86759 0.38029 0.40118 0.0
C1150 C 0.90374 0.40547 0.35675 0.0
C1151 C 0.91548 0.41245 0.3523 0.0
C1152 C 0.92223 0.40922 0.34041 0.0
C1153 C 0.91726 0.399 0.3327 0.0
C1154 C 0.90493 0.39252 0.33684 0.0
C1155 C 0.89822 0.39575 0.34876 0.0
C1156 C 0.8808 0.418 0.37218 0.0
C1157 C 0.87866 0.42736 0.38181 0.0
C1158 C 0.8655 0.43344 0.3827 0.0
C1159 C 0.85418 0.43019 0.37404 0.0
C1160 C 0.85654 0.42112 0.36407 0.0
C1161 C 0.86973 0.41503 0.36321 0.0
C1162 C 0.89244 0.39361 0.38105 0.0
C1163 C 0.90193 0.38346 0.3801 0.0
C1164 C 0.89896 0.37206 0.3865 0.0
C1165 C 0.8865 0.37067 0.39411 0.0
C1166 C 0.87711 0.38094 0.39516 0.0
C1167 C 0.88009 0.39232 0.38874 0.0
P1168 P 0.58695 0.60002 0.87399 0.0
H1169 H 0.55706 0.59672 0.86642 0.0
H1170 H 0.5435 0.6018 0.84618 0.0
H1171 H 0.58192 0.6161 0.82797 0.0
H1172 H 0.59545 0.61095 0.84825 0.0
H1173 H 0.59951 0.57489 0.87199 0.0
H1174 H 0.62394 0.56763 0.86834 0.0
H1175 H 0.63804 0.60627 0.8647 0.0
H1176 H 0.61362 0.61344 0.86825 0.0
H1177 H 0.58816 0.62714 0.8681 0.0
H1178 H 0.58916 0.60308 0.90281 0.0
O1179 O 0.57835 0.58873 0.88232 0.0
H1180 H 0.59265 0.64548 0.88223 0.0
H1181 H 0.59366 0.62142 0.91701 0.0
C1182 C 0.5773 0.60327 0.85877 0.0
C1183 C 0.56261 0.6008 0.85802 0.0
C1184 C 0.55488 0.60368 0.84643 0.0
C1185 C 0.56167 0.60927 0.83545 0.0
C1186 C 0.5764 0.61182 0.83628 0.0
C1187 C 0.58415 0.60881 0.84784 0.0
C1188 C 0.60479 0.5947 0.87061 0.0
C1189 C 0.60786 0.58179 0.8704 0.0
C1190 C 0.62183 0.57766 0.86836 0.0
C1191 C 0.63293 0.58639 0.86634 0.0
C1192 C 0.62971 0.59931 0.86616 0.0
C1193 C 0.61576 0.60343 0.86828 0.0
C1194 C 0.58809 0.61376 0.88443 0.0
C1195 C 0.58907 0.62581 0.87878 0.0
C1196 C 0.59176 0.63629 0.88685 0.0
C1197 C 0.59351 0.63488 0.90072 0.0
C1198 C 0.59216 0.62282 0.90638 0.0
C1199 C 0.5896 0.61234 0.89828 0.0
P1200 P 0.88224 0.62943 0.85956 0.0
H1201 H 0.90998 0.63227 0.84675 0.0
H1202 H 0.91686 0.6348 0.82352 0.0
H1203 H 0.87235 0.63773 0.81205 0.0
H1204 H 0.86554 0.635 0.83541 0.0
H1205 H 0.86557 0.63171 0.88373 0.0
H1206 H 0.86038 0.6495 0.89823 0.0
H1207 H 0.88079 0.67465 0.87028 0.0
H1208 H 0.88613 0.65669 0.85587 0.0
H1209 H 0.88501 0.6022 0.85856 0.0
H1210 H 0.85082 0.62935 0.85818 0.0
O1211 O 0.89655 0.62402 0.8678 0.0
H1212 H 0.86767 0.58509 0.85661 0.0
H1213 H 0.83332 0.61224 0.85606 0.0
C1214 C 0.88725 0.63321 0.84275 0.0
C1215 C 0.9017 0.63359 0.83927 0.0
C1216 C 0.90562 0.63515 0.82596 0.0
C1217 C 0.89515 0.63637 0.81589 0.0
C1218 C 0.88067 0.63661 0.81954 0.0
C1219 C 0.87676 0.63509 0.83288 0.0
C1220 C 0.87596 0.64291 0.8686 0.0
C1221 C 0.86856 0.6411 0.88053 0.0
C1222 C 0.86557 0.65131 0.88881 0.0
C1223 C 0.87012 0.66353 0.8854 0.0
C1224 C 0.8772 0.66535 0.87322 0.0
C1225 C 0.88016 0.6551 0.86492 0.0
C1226 C 0.86917 0.617 0.85884 0.0
C1227 C 0.87374 0.60446 0.85817 0.0
C1228 C 0.86381 0.5947 0.85692 0.0
C1229 C 0.8491 0.5973 0.85619 0.0
C1230 C 0.84456 0.60992 0.8568 0.0
C1231 C 0.85454 0.6197 0.85801 0.0
P1232 P 0.06877 0.12816 0.59993 0.0
H1233 H 0.04245 0.13873 0.61044 0.0
H1234 H 0.0338 0.14188 0.63319 0.0
H1235 H 0.07437 0.12907 0.64889 0.0
H1236 H 0.08295 0.12596 0.62623 0.0
H1237 H 0.08535 0.13022 0.57577 0.0
H1238 H 0.09329 0.14801 0.56235 0.0
H1239 H 0.07257 0.17366 0.58939 0.0
H1240 H 0.06479 0.15571 0.60303 0.0
H1241 H 0.06894 0.10061 0.59756 0.0
H1242 H 0.09965 0.13045 0.6036 0.0
O1243 O 0.0548 0.12203 0.59175 0.0
H1244 H 0.08835 0.08522 0.59668 0.0
H1245 H 0.11909 0.11514 0.60287 0.0
C1246 C 0.06324 0.13191 0.61663 0.0
C1247 C 0.04952 0.13672 0.61879 0.0
C1248 C 0.04461 0.13857 0.63178 0.0
C1249 C 0.05336 0.13558 0.64281 0.0
C1250 C 0.06731 0.13125 0.64058 0.0
C1251 C 0.07224 0.1295 0.6276 0.0
C1252 C 0.07479 0.14164 0.59058 0.0
C1253 C 0.0827 0.13967 0.57898 0.0
C1254 C 0.08726 0.14985 0.57131 0.0
C1255 C 0.08371 0.16223 0.57493 0.0
C1256 C 0.0755 0.16421 0.58642 0.0
C1257 C 0.0711 0.15396 0.59423 0.0
C1258 C 0.08291 0.11668 0.60033 0.0
C1259 C 0.07986 0.10384 0.59875 0.0
C1260 C 0.09095 0.09505 0.59833 0.0
C1261 C 0.10526 0.09899 0.59954 0.0
C1262 C 0.1082 0.11184 0.60163 0.0
C1263 C 0.09711 0.12059 0.60209 0.0
P1264 P 0.57468 0.37228 0.37996 0.0
H1265 H 0.54487 0.37626 0.37244 0.0
H1266 H 0.5309 0.37079 0.35259 0.0
H1267 H 0.56752 0.35168 0.33629 0.0
H1268 H 0.58145 0.35714 0.35631 0.0
H1269 H 0.57646 0.37323 0.40886 0.0
H1270 H 0.58053 0.35717 0.42592 0.0
H1271 H 0.58003 0.32832 0.39557 0.0
H1272 H 0.5762 0.34452 0.37841 0.0
H1273 H 0.58614 0.38382 0.35565 0.0
H1274 H 0.60188 0.37304 0.3946 0.0
O1275 O 0.56657 0.38468 0.38675 0.0
H1276 H 0.60931 0.39312 0.35053 0.0
H1277 H 0.62467 0.38285 0.38989 0.0
C1278 C 0.56426 0.36732 0.36571 0.0
C1279 C 0.5499 0.37088 0.36461 0.0
C1280 C 0.54193 0.36778 0.35324 0.0
C1281 C 0.54815 0.36094 0.3428 0.0
C1282 C 0.56241 0.35693 0.34418 0.0
C1283 C 0.5704 0.36009 0.35557 0.0
C1284 C 0.57584 0.36007 0.39239 0.0
C1285 C 0.57702 0.36345 0.40586 0.0
C1286 C 0.57946 0.35428 0.41559 0.0
C1287 C 0.58064 0.34154 0.41202 0.0
C1288 C 0.57908 0.33809 0.39856 0.0
C1289 C 0.57687 0.34733 0.38877 0.0
C1290 C 0.59233 0.37742 0.37538 0.0
C1291 C 0.59465 0.38322 0.36301 0.0
C1292 C 0.60788 0.38869 0.36016 0.0
C1293 C 0.61894 0.38878 0.36979 0.0
C1294 C 0.6166 0.38275 0.38209 0.0
C1295 C 0.60344 0.37716 0.38485 0.0
P1296 P 0.39852 0.87766 0.10259 0.0
H1297 H 0.42485 0.86643 0.1127 0.0
H1298 H 0.43446 0.86336 0.13529 0.0
H1299 H 0.39549 0.87827 0.15169 0.0
H1300 H 0.38591 0.88122 0.12917 0.0
H1301 H 0.38355 0.87487 0.07739 0.0
H1302 H 0.37597 0.85664 0.06431 0.0
H1303 H 0.39365 0.83185 0.09439 0.0
H1304 H 0.40111 0.85021 0.10757 0.0
H1305 H 0.39806 0.9052 0.1029 0.0
H1306 H 0.36744 0.87481 0.10413 0.0
O1307 O 0.41202 0.88407 0.09418 0.0
H1308 H 0.37857 0.92054 0.10356 0.0
H1309 H 0.34793 0.89006 0.10479 0.0
C1310 C 0.40477 0.87421 0.11924 0.0
C1311 C 0.41833 0.86892 0.12117 0.0
C1312 C 0.42378 0.86711 0.13407 0.0
C1313 C 0.41576 0.87068 0.14523 0.0
C1314 C 0.40198 0.8756 0.14325 0.0
C1315 C 0.39648 0.87727 0.13036 0.0
C1316 C 0.3927 0.86392 0.09353 0.0
C1317 C 0.38565 0.86552 0.08126 0.0
C1318 C 0.38128 0.85509 0.07382 0.0
C1319 C 0.3841 0.84282 0.0784 0.0
C1320 C 0.39134 0.84121 0.09064 0.0
C1321 C 0.39557 0.8517 0.09818 0.0
C1322 C 0.38415 0.8889 0.1031 0.0
C1323 C 0.38714 0.90184 0.10323 0.0
C1324 C 0.376 0.91058 0.1037 0.0
C1325 C 0.36171 0.9065 0.10409 0.0
C1326 C 0.35881 0.89349 0.10423 0.0
C1327 C 0.36995 0.88477 0.10386 0.0
P1328 P 0.90944 0.37856 0.6078 0.0
H1329 H 0.93746 0.37202 0.61838 0.0
H1330 H 0.94607 0.36642 0.64075 0.0
H1331 H 0.90309 0.36937 0.65569 0.0
H1332 H 0.89447 0.37465 0.6332 0.0
H1333 H 0.92393 0.36699 0.58519 0.0
H1334 H 0.91889 0.3482 0.57198 0.0
H1335 H 0.88281 0.33975 0.59709 0.0
H1336 H 0.88786 0.35877 0.61022 0.0
H1337 H 0.90041 0.39884 0.62557 0.0
H1338 H 0.88449 0.38055 0.58999 0.0
O1339 O 0.92235 0.38684 0.60047 0.0
H1340 H 0.87937 0.41239 0.62582 0.0
H1341 H 0.8637 0.39433 0.58987 0.0
C1342 C 0.91543 0.37418 0.62426 0.0
C1343 C 0.9299 0.37147 0.62647 0.0
C1344 C 0.93478 0.36818 0.63921 0.0
C1345 C 0.92525 0.3676 0.64994 0.0
C1346 C 0.91068 0.36995 0.64761 0.0
C1347 C 0.90576 0.37302 0.63479 0.0
C1348 C 0.90615 0.36433 0.59856 0.0
C1349 C 0.91497 0.36108 0.5879 0.0
C1350 C 0.91214 0.35026 0.58042 0.0
C1351 C 0.90045 0.34247 0.58349 0.0
C1352 C 0.89181 0.34562 0.59439 0.0
C1353 C 0.8947 0.35645 0.60192 0.0
C1354 C 0.89374 0.38834 0.60809 0.0
C1355 C 0.89231 0.39766 0.61788 0.0
C1356 C 0.88035 0.40552 0.6179 0.0
C1357 C 0.86974 0.40439 0.60793 0.0
C1358 C 0.87146 0.39526 0.5979 0.0
C1359 C 0.88338 0.38736 0.59795 0.0
P1360 P 0.40482 0.13078 0.36901 0.0
H1361 H 0.42905 0.14526 0.35928 0.0
H1362 H 0.43767 0.14992 0.33688 0.0
H1363 H 0.40072 0.13099 0.32005 0.0
H1364 H 0.39188 0.12701 0.34235 0.0
H1365 H 0.38982 0.1306 0.3941 0.0
H1366 H 0.38256 0.14708 0.40949 0.0
H1367 H 0.40052 0.17526 0.38341 0.0
H1368 H 0.40757 0.15866 0.3678 0.0
H1369 H 0.40497 0.10314 0.36929 0.0
H1370 H 0.37384 0.13292 0.36627 0.0
O1371 O 0.41909 0.12423 0.37628 0.0
H1372 H 0.38575 0.08745 0.36914 0.0
H1373 H 0.35459 0.11732 0.36599 0.0
C1374 C 0.40988 0.13574 0.35252 0.0
C1375 C 0.42268 0.14236 0.35074 0.0
C1376 C 0.42766 0.14491 0.3379 0.0
C1377 C 0.42001 0.14069 0.32659 0.0
C1378 C 0.40685 0.13452 0.32846 0.0
C1379 C 0.40181 0.13213 0.3413 0.0
C1380 C 0.399 0.14338 0.37967 0.0
C1381 C 0.39199 0.14033 0.39154 0.0
C1382 C 0.38781 0.14976 0.40032 0.0
C1383 C 0.39083 0.16247 0.39757 0.0
C1384 C 0.39803 0.16554 0.38574 0.0
C1385 C 0.40204 0.15605 0.37682 0.0
C1386 C 0.39077 0.11918 0.36812 0.0
C1387 C 0.39399 0.10629 0.36857 0.0
C1388 C 0.38301 0.09734 0.36839 0.0
C1389 C 0.36864 0.10116 0.36771 0.0
C1390 C 0.36553 0.11409 0.3668 0.0
C1391 C 0.37651 0.12301 0.36693 0.0
P1392 P 0.59073 0.62249 0.10314 0.0
H1393 H 0.56366 0.61358 0.11388 0.0
H1394 H 0.55254 0.61577 0.13567 0.0
H1395 H 0.5882 0.63849 0.14917 0.0
H1396 H 0.59923 0.63635 0.12718 0.0
H1397 H 0.61269 0.62718 0.08335 0.0
H1398 H 0.61975 0.64601 0.07111 0.0
H1399 H 0.59017 0.66812 0.09422 0.0
H1400 H 0.58293 0.64912 0.10621 0.0
H1401 H 0.59059 0.59513 0.10213 0.0
H1402 H 0.62093 0.62462 0.11113 0.0
O1403 O 0.57888 0.61659 0.09227 0.0
H1404 H 0.60884 0.57926 0.1067 0.0
H1405 H 0.63934 0.60874 0.11572 0.0
C1406 C 0.58212 0.62502 0.11886 0.0
C1407 C 0.56901 0.61917 0.12146 0.0
C1408 C 0.56272 0.62033 0.13397 0.0
C1409 C 0.56949 0.6273 0.14415 0.0
C1410 C 0.58263 0.63321 0.14148 0.0
C1411 C 0.58895 0.63198 0.12895 0.0
C1412 C 0.59757 0.63679 0.09593 0.0
C1413 C 0.60799 0.63613 0.08602 0.0
C1414 C 0.61204 0.64694 0.07904 0.0
C1415 C 0.60558 0.65861 0.08172 0.0
C1416 C 0.59531 0.65927 0.09186 0.0
C1417 C 0.59126 0.64843 0.09883 0.0
C1418 C 0.60453 0.61103 0.10594 0.0
C1419 C 0.60123 0.59819 0.10496 0.0
C1420 C 0.61164 0.58913 0.1077 0.0
C1421 C 0.62554 0.59276 0.11153 0.0
C1422 C 0.62878 0.60567 0.1126 0.0
C1423 C 0.61829 0.61474 0.10997 0.0
P1424 P 0.06796 0.86749 0.8866 0.0
H1425 H 0.04062 0.87672 0.87633 0.0
H1426 H 0.02826 0.87407 0.85501 0.0
H1427 H 0.06185 0.84931 0.84174 0.0
H1428 H 0.07406 0.85184 0.86333 0.0
H1429 H 0.09031 0.86252 0.90622 0.0
H1430 H 0.09542 0.84455 0.92058 0.0
H1431 H 0.06108 0.8237 0.90168 0.0
H1432 H 0.05597 0.84186 0.88731 0.0
H1433 H 0.0724 0.89458 0.88478 0.0
H1434 H 0.09703 0.86089 0.87835 0.0
O1435 O 0.05774 0.87585 0.89687 0.0
H1436 H 0.09315 0.90749 0.87925 0.0
H1437 H 0.11794 0.87378 0.87282 0.0
C1438 C 0.05818 0.86437 0.87143 0.0
C1439 C 0.04524 0.87058 0.86893 0.0
C1440 C 0.03824 0.86914 0.85667 0.0
C1441 C 0.0441 0.86154 0.84664 0.0
C1442 C 0.05697 0.85512 0.8493 0.0
C1443 C 0.06398 0.85658 0.8616 0.0
C1444 C 0.07303 0.85341 0.89544 0.0
C1445 C 0.08414 0.85396 0.90488 0.0
C1446 C 0.08706 0.84365 0.91309 0.0
C1447 C 0.07873 0.83263 0.91221 0.0
C1448 C 0.06769 0.83205 0.9026 0.0
C1449 C 0.06483 0.84238 0.89431 0.0
C1450 C 0.08332 0.87681 0.88234 0.0
C1451 C 0.0823 0.88997 0.88223 0.0
C1452 C 0.09414 0.89733 0.87895 0.0
C1453 C 0.1072 0.89164 0.87567 0.0
C1454 C 0.10808 0.87841 0.8755 0.0
C1455 C 0.09616 0.87105 0.87866 0.0
P1456 P 0.81205 0.86268 0.67266 0.0
H1457 H 0.82556 0.86349 0.69922 0.0
H1458 H 0.85056 0.86547 0.70642 0.0
H1459 H 0.86306 0.87072 0.66538 0.0
H1460 H 0.83817 0.86861 0.65829 0.0
H1461 H 0.78204 0.86732 0.66743 0.0
H1462 H 0.76909 0.88549 0.65861 0.0
H1463 H 0.80818 0.90727 0.65934 0.0
H1464 H 0.82108 0.88895 0.66788 0.0
H1465 H 0.8173 0.83581 0.66954 0.0
H1466 H 0.81002 0.86786 0.64388 0.0
O1467 O 0.80318 0.85504 0.68457 0.0
H1468 H 0.82117 0.82254 0.64994 0.0
H1469 H 0.81399 0.85474 0.62433 0.0
C1470 C 0.83007 0.86567 0.67821 0.0
C1471 C 0.83369 0.86516 0.6918 0.0
C1472 C 0.84796 0.86635 0.6959 0.0
C1473 C 0.8588 0.86807 0.68644 0.0
C1474 C 0.855 0.86913 0.67288 0.0
C1475 C 0.84076 0.86797 0.66882 0.0
C1476 C 0.80246 0.87682 0.66844 0.0
C1477 C 0.78775 0.87609 0.66594 0.0
C1478 C 0.78036 0.88651 0.66092 0.0
C1479 C 0.78759 0.89785 0.65825 0.0
C1480 C 0.80231 0.89863 0.66114 0.0
C1481 C 0.8097 0.88818 0.66614 0.0
C1482 C 0.81307 0.85273 0.65817 0.0
C1483 C 0.8163 0.83993 0.65969 0.0
C1484 C 0.81865 0.8324 0.64849 0.0
C1485 C 0.81787 0.83759 0.63557 0.0
C1486 C 0.81443 0.85041 0.63411 0.0
C1487 C 0.81215 0.85793 0.64532 0.0
P1488 P 0.88283 0.13597 0.39699 0.0
H1489 H 0.86353 0.14181 0.41891 0.0
H1490 H 0.85712 0.16162 0.42986 0.0
H1491 H 0.88388 0.18203 0.40236 0.0
H1492 H 0.89019 0.1623 0.39147 0.0
H1493 H 0.88326 0.10873 0.39514 0.0
H1494 H 0.86457 0.09289 0.39179 0.0
H1495 H 0.8327 0.12225 0.39101 0.0
H1496 H 0.85152 0.13811 0.39417 0.0
H1497 H 0.9122 0.1371 0.38732 0.0
H1498 H 0.86966 0.14086 0.37095 0.0
O1499 O 0.89541 0.12999 0.40705 0.0
H1500 H 0.92222 0.14021 0.36514 0.0
H1501 H 0.87961 0.14415 0.34871 0.0
C1502 C 0.87702 0.15061 0.40415 0.0
C1503 C 0.86778 0.15058 0.41508 0.0
C1504 C 0.86414 0.16189 0.42134 0.0
C1505 C 0.86998 0.17337 0.41694 0.0
C1506 C 0.87927 0.17333 0.40601 0.0
C1507 C 0.88279 0.16205 0.3997 0.0
C1508 C 0.86872 0.12453 0.39531 0.0
C1509 C 0.87224 0.11175 0.39438 0.0
C1510 C 0.86158 0.10272 0.39235 0.0
C1511 C 0.84719 0.10635 0.39121 0.0
C1512 C 0.84369 0.1192 0.39206 0.0
C1513 C 0.85442 0.12824 0.39392 0.0
C1514 C 0.8902 0.13851 0.3807 0.0
C1515 C 0.90502 0.1386 0.37894 0.0
C1516 C 0.91073 0.14049 0.36627 0.0
C1517 C 0.9017 0.14238 0.35515 0.0
C1518 C 0.88683 0.14253 0.35704 0.0
C1519 C 0.88114 0.14067 0.36973 0.0
P1520 P 0.66986 0.15237 0.16135 0.0
H1521 H 0.66322 0.13383 0.18185 0.0
H1522 H 0.64075 0.12454 0.18955 0.0
H1523 H 0.61744 0.14735 0.16106 0.0
H1524 H 0.63976 0.15654 0.15344 0.0
H1525 H 0.70102 0.15127 0.1613 0.0
H1526 H 0.71789 0.13493 0.1545 0.0
H1527 H 0.68251 0.11019 0.14499 0.0
H1528 H 0.6658 0.12647 0.1519 0.0
H1529 H 0.66073 0.17847 0.15803 0.0
H1530 H 0.67192 0.14729 0.13262 0.0
O1531 O 0.6768 0.1612 0.17356 0.0
H1532 H 0.65487 0.19117 0.13827 0.0
H1533 H 0.66622 0.15991 0.11295 0.0
C1534 C 0.65321 0.14581 0.16703 0.0
C1535 C 0.65325 0.13682 0.17728 0.0
C1536 C 0.64043 0.13149 0.18162 0.0
C1537 C 0.62734 0.13522 0.17589 0.0
C1538 C 0.62734 0.14438 0.16576 0.0
C1539 C 0.64016 0.14961 0.16135 0.0
C1540 C 0.6822 0.13996 0.15743 0.0
C1541 C 0.69693 0.14225 0.15794 0.0
C1542 C 0.70655 0.13295 0.15394 0.0
C1543 C 0.70154 0.12123 0.14928 0.0
C1544 C 0.68673 0.119 0.14879 0.0
C1545 C 0.67715 0.12831 0.15275 0.0
C1546 C 0.66702 0.16203 0.1468 0.0
C1547 C 0.66215 0.17444 0.14821 0.0
C1548 C 0.65871 0.18164 0.13694 0.0
C1549 C 0.66017 0.17654 0.12409 0.0
C1550 C 0.66521 0.16415 0.12273 0.0
C1551 C 0.66847 0.15692 0.13399 0.0
P1552 P 0.67166 0.85111 0.84874 0.0
H1553 H 0.69642 0.86435 0.85977 0.0
H1554 H 0.69895 0.88409 0.87217 0.0
H1555 H 0.65358 0.89063 0.86775 0.0
H1556 H 0.65113 0.87081 0.85566 0.0
H1557 H 0.67093 0.8238 0.84689 0.0
H1558 H 0.66595 0.80717 0.86315 0.0
H1559 H 0.66109 0.83531 0.8939 0.0
H1560 H 0.66618 0.85182 0.87769 0.0
H1561 H 0.66842 0.85998 0.82131 0.0
H1562 H 0.64167 0.8436 0.85157 0.0
O1563 O 0.68639 0.84784 0.84017 0.0
H1564 H 0.64776 0.86149 0.80622 0.0
H1565 H 0.62101 0.8452 0.83666 0.0
C1566 C 0.67366 0.86626 0.85656 0.0
C1567 C 0.68708 0.87014 0.86131 0.0
C1568 C 0.6885 0.88143 0.86838 0.0
C1569 C 0.67647 0.88895 0.87093 0.0
C1570 C 0.66304 0.88501 0.86607 0.0
C1571 C 0.66165 0.87373 0.85901 0.0
C1572 C 0.66908 0.83902 0.86108 0.0
C1573 C 0.66895 0.82636 0.85717 0.0
C1574 C 0.66599 0.81688 0.86644 0.0
C1575 C 0.66312 0.81994 0.87981 0.0
C1576 C 0.66345 0.83265 0.88372 0.0
C1577 C 0.66633 0.84211 0.87442 0.0
C1578 C 0.65663 0.85142 0.83742 0.0
C1579 C 0.65813 0.85659 0.82464 0.0
C1580 C 0.6463 0.85754 0.81608 0.0
C1581 C 0.63276 0.8534 0.82022 0.0
C1582 C 0.63134 0.84824 0.83307 0.0
C1583 C 0.64316 0.84733 0.84162 0.0
P1584 P 0.85266 0.10456 0.85936 0.0
H1585 H 0.85162 0.0778 0.85307 0.0
H1586 H 0.83202 0.06256 0.85245 0.0
H1587 H 0.8019 0.09282 0.85853 0.0
H1588 H 0.82143 0.10795 0.85845 0.0
H1589 H 0.87485 0.12316 0.85547 0.0
H1590 H 0.89127 0.12734 0.83729 0.0
H1591 H 0.87037 0.09866 0.81351 0.0
H1592 H 0.85386 0.09453 0.83185 0.0
H1593 H 0.8447 0.109 0.88686 0.0
H1594 H 0.84563 0.13028 0.8502 0.0
O1595 O 0.86377 0.09721 0.86988 0.0
H1596 H 0.83612 0.12754 0.89873 0.0
H1597 H 0.83715 0.14898 0.86208 0.0
C1598 C 0.83802 0.09396 0.85602 0.0
C1599 C 0.84075 0.08115 0.85395 0.0
C1600 C 0.82953 0.07244 0.85372 0.0
C1601 C 0.81536 0.0764 0.85572 0.0
C1602 C 0.81262 0.08939 0.85689 0.0
C1603 C 0.82385 0.09809 0.85697 0.0
C1604 C 0.86299 0.10869 0.84495 0.0
C1605 C 0.87356 0.11798 0.84623 0.0
C1606 C 0.88294 0.12038 0.8358 0.0
C1607 C 0.88208 0.11338 0.82391 0.0
C1608 C 0.87132 0.10418 0.82256 0.0
C1609 C 0.86183 0.10185 0.83302 0.0
C1610 C 0.84621 0.11839 0.86777 0.0
C1611 C 0.84311 0.1177 0.88138 0.0
C1612 C 0.83807 0.12826 0.88812 0.0
C1613 C 0.83602 0.13973 0.88133 0.0
C1614 C 0.83881 0.14031 0.86759 0.0
C1615 C 0.84371 0.12966 0.86081 0.0
P1616 P 0.65783 0.14863 0.62589 0.0
H1617 H 0.68407 0.1338 0.62333 0.0
H1618 H 0.68895 0.11336 0.61318 0.0
H1619 H 0.64432 0.10974 0.60234 0.0
H1620 H 0.63964 0.13035 0.61219 0.0
H1621 H 0.64242 0.17243 0.62728 0.0
H1622 H 0.63482 0.18764 0.61034 0.0
H1623 H 0.65461 0.16502 0.57986 0.0
H1624 H 0.66219 0.14983 0.59686 0.0
H1625 H 0.6583 0.14305 0.65446 0.0
H1626 H 0.62663 0.1489 0.62355 0.0
O1627 O 0.67242 0.15416 0.6336 0.0
H1628 H 0.6393 0.13974 0.67075 0.0
H1629 H 0.60764 0.14557 0.63972 0.0
C1630 C 0.66147 0.13352 0.61859 0.0
C1631 C 0.67534 0.1286 0.61879 0.0
C1632 C 0.6781 0.11687 0.61304 0.0
C1633 C 0.66702 0.10988 0.60698 0.0
C1634 C 0.65313 0.11492 0.60678 0.0
C1635 C 0.6504 0.12665 0.61251 0.0
C1636 C 0.6525 0.15983 0.61329 0.0
C1637 C 0.64501 0.17069 0.61694 0.0
C1638 C 0.64065 0.17935 0.60725 0.0
C1639 C 0.64396 0.17744 0.59375 0.0
C1640 C 0.65189 0.16674 0.59018 0.0
C1641 C 0.65614 0.15801 0.59989 0.0
C1642 C 0.64386 0.14655 0.6379 0.0
C1643 C 0.64726 0.14372 0.65121 0.0
C1644 C 0.6364 0.14175 0.66048 0.0
C1645 C 0.62197 0.14253 0.65654 0.0
C1646 C 0.61864 0.14517 0.64312 0.0
C1647 C 0.6295 0.14706 0.63386 0.0
P1648 P 0.66133 0.832 0.31195 0.0
H1649 H 0.65191 0.84001 0.28539 0.0
H1650 H 0.62822 0.84451 0.27581 0.0
H1651 H 0.609 0.83595 0.31378 0.0
H1652 H 0.63251 0.8316 0.32327 0.0
H1653 H 0.69156 0.83828 0.31444 0.0
H1654 H 0.70411 0.85719 0.32214 0.0
H1655 H 0.66367 0.87641 0.32582 0.0
H1656 H 0.65124 0.85739 0.31843 0.0
H1657 H 0.65221 0.80611 0.3166 0.0
H1658 H 0.66566 0.83791 0.34044 0.0
O1659 O 0.67078 0.82376 0.30096 0.0
H1660 H 0.64748 0.79409 0.33701 0.0
H1661 H 0.66095 0.82605 0.36069 0.0
C1662 C 0.64394 0.83516 0.30493 0.0
C1663 C 0.64256 0.83904 0.2916 0.0
C1664 C 0.62906 0.84166 0.28617 0.0
C1665 C 0.61676 0.84041 0.294 0.0
C1666 C 0.61826 0.83672 0.30742 0.0
C1667 C 0.63173 0.83423 0.31285 0.0
C1668 C 0.67052 0.84652 0.3156 0.0
C1669 C 0.68544 0.84665 0.31667 0.0
C1670 C 0.69259 0.85748 0.32106 0.0
C1671 C 0.6849 0.86833 0.3246 0.0
C1672 C 0.66992 0.86819 0.32331 0.0
C1673 C 0.66279 0.85735 0.31893 0.0
C1674 C 0.65949 0.82283 0.32697 0.0
C1675 C 0.65435 0.81043 0.32621 0.0
C1676 C 0.65154 0.80362 0.33786 0.0
C1677 C 0.65389 0.80911 0.35045 0.0
C1678 C 0.65925 0.82148 0.35114 0.0
C1679 C 0.66194 0.8283 0.33951 0.0
P1680 P 0.88136 0.85935 0.10123 0.0
H1681 H 0.86966 0.85451 0.07468 0.0
H1682 H 0.86623 0.83517 0.06173 0.0
H1683 H 0.88166 0.81327 0.09519 0.0
H1684 H 0.88488 0.83255 0.10815 0.0
H1685 H 0.88124 0.88646 0.10467 0.0
H1686 H 0.86258 0.90244 0.10256 0.0
H1687 H 0.83174 0.87341 0.09304 0.0
H1688 H 0.85043 0.85741 0.0954 0.0
H1689 H 0.90739 0.85165 0.11499 0.0
H1690 H 0.86401 0.86055 0.12555 0.0
O1691 O 0.89588 0.86549 0.09418 0.0
H1692 H 0.91348 0.84877 0.13854 0.0
H1693 H 0.87005 0.85769 0.14921 0.0
C1694 C 0.87726 0.84498 0.09246 0.0
C1695 C 0.87201 0.84552 0.07932 0.0
C1696 C 0.87006 0.83448 0.07193 0.0
C1697 C 0.87367 0.82273 0.07747 0.0
C1698 C 0.87886 0.82221 0.09066 0.0
C1699 C 0.88062 0.83324 0.0981 0.0
C1700 C 0.8673 0.87082 0.0998 0.0
C1701 C 0.87047 0.88354 0.10211 0.0
C1702 C 0.85978 0.89264 0.10101 0.0
C1703 C 0.84574 0.88916 0.09755 0.0
C1704 C 0.84252 0.87635 0.09553 0.0
C1705 C 0.8532 0.86722 0.09683 0.0
C1706 C 0.88535 0.85657 0.11857 0.0
C1707 C 0.89917 0.85295 0.12239 0.0
C1708 C 0.9026 0.85119 0.13585 0.0
C1709 C 0.89225 0.85304 0.14573 0.0
C1710 C 0.87828 0.85634 0.14182 0.0
C1711 C 0.87483 0.85798 0.12832 0.0
P1712 P 0.16162 0.64508 0.13164 0.0
H1713 H 0.16958 0.62009 0.14099 0.0
H1714 H 0.17408 0.60018 0.12948 0.0
H1715 H 0.16766 0.61881 0.09153 0.0
H1716 H 0.16302 0.63855 0.10306 0.0
H1717 H 0.17519 0.66785 0.12109 0.0
H1718 H 0.1672 0.68381 0.10512 0.0
H1719 H 0.12695 0.66415 0.10051 0.0
H1720 H 0.13493 0.64842 0.11674 0.0
H1721 H 0.1377 0.62726 0.13215 0.0
H1722 H 0.15474 0.65688 0.1571 0.0
O1723 O 0.17631 0.64998 0.13966 0.0
H1724 H 0.1186 0.62362 0.1481 0.0
H1725 H 0.13567 0.65322 0.17323 0.0
C1726 C 0.16578 0.63075 0.12292 0.0
C1727 C 0.1692 0.61987 0.13019 0.0
C1728 C 0.17183 0.60852 0.12359 0.0
C1729 C 0.17112 0.60789 0.10958 0.0
C1730 C 0.16802 0.61892 0.10233 0.0
C1731 C 0.16541 0.63026 0.10894 0.0
C1732 C 0.15555 0.65709 0.12026 0.0
C1733 C 0.1646 0.66705 0.11673 0.0
C1734 C 0.16006 0.6761 0.10749 0.0
C1735 C 0.14642 0.67528 0.10153 0.0
C1736 C 0.13742 0.6652 0.10507 0.0
C1737 C 0.14197 0.65618 0.11434 0.0
C1738 C 0.14782 0.64214 0.14361 0.0
C1739 C 0.13744 0.63286 0.14116 0.0
C1740 C 0.12654 0.63078 0.15031 0.0
C1741 C 0.1257 0.63804 0.16201 0.0
C1742 C 0.136 0.64749 0.1643 0.0
C1743 C 0.14695 0.64953 0.15515 0.0
P1744 P 0.16218 0.35272 0.82222 0.0
H1745 H 0.15001 0.35081 0.79514 0.0
H1746 H 0.12549 0.35271 0.78657 0.0
H1747 H 0.11106 0.36194 0.8262 0.0
H1748 H 0.1355 0.36001 0.83466 0.0
H1749 H 0.18791 0.35838 0.83751 0.0
H1750 H 0.19904 0.3781 0.8448 0.0
H1751 H 0.16592 0.39911 0.8244 0.0
H1752 H 0.15489 0.37935 0.81707 0.0
H1753 H 0.15984 0.32541 0.82483 0.0
H1754 H 0.15951 0.35773 0.85087 0.0
O1755 O 0.17241 0.34571 0.8109 0.0
H1756 H 0.15535 0.31159 0.84395 0.0
H1757 H 0.15508 0.34404 0.86995 0.0
C1758 C 0.14449 0.35506 0.81557 0.0
C1759 C 0.14157 0.3533 0.80196 0.0
C1760 C 0.12758 0.35444 0.79706 0.0
C1761 C 0.11635 0.35732 0.80576 0.0
C1762 C 0.11945 0.35947 0.81932 0.0
C1763 C 0.13341 0.3584 0.82416 0.0
C1764 C 0.17045 0.3674 0.82697 0.0
C1765 C 0.18304 0.36724 0.83462 0.0
C1766 C 0.18934 0.37851 0.83883 0.0
C1767 C 0.18325 0.39016 0.8353 0.0
C1768 C 0.17086 0.39029 0.82727 0.0
C1769 C 0.1645 0.37898 0.82314 0.0
C1770 C 0.16043 0.34254 0.83649 0.0
C1771 C 0.15906 0.3295 0.83469 0.0
C1772 C 0.15637 0.32164 0.84559 0.0
C1773 C 0.15497 0.32672 0.85847 0.0
C1774 C 0.15639 0.33981 0.86021 0.0
C1775 C 0.15897 0.34765 0.84929 0.0
P1776 P 0.37735 0.35536 0.60074 0.0
H1777 H 0.36587 0.34976 0.57427 0.0
H1778 H 0.36062 0.32993 0.56269 0.0
H1779 H 0.37151 0.30926 0.59849 0.0
H1780 H 0.3765 0.32901 0.61005 0.0
H1781 H 0.38076 0.38232 0.6036 0.0
H1782 H 0.36443 0.40009 0.60086 0.0
H1783 H 0.3302 0.37432 0.59086 0.0
H1784 H 0.34658 0.35652 0.59382 0.0
H1785 H 0.40204 0.34515 0.6148 0.0
H1786 H 0.36107 0.36068 0.62512 0.0
O1787 O 0.39249 0.3595 0.59324 0.0
H1788 H 0.4081 0.34298 0.63845 0.0
H1789 H 0.36711 0.3586 0.64887 0.0
C1790 C 0.37139 0.34091 0.59307 0.0
C1791 C 0.3668 0.34097 0.57971 0.0
C1792 C 0.36381 0.32965 0.57311 0.0
C1793 C 0.3657 0.31807 0.5797 0.0
C1794 C 0.37006 0.31805 0.59315 0.0
C1795 C 0.37285 0.32938 0.59979 0.0
C1796 C 0.36497 0.36815 0.59858 0.0
C1797 C 0.36975 0.3805 0.60078 0.0
C1798 C 0.36039 0.39063 0.59931 0.0
C1799 C 0.34607 0.38858 0.59559 0.0
C1800 C 0.34124 0.37617 0.59357 0.0
C1801 C 0.35059 0.366 0.59522 0.0
C1802 C 0.38125 0.3533 0.61823 0.0
C1803 C 0.39434 0.34807 0.62217 0.0
C1804 C 0.39773 0.34674 0.63569 0.0
C1805 C 0.38808 0.35065 0.64551 0.0
C1806 C 0.3748 0.35563 0.64152 0.0
C1807 C 0.37136 0.35683 0.62796 0.0
P1808 P 0.16542 0.64865 0.66581 0.0
H1809 H 0.14267 0.65603 0.68382 0.0
H1810 H 0.12016 0.64604 0.69001 0.0
H1811 H 0.13118 0.61346 0.66634 0.0
H1812 H 0.15317 0.62385 0.65964 0.0
H1813 H 0.18513 0.64793 0.64311 0.0
H1814 H 0.20207 0.63216 0.63556 0.0
H1815 H 0.19385 0.60996 0.67087 0.0
H1816 H 0.17651 0.62566 0.67816 0.0
H1817 H 0.16255 0.67595 0.66159 0.0
H1818 H 0.15491 0.64174 0.63944 0.0
O1819 O 0.17189 0.6579 0.67789 0.0
H1820 H 0.15417 0.6884 0.64247 0.0
H1821 H 0.1465 0.65409 0.62033 0.0
C1822 C 0.14979 0.64053 0.67162 0.0
C1823 C 0.14029 0.64666 0.68013 0.0
C1824 C 0.12743 0.6409 0.68369 0.0
C1825 C 0.12382 0.62888 0.67875 0.0
C1826 C 0.13347 0.62277 0.67024 0.0
C1827 C 0.14621 0.62862 0.66656 0.0
C1828 C 0.17914 0.63772 0.66095 0.0
C1829 C 0.18689 0.63965 0.64922 0.0
C1830 C 0.19674 0.63067 0.64498 0.0
C1831 C 0.19919 0.61968 0.65251 0.0
C1832 C 0.19197 0.61816 0.66467 0.0
C1833 C 0.1821 0.62715 0.66888 0.0
C1834 C 0.15957 0.65795 0.6518 0.0
C1835 C 0.15913 0.67113 0.65259 0.0
C1836 C 0.15425 0.67822 0.6417 0.0
C1837 C 0.14978 0.67221 0.62987 0.0
C1838 C 0.1501 0.65899 0.62922 0.0
C1839 C 0.15485 0.65192 0.64014 0.0
P1840 P 0.30579 0.36441 0.17276 0.0
H1841 H 0.31655 0.36106 0.20013 0.0
H1842 H 0.33989 0.36503 0.21049 0.0
H1843 H 0.35517 0.38014 0.17317 0.0
H1844 H 0.33176 0.37636 0.16299 0.0
H1845 H 0.27911 0.36683 0.15818 0.0
H1846 H 0.26611 0.38487 0.14912 0.0
H1847 H 0.29748 0.41001 0.1666 0.0
H1848 H 0.31052 0.39189 0.17549 0.0
H1849 H 0.30959 0.33731 0.16924 0.0
H1850 H 0.31169 0.37078 0.1449 0.0
O1851 O 0.29563 0.35607 0.18314 0.0
H1852 H 0.31616 0.32446 0.15 0.0
H1853 H 0.31848 0.35807 0.1257 0.0
C1854 C 0.32247 0.36837 0.18078 0.0
C1855 C 0.32488 0.36534 0.19422 0.0
C1856 C 0.33825 0.36755 0.20012 0.0
C1857 C 0.34941 0.37286 0.19265 0.0
C1858 C 0.34678 0.37618 0.17926 0.0
C1859 C 0.33343 0.37394 0.17339 0.0
C1860 C 0.29582 0.37801 0.1674 0.0
C1861 C 0.2831 0.37624 0.16016 0.0
C1862 C 0.27565 0.38657 0.15505 0.0
C1863 C 0.28078 0.39889 0.15711 0.0
C1864 C 0.29336 0.40063 0.16468 0.0
C1865 C 0.30081 0.39026 0.16981 0.0
C1866 C 0.30984 0.35494 0.15841 0.0
C1867 C 0.31135 0.34187 0.15972 0.0
C1868 C 0.31523 0.33457 0.14875 0.0
C1869 C 0.31779 0.34024 0.13629 0.0
C1870 C 0.31632 0.35338 0.13507 0.0
C1871 C 0.31246 0.36066 0.14606 0.0
P1872 P 0.63359 0.34436 0.12307 0.0
H1873 H 0.64541 0.34673 0.09618 0.0
H1874 H 0.63916 0.33662 0.07496 0.0
H1875 H 0.60385 0.31773 0.09408 0.0
H1876 H 0.60995 0.32805 0.11501 0.0
H1877 H 0.6569 0.35588 0.13808 0.0
H1878 H 0.66697 0.37711 0.13827 0.0
H1879 H 0.63768 0.388 0.10675 0.0
H1880 H 0.62778 0.36661 0.1065 0.0
H1881 H 0.62769 0.33432 0.14972 0.0
H1882 H 0.60654 0.35772 0.12044 0.0
O1883 O 0.6453 0.33413 0.12949 0.0
H1884 H 0.60722 0.33637 0.1645 0.0
H1885 H 0.58591 0.35968 0.13509 0.0
C1886 C 0.62793 0.3384 0.10708 0.0
C1887 C 0.63611 0.34066 0.09568 0.0
C1888 C 0.63259 0.3348 0.08359 0.0
C1889 C 0.62094 0.32642 0.08277 0.0
C1890 C 0.61267 0.32436 0.09422 0.0
C1891 C 0.61619 0.33023 0.10626 0.0
C1892 C 0.64184 0.35962 0.12207 0.0
C1893 C 0.65281 0.36277 0.13106 0.0
C1894 C 0.65845 0.37495 0.13125 0.0
C1895 C 0.65311 0.38424 0.12253 0.0
C1896 C 0.64215 0.38101 0.11345 0.0
C1897 C 0.63648 0.3688 0.11331 0.0
C1898 C 0.61856 0.34581 0.13398 0.0
C1899 C 0.61861 0.33986 0.14645 0.0
C1900 C 0.60688 0.34099 0.15487 0.0
C1901 C 0.59492 0.34816 0.15096 0.0
C1902 C 0.59501 0.35421 0.13847 0.0
C1903 C 0.60675 0.35305 0.13006 0.0
P1904 P 0.8791 0.6049 0.58014 0.0
H1905 H 0.86819 0.58173 0.56789 0.0
H1906 H 0.84796 0.56811 0.57302 0.0
H1907 H 0.83562 0.59343 0.60462 0.0
H1908 H 0.85604 0.607 0.59947 0.0
H1909 H 0.89521 0.6284 0.58152 0.0
H1910 H 0.88953 0.65002 0.57495 0.0
H1911 H 0.84721 0.63803 0.5628 0.0
H1912 H 0.85292 0.61649 0.56959 0.0
H1913 H 0.90362 0.58905 0.58647 0.0
H1914 H 0.87942 0.6182 0.60579 0.0
O1915 O 0.88775 0.59923 0.56696 0.0
H1916 H 0.91874 0.58696 0.60629 0.0
H1917 H 0.89428 0.61595 0.62589 0.0
C1918 C 0.86359 0.59537 0.58331 0.0
C1919 C 0.86107 0.58443 0.57585 0.0
C1920 C 0.84944 0.57667 0.57874 0.0
C1921 C 0.84015 0.5797 0.58922 0.0
C1922 C 0.84264 0.59078 0.59658 0.0
C1923 C 0.85427 0.59856 0.59362 0.0
C1924 C 0.87436 0.62093 0.57639 0.0
C1925 C 0.88464 0.63048 0.57764 0.0
C1926 C 0.88142 0.6428 0.57374 0.0
C1927 C 0.8679 0.64575 0.56837 0.0
C1928 C 0.85764 0.63611 0.56711 0.0
C1929 C 0.86089 0.62379 0.571 0.0
C1930 C 0.89059 0.60394 0.59459 0.0
C1931 C 0.90161 0.59505 0.59497 0.0
C1932 C 0.91016 0.59378 0.60639 0.0
C1933 C 0.90772 0.60127 0.61772 0.0
C1934 C 0.89658 0.61016 0.61729 0.0
C1935 C 0.88805 0.61143 0.60583 0.0
P1936 P 0.62711 0.36982 0.66401 0.0
H1937 H 0.64952 0.38675 0.67374 0.0
H1938 H 0.66032 0.40567 0.66433 0.0
H1939 H 0.62946 0.40489 0.63195 0.0
H1940 H 0.61893 0.38575 0.64133 0.0
H1941 H 0.61397 0.35296 0.68308 0.0
H1942 H 0.59219 0.35419 0.69619 0.0
H1943 H 0.58447 0.39169 0.68083 0.0
H1944 H 0.60606 0.39018 0.66744 0.0
H1945 H 0.64513 0.35996 0.64313 0.0
H1946 H 0.60055 0.35825 0.65348 0.0
O1947 O 0.63998 0.36286 0.67296 0.0
H1948 H 0.64037 0.34699 0.62347 0.0
H1949 H 0.59577 0.34491 0.63415 0.0
C1950 C 0.63366 0.38472 0.65806 0.0
C1951 C 0.645 0.39072 0.66468 0.0
C1952 C 0.65109 0.40162 0.65934 0.0
C1953 C 0.64584 0.40676 0.6473 0.0
C1954 C 0.63393 0.40106 0.64109 0.0
C1955 C 0.62787 0.39014 0.64646 0.0
C1956 C 0.61172 0.37153 0.67445 0.0
C1957 C 0.60766 0.3615 0.68268 0.0
C1958 C 0.59523 0.36226 0.69022 0.0
C1959 C 0.58659 0.37308 0.68965 0.0
C1960 C 0.5908 0.38317 0.68143 0.0
C1961 C 0.60322 0.38237 0.67384 0.0
C1962 C 0.62326 0.35996 0.64983 0.0
C1963 C 0.63434 0.35667 0.64124 0.0
C1964 C 0.6316 0.34919 0.63004 0.0
C1965 C 0.61769 0.34482 0.62725 0.0
C1966 C 0.60658 0.34821 0.6359 0.0
C1967 C 0.60933 0.35576 0.64706 0.0
P1968 P 0.36308 0.62346 0.89699 0.0
H1969 H 0.35235 0.63055 0.92314 0.0
H1970 H 0.34779 0.65105 0.93353 0.0
H1971 H 0.35731 0.66958 0.89626 0.0
H1972 H 0.36168 0.64919 0.88592 0.0
H1973 H 0.3627 0.59874 0.88502 0.0
H1974 H 0.34416 0.5828 0.88196 0.0
H1975 H 0.31355 0.60742 0.90061 0.0
H1976 H 0.33224 0.62341 0.90361 0.0
H1977 H 0.39291 0.62837 0.8904 0.0
H1978 H 0.35276 0.62457 0.86934 0.0
O1979 O 0.37469 0.61704 0.90774 0.0
H1980 H 0.40514 0.63178 0.86923 0.0
H1981 H 0.36486 0.6281 0.84814 0.0
C1982 C 0.35747 0.63833 0.90381 0.0
C1983 C 0.3532 0.63902 0.91716 0.0
C1984 C 0.35057 0.65072 0.92307 0.0
C1985 C 0.35235 0.6619 0.91572 0.0
C1986 C 0.35605 0.66111 0.9022 0.0
C1987 C 0.35851 0.64943 0.89627 0.0
C1988 C 0.34885 0.61226 0.89448 0.0
C1989 C 0.35197 0.60076 0.88835 0.0
C1990 C 0.34134 0.59168 0.88654 0.0
C1991 C 0.32737 0.59388 0.89096 0.0
C1992 C 0.32424 0.60544 0.89715 0.0
C1993 C 0.33491 0.6146 0.89885 0.0
C1994 C 0.37202 0.62589 0.88137 0.0
C1995 C 0.38675 0.62821 0.8812 0.0
C1996 C 0.39369 0.63028 0.86911 0.0
C1997 C 0.38598 0.63013 0.857 0.0
C1998 C 0.37114 0.62805 0.85727 0.0
C1999 C 0.36421 0.62603 0.86938 0.0
P2000 P 0.17971 0.34974 0.36342 0.0
H2001 H 0.20644 0.3642 0.36462 0.0
H2002 H 0.21231 0.38502 0.37352 0.0
H2003 H 0.16871 0.38926 0.38662 0.0
H2004 H 0.16306 0.3683 0.37799 0.0
H2005 H 0.16522 0.32559 0.3616 0.0
H2006 H 0.15743 0.31032 0.37828 0.0
H2007 H 0.17566 0.33355 0.40949 0.0
H2008 H 0.1835 0.34879 0.39271 0.0
H2009 H 0.17845 0.35554 0.33487 0.0
H2010 H 0.14871 0.34982 0.36693 0.0
O2011 O 0.19361 0.34395 0.35514 0.0
H2012 H 0.15846 0.35878 0.31927 0.0
H2013 H 0.12875 0.35306 0.35147 0.0
C2014 C 0.18429 0.36477 0.37057 0.0
C2015 C 0.19817 0.36958 0.36948 0.0
C2016 C 0.2015 0.38152 0.37451 0.0
C2017 C 0.19097 0.38885 0.38074 0.0
C2018 C 0.17712 0.38383 0.38203 0.0
C2019 C 0.17383 0.37189 0.37701 0.0
C2020 C 0.17462 0.33845 0.37593 0.0
C2021 C 0.1675 0.32742 0.37203 0.0
C2022 C 0.163 0.31874 0.38158 0.0
C2023 C 0.16576 0.32083 0.39521 0.0
C2024 C 0.17337 0.33169 0.39906 0.0
C2025 C 0.17778 0.34045 0.38948 0.0
C2026 C 0.16504 0.35212 0.35196 0.0
C2027 C 0.16762 0.35492 0.33853 0.0
C2028 C 0.1562 0.35684 0.32965 0.0
C2029 C 0.14203 0.35602 0.33412 0.0
C2030 C 0.13954 0.35348 0.34767 0.0
C2031 C 0.15095 0.35165 0.35652 0.0
P2032 P 0.35693 0.60159 0.37443 0.0
H2033 H 0.35541 0.57512 0.38239 0.0
H2034 H 0.33645 0.55936 0.3808 0.0
H2035 H 0.30981 0.58607 0.35963 0.0
H2036 H 0.32898 0.60179 0.36112 0.0
H2037 H 0.37713 0.62137 0.36817 0.0
H2038 H 0.39232 0.62542 0.34902 0.0
H2039 H 0.37414 0.59307 0.32887 0.0
H2040 H 0.35899 0.58901 0.34823 0.0
H2041 H 0.34815 0.60856 0.40114 0.0
H2042 H 0.34683 0.62509 0.36182 0.0
O2043 O 0.36873 0.59655 0.38581 0.0
H2044 H 0.33811 0.62783 0.41048 0.0
H2045 H 0.33687 0.64449 0.37113 0.0
C2046 C 0.34348 0.58967 0.37204 0.0
C2047 C 0.34553 0.57758 0.37734 0.0
C2048 C 0.33466 0.56858 0.37647 0.0
C2049 C 0.32156 0.5715 0.37023 0.0
C2050 C 0.31979 0.5835 0.36445 0.0
C2051 C 0.33069 0.59251 0.36535 0.0
C2052 C 0.36676 0.60505 0.35952 0.0
C2053 C 0.37622 0.61529 0.35953 0.0
C2054 C 0.38485 0.61762 0.34854 0.0
C2055 C 0.38435 0.60963 0.33735 0.0
C2056 C 0.37478 0.59938 0.33734 0.0
C2057 C 0.36606 0.5971 0.34837 0.0
C2058 C 0.34862 0.61555 0.38088 0.0
C2059 C 0.34567 0.61634 0.39452 0.0
C2060 C 0.33982 0.62732 0.39982 0.0
C2061 C 0.3368 0.63771 0.39154 0.0
C2062 C 0.33929 0.6367 0.37777 0.0
C2063 C 0.345 0.62564 0.37245 0.0
H2064 H 0.18069 0.4737 0.09169 0.0
H2065 H 0.14172 0.40871 0.07311 0.0
H2066 H 0.16898 0.46296 0.05156 0.0
H2067 H 0.15367 0.41916 0.11332 0.0
H2068 H 0.15077 0.42892 0.06519 0.0
H2069 H 0.17024 0.45408 0.09994 0.0
C2070 C 0.17613 0.46711 0.08459 0.0
C2071 C 0.1761 0.46976 0.07088 0.0
C2072 C 0.15138 0.42682 0.07575 0.0
C2073 C 0.1637 0.44748 0.08027 0.0
C2074 C 0.14612 0.4153 0.08031 0.0
C2075 C 0.14693 0.41221 0.09392 0.0
C2076 C 0.15753 0.43535 0.08486 0.0
C2077 C 0.15299 0.42106 0.10272 0.0
C2078 C 0.17 0.45598 0.08932 0.0
C2079 C 0.16935 0.46121 0.0622 0.0
N2080 N 0.15807 0.43221 0.09804 0.0
N2081 N 0.16351 0.45042 0.06703 0.0
H2082 H 0.79178 0.98134 0.40704 0.0
H2083 H 0.82826 0.91637 0.38539 0.0
H2084 H 0.78216 0.96222 0.37006 0.0
H2085 H 0.84246 0.93864 0.41901 0.0
H2086 H 0.80968 0.93199 0.38076 0.0
H2087 H 0.80895 0.96479 0.41262 0.0
C2088 C 0.79315 0.97357 0.40016 0.0
C2089 C 0.78526 0.97301 0.3882 0.0
C2090 C 0.81684 0.93345 0.38916 0.0
C2091 C 0.80499 0.95408 0.39447 0.0
C2092 C 0.8274 0.9245 0.39186 0.0
C2093 C 0.83695 0.92622 0.40259 0.0
C2094 C 0.81577 0.94417 0.39729 0.0
C2095 C 0.83544 0.93702 0.41054 0.0
C2096 C 0.80297 0.96414 0.40335 0.0
C2097 C 0.78755 0.96279 0.37962 0.0
N2098 N 0.82506 0.94557 0.40773 0.0
N2099 N 0.79722 0.95374 0.38291 0.0
H2100 H 0.29089 0.54391 0.5722 0.0
H2101 H 0.37385 0.55972 0.58241 0.0
H2102 H 0.32311 0.51546 0.57837 0.0
H2103 H 0.34342 0.58654 0.56678 0.0
H2104 H 0.35504 0.54369 0.58271 0.0
H2105 H 0.30963 0.56003 0.57194 0.0
C2106 C 0.30189 0.54108 0.57371 0.0
C2107 C 0.30545 0.52837 0.57558 0.0
C2108 C 0.35248 0.55307 0.57918 0.0
C2109 C 0.32695 0.5467 0.57502 0.0
C2110 C 0.36318 0.56224 0.57908 0.0
C2111 C 0.36018 0.57448 0.57457 0.0
C2112 C 0.33861 0.55619 0.57488 0.0
C2113 C 0.34622 0.57719 0.57022 0.0
C2114 C 0.31259 0.55026 0.57339 0.0
C2115 C 0.31992 0.52517 0.57695 0.0
N2116 N 0.33593 0.56813 0.57054 0.0
N2117 N 0.33014 0.53428 0.57673 0.0
H2118 H 0.68437 0.01959 0.89649 0.0
H2119 H 0.64487 0.08458 0.9125 0.0
H2120 H 0.67041 0.03027 0.93577 0.0
H2121 H 0.65478 0.07236 0.87256 0.0
H2122 H 0.65446 0.06484 0.92119 0.0
H2123 H 0.67417 0.03908 0.88754 0.0
C2124 C 0.67938 0.02614 0.90327 0.0
C2125 C 0.67856 0.02348 0.91694 0.0
C2126 C 0.6545 0.06645 0.91052 0.0
C2127 C 0.66651 0.04562 0.90674 0.0
C2128 C 0.64894 0.0777 0.90553 0.0
C2129 C 0.64897 0.08015 0.89175 0.0
C2130 C 0.66023 0.05756 0.9017 0.0
C2131 C 0.65469 0.07096 0.88326 0.0
C2132 C 0.67339 0.03719 0.89812 0.0
C2133 C 0.67136 0.03201 0.92517 0.0
N2134 N 0.6601 0.06009 0.88837 0.0
N2135 N 0.66569 0.04273 0.91995 0.0
H2136 H 0.18156 0.54629 0.40685 0.0
H2137 H 0.13755 0.59156 0.35754 0.0
H2138 H 0.17408 0.5386 0.36506 0.0
H2139 H 0.14859 0.60176 0.39803 0.0
H2140 H 0.14945 0.57138 0.36077 0.0
H2141 H 0.16801 0.56589 0.40448 0.0
C2142 C 0.17702 0.54868 0.3972 0.0
C2143 C 0.17902 0.5408 0.38612 0.0
C2144 C 0.14927 0.57801 0.36897 0.0
C2145 C 0.16352 0.56319 0.38335 0.0
C2146 C 0.14254 0.58959 0.36711 0.0
C2147 C 0.1422 0.59845 0.37748 0.0
C2148 C 0.15573 0.57521 0.38132 0.0
C2149 C 0.14853 0.5952 0.38977 0.0
C2150 C 0.16931 0.55988 0.39585 0.0
C2151 C 0.17289 0.54438 0.37386 0.0
N2152 N 0.1551 0.58386 0.39133 0.0
N2153 N 0.16545 0.55531 0.37281 0.0
H2154 H 0.67042 0.96324 0.55455 0.0
H2155 H 0.65276 0.91784 0.61621 0.0
H2156 H 0.68309 0.97127 0.59514 0.0
H2157 H 0.64256 0.90894 0.57518 0.0
H2158 H 0.66295 0.9379 0.60889 0.0
H2159 H 0.65886 0.94388 0.56216 0.0
C2160 C 0.6708 0.9609 0.56507 0.0
C2161 C 0.67806 0.96868 0.57418 0.0
C2162 C 0.65843 0.93157 0.6015 0.0
C2163 C 0.6648 0.94659 0.583 0.0
C2164 C 0.65267 0.92009 0.60566 0.0
C2165 C 0.64681 0.91165 0.5963 0.0
C2166 C 0.65835 0.93467 0.58787 0.0
C2167 C 0.64678 0.91519 0.58279 0.0
C2168 C 0.66423 0.94984 0.56941 0.0
C2169 C 0.67811 0.96528 0.58771 0.0
N2170 N 0.6525 0.92639 0.57899 0.0
N2171 N 0.67162 0.95446 0.59171 0.0
H2172 H 0.3001 0.46787 0.90839 0.0
H2173 H 0.36327 0.42409 0.88204 0.0
H2174 H 0.31024 0.46313 0.86675 0.0
H2175 H 0.35595 0.43124 0.9238 0.0
H2176 H 0.34412 0.43876 0.87634 0.0
H2177 H 0.32089 0.45506 0.91435 0.0
C2178 C 0.30674 0.46422 0.9005 0.0
C2179 C 0.30336 0.46653 0.88704 0.0
C2180 C 0.34672 0.43717 0.88675 0.0
C2181 C 0.32711 0.45179 0.8938 0.0
C2182 C 0.3576 0.42873 0.89001 0.0
C2183 C 0.36115 0.42637 0.90342 0.0
C2184 C 0.33924 0.44327 0.89696 0.0
C2185 C 0.35362 0.43283 0.91333 0.0
C2186 C 0.31861 0.45689 0.90392 0.0
C2187 C 0.31238 0.46157 0.87726 0.0
N2188 N 0.34295 0.44093 0.90991 0.0
N2189 N 0.32378 0.45437 0.88083 0.0
H2190 H 0.79444 0.02547 0.09914 0.0
H2191 H 0.8516 0.06238 0.05475 0.0
H2192 H 0.80028 0.01879 0.0571 0.0
H2193 H 0.85064 0.06433 0.09777 0.0
H2194 H 0.83147 0.04775 0.05519 0.0
H2195 H 0.81339 0.04135 0.09853 0.0
C2196 C 0.79948 0.02755 0.08972 0.0
C2197 C 0.79558 0.021 0.07809 0.0
C2198 C 0.83566 0.05138 0.06454 0.0
C2199 C 0.81758 0.03886 0.0774 0.0
C2200 C 0.84723 0.05968 0.06431 0.0
C2201 C 0.85293 0.06456 0.07625 0.0
C2202 C 0.82965 0.04793 0.0768 0.0
C2203 C 0.84655 0.06093 0.0883 0.0
C2204 C 0.81044 0.03649 0.08942 0.0
C2205 C 0.80292 0.02368 0.06628 0.0
N2206 N 0.83527 0.05283 0.08826 0.0
N2207 N 0.81355 0.03241 0.06623 0.0
H2208 H 0.09117 0.19282 0.44809 0.0
H2209 H 0.12247 0.13594 0.4049 0.0
H2210 H 0.13624 0.18581 0.44323 0.0
H2211 H 0.07743 0.14167 0.41139 0.0
H2212 H 0.12769 0.15412 0.41903 0.0
H2213 H 0.08589 0.17409 0.43476 0.0
C2214 C 0.09996 0.18734 0.44426 0.0
C2215 C 0.11418 0.19093 0.44677 0.0
C2216 C 0.11666 0.1514 0.41738 0.0
C2217 C 0.10819 0.16947 0.43145 0.0
C2218 C 0.11367 0.14096 0.40936 0.0
C2219 C 0.09948 0.13724 0.40694 0.0
C2220 C 0.10539 0.15821 0.42304 0.0
C2221 C 0.08852 0.14428 0.41282 0.0
C2222 C 0.09693 0.17663 0.43664 0.0
C2223 C 0.12512 0.18343 0.44155 0.0
N2224 N 0.09171 0.15442 0.42058 0.0
N2225 N 0.1219 0.17308 0.43411 0.0
H2226 H 0.03335 0.88893 0.69946 0.0
H2227 H 0.09588 0.84653 0.66926 0.0
H2228 H 0.0362 0.8486 0.70458 0.0
H2229 H 0.09212 0.88652 0.66218 0.0
H2230 H 0.07479 0.8474 0.68334 0.0
H2231 H 0.05553 0.88849 0.68678 0.0
C2232 C 0.03866 0.87999 0.69796 0.0
C2233 C 0.03286 0.86878 0.70306 0.0
C2234 C 0.07859 0.856 0.67875 0.0
C2235 C 0.05826 0.86822 0.68855 0.0
C2236 C 0.09071 0.85553 0.67077 0.0
C2237 C 0.0958 0.86647 0.66453 0.0
C2238 C 0.07147 0.8675 0.68052 0.0
C2239 C 0.08848 0.87782 0.66667 0.0
C2240 C 0.05132 0.87975 0.69071 0.0
C2241 C 0.04023 0.85748 0.70081 0.0
N2242 N 0.07668 0.87804 0.67448 0.0
N2243 N 0.05251 0.85749 0.69371 0.0
H2244 H 0.38886 0.79432 0.9406 0.0
H2245 H 0.35335 0.85482 0.90673 0.0
H2246 H 0.34393 0.803 0.94317 0.0
H2247 H 0.39666 0.843 0.89927 0.0
H2248 H 0.34949 0.83555 0.91951 0.0
H2249 H 0.39175 0.81168 0.92485 0.0
C2250 C 0.37957 0.7998 0.93776 0.0
C2251 C 0.36615 0.79724 0.9433 0.0
C2252 C 0.35981 0.83713 0.91501 0.0
C2253 C 0.36942 0.81724 0.92535 0.0
C2254 C 0.36201 0.84812 0.90764 0.0
C2255 C 0.37538 0.8506 0.90194 0.0
C2256 C 0.37108 0.82856 0.91678 0.0
C2257 C 0.38626 0.84163 0.90368 0.0
C2258 C 0.38123 0.80972 0.92876 0.0
C2259 C 0.35449 0.80464 0.93919 0.0
N2260 N 0.38389 0.83105 0.911 0.0
N2261 N 0.35642 0.81438 0.93056 0.0
H2262 H 0.46367 0.11709 0.18498 0.0
H2263 H 0.41799 0.0801 0.12969 0.0
H2264 H 0.46944 0.07773 0.17586 0.0
H2265 H 0.42213 0.12064 0.12996 0.0
H2266 H 0.43417 0.07897 0.14884 0.0
H2267 H 0.44561 0.11843 0.16713 0.0
C2268 C 0.46096 0.10869 0.17939 0.0
C2269 C 0.46794 0.09725 0.18198 0.0
C2270 C 0.43153 0.08812 0.14471 0.0
C2271 C 0.44749 0.09874 0.16151 0.0
C2272 C 0.42234 0.08878 0.13371 0.0
C2273 C 0.41879 0.10048 0.12803 0.0
C2274 C 0.43715 0.09924 0.15023 0.0
C2275 C 0.42446 0.11141 0.13401 0.0
C2276 C 0.45078 0.10949 0.16912 0.0
C2277 C 0.46432 0.08674 0.17417 0.0
N2278 N 0.43339 0.11052 0.14476 0.0
N2279 N 0.45432 0.08773 0.16432 0.0
H2280 H 0.12348 0.79148 0.07027 0.0
H2281 H 0.09935 0.85233 0.11133 0.0
H2282 H 0.08617 0.81352 0.06023 0.0
H2283 H 0.13301 0.82724 0.12423 0.0
H2284 H 0.09473 0.83859 0.09223 0.0
H2285 H 0.12762 0.80493 0.08968 0.0
C2286 C 0.11615 0.79914 0.07214 0.0
C2287 C 0.10446 0.80137 0.06359 0.0
C2288 C 0.10311 0.83609 0.09926 0.0
C2289 C 0.10916 0.81684 0.08581 0.0
C2290 C 0.10571 0.84389 0.11022 0.0
C2291 C 0.1166 0.84096 0.11944 0.0
C2292 C 0.11148 0.82527 0.09744 0.0
C2293 C 0.12465 0.83 0.1173 0.0
C2294 C 0.11851 0.80681 0.08325 0.0
C2295 C 0.09531 0.81144 0.06655 0.0
N2296 N 0.12194 0.82258 0.10653 0.0
N2297 N 0.09788 0.81881 0.07739 0.0
H2298 H 0.46676 0.89674 0.30731 0.0
H2299 H 0.3927 0.87788 0.34108 0.0
H2300 H 0.43768 0.86947 0.29009 0.0
H2301 H 0.42745 0.89616 0.36217 0.0
H2302 H 0.40757 0.87687 0.32118 0.0
H2303 H 0.45075 0.89908 0.3262 0.0
C2304 C 0.45696 0.8913 0.30743 0.0
C2305 C 0.45361 0.88283 0.29711 0.0
C2306 C 0.4119 0.88112 0.33017 0.0
C2307 C 0.43523 0.88547 0.31878 0.0
C2308 C 0.40345 0.88164 0.34158 0.0
C2309 C 0.40881 0.88708 0.3534 0.0
C2310 C 0.42577 0.88616 0.33053 0.0
C2311 C 0.42274 0.89204 0.35328 0.0
C2312 C 0.44785 0.89261 0.31827 0.0
C2313 C 0.44073 0.87606 0.29785 0.0
N2314 N 0.43071 0.89146 0.34205 0.0
N2315 N 0.43201 0.87751 0.30852 0.0
H2316 H 0.35189 0.17975 0.54734 0.0
H2317 H 0.40634 0.12866 0.57706 0.0
H2318 H 0.39758 0.18119 0.54196 0.0
H2319 H 0.36085 0.12746 0.58367 0.0
H2320 H 0.40337 0.14856 0.5652 0.0
H2321 H 0.35498 0.1613 0.56172 0.0
C2322 C 0.36258 0.17627 0.54926 0.0
C2323 C 0.37449 0.182 0.54335 0.0
C2324 C 0.39403 0.14399 0.56929 0.0
C2325 C 0.37808 0.16083 0.55973 0.0
C2326 C 0.39573 0.13264 0.57614 0.0
C2327 C 0.38382 0.12634 0.58137 0.0
C2328 C 0.38031 0.14911 0.56759 0.0
C2329 C 0.37031 0.13188 0.57964 0.0
C2330 C 0.36433 0.16571 0.55746 0.0
C2331 C 0.38808 0.17706 0.54624 0.0
N2332 N 0.36892 0.14292 0.57287 0.0
N2333 N 0.38949 0.16673 0.55414 0.0
H2334 H 0.04691 0.15218 0.78859 0.0
H2335 H 0.11088 0.11437 0.82373 0.0
H2336 H 0.04851 0.11158 0.7909 0.0
H2337 H 0.10443 0.15441 0.82832 0.0
H2338 H 0.08913 0.11327 0.81012 0.0
H2339 H 0.06921 0.15328 0.80141 0.0
C2340 C 0.05197 0.14349 0.79174 0.0
C2341 C 0.04579 0.13177 0.78869 0.0
C2342 C 0.0925 0.12229 0.8141 0.0
C2343 C 0.07135 0.13297 0.80337 0.0
C2344 C 0.10488 0.12293 0.82194 0.0
C2345 C 0.10953 0.1345 0.82724 0.0
C2346 C 0.08469 0.13332 0.81146 0.0
C2347 C 0.10142 0.1453 0.82432 0.0
C2348 C 0.06468 0.14413 0.7991 0.0
C2349 C 0.05284 0.12083 0.79306 0.0
N2350 N 0.08942 0.14444 0.81664 0.0
N2351 N 0.06524 0.1217 0.80017 0.0
H2352 H 0.95095 0.3875 0.79891 0.0
H2353 H 0.92245 0.35044 0.86286 0.0
H2354 H 0.95384 0.34712 0.80348 0.0
H2355 H 0.91637 0.39031 0.85643 0.0
H2356 H 0.93314 0.34885 0.84077 0.0
H2357 H 0.93728 0.38854 0.81947 0.0
C2358 C 0.94859 0.37883 0.80416 0.0
C2359 C 0.95365 0.36721 0.79949 0.0
C2360 C 0.92942 0.35794 0.84418 0.0
C2361 C 0.9381 0.36835 0.82317 0.0
C2362 C 0.92327 0.35885 0.85678 0.0
C2363 C 0.91858 0.37055 0.86157 0.0
C2364 C 0.93092 0.36881 0.8363 0.0
C2365 C 0.92008 0.38114 0.85329 0.0
C2366 C 0.9408 0.37943 0.81593 0.0
C2367 C 0.9502 0.35629 0.80671 0.0
N2368 N 0.92616 0.38002 0.84109 0.0
N2369 N 0.94275 0.35714 0.81825 0.0
H2370 H 0.87068 0.69351 0.0432 0.0
H2371 H 0.91182 0.62879 0.05419 0.0
H2372 H 0.9069 0.68233 0.01965 0.0
H2373 H 0.88504 0.64534 0.08433 0.0
H2374 H 0.90962 0.64804 0.04105 0.0
H2375 H 0.87509 0.67559 0.05804 0.0
C2376 C 0.87961 0.68734 0.04119 0.0
C2377 C 0.8884 0.6894 0.03013 0.0
C2378 C 0.9043 0.64748 0.05058 0.0
C2379 C 0.8934 0.66883 0.04699 0.0
C2380 C 0.90561 0.6365 0.05815 0.0
C2381 C 0.89856 0.63536 0.07041 0.0
C2382 C 0.89575 0.65738 0.0552 0.0
C2383 C 0.89044 0.64565 0.07483 0.0
C2384 C 0.88213 0.67713 0.04969 0.0
C2385 C 0.89984 0.68111 0.02805 0.0
N2386 N 0.88917 0.65618 0.06719 0.0
N2387 N 0.90193 0.67113 0.03633 0.0
H2388 H 0.53655 0.62042 0.31448 0.0
H2389 H 0.61996 0.636 0.32095 0.0
H2390 H 0.56118 0.63618 0.28226 0.0
H2391 H 0.59335 0.6259 0.35427 0.0
H2392 H 0.59887 0.63551 0.30637 0.0
H2393 H 0.55762 0.6215 0.3289 0.0
C2394 C 0.54639 0.6241 0.31042 0.0
C2395 C 0.54708 0.62822 0.29712 0.0
C2396 C 0.59765 0.63342 0.31688 0.0
C2397 C 0.57131 0.62948 0.31363 0.0
C2398 C 0.60968 0.63377 0.32523 0.0
C2399 C 0.60846 0.63095 0.33887 0.0
C2400 C 0.58431 0.6302 0.32219 0.0
C2401 C 0.59488 0.62793 0.3438 0.0
C2402 C 0.55843 0.62475 0.31868 0.0
C2403 C 0.56015 0.63292 0.29245 0.0
N2404 N 0.58336 0.6276 0.33546 0.0
N2405 N 0.57176 0.6334 0.30069 0.0
H2406 H 0.84467 0.31022 0.43663 0.0
H2407 H 0.90538 0.35546 0.40763 0.0
H2408 H 0.88952 0.30672 0.44637 0.0
H2409 H 0.86072 0.35864 0.39704 0.0
H2410 H 0.89996 0.3365 0.42043 0.0
H2411 H 0.8505 0.32686 0.42069 0.0
C2412 C 0.85575 0.31286 0.43533 0.0
C2413 C 0.8666 0.30713 0.44295 0.0
C2414 C 0.89135 0.3413 0.41525 0.0
C2415 C 0.87334 0.32623 0.42477 0.0
C2416 C 0.89445 0.35209 0.40786 0.0
C2417 C 0.88348 0.35871 0.4013 0.0
C2418 C 0.87716 0.33707 0.41614 0.0
C2419 C 0.86949 0.35398 0.40213 0.0
C2420 C 0.85907 0.32238 0.42624 0.0
C2421 C 0.88078 0.31092 0.44079 0.0
N2422 N 0.86672 0.34349 0.40947 0.0
N2423 N 0.88372 0.32028 0.43199 0.0
H2424 H 0.5992 0.69288 0.96162 0.0
H2425 H 0.61365 0.65284 0.89563 0.0
H2426 H 0.63655 0.69749 0.93712 0.0
H2427 H 0.5827 0.64169 0.92504 0.0
H2428 H 0.62075 0.67048 0.90985 0.0
H2429 H 0.59174 0.67509 0.94761 0.0
C2430 C 0.60585 0.69014 0.95333 0.0
C2431 C 0.61853 0.69669 0.95054 0.0
C2432 C 0.6124 0.66419 0.9132 0.0
C2433 C 0.60999 0.67645 0.93445 0.0
C2434 C 0.60826 0.65418 0.90504 0.0
C2435 C 0.59754 0.64582 0.90915 0.0
C2436 C 0.60571 0.66593 0.92554 0.0
C2437 C 0.59108 0.64788 0.92155 0.0
C2438 C 0.60159 0.67998 0.94536 0.0
C2439 C 0.62673 0.69271 0.93968 0.0
N2440 N 0.59524 0.65777 0.9293 0.0
N2441 N 0.62228 0.68291 0.932 0.0
H2442 H 0.80854 0.52662 0.83587 0.0
H2443 H 0.82333 0.59424 0.86871 0.0
H2444 H 0.78128 0.54316 0.86553 0.0
H2445 H 0.85103 0.57656 0.84012 0.0
H2446 H 0.80682 0.5764 0.86662 0.0
H2447 H 0.82341 0.54552 0.83638 0.0
C2448 C 0.8056 0.53429 0.84241 0.0
C2449 C 0.79351 0.53338 0.85051 0.0
C2450 C 0.8165 0.57645 0.86078 0.0
C2451 C 0.81057 0.55506 0.85125 0.0
C2452 C 0.82588 0.58666 0.86191 0.0
C2453 C 0.83864 0.58685 0.85465 0.0
C2454 C 0.81987 0.56638 0.85229 0.0
C2455 C 0.84146 0.57671 0.84609 0.0
C2456 C 0.81409 0.54509 0.84269 0.0
C2457 C 0.79023 0.54359 0.85882 0.0
N2458 N 0.83218 0.5669 0.84518 0.0
N2459 N 0.79875 0.554 0.85902 0.0
H2460 H 0.16248 0.03501 0.60665 0.0
H2461 H 0.13005 0.10196 0.58569 0.0
H2462 H 0.18261 0.06068 0.5791 0.0
H2463 H 0.10746 0.07517 0.61016 0.0
H2464 H 0.14957 0.08695 0.58354 0.0
H2465 H 0.14225 0.04948 0.60824 0.0
C2466 C 0.16263 0.04365 0.60089 0.0
C2467 C 0.17429 0.04664 0.59275 0.0
C2468 C 0.14035 0.08432 0.58937 0.0
C2469 C 0.15122 0.06326 0.59459 0.0
C2470 C 0.12924 0.09294 0.59069 0.0
C2471 C 0.11714 0.08985 0.59819 0.0
C2472 C 0.13942 0.07251 0.59564 0.0
C2473 C 0.11655 0.07791 0.60422 0.0
C2474 C 0.15108 0.05191 0.60181 0.0
C2475 C 0.17388 0.05797 0.58552 0.0
N2476 N 0.12757 0.06969 0.60286 0.0
N2477 N 0.16258 0.06587 0.58665 0.0
H2478 H 0.69906 0.42506 0.38654 0.0
H2479 H 0.62226 0.41119 0.35641 0.0
H2480 H 0.67969 0.44763 0.35542 0.0
H2481 H 0.64632 0.38314 0.3783 0.0
H2482 H 0.64364 0.42416 0.35517 0.0
H2483 H 0.68043 0.40915 0.38315 0.0
C2484 C 0.69101 0.42661 0.37888 0.0
C2485 C 0.69086 0.43778 0.37136 0.0
C2486 C 0.6443 0.4151 0.36011 0.0
C2487 C 0.66944 0.41967 0.36754 0.0
C2488 C 0.63207 0.4076 0.36074 0.0
C2489 C 0.63236 0.39603 0.36758 0.0
C2490 C 0.65691 0.41114 0.36651 0.0
C2491 C 0.64544 0.3921 0.3732 0.0
C2492 C 0.68038 0.41751 0.37694 0.0
C2493 C 0.6802 0.43922 0.36153 0.0
N2494 N 0.65713 0.39971 0.3727 0.0
N2495 N 0.66982 0.43037 0.36003 0.0
H2496 H 0.28288 0.94708 0.08968 0.0
H2497 H 0.35981 0.92813 0.1189 0.0
H2498 H 0.30277 0.96552 0.12348 0.0
H2499 H 0.33662 0.90591 0.08984 0.0
H2500 H 0.33996 0.94307 0.11934 0.0
H2501 H 0.30346 0.93305 0.08822 0.0
C2502 C 0.2916 0.94823 0.09676 0.0
C2503 C 0.29106 0.95747 0.10675 0.0
C2504 C 0.33922 0.93493 0.11286 0.0
C2505 C 0.31466 0.94142 0.10514 0.0
C2506 C 0.35058 0.92644 0.11255 0.0
C2507 C 0.34985 0.91574 0.10435 0.0
C2508 C 0.32707 0.93276 0.10484 0.0
C2509 C 0.33755 0.91395 0.09644 0.0
C2510 C 0.30333 0.94018 0.09594 0.0
C2511 C 0.30268 0.9585 0.11565 0.0
N2512 N 0.32666 0.92238 0.09687 0.0
N2513 N 0.314 0.95056 0.11464 0.0
H2514 H 0.81044 0.4659 0.61993 0.0
H2515 H 0.84201 0.39829 0.60143 0.0
H2516 H 0.78609 0.43706 0.59951 0.0
H2517 H 0.86827 0.42952 0.61447 0.0
H2518 H 0.82121 0.4121 0.6015 0.0
H2519 H 0.83155 0.45244 0.61893 0.0
C2520 C 0.80953 0.45675 0.61521 0.0
C2521 C 0.79645 0.4526 0.60982 0.0
C2522 C 0.83153 0.41594 0.60432 0.0
C2523 C 0.82058 0.43712 0.60871 0.0
C2524 C 0.84345 0.40807 0.60421 0.0
C2525 C 0.85697 0.41272 0.60794 0.0
C2526 C 0.83308 0.42856 0.60825 0.0
C2527 C 0.85806 0.42544 0.61171 0.0
C2528 C 0.8216 0.44908 0.61463 0.0
C2529 C 0.79594 0.44066 0.6038 0.0
N2530 N 0.84628 0.4329 0.6118 0.0
N2531 N 0.8078 0.43332 0.60346 0.0
H2532 H 0.29092 0.06144 0.38709 0.0
H2533 H 0.36665 0.07826 0.35501 0.0
H2534 H 0.31101 0.03836 0.35719 0.0
H2535 H 0.34396 0.1026 0.38197 0.0
H2536 H 0.34711 0.06294 0.35644 0.0
H2537 H 0.31102 0.07601 0.38612 0.0
C2538 C 0.29958 0.0594 0.38034 0.0
C2539 C 0.29924 0.04866 0.37218 0.0
C2540 C 0.34641 0.07164 0.36202 0.0
C2541 C 0.32235 0.06539 0.371 0.0
C2542 C 0.35758 0.08036 0.36126 0.0
C2543 C 0.35691 0.09175 0.36834 0.0
C2544 C 0.33452 0.07431 0.36998 0.0
C2545 C 0.34484 0.09403 0.37618 0.0
C2546 C 0.31106 0.06776 0.37977 0.0
C2547 C 0.3108 0.04654 0.36364 0.0
N2548 N 0.33416 0.08539 0.3768 0.0
N2549 N 0.32189 0.05484 0.36326 0.0
H2550 H 0.69984 0.54437 0.10914 0.0
H2551 H 0.62247 0.57123 0.1262 0.0
H2552 H 0.67045 0.52616 0.13593 0.0
H2553 H 0.65351 0.59218 0.10356 0.0
H2554 H 0.64016 0.55472 0.12997 0.0
H2555 H 0.68341 0.56214 0.10718 0.0
C2556 C 0.69011 0.5442 0.11484 0.0
C2557 C 0.68666 0.53383 0.12289 0.0
C2558 C 0.64315 0.56294 0.12422 0.0
C2559 C 0.66757 0.55399 0.12037 0.0
C2560 C 0.63303 0.57234 0.12201 0.0
C2561 C 0.63649 0.58304 0.11447 0.0
C2562 C 0.65686 0.56418 0.11878 0.0
C2563 C 0.65041 0.5841 0.10948 0.0
C2564 C 0.68064 0.55431 0.1136 0.0
C2565 C 0.67357 0.53395 0.12961 0.0
N2566 N 0.66007 0.57473 0.11164 0.0
N2567 N 0.66451 0.54384 0.12817 0.0
H2568 H 0.1886 0.93005 0.88122 0.0
H2569 H 0.10845 0.91267 0.85995 0.0
H2570 H 0.16297 0.95208 0.85384 0.0
H2571 H 0.13471 0.88866 0.88475 0.0
H2572 H 0.1289 0.9266 0.85667 0.0
H2573 H 0.16967 0.91411 0.88168 0.0
C2574 C 0.17906 0.93149 0.87522 0.0
C2575 C 0.17734 0.94249 0.86757 0.0
C2576 C 0.13025 0.91825 0.86276 0.0
C2577 C 0.15561 0.92432 0.86811 0.0
C2578 C 0.11855 0.91032 0.86468 0.0
C2579 C 0.11986 0.89956 0.87272 0.0
C2580 C 0.14336 0.91547 0.86903 0.0
C2581 C 0.13326 0.89685 0.87843 0.0
C2582 C 0.16826 0.92239 0.87549 0.0
C2583 C 0.16475 0.94382 0.85996 0.0
N2584 N 0.14447 0.90482 0.87658 0.0
N2585 N 0.15436 0.9349 0.86051 0.0
H2586 H 0.8188 0.80207 0.55758 0.0
H2587 H 0.83948 0.82051 0.6328 0.0
H2588 H 0.85602 0.78802 0.57854 0.0
H2589 H 0.8041 0.83712 0.61125 0.0
H2590 H 0.8453 0.80818 0.61306 0.0
H2591 H 0.81305 0.8149 0.57707 0.0
C2592 C 0.82581 0.80172 0.56624 0.0
C2593 C 0.83791 0.79392 0.56642 0.0
C2594 C 0.83625 0.81451 0.61263 0.0
C2595 C 0.83132 0.80852 0.58878 0.0
C2596 C 0.83286 0.82148 0.62395 0.0
C2597 C 0.82125 0.82983 0.6237 0.0
C2598 C 0.82797 0.81584 0.60096 0.0
C2599 C 0.81321 0.83087 0.61185 0.0
C2600 C 0.8225 0.80904 0.57737 0.0
C2601 C 0.84658 0.79387 0.57792 0.0
N2602 N 0.8167 0.82395 0.60096 0.0
N2603 N 0.84309 0.80101 0.58864 0.0
H2604 H 0.92301 0.13207 0.27212 0.0
H2605 H 0.92521 0.15611 0.34778 0.0
H2606 H 0.95591 0.15649 0.28809 0.0
H2607 H 0.89213 0.13197 0.33169 0.0
H2608 H 0.93588 0.15734 0.32566 0.0
H2609 H 0.91073 0.13302 0.29348 0.0
C2610 C 0.92762 0.1377 0.28008 0.0
C2611 C 0.94057 0.14415 0.27832 0.0
C2612 C 0.92624 0.15183 0.32694 0.0
C2613 C 0.92657 0.14523 0.30285 0.0
C2614 C 0.92019 0.15107 0.33959 0.0
C2615 C 0.90781 0.14386 0.34162 0.0
C2616 C 0.91992 0.14529 0.31623 0.0
C2617 C 0.90161 0.13772 0.33058 0.0
C2618 C 0.92059 0.13823 0.29229 0.0
C2619 C 0.94599 0.15133 0.289 0.0
N2620 N 0.90778 0.13851 0.31839 0.0
N2621 N 0.939 0.15161 0.30082 0.0
H2622 H 0.65592 0.21093 0.04578 0.0
H2623 H 0.6359 0.19043 0.12015 0.0
H2624 H 0.61313 0.21295 0.06132 0.0
H2625 H 0.6748 0.17924 0.10075 0.0
H2626 H 0.62849 0.20144 0.09975 0.0
H2627 H 0.66405 0.20191 0.06695 0.0
C2628 C 0.64824 0.20953 0.05366 0.0
C2629 C 0.6338 0.21264 0.05174 0.0
C2630 C 0.63867 0.19661 0.09998 0.0
C2631 C 0.64307 0.20236 0.07602 0.0
C2632 C 0.64294 0.19041 0.11164 0.0
C2633 C 0.65596 0.18389 0.1121 0.0
C2634 C 0.64754 0.19639 0.08876 0.0
C2635 C 0.66461 0.18405 0.10074 0.0
C2636 C 0.65289 0.20435 0.06573 0.0
C2637 C 0.62434 0.21062 0.06232 0.0
N2638 N 0.66025 0.1902 0.08954 0.0
N2639 N 0.62914 0.20561 0.07402 0.0
H2640 H 0.56599 0.88279 0.76863 0.0
H2641 H 0.61096 0.8365 0.81607 0.0
H2642 H 0.55157 0.84573 0.78027 0.0
H2643 H 0.62555 0.87342 0.80422 0.0
H2644 H 0.58953 0.8394 0.80232 0.0
H2645 H 0.58831 0.87919 0.78085 0.0
C2646 C 0.56752 0.87387 0.77371 0.0
C2647 C 0.55684 0.86457 0.77346 0.0
C2648 C 0.59744 0.84685 0.80268 0.0
C2649 C 0.58239 0.8604 0.78751 0.0
C2650 C 0.60965 0.84523 0.81058 0.0
C2651 C 0.62005 0.85476 0.81135 0.0
C2652 C 0.59556 0.85812 0.79551 0.0
C2653 C 0.61789 0.86578 0.80383 0.0
C2654 C 0.58028 0.87183 0.78069 0.0
C2655 C 0.55947 0.85319 0.78021 0.0
N2656 N 0.60586 0.86718 0.79628 0.0
N2657 N 0.57195 0.85145 0.78699 0.0
H2658 H 0.84144 0.20879 0.92532 0.0
H2659 H 0.81488 0.14167 0.89988 0.0
H2660 H 0.80637 0.18829 0.94279 0.0
H2661 H 0.84713 0.16357 0.87989 0.0
H2662 H 0.80976 0.15974 0.91412 0.0
H2663 H 0.84174 0.19366 0.90698 0.0
C2664 C 0.83365 0.20123 0.92521 0.0
C2665 C 0.824 0.19972 0.93574 0.0
C2666 C 0.81784 0.16067 0.90652 0.0
C2667 C 0.8244 0.18226 0.91483 0.0
C2668 C 0.8208 0.15033 0.89843 0.0
C2669 C 0.83156 0.15109 0.88881 0.0
C2670 C 0.82582 0.17181 0.9051 0.0
C2671 C 0.83874 0.1626 0.88718 0.0
C2672 C 0.83385 0.19257 0.91473 0.0
C2673 C 0.8141 0.18977 0.93498 0.0
N2674 N 0.83588 0.17246 0.89538 0.0
N2675 N 0.81469 0.18134 0.92482 0.0
H2676 H 0.54337 0.14658 0.70102 0.0
H2677 H 0.62018 0.12424 0.67581 0.0
H2678 H 0.56305 0.11154 0.71303 0.0
H2679 H 0.59738 0.15609 0.65947 0.0
H2680 H 0.60048 0.12057 0.69123 0.0
H2681 H 0.56421 0.15131 0.68743 0.0
C2682 C 0.5521 0.1399 0.70086 0.0
C2683 C 0.55141 0.12861 0.70813 0.0
C2684 C 0.59981 0.12838 0.68429 0.0
C2685 C 0.57532 0.13398 0.69256 0.0
C2686 C 0.61108 0.13052 0.67554 0.0
C2687 C 0.61038 0.14045 0.6663 0.0
C2688 C 0.58778 0.13627 0.68384 0.0
C2689 C 0.59827 0.14822 0.6663 0.0
C2690 C 0.56399 0.1426 0.69307 0.0
C2691 C 0.56308 0.12033 0.70755 0.0
N2692 N 0.58745 0.14596 0.67492 0.0
N2693 N 0.57454 0.12317 0.69986 0.0
H2694 H 0.65222 0.78169 0.43166 0.0
H2695 H 0.63006 0.79491 0.35556 0.0
H2696 H 0.61076 0.77239 0.41512 0.0
H2697 H 0.66945 0.80777 0.37368 0.0
H2698 H 0.62362 0.78485 0.37666 0.0
H2699 H 0.65942 0.78968 0.40991 0.0
C2700 C 0.64462 0.78129 0.42345 0.0
C2701 C 0.63082 0.77641 0.42526 0.0
C2702 C 0.6337 0.78983 0.376 0.0
C2703 C 0.63904 0.78556 0.40026 0.0
C2704 C 0.63743 0.79549 0.36393 0.0
C2705 C 0.65029 0.80223 0.36288 0.0
C2706 C 0.64293 0.79087 0.38708 0.0
C2707 C 0.65935 0.80282 0.3741 0.0
C2708 C 0.64875 0.78587 0.41102 0.0
C2709 C 0.62148 0.77612 0.41421 0.0
N2710 N 0.65548 0.79724 0.38573 0.0
N2711 N 0.62575 0.78066 0.40219 0.0
H2712 H 0.93919 0.83706 0.21796 0.0
H2713 H 0.88511 0.8691 0.16597 0.0
H2714 H 0.9208 0.87397 0.22331 0.0
H2715 H 0.90881 0.83513 0.15805 0.0
H2716 H 0.89434 0.86895 0.18889 0.0
H2717 H 0.92434 0.8342 0.19804 0.0
C2718 C 0.93187 0.84449 0.21508 0.0
C2719 C 0.93141 0.85586 0.22223 0.0
C2720 C 0.89739 0.86145 0.18218 0.0
C2721 C 0.91444 0.85266 0.19934 0.0
C2722 C 0.89206 0.86148 0.16912 0.0
C2723 C 0.89633 0.85219 0.16005 0.0
C2724 C 0.90704 0.85203 0.1862 0.0
C2725 C 0.90545 0.84261 0.16465 0.0
C2726 C 0.92343 0.84286 0.20366 0.0
C2727 C 0.92164 0.86511 0.21804 0.0
N2728 N 0.91059 0.84284 0.17737 0.0
N2729 N 0.91366 0.86337 0.20679 0.0
H2730 H 0.05206 0.64678 0.21275 0.0
H2731 H 0.115 0.61549 0.17073 0.0
H2732 H 0.05826 0.60663 0.20908 0.0
H2733 H 0.10967 0.65565 0.17515 0.0
H2734 H 0.09487 0.61209 0.18565 0.0
H2735 H 0.07387 0.65026 0.20003 0.0
C2736 C 0.05805 0.63869 0.20935 0.0
C2737 C 0.05326 0.62639 0.21193 0.0
C2738 C 0.09814 0.62165 0.18341 0.0
C2739 C 0.07821 0.63031 0.1973 0.0
C2740 C 0.10958 0.6236 0.17484 0.0
C2741 C 0.11397 0.63587 0.17161 0.0
C2742 C 0.09095 0.63206 0.18879 0.0
C2743 C 0.10672 0.64602 0.17743 0.0
C2744 C 0.0705 0.64069 0.20208 0.0
C2745 C 0.06149 0.61628 0.2073 0.0
N2746 N 0.09551 0.64389 0.18566 0.0
N2747 N 0.07351 0.61847 0.20015 0.0
H2748 H 0.14991 0.29309 0.937 0.0
H2749 H 0.13541 0.30751 0.8596 0.0
H2750 H 0.11409 0.27783 0.91484 0.0
H2751 H 0.16661 0.32736 0.88363 0.0
H2752 H 0.12903 0.29487 0.87911 0.0
H2753 H 0.15765 0.30411 0.91693 0.0
C2754 C 0.14369 0.29201 0.9279 0.0
C2755 C 0.13128 0.28455 0.92764 0.0
C2756 C 0.1373 0.30196 0.8801 0.0
C2757 C 0.14011 0.29717 0.90458 0.0
C2758 C 0.14102 0.30911 0.86895 0.0
C2759 C 0.15153 0.31852 0.87001 0.0
C2760 C 0.1442 0.30418 0.89238 0.0
C2761 C 0.15832 0.32031 0.88241 0.0
C2762 C 0.14811 0.29833 0.91645 0.0
C2763 C 0.12368 0.28351 0.91554 0.0
N2764 N 0.15454 0.31322 0.89311 0.0
N2765 N 0.12821 0.28976 0.9045 0.0
H2766 H 0.42046 0.37358 0.72199 0.0
H2767 H 0.40104 0.33123 0.65891 0.0
H2768 H 0.43289 0.33461 0.71804 0.0
H2769 H 0.38479 0.36883 0.6646 0.0
H2770 H 0.41055 0.33152 0.6817 0.0
H2771 H 0.40494 0.37126 0.70241 0.0
C2772 C 0.41976 0.36448 0.71715 0.0
C2773 C 0.42817 0.35433 0.72156 0.0
C2774 C 0.40475 0.33966 0.67805 0.0
C2775 C 0.41054 0.35165 0.69903 0.0
C2776 C 0.39938 0.33951 0.66502 0.0
C2777 C 0.39226 0.35008 0.65982 0.0
C2778 C 0.40315 0.35051 0.68591 0.0
C2779 C 0.39019 0.36048 0.66822 0.0
C2780 C 0.4109 0.36316 0.70594 0.0
C2781 C 0.42672 0.34274 0.71493 0.0
N2782 N 0.39578 0.3605 0.68079 0.0
N2783 N 0.41826 0.34177 0.70389 0.0
H2784 H 0.13622 0.70158 0.55035 0.0
H2785 H 0.13163 0.69248 0.62948 0.0
H2786 H 0.10529 0.72079 0.57467 0.0
H2787 H 0.15669 0.66887 0.60369 0.0
H2788 H 0.12324 0.70426 0.60989 0.0
H2789 H 0.14518 0.69076 0.57018 0.0
C2790 C 0.13131 0.70355 0.55987 0.0
C2791 C 0.11994 0.71209 0.56083 0.0
C2792 C 0.13057 0.6965 0.60853 0.0
C2793 C 0.1302 0.69971 0.58363 0.0
C2794 C 0.13543 0.68984 0.61971 0.0
C2795 C 0.14482 0.67966 0.61819 0.0
C2796 C 0.13526 0.69303 0.59578 0.0
C2797 C 0.1493 0.67654 0.60529 0.0
C2798 C 0.13643 0.69734 0.57119 0.0
C2799 C 0.11403 0.71425 0.57345 0.0
N2800 N 0.1445 0.68321 0.5946 0.0
N2801 N 0.11924 0.7081 0.58437 0.0
H2802 H 0.3572 0.28486 0.08531 0.0
H2803 H 0.30913 0.34241 0.11013 0.0
H2804 H 0.32994 0.30654 0.05899 0.0
H2805 H 0.33668 0.32056 0.13598 0.0
H2806 H 0.31687 0.32973 0.09117 0.0
H2807 H 0.35008 0.2982 0.10385 0.0
C2808 C 0.34974 0.29246 0.0834 0.0
C2809 C 0.34414 0.29455 0.07055 0.0
C2810 C 0.32122 0.32771 0.10099 0.0
C2811 C 0.33588 0.30988 0.09184 0.0
C2812 C 0.31685 0.33499 0.11181 0.0
C2813 C 0.32224 0.33254 0.12468 0.0
C2814 C 0.33107 0.31792 0.10304 0.0
C2815 C 0.33208 0.32267 0.12629 0.0
C2816 C 0.34567 0.30007 0.09402 0.0
C2817 C 0.33453 0.30457 0.06872 0.0
N2818 N 0.33617 0.31575 0.1156 0.0
N2819 N 0.33067 0.31184 0.07926 0.0
H2820 H 0.52505 0.33257 0.20453 0.0
H2821 H 0.57884 0.36912 0.15625 0.0
H2822 H 0.52202 0.37234 0.19583 0.0
H2823 H 0.58236 0.32958 0.16583 0.0
H2824 H 0.55799 0.37052 0.17067 0.0
H2825 H 0.54614 0.33135 0.19046 0.0
C2826 C 0.52882 0.34106 0.19968 0.0
C2827 C 0.52172 0.35258 0.20136 0.0
C2828 C 0.56334 0.36154 0.16963 0.0
C2829 C 0.54589 0.35123 0.1852 0.0
C2830 C 0.57519 0.36072 0.16134 0.0
C2831 C 0.58236 0.34921 0.15982 0.0
C2832 C 0.55856 0.35076 0.17643 0.0
C2833 C 0.57728 0.33868 0.16683 0.0
C2834 C 0.54088 0.34035 0.19164 0.0
C2835 C 0.52713 0.36326 0.19482 0.0
N2836 N 0.56568 0.3397 0.1748 0.0
N2837 N 0.53888 0.36232 0.18702 0.0
H2838 H 0.96555 0.57113 0.67706 0.0
H2839 H 0.9183 0.6196 0.63455 0.0
H2840 H 0.96236 0.61057 0.68689 0.0
H2841 H 0.91762 0.5793 0.62876 0.0
H2842 H 0.93396 0.61665 0.654 0.0
H2843 H 0.94775 0.57409 0.65941 0.0
C2844 C 0.961 0.58041 0.67557 0.0
C2845 C 0.96531 0.59059 0.68356 0.0
C2846 C 0.93033 0.60846 0.6485 0.0
C2847 C 0.945 0.59411 0.66325 0.0
C2848 C 0.92133 0.61013 0.63742 0.0
C2849 C 0.91672 0.59968 0.62991 0.0
C2850 C 0.93478 0.59627 0.65207 0.0
C2851 C 0.92113 0.58765 0.63405 0.0
C2852 C 0.95081 0.58209 0.6655 0.0
C2853 C 0.95909 0.60241 0.68118 0.0
N2854 N 0.92994 0.58629 0.64478 0.0
N2855 N 0.9493 0.60387 0.67117 0.0
H2856 H 0.62553 0.29334 0.5608 0.0
H2857 H 0.5944 0.34529 0.61032 0.0
H2858 H 0.58223 0.30715 0.55833 0.0
H2859 H 0.63441 0.326 0.617 0.0
H2860 H 0.59006 0.33208 0.59074 0.0
H2861 H 0.62938 0.30604 0.58081 0.0
C2862 C 0.61682 0.29904 0.56447 0.0
C2863 C 0.60353 0.29918 0.55786 0.0
C2864 C 0.59978 0.33072 0.59652 0.0
C2865 C 0.6079 0.31379 0.58078 0.0
C2866 C 0.60223 0.33822 0.60775 0.0
C2867 C 0.61481 0.33679 0.61536 0.0
C2868 C 0.60999 0.32176 0.59279 0.0
C2869 C 0.62468 0.32761 0.61135 0.0
C2870 C 0.61902 0.30627 0.57592 0.0
C2871 C 0.59264 0.30673 0.5631 0.0
N2872 N 0.62207 0.32048 0.60034 0.0
N2873 N 0.59508 0.31377 0.57422 0.0
H2874 H 0.44272 0.65433 0.79398 0.0
H2875 H 0.38177 0.61722 0.83365 0.0
H2876 H 0.41993 0.62211 0.77825 0.0
H2877 H 0.40716 0.64709 0.85101 0.0
H2878 H 0.3945 0.61994 0.81269 0.0
H2879 H 0.42872 0.65283 0.8144 0.0
C2880 C 0.43474 0.64698 0.79478 0.0
C2881 C 0.43254 0.6383 0.78439 0.0
C2882 C 0.39728 0.62592 0.82107 0.0
C2883 C 0.41649 0.63653 0.80774 0.0
C2884 C 0.38995 0.62442 0.83302 0.0
C2885 C 0.39342 0.63192 0.84412 0.0
C2886 C 0.40816 0.63501 0.82016 0.0
C2887 C 0.40427 0.64099 0.84277 0.0
C2888 C 0.42676 0.64611 0.80646 0.0
C2889 C 0.42204 0.62898 0.786 0.0
N2890 N 0.41126 0.64227 0.83102 0.0
N2891 N 0.41443 0.62833 0.79746 0.0
H2892 H 0.08098 0.38625 0.27705 0.0
H2893 H 0.11749 0.34209 0.33231 0.0
H2894 H 0.06214 0.35173 0.29153 0.0
H2895 H 0.1388 0.37398 0.31459 0.0
H2896 H 0.09709 0.34557 0.31741 0.0
H2897 H 0.10229 0.38197 0.29058 0.0
C2898 C 0.08134 0.37775 0.28303 0.0
C2899 C 0.06971 0.36936 0.28318 0.0
C2900 C 0.10624 0.35179 0.31673 0.0
C2901 C 0.09407 0.36444 0.29874 0.0
C2902 C 0.11786 0.34984 0.32529 0.0
C2903 C 0.12983 0.3578 0.32474 0.0
C2904 C 0.10652 0.36181 0.30758 0.0
C2905 C 0.12983 0.36757 0.31529 0.0
C2906 C 0.09352 0.3753 0.29074 0.0
C2907 C 0.07082 0.35848 0.2911 0.0
N2908 N 0.11831 0.36935 0.30713 0.0
N2909 N 0.08273 0.35637 0.2986 0.0
H2910 H 0.33834 0.71241 0.42429 0.0
H2911 H 0.31623 0.64108 0.41045 0.0
H2912 H 0.30542 0.69271 0.44589 0.0
H2913 H 0.34619 0.66162 0.38622 0.0
H2914 H 0.31033 0.66061 0.42202 0.0
H2915 H 0.33945 0.69482 0.40861 0.0
C2916 C 0.33118 0.70448 0.42563 0.0
C2917 C 0.32191 0.70398 0.43655 0.0
C2918 C 0.31807 0.6609 0.41407 0.0
C2919 C 0.32324 0.68373 0.41871 0.0
C2920 C 0.32148 0.64973 0.4075 0.0
C2921 C 0.33182 0.64971 0.39746 0.0
C2922 C 0.32517 0.67212 0.41068 0.0
C2923 C 0.33813 0.66123 0.39389 0.0
C2924 C 0.33185 0.69442 0.41668 0.0
C2925 C 0.31284 0.69347 0.43772 0.0
N2926 N 0.33485 0.67194 0.40061 0.0
N2927 N 0.31387 0.68372 0.42902 0.0
H2928 H 0.09801 0.30949 -0.00454 0.0
H2929 H 0.11494 0.31 0.07388 0.0
H2930 H 0.11898 0.27874 0.01592 0.0
H2931 H 0.10585 0.34327 0.0506 0.0
H2932 H 0.11167 0.29712 0.05374 0.0
H2933 H 0.09595 0.32055 0.01667 0.0
C2934 C 0.10205 0.30498 0.00443 0.0
C2935 C 0.10886 0.29323 0.00388 0.0
C2936 C 0.11025 0.30722 0.05309 0.0
C2937 C 0.10653 0.3059 0.02822 0.0
C2938 C 0.11203 0.31455 0.06457 0.0
C2939 C 0.11077 0.32771 0.06384 0.0
C2940 C 0.10704 0.31311 0.04087 0.0
C2941 C 0.10709 0.33317 0.05153 0.0
C2942 C 0.1009 0.31134 0.01654 0.0
C2943 C 0.11378 0.28784 0.01587 0.0
N2944 N 0.10541 0.32585 0.04053 0.0
N2945 N 0.11261 0.29426 0.02755 0.0
H2946 H 0.95138 0.85905 0.30066 0.0
H2947 H 0.89625 0.8936 0.34879 0.0
H2948 H 0.93018 0.89393 0.29066 0.0
H2949 H 0.92556 0.86504 0.36269 0.0
H2950 H 0.90685 0.89234 0.32665 0.0
H2951 H 0.94044 0.85971 0.32276 0.0
C2952 C 0.94442 0.86684 0.3031 0.0
C2953 C 0.9417 0.87646 0.2938 0.0
C2954 C 0.91096 0.88634 0.33453 0.0
C2955 C 0.92911 0.87722 0.31901 0.0
C2956 C 0.90484 0.88698 0.34714 0.0
C2957 C 0.91001 0.87939 0.35759 0.0
C2958 C 0.92228 0.87796 0.33228 0.0
C2959 C 0.92133 0.87113 0.35494 0.0
C2960 C 0.93821 0.86722 0.31572 0.0
C2961 C 0.93261 0.88633 0.29752 0.0
N2962 N 0.92706 0.8706 0.34253 0.0
N2963 N 0.92661 0.88643 0.30981 0.0
H2964 H 0.37201 0.70393 0.49002 0.0
H2965 H 0.3695 0.66851 0.56048 0.0
H2966 H 0.33737 0.70803 0.51783 0.0
H2967 H 0.39929 0.65974 0.52919 0.0
H2968 H 0.35971 0.68544 0.5466 0.0
H2969 H 0.38442 0.69048 0.50608 0.0
C2970 C 0.36707 0.70213 0.49957 0.0
C2971 C 0.35353 0.707 0.5025 0.0
C2972 C 0.36847 0.67987 0.54284 0.0
C2973 C 0.36768 0.6915 0.52093 0.0
C2974 C 0.37402 0.67014 0.55072 0.0
C2975 C 0.38518 0.66258 0.54598 0.0
C2976 C 0.37413 0.68208 0.53013 0.0
C2977 C 0.39079 0.66536 0.53336 0.0
C2978 C 0.37416 0.69441 0.50873 0.0
C2979 C 0.34774 0.7044 0.5151 0.0
N2980 N 0.38516 0.67482 0.52587 0.0
N2981 N 0.35479 0.69673 0.5238 0.0
H2982 H 0.54002 0.09388 0.77851 0.0
H2983 H 0.57535 0.14452 0.82762 0.0
H2984 H 0.5316 0.1338 0.77608 0.0
H2985 H 0.58003 0.10434 0.83256 0.0
H2986 H 0.5582 0.14075 0.80949 0.0
H2987 H 0.55344 0.09742 0.79919 0.0
C2988 C 0.54087 0.10338 0.78239 0.0
C2989 C 0.53477 0.11358 0.77549 0.0
C2990 C 0.56288 0.13275 0.81462 0.0
C2991 C 0.55025 0.11771 0.7991 0.0
C2992 C 0.57272 0.1349 0.82492 0.0
C2993 C 0.5792 0.12473 0.83155 0.0
C2994 C 0.55958 0.12034 0.81083 0.0
C2995 C 0.57523 0.11246 0.82778 0.0
C2996 C 0.54854 0.1054 0.7942 0.0
C2997 C 0.53617 0.12567 0.78103 0.0
N2998 N 0.56579 0.11061 0.81759 0.0
N2999 N 0.54388 0.12741 0.79244 0.0
H3000 H 0.08366 0.69044 0.48704 0.0
H3001 H 0.11154 0.69469 0.41198 0.0
H3002 H 0.10969 0.7209 0.47215 0.0
H3003 H 0.08833 0.66286 0.42769 0.0
H3004 H 0.10858 0.70557 0.43322 0.0
H3005 H 0.08267 0.68149 0.46462 0.0
C3006 C 0.08905 0.69532 0.47903 0.0
C3007 C 0.0969 0.70637 0.48151 0.0
C3008 C 0.10405 0.69624 0.432 0.0
C3009 C 0.09587 0.69612 0.45582 0.0
C3010 C 0.1058 0.68999 0.4199 0.0
C3011 C 0.10031 0.67778 0.41809 0.0
C3012 C 0.09677 0.69024 0.44243 0.0
C3013 C 0.09269 0.67228 0.42861 0.0
C3014 C 0.0885 0.69019 0.46623 0.0
C3015 C 0.1036 0.71232 0.47072 0.0
N3016 N 0.09124 0.67851 0.44036 0.0
N3017 N 0.10303 0.70706 0.45837 0.0
H3018 H 0.53227 0.85434 0.70826 0.0
H3019 H 0.57486 0.88438 0.64702 0.0
H3020 H 0.53799 0.89435 0.70249 0.0
H3021 H 0.57614 0.84491 0.65734 0.0
H3022 H 0.55789 0.8879 0.66504 0.0
H3023 H 0.54486 0.85051 0.68739 0.0
C3024 C 0.53602 0.86233 0.70253 0.0
C3025 C 0.53419 0.87468 0.7072 0.0
C3026 C 0.5618 0.87845 0.6633 0.0
C3027 C 0.54865 0.87036 0.68333 0.0
C3028 C 0.57141 0.87642 0.65296 0.0
C3029 C 0.577 0.86435 0.65074 0.0
C3030 C 0.55769 0.86833 0.67145 0.0
C3031 C 0.57226 0.8544 0.65884 0.0
C3032 C 0.54325 0.86013 0.69064 0.0
C3033 C 0.53925 0.88466 0.69933 0.0
N3034 N 0.56293 0.85662 0.66887 0.0
N3035 N 0.54633 0.88228 0.68783 0.0
H3036 H 0.38672 0.29802 0.00307 0.0
H3037 H 0.36507 0.34439 0.94312 0.0
H3038 H 0.34362 0.30219 0.98805 0.0
H3039 H 0.40805 0.34068 0.95859 0.0
H3040 H 0.35723 0.32811 0.95869 0.0
H3041 H 0.39496 0.31273 0.986 0.0
C3042 C 0.37899 0.30198 -0.00385 0.0
C3043 C 0.36444 0.2989 -0.00296 0.0
C3044 C 0.36839 0.33081 0.95864 0.0
C3045 C 0.37381 0.31579 0.97747 0.0
C3046 C 0.37287 0.34015 0.94978 0.0
C3047 C 0.38723 0.34397 0.94958 0.0
C3048 C 0.37833 0.32524 0.96741 0.0
C3049 C 0.3969 0.33797 0.95829 0.0
C3050 C 0.3837 0.31039 0.9864 0.0
C3051 C 0.35492 0.30432 0.98777 0.0
N3052 N 0.39226 0.32896 0.96689 0.0
N3053 N 0.35977 0.31253 0.97841 0.0
H3054 H 0.95044 0.09723 0.19743 0.0
H3055 H 0.92869 0.13018 0.12835 0.0
H3056 H 0.95091 0.13749 0.19119 0.0
H3057 H 0.92995 0.08988 0.13406 0.0
H3058 H 0.93791 0.13301 0.15104 0.0
H3059 H 0.94432 0.0943 0.17389 0.0
C3060 C 0.94938 0.10546 0.19109 0.0
C3061 C 0.95109 0.11764 0.19633 0.0
C3062 C 0.93624 0.12354 0.14732 0.0
C3063 C 0.94398 0.11434 0.16936 0.0
C3064 C 0.93089 0.12192 0.13439 0.0
C3065 C 0.92846 0.10977 0.12932 0.0
C3066 C 0.93913 0.11294 0.1553 0.0
C3067 C 0.93176 0.09942 0.13751 0.0
C3068 C 0.94586 0.10377 0.17764 0.0
C3069 C 0.94963 0.12793 0.18761 0.0
N3070 N 0.93684 0.10124 0.15011 0.0
N3071 N 0.94605 0.12605 0.17459 0.0
H3072 H 0.02232 0.14989 0.27266 0.0
H3073 H 0.05403 0.08992 0.31121 0.0
H3074 H 0.00892 0.11163 0.26486 0.0
H3075 H 0.06159 0.12843 0.32328 0.0
H3076 H 0.04039 0.09759 0.29195 0.0
H3077 H 0.0399 0.142 0.28876 0.0
C3078 C 0.02319 0.13982 0.27419 0.0
C3079 C 0.01402 0.13142 0.26749 0.0
C3080 C 0.04513 0.10436 0.29877 0.0
C3081 C 0.03408 0.12234 0.28599 0.0
C3082 C 0.05286 0.09999 0.30981 0.0
C3083 C 0.05886 0.10853 0.319 0.0
C3084 C 0.04339 0.11737 0.29684 0.0
C3085 C 0.05726 0.12148 0.31645 0.0
C3086 C 0.0332 0.13533 0.28344 0.0
C3087 C 0.01569 0.11846 0.26987 0.0
N3088 N 0.0496 0.12549 0.30568 0.0
N3089 N 0.02543 0.11432 0.279 0.0
H3090 H 0.08203 0.78012 0.54882 0.0
H3091 H 0.14577 0.82437 0.57337 0.0
H3092 H 0.12569 0.77557 0.53624 0.0
H3093 H 0.10147 0.83129 0.58238 0.0
H3094 H 0.13836 0.8079 0.55779 0.0
H3095 H 0.08858 0.8001 0.55928 0.0
C3096 C 0.09297 0.78339 0.54812 0.0
C3097 C 0.10336 0.77609 0.54178 0.0
C3098 C 0.13024 0.81312 0.56305 0.0
C3099 C 0.11098 0.79892 0.55385 0.0
C3100 C 0.13447 0.8226 0.5719 0.0
C3101 C 0.12424 0.82914 0.57934 0.0
C3102 C 0.11569 0.81008 0.56168 0.0
C3103 C 0.10975 0.8263 0.57709 0.0
C3104 C 0.0967 0.79482 0.5541 0.0
C3105 C 0.11734 0.78085 0.54111 0.0
N3106 N 0.10592 0.8169 0.56859 0.0
N3107 N 0.12078 0.79189 0.54722 0.0
H3108 H 0.47045 0.8838 0.77104 0.0
H3109 H 0.41315 0.86507 0.82611 0.0
H3110 H 0.4626 0.84568 0.7842 0.0
H3111 H 0.42036 0.90329 0.81295 0.0
H3112 H 0.42902 0.8576 0.80871 0.0
H3113 H 0.45012 0.89087 0.78419 0.0
C3114 C 0.46435 0.87689 0.77655 0.0
C3115 C 0.46836 0.86414 0.77665 0.0
C3116 C 0.42703 0.86762 0.80953 0.0
C3117 C 0.44513 0.87219 0.7918 0.0
C3118 C 0.41786 0.8719 0.81942 0.0
C3119 C 0.41546 0.88486 0.8211 0.0
C3120 C 0.43397 0.87634 0.80126 0.0
C3121 C 0.42209 0.89324 0.81221 0.0
C3122 C 0.45275 0.88094 0.78409 0.0
C3123 C 0.46 0.85561 0.78393 0.0
N3124 N 0.43114 0.88884 0.80276 0.0
N3125 N 0.44889 0.85981 0.79131 0.0
H3126 H 0.33426 0.2157 0.04695 0.0
H3127 H 0.39157 0.16144 0.06085 0.0
H3128 H 0.37987 0.22145 0.04501 0.0
H3129 H 0.34606 0.15484 0.0593 0.0
H3130 H 0.38749 0.18326 0.05419 0.0
H3131 H 0.33833 0.19322 0.05049 0.0
C3132 C 0.34513 0.21223 0.04714 0.0
C3133 C 0.35675 0.2205 0.04577 0.0
C3134 C 0.37839 0.17703 0.05524 0.0
C3135 C 0.36149 0.19476 0.04995 0.0
C3136 C 0.38072 0.16453 0.05899 0.0
C3137 C 0.36914 0.15626 0.06067 0.0
C3138 C 0.36437 0.18136 0.05321 0.0
C3139 C 0.3553 0.16091 0.05834 0.0
C3140 C 0.34745 0.19938 0.04919 0.0
C3141 C 0.37059 0.21544 0.04607 0.0
N3142 N 0.35331 0.17315 0.05477 0.0
N3143 N 0.37257 0.20292 0.04823 0.0
H3144 H 0.00159 0.88699 0.21731 0.0
H3145 H 0.08422 0.86788 0.21794 0.0
H3146 H 0.02005 0.86052 0.24526 0.0
H3147 H 0.06418 0.89009 0.18691 0.0
H3148 H 0.06156 0.86733 0.22982 0.0
H3149 H 0.02523 0.89064 0.20803 0.0
C3150 C 0.01064 0.88203 0.2216 0.0
C3151 C 0.0088 0.87333 0.232 0.0
C3152 C 0.06215 0.8724 0.22046 0.0
C3153 C 0.03594 0.87744 0.22134 0.0
C3154 C 0.07507 0.87266 0.21363 0.0
C3155 C 0.0761 0.87894 0.20132 0.0
C3156 C 0.05014 0.87846 0.21498 0.0
C3157 C 0.06395 0.88521 0.19639 0.0
C3158 C 0.02414 0.8841 0.21625 0.0
C3159 C 0.02095 0.86724 0.23719 0.0
N3160 N 0.05147 0.88474 0.20319 0.0
N3161 N 0.03398 0.86934 0.23173 0.0
H3162 H 0.32155 0.77859 0.44264 0.0
H3163 H 0.3788 0.83415 0.43657 0.0
H3164 H 0.36579 0.77465 0.4544 0.0
H3165 H 0.33854 0.83416 0.41516 0.0
H3166 H 0.37346 0.81306 0.44483 0.0
H3167 H 0.3268 0.79973 0.43422 0.0
C3168 C 0.33236 0.78217 0.44346 0.0
C3169 C 0.34325 0.77483 0.44923 0.0
C3170 C 0.36581 0.81768 0.4383 0.0
C3171 C 0.3493 0.79904 0.43968 0.0
C3172 C 0.36888 0.82971 0.43351 0.0
C3173 C 0.35916 0.83598 0.42506 0.0
C3174 C 0.35285 0.81185 0.43476 0.0
C3175 C 0.3463 0.82981 0.42176 0.0
C3176 C 0.33535 0.79422 0.43862 0.0
C3177 C 0.35707 0.77996 0.45 0.0
N3178 N 0.34352 0.8181 0.42663 0.0
N3179 N 0.35969 0.79176 0.44533 0.0
H3180 H 0.4613 0.12392 0.70832 0.0
H3181 H 0.42497 0.06668 0.66868 0.0
H3182 H 0.4759 0.08544 0.71107 0.0
H3183 H 0.41694 0.10596 0.66025 0.0
H3184 H 0.44033 0.07296 0.68741 0.0
H3185 H 0.44144 0.11694 0.69417 0.0
C3186 C 0.46022 0.11398 0.70612 0.0
C3187 C 0.47041 0.10528 0.71073 0.0
C3188 C 0.43506 0.08018 0.68153 0.0
C3189 C 0.44774 0.09724 0.69445 0.0
C3190 C 0.42634 0.07661 0.67079 0.0
C3191 C 0.41974 0.0858 0.66274 0.0
C3192 C 0.43718 0.09303 0.68428 0.0
C3193 C 0.42168 0.09852 0.66619 0.0
C3194 C 0.44891 0.11 0.69799 0.0
C3195 C 0.4684 0.09249 0.70761 0.0
N3196 N 0.4303 0.10175 0.67662 0.0
N3197 N 0.45738 0.08887 0.69955 0.0
H3198 H 0.13713 0.22181 0.95644 0.0
H3199 H 0.1181 0.17004 0.90145 0.0
H3200 H 0.09596 0.21864 0.93695 0.0
H3201 H 0.15883 0.17198 0.92194 0.0
H3202 H 0.10892 0.18614 0.91637 0.0
H3203 H 0.14438 0.2021 0.94591 0.0
C3204 C 0.12955 0.21689 0.95008 0.0
C3205 C 0.11597 0.22196 0.94745 0.0
C3206 C 0.11983 0.18296 0.91771 0.0
C3207 C 0.12424 0.19944 0.93528 0.0
C3208 C 0.12507 0.17367 0.90924 0.0
C3209 C 0.13933 0.16969 0.91034 0.0
C3210 C 0.12892 0.18842 0.92733 0.0
C3211 C 0.14786 0.17493 0.92053 0.0
C3212 C 0.1337 0.20564 0.94405 0.0
C3213 C 0.10657 0.21514 0.93918 0.0
N3214 N 0.14257 0.18411 0.92854 0.0
N3215 N 0.11094 0.20431 0.93328 0.0
H3216 H 0.28668 0.02642 0.13298 0.0
H3217 H 0.31589 0.07204 0.07566 0.0
H3218 H 0.27266 0.02445 0.09187 0.0
H3219 H 0.33501 0.0688 0.1149 0.0
H3220 H 0.29752 0.05692 0.08227 0.0
H3221 H 0.30176 0.04444 0.12737 0.0
C3222 C 0.28665 0.02986 0.1228 0.0
C3223 C 0.2785 0.02384 0.11285 0.0
C3224 C 0.30568 0.0596 0.08945 0.0
C3225 C 0.2958 0.04443 0.10635 0.0
C3226 C 0.31622 0.06819 0.08567 0.0
C3227 C 0.32713 0.07164 0.09469 0.0
C3228 C 0.306 0.05444 0.10236 0.0
C3229 C 0.32678 0.06654 0.10763 0.0
C3230 C 0.2953 0.04013 0.1196 0.0
C3231 C 0.27885 0.02874 0.09984 0.0
N3232 N 0.31646 0.05815 0.11103 0.0
N3233 N 0.28744 0.0387 0.09695 0.0
H3234 H 0.79332 0.46555 0.88619 0.0
H3235 H 0.85016 0.41074 0.87347 0.0
H3236 H 0.80897 0.45531 0.84729 0.0
H3237 H 0.83406 0.41991 0.91249 0.0
H3238 H 0.83455 0.42667 0.86374 0.0
H3239 H 0.80768 0.44864 0.89605 0.0
C3240 C 0.79974 0.45973 0.87971 0.0
C3241 C 0.79997 0.46187 0.86589 0.0
C3242 C 0.83436 0.42518 0.87443 0.0
C3243 C 0.81643 0.44253 0.87712 0.0
C3244 C 0.84322 0.416 0.87999 0.0
C3245 C 0.8434 0.41392 0.89383 0.0
C3246 C 0.82561 0.43242 0.88274 0.0
C3247 C 0.83439 0.42127 0.9018 0.0
C3248 C 0.80794 0.45008 0.88536 0.0
C3249 C 0.80848 0.45403 0.858 0.0
N3250 N 0.82587 0.4302 0.89614 0.0
N3251 N 0.81638 0.44474 0.86373 0.0
H3252 H 0.77897 0.52802 0.12432 0.0
H3253 H 0.83187 0.57919 0.09291 0.0
H3254 H 0.76444 0.56117 0.10322 0.0
H3255 H 0.84588 0.54823 0.1177 0.0
H3256 H 0.8072 0.57201 0.09531 0.0
H3257 H 0.80361 0.53468 0.12089 0.0
C3258 C 0.78095 0.53671 0.11896 0.0
C3259 C 0.76961 0.54407 0.11408 0.0
C3260 C 0.81567 0.56678 0.10021 0.0
C3261 C 0.79785 0.55173 0.11008 0.0
C3262 C 0.82976 0.57081 0.09876 0.0
C3263 C 0.84095 0.5643 0.10513 0.0
C3264 C 0.81272 0.55612 0.10803 0.0
C3265 C 0.83757 0.55362 0.11275 0.0
C3266 C 0.79504 0.54051 0.11701 0.0
C3267 C 0.77285 0.55522 0.10719 0.0
N3268 N 0.82377 0.54987 0.11399 0.0
N3269 N 0.78668 0.55871 0.10539 0.0
H3270 H 0.67135 0.50879 0.3872 0.0
H3271 H 0.69868 0.57994 0.39394 0.0
H3272 H 0.71598 0.51881 0.38463 0.0
H3273 H 0.65645 0.56954 0.38036 0.0
H3274 H 0.70484 0.55744 0.39563 0.0
H3275 H 0.66546 0.531 0.38994 0.0
C3276 C 0.67994 0.51564 0.38733 0.0
C3277 C 0.69418 0.51194 0.38552 0.0
C3278 C 0.6942 0.56012 0.3924 0.0
C3279 C 0.68746 0.5374 0.38871 0.0
C3280 C 0.69068 0.5729 0.39151 0.0
C3281 C 0.67709 0.5765 0.38694 0.0
C3282 C 0.68396 0.55098 0.38891 0.0
C3283 C 0.66708 0.56709 0.38383 0.0
C3284 C 0.67655 0.52832 0.38886 0.0
C3285 C 0.70485 0.52126 0.38586 0.0
N3286 N 0.67071 0.55476 0.38487 0.0
N3287 N 0.70127 0.5336 0.38736 0.0
H3288 H 0.20714 0.96967 0.12834 0.0
H3289 H 0.14974 0.91453 0.12102 0.0
H3290 H 0.1968 0.95112 0.09115 0.0
H3291 H 0.15967 0.93306 0.15831 0.0
H3292 H 0.16411 0.93014 0.10936 0.0
H3293 H 0.18719 0.95871 0.13883 0.0
C3294 C 0.20055 0.96344 0.12232 0.0
C3295 C 0.2038 0.96116 0.10889 0.0
C3296 C 0.16302 0.9309 0.12008 0.0
C3297 C 0.18101 0.9485 0.12088 0.0
C3298 C 0.1547 0.92202 0.12675 0.0
C3299 C 0.1536 0.92237 0.14072 0.0
C3300 C 0.17038 0.94018 0.1274 0.0
C3301 C 0.16047 0.93224 0.14758 0.0
C3302 C 0.18917 0.95716 0.12833 0.0
C3303 C 0.19482 0.95306 0.10157 0.0
N3304 N 0.16869 0.94066 0.14088 0.0
N3305 N 0.18395 0.94691 0.1077 0.0
H3306 H 0.1907 0.97235 0.58329 0.0
H3307 H 0.17131 0.91821 0.63587 0.0
H3308 H 0.19535 0.97639 0.62598 0.0
H3309 H 0.16689 0.9136 0.59324 0.0
H3310 H 0.18019 0.93954 0.63232 0.0
H3311 H 0.18197 0.95084 0.58662 0.0
C3312 C 0.1899 0.96872 0.59336 0.0
C3313 C 0.19376 0.97619 0.60438 0.0
C3314 C 0.17729 0.93388 0.62373 0.0
C3315 C 0.18376 0.95159 0.60825 0.0
C3316 C 0.17229 0.92165 0.62575 0.0
C3317 C 0.16842 0.91406 0.61483 0.0
C3318 C 0.17844 0.93861 0.61069 0.0
C3319 C 0.16964 0.91915 0.60195 0.0
C3320 C 0.18491 0.95644 0.59525 0.0
C3321 C 0.1925 0.97098 0.61719 0.0
N3322 N 0.17457 0.9311 0.60024 0.0
N3323 N 0.18761 0.95902 0.61877 0.0
H3324 H 0.76845 0.46001 0.36393 0.0
H3325 H 0.8404 0.4339 0.39762 0.0
H3326 H 0.77256 0.45015 0.40559 0.0
H3327 H 0.83491 0.43841 0.35507 0.0
H3328 H 0.81622 0.44171 0.40086 0.0
H3329 H 0.79334 0.45383 0.36063 0.0
C3330 C 0.77459 0.45658 0.37239 0.0
C3331 C 0.7684 0.45556 0.38505 0.0
C3332 C 0.8203 0.44104 0.39081 0.0
C3333 C 0.79687 0.4485 0.38134 0.0
C3334 C 0.83416 0.43668 0.38895 0.0
C3335 C 0.83972 0.43553 0.37605 0.0
C3336 C 0.81186 0.44432 0.37968 0.0
C3337 C 0.83101 0.43904 0.36519 0.0
C3338 C 0.78879 0.45304 0.37049 0.0
C3339 C 0.77686 0.45106 0.39564 0.0
N3340 N 0.81751 0.44328 0.36725 0.0
N3341 N 0.79065 0.4477 0.39355 0.0
H3342 H 0.71915 0.57314 0.83879 0.0
H3343 H 0.64697 0.56819 0.88063 0.0
H3344 H 0.71462 0.55044 0.87429 0.0
H3345 H 0.65292 0.59476 0.84852 0.0
H3346 H 0.67162 0.56121 0.87801 0.0
H3347 H 0.69489 0.58106 0.84193 0.0
C3348 C 0.7131 0.56987 0.84728 0.0
C3349 C 0.71892 0.56107 0.85626 0.0
C3350 C 0.66756 0.56858 0.87154 0.0
C3351 C 0.69113 0.57003 0.85985 0.0
C3352 C 0.65345 0.5725 0.87297 0.0
C3353 C 0.64787 0.58203 0.86474 0.0
C3354 C 0.67616 0.57417 0.86176 0.0
C3355 C 0.65683 0.58744 0.85514 0.0
C3356 C 0.69924 0.57439 0.84906 0.0
C3357 C 0.71058 0.55719 0.8671 0.0
N3358 N 0.67052 0.5834 0.85387 0.0
N3359 N 0.69709 0.56164 0.86854 0.0
H3360 H 0.84846 0.70227 0.9573 0.0
H3361 H 0.88987 0.68169 0.8918 0.0
H3362 H 0.89169 0.71348 0.94837 0.0
H3363 H 0.84737 0.66902 0.90151 0.0
H3364 H 0.88894 0.69661 0.91026 0.0
H3365 H 0.84618 0.69336 0.93493 0.0
C3366 C 0.8574 0.70304 0.95058 0.0
C3367 C 0.87038 0.70843 0.95482 0.0
C3368 C 0.87973 0.69069 0.90825 0.0
C3369 C 0.86787 0.69814 0.92921 0.0
C3370 C 0.88021 0.68222 0.89763 0.0
C3371 C 0.86874 0.67396 0.89518 0.0
C3372 C 0.86773 0.69088 0.91656 0.0
C3373 C 0.85657 0.67502 0.9032 0.0
C3374 C 0.8561 0.69792 0.9378 0.0
C3375 C 0.88155 0.70926 0.9456 0.0
N3376 N 0.85645 0.6832 0.91362 0.0
N3377 N 0.8801 0.70401 0.9333 0.0
H3378 H 0.0152 0.15901 0.71741 0.0
H3379 H 0.05614 0.11823 0.66281 0.0
H3380 H 0.02448 0.11941 0.72202 0.0
H3381 H 0.03759 0.15453 0.65409 0.0
H3382 H 0.04634 0.11926 0.68528 0.0
H3383 H 0.0248 0.15822 0.69479 0.0
C3384 C 0.01922 0.15015 0.71366 0.0
C3385 C 0.01903 0.13926 0.72162 0.0
C3386 C 0.0444 0.12701 0.67846 0.0
C3387 C 0.03014 0.13833 0.69581 0.0
C3388 C 0.0501 0.12647 0.66567 0.0
C3389 C 0.04772 0.13634 0.65658 0.0
C3390 C 0.03634 0.13753 0.68227 0.0
C3391 C 0.03959 0.14669 0.66076 0.0
C3392 C 0.02468 0.1497 0.70074 0.0
C3393 C 0.02438 0.12803 0.71624 0.0
N3394 N 0.03424 0.14704 0.67333 0.0
N3395 N 0.02977 0.12787 0.7037 0.0
H3396 H 0.61559 0.30405 0.48109 0.0
H3397 H 0.56669 0.31932 0.41716 0.0
H3398 H 0.57335 0.28836 0.47553 0.0
H3399 H 0.60212 0.34227 0.43044 0.0
H3400 H 0.57139 0.30475 0.4358 0.0
H3401 H 0.61325 0.31474 0.45964 0.0
C3402 C 0.60588 0.30272 0.4753 0.0
C3403 C 0.59456 0.29543 0.48022 0.0
C3404 C 0.57819 0.31292 0.43454 0.0
C3405 C 0.59182 0.30772 0.45564 0.0
C3406 C 0.57555 0.32118 0.42391 0.0
C3407 C 0.58395 0.33204 0.42241 0.0
C3408 C 0.58942 0.3155 0.44354 0.0
C3409 C 0.59528 0.33408 0.4314 0.0
C3410 C 0.60454 0.30887 0.46306 0.0
C3411 C 0.58229 0.29399 0.47218 0.0
N3412 N 0.59766 0.32591 0.44159 0.0
N3413 N 0.58119 0.30017 0.46032 0.0
H3414 H 0.45702 0.84714 0.2191 0.0
H3415 H 0.41543 0.88862 0.16473 0.0
H3416 H 0.45371 0.88765 0.22122 0.0
H3417 H 0.43052 0.85104 0.15663 0.0
H3418 H 0.42666 0.8876 0.18683 0.0
H3419 H 0.44474 0.84764 0.19741 0.0
C3420 C 0.45368 0.85613 0.21502 0.0
C3421 C 0.45643 0.86738 0.22196 0.0
C3422 C 0.42749 0.87957 0.18023 0.0
C3423 C 0.4423 0.86799 0.19724 0.0
C3424 C 0.421 0.8801 0.16766 0.0
C3425 C 0.42205 0.86989 0.15885 0.0
C3426 C 0.43498 0.86869 0.18409 0.0
C3427 C 0.42956 0.85916 0.16309 0.0
C3428 C 0.44672 0.8564 0.20264 0.0
C3429 C 0.45188 0.87876 0.2162 0.0
N3430 N 0.43571 0.85882 0.17544 0.0
N3431 N 0.44499 0.87877 0.2042 0.0
H3432 H 0.90672 0.28588 0.52264 0.0
H3433 H 0.87409 0.33477 0.5745 0.0
H3434 H 0.86224 0.29653 0.52327 0.0
H3435 H 0.91882 0.32523 0.5727 0.0
H3436 H 0.86888 0.31822 0.55822 0.0
H3437 H 0.91059 0.29753 0.54336 0.0
C3438 C 0.89771 0.29051 0.52723 0.0
C3439 C 0.88418 0.29039 0.52108 0.0
C3440 C 0.87982 0.31965 0.56149 0.0
C3441 C 0.88858 0.30386 0.54476 0.0
C3442 C 0.88279 0.32905 0.57085 0.0
C3443 C 0.89694 0.3315 0.57485 0.0
C3444 C 0.89107 0.31265 0.55606 0.0
C3445 C 0.90779 0.32385 0.56969 0.0
C3446 C 0.89995 0.2972 0.53906 0.0
C3447 C 0.87289 0.29648 0.52757 0.0
N3448 N 0.90465 0.31486 0.56048 0.0
N3449 N 0.87539 0.3031 0.53896 0.0
H3450 H 0.4319 0.13292 0.24173 0.0
H3451 H 0.44814 0.13854 0.31949 0.0
H3452 H 0.47444 0.13491 0.25861 0.0
H3453 H 0.40616 0.14493 0.30254 0.0
H3454 H 0.45793 0.13813 0.29713 0.0
H3455 H 0.42216 0.13808 0.26365 0.0
C3456 C 0.4392 0.13456 0.25 0.0
C3457 C 0.45401 0.13335 0.24835 0.0
C3458 C 0.44659 0.13975 0.29828 0.0
C3459 C 0.44294 0.13916 0.27345 0.0
C3460 C 0.44097 0.14009 0.3111 0.0
C3461 C 0.42624 0.14173 0.31299 0.0
C3462 C 0.43744 0.14088 0.28717 0.0
C3463 C 0.41753 0.14339 0.30161 0.0
C3464 C 0.43363 0.13752 0.26251 0.0
C3465 C 0.46296 0.13565 0.25941 0.0
N3466 N 0.42324 0.1428 0.28919 0.0
N3467 N 0.45727 0.1383 0.2715 0.0
H3468 H 0.59631 0.71822 0.02394 0.0
H3469 H 0.63148 0.66634 0.07186 0.0
H3470 H 0.64026 0.7063 0.02137 0.0
H3471 H 0.58676 0.67616 0.07194 0.0
H3472 H 0.63575 0.68311 0.05561 0.0
H3473 H 0.59356 0.7052 0.04386 0.0
C3474 C 0.60544 0.71298 0.02765 0.0
C3475 C 0.61849 0.71324 0.02088 0.0
C3476 C 0.62503 0.68168 0.0593 0.0
C3477 C 0.61538 0.69823 0.04365 0.0
C3478 C 0.62257 0.67207 0.06854 0.0
C3479 C 0.60871 0.66974 0.07319 0.0
C3480 C 0.61353 0.689 0.05464 0.0
C3481 C 0.59764 0.67764 0.06873 0.0
C3482 C 0.60385 0.70552 0.03902 0.0
C3483 C 0.62996 0.7063 0.0262 0.0
N3484 N 0.60027 0.68683 0.05962 0.0
N3485 N 0.6281 0.69899 0.03719 0.0
H3486 H 0.01025 0.83708 0.76995 0.0
H3487 H 0.03191 0.88064 0.83216 0.0
H3488 H 0.00393 0.87735 0.77109 0.0
H3489 H 0.04043 0.84071 0.83063 0.0
H3490 H 0.02057 0.87933 0.81022 0.0
H3491 H 0.02025 0.83796 0.79256 0.0
C3492 C 0.01089 0.8461 0.77497 0.0
C3493 C 0.00627 0.85717 0.76859 0.0
C3494 C 0.02488 0.87084 0.81467 0.0
C3495 C 0.01776 0.85823 0.79446 0.0
C3496 C 0.03129 0.87156 0.82726 0.0
C3497 C 0.03709 0.86075 0.83329 0.0
C3498 C 0.02423 0.85922 0.808 0.0
C3499 C 0.03621 0.8493 0.82632 0.0
C3500 C 0.01664 0.84659 0.78788 0.0
C3501 C 0.00737 0.86858 0.77559 0.0
N3502 N 0.0299 0.84884 0.81405 0.0
N3503 N 0.01303 0.86882 0.78813 0.0
H3504 H 0.94116 0.88312 0.72405 0.0
H3505 H 0.88102 0.85616 0.67439 0.0
H3506 H 0.94923 0.85663 0.69235 0.0
H3507 H 0.87137 0.88005 0.70792 0.0
H3508 H 0.90613 0.85645 0.68095 0.0
H3509 H 0.91561 0.88218 0.7186 0.0
C3510 C 0.93757 0.87706 0.716 0.0
C3511 C 0.94737 0.86998 0.70862 0.0
C3512 C 0.89855 0.86163 0.68691 0.0
C3513 C 0.91819 0.86891 0.7023 0.0
C3514 C 0.88421 0.86154 0.6831 0.0
C3515 C 0.87409 0.86818 0.69055 0.0
C3516 C 0.9029 0.86844 0.69825 0.0
C3517 C 0.87881 0.87476 0.70192 0.0
C3518 C 0.92298 0.87654 0.71289 0.0
C3519 C 0.9421 0.86229 0.6983 0.0
N3520 N 0.8929 0.87478 0.7054 0.0
N3521 N 0.92791 0.862 0.69542 0.0
H3522 H 0.82913 0.23877 0.45148 0.0
H3523 H 0.88879 0.19173 0.42463 0.0
H3524 H 0.87422 0.24343 0.45949 0.0
H3525 H 0.84401 0.18209 0.42534 0.0
H3526 H 0.88347 0.21144 0.43611 0.0
H3527 H 0.83416 0.21857 0.44074 0.0
C3528 C 0.84008 0.23553 0.45102 0.0
C3529 C 0.85128 0.2428 0.45638 0.0
C3530 C 0.8748 0.20501 0.43379 0.0
C3531 C 0.8571 0.21977 0.44403 0.0
C3532 C 0.87782 0.1938 0.42715 0.0
C3533 C 0.86681 0.1853 0.42399 0.0
C3534 C 0.86064 0.20781 0.43719 0.0
C3535 C 0.85281 0.18837 0.42768 0.0
C3536 C 0.84293 0.22399 0.44491 0.0
C3537 C 0.86525 0.23813 0.45552 0.0
N3538 N 0.85011 0.19942 0.43403 0.0
N3539 N 0.86777 0.22696 0.44939 0.0
H3540 H 0.54065 0.12236 0.20226 0.0
H3541 H 0.62157 0.11031 0.18063 0.0
H3542 H 0.5575 0.08546 0.1936 0.0
H3543 H 0.6021 0.14712 0.18119 0.0
H3544 H 0.59878 0.10104 0.18735 0.0
H3545 H 0.56368 0.13161 0.19638 0.0
C3546 C 0.54919 0.1162 0.19914 0.0
C3547 C 0.54713 0.10311 0.1984 0.0
C3548 C 0.5995 0.11114 0.18601 0.0
C3549 C 0.57355 0.11364 0.19171 0.0
C3550 C 0.61252 0.11645 0.18226 0.0
C3551 C 0.61371 0.1295 0.18033 0.0
C3552 C 0.58761 0.11896 0.18794 0.0
C3553 C 0.6016 0.13699 0.18243 0.0
C3554 C 0.56233 0.12149 0.19576 0.0
C3555 C 0.5586 0.09559 0.19428 0.0
N3556 N 0.58906 0.13162 0.18615 0.0
N3557 N 0.57132 0.10096 0.19112 0.0
H3558 H 0.65772 0.77068 0.9489 0.0
H3559 H 0.6453 0.7998 0.87596 0.0
H3560 H 0.62808 0.75561 0.91973 0.0
H3561 H 0.67223 0.81737 0.9058 0.0
H3562 H 0.63913 0.78342 0.892 0.0
H3563 H 0.66321 0.78795 0.93351 0.0
C3564 C 0.65231 0.77104 0.93931 0.0
C3565 C 0.64247 0.76166 0.93558 0.0
C3566 C 0.64638 0.79086 0.89507 0.0
C3567 C 0.64876 0.78131 0.91792 0.0
C3568 C 0.64999 0.80017 0.88588 0.0
C3569 C 0.65936 0.80993 0.88953 0.0
C3570 C 0.65221 0.79125 0.90804 0.0
C3571 C 0.66489 0.81005 0.9026 0.0
C3572 C 0.65546 0.78089 0.93052 0.0
C3573 C 0.63577 0.7626 0.92303 0.0
N3574 N 0.66128 0.80082 0.91138 0.0
N3575 N 0.63909 0.7722 0.91465 0.0
H3576 H 0.9535 0.1439 0.78134 0.0
H3577 H 0.89622 0.09517 0.80988 0.0
H3578 H 0.95792 0.10349 0.77879 0.0
H3579 H 0.89332 0.1355 0.81447 0.0
H3580 H 0.91674 0.09812 0.79528 0.0
H3581 H 0.92957 0.14105 0.79033 0.0
C3582 C 0.94939 0.13442 0.78253 0.0
C3583 C 0.95782 0.12392 0.77947 0.0
C3584 C 0.91152 0.10633 0.79935 0.0
C3585 C 0.93041 0.12058 0.78985 0.0
C3586 C 0.89972 0.10466 0.80761 0.0
C3587 C 0.89314 0.1151 0.81353 0.0
C3588 C 0.91677 0.11854 0.797 0.0
C3589 C 0.89824 0.12717 0.81033 0.0
C3590 C 0.93571 0.1328 0.78768 0.0
C3591 C 0.95185 0.11187 0.78112 0.0
N3592 N 0.90983 0.12855 0.80239 0.0
N3593 N 0.93858 0.11053 0.78633 0.0
H3594 H 0.64194 0.23578 0.53357 0.0
H3595 H 0.61774 0.18851 0.59112 0.0
H3596 H 0.59855 0.23272 0.54747 0.0
H3597 H 0.65937 0.1873 0.57305 0.0
H3598 H 0.61042 0.20445 0.57485 0.0
H3599 H 0.64841 0.21761 0.54736 0.0
C3600 C 0.63374 0.23121 0.53942 0.0
C3601 C 0.6197 0.23583 0.53943 0.0
C3602 C 0.62113 0.20065 0.57437 0.0
C3603 C 0.62707 0.21512 0.55534 0.0
C3604 C 0.62534 0.19161 0.58371 0.0
C3605 C 0.63922 0.18665 0.58349 0.0
C3606 C 0.6309 0.20486 0.56478 0.0
C3607 C 0.64855 0.19084 0.57353 0.0
C3608 C 0.63745 0.22084 0.54729 0.0
C3609 C 0.60952 0.22951 0.54717 0.0
N3610 N 0.64426 0.19978 0.56464 0.0
N3611 N 0.61344 0.21956 0.55491 0.0
H3612 H 0.54153 0.87858 0.2644 0.0
H3613 H 0.59244 0.82646 0.29687 0.0
H3614 H 0.52665 0.84272 0.27925 0.0
H3615 H 0.60834 0.86039 0.27842 0.0
H3616 H 0.56839 0.83177 0.28916 0.0
H3617 H 0.56617 0.87159 0.26792 0.0
C3618 C 0.54343 0.86918 0.26826 0.0
C3619 C 0.53199 0.86127 0.27167 0.0
C3620 C 0.57713 0.83803 0.28669 0.0
C3621 C 0.56015 0.85326 0.27581 0.0
C3622 C 0.59085 0.83503 0.29115 0.0
C3623 C 0.60237 0.84306 0.28839 0.0
C3624 C 0.57484 0.84923 0.27951 0.0
C3625 C 0.59976 0.85392 0.28074 0.0
C3626 C 0.55751 0.86521 0.27027 0.0
C3627 C 0.53511 0.84918 0.27657 0.0
N3628 N 0.58623 0.85676 0.27668 0.0
N3629 N 0.54888 0.84561 0.27862 0.0
H3630 H 0.84567 0.75981 0.02853 0.0
H3631 H 0.89378 0.80438 0.0747 0.0
H3632 H 0.89165 0.75725 0.03063 0.0
H3633 H 0.85141 0.81482 0.06158 0.0
H3634 H 0.89233 0.78555 0.06069 0.0
H3635 H 0.84677 0.77869 0.04255 0.0
C3636 C 0.85599 0.76323 0.03192 0.0
C3637 C 0.86859 0.75697 0.02839 0.0
C3638 C 0.88335 0.79196 0.06087 0.0
C3639 C 0.8699 0.77843 0.04453 0.0
C3640 C 0.88413 0.80264 0.06894 0.0
C3641 C 0.87268 0.81114 0.0693 0.0
C3642 C 0.87098 0.78967 0.05323 0.0
C3643 C 0.8605 0.80853 0.0615 0.0
C3644 C 0.85661 0.77401 0.03989 0.0
C3645 C 0.88168 0.76181 0.03306 0.0
N3646 N 0.85993 0.79798 0.05382 0.0
N3647 N 0.88198 0.77221 0.04095 0.0
H3648 H 0.70536 0.95885 0.90704 0.0
H3649 H 0.65851 0.89756 0.8903 0.0
H3650 H 0.66597 0.94949 0.92683 0.0
H3651 H 0.69756 0.90696 0.86996 0.0
H3652 H 0.66096 0.91672 0.90356 0.0
H3653 H 0.70267 0.94 0.89323 0.0
C3654 C 0.69614 0.95284 0.90848 0.0
C3655 C 0.68588 0.95575 0.91812 0.0
C3656 C 0.66899 0.91461 0.89618 0.0
C3657 C 0.68273 0.93416 0.90235 0.0
C3658 C 0.66755 0.9037 0.88854 0.0
C3659 C 0.67782 0.90065 0.87896 0.0
C3660 C 0.68081 0.92256 0.89427 0.0
C3661 C 0.68946 0.90886 0.87732 0.0
C3662 C 0.69461 0.94208 0.90059 0.0
C3663 C 0.67414 0.94762 0.91953 0.0
N3664 N 0.69063 0.91944 0.88489 0.0
N3665 N 0.6729 0.9372 0.91175 0.0
H3666 H 0.16469 0.54437 0.05572 0.0
H3667 H 0.19117 0.58967 0.11493 0.0
H3668 H 0.20071 0.53599 0.08142 0.0
H3669 H 0.15611 0.59843 0.08824 0.0
H3670 H 0.19449 0.56971 0.1032 0.0
H3671 H 0.16108 0.564 0.0679 0.0
C3672 C 0.17183 0.54665 0.06394 0.0
C3673 C 0.18304 0.53853 0.06754 0.0
C3674 C 0.18608 0.57601 0.09991 0.0
C3675 C 0.17897 0.56102 0.08154 0.0
C3676 C 0.18413 0.58738 0.10664 0.0
C3677 C 0.17336 0.59576 0.10255 0.0
C3678 C 0.17717 0.57296 0.08901 0.0
C3679 C 0.16468 0.59235 0.09163 0.0
C3680 C 0.16977 0.55787 0.07089 0.0
C3681 C 0.19195 0.54197 0.07828 0.0
N3682 N 0.16676 0.58122 0.08526 0.0
N3683 N 0.18973 0.55296 0.0849 0.0
H3684 H 0.22864 0.44575 0.88204 0.0
H3685 H 0.18798 0.41195 0.82119 0.0
H3686 H 0.22842 0.46038 0.84182 0.0
H3687 H 0.19345 0.39552 0.8603 0.0
H3688 H 0.19995 0.43111 0.82915 0.0
H3689 H 0.21276 0.4288 0.87484 0.0
C3690 C 0.22514 0.44549 0.87171 0.0
C3691 C 0.23001 0.45444 0.86249 0.0
C3692 C 0.19846 0.42334 0.836 0.0
C3693 C 0.21187 0.43493 0.85414 0.0
C3694 C 0.19158 0.41242 0.83148 0.0
C3695 C 0.18984 0.40208 0.84007 0.0
C3696 C 0.20356 0.42393 0.84921 0.0
C3697 C 0.1948 0.40318 0.85328 0.0
C3698 C 0.21609 0.43576 0.8676 0.0
C3699 C 0.22501 0.45364 0.84926 0.0
N3700 N 0.20146 0.41388 0.85742 0.0
N3701 N 0.2163 0.44398 0.84545 0.0
H3702 H 0.30122 0.45948 0.60269 0.0
H3703 H 0.32757 0.3929 0.57477 0.0
H3704 H 0.29609 0.44818 0.56155 0.0
H3705 H 0.34258 0.409 0.61185 0.0
H3706 H 0.31286 0.41167 0.57097 0.0
H3707 H 0.31341 0.43959 0.60735 0.0
C3708 C 0.30258 0.45279 0.59465 0.0
C3709 C 0.2977 0.45553 0.58169 0.0
C3710 C 0.31933 0.41106 0.57996 0.0
C3711 C 0.3116 0.43274 0.58698 0.0
C3712 C 0.32764 0.40033 0.58217 0.0
C3713 C 0.33635 0.39945 0.5936 0.0
C3714 C 0.31964 0.42091 0.58932 0.0
C3715 C 0.33615 0.40939 0.60283 0.0
C3716 C 0.30958 0.44146 0.59731 0.0
C3717 C 0.29976 0.4465 0.57166 0.0
N3718 N 0.32793 0.41971 0.60048 0.0
N3719 N 0.30656 0.4355 0.57452 0.0
H3720 H 0.76539 0.01506 0.88751 0.0
H3721 H 0.78703 0.07771 0.84794 0.0
H3722 H 0.73475 0.04284 0.87427 0.0
H3723 H 0.81706 0.05376 0.86882 0.0
H3724 H 0.76775 0.06336 0.85427 0.0
H3725 H 0.7844 0.02742 0.87732 0.0
C3726 C 0.76263 0.02371 0.88237 0.0
C3727 C 0.74846 0.02798 0.88187 0.0
C3728 C 0.77859 0.06121 0.85733 0.0
C3729 C 0.77022 0.0422 0.87017 0.0
C3730 C 0.78961 0.06942 0.85377 0.0
C3731 C 0.80374 0.06703 0.85791 0.0
C3732 C 0.78171 0.0505 0.86506 0.0
C3733 C 0.80643 0.05597 0.86523 0.0
C3734 C 0.77351 0.03078 0.87657 0.0
C3735 C 0.74554 0.03924 0.875 0.0
N3736 N 0.79552 0.04818 0.86862 0.0
N3737 N 0.75634 0.046 0.86948 0.0
H3738 H 0.79801 0.04205 0.36401 0.0
H3739 H 0.8217 0.10394 0.40417 0.0
H3740 H 0.77962 0.05277 0.40167 0.0
H3741 H 0.84716 0.08679 0.37349 0.0
H3742 H 0.80389 0.08714 0.40132 0.0
H3743 H 0.81385 0.06035 0.36532 0.0
C3744 C 0.79723 0.0483 0.37252 0.0
C3745 C 0.78753 0.04583 0.38279 0.0
C3746 C 0.81336 0.08709 0.39519 0.0
C3747 C 0.80562 0.0668 0.38433 0.0
C3748 C 0.82346 0.0967 0.39675 0.0
C3749 C 0.83594 0.09669 0.38911 0.0
C3750 C 0.81569 0.07751 0.38581 0.0
C3751 C 0.83776 0.08705 0.37971 0.0
C3752 C 0.80631 0.05872 0.37327 0.0
C3753 C 0.78699 0.05427 0.39357 0.0
N3754 N 0.82775 0.07785 0.37832 0.0
N3755 N 0.79593 0.06438 0.39406 0.0
H3756 H 0.23353 0.54816 0.62688 0.0
H3757 H 0.22476 0.62225 0.63943 0.0
H3758 H 0.26068 0.5763 0.60898 0.0
H3759 H 0.19521 0.59412 0.65371 0.0
H3760 H 0.23919 0.60551 0.62966 0.0
H3761 H 0.22057 0.56483 0.63828 0.0
C3762 C 0.2368 0.55784 0.62537 0.0
C3763 C 0.24818 0.56083 0.6169 0.0
C3764 C 0.22958 0.603 0.63499 0.0
C3765 C 0.23335 0.58001 0.62996 0.0
C3766 C 0.2213 0.61256 0.64053 0.0
C3767 C 0.2087 0.60961 0.64737 0.0
C3768 C 0.22525 0.59039 0.63629 0.0
C3769 C 0.20491 0.59686 0.64868 0.0
C3770 C 0.22938 0.56737 0.63189 0.0
C3771 C 0.25195 0.57356 0.61537 0.0
N3772 N 0.21311 0.58774 0.64314 0.0
N3773 N 0.24453 0.58269 0.62181 0.0
H3774 H 0.21744 0.44679 0.11968 0.0
H3775 H 0.29262 0.41947 0.14484 0.0
H3776 H 0.25814 0.46321 0.10946 0.0
H3777 H 0.25191 0.40308 0.15504 0.0
H3778 H 0.28013 0.43649 0.13323 0.0
H3779 H 0.22982 0.43155 0.1339 0.0
C3780 C 0.22898 0.44724 0.12047 0.0
C3781 C 0.23677 0.45625 0.11329 0.0
C3782 C 0.27392 0.42921 0.13807 0.0
C3783 C 0.25102 0.43879 0.12955 0.0
C3784 C 0.28105 0.41953 0.14479 0.0
C3785 C 0.27331 0.40978 0.15088 0.0
C3786 C 0.25893 0.42916 0.1374 0.0
C3787 C 0.25832 0.41028 0.1503 0.0
C3788 C 0.23604 0.43853 0.1286 0.0
C3789 C 0.2517 0.4564 0.11476 0.0
N3790 N 0.25163 0.41976 0.14364 0.0
N3791 N 0.25834 0.44776 0.12266 0.0
H3792 H 0.62106 0.77701 0.51449 0.0
H3793 H 0.61013 0.84443 0.54771 0.0
H3794 H 0.60686 0.80984 0.49265 0.0
H3795 H 0.61536 0.81046 0.57089 0.0
H3796 H 0.60842 0.8317 0.52745 0.0
H3797 H 0.61851 0.78878 0.53534 0.0
C3798 C 0.6173 0.78665 0.51408 0.0
C3799 C 0.61429 0.79248 0.50179 0.0
C3800 C 0.6098 0.827 0.53697 0.0
C3801 C 0.61145 0.80601 0.52557 0.0
C3802 C 0.61083 0.83427 0.54852 0.0
C3803 C 0.61297 0.82848 0.56095 0.0
C3804 C 0.61112 0.81384 0.53782 0.0
C3805 C 0.61365 0.81528 0.56148 0.0
C3806 C 0.61583 0.79336 0.52598 0.0
C3807 C 0.60939 0.80497 0.50187 0.0
N3808 N 0.61289 0.80839 0.55005 0.0
N3809 N 0.60826 0.81134 0.51355 0.0
H3810 H 0.44556 0.39501 0.79181 0.0
H3811 H 0.43176 0.35903 0.86087 0.0
H3812 H 0.45115 0.35491 0.79683 0.0
H3813 H 0.42905 0.39937 0.85598 0.0
H3814 H 0.43826 0.35714 0.83734 0.0
H3815 H 0.43888 0.39662 0.81522 0.0
C3816 C 0.44536 0.38653 0.79783 0.0
C3817 C 0.44894 0.37481 0.79234 0.0
C3818 C 0.43627 0.36641 0.84143 0.0
C3819 C 0.44129 0.37658 0.81922 0.0
C3820 C 0.4325 0.36748 0.85485 0.0
C3821 C 0.42991 0.37938 0.86043 0.0
C3822 C 0.43738 0.3773 0.83352 0.0
C3823 C 0.43117 0.39002 0.85218 0.0
C3824 C 0.44157 0.38746 0.81122 0.0
C3825 C 0.44849 0.36415 0.80064 0.0
N3826 N 0.43478 0.38872 0.83916 0.0
N3827 N 0.44474 0.36529 0.81366 0.0
H3828 H 0.87331 0.19936 -0.00054 0.0
H3829 H 0.85925 0.14995 0.05799 0.0
H3830 H 0.83259 0.19469 0.01876 0.0
H3831 H 0.90005 0.15491 0.03897 0.0
H3832 H 0.85003 0.16804 0.04555 0.0
H3833 H 0.88406 0.18509 0.0158 0.0
C3834 C 0.86665 0.19547 0.00724 0.0
C3835 C 0.85197 0.1981 0.00763 0.0
C3836 C 0.86104 0.16526 0.04418 0.0
C3837 C 0.86421 0.18164 0.0263 0.0
C3838 C 0.86629 0.15489 0.05124 0.0
C3839 C 0.88039 0.15082 0.0494 0.0
C3840 C 0.86993 0.17158 0.03515 0.0
C3841 C 0.88912 0.15773 0.04073 0.0
C3842 C 0.8728 0.18729 0.01656 0.0
C3843 C 0.84392 0.19285 0.018 0.0
N3844 N 0.8837 0.16769 0.03382 0.0
N3845 N 0.85011 0.18475 0.02683 0.0
H3846 H 0.01603 0.63363 0.2742 0.0
H3847 H 0.06984 0.6129 0.33229 0.0
H3848 H 0.03393 0.59631 0.27785 0.0
H3849 H 0.05235 0.65035 0.32854 0.0
H3850 H 0.05397 0.60584 0.31436 0.0
H3851 H 0.02648 0.63907 0.29586 0.0
C3852 C 0.02201 0.62652 0.27963 0.0
C3853 C 0.02426 0.61454 0.27413 0.0
C3854 C 0.05348 0.61557 0.31755 0.0
C3855 C 0.03635 0.62075 0.29889 0.0
C3856 C 0.06248 0.6196 0.32788 0.0
C3857 C 0.06254 0.63228 0.33186 0.0
C3858 C 0.04452 0.62429 0.31109 0.0
C3859 C 0.05287 0.64055 0.32562 0.0
C3860 C 0.02799 0.62965 0.292 0.0
C3861 C 0.03202 0.6057 0.28166 0.0
N3862 N 0.04436 0.63644 0.31546 0.0
N3863 N 0.03792 0.60903 0.29359 0.0
H3864 H 0.60472 0.18551 0.98698 0.0
H3865 H 0.61628 0.18243 0.90805 0.0
H3866 H 0.62217 0.2164 0.96424 0.0
H3867 H 0.61119 0.14975 0.93318 0.0
H3868 H 0.61372 0.19596 0.92773 0.0
H3869 H 0.60219 0.17335 0.96645 0.0
C3870 C 0.60788 0.1898 0.97766 0.0
C3871 C 0.61383 0.20194 0.97736 0.0
C3872 C 0.61304 0.18583 0.9289 0.0
C3873 C 0.61097 0.18803 0.95381 0.0
C3874 C 0.61442 0.17813 0.91768 0.0
C3875 C 0.61405 0.16498 0.91905 0.0
C3876 C 0.61113 0.18032 0.9415 0.0
C3877 C 0.61171 0.15986 0.93175 0.0
C3878 C 0.60647 0.18282 0.96594 0.0
C3879 C 0.61766 0.20702 0.96494 0.0
N3880 N 0.61038 0.16753 0.94249 0.0
N3881 N 0.61625 0.20001 0.95366 0.0
H3882 H 0.0517 0.39982 0.21029 0.0
H3883 H 0.082 0.34686 0.16177 0.0
H3884 H 0.04467 0.36002 0.21635 0.0
H3885 H 0.08344 0.38663 0.15286 0.0
H3886 H 0.06749 0.35141 0.18135 0.0
H3887 H 0.06241 0.39517 0.18872 0.0
C3888 C 0.0523 0.39011 0.20704 0.0
C3889 C 0.04737 0.38028 0.21518 0.0
C3890 C 0.07086 0.35913 0.17504 0.0
C3891 C 0.05975 0.37488 0.19054 0.0
C3892 C 0.0792 0.35654 0.1639 0.0
C3893 C 0.084 0.36639 0.15571 0.0
C3894 C 0.06742 0.37168 0.17811 0.0
C3895 C 0.07989 0.37874 0.15884 0.0
C3896 C 0.05841 0.38746 0.19471 0.0
C3897 C 0.04837 0.36788 0.21042 0.0
N3898 N 0.07196 0.38104 0.16985 0.0
N3899 N 0.05457 0.36553 0.19847 0.0
H3900 H 0.87181 0.7938 0.49543 0.0
H3901 H 0.84374 0.8467 0.44487 0.0
H3902 H 0.82714 0.80075 0.48734 0.0
H3903 H 0.88804 0.83595 0.44829 0.0
H3904 H 0.83746 0.82973 0.46025 0.0
H3905 H 0.87803 0.80898 0.47804 0.0
C3906 C 0.86331 0.79847 0.48996 0.0
C3907 C 0.84893 0.79604 0.49289 0.0
C3908 C 0.84855 0.83101 0.45758 0.0
C3909 C 0.85598 0.81348 0.47302 0.0
C3910 C 0.85214 0.84073 0.44884 0.0
C3911 C 0.86644 0.84278 0.44535 0.0
C3912 C 0.85934 0.82333 0.46299 0.0
C3913 C 0.87687 0.83465 0.45064 0.0
C3914 C 0.86687 0.80712 0.48001 0.0
C3915 C 0.83837 0.80234 0.48545 0.0
N3916 N 0.87313 0.82535 0.45929 0.0
N3917 N 0.8421 0.81083 0.47592 0.0
H3918 H 0.41117 0.62951 0.70439 0.0
H3919 H 0.44456 0.62583 0.63123 0.0
H3920 H 0.45659 0.62895 0.69729 0.0
H3921 H 0.39945 0.62332 0.63946 0.0
H3922 H 0.44934 0.62778 0.6552 0.0
H3923 H 0.40685 0.6282 0.68045 0.0
C3924 C 0.42026 0.62913 0.69779 0.0
C3925 C 0.43427 0.62931 0.70288 0.0
C3926 C 0.4384 0.62683 0.65174 0.0
C3927 C 0.42937 0.6278 0.67533 0.0
C3928 C 0.43566 0.62566 0.63806 0.0
C3929 C 0.42157 0.62443 0.63329 0.0
C3930 C 0.42697 0.62676 0.66072 0.0
C3931 C 0.41046 0.62445 0.64262 0.0
C3932 C 0.41777 0.62837 0.68409 0.0
C3933 C 0.44561 0.62881 0.69381 0.0
N3934 N 0.41341 0.62558 0.65585 0.0
N3935 N 0.44291 0.62807 0.68046 0.0
H3936 H 0.515 0.65196 0.77639 0.0
H3937 H 0.54154 0.59515 0.82228 0.0
H3938 H 0.49902 0.61393 0.77263 0.0
H3939 H 0.56261 0.63132 0.82125 0.0
H3940 H 0.52647 0.60166 0.80347 0.0
H3941 H 0.53329 0.64442 0.79201 0.0
C3942 C 0.51544 0.642 0.77872 0.0
C3943 C 0.50539 0.63358 0.77327 0.0
C3944 C 0.53447 0.60814 0.80727 0.0
C3945 C 0.52619 0.62491 0.79127 0.0
C3946 C 0.54302 0.60445 0.81805 0.0
C3947 C 0.55326 0.61274 0.82339 0.0
C3948 C 0.53605 0.62028 0.80186 0.0
C3949 C 0.55488 0.62462 0.8174 0.0
C3950 C 0.52588 0.6377 0.78765 0.0
C3951 C 0.50651 0.62077 0.77662 0.0
N3952 N 0.54626 0.62808 0.80704 0.0
N3953 N 0.51661 0.61686 0.78552 0.0
H3954 H 0.63015 0.27008 0.02213 0.0
H3955 H 0.59502 0.31988 0.07161 0.0
H3956 H 0.58594 0.26918 0.034 0.0
H3957 H 0.64044 0.31565 0.06603 0.0
H3958 H 0.59077 0.30459 0.05377 0.0
H3959 H 0.63313 0.29007 0.0339 0.0
C3960 C 0.62099 0.27419 0.02701 0.0
C3961 C 0.60783 0.26785 0.02726 0.0
C3962 C 0.60166 0.30715 0.05634 0.0
C3963 C 0.61121 0.29068 0.04082 0.0
C3964 C 0.6041 0.31584 0.06655 0.0
C3965 C 0.61812 0.31891 0.0705 0.0
C3966 C 0.61331 0.30148 0.05001 0.0
C3967 C 0.62945 0.31362 0.06334 0.0
C3968 C 0.62273 0.28559 0.03377 0.0
C3969 C 0.59633 0.27366 0.03368 0.0
N3970 N 0.6268 0.30505 0.05356 0.0
N3971 N 0.59833 0.28468 0.04034 0.0
H3972 H 0.9719 0.35305 0.28456 0.0
H3973 H 0.93124 0.41302 0.3137 0.0
H3974 H 0.98401 0.3915 0.27616 0.0
H3975 H 0.92272 0.37461 0.32548 0.0
H3976 H 0.94777 0.40524 0.29686 0.0
H3977 H 0.95093 0.36075 0.29629 0.0
C3978 C 0.97006 0.36311 0.28503 0.0
C3979 C 0.97986 0.37165 0.27954 0.0
C3980 C 0.94214 0.39852 0.30303 0.0
C3981 C 0.95589 0.38053 0.29306 0.0
C3982 C 0.93274 0.40295 0.31268 0.0
C3983 C 0.92568 0.39447 0.32115 0.0
C3984 C 0.94454 0.38551 0.30183 0.0
C3985 C 0.92783 0.38151 0.31916 0.0
C3986 C 0.95808 0.3675 0.29176 0.0
C3987 C 0.97683 0.38458 0.28036 0.0
N3988 N 0.93716 0.37745 0.30981 0.0
N3989 N 0.9652 0.38863 0.28714 0.0
H3990 H 0.87285 0.72189 0.53746 0.0
H3991 H 0.84314 0.65905 0.57188 0.0
H3992 H 0.83158 0.71912 0.55613 0.0
H3993 H 0.8851 0.66214 0.55469 0.0
H3994 H 0.83806 0.68061 0.56474 0.0
H3995 H 0.87683 0.69955 0.54212 0.0
C3996 C 0.86457 0.71656 0.54243 0.0
C3997 C 0.8519 0.72241 0.54649 0.0
C3998 C 0.84837 0.67656 0.56249 0.0
C3999 C 0.85642 0.69685 0.55194 0.0
C4000 C 0.85125 0.66423 0.56652 0.0
C4001 C 0.86459 0.65879 0.56394 0.0
C4002 C 0.85889 0.68353 0.55581 0.0
C4003 C 0.87476 0.66602 0.55709 0.0
C4004 C 0.86687 0.70381 0.54513 0.0
C4005 C 0.84154 0.71503 0.55288 0.0
N4006 N 0.87171 0.67801 0.55328 0.0
N4007 N 0.84407 0.70266 0.55547 0.0
H4008 H 0.51752 0.35552 0.74326 0.0
H4009 H 0.56091 0.38299 0.68147 0.0
H4010 H 0.49867 0.37846 0.71218 0.0
H4011 H 0.58107 0.3641 0.71484 0.0
H4012 H 0.53825 0.38233 0.69322 0.0
H4013 H 0.54108 0.35937 0.73368 0.0
C4014 C 0.51834 0.36146 0.7345 0.0
C4015 C 0.50608 0.36659 0.72845 0.0
C4016 C 0.54765 0.37841 0.69803 0.0
C4017 C 0.53299 0.37095 0.71739 0.0
C4018 C 0.56064 0.37885 0.69134 0.0
C4019 C 0.57295 0.37353 0.69712 0.0
C4020 C 0.54688 0.37253 0.71056 0.0
C4021 C 0.57182 0.36811 0.70987 0.0
C4022 C 0.5318 0.36364 0.72903 0.0
C4023 C 0.5078 0.37424 0.71714 0.0
N4024 N 0.55901 0.36767 0.71612 0.0
N4025 N 0.52097 0.3761 0.71192 0.0
H4026 H 0.83011 0.27321 0.96049 0.0
H4027 H 0.89212 0.3181 0.93328 0.0
H4028 H 0.87388 0.26136 0.95598 0.0
H4029 H 0.84988 0.33138 0.94289 0.0
H4030 H 0.8855 0.29718 0.94122 0.0
H4031 H 0.83696 0.29447 0.95361 0.0
C4032 C 0.84117 0.27508 0.95808 0.0
C4033 C 0.85144 0.26548 0.95879 0.0
C4034 C 0.87768 0.30468 0.94163 0.0
C4035 C 0.85934 0.28979 0.95087 0.0
C4036 C 0.88149 0.31666 0.93717 0.0
C4037 C 0.87156 0.32656 0.93743 0.0
C4038 C 0.86382 0.3025 0.94635 0.0
C4039 C 0.85784 0.32402 0.94233 0.0
C4040 C 0.84507 0.28723 0.95417 0.0
C4041 C 0.86561 0.26846 0.95557 0.0
N4042 N 0.85437 0.31224 0.94657 0.0
N4043 N 0.86913 0.28034 0.95171 0.0
H4044 H 0.9604 0.64432 0.20175 0.0
H4045 H 0.93162 0.5835 0.16307 0.0
H4046 H 0.97236 0.60623 0.21204 0.0
H4047 H 0.92036 0.62168 0.15252 0.0
H4048 H 0.94409 0.59145 0.18289 0.0
H4049 H 0.94292 0.636 0.1858 0.0
C4050 C 0.95922 0.6342 0.2008 0.0
C4051 C 0.96802 0.62596 0.2081 0.0
C4052 C 0.93877 0.59808 0.17631 0.0
C4053 C 0.94813 0.61638 0.18974 0.0
C4054 C 0.93171 0.59355 0.16495 0.0
C4055 C 0.92505 0.60194 0.15604 0.0
C4056 C 0.93925 0.61111 0.17874 0.0
C4057 C 0.92527 0.61485 0.15913 0.0
C4058 C 0.94925 0.62946 0.19166 0.0
C4059 C 0.96592 0.61294 0.20652 0.0
N4060 N 0.93238 0.61904 0.17014 0.0
N4061 N 0.95631 0.60856 0.19739 0.0
H4062 H 0.59988 0.71158 0.45247 0.0
H4063 H 0.66463 0.67694 0.41939 0.0
H4064 H 0.64334 0.72463 0.45715 0.0
H4065 H 0.62534 0.65741 0.42851 0.0
H4066 H 0.65725 0.69421 0.43367 0.0
H4067 H 0.60886 0.69148 0.44408 0.0
C4068 C 0.61131 0.71015 0.45191 0.0
C4069 C 0.62087 0.71983 0.4554 0.0
C4070 C 0.65033 0.68606 0.43269 0.0
C4071 C 0.6312 0.69696 0.44563 0.0
C4072 C 0.65458 0.67611 0.42458 0.0
C4073 C 0.64555 0.66567 0.42256 0.0
C4074 C 0.63684 0.68573 0.43867 0.0
C4075 C 0.63252 0.66538 0.42943 0.0
C4076 C 0.61643 0.69867 0.44715 0.0
C4077 C 0.63558 0.71745 0.45453 0.0
N4078 N 0.62846 0.67534 0.43701 0.0
N4079 N 0.64029 0.70633 0.44952 0.0
H4080 H 0.78751 0.52589 0.6308 0.0
H4081 H 0.82191 0.56701 0.57236 0.0
H4082 H 0.77856 0.51994 0.58894 0.0
H4083 H 0.83155 0.57245 0.61416 0.0
H4084 H 0.80407 0.5512 0.57838 0.0
H4085 H 0.8016 0.54449 0.62506 0.0
C4086 C 0.78838 0.52857 0.62041 0.0
C4087 C 0.78195 0.52127 0.61033 0.0
C4088 C 0.81 0.55592 0.58625 0.0
C4089 C 0.79815 0.54252 0.60367 0.0
C4090 C 0.82023 0.56491 0.58281 0.0
C4091 C 0.82834 0.57098 0.59276 0.0
C4092 C 0.80788 0.55292 0.59974 0.0
C4093 C 0.82551 0.56806 0.60615 0.0
C4094 C 0.79645 0.53919 0.61713 0.0
C4095 C 0.7834 0.52523 0.59704 0.0
N4096 N 0.81561 0.55916 0.60924 0.0
N4097 N 0.79144 0.53552 0.59409 0.0
H4098 H 0.28745 0.9854 0.39841 0.0
H4099 H 0.31585 0.91758 0.37645 0.0
H4100 H 0.28333 0.97109 0.35825 0.0
H4101 H 0.33188 0.93769 0.41096 0.0
H4102 H 0.30027 0.93542 0.37132 0.0
H4103 H 0.30003 0.96611 0.40485 0.0
C4104 C 0.28907 0.97816 0.39098 0.0
C4105 C 0.28442 0.97989 0.37775 0.0
C4106 C 0.30715 0.93585 0.38006 0.0
C4107 C 0.29876 0.95781 0.38507 0.0
C4108 C 0.31611 0.9257 0.38298 0.0
C4109 C 0.32536 0.92611 0.39411 0.0
C4110 C 0.30729 0.94647 0.38839 0.0
C4111 C 0.32487 0.93681 0.40237 0.0
C4112 C 0.2963 0.96718 0.39465 0.0
C4113 C 0.28683 0.97019 0.36853 0.0
N4114 N 0.31605 0.94656 0.39931 0.0
N4115 N 0.29385 0.95956 0.37236 0.0
H4116 H 0.26688 0.02859 0.57879 0.0
H4117 H 0.32955 0.04948 0.62888 0.0
H4118 H 0.2614 0.03293 0.62126 0.0
H4119 H 0.33484 0.04555 0.58635 0.0
H4120 H 0.30518 0.0414 0.6266 0.0
H4121 H 0.29243 0.03254 0.5817 0.0
C4122 C 0.27106 0.03025 0.58875 0.0
C4123 C 0.26194 0.03057 0.59978 0.0
C4124 C 0.31171 0.0422 0.61778 0.0
C4125 C 0.2912 0.03518 0.60317 0.0
C4126 C 0.3256 0.04687 0.61907 0.0
C4127 C 0.33422 0.04829 0.60778 0.0
C4128 C 0.30634 0.03898 0.60509 0.0
C4129 C 0.32863 0.04454 0.59534 0.0
C4130 C 0.28566 0.03252 0.5904 0.0
C4131 C 0.268 0.03269 0.61246 0.0
N4132 N 0.31501 0.04017 0.59432 0.0
N4133 N 0.28222 0.03503 0.61378 0.0
H4134 H 0.2044 0.02229 0.85301 0.0
H4135 H 0.18396 0.08454 0.89361 0.0
H4136 H 0.19423 0.02214 0.89494 0.0
H4137 H 0.18676 0.08268 0.85067 0.0
H4138 H 0.1906 0.06228 0.89485 0.0
H4139 H 0.20131 0.04511 0.85263 0.0
C4140 C 0.20165 0.02706 0.86217 0.0
C4141 C 0.19944 0.02026 0.874 0.0
C4142 C 0.18984 0.06679 0.88517 0.0
C4143 C 0.1958 0.04642 0.87361 0.0
C4144 C 0.18597 0.07948 0.88445 0.0
C4145 C 0.18476 0.08554 0.87201 0.0
C4146 C 0.19254 0.06009 0.87338 0.0
C4147 C 0.18775 0.07852 0.86049 0.0
C4148 C 0.19984 0.0401 0.86194 0.0
C4149 C 0.19595 0.02698 0.88558 0.0
N4150 N 0.19145 0.06619 0.86146 0.0
N4151 N 0.19415 0.03969 0.88508 0.0
H4152 H 0.6991 0.44684 0.59237 0.0
H4153 H 0.6581 0.42768 0.65892 0.0
H4154 H 0.7095 0.46173 0.63135 0.0
H4155 H 0.65141 0.40978 0.62069 0.0
H4156 H 0.67373 0.4431 0.64825 0.0
H4157 H 0.67828 0.43635 0.60182 0.0
C4158 C 0.6969 0.44807 0.60288 0.0
C4159 C 0.70622 0.455 0.61112 0.0
C4160 C 0.66869 0.43589 0.64217 0.0
C4161 C 0.68244 0.44292 0.62203 0.0
C4162 C 0.65981 0.42705 0.64827 0.0
C4163 C 0.65356 0.4173 0.64074 0.0
C4164 C 0.67139 0.43497 0.62845 0.0
C4165 C 0.65592 0.41714 0.62691 0.0
C4166 C 0.68502 0.44204 0.60828 0.0
C4167 C 0.70273 0.45635 0.62465 0.0
N4168 N 0.66476 0.42574 0.62125 0.0
N4169 N 0.69122 0.45022 0.62971 0.0
H4170 H 0.68861 0.45778 0.10447 0.0
H4171 H 0.65919 0.39815 0.14483 0.0
H4172 H 0.68565 0.45623 0.14741 0.0
H4173 H 0.65971 0.40011 0.10182 0.0
H4174 H 0.66891 0.41946 0.14587 0.0
H4175 H 0.67796 0.43675 0.10318 0.0
C4176 C 0.6857 0.45303 0.11363 0.0
C4177 C 0.68805 0.45876 0.12608 0.0
C4178 C 0.66689 0.41526 0.13619 0.0
C4179 C 0.67589 0.4347 0.12467 0.0
C4180 C 0.66142 0.40305 0.13559 0.0
C4181 C 0.65872 0.3973 0.12321 0.0
C4182 C 0.66974 0.42181 0.12433 0.0
C4183 C 0.66154 0.40421 0.11157 0.0
C4184 C 0.67961 0.44103 0.11288 0.0
C4185 C 0.68404 0.45218 0.1376 0.0
N4186 N 0.66696 0.41609 0.11241 0.0
N4187 N 0.6782 0.44049 0.13662 0.0
H4188 H 0.26163 0.95642 0.85347 0.0
H4189 H 0.32537 0.92278 0.89352 0.0
H4190 H 0.26127 0.94941 0.8959 0.0
H4191 H 0.32778 0.93265 0.85179 0.0
H4192 H 0.30174 0.93229 0.89442 0.0
H4193 H 0.28566 0.94747 0.85247 0.0
C4194 C 0.2666 0.95301 0.86258 0.0
C4195 C 0.25941 0.95366 0.87479 0.0
C4196 C 0.30743 0.93241 0.88506 0.0
C4197 C 0.28689 0.94338 0.87371 0.0
C4198 C 0.321 0.92705 0.88456 0.0
C4199 C 0.32865 0.92697 0.87257 0.0
C4200 C 0.30138 0.93772 0.87349 0.0
C4201 C 0.32223 0.93238 0.86122 0.0
C4202 C 0.28032 0.94791 0.862 0.0
C4203 C 0.26639 0.94911 0.88627 0.0
N4204 N 0.30897 0.93754 0.86196 0.0
N4205 N 0.27971 0.94414 0.88544 0.0
H4206 H 0.20672 0.03161 0.38589 0.0
H4207 H 0.14692 0.06956 0.34499 0.0
H4208 H 0.2132 0.04727 0.34663 0.0
H4209 H 0.14039 0.05409 0.38432 0.0
H4210 H 0.17054 0.05982 0.3446 0.0
H4211 H 0.18166 0.03794 0.38461 0.0
C4212 C 0.20285 0.03627 0.37695 0.0
C4213 C 0.21212 0.03902 0.3664 0.0
C4214 C 0.1639 0.05847 0.35328 0.0
C4215 C 0.18345 0.04637 0.36491 0.0
C4216 C 0.15044 0.06408 0.35353 0.0
C4217 C 0.14169 0.06272 0.36474 0.0
C4218 C 0.16872 0.05149 0.36435 0.0
C4219 C 0.14671 0.05532 0.37542 0.0
C4220 C 0.18853 0.0399 0.37623 0.0
C4221 C 0.20648 0.04503 0.35504 0.0
N4222 N 0.15993 0.05008 0.37501 0.0
N4223 N 0.19255 0.04859 0.35464 0.0
H4224 H 0.35199 0.1979 0.46488 0.0
H4225 H 0.40757 0.18161 0.40738 0.0
H4226 H 0.39632 0.20921 0.46592 0.0
H4227 H 0.36542 0.16542 0.41034 0.0
H4228 H 0.4021 0.19554 0.42615 0.0
H4229 H 0.35527 0.18988 0.44231 0.0
C4230 C 0.36237 0.19887 0.4603 0.0
C4231 C 0.37396 0.20404 0.46741 0.0
C4232 C 0.39399 0.18906 0.42257 0.0
C4233 C 0.37781 0.19478 0.44156 0.0
C4234 C 0.39707 0.18117 0.41181 0.0
C4235 C 0.38698 0.17225 0.40744 0.0
C4236 C 0.38071 0.18804 0.42891 0.0
C4237 C 0.37357 0.17202 0.41357 0.0
C4238 C 0.36425 0.19426 0.44741 0.0
C4239 C 0.38712 0.20516 0.46088 0.0
N4240 N 0.37087 0.17971 0.42406 0.0
N4241 N 0.38874 0.20041 0.44839 0.0
H4242 H 0.5293 0.61011 0.21947 0.0
H4243 H 0.56729 0.64802 0.16039 0.0
H4244 H 0.53501 0.65048 0.21962 0.0
H4245 H 0.5569 0.60842 0.15851 0.0
H4246 H 0.55636 0.64905 0.18246 0.0
H4247 H 0.54004 0.60925 0.19738 0.0
C4248 C 0.53278 0.6188 0.21484 0.0
C4249 C 0.53124 0.63039 0.22141 0.0
C4250 C 0.55645 0.64014 0.1772 0.0
C4251 C 0.54364 0.62947 0.19612 0.0
C4252 C 0.56276 0.63953 0.16464 0.0
C4253 C 0.56297 0.62812 0.15757 0.0
C4254 C 0.55039 0.62924 0.18278 0.0
C4255 C 0.55681 0.61745 0.16351 0.0
C4256 C 0.53892 0.61831 0.20222 0.0
C4257 C 0.53596 0.64135 0.21492 0.0
N4258 N 0.5508 0.61827 0.17576 0.0
N4259 N 0.54198 0.64062 0.20265 0.0
H4260 H 0.11456 0.79028 0.97732 0.0
H4261 H 0.05826 0.81924 0.92554 0.0
H4262 H 0.06886 0.78916 0.98263 0.0
H4263 H 0.10397 0.82281 0.92168 0.0
H4264 H 0.06193 0.80477 0.94421 0.0
H4265 H 0.11082 0.79874 0.95489 0.0
C4266 C 0.10373 0.79164 0.97371 0.0
C4267 C 0.09201 0.78919 0.98197 0.0
C4268 C 0.07117 0.80858 0.93917 0.0
C4269 C 0.08766 0.79897 0.9563 0.0
C4270 C 0.06908 0.81678 0.92843 0.0
C4271 C 0.08083 0.82237 0.92213 0.0
C4272 C 0.08511 0.80597 0.94368 0.0
C4273 C 0.0946 0.81892 0.92642 0.0
C4274 C 0.10161 0.7965 0.9609 0.0
C4275 C 0.07822 0.79105 0.97669 0.0
N4276 N 0.09636 0.81105 0.93702 0.0
N4277 N 0.07644 0.79597 0.96426 0.0
H4278 H 0.95683 0.37729 0.73019 0.0
H4279 H 0.94301 0.34858 0.65809 0.0
H4280 H 0.96517 0.33824 0.72124 0.0
H4281 H 0.91993 0.38079 0.67271 0.0
H4282 H 0.95301 0.34529 0.68054 0.0
H4283 H 0.94502 0.37954 0.70845 0.0
C4284 C 0.95616 0.36919 0.72365 0.0
C4285 C 0.96201 0.35757 0.72751 0.0
C4286 C 0.94566 0.35301 0.67884 0.0
C4287 C 0.94863 0.36011 0.7026 0.0
C4288 C 0.94002 0.35492 0.66606 0.0
C4289 C 0.93065 0.36497 0.66359 0.0
C4290 C 0.94212 0.36136 0.68915 0.0
C4291 C 0.92704 0.37288 0.67424 0.0
C4292 C 0.94937 0.37047 0.71128 0.0
C4293 C 0.96078 0.34736 0.71867 0.0
N4294 N 0.9329 0.37099 0.68654 0.0
N4295 N 0.95434 0.3489 0.70656 0.0
H4296 H 0.38833 0.78187 0.0221 0.0
H4297 H 0.35859 0.83875 0.06563 0.0
H4298 H 0.34637 0.79808 0.01701 0.0
H4299 H 0.40004 0.82204 0.07211 0.0
H4300 H 0.35285 0.82208 0.04969 0.0
H4301 H 0.3917 0.79447 0.04232 0.0
C4302 C 0.37974 0.78792 0.02534 0.0
C4303 C 0.36713 0.78905 0.01773 0.0
C4304 C 0.36315 0.82195 0.05469 0.0
C4305 C 0.37096 0.80357 0.0408 0.0
C4306 C 0.36645 0.83149 0.06376 0.0
C4307 C 0.37988 0.83186 0.07007 0.0
C4308 C 0.37341 0.81274 0.05177 0.0
C4309 C 0.38956 0.8221 0.06746 0.0
C4310 C 0.38168 0.79514 0.03687 0.0
C4311 C 0.35634 0.79701 0.02246 0.0
N4312 N 0.38621 0.81303 0.05837 0.0
N4313 N 0.35857 0.80406 0.03358 0.0
H4314 H 0.90856 0.61138 0.73535 0.0
H4315 H 0.91774 0.64858 0.80421 0.0
H4316 H 0.94526 0.63435 0.7453 0.0
H4317 H 0.88228 0.6239 0.79509 0.0
H4318 H 0.92628 0.64594 0.78141 0.0
H4319 H 0.89706 0.6184 0.75581 0.0
C4320 C 0.91415 0.61801 0.74175 0.0
C4321 C 0.92798 0.62215 0.73868 0.0
C4322 C 0.91654 0.64121 0.78435 0.0
C4323 C 0.9149 0.63017 0.76218 0.0
C4324 C 0.91168 0.64269 0.79738 0.0
C4325 C 0.89935 0.63634 0.80163 0.0
C4326 C 0.90905 0.63329 0.77549 0.0
C4327 C 0.89179 0.62902 0.79226 0.0
C4328 C 0.90757 0.622 0.75345 0.0
C4329 C 0.93464 0.63081 0.74732 0.0
N4330 N 0.89684 0.62759 0.77969 0.0
N4331 N 0.9281 0.63443 0.75874 0.0
H4332 H 0.08183 0.21863 0.51341 0.0
H4333 H 0.11009 0.16659 0.56447 0.0
H4334 H 0.12564 0.20611 0.51549 0.0
H4335 H 0.06748 0.18189 0.56563 0.0
H4336 H 0.11652 0.18245 0.54789 0.0
H4337 H 0.07686 0.20679 0.53379 0.0
C4338 C 0.09045 0.21351 0.51823 0.0
C4339 C 0.10415 0.21325 0.51264 0.0
C4340 C 0.10581 0.18246 0.55186 0.0
C4341 C 0.09849 0.1996 0.53593 0.0
C4342 C 0.10213 0.17338 0.5613 0.0
C4343 C 0.0882 0.17286 0.56631 0.0
C4344 C 0.09543 0.191 0.54725 0.0
C4345 C 0.07835 0.18199 0.56202 0.0
C4346 C 0.0876 0.20676 0.52988 0.0
C4347 C 0.1149 0.20652 0.51937 0.0
N4348 N 0.0821 0.19058 0.5526 0.0
N4349 N 0.1118 0.19985 0.53057 0.0
H4350 H 0.49792 0.369 0.27044 0.0
H4351 H 0.54683 0.33907 0.32819 0.0
H4352 H 0.50847 0.32946 0.27239 0.0
H4353 H 0.53082 0.37716 0.32899 0.0
H4354 H 0.53342 0.33542 0.30744 0.0
H4355 H 0.51032 0.37222 0.29172 0.0
C4356 C 0.50279 0.36098 0.27537 0.0
C4357 C 0.50216 0.34894 0.26962 0.0
C4358 C 0.5328 0.34456 0.31219 0.0
C4359 C 0.51649 0.35258 0.29395 0.0
C4360 C 0.54051 0.34666 0.32399 0.0
C4361 C 0.53992 0.35842 0.33035 0.0
C4362 C 0.52453 0.35432 0.30665 0.0
C4363 C 0.53144 0.36789 0.32453 0.0
C4364 C 0.50987 0.36282 0.28753 0.0
C4365 C 0.50867 0.3389 0.27647 0.0
N4366 N 0.52414 0.36565 0.313 0.0
N4367 N 0.51563 0.34095 0.28824 0.0
H4368 H 0.43667 0.39606 0.20722 0.0
H4369 H 0.36393 0.35643 0.20894 0.0
H4370 H 0.43299 0.35915 0.22503 0.0
H4371 H 0.36809 0.39264 0.18968 0.0
H4372 H 0.38851 0.35831 0.21708 0.0
H4373 H 0.41097 0.39597 0.20287 0.0
C4374 C 0.43044 0.38798 0.21033 0.0
C4375 C 0.43703 0.37754 0.21639 0.0
C4376 C 0.38402 0.36589 0.21115 0.0
C4377 C 0.40757 0.37736 0.21136 0.0
C4378 C 0.36994 0.36486 0.20657 0.0
C4379 C 0.36394 0.37436 0.19854 0.0
C4380 C 0.3922 0.37648 0.20768 0.0
C4381 C 0.37234 0.38499 0.19565 0.0
C4382 C 0.41576 0.38793 0.20782 0.0
C4383 C 0.42839 0.36736 0.22026 0.0
N4384 N 0.38605 0.38573 0.20016 0.0
N4385 N 0.41413 0.36749 0.21759 0.0
H4386 H 0.32606 0.72894 0.95866 0.0
H4387 H 0.37112 0.68147 0.91412 0.0
H4388 H 0.37136 0.73292 0.9522 0.0
H4389 H 0.33152 0.67052 0.93254 0.0
H4390 H 0.36999 0.70172 0.92564 0.0
H4391 H 0.32658 0.70866 0.94696 0.0
C4392 C 0.3361 0.72555 0.95479 0.0
C4393 C 0.3487 0.73262 0.95642 0.0
C4394 C 0.36154 0.6949 0.92716 0.0
C4395 C 0.34931 0.70956 0.94294 0.0
C4396 C 0.36211 0.68339 0.9205 0.0
C4397 C 0.35137 0.67434 0.92236 0.0
C4398 C 0.35005 0.69746 0.93563 0.0
C4399 C 0.34005 0.67724 0.93091 0.0
C4400 C 0.33639 0.71398 0.94815 0.0
C4401 C 0.36142 0.72777 0.95122 0.0
N4402 N 0.33964 0.68859 0.93719 0.0
N4403 N 0.36138 0.71659 0.94465 0.0
H4404 H 0.04306 0.60835 0.71481 0.0
H4405 H 0.10653 0.61419 0.66276 0.0
H4406 H 0.04882 0.58223 0.68232 0.0
H4407 H 0.10917 0.62993 0.70246 0.0
H4408 H 0.08393 0.60426 0.66857 0.0
H4409 H 0.06581 0.61838 0.70915 0.0
C4410 C 0.04909 0.60474 0.70647 0.0
C4411 C 0.04406 0.59442 0.69903 0.0
C4412 C 0.08949 0.60987 0.67601 0.0
C4413 C 0.06998 0.6059 0.69247 0.0
C4414 C 0.10247 0.61549 0.67274 0.0
C4415 C 0.10992 0.62287 0.68215 0.0
C4416 C 0.08375 0.61175 0.68873 0.0
C4417 C 0.10379 0.62448 0.6948 0.0
C4418 C 0.06208 0.61044 0.70329 0.0
C4419 C 0.05232 0.59012 0.68835 0.0
N4420 N 0.09105 0.61899 0.6977 0.0
N4421 N 0.06484 0.59592 0.68535 0.0
H4422 H 0.11658 0.26443 0.43655 0.0
H4423 H 0.18018 0.31134 0.41699 0.0
H4424 H 0.15889 0.26222 0.4539 0.0
H4425 H 0.13955 0.30954 0.39638 0.0
H4426 H 0.1717 0.29531 0.4327 0.0
H4427 H 0.12394 0.28299 0.424 0.0
C4428 C 0.12739 0.26792 0.43783 0.0
C4429 C 0.13718 0.26167 0.44619 0.0
C4430 C 0.16463 0.29848 0.42478 0.0
C4431 C 0.14572 0.28293 0.43175 0.0
C4432 C 0.16943 0.30766 0.41586 0.0
C4433 C 0.1606 0.31168 0.40529 0.0
C4434 C 0.15087 0.29336 0.42316 0.0
C4435 C 0.14681 0.30654 0.40423 0.0
C4436 C 0.1316 0.27851 0.43062 0.0
C4437 C 0.15102 0.26669 0.44751 0.0
N4438 N 0.1424 0.29764 0.41302 0.0
N4439 N 0.15491 0.27697 0.44027 0.0
H4440 H 0.44976 0.64316 0.28944 0.0
H4441 H 0.39976 0.59183 0.32389 0.0
H4442 H 0.45799 0.60315 0.28869 0.0
H4443 H 0.39232 0.63191 0.32565 0.0
H4444 H 0.41883 0.59553 0.30788 0.0
H4445 H 0.42659 0.63896 0.29953 0.0
C4446 C 0.44663 0.63347 0.29123 0.0
C4447 C 0.45594 0.62351 0.2884 0.0
C4448 C 0.41292 0.60351 0.31164 0.0
C4449 C 0.42945 0.61863 0.30007 0.0
C4450 C 0.40195 0.60139 0.32072 0.0
C4451 C 0.39454 0.61159 0.32626 0.0
C4452 C 0.41654 0.61591 0.30808 0.0
C4453 C 0.39795 0.62379 0.32186 0.0
C4454 C 0.43339 0.63108 0.29702 0.0
C4455 C 0.45123 0.61115 0.29083 0.0
N4456 N 0.40879 0.62562 0.31314 0.0
N4457 N 0.4384 0.60907 0.29668 0.0
H4458 H 0.0978 0.73092 0.05714 0.0
H4459 H 0.162 0.68662 0.08176 0.0
H4460 H 0.14124 0.73485 0.04362 0.0
H4461 H 0.11982 0.68588 0.09879 0.0
H4462 H 0.15407 0.70295 0.06621 0.0
H4463 H 0.10509 0.71285 0.0707 0.0
C4464 C 0.10885 0.72792 0.05692 0.0
C4465 C 0.11895 0.73446 0.04929 0.0
C4466 C 0.14653 0.69919 0.07332 0.0
C4467 C 0.12738 0.71382 0.06486 0.0
C4468 C 0.15108 0.68991 0.08227 0.0
C4469 C 0.1416 0.6849 0.09168 0.0
C4470 C 0.13238 0.70351 0.07375 0.0
C4471 C 0.12748 0.68936 0.09165 0.0
C4472 C 0.11301 0.71762 0.0647 0.0
C4473 C 0.13311 0.73013 0.04939 0.0
N4474 N 0.12332 0.69843 0.08286 0.0
N4475 N 0.13691 0.72012 0.05711 0.0
H4476 H 0.03675 0.37576 0.76521 0.0
H4477 H 0.09293 0.34691 0.81743 0.0
H4478 H 0.0256 0.3507 0.79747 0.0
H4479 H 0.10568 0.36845 0.78298 0.0
H4480 H 0.06817 0.34808 0.80985 0.0
H4481 H 0.06205 0.37293 0.77097 0.0
C4482 C 0.03962 0.36959 0.77343 0.0
C4483 C 0.02903 0.36352 0.78093 0.0
C4484 C 0.07635 0.35253 0.80389 0.0
C4485 C 0.05789 0.36032 0.78759 0.0
C4486 C 0.09049 0.35193 0.80827 0.0
C4487 C 0.10135 0.3577 0.80088 0.0
C4488 C 0.07297 0.35901 0.79206 0.0
C4489 C 0.09761 0.36385 0.78895 0.0
C4490 C 0.05405 0.36799 0.77671 0.0
C4491 C 0.03336 0.35563 0.79145 0.0
N4492 N 0.0837 0.36443 0.78494 0.0
N4493 N 0.04743 0.35433 0.79451 0.0
H4494 H 0.38241 0.2479 0.53938 0.0
H4495 H 0.3437 0.31078 0.56312 0.0
H4496 H 0.33697 0.25346 0.53474 0.0
H4497 H 0.38401 0.29813 0.57941 0.0
H4498 H 0.3417 0.291 0.55055 0.0
H4499 H 0.38394 0.2676 0.55194 0.0
C4500 C 0.37276 0.25329 0.54096 0.0
C4501 C 0.35954 0.24903 0.53602 0.0
C4502 C 0.35094 0.29255 0.55693 0.0
C4503 C 0.36123 0.2716 0.55033 0.0
C4504 C 0.35211 0.30383 0.56405 0.0
C4505 C 0.364 0.30604 0.57235 0.0
C4506 C 0.36187 0.28354 0.55796 0.0
C4507 C 0.37458 0.29672 0.57324 0.0
C4508 C 0.37363 0.2645 0.54818 0.0
C4509 C 0.34737 0.25638 0.53841 0.0
N4510 N 0.37331 0.28592 0.56607 0.0
N4511 N 0.34852 0.26735 0.54535 0.0
H4512 H 0.18796 0.46099 0.42063 0.0
H4513 H 0.20736 0.40683 0.36847 0.0
H4514 H 0.21442 0.46695 0.38613 0.0
H4515 H 0.18195 0.40056 0.4036 0.0
H4516 H 0.21148 0.42851 0.37565 0.0
H4517 H 0.18702 0.43853 0.41542 0.0
C4518 C 0.19367 0.45757 0.41202 0.0
C4519 C 0.20119 0.4659 0.40375 0.0
C4520 C 0.20507 0.42237 0.38184 0.0
C4521 C 0.20009 0.44017 0.39768 0.0
C4522 C 0.20278 0.40995 0.37778 0.0
C4523 C 0.19423 0.40184 0.38541 0.0
C4524 C 0.19875 0.42677 0.39359 0.0
C4525 C 0.18841 0.40652 0.39728 0.0
C4526 C 0.19312 0.44473 0.40904 0.0
C4527 C 0.20843 0.4609 0.39275 0.0
N4528 N 0.19072 0.41868 0.40097 0.0
N4529 N 0.20761 0.44838 0.38999 0.0
H4530 H 0.66752 0.04428 0.55558 0.0
H4531 H 0.6846 0.0911 0.61632 0.0
H4532 H 0.69891 0.0365 0.58632 0.0
H4533 H 0.65607 0.10021 0.58363 0.0
H4534 H 0.68936 0.07075 0.60594 0.0
H4535 H 0.6624 0.06441 0.56628 0.0
C4536 C 0.67332 0.04679 0.5646 0.0
C4537 C 0.68368 0.03869 0.57005 0.0
C4538 C 0.68205 0.07719 0.60104 0.0
C4539 C 0.67788 0.06176 0.58235 0.0
C4540 C 0.67939 0.08886 0.60693 0.0
C4541 C 0.66993 0.09741 0.60084 0.0
C4542 C 0.67521 0.07402 0.58897 0.0
C4543 C 0.6633 0.09387 0.58878 0.0
C4544 C 0.6704 0.0583 0.5707 0.0
C4545 C 0.69085 0.04245 0.58176 0.0
N4546 N 0.66607 0.08246 0.58325 0.0
N4547 N 0.68782 0.05372 0.58751 0.0
H4548 H 0.70938 0.93311 0.37208 0.0
H4549 H 0.71028 0.87883 0.31658 0.0
H4550 H 0.74387 0.92809 0.34429 0.0
H4551 H 0.67669 0.88333 0.34539 0.0
H4552 H 0.72268 0.89696 0.32636 0.0
H4553 H 0.69716 0.91502 0.36219 0.0
C4554 C 0.7144 0.9282 0.3639 0.0
C4555 C 0.72768 0.93214 0.35901 0.0
C4556 C 0.71258 0.89399 0.33052 0.0
C4557 C 0.7137 0.91138 0.3476 0.0
C4558 C 0.70552 0.88361 0.32497 0.0
C4559 C 0.6924 0.87955 0.33014 0.0
C4560 C 0.70649 0.90037 0.34135 0.0
C4561 C 0.68666 0.88622 0.34093 0.0
C4562 C 0.7074 0.91786 0.35825 0.0
C4563 C 0.73366 0.92539 0.34839 0.0
N4564 N 0.69375 0.89627 0.34617 0.0
N4565 N 0.72661 0.91535 0.34303 0.0
H4566 H 0.78813 0.94262 0.0613 0.0
H4567 H 0.83981 0.90908 0.11386 0.0
H4568 H 0.79245 0.9548 0.10223 0.0
H4569 H 0.82664 0.89159 0.07689 0.0
H4570 H 0.82278 0.92612 0.10966 0.0
H4571 H 0.80245 0.92401 0.06662 0.0
C4572 C 0.79202 0.94135 0.07142 0.0
C4573 C 0.78915 0.95031 0.08132 0.0
C4574 C 0.82351 0.9185 0.10252 0.0
C4575 C 0.80562 0.92909 0.08745 0.0
C4576 C 0.83327 0.90882 0.10488 0.0
C4577 C 0.83466 0.89896 0.09567 0.0
C4578 C 0.81523 0.91842 0.09076 0.0
C4579 C 0.82583 0.89899 0.08428 0.0
C4580 C 0.80016 0.9307 0.07446 0.0
C4581 C 0.79441 0.94814 0.09428 0.0
N4582 N 0.81659 0.90865 0.08207 0.0
N4583 N 0.8025 0.93781 0.09694 0.0
H4584 H 0.24687 0.52631 0.35088 0.0
H4585 H 0.31299 0.55649 0.39087 0.0
H4586 H 0.25379 0.52182 0.39327 0.0
H4587 H 0.30279 0.56559 0.3499 0.0
H4588 H 0.2928 0.54193 0.39124 0.0
H4589 H 0.26876 0.53886 0.34969 0.0
C4590 C 0.25305 0.52787 0.35992 0.0
C4591 C 0.24845 0.52305 0.37221 0.0
C4592 C 0.29499 0.54707 0.38215 0.0
C4593 C 0.27348 0.53746 0.37092 0.0
C4594 C 0.30659 0.55533 0.38189 0.0
C4595 C 0.3096 0.56228 0.37033 0.0
C4596 C 0.28632 0.54569 0.37074 0.0
C4597 C 0.30077 0.56053 0.35907 0.0
C4598 C 0.26552 0.53508 0.35924 0.0
C4599 C 0.25689 0.52539 0.38359 0.0
N4600 N 0.28952 0.55242 0.35956 0.0
N4601 N 0.26897 0.53245 0.38267 0.0
H4602 H 0.2816 0.52755 0.86492 0.0
H4603 H 0.30788 0.58591 0.90944 0.0
H4604 H 0.27138 0.53194 0.90658 0.0
H4605 H 0.32188 0.57898 0.86922 0.0
H4606 H 0.29161 0.5679 0.90759 0.0
H4607 H 0.29359 0.548 0.8654 0.0
C4608 C 0.28175 0.53286 0.87414 0.0
C4609 C 0.27559 0.52796 0.88576 0.0
C4610 C 0.29816 0.57038 0.89913 0.0
C4611 C 0.28937 0.55139 0.8864 0.0
C4612 C 0.30738 0.58072 0.90016 0.0
C4613 C 0.31635 0.58387 0.88952 0.0
C4614 C 0.29788 0.56318 0.88737 0.0
C4615 C 0.31533 0.57674 0.87775 0.0
C4616 C 0.28863 0.54454 0.87442 0.0
C4617 C 0.27607 0.53531 0.89741 0.0
N4618 N 0.30634 0.56669 0.87703 0.0
N4619 N 0.28294 0.54661 0.89745 0.0
H4620 H 0.74122 0.05063 0.12798 0.0
H4621 H 0.72541 0.12451 0.13397 0.0
H4622 H 0.76488 0.07916 0.10675 0.0
H4623 H 0.70065 0.09573 0.15364 0.0
H4624 H 0.74117 0.10819 0.12529 0.0
H4625 H 0.72742 0.06715 0.13876 0.0
C4626 C 0.74358 0.06037 0.12563 0.0
C4627 C 0.75418 0.0635 0.11638 0.0
C4628 C 0.73233 0.10544 0.13155 0.0
C4629 C 0.73835 0.0825 0.12868 0.0
C4630 C 0.72338 0.11477 0.13659 0.0
C4631 C 0.71165 0.11148 0.14451 0.0
C4632 C 0.72956 0.09273 0.13446 0.0
C4633 C 0.70943 0.09868 0.14741 0.0
C4634 C 0.73567 0.06981 0.13179 0.0
C4635 C 0.75677 0.0763 0.11377 0.0
N4636 N 0.71827 0.08978 0.14236 0.0
N4637 N 0.74887 0.08533 0.11985 0.0
H4638 H 0.76226 0.95703 0.6036 0.0
H4639 H 0.76041 0.90645 0.66293 0.0
H4640 H 0.72406 0.94742 0.62521 0.0
H4641 H 0.79732 0.91344 0.63847 0.0
H4642 H 0.74747 0.92282 0.65063 0.0
H4643 H 0.77582 0.94254 0.61775 0.0
C4644 C 0.75673 0.95192 0.61136 0.0
C4645 C 0.74198 0.9534 0.61316 0.0
C4646 C 0.75843 0.92082 0.64802 0.0
C4647 C 0.75746 0.93675 0.62941 0.0
C4648 C 0.76581 0.91144 0.655 0.0
C4649 C 0.77997 0.9085 0.6517 0.0
C4650 C 0.76524 0.92732 0.63764 0.0
C4651 C 0.78649 0.91545 0.64148 0.0
C4652 C 0.76448 0.94363 0.61943 0.0
C4653 C 0.7354 0.94654 0.62341 0.0
N4654 N 0.77905 0.92447 0.63478 0.0
N4655 N 0.74318 0.93848 0.63111 0.0
loop_
_geom_bond_atom_site_label_1
_geom_bond_atom_site_label_2
_geom_bond_distance
_geom_bond_site_symmetry_2
_ccdc_geom_bond_type
O0 Cd1 2.300 . S
O0 C7 1.275 . S
Cd1 O0 2.300 . S
Cd1 O9 2.381 . S
Cd1 O10 2.378 . S
O2 Cd3 2.385 . S
O2 C7 1.255 . S
Cd3 O2 2.385 . S
Cd3 O4 2.317 1_455 S
O4 Cd3 2.317 1_655 S
O4 C5 1.232 . S
C5 O4 1.232 . S
C5 O6 1.218 . S
O6 C5 1.218 . S
C7 O0 1.275 . S
C7 O2 1.255 . S
C8 O9 1.258 . S
C8 O10 1.256 . S
O9 Cd1 2.381 . S
O9 C8 1.258 . S
O10 Cd1 2.378 . S
O10 C8 1.256 . S
O11 Cd12 2.300 . S
O11 C18 1.275 . S
Cd12 O11 2.300 . S
Cd12 O20 2.381 . S
Cd12 O21 2.378 . S
O13 Cd14 2.385 . S
O13 C18 1.255 . S
Cd14 O13 2.385 . S
Cd14 O15 2.317 . S
O15 Cd14 2.317 . S
O15 C16 1.232 . S
C16 O15 1.232 . S
C16 O17 1.218 . S
O17 C16 1.218 . S
C18 O11 1.275 . S
C18 O13 1.255 . S
C19 O20 1.258 . S
C19 O21 1.256 . S
O20 Cd12 2.381 . S
O20 C19 1.258 . S
O21 Cd12 2.378 . S
O21 C19 1.256 . S
O22 Cd23 2.300 . S
O22 C29 1.275 . S
Cd23 O22 2.300 . S
Cd23 O31 2.381 . S
Cd23 O32 2.378 . S
O24 Cd25 2.385 . S
O24 C29 1.255 . S
Cd25 O24 2.385 . S
Cd25 O26 2.317 . S
O26 Cd25 2.317 . S
O26 C27 1.232 . S
C27 O26 1.232 . S
C27 O28 1.218 . S
O28 C27 1.218 . S
C29 O22 1.275 . S
C29 O24 1.255 . S
C30 O31 1.258 . S
C30 O32 1.256 . S
O31 Cd23 2.381 . S
O31 C30 1.258 . S
O32 Cd23 2.378 . S
O32 C30 1.256 . S
O33 Cd34 2.300 . S
O33 C40 1.275 . S
Cd34 O33 2.300 . S
Cd34 O42 2.381 . S
Cd34 O43 2.378 . S
O35 Cd36 2.385 . S
O35 C40 1.255 . S
Cd36 O35 2.385 . S
Cd36 O37 2.338 . S
O37 Cd36 2.338 . S
O37 C38 1.220 1_554 S
C38 O37 1.220 1_556 S
C38 O39 1.225 . S
O39 C38 1.225 . S
C40 O33 1.275 . S
C40 O35 1.255 . S
C41 O42 1.258 . S
C41 O43 1.256 . S
O42 Cd34 2.381 . S
O42 C41 1.258 . S
O43 Cd34 2.378 . S
O43 C41 1.256 . S
O44 Cd45 2.300 . S
O44 C51 1.275 . S
Cd45 O44 2.300 . S
Cd45 O53 2.381 . S
Cd45 O54 2.378 . S
O46 Cd47 2.385 . S
O46 C51 1.255 . S
Cd47 O46 2.385 . S
Cd47 O48 2.317 1_455 S
O48 Cd47 2.317 1_655 S
O48 C49 1.232 . S
C49 O48 1.232 . S
C49 O50 1.218 . S
O50 C49 1.218 . S
C51 O44 1.275 . S
C51 O46 1.255 . S
C52 O53 1.258 . S
C52 O54 1.256 . S
O53 Cd45 2.381 . S
O53 C52 1.258 . S
O54 Cd45 2.378 . S
O54 C52 1.256 . S
O55 Cd56 2.300 . S
O55 C62 1.275 . S
Cd56 O55 2.300 . S
Cd56 O64 2.381 . S
Cd56 O65 2.378 . S
O57 Cd58 2.385 . S
O57 C62 1.255 . S
Cd58 O57 2.385 . S
Cd58 O59 2.317 . S
O59 Cd58 2.317 . S
O59 C60 1.232 . S
C60 O59 1.232 . S
C60 O61 1.218 . S
O61 C60 1.218 . S
C62 O55 1.275 . S
C62 O57 1.255 . S
C63 O64 1.258 . S
C63 O65 1.256 . S
O64 Cd56 2.381 . S
O64 C63 1.258 . S
O65 Cd56 2.378 . S
O65 C63 1.256 . S
O66 Cd67 2.300 . S
O66 C73 1.275 . S
Cd67 O66 2.300 . S
Cd67 O75 2.381 . S
Cd67 O76 2.378 . S
O68 Cd69 2.385 . S
O68 C73 1.255 . S
Cd69 O68 2.385 . S
Cd69 O70 2.317 . S
O70 Cd69 2.317 . S
O70 C71 1.232 . S
C71 O70 1.232 . S
C71 O72 1.218 . S
O72 C71 1.218 . S
C73 O66 1.275 . S
C73 O68 1.255 . S
C74 O75 1.258 . S
C74 O76 1.256 . S
O75 Cd67 2.381 . S
O75 C74 1.258 . S
O76 Cd67 2.378 . S
O76 C74 1.256 . S
O77 Cd78 2.300 . S
O77 C84 1.275 . S
Cd78 O77 2.300 . S
Cd78 O86 2.381 . S
Cd78 O87 2.378 . S
O79 Cd80 2.385 . S
O79 C84 1.255 . S
Cd80 O79 2.385 . S
Cd80 O81 2.317 1_556 S
O81 Cd80 2.317 1_554 S
O81 C82 1.232 . S
C82 O81 1.232 . S
C82 O83 1.218 . S
O83 C82 1.218 . S
C84 O77 1.275 . S
C84 O79 1.255 . S
C85 O86 1.258 . S
C85 O87 1.256 . S
O86 Cd78 2.381 . S
O86 C85 1.258 . S
O87 Cd78 2.378 . S
O87 C85 1.256 . S
O88 Cd89 2.300 . S
O88 C95 1.275 . S
Cd89 O88 2.300 . S
Cd89 O97 2.417 . S
Cd89 O98 2.378 1_545 S
O90 Cd91 2.385 . S
O90 C95 1.255 . S
Cd91 O90 2.385 . S
Cd91 O92 2.317 . S
O92 Cd91 2.317 . S
O92 C93 1.232 . S
C93 O92 1.232 . S
C93 O94 1.218 . S
O94 C93 1.218 . S
C95 O88 1.275 . S
C95 O90 1.255 . S
C96 O97 1.223 1_565 S
C96 O98 1.256 . S
O97 Cd89 2.417 . S
O97 C96 1.223 1_545 S
O98 Cd89 2.378 1_565 S
O98 C96 1.256 . S
O99 Cd100 2.300 . S
O99 C106 1.275 . S
Cd100 O99 2.300 . S
Cd100 O108 2.381 1_545 S
Cd100 O109 2.378 1_545 S
O101 Cd102 2.385 . S
O101 C106 1.255 . S
Cd102 O101 2.385 . S
Cd102 O103 2.317 . S
O103 Cd102 2.317 . S
O103 C104 1.232 . S
C104 O103 1.232 . S
C104 O105 1.218 . S
O105 C104 1.218 . S
C106 O99 1.275 . S
C106 O101 1.255 . S
C107 O108 1.258 . S
C107 O109 1.256 . S
O108 Cd100 2.381 1_565 S
O108 C107 1.258 . S
O109 Cd100 2.378 1_565 S
O109 C107 1.256 . S
O110 Cd111 2.300 . S
O110 C117 1.275 . S
Cd111 O110 2.300 . S
Cd111 O119 2.381 . S
Cd111 O120 2.378 . S
O112 Cd113 2.385 . S
O112 C117 1.255 . S
Cd113 O112 2.385 . S
Cd113 O114 2.317 1_565 S
O114 Cd113 2.317 1_545 S
O114 C115 1.232 . S
C115 O114 1.232 . S
C115 O116 1.218 . S
O116 C115 1.218 . S
C117 O110 1.275 . S
C117 O112 1.255 . S
C118 O119 1.258 . S
C118 O120 1.256 . S
O119 Cd111 2.381 . S
O119 C118 1.258 . S
O120 Cd111 2.378 . S
O120 C118 1.256 . S
O121 Cd122 2.300 . S
O121 C128 1.275 . S
Cd122 O121 2.300 . S
Cd122 O130 2.381 1_565 S
Cd122 O131 2.378 1_565 S
O123 Cd124 2.385 . S
O123 C128 1.255 . S
Cd124 O123 2.385 . S
Cd124 O125 2.317 . S
O125 Cd124 2.317 . S
O125 C126 1.232 . S
C126 O125 1.232 . S
C126 O127 1.218 . S
O127 C126 1.218 . S
C128 O121 1.275 . S
C128 O123 1.255 . S
C129 O130 1.258 . S
C129 O131 1.256 . S
O130 Cd122 2.381 1_545 S
O130 C129 1.258 . S
O131 Cd122 2.378 1_545 S
O131 C129 1.256 . S
O132 Cd133 2.300 . S
O132 C139 1.275 . S
Cd133 O132 2.300 . S
Cd133 O141 2.381 . S
Cd133 O142 2.311 1_554 S
O134 Cd135 2.385 . S
O134 C139 1.255 . S
Cd135 O134 2.385 . S
Cd135 O136 2.317 . S
O136 Cd135 2.317 . S
O136 C137 1.232 . S
C137 O136 1.232 . S
C137 O138 1.218 . S
O138 C137 1.218 . S
C139 O132 1.275 . S
C139 O134 1.255 . S
C140 O141 1.258 1_556 S
C140 O142 1.275 . S
O141 Cd133 2.381 . S
O141 C140 1.258 1_554 S
O142 Cd133 2.311 1_556 S
O142 C140 1.275 . S
O143 Cd144 2.300 . S
O143 C150 1.275 . S
Cd144 O143 2.300 . S
Cd144 O152 2.381 . S
Cd144 O153 2.378 . S
O145 Cd146 2.453 . S
O145 C150 1.255 . S
Cd146 O145 2.453 . S
Cd146 O147 2.282 1_655 S
O147 Cd146 2.282 1_455 S
O147 C148 1.232 . S
C148 O147 1.232 . S
C148 O149 1.218 . S
O149 C148 1.218 . S
C150 O143 1.275 . S
C150 O145 1.255 . S
C151 O152 1.258 . S
C151 O153 1.256 . S
O152 Cd144 2.381 . S
O152 C151 1.258 . S
O153 Cd144 2.378 . S
O153 C151 1.256 . S
O154 Cd155 2.300 . S
O154 C161 1.275 . S
Cd155 O154 2.300 . S
Cd155 O163 2.381 . S
Cd155 O164 2.378 . S
O156 Cd157 2.385 . S
O156 C161 1.255 . S
Cd157 O156 2.385 . S
Cd157 O158 2.317 . S
O158 Cd157 2.317 . S
O158 C159 1.232 . S
C159 O158 1.232 . S
C159 O160 1.218 . S
O160 C159 1.218 . S
C161 O154 1.275 . S
C161 O156 1.255 . S
C162 O163 1.258 . S
C162 O164 1.256 . S
O163 Cd155 2.381 . S
O163 C162 1.258 . S
O164 Cd155 2.378 . S
O164 C162 1.256 . S
O165 Cd166 2.300 1_655 S
O165 C172 1.275 . S
Cd166 O165 2.300 1_455 S
Cd166 O174 2.381 . S
Cd166 O175 2.378 . S
O167 Cd168 2.385 . S
O167 C172 1.255 . S
Cd168 O167 2.385 . S
Cd168 O169 2.317 . S
O169 Cd168 2.317 . S
O169 C170 1.232 . S
C170 O169 1.232 . S
C170 O171 1.218 . S
O171 C170 1.218 . S
C172 O165 1.275 . S
C172 O167 1.255 . S
C173 O174 1.258 . S
C173 O175 1.256 . S
O174 Cd166 2.381 . S
O174 C173 1.258 . S
O175 Cd166 2.378 . S
O175 C173 1.256 . S
O176 Cd177 2.300 . S
O176 C183 1.275 . S
Cd177 O176 2.300 . S
Cd177 O185 2.381 . S
Cd177 O186 2.378 . S
O178 Cd179 2.385 . S
O178 C183 1.255 . S
Cd179 O178 2.385 . S
Cd179 O180 2.317 . S
O180 Cd179 2.317 . S
O180 C181 1.232 . S
C181 O180 1.232 . S
C181 O182 1.218 . S
O182 C181 1.218 . S
C183 O176 1.275 . S
C183 O178 1.255 . S
C184 O185 1.258 . S
C184 O186 1.256 . S
O185 Cd177 2.381 . S
O185 C184 1.258 . S
O186 Cd177 2.378 . S
O186 C184 1.256 . S
O187 Cd188 2.300 . S
O187 C194 1.275 . S
Cd188 O187 2.300 . S
Cd188 O196 2.381 . S
Cd188 O197 2.378 . S
O189 Cd190 2.385 . S
O189 C194 1.255 . S
Cd190 O189 2.385 . S
Cd190 O191 2.317 . S
O191 Cd190 2.317 . S
O191 C192 1.232 . S
C192 O191 1.232 . S
C192 O193 1.218 . S
O193 C192 1.218 . S
C194 O187 1.275 . S
C194 O189 1.255 . S
C195 O196 1.258 . S
C195 O197 1.256 . S
O196 Cd188 2.381 . S
O196 C195 1.258 . S
O197 Cd188 2.378 . S
O197 C195 1.256 . S
O198 Cd199 2.300 . S
O198 C205 1.275 . S
Cd199 O198 2.300 . S
Cd199 O207 2.381 . S
Cd199 O208 2.378 . S
O200 Cd201 2.385 . S
O200 C205 1.255 . S
Cd201 O200 2.385 . S
Cd201 O202 2.317 . S
O202 Cd201 2.317 . S
O202 C203 1.232 1_556 S
C203 O202 1.232 1_554 S
C203 O204 1.218 . S
O204 C203 1.218 . S
C205 O198 1.275 . S
C205 O200 1.255 . S
C206 O207 1.258 . S
C206 O208 1.256 . S
O207 Cd199 2.381 . S
O207 C206 1.258 . S
O208 Cd199 2.378 . S
O208 C206 1.256 . S
O209 Cd210 2.300 . S
O209 C216 1.275 . S
Cd210 O209 2.300 . S
Cd210 O218 2.381 . S
Cd210 O219 2.378 . S
O211 Cd212 2.385 1_655 S
O211 C216 1.255 . S
Cd212 O211 2.385 1_455 S
Cd212 O213 2.317 . S
O213 Cd212 2.317 . S
O213 C214 1.232 . S
C214 O213 1.232 . S
C214 O215 1.218 . S
O215 C214 1.218 . S
C216 O209 1.275 . S
C216 O211 1.255 . S
C217 O218 1.258 . S
C217 O219 1.256 . S
O218 Cd210 2.381 . S
O218 C217 1.258 . S
O219 Cd210 2.378 . S
O219 C217 1.256 . S
O220 Cd221 2.300 . S
O220 C227 1.275 . S
Cd221 O220 2.300 . S
Cd221 O229 2.381 . S
Cd221 O230 2.378 . S
O222 Cd223 2.385 . S
O222 C227 1.255 . S
Cd223 O222 2.385 . S
Cd223 O224 2.317 . S
O224 Cd223 2.317 . S
O224 C225 1.232 . S
C225 O224 1.232 . S
C225 O226 1.218 . S
O226 C225 1.218 . S
C227 O220 1.275 . S
C227 O222 1.255 . S
C228 O229 1.258 . S
C228 O230 1.256 . S
O229 Cd221 2.381 . S
O229 C228 1.258 . S
O230 Cd221 2.378 . S
O230 C228 1.256 . S
O231 Cd232 2.300 . S
O231 C238 1.275 . S
Cd232 O231 2.300 . S
Cd232 O240 2.381 . S
Cd232 O241 2.378 . S
O233 Cd234 2.385 . S
O233 C238 1.255 . S
Cd234 O233 2.385 . S
Cd234 O235 2.317 . S
O235 Cd234 2.317 . S
O235 C236 1.232 . S
C236 O235 1.232 . S
C236 O237 1.218 . S
O237 C236 1.218 . S
C238 O231 1.275 . S
C238 O233 1.255 . S
C239 O240 1.258 . S
C239 O241 1.256 . S
O240 Cd232 2.381 . S
O240 C239 1.258 . S
O241 Cd232 2.378 . S
O241 C239 1.256 . S
O242 Cd243 2.300 . S
O242 C249 1.275 . S
Cd243 O242 2.300 . S
Cd243 O251 2.381 . S
Cd243 O252 2.378 . S
O244 Cd245 2.385 . S
O244 C249 1.255 . S
Cd245 O244 2.385 . S
Cd245 O246 2.317 1_554 S
O246 Cd245 2.317 1_556 S
O246 C247 1.232 . S
C247 O246 1.232 . S
C247 O248 1.218 . S
O248 C247 1.218 . S
C249 O242 1.275 . S
C249 O244 1.255 . S
C250 O251 1.258 . S
C250 O252 1.256 . S
O251 Cd243 2.381 . S
O251 C250 1.258 . S
O252 Cd243 2.378 . S
O252 C250 1.256 . S
O253 Cd254 2.300 . S
O253 C260 1.275 . S
Cd254 O253 2.300 . S
Cd254 O262 2.381 1_565 S
Cd254 O263 2.378 1_565 S
O255 Cd256 2.385 . S
O255 C260 1.255 . S
Cd256 O255 2.385 . S
Cd256 O257 2.317 . S
O257 Cd256 2.317 . S
O257 C258 1.232 . S
C258 O257 1.232 . S
C258 O259 1.218 . S
O259 C258 1.218 . S
C260 O253 1.275 . S
C260 O255 1.255 . S
C261 O262 1.258 . S
C261 O263 1.256 . S
O262 Cd254 2.381 1_545 S
O262 C261 1.258 . S
O263 Cd254 2.378 1_545 S
O263 C261 1.256 . S
O264 Cd265 2.300 1_565 S
O264 C271 1.275 . S
Cd265 O264 2.300 1_545 S
Cd265 O273 2.381 . S
Cd265 O274 2.378 . S
O266 Cd267 2.385 . S
O266 C271 1.255 . S
Cd267 O266 2.385 . S
Cd267 O268 2.317 . S
O268 Cd267 2.317 . S
O268 C269 1.232 . S
C269 O268 1.232 . S
C269 O270 1.218 . S
O270 C269 1.218 . S
C271 O264 1.275 . S
C271 O266 1.255 . S
C272 O273 1.258 . S
C272 O274 1.256 . S
O273 Cd265 2.381 . S
O273 C272 1.258 . S
O274 Cd265 2.378 . S
O274 C272 1.256 . S
O275 Cd276 2.325 . S
O275 C282 1.275 . S
Cd276 O275 2.325 . S
Cd276 O284 2.350 1_545 S
Cd276 O285 2.339 1_545 S
O277 Cd278 2.385 . S
O277 C282 1.255 . S
Cd278 O277 2.385 . S
Cd278 O279 2.317 . S
O279 Cd278 2.317 . S
O279 C280 1.232 . S
C280 O279 1.232 . S
C280 O281 1.218 . S
O281 C280 1.218 . S
C282 O275 1.275 . S
C282 O277 1.255 . S
C283 O284 1.258 . S
C283 O285 1.256 . S
O284 Cd276 2.350 1_565 S
O284 C283 1.258 . S
O285 Cd276 2.339 1_565 S
O285 C283 1.256 . S
O286 Cd287 2.300 1_545 S
O286 C293 1.275 . S
Cd287 O286 2.300 1_565 S
Cd287 O295 2.381 . S
Cd287 O296 2.378 . S
O288 Cd289 2.385 . S
O288 C293 1.255 . S
Cd289 O288 2.385 . S
Cd289 O290 2.317 . S
O290 Cd289 2.317 . S
O290 C291 1.232 . S
C291 O290 1.232 . S
C291 O292 1.218 . S
O292 C291 1.218 . S
C293 O286 1.275 . S
C293 O288 1.255 . S
C294 O295 1.258 . S
C294 O296 1.256 . S
O295 Cd287 2.381 . S
O295 C294 1.258 . S
O296 Cd287 2.378 . S
O296 C294 1.256 . S
O297 Cd298 2.300 . S
O297 C304 1.275 . S
Cd298 O297 2.300 . S
Cd298 O306 2.381 1_556 S
Cd298 O307 2.378 1_556 S
O299 Cd300 2.385 . S
O299 C304 1.255 . S
Cd300 O299 2.385 . S
Cd300 O301 2.317 . S
O301 Cd300 2.317 . S
O301 C302 1.232 . S
C302 O301 1.232 . S
C302 O303 1.218 . S
O303 C302 1.218 . S
C304 O297 1.275 . S
C304 O299 1.255 . S
C305 O306 1.258 . S
C305 O307 1.256 . S
O306 Cd298 2.381 1_554 S
O306 C305 1.258 . S
O307 Cd298 2.378 1_554 S
O307 C305 1.256 . S
O308 Cd309 2.300 . S
O308 C315 1.275 . S
Cd309 O308 2.300 . S
Cd309 O317 2.381 . S
Cd309 O318 2.378 . S
O310 Cd311 2.385 1_455 S
O310 C315 1.255 . S
Cd311 O310 2.385 1_655 S
Cd311 O312 2.317 . S
O312 Cd311 2.317 . S
O312 C313 1.232 . S
C313 O312 1.232 . S
C313 O314 1.218 . S
O314 C313 1.218 . S
C315 O308 1.275 . S
C315 O310 1.255 . S
C316 O317 1.258 . S
C316 O318 1.256 . S
O317 Cd309 2.381 . S
O317 C316 1.258 . S
O318 Cd309 2.378 . S
O318 C316 1.256 . S
O319 Cd320 2.300 . S
O319 C326 1.275 . S
Cd320 O319 2.300 . S
Cd320 O328 2.381 . S
Cd320 O329 2.378 . S
O321 Cd322 2.385 . S
O321 C326 1.255 . S
Cd322 O321 2.385 . S
Cd322 O323 2.317 . S
O323 Cd322 2.317 . S
O323 C324 1.232 . S
C324 O323 1.232 . S
C324 O325 1.218 . S
O325 C324 1.218 . S
C326 O319 1.275 . S
C326 O321 1.255 . S
C327 O328 1.258 . S
C327 O329 1.256 . S
O328 Cd320 2.381 . S
O328 C327 1.258 . S
O329 Cd320 2.378 . S
O329 C327 1.256 . S
O330 Cd331 2.300 . S
O330 C337 1.275 . S
Cd331 O330 2.300 . S
Cd331 O339 2.381 . S
Cd331 O340 2.378 . S
O332 Cd333 2.385 . S
O332 C337 1.255 . S
Cd333 O332 2.385 . S
Cd333 O334 2.317 . S
O334 Cd333 2.317 . S
O334 C335 1.232 . S
C335 O334 1.232 . S
C335 O336 1.218 . S
O336 C335 1.218 . S
C337 O330 1.275 . S
C337 O332 1.255 . S
C338 O339 1.258 . S
C338 O340 1.256 . S
O339 Cd331 2.381 . S
O339 C338 1.258 . S
O340 Cd331 2.378 . S
O340 C338 1.256 . S
O341 Cd342 2.300 . S
O341 C348 1.275 . S
Cd342 O341 2.300 . S
Cd342 O350 2.381 1_655 S
Cd342 O351 2.378 1_655 S
O343 Cd344 2.385 . S
O343 C348 1.255 . S
Cd344 O343 2.385 . S
Cd344 O345 2.317 . S
O345 Cd344 2.317 . S
O345 C346 1.232 . S
C346 O345 1.232 . S
C346 O347 1.218 . S
O347 C346 1.218 . S
C348 O341 1.275 . S
C348 O343 1.255 . S
C349 O350 1.258 . S
C349 O351 1.256 . S
O350 Cd342 2.381 1_455 S
O350 C349 1.258 . S
O351 Cd342 2.378 1_455 S
O351 C349 1.256 . S
O352 Cd353 2.300 . S
O352 C359 1.275 . S
Cd353 O352 2.300 . S
Cd353 O361 2.381 . S
Cd353 O362 2.378 . S
O354 Cd355 2.385 . S
O354 C359 1.255 . S
Cd355 O354 2.385 . S
Cd355 O356 2.317 . S
O356 Cd355 2.317 . S
O356 C357 1.232 . S
C357 O356 1.232 . S
C357 O358 1.218 . S
O358 C357 1.218 . S
C359 O352 1.275 . S
C359 O354 1.255 . S
C360 O361 1.258 . S
C360 O362 1.256 . S
O361 Cd353 2.381 . S
O361 C360 1.258 . S
O362 Cd353 2.378 . S
O362 C360 1.256 . S
O363 Cd364 2.300 . S
O363 C370 1.275 . S
Cd364 O363 2.300 . S
Cd364 O372 2.381 . S
Cd364 O373 2.378 . S
O365 Cd366 2.385 . S
O365 C370 1.255 . S
Cd366 O365 2.385 . S
Cd366 O367 2.322 1_556 S
O367 Cd366 2.322 1_554 S
O367 C368 1.229 . S
C368 O367 1.229 . S
C368 O369 1.227 . S
O369 C368 1.227 . S
C370 O363 1.275 . S
C370 O365 1.255 . S
C371 O372 1.258 . S
C371 O373 1.256 . S
O372 Cd364 2.381 . S
O372 C371 1.258 . S
O373 Cd364 2.378 . S
O373 C371 1.256 . S
O374 Cd375 2.300 . S
O374 C381 1.275 . S
Cd375 O374 2.300 . S
Cd375 O383 2.381 . S
Cd375 O384 2.378 . S
O376 Cd377 2.385 . S
O376 C381 1.255 . S
Cd377 O376 2.385 . S
Cd377 O378 2.317 . S
O378 Cd377 2.317 . S
O378 C379 1.232 . S
C379 O378 1.232 . S
C379 O380 1.218 . S
O380 C379 1.218 . S
C381 O374 1.275 . S
C381 O376 1.255 . S
C382 O383 1.258 . S
C382 O384 1.256 . S
O383 Cd375 2.381 . S
O383 C382 1.258 . S
O384 Cd375 2.378 . S
O384 C382 1.256 . S
O385 Cd386 2.300 . S
O385 C392 1.275 . S
Cd386 O385 2.300 . S
Cd386 O394 2.381 . S
Cd386 O395 2.378 . S
O387 Cd388 2.385 . S
O387 C392 1.255 . S
Cd388 O387 2.385 . S
Cd388 O389 2.317 . S
O389 Cd388 2.317 . S
O389 C390 1.232 . S
C390 O389 1.232 . S
C390 O391 1.218 . S
O391 C390 1.218 . S
C392 O385 1.275 . S
C392 O387 1.255 . S
C393 O394 1.258 . S
C393 O395 1.256 . S
O394 Cd386 2.381 . S
O394 C393 1.258 . S
O395 Cd386 2.378 . S
O395 C393 1.256 . S
O396 Cd397 2.300 . S
O396 C403 1.275 . S
Cd397 O396 2.300 . S
Cd397 O405 2.381 . S
Cd397 O406 2.378 . S
O398 Cd399 2.385 . S
O398 C403 1.255 . S
Cd399 O398 2.385 . S
Cd399 O400 2.317 . S
O400 Cd399 2.317 . S
O400 C401 1.232 . S
C401 O400 1.232 . S
C401 O402 1.218 . S
O402 C401 1.218 . S
C403 O396 1.275 . S
C403 O398 1.255 . S
C404 O405 1.258 . S
C404 O406 1.256 . S
O405 Cd397 2.381 . S
O405 C404 1.258 . S
O406 Cd397 2.378 . S
O406 C404 1.256 . S
O407 Cd408 2.300 . S
O407 C414 1.275 . S
Cd408 O407 2.300 . S
Cd408 O416 2.381 . S
Cd408 O417 2.378 . S
O409 Cd410 2.385 . S
O409 C414 1.255 . S
Cd410 O409 2.385 . S
Cd410 O411 2.317 . S
O411 Cd410 2.317 . S
O411 C412 1.232 . S
C412 O411 1.232 . S
C412 O413 1.218 . S
O413 C412 1.218 . S
C414 O407 1.275 . S
C414 O409 1.255 . S
C415 O416 1.258 . S
C415 O417 1.256 . S
O416 Cd408 2.381 . S
O416 C415 1.258 . S
O417 Cd408 2.378 . S
O417 C415 1.256 . S
O418 Cd419 2.300 . S
O418 C425 1.275 . S
Cd419 O418 2.300 . S
Cd419 O427 2.381 . S
Cd419 O428 2.378 . S
O420 Cd421 2.385 . S
O420 C425 1.255 . S
Cd421 O420 2.385 . S
Cd421 O422 2.317 . S
O422 Cd421 2.317 . S
O422 C423 1.232 . S
C423 O422 1.232 . S
C423 O424 1.218 . S
O424 C423 1.218 . S
C425 O418 1.275 . S
C425 O420 1.255 . S
C426 O427 1.258 . S
C426 O428 1.256 . S
O427 Cd419 2.381 . S
O427 C426 1.258 . S
O428 Cd419 2.378 . S
O428 C426 1.256 . S
O429 Cd430 2.300 . S
O429 C436 1.275 . S
Cd430 O429 2.300 . S
Cd430 O438 2.381 . S
Cd430 O439 2.378 . S
O431 Cd432 2.385 . S
O431 C436 1.255 . S
Cd432 O431 2.385 . S
Cd432 O433 2.317 . S
O433 Cd432 2.317 . S
O433 C434 1.232 . S
C434 O433 1.232 . S
C434 O435 1.218 . S
O435 C434 1.218 . S
C436 O429 1.275 . S
C436 O431 1.255 . S
C437 O438 1.258 . S
C437 O439 1.256 . S
O438 Cd430 2.381 . S
O438 C437 1.258 . S
O439 Cd430 2.378 . S
O439 C437 1.256 . S
O440 Cd441 2.300 . S
O440 C447 1.275 . S
Cd441 O440 2.300 . S
Cd441 O449 2.381 . S
Cd441 O450 2.378 . S
O442 Cd443 2.385 1_455 S
O442 C447 1.255 . S
Cd443 O442 2.385 1_655 S
Cd443 O444 2.317 . S
O444 Cd443 2.317 . S
O444 C445 1.232 . S
C445 O444 1.232 . S
C445 O446 1.218 . S
O446 C445 1.218 . S
C447 O440 1.275 . S
C447 O442 1.255 . S
C448 O449 1.258 . S
C448 O450 1.256 . S
O449 Cd441 2.381 . S
O449 C448 1.258 . S
O450 Cd441 2.378 . S
O450 C448 1.256 . S
O451 Cd452 2.300 . S
O451 C458 1.275 . S
Cd452 O451 2.300 . S
Cd452 O460 2.381 . S
Cd452 O461 2.378 . S
O453 Cd454 2.385 . S
O453 C458 1.255 . S
Cd454 O453 2.385 . S
Cd454 O455 2.317 . S
O455 Cd454 2.317 . S
O455 C456 1.232 . S
C456 O455 1.232 . S
C456 O457 1.218 . S
O457 C456 1.218 . S
C458 O451 1.275 . S
C458 O453 1.255 . S
C459 O460 1.258 . S
C459 O461 1.256 . S
O460 Cd452 2.381 . S
O460 C459 1.258 . S
O461 Cd452 2.378 . S
O461 C459 1.256 . S
O462 Cd463 2.300 . S
O462 C469 1.275 . S
Cd463 O462 2.300 . S
Cd463 O471 2.381 . S
Cd463 O472 2.378 . S
O464 Cd465 2.385 . S
O464 C469 1.255 . S
Cd465 O464 2.385 . S
Cd465 O466 2.317 1_554 S
O466 Cd465 2.317 1_556 S
O466 C467 1.232 . S
C467 O466 1.232 . S
C467 O468 1.218 . S
O468 C467 1.218 . S
C469 O462 1.275 . S
C469 O464 1.255 . S
C470 O471 1.258 . S
C470 O472 1.256 . S
O471 Cd463 2.381 . S
O471 C470 1.258 . S
O472 Cd463 2.378 . S
O472 C470 1.256 . S
O473 Cd474 2.300 . S
O473 C480 1.275 . S
Cd474 O473 2.300 . S
Cd474 O482 2.381 . S
Cd474 O483 2.378 . S
O475 Cd476 2.385 . S
O475 C480 1.255 . S
Cd476 O475 2.385 . S
Cd476 O477 2.317 . S
O477 Cd476 2.317 . S
O477 C478 1.232 . S
C478 O477 1.232 . S
C478 O479 1.218 . S
O479 C478 1.218 . S
C480 O473 1.275 . S
C480 O475 1.255 . S
C481 O482 1.258 . S
C481 O483 1.256 . S
O482 Cd474 2.381 . S
O482 C481 1.258 . S
O483 Cd474 2.378 . S
O483 C481 1.256 . S
O484 Cd485 2.300 . S
O484 C491 1.275 . S
Cd485 O484 2.300 . S
Cd485 O493 2.381 . S
Cd485 O494 2.378 . S
O486 Cd487 2.385 . S
O486 C491 1.255 . S
Cd487 O486 2.385 . S
Cd487 O488 2.317 . S
O488 Cd487 2.317 . S
O488 C489 1.232 . S
C489 O488 1.232 . S
C489 O490 1.218 . S
O490 C489 1.218 . S
C491 O484 1.275 . S
C491 O486 1.255 . S
C492 O493 1.258 . S
C492 O494 1.256 . S
O493 Cd485 2.381 . S
O493 C492 1.258 . S
O494 Cd485 2.378 . S
O494 C492 1.256 . S
O495 Cd496 2.300 . S
O495 C502 1.275 . S
Cd496 O495 2.300 . S
Cd496 O504 2.381 . S
Cd496 O505 2.378 . S
O497 Cd498 2.385 . S
O497 C502 1.255 . S
Cd498 O497 2.385 . S
Cd498 O499 2.317 . S
O499 Cd498 2.317 . S
O499 C500 1.232 . S
C500 O499 1.232 . S
C500 O501 1.218 . S
O501 C500 1.218 . S
C502 O495 1.275 . S
C502 O497 1.255 . S
C503 O504 1.258 . S
C503 O505 1.256 . S
O504 Cd496 2.381 . S
O504 C503 1.258 . S
O505 Cd496 2.378 . S
O505 C503 1.256 . S
O506 Cd507 2.300 . S
O506 C513 1.275 . S
Cd507 O506 2.300 . S
Cd507 O515 2.381 . S
Cd507 O516 2.378 . S
O508 Cd509 2.385 . S
O508 C513 1.255 . S
Cd509 O508 2.385 . S
Cd509 O510 2.317 . S
O510 Cd509 2.317 . S
O510 C511 1.232 . S
C511 O510 1.232 . S
C511 O512 1.218 . S
O512 C511 1.218 . S
C513 O506 1.275 . S
C513 O508 1.255 . S
C514 O515 1.258 . S
C514 O516 1.256 . S
O515 Cd507 2.381 . S
O515 C514 1.258 . S
O516 Cd507 2.378 . S
O516 C514 1.256 . S
O517 Cd518 2.300 . S
O517 C524 1.275 . S
Cd518 O517 2.300 . S
Cd518 O526 2.381 . S
Cd518 O527 2.378 . S
O519 Cd520 2.385 . S
O519 C524 1.255 . S
Cd520 O519 2.385 . S
Cd520 O521 2.317 . S
O521 Cd520 2.317 . S
O521 C522 1.232 . S
C522 O521 1.232 . S
C522 O523 1.218 . S
O523 C522 1.218 . S
C524 O517 1.275 . S
C524 O519 1.255 . S
C525 O526 1.258 . S
C525 O527 1.256 . S
O526 Cd518 2.381 . S
O526 C525 1.258 . S
O527 Cd518 2.378 . S
O527 C525 1.256 . S
P528 O539 1.490 . S
P528 C542 1.812 . S
P528 C548 1.803 . S
P528 C554 1.819 . S
H529 C543 0.941 . S
H530 C544 0.939 . S
H531 C546 0.940 . S
H532 C547 0.940 . S
H533 C549 0.939 . S
H534 C550 0.942 . S
H535 C552 0.940 . S
H536 C553 0.939 . S
H537 C555 0.941 . S
H538 C559 0.939 . S
O539 P528 1.490 . S
H540 C556 0.939 . S
H541 C558 0.940 . S
C542 P528 1.812 . S
C542 C543 1.389 . S
C542 C547 1.391 . S
C543 H529 0.941 . S
C543 C542 1.389 . S
C543 C544 1.397 . S
C544 H530 0.939 . S
C544 C543 1.397 . S
C544 C545 1.378 . S
C545 C544 1.378 . S
C545 C546 1.378 . S
C546 H531 0.940 . S
C546 C545 1.378 . S
C546 C547 1.396 . S
C547 H532 0.940 . S
C547 C542 1.391 . S
C547 C546 1.396 . S
C548 P528 1.803 . S
C548 C549 1.378 . S
C548 C553 1.400 . S
C549 H533 0.939 . S
C549 C548 1.378 . S
C549 C550 1.361 . S
C550 H534 0.942 . S
C550 C549 1.361 . S
C550 C551 1.369 . S
C551 C550 1.369 . S
C551 C552 1.404 . S
C552 H535 0.940 . S
C552 C551 1.404 . S
C552 C553 1.389 . S
C553 H536 0.939 . S
C553 C548 1.400 . S
C553 C552 1.389 . S
C554 P528 1.819 . S
C554 C555 1.391 . S
C554 C559 1.391 . S
C555 H537 0.941 . S
C555 C554 1.391 . S
C555 C556 1.396 . S
C556 H540 0.939 . S
C556 C555 1.396 . S
C556 C557 1.397 . S
C557 C556 1.397 . S
C557 C558 1.385 . S
C558 H541 0.940 . S
C558 C557 1.385 . S
C558 C559 1.388 . S
C559 H538 0.939 . S
C559 C554 1.391 . S
C559 C558 1.388 . S
P560 O571 1.490 . S
P560 C574 1.812 . S
P560 C580 1.803 . S
P560 C586 1.819 . S
H561 C575 0.941 . S
H562 C576 0.939 . S
H563 C578 0.940 . S
H564 C579 0.940 . S
H565 C581 0.939 . S
H566 C582 0.942 . S
H567 C584 0.940 . S
H568 C585 0.939 . S
H569 C587 0.941 . S
H570 C591 0.939 . S
O571 P560 1.490 . S
H572 C588 0.939 . S
H573 C590 0.940 . S
C574 P560 1.812 . S
C574 C575 1.389 . S
C574 C579 1.391 . S
C575 H561 0.941 . S
C575 C574 1.389 . S
C575 C576 1.397 . S
C576 H562 0.939 . S
C576 C575 1.397 . S
C576 C577 1.378 . S
C577 C576 1.378 . S
C577 C578 1.378 . S
C578 H563 0.940 . S
C578 C577 1.378 . S
C578 C579 1.396 . S
C579 H564 0.940 . S
C579 C574 1.391 . S
C579 C578 1.396 . S
C580 P560 1.803 . S
C580 C581 1.378 . S
C580 C585 1.400 . S
C581 H565 0.939 . S
C581 C580 1.378 . S
C581 C582 1.361 . S
C582 H566 0.942 . S
C582 C581 1.361 . S
C582 C583 1.369 . S
C583 C582 1.369 . S
C583 C584 1.404 . S
C584 H567 0.940 . S
C584 C583 1.404 . S
C584 C585 1.389 . S
C585 H568 0.939 . S
C585 C580 1.400 . S
C585 C584 1.389 . S
C586 P560 1.819 . S
C586 C587 1.391 . S
C586 C591 1.391 . S
C587 H569 0.941 . S
C587 C586 1.391 . S
C587 C588 1.396 . S
C588 H572 0.939 . S
C588 C587 1.396 . S
C588 C589 1.397 . S
C589 C588 1.397 . S
C589 C590 1.385 . S
C590 H573 0.940 . S
C590 C589 1.385 . S
C590 C591 1.388 . S
C591 H570 0.939 . S
C591 C586 1.391 . S
C591 C590 1.388 . S
P592 O603 1.490 . S
P592 C606 1.812 . S
P592 C612 1.803 . S
P592 C618 1.819 . S
H593 C607 0.941 . S
H594 C608 0.939 . S
H595 C610 0.940 . S
H596 C611 0.940 . S
H597 C613 0.939 . S
H598 C614 0.942 . S
H599 C616 0.940 . S
H600 C617 0.939 . S
H601 C619 0.941 . S
H602 C623 0.939 . S
O603 P592 1.490 . S
H604 C620 0.939 . S
H605 C622 0.940 . S
C606 P592 1.812 . S
C606 C607 1.389 . S
C606 C611 1.391 . S
C607 H593 0.941 . S
C607 C606 1.389 . S
C607 C608 1.397 . S
C608 H594 0.939 . S
C608 C607 1.397 . S
C608 C609 1.378 . S
C609 C608 1.378 . S
C609 C610 1.378 . S
C610 H595 0.940 . S
C610 C609 1.378 . S
C610 C611 1.396 . S
C611 H596 0.940 . S
C611 C606 1.391 . S
C611 C610 1.396 . S
C612 P592 1.803 . S
C612 C613 1.378 . S
C612 C617 1.400 . S
C613 H597 0.939 . S
C613 C612 1.378 . S
C613 C614 1.361 . S
C614 H598 0.942 . S
C614 C613 1.361 . S
C614 C615 1.369 . S
C615 C614 1.369 . S
C615 C616 1.404 . S
C616 H599 0.940 . S
C616 C615 1.404 . S
C616 C617 1.389 . S
C617 H600 0.939 . S
C617 C612 1.400 . S
C617 C616 1.389 . S
C618 P592 1.819 . S
C618 C619 1.391 . S
C618 C623 1.391 . S
C619 H601 0.941 . S
C619 C618 1.391 . S
C619 C620 1.396 . S
C620 H604 0.939 . S
C620 C619 1.396 . S
C620 C621 1.397 . S
C621 C620 1.397 . S
C621 C622 1.385 . S
C622 H605 0.940 . S
C622 C621 1.385 . S
C622 C623 1.388 . S
C623 H602 0.939 . S
C623 C618 1.391 . S
C623 C622 1.388 . S
P624 O635 1.490 . S
P624 C638 1.812 . S
P624 C644 1.803 . S
P624 C650 1.819 . S
H625 C639 0.941 . S
H626 C640 0.939 . S
H627 C642 0.940 . S
H628 C643 0.940 . S
H629 C645 0.939 . S
H630 C646 0.942 . S
H631 C648 0.940 . S
H632 C649 0.939 . S
H633 C651 0.941 . S
H634 C655 0.939 . S
O635 P624 1.490 . S
H636 C652 0.939 . S
H637 C654 0.940 . S
C638 P624 1.812 . S
C638 C639 1.389 . S
C638 C643 1.391 . S
C639 H625 0.941 . S
C639 C638 1.389 . S
C639 C640 1.397 . S
C640 H626 0.939 . S
C640 C639 1.397 . S
C640 C641 1.378 . S
C641 C640 1.378 . S
C641 C642 1.378 . S
C642 H627 0.940 . S
C642 C641 1.378 . S
C642 C643 1.396 . S
C643 H628 0.940 . S
C643 C638 1.391 . S
C643 C642 1.396 . S
C644 P624 1.803 . S
C644 C645 1.378 . S
C644 C649 1.400 . S
C645 H629 0.939 . S
C645 C644 1.378 . S
C645 C646 1.361 . S
C646 H630 0.942 . S
C646 C645 1.361 . S
C646 C647 1.369 . S
C647 C646 1.369 . S
C647 C648 1.404 . S
C648 H631 0.940 . S
C648 C647 1.404 . S
C648 C649 1.389 . S
C649 H632 0.939 . S
C649 C644 1.400 . S
C649 C648 1.389 . S
C650 P624 1.819 . S
C650 C651 1.391 . S
C650 C655 1.391 . S
C651 H633 0.941 . S
C651 C650 1.391 . S
C651 C652 1.396 . S
C652 H636 0.939 . S
C652 C651 1.396 . S
C652 C653 1.397 . S
C653 C652 1.397 . S
C653 C654 1.385 . S
C654 H637 0.940 . S
C654 C653 1.385 . S
C654 C655 1.388 . S
C655 H634 0.939 . S
C655 C650 1.391 . S
C655 C654 1.388 . S
P656 O667 1.490 . S
P656 C670 1.812 . S
P656 C676 1.803 . S
P656 C682 1.819 . S
H657 C671 0.941 . S
H658 C672 0.939 . S
H659 C674 0.940 . S
H660 C675 0.940 . S
H661 C677 0.939 . S
H662 C678 0.942 . S
H663 C680 0.940 . S
H664 C681 0.939 . S
H665 C683 0.941 . S
H666 C687 0.939 . S
O667 P656 1.490 . S
H668 C684 0.939 . S
H669 C686 0.940 . S
C670 P656 1.812 . S
C670 C671 1.389 . S
C670 C675 1.391 . S
C671 H657 0.941 . S
C671 C670 1.389 . S
C671 C672 1.397 . S
C672 H658 0.939 . S
C672 C671 1.397 . S
C672 C673 1.378 . S
C673 C672 1.378 . S
C673 C674 1.378 . S
C674 H659 0.940 . S
C674 C673 1.378 . S
C674 C675 1.396 . S
C675 H660 0.940 . S
C675 C670 1.391 . S
C675 C674 1.396 . S
C676 P656 1.803 . S
C676 C677 1.378 . S
C676 C681 1.400 . S
C677 H661 0.939 . S
C677 C676 1.378 . S
C677 C678 1.361 . S
C678 H662 0.942 . S
C678 C677 1.361 . S
C678 C679 1.369 . S
C679 C678 1.369 . S
C679 C680 1.404 . S
C680 H663 0.940 . S
C680 C679 1.404 . S
C680 C681 1.389 . S
C681 H664 0.939 . S
C681 C676 1.400 . S
C681 C680 1.389 . S
C682 P656 1.819 . S
C682 C683 1.391 . S
C682 C687 1.391 . S
C683 H665 0.941 . S
C683 C682 1.391 . S
C683 C684 1.396 . S
C684 H668 0.939 . S
C684 C683 1.396 . S
C684 C685 1.397 . S
C685 C684 1.397 . S
C685 C686 1.385 . S
C686 H669 0.940 . S
C686 C685 1.385 . S
C686 C687 1.388 . S
C687 H666 0.939 . S
C687 C682 1.391 . S
C687 C686 1.388 . S
P688 O699 1.490 . S
P688 C702 1.812 . S
P688 C708 1.803 . S
P688 C714 1.819 . S
H689 C703 0.941 . S
H690 C704 0.939 . S
H691 C706 0.940 . S
H692 C707 0.940 . S
H693 C709 0.939 . S
H694 C710 0.942 . S
H695 C712 0.940 . S
H696 C713 0.939 . S
H697 C715 0.941 . S
H698 C719 0.939 . S
O699 P688 1.490 . S
H700 C716 0.939 . S
H701 C718 0.940 . S
C702 P688 1.812 . S
C702 C703 1.389 . S
C702 C707 1.391 . S
C703 H689 0.941 . S
C703 C702 1.389 . S
C703 C704 1.397 . S
C704 H690 0.939 . S
C704 C703 1.397 . S
C704 C705 1.378 . S
C705 C704 1.378 . S
C705 C706 1.378 . S
C706 H691 0.940 . S
C706 C705 1.378 . S
C706 C707 1.396 . S
C707 H692 0.940 . S
C707 C702 1.391 . S
C707 C706 1.396 . S
C708 P688 1.803 . S
C708 C709 1.378 . S
C708 C713 1.400 . S
C709 H693 0.939 . S
C709 C708 1.378 . S
C709 C710 1.361 . S
C710 H694 0.942 . S
C710 C709 1.361 . S
C710 C711 1.369 . S
C711 C710 1.369 . S
C711 C712 1.404 . S
C712 H695 0.940 . S
C712 C711 1.404 . S
C712 C713 1.389 . S
C713 H696 0.939 . S
C713 C708 1.400 . S
C713 C712 1.389 . S
C714 P688 1.819 . S
C714 C715 1.391 . S
C714 C719 1.391 . S
C715 H697 0.941 . S
C715 C714 1.391 . S
C715 C716 1.396 . S
C716 H700 0.939 . S
C716 C715 1.396 . S
C716 C717 1.397 . S
C717 C716 1.397 . S
C717 C718 1.385 . S
C718 H701 0.940 . S
C718 C717 1.385 . S
C718 C719 1.388 . S
C719 H698 0.939 . S
C719 C714 1.391 . S
C719 C718 1.388 . S
P720 O731 1.490 . S
P720 C734 1.812 . S
P720 C740 1.803 . S
P720 C746 1.819 . S
H721 C735 0.941 . S
H722 C736 0.939 . S
H723 C738 0.940 . S
H724 C739 0.940 . S
H725 C741 0.939 . S
H726 C742 0.942 . S
H727 C744 0.940 . S
H728 C745 0.939 . S
H729 C747 0.941 . S
H730 C751 0.939 . S
O731 P720 1.490 . S
H732 C748 0.939 . S
H733 C750 0.940 . S
C734 P720 1.812 . S
C734 C735 1.389 . S
C734 C739 1.391 . S
C735 H721 0.941 . S
C735 C734 1.389 . S
C735 C736 1.397 . S
C736 H722 0.939 . S
C736 C735 1.397 . S
C736 C737 1.378 . S
C737 C736 1.378 . S
C737 C738 1.378 . S
C738 H723 0.940 . S
C738 C737 1.378 . S
C738 C739 1.396 . S
C739 H724 0.940 . S
C739 C734 1.391 . S
C739 C738 1.396 . S
C740 P720 1.803 . S
C740 C741 1.378 . S
C740 C745 1.400 . S
C741 H725 0.939 . S
C741 C740 1.378 . S
C741 C742 1.361 . S
C742 H726 0.942 . S
C742 C741 1.361 . S
C742 C743 1.369 . S
C743 C742 1.369 . S
C743 C744 1.404 . S
C744 H727 0.940 . S
C744 C743 1.404 . S
C744 C745 1.389 . S
C745 H728 0.939 . S
C745 C740 1.400 . S
C745 C744 1.389 . S
C746 P720 1.819 . S
C746 C747 1.391 . S
C746 C751 1.391 . S
C747 H729 0.941 . S
C747 C746 1.391 . S
C747 C748 1.396 . S
C748 H732 0.939 . S
C748 C747 1.396 . S
C748 C749 1.397 . S
C749 C748 1.397 . S
C749 C750 1.385 . S
C750 H733 0.940 . S
C750 C749 1.385 . S
C750 C751 1.388 . S
C751 H730 0.939 . S
C751 C746 1.391 . S
C751 C750 1.388 . S
P752 O763 1.490 . S
P752 C766 1.812 . S
P752 C772 1.803 . S
P752 C778 1.819 . S
H753 C767 0.941 . S
H754 C768 0.939 . S
H755 C770 0.940 . S
H756 C771 0.940 . S
H757 C773 0.939 . S
H758 C774 0.942 . S
H759 C776 0.940 . S
H760 C777 0.939 . S
H761 C779 0.941 . S
H762 C783 0.939 . S
O763 P752 1.490 . S
H764 C780 0.939 . S
H765 C782 0.940 . S
C766 P752 1.812 . S
C766 C767 1.389 . S
C766 C771 1.391 . S
C767 H753 0.941 . S
C767 C766 1.389 . S
C767 C768 1.397 . S
C768 H754 0.939 . S
C768 C767 1.397 . S
C768 C769 1.378 . S
C769 C768 1.378 . S
C769 C770 1.378 . S
C770 H755 0.940 . S
C770 C769 1.378 . S
C770 C771 1.396 . S
C771 H756 0.940 . S
C771 C766 1.391 . S
C771 C770 1.396 . S
C772 P752 1.803 . S
C772 C773 1.378 . S
C772 C777 1.400 . S
C773 H757 0.939 . S
C773 C772 1.378 . S
C773 C774 1.361 . S
C774 H758 0.942 . S
C774 C773 1.361 . S
C774 C775 1.369 . S
C775 C774 1.369 . S
C775 C776 1.404 . S
C776 H759 0.940 . S
C776 C775 1.404 . S
C776 C777 1.389 . S
C777 H760 0.939 . S
C777 C772 1.400 . S
C777 C776 1.389 . S
C778 P752 1.819 . S
C778 C779 1.391 . S
C778 C783 1.391 . S
C779 H761 0.941 . S
C779 C778 1.391 . S
C779 C780 1.396 . S
C780 H764 0.939 . S
C780 C779 1.396 . S
C780 C781 1.397 . S
C781 C780 1.397 . S
C781 C782 1.385 . S
C782 H765 0.940 . S
C782 C781 1.385 . S
C782 C783 1.388 . S
C783 H762 0.939 . S
C783 C778 1.391 . S
C783 C782 1.388 . S
P784 O795 1.490 . S
P784 C798 1.812 . S
P784 C804 1.803 . S
P784 C810 1.819 . S
H785 C799 0.941 . S
H786 C800 0.939 . S
H787 C802 0.940 . S
H788 C803 0.940 . S
H789 C805 0.939 . S
H790 C806 0.942 . S
H791 C808 0.940 . S
H792 C809 0.939 . S
H793 C811 0.941 . S
H794 C815 0.939 . S
O795 P784 1.490 . S
H796 C812 0.939 . S
H797 C814 0.940 . S
C798 P784 1.812 . S
C798 C799 1.389 . S
C798 C803 1.391 . S
C799 H785 0.941 . S
C799 C798 1.389 . S
C799 C800 1.397 . S
C800 H786 0.939 . S
C800 C799 1.397 . S
C800 C801 1.378 . S
C801 C800 1.378 . S
C801 C802 1.378 . S
C802 H787 0.940 . S
C802 C801 1.378 . S
C802 C803 1.396 . S
C803 H788 0.940 . S
C803 C798 1.391 . S
C803 C802 1.396 . S
C804 P784 1.803 . S
C804 C805 1.378 . S
C804 C809 1.400 . S
C805 H789 0.939 . S
C805 C804 1.378 . S
C805 C806 1.361 . S
C806 H790 0.942 . S
C806 C805 1.361 . S
C806 C807 1.369 . S
C807 C806 1.369 . S
C807 C808 1.404 . S
C808 H791 0.940 . S
C808 C807 1.404 . S
C808 C809 1.389 . S
C809 H792 0.939 . S
C809 C804 1.400 . S
C809 C808 1.389 . S
C810 P784 1.819 . S
C810 C811 1.391 . S
C810 C815 1.391 . S
C811 H793 0.941 . S
C811 C810 1.391 . S
C811 C812 1.396 . S
C812 H796 0.939 . S
C812 C811 1.396 . S
C812 C813 1.397 . S
C813 C812 1.397 . S
C813 C814 1.385 . S
C814 H797 0.940 . S
C814 C813 1.385 . S
C814 C815 1.388 . S
C815 H794 0.939 . S
C815 C810 1.391 . S
C815 C814 1.388 . S
P816 O827 1.490 . S
P816 C830 1.812 . S
P816 C836 1.803 . S
P816 C842 1.819 . S
H817 C831 0.941 . S
H818 C832 0.939 . S
H819 C834 0.940 . S
H820 C835 0.940 . S
H821 C837 0.939 . S
H822 C838 0.942 . S
H823 C840 0.940 . S
H824 C841 0.939 . S
H825 C843 0.941 . S
H826 C847 0.939 . S
O827 P816 1.490 . S
H828 C844 0.939 . S
H829 C846 0.940 . S
C830 P816 1.812 . S
C830 C831 1.389 . S
C830 C835 1.391 . S
C831 H817 0.941 . S
C831 C830 1.389 . S
C831 C832 1.397 . S
C832 H818 0.939 . S
C832 C831 1.397 . S
C832 C833 1.378 . S
C833 C832 1.378 . S
C833 C834 1.378 . S
C834 H819 0.940 . S
C834 C833 1.378 . S
C834 C835 1.396 . S
C835 H820 0.940 . S
C835 C830 1.391 . S
C835 C834 1.396 . S
C836 P816 1.803 . S
C836 C837 1.378 . S
C836 C841 1.400 . S
C837 H821 0.939 . S
C837 C836 1.378 . S
C837 C838 1.361 . S
C838 H822 0.942 . S
C838 C837 1.361 . S
C838 C839 1.369 . S
C839 C838 1.369 . S
C839 C840 1.404 . S
C840 H823 0.940 . S
C840 C839 1.404 . S
C840 C841 1.389 . S
C841 H824 0.939 . S
C841 C836 1.400 . S
C841 C840 1.389 . S
C842 P816 1.819 . S
C842 C843 1.391 . S
C842 C847 1.391 . S
C843 H825 0.941 . S
C843 C842 1.391 . S
C843 C844 1.396 . S
C844 H828 0.939 . S
C844 C843 1.396 . S
C844 C845 1.397 . S
C845 C844 1.397 . S
C845 C846 1.385 . S
C846 H829 0.940 . S
C846 C845 1.385 . S
C846 C847 1.388 . S
C847 H826 0.939 . S
C847 C842 1.391 . S
C847 C846 1.388 . S
P848 O859 1.490 . S
P848 C862 1.812 . S
P848 C868 1.803 . S
P848 C874 1.819 . S
H849 C863 0.941 . S
H850 C864 0.939 . S
H851 C866 0.940 . S
H852 C867 0.940 . S
H853 C869 0.939 . S
H854 C870 0.942 . S
H855 C872 0.940 . S
H856 C873 0.939 . S
H857 C875 0.941 . S
H858 C879 0.939 . S
O859 P848 1.490 . S
H860 C876 0.939 . S
H861 C878 0.940 . S
C862 P848 1.812 . S
C862 C863 1.389 . S
C862 C867 1.391 . S
C863 H849 0.941 . S
C863 C862 1.389 . S
C863 C864 1.397 . S
C864 H850 0.939 . S
C864 C863 1.397 . S
C864 C865 1.378 . S
C865 C864 1.378 . S
C865 C866 1.378 . S
C866 H851 0.940 . S
C866 C865 1.378 . S
C866 C867 1.396 . S
C867 H852 0.940 . S
C867 C862 1.391 . S
C867 C866 1.396 . S
C868 P848 1.803 . S
C868 C869 1.378 . S
C868 C873 1.400 . S
C869 H853 0.939 . S
C869 C868 1.378 . S
C869 C870 1.361 . S
C870 H854 0.942 . S
C870 C869 1.361 . S
C870 C871 1.369 . S
C871 C870 1.369 . S
C871 C872 1.404 . S
C872 H855 0.940 . S
C872 C871 1.404 . S
C872 C873 1.389 . S
C873 H856 0.939 . S
C873 C868 1.400 . S
C873 C872 1.389 . S
C874 P848 1.819 . S
C874 C875 1.391 . S
C874 C879 1.391 . S
C875 H857 0.941 . S
C875 C874 1.391 . S
C875 C876 1.396 . S
C876 H860 0.939 . S
C876 C875 1.396 . S
C876 C877 1.397 . S
C877 C876 1.397 . S
C877 C878 1.385 . S
C878 H861 0.940 . S
C878 C877 1.385 . S
C878 C879 1.388 . S
C879 H858 0.939 . S
C879 C874 1.391 . S
C879 C878 1.388 . S
P880 O891 1.490 . S
P880 C894 1.812 . S
P880 C900 1.803 . S
P880 C906 1.819 . S
H881 C895 0.941 . S
H882 C896 0.939 . S
H883 C898 0.940 . S
H884 C899 0.940 . S
H885 C901 0.939 . S
H886 C902 0.942 . S
H887 C904 0.940 . S
H888 C905 0.939 . S
H889 C907 0.941 . S
H890 C911 0.939 . S
O891 P880 1.490 . S
H892 C908 0.939 . S
H893 C910 0.940 . S
C894 P880 1.812 . S
C894 C895 1.389 . S
C894 C899 1.391 . S
C895 H881 0.941 . S
C895 C894 1.389 . S
C895 C896 1.397 . S
C896 H882 0.939 . S
C896 C895 1.397 . S
C896 C897 1.378 . S
C897 C896 1.378 . S
C897 C898 1.378 . S
C898 H883 0.940 . S
C898 C897 1.378 . S
C898 C899 1.396 . S
C899 H884 0.940 . S
C899 C894 1.391 . S
C899 C898 1.396 . S
C900 P880 1.803 . S
C900 C901 1.378 . S
C900 C905 1.400 . S
C901 H885 0.939 . S
C901 C900 1.378 . S
C901 C902 1.361 . S
C902 H886 0.942 . S
C902 C901 1.361 . S
C902 C903 1.369 . S
C903 C902 1.369 . S
C903 C904 1.404 . S
C904 H887 0.940 . S
C904 C903 1.404 . S
C904 C905 1.389 . S
C905 H888 0.939 . S
C905 C900 1.400 . S
C905 C904 1.389 . S
C906 P880 1.819 . S
C906 C907 1.391 . S
C906 C911 1.391 . S
C907 H889 0.941 . S
C907 C906 1.391 . S
C907 C908 1.396 . S
C908 H892 0.939 . S
C908 C907 1.396 . S
C908 C909 1.397 . S
C909 C908 1.397 . S
C909 C910 1.385 . S
C910 H893 0.940 . S
C910 C909 1.385 . S
C910 C911 1.388 . S
C911 H890 0.939 . S
C911 C906 1.391 . S
C911 C910 1.388 . S
P912 O923 1.490 . S
P912 C926 1.812 . S
P912 C932 1.803 . S
P912 C938 1.819 . S
H913 C927 0.941 . S
H914 C928 0.939 . S
H915 C930 0.940 . S
H916 C931 0.940 . S
H917 C933 0.939 . S
H918 C934 0.942 . S
H919 C936 0.940 . S
H920 C937 0.939 . S
H921 C939 0.941 . S
H922 C943 0.939 . S
O923 P912 1.490 . S
H924 C940 0.939 . S
H925 C942 0.940 . S
C926 P912 1.812 . S
C926 C927 1.389 . S
C926 C931 1.391 . S
C927 H913 0.941 . S
C927 C926 1.389 . S
C927 C928 1.397 . S
C928 H914 0.939 . S
C928 C927 1.397 . S
C928 C929 1.378 . S
C929 C928 1.378 . S
C929 C930 1.378 . S
C930 H915 0.940 . S
C930 C929 1.378 . S
C930 C931 1.396 . S
C931 H916 0.940 . S
C931 C926 1.391 . S
C931 C930 1.396 . S
C932 P912 1.803 . S
C932 C933 1.378 . S
C932 C937 1.400 . S
C933 H917 0.939 . S
C933 C932 1.378 . S
C933 C934 1.361 . S
C934 H918 0.942 . S
C934 C933 1.361 . S
C934 C935 1.369 . S
C935 C934 1.369 . S
C935 C936 1.404 . S
C936 H919 0.940 . S
C936 C935 1.404 . S
C936 C937 1.389 . S
C937 H920 0.939 . S
C937 C932 1.400 . S
C937 C936 1.389 . S
C938 P912 1.819 . S
C938 C939 1.391 . S
C938 C943 1.391 . S
C939 H921 0.941 . S
C939 C938 1.391 . S
C939 C940 1.396 . S
C940 H924 0.939 . S
C940 C939 1.396 . S
C940 C941 1.397 . S
C941 C940 1.397 . S
C941 C942 1.385 . S
C942 H925 0.940 . S
C942 C941 1.385 . S
C942 C943 1.388 . S
C943 H922 0.939 . S
C943 C938 1.391 . S
C943 C942 1.388 . S
P944 O955 1.490 . S
P944 C958 1.812 . S
P944 C964 1.803 . S
P944 C970 1.819 . S
H945 C959 0.941 . S
H946 C960 0.939 . S
H947 C962 0.940 . S
H948 C963 0.940 . S
H949 C965 0.939 . S
H950 C966 0.942 . S
H951 C968 0.940 . S
H952 C969 0.939 . S
H953 C971 0.941 . S
H954 C975 0.939 . S
O955 P944 1.490 . S
H956 C972 0.939 . S
H957 C974 0.940 . S
C958 P944 1.812 . S
C958 C959 1.389 . S
C958 C963 1.391 . S
C959 H945 0.941 . S
C959 C958 1.389 . S
C959 C960 1.397 . S
C960 H946 0.939 . S
C960 C959 1.397 . S
C960 C961 1.378 . S
C961 C960 1.378 . S
C961 C962 1.378 . S
C962 H947 0.940 . S
C962 C961 1.378 . S
C962 C963 1.396 . S
C963 H948 0.940 . S
C963 C958 1.391 . S
C963 C962 1.396 . S
C964 P944 1.803 . S
C964 C965 1.378 . S
C964 C969 1.400 . S
C965 H949 0.939 . S
C965 C964 1.378 . S
C965 C966 1.361 . S
C966 H950 0.942 . S
C966 C965 1.361 . S
C966 C967 1.369 . S
C967 C966 1.369 . S
C967 C968 1.404 . S
C968 H951 0.940 . S
C968 C967 1.404 . S
C968 C969 1.389 . S
C969 H952 0.939 . S
C969 C964 1.400 . S
C969 C968 1.389 . S
C970 P944 1.819 . S
C970 C971 1.391 . S
C970 C975 1.391 . S
C971 H953 0.941 . S
C971 C970 1.391 . S
C971 C972 1.396 . S
C972 H956 0.939 . S
C972 C971 1.396 . S
C972 C973 1.397 . S
C973 C972 1.397 . S
C973 C974 1.385 . S
C974 H957 0.940 . S
C974 C973 1.385 . S
C974 C975 1.388 . S
C975 H954 0.939 . S
C975 C970 1.391 . S
C975 C974 1.388 . S
P976 O987 1.490 . S
P976 C990 1.812 . S
P976 C996 1.803 . S
P976 C1002 1.819 . S
H977 C991 0.941 . S
H978 C992 0.939 . S
H979 C994 0.940 . S
H980 C995 0.940 . S
H981 C997 0.939 . S
H982 C998 0.942 . S
H983 C1000 0.940 . S
H984 C1001 0.939 . S
H985 C1003 0.941 . S
H986 C1007 0.939 . S
O987 P976 1.490 . S
H988 C1004 0.939 . S
H989 C1006 0.940 . S
C990 P976 1.812 . S
C990 C991 1.389 . S
C990 C995 1.391 . S
C991 H977 0.941 . S
C991 C990 1.389 . S
C991 C992 1.397 . S
C992 H978 0.939 . S
C992 C991 1.397 . S
C992 C993 1.378 . S
C993 C992 1.378 . S
C993 C994 1.378 . S
C994 H979 0.940 . S
C994 C993 1.378 . S
C994 C995 1.396 . S
C995 H980 0.940 . S
C995 C990 1.391 . S
C995 C994 1.396 . S
C996 P976 1.803 . S
C996 C997 1.378 . S
C996 C1001 1.400 . S
C997 H981 0.939 . S
C997 C996 1.378 . S
C997 C998 1.361 . S
C998 H982 0.942 . S
C998 C997 1.361 . S
C998 C999 1.369 . S
C999 C998 1.369 . S
C999 C1000 1.404 . S
C1000 H983 0.940 . S
C1000 C999 1.404 . S
C1000 C1001 1.389 . S
C1001 H984 0.939 . S
C1001 C996 1.400 . S
C1001 C1000 1.389 . S
C1002 P976 1.819 . S
C1002 C1003 1.391 . S
C1002 C1007 1.391 . S
C1003 H985 0.941 . S
C1003 C1002 1.391 . S
C1003 C1004 1.396 . S
C1004 H988 0.939 . S
C1004 C1003 1.396 . S
C1004 C1005 1.397 . S
C1005 C1004 1.397 . S
C1005 C1006 1.385 . S
C1006 H989 0.940 . S
C1006 C1005 1.385 . S
C1006 C1007 1.388 . S
C1007 H986 0.939 . S
C1007 C1002 1.391 . S
C1007 C1006 1.388 . S
P1008 O1019 1.490 . S
P1008 C1022 1.812 . S
P1008 C1028 1.803 . S
P1008 C1034 1.819 . S
H1009 C1023 0.941 . S
H1010 C1024 0.939 . S
H1011 C1026 0.940 . S
H1012 C1027 0.940 . S
H1013 C1029 0.939 . S
H1014 C1030 0.942 . S
H1015 C1032 0.940 . S
H1016 C1033 0.939 . S
H1017 C1035 0.941 . S
H1018 C1039 0.939 . S
O1019 P1008 1.490 . S
H1020 C1036 0.939 . S
H1021 C1038 0.940 . S
C1022 P1008 1.812 . S
C1022 C1023 1.389 . S
C1022 C1027 1.391 . S
C1023 H1009 0.941 . S
C1023 C1022 1.389 . S
C1023 C1024 1.397 . S
C1024 H1010 0.939 . S
C1024 C1023 1.397 . S
C1024 C1025 1.378 . S
C1025 C1024 1.378 . S
C1025 C1026 1.378 . S
C1026 H1011 0.940 . S
C1026 C1025 1.378 . S
C1026 C1027 1.396 . S
C1027 H1012 0.940 . S
C1027 C1022 1.391 . S
C1027 C1026 1.396 . S
C1028 P1008 1.803 . S
C1028 C1029 1.378 . S
C1028 C1033 1.400 . S
C1029 H1013 0.939 . S
C1029 C1028 1.378 . S
C1029 C1030 1.361 . S
C1030 H1014 0.942 . S
C1030 C1029 1.361 . S
C1030 C1031 1.369 . S
C1031 C1030 1.369 . S
C1031 C1032 1.404 . S
C1032 H1015 0.940 . S
C1032 C1031 1.404 . S
C1032 C1033 1.389 . S
C1033 H1016 0.939 . S
C1033 C1028 1.400 . S
C1033 C1032 1.389 . S
C1034 P1008 1.819 . S
C1034 C1035 1.391 . S
C1034 C1039 1.391 . S
C1035 H1017 0.941 . S
C1035 C1034 1.391 . S
C1035 C1036 1.396 . S
C1036 H1020 0.939 . S
C1036 C1035 1.396 . S
C1036 C1037 1.397 . S
C1037 C1036 1.397 . S
C1037 C1038 1.385 . S
C1038 H1021 0.940 . S
C1038 C1037 1.385 . S
C1038 C1039 1.388 . S
C1039 H1018 0.939 . S
C1039 C1034 1.391 . S
C1039 C1038 1.388 . S
P1040 O1051 1.490 . S
P1040 C1054 1.812 . S
P1040 C1060 1.803 . S
P1040 C1066 1.819 . S
H1041 C1055 0.941 . S
H1042 C1056 0.939 . S
H1043 C1058 0.940 . S
H1044 C1059 0.940 . S
H1045 C1061 0.939 . S
H1046 C1062 0.942 . S
H1047 C1064 0.940 . S
H1048 C1065 0.939 . S
H1049 C1067 0.941 . S
H1050 C1071 0.939 . S
O1051 P1040 1.490 . S
H1052 C1068 0.939 . S
H1053 C1070 0.940 . S
C1054 P1040 1.812 . S
C1054 C1055 1.389 . S
C1054 C1059 1.391 . S
C1055 H1041 0.941 . S
C1055 C1054 1.389 . S
C1055 C1056 1.397 . S
C1056 H1042 0.939 . S
C1056 C1055 1.397 . S
C1056 C1057 1.378 . S
C1057 C1056 1.378 . S
C1057 C1058 1.378 . S
C1058 H1043 0.940 . S
C1058 C1057 1.378 . S
C1058 C1059 1.396 . S
C1059 H1044 0.940 . S
C1059 C1054 1.391 . S
C1059 C1058 1.396 . S
C1060 P1040 1.803 . S
C1060 C1061 1.378 . S
C1060 C1065 1.400 . S
C1061 H1045 0.939 . S
C1061 C1060 1.378 . S
C1061 C1062 1.361 . S
C1062 H1046 0.942 . S
C1062 C1061 1.361 . S
C1062 C1063 1.369 . S
C1063 C1062 1.369 . S
C1063 C1064 1.404 . S
C1064 H1047 0.940 . S
C1064 C1063 1.404 . S
C1064 C1065 1.389 . S
C1065 H1048 0.939 . S
C1065 C1060 1.400 . S
C1065 C1064 1.389 . S
C1066 P1040 1.819 . S
C1066 C1067 1.391 . S
C1066 C1071 1.391 . S
C1067 H1049 0.941 . S
C1067 C1066 1.391 . S
C1067 C1068 1.396 . S
C1068 H1052 0.939 . S
C1068 C1067 1.396 . S
C1068 C1069 1.397 . S
C1069 C1068 1.397 . S
C1069 C1070 1.385 . S
C1070 H1053 0.940 . S
C1070 C1069 1.385 . S
C1070 C1071 1.388 . S
C1071 H1050 0.939 . S
C1071 C1066 1.391 . S
C1071 C1070 1.388 . S
P1072 O1083 1.490 . S
P1072 C1086 1.812 . S
P1072 C1092 1.803 . S
P1072 C1098 1.819 . S
H1073 C1087 0.941 . S
H1074 C1088 0.939 . S
H1075 C1090 0.940 . S
H1076 C1091 0.940 . S
H1077 C1093 0.939 . S
H1078 C1094 0.942 . S
H1079 C1096 0.940 . S
H1080 C1097 0.939 . S
H1081 C1099 0.941 . S
H1082 C1103 0.939 . S
O1083 P1072 1.490 . S
H1084 C1100 0.939 . S
H1085 C1102 0.940 . S
C1086 P1072 1.812 . S
C1086 C1087 1.389 . S
C1086 C1091 1.391 . S
C1087 H1073 0.941 . S
C1087 C1086 1.389 . S
C1087 C1088 1.397 . S
C1088 H1074 0.939 . S
C1088 C1087 1.397 . S
C1088 C1089 1.378 . S
C1089 C1088 1.378 . S
C1089 C1090 1.378 . S
C1090 H1075 0.940 . S
C1090 C1089 1.378 . S
C1090 C1091 1.396 . S
C1091 H1076 0.940 . S
C1091 C1086 1.391 . S
C1091 C1090 1.396 . S
C1092 P1072 1.803 . S
C1092 C1093 1.378 . S
C1092 C1097 1.400 . S
C1093 H1077 0.939 . S
C1093 C1092 1.378 . S
C1093 C1094 1.361 . S
C1094 H1078 0.942 . S
C1094 C1093 1.361 . S
C1094 C1095 1.369 . S
C1095 C1094 1.369 . S
C1095 C1096 1.404 . S
C1096 H1079 0.940 . S
C1096 C1095 1.404 . S
C1096 C1097 1.389 . S
C1097 H1080 0.939 . S
C1097 C1092 1.400 . S
C1097 C1096 1.389 . S
C1098 P1072 1.819 . S
C1098 C1099 1.391 . S
C1098 C1103 1.391 . S
C1099 H1081 0.941 . S
C1099 C1098 1.391 . S
C1099 C1100 1.396 . S
C1100 H1084 0.939 . S
C1100 C1099 1.396 . S
C1100 C1101 1.397 . S
C1101 C1100 1.397 . S
C1101 C1102 1.385 . S
C1102 H1085 0.940 . S
C1102 C1101 1.385 . S
C1102 C1103 1.388 . S
C1103 H1082 0.939 . S
C1103 C1098 1.391 . S
C1103 C1102 1.388 . S
P1104 O1115 1.490 . S
P1104 C1118 1.812 . S
P1104 C1124 1.803 . S
P1104 C1130 1.819 . S
H1105 C1119 0.941 . S
H1106 C1120 0.939 . S
H1107 C1122 0.940 . S
H1108 C1123 0.940 . S
H1109 C1125 0.939 . S
H1110 C1126 0.942 . S
H1111 C1128 0.940 . S
H1112 C1129 0.939 . S
H1113 C1131 0.941 . S
H1114 C1135 0.939 . S
O1115 P1104 1.490 . S
H1116 C1132 0.939 . S
H1117 C1134 0.940 . S
C1118 P1104 1.812 . S
C1118 C1119 1.389 . S
C1118 C1123 1.391 . S
C1119 H1105 0.941 . S
C1119 C1118 1.389 . S
C1119 C1120 1.397 . S
C1120 H1106 0.939 . S
C1120 C1119 1.397 . S
C1120 C1121 1.378 . S
C1121 C1120 1.378 . S
C1121 C1122 1.378 . S
C1122 H1107 0.940 . S
C1122 C1121 1.378 . S
C1122 C1123 1.396 . S
C1123 H1108 0.940 . S
C1123 C1118 1.391 . S
C1123 C1122 1.396 . S
C1124 P1104 1.803 . S
C1124 C1125 1.378 . S
C1124 C1129 1.400 . S
C1125 H1109 0.939 . S
C1125 C1124 1.378 . S
C1125 C1126 1.361 . S
C1126 H1110 0.942 . S
C1126 C1125 1.361 . S
C1126 C1127 1.369 . S
C1127 C1126 1.369 . S
C1127 C1128 1.404 . S
C1128 H1111 0.940 . S
C1128 C1127 1.404 . S
C1128 C1129 1.389 . S
C1129 H1112 0.939 . S
C1129 C1124 1.400 . S
C1129 C1128 1.389 . S
C1130 P1104 1.819 . S
C1130 C1131 1.391 . S
C1130 C1135 1.391 . S
C1131 H1113 0.941 . S
C1131 C1130 1.391 . S
C1131 C1132 1.396 . S
C1132 H1116 0.939 . S
C1132 C1131 1.396 . S
C1132 C1133 1.397 . S
C1133 C1132 1.397 . S
C1133 C1134 1.385 . S
C1134 H1117 0.940 . S
C1134 C1133 1.385 . S
C1134 C1135 1.388 . S
C1135 H1114 0.939 . S
C1135 C1130 1.391 . S
C1135 C1134 1.388 . S
P1136 O1147 1.490 . S
P1136 C1150 1.812 . S
P1136 C1156 1.803 . S
P1136 C1162 1.819 . S
H1137 C1151 0.941 . S
H1138 C1152 0.939 . S
H1139 C1154 0.940 . S
H1140 C1155 0.940 . S
H1141 C1157 0.939 . S
H1142 C1158 0.942 . S
H1143 C1160 0.940 . S
H1144 C1161 0.939 . S
H1145 C1163 0.941 . S
H1146 C1167 0.939 . S
O1147 P1136 1.490 . S
H1148 C1164 0.939 . S
H1149 C1166 0.940 . S
C1150 P1136 1.812 . S
C1150 C1151 1.389 . S
C1150 C1155 1.391 . S
C1151 H1137 0.941 . S
C1151 C1150 1.389 . S
C1151 C1152 1.397 . S
C1152 H1138 0.939 . S
C1152 C1151 1.397 . S
C1152 C1153 1.378 . S
C1153 C1152 1.378 . S
C1153 C1154 1.378 . S
C1154 H1139 0.940 . S
C1154 C1153 1.378 . S
C1154 C1155 1.396 . S
C1155 H1140 0.940 . S
C1155 C1150 1.391 . S
C1155 C1154 1.396 . S
C1156 P1136 1.803 . S
C1156 C1157 1.378 . S
C1156 C1161 1.400 . S
C1157 H1141 0.939 . S
C1157 C1156 1.378 . S
C1157 C1158 1.361 . S
C1158 H1142 0.942 . S
C1158 C1157 1.361 . S
C1158 C1159 1.369 . S
C1159 C1158 1.369 . S
C1159 C1160 1.404 . S
C1160 H1143 0.940 . S
C1160 C1159 1.404 . S
C1160 C1161 1.389 . S
C1161 H1144 0.939 . S
C1161 C1156 1.400 . S
C1161 C1160 1.389 . S
C1162 P1136 1.819 . S
C1162 C1163 1.391 . S
C1162 C1167 1.391 . S
C1163 H1145 0.941 . S
C1163 C1162 1.391 . S
C1163 C1164 1.396 . S
C1164 H1148 0.939 . S
C1164 C1163 1.396 . S
C1164 C1165 1.397 . S
C1165 C1164 1.397 . S
C1165 C1166 1.385 . S
C1166 H1149 0.940 . S
C1166 C1165 1.385 . S
C1166 C1167 1.388 . S
C1167 H1146 0.939 . S
C1167 C1162 1.391 . S
C1167 C1166 1.388 . S
P1168 O1179 1.490 . S
P1168 C1182 1.812 . S
P1168 C1188 1.803 . S
P1168 C1194 1.819 . S
H1169 C1183 0.941 . S
H1170 C1184 0.939 . S
H1171 C1186 0.940 . S
H1172 C1187 0.940 . S
H1173 C1189 0.939 . S
H1174 C1190 0.942 . S
H1175 C1192 0.940 . S
H1176 C1193 0.939 . S
H1177 C1195 0.941 . S
H1178 C1199 0.939 . S
O1179 P1168 1.490 . S
H1180 C1196 0.939 . S
H1181 C1198 0.940 . S
C1182 P1168 1.812 . S
C1182 C1183 1.389 . S
C1182 C1187 1.391 . S
C1183 H1169 0.941 . S
C1183 C1182 1.389 . S
C1183 C1184 1.397 . S
C1184 H1170 0.939 . S
C1184 C1183 1.397 . S
C1184 C1185 1.378 . S
C1185 C1184 1.378 . S
C1185 C1186 1.378 . S
C1186 H1171 0.940 . S
C1186 C1185 1.378 . S
C1186 C1187 1.396 . S
C1187 H1172 0.940 . S
C1187 C1182 1.391 . S
C1187 C1186 1.396 . S
C1188 P1168 1.803 . S
C1188 C1189 1.378 . S
C1188 C1193 1.400 . S
C1189 H1173 0.939 . S
C1189 C1188 1.378 . S
C1189 C1190 1.361 . S
C1190 H1174 0.942 . S
C1190 C1189 1.361 . S
C1190 C1191 1.369 . S
C1191 C1190 1.369 . S
C1191 C1192 1.404 . S
C1192 H1175 0.940 . S
C1192 C1191 1.404 . S
C1192 C1193 1.389 . S
C1193 H1176 0.939 . S
C1193 C1188 1.400 . S
C1193 C1192 1.389 . S
C1194 P1168 1.819 . S
C1194 C1195 1.391 . S
C1194 C1199 1.391 . S
C1195 H1177 0.941 . S
C1195 C1194 1.391 . S
C1195 C1196 1.396 . S
C1196 H1180 0.939 . S
C1196 C1195 1.396 . S
C1196 C1197 1.397 . S
C1197 C1196 1.397 . S
C1197 C1198 1.385 . S
C1198 H1181 0.940 . S
C1198 C1197 1.385 . S
C1198 C1199 1.388 . S
C1199 H1178 0.939 . S
C1199 C1194 1.391 . S
C1199 C1198 1.388 . S
P1200 O1211 1.490 . S
P1200 C1214 1.812 . S
P1200 C1220 1.803 . S
P1200 C1226 1.819 . S
H1201 C1215 0.941 . S
H1202 C1216 0.939 . S
H1203 C1218 0.940 . S
H1204 C1219 0.940 . S
H1205 C1221 0.939 . S
H1206 C1222 0.942 . S
H1207 C1224 0.940 . S
H1208 C1225 0.939 . S
H1209 C1227 0.941 . S
H1210 C1231 0.939 . S
O1211 P1200 1.490 . S
H1212 C1228 0.939 . S
H1213 C1230 0.940 . S
C1214 P1200 1.812 . S
C1214 C1215 1.389 . S
C1214 C1219 1.391 . S
C1215 H1201 0.941 . S
C1215 C1214 1.389 . S
C1215 C1216 1.397 . S
C1216 H1202 0.939 . S
C1216 C1215 1.397 . S
C1216 C1217 1.378 . S
C1217 C1216 1.378 . S
C1217 C1218 1.378 . S
C1218 H1203 0.940 . S
C1218 C1217 1.378 . S
C1218 C1219 1.396 . S
C1219 H1204 0.940 . S
C1219 C1214 1.391 . S
C1219 C1218 1.396 . S
C1220 P1200 1.803 . S
C1220 C1221 1.378 . S
C1220 C1225 1.400 . S
C1221 H1205 0.939 . S
C1221 C1220 1.378 . S
C1221 C1222 1.361 . S
C1222 H1206 0.942 . S
C1222 C1221 1.361 . S
C1222 C1223 1.369 . S
C1223 C1222 1.369 . S
C1223 C1224 1.404 . S
C1224 H1207 0.940 . S
C1224 C1223 1.404 . S
C1224 C1225 1.389 . S
C1225 H1208 0.939 . S
C1225 C1220 1.400 . S
C1225 C1224 1.389 . S
C1226 P1200 1.819 . S
C1226 C1227 1.391 . S
C1226 C1231 1.391 . S
C1227 H1209 0.941 . S
C1227 C1226 1.391 . S
C1227 C1228 1.396 . S
C1228 H1212 0.939 . S
C1228 C1227 1.396 . S
C1228 C1229 1.397 . S
C1229 C1228 1.397 . S
C1229 C1230 1.385 . S
C1230 H1213 0.940 . S
C1230 C1229 1.385 . S
C1230 C1231 1.388 . S
C1231 H1210 0.939 . S
C1231 C1226 1.391 . S
C1231 C1230 1.388 . S
P1232 O1243 1.490 . S
P1232 C1246 1.812 . S
P1232 C1252 1.803 . S
P1232 C1258 1.819 . S
H1233 C1247 0.941 . S
H1234 C1248 0.939 . S
H1235 C1250 0.940 . S
H1236 C1251 0.940 . S
H1237 C1253 0.939 . S
H1238 C1254 0.942 . S
H1239 C1256 0.940 . S
H1240 C1257 0.939 . S
H1241 C1259 0.941 . S
H1242 C1263 0.939 . S
O1243 P1232 1.490 . S
H1244 C1260 0.939 . S
H1245 C1262 0.940 . S
C1246 P1232 1.812 . S
C1246 C1247 1.389 . S
C1246 C1251 1.391 . S
C1247 H1233 0.941 . S
C1247 C1246 1.389 . S
C1247 C1248 1.397 . S
C1248 H1234 0.939 . S
C1248 C1247 1.397 . S
C1248 C1249 1.378 . S
C1249 C1248 1.378 . S
C1249 C1250 1.378 . S
C1250 H1235 0.940 . S
C1250 C1249 1.378 . S
C1250 C1251 1.396 . S
C1251 H1236 0.940 . S
C1251 C1246 1.391 . S
C1251 C1250 1.396 . S
C1252 P1232 1.803 . S
C1252 C1253 1.378 . S
C1252 C1257 1.400 . S
C1253 H1237 0.939 . S
C1253 C1252 1.378 . S
C1253 C1254 1.361 . S
C1254 H1238 0.942 . S
C1254 C1253 1.361 . S
C1254 C1255 1.369 . S
C1255 C1254 1.369 . S
C1255 C1256 1.404 . S
C1256 H1239 0.940 . S
C1256 C1255 1.404 . S
C1256 C1257 1.389 . S
C1257 H1240 0.939 . S
C1257 C1252 1.400 . S
C1257 C1256 1.389 . S
C1258 P1232 1.819 . S
C1258 C1259 1.391 . S
C1258 C1263 1.391 . S
C1259 H1241 0.941 . S
C1259 C1258 1.391 . S
C1259 C1260 1.396 . S
C1260 H1244 0.939 . S
C1260 C1259 1.396 . S
C1260 C1261 1.397 . S
C1261 C1260 1.397 . S
C1261 C1262 1.385 . S
C1262 H1245 0.940 . S
C1262 C1261 1.385 . S
C1262 C1263 1.388 . S
C1263 H1242 0.939 . S
C1263 C1258 1.391 . S
C1263 C1262 1.388 . S
P1264 O1275 1.490 . S
P1264 C1278 1.812 . S
P1264 C1284 1.803 . S
P1264 C1290 1.819 . S
H1265 C1279 0.941 . S
H1266 C1280 0.939 . S
H1267 C1282 0.940 . S
H1268 C1283 0.940 . S
H1269 C1285 0.939 . S
H1270 C1286 0.942 . S
H1271 C1288 0.940 . S
H1272 C1289 0.939 . S
H1273 C1291 0.941 . S
H1274 C1295 0.939 . S
O1275 P1264 1.490 . S
H1276 C1292 0.939 . S
H1277 C1294 0.940 . S
C1278 P1264 1.812 . S
C1278 C1279 1.389 . S
C1278 C1283 1.391 . S
C1279 H1265 0.941 . S
C1279 C1278 1.389 . S
C1279 C1280 1.397 . S
C1280 H1266 0.939 . S
C1280 C1279 1.397 . S
C1280 C1281 1.378 . S
C1281 C1280 1.378 . S
C1281 C1282 1.378 . S
C1282 H1267 0.940 . S
C1282 C1281 1.378 . S
C1282 C1283 1.396 . S
C1283 H1268 0.940 . S
C1283 C1278 1.391 . S
C1283 C1282 1.396 . S
C1284 P1264 1.803 . S
C1284 C1285 1.378 . S
C1284 C1289 1.400 . S
C1285 H1269 0.939 . S
C1285 C1284 1.378 . S
C1285 C1286 1.361 . S
C1286 H1270 0.942 . S
C1286 C1285 1.361 . S
C1286 C1287 1.369 . S
C1287 C1286 1.369 . S
C1287 C1288 1.404 . S
C1288 H1271 0.940 . S
C1288 C1287 1.404 . S
C1288 C1289 1.389 . S
C1289 H1272 0.939 . S
C1289 C1284 1.400 . S
C1289 C1288 1.389 . S
C1290 P1264 1.819 . S
C1290 C1291 1.391 . S
C1290 C1295 1.391 . S
C1291 H1273 0.941 . S
C1291 C1290 1.391 . S
C1291 C1292 1.396 . S
C1292 H1276 0.939 . S
C1292 C1291 1.396 . S
C1292 C1293 1.397 . S
C1293 C1292 1.397 . S
C1293 C1294 1.385 . S
C1294 H1277 0.940 . S
C1294 C1293 1.385 . S
C1294 C1295 1.388 . S
C1295 H1274 0.939 . S
C1295 C1290 1.391 . S
C1295 C1294 1.388 . S
P1296 O1307 1.490 . S
P1296 C1310 1.812 . S
P1296 C1316 1.803 . S
P1296 C1322 1.819 . S
H1297 C1311 0.941 . S
H1298 C1312 0.939 . S
H1299 C1314 0.940 . S
H1300 C1315 0.940 . S
H1301 C1317 0.939 . S
H1302 C1318 0.942 . S
H1303 C1320 0.940 . S
H1304 C1321 0.939 . S
H1305 C1323 0.941 . S
H1306 C1327 0.939 . S
O1307 P1296 1.490 . S
H1308 C1324 0.939 . S
H1309 C1326 0.940 . S
C1310 P1296 1.812 . S
C1310 C1311 1.389 . S
C1310 C1315 1.391 . S
C1311 H1297 0.941 . S
C1311 C1310 1.389 . S
C1311 C1312 1.397 . S
C1312 H1298 0.939 . S
C1312 C1311 1.397 . S
C1312 C1313 1.378 . S
C1313 C1312 1.378 . S
C1313 C1314 1.378 . S
C1314 H1299 0.940 . S
C1314 C1313 1.378 . S
C1314 C1315 1.396 . S
C1315 H1300 0.940 . S
C1315 C1310 1.391 . S
C1315 C1314 1.396 . S
C1316 P1296 1.803 . S
C1316 C1317 1.378 . S
C1316 C1321 1.400 . S
C1317 H1301 0.939 . S
C1317 C1316 1.378 . S
C1317 C1318 1.361 . S
C1318 H1302 0.942 . S
C1318 C1317 1.361 . S
C1318 C1319 1.369 . S
C1319 C1318 1.369 . S
C1319 C1320 1.404 . S
C1320 H1303 0.940 . S
C1320 C1319 1.404 . S
C1320 C1321 1.389 . S
C1321 H1304 0.939 . S
C1321 C1316 1.400 . S
C1321 C1320 1.389 . S
C1322 P1296 1.819 . S
C1322 C1323 1.391 . S
C1322 C1327 1.391 . S
C1323 H1305 0.941 . S
C1323 C1322 1.391 . S
C1323 C1324 1.396 . S
C1324 H1308 0.939 . S
C1324 C1323 1.396 . S
C1324 C1325 1.397 . S
C1325 C1324 1.397 . S
C1325 C1326 1.385 . S
C1326 H1309 0.940 . S
C1326 C1325 1.385 . S
C1326 C1327 1.388 . S
C1327 H1306 0.939 . S
C1327 C1322 1.391 . S
C1327 C1326 1.388 . S
P1328 O1339 1.490 . S
P1328 C1342 1.812 . S
P1328 C1348 1.803 . S
P1328 C1354 1.819 . S
H1329 C1343 0.941 . S
H1330 C1344 0.939 . S
H1331 C1346 0.940 . S
H1332 C1347 0.940 . S
H1333 C1349 0.939 . S
H1334 C1350 0.942 . S
H1335 C1352 0.940 . S
H1336 C1353 0.939 . S
H1337 C1355 0.941 . S
H1338 C1359 0.939 . S
O1339 P1328 1.490 . S
H1340 C1356 0.939 . S
H1341 C1358 0.940 . S
C1342 P1328 1.812 . S
C1342 C1343 1.389 . S
C1342 C1347 1.391 . S
C1343 H1329 0.941 . S
C1343 C1342 1.389 . S
C1343 C1344 1.397 . S
C1344 H1330 0.939 . S
C1344 C1343 1.397 . S
C1344 C1345 1.378 . S
C1345 C1344 1.378 . S
C1345 C1346 1.378 . S
C1346 H1331 0.940 . S
C1346 C1345 1.378 . S
C1346 C1347 1.396 . S
C1347 H1332 0.940 . S
C1347 C1342 1.391 . S
C1347 C1346 1.396 . S
C1348 P1328 1.803 . S
C1348 C1349 1.378 . S
C1348 C1353 1.400 . S
C1349 H1333 0.939 . S
C1349 C1348 1.378 . S
C1349 C1350 1.361 . S
C1350 H1334 0.942 . S
C1350 C1349 1.361 . S
C1350 C1351 1.369 . S
C1351 C1350 1.369 . S
C1351 C1352 1.404 . S
C1352 H1335 0.940 . S
C1352 C1351 1.404 . S
C1352 C1353 1.389 . S
C1353 H1336 0.939 . S
C1353 C1348 1.400 . S
C1353 C1352 1.389 . S
C1354 P1328 1.819 . S
C1354 C1355 1.391 . S
C1354 C1359 1.391 . S
C1355 H1337 0.941 . S
C1355 C1354 1.391 . S
C1355 C1356 1.396 . S
C1356 H1340 0.939 . S
C1356 C1355 1.396 . S
C1356 C1357 1.397 . S
C1357 C1356 1.397 . S
C1357 C1358 1.385 . S
C1358 H1341 0.940 . S
C1358 C1357 1.385 . S
C1358 C1359 1.388 . S
C1359 H1338 0.939 . S
C1359 C1354 1.391 . S
C1359 C1358 1.388 . S
P1360 O1371 1.490 . S
P1360 C1374 1.812 . S
P1360 C1380 1.803 . S
P1360 C1386 1.819 . S
H1361 C1375 0.941 . S
H1362 C1376 0.939 . S
H1363 C1378 0.940 . S
H1364 C1379 0.940 . S
H1365 C1381 0.939 . S
H1366 C1382 0.942 . S
H1367 C1384 0.940 . S
H1368 C1385 0.939 . S
H1369 C1387 0.941 . S
H1370 C1391 0.939 . S
O1371 P1360 1.490 . S
H1372 C1388 0.939 . S
H1373 C1390 0.940 . S
C1374 P1360 1.812 . S
C1374 C1375 1.389 . S
C1374 C1379 1.391 . S
C1375 H1361 0.941 . S
C1375 C1374 1.389 . S
C1375 C1376 1.397 . S
C1376 H1362 0.939 . S
C1376 C1375 1.397 . S
C1376 C1377 1.378 . S
C1377 C1376 1.378 . S
C1377 C1378 1.378 . S
C1378 H1363 0.940 . S
C1378 C1377 1.378 . S
C1378 C1379 1.396 . S
C1379 H1364 0.940 . S
C1379 C1374 1.391 . S
C1379 C1378 1.396 . S
C1380 P1360 1.803 . S
C1380 C1381 1.378 . S
C1380 C1385 1.400 . S
C1381 H1365 0.939 . S
C1381 C1380 1.378 . S
C1381 C1382 1.361 . S
C1382 H1366 0.942 . S
C1382 C1381 1.361 . S
C1382 C1383 1.369 . S
C1383 C1382 1.369 . S
C1383 C1384 1.404 . S
C1384 H1367 0.940 . S
C1384 C1383 1.404 . S
C1384 C1385 1.389 . S
C1385 H1368 0.939 . S
C1385 C1380 1.400 . S
C1385 C1384 1.389 . S
C1386 P1360 1.819 . S
C1386 C1387 1.391 . S
C1386 C1391 1.391 . S
C1387 H1369 0.941 . S
C1387 C1386 1.391 . S
C1387 C1388 1.396 . S
C1388 H1372 0.939 . S
C1388 C1387 1.396 . S
C1388 C1389 1.397 . S
C1389 C1388 1.397 . S
C1389 C1390 1.385 . S
C1390 H1373 0.940 . S
C1390 C1389 1.385 . S
C1390 C1391 1.388 . S
C1391 H1370 0.939 . S
C1391 C1386 1.391 . S
C1391 C1390 1.388 . S
P1392 O1403 1.490 . S
P1392 C1406 1.812 . S
P1392 C1412 1.803 . S
P1392 C1418 1.819 . S
H1393 C1407 0.941 . S
H1394 C1408 0.939 . S
H1395 C1410 0.940 . S
H1396 C1411 0.940 . S
H1397 C1413 0.939 . S
H1398 C1414 0.942 . S
H1399 C1416 0.940 . S
H1400 C1417 0.939 . S
H1401 C1419 0.941 . S
H1402 C1423 0.939 . S
O1403 P1392 1.490 . S
H1404 C1420 0.939 . S
H1405 C1422 0.940 . S
C1406 P1392 1.812 . S
C1406 C1407 1.389 . S
C1406 C1411 1.391 . S
C1407 H1393 0.941 . S
C1407 C1406 1.389 . S
C1407 C1408 1.397 . S
C1408 H1394 0.939 . S
C1408 C1407 1.397 . S
C1408 C1409 1.378 . S
C1409 C1408 1.378 . S
C1409 C1410 1.378 . S
C1410 H1395 0.940 . S
C1410 C1409 1.378 . S
C1410 C1411 1.396 . S
C1411 H1396 0.940 . S
C1411 C1406 1.391 . S
C1411 C1410 1.396 . S
C1412 P1392 1.803 . S
C1412 C1413 1.378 . S
C1412 C1417 1.400 . S
C1413 H1397 0.939 . S
C1413 C1412 1.378 . S
C1413 C1414 1.361 . S
C1414 H1398 0.942 . S
C1414 C1413 1.361 . S
C1414 C1415 1.369 . S
C1415 C1414 1.369 . S
C1415 C1416 1.404 . S
C1416 H1399 0.940 . S
C1416 C1415 1.404 . S
C1416 C1417 1.389 . S
C1417 H1400 0.939 . S
C1417 C1412 1.400 . S
C1417 C1416 1.389 . S
C1418 P1392 1.819 . S
C1418 C1419 1.391 . S
C1418 C1423 1.391 . S
C1419 H1401 0.941 . S
C1419 C1418 1.391 . S
C1419 C1420 1.396 . S
C1420 H1404 0.939 . S
C1420 C1419 1.396 . S
C1420 C1421 1.397 . S
C1421 C1420 1.397 . S
C1421 C1422 1.385 . S
C1422 H1405 0.940 . S
C1422 C1421 1.385 . S
C1422 C1423 1.388 . S
C1423 H1402 0.939 . S
C1423 C1418 1.391 . S
C1423 C1422 1.388 . S
P1424 O1435 1.490 . S
P1424 C1438 1.812 . S
P1424 C1444 1.803 . S
P1424 C1450 1.819 . S
H1425 C1439 0.941 . S
H1426 C1440 0.939 . S
H1427 C1442 0.940 . S
H1428 C1443 0.940 . S
H1429 C1445 0.939 . S
H1430 C1446 0.942 . S
H1431 C1448 0.940 . S
H1432 C1449 0.939 . S
H1433 C1451 0.941 . S
H1434 C1455 0.939 . S
O1435 P1424 1.490 . S
H1436 C1452 0.939 . S
H1437 C1454 0.940 . S
C1438 P1424 1.812 . S
C1438 C1439 1.389 . S
C1438 C1443 1.391 . S
C1439 H1425 0.941 . S
C1439 C1438 1.389 . S
C1439 C1440 1.397 . S
C1440 H1426 0.939 . S
C1440 C1439 1.397 . S
C1440 C1441 1.378 . S
C1441 C1440 1.378 . S
C1441 C1442 1.378 . S
C1442 H1427 0.940 . S
C1442 C1441 1.378 . S
C1442 C1443 1.396 . S
C1443 H1428 0.940 . S
C1443 C1438 1.391 . S
C1443 C1442 1.396 . S
C1444 P1424 1.803 . S
C1444 C1445 1.378 . S
C1444 C1449 1.400 . S
C1445 H1429 0.939 . S
C1445 C1444 1.378 . S
C1445 C1446 1.361 . S
C1446 H1430 0.942 . S
C1446 C1445 1.361 . S
C1446 C1447 1.369 . S
C1447 C1446 1.369 . S
C1447 C1448 1.404 . S
C1448 H1431 0.940 . S
C1448 C1447 1.404 . S
C1448 C1449 1.389 . S
C1449 H1432 0.939 . S
C1449 C1444 1.400 . S
C1449 C1448 1.389 . S
C1450 P1424 1.819 . S
C1450 C1451 1.391 . S
C1450 C1455 1.391 . S
C1451 H1433 0.941 . S
C1451 C1450 1.391 . S
C1451 C1452 1.396 . S
C1452 H1436 0.939 . S
C1452 C1451 1.396 . S
C1452 C1453 1.397 . S
C1453 C1452 1.397 . S
C1453 C1454 1.385 . S
C1454 H1437 0.940 . S
C1454 C1453 1.385 . S
C1454 C1455 1.388 . S
C1455 H1434 0.939 . S
C1455 C1450 1.391 . S
C1455 C1454 1.388 . S
P1456 O1467 1.490 . S
P1456 C1470 1.812 . S
P1456 C1476 1.803 . S
P1456 C1482 1.819 . S
H1457 C1471 0.941 . S
H1458 C1472 0.939 . S
H1459 C1474 0.940 . S
H1460 C1475 0.940 . S
H1461 C1477 0.939 . S
H1462 C1478 0.942 . S
H1463 C1480 0.940 . S
H1464 C1481 0.939 . S
H1465 C1483 0.941 . S
H1466 C1487 0.939 . S
O1467 P1456 1.490 . S
H1468 C1484 0.939 . S
H1469 C1486 0.940 . S
C1470 P1456 1.812 . S
C1470 C1471 1.389 . S
C1470 C1475 1.391 . S
C1471 H1457 0.941 . S
C1471 C1470 1.389 . S
C1471 C1472 1.397 . S
C1472 H1458 0.939 . S
C1472 C1471 1.397 . S
C1472 C1473 1.378 . S
C1473 C1472 1.378 . S
C1473 C1474 1.378 . S
C1474 H1459 0.940 . S
C1474 C1473 1.378 . S
C1474 C1475 1.396 . S
C1475 H1460 0.940 . S
C1475 C1470 1.391 . S
C1475 C1474 1.396 . S
C1476 P1456 1.803 . S
C1476 C1477 1.378 . S
C1476 C1481 1.400 . S
C1477 H1461 0.939 . S
C1477 C1476 1.378 . S
C1477 C1478 1.361 . S
C1478 H1462 0.942 . S
C1478 C1477 1.361 . S
C1478 C1479 1.369 . S
C1479 C1478 1.369 . S
C1479 C1480 1.404 . S
C1480 H1463 0.940 . S
C1480 C1479 1.404 . S
C1480 C1481 1.389 . S
C1481 H1464 0.939 . S
C1481 C1476 1.400 . S
C1481 C1480 1.389 . S
C1482 P1456 1.819 . S
C1482 C1483 1.391 . S
C1482 C1487 1.391 . S
C1483 H1465 0.941 . S
C1483 C1482 1.391 . S
C1483 C1484 1.396 . S
C1484 H1468 0.939 . S
C1484 C1483 1.396 . S
C1484 C1485 1.397 . S
C1485 C1484 1.397 . S
C1485 C1486 1.385 . S
C1486 H1469 0.940 . S
C1486 C1485 1.385 . S
C1486 C1487 1.388 . S
C1487 H1466 0.939 . S
C1487 C1482 1.391 . S
C1487 C1486 1.388 . S
P1488 O1499 1.490 . S
P1488 C1502 1.812 . S
P1488 C1508 1.803 . S
P1488 C1514 1.819 . S
H1489 C1503 0.941 . S
H1490 C1504 0.939 . S
H1491 C1506 0.940 . S
H1492 C1507 0.940 . S
H1493 C1509 0.939 . S
H1494 C1510 0.942 . S
H1495 C1512 0.940 . S
H1496 C1513 0.939 . S
H1497 C1515 0.941 . S
H1498 C1519 0.939 . S
O1499 P1488 1.490 . S
H1500 C1516 0.939 . S
H1501 C1518 0.940 . S
C1502 P1488 1.812 . S
C1502 C1503 1.389 . S
C1502 C1507 1.391 . S
C1503 H1489 0.941 . S
C1503 C1502 1.389 . S
C1503 C1504 1.397 . S
C1504 H1490 0.939 . S
C1504 C1503 1.397 . S
C1504 C1505 1.378 . S
C1505 C1504 1.378 . S
C1505 C1506 1.378 . S
C1506 H1491 0.940 . S
C1506 C1505 1.378 . S
C1506 C1507 1.396 . S
C1507 H1492 0.940 . S
C1507 C1502 1.391 . S
C1507 C1506 1.396 . S
C1508 P1488 1.803 . S
C1508 C1509 1.378 . S
C1508 C1513 1.400 . S
C1509 H1493 0.939 . S
C1509 C1508 1.378 . S
C1509 C1510 1.361 . S
C1510 H1494 0.942 . S
C1510 C1509 1.361 . S
C1510 C1511 1.369 . S
C1511 C1510 1.369 . S
C1511 C1512 1.404 . S
C1512 H1495 0.940 . S
C1512 C1511 1.404 . S
C1512 C1513 1.389 . S
C1513 H1496 0.939 . S
C1513 C1508 1.400 . S
C1513 C1512 1.389 . S
C1514 P1488 1.819 . S
C1514 C1515 1.391 . S
C1514 C1519 1.391 . S
C1515 H1497 0.941 . S
C1515 C1514 1.391 . S
C1515 C1516 1.396 . S
C1516 H1500 0.939 . S
C1516 C1515 1.396 . S
C1516 C1517 1.397 . S
C1517 C1516 1.397 . S
C1517 C1518 1.385 . S
C1518 H1501 0.940 . S
C1518 C1517 1.385 . S
C1518 C1519 1.388 . S
C1519 H1498 0.939 . S
C1519 C1514 1.391 . S
C1519 C1518 1.388 . S
P1520 O1531 1.490 . S
P1520 C1534 1.812 . S
P1520 C1540 1.803 . S
P1520 C1546 1.819 . S
H1521 C1535 0.941 . S
H1522 C1536 0.939 . S
H1523 C1538 0.940 . S
H1524 C1539 0.940 . S
H1525 C1541 0.939 . S
H1526 C1542 0.942 . S
H1527 C1544 0.940 . S
H1528 C1545 0.939 . S
H1529 C1547 0.941 . S
H1530 C1551 0.939 . S
O1531 P1520 1.490 . S
H1532 C1548 0.939 . S
H1533 C1550 0.940 . S
C1534 P1520 1.812 . S
C1534 C1535 1.389 . S
C1534 C1539 1.391 . S
C1535 H1521 0.941 . S
C1535 C1534 1.389 . S
C1535 C1536 1.397 . S
C1536 H1522 0.939 . S
C1536 C1535 1.397 . S
C1536 C1537 1.378 . S
C1537 C1536 1.378 . S
C1537 C1538 1.378 . S
C1538 H1523 0.940 . S
C1538 C1537 1.378 . S
C1538 C1539 1.396 . S
C1539 H1524 0.940 . S
C1539 C1534 1.391 . S
C1539 C1538 1.396 . S
C1540 P1520 1.803 . S
C1540 C1541 1.378 . S
C1540 C1545 1.400 . S
C1541 H1525 0.939 . S
C1541 C1540 1.378 . S
C1541 C1542 1.361 . S
C1542 H1526 0.942 . S
C1542 C1541 1.361 . S
C1542 C1543 1.369 . S
C1543 C1542 1.369 . S
C1543 C1544 1.404 . S
C1544 H1527 0.940 . S
C1544 C1543 1.404 . S
C1544 C1545 1.389 . S
C1545 H1528 0.939 . S
C1545 C1540 1.400 . S
C1545 C1544 1.389 . S
C1546 P1520 1.819 . S
C1546 C1547 1.391 . S
C1546 C1551 1.391 . S
C1547 H1529 0.941 . S
C1547 C1546 1.391 . S
C1547 C1548 1.396 . S
C1548 H1532 0.939 . S
C1548 C1547 1.396 . S
C1548 C1549 1.397 . S
C1549 C1548 1.397 . S
C1549 C1550 1.385 . S
C1550 H1533 0.940 . S
C1550 C1549 1.385 . S
C1550 C1551 1.388 . S
C1551 H1530 0.939 . S
C1551 C1546 1.391 . S
C1551 C1550 1.388 . S
P1552 O1563 1.490 . S
P1552 C1566 1.812 . S
P1552 C1572 1.803 . S
P1552 C1578 1.819 . S
H1553 C1567 0.941 . S
H1554 C1568 0.939 . S
H1555 C1570 0.940 . S
H1556 C1571 0.940 . S
H1557 C1573 0.939 . S
H1558 C1574 0.942 . S
H1559 C1576 0.940 . S
H1560 C1577 0.939 . S
H1561 C1579 0.941 . S
H1562 C1583 0.939 . S
O1563 P1552 1.490 . S
H1564 C1580 0.939 . S
H1565 C1582 0.940 . S
C1566 P1552 1.812 . S
C1566 C1567 1.389 . S
C1566 C1571 1.391 . S
C1567 H1553 0.941 . S
C1567 C1566 1.389 . S
C1567 C1568 1.397 . S
C1568 H1554 0.939 . S
C1568 C1567 1.397 . S
C1568 C1569 1.378 . S
C1569 C1568 1.378 . S
C1569 C1570 1.378 . S
C1570 H1555 0.940 . S
C1570 C1569 1.378 . S
C1570 C1571 1.396 . S
C1571 H1556 0.940 . S
C1571 C1566 1.391 . S
C1571 C1570 1.396 . S
C1572 P1552 1.803 . S
C1572 C1573 1.378 . S
C1572 C1577 1.400 . S
C1573 H1557 0.939 . S
C1573 C1572 1.378 . S
C1573 C1574 1.361 . S
C1574 H1558 0.942 . S
C1574 C1573 1.361 . S
C1574 C1575 1.369 . S
C1575 C1574 1.369 . S
C1575 C1576 1.404 . S
C1576 H1559 0.940 . S
C1576 C1575 1.404 . S
C1576 C1577 1.389 . S
C1577 H1560 0.939 . S
C1577 C1572 1.400 . S
C1577 C1576 1.389 . S
C1578 P1552 1.819 . S
C1578 C1579 1.391 . S
C1578 C1583 1.391 . S
C1579 H1561 0.941 . S
C1579 C1578 1.391 . S
C1579 C1580 1.396 . S
C1580 H1564 0.939 . S
C1580 C1579 1.396 . S
C1580 C1581 1.397 . S
C1581 C1580 1.397 . S
C1581 C1582 1.385 . S
C1582 H1565 0.940 . S
C1582 C1581 1.385 . S
C1582 C1583 1.388 . S
C1583 H1562 0.939 . S
C1583 C1578 1.391 . S
C1583 C1582 1.388 . S
P1584 O1595 1.490 . S
P1584 C1598 1.812 . S
P1584 C1604 1.803 . S
P1584 C1610 1.819 . S
H1585 C1599 0.941 . S
H1586 C1600 0.939 . S
H1587 C1602 0.940 . S
H1588 C1603 0.940 . S
H1589 C1605 0.939 . S
H1590 C1606 0.942 . S
H1591 C1608 0.940 . S
H1592 C1609 0.939 . S
H1593 C1611 0.941 . S
H1594 C1615 0.939 . S
O1595 P1584 1.490 . S
H1596 C1612 0.939 . S
H1597 C1614 0.940 . S
C1598 P1584 1.812 . S
C1598 C1599 1.389 . S
C1598 C1603 1.391 . S
C1599 H1585 0.941 . S
C1599 C1598 1.389 . S
C1599 C1600 1.397 . S
C1600 H1586 0.939 . S
C1600 C1599 1.397 . S
C1600 C1601 1.378 . S
C1601 C1600 1.378 . S
C1601 C1602 1.378 . S
C1602 H1587 0.940 . S
C1602 C1601 1.378 . S
C1602 C1603 1.396 . S
C1603 H1588 0.940 . S
C1603 C1598 1.391 . S
C1603 C1602 1.396 . S
C1604 P1584 1.803 . S
C1604 C1605 1.378 . S
C1604 C1609 1.400 . S
C1605 H1589 0.939 . S
C1605 C1604 1.378 . S
C1605 C1606 1.361 . S
C1606 H1590 0.942 . S
C1606 C1605 1.361 . S
C1606 C1607 1.369 . S
C1607 C1606 1.369 . S
C1607 C1608 1.404 . S
C1608 H1591 0.940 . S
C1608 C1607 1.404 . S
C1608 C1609 1.389 . S
C1609 H1592 0.939 . S
C1609 C1604 1.400 . S
C1609 C1608 1.389 . S
C1610 P1584 1.819 . S
C1610 C1611 1.391 . S
C1610 C1615 1.391 . S
C1611 H1593 0.941 . S
C1611 C1610 1.391 . S
C1611 C1612 1.396 . S
C1612 H1596 0.939 . S
C1612 C1611 1.396 . S
C1612 C1613 1.397 . S
C1613 C1612 1.397 . S
C1613 C1614 1.385 . S
C1614 H1597 0.940 . S
C1614 C1613 1.385 . S
C1614 C1615 1.388 . S
C1615 H1594 0.939 . S
C1615 C1610 1.391 . S
C1615 C1614 1.388 . S
P1616 O1627 1.490 . S
P1616 C1630 1.812 . S
P1616 C1636 1.803 . S
P1616 C1642 1.819 . S
H1617 C1631 0.941 . S
H1618 C1632 0.939 . S
H1619 C1634 0.940 . S
H1620 C1635 0.940 . S
H1621 C1637 0.939 . S
H1622 C1638 0.942 . S
H1623 C1640 0.940 . S
H1624 C1641 0.939 . S
H1625 C1643 0.941 . S
H1626 C1647 0.939 . S
O1627 P1616 1.490 . S
H1628 C1644 0.939 . S
H1629 C1646 0.940 . S
C1630 P1616 1.812 . S
C1630 C1631 1.389 . S
C1630 C1635 1.391 . S
C1631 H1617 0.941 . S
C1631 C1630 1.389 . S
C1631 C1632 1.397 . S
C1632 H1618 0.939 . S
C1632 C1631 1.397 . S
C1632 C1633 1.378 . S
C1633 C1632 1.378 . S
C1633 C1634 1.378 . S
C1634 H1619 0.940 . S
C1634 C1633 1.378 . S
C1634 C1635 1.396 . S
C1635 H1620 0.940 . S
C1635 C1630 1.391 . S
C1635 C1634 1.396 . S
C1636 P1616 1.803 . S
C1636 C1637 1.378 . S
C1636 C1641 1.400 . S
C1637 H1621 0.939 . S
C1637 C1636 1.378 . S
C1637 C1638 1.361 . S
C1638 H1622 0.942 . S
C1638 C1637 1.361 . S
C1638 C1639 1.369 . S
C1639 C1638 1.369 . S
C1639 C1640 1.404 . S
C1640 H1623 0.940 . S
C1640 C1639 1.404 . S
C1640 C1641 1.389 . S
C1641 H1624 0.939 . S
C1641 C1636 1.400 . S
C1641 C1640 1.389 . S
C1642 P1616 1.819 . S
C1642 C1643 1.391 . S
C1642 C1647 1.391 . S
C1643 H1625 0.941 . S
C1643 C1642 1.391 . S
C1643 C1644 1.396 . S
C1644 H1628 0.939 . S
C1644 C1643 1.396 . S
C1644 C1645 1.397 . S
C1645 C1644 1.397 . S
C1645 C1646 1.385 . S
C1646 H1629 0.940 . S
C1646 C1645 1.385 . S
C1646 C1647 1.388 . S
C1647 H1626 0.939 . S
C1647 C1642 1.391 . S
C1647 C1646 1.388 . S
P1648 O1659 1.490 . S
P1648 C1662 1.812 . S
P1648 C1668 1.803 . S
P1648 C1674 1.819 . S
H1649 C1663 0.941 . S
H1650 C1664 0.939 . S
H1651 C1666 0.940 . S
H1652 C1667 0.940 . S
H1653 C1669 0.939 . S
H1654 C1670 0.942 . S
H1655 C1672 0.940 . S
H1656 C1673 0.939 . S
H1657 C1675 0.941 . S
H1658 C1679 0.939 . S
O1659 P1648 1.490 . S
H1660 C1676 0.939 . S
H1661 C1678 0.940 . S
C1662 P1648 1.812 . S
C1662 C1663 1.389 . S
C1662 C1667 1.391 . S
C1663 H1649 0.941 . S
C1663 C1662 1.389 . S
C1663 C1664 1.397 . S
C1664 H1650 0.939 . S
C1664 C1663 1.397 . S
C1664 C1665 1.378 . S
C1665 C1664 1.378 . S
C1665 C1666 1.378 . S
C1666 H1651 0.940 . S
C1666 C1665 1.378 . S
C1666 C1667 1.396 . S
C1667 H1652 0.940 . S
C1667 C1662 1.391 . S
C1667 C1666 1.396 . S
C1668 P1648 1.803 . S
C1668 C1669 1.378 . S
C1668 C1673 1.400 . S
C1669 H1653 0.939 . S
C1669 C1668 1.378 . S
C1669 C1670 1.361 . S
C1670 H1654 0.942 . S
C1670 C1669 1.361 . S
C1670 C1671 1.369 . S
C1671 C1670 1.369 . S
C1671 C1672 1.404 . S
C1672 H1655 0.940 . S
C1672 C1671 1.404 . S
C1672 C1673 1.389 . S
C1673 H1656 0.939 . S
C1673 C1668 1.400 . S
C1673 C1672 1.389 . S
C1674 P1648 1.819 . S
C1674 C1675 1.391 . S
C1674 C1679 1.391 . S
C1675 H1657 0.941 . S
C1675 C1674 1.391 . S
C1675 C1676 1.396 . S
C1676 H1660 0.939 . S
C1676 C1675 1.396 . S
C1676 C1677 1.397 . S
C1677 C1676 1.397 . S
C1677 C1678 1.385 . S
C1678 H1661 0.940 . S
C1678 C1677 1.385 . S
C1678 C1679 1.388 . S
C1679 H1658 0.939 . S
C1679 C1674 1.391 . S
C1679 C1678 1.388 . S
P1680 O1691 1.490 . S
P1680 C1694 1.812 . S
P1680 C1700 1.803 . S
P1680 C1706 1.819 . S
H1681 C1695 0.941 . S
H1682 C1696 0.939 . S
H1683 C1698 0.940 . S
H1684 C1699 0.940 . S
H1685 C1701 0.939 . S
H1686 C1702 0.942 . S
H1687 C1704 0.940 . S
H1688 C1705 0.939 . S
H1689 C1707 0.941 . S
H1690 C1711 0.939 . S
O1691 P1680 1.490 . S
H1692 C1708 0.939 . S
H1693 C1710 0.940 . S
C1694 P1680 1.812 . S
C1694 C1695 1.389 . S
C1694 C1699 1.391 . S
C1695 H1681 0.941 . S
C1695 C1694 1.389 . S
C1695 C1696 1.397 . S
C1696 H1682 0.939 . S
C1696 C1695 1.397 . S
C1696 C1697 1.378 . S
C1697 C1696 1.378 . S
C1697 C1698 1.378 . S
C1698 H1683 0.940 . S
C1698 C1697 1.378 . S
C1698 C1699 1.396 . S
C1699 H1684 0.940 . S
C1699 C1694 1.391 . S
C1699 C1698 1.396 . S
C1700 P1680 1.803 . S
C1700 C1701 1.378 . S
C1700 C1705 1.400 . S
C1701 H1685 0.939 . S
C1701 C1700 1.378 . S
C1701 C1702 1.361 . S
C1702 H1686 0.942 . S
C1702 C1701 1.361 . S
C1702 C1703 1.369 . S
C1703 C1702 1.369 . S
C1703 C1704 1.404 . S
C1704 H1687 0.940 . S
C1704 C1703 1.404 . S
C1704 C1705 1.389 . S
C1705 H1688 0.939 . S
C1705 C1700 1.400 . S
C1705 C1704 1.389 . S
C1706 P1680 1.819 . S
C1706 C1707 1.391 . S
C1706 C1711 1.391 . S
C1707 H1689 0.941 . S
C1707 C1706 1.391 . S
C1707 C1708 1.396 . S
C1708 H1692 0.939 . S
C1708 C1707 1.396 . S
C1708 C1709 1.397 . S
C1709 C1708 1.397 . S
C1709 C1710 1.385 . S
C1710 H1693 0.940 . S
C1710 C1709 1.385 . S
C1710 C1711 1.388 . S
C1711 H1690 0.939 . S
C1711 C1706 1.391 . S
C1711 C1710 1.388 . S
P1712 O1723 1.490 . S
P1712 C1726 1.812 . S
P1712 C1732 1.803 . S
P1712 C1738 1.819 . S
H1713 C1727 0.941 . S
H1714 C1728 0.939 . S
H1715 C1730 0.940 . S
H1716 C1731 0.940 . S
H1717 C1733 0.939 . S
H1718 C1734 0.942 . S
H1719 C1736 0.940 . S
H1720 C1737 0.939 . S
H1721 C1739 0.941 . S
H1722 C1743 0.939 . S
O1723 P1712 1.490 . S
H1724 C1740 0.939 . S
H1725 C1742 0.940 . S
C1726 P1712 1.812 . S
C1726 C1727 1.389 . S
C1726 C1731 1.391 . S
C1727 H1713 0.941 . S
C1727 C1726 1.389 . S
C1727 C1728 1.397 . S
C1728 H1714 0.939 . S
C1728 C1727 1.397 . S
C1728 C1729 1.378 . S
C1729 C1728 1.378 . S
C1729 C1730 1.378 . S
C1730 H1715 0.940 . S
C1730 C1729 1.378 . S
C1730 C1731 1.396 . S
C1731 H1716 0.940 . S
C1731 C1726 1.391 . S
C1731 C1730 1.396 . S
C1732 P1712 1.803 . S
C1732 C1733 1.378 . S
C1732 C1737 1.400 . S
C1733 H1717 0.939 . S
C1733 C1732 1.378 . S
C1733 C1734 1.361 . S
C1734 H1718 0.942 . S
C1734 C1733 1.361 . S
C1734 C1735 1.369 . S
C1735 C1734 1.369 . S
C1735 C1736 1.404 . S
C1736 H1719 0.940 . S
C1736 C1735 1.404 . S
C1736 C1737 1.389 . S
C1737 H1720 0.939 . S
C1737 C1732 1.400 . S
C1737 C1736 1.389 . S
C1738 P1712 1.819 . S
C1738 C1739 1.391 . S
C1738 C1743 1.391 . S
C1739 H1721 0.941 . S
C1739 C1738 1.391 . S
C1739 C1740 1.396 . S
C1740 H1724 0.939 . S
C1740 C1739 1.396 . S
C1740 C1741 1.397 . S
C1741 C1740 1.397 . S
C1741 C1742 1.385 . S
C1742 H1725 0.940 . S
C1742 C1741 1.385 . S
C1742 C1743 1.388 . S
C1743 H1722 0.939 . S
C1743 C1738 1.391 . S
C1743 C1742 1.388 . S
P1744 O1755 1.490 . S
P1744 C1758 1.812 . S
P1744 C1764 1.803 . S
P1744 C1770 1.819 . S
H1745 C1759 0.941 . S
H1746 C1760 0.939 . S
H1747 C1762 0.940 . S
H1748 C1763 0.940 . S
H1749 C1765 0.939 . S
H1750 C1766 0.942 . S
H1751 C1768 0.940 . S
H1752 C1769 0.939 . S
H1753 C1771 0.941 . S
H1754 C1775 0.939 . S
O1755 P1744 1.490 . S
H1756 C1772 0.939 . S
H1757 C1774 0.940 . S
C1758 P1744 1.812 . S
C1758 C1759 1.389 . S
C1758 C1763 1.391 . S
C1759 H1745 0.941 . S
C1759 C1758 1.389 . S
C1759 C1760 1.397 . S
C1760 H1746 0.939 . S
C1760 C1759 1.397 . S
C1760 C1761 1.378 . S
C1761 C1760 1.378 . S
C1761 C1762 1.378 . S
C1762 H1747 0.940 . S
C1762 C1761 1.378 . S
C1762 C1763 1.396 . S
C1763 H1748 0.940 . S
C1763 C1758 1.391 . S
C1763 C1762 1.396 . S
C1764 P1744 1.803 . S
C1764 C1765 1.378 . S
C1764 C1769 1.400 . S
C1765 H1749 0.939 . S
C1765 C1764 1.378 . S
C1765 C1766 1.361 . S
C1766 H1750 0.942 . S
C1766 C1765 1.361 . S
C1766 C1767 1.369 . S
C1767 C1766 1.369 . S
C1767 C1768 1.404 . S
C1768 H1751 0.940 . S
C1768 C1767 1.404 . S
C1768 C1769 1.389 . S
C1769 H1752 0.939 . S
C1769 C1764 1.400 . S
C1769 C1768 1.389 . S
C1770 P1744 1.819 . S
C1770 C1771 1.391 . S
C1770 C1775 1.391 . S
C1771 H1753 0.941 . S
C1771 C1770 1.391 . S
C1771 C1772 1.396 . S
C1772 H1756 0.939 . S
C1772 C1771 1.396 . S
C1772 C1773 1.397 . S
C1773 C1772 1.397 . S
C1773 C1774 1.385 . S
C1774 H1757 0.940 . S
C1774 C1773 1.385 . S
C1774 C1775 1.388 . S
C1775 H1754 0.939 . S
C1775 C1770 1.391 . S
C1775 C1774 1.388 . S
P1776 O1787 1.490 . S
P1776 C1790 1.812 . S
P1776 C1796 1.803 . S
P1776 C1802 1.819 . S
H1777 C1791 0.941 . S
H1778 C1792 0.939 . S
H1779 C1794 0.940 . S
H1780 C1795 0.940 . S
H1781 C1797 0.939 . S
H1782 C1798 0.942 . S
H1783 C1800 0.940 . S
H1784 C1801 0.939 . S
H1785 C1803 0.941 . S
H1786 C1807 0.939 . S
O1787 P1776 1.490 . S
H1788 C1804 0.939 . S
H1789 C1806 0.940 . S
C1790 P1776 1.812 . S
C1790 C1791 1.389 . S
C1790 C1795 1.391 . S
C1791 H1777 0.941 . S
C1791 C1790 1.389 . S
C1791 C1792 1.397 . S
C1792 H1778 0.939 . S
C1792 C1791 1.397 . S
C1792 C1793 1.378 . S
C1793 C1792 1.378 . S
C1793 C1794 1.378 . S
C1794 H1779 0.940 . S
C1794 C1793 1.378 . S
C1794 C1795 1.396 . S
C1795 H1780 0.940 . S
C1795 C1790 1.391 . S
C1795 C1794 1.396 . S
C1796 P1776 1.803 . S
C1796 C1797 1.378 . S
C1796 C1801 1.400 . S
C1797 H1781 0.939 . S
C1797 C1796 1.378 . S
C1797 C1798 1.361 . S
C1798 H1782 0.942 . S
C1798 C1797 1.361 . S
C1798 C1799 1.369 . S
C1799 C1798 1.369 . S
C1799 C1800 1.404 . S
C1800 H1783 0.940 . S
C1800 C1799 1.404 . S
C1800 C1801 1.389 . S
C1801 H1784 0.939 . S
C1801 C1796 1.400 . S
C1801 C1800 1.389 . S
C1802 P1776 1.819 . S
C1802 C1803 1.391 . S
C1802 C1807 1.391 . S
C1803 H1785 0.941 . S
C1803 C1802 1.391 . S
C1803 C1804 1.396 . S
C1804 H1788 0.939 . S
C1804 C1803 1.396 . S
C1804 C1805 1.397 . S
C1805 C1804 1.397 . S
C1805 C1806 1.385 . S
C1806 H1789 0.940 . S
C1806 C1805 1.385 . S
C1806 C1807 1.388 . S
C1807 H1786 0.939 . S
C1807 C1802 1.391 . S
C1807 C1806 1.388 . S
P1808 O1819 1.490 . S
P1808 C1822 1.812 . S
P1808 C1828 1.803 . S
P1808 C1834 1.819 . S
H1809 C1823 0.941 . S
H1810 C1824 0.939 . S
H1811 C1826 0.940 . S
H1812 C1827 0.940 . S
H1813 C1829 0.939 . S
H1814 C1830 0.942 . S
H1815 C1832 0.940 . S
H1816 C1833 0.939 . S
H1817 C1835 0.941 . S
H1818 C1839 0.939 . S
O1819 P1808 1.490 . S
H1820 C1836 0.939 . S
H1821 C1838 0.940 . S
C1822 P1808 1.812 . S
C1822 C1823 1.389 . S
C1822 C1827 1.391 . S
C1823 H1809 0.941 . S
C1823 C1822 1.389 . S
C1823 C1824 1.397 . S
C1824 H1810 0.939 . S
C1824 C1823 1.397 . S
C1824 C1825 1.378 . S
C1825 C1824 1.378 . S
C1825 C1826 1.378 . S
C1826 H1811 0.940 . S
C1826 C1825 1.378 . S
C1826 C1827 1.396 . S
C1827 H1812 0.940 . S
C1827 C1822 1.391 . S
C1827 C1826 1.396 . S
C1828 P1808 1.803 . S
C1828 C1829 1.378 . S
C1828 C1833 1.400 . S
C1829 H1813 0.939 . S
C1829 C1828 1.378 . S
C1829 C1830 1.361 . S
C1830 H1814 0.942 . S
C1830 C1829 1.361 . S
C1830 C1831 1.369 . S
C1831 C1830 1.369 . S
C1831 C1832 1.404 . S
C1832 H1815 0.940 . S
C1832 C1831 1.404 . S
C1832 C1833 1.389 . S
C1833 H1816 0.939 . S
C1833 C1828 1.400 . S
C1833 C1832 1.389 . S
C1834 P1808 1.819 . S
C1834 C1835 1.391 . S
C1834 C1839 1.391 . S
C1835 H1817 0.941 . S
C1835 C1834 1.391 . S
C1835 C1836 1.396 . S
C1836 H1820 0.939 . S
C1836 C1835 1.396 . S
C1836 C1837 1.397 . S
C1837 C1836 1.397 . S
C1837 C1838 1.385 . S
C1838 H1821 0.940 . S
C1838 C1837 1.385 . S
C1838 C1839 1.388 . S
C1839 H1818 0.939 . S
C1839 C1834 1.391 . S
C1839 C1838 1.388 . S
P1840 O1851 1.490 . S
P1840 C1854 1.812 . S
P1840 C1860 1.803 . S
P1840 C1866 1.819 . S
H1841 C1855 0.941 . S
H1842 C1856 0.939 . S
H1843 C1858 0.940 . S
H1844 C1859 0.940 . S
H1845 C1861 0.939 . S
H1846 C1862 0.942 . S
H1847 C1864 0.940 . S
H1848 C1865 0.939 . S
H1849 C1867 0.941 . S
H1850 C1871 0.939 . S
O1851 P1840 1.490 . S
H1852 C1868 0.939 . S
H1853 C1870 0.940 . S
C1854 P1840 1.812 . S
C1854 C1855 1.389 . S
C1854 C1859 1.391 . S
C1855 H1841 0.941 . S
C1855 C1854 1.389 . S
C1855 C1856 1.397 . S
C1856 H1842 0.939 . S
C1856 C1855 1.397 . S
C1856 C1857 1.378 . S
C1857 C1856 1.378 . S
C1857 C1858 1.378 . S
C1858 H1843 0.940 . S
C1858 C1857 1.378 . S
C1858 C1859 1.396 . S
C1859 H1844 0.940 . S
C1859 C1854 1.391 . S
C1859 C1858 1.396 . S
C1860 P1840 1.803 . S
C1860 C1861 1.378 . S
C1860 C1865 1.400 . S
C1861 H1845 0.939 . S
C1861 C1860 1.378 . S
C1861 C1862 1.361 . S
C1862 H1846 0.942 . S
C1862 C1861 1.361 . S
C1862 C1863 1.369 . S
C1863 C1862 1.369 . S
C1863 C1864 1.404 . S
C1864 H1847 0.940 . S
C1864 C1863 1.404 . S
C1864 C1865 1.389 . S
C1865 H1848 0.939 . S
C1865 C1860 1.400 . S
C1865 C1864 1.389 . S
C1866 P1840 1.819 . S
C1866 C1867 1.391 . S
C1866 C1871 1.391 . S
C1867 H1849 0.941 . S
C1867 C1866 1.391 . S
C1867 C1868 1.396 . S
C1868 H1852 0.939 . S
C1868 C1867 1.396 . S
C1868 C1869 1.397 . S
C1869 C1868 1.397 . S
C1869 C1870 1.385 . S
C1870 H1853 0.940 . S
C1870 C1869 1.385 . S
C1870 C1871 1.388 . S
C1871 H1850 0.939 . S
C1871 C1866 1.391 . S
C1871 C1870 1.388 . S
P1872 O1883 1.490 . S
P1872 C1886 1.812 . S
P1872 C1892 1.803 . S
P1872 C1898 1.819 . S
H1873 C1887 0.941 . S
H1874 C1888 0.939 . S
H1875 C1890 0.940 . S
H1876 C1891 0.940 . S
H1877 C1893 0.939 . S
H1878 C1894 0.942 . S
H1879 C1896 0.940 . S
H1880 C1897 0.939 . S
H1881 C1899 0.941 . S
H1882 C1903 0.939 . S
O1883 P1872 1.490 . S
H1884 C1900 0.939 . S
H1885 C1902 0.940 . S
C1886 P1872 1.812 . S
C1886 C1887 1.389 . S
C1886 C1891 1.391 . S
C1887 H1873 0.941 . S
C1887 C1886 1.389 . S
C1887 C1888 1.397 . S
C1888 H1874 0.939 . S
C1888 C1887 1.397 . S
C1888 C1889 1.378 . S
C1889 C1888 1.378 . S
C1889 C1890 1.378 . S
C1890 H1875 0.940 . S
C1890 C1889 1.378 . S
C1890 C1891 1.396 . S
C1891 H1876 0.940 . S
C1891 C1886 1.391 . S
C1891 C1890 1.396 . S
C1892 P1872 1.803 . S
C1892 C1893 1.378 . S
C1892 C1897 1.400 . S
C1893 H1877 0.939 . S
C1893 C1892 1.378 . S
C1893 C1894 1.361 . S
C1894 H1878 0.942 . S
C1894 C1893 1.361 . S
C1894 C1895 1.369 . S
C1895 C1894 1.369 . S
C1895 C1896 1.404 . S
C1896 H1879 0.940 . S
C1896 C1895 1.404 . S
C1896 C1897 1.389 . S
C1897 H1880 0.939 . S
C1897 C1892 1.400 . S
C1897 C1896 1.389 . S
C1898 P1872 1.819 . S
C1898 C1899 1.391 . S
C1898 C1903 1.391 . S
C1899 H1881 0.941 . S
C1899 C1898 1.391 . S
C1899 C1900 1.396 . S
C1900 H1884 0.939 . S
C1900 C1899 1.396 . S
C1900 C1901 1.397 . S
C1901 C1900 1.397 . S
C1901 C1902 1.385 . S
C1902 H1885 0.940 . S
C1902 C1901 1.385 . S
C1902 C1903 1.388 . S
C1903 H1882 0.939 . S
C1903 C1898 1.391 . S
C1903 C1902 1.388 . S
P1904 O1915 1.490 . S
P1904 C1918 1.812 . S
P1904 C1924 1.803 . S
P1904 C1930 1.819 . S
H1905 C1919 0.941 . S
H1906 C1920 0.939 . S
H1907 C1922 0.940 . S
H1908 C1923 0.940 . S
H1909 C1925 0.939 . S
H1910 C1926 0.942 . S
H1911 C1928 0.940 . S
H1912 C1929 0.939 . S
H1913 C1931 0.941 . S
H1914 C1935 0.939 . S
O1915 P1904 1.490 . S
H1916 C1932 0.939 . S
H1917 C1934 0.940 . S
C1918 P1904 1.812 . S
C1918 C1919 1.389 . S
C1918 C1923 1.391 . S
C1919 H1905 0.941 . S
C1919 C1918 1.389 . S
C1919 C1920 1.397 . S
C1920 H1906 0.939 . S
C1920 C1919 1.397 . S
C1920 C1921 1.378 . S
C1921 C1920 1.378 . S
C1921 C1922 1.378 . S
C1922 H1907 0.940 . S
C1922 C1921 1.378 . S
C1922 C1923 1.396 . S
C1923 H1908 0.940 . S
C1923 C1918 1.391 . S
C1923 C1922 1.396 . S
C1924 P1904 1.803 . S
C1924 C1925 1.378 . S
C1924 C1929 1.400 . S
C1925 H1909 0.939 . S
C1925 C1924 1.378 . S
C1925 C1926 1.361 . S
C1926 H1910 0.942 . S
C1926 C1925 1.361 . S
C1926 C1927 1.369 . S
C1927 C1926 1.369 . S
C1927 C1928 1.404 . S
C1928 H1911 0.940 . S
C1928 C1927 1.404 . S
C1928 C1929 1.389 . S
C1929 H1912 0.939 . S
C1929 C1924 1.400 . S
C1929 C1928 1.389 . S
C1930 P1904 1.819 . S
C1930 C1931 1.391 . S
C1930 C1935 1.391 . S
C1931 H1913 0.941 . S
C1931 C1930 1.391 . S
C1931 C1932 1.396 . S
C1932 H1916 0.939 . S
C1932 C1931 1.396 . S
C1932 C1933 1.397 . S
C1933 C1932 1.397 . S
C1933 C1934 1.385 . S
C1934 H1917 0.940 . S
C1934 C1933 1.385 . S
C1934 C1935 1.388 . S
C1935 H1914 0.939 . S
C1935 C1930 1.391 . S
C1935 C1934 1.388 . S
P1936 O1947 1.490 . S
P1936 C1950 1.812 . S
P1936 C1956 1.803 . S
P1936 C1962 1.819 . S
H1937 C1951 0.941 . S
H1938 C1952 0.939 . S
H1939 C1954 0.940 . S
H1940 C1955 0.940 . S
H1941 C1957 0.939 . S
H1942 C1958 0.942 . S
H1943 C1960 0.940 . S
H1944 C1961 0.939 . S
H1945 C1963 0.941 . S
H1946 C1967 0.939 . S
O1947 P1936 1.490 . S
H1948 C1964 0.939 . S
H1949 C1966 0.940 . S
C1950 P1936 1.812 . S
C1950 C1951 1.389 . S
C1950 C1955 1.391 . S
C1951 H1937 0.941 . S
C1951 C1950 1.389 . S
C1951 C1952 1.397 . S
C1952 H1938 0.939 . S
C1952 C1951 1.397 . S
C1952 C1953 1.378 . S
C1953 C1952 1.378 . S
C1953 C1954 1.378 . S
C1954 H1939 0.940 . S
C1954 C1953 1.378 . S
C1954 C1955 1.396 . S
C1955 H1940 0.940 . S
C1955 C1950 1.391 . S
C1955 C1954 1.396 . S
C1956 P1936 1.803 . S
C1956 C1957 1.378 . S
C1956 C1961 1.400 . S
C1957 H1941 0.939 . S
C1957 C1956 1.378 . S
C1957 C1958 1.361 . S
C1958 H1942 0.942 . S
C1958 C1957 1.361 . S
C1958 C1959 1.369 . S
C1959 C1958 1.369 . S
C1959 C1960 1.404 . S
C1960 H1943 0.940 . S
C1960 C1959 1.404 . S
C1960 C1961 1.389 . S
C1961 H1944 0.939 . S
C1961 C1956 1.400 . S
C1961 C1960 1.389 . S
C1962 P1936 1.819 . S
C1962 C1963 1.391 . S
C1962 C1967 1.391 . S
C1963 H1945 0.941 . S
C1963 C1962 1.391 . S
C1963 C1964 1.396 . S
C1964 H1948 0.939 . S
C1964 C1963 1.396 . S
C1964 C1965 1.397 . S
C1965 C1964 1.397 . S
C1965 C1966 1.385 . S
C1966 H1949 0.940 . S
C1966 C1965 1.385 . S
C1966 C1967 1.388 . S
C1967 H1946 0.939 . S
C1967 C1962 1.391 . S
C1967 C1966 1.388 . S
P1968 O1979 1.490 . S
P1968 C1982 1.812 . S
P1968 C1988 1.803 . S
P1968 C1994 1.819 . S
H1969 C1983 0.941 . S
H1970 C1984 0.939 . S
H1971 C1986 0.940 . S
H1972 C1987 0.940 . S
H1973 C1989 0.939 . S
H1974 C1990 0.942 . S
H1975 C1992 0.940 . S
H1976 C1993 0.939 . S
H1977 C1995 0.941 . S
H1978 C1999 0.939 . S
O1979 P1968 1.490 . S
H1980 C1996 0.939 . S
H1981 C1998 0.940 . S
C1982 P1968 1.812 . S
C1982 C1983 1.389 . S
C1982 C1987 1.391 . S
C1983 H1969 0.941 . S
C1983 C1982 1.389 . S
C1983 C1984 1.397 . S
C1984 H1970 0.939 . S
C1984 C1983 1.397 . S
C1984 C1985 1.378 . S
C1985 C1984 1.378 . S
C1985 C1986 1.378 . S
C1986 H1971 0.940 . S
C1986 C1985 1.378 . S
C1986 C1987 1.396 . S
C1987 H1972 0.940 . S
C1987 C1982 1.391 . S
C1987 C1986 1.396 . S
C1988 P1968 1.803 . S
C1988 C1989 1.378 . S
C1988 C1993 1.400 . S
C1989 H1973 0.939 . S
C1989 C1988 1.378 . S
C1989 C1990 1.361 . S
C1990 H1974 0.942 . S
C1990 C1989 1.361 . S
C1990 C1991 1.369 . S
C1991 C1990 1.369 . S
C1991 C1992 1.404 . S
C1992 H1975 0.940 . S
C1992 C1991 1.404 . S
C1992 C1993 1.389 . S
C1993 H1976 0.939 . S
C1993 C1988 1.400 . S
C1993 C1992 1.389 . S
C1994 P1968 1.819 . S
C1994 C1995 1.391 . S
C1994 C1999 1.391 . S
C1995 H1977 0.941 . S
C1995 C1994 1.391 . S
C1995 C1996 1.396 . S
C1996 H1980 0.939 . S
C1996 C1995 1.396 . S
C1996 C1997 1.397 . S
C1997 C1996 1.397 . S
C1997 C1998 1.385 . S
C1998 H1981 0.940 . S
C1998 C1997 1.385 . S
C1998 C1999 1.388 . S
C1999 H1978 0.939 . S
C1999 C1994 1.391 . S
C1999 C1998 1.388 . S
P2000 O2011 1.490 . S
P2000 C2014 1.812 . S
P2000 C2020 1.803 . S
P2000 C2026 1.819 . S
H2001 C2015 0.941 . S
H2002 C2016 0.939 . S
H2003 C2018 0.940 . S
H2004 C2019 0.940 . S
H2005 C2021 0.939 . S
H2006 C2022 0.942 . S
H2007 C2024 0.940 . S
H2008 C2025 0.939 . S
H2009 C2027 0.941 . S
H2010 C2031 0.939 . S
O2011 P2000 1.490 . S
H2012 C2028 0.939 . S
H2013 C2030 0.940 . S
C2014 P2000 1.812 . S
C2014 C2015 1.389 . S
C2014 C2019 1.391 . S
C2015 H2001 0.941 . S
C2015 C2014 1.389 . S
C2015 C2016 1.397 . S
C2016 H2002 0.939 . S
C2016 C2015 1.397 . S
C2016 C2017 1.378 . S
C2017 C2016 1.378 . S
C2017 C2018 1.378 . S
C2018 H2003 0.940 . S
C2018 C2017 1.378 . S
C2018 C2019 1.396 . S
C2019 H2004 0.940 . S
C2019 C2014 1.391 . S
C2019 C2018 1.396 . S
C2020 P2000 1.803 . S
C2020 C2021 1.378 . S
C2020 C2025 1.400 . S
C2021 H2005 0.939 . S
C2021 C2020 1.378 . S
C2021 C2022 1.361 . S
C2022 H2006 0.942 . S
C2022 C2021 1.361 . S
C2022 C2023 1.369 . S
C2023 C2022 1.369 . S
C2023 C2024 1.404 . S
C2024 H2007 0.940 . S
C2024 C2023 1.404 . S
C2024 C2025 1.389 . S
C2025 H2008 0.939 . S
C2025 C2020 1.400 . S
C2025 C2024 1.389 . S
C2026 P2000 1.819 . S
C2026 C2027 1.391 . S
C2026 C2031 1.391 . S
C2027 H2009 0.941 . S
C2027 C2026 1.391 . S
C2027 C2028 1.396 . S
C2028 H2012 0.939 . S
C2028 C2027 1.396 . S
C2028 C2029 1.397 . S
C2029 C2028 1.397 . S
C2029 C2030 1.385 . S
C2030 H2013 0.940 . S
C2030 C2029 1.385 . S
C2030 C2031 1.388 . S
C2031 H2010 0.939 . S
C2031 C2026 1.391 . S
C2031 C2030 1.388 . S
P2032 O2043 1.490 . S
P2032 C2046 1.812 . S
P2032 C2052 1.803 . S
P2032 C2058 1.819 . S
H2033 C2047 0.941 . S
H2034 C2048 0.939 . S
H2035 C2050 0.940 . S
H2036 C2051 0.940 . S
H2037 C2053 0.939 . S
H2038 C2054 0.942 . S
H2039 C2056 0.940 . S
H2040 C2057 0.939 . S
H2041 C2059 0.941 . S
H2042 C2063 0.939 . S
O2043 P2032 1.490 . S
H2044 C2060 0.939 . S
H2045 C2062 0.940 . S
C2046 P2032 1.812 . S
C2046 C2047 1.389 . S
C2046 C2051 1.391 . S
C2047 H2033 0.941 . S
C2047 C2046 1.389 . S
C2047 C2048 1.397 . S
C2048 H2034 0.939 . S
C2048 C2047 1.397 . S
C2048 C2049 1.378 . S
C2049 C2048 1.378 . S
C2049 C2050 1.378 . S
C2050 H2035 0.940 . S
C2050 C2049 1.378 . S
C2050 C2051 1.396 . S
C2051 H2036 0.940 . S
C2051 C2046 1.391 . S
C2051 C2050 1.396 . S
C2052 P2032 1.803 . S
C2052 C2053 1.378 . S
C2052 C2057 1.400 . S
C2053 H2037 0.939 . S
C2053 C2052 1.378 . S
C2053 C2054 1.361 . S
C2054 H2038 0.942 . S
C2054 C2053 1.361 . S
C2054 C2055 1.369 . S
C2055 C2054 1.369 . S
C2055 C2056 1.404 . S
C2056 H2039 0.940 . S
C2056 C2055 1.404 . S
C2056 C2057 1.389 . S
C2057 H2040 0.939 . S
C2057 C2052 1.400 . S
C2057 C2056 1.389 . S
C2058 P2032 1.819 . S
C2058 C2059 1.391 . S
C2058 C2063 1.391 . S
C2059 H2041 0.941 . S
C2059 C2058 1.391 . S
C2059 C2060 1.396 . S
C2060 H2044 0.939 . S
C2060 C2059 1.396 . S
C2060 C2061 1.397 . S
C2061 C2060 1.397 . S
C2061 C2062 1.385 . S
C2062 H2045 0.940 . S
C2062 C2061 1.385 . S
C2062 C2063 1.388 . S
C2063 H2042 0.939 . S
C2063 C2058 1.391 . S
C2063 C2062 1.388 . S
H2064 C2070 0.930 . S
H2065 C2074 0.930 . S
H2066 C2079 0.929 . S
H2067 C2077 0.929 . S
H2068 C2072 0.929 . S
H2069 C2078 0.929 . S
C2070 H2064 0.930 . S
C2070 C2071 1.367 . S
C2070 C2078 1.378 . S
C2071 C2070 1.367 . S
C2071 C2079 1.433 . S
C2072 H2068 0.929 . S
C2072 C2074 1.378 . S
C2072 C2076 1.350 . S
C2073 C2076 1.463 . S
C2073 C2078 1.350 . S
C2073 N2081 1.427 . S
C2074 H2065 0.930 . S
C2074 C2072 1.378 . S
C2074 C2075 1.367 . S
C2075 C2074 1.367 . S
C2075 C2077 1.433 . S
C2076 C2072 1.350 . S
C2076 C2073 1.463 . S
C2076 N2080 1.427 . S
C2077 H2067 0.929 . S
C2077 C2075 1.433 . S
C2077 N2080 1.384 . S
C2078 H2069 0.929 . S
C2078 C2070 1.378 . S
C2078 C2073 1.350 . S
C2079 H2066 0.929 . S
C2079 C2071 1.433 . S
C2079 N2081 1.384 . S
N2080 C2076 1.427 . S
N2080 C2077 1.384 . S
N2081 C2073 1.427 . S
N2081 C2079 1.384 . S
H2082 C2088 0.930 . S
H2083 C2092 0.930 . S
H2084 C2097 0.929 . S
H2085 C2095 0.929 . S
H2086 C2090 0.929 . S
H2087 C2096 0.929 . S
C2088 H2082 0.930 . S
C2088 C2089 1.367 . S
C2088 C2096 1.378 . S
C2089 C2088 1.367 . S
C2089 C2097 1.433 . S
C2090 H2086 0.929 . S
C2090 C2092 1.378 . S
C2090 C2094 1.350 . S
C2091 C2094 1.463 . S
C2091 C2096 1.350 . S
C2091 N2099 1.427 . S
C2092 H2083 0.930 . S
C2092 C2090 1.378 . S
C2092 C2093 1.367 . S
C2093 C2092 1.367 . S
C2093 C2095 1.433 . S
C2094 C2090 1.350 . S
C2094 C2091 1.463 . S
C2094 N2098 1.427 . S
C2095 H2085 0.929 . S
C2095 C2093 1.433 . S
C2095 N2098 1.384 . S
C2096 H2087 0.929 . S
C2096 C2088 1.378 . S
C2096 C2091 1.350 . S
C2097 H2084 0.929 . S
C2097 C2089 1.433 . S
C2097 N2099 1.384 . S
N2098 C2094 1.427 . S
N2098 C2095 1.384 . S
N2099 C2091 1.427 . S
N2099 C2097 1.384 . S
H2100 C2106 0.930 . S
H2101 C2110 0.930 . S
H2102 C2115 0.929 . S
H2103 C2113 0.929 . S
H2104 C2108 0.929 . S
H2105 C2114 0.929 . S
C2106 H2100 0.930 . S
C2106 C2107 1.367 . S
C2106 C2114 1.378 . S
C2107 C2106 1.367 . S
C2107 C2115 1.433 . S
C2108 H2104 0.929 . S
C2108 C2110 1.378 . S
C2108 C2112 1.350 . S
C2109 C2112 1.463 . S
C2109 C2114 1.350 . S
C2109 N2117 1.427 . S
C2110 H2101 0.930 . S
C2110 C2108 1.378 . S
C2110 C2111 1.367 . S
C2111 C2110 1.367 . S
C2111 C2113 1.433 . S
C2112 C2108 1.350 . S
C2112 C2109 1.463 . S
C2112 N2116 1.427 . S
C2113 H2103 0.929 . S
C2113 C2111 1.433 . S
C2113 N2116 1.384 . S
C2114 H2105 0.929 . S
C2114 C2106 1.378 . S
C2114 C2109 1.350 . S
C2115 H2102 0.929 . S
C2115 C2107 1.433 . S
C2115 N2117 1.384 . S
N2116 C2112 1.427 . S
N2116 C2113 1.384 . S
N2117 C2109 1.427 . S
N2117 C2115 1.384 . S
H2118 C2124 0.930 . S
H2119 C2128 0.930 . S
H2120 C2133 0.929 . S
H2121 C2131 0.929 . S
H2122 C2126 0.929 . S
H2123 C2132 0.929 . S
C2124 H2118 0.930 . S
C2124 C2125 1.367 . S
C2124 C2132 1.378 . S
C2125 C2124 1.367 . S
C2125 C2133 1.433 . S
C2126 H2122 0.929 . S
C2126 C2128 1.378 . S
C2126 C2130 1.350 . S
C2127 C2130 1.463 . S
C2127 C2132 1.350 . S
C2127 N2135 1.427 . S
C2128 H2119 0.930 . S
C2128 C2126 1.378 . S
C2128 C2129 1.367 . S
C2129 C2128 1.367 . S
C2129 C2131 1.433 . S
C2130 C2126 1.350 . S
C2130 C2127 1.463 . S
C2130 N2134 1.427 . S
C2131 H2121 0.929 . S
C2131 C2129 1.433 . S
C2131 N2134 1.384 . S
C2132 H2123 0.929 . S
C2132 C2124 1.378 . S
C2132 C2127 1.350 . S
C2133 H2120 0.929 . S
C2133 C2125 1.433 . S
C2133 N2135 1.384 . S
N2134 C2130 1.427 . S
N2134 C2131 1.384 . S
N2135 C2127 1.427 . S
N2135 C2133 1.384 . S
H2136 C2142 0.930 . S
H2137 C2146 0.930 . S
H2138 C2151 0.929 . S
H2139 C2149 0.929 . S
H2140 C2144 0.929 . S
H2141 C2150 0.929 . S
C2142 H2136 0.930 . S
C2142 C2143 1.367 . S
C2142 C2150 1.378 . S
C2143 C2142 1.367 . S
C2143 C2151 1.433 . S
C2144 H2140 0.929 . S
C2144 C2146 1.378 . S
C2144 C2148 1.350 . S
C2145 C2148 1.463 . S
C2145 C2150 1.350 . S
C2145 N2153 1.427 . S
C2146 H2137 0.930 . S
C2146 C2144 1.378 . S
C2146 C2147 1.367 . S
C2147 C2146 1.367 . S
C2147 C2149 1.433 . S
C2148 C2144 1.350 . S
C2148 C2145 1.463 . S
C2148 N2152 1.427 . S
C2149 H2139 0.929 . S
C2149 C2147 1.433 . S
C2149 N2152 1.384 . S
C2150 H2141 0.929 . S
C2150 C2142 1.378 . S
C2150 C2145 1.350 . S
C2151 H2138 0.929 . S
C2151 C2143 1.433 . S
C2151 N2153 1.384 . S
N2152 C2148 1.427 . S
N2152 C2149 1.384 . S
N2153 C2145 1.427 . S
N2153 C2151 1.384 . S
H2154 C2160 0.930 . S
H2155 C2164 0.930 . S
H2156 C2169 0.929 . S
H2157 C2167 0.929 . S
H2158 C2162 0.929 . S
H2159 C2168 0.929 . S
C2160 H2154 0.930 . S
C2160 C2161 1.367 . S
C2160 C2168 1.378 . S
C2161 C2160 1.367 . S
C2161 C2169 1.433 . S
C2162 H2158 0.929 . S
C2162 C2164 1.378 . S
C2162 C2166 1.350 . S
C2163 C2166 1.463 . S
C2163 C2168 1.350 . S
C2163 N2171 1.427 . S
C2164 H2155 0.930 . S
C2164 C2162 1.378 . S
C2164 C2165 1.367 . S
C2165 C2164 1.367 . S
C2165 C2167 1.433 . S
C2166 C2162 1.350 . S
C2166 C2163 1.463 . S
C2166 N2170 1.427 . S
C2167 H2157 0.929 . S
C2167 C2165 1.433 . S
C2167 N2170 1.384 . S
C2168 H2159 0.929 . S
C2168 C2160 1.378 . S
C2168 C2163 1.350 . S
C2169 H2156 0.929 . S
C2169 C2161 1.433 . S
C2169 N2171 1.384 . S
N2170 C2166 1.427 . S
N2170 C2167 1.384 . S
N2171 C2163 1.427 . S
N2171 C2169 1.384 . S
H2172 C2178 0.930 . S
H2173 C2182 0.930 . S
H2174 C2187 0.929 . S
H2175 C2185 0.929 . S
H2176 C2180 0.929 . S
H2177 C2186 0.929 . S
C2178 H2172 0.930 . S
C2178 C2179 1.367 . S
C2178 C2186 1.378 . S
C2179 C2178 1.367 . S
C2179 C2187 1.433 . S
C2180 H2176 0.929 . S
C2180 C2182 1.378 . S
C2180 C2184 1.350 . S
C2181 C2184 1.463 . S
C2181 C2186 1.350 . S
C2181 N2189 1.427 . S
C2182 H2173 0.930 . S
C2182 C2180 1.378 . S
C2182 C2183 1.367 . S
C2183 C2182 1.367 . S
C2183 C2185 1.433 . S
C2184 C2180 1.350 . S
C2184 C2181 1.463 . S
C2184 N2188 1.427 . S
C2185 H2175 0.929 . S
C2185 C2183 1.433 . S
C2185 N2188 1.384 . S
C2186 H2177 0.929 . S
C2186 C2178 1.378 . S
C2186 C2181 1.350 . S
C2187 H2174 0.929 . S
C2187 C2179 1.433 . S
C2187 N2189 1.384 . S
N2188 C2184 1.427 . S
N2188 C2185 1.384 . S
N2189 C2181 1.427 . S
N2189 C2187 1.384 . S
H2190 C2196 0.930 . S
H2191 C2200 0.930 . S
H2192 C2205 0.929 . S
H2193 C2203 0.929 . S
H2194 C2198 0.929 . S
H2195 C2204 0.929 . S
C2196 H2190 0.930 . S
C2196 C2197 1.367 . S
C2196 C2204 1.378 . S
C2197 C2196 1.367 . S
C2197 C2205 1.433 . S
C2198 H2194 0.929 . S
C2198 C2200 1.378 . S
C2198 C2202 1.350 . S
C2199 C2202 1.463 . S
C2199 C2204 1.350 . S
C2199 N2207 1.427 . S
C2200 H2191 0.930 . S
C2200 C2198 1.378 . S
C2200 C2201 1.367 . S
C2201 C2200 1.367 . S
C2201 C2203 1.433 . S
C2202 C2198 1.350 . S
C2202 C2199 1.463 . S
C2202 N2206 1.427 . S
C2203 H2193 0.929 . S
C2203 C2201 1.433 . S
C2203 N2206 1.384 . S
C2204 H2195 0.929 . S
C2204 C2196 1.378 . S
C2204 C2199 1.350 . S
C2205 H2192 0.929 . S
C2205 C2197 1.433 . S
C2205 N2207 1.384 . S
N2206 C2202 1.427 . S
N2206 C2203 1.384 . S
N2207 C2199 1.427 . S
N2207 C2205 1.384 . S
H2208 C2214 0.930 . S
H2209 C2218 0.930 . S
H2210 C2223 0.929 . S
H2211 C2221 0.929 . S
H2212 C2216 0.929 . S
H2213 C2222 0.929 . S
C2214 H2208 0.930 . S
C2214 C2215 1.367 . S
C2214 C2222 1.378 . S
C2215 C2214 1.367 . S
C2215 C2223 1.433 . S
C2216 H2212 0.929 . S
C2216 C2218 1.378 . S
C2216 C2220 1.350 . S
C2217 C2220 1.463 . S
C2217 C2222 1.350 . S
C2217 N2225 1.427 . S
C2218 H2209 0.930 . S
C2218 C2216 1.378 . S
C2218 C2219 1.367 . S
C2219 C2218 1.367 . S
C2219 C2221 1.433 . S
C2220 C2216 1.350 . S
C2220 C2217 1.463 . S
C2220 N2224 1.427 . S
C2221 H2211 0.929 . S
C2221 C2219 1.433 . S
C2221 N2224 1.384 . S
C2222 H2213 0.929 . S
C2222 C2214 1.378 . S
C2222 C2217 1.350 . S
C2223 H2210 0.929 . S
C2223 C2215 1.433 . S
C2223 N2225 1.384 . S
N2224 C2220 1.427 . S
N2224 C2221 1.384 . S
N2225 C2217 1.427 . S
N2225 C2223 1.384 . S
H2226 C2232 0.930 . S
H2227 C2236 0.930 . S
H2228 C2241 0.929 . S
H2229 C2239 0.929 . S
H2230 C2234 0.929 . S
H2231 C2240 0.929 . S
C2232 H2226 0.930 . S
C2232 C2233 1.367 . S
C2232 C2240 1.378 . S
C2233 C2232 1.367 . S
C2233 C2241 1.433 . S
C2234 H2230 0.929 . S
C2234 C2236 1.378 . S
C2234 C2238 1.350 . S
C2235 C2238 1.463 . S
C2235 C2240 1.350 . S
C2235 N2243 1.427 . S
C2236 H2227 0.930 . S
C2236 C2234 1.378 . S
C2236 C2237 1.367 . S
C2237 C2236 1.367 . S
C2237 C2239 1.433 . S
C2238 C2234 1.350 . S
C2238 C2235 1.463 . S
C2238 N2242 1.427 . S
C2239 H2229 0.929 . S
C2239 C2237 1.433 . S
C2239 N2242 1.384 . S
C2240 H2231 0.929 . S
C2240 C2232 1.378 . S
C2240 C2235 1.350 . S
C2241 H2228 0.929 . S
C2241 C2233 1.433 . S
C2241 N2243 1.384 . S
N2242 C2238 1.427 . S
N2242 C2239 1.384 . S
N2243 C2235 1.427 . S
N2243 C2241 1.384 . S
H2244 C2250 0.930 . S
H2245 C2254 0.930 . S
H2246 C2259 0.929 . S
H2247 C2257 0.929 . S
H2248 C2252 0.929 . S
H2249 C2258 0.929 . S
C2250 H2244 0.930 . S
C2250 C2251 1.367 . S
C2250 C2258 1.378 . S
C2251 C2250 1.367 . S
C2251 C2259 1.433 . S
C2252 H2248 0.929 . S
C2252 C2254 1.378 . S
C2252 C2256 1.350 . S
C2253 C2256 1.463 . S
C2253 C2258 1.350 . S
C2253 N2261 1.427 . S
C2254 H2245 0.930 . S
C2254 C2252 1.378 . S
C2254 C2255 1.367 . S
C2255 C2254 1.367 . S
C2255 C2257 1.433 . S
C2256 C2252 1.350 . S
C2256 C2253 1.463 . S
C2256 N2260 1.427 . S
C2257 H2247 0.929 . S
C2257 C2255 1.433 . S
C2257 N2260 1.384 . S
C2258 H2249 0.929 . S
C2258 C2250 1.378 . S
C2258 C2253 1.350 . S
C2259 H2246 0.929 . S
C2259 C2251 1.433 . S
C2259 N2261 1.384 . S
N2260 C2256 1.427 . S
N2260 C2257 1.384 . S
N2261 C2253 1.427 . S
N2261 C2259 1.384 . S
H2262 C2268 0.930 . S
H2263 C2272 0.930 . S
H2264 C2277 0.929 . S
H2265 C2275 0.929 . S
H2266 C2270 0.929 . S
H2267 C2276 0.929 . S
C2268 H2262 0.930 . S
C2268 C2269 1.367 . S
C2268 C2276 1.378 . S
C2269 C2268 1.367 . S
C2269 C2277 1.433 . S
C2270 H2266 0.929 . S
C2270 C2272 1.378 . S
C2270 C2274 1.350 . S
C2271 C2274 1.463 . S
C2271 C2276 1.350 . S
C2271 N2279 1.427 . S
C2272 H2263 0.930 . S
C2272 C2270 1.378 . S
C2272 C2273 1.367 . S
C2273 C2272 1.367 . S
C2273 C2275 1.433 . S
C2274 C2270 1.350 . S
C2274 C2271 1.463 . S
C2274 N2278 1.427 . S
C2275 H2265 0.929 . S
C2275 C2273 1.433 . S
C2275 N2278 1.384 . S
C2276 H2267 0.929 . S
C2276 C2268 1.378 . S
C2276 C2271 1.350 . S
C2277 H2264 0.929 . S
C2277 C2269 1.433 . S
C2277 N2279 1.384 . S
N2278 C2274 1.427 . S
N2278 C2275 1.384 . S
N2279 C2271 1.427 . S
N2279 C2277 1.384 . S
H2280 C2286 0.930 . S
H2281 C2290 0.930 . S
H2282 C2295 0.929 . S
H2283 C2293 0.929 . S
H2284 C2288 0.929 . S
H2285 C2294 0.929 . S
C2286 H2280 0.930 . S
C2286 C2287 1.367 . S
C2286 C2294 1.378 . S
C2287 C2286 1.367 . S
C2287 C2295 1.433 . S
C2288 H2284 0.929 . S
C2288 C2290 1.378 . S
C2288 C2292 1.350 . S
C2289 C2292 1.463 . S
C2289 C2294 1.350 . S
C2289 N2297 1.427 . S
C2290 H2281 0.930 . S
C2290 C2288 1.378 . S
C2290 C2291 1.367 . S
C2291 C2290 1.367 . S
C2291 C2293 1.433 . S
C2292 C2288 1.350 . S
C2292 C2289 1.463 . S
C2292 N2296 1.427 . S
C2293 H2283 0.929 . S
C2293 C2291 1.433 . S
C2293 N2296 1.384 . S
C2294 H2285 0.929 . S
C2294 C2286 1.378 . S
C2294 C2289 1.350 . S
C2295 H2282 0.929 . S
C2295 C2287 1.433 . S
C2295 N2297 1.384 . S
N2296 C2292 1.427 . S
N2296 C2293 1.384 . S
N2297 C2289 1.427 . S
N2297 C2295 1.384 . S
H2298 C2304 0.930 . S
H2299 C2308 0.930 . S
H2300 C2313 0.929 . S
H2301 C2311 0.929 . S
H2302 C2306 0.929 . S
H2303 C2312 0.929 . S
C2304 H2298 0.930 . S
C2304 C2305 1.367 . S
C2304 C2312 1.378 . S
C2305 C2304 1.367 . S
C2305 C2313 1.433 . S
C2306 H2302 0.929 . S
C2306 C2308 1.378 . S
C2306 C2310 1.350 . S
C2307 C2310 1.463 . S
C2307 C2312 1.350 . S
C2307 N2315 1.427 . S
C2308 H2299 0.930 . S
C2308 C2306 1.378 . S
C2308 C2309 1.367 . S
C2309 C2308 1.367 . S
C2309 C2311 1.433 . S
C2310 C2306 1.350 . S
C2310 C2307 1.463 . S
C2310 N2314 1.427 . S
C2311 H2301 0.929 . S
C2311 C2309 1.433 . S
C2311 N2314 1.384 . S
C2312 H2303 0.929 . S
C2312 C2304 1.378 . S
C2312 C2307 1.350 . S
C2313 H2300 0.929 . S
C2313 C2305 1.433 . S
C2313 N2315 1.384 . S
N2314 C2310 1.427 . S
N2314 C2311 1.384 . S
N2315 C2307 1.427 . S
N2315 C2313 1.384 . S
H2316 C2322 0.930 . S
H2317 C2326 0.930 . S
H2318 C2331 0.929 . S
H2319 C2329 0.929 . S
H2320 C2324 0.929 . S
H2321 C2330 0.929 . S
C2322 H2316 0.930 . S
C2322 C2323 1.367 . S
C2322 C2330 1.378 . S
C2323 C2322 1.367 . S
C2323 C2331 1.433 . S
C2324 H2320 0.929 . S
C2324 C2326 1.378 . S
C2324 C2328 1.350 . S
C2325 C2328 1.463 . S
C2325 C2330 1.350 . S
C2325 N2333 1.427 . S
C2326 H2317 0.930 . S
C2326 C2324 1.378 . S
C2326 C2327 1.367 . S
C2327 C2326 1.367 . S
C2327 C2329 1.433 . S
C2328 C2324 1.350 . S
C2328 C2325 1.463 . S
C2328 N2332 1.427 . S
C2329 H2319 0.929 . S
C2329 C2327 1.433 . S
C2329 N2332 1.384 . S
C2330 H2321 0.929 . S
C2330 C2322 1.378 . S
C2330 C2325 1.350 . S
C2331 H2318 0.929 . S
C2331 C2323 1.433 . S
C2331 N2333 1.384 . S
N2332 C2328 1.427 . S
N2332 C2329 1.384 . S
N2333 C2325 1.427 . S
N2333 C2331 1.384 . S
H2334 C2340 0.930 . S
H2335 C2344 0.930 . S
H2336 C2349 0.929 . S
H2337 C2347 0.929 . S
H2338 C2342 0.929 . S
H2339 C2348 0.929 . S
C2340 H2334 0.930 . S
C2340 C2341 1.367 . S
C2340 C2348 1.378 . S
C2341 C2340 1.367 . S
C2341 C2349 1.433 . S
C2342 H2338 0.929 . S
C2342 C2344 1.378 . S
C2342 C2346 1.350 . S
C2343 C2346 1.463 . S
C2343 C2348 1.350 . S
C2343 N2351 1.427 . S
C2344 H2335 0.930 . S
C2344 C2342 1.378 . S
C2344 C2345 1.367 . S
C2345 C2344 1.367 . S
C2345 C2347 1.433 . S
C2346 C2342 1.350 . S
C2346 C2343 1.463 . S
C2346 N2350 1.427 . S
C2347 H2337 0.929 . S
C2347 C2345 1.433 . S
C2347 N2350 1.384 . S
C2348 H2339 0.929 . S
C2348 C2340 1.378 . S
C2348 C2343 1.350 . S
C2349 H2336 0.929 . S
C2349 C2341 1.433 . S
C2349 N2351 1.384 . S
N2350 C2346 1.427 . S
N2350 C2347 1.384 . S
N2351 C2343 1.427 . S
N2351 C2349 1.384 . S
H2352 C2358 0.930 . S
H2353 C2362 0.930 . S
H2354 C2367 0.929 . S
H2355 C2365 0.929 . S
H2356 C2360 0.929 . S
H2357 C2366 0.929 . S
C2358 H2352 0.930 . S
C2358 C2359 1.367 . S
C2358 C2366 1.378 . S
C2359 C2358 1.367 . S
C2359 C2367 1.433 . S
C2360 H2356 0.929 . S
C2360 C2362 1.378 . S
C2360 C2364 1.350 . S
C2361 C2364 1.463 . S
C2361 C2366 1.350 . S
C2361 N2369 1.427 . S
C2362 H2353 0.930 . S
C2362 C2360 1.378 . S
C2362 C2363 1.367 . S
C2363 C2362 1.367 . S
C2363 C2365 1.433 . S
C2364 C2360 1.350 . S
C2364 C2361 1.463 . S
C2364 N2368 1.427 . S
C2365 H2355 0.929 . S
C2365 C2363 1.433 . S
C2365 N2368 1.384 . S
C2366 H2357 0.929 . S
C2366 C2358 1.378 . S
C2366 C2361 1.350 . S
C2367 H2354 0.929 . S
C2367 C2359 1.433 . S
C2367 N2369 1.384 . S
N2368 C2364 1.427 . S
N2368 C2365 1.384 . S
N2369 C2361 1.427 . S
N2369 C2367 1.384 . S
H2370 C2376 0.930 . S
H2371 C2380 0.930 . S
H2372 C2385 0.929 . S
H2373 C2383 0.929 . S
H2374 C2378 0.929 . S
H2375 C2384 0.929 . S
C2376 H2370 0.930 . S
C2376 C2377 1.367 . S
C2376 C2384 1.378 . S
C2377 C2376 1.367 . S
C2377 C2385 1.433 . S
C2378 H2374 0.929 . S
C2378 C2380 1.378 . S
C2378 C2382 1.350 . S
C2379 C2382 1.463 . S
C2379 C2384 1.350 . S
C2379 N2387 1.427 . S
C2380 H2371 0.930 . S
C2380 C2378 1.378 . S
C2380 C2381 1.367 . S
C2381 C2380 1.367 . S
C2381 C2383 1.433 . S
C2382 C2378 1.350 . S
C2382 C2379 1.463 . S
C2382 N2386 1.427 . S
C2383 H2373 0.929 . S
C2383 C2381 1.433 . S
C2383 N2386 1.384 . S
C2384 H2375 0.929 . S
C2384 C2376 1.378 . S
C2384 C2379 1.350 . S
C2385 H2372 0.929 . S
C2385 C2377 1.433 . S
C2385 N2387 1.384 . S
N2386 C2382 1.427 . S
N2386 C2383 1.384 . S
N2387 C2379 1.427 . S
N2387 C2385 1.384 . S
H2388 C2394 0.930 . S
H2389 C2398 0.930 . S
H2390 C2403 0.929 . S
H2391 C2401 0.929 . S
H2392 C2396 0.929 . S
H2393 C2402 0.929 . S
C2394 H2388 0.930 . S
C2394 C2395 1.367 . S
C2394 C2402 1.378 . S
C2395 C2394 1.367 . S
C2395 C2403 1.433 . S
C2396 H2392 0.929 . S
C2396 C2398 1.378 . S
C2396 C2400 1.350 . S
C2397 C2400 1.463 . S
C2397 C2402 1.350 . S
C2397 N2405 1.427 . S
C2398 H2389 0.930 . S
C2398 C2396 1.378 . S
C2398 C2399 1.367 . S
C2399 C2398 1.367 . S
C2399 C2401 1.433 . S
C2400 C2396 1.350 . S
C2400 C2397 1.463 . S
C2400 N2404 1.427 . S
C2401 H2391 0.929 . S
C2401 C2399 1.433 . S
C2401 N2404 1.384 . S
C2402 H2393 0.929 . S
C2402 C2394 1.378 . S
C2402 C2397 1.350 . S
C2403 H2390 0.929 . S
C2403 C2395 1.433 . S
C2403 N2405 1.384 . S
N2404 C2400 1.427 . S
N2404 C2401 1.384 . S
N2405 C2397 1.427 . S
N2405 C2403 1.384 . S
H2406 C2412 0.930 . S
H2407 C2416 0.930 . S
H2408 C2421 0.929 . S
H2409 C2419 0.929 . S
H2410 C2414 0.929 . S
H2411 C2420 0.929 . S
C2412 H2406 0.930 . S
C2412 C2413 1.367 . S
C2412 C2420 1.378 . S
C2413 C2412 1.367 . S
C2413 C2421 1.433 . S
C2414 H2410 0.929 . S
C2414 C2416 1.378 . S
C2414 C2418 1.350 . S
C2415 C2418 1.463 . S
C2415 C2420 1.350 . S
C2415 N2423 1.427 . S
C2416 H2407 0.930 . S
C2416 C2414 1.378 . S
C2416 C2417 1.367 . S
C2417 C2416 1.367 . S
C2417 C2419 1.433 . S
C2418 C2414 1.350 . S
C2418 C2415 1.463 . S
C2418 N2422 1.427 . S
C2419 H2409 0.929 . S
C2419 C2417 1.433 . S
C2419 N2422 1.384 . S
C2420 H2411 0.929 . S
C2420 C2412 1.378 . S
C2420 C2415 1.350 . S
C2421 H2408 0.929 . S
C2421 C2413 1.433 . S
C2421 N2423 1.384 . S
N2422 C2418 1.427 . S
N2422 C2419 1.384 . S
N2423 C2415 1.427 . S
N2423 C2421 1.384 . S
H2424 C2430 0.930 . S
H2425 C2434 0.930 . S
H2426 C2439 0.929 . S
H2427 C2437 0.929 . S
H2428 C2432 0.929 . S
H2429 C2438 0.929 . S
C2430 H2424 0.930 . S
C2430 C2431 1.367 . S
C2430 C2438 1.378 . S
C2431 C2430 1.367 . S
C2431 C2439 1.433 . S
C2432 H2428 0.929 . S
C2432 C2434 1.378 . S
C2432 C2436 1.350 . S
C2433 C2436 1.463 . S
C2433 C2438 1.350 . S
C2433 N2441 1.427 . S
C2434 H2425 0.930 . S
C2434 C2432 1.378 . S
C2434 C2435 1.367 . S
C2435 C2434 1.367 . S
C2435 C2437 1.433 . S
C2436 C2432 1.350 . S
C2436 C2433 1.463 . S
C2436 N2440 1.427 . S
C2437 H2427 0.929 . S
C2437 C2435 1.433 . S
C2437 N2440 1.384 . S
C2438 H2429 0.929 . S
C2438 C2430 1.378 . S
C2438 C2433 1.350 . S
C2439 H2426 0.929 . S
C2439 C2431 1.433 . S
C2439 N2441 1.384 . S
N2440 C2436 1.427 . S
N2440 C2437 1.384 . S
N2441 C2433 1.427 . S
N2441 C2439 1.384 . S
H2442 C2448 0.930 . S
H2443 C2452 0.930 . S
H2444 C2457 0.929 . S
H2445 C2455 0.929 . S
H2446 C2450 0.929 . S
H2447 C2456 0.929 . S
C2448 H2442 0.930 . S
C2448 C2449 1.367 . S
C2448 C2456 1.378 . S
C2449 C2448 1.367 . S
C2449 C2457 1.433 . S
C2450 H2446 0.929 . S
C2450 C2452 1.378 . S
C2450 C2454 1.350 . S
C2451 C2454 1.463 . S
C2451 C2456 1.350 . S
C2451 N2459 1.427 . S
C2452 H2443 0.930 . S
C2452 C2450 1.378 . S
C2452 C2453 1.367 . S
C2453 C2452 1.367 . S
C2453 C2455 1.433 . S
C2454 C2450 1.350 . S
C2454 C2451 1.463 . S
C2454 N2458 1.427 . S
C2455 H2445 0.929 . S
C2455 C2453 1.433 . S
C2455 N2458 1.384 . S
C2456 H2447 0.929 . S
C2456 C2448 1.378 . S
C2456 C2451 1.350 . S
C2457 H2444 0.929 . S
C2457 C2449 1.433 . S
C2457 N2459 1.384 . S
N2458 C2454 1.427 . S
N2458 C2455 1.384 . S
N2459 C2451 1.427 . S
N2459 C2457 1.384 . S
H2460 C2466 0.930 . S
H2461 C2470 0.930 . S
H2462 C2475 0.929 . S
H2463 C2473 0.929 . S
H2464 C2468 0.929 . S
H2465 C2474 0.929 . S
C2466 H2460 0.930 . S
C2466 C2467 1.367 . S
C2466 C2474 1.378 . S
C2467 C2466 1.367 . S
C2467 C2475 1.433 . S
C2468 H2464 0.929 . S
C2468 C2470 1.378 . S
C2468 C2472 1.350 . S
C2469 C2472 1.463 . S
C2469 C2474 1.350 . S
C2469 N2477 1.427 . S
C2470 H2461 0.930 . S
C2470 C2468 1.378 . S
C2470 C2471 1.367 . S
C2471 C2470 1.367 . S
C2471 C2473 1.433 . S
C2472 C2468 1.350 . S
C2472 C2469 1.463 . S
C2472 N2476 1.427 . S
C2473 H2463 0.929 . S
C2473 C2471 1.433 . S
C2473 N2476 1.384 . S
C2474 H2465 0.929 . S
C2474 C2466 1.378 . S
C2474 C2469 1.350 . S
C2475 H2462 0.929 . S
C2475 C2467 1.433 . S
C2475 N2477 1.384 . S
N2476 C2472 1.427 . S
N2476 C2473 1.384 . S
N2477 C2469 1.427 . S
N2477 C2475 1.384 . S
H2478 C2484 0.930 . S
H2479 C2488 0.930 . S
H2480 C2493 0.929 . S
H2481 C2491 0.929 . S
H2482 C2486 0.929 . S
H2483 C2492 0.929 . S
C2484 H2478 0.930 . S
C2484 C2485 1.367 . S
C2484 C2492 1.378 . S
C2485 C2484 1.367 . S
C2485 C2493 1.433 . S
C2486 H2482 0.929 . S
C2486 C2488 1.378 . S
C2486 C2490 1.350 . S
C2487 C2490 1.463 . S
C2487 C2492 1.350 . S
C2487 N2495 1.427 . S
C2488 H2479 0.930 . S
C2488 C2486 1.378 . S
C2488 C2489 1.367 . S
C2489 C2488 1.367 . S
C2489 C2491 1.433 . S
C2490 C2486 1.350 . S
C2490 C2487 1.463 . S
C2490 N2494 1.427 . S
C2491 H2481 0.929 . S
C2491 C2489 1.433 . S
C2491 N2494 1.384 . S
C2492 H2483 0.929 . S
C2492 C2484 1.378 . S
C2492 C2487 1.350 . S
C2493 H2480 0.929 . S
C2493 C2485 1.433 . S
C2493 N2495 1.384 . S
N2494 C2490 1.427 . S
N2494 C2491 1.384 . S
N2495 C2487 1.427 . S
N2495 C2493 1.384 . S
H2496 C2502 0.930 . S
H2497 C2506 0.930 . S
H2498 C2511 0.929 . S
H2499 C2509 0.929 . S
H2500 C2504 0.929 . S
H2501 C2510 0.929 . S
C2502 H2496 0.930 . S
C2502 C2503 1.367 . S
C2502 C2510 1.378 . S
C2503 C2502 1.367 . S
C2503 C2511 1.433 . S
C2504 H2500 0.929 . S
C2504 C2506 1.378 . S
C2504 C2508 1.350 . S
C2505 C2508 1.463 . S
C2505 C2510 1.350 . S
C2505 N2513 1.427 . S
C2506 H2497 0.930 . S
C2506 C2504 1.378 . S
C2506 C2507 1.367 . S
C2507 C2506 1.367 . S
C2507 C2509 1.433 . S
C2508 C2504 1.350 . S
C2508 C2505 1.463 . S
C2508 N2512 1.427 . S
C2509 H2499 0.929 . S
C2509 C2507 1.433 . S
C2509 N2512 1.384 . S
C2510 H2501 0.929 . S
C2510 C2502 1.378 . S
C2510 C2505 1.350 . S
C2511 H2498 0.929 . S
C2511 C2503 1.433 . S
C2511 N2513 1.384 . S
N2512 C2508 1.427 . S
N2512 C2509 1.384 . S
N2513 C2505 1.427 . S
N2513 C2511 1.384 . S
H2514 C2520 0.930 . S
H2515 C2524 0.930 . S
H2516 C2529 0.929 . S
H2517 C2527 0.929 . S
H2518 C2522 0.929 . S
H2519 C2528 0.929 . S
C2520 H2514 0.930 . S
C2520 C2521 1.367 . S
C2520 C2528 1.378 . S
C2521 C2520 1.367 . S
C2521 C2529 1.433 . S
C2522 H2518 0.929 . S
C2522 C2524 1.378 . S
C2522 C2526 1.350 . S
C2523 C2526 1.463 . S
C2523 C2528 1.350 . S
C2523 N2531 1.427 . S
C2524 H2515 0.930 . S
C2524 C2522 1.378 . S
C2524 C2525 1.367 . S
C2525 C2524 1.367 . S
C2525 C2527 1.433 . S
C2526 C2522 1.350 . S
C2526 C2523 1.463 . S
C2526 N2530 1.427 . S
C2527 H2517 0.929 . S
C2527 C2525 1.433 . S
C2527 N2530 1.384 . S
C2528 H2519 0.929 . S
C2528 C2520 1.378 . S
C2528 C2523 1.350 . S
C2529 H2516 0.929 . S
C2529 C2521 1.433 . S
C2529 N2531 1.384 . S
N2530 C2526 1.427 . S
N2530 C2527 1.384 . S
N2531 C2523 1.427 . S
N2531 C2529 1.384 . S
H2532 C2538 0.930 . S
H2533 C2542 0.930 . S
H2534 C2547 0.929 . S
H2535 C2545 0.929 . S
H2536 C2540 0.929 . S
H2537 C2546 0.929 . S
C2538 H2532 0.930 . S
C2538 C2539 1.367 . S
C2538 C2546 1.378 . S
C2539 C2538 1.367 . S
C2539 C2547 1.433 . S
C2540 H2536 0.929 . S
C2540 C2542 1.378 . S
C2540 C2544 1.350 . S
C2541 C2544 1.463 . S
C2541 C2546 1.350 . S
C2541 N2549 1.427 . S
C2542 H2533 0.930 . S
C2542 C2540 1.378 . S
C2542 C2543 1.367 . S
C2543 C2542 1.367 . S
C2543 C2545 1.433 . S
C2544 C2540 1.350 . S
C2544 C2541 1.463 . S
C2544 N2548 1.427 . S
C2545 H2535 0.929 . S
C2545 C2543 1.433 . S
C2545 N2548 1.384 . S
C2546 H2537 0.929 . S
C2546 C2538 1.378 . S
C2546 C2541 1.350 . S
C2547 H2534 0.929 . S
C2547 C2539 1.433 . S
C2547 N2549 1.384 . S
N2548 C2544 1.427 . S
N2548 C2545 1.384 . S
N2549 C2541 1.427 . S
N2549 C2547 1.384 . S
H2550 C2556 0.930 . S
H2551 C2560 0.930 . S
H2552 C2565 0.929 . S
H2553 C2563 0.929 . S
H2554 C2558 0.929 . S
H2555 C2564 0.929 . S
C2556 H2550 0.930 . S
C2556 C2557 1.367 . S
C2556 C2564 1.378 . S
C2557 C2556 1.367 . S
C2557 C2565 1.433 . S
C2558 H2554 0.929 . S
C2558 C2560 1.378 . S
C2558 C2562 1.350 . S
C2559 C2562 1.463 . S
C2559 C2564 1.350 . S
C2559 N2567 1.427 . S
C2560 H2551 0.930 . S
C2560 C2558 1.378 . S
C2560 C2561 1.367 . S
C2561 C2560 1.367 . S
C2561 C2563 1.433 . S
C2562 C2558 1.350 . S
C2562 C2559 1.463 . S
C2562 N2566 1.427 . S
C2563 H2553 0.929 . S
C2563 C2561 1.433 . S
C2563 N2566 1.384 . S
C2564 H2555 0.929 . S
C2564 C2556 1.378 . S
C2564 C2559 1.350 . S
C2565 H2552 0.929 . S
C2565 C2557 1.433 . S
C2565 N2567 1.384 . S
N2566 C2562 1.427 . S
N2566 C2563 1.384 . S
N2567 C2559 1.427 . S
N2567 C2565 1.384 . S
H2568 C2574 0.930 . S
H2569 C2578 0.930 . S
H2570 C2583 0.929 . S
H2571 C2581 0.929 . S
H2572 C2576 0.929 . S
H2573 C2582 0.929 . S
C2574 H2568 0.930 . S
C2574 C2575 1.367 . S
C2574 C2582 1.378 . S
C2575 C2574 1.367 . S
C2575 C2583 1.433 . S
C2576 H2572 0.929 . S
C2576 C2578 1.378 . S
C2576 C2580 1.350 . S
C2577 C2580 1.463 . S
C2577 C2582 1.350 . S
C2577 N2585 1.427 . S
C2578 H2569 0.930 . S
C2578 C2576 1.378 . S
C2578 C2579 1.367 . S
C2579 C2578 1.367 . S
C2579 C2581 1.433 . S
C2580 C2576 1.350 . S
C2580 C2577 1.463 . S
C2580 N2584 1.427 . S
C2581 H2571 0.929 . S
C2581 C2579 1.433 . S
C2581 N2584 1.384 . S
C2582 H2573 0.929 . S
C2582 C2574 1.378 . S
C2582 C2577 1.350 . S
C2583 H2570 0.929 . S
C2583 C2575 1.433 . S
C2583 N2585 1.384 . S
N2584 C2580 1.427 . S
N2584 C2581 1.384 . S
N2585 C2577 1.427 . S
N2585 C2583 1.384 . S
H2586 C2592 0.930 . S
H2587 C2596 0.930 . S
H2588 C2601 0.929 . S
H2589 C2599 0.929 . S
H2590 C2594 0.929 . S
H2591 C2600 0.929 . S
C2592 H2586 0.930 . S
C2592 C2593 1.367 . S
C2592 C2600 1.378 . S
C2593 C2592 1.367 . S
C2593 C2601 1.433 . S
C2594 H2590 0.929 . S
C2594 C2596 1.378 . S
C2594 C2598 1.350 . S
C2595 C2598 1.463 . S
C2595 C2600 1.350 . S
C2595 N2603 1.427 . S
C2596 H2587 0.930 . S
C2596 C2594 1.378 . S
C2596 C2597 1.367 . S
C2597 C2596 1.367 . S
C2597 C2599 1.433 . S
C2598 C2594 1.350 . S
C2598 C2595 1.463 . S
C2598 N2602 1.427 . S
C2599 H2589 0.929 . S
C2599 C2597 1.433 . S
C2599 N2602 1.384 . S
C2600 H2591 0.929 . S
C2600 C2592 1.378 . S
C2600 C2595 1.350 . S
C2601 H2588 0.929 . S
C2601 C2593 1.433 . S
C2601 N2603 1.384 . S
N2602 C2598 1.427 . S
N2602 C2599 1.384 . S
N2603 C2595 1.427 . S
N2603 C2601 1.384 . S
H2604 C2610 0.930 . S
H2605 C2614 0.930 . S
H2606 C2619 0.929 . S
H2607 C2617 0.929 . S
H2608 C2612 0.929 . S
H2609 C2618 0.929 . S
C2610 H2604 0.930 . S
C2610 C2611 1.367 . S
C2610 C2618 1.378 . S
C2611 C2610 1.367 . S
C2611 C2619 1.433 . S
C2612 H2608 0.929 . S
C2612 C2614 1.378 . S
C2612 C2616 1.350 . S
C2613 C2616 1.463 . S
C2613 C2618 1.350 . S
C2613 N2621 1.427 . S
C2614 H2605 0.930 . S
C2614 C2612 1.378 . S
C2614 C2615 1.367 . S
C2615 C2614 1.367 . S
C2615 C2617 1.433 . S
C2616 C2612 1.350 . S
C2616 C2613 1.463 . S
C2616 N2620 1.427 . S
C2617 H2607 0.929 . S
C2617 C2615 1.433 . S
C2617 N2620 1.384 . S
C2618 H2609 0.929 . S
C2618 C2610 1.378 . S
C2618 C2613 1.350 . S
C2619 H2606 0.929 . S
C2619 C2611 1.433 . S
C2619 N2621 1.384 . S
N2620 C2616 1.427 . S
N2620 C2617 1.384 . S
N2621 C2613 1.427 . S
N2621 C2619 1.384 . S
H2622 C2628 0.930 . S
H2623 C2632 0.930 . S
H2624 C2637 0.929 . S
H2625 C2635 0.929 . S
H2626 C2630 0.929 . S
H2627 C2636 0.929 . S
C2628 H2622 0.930 . S
C2628 C2629 1.367 . S
C2628 C2636 1.378 . S
C2629 C2628 1.367 . S
C2629 C2637 1.433 . S
C2630 H2626 0.929 . S
C2630 C2632 1.378 . S
C2630 C2634 1.350 . S
C2631 C2634 1.463 . S
C2631 C2636 1.350 . S
C2631 N2639 1.427 . S
C2632 H2623 0.930 . S
C2632 C2630 1.378 . S
C2632 C2633 1.367 . S
C2633 C2632 1.367 . S
C2633 C2635 1.433 . S
C2634 C2630 1.350 . S
C2634 C2631 1.463 . S
C2634 N2638 1.427 . S
C2635 H2625 0.929 . S
C2635 C2633 1.433 . S
C2635 N2638 1.384 . S
C2636 H2627 0.929 . S
C2636 C2628 1.378 . S
C2636 C2631 1.350 . S
C2637 H2624 0.929 . S
C2637 C2629 1.433 . S
C2637 N2639 1.384 . S
N2638 C2634 1.427 . S
N2638 C2635 1.384 . S
N2639 C2631 1.427 . S
N2639 C2637 1.384 . S
H2640 C2646 0.930 . S
H2641 C2650 0.930 . S
H2642 C2655 0.929 . S
H2643 C2653 0.929 . S
H2644 C2648 0.929 . S
H2645 C2654 0.929 . S
C2646 H2640 0.930 . S
C2646 C2647 1.367 . S
C2646 C2654 1.378 . S
C2647 C2646 1.367 . S
C2647 C2655 1.433 . S
C2648 H2644 0.929 . S
C2648 C2650 1.378 . S
C2648 C2652 1.350 . S
C2649 C2652 1.463 . S
C2649 C2654 1.350 . S
C2649 N2657 1.427 . S
C2650 H2641 0.930 . S
C2650 C2648 1.378 . S
C2650 C2651 1.367 . S
C2651 C2650 1.367 . S
C2651 C2653 1.433 . S
C2652 C2648 1.350 . S
C2652 C2649 1.463 . S
C2652 N2656 1.427 . S
C2653 H2643 0.929 . S
C2653 C2651 1.433 . S
C2653 N2656 1.384 . S
C2654 H2645 0.929 . S
C2654 C2646 1.378 . S
C2654 C2649 1.350 . S
C2655 H2642 0.929 . S
C2655 C2647 1.433 . S
C2655 N2657 1.384 . S
N2656 C2652 1.427 . S
N2656 C2653 1.384 . S
N2657 C2649 1.427 . S
N2657 C2655 1.384 . S
H2658 C2664 0.930 . S
H2659 C2668 0.930 . S
H2660 C2673 0.929 . S
H2661 C2671 0.929 . S
H2662 C2666 0.929 . S
H2663 C2672 0.929 . S
C2664 H2658 0.930 . S
C2664 C2665 1.367 . S
C2664 C2672 1.378 . S
C2665 C2664 1.367 . S
C2665 C2673 1.433 . S
C2666 H2662 0.929 . S
C2666 C2668 1.378 . S
C2666 C2670 1.350 . S
C2667 C2670 1.463 . S
C2667 C2672 1.350 . S
C2667 N2675 1.427 . S
C2668 H2659 0.930 . S
C2668 C2666 1.378 . S
C2668 C2669 1.367 . S
C2669 C2668 1.367 . S
C2669 C2671 1.433 . S
C2670 C2666 1.350 . S
C2670 C2667 1.463 . S
C2670 N2674 1.427 . S
C2671 H2661 0.929 . S
C2671 C2669 1.433 . S
C2671 N2674 1.384 . S
C2672 H2663 0.929 . S
C2672 C2664 1.378 . S
C2672 C2667 1.350 . S
C2673 H2660 0.929 . S
C2673 C2665 1.433 . S
C2673 N2675 1.384 . S
N2674 C2670 1.427 . S
N2674 C2671 1.384 . S
N2675 C2667 1.427 . S
N2675 C2673 1.384 . S
H2676 C2682 0.930 . S
H2677 C2686 0.930 . S
H2678 C2691 0.929 . S
H2679 C2689 0.929 . S
H2680 C2684 0.929 . S
H2681 C2690 0.929 . S
C2682 H2676 0.930 . S
C2682 C2683 1.367 . S
C2682 C2690 1.378 . S
C2683 C2682 1.367 . S
C2683 C2691 1.433 . S
C2684 H2680 0.929 . S
C2684 C2686 1.378 . S
C2684 C2688 1.350 . S
C2685 C2688 1.463 . S
C2685 C2690 1.350 . S
C2685 N2693 1.427 . S
C2686 H2677 0.930 . S
C2686 C2684 1.378 . S
C2686 C2687 1.367 . S
C2687 C2686 1.367 . S
C2687 C2689 1.433 . S
C2688 C2684 1.350 . S
C2688 C2685 1.463 . S
C2688 N2692 1.427 . S
C2689 H2679 0.929 . S
C2689 C2687 1.433 . S
C2689 N2692 1.384 . S
C2690 H2681 0.929 . S
C2690 C2682 1.378 . S
C2690 C2685 1.350 . S
C2691 H2678 0.929 . S
C2691 C2683 1.433 . S
C2691 N2693 1.384 . S
N2692 C2688 1.427 . S
N2692 C2689 1.384 . S
N2693 C2685 1.427 . S
N2693 C2691 1.384 . S
H2694 C2700 0.930 . S
H2695 C2704 0.930 . S
H2696 C2709 0.929 . S
H2697 C2707 0.929 . S
H2698 C2702 0.929 . S
H2699 C2708 0.929 . S
C2700 H2694 0.930 . S
C2700 C2701 1.367 . S
C2700 C2708 1.378 . S
C2701 C2700 1.367 . S
C2701 C2709 1.433 . S
C2702 H2698 0.929 . S
C2702 C2704 1.378 . S
C2702 C2706 1.350 . S
C2703 C2706 1.463 . S
C2703 C2708 1.350 . S
C2703 N2711 1.427 . S
C2704 H2695 0.930 . S
C2704 C2702 1.378 . S
C2704 C2705 1.367 . S
C2705 C2704 1.367 . S
C2705 C2707 1.433 . S
C2706 C2702 1.350 . S
C2706 C2703 1.463 . S
C2706 N2710 1.427 . S
C2707 H2697 0.929 . S
C2707 C2705 1.433 . S
C2707 N2710 1.384 . S
C2708 H2699 0.929 . S
C2708 C2700 1.378 . S
C2708 C2703 1.350 . S
C2709 H2696 0.929 . S
C2709 C2701 1.433 . S
C2709 N2711 1.384 . S
N2710 C2706 1.427 . S
N2710 C2707 1.384 . S
N2711 C2703 1.427 . S
N2711 C2709 1.384 . S
H2712 C2718 0.930 . S
H2713 C2722 0.930 . S
H2714 C2727 0.929 . S
H2715 C2725 0.929 . S
H2716 C2720 0.929 . S
H2717 C2726 0.929 . S
C2718 H2712 0.930 . S
C2718 C2719 1.367 . S
C2718 C2726 1.378 . S
C2719 C2718 1.367 . S
C2719 C2727 1.433 . S
C2720 H2716 0.929 . S
C2720 C2722 1.378 . S
C2720 C2724 1.350 . S
C2721 C2724 1.463 . S
C2721 C2726 1.350 . S
C2721 N2729 1.427 . S
C2722 H2713 0.930 . S
C2722 C2720 1.378 . S
C2722 C2723 1.367 . S
C2723 C2722 1.367 . S
C2723 C2725 1.433 . S
C2724 C2720 1.350 . S
C2724 C2721 1.463 . S
C2724 N2728 1.427 . S
C2725 H2715 0.929 . S
C2725 C2723 1.433 . S
C2725 N2728 1.384 . S
C2726 H2717 0.929 . S
C2726 C2718 1.378 . S
C2726 C2721 1.350 . S
C2727 H2714 0.929 . S
C2727 C2719 1.433 . S
C2727 N2729 1.384 . S
N2728 C2724 1.427 . S
N2728 C2725 1.384 . S
N2729 C2721 1.427 . S
N2729 C2727 1.384 . S
H2730 C2736 0.930 . S
H2731 C2740 0.930 . S
H2732 C2745 0.929 . S
H2733 C2743 0.929 . S
H2734 C2738 0.929 . S
H2735 C2744 0.929 . S
C2736 H2730 0.930 . S
C2736 C2737 1.367 . S
C2736 C2744 1.378 . S
C2737 C2736 1.367 . S
C2737 C2745 1.433 . S
C2738 H2734 0.929 . S
C2738 C2740 1.378 . S
C2738 C2742 1.350 . S
C2739 C2742 1.463 . S
C2739 C2744 1.350 . S
C2739 N2747 1.427 . S
C2740 H2731 0.930 . S
C2740 C2738 1.378 . S
C2740 C2741 1.367 . S
C2741 C2740 1.367 . S
C2741 C2743 1.433 . S
C2742 C2738 1.350 . S
C2742 C2739 1.463 . S
C2742 N2746 1.427 . S
C2743 H2733 0.929 . S
C2743 C2741 1.433 . S
C2743 N2746 1.384 . S
C2744 H2735 0.929 . S
C2744 C2736 1.378 . S
C2744 C2739 1.350 . S
C2745 H2732 0.929 . S
C2745 C2737 1.433 . S
C2745 N2747 1.384 . S
N2746 C2742 1.427 . S
N2746 C2743 1.384 . S
N2747 C2739 1.427 . S
N2747 C2745 1.384 . S
H2748 C2754 0.930 . S
H2749 C2758 0.930 . S
H2750 C2763 0.929 . S
H2751 C2761 0.929 . S
H2752 C2756 0.929 . S
H2753 C2762 0.929 . S
C2754 H2748 0.930 . S
C2754 C2755 1.367 . S
C2754 C2762 1.378 . S
C2755 C2754 1.367 . S
C2755 C2763 1.433 . S
C2756 H2752 0.929 . S
C2756 C2758 1.378 . S
C2756 C2760 1.350 . S
C2757 C2760 1.463 . S
C2757 C2762 1.350 . S
C2757 N2765 1.427 . S
C2758 H2749 0.930 . S
C2758 C2756 1.378 . S
C2758 C2759 1.367 . S
C2759 C2758 1.367 . S
C2759 C2761 1.433 . S
C2760 C2756 1.350 . S
C2760 C2757 1.463 . S
C2760 N2764 1.427 . S
C2761 H2751 0.929 . S
C2761 C2759 1.433 . S
C2761 N2764 1.384 . S
C2762 H2753 0.929 . S
C2762 C2754 1.378 . S
C2762 C2757 1.350 . S
C2763 H2750 0.929 . S
C2763 C2755 1.433 . S
C2763 N2765 1.384 . S
N2764 C2760 1.427 . S
N2764 C2761 1.384 . S
N2765 C2757 1.427 . S
N2765 C2763 1.384 . S
H2766 C2772 0.930 . S
H2767 C2776 0.930 . S
H2768 C2781 0.929 . S
H2769 C2779 0.929 . S
H2770 C2774 0.929 . S
H2771 C2780 0.929 . S
C2772 H2766 0.930 . S
C2772 C2773 1.367 . S
C2772 C2780 1.378 . S
C2773 C2772 1.367 . S
C2773 C2781 1.433 . S
C2774 H2770 0.929 . S
C2774 C2776 1.378 . S
C2774 C2778 1.350 . S
C2775 C2778 1.463 . S
C2775 C2780 1.350 . S
C2775 N2783 1.427 . S
C2776 H2767 0.930 . S
C2776 C2774 1.378 . S
C2776 C2777 1.367 . S
C2777 C2776 1.367 . S
C2777 C2779 1.433 . S
C2778 C2774 1.350 . S
C2778 C2775 1.463 . S
C2778 N2782 1.427 . S
C2779 H2769 0.929 . S
C2779 C2777 1.433 . S
C2779 N2782 1.384 . S
C2780 H2771 0.929 . S
C2780 C2772 1.378 . S
C2780 C2775 1.350 . S
C2781 H2768 0.929 . S
C2781 C2773 1.433 . S
C2781 N2783 1.384 . S
N2782 C2778 1.427 . S
N2782 C2779 1.384 . S
N2783 C2775 1.427 . S
N2783 C2781 1.384 . S
H2784 C2790 0.930 . S
H2785 C2794 0.930 . S
H2786 C2799 0.929 . S
H2787 C2797 0.929 . S
H2788 C2792 0.929 . S
H2789 C2798 0.929 . S
C2790 H2784 0.930 . S
C2790 C2791 1.367 . S
C2790 C2798 1.378 . S
C2791 C2790 1.367 . S
C2791 C2799 1.433 . S
C2792 H2788 0.929 . S
C2792 C2794 1.378 . S
C2792 C2796 1.350 . S
C2793 C2796 1.463 . S
C2793 C2798 1.350 . S
C2793 N2801 1.427 . S
C2794 H2785 0.930 . S
C2794 C2792 1.378 . S
C2794 C2795 1.367 . S
C2795 C2794 1.367 . S
C2795 C2797 1.433 . S
C2796 C2792 1.350 . S
C2796 C2793 1.463 . S
C2796 N2800 1.427 . S
C2797 H2787 0.929 . S
C2797 C2795 1.433 . S
C2797 N2800 1.384 . S
C2798 H2789 0.929 . S
C2798 C2790 1.378 . S
C2798 C2793 1.350 . S
C2799 H2786 0.929 . S
C2799 C2791 1.433 . S
C2799 N2801 1.384 . S
N2800 C2796 1.427 . S
N2800 C2797 1.384 . S
N2801 C2793 1.427 . S
N2801 C2799 1.384 . S
H2802 C2808 0.930 . S
H2803 C2812 0.930 . S
H2804 C2817 0.929 . S
H2805 C2815 0.929 . S
H2806 C2810 0.929 . S
H2807 C2816 0.929 . S
C2808 H2802 0.930 . S
C2808 C2809 1.367 . S
C2808 C2816 1.378 . S
C2809 C2808 1.367 . S
C2809 C2817 1.433 . S
C2810 H2806 0.929 . S
C2810 C2812 1.378 . S
C2810 C2814 1.350 . S
C2811 C2814 1.463 . S
C2811 C2816 1.350 . S
C2811 N2819 1.427 . S
C2812 H2803 0.930 . S
C2812 C2810 1.378 . S
C2812 C2813 1.367 . S
C2813 C2812 1.367 . S
C2813 C2815 1.433 . S
C2814 C2810 1.350 . S
C2814 C2811 1.463 . S
C2814 N2818 1.427 . S
C2815 H2805 0.929 . S
C2815 C2813 1.433 . S
C2815 N2818 1.384 . S
C2816 H2807 0.929 . S
C2816 C2808 1.378 . S
C2816 C2811 1.350 . S
C2817 H2804 0.929 . S
C2817 C2809 1.433 . S
C2817 N2819 1.384 . S
N2818 C2814 1.427 . S
N2818 C2815 1.384 . S
N2819 C2811 1.427 . S
N2819 C2817 1.384 . S
H2820 C2826 0.930 . S
H2821 C2830 0.930 . S
H2822 C2835 0.929 . S
H2823 C2833 0.929 . S
H2824 C2828 0.929 . S
H2825 C2834 0.929 . S
C2826 H2820 0.930 . S
C2826 C2827 1.367 . S
C2826 C2834 1.378 . S
C2827 C2826 1.367 . S
C2827 C2835 1.433 . S
C2828 H2824 0.929 . S
C2828 C2830 1.378 . S
C2828 C2832 1.350 . S
C2829 C2832 1.463 . S
C2829 C2834 1.350 . S
C2829 N2837 1.427 . S
C2830 H2821 0.930 . S
C2830 C2828 1.378 . S
C2830 C2831 1.367 . S
C2831 C2830 1.367 . S
C2831 C2833 1.433 . S
C2832 C2828 1.350 . S
C2832 C2829 1.463 . S
C2832 N2836 1.427 . S
C2833 H2823 0.929 . S
C2833 C2831 1.433 . S
C2833 N2836 1.384 . S
C2834 H2825 0.929 . S
C2834 C2826 1.378 . S
C2834 C2829 1.350 . S
C2835 H2822 0.929 . S
C2835 C2827 1.433 . S
C2835 N2837 1.384 . S
N2836 C2832 1.427 . S
N2836 C2833 1.384 . S
N2837 C2829 1.427 . S
N2837 C2835 1.384 . S
H2838 C2844 0.930 . S
H2839 C2848 0.930 . S
H2840 C2853 0.929 . S
H2841 C2851 0.929 . S
H2842 C2846 0.929 . S
H2843 C2852 0.929 . S
C2844 H2838 0.930 . S
C2844 C2845 1.367 . S
C2844 C2852 1.378 . S
C2845 C2844 1.367 . S
C2845 C2853 1.433 . S
C2846 H2842 0.929 . S
C2846 C2848 1.378 . S
C2846 C2850 1.350 . S
C2847 C2850 1.463 . S
C2847 C2852 1.350 . S
C2847 N2855 1.427 . S
C2848 H2839 0.930 . S
C2848 C2846 1.378 . S
C2848 C2849 1.367 . S
C2849 C2848 1.367 . S
C2849 C2851 1.433 . S
C2850 C2846 1.350 . S
C2850 C2847 1.463 . S
C2850 N2854 1.427 . S
C2851 H2841 0.929 . S
C2851 C2849 1.433 . S
C2851 N2854 1.384 . S
C2852 H2843 0.929 . S
C2852 C2844 1.378 . S
C2852 C2847 1.350 . S
C2853 H2840 0.929 . S
C2853 C2845 1.433 . S
C2853 N2855 1.384 . S
N2854 C2850 1.427 . S
N2854 C2851 1.384 . S
N2855 C2847 1.427 . S
N2855 C2853 1.384 . S
H2856 C2862 0.930 . S
H2857 C2866 0.930 . S
H2858 C2871 0.929 . S
H2859 C2869 0.929 . S
H2860 C2864 0.929 . S
H2861 C2870 0.929 . S
C2862 H2856 0.930 . S
C2862 C2863 1.367 . S
C2862 C2870 1.378 . S
C2863 C2862 1.367 . S
C2863 C2871 1.433 . S
C2864 H2860 0.929 . S
C2864 C2866 1.378 . S
C2864 C2868 1.350 . S
C2865 C2868 1.463 . S
C2865 C2870 1.350 . S
C2865 N2873 1.427 . S
C2866 H2857 0.930 . S
C2866 C2864 1.378 . S
C2866 C2867 1.367 . S
C2867 C2866 1.367 . S
C2867 C2869 1.433 . S
C2868 C2864 1.350 . S
C2868 C2865 1.463 . S
C2868 N2872 1.427 . S
C2869 H2859 0.929 . S
C2869 C2867 1.433 . S
C2869 N2872 1.384 . S
C2870 H2861 0.929 . S
C2870 C2862 1.378 . S
C2870 C2865 1.350 . S
C2871 H2858 0.929 . S
C2871 C2863 1.433 . S
C2871 N2873 1.384 . S
N2872 C2868 1.427 . S
N2872 C2869 1.384 . S
N2873 C2865 1.427 . S
N2873 C2871 1.384 . S
H2874 C2880 0.930 . S
H2875 C2884 0.930 . S
H2876 C2889 0.929 . S
H2877 C2887 0.929 . S
H2878 C2882 0.929 . S
H2879 C2888 0.929 . S
C2880 H2874 0.930 . S
C2880 C2881 1.367 . S
C2880 C2888 1.378 . S
C2881 C2880 1.367 . S
C2881 C2889 1.433 . S
C2882 H2878 0.929 . S
C2882 C2884 1.378 . S
C2882 C2886 1.350 . S
C2883 C2886 1.463 . S
C2883 C2888 1.350 . S
C2883 N2891 1.427 . S
C2884 H2875 0.930 . S
C2884 C2882 1.378 . S
C2884 C2885 1.367 . S
C2885 C2884 1.367 . S
C2885 C2887 1.433 . S
C2886 C2882 1.350 . S
C2886 C2883 1.463 . S
C2886 N2890 1.427 . S
C2887 H2877 0.929 . S
C2887 C2885 1.433 . S
C2887 N2890 1.384 . S
C2888 H2879 0.929 . S
C2888 C2880 1.378 . S
C2888 C2883 1.350 . S
C2889 H2876 0.929 . S
C2889 C2881 1.433 . S
C2889 N2891 1.384 . S
N2890 C2886 1.427 . S
N2890 C2887 1.384 . S
N2891 C2883 1.427 . S
N2891 C2889 1.384 . S
H2892 C2898 0.930 . S
H2893 C2902 0.930 . S
H2894 C2907 0.929 . S
H2895 C2905 0.929 . S
H2896 C2900 0.929 . S
H2897 C2906 0.929 . S
C2898 H2892 0.930 . S
C2898 C2899 1.367 . S
C2898 C2906 1.378 . S
C2899 C2898 1.367 . S
C2899 C2907 1.433 . S
C2900 H2896 0.929 . S
C2900 C2902 1.378 . S
C2900 C2904 1.350 . S
C2901 C2904 1.463 . S
C2901 C2906 1.350 . S
C2901 N2909 1.427 . S
C2902 H2893 0.930 . S
C2902 C2900 1.378 . S
C2902 C2903 1.367 . S
C2903 C2902 1.367 . S
C2903 C2905 1.433 . S
C2904 C2900 1.350 . S
C2904 C2901 1.463 . S
C2904 N2908 1.427 . S
C2905 H2895 0.929 . S
C2905 C2903 1.433 . S
C2905 N2908 1.384 . S
C2906 H2897 0.929 . S
C2906 C2898 1.378 . S
C2906 C2901 1.350 . S
C2907 H2894 0.929 . S
C2907 C2899 1.433 . S
C2907 N2909 1.384 . S
N2908 C2904 1.427 . S
N2908 C2905 1.384 . S
N2909 C2901 1.427 . S
N2909 C2907 1.384 . S
H2910 C2916 0.930 . S
H2911 C2920 0.930 . S
H2912 C2925 0.929 . S
H2913 C2923 0.929 . S
H2914 C2918 0.929 . S
H2915 C2924 0.929 . S
C2916 H2910 0.930 . S
C2916 C2917 1.367 . S
C2916 C2924 1.378 . S
C2917 C2916 1.367 . S
C2917 C2925 1.433 . S
C2918 H2914 0.929 . S
C2918 C2920 1.378 . S
C2918 C2922 1.350 . S
C2919 C2922 1.463 . S
C2919 C2924 1.350 . S
C2919 N2927 1.427 . S
C2920 H2911 0.930 . S
C2920 C2918 1.378 . S
C2920 C2921 1.367 . S
C2921 C2920 1.367 . S
C2921 C2923 1.433 . S
C2922 C2918 1.350 . S
C2922 C2919 1.463 . S
C2922 N2926 1.427 . S
C2923 H2913 0.929 . S
C2923 C2921 1.433 . S
C2923 N2926 1.384 . S
C2924 H2915 0.929 . S
C2924 C2916 1.378 . S
C2924 C2919 1.350 . S
C2925 H2912 0.929 . S
C2925 C2917 1.433 . S
C2925 N2927 1.384 . S
N2926 C2922 1.427 . S
N2926 C2923 1.384 . S
N2927 C2919 1.427 . S
N2927 C2925 1.384 . S
H2928 C2934 0.930 1_556 S
H2929 C2938 0.930 . S
H2930 C2943 0.929 . S
H2931 C2941 0.929 . S
H2932 C2936 0.929 . S
H2933 C2942 0.929 . S
C2934 H2928 0.930 1_554 S
C2934 C2935 1.367 . S
C2934 C2942 1.378 . S
C2935 C2934 1.367 . S
C2935 C2943 1.433 . S
C2936 H2932 0.929 . S
C2936 C2938 1.378 . S
C2936 C2940 1.350 . S
C2937 C2940 1.463 . S
C2937 C2942 1.350 . S
C2937 N2945 1.427 . S
C2938 H2929 0.930 . S
C2938 C2936 1.378 . S
C2938 C2939 1.367 . S
C2939 C2938 1.367 . S
C2939 C2941 1.433 . S
C2940 C2936 1.350 . S
C2940 C2937 1.463 . S
C2940 N2944 1.427 . S
C2941 H2931 0.929 . S
C2941 C2939 1.433 . S
C2941 N2944 1.384 . S
C2942 H2933 0.929 . S
C2942 C2934 1.378 . S
C2942 C2937 1.350 . S
C2943 H2930 0.929 . S
C2943 C2935 1.433 . S
C2943 N2945 1.384 . S
N2944 C2940 1.427 . S
N2944 C2941 1.384 . S
N2945 C2937 1.427 . S
N2945 C2943 1.384 . S
H2946 C2952 0.930 . S
H2947 C2956 0.930 . S
H2948 C2961 0.929 . S
H2949 C2959 0.929 . S
H2950 C2954 0.929 . S
H2951 C2960 0.929 . S
C2952 H2946 0.930 . S
C2952 C2953 1.367 . S
C2952 C2960 1.378 . S
C2953 C2952 1.367 . S
C2953 C2961 1.433 . S
C2954 H2950 0.929 . S
C2954 C2956 1.378 . S
C2954 C2958 1.350 . S
C2955 C2958 1.463 . S
C2955 C2960 1.350 . S
C2955 N2963 1.427 . S
C2956 H2947 0.930 . S
C2956 C2954 1.378 . S
C2956 C2957 1.367 . S
C2957 C2956 1.367 . S
C2957 C2959 1.433 . S
C2958 C2954 1.350 . S
C2958 C2955 1.463 . S
C2958 N2962 1.427 . S
C2959 H2949 0.929 . S
C2959 C2957 1.433 . S
C2959 N2962 1.384 . S
C2960 H2951 0.929 . S
C2960 C2952 1.378 . S
C2960 C2955 1.350 . S
C2961 H2948 0.929 . S
C2961 C2953 1.433 . S
C2961 N2963 1.384 . S
N2962 C2958 1.427 . S
N2962 C2959 1.384 . S
N2963 C2955 1.427 . S
N2963 C2961 1.384 . S
H2964 C2970 0.930 . S
H2965 C2974 0.930 . S
H2966 C2979 0.929 . S
H2967 C2977 0.929 . S
H2968 C2972 0.929 . S
H2969 C2978 0.929 . S
C2970 H2964 0.930 . S
C2970 C2971 1.367 . S
C2970 C2978 1.378 . S
C2971 C2970 1.367 . S
C2971 C2979 1.433 . S
C2972 H2968 0.929 . S
C2972 C2974 1.378 . S
C2972 C2976 1.350 . S
C2973 C2976 1.463 . S
C2973 C2978 1.350 . S
C2973 N2981 1.427 . S
C2974 H2965 0.930 . S
C2974 C2972 1.378 . S
C2974 C2975 1.367 . S
C2975 C2974 1.367 . S
C2975 C2977 1.433 . S
C2976 C2972 1.350 . S
C2976 C2973 1.463 . S
C2976 N2980 1.427 . S
C2977 H2967 0.929 . S
C2977 C2975 1.433 . S
C2977 N2980 1.384 . S
C2978 H2969 0.929 . S
C2978 C2970 1.378 . S
C2978 C2973 1.350 . S
C2979 H2966 0.929 . S
C2979 C2971 1.433 . S
C2979 N2981 1.384 . S
N2980 C2976 1.427 . S
N2980 C2977 1.384 . S
N2981 C2973 1.427 . S
N2981 C2979 1.384 . S
H2982 C2988 0.930 . S
H2983 C2992 0.930 . S
H2984 C2997 0.929 . S
H2985 C2995 0.929 . S
H2986 C2990 0.929 . S
H2987 C2996 0.929 . S
C2988 H2982 0.930 . S
C2988 C2989 1.367 . S
C2988 C2996 1.378 . S
C2989 C2988 1.367 . S
C2989 C2997 1.433 . S
C2990 H2986 0.929 . S
C2990 C2992 1.378 . S
C2990 C2994 1.350 . S
C2991 C2994 1.463 . S
C2991 C2996 1.350 . S
C2991 N2999 1.427 . S
C2992 H2983 0.930 . S
C2992 C2990 1.378 . S
C2992 C2993 1.367 . S
C2993 C2992 1.367 . S
C2993 C2995 1.433 . S
C2994 C2990 1.350 . S
C2994 C2991 1.463 . S
C2994 N2998 1.427 . S
C2995 H2985 0.929 . S
C2995 C2993 1.433 . S
C2995 N2998 1.384 . S
C2996 H2987 0.929 . S
C2996 C2988 1.378 . S
C2996 C2991 1.350 . S
C2997 H2984 0.929 . S
C2997 C2989 1.433 . S
C2997 N2999 1.384 . S
N2998 C2994 1.427 . S
N2998 C2995 1.384 . S
N2999 C2991 1.427 . S
N2999 C2997 1.384 . S
H3000 C3006 0.930 . S
H3001 C3010 0.930 . S
H3002 C3015 0.929 . S
H3003 C3013 0.929 . S
H3004 C3008 0.929 . S
H3005 C3014 0.929 . S
C3006 H3000 0.930 . S
C3006 C3007 1.367 . S
C3006 C3014 1.378 . S
C3007 C3006 1.367 . S
C3007 C3015 1.433 . S
C3008 H3004 0.929 . S
C3008 C3010 1.378 . S
C3008 C3012 1.350 . S
C3009 C3012 1.463 . S
C3009 C3014 1.350 . S
C3009 N3017 1.427 . S
C3010 H3001 0.930 . S
C3010 C3008 1.378 . S
C3010 C3011 1.367 . S
C3011 C3010 1.367 . S
C3011 C3013 1.433 . S
C3012 C3008 1.350 . S
C3012 C3009 1.463 . S
C3012 N3016 1.427 . S
C3013 H3003 0.929 . S
C3013 C3011 1.433 . S
C3013 N3016 1.384 . S
C3014 H3005 0.929 . S
C3014 C3006 1.378 . S
C3014 C3009 1.350 . S
C3015 H3002 0.929 . S
C3015 C3007 1.433 . S
C3015 N3017 1.384 . S
N3016 C3012 1.427 . S
N3016 C3013 1.384 . S
N3017 C3009 1.427 . S
N3017 C3015 1.384 . S
H3018 C3024 0.930 . S
H3019 C3028 0.930 . S
H3020 C3033 0.929 . S
H3021 C3031 0.929 . S
H3022 C3026 0.929 . S
H3023 C3032 0.929 . S
C3024 H3018 0.930 . S
C3024 C3025 1.367 . S
C3024 C3032 1.378 . S
C3025 C3024 1.367 . S
C3025 C3033 1.433 . S
C3026 H3022 0.929 . S
C3026 C3028 1.378 . S
C3026 C3030 1.350 . S
C3027 C3030 1.463 . S
C3027 C3032 1.350 . S
C3027 N3035 1.427 . S
C3028 H3019 0.930 . S
C3028 C3026 1.378 . S
C3028 C3029 1.367 . S
C3029 C3028 1.367 . S
C3029 C3031 1.433 . S
C3030 C3026 1.350 . S
C3030 C3027 1.463 . S
C3030 N3034 1.427 . S
C3031 H3021 0.929 . S
C3031 C3029 1.433 . S
C3031 N3034 1.384 . S
C3032 H3023 0.929 . S
C3032 C3024 1.378 . S
C3032 C3027 1.350 . S
C3033 H3020 0.929 . S
C3033 C3025 1.433 . S
C3033 N3035 1.384 . S
N3034 C3030 1.427 . S
N3034 C3031 1.384 . S
N3035 C3027 1.427 . S
N3035 C3033 1.384 . S
H3036 C3042 0.930 . S
H3037 C3046 0.930 . S
H3038 C3051 0.929 . S
H3039 C3049 0.929 . S
H3040 C3044 0.929 . S
H3041 C3050 0.929 . S
C3042 H3036 0.930 . S
C3042 C3043 1.367 . S
C3042 C3050 1.378 . S
C3043 C3042 1.367 . S
C3043 C3051 1.433 . S
C3044 H3040 0.929 . S
C3044 C3046 1.378 . S
C3044 C3048 1.350 . S
C3045 C3048 1.463 . S
C3045 C3050 1.350 . S
C3045 N3053 1.427 . S
C3046 H3037 0.930 . S
C3046 C3044 1.378 . S
C3046 C3047 1.367 . S
C3047 C3046 1.367 . S
C3047 C3049 1.433 . S
C3048 C3044 1.350 . S
C3048 C3045 1.463 . S
C3048 N3052 1.427 . S
C3049 H3039 0.929 . S
C3049 C3047 1.433 . S
C3049 N3052 1.384 . S
C3050 H3041 0.929 . S
C3050 C3042 1.378 . S
C3050 C3045 1.350 . S
C3051 H3038 0.929 . S
C3051 C3043 1.433 . S
C3051 N3053 1.384 . S
N3052 C3048 1.427 . S
N3052 C3049 1.384 . S
N3053 C3045 1.427 . S
N3053 C3051 1.384 . S
H3054 C3060 0.930 . S
H3055 C3064 0.930 . S
H3056 C3069 0.929 . S
H3057 C3067 0.929 . S
H3058 C3062 0.929 . S
H3059 C3068 0.929 . S
C3060 H3054 0.930 . S
C3060 C3061 1.367 . S
C3060 C3068 1.378 . S
C3061 C3060 1.367 . S
C3061 C3069 1.433 . S
C3062 H3058 0.929 . S
C3062 C3064 1.378 . S
C3062 C3066 1.350 . S
C3063 C3066 1.463 . S
C3063 C3068 1.350 . S
C3063 N3071 1.427 . S
C3064 H3055 0.930 . S
C3064 C3062 1.378 . S
C3064 C3065 1.367 . S
C3065 C3064 1.367 . S
C3065 C3067 1.433 . S
C3066 C3062 1.350 . S
C3066 C3063 1.463 . S
C3066 N3070 1.427 . S
C3067 H3057 0.929 . S
C3067 C3065 1.433 . S
C3067 N3070 1.384 . S
C3068 H3059 0.929 . S
C3068 C3060 1.378 . S
C3068 C3063 1.350 . S
C3069 H3056 0.929 . S
C3069 C3061 1.433 . S
C3069 N3071 1.384 . S
N3070 C3066 1.427 . S
N3070 C3067 1.384 . S
N3071 C3063 1.427 . S
N3071 C3069 1.384 . S
H3072 C3078 0.930 . S
H3073 C3082 0.930 . S
H3074 C3087 0.929 . S
H3075 C3085 0.929 . S
H3076 C3080 0.929 . S
H3077 C3086 0.929 . S
C3078 H3072 0.930 . S
C3078 C3079 1.367 . S
C3078 C3086 1.378 . S
C3079 C3078 1.367 . S
C3079 C3087 1.433 . S
C3080 H3076 0.929 . S
C3080 C3082 1.378 . S
C3080 C3084 1.350 . S
C3081 C3084 1.463 . S
C3081 C3086 1.350 . S
C3081 N3089 1.427 . S
C3082 H3073 0.930 . S
C3082 C3080 1.378 . S
C3082 C3083 1.367 . S
C3083 C3082 1.367 . S
C3083 C3085 1.433 . S
C3084 C3080 1.350 . S
C3084 C3081 1.463 . S
C3084 N3088 1.427 . S
C3085 H3075 0.929 . S
C3085 C3083 1.433 . S
C3085 N3088 1.384 . S
C3086 H3077 0.929 . S
C3086 C3078 1.378 . S
C3086 C3081 1.350 . S
C3087 H3074 0.929 . S
C3087 C3079 1.433 . S
C3087 N3089 1.384 . S
N3088 C3084 1.427 . S
N3088 C3085 1.384 . S
N3089 C3081 1.427 . S
N3089 C3087 1.384 . S
H3090 C3096 0.930 . S
H3091 C3100 0.930 . S
H3092 C3105 0.929 . S
H3093 C3103 0.929 . S
H3094 C3098 0.929 . S
H3095 C3104 0.929 . S
C3096 H3090 0.930 . S
C3096 C3097 1.367 . S
C3096 C3104 1.378 . S
C3097 C3096 1.367 . S
C3097 C3105 1.433 . S
C3098 H3094 0.929 . S
C3098 C3100 1.378 . S
C3098 C3102 1.350 . S
C3099 C3102 1.463 . S
C3099 C3104 1.350 . S
C3099 N3107 1.427 . S
C3100 H3091 0.930 . S
C3100 C3098 1.378 . S
C3100 C3101 1.367 . S
C3101 C3100 1.367 . S
C3101 C3103 1.433 . S
C3102 C3098 1.350 . S
C3102 C3099 1.463 . S
C3102 N3106 1.427 . S
C3103 H3093 0.929 . S
C3103 C3101 1.433 . S
C3103 N3106 1.384 . S
C3104 H3095 0.929 . S
C3104 C3096 1.378 . S
C3104 C3099 1.350 . S
C3105 H3092 0.929 . S
C3105 C3097 1.433 . S
C3105 N3107 1.384 . S
N3106 C3102 1.427 . S
N3106 C3103 1.384 . S
N3107 C3099 1.427 . S
N3107 C3105 1.384 . S
H3108 C3114 0.930 . S
H3109 C3118 0.930 . S
H3110 C3123 0.929 . S
H3111 C3121 0.929 . S
H3112 C3116 0.929 . S
H3113 C3122 0.929 . S
C3114 H3108 0.930 . S
C3114 C3115 1.367 . S
C3114 C3122 1.378 . S
C3115 C3114 1.367 . S
C3115 C3123 1.433 . S
C3116 H3112 0.929 . S
C3116 C3118 1.378 . S
C3116 C3120 1.350 . S
C3117 C3120 1.463 . S
C3117 C3122 1.350 . S
C3117 N3125 1.427 . S
C3118 H3109 0.930 . S
C3118 C3116 1.378 . S
C3118 C3119 1.367 . S
C3119 C3118 1.367 . S
C3119 C3121 1.433 . S
C3120 C3116 1.350 . S
C3120 C3117 1.463 . S
C3120 N3124 1.427 . S
C3121 H3111 0.929 . S
C3121 C3119 1.433 . S
C3121 N3124 1.384 . S
C3122 H3113 0.929 . S
C3122 C3114 1.378 . S
C3122 C3117 1.350 . S
C3123 H3110 0.929 . S
C3123 C3115 1.433 . S
C3123 N3125 1.384 . S
N3124 C3120 1.427 . S
N3124 C3121 1.384 . S
N3125 C3117 1.427 . S
N3125 C3123 1.384 . S
H3126 C3132 0.930 . S
H3127 C3136 0.930 . S
H3128 C3141 0.929 . S
H3129 C3139 0.929 . S
H3130 C3134 0.929 . S
H3131 C3140 0.929 . S
C3132 H3126 0.930 . S
C3132 C3133 1.367 . S
C3132 C3140 1.378 . S
C3133 C3132 1.367 . S
C3133 C3141 1.433 . S
C3134 H3130 0.929 . S
C3134 C3136 1.378 . S
C3134 C3138 1.350 . S
C3135 C3138 1.463 . S
C3135 C3140 1.350 . S
C3135 N3143 1.427 . S
C3136 H3127 0.930 . S
C3136 C3134 1.378 . S
C3136 C3137 1.367 . S
C3137 C3136 1.367 . S
C3137 C3139 1.433 . S
C3138 C3134 1.350 . S
C3138 C3135 1.463 . S
C3138 N3142 1.427 . S
C3139 H3129 0.929 . S
C3139 C3137 1.433 . S
C3139 N3142 1.384 . S
C3140 H3131 0.929 . S
C3140 C3132 1.378 . S
C3140 C3135 1.350 . S
C3141 H3128 0.929 . S
C3141 C3133 1.433 . S
C3141 N3143 1.384 . S
N3142 C3138 1.427 . S
N3142 C3139 1.384 . S
N3143 C3135 1.427 . S
N3143 C3141 1.384 . S
H3144 C3150 0.930 . S
H3145 C3154 0.930 . S
H3146 C3159 0.929 . S
H3147 C3157 0.929 . S
H3148 C3152 0.929 . S
H3149 C3158 0.929 . S
C3150 H3144 0.930 . S
C3150 C3151 1.367 . S
C3150 C3158 1.378 . S
C3151 C3150 1.367 . S
C3151 C3159 1.433 . S
C3152 H3148 0.929 . S
C3152 C3154 1.378 . S
C3152 C3156 1.350 . S
C3153 C3156 1.463 . S
C3153 C3158 1.350 . S
C3153 N3161 1.427 . S
C3154 H3145 0.930 . S
C3154 C3152 1.378 . S
C3154 C3155 1.367 . S
C3155 C3154 1.367 . S
C3155 C3157 1.433 . S
C3156 C3152 1.350 . S
C3156 C3153 1.463 . S
C3156 N3160 1.427 . S
C3157 H3147 0.929 . S
C3157 C3155 1.433 . S
C3157 N3160 1.384 . S
C3158 H3149 0.929 . S
C3158 C3150 1.378 . S
C3158 C3153 1.350 . S
C3159 H3146 0.929 . S
C3159 C3151 1.433 . S
C3159 N3161 1.384 . S
N3160 C3156 1.427 . S
N3160 C3157 1.384 . S
N3161 C3153 1.427 . S
N3161 C3159 1.384 . S
H3162 C3168 0.930 . S
H3163 C3172 0.930 . S
H3164 C3177 0.929 . S
H3165 C3175 0.929 . S
H3166 C3170 0.929 . S
H3167 C3176 0.929 . S
C3168 H3162 0.930 . S
C3168 C3169 1.367 . S
C3168 C3176 1.378 . S
C3169 C3168 1.367 . S
C3169 C3177 1.433 . S
C3170 H3166 0.929 . S
C3170 C3172 1.378 . S
C3170 C3174 1.350 . S
C3171 C3174 1.463 . S
C3171 C3176 1.350 . S
C3171 N3179 1.427 . S
C3172 H3163 0.930 . S
C3172 C3170 1.378 . S
C3172 C3173 1.367 . S
C3173 C3172 1.367 . S
C3173 C3175 1.433 . S
C3174 C3170 1.350 . S
C3174 C3171 1.463 . S
C3174 N3178 1.427 . S
C3175 H3165 0.929 . S
C3175 C3173 1.433 . S
C3175 N3178 1.384 . S
C3176 H3167 0.929 . S
C3176 C3168 1.378 . S
C3176 C3171 1.350 . S
C3177 H3164 0.929 . S
C3177 C3169 1.433 . S
C3177 N3179 1.384 . S
N3178 C3174 1.427 . S
N3178 C3175 1.384 . S
N3179 C3171 1.427 . S
N3179 C3177 1.384 . S
H3180 C3186 0.930 . S
H3181 C3190 0.930 . S
H3182 C3195 0.929 . S
H3183 C3193 0.929 . S
H3184 C3188 0.929 . S
H3185 C3194 0.929 . S
C3186 H3180 0.930 . S
C3186 C3187 1.367 . S
C3186 C3194 1.378 . S
C3187 C3186 1.367 . S
C3187 C3195 1.433 . S
C3188 H3184 0.929 . S
C3188 C3190 1.378 . S
C3188 C3192 1.350 . S
C3189 C3192 1.463 . S
C3189 C3194 1.350 . S
C3189 N3197 1.427 . S
C3190 H3181 0.930 . S
C3190 C3188 1.378 . S
C3190 C3191 1.367 . S
C3191 C3190 1.367 . S
C3191 C3193 1.433 . S
C3192 C3188 1.350 . S
C3192 C3189 1.463 . S
C3192 N3196 1.427 . S
C3193 H3183 0.929 . S
C3193 C3191 1.433 . S
C3193 N3196 1.384 . S
C3194 H3185 0.929 . S
C3194 C3186 1.378 . S
C3194 C3189 1.350 . S
C3195 H3182 0.929 . S
C3195 C3187 1.433 . S
C3195 N3197 1.384 . S
N3196 C3192 1.427 . S
N3196 C3193 1.384 . S
N3197 C3189 1.427 . S
N3197 C3195 1.384 . S
H3198 C3204 0.930 . S
H3199 C3208 0.930 . S
H3200 C3213 0.929 . S
H3201 C3211 0.929 . S
H3202 C3206 0.929 . S
H3203 C3212 0.929 . S
C3204 H3198 0.930 . S
C3204 C3205 1.367 . S
C3204 C3212 1.378 . S
C3205 C3204 1.367 . S
C3205 C3213 1.433 . S
C3206 H3202 0.929 . S
C3206 C3208 1.378 . S
C3206 C3210 1.350 . S
C3207 C3210 1.463 . S
C3207 C3212 1.350 . S
C3207 N3215 1.427 . S
C3208 H3199 0.930 . S
C3208 C3206 1.378 . S
C3208 C3209 1.367 . S
C3209 C3208 1.367 . S
C3209 C3211 1.433 . S
C3210 C3206 1.350 . S
C3210 C3207 1.463 . S
C3210 N3214 1.427 . S
C3211 H3201 0.929 . S
C3211 C3209 1.433 . S
C3211 N3214 1.384 . S
C3212 H3203 0.929 . S
C3212 C3204 1.378 . S
C3212 C3207 1.350 . S
C3213 H3200 0.929 . S
C3213 C3205 1.433 . S
C3213 N3215 1.384 . S
N3214 C3210 1.427 . S
N3214 C3211 1.384 . S
N3215 C3207 1.427 . S
N3215 C3213 1.384 . S
H3216 C3222 0.930 . S
H3217 C3226 0.930 . S
H3218 C3231 0.929 . S
H3219 C3229 0.929 . S
H3220 C3224 0.929 . S
H3221 C3230 0.929 . S
C3222 H3216 0.930 . S
C3222 C3223 1.367 . S
C3222 C3230 1.378 . S
C3223 C3222 1.367 . S
C3223 C3231 1.433 . S
C3224 H3220 0.929 . S
C3224 C3226 1.378 . S
C3224 C3228 1.350 . S
C3225 C3228 1.463 . S
C3225 C3230 1.350 . S
C3225 N3233 1.427 . S
C3226 H3217 0.930 . S
C3226 C3224 1.378 . S
C3226 C3227 1.367 . S
C3227 C3226 1.367 . S
C3227 C3229 1.433 . S
C3228 C3224 1.350 . S
C3228 C3225 1.463 . S
C3228 N3232 1.427 . S
C3229 H3219 0.929 . S
C3229 C3227 1.433 . S
C3229 N3232 1.384 . S
C3230 H3221 0.929 . S
C3230 C3222 1.378 . S
C3230 C3225 1.350 . S
C3231 H3218 0.929 . S
C3231 C3223 1.433 . S
C3231 N3233 1.384 . S
N3232 C3228 1.427 . S
N3232 C3229 1.384 . S
N3233 C3225 1.427 . S
N3233 C3231 1.384 . S
H3234 C3240 0.930 . S
H3235 C3244 0.930 . S
H3236 C3249 0.929 . S
H3237 C3247 0.929 . S
H3238 C3242 0.929 . S
H3239 C3248 0.929 . S
C3240 H3234 0.930 . S
C3240 C3241 1.367 . S
C3240 C3248 1.378 . S
C3241 C3240 1.367 . S
C3241 C3249 1.433 . S
C3242 H3238 0.929 . S
C3242 C3244 1.378 . S
C3242 C3246 1.350 . S
C3243 C3246 1.463 . S
C3243 C3248 1.350 . S
C3243 N3251 1.427 . S
C3244 H3235 0.930 . S
C3244 C3242 1.378 . S
C3244 C3245 1.367 . S
C3245 C3244 1.367 . S
C3245 C3247 1.433 . S
C3246 C3242 1.350 . S
C3246 C3243 1.463 . S
C3246 N3250 1.427 . S
C3247 H3237 0.929 . S
C3247 C3245 1.433 . S
C3247 N3250 1.384 . S
C3248 H3239 0.929 . S
C3248 C3240 1.378 . S
C3248 C3243 1.350 . S
C3249 H3236 0.929 . S
C3249 C3241 1.433 . S
C3249 N3251 1.384 . S
N3250 C3246 1.427 . S
N3250 C3247 1.384 . S
N3251 C3243 1.427 . S
N3251 C3249 1.384 . S
H3252 C3258 0.930 . S
H3253 C3262 0.930 . S
H3254 C3267 0.929 . S
H3255 C3265 0.929 . S
H3256 C3260 0.929 . S
H3257 C3266 0.929 . S
C3258 H3252 0.930 . S
C3258 C3259 1.367 . S
C3258 C3266 1.378 . S
C3259 C3258 1.367 . S
C3259 C3267 1.433 . S
C3260 H3256 0.929 . S
C3260 C3262 1.378 . S
C3260 C3264 1.350 . S
C3261 C3264 1.463 . S
C3261 C3266 1.350 . S
C3261 N3269 1.427 . S
C3262 H3253 0.930 . S
C3262 C3260 1.378 . S
C3262 C3263 1.367 . S
C3263 C3262 1.367 . S
C3263 C3265 1.433 . S
C3264 C3260 1.350 . S
C3264 C3261 1.463 . S
C3264 N3268 1.427 . S
C3265 H3255 0.929 . S
C3265 C3263 1.433 . S
C3265 N3268 1.384 . S
C3266 H3257 0.929 . S
C3266 C3258 1.378 . S
C3266 C3261 1.350 . S
C3267 H3254 0.929 . S
C3267 C3259 1.433 . S
C3267 N3269 1.384 . S
N3268 C3264 1.427 . S
N3268 C3265 1.384 . S
N3269 C3261 1.427 . S
N3269 C3267 1.384 . S
H3270 C3276 0.930 . S
H3271 C3280 0.930 . S
H3272 C3285 0.929 . S
H3273 C3283 0.929 . S
H3274 C3278 0.929 . S
H3275 C3284 0.929 . S
C3276 H3270 0.930 . S
C3276 C3277 1.367 . S
C3276 C3284 1.378 . S
C3277 C3276 1.367 . S
C3277 C3285 1.433 . S
C3278 H3274 0.929 . S
C3278 C3280 1.378 . S
C3278 C3282 1.350 . S
C3279 C3282 1.463 . S
C3279 C3284 1.350 . S
C3279 N3287 1.427 . S
C3280 H3271 0.930 . S
C3280 C3278 1.378 . S
C3280 C3281 1.367 . S
C3281 C3280 1.367 . S
C3281 C3283 1.433 . S
C3282 C3278 1.350 . S
C3282 C3279 1.463 . S
C3282 N3286 1.427 . S
C3283 H3273 0.929 . S
C3283 C3281 1.433 . S
C3283 N3286 1.384 . S
C3284 H3275 0.929 . S
C3284 C3276 1.378 . S
C3284 C3279 1.350 . S
C3285 H3272 0.929 . S
C3285 C3277 1.433 . S
C3285 N3287 1.384 . S
N3286 C3282 1.427 . S
N3286 C3283 1.384 . S
N3287 C3279 1.427 . S
N3287 C3285 1.384 . S
H3288 C3294 0.930 . S
H3289 C3298 0.930 . S
H3290 C3303 0.929 . S
H3291 C3301 0.929 . S
H3292 C3296 0.929 . S
H3293 C3302 0.929 . S
C3294 H3288 0.930 . S
C3294 C3295 1.367 . S
C3294 C3302 1.378 . S
C3295 C3294 1.367 . S
C3295 C3303 1.433 . S
C3296 H3292 0.929 . S
C3296 C3298 1.378 . S
C3296 C3300 1.350 . S
C3297 C3300 1.463 . S
C3297 C3302 1.350 . S
C3297 N3305 1.427 . S
C3298 H3289 0.930 . S
C3298 C3296 1.378 . S
C3298 C3299 1.367 . S
C3299 C3298 1.367 . S
C3299 C3301 1.433 . S
C3300 C3296 1.350 . S
C3300 C3297 1.463 . S
C3300 N3304 1.427 . S
C3301 H3291 0.929 . S
C3301 C3299 1.433 . S
C3301 N3304 1.384 . S
C3302 H3293 0.929 . S
C3302 C3294 1.378 . S
C3302 C3297 1.350 . S
C3303 H3290 0.929 . S
C3303 C3295 1.433 . S
C3303 N3305 1.384 . S
N3304 C3300 1.427 . S
N3304 C3301 1.384 . S
N3305 C3297 1.427 . S
N3305 C3303 1.384 . S
H3306 C3312 0.930 . S
H3307 C3316 0.930 . S
H3308 C3321 0.929 . S
H3309 C3319 0.929 . S
H3310 C3314 0.929 . S
H3311 C3320 0.929 . S
C3312 H3306 0.930 . S
C3312 C3313 1.367 . S
C3312 C3320 1.378 . S
C3313 C3312 1.367 . S
C3313 C3321 1.433 . S
C3314 H3310 0.929 . S
C3314 C3316 1.378 . S
C3314 C3318 1.350 . S
C3315 C3318 1.463 . S
C3315 C3320 1.350 . S
C3315 N3323 1.427 . S
C3316 H3307 0.930 . S
C3316 C3314 1.378 . S
C3316 C3317 1.367 . S
C3317 C3316 1.367 . S
C3317 C3319 1.433 . S
C3318 C3314 1.350 . S
C3318 C3315 1.463 . S
C3318 N3322 1.427 . S
C3319 H3309 0.929 . S
C3319 C3317 1.433 . S
C3319 N3322 1.384 . S
C3320 H3311 0.929 . S
C3320 C3312 1.378 . S
C3320 C3315 1.350 . S
C3321 H3308 0.929 . S
C3321 C3313 1.433 . S
C3321 N3323 1.384 . S
N3322 C3318 1.427 . S
N3322 C3319 1.384 . S
N3323 C3315 1.427 . S
N3323 C3321 1.384 . S
H3324 C3330 0.930 . S
H3325 C3334 0.930 . S
H3326 C3339 0.929 . S
H3327 C3337 0.929 . S
H3328 C3332 0.929 . S
H3329 C3338 0.929 . S
C3330 H3324 0.930 . S
C3330 C3331 1.367 . S
C3330 C3338 1.378 . S
C3331 C3330 1.367 . S
C3331 C3339 1.433 . S
C3332 H3328 0.929 . S
C3332 C3334 1.378 . S
C3332 C3336 1.350 . S
C3333 C3336 1.463 . S
C3333 C3338 1.350 . S
C3333 N3341 1.427 . S
C3334 H3325 0.930 . S
C3334 C3332 1.378 . S
C3334 C3335 1.367 . S
C3335 C3334 1.367 . S
C3335 C3337 1.433 . S
C3336 C3332 1.350 . S
C3336 C3333 1.463 . S
C3336 N3340 1.427 . S
C3337 H3327 0.929 . S
C3337 C3335 1.433 . S
C3337 N3340 1.384 . S
C3338 H3329 0.929 . S
C3338 C3330 1.378 . S
C3338 C3333 1.350 . S
C3339 H3326 0.929 . S
C3339 C3331 1.433 . S
C3339 N3341 1.384 . S
N3340 C3336 1.427 . S
N3340 C3337 1.384 . S
N3341 C3333 1.427 . S
N3341 C3339 1.384 . S
H3342 C3348 0.930 . S
H3343 C3352 0.930 . S
H3344 C3357 0.929 . S
H3345 C3355 0.929 . S
H3346 C3350 0.929 . S
H3347 C3356 0.929 . S
C3348 H3342 0.930 . S
C3348 C3349 1.367 . S
C3348 C3356 1.378 . S
C3349 C3348 1.367 . S
C3349 C3357 1.433 . S
C3350 H3346 0.929 . S
C3350 C3352 1.378 . S
C3350 C3354 1.350 . S
C3351 C3354 1.463 . S
C3351 C3356 1.350 . S
C3351 N3359 1.427 . S
C3352 H3343 0.930 . S
C3352 C3350 1.378 . S
C3352 C3353 1.367 . S
C3353 C3352 1.367 . S
C3353 C3355 1.433 . S
C3354 C3350 1.350 . S
C3354 C3351 1.463 . S
C3354 N3358 1.427 . S
C3355 H3345 0.929 . S
C3355 C3353 1.433 . S
C3355 N3358 1.384 . S
C3356 H3347 0.929 . S
C3356 C3348 1.378 . S
C3356 C3351 1.350 . S
C3357 H3344 0.929 . S
C3357 C3349 1.433 . S
C3357 N3359 1.384 . S
N3358 C3354 1.427 . S
N3358 C3355 1.384 . S
N3359 C3351 1.427 . S
N3359 C3357 1.384 . S
H3360 C3366 0.930 . S
H3361 C3370 0.930 . S
H3362 C3375 0.929 . S
H3363 C3373 0.929 . S
H3364 C3368 0.929 . S
H3365 C3374 0.929 . S
C3366 H3360 0.930 . S
C3366 C3367 1.367 . S
C3366 C3374 1.378 . S
C3367 C3366 1.367 . S
C3367 C3375 1.433 . S
C3368 H3364 0.929 . S
C3368 C3370 1.378 . S
C3368 C3372 1.350 . S
C3369 C3372 1.463 . S
C3369 C3374 1.350 . S
C3369 N3377 1.427 . S
C3370 H3361 0.930 . S
C3370 C3368 1.378 . S
C3370 C3371 1.367 . S
C3371 C3370 1.367 . S
C3371 C3373 1.433 . S
C3372 C3368 1.350 . S
C3372 C3369 1.463 . S
C3372 N3376 1.427 . S
C3373 H3363 0.929 . S
C3373 C3371 1.433 . S
C3373 N3376 1.384 . S
C3374 H3365 0.929 . S
C3374 C3366 1.378 . S
C3374 C3369 1.350 . S
C3375 H3362 0.929 . S
C3375 C3367 1.433 . S
C3375 N3377 1.384 . S
N3376 C3372 1.427 . S
N3376 C3373 1.384 . S
N3377 C3369 1.427 . S
N3377 C3375 1.384 . S
H3378 C3384 0.930 . S
H3379 C3388 0.930 . S
H3380 C3393 0.929 . S
H3381 C3391 0.929 . S
H3382 C3386 0.929 . S
H3383 C3392 0.929 . S
C3384 H3378 0.930 . S
C3384 C3385 1.367 . S
C3384 C3392 1.378 . S
C3385 C3384 1.367 . S
C3385 C3393 1.433 . S
C3386 H3382 0.929 . S
C3386 C3388 1.378 . S
C3386 C3390 1.350 . S
C3387 C3390 1.463 . S
C3387 C3392 1.350 . S
C3387 N3395 1.427 . S
C3388 H3379 0.930 . S
C3388 C3386 1.378 . S
C3388 C3389 1.367 . S
C3389 C3388 1.367 . S
C3389 C3391 1.433 . S
C3390 C3386 1.350 . S
C3390 C3387 1.463 . S
C3390 N3394 1.427 . S
C3391 H3381 0.929 . S
C3391 C3389 1.433 . S
C3391 N3394 1.384 . S
C3392 H3383 0.929 . S
C3392 C3384 1.378 . S
C3392 C3387 1.350 . S
C3393 H3380 0.929 . S
C3393 C3385 1.433 . S
C3393 N3395 1.384 . S
N3394 C3390 1.427 . S
N3394 C3391 1.384 . S
N3395 C3387 1.427 . S
N3395 C3393 1.384 . S
H3396 C3402 0.930 . S
H3397 C3406 0.930 . S
H3398 C3411 0.929 . S
H3399 C3409 0.929 . S
H3400 C3404 0.929 . S
H3401 C3410 0.929 . S
C3402 H3396 0.930 . S
C3402 C3403 1.367 . S
C3402 C3410 1.378 . S
C3403 C3402 1.367 . S
C3403 C3411 1.433 . S
C3404 H3400 0.929 . S
C3404 C3406 1.378 . S
C3404 C3408 1.350 . S
C3405 C3408 1.463 . S
C3405 C3410 1.350 . S
C3405 N3413 1.427 . S
C3406 H3397 0.930 . S
C3406 C3404 1.378 . S
C3406 C3407 1.367 . S
C3407 C3406 1.367 . S
C3407 C3409 1.433 . S
C3408 C3404 1.350 . S
C3408 C3405 1.463 . S
C3408 N3412 1.427 . S
C3409 H3399 0.929 . S
C3409 C3407 1.433 . S
C3409 N3412 1.384 . S
C3410 H3401 0.929 . S
C3410 C3402 1.378 . S
C3410 C3405 1.350 . S
C3411 H3398 0.929 . S
C3411 C3403 1.433 . S
C3411 N3413 1.384 . S
N3412 C3408 1.427 . S
N3412 C3409 1.384 . S
N3413 C3405 1.427 . S
N3413 C3411 1.384 . S
H3414 C3420 0.930 . S
H3415 C3424 0.930 . S
H3416 C3429 0.929 . S
H3417 C3427 0.929 . S
H3418 C3422 0.929 . S
H3419 C3428 0.929 . S
C3420 H3414 0.930 . S
C3420 C3421 1.367 . S
C3420 C3428 1.378 . S
C3421 C3420 1.367 . S
C3421 C3429 1.433 . S
C3422 H3418 0.929 . S
C3422 C3424 1.378 . S
C3422 C3426 1.350 . S
C3423 C3426 1.463 . S
C3423 C3428 1.350 . S
C3423 N3431 1.427 . S
C3424 H3415 0.930 . S
C3424 C3422 1.378 . S
C3424 C3425 1.367 . S
C3425 C3424 1.367 . S
C3425 C3427 1.433 . S
C3426 C3422 1.350 . S
C3426 C3423 1.463 . S
C3426 N3430 1.427 . S
C3427 H3417 0.929 . S
C3427 C3425 1.433 . S
C3427 N3430 1.384 . S
C3428 H3419 0.929 . S
C3428 C3420 1.378 . S
C3428 C3423 1.350 . S
C3429 H3416 0.929 . S
C3429 C3421 1.433 . S
C3429 N3431 1.384 . S
N3430 C3426 1.427 . S
N3430 C3427 1.384 . S
N3431 C3423 1.427 . S
N3431 C3429 1.384 . S
H3432 C3438 0.930 . S
H3433 C3442 0.930 . S
H3434 C3447 0.929 . S
H3435 C3445 0.929 . S
H3436 C3440 0.929 . S
H3437 C3446 0.929 . S
C3438 H3432 0.930 . S
C3438 C3439 1.367 . S
C3438 C3446 1.378 . S
C3439 C3438 1.367 . S
C3439 C3447 1.433 . S
C3440 H3436 0.929 . S
C3440 C3442 1.378 . S
C3440 C3444 1.350 . S
C3441 C3444 1.463 . S
C3441 C3446 1.350 . S
C3441 N3449 1.427 . S
C3442 H3433 0.930 . S
C3442 C3440 1.378 . S
C3442 C3443 1.367 . S
C3443 C3442 1.367 . S
C3443 C3445 1.433 . S
C3444 C3440 1.350 . S
C3444 C3441 1.463 . S
C3444 N3448 1.427 . S
C3445 H3435 0.929 . S
C3445 C3443 1.433 . S
C3445 N3448 1.384 . S
C3446 H3437 0.929 . S
C3446 C3438 1.378 . S
C3446 C3441 1.350 . S
C3447 H3434 0.929 . S
C3447 C3439 1.433 . S
C3447 N3449 1.384 . S
N3448 C3444 1.427 . S
N3448 C3445 1.384 . S
N3449 C3441 1.427 . S
N3449 C3447 1.384 . S
H3450 C3456 0.930 . S
H3451 C3460 0.930 . S
H3452 C3465 0.929 . S
H3453 C3463 0.929 . S
H3454 C3458 0.929 . S
H3455 C3464 0.929 . S
C3456 H3450 0.930 . S
C3456 C3457 1.367 . S
C3456 C3464 1.378 . S
C3457 C3456 1.367 . S
C3457 C3465 1.433 . S
C3458 H3454 0.929 . S
C3458 C3460 1.378 . S
C3458 C3462 1.350 . S
C3459 C3462 1.463 . S
C3459 C3464 1.350 . S
C3459 N3467 1.427 . S
C3460 H3451 0.930 . S
C3460 C3458 1.378 . S
C3460 C3461 1.367 . S
C3461 C3460 1.367 . S
C3461 C3463 1.433 . S
C3462 C3458 1.350 . S
C3462 C3459 1.463 . S
C3462 N3466 1.427 . S
C3463 H3453 0.929 . S
C3463 C3461 1.433 . S
C3463 N3466 1.384 . S
C3464 H3455 0.929 . S
C3464 C3456 1.378 . S
C3464 C3459 1.350 . S
C3465 H3452 0.929 . S
C3465 C3457 1.433 . S
C3465 N3467 1.384 . S
N3466 C3462 1.427 . S
N3466 C3463 1.384 . S
N3467 C3459 1.427 . S
N3467 C3465 1.384 . S
H3468 C3474 0.930 . S
H3469 C3478 0.930 . S
H3470 C3483 0.929 . S
H3471 C3481 0.929 . S
H3472 C3476 0.929 . S
H3473 C3482 0.929 . S
C3474 H3468 0.930 . S
C3474 C3475 1.367 . S
C3474 C3482 1.378 . S
C3475 C3474 1.367 . S
C3475 C3483 1.433 . S
C3476 H3472 0.929 . S
C3476 C3478 1.378 . S
C3476 C3480 1.350 . S
C3477 C3480 1.463 . S
C3477 C3482 1.350 . S
C3477 N3485 1.427 . S
C3478 H3469 0.930 . S
C3478 C3476 1.378 . S
C3478 C3479 1.367 . S
C3479 C3478 1.367 . S
C3479 C3481 1.433 . S
C3480 C3476 1.350 . S
C3480 C3477 1.463 . S
C3480 N3484 1.427 . S
C3481 H3471 0.929 . S
C3481 C3479 1.433 . S
C3481 N3484 1.384 . S
C3482 H3473 0.929 . S
C3482 C3474 1.378 . S
C3482 C3477 1.350 . S
C3483 H3470 0.929 . S
C3483 C3475 1.433 . S
C3483 N3485 1.384 . S
N3484 C3480 1.427 . S
N3484 C3481 1.384 . S
N3485 C3477 1.427 . S
N3485 C3483 1.384 . S
H3486 C3492 0.930 . S
H3487 C3496 0.930 . S
H3488 C3501 0.929 . S
H3489 C3499 0.929 . S
H3490 C3494 0.929 . S
H3491 C3500 0.929 . S
C3492 H3486 0.930 . S
C3492 C3493 1.367 . S
C3492 C3500 1.378 . S
C3493 C3492 1.367 . S
C3493 C3501 1.433 . S
C3494 H3490 0.929 . S
C3494 C3496 1.378 . S
C3494 C3498 1.350 . S
C3495 C3498 1.463 . S
C3495 C3500 1.350 . S
C3495 N3503 1.427 . S
C3496 H3487 0.930 . S
C3496 C3494 1.378 . S
C3496 C3497 1.367 . S
C3497 C3496 1.367 . S
C3497 C3499 1.433 . S
C3498 C3494 1.350 . S
C3498 C3495 1.463 . S
C3498 N3502 1.427 . S
C3499 H3489 0.929 . S
C3499 C3497 1.433 . S
C3499 N3502 1.384 . S
C3500 H3491 0.929 . S
C3500 C3492 1.378 . S
C3500 C3495 1.350 . S
C3501 H3488 0.929 . S
C3501 C3493 1.433 . S
C3501 N3503 1.384 . S
N3502 C3498 1.427 . S
N3502 C3499 1.384 . S
N3503 C3495 1.427 . S
N3503 C3501 1.384 . S
H3504 C3510 0.930 . S
H3505 C3514 0.930 . S
H3506 C3519 0.929 . S
H3507 C3517 0.929 . S
H3508 C3512 0.929 . S
H3509 C3518 0.929 . S
C3510 H3504 0.930 . S
C3510 C3511 1.367 . S
C3510 C3518 1.378 . S
C3511 C3510 1.367 . S
C3511 C3519 1.433 . S
C3512 H3508 0.929 . S
C3512 C3514 1.378 . S
C3512 C3516 1.350 . S
C3513 C3516 1.463 . S
C3513 C3518 1.350 . S
C3513 N3521 1.427 . S
C3514 H3505 0.930 . S
C3514 C3512 1.378 . S
C3514 C3515 1.367 . S
C3515 C3514 1.367 . S
C3515 C3517 1.433 . S
C3516 C3512 1.350 . S
C3516 C3513 1.463 . S
C3516 N3520 1.427 . S
C3517 H3507 0.929 . S
C3517 C3515 1.433 . S
C3517 N3520 1.384 . S
C3518 H3509 0.929 . S
C3518 C3510 1.378 . S
C3518 C3513 1.350 . S
C3519 H3506 0.929 . S
C3519 C3511 1.433 . S
C3519 N3521 1.384 . S
N3520 C3516 1.427 . S
N3520 C3517 1.384 . S
N3521 C3513 1.427 . S
N3521 C3519 1.384 . S
H3522 C3528 0.930 . S
H3523 C3532 0.930 . S
H3524 C3537 0.929 . S
H3525 C3535 0.929 . S
H3526 C3530 0.929 . S
H3527 C3536 0.929 . S
C3528 H3522 0.930 . S
C3528 C3529 1.367 . S
C3528 C3536 1.378 . S
C3529 C3528 1.367 . S
C3529 C3537 1.433 . S
C3530 H3526 0.929 . S
C3530 C3532 1.378 . S
C3530 C3534 1.350 . S
C3531 C3534 1.463 . S
C3531 C3536 1.350 . S
C3531 N3539 1.427 . S
C3532 H3523 0.930 . S
C3532 C3530 1.378 . S
C3532 C3533 1.367 . S
C3533 C3532 1.367 . S
C3533 C3535 1.433 . S
C3534 C3530 1.350 . S
C3534 C3531 1.463 . S
C3534 N3538 1.427 . S
C3535 H3525 0.929 . S
C3535 C3533 1.433 . S
C3535 N3538 1.384 . S
C3536 H3527 0.929 . S
C3536 C3528 1.378 . S
C3536 C3531 1.350 . S
C3537 H3524 0.929 . S
C3537 C3529 1.433 . S
C3537 N3539 1.384 . S
N3538 C3534 1.427 . S
N3538 C3535 1.384 . S
N3539 C3531 1.427 . S
N3539 C3537 1.384 . S
H3540 C3546 0.930 . S
H3541 C3550 0.930 . S
H3542 C3555 0.929 . S
H3543 C3553 0.929 . S
H3544 C3548 0.929 . S
H3545 C3554 0.929 . S
C3546 H3540 0.930 . S
C3546 C3547 1.367 . S
C3546 C3554 1.378 . S
C3547 C3546 1.367 . S
C3547 C3555 1.433 . S
C3548 H3544 0.929 . S
C3548 C3550 1.378 . S
C3548 C3552 1.350 . S
C3549 C3552 1.463 . S
C3549 C3554 1.350 . S
C3549 N3557 1.427 . S
C3550 H3541 0.930 . S
C3550 C3548 1.378 . S
C3550 C3551 1.367 . S
C3551 C3550 1.367 . S
C3551 C3553 1.433 . S
C3552 C3548 1.350 . S
C3552 C3549 1.463 . S
C3552 N3556 1.427 . S
C3553 H3543 0.929 . S
C3553 C3551 1.433 . S
C3553 N3556 1.384 . S
C3554 H3545 0.929 . S
C3554 C3546 1.378 . S
C3554 C3549 1.350 . S
C3555 H3542 0.929 . S
C3555 C3547 1.433 . S
C3555 N3557 1.384 . S
N3556 C3552 1.427 . S
N3556 C3553 1.384 . S
N3557 C3549 1.427 . S
N3557 C3555 1.384 . S
H3558 C3564 0.930 . S
H3559 C3568 0.930 . S
H3560 C3573 0.929 . S
H3561 C3571 0.929 . S
H3562 C3566 0.929 . S
H3563 C3572 0.929 . S
C3564 H3558 0.930 . S
C3564 C3565 1.367 . S
C3564 C3572 1.378 . S
C3565 C3564 1.367 . S
C3565 C3573 1.433 . S
C3566 H3562 0.929 . S
C3566 C3568 1.378 . S
C3566 C3570 1.350 . S
C3567 C3570 1.463 . S
C3567 C3572 1.350 . S
C3567 N3575 1.427 . S
C3568 H3559 0.930 . S
C3568 C3566 1.378 . S
C3568 C3569 1.367 . S
C3569 C3568 1.367 . S
C3569 C3571 1.433 . S
C3570 C3566 1.350 . S
C3570 C3567 1.463 . S
C3570 N3574 1.427 . S
C3571 H3561 0.929 . S
C3571 C3569 1.433 . S
C3571 N3574 1.384 . S
C3572 H3563 0.929 . S
C3572 C3564 1.378 . S
C3572 C3567 1.350 . S
C3573 H3560 0.929 . S
C3573 C3565 1.433 . S
C3573 N3575 1.384 . S
N3574 C3570 1.427 . S
N3574 C3571 1.384 . S
N3575 C3567 1.427 . S
N3575 C3573 1.384 . S
H3576 C3582 0.930 . S
H3577 C3586 0.930 . S
H3578 C3591 0.929 . S
H3579 C3589 0.929 . S
H3580 C3584 0.929 . S
H3581 C3590 0.929 . S
C3582 H3576 0.930 . S
C3582 C3583 1.367 . S
C3582 C3590 1.378 . S
C3583 C3582 1.367 . S
C3583 C3591 1.433 . S
C3584 H3580 0.929 . S
C3584 C3586 1.378 . S
C3584 C3588 1.350 . S
C3585 C3588 1.463 . S
C3585 C3590 1.350 . S
C3585 N3593 1.427 . S
C3586 H3577 0.930 . S
C3586 C3584 1.378 . S
C3586 C3587 1.367 . S
C3587 C3586 1.367 . S
C3587 C3589 1.433 . S
C3588 C3584 1.350 . S
C3588 C3585 1.463 . S
C3588 N3592 1.427 . S
C3589 H3579 0.929 . S
C3589 C3587 1.433 . S
C3589 N3592 1.384 . S
C3590 H3581 0.929 . S
C3590 C3582 1.378 . S
C3590 C3585 1.350 . S
C3591 H3578 0.929 . S
C3591 C3583 1.433 . S
C3591 N3593 1.384 . S
N3592 C3588 1.427 . S
N3592 C3589 1.384 . S
N3593 C3585 1.427 . S
N3593 C3591 1.384 . S
H3594 C3600 0.930 . S
H3595 C3604 0.930 . S
H3596 C3609 0.929 . S
H3597 C3607 0.929 . S
H3598 C3602 0.929 . S
H3599 C3608 0.929 . S
C3600 H3594 0.930 . S
C3600 C3601 1.367 . S
C3600 C3608 1.378 . S
C3601 C3600 1.367 . S
C3601 C3609 1.433 . S
C3602 H3598 0.929 . S
C3602 C3604 1.378 . S
C3602 C3606 1.350 . S
C3603 C3606 1.463 . S
C3603 C3608 1.350 . S
C3603 N3611 1.427 . S
C3604 H3595 0.930 . S
C3604 C3602 1.378 . S
C3604 C3605 1.367 . S
C3605 C3604 1.367 . S
C3605 C3607 1.433 . S
C3606 C3602 1.350 . S
C3606 C3603 1.463 . S
C3606 N3610 1.427 . S
C3607 H3597 0.929 . S
C3607 C3605 1.433 . S
C3607 N3610 1.384 . S
C3608 H3599 0.929 . S
C3608 C3600 1.378 . S
C3608 C3603 1.350 . S
C3609 H3596 0.929 . S
C3609 C3601 1.433 . S
C3609 N3611 1.384 . S
N3610 C3606 1.427 . S
N3610 C3607 1.384 . S
N3611 C3603 1.427 . S
N3611 C3609 1.384 . S
H3612 C3618 0.930 . S
H3613 C3622 0.930 . S
H3614 C3627 0.929 . S
H3615 C3625 0.929 . S
H3616 C3620 0.929 . S
H3617 C3626 0.929 . S
C3618 H3612 0.930 . S
C3618 C3619 1.367 . S
C3618 C3626 1.378 . S
C3619 C3618 1.367 . S
C3619 C3627 1.433 . S
C3620 H3616 0.929 . S
C3620 C3622 1.378 . S
C3620 C3624 1.350 . S
C3621 C3624 1.463 . S
C3621 C3626 1.350 . S
C3621 N3629 1.427 . S
C3622 H3613 0.930 . S
C3622 C3620 1.378 . S
C3622 C3623 1.367 . S
C3623 C3622 1.367 . S
C3623 C3625 1.433 . S
C3624 C3620 1.350 . S
C3624 C3621 1.463 . S
C3624 N3628 1.427 . S
C3625 H3615 0.929 . S
C3625 C3623 1.433 . S
C3625 N3628 1.384 . S
C3626 H3617 0.929 . S
C3626 C3618 1.378 . S
C3626 C3621 1.350 . S
C3627 H3614 0.929 . S
C3627 C3619 1.433 . S
C3627 N3629 1.384 . S
N3628 C3624 1.427 . S
N3628 C3625 1.384 . S
N3629 C3621 1.427 . S
N3629 C3627 1.384 . S
H3630 C3636 0.930 . S
H3631 C3640 0.930 . S
H3632 C3645 0.929 . S
H3633 C3643 0.929 . S
H3634 C3638 0.929 . S
H3635 C3644 0.929 . S
C3636 H3630 0.930 . S
C3636 C3637 1.367 . S
C3636 C3644 1.378 . S
C3637 C3636 1.367 . S
C3637 C3645 1.433 . S
C3638 H3634 0.929 . S
C3638 C3640 1.378 . S
C3638 C3642 1.350 . S
C3639 C3642 1.463 . S
C3639 C3644 1.350 . S
C3639 N3647 1.427 . S
C3640 H3631 0.930 . S
C3640 C3638 1.378 . S
C3640 C3641 1.367 . S
C3641 C3640 1.367 . S
C3641 C3643 1.433 . S
C3642 C3638 1.350 . S
C3642 C3639 1.463 . S
C3642 N3646 1.427 . S
C3643 H3633 0.929 . S
C3643 C3641 1.433 . S
C3643 N3646 1.384 . S
C3644 H3635 0.929 . S
C3644 C3636 1.378 . S
C3644 C3639 1.350 . S
C3645 H3632 0.929 . S
C3645 C3637 1.433 . S
C3645 N3647 1.384 . S
N3646 C3642 1.427 . S
N3646 C3643 1.384 . S
N3647 C3639 1.427 . S
N3647 C3645 1.384 . S
H3648 C3654 0.930 . S
H3649 C3658 0.930 . S
H3650 C3663 0.929 . S
H3651 C3661 0.929 . S
H3652 C3656 0.929 . S
H3653 C3662 0.929 . S
C3654 H3648 0.930 . S
C3654 C3655 1.367 . S
C3654 C3662 1.378 . S
C3655 C3654 1.367 . S
C3655 C3663 1.433 . S
C3656 H3652 0.929 . S
C3656 C3658 1.378 . S
C3656 C3660 1.350 . S
C3657 C3660 1.463 . S
C3657 C3662 1.350 . S
C3657 N3665 1.427 . S
C3658 H3649 0.930 . S
C3658 C3656 1.378 . S
C3658 C3659 1.367 . S
C3659 C3658 1.367 . S
C3659 C3661 1.433 . S
C3660 C3656 1.350 . S
C3660 C3657 1.463 . S
C3660 N3664 1.427 . S
C3661 H3651 0.929 . S
C3661 C3659 1.433 . S
C3661 N3664 1.384 . S
C3662 H3653 0.929 . S
C3662 C3654 1.378 . S
C3662 C3657 1.350 . S
C3663 H3650 0.929 . S
C3663 C3655 1.433 . S
C3663 N3665 1.384 . S
N3664 C3660 1.427 . S
N3664 C3661 1.384 . S
N3665 C3657 1.427 . S
N3665 C3663 1.384 . S
H3666 C3672 0.930 . S
H3667 C3676 0.930 . S
H3668 C3681 0.929 . S
H3669 C3679 0.929 . S
H3670 C3674 0.929 . S
H3671 C3680 0.929 . S
C3672 H3666 0.930 . S
C3672 C3673 1.367 . S
C3672 C3680 1.378 . S
C3673 C3672 1.367 . S
C3673 C3681 1.433 . S
C3674 H3670 0.929 . S
C3674 C3676 1.378 . S
C3674 C3678 1.350 . S
C3675 C3678 1.463 . S
C3675 C3680 1.350 . S
C3675 N3683 1.427 . S
C3676 H3667 0.930 . S
C3676 C3674 1.378 . S
C3676 C3677 1.367 . S
C3677 C3676 1.367 . S
C3677 C3679 1.433 . S
C3678 C3674 1.350 . S
C3678 C3675 1.463 . S
C3678 N3682 1.427 . S
C3679 H3669 0.929 . S
C3679 C3677 1.433 . S
C3679 N3682 1.384 . S
C3680 H3671 0.929 . S
C3680 C3672 1.378 . S
C3680 C3675 1.350 . S
C3681 H3668 0.929 . S
C3681 C3673 1.433 . S
C3681 N3683 1.384 . S
N3682 C3678 1.427 . S
N3682 C3679 1.384 . S
N3683 C3675 1.427 . S
N3683 C3681 1.384 . S
H3684 C3690 0.930 . S
H3685 C3694 0.930 . S
H3686 C3699 0.929 . S
H3687 C3697 0.929 . S
H3688 C3692 0.929 . S
H3689 C3698 0.929 . S
C3690 H3684 0.930 . S
C3690 C3691 1.367 . S
C3690 C3698 1.378 . S
C3691 C3690 1.367 . S
C3691 C3699 1.433 . S
C3692 H3688 0.929 . S
C3692 C3694 1.378 . S
C3692 C3696 1.350 . S
C3693 C3696 1.463 . S
C3693 C3698 1.350 . S
C3693 N3701 1.427 . S
C3694 H3685 0.930 . S
C3694 C3692 1.378 . S
C3694 C3695 1.367 . S
C3695 C3694 1.367 . S
C3695 C3697 1.433 . S
C3696 C3692 1.350 . S
C3696 C3693 1.463 . S
C3696 N3700 1.427 . S
C3697 H3687 0.929 . S
C3697 C3695 1.433 . S
C3697 N3700 1.384 . S
C3698 H3689 0.929 . S
C3698 C3690 1.378 . S
C3698 C3693 1.350 . S
C3699 H3686 0.929 . S
C3699 C3691 1.433 . S
C3699 N3701 1.384 . S
N3700 C3696 1.427 . S
N3700 C3697 1.384 . S
N3701 C3693 1.427 . S
N3701 C3699 1.384 . S
H3702 C3708 0.930 . S
H3703 C3712 0.930 . S
H3704 C3717 0.929 . S
H3705 C3715 0.929 . S
H3706 C3710 0.929 . S
H3707 C3716 0.929 . S
C3708 H3702 0.930 . S
C3708 C3709 1.367 . S
C3708 C3716 1.378 . S
C3709 C3708 1.367 . S
C3709 C3717 1.433 . S
C3710 H3706 0.929 . S
C3710 C3712 1.378 . S
C3710 C3714 1.350 . S
C3711 C3714 1.463 . S
C3711 C3716 1.350 . S
C3711 N3719 1.427 . S
C3712 H3703 0.930 . S
C3712 C3710 1.378 . S
C3712 C3713 1.367 . S
C3713 C3712 1.367 . S
C3713 C3715 1.433 . S
C3714 C3710 1.350 . S
C3714 C3711 1.463 . S
C3714 N3718 1.427 . S
C3715 H3705 0.929 . S
C3715 C3713 1.433 . S
C3715 N3718 1.384 . S
C3716 H3707 0.929 . S
C3716 C3708 1.378 . S
C3716 C3711 1.350 . S
C3717 H3704 0.929 . S
C3717 C3709 1.433 . S
C3717 N3719 1.384 . S
N3718 C3714 1.427 . S
N3718 C3715 1.384 . S
N3719 C3711 1.427 . S
N3719 C3717 1.384 . S
H3720 C3726 0.930 . S
H3721 C3730 0.930 . S
H3722 C3735 0.929 . S
H3723 C3733 0.929 . S
H3724 C3728 0.929 . S
H3725 C3734 0.929 . S
C3726 H3720 0.930 . S
C3726 C3727 1.367 . S
C3726 C3734 1.378 . S
C3727 C3726 1.367 . S
C3727 C3735 1.433 . S
C3728 H3724 0.929 . S
C3728 C3730 1.378 . S
C3728 C3732 1.350 . S
C3729 C3732 1.463 . S
C3729 C3734 1.350 . S
C3729 N3737 1.427 . S
C3730 H3721 0.930 . S
C3730 C3728 1.378 . S
C3730 C3731 1.367 . S
C3731 C3730 1.367 . S
C3731 C3733 1.433 . S
C3732 C3728 1.350 . S
C3732 C3729 1.463 . S
C3732 N3736 1.427 . S
C3733 H3723 0.929 . S
C3733 C3731 1.433 . S
C3733 N3736 1.384 . S
C3734 H3725 0.929 . S
C3734 C3726 1.378 . S
C3734 C3729 1.350 . S
C3735 H3722 0.929 . S
C3735 C3727 1.433 . S
C3735 N3737 1.384 . S
N3736 C3732 1.427 . S
N3736 C3733 1.384 . S
N3737 C3729 1.427 . S
N3737 C3735 1.384 . S
H3738 C3744 0.930 . S
H3739 C3748 0.930 . S
H3740 C3753 0.929 . S
H3741 C3751 0.929 . S
H3742 C3746 0.929 . S
H3743 C3752 0.929 . S
C3744 H3738 0.930 . S
C3744 C3745 1.367 . S
C3744 C3752 1.378 . S
C3745 C3744 1.367 . S
C3745 C3753 1.433 . S
C3746 H3742 0.929 . S
C3746 C3748 1.378 . S
C3746 C3750 1.350 . S
C3747 C3750 1.463 . S
C3747 C3752 1.350 . S
C3747 N3755 1.427 . S
C3748 H3739 0.930 . S
C3748 C3746 1.378 . S
C3748 C3749 1.367 . S
C3749 C3748 1.367 . S
C3749 C3751 1.433 . S
C3750 C3746 1.350 . S
C3750 C3747 1.463 . S
C3750 N3754 1.427 . S
C3751 H3741 0.929 . S
C3751 C3749 1.433 . S
C3751 N3754 1.384 . S
C3752 H3743 0.929 . S
C3752 C3744 1.378 . S
C3752 C3747 1.350 . S
C3753 H3740 0.929 . S
C3753 C3745 1.433 . S
C3753 N3755 1.384 . S
N3754 C3750 1.427 . S
N3754 C3751 1.384 . S
N3755 C3747 1.427 . S
N3755 C3753 1.384 . S
H3756 C3762 0.930 . S
H3757 C3766 0.930 . S
H3758 C3771 0.929 . S
H3759 C3769 0.929 . S
H3760 C3764 0.929 . S
H3761 C3770 0.929 . S
C3762 H3756 0.930 . S
C3762 C3763 1.367 . S
C3762 C3770 1.378 . S
C3763 C3762 1.367 . S
C3763 C3771 1.433 . S
C3764 H3760 0.929 . S
C3764 C3766 1.378 . S
C3764 C3768 1.350 . S
C3765 C3768 1.463 . S
C3765 C3770 1.350 . S
C3765 N3773 1.427 . S
C3766 H3757 0.930 . S
C3766 C3764 1.378 . S
C3766 C3767 1.367 . S
C3767 C3766 1.367 . S
C3767 C3769 1.433 . S
C3768 C3764 1.350 . S
C3768 C3765 1.463 . S
C3768 N3772 1.427 . S
C3769 H3759 0.929 . S
C3769 C3767 1.433 . S
C3769 N3772 1.384 . S
C3770 H3761 0.929 . S
C3770 C3762 1.378 . S
C3770 C3765 1.350 . S
C3771 H3758 0.929 . S
C3771 C3763 1.433 . S
C3771 N3773 1.384 . S
N3772 C3768 1.427 . S
N3772 C3769 1.384 . S
N3773 C3765 1.427 . S
N3773 C3771 1.384 . S
H3774 C3780 0.930 . S
H3775 C3784 0.930 . S
H3776 C3789 0.929 . S
H3777 C3787 0.929 . S
H3778 C3782 0.929 . S
H3779 C3788 0.929 . S
C3780 H3774 0.930 . S
C3780 C3781 1.367 . S
C3780 C3788 1.378 . S
C3781 C3780 1.367 . S
C3781 C3789 1.433 . S
C3782 H3778 0.929 . S
C3782 C3784 1.378 . S
C3782 C3786 1.350 . S
C3783 C3786 1.463 . S
C3783 C3788 1.350 . S
C3783 N3791 1.427 . S
C3784 H3775 0.930 . S
C3784 C3782 1.378 . S
C3784 C3785 1.367 . S
C3785 C3784 1.367 . S
C3785 C3787 1.433 . S
C3786 C3782 1.350 . S
C3786 C3783 1.463 . S
C3786 N3790 1.427 . S
C3787 H3777 0.929 . S
C3787 C3785 1.433 . S
C3787 N3790 1.384 . S
C3788 H3779 0.929 . S
C3788 C3780 1.378 . S
C3788 C3783 1.350 . S
C3789 H3776 0.929 . S
C3789 C3781 1.433 . S
C3789 N3791 1.384 . S
N3790 C3786 1.427 . S
N3790 C3787 1.384 . S
N3791 C3783 1.427 . S
N3791 C3789 1.384 . S
H3792 C3798 0.930 . S
H3793 C3802 0.930 . S
H3794 C3807 0.929 . S
H3795 C3805 0.929 . S
H3796 C3800 0.929 . S
H3797 C3806 0.929 . S
C3798 H3792 0.930 . S
C3798 C3799 1.367 . S
C3798 C3806 1.378 . S
C3799 C3798 1.367 . S
C3799 C3807 1.433 . S
C3800 H3796 0.929 . S
C3800 C3802 1.378 . S
C3800 C3804 1.350 . S
C3801 C3804 1.463 . S
C3801 C3806 1.350 . S
C3801 N3809 1.427 . S
C3802 H3793 0.930 . S
C3802 C3800 1.378 . S
C3802 C3803 1.367 . S
C3803 C3802 1.367 . S
C3803 C3805 1.433 . S
C3804 C3800 1.350 . S
C3804 C3801 1.463 . S
C3804 N3808 1.427 . S
C3805 H3795 0.929 . S
C3805 C3803 1.433 . S
C3805 N3808 1.384 . S
C3806 H3797 0.929 . S
C3806 C3798 1.378 . S
C3806 C3801 1.350 . S
C3807 H3794 0.929 . S
C3807 C3799 1.433 . S
C3807 N3809 1.384 . S
N3808 C3804 1.427 . S
N3808 C3805 1.384 . S
N3809 C3801 1.427 . S
N3809 C3807 1.384 . S
H3810 C3816 0.930 . S
H3811 C3820 0.930 . S
H3812 C3825 0.929 . S
H3813 C3823 0.929 . S
H3814 C3818 0.929 . S
H3815 C3824 0.929 . S
C3816 H3810 0.930 . S
C3816 C3817 1.367 . S
C3816 C3824 1.378 . S
C3817 C3816 1.367 . S
C3817 C3825 1.433 . S
C3818 H3814 0.929 . S
C3818 C3820 1.378 . S
C3818 C3822 1.350 . S
C3819 C3822 1.463 . S
C3819 C3824 1.350 . S
C3819 N3827 1.427 . S
C3820 H3811 0.930 . S
C3820 C3818 1.378 . S
C3820 C3821 1.367 . S
C3821 C3820 1.367 . S
C3821 C3823 1.433 . S
C3822 C3818 1.350 . S
C3822 C3819 1.463 . S
C3822 N3826 1.427 . S
C3823 H3813 0.929 . S
C3823 C3821 1.433 . S
C3823 N3826 1.384 . S
C3824 H3815 0.929 . S
C3824 C3816 1.378 . S
C3824 C3819 1.350 . S
C3825 H3812 0.929 . S
C3825 C3817 1.433 . S
C3825 N3827 1.384 . S
N3826 C3822 1.427 . S
N3826 C3823 1.384 . S
N3827 C3819 1.427 . S
N3827 C3825 1.384 . S
H3828 C3834 0.859 1_556 S
H3829 C3838 0.930 . S
H3830 C3843 0.929 . S
H3831 C3841 0.929 . S
H3832 C3836 0.929 . S
H3833 C3842 0.929 . S
C3834 H3828 0.859 1_554 S
C3834 C3835 1.367 . S
C3834 C3842 1.378 . S
C3835 C3834 1.367 . S
C3835 C3843 1.433 . S
C3836 H3832 0.929 . S
C3836 C3838 1.378 . S
C3836 C3840 1.350 . S
C3837 C3840 1.463 . S
C3837 C3842 1.350 . S
C3837 N3845 1.427 . S
C3838 H3829 0.930 . S
C3838 C3836 1.378 . S
C3838 C3839 1.367 . S
C3839 C3838 1.367 . S
C3839 C3841 1.433 . S
C3840 C3836 1.350 . S
C3840 C3837 1.463 . S
C3840 N3844 1.427 . S
C3841 H3831 0.929 . S
C3841 C3839 1.433 . S
C3841 N3844 1.384 . S
C3842 H3833 0.929 . S
C3842 C3834 1.378 . S
C3842 C3837 1.350 . S
C3843 H3830 0.929 . S
C3843 C3835 1.433 . S
C3843 N3845 1.384 . S
N3844 C3840 1.427 . S
N3844 C3841 1.384 . S
N3845 C3837 1.427 . S
N3845 C3843 1.384 . S
H3846 C3852 0.930 . S
H3847 C3856 0.930 . S
H3848 C3861 0.929 . S
H3849 C3859 0.929 . S
H3850 C3854 0.929 . S
H3851 C3860 0.929 . S
C3852 H3846 0.930 . S
C3852 C3853 1.367 . S
C3852 C3860 1.378 . S
C3853 C3852 1.367 . S
C3853 C3861 1.433 . S
C3854 H3850 0.929 . S
C3854 C3856 1.378 . S
C3854 C3858 1.350 . S
C3855 C3858 1.463 . S
C3855 C3860 1.350 . S
C3855 N3863 1.427 . S
C3856 H3847 0.930 . S
C3856 C3854 1.378 . S
C3856 C3857 1.367 . S
C3857 C3856 1.367 . S
C3857 C3859 1.433 . S
C3858 C3854 1.350 . S
C3858 C3855 1.463 . S
C3858 N3862 1.427 . S
C3859 H3849 0.929 . S
C3859 C3857 1.433 . S
C3859 N3862 1.384 . S
C3860 H3851 0.929 . S
C3860 C3852 1.378 . S
C3860 C3855 1.350 . S
C3861 H3848 0.929 . S
C3861 C3853 1.433 . S
C3861 N3863 1.384 . S
N3862 C3858 1.427 . S
N3862 C3859 1.384 . S
N3863 C3855 1.427 . S
N3863 C3861 1.384 . S
H3864 C3870 0.930 1_554 S
H3865 C3874 0.930 . S
H3866 C3879 0.929 . S
H3867 C3877 0.929 . S
H3868 C3872 0.929 . S
H3869 C3878 0.929 . S
C3870 H3864 0.930 1_556 S
C3870 C3871 1.367 . S
C3870 C3878 1.378 . S
C3871 C3870 1.367 . S
C3871 C3879 1.433 . S
C3872 H3868 0.929 . S
C3872 C3874 1.378 . S
C3872 C3876 1.350 . S
C3873 C3876 1.463 . S
C3873 C3878 1.350 . S
C3873 N3881 1.427 . S
C3874 H3865 0.930 . S
C3874 C3872 1.378 . S
C3874 C3875 1.367 . S
C3875 C3874 1.367 . S
C3875 C3877 1.433 . S
C3876 C3872 1.350 . S
C3876 C3873 1.463 . S
C3876 N3880 1.427 . S
C3877 H3867 0.929 . S
C3877 C3875 1.433 . S
C3877 N3880 1.384 . S
C3878 H3869 0.929 . S
C3878 C3870 1.378 . S
C3878 C3873 1.350 . S
C3879 H3866 0.929 . S
C3879 C3871 1.433 . S
C3879 N3881 1.384 . S
N3880 C3876 1.427 . S
N3880 C3877 1.384 . S
N3881 C3873 1.427 . S
N3881 C3879 1.384 . S
H3882 C3888 0.930 . S
H3883 C3892 0.930 . S
H3884 C3897 0.929 . S
H3885 C3895 0.929 . S
H3886 C3890 0.929 . S
H3887 C3896 0.929 . S
C3888 H3882 0.930 . S
C3888 C3889 1.367 . S
C3888 C3896 1.378 . S
C3889 C3888 1.367 . S
C3889 C3897 1.433 . S
C3890 H3886 0.929 . S
C3890 C3892 1.378 . S
C3890 C3894 1.350 . S
C3891 C3894 1.463 . S
C3891 C3896 1.350 . S
C3891 N3899 1.427 . S
C3892 H3883 0.930 . S
C3892 C3890 1.378 . S
C3892 C3893 1.367 . S
C3893 C3892 1.367 . S
C3893 C3895 1.433 . S
C3894 C3890 1.350 . S
C3894 C3891 1.463 . S
C3894 N3898 1.427 . S
C3895 H3885 0.929 . S
C3895 C3893 1.433 . S
C3895 N3898 1.384 . S
C3896 H3887 0.929 . S
C3896 C3888 1.378 . S
C3896 C3891 1.350 . S
C3897 H3884 0.929 . S
C3897 C3889 1.433 . S
C3897 N3899 1.384 . S
N3898 C3894 1.427 . S
N3898 C3895 1.384 . S
N3899 C3891 1.427 . S
N3899 C3897 1.384 . S
H3900 C3906 0.930 . S
H3901 C3910 0.930 . S
H3902 C3915 0.929 . S
H3903 C3913 0.929 . S
H3904 C3908 0.929 . S
H3905 C3914 0.929 . S
C3906 H3900 0.930 . S
C3906 C3907 1.367 . S
C3906 C3914 1.378 . S
C3907 C3906 1.367 . S
C3907 C3915 1.433 . S
C3908 H3904 0.929 . S
C3908 C3910 1.378 . S
C3908 C3912 1.350 . S
C3909 C3912 1.463 . S
C3909 C3914 1.350 . S
C3909 N3917 1.427 . S
C3910 H3901 0.930 . S
C3910 C3908 1.378 . S
C3910 C3911 1.367 . S
C3911 C3910 1.367 . S
C3911 C3913 1.433 . S
C3912 C3908 1.350 . S
C3912 C3909 1.463 . S
C3912 N3916 1.427 . S
C3913 H3903 0.929 . S
C3913 C3911 1.433 . S
C3913 N3916 1.384 . S
C3914 H3905 0.929 . S
C3914 C3906 1.378 . S
C3914 C3909 1.350 . S
C3915 H3902 0.929 . S
C3915 C3907 1.433 . S
C3915 N3917 1.384 . S
N3916 C3912 1.427 . S
N3916 C3913 1.384 . S
N3917 C3909 1.427 . S
N3917 C3915 1.384 . S
H3918 C3924 0.930 . S
H3919 C3928 0.930 . S
H3920 C3933 0.929 . S
H3921 C3931 0.929 . S
H3922 C3926 0.929 . S
H3923 C3932 0.929 . S
C3924 H3918 0.930 . S
C3924 C3925 1.367 . S
C3924 C3932 1.378 . S
C3925 C3924 1.367 . S
C3925 C3933 1.433 . S
C3926 H3922 0.929 . S
C3926 C3928 1.378 . S
C3926 C3930 1.350 . S
C3927 C3930 1.463 . S
C3927 C3932 1.350 . S
C3927 N3935 1.427 . S
C3928 H3919 0.930 . S
C3928 C3926 1.378 . S
C3928 C3929 1.367 . S
C3929 C3928 1.367 . S
C3929 C3931 1.433 . S
C3930 C3926 1.350 . S
C3930 C3927 1.463 . S
C3930 N3934 1.427 . S
C3931 H3921 0.929 . S
C3931 C3929 1.433 . S
C3931 N3934 1.384 . S
C3932 H3923 0.929 . S
C3932 C3924 1.378 . S
C3932 C3927 1.350 . S
C3933 H3920 0.929 . S
C3933 C3925 1.433 . S
C3933 N3935 1.384 . S
N3934 C3930 1.427 . S
N3934 C3931 1.384 . S
N3935 C3927 1.427 . S
N3935 C3933 1.384 . S
H3936 C3942 0.930 . S
H3937 C3946 0.930 . S
H3938 C3951 0.929 . S
H3939 C3949 0.929 . S
H3940 C3944 0.929 . S
H3941 C3950 0.929 . S
C3942 H3936 0.930 . S
C3942 C3943 1.367 . S
C3942 C3950 1.378 . S
C3943 C3942 1.367 . S
C3943 C3951 1.433 . S
C3944 H3940 0.929 . S
C3944 C3946 1.378 . S
C3944 C3948 1.350 . S
C3945 C3948 1.463 . S
C3945 C3950 1.350 . S
C3945 N3953 1.427 . S
C3946 H3937 0.930 . S
C3946 C3944 1.378 . S
C3946 C3947 1.367 . S
C3947 C3946 1.367 . S
C3947 C3949 1.433 . S
C3948 C3944 1.350 . S
C3948 C3945 1.463 . S
C3948 N3952 1.427 . S
C3949 H3939 0.929 . S
C3949 C3947 1.433 . S
C3949 N3952 1.384 . S
C3950 H3941 0.929 . S
C3950 C3942 1.378 . S
C3950 C3945 1.350 . S
C3951 H3938 0.929 . S
C3951 C3943 1.433 . S
C3951 N3953 1.384 . S
N3952 C3948 1.427 . S
N3952 C3949 1.384 . S
N3953 C3945 1.427 . S
N3953 C3951 1.384 . S
H3954 C3960 0.930 . S
H3955 C3964 0.930 . S
H3956 C3969 0.929 . S
H3957 C3967 0.929 . S
H3958 C3962 0.929 . S
H3959 C3968 0.929 . S
C3960 H3954 0.930 . S
C3960 C3961 1.367 . S
C3960 C3968 1.378 . S
C3961 C3960 1.367 . S
C3961 C3969 1.433 . S
C3962 H3958 0.929 . S
C3962 C3964 1.378 . S
C3962 C3966 1.350 . S
C3963 C3966 1.463 . S
C3963 C3968 1.350 . S
C3963 N3971 1.427 . S
C3964 H3955 0.930 . S
C3964 C3962 1.378 . S
C3964 C3965 1.367 . S
C3965 C3964 1.367 . S
C3965 C3967 1.433 . S
C3966 C3962 1.350 . S
C3966 C3963 1.463 . S
C3966 N3970 1.427 . S
C3967 H3957 0.929 . S
C3967 C3965 1.433 . S
C3967 N3970 1.384 . S
C3968 H3959 0.929 . S
C3968 C3960 1.378 . S
C3968 C3963 1.350 . S
C3969 H3956 0.929 . S
C3969 C3961 1.433 . S
C3969 N3971 1.384 . S
N3970 C3966 1.427 . S
N3970 C3967 1.384 . S
N3971 C3963 1.427 . S
N3971 C3969 1.384 . S
H3972 C3978 0.930 . S
H3973 C3982 0.930 . S
H3974 C3987 0.929 . S
H3975 C3985 0.929 . S
H3976 C3980 0.929 . S
H3977 C3986 0.929 . S
C3978 H3972 0.930 . S
C3978 C3979 1.367 . S
C3978 C3986 1.378 . S
C3979 C3978 1.367 . S
C3979 C3987 1.433 . S
C3980 H3976 0.929 . S
C3980 C3982 1.378 . S
C3980 C3984 1.350 . S
C3981 C3984 1.463 . S
C3981 C3986 1.350 . S
C3981 N3989 1.427 . S
C3982 H3973 0.930 . S
C3982 C3980 1.378 . S
C3982 C3983 1.367 . S
C3983 C3982 1.367 . S
C3983 C3985 1.433 . S
C3984 C3980 1.350 . S
C3984 C3981 1.463 . S
C3984 N3988 1.427 . S
C3985 H3975 0.929 . S
C3985 C3983 1.433 . S
C3985 N3988 1.384 . S
C3986 H3977 0.929 . S
C3986 C3978 1.378 . S
C3986 C3981 1.350 . S
C3987 H3974 0.929 . S
C3987 C3979 1.433 . S
C3987 N3989 1.384 . S
N3988 C3984 1.427 . S
N3988 C3985 1.384 . S
N3989 C3981 1.427 . S
N3989 C3987 1.384 . S
H3990 C3996 0.930 . S
H3991 C4000 0.930 . S
H3992 C4005 0.929 . S
H3993 C4003 0.929 . S
H3994 C3998 0.929 . S
H3995 C4004 0.929 . S
C3996 H3990 0.930 . S
C3996 C3997 1.367 . S
C3996 C4004 1.378 . S
C3997 C3996 1.367 . S
C3997 C4005 1.433 . S
C3998 H3994 0.929 . S
C3998 C4000 1.378 . S
C3998 C4002 1.350 . S
C3999 C4002 1.463 . S
C3999 C4004 1.350 . S
C3999 N4007 1.427 . S
C4000 H3991 0.930 . S
C4000 C3998 1.378 . S
C4000 C4001 1.367 . S
C4001 C4000 1.367 . S
C4001 C4003 1.433 . S
C4002 C3998 1.350 . S
C4002 C3999 1.463 . S
C4002 N4006 1.427 . S
C4003 H3993 0.929 . S
C4003 C4001 1.433 . S
C4003 N4006 1.384 . S
C4004 H3995 0.929 . S
C4004 C3996 1.378 . S
C4004 C3999 1.350 . S
C4005 H3992 0.929 . S
C4005 C3997 1.433 . S
C4005 N4007 1.384 . S
N4006 C4002 1.427 . S
N4006 C4003 1.384 . S
N4007 C3999 1.427 . S
N4007 C4005 1.384 . S
H4008 C4014 0.930 . S
H4009 C4018 0.930 . S
H4010 C4023 0.929 . S
H4011 C4021 0.929 . S
H4012 C4016 0.929 . S
H4013 C4022 0.929 . S
C4014 H4008 0.930 . S
C4014 C4015 1.367 . S
C4014 C4022 1.378 . S
C4015 C4014 1.367 . S
C4015 C4023 1.433 . S
C4016 H4012 0.929 . S
C4016 C4018 1.378 . S
C4016 C4020 1.350 . S
C4017 C4020 1.463 . S
C4017 C4022 1.350 . S
C4017 N4025 1.427 . S
C4018 H4009 0.930 . S
C4018 C4016 1.378 . S
C4018 C4019 1.367 . S
C4019 C4018 1.367 . S
C4019 C4021 1.433 . S
C4020 C4016 1.350 . S
C4020 C4017 1.463 . S
C4020 N4024 1.427 . S
C4021 H4011 0.929 . S
C4021 C4019 1.433 . S
C4021 N4024 1.384 . S
C4022 H4013 0.929 . S
C4022 C4014 1.378 . S
C4022 C4017 1.350 . S
C4023 H4010 0.929 . S
C4023 C4015 1.433 . S
C4023 N4025 1.384 . S
N4024 C4020 1.427 . S
N4024 C4021 1.384 . S
N4025 C4017 1.427 . S
N4025 C4023 1.384 . S
H4026 C4032 0.930 . S
H4027 C4036 0.930 . S
H4028 C4041 0.929 . S
H4029 C4039 0.929 . S
H4030 C4034 0.929 . S
H4031 C4040 0.929 . S
C4032 H4026 0.930 . S
C4032 C4033 1.367 . S
C4032 C4040 1.378 . S
C4033 C4032 1.367 . S
C4033 C4041 1.433 . S
C4034 H4030 0.929 . S
C4034 C4036 1.378 . S
C4034 C4038 1.350 . S
C4035 C4038 1.463 . S
C4035 C4040 1.350 . S
C4035 N4043 1.427 . S
C4036 H4027 0.930 . S
C4036 C4034 1.378 . S
C4036 C4037 1.367 . S
C4037 C4036 1.367 . S
C4037 C4039 1.433 . S
C4038 C4034 1.350 . S
C4038 C4035 1.463 . S
C4038 N4042 1.427 . S
C4039 H4029 0.929 . S
C4039 C4037 1.433 . S
C4039 N4042 1.384 . S
C4040 H4031 0.929 . S
C4040 C4032 1.378 . S
C4040 C4035 1.350 . S
C4041 H4028 0.929 . S
C4041 C4033 1.433 . S
C4041 N4043 1.384 . S
N4042 C4038 1.427 . S
N4042 C4039 1.384 . S
N4043 C4035 1.427 . S
N4043 C4041 1.384 . S
H4044 C4050 0.930 . S
H4045 C4054 0.930 . S
H4046 C4059 0.929 . S
H4047 C4057 0.929 . S
H4048 C4052 0.929 . S
H4049 C4058 0.929 . S
C4050 H4044 0.930 . S
C4050 C4051 1.367 . S
C4050 C4058 1.378 . S
C4051 C4050 1.367 . S
C4051 C4059 1.433 . S
C4052 H4048 0.929 . S
C4052 C4054 1.378 . S
C4052 C4056 1.350 . S
C4053 C4056 1.463 . S
C4053 C4058 1.350 . S
C4053 N4061 1.427 . S
C4054 H4045 0.930 . S
C4054 C4052 1.378 . S
C4054 C4055 1.367 . S
C4055 C4054 1.367 . S
C4055 C4057 1.433 . S
C4056 C4052 1.350 . S
C4056 C4053 1.463 . S
C4056 N4060 1.427 . S
C4057 H4047 0.929 . S
C4057 C4055 1.433 . S
C4057 N4060 1.384 . S
C4058 H4049 0.929 . S
C4058 C4050 1.378 . S
C4058 C4053 1.350 . S
C4059 H4046 0.929 . S
C4059 C4051 1.433 . S
C4059 N4061 1.384 . S
N4060 C4056 1.427 . S
N4060 C4057 1.384 . S
N4061 C4053 1.427 . S
N4061 C4059 1.384 . S
H4062 C4068 0.930 . S
H4063 C4072 0.930 . S
H4064 C4077 0.929 . S
H4065 C4075 0.929 . S
H4066 C4070 0.929 . S
H4067 C4076 0.929 . S
C4068 H4062 0.930 . S
C4068 C4069 1.367 . S
C4068 C4076 1.378 . S
C4069 C4068 1.367 . S
C4069 C4077 1.433 . S
C4070 H4066 0.929 . S
C4070 C4072 1.378 . S
C4070 C4074 1.350 . S
C4071 C4074 1.463 . S
C4071 C4076 1.350 . S
C4071 N4079 1.427 . S
C4072 H4063 0.930 . S
C4072 C4070 1.378 . S
C4072 C4073 1.367 . S
C4073 C4072 1.367 . S
C4073 C4075 1.433 . S
C4074 C4070 1.350 . S
C4074 C4071 1.463 . S
C4074 N4078 1.427 . S
C4075 H4065 0.929 . S
C4075 C4073 1.433 . S
C4075 N4078 1.384 . S
C4076 H4067 0.929 . S
C4076 C4068 1.378 . S
C4076 C4071 1.350 . S
C4077 H4064 0.929 . S
C4077 C4069 1.433 . S
C4077 N4079 1.384 . S
N4078 C4074 1.427 . S
N4078 C4075 1.384 . S
N4079 C4071 1.427 . S
N4079 C4077 1.384 . S
H4080 C4086 0.930 . S
H4081 C4090 0.930 . S
H4082 C4095 0.929 . S
H4083 C4093 0.929 . S
H4084 C4088 0.929 . S
H4085 C4094 0.929 . S
C4086 H4080 0.930 . S
C4086 C4087 1.367 . S
C4086 C4094 1.378 . S
C4087 C4086 1.367 . S
C4087 C4095 1.433 . S
C4088 H4084 0.929 . S
C4088 C4090 1.378 . S
C4088 C4092 1.350 . S
C4089 C4092 1.463 . S
C4089 C4094 1.350 . S
C4089 N4097 1.427 . S
C4090 H4081 0.930 . S
C4090 C4088 1.378 . S
C4090 C4091 1.367 . S
C4091 C4090 1.367 . S
C4091 C4093 1.433 . S
C4092 C4088 1.350 . S
C4092 C4089 1.463 . S
C4092 N4096 1.427 . S
C4093 H4083 0.929 . S
C4093 C4091 1.433 . S
C4093 N4096 1.384 . S
C4094 H4085 0.929 . S
C4094 C4086 1.378 . S
C4094 C4089 1.350 . S
C4095 H4082 0.929 . S
C4095 C4087 1.433 . S
C4095 N4097 1.384 . S
N4096 C4092 1.427 . S
N4096 C4093 1.384 . S
N4097 C4089 1.427 . S
N4097 C4095 1.384 . S
H4098 C4104 0.930 . S
H4099 C4108 0.930 . S
H4100 C4113 0.929 . S
H4101 C4111 0.929 . S
H4102 C4106 0.929 . S
H4103 C4112 0.929 . S
C4104 H4098 0.930 . S
C4104 C4105 1.367 . S
C4104 C4112 1.378 . S
C4105 C4104 1.367 . S
C4105 C4113 1.433 . S
C4106 H4102 0.929 . S
C4106 C4108 1.378 . S
C4106 C4110 1.350 . S
C4107 C4110 1.463 . S
C4107 C4112 1.350 . S
C4107 N4115 1.427 . S
C4108 H4099 0.930 . S
C4108 C4106 1.378 . S
C4108 C4109 1.367 . S
C4109 C4108 1.367 . S
C4109 C4111 1.433 . S
C4110 C4106 1.350 . S
C4110 C4107 1.463 . S
C4110 N4114 1.427 . S
C4111 H4101 0.929 . S
C4111 C4109 1.433 . S
C4111 N4114 1.384 . S
C4112 H4103 0.929 . S
C4112 C4104 1.378 . S
C4112 C4107 1.350 . S
C4113 H4100 0.929 . S
C4113 C4105 1.433 . S
C4113 N4115 1.384 . S
N4114 C4110 1.427 . S
N4114 C4111 1.384 . S
N4115 C4107 1.427 . S
N4115 C4113 1.384 . S
H4116 C4122 0.930 . S
H4117 C4126 0.930 . S
H4118 C4131 0.929 . S
H4119 C4129 0.929 . S
H4120 C4124 0.929 . S
H4121 C4130 0.929 . S
C4122 H4116 0.930 . S
C4122 C4123 1.367 . S
C4122 C4130 1.378 . S
C4123 C4122 1.367 . S
C4123 C4131 1.433 . S
C4124 H4120 0.929 . S
C4124 C4126 1.378 . S
C4124 C4128 1.350 . S
C4125 C4128 1.463 . S
C4125 C4130 1.350 . S
C4125 N4133 1.427 . S
C4126 H4117 0.930 . S
C4126 C4124 1.378 . S
C4126 C4127 1.367 . S
C4127 C4126 1.367 . S
C4127 C4129 1.433 . S
C4128 C4124 1.350 . S
C4128 C4125 1.463 . S
C4128 N4132 1.427 . S
C4129 H4119 0.929 . S
C4129 C4127 1.433 . S
C4129 N4132 1.384 . S
C4130 H4121 0.929 . S
C4130 C4122 1.378 . S
C4130 C4125 1.350 . S
C4131 H4118 0.929 . S
C4131 C4123 1.433 . S
C4131 N4133 1.384 . S
N4132 C4128 1.427 . S
N4132 C4129 1.384 . S
N4133 C4125 1.427 . S
N4133 C4131 1.384 . S
H4134 C4140 0.930 . S
H4135 C4144 0.930 . S
H4136 C4149 0.929 . S
H4137 C4147 0.929 . S
H4138 C4142 0.929 . S
H4139 C4148 0.929 . S
C4140 H4134 0.930 . S
C4140 C4141 1.367 . S
C4140 C4148 1.378 . S
C4141 C4140 1.367 . S
C4141 C4149 1.433 . S
C4142 H4138 0.929 . S
C4142 C4144 1.378 . S
C4142 C4146 1.350 . S
C4143 C4146 1.463 . S
C4143 C4148 1.350 . S
C4143 N4151 1.427 . S
C4144 H4135 0.930 . S
C4144 C4142 1.378 . S
C4144 C4145 1.367 . S
C4145 C4144 1.367 . S
C4145 C4147 1.433 . S
C4146 C4142 1.350 . S
C4146 C4143 1.463 . S
C4146 N4150 1.427 . S
C4147 H4137 0.929 . S
C4147 C4145 1.433 . S
C4147 N4150 1.384 . S
C4148 H4139 0.929 . S
C4148 C4140 1.378 . S
C4148 C4143 1.350 . S
C4149 H4136 0.929 . S
C4149 C4141 1.433 . S
C4149 N4151 1.384 . S
N4150 C4146 1.427 . S
N4150 C4147 1.384 . S
N4151 C4143 1.427 . S
N4151 C4149 1.384 . S
H4152 C4158 0.930 . S
H4153 C4162 0.930 . S
H4154 C4167 0.929 . S
H4155 C4165 0.929 . S
H4156 C4160 0.929 . S
H4157 C4166 0.929 . S
C4158 H4152 0.930 . S
C4158 C4159 1.367 . S
C4158 C4166 1.378 . S
C4159 C4158 1.367 . S
C4159 C4167 1.433 . S
C4160 H4156 0.929 . S
C4160 C4162 1.378 . S
C4160 C4164 1.350 . S
C4161 C4164 1.463 . S
C4161 C4166 1.350 . S
C4161 N4169 1.427 . S
C4162 H4153 0.930 . S
C4162 C4160 1.378 . S
C4162 C4163 1.367 . S
C4163 C4162 1.367 . S
C4163 C4165 1.433 . S
C4164 C4160 1.350 . S
C4164 C4161 1.463 . S
C4164 N4168 1.427 . S
C4165 H4155 0.929 . S
C4165 C4163 1.433 . S
C4165 N4168 1.384 . S
C4166 H4157 0.929 . S
C4166 C4158 1.378 . S
C4166 C4161 1.350 . S
C4167 H4154 0.929 . S
C4167 C4159 1.433 . S
C4167 N4169 1.384 . S
N4168 C4164 1.427 . S
N4168 C4165 1.384 . S
N4169 C4161 1.427 . S
N4169 C4167 1.384 . S
H4170 C4176 0.930 . S
H4171 C4180 0.930 . S
H4172 C4185 0.929 . S
H4173 C4183 0.929 . S
H4174 C4178 0.929 . S
H4175 C4184 0.929 . S
C4176 H4170 0.930 . S
C4176 C4177 1.367 . S
C4176 C4184 1.378 . S
C4177 C4176 1.367 . S
C4177 C4185 1.433 . S
C4178 H4174 0.929 . S
C4178 C4180 1.378 . S
C4178 C4182 1.350 . S
C4179 C4182 1.463 . S
C4179 C4184 1.350 . S
C4179 N4187 1.427 . S
C4180 H4171 0.930 . S
C4180 C4178 1.378 . S
C4180 C4181 1.367 . S
C4181 C4180 1.367 . S
C4181 C4183 1.433 . S
C4182 C4178 1.350 . S
C4182 C4179 1.463 . S
C4182 N4186 1.427 . S
C4183 H4173 0.929 . S
C4183 C4181 1.433 . S
C4183 N4186 1.384 . S
C4184 H4175 0.929 . S
C4184 C4176 1.378 . S
C4184 C4179 1.350 . S
C4185 H4172 0.929 . S
C4185 C4177 1.433 . S
C4185 N4187 1.384 . S
N4186 C4182 1.427 . S
N4186 C4183 1.384 . S
N4187 C4179 1.427 . S
N4187 C4185 1.384 . S
H4188 C4194 0.930 . S
H4189 C4198 0.930 . S
H4190 C4203 0.929 . S
H4191 C4201 0.929 . S
H4192 C4196 0.929 . S
H4193 C4202 0.929 . S
C4194 H4188 0.930 . S
C4194 C4195 1.367 . S
C4194 C4202 1.378 . S
C4195 C4194 1.367 . S
C4195 C4203 1.433 . S
C4196 H4192 0.929 . S
C4196 C4198 1.378 . S
C4196 C4200 1.350 . S
C4197 C4200 1.463 . S
C4197 C4202 1.350 . S
C4197 N4205 1.427 . S
C4198 H4189 0.930 . S
C4198 C4196 1.378 . S
C4198 C4199 1.367 . S
C4199 C4198 1.367 . S
C4199 C4201 1.433 . S
C4200 C4196 1.350 . S
C4200 C4197 1.463 . S
C4200 N4204 1.427 . S
C4201 H4191 0.929 . S
C4201 C4199 1.433 . S
C4201 N4204 1.384 . S
C4202 H4193 0.929 . S
C4202 C4194 1.378 . S
C4202 C4197 1.350 . S
C4203 H4190 0.929 . S
C4203 C4195 1.433 . S
C4203 N4205 1.384 . S
N4204 C4200 1.427 . S
N4204 C4201 1.384 . S
N4205 C4197 1.427 . S
N4205 C4203 1.384 . S
H4206 C4212 0.930 . S
H4207 C4216 0.930 . S
H4208 C4221 0.929 . S
H4209 C4219 0.929 . S
H4210 C4214 0.929 . S
H4211 C4220 0.929 . S
C4212 H4206 0.930 . S
C4212 C4213 1.367 . S
C4212 C4220 1.378 . S
C4213 C4212 1.367 . S
C4213 C4221 1.433 . S
C4214 H4210 0.929 . S
C4214 C4216 1.378 . S
C4214 C4218 1.350 . S
C4215 C4218 1.463 . S
C4215 C4220 1.350 . S
C4215 N4223 1.427 . S
C4216 H4207 0.930 . S
C4216 C4214 1.378 . S
C4216 C4217 1.367 . S
C4217 C4216 1.367 . S
C4217 C4219 1.433 . S
C4218 C4214 1.350 . S
C4218 C4215 1.463 . S
C4218 N4222 1.427 . S
C4219 H4209 0.929 . S
C4219 C4217 1.433 . S
C4219 N4222 1.384 . S
C4220 H4211 0.929 . S
C4220 C4212 1.378 . S
C4220 C4215 1.350 . S
C4221 H4208 0.929 . S
C4221 C4213 1.433 . S
C4221 N4223 1.384 . S
N4222 C4218 1.427 . S
N4222 C4219 1.384 . S
N4223 C4215 1.427 . S
N4223 C4221 1.384 . S
H4224 C4230 0.930 . S
H4225 C4234 0.930 . S
H4226 C4239 0.929 . S
H4227 C4237 0.929 . S
H4228 C4232 0.929 . S
H4229 C4238 0.929 . S
C4230 H4224 0.930 . S
C4230 C4231 1.367 . S
C4230 C4238 1.378 . S
C4231 C4230 1.367 . S
C4231 C4239 1.433 . S
C4232 H4228 0.929 . S
C4232 C4234 1.378 . S
C4232 C4236 1.350 . S
C4233 C4236 1.463 . S
C4233 C4238 1.350 . S
C4233 N4241 1.427 . S
C4234 H4225 0.930 . S
C4234 C4232 1.378 . S
C4234 C4235 1.367 . S
C4235 C4234 1.367 . S
C4235 C4237 1.433 . S
C4236 C4232 1.350 . S
C4236 C4233 1.463 . S
C4236 N4240 1.427 . S
C4237 H4227 0.929 . S
C4237 C4235 1.433 . S
C4237 N4240 1.384 . S
C4238 H4229 0.929 . S
C4238 C4230 1.378 . S
C4238 C4233 1.350 . S
C4239 H4226 0.929 . S
C4239 C4231 1.433 . S
C4239 N4241 1.384 . S
N4240 C4236 1.427 . S
N4240 C4237 1.384 . S
N4241 C4233 1.427 . S
N4241 C4239 1.384 . S
H4242 C4248 0.930 . S
H4243 C4252 0.930 . S
H4244 C4257 0.929 . S
H4245 C4255 0.929 . S
H4246 C4250 0.929 . S
H4247 C4256 0.929 . S
C4248 H4242 0.930 . S
C4248 C4249 1.367 . S
C4248 C4256 1.378 . S
C4249 C4248 1.367 . S
C4249 C4257 1.433 . S
C4250 H4246 0.929 . S
C4250 C4252 1.378 . S
C4250 C4254 1.350 . S
C4251 C4254 1.463 . S
C4251 C4256 1.350 . S
C4251 N4259 1.427 . S
C4252 H4243 0.930 . S
C4252 C4250 1.378 . S
C4252 C4253 1.367 . S
C4253 C4252 1.367 . S
C4253 C4255 1.433 . S
C4254 C4250 1.350 . S
C4254 C4251 1.463 . S
C4254 N4258 1.427 . S
C4255 H4245 0.929 . S
C4255 C4253 1.433 . S
C4255 N4258 1.384 . S
C4256 H4247 0.929 . S
C4256 C4248 1.378 . S
C4256 C4251 1.350 . S
C4257 H4244 0.929 . S
C4257 C4249 1.433 . S
C4257 N4259 1.384 . S
N4258 C4254 1.427 . S
N4258 C4255 1.384 . S
N4259 C4251 1.427 . S
N4259 C4257 1.384 . S
H4260 C4266 0.930 . S
H4261 C4270 0.930 . S
H4262 C4275 0.929 . S
H4263 C4273 0.929 . S
H4264 C4268 0.929 . S
H4265 C4274 0.929 . S
C4266 H4260 0.930 . S
C4266 C4267 1.367 . S
C4266 C4274 1.378 . S
C4267 C4266 1.367 . S
C4267 C4275 1.433 . S
C4268 H4264 0.929 . S
C4268 C4270 1.378 . S
C4268 C4272 1.350 . S
C4269 C4272 1.463 . S
C4269 C4274 1.350 . S
C4269 N4277 1.427 . S
C4270 H4261 0.930 . S
C4270 C4268 1.378 . S
C4270 C4271 1.367 . S
C4271 C4270 1.367 . S
C4271 C4273 1.433 . S
C4272 C4268 1.350 . S
C4272 C4269 1.463 . S
C4272 N4276 1.427 . S
C4273 H4263 0.929 . S
C4273 C4271 1.433 . S
C4273 N4276 1.384 . S
C4274 H4265 0.929 . S
C4274 C4266 1.378 . S
C4274 C4269 1.350 . S
C4275 H4262 0.929 . S
C4275 C4267 1.433 . S
C4275 N4277 1.384 . S
N4276 C4272 1.427 . S
N4276 C4273 1.384 . S
N4277 C4269 1.427 . S
N4277 C4275 1.384 . S
H4278 C4284 0.930 . S
H4279 C4288 0.930 . S
H4280 C4293 0.929 . S
H4281 C4291 0.929 . S
H4282 C4286 0.929 . S
H4283 C4292 0.929 . S
C4284 H4278 0.930 . S
C4284 C4285 1.367 . S
C4284 C4292 1.378 . S
C4285 C4284 1.367 . S
C4285 C4293 1.433 . S
C4286 H4282 0.929 . S
C4286 C4288 1.378 . S
C4286 C4290 1.350 . S
C4287 C4290 1.463 . S
C4287 C4292 1.350 . S
C4287 N4295 1.427 . S
C4288 H4279 0.930 . S
C4288 C4286 1.378 . S
C4288 C4289 1.367 . S
C4289 C4288 1.367 . S
C4289 C4291 1.433 . S
C4290 C4286 1.350 . S
C4290 C4287 1.463 . S
C4290 N4294 1.427 . S
C4291 H4281 0.929 . S
C4291 C4289 1.433 . S
C4291 N4294 1.384 . S
C4292 H4283 0.929 . S
C4292 C4284 1.378 . S
C4292 C4287 1.350 . S
C4293 H4280 0.929 . S
C4293 C4285 1.433 . S
C4293 N4295 1.384 . S
N4294 C4290 1.427 . S
N4294 C4291 1.384 . S
N4295 C4287 1.427 . S
N4295 C4293 1.384 . S
H4296 C4302 0.930 . S
H4297 C4306 0.930 . S
H4298 C4311 0.929 . S
H4299 C4309 0.929 . S
H4300 C4304 0.929 . S
H4301 C4310 0.929 . S
C4302 H4296 0.930 . S
C4302 C4303 1.367 . S
C4302 C4310 1.378 . S
C4303 C4302 1.367 . S
C4303 C4311 1.433 . S
C4304 H4300 0.929 . S
C4304 C4306 1.378 . S
C4304 C4308 1.350 . S
C4305 C4308 1.463 . S
C4305 C4310 1.350 . S
C4305 N4313 1.427 . S
C4306 H4297 0.930 . S
C4306 C4304 1.378 . S
C4306 C4307 1.367 . S
C4307 C4306 1.367 . S
C4307 C4309 1.433 . S
C4308 C4304 1.350 . S
C4308 C4305 1.463 . S
C4308 N4312 1.427 . S
C4309 H4299 0.929 . S
C4309 C4307 1.433 . S
C4309 N4312 1.384 . S
C4310 H4301 0.929 . S
C4310 C4302 1.378 . S
C4310 C4305 1.350 . S
C4311 H4298 0.929 . S
C4311 C4303 1.433 . S
C4311 N4313 1.384 . S
N4312 C4308 1.427 . S
N4312 C4309 1.384 . S
N4313 C4305 1.427 . S
N4313 C4311 1.384 . S
H4314 C4320 0.930 . S
H4315 C4324 0.930 . S
H4316 C4329 0.929 . S
H4317 C4327 0.929 . S
H4318 C4322 0.929 . S
H4319 C4328 0.929 . S
C4320 H4314 0.930 . S
C4320 C4321 1.367 . S
C4320 C4328 1.378 . S
C4321 C4320 1.367 . S
C4321 C4329 1.433 . S
C4322 H4318 0.929 . S
C4322 C4324 1.378 . S
C4322 C4326 1.350 . S
C4323 C4326 1.463 . S
C4323 C4328 1.350 . S
C4323 N4331 1.427 . S
C4324 H4315 0.930 . S
C4324 C4322 1.378 . S
C4324 C4325 1.367 . S
C4325 C4324 1.367 . S
C4325 C4327 1.433 . S
C4326 C4322 1.350 . S
C4326 C4323 1.463 . S
C4326 N4330 1.427 . S
C4327 H4317 0.929 . S
C4327 C4325 1.433 . S
C4327 N4330 1.384 . S
C4328 H4319 0.929 . S
C4328 C4320 1.378 . S
C4328 C4323 1.350 . S
C4329 H4316 0.929 . S
C4329 C4321 1.433 . S
C4329 N4331 1.384 . S
N4330 C4326 1.427 . S
N4330 C4327 1.384 . S
N4331 C4323 1.427 . S
N4331 C4329 1.384 . S
H4332 C4338 0.930 . S
H4333 C4342 0.930 . S
H4334 C4347 0.929 . S
H4335 C4345 0.929 . S
H4336 C4340 0.929 . S
H4337 C4346 0.929 . S
C4338 H4332 0.930 . S
C4338 C4339 1.367 . S
C4338 C4346 1.378 . S
C4339 C4338 1.367 . S
C4339 C4347 1.433 . S
C4340 H4336 0.929 . S
C4340 C4342 1.378 . S
C4340 C4344 1.350 . S
C4341 C4344 1.463 . S
C4341 C4346 1.350 . S
C4341 N4349 1.427 . S
C4342 H4333 0.930 . S
C4342 C4340 1.378 . S
C4342 C4343 1.367 . S
C4343 C4342 1.367 . S
C4343 C4345 1.433 . S
C4344 C4340 1.350 . S
C4344 C4341 1.463 . S
C4344 N4348 1.427 . S
C4345 H4335 0.929 . S
C4345 C4343 1.433 . S
C4345 N4348 1.384 . S
C4346 H4337 0.929 . S
C4346 C4338 1.378 . S
C4346 C4341 1.350 . S
C4347 H4334 0.929 . S
C4347 C4339 1.433 . S
C4347 N4349 1.384 . S
N4348 C4344 1.427 . S
N4348 C4345 1.384 . S
N4349 C4341 1.427 . S
N4349 C4347 1.384 . S
H4350 C4356 0.930 . S
H4351 C4360 0.930 . S
H4352 C4365 0.929 . S
H4353 C4363 0.929 . S
H4354 C4358 0.929 . S
H4355 C4364 0.929 . S
C4356 H4350 0.930 . S
C4356 C4357 1.367 . S
C4356 C4364 1.378 . S
C4357 C4356 1.367 . S
C4357 C4365 1.433 . S
C4358 H4354 0.929 . S
C4358 C4360 1.378 . S
C4358 C4362 1.350 . S
C4359 C4362 1.463 . S
C4359 C4364 1.350 . S
C4359 N4367 1.427 . S
C4360 H4351 0.930 . S
C4360 C4358 1.378 . S
C4360 C4361 1.367 . S
C4361 C4360 1.367 . S
C4361 C4363 1.433 . S
C4362 C4358 1.350 . S
C4362 C4359 1.463 . S
C4362 N4366 1.427 . S
C4363 H4353 0.929 . S
C4363 C4361 1.433 . S
C4363 N4366 1.384 . S
C4364 H4355 0.929 . S
C4364 C4356 1.378 . S
C4364 C4359 1.350 . S
C4365 H4352 0.929 . S
C4365 C4357 1.433 . S
C4365 N4367 1.384 . S
N4366 C4362 1.427 . S
N4366 C4363 1.384 . S
N4367 C4359 1.427 . S
N4367 C4365 1.384 . S
H4368 C4374 0.930 . S
H4369 C4378 0.930 . S
H4370 C4383 0.929 . S
H4371 C4381 0.929 . S
H4372 C4376 0.929 . S
H4373 C4382 0.929 . S
C4374 H4368 0.930 . S
C4374 C4375 1.367 . S
C4374 C4382 1.378 . S
C4375 C4374 1.367 . S
C4375 C4383 1.433 . S
C4376 H4372 0.929 . S
C4376 C4378 1.378 . S
C4376 C4380 1.350 . S
C4377 C4380 1.463 . S
C4377 C4382 1.350 . S
C4377 N4385 1.427 . S
C4378 H4369 0.930 . S
C4378 C4376 1.378 . S
C4378 C4379 1.367 . S
C4379 C4378 1.367 . S
C4379 C4381 1.433 . S
C4380 C4376 1.350 . S
C4380 C4377 1.463 . S
C4380 N4384 1.427 . S
C4381 H4371 0.929 . S
C4381 C4379 1.433 . S
C4381 N4384 1.384 . S
C4382 H4373 0.929 . S
C4382 C4374 1.378 . S
C4382 C4377 1.350 . S
C4383 H4370 0.929 . S
C4383 C4375 1.433 . S
C4383 N4385 1.384 . S
N4384 C4380 1.427 . S
N4384 C4381 1.384 . S
N4385 C4377 1.427 . S
N4385 C4383 1.384 . S
H4386 C4392 0.930 . S
H4387 C4396 0.930 . S
H4388 C4401 0.929 . S
H4389 C4399 0.929 . S
H4390 C4394 0.929 . S
H4391 C4400 0.929 . S
C4392 H4386 0.930 . S
C4392 C4393 1.367 . S
C4392 C4400 1.378 . S
C4393 C4392 1.367 . S
C4393 C4401 1.433 . S
C4394 H4390 0.929 . S
C4394 C4396 1.378 . S
C4394 C4398 1.350 . S
C4395 C4398 1.463 . S
C4395 C4400 1.350 . S
C4395 N4403 1.427 . S
C4396 H4387 0.930 . S
C4396 C4394 1.378 . S
C4396 C4397 1.367 . S
C4397 C4396 1.367 . S
C4397 C4399 1.433 . S
C4398 C4394 1.350 . S
C4398 C4395 1.463 . S
C4398 N4402 1.427 . S
C4399 H4389 0.929 . S
C4399 C4397 1.433 . S
C4399 N4402 1.384 . S
C4400 H4391 0.929 . S
C4400 C4392 1.378 . S
C4400 C4395 1.350 . S
C4401 H4388 0.929 . S
C4401 C4393 1.433 . S
C4401 N4403 1.384 . S
N4402 C4398 1.427 . S
N4402 C4399 1.384 . S
N4403 C4395 1.427 . S
N4403 C4401 1.384 . S
H4404 C4410 0.930 . S
H4405 C4414 0.930 . S
H4406 C4419 0.929 . S
H4407 C4417 0.929 . S
H4408 C4412 0.929 . S
H4409 C4418 0.929 . S
C4410 H4404 0.930 . S
C4410 C4411 1.367 . S
C4410 C4418 1.378 . S
C4411 C4410 1.367 . S
C4411 C4419 1.433 . S
C4412 H4408 0.929 . S
C4412 C4414 1.378 . S
C4412 C4416 1.350 . S
C4413 C4416 1.463 . S
C4413 C4418 1.350 . S
C4413 N4421 1.427 . S
C4414 H4405 0.930 . S
C4414 C4412 1.378 . S
C4414 C4415 1.367 . S
C4415 C4414 1.367 . S
C4415 C4417 1.433 . S
C4416 C4412 1.350 . S
C4416 C4413 1.463 . S
C4416 N4420 1.427 . S
C4417 H4407 0.929 . S
C4417 C4415 1.433 . S
C4417 N4420 1.384 . S
C4418 H4409 0.929 . S
C4418 C4410 1.378 . S
C4418 C4413 1.350 . S
C4419 H4406 0.929 . S
C4419 C4411 1.433 . S
C4419 N4421 1.384 . S
N4420 C4416 1.427 . S
N4420 C4417 1.384 . S
N4421 C4413 1.427 . S
N4421 C4419 1.384 . S
H4422 C4428 0.930 . S
H4423 C4432 0.930 . S
H4424 C4437 0.929 . S
H4425 C4435 0.929 . S
H4426 C4430 0.929 . S
H4427 C4436 0.929 . S
C4428 H4422 0.930 . S
C4428 C4429 1.367 . S
C4428 C4436 1.378 . S
C4429 C4428 1.367 . S
C4429 C4437 1.433 . S
C4430 H4426 0.929 . S
C4430 C4432 1.378 . S
C4430 C4434 1.350 . S
C4431 C4434 1.463 . S
C4431 C4436 1.350 . S
C4431 N4439 1.427 . S
C4432 H4423 0.930 . S
C4432 C4430 1.378 . S
C4432 C4433 1.367 . S
C4433 C4432 1.367 . S
C4433 C4435 1.433 . S
C4434 C4430 1.350 . S
C4434 C4431 1.463 . S
C4434 N4438 1.427 . S
C4435 H4425 0.929 . S
C4435 C4433 1.433 . S
C4435 N4438 1.384 . S
C4436 H4427 0.929 . S
C4436 C4428 1.378 . S
C4436 C4431 1.350 . S
C4437 H4424 0.929 . S
C4437 C4429 1.433 . S
C4437 N4439 1.384 . S
N4438 C4434 1.427 . S
N4438 C4435 1.384 . S
N4439 C4431 1.427 . S
N4439 C4437 1.384 . S
H4440 C4446 0.930 . S
H4441 C4450 0.930 . S
H4442 C4455 0.929 . S
H4443 C4453 0.929 . S
H4444 C4448 0.929 . S
H4445 C4454 0.929 . S
C4446 H4440 0.930 . S
C4446 C4447 1.367 . S
C4446 C4454 1.378 . S
C4447 C4446 1.367 . S
C4447 C4455 1.433 . S
C4448 H4444 0.929 . S
C4448 C4450 1.378 . S
C4448 C4452 1.350 . S
C4449 C4452 1.463 . S
C4449 C4454 1.350 . S
C4449 N4457 1.427 . S
C4450 H4441 0.930 . S
C4450 C4448 1.378 . S
C4450 C4451 1.367 . S
C4451 C4450 1.367 . S
C4451 C4453 1.433 . S
C4452 C4448 1.350 . S
C4452 C4449 1.463 . S
C4452 N4456 1.427 . S
C4453 H4443 0.929 . S
C4453 C4451 1.433 . S
C4453 N4456 1.384 . S
C4454 H4445 0.929 . S
C4454 C4446 1.378 . S
C4454 C4449 1.350 . S
C4455 H4442 0.929 . S
C4455 C4447 1.433 . S
C4455 N4457 1.384 . S
N4456 C4452 1.427 . S
N4456 C4453 1.384 . S
N4457 C4449 1.427 . S
N4457 C4455 1.384 . S
H4458 C4464 0.930 . S
H4459 C4468 0.930 . S
H4460 C4473 0.929 . S
H4461 C4471 0.929 . S
H4462 C4466 0.929 . S
H4463 C4472 0.929 . S
C4464 H4458 0.930 . S
C4464 C4465 1.367 . S
C4464 C4472 1.378 . S
C4465 C4464 1.367 . S
C4465 C4473 1.433 . S
C4466 H4462 0.929 . S
C4466 C4468 1.378 . S
C4466 C4470 1.350 . S
C4467 C4470 1.463 . S
C4467 C4472 1.350 . S
C4467 N4475 1.427 . S
C4468 H4459 0.930 . S
C4468 C4466 1.378 . S
C4468 C4469 1.367 . S
C4469 C4468 1.367 . S
C4469 C4471 1.433 . S
C4470 C4466 1.350 . S
C4470 C4467 1.463 . S
C4470 N4474 1.427 . S
C4471 H4461 0.929 . S
C4471 C4469 1.433 . S
C4471 N4474 1.384 . S
C4472 H4463 0.929 . S
C4472 C4464 1.378 . S
C4472 C4467 1.350 . S
C4473 H4460 0.929 . S
C4473 C4465 1.433 . S
C4473 N4475 1.384 . S
N4474 C4470 1.427 . S
N4474 C4471 1.384 . S
N4475 C4467 1.427 . S
N4475 C4473 1.384 . S
H4476 C4482 0.930 . S
H4477 C4486 0.930 . S
H4478 C4491 0.929 . S
H4479 C4489 0.929 . S
H4480 C4484 0.929 . S
H4481 C4490 0.929 . S
C4482 H4476 0.930 . S
C4482 C4483 1.367 . S
C4482 C4490 1.378 . S
C4483 C4482 1.367 . S
C4483 C4491 1.433 . S
C4484 H4480 0.929 . S
C4484 C4486 1.378 . S
C4484 C4488 1.350 . S
C4485 C4488 1.463 . S
C4485 C4490 1.350 . S
C4485 N4493 1.427 . S
C4486 H4477 0.930 . S
C4486 C4484 1.378 . S
C4486 C4487 1.367 . S
C4487 C4486 1.367 . S
C4487 C4489 1.433 . S
C4488 C4484 1.350 . S
C4488 C4485 1.463 . S
C4488 N4492 1.427 . S
C4489 H4479 0.929 . S
C4489 C4487 1.433 . S
C4489 N4492 1.384 . S
C4490 H4481 0.929 . S
C4490 C4482 1.378 . S
C4490 C4485 1.350 . S
C4491 H4478 0.929 . S
C4491 C4483 1.433 . S
C4491 N4493 1.384 . S
N4492 C4488 1.427 . S
N4492 C4489 1.384 . S
N4493 C4485 1.427 . S
N4493 C4491 1.384 . S
H4494 C4500 0.930 . S
H4495 C4504 0.930 . S
H4496 C4509 0.929 . S
H4497 C4507 0.929 . S
H4498 C4502 0.929 . S
H4499 C4508 0.929 . S
C4500 H4494 0.930 . S
C4500 C4501 1.367 . S
C4500 C4508 1.378 . S
C4501 C4500 1.367 . S
C4501 C4509 1.433 . S
C4502 H4498 0.929 . S
C4502 C4504 1.378 . S
C4502 C4506 1.350 . S
C4503 C4506 1.463 . S
C4503 C4508 1.350 . S
C4503 N4511 1.427 . S
C4504 H4495 0.930 . S
C4504 C4502 1.378 . S
C4504 C4505 1.367 . S
C4505 C4504 1.367 . S
C4505 C4507 1.433 . S
C4506 C4502 1.350 . S
C4506 C4503 1.463 . S
C4506 N4510 1.427 . S
C4507 H4497 0.929 . S
C4507 C4505 1.433 . S
C4507 N4510 1.384 . S
C4508 H4499 0.929 . S
C4508 C4500 1.378 . S
C4508 C4503 1.350 . S
C4509 H4496 0.929 . S
C4509 C4501 1.433 . S
C4509 N4511 1.384 . S
N4510 C4506 1.427 . S
N4510 C4507 1.384 . S
N4511 C4503 1.427 . S
N4511 C4509 1.384 . S
H4512 C4518 0.930 . S
H4513 C4522 0.930 . S
H4514 C4527 0.929 . S
H4515 C4525 0.929 . S
H4516 C4520 0.929 . S
H4517 C4526 0.929 . S
C4518 H4512 0.930 . S
C4518 C4519 1.367 . S
C4518 C4526 1.378 . S
C4519 C4518 1.367 . S
C4519 C4527 1.433 . S
C4520 H4516 0.929 . S
C4520 C4522 1.378 . S
C4520 C4524 1.350 . S
C4521 C4524 1.463 . S
C4521 C4526 1.350 . S
C4521 N4529 1.427 . S
C4522 H4513 0.930 . S
C4522 C4520 1.378 . S
C4522 C4523 1.367 . S
C4523 C4522 1.367 . S
C4523 C4525 1.433 . S
C4524 C4520 1.350 . S
C4524 C4521 1.463 . S
C4524 N4528 1.427 . S
C4525 H4515 0.929 . S
C4525 C4523 1.433 . S
C4525 N4528 1.384 . S
C4526 H4517 0.929 . S
C4526 C4518 1.378 . S
C4526 C4521 1.350 . S
C4527 H4514 0.929 . S
C4527 C4519 1.433 . S
C4527 N4529 1.384 . S
N4528 C4524 1.427 . S
N4528 C4525 1.384 . S
N4529 C4521 1.427 . S
N4529 C4527 1.384 . S
H4530 C4536 0.930 . S
H4531 C4540 0.930 . S
H4532 C4545 0.929 . S
H4533 C4543 0.929 . S
H4534 C4538 0.929 . S
H4535 C4544 0.929 . S
C4536 H4530 0.930 . S
C4536 C4537 1.367 . S
C4536 C4544 1.378 . S
C4537 C4536 1.367 . S
C4537 C4545 1.433 . S
C4538 H4534 0.929 . S
C4538 C4540 1.378 . S
C4538 C4542 1.350 . S
C4539 C4542 1.463 . S
C4539 C4544 1.350 . S
C4539 N4547 1.427 . S
C4540 H4531 0.930 . S
C4540 C4538 1.378 . S
C4540 C4541 1.367 . S
C4541 C4540 1.367 . S
C4541 C4543 1.433 . S
C4542 C4538 1.350 . S
C4542 C4539 1.463 . S
C4542 N4546 1.427 . S
C4543 H4533 0.929 . S
C4543 C4541 1.433 . S
C4543 N4546 1.384 . S
C4544 H4535 0.929 . S
C4544 C4536 1.378 . S
C4544 C4539 1.350 . S
C4545 H4532 0.929 . S
C4545 C4537 1.433 . S
C4545 N4547 1.384 . S
N4546 C4542 1.427 . S
N4546 C4543 1.384 . S
N4547 C4539 1.427 . S
N4547 C4545 1.384 . S
H4548 C4554 0.930 . S
H4549 C4558 0.930 . S
H4550 C4563 0.929 . S
H4551 C4561 0.929 . S
H4552 C4556 0.929 . S
H4553 C4562 0.929 . S
C4554 H4548 0.930 . S
C4554 C4555 1.367 . S
C4554 C4562 1.378 . S
C4555 C4554 1.367 . S
C4555 C4563 1.433 . S
C4556 H4552 0.929 . S
C4556 C4558 1.378 . S
C4556 C4560 1.350 . S
C4557 C4560 1.463 . S
C4557 C4562 1.350 . S
C4557 N4565 1.427 . S
C4558 H4549 0.930 . S
C4558 C4556 1.378 . S
C4558 C4559 1.367 . S
C4559 C4558 1.367 . S
C4559 C4561 1.433 . S
C4560 C4556 1.350 . S
C4560 C4557 1.463 . S
C4560 N4564 1.427 . S
C4561 H4551 0.929 . S
C4561 C4559 1.433 . S
C4561 N4564 1.384 . S
C4562 H4553 0.929 . S
C4562 C4554 1.378 . S
C4562 C4557 1.350 . S
C4563 H4550 0.929 . S
C4563 C4555 1.433 . S
C4563 N4565 1.384 . S
N4564 C4560 1.427 . S
N4564 C4561 1.384 . S
N4565 C4557 1.427 . S
N4565 C4563 1.384 . S
H4566 C4572 0.930 . S
H4567 C4576 0.930 . S
H4568 C4581 0.929 . S
H4569 C4579 0.929 . S
H4570 C4574 0.929 . S
H4571 C4580 0.929 . S
C4572 H4566 0.930 . S
C4572 C4573 1.367 . S
C4572 C4580 1.378 . S
C4573 C4572 1.367 . S
C4573 C4581 1.433 . S
C4574 H4570 0.929 . S
C4574 C4576 1.378 . S
C4574 C4578 1.350 . S
C4575 C4578 1.463 . S
C4575 C4580 1.350 . S
C4575 N4583 1.427 . S
C4576 H4567 0.930 . S
C4576 C4574 1.378 . S
C4576 C4577 1.367 . S
C4577 C4576 1.367 . S
C4577 C4579 1.433 . S
C4578 C4574 1.350 . S
C4578 C4575 1.463 . S
C4578 N4582 1.427 . S
C4579 H4569 0.929 . S
C4579 C4577 1.433 . S
C4579 N4582 1.384 . S
C4580 H4571 0.929 . S
C4580 C4572 1.378 . S
C4580 C4575 1.350 . S
C4581 H4568 0.929 . S
C4581 C4573 1.433 . S
C4581 N4583 1.384 . S
N4582 C4578 1.427 . S
N4582 C4579 1.384 . S
N4583 C4575 1.427 . S
N4583 C4581 1.384 . S
H4584 C4590 0.930 . S
H4585 C4594 0.930 . S
H4586 C4599 0.929 . S
H4587 C4597 0.929 . S
H4588 C4592 0.929 . S
H4589 C4598 0.929 . S
C4590 H4584 0.930 . S
C4590 C4591 1.367 . S
C4590 C4598 1.378 . S
C4591 C4590 1.367 . S
C4591 C4599 1.433 . S
C4592 H4588 0.929 . S
C4592 C4594 1.378 . S
C4592 C4596 1.350 . S
C4593 C4596 1.463 . S
C4593 C4598 1.350 . S
C4593 N4601 1.427 . S
C4594 H4585 0.930 . S
C4594 C4592 1.378 . S
C4594 C4595 1.367 . S
C4595 C4594 1.367 . S
C4595 C4597 1.433 . S
C4596 C4592 1.350 . S
C4596 C4593 1.463 . S
C4596 N4600 1.427 . S
C4597 H4587 0.929 . S
C4597 C4595 1.433 . S
C4597 N4600 1.384 . S
C4598 H4589 0.929 . S
C4598 C4590 1.378 . S
C4598 C4593 1.350 . S
C4599 H4586 0.929 . S
C4599 C4591 1.433 . S
C4599 N4601 1.384 . S
N4600 C4596 1.427 . S
N4600 C4597 1.384 . S
N4601 C4593 1.427 . S
N4601 C4599 1.384 . S
H4602 C4608 0.930 . S
H4603 C4612 0.930 . S
H4604 C4617 0.929 . S
H4605 C4615 0.929 . S
H4606 C4610 0.929 . S
H4607 C4616 0.929 . S
C4608 H4602 0.930 . S
C4608 C4609 1.367 . S
C4608 C4616 1.378 . S
C4609 C4608 1.367 . S
C4609 C4617 1.433 . S
C4610 H4606 0.929 . S
C4610 C4612 1.378 . S
C4610 C4614 1.350 . S
C4611 C4614 1.463 . S
C4611 C4616 1.350 . S
C4611 N4619 1.427 . S
C4612 H4603 0.930 . S
C4612 C4610 1.378 . S
C4612 C4613 1.367 . S
C4613 C4612 1.367 . S
C4613 C4615 1.433 . S
C4614 C4610 1.350 . S
C4614 C4611 1.463 . S
C4614 N4618 1.427 . S
C4615 H4605 0.929 . S
C4615 C4613 1.433 . S
C4615 N4618 1.384 . S
C4616 H4607 0.929 . S
C4616 C4608 1.378 . S
C4616 C4611 1.350 . S
C4617 H4604 0.929 . S
C4617 C4609 1.433 . S
C4617 N4619 1.384 . S
N4618 C4614 1.427 . S
N4618 C4615 1.384 . S
N4619 C4611 1.427 . S
N4619 C4617 1.384 . S
H4620 C4626 0.930 . S
H4621 C4630 0.930 . S
H4622 C4635 0.929 . S
H4623 C4633 0.929 . S
H4624 C4628 0.929 . S
H4625 C4634 0.929 . S
C4626 H4620 0.930 . S
C4626 C4627 1.367 . S
C4626 C4634 1.378 . S
C4627 C4626 1.367 . S
C4627 C4635 1.433 . S
C4628 H4624 0.929 . S
C4628 C4630 1.378 . S
C4628 C4632 1.350 . S
C4629 C4632 1.463 . S
C4629 C4634 1.350 . S
C4629 N4637 1.427 . S
C4630 H4621 0.930 . S
C4630 C4628 1.378 . S
C4630 C4631 1.367 . S
C4631 C4630 1.367 . S
C4631 C4633 1.433 . S
C4632 C4628 1.350 . S
C4632 C4629 1.463 . S
C4632 N4636 1.427 . S
C4633 H4623 0.929 . S
C4633 C4631 1.433 . S
C4633 N4636 1.384 . S
C4634 H4625 0.929 . S
C4634 C4626 1.378 . S
C4634 C4629 1.350 . S
C4635 H4622 0.929 . S
C4635 C4627 1.433 . S
C4635 N4637 1.384 . S
N4636 C4632 1.427 . S
N4636 C4633 1.384 . S
N4637 C4629 1.427 . S
N4637 C4635 1.384 . S
H4638 C4644 0.930 . S
H4639 C4648 0.930 . S
H4640 C4653 0.929 . S
H4641 C4651 0.929 . S
H4642 C4646 0.929 . S
H4643 C4652 0.929 . S
C4644 H4638 0.930 . S
C4644 C4645 1.367 . S
C4644 C4652 1.378 . S
C4645 C4644 1.367 . S
C4645 C4653 1.433 . S
C4646 H4642 0.929 . S
C4646 C4648 1.378 . S
C4646 C4650 1.350 . S
C4647 C4650 1.463 . S
C4647 C4652 1.350 . S
C4647 N4655 1.427 . S
C4648 H4639 0.930 . S
C4648 C4646 1.378 . S
C4648 C4649 1.367 . S
C4649 C4648 1.367 . S
C4649 C4651 1.433 . S
C4650 C4646 1.350 . S
C4650 C4647 1.463 . S
C4650 N4654 1.427 . S
C4651 H4641 0.929 . S
C4651 C4649 1.433 . S
C4651 N4654 1.384 . S
C4652 H4643 0.929 . S
C4652 C4644 1.378 . S
C4652 C4647 1.350 . S
C4653 H4640 0.929 . S
C4653 C4645 1.433 . S
C4653 N4655 1.384 . S
N4654 C4650 1.427 . S
N4654 C4651 1.384 . S
N4655 C4647 1.427 . S
N4655 C4653 1.384 . S
C2071 C491 1.516 . S
C2075 C557 1.522 . S
C2089 C271 1.588 . S
C2093 C589 1.675 . S
C2111 C621 1.519 . S
C2107 C513 1.450 . S
C2125 C293 1.613 . S
C2129 C653 1.612 . S
C2143 C524 1.780 . S
C2147 C685 1.663 . S
C2161 C260 1.545 . S
C2165 C717 1.523 . S
C2179 C502 1.582 . S
C2183 C749 1.664 . S
C2197 C282 1.446 . S
C2201 C781 1.538 . S
C2215 C183 1.580 . S
C2219 C813 1.586 . S
C2233 C447 1.726 . S
C2237 C845 1.664 . S
C2251 C205 1.627 . S
C2255 C877 1.654 . S
C2269 C436 1.511 . S
C2273 C909 1.517 . S
C2287 C249 1.459 . S
C2291 C941 1.427 . S
C2309 C973 1.594 . S
C2305 C458 1.564 . S
C2327 C1005 1.727 . S
C2323 C227 1.700 . S
C2341 C315 1.658 . S
C2345 C1037 1.552 . S
C2363 C1069 1.617 . S
C2359 C216 1.579 . S
C2381 C1101 1.728 . S
C2377 C469 1.701 . S
C2395 C238 1.546 . S
C2399 C1133 1.436 . S
C2413 C326 1.597 . S
C2417 C1165 1.622 . S
C2435 C1197 1.499 . S
C2431 C304 1.460 . S
C2449 C392 1.404 . S
C2453 C1229 1.373 . S
C2471 C1261 1.536 . S
C2467 C106 1.604 . S
C2489 C1293 1.521 . S
C2485 C414 1.507 . S
C2507 C1325 1.596 . S
C2503 C128 1.629 . S
C2525 C1357 1.604 . S
C2521 C425 1.637 . S
C2539 C95 1.351 . S
C2543 C1389 1.334 . S
C2561 C1421 1.500 . S
C2557 C403 1.568 . S
C2575 C117 1.535 . S
C2579 C1453 1.544 . S
C2597 C1485 1.563 . S
C2593 C18 1.512 . S
C2615 C1517 1.620 . S
C2611 C348 1.710 . S
C2629 C40 1.571 . S
C2633 C1549 1.602 . S
C2651 C1581 1.657 . S
C2647 C337 1.624 . S
C2669 C1613 1.550 . S
C2665 C84 1.585 . S
C2683 C359 1.546 . S
C2687 C1645 1.587 . S
C2705 C1677 1.681 . S
C2701 C62 1.651 . S
C2723 C1709 1.474 . S
C2719 C150 1.511 . S
C2737 C51 1.602 . S
C2741 C1741 1.635 . S
C2759 C1773 1.681 . S
C2755 C370 1.651 . S
C2773 C73 1.496 . S
C2777 C1805 1.465 . S
C2795 C1837 1.555 . S
C2791 C161 1.521 . S
C2809 C139 1.500 . S
C2813 C1869 1.544 . S
C2827 C194 1.723 . S
C2831 C1901 1.647 . S
C2849 C1933 1.506 . S
C2845 C172 1.509 . S
C2863 C480 1.446 . S
C2867 C1965 1.418 . S
C2881 C29 1.717 . S
C2885 C1997 1.609 . S
C2903 C2029 1.505 . S
C2899 C7 1.488 . S
C2921 C2061 1.510 . S
C2917 C381 1.528 . S
C2935 C368 1.584 . S
C2939 C551 1.586 . S
C2953 C151 1.419 . S
C2957 C583 1.422 . S
C2971 C379 1.393 . S
C2975 C609 1.547 . S
C2993 C641 1.518 . S
C2989 C360 1.584 . S
C3007 C159 1.828 . S
C3011 C679 1.777 . S
C3025 C338 1.591 . S
C3029 C705 1.512 . S
C3047 C737 1.593 . S
C3043 C140 1.498 . S
C3061 C346 1.281 . S
C3065 C775 1.499 . S
C3079 C349 1.425 . S
C3083 C801 1.409 . S
C3101 C833 1.555 . S
C3097 C162 1.633 . S
C3115 C335 1.637 . S
C3119 C865 1.769 . S
C3137 C903 1.431 . S
C3133 C137 1.237 . S
C3151 C148 1.424 . S
C3155 C935 1.462 . S
C3169 C382 1.485 . S
C3173 C967 1.488 . S
C3191 C993 1.721 . S
C3187 C357 1.537 . S
C3209 C1025 1.567 . S
C3205 C371 1.673 . S
C3223 C129 1.512 . S
C3227 C897 1.478 . S
C3241 C393 1.509 . S
C3245 C1057 1.576 . S
C3259 C401 1.304 . S
C3263 C1095 1.533 . S
C3281 C1127 1.479 . S
C3277 C412 1.430 . S
C3299 C929 1.424 . S
C3295 C126 1.326 . S
C3313 C107 1.671 . S
C3317 C839 1.613 . S
C3331 C415 1.480 . S
C3335 C1159 1.485 . S
C3353 C1191 1.310 . S
C3349 C390 1.168 . S
C3371 C1223 1.379 . S
C3367 C467 1.283 . S
C3385 C316 1.653 . S
C3389 C1249 1.567 . S
C3407 C1287 1.382 . S
C3403 C478 1.159 . S
C3425 C1313 1.512 . S
C3421 C459 1.562 . S
C3439 C324 1.318 . S
C3443 C1351 1.452 . S
C3457 C434 1.161 . S
C3461 C1377 1.415 . S
C3475 C305 1.480 . S
C3479 C1415 1.425 . S
C3497 C1441 1.424 . S
C3493 C448 1.437 . S
C3515 C1473 1.587 . S
C3511 C445 1.380 . S
C3529 C327 1.821 . S
C3533 C1505 1.702 . S
C3551 C1537 1.471 . S
C3547 C437 1.447 . S
C3565 C302 1.225 . S
C3569 C1575 1.607 . S
C3587 C1607 1.470 . S
C3583 C313 1.350 . S
C3601 C481 1.500 . S
C3605 C1639 1.528 . S
C3623 C1665 1.518 . S
C3619 C456 1.324 . S
C3637 C470 1.538 . S
C3641 C1697 1.464 . S
C3655 C294 1.547 . S
C3659 C1569 1.596 . S
C3673 C492 1.495 . S
C3677 C1729 1.548 . S
C3691 C500 1.281 . S
C3695 C1767 1.700 . S
C3713 C1799 1.468 . S
C3709 C514 1.475 . S
C3727 C291 1.295 . S
C3731 C1601 1.606 . S
C3745 C272 1.636 . S
C3749 C1511 1.583 . S
C3767 C1831 1.652 . S
C3763 C511 1.210 . S
C3781 C489 1.335 . S
C3785 C1863 1.847 . S
C3803 C711 1.597 . S
C3799 C60 1.589 . S
C3821 C743 1.407 . S
C3817 C74 1.403 . S
C3839 C769 1.652 . S
C3835 C82 1.523 . S
C3857 C673 1.574 . S
C3853 C52 1.698 . S
C3875 C647 1.600 . S
C3871 C38 1.601 . S
C3889 C8 1.554 . S
C3893 C545 1.490 . S
C3907 C19 1.529 . S
C3911 C577 1.627 . S
C3925 C27 1.237 . S
C3929 C615 1.425 . S
C3943 C30 1.356 . S
C3947 C1185 1.364 . S
C3961 C41 1.608 . S
C3965 C1889 1.538 . S
C3979 C5 1.454 . S
C3983 C1153 1.632 . S
C3997 C16 1.230 . S
C4001 C1927 1.458 . S
C4015 C71 1.384 . S
C4019 C1959 1.452 . S
C4037 C1063 1.552 . S
C4033 C85 1.549 . S
C4051 C49 1.516 . S
C4055 C1089 1.689 . S
C4069 C63 1.617 . S
C4073 C1121 1.513 . S
C4091 C1921 1.461 . S
C4087 C426 1.500 . S
C4105 C96 1.514 . S
C4109 C961 1.589 . S
C4123 C104 1.338 . S
C4127 C999 1.589 . S
C4141 C115 1.546 . S
C4145 C1031 1.601 . S
C4163 C1953 1.417 . S
C4159 C423 1.292 . S
C4181 C1895 1.550 . S
C4177 C404 1.611 . S
C4199 C871 1.588 . S
C4195 C118 1.583 . S
C4213 C93 1.238 . S
C4217 C807 1.408 . S
C4231 C225 1.241 . S
C4235 C1383 1.354 . S
C4249 C239 1.649 . S
C4253 C1409 1.562 . S
C4267 C247 1.181 . S
C4271 C1447 1.406 . S
C4285 C217 1.558 . S
C4289 C1345 1.520 . S
C4307 C1319 1.439 . S
C4303 C203 1.303 . S
C4325 C1217 1.433 . S
C4321 C170 1.192 . S
C4343 C1255 1.444 . S
C4339 C184 1.495 . S
C4357 C195 1.423 . S
C4361 C1281 1.421 . S
C4379 C1857 1.575 . S
C4375 C192 1.369 . S
C4393 C206 1.832 . S
C4397 C1985 1.710 . S
C4411 C173 1.432 . S
C4415 C1825 1.451 . S
C4433 C2023 1.570 . S
C4429 C181 1.234 . S
C4447 C236 1.183 . S
C4451 C2055 1.305 . S
C4469 C1735 1.602 . S
C4465 C250 1.565 . S
C4483 C214 1.298 . S
C4487 C1761 1.502 . S
C4501 C228 1.496 . S
C4505 C1793 1.442 . S
C4519 C522 1.411 . S
C4523 C2017 1.555 . S
C4541 C1633 1.498 . S
C4537 C261 1.459 . S
C4555 C269 1.295 . S
C4559 C1671 1.701 . S
C4573 C283 1.489 . S
C4577 C1703 1.481 . S
C4591 C525 1.536 . S
C4595 C2049 1.480 . S
C4609 C503 1.652 . S
C4613 C1991 1.581 . S
C4631 C1543 1.644 . S
C4627 C280 1.198 . S
C4649 C1479 1.861 . S
C4645 C258 1.381 . S
