# Generated by pormake.
# Topology anh, (6,3)-cn, num edge types: 1
# Building blocks:
#     Node 0, Type 0, BuildingBlock: BETDAH_clean_sbu_0, # of connection points: 6
#     Node 1, Type 0, BuildingBlock: BETDAH_clean_sbu_0, # of connection points: 6
#     Node 2, Type 0, BuildingBlock: BETDAH_clean_sbu_0, # of connection points: 6
#     Node 3, Type 1, BuildingBlock: PAMTOO_clean_linker_0, # of connection points: 3
#     Node 4, Type 1, BuildingBlock: PAMTOO_clean_linker_0, # of connection points: 3
#     Node 5, Type 1, BuildingBlock: PAMTOO_clean_linker_0, # of connection points: 3
#     Node 6, Type 1, BuildingBlock: PAMTOO_clean_linker_0, # of connection points: 3
#     Node 7, Type 1, BuildingBlock: PAMTOO_clean_linker_0, # of connection points: 3
#     Node 8, Type 1, BuildingBlock: PAMTOO_clean_linker_0, # of connection points: 3
#     Edge 9, Type (0, 1), BuildingBlock: EZIPEK_clean_linker_0, # of connection points: 2
#     Edge 10, Type (0, 1), BuildingBlock: EZIPEK_clean_linker_0, # of connection points: 2
#     Edge 11, Type (0, 1), BuildingBlock: EZIPEK_clean_linker_0, # of connection points: 2
#     Edge 12, Type (0, 1), BuildingBlock: EZIPEK_clean_linker_0, # of connection points: 2
#     Edge 13, Type (0, 1), BuildingBlock: EZIPEK_clean_linker_0, # of connection points: 2
#     Edge 14, Type (0, 1), BuildingBlock: EZIPEK_clean_linker_0, # of connection points: 2
#     Edge 15, Type (0, 1), BuildingBlock: EZIPEK_clean_linker_0, # of connection points: 2
#     Edge 16, Type (0, 1), BuildingBlock: EZIPEK_clean_linker_0, # of connection points: 2
#     Edge 17, Type (0, 1), BuildingBlock: EZIPEK_clean_linker_0, # of connection points: 2
#     Edge 18, Type (0, 1), BuildingBlock: EZIPEK_clean_linker_0, # of connection points: 2
#     Edge 19, Type (0, 1), BuildingBlock: EZIPEK_clean_linker_0, # of connection points: 2
#     Edge 20, Type (0, 1), BuildingBlock: EZIPEK_clean_linker_0, # of connection points: 2
#     Edge 21, Type (0, 1), BuildingBlock: EZIPEK_clean_linker_0, # of connection points: 2
#     Edge 22, Type (0, 1), BuildingBlock: EZIPEK_clean_linker_0, # of connection points: 2
#     Edge 23, Type (0, 1), BuildingBlock: EZIPEK_clean_linker_0, # of connection points: 2
#     Edge 24, Type (0, 1), BuildingBlock: EZIPEK_clean_linker_0, # of connection points: 2
#     Edge 25, Type (0, 1), BuildingBlock: EZIPEK_clean_linker_0, # of connection points: 2
#     Edge 26, Type (0, 1), BuildingBlock: EZIPEK_clean_linker_0, # of connection points: 2
# Relax obj value: 0.228
# Max RMSD: 0.215
# Mean RMSD: 0.134
data_MOF--net-anh--node1-BETDAH_clean_sbu_0--node2-PAMTOO_clean_linker_0--edge1-EZIPEK_clean_linker_0
_symmetry_space_group_name_H-M    P1
_symmetry_Int_Tables_number       1
_symmetry_cell_setting            triclinic
loop_
_symmetry_equiv_pos_as_xyz
'x, y, z'
_cell_length_a     23.280868
_cell_length_b     29.27611
_cell_length_c     36.037733
_cell_angle_alpha  88.018023
_cell_angle_beta   91.876459
_cell_angle_gamma 132.33943
loop_
_atom_site_label
_atom_site_type_symbol
_atom_site_fract_x
_atom_site_fract_y
_atom_site_fract_z
_atom_type_partial_charge
Ho0 Ho 0.17143 0.46378 0.14191 0.0
Ho1 Ho 1.06871 0.48738 0.16524 0.0
C2 C 0.25567 0.60631 0.15708 0.0
C3 C 0.26911 0.46597 0.10842 0.0
C4 C 0.34322 0.51827 0.09106 0.0
C5 C 0.35029 0.56348 0.07035 0.0
C6 C 0.42365 0.62113 0.0631 0.0
C7 C 0.49027 0.63408 0.07671 0.0
C8 C 0.48354 0.5874 0.0946 0.0
C9 C 0.41033 0.52963 0.10158 0.0
C10 C 0.13801 0.44699 0.21548 0.0
C11 C 0.99035 0.34557 0.15225 0.0
C12 C 1.00456 0.51856 0.20011 0.0
C13 C 0.9403 0.51709 0.19941 0.0
C14 C 0.92316 0.53029 0.23216 0.0
C15 C 0.88294 0.55032 0.23046 0.0
C16 C 0.86068 0.55789 0.19586 0.0
C17 C 0.86978 0.53769 0.1637 0.0
C18 C 0.90921 0.51716 0.16544 0.0
C19 C 1.06826 0.47359 0.09117 0.0
O20 O 0.26335 0.56864 0.14451 0.0
O21 O 0.18763 0.5849 0.16858 0.0
O22 O 0.26906 0.46988 0.14449 0.0
O23 O 0.20572 0.44828 0.09224 0.0
O24 O 0.14796 0.41522 0.19749 0.0
O25 O 0.15282 0.48853 0.19428 0.0
O26 O 0.98704 0.38228 0.17079 0.0
O27 O 1.05251 0.36922 0.13264 0.0
O28 O 1.05553 0.55186 0.17378 0.0
O29 O 0.98993 0.46759 0.2079 0.0
O30 O 1.00925 0.45767 0.10882 0.0
O31 O 0.12535 0.50085 0.11324 0.0
H32 H 0.29937 0.55602 0.06214 0.0
H33 H 0.42829 0.65695 0.04932 0.0
H34 H 0.5347 0.59714 0.10551 0.0
H35 H 0.40608 0.49563 0.11783 0.0
H36 H 0.94701 0.53064 0.2586 0.0
H37 H 0.87629 0.56575 0.25549 0.0
H38 H 0.85252 0.54306 0.1368 0.0
H39 H 0.92177 0.50707 0.13988 0.0
Ho40 Ho 0.74923 0.02401 0.47606 0.0
Ho41 Ho 0.64254 0.04605 0.46033 0.0
C42 C 0.5633 0.90389 0.46392 0.0
C43 C 0.81316 0.98543 0.5048 0.0
C44 C 0.78813 0.9241 0.51054 0.0
C45 C 0.72356 0.87814 0.53261 0.0
C46 C 0.70201 0.82097 0.5385 0.0
C47 C 0.74415 0.80867 0.5222 0.0
C48 C 0.80725 0.85374 0.49937 0.0
C49 C 0.82936 0.9112 0.49378 0.0
C50 C 0.73252 0.03857 0.40323 0.0
C51 C 0.83224 0.16554 0.46737 0.0
C52 C 0.57377 0.08295 0.4356 0.0
C53 C 0.57953 0.13413 0.44535 0.0
C54 C 0.54486 0.14949 0.42233 0.0
C55 C 0.54682 0.19618 0.43248 0.0
C56 C 0.58344 0.22781 0.46577 0.0
C57 C 0.61982 0.21348 0.48837 0.0
C58 C 0.61803 0.16693 0.47816 0.0
C59 C 0.66367 0.03677 0.53373 0.0
O60 O 0.63077 0.92552 0.47808 0.0
O61 O 0.55637 0.94268 0.45017 0.0
O62 O 0.8237 1.00501 0.47036 0.0
O63 O 0.77814 0.99717 0.52442 0.0
O64 O 0.7964 0.05715 0.41833 0.0
O65 O 0.67883 1.00861 0.42677 0.0
O66 O 0.7633 0.14374 0.4551 0.0
O67 O 0.83947 0.12753 0.48209 0.0
O68 O 0.54492 0.04005 0.46122 0.0
O69 O 0.63506 0.09871 0.42023 0.0
O70 O 0.60013 1.0192 0.51922 0.0
O71 O 0.7146 0.06342 0.50897 0.0
H72 H 0.69011 0.88641 0.54569 0.0
H73 H 0.65319 0.78663 0.55621 0.0
H74 H 0.84039 0.84488 0.48665 0.0
H75 H 0.87912 0.94579 0.4766 0.0
H76 H 0.51516 0.12469 0.39689 0.0
H77 H 0.51826 0.20669 0.41487 0.0
H78 H 0.64806 0.23742 0.51419 0.0
H79 H 0.64523 0.1556 0.49619 0.0
Ho80 Ho 0.72401 0.60217 0.84005 0.0
Ho81 Ho 0.61691 0.47108 0.85581 0.0
C82 C 0.53883 0.53206 0.85107 0.0
C83 C 0.81963 0.71629 0.81652 0.0
C84 C 0.81234 0.76252 0.81155 0.0
C85 C 0.76159 0.76021 0.83354 0.0
C86 C 0.7502 0.80102 0.82644 0.0
C87 C 0.78859 0.84423 0.79695 0.0
C88 C 0.84005 0.84704 0.77532 0.0
C89 C 0.85181 0.80651 0.78257 0.0
C90 C 0.68144 0.57433 0.91211 0.0
C91 C 0.80327 0.54014 0.84847 0.0
C92 C 0.54849 0.35817 0.87481 0.0
C93 C 0.56926 0.32068 0.8699 0.0
C94 C 0.64583 0.34554 0.8753 0.0
C95 C 0.66644 0.31259 0.86456 0.0
C96 C 0.61075 0.25411 0.84852 0.0
C97 C 0.53381 0.22839 0.84444 0.0
C98 C 0.51332 0.26134 0.85501 0.0
C99 C 0.61606 0.49894 0.78351 0.0
O100 O 0.60473 0.57707 0.83277 0.0
O101 O 0.53475 0.48852 0.86843 0.0
O102 O 0.82034 0.69977 0.85052 0.0
O103 O 0.77547 0.66905 0.79476 0.0
O104 O 0.68529 0.61353 0.89188 0.0
O105 O 0.69893 0.55027 0.8926 0.0
O106 O 0.72919 0.48713 0.85078 0.0
O107 O 0.81615 0.5922 0.84482 0.0
O108 O 0.53407 0.37346 0.844 0.0
O109 O 0.58988 0.40402 0.89799 0.0
O110 O 0.55441 0.45742 0.80253 0.0
O111 O 0.67588 0.52455 0.80374 0.0
H112 H 0.72961 0.72607 0.85573 0.0
H113 H 0.71013 0.79801 0.84338 0.0
H114 H 0.87004 0.87991 0.7524 0.0
H115 H 0.89048 0.80861 0.76503 0.0
H116 H 0.69034 0.3911 0.88672 0.0
H117 H 0.72619 0.33336 0.86783 0.0
H118 H 0.49007 0.18349 0.832 0.0
H119 H 0.45418 0.24137 0.85024 0.0
H120 H 0.78306 0.12075 0.23879 0.0
H121 H 0.59371 0.92383 0.23881 0.0
H122 H 0.67862 0.02631 0.13509 0.0
H123 H 0.49712 0.89193 0.12977 0.0
C124 C 0.50103 0.87903 0.15847 0.0
O125 O 0.5791 0.91223 0.16698 0.0
H126 H 0.47795 0.89437 0.17551 0.0
C127 C 0.73951 0.07856 0.22358 0.0
C128 C 0.73644 0.08154 0.18476 0.0
C129 C 0.6877 0.02231 0.24324 0.0
C130 C 0.6321 0.9674 0.22368 0.0
C131 C 0.62796 0.96776 0.18478 0.0
C132 C 0.68023 0.02542 0.16514 0.0
H133 H 0.64194 0.59518 0.62097 0.0
H134 H 0.63682 0.44571 0.61304 0.0
H135 H 0.67241 0.55031 0.51563 0.0
H136 H 0.5536 0.42214 0.50353 0.0
C137 C 0.56953 0.40283 0.52401 0.0
O138 O 0.64077 0.4501 0.54033 0.0
H139 H 0.52612 0.37855 0.54662 0.0
C140 C 0.64506 0.56638 0.60477 0.0
C141 C 0.66134 0.57973 0.56688 0.0
C142 C 0.63893 0.51961 0.62239 0.0
C143 C 0.6421 0.48251 0.60042 0.0
C144 C 0.64961 0.49144 0.56178 0.0
C145 C 0.66244 0.54157 0.54523 0.0
H146 H 1.00883 0.51085 0.9277 0.0
H147 H 0.19679 0.51573 0.92811 0.0
H148 H 0.12618 0.54709 0.82485 0.0
H149 H 0.21782 0.47519 0.82921 0.0
C150 C 0.24785 0.5011 0.85517 0.0
O151 O 0.23572 0.54306 0.8588 0.0
H152 H 0.21344 0.46408 0.87672 0.0
C153 C 1.05177 0.51593 0.91188 0.0
C154 C 1.05726 0.52875 0.87358 0.0
C155 C 1.101 0.51092 0.93092 0.0
C156 C 0.15871 0.51811 0.91215 0.0
C157 C 0.16996 0.52993 0.87379 0.0
C158 C 0.1179 0.53556 0.85418 0.0
H159 H 1.05936 0.38275 0.38024 0.0
H160 H 0.25678 0.57818 0.3773 0.0
H161 H 0.15526 0.48356 0.48233 0.0
H162 H 0.25034 0.63099 0.48498 0.0
C163 C 0.27451 0.63975 0.45686 0.0
O164 O 0.27296 0.59259 0.44908 0.0
H165 H 0.23328 0.63735 0.43855 0.0
C166 C 1.10126 0.42598 0.39481 0.0
C167 C 1.09813 0.42598 0.43353 0.0
C168 C 0.15741 0.48031 0.3744 0.0
C169 C 0.21242 0.53639 0.39302 0.0
C170 C 0.21264 0.5385 0.43189 0.0
C171 C 0.1548 0.48285 0.45231 0.0
H172 H 0.73125 0.97868 0.69257 0.0
H173 H 0.70303 0.10841 0.70307 0.0
H174 H 0.73674 0.03984 0.80083 0.0
H175 H 0.62486 0.05607 0.81195 0.0
C176 C 0.64526 0.09124 0.78976 0.0
O177 O 0.71487 0.11319 0.77589 0.0
H178 H 0.59848 0.06523 0.76821 0.0
C179 C 0.72861 1.00679 0.70987 0.0
C180 C 0.73641 1.00525 0.7486 0.0
C181 C 0.71615 0.04361 0.69337 0.0
C182 C 0.71237 0.07979 0.71577 0.0
C183 C 0.71927 0.07833 0.75454 0.0
C184 C 0.73143 0.04105 0.77091 0.0
H185 H 0.74862 0.60771 0.09019 0.0
H186 H 0.78479 0.75313 0.02941 0.0
H187 H 0.84028 0.77339 0.14603 0.0
H188 H 0.83789 0.89545 0.08762 0.0
C189 C 0.80723 0.84837 0.09898 0.0
O190 O 0.84153 0.82786 0.08556 0.0
H191 H 0.81726 0.85247 0.12947 0.0
C192 C 0.76346 0.65169 0.09006 0.0
C193 C 0.7942 0.68734 0.12216 0.0
C194 C 0.75841 0.67476 0.05687 0.0
C195 C 0.78318 0.73358 0.05579 0.0
C196 C 0.8109 0.76876 0.08802 0.0
C197 C 0.81536 0.74515 0.12147 0.0
C198 C 0.61727 0.72462 0.04796 0.0
C199 C 0.56555 0.69854 0.07813 0.0
C200 C 0.66637 0.78755 0.11636 0.0
C201 C 0.72101 0.80591 0.08899 0.0
N202 N 0.74243 0.81476 0.02334 0.0
N203 N 0.53462 0.7083 0.13895 0.0
C204 C 0.69432 0.78203 0.0528 0.0
C205 C 0.58785 0.73172 0.11152 0.0
N206 N 0.59439 0.69276 0.01576 0.0
N207 N 0.68916 0.82517 0.14567 0.0
H208 H 0.47575 0.66933 0.13541 0.0
H209 H 0.5485 0.72608 0.16554 0.0
H210 H 0.74479 0.86891 0.14767 0.0
H211 H 0.6516 0.81684 0.1656 0.0
H212 H 0.6326 0.70591 -0.00542 0.0
H213 H 0.53768 0.65108 0.01115 0.0
H214 H 0.72435 0.80221 -0.00418 0.0
H215 H 0.79882 0.85746 0.02654 0.0
C216 C 0.97579 0.25486 0.45169 0.0
C217 C 0.90366 0.23429 0.46383 0.0
C218 C 0.96409 0.34372 0.46235 0.0
C219 C 1.03664 0.36372 0.45232 0.0
N220 N 0.11577 0.33909 0.44765 0.0
N221 N 0.83744 0.26299 0.48977 0.0
C222 C 1.04368 0.31935 0.45081 0.0
C223 C 0.90029 0.27992 0.47188 0.0
N224 N 0.97888 0.21371 0.43781 0.0
N225 N 0.955 0.3852 0.46144 0.0
H226 H 0.79133 0.2178 0.4986 0.0
H227 H 0.83477 0.29469 0.49933 0.0
H228 H 1.00087 0.43223 0.45603 0.0
H229 H 0.90125 0.37236 0.46381 0.0
H230 H 1.02801 0.22714 0.42519 0.0
H231 H 0.93033 0.16702 0.43456 0.0
H232 H 0.1259 0.30943 0.44988 0.0
H233 H 0.16621 0.38592 0.44679 0.0
C234 C 0.70069 0.85998 0.77135 0.0
C235 C 0.77303 0.88521 0.78769 0.0
C236 C 0.82144 0.98983 0.77961 0.0
C237 C 0.74763 0.96424 0.76522 0.0
N238 N 0.61216 0.87475 0.75503 0.0
N239 N 0.89636 0.9724 0.81448 0.0
C240 C 0.68571 0.89915 0.76352 0.0
C241 C 0.83164 0.94969 0.79401 0.0
N242 N 0.6476 0.79916 0.76167 0.0
N243 N 0.88276 0.05232 0.77801 0.0
H244 H 0.90556 0.94433 0.82553 0.0
H245 H 0.93737 1.01791 0.82333 0.0
H246 H 0.87767 0.08326 0.76786 0.0
H247 H 0.93986 0.07318 0.78406 0.0
H248 H 0.59776 0.77987 0.7459 0.0
H249 H 0.65639 0.76893 0.76658 0.0
H250 H 0.56321 0.82771 0.75699 0.0
H251 H 0.59901 0.90207 0.74944 0.0
C252 C 0.76546 0.57153 0.18728 0.0
C253 C 0.84317 0.59793 0.19135 0.0
C254 C 0.89094 0.69337 0.16059 0.0
C255 C 0.81278 0.66563 0.15409 0.0
N256 N 0.67811 0.58765 0.17044 0.0
N257 N 0.97926 0.68982 0.19463 0.0
C258 C 0.75083 0.6079 0.17106 0.0
C259 C 0.9056 0.66122 0.18277 0.0
N260 N 0.70616 0.51104 0.19715 0.0
N261 N 0.95077 0.74726 0.14275 0.0
H262 H 0.99225 0.66704 0.21021 0.0
H263 H 1.02586 0.73736 0.19228 0.0
H264 H 0.94386 0.77286 0.12589 0.0
H265 H 1.0072 0.76464 0.14253 0.0
H266 H 0.6479 0.48667 0.19117 0.0
H267 H 0.71616 0.4846 0.21038 0.0
H268 H 0.63097 0.54782 0.18424 0.0
H269 H 0.66701 0.61416 0.15858 0.0
C270 C 0.47145 0.7932 0.49146 0.0
C271 C 0.4958 0.83439 0.46057 0.0
C272 C 0.38411 0.74544 0.42402 0.0
C273 C 0.3577 0.70513 0.45557 0.0
N274 N 0.39275 0.68726 0.51421 0.0
N275 N 0.48916 0.84429 0.39428 0.0
C276 C 0.40679 0.72807 0.48762 0.0
C277 C 0.45586 0.80888 0.42594 0.0
N278 N 0.50757 0.81609 0.52521 0.0
N279 N 0.34069 0.72336 0.39202 0.0
H280 H 0.54323 0.88933 0.39417 0.0
H281 H 0.46782 0.8273 0.36766 0.0
H282 H 0.29445 0.67647 0.38744 0.0
H283 H 0.34944 0.75168 0.37022 0.0
H284 H 0.48586 0.78991 0.54973 0.0
H285 H 0.55656 0.86226 0.5295 0.0
H286 H 0.43078 0.69991 0.53624 0.0
H287 H 0.34739 0.63956 0.51205 0.0
C288 C 0.64709 0.19012 0.8578 0.0
C289 C 0.63318 0.22106 0.83353 0.0
C290 C 0.64311 0.17741 0.77967 0.0
C291 C 0.65334 0.14403 0.80413 0.0
N292 N 0.69647 0.1391 0.86464 0.0
N293 N 0.63987 0.25852 0.77183 0.0
C294 C 0.6654 0.15696 0.84268 0.0
C295 C 0.63805 0.21914 0.79453 0.0
N296 N 0.63978 0.19026 0.89525 0.0
N297 N 0.63676 0.16842 0.74227 0.0
H298 H 0.63696 0.28991 0.78189 0.0
H299 H 0.65114 0.2642 0.74354 0.0
H300 H 0.64805 0.14357 0.72994 0.0
H301 H 0.61814 0.18404 0.72346 0.0
H302 H 0.64035 0.16267 0.91399 0.0
H303 H 0.6274 0.21457 0.9074 0.0
H304 H 0.71266 0.15172 0.89229 0.0
H305 H 0.71485 0.1181 0.85404 0.0
C306 C 0.77604 0.75037 0.55381 0.0
C307 C 0.72479 0.74976 0.53091 0.0
C308 C 0.63132 0.63644 0.53014 0.0
C309 C 0.68476 0.63761 0.55123 0.0
N310 N 0.81489 0.69524 0.57522 0.0
N311 N 0.61085 0.69392 0.49131 0.0
C312 C 0.75941 0.69454 0.56052 0.0
C313 C 0.65446 0.69319 0.51722 0.0
N314 N 0.83856 0.80363 0.5707 0.0
N315 N 0.55782 0.58135 0.52357 0.0
H316 H 0.62639 0.73473 0.48115 0.0
H317 H 0.56304 0.65468 0.47758 0.0
H318 H 0.53964 0.53891 0.53198 0.0
H319 H 0.51344 0.57787 0.51203 0.0
H320 H 0.87269 0.80505 0.59095 0.0
H321 H 0.85231 0.84554 0.56717 0.0
H322 H 0.87268 0.73567 0.57912 0.0
H323 H 0.80507 0.65512 0.58007 0.0
C324 C 0.94505 0.58697 0.87018 0.0
C325 C 0.87273 0.54045 0.85072 0.0
C326 C 0.9253 0.48819 0.84169 0.0
C327 C 0.9995 0.53719 0.85851 0.0
N328 N 1.08159 0.63987 0.88212 0.0
N329 N 0.80658 0.45292 0.81054 0.0
C330 C 1.00932 0.58846 0.87034 0.0
C331 C 0.86682 0.49289 0.83452 0.0
N332 N 0.95136 0.6279 0.8914 0.0
N333 N 0.90894 0.43533 0.83338 0.0
H334 H 0.76599 0.45624 0.8028 0.0
H335 H 0.80175 0.42098 0.79517 0.0
H336 H 0.95002 0.43123 0.83664 0.0
H337 H 0.85367 0.39467 0.8257 0.0
H338 H 0.99782 0.65823 0.9095 0.0
H339 H 0.90616 0.62674 0.89441 0.0
H340 H 1.09656 0.68155 0.88738 0.0
H341 H 0.12869 0.64259 0.88279 0.0
C342 C 0.34699 0.70666 0.19314 0.0
C343 C 0.3259 0.67515 0.15908 0.0
C344 C 0.438 0.77452 0.12979 0.0
C345 C 0.4489 0.80765 0.16138 0.0
N346 N 0.41496 0.80336 0.22487 0.0
N347 N 0.34828 0.68187 0.09339 0.0
C348 C 0.40412 0.77306 0.19367 0.0
C349 C 0.37129 0.70973 0.1271 0.0
N350 N 0.3148 0.67295 0.22542 0.0
N351 N 0.49215 0.80475 0.10241 0.0
H352 H 0.29924 0.63532 0.08977 0.0
H353 H 0.37368 0.70628 0.06851 0.0
H354 H 0.54253 0.85143 0.10393 0.0
H355 H 0.49153 0.782 0.08056 0.0
H356 H 0.33311 0.69237 0.25166 0.0
H357 H 0.27497 0.62475 0.22626 0.0
H358 H 0.37699 0.78186 0.24715 0.0
H359 H 0.46059 0.85068 0.22813 0.0
C360 C 0.64189 0.3372 0.47212 0.0
C361 C 0.57876 0.27297 0.47815 0.0
C362 C 0.50357 0.29371 0.50556 0.0
C363 C 0.57028 0.35802 0.50432 0.0
N364 N 0.68832 0.44035 0.47191 0.0
N365 N 0.4522 0.18937 0.50363 0.0
C366 C 0.63561 0.37984 0.48338 0.0
C367 C 0.51011 0.25099 0.49547 0.0
N368 N 0.70851 0.35738 0.45653 0.0
N369 N 0.4326 0.2736 0.51366 0.0
H370 H 0.45399 0.1562 0.49627 0.0
H371 H 0.40533 0.17168 0.52041 0.0
H372 H 0.42366 0.30355 0.51746 0.0
H373 H 0.38078 0.22769 0.51163 0.0
H374 H 0.76009 0.40354 0.45552 0.0
H375 H 0.7139 0.32738 0.44659 0.0
H376 H 0.73375 0.45831 0.45402 0.0
H377 H 0.68144 0.47135 0.47666 0.0
C378 C 0.43399 0.53278 0.81958 0.0
C379 C 0.46949 0.53133 0.85251 0.0
C380 C 0.3706 0.52363 0.88829 0.0
C381 C 0.33497 0.52503 0.85532 0.0
N382 N 0.35211 0.54889 0.79004 0.0
N383 N 0.48013 0.54171 0.91871 0.0
C384 C 0.37306 0.53521 0.82128 0.0
C385 C 0.4396 0.53111 0.88689 0.0
N386 N 0.45568 0.5287 0.78602 0.0
N387 N 0.33789 0.51434 0.92165 0.0
H388 H 0.53104 0.54977 0.91859 0.0
H389 H 0.46848 0.54901 0.94439 0.0
H390 H 0.29482 0.5158 0.92453 0.0
H391 H 0.35157 0.5033 0.94612 0.0
H392 H 0.42719 0.52222 0.76113 0.0
H393 H 0.49795 0.52619 0.7834 0.0
H394 H 0.3812 0.56287 0.76497 0.0
H395 H 0.31107 0.55312 0.7905 0.0
C396 C 0.93783 0.23571 0.16269 0.0
C397 C 0.92359 0.27562 0.15482 0.0
C398 C 0.78225 0.18428 0.16006 0.0
C399 C 0.79695 0.14474 0.16662 0.0
N400 N 0.88737 0.13098 0.16456 0.0
N401 N 0.82966 0.2831 0.13623 0.0
C402 C 0.87437 0.17006 0.16446 0.0
C403 C 0.84491 0.24838 0.15061 0.0
N404 N 1.01126 0.2601 0.17137 0.0
N405 N 0.70857 0.16105 0.16409 0.0
H406 H 0.87333 0.32896 0.12754 0.0
H407 H 0.77391 0.26473 0.12925 0.0
H408 H 0.66127 0.11423 0.16931 0.0
H409 H 0.69528 0.18862 0.16435 0.0
H410 H 1.0235 0.23369 0.18156 0.0
H411 H 1.05938 0.30721 0.17217 0.0
H412 H 0.94136 0.14561 0.15923 0.0
H413 H 0.84228 0.08302 0.16615 0.0
C414 C 0.12726 0.54371 0.03463 0.0
C415 C 1.07595 0.48285 0.05011 0.0
C416 C 1.03757 0.44008 0.98721 0.0
C417 C 1.09394 0.50081 0.97205 0.0
N418 N 0.19996 0.61006 0.98115 0.0
N419 N 0.98651 0.37269 0.04186 0.0
C420 C 0.14125 0.55247 -0.00423 0.0
C421 C 1.032 0.43087 0.02656 0.0
N422 N 0.15883 0.5931 0.05667 0.0
N423 N 0.98845 0.39135 0.96391 0.0
H424 H 0.9789 0.36411 0.0704 0.0
H425 H 0.95999 0.33313 0.02662 0.0
H426 H 0.99308 0.39601 0.93507 0.0
H427 H 0.94022 0.34696 0.97287 0.0
H428 H 0.19013 0.63789 0.04642 0.0
H429 H 0.1474 0.58876 0.08492 0.0
H430 H 0.24248 0.6482 -0.00267 0.0
H431 H 0.20992 0.61899 0.95272 0.0
C432 C 0.71213 0.07153 0.34285 0.0
C433 C 0.71834 0.03231 0.36253 0.0
C434 C 0.70924 0.98811 0.30367 0.0
C435 C 0.69317 0.02195 0.28466 0.0
N436 N 0.65912 0.08346 0.2887 0.0
N437 N 0.70834 0.94476 0.36244 0.0
C438 C 0.68816 0.05973 0.30508 0.0
C439 C 0.71208 0.98771 0.34319 0.0
N440 N 0.73338 0.12222 0.35946 0.0
N441 N 0.72642 0.95945 0.28421 0.0
H442 H 0.71089 0.94336 0.39138 0.0
H443 H 0.69578 0.90737 0.3498 0.0
H444 H 0.72899 0.96111 0.25533 0.0
H445 H 0.74596 0.93942 0.29685 0.0
H446 H 0.73634 0.15534 0.3452 0.0
H447 H 0.75679 0.13475 0.38622 0.0
H448 H 0.64833 0.10696 0.30348 0.0
H449 H 0.63797 0.07385 0.26142 0.0
C450 C 0.65744 0.5588 0.72367 0.0
C451 C 0.6168 0.50148 0.7422 0.0
C452 C 0.57664 0.45268 0.68135 0.0
C453 C 0.63211 0.51188 0.66383 0.0
N454 N 0.74399 0.62091 0.67334 0.0
N455 N 0.54724 0.39268 0.73735 0.0
C456 C 0.67856 0.56496 0.68648 0.0
C457 C 0.57906 0.44778 0.72074 0.0
N458 N 0.66986 0.60589 0.74013 0.0
N459 N 0.51902 0.40192 0.66116 0.0
H460 H 0.55048 0.3875 0.76588 0.0
H461 H 0.52491 0.35388 0.72219 0.0
H462 H 0.51036 0.40431 0.63287 0.0
H463 H 0.47429 0.3591 0.67351 0.0
H464 H 0.69521 0.64741 0.72616 0.0
H465 H 0.64543 0.59967 0.76565 0.0
H466 H 0.78007 0.65946 0.69031 0.0
H467 H 0.76673 0.6265 0.64739 0.0
C468 C 0.62047 0.98698 0.59757 0.0
C469 C 0.67798 0.03902 0.57468 0.0
C470 C 0.76349 0.0914 0.62949 0.0
C471 C 0.70339 0.04195 0.6525 0.0
N472 N 0.5698 0.94744 0.65959 0.0
N473 N 0.79548 0.14742 0.57152 0.0
C474 C 0.63047 0.99108 0.63685 0.0
C475 C 0.74745 0.09305 0.59127 0.0
N476 N 0.55725 0.93268 0.5819 0.0
N477 N 0.8363 0.13662 0.64404 0.0
H478 H 0.78275 0.15269 0.54467 0.0
H479 H 0.84289 0.18932 0.58332 0.0
H480 H 0.84991 0.13744 0.67202 0.0
H481 H 0.88448 0.17007 0.62774 0.0
H482 H 0.51899 0.89129 0.59687 0.0
H483 H 0.54608 0.92722 0.55347 0.0
H484 H 0.51283 0.9133 0.65004 0.0
H485 H 0.57488 0.94838 0.68848 0.0
C486 C 0.64267 0.5612 0.97785 0.0
C487 C 0.70254 0.58812 0.95181 0.0
C488 C 0.7995 0.6604 -0.00128 0.0
C489 C 0.73857 0.64131 0.02201 0.0
N490 N 0.60171 0.57488 0.03416 0.0
N491 N 0.83873 0.66498 0.93649 0.0
C492 C 0.65984 0.59148 0.01194 0.0
C493 C 0.78141 0.63756 0.96215 0.0
N494 N 0.56987 0.50643 0.96997 0.0
N495 N 0.87455 0.69999 0.01171 0.0
H496 H 0.82856 0.64835 0.90978 0.0
H497 H 0.89562 0.70629 0.94094 0.0
H498 H 0.89015 0.71822 0.03833 0.0
H499 H 0.92038 0.71036 -0.00258 0.0
H500 H 0.52471 0.48167 -0.01106 0.0
H501 H 0.55705 0.48313 0.94538 0.0
H502 H 0.54326 0.54363 0.02631 0.0
H503 H 0.61253 0.59564 0.05956 0.0
C504 C 0.21603 0.48479 0.27522 0.0
C505 C 0.14361 0.45263 0.25648 0.0
C506 C 1.08828 0.45237 0.31302 0.0
C507 C 0.1568 0.47664 0.33318 0.0
N508 N 0.28115 0.50465 0.33435 0.0
N509 N 1.00567 0.39049 0.26096 0.0
C510 C 0.21973 0.49001 0.31455 0.0
C511 C 1.07821 0.43213 0.27632 0.0
N512 N 0.28151 0.51131 0.25556 0.0
N513 N 1.03318 0.44941 0.3287 0.0
H514 H 0.99592 0.36966 0.23586 0.0
H515 H 0.95517 0.3705 0.27537 0.0
H516 H 1.03973 0.46576 0.35522 0.0
H517 H 0.98537 0.43701 0.31386 0.0
H518 H 0.33704 0.54096 0.26744 0.0
H519 H 0.28105 0.50768 0.22685 0.0
H520 H 0.32448 0.5086 0.32235 0.0
H521 H 0.28523 0.50717 0.36321 0.0
loop_
_geom_bond_atom_site_label_1
_geom_bond_atom_site_label_2
_geom_bond_distance
_geom_bond_site_symmetry_2
_ccdc_geom_bond_type
Ho0 C3 2.811 . S
Ho0 O20 2.322 . S
Ho0 O22 2.378 . S
Ho0 O23 2.524 . S
Ho0 O24 2.381 . S
Ho0 O25 2.669 1_455 S
Ho0 O27 2.346 1_455 S
Ho0 O31 2.305 . S
Ho1 C12 2.811 . S
Ho1 O21 2.346 1_655 S
Ho1 O25 2.305 . S
Ho1 O26 2.322 . S
Ho1 O28 2.378 . S
Ho1 O29 2.524 . S
Ho1 O30 2.381 . S
Ho1 O31 2.669 1_655 S
C2 O20 1.259 . S
C2 O21 1.268 . S
C3 Ho0 2.811 . S
C3 C4 1.488 . S
C3 O22 1.215 . S
C3 O23 1.289 . S
C4 C3 1.488 . S
C4 C5 1.348 . S
C4 C9 1.413 . S
C5 C4 1.348 . S
C5 C6 1.442 . S
C5 H32 0.930 . S
C6 C5 1.442 . S
C6 C7 1.381 . S
C6 H33 0.931 . S
C7 C6 1.381 . S
C7 C8 1.321 . S
C8 C7 1.321 . S
C8 C9 1.403 . S
C8 H34 0.934 . S
C9 C4 1.413 . S
C9 C8 1.403 . S
C9 H35 0.930 . S
C10 O24 1.275 . S
C10 O25 1.256 1_455 S
C11 O26 1.259 . S
C11 O27 1.268 . S
C12 Ho1 2.811 . S
C12 C13 1.488 . S
C12 O28 1.215 . S
C12 O29 1.289 . S
C13 C12 1.488 . S
C13 C14 1.348 . S
C13 C18 1.413 . S
C14 C13 1.348 . S
C14 C15 1.442 . S
C14 H36 0.930 . S
C15 C14 1.442 . S
C15 C16 1.381 . S
C15 H37 0.931 . S
C16 C15 1.381 . S
C16 C17 1.321 . S
C17 C16 1.321 . S
C17 C18 1.403 . S
C17 H38 0.934 . S
C18 C13 1.413 . S
C18 C17 1.403 . S
C18 H39 0.930 . S
C19 O30 1.275 1_455 S
C19 O31 1.256 . S
O20 Ho0 2.322 . S
O20 C2 1.259 . S
O21 Ho1 2.346 1_455 S
O21 C2 1.268 . S
O22 Ho0 2.378 . S
O22 C3 1.215 . S
O23 Ho0 2.524 . S
O23 C3 1.289 . S
O24 Ho0 2.381 . S
O24 C10 1.275 . S
O25 Ho0 2.669 1_655 S
O25 Ho1 2.305 . S
O25 C10 1.256 1_655 S
O26 Ho1 2.322 . S
O26 C11 1.259 . S
O27 Ho0 2.346 1_655 S
O27 C11 1.268 . S
O28 Ho1 2.378 . S
O28 C12 1.215 . S
O29 Ho1 2.524 . S
O29 C12 1.289 . S
O30 Ho1 2.381 . S
O30 C19 1.275 1_655 S
O31 Ho0 2.305 . S
O31 Ho1 2.669 1_455 S
O31 C19 1.256 . S
H32 C5 0.930 . S
H33 C6 0.931 . S
H34 C8 0.934 . S
H35 C9 0.930 . S
H36 C14 0.930 . S
H37 C15 0.931 . S
H38 C17 0.934 . S
H39 C18 0.930 . S
Ho40 C43 2.811 1_545 S
Ho40 O60 2.322 1_545 S
Ho40 O62 2.378 1_545 S
Ho40 O63 2.524 1_545 S
Ho40 O64 2.381 . S
Ho40 O65 2.669 . S
Ho40 O67 2.346 . S
Ho40 O71 2.305 . S
Ho41 C52 2.811 . S
Ho41 O61 2.346 1_545 S
Ho41 O65 2.305 . S
Ho41 O66 2.322 . S
Ho41 O68 2.378 . S
Ho41 O69 2.524 . S
Ho41 O70 2.381 . S
Ho41 O71 2.669 . S
C42 O60 1.259 . S
C42 O61 1.268 . S
C43 Ho40 2.811 1_565 S
C43 C44 1.488 . S
C43 O62 1.215 . S
C43 O63 1.289 . S
C44 C43 1.488 . S
C44 C45 1.348 . S
C44 C49 1.413 . S
C45 C44 1.348 . S
C45 C46 1.442 . S
C45 H72 0.930 . S
C46 C45 1.442 . S
C46 C47 1.381 . S
C46 H73 0.931 . S
C47 C46 1.381 . S
C47 C48 1.321 . S
C48 C47 1.321 . S
C48 C49 1.403 . S
C48 H74 0.934 . S
C49 C44 1.413 . S
C49 C48 1.403 . S
C49 H75 0.930 . S
C50 O64 1.275 . S
C50 O65 1.256 . S
C51 O66 1.259 . S
C51 O67 1.268 . S
C52 Ho41 2.811 . S
C52 C53 1.488 . S
C52 O68 1.215 . S
C52 O69 1.289 . S
C53 C52 1.488 . S
C53 C54 1.348 . S
C53 C58 1.413 . S
C54 C53 1.348 . S
C54 C55 1.442 . S
C54 H76 0.930 . S
C55 C54 1.442 . S
C55 C56 1.381 . S
C55 H77 0.931 . S
C56 C55 1.381 . S
C56 C57 1.321 . S
C57 C56 1.321 . S
C57 C58 1.403 . S
C57 H78 0.934 . S
C58 C53 1.413 . S
C58 C57 1.403 . S
C58 H79 0.930 . S
C59 O70 1.275 . S
C59 O71 1.256 . S
O60 Ho40 2.322 1_565 S
O60 C42 1.259 . S
O61 Ho41 2.346 1_565 S
O61 C42 1.268 . S
O62 Ho40 2.378 1_565 S
O62 C43 1.215 . S
O63 Ho40 2.524 1_565 S
O63 C43 1.289 . S
O64 Ho40 2.381 . S
O64 C50 1.275 . S
O65 Ho40 2.669 . S
O65 Ho41 2.305 . S
O65 C50 1.256 . S
O66 Ho41 2.322 . S
O66 C51 1.259 . S
O67 Ho40 2.346 . S
O67 C51 1.268 . S
O68 Ho41 2.378 . S
O68 C52 1.215 . S
O69 Ho41 2.524 . S
O69 C52 1.289 . S
O70 Ho41 2.381 . S
O70 C59 1.275 . S
O71 Ho40 2.305 . S
O71 Ho41 2.669 . S
O71 C59 1.256 . S
H72 C45 0.930 . S
H73 C46 0.931 . S
H74 C48 0.934 . S
H75 C49 0.930 . S
H76 C54 0.930 . S
H77 C55 0.931 . S
H78 C57 0.934 . S
H79 C58 0.930 . S
Ho80 C83 2.811 . S
Ho80 O100 2.322 . S
Ho80 O102 2.378 . S
Ho80 O103 2.524 . S
Ho80 O104 2.381 . S
Ho80 O105 2.669 . S
Ho80 O107 2.346 . S
Ho80 O111 2.305 . S
Ho81 C92 2.811 . S
Ho81 O101 2.346 . S
Ho81 O105 2.305 . S
Ho81 O106 2.322 . S
Ho81 O108 2.378 . S
Ho81 O109 2.524 . S
Ho81 O110 2.381 . S
Ho81 O111 2.669 . S
C82 O100 1.259 . S
C82 O101 1.268 . S
C83 Ho80 2.811 . S
C83 C84 1.488 . S
C83 O102 1.215 . S
C83 O103 1.289 . S
C84 C83 1.488 . S
C84 C85 1.348 . S
C84 C89 1.413 . S
C85 C84 1.348 . S
C85 C86 1.442 . S
C85 H112 0.930 . S
C86 C85 1.442 . S
C86 C87 1.381 . S
C86 H113 0.931 . S
C87 C86 1.381 . S
C87 C88 1.321 . S
C88 C87 1.321 . S
C88 C89 1.403 . S
C88 H114 0.934 . S
C89 C84 1.413 . S
C89 C88 1.403 . S
C89 H115 0.930 . S
C90 O104 1.275 . S
C90 O105 1.256 . S
C91 O106 1.259 . S
C91 O107 1.268 . S
C92 Ho81 2.811 . S
C92 C93 1.488 . S
C92 O108 1.215 . S
C92 O109 1.289 . S
C93 C92 1.488 . S
C93 C94 1.348 . S
C93 C98 1.413 . S
C94 C93 1.348 . S
C94 C95 1.442 . S
C94 H116 0.930 . S
C95 C94 1.442 . S
C95 C96 1.381 . S
C95 H117 0.931 . S
C96 C95 1.381 . S
C96 C97 1.321 . S
C97 C96 1.321 . S
C97 C98 1.403 . S
C97 H118 0.934 . S
C98 C93 1.413 . S
C98 C97 1.403 . S
C98 H119 0.930 . S
C99 O110 1.275 . S
C99 O111 1.256 . S
O100 Ho80 2.322 . S
O100 C82 1.259 . S
O101 Ho81 2.346 . S
O101 C82 1.268 . S
O102 Ho80 2.378 . S
O102 C83 1.215 . S
O103 Ho80 2.524 . S
O103 C83 1.289 . S
O104 Ho80 2.381 . S
O104 C90 1.275 . S
O105 Ho80 2.669 . S
O105 Ho81 2.305 . S
O105 C90 1.256 . S
O106 Ho81 2.322 . S
O106 C91 1.259 . S
O107 Ho80 2.346 . S
O107 C91 1.268 . S
O108 Ho81 2.378 . S
O108 C92 1.215 . S
O109 Ho81 2.524 . S
O109 C92 1.289 . S
O110 Ho81 2.381 . S
O110 C99 1.275 . S
O111 Ho80 2.305 . S
O111 Ho81 2.669 . S
O111 C99 1.256 . S
H112 C85 0.930 . S
H113 C86 0.931 . S
H114 C88 0.934 . S
H115 C89 0.930 . S
H116 C94 0.930 . S
H117 C95 0.931 . S
H118 C97 0.934 . S
H119 C98 0.930 . S
H120 C127 0.929 . S
H121 C130 0.930 . S
H122 C132 0.929 . S
H123 C124 0.969 . S
C124 H123 0.969 . S
C124 O125 1.550 . S
C124 H126 0.973 . S
O125 C124 1.550 . S
O125 C131 1.412 . S
H126 C124 0.973 . S
C127 H120 0.929 . S
C127 C128 1.400 . S
C127 C129 1.364 . S
C128 C127 1.400 . S
C128 C132 1.377 . S
C129 C127 1.364 . S
C129 C130 1.374 1_545 S
C130 H121 0.930 . S
C130 C129 1.374 1_565 S
C130 C131 1.383 . S
C131 O125 1.412 . S
C131 C130 1.383 . S
C131 C132 1.394 1_565 S
C132 H122 0.929 . S
C132 C128 1.377 . S
C132 C131 1.394 1_545 S
H133 C140 0.929 . S
H134 C143 0.930 . S
H135 C145 0.929 . S
H136 C137 0.969 . S
C137 H136 0.969 . S
C137 O138 1.550 . S
C137 H139 0.973 . S
O138 C137 1.550 . S
O138 C144 1.412 . S
H139 C137 0.973 . S
C140 H133 0.929 . S
C140 C141 1.400 . S
C140 C142 1.364 . S
C141 C140 1.400 . S
C141 C145 1.377 . S
C142 C140 1.364 . S
C142 C143 1.374 . S
C143 H134 0.930 . S
C143 C142 1.374 . S
C143 C144 1.383 . S
C144 O138 1.412 . S
C144 C143 1.383 . S
C144 C145 1.394 . S
C145 H135 0.929 . S
C145 C141 1.377 . S
C145 C144 1.394 . S
H146 C153 0.929 1_655 S
H147 C156 0.930 . S
H148 C158 0.929 . S
H149 C150 0.969 . S
C150 H149 0.969 . S
C150 O151 1.550 . S
C150 H152 0.973 . S
O151 C150 1.550 . S
O151 C157 1.412 . S
H152 C150 0.973 . S
C153 H146 0.929 1_455 S
C153 C154 1.400 . S
C153 C155 1.364 . S
C154 C153 1.400 . S
C154 C158 1.377 . S
C155 C153 1.364 . S
C155 C156 1.374 . S
C156 H147 0.930 . S
C156 C155 1.374 . S
C156 C157 1.383 . S
C157 O151 1.412 . S
C157 C156 1.383 . S
C157 C158 1.394 . S
C158 H148 0.929 . S
C158 C154 1.377 . S
C158 C157 1.394 . S
H159 C166 0.929 . S
H160 C169 0.930 . S
H161 C171 0.929 . S
H162 C163 0.969 . S
C163 H162 0.969 . S
C163 O164 1.550 . S
C163 H165 0.973 . S
O164 C163 1.550 . S
O164 C170 1.412 . S
H165 C163 0.973 . S
C166 H159 0.929 . S
C166 C167 1.400 . S
C166 C168 1.364 1_655 S
C167 C166 1.400 . S
C167 C171 1.377 1_655 S
C168 C166 1.364 1_455 S
C168 C169 1.374 . S
C169 H160 0.930 . S
C169 C168 1.374 . S
C169 C170 1.383 . S
C170 O164 1.412 . S
C170 C169 1.383 . S
C170 C171 1.394 . S
C171 H161 0.929 . S
C171 C167 1.377 1_455 S
C171 C170 1.394 . S
H172 C179 0.929 . S
H173 C182 0.930 . S
H174 C184 0.929 . S
H175 C176 0.969 . S
C176 H175 0.969 . S
C176 O177 1.550 . S
C176 H178 0.973 . S
O177 C176 1.550 . S
O177 C183 1.412 . S
H178 C176 0.973 . S
C179 H172 0.929 . S
C179 C180 1.400 . S
C179 C181 1.364 1_565 S
C180 C179 1.400 . S
C180 C184 1.377 . S
C181 C179 1.364 1_545 S
C181 C182 1.374 . S
C182 H173 0.930 . S
C182 C181 1.374 . S
C182 C183 1.383 . S
C183 O177 1.412 . S
C183 C182 1.383 . S
C183 C184 1.394 1_545 S
C184 H174 0.929 . S
C184 C180 1.377 . S
C184 C183 1.394 1_565 S
H185 C192 0.929 . S
H186 C195 0.930 . S
H187 C197 0.929 . S
H188 C189 0.969 . S
C189 H188 0.969 . S
C189 O190 1.550 . S
C189 H191 0.973 . S
O190 C189 1.550 . S
O190 C196 1.412 . S
H191 C189 0.973 . S
C192 H185 0.929 . S
C192 C193 1.400 . S
C192 C194 1.364 . S
C193 C192 1.400 . S
C193 C197 1.377 . S
C194 C192 1.364 . S
C194 C195 1.374 . S
C195 H186 0.930 . S
C195 C194 1.374 . S
C195 C196 1.383 . S
C196 O190 1.412 . S
C196 C195 1.383 . S
C196 C197 1.394 . S
C197 H187 0.929 . S
C197 C193 1.377 . S
C197 C196 1.394 . S
C198 C199 1.363 . S
C198 C204 1.379 . S
C198 N206 1.356 . S
C199 C198 1.363 . S
C199 C205 1.363 . S
C200 C201 1.363 . S
C200 C205 1.379 . S
C200 N207 1.356 . S
C201 C200 1.363 . S
C201 C204 1.363 . S
N202 C204 1.356 . S
N202 H214 0.984 . S
N202 H215 0.985 . S
N203 C205 1.356 . S
N203 H208 0.984 . S
N203 H209 0.985 . S
C204 C198 1.379 . S
C204 C201 1.363 . S
C204 N202 1.356 . S
C205 C199 1.363 . S
C205 C200 1.379 . S
C205 N203 1.356 . S
N206 C198 1.356 . S
N206 H212 0.984 . S
N206 H213 0.984 . S
N207 C200 1.356 . S
N207 H210 0.984 . S
N207 H211 0.985 . S
H208 N203 0.984 . S
H209 N203 0.985 . S
H210 N207 0.984 . S
H211 N207 0.985 . S
H212 N206 0.984 . S
H213 N206 0.984 . S
H214 N202 0.984 . S
H215 N202 0.985 . S
C216 C217 1.363 . S
C216 C222 1.379 . S
C216 N224 1.356 . S
C217 C216 1.363 . S
C217 C223 1.363 . S
C218 C219 1.363 . S
C218 C223 1.379 . S
C218 N225 1.356 . S
C219 C218 1.363 . S
C219 C222 1.363 . S
N220 C222 1.356 . S
N220 H232 0.984 . S
N220 H233 0.985 . S
N221 C223 1.356 . S
N221 H226 0.984 . S
N221 H227 0.985 . S
C222 C216 1.379 . S
C222 C219 1.363 . S
C222 N220 1.356 . S
C223 C217 1.363 . S
C223 C218 1.379 . S
C223 N221 1.356 . S
N224 C216 1.356 . S
N224 H230 0.984 . S
N224 H231 0.984 . S
N225 C218 1.356 . S
N225 H228 0.984 . S
N225 H229 0.985 . S
H226 N221 0.984 . S
H227 N221 0.985 . S
H228 N225 0.984 . S
H229 N225 0.985 . S
H230 N224 0.984 . S
H231 N224 0.984 . S
H232 N220 0.984 . S
H233 N220 0.985 . S
C234 C235 1.363 . S
C234 C240 1.379 . S
C234 N242 1.356 . S
C235 C234 1.363 . S
C235 C241 1.363 . S
C236 C237 1.363 . S
C236 C241 1.379 . S
C236 N243 1.356 . S
C237 C236 1.363 . S
C237 C240 1.363 . S
N238 C240 1.356 . S
N238 H250 0.984 . S
N238 H251 0.985 . S
N239 C241 1.356 . S
N239 H244 0.984 . S
N239 H245 0.985 . S
C240 C234 1.379 . S
C240 C237 1.363 . S
C240 N238 1.356 . S
C241 C235 1.363 . S
C241 C236 1.379 . S
C241 N239 1.356 . S
N242 C234 1.356 . S
N242 H248 0.984 . S
N242 H249 0.984 . S
N243 C236 1.356 . S
N243 H246 0.984 . S
N243 H247 0.985 . S
H244 N239 0.984 . S
H245 N239 0.985 . S
H246 N243 0.984 . S
H247 N243 0.985 . S
H248 N242 0.984 . S
H249 N242 0.984 . S
H250 N238 0.984 . S
H251 N238 0.985 . S
C252 C253 1.363 . S
C252 C258 1.379 . S
C252 N260 1.356 . S
C253 C252 1.363 . S
C253 C259 1.363 . S
C254 C255 1.363 . S
C254 C259 1.379 . S
C254 N261 1.356 . S
C255 C254 1.363 . S
C255 C258 1.363 . S
N256 C258 1.356 . S
N256 H268 0.984 . S
N256 H269 0.985 . S
N257 C259 1.356 . S
N257 H262 0.984 . S
N257 H263 0.985 . S
C258 C252 1.379 . S
C258 C255 1.363 . S
C258 N256 1.356 . S
C259 C253 1.363 . S
C259 C254 1.379 . S
C259 N257 1.356 . S
N260 C252 1.356 . S
N260 H266 0.984 . S
N260 H267 0.984 . S
N261 C254 1.356 . S
N261 H264 0.984 . S
N261 H265 0.985 . S
H262 N257 0.984 . S
H263 N257 0.985 . S
H264 N261 0.984 . S
H265 N261 0.985 . S
H266 N260 0.984 . S
H267 N260 0.984 . S
H268 N256 0.984 . S
H269 N256 0.985 . S
C270 C271 1.363 . S
C270 C276 1.379 . S
C270 N278 1.356 . S
C271 C270 1.363 . S
C271 C277 1.363 . S
C272 C273 1.363 . S
C272 C277 1.379 . S
C272 N279 1.356 . S
C273 C272 1.363 . S
C273 C276 1.363 . S
N274 C276 1.356 . S
N274 H286 0.984 . S
N274 H287 0.985 . S
N275 C277 1.356 . S
N275 H280 0.984 . S
N275 H281 0.985 . S
C276 C270 1.379 . S
C276 C273 1.363 . S
C276 N274 1.356 . S
C277 C271 1.363 . S
C277 C272 1.379 . S
C277 N275 1.356 . S
N278 C270 1.356 . S
N278 H284 0.984 . S
N278 H285 0.984 . S
N279 C272 1.356 . S
N279 H282 0.984 . S
N279 H283 0.985 . S
H280 N275 0.984 . S
H281 N275 0.985 . S
H282 N279 0.984 . S
H283 N279 0.985 . S
H284 N278 0.984 . S
H285 N278 0.984 . S
H286 N274 0.984 . S
H287 N274 0.985 . S
C288 C289 1.363 . S
C288 C294 1.379 . S
C288 N296 1.356 . S
C289 C288 1.363 . S
C289 C295 1.363 . S
C290 C291 1.363 . S
C290 C295 1.379 . S
C290 N297 1.356 . S
C291 C290 1.363 . S
C291 C294 1.363 . S
N292 C294 1.356 . S
N292 H304 0.984 . S
N292 H305 0.985 . S
N293 C295 1.356 . S
N293 H298 0.984 . S
N293 H299 0.985 . S
C294 C288 1.379 . S
C294 C291 1.363 . S
C294 N292 1.356 . S
C295 C289 1.363 . S
C295 C290 1.379 . S
C295 N293 1.356 . S
N296 C288 1.356 . S
N296 H302 0.984 . S
N296 H303 0.984 . S
N297 C290 1.356 . S
N297 H300 0.984 . S
N297 H301 0.985 . S
H298 N293 0.984 . S
H299 N293 0.985 . S
H300 N297 0.984 . S
H301 N297 0.985 . S
H302 N296 0.984 . S
H303 N296 0.984 . S
H304 N292 0.984 . S
H305 N292 0.985 . S
C306 C307 1.363 . S
C306 C312 1.379 . S
C306 N314 1.356 . S
C307 C306 1.363 . S
C307 C313 1.363 . S
C308 C309 1.363 . S
C308 C313 1.379 . S
C308 N315 1.356 . S
C309 C308 1.363 . S
C309 C312 1.363 . S
N310 C312 1.356 . S
N310 H322 0.984 . S
N310 H323 0.985 . S
N311 C313 1.356 . S
N311 H316 0.984 . S
N311 H317 0.985 . S
C312 C306 1.379 . S
C312 C309 1.363 . S
C312 N310 1.356 . S
C313 C307 1.363 . S
C313 C308 1.379 . S
C313 N311 1.356 . S
N314 C306 1.356 . S
N314 H320 0.984 . S
N314 H321 0.984 . S
N315 C308 1.356 . S
N315 H318 0.984 . S
N315 H319 0.985 . S
H316 N311 0.984 . S
H317 N311 0.985 . S
H318 N315 0.984 . S
H319 N315 0.985 . S
H320 N314 0.984 . S
H321 N314 0.984 . S
H322 N310 0.984 . S
H323 N310 0.985 . S
C324 C325 1.363 . S
C324 C330 1.379 . S
C324 N332 1.356 . S
C325 C324 1.363 . S
C325 C331 1.363 . S
C326 C327 1.363 . S
C326 C331 1.379 . S
C326 N333 1.356 . S
C327 C326 1.363 . S
C327 C330 1.363 . S
N328 C330 1.356 . S
N328 H340 0.984 1_655 S
N328 H341 0.985 1_655 S
N329 C331 1.356 . S
N329 H334 0.984 . S
N329 H335 0.985 . S
C330 C324 1.379 . S
C330 C327 1.363 . S
C330 N328 1.356 . S
C331 C325 1.363 . S
C331 C326 1.379 . S
C331 N329 1.356 . S
N332 C324 1.356 . S
N332 H338 0.984 . S
N332 H339 0.984 . S
N333 C326 1.356 . S
N333 H336 0.984 . S
N333 H337 0.985 . S
H334 N329 0.984 . S
H335 N329 0.985 . S
H336 N333 0.984 . S
H337 N333 0.985 . S
H338 N332 0.984 . S
H339 N332 0.984 . S
H340 N328 0.984 1_455 S
H341 N328 0.985 1_455 S
C342 C343 1.363 . S
C342 C348 1.379 . S
C342 N350 1.356 . S
C343 C342 1.363 . S
C343 C349 1.363 . S
C344 C345 1.363 . S
C344 C349 1.379 . S
C344 N351 1.356 . S
C345 C344 1.363 . S
C345 C348 1.363 . S
N346 C348 1.356 . S
N346 H358 0.984 . S
N346 H359 0.985 . S
N347 C349 1.356 . S
N347 H352 0.984 . S
N347 H353 0.985 . S
C348 C342 1.379 . S
C348 C345 1.363 . S
C348 N346 1.356 . S
C349 C343 1.363 . S
C349 C344 1.379 . S
C349 N347 1.356 . S
N350 C342 1.356 . S
N350 H356 0.984 . S
N350 H357 0.984 . S
N351 C344 1.356 . S
N351 H354 0.984 . S
N351 H355 0.985 . S
H352 N347 0.984 . S
H353 N347 0.985 . S
H354 N351 0.984 . S
H355 N351 0.985 . S
H356 N350 0.984 . S
H357 N350 0.984 . S
H358 N346 0.984 . S
H359 N346 0.985 . S
C360 C361 1.363 . S
C360 C366 1.379 . S
C360 N368 1.356 . S
C361 C360 1.363 . S
C361 C367 1.363 . S
C362 C363 1.363 . S
C362 C367 1.379 . S
C362 N369 1.356 . S
C363 C362 1.363 . S
C363 C366 1.363 . S
N364 C366 1.356 . S
N364 H376 0.984 . S
N364 H377 0.985 . S
N365 C367 1.356 . S
N365 H370 0.984 . S
N365 H371 0.985 . S
C366 C360 1.379 . S
C366 C363 1.363 . S
C366 N364 1.356 . S
C367 C361 1.363 . S
C367 C362 1.379 . S
C367 N365 1.356 . S
N368 C360 1.356 . S
N368 H374 0.984 . S
N368 H375 0.984 . S
N369 C362 1.356 . S
N369 H372 0.984 . S
N369 H373 0.985 . S
H370 N365 0.984 . S
H371 N365 0.985 . S
H372 N369 0.984 . S
H373 N369 0.985 . S
H374 N368 0.984 . S
H375 N368 0.984 . S
H376 N364 0.984 . S
H377 N364 0.985 . S
C378 C379 1.363 . S
C378 C384 1.379 . S
C378 N386 1.356 . S
C379 C378 1.363 . S
C379 C385 1.363 . S
C380 C381 1.363 . S
C380 C385 1.379 . S
C380 N387 1.356 . S
C381 C380 1.363 . S
C381 C384 1.363 . S
N382 C384 1.356 . S
N382 H394 0.984 . S
N382 H395 0.985 . S
N383 C385 1.356 . S
N383 H388 0.984 . S
N383 H389 0.985 . S
C384 C378 1.379 . S
C384 C381 1.363 . S
C384 N382 1.356 . S
C385 C379 1.363 . S
C385 C380 1.379 . S
C385 N383 1.356 . S
N386 C378 1.356 . S
N386 H392 0.984 . S
N386 H393 0.984 . S
N387 C380 1.356 . S
N387 H390 0.984 . S
N387 H391 0.985 . S
H388 N383 0.984 . S
H389 N383 0.985 . S
H390 N387 0.984 . S
H391 N387 0.985 . S
H392 N386 0.984 . S
H393 N386 0.984 . S
H394 N382 0.984 . S
H395 N382 0.985 . S
C396 C397 1.363 . S
C396 C402 1.379 . S
C396 N404 1.356 . S
C397 C396 1.363 . S
C397 C403 1.363 . S
C398 C399 1.363 . S
C398 C403 1.379 . S
C398 N405 1.356 . S
C399 C398 1.363 . S
C399 C402 1.363 . S
N400 C402 1.356 . S
N400 H412 0.984 . S
N400 H413 0.985 . S
N401 C403 1.356 . S
N401 H406 0.984 . S
N401 H407 0.985 . S
C402 C396 1.379 . S
C402 C399 1.363 . S
C402 N400 1.356 . S
C403 C397 1.363 . S
C403 C398 1.379 . S
C403 N401 1.356 . S
N404 C396 1.356 . S
N404 H410 0.984 . S
N404 H411 0.984 . S
N405 C398 1.356 . S
N405 H408 0.984 . S
N405 H409 0.985 . S
H406 N401 0.984 . S
H407 N401 0.985 . S
H408 N405 0.984 . S
H409 N405 0.985 . S
H410 N404 0.984 . S
H411 N404 0.984 . S
H412 N400 0.984 . S
H413 N400 0.985 . S
C414 C415 1.363 . S
C414 C420 1.379 . S
C414 N422 1.356 . S
C415 C414 1.363 . S
C415 C421 1.363 1_455 S
C416 C417 1.363 . S
C416 C421 1.379 1_456 S
C416 N423 1.356 1_455 S
C417 C416 1.363 . S
C417 C420 1.363 1_556 S
N418 C420 1.356 1_556 S
N418 H430 0.984 . S
N418 H431 0.985 . S
N419 C421 1.356 . S
N419 H424 0.984 . S
N419 H425 0.985 . S
C420 C414 1.379 . S
C420 C417 1.363 1_554 S
C420 N418 1.356 1_554 S
C421 C415 1.363 1_655 S
C421 C416 1.379 1_654 S
C421 N419 1.356 . S
N422 C414 1.356 . S
N422 H428 0.984 . S
N422 H429 0.984 . S
N423 C416 1.356 1_655 S
N423 H426 0.984 . S
N423 H427 0.985 . S
H424 N419 0.984 . S
H425 N419 0.985 . S
H426 N423 0.984 . S
H427 N423 0.985 . S
H428 N422 0.984 . S
H429 N422 0.984 . S
H430 N418 0.984 . S
H431 N418 0.985 . S
C432 C433 1.363 . S
C432 C438 1.379 . S
C432 N440 1.356 . S
C433 C432 1.363 . S
C433 C439 1.363 1_545 S
C434 C435 1.363 1_565 S
C434 C439 1.379 . S
C434 N441 1.356 . S
C435 C434 1.363 1_545 S
C435 C438 1.363 . S
N436 C438 1.356 . S
N436 H448 0.984 . S
N436 H449 0.985 . S
N437 C439 1.356 . S
N437 H442 0.984 . S
N437 H443 0.985 . S
C438 C432 1.379 . S
C438 C435 1.363 . S
C438 N436 1.356 . S
C439 C433 1.363 1_565 S
C439 C434 1.379 . S
C439 N437 1.356 . S
N440 C432 1.356 . S
N440 H446 0.984 . S
N440 H447 0.984 . S
N441 C434 1.356 . S
N441 H444 0.984 . S
N441 H445 0.985 . S
H442 N437 0.984 . S
H443 N437 0.985 . S
H444 N441 0.984 . S
H445 N441 0.985 . S
H446 N440 0.984 . S
H447 N440 0.984 . S
H448 N436 0.984 . S
H449 N436 0.985 . S
C450 C451 1.363 . S
C450 C456 1.379 . S
C450 N458 1.356 . S
C451 C450 1.363 . S
C451 C457 1.363 . S
C452 C453 1.363 . S
C452 C457 1.379 . S
C452 N459 1.356 . S
C453 C452 1.363 . S
C453 C456 1.363 . S
N454 C456 1.356 . S
N454 H466 0.984 . S
N454 H467 0.985 . S
N455 C457 1.356 . S
N455 H460 0.984 . S
N455 H461 0.985 . S
C456 C450 1.379 . S
C456 C453 1.363 . S
C456 N454 1.356 . S
C457 C451 1.363 . S
C457 C452 1.379 . S
C457 N455 1.356 . S
N458 C450 1.356 . S
N458 H464 0.984 . S
N458 H465 0.984 . S
N459 C452 1.356 . S
N459 H462 0.984 . S
N459 H463 0.985 . S
H460 N455 0.984 . S
H461 N455 0.985 . S
H462 N459 0.984 . S
H463 N459 0.985 . S
H464 N458 0.984 . S
H465 N458 0.984 . S
H466 N454 0.984 . S
H467 N454 0.985 . S
C468 C469 1.363 1_565 S
C468 C474 1.379 . S
C468 N476 1.356 . S
C469 C468 1.363 1_545 S
C469 C475 1.363 . S
C470 C471 1.363 . S
C470 C475 1.379 . S
C470 N477 1.356 . S
C471 C470 1.363 . S
C471 C474 1.363 1_545 S
N472 C474 1.356 . S
N472 H484 0.984 . S
N472 H485 0.985 . S
N473 C475 1.356 . S
N473 H478 0.984 . S
N473 H479 0.985 . S
C474 C468 1.379 . S
C474 C471 1.363 1_565 S
C474 N472 1.356 . S
C475 C469 1.363 . S
C475 C470 1.379 . S
C475 N473 1.356 . S
N476 C468 1.356 . S
N476 H482 0.984 . S
N476 H483 0.984 . S
N477 C470 1.356 . S
N477 H480 0.984 . S
N477 H481 0.985 . S
H478 N473 0.984 . S
H479 N473 0.985 . S
H480 N477 0.984 . S
H481 N477 0.985 . S
H482 N476 0.984 . S
H483 N476 0.984 . S
H484 N472 0.984 . S
H485 N472 0.985 . S
C486 C487 1.363 . S
C486 C492 1.379 . S
C486 N494 1.356 . S
C487 C486 1.363 . S
C487 C493 1.363 . S
C488 C489 1.363 . S
C488 C493 1.379 1_554 S
C488 N495 1.356 . S
C489 C488 1.363 . S
C489 C492 1.363 1_554 S
N490 C492 1.356 . S
N490 H502 0.984 . S
N490 H503 0.985 1_556 S
N491 C493 1.356 . S
N491 H496 0.984 . S
N491 H497 0.985 . S
C492 C486 1.379 . S
C492 C489 1.363 1_556 S
C492 N490 1.356 . S
C493 C487 1.363 . S
C493 C488 1.379 1_556 S
C493 N491 1.356 . S
N494 C486 1.356 . S
N494 H500 0.984 . S
N494 H501 0.984 . S
N495 C488 1.356 . S
N495 H498 0.984 . S
N495 H499 0.985 . S
H496 N491 0.984 . S
H497 N491 0.985 . S
H498 N495 0.984 . S
H499 N495 0.985 . S
H500 N494 0.984 . S
H501 N494 0.984 . S
H502 N490 0.984 . S
H503 N490 0.985 1_554 S
C504 C505 1.363 1_455 S
C504 C510 1.379 . S
C504 N512 1.356 . S
C505 C504 1.363 1_655 S
C505 C511 1.363 . S
C506 C507 1.363 1_655 S
C506 C511 1.379 . S
C506 N513 1.356 . S
C507 C506 1.363 1_455 S
C507 C510 1.363 . S
N508 C510 1.356 . S
N508 H520 0.984 . S
N508 H521 0.985 . S
N509 C511 1.356 . S
N509 H514 0.984 . S
N509 H515 0.985 . S
C510 C504 1.379 . S
C510 C507 1.363 . S
C510 N508 1.356 . S
C511 C505 1.363 . S
C511 C506 1.379 . S
C511 N509 1.356 . S
N512 C504 1.356 . S
N512 H518 0.984 . S
N512 H519 0.984 . S
N513 C506 1.356 . S
N513 H516 0.984 . S
N513 H517 0.985 . S
H514 N509 0.984 . S
H515 N509 0.985 . S
H516 N513 0.984 . S
H517 N513 0.985 . S
H518 N512 0.984 . S
H519 N512 0.984 . S
H520 N508 0.984 . S
H521 N508 0.985 . S
C199 C7 0.984 . S
C201 C189 1.103 . S
C217 C51 1.881 . S
C219 C167 1.849 . S
C235 C87 1.355 . S
C237 C180 1.392 . S
C253 C16 0.741 . S
C255 C193 0.731 . S
C273 C163 1.864 . S
C271 C42 2.044 . S
C291 C176 1.365 . S
C289 C96 1.377 . S
C307 C47 1.162 . S
C309 C141 1.174 . S
C325 C91 3.092 . S
C327 C154 3.052 1_655 S
C343 C2 2.064 . S
C345 C124 1.905 . S
C363 C137 1.441 . S
C361 C56 1.410 . S
C381 C150 2.914 . S
C379 C82 3.103 . S
C397 C11 1.895 . S
C399 C128 1.889 . S
C417 C155 1.780 . S
C415 C19 1.737 . S
C433 C50 1.449 . S
C435 C129 1.474 . S
C451 C99 1.501 . S
C453 C142 1.604 . S
C471 C181 1.534 . S
C469 C59 1.463 . S
C489 C194 1.270 . S
C487 C90 1.282 . S
C505 C10 1.403 1_655 S
C507 C168 1.454 . S
