# Generated by pormake.
# Topology ctn, (3,4)-cn, num edge types: 1
# Building blocks:
#     Node 0, Type 0, BuildingBlock: ESEHIV_clean_linker_0, # of connection points: 3
#     Node 1, Type 0, BuildingBlock: ESEHIV_clean_linker_0, # of connection points: 3
#     Node 2, Type 0, BuildingBlock: ESEHIV_clean_linker_0, # of connection points: 3
#     Node 3, Type 0, BuildingBlock: ESEHIV_clean_linker_0, # of connection points: 3
#     Node 4, Type 0, BuildingBlock: ESEHIV_clean_linker_0, # of connection points: 3
#     Node 5, Type 0, BuildingBlock: ESEHIV_clean_linker_0, # of connection points: 3
#     Node 6, Type 0, BuildingBlock: ESEHIV_clean_linker_0, # of connection points: 3
#     Node 7, Type 0, BuildingBlock: ESEHIV_clean_linker_0, # of connection points: 3
#     Node 8, Type 0, BuildingBlock: ESEHIV_clean_linker_0, # of connection points: 3
#     Node 9, Type 0, BuildingBlock: ESEHIV_clean_linker_0, # of connection points: 3
#     Node 10, Type 0, BuildingBlock: ESEHIV_clean_linker_0, # of connection points: 3
#     Node 11, Type 0, BuildingBlock: ESEHIV_clean_linker_0, # of connection points: 3
#     Node 12, Type 0, BuildingBlock: ESEHIV_clean_linker_0, # of connection points: 3
#     Node 13, Type 0, BuildingBlock: ESEHIV_clean_linker_0, # of connection points: 3
#     Node 14, Type 0, BuildingBlock: ESEHIV_clean_linker_0, # of connection points: 3
#     Node 15, Type 0, BuildingBlock: ESEHIV_clean_linker_0, # of connection points: 3
#     Node 16, Type 1, BuildingBlock: KUFVIS_clean_sbu_0, # of connection points: 4
#     Node 17, Type 1, BuildingBlock: KUFVIS_clean_sbu_0, # of connection points: 4
#     Node 18, Type 1, BuildingBlock: KUFVIS_clean_sbu_0, # of connection points: 4
#     Node 19, Type 1, BuildingBlock: KUFVIS_clean_sbu_0, # of connection points: 4
#     Node 20, Type 1, BuildingBlock: KUFVIS_clean_sbu_0, # of connection points: 4
#     Node 21, Type 1, BuildingBlock: KUFVIS_clean_sbu_0, # of connection points: 4
#     Node 22, Type 1, BuildingBlock: KUFVIS_clean_sbu_0, # of connection points: 4
#     Node 23, Type 1, BuildingBlock: KUFVIS_clean_sbu_0, # of connection points: 4
#     Node 24, Type 1, BuildingBlock: KUFVIS_clean_sbu_0, # of connection points: 4
#     Node 25, Type 1, BuildingBlock: KUFVIS_clean_sbu_0, # of connection points: 4
#     Node 26, Type 1, BuildingBlock: KUFVIS_clean_sbu_0, # of connection points: 4
#     Node 27, Type 1, BuildingBlock: KUFVIS_clean_sbu_0, # of connection points: 4
#     Edge 28, Type (0, 1), BuildingBlock: AJUNOK_clean_linker_0, # of connection points: 2
#     Edge 29, Type (0, 1), BuildingBlock: AJUNOK_clean_linker_0, # of connection points: 2
#     Edge 30, Type (0, 1), BuildingBlock: AJUNOK_clean_linker_0, # of connection points: 2
#     Edge 31, Type (0, 1), BuildingBlock: AJUNOK_clean_linker_0, # of connection points: 2
#     Edge 32, Type (0, 1), BuildingBlock: AJUNOK_clean_linker_0, # of connection points: 2
#     Edge 33, Type (0, 1), BuildingBlock: AJUNOK_clean_linker_0, # of connection points: 2
#     Edge 34, Type (0, 1), BuildingBlock: AJUNOK_clean_linker_0, # of connection points: 2
#     Edge 35, Type (0, 1), BuildingBlock: AJUNOK_clean_linker_0, # of connection points: 2
#     Edge 36, Type (0, 1), BuildingBlock: AJUNOK_clean_linker_0, # of connection points: 2
#     Edge 37, Type (0, 1), BuildingBlock: AJUNOK_clean_linker_0, # of connection points: 2
#     Edge 38, Type (0, 1), BuildingBlock: AJUNOK_clean_linker_0, # of connection points: 2
#     Edge 39, Type (0, 1), BuildingBlock: AJUNOK_clean_linker_0, # of connection points: 2
#     Edge 40, Type (0, 1), BuildingBlock: AJUNOK_clean_linker_0, # of connection points: 2
#     Edge 41, Type (0, 1), BuildingBlock: AJUNOK_clean_linker_0, # of connection points: 2
#     Edge 42, Type (0, 1), BuildingBlock: AJUNOK_clean_linker_0, # of connection points: 2
#     Edge 43, Type (0, 1), BuildingBlock: AJUNOK_clean_linker_0, # of connection points: 2
#     Edge 44, Type (0, 1), BuildingBlock: AJUNOK_clean_linker_0, # of connection points: 2
#     Edge 45, Type (0, 1), BuildingBlock: AJUNOK_clean_linker_0, # of connection points: 2
#     Edge 46, Type (0, 1), BuildingBlock: AJUNOK_clean_linker_0, # of connection points: 2
#     Edge 47, Type (0, 1), BuildingBlock: AJUNOK_clean_linker_0, # of connection points: 2
#     Edge 48, Type (0, 1), BuildingBlock: AJUNOK_clean_linker_0, # of connection points: 2
#     Edge 49, Type (0, 1), BuildingBlock: AJUNOK_clean_linker_0, # of connection points: 2
#     Edge 50, Type (0, 1), BuildingBlock: AJUNOK_clean_linker_0, # of connection points: 2
#     Edge 51, Type (0, 1), BuildingBlock: AJUNOK_clean_linker_0, # of connection points: 2
#     Edge 52, Type (0, 1), BuildingBlock: AJUNOK_clean_linker_0, # of connection points: 2
#     Edge 53, Type (0, 1), BuildingBlock: AJUNOK_clean_linker_0, # of connection points: 2
#     Edge 54, Type (0, 1), BuildingBlock: AJUNOK_clean_linker_0, # of connection points: 2
#     Edge 55, Type (0, 1), BuildingBlock: AJUNOK_clean_linker_0, # of connection points: 2
#     Edge 56, Type (0, 1), BuildingBlock: AJUNOK_clean_linker_0, # of connection points: 2
#     Edge 57, Type (0, 1), BuildingBlock: AJUNOK_clean_linker_0, # of connection points: 2
#     Edge 58, Type (0, 1), BuildingBlock: AJUNOK_clean_linker_0, # of connection points: 2
#     Edge 59, Type (0, 1), BuildingBlock: AJUNOK_clean_linker_0, # of connection points: 2
#     Edge 60, Type (0, 1), BuildingBlock: AJUNOK_clean_linker_0, # of connection points: 2
#     Edge 61, Type (0, 1), BuildingBlock: AJUNOK_clean_linker_0, # of connection points: 2
#     Edge 62, Type (0, 1), BuildingBlock: AJUNOK_clean_linker_0, # of connection points: 2
#     Edge 63, Type (0, 1), BuildingBlock: AJUNOK_clean_linker_0, # of connection points: 2
#     Edge 64, Type (0, 1), BuildingBlock: AJUNOK_clean_linker_0, # of connection points: 2
#     Edge 65, Type (0, 1), BuildingBlock: AJUNOK_clean_linker_0, # of connection points: 2
#     Edge 66, Type (0, 1), BuildingBlock: AJUNOK_clean_linker_0, # of connection points: 2
#     Edge 67, Type (0, 1), BuildingBlock: AJUNOK_clean_linker_0, # of connection points: 2
#     Edge 68, Type (0, 1), BuildingBlock: AJUNOK_clean_linker_0, # of connection points: 2
#     Edge 69, Type (0, 1), BuildingBlock: AJUNOK_clean_linker_0, # of connection points: 2
#     Edge 70, Type (0, 1), BuildingBlock: AJUNOK_clean_linker_0, # of connection points: 2
#     Edge 71, Type (0, 1), BuildingBlock: AJUNOK_clean_linker_0, # of connection points: 2
#     Edge 72, Type (0, 1), BuildingBlock: AJUNOK_clean_linker_0, # of connection points: 2
#     Edge 73, Type (0, 1), BuildingBlock: AJUNOK_clean_linker_0, # of connection points: 2
#     Edge 74, Type (0, 1), BuildingBlock: AJUNOK_clean_linker_0, # of connection points: 2
#     Edge 75, Type (0, 1), BuildingBlock: AJUNOK_clean_linker_0, # of connection points: 2
# Relax obj value: 0.012
# Max RMSD: 0.062
# Mean RMSD: 0.031
data_MOF--net-ctn--node1-KUFVIS_clean_sbu_0--node2-ESEHIV_clean_linker_0--edge1-AJUNOK_clean_linker_0
_symmetry_space_group_name_H-M    P1
_symmetry_Int_Tables_number       1
_symmetry_cell_setting            triclinic
loop_
_symmetry_equiv_pos_as_xyz
'x, y, z'
_cell_length_a     35.860626
_cell_length_b     35.799858
_cell_length_c     35.871599
_cell_angle_alpha  91.128373
_cell_angle_beta   90.480457
_cell_angle_gamma 91.399474
loop_
_atom_site_label
_atom_site_type_symbol
_atom_site_fract_x
_atom_site_fract_y
_atom_site_fract_z
_atom_type_partial_charge
H0 H 0.99813 0.08765 0.07506 0.0
H1 H 0.08018 1.00677 0.10137 0.0
H2 H 0.09355 0.07383 1.00431 0.0
C3 C 0.02446 0.0747 0.06909 0.0
C4 C 0.04554 0.08623 0.03816 0.0
C5 C 0.0364 0.0456 0.09172 0.0
C6 C 0.06976 0.02783 0.08296 0.0
C7 C 0.0895 0.03632 0.05043 0.0
C8 C 0.07778 0.06631 0.02877 0.0
H9 H 0.34354 0.66044 0.25805 0.0
H10 H 0.37969 0.7607 0.20361 0.0
H11 H 0.27803 0.70427 0.1685 0.0
C12 C 0.33944 0.68105 0.23687 0.0
C13 C 0.3075 0.67845 0.21372 0.0
C14 C 0.3654 0.71088 0.23395 0.0
C15 C 0.35988 0.73758 0.20639 0.0
C16 C 0.32877 0.73499 0.18251 0.0
C17 C 0.30274 0.70538 0.18614 0.0
H18 H 0.9655 0.54042 0.08912 0.0
H19 H 0.03343 0.44453 0.0702 0.0
H20 H 0.94771 0.47008 0.99134 0.0
C21 C 0.97303 0.51666 0.07183 0.0
C22 C 0.95272 0.50837 0.03875 0.0
C23 C 1.00241 0.49412 0.08346 0.0
C24 C 1.01082 0.4622 0.06195 0.0
C25 C 0.99073 0.45324 0.02915 0.0
C26 C 0.96241 0.4768 0.0172 0.0
H27 H 0.66728 0.77348 0.20822 0.0
H28 H 0.7604 0.83686 0.16594 0.0
H29 H 0.7027 0.87581 0.26378 0.0
C30 C 0.68573 0.79793 0.20991 0.0
C31 C 0.68176 0.82429 0.23897 0.0
C32 C 0.71334 0.80314 0.18294 0.0
C33 C 0.73791 0.83418 0.18577 0.0
C34 C 0.73448 0.86059 0.21501 0.0
C35 C 0.70573 0.85574 0.24104 0.0
H36 H 0.99697 0.9392 0.47739 0.0
H37 H 0.07788 0.02154 0.44454 0.0
H38 H 0.09645 0.95958 0.54392 0.0
C39 C 0.02322 0.95405 0.48263 0.0
C40 C 0.04561 0.94515 0.51351 0.0
C41 C 0.03511 0.98139 0.45761 0.0
C42 C 0.06867 1.00119 0.46444 0.0
C43 C 0.08987 0.99526 0.49684 0.0
C44 C 0.07868 0.96636 0.52057 0.0
H45 H 0.1662 0.75561 0.84656 0.0
H46 H 0.25898 0.6939 0.88878 0.0
H47 H 0.20558 0.66011 0.78569 0.0
C48 C 0.18504 0.73244 0.84459 0.0
C49 C 0.18152 0.70722 0.81426 0.0
C50 C 0.21375 0.72884 0.87118 0.0
C51 C 0.23764 0.6983 0.86789 0.0
C52 C 0.23544 0.67416 0.83671 0.0
C53 C 0.2074 0.67878 0.80986 0.0
H54 H 0.94456 0.56525 0.53535 0.0
H55 H 0.04488 0.59233 0.4753 0.0
H56 H 0.96958 0.5053 0.43426 0.0
C57 C 0.96346 0.55985 0.51265 0.0
C58 C 0.95379 0.53215 0.48597 0.0
C59 C 0.99615 0.58196 0.50902 0.0
C60 C 0.02004 0.57494 0.47886 0.0
C61 C 1.01048 0.54734 0.45173 0.0
C62 C 0.97734 0.52614 0.45546 0.0
H63 H 0.78056 0.84778 0.87682 0.0
H64 H 0.84748 0.8787 0.78318 0.0
H65 H 0.87274 0.78023 0.84491 0.0
C66 C 0.80499 0.84352 0.85976 0.0
C67 C 0.82654 0.81178 0.86496 0.0
C68 C 0.81213 0.86743 0.83014 0.0
C69 C 0.84259 0.86075 0.80671 0.0
C70 C 0.86565 0.83006 0.81262 0.0
C71 C 0.85728 0.80567 0.84193 0.0
H72 H 0.27696 0.34041 0.37414 0.0
H73 H 0.34471 0.3794 0.28396 0.0
H74 H 0.37324 0.27936 0.34174 0.0
C75 C 0.30177 0.33808 0.35723 0.0
C76 C 0.32503 0.30757 0.36187 0.0
C77 C 0.30842 0.36386 0.32904 0.0
C78 C 0.34003 0.36012 0.30647 0.0
C79 C 0.36424 0.33011 0.31138 0.0
C80 C 0.35653 0.30406 0.3394 0.0
H81 H 0.47401 0.04692 0.58556 0.0
H82 H 0.53295 0.9442 0.57335 0.0
H83 H 0.44676 0.9698 0.49505 0.0
C84 C 0.47911 0.02131 0.57011 0.0
C85 C 0.45682 1.01165 0.5386 0.0
C86 C 0.50759 0.9979 0.58233 0.0
C87 C 0.51263 0.96364 0.56335 0.0
C88 C 0.49105 0.95375 0.53179 0.0
C89 C 0.46346 0.97783 0.51937 0.0
H90 H 0.16482 0.27554 0.70086 0.0
H91 H 0.26196 0.33783 0.66547 0.0
H92 H 0.19814 0.37647 0.75938 0.0
C93 C 0.18345 0.29978 0.70358 0.0
C94 C 0.17862 0.32543 0.73304 0.0
C95 C 0.21295 0.30454 0.67847 0.0
C96 C 0.23841 0.33475 0.68397 0.0
C97 C 0.23402 0.36049 0.71373 0.0
C98 C 0.20285 0.35644 0.73699 0.0
H99 H 0.83988 0.16644 0.75791 0.0
H100 H 0.88012 0.26431 0.70178 0.0
H101 H 0.77925 0.20782 0.66402 0.0
C102 C 0.83744 0.18612 0.73552 0.0
C103 C 0.80703 0.18271 0.71066 0.0
C104 C 0.86405 0.21525 0.73258 0.0
C105 C 0.85984 0.24157 0.70437 0.0
C106 C 0.82967 0.23865 0.67925 0.0
C107 C 0.80331 0.20919 0.68252 0.0
H108 H 0.5005 0.59099 0.5792 0.0
H109 H 0.57609 0.50238 0.59922 0.0
H110 H 0.58607 0.56675 0.49954 0.0
C111 C 0.52399 0.57463 0.57048 0.0
C112 C 0.54231 0.58305 0.53701 0.0
C113 C 0.53548 0.54497 0.5926 0.0
C114 C 0.56629 0.52422 0.58138 0.0
C115 C 0.58461 0.5315 0.54769 0.0
C116 C 0.57252 0.56118 0.52582 0.0
H117 H 0.49802 0.44061 0.97893 0.0
H118 H 0.57816 0.52334 0.94465 0.0
H119 H 0.59681 0.4643 0.04565 0.0
C120 C 0.52379 0.45637 0.98411 0.0
C121 C 0.54562 0.44923 0.01592 0.0
C122 C 0.53573 0.48292 0.95819 0.0
C123 C 0.56916 0.50307 0.96473 0.0
C124 C 0.59068 0.49753 0.99692 0.0
C125 C 0.57901 0.47014 0.02204 0.0
H126 H 0.6621 0.25138 0.34536 0.0
H127 H 0.76094 0.19736 0.38405 0.0
H128 H 0.70385 0.15658 0.28505 0.0
C129 C 0.68196 0.22912 0.34311 0.0
C130 C 0.67906 0.20368 0.31296 0.0
C131 C 0.71145 0.22719 0.36899 0.0
C132 C 0.73804 0.19927 0.36431 0.0
C133 C 0.73541 0.17372 0.33426 0.0
C134 C 0.7058 0.17599 0.30862 0.0
H135 H 0.44785 0.06536 0.03755 0.0
H136 H 0.54468 0.09416 0.97364 0.0
H137 H 0.47367 1.00068 0.9395 0.0
C138 C 0.46634 0.05965 0.01464 0.0
C139 C 0.45753 0.0299 0.98991 0.0
C140 C 0.49819 0.08244 1.0097 0.0
C141 C 0.52103 0.07558 0.97881 0.0
C142 C 0.51248 0.0461 0.95333 0.0
C143 C 0.48108 0.02276 0.95952 0.0
Mn144 Mn 0.26791 0.88309 0.02781 0.0
Mn145 Mn 0.26045 0.91726 0.94098 0.0
C146 C 0.2374 0.84872 0.9812 0.0
C147 C 0.29651 0.84768 0.07335 0.0
C148 C 0.21465 0.94487 1.00583 0.0
O149 O 0.30997 0.92268 0.0268 0.0
O150 O 0.30292 0.94295 0.96773 0.0
C151 C 0.33116 0.89221 0.90775 0.0
N152 N 0.29316 0.89149 0.908 0.0
C153 C 0.29031 0.85162 0.85316 0.0
C154 C 0.3294 0.85211 0.85223 0.0
C155 C 0.3499 0.87247 0.87967 0.0
C156 C 0.27317 0.87223 0.88154 0.0
H157 H 0.34709 0.90783 0.92872 0.0
C158 C 0.31969 0.94313 0.99947 0.0
O159 O 0.27443 0.87459 0.08209 0.0
O160 O 0.30382 0.84285 0.03823 0.0
N161 N 0.22079 0.89336 0.91263 0.0
C162 C 0.18327 0.89534 0.91775 0.0
C163 C 0.15882 0.87567 0.8932 0.0
C164 C 0.17316 0.85425 0.86364 0.0
C165 C 0.21186 0.85276 0.85883 0.0
C166 C 0.23487 0.87307 0.88409 0.0
H167 H 0.17209 0.91155 0.94057 0.0
O168 O 0.22918 0.84331 0.01588 0.0
O169 O 0.26197 0.87506 0.97503 0.0
O170 O 0.228 0.92294 0.02976 0.0
O171 O 0.22498 0.94558 0.97194 0.0
C172 C 0.22851 0.83156 0.83026 0.0
C173 C 0.2677 0.8311 0.82734 0.0
H174 H 0.34396 0.83665 0.83081 0.0
H175 H 0.38008 0.87284 0.87923 0.0
H176 H 0.12899 0.87686 0.89717 0.0
H177 H 0.15422 0.83887 0.84495 0.0
H178 H 0.21143 0.81538 0.81046 0.0
H179 H 0.28018 0.81462 0.80531 0.0
Mn180 Mn 0.15899 0.51766 0.26558 0.0
Mn181 Mn 0.12326 0.60382 0.26075 0.0
C182 C 0.19106 0.56512 0.23591 0.0
C183 C 0.19649 0.47274 0.29239 0.0
C184 C 0.09577 0.53888 0.21199 0.0
O185 O 0.12143 0.5175 0.30808 0.0
O186 O 0.09762 0.57484 0.30046 0.0
C187 C 0.14748 0.63442 0.33468 0.0
N188 N 0.14799 0.63612 0.29677 0.0
C189 C 0.18629 0.69232 0.29942 0.0
C190 C 0.18594 0.69127 0.33847 0.0
C191 C 0.16651 0.66214 0.35615 0.0
C192 C 0.16648 0.66414 0.27948 0.0
H193 H 0.13261 0.61215 0.34849 0.0
C194 C 0.09925 0.54355 0.31722 0.0
O195 O 0.16876 0.46351 0.27035 0.0
O196 O 0.20119 0.50804 0.30054 0.0
N197 N 0.14657 0.63469 0.22415 0.0
C198 C 0.14473 0.63137 0.18627 0.0
C199 C 0.16352 0.65782 0.16441 0.0
C200 C 0.18401 0.68739 0.18169 0.0
C201 C 0.18537 0.69034 0.2207 0.0
C202 C 0.16585 0.66331 0.24105 0.0
H203 H 0.12944 0.60846 0.17284 0.0
O204 O 0.19654 0.5305 0.22652 0.0
O205 O 0.16601 0.57076 0.2612 0.0
O206 O 0.11676 0.51482 0.22657 0.0
O207 O 0.09649 0.5733 0.22201 0.0
C208 C 0.20573 0.71878 0.24019 0.0
C209 C 0.20611 0.71983 0.27952 0.0
H210 H 0.20087 0.71241 0.35513 0.0
H211 H 0.16629 0.66101 0.38627 0.0
H212 H 0.16246 0.65525 0.13431 0.0
H213 H 0.19878 0.70752 0.16473 0.0
H214 H 0.22136 0.73987 0.2252 0.0
H215 H 0.22202 0.74171 0.2942 0.0
Mn216 Mn 0.77073 0.63659 0.01954 0.0
Mn217 Mn 0.68883 0.66875 0.98751 0.0
C218 C 0.71592 0.60061 0.02371 0.0
C219 C 0.82622 0.60405 1.01329 0.0
C220 C 0.72578 0.69689 0.0593 0.0
O221 O 0.78748 0.67864 0.9845 0.0
O222 O 0.73093 0.69433 0.96281 0.0
C223 C 0.69228 0.64004 0.90961 0.0
N224 N 0.674 0.64265 0.94263 0.0
C225 C 0.62011 0.60981 0.91695 0.0
C226 C 0.638 0.60749 0.88239 0.0
C227 C 0.67442 0.6223 0.87884 0.0
C228 C 0.63953 0.6273 0.94672 0.0
H229 H 0.72029 0.65129 0.90686 0.0
C230 C 0.76654 0.69747 0.96304 0.0
O231 O 0.82243 0.63011 0.03845 0.0
O232 O 0.7984 0.59803 0.99033 0.0
N233 N 0.64545 0.64605 1.00899 0.0
C234 C 0.63276 0.6493 0.04458 0.0
C235 C 0.59752 0.6341 0.0534 0.0
C236 C 0.57536 0.61656 0.02538 0.0
C237 C 0.58877 0.61414 0.98883 0.0
C238 C 0.62436 0.62917 0.98186 0.0
H239 H 0.64938 0.66342 0.06605 0.0
O240 O 0.74379 0.59482 0.04602 0.0
O241 O 0.72081 0.62728 1.00029 0.0
O242 O 0.75321 0.67503 0.05807 0.0
O243 O 0.70066 0.69744 0.03394 0.0
C244 C 0.56811 0.59769 0.95897 0.0
C245 C 0.58381 0.59542 0.92305 0.0
H246 H 0.62421 0.59401 0.85855 0.0
H247 H 0.68862 0.62018 0.85241 0.0
H248 H 0.58731 0.63624 0.08165 0.0
H249 H 0.54808 0.60513 0.03221 0.0
H250 H 0.54034 0.58612 0.96341 0.0
H251 H 0.56792 0.58204 0.90048 0.0
Mn252 Mn 0.885 0.01991 0.27383 0.0
Mn253 Mn 0.91784 0.93282 0.26412 0.0
C254 C 0.85051 0.97374 0.24242 0.0
C255 C 0.84877 0.06449 0.30365 0.0
C256 C 0.9454 0.99761 0.2178 0.0
O257 O 0.92438 0.0188 0.31527 0.0
O258 O 0.94515 0.96036 0.3052 0.0
C259 C 0.89278 0.90288 0.33638 0.0
N260 N 0.89285 0.90074 0.29842 0.0
C261 C 0.85285 0.84574 0.29817 0.0
C262 C 0.85259 0.84723 0.33725 0.0
C263 C 0.8726 0.87595 0.35642 0.0
C264 C 0.87375 0.87314 0.27969 0.0
H265 H 0.90792 0.92501 0.35128 0.0
C266 C 0.94557 0.99174 0.32315 0.0
O267 O 0.87593 0.07422 0.28187 0.0
O268 O 0.84473 0.02918 0.31033 0.0
N269 N 0.89303 0.90311 0.22593 0.0
C270 C 0.89342 0.90751 0.18828 0.0
C271 C 0.8737 0.88176 0.16505 0.0
C272 C 0.85358 0.85192 0.18073 0.0
C273 C 0.85337 0.84807 0.21954 0.0
C274 C 0.87397 0.87431 0.24129 0.0
H275 H 0.90802 0.93089 0.17612 0.0
O276 O 0.84555 1.00862 0.2351 0.0
O277 O 0.87627 0.96706 0.26686 0.0
O278 O 0.92548 0.02223 0.23366 0.0
O279 O 0.9445 0.96332 0.22698 0.0
C280 C 0.83272 0.81983 0.23755 0.0
C281 C 0.83245 0.81867 0.27683 0.0
H282 H 0.8368 0.82671 0.35282 0.0
H283 H 0.87236 0.87742 0.38658 0.0
H284 H 0.87361 0.88521 0.13515 0.0
H285 H 0.83792 0.83246 0.16276 0.0
H286 H 0.81638 0.79928 0.22146 0.0
H287 H 0.81597 0.79719 0.29036 0.0
Mn288 Mn 0.2709 0.134 0.51826 0.0
Mn289 Mn 0.18906 0.16539 0.48513 0.0
C290 C 0.21595 0.09814 0.52315 0.0
C291 C 0.3271 0.1025 0.5131 0.0
C292 C 0.22636 0.196 0.55587 0.0
O293 O 0.28768 0.17489 0.48207 0.0
O294 O 0.23125 0.18989 0.45943 0.0
C295 C 0.19248 0.13321 0.40853 0.0
N296 N 0.1739 0.13804 0.44112 0.0
C297 C 0.11926 0.10585 0.41625 0.0
C298 C 0.13741 0.10145 0.38201 0.0
C299 C 0.17437 0.11475 0.37831 0.0
C300 C 0.13896 0.12393 0.44549 0.0
H301 H 0.22093 0.14323 0.40575 0.0
C302 C 0.26689 0.19292 0.45981 0.0
O303 O 0.32253 0.12894 0.53765 0.0
O304 O 0.29929 0.09473 0.49054 0.0
N305 N 0.14551 0.14383 0.50736 0.0
C306 C 0.13313 0.14791 0.54298 0.0
C307 C 0.09762 0.13369 0.55222 0.0
C308 C 0.07492 0.11619 0.52459 0.0
C309 C 0.08804 0.11289 0.488 0.0
C310 C 0.12388 0.12705 0.48059 0.0
H311 H 0.15021 0.1619 0.56415 0.0
O312 O 0.24372 0.093 0.54581 0.0
O313 O 0.22097 0.12414 0.49903 0.0
O314 O 0.25342 0.17372 0.55535 0.0
O315 O 0.20102 0.19555 0.53069 0.0
C316 C 0.06695 0.09626 0.45852 0.0
C317 C 0.08256 0.09273 0.42265 0.0
H318 H 0.12343 0.08744 0.35858 0.0
H319 H 0.18878 0.11094 0.35217 0.0
H320 H 0.08764 0.13646 0.5805 0.0
H321 H 0.04747 0.10543 0.53178 0.0
H322 H 0.03897 0.08539 0.46327 0.0
H323 H 0.06638 0.07908 0.40043 0.0
Mn324 Mn 0.38457 0.51998 0.77529 0.0
Mn325 Mn 0.41915 0.4335 0.76534 0.0
C326 C 0.35059 0.473 0.74449 0.0
C327 C 0.34896 0.56564 0.80425 0.0
C328 C 0.4453 0.49866 0.71926 0.0
O329 O 0.42406 0.51961 0.81663 0.0
O330 O 0.4465 0.46187 0.80582 0.0
C331 C 0.39756 0.40228 0.83816 0.0
N332 N 0.39565 0.40094 0.8002 0.0
C333 C 0.3577 0.34456 0.80078 0.0
C334 C 0.35948 0.34522 0.83985 0.0
C335 C 0.37941 0.37427 0.85861 0.0
C336 C 0.37657 0.37308 0.78188 0.0
H337 H 0.4129 0.42445 0.85276 0.0
C338 C 0.44626 0.49319 0.82383 0.0
O339 O 0.37591 0.5742 0.78185 0.0
O340 O 0.34427 0.53053 0.8119 0.0
N341 N 0.39429 0.4032 0.72768 0.0
C342 C 0.3949 0.40682 0.68994 0.0
C343 C 0.37541 0.38051 0.66713 0.0
C344 C 0.35564 0.35069 0.68331 0.0
C345 C 0.35568 0.34737 0.72219 0.0
C346 C 0.37574 0.37433 0.7435 0.0
H347 H 0.40982 0.42981 0.67736 0.0
O348 O 0.34515 0.50772 0.73683 0.0
O349 O 0.37662 0.46683 0.76884 0.0
O350 O 0.42485 0.52255 0.73532 0.0
O351 O 0.44479 0.46418 0.72763 0.0
C352 C 0.33633 0.31853 0.74064 0.0
C353 C 0.33742 0.31707 0.7799 0.0
H354 H 0.34532 0.32381 0.85574 0.0
H355 H 0.38075 0.37509 0.88876 0.0
H356 H 0.37547 0.38331 0.63715 0.0
H357 H 0.34042 0.33062 0.66564 0.0
H358 H 0.32041 0.2974 0.72494 0.0
H359 H 0.3223 0.29485 0.79376 0.0
Mn360 Mn 0.76697 0.38322 0.52317 0.0
Mn361 Mn 0.75398 0.41363 0.43558 0.0
C362 C 0.73551 0.34617 0.47906 0.0
C363 C 0.79904 0.34955 0.56775 0.0
C364 C 0.7101 0.44161 0.50172 0.0
O365 O 0.8068 0.42519 0.51929 0.0
O366 O 0.79679 0.44103 0.45952 0.0
C367 C 0.82376 0.38763 0.40119 0.0
N368 N 0.78579 0.38752 0.402 0.0
C369 C 0.78148 0.34598 0.34846 0.0
C370 C 0.82054 0.34576 0.34699 0.0
C371 C 0.84175 0.36666 0.37349 0.0
C372 C 0.7651 0.36762 0.37654 0.0
H373 H 0.84021 0.40353 0.42156 0.0
C374 C 0.81485 0.44436 0.49045 0.0
O375 O 0.77663 0.37593 0.57735 0.0
O376 O 0.80529 0.34509 0.53239 0.0
N377 N 0.71367 0.38812 0.40962 0.0
C378 C 0.67638 0.38931 0.41641 0.0
C379 C 0.65131 0.36883 0.39317 0.0
C380 C 0.66479 0.3474 0.36319 0.0
C381 C 0.70326 0.34674 0.35664 0.0
C382 C 0.7269 0.36795 0.38056 0.0
H383 H 0.66586 0.40552 0.43956 0.0
O384 O 0.72961 0.34128 0.51428 0.0
O385 O 0.75862 0.37313 0.47096 0.0
O386 O 0.72515 0.42098 0.52582 0.0
O387 O 0.71925 0.44186 0.46744 0.0
C388 C 0.71911 0.32527 0.32778 0.0
C389 C 0.7582 0.32487 0.32371 0.0
H390 H 0.83453 0.3294 0.32585 0.0
H391 H 0.87191 0.36651 0.37262 0.0
H392 H 0.62167 0.36933 0.39852 0.0
H393 H 0.64539 0.33128 0.3456 0.0
H394 H 0.70154 0.30852 0.30891 0.0
H395 H 0.77007 0.30779 0.30179 0.0
Mn396 Mn 0.66138 0.01934 0.766 0.0
Mn397 Mn 0.62676 0.10615 0.76126 0.0
C398 C 0.69485 0.06686 0.73753 0.0
C399 C 0.69765 0.97347 0.7929 0.0
C400 C 0.59977 0.04155 0.71159 0.0
O401 O 0.62118 0.01877 0.80671 0.0
O402 O 0.60232 0.07813 0.80186 0.0
C403 C 0.6551 0.13662 0.83376 0.0
N404 N 0.65292 0.13875 0.79594 0.0
C405 C 0.69211 0.19434 0.79644 0.0
C406 C 0.6946 0.19282 0.83541 0.0
C407 C 0.67602 0.16382 0.85413 0.0
C408 C 0.6706 0.16661 0.77764 0.0
H409 H 0.6411 0.11424 0.84828 0.0
C410 C 0.60117 0.04615 0.81739 0.0
O411 O 0.67058 0.96507 0.7698 0.0
O412 O 0.70169 1.00842 0.80289 0.0
N413 N 0.64896 0.13623 0.72342 0.0
C414 C 0.64583 0.13227 0.68566 0.0
C415 C 0.66373 0.15842 0.66276 0.0
C416 C 0.68458 0.18837 0.67889 0.0
C417 C 0.68717 0.19204 0.71782 0.0
C418 C 0.66837 0.16537 0.73924 0.0
H419 H 0.63006 0.10917 0.67307 0.0
O420 O 0.70092 0.03221 0.72887 0.0
O421 O 0.66916 0.0726 0.76209 0.0
O422 O 0.62186 0.01766 0.72461 0.0
O423 O 0.59839 0.07523 0.72376 0.0
C424 C 0.70839 0.2206 0.73618 0.0
C425 C 0.71091 0.22172 0.77546 0.0
H426 H 0.711 0.21354 0.85119 0.0
H427 H 0.67798 0.16234 0.88418 0.0
H428 H 0.66173 0.15531 0.63274 0.0
H429 H 0.6988 0.20816 0.66113 0.0
H430 H 0.72344 0.24146 0.72034 0.0
H431 H 0.72788 0.2434 0.78923 0.0
Mn432 Mn 0.02427 0.26287 0.88357 0.0
Mn433 Mn 0.93714 0.25767 0.91835 0.0
C434 C 0.97638 0.23499 0.84906 0.0
C435 C 0.07159 0.29032 0.84853 0.0
C436 C 0.99967 0.20886 0.94435 0.0
O437 O 0.02545 0.30381 0.92423 0.0
O438 O 0.96576 0.29907 0.94416 0.0
C439 C 0.90842 0.32976 0.89274 0.0
N440 N 0.90578 0.29174 0.89321 0.0
C441 C 0.85104 0.2911 0.85386 0.0
C442 C 0.85306 0.33024 0.85316 0.0
C443 C 0.88189 0.34963 0.87266 0.0
C444 C 0.87805 0.2728 0.87467 0.0
H445 H 0.93063 0.3448 0.90751 0.0
C446 C 0.99844 0.31452 0.94467 0.0
O447 O 0.07865 0.26711 0.87481 0.0
O448 O 0.0371 0.29986 0.84446 0.0
N449 N 0.90692 0.2191 0.89456 0.0
C450 C 0.91062 0.18135 0.89565 0.0
C451 C 0.88494 0.15786 0.87613 0.0
C452 C 0.85572 0.1734 0.85576 0.0
C453 C 0.85239 0.21231 0.85514 0.0
C454 C 0.87867 0.23433 0.87533 0.0
H455 H 0.93321 0.16925 0.911 0.0
O456 O 1.01063 0.22577 0.84308 0.0
O457 O 0.97127 0.25917 0.87587 0.0
O458 O 0.02406 0.22153 0.92207 0.0
O459 O 0.96648 0.22079 0.94602 0.0
C460 C 0.82455 0.23014 0.83457 0.0
C461 C 0.82385 0.2695 0.83396 0.0
H462 H 0.83286 0.34567 0.83743 0.0
H463 H 0.88375 0.37983 0.87208 0.0
H464 H 0.88784 0.12786 0.87656 0.0
H465 H 0.83624 0.15521 0.84038 0.0
H466 H 0.80387 0.21387 0.81867 0.0
H467 H 0.80265 0.28287 0.81758 0.0
Mn468 Mn 0.52422 0.76443 0.38647 0.0
Mn469 Mn 0.43624 0.75766 0.41852 0.0
C470 C 0.47752 0.73593 0.35038 0.0
C471 C 0.57193 0.79273 0.35265 0.0
C472 C 0.49811 0.70841 0.44527 0.0
O473 O 0.52409 0.80512 0.42733 0.0
O474 O 0.46457 0.79767 0.44663 0.0
C475 C 0.40923 0.83125 0.3952 0.0
N476 N 0.40591 0.79326 0.39433 0.0
C477 C 0.35142 0.79497 0.35484 0.0
C478 C 0.35413 0.83411 0.3555 0.0
C479 C 0.3832 0.85231 0.37573 0.0
C480 C 0.37796 0.77546 0.37507 0.0
H481 H 0.43159 0.8454 0.41057 0.0
C482 C 0.49677 0.81407 0.44819 0.0
O483 O 0.57887 0.76934 0.37884 0.0
O484 O 0.53739 0.8017 0.34785 0.0
N485 N 0.40599 0.72055 0.39283 0.0
C486 C 0.40959 0.68276 0.39196 0.0
C487 C 0.38374 0.66038 0.37156 0.0
C488 C 0.35463 0.67709 0.35214 0.0
C489 C 0.35153 0.71607 0.35324 0.0
C490 C 0.37796 0.73693 0.37434 0.0
H491 H 0.43248 0.66985 0.40601 0.0
O492 O 0.51206 0.72718 0.34552 0.0
O493 O 0.47133 0.7601 0.37696 0.0
O494 O 0.52347 0.72323 0.42533 0.0
O495 O 0.46445 0.71914 0.44484 0.0
C496 C 0.32403 0.73515 0.33338 0.0
C497 C 0.32397 0.77454 0.33417 0.0
H498 H 0.3343 0.85045 0.34025 0.0
H499 H 0.3856 0.88251 0.37622 0.0
H500 H 0.38656 0.63035 0.37036 0.0
H501 H 0.33537 0.65965 0.33593 0.0
H502 H 0.30316 0.71995 0.31684 0.0
H503 H 0.30307 0.78885 0.31824 0.0
Mn504 Mn 0.02474 0.76375 0.64459 0.0
Mn505 Mn 0.98458 0.68764 0.68334 0.0
C506 C 0.02419 0.7066 0.61293 0.0
C507 C 0.02237 0.81769 0.60942 0.0
C508 C 0.0598 0.72024 0.70788 0.0
O509 O 0.99214 0.78608 0.68543 0.0
O510 O 0.96394 0.7335 0.70654 0.0
C511 C 0.90691 0.69519 0.65643 0.0
N512 N 0.93852 0.67498 0.65849 0.0
C513 C 0.90919 0.62311 0.62503 0.0
C514 C 0.87625 0.64328 0.62271 0.0
C515 C 0.87518 0.67955 0.63832 0.0
C516 C 0.93997 0.64022 0.64325 0.0
H517 H 0.90592 0.72297 0.66861 0.0
C518 C 0.96904 0.76903 0.70646 0.0
O519 O 0.04788 0.81348 0.63471 0.0
O520 O 0.9975 0.79093 0.60504 0.0
N521 N 1.0019 0.64138 0.6632 0.0
C522 C 0.03606 0.62601 0.66715 0.0
C523 C 0.0421 0.59012 0.65222 0.0
C524 C 1.01285 0.57025 0.63387 0.0
C525 C 0.97781 0.58647 0.63059 0.0
C526 C 0.9735 0.62239 0.64583 0.0
H527 H 0.05856 0.64104 0.68147 0.0
O528 O 0.04869 0.73245 0.60489 0.0
O529 O 1.00087 0.71504 0.63915 0.0
O530 O 0.06151 0.74574 0.68369 0.0
O531 O 0.03195 0.69764 0.71084 0.0
C532 C 0.94701 0.56843 0.61276 0.0
C533 C 0.91278 0.58681 0.60978 0.0
H534 H 0.85171 0.63131 0.60879 0.0
H535 H 0.84991 0.69535 0.6365 0.0
H536 H 0.06921 0.57778 0.65493 0.0
H537 H 0.01762 0.54259 0.62237 0.0
H538 H 0.94945 0.54054 0.60091 0.0
H539 H 0.88946 0.57282 0.59555 0.0
Mn540 Mn 0.5244 0.26593 0.14389 0.0
Mn541 Mn 0.48211 0.19016 0.18122 0.0
C542 C 0.52339 0.20922 0.11153 0.0
C543 C 0.52292 0.32087 0.11022 0.0
C544 C 0.55773 0.22082 0.2069 0.0
O545 O 0.49215 0.28828 0.18493 0.0
O546 O 0.46164 0.23621 0.20412 0.0
C547 C 0.40559 0.19935 0.15177 0.0
N548 N 0.43642 0.17823 0.15542 0.0
C549 C 0.40658 0.12637 0.1224 0.0
C550 C 0.37442 0.1475 0.1184 0.0
C551 C 0.374 0.18421 0.13299 0.0
C552 C 0.43729 0.14306 0.14111 0.0
H553 H 0.40512 0.2275 0.16315 0.0
C554 C 0.4679 0.27158 0.20491 0.0
O555 O 0.54841 0.31549 0.13523 0.0
O556 O 0.49787 0.29444 0.10479 0.0
N557 N 0.49903 0.14354 0.16159 0.0
C558 C 0.53297 0.12777 0.16586 0.0
C559 C 0.5385 0.0915 0.15167 0.0
C560 C 0.50895 0.07161 0.13385 0.0
C561 C 0.47415 0.08826 0.13023 0.0
C562 C 0.47038 0.12458 0.14461 0.0
H563 H 0.55568 0.14278 0.17985 0.0
O564 O 0.54815 0.23498 0.10392 0.0
O565 O 0.49975 0.2176 0.13749 0.0
O566 O 0.56053 0.24635 0.18281 0.0
O567 O 0.52908 0.19924 0.20968 0.0
C568 C 0.44312 0.07034 0.11268 0.0
C569 C 0.40948 0.08951 0.10838 0.0
H570 H 0.34998 0.13588 0.10403 0.0
H571 H 0.34933 0.20073 0.12991 0.0
H572 H 0.56546 0.07887 0.15456 0.0
H573 H 0.51332 0.04366 0.12292 0.0
H574 H 0.44505 0.04204 0.10174 0.0
H575 H 0.38612 0.07574 0.094 0.0
C576 C 0.18977 0.77461 0.91912 0.0
C577 C 0.22016 0.75831 0.90067 0.0
C578 C 0.19524 0.8038 0.94552 0.0
C579 C 0.2312 0.818 0.95384 0.0
H580 H 0.16152 0.76476 0.91315 0.0
H581 H 0.17123 0.81579 0.95893 0.0
S582 S 0.32036 0.7829 0.9172 0.0
N583 N 0.28784 0.75804 0.8945 0.0
N584 N 0.29776 0.81121 0.9454 0.0
C585 C 0.26182 0.80102 0.93706 0.0
C586 C 0.2564 0.7717 0.91005 0.0
C587 C 0.0174 0.55202 0.38274 0.0
C588 C 0.03301 0.54316 0.41746 0.0
C589 C 0.03868 0.55072 0.3501 0.0
C590 C 0.07598 0.53946 0.35084 0.0
H591 H 0.98888 0.5612 0.38102 0.0
H592 H 0.02604 0.55917 0.32415 0.0
S593 S 0.12934 0.51217 0.43459 0.0
N594 N 0.08766 0.52226 0.4507 0.0
N595 N 0.1274 0.51863 0.38913 0.0
C596 C 0.09151 0.52932 0.38521 0.0
C597 C 0.07009 0.53152 0.4186 0.0
C598 C 0.83417 0.76743 0.9183 0.0
C599 C 0.81237 0.78167 0.88928 0.0
C600 C 0.81974 0.73951 0.94173 0.0
C601 C 0.78312 0.72489 0.93672 0.0
H602 H 0.8622 0.77847 0.92333 0.0
H603 H 0.83706 0.72997 0.96434 0.0
S604 S 0.71699 0.74991 0.86096 0.0
N605 N 0.75423 0.77677 0.85436 0.0
N606 N 0.72679 0.72518 0.8979 0.0
C607 C 0.76182 0.73816 0.90659 0.0
C608 C 0.77653 0.76627 0.883 0.0
C609 C 0.02662 0.97487 0.3887 0.0
C610 C 1.01341 0.98795 0.42318 0.0
C611 C 1.00515 0.9778 0.35605 0.0
C612 C 0.97009 0.99469 0.3566 0.0
H613 H 0.05315 0.9611 0.38721 0.0
H614 H 0.01569 0.96597 0.3303 0.0
S615 S 0.92425 0.0353 0.43985 0.0
N616 N 0.96404 0.01952 0.45605 0.0
N617 N 0.9239 0.02593 0.39455 0.0
C618 C 0.95738 1.00937 0.39075 0.0
C619 C 0.97897 1.00571 0.42411 0.0
C620 C 0.18698 0.26789 0.62359 0.0
C621 C 0.21745 0.27718 0.64721 0.0
C622 C 0.19022 0.24188 0.59412 0.0
C623 C 0.22398 0.22371 0.58726 0.0
H624 H 0.16043 0.28108 0.62779 0.0
H625 H 0.16585 0.23579 0.5768 0.0
S626 S 0.31204 0.23792 0.64179 0.0
N627 N 0.28228 0.26593 0.66232 0.0
N628 N 0.28871 0.21723 0.60695 0.0
C629 C 0.25471 0.23276 0.61087 0.0
C630 C 0.25139 0.25945 0.64075 0.0
C631 C 0.50417 0.49622 0.63153 0.0
C632 C 0.51409 0.53404 0.62629 0.0
C633 C 0.48266 0.48504 0.66198 0.0
C634 C 0.46981 0.51123 0.6884 0.0
H635 H 0.51243 0.47506 0.61143 0.0
H636 H 0.47538 0.45564 0.66427 0.0
S637 S 0.49114 0.61337 0.68944 0.0
N638 N 0.51185 0.59739 0.65163 0.0
N639 N 0.47076 0.57665 0.70847 0.0
C640 C 0.48028 0.54911 0.68398 0.0
C641 C 0.50248 0.56044 0.65306 0.0
C642 C 0.82051 0.30484 0.66045 0.0
C643 C 0.82503 0.26711 0.65022 0.0
C644 C 0.81351 0.33178 0.63347 0.0
C645 C 0.8117 0.32206 0.59526 0.0
H646 H 0.82115 0.31334 0.68961 0.0
H647 H 0.80879 0.36027 0.64265 0.0
S648 S 0.82359 0.22703 0.55424 0.0
N649 N 0.82838 0.22145 0.5996 0.0
N650 N 0.81617 0.27194 0.54871 0.0
C651 C 0.8176 0.28455 0.5847 0.0
C652 C 0.82395 0.2571 0.61223 0.0
C653 C 0.51591 0.02576 0.64721 0.0
C654 C 0.5316 1.009 0.61522 0.0
C655 C 0.53806 0.03659 0.67828 0.0
C656 C 0.57655 0.03029 0.67886 0.0
H657 H 0.48618 0.03023 0.64848 0.0
H658 H 0.52489 0.04938 0.70225 0.0
S659 S 0.63224 0.99077 0.60169 0.0
N660 N 0.58901 0.98969 0.58543 0.0
N661 N 0.62995 1.00825 0.64452 0.0
C662 C 0.59272 0.01391 0.64722 0.0
C663 C 0.57043 1.00367 0.61528 0.0
C664 C 0.90282 0.25491 0.77685 0.0
C665 C 0.89465 0.21952 0.76068 0.0
C666 C 0.92944 0.25944 0.80538 0.0
C667 C 0.94828 0.22871 0.8194 0.0
H668 H 0.88787 0.27922 0.76814 0.0
H669 H 0.93503 0.28726 0.81686 0.0
S670 S 0.94065 0.13101 0.78415 0.0
N671 N 0.9105 0.15369 0.75851 0.0
N672 N 0.95982 0.16247 0.81317 0.0
C673 C 0.94177 0.19352 0.8026 0.0
C674 C 0.91487 0.1888 0.77323 0.0
C675 C 0.51698 0.91425 0.48022 0.0
C676 C 0.49583 0.91712 0.51291 0.0
C677 C 0.51943 0.87998 0.46063 0.0
C678 C 0.50032 0.8477 0.47289 0.0
H679 H 0.53093 0.93883 0.46929 0.0
H680 H 0.53473 0.87926 0.43472 0.0
S681 S 0.44364 0.84053 0.55869 0.0
N682 N 0.45763 0.88482 0.55808 0.0
N683 N 0.46156 0.82058 0.52122 0.0
C684 C 0.48027 0.85016 0.5064 0.0
C685 C 0.47817 0.88486 0.52642 0.0
C686 C 0.11911 0.33765 0.76691 0.0
C687 C 0.15176 0.31716 0.76288 0.0
C688 C 0.09369 0.3296 0.79545 0.0
C689 C 0.10055 0.30131 0.82125 0.0
H690 H 0.11296 0.35957 0.74756 0.0
H691 H 0.06833 0.34535 0.79702 0.0
S692 S 0.1838 0.24145 0.82326 0.0
N693 N 0.1906 0.2687 0.78724 0.0
N694 N 0.14357 0.25376 0.84122 0.0
C695 C 0.13391 0.28151 0.81795 0.0
C696 C 0.15932 0.28938 0.78864 0.0
C697 C 0.55673 0.63978 0.49903 0.0
C698 C 0.53007 0.61473 0.51373 0.0
C699 C 0.54611 0.66996 0.47727 0.0
C700 C 0.50829 0.67669 0.46946 0.0
H701 H 0.58615 0.63627 0.50467 0.0
H702 H 0.56786 0.68829 0.46668 0.0
S703 S 0.42746 0.61823 0.49998 0.0
N704 N 0.46419 0.59758 0.51737 0.0
N705 N 0.44406 0.65505 0.47801 0.0
C706 C 0.48128 0.65187 0.48415 0.0
C707 C 0.49219 0.62078 0.50585 0.0
C708 C 0.88686 0.81924 0.74682 0.0
C709 C 0.89512 0.8202 0.78534 0.0
C710 C 0.9121 0.8047 0.72089 0.0
C711 C 0.94644 0.79084 0.73261 0.0
H712 H 0.85991 0.82791 0.73677 0.0
H713 H 0.90395 0.80262 0.69175 0.0
S714 S 0.98325 0.79018 0.82929 0.0
N715 N 0.94171 0.80877 0.83323 0.0
N716 N 0.98863 0.7808 0.7844 0.0
C717 C 0.95584 0.79312 0.77059 0.0
C718 C 0.93031 0.80801 0.79699 0.0
C719 C 0.04154 0.91617 0.5767 0.0
C720 C 0.03554 0.91311 0.53786 0.0
C721 C 0.03613 0.88541 0.59982 0.0
C722 C 0.02354 0.85061 0.58522 0.0
H723 H 0.05119 0.94241 0.58936 0.0
H724 H 0.04225 0.88881 0.62934 0.0
S725 S 1.00349 0.82715 0.48589 0.0
N726 N 0.01678 0.87163 0.48597 0.0
N727 N 1.00465 0.81463 0.52992 0.0
C728 C 0.016 0.84732 0.54682 0.0
C729 C 0.02241 0.87836 0.52304 0.0
C730 C 0.11404 0.7031 0.797 0.0
C731 C 0.15106 0.71103 0.78676 0.0
C732 C 0.08472 0.70567 0.77112 0.0
C733 C 0.0914 0.71703 0.73436 0.0
H734 H 0.10781 0.69448 0.8251 0.0
H735 H 0.05657 0.69927 0.78014 0.0
S736 S 0.18376 0.74117 0.69422 0.0
N737 N 0.19313 0.73043 0.73782 0.0
N738 N 0.13806 0.73619 0.68921 0.0
C739 C 0.12841 0.72537 0.724 0.0
C740 C 0.15826 0.7221 0.7502 0.0
C741 C 0.0385 0.61948 0.55283 0.0
C742 C 1.00352 0.61421 0.53508 0.0
C743 C 0.04532 0.64958 0.57802 0.0
C744 C 0.01714 0.67485 0.58673 0.0
H745 H 0.06054 0.59995 0.54759 0.0
H746 H 0.07247 0.65264 0.59135 0.0
S747 S 0.92345 0.67757 0.54274 0.0
N748 N 0.94222 0.63982 0.5245 0.0
N749 N 0.95499 0.69577 0.57205 0.0
C750 C 0.98279 0.67093 0.56791 0.0
C751 C 0.97592 0.64064 0.54218 0.0
C752 C 0.77743 0.89825 0.25684 0.0
C753 C 0.76281 0.89119 0.22078 0.0
C754 C 0.80547 0.92537 0.26333 0.0
C755 C 0.82061 0.94597 0.23398 0.0
H756 H 0.76787 0.88202 0.28022 0.0
H757 H 0.81582 0.92985 0.29158 0.0
S758 S 0.78986 0.9415 0.13524 0.0
N759 N 0.76358 0.90956 0.15577 0.0
N760 N 0.81715 0.9603 0.16826 0.0
C761 C 0.80537 0.94063 0.19813 0.0
C762 C 0.77655 0.91299 0.19139 0.0
C763 C 0.80171 0.15662 0.32335 0.0
C764 C 0.76439 0.14538 0.32911 0.0
C765 C 0.82924 0.13022 0.31634 0.0
C766 C 0.82053 0.09166 0.3157 0.0
H767 H 0.80943 0.18607 0.3232 0.0
H768 H 0.85741 0.14011 0.31081 0.0
S769 S 0.72693 0.04816 0.33119 0.0
N770 N 0.72019 0.09353 0.33495 0.0
N771 N 0.7718 0.04372 0.32265 0.0
C772 C 0.78342 0.08015 0.32276 0.0
C773 C 0.75536 0.10707 0.32917 0.0
C774 C 0.42239 0.96925 0.99882 0.0
C775 C 0.42214 1.00822 0.99465 0.0
C776 C 0.38895 0.94849 1.00298 0.0
C777 C 0.35427 0.96602 1.00252 0.0
H778 H 0.44856 0.95476 0.99865 0.0
H779 H 0.39011 0.91838 1.005 0.0
S780 S 0.3385 0.06716 0.99268 0.0
N781 N 0.3843 0.06352 0.99116 0.0
N782 N 0.32158 0.02425 0.99785 0.0
C783 C 0.35368 1.00488 0.99875 0.0
C784 C 0.38762 0.02608 0.99517 0.0
C785 C 0.288 0.43004 0.322 0.0
C786 C 0.27956 0.39152 0.32047 0.0
C787 C 0.26051 0.45625 0.31436 0.0
C788 C 0.22382 0.44478 0.3043 0.0
H789 H 0.31596 0.43993 0.32927 0.0
H790 H 0.26837 0.48566 0.31537 0.0
S791 S 0.18788 0.3468 0.29638 0.0
N792 N 0.23214 0.34308 0.30843 0.0
N793 N 0.18068 0.39206 0.29376 0.0
C794 C 0.21513 0.40625 0.30288 0.0
C795 C 0.24295 0.37971 0.31103 0.0
C796 C 0.14834 0.0289 0.47659 0.0
C797 C 0.12371 0.01918 0.50538 0.0
C798 C 0.1785 0.05385 0.48303 0.0
C799 C 0.18536 0.07005 0.51849 0.0
H800 H 0.1441 0.0175 0.44864 0.0
H801 H 0.19634 0.06096 0.45986 0.0
S802 S 0.13095 0.05299 0.60389 0.0
N803 N 0.10908 0.0275 0.57122 0.0
N804 N 0.16695 0.07323 0.58328 0.0
C805 C 0.16235 0.05937 0.54798 0.0
C806 C 0.13115 0.03435 0.5414 0.0
C807 C 0.76599 0.14498 0.75236 0.0
C808 C 0.77831 0.15265 0.71607 0.0
C809 C 0.73922 0.11691 0.75877 0.0
C810 C 0.72304 0.09593 0.72915 0.0
H811 H 0.77664 0.16118 0.77611 0.0
H812 H 0.73079 0.11187 0.78721 0.0
S813 S 0.74736 0.10219 0.62939 0.0
N814 N 0.77392 0.1348 0.65028 0.0
N815 N 0.72275 0.08231 0.66266 0.0
C816 C 0.73574 0.10216 0.69292 0.0
C817 C 0.76326 0.13076 0.68625 0.0
C818 C 0.3902 0.01921 0.51746 0.0
C819 C 0.4252 0.03567 0.52726 0.0
C820 C 0.35898 0.04112 0.5105 0.0
C821 C 0.36138 0.08028 0.51369 0.0
H822 H 0.3864 0.9891 0.51672 0.0
H823 H 0.33234 0.02721 0.50463 0.0
S824 S 0.44715 0.1376 0.5327 0.0
N825 N 0.46104 0.09404 0.53463 0.0
N826 N 0.40193 0.13487 0.52365 0.0
C827 C 0.39636 0.0972 0.52168 0.0
C828 C 0.42833 0.075 0.52795 0.0
C829 C 0.64856 0.52465 0.52002 0.0
C830 C 0.61625 0.50797 0.53535 0.0
C831 C 0.6789 0.50307 0.5089 0.0
C832 C 0.6783 0.4642 0.51345 0.0
H833 H 0.65067 0.55467 0.51701 0.0
H834 H 0.70322 0.51692 0.49725 0.0
S835 S 0.5996 0.40614 0.54813 0.0
N836 N 0.58465 0.44936 0.55094 0.0
N837 N 0.64246 0.40943 0.53188 0.0
C838 C 0.64624 0.44705 0.52814 0.0
C839 C 0.61504 0.46876 0.53866 0.0
C840 C 0.75216 0.27222 0.40553 0.0
C841 C 0.71648 0.25609 0.399 0.0
C842 C 0.75779 0.30101 0.43192 0.0
C843 C 0.72793 0.31532 0.45229 0.0
H844 H 0.77586 0.26333 0.38939 0.0
H845 H 0.78576 0.31263 0.43594 0.0
S846 S 0.62997 0.28055 0.44916 0.0
N847 N 0.65131 0.25453 0.41776 0.0
N848 N 0.66224 0.3095 0.4671 0.0
C849 C 0.69248 0.29858 0.44754 0.0
C850 C 0.68661 0.269 0.42066 0.0
C851 C 0.5354 0.07462 0.89497 0.0
C852 C 0.53358 0.0434 0.91792 0.0
C853 C 0.55619 0.07438 0.8622 0.0
C854 C 0.57665 0.04296 0.85081 0.0
H855 H 0.5207 0.09972 0.90255 0.0
H856 H 0.55665 0.09967 0.84613 0.0
S857 S 0.57989 0.95328 0.90104 0.0
N858 N 0.55262 0.97959 0.92692 0.0
N859 N 0.59249 0.97902 0.86531 0.0
C860 C 0.57433 1.01103 0.87323 0.0
C861 C 0.55263 1.01126 0.9067 0.0
C862 C 0.33335 0.26416 0.41575 0.0
C863 C 0.3122 0.27626 0.38526 0.0
C864 C 0.3193 0.23614 0.43926 0.0
C865 C 0.28372 0.21946 0.4329 0.0
H866 H 0.36031 0.27719 0.42203 0.0
H867 H 0.33584 0.22844 0.46319 0.0
S868 S 0.22021 0.23825 0.35307 0.0
N869 N 0.25628 0.26695 0.34747 0.0
N870 N 0.22951 0.21517 0.39123 0.0
C871 C 0.26336 0.23034 0.40119 0.0
C872 C 0.27771 0.25849 0.37748 0.0
C873 C 0.47656 0.49933 0.92507 0.0
C874 C 0.51407 0.48881 0.92345 0.0
C875 C 0.45534 0.50347 0.89234 0.0
C876 C 0.47079 0.49651 0.85703 0.0
H877 H 0.46346 0.50392 0.95182 0.0
H878 H 0.42618 0.5103 0.89475 0.0
S879 S 0.56803 0.46987 0.8377 0.0
N880 N 0.56618 0.4733 0.88363 0.0
N881 N 0.52599 0.47995 0.82231 0.0
C882 C 0.50844 0.48688 0.85507 0.0
C883 C 0.53019 0.48337 0.88824 0.0
C884 C 0.70182 0.78324 0.11681 0.0
C885 C 0.71695 0.77575 0.152 0.0
C886 C 0.70454 0.7574 0.08711 0.0
C887 C 0.723 0.72342 0.09145 0.0
H888 H 0.68764 0.80917 0.11233 0.0
H889 H 0.69249 0.76436 0.06041 0.0
S890 S 0.7669 0.69099 0.17882 0.0
N891 N 0.75042 0.73235 0.19013 0.0
N892 N 0.75621 0.68377 0.13433 0.0
C893 C 0.73835 0.71583 0.12672 0.0
C894 C 0.73513 0.742 0.15701 0.0
C895 C 0.99793 0.05891 0.14873 0.0
C896 C 1.0135 0.03282 0.12386 0.0
C897 C 0.9764 0.04733 0.17915 0.0
C898 C 0.9697 1.00912 0.18619 0.0
H899 H 1.00263 0.08858 0.14484 0.0
H900 H 0.96499 0.06861 0.19733 0.0
S901 S 1.00286 0.92952 0.12814 0.0
N902 N 0.01905 0.96706 0.10714 0.0
N903 N 0.98041 0.9452 0.16498 0.0
C904 C 0.98532 0.98274 0.1615 0.0
C905 C 1.00669 0.99458 0.13023 0.0
C906 C 0.32205 0.75584 0.1167 0.0
C907 C 0.32249 0.76454 0.15504 0.0
C908 C 0.31554 0.78346 0.09034 0.0
C909 C 0.30845 0.82056 0.10149 0.0
H910 H 0.32664 0.72746 0.10707 0.0
H911 H 0.31469 0.77533 0.06109 0.0
S912 S 0.3073 0.85744 0.19888 0.0
N913 N 0.31638 0.81269 0.20302 0.0
N914 N 0.3032 0.86451 0.15367 0.0
C915 C 0.3093 0.8296 0.13984 0.0
C916 C 0.31655 0.80161 0.16657 0.0
C917 C 0.03659 0.54219 0.12358 0.0
C918 C 0.02482 0.50473 0.11751 0.0
C919 C 0.05869 0.553 0.15457 0.0
C920 C 0.07049 0.52676 0.18064 0.0
H921 H 0.0293 0.56334 0.1038 0.0
H922 H 0.06725 0.58212 0.15754 0.0
S923 S 0.0442 0.42575 0.17981 0.0
N924 N 0.02402 0.44186 0.14205 0.0
N925 N 0.06658 0.4619 0.19958 0.0
C926 C 0.05826 0.48931 0.1754 0.0
C927 C 0.03528 0.47837 0.14405 0.0
C928 C 0.40314 0.75216 0.27776 0.0
C929 C 0.39613 0.71634 0.26193 0.0
C930 C 0.42982 0.75806 0.30604 0.0
C931 C 0.44996 0.72831 0.3203 0.0
H932 H 0.38715 0.77578 0.26904 0.0
H933 H 0.43432 0.78615 0.31726 0.0
S934 S 0.44585 0.63012 0.28598 0.0
N935 N 0.41456 0.65128 0.26034 0.0
N936 N 0.46406 0.66257 0.31451 0.0
C937 C 0.44473 0.69276 0.30377 0.0
C938 C 0.4177 0.68665 0.27463 0.0
C939 C 0.98742 0.38362 0.02474 0.0
C940 C 0.9976 0.41781 1.0086 0.0
C941 C 0.98963 0.34983 1.00445 0.0
C942 C 1.0031 0.349 0.96773 0.0
H943 H 0.97615 0.3832 0.05266 0.0
H944 H 0.97976 0.32428 0.01719 0.0
S945 S 0.03494 0.43082 0.91367 0.0
N946 N 0.02248 0.44885 0.95433 0.0
N947 N 0.02782 0.38519 0.91652 0.0
C948 C 0.01493 0.38285 0.95192 0.0
C949 C 1.01183 0.41734 0.97228 0.0
C950 C 0.65782 0.78751 0.29229 0.0
C951 C 0.65406 0.81793 0.26858 0.0
C952 C 0.63204 0.7808 0.32066 0.0
C953 C 0.60118 0.80387 0.32588 0.0
H954 H 0.68085 0.76875 0.2888 0.0
H955 H 0.63569 0.75653 0.33777 0.0
S956 S 0.5798 0.88801 0.27163 0.0
N957 N 0.61839 0.87222 0.25277 0.0
N958 N 0.56911 0.85909 0.30547 0.0
C959 C 0.59749 0.83477 0.30261 0.0
C960 C 0.62417 0.84195 0.27413 0.0
C961 C 0.03624 0.11592 0.97562 0.0
C962 C 0.03319 0.11801 0.0148 0.0
C963 C 0.02544 0.1455 0.95311 0.0
C964 C 1.01029 0.17799 0.96873 0.0
H965 H 0.04679 0.0911 0.96205 0.0
H966 H 0.0285 0.14271 0.92317 0.0
S967 S 0.99791 0.19912 0.06923 0.0
N968 N 0.01575 0.15702 0.06806 0.0
N969 N 0.99349 0.21138 0.02531 0.0
C970 C 1.00671 0.1806 1.00757 0.0
C971 C 0.01858 0.15094 0.03068 0.0
C972 C 0.38532 0.32068 0.24551 0.0
C973 C 0.39403 0.3222 0.28391 0.0
C974 C 0.41057 0.30643 0.21946 0.0
C975 C 0.44542 0.29361 0.23093 0.0
H976 H 0.35794 0.32837 0.23574 0.0
H977 H 0.40204 0.30365 0.19046 0.0
S978 S 0.48346 0.29503 0.32718 0.0
N979 N 0.44146 0.31254 0.33141 0.0
N980 N 0.48861 0.28544 0.2823 0.0
C981 C 0.45535 0.29679 0.26874 0.0
C982 C 0.42973 0.31123 0.29528 0.0
C983 C 0.52278 0.38327 0.0262 0.0
C984 C 0.53519 0.41815 0.04124 0.0
C985 C 0.51695 0.35229 0.049 0.0
C986 C 0.52399 0.35485 0.08755 0.0
H987 H 0.51904 0.37937 0.99637 0.0
H988 H 0.50869 0.32571 0.03609 0.0
S989 S 0.5511 0.44059 0.14174 0.0
N990 N 0.54935 0.45424 0.09807 0.0
N991 N 0.54037 0.39546 0.14045 0.0
C992 C 0.53472 0.38974 0.10324 0.0
C993 C 0.53982 0.4215 0.08022 0.0
C994 C 0.61143 0.20114 0.29575 0.0
C995 C 0.6487 0.20715 0.28525 0.0
C996 C 0.58216 0.20507 0.27004 0.0
C997 C 0.58918 0.21602 0.23321 0.0
H998 H 0.60492 0.19324 0.32401 0.0
H999 H 0.5538 0.2002 0.27926 0.0
S1000 S 0.68225 0.23527 0.19232 0.0
N1001 N 0.69132 0.22426 0.23592 0.0
N1002 N 0.6364 0.23248 0.18763 0.0
C1003 C 0.62645 0.22227 0.22253 0.0
C1004 C 0.65621 0.2176 0.24854 0.0
C1005 C 0.47683 0.13915 0.04474 0.0
C1006 C 0.50581 0.11487 0.03549 0.0
C1007 C 0.48286 0.16954 0.06946 0.0
C1008 C 0.51791 0.17652 0.08625 0.0
H1009 H 0.44928 0.1348 0.03258 0.0
H1010 H 0.45989 0.18775 0.07547 0.0
S1011 S 0.60312 0.12205 0.07138 0.0
N1012 N 0.57103 0.10023 0.04513 0.0
N1013 N 0.5823 0.15789 0.09121 0.0
C1014 C 0.54736 0.15322 0.07667 0.0
C1015 C 0.54126 0.12212 0.05156 0.0
C1016 C 0.27956 0.41047 0.69284 0.0
C1017 C 0.26312 0.39006 0.72195 0.0
C1018 C 0.30772 0.43772 0.70009 0.0
C1019 C 0.32079 0.44488 0.73657 0.0
H1020 H 0.27053 0.4055 0.66425 0.0
H1021 H 0.31984 0.45269 0.67702 0.0
S1022 S 0.28472 0.40276 0.82306 0.0
N1023 N 0.26144 0.38064 0.78909 0.0
N1024 N 0.31268 0.43305 0.8024 0.0
C1025 C 0.30368 0.426 0.76599 0.0
C1026 C 0.27538 0.39816 0.75875 0.0
C1027 C 0.29057 0.65229 0.80176 0.0
C1028 C 0.26473 0.6465 0.83035 0.0
C1029 C 0.31873 0.62672 0.7948 0.0
C1030 C 0.32172 0.59404 0.81577 0.0
H1031 H 0.2889 0.67678 0.78459 0.0
H1032 H 0.33755 0.63212 0.77196 0.0
S1033 S 0.2613 0.56698 0.89477 0.0
N1034 N 0.24443 0.60696 0.88082 0.0
N1035 N 0.2968 0.55805 0.86717 0.0
C1036 C 0.29626 0.58827 0.84488 0.0
C1037 C 0.26792 0.61475 0.85234 0.0
C1038 C 0.90851 0.48989 0.51919 0.0
C1039 C 0.91742 0.51174 0.48819 0.0
C1040 C 0.87472 0.46912 0.52051 0.0
C1041 C 0.84845 0.46988 0.49104 0.0
H1042 H 0.92825 0.48805 0.54207 0.0
H1043 H 0.86968 0.45163 0.54432 0.0
S1044 S 0.85709 0.52751 0.40601 0.0
N1045 N 0.89643 0.53584 0.42919 0.0
N1046 N 0.83286 0.49789 0.43149 0.0
C1047 C 0.85655 0.49343 0.46078 0.0
C1048 C 0.89102 0.51404 0.45939 0.0
C1049 C 0.77803 0.92684 0.84266 0.0
C1050 C 0.78377 0.89497 0.82011 0.0
C1051 C 0.74973 0.95194 0.8341 0.0
C1052 C 0.72558 0.9454 0.80332 0.0
H1053 H 0.79567 0.93246 0.86689 0.0
H1054 H 0.7467 0.97656 0.85174 0.0
S1055 S 0.72867 0.86474 0.73664 0.0
N1056 N 0.76301 0.85769 0.76641 0.0
N1057 N 0.70944 0.90399 0.75059 0.0
C1058 C 0.7308 0.91307 0.78107 0.0
C1059 C 0.75999 0.88808 0.78941 0.0
C1060 C 0.63108 0.53773 0.03999 0.0
C1061 C 0.62494 0.52087 1.00451 0.0
C1062 C 0.66142 0.56265 0.04674 0.0
C1063 C 0.68596 0.57212 0.01797 0.0
H1064 H 0.61161 0.53265 0.06235 0.0
H1065 H 0.66473 0.5758 0.07406 0.0
S1066 S 0.68676 0.53038 0.92264 0.0
N1067 N 0.64954 0.51135 0.94214 0.0
N1068 N 0.70562 0.55898 0.95459 0.0
C1069 C 0.68152 0.55385 0.98319 0.0
C1070 C 0.65113 0.52816 0.97645 0.0
C1071 C 0.26128 0.62955 0.18886 0.0
C1072 C 0.27821 0.6488 0.21955 0.0
C1073 C 0.23325 0.60196 0.19396 0.0
C1074 C 0.22084 0.59331 0.22984 0.0
H1075 H 0.26985 0.6357 0.16072 0.0
H1076 H 0.22072 0.58793 0.16976 0.0
S1077 S 0.25797 0.63222 0.31944 0.0
N1078 N 0.28063 0.65562 0.28721 0.0
N1079 N 0.22995 0.60258 0.29644 0.0
C1080 C 0.23841 0.61103 0.26063 0.0
C1081 C 0.26645 0.63922 0.25558 0.0
C1082 C 0.92425 0.57162 0.03268 0.0
C1083 C 0.92105 0.53249 0.02767 0.0
C1084 C 0.89386 0.59474 0.02643 0.0
C1085 C 0.85921 0.57989 1.01398 0.0
H1086 H 0.95029 0.58454 0.04231 0.0
H1087 H 0.89735 0.62447 0.03206 0.0
S1088 S 0.83561 0.47972 0.99595 0.0
N1089 N 0.87971 0.48011 1.00957 0.0
N1090 N 0.82339 0.52389 0.99605 0.0
C1091 C 0.85588 0.54114 1.00724 0.0
C1092 C 0.88658 0.51739 0.01445 0.0
C1093 C 0.15443 0.02914 0.0245 0.0
C1094 C 0.12139 1.01276 0.03861 0.0
C1095 C 0.18462 1.00712 1.0136 0.0
C1096 C 0.18306 0.96808 0.01713 0.0
H1097 H 0.15719 0.0592 0.02225 0.0
H1098 H 0.20954 0.02073 1.00295 0.0
S1099 S 0.10218 0.91085 0.04821 0.0
N1100 N 0.08815 0.95433 0.0517 0.0
N1101 N 0.14554 0.91365 0.03323 0.0
C1102 C 0.15026 0.9513 0.03055 0.0
C1103 C 0.11929 0.97344 0.0408 0.0
loop_
_geom_bond_atom_site_label_1
_geom_bond_atom_site_label_2
_geom_bond_distance
_geom_bond_site_symmetry_2
_ccdc_geom_bond_type
H0 C3 0.931 1_655 S
H1 C6 0.928 1_565 S
H2 C8 0.930 1_556 S
C3 H0 0.931 1_455 S
C3 C4 1.413 . S
C3 C5 1.360 . S
C4 C3 1.413 . S
C4 C8 1.429 . S
C5 C3 1.360 . S
C5 C6 1.372 . S
C6 H1 0.928 1_545 S
C6 C5 1.372 . S
C6 C7 1.404 . S
C7 C6 1.404 . S
C7 C8 1.391 . S
C8 H2 0.930 1_554 S
C8 C4 1.429 . S
C8 C7 1.391 . S
H9 C12 0.931 . S
H10 C15 0.928 . S
H11 C17 0.930 . S
C12 H9 0.931 . S
C12 C13 1.413 . S
C12 C14 1.360 . S
C13 C12 1.413 . S
C13 C17 1.429 . S
C14 C12 1.360 . S
C14 C15 1.372 . S
C15 H10 0.928 . S
C15 C14 1.372 . S
C15 C16 1.404 . S
C16 C15 1.404 . S
C16 C17 1.391 . S
C17 H11 0.930 . S
C17 C13 1.429 . S
C17 C16 1.391 . S
H18 C21 0.931 . S
H19 C24 0.928 1_455 S
H20 C26 0.930 1_556 S
C21 H18 0.931 . S
C21 C22 1.413 . S
C21 C23 1.360 . S
C22 C21 1.413 . S
C22 C26 1.429 . S
C23 C21 1.360 . S
C23 C24 1.372 . S
C24 H19 0.928 1_655 S
C24 C23 1.372 . S
C24 C25 1.404 . S
C25 C24 1.404 . S
C25 C26 1.391 . S
C26 H20 0.930 1_554 S
C26 C22 1.429 . S
C26 C25 1.391 . S
H27 C30 0.931 . S
H28 C33 0.928 . S
H29 C35 0.930 . S
C30 H27 0.931 . S
C30 C31 1.413 . S
C30 C32 1.360 . S
C31 C30 1.413 . S
C31 C35 1.429 . S
C32 C30 1.360 . S
C32 C33 1.372 . S
C33 H28 0.928 . S
C33 C32 1.372 . S
C33 C34 1.404 . S
C34 C33 1.404 . S
C34 C35 1.391 . S
C35 H29 0.930 . S
C35 C31 1.429 . S
C35 C34 1.391 . S
H36 C39 0.931 1_655 S
H37 C42 0.938 . S
H38 C44 0.930 . S
C39 H36 0.931 1_455 S
C39 C40 1.413 . S
C39 C41 1.360 . S
C40 C39 1.413 . S
C40 C44 1.429 . S
C41 C39 1.360 . S
C41 C42 1.364 1_565 S
C42 H37 0.938 . S
C42 C41 1.364 1_545 S
C42 C43 1.402 1_545 S
C43 C42 1.402 1_565 S
C43 C44 1.391 . S
C44 H38 0.930 . S
C44 C40 1.429 . S
C44 C43 1.391 . S
H45 C48 0.931 . S
H46 C51 0.928 . S
H47 C53 0.930 . S
C48 H45 0.931 . S
C48 C49 1.413 . S
C48 C50 1.360 . S
C49 C48 1.413 . S
C49 C53 1.429 . S
C50 C48 1.360 . S
C50 C51 1.372 . S
C51 H46 0.928 . S
C51 C50 1.372 . S
C51 C52 1.404 . S
C52 C51 1.404 . S
C52 C53 1.391 . S
C53 H47 0.930 . S
C53 C49 1.429 . S
C53 C52 1.391 . S
H54 C57 0.931 . S
H55 C60 0.928 . S
H56 C62 0.930 . S
C57 H54 0.931 . S
C57 C58 1.413 . S
C57 C59 1.360 . S
C58 C57 1.413 . S
C58 C62 1.429 . S
C59 C57 1.360 . S
C59 C60 1.372 1_655 S
C60 H55 0.928 . S
C60 C59 1.372 1_455 S
C60 C61 1.404 1_455 S
C61 C60 1.404 1_655 S
C61 C62 1.391 . S
C62 H56 0.930 . S
C62 C58 1.429 . S
C62 C61 1.391 . S
H63 C66 0.931 . S
H64 C69 0.928 . S
H65 C71 0.930 . S
C66 H63 0.931 . S
C66 C67 1.413 . S
C66 C68 1.360 . S
C67 C66 1.413 . S
C67 C71 1.429 . S
C68 C66 1.360 . S
C68 C69 1.372 . S
C69 H64 0.928 . S
C69 C68 1.372 . S
C69 C70 1.404 . S
C70 C69 1.404 . S
C70 C71 1.391 . S
C71 H65 0.930 . S
C71 C67 1.429 . S
C71 C70 1.391 . S
H72 C75 0.931 . S
H73 C78 0.928 . S
H74 C80 0.930 . S
C75 H72 0.931 . S
C75 C76 1.413 . S
C75 C77 1.360 . S
C76 C75 1.413 . S
C76 C80 1.429 . S
C77 C75 1.360 . S
C77 C78 1.372 . S
C78 H73 0.928 . S
C78 C77 1.372 . S
C78 C79 1.404 . S
C79 C78 1.404 . S
C79 C80 1.391 . S
C80 H74 0.930 . S
C80 C76 1.429 . S
C80 C79 1.391 . S
H81 C84 0.931 1_545 S
H82 C87 0.928 . S
H83 C89 0.930 . S
C84 H81 0.931 1_565 S
C84 C85 1.413 . S
C84 C86 1.360 . S
C85 C84 1.413 . S
C85 C89 1.429 . S
C86 C84 1.360 . S
C86 C87 1.372 . S
C87 H82 0.928 . S
C87 C86 1.372 . S
C87 C88 1.404 . S
C88 C87 1.404 . S
C88 C89 1.391 . S
C89 H83 0.930 . S
C89 C85 1.429 . S
C89 C88 1.391 . S
H90 C93 0.931 . S
H91 C96 0.928 . S
H92 C98 0.930 . S
C93 H90 0.931 . S
C93 C94 1.413 . S
C93 C95 1.360 . S
C94 C93 1.413 . S
C94 C98 1.429 . S
C95 C93 1.360 . S
C95 C96 1.372 . S
C96 H91 0.928 . S
C96 C95 1.372 . S
C96 C97 1.404 . S
C97 C96 1.404 . S
C97 C98 1.391 . S
C98 H92 0.930 . S
C98 C94 1.429 . S
C98 C97 1.391 . S
H99 C102 0.931 . S
H100 C105 0.928 . S
H101 C107 0.930 . S
C102 H99 0.931 . S
C102 C103 1.413 . S
C102 C104 1.360 . S
C103 C102 1.413 . S
C103 C107 1.429 . S
C104 C102 1.360 . S
C104 C105 1.372 . S
C105 H100 0.928 . S
C105 C104 1.372 . S
C105 C106 1.404 . S
C106 C105 1.404 . S
C106 C107 1.391 . S
C107 H101 0.930 . S
C107 C103 1.429 . S
C107 C106 1.391 . S
H108 C111 0.931 . S
H109 C114 0.928 . S
H110 C116 0.930 . S
C111 H108 0.931 . S
C111 C112 1.413 . S
C111 C113 1.360 . S
C112 C111 1.413 . S
C112 C116 1.429 . S
C113 C111 1.360 . S
C113 C114 1.372 . S
C114 H109 0.928 . S
C114 C113 1.372 . S
C114 C115 1.404 . S
C115 C114 1.404 . S
C115 C116 1.391 . S
C116 H110 0.930 . S
C116 C112 1.429 . S
C116 C115 1.391 . S
H117 C120 0.931 . S
H118 C123 0.928 . S
H119 C125 0.930 1_554 S
C120 H117 0.931 . S
C120 C121 1.413 . S
C120 C122 1.360 . S
C121 C120 1.413 . S
C121 C125 1.429 . S
C122 C120 1.360 . S
C122 C123 1.372 . S
C123 H118 0.928 . S
C123 C122 1.372 . S
C123 C124 1.404 . S
C124 C123 1.404 . S
C124 C125 1.391 . S
C125 H119 0.930 1_556 S
C125 C121 1.429 . S
C125 C124 1.391 . S
H126 C129 0.931 . S
H127 C132 0.928 . S
H128 C134 0.930 . S
C129 H126 0.931 . S
C129 C130 1.413 . S
C129 C131 1.360 . S
C130 C129 1.413 . S
C130 C134 1.429 . S
C131 C129 1.360 . S
C131 C132 1.372 . S
C132 H127 0.928 . S
C132 C131 1.372 . S
C132 C133 1.404 . S
C133 C132 1.404 . S
C133 C134 1.391 . S
C134 H128 0.930 . S
C134 C130 1.429 . S
C134 C133 1.391 . S
H135 C138 0.931 . S
H136 C141 0.928 . S
H137 C143 0.930 1_565 S
C138 H135 0.931 . S
C138 C139 1.413 1_554 S
C138 C140 1.360 1_554 S
C139 C138 1.413 1_556 S
C139 C143 1.429 . S
C140 C138 1.360 1_556 S
C140 C141 1.372 . S
C141 H136 0.928 . S
C141 C140 1.372 . S
C141 C142 1.404 . S
C142 C141 1.404 . S
C142 C143 1.391 . S
C143 H137 0.930 1_545 S
C143 C139 1.429 . S
C143 C142 1.391 . S
Mn144 O149 2.095 . S
Mn144 O159 2.162 . S
Mn144 O160 2.297 . S
Mn144 O168 2.385 1_554 S
Mn144 O169 2.209 1_554 S
Mn144 O170 2.094 . S
Mn145 O150 2.121 . S
Mn145 N152 2.257 . S
Mn145 N161 2.282 . S
Mn145 O169 2.215 . S
Mn145 O171 2.117 . S
C146 O168 1.234 . S
C146 O169 1.283 . S
C147 O159 1.281 . S
C147 O160 1.236 . S
C148 O170 1.240 . S
C148 O171 1.264 1_554 S
O149 Mn144 2.095 . S
O149 C158 1.250 1_554 S
O150 Mn145 2.121 . S
O150 C158 1.258 . S
C151 N152 1.326 . S
C151 C155 1.460 . S
C151 H157 0.929 . S
N152 Mn145 2.257 . S
N152 C151 1.326 . S
N152 C156 1.362 . S
C153 C154 1.258 . S
C153 C156 1.431 . S
C153 C173 1.449 . S
C154 C153 1.258 . S
C154 C155 1.477 . S
C154 H174 0.931 . S
C155 C151 1.460 . S
C155 C154 1.477 . S
C155 H175 0.930 . S
C156 N152 1.362 . S
C156 C153 1.431 . S
C156 C166 1.476 . S
H157 C151 0.929 . S
C158 O149 1.250 1_556 S
C158 O150 1.258 . S
O159 Mn144 2.162 . S
O159 C147 1.281 . S
O160 Mn144 2.297 . S
O160 C147 1.236 . S
N161 Mn145 2.282 . S
N161 C162 1.328 . S
N161 C166 1.318 . S
C162 N161 1.328 . S
C162 C163 1.457 . S
C162 H167 0.929 . S
C163 C162 1.457 . S
C163 C164 1.291 . S
C163 H176 0.931 . S
C164 C163 1.291 . S
C164 C165 1.373 . S
C164 H177 0.929 . S
C165 C164 1.373 . S
C165 C166 1.396 . S
C165 C172 1.403 . S
C166 C156 1.476 . S
C166 N161 1.318 . S
C166 C165 1.396 . S
H167 C162 0.929 . S
O168 Mn144 2.385 1_556 S
O168 C146 1.234 . S
O169 Mn144 2.209 1_556 S
O169 Mn145 2.215 . S
O169 C146 1.283 . S
O170 Mn144 2.094 . S
O170 C148 1.240 . S
O171 Mn145 2.117 . S
O171 C148 1.264 1_556 S
C172 C165 1.403 . S
C172 C173 1.399 . S
C172 H178 0.929 . S
C173 C153 1.449 . S
C173 C172 1.399 . S
C173 H179 0.930 . S
H174 C154 0.931 . S
H175 C155 0.930 . S
H176 C163 0.931 . S
H177 C164 0.929 . S
H178 C172 0.929 . S
H179 C173 0.930 . S
Mn180 O185 2.095 . S
Mn180 O195 2.162 . S
Mn180 O196 2.297 . S
Mn180 O204 2.385 . S
Mn180 O205 2.209 . S
Mn180 O206 2.094 . S
Mn181 O186 2.121 . S
Mn181 N188 2.257 . S
Mn181 N197 2.282 . S
Mn181 O205 2.215 . S
Mn181 O207 2.117 . S
C182 O204 1.234 . S
C182 O205 1.283 . S
C183 O195 1.281 . S
C183 O196 1.236 . S
C184 O206 1.240 . S
C184 O207 1.264 . S
O185 Mn180 2.095 . S
O185 C194 1.250 . S
O186 Mn181 2.121 . S
O186 C194 1.258 . S
C187 N188 1.326 . S
C187 C191 1.460 . S
C187 H193 0.929 . S
N188 Mn181 2.257 . S
N188 C187 1.326 . S
N188 C192 1.362 . S
C189 C190 1.258 . S
C189 C192 1.431 . S
C189 C209 1.449 . S
C190 C189 1.258 . S
C190 C191 1.477 . S
C190 H210 0.931 . S
C191 C187 1.460 . S
C191 C190 1.477 . S
C191 H211 0.930 . S
C192 N188 1.362 . S
C192 C189 1.431 . S
C192 C202 1.476 . S
H193 C187 0.929 . S
C194 O185 1.250 . S
C194 O186 1.258 . S
O195 Mn180 2.162 . S
O195 C183 1.281 . S
O196 Mn180 2.297 . S
O196 C183 1.236 . S
N197 Mn181 2.282 . S
N197 C198 1.328 . S
N197 C202 1.318 . S
C198 N197 1.328 . S
C198 C199 1.457 . S
C198 H203 0.929 . S
C199 C198 1.457 . S
C199 C200 1.291 . S
C199 H212 0.931 . S
C200 C199 1.291 . S
C200 C201 1.373 . S
C200 H213 0.929 . S
C201 C200 1.373 . S
C201 C202 1.396 . S
C201 C208 1.403 . S
C202 C192 1.476 . S
C202 N197 1.318 . S
C202 C201 1.396 . S
H203 C198 0.929 . S
O204 Mn180 2.385 . S
O204 C182 1.234 . S
O205 Mn180 2.209 . S
O205 Mn181 2.215 . S
O205 C182 1.283 . S
O206 Mn180 2.094 . S
O206 C184 1.240 . S
O207 Mn181 2.117 . S
O207 C184 1.264 . S
C208 C201 1.403 . S
C208 C209 1.399 . S
C208 H214 0.929 . S
C209 C189 1.449 . S
C209 C208 1.399 . S
C209 H215 0.930 . S
H210 C190 0.931 . S
H211 C191 0.930 . S
H212 C199 0.931 . S
H213 C200 0.929 . S
H214 C208 0.929 . S
H215 C209 0.930 . S
Mn216 O221 2.095 1_554 S
Mn216 O231 2.162 . S
Mn216 O232 2.297 1_554 S
Mn216 O240 2.385 . S
Mn216 O241 2.209 1_554 S
Mn216 O242 2.094 . S
Mn217 O222 2.121 . S
Mn217 N224 2.257 . S
Mn217 N233 2.282 . S
Mn217 O241 2.215 . S
Mn217 O243 2.117 1_556 S
C218 O240 1.258 . S
C218 O241 1.266 1_554 S
C219 O231 1.281 . S
C219 O232 1.236 1_554 S
C220 O242 1.240 . S
C220 O243 1.264 . S
O221 Mn216 2.095 1_556 S
O221 C230 1.250 . S
O222 Mn217 2.121 . S
O222 C230 1.258 . S
C223 N224 1.326 . S
C223 C227 1.460 . S
C223 H229 0.929 . S
N224 Mn217 2.257 . S
N224 C223 1.326 . S
N224 C228 1.362 . S
C225 C226 1.258 . S
C225 C228 1.431 . S
C225 C245 1.449 . S
C226 C225 1.258 . S
C226 C227 1.477 . S
C226 H246 0.931 . S
C227 C223 1.460 . S
C227 C226 1.477 . S
C227 H247 0.930 . S
C228 N224 1.362 . S
C228 C225 1.431 . S
C228 C238 1.476 . S
H229 C223 0.929 . S
C230 O221 1.250 . S
C230 O222 1.258 . S
O231 Mn216 2.162 . S
O231 C219 1.281 . S
O232 Mn216 2.297 1_556 S
O232 C219 1.236 1_556 S
N233 Mn217 2.282 . S
N233 C234 1.328 1_556 S
N233 C238 1.318 . S
C234 N233 1.328 1_554 S
C234 C235 1.457 . S
C234 H239 0.929 . S
C235 C234 1.457 . S
C235 C236 1.291 . S
C235 H248 0.931 . S
C236 C235 1.291 . S
C236 C237 1.373 1_554 S
C236 H249 0.929 . S
C237 C236 1.373 1_556 S
C237 C238 1.396 . S
C237 C244 1.403 . S
C238 C228 1.476 . S
C238 N233 1.318 . S
C238 C237 1.396 . S
H239 C234 0.929 . S
O240 Mn216 2.385 . S
O240 C218 1.258 . S
O241 Mn216 2.209 1_556 S
O241 Mn217 2.215 . S
O241 C218 1.266 1_556 S
O242 Mn216 2.094 . S
O242 C220 1.240 . S
O243 Mn217 2.117 1_554 S
O243 C220 1.264 . S
C244 C237 1.403 . S
C244 C245 1.399 . S
C244 H250 0.929 . S
C245 C225 1.449 . S
C245 C244 1.399 . S
C245 H251 0.930 . S
H246 C226 0.931 . S
H247 C227 0.930 . S
H248 C235 0.931 . S
H249 C236 0.929 . S
H250 C244 0.929 . S
H251 C245 0.930 . S
Mn252 O257 2.095 . S
Mn252 O267 2.162 . S
Mn252 O268 2.297 . S
Mn252 O276 2.385 1_545 S
Mn252 O277 2.209 1_545 S
Mn252 O278 2.094 . S
Mn253 O258 2.121 . S
Mn253 N260 2.257 . S
Mn253 N269 2.282 . S
Mn253 O277 2.215 . S
Mn253 O279 2.117 . S
C254 O276 1.234 . S
C254 O277 1.283 . S
C255 O267 1.281 . S
C255 O268 1.236 . S
C256 O278 1.240 . S
C256 O279 1.264 1_545 S
O257 Mn252 2.095 . S
O257 C266 1.250 1_545 S
O258 Mn253 2.121 . S
O258 C266 1.258 . S
C259 N260 1.326 . S
C259 C263 1.460 . S
C259 H265 0.929 . S
N260 Mn253 2.257 . S
N260 C259 1.326 . S
N260 C264 1.362 . S
C261 C262 1.258 . S
C261 C264 1.431 . S
C261 C281 1.449 . S
C262 C261 1.258 . S
C262 C263 1.477 . S
C262 H282 0.931 . S
C263 C259 1.460 . S
C263 C262 1.477 . S
C263 H283 0.930 . S
C264 N260 1.362 . S
C264 C261 1.431 . S
C264 C274 1.476 . S
H265 C259 0.929 . S
C266 O257 1.250 1_565 S
C266 O258 1.258 . S
O267 Mn252 2.162 . S
O267 C255 1.281 . S
O268 Mn252 2.297 . S
O268 C255 1.236 . S
N269 Mn253 2.282 . S
N269 C270 1.328 . S
N269 C274 1.318 . S
C270 N269 1.328 . S
C270 C271 1.457 . S
C270 H275 0.929 . S
C271 C270 1.457 . S
C271 C272 1.291 . S
C271 H284 0.931 . S
C272 C271 1.291 . S
C272 C273 1.373 . S
C272 H285 0.929 . S
C273 C272 1.373 . S
C273 C274 1.396 . S
C273 C280 1.403 . S
C274 C264 1.476 . S
C274 N269 1.318 . S
C274 C273 1.396 . S
H275 C270 0.929 . S
O276 Mn252 2.385 1_565 S
O276 C254 1.234 . S
O277 Mn252 2.209 1_565 S
O277 Mn253 2.215 . S
O277 C254 1.283 . S
O278 Mn252 2.094 . S
O278 C256 1.240 . S
O279 Mn253 2.117 . S
O279 C256 1.264 1_565 S
C280 C273 1.403 . S
C280 C281 1.399 . S
C280 H286 0.929 . S
C281 C261 1.449 . S
C281 C280 1.399 . S
C281 H287 0.930 . S
H282 C262 0.931 . S
H283 C263 0.930 . S
H284 C271 0.931 . S
H285 C272 0.929 . S
H286 C280 0.929 . S
H287 C281 0.930 . S
Mn288 O293 2.095 . S
Mn288 O303 2.162 . S
Mn288 O304 2.297 . S
Mn288 O312 2.385 . S
Mn288 O313 2.209 . S
Mn288 O314 2.094 . S
Mn289 O294 2.121 . S
Mn289 N296 2.257 . S
Mn289 N305 2.282 . S
Mn289 O313 2.215 . S
Mn289 O315 2.117 . S
C290 O312 1.234 . S
C290 O313 1.283 . S
C291 O303 1.281 . S
C291 O304 1.236 . S
C292 O314 1.240 . S
C292 O315 1.264 . S
O293 Mn288 2.095 . S
O293 C302 1.250 . S
O294 Mn289 2.121 . S
O294 C302 1.258 . S
C295 N296 1.326 . S
C295 C299 1.460 . S
C295 H301 0.929 . S
N296 Mn289 2.257 . S
N296 C295 1.326 . S
N296 C300 1.362 . S
C297 C298 1.258 . S
C297 C300 1.431 . S
C297 C317 1.449 . S
C298 C297 1.258 . S
C298 C299 1.477 . S
C298 H318 0.931 . S
C299 C295 1.460 . S
C299 C298 1.477 . S
C299 H319 0.930 . S
C300 N296 1.362 . S
C300 C297 1.431 . S
C300 C310 1.476 . S
H301 C295 0.929 . S
C302 O293 1.250 . S
C302 O294 1.258 . S
O303 Mn288 2.162 . S
O303 C291 1.281 . S
O304 Mn288 2.297 . S
O304 C291 1.236 . S
N305 Mn289 2.282 . S
N305 C306 1.328 . S
N305 C310 1.318 . S
C306 N305 1.328 . S
C306 C307 1.457 . S
C306 H311 0.929 . S
C307 C306 1.457 . S
C307 C308 1.291 . S
C307 H320 0.931 . S
C308 C307 1.291 . S
C308 C309 1.373 . S
C308 H321 0.929 . S
C309 C308 1.373 . S
C309 C310 1.396 . S
C309 C316 1.403 . S
C310 C300 1.476 . S
C310 N305 1.318 . S
C310 C309 1.396 . S
H311 C306 0.929 . S
O312 Mn288 2.385 . S
O312 C290 1.234 . S
O313 Mn288 2.209 . S
O313 Mn289 2.215 . S
O313 C290 1.283 . S
O314 Mn288 2.094 . S
O314 C292 1.240 . S
O315 Mn289 2.117 . S
O315 C292 1.264 . S
C316 C309 1.403 . S
C316 C317 1.399 . S
C316 H322 0.929 . S
C317 C297 1.449 . S
C317 C316 1.399 . S
C317 H323 0.930 . S
H318 C298 0.931 . S
H319 C299 0.930 . S
H320 C307 0.931 . S
H321 C308 0.929 . S
H322 C316 0.929 . S
H323 C317 0.930 . S
Mn324 O329 2.095 . S
Mn324 O339 2.162 . S
Mn324 O340 2.297 . S
Mn324 O348 2.385 . S
Mn324 O349 2.209 . S
Mn324 O350 2.094 . S
Mn325 O330 2.121 . S
Mn325 N332 2.257 . S
Mn325 N341 2.282 . S
Mn325 O349 2.215 . S
Mn325 O351 2.117 . S
C326 O348 1.234 . S
C326 O349 1.283 . S
C327 O339 1.281 . S
C327 O340 1.236 . S
C328 O350 1.240 . S
C328 O351 1.264 . S
O329 Mn324 2.095 . S
O329 C338 1.250 . S
O330 Mn325 2.121 . S
O330 C338 1.258 . S
C331 N332 1.326 . S
C331 C335 1.460 . S
C331 H337 0.929 . S
N332 Mn325 2.257 . S
N332 C331 1.326 . S
N332 C336 1.362 . S
C333 C334 1.258 . S
C333 C336 1.431 . S
C333 C353 1.449 . S
C334 C333 1.258 . S
C334 C335 1.477 . S
C334 H354 0.931 . S
C335 C331 1.460 . S
C335 C334 1.477 . S
C335 H355 0.930 . S
C336 N332 1.362 . S
C336 C333 1.431 . S
C336 C346 1.476 . S
H337 C331 0.929 . S
C338 O329 1.250 . S
C338 O330 1.258 . S
O339 Mn324 2.162 . S
O339 C327 1.281 . S
O340 Mn324 2.297 . S
O340 C327 1.236 . S
N341 Mn325 2.282 . S
N341 C342 1.328 . S
N341 C346 1.318 . S
C342 N341 1.328 . S
C342 C343 1.457 . S
C342 H347 0.929 . S
C343 C342 1.457 . S
C343 C344 1.291 . S
C343 H356 0.931 . S
C344 C343 1.291 . S
C344 C345 1.373 . S
C344 H357 0.929 . S
C345 C344 1.373 . S
C345 C346 1.396 . S
C345 C352 1.403 . S
C346 C336 1.476 . S
C346 N341 1.318 . S
C346 C345 1.396 . S
H347 C342 0.929 . S
O348 Mn324 2.385 . S
O348 C326 1.234 . S
O349 Mn324 2.209 . S
O349 Mn325 2.215 . S
O349 C326 1.283 . S
O350 Mn324 2.094 . S
O350 C328 1.240 . S
O351 Mn325 2.117 . S
O351 C328 1.264 . S
C352 C345 1.403 . S
C352 C353 1.399 . S
C352 H358 0.929 . S
C353 C333 1.449 . S
C353 C352 1.399 . S
C353 H359 0.930 . S
H354 C334 0.931 . S
H355 C335 0.930 . S
H356 C343 0.931 . S
H357 C344 0.929 . S
H358 C352 0.929 . S
H359 C353 0.930 . S
Mn360 O365 2.095 . S
Mn360 O375 2.162 . S
Mn360 O376 2.297 . S
Mn360 O384 2.385 . S
Mn360 O385 2.209 . S
Mn360 O386 2.094 . S
Mn361 O366 2.121 . S
Mn361 N368 2.257 . S
Mn361 N377 2.282 . S
Mn361 O385 2.215 . S
Mn361 O387 2.117 . S
C362 O384 1.234 . S
C362 O385 1.283 . S
C363 O375 1.281 . S
C363 O376 1.236 . S
C364 O386 1.240 . S
C364 O387 1.264 . S
O365 Mn360 2.095 . S
O365 C374 1.250 . S
O366 Mn361 2.121 . S
O366 C374 1.258 . S
C367 N368 1.326 . S
C367 C371 1.460 . S
C367 H373 0.929 . S
N368 Mn361 2.257 . S
N368 C367 1.326 . S
N368 C372 1.362 . S
C369 C370 1.258 . S
C369 C372 1.431 . S
C369 C389 1.449 . S
C370 C369 1.258 . S
C370 C371 1.477 . S
C370 H390 0.931 . S
C371 C367 1.460 . S
C371 C370 1.477 . S
C371 H391 0.930 . S
C372 N368 1.362 . S
C372 C369 1.431 . S
C372 C382 1.476 . S
H373 C367 0.929 . S
C374 O365 1.250 . S
C374 O366 1.258 . S
O375 Mn360 2.162 . S
O375 C363 1.281 . S
O376 Mn360 2.297 . S
O376 C363 1.236 . S
N377 Mn361 2.282 . S
N377 C378 1.328 . S
N377 C382 1.318 . S
C378 N377 1.328 . S
C378 C379 1.457 . S
C378 H383 0.929 . S
C379 C378 1.457 . S
C379 C380 1.291 . S
C379 H392 0.931 . S
C380 C379 1.291 . S
C380 C381 1.373 . S
C380 H393 0.929 . S
C381 C380 1.373 . S
C381 C382 1.396 . S
C381 C388 1.403 . S
C382 C372 1.476 . S
C382 N377 1.318 . S
C382 C381 1.396 . S
H383 C378 0.929 . S
O384 Mn360 2.385 . S
O384 C362 1.234 . S
O385 Mn360 2.209 . S
O385 Mn361 2.215 . S
O385 C362 1.283 . S
O386 Mn360 2.094 . S
O386 C364 1.240 . S
O387 Mn361 2.117 . S
O387 C364 1.264 . S
C388 C381 1.403 . S
C388 C389 1.399 . S
C388 H394 0.929 . S
C389 C369 1.449 . S
C389 C388 1.399 . S
C389 H395 0.930 . S
H390 C370 0.931 . S
H391 C371 0.930 . S
H392 C379 0.931 . S
H393 C380 0.929 . S
H394 C388 0.929 . S
H395 C389 0.930 . S
Mn396 O401 2.095 . S
Mn396 O411 2.162 . S
Mn396 O412 2.297 . S
Mn396 O420 2.385 1_565 S
Mn396 O421 2.209 1_565 S
Mn396 O422 2.094 . S
Mn397 O402 2.121 . S
Mn397 N404 2.257 . S
Mn397 N413 2.282 . S
Mn397 O421 2.215 . S
Mn397 O423 2.117 . S
C398 O420 1.234 . S
C398 O421 1.283 . S
C399 O411 1.281 . S
C399 O412 1.236 . S
C400 O422 1.223 1_545 S
C400 O423 1.285 . S
O401 Mn396 2.095 . S
O401 C410 1.250 1_565 S
O402 Mn397 2.121 . S
O402 C410 1.258 . S
C403 N404 1.326 . S
C403 C407 1.460 . S
C403 H409 0.929 . S
N404 Mn397 2.257 . S
N404 C403 1.326 . S
N404 C408 1.362 . S
C405 C406 1.258 . S
C405 C408 1.431 . S
C405 C425 1.449 . S
C406 C405 1.258 . S
C406 C407 1.477 . S
C406 H426 0.931 . S
C407 C403 1.460 . S
C407 C406 1.477 . S
C407 H427 0.930 . S
C408 N404 1.362 . S
C408 C405 1.431 . S
C408 C418 1.476 . S
H409 C403 0.929 . S
C410 O401 1.250 1_545 S
C410 O402 1.258 . S
O411 Mn396 2.162 . S
O411 C399 1.281 . S
O412 Mn396 2.297 . S
O412 C399 1.236 . S
N413 Mn397 2.282 . S
N413 C414 1.328 . S
N413 C418 1.318 . S
C414 N413 1.328 . S
C414 C415 1.457 . S
C414 H419 0.929 . S
C415 C414 1.457 . S
C415 C416 1.291 . S
C415 H428 0.931 . S
C416 C415 1.291 . S
C416 C417 1.373 . S
C416 H429 0.929 . S
C417 C416 1.373 . S
C417 C418 1.396 . S
C417 C424 1.403 . S
C418 C408 1.476 . S
C418 N413 1.318 . S
C418 C417 1.396 . S
H419 C414 0.929 . S
O420 Mn396 2.385 1_545 S
O420 C398 1.234 . S
O421 Mn396 2.209 1_545 S
O421 Mn397 2.215 . S
O421 C398 1.283 . S
O422 Mn396 2.094 . S
O422 C400 1.223 1_565 S
O423 Mn397 2.117 . S
O423 C400 1.285 . S
C424 C417 1.403 . S
C424 C425 1.399 . S
C424 H430 0.929 . S
C425 C405 1.449 . S
C425 C424 1.399 . S
C425 H431 0.930 . S
H426 C406 0.931 . S
H427 C407 0.930 . S
H428 C415 0.931 . S
H429 C416 0.929 . S
H430 C424 0.929 . S
H431 C425 0.930 . S
Mn432 O437 2.095 . S
Mn432 O447 2.162 . S
Mn432 O448 2.297 . S
Mn432 O456 2.385 1_455 S
Mn432 O457 2.209 1_455 S
Mn432 O458 2.094 . S
Mn433 O438 2.121 . S
Mn433 N440 2.257 . S
Mn433 N449 2.282 . S
Mn433 O457 2.215 . S
Mn433 O459 2.117 . S
C434 O456 1.234 . S
C434 O457 1.283 . S
C435 O447 1.281 . S
C435 O448 1.236 . S
C436 O458 1.240 . S
C436 O459 1.264 1_455 S
O437 Mn432 2.095 . S
O437 C446 1.250 1_455 S
O438 Mn433 2.121 . S
O438 C446 1.258 . S
C439 N440 1.326 . S
C439 C443 1.460 . S
C439 H445 0.929 . S
N440 Mn433 2.257 . S
N440 C439 1.326 . S
N440 C444 1.362 . S
C441 C442 1.258 . S
C441 C444 1.431 . S
C441 C461 1.449 . S
C442 C441 1.258 . S
C442 C443 1.477 . S
C442 H462 0.931 . S
C443 C439 1.460 . S
C443 C442 1.477 . S
C443 H463 0.930 . S
C444 N440 1.362 . S
C444 C441 1.431 . S
C444 C454 1.476 . S
H445 C439 0.929 . S
C446 O437 1.250 1_655 S
C446 O438 1.258 . S
O447 Mn432 2.162 . S
O447 C435 1.281 . S
O448 Mn432 2.297 . S
O448 C435 1.236 . S
N449 Mn433 2.282 . S
N449 C450 1.328 . S
N449 C454 1.318 . S
C450 N449 1.328 . S
C450 C451 1.457 . S
C450 H455 0.929 . S
C451 C450 1.457 . S
C451 C452 1.291 . S
C451 H464 0.931 . S
C452 C451 1.291 . S
C452 C453 1.373 . S
C452 H465 0.929 . S
C453 C452 1.373 . S
C453 C454 1.396 . S
C453 C460 1.403 . S
C454 C444 1.476 . S
C454 N449 1.318 . S
C454 C453 1.396 . S
H455 C450 0.929 . S
O456 Mn432 2.385 1_655 S
O456 C434 1.234 . S
O457 Mn432 2.209 1_655 S
O457 Mn433 2.215 . S
O457 C434 1.283 . S
O458 Mn432 2.094 . S
O458 C436 1.240 . S
O459 Mn433 2.117 . S
O459 C436 1.264 1_655 S
C460 C453 1.403 . S
C460 C461 1.399 . S
C460 H466 0.929 . S
C461 C441 1.449 . S
C461 C460 1.399 . S
C461 H467 0.930 . S
H462 C442 0.931 . S
H463 C443 0.930 . S
H464 C451 0.931 . S
H465 C452 0.929 . S
H466 C460 0.929 . S
H467 C461 0.930 . S
Mn468 O473 2.095 . S
Mn468 O483 2.162 . S
Mn468 O484 2.297 . S
Mn468 O492 2.385 . S
Mn468 O493 2.209 . S
Mn468 O494 2.094 . S
Mn469 O474 2.121 . S
Mn469 N476 2.257 . S
Mn469 N485 2.282 . S
Mn469 O493 2.215 . S
Mn469 O495 2.117 . S
C470 O492 1.234 . S
C470 O493 1.283 . S
C471 O483 1.281 . S
C471 O484 1.236 . S
C472 O494 1.240 . S
C472 O495 1.264 . S
O473 Mn468 2.095 . S
O473 C482 1.250 . S
O474 Mn469 2.121 . S
O474 C482 1.258 . S
C475 N476 1.326 . S
C475 C479 1.460 . S
C475 H481 0.929 . S
N476 Mn469 2.257 . S
N476 C475 1.326 . S
N476 C480 1.362 . S
C477 C478 1.258 . S
C477 C480 1.431 . S
C477 C497 1.449 . S
C478 C477 1.258 . S
C478 C479 1.477 . S
C478 H498 0.931 . S
C479 C475 1.460 . S
C479 C478 1.477 . S
C479 H499 0.930 . S
C480 N476 1.362 . S
C480 C477 1.431 . S
C480 C490 1.476 . S
H481 C475 0.929 . S
C482 O473 1.250 . S
C482 O474 1.258 . S
O483 Mn468 2.162 . S
O483 C471 1.281 . S
O484 Mn468 2.297 . S
O484 C471 1.236 . S
N485 Mn469 2.282 . S
N485 C486 1.328 . S
N485 C490 1.318 . S
C486 N485 1.328 . S
C486 C487 1.457 . S
C486 H491 0.929 . S
C487 C486 1.457 . S
C487 C488 1.291 . S
C487 H500 0.931 . S
C488 C487 1.291 . S
C488 C489 1.373 . S
C488 H501 0.929 . S
C489 C488 1.373 . S
C489 C490 1.396 . S
C489 C496 1.403 . S
C490 C480 1.476 . S
C490 N485 1.318 . S
C490 C489 1.396 . S
H491 C486 0.929 . S
O492 Mn468 2.385 . S
O492 C470 1.234 . S
O493 Mn468 2.209 . S
O493 Mn469 2.215 . S
O493 C470 1.283 . S
O494 Mn468 2.094 . S
O494 C472 1.240 . S
O495 Mn469 2.117 . S
O495 C472 1.264 . S
C496 C489 1.403 . S
C496 C497 1.399 . S
C496 H502 0.929 . S
C497 C477 1.449 . S
C497 C496 1.399 . S
C497 H503 0.930 . S
H498 C478 0.931 . S
H499 C479 0.930 . S
H500 C487 0.931 . S
H501 C488 0.929 . S
H502 C496 0.929 . S
H503 C497 0.930 . S
Mn504 O509 2.095 1_455 S
Mn504 O519 2.162 . S
Mn504 O520 2.297 1_455 S
Mn504 O528 2.385 . S
Mn504 O529 2.209 1_455 S
Mn504 O530 2.094 . S
Mn505 O510 2.121 . S
Mn505 N512 2.257 . S
Mn505 N521 2.278 1_655 S
Mn505 O529 2.215 . S
Mn505 O531 2.117 1_655 S
C506 O528 1.234 . S
C506 O529 1.283 1_455 S
C507 O519 1.281 . S
C507 O520 1.236 1_455 S
C508 O530 1.240 . S
C508 O531 1.264 . S
O509 Mn504 2.095 1_655 S
O509 C518 1.250 . S
O510 Mn505 2.121 . S
O510 C518 1.258 . S
C511 N512 1.326 . S
C511 C515 1.460 . S
C511 H517 0.929 . S
N512 Mn505 2.257 . S
N512 C511 1.326 . S
N512 C516 1.362 . S
C513 C514 1.258 . S
C513 C516 1.431 . S
C513 C533 1.449 . S
C514 C513 1.258 . S
C514 C515 1.477 . S
C514 H534 0.931 . S
C515 C511 1.460 . S
C515 C514 1.477 . S
C515 H535 0.930 . S
C516 N512 1.362 . S
C516 C513 1.431 . S
C516 C526 1.476 . S
H517 C511 0.929 . S
C518 O509 1.250 . S
C518 O510 1.258 . S
O519 Mn504 2.162 . S
O519 C507 1.281 . S
O520 Mn504 2.297 1_655 S
O520 C507 1.236 1_655 S
N521 Mn505 2.278 1_455 S
N521 C522 1.338 . S
N521 C526 1.311 1_455 S
C522 N521 1.338 . S
C522 C523 1.457 . S
C522 H527 0.929 . S
C523 C522 1.457 . S
C523 C524 1.291 . S
C523 H536 0.931 . S
C524 C523 1.291 . S
C524 C525 1.373 1_455 S
C524 H537 0.929 . S
C525 C524 1.373 1_655 S
C525 C526 1.396 . S
C525 C532 1.403 . S
C526 C516 1.476 . S
C526 N521 1.311 1_655 S
C526 C525 1.396 . S
H527 C522 0.929 . S
O528 Mn504 2.385 . S
O528 C506 1.234 . S
O529 Mn504 2.209 1_655 S
O529 Mn505 2.215 . S
O529 C506 1.283 1_655 S
O530 Mn504 2.094 . S
O530 C508 1.240 . S
O531 Mn505 2.117 1_455 S
O531 C508 1.264 . S
C532 C525 1.403 . S
C532 C533 1.399 . S
C532 H538 0.929 . S
C533 C513 1.449 . S
C533 C532 1.399 . S
C533 H539 0.930 . S
H534 C514 0.931 . S
H535 C515 0.930 . S
H536 C523 0.931 . S
H537 C524 0.929 . S
H538 C532 0.929 . S
H539 C533 0.930 . S
Mn540 O545 2.095 . S
Mn540 O555 2.162 . S
Mn540 O556 2.297 . S
Mn540 O564 2.385 . S
Mn540 O565 2.209 . S
Mn540 O566 2.094 . S
Mn541 O546 2.121 . S
Mn541 N548 2.257 . S
Mn541 N557 2.282 . S
Mn541 O565 2.215 . S
Mn541 O567 2.117 . S
C542 O564 1.234 . S
C542 O565 1.283 . S
C543 O555 1.281 . S
C543 O556 1.236 . S
C544 O566 1.240 . S
C544 O567 1.264 . S
O545 Mn540 2.095 . S
O545 C554 1.250 . S
O546 Mn541 2.121 . S
O546 C554 1.258 . S
C547 N548 1.326 . S
C547 C551 1.460 . S
C547 H553 0.929 . S
N548 Mn541 2.257 . S
N548 C547 1.326 . S
N548 C552 1.362 . S
C549 C550 1.258 . S
C549 C552 1.431 . S
C549 C569 1.449 . S
C550 C549 1.258 . S
C550 C551 1.477 . S
C550 H570 0.931 . S
C551 C547 1.460 . S
C551 C550 1.477 . S
C551 H571 0.930 . S
C552 N548 1.362 . S
C552 C549 1.431 . S
C552 C562 1.476 . S
H553 C547 0.929 . S
C554 O545 1.250 . S
C554 O546 1.258 . S
O555 Mn540 2.162 . S
O555 C543 1.281 . S
O556 Mn540 2.297 . S
O556 C543 1.236 . S
N557 Mn541 2.282 . S
N557 C558 1.328 . S
N557 C562 1.318 . S
C558 N557 1.328 . S
C558 C559 1.457 . S
C558 H563 0.929 . S
C559 C558 1.457 . S
C559 C560 1.291 . S
C559 H572 0.931 . S
C560 C559 1.291 . S
C560 C561 1.373 . S
C560 H573 0.929 . S
C561 C560 1.373 . S
C561 C562 1.396 . S
C561 C568 1.403 . S
C562 C552 1.476 . S
C562 N557 1.318 . S
C562 C561 1.396 . S
H563 C558 0.929 . S
O564 Mn540 2.385 . S
O564 C542 1.234 . S
O565 Mn540 2.209 . S
O565 Mn541 2.215 . S
O565 C542 1.283 . S
O566 Mn540 2.094 . S
O566 C544 1.240 . S
O567 Mn541 2.117 . S
O567 C544 1.264 . S
C568 C561 1.403 . S
C568 C569 1.399 . S
C568 H574 0.929 . S
C569 C549 1.449 . S
C569 C568 1.399 . S
C569 H575 0.930 . S
H570 C550 0.931 . S
H571 C551 0.930 . S
H572 C559 0.931 . S
H573 C560 0.929 . S
H574 C568 0.929 . S
H575 C569 0.930 . S
C576 C577 1.369 . S
C576 C578 1.419 . S
C576 H580 0.930 . S
C577 C576 1.369 . S
C577 C586 1.429 . S
C578 C576 1.419 . S
C578 C579 1.363 . S
C578 H581 0.929 . S
C579 C578 1.363 . S
C579 C585 1.428 . S
H580 C576 0.930 . S
H581 C578 0.929 . S
S582 N583 1.613 . S
S582 N584 1.610 . S
N583 S582 1.613 . S
N583 C586 1.350 . S
N584 S582 1.610 . S
N584 C585 1.351 . S
C585 C579 1.428 . S
C585 N584 1.351 . S
C585 C586 1.434 . S
C586 C577 1.429 . S
C586 N583 1.350 . S
C586 C585 1.434 . S
C587 C588 1.369 . S
C587 C589 1.419 . S
C587 H591 0.930 1_455 S
C588 C587 1.369 . S
C588 C597 1.429 . S
C589 C587 1.419 . S
C589 C590 1.363 . S
C589 H592 0.929 . S
C590 C589 1.363 . S
C590 C596 1.428 . S
H591 C587 0.930 1_655 S
H592 C589 0.929 . S
S593 N594 1.613 . S
S593 N595 1.610 . S
N594 S593 1.613 . S
N594 C597 1.350 . S
N595 S593 1.610 . S
N595 C596 1.351 . S
C596 C590 1.428 . S
C596 N595 1.351 . S
C596 C597 1.434 . S
C597 C588 1.429 . S
C597 N594 1.350 . S
C597 C596 1.434 . S
C598 C599 1.369 . S
C598 C600 1.419 . S
C598 H602 0.930 . S
C599 C598 1.369 . S
C599 C608 1.429 . S
C600 C598 1.419 . S
C600 C601 1.363 . S
C600 H603 0.929 . S
C601 C600 1.363 . S
C601 C607 1.428 . S
H602 C598 0.930 . S
H603 C600 0.929 . S
S604 N605 1.613 . S
S604 N606 1.610 . S
N605 S604 1.613 . S
N605 C608 1.350 . S
N606 S604 1.610 . S
N606 C607 1.351 . S
C607 C601 1.428 . S
C607 N606 1.351 . S
C607 C608 1.434 . S
C608 C599 1.429 . S
C608 N605 1.350 . S
C608 C607 1.434 . S
C609 C610 1.369 1_545 S
C609 C611 1.419 . S
C609 H613 0.930 1_655 S
C610 C609 1.369 1_565 S
C610 C619 1.429 . S
C611 C609 1.419 . S
C611 C612 1.363 1_545 S
C611 H614 0.929 . S
C612 C611 1.363 1_565 S
C612 C618 1.428 . S
H613 C609 0.930 1_455 S
H614 C611 0.929 . S
S615 N616 1.613 . S
S615 N617 1.610 . S
N616 S615 1.613 . S
N616 C619 1.350 . S
N617 S615 1.610 . S
N617 C618 1.351 . S
C618 C612 1.428 . S
C618 N617 1.351 . S
C618 C619 1.434 . S
C619 C610 1.429 . S
C619 N616 1.350 . S
C619 C618 1.434 . S
C620 C621 1.369 . S
C620 C622 1.419 . S
C620 H624 0.930 . S
C621 C620 1.369 . S
C621 C630 1.429 . S
C622 C620 1.419 . S
C622 C623 1.363 . S
C622 H625 0.929 . S
C623 C622 1.363 . S
C623 C629 1.428 . S
H624 C620 0.930 . S
H625 C622 0.929 . S
S626 N627 1.613 . S
S626 N628 1.610 . S
N627 S626 1.613 . S
N627 C630 1.350 . S
N628 S626 1.610 . S
N628 C629 1.351 . S
C629 C623 1.428 . S
C629 N628 1.351 . S
C629 C630 1.434 . S
C630 C621 1.429 . S
C630 N627 1.350 . S
C630 C629 1.434 . S
C631 C632 1.369 . S
C631 C633 1.419 . S
C631 H635 0.930 . S
C632 C631 1.369 . S
C632 C641 1.429 . S
C633 C631 1.419 . S
C633 C634 1.363 . S
C633 H636 0.929 . S
C634 C633 1.363 . S
C634 C640 1.428 . S
H635 C631 0.930 . S
H636 C633 0.929 . S
S637 N638 1.613 . S
S637 N639 1.610 . S
N638 S637 1.613 . S
N638 C641 1.350 . S
N639 S637 1.610 . S
N639 C640 1.351 . S
C640 C634 1.428 . S
C640 N639 1.351 . S
C640 C641 1.434 . S
C641 C632 1.429 . S
C641 N638 1.350 . S
C641 C640 1.434 . S
C642 C643 1.369 . S
C642 C644 1.419 . S
C642 H646 0.930 . S
C643 C642 1.369 . S
C643 C652 1.429 . S
C644 C642 1.419 . S
C644 C645 1.363 . S
C644 H647 0.929 . S
C645 C644 1.363 . S
C645 C651 1.428 . S
H646 C642 0.930 . S
H647 C644 0.929 . S
S648 N649 1.613 . S
S648 N650 1.610 . S
N649 S648 1.613 . S
N649 C652 1.350 . S
N650 S648 1.610 . S
N650 C651 1.351 . S
C651 C645 1.428 . S
C651 N650 1.351 . S
C651 C652 1.434 . S
C652 C643 1.429 . S
C652 N649 1.350 . S
C652 C651 1.434 . S
C653 C654 1.369 . S
C653 C655 1.419 . S
C653 H657 0.930 . S
C654 C653 1.369 . S
C654 C663 1.429 . S
C655 C653 1.419 . S
C655 C656 1.363 . S
C655 H658 0.929 . S
C656 C655 1.363 . S
C656 C662 1.428 1_565 S
H657 C653 0.930 . S
H658 C655 0.929 . S
S659 N660 1.613 . S
S659 N661 1.610 . S
N660 S659 1.613 . S
N660 C663 1.350 1_545 S
N661 S659 1.610 . S
N661 C662 1.351 . S
C662 C656 1.428 1_545 S
C662 N661 1.351 . S
C662 C663 1.434 1_545 S
C663 C654 1.429 . S
C663 N660 1.350 1_565 S
C663 C662 1.434 1_565 S
C664 C665 1.369 . S
C664 C666 1.419 . S
C664 H668 0.930 . S
C665 C664 1.369 . S
C665 C674 1.429 . S
C666 C664 1.419 . S
C666 C667 1.363 . S
C666 H669 0.929 . S
C667 C666 1.363 . S
C667 C673 1.428 . S
H668 C664 0.930 . S
H669 C666 0.929 . S
S670 N671 1.613 . S
S670 N672 1.610 . S
N671 S670 1.613 . S
N671 C674 1.350 . S
N672 S670 1.610 . S
N672 C673 1.351 . S
C673 C667 1.428 . S
C673 N672 1.351 . S
C673 C674 1.434 . S
C674 C665 1.429 . S
C674 N671 1.350 . S
C674 C673 1.434 . S
C675 C676 1.369 . S
C675 C677 1.419 . S
C675 H679 0.930 . S
C676 C675 1.369 . S
C676 C685 1.429 . S
C677 C675 1.419 . S
C677 C678 1.363 . S
C677 H680 0.929 . S
C678 C677 1.363 . S
C678 C684 1.428 . S
H679 C675 0.930 . S
H680 C677 0.929 . S
S681 N682 1.613 . S
S681 N683 1.610 . S
N682 S681 1.613 . S
N682 C685 1.350 . S
N683 S681 1.610 . S
N683 C684 1.351 . S
C684 C678 1.428 . S
C684 N683 1.351 . S
C684 C685 1.434 . S
C685 C676 1.429 . S
C685 N682 1.350 . S
C685 C684 1.434 . S
C686 C687 1.369 . S
C686 C688 1.419 . S
C686 H690 0.930 . S
C687 C686 1.369 . S
C687 C696 1.429 . S
C688 C686 1.419 . S
C688 C689 1.363 . S
C688 H691 0.929 . S
C689 C688 1.363 . S
C689 C695 1.428 . S
H690 C686 0.930 . S
H691 C688 0.929 . S
S692 N693 1.613 . S
S692 N694 1.610 . S
N693 S692 1.613 . S
N693 C696 1.350 . S
N694 S692 1.610 . S
N694 C695 1.351 . S
C695 C689 1.428 . S
C695 N694 1.351 . S
C695 C696 1.434 . S
C696 C687 1.429 . S
C696 N693 1.350 . S
C696 C695 1.434 . S
C697 C698 1.369 . S
C697 C699 1.419 . S
C697 H701 0.930 . S
C698 C697 1.369 . S
C698 C707 1.429 . S
C699 C697 1.419 . S
C699 C700 1.363 . S
C699 H702 0.929 . S
C700 C699 1.363 . S
C700 C706 1.428 . S
H701 C697 0.930 . S
H702 C699 0.929 . S
S703 N704 1.613 . S
S703 N705 1.610 . S
N704 S703 1.613 . S
N704 C707 1.350 . S
N705 S703 1.610 . S
N705 C706 1.351 . S
C706 C700 1.428 . S
C706 N705 1.351 . S
C706 C707 1.434 . S
C707 C698 1.429 . S
C707 N704 1.350 . S
C707 C706 1.434 . S
C708 C709 1.369 . S
C708 C710 1.419 . S
C708 H712 0.930 . S
C709 C708 1.369 . S
C709 C718 1.429 . S
C710 C708 1.419 . S
C710 C711 1.363 . S
C710 H713 0.929 . S
C711 C710 1.363 . S
C711 C717 1.428 . S
H712 C708 0.930 . S
H713 C710 0.929 . S
S714 N715 1.613 . S
S714 N716 1.610 . S
N715 S714 1.613 . S
N715 C718 1.350 . S
N716 S714 1.610 . S
N716 C717 1.351 . S
C717 C711 1.428 . S
C717 N716 1.351 . S
C717 C718 1.434 . S
C718 C709 1.429 . S
C718 N715 1.350 . S
C718 C717 1.434 . S
C719 C720 1.369 . S
C719 C721 1.419 . S
C719 H723 0.930 . S
C720 C719 1.369 . S
C720 C729 1.429 . S
C721 C719 1.419 . S
C721 C722 1.363 . S
C721 H724 0.929 . S
C722 C721 1.363 . S
C722 C728 1.428 . S
H723 C719 0.930 . S
H724 C721 0.929 . S
S725 N726 1.613 . S
S725 N727 1.610 . S
N726 S725 1.613 . S
N726 C729 1.350 . S
N727 S725 1.610 . S
N727 C728 1.351 . S
C728 C722 1.428 . S
C728 N727 1.351 . S
C728 C729 1.434 . S
C729 C720 1.429 . S
C729 N726 1.350 . S
C729 C728 1.434 . S
C730 C731 1.369 . S
C730 C732 1.419 . S
C730 H734 0.930 . S
C731 C730 1.369 . S
C731 C740 1.429 . S
C732 C730 1.419 . S
C732 C733 1.363 . S
C732 H735 0.929 . S
C733 C732 1.363 . S
C733 C739 1.428 . S
H734 C730 0.930 . S
H735 C732 0.929 . S
S736 N737 1.613 . S
S736 N738 1.610 . S
N737 S736 1.613 . S
N737 C740 1.350 . S
N738 S736 1.610 . S
N738 C739 1.351 . S
C739 C733 1.428 . S
C739 N738 1.351 . S
C739 C740 1.434 . S
C740 C731 1.429 . S
C740 N737 1.350 . S
C740 C739 1.434 . S
C741 C742 1.369 1_455 S
C741 C743 1.419 . S
C741 H745 0.930 . S
C742 C741 1.369 1_655 S
C742 C751 1.429 . S
C743 C741 1.419 . S
C743 C744 1.363 1_455 S
C743 H746 0.929 . S
C744 C743 1.363 1_655 S
C744 C750 1.428 . S
H745 C741 0.930 . S
H746 C743 0.929 . S
S747 N748 1.613 . S
S747 N749 1.610 . S
N748 S747 1.613 . S
N748 C751 1.350 . S
N749 S747 1.610 . S
N749 C750 1.351 . S
C750 C744 1.428 . S
C750 N749 1.351 . S
C750 C751 1.434 . S
C751 C742 1.429 . S
C751 N748 1.350 . S
C751 C750 1.434 . S
C752 C753 1.369 . S
C752 C754 1.419 . S
C752 H756 0.930 . S
C753 C752 1.369 . S
C753 C762 1.429 . S
C754 C752 1.419 . S
C754 C755 1.363 . S
C754 H757 0.929 . S
C755 C754 1.363 . S
C755 C761 1.428 . S
H756 C752 0.930 . S
H757 C754 0.929 . S
S758 N759 1.613 . S
S758 N760 1.610 . S
N759 S758 1.613 . S
N759 C762 1.350 . S
N760 S758 1.610 . S
N760 C761 1.351 . S
C761 C755 1.428 . S
C761 N760 1.351 . S
C761 C762 1.434 . S
C762 C753 1.429 . S
C762 N759 1.350 . S
C762 C761 1.434 . S
C763 C764 1.369 . S
C763 C765 1.419 . S
C763 H767 0.930 . S
C764 C763 1.369 . S
C764 C773 1.429 . S
C765 C763 1.419 . S
C765 C766 1.363 . S
C765 H768 0.929 . S
C766 C765 1.363 . S
C766 C772 1.428 . S
H767 C763 0.930 . S
H768 C765 0.929 . S
S769 N770 1.613 . S
S769 N771 1.610 . S
N770 S769 1.613 . S
N770 C773 1.350 . S
N771 S769 1.610 . S
N771 C772 1.351 . S
C772 C766 1.428 . S
C772 N771 1.351 . S
C772 C773 1.434 . S
C773 C764 1.429 . S
C773 N770 1.350 . S
C773 C772 1.434 . S
C774 C775 1.369 . S
C774 C776 1.419 1_556 S
C774 H778 0.930 1_556 S
C775 C774 1.369 . S
C775 C784 1.429 1_565 S
C776 C774 1.419 1_554 S
C776 C777 1.362 1_554 S
C776 H779 0.929 . S
C777 C776 1.362 1_556 S
C777 C783 1.432 . S
H778 C774 0.930 1_554 S
H779 C776 0.929 . S
S780 N781 1.613 . S
S780 N782 1.610 1_545 S
N781 S780 1.613 . S
N781 C784 1.350 . S
N782 S780 1.610 1_565 S
N782 C783 1.351 . S
C783 C777 1.432 . S
C783 N782 1.351 . S
C783 C784 1.434 1_565 S
C784 C775 1.429 1_545 S
C784 N781 1.350 . S
C784 C783 1.434 1_545 S
C785 C786 1.369 . S
C785 C787 1.419 . S
C785 H789 0.930 . S
C786 C785 1.369 . S
C786 C795 1.429 . S
C787 C785 1.419 . S
C787 C788 1.363 . S
C787 H790 0.929 . S
C788 C787 1.363 . S
C788 C794 1.428 . S
H789 C785 0.930 . S
H790 C787 0.929 . S
S791 N792 1.613 . S
S791 N793 1.610 . S
N792 S791 1.613 . S
N792 C795 1.350 . S
N793 S791 1.610 . S
N793 C794 1.351 . S
C794 C788 1.428 . S
C794 N793 1.351 . S
C794 C795 1.434 . S
C795 C786 1.429 . S
C795 N792 1.350 . S
C795 C794 1.434 . S
C796 C797 1.369 . S
C796 C798 1.419 . S
C796 H800 0.930 . S
C797 C796 1.369 . S
C797 C806 1.429 . S
C798 C796 1.419 . S
C798 C799 1.363 . S
C798 H801 0.929 . S
C799 C798 1.363 . S
C799 C805 1.428 . S
H800 C796 0.930 . S
H801 C798 0.929 . S
S802 N803 1.613 . S
S802 N804 1.610 . S
N803 S802 1.613 . S
N803 C806 1.350 . S
N804 S802 1.610 . S
N804 C805 1.351 . S
C805 C799 1.428 . S
C805 N804 1.351 . S
C805 C806 1.434 . S
C806 C797 1.429 . S
C806 N803 1.350 . S
C806 C805 1.434 . S
C807 C808 1.369 . S
C807 C809 1.419 . S
C807 H811 0.930 . S
C808 C807 1.369 . S
C808 C817 1.429 . S
C809 C807 1.419 . S
C809 C810 1.363 . S
C809 H812 0.929 . S
C810 C809 1.363 . S
C810 C816 1.428 . S
H811 C807 0.930 . S
H812 C809 0.929 . S
S813 N814 1.613 . S
S813 N815 1.610 . S
N814 S813 1.613 . S
N814 C817 1.350 . S
N815 S813 1.610 . S
N815 C816 1.351 . S
C816 C810 1.428 . S
C816 N815 1.351 . S
C816 C817 1.434 . S
C817 C808 1.429 . S
C817 N814 1.350 . S
C817 C816 1.434 . S
C818 C819 1.369 . S
C818 C820 1.419 . S
C818 H822 0.930 1_545 S
C819 C818 1.369 . S
C819 C828 1.429 . S
C820 C818 1.419 . S
C820 C821 1.363 . S
C820 H823 0.929 . S
C821 C820 1.363 . S
C821 C827 1.428 . S
H822 C818 0.930 1_565 S
H823 C820 0.929 . S
S824 N825 1.613 . S
S824 N826 1.610 . S
N825 S824 1.613 . S
N825 C828 1.350 . S
N826 S824 1.610 . S
N826 C827 1.351 . S
C827 C821 1.428 . S
C827 N826 1.351 . S
C827 C828 1.434 . S
C828 C819 1.429 . S
C828 N825 1.350 . S
C828 C827 1.434 . S
C829 C830 1.369 . S
C829 C831 1.419 . S
C829 H833 0.930 . S
C830 C829 1.369 . S
C830 C839 1.429 . S
C831 C829 1.419 . S
C831 C832 1.363 . S
C831 H834 0.929 . S
C832 C831 1.363 . S
C832 C838 1.428 . S
H833 C829 0.930 . S
H834 C831 0.929 . S
S835 N836 1.613 . S
S835 N837 1.610 . S
N836 S835 1.613 . S
N836 C839 1.350 . S
N837 S835 1.610 . S
N837 C838 1.351 . S
C838 C832 1.428 . S
C838 N837 1.351 . S
C838 C839 1.434 . S
C839 C830 1.429 . S
C839 N836 1.350 . S
C839 C838 1.434 . S
C840 C841 1.369 . S
C840 C842 1.419 . S
C840 H844 0.930 . S
C841 C840 1.369 . S
C841 C850 1.429 . S
C842 C840 1.419 . S
C842 C843 1.363 . S
C842 H845 0.929 . S
C843 C842 1.363 . S
C843 C849 1.428 . S
H844 C840 0.930 . S
H845 C842 0.929 . S
S846 N847 1.613 . S
S846 N848 1.610 . S
N847 S846 1.613 . S
N847 C850 1.350 . S
N848 S846 1.610 . S
N848 C849 1.351 . S
C849 C843 1.428 . S
C849 N848 1.351 . S
C849 C850 1.434 . S
C850 C841 1.429 . S
C850 N847 1.350 . S
C850 C849 1.434 . S
C851 C852 1.369 . S
C851 C853 1.419 . S
C851 H855 0.930 . S
C852 C851 1.369 . S
C852 C861 1.429 . S
C853 C851 1.419 . S
C853 C854 1.363 . S
C853 H856 0.929 . S
C854 C853 1.363 . S
C854 C860 1.428 1_545 S
H855 C851 0.930 . S
H856 C853 0.929 . S
S857 N858 1.613 . S
S857 N859 1.610 . S
N858 S857 1.613 . S
N858 C861 1.350 1_565 S
N859 S857 1.610 . S
N859 C860 1.351 . S
C860 C854 1.428 1_565 S
C860 N859 1.351 . S
C860 C861 1.434 1_565 S
C861 C852 1.429 . S
C861 N858 1.350 1_545 S
C861 C860 1.434 1_545 S
C862 C863 1.369 . S
C862 C864 1.419 . S
C862 H866 0.930 . S
C863 C862 1.369 . S
C863 C872 1.429 . S
C864 C862 1.419 . S
C864 C865 1.363 . S
C864 H867 0.929 . S
C865 C864 1.363 . S
C865 C871 1.428 . S
H866 C862 0.930 . S
H867 C864 0.929 . S
S868 N869 1.613 . S
S868 N870 1.610 . S
N869 S868 1.613 . S
N869 C872 1.350 . S
N870 S868 1.610 . S
N870 C871 1.351 . S
C871 C865 1.428 . S
C871 N870 1.351 . S
C871 C872 1.434 . S
C872 C863 1.429 . S
C872 N869 1.350 . S
C872 C871 1.434 . S
C873 C874 1.369 . S
C873 C875 1.419 . S
C873 H877 0.930 . S
C874 C873 1.369 . S
C874 C883 1.429 . S
C875 C873 1.419 . S
C875 C876 1.363 . S
C875 H878 0.929 . S
C876 C875 1.363 . S
C876 C882 1.428 . S
H877 C873 0.930 . S
H878 C875 0.929 . S
S879 N880 1.613 . S
S879 N881 1.610 . S
N880 S879 1.613 . S
N880 C883 1.350 . S
N881 S879 1.610 . S
N881 C882 1.351 . S
C882 C876 1.428 . S
C882 N881 1.351 . S
C882 C883 1.434 . S
C883 C874 1.429 . S
C883 N880 1.350 . S
C883 C882 1.434 . S
C884 C885 1.369 . S
C884 C886 1.419 . S
C884 H888 0.930 . S
C885 C884 1.369 . S
C885 C894 1.429 . S
C886 C884 1.419 . S
C886 C887 1.363 . S
C886 H889 0.929 . S
C887 C886 1.363 . S
C887 C893 1.428 . S
H888 C884 0.930 . S
H889 C886 0.929 . S
S890 N891 1.613 . S
S890 N892 1.610 . S
N891 S890 1.613 . S
N891 C894 1.350 . S
N892 S890 1.610 . S
N892 C893 1.351 . S
C893 C887 1.428 . S
C893 N892 1.351 . S
C893 C894 1.434 . S
C894 C885 1.429 . S
C894 N891 1.350 . S
C894 C893 1.434 . S
C895 C896 1.369 . S
C895 C897 1.419 . S
C895 H899 0.930 . S
C896 C895 1.369 . S
C896 C905 1.429 1_545 S
C897 C895 1.419 . S
C897 C898 1.363 . S
C897 H900 0.929 . S
C898 C897 1.363 . S
C898 C904 1.428 1_545 S
H899 C895 0.930 . S
H900 C897 0.929 . S
S901 N902 1.613 . S
S901 N903 1.610 1_455 S
N902 S901 1.613 . S
N902 C905 1.350 1_455 S
N903 S901 1.610 1_655 S
N903 C904 1.351 . S
C904 C898 1.428 1_565 S
C904 N903 1.351 . S
C904 C905 1.434 . S
C905 C896 1.429 1_565 S
C905 N902 1.350 1_655 S
C905 C904 1.434 . S
C906 C907 1.369 . S
C906 C908 1.419 . S
C906 H910 0.930 . S
C907 C906 1.369 . S
C907 C916 1.429 . S
C908 C906 1.419 . S
C908 C909 1.363 . S
C908 H911 0.929 . S
C909 C908 1.363 . S
C909 C915 1.428 . S
H910 C906 0.930 . S
H911 C908 0.929 . S
S912 N913 1.613 . S
S912 N914 1.610 . S
N913 S912 1.613 . S
N913 C916 1.350 . S
N914 S912 1.610 . S
N914 C915 1.351 . S
C915 C909 1.428 . S
C915 N914 1.351 . S
C915 C916 1.434 . S
C916 C907 1.429 . S
C916 N913 1.350 . S
C916 C915 1.434 . S
C917 C918 1.369 . S
C917 C919 1.419 . S
C917 H921 0.930 1_455 S
C918 C917 1.369 . S
C918 C927 1.429 . S
C919 C917 1.419 . S
C919 C920 1.363 . S
C919 H922 0.929 . S
C920 C919 1.363 . S
C920 C926 1.428 . S
H921 C917 0.930 1_655 S
H922 C919 0.929 . S
S923 N924 1.613 . S
S923 N925 1.610 . S
N924 S923 1.613 . S
N924 C927 1.350 . S
N925 S923 1.610 . S
N925 C926 1.351 . S
C926 C920 1.428 . S
C926 N925 1.351 . S
C926 C927 1.434 . S
C927 C918 1.429 . S
C927 N924 1.350 . S
C927 C926 1.434 . S
C928 C929 1.369 . S
C928 C930 1.419 . S
C928 H932 0.930 . S
C929 C928 1.369 . S
C929 C938 1.429 . S
C930 C928 1.419 . S
C930 C931 1.363 . S
C930 H933 0.929 . S
C931 C930 1.363 . S
C931 C937 1.428 . S
H932 C928 0.930 . S
H933 C930 0.929 . S
S934 N935 1.613 . S
S934 N936 1.610 . S
N935 S934 1.613 . S
N935 C938 1.350 . S
N936 S934 1.610 . S
N936 C937 1.351 . S
C937 C931 1.428 . S
C937 N936 1.351 . S
C937 C938 1.434 . S
C938 C929 1.429 . S
C938 N935 1.350 . S
C938 C937 1.434 . S
C939 C940 1.369 . S
C939 C941 1.419 . S
C939 H943 0.930 1_556 S
C940 C939 1.369 . S
C940 C949 1.429 . S
C941 C939 1.419 . S
C941 C942 1.363 . S
C941 H944 0.929 . S
C942 C941 1.363 . S
C942 C948 1.428 1_655 S
H943 C939 0.930 1_554 S
H944 C941 0.929 . S
S945 N946 1.613 . S
S945 N947 1.610 . S
N946 S945 1.613 . S
N946 C949 1.350 1_455 S
N947 S945 1.610 . S
N947 C948 1.351 . S
C948 C942 1.428 1_455 S
C948 N947 1.351 . S
C948 C949 1.434 1_455 S
C949 C940 1.429 . S
C949 N946 1.350 1_655 S
C949 C948 1.434 1_655 S
C950 C951 1.369 . S
C950 C952 1.419 . S
C950 H954 0.930 . S
C951 C950 1.369 . S
C951 C960 1.429 . S
C952 C950 1.419 . S
C952 C953 1.363 . S
C952 H955 0.929 . S
C953 C952 1.363 . S
C953 C959 1.428 . S
H954 C950 0.930 . S
H955 C952 0.929 . S
S956 N957 1.613 . S
S956 N958 1.610 . S
N957 S956 1.613 . S
N957 C960 1.350 . S
N958 S956 1.610 . S
N958 C959 1.351 . S
C959 C953 1.428 . S
C959 N958 1.351 . S
C959 C960 1.434 . S
C960 C951 1.429 . S
C960 N957 1.350 . S
C960 C959 1.434 . S
C961 C962 1.369 . S
C961 C963 1.419 . S
C961 H965 0.930 . S
C962 C961 1.369 . S
C962 C971 1.429 1_556 S
C963 C961 1.419 . S
C963 C964 1.363 . S
C963 H966 0.929 . S
C964 C963 1.363 . S
C964 C970 1.428 . S
H965 C961 0.930 . S
H966 C963 0.929 . S
S967 N968 1.613 . S
S967 N969 1.610 . S
N968 S967 1.613 . S
N968 C971 1.350 1_655 S
N969 S967 1.610 . S
N969 C970 1.351 1_654 S
C970 C964 1.428 . S
C970 N969 1.351 1_456 S
C970 C971 1.434 1_556 S
C971 C962 1.429 1_554 S
C971 N968 1.350 1_455 S
C971 C970 1.434 1_554 S
C972 C973 1.369 . S
C972 C974 1.419 . S
C972 H976 0.930 . S
C973 C972 1.369 . S
C973 C982 1.429 . S
C974 C972 1.419 . S
C974 C975 1.363 . S
C974 H977 0.929 . S
C975 C974 1.363 . S
C975 C981 1.428 . S
H976 C972 0.930 . S
H977 C974 0.929 . S
S978 N979 1.613 . S
S978 N980 1.610 . S
N979 S978 1.613 . S
N979 C982 1.350 . S
N980 S978 1.610 . S
N980 C981 1.351 . S
C981 C975 1.428 . S
C981 N980 1.351 . S
C981 C982 1.434 . S
C982 C973 1.429 . S
C982 N979 1.350 . S
C982 C981 1.434 . S
C983 C984 1.369 . S
C983 C985 1.419 . S
C983 H987 0.930 1_554 S
C984 C983 1.369 . S
C984 C993 1.429 . S
C985 C983 1.419 . S
C985 C986 1.363 . S
C985 H988 0.929 . S
C986 C985 1.363 . S
C986 C992 1.428 . S
H987 C983 0.930 1_556 S
H988 C985 0.929 . S
S989 N990 1.613 . S
S989 N991 1.610 . S
N990 S989 1.613 . S
N990 C993 1.350 . S
N991 S989 1.610 . S
N991 C992 1.351 . S
C992 C986 1.428 . S
C992 N991 1.351 . S
C992 C993 1.434 . S
C993 C984 1.429 . S
C993 N990 1.350 . S
C993 C992 1.434 . S
C994 C995 1.369 . S
C994 C996 1.419 . S
C994 H998 0.930 . S
C995 C994 1.369 . S
C995 C1004 1.429 . S
C996 C994 1.419 . S
C996 C997 1.363 . S
C996 H999 0.929 . S
C997 C996 1.363 . S
C997 C1003 1.428 . S
H998 C994 0.930 . S
H999 C996 0.929 . S
S1000 N1001 1.613 . S
S1000 N1002 1.610 . S
N1001 S1000 1.613 . S
N1001 C1004 1.350 . S
N1002 S1000 1.610 . S
N1002 C1003 1.351 . S
C1003 C997 1.428 . S
C1003 N1002 1.351 . S
C1003 C1004 1.434 . S
C1004 C995 1.429 . S
C1004 N1001 1.350 . S
C1004 C1003 1.434 . S
C1005 C1006 1.369 . S
C1005 C1007 1.419 . S
C1005 H1009 0.930 1_554 S
C1006 C1005 1.369 . S
C1006 C1015 1.429 . S
C1007 C1005 1.419 . S
C1007 C1008 1.363 . S
C1007 H1010 0.929 . S
C1008 C1007 1.363 . S
C1008 C1014 1.428 . S
H1009 C1005 0.930 1_556 S
H1010 C1007 0.929 . S
S1011 N1012 1.613 . S
S1011 N1013 1.610 . S
N1012 S1011 1.613 . S
N1012 C1015 1.350 . S
N1013 S1011 1.610 . S
N1013 C1014 1.351 . S
C1014 C1008 1.428 . S
C1014 N1013 1.351 . S
C1014 C1015 1.434 . S
C1015 C1006 1.429 . S
C1015 N1012 1.350 . S
C1015 C1014 1.434 . S
C1016 C1017 1.369 . S
C1016 C1018 1.419 . S
C1016 H1020 0.930 . S
C1017 C1016 1.369 . S
C1017 C1026 1.429 . S
C1018 C1016 1.419 . S
C1018 C1019 1.363 . S
C1018 H1021 0.929 . S
C1019 C1018 1.363 . S
C1019 C1025 1.428 . S
H1020 C1016 0.930 . S
H1021 C1018 0.929 . S
S1022 N1023 1.613 . S
S1022 N1024 1.610 . S
N1023 S1022 1.613 . S
N1023 C1026 1.350 . S
N1024 S1022 1.610 . S
N1024 C1025 1.351 . S
C1025 C1019 1.428 . S
C1025 N1024 1.351 . S
C1025 C1026 1.434 . S
C1026 C1017 1.429 . S
C1026 N1023 1.350 . S
C1026 C1025 1.434 . S
C1027 C1028 1.369 . S
C1027 C1029 1.419 . S
C1027 H1031 0.930 . S
C1028 C1027 1.369 . S
C1028 C1037 1.429 . S
C1029 C1027 1.419 . S
C1029 C1030 1.363 . S
C1029 H1032 0.929 . S
C1030 C1029 1.363 . S
C1030 C1036 1.428 . S
H1031 C1027 0.930 . S
H1032 C1029 0.929 . S
S1033 N1034 1.613 . S
S1033 N1035 1.610 . S
N1034 S1033 1.613 . S
N1034 C1037 1.350 . S
N1035 S1033 1.610 . S
N1035 C1036 1.351 . S
C1036 C1030 1.428 . S
C1036 N1035 1.351 . S
C1036 C1037 1.434 . S
C1037 C1028 1.429 . S
C1037 N1034 1.350 . S
C1037 C1036 1.434 . S
C1038 C1039 1.369 . S
C1038 C1040 1.419 . S
C1038 H1042 0.930 . S
C1039 C1038 1.369 . S
C1039 C1048 1.429 . S
C1040 C1038 1.419 . S
C1040 C1041 1.363 . S
C1040 H1043 0.929 . S
C1041 C1040 1.363 . S
C1041 C1047 1.428 . S
H1042 C1038 0.930 . S
H1043 C1040 0.929 . S
S1044 N1045 1.613 . S
S1044 N1046 1.610 . S
N1045 S1044 1.613 . S
N1045 C1048 1.350 . S
N1046 S1044 1.610 . S
N1046 C1047 1.351 . S
C1047 C1041 1.428 . S
C1047 N1046 1.351 . S
C1047 C1048 1.434 . S
C1048 C1039 1.429 . S
C1048 N1045 1.350 . S
C1048 C1047 1.434 . S
C1049 C1050 1.369 . S
C1049 C1051 1.419 . S
C1049 H1053 0.930 . S
C1050 C1049 1.369 . S
C1050 C1059 1.429 . S
C1051 C1049 1.419 . S
C1051 C1052 1.363 . S
C1051 H1054 0.929 . S
C1052 C1051 1.363 . S
C1052 C1058 1.428 . S
H1053 C1049 0.930 . S
H1054 C1051 0.929 . S
S1055 N1056 1.613 . S
S1055 N1057 1.610 . S
N1056 S1055 1.613 . S
N1056 C1059 1.350 . S
N1057 S1055 1.610 . S
N1057 C1058 1.351 . S
C1058 C1052 1.428 . S
C1058 N1057 1.351 . S
C1058 C1059 1.434 . S
C1059 C1050 1.429 . S
C1059 N1056 1.350 . S
C1059 C1058 1.434 . S
C1060 C1061 1.369 . S
C1060 C1062 1.419 . S
C1060 H1064 0.935 . S
C1061 C1060 1.369 . S
C1061 C1070 1.429 . S
C1062 C1060 1.419 . S
C1062 C1063 1.363 . S
C1062 H1065 0.929 1_556 S
C1063 C1062 1.363 . S
C1063 C1069 1.428 . S
H1064 C1060 0.935 . S
H1065 C1062 0.929 1_554 S
S1066 N1067 1.613 . S
S1066 N1068 1.610 . S
N1067 S1066 1.613 . S
N1067 C1070 1.350 . S
N1068 S1066 1.610 . S
N1068 C1069 1.351 . S
C1069 C1063 1.428 . S
C1069 N1068 1.351 . S
C1069 C1070 1.434 . S
C1070 C1061 1.429 . S
C1070 N1067 1.350 . S
C1070 C1069 1.434 . S
C1071 C1072 1.369 . S
C1071 C1073 1.419 . S
C1071 H1075 0.930 . S
C1072 C1071 1.369 . S
C1072 C1081 1.429 . S
C1073 C1071 1.419 . S
C1073 C1074 1.363 . S
C1073 H1076 0.929 . S
C1074 C1073 1.363 . S
C1074 C1080 1.428 . S
H1075 C1071 0.930 . S
H1076 C1073 0.929 . S
S1077 N1078 1.613 . S
S1077 N1079 1.610 . S
N1078 S1077 1.613 . S
N1078 C1081 1.350 . S
N1079 S1077 1.610 . S
N1079 C1080 1.351 . S
C1080 C1074 1.428 . S
C1080 N1079 1.351 . S
C1080 C1081 1.434 . S
C1081 C1072 1.429 . S
C1081 N1078 1.350 . S
C1081 C1080 1.434 . S
C1082 C1083 1.369 . S
C1082 C1084 1.415 1_554 S
C1082 H1086 0.930 1_554 S
C1083 C1082 1.369 . S
C1083 C1092 1.429 . S
C1084 C1082 1.415 1_556 S
C1084 C1085 1.357 1_556 S
C1084 H1087 0.939 . S
C1085 C1084 1.357 1_554 S
C1085 C1091 1.428 . S
H1086 C1082 0.930 1_556 S
H1087 C1084 0.939 . S
S1088 N1089 1.613 . S
S1088 N1090 1.610 . S
N1089 S1088 1.613 . S
N1089 C1092 1.350 . S
N1090 S1088 1.610 . S
N1090 C1091 1.351 . S
C1091 C1085 1.428 . S
C1091 N1090 1.351 . S
C1091 C1092 1.434 . S
C1092 C1083 1.429 . S
C1092 N1089 1.350 . S
C1092 C1091 1.434 . S
C1093 C1094 1.366 1_545 S
C1093 C1095 1.414 1_545 S
C1093 H1097 0.939 . S
C1094 C1093 1.366 1_565 S
C1094 C1103 1.429 . S
C1095 C1093 1.414 1_565 S
C1095 C1096 1.363 . S
C1095 H1098 0.929 . S
C1096 C1095 1.363 . S
C1096 C1102 1.428 . S
H1097 C1093 0.939 . S
H1098 C1095 0.929 . S
S1099 N1100 1.613 . S
S1099 N1101 1.610 . S
N1100 S1099 1.613 . S
N1100 C1103 1.350 . S
N1101 S1099 1.610 . S
N1101 C1102 1.351 . S
C1102 C1096 1.428 . S
C1102 N1101 1.351 . S
C1102 C1103 1.434 . S
C1103 C1094 1.429 . S
C1103 N1100 1.350 . S
C1103 C1102 1.434 . S
C579 C146 1.450 . S
C577 C50 1.452 . S
C590 C194 1.556 . S
C588 C61 1.608 1_455 S
C599 C67 1.459 . S
C601 C230 1.387 . S
C612 C266 1.514 . S
C610 C41 1.565 1_655 S
C623 C292 1.464 . S
C621 C95 1.462 . S
C634 C328 1.541 . S
C632 C113 1.540 . S
C643 C106 1.491 . S
C645 C363 1.496 . S
C656 C400 1.565 1_565 S
C654 C86 1.572 . S
C665 C104 1.454 . S
C667 C434 1.445 . S
C678 C482 1.507 . S
C676 C88 1.556 . S
C687 C94 1.453 . S
C689 C435 1.463 . S
C700 C472 1.556 . S
C698 C112 1.557 . S
C709 C70 1.479 . S
C711 C518 1.410 . S
C720 C40 1.578 . S
C722 C507 1.573 . S
C731 C49 1.486 . S
C733 C508 1.491 . S
C742 C59 1.599 . S
C744 C506 1.595 1_655 S
C753 C34 1.449 . S
C755 C254 1.441 . S
C764 C133 1.447 . S
C766 C255 1.454 . S
C777 C158 1.540 . S
C775 C139 1.592 1_565 S
C788 C183 1.492 . S
C786 C77 1.489 . S
C797 C43 1.573 1_545 S
C799 C290 1.568 . S
C810 C398 1.478 . S
C808 C103 1.482 . S
C821 C291 1.553 . S
C819 C85 1.562 1_545 S
C832 C364 1.554 . S
C830 C115 1.557 . S
C843 C362 1.449 . S
C841 C131 1.453 . S
C852 C142 1.609 . S
C854 C410 1.560 . S
C863 C76 1.458 . S
C865 C302 1.388 . S
C876 C338 1.516 . S
C874 C122 1.564 . S
C885 C32 1.460 . S
C887 C220 1.465 . S
C898 C256 1.539 . S
C896 C5 1.541 1_655 S
C909 C147 1.497 . S
C907 C16 1.487 . S
C920 C184 1.569 . S
C918 C23 1.572 1_455 S
C929 C14 1.454 . S
C931 C470 1.446 . S
C940 C25 1.558 1_556 S
C942 C446 1.512 . S
C951 C31 1.452 . S
C953 C471 1.464 . S
C962 C4 1.556 1_556 S
C964 C436 1.557 . S
C975 C554 1.411 . S
C973 C79 1.479 . S
C986 C543 1.570 . S
C984 C121 1.579 1_554 S
C997 C544 1.491 . S
C995 C130 1.486 . S
C1006 C140 1.601 1_554 S
C1008 C542 1.595 . S
C1017 C97 1.448 . S
C1019 C326 1.442 . S
C1030 C327 1.454 . S
C1028 C52 1.446 . S
C1041 C374 1.538 . S
C1039 C58 1.593 . S
C1052 C399 1.491 . S
C1050 C68 1.493 . S
C1061 C124 1.573 . S
C1063 C218 1.564 1_556 S
C1074 C182 1.479 . S
C1072 C13 1.486 . S
C1083 C22 1.561 . S
C1085 C219 1.555 . S
C1096 C148 1.555 . S
C1094 C7 1.557 1_565 S
