# Generated by pormake.
# Topology bpr, (3,3)-cn, num edge types: 1
# Building blocks:
#     Node 0, Type 0, BuildingBlock: OLANEW_clean_sbu_2, # of connection points: 3
#     Node 1, Type 0, BuildingBlock: OLANEW_clean_sbu_2, # of connection points: 3
#     Node 2, Type 0, BuildingBlock: OLANEW_clean_sbu_2, # of connection points: 3
#     Node 3, Type 0, BuildingBlock: OLANEW_clean_sbu_2, # of connection points: 3
#     Node 4, Type 0, BuildingBlock: OLANEW_clean_sbu_2, # of connection points: 3
#     Node 5, Type 0, BuildingBlock: OLANEW_clean_sbu_2, # of connection points: 3
#     Node 6, Type 0, BuildingBlock: OLANEW_clean_sbu_2, # of connection points: 3
#     Node 7, Type 0, BuildingBlock: OLANEW_clean_sbu_2, # of connection points: 3
#     Node 8, Type 0, BuildingBlock: OLANEW_clean_sbu_2, # of connection points: 3
#     Node 9, Type 0, BuildingBlock: OLANEW_clean_sbu_2, # of connection points: 3
#     Node 10, Type 0, BuildingBlock: OLANEW_clean_sbu_2, # of connection points: 3
#     Node 11, Type 0, BuildingBlock: OLANEW_clean_sbu_2, # of connection points: 3
#     Node 12, Type 0, BuildingBlock: OLANEW_clean_sbu_2, # of connection points: 3
#     Node 13, Type 0, BuildingBlock: OLANEW_clean_sbu_2, # of connection points: 3
#     Node 14, Type 0, BuildingBlock: OLANEW_clean_sbu_2, # of connection points: 3
#     Node 15, Type 0, BuildingBlock: OLANEW_clean_sbu_2, # of connection points: 3
#     Node 16, Type 0, BuildingBlock: OLANEW_clean_sbu_2, # of connection points: 3
#     Node 17, Type 0, BuildingBlock: OLANEW_clean_sbu_2, # of connection points: 3
#     Node 18, Type 0, BuildingBlock: OLANEW_clean_sbu_2, # of connection points: 3
#     Node 19, Type 0, BuildingBlock: OLANEW_clean_sbu_2, # of connection points: 3
#     Node 20, Type 0, BuildingBlock: OLANEW_clean_sbu_2, # of connection points: 3
#     Node 21, Type 0, BuildingBlock: OLANEW_clean_sbu_2, # of connection points: 3
#     Node 22, Type 0, BuildingBlock: OLANEW_clean_sbu_2, # of connection points: 3
#     Node 23, Type 0, BuildingBlock: OLANEW_clean_sbu_2, # of connection points: 3
#     Node 24, Type 0, BuildingBlock: OLANEW_clean_sbu_2, # of connection points: 3
#     Node 25, Type 0, BuildingBlock: OLANEW_clean_sbu_2, # of connection points: 3
#     Node 26, Type 0, BuildingBlock: OLANEW_clean_sbu_2, # of connection points: 3
#     Node 27, Type 0, BuildingBlock: OLANEW_clean_sbu_2, # of connection points: 3
#     Node 28, Type 0, BuildingBlock: OLANEW_clean_sbu_2, # of connection points: 3
#     Node 29, Type 0, BuildingBlock: OLANEW_clean_sbu_2, # of connection points: 3
#     Node 30, Type 0, BuildingBlock: OLANEW_clean_sbu_2, # of connection points: 3
#     Node 31, Type 0, BuildingBlock: OLANEW_clean_sbu_2, # of connection points: 3
#     Node 32, Type 0, BuildingBlock: OLANEW_clean_sbu_2, # of connection points: 3
#     Node 33, Type 0, BuildingBlock: OLANEW_clean_sbu_2, # of connection points: 3
#     Node 34, Type 0, BuildingBlock: OLANEW_clean_sbu_2, # of connection points: 3
#     Node 35, Type 0, BuildingBlock: OLANEW_clean_sbu_2, # of connection points: 3
#     Node 36, Type 0, BuildingBlock: OLANEW_clean_sbu_2, # of connection points: 3
#     Node 37, Type 0, BuildingBlock: OLANEW_clean_sbu_2, # of connection points: 3
#     Node 38, Type 0, BuildingBlock: OLANEW_clean_sbu_2, # of connection points: 3
#     Node 39, Type 0, BuildingBlock: OLANEW_clean_sbu_2, # of connection points: 3
#     Node 40, Type 0, BuildingBlock: OLANEW_clean_sbu_2, # of connection points: 3
#     Node 41, Type 0, BuildingBlock: OLANEW_clean_sbu_2, # of connection points: 3
#     Node 42, Type 0, BuildingBlock: OLANEW_clean_sbu_2, # of connection points: 3
#     Node 43, Type 0, BuildingBlock: OLANEW_clean_sbu_2, # of connection points: 3
#     Node 44, Type 0, BuildingBlock: OLANEW_clean_sbu_2, # of connection points: 3
#     Node 45, Type 0, BuildingBlock: OLANEW_clean_sbu_2, # of connection points: 3
#     Node 46, Type 0, BuildingBlock: OLANEW_clean_sbu_2, # of connection points: 3
#     Node 47, Type 0, BuildingBlock: OLANEW_clean_sbu_2, # of connection points: 3
#     Node 48, Type 1, BuildingBlock: PAMTOO_clean_linker_0, # of connection points: 3
#     Node 49, Type 1, BuildingBlock: PAMTOO_clean_linker_0, # of connection points: 3
#     Node 50, Type 1, BuildingBlock: PAMTOO_clean_linker_0, # of connection points: 3
#     Node 51, Type 1, BuildingBlock: PAMTOO_clean_linker_0, # of connection points: 3
#     Node 52, Type 1, BuildingBlock: PAMTOO_clean_linker_0, # of connection points: 3
#     Node 53, Type 1, BuildingBlock: PAMTOO_clean_linker_0, # of connection points: 3
#     Node 54, Type 1, BuildingBlock: PAMTOO_clean_linker_0, # of connection points: 3
#     Node 55, Type 1, BuildingBlock: PAMTOO_clean_linker_0, # of connection points: 3
#     Node 56, Type 1, BuildingBlock: PAMTOO_clean_linker_0, # of connection points: 3
#     Node 57, Type 1, BuildingBlock: PAMTOO_clean_linker_0, # of connection points: 3
#     Node 58, Type 1, BuildingBlock: PAMTOO_clean_linker_0, # of connection points: 3
#     Node 59, Type 1, BuildingBlock: PAMTOO_clean_linker_0, # of connection points: 3
#     Node 60, Type 1, BuildingBlock: PAMTOO_clean_linker_0, # of connection points: 3
#     Node 61, Type 1, BuildingBlock: PAMTOO_clean_linker_0, # of connection points: 3
#     Node 62, Type 1, BuildingBlock: PAMTOO_clean_linker_0, # of connection points: 3
#     Node 63, Type 1, BuildingBlock: PAMTOO_clean_linker_0, # of connection points: 3
#     Node 64, Type 1, BuildingBlock: PAMTOO_clean_linker_0, # of connection points: 3
#     Node 65, Type 1, BuildingBlock: PAMTOO_clean_linker_0, # of connection points: 3
#     Node 66, Type 1, BuildingBlock: PAMTOO_clean_linker_0, # of connection points: 3
#     Node 67, Type 1, BuildingBlock: PAMTOO_clean_linker_0, # of connection points: 3
#     Node 68, Type 1, BuildingBlock: PAMTOO_clean_linker_0, # of connection points: 3
#     Node 69, Type 1, BuildingBlock: PAMTOO_clean_linker_0, # of connection points: 3
#     Node 70, Type 1, BuildingBlock: PAMTOO_clean_linker_0, # of connection points: 3
#     Node 71, Type 1, BuildingBlock: PAMTOO_clean_linker_0, # of connection points: 3
#     Node 72, Type 1, BuildingBlock: PAMTOO_clean_linker_0, # of connection points: 3
#     Node 73, Type 1, BuildingBlock: PAMTOO_clean_linker_0, # of connection points: 3
#     Node 74, Type 1, BuildingBlock: PAMTOO_clean_linker_0, # of connection points: 3
#     Node 75, Type 1, BuildingBlock: PAMTOO_clean_linker_0, # of connection points: 3
#     Node 76, Type 1, BuildingBlock: PAMTOO_clean_linker_0, # of connection points: 3
#     Node 77, Type 1, BuildingBlock: PAMTOO_clean_linker_0, # of connection points: 3
#     Node 78, Type 1, BuildingBlock: PAMTOO_clean_linker_0, # of connection points: 3
#     Node 79, Type 1, BuildingBlock: PAMTOO_clean_linker_0, # of connection points: 3
#     Node 80, Type 1, BuildingBlock: PAMTOO_clean_linker_0, # of connection points: 3
#     Node 81, Type 1, BuildingBlock: PAMTOO_clean_linker_0, # of connection points: 3
#     Node 82, Type 1, BuildingBlock: PAMTOO_clean_linker_0, # of connection points: 3
#     Node 83, Type 1, BuildingBlock: PAMTOO_clean_linker_0, # of connection points: 3
#     Node 84, Type 1, BuildingBlock: PAMTOO_clean_linker_0, # of connection points: 3
#     Node 85, Type 1, BuildingBlock: PAMTOO_clean_linker_0, # of connection points: 3
#     Node 86, Type 1, BuildingBlock: PAMTOO_clean_linker_0, # of connection points: 3
#     Node 87, Type 1, BuildingBlock: PAMTOO_clean_linker_0, # of connection points: 3
#     Node 88, Type 1, BuildingBlock: PAMTOO_clean_linker_0, # of connection points: 3
#     Node 89, Type 1, BuildingBlock: PAMTOO_clean_linker_0, # of connection points: 3
#     Node 90, Type 1, BuildingBlock: PAMTOO_clean_linker_0, # of connection points: 3
#     Node 91, Type 1, BuildingBlock: PAMTOO_clean_linker_0, # of connection points: 3
#     Node 92, Type 1, BuildingBlock: PAMTOO_clean_linker_0, # of connection points: 3
#     Node 93, Type 1, BuildingBlock: PAMTOO_clean_linker_0, # of connection points: 3
#     Node 94, Type 1, BuildingBlock: PAMTOO_clean_linker_0, # of connection points: 3
#     Node 95, Type 1, BuildingBlock: PAMTOO_clean_linker_0, # of connection points: 3
#     Edge 96, Type (0, 1), BuildingBlock: OJICUG_clean_linker_0, # of connection points: 2
#     Edge 97, Type (0, 1), BuildingBlock: OJICUG_clean_linker_0, # of connection points: 2
#     Edge 98, Type (0, 1), BuildingBlock: OJICUG_clean_linker_0, # of connection points: 2
#     Edge 99, Type (0, 1), BuildingBlock: OJICUG_clean_linker_0, # of connection points: 2
#     Edge 100, Type (0, 1), BuildingBlock: OJICUG_clean_linker_0, # of connection points: 2
#     Edge 101, Type (0, 1), BuildingBlock: OJICUG_clean_linker_0, # of connection points: 2
#     Edge 102, Type (0, 1), BuildingBlock: OJICUG_clean_linker_0, # of connection points: 2
#     Edge 103, Type (0, 1), BuildingBlock: OJICUG_clean_linker_0, # of connection points: 2
#     Edge 104, Type (0, 1), BuildingBlock: OJICUG_clean_linker_0, # of connection points: 2
#     Edge 105, Type (0, 1), BuildingBlock: OJICUG_clean_linker_0, # of connection points: 2
#     Edge 106, Type (0, 1), BuildingBlock: OJICUG_clean_linker_0, # of connection points: 2
#     Edge 107, Type (0, 1), BuildingBlock: OJICUG_clean_linker_0, # of connection points: 2
#     Edge 108, Type (0, 1), BuildingBlock: OJICUG_clean_linker_0, # of connection points: 2
#     Edge 109, Type (0, 1), BuildingBlock: OJICUG_clean_linker_0, # of connection points: 2
#     Edge 110, Type (0, 1), BuildingBlock: OJICUG_clean_linker_0, # of connection points: 2
#     Edge 111, Type (0, 1), BuildingBlock: OJICUG_clean_linker_0, # of connection points: 2
#     Edge 112, Type (0, 1), BuildingBlock: OJICUG_clean_linker_0, # of connection points: 2
#     Edge 113, Type (0, 1), BuildingBlock: OJICUG_clean_linker_0, # of connection points: 2
#     Edge 114, Type (0, 1), BuildingBlock: OJICUG_clean_linker_0, # of connection points: 2
#     Edge 115, Type (0, 1), BuildingBlock: OJICUG_clean_linker_0, # of connection points: 2
#     Edge 116, Type (0, 1), BuildingBlock: OJICUG_clean_linker_0, # of connection points: 2
#     Edge 117, Type (0, 1), BuildingBlock: OJICUG_clean_linker_0, # of connection points: 2
#     Edge 118, Type (0, 1), BuildingBlock: OJICUG_clean_linker_0, # of connection points: 2
#     Edge 119, Type (0, 1), BuildingBlock: OJICUG_clean_linker_0, # of connection points: 2
#     Edge 120, Type (0, 1), BuildingBlock: OJICUG_clean_linker_0, # of connection points: 2
#     Edge 121, Type (0, 1), BuildingBlock: OJICUG_clean_linker_0, # of connection points: 2
#     Edge 122, Type (0, 1), BuildingBlock: OJICUG_clean_linker_0, # of connection points: 2
#     Edge 123, Type (0, 1), BuildingBlock: OJICUG_clean_linker_0, # of connection points: 2
#     Edge 124, Type (0, 1), BuildingBlock: OJICUG_clean_linker_0, # of connection points: 2
#     Edge 125, Type (0, 1), BuildingBlock: OJICUG_clean_linker_0, # of connection points: 2
#     Edge 126, Type (0, 1), BuildingBlock: OJICUG_clean_linker_0, # of connection points: 2
#     Edge 127, Type (0, 1), BuildingBlock: OJICUG_clean_linker_0, # of connection points: 2
#     Edge 128, Type (0, 1), BuildingBlock: OJICUG_clean_linker_0, # of connection points: 2
#     Edge 129, Type (0, 1), BuildingBlock: OJICUG_clean_linker_0, # of connection points: 2
#     Edge 130, Type (0, 1), BuildingBlock: OJICUG_clean_linker_0, # of connection points: 2
#     Edge 131, Type (0, 1), BuildingBlock: OJICUG_clean_linker_0, # of connection points: 2
#     Edge 132, Type (0, 1), BuildingBlock: OJICUG_clean_linker_0, # of connection points: 2
#     Edge 133, Type (0, 1), BuildingBlock: OJICUG_clean_linker_0, # of connection points: 2
#     Edge 134, Type (0, 1), BuildingBlock: OJICUG_clean_linker_0, # of connection points: 2
#     Edge 135, Type (0, 1), BuildingBlock: OJICUG_clean_linker_0, # of connection points: 2
#     Edge 136, Type (0, 1), BuildingBlock: OJICUG_clean_linker_0, # of connection points: 2
#     Edge 137, Type (0, 1), BuildingBlock: OJICUG_clean_linker_0, # of connection points: 2
#     Edge 138, Type (0, 1), BuildingBlock: OJICUG_clean_linker_0, # of connection points: 2
#     Edge 139, Type (0, 1), BuildingBlock: OJICUG_clean_linker_0, # of connection points: 2
#     Edge 140, Type (0, 1), BuildingBlock: OJICUG_clean_linker_0, # of connection points: 2
#     Edge 141, Type (0, 1), BuildingBlock: OJICUG_clean_linker_0, # of connection points: 2
#     Edge 142, Type (0, 1), BuildingBlock: OJICUG_clean_linker_0, # of connection points: 2
#     Edge 143, Type (0, 1), BuildingBlock: OJICUG_clean_linker_0, # of connection points: 2
#     Edge 144, Type (0, 1), BuildingBlock: OJICUG_clean_linker_0, # of connection points: 2
#     Edge 145, Type (0, 1), BuildingBlock: OJICUG_clean_linker_0, # of connection points: 2
#     Edge 146, Type (0, 1), BuildingBlock: OJICUG_clean_linker_0, # of connection points: 2
#     Edge 147, Type (0, 1), BuildingBlock: OJICUG_clean_linker_0, # of connection points: 2
#     Edge 148, Type (0, 1), BuildingBlock: OJICUG_clean_linker_0, # of connection points: 2
#     Edge 149, Type (0, 1), BuildingBlock: OJICUG_clean_linker_0, # of connection points: 2
#     Edge 150, Type (0, 1), BuildingBlock: OJICUG_clean_linker_0, # of connection points: 2
#     Edge 151, Type (0, 1), BuildingBlock: OJICUG_clean_linker_0, # of connection points: 2
#     Edge 152, Type (0, 1), BuildingBlock: OJICUG_clean_linker_0, # of connection points: 2
#     Edge 153, Type (0, 1), BuildingBlock: OJICUG_clean_linker_0, # of connection points: 2
#     Edge 154, Type (0, 1), BuildingBlock: OJICUG_clean_linker_0, # of connection points: 2
#     Edge 155, Type (0, 1), BuildingBlock: OJICUG_clean_linker_0, # of connection points: 2
#     Edge 156, Type (0, 1), BuildingBlock: OJICUG_clean_linker_0, # of connection points: 2
#     Edge 157, Type (0, 1), BuildingBlock: OJICUG_clean_linker_0, # of connection points: 2
#     Edge 158, Type (0, 1), BuildingBlock: OJICUG_clean_linker_0, # of connection points: 2
#     Edge 159, Type (0, 1), BuildingBlock: OJICUG_clean_linker_0, # of connection points: 2
#     Edge 160, Type (0, 1), BuildingBlock: OJICUG_clean_linker_0, # of connection points: 2
#     Edge 161, Type (0, 1), BuildingBlock: OJICUG_clean_linker_0, # of connection points: 2
#     Edge 162, Type (0, 1), BuildingBlock: OJICUG_clean_linker_0, # of connection points: 2
#     Edge 163, Type (0, 1), BuildingBlock: OJICUG_clean_linker_0, # of connection points: 2
#     Edge 164, Type (0, 1), BuildingBlock: OJICUG_clean_linker_0, # of connection points: 2
#     Edge 165, Type (0, 1), BuildingBlock: OJICUG_clean_linker_0, # of connection points: 2
#     Edge 166, Type (0, 1), BuildingBlock: OJICUG_clean_linker_0, # of connection points: 2
#     Edge 167, Type (0, 1), BuildingBlock: OJICUG_clean_linker_0, # of connection points: 2
#     Edge 168, Type (0, 1), BuildingBlock: OJICUG_clean_linker_0, # of connection points: 2
#     Edge 169, Type (0, 1), BuildingBlock: OJICUG_clean_linker_0, # of connection points: 2
#     Edge 170, Type (0, 1), BuildingBlock: OJICUG_clean_linker_0, # of connection points: 2
#     Edge 171, Type (0, 1), BuildingBlock: OJICUG_clean_linker_0, # of connection points: 2
#     Edge 172, Type (0, 1), BuildingBlock: OJICUG_clean_linker_0, # of connection points: 2
#     Edge 173, Type (0, 1), BuildingBlock: OJICUG_clean_linker_0, # of connection points: 2
#     Edge 174, Type (0, 1), BuildingBlock: OJICUG_clean_linker_0, # of connection points: 2
#     Edge 175, Type (0, 1), BuildingBlock: OJICUG_clean_linker_0, # of connection points: 2
#     Edge 176, Type (0, 1), BuildingBlock: OJICUG_clean_linker_0, # of connection points: 2
#     Edge 177, Type (0, 1), BuildingBlock: OJICUG_clean_linker_0, # of connection points: 2
#     Edge 178, Type (0, 1), BuildingBlock: OJICUG_clean_linker_0, # of connection points: 2
#     Edge 179, Type (0, 1), BuildingBlock: OJICUG_clean_linker_0, # of connection points: 2
#     Edge 180, Type (0, 1), BuildingBlock: OJICUG_clean_linker_0, # of connection points: 2
#     Edge 181, Type (0, 1), BuildingBlock: OJICUG_clean_linker_0, # of connection points: 2
#     Edge 182, Type (0, 1), BuildingBlock: OJICUG_clean_linker_0, # of connection points: 2
#     Edge 183, Type (0, 1), BuildingBlock: OJICUG_clean_linker_0, # of connection points: 2
#     Edge 184, Type (0, 1), BuildingBlock: OJICUG_clean_linker_0, # of connection points: 2
#     Edge 185, Type (0, 1), BuildingBlock: OJICUG_clean_linker_0, # of connection points: 2
#     Edge 186, Type (0, 1), BuildingBlock: OJICUG_clean_linker_0, # of connection points: 2
#     Edge 187, Type (0, 1), BuildingBlock: OJICUG_clean_linker_0, # of connection points: 2
#     Edge 188, Type (0, 1), BuildingBlock: OJICUG_clean_linker_0, # of connection points: 2
#     Edge 189, Type (0, 1), BuildingBlock: OJICUG_clean_linker_0, # of connection points: 2
#     Edge 190, Type (0, 1), BuildingBlock: OJICUG_clean_linker_0, # of connection points: 2
#     Edge 191, Type (0, 1), BuildingBlock: OJICUG_clean_linker_0, # of connection points: 2
#     Edge 192, Type (0, 1), BuildingBlock: OJICUG_clean_linker_0, # of connection points: 2
#     Edge 193, Type (0, 1), BuildingBlock: OJICUG_clean_linker_0, # of connection points: 2
#     Edge 194, Type (0, 1), BuildingBlock: OJICUG_clean_linker_0, # of connection points: 2
#     Edge 195, Type (0, 1), BuildingBlock: OJICUG_clean_linker_0, # of connection points: 2
#     Edge 196, Type (0, 1), BuildingBlock: OJICUG_clean_linker_0, # of connection points: 2
#     Edge 197, Type (0, 1), BuildingBlock: OJICUG_clean_linker_0, # of connection points: 2
#     Edge 198, Type (0, 1), BuildingBlock: OJICUG_clean_linker_0, # of connection points: 2
#     Edge 199, Type (0, 1), BuildingBlock: OJICUG_clean_linker_0, # of connection points: 2
#     Edge 200, Type (0, 1), BuildingBlock: OJICUG_clean_linker_0, # of connection points: 2
#     Edge 201, Type (0, 1), BuildingBlock: OJICUG_clean_linker_0, # of connection points: 2
#     Edge 202, Type (0, 1), BuildingBlock: OJICUG_clean_linker_0, # of connection points: 2
#     Edge 203, Type (0, 1), BuildingBlock: OJICUG_clean_linker_0, # of connection points: 2
#     Edge 204, Type (0, 1), BuildingBlock: OJICUG_clean_linker_0, # of connection points: 2
#     Edge 205, Type (0, 1), BuildingBlock: OJICUG_clean_linker_0, # of connection points: 2
#     Edge 206, Type (0, 1), BuildingBlock: OJICUG_clean_linker_0, # of connection points: 2
#     Edge 207, Type (0, 1), BuildingBlock: OJICUG_clean_linker_0, # of connection points: 2
#     Edge 208, Type (0, 1), BuildingBlock: OJICUG_clean_linker_0, # of connection points: 2
#     Edge 209, Type (0, 1), BuildingBlock: OJICUG_clean_linker_0, # of connection points: 2
#     Edge 210, Type (0, 1), BuildingBlock: OJICUG_clean_linker_0, # of connection points: 2
#     Edge 211, Type (0, 1), BuildingBlock: OJICUG_clean_linker_0, # of connection points: 2
#     Edge 212, Type (0, 1), BuildingBlock: OJICUG_clean_linker_0, # of connection points: 2
#     Edge 213, Type (0, 1), BuildingBlock: OJICUG_clean_linker_0, # of connection points: 2
#     Edge 214, Type (0, 1), BuildingBlock: OJICUG_clean_linker_0, # of connection points: 2
#     Edge 215, Type (0, 1), BuildingBlock: OJICUG_clean_linker_0, # of connection points: 2
#     Edge 216, Type (0, 1), BuildingBlock: OJICUG_clean_linker_0, # of connection points: 2
#     Edge 217, Type (0, 1), BuildingBlock: OJICUG_clean_linker_0, # of connection points: 2
#     Edge 218, Type (0, 1), BuildingBlock: OJICUG_clean_linker_0, # of connection points: 2
#     Edge 219, Type (0, 1), BuildingBlock: OJICUG_clean_linker_0, # of connection points: 2
#     Edge 220, Type (0, 1), BuildingBlock: OJICUG_clean_linker_0, # of connection points: 2
#     Edge 221, Type (0, 1), BuildingBlock: OJICUG_clean_linker_0, # of connection points: 2
#     Edge 222, Type (0, 1), BuildingBlock: OJICUG_clean_linker_0, # of connection points: 2
#     Edge 223, Type (0, 1), BuildingBlock: OJICUG_clean_linker_0, # of connection points: 2
#     Edge 224, Type (0, 1), BuildingBlock: OJICUG_clean_linker_0, # of connection points: 2
#     Edge 225, Type (0, 1), BuildingBlock: OJICUG_clean_linker_0, # of connection points: 2
#     Edge 226, Type (0, 1), BuildingBlock: OJICUG_clean_linker_0, # of connection points: 2
#     Edge 227, Type (0, 1), BuildingBlock: OJICUG_clean_linker_0, # of connection points: 2
#     Edge 228, Type (0, 1), BuildingBlock: OJICUG_clean_linker_0, # of connection points: 2
#     Edge 229, Type (0, 1), BuildingBlock: OJICUG_clean_linker_0, # of connection points: 2
#     Edge 230, Type (0, 1), BuildingBlock: OJICUG_clean_linker_0, # of connection points: 2
#     Edge 231, Type (0, 1), BuildingBlock: OJICUG_clean_linker_0, # of connection points: 2
#     Edge 232, Type (0, 1), BuildingBlock: OJICUG_clean_linker_0, # of connection points: 2
#     Edge 233, Type (0, 1), BuildingBlock: OJICUG_clean_linker_0, # of connection points: 2
#     Edge 234, Type (0, 1), BuildingBlock: OJICUG_clean_linker_0, # of connection points: 2
#     Edge 235, Type (0, 1), BuildingBlock: OJICUG_clean_linker_0, # of connection points: 2
#     Edge 236, Type (0, 1), BuildingBlock: OJICUG_clean_linker_0, # of connection points: 2
#     Edge 237, Type (0, 1), BuildingBlock: OJICUG_clean_linker_0, # of connection points: 2
#     Edge 238, Type (0, 1), BuildingBlock: OJICUG_clean_linker_0, # of connection points: 2
#     Edge 239, Type (0, 1), BuildingBlock: OJICUG_clean_linker_0, # of connection points: 2
# Relax obj value: 0.011
# Max RMSD: 0.087
# Mean RMSD: 0.055
data_MOF--net-bpr--node1-OLANEW_clean_sbu_2--node2-PAMTOO_clean_linker_0--edge1-OJICUG_clean_linker_0
_symmetry_space_group_name_H-M    P1
_symmetry_Int_Tables_number       1
_symmetry_cell_setting            triclinic
loop_
_symmetry_equiv_pos_as_xyz
'x, y, z'
_cell_length_a     61.616732
_cell_length_b     68.64797
_cell_length_c     65.964908
_cell_angle_alpha  92.462354
_cell_angle_beta   97.760832
_cell_angle_gamma 100.91051
loop_
_atom_site_label
_atom_site_type_symbol
_atom_site_fract_x
_atom_site_fract_y
_atom_site_fract_z
_atom_type_partial_charge
O0 O 0.05688 0.37013 0.30185 0.0
Cd1 Cd 0.02629 0.37076 0.27433 0.0
O2 O 0.05199 0.33758 0.30269 0.0
Cd3 Cd 0.02043 0.33466 0.28199 0.0
O4 O -0.01156 0.34175 0.26895 0.0
C5 C 0.97016 0.33333 0.27445 0.0
O6 O 0.97037 0.31921 0.28726 0.0
C7 C 0.06308 0.35483 0.30905 0.0
C8 C 0.04015 0.36994 0.23576 0.0
O9 O 0.04126 0.38645 0.24606 0.0
O10 O 0.0325 0.35381 0.2437 0.0
O11 O 0.835 0.80575 0.56059 0.0
Cd12 Cd 0.83657 0.78233 0.53195 0.0
O13 O 0.84273 0.78488 0.5837 0.0
Cd14 Cd 0.84619 0.7601 0.56333 0.0
O15 O 0.85281 0.73006 0.55967 0.0
C16 C 0.86787 0.72573 0.57288 0.0
O17 O 0.87886 0.73958 0.58688 0.0
C18 C 0.83823 0.80166 0.57925 0.0
C19 C 0.83176 0.79838 0.49368 0.0
O20 O 0.81468 0.79021 0.50157 0.0
O21 O 0.85114 0.79913 0.50395 0.0
O22 O 0.43037 0.60444 0.80338 0.0
Cd23 Cd 0.4557 0.60405 0.77788 0.0
O24 O 0.41198 0.62556 0.78804 0.0
Cd25 Cd 0.42509 0.62335 0.75909 0.0
O26 O 0.41629 0.61681 0.72595 0.0
C27 C 0.40582 0.6284 0.71585 0.0
O28 O 0.40226 0.64441 0.72547 0.0
C29 C 0.41576 0.61529 0.80324 0.0
C30 C 0.49929 0.60602 0.7976 0.0
O31 O 0.49181 0.62184 0.79363 0.0
O32 O 0.48627 0.58922 0.79199 0.0
O33 O 0.63822 0.18248 0.06798 0.0
Cd34 Cd 0.63973 0.20644 0.04165 0.0
O35 O 0.6389 0.15603 0.04808 0.0
Cd36 Cd 0.64033 0.17014 0.01905 0.0
O37 O 0.63943 0.16971 0.98571 0.0
C38 C 0.64756 0.1562 0.9774 0.0
O39 O 0.65651 0.14399 0.98919 0.0
C40 C 0.6381 0.16398 0.06568 0.0
C41 C 0.63439 0.24299 0.05859 0.0
O42 O 0.61748 0.22985 0.05038 0.0
O43 O 0.65387 0.23898 0.0585 0.0
O44 O 0.06653 0.6428 0.20435 0.0
Cd45 Cd 0.04272 0.6375 0.23134 0.0
O46 O 0.0706 0.67537 0.2074 0.0
Cd47 Cd 0.0452 0.674 0.22757 0.0
O48 O 0.00951 0.67075 0.22876 0.0
C49 C -0.00104 0.6795 0.21524 0.0
O50 O 0.01026 0.69031 0.20274 0.0
C51 C 0.07508 0.65984 0.19906 0.0
C52 C 0.06567 0.63316 0.26988 0.0
O53 O 0.05746 0.61806 0.25719 0.0
O54 O 0.06329 0.65036 0.26424 0.0
O55 O 0.59869 0.76927 0.44005 0.0
Cd56 Cd 0.60368 0.74823 0.46868 0.0
O57 O 0.60608 0.79815 0.45821 0.0
Cd58 Cd 0.60961 0.78959 0.48977 0.0
O59 O 0.61138 0.80556 0.51958 0.0
C60 C 0.5935 0.80987 0.52448 0.0
O61 O 0.57456 0.80301 0.51241 0.0
C62 C 0.60129 0.78813 0.44098 0.0
C63 C 0.61054 0.71141 0.45373 0.0
O64 O 0.59084 0.71453 0.45475 0.0
O65 O 0.62712 0.72561 0.46013 0.0
O66 O 0.41992 0.34225 0.72835 0.0
Cd67 Cd 0.44052 0.34076 0.76255 0.0
O68 O 0.45036 0.36071 0.72068 0.0
Cd69 Cd 0.47208 0.37597 0.70022 0.0
O70 O 0.50027 0.38902 0.68506 0.0
C71 C 0.50573 0.40774 0.68426 0.0
O72 O 0.49371 0.41921 0.69212 0.0
C73 C 0.43012 0.35202 0.71536 0.0
C74 C 0.41694 0.34723 0.79469 0.0
O75 O 0.42915 0.36176 0.78744 0.0
O76 O 0.41568 0.32967 0.78657 0.0
O77 O 0.85171 0.21927 0.92175 0.0
Cd78 Cd 0.84866 0.24635 0.94612 0.0
O79 O 0.85121 0.19675 0.94462 0.0
Cd80 Cd 0.84774 0.2136 0.97237 0.0
O81 O 0.84388 0.20569 0.00363 0.0
C82 C 0.86074 0.20173 0.01483 0.0
O83 O 0.88002 0.20439 0.00789 0.0
C84 C 0.85239 0.20157 0.92635 0.0
C85 C 0.84608 0.28115 0.92607 0.0
O86 O 0.86496 0.27686 0.9329 0.0
O87 O 0.82832 0.26912 0.92894 0.0
O88 O 0.33411 0.04277 0.35172 0.0
Cd89 Cd 0.30093 0.01685 0.34032 0.0
O90 O 0.32422 0.04695 0.38223 0.0
Cd91 Cd 0.28951 0.03135 0.37368 0.0
O92 O 0.25353 0.0308 0.37091 0.0
C93 C 0.24167 0.03091 0.3536 0.0
O94 O 0.25097 0.03015 0.33686 0.0
C95 C 0.33848 0.05071 0.36996 0.0
C96 C 0.31048 0.97857 0.34212 0.0
O97 O 0.31171 0.98797 0.32581 0.0
O98 O 0.3048 0.98727 0.35759 0.0
O99 O 0.1536 0.01139 0.64056 0.0
Cd100 Cd 0.17272 0.98322 0.64008 0.0
O101 O 0.17915 0.02542 0.62288 0.0
Cd102 Cd 0.19804 0.05144 0.61097 0.0
O103 O 0.22904 0.07302 0.61192 0.0
C104 C 0.23857 0.08088 0.62944 0.0
O105 O 0.2286 0.07659 0.64555 0.0
C106 C 0.16208 0.02626 0.63146 0.0
C107 C 0.14651 0.94801 0.64941 0.0
O108 O 0.15928 0.95983 0.66355 0.0
O109 O 0.14614 0.95287 0.63083 0.0
O110 O 0.22964 0.959 0.85936 0.0
Cd111 Cd 0.26362 0.97468 0.84642 0.0
O112 O 0.21625 0.98634 0.85639 0.0
Cd113 Cd 0.19228 0.00556 0.86017 0.0
O114 O 0.17936 0.03257 0.866 0.0
C115 C 0.18481 0.04186 0.8836 0.0
O116 O 0.19723 0.03448 0.89791 0.0
C117 C 0.21404 0.9684 0.86114 0.0
C118 C 0.28791 0.94649 0.8353 0.0
O119 O 0.29109 0.95457 0.85362 0.0
O120 O 0.27327 0.9518 0.82213 0.0
O121 O 0.26134 0.93291 0.10395 0.0
Cd122 Cd 0.24265 0.96058 0.11003 0.0
O123 O 0.2624 0.9377 0.07128 0.0
Cd124 Cd 0.23578 0.95458 0.07202 0.0
O125 O 0.20205 0.95284 0.07976 0.0
C126 C 0.19582 0.93802 0.08997 0.0
O127 O 0.20978 0.92609 0.09476 0.0
C128 C 0.26802 0.92885 0.08712 0.0
C129 C 0.27243 -0.00315 0.11139 0.0
O130 O 0.2695 0.98791 0.12777 0.0
O131 O 0.26113 0.98871 0.0944 0.0
O132 O 0.31866 0.28787 0.0489 0.0
Cd133 Cd 0.31986 0.26545 0.01938 0.0
O134 O 0.32044 0.26416 0.07015 0.0
Cd135 Cd 0.32387 0.24013 0.04882 0.0
O136 O 0.33309 0.21096 0.0472 0.0
C137 C 0.31839 0.19549 0.04834 0.0
O138 O 0.29761 0.19735 0.0487 0.0
C139 C 0.31895 0.28203 0.06695 0.0
C140 C 0.32602 0.28511 0.98372 0.0
O141 O 0.30643 0.27917 0.9884 0.0
O142 O 0.34276 0.28192 -0.00399 0.0
O143 O 0.8843 0.84909 0.22022 0.0
Cd144 Cd 0.90241 0.84614 0.25518 0.0
O145 O 0.91764 0.86287 0.21413 0.0
Cd146 Cd 0.94238 0.87415 0.19436 0.0
O147 O 0.97112 0.88457 0.17877 0.0
C148 C 0.97218 0.89986 0.16847 0.0
O149 O 0.95541 0.90928 0.16686 0.0
C150 C 0.89693 0.85686 0.20777 0.0
C151 C 0.87912 0.85322 0.28745 0.0
O152 O 0.89199 0.86747 0.28043 0.0
O153 O 0.87674 0.83571 0.27881 0.0
O154 O 0.0539 0.69318 0.57815 0.0
Cd155 Cd 0.04303 0.72023 0.55883 0.0
O156 O 0.07571 0.68876 0.55553 0.0
Cd157 Cd 0.09707 0.67402 0.53883 0.0
O158 O 0.10845 0.66686 0.50992 0.0
C159 C 0.09968 0.67441 0.49434 0.0
O160 O 0.08499 0.68558 0.49683 0.0
C161 C 0.06775 0.68369 0.57175 0.0
C162 C 0.04334 0.75397 0.58404 0.0
O163 O 0.02587 0.74016 0.58004 0.0
O164 O 0.06073 0.75177 0.57618 0.0
O165 O 0.95922 0.59361 0.71365 0.0
Cd166 Cd -0.00801 0.59335 0.73909 0.0
O167 O 0.96988 0.62577 0.71135 0.0
Cd168 Cd -0.01271 0.62903 0.74282 0.0
O169 O -0.01387 0.63338 0.77571 0.0
C170 C 0.96855 0.62464 0.78221 0.0
O171 O 0.95298 0.61295 0.76921 0.0
C172 C 0.9575 0.60922 0.70436 0.0
C173 C 0.02867 0.59787 0.7177 0.0
O174 O 0.01776 0.58055 0.72033 0.0
O175 O 0.02276 0.61296 0.72584 0.0
O176 O 0.16295 0.16304 0.45157 0.0
Cd177 Cd 0.17147 0.18754 0.48106 0.0
O178 O 0.15778 0.18508 0.42897 0.0
Cd179 Cd 0.16586 0.21257 0.44871 0.0
O180 O 0.17254 0.24487 0.44691 0.0
C181 C 0.16198 0.2511 0.43138 0.0
O182 O 0.14749 0.23813 0.41866 0.0
C183 C 0.15802 0.16719 0.43312 0.0
C184 C 0.15158 0.17257 0.51437 0.0
O185 O 0.14156 0.18242 0.50132 0.0
O186 O 0.17106 0.16988 0.51174 0.0
O187 O 0.51941 0.32868 0.20577 0.0
Cd188 Cd 0.49443 0.33127 0.23108 0.0
O189 O 0.51941 0.35957 0.19815 0.0
Cd190 Cd 0.49042 0.36274 0.21279 0.0
O191 O 0.45563 0.36595 0.2105 0.0
C192 C 0.44048 0.35049 0.21009 0.0
O193 O 0.44642 0.33328 0.21285 0.0
C194 C 0.527 0.34368 0.19636 0.0
C195 C 0.52124 0.34794 0.2675 0.0
O196 O 0.51562 0.32903 0.26386 0.0
O197 O 0.51356 0.35894 0.25421 0.0
O198 O 0.34757 0.79516 0.89538 0.0
Cd199 Cd 0.34973 0.7755 0.92546 0.0
O200 O 0.38399 0.8046 0.89737 0.0
Cd201 Cd 0.38885 0.79437 0.92814 0.0
O202 O 0.38582 0.80175 0.96 0.0
C203 C 0.37636 0.81644 0.96246 0.0
O204 O 0.36931 0.82519 0.9462 0.0
C205 C 0.36445 0.80418 0.888 0.0
C206 C 0.33875 0.73471 0.91448 0.0
O207 O 0.32385 0.74433 0.91879 0.0
O208 O 0.35885 0.74438 0.9154 0.0
O209 O 0.85143 0.30557 0.75042 0.0
Cd210 Cd 0.86367 0.2864 0.72359 0.0
O211 O 0.88675 0.31972 0.75723 0.0
Cd212 Cd 0.91593 0.33997 0.77401 0.0
O213 O 0.94703 0.35722 0.79074 0.0
C214 C 0.95429 0.35239 0.80839 0.0
O215 O 0.94259 0.3373 0.81626 0.0
C216 C 0.86699 0.31776 0.76157 0.0
C217 C 0.86315 0.3045 0.68668 0.0
O218 O 0.84698 0.29064 0.68959 0.0
O219 O 0.8795 0.30987 0.70125 0.0
O220 O 0.38995 0.18524 0.54889 0.0
Cd221 Cd 0.40051 0.21044 0.52509 0.0
O222 O 0.42298 0.19233 0.56788 0.0
Cd223 Cd 0.437 0.20332 0.54086 0.0
O224 O 0.44119 0.19374 0.50979 0.0
C225 C 0.4358 0.175 0.5059 0.0
O226 O 0.42889 0.16391 0.52042 0.0
C227 C 0.40257 0.18361 0.5654 0.0
C228 C 0.38848 0.24505 0.53984 0.0
O229 O 0.37515 0.23286 0.52637 0.0
O230 O 0.40781 0.24123 0.54578 0.0
O231 O 0.5536 0.61012 0.2927 0.0
Cd232 Cd 0.52745 0.60469 0.26068 0.0
O233 O 0.54035 0.58099 0.30346 0.0
Cd234 Cd 0.50856 0.57861 0.28359 0.0
O235 O 0.47819 0.58531 0.29349 0.0
C236 C 0.48067 0.60201 0.30352 0.0
O237 O 0.5001 0.61426 0.30523 0.0
C238 C 0.55503 0.59695 0.30552 0.0
C239 C 0.55063 0.59988 0.22778 0.0
O240 O 0.54809 0.61712 0.23405 0.0
O241 O 0.5419 0.58485 0.23686 0.0
O242 O 0.06527 0.80196 0.04784 0.0
Cd243 Cd 0.0666 0.77492 0.02288 0.0
O244 O 0.03951 0.81402 0.02875 0.0
Cd245 Cd 0.04439 0.79867 0.00056 0.0
O246 O 0.06052 0.81024 0.97479 0.0
C247 C 0.08168 0.81545 0.97779 0.0
O248 O 0.09269 0.81161 -0.00483 0.0
C249 C 0.05193 0.81404 0.04579 0.0
C250 C 0.08108 0.74366 0.04308 0.0
O251 O 0.09498 0.7572 0.03621 0.0
O252 O 0.06037 0.74477 0.04016 0.0
O253 O 0.65389 -0.00391 0.58313 0.0
Cd254 Cd 0.6796 0.02784 0.58172 0.0
O255 O 0.68053 0.98954 0.60567 0.0
Cd256 Cd 0.6972 0.9701 0.62499 0.0
O257 O 0.7171 0.95064 0.64066 0.0
C258 C 0.71746 0.93389 0.63187 0.0
O259 O 0.70538 0.9286 0.61381 0.0
C260 C 0.66117 0.98416 0.59531 0.0
C261 C 0.65972 0.06083 0.57537 0.0
O262 O 0.66382 0.05046 0.56023 0.0
O263 O 0.6646 0.05536 0.59348 0.0
O264 O 0.7957 0.97047 0.4086 0.0
Cd265 Cd 0.77861 -0.00087 0.4148 0.0
O266 O 0.76541 0.95774 0.38734 0.0
Cd267 Cd 0.74148 0.93424 0.36825 0.0
O268 O 0.7126 0.91082 0.35707 0.0
C269 C 0.69399 0.9153 0.35032 0.0
O270 O 0.6928 0.93415 0.34925 0.0
C271 C 0.78469 0.9563 0.39611 0.0
C272 C 0.80399 0.03411 0.40394 0.0
O273 O 0.8065 0.02897 0.42243 0.0
O274 O 0.78942 0.02274 0.39068 0.0
O275 O 0.79685 0.0027 0.06073 0.0
Cd276 Cd 0.77729 0.96862 0.05004 0.0
O277 O 0.77089 0.00612 0.0795 0.0
Cd278 Cd 0.75278 0.02143 0.09948 0.0
O279 O 0.72966 0.03099 0.11846 0.0
C280 C 0.72725 0.04895 0.12 0.0
O281 O 0.73923 0.06227 0.11017 0.0
C282 C 0.78905 0.0134 0.07302 0.0
C283 C 0.80079 0.94002 0.06525 0.0
O284 O 0.80367 0.94724 0.04799 0.0
O285 O 0.78692 0.94644 0.07539 0.0
O286 O 0.69316 0.02093 0.86739 0.0
Cd287 Cd 0.72192 0.00043 0.87052 0.0
O288 O 0.69499 0.02447 0.83463 0.0
Cd289 Cd 0.7256 0.01297 0.83464 0.0
O290 O 0.75983 0.02841 0.8341 0.0
C291 C 0.77035 0.03744 0.8508 0.0
O292 O 0.76109 0.03508 0.86757 0.0
C293 C 0.68609 0.02747 0.8505 0.0
C294 C 0.70367 0.95977 0.86423 0.0
O295 O 0.70757 0.96853 0.88228 0.0
O296 O 0.70843 0.97024 0.84921 0.0
O297 O 0.63257 0.66191 0.9684 0.0
Cd298 Cd 0.64348 0.67976 0.0023 0.0
O299 O 0.6462 0.68894 0.95417 0.0
Cd300 Cd 0.65294 0.70827 0.92918 0.0
O301 O 0.66002 0.73416 0.91104 0.0
C302 C 0.64413 0.7414 0.90193 0.0
O303 O 0.62343 0.7327 0.90297 0.0
C304 C 0.63665 0.67069 0.95235 0.0
C305 C 0.63205 0.65601 0.0341 0.0
O306 O 0.6186 0.66636 0.0255 0.0
O307 O 0.65087 0.65684 0.0276 0.0
O308 O 0.04986 0.14313 0.77287 0.0
Cd309 Cd 0.02508 0.14032 0.74014 0.0
O310 O 0.03856 0.11187 0.77892 0.0
Cd311 Cd 0.00795 0.10896 0.75723 0.0
O312 O 0.97531 0.10992 0.76616 0.0
C313 C 0.97463 0.12508 0.77765 0.0
O314 O -0.00762 0.13945 0.78122 0.0
C315 C 0.05179 0.12851 0.78372 0.0
C316 C 0.04779 0.13309 0.70753 0.0
O317 O 0.04799 0.15087 0.71443 0.0
O318 O 0.03669 0.11871 0.71592 0.0
O319 O 0.87141 0.30964 0.397 0.0
Cd320 Cd 0.87502 0.28954 0.4266 0.0
O321 O 0.90744 0.32178 0.39973 0.0
Cd322 Cd 0.91311 0.31055 0.42997 0.0
O323 O 0.91069 0.31224 0.46264 0.0
C324 C 0.8991 0.32443 0.46822 0.0
O325 O 0.88954 0.3344 0.45424 0.0
C326 C 0.88779 0.32007 0.39008 0.0
C327 C 0.87067 0.2496 0.41354 0.0
O328 O 0.85369 0.25667 0.41731 0.0
O329 O 0.88977 0.26138 0.41618 0.0
O330 O 0.53152 0.86742 0.7731 0.0
Cd331 Cd 0.50026 0.87042 0.7472 0.0
O332 O 0.52768 0.83495 0.76838 0.0
Cd333 Cd 0.49495 0.83357 0.75023 0.0
O334 O 0.46169 0.84075 0.74413 0.0
C335 C 0.4458 0.83123 0.75239 0.0
O336 O 0.44938 0.81627 0.7633 0.0
C337 C 0.53854 0.85151 0.77702 0.0
C338 C 0.51465 0.87464 0.70899 0.0
O339 O 0.51523 0.88986 0.72115 0.0
O340 O 0.507 0.85743 0.7148 0.0
O341 O 0.95887 0.10933 0.29429 0.0
Cd342 Cd 0.98143 0.10266 0.26791 0.0
O343 O 0.92689 0.09732 0.27464 0.0
Cd344 Cd 0.93999 0.09438 0.24583 0.0
O345 O 0.93082 0.09568 0.21286 0.0
C346 C 0.92286 0.11067 0.20716 0.0
O347 O 0.92223 0.12479 0.22105 0.0
C348 C 0.93767 0.10459 0.29195 0.0
C349 C 0.02354 0.09815 0.28652 0.0
O350 O 0.01974 0.1152 0.28166 0.0
O351 O 0.00749 0.08307 0.28227 0.0
O352 O 0.55781 0.13946 0.68891 0.0
Cd353 Cd 0.53427 0.12834 0.71499 0.0
O354 O 0.55896 0.17156 0.69375 0.0
Cd355 Cd 0.533 0.16588 0.71331 0.0
O356 O 0.49745 0.1569 0.71506 0.0
C357 C 0.4867 0.14336 0.70173 0.0
O358 O 0.49761 0.13556 0.68873 0.0
C359 C 0.56496 0.15721 0.68463 0.0
C360 C 0.55831 0.12236 0.75239 0.0
O361 O 0.55536 0.10966 0.73698 0.0
O362 O 0.55006 0.13807 0.75018 0.0
O363 O 0.09198 0.2898 0.94323 0.0
Cd364 Cd 0.0945 0.26328 0.96657 0.0
O365 O 0.10178 0.31453 0.96718 0.0
Cd366 Cd 0.10402 0.29898 -0.00471 0.0
O367 O 0.10642 0.31052 0.02712 0.0
C368 C 0.10587 0.32896 0.02861 0.0
O369 O 0.10398 0.33835 0.0117 0.0
C370 C 0.09633 0.30834 0.9484 0.0
C371 C 0.10094 0.22908 0.94538 0.0
O372 O 0.08129 0.23227 0.94649 0.0
O373 O 0.11763 0.24197 0.95448 0.0
O374 O 0.39328 0.73895 0.4285 0.0
Cd375 Cd 0.39834 0.77116 0.44794 0.0
O376 O 0.37942 0.72438 0.45399 0.0
Cd377 Cd 0.36394 0.7015 0.47264 0.0
O378 O 0.35281 0.68161 0.49578 0.0
C379 C 0.3619 0.68594 0.5143 0.0
O380 O 0.37749 0.70206 0.51868 0.0
C381 C 0.3851 0.72302 0.43619 0.0
C382 C 0.38998 0.80096 0.42223 0.0
O383 O 0.40933 0.79641 0.42541 0.0
O384 O 0.37455 0.79155 0.43138 0.0
O385 O 0.81288 0.53603 0.85402 0.0
Cd386 Cd 0.77864 0.51072 0.84469 0.0
O387 O 0.80098 0.54811 0.88107 0.0
Cd388 Cd 0.76564 0.53444 0.87247 0.0
O389 O 0.73051 0.53743 0.86824 0.0
C390 C 0.72401 0.5486 0.85475 0.0
O391 O 0.73824 0.55702 0.84305 0.0
C392 C 0.81645 0.5476 0.87021 0.0
C393 C 0.7862 0.47186 0.84831 0.0
O394 O 0.78759 0.48039 0.83149 0.0
O395 O 0.78135 0.48171 0.86345 0.0
O396 O 0.69002 0.50446 0.17409 0.0
Cd397 Cd 0.71662 0.48196 0.17684 0.0
O398 O 0.71173 0.52079 0.15428 0.0
Cd399 Cd 0.72386 0.54705 0.13857 0.0
O400 O 0.74995 0.57218 0.13445 0.0
C401 C 0.7585 0.58408 0.14999 0.0
O402 O 0.75028 0.58144 0.16727 0.0
C403 C 0.6944 0.51898 0.16303 0.0
C404 C 0.69547 0.44231 0.16807 0.0
O405 O 0.69893 0.45038 0.18641 0.0
O406 O 0.70213 0.45301 0.15381 0.0
O407 O 0.71802 0.44513 0.32002 0.0
Cd408 Cd 0.75305 0.46368 0.31111 0.0
O409 O 0.71183 0.47167 0.3361 0.0
Cd410 Cd 0.69425 0.49128 0.35202 0.0
O411 O 0.68478 0.51787 0.36507 0.0
C412 C 0.68843 0.52236 0.3843 0.0
O413 O 0.69727 0.5104 0.3965 0.0
C414 C 0.70566 0.45329 0.33027 0.0
C415 C 0.78474 0.43978 0.30847 0.0
O416 O 0.78346 0.44903 0.32544 0.0
O417 O 0.77097 0.44179 0.29267 0.0
O418 O 0.80215 0.44524 0.56914 0.0
Cd419 Cd 0.7804 0.47145 0.56466 0.0
O420 O 0.79095 0.43849 0.59883 0.0
Cd421 Cd 0.76832 0.45938 0.59906 0.0
O422 O 0.73534 0.46382 0.60431 0.0
C423 C 0.71964 0.46051 0.58924 0.0
O424 O 0.72441 0.45646 0.57089 0.0
C425 C 0.8024 0.43517 0.58487 0.0
C426 C 0.80668 0.50869 0.57759 0.0
O427 O 0.79659 0.49784 0.59015 0.0
O428 O 0.80424 0.50195 0.55883 0.0
O429 O 0.45809 0.1026 0.198 0.0
Cd430 Cd 0.49169 0.11191 0.22348 0.0
O431 O 0.44199 0.12535 0.2109 0.0
Cd432 Cd 0.46434 0.131 0.24012 0.0
O433 O 0.47264 0.13653 0.27346 0.0
C434 C 0.45645 0.13325 0.28375 0.0
O435 O 0.4362 0.12651 0.27394 0.0
C436 C 0.44224 0.11216 0.19683 0.0
C437 C 0.52931 0.11 0.20468 0.0
O438 O 0.5217 0.09617 0.21579 0.0
O439 O 0.51944 0.12479 0.20276 0.0
O440 O -0.00752 0.87034 0.76128 0.0
Cd441 Cd 0.9754 0.88059 0.79029 0.0
O442 O -0.00392 0.90093 0.75172 0.0
Cd443 Cd 0.96794 0.9067 0.76614 0.0
O444 O 0.93315 0.90346 0.75228 0.0
C445 C 0.92377 0.8861 0.74467 0.0
O446 O 0.93466 0.87151 0.74759 0.0
C447 C 0.00079 0.88372 0.75022 0.0
C448 C 0.01074 0.8922 0.82218 0.0
O449 O -0.00222 0.87515 0.82152 0.0
O450 O 0.00639 0.90402 0.80836 0.0
O451 O 0.34482 0.79492 0.23683 0.0
Cd452 Cd 0.34626 0.77347 0.20677 0.0
O453 O 0.38003 0.80869 0.23735 0.0
Cd454 Cd 0.41212 0.82617 0.25212 0.0
O455 O 0.44549 0.83758 0.2689 0.0
C456 C 0.45202 0.82878 0.28448 0.0
O457 O 0.43835 0.81347 0.29 0.0
C458 C 0.36201 0.80743 0.24504 0.0
C459 C 0.34241 0.79384 0.17135 0.0
O460 O 0.32508 0.78502 0.17846 0.0
O461 O 0.36168 0.79288 0.18093 0.0
O462 O 0.87867 0.69152 0.04238 0.0
Cd463 Cd 0.88231 0.71374 0.0146 0.0
O464 O 0.91241 0.70516 0.05769 0.0
Cd465 Cd 0.92158 0.71235 0.0276 0.0
O466 O 0.92391 0.69948 -0.00282 0.0
C467 C 0.91838 0.68061 -0.00472 0.0
O468 O 0.91215 0.6712 0.01111 0.0
C469 C 0.89343 0.69417 0.05824 0.0
C470 C 0.87048 0.74874 0.02859 0.0
O471 O 0.85607 0.73509 0.01762 0.0
O472 O 0.89067 0.74617 0.03227 0.0
O473 O 0.58571 0.32161 0.54711 0.0
Cd474 Cd 0.58072 0.29388 0.52123 0.0
O475 O 0.55612 0.33276 0.53379 0.0
Cd476 Cd 0.55394 0.31654 0.50422 0.0
O477 O 0.56122 0.32638 0.47436 0.0
C478 C 0.57827 0.34027 0.47511 0.0
O479 O 0.59044 0.34628 0.493 0.0
C480 C 0.57228 0.33347 0.54816 0.0
C481 C 0.58988 0.25978 0.53957 0.0
O482 O 0.6052 0.27183 0.53258 0.0
O483 O 0.57023 0.26375 0.53769 0.0
O484 O 0.16225 0.49898 0.13667 0.0
Cd485 Cd 0.18276 0.53326 0.14496 0.0
O486 O 0.19181 0.48953 0.1523 0.0
Cd487 Cd 0.21176 0.46736 0.16164 0.0
O488 O 0.23311 0.44574 0.16838 0.0
C489 C 0.23049 0.43009 0.15657 0.0
O490 O 0.21468 0.42714 0.14062 0.0
C491 C 0.17194 0.48508 0.14282 0.0
C492 C 0.16537 0.56185 0.12253 0.0
O493 O 0.18043 0.5535 0.11628 0.0
O494 O 0.15826 0.55642 0.1392 0.0
O495 O 0.28439 0.4464 0.89034 0.0
Cd496 Cd 0.25855 0.46934 0.89121 0.0
O497 O 0.27416 0.43808 0.85736 0.0
Cd498 Cd 0.24482 0.45177 0.85544 0.0
O499 O 0.20862 0.44528 0.85456 0.0
C500 C 0.20095 0.44291 0.87141 0.0
O501 O 0.21498 0.44622 0.88862 0.0
C502 C 0.28679 0.43696 0.87402 0.0
C503 C 0.27987 0.50846 0.8878 0.0
O504 O 0.27848 0.50155 0.90543 0.0
O505 O 0.27108 0.49689 0.87185 0.0
O506 O 0.28897 0.48624 0.59087 0.0
Cd507 Cd 0.27002 0.45136 0.58569 0.0
O508 O 0.26056 0.49527 0.60291 0.0
Cd509 Cd 0.24165 0.51666 0.61394 0.0
O510 O 0.22031 0.53588 0.6248 0.0
C511 C 0.20996 0.54582 0.61235 0.0
O512 O 0.21243 0.54457 0.59289 0.0
C513 C 0.28016 0.4998 0.59818 0.0
C514 C 0.29973 0.42558 0.59389 0.0
O515 O 0.296 0.43192 0.576 0.0
O516 O 0.28943 0.43146 0.6079 0.0
O517 O 0.20435 0.54839 0.37762 0.0
Cd518 Cd 0.23323 0.5285 0.38301 0.0
O519 O 0.19044 0.54071 0.4059 0.0
Cd520 Cd 0.20871 0.51663 0.41132 0.0
O521 O 0.20948 0.48501 0.41243 0.0
C522 C 0.21045 0.47511 0.39597 0.0
O523 O 0.2128 0.48457 0.37926 0.0
C524 C 0.19089 0.5507 0.39011 0.0
C525 C 0.27408 0.55391 0.38205 0.0
O526 O 0.26283 0.54432 0.36569 0.0
O527 O 0.26632 0.55101 0.39898 0.0
H528 H 0.13299 0.39899 0.09875 0.0
H529 H 0.11213 0.40334 0.15822 0.0
H530 H 0.0896 0.34944 0.1198 0.0
H531 H 0.05491 0.35558 0.14451 0.0
C532 C 0.06531 0.36864 0.15407 0.0
O533 O 0.08757 0.36762 0.15487 0.0
H534 H 0.06173 0.38224 0.14672 0.0
C535 C 0.12359 0.39241 0.11034 0.0
C536 C 0.11131 0.37276 0.10686 0.0
C537 C 0.12418 0.40354 0.12886 0.0
C538 C 0.11226 0.39488 0.14399 0.0
C539 C 0.09984 0.37545 0.14062 0.0
C540 C 0.09959 0.36435 0.12226 0.0
H541 H 0.82911 0.89318 0.35219 0.0
H542 H 0.81847 0.87564 0.41262 0.0
H543 H 0.85045 0.8409 0.37503 0.0
H544 H 0.82342 0.81559 0.40133 0.0
C545 C 0.82119 0.82766 0.41217 0.0
O546 O 0.83686 0.84459 0.4106 0.0
H547 H 0.80403 0.83063 0.40802 0.0
C548 C 0.83052 0.88299 0.36418 0.0
C549 C 0.84054 0.86651 0.36109 0.0
C550 C 0.82256 0.88657 0.38275 0.0
C551 C 0.8246 0.87331 0.39824 0.0
C552 C 0.83446 0.85686 0.39532 0.0
C553 C 0.84243 0.85349 0.37685 0.0
H554 H 0.34488 0.57584 0.64249 0.0
H555 H 0.32546 0.58752 0.57968 0.0
H556 H 0.37136 0.63208 0.61975 0.0
H557 H 0.33501 0.64568 0.59323 0.0
C558 C 0.33481 0.6362 0.57904 0.0
O559 O 0.34949 0.62346 0.58271 0.0
H560 H 0.31752 0.62748 0.57455 0.0
C561 C 0.34596 0.5857 0.6301 0.0
C562 C 0.35978 0.60469 0.63359 0.0
C563 C 0.33352 0.57931 0.61071 0.0
C564 C 0.33499 0.59213 0.59472 0.0
C565 C 0.3484 0.61116 0.59813 0.0
C566 C 0.3608 0.6174 0.61745 0.0
H567 H 0.61325 0.07875 0.81779 0.0
H568 H 0.64073 0.09592 0.88092 0.0
H569 H 0.6014 0.13218 0.84755 0.0
H570 H 0.63475 0.15599 0.8808 0.0
C571 C 0.63899 0.143 0.88886 0.0
O572 O 0.62195 0.1267 0.88332 0.0
H573 H 0.65493 0.14017 0.88428 0.0
C574 C 0.61578 0.08921 0.83104 0.0
C575 C 0.606 0.10618 0.8299 0.0
C576 C 0.62885 0.08548 0.84913 0.0
C577 C 0.63076 0.0983 0.86676 0.0
C578 C 0.62045 0.1148 0.86612 0.0
C579 C 0.60843 0.11888 0.84776 0.0
H580 H 0.1259 0.60095 0.34228 0.0
H581 H 0.13429 0.61598 0.40736 0.0
H582 H 0.09282 0.64493 0.36645 0.0
H583 H 0.11921 0.67179 0.40315 0.0
C584 C 0.1221 0.65959 0.41313 0.0
O585 O 0.10858 0.64196 0.40474 0.0
H586 H 0.14005 0.6586 0.41412 0.0
C587 C 0.12237 0.60953 0.35518 0.0
C588 C 0.10826 0.62334 0.35172 0.0
C589 C 0.13185 0.60663 0.3752 0.0
C590 C 0.12705 0.61776 0.39181 0.0
C591 C 0.11323 0.63162 0.38855 0.0
C592 C 0.10386 0.63441 0.36862 0.0
H593 H 0.61878 0.89248 0.57472 0.0
H594 H 0.59522 0.91439 0.62822 0.0
H595 H 0.57227 0.85357 0.60546 0.0
H596 H 0.53739 0.87202 0.61902 0.0
C597 C 0.54769 0.8833 0.63083 0.0
O598 O 0.56952 0.88069 0.63346 0.0
H599 H 0.5468 0.89829 0.62536 0.0
C600 C 0.60872 0.88998 0.58698 0.0
C601 C 0.59561 0.87103 0.58829 0.0
C602 C 0.60879 0.90577 0.60134 0.0
C603 C 0.59561 0.9024 0.61712 0.0
C604 C 0.58237 0.88368 0.61841 0.0
C605 C 0.58245 0.86804 0.60412 0.0
H606 H 0.35772 0.38598 0.84938 0.0
H607 H 0.33299 0.3678 0.9051 0.0
H608 H 0.37669 0.33561 0.87882 0.0
H609 H 0.3431 0.30912 0.89666 0.0
C610 C 0.33748 0.3203 0.90636 0.0
O611 O 0.3532 0.33778 0.9087 0.0
H612 H 0.32121 0.32289 0.89846 0.0
C613 C 0.3571 0.37619 0.86184 0.0
C614 C 0.36885 0.36049 0.86208 0.0
C615 C 0.34416 0.37911 0.87731 0.0
C616 C 0.34323 0.36616 0.89325 0.0
C617 C 0.35483 0.3505 0.89365 0.0
C618 C 0.36772 0.34776 0.87822 0.0
H619 H 0.8559 0.0792 0.12857 0.0
H620 H 0.8342 0.10655 0.07389 0.0
H621 H 0.88601 0.13949 0.11928 0.0
H622 H 0.85812 0.16495 0.1006 0.0
C623 C 0.85078 0.1559 0.08605 0.0
O624 O 0.86195 0.1405 0.08373 0.0
H625 H 0.83283 0.14983 0.08676 0.0
C626 C 0.85705 0.09195 0.11936 0.0
C627 C 0.87261 0.10948 0.12638 0.0
C628 C 0.84312 0.09066 0.10043 0.0
C629 C 0.84474 0.10724 0.08855 0.0
C630 C 0.86003 0.12483 0.09551 0.0
C631 C 0.87397 0.12591 0.1143 0.0
H632 H 0.10313 0.11654 0.35603 0.0
H633 H 0.16178 0.09187 0.37256 0.0
H634 H 0.11519 0.06758 0.31902 0.0
H635 H 0.13958 0.03591 0.33769 0.0
C636 C 0.15185 0.04681 0.34851 0.0
O637 O 0.15319 0.06552 0.3413 0.0
H638 H 0.14594 0.04641 0.36375 0.0
C639 C 0.11343 0.10587 0.35302 0.0
C640 C 0.1067 0.09216 0.33588 0.0
C641 C 0.1332 0.10594 0.36641 0.0
C642 C 0.14619 0.09179 0.36269 0.0
C643 C 0.13962 0.07796 0.34567 0.0
C644 C 0.11985 0.07806 0.33237 0.0
H645 H 0.07754 0.89614 0.69453 0.0
H646 H 0.0377 0.83714 0.68096 0.0
H647 H 0.08974 0.85797 0.64556 0.0
H648 H 0.0461 0.83861 0.62326 0.0
C649 C 0.04228 0.82595 0.63305 0.0
O650 O 0.05791 0.82833 0.65049 0.0
H651 H 0.02545 0.82577 0.63748 0.0
C652 C 0.07376 0.88193 0.68569 0.0
C653 C 0.0859 0.87895 0.66965 0.0
C654 C 0.05626 0.86703 0.68996 0.0
C655 C 0.05138 0.84873 0.67827 0.0
C656 C 0.06343 0.84559 0.66229 0.0
C657 C 0.08067 0.8606 0.65806 0.0
H658 H 0.33087 0.87028 0.84076 0.0
H659 H 0.37508 0.8487 0.80394 0.0
H660 H 0.34696 0.8991 0.78643 0.0
H661 H 0.36284 0.87364 0.7464 0.0
C662 C 0.36693 0.86398 0.75889 0.0
O663 O 0.3734 0.87553 0.77715 0.0
H664 H 0.3516 0.8525 0.7594 0.0
C665 C 0.33934 0.87115 0.82736 0.0
C666 C 0.33722 0.88643 0.81415 0.0
C667 C 0.35282 0.85735 0.82379 0.0
C668 C 0.36428 0.85897 0.80675 0.0
C669 C 0.36171 0.87372 0.79311 0.0
C670 C 0.34814 0.88734 0.79672 0.0
H671 H 0.35843 0.065 0.13866 0.0
H672 H 0.37397 0.12402 0.11802 0.0
H673 H 0.31437 0.08399 0.09029 0.0
H674 H 0.33491 0.10851 0.06069 0.0
C675 C 0.34406 0.12155 0.07102 0.0
O676 O 0.33841 0.11955 0.09046 0.0
H677 H 0.36231 0.12218 0.07143 0.0
C678 C 0.35438 0.07617 0.12846 0.0
C679 C 0.33469 0.07194 0.11415 0.0
C680 C 0.3686 0.09495 0.13013 0.0
C681 C 0.36328 0.10942 0.11693 0.0
C682 C 0.34395 0.10525 0.10241 0.0
C683 C 0.32966 0.08666 0.10112 0.0
H684 H 0.10574 0.88458 0.0908 0.0
H685 H 0.0415 0.89194 0.1051 0.0
H686 H 0.09732 0.94114 0.11568 0.0
H687 H 0.05812 0.9499 0.14257 0.0
C688 C 0.05507 0.9335 0.13943 0.0
O689 O 0.05499 0.92937 0.11873 0.0
H690 H 0.06906 0.92839 0.14891 0.0
C691 C 0.09532 0.89369 0.09708 0.0
C692 C 0.10444 0.91362 0.10362 0.0
C693 C 0.07264 0.88571 0.09733 0.0
C694 C 0.05905 0.89782 0.10479 0.0
C695 C 0.06807 0.91772 0.11157 0.0
C696 C 0.09059 0.92569 0.1106 0.0
H697 H 0.37282 0.82825 0.33751 0.0
H698 H 0.34944 0.87728 0.30934 0.0
H699 H 0.36046 0.87665 0.37509 0.0
H700 H 0.3198 0.89069 0.35837 0.0
C701 C 0.32535 0.89746 0.34444 0.0
O702 O 0.34749 0.89657 0.34407 0.0
H703 H 0.31476 0.8888 0.33078 0.0
C704 C 0.36781 0.84252 0.33889 0.0
C705 C 0.36783 0.85146 0.3584 0.0
C706 C 0.36109 0.8516 0.32114 0.0
C707 C 0.3547 0.8701 0.32295 0.0
C708 C 0.35427 0.87903 0.3424 0.0
C709 C 0.36078 0.86967 0.36011 0.0
H710 H 0.3308 0.13685 0.61481 0.0
H711 H 0.39652 0.1335 0.64502 0.0
H712 H 0.33859 0.10222 0.66719 0.0
H713 H 0.38531 0.1098 0.70381 0.0
C714 C 0.39005 0.12015 0.69195 0.0
O715 O 0.38196 0.11057 0.6728 0.0
H716 H 0.38245 0.13342 0.69432 0.0
C717 C 0.34153 0.13138 0.6267 0.0
C718 C 0.33177 0.11877 0.64062 0.0
C719 C 0.36491 0.13683 0.62793 0.0
C720 C 0.37849 0.13001 0.64391 0.0
C721 C 0.36886 0.11793 0.65819 0.0
C722 C 0.34565 0.1123 0.65652 0.0
H723 H 0.09286 0.16782 0.87005 0.0
H724 H 0.12053 0.11525 0.86275 0.0
H725 H 0.13527 0.14987 0.92031 0.0
H726 H 0.1741 0.12756 0.91272 0.0
C727 C 0.16392 0.11983 0.89842 0.0
O728 O 0.14157 0.11821 0.90008 0.0
H729 H 0.16855 0.12891 0.88547 0.0
C730 C 0.10317 0.15768 0.87622 0.0
C731 C 0.11379 0.16099 0.89667 0.0
C732 C 0.10547 0.14126 0.86376 0.0
C733 C 0.11854 0.12803 0.87203 0.0
C734 C 0.12937 0.13128 0.89228 0.0
C735 C 0.12709 0.14774 0.90455 0.0
H736 H 0.85392 0.32561 0.8506 0.0
H737 H 0.83355 0.37735 0.82567 0.0
H738 H 0.82489 0.36406 0.88753 0.0
H739 H 0.78877 0.38305 0.86661 0.0
C740 C 0.79797 0.39007 0.85455 0.0
O741 O 0.82034 0.38951 0.85928 0.0
H742 H 0.79079 0.38149 0.83967 0.0
C743 C 0.8471 0.33893 0.85244 0.0
C744 C 0.8399 0.34342 0.87106 0.0
C745 C 0.84471 0.3509 0.8359 0.0
C746 C 0.8353 0.36781 0.83821 0.0
C747 C 0.82834 0.37264 0.85687 0.0
C748 C 0.83039 0.36031 0.8732 0.0
H749 H 0.8362 0.64755 0.11983 0.0
H750 H 0.90458 0.66455 0.14935 0.0
H751 H 0.8557 0.63012 0.18044 0.0
H752 H 0.89439 0.65685 0.21246 0.0
C753 C 0.90224 0.66265 0.19916 0.0
O754 O 0.89725 0.64807 0.18323 0.0
H755 H 0.89543 0.67608 0.19486 0.0
C756 C 0.84904 0.64741 0.13275 0.0
C757 C 0.84322 0.63734 0.14994 0.0
C758 C 0.87116 0.65725 0.13211 0.0
C759 C 0.88732 0.6575 0.14943 0.0
C760 C 0.88149 0.64813 0.16689 0.0
C761 C 0.85962 0.63799 0.1671 0.0
H762 H 0.60083 0.64278 0.38666 0.0
H763 H 0.62902 0.59013 0.38354 0.0
H764 H 0.64662 0.63022 0.43749 0.0
H765 H 0.68536 0.6027 0.4322 0.0
C766 C 0.67454 0.59825 0.41721 0.0
O767 O 0.65251 0.59694 0.42 0.0
H768 H 0.67972 0.60996 0.40666 0.0
C769 C 0.61171 0.6334 0.39353 0.0
C770 C 0.62337 0.63869 0.41342 0.0
C771 C 0.61367 0.61598 0.38253 0.0
C772 C 0.62743 0.60371 0.39169 0.0
C773 C 0.63947 0.60901 0.41133 0.0
C774 C 0.63753 0.62648 0.42215 0.0
H775 H 0.84481 0.37704 0.33272 0.0
H776 H 0.89838 0.36016 0.30489 0.0
H777 H 0.86086 0.40043 0.27578 0.0
H778 H 0.88988 0.37472 0.24268 0.0
C779 C 0.89094 0.36731 0.25733 0.0
O780 O 0.89363 0.38153 0.27342 0.0
H781 H 0.87504 0.35624 0.25668 0.0
C782 C 0.85476 0.37785 0.32032 0.0
C783 C 0.85073 0.39024 0.30436 0.0
C784 C 0.8718 0.36681 0.32064 0.0
C785 C 0.88496 0.36832 0.30479 0.0
C786 C 0.88063 0.38004 0.28845 0.0
C787 C 0.86352 0.39091 0.28818 0.0
H788 H 0.58095 0.63104 0.86773 0.0
H789 H 0.64462 0.61323 0.87818 0.0
H790 H 0.5981 0.58954 0.82452 0.0
H791 H 0.62463 0.55949 0.83808 0.0
C792 C 0.63632 0.5695 0.85014 0.0
O793 O 0.63732 0.589 0.84521 0.0
H794 H 0.62988 0.56726 0.86504 0.0
C795 C 0.59269 0.62254 0.86281 0.0
C796 C 0.5869 0.61031 0.84446 0.0
C797 C 0.61351 0.62381 0.87498 0.0
C798 C 0.62859 0.61258 0.86882 0.0
C799 C 0.62285 0.60005 0.85081 0.0
C800 C 0.60216 0.59905 0.83859 0.0
H801 H 0.88437 0.61741 0.92103 0.0
H802 H 0.91393 0.60283 0.86807 0.0
H803 H 0.94809 0.65072 0.91128 0.0
H804 H 0.9616 0.65987 0.86998 0.0
C805 C 0.94924 0.6466 0.86283 0.0
O806 O 0.94866 0.63167 0.87625 0.0
H807 H 0.93277 0.65123 0.85982 0.0
C808 C 0.89804 0.61969 0.91211 0.0
C809 C 0.91652 0.63512 0.9187 0.0
C810 C 0.89677 0.60763 0.89398 0.0
C811 C 0.91417 0.61181 0.88202 0.0
C812 C 0.93235 0.62751 0.88814 0.0
C813 C 0.93367 0.63893 0.90654 0.0
H814 H 0.10597 0.09037 0.65563 0.0
H815 H 0.13939 0.10929 0.60427 0.0
H816 H 0.09644 0.14409 0.62743 0.0
H817 H 0.09241 0.14363 0.58228 0.0
C818 C 0.10761 0.13757 0.58051 0.0
O819 O 0.12144 0.14026 0.59914 0.0
H820 H 0.10226 0.12145 0.57556 0.0
C821 C 0.1096 0.10082 0.64415 0.0
C822 C 0.09992 0.11785 0.64374 0.0
C823 C 0.12389 0.09728 0.63 0.0
C824 C 0.12817 0.11115 0.61517 0.0
C825 C 0.118 0.12771 0.61414 0.0
C826 C 0.10415 0.13116 0.62848 0.0
H827 H 0.60768 0.40025 0.31698 0.0
H828 H 0.63684 0.40279 0.38047 0.0
H829 H 0.57305 0.36532 0.35981 0.0
H830 H 0.57723 0.3895 0.39802 0.0
C831 C 0.59373 0.38691 0.40531 0.0
O832 O 0.60373 0.37754 0.39131 0.0
H833 H 0.60441 0.40166 0.41072 0.0
C834 C 0.60679 0.39572 0.33244 0.0
C835 C 0.58811 0.38193 0.33639 0.0
C836 C 0.62458 0.40336 0.34817 0.0
C837 C 0.62325 0.39733 0.36814 0.0
C838 C 0.60468 0.38365 0.37221 0.0
C839 C 0.58728 0.3759 0.35638 0.0
H840 H 0.31698 0.85932 0.11477 0.0
H841 H 0.32313 0.86787 0.05113 0.0
H842 H 0.34988 0.82167 0.08108 0.0
H843 H 0.37916 0.84301 0.05532 0.0
C844 C 0.36667 0.84723 0.04336 0.0
O845 O 0.34537 0.83956 0.04713 0.0
H846 H 0.36946 0.86376 0.04395 0.0
C847 C 0.32227 0.8551 0.10049 0.0
C848 C 0.33336 0.83906 0.09989 0.0
C849 C 0.31822 0.86574 0.08303 0.0
C850 C 0.32624 0.86034 0.065 0.0
C851 C 0.33794 0.84473 0.06452 0.0
C852 C 0.34135 0.83406 0.08186 0.0
H853 H 0.84747 0.36644 0.62322 0.0
H854 H 0.85324 0.36728 0.55868 0.0
H855 H 0.87323 0.3207 0.59341 0.0
H856 H 0.90368 0.33257 0.56417 0.0
C857 C 0.89321 0.34086 0.5541 0.0
O858 O 0.87138 0.33594 0.55772 0.0
H859 H 0.8999 0.35706 0.55776 0.0
C860 C 0.85199 0.3601 0.60943 0.0
C861 C 0.86042 0.34252 0.61042 0.0
C862 C 0.84879 0.36912 0.59077 0.0
C863 C 0.85549 0.3608 0.57331 0.0
C864 C 0.86462 0.3436 0.57443 0.0
C865 C 0.86658 0.33423 0.59281 0.0
H866 H 0.40383 0.11838 0.42629 0.0
H867 H 0.43403 0.11032 0.37199 0.0
H868 H 0.46705 0.15468 0.41945 0.0
H869 H 0.48572 0.1655 0.37576 0.0
C870 C 0.46932 0.15531 0.37113 0.0
O871 O 0.46845 0.13911 0.38295 0.0
H872 H 0.45636 0.16405 0.37396 0.0
C873 C 0.41751 0.12211 0.41753 0.0
C874 C 0.43565 0.13742 0.42546 0.0
C875 C 0.41664 0.11194 0.39834 0.0
C876 C 0.43401 0.1179 0.38673 0.0
C877 C 0.45188 0.13347 0.39425 0.0
C878 C 0.45283 0.143 0.41364 0.0
H879 H 0.61971 0.56785 0.17986 0.0
H880 H 0.64787 0.58811 0.12615 0.0
H881 H 0.59507 0.61307 0.1456 0.0
H882 H 0.58983 0.60485 0.10106 0.0
C883 C 0.60764 0.60556 0.09921 0.0
O884 O 0.62104 0.61244 0.11757 0.0
H885 H 0.60965 0.59027 0.09463 0.0
C886 C 0.62042 0.57729 0.16716 0.0
C887 C 0.60598 0.59095 0.16487 0.0
C888 C 0.63576 0.57589 0.15334 0.0
C889 C 0.63609 0.58834 0.13689 0.0
C890 C 0.62119 0.60135 0.13401 0.0
C891 C 0.6064 0.60282 0.14804 0.0
H892 H 0.11054 0.93164 0.86556 0.0
H893 H 0.15525 0.90039 0.90106 0.0
H894 H 0.08565 0.87586 0.89006 0.0
H895 H 0.119 0.88911 0.93599 0.0
C896 C 0.12646 0.87628 0.93147 0.0
O897 O 0.12381 0.87296 0.91039 0.0
H898 H 0.14464 0.88017 0.93733 0.0
C899 C 0.11347 0.91893 0.87388 0.0
C900 C 0.09525 0.90351 0.87566 0.0
C901 C 0.13545 0.91801 0.8825 0.0
C902 C 0.13869 0.90195 0.89438 0.0
C903 C 0.12054 0.8875 0.89781 0.0
C904 C 0.09906 0.88802 0.88818 0.0
H905 H 0.86323 0.85299 0.66372 0.0
H906 H 0.80299 0.86678 0.63158 0.0
H907 H 0.82988 0.89481 0.69131 0.0
H908 H 0.78064 0.88665 0.68422 0.0
C909 C 0.77817 0.88524 0.66716 0.0
O910 O 0.79814 0.89229 0.66026 0.0
H911 H 0.77202 0.86922 0.66211 0.0
C912 C 0.84944 0.86078 0.66324 0.0
C913 C 0.84854 0.87401 0.67986 0.0
C914 C 0.83315 0.85798 0.64569 0.0
C915 C 0.81587 0.86878 0.64483 0.0
C916 C 0.81477 0.88194 0.6613 0.0
C917 C 0.83106 0.88461 0.67869 0.0
H918 H 0.87339 0.08624 0.3582 0.0
H919 H 0.89882 0.14937 0.36131 0.0
H920 H 0.85076 0.12553 0.39971 0.0
H921 H 0.84207 0.1603 0.37885 0.0
C922 C 0.85945 0.16858 0.37879 0.0
O923 O 0.87433 0.15808 0.38856 0.0
H924 H 0.8622 0.17009 0.36256 0.0
C925 C 0.87382 0.10112 0.36469 0.0
C926 C 0.86049 0.10382 0.37984 0.0
C927 C 0.88786 0.11738 0.35799 0.0
C928 C 0.88852 0.13657 0.36665 0.0
C929 C 0.87499 0.13946 0.38152 0.0
C930 C 0.8613 0.1231 0.38835 0.0
H931 H 0.60094 0.12908 0.14312 0.0
H932 H 0.64942 0.09563 0.12751 0.0
H933 H 0.60985 0.07624 0.17393 0.0
H934 H 0.65884 0.06095 0.18005 0.0
C935 C 0.66169 0.07102 0.16752 0.0
O936 O 0.64188 0.06945 0.15439 0.0
H937 H 0.66761 0.08636 0.17496 0.0
C938 C 0.60918 0.11661 0.14551 0.0
C939 C 0.603 0.10312 0.16026 0.0
C940 C 0.62554 0.11386 0.13328 0.0
C941 C 0.63657 0.09792 0.13655 0.0
C942 C 0.63119 0.0848 0.15154 0.0
C943 C 0.61432 0.08719 0.16311 0.0
H944 H 0.63204 0.88815 0.82768 0.0
H945 H 0.61475 0.82706 0.84225 0.0
H946 H 0.676 0.86391 0.87163 0.0
H947 H 0.68027 0.82104 0.86246 0.0
C948 C 0.66209 0.81452 0.86039 0.0
O949 O 0.65095 0.82816 0.86812 0.0
H950 H 0.65625 0.81095 0.84368 0.0
C951 C 0.6359 0.8757 0.83604 0.0
C952 C 0.65574 0.87836 0.85 0.0
C953 C 0.62079 0.85735 0.83313 0.0
C954 C 0.62616 0.84132 0.844 0.0
C955 C 0.64615 0.84366 0.85763 0.0
C956 C 0.66077 0.86219 0.86081 0.0
H957 H 0.82805 0.12047 0.87434 0.0
H958 H 0.88495 0.15506 0.85247 0.0
H959 H 0.85863 0.0953 0.82722 0.0
H960 H 0.90616 0.10536 0.83776 0.0
C961 C 0.90954 0.12107 0.83352 0.0
O962 O 0.88973 0.12677 0.8265 0.0
H963 H 0.91797 0.13048 0.8476 0.0
C964 C 0.84082 0.12175 0.8644 0.0
C965 C 0.84136 0.10557 0.8508 0.0
C966 C 0.8564 0.13969 0.86519 0.0
C967 C 0.87248 0.14152 0.85183 0.0
C968 C 0.87322 0.12547 0.83822 0.0
C969 C 0.85758 0.10766 0.83757 0.0
H970 H 0.59358 0.1986 0.60761 0.0
H971 H 0.62211 0.14592 0.61118 0.0
H972 H 0.62583 0.17977 0.55833 0.0
H973 H 0.62156 0.13561 0.54637 0.0
C974 C 0.62223 0.13168 0.56258 0.0
O975 O 0.63463 0.14773 0.57508 0.0
H976 H 0.60472 0.12808 0.56595 0.0
C977 C 0.60265 0.18836 0.60119 0.0
C978 C 0.60955 0.19151 0.5819 0.0
C979 C 0.607 0.17194 0.61201 0.0
C980 C 0.61844 0.15863 0.6032 0.0
C981 C 0.62496 0.16139 0.58386 0.0
C982 C 0.62083 0.17792 0.57337 0.0
H983 H 0.62972 0.84477 0.37407 0.0
H984 H 0.5597 0.82018 0.35713 0.0
H985 H 0.59257 0.86419 0.32125 0.0
H986 H 0.5484 0.87017 0.32665 0.0
C987 C 0.54087 0.85494 0.33039 0.0
O988 O 0.55437 0.84192 0.32588 0.0
H989 H 0.5395 0.8555 0.34707 0.0
C990 C 0.61432 0.84371 0.3636 0.0
C991 C 0.61378 0.85581 0.34697 0.0
C992 C 0.59498 0.8308 0.36741 0.0
C993 C 0.57489 0.82977 0.35418 0.0
C994 C 0.57407 0.84196 0.3377 0.0
C995 C 0.59348 0.8548 0.334 0.0
H996 H 0.85281 0.88856 0.1263 0.0
H997 H 0.8716 0.83256 0.11319 0.0
H998 H 0.84061 0.8617 0.0644 0.0
H999 H 0.8268 0.81827 0.05974 0.0
C1000 C 0.84151 0.81412 0.06899 0.0
O1001 O 0.85809 0.8309 0.07372 0.0
H1002 H 0.8363 0.8079 0.08329 0.0
C1003 C 0.85371 0.8766 0.11536 0.0
C1004 C 0.84541 0.87724 0.09449 0.0
C1005 C 0.86303 0.86048 0.12228 0.0
C1006 C 0.8643 0.84502 0.10812 0.0
C1007 C 0.85642 0.84565 0.0873 0.0
C1008 C 0.84702 0.86167 0.08052 0.0
H1009 H 0.09583 0.69105 0.11668 0.0
H1010 H 0.13164 0.6432 0.12576 0.0
H1011 H 0.12883 0.67082 0.06865 0.0
H1012 H 0.13712 0.6248 0.06283 0.0
C1013 C 0.13299 0.62474 0.07872 0.0
O1014 O 0.14313 0.64276 0.08911 0.0
H1015 H 0.11442 0.62237 0.07733 0.0
C1016 C 0.106 0.68128 0.11115 0.0
C1017 C 0.11164 0.6829 0.09126 0.0
C1018 C 0.11311 0.66705 0.12383 0.0
C1019 C 0.12592 0.65425 0.11629 0.0
C1020 C 0.13141 0.65558 0.09642 0.0
C1021 C 0.12455 0.67002 0.08404 0.0
H1022 H 0.12802 0.38029 0.89759 0.0
H1023 H 0.05904 0.35633 0.87417 0.0
H1024 H 0.0939 0.40718 0.84822 0.0
H1025 H 0.04495 0.40861 0.84668 0.0
C1026 C 0.04028 0.39323 0.8515 0.0
O1027 O 0.05581 0.38236 0.84672 0.0
H1028 H 0.03992 0.39434 0.86836 0.0
C1029 C 0.11297 0.38096 0.88723 0.0
C1030 C 0.11344 0.39565 0.87301 0.0
C1031 C 0.09352 0.36666 0.8878 0.0
C1032 C 0.0743 0.36709 0.87386 0.0
C1033 C 0.0745 0.3818 0.85977 0.0
C1034 C 0.09403 0.39591 0.85922 0.0
H1035 H 0.37106 0.38059 0.64151 0.0
H1036 H 0.39378 0.3286 0.62097 0.0
H1037 H 0.3497 0.35473 0.57953 0.0
H1038 H 0.34126 0.31162 0.57192 0.0
C1039 C 0.35707 0.3088 0.58047 0.0
O1040 O 0.37253 0.32644 0.58363 0.0
H1041 H 0.35346 0.30292 0.59539 0.0
C1042 C 0.37126 0.36942 0.62946 0.0
C1043 C 0.35867 0.36965 0.61002 0.0
C1044 C 0.38384 0.3546 0.63361 0.0
C1045 C 0.38414 0.34011 0.61803 0.0
C1046 C 0.37207 0.34041 0.59855 0.0
C1047 C 0.3594 0.3551 0.59456 0.0
H1048 H 0.07 0.63048 0.64473 0.0
H1049 H 0.1176 0.61424 0.60812 0.0
H1050 H 0.10888 0.58716 0.66461 0.0
H1051 H 0.15589 0.59855 0.65806 0.0
C1052 C 0.1536 0.59703 0.641 0.0
O1053 O 0.13141 0.58958 0.63356 0.0
H1054 H 0.15887 0.61206 0.63548 0.0
C1055 C 0.08254 0.62187 0.6422 0.0
C1056 C 0.08793 0.60849 0.6567 0.0
C1057 C 0.09285 0.62405 0.62441 0.0
C1058 C 0.10938 0.61298 0.62165 0.0
C1059 C 0.11529 0.59993 0.63627 0.0
C1060 C 0.10435 0.59747 0.65356 0.0
H1061 H 0.35775 0.32739 0.14887 0.0
H1062 H 0.29942 0.35149 0.12926 0.0
H1063 H 0.34296 0.37591 0.1846 0.0
H1064 H 0.29553 0.37397 0.18828 0.0
C1065 C 0.28874 0.37334 0.17171 0.0
O1066 O 0.30611 0.37789 0.16046 0.0
H1067 H 0.27915 0.35797 0.16717 0.0
C1068 C 0.34688 0.33768 0.15147 0.0
C1069 C 0.35262 0.35145 0.1686 0.0
C1070 C 0.32785 0.3376 0.13712 0.0
C1071 C 0.31428 0.35142 0.14011 0.0
C1072 C 0.31959 0.36499 0.15738 0.0
C1073 C 0.33889 0.3652 0.17144 0.0
H1074 H 0.61711 0.37407 0.16849 0.0
H1075 H 0.59359 0.31653 0.13617 0.0
H1076 H 0.65771 0.35083 0.12896 0.0
H1077 H 0.63386 0.33005 0.09111 0.0
C1078 C 0.62304 0.31741 0.09713 0.0
O1079 O 0.62905 0.31745 0.11806 0.0
H1080 H 0.60541 0.31934 0.09361 0.0
C1081 C 0.61965 0.36228 0.15813 0.0
C1082 C 0.63948 0.36455 0.14948 0.0
C1083 C 0.60292 0.34513 0.15342 0.0
C1084 C 0.60632 0.32988 0.14004 0.0
C1085 C 0.626 0.33205 0.13114 0.0
C1086 C 0.64254 0.34934 0.13586 0.0
H1087 H 0.88223 0.57286 0.62992 0.0
H1088 H 0.89822 0.63665 0.62742 0.0
H1089 H 0.84738 0.60163 0.58286 0.0
H1090 H 0.87414 0.63514 0.56465 0.0
C1091 C 0.88102 0.6446 0.57904 0.0
O1092 O 0.86973 0.63743 0.59471 0.0
H1093 H 0.89909 0.64411 0.58268 0.0
C1094 C 0.87944 0.58638 0.62303 0.0
C1095 C 0.86298 0.58501 0.60578 0.0
C1096 C 0.89241 0.60489 0.6312 0.0
C1097 C 0.88896 0.6221 0.62137 0.0
C1098 C 0.87308 0.62077 0.60379 0.0
C1099 C 0.86007 0.60233 0.5961 0.0
H1100 H 0.6299 0.40831 0.58639 0.0
H1101 H 0.57142 0.40732 0.61566 0.0
H1102 H 0.62418 0.45907 0.62444 0.0
H1103 H 0.59449 0.45773 0.66199 0.0
C1104 C 0.58816 0.44238 0.65486 0.0
O1105 O 0.58503 0.44312 0.63381 0.0
H1106 H 0.60109 0.43357 0.66006 0.0
C1107 C 0.62059 0.41555 0.5962 0.0
C1108 C 0.62955 0.43494 0.60475 0.0
C1109 C 0.59972 0.40539 0.60006 0.0
C1110 C 0.58763 0.41488 0.61262 0.0
C1111 C 0.59659 0.43414 0.62151 0.0
C1112 C 0.61749 0.44415 0.61758 0.0
H1113 H 0.34787 0.57798 0.85887 0.0
H1114 H 0.3609 0.64128 0.87328 0.0
H1115 H 0.31098 0.60334 0.90065 0.0
H1116 H 0.29864 0.64347 0.89335 0.0
C1117 C 0.31516 0.65034 0.88922 0.0
O1118 O 0.33097 0.64014 0.89789 0.0
H1119 H 0.31382 0.64934 0.87218 0.0
C1120 C 0.34454 0.59082 0.86716 0.0
C1121 C 0.32805 0.58821 0.88014 0.0
C1122 C 0.35651 0.60988 0.86452 0.0
C1123 C 0.3519 0.62645 0.87512 0.0
C1124 C 0.33555 0.62402 0.88811 0.0
C1125 C 0.32379 0.60497 0.89075 0.0
H1126 H 0.15252 0.39755 0.36232 0.0
H1127 H 0.13682 0.3383 0.38257 0.0
H1128 H 0.19343 0.38012 0.41374 0.0
H1129 H 0.20298 0.33951 0.41713 0.0
C1130 C 0.18646 0.33216 0.40856 0.0
O1131 O 0.17089 0.34356 0.41186 0.0
H1132 H 0.18836 0.33097 0.392 0.0
C1133 C 0.1562 0.3863 0.37257 0.0
C1134 C 0.17463 0.39114 0.38816 0.0
C1135 C 0.14204 0.36746 0.37051 0.0
C1136 C 0.14738 0.35295 0.38373 0.0
C1137 C 0.166 0.35752 0.39912 0.0
C1138 C 0.17932 0.37667 0.40156 0.0
H1139 H 0.34359 0.63502 0.39971 0.0
H1140 H 0.40371 0.65658 0.37432 0.0
H1141 H 0.36666 0.59763 0.35642 0.0
H1142 H 0.4138 0.60055 0.36593 0.0
C1143 C 0.42003 0.61526 0.36011 0.0
O1144 O 0.40226 0.62357 0.35229 0.0
H1145 H 0.43022 0.62498 0.3733 0.0
C1146 C 0.35571 0.63257 0.38989 0.0
C1147 C 0.35264 0.61437 0.37818 0.0
C1148 C 0.37395 0.64797 0.38848 0.0
C1149 C 0.38936 0.64498 0.37536 0.0
C1150 C 0.38673 0.62679 0.36399 0.0
C1151 C 0.36833 0.61166 0.36523 0.0
C1152 C 0.16296 0.45045 0.15392 0.0
C1153 C 0.16023 0.46412 0.13899 0.0
H1154 H 0.15364 0.42055 0.16241 0.0
C1155 C 0.14561 0.45776 0.12069 0.0
H1156 H 0.17364 0.45508 0.1684 0.0
C1157 C 0.13419 0.43799 0.11725 0.0
C1158 C 0.13683 0.42434 0.13223 0.0
H1159 H 0.14312 0.46805 0.109 0.0
H1160 H 0.12295 0.43347 0.10303 0.0
C1161 C 0.1513 0.43077 0.15061 0.0
C1162 C 0.80894 0.93255 0.40819 0.0
C1163 C 0.79399 0.93829 0.39265 0.0
H1164 H 0.82969 0.91179 0.41725 0.0
C1165 C 0.78863 0.92704 0.37373 0.0
H1166 H 0.81353 0.94103 0.42288 0.0
C1167 C 0.79779 0.9102 0.37052 0.0
C1168 C 0.81259 0.90432 0.38614 0.0
H1169 H 0.7778 0.93148 0.36121 0.0
H1170 H 0.79321 0.90175 0.35582 0.0
C1171 C 0.81806 0.91571 0.40501 0.0
C1172 C 0.29143 0.53302 0.6179 0.0
C1173 C 0.29281 0.52049 0.60093 0.0
H1174 H 0.30332 0.56151 0.63433 0.0
C1175 C 0.3074 0.52751 0.58706 0.0
H1176 H 0.28079 0.5278 0.62913 0.0
C1177 C 0.32029 0.54675 0.59003 0.0
C1178 C 0.31915 0.5592 0.60715 0.0
H1179 H 0.30886 0.5181 0.5739 0.0
H1180 H 0.33155 0.55172 0.5792 0.0
C1181 C 0.30455 0.55218 0.62103 0.0
C1182 C 0.66484 0.05056 0.83193 0.0
C1183 C 0.66929 0.04042 0.84961 0.0
H1184 H 0.64933 0.07292 0.81812 0.0
C1185 C 0.65909 0.04421 0.8668 0.0
H1186 H 0.6725 0.04814 0.81843 0.0
C1187 C 0.64534 0.05833 0.86651 0.0
C1188 C 0.64165 0.06907 0.84908 0.0
H1189 H 0.66211 0.03661 0.88065 0.0
H1190 H 0.63787 0.061 0.88005 0.0
C1191 C 0.65136 0.06476 0.83172 0.0
C1192 C 0.17712 0.57699 0.36956 0.0
C1193 C 0.17572 0.56492 0.38622 0.0
H1194 H 0.16463 0.59977 0.35319 0.0
C1195 C 0.15963 0.56653 0.39908 0.0
H1196 H 0.18937 0.57617 0.35938 0.0
C1197 C 0.14531 0.57993 0.3954 0.0
C1198 C 0.14679 0.59209 0.37882 0.0
H1199 H 0.158 0.55738 0.41197 0.0
H1200 H 0.13292 0.58062 0.40545 0.0
C1201 C 0.16284 0.59044 0.36592 0.0
C1202 C 0.63423 0.95366 0.57945 0.0
C1203 C 0.64772 0.96417 0.59684 0.0
H1204 H 0.61152 0.9268 0.56719 0.0
C1205 C 0.64817 0.95546 0.61573 0.0
H1206 H 0.63351 0.96009 0.56472 0.0
C1207 C 0.63557 0.9365 0.61717 0.0
C1208 C 0.62233 0.92583 0.59973 0.0
H1209 H 0.65795 0.96343 0.62949 0.0
H1210 H 0.63628 0.93012 0.63193 0.0
C1211 C 0.6218 0.93459 0.58083 0.0
C1212 C 0.30505 0.41252 0.85674 0.0
C1213 C 0.30303 0.42352 0.87464 0.0
H1214 H 0.31933 0.38979 0.8436 0.0
C1215 C 0.31557 0.42051 0.89329 0.0
H1216 H 0.29561 0.41441 0.84212 0.0
C1217 C 0.32927 0.4064 0.89411 0.0
C1218 C 0.33078 0.39502 0.8763 0.0
H1219 H 0.31445 0.42875 0.90736 0.0
H1220 H 0.33857 0.40429 0.90873 0.0
C1221 C 0.31875 0.39845 0.85757 0.0
C1222 C 0.81403 0.04483 0.06627 0.0
C1223 C 0.80123 0.03386 0.07956 0.0
H1224 H 0.83709 0.0715 0.0624 0.0
C1225 C 0.80142 0.04214 0.09943 0.0
H1226 H 0.81425 0.03877 0.05088 0.0
C1227 C 0.81454 0.06084 0.10604 0.0
C1228 C 0.82765 0.07166 0.09287 0.0
H1229 H 0.79223 0.03384 0.1102 0.0
H1230 H 0.81471 0.06672 0.12158 0.0
C1231 C 0.82698 0.06361 0.07281 0.0
C1232 C 0.14527 0.15607 0.39615 0.0
C1233 C 0.15235 0.15134 0.41619 0.0
H1234 H 0.13402 0.14553 0.36485 0.0
C1235 C 0.15382 0.13152 0.41968 0.0
H1236 H 0.14405 0.17117 0.39283 0.0
C1237 C 0.14805 0.11673 0.40348 0.0
C1238 C 0.14053 0.1215 0.38357 0.0
H1239 H 0.1593 0.1274 0.43491 0.0
H1240 H 0.14899 0.10153 0.40659 0.0
C1241 C 0.13942 0.14135 0.38009 0.0
C1242 C 0.02272 0.89376 0.72187 0.0
C1243 C 0.01535 0.87933 0.7352 0.0
H1244 H 0.04086 0.90106 0.69698 0.0
C1245 C 0.02165 0.86073 0.73368 0.0
H1246 H 0.01806 0.9082 0.72249 0.0
C1247 C 0.03501 0.85668 0.71907 0.0
C1248 C 0.04232 0.87116 0.70572 0.0
H1249 H 0.01625 0.84929 0.74374 0.0
H1250 H 0.03977 0.8423 0.71835 0.0
C1251 C 0.03595 0.88971 0.70729 0.0
C1252 C 0.33981 0.81827 0.86154 0.0
C1253 C 0.36129 0.81574 0.86976 0.0
H1254 H 0.32031 0.83331 0.84046 0.0
C1255 C 0.37982 0.82575 0.86146 0.0
H1256 H 0.32516 0.81074 0.86751 0.0
C1257 C 0.377 0.83868 0.84594 0.0
C1258 C 0.35562 0.84195 0.83849 0.0
H1259 H 0.39659 0.82411 0.8674 0.0
H1260 H 0.39165 0.84677 0.8404 0.0
C1261 C 0.33702 0.83129 0.84613 0.0
C1262 C 0.4093 0.12128 0.17557 0.0
C1263 C 0.42397 0.10801 0.17922 0.0
H1264 H 0.38045 0.12759 0.15709 0.0
C1265 C 0.42078 0.0907 0.1661 0.0
H1266 H 0.41133 0.13479 0.18533 0.0
C1267 C 0.40296 0.08653 0.14998 0.0
C1268 C 0.38821 0.09975 0.14648 0.0
H1269 H 0.4318 0.08018 0.1685 0.0
H1270 H 0.40069 0.07298 0.14024 0.0
C1271 C 0.3917 0.11725 0.15931 0.0
C1272 C 0.04031 0.84476 0.05897 0.0
C1273 C 0.05331 0.83005 0.06201 0.0
H1274 H 0.03614 0.87402 0.06811 0.0
C1275 C 0.06985 0.83237 0.07932 0.0
H1276 H 0.02729 0.84337 0.0459 0.0
C1277 C 0.07484 0.8499 0.09202 0.0
C1278 C 0.06331 0.8654 0.08776 0.0
H1279 H 0.08001 0.82125 0.08228 0.0
H1280 H 0.08869 0.85187 0.10443 0.0
C1281 C 0.04525 0.86229 0.07177 0.0
C1282 C 0.37326 0.83893 0.26791 0.0
C1283 C 0.36123 0.81927 0.26404 0.0
H1284 H 0.3823 0.86484 0.28905 0.0
C1285 C 0.34813 0.81088 0.27849 0.0
H1286 H 0.38303 0.8459 0.25676 0.0
C1287 C 0.34779 0.82163 0.29683 0.0
C1288 C 0.36016 0.84111 0.30091 0.0
H1289 H 0.33859 0.7958 0.27583 0.0
H1290 H 0.33799 0.81465 0.30797 0.0
C1291 C 0.37262 0.84983 0.28618 0.0
C1292 C 0.3735 0.15739 0.57643 0.0
C1293 C 0.3934 0.17154 0.58145 0.0
H1294 H 0.34945 0.13491 0.58681 0.0
C1295 C 0.40418 0.1741 0.60183 0.0
H1296 H 0.36493 0.15489 0.56081 0.0
C1297 C 0.39497 0.16294 0.61697 0.0
C1298 C 0.37495 0.1488 0.61197 0.0
H1299 H 0.41952 0.18497 0.60616 0.0
H1300 H 0.40338 0.16564 0.63263 0.0
C1301 C 0.36451 0.14603 0.59144 0.0
C1302 C 0.06928 0.11535 0.81546 0.0
C1303 C 0.06772 0.13132 0.80305 0.0
H1304 H 0.08226 0.10599 0.84439 0.0
C1305 C 0.08002 0.15034 0.81019 0.0
H1306 H 0.06003 0.1005 0.81046 0.0
C1307 C 0.09277 0.15347 0.82966 0.0
C1308 C 0.09357 0.13764 0.8424 0.0
H1309 H 0.07926 0.16297 0.80101 0.0
H1310 H 0.10175 0.16835 0.83488 0.0
C1311 C 0.08208 0.11847 0.83491 0.0
C1312 C 0.84174 0.33452 0.77987 0.0
C1313 C 0.86228 0.32846 0.77987 0.0
H1314 H 0.82024 0.34688 0.79767 0.0
C1315 C 0.87761 0.33126 0.79803 0.0
H1316 H 0.82958 0.3324 0.76608 0.0
C1317 C 0.87228 0.33945 0.816 0.0
C1318 C 0.85151 0.34502 0.81619 0.0
H1319 H 0.89324 0.32614 0.79868 0.0
H1320 H 0.88414 0.34086 0.82995 0.0
C1321 C 0.83647 0.34292 0.79786 0.0
C1322 C 0.87192 0.66721 0.07593 0.0
C1323 C 0.88835 0.68459 0.07712 0.0
H1324 H 0.85437 0.64451 0.09204 0.0
C1325 C 0.89947 0.69284 0.09645 0.0
H1326 H 0.86327 0.66038 0.0612 0.0
C1327 C 0.89388 0.68409 0.11431 0.0
C1328 C 0.87735 0.66667 0.11318 0.0
H1329 H 0.91212 0.70633 0.09781 0.0
H1330 H 0.90227 0.69121 0.12898 0.0
C1331 C 0.86669 0.65822 0.09369 0.0
C1332 C 0.58554 0.62012 0.32861 0.0
C1333 C 0.57224 0.60102 0.32397 0.0
H1334 H 0.60917 0.63978 0.35076 0.0
C1335 C 0.57415 0.5864 0.33805 0.0
H1336 H 0.58454 0.63172 0.3181 0.0
C1337 C 0.58829 0.59104 0.35676 0.0
C1338 C 0.60068 0.61043 0.36181 0.0
H1339 H 0.56419 0.57152 0.33493 0.0
H1340 H 0.58879 0.57969 0.36763 0.0
C1341 C 0.59954 0.62479 0.34737 0.0
C1342 C 0.86196 0.33059 0.36181 0.0
C1343 C 0.88384 0.33101 0.37149 0.0
H1344 H 0.84106 0.34141 0.33807 0.0
C1345 C 0.9018 0.3427 0.36379 0.0
H1346 H 0.84775 0.3217 0.3673 0.0
C1347 C 0.89793 0.35405 0.34707 0.0
C1348 C 0.87602 0.35401 0.33774 0.0
H1349 H 0.91886 0.34337 0.37088 0.0
H1350 H 0.91208 0.36328 0.3418 0.0
C1351 C 0.85811 0.34199 0.34515 0.0
C1352 C 0.64407 0.66282 0.91678 0.0
C1353 C 0.63022 0.65961 0.93207 0.0
H1354 H 0.64976 0.65365 0.88672 0.0
C1355 C 0.61072 0.64481 0.92831 0.0
H1356 H 0.65941 0.67388 0.91945 0.0
C1357 C 0.60509 0.63348 0.90958 0.0
C1358 C 0.61915 0.6364 0.89447 0.0
H1359 H 0.59981 0.642 0.93989 0.0
H1360 H 0.58999 0.62211 0.90706 0.0
C1361 C 0.63869 0.65115 0.8982 0.0
C1362 C 0.84978 0.57065 0.86108 0.0
C1363 C 0.83814 0.56136 0.87607 0.0
H1364 H 0.87675 0.59303 0.8548 0.0
C1365 C 0.84657 0.56641 0.89683 0.0
H1366 H 0.84349 0.56712 0.84494 0.0
C1367 C 0.86604 0.58075 0.90256 0.0
C1368 C 0.87718 0.59096 0.88766 0.0
H1369 H 0.83803 0.55929 0.90869 0.0
H1370 H 0.87217 0.58392 0.91875 0.0
C1371 C 0.86894 0.58546 0.86679 0.0
C1372 C 0.14759 0.05282 0.64935 0.0
C1373 C 0.15266 0.04443 0.63127 0.0
H1374 H 0.13595 0.0766 0.6635 0.0
C1375 C 0.14851 0.0534 0.61285 0.0
H1376 H 0.15088 0.04619 0.66377 0.0
C1377 C 0.13898 0.07033 0.61239 0.0
C1378 C 0.13408 0.07911 0.63052 0.0
H1379 H 0.1521 0.047 0.59867 0.0
H1380 H 0.13515 0.07623 0.59768 0.0
C1381 C 0.1388 0.07017 0.64907 0.0
C1382 C 0.67506 0.44575 0.35219 0.0
C1383 C 0.68438 0.44134 0.33465 0.0
H1384 H 0.64875 0.43723 0.37023 0.0
C1385 C 0.67376 0.42457 0.32158 0.0
H1386 H 0.68316 0.45821 0.36287 0.0
C1387 C 0.65426 0.41249 0.32587 0.0
C1388 C 0.64494 0.41677 0.34344 0.0
H1389 H 0.6806 0.4207 0.308 0.0
H1390 H 0.64675 0.3995 0.31562 0.0
C1391 C 0.65554 0.43355 0.35657 0.0
C1392 C 0.27676 0.89655 0.09763 0.0
C1393 C 0.28099 0.91298 0.08584 0.0
H1394 H 0.28401 0.86841 0.10512 0.0
C1395 C 0.29726 0.91381 0.07275 0.0
H1396 H 0.264 0.89538 0.10757 0.0
C1397 C 0.3095 0.89862 0.07189 0.0
C1398 C 0.30527 0.88204 0.08369 0.0
H1399 H 0.30083 0.92638 0.06352 0.0
H1400 H 0.32247 0.90009 0.06219 0.0
C1401 C 0.28845 0.88114 0.09633 0.0
C1402 C 0.80928 0.40379 0.59985 0.0
C1403 C 0.81495 0.41881 0.58662 0.0
H1404 H 0.81471 0.37617 0.61091 0.0
C1405 C 0.83208 0.41761 0.57482 0.0
H1406 H 0.79595 0.40411 0.60894 0.0
C1407 C 0.84336 0.40171 0.57634 0.0
C1408 C 0.83749 0.38651 0.58945 0.0
H1409 H 0.83685 0.42902 0.56453 0.0
H1410 H 0.85674 0.40141 0.56733 0.0
C1411 C 0.82022 0.38778 0.60109 0.0
C1412 C 0.36836 0.0681 0.39767 0.0
C1413 C 0.35957 0.06511 0.37678 0.0
H1414 H 0.3937 0.08437 0.4207 0.0
C1415 C 0.37035 0.07683 0.36274 0.0
H1416 H 0.36056 0.05911 0.40882 0.0
C1417 C 0.38901 0.09186 0.36961 0.0
C1418 C 0.39756 0.09523 0.39065 0.0
H1419 H 0.36382 0.07493 0.34654 0.0
H1420 H 0.39625 0.10121 0.35847 0.0
C1421 C 0.38727 0.08276 0.40449 0.0
C1422 C 0.67251 0.5417 0.17786 0.0
C1423 C 0.67988 0.53372 0.16073 0.0
H1424 H 0.65409 0.56205 0.18927 0.0
C1425 C 0.67297 0.53965 0.14124 0.0
H1426 H 0.67781 0.53742 0.19307 0.0
C1427 C 0.65851 0.55307 0.13883 0.0
C1428 C 0.6512 0.56144 0.15596 0.0
H1429 H 0.67827 0.53346 0.12778 0.0
H1430 H 0.65282 0.55654 0.12341 0.0
C1431 C 0.65868 0.55568 0.17557 0.0
C1432 C 0.17319 0.95501 0.8546 0.0
C1433 C 0.19341 0.95811 0.86793 0.0
H1434 H 0.13948 0.93931 0.8481 0.0
C1435 C 0.19424 0.94936 0.88674 0.0
H1436 H 0.17234 0.96143 0.83986 0.0
C1437 C 0.17515 0.93731 0.89201 0.0
C1438 C 0.15502 0.93304 0.87816 0.0
H1439 H 0.20975 0.95165 0.89725 0.0
H1440 H 0.17642 0.93107 0.9068 0.0
C1441 C 0.15429 0.94237 0.85948 0.0
C1442 C 0.83125 0.83476 0.59189 0.0
C1443 C 0.83677 0.81622 0.59605 0.0
H1444 H 0.8259 0.86256 0.60431 0.0
C1445 C 0.84085 0.81155 0.61659 0.0
H1446 H 0.828 0.83882 0.57625 0.0
C1447 C 0.83957 0.82507 0.63258 0.0
C1448 C 0.83417 0.84362 0.62849 0.0
H1449 H 0.84505 0.7974 0.6204 0.0
H1450 H 0.8426 0.82087 0.6482 0.0
C1451 C 0.82992 0.84831 0.60795 0.0
C1452 C 0.93577 0.11967 0.32694 0.0
C1453 C 0.92527 0.10775 0.30914 0.0
H1454 H 0.93206 0.13224 0.35636 0.0
C1455 C 0.90248 0.09912 0.30761 0.0
H1456 H 0.95329 0.1266 0.32854 0.0
C1457 C 0.89046 0.10227 0.3235 0.0
C1458 C 0.90087 0.11425 0.34123 0.0
H1459 H 0.89385 0.08987 0.29412 0.0
H1460 H 0.87288 0.0955 0.3218 0.0
C1461 C 0.92362 0.12302 0.34279 0.0
C1462 C 0.63545 0.13087 0.08077 0.0
C1463 C 0.63623 0.15144 0.08335 0.0
H1464 H 0.63128 0.10294 0.09438 0.0
C1465 C 0.63448 0.15973 0.1028 0.0
H1466 H 0.63674 0.12396 0.06602 0.0
C1467 C 0.63149 0.14764 0.11914 0.0
C1468 C 0.63021 0.12701 0.11641 0.0
H1469 H 0.63512 0.17553 0.10536 0.0
H1470 H 0.6301 0.15445 0.1339 0.0
C1471 C 0.63247 0.11881 0.09709 0.0
C1472 C 0.57042 0.83646 0.79286 0.0
C1473 C 0.55919 0.85249 0.79169 0.0
H1474 H 0.59893 0.82551 0.80656 0.0
C1475 C 0.56796 0.86975 0.80465 0.0
H1476 H 0.56407 0.82296 0.78305 0.0
C1477 C 0.58761 0.87108 0.8183 0.0
C1478 C 0.59926 0.85531 0.81917 0.0
H1479 H 0.55957 0.88227 0.80434 0.0
H1480 H 0.59363 0.88451 0.82827 0.0
C1481 C 0.59032 0.83789 0.80641 0.0
C1482 C 0.85301 0.16633 0.9157 0.0
C1483 C 0.85418 0.18613 0.91054 0.0
H1484 H 0.85306 0.13637 0.90555 0.0
C1485 C 0.85684 0.19074 0.89033 0.0
H1486 H 0.8511 0.16219 0.93112 0.0
C1487 C 0.85801 0.17578 0.87558 0.0
C1488 C 0.85632 0.15595 0.88075 0.0
H1489 H 0.85787 0.20585 0.88586 0.0
H1490 H 0.85972 0.17963 0.86004 0.0
C1491 C 0.85404 0.15146 0.90101 0.0
C1492 C 0.57979 0.14503 0.65401 0.0
C1493 C 0.57823 0.1609 0.66756 0.0
H1494 H 0.58946 0.13603 0.62574 0.0
C1495 C 0.58775 0.18036 0.66355 0.0
H1496 H 0.57253 0.12985 0.65657 0.0
C1497 C 0.59785 0.18391 0.64594 0.0
C1498 C 0.59843 0.16811 0.63183 0.0
H1499 H 0.58698 0.19291 0.67376 0.0
H1500 H 0.6049 0.1991 0.64325 0.0
C1501 C 0.58963 0.14859 0.63631 0.0
C1502 C 0.58944 0.78864 0.40296 0.0
C1503 C 0.59909 0.79879 0.422 0.0
H1504 H 0.58029 0.79094 0.37065 0.0
C1505 C 0.60673 0.81948 0.42287 0.0
H1506 H 0.58329 0.77272 0.40181 0.0
C1507 C 0.60516 0.82976 0.40514 0.0
C1508 C 0.59571 0.81966 0.38612 0.0
H1509 H 0.61421 0.82779 0.43725 0.0
H1510 H 0.61131 0.8457 0.40631 0.0
C1511 C 0.5876 0.79904 0.38518 0.0
C1512 C 0.89548 0.87474 0.17551 0.0
C1513 C 0.88785 0.85804 0.18607 0.0
H1514 H 0.89335 0.88866 0.14698 0.0
C1515 C 0.87165 0.84236 0.17567 0.0
H1516 H 0.90767 0.88719 0.18329 0.0
C1517 C 0.8637 0.84309 0.15488 0.0
C1518 C 0.8714 0.85975 0.1443 0.0
H1519 H 0.8655 0.82933 0.1835 0.0
H1520 H 0.8514 0.83071 0.14709 0.0
C1521 C 0.88719 0.87566 0.15483 0.0
C1522 C 0.09684 0.68037 0.17532 0.0
C1523 C 0.08798 0.66156 0.18159 0.0
H1524 H 0.1121 0.69685 0.1524 0.0
C1525 C 0.08954 0.6445 0.1697 0.0
H1526 H 0.09609 0.69382 0.18419 0.0
C1527 C 0.09854 0.64626 0.15135 0.0
C1528 C 0.10622 0.66511 0.14452 0.0
H1529 H 0.08288 0.62978 0.17407 0.0
H1530 H 0.09847 0.63285 0.14205 0.0
C1531 C 0.10587 0.68212 0.15702 0.0
C1532 C 0.08589 0.31715 0.91219 0.0
C1533 C 0.09517 0.32306 0.93271 0.0
H1534 H 0.0779 0.3264 0.88185 0.0
C1535 C 0.10334 0.34339 0.9383 0.0
H1536 H 0.07936 0.30161 0.90741 0.0
C1537 C 0.10256 0.35745 0.92373 0.0
C1538 C 0.09344 0.35158 0.90323 0.0
H1539 H 0.11055 0.3485 0.95396 0.0
H1540 H 0.10904 0.373 0.92854 0.0
C1541 C 0.08491 0.33132 0.8976 0.0
C1542 C 0.4035 0.3359 0.6847 0.0
C1543 C 0.41873 0.35265 0.69429 0.0
H1544 H 0.38082 0.32333 0.65773 0.0
C1545 C 0.42251 0.37007 0.68379 0.0
H1546 H 0.40025 0.32231 0.6925 0.0
C1547 C 0.41114 0.37075 0.66406 0.0
C1548 C 0.39611 0.35391 0.65439 0.0
H1549 H 0.43383 0.38331 0.691 0.0
H1550 H 0.41416 0.38439 0.65631 0.0
C1551 C 0.39249 0.33645 0.66482 0.0
C1552 C 0.05791 0.65502 0.59277 0.0
C1553 C 0.07389 0.66698 0.58305 0.0
H1554 H 0.051 0.63148 0.61243 0.0
C1555 C 0.0959 0.66377 0.58563 0.0
H1556 H 0.04075 0.65705 0.59083 0.0
C1557 C 0.10206 0.64949 0.59863 0.0
C1558 C 0.08619 0.63795 0.60902 0.0
H1559 H 0.10859 0.67297 0.57845 0.0
H1560 H 0.11941 0.64809 0.60116 0.0
C1561 C 0.06389 0.6405 0.60533 0.0
C1562 C 0.32131 0.28966 0.10465 0.0
C1563 C 0.31879 0.29605 0.08464 0.0
H1564 H 0.32589 0.2978 0.13683 0.0
C1565 C 0.31727 0.316 0.08198 0.0
H1566 H 0.32239 0.27439 0.10732 0.0
C1567 C 0.31913 0.32942 0.09905 0.0
C1568 C 0.32274 0.32313 0.119 0.0
H1569 H 0.31523 0.32137 0.06678 0.0
H1570 H 0.31871 0.34487 0.09666 0.0
C1571 C 0.32335 0.30305 0.1216 0.0
C1572 C 0.55517 0.32633 0.18281 0.0
C1573 C 0.54516 0.34308 0.18387 0.0
H1574 H 0.58135 0.31379 0.1722 0.0
C1575 C 0.55321 0.35974 0.17343 0.0
H1576 H 0.54929 0.31321 0.19061 0.0
C1577 C 0.57139 0.36 0.16289 0.0
C1578 C 0.582 0.34362 0.16254 0.0
H1579 H 0.54577 0.37283 0.17371 0.0
H1580 H 0.57743 0.37321 0.1553 0.0
C1581 C 0.57342 0.32658 0.17218 0.0
C1582 C 0.92135 0.5936 0.68287 0.0
C1583 C 0.94099 0.60819 0.68571 0.0
H1584 H 0.89024 0.58171 0.66419 0.0
C1585 C 0.94461 0.62184 0.67068 0.0
H1586 H 0.918 0.58305 0.69436 0.0
C1587 C 0.92903 0.62069 0.65294 0.0
C1588 C 0.90918 0.60616 0.65007 0.0
H1589 H 0.95971 0.63317 0.67244 0.0
H1590 H 0.93275 0.63106 0.64139 0.0
C1591 C 0.90551 0.59276 0.66543 0.0
C1592 C 0.59751 0.35336 0.57784 0.0
C1593 C 0.57712 0.3498 0.56453 0.0
H1594 H 0.62052 0.37379 0.59974 0.0
C1595 C 0.56277 0.36343 0.56539 0.0
H1596 H 0.6089 0.34314 0.5777 0.0
C1597 C 0.56943 0.38097 0.57813 0.0
C1598 C 0.59061 0.38523 0.59009 0.0
H1599 H 0.54687 0.36107 0.55544 0.0
H1600 H 0.55866 0.39177 0.5776 0.0
C1601 C 0.60421 0.37094 0.59042 0.0
C1602 C 0.40285 0.60103 0.83494 0.0
C1603 C 0.40211 0.61509 0.82011 0.0
H1604 H 0.38908 0.58845 0.8607 0.0
C1605 C 0.38723 0.62824 0.82085 0.0
H1606 H 0.41414 0.59071 0.83484 0.0
C1607 C 0.37293 0.62695 0.83568 0.0
C1608 C 0.37309 0.6124 0.85001 0.0
H1609 H 0.38626 0.63928 0.80969 0.0
H1610 H 0.36119 0.63688 0.83547 0.0
C1611 C 0.38842 0.59965 0.84968 0.0
C1612 C 0.09448 0.34194 0.32922 0.0
C1613 C 0.08287 0.35743 0.32509 0.0
H1614 H 0.12261 0.333 0.34647 0.0
C1615 C 0.09036 0.37579 0.33645 0.0
H1616 H 0.08907 0.3276 0.3207 0.0
C1617 C 0.10914 0.37875 0.35141 0.0
C1618 C 0.12132 0.36356 0.35518 0.0
H1619 H 0.08157 0.38793 0.33392 0.0
H1620 H 0.11405 0.39302 0.36009 0.0
C1621 C 0.11362 0.34501 0.34405 0.0
C1622 C 0.38263 0.70321 0.40289 0.0
C1623 C 0.38216 0.70363 0.42419 0.0
H1624 H 0.38044 0.68529 0.37495 0.0
C1625 C 0.37947 0.68553 0.43363 0.0
H1626 H 0.38483 0.71685 0.39508 0.0
C1627 C 0.37656 0.66745 0.422 0.0
C1628 C 0.3769 0.66712 0.40076 0.0
H1629 H 0.38019 0.68519 0.45002 0.0
H1630 H 0.37453 0.65373 0.42969 0.0
C1631 C 0.38015 0.68516 0.39133 0.0
C1632 C 0.10638 0.36022 0.04967 0.0
C1633 C 0.10734 0.3399 0.04876 0.0
H1634 H 0.10656 0.38635 0.06855 0.0
C1635 C 0.10967 0.33039 0.06715 0.0
H1636 H 0.10449 0.36802 0.03581 0.0
C1637 C 0.11102 0.34102 0.08604 0.0
C1638 C 0.1101 0.36136 0.08691 0.0
H1639 H 0.1105 0.31477 0.06697 0.0
H1640 H 0.11304 0.33335 0.09998 0.0
C1641 C 0.10773 0.3708 0.06848 0.0
C1642 C 0.87097 0.87602 0.31497 0.0
C1643 C 0.86816 0.85675 0.30558 0.0
H1644 H 0.86469 0.89417 0.33989 0.0
C1645 C 0.85561 0.84079 0.31424 0.0
H1646 H 0.88059 0.88864 0.30874 0.0
C1647 C 0.84646 0.84397 0.3321 0.0
C1648 C 0.84957 0.86319 0.34168 0.0
H1649 H 0.8531 0.82576 0.30739 0.0
H1650 H 0.83692 0.83136 0.33842 0.0
C1651 C 0.86176 0.8792 0.33279 0.0
C1652 C 0.33852 0.65572 0.52616 0.0
C1653 C 0.35498 0.67315 0.53075 0.0
H1654 H 0.31933 0.63037 0.53787 0.0
C1655 C 0.3648 0.6783 0.55126 0.0
H1656 H 0.33072 0.65126 0.51051 0.0
C1657 C 0.3582 0.66637 0.56685 0.0
C1658 C 0.34153 0.64916 0.56226 0.0
H1659 H 0.37761 0.69156 0.55532 0.0
H1660 H 0.36606 0.67058 0.58252 0.0
C1661 C 0.33195 0.64378 0.54177 0.0
C1662 C 0.56475 0.12517 0.79077 0.0
C1663 C 0.57074 0.11882 0.77217 0.0
H1664 H 0.57024 0.12536 0.82345 0.0
C1665 C 0.58847 0.10866 0.77255 0.0
H1666 H 0.55098 0.13291 0.79084 0.0
C1667 C 0.60012 0.10498 0.7912 0.0
C1668 C 0.59384 0.11075 0.81 0.0
H1669 H 0.59358 0.10383 0.75839 0.0
H1670 H 0.61422 0.09774 0.79075 0.0
C1671 C 0.57594 0.12093 0.80947 0.0
C1672 C 0.09565 0.67914 0.4567 0.0
C1673 C 0.10569 0.67072 0.47372 0.0
H1674 H 0.09299 0.68218 0.42428 0.0
C1675 C 0.12129 0.65873 0.47073 0.0
H1676 H 0.08347 0.68836 0.45841 0.0
C1677 C 0.12675 0.65529 0.45115 0.0
C1678 C 0.11686 0.66391 0.43427 0.0
H1679 H 0.12923 0.65194 0.48349 0.0
H1680 H 0.13865 0.64585 0.44916 0.0
C1681 C 0.10111 0.67568 0.43716 0.0
C1682 C 0.53198 0.89579 0.68308 0.0
C1683 C 0.52281 0.87688 0.68894 0.0
H1684 H 0.5471 0.91257 0.66016 0.0
C1685 C 0.52183 0.8601 0.67558 0.0
H1686 H 0.53313 0.909 0.69307 0.0
C1687 C 0.52977 0.86221 0.65675 0.0
C1688 C 0.53868 0.88112 0.65086 0.0
H1689 H 0.515 0.84531 0.67968 0.0
H1690 H 0.52898 0.84907 0.64676 0.0
C1691 C 0.53995 0.89787 0.66426 0.0
C1692 C 0.35041 0.2995 0.95831 0.0
C1693 C 0.32914 0.29495 0.96447 0.0
H1694 H 0.3696 0.31102 0.93507 0.0
C1695 C 0.31075 0.2994 0.95176 0.0
H1696 H 0.36492 0.29622 0.96772 0.0
C1697 C 0.31351 0.30796 0.93319 0.0
C1698 C 0.3347 0.31224 0.92694 0.0
H1699 H 0.29415 0.2961 0.95604 0.0
H1700 H 0.299 0.31101 0.92359 0.0
C1701 C 0.35313 0.30798 0.93968 0.0
C1702 C 0.90262 0.12756 0.17981 0.0
C1703 C 0.91203 0.11119 0.18579 0.0
H1704 H 0.88271 0.13981 0.15641 0.0
C1705 C 0.90961 0.0948 0.17158 0.0
H1706 H 0.90421 0.14044 0.19037 0.0
C1707 C 0.89729 0.09446 0.15212 0.0
C1708 C 0.8872 0.11053 0.14641 0.0
H1709 H 0.91672 0.08198 0.17566 0.0
H1710 H 0.89546 0.08151 0.14159 0.0
C1711 C 0.89037 0.12725 0.16032 0.0
C1712 C 0.06223 0.1132 0.30353 0.0
C1713 C 0.04553 0.09618 0.29757 0.0
H1714 H 0.09468 0.12517 0.32004 0.0
C1715 C 0.04975 0.07753 0.3031 0.0
H1716 H 0.05962 0.12778 0.29943 0.0
C1717 C 0.06996 0.07604 0.31494 0.0
C1718 C 0.08622 0.0932 0.32159 0.0
H1719 H 0.03725 0.06412 0.29868 0.0
H1720 H 0.07252 0.06158 0.31952 0.0
C1721 C 0.0823 0.11172 0.31541 0.0
C1722 C 0.06197 0.78781 0.60011 0.0
C1723 C 0.04332 0.77206 0.59708 0.0
H1724 H 0.0761 0.81717 0.61387 0.0
C1725 C 0.02449 0.7739 0.60636 0.0
H1726 H 0.07675 0.78685 0.59319 0.0
C1727 C 0.02422 0.79121 0.61821 0.0
C1728 C 0.04272 0.80702 0.62093 0.0
H1729 H 0.00988 0.76203 0.60439 0.0
H1730 H 0.00946 0.7923 0.62509 0.0
C1731 C 0.06165 0.80513 0.6119 0.0
C1732 C 0.40708 0.82808 0.76133 0.0
C1733 C 0.42452 0.83837 0.75183 0.0
H1734 H 0.37509 0.82805 0.77075 0.0
C1735 C 0.42204 0.85634 0.74317 0.0
H1736 H 0.40845 0.81422 0.76817 0.0
C1737 C 0.40296 0.86423 0.74473 0.0
C1738 C 0.38587 0.85418 0.75469 0.0
H1739 H 0.43518 0.8647 0.73583 0.0
H1740 H 0.40183 0.87848 0.73866 0.0
C1741 C 0.38797 0.83594 0.76278 0.0
C1742 C 0.34773 0.17497 0.05613 0.0
C1743 C 0.32503 0.17614 0.05192 0.0
H1744 H 0.37154 0.15684 0.0656 0.0
C1745 C 0.30873 0.15894 0.05272 0.0
H1746 H 0.36072 0.18796 0.05574 0.0
C1747 C 0.31498 0.14113 0.05824 0.0
C1748 C 0.33763 0.14018 0.06307 0.0
H1749 H 0.29111 0.15932 0.04958 0.0
H1750 H 0.30213 0.12819 0.05927 0.0
C1751 C 0.35396 0.15718 0.06179 0.0
C1752 C 0.0105 0.89743 0.16105 0.0
C1753 C -0.00731 0.90769 0.15961 0.0
H1754 H 0.04407 0.8975 0.15556 0.0
C1755 C -0.00497 0.9259 0.15034 0.0
H1756 H 0.00918 0.88327 0.16791 0.0
C1757 C 0.01503 0.93401 0.14338 0.0
C1758 C 0.03308 0.92412 0.14564 0.0
H1759 H 0.98159 0.93412 0.14885 0.0
H1760 H 0.01662 0.94825 0.13666 0.0
C1761 C 0.03046 0.90553 0.15402 0.0
C1762 C 0.36512 0.82281 0.40597 0.0
C1763 C 0.38533 0.81589 0.40756 0.0
H1764 H 0.34391 0.83997 0.38925 0.0
C1765 C 0.40062 0.82251 0.39414 0.0
H1766 H 0.35306 0.81805 0.41616 0.0
C1767 C 0.3953 0.83487 0.37875 0.0
C1768 C 0.37474 0.84111 0.37665 0.0
H1769 H 0.41635 0.81751 0.39499 0.0
H1770 H 0.40697 0.83909 0.36807 0.0
C1771 C 0.35993 0.83544 0.39071 0.0
C1772 C 0.44949 0.14856 0.70982 0.0
C1773 C 0.46218 0.1371 0.70001 0.0
H1774 H 0.41672 0.15223 0.71471 0.0
C1775 C 0.45116 0.1198 0.68792 0.0
H1776 H 0.45752 0.16193 0.7193 0.0
C1777 C 0.42792 0.11423 0.68544 0.0
C1778 C 0.41516 0.1261 0.69458 0.0
H1779 H 0.46049 0.11053 0.68036 0.0
H1780 H 0.41994 0.10071 0.67618 0.0
C1781 C 0.42617 0.1431 0.70712 0.0
C1782 C 0.08597 0.19872 0.92148 0.0
C1783 C 0.10424 0.21128 0.93355 0.0
H1784 H 0.07467 0.17298 0.90053 0.0
C1785 C 0.12566 0.20688 0.93382 0.0
H1786 H 0.06924 0.20165 0.92095 0.0
C1787 C 0.12875 0.19037 0.92213 0.0
C1788 C 0.11053 0.17806 0.90977 0.0
H1789 H 0.14008 0.21624 0.94298 0.0
H1790 H 0.14548 0.1875 0.92241 0.0
C1791 C 0.08909 0.18235 0.90969 0.0
C1792 C 0.29291 0.0248 0.09386 0.0
C1793 C 0.28843 0.01596 0.11207 0.0
H1794 H 0.31132 0.04916 0.0802 0.0
C1795 C 0.29941 0.02555 0.13093 0.0
H1796 H 0.28481 0.01773 0.07906 0.0
C1797 C 0.31445 0.04364 0.13159 0.0
C1798 C 0.31897 0.05251 0.11339 0.0
H1799 H 0.29626 0.01918 0.14525 0.0
H1800 H 0.32226 0.05083 0.14641 0.0
C1801 C 0.30804 0.04285 0.09451 0.0
C1802 C 0.79476 0.44041 0.83326 0.0
C1803 C 0.78976 0.45117 0.85009 0.0
H1804 H 0.80132 0.41274 0.82159 0.0
C1805 C 0.78795 0.44187 0.86855 0.0
H1806 H 0.79641 0.44714 0.81885 0.0
C1807 C 0.79074 0.42218 0.87004 0.0
C1808 C 0.7952 0.41134 0.85307 0.0
H1809 H 0.78426 0.44975 0.88184 0.0
H1810 H 0.78921 0.41534 0.88441 0.0
C1811 C 0.79754 0.42073 0.83478 0.0
C1812 C 0.78915 0.61161 0.16689 0.0
C1813 C 0.77897 0.59918 0.14935 0.0
H1814 H 0.81725 0.63366 0.18076 0.0
C1815 C 0.78935 0.6004 0.13162 0.0
H1816 H 0.78153 0.61112 0.18077 0.0
C1817 C 0.80988 0.61318 0.13168 0.0
C1818 C 0.82048 0.62512 0.14944 0.0
H1819 H 0.78198 0.59102 0.11786 0.0
H1820 H 0.81784 0.61315 0.11802 0.0
C1821 C 0.80969 0.62444 0.16694 0.0
C1822 C 0.68774 0.54622 0.41402 0.0
C1823 C 0.684 0.54138 0.39272 0.0
H1824 H 0.68758 0.56793 0.43838 0.0
C1825 C 0.67662 0.55515 0.37957 0.0
H1826 H 0.69329 0.53593 0.4246 0.0
C1827 C 0.67352 0.57349 0.3875 0.0
C1828 C 0.6778 0.57846 0.40872 0.0
H1829 H 0.6735 0.55189 0.3631 0.0
H1830 H 0.668 0.58392 0.37706 0.0
C1831 C 0.68454 0.56454 0.42193 0.0
C1832 C 0.15699 0.9449 0.08912 0.0
C1833 C 0.17291 0.93329 0.09531 0.0
H1834 H 0.12267 0.94781 0.08706 0.0
C1835 C 0.1665 0.91633 0.10594 0.0
H1836 H 0.16145 0.95811 0.08099 0.0
C1837 C 0.14446 0.91052 0.1094 0.0
C1838 C 0.1283 0.92155 0.1024 0.0
H1839 H 0.17836 0.90716 0.11113 0.0
H1840 H 0.13991 0.89707 0.11716 0.0
C1841 C 0.13485 0.93909 0.09269 0.0
C1842 C 0.11786 0.91687 0.63888 0.0
C1843 C 0.1322 0.92953 0.65444 0.0
H1844 H 0.09197 0.89098 0.63151 0.0
C1845 C 0.13226 0.92466 0.67492 0.0
H1846 H 0.11745 0.92018 0.62294 0.0
C1847 C 0.11776 0.90786 0.6798 0.0
C1848 C 0.10291 0.89555 0.66431 0.0
H1849 H 0.14322 0.93401 0.68725 0.0
H1850 H 0.11798 0.90463 0.69575 0.0
C1851 C 0.10337 0.90005 0.64377 0.0
C1852 C 0.80324 0.41723 0.28856 0.0
C1853 C 0.80163 0.42717 0.30723 0.0
H1854 H 0.81989 0.39764 0.273 0.0
C1855 C 0.81636 0.42499 0.32481 0.0
H1856 H 0.79213 0.41861 0.27473 0.0
C1857 C 0.83225 0.41306 0.32379 0.0
C1858 C 0.83381 0.403 0.30518 0.0
H1859 H 0.81566 0.43251 0.33941 0.0
H1860 H 0.84351 0.41191 0.33759 0.0
C1861 C 0.8192 0.4053 0.28753 0.0
C1862 C 0.68737 0.54725 0.86788 0.0
C1863 C 0.70132 0.55327 0.85316 0.0
H1864 H 0.6561 0.54781 0.87852 0.0
C1865 C 0.69369 0.56442 0.83727 0.0
H1866 H 0.6927 0.5386 0.88029 0.0
C1867 C 0.67271 0.56965 0.83627 0.0
C1868 C 0.6591 0.56414 0.85134 0.0
H1869 H 0.70392 0.56918 0.82559 0.0
H1870 H 0.66719 0.57813 0.82378 0.0
C1871 C 0.66647 0.55261 0.86695 0.0
C1872 C 0.92513 0.67881 0.95847 0.0
C1873 C 0.91857 0.66922 0.97571 0.0
H1874 H 0.92956 0.67559 0.92686 0.0
C1875 C 0.91191 0.6484 0.97413 0.0
H1876 H 0.93037 0.69483 0.95918 0.0
C1877 C 0.91152 0.63743 0.95573 0.0
C1878 C 0.91778 0.64698 0.93839 0.0
H1879 H 0.90687 0.64048 0.98711 0.0
H1880 H 0.90638 0.6214 0.95511 0.0
C1881 C 0.92479 0.66779 0.93999 0.0
C1882 C 0.05837 0.10991 0.68182 0.0
C1883 C 0.06039 0.12929 0.69064 0.0
H1884 H 0.06872 0.09116 0.65978 0.0
C1885 C 0.07492 0.14495 0.68348 0.0
H1886 H 0.04719 0.09753 0.68688 0.0
C1887 C 0.0875 0.14127 0.66812 0.0
C1888 C 0.08574 0.12185 0.65945 0.0
H1889 H 0.07692 0.16005 0.68999 0.0
H1890 H 0.09901 0.15361 0.66339 0.0
C1891 C 0.07083 0.10625 0.66635 0.0
C1892 C 0.60185 0.36657 0.45801 0.0
C1893 C 0.58311 0.35101 0.45672 0.0
H1894 H 0.61988 0.39002 0.44278 0.0
C1895 C 0.56849 0.34668 0.43809 0.0
H1896 H 0.61354 0.37021 0.47207 0.0
C1897 C 0.57213 0.35813 0.42138 0.0
C1898 C 0.59036 0.37415 0.42303 0.0
H1899 H 0.55396 0.33475 0.43655 0.0
H1900 H 0.56048 0.35474 0.40726 0.0
C1901 C 0.60548 0.37797 0.4413 0.0
C1902 C 0.35874 0.81173 0.14287 0.0
C1903 C 0.34018 0.80506 0.15281 0.0
H1904 H 0.37109 0.82766 0.11816 0.0
C1905 C 0.3194 0.80943 0.14504 0.0
H1906 H 0.37495 0.80855 0.14849 0.0
C1907 C 0.31728 0.82048 0.12788 0.0
C1908 C 0.33581 0.8272 0.11797 0.0
H1909 H 0.30479 0.80452 0.15236 0.0
H1910 H 0.30106 0.82367 0.12223 0.0
C1911 C 0.35653 0.82258 0.1255 0.0
C1912 C 0.90689 0.31724 0.50521 0.0
C1913 C 0.89705 0.32802 0.4901 0.0
H1914 H 0.9133 0.31279 0.53729 0.0
C1915 C 0.88554 0.34264 0.49612 0.0
H1916 H 0.91581 0.30585 0.50107 0.0
C1917 C 0.88421 0.34662 0.51681 0.0
C1918 C 0.89429 0.33604 0.53187 0.0
H1919 H 0.87774 0.35119 0.48489 0.0
H1920 H 0.87545 0.35808 0.52111 0.0
C1921 C 0.90547 0.3212 0.52591 0.0
C1922 C 0.48158 0.14496 0.31699 0.0
C1923 C 0.46 0.13785 0.30625 0.0
H1924 H 0.50142 0.15589 0.34595 0.0
C1925 C 0.44166 0.13567 0.31715 0.0
H1926 H 0.49607 0.14669 0.30909 0.0
C1927 C 0.44477 0.14103 0.33818 0.0
C1928 C 0.46624 0.14866 0.34872 0.0
H1929 H 0.42483 0.13014 0.30939 0.0
H1930 H 0.43035 0.13955 0.34616 0.0
C1931 C 0.48467 0.15023 0.33806 0.0
C1932 C 0.6404 0.63139 0.05963 0.0
C1933 C 0.626 0.64344 0.05098 0.0
H1934 H 0.64576 0.61003 0.08168 0.0
C1935 C 0.60571 0.64331 0.05856 0.0
H1936 H 0.65618 0.63119 0.0542 0.0
C1937 C 0.59986 0.63126 0.07431 0.0
C1938 C 0.61411 0.61901 0.08268 0.0
H1939 H 0.59429 0.65248 0.05231 0.0
H1940 H 0.58409 0.63137 0.07982 0.0
C1941 C 0.6345 0.6193 0.07534 0.0
C1942 C 0.03264 0.88955 0.85647 0.0
C1943 C 0.03142 0.89724 0.83708 0.0
H1944 H 0.05323 0.88658 0.88446 0.0
C1945 C 0.05075 0.9084 0.83118 0.0
H1946 H 0.01787 0.881 0.86142 0.0
C1947 C 0.07124 0.91085 0.8439 0.0
C1948 C 0.07284 0.90274 0.86321 0.0
H1949 H 0.05031 0.91429 0.81619 0.0
H1950 H 0.08592 0.91834 0.838 0.0
C1951 C 0.05304 0.89259 0.86956 0.0
C1952 C 0.89353 0.89906 0.72314 0.0
C1953 C 0.9027 0.88288 0.73011 0.0
H1954 H 0.86943 0.90901 0.70161 0.0
C1955 C 0.89271 0.86363 0.72162 0.0
H1956 H 0.90086 0.91409 0.72934 0.0
C1957 C 0.87464 0.86071 0.70582 0.0
C1958 C 0.86618 0.87698 0.69809 0.0
H1959 H 0.89923 0.85081 0.72675 0.0
H1960 H 0.86754 0.84571 0.6994 0.0
C1961 C 0.87547 0.89614 0.70726 0.0
C1962 C 0.88638 0.22146 0.39971 0.0
C1963 C 0.86814 0.2286 0.4058 0.0
H1964 H 0.89782 0.19688 0.38636 0.0
C1965 C 0.84724 0.21564 0.4038 0.0
H1966 H 0.90269 0.23108 0.40099 0.0
C1967 C 0.84456 0.19609 0.39556 0.0
C1968 C 0.86272 0.18909 0.38919 0.0
H1969 H 0.83285 0.22066 0.40834 0.0
H1970 H 0.82819 0.18653 0.39386 0.0
C1971 C 0.88366 0.20192 0.39139 0.0
C1972 C 0.56594 0.09991 0.2025 0.0
C1973 C 0.5484 0.10864 0.19376 0.0
H1974 H 0.59744 0.09231 0.19947 0.0
C1975 C 0.54892 0.11575 0.1742 0.0
H1976 H 0.56596 0.09443 0.21766 0.0
C1977 C 0.56642 0.11379 0.16333 0.0
C1978 C 0.58432 0.10528 0.17204 0.0
H1979 H 0.53541 0.12231 0.16702 0.0
H1980 H 0.56552 0.11862 0.1479 0.0
C1981 C 0.58389 0.09854 0.19192 0.0
C1982 C 0.63127 0.76726 0.8801 0.0
C1983 C 0.64884 0.75984 0.89101 0.0
H1984 H 0.62183 0.79031 0.86187 0.0
C1985 C 0.67087 0.77044 0.89173 0.0
H1986 H 0.61412 0.75947 0.87919 0.0
C1987 C 0.67519 0.78814 0.88192 0.0
C1988 C 0.6576 0.79557 0.87115 0.0
H1989 H 0.68478 0.76516 0.90001 0.0
H1990 H 0.6923 0.79604 0.88277 0.0
C1991 C 0.63563 0.78491 0.87022 0.0
C1992 C 0.95616 0.14149 0.80328 0.0
C1993 C 0.95595 0.12512 0.78961 0.0
H1994 H 0.94153 0.15302 0.82776 0.0
C1995 C 0.93895 0.10815 0.78906 0.0
H1996 H 0.96887 0.15486 0.80397 0.0
C1997 C 0.92337 0.10713 0.80276 0.0
C1998 C 0.92459 0.12301 0.81728 0.0
H1999 H 0.93822 0.09533 0.77864 0.0
H2000 H 0.9109 0.09366 0.80256 0.0
C2001 C 0.94057 0.14046 0.81693 0.0
C2002 C 0.57837 0.23 0.55916 0.0
C2003 C 0.59478 0.24199 0.54983 0.0
H2004 H 0.5701 0.20461 0.57642 0.0
C2005 C 0.61599 0.237 0.55074 0.0
H2006 H 0.56184 0.23338 0.5587 0.0
C2007 C 0.62072 0.22047 0.56091 0.0
C2008 C 0.6044 0.20869 0.57052 0.0
H2009 H 0.62901 0.24592 0.5437 0.0
H2010 H 0.63729 0.21715 0.56161 0.0
C2011 C 0.58314 0.21357 0.56942 0.0
C2012 C 0.48978 0.8513 0.28974 0.0
C2013 C 0.47473 0.83547 0.29609 0.0
H2014 H 0.52252 0.86976 0.29554 0.0
C2015 C 0.48164 0.82596 0.31361 0.0
H2016 H 0.48503 0.85886 0.27626 0.0
C2017 C 0.50306 0.83225 0.32461 0.0
C2018 C 0.51792 0.84821 0.31839 0.0
H2019 H 0.47052 0.81367 0.31886 0.0
H2020 H 0.50803 0.82473 0.33806 0.0
C2021 C 0.51121 0.85755 0.30075 0.0
C2022 C 0.87846 0.77913 0.05294 0.0
C2023 C 0.86373 0.76637 0.0377 0.0
H2024 H 0.88293 0.804 0.07493 0.0
C2025 C 0.84205 0.76993 0.0322 0.0
H2026 H 0.89519 0.77667 0.05771 0.0
C2027 C 0.83515 0.78572 0.04192 0.0
C2028 C 0.84978 0.79833 0.05729 0.0
H2029 H 0.83026 0.76031 0.02061 0.0
H2030 H 0.8182 0.78788 0.03768 0.0
C2031 C 0.87147 0.79481 0.06279 0.0
C2032 C 0.68683 0.92955 0.84065 0.0
C2033 C 0.69328 0.93837 0.86072 0.0
H2034 H 0.67022 0.90354 0.82156 0.0
C2035 C 0.68894 0.92674 0.8773 0.0
H2036 H 0.69005 0.93803 0.82753 0.0
C2037 C 0.67767 0.90691 0.87385 0.0
C2038 C 0.67037 0.89839 0.85376 0.0
H2039 H 0.6938 0.93306 0.89295 0.0
H2040 H 0.67383 0.89851 0.88689 0.0
C2041 C 0.67545 0.9098 0.83722 0.0
C2042 C 0.16643 0.58497 0.09409 0.0
C2043 C 0.15678 0.57757 0.11107 0.0
H2044 H 0.16657 0.60577 0.07071 0.0
C2045 C 0.13918 0.58567 0.11725 0.0
H2046 H 0.18011 0.57916 0.08902 0.0
C2047 C 0.13139 0.60078 0.10666 0.0
C2048 C 0.14102 0.60809 0.0897 0.0
H2049 H 0.13144 0.58036 0.13029 0.0
H2050 H 0.11783 0.6068 0.11171 0.0
C2051 C 0.15871 0.60017 0.0836 0.0
C2052 C 0.16318 0.42614 0.85317 0.0
C2053 C 0.17729 0.4335 0.87157 0.0
H2054 H 0.13193 0.40827 0.83921 0.0
C2055 C 0.16922 0.43008 0.89029 0.0
H2056 H 0.16887 0.42855 0.83848 0.0
C2057 C 0.14805 0.41855 0.89067 0.0
C2058 C 0.13448 0.41016 0.87236 0.0
H2059 H 0.17956 0.4357 0.90472 0.0
H2060 H 0.14254 0.41576 0.90538 0.0
C2061 C 0.14197 0.41457 0.85357 0.0
C2062 C 0.32773 0.40651 0.58318 0.0
C2063 C 0.31526 0.41172 0.59817 0.0
H2064 H 0.35153 0.38953 0.57527 0.0
C2065 C 0.31756 0.40337 0.61723 0.0
H2066 H 0.32644 0.41276 0.56837 0.0
C2067 C 0.33178 0.3899 0.62112 0.0
C2068 C 0.34415 0.38454 0.60608 0.0
H2069 H 0.30813 0.40701 0.6291 0.0
H2070 H 0.33268 0.38336 0.63579 0.0
C2071 C 0.34204 0.39311 0.5871 0.0
C2072 C 0.79738 0.05937 0.83222 0.0
C2073 C 0.79063 0.05294 0.85077 0.0
H2074 H 0.81852 0.08121 0.81764 0.0
C2075 C 0.80212 0.06284 0.86932 0.0
H2076 H 0.78886 0.05206 0.81765 0.0
C2077 C 0.81916 0.07943 0.8693 0.0
C2078 C 0.82504 0.0866 0.85073 0.0
H2079 H 0.7975 0.05815 0.88388 0.0
H2080 H 0.82743 0.08692 0.88387 0.0
C2081 C 0.8144 0.07606 0.8322 0.0
C2082 C 0.83129 0.06638 0.41285 0.0
C2083 C 0.81779 0.05239 0.39792 0.0
H2084 H 0.85529 0.09378 0.41879 0.0
C2085 C 0.81791 0.05583 0.37709 0.0
H2086 H 0.83149 0.06418 0.42903 0.0
C2087 C 0.83161 0.07264 0.37129 0.0
C2088 C 0.84531 0.08649 0.38618 0.0
H2089 H 0.80769 0.04536 0.36522 0.0
H2090 H 0.8315 0.07482 0.35511 0.0
C2091 C 0.84481 0.08336 0.40702 0.0
C2092 C 0.18473 0.57034 0.60605 0.0
C2093 C 0.19533 0.55864 0.61965 0.0
H2094 H 0.16325 0.59159 0.60224 0.0
C2095 C 0.19179 0.55932 0.64028 0.0
H2096 H 0.18701 0.57013 0.59005 0.0
C2097 C 0.17813 0.57156 0.64717 0.0
C2098 C 0.16788 0.58346 0.63361 0.0
H2099 H 0.19959 0.55043 0.65115 0.0
H2100 H 0.17573 0.57185 0.66314 0.0
C2101 C 0.17113 0.58262 0.61297 0.0
C2102 C 0.2425 0.39834 0.14736 0.0
C2103 C 0.24526 0.41556 0.16054 0.0
H2104 H 0.25418 0.37158 0.1406 0.0
C2105 C 0.26244 0.41885 0.17742 0.0
H2106 H 0.22954 0.3954 0.13415 0.0
C2107 C 0.27646 0.40518 0.18106 0.0
C2108 C 0.27345 0.38789 0.16803 0.0
H2109 H 0.26512 0.43202 0.1878 0.0
H2110 H 0.28964 0.40809 0.19409 0.0
C2111 C 0.25654 0.38468 0.15103 0.0
C2112 C 0.57436 0.82776 0.5484 0.0
C2113 C 0.59427 0.82431 0.54204 0.0
H2114 H 0.55921 0.84522 0.56794 0.0
C2115 C 0.61473 0.83579 0.55166 0.0
H2116 H 0.55832 0.81919 0.54131 0.0
C2117 C 0.6152 0.85082 0.56682 0.0
C2118 C 0.59526 0.85453 0.57285 0.0
H2119 H 0.63037 0.83355 0.5471 0.0
H2120 H 0.63118 0.8596 0.57379 0.0
C2121 C 0.57486 0.84263 0.5637 0.0
C2122 C 0.39183 0.33453 0.82014 0.0
C2123 C 0.4048 0.35061 0.81203 0.0
H2124 H 0.37022 0.32505 0.84217 0.0
C2125 C 0.40618 0.36994 0.82073 0.0
H2126 H 0.39041 0.31945 0.8138 0.0
C2127 C 0.39471 0.37313 0.83708 0.0
C2128 C 0.38163 0.35706 0.84513 0.0
H2129 H 0.41611 0.38265 0.81491 0.0
H2130 H 0.39621 0.38819 0.84352 0.0
C2131 C 0.38039 0.33772 0.83652 0.0
C2132 C 0.87702 0.18844 0.04698 0.0
C2133 C 0.85815 0.19177 0.03409 0.0
H2134 H 0.88936 0.17465 0.07356 0.0
C2135 C 0.83679 0.18417 0.039 0.0
H2136 H 0.89371 0.19417 0.0437 0.0
C2137 C 0.83435 0.17282 0.05596 0.0
C2138 C 0.85322 0.16896 0.06839 0.0
H2139 H 0.82191 0.18646 0.0294 0.0
H2140 H 0.81771 0.16675 0.05914 0.0
C2141 C 0.87457 0.17725 0.06402 0.0
C2142 C 0.08596 0.64735 0.30448 0.0
C2143 C 0.07714 0.63073 0.29059 0.0
H2144 H 0.10292 0.65808 0.33453 0.0
C2145 C 0.07896 0.61172 0.29684 0.0
H2146 H 0.08489 0.66221 0.30015 0.0
C2147 C 0.08917 0.60935 0.31659 0.0
C2148 C 0.09783 0.62594 0.33056 0.0
H2149 H 0.07228 0.5986 0.28655 0.0
H2150 H 0.08988 0.59445 0.32103 0.0
C2151 C 0.09618 0.64497 0.32424 0.0
C2152 C 0.65539 0.13862 0.94593 0.0
C2153 C 0.6461 0.15353 0.9548 0.0
H2154 H 0.66038 0.12371 0.91816 0.0
C2155 C 0.63486 0.16534 0.94185 0.0
H2156 H 0.66409 0.1292 0.95542 0.0
C2157 C 0.63277 0.16214 0.92051 0.0
C2158 C 0.64208 0.14723 0.91174 0.0
H2159 H 0.62741 0.17688 0.94817 0.0
H2160 H 0.62374 0.17122 0.91085 0.0
C2161 C 0.65334 0.13547 0.92462 0.0
C2162 C 0.05596 0.38733 0.20677 0.0
C2163 C 0.04721 0.36955 0.21517 0.0
H2164 H 0.06866 0.40089 0.18091 0.0
C2165 C 0.04504 0.3514 0.20361 0.0
H2166 H 0.05802 0.40155 0.21532 0.0
C2167 C 0.05108 0.35109 0.18393 0.0
C2168 C 0.05925 0.36891 0.17539 0.0
H2169 H 0.0385 0.33743 0.20968 0.0
H2170 H 0.04914 0.33695 0.17526 0.0
C2171 C 0.06203 0.387 0.1871 0.0
C2172 C 0.80784 0.80719 0.46291 0.0
C2173 C 0.82916 0.8064 0.47316 0.0
H2174 H 0.78868 0.81462 0.43575 0.0
C2175 C 0.84792 0.81295 0.46343 0.0
H2176 H 0.79304 0.8022 0.46993 0.0
C2177 C 0.84538 0.81998 0.44382 0.0
C2178 C 0.82407 0.82093 0.43368 0.0
H2179 H 0.86457 0.81239 0.47083 0.0
H2180 H 0.86006 0.82459 0.43651 0.0
C2181 C 0.80533 0.81435 0.44337 0.0
C2182 C 0.39577 0.60413 0.68494 0.0
C2183 C 0.39569 0.62294 0.6942 0.0
H2184 H 0.38456 0.58366 0.6585 0.0
C2185 C 0.38461 0.63606 0.68297 0.0
H2186 H 0.40416 0.59368 0.69314 0.0
C2187 C 0.37338 0.6303 0.66314 0.0
C2188 C 0.37286 0.61126 0.65415 0.0
H2189 H 0.38424 0.65066 0.68964 0.0
H2190 H 0.36453 0.64055 0.65509 0.0
C2191 C 0.38441 0.59833 0.66515 0.0
C2192 C 0.53062 0.58976 0.81221 0.0
C2193 C 0.52208 0.60713 0.8088 0.0
H2194 H 0.55775 0.57713 0.82617 0.0
C2195 C 0.53531 0.62557 0.81667 0.0
H2196 H 0.52086 0.57531 0.80635 0.0
C2197 C 0.55641 0.6266 0.82802 0.0
C2198 C 0.56484 0.60922 0.83168 0.0
H2199 H 0.52927 0.63924 0.81429 0.0
H2200 H 0.56617 0.64103 0.83392 0.0
C2201 C 0.5518 0.5908 0.82347 0.0
C2202 C 0.65015 0.2768 0.07628 0.0
C2203 C 0.63147 0.26206 0.06819 0.0
H2204 H 0.66198 0.30582 0.09172 0.0
C2205 C 0.60997 0.2656 0.06968 0.0
H2206 H 0.66694 0.27452 0.07546 0.0
C2207 C 0.60721 0.28345 0.07905 0.0
C2208 C 0.62588 0.2982 0.08694 0.0
H2209 H 0.59524 0.25452 0.06372 0.0
H2210 H 0.59048 0.28576 0.08011 0.0
C2211 C 0.64736 0.29469 0.08557 0.0
C2212 C 0.94989 0.35802 0.25732 0.0
C2213 C 0.94937 0.34079 0.26821 0.0
H2214 H 0.93178 0.37986 0.24543 0.0
C2215 C 0.92907 0.33154 0.27421 0.0
H2216 H 0.96525 0.36558 0.25254 0.0
C2217 C 0.90992 0.33966 0.26995 0.0
C2218 C 0.91067 0.35716 0.2596 0.0
H2219 H 0.92809 0.31827 0.28264 0.0
H2220 H 0.89464 0.33257 0.27523 0.0
C2221 C 0.93076 0.36619 0.2532 0.0
C2222 C 0.88873 0.70069 0.58825 0.0
C2223 C 0.87201 0.70519 0.5735 0.0
H2224 H 0.9046 0.678 0.60145 0.0
C2225 C 0.85872 0.68972 0.56005 0.0
H2226 H 0.89921 0.71222 0.59889 0.0
C2227 C 0.86186 0.67014 0.56157 0.0
C2228 C 0.8785 0.66573 0.57639 0.0
H2229 H 0.84561 0.69265 0.5486 0.0
H2230 H 0.85113 0.65841 0.55133 0.0
C2231 C 0.89188 0.68115 0.58972 0.0
C2232 C 0.5326 0.43729 0.67539 0.0
C2233 C 0.52616 0.41655 0.67577 0.0
H2234 H 0.5572 0.46167 0.66841 0.0
C2235 C 0.53984 0.40433 0.66857 0.0
H2236 H 0.52239 0.44712 0.68069 0.0
C2237 C 0.55977 0.41271 0.66164 0.0
C2238 C 0.56646 0.43343 0.66188 0.0
H2239 H 0.53533 0.38829 0.66853 0.0
H2240 H 0.57015 0.40302 0.65635 0.0
C2241 C 0.55252 0.44565 0.66842 0.0
C2242 C 0.8244 0.30488 0.90867 0.0
C2243 C 0.84488 0.29885 0.91419 0.0
H2244 H 0.80689 0.32416 0.89093 0.0
C2245 C 0.86407 0.30917 0.90715 0.0
H2246 H 0.80934 0.29729 0.91394 0.0
C2247 C 0.86259 0.32438 0.89394 0.0
C2248 C 0.84197 0.32981 0.88772 0.0
H2249 H 0.8801 0.30497 0.91114 0.0
H2250 H 0.87746 0.3315 0.88802 0.0
C2251 C 0.823 0.32033 0.89565 0.0
C2252 C 0.96289 0.68586 0.19707 0.0
C2253 C 0.97427 0.67632 0.21237 0.0
H2254 H 0.93119 0.68897 0.18102 0.0
C2255 C 0.96179 0.66297 0.22405 0.0
H2256 H 0.97198 0.69617 0.18775 0.0
C2257 C 0.93844 0.65891 0.22015 0.0
C2258 C 0.92718 0.6683 0.2047 0.0
H2259 H 0.97005 0.6553 0.23586 0.0
H2260 H 0.92917 0.64818 0.22896 0.0
C2261 C 0.93957 0.68182 0.19323 0.0
C2262 C 0.63552 0.68828 0.44478 0.0
C2263 C 0.61392 0.69227 0.44465 0.0
H2264 H 0.65546 0.66813 0.43509 0.0
C2265 C 0.59551 0.67805 0.43505 0.0
H2266 H 0.65006 0.69891 0.45209 0.0
C2267 C 0.59863 0.66055 0.42528 0.0
C2268 C 0.62022 0.65675 0.42499 0.0
H2269 H 0.57865 0.6806 0.43471 0.0
H2270 H 0.5841 0.64998 0.41783 0.0
C2271 C 0.63863 0.67064 0.43514 0.0
C2272 C 0.82542 0.53446 0.60564 0.0
C2273 C 0.8209 0.52831 0.58465 0.0
H2274 H 0.84217 0.5572 0.6287 0.0
C2275 C 0.83021 0.54102 0.57057 0.0
H2276 H 0.81848 0.52504 0.61689 0.0
C2277 C 0.84378 0.5595 0.57736 0.0
C2278 C 0.84846 0.56553 0.59838 0.0
H2279 H 0.82703 0.53671 0.55429 0.0
H2280 H 0.85088 0.56894 0.56621 0.0
C2281 C 0.8391 0.55283 0.61243 0.0
C2282 C 0.32011 0.9483 0.32553 0.0
C2283 C 0.31513 0.95816 0.34296 0.0
H2284 H 0.32726 0.92143 0.31247 0.0
C2285 C 0.31428 0.94818 0.36111 0.0
H2286 H 0.32098 0.95557 0.31133 0.0
C2287 C 0.31794 0.9287 0.36172 0.0
C2288 C 0.32239 0.91875 0.34416 0.0
H2289 H 0.3106 0.95536 0.37484 0.0
H2290 H 0.317 0.92131 0.37585 0.0
C2291 C 0.32371 0.9288 0.32615 0.0
C2292 C 0.27316 0.0956 0.6151 0.0
C2293 C 0.26164 0.09264 0.63204 0.0
H2294 H 0.30434 0.10599 0.60456 0.0
C2295 C 0.27291 0.09977 0.6517 0.0
H2296 H 0.26497 0.0903 0.59975 0.0
C2297 C 0.2955 0.10888 0.65445 0.0
C2298 C 0.30726 0.1111 0.6376 0.0
H2299 H 0.26449 0.09783 0.66507 0.0
H2300 H 0.30385 0.1139 0.66982 0.0
C2301 C 0.29572 0.10471 0.61785 0.0
C2302 C 0.16723 0.07035 0.87177 0.0
C2303 C 0.17851 0.06133 0.88759 0.0
H2304 H 0.1539 0.09596 0.86289 0.0
C2305 C 0.18444 0.07141 0.90717 0.0
H2306 H 0.16237 0.06298 0.85654 0.0
C2307 C 0.17956 0.09024 0.91074 0.0
C2308 C 0.16885 0.09942 0.89477 0.0
H2309 H 0.19303 0.06486 0.91973 0.0
H2310 H 0.18439 0.09772 0.92592 0.0
C2311 C 0.16243 0.08921 0.87535 0.0
C2312 C 0.69073 0.45949 0.61284 0.0
C2313 C 0.69606 0.45757 0.59285 0.0
H2314 H 0.66529 0.45389 0.63228 0.0
C2315 C 0.67873 0.45066 0.57657 0.0
H2316 H 0.70368 0.46487 0.62571 0.0
C2317 C 0.65685 0.44438 0.58036 0.0
C2318 C 0.65179 0.44498 0.60049 0.0
H2319 H 0.68219 0.44917 0.56097 0.0
H2320 H 0.64398 0.43831 0.56761 0.0
C2321 C 0.66875 0.45329 0.61661 0.0
C2322 C 0.6785 0.41293 0.14319 0.0
C2323 C 0.68329 0.42151 0.16345 0.0
H2324 H 0.66092 0.38801 0.12288 0.0
C2325 C 0.67539 0.41033 0.17923 0.0
H2326 H 0.68445 0.42113 0.1307 0.0
C2327 C 0.66205 0.39142 0.17474 0.0
C2328 C 0.65634 0.38323 0.15439 0.0
H2329 H 0.67895 0.4164 0.19502 0.0
H2330 H 0.65571 0.38337 0.18717 0.0
C2331 C 0.66517 0.39393 0.13871 0.0
C2332 C 0.29801 0.92314 0.80934 0.0
C2333 C 0.30067 0.93133 0.82966 0.0
H2334 H 0.30742 0.90245 0.78849 0.0
C2335 C 0.31557 0.9248 0.84467 0.0
H2336 H 0.28666 0.92787 0.79741 0.0
C2337 C 0.32738 0.91029 0.83956 0.0
C2338 C 0.32464 0.90197 0.8193 0.0
H2339 H 0.31809 0.93084 0.86044 0.0
H2340 H 0.33888 0.90571 0.85148 0.0
C2341 C 0.30994 0.90865 0.8042 0.0
C2342 C 0.20941 0.03788 0.37033 0.0
C2343 C 0.21821 0.0336 0.35241 0.0
H2344 H 0.18166 0.04553 0.38312 0.0
C2345 C 0.20474 0.03292 0.3333 0.0
H2346 H 0.21937 0.03863 0.38529 0.0
C2347 C 0.1831 0.03674 0.33213 0.0
C2348 C 0.17451 0.04131 0.35001 0.0
H2349 H 0.21099 0.02972 0.3192 0.0
H2350 H 0.17316 0.03646 0.31722 0.0
C2351 C 0.18784 0.04183 0.36912 0.0
C2352 C 0.44319 0.17712 0.46934 0.0
C2353 C 0.43663 0.16563 0.48542 0.0
H2354 H 0.44792 0.17725 0.4377 0.0
C2355 C 0.43041 0.14487 0.48174 0.0
H2356 H 0.44808 0.19315 0.47168 0.0
C2357 C 0.43039 0.13581 0.46239 0.0
C2358 C 0.43657 0.14726 0.44619 0.0
H2359 H 0.4254 0.13553 0.49378 0.0
H2360 H 0.42558 0.11977 0.46015 0.0
C2361 C 0.4432 0.16801 0.44991 0.0
C2362 C 0.57472 0.61422 0.2022 0.0
C2363 C 0.56384 0.59748 0.21097 0.0
H2364 H 0.59672 0.6253 0.18104 0.0
C2365 C 0.56626 0.57849 0.20395 0.0
H2366 H 0.57326 0.62907 0.20729 0.0
C2367 C 0.57958 0.57632 0.18876 0.0
C2368 C 0.59085 0.59309 0.18027 0.0
H2369 H 0.558 0.56527 0.21031 0.0
H2370 H 0.58105 0.56148 0.18365 0.0
C2371 C 0.58809 0.61205 0.18705 0.0
C2372 C 0.11675 0.83477 0.96758 0.0
C2373 C 0.09339 0.82856 0.96372 0.0
H2374 H 0.1455 0.85456 0.96028 0.0
C2375 C 0.08127 0.83664 0.94767 0.0
H2376 H 0.12661 0.82881 0.97977 0.0
C2377 C 0.09215 0.85144 0.93655 0.0
C2378 C 0.11533 0.85829 0.94114 0.0
H2379 H 0.06326 0.83222 0.94431 0.0
H2380 H 0.08235 0.85812 0.92491 0.0
C2381 C 0.1276 0.8495 0.95641 0.0
C2382 C 0.87557 0.33322 0.66612 0.0
C2383 C 0.86294 0.31404 0.66705 0.0
H2384 H 0.88439 0.35741 0.64731 0.0
C2385 C 0.84999 0.3041 0.64909 0.0
H2386 H 0.88565 0.34123 0.67975 0.0
C2387 C 0.8497 0.31318 0.63053 0.0
C2388 C 0.86195 0.33249 0.62974 0.0
H2389 H 0.84018 0.28927 0.64937 0.0
H2390 H 0.83951 0.30531 0.61688 0.0
C2391 C 0.87486 0.34247 0.64765 0.0
C2392 C 0.38116 0.81486 0.00074 0.0
C2393 C 0.37375 0.82402 0.98316 0.0
H2394 H 0.38466 0.81504 0.03358 0.0
C2395 C 0.36393 0.84074 0.9855 0.0
H2396 H 0.38867 0.8019 -0.00054 0.0
C2397 C 0.36177 0.84825 0.00498 0.0
C2398 C 0.36952 0.8393 0.02251 0.0
H2399 H 0.35794 0.8481 0.97228 0.0
H2400 H 0.35408 0.86109 0.00639 0.0
C2401 C 0.37895 0.82238 0.02025 0.0
C2402 C 0.94433 0.62032 0.80996 0.0
C2403 C 0.96462 0.62892 0.8035 0.0
H2404 H 0.9237 0.61922 0.8338 0.0
C2405 C 0.9805 0.64242 0.81719 0.0
H2406 H 0.93175 0.60981 0.79985 0.0
C2407 C 0.97584 0.64772 0.83664 0.0
C2408 C 0.9552 0.63967 0.84271 0.0
H2409 H -0.00367 0.64925 0.81274 0.0
H2410 H -0.01186 0.65848 0.84673 0.0
C2411 C 0.93967 0.62565 0.82938 0.0
C2412 C 0.15099 0.15195 0.5449 0.0
C2413 C 0.14082 0.16431 0.53177 0.0
H2414 H 0.14838 0.13381 0.57051 0.0
C2415 C 0.12002 0.16835 0.53518 0.0
H2416 H 0.16696 0.14846 0.54265 0.0
C2417 C 0.10953 0.16008 0.55121 0.0
C2418 C 0.11965 0.14765 0.56421 0.0
H2419 H 0.1117 0.17777 0.52534 0.0
H2420 H 0.09336 0.16321 0.55329 0.0
C2421 C 0.14044 0.14361 0.56088 0.0
C2422 C 0.54491 0.34463 0.30071 0.0
C2423 C 0.53705 0.3568 0.28594 0.0
H2424 H 0.56724 0.34302 0.32815 0.0
C2425 C 0.54538 0.37742 0.28842 0.0
H2426 H 0.53885 0.32868 0.29924 0.0
C2427 C 0.56168 0.38562 0.30497 0.0
C2428 C 0.5699 0.37339 0.31947 0.0
H2429 H 0.53967 0.38722 0.27733 0.0
H2430 H 0.56793 0.40154 0.30636 0.0
C2431 C 0.56111 0.35285 0.31732 0.0
C2432 C 0.41067 0.36942 0.1979 0.0
C2433 C 0.41684 0.35132 0.20301 0.0
H2434 H 0.38532 0.38365 0.18306 0.0
C2435 C 0.40064 0.33368 0.1992 0.0
H2436 H 0.42271 0.3833 0.20075 0.0
C2437 C 0.37928 0.33392 0.18909 0.0
C2438 C 0.37362 0.35181 0.18268 0.0
H2439 H 0.40474 0.31952 0.2031 0.0
H2440 H 0.36744 0.31998 0.18555 0.0
C2441 C 0.38922 0.36966 0.18786 0.0
C2442 C 0.34878 0.7031 0.90171 0.0
C2443 C 0.33288 0.7131 0.90849 0.0
H2444 H 0.35553 0.67549 0.8902 0.0
C2445 C 0.31124 0.7023 0.90926 0.0
H2446 H 0.36555 0.711 0.9008 0.0
C2447 C 0.30562 0.68196 0.90337 0.0
C2448 C 0.32153 0.672 0.89664 0.0
H2449 H 0.29859 0.70957 0.91436 0.0
H2450 H 0.28877 0.67404 0.90393 0.0
C2451 C 0.3431 0.68278 0.89569 0.0
C2452 C 0.05173 0.58391 0.69424 0.0
C2453 C 0.04636 0.60046 0.70432 0.0
H2454 H 0.06921 0.57348 0.67131 0.0
C2455 C 0.05673 0.61963 0.70016 0.0
H2456 H 0.04408 0.56893 0.69714 0.0
C2457 C 0.07112 0.6222 0.68542 0.0
C2458 C 0.07552 0.60568 0.67452 0.0
H2459 H 0.05311 0.63271 0.70774 0.0
H2460 H 0.07833 0.63718 0.68212 0.0
C2461 C 0.06621 0.58649 0.67952 0.0
C2462 C 0.18407 0.28599 0.43901 0.0
C2463 C 0.16716 0.27223 0.4266 0.0
H2464 H 0.20337 0.31575 0.44307 0.0
C2465 C 0.1559 0.27862 0.40888 0.0
H2466 H 0.193 0.28158 0.4528 0.0
C2467 C 0.16189 0.29811 0.40334 0.0
C2468 C 0.1793 0.31159 0.41534 0.0
H2469 H 0.1427 0.26846 0.39902 0.0
H2470 H 0.15324 0.30259 0.38943 0.0
C2471 C 0.19005 0.30551 0.43345 0.0
C2472 C 0.46706 0.62449 0.32768 0.0
C2473 C 0.46347 0.60637 0.31577 0.0
H2474 H 0.45602 0.64149 0.35093 0.0
C2475 C 0.44435 0.59188 0.31717 0.0
H2476 H 0.48149 0.63605 0.32685 0.0
C2477 C 0.42985 0.59503 0.33103 0.0
C2478 C 0.43429 0.61266 0.34379 0.0
H2479 H 0.44102 0.57781 0.30813 0.0
H2480 H 0.4156 0.58344 0.33232 0.0
C2481 C 0.45255 0.62763 0.3415 0.0
C2482 C 0.11101 0.72503 0.05584 0.0
C2483 C 0.08874 0.72752 0.05456 0.0
H2484 H 0.13569 0.70886 0.06838 0.0
C2485 C 0.07392 0.71476 0.06483 0.0
H2486 H 0.12283 0.73459 0.04806 0.0
C2487 C 0.08132 0.70016 0.07652 0.0
C2488 C 0.10365 0.69785 0.07806 0.0
H2489 H 0.05665 0.71625 0.06414 0.0
H2490 H 0.06954 0.69065 0.08438 0.0
C2491 C 0.11836 0.71025 0.06738 0.0
C2492 C -0.01129 0.37908 0.81102 0.0
C2493 C 0.97593 0.36321 0.81964 0.0
H2494 H 0.01908 0.40097 0.81438 0.0
C2495 C 0.98426 0.35751 0.83893 0.0
H2496 H 0.98284 0.38378 0.79615 0.0
C2497 C 0.00496 0.3674 0.84931 0.0
C2498 C 0.0176 0.38328 0.84071 0.0
H2499 H 0.97491 0.34528 0.84595 0.0
H2500 H 0.0112 0.36258 0.86403 0.0
C2501 C 0.00941 0.38896 0.82143 0.0
C2502 C 0.36027 0.26674 0.54202 0.0
C2503 C 0.38127 0.26237 0.5491 0.0
H2504 H 0.33627 0.28488 0.5463 0.0
C2505 C 0.39472 0.27398 0.56592 0.0
H2506 H 0.34948 0.25805 0.52914 0.0
C2507 C 0.38708 0.28927 0.57577 0.0
C2508 C 0.36599 0.29344 0.56882 0.0
H2509 H 0.41091 0.27092 0.57185 0.0
H2510 H 0.39748 0.29764 0.58905 0.0
C2511 C 0.3527 0.2821 0.5518 0.0
C2512 C 0.20277 0.44222 0.37581 0.0
C2513 C 0.20521 0.45308 0.3948 0.0
H2514 H 0.19148 0.41395 0.3589 0.0
C2515 C 0.20034 0.44281 0.41216 0.0
H2516 H 0.20657 0.44961 0.36217 0.0
C2517 C 0.19173 0.42233 0.41026 0.0
C2518 C 0.18776 0.41179 0.39097 0.0
H2519 H 0.20216 0.45072 0.42704 0.0
H2520 H 0.18693 0.415 0.42365 0.0
C2521 C 0.19409 0.4218 0.37391 0.0
C2522 C 0.6441 0.08928 0.5886 0.0
C2523 C 0.65006 0.07884 0.57207 0.0
H2524 H 0.63056 0.11406 0.59844 0.0
C2525 C 0.64703 0.08595 0.55242 0.0
H2526 H 0.64617 0.08418 0.60392 0.0
C2527 C 0.63831 0.10315 0.54937 0.0
C2528 C 0.63243 0.11358 0.56591 0.0
H2529 H 0.65147 0.07827 0.53936 0.0
H2530 H 0.63608 0.10827 0.53406 0.0
C2531 C 0.63526 0.10642 0.58552 0.0
C2532 C 0.67466 0.8796 0.34841 0.0
C2533 C 0.67346 0.89968 0.34633 0.0
H2534 H 0.65667 0.84991 0.34976 0.0
C2535 C 0.65235 0.9048 0.34202 0.0
H2536 H 0.69064 0.87511 0.3515 0.0
C2537 C 0.63286 0.89033 0.3411 0.0
C2538 C 0.63411 0.87047 0.34445 0.0
H2539 H 0.65084 0.92011 0.34024 0.0
H2540 H 0.61687 0.89491 0.33887 0.0
C2541 C 0.6552 0.86517 0.34747 0.0
C2542 C 0.80909 0.9163 0.09177 0.0
C2543 C 0.8128 0.92446 0.07306 0.0
H2544 H 0.81626 0.89492 0.11307 0.0
C2545 C 0.82775 0.91733 0.06169 0.0
H2546 H 0.79765 0.92143 0.10089 0.0
C2547 C 0.83852 0.90219 0.06874 0.0
C2548 C 0.83461 0.89385 0.08733 0.0
H2549 H 0.83104 0.92334 0.04725 0.0
H2550 H 0.84999 0.89707 0.05965 0.0
C2551 C 0.81987 0.90118 0.09882 0.0
C2552 C 0.30678 0.57944 0.39919 0.0
C2553 C 0.29487 0.56858 0.38126 0.0
H2554 H 0.33449 0.60221 0.41233 0.0
C2555 C 0.30246 0.57249 0.36241 0.0
H2556 H 0.3014 0.57675 0.41396 0.0
C2557 C 0.32131 0.58719 0.36146 0.0
C2558 C 0.33302 0.59831 0.37933 0.0
H2559 H 0.29363 0.56445 0.3483 0.0
H2560 H 0.3264 0.59017 0.34662 0.0
C2561 C 0.32565 0.59414 0.39823 0.0
C2562 C 0.29973 0.54221 0.90338 0.0
C2563 C 0.29159 0.52908 0.88589 0.0
H2564 H 0.31764 0.57122 0.91528 0.0
C2565 C 0.29504 0.53573 0.86651 0.0
H2566 H 0.29731 0.53755 0.91853 0.0
C2567 C 0.30669 0.55496 0.86468 0.0
C2568 C 0.31507 0.56802 0.88217 0.0
H2569 H 0.28893 0.52602 0.85273 0.0
H2570 H 0.30908 0.55964 0.84953 0.0
C2571 C 0.31127 0.56152 0.90153 0.0
C2572 C 0.70808 0.07453 0.13425 0.0
C2573 C 0.71081 0.05467 0.13242 0.0
H2574 H 0.69043 0.0952 0.14682 0.0
C2575 C 0.69743 0.04026 0.14235 0.0
H2576 H 0.71802 0.08599 0.12672 0.0
C2577 C 0.68169 0.04559 0.15382 0.0
C2578 C 0.67917 0.06544 0.15577 0.0
H2579 H 0.69898 0.02481 0.14117 0.0
H2580 H 0.67143 0.03419 0.16115 0.0
C2581 C 0.69235 0.07984 0.14576 0.0
C2582 C 0.74534 0.92679 0.66056 0.0
C2583 C 0.73211 0.92098 0.64138 0.0
H2584 H 0.77023 0.91995 0.6837 0.0
C2585 C 0.73357 0.90303 0.63105 0.0
H2586 H 0.7447 0.94057 0.66887 0.0
C2587 C 0.74816 0.89128 0.63959 0.0
C2588 C 0.76134 0.89713 0.65871 0.0
H2589 H 0.72371 0.89818 0.61621 0.0
H2590 H 0.74934 0.87771 0.63117 0.0
C2591 C 0.75989 0.915 0.66909 0.0
loop_
_geom_bond_atom_site_label_1
_geom_bond_atom_site_label_2
_geom_bond_distance
_geom_bond_site_symmetry_2
_ccdc_geom_bond_type
O0 Cd1 2.300 . S
O0 C7 1.275 . S
Cd1 O0 2.300 . S
Cd1 O9 2.381 . S
Cd1 O10 2.378 . S
O2 Cd3 2.385 1_455 S
O2 C7 1.255 . S
Cd3 O2 2.385 1_655 S
Cd3 O4 2.317 . S
O4 Cd3 2.317 . S
O4 C5 1.232 . S
C5 O4 1.232 . S
C5 O6 1.218 . S
O6 C5 1.218 . S
C7 O0 1.275 . S
C7 O2 1.255 . S
C8 O9 1.258 . S
C8 O10 1.256 . S
O9 Cd1 2.381 . S
O9 C8 1.258 . S
O10 Cd1 2.378 . S
O10 C8 1.256 . S
O11 Cd12 2.300 . S
O11 C18 1.275 . S
Cd12 O11 2.300 . S
Cd12 O20 2.381 . S
Cd12 O21 2.378 . S
O13 Cd14 2.385 . S
O13 C18 1.255 . S
Cd14 O13 2.385 . S
Cd14 O15 2.317 . S
O15 Cd14 2.317 . S
O15 C16 1.232 . S
C16 O15 1.232 . S
C16 O17 1.218 . S
O17 C16 1.218 . S
C18 O11 1.275 . S
C18 O13 1.255 . S
C19 O20 1.258 . S
C19 O21 1.256 . S
O20 Cd12 2.381 . S
O20 C19 1.258 . S
O21 Cd12 2.378 . S
O21 C19 1.256 . S
O22 Cd23 2.300 . S
O22 C29 1.275 . S
Cd23 O22 2.300 . S
Cd23 O31 2.381 . S
Cd23 O32 2.378 . S
O24 Cd25 2.385 . S
O24 C29 1.255 . S
Cd25 O24 2.385 . S
Cd25 O26 2.317 . S
O26 Cd25 2.317 . S
O26 C27 1.232 . S
C27 O26 1.232 . S
C27 O28 1.218 . S
O28 C27 1.218 . S
C29 O22 1.275 . S
C29 O24 1.255 . S
C30 O31 1.258 . S
C30 O32 1.256 . S
O31 Cd23 2.381 . S
O31 C30 1.258 . S
O32 Cd23 2.378 . S
O32 C30 1.256 . S
O33 Cd34 2.300 . S
O33 C40 1.275 . S
Cd34 O33 2.300 . S
Cd34 O42 2.381 . S
Cd34 O43 2.378 . S
O35 Cd36 2.385 . S
O35 C40 1.255 . S
Cd36 O35 2.385 . S
Cd36 O37 2.317 . S
O37 Cd36 2.317 . S
O37 C38 1.232 . S
C38 O37 1.232 . S
C38 O39 1.218 . S
O39 C38 1.218 . S
C40 O33 1.275 . S
C40 O35 1.255 . S
C41 O42 1.258 . S
C41 O43 1.256 . S
O42 Cd34 2.381 . S
O42 C41 1.258 . S
O43 Cd34 2.378 . S
O43 C41 1.256 . S
O44 Cd45 2.300 . S
O44 C51 1.275 . S
Cd45 O44 2.300 . S
Cd45 O53 2.381 . S
Cd45 O54 2.378 . S
O46 Cd47 2.385 . S
O46 C51 1.255 . S
Cd47 O46 2.385 . S
Cd47 O48 2.317 . S
O48 Cd47 2.317 . S
O48 C49 1.232 . S
C49 O48 1.232 . S
C49 O50 1.218 . S
O50 C49 1.218 . S
C51 O44 1.275 . S
C51 O46 1.255 . S
C52 O53 1.258 . S
C52 O54 1.256 . S
O53 Cd45 2.381 . S
O53 C52 1.258 . S
O54 Cd45 2.378 . S
O54 C52 1.256 . S
O55 Cd56 2.300 . S
O55 C62 1.275 . S
Cd56 O55 2.300 . S
Cd56 O64 2.381 . S
Cd56 O65 2.378 . S
O57 Cd58 2.385 . S
O57 C62 1.255 . S
Cd58 O57 2.385 . S
Cd58 O59 2.317 . S
O59 Cd58 2.317 . S
O59 C60 1.232 . S
C60 O59 1.232 . S
C60 O61 1.218 . S
O61 C60 1.218 . S
C62 O55 1.275 . S
C62 O57 1.255 . S
C63 O64 1.258 . S
C63 O65 1.256 . S
O64 Cd56 2.381 . S
O64 C63 1.258 . S
O65 Cd56 2.378 . S
O65 C63 1.256 . S
O66 Cd67 2.300 . S
O66 C73 1.275 . S
Cd67 O66 2.300 . S
Cd67 O75 2.381 . S
Cd67 O76 2.378 . S
O68 Cd69 2.385 . S
O68 C73 1.255 . S
Cd69 O68 2.385 . S
Cd69 O70 2.317 . S
O70 Cd69 2.317 . S
O70 C71 1.232 . S
C71 O70 1.232 . S
C71 O72 1.218 . S
O72 C71 1.218 . S
C73 O66 1.275 . S
C73 O68 1.255 . S
C74 O75 1.258 . S
C74 O76 1.256 . S
O75 Cd67 2.381 . S
O75 C74 1.258 . S
O76 Cd67 2.378 . S
O76 C74 1.256 . S
O77 Cd78 2.300 . S
O77 C84 1.275 . S
Cd78 O77 2.300 . S
Cd78 O86 2.381 . S
Cd78 O87 2.378 . S
O79 Cd80 2.385 . S
O79 C84 1.255 . S
Cd80 O79 2.385 . S
Cd80 O81 2.317 . S
O81 Cd80 2.317 . S
O81 C82 1.232 . S
C82 O81 1.232 . S
C82 O83 1.218 . S
O83 C82 1.218 . S
C84 O77 1.275 . S
C84 O79 1.255 . S
C85 O86 1.258 . S
C85 O87 1.256 . S
O86 Cd78 2.381 . S
O86 C85 1.258 . S
O87 Cd78 2.378 . S
O87 C85 1.256 . S
O88 Cd89 2.307 . S
O88 C95 1.275 . S
Cd89 O88 2.307 . S
Cd89 O97 2.373 1_545 S
Cd89 O98 2.368 1_545 S
O90 Cd91 2.385 . S
O90 C95 1.255 . S
Cd91 O90 2.385 . S
Cd91 O92 2.317 . S
O92 Cd91 2.317 . S
O92 C93 1.232 . S
C93 O92 1.232 . S
C93 O94 1.218 . S
O94 C93 1.218 . S
C95 O88 1.275 . S
C95 O90 1.255 . S
C96 O97 1.258 . S
C96 O98 1.256 . S
O97 Cd89 2.373 1_565 S
O97 C96 1.258 . S
O98 Cd89 2.368 1_565 S
O98 C96 1.256 . S
O99 Cd100 2.300 . S
O99 C106 1.275 . S
Cd100 O99 2.300 . S
Cd100 O108 2.381 1_545 S
Cd100 O109 2.378 1_545 S
O101 Cd102 2.385 . S
O101 C106 1.255 . S
Cd102 O101 2.385 . S
Cd102 O103 2.317 . S
O103 Cd102 2.317 . S
O103 C104 1.232 . S
C104 O103 1.232 . S
C104 O105 1.218 . S
O105 C104 1.218 . S
C106 O99 1.275 . S
C106 O101 1.255 . S
C107 O108 1.258 . S
C107 O109 1.256 . S
O108 Cd100 2.381 1_565 S
O108 C107 1.258 . S
O109 Cd100 2.378 1_565 S
O109 C107 1.256 . S
O110 Cd111 2.300 . S
O110 C117 1.275 . S
Cd111 O110 2.300 . S
Cd111 O119 2.381 . S
Cd111 O120 2.378 . S
O112 Cd113 2.385 . S
O112 C117 1.255 . S
Cd113 O112 2.385 . S
Cd113 O114 2.317 1_565 S
O114 Cd113 2.317 1_545 S
O114 C115 1.232 . S
C115 O114 1.232 . S
C115 O116 1.218 . S
O116 C115 1.218 . S
C117 O110 1.275 . S
C117 O112 1.255 . S
C118 O119 1.258 . S
C118 O120 1.256 . S
O119 Cd111 2.381 . S
O119 C118 1.258 . S
O120 Cd111 2.378 . S
O120 C118 1.256 . S
O121 Cd122 2.300 1_565 S
O121 C128 1.275 . S
Cd122 O121 2.300 1_545 S
Cd122 O130 2.381 . S
Cd122 O131 2.378 . S
O123 Cd124 2.385 . S
O123 C128 1.255 . S
Cd124 O123 2.385 . S
Cd124 O125 2.317 . S
O125 Cd124 2.317 . S
O125 C126 1.232 . S
C126 O125 1.232 . S
C126 O127 1.218 . S
O127 C126 1.218 . S
C128 O121 1.275 . S
C128 O123 1.255 . S
C129 O130 1.258 . S
C129 O131 1.256 . S
O130 Cd122 2.381 . S
O130 C129 1.258 . S
O131 Cd122 2.378 . S
O131 C129 1.256 . S
O132 Cd133 2.300 . S
O132 C139 1.275 . S
Cd133 O132 2.300 . S
Cd133 O141 2.381 . S
Cd133 O142 2.378 . S
O134 Cd135 2.385 . S
O134 C139 1.255 . S
Cd135 O134 2.385 . S
Cd135 O136 2.317 . S
O136 Cd135 2.317 . S
O136 C137 1.232 . S
C137 O136 1.232 . S
C137 O138 1.218 . S
O138 C137 1.218 . S
C139 O132 1.275 . S
C139 O134 1.255 . S
C140 O141 1.265 . S
C140 O142 1.257 . S
O141 Cd133 2.381 . S
O141 C140 1.265 . S
O142 Cd133 2.378 . S
O142 C140 1.257 . S
O143 Cd144 2.300 . S
O143 C150 1.275 . S
Cd144 O143 2.300 . S
Cd144 O152 2.381 . S
Cd144 O153 2.378 . S
O145 Cd146 2.385 . S
O145 C150 1.255 . S
Cd146 O145 2.385 . S
Cd146 O147 2.317 . S
O147 Cd146 2.317 . S
O147 C148 1.242 . S
C148 O147 1.242 . S
C148 O149 1.218 . S
O149 C148 1.218 . S
C150 O143 1.275 . S
C150 O145 1.255 . S
C151 O152 1.258 . S
C151 O153 1.256 . S
O152 Cd144 2.381 . S
O152 C151 1.258 . S
O153 Cd144 2.378 . S
O153 C151 1.256 . S
O154 Cd155 2.300 . S
O154 C161 1.275 . S
Cd155 O154 2.300 . S
Cd155 O163 2.381 . S
Cd155 O164 2.378 . S
O156 Cd157 2.385 . S
O156 C161 1.255 . S
Cd157 O156 2.385 . S
Cd157 O158 2.317 . S
O158 Cd157 2.317 . S
O158 C159 1.232 . S
C159 O158 1.232 . S
C159 O160 1.218 . S
O160 C159 1.218 . S
C161 O154 1.275 . S
C161 O156 1.255 . S
C162 O163 1.258 . S
C162 O164 1.256 . S
O163 Cd155 2.381 . S
O163 C162 1.258 . S
O164 Cd155 2.378 . S
O164 C162 1.256 . S
O165 Cd166 2.300 1_655 S
O165 C172 1.275 . S
Cd166 O165 2.300 1_455 S
Cd166 O174 2.381 . S
Cd166 O175 2.378 . S
O167 Cd168 2.385 . S
O167 C172 1.255 . S
Cd168 O167 2.385 . S
Cd168 O169 2.317 . S
O169 Cd168 2.317 . S
O169 C170 1.232 . S
C170 O169 1.232 . S
C170 O171 1.218 . S
O171 C170 1.218 . S
C172 O165 1.275 . S
C172 O167 1.255 . S
C173 O174 1.258 . S
C173 O175 1.256 . S
O174 Cd166 2.381 . S
O174 C173 1.258 . S
O175 Cd166 2.378 . S
O175 C173 1.256 . S
O176 Cd177 2.300 . S
O176 C183 1.275 . S
Cd177 O176 2.300 . S
Cd177 O185 2.381 . S
Cd177 O186 2.378 . S
O178 Cd179 2.385 . S
O178 C183 1.255 . S
Cd179 O178 2.385 . S
Cd179 O180 2.317 . S
O180 Cd179 2.317 . S
O180 C181 1.232 . S
C181 O180 1.232 . S
C181 O182 1.218 . S
O182 C181 1.218 . S
C183 O176 1.275 . S
C183 O178 1.255 . S
C184 O185 1.258 . S
C184 O186 1.256 . S
O185 Cd177 2.381 . S
O185 C184 1.258 . S
O186 Cd177 2.378 . S
O186 C184 1.256 . S
O187 Cd188 2.300 . S
O187 C194 1.275 . S
Cd188 O187 2.300 . S
Cd188 O196 2.381 . S
Cd188 O197 2.378 . S
O189 Cd190 2.385 . S
O189 C194 1.255 . S
Cd190 O189 2.385 . S
Cd190 O191 2.317 . S
O191 Cd190 2.317 . S
O191 C192 1.232 . S
C192 O191 1.232 . S
C192 O193 1.218 . S
O193 C192 1.218 . S
C194 O187 1.275 . S
C194 O189 1.255 . S
C195 O196 1.258 . S
C195 O197 1.256 . S
O196 Cd188 2.381 . S
O196 C195 1.258 . S
O197 Cd188 2.378 . S
O197 C195 1.256 . S
O198 Cd199 2.300 . S
O198 C205 1.275 . S
Cd199 O198 2.300 . S
Cd199 O207 2.381 . S
Cd199 O208 2.378 . S
O200 Cd201 2.385 . S
O200 C205 1.255 . S
Cd201 O200 2.385 . S
Cd201 O202 2.317 . S
O202 Cd201 2.317 . S
O202 C203 1.232 . S
C203 O202 1.232 . S
C203 O204 1.218 . S
O204 C203 1.218 . S
C205 O198 1.275 . S
C205 O200 1.255 . S
C206 O207 1.258 . S
C206 O208 1.256 . S
O207 Cd199 2.381 . S
O207 C206 1.258 . S
O208 Cd199 2.378 . S
O208 C206 1.256 . S
O209 Cd210 2.300 . S
O209 C216 1.275 . S
Cd210 O209 2.300 . S
Cd210 O218 2.381 . S
Cd210 O219 2.378 . S
O211 Cd212 2.385 . S
O211 C216 1.255 . S
Cd212 O211 2.385 . S
Cd212 O213 2.317 . S
O213 Cd212 2.317 . S
O213 C214 1.232 . S
C214 O213 1.232 . S
C214 O215 1.218 . S
O215 C214 1.218 . S
C216 O209 1.275 . S
C216 O211 1.255 . S
C217 O218 1.258 . S
C217 O219 1.256 . S
O218 Cd210 2.381 . S
O218 C217 1.258 . S
O219 Cd210 2.378 . S
O219 C217 1.256 . S
O220 Cd221 2.300 . S
O220 C227 1.275 . S
Cd221 O220 2.300 . S
Cd221 O229 2.381 . S
Cd221 O230 2.378 . S
O222 Cd223 2.385 . S
O222 C227 1.255 . S
Cd223 O222 2.385 . S
Cd223 O224 2.317 . S
O224 Cd223 2.317 . S
O224 C225 1.232 . S
C225 O224 1.232 . S
C225 O226 1.218 . S
O226 C225 1.218 . S
C227 O220 1.275 . S
C227 O222 1.255 . S
C228 O229 1.258 . S
C228 O230 1.256 . S
O229 Cd221 2.381 . S
O229 C228 1.258 . S
O230 Cd221 2.378 . S
O230 C228 1.256 . S
O231 Cd232 2.300 . S
O231 C238 1.275 . S
Cd232 O231 2.300 . S
Cd232 O240 2.381 . S
Cd232 O241 2.378 . S
O233 Cd234 2.385 . S
O233 C238 1.255 . S
Cd234 O233 2.385 . S
Cd234 O235 2.317 . S
O235 Cd234 2.317 . S
O235 C236 1.232 . S
C236 O235 1.232 . S
C236 O237 1.218 . S
O237 C236 1.218 . S
C238 O231 1.275 . S
C238 O233 1.255 . S
C239 O240 1.258 . S
C239 O241 1.256 . S
O240 Cd232 2.381 . S
O240 C239 1.258 . S
O241 Cd232 2.378 . S
O241 C239 1.256 . S
O242 Cd243 2.300 . S
O242 C249 1.275 . S
Cd243 O242 2.300 . S
Cd243 O251 2.381 . S
Cd243 O252 2.378 . S
O244 Cd245 2.385 . S
O244 C249 1.255 . S
Cd245 O244 2.385 . S
Cd245 O246 2.317 . S
O246 Cd245 2.317 . S
O246 C247 1.232 . S
C247 O246 1.232 . S
C247 O248 1.218 . S
O248 C247 1.218 . S
C249 O242 1.275 . S
C249 O244 1.255 . S
C250 O251 1.258 . S
C250 O252 1.256 . S
O251 Cd243 2.381 . S
O251 C250 1.258 . S
O252 Cd243 2.378 . S
O252 C250 1.256 . S
O253 Cd254 2.300 1_565 S
O253 C260 1.275 . S
Cd254 O253 2.300 1_545 S
Cd254 O262 2.381 . S
Cd254 O263 2.378 . S
O255 Cd256 2.385 . S
O255 C260 1.255 . S
Cd256 O255 2.385 . S
Cd256 O257 2.317 . S
O257 Cd256 2.317 . S
O257 C258 1.232 . S
C258 O257 1.232 . S
C258 O259 1.218 . S
O259 C258 1.218 . S
C260 O253 1.275 . S
C260 O255 1.255 . S
C261 O262 1.258 . S
C261 O263 1.256 . S
O262 Cd254 2.381 . S
O262 C261 1.258 . S
O263 Cd254 2.378 . S
O263 C261 1.256 . S
O264 Cd265 2.300 . S
O264 C271 1.275 . S
Cd265 O264 2.300 . S
Cd265 O273 2.413 . S
Cd265 O274 2.378 1_565 S
O266 Cd267 2.385 . S
O266 C271 1.255 . S
Cd267 O266 2.385 . S
Cd267 O268 2.317 . S
O268 Cd267 2.317 . S
O268 C269 1.232 . S
C269 O268 1.232 . S
C269 O270 1.218 . S
O270 C269 1.218 . S
C271 O264 1.275 . S
C271 O266 1.255 . S
C272 O273 1.228 1_545 S
C272 O274 1.256 . S
O273 Cd265 2.413 . S
O273 C272 1.228 1_565 S
O274 Cd265 2.378 1_545 S
O274 C272 1.256 . S
O275 Cd276 2.300 1_545 S
O275 C282 1.275 . S
Cd276 O275 2.300 1_565 S
Cd276 O284 2.381 . S
Cd276 O285 2.378 . S
O277 Cd278 2.385 . S
O277 C282 1.255 . S
Cd278 O277 2.385 . S
Cd278 O279 2.317 . S
O279 Cd278 2.317 . S
O279 C280 1.232 . S
C280 O279 1.232 . S
C280 O281 1.218 . S
O281 C280 1.218 . S
C282 O275 1.275 . S
C282 O277 1.255 . S
C283 O284 1.258 . S
C283 O285 1.256 . S
O284 Cd276 2.381 . S
O284 C283 1.258 . S
O285 Cd276 2.378 . S
O285 C283 1.256 . S
O286 Cd287 2.300 . S
O286 C293 1.275 . S
Cd287 O286 2.300 . S
Cd287 O295 2.381 1_545 S
Cd287 O296 2.378 1_545 S
O288 Cd289 2.385 . S
O288 C293 1.255 . S
Cd289 O288 2.385 . S
Cd289 O290 2.317 . S
O290 Cd289 2.317 . S
O290 C291 1.232 . S
C291 O290 1.232 . S
C291 O292 1.218 . S
O292 C291 1.218 . S
C293 O286 1.275 . S
C293 O288 1.255 . S
C294 O295 1.258 . S
C294 O296 1.256 . S
O295 Cd287 2.381 1_565 S
O295 C294 1.258 . S
O296 Cd287 2.378 1_565 S
O296 C294 1.256 . S
O297 Cd298 2.300 . S
O297 C304 1.275 . S
Cd298 O297 2.300 . S
Cd298 O306 2.381 . S
Cd298 O307 2.378 1_556 S
O299 Cd300 2.385 . S
O299 C304 1.255 . S
Cd300 O299 2.385 . S
Cd300 O301 2.317 . S
O301 Cd300 2.317 . S
O301 C302 1.232 . S
C302 O301 1.232 . S
C302 O303 1.218 . S
O303 C302 1.218 . S
C304 O297 1.275 . S
C304 O299 1.255 . S
C305 O306 1.258 1_554 S
C305 O307 1.256 . S
O306 Cd298 2.381 . S
O306 C305 1.258 1_556 S
O307 Cd298 2.378 1_554 S
O307 C305 1.256 . S
O308 Cd309 2.300 . S
O308 C315 1.275 . S
Cd309 O308 2.300 . S
Cd309 O317 2.381 . S
Cd309 O318 2.378 . S
O310 Cd311 2.385 . S
O310 C315 1.255 . S
Cd311 O310 2.385 . S
Cd311 O312 2.317 . S
O312 Cd311 2.317 . S
O312 C313 1.232 . S
C313 O312 1.232 . S
C313 O314 1.218 . S
O314 C313 1.218 . S
C315 O308 1.275 . S
C315 O310 1.255 . S
C316 O317 1.258 . S
C316 O318 1.256 . S
O317 Cd309 2.381 . S
O317 C316 1.258 . S
O318 Cd309 2.378 . S
O318 C316 1.256 . S
O319 Cd320 2.300 . S
O319 C326 1.275 . S
Cd320 O319 2.300 . S
Cd320 O328 2.381 . S
Cd320 O329 2.378 . S
O321 Cd322 2.385 . S
O321 C326 1.255 . S
Cd322 O321 2.385 . S
Cd322 O323 2.317 . S
O323 Cd322 2.317 . S
O323 C324 1.232 . S
C324 O323 1.232 . S
C324 O325 1.218 . S
O325 C324 1.218 . S
C326 O319 1.275 . S
C326 O321 1.255 . S
C327 O328 1.258 . S
C327 O329 1.256 . S
O328 Cd320 2.381 . S
O328 C327 1.258 . S
O329 Cd320 2.378 . S
O329 C327 1.256 . S
O330 Cd331 2.300 . S
O330 C337 1.275 . S
Cd331 O330 2.300 . S
Cd331 O339 2.381 . S
Cd331 O340 2.378 . S
O332 Cd333 2.385 . S
O332 C337 1.255 . S
Cd333 O332 2.385 . S
Cd333 O334 2.317 . S
O334 Cd333 2.317 . S
O334 C335 1.232 . S
C335 O334 1.232 . S
C335 O336 1.218 . S
O336 C335 1.218 . S
C337 O330 1.275 . S
C337 O332 1.255 . S
C338 O339 1.258 . S
C338 O340 1.256 . S
O339 Cd331 2.381 . S
O339 C338 1.258 . S
O340 Cd331 2.378 . S
O340 C338 1.256 . S
O341 Cd342 2.300 . S
O341 C348 1.275 . S
Cd342 O341 2.300 . S
Cd342 O350 2.381 1_655 S
Cd342 O351 2.378 1_655 S
O343 Cd344 2.385 . S
O343 C348 1.255 . S
Cd344 O343 2.385 . S
Cd344 O345 2.317 . S
O345 Cd344 2.317 . S
O345 C346 1.232 . S
C346 O345 1.232 . S
C346 O347 1.218 . S
O347 C346 1.218 . S
C348 O341 1.275 . S
C348 O343 1.255 . S
C349 O350 1.258 . S
C349 O351 1.256 . S
O350 Cd342 2.381 1_455 S
O350 C349 1.258 . S
O351 Cd342 2.378 1_455 S
O351 C349 1.256 . S
O352 Cd353 2.300 . S
O352 C359 1.275 . S
Cd353 O352 2.300 . S
Cd353 O361 2.381 . S
Cd353 O362 2.378 . S
O354 Cd355 2.385 . S
O354 C359 1.255 . S
Cd355 O354 2.385 . S
Cd355 O356 2.317 . S
O356 Cd355 2.317 . S
O356 C357 1.232 . S
C357 O356 1.232 . S
C357 O358 1.218 . S
O358 C357 1.218 . S
C359 O352 1.275 . S
C359 O354 1.255 . S
C360 O361 1.258 . S
C360 O362 1.256 . S
O361 Cd353 2.381 . S
O361 C360 1.258 . S
O362 Cd353 2.378 . S
O362 C360 1.256 . S
O363 Cd364 2.300 . S
O363 C370 1.275 . S
Cd364 O363 2.300 . S
Cd364 O372 2.381 . S
Cd364 O373 2.378 . S
O365 Cd366 2.385 . S
O365 C370 1.255 . S
Cd366 O365 2.385 . S
Cd366 O367 2.317 . S
O367 Cd366 2.317 . S
O367 C368 1.232 1_556 S
C368 O367 1.232 1_554 S
C368 O369 1.202 1_554 S
O369 C368 1.202 1_556 S
C370 O363 1.275 . S
C370 O365 1.255 . S
C371 O372 1.258 . S
C371 O373 1.256 . S
O372 Cd364 2.381 . S
O372 C371 1.258 . S
O373 Cd364 2.378 . S
O373 C371 1.256 . S
O374 Cd375 2.300 . S
O374 C381 1.275 . S
Cd375 O374 2.300 . S
Cd375 O383 2.381 . S
Cd375 O384 2.378 . S
O376 Cd377 2.385 . S
O376 C381 1.255 . S
Cd377 O376 2.385 . S
Cd377 O378 2.317 . S
O378 Cd377 2.317 . S
O378 C379 1.232 . S
C379 O378 1.232 . S
C379 O380 1.218 . S
O380 C379 1.218 . S
C381 O374 1.275 . S
C381 O376 1.255 . S
C382 O383 1.258 . S
C382 O384 1.256 . S
O383 Cd375 2.381 . S
O383 C382 1.258 . S
O384 Cd375 2.378 . S
O384 C382 1.256 . S
O385 Cd386 2.300 . S
O385 C392 1.275 . S
Cd386 O385 2.300 . S
Cd386 O394 2.381 . S
Cd386 O395 2.378 . S
O387 Cd388 2.385 . S
O387 C392 1.255 . S
Cd388 O387 2.385 . S
Cd388 O389 2.317 . S
O389 Cd388 2.317 . S
O389 C390 1.232 . S
C390 O389 1.232 . S
C390 O391 1.218 . S
O391 C390 1.218 . S
C392 O385 1.275 . S
C392 O387 1.255 . S
C393 O394 1.258 . S
C393 O395 1.256 . S
O394 Cd386 2.381 . S
O394 C393 1.258 . S
O395 Cd386 2.378 . S
O395 C393 1.256 . S
O396 Cd397 2.300 . S
O396 C403 1.275 . S
Cd397 O396 2.300 . S
Cd397 O405 2.381 . S
Cd397 O406 2.378 . S
O398 Cd399 2.385 . S
O398 C403 1.255 . S
Cd399 O398 2.385 . S
Cd399 O400 2.317 . S
O400 Cd399 2.317 . S
O400 C401 1.232 . S
C401 O400 1.232 . S
C401 O402 1.218 . S
O402 C401 1.218 . S
C403 O396 1.275 . S
C403 O398 1.255 . S
C404 O405 1.258 . S
C404 O406 1.256 . S
O405 Cd397 2.381 . S
O405 C404 1.258 . S
O406 Cd397 2.378 . S
O406 C404 1.256 . S
O407 Cd408 2.300 . S
O407 C414 1.275 . S
Cd408 O407 2.300 . S
Cd408 O416 2.381 . S
Cd408 O417 2.378 . S
O409 Cd410 2.385 . S
O409 C414 1.255 . S
Cd410 O409 2.385 . S
Cd410 O411 2.317 . S
O411 Cd410 2.317 . S
O411 C412 1.232 . S
C412 O411 1.232 . S
C412 O413 1.218 . S
O413 C412 1.218 . S
C414 O407 1.275 . S
C414 O409 1.255 . S
C415 O416 1.258 . S
C415 O417 1.256 . S
O416 Cd408 2.381 . S
O416 C415 1.258 . S
O417 Cd408 2.378 . S
O417 C415 1.256 . S
O418 Cd419 2.300 . S
O418 C425 1.275 . S
Cd419 O418 2.300 . S
Cd419 O427 2.381 . S
Cd419 O428 2.378 . S
O420 Cd421 2.385 . S
O420 C425 1.255 . S
Cd421 O420 2.385 . S
Cd421 O422 2.317 . S
O422 Cd421 2.317 . S
O422 C423 1.232 . S
C423 O422 1.232 . S
C423 O424 1.218 . S
O424 C423 1.218 . S
C425 O418 1.275 . S
C425 O420 1.255 . S
C426 O427 1.258 . S
C426 O428 1.256 . S
O427 Cd419 2.381 . S
O427 C426 1.258 . S
O428 Cd419 2.378 . S
O428 C426 1.256 . S
O429 Cd430 2.300 . S
O429 C436 1.275 . S
Cd430 O429 2.300 . S
Cd430 O438 2.381 . S
Cd430 O439 2.378 . S
O431 Cd432 2.385 . S
O431 C436 1.255 . S
Cd432 O431 2.385 . S
Cd432 O433 2.317 . S
O433 Cd432 2.317 . S
O433 C434 1.232 . S
C434 O433 1.232 . S
C434 O435 1.218 . S
O435 C434 1.218 . S
C436 O429 1.275 . S
C436 O431 1.255 . S
C437 O438 1.258 . S
C437 O439 1.256 . S
O438 Cd430 2.381 . S
O438 C437 1.258 . S
O439 Cd430 2.378 . S
O439 C437 1.256 . S
O440 Cd441 2.300 . S
O440 C447 1.275 . S
Cd441 O440 2.300 . S
Cd441 O449 2.381 . S
Cd441 O450 2.378 . S
O442 Cd443 2.385 . S
O442 C447 1.255 . S
Cd443 O442 2.385 . S
Cd443 O444 2.337 . S
O444 Cd443 2.337 . S
O444 C445 1.220 1_455 S
C445 O444 1.220 1_655 S
C445 O446 1.218 . S
O446 C445 1.218 . S
C447 O440 1.275 . S
C447 O442 1.255 . S
C448 O449 1.258 . S
C448 O450 1.256 . S
O449 Cd441 2.381 . S
O449 C448 1.258 . S
O450 Cd441 2.378 . S
O450 C448 1.256 . S
O451 Cd452 2.300 . S
O451 C458 1.275 . S
Cd452 O451 2.300 . S
Cd452 O460 2.381 . S
Cd452 O461 2.378 . S
O453 Cd454 2.385 . S
O453 C458 1.255 . S
Cd454 O453 2.385 . S
Cd454 O455 2.317 . S
O455 Cd454 2.317 . S
O455 C456 1.232 . S
C456 O455 1.232 . S
C456 O457 1.218 . S
O457 C456 1.218 . S
C458 O451 1.275 . S
C458 O453 1.255 . S
C459 O460 1.258 . S
C459 O461 1.256 . S
O460 Cd452 2.381 . S
O460 C459 1.258 . S
O461 Cd452 2.378 . S
O461 C459 1.256 . S
O462 Cd463 2.300 . S
O462 C469 1.275 . S
Cd463 O462 2.300 . S
Cd463 O471 2.381 . S
Cd463 O472 2.378 . S
O464 Cd465 2.385 . S
O464 C469 1.255 . S
Cd465 O464 2.385 . S
Cd465 O466 2.317 1_554 S
O466 Cd465 2.317 1_556 S
O466 C467 1.232 . S
C467 O466 1.232 . S
C467 O468 1.218 . S
O468 C467 1.218 . S
C469 O462 1.275 . S
C469 O464 1.255 . S
C470 O471 1.258 . S
C470 O472 1.256 . S
O471 Cd463 2.381 . S
O471 C470 1.258 . S
O472 Cd463 2.378 . S
O472 C470 1.256 . S
O473 Cd474 2.300 . S
O473 C480 1.275 . S
Cd474 O473 2.300 . S
Cd474 O482 2.381 . S
Cd474 O483 2.378 . S
O475 Cd476 2.385 . S
O475 C480 1.255 . S
Cd476 O475 2.385 . S
Cd476 O477 2.317 . S
O477 Cd476 2.317 . S
O477 C478 1.232 . S
C478 O477 1.232 . S
C478 O479 1.218 . S
O479 C478 1.218 . S
C480 O473 1.275 . S
C480 O475 1.255 . S
C481 O482 1.258 . S
C481 O483 1.256 . S
O482 Cd474 2.381 . S
O482 C481 1.258 . S
O483 Cd474 2.378 . S
O483 C481 1.256 . S
O484 Cd485 2.300 . S
O484 C491 1.275 . S
Cd485 O484 2.300 . S
Cd485 O493 2.381 . S
Cd485 O494 2.378 . S
O486 Cd487 2.385 . S
O486 C491 1.255 . S
Cd487 O486 2.385 . S
Cd487 O488 2.317 . S
O488 Cd487 2.317 . S
O488 C489 1.232 . S
C489 O488 1.232 . S
C489 O490 1.218 . S
O490 C489 1.218 . S
C491 O484 1.275 . S
C491 O486 1.255 . S
C492 O493 1.258 . S
C492 O494 1.256 . S
O493 Cd485 2.381 . S
O493 C492 1.258 . S
O494 Cd485 2.378 . S
O494 C492 1.256 . S
O495 Cd496 2.300 . S
O495 C502 1.275 . S
Cd496 O495 2.300 . S
Cd496 O504 2.381 . S
Cd496 O505 2.378 . S
O497 Cd498 2.385 . S
O497 C502 1.255 . S
Cd498 O497 2.385 . S
Cd498 O499 2.317 . S
O499 Cd498 2.317 . S
O499 C500 1.232 . S
C500 O499 1.232 . S
C500 O501 1.218 . S
O501 C500 1.218 . S
C502 O495 1.275 . S
C502 O497 1.255 . S
C503 O504 1.258 . S
C503 O505 1.256 . S
O504 Cd496 2.381 . S
O504 C503 1.258 . S
O505 Cd496 2.378 . S
O505 C503 1.256 . S
O506 Cd507 2.300 . S
O506 C513 1.275 . S
Cd507 O506 2.300 . S
Cd507 O515 2.381 . S
Cd507 O516 2.378 . S
O508 Cd509 2.385 . S
O508 C513 1.255 . S
Cd509 O508 2.385 . S
Cd509 O510 2.317 . S
O510 Cd509 2.317 . S
O510 C511 1.232 . S
C511 O510 1.232 . S
C511 O512 1.218 . S
O512 C511 1.218 . S
C513 O506 1.275 . S
C513 O508 1.255 . S
C514 O515 1.258 . S
C514 O516 1.256 . S
O515 Cd507 2.381 . S
O515 C514 1.258 . S
O516 Cd507 2.378 . S
O516 C514 1.256 . S
O517 Cd518 2.300 . S
O517 C524 1.275 . S
Cd518 O517 2.300 . S
Cd518 O526 2.381 . S
Cd518 O527 2.378 . S
O519 Cd520 2.385 . S
O519 C524 1.255 . S
Cd520 O519 2.385 . S
Cd520 O521 2.317 . S
O521 Cd520 2.317 . S
O521 C522 1.232 . S
C522 O521 1.232 . S
C522 O523 1.218 . S
O523 C522 1.218 . S
C524 O517 1.275 . S
C524 O519 1.255 . S
C525 O526 1.258 . S
C525 O527 1.256 . S
O526 Cd518 2.381 . S
O526 C525 1.258 . S
O527 Cd518 2.378 . S
O527 C525 1.256 . S
H528 C535 0.929 . S
H529 C538 0.930 . S
H530 C540 0.929 . S
H531 C532 0.969 . S
C532 H531 0.969 . S
C532 O533 1.550 . S
C532 H534 0.973 . S
O533 C532 1.550 . S
O533 C539 1.412 . S
H534 C532 0.973 . S
C535 H528 0.929 . S
C535 C536 1.400 . S
C535 C537 1.364 . S
C536 C535 1.400 . S
C536 C540 1.377 . S
C537 C535 1.364 . S
C537 C538 1.374 . S
C538 H529 0.930 . S
C538 C537 1.374 . S
C538 C539 1.383 . S
C539 O533 1.412 . S
C539 C538 1.383 . S
C539 C540 1.394 . S
C540 H530 0.929 . S
C540 C536 1.377 . S
C540 C539 1.394 . S
H541 C548 0.929 . S
H542 C551 0.930 . S
H543 C553 0.929 . S
H544 C545 0.969 . S
C545 H544 0.969 . S
C545 O546 1.550 . S
C545 H547 0.973 . S
O546 C545 1.550 . S
O546 C552 1.412 . S
H547 C545 0.973 . S
C548 H541 0.929 . S
C548 C549 1.400 . S
C548 C550 1.364 . S
C549 C548 1.400 . S
C549 C553 1.377 . S
C550 C548 1.364 . S
C550 C551 1.374 . S
C551 H542 0.930 . S
C551 C550 1.374 . S
C551 C552 1.383 . S
C552 O546 1.412 . S
C552 C551 1.383 . S
C552 C553 1.394 . S
C553 H543 0.929 . S
C553 C549 1.377 . S
C553 C552 1.394 . S
H554 C561 0.929 . S
H555 C564 0.930 . S
H556 C566 0.929 . S
H557 C558 0.969 . S
C558 H557 0.969 . S
C558 O559 1.550 . S
C558 H560 0.973 . S
O559 C558 1.550 . S
O559 C565 1.412 . S
H560 C558 0.973 . S
C561 H554 0.929 . S
C561 C562 1.400 . S
C561 C563 1.364 . S
C562 C561 1.400 . S
C562 C566 1.377 . S
C563 C561 1.364 . S
C563 C564 1.374 . S
C564 H555 0.930 . S
C564 C563 1.374 . S
C564 C565 1.383 . S
C565 O559 1.412 . S
C565 C564 1.383 . S
C565 C566 1.394 . S
C566 H556 0.929 . S
C566 C562 1.377 . S
C566 C565 1.394 . S
H567 C574 0.929 . S
H568 C577 0.930 . S
H569 C579 0.929 . S
H570 C571 0.969 . S
C571 H570 0.969 . S
C571 O572 1.550 . S
C571 H573 0.973 . S
O572 C571 1.550 . S
O572 C578 1.412 . S
H573 C571 0.973 . S
C574 H567 0.929 . S
C574 C575 1.400 . S
C574 C576 1.364 . S
C575 C574 1.400 . S
C575 C579 1.377 . S
C576 C574 1.364 . S
C576 C577 1.374 . S
C577 H568 0.930 . S
C577 C576 1.374 . S
C577 C578 1.383 . S
C578 O572 1.412 . S
C578 C577 1.383 . S
C578 C579 1.394 . S
C579 H569 0.929 . S
C579 C575 1.377 . S
C579 C578 1.394 . S
H580 C587 0.929 . S
H581 C590 0.930 . S
H582 C592 0.929 . S
H583 C584 0.969 . S
C584 H583 0.969 . S
C584 O585 1.550 . S
C584 H586 0.973 . S
O585 C584 1.550 . S
O585 C591 1.412 . S
H586 C584 0.973 . S
C587 H580 0.929 . S
C587 C588 1.400 . S
C587 C589 1.364 . S
C588 C587 1.400 . S
C588 C592 1.377 . S
C589 C587 1.364 . S
C589 C590 1.374 . S
C590 H581 0.930 . S
C590 C589 1.374 . S
C590 C591 1.383 . S
C591 O585 1.412 . S
C591 C590 1.383 . S
C591 C592 1.394 . S
C592 H582 0.929 . S
C592 C588 1.377 . S
C592 C591 1.394 . S
H593 C600 0.929 . S
H594 C603 0.930 . S
H595 C605 0.929 . S
H596 C597 0.969 . S
C597 H596 0.969 . S
C597 O598 1.550 . S
C597 H599 0.973 . S
O598 C597 1.550 . S
O598 C604 1.412 . S
H599 C597 0.973 . S
C600 H593 0.929 . S
C600 C601 1.400 . S
C600 C602 1.364 . S
C601 C600 1.400 . S
C601 C605 1.377 . S
C602 C600 1.364 . S
C602 C603 1.374 . S
C603 H594 0.930 . S
C603 C602 1.374 . S
C603 C604 1.383 . S
C604 O598 1.412 . S
C604 C603 1.383 . S
C604 C605 1.394 . S
C605 H595 0.929 . S
C605 C601 1.377 . S
C605 C604 1.394 . S
H606 C613 0.929 . S
H607 C616 0.930 . S
H608 C618 0.929 . S
H609 C610 0.969 . S
C610 H609 0.969 . S
C610 O611 1.550 . S
C610 H612 0.973 . S
O611 C610 1.550 . S
O611 C617 1.412 . S
H612 C610 0.973 . S
C613 H606 0.929 . S
C613 C614 1.400 . S
C613 C615 1.364 . S
C614 C613 1.400 . S
C614 C618 1.377 . S
C615 C613 1.364 . S
C615 C616 1.374 . S
C616 H607 0.930 . S
C616 C615 1.374 . S
C616 C617 1.383 . S
C617 O611 1.412 . S
C617 C616 1.383 . S
C617 C618 1.394 . S
C618 H608 0.929 . S
C618 C614 1.377 . S
C618 C617 1.394 . S
H619 C626 0.929 . S
H620 C629 0.930 . S
H621 C631 0.929 . S
H622 C623 0.969 . S
C623 H622 0.969 . S
C623 O624 1.550 . S
C623 H625 0.973 . S
O624 C623 1.550 . S
O624 C630 1.412 . S
H625 C623 0.973 . S
C626 H619 0.929 . S
C626 C627 1.400 . S
C626 C628 1.364 . S
C627 C626 1.400 . S
C627 C631 1.377 . S
C628 C626 1.364 . S
C628 C629 1.374 . S
C629 H620 0.930 . S
C629 C628 1.374 . S
C629 C630 1.383 . S
C630 O624 1.412 . S
C630 C629 1.383 . S
C630 C631 1.394 . S
C631 H621 0.929 . S
C631 C627 1.377 . S
C631 C630 1.394 . S
H632 C639 0.929 . S
H633 C642 0.930 . S
H634 C644 0.929 . S
H635 C636 0.969 . S
C636 H635 0.969 . S
C636 O637 1.550 . S
C636 H638 0.973 . S
O637 C636 1.550 . S
O637 C643 1.412 . S
H638 C636 0.973 . S
C639 H632 0.929 . S
C639 C640 1.400 . S
C639 C641 1.364 . S
C640 C639 1.400 . S
C640 C644 1.377 . S
C641 C639 1.364 . S
C641 C642 1.374 . S
C642 H633 0.930 . S
C642 C641 1.374 . S
C642 C643 1.383 . S
C643 O637 1.412 . S
C643 C642 1.383 . S
C643 C644 1.394 . S
C644 H634 0.929 . S
C644 C640 1.377 . S
C644 C643 1.394 . S
H645 C652 0.929 . S
H646 C655 0.930 . S
H647 C657 0.929 . S
H648 C649 0.969 . S
C649 H648 0.969 . S
C649 O650 1.550 . S
C649 H651 0.973 . S
O650 C649 1.550 . S
O650 C656 1.412 . S
H651 C649 0.973 . S
C652 H645 0.929 . S
C652 C653 1.400 . S
C652 C654 1.364 . S
C653 C652 1.400 . S
C653 C657 1.377 . S
C654 C652 1.364 . S
C654 C655 1.374 . S
C655 H646 0.930 . S
C655 C654 1.374 . S
C655 C656 1.383 . S
C656 O650 1.412 . S
C656 C655 1.383 . S
C656 C657 1.394 . S
C657 H647 0.929 . S
C657 C653 1.377 . S
C657 C656 1.394 . S
H658 C665 0.929 . S
H659 C668 0.930 . S
H660 C670 0.929 . S
H661 C662 0.969 . S
C662 H661 0.969 . S
C662 O663 1.550 . S
C662 H664 0.973 . S
O663 C662 1.550 . S
O663 C669 1.412 . S
H664 C662 0.973 . S
C665 H658 0.929 . S
C665 C666 1.400 . S
C665 C667 1.364 . S
C666 C665 1.400 . S
C666 C670 1.377 . S
C667 C665 1.364 . S
C667 C668 1.374 . S
C668 H659 0.930 . S
C668 C667 1.374 . S
C668 C669 1.383 . S
C669 O663 1.412 . S
C669 C668 1.383 . S
C669 C670 1.394 . S
C670 H660 0.929 . S
C670 C666 1.377 . S
C670 C669 1.394 . S
H671 C678 0.929 . S
H672 C681 0.930 . S
H673 C683 0.929 . S
H674 C675 0.969 . S
C675 H674 0.969 . S
C675 O676 1.550 . S
C675 H677 0.973 . S
O676 C675 1.550 . S
O676 C682 1.412 . S
H677 C675 0.973 . S
C678 H671 0.929 . S
C678 C679 1.400 . S
C678 C680 1.364 . S
C679 C678 1.400 . S
C679 C683 1.377 . S
C680 C678 1.364 . S
C680 C681 1.374 . S
C681 H672 0.930 . S
C681 C680 1.374 . S
C681 C682 1.383 . S
C682 O676 1.412 . S
C682 C681 1.383 . S
C682 C683 1.394 . S
C683 H673 0.929 . S
C683 C679 1.377 . S
C683 C682 1.394 . S
H684 C691 0.929 . S
H685 C694 0.930 . S
H686 C696 0.929 . S
H687 C688 0.969 . S
C688 H687 0.969 . S
C688 O689 1.550 . S
C688 H690 0.973 . S
O689 C688 1.550 . S
O689 C695 1.412 . S
H690 C688 0.973 . S
C691 H684 0.929 . S
C691 C692 1.400 . S
C691 C693 1.364 . S
C692 C691 1.400 . S
C692 C696 1.377 . S
C693 C691 1.364 . S
C693 C694 1.374 . S
C694 H685 0.930 . S
C694 C693 1.374 . S
C694 C695 1.383 . S
C695 O689 1.412 . S
C695 C694 1.383 . S
C695 C696 1.394 . S
C696 H686 0.929 . S
C696 C692 1.377 . S
C696 C695 1.394 . S
H697 C704 0.929 . S
H698 C707 0.930 . S
H699 C709 0.929 . S
H700 C701 0.969 . S
C701 H700 0.969 . S
C701 O702 1.550 . S
C701 H703 0.973 . S
O702 C701 1.550 . S
O702 C708 1.412 . S
H703 C701 0.973 . S
C704 H697 0.929 . S
C704 C705 1.400 . S
C704 C706 1.364 . S
C705 C704 1.400 . S
C705 C709 1.377 . S
C706 C704 1.364 . S
C706 C707 1.374 . S
C707 H698 0.930 . S
C707 C706 1.374 . S
C707 C708 1.383 . S
C708 O702 1.412 . S
C708 C707 1.383 . S
C708 C709 1.394 . S
C709 H699 0.929 . S
C709 C705 1.377 . S
C709 C708 1.394 . S
H710 C717 0.929 . S
H711 C720 0.930 . S
H712 C722 0.929 . S
H713 C714 0.969 . S
C714 H713 0.969 . S
C714 O715 1.550 . S
C714 H716 0.973 . S
O715 C714 1.550 . S
O715 C721 1.412 . S
H716 C714 0.973 . S
C717 H710 0.929 . S
C717 C718 1.400 . S
C717 C719 1.364 . S
C718 C717 1.400 . S
C718 C722 1.377 . S
C719 C717 1.364 . S
C719 C720 1.374 . S
C720 H711 0.930 . S
C720 C719 1.374 . S
C720 C721 1.383 . S
C721 O715 1.412 . S
C721 C720 1.383 . S
C721 C722 1.394 . S
C722 H712 0.929 . S
C722 C718 1.377 . S
C722 C721 1.394 . S
H723 C730 0.929 . S
H724 C733 0.930 . S
H725 C735 0.929 . S
H726 C727 0.969 . S
C727 H726 0.969 . S
C727 O728 1.550 . S
C727 H729 0.973 . S
O728 C727 1.550 . S
O728 C734 1.412 . S
H729 C727 0.973 . S
C730 H723 0.929 . S
C730 C731 1.400 . S
C730 C732 1.364 . S
C731 C730 1.400 . S
C731 C735 1.377 . S
C732 C730 1.364 . S
C732 C733 1.374 . S
C733 H724 0.930 . S
C733 C732 1.374 . S
C733 C734 1.383 . S
C734 O728 1.412 . S
C734 C733 1.383 . S
C734 C735 1.394 . S
C735 H725 0.929 . S
C735 C731 1.377 . S
C735 C734 1.394 . S
H736 C743 0.929 . S
H737 C746 0.930 . S
H738 C748 0.929 . S
H739 C740 0.969 . S
C740 H739 0.969 . S
C740 O741 1.550 . S
C740 H742 0.973 . S
O741 C740 1.550 . S
O741 C747 1.412 . S
H742 C740 0.973 . S
C743 H736 0.929 . S
C743 C744 1.400 . S
C743 C745 1.364 . S
C744 C743 1.400 . S
C744 C748 1.377 . S
C745 C743 1.364 . S
C745 C746 1.374 . S
C746 H737 0.930 . S
C746 C745 1.374 . S
C746 C747 1.383 . S
C747 O741 1.412 . S
C747 C746 1.383 . S
C747 C748 1.394 . S
C748 H738 0.929 . S
C748 C744 1.377 . S
C748 C747 1.394 . S
H749 C756 0.929 . S
H750 C759 0.930 . S
H751 C761 0.929 . S
H752 C753 0.969 . S
C753 H752 0.969 . S
C753 O754 1.550 . S
C753 H755 0.973 . S
O754 C753 1.550 . S
O754 C760 1.412 . S
H755 C753 0.973 . S
C756 H749 0.929 . S
C756 C757 1.400 . S
C756 C758 1.364 . S
C757 C756 1.400 . S
C757 C761 1.377 . S
C758 C756 1.364 . S
C758 C759 1.374 . S
C759 H750 0.930 . S
C759 C758 1.374 . S
C759 C760 1.383 . S
C760 O754 1.412 . S
C760 C759 1.383 . S
C760 C761 1.394 . S
C761 H751 0.929 . S
C761 C757 1.377 . S
C761 C760 1.394 . S
H762 C769 0.929 . S
H763 C772 0.930 . S
H764 C774 0.929 . S
H765 C766 0.969 . S
C766 H765 0.969 . S
C766 O767 1.550 . S
C766 H768 0.973 . S
O767 C766 1.550 . S
O767 C773 1.412 . S
H768 C766 0.973 . S
C769 H762 0.929 . S
C769 C770 1.400 . S
C769 C771 1.364 . S
C770 C769 1.400 . S
C770 C774 1.377 . S
C771 C769 1.364 . S
C771 C772 1.374 . S
C772 H763 0.930 . S
C772 C771 1.374 . S
C772 C773 1.383 . S
C773 O767 1.412 . S
C773 C772 1.383 . S
C773 C774 1.394 . S
C774 H764 0.929 . S
C774 C770 1.377 . S
C774 C773 1.394 . S
H775 C782 0.929 . S
H776 C785 0.930 . S
H777 C787 0.929 . S
H778 C779 0.969 . S
C779 H778 0.969 . S
C779 O780 1.550 . S
C779 H781 0.973 . S
O780 C779 1.550 . S
O780 C786 1.412 . S
H781 C779 0.973 . S
C782 H775 0.929 . S
C782 C783 1.400 . S
C782 C784 1.364 . S
C783 C782 1.400 . S
C783 C787 1.377 . S
C784 C782 1.364 . S
C784 C785 1.374 . S
C785 H776 0.930 . S
C785 C784 1.374 . S
C785 C786 1.383 . S
C786 O780 1.412 . S
C786 C785 1.383 . S
C786 C787 1.394 . S
C787 H777 0.929 . S
C787 C783 1.377 . S
C787 C786 1.394 . S
H788 C795 0.929 . S
H789 C798 0.930 . S
H790 C800 0.929 . S
H791 C792 0.969 . S
C792 H791 0.969 . S
C792 O793 1.550 . S
C792 H794 0.973 . S
O793 C792 1.550 . S
O793 C799 1.412 . S
H794 C792 0.973 . S
C795 H788 0.929 . S
C795 C796 1.400 . S
C795 C797 1.364 . S
C796 C795 1.400 . S
C796 C800 1.377 . S
C797 C795 1.364 . S
C797 C798 1.374 . S
C798 H789 0.930 . S
C798 C797 1.374 . S
C798 C799 1.383 . S
C799 O793 1.412 . S
C799 C798 1.383 . S
C799 C800 1.394 . S
C800 H790 0.929 . S
C800 C796 1.377 . S
C800 C799 1.394 . S
H801 C808 0.929 . S
H802 C811 0.930 . S
H803 C813 0.929 . S
H804 C805 0.969 . S
C805 H804 0.969 . S
C805 O806 1.550 . S
C805 H807 0.973 . S
O806 C805 1.550 . S
O806 C812 1.412 . S
H807 C805 0.973 . S
C808 H801 0.929 . S
C808 C809 1.400 . S
C808 C810 1.364 . S
C809 C808 1.400 . S
C809 C813 1.377 . S
C810 C808 1.364 . S
C810 C811 1.374 . S
C811 H802 0.930 . S
C811 C810 1.374 . S
C811 C812 1.383 . S
C812 O806 1.412 . S
C812 C811 1.383 . S
C812 C813 1.394 . S
C813 H803 0.929 . S
C813 C809 1.377 . S
C813 C812 1.394 . S
H814 C821 0.929 . S
H815 C824 0.930 . S
H816 C826 0.929 . S
H817 C818 0.969 . S
C818 H817 0.969 . S
C818 O819 1.550 . S
C818 H820 0.973 . S
O819 C818 1.550 . S
O819 C825 1.412 . S
H820 C818 0.973 . S
C821 H814 0.929 . S
C821 C822 1.400 . S
C821 C823 1.364 . S
C822 C821 1.400 . S
C822 C826 1.377 . S
C823 C821 1.364 . S
C823 C824 1.374 . S
C824 H815 0.930 . S
C824 C823 1.374 . S
C824 C825 1.383 . S
C825 O819 1.412 . S
C825 C824 1.383 . S
C825 C826 1.394 . S
C826 H816 0.929 . S
C826 C822 1.377 . S
C826 C825 1.394 . S
H827 C834 0.929 . S
H828 C837 0.930 . S
H829 C839 0.929 . S
H830 C831 0.969 . S
C831 H830 0.969 . S
C831 O832 1.550 . S
C831 H833 0.973 . S
O832 C831 1.550 . S
O832 C838 1.412 . S
H833 C831 0.973 . S
C834 H827 0.929 . S
C834 C835 1.400 . S
C834 C836 1.364 . S
C835 C834 1.400 . S
C835 C839 1.377 . S
C836 C834 1.364 . S
C836 C837 1.374 . S
C837 H828 0.930 . S
C837 C836 1.374 . S
C837 C838 1.383 . S
C838 O832 1.412 . S
C838 C837 1.383 . S
C838 C839 1.394 . S
C839 H829 0.929 . S
C839 C835 1.377 . S
C839 C838 1.394 . S
H840 C847 0.929 . S
H841 C850 0.930 . S
H842 C852 0.929 . S
H843 C844 0.969 . S
C844 H843 0.969 . S
C844 O845 1.550 . S
C844 H846 0.973 . S
O845 C844 1.550 . S
O845 C851 1.412 . S
H846 C844 0.973 . S
C847 H840 0.929 . S
C847 C848 1.400 . S
C847 C849 1.364 . S
C848 C847 1.400 . S
C848 C852 1.377 . S
C849 C847 1.364 . S
C849 C850 1.374 . S
C850 H841 0.930 . S
C850 C849 1.374 . S
C850 C851 1.383 . S
C851 O845 1.412 . S
C851 C850 1.383 . S
C851 C852 1.394 . S
C852 H842 0.929 . S
C852 C848 1.377 . S
C852 C851 1.394 . S
H853 C860 0.929 . S
H854 C863 0.930 . S
H855 C865 0.929 . S
H856 C857 0.969 . S
C857 H856 0.969 . S
C857 O858 1.550 . S
C857 H859 0.973 . S
O858 C857 1.550 . S
O858 C864 1.412 . S
H859 C857 0.973 . S
C860 H853 0.929 . S
C860 C861 1.400 . S
C860 C862 1.364 . S
C861 C860 1.400 . S
C861 C865 1.377 . S
C862 C860 1.364 . S
C862 C863 1.374 . S
C863 H854 0.930 . S
C863 C862 1.374 . S
C863 C864 1.383 . S
C864 O858 1.412 . S
C864 C863 1.383 . S
C864 C865 1.394 . S
C865 H855 0.929 . S
C865 C861 1.377 . S
C865 C864 1.394 . S
H866 C873 0.929 . S
H867 C876 0.930 . S
H868 C878 0.929 . S
H869 C870 0.969 . S
C870 H869 0.969 . S
C870 O871 1.550 . S
C870 H872 0.973 . S
O871 C870 1.550 . S
O871 C877 1.412 . S
H872 C870 0.973 . S
C873 H866 0.929 . S
C873 C874 1.400 . S
C873 C875 1.364 . S
C874 C873 1.400 . S
C874 C878 1.377 . S
C875 C873 1.364 . S
C875 C876 1.374 . S
C876 H867 0.930 . S
C876 C875 1.374 . S
C876 C877 1.383 . S
C877 O871 1.412 . S
C877 C876 1.383 . S
C877 C878 1.394 . S
C878 H868 0.929 . S
C878 C874 1.377 . S
C878 C877 1.394 . S
H879 C886 0.929 . S
H880 C889 0.930 . S
H881 C891 0.929 . S
H882 C883 0.969 . S
C883 H882 0.969 . S
C883 O884 1.550 . S
C883 H885 0.973 . S
O884 C883 1.550 . S
O884 C890 1.412 . S
H885 C883 0.973 . S
C886 H879 0.929 . S
C886 C887 1.400 . S
C886 C888 1.364 . S
C887 C886 1.400 . S
C887 C891 1.377 . S
C888 C886 1.364 . S
C888 C889 1.374 . S
C889 H880 0.930 . S
C889 C888 1.374 . S
C889 C890 1.383 . S
C890 O884 1.412 . S
C890 C889 1.383 . S
C890 C891 1.394 . S
C891 H881 0.929 . S
C891 C887 1.377 . S
C891 C890 1.394 . S
H892 C899 0.929 . S
H893 C902 0.930 . S
H894 C904 0.929 . S
H895 C896 0.969 . S
C896 H895 0.969 . S
C896 O897 1.550 . S
C896 H898 0.973 . S
O897 C896 1.550 . S
O897 C903 1.412 . S
H898 C896 0.973 . S
C899 H892 0.929 . S
C899 C900 1.400 . S
C899 C901 1.364 . S
C900 C899 1.400 . S
C900 C904 1.377 . S
C901 C899 1.364 . S
C901 C902 1.374 . S
C902 H893 0.930 . S
C902 C901 1.374 . S
C902 C903 1.383 . S
C903 O897 1.412 . S
C903 C902 1.383 . S
C903 C904 1.394 . S
C904 H894 0.929 . S
C904 C900 1.377 . S
C904 C903 1.394 . S
H905 C912 0.929 . S
H906 C915 0.930 . S
H907 C917 0.929 . S
H908 C909 0.969 . S
C909 H908 0.969 . S
C909 O910 1.550 . S
C909 H911 0.973 . S
O910 C909 1.550 . S
O910 C916 1.412 . S
H911 C909 0.973 . S
C912 H905 0.929 . S
C912 C913 1.400 . S
C912 C914 1.364 . S
C913 C912 1.400 . S
C913 C917 1.377 . S
C914 C912 1.364 . S
C914 C915 1.374 . S
C915 H906 0.930 . S
C915 C914 1.374 . S
C915 C916 1.383 . S
C916 O910 1.412 . S
C916 C915 1.383 . S
C916 C917 1.394 . S
C917 H907 0.929 . S
C917 C913 1.377 . S
C917 C916 1.394 . S
H918 C925 0.929 . S
H919 C928 0.930 . S
H920 C930 0.929 . S
H921 C922 0.969 . S
C922 H921 0.969 . S
C922 O923 1.550 . S
C922 H924 0.973 . S
O923 C922 1.550 . S
O923 C929 1.412 . S
H924 C922 0.973 . S
C925 H918 0.929 . S
C925 C926 1.400 . S
C925 C927 1.364 . S
C926 C925 1.400 . S
C926 C930 1.377 . S
C927 C925 1.364 . S
C927 C928 1.374 . S
C928 H919 0.930 . S
C928 C927 1.374 . S
C928 C929 1.383 . S
C929 O923 1.412 . S
C929 C928 1.383 . S
C929 C930 1.394 . S
C930 H920 0.929 . S
C930 C926 1.377 . S
C930 C929 1.394 . S
H931 C938 0.929 . S
H932 C941 0.930 . S
H933 C943 0.929 . S
H934 C935 0.969 . S
C935 H934 0.969 . S
C935 O936 1.550 . S
C935 H937 0.973 . S
O936 C935 1.550 . S
O936 C942 1.412 . S
H937 C935 0.973 . S
C938 H931 0.929 . S
C938 C939 1.400 . S
C938 C940 1.364 . S
C939 C938 1.400 . S
C939 C943 1.377 . S
C940 C938 1.364 . S
C940 C941 1.374 . S
C941 H932 0.930 . S
C941 C940 1.374 . S
C941 C942 1.383 . S
C942 O936 1.412 . S
C942 C941 1.383 . S
C942 C943 1.394 . S
C943 H933 0.929 . S
C943 C939 1.377 . S
C943 C942 1.394 . S
H944 C951 0.929 . S
H945 C954 0.930 . S
H946 C956 0.929 . S
H947 C948 0.969 . S
C948 H947 0.969 . S
C948 O949 1.550 . S
C948 H950 0.973 . S
O949 C948 1.550 . S
O949 C955 1.412 . S
H950 C948 0.973 . S
C951 H944 0.929 . S
C951 C952 1.400 . S
C951 C953 1.364 . S
C952 C951 1.400 . S
C952 C956 1.377 . S
C953 C951 1.364 . S
C953 C954 1.374 . S
C954 H945 0.930 . S
C954 C953 1.374 . S
C954 C955 1.383 . S
C955 O949 1.412 . S
C955 C954 1.383 . S
C955 C956 1.394 . S
C956 H946 0.929 . S
C956 C952 1.377 . S
C956 C955 1.394 . S
H957 C964 0.929 . S
H958 C967 0.930 . S
H959 C969 0.929 . S
H960 C961 0.969 . S
C961 H960 0.969 . S
C961 O962 1.550 . S
C961 H963 0.973 . S
O962 C961 1.550 . S
O962 C968 1.412 . S
H963 C961 0.973 . S
C964 H957 0.929 . S
C964 C965 1.400 . S
C964 C966 1.364 . S
C965 C964 1.400 . S
C965 C969 1.377 . S
C966 C964 1.364 . S
C966 C967 1.374 . S
C967 H958 0.930 . S
C967 C966 1.374 . S
C967 C968 1.383 . S
C968 O962 1.412 . S
C968 C967 1.383 . S
C968 C969 1.394 . S
C969 H959 0.929 . S
C969 C965 1.377 . S
C969 C968 1.394 . S
H970 C977 0.929 . S
H971 C980 0.930 . S
H972 C982 0.929 . S
H973 C974 0.969 . S
C974 H973 0.969 . S
C974 O975 1.550 . S
C974 H976 0.973 . S
O975 C974 1.550 . S
O975 C981 1.412 . S
H976 C974 0.973 . S
C977 H970 0.929 . S
C977 C978 1.400 . S
C977 C979 1.364 . S
C978 C977 1.400 . S
C978 C982 1.377 . S
C979 C977 1.364 . S
C979 C980 1.374 . S
C980 H971 0.930 . S
C980 C979 1.374 . S
C980 C981 1.383 . S
C981 O975 1.412 . S
C981 C980 1.383 . S
C981 C982 1.394 . S
C982 H972 0.929 . S
C982 C978 1.377 . S
C982 C981 1.394 . S
H983 C990 0.929 . S
H984 C993 0.930 . S
H985 C995 0.929 . S
H986 C987 0.969 . S
C987 H986 0.969 . S
C987 O988 1.550 . S
C987 H989 0.973 . S
O988 C987 1.550 . S
O988 C994 1.412 . S
H989 C987 0.973 . S
C990 H983 0.929 . S
C990 C991 1.400 . S
C990 C992 1.364 . S
C991 C990 1.400 . S
C991 C995 1.377 . S
C992 C990 1.364 . S
C992 C993 1.374 . S
C993 H984 0.930 . S
C993 C992 1.374 . S
C993 C994 1.383 . S
C994 O988 1.412 . S
C994 C993 1.383 . S
C994 C995 1.394 . S
C995 H985 0.929 . S
C995 C991 1.377 . S
C995 C994 1.394 . S
H996 C1003 0.929 . S
H997 C1006 0.930 . S
H998 C1008 0.929 . S
H999 C1000 0.969 . S
C1000 H999 0.969 . S
C1000 O1001 1.550 . S
C1000 H1002 0.973 . S
O1001 C1000 1.550 . S
O1001 C1007 1.412 . S
H1002 C1000 0.973 . S
C1003 H996 0.929 . S
C1003 C1004 1.400 . S
C1003 C1005 1.364 . S
C1004 C1003 1.400 . S
C1004 C1008 1.377 . S
C1005 C1003 1.364 . S
C1005 C1006 1.374 . S
C1006 H997 0.930 . S
C1006 C1005 1.374 . S
C1006 C1007 1.383 . S
C1007 O1001 1.412 . S
C1007 C1006 1.383 . S
C1007 C1008 1.394 . S
C1008 H998 0.929 . S
C1008 C1004 1.377 . S
C1008 C1007 1.394 . S
H1009 C1016 0.929 . S
H1010 C1019 0.930 . S
H1011 C1021 0.929 . S
H1012 C1013 0.969 . S
C1013 H1012 0.969 . S
C1013 O1014 1.550 . S
C1013 H1015 0.973 . S
O1014 C1013 1.550 . S
O1014 C1020 1.412 . S
H1015 C1013 0.973 . S
C1016 H1009 0.929 . S
C1016 C1017 1.400 . S
C1016 C1018 1.364 . S
C1017 C1016 1.400 . S
C1017 C1021 1.377 . S
C1018 C1016 1.364 . S
C1018 C1019 1.374 . S
C1019 H1010 0.930 . S
C1019 C1018 1.374 . S
C1019 C1020 1.383 . S
C1020 O1014 1.412 . S
C1020 C1019 1.383 . S
C1020 C1021 1.394 . S
C1021 H1011 0.929 . S
C1021 C1017 1.377 . S
C1021 C1020 1.394 . S
H1022 C1029 0.929 . S
H1023 C1032 0.930 . S
H1024 C1034 0.929 . S
H1025 C1026 0.969 . S
C1026 H1025 0.969 . S
C1026 O1027 1.550 . S
C1026 H1028 0.973 . S
O1027 C1026 1.550 . S
O1027 C1033 1.412 . S
H1028 C1026 0.973 . S
C1029 H1022 0.929 . S
C1029 C1030 1.400 . S
C1029 C1031 1.364 . S
C1030 C1029 1.400 . S
C1030 C1034 1.377 . S
C1031 C1029 1.364 . S
C1031 C1032 1.374 . S
C1032 H1023 0.930 . S
C1032 C1031 1.374 . S
C1032 C1033 1.383 . S
C1033 O1027 1.412 . S
C1033 C1032 1.383 . S
C1033 C1034 1.394 . S
C1034 H1024 0.929 . S
C1034 C1030 1.377 . S
C1034 C1033 1.394 . S
H1035 C1042 0.929 . S
H1036 C1045 0.930 . S
H1037 C1047 0.929 . S
H1038 C1039 0.969 . S
C1039 H1038 0.969 . S
C1039 O1040 1.550 . S
C1039 H1041 0.973 . S
O1040 C1039 1.550 . S
O1040 C1046 1.412 . S
H1041 C1039 0.973 . S
C1042 H1035 0.929 . S
C1042 C1043 1.400 . S
C1042 C1044 1.364 . S
C1043 C1042 1.400 . S
C1043 C1047 1.377 . S
C1044 C1042 1.364 . S
C1044 C1045 1.374 . S
C1045 H1036 0.930 . S
C1045 C1044 1.374 . S
C1045 C1046 1.383 . S
C1046 O1040 1.412 . S
C1046 C1045 1.383 . S
C1046 C1047 1.394 . S
C1047 H1037 0.929 . S
C1047 C1043 1.377 . S
C1047 C1046 1.394 . S
H1048 C1055 0.929 . S
H1049 C1058 0.930 . S
H1050 C1060 0.929 . S
H1051 C1052 0.969 . S
C1052 H1051 0.969 . S
C1052 O1053 1.550 . S
C1052 H1054 0.973 . S
O1053 C1052 1.550 . S
O1053 C1059 1.412 . S
H1054 C1052 0.973 . S
C1055 H1048 0.929 . S
C1055 C1056 1.400 . S
C1055 C1057 1.364 . S
C1056 C1055 1.400 . S
C1056 C1060 1.377 . S
C1057 C1055 1.364 . S
C1057 C1058 1.374 . S
C1058 H1049 0.930 . S
C1058 C1057 1.374 . S
C1058 C1059 1.383 . S
C1059 O1053 1.412 . S
C1059 C1058 1.383 . S
C1059 C1060 1.394 . S
C1060 H1050 0.929 . S
C1060 C1056 1.377 . S
C1060 C1059 1.394 . S
H1061 C1068 0.929 . S
H1062 C1071 0.930 . S
H1063 C1073 0.929 . S
H1064 C1065 0.969 . S
C1065 H1064 0.969 . S
C1065 O1066 1.550 . S
C1065 H1067 0.973 . S
O1066 C1065 1.550 . S
O1066 C1072 1.412 . S
H1067 C1065 0.973 . S
C1068 H1061 0.929 . S
C1068 C1069 1.400 . S
C1068 C1070 1.364 . S
C1069 C1068 1.400 . S
C1069 C1073 1.377 . S
C1070 C1068 1.364 . S
C1070 C1071 1.374 . S
C1071 H1062 0.930 . S
C1071 C1070 1.374 . S
C1071 C1072 1.383 . S
C1072 O1066 1.412 . S
C1072 C1071 1.383 . S
C1072 C1073 1.394 . S
C1073 H1063 0.929 . S
C1073 C1069 1.377 . S
C1073 C1072 1.394 . S
H1074 C1081 0.929 . S
H1075 C1084 0.930 . S
H1076 C1086 0.929 . S
H1077 C1078 0.969 . S
C1078 H1077 0.969 . S
C1078 O1079 1.550 . S
C1078 H1080 0.973 . S
O1079 C1078 1.550 . S
O1079 C1085 1.412 . S
H1080 C1078 0.973 . S
C1081 H1074 0.929 . S
C1081 C1082 1.400 . S
C1081 C1083 1.364 . S
C1082 C1081 1.400 . S
C1082 C1086 1.377 . S
C1083 C1081 1.364 . S
C1083 C1084 1.374 . S
C1084 H1075 0.930 . S
C1084 C1083 1.374 . S
C1084 C1085 1.383 . S
C1085 O1079 1.412 . S
C1085 C1084 1.383 . S
C1085 C1086 1.394 . S
C1086 H1076 0.929 . S
C1086 C1082 1.377 . S
C1086 C1085 1.394 . S
H1087 C1094 0.929 . S
H1088 C1097 0.930 . S
H1089 C1099 0.929 . S
H1090 C1091 0.969 . S
C1091 H1090 0.969 . S
C1091 O1092 1.550 . S
C1091 H1093 0.973 . S
O1092 C1091 1.550 . S
O1092 C1098 1.412 . S
H1093 C1091 0.973 . S
C1094 H1087 0.929 . S
C1094 C1095 1.400 . S
C1094 C1096 1.364 . S
C1095 C1094 1.400 . S
C1095 C1099 1.377 . S
C1096 C1094 1.364 . S
C1096 C1097 1.374 . S
C1097 H1088 0.930 . S
C1097 C1096 1.374 . S
C1097 C1098 1.383 . S
C1098 O1092 1.412 . S
C1098 C1097 1.383 . S
C1098 C1099 1.394 . S
C1099 H1089 0.929 . S
C1099 C1095 1.377 . S
C1099 C1098 1.394 . S
H1100 C1107 0.929 . S
H1101 C1110 0.930 . S
H1102 C1112 0.929 . S
H1103 C1104 0.969 . S
C1104 H1103 0.969 . S
C1104 O1105 1.550 . S
C1104 H1106 0.973 . S
O1105 C1104 1.550 . S
O1105 C1111 1.412 . S
H1106 C1104 0.973 . S
C1107 H1100 0.929 . S
C1107 C1108 1.400 . S
C1107 C1109 1.364 . S
C1108 C1107 1.400 . S
C1108 C1112 1.377 . S
C1109 C1107 1.364 . S
C1109 C1110 1.374 . S
C1110 H1101 0.930 . S
C1110 C1109 1.374 . S
C1110 C1111 1.383 . S
C1111 O1105 1.412 . S
C1111 C1110 1.383 . S
C1111 C1112 1.394 . S
C1112 H1102 0.929 . S
C1112 C1108 1.377 . S
C1112 C1111 1.394 . S
H1113 C1120 0.929 . S
H1114 C1123 0.930 . S
H1115 C1125 0.929 . S
H1116 C1117 0.969 . S
C1117 H1116 0.969 . S
C1117 O1118 1.550 . S
C1117 H1119 0.973 . S
O1118 C1117 1.550 . S
O1118 C1124 1.412 . S
H1119 C1117 0.973 . S
C1120 H1113 0.929 . S
C1120 C1121 1.400 . S
C1120 C1122 1.364 . S
C1121 C1120 1.400 . S
C1121 C1125 1.377 . S
C1122 C1120 1.364 . S
C1122 C1123 1.374 . S
C1123 H1114 0.930 . S
C1123 C1122 1.374 . S
C1123 C1124 1.383 . S
C1124 O1118 1.412 . S
C1124 C1123 1.383 . S
C1124 C1125 1.394 . S
C1125 H1115 0.929 . S
C1125 C1121 1.377 . S
C1125 C1124 1.394 . S
H1126 C1133 0.929 . S
H1127 C1136 0.930 . S
H1128 C1138 0.929 . S
H1129 C1130 0.969 . S
C1130 H1129 0.969 . S
C1130 O1131 1.550 . S
C1130 H1132 0.973 . S
O1131 C1130 1.550 . S
O1131 C1137 1.412 . S
H1132 C1130 0.973 . S
C1133 H1126 0.929 . S
C1133 C1134 1.400 . S
C1133 C1135 1.364 . S
C1134 C1133 1.400 . S
C1134 C1138 1.377 . S
C1135 C1133 1.364 . S
C1135 C1136 1.374 . S
C1136 H1127 0.930 . S
C1136 C1135 1.374 . S
C1136 C1137 1.383 . S
C1137 O1131 1.412 . S
C1137 C1136 1.383 . S
C1137 C1138 1.394 . S
C1138 H1128 0.929 . S
C1138 C1134 1.377 . S
C1138 C1137 1.394 . S
H1139 C1146 0.929 . S
H1140 C1149 0.930 . S
H1141 C1151 0.929 . S
H1142 C1143 0.969 . S
C1143 H1142 0.969 . S
C1143 O1144 1.550 . S
C1143 H1145 0.973 . S
O1144 C1143 1.550 . S
O1144 C1150 1.412 . S
H1145 C1143 0.973 . S
C1146 H1139 0.929 . S
C1146 C1147 1.400 . S
C1146 C1148 1.364 . S
C1147 C1146 1.400 . S
C1147 C1151 1.377 . S
C1148 C1146 1.364 . S
C1148 C1149 1.374 . S
C1149 H1140 0.930 . S
C1149 C1148 1.374 . S
C1149 C1150 1.383 . S
C1150 O1144 1.412 . S
C1150 C1149 1.383 . S
C1150 C1151 1.394 . S
C1151 H1141 0.929 . S
C1151 C1147 1.377 . S
C1151 C1150 1.394 . S
C1152 C1153 1.387 . S
C1152 H1156 0.950 . S
C1152 C1161 1.390 . S
C1153 C1152 1.387 . S
C1153 C1155 1.387 . S
H1154 C1161 0.950 . S
C1155 C1153 1.387 . S
C1155 C1157 1.390 . S
C1155 H1159 0.950 . S
H1156 C1152 0.950 . S
C1157 C1155 1.390 . S
C1157 C1158 1.387 . S
C1157 H1160 0.950 . S
C1158 C1157 1.387 . S
C1158 C1161 1.387 . S
H1159 C1155 0.950 . S
H1160 C1157 0.950 . S
C1161 C1152 1.390 . S
C1161 H1154 0.950 . S
C1161 C1158 1.387 . S
C1162 C1163 1.387 . S
C1162 H1166 0.950 . S
C1162 C1171 1.390 . S
C1163 C1162 1.387 . S
C1163 C1165 1.387 . S
H1164 C1171 0.950 . S
C1165 C1163 1.387 . S
C1165 C1167 1.390 . S
C1165 H1169 0.950 . S
H1166 C1162 0.950 . S
C1167 C1165 1.390 . S
C1167 C1168 1.387 . S
C1167 H1170 0.950 . S
C1168 C1167 1.387 . S
C1168 C1171 1.387 . S
H1169 C1165 0.950 . S
H1170 C1167 0.950 . S
C1171 C1162 1.390 . S
C1171 H1164 0.950 . S
C1171 C1168 1.387 . S
C1172 C1173 1.387 . S
C1172 H1176 0.950 . S
C1172 C1181 1.390 . S
C1173 C1172 1.387 . S
C1173 C1175 1.387 . S
H1174 C1181 0.950 . S
C1175 C1173 1.387 . S
C1175 C1177 1.390 . S
C1175 H1179 0.950 . S
H1176 C1172 0.950 . S
C1177 C1175 1.390 . S
C1177 C1178 1.387 . S
C1177 H1180 0.950 . S
C1178 C1177 1.387 . S
C1178 C1181 1.387 . S
H1179 C1175 0.950 . S
H1180 C1177 0.950 . S
C1181 C1172 1.390 . S
C1181 H1174 0.950 . S
C1181 C1178 1.387 . S
C1182 C1183 1.387 . S
C1182 H1186 0.950 . S
C1182 C1191 1.390 . S
C1183 C1182 1.387 . S
C1183 C1185 1.387 . S
H1184 C1191 0.950 . S
C1185 C1183 1.387 . S
C1185 C1187 1.390 . S
C1185 H1189 0.950 . S
H1186 C1182 0.950 . S
C1187 C1185 1.390 . S
C1187 C1188 1.387 . S
C1187 H1190 0.950 . S
C1188 C1187 1.387 . S
C1188 C1191 1.387 . S
H1189 C1185 0.950 . S
H1190 C1187 0.950 . S
C1191 C1182 1.390 . S
C1191 H1184 0.950 . S
C1191 C1188 1.387 . S
C1192 C1193 1.387 . S
C1192 H1196 0.950 . S
C1192 C1201 1.390 . S
C1193 C1192 1.387 . S
C1193 C1195 1.387 . S
H1194 C1201 0.950 . S
C1195 C1193 1.387 . S
C1195 C1197 1.390 . S
C1195 H1199 0.950 . S
H1196 C1192 0.950 . S
C1197 C1195 1.390 . S
C1197 C1198 1.387 . S
C1197 H1200 0.950 . S
C1198 C1197 1.387 . S
C1198 C1201 1.387 . S
H1199 C1195 0.950 . S
H1200 C1197 0.950 . S
C1201 C1192 1.390 . S
C1201 H1194 0.950 . S
C1201 C1198 1.387 . S
C1202 C1203 1.387 . S
C1202 H1206 0.950 . S
C1202 C1211 1.390 . S
C1203 C1202 1.387 . S
C1203 C1205 1.387 . S
H1204 C1211 0.950 . S
C1205 C1203 1.387 . S
C1205 C1207 1.390 . S
C1205 H1209 0.950 . S
H1206 C1202 0.950 . S
C1207 C1205 1.390 . S
C1207 C1208 1.387 . S
C1207 H1210 0.950 . S
C1208 C1207 1.387 . S
C1208 C1211 1.387 . S
H1209 C1205 0.950 . S
H1210 C1207 0.950 . S
C1211 C1202 1.390 . S
C1211 H1204 0.950 . S
C1211 C1208 1.387 . S
C1212 C1213 1.387 . S
C1212 H1216 0.950 . S
C1212 C1221 1.390 . S
C1213 C1212 1.387 . S
C1213 C1215 1.387 . S
H1214 C1221 0.950 . S
C1215 C1213 1.387 . S
C1215 C1217 1.390 . S
C1215 H1219 0.950 . S
H1216 C1212 0.950 . S
C1217 C1215 1.390 . S
C1217 C1218 1.387 . S
C1217 H1220 0.950 . S
C1218 C1217 1.387 . S
C1218 C1221 1.387 . S
H1219 C1215 0.950 . S
H1220 C1217 0.950 . S
C1221 C1212 1.390 . S
C1221 H1214 0.950 . S
C1221 C1218 1.387 . S
C1222 C1223 1.387 . S
C1222 H1226 0.950 . S
C1222 C1231 1.390 . S
C1223 C1222 1.387 . S
C1223 C1225 1.387 . S
H1224 C1231 0.950 . S
C1225 C1223 1.387 . S
C1225 C1227 1.390 . S
C1225 H1229 0.950 . S
H1226 C1222 0.950 . S
C1227 C1225 1.390 . S
C1227 C1228 1.387 . S
C1227 H1230 0.950 . S
C1228 C1227 1.387 . S
C1228 C1231 1.387 . S
H1229 C1225 0.950 . S
H1230 C1227 0.950 . S
C1231 C1222 1.390 . S
C1231 H1224 0.950 . S
C1231 C1228 1.387 . S
C1232 C1233 1.387 . S
C1232 H1236 0.950 . S
C1232 C1241 1.390 . S
C1233 C1232 1.387 . S
C1233 C1235 1.387 . S
H1234 C1241 0.950 . S
C1235 C1233 1.387 . S
C1235 C1237 1.390 . S
C1235 H1239 0.950 . S
H1236 C1232 0.950 . S
C1237 C1235 1.390 . S
C1237 C1238 1.387 . S
C1237 H1240 0.950 . S
C1238 C1237 1.387 . S
C1238 C1241 1.387 . S
H1239 C1235 0.950 . S
H1240 C1237 0.950 . S
C1241 C1232 1.390 . S
C1241 H1234 0.950 . S
C1241 C1238 1.387 . S
C1242 C1243 1.387 . S
C1242 H1246 0.950 . S
C1242 C1251 1.390 . S
C1243 C1242 1.387 . S
C1243 C1245 1.387 . S
H1244 C1251 0.950 . S
C1245 C1243 1.387 . S
C1245 C1247 1.390 . S
C1245 H1249 0.950 . S
H1246 C1242 0.950 . S
C1247 C1245 1.390 . S
C1247 C1248 1.387 . S
C1247 H1250 0.950 . S
C1248 C1247 1.387 . S
C1248 C1251 1.387 . S
H1249 C1245 0.950 . S
H1250 C1247 0.950 . S
C1251 C1242 1.390 . S
C1251 H1244 0.950 . S
C1251 C1248 1.387 . S
C1252 C1253 1.387 . S
C1252 H1256 0.950 . S
C1252 C1261 1.390 . S
C1253 C1252 1.387 . S
C1253 C1255 1.387 . S
H1254 C1261 0.950 . S
C1255 C1253 1.387 . S
C1255 C1257 1.390 . S
C1255 H1259 0.950 . S
H1256 C1252 0.950 . S
C1257 C1255 1.390 . S
C1257 C1258 1.387 . S
C1257 H1260 0.950 . S
C1258 C1257 1.387 . S
C1258 C1261 1.387 . S
H1259 C1255 0.950 . S
H1260 C1257 0.950 . S
C1261 C1252 1.390 . S
C1261 H1254 0.950 . S
C1261 C1258 1.387 . S
C1262 C1263 1.387 . S
C1262 H1266 0.950 . S
C1262 C1271 1.390 . S
C1263 C1262 1.387 . S
C1263 C1265 1.387 . S
H1264 C1271 0.950 . S
C1265 C1263 1.387 . S
C1265 C1267 1.390 . S
C1265 H1269 0.950 . S
H1266 C1262 0.950 . S
C1267 C1265 1.390 . S
C1267 C1268 1.387 . S
C1267 H1270 0.950 . S
C1268 C1267 1.387 . S
C1268 C1271 1.387 . S
H1269 C1265 0.950 . S
H1270 C1267 0.950 . S
C1271 C1262 1.390 . S
C1271 H1264 0.950 . S
C1271 C1268 1.387 . S
C1272 C1273 1.387 . S
C1272 H1276 0.950 . S
C1272 C1281 1.390 . S
C1273 C1272 1.387 . S
C1273 C1275 1.387 . S
H1274 C1281 0.950 . S
C1275 C1273 1.387 . S
C1275 C1277 1.390 . S
C1275 H1279 0.950 . S
H1276 C1272 0.950 . S
C1277 C1275 1.390 . S
C1277 C1278 1.387 . S
C1277 H1280 0.950 . S
C1278 C1277 1.387 . S
C1278 C1281 1.387 . S
H1279 C1275 0.950 . S
H1280 C1277 0.950 . S
C1281 C1272 1.390 . S
C1281 H1274 0.950 . S
C1281 C1278 1.387 . S
C1282 C1283 1.387 . S
C1282 H1286 0.950 . S
C1282 C1291 1.390 . S
C1283 C1282 1.387 . S
C1283 C1285 1.387 . S
H1284 C1291 0.950 . S
C1285 C1283 1.387 . S
C1285 C1287 1.390 . S
C1285 H1289 0.950 . S
H1286 C1282 0.950 . S
C1287 C1285 1.390 . S
C1287 C1288 1.387 . S
C1287 H1290 0.950 . S
C1288 C1287 1.387 . S
C1288 C1291 1.387 . S
H1289 C1285 0.950 . S
H1290 C1287 0.950 . S
C1291 C1282 1.390 . S
C1291 H1284 0.950 . S
C1291 C1288 1.387 . S
C1292 C1293 1.387 . S
C1292 H1296 0.950 . S
C1292 C1301 1.390 . S
C1293 C1292 1.387 . S
C1293 C1295 1.387 . S
H1294 C1301 0.950 . S
C1295 C1293 1.387 . S
C1295 C1297 1.390 . S
C1295 H1299 0.950 . S
H1296 C1292 0.950 . S
C1297 C1295 1.390 . S
C1297 C1298 1.387 . S
C1297 H1300 0.950 . S
C1298 C1297 1.387 . S
C1298 C1301 1.387 . S
H1299 C1295 0.950 . S
H1300 C1297 0.950 . S
C1301 C1292 1.390 . S
C1301 H1294 0.950 . S
C1301 C1298 1.387 . S
C1302 C1303 1.387 . S
C1302 H1306 0.950 . S
C1302 C1311 1.390 . S
C1303 C1302 1.387 . S
C1303 C1305 1.387 . S
H1304 C1311 0.950 . S
C1305 C1303 1.387 . S
C1305 C1307 1.390 . S
C1305 H1309 0.950 . S
H1306 C1302 0.950 . S
C1307 C1305 1.390 . S
C1307 C1308 1.387 . S
C1307 H1310 0.950 . S
C1308 C1307 1.387 . S
C1308 C1311 1.387 . S
H1309 C1305 0.950 . S
H1310 C1307 0.950 . S
C1311 C1302 1.390 . S
C1311 H1304 0.950 . S
C1311 C1308 1.387 . S
C1312 C1313 1.387 . S
C1312 H1316 0.950 . S
C1312 C1321 1.390 . S
C1313 C1312 1.387 . S
C1313 C1315 1.387 . S
H1314 C1321 0.950 . S
C1315 C1313 1.387 . S
C1315 C1317 1.390 . S
C1315 H1319 0.950 . S
H1316 C1312 0.950 . S
C1317 C1315 1.390 . S
C1317 C1318 1.387 . S
C1317 H1320 0.950 . S
C1318 C1317 1.387 . S
C1318 C1321 1.387 . S
H1319 C1315 0.950 . S
H1320 C1317 0.950 . S
C1321 C1312 1.390 . S
C1321 H1314 0.950 . S
C1321 C1318 1.387 . S
C1322 C1323 1.387 . S
C1322 H1326 0.950 . S
C1322 C1331 1.390 . S
C1323 C1322 1.387 . S
C1323 C1325 1.387 . S
H1324 C1331 0.950 . S
C1325 C1323 1.387 . S
C1325 C1327 1.390 . S
C1325 H1329 0.950 . S
H1326 C1322 0.950 . S
C1327 C1325 1.390 . S
C1327 C1328 1.387 . S
C1327 H1330 0.950 . S
C1328 C1327 1.387 . S
C1328 C1331 1.387 . S
H1329 C1325 0.950 . S
H1330 C1327 0.950 . S
C1331 C1322 1.390 . S
C1331 H1324 0.950 . S
C1331 C1328 1.387 . S
C1332 C1333 1.387 . S
C1332 H1336 0.950 . S
C1332 C1341 1.390 . S
C1333 C1332 1.387 . S
C1333 C1335 1.387 . S
H1334 C1341 0.950 . S
C1335 C1333 1.387 . S
C1335 C1337 1.390 . S
C1335 H1339 0.950 . S
H1336 C1332 0.950 . S
C1337 C1335 1.390 . S
C1337 C1338 1.387 . S
C1337 H1340 0.950 . S
C1338 C1337 1.387 . S
C1338 C1341 1.387 . S
H1339 C1335 0.950 . S
H1340 C1337 0.950 . S
C1341 C1332 1.390 . S
C1341 H1334 0.950 . S
C1341 C1338 1.387 . S
C1342 C1343 1.387 . S
C1342 H1346 0.950 . S
C1342 C1351 1.390 . S
C1343 C1342 1.387 . S
C1343 C1345 1.387 . S
H1344 C1351 0.950 . S
C1345 C1343 1.387 . S
C1345 C1347 1.390 . S
C1345 H1349 0.950 . S
H1346 C1342 0.950 . S
C1347 C1345 1.390 . S
C1347 C1348 1.387 . S
C1347 H1350 0.950 . S
C1348 C1347 1.387 . S
C1348 C1351 1.387 . S
H1349 C1345 0.950 . S
H1350 C1347 0.950 . S
C1351 C1342 1.390 . S
C1351 H1344 0.950 . S
C1351 C1348 1.387 . S
C1352 C1353 1.387 . S
C1352 H1356 0.950 . S
C1352 C1361 1.390 . S
C1353 C1352 1.387 . S
C1353 C1355 1.387 . S
H1354 C1361 0.950 . S
C1355 C1353 1.387 . S
C1355 C1357 1.390 . S
C1355 H1359 0.950 . S
H1356 C1352 0.950 . S
C1357 C1355 1.390 . S
C1357 C1358 1.387 . S
C1357 H1360 0.950 . S
C1358 C1357 1.387 . S
C1358 C1361 1.387 . S
H1359 C1355 0.950 . S
H1360 C1357 0.950 . S
C1361 C1352 1.390 . S
C1361 H1354 0.950 . S
C1361 C1358 1.387 . S
C1362 C1363 1.387 . S
C1362 H1366 0.950 . S
C1362 C1371 1.390 . S
C1363 C1362 1.387 . S
C1363 C1365 1.387 . S
H1364 C1371 0.950 . S
C1365 C1363 1.387 . S
C1365 C1367 1.390 . S
C1365 H1369 0.950 . S
H1366 C1362 0.950 . S
C1367 C1365 1.390 . S
C1367 C1368 1.387 . S
C1367 H1370 0.950 . S
C1368 C1367 1.387 . S
C1368 C1371 1.387 . S
H1369 C1365 0.950 . S
H1370 C1367 0.950 . S
C1371 C1362 1.390 . S
C1371 H1364 0.950 . S
C1371 C1368 1.387 . S
C1372 C1373 1.387 . S
C1372 H1376 0.950 . S
C1372 C1381 1.390 . S
C1373 C1372 1.387 . S
C1373 C1375 1.387 . S
H1374 C1381 0.950 . S
C1375 C1373 1.387 . S
C1375 C1377 1.390 . S
C1375 H1379 0.950 . S
H1376 C1372 0.950 . S
C1377 C1375 1.390 . S
C1377 C1378 1.387 . S
C1377 H1380 0.950 . S
C1378 C1377 1.387 . S
C1378 C1381 1.387 . S
H1379 C1375 0.950 . S
H1380 C1377 0.950 . S
C1381 C1372 1.390 . S
C1381 H1374 0.950 . S
C1381 C1378 1.387 . S
C1382 C1383 1.387 . S
C1382 H1386 0.950 . S
C1382 C1391 1.390 . S
C1383 C1382 1.387 . S
C1383 C1385 1.387 . S
H1384 C1391 0.950 . S
C1385 C1383 1.387 . S
C1385 C1387 1.390 . S
C1385 H1389 0.950 . S
H1386 C1382 0.950 . S
C1387 C1385 1.390 . S
C1387 C1388 1.387 . S
C1387 H1390 0.950 . S
C1388 C1387 1.387 . S
C1388 C1391 1.387 . S
H1389 C1385 0.950 . S
H1390 C1387 0.950 . S
C1391 C1382 1.390 . S
C1391 H1384 0.950 . S
C1391 C1388 1.387 . S
C1392 C1393 1.387 . S
C1392 H1396 0.950 . S
C1392 C1401 1.390 . S
C1393 C1392 1.387 . S
C1393 C1395 1.387 . S
H1394 C1401 0.950 . S
C1395 C1393 1.387 . S
C1395 C1397 1.390 . S
C1395 H1399 0.950 . S
H1396 C1392 0.950 . S
C1397 C1395 1.390 . S
C1397 C1398 1.387 . S
C1397 H1400 0.950 . S
C1398 C1397 1.387 . S
C1398 C1401 1.387 . S
H1399 C1395 0.950 . S
H1400 C1397 0.950 . S
C1401 C1392 1.390 . S
C1401 H1394 0.950 . S
C1401 C1398 1.387 . S
C1402 C1403 1.387 . S
C1402 H1406 0.950 . S
C1402 C1411 1.390 . S
C1403 C1402 1.387 . S
C1403 C1405 1.387 . S
H1404 C1411 0.950 . S
C1405 C1403 1.387 . S
C1405 C1407 1.390 . S
C1405 H1409 0.950 . S
H1406 C1402 0.950 . S
C1407 C1405 1.390 . S
C1407 C1408 1.387 . S
C1407 H1410 0.950 . S
C1408 C1407 1.387 . S
C1408 C1411 1.387 . S
H1409 C1405 0.950 . S
H1410 C1407 0.950 . S
C1411 C1402 1.390 . S
C1411 H1404 0.950 . S
C1411 C1408 1.387 . S
C1412 C1413 1.387 . S
C1412 H1416 0.950 . S
C1412 C1421 1.390 . S
C1413 C1412 1.387 . S
C1413 C1415 1.387 . S
H1414 C1421 0.950 . S
C1415 C1413 1.387 . S
C1415 C1417 1.390 . S
C1415 H1419 0.950 . S
H1416 C1412 0.950 . S
C1417 C1415 1.390 . S
C1417 C1418 1.387 . S
C1417 H1420 0.950 . S
C1418 C1417 1.387 . S
C1418 C1421 1.387 . S
H1419 C1415 0.950 . S
H1420 C1417 0.950 . S
C1421 C1412 1.390 . S
C1421 H1414 0.950 . S
C1421 C1418 1.387 . S
C1422 C1423 1.387 . S
C1422 H1426 0.950 . S
C1422 C1431 1.390 . S
C1423 C1422 1.387 . S
C1423 C1425 1.387 . S
H1424 C1431 0.950 . S
C1425 C1423 1.387 . S
C1425 C1427 1.390 . S
C1425 H1429 0.950 . S
H1426 C1422 0.950 . S
C1427 C1425 1.390 . S
C1427 C1428 1.387 . S
C1427 H1430 0.950 . S
C1428 C1427 1.387 . S
C1428 C1431 1.387 . S
H1429 C1425 0.950 . S
H1430 C1427 0.950 . S
C1431 C1422 1.390 . S
C1431 H1424 0.950 . S
C1431 C1428 1.387 . S
C1432 C1433 1.387 . S
C1432 H1436 0.950 . S
C1432 C1441 1.390 . S
C1433 C1432 1.387 . S
C1433 C1435 1.387 . S
H1434 C1441 0.950 . S
C1435 C1433 1.387 . S
C1435 C1437 1.390 . S
C1435 H1439 0.950 . S
H1436 C1432 0.950 . S
C1437 C1435 1.390 . S
C1437 C1438 1.387 . S
C1437 H1440 0.950 . S
C1438 C1437 1.387 . S
C1438 C1441 1.387 . S
H1439 C1435 0.950 . S
H1440 C1437 0.950 . S
C1441 C1432 1.390 . S
C1441 H1434 0.950 . S
C1441 C1438 1.387 . S
C1442 C1443 1.387 . S
C1442 H1446 0.950 . S
C1442 C1451 1.390 . S
C1443 C1442 1.387 . S
C1443 C1445 1.387 . S
H1444 C1451 0.950 . S
C1445 C1443 1.387 . S
C1445 C1447 1.390 . S
C1445 H1449 0.950 . S
H1446 C1442 0.950 . S
C1447 C1445 1.390 . S
C1447 C1448 1.387 . S
C1447 H1450 0.950 . S
C1448 C1447 1.387 . S
C1448 C1451 1.387 . S
H1449 C1445 0.950 . S
H1450 C1447 0.950 . S
C1451 C1442 1.390 . S
C1451 H1444 0.950 . S
C1451 C1448 1.387 . S
C1452 C1453 1.387 . S
C1452 H1456 0.950 . S
C1452 C1461 1.390 . S
C1453 C1452 1.387 . S
C1453 C1455 1.387 . S
H1454 C1461 0.950 . S
C1455 C1453 1.387 . S
C1455 C1457 1.390 . S
C1455 H1459 0.950 . S
H1456 C1452 0.950 . S
C1457 C1455 1.390 . S
C1457 C1458 1.387 . S
C1457 H1460 0.950 . S
C1458 C1457 1.387 . S
C1458 C1461 1.387 . S
H1459 C1455 0.950 . S
H1460 C1457 0.950 . S
C1461 C1452 1.390 . S
C1461 H1454 0.950 . S
C1461 C1458 1.387 . S
C1462 C1463 1.387 . S
C1462 H1466 0.950 . S
C1462 C1471 1.390 . S
C1463 C1462 1.387 . S
C1463 C1465 1.387 . S
H1464 C1471 0.950 . S
C1465 C1463 1.387 . S
C1465 C1467 1.390 . S
C1465 H1469 0.950 . S
H1466 C1462 0.950 . S
C1467 C1465 1.390 . S
C1467 C1468 1.387 . S
C1467 H1470 0.950 . S
C1468 C1467 1.387 . S
C1468 C1471 1.387 . S
H1469 C1465 0.950 . S
H1470 C1467 0.950 . S
C1471 C1462 1.390 . S
C1471 H1464 0.950 . S
C1471 C1468 1.387 . S
C1472 C1473 1.387 . S
C1472 H1476 0.950 . S
C1472 C1481 1.390 . S
C1473 C1472 1.387 . S
C1473 C1475 1.387 . S
H1474 C1481 0.950 . S
C1475 C1473 1.387 . S
C1475 C1477 1.390 . S
C1475 H1479 0.950 . S
H1476 C1472 0.950 . S
C1477 C1475 1.390 . S
C1477 C1478 1.387 . S
C1477 H1480 0.950 . S
C1478 C1477 1.387 . S
C1478 C1481 1.387 . S
H1479 C1475 0.950 . S
H1480 C1477 0.950 . S
C1481 C1472 1.390 . S
C1481 H1474 0.950 . S
C1481 C1478 1.387 . S
C1482 C1483 1.387 . S
C1482 H1486 0.950 . S
C1482 C1491 1.390 . S
C1483 C1482 1.387 . S
C1483 C1485 1.387 . S
H1484 C1491 0.950 . S
C1485 C1483 1.387 . S
C1485 C1487 1.390 . S
C1485 H1489 0.950 . S
H1486 C1482 0.950 . S
C1487 C1485 1.390 . S
C1487 C1488 1.387 . S
C1487 H1490 0.950 . S
C1488 C1487 1.387 . S
C1488 C1491 1.387 . S
H1489 C1485 0.950 . S
H1490 C1487 0.950 . S
C1491 C1482 1.390 . S
C1491 H1484 0.950 . S
C1491 C1488 1.387 . S
C1492 C1493 1.387 . S
C1492 H1496 0.950 . S
C1492 C1501 1.390 . S
C1493 C1492 1.387 . S
C1493 C1495 1.387 . S
H1494 C1501 0.950 . S
C1495 C1493 1.387 . S
C1495 C1497 1.390 . S
C1495 H1499 0.950 . S
H1496 C1492 0.950 . S
C1497 C1495 1.390 . S
C1497 C1498 1.387 . S
C1497 H1500 0.950 . S
C1498 C1497 1.387 . S
C1498 C1501 1.387 . S
H1499 C1495 0.950 . S
H1500 C1497 0.950 . S
C1501 C1492 1.390 . S
C1501 H1494 0.950 . S
C1501 C1498 1.387 . S
C1502 C1503 1.387 . S
C1502 H1506 0.950 . S
C1502 C1511 1.390 . S
C1503 C1502 1.387 . S
C1503 C1505 1.387 . S
H1504 C1511 0.950 . S
C1505 C1503 1.387 . S
C1505 C1507 1.390 . S
C1505 H1509 0.950 . S
H1506 C1502 0.950 . S
C1507 C1505 1.390 . S
C1507 C1508 1.387 . S
C1507 H1510 0.950 . S
C1508 C1507 1.387 . S
C1508 C1511 1.387 . S
H1509 C1505 0.950 . S
H1510 C1507 0.950 . S
C1511 C1502 1.390 . S
C1511 H1504 0.950 . S
C1511 C1508 1.387 . S
C1512 C1513 1.387 . S
C1512 H1516 0.950 . S
C1512 C1521 1.390 . S
C1513 C1512 1.387 . S
C1513 C1515 1.387 . S
H1514 C1521 0.950 . S
C1515 C1513 1.387 . S
C1515 C1517 1.390 . S
C1515 H1519 0.950 . S
H1516 C1512 0.950 . S
C1517 C1515 1.390 . S
C1517 C1518 1.387 . S
C1517 H1520 0.950 . S
C1518 C1517 1.387 . S
C1518 C1521 1.387 . S
H1519 C1515 0.950 . S
H1520 C1517 0.950 . S
C1521 C1512 1.390 . S
C1521 H1514 0.950 . S
C1521 C1518 1.387 . S
C1522 C1523 1.387 . S
C1522 H1526 0.950 . S
C1522 C1531 1.390 . S
C1523 C1522 1.387 . S
C1523 C1525 1.387 . S
H1524 C1531 0.950 . S
C1525 C1523 1.387 . S
C1525 C1527 1.390 . S
C1525 H1529 0.950 . S
H1526 C1522 0.950 . S
C1527 C1525 1.390 . S
C1527 C1528 1.387 . S
C1527 H1530 0.950 . S
C1528 C1527 1.387 . S
C1528 C1531 1.387 . S
H1529 C1525 0.950 . S
H1530 C1527 0.950 . S
C1531 C1522 1.390 . S
C1531 H1524 0.950 . S
C1531 C1528 1.387 . S
C1532 C1533 1.387 . S
C1532 H1536 0.950 . S
C1532 C1541 1.390 . S
C1533 C1532 1.387 . S
C1533 C1535 1.387 . S
H1534 C1541 0.950 . S
C1535 C1533 1.387 . S
C1535 C1537 1.390 . S
C1535 H1539 0.950 . S
H1536 C1532 0.950 . S
C1537 C1535 1.390 . S
C1537 C1538 1.387 . S
C1537 H1540 0.950 . S
C1538 C1537 1.387 . S
C1538 C1541 1.387 . S
H1539 C1535 0.950 . S
H1540 C1537 0.950 . S
C1541 C1532 1.390 . S
C1541 H1534 0.950 . S
C1541 C1538 1.387 . S
C1542 C1543 1.387 . S
C1542 H1546 0.950 . S
C1542 C1551 1.390 . S
C1543 C1542 1.387 . S
C1543 C1545 1.387 . S
H1544 C1551 0.950 . S
C1545 C1543 1.387 . S
C1545 C1547 1.390 . S
C1545 H1549 0.950 . S
H1546 C1542 0.950 . S
C1547 C1545 1.390 . S
C1547 C1548 1.387 . S
C1547 H1550 0.950 . S
C1548 C1547 1.387 . S
C1548 C1551 1.387 . S
H1549 C1545 0.950 . S
H1550 C1547 0.950 . S
C1551 C1542 1.390 . S
C1551 H1544 0.950 . S
C1551 C1548 1.387 . S
C1552 C1553 1.387 . S
C1552 H1556 0.950 . S
C1552 C1561 1.390 . S
C1553 C1552 1.387 . S
C1553 C1555 1.387 . S
H1554 C1561 0.950 . S
C1555 C1553 1.387 . S
C1555 C1557 1.390 . S
C1555 H1559 0.950 . S
H1556 C1552 0.950 . S
C1557 C1555 1.390 . S
C1557 C1558 1.387 . S
C1557 H1560 0.950 . S
C1558 C1557 1.387 . S
C1558 C1561 1.387 . S
H1559 C1555 0.950 . S
H1560 C1557 0.950 . S
C1561 C1552 1.390 . S
C1561 H1554 0.950 . S
C1561 C1558 1.387 . S
C1562 C1563 1.387 . S
C1562 H1566 0.950 . S
C1562 C1571 1.390 . S
C1563 C1562 1.387 . S
C1563 C1565 1.387 . S
H1564 C1571 0.950 . S
C1565 C1563 1.387 . S
C1565 C1567 1.390 . S
C1565 H1569 0.950 . S
H1566 C1562 0.950 . S
C1567 C1565 1.390 . S
C1567 C1568 1.387 . S
C1567 H1570 0.950 . S
C1568 C1567 1.387 . S
C1568 C1571 1.387 . S
H1569 C1565 0.950 . S
H1570 C1567 0.950 . S
C1571 C1562 1.390 . S
C1571 H1564 0.950 . S
C1571 C1568 1.387 . S
C1572 C1573 1.387 . S
C1572 H1576 0.950 . S
C1572 C1581 1.390 . S
C1573 C1572 1.387 . S
C1573 C1575 1.387 . S
H1574 C1581 0.950 . S
C1575 C1573 1.387 . S
C1575 C1577 1.390 . S
C1575 H1579 0.950 . S
H1576 C1572 0.950 . S
C1577 C1575 1.390 . S
C1577 C1578 1.387 . S
C1577 H1580 0.950 . S
C1578 C1577 1.387 . S
C1578 C1581 1.387 . S
H1579 C1575 0.950 . S
H1580 C1577 0.950 . S
C1581 C1572 1.390 . S
C1581 H1574 0.950 . S
C1581 C1578 1.387 . S
C1582 C1583 1.387 . S
C1582 H1586 0.950 . S
C1582 C1591 1.390 . S
C1583 C1582 1.387 . S
C1583 C1585 1.387 . S
H1584 C1591 0.950 . S
C1585 C1583 1.387 . S
C1585 C1587 1.390 . S
C1585 H1589 0.950 . S
H1586 C1582 0.950 . S
C1587 C1585 1.390 . S
C1587 C1588 1.387 . S
C1587 H1590 0.950 . S
C1588 C1587 1.387 . S
C1588 C1591 1.387 . S
H1589 C1585 0.950 . S
H1590 C1587 0.950 . S
C1591 C1582 1.390 . S
C1591 H1584 0.950 . S
C1591 C1588 1.387 . S
C1592 C1593 1.387 . S
C1592 H1596 0.950 . S
C1592 C1601 1.390 . S
C1593 C1592 1.387 . S
C1593 C1595 1.387 . S
H1594 C1601 0.950 . S
C1595 C1593 1.387 . S
C1595 C1597 1.390 . S
C1595 H1599 0.950 . S
H1596 C1592 0.950 . S
C1597 C1595 1.390 . S
C1597 C1598 1.387 . S
C1597 H1600 0.950 . S
C1598 C1597 1.387 . S
C1598 C1601 1.387 . S
H1599 C1595 0.950 . S
H1600 C1597 0.950 . S
C1601 C1592 1.390 . S
C1601 H1594 0.950 . S
C1601 C1598 1.387 . S
C1602 C1603 1.387 . S
C1602 H1606 0.950 . S
C1602 C1611 1.390 . S
C1603 C1602 1.387 . S
C1603 C1605 1.387 . S
H1604 C1611 0.950 . S
C1605 C1603 1.387 . S
C1605 C1607 1.390 . S
C1605 H1609 0.950 . S
H1606 C1602 0.950 . S
C1607 C1605 1.390 . S
C1607 C1608 1.387 . S
C1607 H1610 0.950 . S
C1608 C1607 1.387 . S
C1608 C1611 1.387 . S
H1609 C1605 0.950 . S
H1610 C1607 0.950 . S
C1611 C1602 1.390 . S
C1611 H1604 0.950 . S
C1611 C1608 1.387 . S
C1612 C1613 1.387 . S
C1612 H1616 0.950 . S
C1612 C1621 1.390 . S
C1613 C1612 1.387 . S
C1613 C1615 1.387 . S
H1614 C1621 0.950 . S
C1615 C1613 1.387 . S
C1615 C1617 1.390 . S
C1615 H1619 0.950 . S
H1616 C1612 0.950 . S
C1617 C1615 1.390 . S
C1617 C1618 1.387 . S
C1617 H1620 0.950 . S
C1618 C1617 1.387 . S
C1618 C1621 1.387 . S
H1619 C1615 0.950 . S
H1620 C1617 0.950 . S
C1621 C1612 1.390 . S
C1621 H1614 0.950 . S
C1621 C1618 1.387 . S
C1622 C1623 1.387 . S
C1622 H1626 0.950 . S
C1622 C1631 1.390 . S
C1623 C1622 1.387 . S
C1623 C1625 1.387 . S
H1624 C1631 0.950 . S
C1625 C1623 1.387 . S
C1625 C1627 1.390 . S
C1625 H1629 0.950 . S
H1626 C1622 0.950 . S
C1627 C1625 1.390 . S
C1627 C1628 1.387 . S
C1627 H1630 0.950 . S
C1628 C1627 1.387 . S
C1628 C1631 1.387 . S
H1629 C1625 0.950 . S
H1630 C1627 0.950 . S
C1631 C1622 1.390 . S
C1631 H1624 0.950 . S
C1631 C1628 1.387 . S
C1632 C1633 1.387 . S
C1632 H1636 0.950 . S
C1632 C1641 1.390 . S
C1633 C1632 1.387 . S
C1633 C1635 1.387 . S
H1634 C1641 0.950 . S
C1635 C1633 1.387 . S
C1635 C1637 1.390 . S
C1635 H1639 0.950 . S
H1636 C1632 0.950 . S
C1637 C1635 1.390 . S
C1637 C1638 1.387 . S
C1637 H1640 0.950 . S
C1638 C1637 1.387 . S
C1638 C1641 1.387 . S
H1639 C1635 0.950 . S
H1640 C1637 0.950 . S
C1641 C1632 1.390 . S
C1641 H1634 0.950 . S
C1641 C1638 1.387 . S
C1642 C1643 1.387 . S
C1642 H1646 0.950 . S
C1642 C1651 1.390 . S
C1643 C1642 1.387 . S
C1643 C1645 1.387 . S
H1644 C1651 0.950 . S
C1645 C1643 1.387 . S
C1645 C1647 1.390 . S
C1645 H1649 0.950 . S
H1646 C1642 0.950 . S
C1647 C1645 1.390 . S
C1647 C1648 1.387 . S
C1647 H1650 0.950 . S
C1648 C1647 1.387 . S
C1648 C1651 1.387 . S
H1649 C1645 0.950 . S
H1650 C1647 0.950 . S
C1651 C1642 1.390 . S
C1651 H1644 0.950 . S
C1651 C1648 1.387 . S
C1652 C1653 1.387 . S
C1652 H1656 0.950 . S
C1652 C1661 1.390 . S
C1653 C1652 1.387 . S
C1653 C1655 1.387 . S
H1654 C1661 0.950 . S
C1655 C1653 1.387 . S
C1655 C1657 1.390 . S
C1655 H1659 0.950 . S
H1656 C1652 0.950 . S
C1657 C1655 1.390 . S
C1657 C1658 1.387 . S
C1657 H1660 0.950 . S
C1658 C1657 1.387 . S
C1658 C1661 1.387 . S
H1659 C1655 0.950 . S
H1660 C1657 0.950 . S
C1661 C1652 1.390 . S
C1661 H1654 0.950 . S
C1661 C1658 1.387 . S
C1662 C1663 1.387 . S
C1662 H1666 0.950 . S
C1662 C1671 1.390 . S
C1663 C1662 1.387 . S
C1663 C1665 1.387 . S
H1664 C1671 0.950 . S
C1665 C1663 1.387 . S
C1665 C1667 1.390 . S
C1665 H1669 0.950 . S
H1666 C1662 0.950 . S
C1667 C1665 1.390 . S
C1667 C1668 1.387 . S
C1667 H1670 0.950 . S
C1668 C1667 1.387 . S
C1668 C1671 1.387 . S
H1669 C1665 0.950 . S
H1670 C1667 0.950 . S
C1671 C1662 1.390 . S
C1671 H1664 0.950 . S
C1671 C1668 1.387 . S
C1672 C1673 1.387 . S
C1672 H1676 0.950 . S
C1672 C1681 1.390 . S
C1673 C1672 1.387 . S
C1673 C1675 1.387 . S
H1674 C1681 0.950 . S
C1675 C1673 1.387 . S
C1675 C1677 1.390 . S
C1675 H1679 0.950 . S
H1676 C1672 0.950 . S
C1677 C1675 1.390 . S
C1677 C1678 1.387 . S
C1677 H1680 0.950 . S
C1678 C1677 1.387 . S
C1678 C1681 1.387 . S
H1679 C1675 0.950 . S
H1680 C1677 0.950 . S
C1681 C1672 1.390 . S
C1681 H1674 0.950 . S
C1681 C1678 1.387 . S
C1682 C1683 1.387 . S
C1682 H1686 0.950 . S
C1682 C1691 1.390 . S
C1683 C1682 1.387 . S
C1683 C1685 1.387 . S
H1684 C1691 0.950 . S
C1685 C1683 1.387 . S
C1685 C1687 1.390 . S
C1685 H1689 0.950 . S
H1686 C1682 0.950 . S
C1687 C1685 1.390 . S
C1687 C1688 1.387 . S
C1687 H1690 0.950 . S
C1688 C1687 1.387 . S
C1688 C1691 1.387 . S
H1689 C1685 0.950 . S
H1690 C1687 0.950 . S
C1691 C1682 1.390 . S
C1691 H1684 0.950 . S
C1691 C1688 1.387 . S
C1692 C1693 1.387 . S
C1692 H1696 0.950 . S
C1692 C1701 1.390 . S
C1693 C1692 1.387 . S
C1693 C1695 1.387 . S
H1694 C1701 0.950 . S
C1695 C1693 1.387 . S
C1695 C1697 1.390 . S
C1695 H1699 0.950 . S
H1696 C1692 0.950 . S
C1697 C1695 1.390 . S
C1697 C1698 1.387 . S
C1697 H1700 0.950 . S
C1698 C1697 1.387 . S
C1698 C1701 1.387 . S
H1699 C1695 0.950 . S
H1700 C1697 0.950 . S
C1701 C1692 1.390 . S
C1701 H1694 0.950 . S
C1701 C1698 1.387 . S
C1702 C1703 1.387 . S
C1702 H1706 0.950 . S
C1702 C1711 1.390 . S
C1703 C1702 1.387 . S
C1703 C1705 1.387 . S
H1704 C1711 0.950 . S
C1705 C1703 1.387 . S
C1705 C1707 1.390 . S
C1705 H1709 0.950 . S
H1706 C1702 0.950 . S
C1707 C1705 1.390 . S
C1707 C1708 1.387 . S
C1707 H1710 0.950 . S
C1708 C1707 1.387 . S
C1708 C1711 1.387 . S
H1709 C1705 0.950 . S
H1710 C1707 0.950 . S
C1711 C1702 1.390 . S
C1711 H1704 0.950 . S
C1711 C1708 1.387 . S
C1712 C1713 1.387 . S
C1712 H1716 0.950 . S
C1712 C1721 1.390 . S
C1713 C1712 1.387 . S
C1713 C1715 1.387 . S
H1714 C1721 0.950 . S
C1715 C1713 1.387 . S
C1715 C1717 1.390 . S
C1715 H1719 0.950 . S
H1716 C1712 0.950 . S
C1717 C1715 1.390 . S
C1717 C1718 1.387 . S
C1717 H1720 0.950 . S
C1718 C1717 1.387 . S
C1718 C1721 1.387 . S
H1719 C1715 0.950 . S
H1720 C1717 0.950 . S
C1721 C1712 1.390 . S
C1721 H1714 0.950 . S
C1721 C1718 1.387 . S
C1722 C1723 1.387 . S
C1722 H1726 0.950 . S
C1722 C1731 1.390 . S
C1723 C1722 1.387 . S
C1723 C1725 1.387 . S
H1724 C1731 0.950 . S
C1725 C1723 1.387 . S
C1725 C1727 1.390 . S
C1725 H1729 0.950 . S
H1726 C1722 0.950 . S
C1727 C1725 1.390 . S
C1727 C1728 1.387 . S
C1727 H1730 0.950 . S
C1728 C1727 1.387 . S
C1728 C1731 1.387 . S
H1729 C1725 0.950 . S
H1730 C1727 0.950 . S
C1731 C1722 1.390 . S
C1731 H1724 0.950 . S
C1731 C1728 1.387 . S
C1732 C1733 1.387 . S
C1732 H1736 0.950 . S
C1732 C1741 1.390 . S
C1733 C1732 1.387 . S
C1733 C1735 1.387 . S
H1734 C1741 0.950 . S
C1735 C1733 1.387 . S
C1735 C1737 1.390 . S
C1735 H1739 0.950 . S
H1736 C1732 0.950 . S
C1737 C1735 1.390 . S
C1737 C1738 1.387 . S
C1737 H1740 0.950 . S
C1738 C1737 1.387 . S
C1738 C1741 1.387 . S
H1739 C1735 0.950 . S
H1740 C1737 0.950 . S
C1741 C1732 1.390 . S
C1741 H1734 0.950 . S
C1741 C1738 1.387 . S
C1742 C1743 1.387 . S
C1742 H1746 0.950 . S
C1742 C1751 1.390 . S
C1743 C1742 1.387 . S
C1743 C1745 1.387 . S
H1744 C1751 0.950 . S
C1745 C1743 1.387 . S
C1745 C1747 1.390 . S
C1745 H1749 0.950 . S
H1746 C1742 0.950 . S
C1747 C1745 1.390 . S
C1747 C1748 1.387 . S
C1747 H1750 0.950 . S
C1748 C1747 1.387 . S
C1748 C1751 1.387 . S
H1749 C1745 0.950 . S
H1750 C1747 0.950 . S
C1751 C1742 1.390 . S
C1751 H1744 0.950 . S
C1751 C1748 1.387 . S
C1752 C1753 1.387 . S
C1752 H1756 0.950 . S
C1752 C1761 1.390 . S
C1753 C1752 1.387 . S
C1753 C1755 1.387 . S
H1754 C1761 0.950 . S
C1755 C1753 1.387 . S
C1755 C1757 1.390 . S
C1755 H1759 0.950 . S
H1756 C1752 0.950 . S
C1757 C1755 1.390 . S
C1757 C1758 1.387 . S
C1757 H1760 0.950 . S
C1758 C1757 1.387 . S
C1758 C1761 1.387 . S
H1759 C1755 0.950 . S
H1760 C1757 0.950 . S
C1761 C1752 1.390 . S
C1761 H1754 0.950 . S
C1761 C1758 1.387 . S
C1762 C1763 1.387 . S
C1762 H1766 0.950 . S
C1762 C1771 1.390 . S
C1763 C1762 1.387 . S
C1763 C1765 1.387 . S
H1764 C1771 0.950 . S
C1765 C1763 1.387 . S
C1765 C1767 1.390 . S
C1765 H1769 0.950 . S
H1766 C1762 0.950 . S
C1767 C1765 1.390 . S
C1767 C1768 1.387 . S
C1767 H1770 0.950 . S
C1768 C1767 1.387 . S
C1768 C1771 1.387 . S
H1769 C1765 0.950 . S
H1770 C1767 0.950 . S
C1771 C1762 1.390 . S
C1771 H1764 0.950 . S
C1771 C1768 1.387 . S
C1772 C1773 1.387 . S
C1772 H1776 0.950 . S
C1772 C1781 1.390 . S
C1773 C1772 1.387 . S
C1773 C1775 1.387 . S
H1774 C1781 0.950 . S
C1775 C1773 1.387 . S
C1775 C1777 1.390 . S
C1775 H1779 0.950 . S
H1776 C1772 0.950 . S
C1777 C1775 1.390 . S
C1777 C1778 1.387 . S
C1777 H1780 0.950 . S
C1778 C1777 1.387 . S
C1778 C1781 1.387 . S
H1779 C1775 0.950 . S
H1780 C1777 0.950 . S
C1781 C1772 1.390 . S
C1781 H1774 0.950 . S
C1781 C1778 1.387 . S
C1782 C1783 1.387 . S
C1782 H1786 0.950 . S
C1782 C1791 1.390 . S
C1783 C1782 1.387 . S
C1783 C1785 1.387 . S
H1784 C1791 0.950 . S
C1785 C1783 1.387 . S
C1785 C1787 1.390 . S
C1785 H1789 0.950 . S
H1786 C1782 0.950 . S
C1787 C1785 1.390 . S
C1787 C1788 1.387 . S
C1787 H1790 0.950 . S
C1788 C1787 1.387 . S
C1788 C1791 1.387 . S
H1789 C1785 0.950 . S
H1790 C1787 0.950 . S
C1791 C1782 1.390 . S
C1791 H1784 0.950 . S
C1791 C1788 1.387 . S
C1792 C1793 1.387 . S
C1792 H1796 0.950 . S
C1792 C1801 1.390 . S
C1793 C1792 1.387 . S
C1793 C1795 1.387 . S
H1794 C1801 0.950 . S
C1795 C1793 1.387 . S
C1795 C1797 1.390 . S
C1795 H1799 0.950 . S
H1796 C1792 0.950 . S
C1797 C1795 1.390 . S
C1797 C1798 1.387 . S
C1797 H1800 0.950 . S
C1798 C1797 1.387 . S
C1798 C1801 1.387 . S
H1799 C1795 0.950 . S
H1800 C1797 0.950 . S
C1801 C1792 1.390 . S
C1801 H1794 0.950 . S
C1801 C1798 1.387 . S
C1802 C1803 1.387 . S
C1802 H1806 0.950 . S
C1802 C1811 1.390 . S
C1803 C1802 1.387 . S
C1803 C1805 1.387 . S
H1804 C1811 0.950 . S
C1805 C1803 1.387 . S
C1805 C1807 1.390 . S
C1805 H1809 0.950 . S
H1806 C1802 0.950 . S
C1807 C1805 1.390 . S
C1807 C1808 1.387 . S
C1807 H1810 0.950 . S
C1808 C1807 1.387 . S
C1808 C1811 1.387 . S
H1809 C1805 0.950 . S
H1810 C1807 0.950 . S
C1811 C1802 1.390 . S
C1811 H1804 0.950 . S
C1811 C1808 1.387 . S
C1812 C1813 1.387 . S
C1812 H1816 0.950 . S
C1812 C1821 1.390 . S
C1813 C1812 1.387 . S
C1813 C1815 1.387 . S
H1814 C1821 0.950 . S
C1815 C1813 1.387 . S
C1815 C1817 1.390 . S
C1815 H1819 0.950 . S
H1816 C1812 0.950 . S
C1817 C1815 1.390 . S
C1817 C1818 1.387 . S
C1817 H1820 0.950 . S
C1818 C1817 1.387 . S
C1818 C1821 1.387 . S
H1819 C1815 0.950 . S
H1820 C1817 0.950 . S
C1821 C1812 1.390 . S
C1821 H1814 0.950 . S
C1821 C1818 1.387 . S
C1822 C1823 1.387 . S
C1822 H1826 0.950 . S
C1822 C1831 1.390 . S
C1823 C1822 1.387 . S
C1823 C1825 1.387 . S
H1824 C1831 0.950 . S
C1825 C1823 1.387 . S
C1825 C1827 1.390 . S
C1825 H1829 0.950 . S
H1826 C1822 0.950 . S
C1827 C1825 1.390 . S
C1827 C1828 1.387 . S
C1827 H1830 0.950 . S
C1828 C1827 1.387 . S
C1828 C1831 1.387 . S
H1829 C1825 0.950 . S
H1830 C1827 0.950 . S
C1831 C1822 1.390 . S
C1831 H1824 0.950 . S
C1831 C1828 1.387 . S
C1832 C1833 1.387 . S
C1832 H1836 0.950 . S
C1832 C1841 1.390 . S
C1833 C1832 1.387 . S
C1833 C1835 1.387 . S
H1834 C1841 0.950 . S
C1835 C1833 1.387 . S
C1835 C1837 1.390 . S
C1835 H1839 0.950 . S
H1836 C1832 0.950 . S
C1837 C1835 1.390 . S
C1837 C1838 1.387 . S
C1837 H1840 0.950 . S
C1838 C1837 1.387 . S
C1838 C1841 1.387 . S
H1839 C1835 0.950 . S
H1840 C1837 0.950 . S
C1841 C1832 1.390 . S
C1841 H1834 0.950 . S
C1841 C1838 1.387 . S
C1842 C1843 1.387 . S
C1842 H1846 0.950 . S
C1842 C1851 1.390 . S
C1843 C1842 1.387 . S
C1843 C1845 1.387 . S
H1844 C1851 0.950 . S
C1845 C1843 1.387 . S
C1845 C1847 1.390 . S
C1845 H1849 0.950 . S
H1846 C1842 0.950 . S
C1847 C1845 1.390 . S
C1847 C1848 1.387 . S
C1847 H1850 0.950 . S
C1848 C1847 1.387 . S
C1848 C1851 1.387 . S
H1849 C1845 0.950 . S
H1850 C1847 0.950 . S
C1851 C1842 1.390 . S
C1851 H1844 0.950 . S
C1851 C1848 1.387 . S
C1852 C1853 1.387 . S
C1852 H1856 0.950 . S
C1852 C1861 1.390 . S
C1853 C1852 1.387 . S
C1853 C1855 1.387 . S
H1854 C1861 0.950 . S
C1855 C1853 1.387 . S
C1855 C1857 1.390 . S
C1855 H1859 0.950 . S
H1856 C1852 0.950 . S
C1857 C1855 1.390 . S
C1857 C1858 1.387 . S
C1857 H1860 0.950 . S
C1858 C1857 1.387 . S
C1858 C1861 1.387 . S
H1859 C1855 0.950 . S
H1860 C1857 0.950 . S
C1861 C1852 1.390 . S
C1861 H1854 0.950 . S
C1861 C1858 1.387 . S
C1862 C1863 1.387 . S
C1862 H1866 0.950 . S
C1862 C1871 1.390 . S
C1863 C1862 1.387 . S
C1863 C1865 1.387 . S
H1864 C1871 0.950 . S
C1865 C1863 1.387 . S
C1865 C1867 1.390 . S
C1865 H1869 0.950 . S
H1866 C1862 0.950 . S
C1867 C1865 1.390 . S
C1867 C1868 1.387 . S
C1867 H1870 0.950 . S
C1868 C1867 1.387 . S
C1868 C1871 1.387 . S
H1869 C1865 0.950 . S
H1870 C1867 0.950 . S
C1871 C1862 1.390 . S
C1871 H1864 0.950 . S
C1871 C1868 1.387 . S
C1872 C1873 1.387 . S
C1872 H1876 0.950 . S
C1872 C1881 1.390 . S
C1873 C1872 1.387 . S
C1873 C1875 1.387 . S
H1874 C1881 0.950 . S
C1875 C1873 1.387 . S
C1875 C1877 1.390 . S
C1875 H1879 0.950 . S
H1876 C1872 0.950 . S
C1877 C1875 1.390 . S
C1877 C1878 1.387 . S
C1877 H1880 0.950 . S
C1878 C1877 1.387 . S
C1878 C1881 1.387 . S
H1879 C1875 0.950 . S
H1880 C1877 0.950 . S
C1881 C1872 1.390 . S
C1881 H1874 0.950 . S
C1881 C1878 1.387 . S
C1882 C1883 1.387 . S
C1882 H1886 0.950 . S
C1882 C1891 1.390 . S
C1883 C1882 1.387 . S
C1883 C1885 1.387 . S
H1884 C1891 0.950 . S
C1885 C1883 1.387 . S
C1885 C1887 1.390 . S
C1885 H1889 0.950 . S
H1886 C1882 0.950 . S
C1887 C1885 1.390 . S
C1887 C1888 1.387 . S
C1887 H1890 0.950 . S
C1888 C1887 1.387 . S
C1888 C1891 1.387 . S
H1889 C1885 0.950 . S
H1890 C1887 0.950 . S
C1891 C1882 1.390 . S
C1891 H1884 0.950 . S
C1891 C1888 1.387 . S
C1892 C1893 1.387 . S
C1892 H1896 0.950 . S
C1892 C1901 1.390 . S
C1893 C1892 1.387 . S
C1893 C1895 1.387 . S
H1894 C1901 0.950 . S
C1895 C1893 1.387 . S
C1895 C1897 1.390 . S
C1895 H1899 0.950 . S
H1896 C1892 0.950 . S
C1897 C1895 1.390 . S
C1897 C1898 1.387 . S
C1897 H1900 0.950 . S
C1898 C1897 1.387 . S
C1898 C1901 1.387 . S
H1899 C1895 0.950 . S
H1900 C1897 0.950 . S
C1901 C1892 1.390 . S
C1901 H1894 0.950 . S
C1901 C1898 1.387 . S
C1902 C1903 1.387 . S
C1902 H1906 0.950 . S
C1902 C1911 1.390 . S
C1903 C1902 1.387 . S
C1903 C1905 1.387 . S
H1904 C1911 0.950 . S
C1905 C1903 1.387 . S
C1905 C1907 1.390 . S
C1905 H1909 0.950 . S
H1906 C1902 0.950 . S
C1907 C1905 1.390 . S
C1907 C1908 1.387 . S
C1907 H1910 0.950 . S
C1908 C1907 1.387 . S
C1908 C1911 1.387 . S
H1909 C1905 0.950 . S
H1910 C1907 0.950 . S
C1911 C1902 1.390 . S
C1911 H1904 0.950 . S
C1911 C1908 1.387 . S
C1912 C1913 1.387 . S
C1912 H1916 0.950 . S
C1912 C1921 1.390 . S
C1913 C1912 1.387 . S
C1913 C1915 1.387 . S
H1914 C1921 0.950 . S
C1915 C1913 1.387 . S
C1915 C1917 1.390 . S
C1915 H1919 0.950 . S
H1916 C1912 0.950 . S
C1917 C1915 1.390 . S
C1917 C1918 1.387 . S
C1917 H1920 0.950 . S
C1918 C1917 1.387 . S
C1918 C1921 1.387 . S
H1919 C1915 0.950 . S
H1920 C1917 0.950 . S
C1921 C1912 1.390 . S
C1921 H1914 0.950 . S
C1921 C1918 1.387 . S
C1922 C1923 1.387 . S
C1922 H1926 0.950 . S
C1922 C1931 1.390 . S
C1923 C1922 1.387 . S
C1923 C1925 1.387 . S
H1924 C1931 0.950 . S
C1925 C1923 1.387 . S
C1925 C1927 1.390 . S
C1925 H1929 0.950 . S
H1926 C1922 0.950 . S
C1927 C1925 1.390 . S
C1927 C1928 1.387 . S
C1927 H1930 0.950 . S
C1928 C1927 1.387 . S
C1928 C1931 1.387 . S
H1929 C1925 0.950 . S
H1930 C1927 0.950 . S
C1931 C1922 1.390 . S
C1931 H1924 0.950 . S
C1931 C1928 1.387 . S
C1932 C1933 1.387 . S
C1932 H1936 0.950 . S
C1932 C1941 1.390 . S
C1933 C1932 1.387 . S
C1933 C1935 1.387 . S
H1934 C1941 0.950 . S
C1935 C1933 1.387 . S
C1935 C1937 1.390 . S
C1935 H1939 0.950 . S
H1936 C1932 0.950 . S
C1937 C1935 1.390 . S
C1937 C1938 1.387 . S
C1937 H1940 0.950 . S
C1938 C1937 1.387 . S
C1938 C1941 1.387 . S
H1939 C1935 0.950 . S
H1940 C1937 0.950 . S
C1941 C1932 1.390 . S
C1941 H1934 0.950 . S
C1941 C1938 1.387 . S
C1942 C1943 1.387 . S
C1942 H1946 0.950 . S
C1942 C1951 1.390 . S
C1943 C1942 1.387 . S
C1943 C1945 1.387 . S
H1944 C1951 0.950 . S
C1945 C1943 1.387 . S
C1945 C1947 1.390 . S
C1945 H1949 0.950 . S
H1946 C1942 0.950 . S
C1947 C1945 1.390 . S
C1947 C1948 1.387 . S
C1947 H1950 0.950 . S
C1948 C1947 1.387 . S
C1948 C1951 1.387 . S
H1949 C1945 0.950 . S
H1950 C1947 0.950 . S
C1951 C1942 1.390 . S
C1951 H1944 0.950 . S
C1951 C1948 1.387 . S
C1952 C1953 1.387 . S
C1952 H1956 0.950 . S
C1952 C1961 1.390 . S
C1953 C1952 1.387 . S
C1953 C1955 1.387 . S
H1954 C1961 0.950 . S
C1955 C1953 1.387 . S
C1955 C1957 1.390 . S
C1955 H1959 0.950 . S
H1956 C1952 0.950 . S
C1957 C1955 1.390 . S
C1957 C1958 1.387 . S
C1957 H1960 0.950 . S
C1958 C1957 1.387 . S
C1958 C1961 1.387 . S
H1959 C1955 0.950 . S
H1960 C1957 0.950 . S
C1961 C1952 1.390 . S
C1961 H1954 0.950 . S
C1961 C1958 1.387 . S
C1962 C1963 1.387 . S
C1962 H1966 0.950 . S
C1962 C1971 1.390 . S
C1963 C1962 1.387 . S
C1963 C1965 1.387 . S
H1964 C1971 0.950 . S
C1965 C1963 1.387 . S
C1965 C1967 1.390 . S
C1965 H1969 0.950 . S
H1966 C1962 0.950 . S
C1967 C1965 1.390 . S
C1967 C1968 1.387 . S
C1967 H1970 0.950 . S
C1968 C1967 1.387 . S
C1968 C1971 1.387 . S
H1969 C1965 0.950 . S
H1970 C1967 0.950 . S
C1971 C1962 1.390 . S
C1971 H1964 0.950 . S
C1971 C1968 1.387 . S
C1972 C1973 1.387 . S
C1972 H1976 0.950 . S
C1972 C1981 1.390 . S
C1973 C1972 1.387 . S
C1973 C1975 1.387 . S
H1974 C1981 0.950 . S
C1975 C1973 1.387 . S
C1975 C1977 1.390 . S
C1975 H1979 0.950 . S
H1976 C1972 0.950 . S
C1977 C1975 1.390 . S
C1977 C1978 1.387 . S
C1977 H1980 0.950 . S
C1978 C1977 1.387 . S
C1978 C1981 1.387 . S
H1979 C1975 0.950 . S
H1980 C1977 0.950 . S
C1981 C1972 1.390 . S
C1981 H1974 0.950 . S
C1981 C1978 1.387 . S
C1982 C1983 1.387 . S
C1982 H1986 0.950 . S
C1982 C1991 1.390 . S
C1983 C1982 1.387 . S
C1983 C1985 1.387 . S
H1984 C1991 0.950 . S
C1985 C1983 1.387 . S
C1985 C1987 1.390 . S
C1985 H1989 0.950 . S
H1986 C1982 0.950 . S
C1987 C1985 1.390 . S
C1987 C1988 1.387 . S
C1987 H1990 0.950 . S
C1988 C1987 1.387 . S
C1988 C1991 1.387 . S
H1989 C1985 0.950 . S
H1990 C1987 0.950 . S
C1991 C1982 1.390 . S
C1991 H1984 0.950 . S
C1991 C1988 1.387 . S
C1992 C1993 1.387 . S
C1992 H1996 0.950 . S
C1992 C2001 1.390 . S
C1993 C1992 1.387 . S
C1993 C1995 1.387 . S
H1994 C2001 0.950 . S
C1995 C1993 1.387 . S
C1995 C1997 1.390 . S
C1995 H1999 0.950 . S
H1996 C1992 0.950 . S
C1997 C1995 1.390 . S
C1997 C1998 1.387 . S
C1997 H2000 0.950 . S
C1998 C1997 1.387 . S
C1998 C2001 1.387 . S
H1999 C1995 0.950 . S
H2000 C1997 0.950 . S
C2001 C1992 1.390 . S
C2001 H1994 0.950 . S
C2001 C1998 1.387 . S
C2002 C2003 1.387 . S
C2002 H2006 0.950 . S
C2002 C2011 1.390 . S
C2003 C2002 1.387 . S
C2003 C2005 1.387 . S
H2004 C2011 0.950 . S
C2005 C2003 1.387 . S
C2005 C2007 1.390 . S
C2005 H2009 0.950 . S
H2006 C2002 0.950 . S
C2007 C2005 1.390 . S
C2007 C2008 1.387 . S
C2007 H2010 0.950 . S
C2008 C2007 1.387 . S
C2008 C2011 1.387 . S
H2009 C2005 0.950 . S
H2010 C2007 0.950 . S
C2011 C2002 1.390 . S
C2011 H2004 0.950 . S
C2011 C2008 1.387 . S
C2012 C2013 1.387 . S
C2012 H2016 0.950 . S
C2012 C2021 1.390 . S
C2013 C2012 1.387 . S
C2013 C2015 1.387 . S
H2014 C2021 0.950 . S
C2015 C2013 1.387 . S
C2015 C2017 1.390 . S
C2015 H2019 0.950 . S
H2016 C2012 0.950 . S
C2017 C2015 1.390 . S
C2017 C2018 1.387 . S
C2017 H2020 0.950 . S
C2018 C2017 1.387 . S
C2018 C2021 1.387 . S
H2019 C2015 0.950 . S
H2020 C2017 0.950 . S
C2021 C2012 1.390 . S
C2021 H2014 0.950 . S
C2021 C2018 1.387 . S
C2022 C2023 1.387 . S
C2022 H2026 0.950 . S
C2022 C2031 1.390 . S
C2023 C2022 1.387 . S
C2023 C2025 1.387 . S
H2024 C2031 0.950 . S
C2025 C2023 1.387 . S
C2025 C2027 1.390 . S
C2025 H2029 0.950 . S
H2026 C2022 0.950 . S
C2027 C2025 1.390 . S
C2027 C2028 1.387 . S
C2027 H2030 0.950 . S
C2028 C2027 1.387 . S
C2028 C2031 1.387 . S
H2029 C2025 0.950 . S
H2030 C2027 0.950 . S
C2031 C2022 1.390 . S
C2031 H2024 0.950 . S
C2031 C2028 1.387 . S
C2032 C2033 1.387 . S
C2032 H2036 0.950 . S
C2032 C2041 1.390 . S
C2033 C2032 1.387 . S
C2033 C2035 1.387 . S
H2034 C2041 0.950 . S
C2035 C2033 1.387 . S
C2035 C2037 1.390 . S
C2035 H2039 0.950 . S
H2036 C2032 0.950 . S
C2037 C2035 1.390 . S
C2037 C2038 1.387 . S
C2037 H2040 0.950 . S
C2038 C2037 1.387 . S
C2038 C2041 1.387 . S
H2039 C2035 0.950 . S
H2040 C2037 0.950 . S
C2041 C2032 1.390 . S
C2041 H2034 0.950 . S
C2041 C2038 1.387 . S
C2042 C2043 1.387 . S
C2042 H2046 0.950 . S
C2042 C2051 1.390 . S
C2043 C2042 1.387 . S
C2043 C2045 1.387 . S
H2044 C2051 0.950 . S
C2045 C2043 1.387 . S
C2045 C2047 1.390 . S
C2045 H2049 0.950 . S
H2046 C2042 0.950 . S
C2047 C2045 1.390 . S
C2047 C2048 1.387 . S
C2047 H2050 0.950 . S
C2048 C2047 1.387 . S
C2048 C2051 1.387 . S
H2049 C2045 0.950 . S
H2050 C2047 0.950 . S
C2051 C2042 1.390 . S
C2051 H2044 0.950 . S
C2051 C2048 1.387 . S
C2052 C2053 1.387 . S
C2052 H2056 0.950 . S
C2052 C2061 1.390 . S
C2053 C2052 1.387 . S
C2053 C2055 1.387 . S
H2054 C2061 0.950 . S
C2055 C2053 1.387 . S
C2055 C2057 1.390 . S
C2055 H2059 0.950 . S
H2056 C2052 0.950 . S
C2057 C2055 1.390 . S
C2057 C2058 1.387 . S
C2057 H2060 0.950 . S
C2058 C2057 1.387 . S
C2058 C2061 1.387 . S
H2059 C2055 0.950 . S
H2060 C2057 0.950 . S
C2061 C2052 1.390 . S
C2061 H2054 0.950 . S
C2061 C2058 1.387 . S
C2062 C2063 1.387 . S
C2062 H2066 0.950 . S
C2062 C2071 1.390 . S
C2063 C2062 1.387 . S
C2063 C2065 1.387 . S
H2064 C2071 0.950 . S
C2065 C2063 1.387 . S
C2065 C2067 1.390 . S
C2065 H2069 0.950 . S
H2066 C2062 0.950 . S
C2067 C2065 1.390 . S
C2067 C2068 1.387 . S
C2067 H2070 0.950 . S
C2068 C2067 1.387 . S
C2068 C2071 1.387 . S
H2069 C2065 0.950 . S
H2070 C2067 0.950 . S
C2071 C2062 1.390 . S
C2071 H2064 0.950 . S
C2071 C2068 1.387 . S
C2072 C2073 1.387 . S
C2072 H2076 0.950 . S
C2072 C2081 1.390 . S
C2073 C2072 1.387 . S
C2073 C2075 1.387 . S
H2074 C2081 0.950 . S
C2075 C2073 1.387 . S
C2075 C2077 1.390 . S
C2075 H2079 0.950 . S
H2076 C2072 0.950 . S
C2077 C2075 1.390 . S
C2077 C2078 1.387 . S
C2077 H2080 0.950 . S
C2078 C2077 1.387 . S
C2078 C2081 1.387 . S
H2079 C2075 0.950 . S
H2080 C2077 0.950 . S
C2081 C2072 1.390 . S
C2081 H2074 0.950 . S
C2081 C2078 1.387 . S
C2082 C2083 1.387 . S
C2082 H2086 0.950 . S
C2082 C2091 1.390 . S
C2083 C2082 1.387 . S
C2083 C2085 1.387 . S
H2084 C2091 0.950 . S
C2085 C2083 1.387 . S
C2085 C2087 1.390 . S
C2085 H2089 0.950 . S
H2086 C2082 0.950 . S
C2087 C2085 1.390 . S
C2087 C2088 1.387 . S
C2087 H2090 0.950 . S
C2088 C2087 1.387 . S
C2088 C2091 1.387 . S
H2089 C2085 0.950 . S
H2090 C2087 0.950 . S
C2091 C2082 1.390 . S
C2091 H2084 0.950 . S
C2091 C2088 1.387 . S
C2092 C2093 1.387 . S
C2092 H2096 0.950 . S
C2092 C2101 1.390 . S
C2093 C2092 1.387 . S
C2093 C2095 1.387 . S
H2094 C2101 0.950 . S
C2095 C2093 1.387 . S
C2095 C2097 1.390 . S
C2095 H2099 0.950 . S
H2096 C2092 0.950 . S
C2097 C2095 1.390 . S
C2097 C2098 1.387 . S
C2097 H2100 0.950 . S
C2098 C2097 1.387 . S
C2098 C2101 1.387 . S
H2099 C2095 0.950 . S
H2100 C2097 0.950 . S
C2101 C2092 1.390 . S
C2101 H2094 0.950 . S
C2101 C2098 1.387 . S
C2102 C2103 1.387 . S
C2102 H2106 0.950 . S
C2102 C2111 1.390 . S
C2103 C2102 1.387 . S
C2103 C2105 1.387 . S
H2104 C2111 0.950 . S
C2105 C2103 1.387 . S
C2105 C2107 1.390 . S
C2105 H2109 0.950 . S
H2106 C2102 0.950 . S
C2107 C2105 1.390 . S
C2107 C2108 1.387 . S
C2107 H2110 0.950 . S
C2108 C2107 1.387 . S
C2108 C2111 1.387 . S
H2109 C2105 0.950 . S
H2110 C2107 0.950 . S
C2111 C2102 1.390 . S
C2111 H2104 0.950 . S
C2111 C2108 1.387 . S
C2112 C2113 1.387 . S
C2112 H2116 0.950 . S
C2112 C2121 1.390 . S
C2113 C2112 1.387 . S
C2113 C2115 1.387 . S
H2114 C2121 0.950 . S
C2115 C2113 1.387 . S
C2115 C2117 1.390 . S
C2115 H2119 0.950 . S
H2116 C2112 0.950 . S
C2117 C2115 1.390 . S
C2117 C2118 1.387 . S
C2117 H2120 0.950 . S
C2118 C2117 1.387 . S
C2118 C2121 1.387 . S
H2119 C2115 0.950 . S
H2120 C2117 0.950 . S
C2121 C2112 1.390 . S
C2121 H2114 0.950 . S
C2121 C2118 1.387 . S
C2122 C2123 1.387 . S
C2122 H2126 0.950 . S
C2122 C2131 1.390 . S
C2123 C2122 1.387 . S
C2123 C2125 1.387 . S
H2124 C2131 0.950 . S
C2125 C2123 1.387 . S
C2125 C2127 1.390 . S
C2125 H2129 0.950 . S
H2126 C2122 0.950 . S
C2127 C2125 1.390 . S
C2127 C2128 1.387 . S
C2127 H2130 0.950 . S
C2128 C2127 1.387 . S
C2128 C2131 1.387 . S
H2129 C2125 0.950 . S
H2130 C2127 0.950 . S
C2131 C2122 1.390 . S
C2131 H2124 0.950 . S
C2131 C2128 1.387 . S
C2132 C2133 1.387 . S
C2132 H2136 0.950 . S
C2132 C2141 1.390 . S
C2133 C2132 1.387 . S
C2133 C2135 1.387 . S
H2134 C2141 0.950 . S
C2135 C2133 1.387 . S
C2135 C2137 1.390 . S
C2135 H2139 0.950 . S
H2136 C2132 0.950 . S
C2137 C2135 1.390 . S
C2137 C2138 1.387 . S
C2137 H2140 0.950 . S
C2138 C2137 1.387 . S
C2138 C2141 1.387 . S
H2139 C2135 0.950 . S
H2140 C2137 0.950 . S
C2141 C2132 1.390 . S
C2141 H2134 0.950 . S
C2141 C2138 1.387 . S
C2142 C2143 1.387 . S
C2142 H2146 0.950 . S
C2142 C2151 1.390 . S
C2143 C2142 1.387 . S
C2143 C2145 1.387 . S
H2144 C2151 0.950 . S
C2145 C2143 1.387 . S
C2145 C2147 1.390 . S
C2145 H2149 0.950 . S
H2146 C2142 0.950 . S
C2147 C2145 1.390 . S
C2147 C2148 1.387 . S
C2147 H2150 0.950 . S
C2148 C2147 1.387 . S
C2148 C2151 1.387 . S
H2149 C2145 0.950 . S
H2150 C2147 0.950 . S
C2151 C2142 1.390 . S
C2151 H2144 0.950 . S
C2151 C2148 1.387 . S
C2152 C2153 1.394 . S
C2152 H2156 0.973 . S
C2152 C2161 1.361 1_554 S
C2153 C2152 1.394 . S
C2153 C2155 1.387 1_554 S
H2154 C2161 0.950 . S
C2155 C2153 1.387 1_556 S
C2155 C2157 1.390 . S
C2155 H2159 0.950 . S
H2156 C2152 0.973 . S
C2157 C2155 1.390 . S
C2157 C2158 1.387 . S
C2157 H2160 0.950 . S
C2158 C2157 1.387 . S
C2158 C2161 1.387 . S
H2159 C2155 0.950 . S
H2160 C2157 0.950 . S
C2161 C2152 1.361 1_556 S
C2161 H2154 0.950 . S
C2161 C2158 1.387 . S
C2162 C2163 1.387 . S
C2162 H2166 0.950 . S
C2162 C2171 1.390 . S
C2163 C2162 1.387 . S
C2163 C2165 1.387 . S
H2164 C2171 0.950 . S
C2165 C2163 1.387 . S
C2165 C2167 1.390 . S
C2165 H2169 0.950 . S
H2166 C2162 0.950 . S
C2167 C2165 1.390 . S
C2167 C2168 1.387 . S
C2167 H2170 0.950 . S
C2168 C2167 1.387 . S
C2168 C2171 1.387 . S
H2169 C2165 0.950 . S
H2170 C2167 0.950 . S
C2171 C2162 1.390 . S
C2171 H2164 0.950 . S
C2171 C2168 1.387 . S
C2172 C2173 1.387 . S
C2172 H2176 0.950 . S
C2172 C2181 1.390 . S
C2173 C2172 1.387 . S
C2173 C2175 1.387 . S
H2174 C2181 0.950 . S
C2175 C2173 1.387 . S
C2175 C2177 1.390 . S
C2175 H2179 0.950 . S
H2176 C2172 0.950 . S
C2177 C2175 1.390 . S
C2177 C2178 1.387 . S
C2177 H2180 0.950 . S
C2178 C2177 1.387 . S
C2178 C2181 1.387 . S
H2179 C2175 0.950 . S
H2180 C2177 0.950 . S
C2181 C2172 1.390 . S
C2181 H2174 0.950 . S
C2181 C2178 1.387 . S
C2182 C2183 1.387 . S
C2182 H2186 0.950 . S
C2182 C2191 1.390 . S
C2183 C2182 1.387 . S
C2183 C2185 1.387 . S
H2184 C2191 0.950 . S
C2185 C2183 1.387 . S
C2185 C2187 1.390 . S
C2185 H2189 0.950 . S
H2186 C2182 0.950 . S
C2187 C2185 1.390 . S
C2187 C2188 1.387 . S
C2187 H2190 0.950 . S
C2188 C2187 1.387 . S
C2188 C2191 1.387 . S
H2189 C2185 0.950 . S
H2190 C2187 0.950 . S
C2191 C2182 1.390 . S
C2191 H2184 0.950 . S
C2191 C2188 1.387 . S
C2192 C2193 1.387 . S
C2192 H2196 0.950 . S
C2192 C2201 1.390 . S
C2193 C2192 1.387 . S
C2193 C2195 1.387 . S
H2194 C2201 0.950 . S
C2195 C2193 1.387 . S
C2195 C2197 1.390 . S
C2195 H2199 0.950 . S
H2196 C2192 0.950 . S
C2197 C2195 1.390 . S
C2197 C2198 1.387 . S
C2197 H2200 0.950 . S
C2198 C2197 1.387 . S
C2198 C2201 1.387 . S
H2199 C2195 0.950 . S
H2200 C2197 0.950 . S
C2201 C2192 1.390 . S
C2201 H2194 0.950 . S
C2201 C2198 1.387 . S
C2202 C2203 1.387 . S
C2202 H2206 0.950 . S
C2202 C2211 1.390 . S
C2203 C2202 1.387 . S
C2203 C2205 1.387 . S
H2204 C2211 0.950 . S
C2205 C2203 1.387 . S
C2205 C2207 1.390 . S
C2205 H2209 0.950 . S
H2206 C2202 0.950 . S
C2207 C2205 1.390 . S
C2207 C2208 1.387 . S
C2207 H2210 0.950 . S
C2208 C2207 1.387 . S
C2208 C2211 1.387 . S
H2209 C2205 0.950 . S
H2210 C2207 0.950 . S
C2211 C2202 1.390 . S
C2211 H2204 0.950 . S
C2211 C2208 1.387 . S
C2212 C2213 1.387 . S
C2212 H2216 0.950 . S
C2212 C2221 1.390 . S
C2213 C2212 1.387 . S
C2213 C2215 1.387 . S
H2214 C2221 0.950 . S
C2215 C2213 1.387 . S
C2215 C2217 1.390 . S
C2215 H2219 0.950 . S
H2216 C2212 0.950 . S
C2217 C2215 1.390 . S
C2217 C2218 1.387 . S
C2217 H2220 0.950 . S
C2218 C2217 1.387 . S
C2218 C2221 1.387 . S
H2219 C2215 0.950 . S
H2220 C2217 0.950 . S
C2221 C2212 1.390 . S
C2221 H2214 0.950 . S
C2221 C2218 1.387 . S
C2222 C2223 1.387 . S
C2222 H2226 0.950 . S
C2222 C2231 1.390 . S
C2223 C2222 1.387 . S
C2223 C2225 1.387 . S
H2224 C2231 0.950 . S
C2225 C2223 1.387 . S
C2225 C2227 1.390 . S
C2225 H2229 0.950 . S
H2226 C2222 0.950 . S
C2227 C2225 1.390 . S
C2227 C2228 1.387 . S
C2227 H2230 0.950 . S
C2228 C2227 1.387 . S
C2228 C2231 1.387 . S
H2229 C2225 0.950 . S
H2230 C2227 0.950 . S
C2231 C2222 1.390 . S
C2231 H2224 0.950 . S
C2231 C2228 1.387 . S
C2232 C2233 1.387 . S
C2232 H2236 0.950 . S
C2232 C2241 1.390 . S
C2233 C2232 1.387 . S
C2233 C2235 1.387 . S
H2234 C2241 0.950 . S
C2235 C2233 1.387 . S
C2235 C2237 1.390 . S
C2235 H2239 0.950 . S
H2236 C2232 0.950 . S
C2237 C2235 1.390 . S
C2237 C2238 1.387 . S
C2237 H2240 0.950 . S
C2238 C2237 1.387 . S
C2238 C2241 1.387 . S
H2239 C2235 0.950 . S
H2240 C2237 0.950 . S
C2241 C2232 1.390 . S
C2241 H2234 0.950 . S
C2241 C2238 1.387 . S
C2242 C2243 1.387 . S
C2242 H2246 0.950 . S
C2242 C2251 1.390 . S
C2243 C2242 1.387 . S
C2243 C2245 1.387 . S
H2244 C2251 0.950 . S
C2245 C2243 1.387 . S
C2245 C2247 1.390 . S
C2245 H2249 0.950 . S
H2246 C2242 0.950 . S
C2247 C2245 1.390 . S
C2247 C2248 1.387 . S
C2247 H2250 0.950 . S
C2248 C2247 1.387 . S
C2248 C2251 1.387 . S
H2249 C2245 0.950 . S
H2250 C2247 0.950 . S
C2251 C2242 1.390 . S
C2251 H2244 0.950 . S
C2251 C2248 1.387 . S
C2252 C2253 1.387 . S
C2252 H2256 0.950 . S
C2252 C2261 1.390 1_455 S
C2253 C2252 1.387 . S
C2253 C2255 1.387 1_455 S
H2254 C2261 0.950 . S
C2255 C2253 1.387 1_655 S
C2255 C2257 1.390 . S
C2255 H2259 0.950 . S
H2256 C2252 0.950 . S
C2257 C2255 1.390 . S
C2257 C2258 1.387 . S
C2257 H2260 0.950 . S
C2258 C2257 1.387 . S
C2258 C2261 1.387 . S
H2259 C2255 0.950 . S
H2260 C2257 0.950 . S
C2261 C2252 1.390 1_655 S
C2261 H2254 0.950 . S
C2261 C2258 1.387 . S
C2262 C2263 1.387 . S
C2262 H2266 0.950 . S
C2262 C2271 1.390 . S
C2263 C2262 1.387 . S
C2263 C2265 1.387 . S
H2264 C2271 0.950 . S
C2265 C2263 1.387 . S
C2265 C2267 1.390 . S
C2265 H2269 0.950 . S
H2266 C2262 0.950 . S
C2267 C2265 1.390 . S
C2267 C2268 1.387 . S
C2267 H2270 0.950 . S
C2268 C2267 1.387 . S
C2268 C2271 1.387 . S
H2269 C2265 0.950 . S
H2270 C2267 0.950 . S
C2271 C2262 1.390 . S
C2271 H2264 0.950 . S
C2271 C2268 1.387 . S
C2272 C2273 1.387 . S
C2272 H2276 0.950 . S
C2272 C2281 1.390 . S
C2273 C2272 1.387 . S
C2273 C2275 1.387 . S
H2274 C2281 0.950 . S
C2275 C2273 1.387 . S
C2275 C2277 1.390 . S
C2275 H2279 0.950 . S
H2276 C2272 0.950 . S
C2277 C2275 1.390 . S
C2277 C2278 1.387 . S
C2277 H2280 0.950 . S
C2278 C2277 1.387 . S
C2278 C2281 1.387 . S
H2279 C2275 0.950 . S
H2280 C2277 0.950 . S
C2281 C2272 1.390 . S
C2281 H2274 0.950 . S
C2281 C2278 1.387 . S
C2282 C2283 1.387 . S
C2282 H2286 0.950 . S
C2282 C2291 1.390 . S
C2283 C2282 1.387 . S
C2283 C2285 1.387 . S
H2284 C2291 0.950 . S
C2285 C2283 1.387 . S
C2285 C2287 1.390 . S
C2285 H2289 0.950 . S
H2286 C2282 0.950 . S
C2287 C2285 1.390 . S
C2287 C2288 1.387 . S
C2287 H2290 0.950 . S
C2288 C2287 1.387 . S
C2288 C2291 1.387 . S
H2289 C2285 0.950 . S
H2290 C2287 0.950 . S
C2291 C2282 1.390 . S
C2291 H2284 0.950 . S
C2291 C2288 1.387 . S
C2292 C2293 1.387 . S
C2292 H2296 0.950 . S
C2292 C2301 1.390 . S
C2293 C2292 1.387 . S
C2293 C2295 1.387 . S
H2294 C2301 0.950 . S
C2295 C2293 1.387 . S
C2295 C2297 1.390 . S
C2295 H2299 0.950 . S
H2296 C2292 0.950 . S
C2297 C2295 1.390 . S
C2297 C2298 1.387 . S
C2297 H2300 0.950 . S
C2298 C2297 1.387 . S
C2298 C2301 1.387 . S
H2299 C2295 0.950 . S
H2300 C2297 0.950 . S
C2301 C2292 1.390 . S
C2301 H2294 0.950 . S
C2301 C2298 1.387 . S
C2302 C2303 1.387 . S
C2302 H2306 0.950 . S
C2302 C2311 1.390 . S
C2303 C2302 1.387 . S
C2303 C2305 1.387 . S
H2304 C2311 0.950 . S
C2305 C2303 1.387 . S
C2305 C2307 1.390 . S
C2305 H2309 0.950 . S
H2306 C2302 0.950 . S
C2307 C2305 1.390 . S
C2307 C2308 1.387 . S
C2307 H2310 0.950 . S
C2308 C2307 1.387 . S
C2308 C2311 1.387 . S
H2309 C2305 0.950 . S
H2310 C2307 0.950 . S
C2311 C2302 1.390 . S
C2311 H2304 0.950 . S
C2311 C2308 1.387 . S
C2312 C2313 1.387 . S
C2312 H2316 0.950 . S
C2312 C2321 1.390 . S
C2313 C2312 1.387 . S
C2313 C2315 1.387 . S
H2314 C2321 0.950 . S
C2315 C2313 1.387 . S
C2315 C2317 1.390 . S
C2315 H2319 0.950 . S
H2316 C2312 0.950 . S
C2317 C2315 1.390 . S
C2317 C2318 1.387 . S
C2317 H2320 0.950 . S
C2318 C2317 1.387 . S
C2318 C2321 1.387 . S
H2319 C2315 0.950 . S
H2320 C2317 0.950 . S
C2321 C2312 1.390 . S
C2321 H2314 0.950 . S
C2321 C2318 1.387 . S
C2322 C2323 1.387 . S
C2322 H2326 0.950 . S
C2322 C2331 1.390 . S
C2323 C2322 1.387 . S
C2323 C2325 1.387 . S
H2324 C2331 0.950 . S
C2325 C2323 1.387 . S
C2325 C2327 1.390 . S
C2325 H2329 0.950 . S
H2326 C2322 0.950 . S
C2327 C2325 1.390 . S
C2327 C2328 1.387 . S
C2327 H2330 0.950 . S
C2328 C2327 1.387 . S
C2328 C2331 1.387 . S
H2329 C2325 0.950 . S
H2330 C2327 0.950 . S
C2331 C2322 1.390 . S
C2331 H2324 0.950 . S
C2331 C2328 1.387 . S
C2332 C2333 1.387 . S
C2332 H2336 0.950 . S
C2332 C2341 1.390 . S
C2333 C2332 1.387 . S
C2333 C2335 1.387 . S
H2334 C2341 0.950 . S
C2335 C2333 1.387 . S
C2335 C2337 1.390 . S
C2335 H2339 0.950 . S
H2336 C2332 0.950 . S
C2337 C2335 1.390 . S
C2337 C2338 1.387 . S
C2337 H2340 0.950 . S
C2338 C2337 1.387 . S
C2338 C2341 1.387 . S
H2339 C2335 0.950 . S
H2340 C2337 0.950 . S
C2341 C2332 1.390 . S
C2341 H2334 0.950 . S
C2341 C2338 1.387 . S
C2342 C2343 1.387 . S
C2342 H2346 0.950 . S
C2342 C2351 1.390 . S
C2343 C2342 1.387 . S
C2343 C2345 1.387 . S
H2344 C2351 0.950 . S
C2345 C2343 1.387 . S
C2345 C2347 1.390 . S
C2345 H2349 0.950 . S
H2346 C2342 0.950 . S
C2347 C2345 1.390 . S
C2347 C2348 1.387 . S
C2347 H2350 0.950 . S
C2348 C2347 1.387 . S
C2348 C2351 1.387 . S
H2349 C2345 0.950 . S
H2350 C2347 0.950 . S
C2351 C2342 1.390 . S
C2351 H2344 0.950 . S
C2351 C2348 1.387 . S
C2352 C2353 1.387 . S
C2352 H2356 0.950 . S
C2352 C2361 1.390 . S
C2353 C2352 1.387 . S
C2353 C2355 1.387 . S
H2354 C2361 0.950 . S
C2355 C2353 1.387 . S
C2355 C2357 1.390 . S
C2355 H2359 0.950 . S
H2356 C2352 0.950 . S
C2357 C2355 1.390 . S
C2357 C2358 1.387 . S
C2357 H2360 0.950 . S
C2358 C2357 1.387 . S
C2358 C2361 1.387 . S
H2359 C2355 0.950 . S
H2360 C2357 0.950 . S
C2361 C2352 1.390 . S
C2361 H2354 0.950 . S
C2361 C2358 1.387 . S
C2362 C2363 1.387 . S
C2362 H2366 0.950 . S
C2362 C2371 1.390 . S
C2363 C2362 1.387 . S
C2363 C2365 1.387 . S
H2364 C2371 0.950 . S
C2365 C2363 1.387 . S
C2365 C2367 1.390 . S
C2365 H2369 0.950 . S
H2366 C2362 0.950 . S
C2367 C2365 1.390 . S
C2367 C2368 1.387 . S
C2367 H2370 0.950 . S
C2368 C2367 1.387 . S
C2368 C2371 1.387 . S
H2369 C2365 0.950 . S
H2370 C2367 0.950 . S
C2371 C2362 1.390 . S
C2371 H2364 0.950 . S
C2371 C2368 1.387 . S
C2372 C2373 1.387 . S
C2372 H2376 0.950 . S
C2372 C2381 1.390 1_554 S
C2373 C2372 1.387 . S
C2373 C2375 1.387 . S
H2374 C2381 0.950 . S
C2375 C2373 1.387 . S
C2375 C2377 1.390 1_554 S
C2375 H2379 0.950 . S
H2376 C2372 0.950 . S
C2377 C2375 1.390 1_556 S
C2377 C2378 1.387 . S
C2377 H2380 0.950 . S
C2378 C2377 1.387 . S
C2378 C2381 1.387 . S
H2379 C2375 0.950 . S
H2380 C2377 0.950 . S
C2381 C2372 1.390 1_556 S
C2381 H2374 0.950 . S
C2381 C2378 1.387 . S
C2382 C2383 1.387 . S
C2382 H2386 0.950 . S
C2382 C2391 1.390 . S
C2383 C2382 1.387 . S
C2383 C2385 1.387 . S
H2384 C2391 0.950 . S
C2385 C2383 1.387 . S
C2385 C2387 1.390 . S
C2385 H2389 0.950 . S
H2386 C2382 0.950 . S
C2387 C2385 1.390 . S
C2387 C2388 1.387 . S
C2387 H2390 0.950 . S
C2388 C2387 1.387 . S
C2388 C2391 1.387 . S
H2389 C2385 0.950 . S
H2390 C2387 0.950 . S
C2391 C2382 1.390 . S
C2391 H2384 0.950 . S
C2391 C2388 1.387 . S
C2392 C2393 1.387 . S
C2392 H2396 0.950 . S
C2392 C2401 1.390 1_556 S
C2393 C2392 1.387 . S
C2393 C2395 1.387 . S
H2394 C2401 0.950 . S
C2395 C2393 1.387 . S
C2395 C2397 1.390 . S
C2395 H2399 0.950 . S
H2396 C2392 0.950 . S
C2397 C2395 1.390 . S
C2397 C2398 1.387 1_556 S
C2397 H2400 0.949 1_556 S
C2398 C2397 1.387 1_554 S
C2398 C2401 1.387 . S
H2399 C2395 0.950 . S
H2400 C2397 0.949 1_554 S
C2401 C2392 1.390 1_554 S
C2401 H2394 0.950 . S
C2401 C2398 1.387 . S
C2402 C2403 1.387 . S
C2402 H2406 0.950 . S
C2402 C2411 1.390 . S
C2403 C2402 1.387 . S
C2403 C2405 1.387 . S
H2404 C2411 0.950 . S
C2405 C2403 1.387 . S
C2405 C2407 1.390 . S
C2405 H2409 0.950 . S
H2406 C2402 0.950 . S
C2407 C2405 1.390 . S
C2407 C2408 1.387 . S
C2407 H2410 0.950 . S
C2408 C2407 1.387 . S
C2408 C2411 1.387 . S
H2409 C2405 0.950 . S
H2410 C2407 0.950 . S
C2411 C2402 1.390 . S
C2411 H2404 0.950 . S
C2411 C2408 1.387 . S
C2412 C2413 1.387 . S
C2412 H2416 0.950 . S
C2412 C2421 1.390 . S
C2413 C2412 1.387 . S
C2413 C2415 1.387 . S
H2414 C2421 0.950 . S
C2415 C2413 1.387 . S
C2415 C2417 1.390 . S
C2415 H2419 0.950 . S
H2416 C2412 0.950 . S
C2417 C2415 1.390 . S
C2417 C2418 1.387 . S
C2417 H2420 0.950 . S
C2418 C2417 1.387 . S
C2418 C2421 1.387 . S
H2419 C2415 0.950 . S
H2420 C2417 0.950 . S
C2421 C2412 1.390 . S
C2421 H2414 0.950 . S
C2421 C2418 1.387 . S
C2422 C2423 1.387 . S
C2422 H2426 0.950 . S
C2422 C2431 1.390 . S
C2423 C2422 1.387 . S
C2423 C2425 1.387 . S
H2424 C2431 0.950 . S
C2425 C2423 1.387 . S
C2425 C2427 1.390 . S
C2425 H2429 0.950 . S
H2426 C2422 0.950 . S
C2427 C2425 1.390 . S
C2427 C2428 1.387 . S
C2427 H2430 0.950 . S
C2428 C2427 1.387 . S
C2428 C2431 1.387 . S
H2429 C2425 0.950 . S
H2430 C2427 0.950 . S
C2431 C2422 1.390 . S
C2431 H2424 0.950 . S
C2431 C2428 1.387 . S
C2432 C2433 1.387 . S
C2432 H2436 0.950 . S
C2432 C2441 1.390 . S
C2433 C2432 1.387 . S
C2433 C2435 1.387 . S
H2434 C2441 0.950 . S
C2435 C2433 1.387 . S
C2435 C2437 1.390 . S
C2435 H2439 0.950 . S
H2436 C2432 0.950 . S
C2437 C2435 1.390 . S
C2437 C2438 1.387 . S
C2437 H2440 0.950 . S
C2438 C2437 1.387 . S
C2438 C2441 1.387 . S
H2439 C2435 0.950 . S
H2440 C2437 0.950 . S
C2441 C2432 1.390 . S
C2441 H2434 0.950 . S
C2441 C2438 1.387 . S
C2442 C2443 1.387 . S
C2442 H2446 0.950 . S
C2442 C2451 1.390 . S
C2443 C2442 1.387 . S
C2443 C2445 1.387 . S
H2444 C2451 0.950 . S
C2445 C2443 1.387 . S
C2445 C2447 1.390 . S
C2445 H2449 0.950 . S
H2446 C2442 0.950 . S
C2447 C2445 1.390 . S
C2447 C2448 1.387 . S
C2447 H2450 0.950 . S
C2448 C2447 1.387 . S
C2448 C2451 1.387 . S
H2449 C2445 0.950 . S
H2450 C2447 0.950 . S
C2451 C2442 1.390 . S
C2451 H2444 0.950 . S
C2451 C2448 1.387 . S
C2452 C2453 1.387 . S
C2452 H2456 0.950 . S
C2452 C2461 1.390 . S
C2453 C2452 1.387 . S
C2453 C2455 1.387 . S
H2454 C2461 0.950 . S
C2455 C2453 1.387 . S
C2455 C2457 1.390 . S
C2455 H2459 0.950 . S
H2456 C2452 0.950 . S
C2457 C2455 1.390 . S
C2457 C2458 1.387 . S
C2457 H2460 0.950 . S
C2458 C2457 1.387 . S
C2458 C2461 1.387 . S
H2459 C2455 0.950 . S
H2460 C2457 0.950 . S
C2461 C2452 1.390 . S
C2461 H2454 0.950 . S
C2461 C2458 1.387 . S
C2462 C2463 1.387 . S
C2462 H2466 0.950 . S
C2462 C2471 1.390 . S
C2463 C2462 1.387 . S
C2463 C2465 1.387 . S
H2464 C2471 0.950 . S
C2465 C2463 1.387 . S
C2465 C2467 1.390 . S
C2465 H2469 0.950 . S
H2466 C2462 0.950 . S
C2467 C2465 1.390 . S
C2467 C2468 1.387 . S
C2467 H2470 0.950 . S
C2468 C2467 1.387 . S
C2468 C2471 1.387 . S
H2469 C2465 0.950 . S
H2470 C2467 0.950 . S
C2471 C2462 1.390 . S
C2471 H2464 0.950 . S
C2471 C2468 1.387 . S
C2472 C2473 1.387 . S
C2472 H2476 0.950 . S
C2472 C2481 1.390 . S
C2473 C2472 1.387 . S
C2473 C2475 1.387 . S
H2474 C2481 0.950 . S
C2475 C2473 1.387 . S
C2475 C2477 1.390 . S
C2475 H2479 0.950 . S
H2476 C2472 0.950 . S
C2477 C2475 1.390 . S
C2477 C2478 1.387 . S
C2477 H2480 0.950 . S
C2478 C2477 1.387 . S
C2478 C2481 1.387 . S
H2479 C2475 0.950 . S
H2480 C2477 0.950 . S
C2481 C2472 1.390 . S
C2481 H2474 0.950 . S
C2481 C2478 1.387 . S
C2482 C2483 1.387 . S
C2482 H2486 0.950 . S
C2482 C2491 1.390 . S
C2483 C2482 1.387 . S
C2483 C2485 1.387 . S
H2484 C2491 0.950 . S
C2485 C2483 1.387 . S
C2485 C2487 1.390 . S
C2485 H2489 0.950 . S
H2486 C2482 0.950 . S
C2487 C2485 1.390 . S
C2487 C2488 1.387 . S
C2487 H2490 0.950 . S
C2488 C2487 1.387 . S
C2488 C2491 1.387 . S
H2489 C2485 0.950 . S
H2490 C2487 0.950 . S
C2491 C2482 1.390 . S
C2491 H2484 0.950 . S
C2491 C2488 1.387 . S
C2492 C2493 1.387 . S
C2492 H2496 0.950 . S
C2492 C2501 1.390 1_655 S
C2493 C2492 1.387 . S
C2493 C2495 1.387 . S
H2494 C2501 0.950 . S
C2495 C2493 1.387 . S
C2495 C2497 1.390 1_655 S
C2495 H2499 0.950 . S
H2496 C2492 0.950 . S
C2497 C2495 1.390 1_455 S
C2497 C2498 1.387 . S
C2497 H2500 0.950 . S
C2498 C2497 1.387 . S
C2498 C2501 1.387 . S
H2499 C2495 0.950 . S
H2500 C2497 0.950 . S
C2501 C2492 1.390 1_455 S
C2501 H2494 0.950 . S
C2501 C2498 1.387 . S
C2502 C2503 1.387 . S
C2502 H2506 0.950 . S
C2502 C2511 1.390 . S
C2503 C2502 1.387 . S
C2503 C2505 1.387 . S
H2504 C2511 0.950 . S
C2505 C2503 1.387 . S
C2505 C2507 1.390 . S
C2505 H2509 0.950 . S
H2506 C2502 0.950 . S
C2507 C2505 1.390 . S
C2507 C2508 1.387 . S
C2507 H2510 0.950 . S
C2508 C2507 1.387 . S
C2508 C2511 1.387 . S
H2509 C2505 0.950 . S
H2510 C2507 0.950 . S
C2511 C2502 1.390 . S
C2511 H2504 0.950 . S
C2511 C2508 1.387 . S
C2512 C2513 1.387 . S
C2512 H2516 0.950 . S
C2512 C2521 1.390 . S
C2513 C2512 1.387 . S
C2513 C2515 1.387 . S
H2514 C2521 0.950 . S
C2515 C2513 1.387 . S
C2515 C2517 1.390 . S
C2515 H2519 0.950 . S
H2516 C2512 0.950 . S
C2517 C2515 1.390 . S
C2517 C2518 1.387 . S
C2517 H2520 0.950 . S
C2518 C2517 1.387 . S
C2518 C2521 1.387 . S
H2519 C2515 0.950 . S
H2520 C2517 0.950 . S
C2521 C2512 1.390 . S
C2521 H2514 0.950 . S
C2521 C2518 1.387 . S
C2522 C2523 1.387 . S
C2522 H2526 0.950 . S
C2522 C2531 1.390 . S
C2523 C2522 1.387 . S
C2523 C2525 1.387 . S
H2524 C2531 0.950 . S
C2525 C2523 1.387 . S
C2525 C2527 1.390 . S
C2525 H2529 0.950 . S
H2526 C2522 0.950 . S
C2527 C2525 1.390 . S
C2527 C2528 1.387 . S
C2527 H2530 0.950 . S
C2528 C2527 1.387 . S
C2528 C2531 1.387 . S
H2529 C2525 0.950 . S
H2530 C2527 0.950 . S
C2531 C2522 1.390 . S
C2531 H2524 0.950 . S
C2531 C2528 1.387 . S
C2532 C2533 1.387 . S
C2532 H2536 0.950 . S
C2532 C2541 1.390 . S
C2533 C2532 1.387 . S
C2533 C2535 1.387 . S
H2534 C2541 0.950 . S
C2535 C2533 1.387 . S
C2535 C2537 1.390 . S
C2535 H2539 0.950 . S
H2536 C2532 0.950 . S
C2537 C2535 1.390 . S
C2537 C2538 1.387 . S
C2537 H2540 0.950 . S
C2538 C2537 1.387 . S
C2538 C2541 1.387 . S
H2539 C2535 0.950 . S
H2540 C2537 0.950 . S
C2541 C2532 1.390 . S
C2541 H2534 0.950 . S
C2541 C2538 1.387 . S
C2542 C2543 1.387 . S
C2542 H2546 0.950 . S
C2542 C2551 1.390 . S
C2543 C2542 1.387 . S
C2543 C2545 1.387 . S
H2544 C2551 0.950 . S
C2545 C2543 1.387 . S
C2545 C2547 1.390 . S
C2545 H2549 0.950 . S
H2546 C2542 0.950 . S
C2547 C2545 1.390 . S
C2547 C2548 1.387 . S
C2547 H2550 0.950 . S
C2548 C2547 1.387 . S
C2548 C2551 1.387 . S
H2549 C2545 0.950 . S
H2550 C2547 0.950 . S
C2551 C2542 1.390 . S
C2551 H2544 0.950 . S
C2551 C2548 1.387 . S
C2552 C2553 1.387 . S
C2552 H2556 0.950 . S
C2552 C2561 1.390 . S
C2553 C2552 1.387 . S
C2553 C2555 1.387 . S
H2554 C2561 0.950 . S
C2555 C2553 1.387 . S
C2555 C2557 1.390 . S
C2555 H2559 0.950 . S
H2556 C2552 0.950 . S
C2557 C2555 1.390 . S
C2557 C2558 1.387 . S
C2557 H2560 0.950 . S
C2558 C2557 1.387 . S
C2558 C2561 1.387 . S
H2559 C2555 0.950 . S
H2560 C2557 0.950 . S
C2561 C2552 1.390 . S
C2561 H2554 0.950 . S
C2561 C2558 1.387 . S
C2562 C2563 1.387 . S
C2562 H2566 0.950 . S
C2562 C2571 1.390 . S
C2563 C2562 1.387 . S
C2563 C2565 1.387 . S
H2564 C2571 0.950 . S
C2565 C2563 1.387 . S
C2565 C2567 1.390 . S
C2565 H2569 0.950 . S
H2566 C2562 0.950 . S
C2567 C2565 1.390 . S
C2567 C2568 1.387 . S
C2567 H2570 0.950 . S
C2568 C2567 1.387 . S
C2568 C2571 1.387 . S
H2569 C2565 0.950 . S
H2570 C2567 0.950 . S
C2571 C2562 1.390 . S
C2571 H2564 0.950 . S
C2571 C2568 1.387 . S
C2572 C2573 1.387 . S
C2572 H2576 0.950 . S
C2572 C2581 1.390 . S
C2573 C2572 1.387 . S
C2573 C2575 1.387 . S
H2574 C2581 0.950 . S
C2575 C2573 1.387 . S
C2575 C2577 1.390 . S
C2575 H2579 0.950 . S
H2576 C2572 0.950 . S
C2577 C2575 1.390 . S
C2577 C2578 1.387 . S
C2577 H2580 0.950 . S
C2578 C2577 1.387 . S
C2578 C2581 1.387 . S
H2579 C2575 0.950 . S
H2580 C2577 0.950 . S
C2581 C2572 1.390 . S
C2581 H2574 0.950 . S
C2581 C2578 1.387 . S
C2582 C2583 1.387 . S
C2582 H2586 0.950 . S
C2582 C2591 1.390 . S
C2583 C2582 1.387 . S
C2583 C2585 1.387 . S
H2584 C2591 0.950 . S
C2585 C2583 1.387 . S
C2585 C2587 1.390 . S
C2585 H2589 0.950 . S
H2586 C2582 0.950 . S
C2587 C2585 1.390 . S
C2587 C2588 1.387 . S
C2587 H2590 0.950 . S
C2588 C2587 1.387 . S
C2588 C2591 1.387 . S
H2589 C2585 0.950 . S
H2590 C2587 0.950 . S
C2591 C2582 1.390 . S
C2591 H2584 0.950 . S
C2591 C2588 1.387 . S
C1153 C491 1.501 . S
C1158 C537 1.641 . S
C1163 C271 1.553 . S
C1168 C550 1.537 . S
C1178 C563 1.462 . S
C1173 C513 1.416 . S
C1183 C293 1.544 . S
C1188 C576 1.564 . S
C1193 C524 1.576 . S
C1198 C589 1.598 . S
C1203 C260 1.510 . S
C1208 C602 1.648 . S
C1213 C502 1.549 . S
C1218 C615 1.537 . S
C1223 C282 1.414 . S
C1228 C628 1.448 . S
C1233 C183 1.583 . S
C1238 C641 1.632 . S
C1243 C447 1.519 . S
C1248 C654 1.510 . S
C1253 C205 1.444 . S
C1258 C667 1.539 . S
C1263 C436 1.506 . S
C1268 C680 1.513 . S
C1273 C249 1.529 . S
C1278 C693 1.543 . S
C1288 C706 1.653 . S
C1283 C458 1.580 . S
C1298 C719 1.625 . S
C1293 C227 1.569 . S
C1303 C315 1.450 . S
C1308 C732 1.472 . S
C1318 C745 1.644 . S
C1313 C216 1.569 . S
C1328 C758 1.601 . S
C1323 C469 1.549 . S
C1333 C238 1.416 . S
C1338 C771 1.442 . S
C1343 C326 1.440 . S
C1348 C784 1.542 . S
C1358 C797 1.595 . S
C1353 C304 1.535 . S
C1363 C392 1.490 . S
C1368 C810 1.486 . S
C1378 C823 1.612 . S
C1373 C106 1.573 . S
C1388 C836 1.637 . S
C1383 C414 1.536 . S
C1398 C849 1.583 . S
C1393 C128 1.566 . S
C1408 C862 1.582 . S
C1403 C425 1.563 . S
C1413 C95 1.483 . S
C1418 C875 1.479 . S
C1428 C888 1.541 . S
C1423 C403 1.511 . S
C1433 C117 1.529 . S
C1438 C901 1.628 . S
C1448 C914 1.609 . S
C1443 C18 1.633 . S
C1458 C927 1.583 . S
C1453 C348 1.573 . S
C1463 C40 1.465 . S
C1468 C940 1.526 . S
C1478 C953 1.451 . S
C1473 C337 1.421 . S
C1488 C966 1.492 . S
C1483 C84 1.414 . S
C1493 C359 1.535 . S
C1498 C979 1.543 . S
C1508 C992 1.492 . S
C1503 C62 1.508 . S
C1518 C1005 1.555 . S
C1513 C150 1.465 . S
C1523 C51 1.592 . S
C1528 C1018 1.591 . S
C1538 C1031 1.517 . S
C1533 C370 1.532 . S
C1543 C73 1.466 . S
C1548 C1044 1.561 . S
C1558 C1057 1.498 . S
C1553 C161 1.448 . S
C1563 C139 1.625 . S
C1568 C1070 1.600 . S
C1573 C194 1.473 . S
C1578 C1083 1.467 . S
C1588 C1096 1.506 . S
C1583 C172 1.494 . S
C1593 C480 1.543 . S
C1598 C1109 1.556 . S
C1603 C29 1.586 . S
C1608 C1122 1.588 . S
C1618 C1135 1.465 . S
C1613 C7 1.441 . S
C1628 C1148 1.498 . S
C1623 C381 1.418 . S
C1633 C368 1.445 . S
C1638 C536 1.572 . S
C1643 C151 1.555 . S
C1648 C549 1.617 . S
C1653 C379 1.230 . S
C1658 C558 1.491 . S
C1668 C575 1.558 . S
C1663 C360 1.554 . S
C1673 C159 1.331 . S
C1678 C584 1.512 . S
C1683 C338 1.461 . S
C1688 C597 1.392 . S
C1698 C610 1.645 . S
C1693 C140 1.641 1_556 S
C1703 C346 1.417 . S
C1708 C627 1.520 . S
C1713 C349 1.621 . S
C1718 C640 1.586 . S
C1728 C649 1.444 . S
C1723 C162 1.495 . S
C1733 C335 1.286 . S
C1738 C662 1.337 . S
C1748 C675 1.494 . S
C1743 C137 1.593 . S
C1753 C148 1.197 1_455 S
C1758 C688 1.557 . S
C1763 C382 1.577 . S
C1768 C705 1.624 . S
C1778 C714 1.512 . S
C1773 C357 1.532 . S
C1788 C731 1.552 . S
C1783 C371 1.558 . S
C1793 C129 1.601 . S
C1798 C679 1.581 . S
C1803 C393 1.557 . S
C1808 C740 1.531 . S
C1813 C401 1.370 . S
C1818 C757 1.653 . S
C1828 C766 1.397 . S
C1823 C412 1.171 . S
C1838 C692 1.527 . S
C1833 C126 1.394 . S
C1843 C107 1.537 . S
C1848 C653 1.560 . S
C1853 C415 1.445 . S
C1858 C783 1.503 . S
C1868 C792 1.507 . S
C1863 C390 1.619 . S
C1878 C809 1.523 . S
C1873 C467 1.171 . S
C1883 C316 1.502 . S
C1888 C822 1.506 . S
C1898 C831 1.515 . S
C1893 C478 1.369 . S
C1908 C848 1.686 . S
C1903 C459 1.614 . S
C1913 C324 1.253 . S
C1918 C857 1.592 . S
C1923 C434 1.282 . S
C1928 C870 1.392 . S
C1933 C305 1.474 . S
C1938 C883 1.452 . S
C1948 C900 1.591 . S
C1943 C448 1.603 . S
C1958 C913 1.610 . S
C1953 C445 1.505 . S
C1963 C327 1.518 . S
C1968 C922 1.541 . S
C1978 C939 1.440 . S
C1973 C437 1.435 . S
C1983 C302 1.180 . S
C1988 C948 1.447 . S
C1998 C961 1.401 . S
C1993 C313 1.243 1_655 S
C2003 C481 1.563 . S
C2008 C978 1.531 . S
C2018 C987 1.572 . S
C2013 C456 1.269 . S
C2023 C470 1.477 . S
C2028 C1000 1.454 . S
C2033 C294 1.505 . S
C2038 C952 1.511 . S
C2043 C492 1.580 . S
C2048 C1013 1.599 . S
C2053 C500 1.421 . S
C2058 C1030 1.566 . S
C2068 C1043 1.459 . S
C2063 C514 1.422 . S
C2073 C291 1.321 . S
C2078 C965 1.515 . S
C2083 C272 1.538 . S
C2088 C926 1.536 . S
C2098 C1052 1.395 . S
C2093 C511 1.126 . S
C2103 C489 1.237 . S
C2108 C1065 1.694 . S
C2118 C601 1.559 . S
C2113 C60 1.430 . S
C2128 C614 1.632 . S
C2123 C74 1.566 . S
C2138 C623 1.473 . S
C2133 C82 1.237 1_554 S
C2148 C588 1.627 . S
C2143 C52 1.647 . S
C2158 C571 1.562 . S
C2153 C38 1.265 . S
C2163 C8 1.462 . S
C2168 C532 1.385 . S
C2173 C19 1.649 . S
C2178 C545 1.645 . S
C2183 C27 1.422 . S
C2188 C562 1.516 . S
C2193 C30 1.596 . S
C2198 C796 1.563 . S
C2203 C41 1.492 . S
C2208 C1078 1.449 . S
C2213 C5 1.262 . S
C2218 C779 1.328 . S
C2223 C16 1.575 . S
C2228 C1091 1.491 . S
C2233 C71 1.221 . S
C2238 C1104 1.585 . S
C2248 C744 1.583 . S
C2243 C85 1.538 . S
C2253 C49 1.556 . S
C2258 C753 1.517 . S
C2263 C63 1.519 . S
C2268 C770 1.519 . S
C2278 C1095 1.563 . S
C2273 C426 1.581 . S
C2283 C96 1.577 . S
C2288 C701 1.549 . S
C2293 C104 1.387 . S
C2298 C718 1.674 . S
C2303 C115 1.194 . S
C2308 C727 1.407 . S
C2318 C1108 1.528 . S
C2313 C423 1.395 . S
C2328 C1082 1.530 . S
C2323 C404 1.510 . S
C2338 C666 1.497 . S
C2333 C118 1.442 . S
C2343 C93 1.639 . S
C2348 C636 1.537 . S
C2353 C225 1.183 . S
C2358 C874 1.533 . S
C2363 C239 1.456 . S
C2368 C887 1.460 . S
C2373 C247 1.358 . S
C2378 C896 1.502 . S
C2383 C217 1.619 . S
C2388 C861 1.690 . S
C2398 C844 1.585 . S
C2393 C203 1.255 . S
C2408 C805 1.389 . S
C2403 C170 1.259 . S
C2418 C818 1.454 . S
C2413 C184 1.489 . S
C2423 C195 1.598 . S
C2428 C835 1.585 . S
C2438 C1069 1.596 . S
C2433 C192 1.492 . S
C2443 C206 1.525 . S
C2448 C1117 1.545 . S
C2453 C173 1.426 . S
C2458 C1056 1.426 . S
C2468 C1130 1.453 . S
C2463 C181 1.258 . S
C2473 C236 1.191 . S
C2478 C1143 1.369 . S
C2488 C1017 1.552 . S
C2483 C250 1.578 . S
C2493 C214 1.277 . S
C2498 C1026 1.578 . S
C2503 C228 1.480 . S
C2508 C1039 1.452 . S
C2513 C522 1.338 . S
C2518 C1134 1.558 . S
C2528 C974 1.574 . S
C2523 C261 1.560 . S
C2533 C269 1.432 . S
C2538 C991 1.564 . S
C2543 C283 1.404 . S
C2548 C1004 1.427 . S
C2553 C525 1.473 . S
C2558 C1147 1.479 . S
C2563 C503 1.538 . S
C2568 C1121 1.538 . S
C2578 C935 1.347 . S
C2573 C280 1.137 . S
C2588 C909 1.711 . S
C2583 C258 1.262 . S
