# Generated by pormake.
# Topology zzz, (3,6)-cn, num edge types: 1
# Building blocks:
#     Node 0, Type 0, BuildingBlock: CUQRIR_clean_linker_1, # of connection points: 3
#     Node 1, Type 0, BuildingBlock: CUQRIR_clean_linker_1, # of connection points: 3
#     Node 2, Type 0, BuildingBlock: CUQRIR_clean_linker_1, # of connection points: 3
#     Node 3, Type 0, BuildingBlock: CUQRIR_clean_linker_1, # of connection points: 3
#     Node 4, Type 0, BuildingBlock: CUQRIR_clean_linker_1, # of connection points: 3
#     Node 5, Type 0, BuildingBlock: CUQRIR_clean_linker_1, # of connection points: 3
#     Node 6, Type 0, BuildingBlock: CUQRIR_clean_linker_1, # of connection points: 3
#     Node 7, Type 0, BuildingBlock: CUQRIR_clean_linker_1, # of connection points: 3
#     Node 8, Type 1, BuildingBlock: CUWYAW_clean_sbu_0, # of connection points: 6
#     Node 9, Type 1, BuildingBlock: CUWYAW_clean_sbu_0, # of connection points: 6
#     Node 10, Type 1, BuildingBlock: CUWYAW_clean_sbu_0, # of connection points: 6
#     Node 11, Type 1, BuildingBlock: CUWYAW_clean_sbu_0, # of connection points: 6
#     Edge 12, Type (0, 1), BuildingBlock: MIFKUJ_clean_linker_0, # of connection points: 2
#     Edge 13, Type (0, 1), BuildingBlock: MIFKUJ_clean_linker_0, # of connection points: 2
#     Edge 14, Type (0, 1), BuildingBlock: MIFKUJ_clean_linker_0, # of connection points: 2
#     Edge 15, Type (0, 1), BuildingBlock: MIFKUJ_clean_linker_0, # of connection points: 2
#     Edge 16, Type (0, 1), BuildingBlock: MIFKUJ_clean_linker_0, # of connection points: 2
#     Edge 17, Type (0, 1), BuildingBlock: MIFKUJ_clean_linker_0, # of connection points: 2
#     Edge 18, Type (0, 1), BuildingBlock: MIFKUJ_clean_linker_0, # of connection points: 2
#     Edge 19, Type (0, 1), BuildingBlock: MIFKUJ_clean_linker_0, # of connection points: 2
#     Edge 20, Type (0, 1), BuildingBlock: MIFKUJ_clean_linker_0, # of connection points: 2
#     Edge 21, Type (0, 1), BuildingBlock: MIFKUJ_clean_linker_0, # of connection points: 2
#     Edge 22, Type (0, 1), BuildingBlock: MIFKUJ_clean_linker_0, # of connection points: 2
#     Edge 23, Type (0, 1), BuildingBlock: MIFKUJ_clean_linker_0, # of connection points: 2
#     Edge 24, Type (0, 1), BuildingBlock: MIFKUJ_clean_linker_0, # of connection points: 2
#     Edge 25, Type (0, 1), BuildingBlock: MIFKUJ_clean_linker_0, # of connection points: 2
#     Edge 26, Type (0, 1), BuildingBlock: MIFKUJ_clean_linker_0, # of connection points: 2
#     Edge 27, Type (0, 1), BuildingBlock: MIFKUJ_clean_linker_0, # of connection points: 2
#     Edge 28, Type (0, 1), BuildingBlock: MIFKUJ_clean_linker_0, # of connection points: 2
#     Edge 29, Type (0, 1), BuildingBlock: MIFKUJ_clean_linker_0, # of connection points: 2
#     Edge 30, Type (0, 1), BuildingBlock: MIFKUJ_clean_linker_0, # of connection points: 2
#     Edge 31, Type (0, 1), BuildingBlock: MIFKUJ_clean_linker_0, # of connection points: 2
#     Edge 32, Type (0, 1), BuildingBlock: MIFKUJ_clean_linker_0, # of connection points: 2
#     Edge 33, Type (0, 1), BuildingBlock: MIFKUJ_clean_linker_0, # of connection points: 2
#     Edge 34, Type (0, 1), BuildingBlock: MIFKUJ_clean_linker_0, # of connection points: 2
#     Edge 35, Type (0, 1), BuildingBlock: MIFKUJ_clean_linker_0, # of connection points: 2
# Relax obj value: 0.235
# Max RMSD: 0.151
# Mean RMSD: 0.133
data_MOF--net-zzz--node1-CUWYAW_clean_sbu_0--node2-CUQRIR_clean_linker_1--edge1-MIFKUJ_clean_linker_0
_symmetry_space_group_name_H-M    P1
_symmetry_Int_Tables_number       1
_symmetry_cell_setting            triclinic
loop_
_symmetry_equiv_pos_as_xyz
'x, y, z'
_cell_length_a     63.883675
_cell_length_b     63.80904
_cell_length_c     16.66909
_cell_angle_alpha  89.866524
_cell_angle_beta   90.085394
_cell_angle_gamma 89.970993
loop_
_atom_site_label
_atom_site_type_symbol
_atom_site_fract_x
_atom_site_fract_y
_atom_site_fract_z
_atom_type_partial_charge
C0 C 0.74223 0.51652 0.33859 0.0
N1 N 0.76159 0.50765 0.34353 0.0
N2 N 0.73028 0.50663 0.28223 0.0
C3 C 0.73487 0.53444 0.38917 0.0
C4 C 0.74324 0.49175 0.25244 0.0
N5 N 0.76203 0.49234 0.28963 0.0
C6 C 0.73805 0.47774 0.18263 0.0
H7 H 0.74253 0.53404 0.44896 0.0
H8 H 0.71761 0.53403 0.39618 0.0
H9 H 0.7392 0.54935 0.35911 0.0
H10 H 0.72714 0.48567 0.1405 0.0
H11 H 0.73027 0.4634 0.20563 0.0
H12 H 0.75235 0.47298 0.1497 0.0
C13 C 1.01385 0.7564 0.31036 0.0
N14 N 0.02655 0.77281 0.32914 0.0
N15 N 0.02445 0.74168 0.26736 0.0
C16 C 0.99091 0.75558 0.3287 0.0
C17 C 0.04393 0.74978 0.26055 0.0
N18 N 0.04523 0.76854 0.29781 0.0
C19 C 0.06152 0.73944 0.21565 0.0
H20 H 0.98389 0.7405 0.30948 0.0
H21 H 0.98291 0.76873 0.29756 0.0
H22 H 0.9885 0.75772 0.39407 0.0
H23 H 0.05988 0.74305 0.1508 0.0
H24 H 0.06075 0.72216 0.2229 0.0
H25 H 0.07696 0.74516 0.23677 0.0
C26 C 0.78061 0.02029 0.33126 0.0
N27 N 0.76292 0.03071 0.3522 0.0
N28 N 0.79419 0.03328 0.29243 0.0
C29 C 0.78435 0.99745 0.34724 0.0
C30 C 0.78386 0.05188 0.29026 0.0
N31 N 0.76509 0.05036 0.32731 0.0
C32 C 0.7912 0.07096 0.24502 0.0
H33 H 0.77649 0.99256 0.40358 0.0
H34 H 0.80136 0.99406 0.3512 0.0
H35 H 0.7776 0.9882 0.29725 0.0
H36 H 0.79909 0.06631 0.18852 0.0
H37 H 0.80269 0.07955 0.28252 0.0
H38 H 0.77811 0.08177 0.23081 0.0
C39 C 0.51588 0.7924 0.37425 0.0
N40 N 0.50523 0.77393 0.37873 0.0
N41 N 0.50634 0.80587 0.322 0.0
C42 C 0.53564 0.79715 0.41906 0.0
C43 C 0.48987 0.79472 0.29405 0.0
N44 N 0.48915 0.77552 0.32834 0.0
C45 C 0.47611 0.80168 0.22553 0.0
H46 H 0.53588 0.7888 0.47753 0.0
H47 H 0.53727 0.81428 0.42863 0.0
H48 H 0.54917 0.79169 0.38306 0.0
H49 H 0.48597 0.80534 0.17256 0.0
H50 H 0.46774 0.81624 0.24246 0.0
H51 H 0.46437 0.78962 0.20909 0.0
C52 C 0.28469 0.51275 0.08251 0.0
N53 N 0.26646 0.50206 0.07134 0.0
N54 N 0.29786 0.50196 0.13222 0.0
C55 C 0.28877 0.53438 0.05102 0.0
C56 C 0.28691 0.48449 0.15094 0.0
N57 N 0.26801 0.48451 0.11431 0.0
C58 C 0.29451 0.46778 0.20768 0.0
H59 H 0.30471 0.53987 0.06706 0.0
H60 H 0.27696 0.54531 0.07606 0.0
H61 H 0.28692 0.53448 0.98484 0.0
H62 H 0.29134 0.47279 0.27018 0.0
H63 H 0.31166 0.46556 0.2014 0.0
H64 H 0.28641 0.45267 0.19661 0.0
C65 C 1.01054 0.29599 0.08938 0.0
N66 N 1.00113 0.27685 0.08786 0.0
N67 N 1.00123 0.30874 0.14432 0.0
C68 C 0.02965 0.30163 0.04213 0.0
C69 C 0.98612 0.29652 0.1766 0.0
N70 N 0.98608 0.27729 0.14268 0.0
C71 C 0.97231 0.30301 0.24524 0.0
H72 H 0.04364 0.29524 0.07326 0.0
H73 H 0.03132 0.3189 0.03709 0.0
H74 H 0.02889 0.29451 0.98151 0.0
H75 H 0.96782 0.31974 0.23934 0.0
H76 H 0.98113 0.30116 0.30221 0.0
H77 H 0.95797 0.29325 0.24808 0.0
C78 C 0.24459 0.02111 0.12014 0.0
N79 N 0.26441 1.01326 0.1178 0.0
N80 N 0.23298 1.01124 0.17762 0.0
C81 C 0.23675 0.03871 0.06834 0.0
C82 C 0.24661 0.99728 0.21031 0.0
N83 N 0.26554 0.99856 0.1742 0.0
C84 C 0.24126 0.98227 0.27727 0.0
H85 H 0.21957 0.03753 0.05956 0.0
H86 H 0.24467 0.03875 0.00924 0.0
H87 H 0.24023 0.0538 0.09844 0.0
H88 H 0.23321 0.96843 0.25153 0.0
H89 H 0.23057 0.9898 0.32098 0.0
H90 H 0.25521 0.97647 0.30968 0.0
C91 C 0.51956 0.24779 0.10584 0.0
N92 N 0.52616 0.26814 0.10356 0.0
N93 N 0.52507 0.23839 0.1768 0.0
C94 C 0.50911 0.23677 0.03732 0.0
C95 C 0.53489 0.25399 0.21733 0.0
N96 N 0.53575 0.27164 0.17291 0.0
C97 C 0.54242 0.25265 0.30289 0.0
H98 H 0.49193 0.23702 0.04698 0.0
H99 H 0.51424 0.22017 0.03458 0.0
H100 H 0.51256 0.24472 0.97956 0.0
H101 H 0.55926 0.24836 0.30346 0.0
H102 H 0.53348 0.24075 0.33728 0.0
H103 H 0.54083 0.26806 0.33305 0.0
C104 C 0.98227 0.04125 0.51872 0.0
Eu105 Eu 0.99915 0.02766 0.65104 0.0
C106 C 0.96597 0.05669 0.50116 0.0
C107 C 0.95508 0.0665 0.56377 0.0
C108 C 0.94121 0.08287 0.54716 0.0
C109 C 0.93815 0.08972 0.46772 0.0
C110 C 0.94822 0.0789 0.40505 0.0
C111 C 0.96203 0.06252 0.42176 0.0
C112 C 0.97452 0.01707 0.77895 0.0
C113 C 1.0126 0.06647 0.76946 0.0
C114 C 0.03174 1.00539 0.94648 0.0
Eu115 Eu 0.02282 0.01718 0.80131 0.0
C116 C 0.04549 0.98982 0.9846 0.0
C117 C 0.05644 0.99507 0.05467 0.0
C118 C 0.06883 0.98011 0.09364 0.0
C119 C 0.07033 0.95962 0.06319 0.0
C120 C 0.05985 0.9547 0.99133 0.0
C121 C 0.04765 0.96969 0.95216 0.0
C122 C 0.05202 0.01925 0.68095 0.0
C123 C 1.01371 0.9805 0.6721 0.0
O124 O 0.99967 0.04882 0.54834 0.0
O125 O 0.97598 0.02441 0.55616 0.0
O126 O 0.97149 1.01061 0.70644 0.0
O127 O 0.99044 0.02876 0.78069 0.0
O128 O 1.00418 0.06085 0.69994 0.0
O129 O 0.02008 0.05229 0.81986 0.0
O130 O 0.01574 0.99807 0.9057 0.0
O131 O 0.04115 0.02103 0.91061 0.0
O132 O 0.05621 1.01511 0.75524 0.0
O133 O 0.03256 0.02217 0.6735 0.0
O134 O 1.0144 0.98491 0.74976 0.0
O135 O 1.01199 0.99575 0.61889 0.0
H136 H 0.95792 0.06201 0.62559 0.0
H137 H 0.93362 0.0908 0.59664 0.0
H138 H 0.94659 0.08397 0.3433 0.0
H139 H 0.97031 0.05503 0.3729 0.0
H140 H 0.05515 1.01065 0.07994 0.0
H141 H 0.07693 0.98447 0.14822 0.0
H142 H 0.06034 0.93901 0.96683 0.0
H143 H 0.03953 0.96535 0.89754 0.0
C144 C 0.49458 0.99522 0.50918 0.0
Eu145 Eu 0.50583 1.00659 0.65192 0.0
C146 C 0.48073 0.97845 0.48128 0.0
C147 C 0.47268 0.96386 0.53626 0.0
C148 C 0.45809 0.94895 0.51165 0.0
C149 C 0.45123 0.94848 0.43166 0.0
C150 C 0.45995 0.96265 0.37603 0.0
C151 C 0.47463 0.97753 0.40076 0.0
C152 C 0.50934 0.97942 0.78108 0.0
C153 C 0.47016 0.02258 0.77625 0.0
C154 C 0.53077 0.03922 0.96159 0.0
Eu155 Eu 0.52035 0.03081 0.81453 0.0
C156 C 0.54577 0.05288 1.00223 0.0
C157 C 0.55848 0.06651 0.95781 0.0
C158 C 0.57399 0.07818 0.99622 0.0
C159 C 0.57705 0.07631 0.07953 0.0
C160 C 0.56364 0.0633 0.12418 0.0
C161 C 0.54811 0.05163 0.08564 0.0
C162 C 0.51809 0.05792 0.6854 0.0
C163 C 0.55561 0.0171 0.68393 0.0
O164 O 0.4853 1.01039 0.54865 0.0
O165 O 0.51199 0.9889 0.54329 0.0
O166 O 0.50337 0.97389 0.70994 0.0
O167 O 0.51283 0.99879 0.77786 0.0
O168 O 0.47449 0.01693 0.70154 0.0
O169 O 0.48503 0.02644 0.83023 0.0
O170 O 0.53896 0.02376 0.92038 0.0
O171 O 0.51544 0.04871 0.92372 0.0
O172 O 0.52433 0.06332 0.75669 0.0
O173 O 0.51362 0.03869 0.68857 0.0
O174 O 0.55187 0.02199 0.76016 0.0
O175 O 0.54037 1.01317 0.63173 0.0
H176 H 0.47715 0.96442 0.5988 0.0
H177 H 0.45162 0.93827 0.55572 0.0
H178 H 0.45467 0.96293 0.31426 0.0
H179 H 0.48068 0.98872 0.35768 0.0
H180 H 0.55677 0.06767 0.89326 0.0
H181 H 0.58397 0.08825 0.96049 0.0
H182 H 0.56578 0.06137 0.18826 0.0
H183 H 0.53836 0.04116 0.1206 0.0
C184 C 0.54129 0.51129 0.48571 0.0
Eu185 Eu 0.52676 0.51212 0.63145 0.0
C186 C 0.55488 0.49799 0.43572 0.0
C187 C 0.5767 0.49728 0.44737 0.0
C188 C 0.58896 0.48314 0.40404 0.0
C189 C 0.57963 0.46956 0.34835 0.0
C190 C 0.558 0.47124 0.33357 0.0
C191 C 0.54581 0.48539 0.37644 0.0
C192 C 0.55092 0.51087 0.76562 0.0
C193 C 0.51307 0.47148 0.73397 0.0
C194 C 0.49514 0.52329 0.94092 0.0
Eu195 Eu 0.50283 0.52015 0.78829 0.0
C196 C 0.49914 0.53832 0.00478 0.0
C197 C 0.48943 0.53561 0.07931 0.0
C198 C 0.48874 0.55219 0.13373 0.0
C199 C 0.4976 0.57167 0.11351 0.0
C200 C 0.509 0.57354 0.0416 0.0
C201 C 0.50976 0.55695 0.9876 0.0
C202 C 0.47395 0.51463 0.66741 0.0
C203 C 0.51474 0.56076 0.68314 0.0
O204 O 0.52312 0.50334 0.50612 0.0
O205 O 0.55022 0.52158 0.54431 0.0
O206 O 0.55333 0.4987 0.70399 0.0
O207 O 0.53626 0.52392 0.75244 0.0
O208 O 0.51933 0.47802 0.66222 0.0
O209 O 0.50747 0.48488 0.79045 0.0
O210 O 0.5114 0.51331 0.91235 0.0
O211 O 0.48247 0.53006 0.88478 0.0
O212 O 0.46927 0.51812 0.74172 0.0
O213 O 0.49364 0.5139 0.66199 0.0
O214 O 0.50814 0.55425 0.75425 0.0
O215 O 0.52105 0.54746 0.62724 0.0
H216 H 0.58423 0.50711 0.4917 0.0
H217 H 0.6056 0.48229 0.41624 0.0
H218 H 0.55019 0.46083 0.29194 0.0
H219 H 0.5291 0.48591 0.36519 0.0
H220 H 0.48122 0.5212 0.09321 0.0
H221 H 0.48016 0.55019 0.18922 0.0
H222 H 0.51582 0.58835 0.02358 0.0
H223 H 0.51726 0.55922 0.92995 0.0
C224 C 0.03088 0.53832 0.47147 0.0
Eu225 Eu 0.02015 0.53593 0.62075 0.0
C226 C 0.04398 0.52403 0.42491 0.0
C227 C 0.05404 0.53101 0.35536 0.0
C228 C 0.06908 0.51836 0.31871 0.0
C229 C 0.07401 0.49857 0.35101 0.0
C230 C 0.06306 0.49116 0.41799 0.0
C231 C 0.04835 0.50396 0.45538 0.0
C232 C 1.01345 0.56544 0.73816 0.0
C233 C 0.05766 0.52415 0.74677 0.0
C234 C 1.00001 0.5055 0.94101 0.0
Eu235 Eu 1.00924 0.51396 0.79297 0.0
C236 C 0.9876 0.48877 0.97783 0.0
C237 C 0.97975 0.47247 0.93018 0.0
C238 C 0.96573 0.45798 0.96235 0.0
C239 C 0.95925 0.45967 0.04256 0.0
C240 C 0.96827 0.4752 0.09153 0.0
C241 C 0.98234 0.48969 0.0592 0.0
C242 C 1.0149 0.48497 0.67243 0.0
C243 C 0.97123 0.52476 0.66532 0.0
O244 O 1.01289 0.53059 0.49499 0.0
O245 O 0.04081 0.54834 0.52857 0.0
O246 O 0.01681 0.56999 0.66307 0.0
O247 O 1.01316 0.54575 0.74406 0.0
O248 O 0.05221 0.52649 0.67027 0.0
O249 O 0.04362 0.52237 0.80494 0.0
O250 O 0.98937 0.51891 0.89715 0.0
O251 O 0.01743 0.4994 0.90676 0.0
O252 O 1.01033 0.47994 0.74577 0.0
O253 O 0.01631 0.50456 0.67021 0.0
O254 O 0.97653 0.51936 0.73998 0.0
O255 O 0.98511 0.53054 0.61022 0.0
H256 H 0.051 0.54655 0.33172 0.0
H257 H 0.0775 0.52434 0.26713 0.0
H258 H 0.06689 0.47611 0.44452 0.0
H259 H 0.04119 0.49866 0.51053 0.0
H260 H 0.98373 0.4715 0.8672 0.0
H261 H 0.95912 0.44612 0.92344 0.0
H262 H 0.96337 0.47707 0.15328 0.0
H263 H 0.98834 0.50217 0.09673 0.0
H264 H 0.2023 0.98241 0.19383 0.0
H265 H 0.16954 0.98652 0.26579 0.0
H266 H 0.18085 0.05303 0.28508 0.0
H267 H 0.21517 0.04821 0.22166 0.0
H268 H 0.16756 0.04273 0.41596 0.0
H269 H 0.13517 0.0275 0.15916 0.0
H270 H 0.13169 1.00758 0.03292 0.0
H271 H 0.12333 0.95068 0.16708 0.0
H272 H 0.12564 0.97041 0.29373 0.0
H273 H 0.0475 0.02938 0.51993 0.0
H274 H 0.07536 0.03129 0.41778 0.0
H275 H 0.12071 1.012 0.5951 0.0
H276 H 0.09332 1.01054 0.69637 0.0
H277 H 0.10229 1.00405 0.35232 0.0
H278 H 0.16674 0.03487 0.56914 0.0
H279 H 0.1695 0.05751 0.68844 0.0
H280 H 0.11283 0.08921 0.6208 0.0
H281 H 0.10989 0.06698 0.50053 0.0
C282 C 0.19779 0.99792 0.21337 0.0
C283 C 0.21155 1.01489 0.20307 0.0
C284 C 0.17866 1.0004 0.25325 0.0
C285 C 0.17206 0.02022 0.28037 0.0
C286 C 0.18531 0.0375 0.26545 0.0
C287 C 0.20488 0.03484 0.22795 0.0
C288 C 0.15245 0.02249 0.33017 0.0
C289 C 0.15329 0.0344 0.40108 0.0
C290 C 0.13339 1.01205 0.3116 0.0
C291 C 0.13061 1.0004 0.23566 0.0
C292 C 0.13232 1.01077 0.16151 0.0
C293 C 0.13041 0.99954 0.08993 0.0
C294 C 0.12708 0.97789 0.09192 0.0
C295 C 0.12549 0.96749 0.16549 0.0
C296 C 0.12685 0.97871 0.23716 0.0
C297 C 0.06344 0.02561 0.53686 0.0
C298 C 0.0682 0.02002 0.61655 0.0
C299 C 0.07937 0.02664 0.47841 0.0
C300 C 0.10035 0.02217 0.49864 0.0
C301 C 0.10485 0.01603 0.57783 0.0
C302 C 0.08908 1.01511 0.63587 0.0
C303 C 0.11773 0.02391 0.43829 0.0
C304 C 0.11647 1.01269 0.36597 0.0
C305 C 0.13621 0.03549 0.4544 0.0
C306 C 0.13803 0.04914 0.5261 0.0
C307 C 0.15493 0.04675 0.57948 0.0
C308 C 0.15651 0.0595 0.64734 0.0
C309 C 0.14132 0.07475 0.6623 0.0
C310 C 0.12455 0.07735 0.60929 0.0
C311 C 0.12291 0.06466 0.54131 0.0
H312 H 0.14256 0.08459 0.7149 0.0
H313 H 0.12581 0.96918 0.03651 0.0
H314 H 0.55615 0.21473 0.23826 0.0
H315 H 0.55298 0.18184 0.30924 0.0
H316 H 0.48816 0.1775 0.23781 0.0
H317 H 0.49074 0.21259 0.17624 0.0
H318 H 0.48907 0.16357 0.37605 0.0
H319 H 0.53284 0.13977 0.15891 0.0
H320 H 0.56192 0.14431 0.06301 0.0
H321 H 0.60534 0.14997 0.25862 0.0
H322 H 0.57666 0.14445 0.35548 0.0
H323 H 0.49303 0.05821 0.54922 0.0
H324 H 0.49258 0.08503 0.44189 0.0
H325 H 0.5448 0.11625 0.55354 0.0
H326 H 0.54477 0.09019 0.66136 0.0
H327 H 0.54734 0.11211 0.37608 0.0
H328 H 0.50049 0.13536 0.59046 0.0
H329 H 0.46991 0.13093 0.67905 0.0
H330 H 0.42972 0.12541 0.47346 0.0
H331 H 0.46015 0.12952 0.38364 0.0
C332 C 0.54115 0.20686 0.23778 0.0
C333 C 0.52365 0.2166 0.20257 0.0
C334 C 0.53945 0.18753 0.27693 0.0
C335 C 0.5205 0.17628 0.27752 0.0
C336 C 0.50308 0.18552 0.23862 0.0
C337 C 0.5046 0.20551 0.20215 0.0
C338 C 0.51886 0.15574 0.32306 0.0
C339 C 0.50163 0.15215 0.37401 0.0
C340 C 0.53509 0.14042 0.32206 0.0
C341 C 0.55263 0.14177 0.26425 0.0
C342 C 0.54864 0.14172 0.1813 0.0
C343 C 0.56506 0.1444 0.12683 0.0
C344 C 0.58546 0.14747 0.15471 0.0
C345 C 0.58953 0.14755 0.2371 0.0
C346 C 0.57328 0.14427 0.29178 0.0
C347 C 0.50456 0.07065 0.55005 0.0
C348 C 0.51892 0.07207 0.61391 0.0
C349 C 0.50427 0.08602 0.48886 0.0
C350 C 0.51868 0.10278 0.48936 0.0
C351 C 0.53357 0.10355 0.55129 0.0
C352 C 0.53349 0.08862 0.61316 0.0
C353 C 0.51773 0.12029 0.42897 0.0
C354 C 0.53456 0.12331 0.37593 0.0
C355 C 0.50087 0.13472 0.42644 0.0
C356 C 0.48261 0.13248 0.48042 0.0
C357 C 0.48516 0.13302 0.56418 0.0
C358 C 0.46785 0.1306 0.61461 0.0
C359 C 0.4479 0.12782 0.58191 0.0
C360 C 0.4452 0.12752 0.49871 0.0
C361 C 0.46246 0.1299 0.44802 0.0
H362 H 0.43452 0.12595 0.62105 0.0
H363 H 0.59812 0.14971 0.1125 0.0
H364 H 0.3018 0.51884 0.27892 0.0
H365 H 0.33423 0.52331 0.35604 0.0
H366 H 0.37002 0.50248 0.1519 0.0
H367 H 0.33727 0.49774 0.07558 0.0
H368 H 0.38411 0.48331 0.28027 0.0
H369 H 0.37114 0.55477 0.21932 0.0
H370 H 0.35103 0.58761 0.2072 0.0
H371 H 0.34161 0.58847 0.46216 0.0
H372 H 0.36142 0.55546 0.47575 0.0
H373 H 0.47937 0.50684 0.50438 0.0
H374 H 0.45211 0.50681 0.39924 0.0
H375 H 0.40544 0.52136 0.57722 0.0
H376 H 0.43229 0.52131 0.68112 0.0
H377 H 0.4003 0.54573 0.44569 0.0
H378 H 0.41084 0.47176 0.50063 0.0
H379 H 0.43186 0.43941 0.50964 0.0
H380 H 0.44733 0.44454 0.25975 0.0
H381 H 0.42659 0.47709 0.24954 0.0
C382 C 0.31668 0.51587 0.25002 0.0
C383 C 0.31711 0.50851 0.17073 0.0
C384 C 0.33526 0.51833 0.29411 0.0
C385 C 0.35486 0.5135 0.26004 0.0
C386 C 0.35527 0.50644 0.17995 0.0
C387 C 0.3366 0.50398 0.13586 0.0
C388 C 0.37458 0.51478 0.30961 0.0
C389 C 0.38781 0.49716 0.31511 0.0
C390 C 0.37961 0.53268 0.35621 0.0
C391 C 0.36764 0.55253 0.34845 0.0
C392 C 0.36465 0.56187 0.27276 0.0
C393 C 0.35332 0.58053 0.26563 0.0
C394 C 0.34501 0.5901 0.33385 0.0
C395 C 0.34805 0.58103 0.40936 0.0
C396 C 0.35934 0.56235 0.41682 0.0
C397 C 0.46329 0.50996 0.52086 0.0
C398 C 0.45807 0.51402 0.60138 0.0
C399 C 0.44767 0.50992 0.46075 0.0
C400 C 0.42654 0.51406 0.4799 0.0
C401 C 0.42151 0.5182 0.56027 0.0
C402 C 0.43696 0.51807 0.61995 0.0
C403 C 0.40945 0.51412 0.41767 0.0
C404 C 0.39671 0.53201 0.40992 0.0
C405 C 0.40502 0.49657 0.36852 0.0
C406 C 0.41737 0.47697 0.37455 0.0
C407 C 0.41886 0.46607 0.44777 0.0
C408 C 0.43069 0.44769 0.45307 0.0
C409 C 0.44098 0.43996 0.38537 0.0
C410 C 0.43939 0.45057 0.31217 0.0
C411 C 0.42759 0.46897 0.30658 0.0
H412 H 0.45014 0.42572 0.38959 0.0
H413 H 0.33626 0.60455 0.32821 0.0
H414 H 0.98428 0.3464 0.10947 0.0
H415 H 0.98907 0.37906 0.18566 0.0
H416 H 0.03605 0.34864 0.33113 0.0
H417 H 0.03108 0.31611 0.25465 0.0
H418 H 1.00615 0.36637 0.42219 0.0
H419 H 0.04767 0.38901 0.19524 0.0
H420 H 0.0543 0.39717 0.05286 0.0
H421 H 1.00429 0.44212 0.05416 0.0
H422 H 0.99706 0.43397 0.19615 0.0
H423 H 0.03574 0.44815 0.67392 0.0
H424 H 0.03625 0.42089 0.57134 0.0
H425 H 0.99699 0.45916 0.41919 0.0
H426 H 0.99765 0.48713 0.52087 0.0
H427 H 0.02139 0.43839 0.32642 0.0
H428 H 0.97767 0.41677 0.54104 0.0
H429 H 0.96759 0.40948 0.68109 0.0
H430 H 0.01613 0.36314 0.69922 0.0
H431 H 0.02671 0.37036 0.55956 0.0
C432 C 0.99618 0.34705 0.15573 0.0
C433 C 1.00767 0.32893 0.17509 0.0
C434 C 0.99886 0.36567 0.19965 0.0
C435 C 1.01302 0.36652 0.2644 0.0
C436 C 0.02508 0.34855 0.28152 0.0
C437 C 0.02245 0.33001 0.23733 0.0
C438 C 1.01385 0.3852 0.31919 0.0
C439 C 1.00985 0.38204 0.4012 0.0
C440 C 0.01752 0.40597 0.29185 0.0
C441 C 0.02169 0.4107 0.20618 0.0
C442 C 0.03793 0.40047 0.16496 0.0
C443 C 0.04181 0.40512 0.08433 0.0
C444 C 0.02966 0.4201 0.04442 0.0
C445 C 1.01362 0.43048 0.08508 0.0
C446 C 1.00963 0.42585 0.16564 0.0
C447 C 0.02749 0.45087 0.61801 0.0
C448 C 0.01672 0.46977 0.60533 0.0
C449 C 0.02759 0.43516 0.55946 0.0
C450 C 0.0161 0.43746 0.4878 0.0
C451 C 1.00589 0.45675 0.47379 0.0
C452 C 1.00625 0.47277 0.53191 0.0
C453 C 1.01421 0.41943 0.42987 0.0
C454 C 0.01778 0.42271 0.34744 0.0
C455 C 1.0095 0.39877 0.45619 0.0
C456 C 1.0031 0.39424 0.54004 0.0
C457 C 0.98628 0.40511 0.57504 0.0
C458 C 0.98047 0.40099 0.65434 0.0
C459 C 0.99124 0.38589 0.69908 0.0
C460 C 1.00781 0.37484 0.66451 0.0
C461 C 1.01371 0.37893 0.58526 0.0
H462 H 0.98672 0.38273 0.76048 0.0
H463 H 0.03271 0.4237 0.98204 0.0
H464 H 0.8021 1.00234 0.18488 0.0
H465 H 0.83439 0.99728 0.10712 0.0
H466 H 0.86285 0.04924 0.23098 0.0
H467 H 0.83082 0.05387 0.31002 0.0
H468 H 0.86682 0.05275 0.06723 0.0
H469 H 0.87911 1.00004 0.26795 0.0
H470 H 0.87066 0.96885 0.34924 0.0
H471 H 0.8663 0.93164 0.13556 0.0
H472 H 0.87444 0.9627 0.05284 0.0
H473 H 0.9702 0.04224 0.91156 0.0
H474 H 0.94075 0.04319 0.00617 0.0
H475 H 0.91179 0.99152 0.8823 0.0
H476 H 0.94099 0.99074 0.78699 0.0
H477 H 0.90847 0.98733 0.04794 0.0
H478 H 0.89421 0.03822 0.84694 0.0
H479 H 0.89999 0.06876 0.75899 0.0
H480 H 0.90556 0.1086 0.96512 0.0
H481 H 0.90021 0.07818 0.05453 0.0
C482 C 0.81546 1.01229 0.19689 0.0
C483 C 0.81394 0.02849 0.25366 0.0
C484 C 0.83389 1.00948 0.1521 0.0
C485 C 0.85116 0.0229 0.16286 0.0
C486 C 0.84979 0.03874 0.22105 0.0
C487 C 0.83148 0.04139 0.26624 0.0
C488 C 0.87023 0.02117 0.11096 0.0
C489 C 0.87613 0.03856 0.06427 0.0
C490 C 0.88205 1.00244 0.10457 0.0
C491 C 0.87718 0.98375 0.15414 0.0
C492 C 0.87617 0.98525 0.23822 0.0
C493 C 0.87147 0.96759 0.28458 0.0
C494 C 0.86789 0.94829 0.24758 0.0
C495 C 0.86905 0.94661 0.16413 0.0
C496 C 0.87373 0.96423 0.11749 0.0
C497 C 0.95766 0.03095 0.90504 0.0
C498 C 0.9579 0.01646 0.84155 0.0
C499 C 0.94077 0.03155 0.95898 0.0
C500 C 0.92389 0.01751 0.95127 0.0
C501 C 0.92456 1.0025 0.88976 0.0
C502 C 0.94126 1.00211 0.83514 0.0
C503 C 0.90517 0.01902 0.00505 0.0
C504 C 0.89927 1.00159 0.05163 0.0
C505 C 0.89315 0.03763 0.01069 0.0
C506 C 0.89707 0.05587 0.95747 0.0
C507 C 0.89696 0.05343 0.8736 0.0
C508 C 0.9001 0.07073 0.82347 0.0
C509 C 0.90314 0.09059 0.85646 0.0
C510 C 0.9032 0.09319 0.93969 0.0
C511 C 0.90014 0.07592 0.99014 0.0
H512 H 0.90534 0.10397 0.81747 0.0
H513 H 0.86426 0.93463 0.28357 0.0
H514 H 0.54044 0.81447 0.23141 0.0
H515 H 0.54652 0.84667 0.15301 0.0
H516 H 0.49143 0.87435 0.25842 0.0
H517 H 0.48588 0.84244 0.33747 0.0
H518 H 0.52495 0.86214 0.03922 0.0
H519 H 0.49185 0.92626 0.25635 0.0
H520 H 0.49349 0.93424 0.40109 0.0
H521 H 0.55052 0.8993 0.42288 0.0
H522 H 0.54944 0.89115 0.27848 0.0
H523 H 0.48835 0.94305 0.79907 0.0
H524 H 0.49191 0.91655 0.90351 0.0
H525 H 0.53773 0.95488 0.02414 0.0
H526 H 0.53342 0.9821 0.92002 0.0
H527 H 0.51639 0.93528 0.13424 0.0
H528 H 0.55191 0.91158 0.90389 0.0
H529 H 0.55759 0.90342 0.76105 0.0
H530 H 0.50805 0.85801 0.76881 0.0
H531 H 0.50186 0.86611 0.91146 0.0
C532 C 0.53019 0.8278 0.23988 0.0
C533 C 0.51289 0.82611 0.29145 0.0
C534 C 0.53345 0.84612 0.19425 0.0
C535 C 0.51949 0.86322 0.1993 0.0
C536 C 0.50274 0.86176 0.25382 0.0
C537 C 0.49954 0.8435 0.29929 0.0
C538 C 0.52122 0.88173 0.14318 0.0
C539 C 0.52315 0.8781 0.06038 0.0
C540 C 0.51967 0.9028 0.16987 0.0
C541 C 0.52047 0.90797 0.25657 0.0
C542 C 0.5048 0.92036 0.29187 0.0
C543 C 0.50561 0.9249 0.37386 0.0
C544 C 0.52204 0.91731 0.42104 0.0
C545 C 0.53776 0.90514 0.38635 0.0
C546 C 0.53704 0.90051 0.30448 0.0
C547 C 0.49905 0.94601 0.84825 0.0
C548 C 0.51064 0.96473 0.85087 0.0
C549 C 0.50122 0.93068 0.90795 0.0
C550 C 0.51557 0.9332 0.97129 0.0
C551 C 0.52663 0.95232 0.97598 0.0
C552 C 0.52415 0.96795 0.91646 0.0
C553 C 0.51918 0.91553 0.03012 0.0
C554 C 0.51827 0.91932 0.11326 0.0
C555 C 0.52262 0.89461 0.00403 0.0
C556 C 0.52632 0.88957 0.91828 0.0
C557 C 0.54214 0.89994 0.87502 0.0
C558 C 0.54546 0.89532 0.79409 0.0
C559 C 0.53316 0.88024 0.75584 0.0
C560 C 0.51755 0.86971 0.79851 0.0
C561 C 0.51415 0.87429 0.87944 0.0
H562 H 0.53575 0.87669 0.69317 0.0
H563 H 0.52258 0.92087 0.48447 0.0
H564 H 0.69696 0.48084 0.28873 0.0
H565 H 0.6637 0.48483 0.21599 0.0
H566 H 0.68327 0.54592 0.13439 0.0
H567 H 0.71654 0.5418 0.20772 0.0
H568 H 0.62971 0.51274 0.20727 0.0
H569 H 0.67104 0.54869 0.9335 0.0
H570 H 0.70632 0.55036 0.87357 0.0
H571 H 0.72185 0.49104 0.98044 0.0
H572 H 0.6866 0.4889 0.04004 0.0
H573 H 0.55351 0.53859 0.89373 0.0
H574 H 0.58162 0.54068 0.99517 0.0
H575 H 0.61237 0.48777 0.8862 0.0
H576 H 0.58463 0.4856 0.78616 0.0
H577 H 0.63995 0.51887 0.91317 0.0
H578 H 0.58565 0.48318 0.05943 0.0
H579 H 0.54982 0.4802 0.11296 0.0
H580 H 0.55984 0.5346 0.25906 0.0
H581 H 0.59559 0.53824 0.20481 0.0
C582 C 0.69381 0.49536 0.25723 0.0
C583 C 0.70923 0.51108 0.25431 0.0
C584 C 0.67481 0.49766 0.21559 0.0
C585 C 0.67089 0.51561 0.16887 0.0
C586 C 0.68585 0.53186 0.1696 0.0
C587 C 0.70481 0.52962 0.21195 0.0
C588 C 0.65245 0.51622 0.11279 0.0
C589 C 0.63195 0.5143 0.14305 0.0
C590 C 0.65517 0.51785 0.02862 0.0
C591 C 0.67628 0.51878 0.99191 0.0
C592 C 0.68197 0.53598 0.94394 0.0
C593 C 0.70196 0.53701 0.91008 0.0
C594 C 0.71634 0.52085 0.92345 0.0
C595 C 0.71073 0.50359 0.9704 0.0
C596 C 0.69075 0.50247 0.00428 0.0
C597 C 0.56622 0.52736 0.8919 0.0
C598 C 0.56684 0.51201 0.83133 0.0
C599 C 0.5823 0.52854 0.94994 0.0
C600 C 0.59932 0.51444 0.94844 0.0
C601 C 0.59964 0.49897 0.88866 0.0
C602 C 0.58364 0.49772 0.8314 0.0
C603 C 0.61712 0.51569 0.00735 0.0
C604 C 0.6376 0.51775 0.97749 0.0
C605 C 0.6143 0.51394 0.09155 0.0
C606 C 0.59318 0.51119 0.12699 0.0
C607 C 0.58015 0.49463 0.1024 0.0
C608 C 0.55984 0.49286 0.1327 0.0
C609 C 0.55247 0.50737 0.18854 0.0
C610 C 0.56551 0.5235 0.21517 0.0
C611 C 0.5858 0.52543 0.18464 0.0
H612 H 0.53671 0.50601 0.21176 0.0
H613 H 0.73181 0.52169 0.89727 0.0
H614 H 0.02203 0.7023 0.32607 0.0
H615 H 0.01615 0.67004 0.24828 0.0
H616 H 1.00603 0.70727 0.03533 0.0
H617 H 1.01168 0.73934 0.11391 0.0
H618 H 0.97985 0.67469 0.03494 0.0
H619 H 0.05365 0.68408 0.07931 0.0
H620 H 0.08553 0.68868 0.16087 0.0
H621 H 0.07461 0.6294 0.27586 0.0
H622 H 0.04243 0.6246 0.19582 0.0
H623 H 1.00759 0.60712 0.71814 0.0
H624 H 1.0055 0.63449 0.81958 0.0
H625 H 1.01159 0.58799 0.00621 0.0
H626 H 1.01366 0.56022 0.90353 0.0
H627 H 0.03737 0.62242 0.03259 0.0
H628 H 0.96501 0.61177 0.97616 0.0
H629 H 0.93368 0.60755 0.89125 0.0
H630 H 0.94239 0.66948 0.79571 0.0
H631 H 0.97398 0.67397 0.87918 0.0
C632 C 0.01792 0.70348 0.26319 0.0
C633 C 0.01688 0.72324 0.22615 0.0
C634 C 1.01482 0.68507 0.21839 0.0
C635 C 1.0109 0.68604 0.13519 0.0
C636 C 1.00897 0.70593 0.09915 0.0
C637 C 1.01207 0.72428 0.14401 0.0
C638 C 1.00988 0.66653 0.0847 0.0
C639 C 0.99251 0.66336 0.03424 0.0
C640 C 0.02611 0.6513 0.08451 0.0
C641 C 0.0455 0.6541 0.13228 0.0
C642 C 0.05795 0.6721 0.12243 0.0
C643 C 0.07609 0.67473 0.16833 0.0
C644 C 0.08206 0.65937 0.22368 0.0
C645 C 0.06993 0.64131 0.23308 0.0
C646 C 0.05175 0.63862 0.18747 0.0
C647 C 1.00826 0.6026 0.78077 0.0
C648 C 1.01065 0.58142 0.80259 0.0
C649 C 1.00702 0.61835 0.83897 0.0
C650 C 1.00817 0.61346 0.92107 0.0
C651 C 1.01056 0.59225 0.9434 0.0
C652 C 1.01162 0.57635 0.88474 0.0
C653 C 1.00746 0.63074 0.9822 0.0
C654 C 0.02455 0.63356 0.03429 0.0
C655 C 0.99103 0.64571 0.98362 0.0
C656 C 0.97197 0.64314 0.93357 0.0
C657 C 0.96034 0.62444 0.93662 0.0
C658 C 0.94252 0.62201 0.88881 0.0
C659 C 0.93607 0.63822 0.83801 0.0
C660 C 0.94741 0.65693 0.83506 0.0
C661 C 0.96526 0.65943 0.8827 0.0
H662 H 0.92226 0.63631 0.80103 0.0
H663 H 0.09611 0.66143 0.25914 0.0
H664 H 0.99007 0.26015 0.28832 0.0
H665 H 0.97235 0.22873 0.33903 0.0
H666 H 0.94033 0.22188 0.11258 0.0
H667 H 0.95817 0.25361 0.06189 0.0
H668 H 0.91516 0.21803 0.27837 0.0
H669 H 0.96959 0.17709 0.11958 0.0
H670 H 1.00549 0.1703 0.07141 0.0
H671 H 0.02991 0.18369 0.30589 0.0
H672 H 0.99403 0.18975 0.35602 0.0
H673 H 0.91227 0.10005 0.34173 0.0
H674 H 0.90806 0.13546 0.28757 0.0
H675 H 0.93708 0.16094 0.49938 0.0
H676 H 0.94175 0.12589 0.55323 0.0
H677 H 0.9592 0.15504 0.32374 0.0
H678 H 0.90226 0.18361 0.484 0.0
H679 H 0.8657 0.18502 0.53075 0.0
H680 H 0.84455 0.1946 0.28878 0.0
H681 H 0.88101 0.1929 0.24042 0.0
C682 C 0.97904 0.25202 0.25009 0.0
C683 C 0.97515 0.25919 0.172 0.0
C684 C 0.96902 0.23415 0.27869 0.0
C685 C 0.955 0.2232 0.22953 0.0
C686 C 0.95099 0.23033 0.15135 0.0
C687 C 0.96116 0.24826 0.12251 0.0
C688 C 0.94542 0.20382 0.2603 0.0
C689 C 0.92458 0.20407 0.28722 0.0
C690 C 0.95776 0.18581 0.27214 0.0
C691 C 0.9793 0.1841 0.24108 0.0
C692 C 0.98267 0.17878 0.16048 0.0
C693 C 1.00296 0.17487 0.13307 0.0
C694 C 0.01998 0.17666 0.18546 0.0
C695 C 0.01673 0.18233 0.2654 0.0
C696 C 0.99642 0.18586 0.29347 0.0
C697 C 0.91693 0.11327 0.37829 0.0
C698 C 0.92794 0.11013 0.45053 0.0
C699 C 0.91425 0.13349 0.34768 0.0
C700 C 0.92234 0.1507 0.38949 0.0
C701 C 0.93051 0.14781 0.46679 0.0
C702 C 0.93322 0.12766 0.4974 0.0
C703 C 0.92907 0.16928 0.34401 0.0
C704 C 0.94952 0.16881 0.31399 0.0
C705 C 0.9162 0.18686 0.32939 0.0
C706 C 0.89433 0.18779 0.35846 0.0
C707 C 0.8898 0.18571 0.44061 0.0
C708 C 0.8691 0.18665 0.46745 0.0
C709 C 0.8528 0.18981 0.41274 0.0
C710 C 0.85719 0.1921 0.33108 0.0
C711 C 0.87787 0.19116 0.30394 0.0
H712 H 0.83679 0.19054 0.43364 0.0
H713 H 0.03568 0.17366 0.16414 0.0
H714 H 0.2869 0.99774 0.31326 0.0
H715 H 0.31757 0.97597 0.34526 0.0
H716 H 0.31699 0.95119 0.10522 0.0
H717 H 0.28566 0.9724 0.07395 0.0
H718 H 0.32122 0.92891 0.3262 0.0
H719 H 0.37418 0.95571 0.06252 0.0
H720 H 0.38728 0.98711 0.99213 0.0
H721 H 0.36427 0.02616 0.18187 0.0
H722 H 0.35121 0.99505 0.25359 0.0
H723 H 0.44572 0.92477 0.29622 0.0
H724 H 0.41181 0.91476 0.23967 0.0
H725 H 0.38141 0.93456 0.45785 0.0
H726 H 0.41494 0.94408 0.51442 0.0
H727 H 0.39056 0.94833 0.21639 0.0
H728 H 0.33147 0.92366 0.46855 0.0
H729 H 0.32826 0.89601 0.57108 0.0
H730 H 0.36942 0.85636 0.4359 0.0
H731 H 0.37266 0.88363 0.33176 0.0
C732 C 0.29319 0.98735 0.26799 0.0
C733 C 0.2838 0.9862 0.19204 0.0
C734 C 0.31061 0.97503 0.28605 0.0
C735 C 0.31928 0.96192 0.22745 0.0
C736 C 0.31033 0.96122 0.15075 0.0
C737 C 0.2926 0.97325 0.13314 0.0
C738 C 0.33804 0.9494 0.24642 0.0
C739 C 0.33647 0.93298 0.30233 0.0
C740 C 0.35766 0.95431 0.21279 0.0
C741 C 0.36125 0.97308 0.16237 0.0
C742 C 0.3714 0.97106 0.08804 0.0
C743 C 0.37899 0.98879 0.0483 0.0
C744 C 0.37655 1.0086 0.08253 0.0
C745 C 0.36599 1.0108 0.15526 0.0
C746 C 0.35833 0.99314 0.19515 0.0
C747 C 0.43184 0.92607 0.33318 0.0
C748 C 0.43283 0.93576 0.40865 0.0
C749 C 0.41251 0.92014 0.30121 0.0
C750 C 0.39397 0.92421 0.34385 0.0
C751 C 0.39538 0.93102 0.42372 0.0
C752 C 0.41468 0.9367 0.45598 0.0
C753 C 0.37423 0.92829 0.29958 0.0
C754 C 0.37536 0.94325 0.23799 0.0
C755 C 0.35442 0.92238 0.32998 0.0
C756 C 0.35231 0.90577 0.3921 0.0
C757 C 0.33969 0.90899 0.46014 0.0
C758 C 0.33791 0.89338 0.51875 0.0
C759 C 0.34864 0.87444 0.51003 0.0
C760 C 0.36115 0.87106 0.44265 0.0
C761 C 0.363 0.88661 0.38387 0.0
H762 H 0.34724 0.86239 0.5555 0.0
H763 H 0.38316 0.0222 0.05353 0.0
H764 H 0.57718 0.27512 0.19258 0.0
H765 H 0.59687 0.30747 0.2207 0.0
H766 H 0.53893 0.34224 0.22549 0.0
H767 H 0.51939 0.3099 0.19605 0.0
H768 H 0.59446 0.34786 0.12585 0.0
H769 H 0.54507 0.37308 0.39837 0.0
H770 H 0.52504 0.35688 0.50864 0.0
H771 H 0.56415 0.30222 0.49779 0.0
H772 H 0.58468 0.31826 0.38862 0.0
H773 H 0.57755 0.45353 0.19663 0.0
H774 H 0.58469 0.41733 0.16212 0.0
H775 H 0.61555 0.40814 0.38963 0.0
H776 H 0.60737 0.4441 0.42661 0.0
H777 H 0.58389 0.38468 0.38428 0.0
H778 H 0.63883 0.39566 0.19547 0.0
H779 H 0.6569 0.41305 0.08295 0.0
H780 H 0.60658 0.39645 0.92439 0.0
H781 H 0.58798 0.37933 0.03608 0.0
C782 C 0.56881 0.28974 0.20035 0.0
C783 C 0.54695 0.29033 0.1932 0.0
C784 C 0.57997 0.30808 0.2156 0.0
C785 C 0.56927 0.32706 0.22532 0.0
C786 C 0.54737 0.32762 0.21848 0.0
C787 C 0.53626 0.30932 0.20206 0.0
C788 C 0.5808 0.34641 0.24357 0.0
C789 C 0.59251 0.35594 0.18255 0.0
C790 C 0.57838 0.3565 0.31812 0.0
C791 C 0.56633 0.34683 0.38479 0.0
C792 C 0.54948 0.35765 0.4198 0.0
C793 C 0.53803 0.34849 0.48212 0.0
C794 C 0.54328 0.32851 0.51008 0.0
C795 C 0.56005 0.31767 0.47592 0.0
C796 C 0.57159 0.32679 0.41375 0.0
C797 C 0.5865 0.44403 0.23817 0.0
C798 C 0.59123 0.45144 0.31531 0.0
C799 C 0.59081 0.42332 0.21793 0.0
C800 C 0.60029 0.40982 0.27376 0.0
C801 C 0.60796 0.41819 0.34591 0.0
C802 C 0.60338 0.43886 0.36678 0.0
C803 C 0.59725 0.38688 0.26547 0.0
C804 C 0.58676 0.37656 0.32828 0.0
C805 C 0.60072 0.37619 0.19228 0.0
C806 C 0.61205 0.38612 0.12434 0.0
C807 C 0.63158 0.39576 0.13667 0.0
C808 C 0.6419 0.4056 0.07301 0.0
C809 C 0.63289 0.40585 0.99659 0.0
C810 C 0.61355 0.39622 0.9836 0.0
C811 C 0.60314 0.38639 0.04704 0.0
H812 H 0.64089 0.41351 0.94742 0.0
H813 H 0.53439 0.32144 0.55829 0.0
H814 H 0.25134 0.47656 0.25874 0.0
H815 H 0.21661 0.462 0.28314 0.0
H816 H 0.21038 0.44825 0.03144 0.0
H817 H 0.24538 0.46258 0.00703 0.0
H818 H 0.18173 0.47624 0.08311 0.0
H819 H 0.20294 0.40876 0.15946 0.0
H820 H 0.2242 0.38147 0.22549 0.0
H821 H 0.20557 0.4044 0.45657 0.0
H822 H 0.18446 0.43205 0.39211 0.0
H823 H 0.07651 0.45821 0.29499 0.0
H824 H 0.10806 0.4407 0.24168 0.0
H825 H 0.14451 0.49579 0.29616 0.0
H826 H 0.11329 0.51333 0.34642 0.0
H827 H 0.15245 0.43414 0.30703 0.0
H828 H 0.1646 0.511 0.13414 0.0
H829 H 0.1421 0.53917 0.08068 0.0
H830 H 0.09235 0.49496 0.0448 0.0
H831 H 0.11522 0.46629 0.09152 0.0
C832 C 0.24297 0.46937 0.20945 0.0
C833 C 0.25084 0.47066 0.1311 0.0
C834 C 0.22312 0.46108 0.22326 0.0
C835 C 0.21087 0.45405 0.15877 0.0
C836 C 0.21958 0.45353 0.08164 0.0
C837 C 0.23952 0.46167 0.06786 0.0
C838 C 0.188 0.45191 0.16996 0.0
C839 C 0.17516 0.46638 0.12975 0.0
C840 C 0.17943 0.43912 0.23108 0.0
C841 C 0.19209 0.42253 0.27076 0.0
C842 C 0.20347 0.40808 0.22438 0.0
C843 C 0.21548 0.39252 0.26155 0.0
C844 C 0.21623 0.3912 0.34517 0.0
C845 C 0.20495 0.40542 0.39179 0.0
C846 C 0.1929 0.42102 0.35493 0.0
C847 C 0.09137 0.46639 0.29561 0.0
C848 C 0.09258 0.48723 0.32246 0.0
C849 C 0.1093 0.45635 0.2662 0.0
C850 C 0.12846 0.46708 0.26467 0.0
C851 C 0.12978 0.48737 0.29634 0.0
C852 C 0.11196 0.49745 0.32412 0.0
C853 C 0.1468 0.45879 0.22155 0.0
C854 C 0.15878 0.44282 0.25663 0.0
C855 C 0.15453 0.46978 0.15422 0.0
C856 C 0.14181 0.48645 0.1151 0.0
C857 C 0.14923 0.50715 0.11143 0.0
C858 C 0.13633 0.52324 0.08289 0.0
C859 C 0.11578 0.51886 0.05964 0.0
C860 C 0.10827 0.49833 0.06301 0.0
C861 C 0.12131 0.48212 0.08922 0.0
H862 H 0.10562 0.53136 0.03924 0.0
H863 H 0.22554 0.37914 0.37384 0.0
H864 H 0.06351 0.78338 0.16404 0.0
H865 H 0.08426 0.81552 0.15537 0.0
H866 H 0.08423 0.82 0.4127 0.0
H867 H 0.06438 0.78735 0.42201 0.0
H868 H 0.05773 0.84923 0.30359 0.0
H869 H 0.12647 0.82581 0.36331 0.0
H870 H 0.15767 0.80334 0.35014 0.0
H871 H 0.16558 0.82374 0.10642 0.0
H872 H 0.13422 0.84609 0.11763 0.0
H873 H 0.07025 0.95358 0.22588 0.0
H874 H 0.08083 0.92197 0.29753 0.0
H875 H 0.10383 0.89543 0.07679 0.0
H876 H 0.09447 0.92752 0.00543 0.0
H877 H 0.12446 0.87854 0.20227 0.0
H878 H 0.05354 0.89127 0.1222 0.0
H879 H 0.01992 0.91014 0.11384 0.0
H880 H 1.01265 0.9051 0.36911 0.0
H881 H 0.04643 0.88676 0.379 0.0
C882 C 0.06908 0.79057 0.2188 0.0
C883 C 0.06229 0.78316 0.2937 0.0
C884 C 0.08093 0.8089 0.21389 0.0
C885 C 0.08582 0.82008 0.28375 0.0
C886 C 0.08087 0.81147 0.35867 0.0
C887 C 0.06941 0.79294 0.36376 0.0
C888 C 0.08989 0.84273 0.2768 0.0
C889 C 0.07245 0.85584 0.28403 0.0
C890 C 0.109 0.85092 0.24841 0.0
C891 C 0.12788 0.83753 0.24118 0.0
C892 C 0.13473 0.82536 0.30662 0.0
C893 C 0.15248 0.81268 0.29957 0.0
C894 C 0.16358 0.81208 0.22745 0.0
C895 C 0.15696 0.82421 0.16225 0.0
C896 C 0.13922 0.83692 0.16897 0.0
C897 C 0.07834 0.94141 0.19302 0.0
C898 C 0.08094 0.94279 0.10937 0.0
C899 C 0.08436 0.92331 0.23417 0.0
C900 C 0.09256 0.90616 0.19201 0.0
C901 C 0.09735 0.90841 0.11038 0.0
C902 C 0.09163 0.92662 0.06938 0.0
C903 C 0.09199 0.88491 0.22772 0.0
C904 C 0.10991 0.87211 0.22493 0.0
C905 C 0.07297 0.87655 0.25728 0.0
C906 C 0.05276 0.88799 0.25169 0.0
C907 C 0.04491 0.89446 0.17671 0.0
C908 C 0.02579 0.90506 0.17164 0.0
C909 C 1.01419 0.90895 0.24102 0.0
C910 C 0.02169 0.90223 0.31552 0.0
C911 C 0.04086 0.89178 0.32092 0.0
H912 H 0.99936 0.91709 0.23702 0.0
H913 H 0.17731 0.80226 0.22211 0.0
H914 H 0.75386 0.08082 0.43178 0.0
H915 H 0.72246 0.10353 0.42132 0.0
H916 H 0.70657 0.07349 0.19739 0.0
H917 H 0.738 0.05187 0.2069 0.0
H918 H 0.70211 0.11801 0.19629 0.0
H919 H 0.69565 0.06255 0.41761 0.0
H920 H 0.69765 0.05354 0.56145 0.0
H921 H 0.65776 0.10523 0.6192 0.0
H922 H 0.65631 0.1154 0.47682 0.0
H923 H 0.61686 0.07671 0.02372 0.0
H924 H 0.64807 0.08887 0.09164 0.0
H925 H 0.61074 0.10953 0.29208 0.0
H926 H 0.57912 0.09687 0.22395 0.0
H927 H 0.64117 0.0922 0.35096 0.0
H928 H 0.63948 0.14602 0.16882 0.0
H929 H 0.63403 0.16539 0.04249 0.0
H930 H 0.68506 0.13209 0.93412 0.0
H931 H 0.69061 0.11222 0.0592 0.0
C932 C 0.74369 0.07957 0.38002 0.0
C933 C 0.74801 0.06483 0.31983 0.0
C934 C 0.72587 0.0924 0.37414 0.0
C935 C 0.71211 0.09009 0.30886 0.0
C936 C 0.71695 0.07562 0.2482 0.0
C937 C 0.73478 0.06324 0.25345 0.0
C938 C 0.692 0.10148 0.30196 0.0
C939 C 0.68868 0.11279 0.23069 0.0
C940 C 0.67453 0.0964 0.35055 0.0
C941 C 0.67628 0.09005 0.43612 0.0
C942 C 0.68772 0.07236 0.46084 0.0
C943 C 0.6887 0.06697 0.54221 0.0
C944 C 0.67789 0.07874 0.59915 0.0
C945 C 0.6662 0.09612 0.57512 0.0
C946 C 0.66542 0.10179 0.49419 0.0
C947 C 0.61516 0.0844 0.08122 0.0
C948 C 0.59551 0.08603 0.11814 0.0
C949 C 0.63308 0.09149 0.12007 0.0
C950 C 0.6318 0.10081 0.19623 0.0
C951 C 0.61213 0.1027 0.23292 0.0
C952 C 0.59411 0.0954 0.19415 0.0
C953 C 0.65141 0.10614 0.23966 0.0
C954 C 0.65439 0.09829 0.31756 0.0
C955 C 0.66847 0.11564 0.19965 0.0
C956 C 0.6655 0.12765 0.12387 0.0
C957 C 0.64951 0.14275 0.11802 0.0
C958 C 0.64639 0.15382 0.04654 0.0
C959 C 0.65921 0.14999 0.98036 0.0
C960 C 0.67518 0.13509 0.98555 0.0
C961 C 0.67836 0.12396 0.05688 0.0
H962 H 0.65676 0.15857 0.92504 0.0
H963 H 0.67855 0.07436 0.66187 0.0
H964 H 0.50578 0.75326 0.21158 0.0
H965 H 0.49468 0.71902 0.16673 0.0
H966 H 0.44029 0.72275 0.32046 0.0
H967 H 0.45207 0.75757 0.36584 0.0
H968 H 0.45829 0.68916 0.35262 0.0
H969 H 0.43656 0.71438 0.09982 0.0
H970 H 0.43696 0.73576 0.97636 0.0
H971 H 0.49587 0.70863 0.90907 0.0
H972 H 0.49593 0.68724 0.03233 0.0
H973 H 0.45954 0.58174 0.17732 0.0
H974 H 0.44798 0.6165 0.21956 0.0
H975 H 0.51062 0.64012 0.18755 0.0
H976 H 0.52262 0.60525 0.14858 0.0
H977 H 0.4738 0.65789 0.08735 0.0
H978 H 0.49668 0.63725 0.35585 0.0
H979 H 0.49429 0.61431 0.47429 0.0
H980 H 0.43069 0.63367 0.51178 0.0
H981 H 0.43231 0.65586 0.39052 0.0
C982 C 0.49112 0.74693 0.23341 0.0
C983 C 0.47976 0.7576 0.2918 0.0
C984 C 0.48461 0.72736 0.20772 0.0
C985 C 0.46648 0.71809 0.23981 0.0
C986 C 0.45429 0.72953 0.29468 0.0
C987 C 0.46091 0.74931 0.32047 0.0
C988 C 0.46284 0.69543 0.22628 0.0
C989 C 0.46091 0.68234 0.29395 0.0
C990 C 0.46614 0.68634 0.14995 0.0
C991 C 0.46614 0.69906 0.07515 0.0
C992 C 0.4496 0.71298 0.05872 0.0
C993 C 0.44975 0.72511 0.98875 0.0
C994 C 0.46639 0.72351 0.93479 0.0
C995 C 0.48294 0.7098 0.95075 0.0
C996 C 0.48283 0.69758 0.02045 0.0
C997 C 0.47109 0.59408 0.18253 0.0
C998 C 0.49199 0.59081 0.1586 0.0
C999 C 0.46436 0.61395 0.20591 0.0
C1000 C 0.47842 0.63073 0.20524 0.0
C1001 C 0.49957 0.62724 0.18747 0.0
C1002 C 0.50637 0.60736 0.16522 0.0
C1003 C 0.47091 0.65234 0.2141 0.0
C1004 C 0.47037 0.66488 0.14513 0.0
C1005 C 0.46515 0.66082 0.2889 0.0
C1006 C 0.46447 0.64788 0.36294 0.0
C1007 C 0.48205 0.63635 0.38834 0.0
C1008 C 0.48085 0.62351 0.45619 0.0
C1009 C 0.46236 0.62254 0.50063 0.0
C1010 C 0.445 0.63439 0.47718 0.0
C1011 C 0.44601 0.64701 0.40859 0.0
H1012 H 0.46147 0.61261 0.55324 0.0
H1013 H 0.46648 0.73292 0.88068 0.0
H1014 H 0.79611 0.51001 0.22717 0.0
H1015 H 0.82964 0.49298 0.19974 0.0
H1016 H 0.80366 0.43349 0.27315 0.0
H1017 H 0.76984 0.45085 0.30008 0.0
H1018 H 0.85502 0.47353 0.30298 0.0
H1019 H 0.83095 0.39547 0.16048 0.0
H1020 H 0.80142 0.38 0.08538 0.0
H1021 H 0.78578 0.44057 0.98964 0.0
H1022 H 0.81534 0.4563 0.06333 0.0
H1023 H 0.953 0.43991 0.18746 0.0
H1024 H 0.91889 0.43065 0.2448 0.0
H1025 H 0.88915 0.44571 0.01924 0.0
H1026 H 0.92286 0.45428 0.96169 0.0
H1027 H 0.86561 0.4187 0.09631 0.0
H1028 H 0.90127 0.48536 0.15987 0.0
H1029 H 0.93159 0.50457 0.21481 0.0
H1030 H 0.92348 0.4737 0.44187 0.0
H1031 H 0.89314 0.45427 0.38795 0.0
C1032 C 0.79763 0.49328 0.23644 0.0
C1033 C 0.78071 0.48161 0.26541 0.0
C1034 C 0.81671 0.48359 0.22151 0.0
C1035 C 0.81917 0.46201 0.23512 0.0
C1036 C 0.80204 0.45015 0.26217 0.0
C1037 C 0.78282 0.45994 0.27704 0.0
C1038 C 0.83988 0.45239 0.2206 0.0
C1039 C 0.8573 0.46123 0.25895 0.0
C1040 C 0.84285 0.43635 0.16331 0.0
C1041 C 0.82513 0.42707 0.11836 0.0
C1042 C 0.82119 0.40545 0.12335 0.0
C1043 C 0.80447 0.39665 0.081 0.0
C1044 C 0.79167 0.40931 0.03308 0.0
C1045 C 0.79563 0.43079 0.02709 0.0
C1046 C 0.81235 0.43966 0.06922 0.0
C1047 C 0.93923 0.44046 0.14954 0.0
C1048 C 0.9405 0.44821 0.07069 0.0
C1049 C 0.91978 0.43512 0.18219 0.0
C1050 C 0.90141 0.43809 0.13696 0.0
C1051 C 0.90305 0.44334 0.05548 0.0
C1052 C 0.92243 0.44832 0.02257 0.0
C1053 C 0.88075 0.44047 0.17624 0.0
C1054 C 0.86329 0.43028 0.14302 0.0
C1055 C 0.87764 0.45587 0.23618 0.0
C1056 C 0.89515 0.46826 0.26981 0.0
C1057 C 0.90596 0.48274 0.22156 0.0
C1058 C 0.92315 0.49362 0.25242 0.0
C1059 C 0.92951 0.4903 0.33168 0.0
C1060 C 0.91857 0.47621 0.38042 0.0
C1061 C 0.90136 0.4653 0.34984 0.0
H1062 H 0.94284 0.49871 0.35546 0.0
H1063 H 0.77873 0.40246 1.00039 0.0
H1064 H 0.02296 0.24381 0.14422 0.0
H1065 H 0.0277 0.20981 0.07907 0.0
H1066 H 0.9957 0.23298 0.86871 0.0
H1067 H 0.99117 0.26715 0.9349 0.0
H1068 H 0.9805 0.19704 0.89835 0.0
H1069 H 0.05112 0.22033 0.88083 0.0
H1070 H 0.08474 0.23463 0.9285 0.0
H1071 H 0.09206 0.18224 0.08826 0.0
H1072 H 0.05838 0.16772 0.04215 0.0
H1073 H 0.99943 0.10135 0.68391 0.0
H1074 H 0.9999 0.13814 0.72606 0.0
H1075 H 0.02665 0.11999 0.95342 0.0
H1076 H 0.0267 0.08339 0.91108 0.0
H1077 H 0.04534 0.15435 0.90372 0.0
H1078 H 0.97252 0.1336 0.92694 0.0
H1079 H 0.93975 0.11897 0.87301 0.0
H1080 H 0.93792 0.16714 0.69271 0.0
H1081 H 0.97089 0.18194 0.7453 0.0
C1082 C 0.0175 0.24173 0.08322 0.0
C1083 C 1.00715 0.25822 0.04383 0.0
C1084 C 0.02003 0.22218 0.0459 0.0
C1085 C 1.01208 0.21843 0.96824 0.0
C1086 C 1.00204 0.23518 0.92839 0.0
C1087 C 0.99965 0.25483 0.96569 0.0
C1088 C 1.01318 0.19686 0.93088 0.0
C1089 C 0.99486 0.18797 0.89833 0.0
C1090 C 0.03169 0.18448 0.93139 0.0
C1091 C 0.05207 0.19307 0.95871 0.0
C1092 C 0.05982 0.21193 0.92656 0.0
C1093 C 0.07891 0.22006 0.95321 0.0
C1094 C 0.0905 0.20939 0.01157 0.0
C1095 C 0.08305 0.19052 0.04318 0.0
C1096 C 0.06397 0.18232 0.01674 0.0
C1097 C 1.00547 0.10515 0.74285 0.0
C1098 C 1.01298 0.08917 0.79388 0.0
C1099 C 1.00563 0.1263 0.76724 0.0
C1100 C 1.01307 0.13211 0.84377 0.0
C1101 C 0.02082 0.11617 0.89417 0.0
C1102 C 0.02076 0.0951 0.86976 0.0
C1103 C 1.01269 0.15459 0.87214 0.0
C1104 C 0.0311 0.16359 0.90318 0.0
C1105 C 0.99437 0.16717 0.86943 0.0
C1106 C 0.97422 0.15876 0.83962 0.0
C1107 C 0.96513 0.14104 0.87572 0.0
C1108 C 0.94652 0.13273 0.84538 0.0
C1109 C 0.93673 0.14211 0.77936 0.0
C1110 C 0.94551 0.1599 0.74385 0.0
C1111 C 0.96414 0.16828 0.77397 0.0
H1112 H 0.92236 0.13562 0.7557 0.0
H1113 H 0.10527 0.21572 0.03215 0.0
H1114 H 0.26887 1.01043 0.95605 0.0
H1115 H 0.30116 0.01629 0.87885 0.0
H1116 H 0.33267 0.03535 0.09586 0.0
H1117 H 0.30032 0.03012 0.1714 0.0
H1118 H 0.34755 0.05738 0.9842 0.0
H1119 H 0.33208 0.98186 0.99826 0.0
H1120 H 0.31159 0.95001 0.967 0.0
H1121 H 0.31716 0.96276 0.71535 0.0
H1122 H 0.33744 0.99472 0.74459 0.0
H1123 H 0.4541 0.03188 0.92542 0.0
H1124 H 0.41744 0.03389 0.96618 0.0
H1125 H 0.39807 0.01931 0.72485 0.0
H1126 H 0.43476 0.01686 0.68388 0.0
H1127 H 0.37497 0.99792 0.82496 0.0
H1128 H 0.39315 0.06994 0.80546 0.0
H1129 H 0.41422 0.1017 0.82902 0.0
H1130 H 0.40341 0.09641 0.08244 0.0
H1131 H 0.38251 0.06444 0.06055 0.0
C1132 C 0.28261 0.0164 0.98642 0.0
C1133 C 0.28207 0.02 0.06957 0.0
C1134 C 0.30123 0.0194 0.94266 0.0
C1135 C 0.31987 0.02558 0.98151 0.0
C1136 C 0.31886 0.0302 0.06398 0.0
C1137 C 0.30029 0.02735 0.10733 0.0
C1138 C 0.34064 0.02658 0.93861 0.0
C1139 C 0.3535 0.04426 0.94984 0.0
C1140 C 0.34844 1.00997 0.89037 0.0
C1141 C 0.33612 0.99079 0.87366 0.0
C1142 C 0.32887 0.97791 0.93631 0.0
C1143 C 0.3173 0.95986 0.91901 0.0
C1144 C 0.31307 0.95443 0.83951 0.0
C1145 C 0.32041 0.96701 0.77694 0.0
C1146 C 0.33193 0.98508 0.7938 0.0
C1147 C 0.44211 0.02918 0.88066 0.0
C1148 C 0.44762 0.02428 0.80104 0.0
C1149 C 0.42102 0.03047 0.90408 0.0
C1150 C 0.40473 0.02712 0.84853 0.0
C1151 C 0.41018 0.02208 0.76911 0.0
C1152 C 0.43128 0.02073 0.74565 0.0
C1153 C 0.38214 0.02823 0.87407 0.0
C1154 C 0.3689 1.01111 0.85865 0.0
C1155 C 0.37394 0.04539 0.91788 0.0
C1156 C 0.38636 0.06471 0.93134 0.0
C1157 C 0.39537 0.07547 0.86626 0.0
C1158 C 0.40727 0.09353 0.87932 0.0
C1159 C 0.41018 0.10105 0.95719 0.0
C1160 C 0.40115 0.09056 0.02216 0.0
C1161 C 0.38925 0.07249 0.00945 0.0
H1162 H 0.4194 0.11503 0.96717 0.0
H1163 H 0.30412 0.94045 0.82638 0.0
H1164 H 0.49079 0.28588 0.04319 0.0
H1165 H 0.4888 0.31816 0.9618 0.0
H1166 H 0.55612 0.31934 0.94582 0.0
H1167 H 0.55794 0.28688 0.02461 0.0
H1168 H 0.54095 0.35699 0.99777 0.0
H1169 H 0.52813 0.31036 0.77966 0.0
H1170 H 0.51076 0.2817 0.70629 0.0
H1171 H 0.45235 0.31492 0.71598 0.0
H1172 H 0.46933 0.34369 0.79025 0.0
H1173 H 0.52697 0.43706 0.64584 0.0
H1174 H 0.52939 0.40028 0.69082 0.0
H1175 H 0.502 0.41729 0.91748 0.0
H1176 H 0.49956 0.45358 0.87389 0.0
H1177 H 0.50029 0.36967 0.74834 0.0
H1178 H 0.527 0.39355 0.0645 0.0
H1179 H 0.54466 0.42372 0.12759 0.0
H1180 H 0.57893 0.43515 0.9105 0.0
H1181 H 0.5615 0.40505 0.8462 0.0
C1182 C 0.50506 0.29262 0.01954 0.0
C1183 C 0.52451 0.28373 0.03988 0.0
C1184 C 0.50397 0.31123 0.97366 0.0
C1185 C 0.52233 0.32148 0.94772 0.0
C1186 C 0.54169 0.31198 0.96508 0.0
C1187 C 0.54273 0.29329 0.00966 0.0
C1188 C 0.52154 0.34265 0.90734 0.0
C1189 C 0.53205 0.35963 0.94319 0.0
C1190 C 0.51028 0.34639 0.83521 0.0
C1191 C 0.49996 0.32907 0.79126 0.0
C1192 C 0.51153 0.31146 0.76683 0.0
C1193 C 0.50177 0.29522 0.72489 0.0
C1194 C 0.48045 0.29646 0.7067 0.0
C1195 C 0.46886 0.31397 0.73023 0.0
C1196 C 0.47855 0.33026 0.77216 0.0
C1197 C 0.52127 0.43293 0.70493 0.0
C1198 C 0.5132 0.44856 0.75605 0.0
C1199 C 0.52263 0.41183 0.73062 0.0
C1200 C 0.51612 0.40588 0.80822 0.0
C1201 C 0.50742 0.42134 0.85787 0.0
C1202 C 0.50601 0.44225 0.83243 0.0
C1203 C 0.51922 0.38394 0.83999 0.0
C1204 C 0.50919 0.36691 0.80279 0.0
C1205 C 0.53115 0.38003 0.91035 0.0
C1206 C 0.54283 0.39715 0.95047 0.0
C1207 C 0.53844 0.40239 0.03052 0.0
C1208 C 0.54831 0.41955 0.06627 0.0
C1209 C 0.56281 0.43141 0.02286 0.0
C1210 C 0.5676 0.42603 0.94386 0.0
C1211 C 0.55772 0.40894 0.90772 0.0
H1212 H 0.5704 0.44471 0.05053 0.0
H1213 H 0.47292 0.28387 0.6742 0.0
H1214 H 0.22869 0.51023 0.13762 0.0
H1215 H 0.19524 0.51439 0.06714 0.0
H1216 H 0.22735 0.51396 0.84061 0.0
H1217 H 0.26096 0.5086 0.91127 0.0
H1218 H 0.18707 0.5488 0.9158 0.0
H1219 H 0.21092 0.48142 0.81237 0.0
H1220 H 0.2229 0.44479 0.81265 0.0
H1221 H 0.16979 0.42704 0.95493 0.0
H1222 H 0.15802 0.46379 0.95853 0.0
H1223 H 0.09145 0.54468 0.67893 0.0
H1224 H 0.12841 0.54305 0.72088 0.0
H1225 H 0.11228 0.4978 0.90248 0.0
H1226 H 0.07544 0.50033 0.86449 0.0
H1227 H 0.14632 0.48612 0.83628 0.0
H1228 H 0.12225 0.55285 0.93797 0.0
H1229 H 0.10795 0.58862 0.92754 0.0
H1230 H 0.15928 0.60658 0.77626 0.0
H1231 H 0.17376 0.57079 0.78524 0.0
C1232 C 0.22863 0.51108 0.07276 0.0
C1233 C 0.2475 0.50889 0.03007 0.0
C1234 C 0.20942 0.51325 0.03242 0.0
C1235 C 0.20845 0.51355 0.94825 0.0
C1236 C 0.22745 0.51295 0.90544 0.0
C1237 C 0.24674 0.51032 0.94585 0.0
C1238 C 0.18756 0.51519 0.90664 0.0
C1239 C 0.17832 0.53507 0.89719 0.0
C1240 C 0.17574 0.49732 0.88359 0.0
C1241 C 0.18408 0.47564 0.88863 0.0
C1242 C 0.20228 0.46994 0.84669 0.0
C1243 C 0.20888 0.44905 0.84518 0.0
C1244 C 0.19716 0.43358 0.88395 0.0
C1245 C 0.17889 0.43901 0.92491 0.0
C1246 C 0.17236 0.45991 0.92729 0.0
C1247 C 0.0958 0.53456 0.72845 0.0
C1248 C 0.08036 0.52287 0.76908 0.0
C1249 C 0.11697 0.53371 0.7528 0.0
C1250 C 0.12329 0.52082 0.81732 0.0
C1251 C 0.10792 0.50849 0.85501 0.0
C1252 C 0.08678 0.50983 0.83264 0.0
C1253 C 0.14574 0.51967 0.84577 0.0
C1254 C 0.15515 0.49988 0.85404 0.0
C1255 C 0.15771 0.53757 0.86712 0.0
C1256 C 0.14897 0.55906 0.86175 0.0
C1257 C 0.13042 0.56437 0.90217 0.0
C1258 C 0.12229 0.58467 0.89655 0.0
C1259 C 0.13267 0.59986 0.8511 0.0
C1260 C 0.15123 0.59479 0.81136 0.0
C1261 C 0.15941 0.5745 0.81675 0.0
H1262 H 0.12636 0.61556 0.84681 0.0
H1263 H 0.20222 0.4174 0.88225 0.0
H1264 H 0.02539 0.81136 0.26114 0.0
H1265 H 0.02215 0.84526 0.33038 0.0
H1266 H 1.01289 0.81302 0.55458 0.0
H1267 H 0.01621 0.77904 0.48519 0.0
H1268 H 0.9847 0.8563 0.46862 0.0
H1269 H 0.04515 0.82667 0.60318 0.0
H1270 H 0.0799 0.81106 0.62529 0.0
H1271 H 0.10819 0.86023 0.48672 0.0
H1272 H 0.07356 0.87576 0.46177 0.0
H1273 H 1.00155 0.94441 0.75073 0.0
H1274 H 1.00176 0.90825 0.69909 0.0
H1275 H 0.02899 0.93003 0.47791 0.0
H1276 H 0.02804 0.96617 0.52761 0.0
H1277 H 0.04845 0.89094 0.57442 0.0
H1278 H 0.98569 0.92111 0.45148 0.0
H1279 H 0.95121 0.93828 0.45702 0.0
H1280 H 0.92757 0.88805 0.60279 0.0
H1281 H 0.96208 0.8707 0.59908 0.0
C1282 C 0.02247 0.81154 0.3251 0.0
C1283 C 0.02106 0.79252 0.36774 0.0
C1284 C 0.021 0.83091 0.36489 0.0
C1285 C 0.01845 0.83182 0.44853 0.0
C1286 C 0.01574 0.81284 0.49059 0.0
C1287 C 0.01723 0.7934 0.45075 0.0
C1288 C 0.01774 0.8527 0.49017 0.0
C1289 C 0.99864 0.86369 0.49258 0.0
C1290 C 0.0359 0.86264 0.52153 0.0
C1291 C 0.05648 0.85191 0.52768 0.0
C1292 C 0.05861 0.83369 0.57458 0.0
C1293 C 0.07839 0.82503 0.5888 0.0
C1294 C 0.09626 0.83465 0.55755 0.0
C1295 C 0.09435 0.8528 0.5111 0.0
C1296 C 0.07459 0.86142 0.49626 0.0
C1297 C 1.00759 0.94149 0.69112 0.0
C1298 C 1.01472 0.95828 0.64334 0.0
C1299 C 1.00764 0.92081 0.66154 0.0
C1300 C 0.01527 0.91636 0.58427 0.0
C1301 C 0.0229 0.93301 0.53741 0.0
C1302 C 0.02233 0.95371 0.56601 0.0
C1303 C 0.01554 0.89439 0.55227 0.0
C1304 C 0.03455 0.88337 0.55085 0.0
C1305 C 0.99728 0.88424 0.52382 0.0
C1306 C 0.97658 0.89471 0.52579 0.0
C1307 C 0.97325 0.91381 0.48543 0.0
C1308 C 0.95366 0.92356 0.48806 0.0
C1309 C 0.93722 0.9143 0.53045 0.0
C1310 C 0.94033 0.89523 0.5701 0.0
C1311 C 0.9599 0.88543 0.5677 0.0
H1312 H 0.92207 0.92187 0.53238 0.0
H1313 H 0.11157 0.82799 0.56901 0.0
H1314 H 0.75348 0.02938 0.50914 0.0
H1315 H 0.71906 0.02245 0.56821 0.0
H1316 H 0.69446 1.00862 0.33284 0.0
H1317 H 0.7292 1.0153 0.27482 0.0
H1318 H 0.66945 0.03441 0.3989 0.0
H1319 H 0.69969 0.97066 0.49336 0.0
H1320 H 0.7258 0.94799 0.5596 0.0
H1321 H 0.71558 0.97991 0.78264 0.0
H1322 H 0.6896 1.00297 0.71748 0.0
H1323 H 0.56908 1.00699 0.53286 0.0
H1324 H 0.60466 1.00619 0.48116 0.0
H1325 H 0.62839 0.02474 0.71252 0.0
H1326 H 0.59252 0.02534 0.76566 0.0
H1327 H 0.65325 0.99481 0.64744 0.0
H1328 H 0.62691 0.06053 0.55975 0.0
H1329 H 0.60007 0.08389 0.50186 0.0
H1330 H 0.60456 0.05171 0.27661 0.0
H1331 H 0.63129 0.02796 0.33356 0.0
C1332 C 0.74083 0.02415 0.47082 0.0
C1333 C 0.74399 0.0225 0.38789 0.0
C1334 C 0.72107 0.02024 0.50433 0.0
C1335 C 0.70384 1.01495 0.45538 0.0
C1336 C 0.70729 1.01267 0.37239 0.0
C1337 C 0.72717 0.01631 0.33916 0.0
C1338 C 0.68204 1.01372 0.48947 0.0
C1339 C 0.66602 0.02554 0.45284 0.0
C1340 C 0.67724 1.00254 0.5609 0.0
C1341 C 0.69281 0.98866 0.60034 0.0
C1342 C 0.70311 0.97295 0.5564 0.0
C1343 C 0.71788 0.96001 0.59378 0.0
C1344 C 0.72238 0.96254 0.67524 0.0
C1345 C 0.71209 0.97798 0.71953 0.0
C1346 C 0.69732 0.99097 0.68243 0.0
C1347 C 0.58176 1.01092 0.57329 0.0
C1348 C 0.57771 0.01635 0.65373 0.0
C1349 C 0.60223 1.01052 0.54325 0.0
C1350 C 0.61938 1.01568 0.5923 0.0
C1351 C 0.61551 0.02072 0.67315 0.0
C1352 C 0.59493 0.02112 0.70346 0.0
C1353 C 0.64114 0.016 0.55818 0.0
C1354 C 0.65695 1.00385 0.59414 0.0
C1355 C 0.64601 0.02737 0.48746 0.0
C1356 C 0.63082 0.04225 0.45132 0.0
C1357 C 0.6221 0.05838 0.49797 0.0
C1358 C 0.60691 0.07167 0.46538 0.0
C1359 C 0.60042 0.0691 0.386 0.0
C1360 C 0.60947 0.05354 0.33838 0.0
C1361 C 0.62468 0.04018 0.37073 0.0
H1362 H 0.58843 0.07922 0.36139 0.0
H1363 H 0.73382 0.95251 0.70406 0.0
H1364 H 0.54099 0.75019 0.37782 0.0
H1365 H 0.54567 0.71525 0.43855 0.0
H1366 H 0.48323 0.71873 0.53609 0.0
H1367 H 0.47932 0.75392 0.47991 0.0
H1368 H 0.50434 0.70021 0.63991 0.0
H1369 H 0.50065 0.68869 0.35122 0.0
H1370 H 0.51087 0.68864 0.20815 0.0
H1371 H 0.57167 0.66538 0.27099 0.0
H1372 H 0.56149 0.66428 0.41367 0.0
H1373 H 0.48571 0.59145 0.71735 0.0
H1374 H 0.48599 0.62816 0.67438 0.0
H1375 H 0.54674 0.61899 0.56675 0.0
H1376 H 0.54542 0.58194 0.60341 0.0
H1377 H 0.52886 0.64105 0.47299 0.0
H1378 H 0.53314 0.65017 0.75888 0.0
H1379 H 0.52174 0.64417 0.89846 0.0
H1380 H 0.46197 0.67168 0.84493 0.0
H1381 H 0.47294 0.6777 0.70485 0.0
C1382 C 0.52856 0.74368 0.41422 0.0
C1383 C 0.50981 0.75493 0.4245 0.0
C1384 C 0.53102 0.72342 0.44771 0.0
C1385 C 0.51463 0.71372 0.49107 0.0
C1386 C 0.49623 0.72545 0.50329 0.0
C1387 C 0.49394 0.74567 0.47096 0.0
C1388 C 0.51623 0.69153 0.52364 0.0
C1389 C 0.50959 0.68731 0.60281 0.0
C1390 C 0.52369 0.67436 0.4776 0.0
C1391 C 0.53032 0.67658 0.39292 0.0
C1392 C 0.51619 0.68368 0.33432 0.0
C1393 C 0.52195 0.68382 0.25344 0.0
C1394 C 0.54195 0.67733 0.23065 0.0
C1395 C 0.5562 0.67049 0.28869 0.0
C1396 C 0.55039 0.66996 0.36947 0.0
C1397 C 0.49919 0.59737 0.68515 0.0
C1398 C 0.51557 0.58371 0.66416 0.0
C1399 C 0.49951 0.61858 0.66114 0.0
C1400 C 0.51665 0.62705 0.61833 0.0
C1401 C 0.5332 0.6133 0.59915 0.0
C1402 C 0.53252 0.59199 0.62061 0.0
C1403 C 0.51696 0.64964 0.58918 0.0
C1404 C 0.52392 0.65395 0.51071 0.0
C1405 C 0.51007 0.66687 0.63622 0.0
C1406 C 0.5038 0.66421 0.72125 0.0
C1407 C 0.51756 0.65494 0.77692 0.0
C1408 C 0.51117 0.65151 0.85604 0.0
C1409 C 0.49109 0.6574 0.88031 0.0
C1410 C 0.47747 0.66701 0.82585 0.0
C1411 C 0.4838 0.67051 0.74668 0.0
H1412 H 0.48611 0.65455 0.94137 0.0
H1413 H 0.54634 0.67746 0.16797 0.0
H1414 H 0.78197 0.48083 0.44081 0.0
H1415 H 0.81611 0.4859 0.50373 0.0
H1416 H 0.81573 0.55063 0.42825 0.0
H1417 H 0.78187 0.54497 0.36075 0.0
H1418 H 0.85185 0.53667 0.39926 0.0
H1419 H 0.81076 0.53273 0.63616 0.0
H1420 H 0.78483 0.51837 0.73094 0.0
H1421 H 0.82133 0.46219 0.75557 0.0
H1422 H 0.84733 0.47609 0.66006 0.0
H1423 H 0.93578 0.53245 0.75561 0.0
H1424 H 0.89919 0.53268 0.71032 0.0
H1425 H 0.91914 0.51368 0.47444 0.0
H1426 H 0.9555 0.51484 0.51788 0.0
H1427 H 0.872 0.50866 0.66605 0.0
H1428 H 0.88643 0.52336 0.32774 0.0
H1429 H 0.91142 0.54181 0.23979 0.0
H1430 H 0.92639 0.58436 0.43064 0.0
H1431 H 0.90126 0.56635 0.5194 0.0
C1432 C 0.78898 0.49627 0.43921 0.0
C1433 C 0.77909 0.51253 0.39638 0.0
C1434 C 0.80857 0.49922 0.47561 0.0
C1435 C 0.81876 0.51876 0.4723 0.0
C1436 C 0.80842 0.53535 0.43224 0.0
C1437 C 0.78885 0.53227 0.39466 0.0
C1438 C 0.8406 0.52137 0.50599 0.0
C1439 C 0.85614 0.53064 0.45792 0.0
C1440 C 0.84655 0.51386 0.58308 0.0
C1441 C 0.83092 0.5054 0.64043 0.0
C1442 C 0.81318 0.51725 0.66133 0.0
C1443 C 0.79848 0.5092 0.71526 0.0
C1444 C 0.80141 0.48936 0.74913 0.0
C1445 C 0.81907 0.47755 0.72924 0.0
C1446 C 0.83381 0.48551 0.67527 0.0
C1447 C 0.93231 0.52843 0.69391 0.0
C1448 C 0.94869 0.52392 0.64024 0.0
C1449 C 0.91128 0.52851 0.66781 0.0
C1450 C 0.90596 0.52366 0.58765 0.0
C1451 C 0.92242 0.51828 0.53541 0.0
C1452 C 0.94339 0.51879 0.5607 0.0
C1453 C 0.8834 0.52383 0.55907 0.0
C1454 C 0.86772 0.51492 0.60779 0.0
C1455 C 0.87718 0.53226 0.48351 0.0
C1456 C 0.89207 0.54342 0.43031 0.0
C1457 C 0.89496 0.53674 0.35075 0.0
C1458 C 0.90917 0.54709 0.30082 0.0
C1459 C 0.92054 0.5642 0.32969 0.0
C1460 C 0.91763 0.57106 0.40845 0.0
C1461 C 0.9034 0.56079 0.4586 0.0
H1462 H 0.93157 0.57217 0.29098 0.0
H1463 H 0.79002 0.48316 0.7909 0.0
loop_
_geom_bond_atom_site_label_1
_geom_bond_atom_site_label_2
_geom_bond_distance
_geom_bond_site_symmetry_2
_ccdc_geom_bond_type
C0 N1 1.317 . S
C0 N2 1.348 . S
C0 C3 1.485 . S
N1 C0 1.317 . S
N1 N5 1.370 . S
N2 C0 1.348 . S
N2 C4 1.346 . S
C3 C0 1.485 . S
C3 H7 0.960 . S
C3 H8 0.961 . S
C3 H9 0.960 . S
C4 N2 1.346 . S
C4 N5 1.307 . S
C4 C6 1.486 . S
N5 N1 1.370 . S
N5 C4 1.307 . S
C6 C4 1.486 . S
C6 H10 0.960 . S
C6 H11 0.960 . S
C6 H12 0.959 . S
H7 C3 0.960 . S
H8 C3 0.961 . S
H9 C3 0.960 . S
H10 C6 0.960 . S
H11 C6 0.960 . S
H12 C6 0.959 . S
C13 N14 1.317 . S
C13 N15 1.350 . S
C13 C16 1.485 . S
N14 C13 1.317 . S
N14 N18 1.371 . S
N15 C13 1.350 . S
N15 C17 1.345 1_655 S
C16 C13 1.485 . S
C16 H20 0.960 1_655 S
C16 H21 0.961 . S
C16 H22 0.960 . S
C17 N15 1.345 1_455 S
C17 N18 1.307 1_455 S
C17 C19 1.486 . S
N18 N14 1.371 . S
N18 C17 1.307 1_655 S
C19 C17 1.486 . S
C19 H23 0.925 1_455 S
C19 H24 0.989 . S
C19 H25 0.967 . S
H20 C16 0.960 1_455 S
H21 C16 0.961 . S
H22 C16 0.960 . S
H23 C19 0.925 1_655 S
H24 C19 0.989 . S
H25 C19 0.967 . S
C26 N27 1.317 . S
C26 N28 1.350 . S
C26 C29 1.485 . S
N27 C26 1.317 . S
N27 N31 1.371 . S
N28 C26 1.350 . S
N28 C30 1.345 1_565 S
C29 C26 1.485 . S
C29 H33 0.960 1_565 S
C29 H34 0.961 . S
C29 H35 0.960 . S
C30 N28 1.345 1_545 S
C30 N31 1.307 1_545 S
C30 C32 1.486 . S
N31 N27 1.371 . S
N31 C30 1.307 1_565 S
C32 C30 1.486 . S
C32 H36 0.925 1_545 S
C32 H37 0.989 . S
C32 H38 0.967 . S
H33 C29 0.960 1_545 S
H34 C29 0.961 . S
H35 C29 0.960 . S
H36 C32 0.925 1_565 S
H37 C32 0.989 . S
H38 C32 0.967 . S
C39 N40 1.317 . S
C39 N41 1.348 . S
C39 C42 1.485 . S
N40 C39 1.317 . S
N40 N44 1.370 . S
N41 C39 1.348 . S
N41 C43 1.346 . S
C42 C39 1.485 . S
C42 H46 0.960 . S
C42 H47 0.961 . S
C42 H48 0.960 . S
C43 N41 1.346 . S
C43 N44 1.307 . S
C43 C45 1.486 . S
N44 N40 1.370 . S
N44 C43 1.307 . S
C45 C43 1.486 . S
C45 H49 0.960 . S
C45 H50 0.960 . S
C45 H51 0.959 . S
H46 C42 0.960 . S
H47 C42 0.961 . S
H48 C42 0.960 . S
H49 C45 0.960 . S
H50 C45 0.960 . S
H51 C45 0.959 . S
C52 N53 1.316 1_556 S
C52 N54 1.340 1_556 S
C52 C55 1.493 . S
N53 C52 1.316 1_554 S
N53 N57 1.370 . S
N54 C52 1.340 1_554 S
N54 C56 1.346 . S
C55 C52 1.493 . S
C55 H59 0.960 . S
C55 H60 0.961 . S
C55 H61 0.960 . S
C56 N54 1.346 . S
C56 N57 1.307 . S
C56 C58 1.486 . S
N57 N53 1.370 . S
N57 C56 1.307 . S
C58 C56 1.486 . S
C58 H62 0.960 . S
C58 H63 0.960 . S
C58 H64 0.959 . S
H59 C55 0.960 . S
H60 C55 0.961 . S
H61 C55 0.960 . S
H62 C58 0.960 . S
H63 C58 0.960 . S
H64 C58 0.959 . S
C65 N66 1.317 . S
C65 N67 1.350 . S
C65 C68 1.485 1_554 S
N66 C65 1.317 . S
N66 N70 1.370 . S
N67 C65 1.350 . S
N67 C69 1.345 1_655 S
C68 C65 1.485 1_556 S
C68 H72 0.960 1_655 S
C68 H73 0.961 . S
C68 H74 0.960 . S
C69 N67 1.345 1_455 S
C69 N70 1.307 1_455 S
C69 C71 1.485 . S
N70 N66 1.370 . S
N70 C69 1.307 1_655 S
C71 C69 1.485 . S
C71 H75 0.913 1_455 S
C71 H76 0.999 . S
C71 H77 0.970 . S
H72 C68 0.960 1_455 S
H73 C68 0.961 . S
H74 C68 0.960 . S
H75 C71 0.913 1_655 S
H76 C71 0.999 . S
H77 C71 0.970 . S
C78 N79 1.318 . S
C78 N80 1.354 . S
C78 C81 1.480 1_554 S
N79 C78 1.318 . S
N79 N83 1.370 . S
N80 C78 1.354 . S
N80 C82 1.345 1_565 S
C81 C78 1.480 1_556 S
C81 H85 0.960 1_565 S
C81 H86 0.961 . S
C81 H87 0.960 . S
C82 N80 1.345 1_545 S
C82 N83 1.307 1_545 S
C82 C84 1.485 . S
N83 N79 1.370 . S
N83 C82 1.307 1_565 S
C84 C82 1.485 . S
C84 H88 0.913 1_545 S
C84 H89 0.999 . S
C84 H90 0.970 . S
H85 C81 0.960 1_545 S
H86 C81 0.961 . S
H87 C81 0.960 . S
H88 C84 0.913 1_565 S
H89 C84 0.999 . S
H90 C84 0.970 . S
C91 N92 1.317 1_556 S
C91 N93 1.348 1_556 S
C91 C94 1.485 . S
N92 C91 1.317 1_554 S
N92 N96 1.370 . S
N93 C91 1.348 1_554 S
N93 C95 1.346 . S
C94 C91 1.485 . S
C94 H98 0.960 . S
C94 H99 0.961 . S
C94 H100 0.960 . S
C95 N93 1.346 . S
C95 N96 1.307 . S
C95 C97 1.486 . S
N96 N92 1.370 . S
N96 C95 1.307 . S
C97 C95 1.486 . S
C97 H101 0.960 . S
C97 H102 0.960 . S
C97 H103 0.959 . S
H98 C94 0.960 . S
H99 C94 0.961 . S
H100 C94 0.960 . S
H101 C97 0.960 . S
H102 C97 0.960 . S
H103 C97 0.959 . S
C104 Eu105 2.835 . S
C104 C106 1.500 . S
C104 O124 1.275 . S
C104 O125 1.260 . S
Eu105 C104 2.835 . S
Eu105 O124 2.480 . S
Eu105 O125 2.480 . S
Eu105 O126 2.430 . S
Eu105 O127 2.670 1_545 S
Eu105 O128 2.394 . S
Eu105 O133 2.355 1_655 S
Eu105 O135 2.374 1_545 S
C106 C104 1.500 . S
C106 C107 1.377 . S
C106 C111 1.377 . S
C107 C106 1.377 . S
C107 C108 1.395 . S
C107 H136 0.931 . S
C108 C107 1.395 . S
C108 C109 1.383 . S
C108 H137 0.931 . S
C109 C108 1.383 . S
C109 C110 1.394 . S
C110 C109 1.394 . S
C110 C111 1.378 . S
C110 H138 0.931 1_655 S
C111 C106 1.377 . S
C111 C110 1.378 . S
C111 H139 0.931 1_655 S
C112 O126 1.284 . S
C112 O127 1.252 1_545 S
C113 O128 1.251 1_455 S
C113 O129 1.251 . S
C114 Eu115 2.835 . S
C114 C116 1.500 . S
C114 O130 1.286 . S
C114 O131 1.260 . S
Eu115 C114 2.835 . S
Eu115 O127 2.355 1_455 S
Eu115 O129 2.374 1_565 S
Eu115 O130 2.486 . S
Eu115 O131 2.480 . S
Eu115 O132 2.430 . S
Eu115 O133 2.670 1_565 S
Eu115 O134 2.394 . S
C116 C114 1.500 . S
C116 C117 1.377 . S
C116 C121 1.377 . S
C117 C116 1.377 . S
C117 C118 1.395 . S
C117 H140 0.931 . S
C118 C117 1.395 . S
C118 C119 1.383 1_556 S
C118 H141 0.931 . S
C119 C118 1.383 1_554 S
C119 C120 1.394 1_554 S
C120 C119 1.394 1_556 S
C120 C121 1.378 . S
C120 H142 0.931 1_456 S
C121 C116 1.377 . S
C121 C120 1.378 . S
C121 H143 0.931 1_455 S
C122 O132 1.277 . S
C122 O133 1.257 1_565 S
C123 O134 1.251 1_655 S
C123 O135 1.251 . S
O124 C104 1.275 . S
O124 Eu105 2.480 . S
O125 C104 1.260 . S
O125 Eu105 2.480 . S
O126 Eu105 2.430 . S
O126 C112 1.284 . S
O127 Eu105 2.670 1_565 S
O127 C112 1.252 1_565 S
O127 Eu115 2.355 1_655 S
O128 Eu105 2.394 . S
O128 C113 1.251 1_655 S
O129 C113 1.251 . S
O129 Eu115 2.374 1_545 S
O130 C114 1.286 . S
O130 Eu115 2.486 . S
O131 C114 1.260 . S
O131 Eu115 2.480 . S
O132 Eu115 2.430 . S
O132 C122 1.277 . S
O133 Eu105 2.355 1_455 S
O133 Eu115 2.670 1_545 S
O133 C122 1.257 1_545 S
O134 Eu115 2.394 . S
O134 C123 1.251 1_455 S
O135 Eu105 2.374 1_565 S
O135 C123 1.251 . S
H136 C107 0.931 . S
H137 C108 0.931 . S
H138 C110 0.931 1_455 S
H139 C111 0.931 1_455 S
H140 C117 0.931 . S
H141 C118 0.931 . S
H142 C120 0.931 1_654 S
H143 C121 0.931 1_655 S
C144 Eu145 2.835 . S
C144 C146 1.500 . S
C144 O164 1.267 . S
C144 O165 1.260 . S
Eu145 C144 2.835 . S
Eu145 O164 2.477 . S
Eu145 O165 2.480 . S
Eu145 O166 2.430 . S
Eu145 O167 2.670 . S
Eu145 O168 2.394 . S
Eu145 O173 2.355 1_565 S
Eu145 O175 2.374 . S
C146 C144 1.500 . S
C146 C147 1.377 . S
C146 C151 1.377 . S
C147 C146 1.377 . S
C147 C148 1.395 . S
C147 H176 0.931 . S
C148 C147 1.395 . S
C148 C149 1.383 . S
C148 H177 0.931 . S
C149 C148 1.383 . S
C149 C150 1.394 . S
C150 C149 1.394 . S
C150 C151 1.378 . S
C150 H178 0.931 1_565 S
C151 C146 1.377 . S
C151 C150 1.378 . S
C151 H179 0.931 1_565 S
C152 O166 1.259 . S
C152 O167 1.270 . S
C153 O168 1.251 1_545 S
C153 O169 1.251 . S
C154 Eu155 2.835 . S
C154 C156 1.500 . S
C154 O170 1.279 . S
C154 O171 1.260 . S
Eu155 C154 2.835 . S
Eu155 O167 2.355 1_545 S
Eu155 O169 2.374 . S
Eu155 O170 2.482 . S
Eu155 O171 2.480 . S
Eu155 O172 2.430 . S
Eu155 O173 2.670 . S
Eu155 O174 2.394 . S
C156 C154 1.500 . S
C156 C157 1.377 . S
C156 C161 1.377 . S
C157 C156 1.377 . S
C157 C158 1.395 . S
C157 H180 0.931 . S
C158 C157 1.395 . S
C158 C159 1.383 1_556 S
C158 H181 0.931 . S
C159 C158 1.383 1_554 S
C159 C160 1.394 1_554 S
C160 C159 1.394 1_556 S
C160 C161 1.378 . S
C160 H182 0.931 1_546 S
C161 C156 1.377 . S
C161 C160 1.378 . S
C161 H183 0.931 1_545 S
C162 O172 1.259 . S
C162 O173 1.270 . S
C163 O174 1.251 1_565 S
C163 O175 1.251 . S
O164 C144 1.267 . S
O164 Eu145 2.477 . S
O165 C144 1.260 . S
O165 Eu145 2.480 . S
O166 Eu145 2.430 . S
O166 C152 1.259 . S
O167 Eu145 2.670 . S
O167 C152 1.270 . S
O167 Eu155 2.355 1_565 S
O168 Eu145 2.394 . S
O168 C153 1.251 1_565 S
O169 C153 1.251 . S
O169 Eu155 2.374 . S
O170 C154 1.279 . S
O170 Eu155 2.482 . S
O171 C154 1.260 . S
O171 Eu155 2.480 . S
O172 Eu155 2.430 . S
O172 C162 1.259 . S
O173 Eu145 2.355 1_545 S
O173 Eu155 2.670 . S
O173 C162 1.270 . S
O174 Eu155 2.394 . S
O174 C163 1.251 1_545 S
O175 Eu145 2.374 . S
O175 C163 1.251 . S
H176 C147 0.931 . S
H177 C148 0.931 . S
H178 C150 0.931 1_545 S
H179 C151 0.931 1_545 S
H180 C157 0.931 . S
H181 C158 0.931 . S
H182 C160 0.931 1_564 S
H183 C161 0.931 1_565 S
C184 Eu185 2.835 . S
C184 C186 1.500 . S
C184 O204 1.257 . S
C184 O205 1.260 . S
Eu185 C184 2.835 . S
Eu185 O204 2.473 . S
Eu185 O205 2.480 . S
Eu185 O206 2.430 . S
Eu185 O207 2.670 . S
Eu185 O208 2.394 . S
Eu185 O213 2.355 . S
Eu185 O215 2.374 . S
C186 C184 1.500 . S
C186 C187 1.377 . S
C186 C191 1.377 . S
C187 C186 1.377 . S
C187 C188 1.395 . S
C187 H216 0.931 . S
C188 C187 1.395 . S
C188 C189 1.383 . S
C188 H217 0.931 . S
C189 C188 1.383 . S
C189 C190 1.394 . S
C190 C189 1.394 . S
C190 C191 1.378 . S
C190 H218 0.931 . S
C191 C186 1.377 . S
C191 C190 1.378 . S
C191 H219 0.931 . S
C192 O206 1.259 . S
C192 O207 1.270 . S
C193 O208 1.251 . S
C193 O209 1.251 . S
C194 Eu195 2.835 . S
C194 C196 1.500 . S
C194 O210 1.257 . S
C194 O211 1.260 . S
Eu195 C194 2.835 . S
Eu195 O207 2.355 . S
Eu195 O209 2.374 . S
Eu195 O210 2.473 . S
Eu195 O211 2.480 . S
Eu195 O212 2.430 . S
Eu195 O213 2.670 . S
Eu195 O214 2.394 . S
C196 C194 1.500 . S
C196 C197 1.377 . S
C196 C201 1.377 . S
C197 C196 1.377 . S
C197 C198 1.395 . S
C197 H220 0.931 . S
C198 C197 1.395 . S
C198 C199 1.383 1_556 S
C198 H221 0.931 . S
C199 C198 1.383 1_554 S
C199 C200 1.394 1_554 S
C200 C199 1.394 1_556 S
C200 C201 1.378 . S
C200 H222 0.931 1_556 S
C201 C196 1.377 . S
C201 C200 1.378 . S
C201 H223 0.931 . S
C202 O212 1.259 . S
C202 O213 1.270 . S
C203 O214 1.251 . S
C203 O215 1.251 . S
O204 C184 1.257 . S
O204 Eu185 2.473 . S
O205 C184 1.260 . S
O205 Eu185 2.480 . S
O206 Eu185 2.430 . S
O206 C192 1.259 . S
O207 Eu185 2.670 . S
O207 C192 1.270 . S
O207 Eu195 2.355 . S
O208 Eu185 2.394 . S
O208 C193 1.251 . S
O209 C193 1.251 . S
O209 Eu195 2.374 . S
O210 C194 1.257 . S
O210 Eu195 2.473 . S
O211 C194 1.260 . S
O211 Eu195 2.480 . S
O212 Eu195 2.430 . S
O212 C202 1.259 . S
O213 Eu185 2.355 . S
O213 Eu195 2.670 . S
O213 C202 1.270 . S
O214 Eu195 2.394 . S
O214 C203 1.251 . S
O215 Eu185 2.374 . S
O215 C203 1.251 . S
H216 C187 0.931 . S
H217 C188 0.931 . S
H218 C190 0.931 . S
H219 C191 0.931 . S
H220 C197 0.931 . S
H221 C198 0.931 . S
H222 C200 0.931 1_554 S
H223 C201 0.931 . S
C224 Eu225 2.835 . S
C224 C226 1.500 . S
C224 O244 1.257 . S
C224 O245 1.260 . S
Eu225 C224 2.835 . S
Eu225 O244 2.473 . S
Eu225 O245 2.480 . S
Eu225 O246 2.430 . S
Eu225 O247 2.670 1_455 S
Eu225 O248 2.394 . S
Eu225 O253 2.355 . S
Eu225 O255 2.374 1_455 S
C226 C224 1.500 . S
C226 C227 1.377 . S
C226 C231 1.377 . S
C227 C226 1.377 . S
C227 C228 1.395 . S
C227 H256 0.931 . S
C228 C227 1.395 . S
C228 C229 1.383 . S
C228 H257 0.931 . S
C229 C228 1.383 . S
C229 C230 1.394 . S
C230 C229 1.394 . S
C230 C231 1.378 . S
C230 H258 0.931 . S
C231 C226 1.377 . S
C231 C230 1.378 . S
C231 H259 0.931 . S
C232 O246 1.275 . S
C232 O247 1.258 1_455 S
C233 O248 1.251 . S
C233 O249 1.251 . S
C234 Eu235 2.835 . S
C234 C236 1.500 . S
C234 O250 1.257 . S
C234 O251 1.260 . S
Eu235 C234 2.835 . S
Eu235 O247 2.355 . S
Eu235 O249 2.374 1_655 S
Eu235 O250 2.473 . S
Eu235 O251 2.480 . S
Eu235 O252 2.430 . S
Eu235 O253 2.670 1_655 S
Eu235 O254 2.394 . S
C236 C234 1.500 . S
C236 C237 1.377 . S
C236 C241 1.377 . S
C237 C236 1.377 . S
C237 C238 1.395 . S
C237 H260 0.931 . S
C238 C237 1.395 . S
C238 C239 1.383 1_556 S
C238 H261 0.931 . S
C239 C238 1.383 1_554 S
C239 C240 1.394 1_554 S
C240 C239 1.394 1_556 S
C240 C241 1.378 . S
C240 H262 0.931 1_556 S
C241 C236 1.377 . S
C241 C240 1.378 . S
C241 H263 0.931 . S
C242 O252 1.269 . S
C242 O253 1.263 1_655 S
C243 O254 1.251 . S
C243 O255 1.251 . S
O244 C224 1.257 . S
O244 Eu225 2.473 . S
O245 C224 1.260 . S
O245 Eu225 2.480 . S
O246 Eu225 2.430 . S
O246 C232 1.275 . S
O247 Eu225 2.670 1_655 S
O247 C232 1.258 1_655 S
O247 Eu235 2.355 . S
O248 Eu225 2.394 . S
O248 C233 1.251 . S
O249 C233 1.251 . S
O249 Eu235 2.374 1_455 S
O250 C234 1.257 . S
O250 Eu235 2.473 . S
O251 C234 1.260 . S
O251 Eu235 2.480 . S
O252 Eu235 2.430 . S
O252 C242 1.269 . S
O253 Eu225 2.355 . S
O253 Eu235 2.670 1_455 S
O253 C242 1.263 1_455 S
O254 Eu235 2.394 . S
O254 C243 1.251 . S
O255 Eu225 2.374 1_655 S
O255 C243 1.251 . S
H256 C227 0.931 . S
H257 C228 0.931 . S
H258 C230 0.931 . S
H259 C231 0.931 . S
H260 C237 0.931 . S
H261 C238 0.931 . S
H262 C240 0.931 1_554 S
H263 C241 0.931 . S
H264 C282 0.951 . S
H265 C284 0.951 . S
H266 C286 0.950 . S
H267 C287 0.950 . S
H268 C289 0.950 . S
H269 C292 0.950 . S
H270 C293 0.950 . S
H271 C295 0.950 . S
H272 C296 0.950 . S
H273 C297 0.951 . S
H274 C299 0.951 . S
H275 C301 0.950 . S
H276 C302 0.950 . S
H277 C304 0.950 . S
H278 C307 0.950 . S
H279 C308 0.950 . S
H280 C310 0.950 . S
H281 C311 0.950 . S
C282 H264 0.951 . S
C282 C283 1.363 1_565 S
C282 C284 1.388 . S
C283 C282 1.363 1_545 S
C283 C287 1.387 . S
C284 H265 0.951 . S
C284 C282 1.388 . S
C284 C285 1.382 . S
C285 C284 1.382 . S
C285 C286 1.397 1_565 S
C285 C288 1.498 . S
C286 H266 0.950 . S
C286 C285 1.397 1_545 S
C286 C287 1.374 . S
C287 H267 0.950 . S
C287 C283 1.387 . S
C287 C286 1.374 . S
C288 C285 1.498 . S
C288 C289 1.372 1_565 S
C288 C290 1.391 . S
C289 H268 0.950 . S
C289 C288 1.372 1_545 S
C289 C305 1.377 . S
C290 C288 1.391 . S
C290 C291 1.524 . S
C290 C304 1.377 . S
C291 C290 1.524 . S
C291 C292 1.397 . S
C291 C296 1.363 . S
C292 H269 0.950 . S
C292 C291 1.397 . S
C292 C293 1.334 . S
C293 H270 0.950 . S
C293 C292 1.334 . S
C293 C294 1.287 . S
C294 C293 1.287 . S
C294 C295 1.524 . S
C294 H313 0.913 . S
C295 H271 0.950 . S
C295 C294 1.524 . S
C295 C296 1.415 . S
C296 H272 0.950 . S
C296 C291 1.363 . S
C296 C295 1.415 . S
C297 H273 0.951 . S
C297 C298 1.379 . S
C297 C299 1.388 . S
C298 C297 1.379 . S
C298 C302 1.371 1_545 S
C299 H274 0.951 . S
C299 C297 1.388 . S
C299 C300 1.366 . S
C300 C299 1.366 . S
C300 C301 1.414 1_545 S
C300 C303 1.500 . S
C301 H275 0.950 . S
C301 C300 1.414 1_565 S
C301 C302 1.374 . S
C302 H276 0.950 . S
C302 C298 1.371 1_565 S
C302 C301 1.374 . S
C303 C300 1.500 . S
C303 C304 1.337 1_545 S
C303 C305 1.425 . S
C304 H277 0.950 . S
C304 C290 1.377 . S
C304 C303 1.337 1_565 S
C305 C289 1.377 . S
C305 C303 1.425 . S
C305 C306 1.524 . S
C306 C305 1.524 . S
C306 C307 1.397 . S
C306 C311 1.363 . S
C307 H278 0.950 . S
C307 C306 1.397 . S
C307 C308 1.334 . S
C308 H279 0.950 . S
C308 C307 1.334 . S
C308 C309 1.287 . S
C309 C308 1.287 . S
C309 C310 1.524 . S
C309 H312 0.999 . S
C310 H280 0.950 . S
C310 C309 1.524 . S
C310 C311 1.415 . S
C311 H281 0.950 . S
C311 C306 1.363 . S
C311 C310 1.415 . S
H312 C309 0.999 . S
H313 C294 0.913 . S
H314 C332 0.951 . S
H315 C334 0.951 . S
H316 C336 0.950 . S
H317 C337 0.950 . S
H318 C339 0.950 . S
H319 C342 0.950 . S
H320 C343 0.950 . S
H321 C345 0.950 . S
H322 C346 0.950 . S
H323 C347 0.951 . S
H324 C349 0.951 . S
H325 C351 0.950 . S
H326 C352 0.950 . S
H327 C354 0.950 . S
H328 C357 0.950 . S
H329 C358 0.950 . S
H330 C360 0.950 . S
H331 C361 0.950 . S
C332 H314 0.951 . S
C332 C333 1.366 . S
C332 C334 1.388 . S
C333 C332 1.366 . S
C333 C337 1.385 . S
C334 H315 0.951 . S
C334 C332 1.388 . S
C334 C335 1.366 . S
C335 C334 1.366 . S
C335 C336 1.414 . S
C335 C338 1.499 . S
C336 H316 0.950 . S
C336 C335 1.414 . S
C336 C337 1.374 . S
C337 H317 0.950 . S
C337 C333 1.385 . S
C337 C336 1.374 . S
C338 C335 1.499 . S
C338 C339 1.373 . S
C338 C340 1.389 . S
C339 H318 0.950 . S
C339 C338 1.373 . S
C339 C355 1.377 . S
C340 C338 1.389 . S
C340 C341 1.524 . S
C340 C354 1.377 . S
C341 C340 1.524 . S
C341 C342 1.397 . S
C341 C346 1.363 . S
C342 H319 0.950 . S
C342 C341 1.397 . S
C342 C343 1.334 . S
C343 H320 0.950 . S
C343 C342 1.334 . S
C343 C344 1.287 . S
C344 C343 1.287 . S
C344 C345 1.524 . S
C344 H363 0.913 . S
C345 H321 0.950 . S
C345 C344 1.524 . S
C345 C346 1.415 . S
C346 H322 0.950 . S
C346 C341 1.363 . S
C346 C345 1.415 . S
C347 H323 0.951 . S
C347 C348 1.366 . S
C347 C349 1.388 . S
C348 C347 1.366 . S
C348 C352 1.385 . S
C349 H324 0.951 . S
C349 C347 1.388 . S
C349 C350 1.366 . S
C350 C349 1.366 . S
C350 C351 1.414 . S
C350 C353 1.499 . S
C351 H325 0.950 . S
C351 C350 1.414 . S
C351 C352 1.374 . S
C352 H326 0.950 . S
C352 C348 1.385 . S
C352 C351 1.374 . S
C353 C350 1.499 . S
C353 C354 1.373 . S
C353 C355 1.389 . S
C354 H327 0.950 . S
C354 C340 1.377 . S
C354 C353 1.373 . S
C355 C339 1.377 . S
C355 C353 1.389 . S
C355 C356 1.524 . S
C356 C355 1.524 . S
C356 C357 1.397 . S
C356 C361 1.363 . S
C357 H328 0.950 . S
C357 C356 1.397 . S
C357 C358 1.334 . S
C358 H329 0.950 . S
C358 C357 1.334 . S
C358 C359 1.287 . S
C359 C358 1.287 . S
C359 C360 1.524 . S
C359 H362 0.999 . S
C360 H330 0.950 . S
C360 C359 1.524 . S
C360 C361 1.415 . S
C361 H331 0.950 . S
C361 C356 1.363 . S
C361 C360 1.415 . S
H362 C359 0.999 . S
H363 C344 0.913 . S
H364 C382 0.951 . S
H365 C384 0.951 . S
H366 C386 0.950 . S
H367 C387 0.950 . S
H368 C389 0.950 . S
H369 C392 0.950 . S
H370 C393 0.950 . S
H371 C395 0.950 . S
H372 C396 0.950 . S
H373 C397 0.951 . S
H374 C399 0.951 . S
H375 C401 0.950 . S
H376 C402 0.950 . S
H377 C404 0.950 . S
H378 C407 0.950 . S
H379 C408 0.950 . S
H380 C410 0.950 . S
H381 C411 0.950 . S
C382 H364 0.951 . S
C382 C383 1.366 . S
C382 C384 1.388 . S
C383 C382 1.366 . S
C383 C387 1.385 . S
C384 H365 0.951 . S
C384 C382 1.388 . S
C384 C385 1.366 . S
C385 C384 1.366 . S
C385 C386 1.414 . S
C385 C388 1.499 . S
C386 H366 0.950 . S
C386 C385 1.414 . S
C386 C387 1.374 . S
C387 H367 0.950 . S
C387 C383 1.385 . S
C387 C386 1.374 . S
C388 C385 1.499 . S
C388 C389 1.373 . S
C388 C390 1.389 . S
C389 H368 0.950 . S
C389 C388 1.373 . S
C389 C405 1.377 . S
C390 C388 1.389 . S
C390 C391 1.524 . S
C390 C404 1.377 . S
C391 C390 1.524 . S
C391 C392 1.397 . S
C391 C396 1.363 . S
C392 H369 0.950 . S
C392 C391 1.397 . S
C392 C393 1.334 . S
C393 H370 0.950 . S
C393 C392 1.334 . S
C393 C394 1.287 . S
C394 C393 1.287 . S
C394 C395 1.524 . S
C394 H413 0.913 . S
C395 H371 0.950 . S
C395 C394 1.524 . S
C395 C396 1.415 . S
C396 H372 0.950 . S
C396 C391 1.363 . S
C396 C395 1.415 . S
C397 H373 0.951 . S
C397 C398 1.366 . S
C397 C399 1.388 . S
C398 C397 1.366 . S
C398 C402 1.385 . S
C399 H374 0.951 . S
C399 C397 1.388 . S
C399 C400 1.366 . S
C400 C399 1.366 . S
C400 C401 1.414 . S
C400 C403 1.499 . S
C401 H375 0.950 . S
C401 C400 1.414 . S
C401 C402 1.374 . S
C402 H376 0.950 . S
C402 C398 1.385 . S
C402 C401 1.374 . S
C403 C400 1.499 . S
C403 C404 1.373 . S
C403 C405 1.389 . S
C404 H377 0.950 . S
C404 C390 1.377 . S
C404 C403 1.373 . S
C405 C389 1.377 . S
C405 C403 1.389 . S
C405 C406 1.524 . S
C406 C405 1.524 . S
C406 C407 1.397 . S
C406 C411 1.363 . S
C407 H378 0.950 . S
C407 C406 1.397 . S
C407 C408 1.334 . S
C408 H379 0.950 . S
C408 C407 1.334 . S
C408 C409 1.287 . S
C409 C408 1.287 . S
C409 C410 1.524 . S
C409 H412 0.999 . S
C410 H380 0.950 . S
C410 C409 1.524 . S
C410 C411 1.415 . S
C411 H381 0.950 . S
C411 C406 1.363 . S
C411 C410 1.415 . S
H412 C409 0.999 . S
H413 C394 0.913 . S
H414 C432 0.951 . S
H415 C434 0.951 . S
H416 C436 0.950 . S
H417 C437 0.950 . S
H418 C439 0.950 . S
H419 C442 0.950 . S
H420 C443 0.950 . S
H421 C445 0.950 . S
H422 C446 0.950 . S
H423 C447 0.951 . S
H424 C449 0.951 . S
H425 C451 0.950 . S
H426 C452 0.950 . S
H427 C454 0.950 . S
H428 C457 0.950 . S
H429 C458 0.950 . S
H430 C460 0.950 . S
H431 C461 0.950 . S
C432 H414 0.951 . S
C432 C433 1.365 1_655 S
C432 C434 1.388 . S
C433 C432 1.365 1_455 S
C433 C437 1.385 . S
C434 H415 0.951 . S
C434 C432 1.388 . S
C434 C435 1.366 1_655 S
C435 C434 1.366 1_455 S
C435 C436 1.414 . S
C435 C438 1.499 . S
C436 H416 0.950 . S
C436 C435 1.414 . S
C436 C437 1.374 . S
C437 H417 0.950 . S
C437 C433 1.385 . S
C437 C436 1.374 . S
C438 C435 1.499 . S
C438 C439 1.373 1_455 S
C438 C440 1.389 . S
C439 H418 0.950 . S
C439 C438 1.373 1_655 S
C439 C455 1.377 . S
C440 C438 1.389 . S
C440 C441 1.524 . S
C440 C454 1.377 . S
C441 C440 1.524 . S
C441 C442 1.397 . S
C441 C446 1.363 . S
C442 H419 0.950 . S
C442 C441 1.397 . S
C442 C443 1.334 . S
C443 H420 0.950 . S
C443 C442 1.334 . S
C443 C444 1.287 . S
C444 C443 1.287 . S
C444 C445 1.524 . S
C444 H463 0.913 . S
C445 H421 0.950 . S
C445 C444 1.524 . S
C445 C446 1.415 . S
C446 H422 0.950 . S
C446 C441 1.363 . S
C446 C445 1.415 . S
C447 H423 0.951 . S
C447 C448 1.378 . S
C447 C449 1.388 . S
C448 C447 1.378 . S
C448 C452 1.372 1_455 S
C449 H424 0.951 . S
C449 C447 1.388 . S
C449 C450 1.359 1_455 S
C450 C449 1.359 1_655 S
C450 C451 1.420 . S
C450 C453 1.498 . S
C451 H425 0.950 . S
C451 C450 1.420 . S
C451 C452 1.374 . S
C452 H426 0.950 . S
C452 C448 1.372 1_655 S
C452 C451 1.374 . S
C453 C450 1.498 . S
C453 C454 1.352 1_655 S
C453 C455 1.409 . S
C454 H427 0.950 . S
C454 C440 1.377 . S
C454 C453 1.352 1_455 S
C455 C439 1.377 . S
C455 C453 1.409 . S
C455 C456 1.524 . S
C456 C455 1.524 . S
C456 C457 1.397 . S
C456 C461 1.363 . S
C457 H428 0.950 . S
C457 C456 1.397 . S
C457 C458 1.334 . S
C458 H429 0.950 . S
C458 C457 1.334 . S
C458 C459 1.287 . S
C459 C458 1.287 . S
C459 C460 1.524 . S
C459 H462 0.999 . S
C460 H430 0.950 . S
C460 C459 1.524 . S
C460 C461 1.415 . S
C461 H431 0.950 . S
C461 C456 1.363 . S
C461 C460 1.415 . S
H462 C459 0.999 . S
H463 C444 0.913 . S
H464 C482 0.951 . S
H465 C484 0.951 . S
H466 C486 0.950 . S
H467 C487 0.950 . S
H468 C489 0.950 . S
H469 C492 0.928 1_545 S
H470 C493 0.950 . S
H471 C495 0.950 . S
H472 C496 0.950 . S
H473 C497 0.951 . S
H474 C499 0.951 . S
H475 C501 0.950 . S
H476 C502 0.950 . S
H477 C504 0.950 . S
H478 C507 0.914 1_565 S
H479 C508 0.950 . S
H480 C510 0.950 . S
H481 C511 0.950 1_554 S
C482 H464 0.951 . S
C482 C483 1.367 1_565 S
C482 C484 1.388 . S
C483 C482 1.367 1_545 S
C483 C487 1.383 . S
C484 H465 0.951 . S
C484 C482 1.388 . S
C484 C485 1.370 1_565 S
C485 C484 1.370 1_545 S
C485 C486 1.409 . S
C485 C488 1.498 . S
C486 H466 0.950 . S
C486 C485 1.409 . S
C486 C487 1.374 . S
C487 H467 0.950 . S
C487 C483 1.383 . S
C487 C486 1.374 . S
C488 C485 1.498 . S
C488 C489 1.392 . S
C488 C490 1.371 1_545 S
C489 H468 0.950 . S
C489 C488 1.392 . S
C489 C505 1.377 . S
C490 C488 1.371 1_565 S
C490 C491 1.524 . S
C490 C504 1.377 . S
C491 C490 1.524 . S
C491 C492 1.397 . S
C491 C496 1.363 . S
C492 H469 0.928 1_565 S
C492 C491 1.397 . S
C492 C493 1.334 . S
C493 H470 0.950 . S
C493 C492 1.334 . S
C493 C494 1.287 . S
C494 C493 1.287 . S
C494 C495 1.524 . S
C494 H513 0.913 . S
C495 H471 0.950 . S
C495 C494 1.524 . S
C495 C496 1.415 . S
C496 H472 0.950 . S
C496 C491 1.363 . S
C496 C495 1.415 . S
C497 H473 0.951 . S
C497 C498 1.355 1_545 S
C497 C499 1.388 . S
C498 C497 1.355 1_565 S
C498 C502 1.395 . S
C499 H474 0.951 . S
C499 C497 1.388 . S
C499 C500 1.359 1_545 S
C500 C499 1.359 1_565 S
C500 C501 1.421 . S
C500 C503 1.498 1_556 S
C501 H475 0.950 . S
C501 C500 1.421 . S
C501 C502 1.374 . S
C502 H476 0.950 . S
C502 C498 1.395 . S
C502 C501 1.374 . S
C503 C500 1.498 1_554 S
C503 C504 1.400 . S
C503 C505 1.363 1_565 S
C504 H477 0.950 . S
C504 C490 1.377 . S
C504 C503 1.400 . S
C505 C489 1.377 . S
C505 C503 1.363 1_545 S
C505 C506 1.524 1_554 S
C506 C505 1.524 1_556 S
C506 C507 1.397 . S
C506 C511 1.363 . S
C507 H478 0.914 1_545 S
C507 C506 1.397 . S
C507 C508 1.334 . S
C508 H479 0.950 . S
C508 C507 1.334 . S
C508 C509 1.287 . S
C509 C508 1.287 . S
C509 C510 1.524 . S
C509 H512 0.999 . S
C510 H480 0.950 . S
C510 C509 1.524 . S
C510 C511 1.415 . S
C511 H481 0.950 1_556 S
C511 C506 1.363 . S
C511 C510 1.415 . S
H512 C509 0.999 . S
H513 C494 0.913 . S
H514 C532 0.951 . S
H515 C534 0.951 . S
H516 C536 0.950 . S
H517 C537 0.950 . S
H518 C539 0.950 . S
H519 C542 0.950 . S
H520 C543 0.950 . S
H521 C545 0.950 . S
H522 C546 0.950 . S
H523 C547 0.951 . S
H524 C549 0.951 . S
H525 C551 0.950 1_554 S
H526 C552 0.950 . S
H527 C554 0.950 . S
H528 C557 0.950 . S
H529 C558 0.950 . S
H530 C560 0.950 . S
H531 C561 0.950 . S
C532 H514 0.951 . S
C532 C533 1.366 . S
C532 C534 1.388 . S
C533 C532 1.366 . S
C533 C537 1.385 . S
C534 H515 0.951 . S
C534 C532 1.388 . S
C534 C535 1.366 . S
C535 C534 1.366 . S
C535 C536 1.414 . S
C535 C538 1.499 . S
C536 H516 0.950 . S
C536 C535 1.414 . S
C536 C537 1.374 . S
C537 H517 0.950 . S
C537 C533 1.385 . S
C537 C536 1.374 . S
C538 C535 1.499 . S
C538 C539 1.373 . S
C538 C540 1.389 . S
C539 H518 0.950 . S
C539 C538 1.373 . S
C539 C555 1.377 . S
C540 C538 1.389 . S
C540 C541 1.524 . S
C540 C554 1.377 . S
C541 C540 1.524 . S
C541 C542 1.397 . S
C541 C546 1.363 . S
C542 H519 0.950 . S
C542 C541 1.397 . S
C542 C543 1.334 . S
C543 H520 0.950 . S
C543 C542 1.334 . S
C543 C544 1.287 . S
C544 C543 1.287 . S
C544 C545 1.524 . S
C544 H563 0.913 . S
C545 H521 0.950 . S
C545 C544 1.524 . S
C545 C546 1.415 . S
C546 H522 0.950 . S
C546 C541 1.363 . S
C546 C545 1.415 . S
C547 H523 0.951 . S
C547 C548 1.366 . S
C547 C549 1.388 . S
C548 C547 1.366 . S
C548 C552 1.385 . S
C549 H524 0.951 . S
C549 C547 1.388 . S
C549 C550 1.366 . S
C550 C549 1.366 . S
C550 C551 1.414 . S
C550 C553 1.499 1_556 S
C551 H525 0.950 1_556 S
C551 C550 1.414 . S
C551 C552 1.374 . S
C552 H526 0.950 . S
C552 C548 1.385 . S
C552 C551 1.374 . S
C553 C550 1.499 1_554 S
C553 C554 1.373 . S
C553 C555 1.389 . S
C554 H527 0.950 . S
C554 C540 1.377 . S
C554 C553 1.373 . S
C555 C539 1.377 . S
C555 C553 1.389 . S
C555 C556 1.524 1_554 S
C556 C555 1.524 1_556 S
C556 C557 1.397 . S
C556 C561 1.363 . S
C557 H528 0.950 . S
C557 C556 1.397 . S
C557 C558 1.334 . S
C558 H529 0.950 . S
C558 C557 1.334 . S
C558 C559 1.287 . S
C559 C558 1.287 . S
C559 C560 1.524 . S
C559 H562 0.999 . S
C560 H530 0.950 . S
C560 C559 1.524 . S
C560 C561 1.415 . S
C561 H531 0.950 . S
C561 C556 1.363 . S
C561 C560 1.415 . S
H562 C559 0.999 . S
H563 C544 0.913 . S
H564 C582 0.951 . S
H565 C584 0.951 . S
H566 C586 0.950 . S
H567 C587 0.950 . S
H568 C589 0.950 . S
H569 C592 0.950 . S
H570 C593 0.950 . S
H571 C595 0.950 . S
H572 C596 0.950 . S
H573 C597 0.951 . S
H574 C599 0.951 1_554 S
H575 C601 0.950 . S
H576 C602 0.950 . S
H577 C604 0.950 1_556 S
H578 C607 0.950 . S
H579 C608 0.950 . S
H580 C610 0.950 . S
H581 C611 0.950 . S
C582 H564 0.951 . S
C582 C583 1.366 . S
C582 C584 1.388 . S
C583 C582 1.366 . S
C583 C587 1.385 . S
C584 H565 0.951 . S
C584 C582 1.388 . S
C584 C585 1.366 . S
C585 C584 1.366 . S
C585 C586 1.414 . S
C585 C588 1.499 . S
C586 H566 0.950 . S
C586 C585 1.414 . S
C586 C587 1.374 . S
C587 H567 0.950 . S
C587 C583 1.385 . S
C587 C586 1.374 . S
C588 C585 1.499 . S
C588 C589 1.373 . S
C588 C590 1.389 . S
C589 H568 0.950 . S
C589 C588 1.373 . S
C589 C605 1.377 . S
C590 C588 1.389 . S
C590 C591 1.524 . S
C590 C604 1.377 . S
C591 C590 1.524 . S
C591 C592 1.397 . S
C591 C596 1.363 1_554 S
C592 H569 0.950 . S
C592 C591 1.397 . S
C592 C593 1.334 . S
C593 H570 0.950 . S
C593 C592 1.334 . S
C593 C594 1.287 . S
C594 C593 1.287 . S
C594 C595 1.524 1_554 S
C594 H613 0.913 . S
C595 H571 0.950 . S
C595 C594 1.524 1_556 S
C595 C596 1.415 . S
C596 H572 0.950 . S
C596 C591 1.363 1_556 S
C596 C595 1.415 . S
C597 H573 0.951 . S
C597 C598 1.366 . S
C597 C599 1.388 . S
C598 C597 1.366 . S
C598 C602 1.385 . S
C599 H574 0.951 1_556 S
C599 C597 1.388 . S
C599 C600 1.366 . S
C600 C599 1.366 . S
C600 C601 1.414 . S
C600 C603 1.499 1_556 S
C601 H575 0.950 . S
C601 C600 1.414 . S
C601 C602 1.374 . S
C602 H576 0.950 . S
C602 C598 1.385 . S
C602 C601 1.374 . S
C603 C600 1.499 1_554 S
C603 C604 1.373 . S
C603 C605 1.389 . S
C604 H577 0.950 1_554 S
C604 C590 1.377 . S
C604 C603 1.373 . S
C605 C589 1.377 . S
C605 C603 1.389 . S
C605 C606 1.524 . S
C606 C605 1.524 . S
C606 C607 1.397 . S
C606 C611 1.363 . S
C607 H578 0.950 . S
C607 C606 1.397 . S
C607 C608 1.334 . S
C608 H579 0.950 . S
C608 C607 1.334 . S
C608 C609 1.287 . S
C609 C608 1.287 . S
C609 C610 1.524 . S
C609 H612 0.999 . S
C610 H580 0.950 . S
C610 C609 1.524 . S
C610 C611 1.415 . S
C611 H581 0.950 . S
C611 C606 1.363 . S
C611 C610 1.415 . S
H612 C609 0.999 . S
H613 C594 0.913 . S
H614 C632 0.951 . S
H615 C634 0.951 . S
H616 C636 0.950 . S
H617 C637 0.950 . S
H618 C639 0.950 . S
H619 C642 0.950 . S
H620 C643 0.950 . S
H621 C645 0.950 . S
H622 C646 0.950 . S
H623 C647 0.951 . S
H624 C649 0.951 . S
H625 C651 0.950 1_554 S
H626 C652 0.950 . S
H627 C654 0.950 . S
H628 C657 0.950 . S
H629 C658 0.950 . S
H630 C660 0.950 . S
H631 C661 0.950 . S
C632 H614 0.951 . S
C632 C633 1.366 . S
C632 C634 1.388 . S
C633 C632 1.366 . S
C633 C637 1.384 1_655 S
C634 H615 0.951 . S
C634 C632 1.388 . S
C634 C635 1.360 1_655 S
C635 C634 1.360 1_455 S
C635 C636 1.419 . S
C635 C638 1.499 . S
C636 H616 0.950 . S
C636 C635 1.419 . S
C636 C637 1.374 . S
C637 H617 0.950 . S
C637 C633 1.384 1_455 S
C637 C636 1.374 . S
C638 C635 1.499 . S
C638 C639 1.343 1_455 S
C638 C640 1.417 . S
C639 H618 0.950 . S
C639 C638 1.343 1_655 S
C639 C655 1.377 . S
C640 C638 1.417 . S
C640 C641 1.524 . S
C640 C654 1.377 . S
C641 C640 1.524 . S
C641 C642 1.397 . S
C641 C646 1.363 . S
C642 H619 0.950 . S
C642 C641 1.397 . S
C642 C643 1.334 . S
C643 H620 0.950 . S
C643 C642 1.334 . S
C643 C644 1.287 . S
C644 C643 1.287 . S
C644 C645 1.524 . S
C644 H663 0.913 . S
C645 H621 0.950 . S
C645 C644 1.524 . S
C645 C646 1.415 . S
C646 H622 0.950 . S
C646 C641 1.363 . S
C646 C645 1.415 . S
C647 H623 0.951 . S
C647 C648 1.362 1_455 S
C647 C649 1.388 . S
C648 C647 1.362 1_655 S
C648 C652 1.390 . S
C649 H624 0.951 . S
C649 C647 1.388 . S
C649 C650 1.366 1_455 S
C650 C649 1.366 1_655 S
C650 C651 1.414 . S
C650 C653 1.499 1_556 S
C651 H625 0.950 1_556 S
C651 C650 1.414 . S
C651 C652 1.374 . S
C652 H626 0.950 . S
C652 C648 1.390 . S
C652 C651 1.374 . S
C653 C650 1.499 1_554 S
C653 C654 1.373 1_655 S
C653 C655 1.389 . S
C654 H627 0.950 . S
C654 C640 1.377 . S
C654 C653 1.373 1_455 S
C655 C639 1.377 . S
C655 C653 1.389 . S
C655 C656 1.524 1_554 S
C656 C655 1.524 1_556 S
C656 C657 1.397 . S
C656 C661 1.363 . S
C657 H628 0.950 . S
C657 C656 1.397 . S
C657 C658 1.334 . S
C658 H629 0.950 . S
C658 C657 1.334 . S
C658 C659 1.287 . S
C659 C658 1.287 . S
C659 C660 1.524 . S
C659 H662 0.999 . S
C660 H630 0.950 . S
C660 C659 1.524 . S
C660 C661 1.415 . S
C661 H631 0.950 . S
C661 C656 1.363 . S
C661 C660 1.415 . S
H662 C659 0.999 . S
H663 C644 0.913 . S
H664 C682 0.951 . S
H665 C684 0.951 . S
H666 C686 0.950 . S
H667 C687 0.950 . S
H668 C689 0.950 . S
H669 C692 0.950 . S
H670 C693 0.950 1_556 S
H671 C695 0.950 . S
H672 C696 0.950 . S
H673 C697 0.951 . S
H674 C699 0.951 . S
H675 C701 0.950 1_455 S
H676 C702 0.950 1_455 S
H677 C704 0.950 . S
H678 C707 0.950 . S
H679 C708 0.950 . S
H680 C710 0.950 . S
H681 C711 0.950 . S
C682 H664 0.951 . S
C682 C683 1.366 . S
C682 C684 1.388 . S
C683 C682 1.366 . S
C683 C687 1.385 1_455 S
C684 H665 0.951 . S
C684 C682 1.388 . S
C684 C685 1.366 1_455 S
C685 C684 1.366 1_655 S
C685 C686 1.414 . S
C685 C688 1.499 . S
C686 H666 0.950 . S
C686 C685 1.414 . S
C686 C687 1.374 . S
C687 H667 0.950 . S
C687 C683 1.385 1_655 S
C687 C686 1.374 . S
C688 C685 1.499 . S
C688 C689 1.373 . S
C688 C690 1.389 1_655 S
C689 H668 0.950 . S
C689 C688 1.373 . S
C689 C705 1.377 . S
C690 C688 1.389 1_455 S
C690 C691 1.524 . S
C690 C704 1.377 . S
C691 C690 1.524 . S
C691 C692 1.397 . S
C691 C696 1.363 . S
C692 H669 0.950 . S
C692 C691 1.397 . S
C692 C693 1.334 . S
C693 H670 0.950 1_554 S
C693 C692 1.334 . S
C693 C694 1.287 . S
C694 C693 1.287 . S
C694 C695 1.524 . S
C694 H713 0.913 . S
C695 H671 0.950 . S
C695 C694 1.524 . S
C695 C696 1.415 . S
C696 H672 0.950 . S
C696 C691 1.363 . S
C696 C695 1.415 . S
C697 H673 0.951 . S
C697 C698 1.366 . S
C697 C699 1.388 . S
C698 C697 1.366 . S
C698 C702 1.385 . S
C699 H674 0.951 . S
C699 C697 1.388 . S
C699 C700 1.366 . S
C700 C699 1.366 . S
C700 C701 1.414 . S
C700 C703 1.499 . S
C701 H675 0.950 1_655 S
C701 C700 1.414 . S
C701 C702 1.374 . S
C702 H676 0.950 1_655 S
C702 C698 1.385 . S
C702 C701 1.374 . S
C703 C700 1.499 . S
C703 C704 1.373 1_655 S
C703 C705 1.389 . S
C704 H677 0.950 . S
C704 C690 1.377 . S
C704 C703 1.373 1_455 S
C705 C689 1.377 . S
C705 C703 1.389 . S
C705 C706 1.524 . S
C706 C705 1.524 . S
C706 C707 1.397 . S
C706 C711 1.363 . S
C707 H678 0.950 . S
C707 C706 1.397 . S
C707 C708 1.334 . S
C708 H679 0.950 . S
C708 C707 1.334 . S
C708 C709 1.287 . S
C709 C708 1.287 . S
C709 C710 1.524 . S
C709 H712 0.999 . S
C710 H680 0.950 . S
C710 C709 1.524 . S
C710 C711 1.415 . S
C711 H681 0.950 . S
C711 C706 1.363 . S
C711 C710 1.415 . S
H712 C709 0.999 . S
H713 C694 0.913 . S
H714 C732 0.951 . S
H715 C734 0.951 . S
H716 C736 0.950 . S
H717 C737 0.950 . S
H718 C739 0.950 . S
H719 C742 0.950 . S
H720 C743 0.950 . S
H721 C745 0.950 . S
H722 C746 0.950 . S
H723 C747 0.951 . S
H724 C749 0.951 . S
H725 C751 0.950 1_545 S
H726 C752 0.950 . S
H727 C754 0.950 . S
H728 C757 0.950 . S
H729 C758 0.950 . S
H730 C760 0.950 . S
H731 C761 0.950 . S
C732 H714 0.951 . S
C732 C733 1.366 . S
C732 C734 1.388 . S
C733 C732 1.366 . S
C733 C737 1.385 1_545 S
C734 H715 0.951 . S
C734 C732 1.388 . S
C734 C735 1.366 1_545 S
C735 C734 1.366 1_565 S
C735 C736 1.414 . S
C735 C738 1.499 . S
C736 H716 0.950 . S
C736 C735 1.414 . S
C736 C737 1.374 . S
C737 H717 0.950 . S
C737 C733 1.385 1_565 S
C737 C736 1.374 . S
C738 C735 1.499 . S
C738 C739 1.373 . S
C738 C740 1.389 1_565 S
C739 H718 0.950 . S
C739 C738 1.373 . S
C739 C755 1.377 . S
C740 C738 1.389 1_545 S
C740 C741 1.524 . S
C740 C754 1.377 . S
C741 C740 1.524 . S
C741 C742 1.397 . S
C741 C746 1.363 . S
C742 H719 0.950 . S
C742 C741 1.397 . S
C742 C743 1.334 . S
C743 H720 0.950 . S
C743 C742 1.334 . S
C743 C744 1.287 . S
C744 C743 1.287 . S
C744 C745 1.524 . S
C744 H763 0.913 . S
C745 H721 0.950 . S
C745 C744 1.524 . S
C745 C746 1.415 . S
C746 H722 0.950 . S
C746 C741 1.363 . S
C746 C745 1.415 . S
C747 H723 0.951 . S
C747 C748 1.366 . S
C747 C749 1.388 . S
C748 C747 1.366 . S
C748 C752 1.385 . S
C749 H724 0.951 . S
C749 C747 1.388 . S
C749 C750 1.366 . S
C750 C749 1.366 . S
C750 C751 1.414 . S
C750 C753 1.499 . S
C751 H725 0.950 1_565 S
C751 C750 1.414 . S
C751 C752 1.374 . S
C752 H726 0.950 . S
C752 C748 1.385 . S
C752 C751 1.374 . S
C753 C750 1.499 . S
C753 C754 1.373 1_565 S
C753 C755 1.389 . S
C754 H727 0.950 . S
C754 C740 1.377 . S
C754 C753 1.373 1_545 S
C755 C739 1.377 . S
C755 C753 1.389 . S
C755 C756 1.524 . S
C756 C755 1.524 . S
C756 C757 1.397 . S
C756 C761 1.363 . S
C757 H728 0.950 . S
C757 C756 1.397 . S
C757 C758 1.334 . S
C758 H729 0.950 . S
C758 C757 1.334 . S
C758 C759 1.287 . S
C759 C758 1.287 . S
C759 C760 1.524 . S
C759 H762 0.999 . S
C760 H730 0.950 . S
C760 C759 1.524 . S
C760 C761 1.415 . S
C761 H731 0.950 . S
C761 C756 1.363 . S
C761 C760 1.415 . S
H762 C759 0.999 . S
H763 C744 0.913 . S
H764 C782 0.951 . S
H765 C784 0.951 . S
H766 C786 0.950 . S
H767 C787 0.950 1_556 S
H768 C789 0.950 . S
H769 C792 0.950 . S
H770 C793 0.950 . S
H771 C795 0.950 . S
H772 C796 0.950 . S
H773 C797 0.951 . S
H774 C799 0.951 . S
H775 C801 0.950 . S
H776 C802 0.950 . S
H777 C804 0.950 . S
H778 C807 0.950 . S
H779 C808 0.950 . S
H780 C810 0.950 . S
H781 C811 0.950 . S
C782 H764 0.951 . S
C782 C783 1.366 . S
C782 C784 1.388 . S
C783 C782 1.366 . S
C783 C787 1.385 . S
C784 H765 0.951 . S
C784 C782 1.388 . S
C784 C785 1.366 . S
C785 C784 1.366 . S
C785 C786 1.414 . S
C785 C788 1.499 . S
C786 H766 0.950 . S
C786 C785 1.414 . S
C786 C787 1.374 . S
C787 H767 0.950 1_554 S
C787 C783 1.385 . S
C787 C786 1.374 . S
C788 C785 1.499 . S
C788 C789 1.373 . S
C788 C790 1.389 . S
C789 H768 0.950 . S
C789 C788 1.373 . S
C789 C805 1.377 . S
C790 C788 1.389 . S
C790 C791 1.524 . S
C790 C804 1.377 . S
C791 C790 1.524 . S
C791 C792 1.397 . S
C791 C796 1.363 . S
C792 H769 0.950 . S
C792 C791 1.397 . S
C792 C793 1.334 . S
C793 H770 0.950 . S
C793 C792 1.334 . S
C793 C794 1.287 . S
C794 C793 1.287 . S
C794 C795 1.524 . S
C794 H813 0.913 . S
C795 H771 0.950 . S
C795 C794 1.524 . S
C795 C796 1.415 . S
C796 H772 0.950 . S
C796 C791 1.363 . S
C796 C795 1.415 . S
C797 H773 0.951 . S
C797 C798 1.366 . S
C797 C799 1.388 . S
C798 C797 1.366 . S
C798 C802 1.385 . S
C799 H774 0.951 . S
C799 C797 1.388 . S
C799 C800 1.366 . S
C800 C799 1.366 . S
C800 C801 1.414 . S
C800 C803 1.499 . S
C801 H775 0.950 . S
C801 C800 1.414 . S
C801 C802 1.374 . S
C802 H776 0.950 . S
C802 C798 1.385 . S
C802 C801 1.374 . S
C803 C800 1.499 . S
C803 C804 1.373 . S
C803 C805 1.389 . S
C804 H777 0.950 . S
C804 C790 1.377 . S
C804 C803 1.373 . S
C805 C789 1.377 . S
C805 C803 1.389 . S
C805 C806 1.524 . S
C806 C805 1.524 . S
C806 C807 1.397 . S
C806 C811 1.363 . S
C807 H778 0.950 . S
C807 C806 1.397 . S
C807 C808 1.334 . S
C808 H779 0.950 . S
C808 C807 1.334 . S
C808 C809 1.287 . S
C809 C808 1.287 . S
C809 C810 1.524 . S
C809 H812 0.999 . S
C810 H780 0.950 . S
C810 C809 1.524 . S
C810 C811 1.415 . S
C811 H781 0.950 . S
C811 C806 1.363 . S
C811 C810 1.415 . S
H812 C809 0.999 . S
H813 C794 0.913 . S
H814 C832 0.951 . S
H815 C834 0.951 . S
H816 C836 0.950 . S
H817 C837 0.950 . S
H818 C839 0.950 . S
H819 C842 0.950 . S
H820 C843 0.950 . S
H821 C845 0.950 . S
H822 C846 0.950 . S
H823 C847 0.951 . S
H824 C849 0.951 . S
H825 C851 0.950 . S
H826 C852 0.950 . S
H827 C854 0.950 . S
H828 C857 0.950 . S
H829 C858 0.950 . S
H830 C860 0.950 . S
H831 C861 0.950 . S
C832 H814 0.951 . S
C832 C833 1.366 . S
C832 C834 1.388 . S
C833 C832 1.366 . S
C833 C837 1.385 . S
C834 H815 0.951 . S
C834 C832 1.388 . S
C834 C835 1.366 . S
C835 C834 1.366 . S
C835 C836 1.414 . S
C835 C838 1.499 . S
C836 H816 0.950 . S
C836 C835 1.414 . S
C836 C837 1.374 . S
C837 H817 0.950 . S
C837 C833 1.385 . S
C837 C836 1.374 . S
C838 C835 1.499 . S
C838 C839 1.373 . S
C838 C840 1.389 . S
C839 H818 0.950 . S
C839 C838 1.373 . S
C839 C855 1.377 . S
C840 C838 1.389 . S
C840 C841 1.524 . S
C840 C854 1.377 . S
C841 C840 1.524 . S
C841 C842 1.397 . S
C841 C846 1.363 . S
C842 H819 0.950 . S
C842 C841 1.397 . S
C842 C843 1.334 . S
C843 H820 0.950 . S
C843 C842 1.334 . S
C843 C844 1.287 . S
C844 C843 1.287 . S
C844 C845 1.524 . S
C844 H863 0.913 . S
C845 H821 0.950 . S
C845 C844 1.524 . S
C845 C846 1.415 . S
C846 H822 0.950 . S
C846 C841 1.363 . S
C846 C845 1.415 . S
C847 H823 0.951 . S
C847 C848 1.366 . S
C847 C849 1.388 . S
C848 C847 1.366 . S
C848 C852 1.385 . S
C849 H824 0.951 . S
C849 C847 1.388 . S
C849 C850 1.366 . S
C850 C849 1.366 . S
C850 C851 1.414 . S
C850 C853 1.499 . S
C851 H825 0.950 . S
C851 C850 1.414 . S
C851 C852 1.374 . S
C852 H826 0.950 . S
C852 C848 1.385 . S
C852 C851 1.374 . S
C853 C850 1.499 . S
C853 C854 1.373 . S
C853 C855 1.389 . S
C854 H827 0.950 . S
C854 C840 1.377 . S
C854 C853 1.373 . S
C855 C839 1.377 . S
C855 C853 1.389 . S
C855 C856 1.524 . S
C856 C855 1.524 . S
C856 C857 1.397 . S
C856 C861 1.363 . S
C857 H828 0.950 . S
C857 C856 1.397 . S
C857 C858 1.334 . S
C858 H829 0.950 . S
C858 C857 1.334 . S
C858 C859 1.287 . S
C859 C858 1.287 . S
C859 C860 1.524 . S
C859 H862 0.999 . S
C860 H830 0.950 . S
C860 C859 1.524 . S
C860 C861 1.415 . S
C861 H831 0.950 . S
C861 C856 1.363 . S
C861 C860 1.415 . S
H862 C859 0.999 . S
H863 C844 0.913 . S
H864 C882 0.951 . S
H865 C884 0.947 1_655 S
H866 C886 0.950 . S
H867 C887 0.950 . S
H868 C889 0.972 . S
H869 C892 0.950 . S
H870 C893 0.950 . S
H871 C895 0.950 1_556 S
H872 C896 0.950 . S
H873 C897 0.951 . S
H874 C899 0.951 . S
H875 C901 0.950 1_556 S
H876 C902 0.950 . S
H877 C904 0.950 . S
H878 C907 0.950 . S
H879 C908 0.950 . S
H880 C910 0.950 . S
H881 C911 0.950 . S
C882 H864 0.951 . S
C882 C883 1.366 . S
C882 C884 1.382 1_655 S
C883 C882 1.366 . S
C883 C887 1.385 1_655 S
C884 H865 0.947 1_455 S
C884 C882 1.382 1_455 S
C884 C885 1.375 . S
C885 C884 1.375 . S
C885 C886 1.414 . S
C885 C888 1.499 . S
C886 H866 0.950 . S
C886 C885 1.414 . S
C886 C887 1.374 . S
C887 H867 0.950 . S
C887 C883 1.385 1_455 S
C887 C886 1.374 . S
C888 C885 1.499 . S
C888 C889 1.356 1_455 S
C888 C890 1.389 . S
C889 H868 0.972 . S
C889 C888 1.356 1_655 S
C889 C905 1.374 1_655 S
C890 C888 1.389 . S
C890 C891 1.524 . S
C890 C904 1.377 . S
C891 C890 1.524 . S
C891 C892 1.397 . S
C891 C896 1.363 . S
C892 H869 0.950 . S
C892 C891 1.397 . S
C892 C893 1.334 . S
C893 H870 0.950 . S
C893 C892 1.334 . S
C893 C894 1.287 . S
C894 C893 1.287 . S
C894 C895 1.524 . S
C894 H913 0.913 . S
C895 H871 0.950 1_554 S
C895 C894 1.524 . S
C895 C896 1.415 . S
C896 H872 0.950 . S
C896 C891 1.363 . S
C896 C895 1.415 . S
C897 H873 0.951 . S
C897 C898 1.366 . S
C897 C899 1.388 . S
C898 C897 1.366 . S
C898 C902 1.385 1_554 S
C899 H874 0.951 . S
C899 C897 1.388 . S
C899 C900 1.366 . S
C900 C899 1.366 . S
C900 C901 1.414 . S
C900 C903 1.499 . S
C901 H875 0.950 1_554 S
C901 C900 1.414 . S
C901 C902 1.374 1_554 S
C902 H876 0.950 . S
C902 C898 1.385 1_556 S
C902 C901 1.374 1_556 S
C903 C900 1.499 . S
C903 C904 1.373 . S
C903 C905 1.389 . S
C904 H877 0.950 . S
C904 C890 1.377 . S
C904 C903 1.373 . S
C905 C889 1.374 1_455 S
C905 C903 1.389 . S
C905 C906 1.524 1_455 S
C906 C905 1.524 1_655 S
C906 C907 1.397 . S
C906 C911 1.363 . S
C907 H878 0.950 . S
C907 C906 1.397 . S
C907 C908 1.334 . S
C908 H879 0.950 . S
C908 C907 1.334 . S
C908 C909 1.287 . S
C909 C908 1.287 . S
C909 C910 1.524 . S
C909 H912 0.999 . S
C910 H880 0.950 . S
C910 C909 1.524 . S
C910 C911 1.415 . S
C911 H881 0.950 . S
C911 C906 1.363 . S
C911 C910 1.415 . S
H912 C909 0.999 . S
H913 C894 0.913 . S
H914 C932 0.951 . S
H915 C934 0.951 . S
H916 C936 0.950 . S
H917 C937 0.950 . S
H918 C939 0.950 . S
H919 C942 0.950 . S
H920 C943 0.950 . S
H921 C945 0.950 . S
H922 C946 0.950 . S
H923 C947 0.951 1_566 S
H924 C949 0.951 1_565 S
H925 C951 0.950 . S
H926 C952 0.950 . S
H927 C954 0.950 . S
H928 C957 0.950 1_554 S
H929 C958 0.950 . S
H930 C960 0.950 . S
H931 C961 0.950 1_554 S
C932 H914 0.951 . S
C932 C933 1.366 1_545 S
C932 C934 1.388 . S
C933 C932 1.366 1_565 S
C933 C937 1.385 . S
C934 H915 0.951 . S
C934 C932 1.388 . S
C934 C935 1.366 . S
C935 C934 1.366 . S
C935 C936 1.414 1_545 S
C935 C938 1.499 . S
C936 H916 0.950 . S
C936 C935 1.414 1_565 S
C936 C937 1.374 . S
C937 H917 0.950 . S
C937 C933 1.385 . S
C937 C936 1.374 . S
C938 C935 1.499 . S
C938 C939 1.373 . S
C938 C940 1.389 . S
C939 H918 0.950 . S
C939 C938 1.373 . S
C939 C955 1.377 . S
C940 C938 1.389 . S
C940 C941 1.524 . S
C940 C954 1.377 . S
C941 C940 1.524 . S
C941 C942 1.397 1_545 S
C941 C946 1.363 . S
C942 H919 0.950 . S
C942 C941 1.397 1_565 S
C942 C943 1.334 . S
C943 H920 0.950 . S
C943 C942 1.334 . S
C943 C944 1.287 1_565 S
C944 C943 1.287 1_545 S
C944 C945 1.524 . S
C944 H963 0.913 . S
C945 H921 0.950 . S
C945 C944 1.524 . S
C945 C946 1.415 . S
C946 H922 0.950 . S
C946 C941 1.363 . S
C946 C945 1.415 . S
C947 H923 0.951 1_544 S
C947 C948 1.366 . S
C947 C949 1.388 . S
C948 C947 1.366 . S
C948 C952 1.385 . S
C949 H924 0.951 1_545 S
C949 C947 1.388 . S
C949 C950 1.366 . S
C950 C949 1.366 . S
C950 C951 1.414 . S
C950 C953 1.499 . S
C951 H925 0.950 . S
C951 C950 1.414 . S
C951 C952 1.374 . S
C952 H926 0.950 . S
C952 C948 1.385 . S
C952 C951 1.374 . S
C953 C950 1.499 . S
C953 C954 1.373 . S
C953 C955 1.389 . S
C954 H927 0.950 . S
C954 C940 1.377 . S
C954 C953 1.373 . S
C955 C939 1.377 . S
C955 C953 1.389 . S
C955 C956 1.524 . S
C956 C955 1.524 . S
C956 C957 1.397 1_554 S
C956 C961 1.363 1_544 S
C957 H928 0.950 1_556 S
C957 C956 1.397 1_556 S
C957 C958 1.334 . S
C958 H929 0.950 . S
C958 C957 1.334 . S
C958 C959 1.287 . S
C959 C958 1.287 . S
C959 C960 1.524 1_545 S
C959 H962 0.999 . S
C960 H930 0.950 . S
C960 C959 1.524 1_565 S
C960 C961 1.415 . S
C961 H931 0.950 1_556 S
C961 C956 1.363 1_566 S
C961 C960 1.415 . S
H962 C959 0.999 . S
H963 C944 0.913 . S
H964 C982 0.951 . S
H965 C984 0.951 . S
H966 C986 0.950 . S
H967 C987 0.950 . S
H968 C989 0.950 . S
H969 C992 0.950 . S
H970 C993 0.950 . S
H971 C995 0.950 . S
H972 C996 0.950 . S
H973 C997 0.951 . S
H974 C999 0.951 1_556 S
H975 C1001 0.950 . S
H976 C1002 0.950 . S
H977 C1004 0.950 . S
H978 C1007 0.950 . S
H979 C1008 0.950 . S
H980 C1010 0.950 1_556 S
H981 C1011 0.950 . S
C982 H964 0.951 . S
C982 C983 1.366 . S
C982 C984 1.388 . S
C983 C982 1.366 . S
C983 C987 1.385 . S
C984 H965 0.951 . S
C984 C982 1.388 . S
C984 C985 1.366 . S
C985 C984 1.366 . S
C985 C986 1.414 . S
C985 C988 1.499 . S
C986 H966 0.950 . S
C986 C985 1.414 . S
C986 C987 1.374 . S
C987 H967 0.950 . S
C987 C983 1.385 . S
C987 C986 1.374 . S
C988 C985 1.499 . S
C988 C989 1.373 . S
C988 C990 1.389 . S
C989 H968 0.950 . S
C989 C988 1.373 . S
C989 C1005 1.377 . S
C990 C988 1.389 . S
C990 C991 1.524 . S
C990 C1004 1.377 . S
C991 C990 1.524 . S
C991 C992 1.397 . S
C991 C996 1.363 . S
C992 H969 0.950 . S
C992 C991 1.397 . S
C992 C993 1.334 . S
C993 H970 0.950 . S
C993 C992 1.334 . S
C993 C994 1.287 . S
C994 C993 1.287 . S
C994 C995 1.524 . S
C994 H1013 0.913 . S
C995 H971 0.950 . S
C995 C994 1.524 . S
C995 C996 1.415 . S
C996 H972 0.950 . S
C996 C991 1.363 . S
C996 C995 1.415 . S
C997 H973 0.951 . S
C997 C998 1.366 1_556 S
C997 C999 1.388 1_556 S
C998 C997 1.366 1_554 S
C998 C1002 1.385 . S
C999 H974 0.951 1_554 S
C999 C997 1.388 1_554 S
C999 C1000 1.366 . S
C1000 C999 1.366 . S
C1000 C1001 1.414 . S
C1000 C1003 1.499 . S
C1001 H975 0.950 . S
C1001 C1000 1.414 . S
C1001 C1002 1.374 . S
C1002 H976 0.950 . S
C1002 C998 1.385 . S
C1002 C1001 1.374 . S
C1003 C1000 1.499 . S
C1003 C1004 1.373 . S
C1003 C1005 1.389 . S
C1004 H977 0.950 . S
C1004 C990 1.377 . S
C1004 C1003 1.373 . S
C1005 C989 1.377 . S
C1005 C1003 1.389 . S
C1005 C1006 1.524 . S
C1006 C1005 1.524 . S
C1006 C1007 1.397 . S
C1006 C1011 1.363 . S
C1007 H978 0.950 . S
C1007 C1006 1.397 . S
C1007 C1008 1.334 . S
C1008 H979 0.950 . S
C1008 C1007 1.334 . S
C1008 C1009 1.287 . S
C1009 C1008 1.287 . S
C1009 C1010 1.524 . S
C1009 H1012 0.999 . S
C1010 H980 0.950 1_554 S
C1010 C1009 1.524 . S
C1010 C1011 1.415 . S
C1011 H981 0.950 . S
C1011 C1006 1.363 . S
C1011 C1010 1.415 . S
H1012 C1009 0.999 . S
H1013 C994 0.913 . S
H1014 C1032 0.951 . S
H1015 C1034 0.951 . S
H1016 C1036 0.950 . S
H1017 C1037 0.950 . S
H1018 C1039 0.950 . S
H1019 C1042 0.950 . S
H1020 C1043 0.950 . S
H1021 C1045 0.950 1_556 S
H1022 C1046 0.950 . S
H1023 C1047 0.951 . S
H1024 C1049 0.951 . S
H1025 C1051 0.950 . S
H1026 C1052 0.950 1_556 S
H1027 C1054 0.950 . S
H1028 C1057 0.950 . S
H1029 C1058 0.950 . S
H1030 C1060 0.950 . S
H1031 C1061 0.950 . S
C1032 H1014 0.951 . S
C1032 C1033 1.366 . S
C1032 C1034 1.388 . S
C1033 C1032 1.366 . S
C1033 C1037 1.385 . S
C1034 H1015 0.951 . S
C1034 C1032 1.388 . S
C1034 C1035 1.366 . S
C1035 C1034 1.366 . S
C1035 C1036 1.414 . S
C1035 C1038 1.499 . S
C1036 H1016 0.950 . S
C1036 C1035 1.414 . S
C1036 C1037 1.374 . S
C1037 H1017 0.950 . S
C1037 C1033 1.385 . S
C1037 C1036 1.374 . S
C1038 C1035 1.499 . S
C1038 C1039 1.373 . S
C1038 C1040 1.389 . S
C1039 H1018 0.950 . S
C1039 C1038 1.373 . S
C1039 C1055 1.377 . S
C1040 C1038 1.389 . S
C1040 C1041 1.524 . S
C1040 C1054 1.377 . S
C1041 C1040 1.524 . S
C1041 C1042 1.397 . S
C1041 C1046 1.363 . S
C1042 H1019 0.950 . S
C1042 C1041 1.397 . S
C1042 C1043 1.334 . S
C1043 H1020 0.950 . S
C1043 C1042 1.334 . S
C1043 C1044 1.287 . S
C1044 C1043 1.287 . S
C1044 C1045 1.524 . S
C1044 H1063 0.913 1_554 S
C1045 H1021 0.950 1_554 S
C1045 C1044 1.524 . S
C1045 C1046 1.415 . S
C1046 H1022 0.950 . S
C1046 C1041 1.363 . S
C1046 C1045 1.415 . S
C1047 H1023 0.951 . S
C1047 C1048 1.366 . S
C1047 C1049 1.388 . S
C1048 C1047 1.366 . S
C1048 C1052 1.385 . S
C1049 H1024 0.951 . S
C1049 C1047 1.388 . S
C1049 C1050 1.366 . S
C1050 C1049 1.366 . S
C1050 C1051 1.414 . S
C1050 C1053 1.499 . S
C1051 H1025 0.950 . S
C1051 C1050 1.414 . S
C1051 C1052 1.374 . S
C1052 H1026 0.950 1_554 S
C1052 C1048 1.385 . S
C1052 C1051 1.374 . S
C1053 C1050 1.499 . S
C1053 C1054 1.373 . S
C1053 C1055 1.389 . S
C1054 H1027 0.950 . S
C1054 C1040 1.377 . S
C1054 C1053 1.373 . S
C1055 C1039 1.377 . S
C1055 C1053 1.389 . S
C1055 C1056 1.524 . S
C1056 C1055 1.524 . S
C1056 C1057 1.397 . S
C1056 C1061 1.363 . S
C1057 H1028 0.950 . S
C1057 C1056 1.397 . S
C1057 C1058 1.334 . S
C1058 H1029 0.950 . S
C1058 C1057 1.334 . S
C1058 C1059 1.287 . S
C1059 C1058 1.287 . S
C1059 C1060 1.524 . S
C1059 H1062 0.999 . S
C1060 H1030 0.950 . S
C1060 C1059 1.524 . S
C1060 C1061 1.415 . S
C1061 H1031 0.950 . S
C1061 C1056 1.363 . S
C1061 C1060 1.415 . S
H1062 C1059 0.999 . S
H1063 C1044 0.913 1_556 S
H1064 C1082 0.951 . S
H1065 C1084 0.951 1_554 S
H1066 C1086 0.950 . S
H1067 C1087 0.950 . S
H1068 C1089 0.950 . S
H1069 C1092 0.950 . S
H1070 C1093 0.950 . S
H1071 C1095 0.950 . S
H1072 C1096 0.950 . S
H1073 C1097 0.948 1_655 S
H1074 C1099 0.971 . S
H1075 C1101 0.950 . S
H1076 C1102 0.950 . S
H1077 C1104 0.950 . S
H1078 C1107 0.950 . S
H1079 C1108 0.950 . S
H1080 C1110 0.950 . S
H1081 C1111 0.950 . S
C1082 H1064 0.951 . S
C1082 C1083 1.382 1_554 S
C1082 C1084 1.388 1_554 S
C1083 C1082 1.382 1_556 S
C1083 C1087 1.372 1_455 S
C1084 H1065 0.951 1_556 S
C1084 C1082 1.388 1_556 S
C1084 C1085 1.366 . S
C1085 C1084 1.366 . S
C1085 C1086 1.414 1_455 S
C1085 C1088 1.499 . S
C1086 H1066 0.950 . S
C1086 C1085 1.414 1_655 S
C1086 C1087 1.374 . S
C1087 H1067 0.950 . S
C1087 C1083 1.372 1_655 S
C1087 C1086 1.374 . S
C1088 C1085 1.499 . S
C1088 C1089 1.373 1_455 S
C1088 C1090 1.389 . S
C1089 H1068 0.950 . S
C1089 C1088 1.373 1_655 S
C1089 C1105 1.377 . S
C1090 C1088 1.389 . S
C1090 C1091 1.524 . S
C1090 C1104 1.377 . S
C1091 C1090 1.524 . S
C1091 C1092 1.397 . S
C1091 C1096 1.363 1_556 S
C1092 H1069 0.950 . S
C1092 C1091 1.397 . S
C1092 C1093 1.334 . S
C1093 H1070 0.950 . S
C1093 C1092 1.334 . S
C1093 C1094 1.287 . S
C1094 C1093 1.287 . S
C1094 C1095 1.524 1_556 S
C1094 H1113 0.913 . S
C1095 H1071 0.950 . S
C1095 C1094 1.524 1_554 S
C1095 C1096 1.415 . S
C1096 H1072 0.950 . S
C1096 C1091 1.363 1_554 S
C1096 C1095 1.415 . S
C1097 H1073 0.948 1_455 S
C1097 C1098 1.370 . S
C1097 C1099 1.386 1_455 S
C1098 C1097 1.370 . S
C1098 C1102 1.385 . S
C1099 H1074 0.971 . S
C1099 C1097 1.386 1_655 S
C1099 C1100 1.351 1_655 S
C1100 C1099 1.351 1_455 S
C1100 C1101 1.414 . S
C1100 C1103 1.499 . S
C1101 H1075 0.950 . S
C1101 C1100 1.414 . S
C1101 C1102 1.374 . S
C1102 H1076 0.950 . S
C1102 C1098 1.385 . S
C1102 C1101 1.374 . S
C1103 C1100 1.499 . S
C1103 C1104 1.373 . S
C1103 C1105 1.389 1_455 S
C1104 H1077 0.950 . S
C1104 C1090 1.377 . S
C1104 C1103 1.373 . S
C1105 C1089 1.377 . S
C1105 C1103 1.389 1_655 S
C1105 C1106 1.524 . S
C1106 C1105 1.524 . S
C1106 C1107 1.397 . S
C1106 C1111 1.363 . S
C1107 H1078 0.950 . S
C1107 C1106 1.397 . S
C1107 C1108 1.334 . S
C1108 H1079 0.950 . S
C1108 C1107 1.334 . S
C1108 C1109 1.287 . S
C1109 C1108 1.287 . S
C1109 C1110 1.524 . S
C1109 H1112 0.999 . S
C1110 H1080 0.950 . S
C1110 C1109 1.524 . S
C1110 C1111 1.415 . S
C1111 H1081 0.950 . S
C1111 C1106 1.363 . S
C1111 C1110 1.415 . S
H1112 C1109 0.999 . S
H1113 C1094 0.913 . S
H1114 C1132 0.951 . S
H1115 C1134 0.951 . S
H1116 C1136 0.950 . S
H1117 C1137 0.950 1_554 S
H1118 C1139 0.950 . S
H1119 C1142 0.950 . S
H1120 C1143 0.950 . S
H1121 C1145 0.950 . S
H1122 C1146 0.950 . S
H1123 C1147 0.951 . S
H1124 C1149 0.951 . S
H1125 C1151 0.950 . S
H1126 C1152 0.950 . S
H1127 C1154 0.950 . S
H1128 C1157 0.950 . S
H1129 C1158 0.950 . S
H1130 C1160 0.950 . S
H1131 C1161 0.950 . S
C1132 H1114 0.951 . S
C1132 C1133 1.330 1_565 S
C1132 C1134 1.388 . S
C1133 C1132 1.330 1_545 S
C1133 C1137 1.423 . S
C1134 H1115 0.951 . S
C1134 C1132 1.388 . S
C1134 C1135 1.366 1_565 S
C1135 C1134 1.366 1_545 S
C1135 C1136 1.414 . S
C1135 C1138 1.499 . S
C1136 H1116 0.950 . S
C1136 C1135 1.414 . S
C1136 C1137 1.374 . S
C1137 H1117 0.950 1_556 S
C1137 C1133 1.423 . S
C1137 C1136 1.374 . S
C1138 C1135 1.499 . S
C1138 C1139 1.373 . S
C1138 C1140 1.389 1_545 S
C1139 H1118 0.950 . S
C1139 C1138 1.373 . S
C1139 C1155 1.377 . S
C1140 C1138 1.389 1_565 S
C1140 C1141 1.524 . S
C1140 C1154 1.377 . S
C1141 C1140 1.524 . S
C1141 C1142 1.397 1_556 S
C1141 C1146 1.363 . S
C1142 H1119 0.950 . S
C1142 C1141 1.397 1_554 S
C1142 C1143 1.334 . S
C1143 H1120 0.950 . S
C1143 C1142 1.334 . S
C1143 C1144 1.287 . S
C1144 C1143 1.287 . S
C1144 C1145 1.524 1_554 S
C1144 H1163 0.913 . S
C1145 H1121 0.950 . S
C1145 C1144 1.524 1_556 S
C1145 C1146 1.415 . S
C1146 H1122 0.950 . S
C1146 C1141 1.363 . S
C1146 C1145 1.415 . S
C1147 H1123 0.951 . S
C1147 C1148 1.366 . S
C1147 C1149 1.388 . S
C1148 C1147 1.366 . S
C1148 C1152 1.385 1_545 S
C1149 H1124 0.951 . S
C1149 C1147 1.388 . S
C1149 C1150 1.366 . S
C1150 C1149 1.366 . S
C1150 C1151 1.414 1_545 S
C1150 C1153 1.499 . S
C1151 H1125 0.950 . S
C1151 C1150 1.414 1_565 S
C1151 C1152 1.374 . S
C1152 H1126 0.950 . S
C1152 C1148 1.385 1_565 S
C1152 C1151 1.374 . S
C1153 C1150 1.499 . S
C1153 C1154 1.373 1_545 S
C1153 C1155 1.389 . S
C1154 H1127 0.950 . S
C1154 C1140 1.377 . S
C1154 C1153 1.373 1_565 S
C1155 C1139 1.377 . S
C1155 C1153 1.389 . S
C1155 C1156 1.524 . S
C1156 C1155 1.524 . S
C1156 C1157 1.397 . S
C1156 C1161 1.363 . S
C1157 H1128 0.950 . S
C1157 C1156 1.397 . S
C1157 C1158 1.334 . S
C1158 H1129 0.950 . S
C1158 C1157 1.334 . S
C1158 C1159 1.287 . S
C1159 C1158 1.287 . S
C1159 C1160 1.524 . S
C1159 H1162 0.999 . S
C1160 H1130 0.950 . S
C1160 C1159 1.524 . S
C1160 C1161 1.415 . S
C1161 H1131 0.950 . S
C1161 C1156 1.363 . S
C1161 C1160 1.415 . S
H1162 C1159 0.999 . S
H1163 C1144 0.913 . S
H1164 C1182 0.951 1_554 S
H1165 C1184 0.951 . S
H1166 C1186 0.950 . S
H1167 C1187 0.950 . S
H1168 C1189 0.950 . S
H1169 C1192 0.950 . S
H1170 C1193 0.950 . S
H1171 C1195 0.950 . S
H1172 C1196 0.950 . S
H1173 C1197 0.951 . S
H1174 C1199 0.951 . S
H1175 C1201 0.950 . S
H1176 C1202 0.950 . S
H1177 C1204 0.950 . S
H1178 C1207 0.950 . S
H1179 C1208 0.950 1_554 S
H1180 C1210 0.950 . S
H1181 C1211 0.950 . S
C1182 H1164 0.951 1_556 S
C1182 C1183 1.366 . S
C1182 C1184 1.388 . S
C1183 C1182 1.366 . S
C1183 C1187 1.385 . S
C1184 H1165 0.951 . S
C1184 C1182 1.388 . S
C1184 C1185 1.366 . S
C1185 C1184 1.366 . S
C1185 C1186 1.414 . S
C1185 C1188 1.499 . S
C1186 H1166 0.950 . S
C1186 C1185 1.414 . S
C1186 C1187 1.374 . S
C1187 H1167 0.950 . S
C1187 C1183 1.385 . S
C1187 C1186 1.374 . S
C1188 C1185 1.499 . S
C1188 C1189 1.373 . S
C1188 C1190 1.389 . S
C1189 H1168 0.950 . S
C1189 C1188 1.373 . S
C1189 C1205 1.377 . S
C1190 C1188 1.389 . S
C1190 C1191 1.524 . S
C1190 C1204 1.377 . S
C1191 C1190 1.524 . S
C1191 C1192 1.397 . S
C1191 C1196 1.363 . S
C1192 H1169 0.950 . S
C1192 C1191 1.397 . S
C1192 C1193 1.334 . S
C1193 H1170 0.950 . S
C1193 C1192 1.334 . S
C1193 C1194 1.287 . S
C1194 C1193 1.287 . S
C1194 C1195 1.524 . S
C1194 H1213 0.913 . S
C1195 H1171 0.950 . S
C1195 C1194 1.524 . S
C1195 C1196 1.415 . S
C1196 H1172 0.950 . S
C1196 C1191 1.363 . S
C1196 C1195 1.415 . S
C1197 H1173 0.951 . S
C1197 C1198 1.366 . S
C1197 C1199 1.388 . S
C1198 C1197 1.366 . S
C1198 C1202 1.385 . S
C1199 H1174 0.951 . S
C1199 C1197 1.388 . S
C1199 C1200 1.366 . S
C1200 C1199 1.366 . S
C1200 C1201 1.414 . S
C1200 C1203 1.499 . S
C1201 H1175 0.950 . S
C1201 C1200 1.414 . S
C1201 C1202 1.374 . S
C1202 H1176 0.950 . S
C1202 C1198 1.385 . S
C1202 C1201 1.374 . S
C1203 C1200 1.499 . S
C1203 C1204 1.373 . S
C1203 C1205 1.389 . S
C1204 H1177 0.950 . S
C1204 C1190 1.377 . S
C1204 C1203 1.373 . S
C1205 C1189 1.377 . S
C1205 C1203 1.389 . S
C1205 C1206 1.524 . S
C1206 C1205 1.524 . S
C1206 C1207 1.397 . S
C1206 C1211 1.363 . S
C1207 H1178 0.950 . S
C1207 C1206 1.397 . S
C1207 C1208 1.334 . S
C1208 H1179 0.950 1_556 S
C1208 C1207 1.334 . S
C1208 C1209 1.287 . S
C1209 C1208 1.287 . S
C1209 C1210 1.524 . S
C1209 H1212 0.999 . S
C1210 H1180 0.950 . S
C1210 C1209 1.524 . S
C1210 C1211 1.415 . S
C1211 H1181 0.950 . S
C1211 C1206 1.363 . S
C1211 C1210 1.415 . S
H1212 C1209 0.999 . S
H1213 C1194 0.913 . S
H1214 C1232 0.951 . S
H1215 C1234 0.951 1_554 S
H1216 C1236 0.950 . S
H1217 C1237 0.950 . S
H1218 C1239 0.950 . S
H1219 C1242 0.950 . S
H1220 C1243 0.950 . S
H1221 C1245 0.950 . S
H1222 C1246 0.950 . S
H1223 C1247 0.951 . S
H1224 C1249 0.951 . S
H1225 C1251 0.950 . S
H1226 C1252 0.950 . S
H1227 C1254 0.950 . S
H1228 C1257 0.950 . S
H1229 C1258 0.950 . S
H1230 C1260 0.950 . S
H1231 C1261 0.950 . S
C1232 H1214 0.951 . S
C1232 C1233 1.366 1_554 S
C1232 C1234 1.388 1_554 S
C1233 C1232 1.366 1_556 S
C1233 C1237 1.385 . S
C1234 H1215 0.951 1_556 S
C1234 C1232 1.388 1_556 S
C1234 C1235 1.366 . S
C1235 C1234 1.366 . S
C1235 C1236 1.414 . S
C1235 C1238 1.499 . S
C1236 H1216 0.950 . S
C1236 C1235 1.414 . S
C1236 C1237 1.374 . S
C1237 H1217 0.950 . S
C1237 C1233 1.385 . S
C1237 C1236 1.374 . S
C1238 C1235 1.499 . S
C1238 C1239 1.373 . S
C1238 C1240 1.389 . S
C1239 H1218 0.950 . S
C1239 C1238 1.373 . S
C1239 C1255 1.377 . S
C1240 C1238 1.389 . S
C1240 C1241 1.524 1_556 S
C1240 C1254 1.377 . S
C1241 C1240 1.524 1_554 S
C1241 C1242 1.397 1_554 S
C1241 C1246 1.363 . S
C1242 H1219 0.950 . S
C1242 C1241 1.397 1_556 S
C1242 C1243 1.334 1_556 S
C1243 H1220 0.950 . S
C1243 C1242 1.334 1_554 S
C1243 C1244 1.287 . S
C1244 C1243 1.287 . S
C1244 C1245 1.524 . S
C1244 H1263 0.913 . S
C1245 H1221 0.950 . S
C1245 C1244 1.524 . S
C1245 C1246 1.415 . S
C1246 H1222 0.950 . S
C1246 C1241 1.363 . S
C1246 C1245 1.415 . S
C1247 H1223 0.951 . S
C1247 C1248 1.366 . S
C1247 C1249 1.388 . S
C1248 C1247 1.366 . S
C1248 C1252 1.385 . S
C1249 H1224 0.951 . S
C1249 C1247 1.388 . S
C1249 C1250 1.366 . S
C1250 C1249 1.366 . S
C1250 C1251 1.414 . S
C1250 C1253 1.499 . S
C1251 H1225 0.950 . S
C1251 C1250 1.414 . S
C1251 C1252 1.374 . S
C1252 H1226 0.950 . S
C1252 C1248 1.385 . S
C1252 C1251 1.374 . S
C1253 C1250 1.499 . S
C1253 C1254 1.373 . S
C1253 C1255 1.389 . S
C1254 H1227 0.950 . S
C1254 C1240 1.377 . S
C1254 C1253 1.373 . S
C1255 C1239 1.377 . S
C1255 C1253 1.389 . S
C1255 C1256 1.524 . S
C1256 C1255 1.524 . S
C1256 C1257 1.397 . S
C1256 C1261 1.363 . S
C1257 H1228 0.950 . S
C1257 C1256 1.397 . S
C1257 C1258 1.334 . S
C1258 H1229 0.950 . S
C1258 C1257 1.334 . S
C1258 C1259 1.287 . S
C1259 C1258 1.287 . S
C1259 C1260 1.524 . S
C1259 H1262 0.999 . S
C1260 H1230 0.950 . S
C1260 C1259 1.524 . S
C1260 C1261 1.415 . S
C1261 H1231 0.950 . S
C1261 C1256 1.363 . S
C1261 C1260 1.415 . S
H1262 C1259 0.999 . S
H1263 C1244 0.913 . S
H1264 C1282 0.951 . S
H1265 C1284 0.951 . S
H1266 C1286 0.950 . S
H1267 C1287 0.950 . S
H1268 C1289 0.950 . S
H1269 C1292 0.950 . S
H1270 C1293 0.950 . S
H1271 C1295 0.950 . S
H1272 C1296 0.950 . S
H1273 C1297 0.951 . S
H1274 C1299 0.951 . S
H1275 C1301 0.955 . S
H1276 C1302 0.950 . S
H1277 C1304 0.950 . S
H1278 C1307 0.950 . S
H1279 C1308 0.950 . S
H1280 C1310 0.950 . S
H1281 C1311 0.950 . S
C1282 H1264 0.951 . S
C1282 C1283 1.359 1_455 S
C1282 C1284 1.388 . S
C1283 C1282 1.359 1_655 S
C1283 C1287 1.394 . S
C1284 H1265 0.951 . S
C1284 C1282 1.388 . S
C1284 C1285 1.366 1_455 S
C1285 C1284 1.366 1_655 S
C1285 C1286 1.414 . S
C1285 C1288 1.499 . S
C1286 H1266 0.950 . S
C1286 C1285 1.414 . S
C1286 C1287 1.374 . S
C1287 H1267 0.950 . S
C1287 C1283 1.394 . S
C1287 C1286 1.374 . S
C1288 C1285 1.499 . S
C1288 C1289 1.373 . S
C1288 C1290 1.389 1_655 S
C1289 H1268 0.950 . S
C1289 C1288 1.373 . S
C1289 C1305 1.377 . S
C1290 C1288 1.389 1_455 S
C1290 C1291 1.524 . S
C1290 C1304 1.377 . S
C1291 C1290 1.524 . S
C1291 C1292 1.397 . S
C1291 C1296 1.363 . S
C1292 H1269 0.950 . S
C1292 C1291 1.397 . S
C1292 C1293 1.334 . S
C1293 H1270 0.950 . S
C1293 C1292 1.334 . S
C1293 C1294 1.287 . S
C1294 C1293 1.287 . S
C1294 C1295 1.524 . S
C1294 H1313 0.913 . S
C1295 H1271 0.950 . S
C1295 C1294 1.524 . S
C1295 C1296 1.415 . S
C1296 H1272 0.950 . S
C1296 C1291 1.363 . S
C1296 C1295 1.415 . S
C1297 H1273 0.951 . S
C1297 C1298 1.366 . S
C1297 C1299 1.388 . S
C1298 C1297 1.366 . S
C1298 C1302 1.385 . S
C1299 H1274 0.951 . S
C1299 C1297 1.388 . S
C1299 C1300 1.366 . S
C1300 C1299 1.366 . S
C1300 C1301 1.414 . S
C1300 C1303 1.499 . S
C1301 H1275 0.955 . S
C1301 C1300 1.414 . S
C1301 C1302 1.374 . S
C1302 H1276 0.950 . S
C1302 C1298 1.385 . S
C1302 C1301 1.374 . S
C1303 C1300 1.499 . S
C1303 C1304 1.373 1_655 S
C1303 C1305 1.389 . S
C1304 H1277 0.950 . S
C1304 C1290 1.377 . S
C1304 C1303 1.373 1_455 S
C1305 C1289 1.377 . S
C1305 C1303 1.389 . S
C1305 C1306 1.524 . S
C1306 C1305 1.524 . S
C1306 C1307 1.397 . S
C1306 C1311 1.363 . S
C1307 H1278 0.950 . S
C1307 C1306 1.397 . S
C1307 C1308 1.334 . S
C1308 H1279 0.950 . S
C1308 C1307 1.334 . S
C1308 C1309 1.287 . S
C1309 C1308 1.287 . S
C1309 C1310 1.524 . S
C1309 H1312 0.999 . S
C1310 H1280 0.950 . S
C1310 C1309 1.524 . S
C1310 C1311 1.415 . S
C1311 H1281 0.950 . S
C1311 C1306 1.363 . S
C1311 C1310 1.415 . S
H1312 C1309 0.999 . S
H1313 C1294 0.913 . S
H1314 C1332 0.951 . S
H1315 C1334 0.951 . S
H1316 C1336 0.950 . S
H1317 C1337 0.950 . S
H1318 C1339 0.950 . S
H1319 C1342 0.950 . S
H1320 C1343 0.950 . S
H1321 C1345 0.950 . S
H1322 C1346 0.950 . S
H1323 C1347 0.951 . S
H1324 C1349 0.951 . S
H1325 C1351 0.950 . S
H1326 C1352 0.952 . S
H1327 C1354 0.950 . S
H1328 C1357 0.950 . S
H1329 C1358 0.950 . S
H1330 C1360 0.950 . S
H1331 C1361 0.950 . S
C1332 H1314 0.951 . S
C1332 C1333 1.356 1_545 S
C1332 C1334 1.388 . S
C1333 C1332 1.356 1_565 S
C1333 C1337 1.397 . S
C1334 H1315 0.951 . S
C1334 C1332 1.388 . S
C1334 C1335 1.366 1_545 S
C1335 C1334 1.366 1_565 S
C1335 C1336 1.414 . S
C1335 C1338 1.499 . S
C1336 H1316 0.950 . S
C1336 C1335 1.414 . S
C1336 C1337 1.374 . S
C1337 H1317 0.950 . S
C1337 C1333 1.397 . S
C1337 C1336 1.374 . S
C1338 C1335 1.499 . S
C1338 C1339 1.373 1_565 S
C1338 C1340 1.389 . S
C1339 H1318 0.950 . S
C1339 C1338 1.373 1_545 S
C1339 C1355 1.377 . S
C1340 C1338 1.389 . S
C1340 C1341 1.524 . S
C1340 C1354 1.377 . S
C1341 C1340 1.524 . S
C1341 C1342 1.397 . S
C1341 C1346 1.363 . S
C1342 H1319 0.950 . S
C1342 C1341 1.397 . S
C1342 C1343 1.334 . S
C1343 H1320 0.950 . S
C1343 C1342 1.334 . S
C1343 C1344 1.287 . S
C1344 C1343 1.287 . S
C1344 C1345 1.524 . S
C1344 H1363 0.913 . S
C1345 H1321 0.950 . S
C1345 C1344 1.524 . S
C1345 C1346 1.415 . S
C1346 H1322 0.950 . S
C1346 C1341 1.363 . S
C1346 C1345 1.415 . S
C1347 H1323 0.951 . S
C1347 C1348 1.366 . S
C1347 C1349 1.388 . S
C1348 C1347 1.366 . S
C1348 C1352 1.382 1_565 S
C1349 H1324 0.951 . S
C1349 C1347 1.388 . S
C1349 C1350 1.366 . S
C1350 C1349 1.366 . S
C1350 C1351 1.414 1_565 S
C1350 C1353 1.499 . S
C1351 H1325 0.950 . S
C1351 C1350 1.414 1_545 S
C1351 C1352 1.374 . S
C1352 H1326 0.952 . S
C1352 C1348 1.382 1_545 S
C1352 C1351 1.374 . S
C1353 C1350 1.499 . S
C1353 C1354 1.373 . S
C1353 C1355 1.389 1_565 S
C1354 H1327 0.950 . S
C1354 C1340 1.377 . S
C1354 C1353 1.373 . S
C1355 C1339 1.377 . S
C1355 C1353 1.389 1_545 S
C1355 C1356 1.524 . S
C1356 C1355 1.524 . S
C1356 C1357 1.397 . S
C1356 C1361 1.363 . S
C1357 H1328 0.950 . S
C1357 C1356 1.397 . S
C1357 C1358 1.334 . S
C1358 H1329 0.950 . S
C1358 C1357 1.334 . S
C1358 C1359 1.287 . S
C1359 C1358 1.287 . S
C1359 C1360 1.524 . S
C1359 H1362 0.999 . S
C1360 H1330 0.950 . S
C1360 C1359 1.524 . S
C1360 C1361 1.415 . S
C1361 H1331 0.950 . S
C1361 C1356 1.363 . S
C1361 C1360 1.415 . S
H1362 C1359 0.999 . S
H1363 C1344 0.913 . S
H1364 C1382 0.951 . S
H1365 C1384 0.951 . S
H1366 C1386 0.950 . S
H1367 C1387 0.950 . S
H1368 C1389 0.950 . S
H1369 C1392 0.950 . S
H1370 C1393 0.950 . S
H1371 C1395 0.950 . S
H1372 C1396 0.950 . S
H1373 C1397 0.951 . S
H1374 C1399 0.951 . S
H1375 C1401 0.950 . S
H1376 C1402 0.950 . S
H1377 C1404 0.950 . S
H1378 C1407 0.950 . S
H1379 C1408 0.950 . S
H1380 C1410 0.950 . S
H1381 C1411 0.950 . S
C1382 H1364 0.951 . S
C1382 C1383 1.366 . S
C1382 C1384 1.388 . S
C1383 C1382 1.366 . S
C1383 C1387 1.385 . S
C1384 H1365 0.951 . S
C1384 C1382 1.388 . S
C1384 C1385 1.366 . S
C1385 C1384 1.366 . S
C1385 C1386 1.414 . S
C1385 C1388 1.499 . S
C1386 H1366 0.950 . S
C1386 C1385 1.414 . S
C1386 C1387 1.374 . S
C1387 H1367 0.950 . S
C1387 C1383 1.385 . S
C1387 C1386 1.374 . S
C1388 C1385 1.499 . S
C1388 C1389 1.373 . S
C1388 C1390 1.389 . S
C1389 H1368 0.950 . S
C1389 C1388 1.373 . S
C1389 C1405 1.377 . S
C1390 C1388 1.389 . S
C1390 C1391 1.524 . S
C1390 C1404 1.377 . S
C1391 C1390 1.524 . S
C1391 C1392 1.397 . S
C1391 C1396 1.363 . S
C1392 H1369 0.950 . S
C1392 C1391 1.397 . S
C1392 C1393 1.334 . S
C1393 H1370 0.950 . S
C1393 C1392 1.334 . S
C1393 C1394 1.287 . S
C1394 C1393 1.287 . S
C1394 C1395 1.524 . S
C1394 H1413 0.913 . S
C1395 H1371 0.950 . S
C1395 C1394 1.524 . S
C1395 C1396 1.415 . S
C1396 H1372 0.950 . S
C1396 C1391 1.363 . S
C1396 C1395 1.415 . S
C1397 H1373 0.951 . S
C1397 C1398 1.366 . S
C1397 C1399 1.388 . S
C1398 C1397 1.366 . S
C1398 C1402 1.385 . S
C1399 H1374 0.951 . S
C1399 C1397 1.388 . S
C1399 C1400 1.366 . S
C1400 C1399 1.366 . S
C1400 C1401 1.414 . S
C1400 C1403 1.499 . S
C1401 H1375 0.950 . S
C1401 C1400 1.414 . S
C1401 C1402 1.374 . S
C1402 H1376 0.950 . S
C1402 C1398 1.385 . S
C1402 C1401 1.374 . S
C1403 C1400 1.499 . S
C1403 C1404 1.373 . S
C1403 C1405 1.389 . S
C1404 H1377 0.950 . S
C1404 C1390 1.377 . S
C1404 C1403 1.373 . S
C1405 C1389 1.377 . S
C1405 C1403 1.389 . S
C1405 C1406 1.524 . S
C1406 C1405 1.524 . S
C1406 C1407 1.397 . S
C1406 C1411 1.363 . S
C1407 H1378 0.950 . S
C1407 C1406 1.397 . S
C1407 C1408 1.334 . S
C1408 H1379 0.950 . S
C1408 C1407 1.334 . S
C1408 C1409 1.287 . S
C1409 C1408 1.287 . S
C1409 C1410 1.524 . S
C1409 H1412 0.999 . S
C1410 H1380 0.950 . S
C1410 C1409 1.524 . S
C1410 C1411 1.415 . S
C1411 H1381 0.950 . S
C1411 C1406 1.363 . S
C1411 C1410 1.415 . S
H1412 C1409 0.999 . S
H1413 C1394 0.913 . S
H1414 C1432 0.951 . S
H1415 C1434 0.951 . S
H1416 C1436 0.950 . S
H1417 C1437 0.950 . S
H1418 C1439 0.950 . S
H1419 C1442 0.950 . S
H1420 C1443 0.950 . S
H1421 C1445 0.950 . S
H1422 C1446 0.950 . S
H1423 C1447 0.951 . S
H1424 C1449 0.951 . S
H1425 C1451 0.950 . S
H1426 C1452 0.950 . S
H1427 C1454 0.950 . S
H1428 C1457 0.950 . S
H1429 C1458 0.950 . S
H1430 C1460 0.950 . S
H1431 C1461 0.950 . S
C1432 H1414 0.951 . S
C1432 C1433 1.366 . S
C1432 C1434 1.388 . S
C1433 C1432 1.366 . S
C1433 C1437 1.385 . S
C1434 H1415 0.951 . S
C1434 C1432 1.388 . S
C1434 C1435 1.366 . S
C1435 C1434 1.366 . S
C1435 C1436 1.414 . S
C1435 C1438 1.499 . S
C1436 H1416 0.950 . S
C1436 C1435 1.414 . S
C1436 C1437 1.374 . S
C1437 H1417 0.950 . S
C1437 C1433 1.385 . S
C1437 C1436 1.374 . S
C1438 C1435 1.499 . S
C1438 C1439 1.373 . S
C1438 C1440 1.389 . S
C1439 H1418 0.950 . S
C1439 C1438 1.373 . S
C1439 C1455 1.377 . S
C1440 C1438 1.389 . S
C1440 C1441 1.524 . S
C1440 C1454 1.377 . S
C1441 C1440 1.524 . S
C1441 C1442 1.397 . S
C1441 C1446 1.363 . S
C1442 H1419 0.950 . S
C1442 C1441 1.397 . S
C1442 C1443 1.334 . S
C1443 H1420 0.950 . S
C1443 C1442 1.334 . S
C1443 C1444 1.287 . S
C1444 C1443 1.287 . S
C1444 C1445 1.524 . S
C1444 H1463 0.913 . S
C1445 H1421 0.950 . S
C1445 C1444 1.524 . S
C1445 C1446 1.415 . S
C1446 H1422 0.950 . S
C1446 C1441 1.363 . S
C1446 C1445 1.415 . S
C1447 H1423 0.951 . S
C1447 C1448 1.366 . S
C1447 C1449 1.388 . S
C1448 C1447 1.366 . S
C1448 C1452 1.385 . S
C1449 H1424 0.951 . S
C1449 C1447 1.388 . S
C1449 C1450 1.366 . S
C1450 C1449 1.366 . S
C1450 C1451 1.414 . S
C1450 C1453 1.499 . S
C1451 H1425 0.950 . S
C1451 C1450 1.414 . S
C1451 C1452 1.374 . S
C1452 H1426 0.950 . S
C1452 C1448 1.385 . S
C1452 C1451 1.374 . S
C1453 C1450 1.499 . S
C1453 C1454 1.373 . S
C1453 C1455 1.389 . S
C1454 H1427 0.950 . S
C1454 C1440 1.377 . S
C1454 C1453 1.373 . S
C1455 C1439 1.377 . S
C1455 C1453 1.389 . S
C1455 C1456 1.524 . S
C1456 C1455 1.524 . S
C1456 C1457 1.397 . S
C1456 C1461 1.363 . S
C1457 H1428 0.950 . S
C1457 C1456 1.397 . S
C1457 C1458 1.334 . S
C1458 H1429 0.950 . S
C1458 C1457 1.334 . S
C1458 C1459 1.287 . S
C1459 C1458 1.287 . S
C1459 C1460 1.524 . S
C1459 H1462 0.999 . S
C1460 H1430 0.950 . S
C1460 C1459 1.524 . S
C1460 C1461 1.415 . S
C1461 H1431 0.950 . S
C1461 C1456 1.363 . S
C1461 C1460 1.415 . S
H1462 C1459 0.999 . S
H1463 C1444 0.913 . S
C283 N80 1.821 1_545 S
C298 C122 1.859 1_545 S
C348 C162 1.870 . S
C333 N93 1.822 . S
C398 C202 1.874 . S
C383 N54 1.832 . S
C448 C242 1.867 1_455 S
C433 N67 1.825 1_455 S
C498 C112 1.864 1_565 S
C483 N28 1.826 1_545 S
C533 N41 1.825 . S
C548 C152 1.873 . S
C583 N2 1.831 . S
C598 C192 1.873 . S
C633 N15 1.826 . S
C648 C232 1.868 1_655 S
C698 C109 0.259 . S
C683 N70 0.219 1_455 S
C748 C149 0.264 . S
C733 N83 0.233 1_545 S
C798 C189 0.269 . S
C783 N96 0.239 . S
C833 N57 0.231 . S
C848 C229 0.260 . S
C883 N18 0.222 . S
C898 C119 0.256 . S
C948 C159 0.266 . S
C933 N31 0.225 . S
C998 C199 0.269 . S
C983 N44 0.231 . S
C1033 N5 0.223 . S
C1048 C239 0.267 . S
C1083 N66 2.009 1_456 S
C1098 C113 2.059 . S
C1133 N79 1.993 1_546 S
C1148 C153 2.048 . S
C1198 C193 2.038 . S
C1183 N92 1.985 1_556 S
C1248 C233 2.055 . S
C1233 N53 1.996 1_556 S
C1283 N14 2.010 . S
C1298 C123 2.074 . S
C1348 C163 2.048 . S
C1333 N27 1.992 . S
C1398 C203 2.037 . S
C1383 N40 1.981 . S
C1433 N1 1.998 . S
C1448 C243 2.062 . S
