# Generated by pormake.
# Topology ptr, (4,4)-cn, num edge types: 1
# Building blocks:
#     Node 0, Type 0, BuildingBlock: QUQFOY_clean_sbu_1, # of connection points: 4
#     Node 1, Type 0, BuildingBlock: QUQFOY_clean_sbu_1, # of connection points: 4
#     Node 2, Type 0, BuildingBlock: QUQFOY_clean_sbu_1, # of connection points: 4
#     Node 3, Type 0, BuildingBlock: QUQFOY_clean_sbu_1, # of connection points: 4
#     Node 4, Type 0, BuildingBlock: QUQFOY_clean_sbu_1, # of connection points: 4
#     Node 5, Type 0, BuildingBlock: QUQFOY_clean_sbu_1, # of connection points: 4
#     Node 6, Type 0, BuildingBlock: QUQFOY_clean_sbu_1, # of connection points: 4
#     Node 7, Type 0, BuildingBlock: QUQFOY_clean_sbu_1, # of connection points: 4
#     Node 8, Type 0, BuildingBlock: QUQFOY_clean_sbu_1, # of connection points: 4
#     Node 9, Type 0, BuildingBlock: QUQFOY_clean_sbu_1, # of connection points: 4
#     Node 10, Type 0, BuildingBlock: QUQFOY_clean_sbu_1, # of connection points: 4
#     Node 11, Type 0, BuildingBlock: QUQFOY_clean_sbu_1, # of connection points: 4
#     Node 12, Type 0, BuildingBlock: QUQFOY_clean_sbu_1, # of connection points: 4
#     Node 13, Type 0, BuildingBlock: QUQFOY_clean_sbu_1, # of connection points: 4
#     Node 14, Type 0, BuildingBlock: QUQFOY_clean_sbu_1, # of connection points: 4
#     Node 15, Type 0, BuildingBlock: QUQFOY_clean_sbu_1, # of connection points: 4
#     Node 16, Type 0, BuildingBlock: QUQFOY_clean_sbu_1, # of connection points: 4
#     Node 17, Type 0, BuildingBlock: QUQFOY_clean_sbu_1, # of connection points: 4
#     Node 18, Type 1, BuildingBlock: AZAVOO_clean_linker_0, # of connection points: 4
#     Node 19, Type 1, BuildingBlock: AZAVOO_clean_linker_0, # of connection points: 4
#     Node 20, Type 1, BuildingBlock: AZAVOO_clean_linker_0, # of connection points: 4
#     Node 21, Type 1, BuildingBlock: AZAVOO_clean_linker_0, # of connection points: 4
#     Node 22, Type 1, BuildingBlock: AZAVOO_clean_linker_0, # of connection points: 4
#     Node 23, Type 1, BuildingBlock: AZAVOO_clean_linker_0, # of connection points: 4
#     Node 24, Type 1, BuildingBlock: AZAVOO_clean_linker_0, # of connection points: 4
#     Node 25, Type 1, BuildingBlock: AZAVOO_clean_linker_0, # of connection points: 4
#     Node 26, Type 1, BuildingBlock: AZAVOO_clean_linker_0, # of connection points: 4
#     Node 27, Type 1, BuildingBlock: AZAVOO_clean_linker_0, # of connection points: 4
#     Node 28, Type 1, BuildingBlock: AZAVOO_clean_linker_0, # of connection points: 4
#     Node 29, Type 1, BuildingBlock: AZAVOO_clean_linker_0, # of connection points: 4
#     Node 30, Type 1, BuildingBlock: AZAVOO_clean_linker_0, # of connection points: 4
#     Node 31, Type 1, BuildingBlock: AZAVOO_clean_linker_0, # of connection points: 4
#     Node 32, Type 1, BuildingBlock: AZAVOO_clean_linker_0, # of connection points: 4
#     Node 33, Type 1, BuildingBlock: AZAVOO_clean_linker_0, # of connection points: 4
#     Node 34, Type 1, BuildingBlock: AZAVOO_clean_linker_0, # of connection points: 4
#     Node 35, Type 1, BuildingBlock: AZAVOO_clean_linker_0, # of connection points: 4
#     Edge 36, Type (0, 1), None
#     Edge 37, Type (0, 1), None
#     Edge 38, Type (0, 1), None
#     Edge 39, Type (0, 1), None
#     Edge 40, Type (0, 1), None
#     Edge 41, Type (0, 1), None
#     Edge 42, Type (0, 1), None
#     Edge 43, Type (0, 1), None
#     Edge 44, Type (0, 1), None
#     Edge 45, Type (0, 1), None
#     Edge 46, Type (0, 1), None
#     Edge 47, Type (0, 1), None
#     Edge 48, Type (0, 1), None
#     Edge 49, Type (0, 1), None
#     Edge 50, Type (0, 1), None
#     Edge 51, Type (0, 1), None
#     Edge 52, Type (0, 1), None
#     Edge 53, Type (0, 1), None
#     Edge 54, Type (0, 1), None
#     Edge 55, Type (0, 1), None
#     Edge 56, Type (0, 1), None
#     Edge 57, Type (0, 1), None
#     Edge 58, Type (0, 1), None
#     Edge 59, Type (0, 1), None
#     Edge 60, Type (0, 1), None
#     Edge 61, Type (0, 1), None
#     Edge 62, Type (0, 1), None
#     Edge 63, Type (0, 1), None
#     Edge 64, Type (0, 1), None
#     Edge 65, Type (0, 1), None
#     Edge 66, Type (0, 1), None
#     Edge 67, Type (0, 1), None
#     Edge 68, Type (0, 1), None
#     Edge 69, Type (0, 1), None
#     Edge 70, Type (0, 1), None
#     Edge 71, Type (0, 1), None
#     Edge 72, Type (0, 1), None
#     Edge 73, Type (0, 1), None
#     Edge 74, Type (0, 1), None
#     Edge 75, Type (0, 1), None
#     Edge 76, Type (0, 1), None
#     Edge 77, Type (0, 1), None
#     Edge 78, Type (0, 1), None
#     Edge 79, Type (0, 1), None
#     Edge 80, Type (0, 1), None
#     Edge 81, Type (0, 1), None
#     Edge 82, Type (0, 1), None
#     Edge 83, Type (0, 1), None
#     Edge 84, Type (0, 1), None
#     Edge 85, Type (0, 1), None
#     Edge 86, Type (0, 1), None
#     Edge 87, Type (0, 1), None
#     Edge 88, Type (0, 1), None
#     Edge 89, Type (0, 1), None
#     Edge 90, Type (0, 1), None
#     Edge 91, Type (0, 1), None
#     Edge 92, Type (0, 1), None
#     Edge 93, Type (0, 1), None
#     Edge 94, Type (0, 1), None
#     Edge 95, Type (0, 1), None
#     Edge 96, Type (0, 1), None
#     Edge 97, Type (0, 1), None
#     Edge 98, Type (0, 1), None
#     Edge 99, Type (0, 1), None
#     Edge 100, Type (0, 1), None
#     Edge 101, Type (0, 1), None
#     Edge 102, Type (0, 1), None
#     Edge 103, Type (0, 1), None
#     Edge 104, Type (0, 1), None
#     Edge 105, Type (0, 1), None
#     Edge 106, Type (0, 1), None
#     Edge 107, Type (0, 1), None
# Relax obj value: 0.059
# Max RMSD: 0.173
# Mean RMSD: 0.105
data_MOF--net-ptr--node1-QUQFOY_clean_sbu_1--node2-AZAVOO_clean_linker_0--edge1-none
_symmetry_space_group_name_H-M    P1
_symmetry_Int_Tables_number       1
_symmetry_cell_setting            triclinic
loop_
_symmetry_equiv_pos_as_xyz
'x, y, z'
_cell_length_a     45.947695
_cell_length_b     45.472972
_cell_length_c     37.539553
_cell_angle_alpha  93.332398
_cell_angle_beta   92.263823
_cell_angle_gamma 119.99519
loop_
_atom_site_label
_atom_site_type_symbol
_atom_site_fract_x
_atom_site_fract_y
_atom_site_fract_z
_atom_type_partial_charge
O0 O 0.03319 0.4359 0.08128 0.0
Cd1 Cd 0.04915 0.41311 0.04437 0.0
Cd2 Cd 0.98374 0.37327 0.02897 0.0
O3 O 0.98064 0.3939 0.07841 0.0
O4 O 0.09366 0.42321 0.0665 0.0
O5 O 0.04935 0.371 0.05839 0.0
C6 C 0.07998 0.3913 0.07164 0.0
C7 C 0.94682 0.31568 0.01087 0.0
C8 C 1.00434 0.42201 0.09348 0.0
C9 C 0.02473 0.42227 0.97495 0.0
O10 O 0.9962 0.40331 0.98669 0.0
O11 O 0.05154 0.42794 0.99262 0.0
O12 O 0.93676 0.3375 0.01326 0.0
O13 O 0.97802 0.32622 0.02052 0.0
O14 O 0.58945 0.59092 0.11895 0.0
Cd15 Cd 0.61084 0.6202 0.07734 0.0
Cd16 Cd 0.63288 0.5776 0.06903 0.0
O17 O 0.61801 0.56394 0.12014 0.0
O18 O 0.60325 0.65875 0.08867 0.0
O19 O 0.65418 0.66499 0.08919 0.0
C20 C 0.63538 0.67813 0.09494 0.0
C21 C 0.68673 0.60055 0.04883 0.0
C22 C 0.5973 0.57127 0.13399 0.0
C23 C 0.58377 0.57228 0.0117 0.0
O24 O 0.596 0.55636 0.02733 0.0
O25 O 0.5894 0.60096 0.02568 0.0
O26 O 0.66908 0.56861 0.05396 0.0
O27 O 0.67496 0.62012 0.05837 0.0
O28 O 0.4396 0.02747 0.99456 0.0
Cd29 Cd 0.42201 0.03489 0.04209 0.0
Cd30 Cd 0.39148 0.96752 0.03685 0.0
O31 O 0.40467 0.97215 0.98398 0.0
O32 O 0.42754 0.08126 0.04155 0.0
O33 O 0.3779 0.03384 0.0369 0.0
C34 C 0.39516 0.0665 0.03627 0.0
C35 C 0.33712 0.93781 0.05618 0.0
C36 C 0.42732 1.00026 0.97368 0.0
C37 C 0.4441 0.00432 0.0975 0.0
O38 O 0.42808 0.97708 0.07672 0.0
O39 O 0.4428 0.03071 0.09044 0.0
O40 O 0.35217 0.92192 0.04481 0.0
O41 O 0.35191 0.97027 0.05386 0.0
O42 O 0.98598 0.5642 0.01565 0.0
Cd43 Cd 0.96977 0.58661 0.05271 0.0
Cd44 Cd 0.03522 0.6267 0.06821 0.0
O45 O 0.03857 0.60618 0.01883 0.0
O46 O 0.92509 0.57617 0.03079 0.0
O47 O 0.96915 0.62854 0.03893 0.0
C48 C 0.93851 0.60808 0.0258 0.0
C49 C 0.07191 0.68428 0.08648 0.0
C50 C 0.0149 0.57814 1.0036 0.0
C51 C 0.99428 0.57762 0.12216 0.0
O52 O 0.0228 0.59671 0.1105 0.0
O53 O 0.96744 0.57174 0.10439 0.0
O54 O 0.0821 0.66256 0.0841 0.0
O55 O 0.04072 0.67365 0.07666 0.0
O56 O 0.42866 0.40916 0.97881 0.0
Cd57 Cd 0.40711 0.3798 0.02033 0.0
Cd58 Cd 0.38539 0.42262 0.0287 0.0
O59 O 0.39994 0.43596 0.97741 0.0
O60 O 0.41497 0.34142 0.0091 0.0
O61 O 0.36391 0.33488 0.00825 0.0
C62 C 0.38288 0.3219 1.00263 0.0
C63 C 0.3318 0.39975 0.04957 0.0
C64 C 0.42075 0.42872 0.96366 0.0
C65 C 0.43451 0.42796 0.08578 0.0
O66 O 0.42261 0.44408 0.07 0.0
O67 O 0.42844 0.39904 0.07203 0.0
O68 O 0.34921 0.43159 0.04397 0.0
O69 O 0.34361 0.38019 0.04009 0.0
O70 O 0.57923 0.97273 0.10431 0.0
Cd71 Cd 0.59677 0.96544 0.05665 0.0
Cd72 Cd 0.62726 0.03284 0.06206 0.0
O73 O 0.61412 0.02807 0.11495 0.0
O74 O 0.59153 0.91913 0.05694 0.0
O75 O 0.64102 0.96671 0.06168 0.0
C76 C 0.62394 0.93403 0.06216 0.0
C77 C 0.68146 0.06243 0.04234 0.0
C78 C 0.59149 0.99993 0.12521 0.0
C79 C 0.57457 0.99634 1.00154 0.0
O80 O 0.59057 0.02349 0.02245 0.0
O81 O 0.57592 0.96992 0.00839 0.0
O82 O 0.6666 0.07842 0.05405 0.0
O83 O 0.66659 0.02996 0.0446 0.0
O84 O 0.69946 0.76919 0.41484 0.0
Cd85 Cd 0.71546 0.74649 0.37784 0.0
Cd86 Cd 0.65 0.70681 0.36225 0.0
O87 O 0.64683 0.72734 0.41172 0.0
O88 O 0.76 0.75669 0.39998 0.0
O89 O 0.71578 0.70443 0.3918 0.0
C90 C 0.7464 0.72478 0.40506 0.0
C91 C 0.6131 0.64924 0.34404 0.0
C92 C 0.67058 0.75534 0.42694 0.0
C93 C 0.69124 0.75585 0.30838 0.0
O94 O 0.66265 0.73693 0.32002 0.0
O95 O 0.71798 0.76142 0.32614 0.0
O96 O 0.60305 0.67108 0.34639 0.0
O97 O 0.64428 0.65976 0.35378 0.0
O98 O 0.2561 0.9241 0.45227 0.0
Cd99 Cd 0.2775 0.95337 0.41064 0.0
Cd100 Cd 0.29937 0.91062 0.40226 0.0
O101 O 0.28452 0.89698 0.45338 0.0
O102 O 0.26992 0.99192 0.422 0.0
O103 O 0.32085 0.99816 0.42248 0.0
C104 C 0.30205 0.01131 0.42826 0.0
C105 C 0.35318 0.93343 0.382 0.0
C106 C 0.26389 0.90439 0.46727 0.0
C107 C 0.25029 0.90546 0.34499 0.0
O108 O 0.26245 0.88947 0.36059 0.0
O109 O 0.25602 0.93417 0.35898 0.0
O110 O 0.33546 0.90149 0.38711 0.0
O111 O 0.3415 0.95307 0.39159 0.0
O112 O 0.10651 0.36063 0.32783 0.0
Cd113 Cd 0.089 0.36816 0.37536 0.0
Cd114 Cd 0.05832 0.30082 0.37022 0.0
O115 O 0.07142 0.30533 0.31731 0.0
O116 O 0.09474 0.4146 0.37473 0.0
O117 O 0.04499 0.3673 0.37017 0.0
C118 C 0.06236 0.39995 0.36945 0.0
C119 C 1.00398 0.27112 0.38958 0.0
C120 C 0.09412 0.3334 0.30697 0.0
C121 C 0.111 0.33759 0.43083 0.0
O122 O 0.09493 0.31033 0.41007 0.0
O123 O 0.10976 0.36401 0.42373 0.0
O124 O 0.01904 0.25523 0.37821 0.0
O125 O 0.01876 0.30357 0.38724 0.0
O126 O 0.65298 0.8976 0.34881 0.0
Cd127 Cd 0.63665 0.91987 0.3859 0.0
Cd128 Cd 0.70214 0.95993 0.40162 0.0
O129 O 0.70561 0.93952 0.35224 0.0
O130 O 0.59193 0.90926 0.36392 0.0
O131 O 0.63584 0.96172 0.37215 0.0
C132 C 0.60523 0.94118 0.35897 0.0
C133 C 0.73883 0.01748 0.42001 0.0
C134 C 0.68194 0.91155 0.33687 0.0
C135 C 0.66098 0.91075 0.4554 0.0
O136 O 0.68955 0.92985 0.44384 0.0
O137 O 0.6342 0.90491 0.43754 0.0
O138 O 0.749 0.99574 0.41767 0.0
O139 O 0.70767 0.00689 0.4101 0.0
O140 O 0.09517 0.7427 0.31208 0.0
Cd141 Cd 0.07367 0.71335 0.35361 0.0
Cd142 Cd 0.05199 0.75623 0.36206 0.0
O143 O 0.06652 0.76957 0.31076 0.0
O144 O 0.08171 0.67508 0.34239 0.0
O145 O 0.03057 0.66832 0.34154 0.0
C146 C 0.04963 0.65546 0.33593 0.0
C147 C 0.99842 0.73339 0.38296 0.0
C148 C 0.08728 0.7623 0.29697 0.0
C149 C 0.1011 0.76148 0.41911 0.0
O150 O 0.08923 0.77765 0.40336 0.0
O151 O 0.095 0.73257 0.40531 0.0
O152 O 0.01586 0.76524 0.37736 0.0
O153 O 0.0102 0.71382 0.37346 0.0
O154 O 0.24577 0.30583 0.43753 0.0
Cd155 Cd 0.26332 0.29851 0.38988 0.0
Cd156 Cd 0.29369 0.36587 0.39517 0.0
O157 O 0.28066 0.36117 0.44809 0.0
O158 O 0.25814 0.25223 0.39025 0.0
O159 O 0.3076 0.29983 0.39494 0.0
C160 C 0.29054 0.26715 0.39547 0.0
C161 C 0.34784 0.39557 0.37539 0.0
C162 C 0.25804 0.33304 0.45841 0.0
C163 C 0.24101 0.32925 0.3347 0.0
O164 O 0.25694 0.35642 0.3556 0.0
O165 O 0.24244 0.30288 0.34158 0.0
O166 O 0.33293 0.41148 0.38711 0.0
O167 O 0.33307 0.36311 0.37767 0.0
O168 O 0.3663 0.10248 0.74812 0.0
Cd169 Cd 0.38233 0.07979 0.71117 0.0
Cd170 Cd 0.31687 0.04004 0.69557 0.0
O171 O 0.31369 0.06058 0.74502 0.0
O172 O 0.42688 0.09004 0.73334 0.0
O173 O 0.3827 0.03776 0.72517 0.0
C174 C 0.41331 0.05814 0.73844 0.0
C175 C 0.2799 0.98247 0.67737 0.0
C176 C 0.33742 0.08861 0.76023 0.0
C177 C 0.35809 0.08909 0.64168 0.0
O178 O 0.32952 0.07015 0.65333 0.0
O179 O 0.38484 0.09469 0.65945 0.0
O180 O 0.2699 0.00434 0.67972 0.0
O181 O 0.31108 0.99296 0.6871 0.0
O182 O 0.92303 0.2573 0.78581 0.0
Cd183 Cd 0.94435 0.28659 0.74417 0.0
Cd184 Cd 0.96637 0.24395 0.73578 0.0
O185 O 0.95153 0.23026 0.78689 0.0
O186 O 0.93654 0.32498 0.7555 0.0
O187 O 0.98758 0.3315 0.75601 0.0
C188 C 0.96865 0.3445 0.76176 0.0
C189 C 0.0202 0.26687 0.71554 0.0
C190 C 0.93087 0.23762 0.8008 0.0
C191 C 0.91726 0.23868 0.6785 0.0
O192 O 0.92947 0.22274 0.69409 0.0
O193 O 0.9229 0.26736 0.69251 0.0
O194 O 1.00254 0.23493 0.72066 0.0
O195 O 0.00846 0.28646 0.72512 0.0
O196 O 0.77295 0.6943 0.6612 0.0
Cd197 Cd 0.7554 0.70174 0.70875 0.0
Cd198 Cd 0.7249 0.63439 0.70359 0.0
O199 O 0.73804 0.63896 0.65071 0.0
O200 O 0.76091 0.7481 0.70818 0.0
O201 O 0.71128 0.70067 0.7036 0.0
C202 C 0.72852 0.73333 0.70294 0.0
C203 C 0.67056 0.6046 0.72292 0.0
C204 C 0.76066 0.66707 0.64036 0.0
C205 C 0.77754 0.67125 0.76422 0.0
O206 O 0.76153 0.64399 0.74346 0.0
O207 O 0.77623 0.69763 0.75712 0.0
O208 O 0.68567 0.58876 0.71157 0.0
O209 O 0.68529 0.63705 0.72059 0.0
O210 O 0.3198 0.23088 0.6821 0.0
Cd211 Cd 0.30349 0.25317 0.71919 0.0
Cd212 Cd 0.36897 0.29318 0.73492 0.0
O213 O 0.37245 0.27275 0.68556 0.0
O214 O 0.25879 0.24262 0.69722 0.0
O215 O 0.30274 0.29505 0.70547 0.0
C216 C 0.27212 0.27454 0.69229 0.0
C217 C 0.40559 0.35074 0.75329 0.0
C218 C 0.34877 0.2448 0.67017 0.0
C219 C 0.3278 0.24402 0.7887 0.0
O220 O 0.35638 0.26311 0.77715 0.0
O221 O 0.30103 0.2382 0.77083 0.0
O222 O 0.4158 0.32903 0.75097 0.0
O223 O 0.37443 0.3401 0.74336 0.0
O224 O 0.76211 0.07595 0.64563 0.0
Cd225 Cd 0.74052 0.04659 0.68714 0.0
Cd226 Cd 0.71902 0.08959 0.69563 0.0
O227 O 0.73354 0.10291 0.64432 0.0
O228 O 0.74832 0.00818 0.67585 0.0
O229 O 0.6973 0.00169 0.67505 0.0
C230 C 0.71623 0.98869 0.66939 0.0
C231 C 0.66547 0.06688 0.71657 0.0
C232 C 0.75427 0.09558 0.63053 0.0
C233 C 0.76808 0.09469 0.75265 0.0
O234 O 0.75628 0.11092 0.7369 0.0
O235 O 0.76188 0.06574 0.73885 0.0
O236 O 0.68297 0.09872 0.71098 0.0
O237 O 0.67718 0.04724 0.70704 0.0
O238 O 0.91221 0.63946 0.77094 0.0
Cd239 Cd 0.92966 0.63204 0.72328 0.0
Cd240 Cd 0.96029 0.69941 0.72858 0.0
O241 O 0.94726 0.69476 0.7815 0.0
O242 O 0.92422 0.58566 0.72364 0.0
O243 O 0.97381 0.63312 0.72829 0.0
C244 C 0.95662 0.60045 0.72884 0.0
C245 C 0.01447 0.72902 0.70882 0.0
C246 C 0.92458 0.66667 0.79182 0.0
C247 C 0.90754 0.66294 0.66812 0.0
O248 O 0.92359 0.6901 0.689 0.0
O249 O 0.90883 0.63649 0.675 0.0
O250 O 0.9996 0.74498 0.72055 0.0
O251 O 0.99964 0.69655 0.71108 0.0
H252 H 0.17649 0.41599 0.94434 0.0
H253 H 0.34292 0.31514 0.27525 0.0
H254 H 0.1652 0.41069 0.15648 0.0
H255 H 0.13153 0.42879 0.12233 0.0
H256 H 0.06986 0.32632 0.07212 0.0
H257 H 0.10447 0.30849 0.10609 0.0
H258 H 0.20224 0.41531 0.098 0.0
H259 H 0.19488 0.42573 0.036 0.0
H260 H 0.16058 0.3201 1.00253 0.0
H261 H 0.16774 0.30998 0.0648 0.0
H262 H 0.25925 0.41764 0.11824 0.0
H263 H 0.30625 0.43691 0.08037 0.0
H264 H 0.28857 0.33412 0.06554 0.0
H265 H 0.24066 0.31485 0.10299 0.0
H266 H 0.27468 0.40062 0.20573 0.0
H267 H 0.31882 0.4003 0.24403 0.0
H268 H 0.27742 0.29327 0.211 0.0
H269 H 0.23336 0.29399 0.1728 0.0
H270 H 0.21616 0.38668 0.25146 0.0
H271 H 0.23652 0.38263 0.3109 0.0
H272 H 0.20609 0.27726 0.28139 0.0
H273 H 0.18505 0.28155 0.22196 0.0
H274 H 0.16249 0.39373 0.21902 0.0
H275 H 0.13283 0.39 0.27254 0.0
H276 H 0.08649 0.28027 0.26076 0.0
H277 H 0.11644 0.28439 0.20687 0.0
O278 O 0.17935 0.41133 0.96866 0.0
O279 O 0.1623 0.35692 0.95276 0.0
O280 O 0.34596 0.37095 0.276 0.0
O281 O 0.32681 0.31632 0.25886 0.0
C282 C 0.16346 0.3506 0.14695 0.0
C283 C 0.18866 0.35512 0.12358 0.0
C284 C 0.21736 0.35375 0.13598 0.0
C285 C 0.21986 0.34577 0.1713 0.0
C286 C 0.194 0.33958 0.19429 0.0
C287 C 0.166 0.34254 0.18242 0.0
C288 C 0.13696 0.35811 0.13439 0.0
C289 C 0.14371 0.39181 0.13911 0.0
C290 C 0.12488 0.40228 0.11893 0.0
C291 C 0.0985 0.37912 0.09395 0.0
C292 C 0.09023 0.34478 0.09094 0.0
C293 C 0.1096 0.33444 0.11072 0.0
C294 C 0.18521 0.36183 0.08584 0.0
C295 C 0.19299 0.39444 0.07724 0.0
C296 C 0.18885 0.40033 0.0418 0.0
C297 C 0.17704 0.37372 0.0143 0.0
C298 C 0.16966 0.34114 0.02306 0.0
C299 C 0.17376 0.33529 0.05855 0.0
C300 C 0.24638 0.36481 0.11331 0.0
C301 C 0.26523 0.39917 0.10647 0.0
C302 C 0.29206 0.41011 0.08467 0.0
C303 C 0.30104 0.38702 0.06954 0.0
C304 C 0.28213 0.35251 0.07645 0.0
C305 C 0.25495 0.3415 0.09809 0.0
C306 C 0.25101 0.34739 0.18636 0.0
C307 C 0.27582 0.3774 0.20597 0.0
C308 C 0.30068 0.37701 0.22824 0.0
C309 C 0.30121 0.34657 0.23111 0.0
C310 C 0.27747 0.31702 0.20972 0.0
C311 C 0.2526 0.31747 0.18745 0.0
C312 C 0.19908 0.33442 0.2324 0.0
C313 C 0.21282 0.3624 0.25824 0.0
C314 C 0.22474 0.36006 0.29215 0.0
C315 C 0.22341 0.32971 0.30084 0.0
C316 C 0.20766 0.30104 0.27558 0.0
C317 C 0.19548 0.30338 0.24167 0.0
C318 C 0.14127 0.33934 0.20856 0.0
C319 C 0.14493 0.3688 0.22709 0.0
C320 C 0.12832 0.36659 0.2581 0.0
C321 C 0.10763 0.33482 0.27133 0.0
C322 C 0.10224 0.30512 0.25139 0.0
C323 C 0.11911 0.3074 0.22041 0.0
C324 C 0.17242 0.38001 0.9767 0.0
C325 C 0.32603 0.34547 0.25672 0.0
H326 H 0.63815 0.75768 0.9341 0.0
H327 H 0.69214 0.0429 0.22651 0.0
H328 H 0.62237 0.76511 0.14652 0.0
H329 H 0.60059 0.70678 0.12165 0.0
H330 H 0.70189 0.72972 0.1033 0.0
H331 H 0.72362 0.78901 0.12835 0.0
H332 H 0.62568 0.79087 0.08345 0.0
H333 H 0.62067 0.77088 0.02045 0.0
H334 H 0.72791 0.83777 0.01582 0.0
H335 H 0.73258 0.8574 0.07904 0.0
H336 H 0.61887 0.83911 0.10617 0.0
H337 H 0.5936 0.86702 0.07446 0.0
H338 H 0.6915 0.95807 0.07665 0.0
H339 H 0.71685 0.9292 0.10751 0.0
H340 H 0.6293 0.87634 0.18468 0.0
H341 H 0.62059 0.92379 0.2028 0.0
H342 H 0.72763 0.99389 0.20167 0.0
H343 H 0.7359 0.94611 0.18341 0.0
H344 H 0.64075 0.83141 0.23879 0.0
H345 H 0.63579 0.85287 0.29774 0.0
H346 H 0.73901 0.93542 0.30013 0.0
H347 H 0.74385 0.91294 0.24096 0.0
H348 H 0.63845 0.77417 0.21152 0.0
H349 H 0.63836 0.74302 0.26196 0.0
H350 H 0.74664 0.80689 0.27963 0.0
H351 H 0.7464 0.83778 0.22803 0.0
O352 O 0.64066 0.76621 0.95892 0.0
O353 O 0.69577 0.80157 0.95773 0.0
O354 O 0.64003 0.98657 0.21914 0.0
O355 O 0.69491 0.02368 0.21943 0.0
C356 C 0.68569 0.81709 0.15066 0.0
C357 C 0.68309 0.83692 0.1244 0.0
C358 C 0.68278 0.86701 0.13481 0.0
C359 C 0.68802 0.87887 0.17141 0.0
C360 C 0.69303 0.86035 0.1976 0.0
C361 C 0.6915 0.82914 0.18733 0.0
C362 C 0.67458 0.781 0.13989 0.0
C363 C 0.63998 0.7574 0.13782 0.0
C364 C 0.62755 0.72419 0.12309 0.0
C365 C 0.6495 0.71372 0.11019 0.0
C366 C 0.6844 0.73717 0.11295 0.0
C367 C 0.69687 0.77082 0.12751 0.0
C368 C 0.67954 0.82548 0.08582 0.0
C369 C 0.64807 0.80118 0.06882 0.0
C370 C 0.64527 0.78981 0.03279 0.0
C371 C 0.67391 0.80265 0.01309 0.0
C372 C 0.70536 0.82731 0.03021 0.0
C373 C 0.7081 0.83861 0.06627 0.0
C374 C 0.66976 0.88196 0.10883 0.0
C375 C 0.63514 0.86452 0.09836 0.0
C376 C 0.62067 0.88067 0.08046 0.0
C377 C 0.64047 0.91487 0.07329 0.0
C378 C 0.67556 0.93168 0.08179 0.0
C379 C 0.69011 0.91527 0.09938 0.0
C380 C 0.68321 0.9079 0.18276 0.0
C381 C 0.65081 0.90199 0.18839 0.0
C382 C 0.64592 0.92912 0.19872 0.0
C383 C 0.67343 0.96267 0.20366 0.0
C384 C 0.70591 0.9684 0.19809 0.0
C385 C 0.71074 0.9412 0.1877 0.0
C386 C 0.69277 0.87035 0.23584 0.0
C387 C 0.66265 0.85343 0.25255 0.0
C388 C 0.6598 0.86601 0.28614 0.0
C389 C 0.68693 0.8961 0.30355 0.0
C390 C 0.71764 0.91223 0.28741 0.0
C391 C 0.72053 0.8994 0.25374 0.0
C392 C 0.69247 0.8078 0.21547 0.0
C393 C 0.66231 0.78078 0.22541 0.0
C394 C 0.66233 0.76323 0.25467 0.0
C395 C 0.69254 0.77247 0.27503 0.0
C396 C 0.72297 0.79899 0.26445 0.0
C397 C 0.72289 0.81662 0.23498 0.0
C398 C 0.67091 0.79023 0.97492 0.0
C399 C 0.66831 0.99158 0.21454 0.0
H400 H 0.15437 0.80849 0.92437 0.0
H401 H 0.37082 0.00192 0.30349 0.0
H402 H 0.10125 0.7973 0.11841 0.0
H403 H 0.06127 0.73894 0.0918 0.0
H404 H 0.13537 0.70949 0.11661 0.0
H405 H 0.1743 0.76697 0.14317 0.0
H406 H 0.16558 0.86315 0.07246 0.0
H407 H 0.15707 0.84639 0.00804 0.0
H408 H 0.1984 0.78071 0.02465 0.0
H409 H 0.2069 0.79784 0.08893 0.0
H410 H 0.24516 0.93305 0.11003 0.0
H411 H 0.29402 0.96074 0.07414 0.0
H412 H 0.30992 0.87526 0.08156 0.0
H413 H 0.26193 0.84845 0.11797 0.0
H414 H 0.24057 0.94833 0.18208 0.0
H415 H 0.28576 0.99449 0.22203 0.0
H416 H 0.32277 0.92718 0.24881 0.0
H417 H 0.27773 0.88144 0.20847 0.0
H418 H 0.19911 0.91411 0.23965 0.0
H419 H 0.22214 0.93318 0.3021 0.0
H420 H 0.2374 0.84694 0.30642 0.0
H421 H 0.21533 0.82885 0.24413 0.0
H422 H 0.12442 0.84544 0.21579 0.0
H423 H 0.08968 0.81624 0.26445 0.0
H424 H 0.1239 0.74334 0.2562 0.0
H425 H 0.15854 0.77277 0.2084 0.0
O426 O 0.15808 0.81488 0.9499 0.0
O427 O 0.17946 0.78145 0.95989 0.0
O428 O 0.33551 0.01919 0.26958 0.0
O429 O 0.3538 0.98469 0.28616 0.0
C430 C 0.16618 0.82133 0.14678 0.0
C431 C 0.1913 0.84174 0.12428 0.0
C432 C 0.22083 0.87163 0.13877 0.0
C433 C 0.22434 0.88196 0.17562 0.0
C434 C 0.19858 0.86228 0.19795 0.0
C435 C 0.1693 0.83209 0.18352 0.0
C436 C 0.14046 0.78612 0.13294 0.0
C437 C 0.10848 0.77799 0.11832 0.0
C438 C 0.08587 0.74482 0.10296 0.0
C439 C 0.09526 0.71967 0.10183 0.0
C440 C 0.12734 0.72819 0.11674 0.0
C441 C 0.14958 0.76098 0.1322 0.0
C442 C 0.1867 0.8316 0.08528 0.0
C443 C 0.17279 0.84518 0.06208 0.0
C444 C 0.16795 0.83554 0.02532 0.0
C445 C 0.17699 0.81215 0.01119 0.0
C446 C 0.1911 0.79873 0.03464 0.0
C447 C 0.19594 0.80842 0.07137 0.0
C448 C 0.24994 0.8887 0.11653 0.0
C449 C 0.2592 0.92036 0.10377 0.0
C450 C 0.28693 0.93598 0.08308 0.0
C451 C 0.30567 0.92003 0.07468 0.0
C452 C 0.29584 0.88804 0.08708 0.0
C453 C 0.26848 0.87273 0.10804 0.0
C454 C 0.25605 0.91168 0.19226 0.0
C455 C 0.25911 0.94397 0.19574 0.0
C456 C 0.28463 0.97011 0.21898 0.0
C457 C 0.30745 0.96428 0.23916 0.0
C458 C 0.30538 0.93239 0.23402 0.0
C459 C 0.27998 0.90637 0.21062 0.0
C460 C 0.20553 0.8701 0.23741 0.0
C461 C 0.20678 0.89903 0.25445 0.0
C462 C 0.22003 0.9099 0.29006 0.0
C463 C 0.23195 0.89178 0.30916 0.0
C464 C 0.2286 0.8616 0.29254 0.0
C465 C 0.21568 0.85099 0.25698 0.0
C466 C 0.1436 0.8109 0.20802 0.0
C467 C 0.12362 0.8226 0.22393 0.0
C468 C 0.10388 0.80597 0.25179 0.0
C469 C 0.10413 0.77757 0.26442 0.0
C470 C 0.12311 0.76519 0.24729 0.0
C471 C 0.14267 0.78171 0.21951 0.0
C472 C 0.17165 0.80183 0.97216 0.0
C473 C 0.33304 0.99112 0.26583 0.0
H474 H 0.31939 0.20601 0.16477 0.0
H475 H 0.39767 0.00617 0.86581 0.0
H476 H 0.29515 0.21095 0.96823 0.0
H477 H 0.31644 0.27011 0.99344 0.0
H478 H 0.41814 0.29355 0.97656 0.0
H479 H 0.3968 0.23535 0.95151 0.0
H480 H 0.2861 0.14342 0.01727 0.0
H481 H 0.29004 0.16317 0.08031 0.0
H482 H 0.39767 0.22895 0.07741 0.0
H483 H 0.39336 0.20891 0.01453 0.0
H484 H 0.3029 0.07166 0.98953 0.0
H485 H 0.32774 0.04268 0.02104 0.0
H486 H 0.4259 0.13352 0.02396 0.0
H487 H 0.4011 0.16156 0.99166 0.0
H488 H 0.28801 0.05405 0.91435 0.0
H489 H 0.29962 0.00867 0.8952 0.0
H490 H 0.40513 0.08385 0.89252 0.0
H491 H 0.39313 0.12881 0.91166 0.0
H492 H 0.27662 0.08693 0.85725 0.0
H493 H 0.28101 0.06421 0.79804 0.0
H494 H 0.38331 0.14814 0.79829 0.0
H495 H 0.3788 0.16992 0.85731 0.0
H496 H 0.27306 0.16177 0.8688 0.0
H497 H 0.27259 0.19243 0.81709 0.0
H498 H 0.38064 0.25778 0.83563 0.0
H499 H 0.38079 0.22684 0.88618 0.0
O500 O 0.31845 0.1982 0.13998 0.0
O501 O 0.37374 0.23126 0.13718 0.0
O502 O 0.33812 0.98558 0.87695 0.0
O503 O 0.39233 0.02347 0.87362 0.0
C504 C 0.33358 0.1832 0.94656 0.0
C505 C 0.33629 0.16344 0.97282 0.0
C506 C 0.33739 0.13378 0.96241 0.0
C507 C 0.33298 0.12232 0.92576 0.0
C508 C 0.32733 0.14045 0.89959 0.0
C509 C 0.32811 0.17128 0.90988 0.0
C510 C 0.34443 0.21922 0.95741 0.0
C511 C 0.3219 0.22922 0.96943 0.0
C512 C 0.33412 0.2628 0.98409 0.0
C513 C 0.36899 0.28636 0.9873 0.0
C514 C 0.39119 0.27606 0.97477 0.0
C515 C 0.37902 0.24292 0.95995 0.0
C516 C 0.3394 0.17472 0.01138 0.0
C517 C 0.31051 0.16196 0.03039 0.0
C518 C 0.31283 0.17334 0.06635 0.0
C519 C 0.34416 0.19771 0.08389 0.0
C520 C 0.37315 0.2102 0.06473 0.0
C521 C 0.37076 0.19877 0.0288 0.0
C522 C 0.35014 0.11881 0.98859 0.0
C523 C 0.32957 0.08553 0.99797 0.0
C524 C 0.34384 0.06906 0.01594 0.0
C525 C 0.37886 0.08577 0.02482 0.0
C526 C 0.39887 0.11995 0.01767 0.0
C527 C 0.38468 0.13617 0.99943 0.0
C528 C 0.33974 0.09459 0.91437 0.0
C529 C 0.31358 0.06057 0.90963 0.0
C530 C 0.3203 0.03476 0.89871 0.0
C531 C 0.35334 0.04265 0.89231 0.0
C532 C 0.37944 0.07687 0.89717 0.0
C533 C 0.37267 0.10259 0.90811 0.0
C534 C 0.32725 0.13028 0.86131 0.0
C535 C 0.29962 0.10074 0.84398 0.0
C536 C 0.30224 0.08776 0.81028 0.0
C537 C 0.3326 0.1042 0.79355 0.0
C538 C 0.35958 0.13475 0.81037 0.0
C539 C 0.35697 0.14751 0.84399 0.0
C540 C 0.32688 0.1925 0.88177 0.0
C541 C 0.29646 0.1832 0.86201 0.0
C542 C 0.29624 0.2007 0.83248 0.0
C543 C 0.32656 0.22755 0.82211 0.0
C544 C 0.35677 0.23728 0.84275 0.0
C545 C 0.35692 0.21987 0.87207 0.0
C546 C 0.34649 0.21012 0.12194 0.0
C547 C 0.36066 0.01543 0.88054 0.0
H548 H 0.84149 0.22636 0.16488 0.0
H549 H 0.6607 0.96035 0.81375 0.0
H550 H 0.84381 0.2329 0.95547 0.0
H551 H 0.88299 0.29039 0.98179 0.0
H552 H 0.9574 0.26098 1.00501 0.0
H553 H 0.91716 0.2026 0.97864 0.0
H554 H 0.81173 0.20209 0.00956 0.0
H555 H 0.82032 0.21858 0.07396 0.0
H556 H 0.86082 0.15201 0.08925 0.0
H557 H 0.85223 0.13589 0.02468 0.0
H558 H 0.75653 0.15195 0.98064 0.0
H559 H 0.70891 0.12525 0.01755 0.0
H560 H 0.72378 0.03893 0.0229 0.0
H561 H 0.7724 0.06661 0.9867 0.0
H562 H 0.74186 0.12094 0.88756 0.0
H563 H 0.69607 0.07575 0.84745 0.0
H564 H 0.72861 0.00554 0.87687 0.0
H565 H 0.77479 0.05125 0.9163 0.0
H566 H 0.80428 0.1721 0.8529 0.0
H567 H 0.78237 0.15398 0.79058 0.0
H568 H 0.79493 0.06616 0.79608 0.0
H569 H 0.81781 0.08524 0.85856 0.0
H570 H 0.86033 0.2277 0.88996 0.0
H571 H 0.89493 0.25706 0.84211 0.0
H572 H 0.92802 0.1833 0.8329 0.0
H573 H 0.89332 0.15415 0.8816 0.0
O574 O 0.83824 0.21942 0.1395 0.0
O575 O 0.85855 0.18458 0.14596 0.0
O576 O 0.66478 0.0166 0.81329 0.0
O577 O 0.67789 0.97834 0.83035 0.0
C578 C 0.85198 0.17858 0.95102 0.0
C579 C 0.82681 0.15812 0.97344 0.0
C580 C 0.79713 0.12846 0.9588 0.0
C581 C 0.79351 0.11839 0.92186 0.0
C582 C 0.81947 0.13794 0.89968 0.0
C583 C 0.84888 0.16794 0.91424 0.0
C584 C 0.87775 0.21374 0.96497 0.0
C585 C 0.86863 0.23888 0.96609 0.0
C586 C 0.89103 0.27169 0.98139 0.0
C587 C 0.92328 0.28024 0.99576 0.0
C588 C 0.93266 0.25509 0.99428 0.0
C589 C 0.9099 0.2219 0.97907 0.0
C590 C 0.83153 0.16794 0.01252 0.0
C591 C 0.82255 0.19119 0.02685 0.0
C592 C 0.82743 0.20052 0.06366 0.0
C593 C 0.84132 0.18666 0.08677 0.0
C594 C 0.85011 0.1632 0.07222 0.0
C595 C 0.84523 0.15393 0.03538 0.0
C596 C 0.76806 0.11133 0.9811 0.0
C597 C 0.74985 0.12751 0.99024 0.0
C598 C 0.72271 0.11226 0.01149 0.0
C599 C 0.71273 0.0801 0.02351 0.0
C600 C 0.73103 0.06387 0.01434 0.0
C601 C 0.75861 0.07946 0.99343 0.0
C602 C 0.76146 0.08927 0.90499 0.0
C603 C 0.73854 0.09556 0.88595 0.0
C604 C 0.71271 0.06984 0.86269 0.0
C605 C 0.70902 0.03717 0.85853 0.0
C606 C 0.73093 0.03049 0.87921 0.0
C607 C 0.75701 0.05638 0.90218 0.0
C608 C 0.81276 0.13008 0.8602 0.0
C609 C 0.80343 0.14961 0.84029 0.0
C610 C 0.79058 0.13898 0.80472 0.0
C611 C 0.78648 0.10835 0.78843 0.0
C612 C 0.79763 0.08979 0.80786 0.0
C613 C 0.8108 0.10067 0.84349 0.0
C614 C 0.8747 0.18912 0.88985 0.0
C615 C 0.87597 0.21855 0.87864 0.0
C616 C 0.89548 0.23503 0.85083 0.0
C617 C 0.91411 0.22237 0.83339 0.0
C618 C 0.91409 0.19377 0.84578 0.0
C619 C 0.89438 0.17718 0.87367 0.0
C620 C 0.8466 0.19672 0.12586 0.0
C621 C 0.68255 0.01019 0.83266 0.0
H622 H 0.85932 0.63641 0.17181 0.0
H623 H 0.66009 0.64903 0.81146 0.0
H624 H 0.91431 0.69103 0.99116 0.0
H625 H 0.94909 0.67318 0.02474 0.0
H626 H 0.88575 0.5702 0.97644 0.0
H627 H 0.85191 0.58833 0.94265 0.0
H628 H 0.85263 0.68872 0.03478 0.0
H629 H 0.8589 0.67659 0.09643 0.0
H630 H 0.81941 0.57051 0.06011 0.0
H631 H 0.81305 0.58299 0.9987 0.0
H632 H 0.7808 0.68661 1.00028 0.0
H633 H 0.73263 0.66687 0.03744 0.0
H634 H 0.71005 0.56304 0.01428 0.0
H635 H 0.75732 0.58284 0.97674 0.0
H636 H 0.79026 0.71076 0.93438 0.0
H637 H 0.74852 0.71821 0.89972 0.0
H638 H 0.70183 0.61366 0.85414 0.0
H639 H 0.7436 0.60653 0.88917 0.0
H640 H 0.83302 0.7193 0.87706 0.0
H641 H 0.81187 0.72329 0.81759 0.0
H642 H 0.78261 0.61823 0.78811 0.0
H643 H 0.80303 0.61443 0.84762 0.0
H644 H 0.90144 0.71565 0.89128 0.0
H645 H 0.9316 0.71977 0.83758 0.0
H646 H 0.88625 0.61014 0.82658 0.0
H647 H 0.85635 0.60639 0.87995 0.0
O648 O 0.85641 0.64061 0.1473 0.0
O649 O 0.83598 0.58636 0.12724 0.0
O650 O 0.69983 0.69937 0.85198 0.0
O651 O 0.67586 0.64623 0.82668 0.0
C652 C 0.8547 0.649 0.95149 0.0
C653 C 0.82967 0.64464 0.975 0.0
C654 C 0.80162 0.64736 0.96315 0.0
C655 C 0.79951 0.65629 0.92819 0.0
C656 C 0.82481 0.66146 0.90476 0.0
C657 C 0.85234 0.65754 0.9162 0.0
C658 C 0.881 0.64115 0.96382 0.0
C659 C 0.90882 0.66493 0.98686 0.0
C660 C 0.9283 0.65458 1.00644 0.0
C661 C 0.91968 0.62014 1.00382 0.0
C662 C 0.89272 0.59681 0.97951 0.0
C663 C 0.87377 0.60727 0.95955 0.0
C664 C 0.83263 0.63679 0.01236 0.0
C665 C 0.84529 0.66288 0.04027 0.0
C666 C 0.84888 0.65588 0.07541 0.0
C667 C 0.83977 0.62259 0.08319 0.0
C668 C 0.82676 0.59644 0.05506 0.0
C669 C 0.82316 0.60349 0.01996 0.0
C670 C 0.77253 0.63616 0.9857 0.0
C671 C 0.76535 0.65964 1.00325 0.0
C672 C 0.73803 0.64833 0.02472 0.0
C673 C 0.71765 0.61338 0.02917 0.0
C674 C 0.72536 0.59014 0.01186 0.0
C675 C 0.7523 0.60139 0.9902 0.0
C676 C 0.76977 0.65807 0.91444 0.0
C677 C 0.77037 0.68922 0.91774 0.0
C678 C 0.74681 0.69354 0.89749 0.0
C679 C 0.72225 0.66671 0.87362 0.0
C680 C 0.72064 0.63495 0.87194 0.0
C681 C 0.74416 0.63065 0.89228 0.0
C682 C 0.81955 0.66657 0.86668 0.0
C683 C 0.82278 0.69746 0.85738 0.0
C684 C 0.81056 0.69964 0.82343 0.0
C685 C 0.79513 0.67096 0.79815 0.0
C686 C 0.79414 0.64079 0.80689 0.0
C687 C 0.8061 0.6386 0.84083 0.0
C688 C 0.87703 0.66074 0.88996 0.0
C689 C 0.899 0.69266 0.87795 0.0
C690 C 0.91601 0.69495 0.84708 0.0
C691 C 0.91098 0.66527 0.82742 0.0
C692 C 0.89049 0.63353 0.84082 0.0
C693 C 0.87373 0.63131 0.87174 0.0
C694 C 0.84387 0.61529 0.1205 0.0
C695 C 0.69873 0.67189 0.85017 0.0
H696 H 0.84306 0.74972 0.27776 0.0
H697 H 0.00959 0.64946 0.60934 0.0
H698 H 0.83169 0.74434 0.48987 0.0
H699 H 0.79794 0.76234 0.45574 0.0
H700 H 0.73644 0.65986 0.4055 0.0
H701 H 0.77114 0.64213 0.43946 0.0
H702 H 0.86878 0.74903 0.43142 0.0
H703 H 0.86142 0.75945 0.36943 0.0
H704 H 0.82732 0.65387 0.33593 0.0
H705 H 0.83447 0.64375 0.3982 0.0
H706 H 0.92585 0.75138 0.45152 0.0
H707 H 0.97284 0.77058 0.41363 0.0
H708 H 0.95523 0.66781 0.39909 0.0
H709 H 0.90735 0.6486 0.43656 0.0
H710 H 0.94139 0.73458 0.53884 0.0
H711 H 0.98558 0.73445 0.57727 0.0
H712 H 0.94407 0.62727 0.54499 0.0
H713 H 0.89999 0.6278 0.50665 0.0
H714 H 0.883 0.72055 0.58483 0.0
H715 H 0.90333 0.71645 0.64428 0.0
H716 H 0.87242 0.61094 0.61487 0.0
H717 H 0.85145 0.61528 0.55544 0.0
H718 H 0.8291 0.72746 0.55247 0.0
H719 H 0.79942 0.7237 0.60597 0.0
H720 H 0.75306 0.61397 0.59411 0.0
H721 H 0.78304 0.61812 0.54024 0.0
O722 O 0.84593 0.74507 0.30208 0.0
O723 O 0.82898 0.69067 0.28617 0.0
O724 O 0.01276 0.70529 0.60953 0.0
O725 O 0.99347 0.65054 0.59287 0.0
C726 C 0.83007 0.68431 0.48035 0.0
C727 C 0.85529 0.68887 0.45699 0.0
C728 C 0.884 0.68752 0.46941 0.0
C729 C 0.88651 0.67957 0.50474 0.0
C730 C 0.86063 0.67337 0.52772 0.0
C731 C 0.83262 0.67628 0.51583 0.0
C732 C 0.80354 0.69176 0.46777 0.0
C733 C 0.81022 0.72544 0.4725 0.0
C734 C 0.79134 0.73585 0.45233 0.0
C735 C 0.76498 0.71266 0.42734 0.0
C736 C 0.75679 0.67834 0.42432 0.0
C737 C 0.77621 0.66806 0.4441 0.0
C738 C 0.85185 0.69557 0.41926 0.0
C739 C 0.85958 0.72817 0.41066 0.0
C740 C 0.85543 0.73406 0.37522 0.0
C741 C 0.84367 0.70747 0.34771 0.0
C742 C 0.83635 0.6749 0.35646 0.0
C743 C 0.84045 0.66904 0.39195 0.0
C744 C 0.91302 0.69856 0.44673 0.0
C745 C 0.93184 0.73289 0.43981 0.0
C746 C 0.95867 0.7438 0.418 0.0
C747 C 0.96767 0.72069 0.40294 0.0
C748 C 0.94878 0.68621 0.40994 0.0
C749 C 0.92161 0.67523 0.43159 0.0
C750 C 0.91769 0.68126 0.51983 0.0
C751 C 0.94253 0.71137 0.53927 0.0
C752 C 0.96741 0.71108 0.56161 0.0
C753 C 0.96792 0.68066 0.56474 0.0
C754 C 0.94415 0.65102 0.54352 0.0
C755 C 0.91926 0.65135 0.52117 0.0
C756 C 0.86571 0.66823 0.56582 0.0
C757 C 0.87956 0.69623 0.59164 0.0
C758 C 0.89145 0.69386 0.62555 0.0
C759 C 0.88998 0.66346 0.63426 0.0
C760 C 0.87412 0.63477 0.60904 0.0
C761 C 0.86196 0.63713 0.57513 0.0
C762 C 0.80787 0.67307 0.54197 0.0
C763 C 0.81154 0.70253 0.56051 0.0
C764 C 0.79491 0.7003 0.59152 0.0
C765 C 0.77421 0.66852 0.60472 0.0
C766 C 0.76883 0.63883 0.58477 0.0
C767 C 0.78571 0.64113 0.55379 0.0
C768 C 0.83906 0.71376 0.31011 0.0
C769 C 0.99275 0.6797 0.59044 0.0
H770 H 0.30438 0.09069 0.26747 0.0
H771 H 0.35931 0.37628 0.56001 0.0
H772 H 0.28908 0.09827 0.47993 0.0
H773 H 0.2673 0.03994 0.45506 0.0
H774 H 0.36857 0.06291 0.43654 0.0
H775 H 0.3903 0.1222 0.46157 0.0
H776 H 0.29226 0.124 0.4169 0.0
H777 H 0.28711 0.10396 0.35389 0.0
H778 H 0.39431 0.17085 0.34898 0.0
H779 H 0.39913 0.19053 0.41221 0.0
H780 H 0.28554 0.17229 0.43957 0.0
H781 H 0.26024 0.20017 0.40786 0.0
H782 H 0.35812 0.29123 0.40995 0.0
H783 H 0.3835 0.26239 0.44082 0.0
H784 H 0.29614 0.20968 0.51806 0.0
H785 H 0.28755 0.2572 0.53624 0.0
H786 H 0.39462 0.32714 0.53503 0.0
H787 H 0.40277 0.27929 0.51671 0.0
H788 H 0.30754 0.16464 0.57211 0.0
H789 H 0.30259 0.18612 0.63106 0.0
H790 H 0.40583 0.26863 0.63343 0.0
H791 H 0.41066 0.24613 0.57427 0.0
H792 H 0.30523 0.10739 0.54487 0.0
H793 H 0.30519 0.07624 0.5953 0.0
H794 H 0.41347 0.14012 0.61288 0.0
H795 H 0.41318 0.171 0.56128 0.0
O796 O 0.30695 0.09924 0.29229 0.0
O797 O 0.36204 0.13459 0.29096 0.0
O798 O 0.30713 0.32001 0.55261 0.0
O799 O 0.36202 0.35703 0.5529 0.0
C800 C 0.35239 0.15027 0.48397 0.0
C801 C 0.34975 0.17008 0.45772 0.0
C802 C 0.34948 0.2002 0.46813 0.0
C803 C 0.35479 0.21209 0.50473 0.0
C804 C 0.35981 0.19356 0.53091 0.0
C805 C 0.35825 0.16234 0.52064 0.0
C806 C 0.34128 0.11418 0.4732 0.0
C807 C 0.30668 0.09057 0.47119 0.0
C808 C 0.29425 0.05736 0.45646 0.0
C809 C 0.31619 0.04689 0.44352 0.0
C810 C 0.35108 0.07035 0.44622 0.0
C811 C 0.36356 0.10401 0.46077 0.0
C812 C 0.34611 0.15862 0.41913 0.0
C813 C 0.31461 0.1343 0.4022 0.0
C814 C 0.31173 0.1229 0.36617 0.0
C815 C 0.34031 0.13573 0.3464 0.0
C816 C 0.3718 0.1604 0.36344 0.0
C817 C 0.37462 0.17173 0.3995 0.0
C818 C 0.33643 0.21515 0.44218 0.0
C819 C 0.3018 0.1977 0.43174 0.0
C820 C 0.28731 0.21383 0.41384 0.0
C821 C 0.3071 0.24803 0.40663 0.0
C822 C 0.34219 0.26484 0.41512 0.0
C823 C 0.35676 0.24845 0.43271 0.0
C824 C 0.35005 0.24115 0.5161 0.0
C825 C 0.31767 0.23531 0.52177 0.0
C826 C 0.31286 0.26248 0.53214 0.0
C827 C 0.34041 0.296 0.53708 0.0
C828 C 0.37287 0.30167 0.53146 0.0
C829 C 0.37762 0.27444 0.52103 0.0
C830 C 0.35957 0.20357 0.56916 0.0
C831 C 0.32945 0.18666 0.58587 0.0
C832 C 0.32661 0.19925 0.61946 0.0
C833 C 0.35374 0.22934 0.63686 0.0
C834 C 0.38446 0.24544 0.62072 0.0
C835 C 0.38733 0.2326 0.58706 0.0
C836 C 0.35925 0.141 0.54877 0.0
C837 C 0.3291 0.11399 0.55874 0.0
C838 C 0.32914 0.09645 0.588 0.0
C839 C 0.35937 0.10569 0.60833 0.0
C840 C 0.38979 0.13222 0.59773 0.0
C841 C 0.38968 0.14984 0.56825 0.0
C842 C 0.33723 0.12327 0.30822 0.0
C843 C 0.33538 0.32496 0.548 0.0
H844 H 0.82132 0.14113 0.2579 0.0
H845 H 0.03772 0.33545 0.63685 0.0
H846 H 0.76829 0.13055 0.45179 0.0
H847 H 0.72828 0.0722 0.42518 0.0
H848 H 0.80222 0.04261 0.45034 0.0
H849 H 0.84117 0.10008 0.47688 0.0
H850 H 0.83258 0.19622 0.40583 0.0
H851 H 0.82406 0.17929 0.34144 0.0
H852 H 0.86537 0.11364 0.3584 0.0
H853 H 0.87386 0.13094 0.42264 0.0
H854 H 0.91199 0.26624 0.44348 0.0
H855 H 0.96082 0.29398 0.40756 0.0
H856 H 0.97688 0.20859 0.415 0.0
H857 H 0.92893 0.18175 0.45144 0.0
H858 H 0.90739 0.28153 0.51549 0.0
H859 H 0.95255 0.32777 0.55539 0.0
H860 H 0.98974 0.26063 0.58228 0.0
H861 H 0.94474 0.21481 0.54197 0.0
H862 H 0.86602 0.24728 0.57318 0.0
H863 H 0.88903 0.26635 0.63563 0.0
H864 H 0.90447 0.18021 0.63989 0.0
H865 H 0.88241 0.16212 0.5776 0.0
H866 H 0.79137 0.17864 0.54925 0.0
H867 H 0.75664 0.14947 0.59793 0.0
H868 H 0.79095 0.07664 0.58984 0.0
H869 H 0.82558 0.10603 0.54203 0.0
O870 O 0.82505 0.1476 0.28341 0.0
O871 O 0.84642 0.1142 0.29359 0.0
O872 O 1.00233 0.3526 0.60291 0.0
O873 O 0.02072 0.31819 0.61955 0.0
C874 C 0.83315 0.1545 0.48031 0.0
C875 C 0.85825 0.17491 0.4578 0.0
C876 C 0.88776 0.20484 0.47226 0.0
C877 C 0.89128 0.21519 0.5091 0.0
C878 C 0.86556 0.19549 0.53145 0.0
C879 C 0.83628 0.16529 0.51705 0.0
C880 C 0.80741 0.1193 0.4665 0.0
C881 C 0.77547 0.1112 0.45178 0.0
C882 C 0.75285 0.07804 0.43642 0.0
C883 C 0.76219 0.05286 0.43538 0.0
C884 C 0.79422 0.06134 0.4504 0.0
C885 C 0.81648 0.09412 0.46585 0.0
C886 C 0.85368 0.1647 0.41881 0.0
C887 C 0.83979 0.17822 0.39552 0.0
C888 C 0.83494 0.16848 0.35879 0.0
C889 C 0.84397 0.14505 0.34477 0.0
C890 C 0.85808 0.13169 0.3683 0.0
C891 C 0.86292 0.14148 0.40501 0.0
C892 C 0.91685 0.22194 0.45 0.0
C893 C 0.92606 0.25358 0.43722 0.0
C894 C 0.95378 0.26923 0.41651 0.0
C895 C 0.97255 0.25332 0.40811 0.0
C896 C 0.96277 0.22135 0.42052 0.0
C897 C 0.93543 0.20602 0.44149 0.0
C898 C 0.92297 0.24496 0.52571 0.0
C899 C 0.92596 0.27722 0.52916 0.0
C900 C 0.95147 0.30341 0.55237 0.0
C901 C 0.97433 0.29766 0.57257 0.0
C902 C 0.97232 0.26579 0.56747 0.0
C903 C 0.94694 0.23972 0.54409 0.0
C904 C 0.87253 0.20332 0.57091 0.0
C905 C 0.87373 0.23223 0.58796 0.0
C906 C 0.88697 0.24309 0.62357 0.0
C907 C 0.89893 0.225 0.64266 0.0
C908 C 0.89563 0.19485 0.62603 0.0
C909 C 0.88272 0.18424 0.59047 0.0
C910 C 0.81059 0.14412 0.54156 0.0
C911 C 0.79059 0.15581 0.55743 0.0
C912 C 0.77085 0.13921 0.58531 0.0
C913 C 0.77113 0.11084 0.59799 0.0
C914 C 0.79014 0.09846 0.58089 0.0
C915 C 0.80969 0.11496 0.55311 0.0
C916 C 0.83862 0.13461 0.30576 0.0
C917 C 0.99991 0.32454 0.5992 0.0
H918 H 0.98821 0.54016 0.49828 0.0
H919 H 0.06625 0.34139 0.19708 0.0
H920 H 0.96223 0.54436 0.30146 0.0
H921 H 0.98328 0.60349 0.32667 0.0
H922 H 0.08513 0.62734 0.30995 0.0
H923 H 0.06402 0.5692 0.28488 0.0
H924 H 0.95389 0.47747 0.35079 0.0
H925 H 0.95825 0.49732 0.41388 0.0
H926 H 0.06589 0.56257 0.41035 0.0
H927 H 0.06115 0.54246 0.34742 0.0
H928 H 0.97033 0.40555 0.32277 0.0
H929 H 0.995 0.37644 0.35435 0.0
H930 H 0.09339 0.4669 0.35681 0.0
H931 H 0.06876 0.49507 0.32444 0.0
H932 H 0.95605 0.38772 0.24791 0.0
H933 H 0.96806 0.34272 0.22835 0.0
H934 H 0.07313 0.4187 0.22434 0.0
H935 H 0.06074 0.46327 0.24394 0.0
H936 H 0.94392 0.42038 0.19081 0.0
H937 H 0.94815 0.39748 0.13164 0.0
H938 H 0.05008 0.48194 0.13103 0.0
H939 H 0.04571 0.50391 0.19002 0.0
H940 H 0.94005 0.49514 0.20218 0.0
H941 H 0.93928 0.52579 0.15057 0.0
H942 H 0.04726 0.59168 0.16902 0.0
H943 H 0.04771 0.56077 0.21947 0.0
O944 O 0.9871 0.53231 0.47347 0.0
O945 O 0.04238 0.56507 0.47035 0.0
O946 O 1.00685 0.3202 0.20935 0.0
O947 O 0.06077 0.35853 0.20512 0.0
C948 C 1.00088 0.51687 0.27983 0.0
C949 C 1.00381 0.49717 0.30601 0.0
C950 C 1.00497 0.46755 0.29551 0.0
C951 C 1.00052 0.45615 0.25884 0.0
C952 C 0.99464 0.4742 0.23276 0.0
C953 C 0.9953 0.50496 0.24313 0.0
C954 C 0.0116 0.55285 0.29073 0.0
C955 C 0.98895 0.56272 0.3027 0.0
C956 C 1.00104 0.59627 0.31736 0.0
C957 C 0.03589 0.61995 0.32061 0.0
C958 C 0.05819 0.60977 0.30813 0.0
C959 C 0.04616 0.57666 0.29331 0.0
C960 C 1.00716 0.50849 0.34459 0.0
C961 C 0.97839 0.49591 0.36379 0.0
C962 C 0.98096 0.50735 0.39978 0.0
C963 C 0.01242 0.53159 0.41716 0.0
C964 C 0.04127 0.54391 0.3978 0.0
C965 C 0.03864 0.53243 0.36184 0.0
C966 C 0.0177 0.45252 0.32162 0.0
C967 C 0.99702 0.4193 0.33112 0.0
C968 C 0.01118 0.40276 0.34912 0.0
C969 C 0.04621 0.41933 0.35792 0.0
C970 C 0.06635 0.45344 0.35059 0.0
C971 C 0.05226 0.46974 0.33231 0.0
C972 C 1.00753 0.42863 0.24732 0.0
C973 C 0.98161 0.39449 0.24283 0.0
C974 C 0.98856 0.3689 0.23167 0.0
C975 C 0.02159 0.37713 0.22476 0.0
C976 C 0.04746 0.41146 0.22938 0.0
C977 C 0.04046 0.43695 0.24058 0.0
C978 C 0.99436 0.464 0.19444 0.0
C979 C 0.96678 0.43427 0.17735 0.0
C980 C 0.96932 0.42119 0.14367 0.0
C981 C 0.99955 0.43771 0.12673 0.0
C982 C 0.02645 0.46847 0.14329 0.0
C983 C 0.02392 0.48134 0.17689 0.0
C984 C 0.99386 0.52614 0.2151 0.0
C985 C 0.96336 0.51669 0.1954 0.0
C986 C 0.96298 0.53418 0.16593 0.0
C987 C 0.99319 0.56118 0.15555 0.0
C988 C 0.02346 0.57107 0.17614 0.0
C989 C 0.02378 0.55367 0.2054 0.0
C990 C 0.01501 0.54406 0.45524 0.0
C991 C 0.02915 0.35015 0.21266 0.0
H992 H 0.5076 0.5603 0.49778 0.0
H993 H 0.32744 0.29435 0.14596 0.0
H994 H 0.51023 0.56655 0.28827 0.0
H995 H 0.5494 0.62404 0.31461 0.0
H996 H 0.62359 0.59449 0.33844 0.0
H997 H 0.58337 0.53611 0.31204 0.0
H998 H 0.47814 0.53584 0.34243 0.0
H999 H 0.48663 0.55243 0.4068 0.0
H1000 H 0.52676 0.4856 0.42252 0.0
H1001 H 0.51828 0.46938 0.35796 0.0
H1002 H 0.42287 0.48537 0.31395 0.0
H1003 H 0.37525 0.45849 0.35084 0.0
H1004 H 0.39018 0.37217 0.35569 0.0
H1005 H 0.43879 0.40002 0.31951 0.0
H1006 H 0.40814 0.45448 0.22104 0.0
H1007 H 0.3624 0.40945 0.18074 0.0
H1008 H 0.39524 0.33925 0.20926 0.0
H1009 H 0.44134 0.38479 0.24891 0.0
H1010 H 0.47043 0.50542 0.18597 0.0
H1011 H 0.44851 0.48717 0.12366 0.0
H1012 H 0.46166 0.39972 0.12925 0.0
H1013 H 0.48453 0.41893 0.19171 0.0
H1014 H 0.52647 0.56112 0.22289 0.0
H1015 H 0.5611 0.59052 0.17509 0.0
H1016 H 0.59462 0.51709 0.16624 0.0
H1017 H 0.55988 0.4879 0.21491 0.0
O1018 O 0.50438 0.55332 0.4724 0.0
O1019 O 0.52449 0.51833 0.47909 0.0
O1020 O 0.3313 0.35053 0.1461 0.0
O1021 O 0.34458 0.31225 0.16267 0.0
C1022 C 0.51831 0.51217 0.28412 0.0
C1023 C 0.49313 0.49169 0.30653 0.0
C1024 C 0.46349 0.46198 0.29189 0.0
C1025 C 0.45991 0.4519 0.25495 0.0
C1026 C 0.48588 0.47147 0.23279 0.0
C1027 C 0.51524 0.50151 0.24735 0.0
C1028 C 0.54407 0.54732 0.29806 0.0
C1029 C 0.535 0.5725 0.29902 0.0
C1030 C 0.5574 0.60531 0.31433 0.0
C1031 C 0.58958 0.61382 0.32888 0.0
C1032 C 0.59891 0.58863 0.32756 0.0
C1033 C 0.57616 0.55544 0.31234 0.0
C1034 C 0.49778 0.50156 0.34559 0.0
C1035 C 0.48887 0.52491 0.3598 0.0
C1036 C 0.49369 0.53429 0.3966 0.0
C1037 C 0.50744 0.52039 0.41982 0.0
C1038 C 0.51616 0.49682 0.40539 0.0
C1039 C 0.51134 0.4875 0.36857 0.0
C1040 C 0.43443 0.44476 0.31418 0.0
C1041 C 0.4162 0.46089 0.32344 0.0
C1042 C 0.38906 0.44553 0.34467 0.0
C1043 C 0.37909 0.41333 0.35654 0.0
C1044 C 0.39742 0.39714 0.34724 0.0
C1045 C 0.42499 0.41283 0.32635 0.0
C1046 C 0.42787 0.4228 0.23805 0.0
C1047 C 0.40489 0.42913 0.2192 0.0
C1048 C 0.37909 0.4035 0.19584 0.0
C1049 C 0.37551 0.37089 0.19135 0.0
C1050 C 0.39748 0.36416 0.21184 0.0
C1051 C 0.42352 0.38995 0.23494 0.0
C1052 C 0.47919 0.46359 0.19331 0.0
C1053 C 0.4697 0.48298 0.17338 0.0
C1054 C 0.45685 0.47228 0.13782 0.0
C1055 C 0.45291 0.44172 0.12156 0.0
C1056 C 0.46423 0.4233 0.14101 0.0
C1057 C 0.4774 0.43425 0.17662 0.0
C1058 C 0.54106 0.52271 0.22297 0.0
C1059 C 0.5422 0.55206 0.21166 0.0
C1060 C 0.56174 0.56856 0.18387 0.0
C1061 C 0.5805 0.55601 0.16655 0.0
C1062 C 0.58058 0.52748 0.17903 0.0
C1063 C 0.56085 0.51087 0.2069 0.0
C1064 C 0.51266 0.53051 0.45889 0.0
C1065 C 0.34912 0.34406 0.16531 0.0
H1066 H 0.5248 0.96699 0.50458 0.0
H1067 H 0.32675 0.98234 0.14477 0.0
H1068 H 0.58067 0.02387 0.32433 0.0
H1069 H 0.61558 0.00618 0.35793 0.0
H1070 H 0.55252 0.90317 0.30959 0.0
H1071 H 0.51856 0.92114 0.27579 0.0
H1072 H 0.51895 0.02077 0.36827 0.0
H1073 H 0.5249 0.00801 0.42972 0.0
H1074 H 0.48505 0.9021 0.39232 0.0
H1075 H 0.47902 0.91523 0.33111 0.0
H1076 H 0.4475 0.01938 0.33367 0.0
H1077 H 0.39935 0.99973 0.37086 0.0
H1078 H 0.37616 0.89577 0.34711 0.0
H1079 H 0.42342 0.91549 0.30955 0.0
H1080 H 0.45683 0.04362 0.26774 0.0
H1081 H 0.41516 0.05123 0.23315 0.0
H1082 H 0.3684 0.94678 0.18725 0.0
H1083 H 0.41009 0.93949 0.22221 0.0
H1084 H 0.49954 0.05223 0.21038 0.0
H1085 H 0.47839 0.0563 0.15094 0.0
H1086 H 0.44923 0.9513 0.12126 0.0
H1087 H 0.46965 0.94742 0.18075 0.0
H1088 H 0.5679 0.04863 0.22457 0.0
H1089 H 0.59823 0.05291 0.17097 0.0
H1090 H 0.55316 0.94331 0.15986 0.0
H1091 H 0.52308 0.93939 0.21313 0.0
O1092 O 0.52202 0.97144 0.48015 0.0
O1093 O 0.50139 0.9173 0.45954 0.0
O1094 O 0.36652 0.03257 0.1854 0.0
O1095 O 0.3425 0.97948 0.15995 0.0
C1096 C 0.52113 0.98171 0.28463 0.0
C1097 C 0.49601 0.97719 0.30809 0.0
C1098 C 0.46802 0.98002 0.29627 0.0
C1099 C 0.466 0.98911 0.26137 0.0
C1100 C 0.49134 0.99435 0.23796 0.0
C1101 C 0.51886 0.99041 0.24939 0.0
C1102 C 0.54749 0.97396 0.29697 0.0
C1103 C 0.57527 0.9978 0.32003 0.0
C1104 C 0.59482 0.98754 0.33961 0.0
C1105 C 0.58632 0.95314 0.33699 0.0
C1106 C 0.5594 0.92975 0.31267 0.0
C1107 C 0.54038 0.94012 0.2927 0.0
C1108 C 0.49879 0.96898 0.34533 0.0
C1109 C 0.51146 0.99484 0.37348 0.0
C1110 C 0.51487 0.98747 0.40851 0.0
C1111 C 0.50556 0.95405 0.41593 0.0
C1112 C 0.49255 0.92813 0.38755 0.0
C1113 C 0.48913 0.93555 0.35257 0.0
C1114 C 0.43893 0.96886 0.31881 0.0
C1115 C 0.43192 0.9924 0.33652 0.0
C1116 C 0.40461 0.98114 0.358 0.0
C1117 C 0.38408 0.94618 0.3623 0.0
C1118 C 0.39161 0.92287 0.34482 0.0
C1119 C 0.41853 0.93408 0.32314 0.0
C1120 C 0.4363 0.99097 0.24763 0.0
C1121 C 0.43694 0.02214 0.25104 0.0
C1122 C 0.41342 0.02655 0.23084 0.0
C1123 C 0.38886 0.99979 0.2069 0.0
C1124 C 0.38721 0.96801 0.20511 0.0
C1125 C 0.41069 0.96362 0.2254 0.0
C1126 C 0.48612 0.99952 0.1999 0.0
C1127 C 0.48932 0.03043 0.19066 0.0
C1128 C 0.4771 0.03264 0.15673 0.0
C1129 C 0.4617 0.004 0.13141 0.0
C1130 C 0.46074 0.97383 0.14008 0.0
C1131 C 0.4727 0.9716 0.17401 0.0
C1132 C 0.54361 0.99372 0.22319 0.0
C1133 C 0.56555 0.02568 0.21123 0.0
C1134 C 0.58267 0.02806 0.18043 0.0
C1135 C 0.57777 0.99843 0.16076 0.0
C1136 C 0.55731 0.96665 0.17411 0.0
C1137 C 0.54044 0.96435 0.20496 0.0
C1138 C 0.50946 0.94635 0.45311 0.0
C1139 C 0.36538 0.00507 0.1835 0.0
H1140 H 0.51082 0.08454 0.61182 0.0
H1141 H 0.67657 0.98325 0.94324 0.0
H1142 H 0.49853 0.07781 0.82341 0.0
H1143 H 0.46475 0.09574 0.78921 0.0
H1144 H 0.40347 0.99326 0.73888 0.0
H1145 H 0.43821 0.97561 0.7729 0.0
H1146 H 0.53603 0.08288 0.76539 0.0
H1147 H 0.52889 0.0937 0.7035 0.0
H1148 H 0.49468 0.98823 0.66933 0.0
H1149 H 0.50162 0.97771 0.7315 0.0
H1150 H 0.59303 0.08502 0.78519 0.0
H1151 H 0.64003 0.10417 0.74731 0.0
H1152 H 0.62218 0.00131 0.73264 0.0
H1153 H 0.57429 0.98216 0.77009 0.0
H1154 H 0.60838 0.06818 0.87227 0.0
H1155 H 0.6526 0.06817 0.91075 0.0
H1156 H 0.61112 0.96094 0.87876 0.0
H1157 H 0.56702 0.96137 0.84035 0.0
H1158 H 0.54988 0.05394 0.91837 0.0
H1159 H 0.57027 0.04983 0.97779 0.0
H1160 H 0.53944 0.94435 0.94828 0.0
H1161 H 0.5184 0.94871 0.88889 0.0
H1162 H 0.49589 0.06081 0.88595 0.0
H1163 H 0.46608 0.05695 0.93937 0.0
H1164 H 0.41989 0.94723 0.92744 0.0
H1165 H 0.45001 0.95148 0.87365 0.0
O1166 O 0.5136 0.07973 0.6361 0.0
O1167 O 0.49658 0.02538 0.61984 0.0
O1168 O 0.67982 0.03911 0.94313 0.0
O1169 O 0.66046 0.9843 0.92673 0.0
C1170 C 0.49707 0.01786 0.81386 0.0
C1171 C 0.52235 0.02253 0.79055 0.0
C1172 C 0.55104 0.02114 0.80297 0.0
C1173 C 0.5535 0.0131 0.83828 0.0
C1174 C 0.52758 0.00682 0.86122 0.0
C1175 C 0.49955 0.00972 0.84931 0.0
C1176 C 0.4705 0.02524 0.80126 0.0
C1177 C 0.4771 0.0589 0.806 0.0
C1178 C 0.4582 0.06926 0.78579 0.0
C1179 C 0.4319 0.04606 0.76077 0.0
C1180 C 0.42378 0.01176 0.75773 0.0
C1181 C 0.44322 0.00152 0.77755 0.0
C1182 C 0.51903 0.02945 0.75288 0.0
C1183 C 0.52685 0.06213 0.74451 0.0
C1184 C 0.52283 0.06825 0.70912 0.0
C1185 C 0.51111 0.0418 0.68146 0.0
C1186 C 0.50369 0.00915 0.68999 0.0
C1187 C 0.50766 0.00307 0.72542 0.0
C1188 C 0.58007 0.03216 0.78032 0.0
C1189 C 0.59897 0.0665 0.77345 0.0
C1190 C 0.6258 0.07738 0.75165 0.0
C1191 C 0.63473 0.05423 0.73656 0.0
C1192 C 0.61577 0.01975 0.74352 0.0
C1193 C 0.5886 0.0088 0.76515 0.0
C1194 C 0.58469 0.01484 0.8534 0.0
C1195 C 0.60953 0.04498 0.87277 0.0
C1196 C 0.63443 0.04476 0.89514 0.0
C1197 C 0.63495 0.01436 0.89837 0.0
C1198 C 0.61118 0.98467 0.87721 0.0
C1199 C 0.58628 0.98494 0.85482 0.0
C1200 C 0.53262 0.00164 0.89932 0.0
C1201 C 0.54646 0.02963 0.92515 0.0
C1202 C 0.55839 0.02725 0.95904 0.0
C1203 C 0.55696 0.99685 0.96771 0.0
C1204 C 0.5411 0.96818 0.94248 0.0
C1205 C 0.52891 0.97054 0.90859 0.0
C1206 C 0.47476 0.00644 0.87542 0.0
C1207 C 0.47834 0.03586 0.89396 0.0
C1208 C 0.46164 0.03357 0.92492 0.0
C1209 C 0.44094 0.00176 0.93808 0.0
C1210 C 0.43565 0.9721 0.91813 0.0
C1211 C 0.45261 0.97446 0.8872 0.0
C1212 C 0.50663 0.04833 0.64392 0.0
C1213 C 0.65978 0.01346 0.92413 0.0
H1214 H 0.96939 0.42356 0.60099 0.0
H1215 H 0.02169 0.70761 0.89325 0.0
H1216 H 0.9551 0.43114 0.81327 0.0
H1217 H 0.9336 0.37285 0.78843 0.0
H1218 H 0.03506 0.39634 0.7701 0.0
H1219 H 0.0565 0.45559 0.79511 0.0
H1220 H 0.95785 0.45708 0.75054 0.0
H1221 H 0.95246 0.43696 0.68752 0.0
H1222 H 0.05966 0.50356 0.68227 0.0
H1223 H 0.06472 0.52332 0.74551 0.0
H1224 H 0.9511 0.5054 0.77307 0.0
H1225 H 0.92602 0.53347 0.7413 0.0
H1226 H 0.02413 0.62422 0.74333 0.0
H1227 H 0.04927 0.59521 0.77427 0.0
H1228 H 0.96116 0.54137 0.85197 0.0
H1229 H 0.95161 0.58824 0.87019 0.0
H1230 H 0.05826 0.65967 0.86824 0.0
H1231 H 0.06738 0.61244 0.84991 0.0
H1232 H 0.97362 0.49737 0.90607 0.0
H1233 H 0.96885 0.51904 0.96501 0.0
H1234 H 0.07171 0.60216 0.96643 0.0
H1235 H 0.07635 0.57949 0.90729 0.0
H1236 H 0.97142 0.44024 0.87831 0.0
H1237 H 0.97167 0.40912 0.92864 0.0
H1238 H 0.0799 0.47356 0.94613 0.0
H1239 H 0.07932 0.50442 0.89463 0.0
O1240 O 0.97205 0.43213 0.62582 0.0
O1241 O 0.02717 0.4673 0.62431 0.0
O1242 O 0.97017 0.6508 0.88651 0.0
O1243 O 0.0248 0.68862 0.88615 0.0
C1244 C 0.0183 0.48335 0.81741 0.0
C1245 C 0.01547 0.50308 0.79118 0.0
C1246 C 0.01503 0.5331 0.80162 0.0
C1247 C 0.02021 0.54491 0.83824 0.0
C1248 C 0.02551 0.52652 0.86438 0.0
C1249 C 0.02418 0.49542 0.85408 0.0
C1250 C 1.00736 0.4473 0.80663 0.0
C1251 C 0.9728 0.42357 0.80457 0.0
C1252 C 0.96053 0.39038 0.78986 0.0
C1253 C 0.98261 0.38006 0.77699 0.0
C1254 C 0.01747 0.40366 0.77973 0.0
C1255 C 0.02978 0.43729 0.79427 0.0
C1256 C 0.01171 0.49157 0.7526 0.0
C1257 C 0.98014 0.4673 0.73576 0.0
C1258 C 0.97713 0.45586 0.69973 0.0
C1259 C 1.00565 0.46858 0.67985 0.0
C1260 C 0.0372 0.49319 0.6968 0.0
C1261 C 0.04016 0.50457 0.73287 0.0
C1262 C 1.00207 0.5481 0.77566 0.0
C1263 C 0.96745 0.53078 0.76522 0.0
C1264 C 0.95309 0.54702 0.74728 0.0
C1265 C 0.97302 0.58119 0.74003 0.0
C1266 C 1.0081 0.59786 0.74852 0.0
C1267 C 0.02253 0.58137 0.76616 0.0
C1268 C 0.01493 0.57362 0.84965 0.0
C1269 C 0.9824 0.56718 0.85553 0.0
C1270 C 0.97704 0.59398 0.86592 0.0
C1271 C 1.00419 0.62773 0.87066 0.0
C1272 C 0.03681 0.634 0.86482 0.0
C1273 C 0.04212 0.60713 0.85438 0.0
C1274 C 0.02545 0.53659 0.90265 0.0
C1275 C 0.9955 0.51957 0.91963 0.0
C1276 C 0.99275 0.53227 0.9532 0.0
C1277 C 0.01982 0.56258 0.97032 0.0
C1278 C 0.05039 0.5788 0.95394 0.0
C1279 C 0.05317 0.56586 0.92029 0.0
C1280 C 0.02539 0.47415 0.88218 0.0
C1281 C 0.99534 0.44698 0.89214 0.0
C1282 C 0.99556 0.42945 0.92134 0.0
C1283 C 0.02585 0.43885 0.94162 0.0
C1284 C 0.05617 0.46553 0.93102 0.0
C1285 C 0.05589 0.48315 0.9016 0.0
C1286 C 1.00241 0.45608 0.64166 0.0
C1287 C 0.99856 0.6563 0.88158 0.0
H1288 H 0.48804 0.47429 0.59116 0.0
H1289 H 0.70414 0.66902 0.97012 0.0
H1290 H 0.43486 0.46376 0.78502 0.0
H1291 H 0.39493 0.40538 0.75842 0.0
H1292 H 0.46899 0.37597 0.78363 0.0
H1293 H 0.50787 0.43347 0.81017 0.0
H1294 H 0.4991 0.52943 0.73902 0.0
H1295 H 0.49065 0.51246 0.67464 0.0
H1296 H 0.53216 0.44702 0.69176 0.0
H1297 H 0.5406 0.46435 0.75598 0.0
H1298 H 0.57845 0.59956 0.7767 0.0
H1299 H 0.62731 0.62735 0.74081 0.0
H1300 H 0.64355 0.5421 0.74839 0.0
H1301 H 0.59558 0.5152 0.78481 0.0
H1302 H 0.57382 0.61489 0.84868 0.0
H1303 H 0.61894 0.66119 0.88857 0.0
H1304 H 0.65624 0.59416 0.91558 0.0
H1305 H 0.61127 0.54829 0.87529 0.0
H1306 H 0.53244 0.58065 0.90633 0.0
H1307 H 0.55548 0.59983 0.96876 0.0
H1308 H 0.57102 0.51377 0.97321 0.0
H1309 H 0.54894 0.49558 0.91093 0.0
H1310 H 0.4578 0.51182 0.88243 0.0
H1311 H 0.42302 0.48257 0.93105 0.0
H1312 H 0.45758 0.40994 0.92305 0.0
H1313 H 0.49225 0.43942 0.8753 0.0
O1314 O 0.49174 0.48077 0.61666 0.0
O1315 O 0.51322 0.44749 0.62692 0.0
O1316 O 0.66871 0.68609 0.93611 0.0
O1317 O 0.68714 0.65174 0.95282 0.0
C1318 C 0.49973 0.48782 0.81356 0.0
C1319 C 0.52484 0.50824 0.79106 0.0
C1320 C 0.55431 0.5382 0.80552 0.0
C1321 C 0.55779 0.54858 0.84235 0.0
C1322 C 0.53206 0.52886 0.86469 0.0
C1323 C 0.50282 0.49862 0.85029 0.0
C1324 C 0.47404 0.4526 0.79976 0.0
C1325 C 0.44209 0.44445 0.78502 0.0
C1326 C 0.41951 0.41127 0.76967 0.0
C1327 C 0.42891 0.38613 0.76865 0.0
C1328 C 0.46095 0.39466 0.78368 0.0
C1329 C 0.48316 0.42746 0.79912 0.0
C1330 C 0.52031 0.49801 0.75208 0.0
C1331 C 0.50637 0.51146 0.72875 0.0
C1332 C 0.50156 0.50171 0.69202 0.0
C1333 C 0.51066 0.47832 0.67805 0.0
C1334 C 0.52481 0.46503 0.70162 0.0
C1335 C 0.52962 0.47484 0.73832 0.0
C1336 C 0.58341 0.55533 0.78328 0.0
C1337 C 0.59257 0.58695 0.77047 0.0
C1338 C 0.6203 0.60262 0.74978 0.0
C1339 C 0.63912 0.58676 0.74143 0.0
C1340 C 0.62939 0.55481 0.75388 0.0
C1341 C 0.60205 0.53945 0.77484 0.0
C1342 C 0.58945 0.57837 0.85897 0.0
C1343 C 0.5924 0.61062 0.86237 0.0
C1344 C 0.61789 0.63683 0.88559 0.0
C1345 C 0.64077 0.63113 0.90581 0.0
C1346 C 0.6388 0.59928 0.90075 0.0
C1347 C 0.61344 0.57318 0.87738 0.0
C1348 C 0.539 0.53672 0.90415 0.0
C1349 C 0.54017 0.56564 0.92115 0.0
C1350 C 0.55343 0.57657 0.95675 0.0
C1351 C 0.56543 0.55853 0.97588 0.0
C1352 C 0.56215 0.52837 0.9593 0.0
C1353 C 0.54923 0.5177 0.92376 0.0
C1354 C 0.47714 0.47741 0.87479 0.0
C1355 C 0.45707 0.48902 0.89062 0.0
C1356 C 0.43731 0.47236 0.91846 0.0
C1357 C 0.43764 0.44403 0.93115 0.0
C1358 C 0.45673 0.43173 0.9141 0.0
C1359 C 0.4763 0.44828 0.88635 0.0
C1360 C 0.50535 0.46786 0.63905 0.0
C1361 C 0.66632 0.65805 0.93244 0.0
H1362 H 0.65305 0.8734 0.83143 0.0
H1363 H 0.73061 0.67263 0.53274 0.0
H1364 H 0.62846 0.87774 0.63506 0.0
H1365 H 0.64979 0.93691 0.6603 0.0
H1366 H 0.75144 0.96035 0.64313 0.0
H1367 H 0.73007 0.90216 0.61807 0.0
H1368 H 0.6195 0.81036 0.6841 0.0
H1369 H 0.62355 0.83028 0.7471 0.0
H1370 H 0.73117 0.89597 0.74396 0.0
H1371 H 0.72675 0.87576 0.68112 0.0
H1372 H 0.63621 0.73847 0.65631 0.0
H1373 H 0.66109 0.7095 0.68778 0.0
H1374 H 0.75924 0.80034 0.6906 0.0
H1375 H 0.7344 0.82837 0.65833 0.0
H1376 H 0.62114 0.72084 0.58109 0.0
H1377 H 0.63264 0.67538 0.56199 0.0
H1378 H 0.73821 0.75039 0.55935 0.0
H1379 H 0.72631 0.79543 0.57844 0.0
H1380 H 0.60981 0.75371 0.52398 0.0
H1381 H 0.61417 0.73098 0.46475 0.0
H1382 H 0.71652 0.81483 0.46503 0.0
H1383 H 0.71203 0.83661 0.52406 0.0
H1384 H 0.60628 0.82855 0.53557 0.0
H1385 H 0.60579 0.8592 0.48386 0.0
H1386 H 0.71385 0.92446 0.50225 0.0
H1387 H 0.71403 0.89354 0.5528 0.0
O1388 O 0.65207 0.86551 0.80667 0.0
O1389 O 0.70736 0.89848 0.80375 0.0
O1390 O 0.67106 0.65217 0.54379 0.0
O1391 O 0.72531 0.68997 0.54052 0.0
C1392 C 0.66686 0.84999 0.61327 0.0
C1393 C 0.6696 0.83026 0.63954 0.0
C1394 C 0.67067 0.80057 0.62915 0.0
C1395 C 0.6662 0.78907 0.59251 0.0
C1396 C 0.66055 0.80719 0.56633 0.0
C1397 C 0.66135 0.83804 0.57659 0.0
C1398 C 0.67772 0.88602 0.62409 0.0
C1399 C 0.6552 0.89602 0.6362 0.0
C1400 C 0.66744 0.9296 0.65087 0.0
C1401 C 0.70232 0.95316 0.65401 0.0
C1402 C 0.72449 0.94286 0.6414 0.0
C1403 C 0.7123 0.90972 0.62656 0.0
C1404 C 0.67279 0.84159 0.6781 0.0
C1405 C 0.64393 0.82891 0.69717 0.0
C1406 C 0.64632 0.84039 0.73311 0.0
C1407 C 0.67768 0.86479 0.75056 0.0
C1408 C 0.70663 0.8772 0.73135 0.0
C1409 C 0.70418 0.86567 0.69544 0.0
C1410 C 0.68344 0.78562 0.65533 0.0
C1411 C 0.66288 0.75234 0.66473 0.0
C1412 C 0.67717 0.73587 0.68267 0.0
C1413 C 0.7122 0.75259 0.69151 0.0
C1414 C 0.7322 0.78677 0.68434 0.0
C1415 C 0.71798 0.80298 0.66612 0.0
C1416 C 0.6729 0.7613 0.58112 0.0
C1417 C 0.64669 0.7273 0.57638 0.0
C1418 C 0.65336 0.70145 0.56549 0.0
C1419 C 0.68638 0.70927 0.55913 0.0
C1420 C 0.71253 0.74347 0.56398 0.0
C1421 C 0.70582 0.76923 0.57489 0.0
C1422 C 0.66047 0.79701 0.52805 0.0
C1423 C 0.63281 0.7675 0.51071 0.0
C1424 C 0.63542 0.75452 0.477 0.0
C1425 C 0.66578 0.77093 0.46027 0.0
C1426 C 0.69278 0.80146 0.47711 0.0
C1427 C 0.69019 0.81422 0.51074 0.0
C1428 C 0.66012 0.85924 0.54848 0.0
C1429 C 0.62968 0.84996 0.52876 0.0
C1430 C 0.62945 0.86745 0.49922 0.0
C1431 C 0.65977 0.89428 0.48881 0.0
C1432 C 0.68998 0.90399 0.5094 0.0
C1433 C 0.69015 0.88659 0.53873 0.0
C1434 C 0.68008 0.87733 0.78858 0.0
C1435 C 0.69365 0.68199 0.54739 0.0
H1436 H 0.17442 0.8935 0.83122 0.0
H1437 H 0.99374 0.6276 0.47965 0.0
H1438 H 0.17694 0.89985 0.62172 0.0
H1439 H 0.21618 0.95733 0.64804 0.0
H1440 H 0.29032 0.92767 0.6717 0.0
H1441 H 0.25003 0.86931 0.64533 0.0
H1442 H 0.14485 0.86913 0.67588 0.0
H1443 H 0.1534 0.88569 0.74026 0.0
H1444 H 0.19348 0.81881 0.75583 0.0
H1445 H 0.18495 0.80261 0.69127 0.0
H1446 H 0.08954 0.81874 0.64734 0.0
H1447 H 0.04194 0.79193 0.68425 0.0
H1448 H 0.05676 0.70555 0.68914 0.0
H1449 H 0.10537 0.73333 0.65294 0.0
H1450 H 0.07481 0.78789 0.55429 0.0
H1451 H 0.02902 0.74285 0.51406 0.0
H1452 H 0.06161 0.67253 0.54285 0.0
H1453 H 0.10778 0.71808 0.58242 0.0
H1454 H 0.13711 0.83885 0.51938 0.0
H1455 H 0.11521 0.82071 0.45706 0.0
H1456 H 0.1281 0.73308 0.46253 0.0
H1457 H 0.15095 0.75219 0.52501 0.0
H1458 H 0.19324 0.89447 0.5563 0.0
H1459 H 0.22786 0.9238 0.50846 0.0
H1460 H 0.26108 0.85013 0.49948 0.0
H1461 H 0.22636 0.82102 0.54819 0.0
O1462 O 0.17119 0.88654 0.80584 0.0
O1463 O 0.19127 0.85152 0.81246 0.0
O1464 O 0.99776 0.68384 0.4796 0.0
O1465 O 0.01091 0.64552 0.49631 0.0
C1466 C 0.18496 0.84543 0.61749 0.0
C1467 C 0.15978 0.82497 0.6399 0.0
C1468 C 0.13011 0.79528 0.62527 0.0
C1469 C 0.12649 0.78523 0.58832 0.0
C1470 C 0.15245 0.80478 0.56615 0.0
C1471 C 0.18185 0.83478 0.58071 0.0
C1472 C 0.21076 0.88057 0.63143 0.0
C1473 C 0.20172 0.90578 0.63244 0.0
C1474 C 0.22415 0.93858 0.64773 0.0
C1475 C 0.25634 0.94706 0.66223 0.0
C1476 C 0.26563 0.92184 0.66087 0.0
C1477 C 0.24284 0.88866 0.64566 0.0
C1478 C 0.16446 0.83482 0.67897 0.0
C1479 C 0.15558 0.85818 0.69323 0.0
C1480 C 0.16043 0.86754 0.73003 0.0
C1481 C 0.17419 0.85362 0.75321 0.0
C1482 C 0.18288 0.83004 0.73874 0.0
C1483 C 0.17803 0.82074 0.70192 0.0
C1484 C 0.10105 0.7781 0.64758 0.0
C1485 C 0.08286 0.79426 0.65684 0.0
C1486 C 0.05572 0.77895 0.67809 0.0
C1487 C 0.04573 0.74674 0.68997 0.0
C1488 C 0.06402 0.73052 0.68068 0.0
C1489 C 0.09159 0.74617 0.65977 0.0
C1490 C 0.09442 0.75614 0.57143 0.0
C1491 C 0.0715 0.76251 0.55253 0.0
C1492 C 0.04566 0.73687 0.5292 0.0
C1493 C 0.04199 0.70422 0.52482 0.0
C1494 C 0.06392 0.69746 0.54536 0.0
C1495 C 0.08999 0.72327 0.56841 0.0
C1496 C 0.14575 0.79692 0.52667 0.0
C1497 C 0.13633 0.8164 0.50677 0.0
C1498 C 0.12349 0.80575 0.47119 0.0
C1499 C 0.11948 0.77518 0.4549 0.0
C1500 C 0.13072 0.75668 0.47432 0.0
C1501 C 0.14388 0.76757 0.50995 0.0
C1502 C 0.20768 0.85595 0.55632 0.0
C1503 C 0.20891 0.88534 0.54504 0.0
C1504 C 0.22843 0.9018 0.51723 0.0
C1505 C 0.24711 0.88916 0.49986 0.0
C1506 C 0.24712 0.86059 0.51231 0.0
C1507 C 0.2274 0.84402 0.54021 0.0
C1508 C 0.17944 0.86372 0.79228 0.0
C1509 C 0.01554 0.67736 0.49884 0.0
H1510 H 0.19265 0.30233 0.83833 0.0
H1511 H 0.99358 0.31555 0.47817 0.0
H1512 H 0.24768 0.35734 0.65775 0.0
H1513 H 0.28256 0.33958 0.69129 0.0
H1514 H 0.21938 0.23659 0.64294 0.0
H1515 H 0.18544 0.25463 0.6092 0.0
H1516 H 0.18597 0.35484 0.70144 0.0
H1517 H 0.19223 0.34262 0.76305 0.0
H1518 H 0.15283 0.23659 0.72654 0.0
H1519 H 0.14648 0.24917 0.66516 0.0
H1520 H 0.11427 0.35289 0.66692 0.0
H1521 H 0.06613 0.33319 0.70413 0.0
H1522 H 0.04346 0.22933 0.68095 0.0
H1523 H 0.0907 0.24909 0.64337 0.0
H1524 H 0.12377 0.37707 0.60104 0.0
H1525 H 0.08207 0.38462 0.5664 0.0
H1526 H 0.03524 0.28006 0.52079 0.0
H1527 H 0.07695 0.27284 0.5558 0.0
H1528 H 0.1665 0.38557 0.54367 0.0
H1529 H 0.14538 0.38961 0.4842 0.0
H1530 H 0.11594 0.2845 0.45472 0.0
H1531 H 0.13633 0.28065 0.51423 0.0
H1532 H 0.23483 0.38192 0.5579 0.0
H1533 H 0.26501 0.38609 0.50421 0.0
H1534 H 0.21967 0.27646 0.4931 0.0
H1535 H 0.18974 0.27266 0.54647 0.0
O1536 O 0.18975 0.30655 0.81384 0.0
O1537 O 0.16936 0.25234 0.79368 0.0
O1538 O 0.03339 0.36586 0.51869 0.0
O1539 O 0.00933 0.31271 0.49337 0.0
C1540 C 0.1881 0.31523 0.61806 0.0
C1541 C 0.16307 0.31085 0.64158 0.0
C1542 C 0.13502 0.31359 0.62975 0.0
C1543 C 0.13291 0.32254 0.59481 0.0
C1544 C 0.1582 0.3277 0.57136 0.0
C1545 C 0.18573 0.32378 0.58278 0.0
C1546 C 0.21444 0.30744 0.63039 0.0
C1547 C 0.24225 0.33126 0.65343 0.0
C1548 C 0.26177 0.32096 0.67299 0.0
C1549 C 0.25324 0.28654 0.67035 0.0
C1550 C 0.22629 0.26318 0.64604 0.0
C1551 C 0.20728 0.27359 0.62609 0.0
C1552 C 0.16602 0.30295 0.67892 0.0
C1553 C 0.17865 0.329 0.70688 0.0
C1554 C 0.18223 0.32194 0.742 0.0
C1555 C 0.17314 0.28864 0.74971 0.0
C1556 C 0.16016 0.26253 0.72153 0.0
C1557 C 0.15657 0.26964 0.68646 0.0
C1558 C 0.10595 0.30242 0.65233 0.0
C1559 C 0.09881 0.32591 0.6699 0.0
C1560 C 0.0715 0.31463 0.69139 0.0
C1561 C 0.05111 0.27969 0.69585 0.0
C1562 C 0.05878 0.25642 0.67853 0.0
C1563 C 0.08571 0.26765 0.65684 0.0
C1564 C 0.1032 0.32437 0.58108 0.0
C1565 C 0.10386 0.35555 0.5844 0.0
C1566 C 0.08032 0.35992 0.56417 0.0
C1567 C 0.05573 0.33311 0.5403 0.0
C1568 C 0.05406 0.30133 0.5386 0.0
C1569 C 0.07755 0.29698 0.55892 0.0
C1570 C 0.15293 0.33281 0.53329 0.0
C1571 C 0.15622 0.36373 0.52399 0.0
C1572 C 0.14402 0.36593 0.49004 0.0
C1573 C 0.12856 0.33726 0.46477 0.0
C1574 C 0.1275 0.30706 0.4735 0.0
C1575 C 0.13944 0.30484 0.50744 0.0
C1576 C 0.21042 0.327 0.55653 0.0
C1577 C 0.23239 0.35894 0.54454 0.0
C1578 C 0.24942 0.36125 0.51368 0.0
C1579 C 0.2444 0.33159 0.49399 0.0
C1580 C 0.22391 0.29983 0.50736 0.0
C1581 C 0.20712 0.29759 0.53827 0.0
C1582 C 0.17723 0.28128 0.787 0.0
C1583 C 0.03224 0.33835 0.51686 0.0
loop_
_geom_bond_atom_site_label_1
_geom_bond_atom_site_label_2
_geom_bond_distance
_geom_bond_site_symmetry_2
_ccdc_geom_bond_type
O0 Cd1 2.223 . S
O0 C8 1.315 . S
Cd1 O0 2.223 . S
Cd1 O4 2.297 . S
Cd1 O5 2.439 . S
Cd1 O11 2.240 1_554 S
Cd2 O3 2.240 . S
Cd2 O10 2.223 1_554 S
Cd2 O12 2.297 1_554 S
Cd2 O13 2.439 1_554 S
O3 Cd2 2.240 . S
O3 C8 1.279 1_655 S
O4 Cd1 2.297 . S
O4 C6 1.247 . S
O5 Cd1 2.439 . S
O5 C6 1.208 . S
C6 O4 1.247 . S
C6 O5 1.208 . S
C7 O12 1.247 . S
C7 O13 1.208 . S
C8 O0 1.315 . S
C8 O3 1.279 1_455 S
C9 O10 1.315 . S
C9 O11 1.279 1_655 S
O10 Cd2 2.223 1_556 S
O10 C9 1.315 . S
O11 Cd1 2.240 1_556 S
O11 C9 1.279 1_455 S
O12 Cd2 2.297 1_556 S
O12 C7 1.247 . S
O13 Cd2 2.439 1_556 S
O13 C7 1.208 . S
O14 Cd15 2.223 . S
O14 C22 1.315 . S
Cd15 O14 2.223 . S
Cd15 O18 2.297 . S
Cd15 O19 2.439 . S
Cd15 O25 2.240 . S
Cd16 O17 2.240 . S
Cd16 O24 2.223 . S
Cd16 O26 2.297 . S
Cd16 O27 2.439 . S
O17 Cd16 2.240 . S
O17 C22 1.279 . S
O18 Cd15 2.297 . S
O18 C20 1.247 . S
O19 Cd15 2.439 . S
O19 C20 1.208 . S
C20 O18 1.247 . S
C20 O19 1.208 . S
C21 O26 1.247 . S
C21 O27 1.208 . S
C22 O14 1.315 . S
C22 O17 1.279 . S
C23 O24 1.315 . S
C23 O25 1.279 . S
O24 Cd16 2.223 . S
O24 C23 1.315 . S
O25 Cd15 2.240 . S
O25 C23 1.279 . S
O26 Cd16 2.297 . S
O26 C21 1.247 . S
O27 Cd16 2.439 . S
O27 C21 1.208 . S
O28 Cd29 2.223 1_556 S
O28 C36 1.310 1_545 S
Cd29 O28 2.223 1_554 S
Cd29 O32 2.297 1_554 S
Cd29 O33 2.439 . S
Cd29 O39 2.240 . S
Cd30 O31 2.240 1_554 S
Cd30 O38 2.223 . S
Cd30 O40 2.297 . S
Cd30 O41 2.439 . S
O31 Cd30 2.240 1_556 S
O31 C36 1.279 . S
O32 Cd29 2.297 1_556 S
O32 C34 1.247 . S
O33 Cd29 2.439 . S
O33 C34 1.208 1_554 S
C34 O32 1.247 . S
C34 O33 1.208 1_556 S
C35 O40 1.247 . S
C35 O41 1.208 . S
C36 O28 1.310 1_565 S
C36 O31 1.279 . S
C37 O38 1.349 . S
C37 O39 1.246 1_565 S
O38 Cd30 2.223 . S
O38 C37 1.349 . S
O39 Cd29 2.240 . S
O39 C37 1.246 1_545 S
O40 Cd30 2.297 . S
O40 C35 1.247 . S
O41 Cd30 2.439 . S
O41 C35 1.208 . S
O42 Cd43 2.223 . S
O42 C50 1.315 . S
Cd43 O42 2.223 . S
Cd43 O46 2.297 1_554 S
Cd43 O47 2.439 . S
Cd43 O53 2.240 . S
Cd44 O45 2.240 . S
Cd44 O52 2.223 . S
Cd44 O54 2.297 . S
Cd44 O55 2.439 . S
O45 Cd44 2.240 . S
O45 C50 1.279 1_455 S
O46 Cd43 2.297 1_556 S
O46 C48 1.247 1_556 S
O47 Cd43 2.439 . S
O47 C48 1.213 . S
C48 O46 1.247 1_554 S
C48 O47 1.213 . S
C49 O54 1.247 . S
C49 O55 1.208 . S
C50 O42 1.315 . S
C50 O45 1.279 1_655 S
C51 O52 1.315 . S
C51 O53 1.279 1_455 S
O52 Cd44 2.223 . S
O52 C51 1.315 . S
O53 Cd43 2.240 . S
O53 C51 1.279 1_655 S
O54 Cd44 2.297 . S
O54 C49 1.247 . S
O55 Cd44 2.439 . S
O55 C49 1.208 . S
O56 Cd57 2.224 1_556 S
O56 C64 1.315 . S
Cd57 O56 2.224 1_554 S
Cd57 O60 2.298 1_554 S
Cd57 O61 2.439 1_554 S
Cd57 O67 2.239 . S
Cd58 O59 2.240 1_554 S
Cd58 O66 2.223 . S
Cd58 O68 2.297 . S
Cd58 O69 2.439 . S
O59 Cd58 2.240 1_556 S
O59 C64 1.279 . S
O60 Cd57 2.298 1_556 S
O60 C62 1.247 . S
O61 Cd57 2.439 1_556 S
O61 C62 1.208 . S
C62 O60 1.247 . S
C62 O61 1.208 . S
C63 O68 1.247 . S
C63 O69 1.208 . S
C64 O56 1.315 . S
C64 O59 1.279 . S
C65 O66 1.315 . S
C65 O67 1.279 . S
O66 Cd58 2.223 . S
O66 C65 1.315 . S
O67 Cd57 2.239 . S
O67 C65 1.279 . S
O68 Cd58 2.297 . S
O68 C63 1.247 . S
O69 Cd58 2.439 . S
O69 C63 1.208 . S
O70 Cd71 2.223 . S
O70 C78 1.315 1_565 S
Cd71 O70 2.223 . S
Cd71 O74 2.297 . S
Cd71 O75 2.439 . S
Cd71 O81 2.240 . S
Cd72 O73 2.240 . S
Cd72 O80 2.223 . S
Cd72 O82 2.297 . S
Cd72 O83 2.439 . S
O73 Cd72 2.240 . S
O73 C78 1.279 . S
O74 Cd71 2.297 . S
O74 C76 1.247 . S
O75 Cd71 2.439 . S
O75 C76 1.208 . S
C76 O74 1.247 . S
C76 O75 1.208 . S
C77 O82 1.247 . S
C77 O83 1.208 . S
C78 O70 1.315 1_545 S
C78 O73 1.279 . S
C79 O80 1.315 . S
C79 O81 1.279 1_545 S
O80 Cd72 2.223 . S
O80 C79 1.315 . S
O81 Cd71 2.240 . S
O81 C79 1.279 1_565 S
O82 Cd72 2.297 . S
O82 C77 1.247 . S
O83 Cd72 2.439 . S
O83 C77 1.208 . S
O84 Cd85 2.223 . S
O84 C92 1.315 . S
Cd85 O84 2.223 . S
Cd85 O88 2.297 . S
Cd85 O89 2.439 . S
Cd85 O95 2.240 . S
Cd86 O87 2.240 . S
Cd86 O94 2.223 . S
Cd86 O96 2.297 . S
Cd86 O97 2.439 . S
O87 Cd86 2.240 . S
O87 C92 1.279 . S
O88 Cd85 2.297 . S
O88 C90 1.247 . S
O89 Cd85 2.439 . S
O89 C90 1.208 . S
C90 O88 1.247 . S
C90 O89 1.208 . S
C91 O96 1.247 . S
C91 O97 1.208 . S
C92 O84 1.315 . S
C92 O87 1.279 . S
C93 O94 1.315 . S
C93 O95 1.279 . S
O94 Cd86 2.223 . S
O94 C93 1.315 . S
O95 Cd85 2.240 . S
O95 C93 1.279 . S
O96 Cd86 2.297 . S
O96 C91 1.247 . S
O97 Cd86 2.439 . S
O97 C91 1.208 . S
O98 Cd99 2.223 . S
O98 C106 1.315 . S
Cd99 O98 2.223 . S
Cd99 O102 2.297 1_565 S
Cd99 O103 2.439 1_565 S
Cd99 O109 2.240 . S
Cd100 O101 2.240 . S
Cd100 O108 2.223 . S
Cd100 O110 2.297 . S
Cd100 O111 2.439 . S
O101 Cd100 2.240 . S
O101 C106 1.279 . S
O102 Cd99 2.297 1_545 S
O102 C104 1.247 . S
O103 Cd99 2.439 1_545 S
O103 C104 1.208 . S
C104 O102 1.247 . S
C104 O103 1.208 . S
C105 O110 1.247 . S
C105 O111 1.208 . S
C106 O98 1.315 . S
C106 O101 1.279 . S
C107 O108 1.315 . S
C107 O109 1.279 . S
O108 Cd100 2.223 . S
O108 C107 1.315 . S
O109 Cd99 2.240 . S
O109 C107 1.279 . S
O110 Cd100 2.297 . S
O110 C105 1.247 . S
O111 Cd100 2.439 . S
O111 C105 1.208 . S
O112 Cd113 2.223 . S
O112 C120 1.315 . S
Cd113 O112 2.223 . S
Cd113 O116 2.297 . S
Cd113 O117 2.439 . S
Cd113 O123 2.240 . S
Cd114 O115 2.240 . S
Cd114 O122 2.223 . S
Cd114 O124 2.297 . S
Cd114 O125 2.439 1_455 S
O115 Cd114 2.240 . S
O115 C120 1.279 . S
O116 Cd113 2.297 . S
O116 C118 1.247 . S
O117 Cd113 2.439 . S
O117 C118 1.208 . S
C118 O116 1.247 . S
C118 O117 1.208 . S
C119 O124 1.247 1_655 S
C119 O125 1.208 . S
C120 O112 1.315 . S
C120 O115 1.279 . S
C121 O122 1.315 . S
C121 O123 1.279 . S
O122 Cd114 2.223 . S
O122 C121 1.315 . S
O123 Cd113 2.240 . S
O123 C121 1.279 . S
O124 Cd114 2.297 . S
O124 C119 1.247 1_455 S
O125 Cd114 2.439 1_655 S
O125 C119 1.208 . S
O126 Cd127 2.223 . S
O126 C134 1.315 . S
Cd127 O126 2.223 . S
Cd127 O130 2.297 . S
Cd127 O131 2.439 . S
Cd127 O137 2.240 . S
Cd128 O129 2.240 . S
Cd128 O136 2.223 . S
Cd128 O138 2.297 1_565 S
Cd128 O139 2.439 1_565 S
O129 Cd128 2.240 . S
O129 C134 1.279 . S
O130 Cd127 2.297 . S
O130 C132 1.247 . S
O131 Cd127 2.439 . S
O131 C132 1.208 . S
C132 O130 1.247 . S
C132 O131 1.208 . S
C133 O138 1.247 . S
C133 O139 1.208 . S
C134 O126 1.315 . S
C134 O129 1.279 . S
C135 O136 1.315 . S
C135 O137 1.279 . S
O136 Cd128 2.223 . S
O136 C135 1.315 . S
O137 Cd127 2.240 . S
O137 C135 1.279 . S
O138 Cd128 2.297 1_545 S
O138 C133 1.247 . S
O139 Cd128 2.439 1_545 S
O139 C133 1.208 . S
O140 Cd141 2.223 . S
O140 C148 1.315 . S
Cd141 O140 2.223 . S
Cd141 O144 2.297 . S
Cd141 O145 2.439 . S
Cd141 O151 2.240 . S
Cd142 O143 2.240 . S
Cd142 O150 2.223 . S
Cd142 O152 2.297 1_455 S
Cd142 O153 2.439 1_455 S
O143 Cd142 2.240 . S
O143 C148 1.279 . S
O144 Cd141 2.297 . S
O144 C146 1.247 . S
O145 Cd141 2.439 . S
O145 C146 1.208 . S
C146 O144 1.247 . S
C146 O145 1.208 . S
C147 O152 1.247 . S
C147 O153 1.208 . S
C148 O140 1.315 . S
C148 O143 1.279 . S
C149 O150 1.315 . S
C149 O151 1.279 . S
O150 Cd142 2.223 . S
O150 C149 1.315 . S
O151 Cd141 2.240 . S
O151 C149 1.279 . S
O152 Cd142 2.297 1_655 S
O152 C147 1.247 . S
O153 Cd142 2.439 1_655 S
O153 C147 1.208 . S
O154 Cd155 2.223 . S
O154 C162 1.315 . S
Cd155 O154 2.223 . S
Cd155 O158 2.297 . S
Cd155 O159 2.439 . S
Cd155 O165 2.240 . S
Cd156 O157 2.240 . S
Cd156 O164 2.223 . S
Cd156 O166 2.297 . S
Cd156 O167 2.439 . S
O157 Cd156 2.240 . S
O157 C162 1.279 . S
O158 Cd155 2.297 . S
O158 C160 1.247 . S
O159 Cd155 2.439 . S
O159 C160 1.208 . S
C160 O158 1.247 . S
C160 O159 1.208 . S
C161 O166 1.247 . S
C161 O167 1.208 . S
C162 O154 1.315 . S
C162 O157 1.279 . S
C163 O164 1.315 . S
C163 O165 1.279 . S
O164 Cd156 2.223 . S
O164 C163 1.315 . S
O165 Cd155 2.240 . S
O165 C163 1.279 . S
O166 Cd156 2.297 . S
O166 C161 1.247 . S
O167 Cd156 2.439 . S
O167 C161 1.208 . S
O168 Cd169 2.223 . S
O168 C176 1.315 . S
Cd169 O168 2.223 . S
Cd169 O172 2.297 . S
Cd169 O173 2.439 . S
Cd169 O179 2.240 . S
Cd170 O171 2.240 . S
Cd170 O178 2.223 . S
Cd170 O180 2.297 1_545 S
Cd170 O181 2.439 1_545 S
O171 Cd170 2.240 . S
O171 C176 1.279 . S
O172 Cd169 2.297 . S
O172 C174 1.247 . S
O173 Cd169 2.439 . S
O173 C174 1.208 . S
C174 O172 1.247 . S
C174 O173 1.208 . S
C175 O180 1.247 . S
C175 O181 1.208 . S
C176 O168 1.315 . S
C176 O171 1.279 . S
C177 O178 1.315 . S
C177 O179 1.279 . S
O178 Cd170 2.223 . S
O178 C177 1.315 . S
O179 Cd169 2.240 . S
O179 C177 1.279 . S
O180 Cd170 2.297 1_565 S
O180 C175 1.247 . S
O181 Cd170 2.439 1_565 S
O181 C175 1.208 . S
O182 Cd183 2.223 . S
O182 C190 1.315 . S
Cd183 O182 2.223 . S
Cd183 O186 2.297 . S
Cd183 O187 2.439 . S
Cd183 O193 2.240 . S
Cd184 O185 2.240 . S
Cd184 O192 2.223 . S
Cd184 O194 2.297 1_655 S
Cd184 O195 2.439 1_655 S
O185 Cd184 2.240 . S
O185 C190 1.279 . S
O186 Cd183 2.297 . S
O186 C188 1.247 . S
O187 Cd183 2.439 . S
O187 C188 1.208 . S
C188 O186 1.247 . S
C188 O187 1.208 . S
C189 O194 1.247 . S
C189 O195 1.208 . S
C190 O182 1.315 . S
C190 O185 1.279 . S
C191 O192 1.315 . S
C191 O193 1.279 . S
O192 Cd184 2.223 . S
O192 C191 1.315 . S
O193 Cd183 2.240 . S
O193 C191 1.279 . S
O194 Cd184 2.297 1_455 S
O194 C189 1.247 . S
O195 Cd184 2.439 1_455 S
O195 C189 1.208 . S
O196 Cd197 2.223 . S
O196 C204 1.315 . S
Cd197 O196 2.223 . S
Cd197 O200 2.297 . S
Cd197 O201 2.439 . S
Cd197 O207 2.240 . S
Cd198 O199 2.240 . S
Cd198 O206 2.223 . S
Cd198 O208 2.297 . S
Cd198 O209 2.439 . S
O199 Cd198 2.240 . S
O199 C204 1.279 . S
O200 Cd197 2.297 . S
O200 C202 1.247 . S
O201 Cd197 2.439 . S
O201 C202 1.208 . S
C202 O200 1.247 . S
C202 O201 1.208 . S
C203 O208 1.247 . S
C203 O209 1.208 . S
C204 O196 1.315 . S
C204 O199 1.279 . S
C205 O206 1.315 . S
C205 O207 1.279 . S
O206 Cd198 2.223 . S
O206 C205 1.315 . S
O207 Cd197 2.240 . S
O207 C205 1.279 . S
O208 Cd198 2.297 . S
O208 C203 1.247 . S
O209 Cd198 2.439 . S
O209 C203 1.208 . S
O210 Cd211 2.223 . S
O210 C218 1.315 . S
Cd211 O210 2.223 . S
Cd211 O214 2.297 . S
Cd211 O215 2.439 . S
Cd211 O221 2.240 . S
Cd212 O213 2.240 . S
Cd212 O220 2.223 . S
Cd212 O222 2.297 . S
Cd212 O223 2.439 . S
O213 Cd212 2.240 . S
O213 C218 1.279 . S
O214 Cd211 2.297 . S
O214 C216 1.247 . S
O215 Cd211 2.439 . S
O215 C216 1.208 . S
C216 O214 1.247 . S
C216 O215 1.208 . S
C217 O222 1.247 . S
C217 O223 1.208 . S
C218 O210 1.315 . S
C218 O213 1.279 . S
C219 O220 1.315 . S
C219 O221 1.279 . S
O220 Cd212 2.223 . S
O220 C219 1.315 . S
O221 Cd211 2.240 . S
O221 C219 1.279 . S
O222 Cd212 2.297 . S
O222 C217 1.247 . S
O223 Cd212 2.439 . S
O223 C217 1.208 . S
O224 Cd225 2.223 . S
O224 C232 1.315 . S
Cd225 O224 2.223 . S
Cd225 O228 2.297 1_545 S
Cd225 O229 2.439 1_545 S
Cd225 O235 2.240 . S
Cd226 O227 2.240 . S
Cd226 O234 2.223 . S
Cd226 O236 2.297 . S
Cd226 O237 2.439 . S
O227 Cd226 2.240 . S
O227 C232 1.279 . S
O228 Cd225 2.297 1_565 S
O228 C230 1.247 . S
O229 Cd225 2.439 1_565 S
O229 C230 1.208 . S
C230 O228 1.247 . S
C230 O229 1.208 . S
C231 O236 1.247 . S
C231 O237 1.208 . S
C232 O224 1.315 . S
C232 O227 1.279 . S
C233 O234 1.315 . S
C233 O235 1.279 . S
O234 Cd226 2.223 . S
O234 C233 1.315 . S
O235 Cd225 2.240 . S
O235 C233 1.279 . S
O236 Cd226 2.297 . S
O236 C231 1.247 . S
O237 Cd226 2.439 . S
O237 C231 1.208 . S
O238 Cd239 2.223 . S
O238 C246 1.315 . S
Cd239 O238 2.223 . S
Cd239 O242 2.297 . S
Cd239 O243 2.439 . S
Cd239 O249 2.240 . S
Cd240 O241 2.240 . S
Cd240 O248 2.223 . S
Cd240 O250 2.297 . S
Cd240 O251 2.439 1_655 S
O241 Cd240 2.240 . S
O241 C246 1.279 . S
O242 Cd239 2.297 . S
O242 C244 1.247 . S
O243 Cd239 2.439 . S
O243 C244 1.208 . S
C244 O242 1.247 . S
C244 O243 1.208 . S
C245 O250 1.247 1_455 S
C245 O251 1.208 . S
C246 O238 1.315 . S
C246 O241 1.279 . S
C247 O248 1.315 . S
C247 O249 1.279 . S
O248 Cd240 2.223 . S
O248 C247 1.315 . S
O249 Cd239 2.240 . S
O249 C247 1.279 . S
O250 Cd240 2.297 . S
O250 C245 1.247 1_655 S
O251 Cd240 2.439 1_455 S
O251 C245 1.208 . S
H252 O278 0.856 . S
H253 O281 0.854 . S
H254 C289 0.930 . S
H255 C290 0.930 . S
H256 C292 0.930 . S
H257 C293 0.930 . S
H258 C295 0.931 . S
H259 C296 0.930 . S
H260 C298 0.930 . S
H261 C299 0.929 . S
H262 C301 0.930 . S
H263 C302 0.931 . S
H264 C304 0.930 . S
H265 C305 0.929 . S
H266 C307 0.931 . S
H267 C308 0.930 . S
H268 C310 0.930 . S
H269 C311 0.932 . S
H270 C313 0.930 . S
H271 C314 0.929 . S
H272 C316 0.931 . S
H273 C317 0.930 . S
H274 C319 0.929 . S
H275 C320 0.931 . S
H276 C322 0.930 . S
H277 C323 0.929 . S
O278 H252 0.856 . S
O278 C324 1.300 . S
O279 C324 1.209 . S
O280 C325 1.199 . S
O281 H253 0.854 . S
O281 C325 1.297 . S
C282 C283 1.404 . S
C282 C287 1.397 . S
C282 C288 1.492 . S
C283 C282 1.404 . S
C283 C284 1.396 . S
C283 C294 1.492 . S
C284 C283 1.396 . S
C284 C285 1.397 . S
C284 C300 1.509 . S
C285 C284 1.397 . S
C285 C286 1.412 . S
C285 C306 1.485 . S
C286 C285 1.412 . S
C286 C287 1.388 . S
C286 C312 1.490 . S
C287 C282 1.397 . S
C287 C286 1.388 . S
C287 C318 1.519 . S
C288 C282 1.492 . S
C288 C289 1.363 . S
C288 C293 1.390 . S
C289 H254 0.930 . S
C289 C288 1.363 . S
C289 C290 1.372 . S
C290 H255 0.930 . S
C290 C289 1.372 . S
C290 C291 1.383 . S
C291 C290 1.383 . S
C291 C292 1.395 . S
C292 H256 0.930 . S
C292 C291 1.395 . S
C292 C293 1.362 . S
C293 H257 0.930 . S
C293 C288 1.390 . S
C293 C292 1.362 . S
C294 C283 1.492 . S
C294 C295 1.377 . S
C294 C299 1.397 . S
C295 H258 0.931 . S
C295 C294 1.377 . S
C295 C296 1.376 . S
C296 H259 0.930 . S
C296 C295 1.376 . S
C296 C297 1.376 . S
C297 C296 1.376 . S
C297 C298 1.378 . S
C297 C324 1.486 1_554 S
C298 H260 0.930 . S
C298 C297 1.378 . S
C298 C299 1.376 . S
C299 H261 0.929 . S
C299 C294 1.397 . S
C299 C298 1.376 . S
C300 C284 1.509 . S
C300 C301 1.391 . S
C300 C305 1.386 . S
C301 H262 0.930 . S
C301 C300 1.391 . S
C301 C302 1.375 . S
C302 H263 0.931 . S
C302 C301 1.375 . S
C302 C303 1.375 . S
C303 C302 1.375 . S
C303 C304 1.361 . S
C304 H264 0.930 . S
C304 C303 1.361 . S
C304 C305 1.399 . S
C305 H265 0.929 . S
C305 C300 1.386 . S
C305 C304 1.399 . S
C306 C285 1.485 . S
C306 C307 1.394 . S
C306 C311 1.360 . S
C307 H266 0.931 . S
C307 C306 1.394 . S
C307 C308 1.372 . S
C308 H267 0.930 . S
C308 C307 1.372 . S
C308 C309 1.397 . S
C309 C308 1.397 . S
C309 C310 1.390 . S
C309 C325 1.476 . S
C310 H268 0.930 . S
C310 C309 1.390 . S
C310 C311 1.366 . S
C311 H269 0.932 . S
C311 C306 1.360 . S
C311 C310 1.366 . S
C312 C286 1.490 . S
C312 C313 1.380 . S
C312 C317 1.386 . S
C313 H270 0.930 . S
C313 C312 1.380 . S
C313 C314 1.381 . S
C314 H271 0.929 . S
C314 C313 1.381 . S
C314 C315 1.371 . S
C315 C314 1.371 . S
C315 C316 1.380 . S
C316 H272 0.931 . S
C316 C315 1.380 . S
C316 C317 1.387 . S
C317 H273 0.930 . S
C317 C312 1.386 . S
C317 C316 1.387 . S
C318 C287 1.519 . S
C318 C319 1.377 . S
C318 C323 1.361 . S
C319 H274 0.929 . S
C319 C318 1.377 . S
C319 C320 1.386 . S
C320 H275 0.931 . S
C320 C319 1.386 . S
C320 C321 1.363 . S
C321 C320 1.363 . S
C321 C322 1.385 . S
C322 H276 0.930 . S
C322 C321 1.385 . S
C322 C323 1.396 . S
C323 H277 0.929 . S
C323 C318 1.361 . S
C323 C322 1.396 . S
C324 O278 1.300 . S
C324 O279 1.209 . S
C324 C297 1.486 1_556 S
C325 O280 1.199 . S
C325 O281 1.297 . S
C325 C309 1.476 . S
H326 O352 0.856 . S
H327 O355 0.854 . S
H328 C363 0.930 . S
H329 C364 0.930 . S
H330 C366 0.930 . S
H331 C367 0.930 . S
H332 C369 0.931 . S
H333 C370 0.930 . S
H334 C372 0.930 . S
H335 C373 0.929 . S
H336 C375 0.930 . S
H337 C376 0.931 . S
H338 C378 0.930 . S
H339 C379 0.929 . S
H340 C381 0.931 . S
H341 C382 0.930 . S
H342 C384 0.911 1_545 S
H343 C385 0.932 . S
H344 C387 0.930 . S
H345 C388 0.929 . S
H346 C390 0.931 . S
H347 C391 0.930 . S
H348 C393 0.929 . S
H349 C394 0.931 . S
H350 C396 0.930 . S
H351 C397 0.929 . S
O352 H326 0.856 . S
O352 C398 1.300 1_556 S
O353 C398 1.209 . S
O354 C399 1.199 . S
O355 H327 0.854 . S
O355 C399 1.297 . S
C356 C357 1.404 . S
C356 C361 1.397 . S
C356 C362 1.492 . S
C357 C356 1.404 . S
C357 C358 1.396 . S
C357 C368 1.492 . S
C358 C357 1.396 . S
C358 C359 1.397 . S
C358 C374 1.509 . S
C359 C358 1.397 . S
C359 C360 1.412 . S
C359 C380 1.485 . S
C360 C359 1.412 . S
C360 C361 1.388 . S
C360 C386 1.490 . S
C361 C356 1.397 . S
C361 C360 1.388 . S
C361 C392 1.519 . S
C362 C356 1.492 . S
C362 C363 1.363 . S
C362 C367 1.390 . S
C363 H328 0.930 . S
C363 C362 1.363 . S
C363 C364 1.372 . S
C364 H329 0.930 . S
C364 C363 1.372 . S
C364 C365 1.383 . S
C365 C364 1.383 . S
C365 C366 1.395 . S
C366 H330 0.930 . S
C366 C365 1.395 . S
C366 C367 1.362 . S
C367 H331 0.930 . S
C367 C362 1.390 . S
C367 C366 1.362 . S
C368 C357 1.492 . S
C368 C369 1.377 . S
C368 C373 1.397 . S
C369 H332 0.931 . S
C369 C368 1.377 . S
C369 C370 1.376 . S
C370 H333 0.930 . S
C370 C369 1.376 . S
C370 C371 1.376 . S
C371 C370 1.376 . S
C371 C372 1.378 . S
C371 C398 1.486 . S
C372 H334 0.930 . S
C372 C371 1.378 . S
C372 C373 1.376 . S
C373 H335 0.929 . S
C373 C368 1.397 . S
C373 C372 1.376 . S
C374 C358 1.509 . S
C374 C375 1.391 . S
C374 C379 1.386 . S
C375 H336 0.930 . S
C375 C374 1.391 . S
C375 C376 1.375 . S
C376 H337 0.931 . S
C376 C375 1.375 . S
C376 C377 1.375 . S
C377 C376 1.375 . S
C377 C378 1.361 . S
C378 H338 0.930 . S
C378 C377 1.361 . S
C378 C379 1.399 . S
C379 H339 0.929 . S
C379 C374 1.386 . S
C379 C378 1.399 . S
C380 C359 1.485 . S
C380 C381 1.394 . S
C380 C385 1.360 . S
C381 H340 0.931 . S
C381 C380 1.394 . S
C381 C382 1.372 . S
C382 H341 0.930 . S
C382 C381 1.372 . S
C382 C383 1.397 . S
C383 C382 1.397 . S
C383 C384 1.390 . S
C383 C399 1.476 1_565 S
C384 H342 0.911 1_565 S
C384 C383 1.390 . S
C384 C385 1.366 . S
C385 H343 0.932 . S
C385 C380 1.360 . S
C385 C384 1.366 . S
C386 C360 1.490 . S
C386 C387 1.380 . S
C386 C391 1.386 . S
C387 H344 0.930 . S
C387 C386 1.380 . S
C387 C388 1.381 . S
C388 H345 0.929 . S
C388 C387 1.381 . S
C388 C389 1.371 . S
C389 C388 1.371 . S
C389 C390 1.380 . S
C390 H346 0.931 . S
C390 C389 1.380 . S
C390 C391 1.387 . S
C391 H347 0.930 . S
C391 C386 1.386 . S
C391 C390 1.387 . S
C392 C361 1.519 . S
C392 C393 1.377 . S
C392 C397 1.361 . S
C393 H348 0.929 . S
C393 C392 1.377 . S
C393 C394 1.386 . S
C394 H349 0.931 . S
C394 C393 1.386 . S
C394 C395 1.363 . S
C395 C394 1.363 . S
C395 C396 1.385 . S
C396 H350 0.930 . S
C396 C395 1.385 . S
C396 C397 1.396 . S
C397 H351 0.929 . S
C397 C392 1.361 . S
C397 C396 1.396 . S
C398 O352 1.300 1_554 S
C398 O353 1.209 . S
C398 C371 1.486 . S
C399 O354 1.199 . S
C399 O355 1.297 . S
C399 C383 1.476 1_545 S
H400 O426 0.856 . S
H401 O429 0.854 . S
H402 C437 0.930 . S
H403 C438 0.930 . S
H404 C440 0.930 . S
H405 C441 0.930 . S
H406 C443 0.931 . S
H407 C444 0.930 . S
H408 C446 0.930 . S
H409 C447 0.929 . S
H410 C449 0.930 . S
H411 C450 0.931 . S
H412 C452 0.930 . S
H413 C453 0.929 . S
H414 C455 0.931 . S
H415 C456 0.930 1_545 S
H416 C458 0.930 . S
H417 C459 0.932 . S
H418 C461 0.930 . S
H419 C462 0.929 . S
H420 C464 0.931 . S
H421 C465 0.930 . S
H422 C467 0.929 . S
H423 C468 0.931 . S
H424 C470 0.930 . S
H425 C471 0.929 . S
O426 H400 0.856 . S
O426 C472 1.300 1_556 S
O427 C472 1.209 1_556 S
O428 C473 1.199 . S
O429 H401 0.854 . S
O429 C473 1.297 . S
C430 C431 1.404 . S
C430 C435 1.397 . S
C430 C436 1.492 . S
C431 C430 1.404 . S
C431 C432 1.396 . S
C431 C442 1.492 . S
C432 C431 1.396 . S
C432 C433 1.397 . S
C432 C448 1.509 . S
C433 C432 1.397 . S
C433 C434 1.412 . S
C433 C454 1.485 . S
C434 C433 1.412 . S
C434 C435 1.388 . S
C434 C460 1.490 . S
C435 C430 1.397 . S
C435 C434 1.388 . S
C435 C466 1.519 . S
C436 C430 1.492 . S
C436 C437 1.363 . S
C436 C441 1.390 . S
C437 H402 0.930 . S
C437 C436 1.363 . S
C437 C438 1.372 . S
C438 H403 0.930 . S
C438 C437 1.372 . S
C438 C439 1.383 . S
C439 C438 1.383 . S
C439 C440 1.395 . S
C440 H404 0.930 . S
C440 C439 1.395 . S
C440 C441 1.362 . S
C441 H405 0.930 . S
C441 C436 1.390 . S
C441 C440 1.362 . S
C442 C431 1.492 . S
C442 C443 1.377 . S
C442 C447 1.397 . S
C443 H406 0.931 . S
C443 C442 1.377 . S
C443 C444 1.376 . S
C444 H407 0.930 . S
C444 C443 1.376 . S
C444 C445 1.376 . S
C445 C444 1.376 . S
C445 C446 1.378 . S
C445 C472 1.486 . S
C446 H408 0.930 . S
C446 C445 1.378 . S
C446 C447 1.376 . S
C447 H409 0.929 . S
C447 C442 1.397 . S
C447 C446 1.376 . S
C448 C432 1.509 . S
C448 C449 1.391 . S
C448 C453 1.386 . S
C449 H410 0.930 . S
C449 C448 1.391 . S
C449 C450 1.375 . S
C450 H411 0.931 . S
C450 C449 1.375 . S
C450 C451 1.375 . S
C451 C450 1.375 . S
C451 C452 1.361 . S
C452 H412 0.930 . S
C452 C451 1.361 . S
C452 C453 1.399 . S
C453 H413 0.929 . S
C453 C448 1.386 . S
C453 C452 1.399 . S
C454 C433 1.485 . S
C454 C455 1.394 . S
C454 C459 1.360 . S
C455 H414 0.931 . S
C455 C454 1.394 . S
C455 C456 1.372 . S
C456 H415 0.930 1_565 S
C456 C455 1.372 . S
C456 C457 1.397 . S
C457 C456 1.397 . S
C457 C458 1.390 . S
C457 C473 1.476 1_565 S
C458 H416 0.930 . S
C458 C457 1.390 . S
C458 C459 1.366 . S
C459 H417 0.932 . S
C459 C454 1.360 . S
C459 C458 1.366 . S
C460 C434 1.490 . S
C460 C461 1.380 . S
C460 C465 1.386 . S
C461 H418 0.930 . S
C461 C460 1.380 . S
C461 C462 1.381 . S
C462 H419 0.929 . S
C462 C461 1.381 . S
C462 C463 1.371 . S
C463 C462 1.371 . S
C463 C464 1.380 . S
C464 H420 0.931 . S
C464 C463 1.380 . S
C464 C465 1.387 . S
C465 H421 0.930 . S
C465 C460 1.386 . S
C465 C464 1.387 . S
C466 C435 1.519 . S
C466 C467 1.377 . S
C466 C471 1.361 . S
C467 H422 0.929 . S
C467 C466 1.377 . S
C467 C468 1.386 . S
C468 H423 0.931 . S
C468 C467 1.386 . S
C468 C469 1.363 . S
C469 C468 1.363 . S
C469 C470 1.385 . S
C470 H424 0.930 . S
C470 C469 1.385 . S
C470 C471 1.396 . S
C471 H425 0.929 . S
C471 C466 1.361 . S
C471 C470 1.396 . S
C472 O426 1.300 1_554 S
C472 O427 1.209 1_554 S
C472 C445 1.486 . S
C473 O428 1.199 . S
C473 O429 1.297 . S
C473 C457 1.476 1_545 S
H474 O500 0.856 . S
H475 O503 0.854 . S
H476 C511 0.930 . S
H477 C512 0.930 . S
H478 C514 0.930 . S
H479 C515 0.930 . S
H480 C517 0.931 . S
H481 C518 0.930 . S
H482 C520 0.930 . S
H483 C521 0.929 . S
H484 C523 0.930 . S
H485 C524 0.931 . S
H486 C526 0.930 . S
H487 C527 0.929 . S
H488 C529 0.931 . S
H489 C530 0.930 . S
H490 C532 0.930 . S
H491 C533 0.932 . S
H492 C535 0.930 . S
H493 C536 0.929 . S
H494 C538 0.931 . S
H495 C539 0.930 . S
H496 C541 0.929 . S
H497 C542 0.931 . S
H498 C544 0.930 . S
H499 C545 0.929 . S
O500 H474 0.856 . S
O500 C546 1.300 . S
O501 C546 1.209 . S
O502 C547 1.199 . S
O503 H475 0.854 . S
O503 C547 1.297 . S
C504 C505 1.404 . S
C504 C509 1.397 . S
C504 C510 1.492 . S
C505 C504 1.404 . S
C505 C506 1.396 . S
C505 C516 1.492 . S
C506 C505 1.396 . S
C506 C507 1.397 . S
C506 C522 1.509 . S
C507 C506 1.397 . S
C507 C508 1.412 . S
C507 C528 1.485 . S
C508 C507 1.412 . S
C508 C509 1.388 . S
C508 C534 1.490 . S
C509 C504 1.397 . S
C509 C508 1.388 . S
C509 C540 1.519 . S
C510 C504 1.492 . S
C510 C511 1.363 . S
C510 C515 1.390 . S
C511 H476 0.930 . S
C511 C510 1.363 . S
C511 C512 1.372 . S
C512 H477 0.930 . S
C512 C511 1.372 . S
C512 C513 1.383 . S
C513 C512 1.383 . S
C513 C514 1.395 . S
C514 H478 0.930 . S
C514 C513 1.395 . S
C514 C515 1.362 . S
C515 H479 0.930 . S
C515 C510 1.390 . S
C515 C514 1.362 . S
C516 C505 1.492 . S
C516 C517 1.377 . S
C516 C521 1.397 . S
C517 H480 0.931 . S
C517 C516 1.377 . S
C517 C518 1.376 1_556 S
C518 H481 0.930 . S
C518 C517 1.376 1_554 S
C518 C519 1.376 . S
C519 C518 1.376 . S
C519 C520 1.378 . S
C519 C546 1.486 . S
C520 H482 0.930 . S
C520 C519 1.378 . S
C520 C521 1.376 1_554 S
C521 H483 0.929 . S
C521 C516 1.397 . S
C521 C520 1.376 1_556 S
C522 C506 1.509 . S
C522 C523 1.391 . S
C522 C527 1.386 . S
C523 H484 0.930 . S
C523 C522 1.391 . S
C523 C524 1.375 . S
C524 H485 0.931 . S
C524 C523 1.375 . S
C524 C525 1.375 . S
C525 C524 1.375 . S
C525 C526 1.361 . S
C526 H486 0.930 . S
C526 C525 1.361 . S
C526 C527 1.399 . S
C527 H487 0.929 . S
C527 C522 1.386 . S
C527 C526 1.399 . S
C528 C507 1.485 . S
C528 C529 1.394 . S
C528 C533 1.360 . S
C529 H488 0.931 . S
C529 C528 1.394 . S
C529 C530 1.372 . S
C530 H489 0.930 . S
C530 C529 1.372 . S
C530 C531 1.397 . S
C531 C530 1.397 . S
C531 C532 1.390 . S
C531 C547 1.476 1_545 S
C532 H490 0.930 . S
C532 C531 1.390 . S
C532 C533 1.366 . S
C533 H491 0.932 . S
C533 C528 1.360 . S
C533 C532 1.366 . S
C534 C508 1.490 . S
C534 C535 1.380 . S
C534 C539 1.386 . S
C535 H492 0.930 . S
C535 C534 1.380 . S
C535 C536 1.381 . S
C536 H493 0.929 . S
C536 C535 1.381 . S
C536 C537 1.371 . S
C537 C536 1.371 . S
C537 C538 1.380 . S
C538 H494 0.931 . S
C538 C537 1.380 . S
C538 C539 1.387 . S
C539 H495 0.930 . S
C539 C534 1.386 . S
C539 C538 1.387 . S
C540 C509 1.519 . S
C540 C541 1.377 . S
C540 C545 1.361 . S
C541 H496 0.929 . S
C541 C540 1.377 . S
C541 C542 1.386 . S
C542 H497 0.931 . S
C542 C541 1.386 . S
C542 C543 1.363 . S
C543 C542 1.363 . S
C543 C544 1.385 . S
C544 H498 0.930 . S
C544 C543 1.385 . S
C544 C545 1.396 . S
C545 H499 0.929 . S
C545 C540 1.361 . S
C545 C544 1.396 . S
C546 O500 1.300 . S
C546 O501 1.209 . S
C546 C519 1.486 . S
C547 O502 1.199 . S
C547 O503 1.297 . S
C547 C531 1.476 1_565 S
H548 O574 0.856 . S
H549 O577 0.854 . S
H550 C585 0.930 . S
H551 C586 0.930 . S
H552 C588 0.930 . S
H553 C589 0.930 . S
H554 C591 0.931 . S
H555 C592 0.930 . S
H556 C594 0.930 . S
H557 C595 0.929 . S
H558 C597 0.930 . S
H559 C598 0.931 . S
H560 C600 0.930 1_554 S
H561 C601 0.929 . S
H562 C603 0.931 . S
H563 C604 0.930 . S
H564 C606 0.930 1_565 S
H565 C607 0.932 . S
H566 C609 0.930 . S
H567 C610 0.929 . S
H568 C612 0.931 . S
H569 C613 0.930 . S
H570 C615 0.929 . S
H571 C616 0.931 . S
H572 C618 0.930 . S
H573 C619 0.929 . S
O574 H548 0.856 . S
O574 C620 1.300 . S
O575 C620 1.209 . S
O576 C621 1.199 . S
O577 H549 0.854 . S
O577 C621 1.297 . S
C578 C579 1.404 . S
C578 C583 1.397 . S
C578 C584 1.492 . S
C579 C578 1.404 . S
C579 C580 1.396 . S
C579 C590 1.492 . S
C580 C579 1.396 . S
C580 C581 1.397 . S
C580 C596 1.509 . S
C581 C580 1.397 . S
C581 C582 1.412 . S
C581 C602 1.485 . S
C582 C581 1.412 . S
C582 C583 1.388 . S
C582 C608 1.490 . S
C583 C578 1.397 . S
C583 C582 1.388 . S
C583 C614 1.519 . S
C584 C578 1.492 . S
C584 C585 1.363 . S
C584 C589 1.390 . S
C585 H550 0.930 . S
C585 C584 1.363 . S
C585 C586 1.372 . S
C586 H551 0.930 . S
C586 C585 1.372 . S
C586 C587 1.383 . S
C587 C586 1.383 . S
C587 C588 1.395 . S
C588 H552 0.930 . S
C588 C587 1.395 . S
C588 C589 1.362 . S
C589 H553 0.930 . S
C589 C584 1.390 . S
C589 C588 1.362 . S
C590 C579 1.492 . S
C590 C591 1.377 . S
C590 C595 1.397 . S
C591 H554 0.931 . S
C591 C590 1.377 . S
C591 C592 1.376 1_556 S
C592 H555 0.930 . S
C592 C591 1.376 1_554 S
C592 C593 1.376 . S
C593 C592 1.376 . S
C593 C594 1.378 . S
C593 C620 1.486 . S
C594 H556 0.930 . S
C594 C593 1.378 . S
C594 C595 1.376 1_554 S
C595 H557 0.929 . S
C595 C590 1.397 . S
C595 C594 1.376 1_556 S
C596 C580 1.509 . S
C596 C597 1.391 . S
C596 C601 1.386 . S
C597 H558 0.930 . S
C597 C596 1.391 . S
C597 C598 1.375 . S
C598 H559 0.931 . S
C598 C597 1.375 . S
C598 C599 1.375 . S
C599 C598 1.375 . S
C599 C600 1.361 . S
C600 H560 0.930 1_556 S
C600 C599 1.361 . S
C600 C601 1.399 . S
C601 H561 0.929 . S
C601 C596 1.386 . S
C601 C600 1.399 . S
C602 C581 1.485 . S
C602 C603 1.394 . S
C602 C607 1.360 . S
C603 H562 0.931 . S
C603 C602 1.394 . S
C603 C604 1.372 . S
C604 H563 0.930 . S
C604 C603 1.372 . S
C604 C605 1.397 . S
C605 C604 1.397 . S
C605 C606 1.390 . S
C605 C621 1.476 1_545 S
C606 H564 0.930 1_545 S
C606 C605 1.390 . S
C606 C607 1.366 . S
C607 H565 0.932 . S
C607 C602 1.360 . S
C607 C606 1.366 . S
C608 C582 1.490 . S
C608 C609 1.380 . S
C608 C613 1.386 . S
C609 H566 0.930 . S
C609 C608 1.380 . S
C609 C610 1.381 . S
C610 H567 0.929 . S
C610 C609 1.381 . S
C610 C611 1.371 . S
C611 C610 1.371 . S
C611 C612 1.380 . S
C612 H568 0.931 . S
C612 C611 1.380 . S
C612 C613 1.387 . S
C613 H569 0.930 . S
C613 C608 1.386 . S
C613 C612 1.387 . S
C614 C583 1.519 . S
C614 C615 1.377 . S
C614 C619 1.361 . S
C615 H570 0.929 . S
C615 C614 1.377 . S
C615 C616 1.386 . S
C616 H571 0.931 . S
C616 C615 1.386 . S
C616 C617 1.363 . S
C617 C616 1.363 . S
C617 C618 1.385 . S
C618 H572 0.930 . S
C618 C617 1.385 . S
C618 C619 1.396 . S
C619 H573 0.929 . S
C619 C614 1.361 . S
C619 C618 1.396 . S
C620 O574 1.300 . S
C620 O575 1.209 . S
C620 C593 1.486 . S
C621 O576 1.199 . S
C621 O577 1.297 . S
C621 C605 1.476 1_565 S
H622 O648 0.856 . S
H623 O651 0.854 . S
H624 C659 0.930 . S
H625 C660 0.930 . S
H626 C662 0.930 . S
H627 C663 0.930 . S
H628 C665 0.931 . S
H629 C666 0.930 . S
H630 C668 0.930 . S
H631 C669 0.929 . S
H632 C671 0.930 . S
H633 C672 0.931 . S
H634 C674 0.929 1_554 S
H635 C675 0.929 . S
H636 C677 0.931 . S
H637 C678 0.930 . S
H638 C680 0.930 . S
H639 C681 0.932 . S
H640 C683 0.930 . S
H641 C684 0.929 . S
H642 C686 0.931 . S
H643 C687 0.930 . S
H644 C689 0.929 . S
H645 C690 0.931 . S
H646 C692 0.930 . S
H647 C693 0.929 . S
O648 H622 0.856 . S
O648 C694 1.300 . S
O649 C694 1.209 . S
O650 C695 1.199 . S
O651 H623 0.854 . S
O651 C695 1.297 . S
C652 C653 1.404 . S
C652 C657 1.397 . S
C652 C658 1.492 . S
C653 C652 1.404 . S
C653 C654 1.396 . S
C653 C664 1.492 . S
C654 C653 1.396 . S
C654 C655 1.397 . S
C654 C670 1.509 . S
C655 C654 1.397 . S
C655 C656 1.412 . S
C655 C676 1.485 . S
C656 C655 1.412 . S
C656 C657 1.388 . S
C656 C682 1.490 . S
C657 C652 1.397 . S
C657 C656 1.388 . S
C657 C688 1.519 . S
C658 C652 1.492 . S
C658 C659 1.363 . S
C658 C663 1.390 . S
C659 H624 0.930 . S
C659 C658 1.363 . S
C659 C660 1.372 . S
C660 H625 0.930 . S
C660 C659 1.372 . S
C660 C661 1.383 . S
C661 C660 1.383 . S
C661 C662 1.395 . S
C662 H626 0.930 . S
C662 C661 1.395 . S
C662 C663 1.362 . S
C663 H627 0.930 . S
C663 C658 1.390 . S
C663 C662 1.362 . S
C664 C653 1.492 . S
C664 C665 1.377 1_556 S
C664 C669 1.397 . S
C665 H628 0.931 . S
C665 C664 1.377 1_554 S
C665 C666 1.376 . S
C666 H629 0.930 . S
C666 C665 1.376 . S
C666 C667 1.376 . S
C667 C666 1.376 . S
C667 C668 1.378 . S
C667 C694 1.486 . S
C668 H630 0.930 . S
C668 C667 1.378 . S
C668 C669 1.376 1_554 S
C669 H631 0.929 . S
C669 C664 1.397 . S
C669 C668 1.376 1_556 S
C670 C654 1.509 . S
C670 C671 1.391 . S
C670 C675 1.386 . S
C671 H632 0.930 . S
C671 C670 1.391 . S
C671 C672 1.375 1_556 S
C672 H633 0.931 . S
C672 C671 1.375 1_554 S
C672 C673 1.375 . S
C673 C672 1.375 . S
C673 C674 1.361 1_554 S
C674 H634 0.929 1_556 S
C674 C673 1.361 1_556 S
C674 C675 1.400 . S
C675 H635 0.929 . S
C675 C670 1.386 . S
C675 C674 1.400 . S
C676 C655 1.485 . S
C676 C677 1.394 . S
C676 C681 1.360 . S
C677 H636 0.931 . S
C677 C676 1.394 . S
C677 C678 1.372 . S
C678 H637 0.930 . S
C678 C677 1.372 . S
C678 C679 1.397 . S
C679 C678 1.397 . S
C679 C680 1.390 . S
C679 C695 1.476 . S
C680 H638 0.930 . S
C680 C679 1.390 . S
C680 C681 1.366 . S
C681 H639 0.932 . S
C681 C676 1.360 . S
C681 C680 1.366 . S
C682 C656 1.490 . S
C682 C683 1.380 . S
C682 C687 1.386 . S
C683 H640 0.930 . S
C683 C682 1.380 . S
C683 C684 1.381 . S
C684 H641 0.929 . S
C684 C683 1.381 . S
C684 C685 1.371 . S
C685 C684 1.371 . S
C685 C686 1.380 . S
C686 H642 0.931 . S
C686 C685 1.380 . S
C686 C687 1.387 . S
C687 H643 0.930 . S
C687 C682 1.386 . S
C687 C686 1.387 . S
C688 C657 1.519 . S
C688 C689 1.377 . S
C688 C693 1.361 . S
C689 H644 0.929 . S
C689 C688 1.377 . S
C689 C690 1.386 . S
C690 H645 0.931 . S
C690 C689 1.386 . S
C690 C691 1.363 . S
C691 C690 1.363 . S
C691 C692 1.385 . S
C692 H646 0.930 . S
C692 C691 1.385 . S
C692 C693 1.396 . S
C693 H647 0.929 . S
C693 C688 1.361 . S
C693 C692 1.396 . S
C694 O648 1.300 . S
C694 O649 1.209 . S
C694 C667 1.486 . S
C695 O650 1.199 . S
C695 O651 1.297 . S
C695 C679 1.476 . S
H696 O722 0.856 . S
H697 O725 0.854 1_455 S
H698 C733 0.930 . S
H699 C734 0.930 . S
H700 C736 0.930 . S
H701 C737 0.930 . S
H702 C739 0.931 . S
H703 C740 0.930 . S
H704 C742 0.930 . S
H705 C743 0.929 . S
H706 C745 0.930 . S
H707 C746 0.931 . S
H708 C748 0.930 . S
H709 C749 0.929 . S
H710 C751 0.931 . S
H711 C752 0.930 . S
H712 C754 0.930 . S
H713 C755 0.932 . S
H714 C757 0.930 . S
H715 C758 0.929 . S
H716 C760 0.931 . S
H717 C761 0.930 . S
H718 C763 0.929 . S
H719 C764 0.931 . S
H720 C766 0.930 . S
H721 C767 0.929 . S
O722 H696 0.856 . S
O722 C768 1.300 . S
O723 C768 1.209 . S
O724 C769 1.199 1_455 S
O725 H697 0.854 1_655 S
O725 C769 1.297 . S
C726 C727 1.404 . S
C726 C731 1.397 . S
C726 C732 1.492 . S
C727 C726 1.404 . S
C727 C728 1.396 . S
C727 C738 1.492 . S
C728 C727 1.396 . S
C728 C729 1.397 . S
C728 C744 1.509 . S
C729 C728 1.397 . S
C729 C730 1.412 . S
C729 C750 1.485 . S
C730 C729 1.412 . S
C730 C731 1.388 . S
C730 C756 1.490 . S
C731 C726 1.397 . S
C731 C730 1.388 . S
C731 C762 1.519 . S
C732 C726 1.492 . S
C732 C733 1.363 . S
C732 C737 1.390 . S
C733 H698 0.930 . S
C733 C732 1.363 . S
C733 C734 1.372 . S
C734 H699 0.930 . S
C734 C733 1.372 . S
C734 C735 1.383 . S
C735 C734 1.383 . S
C735 C736 1.395 . S
C736 H700 0.930 . S
C736 C735 1.395 . S
C736 C737 1.362 . S
C737 H701 0.930 . S
C737 C732 1.390 . S
C737 C736 1.362 . S
C738 C727 1.492 . S
C738 C739 1.377 . S
C738 C743 1.397 . S
C739 H702 0.931 . S
C739 C738 1.377 . S
C739 C740 1.376 . S
C740 H703 0.930 . S
C740 C739 1.376 . S
C740 C741 1.376 . S
C741 C740 1.376 . S
C741 C742 1.378 . S
C741 C768 1.486 . S
C742 H704 0.930 . S
C742 C741 1.378 . S
C742 C743 1.376 . S
C743 H705 0.929 . S
C743 C738 1.397 . S
C743 C742 1.376 . S
C744 C728 1.509 . S
C744 C745 1.391 . S
C744 C749 1.386 . S
C745 H706 0.930 . S
C745 C744 1.391 . S
C745 C746 1.375 . S
C746 H707 0.931 . S
C746 C745 1.375 . S
C746 C747 1.375 . S
C747 C746 1.375 . S
C747 C748 1.361 . S
C748 H708 0.930 . S
C748 C747 1.361 . S
C748 C749 1.399 . S
C749 H709 0.929 . S
C749 C744 1.386 . S
C749 C748 1.399 . S
C750 C729 1.485 . S
C750 C751 1.394 . S
C750 C755 1.360 . S
C751 H710 0.931 . S
C751 C750 1.394 . S
C751 C752 1.372 . S
C752 H711 0.930 . S
C752 C751 1.372 . S
C752 C753 1.397 . S
C753 C752 1.397 . S
C753 C754 1.390 . S
C753 C769 1.476 . S
C754 H712 0.930 . S
C754 C753 1.390 . S
C754 C755 1.366 . S
C755 H713 0.932 . S
C755 C750 1.360 . S
C755 C754 1.366 . S
C756 C730 1.490 . S
C756 C757 1.380 . S
C756 C761 1.386 . S
C757 H714 0.930 . S
C757 C756 1.380 . S
C757 C758 1.381 . S
C758 H715 0.929 . S
C758 C757 1.381 . S
C758 C759 1.371 . S
C759 C758 1.371 . S
C759 C760 1.380 . S
C760 H716 0.931 . S
C760 C759 1.380 . S
C760 C761 1.387 . S
C761 H717 0.930 . S
C761 C756 1.386 . S
C761 C760 1.387 . S
C762 C731 1.519 . S
C762 C763 1.377 . S
C762 C767 1.361 . S
C763 H718 0.929 . S
C763 C762 1.377 . S
C763 C764 1.386 . S
C764 H719 0.931 . S
C764 C763 1.386 . S
C764 C765 1.363 . S
C765 C764 1.363 . S
C765 C766 1.385 . S
C766 H720 0.930 . S
C766 C765 1.385 . S
C766 C767 1.396 . S
C767 H721 0.929 . S
C767 C762 1.361 . S
C767 C766 1.396 . S
C768 O722 1.300 . S
C768 O723 1.209 . S
C768 C741 1.486 . S
C769 O724 1.199 1_655 S
C769 O725 1.297 . S
C769 C753 1.476 . S
H770 O796 0.856 . S
H771 O799 0.854 . S
H772 C807 0.930 . S
H773 C808 0.930 . S
H774 C810 0.930 . S
H775 C811 0.930 . S
H776 C813 0.931 . S
H777 C814 0.930 . S
H778 C816 0.930 . S
H779 C817 0.929 . S
H780 C819 0.930 . S
H781 C820 0.931 . S
H782 C822 0.930 . S
H783 C823 0.929 . S
H784 C825 0.931 . S
H785 C826 0.930 . S
H786 C828 0.930 . S
H787 C829 0.932 . S
H788 C831 0.930 . S
H789 C832 0.929 . S
H790 C834 0.931 . S
H791 C835 0.930 . S
H792 C837 0.929 . S
H793 C838 0.931 . S
H794 C840 0.930 . S
H795 C841 0.929 . S
O796 H770 0.856 . S
O796 C842 1.300 . S
O797 C842 1.209 . S
O798 C843 1.199 . S
O799 H771 0.854 . S
O799 C843 1.297 . S
C800 C801 1.404 . S
C800 C805 1.397 . S
C800 C806 1.492 . S
C801 C800 1.404 . S
C801 C802 1.396 . S
C801 C812 1.492 . S
C802 C801 1.396 . S
C802 C803 1.397 . S
C802 C818 1.509 . S
C803 C802 1.397 . S
C803 C804 1.412 . S
C803 C824 1.485 . S
C804 C803 1.412 . S
C804 C805 1.388 . S
C804 C830 1.490 . S
C805 C800 1.397 . S
C805 C804 1.388 . S
C805 C836 1.519 . S
C806 C800 1.492 . S
C806 C807 1.363 . S
C806 C811 1.390 . S
C807 H772 0.930 . S
C807 C806 1.363 . S
C807 C808 1.372 . S
C808 H773 0.930 . S
C808 C807 1.372 . S
C808 C809 1.383 . S
C809 C808 1.383 . S
C809 C810 1.395 . S
C810 H774 0.930 . S
C810 C809 1.395 . S
C810 C811 1.362 . S
C811 H775 0.930 . S
C811 C806 1.390 . S
C811 C810 1.362 . S
C812 C801 1.492 . S
C812 C813 1.377 . S
C812 C817 1.397 . S
C813 H776 0.931 . S
C813 C812 1.377 . S
C813 C814 1.376 . S
C814 H777 0.930 . S
C814 C813 1.376 . S
C814 C815 1.376 . S
C815 C814 1.376 . S
C815 C816 1.378 . S
C815 C842 1.486 . S
C816 H778 0.930 . S
C816 C815 1.378 . S
C816 C817 1.376 . S
C817 H779 0.929 . S
C817 C812 1.397 . S
C817 C816 1.376 . S
C818 C802 1.509 . S
C818 C819 1.391 . S
C818 C823 1.386 . S
C819 H780 0.930 . S
C819 C818 1.391 . S
C819 C820 1.375 . S
C820 H781 0.931 . S
C820 C819 1.375 . S
C820 C821 1.375 . S
C821 C820 1.375 . S
C821 C822 1.361 . S
C822 H782 0.930 . S
C822 C821 1.361 . S
C822 C823 1.399 . S
C823 H783 0.929 . S
C823 C818 1.386 . S
C823 C822 1.399 . S
C824 C803 1.485 . S
C824 C825 1.394 . S
C824 C829 1.360 . S
C825 H784 0.931 . S
C825 C824 1.394 . S
C825 C826 1.372 . S
C826 H785 0.930 . S
C826 C825 1.372 . S
C826 C827 1.397 . S
C827 C826 1.397 . S
C827 C828 1.390 . S
C827 C843 1.476 . S
C828 H786 0.930 . S
C828 C827 1.390 . S
C828 C829 1.366 . S
C829 H787 0.932 . S
C829 C824 1.360 . S
C829 C828 1.366 . S
C830 C804 1.490 . S
C830 C831 1.380 . S
C830 C835 1.386 . S
C831 H788 0.930 . S
C831 C830 1.380 . S
C831 C832 1.381 . S
C832 H789 0.929 . S
C832 C831 1.381 . S
C832 C833 1.371 . S
C833 C832 1.371 . S
C833 C834 1.380 . S
C834 H790 0.931 . S
C834 C833 1.380 . S
C834 C835 1.387 . S
C835 H791 0.930 . S
C835 C830 1.386 . S
C835 C834 1.387 . S
C836 C805 1.519 . S
C836 C837 1.377 . S
C836 C841 1.361 . S
C837 H792 0.929 . S
C837 C836 1.377 . S
C837 C838 1.386 . S
C838 H793 0.931 . S
C838 C837 1.386 . S
C838 C839 1.363 . S
C839 C838 1.363 . S
C839 C840 1.385 . S
C840 H794 0.930 . S
C840 C839 1.385 . S
C840 C841 1.396 . S
C841 H795 0.929 . S
C841 C836 1.361 . S
C841 C840 1.396 . S
C842 O796 1.300 . S
C842 O797 1.209 . S
C842 C815 1.486 . S
C843 O798 1.199 . S
C843 O799 1.297 . S
C843 C827 1.476 . S
H844 O870 0.856 . S
H845 O873 0.854 . S
H846 C881 0.930 . S
H847 C882 0.930 . S
H848 C884 0.930 . S
H849 C885 0.930 . S
H850 C887 0.931 . S
H851 C888 0.930 . S
H852 C890 0.930 . S
H853 C891 0.929 . S
H854 C893 0.930 . S
H855 C894 0.931 . S
H856 C896 0.930 . S
H857 C897 0.929 . S
H858 C899 0.931 . S
H859 C900 0.930 . S
H860 C902 0.930 . S
H861 C903 0.932 . S
H862 C905 0.930 . S
H863 C906 0.929 . S
H864 C908 0.931 . S
H865 C909 0.930 . S
H866 C911 0.929 . S
H867 C912 0.931 . S
H868 C914 0.930 . S
H869 C915 0.929 . S
O870 H844 0.856 . S
O870 C916 1.300 . S
O871 C916 1.209 . S
O872 C917 1.199 . S
O873 H845 0.854 . S
O873 C917 1.297 . S
C874 C875 1.404 . S
C874 C879 1.397 . S
C874 C880 1.492 . S
C875 C874 1.404 . S
C875 C876 1.396 . S
C875 C886 1.492 . S
C876 C875 1.396 . S
C876 C877 1.397 . S
C876 C892 1.509 . S
C877 C876 1.397 . S
C877 C878 1.412 . S
C877 C898 1.485 . S
C878 C877 1.412 . S
C878 C879 1.388 . S
C878 C904 1.490 . S
C879 C874 1.397 . S
C879 C878 1.388 . S
C879 C910 1.519 . S
C880 C874 1.492 . S
C880 C881 1.363 . S
C880 C885 1.390 . S
C881 H846 0.930 . S
C881 C880 1.363 . S
C881 C882 1.372 . S
C882 H847 0.930 . S
C882 C881 1.372 . S
C882 C883 1.383 . S
C883 C882 1.383 . S
C883 C884 1.395 . S
C884 H848 0.930 . S
C884 C883 1.395 . S
C884 C885 1.362 . S
C885 H849 0.930 . S
C885 C880 1.390 . S
C885 C884 1.362 . S
C886 C875 1.492 . S
C886 C887 1.377 . S
C886 C891 1.397 . S
C887 H850 0.931 . S
C887 C886 1.377 . S
C887 C888 1.376 . S
C888 H851 0.930 . S
C888 C887 1.376 . S
C888 C889 1.376 . S
C889 C888 1.376 . S
C889 C890 1.378 . S
C889 C916 1.486 . S
C890 H852 0.930 . S
C890 C889 1.378 . S
C890 C891 1.376 . S
C891 H853 0.929 . S
C891 C886 1.397 . S
C891 C890 1.376 . S
C892 C876 1.509 . S
C892 C893 1.391 . S
C892 C897 1.386 . S
C893 H854 0.930 . S
C893 C892 1.391 . S
C893 C894 1.375 . S
C894 H855 0.931 . S
C894 C893 1.375 . S
C894 C895 1.375 . S
C895 C894 1.375 . S
C895 C896 1.361 . S
C896 H856 0.930 . S
C896 C895 1.361 . S
C896 C897 1.399 . S
C897 H857 0.929 . S
C897 C892 1.386 . S
C897 C896 1.399 . S
C898 C877 1.485 . S
C898 C899 1.394 . S
C898 C903 1.360 . S
C899 H858 0.931 . S
C899 C898 1.394 . S
C899 C900 1.372 . S
C900 H859 0.930 . S
C900 C899 1.372 . S
C900 C901 1.397 . S
C901 C900 1.397 . S
C901 C902 1.390 . S
C901 C917 1.476 1_655 S
C902 H860 0.930 . S
C902 C901 1.390 . S
C902 C903 1.366 . S
C903 H861 0.932 . S
C903 C898 1.360 . S
C903 C902 1.366 . S
C904 C878 1.490 . S
C904 C905 1.380 . S
C904 C909 1.386 . S
C905 H862 0.930 . S
C905 C904 1.380 . S
C905 C906 1.381 . S
C906 H863 0.929 . S
C906 C905 1.381 . S
C906 C907 1.371 . S
C907 C906 1.371 . S
C907 C908 1.380 . S
C908 H864 0.931 . S
C908 C907 1.380 . S
C908 C909 1.387 . S
C909 H865 0.930 . S
C909 C904 1.386 . S
C909 C908 1.387 . S
C910 C879 1.519 . S
C910 C911 1.377 . S
C910 C915 1.361 . S
C911 H866 0.929 . S
C911 C910 1.377 . S
C911 C912 1.386 . S
C912 H867 0.931 . S
C912 C911 1.386 . S
C912 C913 1.363 . S
C913 C912 1.363 . S
C913 C914 1.385 . S
C914 H868 0.930 . S
C914 C913 1.385 . S
C914 C915 1.396 . S
C915 H869 0.929 . S
C915 C910 1.361 . S
C915 C914 1.396 . S
C916 O870 1.300 . S
C916 O871 1.209 . S
C916 C889 1.486 . S
C917 O872 1.199 . S
C917 O873 1.297 . S
C917 C901 1.476 1_455 S
H918 O944 0.856 . S
H919 O947 0.854 . S
H920 C955 0.930 . S
H921 C956 0.930 . S
H922 C958 0.930 . S
H923 C959 0.930 . S
H924 C961 0.919 1_655 S
H925 C962 0.930 1_655 S
H926 C964 0.930 . S
H927 C965 0.929 . S
H928 C967 0.930 . S
H929 C968 0.931 1_655 S
H930 C970 0.930 . S
H931 C971 0.929 . S
H932 C973 0.931 . S
H933 C974 0.930 . S
H934 C976 0.930 . S
H935 C977 0.932 . S
H936 C979 0.930 . S
H937 C980 0.929 . S
H938 C982 0.931 . S
H939 C983 0.930 . S
H940 C985 0.929 . S
H941 C986 0.931 . S
H942 C988 0.930 . S
H943 C989 0.929 . S
O944 H918 0.856 . S
O944 C990 1.300 . S
O945 C990 1.209 . S
O946 C991 1.199 1_655 S
O947 H919 0.854 . S
O947 C991 1.297 . S
C948 C949 1.404 . S
C948 C953 1.397 . S
C948 C954 1.492 . S
C949 C948 1.404 . S
C949 C950 1.396 . S
C949 C960 1.492 . S
C950 C949 1.396 . S
C950 C951 1.397 . S
C950 C966 1.509 . S
C951 C950 1.397 . S
C951 C952 1.414 . S
C951 C972 1.485 . S
C952 C951 1.414 . S
C952 C953 1.387 . S
C952 C978 1.490 1_455 S
C953 C948 1.397 . S
C953 C952 1.387 . S
C953 C984 1.519 1_455 S
C954 C948 1.492 . S
C954 C955 1.363 1_455 S
C954 C959 1.390 . S
C955 H920 0.930 . S
C955 C954 1.363 1_655 S
C955 C956 1.372 . S
C956 H921 0.930 . S
C956 C955 1.372 . S
C956 C957 1.391 . S
C957 C956 1.391 . S
C957 C958 1.372 1_655 S
C958 H922 0.930 . S
C958 C957 1.372 1_455 S
C958 C959 1.362 . S
C959 H923 0.930 . S
C959 C954 1.390 . S
C959 C958 1.362 . S
C960 C949 1.492 . S
C960 C961 1.391 . S
C960 C965 1.397 . S
C961 H924 0.919 1_455 S
C961 C960 1.391 . S
C961 C962 1.374 . S
C962 H925 0.930 1_455 S
C962 C961 1.374 . S
C962 C963 1.376 . S
C963 C962 1.376 . S
C963 C964 1.378 . S
C963 C990 1.486 . S
C964 H926 0.930 . S
C964 C963 1.378 . S
C964 C965 1.376 . S
C965 H927 0.929 . S
C965 C960 1.397 . S
C965 C964 1.376 . S
C966 C950 1.509 . S
C966 C967 1.391 1_455 S
C966 C971 1.386 . S
C967 H928 0.930 . S
C967 C966 1.391 1_655 S
C967 C968 1.375 1_655 S
C968 H929 0.931 1_455 S
C968 C967 1.375 1_455 S
C968 C969 1.375 . S
C969 C968 1.375 . S
C969 C970 1.361 . S
C970 H930 0.930 . S
C970 C969 1.361 . S
C970 C971 1.399 . S
C971 H931 0.929 . S
C971 C966 1.386 . S
C971 C970 1.399 . S
C972 C951 1.485 . S
C972 C973 1.394 1_455 S
C972 C977 1.360 . S
C973 H932 0.931 . S
C973 C972 1.394 1_655 S
C973 C974 1.372 . S
C974 H933 0.930 . S
C974 C973 1.372 . S
C974 C975 1.397 1_655 S
C975 C974 1.397 1_455 S
C975 C976 1.390 . S
C975 C991 1.476 . S
C976 H934 0.930 . S
C976 C975 1.390 . S
C976 C977 1.366 . S
C977 H935 0.932 . S
C977 C972 1.360 . S
C977 C976 1.366 . S
C978 C952 1.490 1_655 S
C978 C979 1.380 . S
C978 C983 1.386 1_655 S
C979 H936 0.930 . S
C979 C978 1.380 . S
C979 C980 1.381 . S
C980 H937 0.929 . S
C980 C979 1.381 . S
C980 C981 1.371 . S
C981 C980 1.371 . S
C981 C982 1.380 1_655 S
C982 H938 0.931 . S
C982 C981 1.380 1_455 S
C982 C983 1.387 . S
C983 H939 0.930 . S
C983 C978 1.386 1_455 S
C983 C982 1.387 . S
C984 C953 1.519 1_655 S
C984 C985 1.377 . S
C984 C989 1.361 1_655 S
C985 H940 0.929 . S
C985 C984 1.377 . S
C985 C986 1.386 . S
C986 H941 0.931 . S
C986 C985 1.386 . S
C986 C987 1.363 . S
C987 C986 1.363 . S
C987 C988 1.385 1_655 S
C988 H942 0.930 . S
C988 C987 1.385 1_455 S
C988 C989 1.396 . S
C989 H943 0.929 . S
C989 C984 1.361 1_455 S
C989 C988 1.396 . S
C990 O944 1.300 . S
C990 O945 1.209 . S
C990 C963 1.486 . S
C991 O946 1.199 1_455 S
C991 O947 1.297 . S
C991 C975 1.476 . S
H992 O1018 0.856 . S
H993 O1021 0.854 . S
H994 C1029 0.930 . S
H995 C1030 0.930 . S
H996 C1032 0.930 . S
H997 C1033 0.930 . S
H998 C1035 0.931 . S
H999 C1036 0.930 . S
H1000 C1038 0.930 . S
H1001 C1039 0.929 . S
H1002 C1041 0.930 . S
H1003 C1042 0.931 . S
H1004 C1044 0.930 . S
H1005 C1045 0.929 . S
H1006 C1047 0.931 . S
H1007 C1048 0.930 . S
H1008 C1050 0.930 . S
H1009 C1051 0.932 . S
H1010 C1053 0.930 . S
H1011 C1054 0.929 . S
H1012 C1056 0.931 . S
H1013 C1057 0.930 . S
H1014 C1059 0.929 . S
H1015 C1060 0.931 . S
H1016 C1062 0.930 . S
H1017 C1063 0.929 . S
O1018 H992 0.856 . S
O1018 C1064 1.300 . S
O1019 C1064 1.209 . S
O1020 C1065 1.199 . S
O1021 H993 0.854 . S
O1021 C1065 1.297 . S
C1022 C1023 1.404 . S
C1022 C1027 1.397 . S
C1022 C1028 1.492 . S
C1023 C1022 1.404 . S
C1023 C1024 1.396 . S
C1023 C1034 1.492 . S
C1024 C1023 1.396 . S
C1024 C1025 1.397 . S
C1024 C1040 1.509 . S
C1025 C1024 1.397 . S
C1025 C1026 1.412 . S
C1025 C1046 1.485 . S
C1026 C1025 1.412 . S
C1026 C1027 1.388 . S
C1026 C1052 1.490 . S
C1027 C1022 1.397 . S
C1027 C1026 1.388 . S
C1027 C1058 1.519 . S
C1028 C1022 1.492 . S
C1028 C1029 1.363 . S
C1028 C1033 1.390 . S
C1029 H994 0.930 . S
C1029 C1028 1.363 . S
C1029 C1030 1.372 . S
C1030 H995 0.930 . S
C1030 C1029 1.372 . S
C1030 C1031 1.383 . S
C1031 C1030 1.383 . S
C1031 C1032 1.395 . S
C1032 H996 0.930 . S
C1032 C1031 1.395 . S
C1032 C1033 1.362 . S
C1033 H997 0.930 . S
C1033 C1028 1.390 . S
C1033 C1032 1.362 . S
C1034 C1023 1.492 . S
C1034 C1035 1.377 . S
C1034 C1039 1.397 . S
C1035 H998 0.931 . S
C1035 C1034 1.377 . S
C1035 C1036 1.376 . S
C1036 H999 0.930 . S
C1036 C1035 1.376 . S
C1036 C1037 1.376 . S
C1037 C1036 1.376 . S
C1037 C1038 1.378 . S
C1037 C1064 1.486 . S
C1038 H1000 0.930 . S
C1038 C1037 1.378 . S
C1038 C1039 1.376 . S
C1039 H1001 0.929 . S
C1039 C1034 1.397 . S
C1039 C1038 1.376 . S
C1040 C1024 1.509 . S
C1040 C1041 1.391 . S
C1040 C1045 1.386 . S
C1041 H1002 0.930 . S
C1041 C1040 1.391 . S
C1041 C1042 1.375 . S
C1042 H1003 0.931 . S
C1042 C1041 1.375 . S
C1042 C1043 1.375 . S
C1043 C1042 1.375 . S
C1043 C1044 1.361 . S
C1044 H1004 0.930 . S
C1044 C1043 1.361 . S
C1044 C1045 1.399 . S
C1045 H1005 0.929 . S
C1045 C1040 1.386 . S
C1045 C1044 1.399 . S
C1046 C1025 1.485 . S
C1046 C1047 1.394 . S
C1046 C1051 1.360 . S
C1047 H1006 0.931 . S
C1047 C1046 1.394 . S
C1047 C1048 1.372 . S
C1048 H1007 0.930 . S
C1048 C1047 1.372 . S
C1048 C1049 1.397 . S
C1049 C1048 1.397 . S
C1049 C1050 1.390 . S
C1049 C1065 1.476 . S
C1050 H1008 0.930 . S
C1050 C1049 1.390 . S
C1050 C1051 1.366 . S
C1051 H1009 0.932 . S
C1051 C1046 1.360 . S
C1051 C1050 1.366 . S
C1052 C1026 1.490 . S
C1052 C1053 1.380 . S
C1052 C1057 1.386 . S
C1053 H1010 0.930 . S
C1053 C1052 1.380 . S
C1053 C1054 1.381 . S
C1054 H1011 0.929 . S
C1054 C1053 1.381 . S
C1054 C1055 1.371 . S
C1055 C1054 1.371 . S
C1055 C1056 1.380 . S
C1056 H1012 0.931 . S
C1056 C1055 1.380 . S
C1056 C1057 1.387 . S
C1057 H1013 0.930 . S
C1057 C1052 1.386 . S
C1057 C1056 1.387 . S
C1058 C1027 1.519 . S
C1058 C1059 1.377 . S
C1058 C1063 1.361 . S
C1059 H1014 0.929 . S
C1059 C1058 1.377 . S
C1059 C1060 1.386 . S
C1060 H1015 0.931 . S
C1060 C1059 1.386 . S
C1060 C1061 1.363 . S
C1061 C1060 1.363 . S
C1061 C1062 1.385 . S
C1062 H1016 0.930 . S
C1062 C1061 1.385 . S
C1062 C1063 1.396 . S
C1063 H1017 0.929 . S
C1063 C1058 1.361 . S
C1063 C1062 1.396 . S
C1064 O1018 1.300 . S
C1064 O1019 1.209 . S
C1064 C1037 1.486 . S
C1065 O1020 1.199 . S
C1065 O1021 1.297 . S
C1065 C1049 1.476 . S
H1066 O1092 0.856 . S
H1067 O1095 0.854 . S
H1068 C1103 0.930 . S
H1069 C1104 0.930 . S
H1070 C1106 0.930 . S
H1071 C1107 0.930 . S
H1072 C1109 0.931 . S
H1073 C1110 0.930 1_545 S
H1074 C1112 0.930 . S
H1075 C1113 0.929 . S
H1076 C1115 0.930 . S
H1077 C1116 0.962 . S
H1078 C1118 0.930 . S
H1079 C1119 0.929 . S
H1080 C1121 0.931 . S
H1081 C1122 0.930 . S
H1082 C1124 0.930 . S
H1083 C1125 0.932 . S
H1084 C1127 0.930 . S
H1085 C1128 0.929 . S
H1086 C1130 0.931 . S
H1087 C1131 0.930 . S
H1088 C1133 0.929 . S
H1089 C1134 0.931 . S
H1090 C1136 0.930 . S
H1091 C1137 0.929 . S
O1092 H1066 0.856 . S
O1092 C1138 1.300 . S
O1093 C1138 1.209 . S
O1094 C1139 1.199 1_545 S
O1095 H1067 0.854 . S
O1095 C1139 1.297 . S
C1096 C1097 1.404 . S
C1096 C1101 1.397 . S
C1096 C1102 1.492 . S
C1097 C1096 1.404 . S
C1097 C1098 1.396 . S
C1097 C1108 1.492 . S
C1098 C1097 1.396 . S
C1098 C1099 1.397 . S
C1098 C1114 1.509 . S
C1099 C1098 1.397 . S
C1099 C1100 1.411 . S
C1099 C1120 1.485 . S
C1100 C1099 1.411 . S
C1100 C1101 1.392 . S
C1100 C1126 1.488 1_565 S
C1101 C1096 1.397 . S
C1101 C1100 1.392 . S
C1101 C1132 1.524 1_565 S
C1102 C1096 1.492 . S
C1102 C1103 1.363 1_565 S
C1102 C1107 1.390 . S
C1103 H1068 0.930 . S
C1103 C1102 1.363 1_545 S
C1103 C1104 1.372 . S
C1104 H1069 0.930 . S
C1104 C1103 1.372 . S
C1104 C1105 1.383 . S
C1105 C1104 1.383 . S
C1105 C1106 1.395 1_545 S
C1106 H1070 0.930 . S
C1106 C1105 1.395 1_565 S
C1106 C1107 1.362 . S
C1107 H1071 0.930 . S
C1107 C1102 1.390 . S
C1107 C1106 1.362 . S
C1108 C1097 1.492 . S
C1108 C1109 1.377 1_565 S
C1108 C1113 1.397 . S
C1109 H1072 0.931 . S
C1109 C1108 1.377 1_545 S
C1109 C1110 1.376 1_545 S
C1110 H1073 0.930 1_565 S
C1110 C1109 1.376 1_565 S
C1110 C1111 1.376 . S
C1111 C1110 1.376 . S
C1111 C1112 1.378 . S
C1111 C1138 1.486 . S
C1112 H1074 0.930 . S
C1112 C1111 1.378 . S
C1112 C1113 1.376 . S
C1113 H1075 0.929 . S
C1113 C1108 1.397 . S
C1113 C1112 1.376 . S
C1114 C1098 1.509 . S
C1114 C1115 1.391 1_565 S
C1114 C1119 1.386 . S
C1115 H1076 0.930 . S
C1115 C1114 1.391 1_545 S
C1115 C1116 1.371 . S
C1116 H1077 0.962 . S
C1116 C1115 1.371 . S
C1116 C1117 1.349 1_545 S
C1117 C1116 1.349 1_565 S
C1117 C1118 1.361 . S
C1118 H1078 0.930 . S
C1118 C1117 1.361 . S
C1118 C1119 1.399 . S
C1119 H1079 0.929 . S
C1119 C1114 1.386 . S
C1119 C1118 1.399 . S
C1120 C1099 1.485 . S
C1120 C1121 1.394 1_565 S
C1120 C1125 1.360 . S
C1121 H1080 0.931 . S
C1121 C1120 1.394 1_545 S
C1121 C1122 1.372 . S
C1122 H1081 0.930 . S
C1122 C1121 1.372 . S
C1122 C1123 1.397 1_545 S
C1123 C1122 1.397 1_565 S
C1123 C1124 1.390 . S
C1123 C1139 1.476 . S
C1124 H1082 0.930 . S
C1124 C1123 1.390 . S
C1124 C1125 1.366 . S
C1125 H1083 0.932 . S
C1125 C1120 1.360 . S
C1125 C1124 1.366 . S
C1126 C1100 1.488 1_545 S
C1126 C1127 1.380 . S
C1126 C1131 1.386 1_545 S
C1127 H1084 0.930 . S
C1127 C1126 1.380 . S
C1127 C1128 1.381 . S
C1128 H1085 0.929 . S
C1128 C1127 1.381 . S
C1128 C1129 1.371 . S
C1129 C1128 1.371 . S
C1129 C1130 1.380 1_545 S
C1130 H1086 0.931 . S
C1130 C1129 1.380 1_565 S
C1130 C1131 1.387 . S
C1131 H1087 0.930 . S
C1131 C1126 1.386 1_565 S
C1131 C1130 1.387 . S
C1132 C1101 1.524 1_545 S
C1132 C1133 1.385 . S
C1132 C1137 1.347 1_545 S
C1133 H1088 0.929 . S
C1133 C1132 1.385 . S
C1133 C1134 1.386 . S
C1134 H1089 0.931 . S
C1134 C1133 1.386 . S
C1134 C1135 1.352 1_545 S
C1135 C1134 1.352 1_565 S
C1135 C1136 1.391 . S
C1136 H1090 0.930 . S
C1136 C1135 1.391 . S
C1136 C1137 1.396 . S
C1137 H1091 0.929 . S
C1137 C1132 1.347 1_565 S
C1137 C1136 1.396 . S
C1138 O1092 1.300 . S
C1138 O1093 1.209 . S
C1138 C1111 1.486 . S
C1139 O1094 1.199 1_565 S
C1139 O1095 1.297 . S
C1139 C1123 1.476 . S
H1140 O1166 0.856 . S
H1141 O1169 0.854 . S
H1142 C1177 0.930 . S
H1143 C1178 0.930 . S
H1144 C1180 0.930 . S
H1145 C1181 0.930 . S
H1146 C1183 0.931 . S
H1147 C1184 0.930 . S
H1148 C1186 0.930 . S
H1149 C1187 0.929 . S
H1150 C1189 0.930 . S
H1151 C1190 0.931 . S
H1152 C1192 0.930 . S
H1153 C1193 0.929 . S
H1154 C1195 0.931 . S
H1155 C1196 0.930 . S
H1156 C1198 0.930 . S
H1157 C1199 0.932 . S
H1158 C1201 0.930 . S
H1159 C1202 0.929 . S
H1160 C1204 0.931 . S
H1161 C1205 0.930 . S
H1162 C1207 0.929 . S
H1163 C1208 0.931 . S
H1164 C1210 0.930 . S
H1165 C1211 0.929 . S
O1166 H1140 0.856 . S
O1166 C1212 1.300 . S
O1167 C1212 1.209 1_565 S
O1168 C1213 1.199 1_545 S
O1169 H1141 0.854 . S
O1169 C1213 1.297 . S
C1170 C1171 1.404 . S
C1170 C1175 1.397 1_545 S
C1170 C1176 1.492 . S
C1171 C1170 1.404 . S
C1171 C1172 1.396 . S
C1171 C1182 1.492 . S
C1172 C1171 1.396 . S
C1172 C1173 1.398 . S
C1172 C1188 1.509 . S
C1173 C1172 1.398 . S
C1173 C1174 1.423 1_545 S
C1173 C1194 1.484 1_545 S
C1174 C1173 1.423 1_565 S
C1174 C1175 1.370 . S
C1174 C1200 1.499 . S
C1175 C1170 1.397 1_565 S
C1175 C1174 1.370 . S
C1175 C1206 1.518 . S
C1176 C1170 1.492 . S
C1176 C1177 1.363 . S
C1176 C1181 1.390 1_545 S
C1177 H1142 0.930 . S
C1177 C1176 1.363 . S
C1177 C1178 1.372 . S
C1178 H1143 0.930 . S
C1178 C1177 1.372 . S
C1178 C1179 1.383 . S
C1179 C1178 1.383 . S
C1179 C1180 1.395 1_545 S
C1180 H1144 0.930 . S
C1180 C1179 1.395 1_565 S
C1180 C1181 1.362 . S
C1181 H1145 0.930 . S
C1181 C1176 1.390 1_565 S
C1181 C1180 1.362 . S
C1182 C1171 1.492 . S
C1182 C1183 1.377 . S
C1182 C1187 1.397 1_545 S
C1183 H1146 0.931 . S
C1183 C1182 1.377 . S
C1183 C1184 1.376 . S
C1184 H1147 0.930 . S
C1184 C1183 1.376 . S
C1184 C1185 1.376 . S
C1185 C1184 1.376 . S
C1185 C1186 1.378 1_545 S
C1185 C1212 1.486 . S
C1186 H1148 0.930 . S
C1186 C1185 1.378 1_565 S
C1186 C1187 1.376 . S
C1187 H1149 0.929 . S
C1187 C1182 1.397 1_565 S
C1187 C1186 1.376 . S
C1188 C1172 1.509 . S
C1188 C1189 1.391 . S
C1188 C1193 1.386 1_545 S
C1189 H1150 0.930 . S
C1189 C1188 1.391 . S
C1189 C1190 1.375 . S
C1190 H1151 0.931 . S
C1190 C1189 1.375 . S
C1190 C1191 1.375 . S
C1191 C1190 1.375 . S
C1191 C1192 1.361 1_545 S
C1192 H1152 0.930 . S
C1192 C1191 1.361 1_565 S
C1192 C1193 1.399 . S
C1193 H1153 0.929 . S
C1193 C1188 1.386 1_565 S
C1193 C1192 1.399 . S
C1194 C1173 1.484 1_565 S
C1194 C1195 1.394 1_565 S
C1194 C1199 1.360 . S
C1195 H1154 0.931 . S
C1195 C1194 1.394 1_545 S
C1195 C1196 1.372 . S
C1196 H1155 0.930 . S
C1196 C1195 1.372 . S
C1196 C1197 1.397 1_545 S
C1197 C1196 1.397 1_565 S
C1197 C1198 1.390 . S
C1197 C1213 1.476 . S
C1198 H1156 0.930 . S
C1198 C1197 1.390 . S
C1198 C1199 1.366 . S
C1199 H1157 0.932 . S
C1199 C1194 1.360 . S
C1199 C1198 1.366 . S
C1200 C1174 1.499 . S
C1200 C1201 1.380 1_565 S
C1200 C1205 1.386 . S
C1201 H1158 0.930 . S
C1201 C1200 1.380 1_545 S
C1201 C1202 1.381 . S
C1202 H1159 0.929 . S
C1202 C1201 1.381 . S
C1202 C1203 1.371 1_545 S
C1203 C1202 1.371 1_565 S
C1203 C1204 1.380 . S
C1204 H1160 0.931 . S
C1204 C1203 1.380 . S
C1204 C1205 1.387 . S
C1205 H1161 0.930 . S
C1205 C1200 1.386 . S
C1205 C1204 1.387 . S
C1206 C1175 1.518 . S
C1206 C1207 1.377 1_565 S
C1206 C1211 1.361 . S
C1207 H1162 0.929 . S
C1207 C1206 1.377 1_545 S
C1207 C1208 1.386 . S
C1208 H1163 0.931 . S
C1208 C1207 1.386 . S
C1208 C1209 1.363 1_545 S
C1209 C1208 1.363 1_565 S
C1209 C1210 1.385 . S
C1210 H1164 0.930 . S
C1210 C1209 1.385 . S
C1210 C1211 1.396 . S
C1211 H1165 0.929 . S
C1211 C1206 1.361 . S
C1211 C1210 1.396 . S
C1212 O1166 1.300 . S
C1212 O1167 1.209 1_545 S
C1212 C1185 1.486 . S
C1213 O1168 1.199 1_565 S
C1213 O1169 1.297 . S
C1213 C1197 1.476 . S
H1214 O1240 0.856 . S
H1215 O1243 0.854 . S
H1216 C1251 0.930 . S
H1217 C1252 0.930 . S
H1218 C1254 0.930 . S
H1219 C1255 0.930 . S
H1220 C1257 0.931 . S
H1221 C1258 0.930 . S
H1222 C1260 0.930 . S
H1223 C1261 0.929 . S
H1224 C1263 0.930 . S
H1225 C1264 0.931 . S
H1226 C1266 0.930 . S
H1227 C1267 0.929 . S
H1228 C1269 0.931 . S
H1229 C1270 0.930 . S
H1230 C1272 0.930 . S
H1231 C1273 0.932 . S
H1232 C1275 0.930 . S
H1233 C1276 0.929 1_554 S
H1234 C1278 0.931 1_554 S
H1235 C1279 0.930 . S
H1236 C1281 0.929 . S
H1237 C1282 0.931 . S
H1238 C1284 0.930 . S
H1239 C1285 0.929 . S
O1240 H1214 0.856 . S
O1240 C1286 1.300 . S
O1241 C1286 1.209 . S
O1242 C1287 1.199 1_655 S
O1243 H1215 0.854 . S
O1243 C1287 1.297 . S
C1244 C1245 1.404 . S
C1244 C1249 1.397 . S
C1244 C1250 1.492 . S
C1245 C1244 1.404 . S
C1245 C1246 1.396 . S
C1245 C1256 1.492 . S
C1246 C1245 1.396 . S
C1246 C1247 1.395 . S
C1246 C1262 1.509 . S
C1247 C1246 1.395 . S
C1247 C1248 1.404 1_655 S
C1247 C1268 1.495 1_655 S
C1248 C1247 1.404 1_455 S
C1248 C1249 1.386 1_455 S
C1248 C1274 1.490 . S
C1249 C1244 1.397 . S
C1249 C1248 1.386 1_655 S
C1249 C1280 1.521 1_655 S
C1250 C1244 1.492 . S
C1250 C1251 1.363 . S
C1250 C1255 1.390 1_655 S
C1251 H1216 0.930 . S
C1251 C1250 1.363 . S
C1251 C1252 1.372 . S
C1252 H1217 0.930 . S
C1252 C1251 1.372 . S
C1252 C1253 1.383 . S
C1253 C1252 1.383 . S
C1253 C1254 1.395 1_655 S
C1254 H1218 0.930 . S
C1254 C1253 1.395 1_455 S
C1254 C1255 1.362 . S
C1255 H1219 0.930 . S
C1255 C1250 1.390 1_455 S
C1255 C1254 1.362 . S
C1256 C1245 1.492 . S
C1256 C1257 1.377 . S
C1256 C1261 1.397 1_655 S
C1257 H1220 0.931 . S
C1257 C1256 1.377 . S
C1257 C1258 1.376 . S
C1258 H1221 0.930 . S
C1258 C1257 1.376 . S
C1258 C1259 1.376 . S
C1259 C1258 1.376 . S
C1259 C1260 1.378 1_655 S
C1259 C1286 1.486 . S
C1260 H1222 0.930 . S
C1260 C1259 1.378 1_455 S
C1260 C1261 1.376 . S
C1261 H1223 0.929 . S
C1261 C1256 1.397 1_455 S
C1261 C1260 1.376 . S
C1262 C1246 1.509 . S
C1262 C1263 1.391 . S
C1262 C1267 1.386 1_655 S
C1263 H1224 0.930 . S
C1263 C1262 1.391 . S
C1263 C1264 1.375 . S
C1264 H1225 0.931 . S
C1264 C1263 1.375 . S
C1264 C1265 1.375 . S
C1265 C1264 1.375 . S
C1265 C1266 1.361 1_655 S
C1266 H1226 0.930 . S
C1266 C1265 1.361 1_455 S
C1266 C1267 1.399 . S
C1267 H1227 0.929 . S
C1267 C1262 1.386 1_455 S
C1267 C1266 1.399 . S
C1268 C1247 1.495 1_455 S
C1268 C1269 1.394 1_455 S
C1268 C1273 1.360 . S
C1269 H1228 0.931 . S
C1269 C1268 1.394 1_655 S
C1269 C1270 1.372 . S
C1270 H1229 0.930 . S
C1270 C1269 1.372 . S
C1270 C1271 1.397 1_655 S
C1271 C1270 1.397 1_455 S
C1271 C1272 1.390 . S
C1271 C1287 1.476 . S
C1272 H1230 0.930 . S
C1272 C1271 1.390 . S
C1272 C1273 1.366 . S
C1273 H1231 0.932 . S
C1273 C1268 1.360 . S
C1273 C1272 1.366 . S
C1274 C1248 1.490 . S
C1274 C1275 1.380 1_455 S
C1274 C1279 1.386 . S
C1275 H1232 0.930 . S
C1275 C1274 1.380 1_655 S
C1275 C1276 1.381 . S
C1276 H1233 0.929 1_556 S
C1276 C1275 1.381 . S
C1276 C1277 1.371 1_656 S
C1277 C1276 1.371 1_454 S
C1277 C1278 1.380 1_554 S
C1278 H1234 0.931 1_556 S
C1278 C1277 1.380 1_556 S
C1278 C1279 1.387 . S
C1279 H1235 0.930 . S
C1279 C1274 1.386 . S
C1279 C1278 1.387 . S
C1280 C1249 1.521 1_455 S
C1280 C1281 1.377 1_455 S
C1280 C1285 1.361 . S
C1281 H1236 0.929 . S
C1281 C1280 1.377 1_655 S
C1281 C1282 1.386 . S
C1282 H1237 0.931 . S
C1282 C1281 1.386 . S
C1282 C1283 1.363 1_655 S
C1283 C1282 1.363 1_455 S
C1283 C1284 1.385 . S
C1284 H1238 0.930 . S
C1284 C1283 1.385 . S
C1284 C1285 1.396 . S
C1285 H1239 0.929 . S
C1285 C1280 1.361 . S
C1285 C1284 1.396 . S
C1286 O1240 1.300 . S
C1286 O1241 1.209 . S
C1286 C1259 1.486 . S
C1287 O1242 1.199 1_455 S
C1287 O1243 1.297 . S
C1287 C1271 1.476 . S
H1288 O1314 0.856 . S
H1289 O1317 0.854 . S
H1290 C1325 0.930 . S
H1291 C1326 0.930 . S
H1292 C1328 0.930 . S
H1293 C1329 0.930 . S
H1294 C1331 0.931 . S
H1295 C1332 0.930 . S
H1296 C1334 0.930 . S
H1297 C1335 0.929 . S
H1298 C1337 0.930 . S
H1299 C1338 0.931 . S
H1300 C1340 0.930 . S
H1301 C1341 0.929 . S
H1302 C1343 0.931 . S
H1303 C1344 0.930 . S
H1304 C1346 0.930 . S
H1305 C1347 0.932 . S
H1306 C1349 0.930 . S
H1307 C1350 0.929 . S
H1308 C1352 0.930 1_554 S
H1309 C1353 0.930 . S
H1310 C1355 0.929 . S
H1311 C1356 0.931 . S
H1312 C1358 0.930 . S
H1313 C1359 0.929 . S
O1314 H1288 0.856 . S
O1314 C1360 1.300 . S
O1315 C1360 1.209 . S
O1316 C1361 1.199 . S
O1317 H1289 0.854 . S
O1317 C1361 1.297 . S
C1318 C1319 1.404 . S
C1318 C1323 1.397 . S
C1318 C1324 1.492 . S
C1319 C1318 1.404 . S
C1319 C1320 1.396 . S
C1319 C1330 1.492 . S
C1320 C1319 1.396 . S
C1320 C1321 1.397 . S
C1320 C1336 1.509 . S
C1321 C1320 1.397 . S
C1321 C1322 1.412 . S
C1321 C1342 1.485 . S
C1322 C1321 1.412 . S
C1322 C1323 1.388 . S
C1322 C1348 1.490 . S
C1323 C1318 1.397 . S
C1323 C1322 1.388 . S
C1323 C1354 1.519 . S
C1324 C1318 1.492 . S
C1324 C1325 1.363 . S
C1324 C1329 1.390 . S
C1325 H1290 0.930 . S
C1325 C1324 1.363 . S
C1325 C1326 1.372 . S
C1326 H1291 0.930 . S
C1326 C1325 1.372 . S
C1326 C1327 1.383 . S
C1327 C1326 1.383 . S
C1327 C1328 1.395 . S
C1328 H1292 0.930 . S
C1328 C1327 1.395 . S
C1328 C1329 1.362 . S
C1329 H1293 0.930 . S
C1329 C1324 1.390 . S
C1329 C1328 1.362 . S
C1330 C1319 1.492 . S
C1330 C1331 1.377 . S
C1330 C1335 1.397 . S
C1331 H1294 0.931 . S
C1331 C1330 1.377 . S
C1331 C1332 1.376 . S
C1332 H1295 0.930 . S
C1332 C1331 1.376 . S
C1332 C1333 1.376 . S
C1333 C1332 1.376 . S
C1333 C1334 1.378 . S
C1333 C1360 1.486 . S
C1334 H1296 0.930 . S
C1334 C1333 1.378 . S
C1334 C1335 1.376 . S
C1335 H1297 0.929 . S
C1335 C1330 1.397 . S
C1335 C1334 1.376 . S
C1336 C1320 1.509 . S
C1336 C1337 1.391 . S
C1336 C1341 1.386 . S
C1337 H1298 0.930 . S
C1337 C1336 1.391 . S
C1337 C1338 1.375 . S
C1338 H1299 0.931 . S
C1338 C1337 1.375 . S
C1338 C1339 1.375 . S
C1339 C1338 1.375 . S
C1339 C1340 1.361 . S
C1340 H1300 0.930 . S
C1340 C1339 1.361 . S
C1340 C1341 1.399 . S
C1341 H1301 0.929 . S
C1341 C1336 1.386 . S
C1341 C1340 1.399 . S
C1342 C1321 1.485 . S
C1342 C1343 1.394 . S
C1342 C1347 1.360 . S
C1343 H1302 0.931 . S
C1343 C1342 1.394 . S
C1343 C1344 1.372 . S
C1344 H1303 0.930 . S
C1344 C1343 1.372 . S
C1344 C1345 1.397 . S
C1345 C1344 1.397 . S
C1345 C1346 1.390 . S
C1345 C1361 1.476 . S
C1346 H1304 0.930 . S
C1346 C1345 1.390 . S
C1346 C1347 1.366 . S
C1347 H1305 0.932 . S
C1347 C1342 1.360 . S
C1347 C1346 1.366 . S
C1348 C1322 1.490 . S
C1348 C1349 1.380 . S
C1348 C1353 1.386 . S
C1349 H1306 0.930 . S
C1349 C1348 1.380 . S
C1349 C1350 1.381 . S
C1350 H1307 0.929 . S
C1350 C1349 1.381 . S
C1350 C1351 1.371 . S
C1351 C1350 1.371 . S
C1351 C1352 1.380 . S
C1352 H1308 0.930 1_556 S
C1352 C1351 1.380 . S
C1352 C1353 1.387 . S
C1353 H1309 0.930 . S
C1353 C1348 1.386 . S
C1353 C1352 1.387 . S
C1354 C1323 1.519 . S
C1354 C1355 1.377 . S
C1354 C1359 1.361 . S
C1355 H1310 0.929 . S
C1355 C1354 1.377 . S
C1355 C1356 1.386 . S
C1356 H1311 0.931 . S
C1356 C1355 1.386 . S
C1356 C1357 1.363 . S
C1357 C1356 1.363 . S
C1357 C1358 1.385 . S
C1358 H1312 0.930 . S
C1358 C1357 1.385 . S
C1358 C1359 1.396 . S
C1359 H1313 0.929 . S
C1359 C1354 1.361 . S
C1359 C1358 1.396 . S
C1360 O1314 1.300 . S
C1360 O1315 1.209 . S
C1360 C1333 1.486 . S
C1361 O1316 1.199 . S
C1361 O1317 1.297 . S
C1361 C1345 1.476 . S
H1362 O1388 0.856 . S
H1363 O1391 0.854 . S
H1364 C1399 0.930 . S
H1365 C1400 0.930 . S
H1366 C1402 0.930 . S
H1367 C1403 0.930 . S
H1368 C1405 0.931 . S
H1369 C1406 0.930 . S
H1370 C1408 0.930 . S
H1371 C1409 0.929 . S
H1372 C1411 0.930 . S
H1373 C1412 0.931 . S
H1374 C1414 0.930 . S
H1375 C1415 0.929 . S
H1376 C1417 0.931 . S
H1377 C1418 0.930 . S
H1378 C1420 0.930 . S
H1379 C1421 0.932 . S
H1380 C1423 0.930 . S
H1381 C1424 0.929 . S
H1382 C1426 0.931 . S
H1383 C1427 0.930 . S
H1384 C1429 0.929 . S
H1385 C1430 0.931 . S
H1386 C1432 0.930 . S
H1387 C1433 0.929 . S
O1388 H1362 0.856 . S
O1388 C1434 1.300 . S
O1389 C1434 1.209 . S
O1390 C1435 1.199 . S
O1391 H1363 0.854 . S
O1391 C1435 1.297 . S
C1392 C1393 1.404 . S
C1392 C1397 1.397 . S
C1392 C1398 1.492 . S
C1393 C1392 1.404 . S
C1393 C1394 1.396 . S
C1393 C1404 1.492 . S
C1394 C1393 1.396 . S
C1394 C1395 1.397 . S
C1394 C1410 1.509 . S
C1395 C1394 1.397 . S
C1395 C1396 1.412 . S
C1395 C1416 1.485 . S
C1396 C1395 1.412 . S
C1396 C1397 1.388 . S
C1396 C1422 1.490 . S
C1397 C1392 1.397 . S
C1397 C1396 1.388 . S
C1397 C1428 1.519 . S
C1398 C1392 1.492 . S
C1398 C1399 1.363 . S
C1398 C1403 1.390 . S
C1399 H1364 0.930 . S
C1399 C1398 1.363 . S
C1399 C1400 1.372 . S
C1400 H1365 0.930 . S
C1400 C1399 1.372 . S
C1400 C1401 1.383 . S
C1401 C1400 1.383 . S
C1401 C1402 1.395 . S
C1402 H1366 0.930 . S
C1402 C1401 1.395 . S
C1402 C1403 1.362 . S
C1403 H1367 0.930 . S
C1403 C1398 1.390 . S
C1403 C1402 1.362 . S
C1404 C1393 1.492 . S
C1404 C1405 1.377 . S
C1404 C1409 1.397 . S
C1405 H1368 0.931 . S
C1405 C1404 1.377 . S
C1405 C1406 1.376 . S
C1406 H1369 0.930 . S
C1406 C1405 1.376 . S
C1406 C1407 1.376 . S
C1407 C1406 1.376 . S
C1407 C1408 1.378 . S
C1407 C1434 1.486 . S
C1408 H1370 0.930 . S
C1408 C1407 1.378 . S
C1408 C1409 1.376 . S
C1409 H1371 0.929 . S
C1409 C1404 1.397 . S
C1409 C1408 1.376 . S
C1410 C1394 1.509 . S
C1410 C1411 1.391 . S
C1410 C1415 1.386 . S
C1411 H1372 0.930 . S
C1411 C1410 1.391 . S
C1411 C1412 1.375 . S
C1412 H1373 0.931 . S
C1412 C1411 1.375 . S
C1412 C1413 1.375 . S
C1413 C1412 1.375 . S
C1413 C1414 1.361 . S
C1414 H1374 0.930 . S
C1414 C1413 1.361 . S
C1414 C1415 1.399 . S
C1415 H1375 0.929 . S
C1415 C1410 1.386 . S
C1415 C1414 1.399 . S
C1416 C1395 1.485 . S
C1416 C1417 1.394 . S
C1416 C1421 1.360 . S
C1417 H1376 0.931 . S
C1417 C1416 1.394 . S
C1417 C1418 1.372 . S
C1418 H1377 0.930 . S
C1418 C1417 1.372 . S
C1418 C1419 1.397 . S
C1419 C1418 1.397 . S
C1419 C1420 1.390 . S
C1419 C1435 1.476 . S
C1420 H1378 0.930 . S
C1420 C1419 1.390 . S
C1420 C1421 1.366 . S
C1421 H1379 0.932 . S
C1421 C1416 1.360 . S
C1421 C1420 1.366 . S
C1422 C1396 1.490 . S
C1422 C1423 1.380 . S
C1422 C1427 1.386 . S
C1423 H1380 0.930 . S
C1423 C1422 1.380 . S
C1423 C1424 1.381 . S
C1424 H1381 0.929 . S
C1424 C1423 1.381 . S
C1424 C1425 1.371 . S
C1425 C1424 1.371 . S
C1425 C1426 1.380 . S
C1426 H1382 0.931 . S
C1426 C1425 1.380 . S
C1426 C1427 1.387 . S
C1427 H1383 0.930 . S
C1427 C1422 1.386 . S
C1427 C1426 1.387 . S
C1428 C1397 1.519 . S
C1428 C1429 1.377 . S
C1428 C1433 1.361 . S
C1429 H1384 0.929 . S
C1429 C1428 1.377 . S
C1429 C1430 1.386 . S
C1430 H1385 0.931 . S
C1430 C1429 1.386 . S
C1430 C1431 1.363 . S
C1431 C1430 1.363 . S
C1431 C1432 1.385 . S
C1432 H1386 0.930 . S
C1432 C1431 1.385 . S
C1432 C1433 1.396 . S
C1433 H1387 0.929 . S
C1433 C1428 1.361 . S
C1433 C1432 1.396 . S
C1434 O1388 1.300 . S
C1434 O1389 1.209 . S
C1434 C1407 1.486 . S
C1435 O1390 1.199 . S
C1435 O1391 1.297 . S
C1435 C1419 1.476 . S
H1436 O1462 0.856 . S
H1437 O1465 0.854 . S
H1438 C1473 0.930 . S
H1439 C1474 0.930 . S
H1440 C1476 0.930 . S
H1441 C1477 0.930 . S
H1442 C1479 0.931 . S
H1443 C1480 0.930 . S
H1444 C1482 0.930 . S
H1445 C1483 0.929 . S
H1446 C1485 0.930 . S
H1447 C1486 0.931 . S
H1448 C1488 0.930 . S
H1449 C1489 0.929 . S
H1450 C1491 0.931 . S
H1451 C1492 0.930 . S
H1452 C1494 0.930 . S
H1453 C1495 0.932 . S
H1454 C1497 0.930 . S
H1455 C1498 0.929 . S
H1456 C1500 0.931 . S
H1457 C1501 0.930 . S
H1458 C1503 0.929 . S
H1459 C1504 0.931 . S
H1460 C1506 0.930 . S
H1461 C1507 0.929 . S
O1462 H1436 0.856 . S
O1462 C1508 1.300 . S
O1463 C1508 1.209 . S
O1464 C1509 1.199 . S
O1465 H1437 0.854 . S
O1465 C1509 1.297 . S
C1466 C1467 1.404 . S
C1466 C1471 1.397 . S
C1466 C1472 1.492 . S
C1467 C1466 1.404 . S
C1467 C1468 1.396 . S
C1467 C1478 1.492 . S
C1468 C1467 1.396 . S
C1468 C1469 1.397 . S
C1468 C1484 1.509 . S
C1469 C1468 1.397 . S
C1469 C1470 1.412 . S
C1469 C1490 1.485 . S
C1470 C1469 1.412 . S
C1470 C1471 1.388 . S
C1470 C1496 1.490 . S
C1471 C1466 1.397 . S
C1471 C1470 1.388 . S
C1471 C1502 1.519 . S
C1472 C1466 1.492 . S
C1472 C1473 1.363 . S
C1472 C1477 1.390 . S
C1473 H1438 0.930 . S
C1473 C1472 1.363 . S
C1473 C1474 1.372 . S
C1474 H1439 0.930 . S
C1474 C1473 1.372 . S
C1474 C1475 1.383 . S
C1475 C1474 1.383 . S
C1475 C1476 1.395 . S
C1476 H1440 0.930 . S
C1476 C1475 1.395 . S
C1476 C1477 1.362 . S
C1477 H1441 0.930 . S
C1477 C1472 1.390 . S
C1477 C1476 1.362 . S
C1478 C1467 1.492 . S
C1478 C1479 1.377 . S
C1478 C1483 1.397 . S
C1479 H1442 0.931 . S
C1479 C1478 1.377 . S
C1479 C1480 1.376 . S
C1480 H1443 0.930 . S
C1480 C1479 1.376 . S
C1480 C1481 1.376 . S
C1481 C1480 1.376 . S
C1481 C1482 1.378 . S
C1481 C1508 1.486 . S
C1482 H1444 0.930 . S
C1482 C1481 1.378 . S
C1482 C1483 1.376 . S
C1483 H1445 0.929 . S
C1483 C1478 1.397 . S
C1483 C1482 1.376 . S
C1484 C1468 1.509 . S
C1484 C1485 1.391 . S
C1484 C1489 1.386 . S
C1485 H1446 0.930 . S
C1485 C1484 1.391 . S
C1485 C1486 1.375 . S
C1486 H1447 0.931 . S
C1486 C1485 1.375 . S
C1486 C1487 1.375 . S
C1487 C1486 1.375 . S
C1487 C1488 1.361 . S
C1488 H1448 0.930 . S
C1488 C1487 1.361 . S
C1488 C1489 1.399 . S
C1489 H1449 0.929 . S
C1489 C1484 1.386 . S
C1489 C1488 1.399 . S
C1490 C1469 1.485 . S
C1490 C1491 1.394 . S
C1490 C1495 1.360 . S
C1491 H1450 0.931 . S
C1491 C1490 1.394 . S
C1491 C1492 1.372 . S
C1492 H1451 0.930 . S
C1492 C1491 1.372 . S
C1492 C1493 1.397 . S
C1493 C1492 1.397 . S
C1493 C1494 1.390 . S
C1493 C1509 1.476 1_455 S
C1494 H1452 0.930 . S
C1494 C1493 1.390 . S
C1494 C1495 1.366 . S
C1495 H1453 0.932 . S
C1495 C1490 1.360 . S
C1495 C1494 1.366 . S
C1496 C1470 1.490 . S
C1496 C1497 1.380 . S
C1496 C1501 1.386 . S
C1497 H1454 0.930 . S
C1497 C1496 1.380 . S
C1497 C1498 1.381 . S
C1498 H1455 0.929 . S
C1498 C1497 1.381 . S
C1498 C1499 1.371 . S
C1499 C1498 1.371 . S
C1499 C1500 1.380 . S
C1500 H1456 0.931 . S
C1500 C1499 1.380 . S
C1500 C1501 1.387 . S
C1501 H1457 0.930 . S
C1501 C1496 1.386 . S
C1501 C1500 1.387 . S
C1502 C1471 1.519 . S
C1502 C1503 1.377 . S
C1502 C1507 1.361 . S
C1503 H1458 0.929 . S
C1503 C1502 1.377 . S
C1503 C1504 1.386 . S
C1504 H1459 0.931 . S
C1504 C1503 1.386 . S
C1504 C1505 1.363 . S
C1505 C1504 1.363 . S
C1505 C1506 1.385 . S
C1506 H1460 0.930 . S
C1506 C1505 1.385 . S
C1506 C1507 1.396 . S
C1507 H1461 0.929 . S
C1507 C1502 1.361 . S
C1507 C1506 1.396 . S
C1508 O1462 1.300 . S
C1508 O1463 1.209 . S
C1508 C1481 1.486 . S
C1509 O1464 1.199 . S
C1509 O1465 1.297 . S
C1509 C1493 1.476 1_655 S
H1510 O1536 0.856 . S
H1511 O1539 0.854 . S
H1512 C1547 0.930 . S
H1513 C1548 0.930 . S
H1514 C1550 0.930 . S
H1515 C1551 0.930 . S
H1516 C1553 0.931 . S
H1517 C1554 0.930 . S
H1518 C1556 0.930 . S
H1519 C1557 0.929 . S
H1520 C1559 0.930 . S
H1521 C1560 0.931 . S
H1522 C1562 0.930 . S
H1523 C1563 0.929 . S
H1524 C1565 0.931 . S
H1525 C1566 0.930 . S
H1526 C1568 0.930 . S
H1527 C1569 0.932 . S
H1528 C1571 0.930 . S
H1529 C1572 0.929 . S
H1530 C1574 0.931 . S
H1531 C1575 0.930 . S
H1532 C1577 0.929 . S
H1533 C1578 0.931 . S
H1534 C1580 0.930 . S
H1535 C1581 0.929 . S
O1536 H1510 0.856 . S
O1536 C1582 1.300 . S
O1537 C1582 1.209 . S
O1538 C1583 1.199 . S
O1539 H1511 0.854 . S
O1539 C1583 1.297 1_655 S
C1540 C1541 1.404 . S
C1540 C1545 1.397 . S
C1540 C1546 1.492 . S
C1541 C1540 1.404 . S
C1541 C1542 1.396 . S
C1541 C1552 1.492 . S
C1542 C1541 1.396 . S
C1542 C1543 1.397 . S
C1542 C1558 1.509 . S
C1543 C1542 1.397 . S
C1543 C1544 1.412 . S
C1543 C1564 1.485 . S
C1544 C1543 1.412 . S
C1544 C1545 1.388 . S
C1544 C1570 1.490 . S
C1545 C1540 1.397 . S
C1545 C1544 1.388 . S
C1545 C1576 1.519 . S
C1546 C1540 1.492 . S
C1546 C1547 1.363 . S
C1546 C1551 1.390 . S
C1547 H1512 0.930 . S
C1547 C1546 1.363 . S
C1547 C1548 1.372 . S
C1548 H1513 0.930 . S
C1548 C1547 1.372 . S
C1548 C1549 1.383 . S
C1549 C1548 1.383 . S
C1549 C1550 1.395 . S
C1550 H1514 0.930 . S
C1550 C1549 1.395 . S
C1550 C1551 1.362 . S
C1551 H1515 0.930 . S
C1551 C1546 1.390 . S
C1551 C1550 1.362 . S
C1552 C1541 1.492 . S
C1552 C1553 1.377 . S
C1552 C1557 1.397 . S
C1553 H1516 0.931 . S
C1553 C1552 1.377 . S
C1553 C1554 1.376 . S
C1554 H1517 0.930 . S
C1554 C1553 1.376 . S
C1554 C1555 1.376 . S
C1555 C1554 1.376 . S
C1555 C1556 1.378 . S
C1555 C1582 1.486 . S
C1556 H1518 0.930 . S
C1556 C1555 1.378 . S
C1556 C1557 1.376 . S
C1557 H1519 0.929 . S
C1557 C1552 1.397 . S
C1557 C1556 1.376 . S
C1558 C1542 1.509 . S
C1558 C1559 1.391 . S
C1558 C1563 1.386 . S
C1559 H1520 0.930 . S
C1559 C1558 1.391 . S
C1559 C1560 1.375 . S
C1560 H1521 0.931 . S
C1560 C1559 1.375 . S
C1560 C1561 1.375 . S
C1561 C1560 1.375 . S
C1561 C1562 1.361 . S
C1562 H1522 0.930 . S
C1562 C1561 1.361 . S
C1562 C1563 1.399 . S
C1563 H1523 0.929 . S
C1563 C1558 1.386 . S
C1563 C1562 1.399 . S
C1564 C1543 1.485 . S
C1564 C1565 1.394 . S
C1564 C1569 1.360 . S
C1565 H1524 0.931 . S
C1565 C1564 1.394 . S
C1565 C1566 1.372 . S
C1566 H1525 0.930 . S
C1566 C1565 1.372 . S
C1566 C1567 1.397 . S
C1567 C1566 1.397 . S
C1567 C1568 1.390 . S
C1567 C1583 1.476 . S
C1568 H1526 0.930 . S
C1568 C1567 1.390 . S
C1568 C1569 1.366 . S
C1569 H1527 0.932 . S
C1569 C1564 1.360 . S
C1569 C1568 1.366 . S
C1570 C1544 1.490 . S
C1570 C1571 1.380 . S
C1570 C1575 1.386 . S
C1571 H1528 0.930 . S
C1571 C1570 1.380 . S
C1571 C1572 1.381 . S
C1572 H1529 0.929 . S
C1572 C1571 1.381 . S
C1572 C1573 1.371 . S
C1573 C1572 1.371 . S
C1573 C1574 1.380 . S
C1574 H1530 0.931 . S
C1574 C1573 1.380 . S
C1574 C1575 1.387 . S
C1575 H1531 0.930 . S
C1575 C1570 1.386 . S
C1575 C1574 1.387 . S
C1576 C1545 1.519 . S
C1576 C1577 1.377 . S
C1576 C1581 1.361 . S
C1577 H1532 0.929 . S
C1577 C1576 1.377 . S
C1577 C1578 1.386 . S
C1578 H1533 0.931 . S
C1578 C1577 1.386 . S
C1578 C1579 1.363 . S
C1579 C1578 1.363 . S
C1579 C1580 1.385 . S
C1580 H1534 0.930 . S
C1580 C1579 1.385 . S
C1580 C1581 1.396 . S
C1581 H1535 0.929 . S
C1581 C1576 1.361 . S
C1581 C1580 1.396 . S
C1582 O1536 1.300 . S
C1582 O1537 1.209 . S
C1582 C1555 1.486 . S
C1583 O1538 1.199 . S
C1583 O1539 1.297 1_455 S
C1583 C1567 1.476 . S
C8 C981 2.042 1_455 S
C22 C1061 1.941 . S
C1129 C37 1.697 1_545 S
C36 C1209 2.138 . S
C9 C1283 1.790 1_655 S
C23 C1351 2.264 1_554 S
C50 C1277 1.607 1_655 S
C1357 C64 1.464 . S
C1203 C79 1.295 1_566 S
C78 C1135 1.889 1_545 S
C987 C51 1.426 1_655 S
C65 C1055 1.623 . S
C92 C1425 2.296 . S
C106 C1505 2.045 . S
C1573 C121 2.188 . S
C120 C321 2.499 . S
C93 C395 2.093 . S
C107 C463 2.335 . S
C134 C389 1.647 . S
C148 C469 1.517 . S
C315 C163 1.469 . S
C1579 C162 2.122 . S
C1431 C135 1.594 . S
C1499 C149 1.715 . S
C176 C537 2.216 . S
C190 C617 2.035 . S
C205 C685 2.142 . S
C204 C765 2.560 . S
C839 C177 2.136 . S
C907 C191 2.385 . S
C833 C218 1.729 . S
C913 C232 1.521 . S
C247 C759 1.495 . S
C691 C246 2.064 . S
C219 C543 1.569 . S
C611 C233 1.662 . S
C291 C6 2.425 . S
C20 C365 1.521 . S
C451 C35 1.643 . S
C525 C34 1.513 . S
C587 C7 1.802 . S
C673 C21 1.715 . S
C48 C661 2.832 1_554 S
C62 C513 2.096 . S
C77 C599 2.397 1_554 S
C76 C377 2.327 . S
C439 C49 2.416 . S
C63 C303 2.471 . S
C735 C90 2.353 . S
C104 C809 1.570 . S
C119 C895 1.617 . S
C969 C118 1.396 . S
C91 C1031 1.716 . S
C105 C1117 1.502 . S
C132 C1105 2.472 1_565 S
C146 C957 1.844 1_455 S
C1043 C161 2.265 . S
C160 C821 2.365 . S
C133 C883 2.354 . S
C747 C147 2.469 . S
C1179 C174 2.209 . S
C188 C1253 1.389 . S
C203 C1339 1.560 . S
C1413 C202 1.584 . S
C1475 C175 1.772 . S
C189 C1561 1.731 . S
C216 C1549 2.780 . S
C230 C1401 2.118 . S
C1487 C245 2.331 . S
C1265 C244 2.021 . S
C1327 C217 2.303 . S
C231 C1191 2.051 . S
