# Generated by pormake.
# Topology zzz, (3,6)-cn, num edge types: 1
# Building blocks:
#     Node 0, Type 0, BuildingBlock: BETDIP_clean_linker_0, # of connection points: 3
#     Node 1, Type 0, BuildingBlock: BETDIP_clean_linker_0, # of connection points: 3
#     Node 2, Type 0, BuildingBlock: BETDIP_clean_linker_0, # of connection points: 3
#     Node 3, Type 0, BuildingBlock: BETDIP_clean_linker_0, # of connection points: 3
#     Node 4, Type 0, BuildingBlock: BETDIP_clean_linker_0, # of connection points: 3
#     Node 5, Type 0, BuildingBlock: BETDIP_clean_linker_0, # of connection points: 3
#     Node 6, Type 0, BuildingBlock: BETDIP_clean_linker_0, # of connection points: 3
#     Node 7, Type 0, BuildingBlock: BETDIP_clean_linker_0, # of connection points: 3
#     Node 8, Type 1, BuildingBlock: KUMBUR_clean_sbu_0, # of connection points: 6
#     Node 9, Type 1, BuildingBlock: KUMBUR_clean_sbu_0, # of connection points: 6
#     Node 10, Type 1, BuildingBlock: KUMBUR_clean_sbu_0, # of connection points: 6
#     Node 11, Type 1, BuildingBlock: KUMBUR_clean_sbu_0, # of connection points: 6
#     Edge 12, Type (0, 1), BuildingBlock: XUDNAN_clean_linker_2, # of connection points: 2
#     Edge 13, Type (0, 1), BuildingBlock: XUDNAN_clean_linker_2, # of connection points: 2
#     Edge 14, Type (0, 1), BuildingBlock: XUDNAN_clean_linker_2, # of connection points: 2
#     Edge 15, Type (0, 1), BuildingBlock: XUDNAN_clean_linker_2, # of connection points: 2
#     Edge 16, Type (0, 1), BuildingBlock: XUDNAN_clean_linker_2, # of connection points: 2
#     Edge 17, Type (0, 1), BuildingBlock: XUDNAN_clean_linker_2, # of connection points: 2
#     Edge 18, Type (0, 1), BuildingBlock: XUDNAN_clean_linker_2, # of connection points: 2
#     Edge 19, Type (0, 1), BuildingBlock: XUDNAN_clean_linker_2, # of connection points: 2
#     Edge 20, Type (0, 1), BuildingBlock: XUDNAN_clean_linker_2, # of connection points: 2
#     Edge 21, Type (0, 1), BuildingBlock: XUDNAN_clean_linker_2, # of connection points: 2
#     Edge 22, Type (0, 1), BuildingBlock: XUDNAN_clean_linker_2, # of connection points: 2
#     Edge 23, Type (0, 1), BuildingBlock: XUDNAN_clean_linker_2, # of connection points: 2
#     Edge 24, Type (0, 1), BuildingBlock: XUDNAN_clean_linker_2, # of connection points: 2
#     Edge 25, Type (0, 1), BuildingBlock: XUDNAN_clean_linker_2, # of connection points: 2
#     Edge 26, Type (0, 1), BuildingBlock: XUDNAN_clean_linker_2, # of connection points: 2
#     Edge 27, Type (0, 1), BuildingBlock: XUDNAN_clean_linker_2, # of connection points: 2
#     Edge 28, Type (0, 1), BuildingBlock: XUDNAN_clean_linker_2, # of connection points: 2
#     Edge 29, Type (0, 1), BuildingBlock: XUDNAN_clean_linker_2, # of connection points: 2
#     Edge 30, Type (0, 1), BuildingBlock: XUDNAN_clean_linker_2, # of connection points: 2
#     Edge 31, Type (0, 1), BuildingBlock: XUDNAN_clean_linker_2, # of connection points: 2
#     Edge 32, Type (0, 1), BuildingBlock: XUDNAN_clean_linker_2, # of connection points: 2
#     Edge 33, Type (0, 1), BuildingBlock: XUDNAN_clean_linker_2, # of connection points: 2
#     Edge 34, Type (0, 1), BuildingBlock: XUDNAN_clean_linker_2, # of connection points: 2
#     Edge 35, Type (0, 1), BuildingBlock: XUDNAN_clean_linker_2, # of connection points: 2
# Relax obj value: 0.177
# Max RMSD: 0.163
# Mean RMSD: 0.115
data_MOF--net-zzz--node1-KUMBUR_clean_sbu_0--node2-BETDIP_clean_linker_0--edge1-XUDNAN_clean_linker_2
_symmetry_space_group_name_H-M    P1
_symmetry_Int_Tables_number       1
_symmetry_cell_setting            triclinic
loop_
_symmetry_equiv_pos_as_xyz
'x, y, z'
_cell_length_a     50.558525
_cell_length_b     50.460084
_cell_length_c     14.653797
_cell_angle_alpha  90.844888
_cell_angle_beta   89.889945
_cell_angle_gamma 89.967839
loop_
_atom_site_label
_atom_site_type_symbol
_atom_site_fract_x
_atom_site_fract_y
_atom_site_fract_z
_atom_type_partial_charge
H0 H 0.75984 0.52938 0.36292 0.0
H1 H 0.75208 0.58158 0.13288 0.0
H2 H 0.82483 0.57815 0.28139 0.0
H3 H 0.72955 0.54333 0.08224 0.0
C4 C 0.71514 0.54441 0.13738 0.0
C5 C 0.76766 0.54492 0.32045 0.0
C6 C 0.79416 0.55413 0.33445 0.0
C7 C 0.75183 0.55525 0.24799 0.0
C8 C 0.76327 0.57399 0.18975 0.0
C9 C 0.78969 0.58166 0.19918 0.0
C10 C 0.80412 0.57297 0.27485 0.0
N11 N 0.72524 0.54612 0.22938 0.0
H12 H 0.02467 0.76491 0.39155 0.0
H13 H 0.98541 0.7753 0.13732 0.0
H14 H 0.95901 0.8188 0.36941 0.0
H15 H 0.98233 0.73215 0.11974 0.0
C16 C 0.99802 0.72223 0.15623 0.0
C17 C 1.0083 0.77327 0.35414 0.0
C18 C 0.99462 0.79634 0.38961 0.0
C19 C 1.00046 0.76171 0.26751 0.0
C20 C 0.98534 0.77835 0.21049 0.0
C21 C 0.97302 0.80105 0.24778 0.0
C22 C 0.97164 0.80319 0.34249 0.0
N23 N 1.00924 0.73565 0.23556 0.0
H24 H 0.77391 1.01497 0.38954 0.0
H25 H 0.7828 0.96257 0.1569 0.0
H26 H 0.71217 0.96038 0.31066 0.0
H27 H 0.82459 0.96495 0.17339 0.0
C28 C 0.82803 0.9855 0.1923 0.0
C29 C 0.76716 0.99819 0.3491 0.0
C30 C 0.741 0.98762 0.36431 0.0
C31 C 0.78411 0.98724 0.27876 0.0
C32 C 0.77309 0.96777 0.22044 0.0
C33 C 0.7464 0.96102 0.22664 0.0
C34 C 0.73268 0.96669 0.30724 0.0
N35 N 0.81024 0.99784 0.25833 0.0
H36 H 0.52404 0.78506 0.38102 0.0
H37 H 0.58037 0.80068 0.16823 0.0
H38 H 0.58104 0.72586 0.30065 0.0
H39 H 0.57841 0.84462 0.26824 0.0
C40 C 0.55859 0.845 0.23959 0.0
C41 C 0.54166 0.77944 0.34331 0.0
C42 C 0.553 0.75379 0.3553 0.0
C43 C 0.55303 0.79748 0.28008 0.0
C44 C 0.57396 0.78863 0.22477 0.0
C45 C 0.58283 0.76252 0.22856 0.0
C46 C 0.5744 0.74633 0.29977 0.0
N47 N 0.54182 0.82304 0.2619 0.0
H48 H 0.28191 0.49785 0.93897 0.0
H49 H 0.30146 0.47424 0.21193 0.0
H50 H 0.221 0.4733 0.1271 0.0
H51 H 0.32015 0.52644 0.15917 0.0
C52 C 0.33316 0.51079 0.13382 0.0
C53 C 0.27579 0.48971 1.00359 0.0
C54 C 0.24825 0.48528 0.02173 0.0
C55 C 0.2952 0.48524 0.07286 0.0
C56 C 0.28706 0.47608 0.15757 0.0
C57 C 0.26044 0.47432 0.17898 0.0
C58 C 0.24153 0.47632 0.10938 0.0
N59 N 0.3223 0.49326 0.06538 0.0
H60 H 0.08286 0.26948 0.02045 0.0
H61 H 1.00856 0.30673 0.08987 0.0
H62 H 1.0082 0.23829 0.92573 0.0
H63 H 0.03565 0.34649 0.06079 0.0
C64 C 0.04836 0.34005 0.11598 0.0
C65 C 0.06169 0.27125 0.01159 0.0
C66 C 0.04729 0.25114 0.96128 0.0
C67 C 0.04761 0.29355 0.05117 0.0
C68 C 0.01974 0.29254 0.04919 0.0
C69 C 1.00795 0.26803 0.03079 0.0
C70 C 0.01967 0.25382 0.95884 0.0
N71 N 0.06007 0.31404 0.10618 0.0
H72 H 0.26536 0.04485 0.92065 0.0
H73 H 0.25269 0.07308 0.19599 0.0
H74 H 0.33166 0.06567 0.09091 0.0
H75 H 0.22366 0.02114 0.14545 0.0
C76 C 0.21443 0.03947 0.12394 0.0
C77 C 0.27321 0.05276 0.98409 0.0
C78 C 0.30115 0.05644 0.99423 0.0
C79 C 0.25562 0.05876 0.05823 0.0
C80 C 0.26603 0.06852 0.1399 0.0
C81 C 0.29322 0.07065 0.15294 0.0
C82 C 0.31049 0.06528 0.07952 0.0
N83 N 0.22761 0.05447 0.05467 0.0
H84 H 0.46268 0.26288 0.91375 0.0
H85 H 0.48351 0.25536 0.19876 0.0
H86 H 0.48596 0.33107 0.07585 0.0
H87 H 0.5107 0.2221 0.1178 0.0
C88 C 0.49183 0.21226 0.10622 0.0
C89 C 0.46804 0.27172 0.97884 0.0
C90 C 0.47216 0.2999 0.98646 0.0
C91 C 0.47237 0.25516 0.05678 0.0
C92 C 0.47946 0.26725 0.13933 0.0
C93 C 0.48565 0.29381 0.14346 0.0
C94 C 0.48064 0.31024 0.07012 0.0
N95 N 0.4724 0.22658 0.05391 0.0
Tb96 Tb 0.05066 1.01242 0.75101 0.0
C97 C 0.96164 0.99083 0.52564 0.0
C98 C 0.9825 0.96905 0.39589 0.0
C99 C 0.93676 0.95942 0.43104 0.0
C100 C 0.98342 0.98736 0.47004 0.0
C101 C 0.93789 0.97706 0.50569 0.0
C102 C 0.95906 0.95534 0.37645 0.0
C103 C 0.91674 1.00124 0.62761 0.0
N104 N 0.96324 1.00845 0.59651 0.0
C105 C 0.94039 1.01465 0.64368 0.0
C106 C 0.91553 0.9821 0.55898 0.0
Tb107 Tb 1.0018 0.03362 0.6044 0.0
N108 N 1.00568 1.00134 0.48961 0.0
C109 C 0.02821 0.99583 0.44074 0.0
C110 C 1.00523 0.96475 0.3437 0.0
C111 C 0.02834 0.97791 0.36733 0.0
H112 H 0.9394 0.0311 0.69073 0.0
H113 H 0.04649 0.97392 0.33025 0.0
H114 H 0.95799 0.94148 0.31939 0.0
H115 H 0.89915 1.00646 0.66601 0.0
H116 H 0.0467 1.00353 0.46068 0.0
H117 H 0.02367 0.03635 0.10656 0.0
H118 H 1.00533 0.95078 0.28681 0.0
H119 H 0.11142 0.01691 0.65852 0.0
H120 H 0.02137 1.01105 0.96806 0.0
H121 H 0.15206 0.04162 0.68383 0.0
H122 H 0.91867 0.9489 0.41469 0.0
H123 H 0.05997 0.06804 0.13206 0.0
H124 H 0.10248 0.08683 0.07907 0.0
H125 H 0.89696 0.97212 0.54526 0.0
H126 H 0.1374 0.08873 0.96317 0.0
N127 N 0.0524 0.03183 0.89699 0.0
C128 C 0.03575 0.02652 0.96915 0.0
C129 C 0.05814 0.05798 0.06651 0.0
C130 C 0.07702 0.06124 0.99821 0.0
C131 C 0.03761 0.04026 0.0522 0.0
C132 C 0.07354 0.04803 0.9129 0.0
H133 H 0.15603 0.07212 0.81612 0.0
N134 N 0.08968 0.03605 0.76739 0.0
C135 C 0.13532 0.04491 0.72879 0.0
C136 C 0.09268 0.05022 0.84605 0.0
C137 C 0.11174 0.03127 0.714 0.0
C138 C 0.13746 0.06202 0.80342 0.0
C139 C 0.11644 0.06409 0.86504 0.0
O140 O 0.07569 0.98409 0.68991 0.0
O141 O 0.02711 1.00002 0.63311 0.0
O142 O 0.98313 0.02804 0.74071 0.0
O143 O 1.0131 1.00342 0.82292 0.0
O144 O 0.02623 0.97641 0.74395 0.0
O145 O 0.07467 0.98972 0.83601 0.0
O146 O 0.97044 0.05973 0.62172 0.0
O147 O 0.02509 0.04611 0.72471 0.0
O148 O 0.06811 0.03053 0.62659 0.0
O149 O 0.03667 0.04556 0.52493 0.0
O150 O 0.02101 0.07244 0.62118 0.0
O151 O 0.98589 0.05111 0.48706 0.0
C152 C 0.01861 0.9775 0.66018 0.0
C153 C 0.0778 0.9463 0.7777 0.0
C154 C 0.05003 0.91219 0.84124 0.0
C155 C 0.05816 0.9384 0.83792 0.0
C156 C 0.06156 0.89333 0.78198 0.0
C157 C 0.0897 0.92753 0.71935 0.0
C158 C 0.0815 0.90105 0.72149 0.0
C159 C 0.98901 1.01347 0.8123 0.0
C160 C 0.08268 0.97461 0.76821 0.0
C161 C 0.11939 0.07793 0.94798 0.0
C162 C 0.09961 0.07668 0.01415 0.0
C163 C 0.03088 0.06982 0.70141 0.0
C164 C 0.96717 0.09335 0.51882 0.0
C165 C 0.98654 0.1065 0.46876 0.0
C166 C 0.98513 0.13388 0.461 0.0
C167 C 0.96455 0.14824 0.50303 0.0
C168 C 0.9464 0.10766 0.56006 0.0
C169 C 0.94519 0.13509 0.55243 0.0
C170 C 0.06163 0.04189 0.54897 0.0
C171 C 0.96912 0.06513 0.53562 0.0
H172 H 0.04823 0.95302 0.88088 0.0
H173 H 0.05558 0.87274 0.78362 0.0
H174 H 0.1046 0.93349 0.67059 0.0
H175 H 0.09042 0.88657 0.67575 0.0
H176 H 1.00258 0.09568 0.43595 0.0
H177 H 0.96309 0.16952 0.49522 0.0
H178 H 0.93138 0.09761 0.59945 0.0
H179 H 0.9292 0.14611 0.58425 0.0
Tb180 Tb 0.52294 0.04983 0.7457 0.0
C181 C 0.55355 0.9565 0.51253 0.0
C182 C 0.57898 0.97624 0.3901 0.0
C183 C 0.58236 0.92901 0.41758 0.0
C184 C 0.56073 0.97873 0.46264 0.0
C185 C 0.56429 0.93143 0.4899 0.0
C186 C 0.58948 0.95127 0.36739 0.0
C187 C 0.53539 0.91189 0.60174 0.0
N188 N 0.53467 0.95901 0.5782 0.0
C189 C 0.52454 0.93683 0.61932 0.0
C190 C 0.55549 0.90918 0.53714 0.0
Tb191 Tb 0.51476 0.9997 0.58318 0.0
N192 N 0.54872 1.00235 0.48124 0.0
C193 C 0.55424 0.02412 0.42972 0.0
C194 C 0.58553 0.99873 0.34019 0.0
C195 C 0.57313 0.02278 0.36027 0.0
H196 H 0.5081 0.93863 0.66652 0.0
H197 H 0.57786 0.04025 0.32151 0.0
H198 H 0.60319 0.94895 0.31092 0.0
H199 H 0.52773 0.89467 0.63618 0.0
H200 H 0.54487 0.04286 0.44283 0.0
H201 H 0.46897 0.99658 1.00886 0.0
H202 H 0.59978 0.99764 0.28498 0.0
H203 H 0.50786 0.11169 0.65861 0.0
H204 H 0.48985 0.9993 0.85909 0.0
H205 H 0.48755 0.15145 0.7171 0.0
H206 H 0.5906 0.90987 0.39873 0.0
H207 H 0.4582 0.03751 0.09608 0.0
H208 H 0.4559 0.08721 0.10049 0.0
H209 H 0.56339 0.88966 0.52172 0.0
H210 H 0.45867 0.12901 0.01606 0.0
N211 N 0.49213 0.04161 0.85917 0.0
C212 C 0.48576 0.01749 0.89539 0.0
C213 C 0.46742 0.03885 0.02951 0.0
C214 C 0.47206 0.06338 0.98962 0.0
C215 C 0.47347 1.01576 0.98059 0.0
C216 C 0.48373 0.06399 0.90215 0.0
H217 H 0.46867 0.15274 0.8724 0.0
N218 N 0.4963 0.08678 0.77047 0.0
C219 C 0.48644 0.13347 0.75638 0.0
C220 C 0.48549 0.08741 0.85545 0.0
C221 C 0.49706 0.1099 0.72132 0.0
C222 C 0.4761 0.1342 0.84427 0.0
C223 C 0.47581 0.1111 0.89535 0.0
O224 O 0.54139 0.08534 0.78362 0.0
O225 O 0.54457 0.02176 0.65731 0.0
O226 O 0.53512 0.98109 0.69835 0.0
O227 O 0.53294 1.01219 0.81617 0.0
O228 O 0.55947 0.05876 0.67048 0.0
O229 O 0.54485 0.05078 0.86713 0.0
O230 O 0.48745 0.97042 0.5471 0.0
O231 O 0.49246 0.02887 0.6677 0.0
O232 O 0.51585 0.06982 0.61483 0.0
O233 O 0.50214 0.03644 0.51577 0.0
O234 O 0.48091 0.99006 0.66819 0.0
O235 O 0.50484 0.99554 0.44456 0.0
C236 C 0.56411 0.03607 0.63342 0.0
C237 C 0.58171 0.07928 0.8548 0.0
C238 C 0.62594 0.06165 0.86812 0.0
C239 C 0.59869 0.05839 0.87507 0.0
C240 C 0.63634 0.08615 0.84069 0.0
C241 C 0.59219 0.1039 0.82943 0.0
C242 C 0.61947 0.10723 0.82209 0.0
C243 C 0.53669 0.98753 0.78583 0.0
C244 C 0.55318 0.07487 0.85274 0.0
C245 C 0.46614 0.111 0.98506 0.0
C246 C 0.4645 0.0872 0.03274 0.0
C247 C 0.47447 1.0134 0.69698 0.0
C248 C 0.46508 0.97398 0.40987 0.0
C249 C 0.44419 0.99063 0.43367 0.0
C250 C 0.41987 0.98734 0.3908 0.0
C251 C 0.41655 0.96779 0.32256 0.0
C252 C 0.46205 0.95452 0.34152 0.0
C253 C 0.43777 0.95151 0.29756 0.0
C254 C 0.50612 0.06181 0.53543 0.0
C255 C 0.48952 0.97532 0.46035 0.0
H256 H 0.59074 0.03965 0.89773 0.0
H257 H 0.6575 0.0891 0.83497 0.0
H258 H 0.57928 0.12033 0.8135 0.0
H259 H 0.62753 0.12612 0.80182 0.0
H260 H 0.44671 1.00577 0.48637 0.0
H261 H 0.39777 0.9655 0.28784 0.0
H262 H 0.47829 0.94145 0.32348 0.0
H263 H 0.43537 0.93651 0.2447 0.0
Tb264 Tb 0.53552 0.51697 0.59537 0.0
C265 C 0.43185 0.52626 0.78594 0.0
C266 C 0.40828 0.55973 0.70093 0.0
C267 C 0.38376 0.52817 0.79122 0.0
C268 C 0.43224 0.54737 0.72604 0.0
C269 C 0.40757 0.51695 0.82084 0.0
C270 C 0.38413 0.54957 0.73181 0.0
C271 C 0.43194 0.48905 0.92333 0.0
N272 N 0.45518 0.5164 0.81629 0.0
C273 C 0.45546 0.4991 0.88807 0.0
C274 C 0.40787 0.4977 0.88858 0.0
Tb275 Tb 0.49223 0.53753 0.76432 0.0
N276 N 0.45596 0.55712 0.69819 0.0
C277 C 0.45665 0.57957 0.64635 0.0
C278 C 0.40919 0.58262 0.64841 0.0
C279 C 0.43351 0.5927 0.6217 0.0
H280 H 0.47406 0.49256 0.91646 0.0
H281 H 0.43451 0.61024 0.58014 0.0
H282 H 0.36561 0.55864 0.71217 0.0
H283 H 0.4324 0.47491 0.97814 0.0
H284 H 0.47455 0.58768 0.62136 0.0
H285 H 0.58696 0.4456 0.80772 0.0
H286 H 0.39124 0.59268 0.62827 0.0
H287 H 0.56057 0.56486 0.45887 0.0
H288 H 0.54979 0.47323 0.76772 0.0
H289 H 0.60368 0.5792 0.40561 0.0
H290 H 0.36496 0.52114 0.81683 0.0
H291 H 0.63027 0.45167 0.73322 0.0
H292 H 0.65886 0.47846 0.63049 0.0
H293 H 0.38961 0.49023 0.91724 0.0
H294 H 0.66405 0.51693 0.53141 0.0
N295 N 0.57034 0.49494 0.66397 0.0
C296 C 0.56791 0.47616 0.73063 0.0
C297 C 0.61365 0.46383 0.71326 0.0
C298 C 0.61673 0.48411 0.65031 0.0
C299 C 0.5893 0.46038 0.75553 0.0
C300 C 0.59453 0.49962 0.62738 0.0
H301 H 0.64393 0.55517 0.45104 0.0
N302 N 0.57554 0.53524 0.54987 0.0
C303 C 0.60237 0.56326 0.45406 0.0
C304 C 0.59744 0.5212 0.57177 0.0
C305 C 0.5778 0.55542 0.48763 0.0
C306 C 0.62496 0.54953 0.47923 0.0
C307 C 0.62265 0.52787 0.53692 0.0
O308 O 0.53926 0.51735 0.45264 0.0
O309 O 0.4939 0.52031 0.62908 0.0
O310 O 0.48298 0.49534 0.74013 0.0
O311 O 0.51893 0.4799 0.65737 0.0
O312 O 0.50529 0.53526 0.50963 0.0
O313 O 0.53406 0.48075 0.52392 0.0
O314 O 0.49333 0.53875 0.90701 0.0
O315 O 0.53478 0.53552 0.73201 0.0
O316 O 0.53613 0.56005 0.59018 0.0
O317 O 0.50929 0.57465 0.70835 0.0
O318 O 0.52193 0.51837 0.84835 0.0
O319 O 0.47881 0.57206 0.83056 0.0
C320 C 0.48457 0.52977 0.55608 0.0
C321 C 0.5602 0.47935 0.39234 0.0
C322 C 0.57779 0.43733 0.33962 0.0
C323 C 0.55646 0.45311 0.36792 0.0
C324 C 0.60248 0.44937 0.32435 0.0
C325 C 0.58441 0.49162 0.37309 0.0
C326 C 0.60547 0.47663 0.33862 0.0
C327 C 0.49797 0.4755 0.71033 0.0
C328 C 0.53913 0.4918 0.44596 0.0
C329 C 0.64464 0.51221 0.55803 0.0
C330 C 0.64163 0.49016 0.61357 0.0
C331 C 0.54307 0.52521 0.80592 0.0
C332 C 0.49681 0.58024 0.97573 0.0
C333 C 0.515 0.59913 0.94628 0.0
C334 C 0.52677 0.61601 0.01006 0.0
C335 C 0.52064 0.61397 0.10322 0.0
C336 C 0.49086 0.57793 0.06873 0.0
C337 C 0.50281 0.5948 0.13244 0.0
C338 C 0.52487 0.57923 0.63733 0.0
C339 C 0.4838 0.56264 0.91115 0.0
H340 H 0.53675 0.44497 0.37527 0.0
H341 H 0.6195 0.43789 0.30266 0.0
H342 H 0.58721 0.51247 0.38498 0.0
H343 H 0.62433 0.48599 0.32563 0.0
H344 H 0.5197 0.60099 0.87439 0.0
H345 H 0.52941 0.62742 0.15289 0.0
H346 H 0.47689 0.56317 0.09179 0.0
H347 H 0.49805 0.5932 0.20419 0.0
Tb348 Tb 0.03154 0.54304 0.59199 0.0
C349 C 0.02719 0.44068 0.77262 0.0
C350 C 0.9976 0.41538 0.67474 0.0
C351 C 0.02955 0.39238 0.76752 0.0
C352 C 1.00637 0.44001 0.71121 0.0
C353 C 0.03861 0.4167 0.80254 0.0
C354 C 1.00925 0.39174 0.70329 0.0
C355 C 0.06611 0.44199 0.90513 0.0
N356 N 0.03589 0.46454 0.80462 0.0
C357 C 0.05434 0.46511 0.87386 0.0
C358 C 0.05842 0.41767 0.86867 0.0
Tb359 Tb 1.01124 0.50097 0.76122 0.0
N360 N 0.9951 0.46327 0.68567 0.0
C361 C 0.97524 0.46248 0.62176 0.0
C362 C 0.97753 0.41505 0.60969 0.0
C363 C 0.9665 0.43876 0.58254 0.0
H364 H 0.05977 0.48331 0.9086 0.0
H365 H 0.95119 0.43889 0.53097 0.0
H366 H 1.0026 0.37278 0.6763 0.0
H367 H 0.08071 0.44296 0.95905 0.0
H368 H 0.96635 0.4797 0.59602 0.0
H369 H 0.09038 0.60175 0.82809 0.0
H370 H 0.97056 0.39662 0.57947 0.0
H371 H 0.98851 0.5603 0.43065 0.0
H372 H 0.07306 0.56083 0.76188 0.0
H373 H 0.97087 0.60152 0.36742 0.0
H374 H 0.0381 0.37389 0.78992 0.0
H375 H 0.07483 0.64496 0.77198 0.0
H376 H 0.04718 0.6701 0.66139 0.0
H377 H 0.06738 0.39969 0.89386 0.0
H378 H 1.01355 0.67008 0.54069 0.0
N379 N 0.04616 0.57969 0.67148 0.0
C380 C 0.06547 0.57911 0.73693 0.0
C381 C 0.06661 0.62681 0.74359 0.0
C382 C 0.04748 0.62743 0.67492 0.0
C383 C 0.07549 0.60251 0.77521 0.0
C384 C 0.03699 0.60327 0.6414 0.0
H385 H 0.98442 0.64478 0.43304 0.0
N386 N 1.00922 0.57958 0.54016 0.0
C387 C 0.98374 0.60233 0.42636 0.0
C388 C 0.01789 0.60322 0.57384 0.0
C389 C 0.99352 0.57899 0.46349 0.0
C390 C 0.99145 0.62666 0.46353 0.0
C391 C 1.00926 0.62737 0.53639 0.0
O392 O 0.03657 0.54307 0.44939 0.0
O393 O 0.03031 0.50115 0.62767 0.0
O394 O 0.05428 0.50904 0.7788 0.0
O395 O 0.06807 0.52293 0.63739 0.0
O396 O 0.0161 0.51168 0.50267 0.0
O397 O 0.0677 0.5572 0.54203 0.0
O398 O 0.01728 0.50582 0.9017 0.0
O399 O 0.02383 0.54157 0.73709 0.0
O400 O 0.98787 0.54447 0.5898 0.0
O401 O 0.97371 0.51303 0.69393 0.0
O402 O 0.98972 0.53701 0.80544 0.0
O403 O 0.98584 0.48093 0.84993 0.0
C404 C 0.0221 0.49166 0.55174 0.0
C405 C 0.07553 0.56121 0.38065 0.0
C406 C 0.11876 0.56064 0.31284 0.0
C407 C 0.10241 0.55685 0.38757 0.0
C408 C 0.10849 0.5705 0.23132 0.0
C409 C 0.06471 0.57083 0.29947 0.0
C410 C 0.08136 0.57586 0.22518 0.0
C411 C 0.07342 0.51326 0.71884 0.0
C412 C 0.05935 0.55452 0.4584 0.0
C413 C 0.01978 0.6514 0.56913 0.0
C414 C 0.03902 0.6514 0.63755 0.0
C415 C 1.00604 0.5549 0.77934 0.0
C416 C 0.98038 0.50085 0.99423 0.0
C417 C 0.95844 0.51625 0.97252 0.0
C418 C 0.94292 0.52746 0.04169 0.0
C419 C 0.94921 0.52257 0.13355 0.0
C420 C 0.98668 0.49609 0.08549 0.0
C421 C 0.97101 0.50686 0.15512 0.0
C422 C 0.96897 0.53032 0.62784 0.0
C423 C 0.99751 0.49059 0.92244 0.0
H424 H 0.11057 0.54891 0.45009 0.0
H425 H 0.12113 0.57316 0.17242 0.0
H426 H 0.04365 0.57439 0.29371 0.0
H427 H 0.0732 0.58326 0.16235 0.0
H428 H 0.95358 0.5198 0.90183 0.0
H429 H 0.93713 0.53058 0.18849 0.0
H430 H 1.00373 0.48418 0.10259 0.0
H431 H 0.97579 0.50311 0.22573 0.0
H432 H 0.17273 1.00859 0.17153 0.0
H433 H 0.20187 0.08887 0.1988 0.0
H434 H 0.16531 0.09939 0.30761 0.0
H435 H 0.10119 0.02826 0.18421 0.0
H436 H 0.09238 0.99815 0.24142 0.0
H437 H 0.11954 0.99826 0.16146 0.0
H438 H 0.1507 0.97983 0.28602 0.0
H439 H 0.12368 0.97967 0.36588 0.0
H440 H 0.15364 0.99738 0.39364 0.0
H441 H 0.12589 0.09921 0.42695 0.0
H442 H 0.08816 0.08914 0.53039 0.0
H443 H 0.08711 1.00862 0.4238 0.0
C444 C 0.17101 0.0286 0.19857 0.0
C445 C 0.18996 0.04801 0.17505 0.0
C446 C 0.18726 0.07383 0.2135 0.0
C447 C 0.1666 0.07989 0.27619 0.0
C448 C 0.14839 0.06007 0.29881 0.0
C449 C 0.15024 0.03506 0.25926 0.0
C450 C 0.12843 0.01709 0.29368 0.0
C451 C 0.10925 1.01001 0.2156 0.0
C452 C 0.13981 0.99203 0.33744 0.0
C453 C 0.11507 0.03507 0.36388 0.0
C454 C 0.12628 0.06005 0.36478 0.0
C455 C 0.11685 0.07977 0.42496 0.0
C456 C 0.09537 0.07391 0.48373 0.0
C457 C 0.08361 0.04842 0.48352 0.0
C458 C 0.09425 0.02874 0.42369 0.0
H459 H 0.51811 0.19901 0.26171 0.0
H460 H 0.45392 0.1725 0.08807 0.0
H461 H 0.44995 0.13157 0.18051 0.0
H462 H 0.54976 0.13829 0.29877 0.0
H463 H 0.55681 0.14419 0.41789 0.0
H464 H 0.55357 0.17172 0.34196 0.0
H465 H 0.51718 0.1921 0.44602 0.0
H466 H 0.52048 0.16465 0.52256 0.0
H467 H 0.48865 0.1725 0.47494 0.0
H468 H 0.45727 0.09044 0.28209 0.0
H469 H 0.46946 0.0574 0.3979 0.0
H470 H 0.5274 0.11206 0.51032 0.0
C471 C 0.50313 0.1846 0.24303 0.0
C472 C 0.48659 0.18877 0.16601 0.0
C473 C 0.46694 0.16969 0.14568 0.0
C474 C 0.46473 0.1463 0.1976 0.0
C475 C 0.48205 0.14234 0.27071 0.0
C476 C 0.50037 0.16144 0.29504 0.0
C477 C 0.51599 0.15303 0.37873 0.0
C478 C 0.5458 0.15172 0.35803 0.0
C479 C 0.51024 0.17168 0.46036 0.0
C480 C 0.50462 0.1256 0.39514 0.0
C481 C 0.48499 0.11977 0.33231 0.0
C482 C 0.4723 0.09516 0.33221 0.0
C483 C 0.47947 0.07638 0.39831 0.0
C484 C 0.49908 0.08209 0.46498 0.0
C485 C 0.51184 0.10714 0.46236 0.0
H486 H 0.34983 0.53997 0.27793 0.0
H487 H 0.37186 0.47066 0.11774 0.0
H488 H 0.41163 0.46486 0.21635 0.0
H489 H 0.41375 0.56642 0.31109 0.0
H490 H 0.40679 0.57801 0.42559 0.0
H491 H 0.3804 0.57496 0.34411 0.0
H492 H 0.35474 0.54398 0.45439 0.0
H493 H 0.38115 0.54752 0.53529 0.0
H494 H 0.37112 0.51499 0.49769 0.0
H495 H 0.45091 0.46852 0.34024 0.0
H496 H 0.48369 0.48269 0.45721 0.0
H497 H 0.43515 0.55058 0.52181 0.0
C498 C 0.363 0.52352 0.26308 0.0
C499 C 0.35769 0.5059 0.18939 0.0
C500 C 0.37544 0.48454 0.17338 0.0
C501 C 0.39807 0.48108 0.22956 0.0
C502 C 0.40266 0.49905 0.302 0.0
C503 C 0.38542 0.5199 0.31782 0.0
C504 C 0.39433 0.53707 0.39747 0.0
C505 C 0.39911 0.5658 0.36775 0.0
C506 C 0.37413 0.53579 0.47579 0.0
C507 C 0.41989 0.52349 0.42308 0.0
C508 C 0.42435 0.5012 0.36933 0.0
C509 C 0.44717 0.48594 0.38229 0.0
C510 C 0.46575 0.49411 0.44964 0.0
C511 C 0.46192 0.51764 0.50288 0.0
C512 C 0.4385 0.5321 0.48805 0.0
H513 H 0.03112 0.39075 0.12394 0.0
H514 H 0.06882 0.33227 0.29333 0.0
H515 H 0.0679 0.36448 0.42438 0.0
H516 H 0.06576 0.44791 0.22446 0.0
H517 H 0.03776 0.4696 0.21244 0.0
H518 H 0.04273 0.44256 0.13233 0.0
H519 H 0.99609 0.42442 0.16685 0.0
H520 H 0.99043 0.45136 0.24618 0.0
H521 H 0.98682 0.41764 0.28317 0.0
H522 H 0.06368 0.40691 0.53809 0.0
H523 H 0.05327 0.4497 0.61658 0.0
H524 H 1.01303 0.47627 0.3746 0.0
C525 C 0.03945 0.38466 0.18838 0.0
C526 C 0.05032 0.35889 0.19728 0.0
C527 C 0.06076 0.3519 0.28354 0.0
C528 C 0.06021 0.37018 0.35863 0.0
C529 C 0.04918 0.39551 0.34698 0.0
C530 C 0.039 0.40252 0.26322 0.0
C531 C 0.02791 0.43052 0.26634 0.0
C532 C 0.0445 0.44871 0.20523 0.0
C533 C 0.99857 0.43098 0.23905 0.0
C534 C 0.03163 0.43784 0.36637 0.0
C535 C 0.04489 0.41801 0.41173 0.0
C536 C 0.05248 0.42193 0.50303 0.0
C537 C 0.04594 0.44619 0.54834 0.0
C538 C 0.03034 0.46578 0.50532 0.0
C539 C 0.02378 0.4614 0.41203 0.0
H540 H 0.8438 0.02098 0.05705 0.0
H541 H 0.87401 0.96633 0.25657 0.0
H542 H 0.91789 0.96746 0.18248 0.0
H543 H 0.87906 0.99522 0.86592 0.0
H544 H 0.88606 0.02677 0.81511 0.0
H545 H 0.85738 0.02306 0.88673 0.0
H546 H 0.87364 0.0622 0.98864 0.0
H547 H 0.90223 0.0657 0.91617 0.0
H548 H 0.90639 0.06105 0.03703 0.0
H549 H 0.95698 0.96899 0.07167 0.0
H550 H 0.99017 0.97725 0.95201 0.0
H551 H 0.93858 0.03686 0.8372 0.0
C552 C 0.86002 1.01036 0.08793 0.0
C553 C 0.85547 0.99438 0.16597 0.0
C554 C 0.87704 0.97953 0.19986 0.0
C555 C 0.90205 0.97972 0.15698 0.0
C556 C 0.90572 0.99501 0.07927 0.0
C557 C 0.88552 1.01071 0.04635 0.0
C558 C 0.89496 0.02516 0.96105 0.0
C559 C 0.87837 0.01705 0.87729 0.0
C560 C 0.89427 0.05532 0.97669 0.0
C561 C 0.92341 1.01509 0.95141 0.0
C562 C 0.92892 0.99719 0.01905 0.0
C563 C 0.95302 0.98359 0.02005 0.0
C564 C 0.97202 0.98864 0.9516 0.0
C565 C 0.96772 1.00799 0.88363 0.0
C566 C 0.94283 0.02144 0.8851 0.0
H567 H 0.51871 0.88057 0.18916 0.0
H568 H 0.59425 0.84806 0.1035 0.0
H569 H 0.59673 0.88054 0.97956 0.0
H570 H 0.49514 0.89759 0.95392 0.0
H571 H 0.47941 0.92775 0.99305 0.0
H572 H 0.48201 0.89992 0.06822 0.0
H573 H 0.50551 0.92982 0.18798 0.0
H574 H 0.50307 0.95761 0.11275 0.0
H575 H 0.53488 0.9477 0.15616 0.0
H576 H 0.59237 0.91789 0.86792 0.0
H577 H 0.5807 0.95684 0.77537 0.0
H578 H 0.50954 0.96774 0.93724 0.0
C579 C 0.53529 0.8798 0.14235 0.0
C580 C 0.55607 0.86128 0.15512 0.0
C581 C 0.5779 0.86164 0.09427 0.0
C582 C 0.57956 0.88016 0.02376 0.0
C583 C 0.5593 0.89866 0.01448 0.0
C584 C 0.53742 0.89855 0.07146 0.0
C585 C 0.5191 0.92155 0.04855 0.0
C586 C 0.49233 0.91108 0.01388 0.0
C587 C 0.51544 0.9403 0.13128 0.0
C588 C 0.5345 0.93491 0.97216 0.0
C589 C 0.55743 0.92106 0.9527 0.0
C590 C 0.57451 0.92895 0.88306 0.0
C591 C 0.56784 0.95124 0.83109 0.0
C592 C 0.54462 0.96604 0.84982 0.0
C593 C 0.52784 0.95766 0.922 0.0
H594 H 0.69639 0.53655 0.96613 0.0
H595 H 0.66879 0.55205 0.24166 0.0
H596 H 0.62232 0.55196 0.18494 0.0
H597 H 0.6491 0.57482 0.84018 0.0
H598 H 0.64601 0.55016 0.7505 0.0
H599 H 0.67641 0.55299 0.81373 0.0
H600 H 0.6737 0.50337 0.86128 0.0
H601 H 0.64472 0.50122 0.79249 0.0
H602 H 0.64319 0.49127 0.90949 0.0
H603 H 0.578 0.54907 0.09281 0.0
H604 H 0.54179 0.54116 0.98477 0.0
H605 H 0.59871 0.52965 0.76652 0.0
C606 C 0.6806 0.54015 0.01484 0.0
C607 C 0.68645 0.54423 0.10872 0.0
C608 C 0.66504 0.54865 0.16971 0.0
C609 C 0.63851 0.54879 0.13762 0.0
C610 C 0.63357 0.54456 0.04413 0.0
C611 C 0.65421 0.54036 0.98404 0.0
C612 C 0.64403 0.53426 0.88845 0.0
C613 C 0.65452 0.55427 0.81915 0.0
C614 C 0.65186 0.50581 0.86157 0.0
C615 C 0.61419 0.53688 0.90156 0.0
C616 C 0.6086 0.54248 0.99235 0.0
C617 C 0.58247 0.54467 0.02193 0.0
C618 C 0.56181 0.54021 0.95882 0.0
C619 C 0.56662 0.53398 0.86487 0.0
C620 C 0.59357 0.53333 0.83641 0.0
H621 H 0.98473 0.70268 0.98911 0.0
H622 H 0.02616 0.67936 0.23333 0.0
H623 H 0.03395 0.63461 0.16311 0.0
H624 H 0.95209 0.64093 0.94294 0.0
H625 H 0.95528 0.64357 0.82084 0.0
H626 H 0.95367 0.6731 0.89109 0.0
H627 H 0.99858 0.68966 0.82587 0.0
H628 H 0.99822 0.6608 0.75282 0.0
H629 H 0.0265 0.66749 0.82536 0.0
H630 H 0.03636 0.59083 0.05899 0.0
H631 H 0.03292 0.55505 0.94195 0.0
H632 H 0.98892 0.60752 0.76733 0.0
C633 C 0.99565 0.68827 0.02809 0.0
C634 C 1.00509 0.69501 0.11691 0.0
C635 C 0.01908 0.67521 0.16492 0.0
C636 C 0.02347 0.64957 0.12525 0.0
C637 C 1.01391 0.64381 0.03689 0.0
C638 C 1.0002 0.66284 0.98954 0.0
C639 C 0.99166 0.65228 0.8962 0.0
C640 C 0.96137 0.65248 0.88734 0.0
C641 C 1.00458 0.66851 0.82052 0.0
C642 C 1.00241 0.62405 0.89702 0.0
C643 C 1.01532 0.61948 0.97868 0.0
C644 C 0.02655 0.59463 0.99501 0.0
C645 C 0.02451 0.57427 0.92758 0.0
C646 C 1.01112 0.57828 0.84372 0.0
C647 C 0.99982 0.60371 0.82928 0.0
H648 H 0.98308 0.21921 0.03823 0.0
H649 H 0.02238 0.27757 0.21335 0.0
H650 H 0.03262 0.24322 0.32161 0.0
H651 H 0.95252 0.1865 0.21683 0.0
H652 H 0.9552 0.15395 0.16513 0.0
H653 H 0.95409 0.18264 0.09432 0.0
H654 H 1.0006 0.16926 0.01857 0.0
H655 H 0.99751 0.13985 0.08644 0.0
H656 H 0.02662 0.15977 0.09585 0.0
H657 H 0.03915 0.20417 0.41233 0.0
H658 H 0.0252 0.16678 0.50663 0.0
H659 H 0.98185 0.13314 0.27944 0.0
C660 C 0.9938 0.22491 0.09929 0.0
C661 C 1.00329 0.25107 0.11243 0.0
C662 C 0.01573 0.25769 0.19714 0.0
C663 C 0.02235 0.23812 0.25904 0.0
C664 C 0.01572 0.21214 0.23756 0.0
C665 C 1.00072 0.20559 0.16193 0.0
C666 C 0.99204 0.17697 0.16346 0.0
C667 C 0.96167 0.17491 0.15989 0.0
C668 C 1.00492 0.16057 0.08619 0.0
C669 C 1.00315 0.16913 0.25481 0.0
C670 C 0.01806 0.1893 0.29379 0.0
C671 C 0.0279 0.18804 0.38225 0.0
C672 C 0.02011 0.16675 0.43532 0.0
C673 C 1.0027 0.14758 0.39929 0.0
C674 C 0.99578 0.14752 0.3066 0.0
H675 H 0.33763 0.09617 0.21193 0.0
H676 H 0.27317 0.04681 0.30407 0.0
H677 H 0.29961 0.03212 0.43126 0.0
H678 H 0.37828 0.05362 0.19973 0.0
H679 H 0.40829 0.06896 0.24074 0.0
H680 H 0.38234 0.08916 0.19812 0.0
H681 H 0.38029 0.11584 0.35014 0.0
H682 H 0.40714 0.09596 0.39268 0.0
H683 H 0.37674 0.09876 0.45666 0.0
H684 H 0.3344 1.00536 0.48267 0.0
H685 H 0.37321 0.97593 0.47245 0.0
H686 H 0.41891 0.03885 0.3528 0.0
C687 C 0.32886 0.08345 0.26248 0.0
C688 C 0.30377 0.07224 0.24695 0.0
C689 C 0.29236 0.05591 0.31411 0.0
C690 C 0.30743 0.04729 0.38726 0.0
C691 C 0.33384 0.05498 0.39196 0.0
C692 C 0.34436 0.07366 0.3333 0.0
C693 C 0.37433 0.07311 0.33473 0.0
C694 C 0.38645 0.07102 0.23768 0.0
C695 C 0.38526 0.09736 0.38671 0.0
C696 C 0.37864 0.04824 0.38879 0.0
C697 C 0.3552 0.03886 0.42546 0.0
C698 C 0.35308 1.01314 0.45902 0.0
C699 C 0.37499 0.9964 0.452 0.0
C700 C 0.39857 1.00568 0.41287 0.0
C701 C 0.40092 0.03206 0.38522 0.0
H702 H 0.48107 0.32207 0.30111 0.0
H703 H 0.53655 0.28519 0.11361 0.0
H704 H 0.57233 0.31312 0.17393 0.0
H705 H 0.49778 0.38097 0.27337 0.0
H706 H 0.49629 0.3946 0.38765 0.0
H707 H 0.47707 0.36593 0.35852 0.0
H708 H 0.49845 0.33889 0.48659 0.0
H709 H 0.51701 0.36812 0.51867 0.0
H710 H 0.53402 0.33726 0.49585 0.0
H711 H 0.59258 0.35579 0.19543 0.0
H712 H 0.60326 0.4026 0.22211 0.0
H713 H 0.54195 0.40645 0.43125 0.0
C714 C 0.50122 0.3187 0.27858 0.0
C715 C 0.50661 0.30182 0.20448 0.0
C716 C 0.53266 0.29802 0.17213 0.0
C717 C 0.553 0.31377 0.2057 0.0
C718 C 0.54685 0.33221 0.2736 0.0
C719 C 0.52196 0.33381 0.31364 0.0
C720 C 0.51963 0.35787 0.37503 0.0
C721 C 0.49636 0.37588 0.34679 0.0
C722 C 0.51715 0.34995 0.4751 0.0
C723 C 0.54608 0.37055 0.35641 0.0
C724 C 0.56123 0.3558 0.2962 0.0
C725 C 0.58233 0.36683 0.24856 0.0
C726 C 0.58829 0.39351 0.26419 0.0
C727 C 0.57377 0.40848 0.32936 0.0
C728 C 0.55338 0.39612 0.37942 0.0
H729 H 0.22199 0.45211 0.28328 0.0
H730 H 0.27922 0.51563 0.27834 0.0
H731 H 0.24876 0.54466 0.35957 0.0
H732 H 0.17608 0.47753 0.21344 0.0
H733 H 0.14798 0.46859 0.28246 0.0
H734 H 0.17659 0.44786 0.2808 0.0
H735 H 0.18178 0.45169 0.45447 0.0
H736 H 0.15244 0.47205 0.46096 0.0
H737 H 0.18311 0.48376 0.50953 0.0
H738 H 0.20918 0.57066 0.34993 0.0
H739 H 0.16481 0.58869 0.31468 0.0
H740 H 0.13168 0.50993 0.33234 0.0
C741 C 0.22871 0.47133 0.30738 0.0
C742 C 0.25222 0.48194 0.27225 0.0
C743 C 0.26103 0.50709 0.30379 0.0
C744 C 0.24366 0.52398 0.34985 0.0
C745 C 0.21829 0.51483 0.36742 0.0
C746 C 0.21128 0.4884 0.35348 0.0
C747 C 0.18162 0.48489 0.36022 0.0
C748 C 0.16992 0.46882 0.27933 0.0
C749 C 0.17426 0.47237 0.45175 0.0
C750 C 0.17327 0.51355 0.35865 0.0
C751 C 0.19453 0.5306 0.36676 0.0
C752 C 0.19216 0.55769 0.34901 0.0
C753 C 0.16725 0.56768 0.3263 0.0
C754 C 0.14549 0.55043 0.32042 0.0
C755 C 0.14846 0.52324 0.33694 0.0
H756 H 0.95979 0.81127 0.06688 0.0
H757 H 0.99021 0.84891 0.31392 0.0
H758 H 0.99818 0.88878 0.23561 0.0
H759 H 1.00302 0.82719 0.92812 0.0
H760 H 0.98466 0.83797 0.82999 0.0
H761 H 0.96939 0.81628 0.90967 0.0
H762 H 0.93102 0.84999 0.93104 0.0
H763 H 0.94672 0.87209 0.85178 0.0
H764 H 0.93822 0.88368 0.96481 0.0
H765 H 0.01738 0.91725 0.13517 0.0
H766 H 0.04822 0.92998 0.01659 0.0
H767 H 1.00833 0.8785 0.82266 0.0
C768 C 0.96685 0.82842 0.10468 0.0
C769 C 0.9732 0.8266 0.19808 0.0
C770 C 0.98365 0.8493 0.24424 0.0
C771 C 0.98826 0.87272 0.19991 0.0
C772 C 0.98261 0.87377 0.10798 0.0
C773 C 0.97174 0.85247 0.06026 0.0
C774 C 0.97293 0.85744 0.95866 0.0
C775 C 0.98318 0.83328 0.90358 0.0
C776 C 0.94562 0.86631 0.92451 0.0
C777 C 0.99197 0.88062 0.95829 0.0
C778 C 0.99495 0.89132 0.04505 0.0
C779 C 1.01443 0.90986 0.06625 0.0
C780 C 0.03212 0.91678 0.9984 0.0
C781 C 0.03015 0.90537 0.90996 0.0
C782 C 1.00951 0.88768 0.88918 0.0
H783 H 0.74226 1.00861 0.15971 0.0
H784 H 0.71365 0.92836 0.12093 0.0
H785 H 0.68061 0.94486 1.00848 0.0
H786 H 0.67943 0.03308 0.18058 0.0
H787 H 0.68729 0.06509 0.13485 0.0
H788 H 0.71232 0.04639 0.1923 0.0
H789 H 0.74308 0.04814 0.05035 0.0
H790 H 0.71859 0.06772 0.9931 0.0
H791 H 0.73061 0.03751 0.9405 0.0
H792 H 0.64948 0.97265 0.90516 0.0
H793 H 0.62168 1.00762 0.8362 0.0
H794 H 0.66827 0.06793 0.9757 0.0
C795 C 0.72997 0.9942 0.12424 0.0
C796 C 0.73106 0.96714 0.14502 0.0
C797 C 0.71351 0.94906 0.10254 0.0
C798 C 0.69472 0.95832 0.03963 0.0
C799 C 0.69357 0.98559 0.02394 0.0
C800 C 0.71064 1.00313 0.06672 0.0
C801 C 0.70306 0.03156 0.0542 0.0
C802 C 0.69504 0.04478 0.14585 0.0
C803 C 0.72516 0.04713 1.00667 0.0
C804 C 0.67972 0.02766 0.9932 0.0
C805 C 0.67438 1.00119 0.97534 0.0
C806 C 0.65353 0.99338 0.91907 0.0
C807 C 0.63793 1.0133 0.88042 0.0
C808 C 0.64331 0.04043 0.89977 0.0
C809 C 0.66428 0.04745 0.95722 0.0
H810 H 0.55022 0.75954 0.0891 0.0
H811 H 0.62618 0.73202 0.18289 0.0
H812 H 0.62436 0.69501 0.07148 0.0
H813 H 0.52515 0.70364 0.12869 0.0
H814 H 0.49979 0.7032 0.0424 0.0
H815 H 0.51239 0.73411 0.08343 0.0
H816 H 0.5245 0.74709 0.91911 0.0
H817 H 0.51241 0.71574 0.87563 0.0
H818 H 0.54578 0.72612 0.85086 0.0
H819 H 0.60859 0.65477 1.00266 0.0
H820 H 0.58012 0.61511 0.99912 0.0
H821 H 0.51125 0.66444 0.96366 0.0
C822 C 0.56735 0.74682 0.08059 0.0
C823 C 0.58875 0.74891 0.14164 0.0
C824 C 0.61014 0.73113 0.13408 0.0
C825 C 0.60906 0.71001 0.0711 0.0
C826 C 0.58609 0.70656 0.01909 0.0
C827 C 0.5654 0.72458 0.02398 0.0
C828 C 0.53968 0.71255 0.99053 0.0
C829 C 0.51807 0.71341 0.06571 0.0
C830 C 0.53003 0.72617 0.90377 0.0
C831 C 0.54876 0.68456 0.97058 0.0
C832 C 0.5758 0.68175 0.98372 0.0
C833 C 0.58769 0.65682 0.98877 0.0
C834 C 0.57149 0.63441 0.98694 0.0
C835 C 0.54391 0.63732 0.98009 0.0
C836 C 0.53256 0.66226 0.96596 0.0
H837 H 0.83049 0.61693 0.20047 0.0
H838 H 0.78391 0.5673 0.01931 0.0
H839 H 0.82205 0.56106 0.9196 0.0
H840 H 0.88994 0.63425 0.03415 0.0
H841 H 0.91239 0.62767 0.12653 0.0
H842 H 0.88079 0.64302 0.14976 0.0
H843 H 0.87052 0.60581 0.26609 0.0
H844 H 0.90162 0.59057 0.24158 0.0
H845 H 0.87167 0.57168 0.22749 0.0
H846 H 0.86479 0.54252 0.88365 0.0
H847 H 0.90618 0.51805 0.90777 0.0
H848 H 0.92814 0.57373 0.12227 0.0
C849 C 0.82813 0.60615 0.13657 0.0
C850 C 0.80468 0.59184 0.1197 0.0
C851 C 0.80173 0.57836 0.03489 0.0
C852 C 0.82361 0.57443 0.97778 0.0
C853 C 0.84812 0.58398 1.00687 0.0
C854 C 0.85047 0.6001 0.08411 0.0
C855 C 0.87871 0.6006 0.1188 0.0
C856 C 0.89119 0.62803 0.10651 0.0
C857 C 0.88067 0.59162 0.21921 0.0
C858 C 0.89113 0.58054 0.05478 0.0
C859 C 0.87357 0.57192 0.98841 0.0
C860 C 0.87905 0.5499 0.9328 0.0
C861 C 0.90256 0.53599 0.94735 0.0
C862 C 0.92012 0.54407 0.01752 0.0
C863 C 0.91486 0.56723 0.06858 0.0
H864 H 0.04567 0.22748 0.78932 0.0
H865 H 0.06811 0.21218 0.06849 0.0
H866 H 0.06856 0.16392 0.03359 0.0
H867 H 1.00231 0.17716 0.76387 0.0
H868 H 1.00954 0.1653 0.65091 0.0
H869 H 0.01574 0.19953 0.68103 0.0
H870 H 0.06437 0.19814 0.64122 0.0
H871 H 0.06177 0.16428 0.60101 0.0
H872 H 0.08553 0.17289 0.68728 0.0
H873 H 0.04786 0.1173 0.9788 0.0
H874 H 0.0322 0.07778 0.89186 0.0
H875 H 0.03721 0.12094 0.64197 0.0
C876 C 0.05179 0.21407 0.8423 0.0
C877 C 0.05748 0.22409 0.93162 0.0
C878 C 0.06442 0.20546 0.99914 0.0
C879 C 0.06391 0.17781 0.98043 0.0
C880 C 0.05612 0.16865 0.89389 0.0
C881 C 0.05169 0.18636 0.82457 0.0
C882 C 0.04465 0.17153 0.73652 0.0
C883 C 0.01646 0.17886 0.70607 0.0
C884 C 0.06525 0.17706 0.662 0.0
C885 C 0.04582 0.14273 0.76656 0.0
C886 C 0.051 0.14148 0.85883 0.0
C887 C 0.0467 0.11775 0.9051 0.0
C888 C 0.03883 0.09477 0.85497 0.0
C889 C 0.03783 0.0944 0.75848 0.0
C890 C 0.04038 0.1194 0.71478 0.0
H891 H 0.34553 0.08435 0.93748 0.0
H892 H 0.30525 1.00931 0.89747 0.0
H893 H 0.34416 0.99213 0.81227 0.0
H894 H 0.38004 0.08419 0.70967 0.0
H895 H 0.40941 0.09933 0.75658 0.0
H896 H 0.37756 0.10653 0.80656 0.0
H897 H 0.39395 0.09097 0.96558 0.0
H898 H 0.42529 0.08588 0.91097 0.0
H899 H 0.4102 0.05918 0.97307 0.0
H900 H 0.38942 0.98111 0.75059 0.0
H901 H 0.43524 0.97754 0.70017 0.0
H902 H 0.44725 0.06112 0.76146 0.0
C903 C 0.34454 0.06454 0.90831 0.0
C904 C 0.32184 0.04832 0.92394 0.0
C905 C 0.32183 0.02239 0.88556 0.0
C906 C 0.34409 1.01237 0.8377 0.0
C907 C 0.36634 0.02856 0.82665 0.0
C908 C 0.36647 0.05435 0.85863 0.0
C909 C 0.39319 0.06731 0.8388 0.0
C910 C 0.38983 0.09073 0.774 0.0
C911 C 0.40639 0.07629 0.92792 0.0
C912 C 0.40857 0.04456 0.7928 0.0
C913 C 0.39245 0.02243 0.78754 0.0
C914 C 0.402 0.99844 0.75352 0.0
C915 C 0.42847 0.9967 0.72488 0.0
C916 C 0.44597 0.01881 0.7277 0.0
C917 C 0.43531 0.04346 0.7604 0.0
H918 H 0.51209 0.3242 0.88873 0.0
H919 H 0.42741 0.32514 0.93159 0.0
H920 H 0.42491 0.36919 0.86004 0.0
H921 H 0.52502 0.39061 0.9384 0.0
H922 H 0.54928 0.39581 0.85004 0.0
H923 H 0.54431 0.36314 0.89478 0.0
H924 H 0.53616 0.34536 0.73334 0.0
H925 H 0.53926 0.37777 0.68378 0.0
H926 H 0.50944 0.35854 0.66735 0.0
H927 H 0.43232 0.41582 0.80156 0.0
H928 H 0.44781 0.45885 0.74578 0.0
H929 H 0.52819 0.42885 0.73404 0.0
C930 C 0.49283 0.33302 0.8784 0.0
C931 C 0.46966 0.32024 0.91226 0.0
C932 C 0.44516 0.33353 0.90232 0.0
C933 C 0.44368 0.35893 0.8632 0.0
C934 C 0.46689 0.37119 0.83324 0.0
C935 C 0.491 0.35847 0.83878 0.0
C936 C 0.51301 0.37635 0.80268 0.0
C937 C 0.53415 0.3818 0.87589 0.0
C938 C 0.52529 0.36381 0.71659 0.0
C939 C 0.49774 0.40156 0.77952 0.0
C940 C 0.47112 0.39798 0.79775 0.0
C941 C 0.45305 0.41854 0.78579 0.0
C942 C 0.46216 0.44315 0.75423 0.0
C943 C 0.48929 0.44769 0.73445 0.0
C944 C 0.50727 0.42623 0.74669 0.0
H945 H 0.19711 0.50365 0.06155 0.0
H946 H 0.24709 0.48177 0.83099 0.0
H947 H 0.20861 0.48763 0.72812 0.0
H948 H 0.14065 0.4662 0.98589 0.0
H949 H 0.11691 0.48979 0.03002 0.0
H950 H 0.1486 0.48652 0.08423 0.0
H951 H 0.15766 0.53641 0.06486 0.0
H952 H 0.12584 0.54015 0.01159 0.0
H953 H 0.15532 0.55071 0.95308 0.0
H954 H 0.16282 0.4955 0.65019 0.0
H955 H 0.11603 0.50272 0.60695 0.0
H956 H 0.09577 0.51477 0.89206 0.0
C957 C 0.2003 0.49943 0.98982 0.0
C958 C 0.22571 0.49149 0.95588 0.0
C959 C 0.2283 0.48783 0.86001 0.0
C960 C 0.20633 0.49094 0.80086 0.0
C961 C 0.18154 0.49759 0.83784 0.0
C962 C 0.17852 0.50167 0.93055 0.0
C963 C 0.14974 0.50763 0.95478 0.0
C964 C 0.13832 0.48625 0.0174 0.0
C965 C 0.147 0.53537 0.99865 0.0
C966 C 0.13685 0.50643 0.86118 0.0
C967 C 0.15549 0.50089 0.79431 0.0
C968 C 0.1482 0.49955 0.70237 0.0
C969 C 0.12146 0.50377 0.67839 0.0
C970 C 0.10186 0.50894 0.74583 0.0
C971 C 0.10994 0.51029 0.83857 0.0
H972 H 0.96886 0.83027 0.51445 0.0
H973 H 0.04605 0.81574 0.39435 0.0
H974 H 0.06022 0.86062 0.44546 0.0
H975 H 0.96511 0.89835 0.43555 0.0
H976 H 0.94652 0.90952 0.53404 0.0
H977 H 0.94365 0.87572 0.49403 0.0
H978 H 0.95452 0.86126 0.65329 0.0
H979 H 0.96223 0.89375 0.6988 0.0
H980 H 0.98658 0.86752 0.69991 0.0
H981 H 0.06376 0.91101 0.49298 0.0
H982 H 0.05912 0.95655 0.5553 0.0
H983 H 0.97958 0.93859 0.64481 0.0
C984 C 0.98901 0.83609 0.49997 0.0
C985 C 1.00626 0.81859 0.44984 0.0
C986 C 0.0324 0.82783 0.43392 0.0
C987 C 0.04044 0.85381 0.46091 0.0
C988 C 0.02216 0.871 0.50324 0.0
C989 C 0.99697 0.86228 0.52296 0.0
C990 C 0.9806 0.88464 0.56641 0.0
C991 C 0.95761 0.89251 0.50375 0.0
C992 C 0.97034 0.87643 0.66035 0.0
C993 C 1.00083 0.90707 0.57301 0.0
C994 C 0.02444 0.8991 0.53313 0.0
C995 C 0.04538 0.91706 0.52507 0.0
C996 C 0.04251 0.94317 0.56057 0.0
C997 C 0.019 0.95163 0.60551 0.0
C998 C 0.99786 0.93305 0.61092 0.0
H999 H 0.70435 0.96418 0.48142 0.0
H1000 H 0.72578 0.04 0.36764 0.0
H1001 H 0.68321 0.05865 0.42194 0.0
H1002 H 0.63888 0.96516 0.4218 0.0
H1003 H 0.62475 0.95076 0.52361 0.0
H1004 H 0.65821 0.94319 0.49013 0.0
H1005 H 0.67656 0.95935 0.64296 0.0
H1006 H 0.64326 0.96566 0.68183 0.0
H1007 H 0.66764 0.9917 0.68695 0.0
H1008 H 0.6371 0.0684 0.47685 0.0
H1009 H 0.59246 0.07097 0.54123 0.0
H1010 H 0.59785 0.98898 0.62501 0.0
C1011 C 0.70057 0.98504 0.47109 0.0
C1012 C 0.71922 1.0007 0.42141 0.0
C1013 C 0.71271 0.02766 0.40735 0.0
C1014 C 0.68821 0.03833 0.43703 0.0
C1015 C 0.67009 0.02209 0.48236 0.0
C1016 C 0.6762 0.99618 0.5016 0.0
C1017 C 0.6527 0.98291 0.54955 0.0
C1018 C 0.64298 0.95907 0.49287 0.0
C1019 C 0.66051 0.97441 0.64608 0.0
C1020 C 0.63206 1.00534 0.55301 0.0
C1021 C 0.64292 0.02765 0.51354 0.0
C1022 C 0.62858 0.0511 0.50819 0.0
C1023 C 0.60297 0.05232 0.54536 0.0
C1024 C 0.59084 0.03031 0.58785 0.0
C1025 C 0.60588 1.0062 0.59157 0.0
H1026 H 0.5662 0.73068 0.52141 0.0
H1027 H 0.51255 0.7241 0.29209 0.0
H1028 H 0.49989 0.6792 0.34056 0.0
H1029 H 0.58851 0.66495 0.52316 0.0
H1030 H 0.58876 0.66079 0.6451 0.0
H1031 H 0.59282 0.69331 0.59801 0.0
H1032 H 0.55298 0.71065 0.69253 0.0
H1033 H 0.54931 0.67827 0.74159 0.0
H1034 H 0.5217 0.6936 0.68531 0.0
H1035 H 0.49876 0.63266 0.39758 0.0
H1036 H 0.50096 0.59045 0.47945 0.0
H1037 H 0.55003 0.62715 0.68792 0.0
C1038 C 0.5508 0.72028 0.48425 0.0
C1039 C 0.53964 0.73148 0.40425 0.0
C1040 C 0.52057 0.71654 0.3551 0.0
C1041 C 0.51357 0.69078 0.3815 0.0
C1042 C 0.52529 0.68013 0.45899 0.0
C1043 C 0.54282 0.69465 0.51179 0.0
C1044 C 0.55224 0.67814 0.59244 0.0
C1045 C 0.58237 0.67407 0.58943 0.0
C1046 C 0.54353 0.69092 0.6834 0.0
C1047 C 0.53771 0.65204 0.57539 0.0
C1048 C 0.52275 0.65363 0.49669 0.0
C1049 C 0.50955 0.63158 0.46113 0.0
C1050 C 0.51093 0.60762 0.50831 0.0
C1051 C 0.52457 0.60571 0.59246 0.0
C1052 C 0.53849 0.62825 0.62592 0.0
H1053 H 0.81897 0.57426 0.49094 0.0
H1054 H 0.81946 0.50769 0.30112 0.0
H1055 H 0.86411 0.49541 0.35415 0.0
H1056 H 0.88586 0.59152 0.471 0.0
H1057 H 0.89177 0.59946 0.58952 0.0
H1058 H 0.85897 0.6026 0.543 0.0
H1059 H 0.84046 0.57118 0.66587 0.0
H1060 H 0.87312 0.56847 0.71397 0.0
H1061 H 0.85533 0.53901 0.68 0.0
H1062 H 0.91242 0.4971 0.40121 0.0
H1063 H 0.9558 0.50246 0.4747 0.0
H1064 H 0.92296 0.56098 0.662 0.0
C1065 C 0.82782 0.55617 0.46446 0.0
C1066 C 0.81489 0.54134 0.39362 0.0
C1067 C 0.82812 0.51873 0.35754 0.0
C1068 C 0.85385 0.51193 0.38614 0.0
C1069 C 0.86628 0.52745 0.45321 0.0
C1070 C 0.85333 0.54846 0.49499 0.0
C1071 C 0.87146 0.56163 0.56623 0.0
C1072 C 0.87734 0.59052 0.54093 0.0
C1073 C 0.85936 0.55997 0.66222 0.0
C1074 C 0.89646 0.54467 0.55817 0.0
C1075 C 0.89323 0.52581 0.4896 0.0
C1076 C 0.91453 0.51052 0.45902 0.0
C1077 C 0.93916 0.51345 0.50247 0.0
C1078 C 0.9424 0.53009 0.58059 0.0
C1079 C 0.9208 0.54669 0.60671 0.0
loop_
_geom_bond_atom_site_label_1
_geom_bond_atom_site_label_2
_geom_bond_distance
_geom_bond_site_symmetry_2
_ccdc_geom_bond_type
H0 C5 0.930 . S
H1 C8 0.930 . S
H2 C10 0.930 . S
H3 C4 1.016 . S
C4 H3 1.016 . S
C4 N11 1.286 . S
C5 H0 0.930 . S
C5 C6 1.397 . S
C5 C7 1.361 . S
C6 C5 1.397 . S
C6 C10 1.390 . S
C7 C5 1.361 . S
C7 C8 1.393 . S
C7 N11 1.413 . S
C8 H1 0.930 . S
C8 C7 1.393 . S
C8 C9 1.399 . S
C9 C8 1.399 . S
C9 C10 1.381 . S
C10 H2 0.930 . S
C10 C6 1.390 . S
C10 C9 1.381 . S
N11 C4 1.286 . S
N11 C7 1.413 . S
H12 C17 0.930 . S
H13 C20 0.930 . S
H14 C22 0.930 . S
H15 C16 1.016 . S
C16 H15 1.016 . S
C16 N23 1.286 . S
C17 H12 0.930 . S
C17 C18 1.397 . S
C17 C19 1.361 . S
C18 C17 1.397 . S
C18 C22 1.390 . S
C19 C17 1.361 . S
C19 C20 1.393 . S
C19 N23 1.413 . S
C20 H13 0.930 . S
C20 C19 1.393 . S
C20 C21 1.399 . S
C21 C20 1.399 . S
C21 C22 1.381 . S
C22 H14 0.930 . S
C22 C18 1.390 . S
C22 C21 1.381 . S
N23 C16 1.286 . S
N23 C19 1.413 . S
H24 C29 0.930 . S
H25 C32 0.930 . S
H26 C34 0.930 . S
H27 C28 1.016 . S
C28 H27 1.016 . S
C28 N35 1.286 . S
C29 H24 0.930 . S
C29 C30 1.397 . S
C29 C31 1.361 . S
C30 C29 1.397 . S
C30 C34 1.390 . S
C31 C29 1.361 . S
C31 C32 1.393 . S
C31 N35 1.413 . S
C32 H25 0.930 . S
C32 C31 1.393 . S
C32 C33 1.399 . S
C33 C32 1.399 . S
C33 C34 1.381 . S
C34 H26 0.930 . S
C34 C30 1.390 . S
C34 C33 1.381 . S
N35 C28 1.286 . S
N35 C31 1.413 . S
H36 C41 0.930 . S
H37 C44 0.930 . S
H38 C46 0.930 . S
H39 C40 1.016 . S
C40 H39 1.016 . S
C40 N47 1.286 . S
C41 H36 0.930 . S
C41 C42 1.397 . S
C41 C43 1.361 . S
C42 C41 1.397 . S
C42 C46 1.390 . S
C43 C41 1.361 . S
C43 C44 1.393 . S
C43 N47 1.413 . S
C44 H37 0.930 . S
C44 C43 1.393 . S
C44 C45 1.399 . S
C45 C44 1.399 . S
C45 C46 1.381 . S
C46 H38 0.930 . S
C46 C42 1.390 . S
C46 C45 1.381 . S
N47 C40 1.286 . S
N47 C43 1.413 . S
H48 C53 0.930 . S
H49 C56 0.930 . S
H50 C58 0.930 . S
H51 C52 1.016 . S
C52 H51 1.016 . S
C52 N59 1.286 . S
C53 H48 0.930 . S
C53 C54 1.397 . S
C53 C55 1.361 1_556 S
C54 C53 1.397 . S
C54 C58 1.390 . S
C55 C53 1.361 1_554 S
C55 C56 1.393 . S
C55 N59 1.413 . S
C56 H49 0.930 . S
C56 C55 1.393 . S
C56 C57 1.399 . S
C57 C56 1.399 . S
C57 C58 1.381 1_554 S
C58 H50 0.930 . S
C58 C54 1.390 . S
C58 C57 1.381 1_556 S
N59 C52 1.286 . S
N59 C55 1.413 . S
H60 C65 0.930 . S
H61 C68 0.930 . S
H62 C70 0.930 . S
H63 C64 1.016 . S
C64 H63 1.016 . S
C64 N71 1.286 . S
C65 H60 0.930 . S
C65 C66 1.397 . S
C65 C67 1.361 1_556 S
C66 C65 1.397 . S
C66 C70 1.390 . S
C67 C65 1.361 1_554 S
C67 C68 1.393 . S
C67 N71 1.413 . S
C68 H61 0.930 . S
C68 C67 1.393 . S
C68 C69 1.399 . S
C69 C68 1.399 . S
C69 C70 1.381 1_554 S
C70 H62 0.930 . S
C70 C66 1.390 . S
C70 C69 1.381 1_556 S
N71 C64 1.286 . S
N71 C67 1.413 . S
H72 C77 0.930 . S
H73 C80 0.930 . S
H74 C82 0.930 . S
H75 C76 1.016 . S
C76 H75 1.016 . S
C76 N83 1.286 . S
C77 H72 0.930 . S
C77 C78 1.397 . S
C77 C79 1.368 . S
C78 C77 1.397 . S
C78 C82 1.390 . S
C79 C77 1.368 . S
C79 C80 1.387 1_556 S
C79 N83 1.412 1_556 S
C80 H73 0.930 . S
C80 C79 1.387 1_554 S
C80 C81 1.399 . S
C81 C80 1.399 . S
C81 C82 1.381 1_554 S
C82 H74 0.930 . S
C82 C78 1.390 . S
C82 C81 1.381 1_556 S
N83 C76 1.286 . S
N83 C79 1.412 1_554 S
H84 C89 0.930 . S
H85 C92 0.930 . S
H86 C94 0.930 . S
H87 C88 1.016 . S
C88 H87 1.016 . S
C88 N95 1.286 . S
C89 H84 0.930 . S
C89 C90 1.397 . S
C89 C91 1.361 1_556 S
C90 C89 1.397 . S
C90 C94 1.390 . S
C91 C89 1.361 1_554 S
C91 C92 1.393 . S
C91 N95 1.413 . S
C92 H85 0.930 . S
C92 C91 1.393 . S
C92 C93 1.399 . S
C93 C92 1.399 . S
C93 C94 1.381 1_554 S
C94 H86 0.930 . S
C94 C90 1.390 . S
C94 C93 1.381 1_556 S
N95 C88 1.286 . S
N95 C91 1.413 . S
Tb96 N127 2.660 1_565 S
Tb96 N134 2.600 1_565 S
Tb96 O140 2.546 . S
Tb96 O141 2.610 1_455 S
Tb96 O143 2.320 1_455 S
Tb96 O144 2.552 . S
Tb96 O145 2.413 . S
Tb96 O147 2.362 1_565 S
Tb96 O148 2.421 . S
Tb96 C160 2.833 . S
C97 C100 1.432 1_545 S
C97 C101 1.408 1_545 S
C97 N104 1.359 . S
C98 C100 1.417 . S
C98 C102 1.432 . S
C98 C110 1.410 . S
C99 C101 1.467 . S
C99 C102 1.317 . S
C99 H122 0.929 . S
C100 C97 1.432 1_565 S
C100 C98 1.417 . S
C100 N108 1.368 . S
C101 C97 1.408 1_565 S
C101 C99 1.467 . S
C101 C106 1.369 1_565 S
C102 C98 1.432 . S
C102 C99 1.317 . S
C102 H114 0.930 . S
C103 C105 1.392 . S
C103 C106 1.370 . S
C103 H115 0.931 . S
N104 C97 1.359 . S
N104 C105 1.327 . S
N104 Tb107 2.600 . S
C105 C103 1.392 . S
C105 N104 1.327 . S
C105 H112 0.930 . S
C106 C101 1.369 1_545 S
C106 C103 1.370 . S
C106 H125 0.930 . S
Tb107 N104 2.600 . S
Tb107 N108 2.640 1_545 S
Tb107 O141 2.362 1_545 S
Tb107 O142 2.421 . S
Tb107 O146 2.546 . S
Tb107 O147 2.610 1_655 S
Tb107 O149 2.320 1_655 S
Tb107 O150 2.552 1_655 S
Tb107 O151 2.413 . S
Tb107 C171 2.833 . S
N108 C100 1.368 . S
N108 Tb107 2.640 1_565 S
N108 C109 1.319 1_655 S
C109 N108 1.319 1_455 S
C109 C111 1.407 . S
C109 H116 0.930 . S
C110 C98 1.410 . S
C110 C111 1.345 1_655 S
C110 H118 0.930 . S
C111 C109 1.407 . S
C111 C110 1.345 1_455 S
C111 H113 0.930 . S
H112 C105 0.930 . S
H113 C111 0.930 . S
H114 C102 0.930 . S
H115 C103 0.931 . S
H116 C109 0.930 . S
H117 C131 0.930 1_655 S
H118 C110 0.930 . S
H119 C137 0.930 . S
H120 C128 0.930 1_655 S
H121 C135 0.931 . S
H122 C99 0.929 . S
H123 C129 0.930 . S
H124 C162 0.930 . S
H125 C106 0.930 . S
H126 C161 0.929 . S
N127 Tb96 2.660 1_545 S
N127 C128 1.305 . S
N127 C132 1.360 . S
C128 H120 0.930 1_455 S
C128 N127 1.305 . S
C128 C131 1.407 1_556 S
C129 H123 0.930 . S
C129 C130 1.410 . S
C129 C131 1.345 . S
C130 C129 1.410 . S
C130 C132 1.417 1_554 S
C130 C162 1.432 . S
C131 H117 0.930 1_455 S
C131 C128 1.407 1_554 S
C131 C129 1.345 . S
C132 N127 1.360 . S
C132 C130 1.417 1_556 S
C132 C136 1.432 . S
H133 C138 0.930 . S
N134 Tb96 2.600 1_545 S
N134 C136 1.359 . S
N134 C137 1.327 1_545 S
C135 H121 0.931 . S
C135 C137 1.392 . S
C135 C138 1.370 1_565 S
C136 C132 1.432 . S
C136 N134 1.359 . S
C136 C139 1.414 . S
C137 H119 0.930 . S
C137 N134 1.327 1_565 S
C137 C135 1.392 . S
C138 H133 0.930 . S
C138 C135 1.370 1_545 S
C138 C139 1.385 . S
C139 C136 1.414 . S
C139 C138 1.385 . S
C139 C161 1.444 1_556 S
O140 Tb96 2.546 . S
O140 C160 1.251 . S
O141 Tb96 2.610 1_655 S
O141 Tb107 2.362 1_565 S
O141 C152 1.283 . S
O142 Tb107 2.421 . S
O142 C159 1.262 . S
O143 Tb96 2.320 1_655 S
O143 C159 1.260 1_565 S
O144 Tb96 2.552 . S
O144 C152 1.243 1_455 S
O145 Tb96 2.413 . S
O145 C160 1.256 . S
O146 Tb107 2.546 . S
O146 C171 1.251 . S
O147 Tb96 2.362 1_545 S
O147 Tb107 2.610 1_455 S
O147 C163 1.283 . S
O148 Tb96 2.421 . S
O148 C170 1.262 1_565 S
O149 Tb107 2.320 1_455 S
O149 C170 1.260 . S
O150 Tb107 2.552 1_455 S
O150 C163 1.243 . S
O151 Tb107 2.413 . S
O151 C171 1.256 . S
C152 O141 1.283 . S
C152 O144 1.243 1_655 S
C153 C155 1.382 . S
C153 C157 1.393 . S
C153 C160 1.500 . S
C154 C155 1.400 . S
C154 C156 1.384 1_556 S
C155 C153 1.382 . S
C155 C154 1.400 . S
C155 H172 0.963 . S
C156 C154 1.384 1_554 S
C156 C158 1.392 1_554 S
C156 H173 0.931 . S
C157 C153 1.393 . S
C157 C158 1.401 . S
C157 H174 0.930 . S
C158 C156 1.392 1_556 S
C158 C157 1.401 . S
C158 H175 0.930 . S
C159 O142 1.262 . S
C159 O143 1.260 1_545 S
C160 Tb96 2.833 . S
C160 O140 1.251 . S
C160 O145 1.256 . S
C160 C153 1.500 . S
C161 H126 0.929 . S
C161 C139 1.444 1_554 S
C161 C162 1.317 . S
C162 H124 0.930 . S
C162 C130 1.432 . S
C162 C161 1.317 . S
C163 O147 1.283 . S
C163 O150 1.243 . S
C164 C165 1.382 . S
C164 C168 1.393 . S
C164 C171 1.500 . S
C165 C164 1.382 . S
C165 C166 1.400 . S
C165 H176 0.930 1_655 S
C166 C165 1.400 . S
C166 C167 1.384 . S
C167 C166 1.384 . S
C167 C169 1.392 . S
C167 H177 0.931 . S
C168 C164 1.393 . S
C168 C169 1.401 . S
C168 H178 0.930 . S
C169 C167 1.392 . S
C169 C168 1.401 . S
C169 H179 0.930 . S
C170 O148 1.262 1_545 S
C170 O149 1.260 . S
C171 Tb107 2.833 . S
C171 O146 1.251 . S
C171 O151 1.256 . S
C171 C164 1.500 . S
H172 C155 0.963 . S
H173 C156 0.931 . S
H174 C157 0.930 . S
H175 C158 0.930 . S
H176 C165 0.930 1_455 S
H177 C167 0.931 . S
H178 C168 0.930 . S
H179 C169 0.930 . S
Tb180 N211 2.660 . S
Tb180 N218 2.600 . S
Tb180 O224 2.546 . S
Tb180 O225 2.610 1_545 S
Tb180 O227 2.320 1_545 S
Tb180 O228 2.552 . S
Tb180 O229 2.413 . S
Tb180 O231 2.362 . S
Tb180 O232 2.421 . S
Tb180 C244 2.833 . S
C181 C184 1.432 . S
C181 C185 1.414 . S
C181 N188 1.359 . S
C182 C184 1.417 . S
C182 C186 1.432 . S
C182 C194 1.410 . S
C183 C185 1.444 . S
C183 C186 1.317 . S
C183 H206 0.929 . S
C184 C181 1.432 . S
C184 C182 1.417 . S
C184 N192 1.360 . S
C185 C181 1.414 . S
C185 C183 1.444 . S
C185 C190 1.385 . S
C186 C182 1.432 . S
C186 C183 1.317 . S
C186 H198 0.930 . S
C187 C189 1.392 . S
C187 C190 1.370 . S
C187 H199 0.931 . S
N188 C181 1.359 . S
N188 C189 1.327 . S
N188 Tb191 2.600 . S
C189 C187 1.392 . S
C189 N188 1.327 . S
C189 H196 0.930 . S
C190 C185 1.385 . S
C190 C187 1.370 . S
C190 H209 0.930 . S
Tb191 N188 2.600 . S
Tb191 N192 2.660 . S
Tb191 O225 2.362 . S
Tb191 O226 2.421 . S
Tb191 O230 2.546 . S
Tb191 O231 2.610 1_565 S
Tb191 O233 2.320 1_565 S
Tb191 O234 2.552 1_565 S
Tb191 O235 2.413 . S
Tb191 C255 2.833 . S
N192 C184 1.360 . S
N192 Tb191 2.660 . S
N192 C193 1.305 1_565 S
C193 N192 1.305 1_545 S
C193 C195 1.407 . S
C193 H200 0.930 . S
C194 C182 1.410 . S
C194 C195 1.345 1_565 S
C194 H202 0.930 . S
C195 C193 1.407 . S
C195 C194 1.345 1_545 S
C195 H197 0.930 . S
H196 C189 0.930 . S
H197 C195 0.930 . S
H198 C186 0.930 . S
H199 C187 0.931 . S
H200 C193 0.930 . S
H201 C215 0.930 1_565 S
H202 C194 0.930 . S
H203 C221 0.930 . S
H204 C212 0.930 1_565 S
H205 C219 0.931 . S
H206 C183 0.929 . S
H207 C213 0.930 . S
H208 C246 0.930 . S
H209 C190 0.930 . S
H210 C245 0.929 . S
N211 Tb180 2.660 . S
N211 C212 1.305 . S
N211 C216 1.360 . S
C212 H204 0.930 1_545 S
C212 N211 1.305 . S
C212 C215 1.407 1_556 S
C213 H207 0.930 . S
C213 C214 1.410 . S
C213 C215 1.345 . S
C214 C213 1.410 . S
C214 C216 1.417 1_554 S
C214 C246 1.432 . S
C215 H201 0.930 1_545 S
C215 C212 1.407 1_554 S
C215 C213 1.345 . S
C216 N211 1.360 . S
C216 C214 1.417 1_556 S
C216 C220 1.432 . S
H217 C222 0.930 . S
N218 Tb180 2.600 . S
N218 C220 1.359 . S
N218 C221 1.327 . S
C219 H205 0.931 . S
C219 C221 1.392 . S
C219 C222 1.370 . S
C220 C216 1.432 . S
C220 N218 1.359 . S
C220 C223 1.414 . S
C221 H203 0.930 . S
C221 N218 1.327 . S
C221 C219 1.392 . S
C222 H217 0.930 . S
C222 C219 1.370 . S
C222 C223 1.385 . S
C223 C220 1.414 . S
C223 C222 1.385 . S
C223 C245 1.444 1_556 S
O224 Tb180 2.546 . S
O224 C244 1.251 . S
O225 Tb180 2.610 1_565 S
O225 Tb191 2.362 . S
O225 C236 1.285 . S
O226 Tb191 2.421 . S
O226 C243 1.262 . S
O227 Tb180 2.320 1_565 S
O227 C243 1.260 . S
O228 Tb180 2.552 . S
O228 C236 1.215 1_545 S
O229 Tb180 2.413 . S
O229 C244 1.256 . S
O230 Tb191 2.546 . S
O230 C255 1.251 . S
O231 Tb180 2.362 . S
O231 Tb191 2.610 1_545 S
O231 C247 1.283 . S
O232 Tb180 2.421 . S
O232 C254 1.262 . S
O233 Tb191 2.320 1_545 S
O233 C254 1.260 . S
O234 Tb191 2.552 1_545 S
O234 C247 1.243 . S
O235 Tb191 2.413 . S
O235 C255 1.256 . S
C236 O225 1.285 . S
C236 O228 1.215 1_565 S
C237 C239 1.382 . S
C237 C241 1.393 . S
C237 C244 1.500 . S
C238 C239 1.400 . S
C238 C240 1.384 1_556 S
C239 C237 1.382 . S
C239 C238 1.400 . S
C239 H256 0.930 . S
C240 C238 1.384 1_554 S
C240 C242 1.392 1_554 S
C240 H257 0.931 . S
C241 C237 1.393 . S
C241 C242 1.401 . S
C241 H258 0.930 . S
C242 C240 1.392 1_556 S
C242 C241 1.401 . S
C242 H259 0.930 . S
C243 O226 1.262 . S
C243 O227 1.260 . S
C244 Tb180 2.833 . S
C244 O224 1.251 . S
C244 O229 1.256 . S
C244 C237 1.500 . S
C245 H210 0.929 . S
C245 C223 1.444 1_554 S
C245 C246 1.317 . S
C246 H208 0.930 . S
C246 C214 1.432 . S
C246 C245 1.317 . S
C247 O231 1.283 . S
C247 O234 1.243 . S
C248 C249 1.382 . S
C248 C252 1.393 . S
C248 C255 1.500 . S
C249 C248 1.382 . S
C249 C250 1.400 . S
C249 H260 0.930 1_565 S
C250 C249 1.400 . S
C250 C251 1.384 . S
C251 C250 1.384 . S
C251 C253 1.392 . S
C251 H261 0.931 . S
C252 C248 1.393 . S
C252 C253 1.401 . S
C252 H262 0.930 . S
C253 C251 1.392 . S
C253 C252 1.401 . S
C253 H263 0.930 . S
C254 O232 1.262 . S
C254 O233 1.260 . S
C255 Tb191 2.833 . S
C255 O230 1.251 . S
C255 O235 1.256 . S
C255 C248 1.500 . S
H256 C239 0.930 . S
H257 C240 0.931 . S
H258 C241 0.930 . S
H259 C242 0.930 . S
H260 C249 0.930 1_545 S
H261 C251 0.931 . S
H262 C252 0.930 . S
H263 C253 0.930 . S
Tb264 N295 2.660 . S
Tb264 N302 2.600 . S
Tb264 O308 2.546 . S
Tb264 O309 2.610 . S
Tb264 O311 2.320 . S
Tb264 O312 2.552 . S
Tb264 O313 2.413 . S
Tb264 O315 2.362 . S
Tb264 O316 2.421 . S
Tb264 C328 2.833 . S
C265 C268 1.432 . S
C265 C269 1.414 . S
C265 N272 1.359 . S
C266 C268 1.417 . S
C266 C270 1.432 . S
C266 C278 1.410 . S
C267 C269 1.444 . S
C267 C270 1.317 . S
C267 H290 0.929 . S
C268 C265 1.432 . S
C268 C266 1.417 . S
C268 N276 1.360 . S
C269 C265 1.414 . S
C269 C267 1.444 . S
C269 C274 1.385 . S
C270 C266 1.432 . S
C270 C267 1.317 . S
C270 H282 0.930 . S
C271 C273 1.392 . S
C271 C274 1.370 . S
C271 H283 0.931 . S
N272 C265 1.359 . S
N272 C273 1.327 . S
N272 Tb275 2.600 . S
C273 C271 1.392 . S
C273 N272 1.327 . S
C273 H280 0.930 . S
C274 C269 1.385 . S
C274 C271 1.370 . S
C274 H293 0.930 . S
Tb275 N272 2.600 . S
Tb275 N276 2.660 . S
Tb275 O309 2.362 . S
Tb275 O310 2.421 . S
Tb275 O314 2.546 . S
Tb275 O315 2.610 . S
Tb275 O317 2.320 . S
Tb275 O318 2.552 . S
Tb275 O319 2.413 . S
Tb275 C339 2.833 . S
N276 C268 1.360 . S
N276 Tb275 2.660 . S
N276 C277 1.305 . S
C277 N276 1.305 . S
C277 C279 1.407 . S
C277 H284 0.930 . S
C278 C266 1.410 . S
C278 C279 1.345 . S
C278 H286 0.930 . S
C279 C277 1.407 . S
C279 C278 1.345 . S
C279 H281 0.930 . S
H280 C273 0.930 . S
H281 C279 0.930 . S
H282 C270 0.930 . S
H283 C271 0.931 . S
H284 C277 0.930 . S
H285 C299 0.930 . S
H286 C278 0.930 . S
H287 C305 0.930 . S
H288 C296 0.930 . S
H289 C303 0.931 . S
H290 C267 0.929 . S
H291 C297 0.930 . S
H292 C330 0.930 . S
H293 C274 0.930 . S
H294 C329 0.929 . S
N295 Tb264 2.660 . S
N295 C296 1.305 . S
N295 C300 1.360 . S
C296 H288 0.930 . S
C296 N295 1.305 . S
C296 C299 1.407 . S
C297 H291 0.930 . S
C297 C298 1.410 . S
C297 C299 1.345 . S
C298 C297 1.410 . S
C298 C300 1.417 . S
C298 C330 1.432 . S
C299 H285 0.930 . S
C299 C296 1.407 . S
C299 C297 1.345 . S
C300 N295 1.360 . S
C300 C298 1.417 . S
C300 C304 1.432 . S
H301 C306 0.930 . S
N302 Tb264 2.600 . S
N302 C304 1.359 . S
N302 C305 1.327 . S
C303 H289 0.931 . S
C303 C305 1.392 . S
C303 C306 1.370 . S
C304 C300 1.432 . S
C304 N302 1.359 . S
C304 C307 1.414 . S
C305 H287 0.930 . S
C305 N302 1.327 . S
C305 C303 1.392 . S
C306 H301 0.930 . S
C306 C303 1.370 . S
C306 C307 1.385 . S
C307 C304 1.414 . S
C307 C306 1.385 . S
C307 C329 1.444 . S
O308 Tb264 2.546 . S
O308 C328 1.251 . S
O309 Tb264 2.610 . S
O309 Tb275 2.362 . S
O309 C320 1.283 . S
O310 Tb275 2.421 . S
O310 C327 1.262 . S
O311 Tb264 2.320 . S
O311 C327 1.260 . S
O312 Tb264 2.552 . S
O312 C320 1.243 . S
O313 Tb264 2.413 . S
O313 C328 1.256 . S
O314 Tb275 2.546 . S
O314 C339 1.251 . S
O315 Tb264 2.362 . S
O315 Tb275 2.610 . S
O315 C331 1.283 . S
O316 Tb264 2.421 . S
O316 C338 1.262 . S
O317 Tb275 2.320 . S
O317 C338 1.260 . S
O318 Tb275 2.552 . S
O318 C331 1.243 . S
O319 Tb275 2.413 . S
O319 C339 1.256 . S
C320 O309 1.283 . S
C320 O312 1.243 . S
C321 C323 1.382 . S
C321 C325 1.393 . S
C321 C328 1.500 . S
C322 C323 1.400 . S
C322 C324 1.384 . S
C323 C321 1.382 . S
C323 C322 1.400 . S
C323 H340 0.930 . S
C324 C322 1.384 . S
C324 C326 1.392 . S
C324 H341 0.931 . S
C325 C321 1.393 . S
C325 C326 1.401 . S
C325 H342 0.930 . S
C326 C324 1.392 . S
C326 C325 1.401 . S
C326 H343 0.930 . S
C327 O310 1.262 . S
C327 O311 1.260 . S
C328 Tb264 2.833 . S
C328 O308 1.251 . S
C328 O313 1.256 . S
C328 C321 1.500 . S
C329 H294 0.929 . S
C329 C307 1.444 . S
C329 C330 1.317 . S
C330 H292 0.930 . S
C330 C298 1.432 . S
C330 C329 1.317 . S
C331 O315 1.283 . S
C331 O318 1.243 . S
C332 C333 1.382 . S
C332 C336 1.393 1_556 S
C332 C339 1.500 . S
C333 C332 1.382 . S
C333 C334 1.400 1_556 S
C333 H344 0.930 . S
C334 C333 1.400 1_554 S
C334 C335 1.384 . S
C335 C334 1.384 . S
C335 C337 1.392 . S
C335 H345 0.931 . S
C336 C332 1.393 1_554 S
C336 C337 1.401 . S
C336 H346 0.930 . S
C337 C335 1.392 . S
C337 C336 1.401 . S
C337 H347 0.930 . S
C338 O316 1.262 . S
C338 O317 1.260 . S
C339 Tb275 2.833 . S
C339 O314 1.251 . S
C339 O319 1.256 . S
C339 C332 1.500 . S
H340 C323 0.930 . S
H341 C324 0.931 . S
H342 C325 0.930 . S
H343 C326 0.930 . S
H344 C333 0.930 . S
H345 C335 0.931 . S
H346 C336 0.930 . S
H347 C337 0.930 . S
Tb348 N379 2.660 . S
Tb348 N386 2.600 . S
Tb348 O392 2.546 . S
Tb348 O393 2.610 . S
Tb348 O395 2.320 . S
Tb348 O396 2.552 . S
Tb348 O397 2.413 . S
Tb348 O399 2.362 . S
Tb348 O400 2.421 1_455 S
Tb348 C412 2.833 . S
C349 C352 1.432 . S
C349 C353 1.414 . S
C349 N356 1.359 . S
C350 C352 1.417 . S
C350 C354 1.432 . S
C350 C362 1.410 . S
C351 C353 1.444 . S
C351 C354 1.317 . S
C351 H374 0.929 . S
C352 C349 1.432 . S
C352 C350 1.417 . S
C352 N360 1.360 . S
C353 C349 1.414 . S
C353 C351 1.444 . S
C353 C358 1.385 1_655 S
C354 C350 1.432 . S
C354 C351 1.317 . S
C354 H366 0.930 . S
C355 C357 1.392 . S
C355 C358 1.370 . S
C355 H367 0.931 . S
N356 C349 1.359 . S
N356 C357 1.327 1_655 S
N356 Tb359 2.600 . S
C357 C355 1.392 . S
C357 N356 1.327 1_455 S
C357 H364 0.930 . S
C358 C353 1.385 1_455 S
C358 C355 1.370 . S
C358 H377 0.930 . S
Tb359 N356 2.600 . S
Tb359 N360 2.660 . S
Tb359 O393 2.362 1_655 S
Tb359 O394 2.421 1_655 S
Tb359 O398 2.546 . S
Tb359 O399 2.610 1_655 S
Tb359 O401 2.320 . S
Tb359 O402 2.552 . S
Tb359 O403 2.413 . S
Tb359 C423 2.833 . S
N360 C352 1.360 . S
N360 Tb359 2.660 . S
N360 C361 1.305 . S
C361 N360 1.305 . S
C361 C363 1.407 . S
C361 H368 0.930 . S
C362 C350 1.410 . S
C362 C363 1.345 . S
C362 H370 0.930 . S
C363 C361 1.407 . S
C363 C362 1.345 . S
C363 H365 0.930 . S
H364 C357 0.930 . S
H365 C363 0.930 . S
H366 C354 0.930 . S
H367 C355 0.931 . S
H368 C361 0.930 . S
H369 C383 0.930 . S
H370 C362 0.930 . S
H371 C389 0.928 1_655 S
H372 C380 0.930 . S
H373 C387 0.931 . S
H374 C351 0.929 . S
H375 C381 0.930 . S
H376 C414 0.930 . S
H377 C358 0.930 . S
H378 C413 0.929 . S
N379 Tb348 2.660 . S
N379 C380 1.305 . S
N379 C384 1.360 . S
C380 H372 0.930 . S
C380 N379 1.305 . S
C380 C383 1.407 . S
C381 H375 0.930 . S
C381 C382 1.410 . S
C381 C383 1.345 . S
C382 C381 1.410 . S
C382 C384 1.417 . S
C382 C414 1.432 . S
C383 H369 0.930 . S
C383 C380 1.407 . S
C383 C381 1.345 . S
C384 N379 1.360 . S
C384 C382 1.417 . S
C384 C388 1.432 . S
H385 C390 0.930 . S
N386 Tb348 2.600 . S
N386 C388 1.359 . S
N386 C389 1.329 . S
C387 H373 0.931 . S
C387 C389 1.392 1_655 S
C387 C390 1.370 1_655 S
C388 C384 1.432 . S
C388 N386 1.359 . S
C388 C391 1.414 . S
C389 H371 0.928 1_455 S
C389 N386 1.329 . S
C389 C387 1.392 1_455 S
C390 H385 0.930 . S
C390 C387 1.370 1_455 S
C390 C391 1.385 . S
C391 C388 1.414 . S
C391 C390 1.385 . S
C391 C413 1.444 . S
O392 Tb348 2.546 . S
O392 C412 1.251 . S
O393 Tb348 2.610 . S
O393 Tb359 2.362 1_455 S
O393 C404 1.283 . S
O394 Tb359 2.421 1_455 S
O394 C411 1.262 . S
O395 Tb348 2.320 . S
O395 C411 1.260 . S
O396 Tb348 2.552 . S
O396 C404 1.243 . S
O397 Tb348 2.413 . S
O397 C412 1.256 . S
O398 Tb359 2.546 . S
O398 C423 1.251 . S
O399 Tb348 2.362 . S
O399 Tb359 2.610 1_455 S
O399 C415 1.283 1_455 S
O400 Tb348 2.421 1_655 S
O400 C422 1.262 . S
O401 Tb359 2.320 . S
O401 C422 1.260 . S
O402 Tb359 2.552 . S
O402 C415 1.243 . S
O403 Tb359 2.413 . S
O403 C423 1.256 . S
C404 O393 1.283 . S
C404 O396 1.243 . S
C405 C407 1.382 . S
C405 C409 1.393 . S
C405 C412 1.500 . S
C406 C407 1.400 . S
C406 C408 1.384 . S
C407 C405 1.382 . S
C407 C406 1.400 . S
C407 H424 0.930 . S
C408 C406 1.384 . S
C408 C410 1.392 . S
C408 H425 0.931 . S
C409 C405 1.393 . S
C409 C410 1.401 . S
C409 H426 0.930 . S
C410 C408 1.392 . S
C410 C409 1.401 . S
C410 H427 0.930 . S
C411 O394 1.262 . S
C411 O395 1.260 . S
C412 Tb348 2.833 . S
C412 O392 1.251 . S
C412 O397 1.256 . S
C412 C405 1.500 . S
C413 H378 0.929 . S
C413 C391 1.444 . S
C413 C414 1.317 . S
C414 H376 0.930 . S
C414 C382 1.432 . S
C414 C413 1.317 . S
C415 O399 1.283 1_655 S
C415 O402 1.243 . S
C416 C417 1.382 . S
C416 C420 1.393 1_556 S
C416 C423 1.500 . S
C417 C416 1.382 . S
C417 C418 1.400 1_556 S
C417 H428 0.930 . S
C418 C417 1.400 1_554 S
C418 C419 1.384 . S
C419 C418 1.384 . S
C419 C421 1.392 . S
C419 H429 0.931 . S
C420 C416 1.393 1_554 S
C420 C421 1.401 . S
C420 H430 0.930 . S
C421 C419 1.392 . S
C421 C420 1.401 . S
C421 H431 0.930 . S
C422 O400 1.262 . S
C422 O401 1.260 . S
C423 Tb359 2.833 . S
C423 O398 1.251 . S
C423 O403 1.256 . S
C423 C416 1.500 . S
H424 C407 0.930 . S
H425 C408 0.931 . S
H426 C409 0.930 . S
H427 C410 0.930 . S
H428 C417 0.930 . S
H429 C419 0.931 . S
H430 C420 0.930 . S
H431 C421 0.930 . S
H432 C444 0.930 . S
H433 C446 0.930 . S
H434 C447 0.930 . S
H435 C451 0.959 . S
H436 C451 0.959 . S
H437 C451 0.961 . S
H438 C452 0.960 . S
H439 C452 0.961 . S
H440 C452 0.959 . S
H441 C455 0.929 . S
H442 C456 0.931 . S
H443 C458 0.930 . S
C444 H432 0.930 . S
C444 C445 1.399 . S
C444 C449 1.399 . S
C445 C444 1.399 . S
C445 C446 1.376 . S
C446 H433 0.930 . S
C446 C445 1.376 . S
C446 C447 1.388 . S
C447 H434 0.930 . S
C447 C446 1.388 . S
C447 C448 1.390 . S
C448 C447 1.390 . S
C448 C449 1.394 . S
C448 C454 1.465 . S
C449 C444 1.399 . S
C449 C448 1.394 . S
C449 C450 1.516 . S
C450 C449 1.516 . S
C450 C451 1.502 . S
C450 C452 1.561 1_545 S
C450 C453 1.526 . S
C451 H435 0.959 . S
C451 H436 0.959 . S
C451 H437 0.961 . S
C451 C450 1.502 . S
C452 H438 0.960 . S
C452 H439 0.961 . S
C452 H440 0.959 . S
C452 C450 1.561 1_565 S
C453 C450 1.526 . S
C453 C454 1.396 . S
C453 C458 1.390 . S
C454 C448 1.465 . S
C454 C453 1.396 . S
C454 C455 1.399 . S
C455 H441 0.929 . S
C455 C454 1.399 . S
C455 C456 1.385 . S
C456 H442 0.931 . S
C456 C455 1.385 . S
C456 C457 1.389 . S
C457 C456 1.389 . S
C457 C458 1.387 . S
C458 H443 0.930 . S
C458 C453 1.390 . S
C458 C457 1.387 . S
H459 C471 0.930 . S
H460 C473 0.930 . S
H461 C474 0.930 . S
H462 C478 0.959 . S
H463 C478 0.959 . S
H464 C478 0.961 . S
H465 C479 0.960 . S
H466 C479 0.961 . S
H467 C479 0.959 . S
H468 C482 0.929 . S
H469 C483 0.931 . S
H470 C485 0.930 . S
C471 H459 0.930 . S
C471 C472 1.399 . S
C471 C476 1.399 . S
C472 C471 1.399 . S
C472 C473 1.376 . S
C473 H460 0.930 . S
C473 C472 1.376 . S
C473 C474 1.388 . S
C474 H461 0.930 . S
C474 C473 1.388 . S
C474 C475 1.390 . S
C475 C474 1.390 . S
C475 C476 1.394 . S
C475 C481 1.465 . S
C476 C471 1.399 . S
C476 C475 1.394 . S
C476 C477 1.516 . S
C477 C476 1.516 . S
C477 C478 1.502 . S
C477 C479 1.561 . S
C477 C480 1.526 . S
C478 H462 0.959 . S
C478 H463 0.959 . S
C478 H464 0.961 . S
C478 C477 1.502 . S
C479 H465 0.960 . S
C479 H466 0.961 . S
C479 H467 0.959 . S
C479 C477 1.561 . S
C480 C477 1.526 . S
C480 C481 1.396 . S
C480 C485 1.390 . S
C481 C475 1.465 . S
C481 C480 1.396 . S
C481 C482 1.399 . S
C482 H468 0.929 . S
C482 C481 1.399 . S
C482 C483 1.385 . S
C483 H469 0.931 . S
C483 C482 1.385 . S
C483 C484 1.389 . S
C484 C483 1.389 . S
C484 C485 1.387 . S
C485 H470 0.930 . S
C485 C480 1.390 . S
C485 C484 1.387 . S
H486 C498 0.930 . S
H487 C500 0.930 . S
H488 C501 0.930 . S
H489 C505 0.959 . S
H490 C505 0.959 . S
H491 C505 0.961 . S
H492 C506 0.960 . S
H493 C506 0.961 . S
H494 C506 0.959 . S
H495 C509 0.929 . S
H496 C510 0.931 . S
H497 C512 0.930 . S
C498 H486 0.930 . S
C498 C499 1.399 . S
C498 C503 1.399 . S
C499 C498 1.399 . S
C499 C500 1.376 . S
C500 H487 0.930 . S
C500 C499 1.376 . S
C500 C501 1.388 . S
C501 H488 0.930 . S
C501 C500 1.388 . S
C501 C502 1.390 . S
C502 C501 1.390 . S
C502 C503 1.394 . S
C502 C508 1.465 . S
C503 C498 1.399 . S
C503 C502 1.394 . S
C503 C504 1.516 . S
C504 C503 1.516 . S
C504 C505 1.502 . S
C504 C506 1.561 . S
C504 C507 1.526 . S
C505 H489 0.959 . S
C505 H490 0.959 . S
C505 H491 0.961 . S
C505 C504 1.502 . S
C506 H492 0.960 . S
C506 H493 0.961 . S
C506 H494 0.959 . S
C506 C504 1.561 . S
C507 C504 1.526 . S
C507 C508 1.396 . S
C507 C512 1.390 . S
C508 C502 1.465 . S
C508 C507 1.396 . S
C508 C509 1.399 . S
C509 H495 0.929 . S
C509 C508 1.399 . S
C509 C510 1.385 . S
C510 H496 0.931 . S
C510 C509 1.385 . S
C510 C511 1.389 . S
C511 C510 1.389 . S
C511 C512 1.387 . S
C512 H497 0.930 . S
C512 C507 1.390 . S
C512 C511 1.387 . S
H513 C525 0.930 . S
H514 C527 0.930 . S
H515 C528 0.930 . S
H516 C532 0.959 . S
H517 C532 0.959 . S
H518 C532 0.961 . S
H519 C533 0.960 . S
H520 C533 0.961 . S
H521 C533 0.959 . S
H522 C536 0.929 . S
H523 C537 0.931 . S
H524 C539 0.930 . S
C525 H513 0.930 . S
C525 C526 1.399 . S
C525 C530 1.399 . S
C526 C525 1.399 . S
C526 C527 1.376 . S
C527 H514 0.930 . S
C527 C526 1.376 . S
C527 C528 1.388 . S
C528 H515 0.930 . S
C528 C527 1.388 . S
C528 C529 1.390 . S
C529 C528 1.390 . S
C529 C530 1.394 . S
C529 C535 1.465 . S
C530 C525 1.399 . S
C530 C529 1.394 . S
C530 C531 1.516 . S
C531 C530 1.516 . S
C531 C532 1.502 . S
C531 C533 1.561 . S
C531 C534 1.526 . S
C532 H516 0.959 . S
C532 H517 0.959 . S
C532 H518 0.961 . S
C532 C531 1.502 . S
C533 H519 0.960 . S
C533 H520 0.961 . S
C533 H521 0.959 . S
C533 C531 1.561 . S
C534 C531 1.526 . S
C534 C535 1.396 . S
C534 C539 1.390 . S
C535 C529 1.465 . S
C535 C534 1.396 . S
C535 C536 1.399 . S
C536 H522 0.929 . S
C536 C535 1.399 . S
C536 C537 1.385 . S
C537 H523 0.931 . S
C537 C536 1.385 . S
C537 C538 1.389 . S
C538 C537 1.389 . S
C538 C539 1.387 . S
C539 H524 0.930 . S
C539 C534 1.390 . S
C539 C538 1.387 . S
H540 C552 0.930 . S
H541 C554 0.930 . S
H542 C555 0.930 . S
H543 C559 0.959 1_565 S
H544 C559 0.959 . S
H545 C559 0.961 . S
H546 C560 0.960 . S
H547 C560 0.961 1_556 S
H548 C560 0.959 . S
H549 C563 0.929 1_554 S
H550 C564 0.931 . S
H551 C566 0.930 . S
C552 H540 0.930 . S
C552 C553 1.399 . S
C552 C557 1.399 . S
C553 C552 1.399 . S
C553 C554 1.376 . S
C554 H541 0.930 . S
C554 C553 1.376 . S
C554 C555 1.388 . S
C555 H542 0.930 . S
C555 C554 1.388 . S
C555 C556 1.390 . S
C556 C555 1.390 . S
C556 C557 1.394 . S
C556 C562 1.465 1_554 S
C557 C552 1.399 . S
C557 C556 1.394 . S
C557 C558 1.516 1_564 S
C558 C557 1.516 1_546 S
C558 C559 1.502 . S
C558 C560 1.561 1_556 S
C558 C561 1.526 1_545 S
C559 H543 0.959 1_545 S
C559 H544 0.959 . S
C559 H545 0.961 . S
C559 C558 1.502 . S
C560 H546 0.960 . S
C560 H547 0.961 1_554 S
C560 H548 0.959 . S
C560 C558 1.561 1_554 S
C561 C558 1.526 1_565 S
C561 C562 1.396 . S
C561 C566 1.390 1_565 S
C562 C556 1.465 1_556 S
C562 C561 1.396 . S
C562 C563 1.399 . S
C563 H549 0.929 1_556 S
C563 C562 1.399 . S
C563 C564 1.385 . S
C564 H550 0.931 . S
C564 C563 1.385 . S
C564 C565 1.389 . S
C565 C564 1.389 . S
C565 C566 1.387 1_565 S
C566 H551 0.930 . S
C566 C561 1.390 1_545 S
C566 C565 1.387 1_545 S
H567 C579 0.930 . S
H568 C581 0.930 . S
H569 C582 0.930 . S
H570 C586 0.959 1_556 S
H571 C586 0.959 1_556 S
H572 C586 0.961 . S
H573 C587 0.960 . S
H574 C587 0.961 . S
H575 C587 0.959 . S
H576 C590 0.929 . S
H577 C591 0.931 . S
H578 C593 0.930 . S
C579 H567 0.930 . S
C579 C580 1.399 . S
C579 C584 1.399 . S
C580 C579 1.399 . S
C580 C581 1.376 . S
C581 H568 0.930 . S
C581 C580 1.376 . S
C581 C582 1.388 . S
C582 H569 0.930 . S
C582 C581 1.388 . S
C582 C583 1.390 . S
C583 C582 1.390 . S
C583 C584 1.394 . S
C583 C589 1.465 1_554 S
C584 C579 1.399 . S
C584 C583 1.394 . S
C584 C585 1.516 . S
C585 C584 1.516 . S
C585 C586 1.502 . S
C585 C587 1.561 . S
C585 C588 1.526 1_554 S
C586 H570 0.959 1_554 S
C586 H571 0.959 1_554 S
C586 H572 0.961 . S
C586 C585 1.502 . S
C587 H573 0.960 . S
C587 H574 0.961 . S
C587 H575 0.959 . S
C587 C585 1.561 . S
C588 C585 1.526 1_556 S
C588 C589 1.396 . S
C588 C593 1.390 . S
C589 C583 1.465 1_556 S
C589 C588 1.396 . S
C589 C590 1.399 . S
C590 H576 0.929 . S
C590 C589 1.399 . S
C590 C591 1.385 . S
C591 H577 0.931 . S
C591 C590 1.385 . S
C591 C592 1.389 . S
C592 C591 1.389 . S
C592 C593 1.387 . S
C593 H578 0.930 . S
C593 C588 1.390 . S
C593 C592 1.387 . S
H594 C606 0.930 . S
H595 C608 0.930 . S
H596 C609 0.930 . S
H597 C613 0.959 . S
H598 C613 0.959 . S
H599 C613 0.961 . S
H600 C614 0.960 . S
H601 C614 0.961 . S
H602 C614 0.959 . S
H603 C617 0.929 1_554 S
H604 C618 0.931 . S
H605 C620 0.930 . S
C606 H594 0.930 . S
C606 C607 1.399 . S
C606 C611 1.399 . S
C607 C606 1.399 . S
C607 C608 1.376 . S
C608 H595 0.930 . S
C608 C607 1.376 . S
C608 C609 1.388 . S
C609 H596 0.930 . S
C609 C608 1.388 . S
C609 C610 1.390 . S
C610 C609 1.390 . S
C610 C611 1.394 . S
C610 C616 1.465 1_554 S
C611 C606 1.399 . S
C611 C610 1.394 . S
C611 C612 1.516 1_554 S
C612 C611 1.516 1_556 S
C612 C613 1.502 . S
C612 C614 1.561 . S
C612 C615 1.526 . S
C613 H597 0.959 . S
C613 H598 0.959 . S
C613 H599 0.961 . S
C613 C612 1.502 . S
C614 H600 0.960 . S
C614 H601 0.961 . S
C614 H602 0.959 . S
C614 C612 1.561 . S
C615 C612 1.526 . S
C615 C616 1.396 . S
C615 C620 1.390 . S
C616 C610 1.465 1_556 S
C616 C615 1.396 . S
C616 C617 1.399 . S
C617 H603 0.929 1_556 S
C617 C616 1.399 . S
C617 C618 1.385 . S
C618 H604 0.931 . S
C618 C617 1.385 . S
C618 C619 1.389 . S
C619 C618 1.389 . S
C619 C620 1.387 . S
C620 H605 0.930 . S
C620 C615 1.390 . S
C620 C619 1.387 . S
H621 C633 0.930 . S
H622 C635 0.930 . S
H623 C636 0.930 . S
H624 C640 0.959 . S
H625 C640 0.959 . S
H626 C640 0.961 . S
H627 C641 0.960 . S
H628 C641 0.961 . S
H629 C641 0.959 . S
H630 C644 0.929 1_554 S
H631 C645 0.931 . S
H632 C647 0.930 . S
C633 H621 0.930 . S
C633 C634 1.399 . S
C633 C638 1.399 . S
C634 C633 1.399 . S
C634 C635 1.376 . S
C635 H622 0.930 . S
C635 C634 1.376 . S
C635 C636 1.388 . S
C636 H623 0.930 . S
C636 C635 1.388 . S
C636 C637 1.390 . S
C637 C636 1.390 . S
C637 C638 1.394 . S
C637 C643 1.465 1_554 S
C638 C633 1.399 . S
C638 C637 1.394 . S
C638 C639 1.516 1_554 S
C639 C638 1.516 1_556 S
C639 C640 1.502 . S
C639 C641 1.561 1_655 S
C639 C642 1.526 . S
C640 H624 0.959 . S
C640 H625 0.959 . S
C640 H626 0.961 . S
C640 C639 1.502 . S
C641 H627 0.960 . S
C641 H628 0.961 . S
C641 H629 0.959 . S
C641 C639 1.561 1_455 S
C642 C639 1.526 . S
C642 C643 1.396 . S
C642 C647 1.390 . S
C643 C637 1.465 1_556 S
C643 C642 1.396 . S
C643 C644 1.399 . S
C644 H630 0.929 1_556 S
C644 C643 1.399 . S
C644 C645 1.385 . S
C645 H631 0.931 . S
C645 C644 1.385 . S
C645 C646 1.389 . S
C646 C645 1.389 . S
C646 C647 1.387 . S
C647 H632 0.930 . S
C647 C642 1.390 . S
C647 C646 1.387 . S
H648 C660 0.930 . S
H649 C662 0.930 . S
H650 C663 0.930 . S
H651 C667 0.959 . S
H652 C667 0.959 . S
H653 C667 0.961 . S
H654 C668 0.960 1_556 S
H655 C668 0.961 . S
H656 C668 0.959 . S
H657 C671 0.929 . S
H658 C672 0.931 . S
H659 C674 0.930 1_655 S
C660 H648 0.930 . S
C660 C661 1.399 . S
C660 C665 1.399 . S
C661 C660 1.399 . S
C661 C662 1.376 . S
C662 H649 0.930 . S
C662 C661 1.376 . S
C662 C663 1.388 . S
C663 H650 0.930 . S
C663 C662 1.388 . S
C663 C664 1.390 . S
C664 C663 1.390 . S
C664 C665 1.394 . S
C664 C670 1.465 . S
C665 C660 1.399 . S
C665 C664 1.394 . S
C665 C666 1.516 . S
C666 C665 1.516 . S
C666 C667 1.502 1_455 S
C666 C668 1.561 . S
C666 C669 1.526 . S
C667 H651 0.959 . S
C667 H652 0.959 . S
C667 H653 0.961 . S
C667 C666 1.502 1_655 S
C668 H654 0.960 1_554 S
C668 H655 0.961 . S
C668 H656 0.959 . S
C668 C666 1.561 . S
C669 C666 1.526 . S
C669 C670 1.396 . S
C669 C674 1.390 . S
C670 C664 1.465 . S
C670 C669 1.396 . S
C670 C671 1.399 . S
C671 H657 0.929 . S
C671 C670 1.399 . S
C671 C672 1.385 . S
C672 H658 0.931 . S
C672 C671 1.385 . S
C672 C673 1.389 . S
C673 C672 1.389 . S
C673 C674 1.387 . S
C674 H659 0.930 1_455 S
C674 C669 1.390 . S
C674 C673 1.387 . S
H675 C687 0.930 . S
H676 C689 0.930 . S
H677 C690 0.930 1_565 S
H678 C694 0.959 . S
H679 C694 0.959 . S
H680 C694 0.961 . S
H681 C695 0.960 . S
H682 C695 0.961 . S
H683 C695 0.959 . S
H684 C698 0.929 . S
H685 C699 0.931 . S
H686 C701 0.930 . S
C687 H675 0.930 . S
C687 C688 1.399 . S
C687 C692 1.399 . S
C688 C687 1.399 . S
C688 C689 1.376 . S
C689 H676 0.930 . S
C689 C688 1.376 . S
C689 C690 1.388 . S
C690 H677 0.930 1_545 S
C690 C689 1.388 . S
C690 C691 1.390 . S
C691 C690 1.390 . S
C691 C692 1.394 . S
C691 C697 1.465 . S
C692 C687 1.399 . S
C692 C691 1.394 . S
C692 C693 1.516 . S
C693 C692 1.516 . S
C693 C694 1.502 . S
C693 C695 1.561 . S
C693 C696 1.526 . S
C694 H678 0.959 . S
C694 H679 0.959 . S
C694 H680 0.961 . S
C694 C693 1.502 . S
C695 H681 0.960 . S
C695 H682 0.961 . S
C695 H683 0.959 . S
C695 C693 1.561 . S
C696 C693 1.526 . S
C696 C697 1.396 . S
C696 C701 1.390 . S
C697 C691 1.465 . S
C697 C696 1.396 . S
C697 C698 1.399 1_545 S
C698 H684 0.929 . S
C698 C697 1.399 1_565 S
C698 C699 1.385 . S
C699 H685 0.931 . S
C699 C698 1.385 . S
C699 C700 1.389 1_565 S
C700 C699 1.389 1_545 S
C700 C701 1.387 . S
C701 H686 0.930 . S
C701 C696 1.390 . S
C701 C700 1.387 . S
H702 C714 0.930 . S
H703 C716 0.930 1_556 S
H704 C717 0.930 . S
H705 C721 0.959 . S
H706 C721 0.959 . S
H707 C721 0.961 . S
H708 C722 0.960 . S
H709 C722 0.961 . S
H710 C722 0.959 . S
H711 C725 0.929 . S
H712 C726 0.931 . S
H713 C728 0.930 . S
C714 H702 0.930 . S
C714 C715 1.399 . S
C714 C719 1.399 . S
C715 C714 1.399 . S
C715 C716 1.376 . S
C716 H703 0.930 1_554 S
C716 C715 1.376 . S
C716 C717 1.388 . S
C717 H704 0.930 . S
C717 C716 1.388 . S
C717 C718 1.390 . S
C718 C717 1.390 . S
C718 C719 1.394 . S
C718 C724 1.465 . S
C719 C714 1.399 . S
C719 C718 1.394 . S
C719 C720 1.516 . S
C720 C719 1.516 . S
C720 C721 1.502 . S
C720 C722 1.561 . S
C720 C723 1.526 . S
C721 H705 0.959 . S
C721 H706 0.959 . S
C721 H707 0.961 . S
C721 C720 1.502 . S
C722 H708 0.960 . S
C722 H709 0.961 . S
C722 H710 0.959 . S
C722 C720 1.561 . S
C723 C720 1.526 . S
C723 C724 1.396 . S
C723 C728 1.390 . S
C724 C718 1.465 . S
C724 C723 1.396 . S
C724 C725 1.399 . S
C725 H711 0.929 . S
C725 C724 1.399 . S
C725 C726 1.385 . S
C726 H712 0.931 . S
C726 C725 1.385 . S
C726 C727 1.389 . S
C727 C726 1.389 . S
C727 C728 1.387 . S
C728 H713 0.930 . S
C728 C723 1.390 . S
C728 C727 1.387 . S
H729 C741 0.930 . S
H730 C743 0.930 1_556 S
H731 C744 0.930 . S
H732 C748 0.959 . S
H733 C748 0.959 . S
H734 C748 0.961 . S
H735 C749 0.960 . S
H736 C749 0.961 . S
H737 C749 0.959 . S
H738 C752 0.929 . S
H739 C753 0.931 . S
H740 C755 0.930 . S
C741 H729 0.930 . S
C741 C742 1.399 . S
C741 C746 1.399 . S
C742 C741 1.399 . S
C742 C743 1.376 . S
C743 H730 0.930 1_554 S
C743 C742 1.376 . S
C743 C744 1.388 . S
C744 H731 0.930 . S
C744 C743 1.388 . S
C744 C745 1.390 . S
C745 C744 1.390 . S
C745 C746 1.394 . S
C745 C751 1.465 . S
C746 C741 1.399 . S
C746 C745 1.394 . S
C746 C747 1.516 . S
C747 C746 1.516 . S
C747 C748 1.502 . S
C747 C749 1.561 . S
C747 C750 1.526 . S
C748 H732 0.959 . S
C748 H733 0.959 . S
C748 H734 0.961 . S
C748 C747 1.502 . S
C749 H735 0.960 . S
C749 H736 0.961 . S
C749 H737 0.959 . S
C749 C747 1.561 . S
C750 C747 1.526 . S
C750 C751 1.396 . S
C750 C755 1.390 . S
C751 C745 1.465 . S
C751 C750 1.396 . S
C751 C752 1.399 . S
C752 H738 0.929 . S
C752 C751 1.399 . S
C752 C753 1.385 . S
C753 H739 0.931 . S
C753 C752 1.385 . S
C753 C754 1.389 . S
C754 C753 1.389 . S
C754 C755 1.387 . S
C755 H740 0.930 . S
C755 C750 1.390 . S
C755 C754 1.387 . S
H756 C768 0.930 . S
H757 C770 0.930 . S
H758 C771 0.930 . S
H759 C775 0.959 . S
H760 C775 0.959 . S
H761 C775 0.961 . S
H762 C776 0.960 . S
H763 C776 0.961 . S
H764 C776 0.959 1_554 S
H765 C779 0.932 . S
H766 C780 0.931 . S
H767 C782 0.930 . S
C768 H756 0.930 . S
C768 C769 1.399 . S
C768 C773 1.399 . S
C769 C768 1.399 . S
C769 C770 1.376 . S
C770 H757 0.930 . S
C770 C769 1.376 . S
C770 C771 1.388 . S
C771 H758 0.930 . S
C771 C770 1.388 . S
C771 C772 1.390 . S
C772 C771 1.390 . S
C772 C773 1.394 . S
C772 C778 1.465 . S
C773 C768 1.399 . S
C773 C772 1.394 . S
C773 C774 1.516 . S
C774 C773 1.516 . S
C774 C775 1.502 1_554 S
C774 C776 1.561 1_554 S
C774 C777 1.526 . S
C775 H759 0.959 . S
C775 H760 0.959 . S
C775 H761 0.961 . S
C775 C774 1.502 1_556 S
C776 H762 0.960 . S
C776 H763 0.961 . S
C776 H764 0.959 1_556 S
C776 C774 1.561 1_556 S
C777 C774 1.526 . S
C777 C778 1.396 . S
C777 C782 1.390 1_554 S
C778 C772 1.465 . S
C778 C777 1.396 . S
C778 C779 1.384 1_655 S
C779 H765 0.932 . S
C779 C778 1.384 1_455 S
C779 C780 1.397 . S
C780 H766 0.931 . S
C780 C779 1.397 . S
C780 C781 1.389 . S
C781 C780 1.389 . S
C781 C782 1.387 1_454 S
C782 H767 0.930 . S
C782 C777 1.390 1_556 S
C782 C781 1.387 1_656 S
H783 C795 0.930 . S
H784 C797 0.930 . S
H785 C798 0.930 . S
H786 C802 0.959 . S
H787 C802 0.959 . S
H788 C802 0.961 . S
H789 C803 0.960 . S
H790 C803 0.961 . S
H791 C803 0.959 . S
H792 C806 0.929 . S
H793 C807 0.931 . S
H794 C809 0.930 . S
C795 H783 0.930 . S
C795 C796 1.399 . S
C795 C800 1.399 . S
C796 C795 1.399 . S
C796 C797 1.376 . S
C797 H784 0.930 . S
C797 C796 1.376 . S
C797 C798 1.388 . S
C798 H785 0.930 . S
C798 C797 1.388 . S
C798 C799 1.390 . S
C799 C798 1.390 . S
C799 C800 1.394 . S
C799 C805 1.465 . S
C800 C795 1.399 . S
C800 C799 1.394 . S
C800 C801 1.516 1_565 S
C801 C800 1.516 1_545 S
C801 C802 1.502 . S
C801 C803 1.561 . S
C801 C804 1.526 . S
C802 H786 0.959 . S
C802 H787 0.959 . S
C802 H788 0.961 . S
C802 C801 1.502 . S
C803 H789 0.960 . S
C803 H790 0.961 . S
C803 H791 0.959 . S
C803 C801 1.561 . S
C804 C801 1.526 . S
C804 C805 1.396 1_545 S
C804 C809 1.390 . S
C805 C799 1.465 . S
C805 C804 1.396 1_565 S
C805 C806 1.399 1_554 S
C806 H792 0.929 . S
C806 C805 1.399 1_556 S
C806 C807 1.385 . S
C807 H793 0.931 . S
C807 C806 1.385 . S
C807 C808 1.389 1_565 S
C808 C807 1.389 1_545 S
C808 C809 1.387 1_556 S
C809 H794 0.930 . S
C809 C804 1.390 . S
C809 C808 1.387 1_554 S
H810 C822 0.930 . S
H811 C824 0.930 . S
H812 C825 0.930 . S
H813 C829 0.959 . S
H814 C829 0.959 . S
H815 C829 0.961 . S
H816 C830 0.960 . S
H817 C830 0.961 . S
H818 C830 0.959 . S
H819 C833 0.929 1_556 S
H820 C834 0.931 . S
H821 C836 0.930 . S
C822 H810 0.930 . S
C822 C823 1.399 . S
C822 C827 1.399 . S
C823 C822 1.399 . S
C823 C824 1.376 . S
C824 H811 0.930 . S
C824 C823 1.376 . S
C824 C825 1.388 . S
C825 H812 0.930 . S
C825 C824 1.388 . S
C825 C826 1.390 . S
C826 C825 1.390 . S
C826 C827 1.394 . S
C826 C832 1.465 . S
C827 C822 1.399 . S
C827 C826 1.394 . S
C827 C828 1.516 . S
C828 C827 1.516 . S
C828 C829 1.502 . S
C828 C830 1.561 . S
C828 C831 1.526 . S
C829 H813 0.959 . S
C829 H814 0.959 . S
C829 H815 0.961 . S
C829 C828 1.502 . S
C830 H816 0.960 . S
C830 H817 0.961 . S
C830 H818 0.959 . S
C830 C828 1.561 . S
C831 C828 1.526 . S
C831 C832 1.396 . S
C831 C836 1.390 . S
C832 C826 1.465 . S
C832 C831 1.396 . S
C832 C833 1.399 . S
C833 H819 0.929 1_554 S
C833 C832 1.399 . S
C833 C834 1.385 1_554 S
C834 H820 0.931 . S
C834 C833 1.385 1_556 S
C834 C835 1.389 1_556 S
C835 C834 1.389 1_554 S
C835 C836 1.387 . S
C836 H821 0.930 . S
C836 C831 1.390 . S
C836 C835 1.387 . S
H837 C849 0.930 . S
H838 C851 0.930 . S
H839 C852 0.930 . S
H840 C856 0.959 . S
H841 C856 0.959 . S
H842 C856 0.961 . S
H843 C857 0.960 . S
H844 C857 0.961 . S
H845 C857 0.959 . S
H846 C860 0.929 1_556 S
H847 C861 0.931 . S
H848 C863 0.930 . S
C849 H837 0.930 . S
C849 C850 1.399 . S
C849 C854 1.399 . S
C850 C849 1.399 . S
C850 C851 1.376 . S
C851 H838 0.930 . S
C851 C850 1.376 . S
C851 C852 1.388 . S
C852 H839 0.930 . S
C852 C851 1.388 . S
C852 C853 1.390 . S
C853 C852 1.390 . S
C853 C854 1.394 . S
C853 C859 1.465 . S
C854 C849 1.399 . S
C854 C853 1.394 . S
C854 C855 1.516 . S
C855 C854 1.516 . S
C855 C856 1.502 . S
C855 C857 1.561 . S
C855 C858 1.526 . S
C856 H840 0.959 . S
C856 H841 0.959 . S
C856 H842 0.961 . S
C856 C855 1.502 . S
C857 H843 0.960 . S
C857 H844 0.961 . S
C857 H845 0.959 . S
C857 C855 1.561 . S
C858 C855 1.526 . S
C858 C859 1.396 . S
C858 C863 1.390 . S
C859 C853 1.465 . S
C859 C858 1.396 . S
C859 C860 1.399 . S
C860 H846 0.929 1_554 S
C860 C859 1.399 . S
C860 C861 1.385 1_554 S
C861 H847 0.931 . S
C861 C860 1.385 1_556 S
C861 C862 1.389 1_556 S
C862 C861 1.389 1_554 S
C862 C863 1.387 . S
C863 H848 0.930 . S
C863 C858 1.390 . S
C863 C862 1.387 . S
H864 C876 0.930 . S
H865 C878 0.930 . S
H866 C879 0.930 . S
H867 C883 0.959 . S
H868 C883 0.959 . S
H869 C883 0.961 . S
H870 C884 0.960 . S
H871 C884 0.961 . S
H872 C884 0.959 . S
H873 C887 0.929 . S
H874 C888 0.931 . S
H875 C890 0.930 . S
C876 H864 0.930 . S
C876 C877 1.399 . S
C876 C881 1.399 . S
C877 C876 1.399 . S
C877 C878 1.376 . S
C878 H865 0.930 . S
C878 C877 1.376 . S
C878 C879 1.388 . S
C879 H866 0.930 . S
C879 C878 1.388 . S
C879 C880 1.390 . S
C880 C879 1.390 . S
C880 C881 1.394 . S
C880 C886 1.465 . S
C881 C876 1.399 . S
C881 C880 1.394 . S
C881 C882 1.516 . S
C882 C881 1.516 . S
C882 C883 1.502 . S
C882 C884 1.561 . S
C882 C885 1.526 . S
C883 H867 0.959 . S
C883 H868 0.959 . S
C883 H869 0.961 . S
C883 C882 1.502 . S
C884 H870 0.960 . S
C884 H871 0.961 . S
C884 H872 0.959 . S
C884 C882 1.561 . S
C885 C882 1.526 . S
C885 C886 1.396 . S
C885 C890 1.390 . S
C886 C880 1.465 . S
C886 C885 1.396 . S
C886 C887 1.399 . S
C887 H873 0.929 . S
C887 C886 1.399 . S
C887 C888 1.385 . S
C888 H874 0.931 . S
C888 C887 1.385 . S
C888 C889 1.389 . S
C889 C888 1.389 . S
C889 C890 1.387 . S
C890 H875 0.930 . S
C890 C885 1.390 . S
C890 C889 1.387 . S
H891 C903 0.930 . S
H892 C905 0.930 . S
H893 C906 0.951 . S
H894 C910 0.959 . S
H895 C910 0.959 . S
H896 C910 0.961 . S
H897 C911 0.960 . S
H898 C911 0.961 . S
H899 C911 0.959 . S
H900 C914 0.929 1_565 S
H901 C915 0.931 1_565 S
H902 C917 0.930 . S
C903 H891 0.930 . S
C903 C904 1.399 . S
C903 C908 1.399 . S
C904 C903 1.399 . S
C904 C905 1.376 . S
C905 H892 0.930 . S
C905 C904 1.376 . S
C905 C906 1.388 . S
C906 H893 0.951 . S
C906 C905 1.388 . S
C906 C907 1.390 . S
C907 C906 1.390 . S
C907 C908 1.394 . S
C907 C913 1.465 . S
C908 C903 1.399 . S
C908 C907 1.394 . S
C908 C909 1.516 . S
C909 C908 1.516 . S
C909 C910 1.502 . S
C909 C911 1.561 . S
C909 C912 1.526 . S
C910 H894 0.959 . S
C910 H895 0.959 . S
C910 H896 0.961 . S
C910 C909 1.502 . S
C911 H897 0.960 . S
C911 H898 0.961 . S
C911 H899 0.959 . S
C911 C909 1.561 . S
C912 C909 1.526 . S
C912 C913 1.396 . S
C912 C917 1.390 . S
C913 C907 1.465 . S
C913 C912 1.396 . S
C913 C914 1.399 . S
C914 H900 0.929 1_545 S
C914 C913 1.399 . S
C914 C915 1.385 . S
C915 H901 0.931 1_545 S
C915 C914 1.385 . S
C915 C916 1.389 . S
C916 C915 1.389 . S
C916 C917 1.387 . S
C917 H902 0.930 . S
C917 C912 1.390 . S
C917 C916 1.387 . S
H918 C930 0.930 . S
H919 C932 0.930 . S
H920 C933 0.930 . S
H921 C937 0.959 . S
H922 C937 0.959 . S
H923 C937 0.961 . S
H924 C938 0.960 . S
H925 C938 0.961 . S
H926 C938 0.959 . S
H927 C941 0.929 . S
H928 C942 0.931 . S
H929 C944 0.930 . S
C930 H918 0.930 . S
C930 C931 1.399 . S
C930 C935 1.399 . S
C931 C930 1.399 . S
C931 C932 1.376 . S
C932 H919 0.930 . S
C932 C931 1.376 . S
C932 C933 1.388 . S
C933 H920 0.930 . S
C933 C932 1.388 . S
C933 C934 1.390 . S
C934 C933 1.390 . S
C934 C935 1.394 . S
C934 C940 1.465 . S
C935 C930 1.399 . S
C935 C934 1.394 . S
C935 C936 1.516 . S
C936 C935 1.516 . S
C936 C937 1.502 . S
C936 C938 1.561 . S
C936 C939 1.526 . S
C937 H921 0.959 . S
C937 H922 0.959 . S
C937 H923 0.961 . S
C937 C936 1.502 . S
C938 H924 0.960 . S
C938 H925 0.961 . S
C938 H926 0.959 . S
C938 C936 1.561 . S
C939 C936 1.526 . S
C939 C940 1.396 . S
C939 C944 1.390 . S
C940 C934 1.465 . S
C940 C939 1.396 . S
C940 C941 1.399 . S
C941 H927 0.929 . S
C941 C940 1.399 . S
C941 C942 1.385 . S
C942 H928 0.931 . S
C942 C941 1.385 . S
C942 C943 1.389 . S
C943 C942 1.389 . S
C943 C944 1.387 . S
C944 H929 0.930 . S
C944 C939 1.390 . S
C944 C943 1.387 . S
H945 C957 0.930 . S
H946 C959 0.930 . S
H947 C960 0.930 . S
H948 C964 0.959 . S
H949 C964 0.959 1_554 S
H950 C964 0.961 1_554 S
H951 C965 0.960 . S
H952 C965 0.961 . S
H953 C965 0.959 . S
H954 C968 0.929 . S
H955 C969 0.931 . S
H956 C971 0.930 . S
C957 H945 0.930 . S
C957 C958 1.399 . S
C957 C962 1.399 . S
C958 C957 1.399 . S
C958 C959 1.376 . S
C959 H946 0.930 . S
C959 C958 1.376 . S
C959 C960 1.388 . S
C960 H947 0.930 . S
C960 C959 1.388 . S
C960 C961 1.390 . S
C961 C960 1.390 . S
C961 C962 1.394 . S
C961 C967 1.465 . S
C962 C957 1.399 . S
C962 C961 1.394 . S
C962 C963 1.516 . S
C963 C962 1.516 . S
C963 C964 1.502 . S
C963 C965 1.561 . S
C963 C966 1.526 . S
C964 H948 0.959 . S
C964 H949 0.959 1_556 S
C964 H950 0.961 1_556 S
C964 C963 1.502 . S
C965 H951 0.960 . S
C965 H952 0.961 . S
C965 H953 0.959 . S
C965 C963 1.561 . S
C966 C963 1.526 . S
C966 C967 1.396 . S
C966 C971 1.390 . S
C967 C961 1.465 . S
C967 C966 1.396 . S
C967 C968 1.399 . S
C968 H954 0.929 . S
C968 C967 1.399 . S
C968 C969 1.385 . S
C969 H955 0.931 . S
C969 C968 1.385 . S
C969 C970 1.389 . S
C970 C969 1.389 . S
C970 C971 1.387 . S
C971 H956 0.930 . S
C971 C966 1.390 . S
C971 C970 1.387 . S
H972 C984 0.930 . S
H973 C986 0.930 . S
H974 C987 0.930 . S
H975 C991 0.959 . S
H976 C991 0.959 . S
H977 C991 0.961 . S
H978 C992 0.960 . S
H979 C992 0.961 . S
H980 C992 0.917 1_455 S
H981 C995 0.929 . S
H982 C996 0.931 . S
H983 C998 0.930 . S
C984 H972 0.930 . S
C984 C985 1.399 . S
C984 C989 1.399 . S
C985 C984 1.399 . S
C985 C986 1.376 . S
C986 H973 0.930 . S
C986 C985 1.376 . S
C986 C987 1.388 . S
C987 H974 0.930 . S
C987 C986 1.388 . S
C987 C988 1.390 . S
C988 C987 1.390 . S
C988 C989 1.394 . S
C988 C994 1.465 . S
C989 C984 1.399 . S
C989 C988 1.394 . S
C989 C990 1.516 . S
C990 C989 1.516 . S
C990 C991 1.502 . S
C990 C992 1.561 . S
C990 C993 1.526 . S
C991 H975 0.959 . S
C991 H976 0.959 . S
C991 H977 0.961 . S
C991 C990 1.502 . S
C992 H978 0.960 . S
C992 H979 0.961 . S
C992 H980 0.917 1_655 S
C992 C990 1.561 . S
C993 C990 1.526 . S
C993 C994 1.396 . S
C993 C998 1.390 . S
C994 C988 1.465 . S
C994 C993 1.396 . S
C994 C995 1.399 . S
C995 H981 0.929 . S
C995 C994 1.399 . S
C995 C996 1.385 . S
C996 H982 0.931 . S
C996 C995 1.385 . S
C996 C997 1.389 . S
C997 C996 1.389 . S
C997 C998 1.387 . S
C998 H983 0.930 . S
C998 C993 1.390 . S
C998 C997 1.387 . S
H999 C1011 0.930 . S
H1000 C1013 0.930 1_545 S
H1001 C1014 0.930 . S
H1002 C1018 0.959 . S
H1003 C1018 0.959 . S
H1004 C1018 0.961 . S
H1005 C1019 0.960 . S
H1006 C1019 0.961 . S
H1007 C1019 0.959 . S
H1008 C1022 0.929 . S
H1009 C1023 0.931 . S
H1010 C1025 0.930 . S
C1011 H999 0.930 . S
C1011 C1012 1.399 . S
C1011 C1016 1.399 . S
C1012 C1011 1.399 . S
C1012 C1013 1.376 . S
C1013 H1000 0.930 1_565 S
C1013 C1012 1.376 . S
C1013 C1014 1.388 1_565 S
C1014 H1001 0.930 . S
C1014 C1013 1.388 1_545 S
C1014 C1015 1.390 1_545 S
C1015 C1014 1.390 1_565 S
C1015 C1016 1.394 . S
C1015 C1021 1.465 . S
C1016 C1011 1.399 . S
C1016 C1015 1.394 . S
C1016 C1017 1.516 . S
C1017 C1016 1.516 . S
C1017 C1018 1.502 . S
C1017 C1019 1.561 . S
C1017 C1020 1.526 . S
C1018 H1002 0.959 . S
C1018 H1003 0.959 . S
C1018 H1004 0.961 . S
C1018 C1017 1.502 . S
C1019 H1005 0.960 . S
C1019 H1006 0.961 . S
C1019 H1007 0.959 . S
C1019 C1017 1.561 . S
C1020 C1017 1.526 . S
C1020 C1021 1.396 . S
C1020 C1025 1.390 . S
C1021 C1015 1.465 . S
C1021 C1020 1.396 . S
C1021 C1022 1.399 1_565 S
C1022 H1008 0.929 . S
C1022 C1021 1.399 1_545 S
C1022 C1023 1.385 . S
C1023 H1009 0.931 . S
C1023 C1022 1.385 . S
C1023 C1024 1.389 1_545 S
C1024 C1023 1.389 1_565 S
C1024 C1025 1.387 . S
C1025 H1010 0.930 . S
C1025 C1020 1.390 . S
C1025 C1024 1.387 . S
H1026 C1038 0.930 . S
H1027 C1040 0.930 . S
H1028 C1041 0.930 . S
H1029 C1045 0.959 . S
H1030 C1045 0.959 . S
H1031 C1045 0.961 . S
H1032 C1046 0.960 . S
H1033 C1046 0.961 . S
H1034 C1046 0.959 . S
H1035 C1049 0.929 . S
H1036 C1050 0.931 . S
H1037 C1052 0.930 . S
C1038 H1026 0.930 . S
C1038 C1039 1.399 . S
C1038 C1043 1.399 . S
C1039 C1038 1.399 . S
C1039 C1040 1.376 . S
C1040 H1027 0.930 . S
C1040 C1039 1.376 . S
C1040 C1041 1.388 . S
C1041 H1028 0.930 . S
C1041 C1040 1.388 . S
C1041 C1042 1.390 . S
C1042 C1041 1.390 . S
C1042 C1043 1.394 . S
C1042 C1048 1.465 . S
C1043 C1038 1.399 . S
C1043 C1042 1.394 . S
C1043 C1044 1.516 . S
C1044 C1043 1.516 . S
C1044 C1045 1.502 . S
C1044 C1046 1.561 . S
C1044 C1047 1.526 . S
C1045 H1029 0.959 . S
C1045 H1030 0.959 . S
C1045 H1031 0.961 . S
C1045 C1044 1.502 . S
C1046 H1032 0.960 . S
C1046 H1033 0.961 . S
C1046 H1034 0.959 . S
C1046 C1044 1.561 . S
C1047 C1044 1.526 . S
C1047 C1048 1.396 . S
C1047 C1052 1.390 . S
C1048 C1042 1.465 . S
C1048 C1047 1.396 . S
C1048 C1049 1.399 . S
C1049 H1035 0.929 . S
C1049 C1048 1.399 . S
C1049 C1050 1.385 . S
C1050 H1036 0.931 . S
C1050 C1049 1.385 . S
C1050 C1051 1.389 . S
C1051 C1050 1.389 . S
C1051 C1052 1.387 . S
C1052 H1037 0.930 . S
C1052 C1047 1.390 . S
C1052 C1051 1.387 . S
H1053 C1065 0.930 . S
H1054 C1067 0.930 . S
H1055 C1068 0.930 . S
H1056 C1072 0.959 . S
H1057 C1072 0.959 . S
H1058 C1072 0.961 . S
H1059 C1073 0.960 . S
H1060 C1073 0.961 . S
H1061 C1073 0.959 . S
H1062 C1076 0.929 . S
H1063 C1077 0.931 . S
H1064 C1079 0.930 . S
C1065 H1053 0.930 . S
C1065 C1066 1.399 . S
C1065 C1070 1.399 . S
C1066 C1065 1.399 . S
C1066 C1067 1.376 . S
C1067 H1054 0.930 . S
C1067 C1066 1.376 . S
C1067 C1068 1.388 . S
C1068 H1055 0.930 . S
C1068 C1067 1.388 . S
C1068 C1069 1.390 . S
C1069 C1068 1.390 . S
C1069 C1070 1.394 . S
C1069 C1075 1.465 . S
C1070 C1065 1.399 . S
C1070 C1069 1.394 . S
C1070 C1071 1.516 . S
C1071 C1070 1.516 . S
C1071 C1072 1.502 . S
C1071 C1073 1.561 . S
C1071 C1074 1.526 . S
C1072 H1056 0.959 . S
C1072 H1057 0.959 . S
C1072 H1058 0.961 . S
C1072 C1071 1.502 . S
C1073 H1059 0.960 . S
C1073 H1060 0.961 . S
C1073 H1061 0.959 . S
C1073 C1071 1.561 . S
C1074 C1071 1.526 . S
C1074 C1075 1.396 . S
C1074 C1079 1.390 . S
C1075 C1069 1.465 . S
C1075 C1074 1.396 . S
C1075 C1076 1.399 . S
C1076 H1062 0.929 . S
C1076 C1075 1.399 . S
C1076 C1077 1.385 . S
C1077 H1063 0.931 . S
C1077 C1076 1.385 . S
C1077 C1078 1.389 . S
C1078 C1077 1.389 . S
C1078 C1079 1.387 . S
C1079 H1064 0.930 . S
C1079 C1074 1.390 . S
C1079 C1078 1.387 . S
C445 C76 1.803 . S
C457 C170 1.969 . S
C484 C254 1.952 . S
C472 C88 1.893 . S
C511 C320 1.906 . S
C499 C52 1.972 . S
C538 C404 1.961 . S
C526 C64 1.895 . S
C565 C159 1.931 1_565 S
C553 C28 1.896 . S
C580 C40 1.886 . S
C592 C243 1.979 . S
C607 C4 2.007 . S
C619 C331 1.888 . S
C634 C16 1.986 . S
C646 C415 1.873 . S
C673 C166 0.701 1_455 S
C661 C69 0.728 . S
C700 C250 0.525 1_545 S
C688 C81 0.589 . S
C727 C322 0.489 . S
C715 C93 0.489 . S
C742 C57 0.532 . S
C754 C406 0.527 . S
C769 C21 0.600 . S
C781 C154 0.625 1_554 S
C808 C238 0.700 . S
C796 C33 0.716 . S
C835 C334 0.673 . S
C823 C45 0.705 . S
C850 C9 0.598 . S
C862 C418 0.642 . S
C877 C66 1.981 . S
C889 C163 2.105 . S
C904 C78 1.992 . S
C916 C247 2.012 . S
C943 C327 2.081 . S
C931 C90 1.871 . S
C970 C411 2.109 . S
C958 C54 1.973 . S
C985 C18 1.966 . S
C997 C152 2.089 . S
C1024 C236 2.032 . S
C1012 C30 1.982 . S
C1051 C338 2.060 . S
C1039 C42 1.842 . S
C1066 C6 1.888 . S
C1078 C422 2.081 . S
