# Generated by pormake.
# Topology zzz, (3,6)-cn, num edge types: 1
# Building blocks:
#     Node 0, Type 0, BuildingBlock: PAMTOO_clean_linker_0, # of connection points: 3
#     Node 1, Type 0, BuildingBlock: PAMTOO_clean_linker_0, # of connection points: 3
#     Node 2, Type 0, BuildingBlock: PAMTOO_clean_linker_0, # of connection points: 3
#     Node 3, Type 0, BuildingBlock: PAMTOO_clean_linker_0, # of connection points: 3
#     Node 4, Type 0, BuildingBlock: PAMTOO_clean_linker_0, # of connection points: 3
#     Node 5, Type 0, BuildingBlock: PAMTOO_clean_linker_0, # of connection points: 3
#     Node 6, Type 0, BuildingBlock: PAMTOO_clean_linker_0, # of connection points: 3
#     Node 7, Type 0, BuildingBlock: PAMTOO_clean_linker_0, # of connection points: 3
#     Node 8, Type 1, BuildingBlock: KUMBOL_clean_sbu_1, # of connection points: 6
#     Node 9, Type 1, BuildingBlock: KUMBOL_clean_sbu_1, # of connection points: 6
#     Node 10, Type 1, BuildingBlock: KUMBOL_clean_sbu_1, # of connection points: 6
#     Node 11, Type 1, BuildingBlock: KUMBOL_clean_sbu_1, # of connection points: 6
#     Edge 12, Type (0, 1), None
#     Edge 13, Type (0, 1), None
#     Edge 14, Type (0, 1), None
#     Edge 15, Type (0, 1), None
#     Edge 16, Type (0, 1), None
#     Edge 17, Type (0, 1), None
#     Edge 18, Type (0, 1), None
#     Edge 19, Type (0, 1), None
#     Edge 20, Type (0, 1), None
#     Edge 21, Type (0, 1), None
#     Edge 22, Type (0, 1), None
#     Edge 23, Type (0, 1), None
#     Edge 24, Type (0, 1), None
#     Edge 25, Type (0, 1), None
#     Edge 26, Type (0, 1), None
#     Edge 27, Type (0, 1), None
#     Edge 28, Type (0, 1), None
#     Edge 29, Type (0, 1), None
#     Edge 30, Type (0, 1), None
#     Edge 31, Type (0, 1), None
#     Edge 32, Type (0, 1), None
#     Edge 33, Type (0, 1), None
#     Edge 34, Type (0, 1), None
#     Edge 35, Type (0, 1), None
# Relax obj value: 0.435
# Max RMSD: 0.169
# Mean RMSD: 0.088
data_MOF--net-zzz--node1-KUMBOL_clean_sbu_1--node2-PAMTOO_clean_linker_0--edge1-none
_symmetry_space_group_name_H-M    P1
_symmetry_Int_Tables_number       1
_symmetry_cell_setting            triclinic
loop_
_symmetry_equiv_pos_as_xyz
'x, y, z'
_cell_length_a     23.960571
_cell_length_b     24.221255
_cell_length_c     7.4034401
_cell_angle_alpha  89.488718
_cell_angle_beta   91.170528
_cell_angle_gamma 91.990081
loop_
_atom_site_label
_atom_site_type_symbol
_atom_site_fract_x
_atom_site_fract_y
_atom_site_fract_z
_atom_type_partial_charge
H0 H 0.86934 0.41948 0.58378 0.0
H1 H 0.74676 0.47848 0.14189 0.0
H2 H 0.73576 0.53217 0.89127 0.0
H3 H 0.55635 0.4541 0.45087 0.0
C4 C 0.58878 0.47913 0.39462 0.0
O5 O 0.63911 0.51857 0.54881 0.0
H6 H 0.59737 0.43717 0.37695 0.0
C7 C 0.83502 0.44664 0.5675 0.0
C8 C 0.8153 0.48071 0.75231 0.0
C9 C 0.81246 0.44826 0.35286 0.0
C10 C 0.76137 0.48829 0.27939 0.0
C11 C 0.70562 0.53436 0.55907 0.0
C12 C 0.74898 0.51726 0.7634 0.0
H13 H 0.08454 0.86654 0.61068 0.0
H14 H 0.02088 0.75081 0.15169 0.0
H15 H 0.96435 0.72802 0.89541 0.0
H16 H 0.03275 0.56106 0.45993 0.0
C17 C 0.00882 0.59004 0.39299 0.0
O18 O 0.96917 0.6376 0.54303 0.0
H19 H 0.05237 0.60102 0.359 0.0
C20 C 0.05434 0.83314 0.58632 0.0
C21 C 0.01705 0.81192 0.76293 0.0
C22 C 0.0536 0.81321 0.37304 0.0
C23 C 0.01085 0.76285 0.28937 0.0
C24 C 0.95826 0.70364 0.55802 0.0
C25 C 0.97627 0.74508 0.76717 0.0
H26 H 0.6159 0.01078 0.51864 0.0
H27 H 0.74355 0.97484 0.11077 0.0
H28 H 0.77078 0.93784 0.86639 0.0
H29 H 0.93431 0.02613 0.43755 0.0
C30 C 0.90567 -0.00178 0.37209 0.0
O31 O 0.86087 0.95309 0.52339 0.0
H32 H 0.88971 0.03681 0.31878 0.0
C33 C 0.65783 0.00026 0.5172 0.0
C34 C 0.68575 0.97874 0.71191 0.0
C35 C 0.67801 -0.00308 0.30686 0.0
C36 C 0.73187 0.96424 0.2488 0.0
C37 C 0.79622 0.93088 0.53601 0.0
C38 C 0.75429 0.94797 0.73531 0.0
H39 H 0.42281 0.68401 0.64491 0.0
H40 H 0.39899 0.79865 0.45959 0.0
H41 H 0.61634 0.71847 0.63952 0.0
H42 H 0.59284 0.81839 0.14699 0.0
C43 C 0.58648 0.8551 0.23134 0.0
O44 O 0.57679 0.83401 0.42796 0.0
H45 H 0.62904 0.87338 0.23707 0.0
C46 C 0.45513 0.65748 0.63225 0.0
C47 C 0.52515 0.66212 0.6714 0.0
C48 C 0.40957 0.70665 0.55799 0.0
C49 C 0.43122 0.77145 0.50627 0.0
C50 C 0.54458 0.78831 0.52977 0.0
C51 C 0.57174 0.72227 0.62103 0.0
H52 H 0.13008 0.57546 0.09173 0.0
H53 H 0.25251 0.51579 0.5339 0.0
H54 H 0.26324 0.46228 0.7842 0.0
H55 H 0.44266 0.54083 0.22488 0.0
C56 C 0.41046 0.51526 0.28085 0.0
O57 O 0.36016 0.47579 0.12657 0.0
H58 H 0.40212 0.55734 0.29701 0.0
C59 C 0.16429 0.54816 0.10832 0.0
C60 C 0.18397 0.51417 0.92323 0.0
C61 C 0.18688 0.54635 0.32311 0.0
C62 C 0.23791 0.50615 0.39627 0.0
C63 C 0.29356 0.46014 0.11627 0.0
C64 C 0.2502 0.47743 0.91196 0.0
H65 H 0.91419 0.12863 0.05671 0.0
H66 H 0.97701 0.24409 0.51993 0.0
H67 H 0.03435 0.26738 0.77722 0.0
H68 H 0.96593 0.43402 0.21294 0.0
C69 C 0.99005 0.40504 0.27987 0.0
O70 O 0.02987 0.35748 0.12975 0.0
H71 H 0.94655 0.39407 0.31437 0.0
C72 C 0.94431 0.16205 0.08336 0.0
C73 C 0.98235 0.18294 0.90853 0.0
C74 C 0.94421 0.18224 0.29656 0.0
C75 C 0.9872 0.23217 0.38228 0.0
C76 C 0.04073 0.29135 0.11496 0.0
C77 C 0.02315 0.24985 0.90542 0.0
H78 H 0.38224 0.98101 0.15753 0.0
H79 H 0.25381 0.02366 0.56507 0.0
H80 H 0.22998 0.05962 0.80844 0.0
H81 H 0.06437 0.96975 0.23069 0.0
C82 C 0.0939 -0.00393 0.29483 0.0
O83 O 0.13832 0.04222 0.14556 0.0
H84 H 0.10979 0.95573 0.3331 0.0
C85 C 0.34187 -0.00342 0.1637 0.0
C86 C 0.3143 0.01778 0.96626 0.0
C87 C 0.32047 0.00085 0.37458 0.0
C88 C 0.26615 0.03365 0.42752 0.0
C89 C 0.20283 0.06537 0.13589 0.0
C90 C 0.24563 0.04821 0.93929 0.0
H91 H 0.5754 0.31016 0.04006 0.0
H92 H 0.59724 0.19526 0.22783 0.0
H93 H 0.38214 0.27571 1.02534 0.0
H94 H 0.40409 0.17387 0.52317 0.0
C95 C 0.41146 0.13784 0.43678 0.0
O96 O 0.42004 0.16065 0.2409 0.0
H97 H 0.36948 0.11814 0.4341 0.0
C98 C 0.54339 0.33687 0.04714 0.0
C99 C 0.47352 0.33238 1.00184 0.0
C100 C 0.58828 0.2871 0.12529 0.0
C101 C 0.56551 0.22236 0.17612 0.0
C102 C 0.45328 0.20607 0.14128 0.0
C103 C 0.42663 0.27201 0.04731 0.0
C104 C 0.173 0.05543 0.43236 0.0
C105 C 0.11677 0.12755 0.56737 0.0
C106 C 0.12279 0.0927 0.41709 0.0
C107 C 0.16269 0.14544 0.67123 0.0
C108 C 0.21388 0.11385 0.43005 0.0
C109 C 0.21179 0.14718 0.58125 0.0
N110 N 0.1869 -0.0056 0.31138 0.0
C111 C 0.24131 0.98797 0.18826 0.0
C112 C 0.2664 0.12686 0.31009 0.0
C113 C 0.29275 0.08076 0.19293 0.0
Gd114 Gd 0.91668 0.99069 0.65998 0.0
Gd115 Gd 0.08302 0.00397 1.0079 0.0
N116 N 0.07736 0.08824 0.28328 0.0
C117 C 0.06713 0.1493 0.59325 0.0
C118 C 0.02624 0.09912 0.34348 0.0
C119 C 0.02138 0.1276 0.503 0.0
H120 H 0.98978 0.08532 0.26971 0.0
H121 H 0.98248 0.13814 0.55394 0.0
H122 H 0.00721 0.90754 0.39138 0.0
H123 H 0.24806 0.95066 0.11083 0.0
H124 H 0.01147 0.85141 0.11125 0.0
H125 H 0.06372 0.18106 0.6911 0.0
H126 H 0.15858 0.17028 0.79115 0.0
H127 H 0.75244 0.04607 0.56673 0.0
H128 H 0.2886 0.16643 0.32171 0.0
H129 H 0.33122 0.09691 0.1309 0.0
H130 H 0.83509 0.82499 0.87782 0.0
H131 H 0.24583 0.17526 0.62209 0.0
H132 H 0.70891 0.83089 0.35244 0.0
H133 H 0.66782 0.90001 0.54564 0.0
N134 N 0.81222 0.0021 0.36185 0.0
C135 C 0.82456 0.9411 0.23788 0.0
C136 C 0.75851 0.0089 0.48812 0.0
C137 C 0.73125 0.87042 0.36288 0.0
C138 C 0.70613 0.91618 0.48253 0.0
C139 C 0.78287 0.88325 0.24044 0.0
H140 H 0.7487 0.82233 0.05005 0.0
N141 N 0.91969 0.90568 0.38275 0.0
C142 C 0.87382 0.90243 0.25024 0.0
C143 C 0.92739 0.84454 0.07037 0.0
C144 C 0.87859 0.86745 0.0989 0.0
C145 C 0.9702 0.8937 0.32035 0.0
C146 C 0.97358 0.86421 0.1621 0.0
O147 O 0.05443 0.09574 0.91666 0.0
O148 O 0.96636 0.07498 0.79146 0.0
O149 O 0.91487 0.07246 0.7527 0.0
O150 O 0.83685 0.02932 0.72282 0.0
O151 O 0.9895 -0.00174 0.13872 0.0
O152 O 0.90418 0.97679 0.9916 0.0
O153 O 0.94604 0.89957 0.75459 0.0
O154 O 0.03442 0.91872 0.88233 0.0
O155 O 0.08815 0.92571 0.88237 0.0
O156 O 0.16379 0.96583 0.95926 0.0
O157 O 0.00962 -0.0054 0.52503 0.0
O158 O 0.09442 0.01833 0.67569 0.0
C159 C 0.00272 0.11522 0.8701 0.0
C160 C 0.9338 0.99031 0.15146 0.0
C161 C 0.84686 0.12531 0.62922 0.0
C162 C 0.89022 0.17845 0.38801 0.0
C163 C 0.83148 0.2233 0.59497 0.0
C164 C 0.82464 0.17385 0.69506 0.0
C165 C 0.86314 0.22551 0.43983 0.0
C166 C 0.87738 0.12992 0.47236 0.0
C167 C 0.86141 0.07774 0.74582 0.0
C168 C 0.83204 0.85021 0.99739 0.0
C169 C 0.78345 0.8498 0.08909 0.0
H170 H 0.93006 0.81374 0.96845 0.0
C171 C -0.00275 0.87942 0.80404 0.0
C172 C 0.06552 0.00307 0.51562 0.0
C173 C 0.1497 0.86965 1.03006 0.0
C174 C 0.10637 0.81838 0.27622 0.0
C175 C 0.1678 0.77288 0.07891 0.0
C176 C 0.17433 0.82129 0.97349 0.0
C177 C 0.13586 0.77186 0.23359 0.0
C178 C 0.11557 0.86543 0.17841 0.0
C179 C 0.14055 0.91871 0.91419 0.0
H180 H 0.8144 0.26127 0.63741 0.0
H181 H 0.80683 0.17492 0.82767 0.0
H182 H 0.87098 0.26498 0.374 0.0
H183 H 0.90786 0.10205 0.45416 0.0
H184 H 0.18548 0.73477 0.04098 0.0
H185 H 0.19429 0.81952 0.84436 0.0
H186 H 0.12954 0.73321 0.30593 0.0
H187 H 0.08376 0.893 0.18601 0.0
C188 C 0.47772 0.82179 0.73086 0.0
C189 C 0.40014 0.79403 0.90767 0.0
C190 C 0.43559 0.83689 0.84421 0.0
C191 C 0.42211 0.74553 0.9625 0.0
C192 C 0.48745 0.75265 0.7291 0.0
C193 C 0.47102 0.72828 0.89399 0.0
N194 N 0.4797 0.85714 0.55484 0.0
C195 C 0.48128 0.83657 0.34099 0.0
C196 C 0.49675 0.7198 0.41365 0.0
C197 C 0.49265 0.77251 0.26507 0.0
Gd198 Gd 0.51441 0.0414 0.96434 0.0
Gd199 Gd 0.48411 0.95298 0.70768 0.0
N200 N 0.41634 0.88861 0.83083 0.0
C201 C 0.34278 0.79956 0.89716 0.0
C202 C 0.36012 0.89525 0.85715 0.0
C203 C 0.32259 0.85089 0.86531 0.0
H204 H 0.34046 0.93257 0.84211 0.0
H205 H 0.27848 0.85747 0.85755 0.0
H206 H 0.66032 0.06257 0.85283 0.0
H207 H 0.47909 0.86374 0.23007 0.0
H208 H 0.72206 0.13868 0.84546 0.0
H209 H 0.31393 0.76484 0.90514 0.0
H210 H 0.40323 0.72407 0.06874 0.0
H211 H 0.50749 0.18762 0.39054 0.0
H212 H 0.5183 0.68818 0.37036 0.0
H213 H 0.51403 0.77012 0.14181 0.0
H214 H 0.59677 0.26872 0.60393 0.0
H215 H 0.48426 0.68998 0.94373 0.0
H216 H 0.47551 0.30533 0.30306 0.0
H217 H 0.47655 0.23415 0.541 0.0
N218 N 0.51794 0.13681 0.11537 0.0
C219 C 0.5215 0.17317 0.94333 0.0
C220 C 0.51464 0.15399 0.33007 0.0
C221 C 0.49971 0.2749 0.26178 0.0
C222 C 0.50205 0.22139 0.41417 0.0
C223 C 0.51198 0.24215 0.94685 0.0
H224 H 0.5173 0.30526 0.73324 0.0
N225 N 0.58416 0.10648 0.85568 0.0
C226 C 0.5647 0.15798 0.8362 0.0
C227 C 0.65753 0.19587 0.79469 0.0
C228 C 0.60025 0.20044 0.77271 0.0
C229 C 0.64068 0.1 0.83493 0.0
C230 C 0.67794 0.14473 0.83087 0.0
O231 O 0.53874 0.89427 0.91519 0.0
O232 O 0.54741 0.95762 0.1305 0.0
O233 O 0.53767 -0.00341 0.21551 0.0
O234 O 0.4887 0.06646 0.21497 0.0
O235 O 0.42117 0.00466 0.88706 0.0
O236 O 0.42139 0.00548 0.8892 0.0
O237 O 0.46308 0.10076 0.74935 0.0
O238 O 0.45143 0.0363 0.54035 0.0
O239 O 0.45524 -0.00488 0.4568 0.0
O240 O 0.50419 0.92547 0.45594 0.0
O241 O 0.57811 0.9905 0.78697 0.0
O242 O 0.57758 0.98953 0.78395 0.0
C243 C 0.55473 0.90376 0.08855 0.0
C244 C 0.37086 0.02817 0.84917 0.0
C245 C 0.58859 0.07398 0.29562 0.0
C246 C 0.67739 0.05108 0.21436 0.0
C247 C 0.66795 0.12751 0.41304 0.0
C248 C 0.61181 0.10971 0.42804 0.0
C249 C 0.70178 0.09768 0.30118 0.0
C250 C 0.62425 0.05683 0.16801 0.0
C251 C 0.53351 0.0444 0.28706 0.0
C252 C 0.57805 0.24821 0.71238 0.0
C253 C 0.52997 0.2667 0.78314 0.0
H254 H 0.6861 0.23091 0.78852 0.0
C255 C 0.44728 0.09105 0.57605 0.0
C256 C 0.62858 0.96762 0.82652 0.0
C257 C 0.40286 0.91648 0.39042 0.0
C258 C 0.31759 0.94705 0.47263 0.0
C259 C 0.31851 0.86767 0.28284 0.0
C260 C 0.37577 0.88025 0.26486 0.0
C261 C 0.28852 0.9014 0.39441 0.0
C262 C 0.36949 0.93631 0.51951 0.0
C263 C 0.45839 0.94674 0.38798 0.0
H264 H 0.6861 0.16077 0.49007 0.0
H265 H 0.58682 0.12385 0.53209 0.0
H266 H 0.74643 0.10608 0.30167 0.0
H267 H 0.6099 0.03011 0.06674 0.0
H268 H 0.29688 0.83647 0.20358 0.0
H269 H 0.39679 0.86194 0.15969 0.0
H270 H 0.24344 0.89713 0.39649 0.0
H271 H 0.38635 0.96289 0.61689 0.0
C272 C 0.32582 0.46852 0.41257 0.0
C273 C 0.37407 0.38213 0.5408 0.0
C274 C 0.37089 0.42235 0.39871 0.0
C275 C 0.32772 0.36504 0.63482 0.0
C276 C 0.27721 0.41742 0.42083 0.0
C277 C 0.27822 0.37714 0.55678 0.0
N278 N 0.31918 0.53133 0.27829 0.0
C279 C 0.26496 0.54241 0.14433 0.0
C280 C 0.22399 0.41083 0.29959 0.0
C281 C 0.2036 0.458 0.17387 0.0
Gd282 Gd 0.58112 0.48299 0.67901 0.0
Gd283 Gd 0.41813 0.51157 0.99658 0.0
N284 N 0.41539 0.42187 0.2667 0.0
C285 C 0.42253 0.35577 0.57243 0.0
C286 C 0.4646 0.4025 0.32526 0.0
C287 C 0.46927 0.3757 0.48929 0.0
H288 H 0.50103 0.40747 0.24757 0.0
H289 H 0.50656 0.35587 0.51621 0.0
H290 H 0.49834 0.58696 0.4276 0.0
H291 H 0.26103 0.57733 0.05327 0.0
H292 H 0.49291 0.63775 0.15711 0.0
H293 H 0.42472 0.32148 0.66668 0.0
H294 H 0.32937 0.33345 0.73952 0.0
H295 H 0.73832 0.41709 0.62215 0.0
H296 H 0.19912 0.37264 0.30377 0.0
H297 H 0.16781 0.44036 0.10673 0.0
H298 H 0.66992 0.66087 0.9355 0.0
H299 H 0.24241 0.35061 0.58695 0.0
H300 H 0.79992 0.62197 0.37154 0.0
H301 H 0.83137 0.55435 0.56786 0.0
N302 N 0.68014 0.46309 0.39715 0.0
C303 C 0.67342 0.52585 0.26279 0.0
C304 C 0.73431 0.45211 0.53147 0.0
C305 C 0.77513 0.58372 0.37568 0.0
C306 C 0.79556 0.53667 0.50141 0.0
C307 C 0.72201 0.57698 0.25436 0.0
H308 H 0.75673 0.64399 0.08881 0.0
N309 N 0.58402 0.57258 0.40876 0.0
C310 C 0.62846 0.57205 0.27667 0.0
C311 C 0.57693 0.63857 0.10264 0.0
C312 C 0.62529 0.61223 0.13437 0.0
C313 C 0.53486 0.59197 0.35014 0.0
C314 C 0.53033 0.61851 0.18565 0.0
O315 O 0.41616 0.41836 0.92357 0.0
O316 O 0.50669 0.42551 0.82726 0.0
O317 O 0.57419 0.39399 0.67842 0.0
O318 O 0.65341 0.433 0.75017 0.0
O319 O 0.50933 0.49672 0.14293 0.0
O320 O 0.59662 0.49094 1.01222 0.0
O321 O 0.58285 0.57637 0.7501 0.0
O322 O 0.49247 0.56894 0.84733 0.0
O323 O 0.42518 0.60063 0.99694 0.0
O324 O 0.34592 0.56169 0.92688 0.0
O325 O 0.48972 0.49766 0.53343 0.0
O326 O 0.40249 0.504 0.66334 0.0
C327 C 0.46455 0.39348 0.91044 0.0
C328 C 0.56447 0.48966 0.16717 0.0
C329 C 0.65195 0.35232 0.5511 0.0
C330 C 0.63417 0.30223 0.26676 0.0
C331 C 0.70803 0.2752 0.46878 0.0
C332 C 0.6971 0.31831 0.58774 0.0
C333 C 0.67724 0.26725 0.30971 0.0
C334 C 0.6213 0.3423 0.38943 0.0
C335 C 0.62759 0.38737 0.69445 0.0
C336 C 0.67158 0.62931 0.04028 0.0
C337 C 0.72102 0.6173 0.11852 0.0
H338 H 0.57476 0.67271 1.00783 0.0
C339 C 0.5344 0.6011 0.76343 0.0
C340 C 0.43466 0.50485 0.50851 0.0
C341 C 0.34769 0.6419 0.1278 0.0
C342 C 0.36473 0.69122 0.41428 0.0
C343 C 0.29043 0.71767 0.21382 0.0
C344 C 0.30207 0.67538 0.09286 0.0
C345 C 0.32115 0.7256 0.37253 0.0
C346 C 0.37852 0.65203 0.28932 0.0
C347 C 0.37179 0.60723 0.98291 0.0
H348 H 0.73635 0.24418 0.50463 0.0
H349 H 0.72022 0.32168 0.71441 0.0
H350 H 0.68558 0.23247 0.22458 0.0
H351 H 0.5805 0.35738 0.37238 0.0
H352 H 0.26113 0.74793 0.18115 0.0
H353 H 0.27886 0.67215 0.96638 0.0
H354 H 0.31203 0.75979 0.4592 0.0
H355 H 0.41952 0.63727 0.30565 0.0
C356 C 0.02974 0.31934 0.41174 0.0
C357 C 0.11742 0.36527 0.56336 0.0
C358 C 0.07935 0.36434 0.41189 0.0
C359 C 0.13066 0.31821 0.65437 0.0
C360 C 0.07911 0.27194 0.42294 0.0
C361 C 0.1203 0.27223 0.55878 0.0
N362 N 0.96816 0.31434 0.26419 0.0
C363 C 0.95542 0.26203 0.12628 0.0
C364 C 0.08442 0.22124 0.29958 0.0
C365 C 0.03699 0.20159 0.16803 0.0
Gd366 Gd -0.00208 0.57858 0.67857 0.0
Gd367 Gd 0.00104 0.41654 0.9945 0.0
N368 N 0.08509 0.41034 0.28434 0.0
C369 C 0.14721 0.41185 0.60443 0.0
C370 C 0.10352 0.45868 0.35599 0.0
C371 C 0.13461 0.4589 0.51526 0.0
H372 H 0.09215 0.49652 0.29316 0.0
H373 H 0.15288 0.49472 0.57166 0.0
H374 H 0.907 0.49832 0.38074 0.0
H375 H 0.91978 0.25884 1.03345 0.0
H376 H 0.84577 0.50005 0.10269 0.0
H377 H 0.17749 0.41285 0.71474 0.0
H378 H 0.16151 0.31804 0.76388 0.0
H379 H 0.07952 0.7364 0.63583 0.0
H380 H 0.12293 0.19922 0.30024 0.0
H381 H 0.05442 0.16791 0.1015 0.0
H382 H 0.83668 0.67669 0.91019 0.0
H383 H 0.14985 0.24065 0.57358 0.0
H384 H 0.87555 0.79604 0.37288 0.0
H385 H 0.94458 0.82734 0.57149 0.0
N386 N 0.03048 0.6808 0.40685 0.0
C387 C 0.96856 0.67554 0.26097 0.0
C388 C 0.04349 0.73318 0.54439 0.0
C389 C 0.91388 0.77368 0.37429 0.0
C390 C 0.96157 0.79339 0.5051 0.0
C391 C 0.91902 0.7229 0.25093 0.0
H392 H 0.8488 0.75481 0.09847 0.0
N393 N 0.91378 0.58453 0.38934 0.0
C394 C 0.91921 0.63048 0.26159 0.0
C395 C 0.85132 0.58285 0.06987 0.0
C396 C 0.88094 0.62952 0.11071 0.0
C397 C 0.89547 0.53613 0.31788 0.0
C398 C 0.86413 0.53584 0.15899 0.0
O399 O 0.09563 0.44021 0.91316 0.0
O400 O 0.07708 0.52539 0.79751 0.0
O401 O 0.07422 0.58004 0.82587 0.0
O402 O 0.03937 0.65646 0.77069 0.0
O403 O 0.00567 0.50756 0.15051 0.0
O404 O 0.98262 0.5903 1.00863 0.0
O405 O 0.90337 0.55511 0.76091 0.0
O406 O 0.92245 0.47024 0.87636 0.0
O407 O 0.92442 0.41514 0.84954 0.0
O408 O 0.95963 0.33877 0.90118 0.0
O409 O -0.0062 0.4875 0.52293 0.0
O410 O 0.01548 0.40441 0.66434 0.0
C411 C 0.11752 0.49082 0.86606 0.0
C412 C -0.0015 0.56238 0.16739 0.0
C413 C 0.13228 0.64026 0.67203 0.0
C414 C 0.18308 0.59645 0.4348 0.0
C415 C 0.22486 0.6737 0.60276 0.0
C416 C 0.17495 0.67991 0.69267 0.0
C417 C 0.22928 0.63139 0.47533 0.0
C418 C 0.13805 0.60007 0.54151 0.0
C419 C 0.08573 0.63161 0.79768 0.0
C420 C 0.86743 0.67659 1.01996 0.0
C421 C 0.87784 0.72269 0.11505 0.0
H422 H 0.82099 0.58178 0.95976 0.0
C423 C 0.88168 0.50447 0.80847 0.0
C424 C 0.00049 0.43268 0.50545 0.0
C425 C 0.86669 0.35452 1.00308 0.0
C426 C 0.81634 0.39803 0.24196 0.0
C427 C 0.77512 0.31947 0.0794 0.0
C428 C 0.82459 0.31402 0.98613 0.0
C429 C 0.7706 0.36207 0.20569 0.0
C430 C 0.8608 0.39493 0.13268 0.0
C431 C 0.91305 0.3635 0.87641 0.0
H432 H 0.26016 0.70013 0.64023 0.0
H433 H 0.17031 0.71417 0.7786 0.0
H434 H 0.26885 0.62387 0.41628 0.0
H435 H 0.11062 0.56598 0.53642 0.0
H436 H 0.74024 0.292 0.046 0.0
H437 H 0.82942 0.27935 0.90194 0.0
H438 H 0.7313 0.36892 0.26738 0.0
H439 H 0.88802 0.4292 0.13653 0.0
loop_
_geom_bond_atom_site_label_1
_geom_bond_atom_site_label_2
_geom_bond_distance
_geom_bond_site_symmetry_2
_ccdc_geom_bond_type
H0 C7 0.929 . S
H1 C10 0.930 . S
H2 C12 0.929 . S
H3 C4 0.969 . S
C4 H3 0.969 . S
C4 O5 1.550 . S
C4 H6 0.973 . S
O5 C4 1.550 . S
O5 C11 1.412 . S
H6 C4 0.973 . S
C7 H0 0.929 . S
C7 C8 1.400 . S
C7 C9 1.364 . S
C8 C7 1.400 . S
C8 C12 1.377 . S
C9 C7 1.364 . S
C9 C10 1.374 . S
C10 H1 0.930 . S
C10 C9 1.374 . S
C10 C11 1.383 . S
C11 O5 1.412 . S
C11 C10 1.383 . S
C11 C12 1.394 . S
C12 H2 0.929 . S
C12 C8 1.377 . S
C12 C11 1.394 . S
H13 C20 0.929 . S
H14 C23 0.930 . S
H15 C25 0.929 . S
H16 C17 0.969 . S
C17 H16 0.969 . S
C17 O18 1.550 1_455 S
C17 H19 0.973 1_455 S
O18 C17 1.550 1_655 S
O18 C24 1.412 . S
H19 C17 0.973 1_655 S
C20 H13 0.929 . S
C20 C21 1.400 . S
C20 C22 1.364 . S
C21 C20 1.400 . S
C21 C25 1.377 . S
C22 C20 1.364 . S
C22 C23 1.374 . S
C23 H14 0.930 . S
C23 C22 1.374 . S
C23 C24 1.383 . S
C24 O18 1.412 . S
C24 C23 1.383 . S
C24 C25 1.394 . S
C25 H15 0.929 . S
C25 C21 1.377 . S
C25 C24 1.394 . S
H26 C33 0.929 . S
H27 C36 0.930 . S
H28 C38 0.929 . S
H29 C30 0.969 . S
C30 H29 0.969 . S
C30 O31 1.550 1_545 S
C30 H32 0.973 1_545 S
O31 C30 1.550 1_565 S
O31 C37 1.412 . S
H32 C30 0.973 1_565 S
C33 H26 0.929 . S
C33 C34 1.400 . S
C33 C35 1.364 . S
C34 C33 1.400 . S
C34 C38 1.377 . S
C35 C33 1.364 . S
C35 C36 1.374 . S
C36 H27 0.930 . S
C36 C35 1.374 . S
C36 C37 1.383 . S
C37 O31 1.412 . S
C37 C36 1.383 . S
C37 C38 1.394 . S
C38 H28 0.929 . S
C38 C34 1.377 . S
C38 C37 1.394 . S
H39 C46 0.929 . S
H40 C49 0.930 . S
H41 C51 0.929 . S
H42 C43 0.969 . S
C43 H42 0.969 . S
C43 O44 1.550 . S
C43 H45 0.973 . S
O44 C43 1.550 . S
O44 C50 1.412 . S
H45 C43 0.973 . S
C46 H39 0.929 . S
C46 C47 1.400 . S
C46 C48 1.364 . S
C47 C46 1.400 . S
C47 C51 1.377 . S
C48 C46 1.364 . S
C48 C49 1.374 . S
C49 H40 0.930 . S
C49 C48 1.374 . S
C49 C50 1.383 . S
C50 O44 1.412 . S
C50 C49 1.383 . S
C50 C51 1.394 . S
C51 H41 0.929 . S
C51 C47 1.377 . S
C51 C50 1.394 . S
H52 C59 0.929 . S
H53 C62 0.930 . S
H54 C64 0.929 . S
H55 C56 0.969 . S
C56 H55 0.969 . S
C56 O57 1.550 . S
C56 H58 0.973 . S
O57 C56 1.550 . S
O57 C63 1.412 . S
H58 C56 0.973 . S
C59 H52 0.929 . S
C59 C60 1.400 . S
C59 C61 1.364 1_556 S
C60 C59 1.400 . S
C60 C64 1.377 . S
C61 C59 1.364 1_554 S
C61 C62 1.374 . S
C62 H53 0.930 . S
C62 C61 1.374 . S
C62 C63 1.383 . S
C63 O57 1.412 . S
C63 C62 1.383 . S
C63 C64 1.394 1_554 S
C64 H54 0.929 . S
C64 C60 1.377 . S
C64 C63 1.394 1_556 S
H65 C72 0.929 . S
H66 C75 0.930 . S
H67 C77 0.929 . S
H68 C69 0.969 . S
C69 H68 0.969 . S
C69 O70 1.550 . S
C69 H71 0.973 . S
O70 C69 1.550 . S
O70 C76 1.412 . S
H71 C69 0.973 . S
C72 H65 0.929 . S
C72 C73 1.400 . S
C72 C74 1.364 1_556 S
C73 C72 1.400 . S
C73 C77 1.377 . S
C74 C72 1.364 1_554 S
C74 C75 1.374 . S
C75 H66 0.930 . S
C75 C74 1.374 . S
C75 C76 1.383 . S
C76 O70 1.412 . S
C76 C75 1.383 . S
C76 C77 1.394 1_554 S
C77 H67 0.929 . S
C77 C73 1.377 . S
C77 C76 1.394 1_556 S
H78 C85 0.929 . S
H79 C88 0.930 . S
H80 C90 0.929 . S
H81 C82 0.969 . S
C82 H81 0.969 . S
C82 O83 1.550 . S
C82 H84 0.973 . S
O83 C82 1.550 . S
O83 C89 1.412 . S
H84 C82 0.973 . S
C85 H78 0.929 . S
C85 C86 1.400 . S
C85 C87 1.364 1_556 S
C86 C85 1.400 . S
C86 C90 1.377 . S
C87 C85 1.364 1_554 S
C87 C88 1.374 . S
C88 H79 0.930 . S
C88 C87 1.374 . S
C88 C89 1.383 . S
C89 O83 1.412 . S
C89 C88 1.383 . S
C89 C90 1.394 1_554 S
C90 H80 0.929 . S
C90 C86 1.377 . S
C90 C89 1.394 1_556 S
H91 C98 0.929 . S
H92 C101 0.930 . S
H93 C103 0.929 . S
H94 C95 0.969 . S
C95 H94 0.969 . S
C95 O96 1.550 . S
C95 H97 0.973 . S
O96 C95 1.550 . S
O96 C102 1.412 . S
H97 C95 0.973 . S
C98 H91 0.929 . S
C98 C99 1.400 . S
C98 C100 1.364 1_556 S
C99 C98 1.400 . S
C99 C103 1.377 . S
C100 C98 1.364 1_554 S
C100 C101 1.374 . S
C101 H92 0.930 . S
C101 C100 1.374 . S
C101 C102 1.383 . S
C102 O96 1.412 . S
C102 C101 1.383 . S
C102 C103 1.394 1_554 S
C103 H93 0.929 . S
C103 C99 1.377 . S
C103 C102 1.394 1_556 S
C104 C106 1.422 . S
C104 C108 1.415 . S
C104 N110 1.369 . S
C105 C106 1.421 . S
C105 C107 1.417 . S
C105 C117 1.422 . S
C106 C104 1.422 . S
C106 C105 1.421 . S
C106 N116 1.359 . S
C107 C105 1.417 . S
C107 C109 1.329 . S
C107 H126 0.930 . S
C108 C104 1.415 . S
C108 C109 1.437 . S
C108 C112 1.413 . S
C109 C107 1.329 . S
C109 C108 1.437 . S
C109 H131 0.929 . S
N110 C104 1.369 . S
N110 C111 1.338 1_554 S
N110 Gd115 2.622 1_544 S
C111 N110 1.338 1_556 S
C111 C113 1.378 . S
C111 H123 0.929 1_545 S
C112 C108 1.413 . S
C112 C113 1.348 1_554 S
C112 H128 0.931 . S
C113 C111 1.378 . S
C113 C112 1.348 1_556 S
C113 H129 0.930 . S
Gd114 N134 2.622 . S
Gd114 N141 2.570 1_545 S
Gd114 O148 2.353 . S
Gd114 O149 2.468 . S
Gd114 O150 2.427 . S
Gd114 O152 2.388 . S
Gd114 O153 2.386 1_545 S
Gd114 O157 2.307 1_655 S
Gd114 C167 2.805 . S
Gd115 N110 2.622 1_566 S
Gd115 N116 2.570 1_566 S
Gd115 O147 2.386 1_565 S
Gd115 O151 2.312 1_456 S
Gd115 O154 2.353 . S
Gd115 O155 2.468 1_556 S
Gd115 O156 2.427 1_556 S
Gd115 O158 2.388 . S
Gd115 C179 2.805 1_556 S
N116 C106 1.359 . S
N116 Gd115 2.570 1_544 S
N116 C118 1.343 . S
C117 C105 1.422 . S
C117 C119 1.321 . S
C117 H125 0.931 . S
C118 N116 1.343 . S
C118 C119 1.390 . S
C118 H120 0.931 . S
C119 C117 1.321 . S
C119 C118 1.390 . S
C119 H121 0.930 . S
H120 C118 0.931 . S
H121 C119 0.930 . S
H122 C145 0.931 1_455 S
H123 C111 0.929 1_565 S
H124 C146 0.930 . S
H125 C117 0.931 . S
H126 C107 0.930 . S
H127 C136 0.929 . S
H128 C112 0.931 . S
H129 C113 0.930 . S
H130 C168 0.930 . S
H131 C109 0.929 . S
H132 C137 0.931 . S
H133 C138 0.930 . S
N134 Gd114 2.622 . S
N134 C135 1.369 1_545 S
N134 C136 1.338 . S
C135 N134 1.369 1_565 S
C135 C139 1.415 . S
C135 C142 1.422 . S
C136 H127 0.929 . S
C136 N134 1.338 . S
C136 C138 1.378 1_545 S
C137 H132 0.931 . S
C137 C138 1.348 . S
C137 C139 1.413 . S
C138 H133 0.930 . S
C138 C136 1.378 1_565 S
C138 C137 1.348 . S
C139 C135 1.415 . S
C139 C137 1.413 . S
C139 C169 1.437 . S
H140 C169 0.929 . S
N141 Gd114 2.570 1_565 S
N141 C142 1.359 . S
N141 C145 1.343 . S
C142 C135 1.422 . S
C142 N141 1.359 . S
C142 C144 1.421 . S
C143 C144 1.422 . S
C143 C146 1.321 . S
C143 H170 0.931 1_554 S
C144 C142 1.421 . S
C144 C143 1.422 . S
C144 C168 1.417 . S
C145 H122 0.931 1_655 S
C145 N141 1.343 . S
C145 C146 1.390 . S
C146 H124 0.930 . S
C146 C143 1.321 . S
C146 C145 1.390 . S
O147 Gd115 2.386 1_545 S
O147 C159 1.265 . S
O148 Gd114 2.353 . S
O148 C159 1.242 1_655 S
O149 Gd114 2.468 . S
O149 C167 1.263 . S
O150 Gd114 2.427 . S
O150 C167 1.252 . S
O151 Gd115 2.312 1_654 S
O151 C160 1.258 1_565 S
O152 Gd114 2.388 . S
O152 C160 1.252 1_556 S
O153 Gd114 2.386 1_565 S
O153 C171 1.265 . S
O154 Gd115 2.353 . S
O154 C171 1.242 1_455 S
O155 Gd115 2.468 1_554 S
O155 C179 1.263 . S
O156 Gd115 2.427 1_554 S
O156 C179 1.252 . S
O157 Gd114 2.307 1_455 S
O157 C172 1.261 . S
O158 Gd115 2.388 . S
O158 C172 1.252 1_565 S
C159 O147 1.265 . S
C159 O148 1.242 1_455 S
C160 O151 1.258 1_545 S
C160 O152 1.252 1_554 S
C161 C164 1.394 . S
C161 C166 1.370 . S
C161 C167 1.500 . S
C162 C165 1.383 . S
C162 C166 1.395 . S
C163 C164 1.396 . S
C163 C165 1.365 . S
C163 H180 0.929 . S
C164 C161 1.394 . S
C164 C163 1.396 . S
C164 H181 0.930 . S
C165 C162 1.383 . S
C165 C163 1.365 . S
C165 H182 0.931 . S
C166 C161 1.370 . S
C166 C162 1.395 . S
C166 H183 0.930 . S
C167 Gd114 2.805 . S
C167 O149 1.263 . S
C167 O150 1.252 . S
C167 C161 1.500 . S
C168 H130 0.930 . S
C168 C144 1.417 . S
C168 C169 1.329 . S
C169 C139 1.437 . S
C169 H140 0.929 . S
C169 C168 1.329 . S
H170 C143 0.931 1_556 S
C171 O153 1.265 . S
C171 O154 1.242 1_655 S
C172 O157 1.261 . S
C172 O158 1.252 1_545 S
C173 C176 1.394 . S
C173 C178 1.370 . S
C173 C179 1.500 . S
C174 C177 1.383 . S
C174 C178 1.395 . S
C175 C176 1.396 . S
C175 C177 1.365 . S
C175 H184 0.929 . S
C176 C173 1.394 . S
C176 C175 1.396 . S
C176 H185 0.930 . S
C177 C174 1.383 . S
C177 C175 1.365 . S
C177 H186 0.931 . S
C178 C173 1.370 . S
C178 C174 1.395 . S
C178 H187 0.930 . S
C179 Gd115 2.805 1_554 S
C179 O155 1.263 . S
C179 O156 1.252 . S
C179 C173 1.500 . S
H180 C163 0.929 . S
H181 C164 0.930 . S
H182 C165 0.931 . S
H183 C166 0.930 . S
H184 C175 0.929 . S
H185 C176 0.930 . S
H186 C177 0.931 . S
H187 C178 0.930 . S
C188 C190 1.422 . S
C188 C192 1.415 . S
C188 N194 1.369 . S
C189 C190 1.421 . S
C189 C191 1.417 . S
C189 C201 1.422 . S
C190 C188 1.422 . S
C190 C189 1.421 . S
C190 N200 1.359 . S
C191 C189 1.417 . S
C191 C193 1.329 . S
C191 H210 0.930 . S
C192 C188 1.415 . S
C192 C193 1.437 . S
C192 C196 1.413 . S
C193 C191 1.329 . S
C193 C192 1.437 . S
C193 H215 0.929 . S
N194 C188 1.369 . S
N194 C195 1.338 . S
N194 Gd199 2.622 . S
C195 N194 1.338 . S
C195 C197 1.378 . S
C195 H207 0.929 . S
C196 C192 1.413 . S
C196 C197 1.348 . S
C196 H212 0.931 . S
C197 C195 1.378 . S
C197 C196 1.348 . S
C197 H213 0.930 . S
Gd198 N218 2.622 1_556 S
Gd198 N225 2.570 . S
Gd198 O232 2.353 1_546 S
Gd198 O233 2.468 1_556 S
Gd198 O234 2.427 1_556 S
Gd198 O236 2.388 1_556 S
Gd198 O237 2.386 . S
Gd198 O241 2.307 . S
Gd198 C251 2.805 1_556 S
Gd199 N194 2.622 . S
Gd199 N200 2.570 . S
Gd199 O231 2.386 . S
Gd199 O235 2.307 . S
Gd199 O238 2.353 1_565 S
Gd199 O239 2.468 . S
Gd199 O240 2.427 . S
Gd199 O242 2.388 . S
Gd199 C263 2.805 . S
N200 C190 1.359 . S
N200 Gd199 2.570 . S
N200 C202 1.343 . S
C201 C189 1.422 . S
C201 C203 1.321 . S
C201 H209 0.931 . S
C202 N200 1.343 . S
C202 C203 1.390 . S
C202 H204 0.931 . S
C203 C201 1.321 . S
C203 C202 1.390 . S
C203 H205 0.930 . S
H204 C202 0.931 . S
H205 C203 0.930 . S
H206 C229 0.931 . S
H207 C195 0.929 . S
H208 C230 0.930 . S
H209 C201 0.931 . S
H210 C191 0.930 . S
H211 C220 0.929 . S
H212 C196 0.931 . S
H213 C197 0.930 . S
H214 C252 0.930 . S
H215 C193 0.929 . S
H216 C221 0.931 . S
H217 C222 0.930 . S
N218 Gd198 2.622 1_554 S
N218 C219 1.369 . S
N218 C220 1.338 . S
C219 N218 1.369 . S
C219 C223 1.415 . S
C219 C226 1.422 1_554 S
C220 H211 0.929 . S
C220 N218 1.338 . S
C220 C222 1.378 . S
C221 H216 0.931 . S
C221 C222 1.348 . S
C221 C223 1.413 . S
C222 H217 0.930 . S
C222 C220 1.378 . S
C222 C221 1.348 . S
C223 C219 1.415 . S
C223 C221 1.413 . S
C223 C253 1.437 1_554 S
H224 C253 0.929 . S
N225 Gd198 2.570 . S
N225 C226 1.359 . S
N225 C229 1.343 . S
C226 C219 1.422 1_556 S
C226 N225 1.359 . S
C226 C228 1.421 . S
C227 C228 1.422 . S
C227 C230 1.321 . S
C227 H254 0.931 . S
C228 C226 1.421 . S
C228 C227 1.422 . S
C228 C252 1.417 . S
C229 H206 0.931 . S
C229 N225 1.343 . S
C229 C230 1.390 . S
C230 H208 0.930 . S
C230 C227 1.321 . S
C230 C229 1.390 . S
O231 Gd199 2.386 . S
O231 C243 1.265 1_556 S
O232 Gd198 2.353 1_564 S
O232 C243 1.242 . S
O233 Gd198 2.468 1_554 S
O233 C251 1.263 . S
O234 Gd198 2.427 1_554 S
O234 C251 1.252 . S
O235 Gd199 2.307 . S
O235 C244 1.261 1_565 S
O236 Gd198 2.388 1_554 S
O236 C244 1.252 1_554 S
O237 Gd198 2.386 . S
O237 C255 1.265 . S
O238 Gd199 2.353 1_545 S
O238 C255 1.242 . S
O239 Gd199 2.468 . S
O239 C263 1.263 . S
O240 Gd199 2.427 . S
O240 C263 1.252 . S
O241 Gd198 2.307 . S
O241 C256 1.261 1_545 S
O242 Gd199 2.388 . S
O242 C256 1.252 . S
C243 O231 1.265 1_554 S
C243 O232 1.242 . S
C244 O235 1.261 1_545 S
C244 O236 1.252 1_556 S
C245 C248 1.394 . S
C245 C250 1.370 . S
C245 C251 1.500 . S
C246 C249 1.383 . S
C246 C250 1.395 . S
C247 C248 1.396 . S
C247 C249 1.365 . S
C247 H264 0.929 . S
C248 C245 1.394 . S
C248 C247 1.396 . S
C248 H265 0.930 . S
C249 C246 1.383 . S
C249 C247 1.365 . S
C249 H266 0.931 . S
C250 C245 1.370 . S
C250 C246 1.395 . S
C250 H267 0.930 . S
C251 Gd198 2.805 1_554 S
C251 O233 1.263 . S
C251 O234 1.252 . S
C251 C245 1.500 . S
C252 H214 0.930 . S
C252 C228 1.417 . S
C252 C253 1.329 . S
C253 C223 1.437 1_556 S
C253 H224 0.929 . S
C253 C252 1.329 . S
H254 C227 0.931 . S
C255 O237 1.265 . S
C255 O238 1.242 . S
C256 O241 1.261 1_565 S
C256 O242 1.252 . S
C257 C260 1.394 . S
C257 C262 1.370 . S
C257 C263 1.500 . S
C258 C261 1.383 1_554 S
C258 C262 1.395 . S
C259 C260 1.396 1_556 S
C259 C261 1.365 . S
C259 H268 0.929 . S
C260 C257 1.394 . S
C260 C259 1.396 1_554 S
C260 H269 0.930 . S
C261 C258 1.383 1_556 S
C261 C259 1.365 . S
C261 H270 0.931 . S
C262 C257 1.370 . S
C262 C258 1.395 . S
C262 H271 0.930 . S
C263 Gd199 2.805 . S
C263 O239 1.263 . S
C263 O240 1.252 . S
C263 C257 1.500 . S
H264 C247 0.929 . S
H265 C248 0.930 . S
H266 C249 0.931 . S
H267 C250 0.930 . S
H268 C259 0.929 . S
H269 C260 0.930 . S
H270 C261 0.931 . S
H271 C262 0.930 . S
C272 C274 1.422 . S
C272 C276 1.415 . S
C272 N278 1.369 . S
C273 C274 1.421 . S
C273 C275 1.417 . S
C273 C285 1.422 . S
C274 C272 1.422 . S
C274 C273 1.421 . S
C274 N284 1.359 . S
C275 C273 1.417 . S
C275 C277 1.329 . S
C275 H294 0.930 . S
C276 C272 1.415 . S
C276 C277 1.437 . S
C276 C280 1.413 . S
C277 C275 1.329 . S
C277 C276 1.437 . S
C277 H299 0.929 . S
N278 C272 1.369 . S
N278 C279 1.338 1_554 S
N278 Gd283 2.622 1_554 S
C279 N278 1.338 1_556 S
C279 C281 1.378 . S
C279 H291 0.929 . S
C280 C276 1.413 . S
C280 C281 1.348 1_554 S
C280 H296 0.931 . S
C281 C279 1.378 . S
C281 C280 1.348 1_556 S
C281 H297 0.930 . S
Gd282 N302 2.622 . S
Gd282 N309 2.570 . S
Gd282 O316 2.353 . S
Gd282 O317 2.468 . S
Gd282 O318 2.427 . S
Gd282 O320 2.388 . S
Gd282 O321 2.386 . S
Gd282 O325 2.307 . S
Gd282 C335 2.805 . S
Gd283 N278 2.622 1_556 S
Gd283 N284 2.570 1_556 S
Gd283 O315 2.386 . S
Gd283 O319 2.307 1_556 S
Gd283 O322 2.353 . S
Gd283 O323 2.468 1_556 S
Gd283 O324 2.427 1_556 S
Gd283 O326 2.388 . S
Gd283 C347 2.805 1_556 S
N284 C274 1.359 . S
N284 Gd283 2.570 1_554 S
N284 C286 1.343 . S
C285 C273 1.422 . S
C285 C287 1.321 . S
C285 H293 0.931 . S
C286 N284 1.343 . S
C286 C287 1.390 . S
C286 H288 0.931 . S
C287 C285 1.321 . S
C287 C286 1.390 . S
C287 H289 0.930 . S
H288 C286 0.931 . S
H289 C287 0.930 . S
H290 C313 0.931 . S
H291 C279 0.929 . S
H292 C314 0.930 . S
H293 C285 0.931 . S
H294 C275 0.930 . S
H295 C304 0.929 . S
H296 C280 0.931 . S
H297 C281 0.930 . S
H298 C336 0.930 . S
H299 C277 0.929 . S
H300 C305 0.931 . S
H301 C306 0.930 . S
N302 Gd282 2.622 . S
N302 C303 1.369 . S
N302 C304 1.338 . S
C303 N302 1.369 . S
C303 C307 1.415 . S
C303 C310 1.422 . S
C304 H295 0.929 . S
C304 N302 1.338 . S
C304 C306 1.378 . S
C305 H300 0.931 . S
C305 C306 1.348 . S
C305 C307 1.413 . S
C306 H301 0.930 . S
C306 C304 1.378 . S
C306 C305 1.348 . S
C307 C303 1.415 . S
C307 C305 1.413 . S
C307 C337 1.437 . S
H308 C337 0.929 . S
N309 Gd282 2.570 . S
N309 C310 1.359 . S
N309 C313 1.343 . S
C310 C303 1.422 . S
C310 N309 1.359 . S
C310 C312 1.421 . S
C311 C312 1.422 . S
C311 C314 1.321 . S
C311 H338 0.931 1_554 S
C312 C310 1.421 . S
C312 C311 1.422 . S
C312 C336 1.417 . S
C313 H290 0.931 . S
C313 N309 1.343 . S
C313 C314 1.390 . S
C314 H292 0.930 . S
C314 C311 1.321 . S
C314 C313 1.390 . S
O315 Gd283 2.386 . S
O315 C327 1.265 . S
O316 Gd282 2.353 . S
O316 C327 1.242 . S
O317 Gd282 2.468 . S
O317 C335 1.263 . S
O318 Gd282 2.427 . S
O318 C335 1.252 . S
O319 Gd283 2.307 1_554 S
O319 C328 1.261 . S
O320 Gd282 2.388 . S
O320 C328 1.252 1_556 S
O321 Gd282 2.386 . S
O321 C339 1.265 . S
O322 Gd283 2.353 . S
O322 C339 1.242 . S
O323 Gd283 2.468 1_554 S
O323 C347 1.263 . S
O324 Gd283 2.427 1_554 S
O324 C347 1.252 . S
O325 Gd282 2.307 . S
O325 C340 1.261 . S
O326 Gd283 2.388 . S
O326 C340 1.252 . S
C327 O315 1.265 . S
C327 O316 1.242 . S
C328 O319 1.261 . S
C328 O320 1.252 1_554 S
C329 C332 1.394 . S
C329 C334 1.370 . S
C329 C335 1.500 . S
C330 C333 1.383 . S
C330 C334 1.395 . S
C331 C332 1.396 . S
C331 C333 1.365 . S
C331 H348 0.929 . S
C332 C329 1.394 . S
C332 C331 1.396 . S
C332 H349 0.930 . S
C333 C330 1.383 . S
C333 C331 1.365 . S
C333 H350 0.931 . S
C334 C329 1.370 . S
C334 C330 1.395 . S
C334 H351 0.930 . S
C335 Gd282 2.805 . S
C335 O317 1.263 . S
C335 O318 1.252 . S
C335 C329 1.500 . S
C336 H298 0.930 . S
C336 C312 1.417 . S
C336 C337 1.329 . S
C337 C307 1.437 . S
C337 H308 0.929 . S
C337 C336 1.329 . S
H338 C311 0.931 1_556 S
C339 O321 1.265 . S
C339 O322 1.242 . S
C340 O325 1.261 . S
C340 O326 1.252 . S
C341 C344 1.394 . S
C341 C346 1.370 . S
C341 C347 1.500 . S
C342 C345 1.383 . S
C342 C346 1.395 . S
C343 C344 1.396 . S
C343 C345 1.365 . S
C343 H352 0.929 . S
C344 C341 1.394 . S
C344 C343 1.396 . S
C344 H353 0.930 . S
C345 C342 1.383 . S
C345 C343 1.365 . S
C345 H354 0.931 . S
C346 C341 1.370 . S
C346 C342 1.395 . S
C346 H355 0.930 . S
C347 Gd283 2.805 1_554 S
C347 O323 1.263 . S
C347 O324 1.252 . S
C347 C341 1.500 . S
H348 C331 0.929 . S
H349 C332 0.930 . S
H350 C333 0.931 . S
H351 C334 0.930 . S
H352 C343 0.929 . S
H353 C344 0.930 . S
H354 C345 0.931 . S
H355 C346 0.930 . S
C356 C358 1.422 . S
C356 C360 1.415 . S
C356 N362 1.369 . S
C357 C358 1.421 . S
C357 C359 1.417 . S
C357 C369 1.422 . S
C358 C356 1.422 . S
C358 C357 1.421 . S
C358 N368 1.359 . S
C359 C357 1.417 . S
C359 C361 1.329 . S
C359 H378 0.930 . S
C360 C356 1.415 . S
C360 C361 1.437 . S
C360 C364 1.413 . S
C361 C359 1.329 . S
C361 C360 1.437 . S
C361 H383 0.929 . S
N362 C356 1.369 . S
N362 C363 1.338 1_554 S
N362 Gd367 2.622 1_454 S
C363 N362 1.338 1_556 S
C363 C365 1.379 . S
C363 H375 0.927 1_455 S
C364 C360 1.413 . S
C364 C365 1.348 1_554 S
C364 H380 0.931 . S
C365 C363 1.379 . S
C365 C364 1.348 1_556 S
C365 H381 0.930 . S
Gd366 N386 2.622 . S
Gd366 N393 2.570 1_455 S
Gd366 O400 2.353 . S
Gd366 O401 2.468 . S
Gd366 O402 2.427 . S
Gd366 O404 2.388 . S
Gd366 O405 2.386 1_455 S
Gd366 O409 2.307 . S
Gd366 C419 2.805 . S
Gd367 N362 2.622 1_656 S
Gd367 N368 2.570 1_656 S
Gd367 O399 2.386 1_655 S
Gd367 O403 2.311 1_556 S
Gd367 O406 2.353 . S
Gd367 O407 2.468 1_556 S
Gd367 O408 2.427 1_556 S
Gd367 O410 2.388 . S
Gd367 C431 2.805 1_556 S
N368 C358 1.359 . S
N368 Gd367 2.570 1_454 S
N368 C370 1.343 . S
C369 C357 1.422 . S
C369 C371 1.321 . S
C369 H377 0.931 . S
C370 N368 1.343 . S
C370 C371 1.390 . S
C370 H372 0.931 . S
C371 C369 1.321 . S
C371 C370 1.390 . S
C371 H373 0.930 . S
H372 C370 0.931 . S
H373 C371 0.930 . S
H374 C397 0.932 . S
H375 C363 0.927 1_655 S
H376 C398 0.930 . S
H377 C369 0.931 . S
H378 C359 0.930 . S
H379 C388 0.929 . S
H380 C364 0.931 . S
H381 C365 0.930 . S
H382 C420 0.930 . S
H383 C361 0.929 . S
H384 C389 0.931 . S
H385 C390 0.930 . S
N386 Gd366 2.622 . S
N386 C387 1.369 1_455 S
N386 C388 1.338 . S
C387 N386 1.369 1_655 S
C387 C391 1.415 . S
C387 C394 1.422 . S
C388 H379 0.929 . S
C388 N386 1.338 . S
C388 C390 1.378 1_455 S
C389 H384 0.931 . S
C389 C390 1.348 . S
C389 C391 1.413 . S
C390 H385 0.930 . S
C390 C388 1.378 1_655 S
C390 C389 1.348 . S
C391 C387 1.415 . S
C391 C389 1.413 . S
C391 C421 1.437 . S
H392 C421 0.929 . S
N393 Gd366 2.570 1_655 S
N393 C394 1.359 . S
N393 C397 1.343 . S
C394 C387 1.422 . S
C394 N393 1.359 . S
C394 C396 1.421 . S
C395 C396 1.422 . S
C395 C398 1.321 . S
C395 H422 0.931 1_554 S
C396 C394 1.421 . S
C396 C395 1.422 . S
C396 C420 1.417 . S
C397 H374 0.932 . S
C397 N393 1.343 . S
C397 C398 1.390 . S
C398 H376 0.930 . S
C398 C395 1.321 . S
C398 C397 1.390 . S
O399 Gd367 2.386 1_455 S
O399 C411 1.265 . S
O400 Gd366 2.353 . S
O400 C411 1.242 . S
O401 Gd366 2.468 . S
O401 C419 1.263 . S
O402 Gd366 2.427 . S
O402 C419 1.252 . S
O403 Gd367 2.311 1_554 S
O403 C412 1.259 1_655 S
O404 Gd366 2.388 . S
O404 C412 1.252 1_556 S
O405 Gd366 2.386 1_655 S
O405 C423 1.265 . S
O406 Gd367 2.353 . S
O406 C423 1.242 . S
O407 Gd367 2.468 1_554 S
O407 C431 1.263 . S
O408 Gd367 2.427 1_554 S
O408 C431 1.252 . S
O409 Gd366 2.307 . S
O409 C424 1.261 . S
O410 Gd367 2.388 . S
O410 C424 1.252 1_655 S
C411 O399 1.265 . S
C411 O400 1.242 . S
C412 O403 1.259 1_455 S
C412 O404 1.252 1_554 S
C413 C416 1.394 . S
C413 C418 1.370 . S
C413 C419 1.500 . S
C414 C417 1.383 . S
C414 C418 1.395 . S
C415 C416 1.396 . S
C415 C417 1.365 . S
C415 H432 0.929 . S
C416 C413 1.394 . S
C416 C415 1.396 . S
C416 H433 0.930 . S
C417 C414 1.383 . S
C417 C415 1.365 . S
C417 H434 0.931 . S
C418 C413 1.370 . S
C418 C414 1.395 . S
C418 H435 0.930 . S
C419 Gd366 2.805 . S
C419 O401 1.263 . S
C419 O402 1.252 . S
C419 C413 1.500 . S
C420 H382 0.930 . S
C420 C396 1.417 . S
C420 C421 1.329 . S
C421 C391 1.437 . S
C421 H392 0.929 . S
C421 C420 1.329 . S
H422 C395 0.931 1_556 S
C423 O405 1.265 . S
C423 O406 1.242 . S
C424 O409 1.261 . S
C424 O410 1.252 1_455 S
C425 C428 1.394 . S
C425 C430 1.370 . S
C425 C431 1.500 . S
C426 C429 1.383 . S
C426 C430 1.395 . S
C427 C428 1.396 . S
C427 C429 1.365 . S
C427 H436 0.929 . S
C428 C425 1.394 . S
C428 C427 1.396 . S
C428 H437 0.930 . S
C429 C426 1.383 . S
C429 C427 1.365 . S
C429 H438 0.931 . S
C430 C425 1.370 . S
C430 C426 1.395 . S
C430 H439 0.930 . S
C431 Gd367 2.805 1_554 S
C431 O407 1.263 . S
C431 O408 1.252 . S
C431 C425 1.500 . S
H432 C415 0.929 . S
H433 C416 0.930 . S
H434 C417 0.931 . S
H435 C418 0.930 . S
H436 C427 0.929 . S
H437 C428 0.930 . S
H438 C429 0.931 . S
H439 C430 0.930 . S
C82 C172 3.155 . S
C255 C95 3.108 . S
C340 C56 3.170 . S
C424 C69 3.135 . S
C160 C30 3.113 . S
C43 C243 3.109 . S
C4 C328 3.131 . S
C17 C412 3.093 . S
C162 C74 1.978 1_655 S
C258 C87 1.848 1_565 S
C330 C100 2.029 . S
C61 C414 1.985 . S
C22 C174 1.957 1_655 S
C246 C35 1.829 1_545 S
C342 C48 2.007 . S
C9 C426 1.963 . S
C73 C159 3.373 . S
C86 C244 3.498 . S
C327 C99 3.396 . S
C411 C60 3.400 . S
C21 C171 3.377 . S
C256 C34 3.500 . S
C339 C47 3.400 . S
C8 C423 3.404 . S
