# Generated by pormake.
# Topology llj, (12,3)-cn, num edge types: 1
# Building blocks:
#     Node 0, Type 0, BuildingBlock: QEWDON_clean_sbu_0, # of connection points: 12
#     Node 1, Type 0, BuildingBlock: QEWDON_clean_sbu_0, # of connection points: 12
#     Node 2, Type 1, BuildingBlock: BETDIP_clean_linker_0, # of connection points: 3
#     Node 3, Type 1, BuildingBlock: BETDIP_clean_linker_0, # of connection points: 3
#     Node 4, Type 1, BuildingBlock: BETDIP_clean_linker_0, # of connection points: 3
#     Node 5, Type 1, BuildingBlock: BETDIP_clean_linker_0, # of connection points: 3
#     Node 6, Type 1, BuildingBlock: BETDIP_clean_linker_0, # of connection points: 3
#     Node 7, Type 1, BuildingBlock: BETDIP_clean_linker_0, # of connection points: 3
#     Node 8, Type 1, BuildingBlock: BETDIP_clean_linker_0, # of connection points: 3
#     Node 9, Type 1, BuildingBlock: BETDIP_clean_linker_0, # of connection points: 3
#     Edge 10, Type (0, 1), BuildingBlock: CIFDUS_clean_linker_0, # of connection points: 2
#     Edge 11, Type (0, 1), BuildingBlock: CIFDUS_clean_linker_0, # of connection points: 2
#     Edge 12, Type (0, 1), BuildingBlock: CIFDUS_clean_linker_0, # of connection points: 2
#     Edge 13, Type (0, 1), BuildingBlock: CIFDUS_clean_linker_0, # of connection points: 2
#     Edge 14, Type (0, 1), BuildingBlock: CIFDUS_clean_linker_0, # of connection points: 2
#     Edge 15, Type (0, 1), BuildingBlock: CIFDUS_clean_linker_0, # of connection points: 2
#     Edge 16, Type (0, 1), BuildingBlock: CIFDUS_clean_linker_0, # of connection points: 2
#     Edge 17, Type (0, 1), BuildingBlock: CIFDUS_clean_linker_0, # of connection points: 2
#     Edge 18, Type (0, 1), BuildingBlock: CIFDUS_clean_linker_0, # of connection points: 2
#     Edge 19, Type (0, 1), BuildingBlock: CIFDUS_clean_linker_0, # of connection points: 2
#     Edge 20, Type (0, 1), BuildingBlock: CIFDUS_clean_linker_0, # of connection points: 2
#     Edge 21, Type (0, 1), BuildingBlock: CIFDUS_clean_linker_0, # of connection points: 2
#     Edge 22, Type (0, 1), BuildingBlock: CIFDUS_clean_linker_0, # of connection points: 2
#     Edge 23, Type (0, 1), BuildingBlock: CIFDUS_clean_linker_0, # of connection points: 2
#     Edge 24, Type (0, 1), BuildingBlock: CIFDUS_clean_linker_0, # of connection points: 2
#     Edge 25, Type (0, 1), BuildingBlock: CIFDUS_clean_linker_0, # of connection points: 2
#     Edge 26, Type (0, 1), BuildingBlock: CIFDUS_clean_linker_0, # of connection points: 2
#     Edge 27, Type (0, 1), BuildingBlock: CIFDUS_clean_linker_0, # of connection points: 2
#     Edge 28, Type (0, 1), BuildingBlock: CIFDUS_clean_linker_0, # of connection points: 2
#     Edge 29, Type (0, 1), BuildingBlock: CIFDUS_clean_linker_0, # of connection points: 2
#     Edge 30, Type (0, 1), BuildingBlock: CIFDUS_clean_linker_0, # of connection points: 2
#     Edge 31, Type (0, 1), BuildingBlock: CIFDUS_clean_linker_0, # of connection points: 2
#     Edge 32, Type (0, 1), BuildingBlock: CIFDUS_clean_linker_0, # of connection points: 2
#     Edge 33, Type (0, 1), BuildingBlock: CIFDUS_clean_linker_0, # of connection points: 2
# Relax obj value: 0.010
# Max RMSD: 0.099
# Mean RMSD: 0.085
data_MOF--net-llj--node1-QEWDON_clean_sbu_0--node2-BETDIP_clean_linker_0--edge1-CIFDUS_clean_linker_0
_symmetry_space_group_name_H-M    P1
_symmetry_Int_Tables_number       1
_symmetry_cell_setting            triclinic
loop_
_symmetry_equiv_pos_as_xyz
'x, y, z'
_cell_length_a     35.297882
_cell_length_b     35.259192
_cell_length_c     21.660148
_cell_angle_alpha  90.631613
_cell_angle_beta   90.933052
_cell_angle_gamma 89.88524
loop_
_atom_site_label
_atom_site_type_symbol
_atom_site_fract_x
_atom_site_fract_y
_atom_site_fract_z
_atom_type_partial_charge
Zn0 Zn 0.93795 0.08648 0.93208 0.0
Zn1 Zn 0.93918 0.08152 0.08029 0.0
O2 O 0.96811 0.06791 0.00479 0.0
H3 H 0.98903 0.05037 0.00123 0.0
C4 C 0.8751 0.02568 0.90573 0.0
O5 O 0.8553 0.02717 0.95655 0.0
Zn6 Zn 0.05766 0.91818 0.10399 0.0
Zn7 Zn 0.05872 0.92506 0.96433 0.0
O8 O 0.02081 0.91872 0.03316 0.0
H9 H 0.99806 0.9036 0.02963 0.0
Zn10 Zn 0.91441 0.96382 0.96985 0.0
O11 O 0.94903 0.97967 0.03939 0.0
Zn12 Zn 0.93225 0.94893 0.11022 0.0
H13 H 0.97478 0.98819 0.03455 0.0
Zn14 Zn 0.08969 0.05469 0.94361 0.0
O15 O 0.07133 0.02123 0.0125 0.0
H16 H 0.05475 0.99968 0.00649 0.0
Zn17 Zn 0.07342 0.05548 0.08633 0.0
C18 C 0.10631 0.9942 0.85585 0.0
O19 O 0.10726 0.97491 0.90738 0.0
O20 O 0.89158 0.11905 0.95464 0.0
O21 O 0.89277 0.11419 0.05725 0.0
O22 O 0.10612 0.89196 0.97906 0.0
O23 O 0.10179 0.88365 0.08032 0.0
O24 O 0.88489 0.9147 0.98226 0.0
O25 O 0.89645 0.9063 0.08257 0.0
C26 C 0.00963 0.09852 0.13989 0.0
O27 O 0.12044 0.10163 0.97284 0.0
O28 O 0.10849 0.10016 0.07332 0.0
O29 O 0.03562 0.92405 0.87584 0.0
C30 C 0.87758 0.12664 0.00732 0.0
O31 O 0.96705 0.09218 0.85064 0.0
C32 C 0.99644 0.90903 0.18524 0.0
O33 O 0.90131 0.00121 0.90062 0.0
C34 C 0.11797 0.87686 0.02898 0.0
O35 O 0.09963 0.02962 0.85828 0.0
C36 C 0.90849 0.01914 0.16598 0.0
O37 O 0.97489 0.10797 0.14095 0.0
O38 O 0.02063 0.07492 0.09935 0.0
C39 C 0.88078 0.89588 0.03155 0.0
O40 O 0.03115 0.90004 0.18063 0.0
O41 O 0.98117 0.92644 0.14035 0.0
C42 C 0.08841 0.99074 0.1641 0.0
O43 O 0.90783 0.9834 0.17344 0.0
O44 O 0.9242 0.03161 0.11779 0.0
C45 C 0.12461 0.11525 0.02732 0.0
O46 O 0.09159 0.02655 0.16063 0.0
O47 O 0.07401 0.97273 0.11812 0.0
C48 C 0.0013 0.93419 0.86879 0.0
O49 O 0.98272 0.94667 0.91695 0.0
C50 C 0.99373 0.11617 0.84777 0.0
O51 O 0.00077 0.13852 0.89551 0.0
Zn52 Zn 0.46106 0.57449 0.42774 0.0
Zn53 Zn 0.45903 0.5721 0.57015 0.0
O54 O 0.49565 0.56676 0.50167 0.0
H55 H 0.51758 0.55033 0.5008 0.0
C56 C 0.40195 0.50398 0.33897 0.0
O57 O 0.4112 0.52039 0.39178 0.0
Zn58 Zn 0.56314 0.43453 0.5967 0.0
Zn59 Zn 0.54402 0.41432 0.45766 0.0
O60 O 0.53275 0.45225 0.52443 0.0
H61 H 0.52475 0.47818 0.51846 0.0
Zn62 Zn 0.41896 0.43791 0.41239 0.0
O63 O 0.4406 0.46773 0.48462 0.0
Zn64 Zn 0.42849 0.43929 0.56089 0.0
H65 H 0.4598 0.48701 0.48093 0.0
Zn66 Zn 0.59344 0.56198 0.45165 0.0
O67 O 0.59635 0.52484 0.52208 0.0
H68 H 0.60939 0.50077 0.51921 0.0
Zn69 Zn 0.59558 0.56018 0.59451 0.0
C70 C 0.58676 0.50392 0.35655 0.0
O71 O 0.57038 0.48672 0.40247 0.0
O72 O 0.41638 0.61084 0.44498 0.0
O73 O 0.41633 0.6085 0.54752 0.0
O74 O 0.58902 0.37888 0.4742 0.0
O75 O 0.60321 0.3954 0.57133 0.0
O76 O 0.38867 0.39095 0.4371 0.0
O77 O 0.39513 0.39289 0.53959 0.0
C78 C 0.52202 0.5899 0.65216 0.0
O79 O 0.62282 0.61128 0.47245 0.0
O80 O 0.62699 0.60726 0.57487 0.0
O81 O 0.50489 0.40367 0.38833 0.0
C82 C 0.40272 0.62108 0.49672 0.0
O83 O 0.48816 0.5759 0.34408 0.0
C84 C 0.49209 0.41226 0.64982 0.0
O85 O 0.40243 0.46802 0.33505 0.0
C86 C 0.60968 0.37571 0.52266 0.0
O87 O 0.59856 0.5377 0.36458 0.0
C88 C 0.4142 0.5092 0.62274 0.0
O89 O 0.48621 0.59213 0.64615 0.0
O90 O 0.5406 0.57453 0.60849 0.0
C91 C 0.38199 0.37734 0.49008 0.0
O92 O 0.52777 0.41231 0.65923 0.0
O93 O 0.47946 0.42533 0.59888 0.0
C94 C 0.60564 0.49722 0.67328 0.0
O95 O 0.40319 0.47494 0.62164 0.0
O96 O 0.43748 0.52006 0.58263 0.0
C97 C 0.6345 0.62422 0.52462 0.0
O98 O 0.61502 0.53189 0.66971 0.0
O99 O 0.58765 0.48269 0.62766 0.0
C100 C 0.48198 0.37604 0.39094 0.0
O101 O 0.48337 0.35355 0.43889 0.0
C102 C 0.5162 0.59833 0.34273 0.0
O103 O 0.52449 0.61882 0.39216 0.0
H104 H 0.3462 0.31705 0.90481 0.0
H105 H 0.32692 0.32667 0.10013 0.0
H106 H 0.42278 0.38124 0.02134 0.0
H107 H 0.27278 0.29951 0.08071 0.0
C108 C 0.273 0.28577 0.03571 0.0
C109 C 0.3542 0.32851 0.94978 0.0
C110 C 0.38719 0.35043 0.95678 0.0
C111 C 0.33192 0.31997 0.00076 0.0
C112 C 0.343 0.33353 0.05981 0.0
C113 C 0.3757 0.35587 0.06738 0.0
C114 C 0.39732 0.36436 0.01559 0.0
N115 N 0.29993 0.29607 0.99079 0.0
H116 H 0.6636 0.31339 0.92505 0.0
H117 H 0.65624 0.31815 0.12329 0.0
H118 H 0.60189 0.40347 0.0136 0.0
H119 H 0.68591 0.26388 0.12301 0.0
C120 C 0.69853 0.25861 0.07844 0.0
C121 C 0.6526 0.3266 0.9665 0.0
C122 C 0.63167 0.36039 0.96233 0.0
C123 C 0.66149 0.31075 0.02406 0.0
C124 C 0.64865 0.32888 0.07825 0.0
C125 C 0.62731 0.36253 0.07466 0.0
C126 C 0.61858 0.37769 0.01657 0.0
N127 N 0.68574 0.27842 0.02512 0.0
H128 H 0.69742 0.67729 0.10366 0.0
H129 H 0.69539 0.67808 0.9058 0.0
H130 H 0.60523 0.62469 0.00235 0.0
H131 H 0.75453 0.69635 0.91425 0.0
C132 C 0.75727 0.71127 0.95816 0.0
C133 C 0.68361 0.66929 0.06044 0.0
C134 C 0.64857 0.65037 0.06023 0.0
C135 C 0.70098 0.67897 0.00531 0.0
C136 C 0.6834 0.66904 0.94874 0.0
C137 C 0.64919 0.6487 0.94715 0.0
C138 C 0.632 0.63957 0.00322 0.0
N139 N 0.73456 0.70113 0.00893 0.0
H140 H 0.2925 0.65891 0.88704 0.0
H141 H 0.30096 0.63955 0.08287 0.0
H142 H 0.35725 0.56474 0.95726 0.0
H143 H 0.25194 0.67559 0.08952 0.0
C144 C 0.25148 0.69504 0.05111 0.0
C145 C 0.30296 0.64235 0.92559 0.0
C146 C 0.32641 0.61076 0.91496 0.0
C147 C 0.29321 0.65297 0.98596 0.0
C148 C 0.30745 0.63168 0.03592 0.0
C149 C 0.33015 0.59957 0.02581 0.0
C150 C 0.33955 0.58942 0.96529 0.0
N151 N 0.26956 0.68532 0.99479 0.0
H152 H 0.81718 0.84068 0.43504 0.0
H153 H 0.82256 0.85159 0.63319 0.0
H154 H 0.90142 0.91186 0.52259 0.0
H155 H 0.77047 0.81957 0.63392 0.0
C156 C 0.76538 0.80576 0.58963 0.0
C157 C 0.82954 0.85347 0.47639 0.0
C158 C 0.86132 0.87712 0.472 0.0
C159 C 0.81475 0.84441 0.53413 0.0
C160 C 0.83212 0.85955 0.58808 0.0
C161 C 0.86357 0.88378 0.58428 0.0
C162 C 0.87744 0.89287 0.52601 0.0
N163 N 0.78427 0.81801 0.53581 0.0
H164 H 0.19973 0.82654 0.60232 0.0
H165 H 0.18897 0.82417 0.40439 0.0
H166 H 0.11783 0.89788 0.51017 0.0
H167 H 0.24693 0.80298 0.40878 0.0
C168 C 0.24926 0.78557 0.44966 0.0
C169 C 0.1857 0.83622 0.5605 0.0
C170 C 0.15742 0.86439 0.56351 0.0
C171 C 0.19751 0.82165 0.50343 0.0
C172 C 0.18025 0.83501 0.44876 0.0
C173 C 0.15219 0.86324 0.45076 0.0
C174 C 0.14034 0.87698 0.50836 0.0
N175 N 0.22721 0.79421 0.50247 0.0
H176 H 0.17445 0.18789 0.59713 0.0
H177 H 0.17271 0.16975 0.4002 0.0
H178 H 0.08018 0.1312 0.50813 0.0
H179 H 0.23113 0.1896 0.40366 0.0
C180 C 0.23603 0.20624 0.4454 0.0
C181 C 0.16044 0.17678 0.55591 0.0
C182 C 0.12532 0.15834 0.56013 0.0
C183 C 0.17795 0.18115 0.49878 0.0
C184 C 0.16005 0.16656 0.44488 0.0
C185 C 0.12519 0.14758 0.44841 0.0
C186 C 0.10796 0.14409 0.50596 0.0
N187 N 0.21261 0.20171 0.4976 0.0
H188 H 0.80828 0.16715 0.42761 0.0
H189 H 0.82285 0.18005 0.62452 0.0
H190 H 0.86793 0.08224 0.53206 0.0
H191 H 0.80953 0.24048 0.60737 0.0
C192 C 0.78929 0.24003 0.5691 0.0
C193 C 0.81967 0.15694 0.47114 0.0
C194 C 0.83903 0.12211 0.47329 0.0
C195 C 0.81398 0.17833 0.52523 0.0
C196 C 0.82778 0.16452 0.58212 0.0
C197 C 0.84755 0.12997 0.58482 0.0
C198 C 0.85307 0.10914 0.53019 0.0
N199 N 0.79228 0.21229 0.52124 0.0
H200 H 0.16874 0.15077 0.94375 0.0
H201 H 0.1361 0.15509 0.13502 0.0
H202 H 0.17793 0.20911 0.15349 0.0
H203 H 0.22536 0.2541 0.11613 0.0
H204 H 0.25927 0.24844 0.92578 0.0
H205 H 0.21538 0.19612 0.90622 0.0
C206 C 0.17061 0.16358 0.98945 0.0
C207 C 0.14923 0.14879 0.03786 0.0
C208 C 0.19508 0.1944 0.0 0.0
C209 C 0.15216 0.1658 0.09682 0.0
C210 C 0.17614 0.19672 0.10751 0.0
C211 C 0.22293 0.24145 0.07035 0.0
C212 C 0.24552 0.25501 0.02263 0.0
C213 C 0.19793 0.21108 0.05956 0.0
C214 C 0.24229 0.23844 0.96347 0.0
C215 C 0.21718 0.2085 0.95219 0.0
H216 H 0.83811 0.14779 0.10968 0.0
H217 H 0.83911 0.15952 0.91134 0.0
H218 H 0.78353 0.20042 0.91555 0.0
H219 H 0.73551 0.23429 0.97533 0.0
H220 H 0.73365 0.22254 0.17326 0.0
H221 H 0.78861 0.18013 0.1693 0.0
C222 C 0.82618 0.15924 0.06733 0.0
C223 C 0.84309 0.15071 0.01036 0.0
C224 C 0.79404 0.1828 0.06994 0.0
C225 C 0.82695 0.16567 0.95595 0.0
C226 C 0.79508 0.18912 0.95823 0.0
C227 C 0.74702 0.2224 0.01762 0.0
C228 C 0.73068 0.23165 0.07463 0.0
C229 C 0.77855 0.19809 0.01496 0.0
C230 C 0.74584 0.2158 0.12887 0.0
C231 C 0.77726 0.19164 0.12663 0.0
H232 H 0.86106 0.85467 0.92975 0.0
H233 H 0.84951 0.85819 0.12787 0.0
H234 H 0.81077 0.8008 0.12299 0.0
H235 H 0.77918 0.75047 0.06212 0.0
H236 H 0.79249 0.74596 0.86452 0.0
H237 H 0.83188 0.80297 0.86955 0.0
C238 C 0.85 0.84296 0.9719 0.0
C239 C 0.85785 0.86086 0.02902 0.0
C240 C 0.8282 0.80979 0.96884 0.0
C241 C 0.84381 0.84498 0.08329 0.0
C242 C 0.82164 0.8122 0.08054 0.0
C243 C 0.79078 0.7619 0.02019 0.0
C244 C 0.78283 0.74429 0.96288 0.0
C245 C 0.81352 0.79449 0.02354 0.0
C246 C 0.79832 0.75916 0.90907 0.0
C247 C 0.82069 0.79175 0.91192 0.0
H248 H 0.14191 0.82946 0.11997 0.0
H249 H 0.16258 0.85924 0.93059 0.0
H250 H 0.20732 0.80675 0.92131 0.0
H251 H 0.23718 0.7496 0.96459 0.0
H252 H 0.21485 0.71883 0.15273 0.0
H253 H 0.17422 0.77452 0.16481 0.0
C254 C 0.15653 0.82482 0.07686 0.0
C255 C 0.14863 0.84816 0.026 0.0
C256 C 0.18168 0.79413 0.07138 0.0
C257 C 0.16791 0.84163 0.97049 0.0
C258 C 0.19346 0.81152 0.96501 0.0
C259 C 0.22359 0.75521 0.00829 0.0
C260 C 0.22869 0.73004 0.05761 0.0
C261 C 0.19996 0.7871 0.01473 0.0
C262 C 0.21107 0.73776 0.11403 0.0
C263 C 0.18788 0.76957 0.12099 0.0
H264 H 0.65911 0.66424 0.62622 0.0
H265 H 0.66278 0.66282 0.42693 0.0
H266 H 0.70308 0.71884 0.42922 0.0
H267 H 0.73845 0.76761 0.48748 0.0
H268 H 0.73414 0.77012 0.68636 0.0
H269 H 0.69291 0.71435 0.68447 0.0
C270 C 0.66866 0.67618 0.58325 0.0
C271 C 0.65799 0.6591 0.52653 0.0
C272 C 0.6918 0.70861 0.58476 0.0
C273 C 0.6705 0.67523 0.47133 0.0
C274 C 0.69364 0.70731 0.47252 0.0
C275 C 0.72847 0.756 0.53041 0.0
C276 C 0.73944 0.7728 0.58707 0.0
C277 C 0.70465 0.72411 0.52892 0.0
C278 C 0.72602 0.75759 0.64221 0.0
C279 C 0.70252 0.72571 0.64115 0.0
H280 H 0.37541 0.66286 0.40118 0.0
H281 H 0.35965 0.64256 0.59531 0.0
H282 H 0.30993 0.69084 0.59805 0.0
H283 H 0.27207 0.74029 0.54577 0.0
H284 H 0.28966 0.76141 0.35254 0.0
H285 H 0.33747 0.7113 0.34905 0.0
C286 C 0.361 0.66879 0.44409 0.0
C287 C 0.37138 0.64913 0.49795 0.0
C288 C 0.33281 0.69688 0.44557 0.0
C289 C 0.35241 0.65736 0.55316 0.0
C290 C 0.32393 0.68499 0.5548 0.0
C291 C 0.2863 0.73381 0.50292 0.0
C292 C 0.27745 0.75449 0.44941 0.0
C293 C 0.3141 0.70517 0.5014 0.0
C294 C 0.29614 0.74586 0.39429 0.0
C295 C 0.32344 0.71724 0.39225 0.0
H296 H 0.35938 0.33052 0.39618 0.0
H297 H 0.34819 0.34865 0.59252 0.0
H298 H 0.30278 0.29652 0.59668 0.0
H299 H 0.26387 0.24788 0.54351 0.0
H300 H 0.27627 0.22921 0.34768 0.0
H301 H 0.32384 0.27948 0.34445 0.0
C302 C 0.34723 0.32299 0.44003 0.0
C303 C 0.35697 0.34375 0.49385 0.0
C304 C 0.32124 0.293 0.44212 0.0
C305 C 0.34117 0.33325 0.55033 0.0
C306 C 0.31509 0.3035 0.55273 0.0
C307 C 0.27707 0.25473 0.50018 0.0
C308 C 0.26635 0.23517 0.44568 0.0
C309 C 0.30451 0.28354 0.49876 0.0
C310 C 0.28402 0.24404 0.3901 0.0
C311 C 0.31114 0.27277 0.38823 0.0
H312 H 0.66426 0.36531 0.61175 0.0
H313 H 0.62737 0.32489 0.43161 0.0
H314 H 0.67971 0.27987 0.42962 0.0
H315 H 0.73562 0.25139 0.47896 0.0
H316 H 0.77346 0.29183 0.65817 0.0
H317 H 0.72114 0.3375 0.66043 0.0
C318 C 0.66763 0.34666 0.57206 0.0
C319 C 0.64177 0.34852 0.52203 0.0
C320 C 0.69801 0.32084 0.57093 0.0
C321 C 0.64677 0.32418 0.47085 0.0
C322 C 0.67673 0.29834 0.46959 0.0
C323 C 0.7325 0.27023 0.51846 0.0
C324 C 0.75828 0.26828 0.56844 0.0
C325 C 0.70247 0.29638 0.51936 0.0
C326 C 0.7539 0.29295 0.61916 0.0
C327 C 0.724 0.31897 0.62051 0.0
H328 H 0.02685 0.06257 0.24441 0.0
H329 H 0.04963 0.16443 0.14392 0.0
H330 H 0.08991 0.18805 0.22961 0.0
H331 H 0.11544 0.18081 0.33578 0.0
H332 H 0.09126 0.07867 0.43581 0.0
H333 H 0.05402 0.05436 0.34841 0.0
C334 C 0.04095 0.08981 0.24144 0.0
C335 C 0.03566 0.11189 0.18867 0.0
C336 C 0.06338 0.10323 0.29096 0.0
C337 C 0.0536 0.14716 0.1846 0.0
C338 C 0.07648 0.16059 0.23347 0.0
C339 C 0.10263 0.15294 0.3379 0.0
C340 C 0.10591 0.13171 0.3924 0.0
C341 C 0.08125 0.139 0.28722 0.0
C342 C 0.0887 0.09583 0.39475 0.0
C343 C 0.06752 0.08181 0.34472 0.0
H344 H 0.8749 0.99822 0.27165 0.0
H345 H 0.90641 0.09735 0.16978 0.0
H346 H 0.88544 0.13817 0.25391 0.0
H347 H 0.86206 0.14545 0.36023 0.0
H348 H 0.82898 0.04588 0.46003 0.0
H349 H 0.84644 0.00557 0.37284 0.0
C350 C 0.87709 0.02877 0.26747 0.0
C351 C 0.89316 0.04458 0.2146 0.0
C352 C 0.8647 0.05205 0.316 0.0
C353 C 0.89508 0.08424 0.21006 0.0
C354 C 0.88286 0.10769 0.25829 0.0
C355 C 0.85805 0.11501 0.36237 0.0
C356 C 0.84483 0.09865 0.41688 0.0
C357 C 0.86821 0.09188 0.31198 0.0
C358 C 0.83986 0.05911 0.41906 0.0
C359 C 0.84973 0.03603 0.36919 0.0
H360 H 0.91986 0.91121 0.2037 0.0
H361 H 0.02672 0.88679 0.29479 0.0
H362 H 0.99414 0.87416 0.39048 0.0
H363 H 0.93586 0.87103 0.44898 0.0
H364 H 0.82854 0.89618 0.36062 0.0
H365 H 0.86071 0.90761 0.26293 0.0
C366 C 0.93598 0.90343 0.24455 0.0
C367 C 0.97568 0.90029 0.24207 0.0
C368 C 0.91702 0.89633 0.29984 0.0
C369 C 0.99613 0.88935 0.29524 0.0
C370 C 0.97755 0.88222 0.35013 0.0
C371 C 0.91951 0.87931 0.40845 0.0
C372 C 0.87998 0.88317 0.41204 0.0
C373 C 0.93811 0.88585 0.35302 0.0
C374 C 0.85903 0.89298 0.35885 0.0
C375 C 0.87742 0.89964 0.30317 0.0
H376 H 0.10248 0.91531 0.18353 0.0
H377 H 0.10248 0.02417 0.27539 0.0
H378 H 0.12068 0.99444 0.37237 0.0
H379 H 0.13795 0.93777 0.43028 0.0
H380 H 0.13415 0.82791 0.34028 0.0
H381 H 0.11533 0.8577 0.24312 0.0
C382 C 0.10521 0.93236 0.2249 0.0
C383 C 0.09964 0.97175 0.22232 0.0
C384 C 0.11521 0.91488 0.28078 0.0
C385 C 0.1057 0.99368 0.27618 0.0
C386 C 0.1162 0.9767 0.33172 0.0
C387 C 0.13221 0.92012 0.3899 0.0
C388 C 0.13753 0.88061 0.39278 0.0
C389 C 0.12097 0.9373 0.33453 0.0
C390 C 0.13082 0.85844 0.33931 0.0
C391 C 0.11992 0.87542 0.28376 0.0
H392 H 0.1191 0.91897 0.83495 0.0
H393 H 0.11011 0.02654 0.74218 0.0
H394 H 0.1249 0.9957 0.64417 0.0
H395 H 0.14271 0.93902 0.58568 0.0
H396 H 0.14949 0.83077 0.67654 0.0
H397 H 0.13404 0.86136 0.77487 0.0
C398 C 0.12031 0.93568 0.79329 0.0
C399 C 0.11384 0.97509 0.7961 0.0
C400 C 0.12875 0.91775 0.7369 0.0
C401 C 0.1152 0.99622 0.74152 0.0
C402 C 0.12368 0.97862 0.6854 0.0
C403 C 0.14017 0.92186 0.62664 0.0
C404 C 0.14717 0.88253 0.62344 0.0
C405 C 0.13077 0.93949 0.68267 0.0
C406 C 0.14469 0.86111 0.67762 0.0
C407 C 0.13561 0.87855 0.73382 0.0
H408 H 0.04126 0.17276 0.81497 0.0
H409 H 7e-05 0.06263 0.75682 0.0
H410 H 0.03951 0.06475 0.66542 0.0
H411 H 0.08438 0.09839 0.60096 0.0
H412 H 0.1221 0.2106 0.65483 0.0
H413 H 0.08629 0.20657 0.74993 0.0
C414 C 0.04096 0.14922 0.7823 0.0
C415 C 0.01757 0.11773 0.79241 0.0
C416 C 0.06332 0.15084 0.72935 0.0
C417 C 0.01746 0.08743 0.7497 0.0
C418 C 0.04014 0.08853 0.69756 0.0
C419 C 0.08456 0.12218 0.63313 0.0
C420 C 0.1058 0.15486 0.62027 0.0
C421 C 0.06289 0.12024 0.68667 0.0
C422 C 0.10644 0.18489 0.66359 0.0
C423 C 0.08563 0.18279 0.71779 0.0
H424 H 0.91702 0.03616 0.80402 0.0
H425 H 0.81382 0.07264 0.89113 0.0
H426 H 0.79744 0.11083 0.80095 0.0
H427 H 0.81005 0.12922 0.69392 0.0
H428 H 0.91506 0.09502 0.60997 0.0
H429 H 0.93314 0.06051 0.70279 0.0
C430 C 0.89106 0.05268 0.80358 0.0
C431 C 0.8664 0.05113 0.85375 0.0
C432 C 0.88207 0.07478 0.75209 0.0
C433 C 0.83311 0.07306 0.85276 0.0
C434 C 0.82374 0.09491 0.80125 0.0
C435 C 0.83728 0.11498 0.69642 0.0
C436 C 0.86084 0.11415 0.64462 0.0
C437 C 0.84769 0.09539 0.75017 0.0
C438 C 0.89597 0.09533 0.64863 0.0
C439 C 0.90642 0.07571 0.70174 0.0
H440 H 0.92557 0.93769 0.84582 0.0
H441 H 0.03239 0.91591 0.75768 0.0
H442 H 0.99904 0.89968 0.66136 0.0
H443 H 0.93966 0.88778 0.60452 0.0
H444 H 0.83275 0.91043 0.69179 0.0
H445 H 0.86618 0.93008 0.7866 0.0
C446 C 0.94161 0.93006 0.80529 0.0
C447 C 0.98139 0.92798 0.80899 0.0
C448 C 0.92226 0.92049 0.75023 0.0
C449 C 0.00173 0.91754 0.75619 0.0
C450 C 0.98268 0.90821 0.70111 0.0
C451 C 0.9236 0.89766 0.64384 0.0
C452 C 0.88371 0.89756 0.64103 0.0
C453 C 0.94296 0.90902 0.69794 0.0
C454 C 0.86343 0.90973 0.69297 0.0
C455 C 0.88252 0.92116 0.74705 0.0
H456 H 0.59756 0.60008 0.67755 0.0
H457 H 0.48738 0.61368 0.75726 0.0
H458 H 0.51665 0.63422 0.85455 0.0
H459 H 0.57354 0.64713 0.91737 0.0
H460 H 0.68394 0.62593 0.84058 0.0
H461 H 0.65452 0.60915 0.74155 0.0
C462 C 0.57994 0.60622 0.71638 0.0
C463 C 0.54041 0.60365 0.71027 0.0
C464 C 0.59704 0.61696 0.77275 0.0
C465 C 0.51799 0.61444 0.76071 0.0
C466 C 0.53469 0.62628 0.81649 0.0
C467 C 0.5913 0.63816 0.87954 0.0
C468 C 0.63103 0.63789 0.8869 0.0
C469 C 0.57423 0.6272 0.82323 0.0
C470 C 0.65336 0.62715 0.83632 0.0
C471 C 0.63657 0.61723 0.77965 0.0
H472 H 0.34508 0.53885 0.64911 0.0
H473 H 0.46094 0.53258 0.71378 0.0
H474 H 0.44455 0.56686 0.80836 0.0
H475 H 0.3967 0.59459 0.87538 0.0
H476 H 0.28019 0.6002 0.8135 0.0
H477 H 0.2974 0.57155 0.71407 0.0
C478 C 0.36666 0.5458 0.68359 0.0
C479 C 0.40419 0.53397 0.67471 0.0
C480 C 0.35695 0.56551 0.73792 0.0
C481 C 0.43207 0.54236 0.71954 0.0
C482 C 0.42268 0.56171 0.77359 0.0
C483 C 0.37516 0.58982 0.83984 0.0
C484 C 0.33723 0.59903 0.85176 0.0
C485 C 0.38516 0.5729 0.78363 0.0
C486 C 0.30961 0.59337 0.80516 0.0
C487 C 0.3194 0.57673 0.7486 0.0
H488 H 0.513 0.38881 0.76409 0.0
H489 H 0.41431 0.40572 0.64784 0.0
H490 H 0.37333 0.38776 0.73153 0.0
H491 H 0.36539 0.36924 0.83967 0.0
H492 H 0.46454 0.34894 0.95404 0.0
H493 H 0.50539 0.36628 0.8693 0.0
C494 C 0.48252 0.38853 0.75676 0.0
C495 C 0.4668 0.39953 0.69955 0.0
C496 C 0.45915 0.37759 0.80513 0.0
C497 C 0.42729 0.39841 0.69123 0.0
C498 C 0.40375 0.38784 0.73927 0.0
C499 C 0.39592 0.3681 0.8458 0.0
C500 C 0.41179 0.35832 0.90343 0.0
C501 C 0.41936 0.3777 0.79663 0.0
C502 C 0.45149 0.35723 0.91063 0.0
C503 C 0.47492 0.36691 0.86209 0.0
H504 H 0.59941 0.42078 0.69243 0.0
H505 H 0.63092 0.52607 0.7829 0.0
H506 H 0.64215 0.49286 0.87927 0.0
H507 H 0.64203 0.43457 0.93862 0.0
H508 H 0.60907 0.32899 0.8511 0.0
H509 H 0.59919 0.36168 0.75271 0.0
C510 C 0.6084 0.43645 0.73328 0.0
C511 C 0.61393 0.4759 0.73038 0.0
C512 C 0.6145 0.41718 0.78908 0.0
C513 C 0.62648 0.49568 0.7836 0.0
C514 C 0.6328 0.47676 0.83893 0.0
C515 C 0.63232 0.41873 0.89817 0.0
C516 C 0.62591 0.37953 0.90221 0.0
C517 C 0.62664 0.43763 0.84228 0.0
C518 C 0.61427 0.35921 0.84904 0.0
C519 C 0.60853 0.3779 0.79292 0.0
H520 H 0.57429 0.42917 0.33129 0.0
H521 H 0.61651 0.53206 0.25101 0.0
H522 H 0.63132 0.49754 0.15621 0.0
H523 H 0.63501 0.43776 0.09791 0.0
H524 H 0.59503 0.33428 0.17865 0.0
H525 H 0.57716 0.36932 0.27212 0.0
C526 C 0.58648 0.44412 0.29291 0.0
C527 C 0.59402 0.48324 0.29811 0.0
C528 C 0.59576 0.42389 0.23899 0.0
C529 C 0.61016 0.50205 0.24811 0.0
C530 C 0.61881 0.48229 0.19396 0.0
C531 C 0.622 0.42293 0.13572 0.0
C532 C 0.61619 0.38352 0.13136 0.0
C533 C 0.61209 0.44317 0.18915 0.0
C534 C 0.60001 0.36457 0.18116 0.0
C535 C 0.58966 0.38461 0.2344 0.0
H536 H 0.56662 0.65336 0.3173 0.0
H537 H 0.51758 0.55027 0.24275 0.0
H538 H 0.55604 0.5559 0.15039 0.0
H539 H 0.60333 0.59036 0.09101 0.0
H540 H 0.64709 0.69691 0.16232 0.0
H541 H 0.61208 0.68871 0.25675 0.0
C542 C 0.56439 0.63205 0.28093 0.0
C543 C 0.53927 0.60151 0.28678 0.0
C544 C 0.58605 0.63577 0.22771 0.0
C545 C 0.53652 0.57425 0.23909 0.0
C546 C 0.55856 0.5774 0.18636 0.0
C547 C 0.60496 0.6121 0.12671 0.0
C548 C 0.6282 0.64413 0.11907 0.0
C549 C 0.58334 0.60814 0.18011 0.0
C550 C 0.63035 0.67145 0.16695 0.0
C551 C 0.60989 0.66708 0.22092 0.0
H552 H 0.3753 0.47903 0.22736 0.0
H553 H 0.40393 0.58103 0.32967 0.0
H554 H 0.38505 0.61951 0.2415 0.0
H555 H 0.35986 0.62426 0.13562 0.0
H556 H 0.33043 0.52233 0.0338 0.0
H557 H 0.35105 0.48369 0.12103 0.0
C558 C 0.37767 0.50965 0.23026 0.0
C559 C 0.391 0.5271 0.28506 0.0
C560 C 0.36678 0.53161 0.17936 0.0
C561 C 0.39362 0.56685 0.28817 0.0
C562 C 0.38288 0.58891 0.23771 0.0
C563 C 0.35771 0.5936 0.13272 0.0
C564 C 0.34354 0.57622 0.07842 0.0
C565 C 0.36923 0.5716 0.18321 0.0
C566 C 0.34159 0.53641 0.07489 0.0
C567 C 0.35314 0.5143 0.12485 0.0
H568 H 0.4651 0.42262 0.296 0.0
H569 H 0.43919 0.3125 0.36928 0.0
H570 H 0.40014 0.29796 0.27782 0.0
H571 H 0.37913 0.31419 0.1724 0.0
H572 H 0.40368 0.42526 0.10145 0.0
H573 H 0.43757 0.44178 0.19699 0.0
C574 C 0.45069 0.39552 0.29224 0.0
C575 C 0.45555 0.36842 0.33879 0.0
C576 C 0.42826 0.38745 0.23986 0.0
C577 C 0.43623 0.33369 0.3337 0.0
C578 C 0.41391 0.32536 0.28144 0.0
C579 C 0.39099 0.34236 0.17848 0.0
C580 C 0.38948 0.36821 0.12947 0.0
C581 C 0.41044 0.35172 0.23359 0.0
C582 C 0.4052 0.40455 0.13799 0.0
C583 C 0.42453 0.41405 0.19258 0.0
loop_
_geom_bond_atom_site_label_1
_geom_bond_atom_site_label_2
_geom_bond_distance
_geom_bond_site_symmetry_2
_ccdc_geom_bond_type
Zn0 O2 1.933 1_556 S
Zn0 O20 1.985 . S
Zn0 O31 1.955 . S
Zn1 O2 1.911 . S
Zn1 O21 1.970 . S
Zn1 O37 1.945 . S
Zn1 O44 1.981 . S
O2 Zn0 1.933 1_554 S
O2 Zn1 1.911 . S
O2 H3 0.841 1_655 S
H3 O2 0.841 1_455 S
C4 O5 1.246 . S
C4 O33 1.276 1_545 S
O5 C4 1.246 . S
Zn6 O8 1.911 . S
Zn6 O23 1.970 . S
Zn6 O40 1.945 . S
Zn6 O47 1.981 . S
Zn7 O8 1.933 1_556 S
Zn7 O22 1.985 . S
Zn7 O29 1.955 . S
O8 Zn6 1.911 . S
O8 Zn7 1.933 1_554 S
O8 H9 0.841 1_455 S
H9 O8 0.841 1_655 S
Zn10 O11 1.933 1_556 S
Zn10 O24 1.985 . S
Zn10 O33 1.955 . S
O11 Zn10 1.933 1_554 S
O11 Zn12 1.911 . S
O11 H13 0.841 1_565 S
Zn12 O11 1.911 . S
Zn12 O25 1.970 . S
Zn12 O41 1.981 . S
Zn12 O43 1.945 . S
H13 O11 0.841 1_545 S
Zn14 O15 1.933 1_556 S
Zn14 O27 1.985 . S
Zn14 O35 1.955 . S
O15 Zn14 1.933 1_554 S
O15 H16 0.841 1_545 S
O15 Zn17 1.911 . S
H16 O15 0.841 1_565 S
Zn17 O15 1.911 . S
Zn17 O28 1.970 . S
Zn17 O38 1.981 . S
Zn17 O46 1.945 . S
C18 O19 1.246 . S
C18 O35 1.276 1_565 S
O19 C18 1.246 . S
O20 Zn0 1.985 . S
O20 C30 1.245 1_556 S
O21 Zn1 1.970 . S
O21 C30 1.263 . S
O22 Zn7 1.985 . S
O22 C34 1.245 1_556 S
O23 Zn6 1.970 . S
O23 C34 1.263 . S
O24 Zn10 1.985 . S
O24 C39 1.245 1_556 S
O25 Zn12 1.970 . S
O25 C39 1.263 . S
C26 O37 1.262 1_455 S
C26 O38 1.245 . S
O27 Zn14 1.985 . S
O27 C45 1.245 1_556 S
O28 Zn17 1.970 . S
O28 C45 1.263 . S
O29 Zn7 1.955 . S
O29 C48 1.276 1_455 S
C30 O20 1.245 1_554 S
C30 O21 1.263 . S
O31 Zn0 1.955 . S
O31 C50 1.276 1_655 S
C32 O40 1.262 1_655 S
C32 O41 1.245 . S
O33 C4 1.276 1_565 S
O33 Zn10 1.955 . S
C34 O22 1.245 1_554 S
C34 O23 1.263 . S
O35 Zn14 1.955 . S
O35 C18 1.276 1_545 S
C36 O43 1.262 1_545 S
C36 O44 1.245 . S
O37 Zn1 1.945 . S
O37 C26 1.262 1_655 S
O38 Zn17 1.981 . S
O38 C26 1.245 . S
C39 O24 1.245 1_554 S
C39 O25 1.263 . S
O40 Zn6 1.945 . S
O40 C32 1.262 1_455 S
O41 Zn12 1.981 . S
O41 C32 1.245 . S
C42 O46 1.262 1_565 S
C42 O47 1.245 . S
O43 Zn12 1.945 . S
O43 C36 1.262 1_565 S
O44 Zn1 1.981 . S
O44 C36 1.245 . S
C45 O27 1.245 1_554 S
C45 O28 1.263 . S
O46 Zn17 1.945 . S
O46 C42 1.262 1_545 S
O47 Zn6 1.981 . S
O47 C42 1.245 . S
C48 O29 1.276 1_655 S
C48 O49 1.246 . S
O49 C48 1.246 . S
C50 O31 1.276 1_455 S
C50 O51 1.246 . S
O51 C50 1.246 . S
Zn52 O54 1.933 . S
Zn52 O72 1.985 . S
Zn52 O83 1.955 . S
Zn53 O54 1.911 . S
Zn53 O73 1.970 . S
Zn53 O89 1.945 . S
Zn53 O96 1.981 . S
O54 Zn52 1.933 . S
O54 Zn53 1.911 . S
O54 H55 0.841 . S
H55 O54 0.841 . S
C56 O57 1.246 . S
C56 O85 1.276 . S
O57 C56 1.246 . S
Zn58 O60 1.911 . S
Zn58 O75 1.970 . S
Zn58 O92 1.945 . S
Zn58 O99 1.981 . S
Zn59 O60 1.933 . S
Zn59 O74 1.985 . S
Zn59 O81 1.955 . S
O60 Zn58 1.911 . S
O60 Zn59 1.933 . S
O60 H61 0.841 . S
H61 O60 0.841 . S
Zn62 O63 1.933 . S
Zn62 O76 1.985 . S
Zn62 O85 1.955 . S
O63 Zn62 1.933 . S
O63 Zn64 1.911 . S
O63 H65 0.841 . S
Zn64 O63 1.911 . S
Zn64 O77 1.970 . S
Zn64 O93 1.981 . S
Zn64 O95 1.945 . S
H65 O63 0.841 . S
Zn66 O67 1.933 . S
Zn66 O79 1.985 . S
Zn66 O87 1.955 . S
O67 Zn66 1.933 . S
O67 H68 0.841 . S
O67 Zn69 1.911 . S
H68 O67 0.841 . S
Zn69 O67 1.911 . S
Zn69 O80 1.970 . S
Zn69 O90 1.981 . S
Zn69 O98 1.945 . S
C70 O71 1.246 . S
C70 O87 1.276 . S
O71 C70 1.246 . S
O72 Zn52 1.985 . S
O72 C82 1.245 . S
O73 Zn53 1.970 . S
O73 C82 1.263 . S
O74 Zn59 1.985 . S
O74 C86 1.245 . S
O75 Zn58 1.970 . S
O75 C86 1.263 . S
O76 Zn62 1.985 . S
O76 C91 1.245 . S
O77 Zn64 1.970 . S
O77 C91 1.263 . S
C78 O89 1.262 . S
C78 O90 1.245 . S
O79 Zn66 1.985 . S
O79 C97 1.245 . S
O80 Zn69 1.970 . S
O80 C97 1.263 . S
O81 Zn59 1.955 . S
O81 C100 1.276 . S
C82 O72 1.245 . S
C82 O73 1.263 . S
O83 Zn52 1.955 . S
O83 C102 1.276 . S
C84 O92 1.262 . S
C84 O93 1.245 . S
O85 C56 1.276 . S
O85 Zn62 1.955 . S
C86 O74 1.245 . S
C86 O75 1.263 . S
O87 Zn66 1.955 . S
O87 C70 1.276 . S
C88 O95 1.262 . S
C88 O96 1.245 . S
O89 Zn53 1.945 . S
O89 C78 1.262 . S
O90 Zn69 1.981 . S
O90 C78 1.245 . S
C91 O76 1.245 . S
C91 O77 1.263 . S
O92 Zn58 1.945 . S
O92 C84 1.262 . S
O93 Zn64 1.981 . S
O93 C84 1.245 . S
C94 O98 1.262 . S
C94 O99 1.245 . S
O95 Zn64 1.945 . S
O95 C88 1.262 . S
O96 Zn53 1.981 . S
O96 C88 1.245 . S
C97 O79 1.245 . S
C97 O80 1.263 . S
O98 Zn69 1.945 . S
O98 C94 1.262 . S
O99 Zn58 1.981 . S
O99 C94 1.245 . S
C100 O81 1.276 . S
C100 O101 1.246 . S
O101 C100 1.246 . S
C102 O83 1.276 . S
C102 O103 1.246 . S
O103 C102 1.246 . S
H104 C109 0.930 . S
H105 C112 0.930 . S
H106 C114 0.930 . S
H107 C108 1.016 . S
C108 H107 1.016 . S
C108 N115 1.286 1_554 S
C109 H104 0.930 . S
C109 C110 1.397 . S
C109 C111 1.361 1_556 S
C110 C109 1.397 . S
C110 C114 1.390 1_556 S
C111 C109 1.361 1_554 S
C111 C112 1.393 . S
C111 N115 1.413 1_554 S
C112 H105 0.930 . S
C112 C111 1.393 . S
C112 C113 1.399 . S
C113 C112 1.399 . S
C113 C114 1.381 . S
C114 H106 0.930 . S
C114 C110 1.390 1_554 S
C114 C113 1.381 . S
N115 C108 1.286 1_556 S
N115 C111 1.413 1_556 S
H116 C121 0.930 . S
H117 C124 0.930 . S
H118 C126 0.930 . S
H119 C120 1.016 . S
C120 H119 1.016 . S
C120 N127 1.286 1_554 S
C121 H116 0.930 . S
C121 C122 1.397 . S
C121 C123 1.361 1_556 S
C122 C121 1.397 . S
C122 C126 1.390 1_556 S
C123 C121 1.361 1_554 S
C123 C124 1.393 . S
C123 N127 1.413 1_554 S
C124 H117 0.930 . S
C124 C123 1.393 . S
C124 C125 1.399 . S
C125 C124 1.399 . S
C125 C126 1.381 . S
C126 H118 0.930 . S
C126 C122 1.390 1_554 S
C126 C125 1.381 . S
N127 C120 1.286 1_556 S
N127 C123 1.413 1_556 S
H128 C133 0.930 . S
H129 C136 0.930 . S
H130 C138 0.930 . S
H131 C132 1.008 1_556 S
C132 H131 1.008 1_554 S
C132 N139 1.291 . S
C133 H128 0.930 . S
C133 C134 1.397 . S
C133 C135 1.361 . S
C134 C133 1.397 . S
C134 C138 1.390 . S
C135 C133 1.361 . S
C135 C136 1.393 1_554 S
C135 N139 1.413 . S
C136 H129 0.930 . S
C136 C135 1.393 1_556 S
C136 C137 1.399 . S
C137 C136 1.399 . S
C137 C138 1.381 1_556 S
C138 H130 0.930 . S
C138 C134 1.390 . S
C138 C137 1.381 1_554 S
N139 C132 1.291 . S
N139 C135 1.413 . S
H140 C145 0.930 . S
H141 C148 0.930 . S
H142 C150 0.930 . S
H143 C144 1.016 . S
C144 H143 1.016 . S
C144 N151 1.286 1_554 S
C145 H140 0.930 . S
C145 C146 1.397 . S
C145 C147 1.361 . S
C146 C145 1.397 . S
C146 C150 1.390 1_556 S
C147 C145 1.361 . S
C147 C148 1.393 1_556 S
C147 N151 1.413 . S
C148 H141 0.930 . S
C148 C147 1.393 1_554 S
C148 C149 1.399 . S
C149 C148 1.399 . S
C149 C150 1.381 . S
C150 H142 0.930 . S
C150 C146 1.390 1_554 S
C150 C149 1.381 . S
N151 C144 1.286 1_556 S
N151 C147 1.413 . S
H152 C157 0.930 . S
H153 C160 0.930 . S
H154 C162 0.930 . S
H155 C156 1.016 . S
C156 H155 1.016 . S
C156 N163 1.286 . S
C157 H152 0.930 . S
C157 C158 1.397 . S
C157 C159 1.361 . S
C158 C157 1.397 . S
C158 C162 1.390 . S
C159 C157 1.361 . S
C159 C160 1.393 . S
C159 N163 1.413 . S
C160 H153 0.930 . S
C160 C159 1.393 . S
C160 C161 1.399 . S
C161 C160 1.399 . S
C161 C162 1.381 . S
C162 H154 0.930 . S
C162 C158 1.390 . S
C162 C161 1.381 . S
N163 C156 1.286 . S
N163 C159 1.413 . S
H164 C169 0.930 . S
H165 C172 0.930 . S
H166 C174 0.930 . S
H167 C168 1.016 . S
C168 H167 1.016 . S
C168 N175 1.286 . S
C169 H164 0.930 . S
C169 C170 1.397 . S
C169 C171 1.361 . S
C170 C169 1.397 . S
C170 C174 1.390 . S
C171 C169 1.361 . S
C171 C172 1.393 . S
C171 N175 1.413 . S
C172 H165 0.930 . S
C172 C171 1.393 . S
C172 C173 1.399 . S
C173 C172 1.399 . S
C173 C174 1.381 . S
C174 H166 0.930 . S
C174 C170 1.390 . S
C174 C173 1.381 . S
N175 C168 1.286 . S
N175 C171 1.413 . S
H176 C181 0.930 . S
H177 C184 0.930 . S
H178 C186 0.930 . S
H179 C180 1.016 . S
C180 H179 1.016 . S
C180 N187 1.286 . S
C181 H176 0.930 . S
C181 C182 1.397 . S
C181 C183 1.361 . S
C182 C181 1.397 . S
C182 C186 1.390 . S
C183 C181 1.361 . S
C183 C184 1.393 . S
C183 N187 1.413 . S
C184 H177 0.930 . S
C184 C183 1.393 . S
C184 C185 1.399 . S
C185 C184 1.399 . S
C185 C186 1.381 . S
C186 H178 0.930 . S
C186 C182 1.390 . S
C186 C185 1.381 . S
N187 C180 1.286 . S
N187 C183 1.413 . S
H188 C193 0.930 . S
H189 C196 0.930 . S
H190 C198 0.930 . S
H191 C192 1.016 . S
C192 H191 1.016 . S
C192 N199 1.286 . S
C193 H188 0.930 . S
C193 C194 1.397 . S
C193 C195 1.361 . S
C194 C193 1.397 . S
C194 C198 1.390 . S
C195 C193 1.361 . S
C195 C196 1.393 . S
C195 N199 1.413 . S
C196 H189 0.930 . S
C196 C195 1.393 . S
C196 C197 1.399 . S
C197 C196 1.399 . S
C197 C198 1.381 . S
C198 H190 0.930 . S
C198 C194 1.390 . S
C198 C197 1.381 . S
N199 C192 1.286 . S
N199 C195 1.413 . S
H200 C206 0.930 . S
H201 C209 0.930 . S
H202 C210 0.930 1_556 S
H203 C211 0.930 . S
H204 C214 0.930 . S
H205 C215 0.930 . S
C206 H200 0.930 . S
C206 C207 1.355 . S
C206 C208 1.415 . S
C207 C206 1.355 . S
C207 C209 1.419 . S
C208 C206 1.415 . S
C208 C213 1.425 . S
C208 C215 1.409 . S
C209 H201 0.930 . S
C209 C207 1.419 . S
C209 C210 1.362 . S
C210 H202 0.930 1_554 S
C210 C209 1.362 . S
C210 C213 1.409 . S
C211 H203 0.930 . S
C211 C212 1.355 . S
C211 C213 1.415 . S
C212 C211 1.355 . S
C212 C214 1.419 . S
C213 C208 1.425 . S
C213 C210 1.409 . S
C213 C211 1.415 . S
C214 H204 0.930 . S
C214 C212 1.419 . S
C214 C215 1.362 . S
C215 H205 0.930 . S
C215 C208 1.409 . S
C215 C214 1.362 . S
H216 C222 0.930 . S
H217 C225 0.930 . S
H218 C226 0.930 . S
H219 C227 0.930 . S
H220 C230 0.930 . S
H221 C231 0.930 . S
C222 H216 0.930 . S
C222 C223 1.355 . S
C222 C224 1.415 . S
C223 C222 1.355 . S
C223 C225 1.419 1_554 S
C224 C222 1.415 . S
C224 C229 1.425 1_554 S
C224 C231 1.409 . S
C225 H217 0.930 . S
C225 C223 1.419 1_556 S
C225 C226 1.362 . S
C226 H218 0.930 . S
C226 C225 1.362 . S
C226 C229 1.409 . S
C227 H219 0.930 . S
C227 C228 1.355 1_556 S
C227 C229 1.415 . S
C228 C227 1.355 1_554 S
C228 C230 1.419 . S
C229 C224 1.425 1_556 S
C229 C226 1.409 . S
C229 C227 1.415 . S
C230 H220 0.930 . S
C230 C228 1.419 . S
C230 C231 1.362 . S
C231 H221 0.930 . S
C231 C224 1.409 . S
C231 C230 1.362 . S
H232 C238 0.930 . S
H233 C241 0.930 . S
H234 C242 0.930 . S
H235 C243 0.930 . S
H236 C246 0.930 . S
H237 C247 0.930 . S
C238 H232 0.930 . S
C238 C239 1.355 1_556 S
C238 C240 1.415 . S
C239 C238 1.355 1_554 S
C239 C241 1.419 . S
C240 C238 1.415 . S
C240 C245 1.425 1_556 S
C240 C247 1.409 . S
C241 H233 0.930 . S
C241 C239 1.419 . S
C241 C242 1.362 . S
C242 H234 0.930 . S
C242 C241 1.362 . S
C242 C245 1.409 . S
C243 H235 0.930 . S
C243 C244 1.355 . S
C243 C245 1.415 . S
C244 C243 1.355 . S
C244 C246 1.419 1_554 S
C245 C240 1.425 1_554 S
C245 C242 1.409 . S
C245 C243 1.415 . S
C246 H236 0.930 . S
C246 C244 1.419 1_556 S
C246 C247 1.362 . S
C247 H237 0.930 . S
C247 C240 1.409 . S
C247 C246 1.362 . S
H248 C254 0.930 . S
H249 C257 0.930 . S
H250 C258 0.930 . S
H251 C259 0.926 1_556 S
H252 C262 0.930 . S
H253 C263 0.930 . S
C254 H248 0.930 . S
C254 C255 1.355 . S
C254 C256 1.415 . S
C255 C254 1.355 . S
C255 C257 1.419 1_554 S
C256 C254 1.415 . S
C256 C261 1.425 . S
C256 C263 1.409 . S
C257 H249 0.930 . S
C257 C255 1.419 1_556 S
C257 C258 1.362 . S
C258 H250 0.930 . S
C258 C257 1.362 . S
C258 C261 1.409 1_556 S
C259 H251 0.926 1_554 S
C259 C260 1.358 . S
C259 C261 1.415 . S
C260 C259 1.358 . S
C260 C262 1.419 . S
C261 C256 1.425 . S
C261 C258 1.409 1_554 S
C261 C259 1.415 . S
C262 H252 0.930 . S
C262 C260 1.419 . S
C262 C263 1.362 . S
C263 H253 0.930 . S
C263 C256 1.409 . S
C263 C262 1.362 . S
H264 C270 0.930 . S
H265 C273 0.930 . S
H266 C274 0.930 . S
H267 C275 0.930 . S
H268 C278 0.930 . S
H269 C279 0.930 . S
C270 H264 0.930 . S
C270 C271 1.355 . S
C270 C272 1.415 . S
C271 C270 1.355 . S
C271 C273 1.419 . S
C272 C270 1.415 . S
C272 C277 1.425 . S
C272 C279 1.409 . S
C273 H265 0.930 . S
C273 C271 1.419 . S
C273 C274 1.362 . S
C274 H266 0.930 . S
C274 C273 1.362 . S
C274 C277 1.409 . S
C275 H267 0.930 . S
C275 C276 1.355 . S
C275 C277 1.415 . S
C276 C275 1.355 . S
C276 C278 1.419 . S
C277 C272 1.425 . S
C277 C274 1.409 . S
C277 C275 1.415 . S
C278 H268 0.930 . S
C278 C276 1.419 . S
C278 C279 1.362 . S
C279 H269 0.930 . S
C279 C272 1.409 . S
C279 C278 1.362 . S
H280 C286 0.930 . S
H281 C289 0.930 . S
H282 C290 0.930 . S
H283 C291 0.930 . S
H284 C294 0.930 . S
H285 C295 0.930 . S
C286 H280 0.930 . S
C286 C287 1.355 . S
C286 C288 1.415 . S
C287 C286 1.355 . S
C287 C289 1.419 . S
C288 C286 1.415 . S
C288 C293 1.425 . S
C288 C295 1.409 . S
C289 H281 0.930 . S
C289 C287 1.419 . S
C289 C290 1.362 . S
C290 H282 0.930 . S
C290 C289 1.362 . S
C290 C293 1.409 . S
C291 H283 0.930 . S
C291 C292 1.355 . S
C291 C293 1.415 . S
C292 C291 1.355 . S
C292 C294 1.419 . S
C293 C288 1.425 . S
C293 C290 1.409 . S
C293 C291 1.415 . S
C294 H284 0.930 . S
C294 C292 1.419 . S
C294 C295 1.362 . S
C295 H285 0.930 . S
C295 C288 1.409 . S
C295 C294 1.362 . S
H296 C302 0.930 . S
H297 C305 0.930 . S
H298 C306 0.930 . S
H299 C307 0.930 . S
H300 C310 0.930 . S
H301 C311 0.930 . S
C302 H296 0.930 . S
C302 C303 1.355 . S
C302 C304 1.415 . S
C303 C302 1.355 . S
C303 C305 1.419 . S
C304 C302 1.415 . S
C304 C309 1.425 . S
C304 C311 1.409 . S
C305 H297 0.930 . S
C305 C303 1.419 . S
C305 C306 1.362 . S
C306 H298 0.930 . S
C306 C305 1.362 . S
C306 C309 1.409 . S
C307 H299 0.930 . S
C307 C308 1.355 . S
C307 C309 1.415 . S
C308 C307 1.355 . S
C308 C310 1.419 . S
C309 C304 1.425 . S
C309 C306 1.409 . S
C309 C307 1.415 . S
C310 H300 0.930 . S
C310 C308 1.419 . S
C310 C311 1.362 . S
C311 H301 0.930 . S
C311 C304 1.409 . S
C311 C310 1.362 . S
H312 C318 0.930 . S
H313 C321 0.930 . S
H314 C322 0.930 . S
H315 C323 0.930 . S
H316 C326 0.930 . S
H317 C327 0.930 . S
C318 H312 0.930 . S
C318 C319 1.355 . S
C318 C320 1.415 . S
C319 C318 1.355 . S
C319 C321 1.419 . S
C320 C318 1.415 . S
C320 C325 1.425 . S
C320 C327 1.409 . S
C321 H313 0.930 . S
C321 C319 1.419 . S
C321 C322 1.362 . S
C322 H314 0.930 . S
C322 C321 1.362 . S
C322 C325 1.409 . S
C323 H315 0.930 . S
C323 C324 1.355 . S
C323 C325 1.415 . S
C324 C323 1.355 . S
C324 C326 1.419 . S
C325 C320 1.425 . S
C325 C322 1.409 . S
C325 C323 1.415 . S
C326 H316 0.930 . S
C326 C324 1.419 . S
C326 C327 1.362 . S
C327 H317 0.930 . S
C327 C320 1.409 . S
C327 C326 1.362 . S
H328 C334 0.930 . S
H329 C337 0.930 . S
H330 C338 0.930 . S
H331 C339 0.930 . S
H332 C342 0.930 . S
H333 C343 0.930 . S
C334 H328 0.930 . S
C334 C335 1.355 . S
C334 C336 1.415 . S
C335 C334 1.355 . S
C335 C337 1.419 . S
C336 C334 1.415 . S
C336 C341 1.425 . S
C336 C343 1.409 . S
C337 H329 0.930 . S
C337 C335 1.419 . S
C337 C338 1.362 . S
C338 H330 0.930 . S
C338 C337 1.362 . S
C338 C341 1.409 . S
C339 H331 0.930 . S
C339 C340 1.355 . S
C339 C341 1.415 . S
C340 C339 1.355 . S
C340 C342 1.419 . S
C341 C336 1.425 . S
C341 C338 1.409 . S
C341 C339 1.415 . S
C342 H332 0.930 . S
C342 C340 1.419 . S
C342 C343 1.362 . S
C343 H333 0.930 . S
C343 C336 1.409 . S
C343 C342 1.362 . S
H344 C350 0.906 1_565 S
H345 C353 0.930 . S
H346 C354 0.930 . S
H347 C355 0.930 . S
H348 C358 0.930 . S
H349 C359 0.930 1_565 S
C350 H344 0.906 1_545 S
C350 C351 1.355 . S
C350 C352 1.415 . S
C351 C350 1.355 . S
C351 C353 1.419 . S
C352 C350 1.415 . S
C352 C357 1.425 . S
C352 C359 1.409 . S
C353 H345 0.930 . S
C353 C351 1.419 . S
C353 C354 1.362 . S
C354 H346 0.930 . S
C354 C353 1.362 . S
C354 C357 1.409 . S
C355 H347 0.930 . S
C355 C356 1.355 . S
C355 C357 1.415 . S
C356 C355 1.355 . S
C356 C358 1.419 . S
C357 C352 1.425 . S
C357 C354 1.409 . S
C357 C355 1.415 . S
C358 H348 0.930 . S
C358 C356 1.419 . S
C358 C359 1.362 . S
C359 H349 0.930 1_545 S
C359 C352 1.409 . S
C359 C358 1.362 . S
H360 C366 0.930 . S
H361 C369 0.930 1_455 S
H362 C370 0.930 1_455 S
H363 C371 0.930 . S
H364 C374 0.930 . S
H365 C375 0.930 . S
C366 H360 0.930 . S
C366 C367 1.355 . S
C366 C368 1.415 . S
C367 C366 1.355 . S
C367 C369 1.419 . S
C368 C366 1.415 . S
C368 C373 1.425 . S
C368 C375 1.409 . S
C369 H361 0.930 1_655 S
C369 C367 1.419 . S
C369 C370 1.362 . S
C370 H362 0.930 1_655 S
C370 C369 1.362 . S
C370 C373 1.409 . S
C371 H363 0.930 . S
C371 C372 1.355 . S
C371 C373 1.415 . S
C372 C371 1.355 . S
C372 C374 1.419 . S
C373 C368 1.425 . S
C373 C370 1.409 . S
C373 C371 1.415 . S
C374 H364 0.930 . S
C374 C372 1.419 . S
C374 C375 1.362 . S
C375 H365 0.930 . S
C375 C368 1.409 . S
C375 C374 1.362 . S
H376 C382 0.930 . S
H377 C385 0.930 1_545 S
H378 C386 0.930 1_545 S
H379 C387 0.930 . S
H380 C390 0.930 . S
H381 C391 0.930 . S
C382 H376 0.930 . S
C382 C383 1.355 . S
C382 C384 1.415 . S
C383 C382 1.355 . S
C383 C385 1.419 . S
C384 C382 1.415 . S
C384 C389 1.425 . S
C384 C391 1.409 . S
C385 H377 0.930 1_565 S
C385 C383 1.419 . S
C385 C386 1.362 . S
C386 H378 0.930 1_565 S
C386 C385 1.362 . S
C386 C389 1.409 . S
C387 H379 0.930 . S
C387 C388 1.355 . S
C387 C389 1.415 . S
C388 C387 1.355 . S
C388 C390 1.419 . S
C389 C384 1.425 . S
C389 C386 1.409 . S
C389 C387 1.415 . S
C390 H380 0.930 . S
C390 C388 1.419 . S
C390 C391 1.362 . S
C391 H381 0.930 . S
C391 C384 1.409 . S
C391 C390 1.362 . S
H392 C398 0.930 . S
H393 C401 0.930 1_545 S
H394 C402 0.930 1_545 S
H395 C403 0.930 . S
H396 C406 0.930 . S
H397 C407 0.930 . S
C398 H392 0.930 . S
C398 C399 1.355 . S
C398 C400 1.415 . S
C399 C398 1.355 . S
C399 C401 1.419 . S
C400 C398 1.415 . S
C400 C405 1.425 . S
C400 C407 1.409 . S
C401 H393 0.930 1_565 S
C401 C399 1.419 . S
C401 C402 1.362 . S
C402 H394 0.930 1_565 S
C402 C401 1.362 . S
C402 C405 1.409 . S
C403 H395 0.930 . S
C403 C404 1.355 . S
C403 C405 1.415 . S
C404 C403 1.355 . S
C404 C406 1.419 . S
C405 C400 1.425 . S
C405 C402 1.409 . S
C405 C403 1.415 . S
C406 H396 0.930 . S
C406 C404 1.419 . S
C406 C407 1.362 . S
C407 H397 0.930 . S
C407 C400 1.409 . S
C407 C406 1.362 . S
H408 C414 0.930 . S
H409 C417 0.930 . S
H410 C418 0.930 . S
H411 C419 0.930 . S
H412 C422 0.930 . S
H413 C423 0.930 . S
C414 H408 0.930 . S
C414 C415 1.355 . S
C414 C416 1.415 . S
C415 C414 1.355 . S
C415 C417 1.419 . S
C416 C414 1.415 . S
C416 C421 1.425 . S
C416 C423 1.409 . S
C417 H409 0.930 . S
C417 C415 1.419 . S
C417 C418 1.362 . S
C418 H410 0.930 . S
C418 C417 1.362 . S
C418 C421 1.409 . S
C419 H411 0.930 . S
C419 C420 1.355 . S
C419 C421 1.415 . S
C420 C419 1.355 . S
C420 C422 1.419 . S
C421 C416 1.425 . S
C421 C418 1.409 . S
C421 C419 1.415 . S
C422 H412 0.930 . S
C422 C420 1.419 . S
C422 C423 1.362 . S
C423 H413 0.930 . S
C423 C416 1.409 . S
C423 C422 1.362 . S
H424 C430 0.930 . S
H425 C433 0.930 . S
H426 C434 0.930 . S
H427 C435 0.930 . S
H428 C438 0.930 . S
H429 C439 0.930 . S
C430 H424 0.930 . S
C430 C431 1.355 . S
C430 C432 1.415 . S
C431 C430 1.355 . S
C431 C433 1.419 . S
C432 C430 1.415 . S
C432 C437 1.425 . S
C432 C439 1.409 . S
C433 H425 0.930 . S
C433 C431 1.419 . S
C433 C434 1.362 . S
C434 H426 0.930 . S
C434 C433 1.362 . S
C434 C437 1.409 . S
C435 H427 0.930 . S
C435 C436 1.355 . S
C435 C437 1.415 . S
C436 C435 1.355 . S
C436 C438 1.419 . S
C437 C432 1.425 . S
C437 C434 1.409 . S
C437 C435 1.415 . S
C438 H428 0.930 . S
C438 C436 1.419 . S
C438 C439 1.362 . S
C439 H429 0.930 . S
C439 C432 1.409 . S
C439 C438 1.362 . S
H440 C446 0.930 . S
H441 C449 0.930 1_455 S
H442 C450 0.930 1_455 S
H443 C451 0.930 . S
H444 C454 0.930 . S
H445 C455 0.930 . S
C446 H440 0.930 . S
C446 C447 1.355 . S
C446 C448 1.415 . S
C447 C446 1.355 . S
C447 C449 1.419 . S
C448 C446 1.415 . S
C448 C453 1.425 . S
C448 C455 1.409 . S
C449 H441 0.930 1_655 S
C449 C447 1.419 . S
C449 C450 1.362 . S
C450 H442 0.930 1_655 S
C450 C449 1.362 . S
C450 C453 1.409 . S
C451 H443 0.930 . S
C451 C452 1.355 . S
C451 C453 1.415 . S
C452 C451 1.355 . S
C452 C454 1.419 . S
C453 C448 1.425 . S
C453 C450 1.409 . S
C453 C451 1.415 . S
C454 H444 0.930 . S
C454 C452 1.419 . S
C454 C455 1.362 . S
C455 H445 0.930 . S
C455 C448 1.409 . S
C455 C454 1.362 . S
H456 C462 0.930 . S
H457 C465 0.930 . S
H458 C466 0.930 . S
H459 C467 0.930 . S
H460 C470 0.930 . S
H461 C471 0.930 . S
C462 H456 0.930 . S
C462 C463 1.355 . S
C462 C464 1.415 . S
C463 C462 1.355 . S
C463 C465 1.419 . S
C464 C462 1.415 . S
C464 C469 1.425 . S
C464 C471 1.409 . S
C465 H457 0.930 . S
C465 C463 1.419 . S
C465 C466 1.362 . S
C466 H458 0.930 . S
C466 C465 1.362 . S
C466 C469 1.409 . S
C467 H459 0.930 . S
C467 C468 1.355 . S
C467 C469 1.415 . S
C468 C467 1.355 . S
C468 C470 1.419 . S
C469 C464 1.425 . S
C469 C466 1.409 . S
C469 C467 1.415 . S
C470 H460 0.930 . S
C470 C468 1.419 . S
C470 C471 1.362 . S
C471 H461 0.930 . S
C471 C464 1.409 . S
C471 C470 1.362 . S
H472 C478 0.930 . S
H473 C481 0.930 . S
H474 C482 0.930 . S
H475 C483 0.930 . S
H476 C486 0.930 . S
H477 C487 0.930 . S
C478 H472 0.930 . S
C478 C479 1.355 . S
C478 C480 1.415 . S
C479 C478 1.355 . S
C479 C481 1.419 . S
C480 C478 1.415 . S
C480 C485 1.425 . S
C480 C487 1.409 . S
C481 H473 0.930 . S
C481 C479 1.419 . S
C481 C482 1.362 . S
C482 H474 0.930 . S
C482 C481 1.362 . S
C482 C485 1.409 . S
C483 H475 0.930 . S
C483 C484 1.355 . S
C483 C485 1.415 . S
C484 C483 1.355 . S
C484 C486 1.419 . S
C485 C480 1.425 . S
C485 C482 1.409 . S
C485 C483 1.415 . S
C486 H476 0.930 . S
C486 C484 1.419 . S
C486 C487 1.362 . S
C487 H477 0.930 . S
C487 C480 1.409 . S
C487 C486 1.362 . S
H488 C494 0.930 . S
H489 C497 0.930 . S
H490 C498 0.930 . S
H491 C499 0.930 . S
H492 C502 0.930 . S
H493 C503 0.930 . S
C494 H488 0.930 . S
C494 C495 1.355 . S
C494 C496 1.415 . S
C495 C494 1.355 . S
C495 C497 1.419 . S
C496 C494 1.415 . S
C496 C501 1.425 . S
C496 C503 1.409 . S
C497 H489 0.930 . S
C497 C495 1.419 . S
C497 C498 1.362 . S
C498 H490 0.930 . S
C498 C497 1.362 . S
C498 C501 1.409 . S
C499 H491 0.930 . S
C499 C500 1.355 . S
C499 C501 1.415 . S
C500 C499 1.355 . S
C500 C502 1.419 . S
C501 C496 1.425 . S
C501 C498 1.409 . S
C501 C499 1.415 . S
C502 H492 0.930 . S
C502 C500 1.419 . S
C502 C503 1.362 . S
C503 H493 0.930 . S
C503 C496 1.409 . S
C503 C502 1.362 . S
H504 C510 0.930 . S
H505 C513 0.930 . S
H506 C514 0.930 . S
H507 C515 0.930 . S
H508 C518 0.930 . S
H509 C519 0.930 . S
C510 H504 0.930 . S
C510 C511 1.355 . S
C510 C512 1.415 . S
C511 C510 1.355 . S
C511 C513 1.419 . S
C512 C510 1.415 . S
C512 C517 1.425 . S
C512 C519 1.409 . S
C513 H505 0.930 . S
C513 C511 1.419 . S
C513 C514 1.362 . S
C514 H506 0.930 . S
C514 C513 1.362 . S
C514 C517 1.409 . S
C515 H507 0.930 . S
C515 C516 1.355 . S
C515 C517 1.415 . S
C516 C515 1.355 . S
C516 C518 1.419 . S
C517 C512 1.425 . S
C517 C514 1.409 . S
C517 C515 1.415 . S
C518 H508 0.930 . S
C518 C516 1.419 . S
C518 C519 1.362 . S
C519 H509 0.930 . S
C519 C512 1.409 . S
C519 C518 1.362 . S
H520 C526 0.930 . S
H521 C529 0.930 . S
H522 C530 0.930 . S
H523 C531 0.930 . S
H524 C534 0.930 . S
H525 C535 0.930 . S
C526 H520 0.930 . S
C526 C527 1.355 . S
C526 C528 1.415 . S
C527 C526 1.355 . S
C527 C529 1.419 . S
C528 C526 1.415 . S
C528 C533 1.425 . S
C528 C535 1.409 . S
C529 H521 0.930 . S
C529 C527 1.419 . S
C529 C530 1.362 . S
C530 H522 0.930 . S
C530 C529 1.362 . S
C530 C533 1.409 . S
C531 H523 0.930 . S
C531 C532 1.355 . S
C531 C533 1.415 . S
C532 C531 1.355 . S
C532 C534 1.419 . S
C533 C528 1.425 . S
C533 C530 1.409 . S
C533 C531 1.415 . S
C534 H524 0.930 . S
C534 C532 1.419 . S
C534 C535 1.362 . S
C535 H525 0.930 . S
C535 C528 1.409 . S
C535 C534 1.362 . S
H536 C542 0.930 . S
H537 C545 0.930 . S
H538 C546 0.930 . S
H539 C547 0.930 . S
H540 C550 0.930 . S
H541 C551 0.930 . S
C542 H536 0.930 . S
C542 C543 1.355 . S
C542 C544 1.415 . S
C543 C542 1.355 . S
C543 C545 1.419 . S
C544 C542 1.415 . S
C544 C549 1.425 . S
C544 C551 1.409 . S
C545 H537 0.930 . S
C545 C543 1.419 . S
C545 C546 1.362 . S
C546 H538 0.930 . S
C546 C545 1.362 . S
C546 C549 1.409 . S
C547 H539 0.930 . S
C547 C548 1.355 . S
C547 C549 1.415 . S
C548 C547 1.355 . S
C548 C550 1.419 . S
C549 C544 1.425 . S
C549 C546 1.409 . S
C549 C547 1.415 . S
C550 H540 0.930 . S
C550 C548 1.419 . S
C550 C551 1.362 . S
C551 H541 0.930 . S
C551 C544 1.409 . S
C551 C550 1.362 . S
H552 C558 0.930 . S
H553 C561 0.930 . S
H554 C562 0.930 . S
H555 C563 0.930 . S
H556 C566 0.930 . S
H557 C567 0.930 . S
C558 H552 0.930 . S
C558 C559 1.355 . S
C558 C560 1.415 . S
C559 C558 1.355 . S
C559 C561 1.419 . S
C560 C558 1.415 . S
C560 C565 1.425 . S
C560 C567 1.409 . S
C561 H553 0.930 . S
C561 C559 1.419 . S
C561 C562 1.362 . S
C562 H554 0.930 . S
C562 C561 1.362 . S
C562 C565 1.409 . S
C563 H555 0.930 . S
C563 C564 1.355 . S
C563 C565 1.415 . S
C564 C563 1.355 . S
C564 C566 1.419 . S
C565 C560 1.425 . S
C565 C562 1.409 . S
C565 C563 1.415 . S
C566 H556 0.930 . S
C566 C564 1.419 . S
C566 C567 1.362 . S
C567 H557 0.930 . S
C567 C560 1.409 . S
C567 C566 1.362 . S
H568 C574 0.930 . S
H569 C577 0.930 . S
H570 C578 0.930 . S
H571 C579 0.930 . S
H572 C582 0.930 . S
H573 C583 0.930 . S
C574 H568 0.930 . S
C574 C575 1.355 . S
C574 C576 1.415 . S
C575 C574 1.355 . S
C575 C577 1.419 . S
C576 C574 1.415 . S
C576 C581 1.425 . S
C576 C583 1.409 . S
C577 H569 0.930 . S
C577 C575 1.419 . S
C577 C578 1.362 . S
C578 H570 0.930 . S
C578 C577 1.362 . S
C578 C581 1.409 . S
C579 H571 0.930 . S
C579 C580 1.355 . S
C579 C581 1.415 . S
C580 C579 1.355 . S
C580 C582 1.419 . S
C581 C576 1.425 . S
C581 C578 1.409 . S
C581 C579 1.415 . S
C582 H572 0.930 . S
C582 C580 1.419 . S
C582 C583 1.362 . S
C583 H573 0.930 . S
C583 C576 1.409 . S
C583 C582 1.362 . S
C207 C45 1.530 . S
C212 C108 1.540 . S
C223 C30 1.570 . S
C228 C120 1.567 . S
C239 C39 1.531 . S
C244 C132 1.527 . S
C260 C144 1.543 . S
C255 C34 1.536 . S
C271 C97 1.570 . S
C276 C156 1.577 . S
C292 C168 1.527 . S
C287 C82 1.534 . S
C308 C180 1.536 . S
C303 C91 1.550 . S
C324 C192 1.572 . S
C319 C86 1.573 . S
C340 C185 1.506 . S
C335 C26 1.447 . S
C356 C194 1.511 . S
C351 C36 1.473 . S
C372 C158 1.510 . S
C367 C32 1.481 . S
C388 C173 1.542 . S
C383 C42 1.486 . S
C399 C18 1.508 . S
C404 C170 1.598 . S
C420 C182 1.633 . S
C415 C50 1.576 . S
C431 C4 1.580 . S
C436 C197 1.619 . S
C447 C48 1.544 . S
C452 C161 1.605 . S
C468 C137 1.571 . S
C463 C78 1.534 . S
C479 C88 1.504 . S
C484 C146 1.526 . S
C500 C110 1.537 . S
C495 C84 1.495 . S
C516 C122 1.455 . S
C511 C94 1.424 . S
C532 C125 1.664 . S
C527 C70 1.606 . S
C548 C134 1.607 . S
C543 C102 1.547 . S
C559 C56 1.608 . S
C564 C149 1.639 . S
C575 C100 1.527 . S
C580 C113 1.575 . S
