# Generated by pormake.
# Topology ptr, (4,4)-cn, num edge types: 1
# Building blocks:
#     Node 0, Type 0, BuildingBlock: GALJAG_clean_sbu_0, # of connection points: 4
#     Node 1, Type 0, BuildingBlock: GALJAG_clean_sbu_0, # of connection points: 4
#     Node 2, Type 0, BuildingBlock: GALJAG_clean_sbu_0, # of connection points: 4
#     Node 3, Type 0, BuildingBlock: GALJAG_clean_sbu_0, # of connection points: 4
#     Node 4, Type 0, BuildingBlock: GALJAG_clean_sbu_0, # of connection points: 4
#     Node 5, Type 0, BuildingBlock: GALJAG_clean_sbu_0, # of connection points: 4
#     Node 6, Type 0, BuildingBlock: GALJAG_clean_sbu_0, # of connection points: 4
#     Node 7, Type 0, BuildingBlock: GALJAG_clean_sbu_0, # of connection points: 4
#     Node 8, Type 0, BuildingBlock: GALJAG_clean_sbu_0, # of connection points: 4
#     Node 9, Type 0, BuildingBlock: GALJAG_clean_sbu_0, # of connection points: 4
#     Node 10, Type 0, BuildingBlock: GALJAG_clean_sbu_0, # of connection points: 4
#     Node 11, Type 0, BuildingBlock: GALJAG_clean_sbu_0, # of connection points: 4
#     Node 12, Type 0, BuildingBlock: GALJAG_clean_sbu_0, # of connection points: 4
#     Node 13, Type 0, BuildingBlock: GALJAG_clean_sbu_0, # of connection points: 4
#     Node 14, Type 0, BuildingBlock: GALJAG_clean_sbu_0, # of connection points: 4
#     Node 15, Type 0, BuildingBlock: GALJAG_clean_sbu_0, # of connection points: 4
#     Node 16, Type 0, BuildingBlock: GALJAG_clean_sbu_0, # of connection points: 4
#     Node 17, Type 0, BuildingBlock: GALJAG_clean_sbu_0, # of connection points: 4
#     Node 18, Type 1, BuildingBlock: MUDLON_clean_linker_0, # of connection points: 4
#     Node 19, Type 1, BuildingBlock: MUDLON_clean_linker_0, # of connection points: 4
#     Node 20, Type 1, BuildingBlock: MUDLON_clean_linker_0, # of connection points: 4
#     Node 21, Type 1, BuildingBlock: MUDLON_clean_linker_0, # of connection points: 4
#     Node 22, Type 1, BuildingBlock: MUDLON_clean_linker_0, # of connection points: 4
#     Node 23, Type 1, BuildingBlock: MUDLON_clean_linker_0, # of connection points: 4
#     Node 24, Type 1, BuildingBlock: MUDLON_clean_linker_0, # of connection points: 4
#     Node 25, Type 1, BuildingBlock: MUDLON_clean_linker_0, # of connection points: 4
#     Node 26, Type 1, BuildingBlock: MUDLON_clean_linker_0, # of connection points: 4
#     Node 27, Type 1, BuildingBlock: MUDLON_clean_linker_0, # of connection points: 4
#     Node 28, Type 1, BuildingBlock: MUDLON_clean_linker_0, # of connection points: 4
#     Node 29, Type 1, BuildingBlock: MUDLON_clean_linker_0, # of connection points: 4
#     Node 30, Type 1, BuildingBlock: MUDLON_clean_linker_0, # of connection points: 4
#     Node 31, Type 1, BuildingBlock: MUDLON_clean_linker_0, # of connection points: 4
#     Node 32, Type 1, BuildingBlock: MUDLON_clean_linker_0, # of connection points: 4
#     Node 33, Type 1, BuildingBlock: MUDLON_clean_linker_0, # of connection points: 4
#     Node 34, Type 1, BuildingBlock: MUDLON_clean_linker_0, # of connection points: 4
#     Node 35, Type 1, BuildingBlock: MUDLON_clean_linker_0, # of connection points: 4
#     Edge 36, Type (0, 1), BuildingBlock: AJUNOK_clean_linker_0, # of connection points: 2
#     Edge 37, Type (0, 1), BuildingBlock: AJUNOK_clean_linker_0, # of connection points: 2
#     Edge 38, Type (0, 1), BuildingBlock: AJUNOK_clean_linker_0, # of connection points: 2
#     Edge 39, Type (0, 1), BuildingBlock: AJUNOK_clean_linker_0, # of connection points: 2
#     Edge 40, Type (0, 1), BuildingBlock: AJUNOK_clean_linker_0, # of connection points: 2
#     Edge 41, Type (0, 1), BuildingBlock: AJUNOK_clean_linker_0, # of connection points: 2
#     Edge 42, Type (0, 1), BuildingBlock: AJUNOK_clean_linker_0, # of connection points: 2
#     Edge 43, Type (0, 1), BuildingBlock: AJUNOK_clean_linker_0, # of connection points: 2
#     Edge 44, Type (0, 1), BuildingBlock: AJUNOK_clean_linker_0, # of connection points: 2
#     Edge 45, Type (0, 1), BuildingBlock: AJUNOK_clean_linker_0, # of connection points: 2
#     Edge 46, Type (0, 1), BuildingBlock: AJUNOK_clean_linker_0, # of connection points: 2
#     Edge 47, Type (0, 1), BuildingBlock: AJUNOK_clean_linker_0, # of connection points: 2
#     Edge 48, Type (0, 1), BuildingBlock: AJUNOK_clean_linker_0, # of connection points: 2
#     Edge 49, Type (0, 1), BuildingBlock: AJUNOK_clean_linker_0, # of connection points: 2
#     Edge 50, Type (0, 1), BuildingBlock: AJUNOK_clean_linker_0, # of connection points: 2
#     Edge 51, Type (0, 1), BuildingBlock: AJUNOK_clean_linker_0, # of connection points: 2
#     Edge 52, Type (0, 1), BuildingBlock: AJUNOK_clean_linker_0, # of connection points: 2
#     Edge 53, Type (0, 1), BuildingBlock: AJUNOK_clean_linker_0, # of connection points: 2
#     Edge 54, Type (0, 1), BuildingBlock: AJUNOK_clean_linker_0, # of connection points: 2
#     Edge 55, Type (0, 1), BuildingBlock: AJUNOK_clean_linker_0, # of connection points: 2
#     Edge 56, Type (0, 1), BuildingBlock: AJUNOK_clean_linker_0, # of connection points: 2
#     Edge 57, Type (0, 1), BuildingBlock: AJUNOK_clean_linker_0, # of connection points: 2
#     Edge 58, Type (0, 1), BuildingBlock: AJUNOK_clean_linker_0, # of connection points: 2
#     Edge 59, Type (0, 1), BuildingBlock: AJUNOK_clean_linker_0, # of connection points: 2
#     Edge 60, Type (0, 1), BuildingBlock: AJUNOK_clean_linker_0, # of connection points: 2
#     Edge 61, Type (0, 1), BuildingBlock: AJUNOK_clean_linker_0, # of connection points: 2
#     Edge 62, Type (0, 1), BuildingBlock: AJUNOK_clean_linker_0, # of connection points: 2
#     Edge 63, Type (0, 1), BuildingBlock: AJUNOK_clean_linker_0, # of connection points: 2
#     Edge 64, Type (0, 1), BuildingBlock: AJUNOK_clean_linker_0, # of connection points: 2
#     Edge 65, Type (0, 1), BuildingBlock: AJUNOK_clean_linker_0, # of connection points: 2
#     Edge 66, Type (0, 1), BuildingBlock: AJUNOK_clean_linker_0, # of connection points: 2
#     Edge 67, Type (0, 1), BuildingBlock: AJUNOK_clean_linker_0, # of connection points: 2
#     Edge 68, Type (0, 1), BuildingBlock: AJUNOK_clean_linker_0, # of connection points: 2
#     Edge 69, Type (0, 1), BuildingBlock: AJUNOK_clean_linker_0, # of connection points: 2
#     Edge 70, Type (0, 1), BuildingBlock: AJUNOK_clean_linker_0, # of connection points: 2
#     Edge 71, Type (0, 1), BuildingBlock: AJUNOK_clean_linker_0, # of connection points: 2
#     Edge 72, Type (0, 1), BuildingBlock: AJUNOK_clean_linker_0, # of connection points: 2
#     Edge 73, Type (0, 1), BuildingBlock: AJUNOK_clean_linker_0, # of connection points: 2
#     Edge 74, Type (0, 1), BuildingBlock: AJUNOK_clean_linker_0, # of connection points: 2
#     Edge 75, Type (0, 1), BuildingBlock: AJUNOK_clean_linker_0, # of connection points: 2
#     Edge 76, Type (0, 1), BuildingBlock: AJUNOK_clean_linker_0, # of connection points: 2
#     Edge 77, Type (0, 1), BuildingBlock: AJUNOK_clean_linker_0, # of connection points: 2
#     Edge 78, Type (0, 1), BuildingBlock: AJUNOK_clean_linker_0, # of connection points: 2
#     Edge 79, Type (0, 1), BuildingBlock: AJUNOK_clean_linker_0, # of connection points: 2
#     Edge 80, Type (0, 1), BuildingBlock: AJUNOK_clean_linker_0, # of connection points: 2
#     Edge 81, Type (0, 1), BuildingBlock: AJUNOK_clean_linker_0, # of connection points: 2
#     Edge 82, Type (0, 1), BuildingBlock: AJUNOK_clean_linker_0, # of connection points: 2
#     Edge 83, Type (0, 1), BuildingBlock: AJUNOK_clean_linker_0, # of connection points: 2
#     Edge 84, Type (0, 1), BuildingBlock: AJUNOK_clean_linker_0, # of connection points: 2
#     Edge 85, Type (0, 1), BuildingBlock: AJUNOK_clean_linker_0, # of connection points: 2
#     Edge 86, Type (0, 1), BuildingBlock: AJUNOK_clean_linker_0, # of connection points: 2
#     Edge 87, Type (0, 1), BuildingBlock: AJUNOK_clean_linker_0, # of connection points: 2
#     Edge 88, Type (0, 1), BuildingBlock: AJUNOK_clean_linker_0, # of connection points: 2
#     Edge 89, Type (0, 1), BuildingBlock: AJUNOK_clean_linker_0, # of connection points: 2
#     Edge 90, Type (0, 1), BuildingBlock: AJUNOK_clean_linker_0, # of connection points: 2
#     Edge 91, Type (0, 1), BuildingBlock: AJUNOK_clean_linker_0, # of connection points: 2
#     Edge 92, Type (0, 1), BuildingBlock: AJUNOK_clean_linker_0, # of connection points: 2
#     Edge 93, Type (0, 1), BuildingBlock: AJUNOK_clean_linker_0, # of connection points: 2
#     Edge 94, Type (0, 1), BuildingBlock: AJUNOK_clean_linker_0, # of connection points: 2
#     Edge 95, Type (0, 1), BuildingBlock: AJUNOK_clean_linker_0, # of connection points: 2
#     Edge 96, Type (0, 1), BuildingBlock: AJUNOK_clean_linker_0, # of connection points: 2
#     Edge 97, Type (0, 1), BuildingBlock: AJUNOK_clean_linker_0, # of connection points: 2
#     Edge 98, Type (0, 1), BuildingBlock: AJUNOK_clean_linker_0, # of connection points: 2
#     Edge 99, Type (0, 1), BuildingBlock: AJUNOK_clean_linker_0, # of connection points: 2
#     Edge 100, Type (0, 1), BuildingBlock: AJUNOK_clean_linker_0, # of connection points: 2
#     Edge 101, Type (0, 1), BuildingBlock: AJUNOK_clean_linker_0, # of connection points: 2
#     Edge 102, Type (0, 1), BuildingBlock: AJUNOK_clean_linker_0, # of connection points: 2
#     Edge 103, Type (0, 1), BuildingBlock: AJUNOK_clean_linker_0, # of connection points: 2
#     Edge 104, Type (0, 1), BuildingBlock: AJUNOK_clean_linker_0, # of connection points: 2
#     Edge 105, Type (0, 1), BuildingBlock: AJUNOK_clean_linker_0, # of connection points: 2
#     Edge 106, Type (0, 1), BuildingBlock: AJUNOK_clean_linker_0, # of connection points: 2
#     Edge 107, Type (0, 1), BuildingBlock: AJUNOK_clean_linker_0, # of connection points: 2
# Relax obj value: 0.050
# Max RMSD: 0.093
# Mean RMSD: 0.082
data_MOF--net-ptr--node1-GALJAG_clean_sbu_0--node2-MUDLON_clean_linker_0--edge1-AJUNOK_clean_linker_0
_symmetry_space_group_name_H-M    P1
_symmetry_Int_Tables_number       1
_symmetry_cell_setting            triclinic
loop_
_symmetry_equiv_pos_as_xyz
'x, y, z'
_cell_length_a     83.780556
_cell_length_b     83.860195
_cell_length_c     53.153409
_cell_angle_alpha  89.978712
_cell_angle_beta   90.030023
_cell_angle_gamma 120.12728
loop_
_atom_site_label
_atom_site_type_symbol
_atom_site_fract_x
_atom_site_fract_y
_atom_site_fract_z
_atom_type_partial_charge
In0 In 0.01499 0.37726 0.01464 0.0
O1 O 0.00771 0.37395 0.05657 0.0
O2 O 0.01139 0.39801 0.03799 0.0
C3 C 0.98871 0.34391 0.99736 0.0
C4 C 0.04577 0.37715 0.02974 0.0
C5 C 0.01742 0.39841 0.97477 0.0
O6 O 0.98525 0.35247 0.01406 0.0
O7 O 0.00519 0.3521 0.98987 0.0
O8 O 0.02925 0.39356 0.97873 0.0
O9 O 0.00488 0.393 0.99109 0.0
C10 C 0.00828 0.38924 0.05835 0.0
O11 O 0.04512 0.39185 0.02821 0.0
O12 O 0.03135 0.3629 0.02254 0.0
In13 In 0.65162 0.6487 0.01863 0.0
O14 O 0.65302 0.63368 0.05347 0.0
O15 O 0.62668 0.62933 0.04275 0.0
C16 C 0.68483 0.65798 0.99803 0.0
C17 C 0.65602 0.67933 0.04188 0.0
C18 C 0.62906 0.63187 0.979 0.0
O19 O 0.67535 0.64324 0.01018 0.0
O20 O 0.67766 0.66804 0.99662 0.0
O21 O 0.63215 0.64726 0.98736 0.0
O22 O 0.63703 0.62486 0.99099 0.0
C23 C 0.63604 0.62615 0.05849 0.0
O24 O 0.64769 0.67395 0.02107 0.0
O25 O 0.66236 0.66958 0.05031 0.0
In26 In 0.3772 0.01538 0.01865 0.0
O27 O 0.38437 0.04465 0.00774 0.0
O28 O 0.35735 0.02282 0.99951 0.0
C29 C 0.40019 0.02226 0.0583 0.0
C30 C 0.39298 0.00943 0.97803 0.0
C31 C 0.34549 0.98873 0.03944 0.0
O32 O 0.39208 0.03126 0.05426 0.0
O33 O 0.39722 0.01026 0.04186 0.0
O34 O 0.35225 0.98604 0.01971 0.0
O35 O 0.35458 0.00486 0.0482 0.0
C36 C 0.36881 0.03985 0.99818 0.0
O37 O 0.37969 0.99645 0.98974 0.0
O38 O 0.39831 0.02525 0.98694 0.0
In39 In 0.01458 0.65383 0.01797 0.0
O40 O 0.03065 0.65302 0.98382 0.0
O41 O 0.00457 0.62937 0.9914 0.0
C42 C 0.03923 0.68663 0.03849 0.0
C43 C 0.98907 0.6608 0.99776 0.0
C44 C 0.01326 0.63216 0.05657 0.0
O45 O 0.0437 0.67882 0.02186 0.0
O46 O 0.02237 0.67798 0.0444 0.0
O47 O 1.00074 0.63616 0.05315 0.0
O48 O 0.02591 0.63872 0.04031 0.0
C49 C 0.01854 0.63694 0.97722 0.0
O50 O 0.98481 0.64833 0.01413 0.0
O51 O 0.00598 0.66963 0.99219 0.0
In52 In 0.37903 0.37287 0.02143 0.0
O53 O 0.3827 0.38981 0.98568 0.0
O54 O 0.40597 0.38909 0.99987 0.0
C55 C 0.34654 0.36727 0.04 0.0
C56 C 0.37104 0.33991 1.00167 0.0
C57 C 0.39984 0.38969 0.06237 0.0
O58 O 0.35562 0.37947 0.02366 0.0
O59 O 0.35363 0.35766 0.04624 0.0
O60 O 0.398 0.37482 0.05374 0.0
O61 O 0.39137 0.3961 0.05018 0.0
C62 C 0.39954 0.39476 0.98291 0.0
O63 O 0.38133 0.34674 0.02067 0.0
O64 O 0.36447 0.34948 0.99325 0.0
In65 In 0.65025 0.01083 0.0181 0.0
O66 O 0.64661 0.02423 0.05384 0.0
O67 O 0.62332 1.00038 0.03921 0.0
C68 C 0.68277 0.03661 0.99841 0.0
C69 C 0.65809 0.98575 0.03757 0.0
C70 C 0.63026 0.00803 0.97691 0.0
O71 O 0.6746 0.04045 0.01533 0.0
O72 O 0.6748 0.0198 0.99234 0.0
O73 O 0.63108 0.99443 0.98561 0.0
O74 O 0.63911 0.02277 0.98932 0.0
C75 C 0.62968 0.01245 0.05623 0.0
O76 O 0.64659 0.98188 0.01995 0.0
O77 O 0.66575 1.00226 0.04492 0.0
In78 In 0.68384 0.70983 0.34774 0.0
O79 O 0.66892 0.71352 0.38174 0.0
O80 O 0.69429 0.73634 0.36981 0.0
C81 C 0.65877 0.67745 0.32677 0.0
C82 C 0.70876 0.7021 0.36833 0.0
C83 C 0.68782 0.73134 0.30783 0.0
O84 O 0.65492 0.684 0.34573 0.0
O85 O 0.67519 0.68692 0.31915 0.0
O86 O 0.70107 0.72993 0.31667 0.0
O87 O 0.67268 0.72205 0.3193 0.0
C88 C 0.68117 0.73015 0.38534 0.0
O89 O 0.71244 0.71252 0.34947 0.0
O90 O 0.69246 0.69534 0.3763 0.0
In91 In 0.32192 0.98522 0.35482 0.0
O92 O 0.3211 0.96965 0.39044 0.0
O93 O 0.29579 0.96666 0.377 0.0
C94 C 0.35566 0.99453 0.33625 0.0
C95 C 0.32594 0.01627 0.37618 0.0
C96 C 0.30103 0.96584 0.31511 0.0
O97 O 0.34674 0.98084 0.35055 0.0
O98 O 0.34778 0.0037 0.33199 0.0
O99 O 0.30338 0.98153 0.3208 0.0
O100 O 0.30893 0.96006 0.32962 0.0
C101 C 0.30389 0.96249 0.39357 0.0
O102 O 0.31838 0.01078 0.3549 0.0
O103 O 0.33157 0.00635 0.3861 0.0
In104 In 0.04517 0.34692 0.35056 0.0
O105 O 0.05101 0.37664 0.34665 0.0
O106 O 0.02788 0.35544 0.32739 0.0
C107 C 0.06696 0.34985 0.38991 0.0
C108 C 0.06214 0.34347 0.30934 0.0
C109 C 0.01318 0.32142 0.37202 0.0
O110 O 0.06285 0.36208 0.38485 0.0
O111 O 0.06049 0.3365 0.37471 0.0
O112 O 0.0206 0.31748 0.3542 0.0
O113 O 0.02171 0.33817 0.37836 0.0
C114 C 0.03752 0.37243 0.33214 0.0
O115 O 0.04584 0.33155 0.31536 0.0
O116 O 0.06992 0.35683 0.32444 0.0
In117 In 0.68221 0.98414 0.35358 0.0
O118 O 0.69651 0.98293 0.31749 0.0
O119 O 0.67335 0.95816 0.33066 0.0
C120 C 0.70886 0.01739 0.37071 0.0
C121 C 0.65579 0.98878 0.33142 0.0
C122 C 0.67697 0.96314 0.39477 0.0
O123 O 0.71241 0.0052 0.36331 0.0
O124 O 0.69211 0.01284 0.36934 0.0
O125 O 0.66761 0.97094 0.39085 0.0
O126 O 0.68874 0.96596 0.37801 0.0
C127 C 0.68548 0.96595 0.31386 0.0
O128 O 0.65236 0.97841 0.35038 0.0
O129 O 0.67241 0.99689 0.32443 0.0
In130 In 0.04306 0.70758 0.35082 0.0
O131 O 0.04307 0.72376 0.31608 0.0
O132 O 0.06859 0.72659 0.32795 0.0
C133 C 0.00957 0.69563 0.37162 0.0
C134 C 0.03993 0.67646 0.33081 0.0
C135 C 0.06236 0.72866 0.39026 0.0
O136 O 0.015 0.70613 0.35262 0.0
O137 O 0.02075 0.69079 0.37936 0.0
O138 O 0.06374 0.71497 0.38322 0.0
O139 O 0.05162 0.73171 0.37713 0.0
C140 C 0.06021 0.73099 0.31221 0.0
O141 O 0.05067 0.68475 0.349 0.0
O142 O 0.03075 0.68372 0.32336 0.0
In143 In 0.31574 0.34597 0.34996 0.0
O144 O 0.31377 0.31754 0.34941 0.0
O145 O 0.32899 0.33631 0.37873 0.0
C146 C 0.29466 0.34507 0.31108 0.0
C147 C 0.29522 0.34629 0.38875 0.0
C148 C 0.34841 0.37214 0.33084 0.0
O149 O 0.29809 0.33221 0.31507 0.0
O150 O 0.30139 0.35789 0.32714 0.0
O151 O 0.34187 0.37474 0.35084 0.0
O152 O 0.33879 0.35638 0.32123 0.0
C153 C 0.32309 0.32052 0.36935 0.0
O154 O 0.31132 0.35956 0.3845 0.0
O155 O 0.28945 0.3333 0.37298 0.0
In156 In 0.3519 0.04341 0.67956 0.0
O157 O 0.38119 0.04872 0.68757 0.0
O158 O 0.35851 0.02408 0.70136 0.0
C159 C 0.35857 0.06603 0.63983 0.0
C160 C 0.34663 0.06056 0.71906 0.0
C161 C 0.32515 0.01195 0.6583 0.0
O162 O 0.36781 0.05819 0.64415 0.0
O163 O 0.34633 0.06295 0.65604 0.0
O164 O 0.32325 0.01723 0.67977 0.0
O165 O 0.34038 0.02247 0.6478 0.0
C166 C 0.37579 0.03401 0.69984 0.0
O167 O 0.33376 0.04591 0.7096 0.0
O168 O 0.36201 0.06672 0.70821 0.0
In169 In 0.98408 0.31877 0.68526 0.0
O170 O 0.97675 0.34182 0.68712 0.0
O171 O 0.99794 0.34365 0.7109 0.0
C172 C 0.96451 0.30484 0.64239 0.0
C173 C 0.96728 0.2968 0.72534 0.0
C174 C 0.01623 0.32218 0.66874 0.0
O175 O 0.97746 0.32136 0.64409 0.0
O176 O 0.96097 0.29576 0.66253 0.0
O177 O 1.00203 0.30669 0.67256 0.0
O178 O 0.01438 0.33578 0.67418 0.0
C179 C 0.98857 0.35081 0.70395 0.0
O180 O 0.98413 0.30292 0.72047 0.0
O181 O 0.95905 0.30164 0.70997 0.0
In182 In 0.7062 0.6753 0.68167 0.0
O183 O 0.70858 0.70376 0.67988 0.0
O184 O 0.69409 0.68457 0.65064 0.0
C185 C 0.72537 0.68016 0.72463 0.0
C186 C 0.72715 0.67247 0.64506 0.0
C187 C 0.67286 0.64916 0.69892 0.0
O188 O 0.72495 0.69336 0.71375 0.0
O189 O 0.71634 0.66481 0.71371 0.0
O190 O 0.68435 0.64525 0.68965 0.0
O191 O 0.67789 0.66608 0.69867 0.0
C192 C 0.69981 0.70054 0.65936 0.0
O193 O 0.70996 0.66149 0.64651 0.0
O194 O 0.73359 0.68435 0.66232 0.0
In195 In 0.34653 0.31536 0.68295 0.0
O196 O 0.36476 0.31738 0.64923 0.0
O197 O 0.3381 0.29382 0.65204 0.0
C198 C 0.37587 0.34647 0.70085 0.0
C199 C 0.31748 0.31855 0.66768 0.0
C200 C 0.34063 0.29432 0.72447 0.0
O201 O 0.3764 0.332 0.69599 0.0
O202 O 0.36075 0.34557 0.69552 0.0
O203 O 0.33803 0.30789 0.72416 0.0
O204 O 0.34551 0.29098 0.70364 0.0
C205 C 0.3529 0.3022 0.63975 0.0
O206 O 0.31566 0.30471 0.67958 0.0
O207 O 0.33398 0.33118 0.66437 0.0
In208 In 0.70915 0.04098 0.68579 0.0
O209 O 0.71127 0.05751 0.6504 0.0
O210 O 0.73421 0.05451 0.66027 0.0
C211 C 0.6765 0.03356 0.70579 0.0
C212 C 0.70158 0.00779 0.66772 0.0
C213 C 0.73065 0.06186 0.72414 0.0
O214 O 0.68412 0.04518 0.68826 0.0
O215 O 0.68526 0.02572 0.71276 0.0
O216 O 0.72647 0.04522 0.7214 0.0
O217 O 0.72418 0.06774 0.70747 0.0
C218 C 0.72743 0.06104 0.64502 0.0
O219 O 0.71454 0.01671 0.68322 0.0
O220 O 0.69252 0.01554 0.66185 0.0
In221 In 0.98215 0.6794 0.68206 0.0
O222 O 0.97337 0.65034 0.69666 0.0
O223 O 1.00193 0.67011 0.69621 0.0
C224 C 0.96039 0.67076 0.64081 0.0
C225 C 0.96639 0.68498 0.72303 0.0
C226 C 0.01256 0.70865 0.6623 0.0
O227 O 0.96887 0.66237 0.64651 0.0
O228 O 0.96263 0.68319 0.65611 0.0
O229 O 1.00222 0.71054 0.67786 0.0
O230 O 0.00762 0.69213 0.65715 0.0
C231 C 0.98958 0.65388 0.70135 0.0
O232 O 0.98367 0.6934 0.71984 0.0
O233 O 0.95728 0.67407 0.70549 0.0
H234 H 0.27934 0.39426 0.17983 0.0
N235 N 0.25226 0.37278 0.14869 0.0
H236 H 0.28753 0.38569 0.21982 0.0
H237 H 0.23414 0.33873 0.17077 0.0
H238 H 0.24211 0.33002 0.21102 0.0
H239 H 0.2472 0.34038 0.12898 0.0
H240 H 0.26743 0.33723 0.09871 0.0
H241 H 0.27927 0.39949 0.12214 0.0
H242 H 0.30005 0.39653 0.09259 0.0
H243 H 0.23612 0.38666 0.177 0.0
H244 H 0.22577 0.35069 0.11346 0.0
H245 H 0.20455 0.38048 0.175 0.0
H246 H 0.19464 0.34547 0.11024 0.0
H247 H 0.12205 0.37467 0.16852 0.0
H248 H 0.10804 0.37314 0.20946 0.0
H249 H 0.09108 0.31539 0.21506 0.0
H250 H 0.10477 0.31695 0.17368 0.0
H251 H 0.09009 0.32459 0.11863 0.0
H252 H 0.0743 0.33401 0.08855 0.0
H253 H 0.11955 0.39014 0.09258 0.0
H254 H 0.13486 0.38077 0.1233 0.0
H255 H 0.15178 0.37866 0.15598 0.0
H256 H 0.18369 0.38582 0.1543 0.0
H257 H 0.16555 0.33041 0.1282 0.0
N258 N 0.1212 0.34585 0.14313 0.0
H259 H 0.13371 0.32401 0.12803 0.0
C260 C 0.25622 0.36719 0.17243 0.0
C261 C 0.27117 0.38024 0.1866 0.0
C262 C 0.27576 0.37532 0.2094 0.0
C263 C 0.26549 0.35717 0.21847 0.0
C264 C 0.25042 0.34403 0.20429 0.0
C265 C 0.24581 0.349 0.18141 0.0
C266 C 0.26171 0.37024 0.12772 0.0
C267 C 0.25842 0.35268 0.12065 0.0
C268 C 0.27014 0.35091 0.10355 0.0
C269 C 0.2856 0.36665 0.09367 0.0
C270 C 0.28825 0.38413 0.09979 0.0
C271 C 0.2764 0.38587 0.11664 0.0
C272 C 0.23352 0.3691 0.14571 0.0
C273 C 0.2271 0.37757 0.16243 0.0
C274 C 0.20902 0.37417 0.16103 0.0
C275 C 0.19686 0.36249 0.14236 0.0
C276 C 0.20339 0.35426 0.12521 0.0
C277 C 0.22143 0.35737 0.12696 0.0
C278 C 0.1143 0.34582 0.16798 0.0
C279 C 0.11542 0.36171 0.17856 0.0
C280 C 0.10743 0.36082 0.20201 0.0
C281 C 0.09821 0.34407 0.21529 0.0
C282 C 0.09769 0.32837 0.20501 0.0
C283 C 0.10562 0.32926 0.18154 0.0
C284 C 0.11366 0.35182 0.12323 0.0
C285 C 0.09669 0.33888 0.11276 0.0
C286 C 0.08772 0.3443 0.09556 0.0
C287 C 0.09558 0.36288 0.08834 0.0
C288 C 0.11294 0.37579 0.09814 0.0
C289 C 0.12185 0.37036 0.11558 0.0
C290 C 0.14034 0.35085 0.14162 0.0
C291 C 0.15468 0.36821 0.14926 0.0
C292 C 0.173 0.37217 0.14871 0.0
C293 C 0.1774 0.35869 0.14124 0.0
C294 C 0.16292 0.34133 0.13358 0.0
C295 C 0.14465 0.33755 0.13363 0.0
H296 H 0.71528 0.78339 0.15974 0.0
N297 N 0.69063 0.79197 0.14312 0.0
H298 H 0.71577 0.76996 0.2004 0.0
H299 H 0.66786 0.78674 0.18372 0.0
H300 H 0.66897 0.77446 0.22456 0.0
H301 H 0.65707 0.76029 0.14719 0.0
H302 H 0.64602 0.73287 0.12067 0.0
H303 H 0.7048 0.78955 0.09953 0.0
H304 H 0.69363 0.76213 0.0727 0.0
H305 H 0.7149 0.82751 0.13712 0.0
H306 H 0.65657 0.7892 0.14284 0.0
H307 H 0.70898 0.85317 0.13528 0.0
H308 H 0.65047 0.81464 0.14309 0.0
H309 H 0.69584 0.92426 0.16585 0.0
H310 H 0.70363 0.94133 0.20536 0.0
H311 H 0.64844 0.90471 0.23273 0.0
H312 H 0.64111 0.88706 0.19351 0.0
H313 H 0.6342 0.89767 0.13744 0.0
H314 H 0.63453 0.91888 0.10546 0.0
H315 H 0.69176 0.93721 0.08983 0.0
H316 H 0.69125 0.9158 0.12188 0.0
H317 H 0.6949 0.89527 0.16548 0.0
H318 H 0.70132 0.87041 0.16054 0.0
H319 H 0.64899 0.83795 0.12251 0.0
N320 N 0.66241 0.8944 0.15321 0.0
H321 H 0.64204 0.86259 0.12948 0.0
C322 C 0.69178 0.78637 0.16851 0.0
C323 C 0.70533 0.78175 0.17399 0.0
C324 C 0.70566 0.7742 0.19731 0.0
C325 C 0.69254 0.77135 0.21589 0.0
C326 C 0.67924 0.77642 0.21063 0.0
C327 C 0.67872 0.78368 0.18718 0.0
C328 C 0.68194 0.77694 0.12544 0.0
C329 C 0.66495 0.76099 0.13069 0.0
C330 C 0.65866 0.74532 0.11558 0.0
C331 C 0.66911 0.74541 0.09487 0.0
C332 C 0.68533 0.76177 0.08855 0.0
C333 C 0.69171 0.77738 0.10382 0.0
C334 C 0.68629 0.80651 0.14046 0.0
C335 C 0.7008 0.82468 0.13807 0.0
C336 C 0.69735 0.83934 0.13731 0.0
C337 C 0.67922 0.83617 0.13946 0.0
C338 C 0.6646 0.81778 0.14107 0.0
C339 C 0.66807 0.80311 0.14121 0.0
C340 C 0.66786 0.90421 0.17682 0.0
C341 C 0.68548 0.91973 0.18044 0.0
C342 C 0.68986 0.92965 0.20297 0.0
C343 C 0.67657 0.92458 0.22208 0.0
C344 C 0.65905 0.90892 0.21848 0.0
C345 C 0.6548 0.89884 0.19611 0.0
C346 C 0.66267 0.9053 0.13212 0.0
C347 C 0.64669 0.90604 0.12678 0.0
C348 C 0.64691 0.91811 0.10852 0.0
C349 C 0.66322 0.92979 0.09538 0.0
C350 C 0.67908 0.92852 0.09997 0.0
C351 C 0.6788 0.9163 0.11818 0.0
C352 C 0.66768 0.88072 0.14833 0.0
C353 C 0.68469 0.88287 0.15618 0.0
C354 C 0.68849 0.86855 0.153 0.0
C355 C 0.67565 0.85191 0.14126 0.0
C356 C 0.65906 0.85025 0.13227 0.0
C357 C 0.65511 0.86442 0.13598 0.0
H358 H 0.13062 0.77846 0.18135 0.0
N359 N 0.11769 0.79482 0.14902 0.0
H360 H 0.11707 0.76421 0.2217 0.0
H361 H 0.09008 0.79532 0.17278 0.0
H362 H 0.077 0.78199 0.21397 0.0
H363 H 0.09647 0.79477 0.11187 0.0
H364 H 0.07893 0.77001 0.08135 0.0
H365 H 0.12014 0.76358 0.14233 0.0
H366 H 0.1029 0.73911 0.11196 0.0
H367 H 0.14787 0.79089 0.13929 0.0
H368 H 0.13096 0.83064 0.15513 0.0
H369 H 0.17995 0.81539 0.13817 0.0
H370 H 0.16323 0.8553 0.15519 0.0
H371 H 0.2775 0.89865 0.18378 0.0
H372 H 0.28806 0.91575 0.22334 0.0
H373 H 0.24482 0.92941 0.21835 0.0
H374 H 0.23464 0.9126 0.17839 0.0
H375 H 0.25032 0.92587 0.13749 0.0
H376 H 0.2708 0.94738 0.10558 0.0
H377 H 0.29409 0.91237 0.09265 0.0
H378 H 0.27309 0.89059 0.12407 0.0
H379 H 0.236 0.86011 0.16799 0.0
H380 H 0.2038 0.83551 0.16549 0.0
H381 H 0.18973 0.87336 0.13036 0.0
N382 N 0.2504 0.89502 0.15427 0.0
H383 H 0.22176 0.89797 0.13402 0.0
C384 C 0.11122 0.78785 0.17397 0.0
C385 C 0.11895 0.77932 0.18831 0.0
C386 C 0.11132 0.77138 0.21159 0.0
C387 C 0.09605 0.77213 0.22122 0.0
C388 C 0.08868 0.78108 0.20704 0.0
C389 C 0.09617 0.7888 0.18364 0.0
C390 C 0.10978 0.78124 0.12923 0.0
C391 C 0.09824 0.78283 0.11157 0.0
C392 C 0.0882 0.76869 0.09428 0.0
C393 C 0.08969 0.75273 0.0942 0.0
C394 C 0.10177 0.75141 0.11128 0.0
C395 C 0.11166 0.76547 0.12872 0.0
C396 C 0.13686 0.80893 0.14704 0.0
C397 C 0.15097 0.80487 0.14243 0.0
C398 C 0.16946 0.81898 0.14205 0.0
C399 C 0.1743 0.83742 0.14664 0.0
C400 C 0.1601 0.84138 0.15111 0.0
C401 C 0.14164 0.82729 0.15124 0.0
C402 C 0.25531 0.90428 0.17825 0.0
C403 C 0.27027 0.90526 0.19134 0.0
C404 C 0.27624 0.915 0.21391 0.0
C405 C 0.26734 0.92402 0.2239 0.0
C406 C 0.25215 0.92286 0.21091 0.0
C407 C 0.24621 0.91312 0.1882 0.0
C408 C 0.26007 0.90647 0.13299 0.0
C409 C 0.25939 0.92249 0.12725 0.0
C410 C 0.27122 0.93488 0.10913 0.0
C411 C 0.28402 0.93155 0.09649 0.0
C412 C 0.28413 0.91515 0.10159 0.0
C413 C 0.27222 0.90274 0.11961 0.0
C414 C 0.23139 0.88082 0.15106 0.0
C415 C 0.22593 0.86301 0.15964 0.0
C416 C 0.20752 0.84894 0.15802 0.0
C417 C 0.19407 0.85234 0.14759 0.0
C418 C 0.19962 0.87024 0.13878 0.0
C419 C 0.21805 0.88436 0.14064 0.0
H420 H 0.3878 0.27719 0.85546 0.0
N421 N 0.36767 0.24687 0.88229 0.0
H422 H 0.37853 0.28733 0.81767 0.0
H423 H 0.33424 0.22801 0.85825 0.0
H424 H 0.3251 0.23789 0.81992 0.0
H425 H 0.33665 0.24546 0.90122 0.0
H426 H 0.33568 0.26511 0.93456 0.0
H427 H 0.39518 0.26933 0.91233 0.0
H428 H 0.39448 0.28939 0.94523 0.0
H429 H 0.38314 0.23125 0.85619 0.0
H430 H 0.34161 0.21921 0.9126 0.0
H431 H 0.37572 0.1992 0.85691 0.0
H432 H 0.33505 0.18759 0.91486 0.0
H433 H 0.36601 0.114 0.86422 0.0
H434 H 0.36806 0.10176 0.82328 0.0
H435 H 0.31331 0.09102 0.80481 0.0
H436 H 0.31113 0.10267 0.84622 0.0
H437 H 0.31689 0.07881 0.89486 0.0
H438 H 0.32521 0.06197 0.92451 0.0
H439 H 0.37252 0.11323 0.94815 0.0
H440 H 0.36493 0.12979 0.91744 0.0
H441 H 0.37012 0.14455 0.87625 0.0
H442 H 0.37813 0.17674 0.87838 0.0
H443 H 0.3211 0.1595 0.89467 0.0
N444 N 0.33584 0.11433 0.88321 0.0
H445 H 0.31367 0.12738 0.89428 0.0
C446 C 0.36186 0.2518 0.85944 0.0
C447 C 0.37412 0.26852 0.84774 0.0
C448 C 0.3688 0.27432 0.82633 0.0
C449 C 0.35115 0.26334 0.816 0.0
C450 C 0.33882 0.2465 0.82754 0.0
C451 C 0.34405 0.24084 0.84932 0.0
C452 C 0.36604 0.2559 0.90444 0.0
C453 C 0.34922 0.25464 0.91124 0.0
C454 C 0.34871 0.26594 0.93019 0.0
C455 C 0.36498 0.27875 0.94262 0.0
C456 C 0.38163 0.27939 0.93647 0.0
C457 C 0.38209 0.26802 0.91761 0.0
C458 C 0.36313 0.22784 0.88433 0.0
C459 C 0.37261 0.22174 0.86902 0.0
C460 C 0.36844 0.20339 0.86968 0.0
C461 C 0.35483 0.19063 0.88611 0.0
C462 C 0.34541 0.19682 0.90165 0.0
C463 C 0.34933 0.21513 0.90057 0.0
C464 C 0.33826 0.10899 0.85833 0.0
C465 C 0.3545 0.10911 0.85129 0.0
C466 C 0.35567 0.10215 0.82788 0.0
C467 C 0.34069 0.09508 0.81103 0.0
C468 C 0.32486 0.09586 0.81766 0.0
C469 C 0.32365 0.10267 0.84115 0.0
C470 C 0.34023 0.10555 0.90344 0.0
C471 C 0.32903 0.08643 0.90652 0.0
C472 C 0.33378 0.07683 0.92358 0.0
C473 C 0.34976 0.08617 0.93845 0.0
C474 C 0.36049 0.10548 0.93638 0.0
C475 C 0.35596 0.11506 0.91885 0.0
C476 C 0.3413 0.13355 0.88557 0.0
C477 C 0.35944 0.14774 0.88074 0.0
C478 C 0.36393 0.1662 0.88164 0.0
C479 C 0.35028 0.17093 0.8866 0.0
C480 C 0.33213 0.1566 0.89134 0.0
C481 C 0.32778 0.13817 0.89098 0.0
H482 H 0.75283 0.13021 0.85396 0.0
N483 N 0.7782 0.13215 0.88554 0.0
H484 H 0.74338 0.11386 0.81369 0.0
H485 H 0.79341 0.11346 0.86315 0.0
H486 H 0.784 0.09699 0.82278 0.0
H487 H 0.78053 0.10291 0.90434 0.0
H488 H 0.76024 0.0809 0.93574 0.0
H489 H 0.75307 0.13437 0.91327 0.0
H490 H 0.73189 0.1117 0.94379 0.0
H491 H 0.79131 0.16695 0.87226 0.0
H492 H 0.80764 0.13049 0.90566 0.0
H493 H 0.82318 0.19231 0.87427 0.0
H494 H 0.83926 0.15582 0.90897 0.0
H495 H 0.89702 0.25134 0.85713 0.0
H496 H 0.91076 0.26546 0.81678 0.0
H497 H 0.95077 0.24768 0.82538 0.0
H498 H 0.93757 0.23459 0.86661 0.0
H499 H 0.93007 0.23474 0.92791 0.0
H500 H 0.94705 0.25933 0.95881 0.0
H501 H 0.9238 0.2905 0.92681 0.0
H502 H 0.90695 0.26607 0.89621 0.0
H503 H 0.87909 0.2382 0.899 0.0
H504 H 0.84722 0.21316 0.90052 0.0
H505 H 0.86519 0.17415 0.88381 0.0
N506 N 0.90972 0.23499 0.88981 0.0
H507 H 0.8972 0.19932 0.88361 0.0
C508 C 0.77379 0.12311 0.86143 0.0
C509 C 0.75979 0.12314 0.84711 0.0
C510 C 0.75449 0.11387 0.82414 0.0
C511 C 0.76313 0.10436 0.81501 0.0
C512 C 0.77715 0.10425 0.8294 0.0
C513 C 0.78254 0.11365 0.85241 0.0
C514 C 0.76844 0.12047 0.9066 0.0
C515 C 0.77042 0.10535 0.91341 0.0
C516 C 0.75857 0.09256 0.93112 0.0
C517 C 0.74418 0.09433 0.94183 0.0
C518 C 0.74285 0.10996 0.93594 0.0
C519 C 0.7549 0.1229 0.91851 0.0
C520 C 0.79696 0.14687 0.88896 0.0
C521 C 0.80174 0.16452 0.88046 0.0
C522 C 0.81997 0.17902 0.88178 0.0
C523 C 0.83391 0.17621 0.89186 0.0
C524 C 0.829 0.1585 0.90075 0.0
C525 C 0.81077 0.14394 0.89913 0.0
C526 C 0.91642 0.24204 0.86496 0.0
C527 C 0.90876 0.25051 0.85038 0.0
C528 C 0.91649 0.25835 0.82709 0.0
C529 C 0.93176 0.25752 0.81766 0.0
C530 C 0.9391 0.24867 0.83213 0.0
C531 C 0.93153 0.24109 0.85557 0.0
C532 C 0.9172 0.24843 0.90978 0.0
C533 C 0.92831 0.24669 0.928 0.0
C534 C 0.93801 0.26072 0.94554 0.0
C535 C 0.93664 0.27675 0.94528 0.0
C536 C 0.92483 0.27814 0.92777 0.0
C537 C 0.91523 0.26415 0.91013 0.0
C538 C 0.89065 0.22061 0.89149 0.0
C539 C 0.87628 0.22429 0.896 0.0
C540 C 0.85793 0.20988 0.89662 0.0
C541 C 0.85351 0.19153 0.89232 0.0
C542 C 0.86799 0.18799 0.88774 0.0
C543 C 0.88631 0.20236 0.88743 0.0
H544 H 0.78402 0.71874 0.86683 0.0
N545 N 0.79429 0.69632 0.88696 0.0
H546 H 0.76748 0.71474 0.82722 0.0
H547 H 0.78587 0.66918 0.85209 0.0
H548 H 0.77016 0.66553 0.81188 0.0
H549 H 0.76533 0.66119 0.89275 0.0
H550 H 0.74014 0.65132 0.92305 0.0
H551 H 0.79312 0.71529 0.92619 0.0
H552 H 0.76813 0.7054 0.95703 0.0
H553 H 0.82852 0.72266 0.87757 0.0
H554 H 0.79649 0.66558 0.89927 0.0
H555 H 0.85664 0.72081 0.87901 0.0
H556 H 0.82465 0.66374 0.90203 0.0
H557 H 0.93573 0.72082 0.86088 0.0
H558 H 0.94851 0.71997 0.8196 0.0
H559 H 0.91519 0.66057 0.81951 0.0
H560 H 0.90243 0.66156 0.86037 0.0
H561 H 0.90133 0.65746 0.9044 0.0
H562 H 0.9185 0.64922 0.93404 0.0
H563 H 0.95567 0.70702 0.94894 0.0
H564 H 0.93895 0.71504 0.91839 0.0
H565 H 0.9063 0.71894 0.9051 0.0
H566 H 0.87726 0.71909 0.90699 0.0
H567 H 0.84844 0.66327 0.87835 0.0
N568 N 0.91173 0.69227 0.8884 0.0
H569 H 0.87751 0.66303 0.87801 0.0
C570 C 0.78625 0.69437 0.86235 0.0
C571 C 0.78112 0.70718 0.85478 0.0
C572 C 0.77172 0.70488 0.83215 0.0
C573 C 0.76728 0.68969 0.81653 0.0
C574 C 0.77294 0.67713 0.82378 0.0
C575 C 0.78217 0.67933 0.84661 0.0
C576 C 0.78112 0.68905 0.90725 0.0
C577 C 0.76628 0.67078 0.9071 0.0
C578 C 0.75191 0.66513 0.92452 0.0
C579 C 0.75217 0.67759 0.94245 0.0
C580 C 0.76752 0.69553 0.94335 0.0
C581 C 0.78184 0.70116 0.92592 0.0
C582 C 0.81046 0.69443 0.88859 0.0
C583 C 0.82763 0.70978 0.88296 0.0
C584 C 0.84371 0.7087 0.88402 0.0
C585 C 0.84306 0.69218 0.89102 0.0
C586 C 0.82574 0.67667 0.89645 0.0
C587 C 0.80957 0.67774 0.8951 0.0
C588 C 0.91803 0.69133 0.86356 0.0
C589 C 0.93105 0.70767 0.85172 0.0
C590 C 0.93838 0.70715 0.82829 0.0
C591 C 0.9327 0.69022 0.81625 0.0
C592 C 0.91954 0.67384 0.82809 0.0
C593 C 0.91226 0.67439 0.85153 0.0
C594 C 0.91911 0.6869 0.90901 0.0
C595 C 0.91303 0.6683 0.91431 0.0
C596 C 0.92274 0.66362 0.93146 0.0
C597 C 0.93851 0.67748 0.94377 0.0
C598 C 0.94372 0.69603 0.93956 0.0
C599 C 0.93415 0.70065 0.92229 0.0
C600 C 0.89411 0.69113 0.89112 0.0
C601 C 0.89364 0.70669 0.89956 0.0
C602 C 0.87703 0.70678 0.90033 0.0
C603 C 0.86044 0.69132 0.89232 0.0
C604 C 0.86086 0.67542 0.88474 0.0
C605 C 0.87754 0.67529 0.8843 0.0
H606 H 0.77742 0.6597 0.50586 0.0
N607 N 0.79806 0.69397 0.48483 0.0
H608 H 0.76083 0.65265 0.54613 0.0
H609 H 0.79794 0.71762 0.5177 0.0
H610 H 0.78152 0.71072 0.55793 0.0
H611 H 0.80334 0.7226 0.45732 0.0
H612 H 0.78257 0.72347 0.42562 0.0
H613 H 0.76716 0.66403 0.46567 0.0
H614 H 0.74665 0.66467 0.43353 0.0
H615 H 0.79424 0.66214 0.46445 0.0
H616 H 0.83336 0.71455 0.49678 0.0
H617 H 0.81858 0.65454 0.45931 0.0
H618 H 0.85773 0.7068 0.49282 0.0
H619 H 0.89894 0.63331 0.49787 0.0
H620 H 0.91219 0.63354 0.53909 0.0
H621 H 0.92456 0.68961 0.55066 0.0
H622 H 0.91038 0.68886 0.51027 0.0
H623 H 0.92934 0.6946 0.47409 0.0
H624 H 0.95555 0.70308 0.44631 0.0
H625 H 0.92457 0.65164 0.40654 0.0
H626 H 0.8982 0.64284 0.43492 0.0
H627 H 0.86153 0.63845 0.48256 0.0
H628 H 0.83705 0.64621 0.48327 0.0
H629 H 0.877 0.70264 0.46447 0.0
N630 N 0.89734 0.66089 0.47562 0.0
H631 H 0.90138 0.69492 0.46493 0.0
C632 C 0.78893 0.68926 0.50888 0.0
C633 C 0.77842 0.67089 0.51716 0.0
C634 C 0.76896 0.66687 0.54012 0.0
C635 C 0.77008 0.68116 0.55523 0.0
C636 C 0.78071 0.69947 0.54691 0.0
C637 C 0.79002 0.70344 0.52396 0.0
C638 C 0.78693 0.69333 0.46376 0.0
C639 C 0.79119 0.70987 0.45176 0.0
C640 C 0.77936 0.7103 0.43356 0.0
C641 C 0.76304 0.69409 0.42691 0.0
C642 C 0.75912 0.67737 0.43829 0.0
C643 C 0.77093 0.67698 0.45658 0.0
C644 C 0.81206 0.68907 0.4808 0.0
C645 C 0.80807 0.67206 0.47039 0.0
C646 C 0.82204 0.66766 0.46767 0.0
C647 C 0.84022 0.68005 0.47561 0.0
C648 C 0.84405 0.69705 0.486 0.0
C649 C 0.83013 0.70147 0.48847 0.0
C650 C 0.9038 0.66105 0.50086 0.0
C651 C 0.90431 0.64553 0.50952 0.0
C652 C 0.91209 0.64578 0.53289 0.0
C653 C 0.91984 0.66175 0.5479 0.0
C654 C 0.91873 0.67709 0.53957 0.0
C655 C 0.9107 0.67672 0.51636 0.0
C656 C 0.91171 0.66788 0.45678 0.0
C657 C 0.92789 0.6852 0.45922 0.0
C658 C 0.94291 0.69011 0.44329 0.0
C659 C 0.94196 0.67797 0.42445 0.0
C660 C 0.92549 0.66123 0.4209 0.0
C661 C 0.91049 0.65622 0.43703 0.0
C662 C 0.88326 0.66595 0.47356 0.0
C663 C 0.86492 0.65245 0.47837 0.0
C664 C 0.85094 0.65692 0.47863 0.0
C665 C 0.85498 0.67508 0.47392 0.0
C666 C 0.87337 0.68857 0.46856 0.0
C667 C 0.88739 0.68411 0.46856 0.0
H668 H 0.39075 0.12684 0.49682 0.0
N669 N 0.36309 0.12929 0.47659 0.0
H670 H 0.3913 0.11345 0.53752 0.0
H671 H 0.33602 0.11676 0.5123 0.0
H672 H 0.33582 0.10206 0.55228 0.0
H673 H 0.32714 0.10128 0.47347 0.0
H674 H 0.31566 0.07412 0.44637 0.0
H675 H 0.38014 0.12537 0.43689 0.0
H676 H 0.36847 0.09833 0.40919 0.0
H677 H 0.38817 0.16246 0.49243 0.0
H678 H 0.3342 0.13305 0.45852 0.0
H679 H 0.38694 0.19076 0.4916 0.0
H680 H 0.33339 0.16167 0.4557 0.0
H681 H 0.38365 0.28282 0.48963 0.0
H682 H 0.38259 0.29651 0.52978 0.0
H683 H 0.33954 0.24317 0.55532 0.0
H684 H 0.33984 0.22994 0.51483 0.0
H685 H 0.32721 0.24369 0.4762 0.0
H686 H 0.31503 0.25811 0.44775 0.0
H687 H 0.36327 0.27757 0.40082 0.0
H688 H 0.3757 0.26366 0.42979 0.0
H689 H 0.39008 0.2429 0.46739 0.0
H690 H 0.38969 0.21368 0.46572 0.0
H691 H 0.33045 0.18453 0.47622 0.0
N692 N 0.3619 0.24834 0.47419 0.0
H693 H 0.33102 0.214 0.47561 0.0
C694 C 0.36327 0.12243 0.50139 0.0
C695 C 0.37881 0.12159 0.50902 0.0
C696 C 0.37899 0.11373 0.53211 0.0
C697 C 0.36337 0.10614 0.54783 0.0
C698 C 0.34802 0.10766 0.54056 0.0
C699 C 0.34802 0.11588 0.51761 0.0
C700 C 0.35465 0.1153 0.45741 0.0
C701 C 0.33619 0.10097 0.45924 0.0
C702 C 0.3296 0.08547 0.44371 0.0
C703 C 0.34126 0.08416 0.4259 0.0
C704 C 0.35922 0.0991 0.42272 0.0
C705 C 0.36587 0.1145 0.43847 0.0
C706 C 0.36145 0.14562 0.47541 0.0
C707 C 0.37612 0.16219 0.48451 0.0
C708 C 0.37545 0.17846 0.48369 0.0
C709 C 0.36021 0.17878 0.47309 0.0
C710 C 0.34533 0.16206 0.46416 0.0
C711 C 0.34585 0.1456 0.46555 0.0
C712 C 0.3621 0.25532 0.49914 0.0
C713 C 0.37417 0.27407 0.50406 0.0
C714 C 0.37363 0.28183 0.52711 0.0
C715 C 0.36116 0.27089 0.54599 0.0
C716 C 0.34928 0.25201 0.54119 0.0
C717 C 0.34959 0.24434 0.51797 0.0
C718 C 0.35253 0.25289 0.45523 0.0
C719 C 0.33497 0.25069 0.45951 0.0
C720 C 0.32801 0.25889 0.44327 0.0
C721 C 0.33825 0.26892 0.42218 0.0
C722 C 0.35505 0.26975 0.41682 0.0
C723 C 0.36216 0.26186 0.43332 0.0
C724 C 0.36072 0.23064 0.47217 0.0
C725 C 0.37703 0.23015 0.4691 0.0
C726 C 0.37674 0.21337 0.46847 0.0
C727 C 0.36008 0.19655 0.47154 0.0
C728 C 0.34356 0.19708 0.47376 0.0
C729 C 0.34386 0.21395 0.47373 0.0
H730 H 0.78694 0.09578 0.5027 0.0
N731 N 0.78595 0.12517 0.48223 0.0
H732 H 0.77374 0.08109 0.54311 0.0
H733 H 0.7707 0.13625 0.51674 0.0
H734 H 0.7577 0.12179 0.55751 0.0
H735 H 0.7522 0.11303 0.46497 0.0
H736 H 0.73501 0.08821 0.43503 0.0
H737 H 0.80015 0.10747 0.45385 0.0
H738 H 0.78344 0.08349 0.42262 0.0
H739 H 0.81651 0.12197 0.49092 0.0
H740 H 0.79862 0.16026 0.47065 0.0
H741 H 0.84854 0.14671 0.4897 0.0
H742 H 0.83059 0.1855 0.47108 0.0
H743 H 0.9479 0.23844 0.51414 0.0
H744 H 0.95818 0.25892 0.55085 0.0
H745 H 0.90881 0.2628 0.5468 0.0
H746 H 0.89877 0.24266 0.50949 0.0
H747 H 0.91498 0.25639 0.46608 0.0
H748 H 0.93541 0.2781 0.43423 0.0
H749 H 0.96348 0.24694 0.42747 0.0
H750 H 0.94242 0.22483 0.45861 0.0
H751 H 0.902 0.19731 0.51354 0.0
H752 H 0.87012 0.17213 0.51195 0.0
H753 H 0.85916 0.19989 0.45155 0.0
N754 N 0.91788 0.22804 0.48653 0.0
H755 H 0.89054 0.22541 0.45442 0.0
C756 C 0.77983 0.11718 0.50682 0.0
C757 C 0.78085 0.10171 0.51471 0.0
C758 C 0.77334 0.09336 0.53785 0.0
C759 C 0.76479 0.10038 0.55354 0.0
C760 C 0.76414 0.11606 0.54577 0.0
C761 C 0.77163 0.12438 0.52264 0.0
C762 C 0.77752 0.1124 0.46159 0.0
C763 C 0.7592 0.10688 0.45542 0.0
C764 C 0.74945 0.09276 0.43808 0.0
C765 C 0.75793 0.08405 0.42593 0.0
C766 C 0.77648 0.0899 0.43161 0.0
C767 C 0.78615 0.10382 0.44941 0.0
C768 C 0.80514 0.13923 0.48039 0.0
C769 C 0.81948 0.13571 0.48602 0.0
C770 C 0.83787 0.15002 0.48569 0.0
C771 C 0.84235 0.16828 0.4804 0.0
C772 C 0.82787 0.17166 0.47474 0.0
C773 C 0.80954 0.15727 0.47461 0.0
C774 C 0.92254 0.23886 0.50929 0.0
C775 C 0.93925 0.24361 0.52127 0.0
C776 C 0.94514 0.25537 0.54203 0.0
C777 C 0.93431 0.26247 0.55138 0.0
C778 C 0.91737 0.25747 0.5398 0.0
C779 C 0.91161 0.24592 0.51865 0.0
C780 C 0.92715 0.23891 0.4646 0.0
C781 C 0.92515 0.25392 0.45717 0.0
C782 C 0.937 0.26644 0.43921 0.0
C783 C 0.95133 0.26445 0.42878 0.0
C784 C 0.95256 0.24883 0.43512 0.0
C785 C 0.94056 0.23619 0.45287 0.0
C786 C 0.8989 0.21333 0.48421 0.0
C787 C 0.89267 0.19795 0.50001 0.0
C788 C 0.87443 0.18345 0.49886 0.0
C789 C 0.86191 0.18377 0.48147 0.0
C790 C 0.86821 0.19918 0.46547 0.0
C791 C 0.8864 0.21386 0.46697 0.0
H792 H 0.06198 0.60978 0.18285 0.0
N793 N 0.03979 0.58313 0.21397 0.0
H794 H 0.05366 0.61973 0.14415 0.0
H795 H 0.00535 0.56703 0.19268 0.0
H796 H 0.9969 0.57678 0.15373 0.0
H797 H 0.00884 0.58148 0.23392 0.0
H798 H 0.00809 0.60146 0.26664 0.0
H799 H 0.06784 0.60727 0.24191 0.0
H800 H 0.06736 0.62802 0.2739 0.0
H801 H 0.0599 0.56926 0.1966 0.0
H802 H 0.00976 0.55424 0.23711 0.0
H803 H 0.05316 0.53737 0.19864 0.0
H804 H 1.00337 0.52265 0.24046 0.0
H805 H 0.03924 0.46026 0.18896 0.0
H806 H 0.03809 0.44422 0.1498 0.0
H807 H 0.97912 0.40983 0.15764 0.0
H808 H 0.98041 0.42537 0.1975 0.0
H809 H 0.98815 0.43027 0.25714 0.0
H810 H 0.99479 0.41299 0.2887 0.0
H811 H 0.05073 0.43784 0.26127 0.0
H812 H 0.04411 0.45498 0.23013 0.0
H813 H 0.04471 0.48224 0.22445 0.0
H814 H 0.05184 0.51417 0.22478 0.0
H815 H 0.99377 0.49584 0.21665 0.0
N816 N 0.01021 0.45146 0.22066 0.0
H817 H 0.98678 0.46385 0.21767 0.0
C818 C 0.03437 0.58772 0.19056 0.0
C819 C 0.04778 0.60246 0.17648 0.0
C820 C 0.043 0.60809 0.15442 0.0
C821 C 0.02461 0.59909 0.14599 0.0
C822 C 0.01112 0.58414 0.15998 0.0
C823 C 0.01596 0.57849 0.18212 0.0
C824 C 0.03845 0.59271 0.23568 0.0
C825 C 0.0216 0.5911 0.24314 0.0
C826 C 0.02121 0.6027 0.26172 0.0
C827 C 0.03765 0.61631 0.27299 0.0
C828 C 0.05439 0.61742 0.26611 0.0
C829 C 0.05473 0.60566 0.24773 0.0
C830 C 0.03553 0.56428 0.21683 0.0
C831 C 0.04757 0.55911 0.20627 0.0
C832 C 0.04373 0.54087 0.20764 0.0
C833 C 0.02773 0.52731 0.21983 0.0
C834 C 0.0157 0.53259 0.23061 0.0
C835 C 0.01945 0.55082 0.22894 0.0
C836 C 0.00988 0.44377 0.19633 0.0
C837 C 0.02609 0.44922 0.18241 0.0
C838 C 0.02543 0.44012 0.16004 0.0
C839 C 0.00854 0.42578 0.15102 0.0
C840 C 0.99228 0.42084 0.16437 0.0
C841 C 0.993 0.42969 0.18698 0.0
C842 C 0.01556 0.44403 0.24136 0.0
C843 C 1.00197 0.43234 0.25845 0.0
C844 C 0.00575 0.42244 0.27632 0.0
C845 C 0.02331 0.42416 0.27752 0.0
C846 C 0.03718 0.43652 0.26115 0.0
C847 C 0.03336 0.44634 0.2432 0.0
C848 C 0.0151 0.47056 0.22138 0.0
C849 C 0.03348 0.48501 0.22309 0.0
C850 C 0.03756 0.50338 0.223 0.0
C851 C 0.0234 0.50773 0.22077 0.0
C852 C 0.00505 0.49315 0.21893 0.0
C853 C 1.001 0.47483 0.21932 0.0
H854 H 0.61083 0.56755 0.20273 0.0
N855 N 0.58126 0.56527 0.2245 0.0
H856 H 0.62374 0.58057 0.16144 0.0
H857 H 0.56602 0.5778 0.18995 0.0
H858 H 0.57942 0.59196 0.1492 0.0
H859 H 0.57483 0.59412 0.2287 0.0
H860 H 0.59158 0.6209 0.25632 0.0
H861 H 0.60242 0.56811 0.26351 0.0
H862 H 0.61883 0.59476 0.29173 0.0
H863 H 0.57291 0.53167 0.2108 0.0
H864 H 0.54882 0.56227 0.24172 0.0
H865 H 0.5431 0.50353 0.21228 0.0
H866 H 0.51904 0.53384 0.24522 0.0
H867 H 0.4497 0.41308 0.21215 0.0
H868 H 0.43602 0.39918 0.17155 0.0
H869 H 0.44264 0.45121 0.14663 0.0
H870 H 0.45516 0.46458 0.18758 0.0
H871 H 0.42966 0.4509 0.22547 0.0
H872 H 0.40274 0.43579 0.25339 0.0
H873 H 0.43181 0.41696 0.30073 0.0
H874 H 0.45846 0.43154 0.27227 0.0
H875 H 0.49344 0.4522 0.23684 0.0
H876 H 0.5225 0.4813 0.23868 0.0
H877 H 0.49316 0.51071 0.22483 0.0
N878 N 0.46009 0.44697 0.22797 0.0
H879 H 0.46397 0.48137 0.2254 0.0
C880 C 0.58774 0.57203 0.1995 0.0
C881 C 0.60387 0.57274 0.19098 0.0
C882 C 0.6113 0.58035 0.16754 0.0
C883 C 0.6029 0.58779 0.15233 0.0
C884 C 0.58629 0.58645 0.16053 0.0
C885 C 0.5787 0.57853 0.18388 0.0
C886 C 0.58754 0.57915 0.2439 0.0
C887 C 0.58407 0.59391 0.24271 0.0
C888 C 0.59356 0.60917 0.25855 0.0
C889 C 0.60637 0.60974 0.27608 0.0
C890 C 0.60885 0.59447 0.2785 0.0
C891 C 0.59952 0.57931 0.26245 0.0
C892 C 0.56324 0.54903 0.22638 0.0
C893 C 0.56117 0.53222 0.21829 0.0
C894 C 0.54407 0.51606 0.21946 0.0
C895 C 0.52853 0.51615 0.22939 0.0
C896 C 0.53058 0.53313 0.23732 0.0
C897 C 0.54772 0.54946 0.23558 0.0
C898 C 0.45377 0.43992 0.20293 0.0
C899 C 0.4484 0.42151 0.19776 0.0
C900 C 0.44073 0.41365 0.17447 0.0
C901 C 0.43852 0.42416 0.15562 0.0
C902 C 0.44414 0.44271 0.16072 0.0
C903 C 0.45152 0.45047 0.18417 0.0
C904 C 0.44595 0.44206 0.24668 0.0
C905 C 0.4304 0.44388 0.24214 0.0
C906 C 0.41506 0.43529 0.25808 0.0
C907 C 0.41528 0.42524 0.27913 0.0
C908 C 0.4314 0.42478 0.28476 0.0
C909 C 0.44658 0.43306 0.26856 0.0
C910 C 0.47669 0.46461 0.23036 0.0
C911 C 0.49334 0.46498 0.23447 0.0
C912 C 0.50997 0.48169 0.23519 0.0
C913 C 0.51043 0.49853 0.23115 0.0
C914 C 0.49351 0.49814 0.22801 0.0
C915 C 0.47677 0.48133 0.22797 0.0
H916 H 0.56201 0.96645 0.18673 0.0
N917 N 0.56062 0.98997 0.21868 0.0
H918 H 0.5781 0.97335 0.14623 0.0
H919 H 0.57982 0.02401 0.19654 0.0
H920 H 0.59604 0.03105 0.156 0.0
H921 H 0.59083 0.0211 0.23695 0.0
H922 H 0.61278 0.02207 0.26786 0.0
H923 H 0.55731 0.9623 0.24684 0.0
H924 H 0.57979 0.96306 0.27712 0.0
H925 H 0.52577 0.96957 0.2045 0.0
H926 H 0.56343 0.02124 0.23999 0.0
H927 H 0.50139 0.97741 0.20619 0.0
H928 H 0.53903 0.02883 0.24294 0.0
H929 H 0.44465 0.99569 0.18852 0.0
H930 H 0.43075 0.99648 0.14839 0.0
H931 H 0.45121 0.05471 0.15849 0.0
H932 H 0.46418 0.05351 0.19931 0.0
H933 H 0.46318 0.04501 0.26045 0.0
H934 H 0.4391 0.0378 0.29207 0.0
H935 H 0.40593 0.98389 0.25908 0.0
H936 H 0.42982 0.9911 0.22776 0.0
H937 H 0.45681 0.98953 0.22997 0.0
H938 H 0.48075 0.98123 0.2319 0.0
H939 H 0.52211 0.03801 0.21746 0.0
N940 N 0.46194 0.02425 0.22193 0.0
H941 H 0.49801 0.04629 0.21685 0.0
C942 C 0.56967 0.99463 0.19456 0.0
C943 C 0.56928 0.98054 0.18 0.0
C944 C 0.5784 0.98451 0.1569 0.0
C945 C 0.58813 0.00271 0.1479 0.0
C946 C 0.58862 0.01691 0.16254 0.0
C947 C 0.57936 0.01289 0.18565 0.0
C948 C 0.57226 0.99156 0.23965 0.0
C949 C 0.58793 0.00843 0.24613 0.0
C950 C 0.60065 0.00894 0.2636 0.0
C951 C 0.59822 0.99258 0.27451 0.0
C952 C 0.58204 0.97589 0.26906 0.0
C953 C 0.56921 0.97543 0.25178 0.0
C954 C 0.54639 0.99464 0.22225 0.0
C955 C 0.52866 0.98246 0.2131 0.0
C956 C 0.51471 0.98694 0.21423 0.0
C957 C 0.51815 0.00378 0.22474 0.0
C958 C 0.5359 0.01587 0.23435 0.0
C959 C 0.54991 0.01143 0.23294 0.0
C960 C 0.45518 0.02454 0.1971 0.0
C961 C 0.44605 0.00859 0.18218 0.0
C962 C 0.43824 0.0091 0.15913 0.0
C963 C 0.43954 0.02558 0.15047 0.0
C964 C 0.44944 0.04167 0.16495 0.0
C965 C 0.45703 0.04108 0.18811 0.0
C966 C 0.44847 0.01864 0.24184 0.0
C967 C 0.45086 0.03152 0.26041 0.0
C968 C 0.43711 0.02742 0.27834 0.0
C969 C 0.42074 0.01023 0.27814 0.0
C970 C 0.41857 0.9971 0.26001 0.0
C971 C 0.43227 1.00126 0.24199 0.0
C972 C 0.47564 0.01867 0.22355 0.0
C973 C 0.47099 1.00026 0.22754 0.0
C974 C 0.48478 0.99548 0.22839 0.0
C975 C 0.50347 0.00893 0.22489 0.0
C976 C 0.50798 0.02731 0.22079 0.0
C977 C 0.49421 0.03208 0.22023 0.0
H978 H 0.41147 0.9725 0.8334 0.0
N979 N 0.44451 0.99474 0.81384 0.0
H980 H 0.3993 0.97558 0.8738 0.0
H981 H 0.46335 0.02153 0.84904 0.0
H982 H 0.45163 0.02427 0.89014 0.0
H983 H 0.45068 0.02982 0.8085 0.0
H984 H 0.43611 0.04004 0.77745 0.0
H985 H 0.42512 0.97619 0.7738 0.0
H986 H 0.41088 0.98644 0.74216 0.0
H987 H 0.45319 0.97046 0.83113 0.0
H988 H 0.47682 0.02336 0.79448 0.0
H989 H 0.48304 0.97219 0.83042 0.0
H990 H 0.50647 0.02463 0.7918 0.0
H991 H 0.57416 0.97449 0.8326 0.0
H992 H 0.58948 0.97695 0.87284 0.0
H993 H 0.5897 0.02761 0.8886 0.0
H994 H 0.5756 0.02567 0.84782 0.0
H995 H 0.59377 0.03388 0.8044 0.0
H996 H 0.61947 0.04338 0.77475 0.0
H997 H 0.59369 0.98784 0.74573 0.0
H998 H 0.56826 0.97846 0.77564 0.0
H999 H 0.53264 0.96971 0.8067 0.0
H1000 H 0.50336 0.96928 0.8049 0.0
H1001 H 0.53261 0.02871 0.81247 0.0
N1002 N 0.56608 0.99856 0.81243 0.0
H1003 H 0.56187 0.02891 0.8119 0.0
C1004 C 0.43831 0.99659 0.8384 0.0
C1005 C 0.42032 0.98373 0.84585 0.0
C1006 C 0.41348 0.98543 0.86902 0.0
C1007 C 0.42463 0.99995 0.88546 0.0
C1008 C 0.44271 0.0129 0.87794 0.0
C1009 C 0.44948 0.0113 0.85455 0.0
C1010 C 0.43883 1.00215 0.79349 0.0
C1011 C 0.4423 0.0204 0.7938 0.0
C1012 C 0.43407 0.02626 0.77592 0.0
C1013 C 0.42236 0.01403 0.75734 0.0
C1014 C 0.41976 0.99612 0.75633 0.0
C1015 C 0.42793 0.99028 0.77425 0.0
C1016 C 0.46258 0.99655 0.81262 0.0
C1017 C 0.46481 0.98234 0.82259 0.0
C1018 C 0.48192 0.98331 0.82187 0.0
C1019 C 0.49729 0.9984 0.81059 0.0
C1020 C 0.49509 0.01282 0.80081 0.0
C1021 C 0.47798 0.01202 0.80208 0.0
C1022 C 0.57357 0.99974 0.83722 0.0
C1023 C 0.57747 0.98607 0.84485 0.0
C1024 C 0.58617 0.98748 0.86785 0.0
C1025 C 0.59104 0.0026 0.88384 0.0
C1026 C 0.58661 0.01604 0.87647 0.0
C1027 C 0.57822 0.01479 0.85323 0.0
C1028 C 0.57917 0.00543 0.79214 0.0
C1029 C 0.59342 0.02392 0.79114 0.0
C1030 C 0.60805 0.02933 0.77416 0.0
C1031 C 0.60857 0.01631 0.758 0.0
C1032 C 0.59368 0.99812 0.75805 0.0
C1033 C 0.57912 0.99276 0.77496 0.0
C1034 C 0.54932 0.99922 0.81002 0.0
C1035 C 0.53265 0.98262 0.8077 0.0
C1036 C 0.51591 0.98244 0.80701 0.0
C1037 C 0.5154 0.99893 0.80922 0.0
C1038 C 0.53231 0.0157 0.81069 0.0
C1039 C 0.54912 0.01586 0.81075 0.0
H1040 H 0.99355 0.57942 0.83484 0.0
N1041 N 0.02305 0.57902 0.81339 0.0
H1042 H 0.99322 0.59287 0.8755 0.0
H1043 H 0.04968 0.5927 0.84784 0.0
H1044 H 0.04932 0.60586 0.88895 0.0
H1045 H 0.04447 0.6124 0.79472 0.0
H1046 H 0.0361 0.62917 0.76507 0.0
H1047 H 0.99004 0.56485 0.78799 0.0
H1048 H 0.98188 0.58113 0.75696 0.0
H1049 H 0.99117 0.54901 0.83058 0.0
H1050 H 0.04177 0.56543 0.79043 0.0
H1051 H 0.98363 0.51697 0.82904 0.0
H1052 H 0.03391 0.53317 0.78759 0.0
H1053 H 0.9706 0.4319 0.85701 0.0
H1054 H 0.97882 0.42165 0.8955 0.0
H1055 H 0.03417 0.44275 0.86709 0.0
H1056 H 0.02543 0.45169 0.82811 0.0
H1057 H 0.01953 0.45474 0.78372 0.0
H1058 H 0.01963 0.43369 0.75185 0.0
H1059 H 0.963 0.39415 0.77001 0.0
H1060 H 0.96295 0.41539 0.8016 0.0
H1061 H 0.96779 0.45876 0.80795 0.0
H1062 H 0.97451 0.49062 0.80387 0.0
H1063 H 0.03263 0.50978 0.81356 0.0
N1064 N 0.99137 0.44704 0.81664 0.0
H1065 H 0.02584 0.47808 0.81633 0.0
C1066 C 0.02176 0.58519 0.83825 0.0
C1067 C 0.00573 0.58502 0.84658 0.0
C1068 C 0.00554 0.59269 0.86985 0.0
C1069 C 0.02134 0.60067 0.88521 0.0
C1070 C 0.03709 0.60018 0.87725 0.0
C1071 C 0.03727 0.59254 0.85395 0.0
C1072 C 0.01809 0.58733 0.79333 0.0
C1073 C 0.0309 0.6054 0.78618 0.0
C1074 C 0.02611 0.6149 0.76903 0.0
C1075 C 0.00842 0.60638 0.75813 0.0
C1076 C 0.99563 0.58808 0.76494 0.0
C1077 C 1.00035 0.57868 0.78253 0.0
C1078 C 0.01727 0.55972 0.81095 0.0
C1079 C 1.00061 0.54573 0.8212 0.0
C1080 C 0.99621 0.52729 0.82005 0.0
C1081 C 0.00822 0.52239 0.80834 0.0
C1082 C 0.02451 0.5364 0.79725 0.0
C1083 C 0.02897 0.55484 0.79864 0.0
C1084 C 0.99735 0.44273 0.83981 0.0
C1085 C 0.98451 0.43437 0.85922 0.0
C1086 C 0.98928 0.4286 0.8812 0.0
C1087 C 0.00713 0.43123 0.88434 0.0
C1088 C 0.02018 0.4401 0.8651 0.0
C1089 C 0.01528 0.44557 0.84291 0.0
C1090 C 0.99119 0.43653 0.79513 0.0
C1091 C 0.00705 0.44171 0.78054 0.0
C1092 C 0.00712 0.42963 0.76242 0.0
C1093 C 0.9914 0.41217 0.75873 0.0
C1094 C 0.97528 0.40753 0.77236 0.0
C1095 C 0.97523 0.41959 0.79041 0.0
C1096 C 0.99618 0.46595 0.8127 0.0
C1097 C 0.98198 0.46989 0.80889 0.0
C1098 C 0.98586 0.48812 0.80678 0.0
C1099 C 0.00412 0.50288 0.80863 0.0
C1100 C 0.01842 0.49884 0.81176 0.0
C1101 C 0.01452 0.48059 0.81361 0.0
H1102 H 0.46675 0.42012 0.84935 0.0
N1103 N 0.46514 0.44401 0.81813 0.0
H1104 H 0.45173 0.40979 0.89044 0.0
H1105 H 0.44439 0.45629 0.84214 0.0
H1106 H 0.42968 0.44636 0.88332 0.0
H1107 H 0.43078 0.4373 0.80461 0.0
H1108 H 0.41059 0.41484 0.77335 0.0
H1109 H 0.47465 0.42727 0.78381 0.0
H1110 H 0.45502 0.40579 0.75111 0.0
H1111 H 0.50109 0.45626 0.81798 0.0
H1112 H 0.46127 0.47385 0.80829 0.0
H1113 H 0.5262 0.48803 0.81358 0.0
H1114 H 0.48611 0.50594 0.80619 0.0
H1115 H 0.59626 0.5778 0.83469 0.0
H1116 H 0.61016 0.59079 0.87548 0.0
H1117 H 0.56611 0.60196 0.89105 0.0
H1118 H 0.55254 0.5894 0.8497 0.0
H1119 H 0.57936 0.61023 0.79606 0.0
H1120 H 0.60449 0.62602 0.76596 0.0
H1121 H 0.60652 0.5759 0.75603 0.0
H1122 H 0.58235 0.56068 0.78767 0.0
H1123 H 0.56603 0.54692 0.83629 0.0
H1124 H 0.54152 0.51505 0.83535 0.0
H1125 H 0.51033 0.52957 0.78475 0.0
N1126 N 0.56557 0.57644 0.81432 0.0
H1127 H 0.53454 0.56194 0.78755 0.0
C1128 C 0.45686 0.43904 0.84276 0.0
C1129 C 0.45882 0.42601 0.85682 0.0
C1130 C 0.45033 0.42024 0.8803 0.0
C1131 C 0.43974 0.42748 0.89025 0.0
C1132 C 0.43779 0.44058 0.87615 0.0
C1133 C 0.4463 0.44635 0.85263 0.0
C1134 C 0.45409 0.43354 0.797 0.0
C1135 C 0.43619 0.43051 0.79302 0.0
C1136 C 0.42468 0.41774 0.77496 0.0
C1137 C 0.43099 0.40805 0.76023 0.0
C1138 C 0.44946 0.41241 0.76281 0.0
C1139 C 0.46079 0.42486 0.78122 0.0
C1140 C 0.47941 0.46279 0.81404 0.0
C1141 C 0.49783 0.4671 0.81512 0.0
C1142 C 0.51215 0.48534 0.81289 0.0
C1143 C 0.50836 0.49983 0.81006 0.0
C1144 C 0.48974 0.4953 0.8082 0.0
C1145 C 0.47541 0.47694 0.80983 0.0
C1146 C 0.57341 0.58283 0.83903 0.0
C1147 C 0.58958 0.58304 0.84684 0.0
C1148 C 0.59746 0.59039 0.87023 0.0
C1149 C 0.58937 0.59764 0.88632 0.0
C1150 C 0.5729 0.59688 0.87882 0.0
C1151 C 0.56505 0.58958 0.85535 0.0
C1152 C 0.57884 0.5843 0.79409 0.0
C1153 C 0.58516 0.60264 0.78723 0.0
C1154 C 0.59949 0.6116 0.76992 0.0
C1155 C 0.60775 0.60233 0.75868 0.0
C1156 C 0.6009 0.58366 0.76481 0.0
C1157 C 0.5868 0.5748 0.78263 0.0
C1158 C 0.55198 0.55703 0.81239 0.0
C1159 C 0.5539 0.54338 0.82514 0.0
C1160 C 0.53984 0.52493 0.82426 0.0
C1161 C 0.5237 0.5195 0.81004 0.0
C1162 C 0.52224 0.53313 0.79644 0.0
C1163 C 0.53616 0.55166 0.79778 0.0
H1164 H 0.69954 0.91481 0.52546 0.0
N1165 N 0.67056 0.89931 0.55841 0.0
H1166 H 0.7005 0.9296 0.48545 0.0
H1167 H 0.64303 0.90093 0.53606 0.0
H1168 H 0.64355 0.91495 0.49533 0.0
H1169 H 0.65026 0.89893 0.597 0.0
H1170 H 0.65816 0.92349 0.628 0.0
H1171 H 0.70462 0.93028 0.56473 0.0
H1172 H 0.71249 0.95474 0.59535 0.0
H1173 H 0.70412 0.90206 0.5686 0.0
H1174 H 0.64733 0.86384 0.55011 0.0
H1175 H 0.71075 0.87695 0.56883 0.0
H1176 H 0.65399 0.83864 0.54903 0.0
H1177 H 0.72349 0.79626 0.5175 0.0
H1178 H 0.7176 0.78093 0.47654 0.0
H1179 H 0.65962 0.76278 0.48382 0.0
H1180 H 0.66567 0.77822 0.52491 0.0
H1181 H 0.6676 0.76633 0.56543 0.0
H1182 H 0.66599 0.7436 0.59559 0.0
H1183 H 0.72485 0.77633 0.60719 0.0
H1184 H 0.72625 0.79939 0.57749 0.0
H1185 H 0.72111 0.83204 0.53785 0.0
H1186 H 0.7145 0.85719 0.54135 0.0
H1187 H 0.66096 0.81923 0.57276 0.0
N1188 N 0.69913 0.79677 0.54872 0.0
H1189 H 0.66743 0.79412 0.56797 0.0
C1190 C 0.67117 0.90678 0.53376 0.0
C1191 C 0.68726 0.91473 0.51901 0.0
C1192 C 0.68772 0.92302 0.49598 0.0
C1193 C 0.67202 0.92327 0.48704 0.0
C1194 C 0.65588 0.91506 0.50172 0.0
C1195 C 0.65551 0.90695 0.52486 0.0
C1196 C 0.67676 0.91262 0.5786 0.0
C1197 C 0.66402 0.91087 0.597 0.0
C1198 C 0.66852 0.92491 0.61457 0.0
C1199 C 0.68597 0.94098 0.61415 0.0
C1200 C 0.69906 0.94237 0.59645 0.0
C1201 C 0.69451 0.92836 0.57881 0.0
C1202 C 0.67507 0.88482 0.5596 0.0
C1203 C 0.69301 0.88828 0.56466 0.0
C1204 C 0.69685 0.87383 0.56452 0.0
C1205 C 0.68293 0.85565 0.55892 0.0
C1206 C 0.66501 0.85231 0.55392 0.0
C1207 C 0.66117 0.86672 0.55434 0.0
C1208 C 0.69511 0.78844 0.52413 0.0
C1209 C 0.70957 0.78914 0.51009 0.0
C1210 C 0.70618 0.78046 0.48672 0.0
C1211 C 0.68818 0.77086 0.47689 0.0
C1212 C 0.67362 0.77012 0.49097 0.0
C1213 C 0.67706 0.77894 0.51439 0.0
C1214 C 0.69711 0.78466 0.56926 0.0
C1215 C 0.68009 0.76893 0.57492 0.0
C1216 C 0.67922 0.75579 0.59197 0.0
C1217 C 0.69536 0.75801 0.60339 0.0
C1218 C 0.71218 0.77425 0.59874 0.0
C1219 C 0.71301 0.78742 0.58181 0.0
C1220 C 0.69492 0.81126 0.5528 0.0
C1221 C 0.70801 0.82924 0.54563 0.0
C1222 C 0.70422 0.84361 0.54783 0.0
C1223 C 0.68719 0.84036 0.55746 0.0
C1224 C 0.67413 0.82228 0.56495 0.0
C1225 C 0.67788 0.80785 0.56246 0.0
H1226 H 0.27379 0.90128 0.53527 0.0
N1227 N 0.24433 0.8998 0.55646 0.0
H1228 H 0.28726 0.91415 0.4941 0.0
H1229 H 0.22987 0.9127 0.52109 0.0
H1230 H 0.24383 0.92669 0.48075 0.0
H1231 H 0.24229 0.93152 0.55729 0.0
H1232 H 0.26002 0.95811 0.58455 0.0
H1233 H 0.26353 0.90134 0.59728 0.0
H1234 H 0.28092 0.92794 0.62529 0.0
H1235 H 0.22941 0.86551 0.53959 0.0
H1236 H 0.21524 0.90245 0.57677 0.0
H1237 H 0.19706 0.84154 0.53932 0.0
H1238 H 0.18319 0.87823 0.57841 0.0
H1239 H 0.10854 0.76889 0.54016 0.0
H1240 H 0.09841 0.75147 0.50093 0.0
H1241 H 0.09517 0.7964 0.46627 0.0
H1242 H 0.10415 0.81319 0.5062 0.0
H1243 H 0.0787 0.79934 0.5621 0.0
H1244 H 0.05618 0.7785 0.593 0.0
H1245 H 0.09392 0.76015 0.61521 0.0
H1246 H 0.11619 0.78077 0.58419 0.0
H1247 H 0.13978 0.79628 0.55596 0.0
H1248 H 0.17204 0.81989 0.56116 0.0
H1249 H 0.15686 0.86207 0.55505 0.0
N1250 N 0.11061 0.80202 0.54976 0.0
H1251 H 0.12449 0.83814 0.5522 0.0
C1252 C 0.25095 0.90611 0.53128 0.0
C1253 C 0.26704 0.9065 0.52317 0.0
C1254 C 0.27476 0.91397 0.49976 0.0
C1255 C 0.26661 0.92141 0.48404 0.0
C1256 C 0.25025 0.9207 0.49204 0.0
C1257 C 0.24237 0.91292 0.51529 0.0
C1258 C 0.25179 0.91441 0.57498 0.0
C1259 C 0.2505 0.93044 0.57214 0.0
C1260 C 0.26056 0.94564 0.58781 0.0
C1261 C 0.2718 0.94501 0.6069 0.0
C1262 C 0.2722 0.92866 0.6108 0.0
C1263 C 0.26232 0.91351 0.59486 0.0
C1264 C 0.22499 0.88585 0.5581 0.0
C1265 C 0.21935 0.86835 0.54806 0.0
C1266 C 0.20078 0.85456 0.54821 0.0
C1267 C 0.18728 0.85774 0.55897 0.0
C1268 C 0.19301 0.87524 0.5695 0.0
C1269 C 0.21157 0.8892 0.56879 0.0
C1270 C 0.10673 0.79224 0.52621 0.0
C1271 C 0.10569 0.77501 0.52415 0.0
C1272 C 0.10013 0.76515 0.50152 0.0
C1273 C 0.09599 0.77253 0.48038 0.0
C1274 C 0.098 0.79019 0.48226 0.0
C1275 C 0.10322 0.79986 0.50497 0.0
C1276 C 0.09915 0.79174 0.57077 0.0
C1277 C 0.08226 0.79114 0.57408 0.0
C1278 C 0.06946 0.7793 0.5918 0.0
C1279 C 0.07334 0.76778 0.60664 0.0
C1280 C 0.09057 0.76888 0.60401 0.0
C1281 C 0.10338 0.78076 0.5863 0.0
C1282 C 0.12967 0.81548 0.55435 0.0
C1283 C 0.14335 0.81058 0.55663 0.0
C1284 C 0.16193 0.82422 0.55906 0.0
C1285 C 0.16732 0.8431 0.55843 0.0
C1286 C 0.15344 0.84782 0.55623 0.0
C1287 C 0.13486 0.83416 0.55441 0.0
H1288 H 0.23101 0.29872 0.52161 0.0
N1289 N 0.22516 0.32079 0.5512 0.0
H1290 H 0.24765 0.30643 0.48151 0.0
H1291 H 0.24051 0.35407 0.52714 0.0
H1292 H 0.25687 0.36183 0.48669 0.0
H1293 H 0.26044 0.34875 0.56144 0.0
H1294 H 0.28101 0.34801 0.59303 0.0
H1295 H 0.21575 0.29765 0.59001 0.0
H1296 H 0.23584 0.2978 0.62356 0.0
H1297 H 0.19317 0.30499 0.5271 0.0
H1298 H 0.22494 0.34725 0.58158 0.0
H1299 H 0.16879 0.31255 0.52926 0.0
H1300 H 0.19983 0.35382 0.58588 0.0
H1301 H 0.09548 0.32264 0.53454 0.0
H1302 H 0.08293 0.3222 0.4928 0.0
H1303 H 0.12468 0.37925 0.4821 0.0
H1304 H 0.13702 0.37964 0.52415 0.0
H1305 H 0.11242 0.37374 0.57582 0.0
H1306 H 0.08696 0.3654 0.60513 0.0
H1307 H 0.08058 0.31128 0.6137 0.0
H1308 H 0.10523 0.31931 0.58357 0.0
H1309 H 0.12055 0.31833 0.54855 0.0
H1310 H 0.14462 0.3104 0.55055 0.0
H1311 H 0.18442 0.36713 0.56871 0.0
N1312 N 0.12437 0.35231 0.5574 0.0
H1313 H 0.15959 0.37431 0.56929 0.0
C1314 C 0.23449 0.32575 0.52723 0.0
C1315 C 0.23659 0.31249 0.51401 0.0
C1316 C 0.24603 0.31691 0.49114 0.0
C1317 C 0.25363 0.33476 0.48104 0.0
C1318 C 0.2514 0.34805 0.4942 0.0
C1319 C 0.24193 0.34361 0.51715 0.0
C1320 C 0.23663 0.32279 0.57269 0.0
C1321 C 0.25491 0.3375 0.57478 0.0
C1322 C 0.26668 0.33717 0.59316 0.0
C1323 C 0.26032 0.32247 0.61039 0.0
C1324 C 0.24151 0.30884 0.60986 0.0
C1325 C 0.22989 0.30887 0.59096 0.0
C1326 C 0.21078 0.32535 0.55427 0.0
C1327 C 0.19467 0.31569 0.53995 0.0
C1328 C 0.1806 0.31993 0.5415 0.0
C1329 C 0.18199 0.33369 0.55806 0.0
C1330 C 0.1982 0.34332 0.57263 0.0
C1331 C 0.21257 0.33941 0.57047 0.0
C1332 C 0.11725 0.35123 0.53238 0.0
C1333 C 0.10208 0.33498 0.52311 0.0
C1334 C 0.09497 0.33472 0.4992 0.0
C1335 C 0.10294 0.35066 0.4841 0.0
C1336 C 0.11824 0.3668 0.49334 0.0
C1337 C 0.12534 0.36703 0.51723 0.0
C1338 C 0.11092 0.34733 0.57731 0.0
C1339 C 0.10564 0.36014 0.58423 0.0
C1340 C 0.09111 0.35534 0.60103 0.0
C1341 C 0.08154 0.33756 0.61154 0.0
C1342 C 0.08731 0.32492 0.60544 0.0
C1343 C 0.1017 0.32965 0.5883 0.0
C1344 C 0.13816 0.34687 0.55951 0.0
C1345 C 0.13431 0.32893 0.5538 0.0
C1346 C 0.14833 0.32452 0.5544 0.0
C1347 C 0.16675 0.33811 0.55956 0.0
C1348 C 0.17049 0.35609 0.56519 0.0
C1349 C 0.15631 0.36032 0.56536 0.0
C1350 C 0.99978 0.40903 0.08347 0.0
C1351 C 0.00717 0.39723 0.08258 0.0
C1352 C 0.99991 0.41795 0.10587 0.0
C1353 C 0.0079 0.41574 0.12786 0.0
H1354 H 0.99392 0.41143 0.06671 0.0
H1355 H 0.9941 0.42694 0.10587 0.0
S1356 S 0.02952 0.38684 0.13531 0.0
N1357 N 0.02269 0.38386 0.10566 0.0
N1358 N 0.0234 0.40109 0.14754 0.0
C1359 C 0.01534 0.40403 0.12725 0.0
C1360 C 0.01484 0.39463 0.10464 0.0
C1361 C 0.609 0.60309 0.08374 0.0
C1362 C 0.62802 0.61583 0.0821 0.0
C1363 C 0.601 0.59392 0.10639 0.0
C1364 C 0.61168 0.59732 0.12831 0.0
H1365 H 0.60023 0.60016 0.06739 0.0
H1366 H 0.58633 0.58407 0.1067 0.0
S1367 S 0.66183 0.63078 0.13444 0.0
N1368 N 0.65719 0.63199 0.10455 0.0
N1369 N 0.64211 0.61529 0.14722 0.0
C1370 C 0.63069 0.61026 0.12695 0.0
C1371 C 0.63886 0.61938 0.10384 0.0
C1372 C 0.42208 0.01617 0.08286 0.0
C1373 C 0.41113 0.02451 0.08134 0.0
C1374 C 0.43147 0.01685 0.10508 0.0
C1375 C 0.43019 0.02582 0.12672 0.0
H1376 H 0.4233 0.00888 0.06682 0.0
H1377 H 0.43973 0.01024 0.10532 0.0
S1378 S 0.4027 0.0492 0.13292 0.0
N1379 N 0.39942 0.04188 0.10353 0.0
N1380 N 0.41663 0.04276 0.1454 0.0
C1381 C 0.41934 0.03429 0.12542 0.0
C1382 C 0.40992 0.03373 0.10272 0.0
C1383 C 0.41229 0.02167 0.93931 0.0
C1384 C 0.40137 0.00661 0.95514 0.0
C1385 C 0.41993 0.01943 0.91707 0.0
C1386 C 0.4171 1.00205 0.90984 0.0
H1387 H 0.41466 0.03529 0.94384 0.0
H1388 H 0.42779 0.03136 0.90516 0.0
S1389 S 0.39106 0.9585 0.946 0.0
N1390 N 0.3889 0.97389 0.96276 0.0
N1391 N 0.4037 0.96974 0.92133 0.0
C1392 C 0.40664 0.98696 0.9259 0.0
C1393 C 0.39869 0.98922 0.94844 0.0
C1394 C 0.00808 0.41871 0.95287 0.0
C1395 C 0.01718 0.40848 0.95205 0.0
C1396 C 0.00556 0.4266 0.93108 0.0
C1397 C 0.01177 0.42432 0.90748 0.0
H1398 H 1.00257 0.42041 0.97047 0.0
H1399 H 0.99839 0.43429 0.93271 0.0
S1400 S 0.03628 0.39847 0.89525 0.0
N1401 N 0.03276 0.39673 0.92594 0.0
N1402 N 0.02744 0.41091 0.88472 0.0
C1403 C 0.02126 0.41441 0.9065 0.0
C1404 C 0.0241 0.40664 0.92884 0.0
C1405 C 0.61421 0.60541 0.94892 0.0
C1406 C 0.61779 0.62305 0.95621 0.0
C1407 C 0.60471 0.59717 0.92661 0.0
C1408 C 0.59838 0.60622 0.91066 0.0
H1409 H 0.61899 0.59795 0.96038 0.0
H1410 H 0.60239 0.58363 0.92173 0.0
S1411 S 0.60429 0.65266 0.92089 0.0
N1412 N 0.61411 0.64926 0.94566 0.0
N1413 N 0.59649 0.63387 0.90357 0.0
C1414 C 0.60162 0.62375 0.91785 0.0
C1415 C 0.61127 0.63214 0.94064 0.0
C1416 C 0.00613 0.60973 0.94836 0.0
C1417 C 0.02013 0.62779 0.95424 0.0
C1418 C 0.00675 0.60098 0.92622 0.0
C1419 C 0.02144 0.60991 0.90911 0.0
H1420 H 0.99445 0.60231 0.96084 0.0
H1421 H 0.99563 0.58711 0.92244 0.0
S1422 S 0.06143 0.65732 0.91532 0.0
N1423 N 0.04914 0.65431 0.94099 0.0
N1424 N 0.05018 0.63791 0.89928 0.0
C1425 C 0.03562 0.62789 0.91481 0.0
C1426 C 0.03499 0.63682 0.93737 0.0
C1427 C 0.40155 0.40703 0.93931 0.0
C1428 C 0.41044 0.40492 0.96047 0.0
C1429 C 0.41122 0.41482 0.91691 0.0
C1430 C 0.43016 0.42079 0.91481 0.0
H1431 H 0.38687 0.40209 0.93976 0.0
H1432 H 0.40368 0.41558 0.90084 0.0
S1433 S 0.46036 0.42046 0.9656 0.0
N1434 N 0.43965 0.41087 0.97847 0.0
N1435 N 0.45778 0.42564 0.93648 0.0
C1436 C 0.43937 0.41952 0.93614 0.0
C1437 C 0.42954 0.41158 0.95893 0.0
C1438 C 0.60509 0.99019 0.94576 0.0
C1439 C 0.62024 0.00702 0.95351 0.0
C1440 C 0.59557 0.98894 0.92344 0.0
C1441 C 0.60102 0.00443 0.90784 0.0
H1442 H 0.60044 0.97791 0.95713 0.0
H1443 H 0.5838 0.97574 0.91843 0.0
S1444 S 0.64098 0.05134 0.91875 0.0
N1445 N 0.64077 0.03933 0.94349 0.0
N1446 N 0.6234 0.03688 0.90112 0.0
C1447 C 0.61639 0.02128 0.91526 0.0
C1448 C 0.62587 0.0226 0.93817 0.0
C1449 C 0.62705 0.0222 0.09995 0.0
C1450 C 0.61848 0.01162 0.07834 0.0
C1451 C 0.617 0.01981 0.12216 0.0
C1452 C 0.59805 0.00674 0.12352 0.0
H1453 H 0.64176 0.03189 0.10005 0.0
H1454 H 0.62426 0.0277 0.13868 0.0
S1455 S 0.56859 0.97743 0.07132 0.0
N1456 N 0.5895 0.98887 0.05909 0.0
N1457 N 0.57074 0.9845 0.10076 0.0
C1458 C 0.58915 0.99681 0.1017 0.0
C1459 C 0.59932 0.99923 0.07913 0.0
C1460 C 0.02791 0.61683 0.07945 0.0
C1461 C 0.01415 0.62177 0.07864 0.0
C1462 C 0.0307 0.60891 0.10096 0.0
C1463 C 0.01984 0.60555 0.12262 0.0
H1464 H 0.03697 0.61951 0.0635 0.0
H1465 H 0.04171 0.60569 0.1008 0.0
S1466 S 0.98149 0.61525 0.1301 0.0
N1467 N 0.98902 0.62205 0.10116 0.0
N1468 N 0.99441 0.60728 0.14177 0.0
C1469 C 0.00558 0.60978 0.12184 0.0
C1470 C 1.0027 0.61787 0.09983 0.0
C1471 C 0.40669 0.41092 0.09881 0.0
C1472 C 0.41039 0.39863 0.08554 0.0
C1473 C 0.41593 0.41915 0.12127 0.0
C1474 C 0.42942 0.41561 0.13125 0.0
H1475 H 0.39628 0.41394 0.0921 0.0
H1476 H 0.41218 0.42809 0.13113 0.0
S1477 S 0.4454 0.38573 0.10241 0.0
N1478 N 0.42902 0.38392 0.08329 0.0
N1479 N 0.44686 0.39987 0.12507 0.0
C1480 C 0.43358 0.40368 0.11779 0.0
C1481 C 0.42397 0.3951 0.09505 0.0
C1482 C 0.66989 0.73247 0.42818 0.0
C1483 C 0.68125 0.74117 0.40722 0.0
C1484 C 0.67162 0.74233 0.45037 0.0
C1485 C 0.68476 0.76121 0.45235 0.0
H1486 H 0.66013 0.71779 0.42784 0.0
H1487 H 0.66317 0.73494 0.46644 0.0
S1488 S 0.71587 0.791 0.4017 0.0
N1489 N 0.70474 0.77022 0.38908 0.0
N1490 N 0.70784 0.78864 0.43064 0.0
C1491 C 0.69542 0.77027 0.43107 0.0
C1492 C 0.69369 0.76028 0.40855 0.0
C1493 C 0.30405 0.95281 0.43794 0.0
C1494 C 0.29417 0.95102 0.41574 0.0
C1495 C 0.29505 0.94302 0.45975 0.0
C1496 C 0.27583 0.93087 0.46015 0.0
H1497 H 0.3188 0.96225 0.43872 0.0
H1498 H 0.3032 0.94538 0.47661 0.0
S1499 S 0.24397 0.91979 0.40597 0.0
N1500 N 0.26431 0.93543 0.39492 0.0
N1501 N 0.24746 0.91652 0.43563 0.0
C1502 C 0.26588 0.92849 0.43776 0.0
C1503 C 0.27503 0.93867 0.41563 0.0
C1504 C 0.08226 0.36458 0.43066 0.0
C1505 C 0.07737 0.35045 0.41285 0.0
C1506 C 0.09084 0.36472 0.45339 0.0
C1507 C 0.09482 0.35072 0.45925 0.0
H1508 H 0.0791 0.37544 0.42729 0.0
H1509 H 0.09393 0.37564 0.46679 0.0
S1510 S 0.08632 0.31145 0.41823 0.0
N1511 N 0.07814 0.32262 0.40209 0.0
N1512 N 0.09437 0.32303 0.44474 0.0
C1513 C 0.09051 0.33681 0.44134 0.0
C1514 C 0.08179 0.33666 0.41816 0.0
C1515 C 0.08965 0.35615 0.28096 0.0
C1516 C 0.07123 0.34254 0.28586 0.0
C1517 C 0.09832 0.3564 0.2583 0.0
C1518 C 0.08895 0.34301 0.23962 0.0
H1519 H 0.09742 0.36688 0.29463 0.0
H1520 H 0.11248 0.36719 0.25536 0.0
S1521 S 0.04049 0.30453 0.24283 0.0
N1522 N 0.04391 0.31528 0.27002 0.0
N1523 N 0.06015 0.31589 0.22733 0.0
C1524 C 0.0706 0.3292 0.24433 0.0
C1525 C 0.06176 0.32893 0.26745 0.0
C1526 C 0.67363 0.73831 0.27131 0.0
C1527 C 0.68953 0.74228 0.28509 0.0
C1528 C 0.67477 0.74787 0.24916 0.0
C1529 C 0.69184 0.76197 0.24001 0.0
H1530 H 0.66018 0.72742 0.27736 0.0
H1531 H 0.66216 0.7439 0.23884 0.0
S1532 S 0.73744 0.77881 0.27044 0.0
N1533 N 0.7228 0.76181 0.28874 0.0
N1534 N 0.72492 0.78022 0.24748 0.0
C1535 C 0.70783 0.7664 0.25398 0.0
C1536 C 0.70668 0.75648 0.27643 0.0
C1537 C 0.2864 0.93673 0.29021 0.0
C1538 C 0.29068 0.95517 0.29263 0.0
C1539 C 0.27827 0.92663 0.26829 0.0
C1540 C 0.27414 0.93455 0.2478 0.0
H1541 H 0.28964 0.93007 0.30521 0.0
H1542 H 0.27547 0.91255 0.26723 0.0
S1543 S 0.28223 0.98226 0.24469 0.0
N1544 N 0.28966 0.98082 0.27292 0.0
N1545 N 0.27465 0.9619 0.23146 0.0
C1546 C 0.27784 0.95282 0.2502 0.0
C1547 C 0.28605 0.96311 0.27266 0.0
C1548 C 0.67711 0.93677 0.29111 0.0
C1549 C 0.68544 0.95609 0.29077 0.0
C1550 C 0.67488 0.92679 0.26898 0.0
C1551 C 0.68066 0.9357 0.24554 0.0
H1552 H 0.672 0.92926 0.30861 0.0
H1553 H 0.66832 0.91192 0.27021 0.0
S1554 S 0.70284 0.98613 0.23444 0.0
N1555 N 0.69961 0.98384 0.26517 0.0
N1556 N 0.69488 0.96508 0.2234 0.0
C1557 C 0.68929 0.95508 0.24501 0.0
C1558 C 0.6918 0.96527 0.26765 0.0
C1559 C 0.05922 0.74194 0.26879 0.0
C1560 C 0.06956 0.74271 0.29005 0.0
C1561 C 0.06788 0.75172 0.24681 0.0
C1562 C 0.08722 0.7628 0.24531 0.0
H1563 H 0.04433 0.73327 0.26882 0.0
H1564 H 0.05935 0.75017 0.23063 0.0
S1565 S 0.12042 0.77118 0.29689 0.0
N1566 N 0.10009 0.7564 0.3089 0.0
N1567 N 0.11632 0.7752 0.26787 0.0
C1568 C 0.09767 0.76424 0.26682 0.0
C1569 C 0.08886 0.75413 0.28911 0.0
C1570 C 0.28117 0.36065 0.28616 0.0
C1571 C 0.285 0.34616 0.28833 0.0
C1572 C 0.27422 0.36363 0.26381 0.0
C1573 C 0.27077 0.35226 0.2427 0.0
H1574 H 0.28404 0.37012 0.30163 0.0
H1575 H 0.27188 0.37521 0.26288 0.0
S1576 S 0.27762 0.31193 0.23879 0.0
N1577 N 0.28403 0.31979 0.26769 0.0
N1578 N 0.27109 0.32556 0.22555 0.0
C1579 C 0.27382 0.33728 0.24486 0.0
C1580 C 0.28091 0.33421 0.26769 0.0
C1581 C 0.26628 0.33008 0.41402 0.0
C1582 C 0.28436 0.34507 0.41143 0.0
C1583 C 0.25628 0.32723 0.43629 0.0
C1584 C 0.26391 0.33925 0.45688 0.0
H1585 H 0.25991 0.32016 0.39894 0.0
H1586 H 0.24253 0.31531 0.43754 0.0
S1587 S 0.31046 0.38092 0.45961 0.0
N1588 N 0.30926 0.37249 0.43115 0.0
N1589 N 0.29046 0.36697 0.47314 0.0
C1590 C 0.28172 0.35464 0.45432 0.0
C1591 C 0.29194 0.35758 0.43157 0.0
C1592 C 0.66648 0.95408 0.43929 0.0
C1593 C 0.67489 0.95207 0.41758 0.0
C1594 C 0.66543 0.94457 0.46155 0.0
C1595 C 0.67261 0.93258 0.46288 0.0
H1596 H 0.66108 0.96342 0.43932 0.0
H1597 H 0.65931 0.94697 0.47801 0.0
S1598 S 0.69413 0.92094 0.41035 0.0
N1599 N 0.68945 0.93628 0.39828 0.0
N1600 N 0.68704 0.9181 0.43983 0.0
C1601 C 0.68048 0.92998 0.44101 0.0
C1602 C 0.68171 0.93978 0.41844 0.0
C1603 C 0.06494 0.75062 0.42366 0.0
C1604 C 0.07166 0.73983 0.41286 0.0
C1605 C 0.07295 0.76109 0.44533 0.0
C1606 C 0.0882 0.76144 0.45702 0.0
H1607 H 0.05313 0.75076 0.41558 0.0
H1608 H 0.06689 0.76876 0.45321 0.0
S1609 S 0.11184 0.73653 0.43523 0.0
N1610 N 0.09478 0.73048 0.41498 0.0
N1611 N 0.11028 0.75067 0.45539 0.0
C1612 C 0.09527 0.75092 0.4462 0.0
C1613 C 0.08692 0.74003 0.4242 0.0
C1614 C 0.35861 0.08685 0.74948 0.0
C1615 C 0.34425 0.06946 0.74175 0.0
C1616 C 0.35724 0.09516 0.77163 0.0
C1617 C 0.34145 0.08641 0.78697 0.0
H1618 H 0.37113 0.09408 0.73844 0.0
H1619 H 0.36866 0.10855 0.77682 0.0
S1620 S 0.30017 0.04048 0.77563 0.0
N1621 N 0.31375 0.04369 0.75135 0.0
N1622 N 0.31132 0.05914 0.79319 0.0
C1623 C 0.32693 0.06905 0.77941 0.0
C1624 C 0.32829 0.06063 0.75677 0.0
C1625 C 0.96847 0.28664 0.76922 0.0
C1626 C 0.95803 0.28565 0.74796 0.0
C1627 C 0.95988 0.27733 0.79152 0.0
C1628 C 0.94052 0.26649 0.79334 0.0
H1629 H 0.98337 0.29512 0.76891 0.0
H1630 H 0.96849 0.27903 0.80767 0.0
S1631 S 0.90709 0.25764 0.74188 0.0
N1632 N 0.9274 0.27202 0.72947 0.0
N1633 N 0.9113 0.25404 0.77105 0.0
C1634 C 0.92997 0.26483 0.77184 0.0
C1635 C 0.93871 0.2745 0.74925 0.0
C1636 C 0.75064 0.69966 0.75492 0.0
C1637 C 0.73572 0.68236 0.74818 0.0
C1638 C 0.76088 0.70186 0.77686 0.0
C1639 C 0.75647 0.68689 0.79304 0.0
H1640 H 0.75463 0.71154 0.74296 0.0
H1641 H 0.77246 0.71539 0.78107 0.0
S1642 S 0.71747 0.63906 0.785 0.0
N1643 N 0.71643 0.65016 0.75997 0.0
N1644 N 0.73528 0.65441 0.80152 0.0
C1645 C 0.7413 0.66959 0.78673 0.0
C1646 C 0.73102 0.6673 0.76426 0.0
C1647 C 0.73016 0.66272 0.60153 0.0
C1648 C 0.73859 0.6728 0.62355 0.0
C1649 C 0.74056 0.66485 0.57976 0.0
C1650 C 0.75972 0.67714 0.57925 0.0
H1651 H 0.71534 0.6537 0.60075 0.0
H1652 H 0.73343 0.65744 0.56289 0.0
S1653 S 0.7888 0.70472 0.63286 0.0
N1654 N 0.76757 0.69409 0.64415 0.0
N1655 N 0.78697 0.69798 0.6033 0.0
C1656 C 0.76844 0.68647 0.60152 0.0
C1657 C 0.75791 0.68432 0.62365 0.0
C1658 C 0.35456 0.08952 0.6159 0.0
C1659 C 0.36088 0.07683 0.61669 0.0
C1660 C 0.35566 0.09913 0.59374 0.0
C1661 C 0.36291 0.09626 0.5714 0.0
H1662 H 0.34871 0.09205 0.63256 0.0
H1663 H 0.35079 0.1089 0.59412 0.0
S1664 S 0.37997 0.06337 0.56311 0.0
N1665 N 0.37411 0.06146 0.59306 0.0
N1666 N 0.37556 0.07894 0.55125 0.0
C1667 C 0.36911 0.08344 0.57193 0.0
C1668 C 0.36824 0.07388 0.59459 0.0
C1669 C 0.93857 0.27939 0.61844 0.0
C1670 C 0.95568 0.29594 0.61829 0.0
C1671 C 0.93117 0.2691 0.59634 0.0
C1672 C 0.94081 0.27486 0.57348 0.0
H1673 H 0.93109 0.27404 0.6359 0.0
H1674 H 0.91828 0.25613 0.59739 0.0
S1675 S 0.98553 0.31756 0.56257 0.0
N1676 N 0.98151 0.31807 0.59289 0.0
N1677 N 0.96775 0.29849 0.55155 0.0
C1678 C 0.95756 0.29168 0.57284 0.0
C1679 C 0.96494 0.30231 0.5952 0.0
C1680 C 0.34019 0.28166 0.60235 0.0
C1681 C 0.35566 0.29475 0.61593 0.0
C1682 C 0.34216 0.27415 0.57984 0.0
C1683 C 0.35969 0.2792 0.57008 0.0
H1684 H 0.32638 0.27731 0.60901 0.0
H1685 H 0.32977 0.26444 0.56985 0.0
S1686 S 0.40466 0.31209 0.59941 0.0
N1687 N 0.38913 0.31216 0.61845 0.0
N1688 N 0.3929 0.29756 0.57654 0.0
C1689 C 0.37532 0.29215 0.58366 0.0
C1690 C 0.37329 0.30001 0.60647 0.0
C1691 C 0.72864 0.07711 0.60473 0.0
C1692 C 0.73749 0.07161 0.62232 0.0
C1693 C 0.73765 0.0866 0.58273 0.0
C1694 C 0.75585 0.09093 0.57744 0.0
H1695 H 0.71455 0.07389 0.60779 0.0
H1696 H 0.73016 0.09026 0.56952 0.0
S1697 S 0.78565 0.08078 0.61808 0.0
N1698 N 0.76587 0.07192 0.63338 0.0
N1699 N 0.78276 0.08988 0.59214 0.0
C1700 C 0.76499 0.08583 0.59505 0.0
C1701 C 0.75584 0.07617 0.61746 0.0
C1702 C 0.93635 0.67292 0.6157 0.0
C1703 C 0.94936 0.66705 0.61754 0.0
C1704 C 0.92655 0.67072 0.59337 0.0
C1705 C 0.9295 0.66273 0.57188 0.0
H1706 H 0.93378 0.67939 0.63162 0.0
H1707 H 0.91665 0.67544 0.5929 0.0
S1708 S 0.96267 0.64576 0.56663 0.0
N1709 N 0.9648 0.653 0.59597 0.0
N1710 N 0.94684 0.6494 0.55374 0.0
C1711 C 0.94242 0.65671 0.57353 0.0
C1712 C 0.95224 0.65874 0.5964 0.0
C1713 C 0.96837 0.69769 0.76635 0.0
C1714 C 0.95749 0.68703 0.746 0.0
C1715 C 0.96025 0.69896 0.78881 0.0
C1716 C 0.94095 0.68956 0.79179 0.0
H1717 H 0.98328 0.70487 0.76514 0.0
H1718 H 0.96916 0.70698 0.80418 0.0
S1719 S 0.90624 0.66111 0.74356 0.0
N1720 N 0.92631 0.66775 0.72989 0.0
N1721 N 0.91117 0.67026 0.772 0.0
C1722 C 0.92992 0.67928 0.77139 0.0
C1723 C 0.93815 0.678 0.74852 0.0
C1724 C 0.34331 0.29389 0.77119 0.0
C1725 C 0.34052 0.28479 0.74797 0.0
C1726 C 0.34615 0.28654 0.79332 0.0
C1727 C 0.34591 0.26966 0.7931 0.0
H1728 H 0.3442 0.30721 0.77213 0.0
H1729 H 0.349 0.29432 0.81064 0.0
S1730 S 0.3377 0.23968 0.73775 0.0
N1731 N 0.33673 0.25751 0.72642 0.0
N1732 N 0.34167 0.24356 0.76821 0.0
C1733 C 0.34223 0.25998 0.77033 0.0
C1734 C 0.33964 0.26759 0.7477 0.0
C1735 C 0.74365 0.0651 0.76761 0.0
C1736 C 0.74104 0.07331 0.74607 0.0
C1737 C 0.75151 0.07538 0.78961 0.0
C1738 C 0.75701 0.09422 0.79081 0.0
H1739 H 0.73896 0.05048 0.76782 0.0
H1740 H 0.75259 0.06839 0.8061 0.0
S1741 S 0.75563 0.12283 0.7386 0.0
N1742 N 0.74634 0.10187 0.72666 0.0
N1743 N 0.76113 0.12108 0.76789 0.0
C1744 C 0.7554 0.10279 0.76902 0.0
C1745 C 0.74743 0.09237 0.74668 0.0
C1746 C 0.06396 0.36138 0.03599 0.0
C1747 C 0.06093 0.37595 0.04214 0.0
C1748 C 0.07593 0.35786 0.05025 0.0
C1749 C 0.08514 0.3686 0.07149 0.0
H1750 H 0.05659 0.35227 0.02044 0.0
H1751 H 0.07756 0.34627 0.04504 0.0
S1752 S 0.08172 0.40834 0.09562 0.0
N1753 N 0.06833 0.40146 0.07048 0.0
N1754 N 0.09041 0.39455 0.09782 0.0
C1755 C 0.08265 0.3836 0.07737 0.0
C1756 C 0.07064 0.38734 0.06258 0.0
C1757 C 0.65845 0.7104 0.04266 0.0
C1758 C 0.65822 0.69565 0.05563 0.0
C1759 C 0.66172 0.72645 0.05545 0.0
C1760 C 0.66437 0.72802 0.08167 0.0
H1761 H 0.65663 0.70976 0.02244 0.0
H1762 H 0.6623 0.73773 0.04478 0.0
S1763 S 0.66423 0.693 0.12442 0.0
N1764 N 0.66043 0.6835 0.09624 0.0
N1765 N 0.66623 0.71343 0.12017 0.0
C1766 C 0.66367 0.71318 0.09488 0.0
C1767 C 0.66068 0.69704 0.08188 0.0
C1768 C 0.32332 0.97802 0.07537 0.0
C1769 C 0.32884 0.97407 0.0523 0.0
C1770 C 0.30849 0.9643 0.08904 0.0
C1771 C 0.2985 0.94604 0.08023 0.0
H1772 H 0.33079 0.99176 0.08332 0.0
H1773 H 0.30523 0.96795 0.1071 0.0
S1774 S 0.30622 0.92875 0.01986 0.0
N1775 N 0.32241 0.95072 0.02051 0.0
N1776 N 0.29435 0.92497 0.04615 0.0
C1777 C 0.30345 0.94199 0.0568 0.0
C1778 C 0.31862 0.95599 0.04284 0.0
C1779 C 0.34638 0.04922 0.98347 0.0
C1780 C 0.36465 0.05281 0.98483 0.0
C1781 C 0.34184 0.06047 0.96924 0.0
C1782 C 0.35532 0.07556 0.95535 0.0
H1783 H 0.33548 0.03753 0.99338 0.0
H1784 H 0.32757 0.05715 0.96889 0.0
S1785 S 0.40513 0.09022 0.95181 0.0
N1786 N 0.39633 0.07242 0.97116 0.0
N1787 N 0.38775 0.09307 0.94345 0.0
C1788 C 0.37371 0.07935 0.95672 0.0
C1789 C 0.37837 0.06809 0.97166 0.0
C1790 C 0.98083 0.31583 0.9723 0.0
C1791 C 0.97479 0.32598 0.98648 0.0
C1792 C 0.9683 0.29957 0.95992 0.0
C1793 C 0.94921 0.29287 0.96097 0.0
H1794 H 0.99542 0.32063 0.97037 0.0
H1795 H 0.97367 0.29255 0.94866 0.0
S1796 S 0.9261 0.31361 0.99662 0.0
N1797 N 0.94833 0.32766 1.00183 0.0
N1798 N 0.92472 0.29708 0.97825 0.0
C1799 C 0.94289 0.30257 0.97559 0.0
C1800 C 0.95569 0.3191 0.98847 0.0
C1801 C 0.71215 0.67972 0.97236 0.0
C1802 C 0.70255 0.66291 0.98546 0.0
C1803 C 0.72838 0.68448 0.9591 0.0
C1804 C 0.73569 0.67261 0.9583 0.0
H1805 H 0.70695 0.68923 0.97196 0.0
H1806 H 0.73498 0.69736 0.94878 0.0
S1807 S 0.7166 0.62751 0.9907 0.0
N1808 N 0.70204 0.63468 0.99769 0.0
N1809 N 0.73264 0.64372 0.97278 0.0
C1810 C 0.7265 0.65594 0.97175 0.0
C1811 C 0.70995 0.65109 0.98536 0.0
C1812 C 0.98199 0.67876 0.96689 0.0
C1813 C 0.97559 0.66477 0.98521 0.0
C1814 C 0.96989 0.68275 0.95393 0.0
C1815 C 0.95079 0.67298 0.95868 0.0
H1816 H 0.99653 0.68667 0.96224 0.0
H1817 H 0.97556 0.69343 0.93968 0.0
S1818 S 0.92689 0.63542 0.00541 0.0
N1819 N 0.94883 0.64128 0.00783 0.0
N1820 N 0.92603 0.64896 0.98352 0.0
C1821 C 0.94413 0.65902 0.97709 0.0
C1822 C 0.95653 0.65492 0.99037 0.0
C1823 C 0.35791 0.31746 0.9662 0.0
C1824 C 0.36808 0.32295 0.98876 0.0
C1825 C 0.35642 0.30271 0.95199 0.0
C1826 C 0.36501 0.29279 0.95974 0.0
H1827 H 0.3515 0.32497 0.95896 0.0
H1828 H 0.34907 0.29954 0.93425 0.0
S1829 S 0.39154 0.30023 0.01874 0.0
N1830 N 0.38575 0.31638 0.01916 0.0
N1831 N 0.38275 0.28849 0.99251 0.0
C1832 C 0.37454 0.29759 0.98281 0.0
C1833 C 0.37609 0.31266 0.99732 0.0
C1834 C 0.70847 0.06931 0.99327 0.0
C1835 C 0.69947 0.05084 0.98513 0.0
C1836 C 0.72328 0.08323 0.97963 0.0
C1837 C 0.72963 0.07922 0.95732 0.0
H1838 H 0.70386 0.07311 0.01007 0.0
H1839 H 0.72965 0.09728 0.98644 0.0
S1840 S 0.71056 0.03313 0.92762 0.0
N1841 N 0.6981 0.02932 0.95331 0.0
N1842 N 0.72551 0.05546 0.9275 0.0
C1843 C 0.7209 0.06078 0.94918 0.0
C1844 C 0.70594 0.04661 0.96311 0.0
C1845 C 0.64883 0.95284 0.04596 0.0
C1846 C 0.66116 0.97172 0.05014 0.0
C1847 C 0.65003 0.93929 0.05996 0.0
C1848 C 0.66376 0.94411 0.0784 0.0
H1849 H 0.63771 0.94848 0.03246 0.0
H1850 H 0.63987 0.92494 0.05676 0.0
S1851 S 0.70014 0.9915 0.09552 0.0
N1852 N 0.68816 0.99447 0.0732 0.0
N1853 N 0.69036 0.96899 0.09944 0.0
C1854 C 0.67666 0.96288 0.082 0.0
C1855 C 0.67537 0.97669 0.0679 0.0
C1856 C 0.04604 0.71346 0.06597 0.0
C1857 C 0.0526 0.70418 0.05088 0.0
C1858 C 0.05819 0.72949 0.0792 0.0
C1859 C 0.07738 0.73677 0.07809 0.0
H1860 H 0.03135 0.70819 0.06787 0.0
H1861 H 0.05247 0.73591 0.09102 0.0
S1862 S 0.10177 0.71834 0.04045 0.0
N1863 N 0.07968 0.70395 0.03483 0.0
N1864 N 0.10249 0.73401 0.05995 0.0
C1865 C 0.08419 0.72789 0.0627 0.0
C1866 C 0.07181 0.71164 0.04899 0.0
C1867 C 0.32208 0.37603 0.04402 0.0
C1868 C 0.3298 0.36542 0.05238 0.0
C1869 C 0.30738 0.37587 0.05692 0.0
C1870 C 0.2998 0.3651 0.0787 0.0
H1871 H 0.32769 0.38484 0.02767 0.0
H1872 H 0.30209 0.38447 0.05 0.0
S1873 S 0.31499 0.33486 0.10846 0.0
N1874 N 0.32848 0.34358 0.08364 0.0
N1875 N 0.30121 0.34361 0.1081 0.0
C1876 C 0.30713 0.35414 0.08695 0.0
C1877 C 0.32202 0.35422 0.07376 0.0
C1878 C 0.71765 0.68848 0.40365 0.0
C1879 C 0.72262 0.69897 0.38137 0.0
C1880 C 0.7307 0.68651 0.41773 0.0
C1881 C 0.74926 0.69494 0.41013 0.0
H1882 H 0.70365 0.6821 0.41071 0.0
H1883 H 0.7263 0.67885 0.4352 0.0
S1884 S 0.76909 0.72237 0.35199 0.0
N1885 N 0.74722 0.71692 0.35149 0.0
N1886 N 0.77169 0.71302 0.37789 0.0
C1887 C 0.75431 0.7049 0.38741 0.0
C1888 C 0.741 0.70693 0.37304 0.0
C1889 C 0.33116 0.04849 0.37478 0.0
C1890 C 0.32825 0.03302 0.38882 0.0
C1891 C 0.33508 0.06503 0.38679 0.0
C1892 C 0.33568 0.06639 0.4132 0.0
H1893 H 0.33106 0.04803 0.35441 0.0
H1894 H 0.33784 0.07686 0.37541 0.0
S1895 S 0.32805 0.02957 0.45844 0.0
N1896 N 0.32568 0.02 0.43052 0.0
N1897 N 0.33259 0.05082 0.45295 0.0
C1898 C 0.3322 0.05084 0.42738 0.0
C1899 C 0.32859 0.03421 0.41522 0.0
C1900 C 0.98718 0.28891 0.37738 0.0
C1901 C 0.99649 0.30738 0.38551 0.0
C1902 C 0.97223 0.27516 0.39101 0.0
C1903 C 0.966 0.27938 0.41326 0.0
H1904 H 0.99165 0.28494 0.36058 0.0
H1905 H 0.96563 0.26109 0.38425 0.0
S1906 S 0.98578 0.32557 0.44286 0.0
N1907 N 0.99825 0.32914 0.41724 0.0
N1908 N 0.97051 0.30332 0.443 0.0
C1909 C 0.97502 0.29784 0.42139 0.0
C1910 C 0.99017 0.31182 0.40749 0.0
C1911 C 0.01777 0.38003 0.30533 0.0
C1912 C 0.03363 0.38617 0.32038 0.0
C1913 C 0.01427 0.39247 0.29232 0.0
C1914 C 0.02652 0.41159 0.2937 0.0
H1915 H 0.00811 0.36542 0.30312 0.0
H1916 H 1.00217 0.38702 0.28037 0.0
S1917 S 0.06929 0.43499 0.3319 0.0
N1918 N 0.0612 0.4128 0.33699 0.0
N1919 N 0.05456 0.4362 0.31242 0.0
C1920 C 0.04214 0.418 0.30924 0.0
C1921 C 0.04568 0.40531 0.32264 0.0
C1922 C 0.62989 0.64634 0.32673 0.0
C1923 C 0.6451 0.6604 0.31371 0.0
C1924 C 0.61722 0.62987 0.31454 0.0
C1925 C 0.61917 0.62721 0.28887 0.0
H1926 H 0.62799 0.64791 0.34654 0.0
H1927 H 0.60588 0.61917 0.3252 0.0
S1928 S 0.65586 0.65999 0.24603 0.0
N1929 N 0.66096 0.67062 0.2735 0.0
N1930 N 0.63696 0.63993 0.25071 0.0
C1931 C 0.63402 0.64126 0.27558 0.0
C1932 C 0.64704 0.65781 0.28797 0.0
C1933 C 0.38309 0.01537 0.31009 0.0
C1934 C 0.37325 0.99888 0.32384 0.0
C1935 C 0.39882 0.0192 0.29615 0.0
C1936 C 0.40525 0.00662 0.29523 0.0
H1937 H 0.3784 0.02528 0.30961 0.0
H1938 H 0.4056 0.03182 0.28528 0.0
S1939 S 0.38538 0.96208 0.32924 0.0
N1940 N 0.37176 0.97031 0.33674 0.0
N1941 N 0.4013 0.97753 0.31039 0.0
C1942 C 0.39593 0.99035 0.30948 0.0
C1943 C 0.37997 0.98649 0.32387 0.0
C1944 C 0.62313 0.98205 0.3263 0.0
C1945 C 0.64145 0.99071 0.31751 0.0
C1946 C 0.60925 0.98297 0.3126 0.0
C1947 C 0.6132 0.99264 0.28966 0.0
H1948 H 0.61942 0.97433 0.34374 0.0
H1949 H 0.59532 0.97601 0.31996 0.0
S1950 S 0.65877 0.01706 0.25788 0.0
N1951 N 0.66267 0.00906 0.28412 0.0
N1952 N 0.63662 0.01048 0.25838 0.0
C1953 C 0.63146 1.00138 0.28073 0.0
C1954 C 0.64556 1.00049 0.29464 0.0
C1955 C 0.02803 0.65353 0.2959 0.0
C1956 C 0.03877 0.66023 0.31787 0.0
C1957 C 0.02745 0.63907 0.28202 0.0
C1958 C 0.03751 0.63058 0.28952 0.0
H1959 H 0.02029 0.65977 0.28892 0.0
H1960 H 0.01946 0.63492 0.26479 0.0
S1961 S 0.06656 0.64182 0.34681 0.0
N1962 N 0.05899 0.6566 0.34726 0.0
N1963 N 0.05763 0.62913 0.32132 0.0
C1964 C 0.04789 0.63673 0.31188 0.0
C1965 C 0.04855 0.65158 0.32603 0.0
C1966 C 0.3673 0.38557 0.29227 0.0
C1967 C 0.36538 0.38654 0.31844 0.0
C1968 C 0.38322 0.39864 0.27969 0.0
C1969 C 0.39798 0.41299 0.29285 0.0
H1970 H 0.3564 0.37461 0.28135 0.0
H1971 H 0.38421 0.39718 0.25959 0.0
S1972 S 0.39989 0.4219 0.36136 0.0
N1973 N 0.37945 0.40336 0.35701 0.0
N1974 N 0.40972 0.42765 0.33333 0.0
C1975 C 0.39627 0.41425 0.31896 0.0
C1976 C 0.37985 0.40112 0.33176 0.0
C1977 C 0.32904 0.30776 0.40818 0.0
C1978 C 0.32608 0.30651 0.38201 0.0
C1979 C 0.33223 0.29506 0.42102 0.0
C1980 C 0.33294 0.2808 0.40815 0.0
H1981 H 0.32887 0.31866 0.4189 0.0
H1982 H 0.3347 0.29672 0.44112 0.0
S1983 S 0.32594 0.27127 0.33975 0.0
N1984 N 0.32361 0.28955 0.34374 0.0
N1985 N 0.33025 0.26594 0.36792 0.0
C1986 C 0.32992 0.27927 0.38204 0.0
C1987 C 0.32628 0.29203 0.36896 0.0
C1988 C 0.73666 0.03589 0.3976 0.0
C1989 C 0.72282 0.03511 0.38184 0.0
C1990 C 0.74842 0.05199 0.4111 0.0
C1991 C 0.74697 0.06798 0.40897 0.0
H1992 H 0.73781 0.02372 0.40052 0.0
H1993 H 0.75817 0.0516 0.42412 0.0
S1994 S 0.71501 0.07376 0.3665 0.0
N1995 N 0.70945 0.05203 0.36278 0.0
N1996 N 0.73212 0.08256 0.38703 0.0
C1997 C 0.73396 0.06765 0.39185 0.0
C1998 C 0.72175 0.05115 0.37857 0.0
C1999 C 0.97767 0.69135 0.37257 0.0
C2000 C 0.99205 0.69037 0.38488 0.0
C2001 C 0.96123 0.68698 0.38524 0.0
C2002 C 0.95887 0.68186 0.41073 0.0
H2003 H 0.97911 0.69551 0.35302 0.0
H2004 H 0.95046 0.6879 0.37522 0.0
S2005 S 0.99218 0.67737 0.45166 0.0
N2006 N 1.00263 0.68376 0.42412 0.0
N2007 N 0.97195 0.67596 0.44783 0.0
C2008 C 0.97305 0.68081 0.42322 0.0
C2009 C 0.9896 0.68496 0.41032 0.0
C2010 C 0.3809 0.01199 0.72531 0.0
C2011 C 0.38839 0.02899 0.71267 0.0
C2012 C 0.39209 0.00716 0.73909 0.0
C2013 C 0.41126 0.01915 0.74089 0.0
H2014 H 0.36618 0.00238 0.72498 0.0
H2015 H 0.38556 0.99413 0.74904 0.0
S2016 S 0.438 0.0648 0.71002 0.0
N2017 N 0.41638 0.05755 0.70192 0.0
N2018 N 0.43745 0.04837 0.72781 0.0
C2019 C 0.41905 0.03601 0.72787 0.0
C2020 C 0.40763 0.04093 0.71372 0.0
C2021 C 0.97726 0.37297 0.71193 0.0
C2022 C 0.99062 0.36774 0.71588 0.0
C2023 C 0.97794 0.38779 0.72517 0.0
C2024 C 0.99211 0.39806 0.7426 0.0
H2025 H 0.96586 0.3652 0.69916 0.0
H2026 H 0.96709 0.39103 0.72212 0.0
S2027 S 0.03089 0.39054 0.75897 0.0
N2028 N 0.01889 0.37457 0.73776 0.0
N2029 N 0.02002 0.40222 0.76265 0.0
C2030 C 0.00589 0.39338 0.74605 0.0
C2031 C 0.00517 0.37827 0.7327 0.0
C2032 C 0.63978 0.63688 0.70989 0.0
C2033 C 0.65575 0.63547 0.71164 0.0
C2034 C 0.62405 0.62547 0.72421 0.0
C2035 C 0.62383 0.61255 0.74141 0.0
H2036 H 0.63954 0.64706 0.69759 0.0
H2037 H 0.61208 0.6271 0.72217 0.0
S2038 S 0.66275 0.60422 0.75362 0.0
N2039 N 0.67057 0.62022 0.73153 0.0
N2040 N 0.64145 0.59944 0.75953 0.0
C2041 C 0.63975 0.61089 0.74303 0.0
C2042 C 0.6556 0.62222 0.72793 0.0
C2043 C 0.70529 0.73274 0.6552 0.0
C2044 C 0.69728 0.71463 0.64582 0.0
C2045 C 0.70425 0.74661 0.64172 0.0
C2046 C 0.69504 0.74287 0.61844 0.0
H2047 H 0.71276 0.73636 0.67286 0.0
H2048 H 0.71085 0.76042 0.64947 0.0
S2049 S 0.6717 0.69773 0.58556 0.0
N2050 N 0.67959 0.6937 0.61184 0.0
N2051 N 0.67786 0.71975 0.58652 0.0
C2052 C 0.68669 0.72475 0.60907 0.0
C2053 C 0.68776 0.71065 0.62274 0.0
C2054 C 0.31094 0.99341 0.61963 0.0
C2055 C 0.31082 0.9949 0.64598 0.0
C2056 C 0.29797 0.97735 0.60723 0.0
C2057 C 0.28461 0.96204 0.62073 0.0
H2058 H 0.32113 0.00477 0.60843 0.0
H2059 H 0.29864 0.97675 0.58691 0.0
S2060 S 0.27828 0.95878 0.68988 0.0
N2061 N 0.29597 0.97973 0.68518 0.0
N2062 N 0.27185 0.94929 0.66174 0.0
C2063 C 0.28427 0.96328 0.64704 0.0
C2064 C 0.29729 0.9798 0.6597 0.0
C2065 C 0.05 0.34095 0.66007 0.0
C2066 C 0.03313 0.32453 0.65647 0.0
C2067 C 0.06575 0.34466 0.64626 0.0
C2068 C 0.0652 0.33224 0.62798 0.0
H2069 H 0.05096 0.35119 0.67336 0.0
H2070 H 0.07838 0.35758 0.64957 0.0
S2071 S 0.02413 0.28739 0.61103 0.0
N2072 N 0.01676 0.29561 0.63362 0.0
N2073 N 0.04614 0.30283 0.60697 0.0
C2074 C 0.04845 0.31556 0.62457 0.0
C2075 C 0.03248 0.31166 0.63897 0.0
C2076 C 0.3022 0.33582 0.65227 0.0
C2077 C 0.30175 0.31899 0.65578 0.0
C2078 C 0.28829 0.33669 0.63865 0.0
C2079 C 0.27363 0.32084 0.62745 0.0
H2080 H 0.31351 0.34844 0.65987 0.0
H2081 H 0.28926 0.34999 0.63647 0.0
S2082 S 0.26687 0.27352 0.63021 0.0
N2083 N 0.28559 0.28614 0.64714 0.0
N2084 N 0.26007 0.28782 0.62037 0.0
C2085 C 0.27303 0.30388 0.63108 0.0
C2086 C 0.28695 0.30295 0.64549 0.0
C2087 C 0.68105 0.97976 0.6425 0.0
C2088 C 0.69749 0.98999 0.65627 0.0
C2089 C 0.67721 0.96361 0.62976 0.0
C2090 C 0.68972 0.95707 0.63006 0.0
H2091 H 0.67113 0.98442 0.64117 0.0
H2092 H 0.66461 0.95653 0.61886 0.0
S2093 S 0.73424 0.97803 0.66444 0.0
N2094 N 0.72603 0.99189 0.67039 0.0
N2095 N 0.71881 0.9615 0.64623 0.0
C2096 C 0.706 0.96685 0.64425 0.0
C2097 C 0.70986 0.98328 0.65745 0.0
C2098 C 0.03983 0.72073 0.6337 0.0
C2099 C 0.02878 0.72432 0.65004 0.0
C2100 C 0.05453 0.73495 0.62044 0.0
C2101 C 0.05878 0.75336 0.62285 0.0
H2102 H 0.03692 0.70674 0.63071 0.0
H2103 H 0.06227 0.73138 0.60755 0.0
S2104 S 0.03507 0.77043 0.66452 0.0
N2105 N 0.02375 0.74788 0.66887 0.0
N2106 N 0.05147 0.77463 0.6439 0.0
C2107 C 0.04821 0.75727 0.63963 0.0
C2108 C 0.03323 0.74276 0.65327 0.0
C2109 C 0.98128 0.62757 0.73069 0.0
C2110 C 0.99377 0.64053 0.71345 0.0
C2111 C 0.98587 0.61615 0.74447 0.0
C2112 C 1.00301 0.61707 0.74121 0.0
H2113 H 0.96819 0.62679 0.73438 0.0
H2114 H 0.97619 0.60706 0.75848 0.0
S2115 S 0.03921 0.64667 0.69516 0.0
N2116 N 0.02319 0.6525 0.69205 0.0
N2117 N 0.03151 0.63048 0.717 0.0
C2118 C 0.01512 0.62923 0.72283 0.0
C2119 C 0.01058 0.64109 0.7092 0.0
C2120 C 0.39186 0.37964 0.71417 0.0
C2121 C 0.39105 0.36246 0.71412 0.0
C2122 C 0.40513 0.39447 0.72849 0.0
C2123 C 0.41798 0.39266 0.74354 0.0
H2124 H 0.38204 0.38159 0.70328 0.0
H2125 H 0.4052 0.40742 0.72798 0.0
S2126 S 0.42097 0.35016 0.75097 0.0
N2127 N 0.40408 0.34441 0.7306 0.0
N2128 N 0.42849 0.37194 0.75812 0.0
C2129 C 0.41732 0.37553 0.74354 0.0
C2130 C 0.40399 0.36053 0.7287 0.0
C2131 C 0.64985 0.01394 0.7337 0.0
C2132 C 0.65882 0.02937 0.71778 0.0
C2133 C 0.6335 0.00976 0.74616 0.0
C2134 C 0.62548 0.02092 0.74343 0.0
H2135 H 0.65553 0.00499 0.73671 0.0
H2136 H 0.62728 0.99787 0.7585 0.0
S2137 S 0.64317 0.06271 0.70362 0.0
N2138 N 0.65826 0.05572 0.69959 0.0
N2139 N 0.62748 0.04787 0.7233 0.0
C2140 C 0.63419 0.03634 0.72749 0.0
C2141 C 0.65083 0.04053 0.71454 0.0
loop_
_geom_bond_atom_site_label_1
_geom_bond_atom_site_label_2
_geom_bond_distance
_geom_bond_site_symmetry_2
_ccdc_geom_bond_type
In0 O1 2.274 1_455 S
In0 O2 2.326 . S
In0 O6 2.266 1_455 S
In0 O7 2.321 1_554 S
In0 O8 2.266 1_554 S
In0 O9 2.326 1_454 S
In0 O11 2.294 . S
In0 O12 2.326 . S
O1 In0 2.274 1_655 S
O1 C10 1.223 1_655 S
O2 In0 2.326 . S
O2 C10 1.252 . S
C3 O6 1.252 1_556 S
C3 O7 1.204 1_655 S
C4 O11 1.240 . S
C4 O12 1.252 . S
C5 O8 1.252 . S
C5 O9 1.260 1_455 S
O6 In0 2.266 1_655 S
O6 C3 1.252 1_554 S
O7 In0 2.321 1_556 S
O7 C3 1.204 1_455 S
O8 In0 2.266 1_556 S
O8 C5 1.252 . S
O9 In0 2.326 1_656 S
O9 C5 1.260 1_655 S
C10 O1 1.223 1_455 S
C10 O2 1.252 . S
O11 In0 2.294 . S
O11 C4 1.240 . S
O12 In0 2.326 . S
O12 C4 1.252 . S
In13 O14 2.294 . S
In13 O15 2.326 . S
In13 O19 2.266 . S
In13 O20 2.326 1_554 S
In13 O21 2.266 1_554 S
In13 O22 2.326 1_554 S
In13 O24 2.294 . S
In13 O25 2.326 . S
O14 In13 2.294 . S
O14 C23 1.240 . S
O15 In13 2.326 . S
O15 C23 1.252 . S
C16 O19 1.252 1_556 S
C16 O20 1.260 . S
C17 O24 1.240 . S
C17 O25 1.252 . S
C18 O21 1.252 . S
C18 O22 1.260 . S
O19 In13 2.266 . S
O19 C16 1.252 1_554 S
O20 In13 2.326 1_556 S
O20 C16 1.260 . S
O21 In13 2.266 1_556 S
O21 C18 1.252 . S
O22 In13 2.326 1_556 S
O22 C18 1.260 . S
C23 O14 1.240 . S
C23 O15 1.252 . S
O24 In13 2.294 . S
O24 C17 1.240 . S
O25 In13 2.326 . S
O25 C17 1.252 . S
In26 O27 2.294 . S
In26 O28 2.326 1_554 S
In26 O32 2.266 . S
In26 O33 2.326 1_545 S
In26 O34 2.266 1_545 S
In26 O35 2.326 . S
In26 O37 2.291 1_554 S
In26 O38 2.326 1_554 S
O27 In26 2.294 . S
O27 C36 1.240 1_554 S
O28 In26 2.326 1_556 S
O28 C36 1.252 . S
C29 O32 1.252 . S
C29 O33 1.260 1_545 S
C30 O37 1.237 . S
C30 O38 1.252 . S
C31 O34 1.252 . S
C31 O35 1.260 1_565 S
O32 In26 2.266 . S
O32 C29 1.252 . S
O33 In26 2.326 1_565 S
O33 C29 1.260 1_565 S
O34 In26 2.266 1_565 S
O34 C31 1.252 . S
O35 In26 2.326 . S
O35 C31 1.260 1_545 S
C36 O27 1.240 1_556 S
C36 O28 1.252 . S
O37 In26 2.291 1_556 S
O37 C30 1.237 . S
O38 In26 2.326 1_556 S
O38 C30 1.252 . S
In39 O40 2.294 1_554 S
In39 O41 2.326 1_454 S
In39 O45 2.266 . S
In39 O46 2.326 . S
In39 O47 2.262 1_455 S
In39 O48 2.326 . S
In39 O50 2.294 1_455 S
In39 O51 2.325 1_554 S
O40 In39 2.294 1_556 S
O40 C49 1.240 . S
O41 In39 2.326 1_656 S
O41 C49 1.252 1_655 S
C42 O45 1.252 . S
C42 O46 1.260 . S
C43 O50 1.240 1_556 S
C43 O51 1.255 1_655 S
C44 O47 1.216 1_455 S
C44 O48 1.260 . S
O45 In39 2.266 . S
O45 C42 1.252 . S
O46 In39 2.326 . S
O46 C42 1.260 . S
O47 In39 2.262 1_655 S
O47 C44 1.216 1_655 S
O48 In39 2.326 . S
O48 C44 1.260 . S
C49 O40 1.240 . S
C49 O41 1.252 1_455 S
O50 In39 2.294 1_655 S
O50 C43 1.240 1_554 S
O51 In39 2.325 1_556 S
O51 C43 1.255 1_455 S
In52 O53 2.294 1_554 S
In52 O54 2.326 1_554 S
In52 O58 2.266 . S
In52 O59 2.326 . S
In52 O60 2.266 . S
In52 O61 2.326 . S
In52 O63 2.294 . S
In52 O64 2.326 1_554 S
O53 In52 2.294 1_556 S
O53 C62 1.240 . S
O54 In52 2.326 1_556 S
O54 C62 1.252 . S
C55 O58 1.252 . S
C55 O59 1.260 . S
C56 O63 1.240 1_556 S
C56 O64 1.252 . S
C57 O60 1.252 . S
C57 O61 1.260 . S
O58 In52 2.266 . S
O58 C55 1.252 . S
O59 In52 2.326 . S
O59 C55 1.260 . S
O60 In52 2.266 . S
O60 C57 1.252 . S
O61 In52 2.326 . S
O61 C57 1.260 . S
C62 O53 1.240 . S
C62 O54 1.252 . S
O63 In52 2.294 . S
O63 C56 1.240 1_554 S
O64 In52 2.326 1_556 S
O64 C56 1.252 . S
In65 O66 2.294 . S
In65 O67 2.326 1_545 S
In65 O71 2.266 . S
In65 O72 2.326 1_554 S
In65 O73 2.266 1_544 S
In65 O74 2.326 1_554 S
In65 O76 2.294 1_545 S
In65 O77 2.341 . S
O66 In65 2.294 . S
O66 C75 1.240 . S
O67 In65 2.326 1_565 S
O67 C75 1.252 1_565 S
C68 O71 1.252 1_556 S
C68 O72 1.260 . S
C69 O76 1.240 . S
C69 O77 1.232 1_565 S
C70 O73 1.247 1_545 S
C70 O74 1.260 . S
O71 In65 2.266 . S
O71 C68 1.252 1_554 S
O72 In65 2.326 1_556 S
O72 C68 1.260 . S
O73 In65 2.266 1_566 S
O73 C70 1.247 1_565 S
O74 In65 2.326 1_556 S
O74 C70 1.260 . S
C75 O66 1.240 . S
C75 O67 1.252 1_545 S
O76 In65 2.294 1_565 S
O76 C69 1.240 . S
O77 In65 2.341 . S
O77 C69 1.232 1_545 S
In78 O79 2.294 . S
In78 O80 2.326 . S
In78 O84 2.266 . S
In78 O85 2.326 . S
In78 O86 2.266 . S
In78 O87 2.326 . S
In78 O89 2.294 . S
In78 O90 2.326 . S
O79 In78 2.294 . S
O79 C88 1.240 . S
O80 In78 2.326 . S
O80 C88 1.252 . S
C81 O84 1.252 . S
C81 O85 1.260 . S
C82 O89 1.240 . S
C82 O90 1.252 . S
C83 O86 1.252 . S
C83 O87 1.260 . S
O84 In78 2.266 . S
O84 C81 1.252 . S
O85 In78 2.326 . S
O85 C81 1.260 . S
O86 In78 2.266 . S
O86 C83 1.252 . S
O87 In78 2.326 . S
O87 C83 1.260 . S
C88 O79 1.240 . S
C88 O80 1.252 . S
O89 In78 2.294 . S
O89 C82 1.240 . S
O90 In78 2.326 . S
O90 C82 1.252 . S
In91 O92 2.294 . S
In91 O93 2.326 . S
In91 O97 2.266 . S
In91 O98 2.326 . S
In91 O99 2.266 . S
In91 O100 2.326 . S
In91 O102 2.294 1_565 S
In91 O103 2.326 1_565 S
O92 In91 2.294 . S
O92 C101 1.240 . S
O93 In91 2.326 . S
O93 C101 1.252 . S
C94 O97 1.252 . S
C94 O98 1.260 . S
C95 O102 1.240 . S
C95 O103 1.252 . S
C96 O99 1.252 . S
C96 O100 1.260 . S
O97 In91 2.266 . S
O97 C94 1.252 . S
O98 In91 2.326 . S
O98 C94 1.260 . S
O99 In91 2.266 . S
O99 C96 1.252 . S
O100 In91 2.326 . S
O100 C96 1.260 . S
C101 O92 1.240 . S
C101 O93 1.252 . S
O102 In91 2.294 1_545 S
O102 C95 1.240 . S
O103 In91 2.326 1_545 S
O103 C95 1.252 . S
In104 O105 2.294 . S
In104 O106 2.326 . S
In104 O110 2.266 . S
In104 O111 2.326 . S
In104 O112 2.266 . S
In104 O113 2.326 . S
In104 O115 2.294 . S
In104 O116 2.326 . S
O105 In104 2.294 . S
O105 C114 1.240 . S
O106 In104 2.326 . S
O106 C114 1.252 . S
C107 O110 1.252 . S
C107 O111 1.260 . S
C108 O115 1.240 . S
C108 O116 1.252 . S
C109 O112 1.252 . S
C109 O113 1.260 . S
O110 In104 2.266 . S
O110 C107 1.252 . S
O111 In104 2.326 . S
O111 C107 1.260 . S
O112 In104 2.266 . S
O112 C109 1.252 . S
O113 In104 2.326 . S
O113 C109 1.260 . S
C114 O105 1.240 . S
C114 O106 1.252 . S
O115 In104 2.294 . S
O115 C108 1.240 . S
O116 In104 2.326 . S
O116 C108 1.252 . S
In117 O118 2.294 . S
In117 O119 2.326 . S
In117 O123 2.266 1_565 S
In117 O124 2.326 1_565 S
In117 O125 2.266 . S
In117 O126 2.326 . S
In117 O128 2.294 . S
In117 O129 2.326 . S
O118 In117 2.294 . S
O118 C127 1.240 . S
O119 In117 2.326 . S
O119 C127 1.252 . S
C120 O123 1.252 . S
C120 O124 1.260 . S
C121 O128 1.240 . S
C121 O129 1.252 . S
C122 O125 1.252 . S
C122 O126 1.260 . S
O123 In117 2.266 1_545 S
O123 C120 1.252 . S
O124 In117 2.326 1_545 S
O124 C120 1.260 . S
O125 In117 2.266 . S
O125 C122 1.252 . S
O126 In117 2.326 . S
O126 C122 1.260 . S
C127 O118 1.240 . S
C127 O119 1.252 . S
O128 In117 2.294 . S
O128 C121 1.240 . S
O129 In117 2.326 . S
O129 C121 1.252 . S
In130 O131 2.294 . S
In130 O132 2.326 . S
In130 O136 2.266 . S
In130 O137 2.326 . S
In130 O138 2.266 . S
In130 O139 2.326 . S
In130 O141 2.294 . S
In130 O142 2.326 . S
O131 In130 2.294 . S
O131 C140 1.240 . S
O132 In130 2.326 . S
O132 C140 1.252 . S
C133 O136 1.252 . S
C133 O137 1.260 . S
C134 O141 1.240 . S
C134 O142 1.252 . S
C135 O138 1.252 . S
C135 O139 1.260 . S
O136 In130 2.266 . S
O136 C133 1.252 . S
O137 In130 2.326 . S
O137 C133 1.260 . S
O138 In130 2.266 . S
O138 C135 1.252 . S
O139 In130 2.326 . S
O139 C135 1.260 . S
C140 O131 1.240 . S
C140 O132 1.252 . S
O141 In130 2.294 . S
O141 C134 1.240 . S
O142 In130 2.326 . S
O142 C134 1.252 . S
In143 O144 2.294 . S
In143 O145 2.326 . S
In143 O149 2.266 . S
In143 O150 2.326 . S
In143 O151 2.266 . S
In143 O152 2.326 . S
In143 O154 2.294 . S
In143 O155 2.326 . S
O144 In143 2.294 . S
O144 C153 1.240 . S
O145 In143 2.326 . S
O145 C153 1.252 . S
C146 O149 1.252 . S
C146 O150 1.260 . S
C147 O154 1.240 . S
C147 O155 1.252 . S
C148 O151 1.252 . S
C148 O152 1.260 . S
O149 In143 2.266 . S
O149 C146 1.252 . S
O150 In143 2.326 . S
O150 C146 1.260 . S
O151 In143 2.266 . S
O151 C148 1.252 . S
O152 In143 2.326 . S
O152 C148 1.260 . S
C153 O144 1.240 . S
C153 O145 1.252 . S
O154 In143 2.294 . S
O154 C147 1.240 . S
O155 In143 2.326 . S
O155 C147 1.252 . S
In156 O157 2.294 . S
In156 O158 2.326 . S
In156 O162 2.266 . S
In156 O163 2.326 . S
In156 O164 2.266 . S
In156 O165 2.326 . S
In156 O167 2.294 . S
In156 O168 2.326 . S
O157 In156 2.294 . S
O157 C166 1.240 . S
O158 In156 2.326 . S
O158 C166 1.252 . S
C159 O162 1.252 . S
C159 O163 1.260 . S
C160 O167 1.240 . S
C160 O168 1.252 . S
C161 O164 1.252 . S
C161 O165 1.260 . S
O162 In156 2.266 . S
O162 C159 1.252 . S
O163 In156 2.326 . S
O163 C159 1.260 . S
O164 In156 2.266 . S
O164 C161 1.252 . S
O165 In156 2.326 . S
O165 C161 1.260 . S
C166 O157 1.240 . S
C166 O158 1.252 . S
O167 In156 2.294 . S
O167 C160 1.240 . S
O168 In156 2.326 . S
O168 C160 1.252 . S
In169 O170 2.294 . S
In169 O171 2.326 . S
In169 O175 2.266 . S
In169 O176 2.326 . S
In169 O177 2.266 1_655 S
In169 O178 2.326 1_655 S
In169 O180 2.294 . S
In169 O181 2.326 . S
O170 In169 2.294 . S
O170 C179 1.240 . S
O171 In169 2.326 . S
O171 C179 1.252 . S
C172 O175 1.252 . S
C172 O176 1.260 . S
C173 O180 1.240 . S
C173 O181 1.252 . S
C174 O177 1.252 . S
C174 O178 1.260 . S
O175 In169 2.266 . S
O175 C172 1.252 . S
O176 In169 2.326 . S
O176 C172 1.260 . S
O177 In169 2.266 1_455 S
O177 C174 1.252 . S
O178 In169 2.326 1_455 S
O178 C174 1.260 . S
C179 O170 1.240 . S
C179 O171 1.252 . S
O180 In169 2.294 . S
O180 C173 1.240 . S
O181 In169 2.326 . S
O181 C173 1.252 . S
In182 O183 2.294 . S
In182 O184 2.326 . S
In182 O188 2.266 . S
In182 O189 2.326 . S
In182 O190 2.266 . S
In182 O191 2.326 . S
In182 O193 2.294 . S
In182 O194 2.326 . S
O183 In182 2.294 . S
O183 C192 1.240 . S
O184 In182 2.326 . S
O184 C192 1.252 . S
C185 O188 1.252 . S
C185 O189 1.260 . S
C186 O193 1.240 . S
C186 O194 1.252 . S
C187 O190 1.252 . S
C187 O191 1.260 . S
O188 In182 2.266 . S
O188 C185 1.252 . S
O189 In182 2.326 . S
O189 C185 1.260 . S
O190 In182 2.266 . S
O190 C187 1.252 . S
O191 In182 2.326 . S
O191 C187 1.260 . S
C192 O183 1.240 . S
C192 O184 1.252 . S
O193 In182 2.294 . S
O193 C186 1.240 . S
O194 In182 2.326 . S
O194 C186 1.252 . S
In195 O196 2.294 . S
In195 O197 2.326 . S
In195 O201 2.266 . S
In195 O202 2.326 . S
In195 O203 2.266 . S
In195 O204 2.326 . S
In195 O206 2.294 . S
In195 O207 2.326 . S
O196 In195 2.294 . S
O196 C205 1.240 . S
O197 In195 2.326 . S
O197 C205 1.252 . S
C198 O201 1.252 . S
C198 O202 1.260 . S
C199 O206 1.240 . S
C199 O207 1.252 . S
C200 O203 1.252 . S
C200 O204 1.260 . S
O201 In195 2.266 . S
O201 C198 1.252 . S
O202 In195 2.326 . S
O202 C198 1.260 . S
O203 In195 2.266 . S
O203 C200 1.252 . S
O204 In195 2.326 . S
O204 C200 1.260 . S
C205 O196 1.240 . S
C205 O197 1.252 . S
O206 In195 2.294 . S
O206 C199 1.240 . S
O207 In195 2.326 . S
O207 C199 1.252 . S
In208 O209 2.294 . S
In208 O210 2.326 . S
In208 O214 2.266 . S
In208 O215 2.326 . S
In208 O216 2.266 . S
In208 O217 2.326 . S
In208 O219 2.294 . S
In208 O220 2.326 . S
O209 In208 2.294 . S
O209 C218 1.240 . S
O210 In208 2.326 . S
O210 C218 1.252 . S
C211 O214 1.252 . S
C211 O215 1.260 . S
C212 O219 1.240 . S
C212 O220 1.252 . S
C213 O216 1.252 . S
C213 O217 1.260 . S
O214 In208 2.266 . S
O214 C211 1.252 . S
O215 In208 2.326 . S
O215 C211 1.260 . S
O216 In208 2.266 . S
O216 C213 1.252 . S
O217 In208 2.326 . S
O217 C213 1.260 . S
C218 O209 1.240 . S
C218 O210 1.252 . S
O219 In208 2.294 . S
O219 C212 1.240 . S
O220 In208 2.326 . S
O220 C212 1.252 . S
In221 O222 2.294 . S
In221 O223 2.326 . S
In221 O227 2.266 . S
In221 O228 2.326 . S
In221 O229 2.266 1_655 S
In221 O230 2.326 1_655 S
In221 O232 2.294 . S
In221 O233 2.326 . S
O222 In221 2.294 . S
O222 C231 1.240 . S
O223 In221 2.326 . S
O223 C231 1.252 . S
C224 O227 1.252 . S
C224 O228 1.260 . S
C225 O232 1.240 . S
C225 O233 1.252 . S
C226 O229 1.252 . S
C226 O230 1.260 . S
O227 In221 2.266 . S
O227 C224 1.252 . S
O228 In221 2.326 . S
O228 C224 1.260 . S
O229 In221 2.266 1_455 S
O229 C226 1.252 . S
O230 In221 2.326 1_455 S
O230 C226 1.260 . S
C231 O222 1.240 . S
C231 O223 1.252 . S
O232 In221 2.294 . S
O232 C225 1.240 . S
O233 In221 2.326 . S
O233 C225 1.252 . S
H234 C261 0.929 . S
N235 C260 1.433 . S
N235 C266 1.435 . S
N235 C272 1.423 . S
H236 C262 0.930 . S
H237 C265 0.931 . S
H238 C264 0.929 . S
H239 C267 0.930 . S
H240 C268 0.932 . S
H241 C271 0.929 . S
H242 C270 0.931 . S
H243 C273 0.929 . S
H244 C277 0.932 . S
H245 C274 0.931 . S
H246 C276 0.929 . S
H247 C279 0.929 . S
H248 C280 0.930 . S
H249 C282 0.929 . S
H250 C283 0.931 . S
H251 C285 0.930 . S
H252 C286 0.932 . S
H253 C288 0.931 . S
H254 C289 0.929 . S
H255 C291 0.929 . S
H256 C292 0.931 . S
H257 C294 0.929 . S
N258 C278 1.433 . S
N258 C284 1.435 . S
N258 C290 1.423 . S
H259 C295 0.932 . S
C260 N235 1.433 . S
C260 C261 1.363 . S
C260 C265 1.370 . S
C261 H234 0.929 . S
C261 C260 1.363 . S
C261 C262 1.385 . S
C262 H236 0.930 . S
C262 C261 1.385 . S
C262 C263 1.357 . S
C263 C262 1.357 . S
C263 C264 1.406 . S
C264 H238 0.929 . S
C264 C263 1.406 . S
C264 C265 1.391 . S
C265 H237 0.931 . S
C265 C260 1.370 . S
C265 C264 1.391 . S
C266 N235 1.435 . S
C266 C267 1.358 . S
C266 C271 1.371 . S
C267 H239 0.930 . S
C267 C266 1.358 . S
C267 C268 1.405 . S
C268 H240 0.932 . S
C268 C267 1.405 . S
C268 C269 1.383 . S
C269 C268 1.383 . S
C269 C270 1.393 . S
C270 H242 0.931 . S
C270 C269 1.393 . S
C270 C271 1.382 . S
C271 H241 0.929 . S
C271 C266 1.371 . S
C271 C270 1.382 . S
C272 N235 1.423 . S
C272 C273 1.362 . S
C272 C277 1.388 . S
C273 H243 0.929 . S
C273 C272 1.362 . S
C273 C274 1.376 . S
C274 H245 0.931 . S
C274 C273 1.376 . S
C274 C275 1.396 . S
C275 C274 1.396 . S
C275 C276 1.348 . S
C275 C293 1.472 . S
C276 H246 0.929 . S
C276 C275 1.348 . S
C276 C277 1.443 . S
C277 H244 0.932 . S
C277 C272 1.388 . S
C277 C276 1.443 . S
C278 N258 1.433 . S
C278 C279 1.363 . S
C278 C283 1.370 . S
C279 H247 0.929 . S
C279 C278 1.363 . S
C279 C280 1.385 . S
C280 H248 0.930 . S
C280 C279 1.385 . S
C280 C281 1.357 . S
C281 C280 1.357 . S
C281 C282 1.406 . S
C282 H249 0.929 . S
C282 C281 1.406 . S
C282 C283 1.391 . S
C283 H250 0.931 . S
C283 C278 1.370 . S
C283 C282 1.391 . S
C284 N258 1.435 . S
C284 C285 1.358 . S
C284 C289 1.371 . S
C285 H251 0.930 . S
C285 C284 1.358 . S
C285 C286 1.405 . S
C286 H252 0.932 . S
C286 C285 1.405 . S
C286 C287 1.383 . S
C287 C286 1.383 . S
C287 C288 1.393 . S
C288 H253 0.931 . S
C288 C287 1.393 . S
C288 C289 1.382 . S
C289 H254 0.929 . S
C289 C284 1.371 . S
C289 C288 1.382 . S
C290 N258 1.423 . S
C290 C291 1.362 . S
C290 C295 1.388 . S
C291 H255 0.929 . S
C291 C290 1.362 . S
C291 C292 1.376 . S
C292 H256 0.931 . S
C292 C291 1.376 . S
C292 C293 1.396 . S
C293 C275 1.472 . S
C293 C292 1.396 . S
C293 C294 1.348 . S
C294 H257 0.929 . S
C294 C293 1.348 . S
C294 C295 1.443 . S
C295 H259 0.932 . S
C295 C290 1.388 . S
C295 C294 1.443 . S
H296 C323 0.929 . S
N297 C322 1.433 . S
N297 C328 1.435 . S
N297 C334 1.423 . S
H298 C324 0.930 . S
H299 C327 0.931 . S
H300 C326 0.929 . S
H301 C329 0.930 . S
H302 C330 0.932 . S
H303 C333 0.929 . S
H304 C332 0.931 . S
H305 C335 0.929 . S
H306 C339 0.932 . S
H307 C336 0.931 . S
H308 C338 0.929 . S
H309 C341 0.929 . S
H310 C342 0.930 . S
H311 C344 0.929 . S
H312 C345 0.931 . S
H313 C347 0.930 . S
H314 C348 0.932 . S
H315 C350 0.931 . S
H316 C351 0.929 . S
H317 C353 0.929 . S
H318 C354 0.931 . S
H319 C356 0.929 . S
N320 C340 1.433 . S
N320 C346 1.435 . S
N320 C352 1.423 . S
H321 C357 0.932 . S
C322 N297 1.433 . S
C322 C323 1.363 . S
C322 C327 1.370 . S
C323 H296 0.929 . S
C323 C322 1.363 . S
C323 C324 1.385 . S
C324 H298 0.930 . S
C324 C323 1.385 . S
C324 C325 1.357 . S
C325 C324 1.357 . S
C325 C326 1.406 . S
C326 H300 0.929 . S
C326 C325 1.406 . S
C326 C327 1.391 . S
C327 H299 0.931 . S
C327 C322 1.370 . S
C327 C326 1.391 . S
C328 N297 1.435 . S
C328 C329 1.358 . S
C328 C333 1.371 . S
C329 H301 0.930 . S
C329 C328 1.358 . S
C329 C330 1.405 . S
C330 H302 0.932 . S
C330 C329 1.405 . S
C330 C331 1.383 . S
C331 C330 1.383 . S
C331 C332 1.393 . S
C332 H304 0.931 . S
C332 C331 1.393 . S
C332 C333 1.382 . S
C333 H303 0.929 . S
C333 C328 1.371 . S
C333 C332 1.382 . S
C334 N297 1.423 . S
C334 C335 1.362 . S
C334 C339 1.388 . S
C335 H305 0.929 . S
C335 C334 1.362 . S
C335 C336 1.376 . S
C336 H307 0.931 . S
C336 C335 1.376 . S
C336 C337 1.396 . S
C337 C336 1.396 . S
C337 C338 1.348 . S
C337 C355 1.472 . S
C338 H308 0.929 . S
C338 C337 1.348 . S
C338 C339 1.443 . S
C339 H306 0.932 . S
C339 C334 1.388 . S
C339 C338 1.443 . S
C340 N320 1.433 . S
C340 C341 1.363 . S
C340 C345 1.370 . S
C341 H309 0.929 . S
C341 C340 1.363 . S
C341 C342 1.385 . S
C342 H310 0.930 . S
C342 C341 1.385 . S
C342 C343 1.357 . S
C343 C342 1.357 . S
C343 C344 1.406 . S
C344 H311 0.929 . S
C344 C343 1.406 . S
C344 C345 1.391 . S
C345 H312 0.931 . S
C345 C340 1.370 . S
C345 C344 1.391 . S
C346 N320 1.435 . S
C346 C347 1.358 . S
C346 C351 1.371 . S
C347 H313 0.930 . S
C347 C346 1.358 . S
C347 C348 1.405 . S
C348 H314 0.932 . S
C348 C347 1.405 . S
C348 C349 1.383 . S
C349 C348 1.383 . S
C349 C350 1.393 . S
C350 H315 0.931 . S
C350 C349 1.393 . S
C350 C351 1.382 . S
C351 H316 0.929 . S
C351 C346 1.371 . S
C351 C350 1.382 . S
C352 N320 1.423 . S
C352 C353 1.362 . S
C352 C357 1.388 . S
C353 H317 0.929 . S
C353 C352 1.362 . S
C353 C354 1.376 . S
C354 H318 0.931 . S
C354 C353 1.376 . S
C354 C355 1.396 . S
C355 C337 1.472 . S
C355 C354 1.396 . S
C355 C356 1.348 . S
C356 H319 0.929 . S
C356 C355 1.348 . S
C356 C357 1.443 . S
C357 H321 0.932 . S
C357 C352 1.388 . S
C357 C356 1.443 . S
H358 C385 0.929 . S
N359 C384 1.433 . S
N359 C390 1.435 . S
N359 C396 1.423 . S
H360 C386 0.930 . S
H361 C389 0.931 . S
H362 C388 0.929 . S
H363 C391 0.930 . S
H364 C392 0.932 . S
H365 C395 0.929 . S
H366 C394 0.931 . S
H367 C397 0.929 . S
H368 C401 0.932 . S
H369 C398 0.931 . S
H370 C400 0.929 . S
H371 C403 0.929 . S
H372 C404 0.930 . S
H373 C406 0.929 . S
H374 C407 0.931 . S
H375 C409 0.930 . S
H376 C410 0.932 . S
H377 C412 0.931 . S
H378 C413 0.929 . S
H379 C415 0.929 . S
H380 C416 0.931 . S
H381 C418 0.929 . S
N382 C402 1.433 . S
N382 C408 1.435 . S
N382 C414 1.423 . S
H383 C419 0.932 . S
C384 N359 1.433 . S
C384 C385 1.363 . S
C384 C389 1.370 . S
C385 H358 0.929 . S
C385 C384 1.363 . S
C385 C386 1.385 . S
C386 H360 0.930 . S
C386 C385 1.385 . S
C386 C387 1.357 . S
C387 C386 1.357 . S
C387 C388 1.406 . S
C388 H362 0.929 . S
C388 C387 1.406 . S
C388 C389 1.391 . S
C389 H361 0.931 . S
C389 C384 1.370 . S
C389 C388 1.391 . S
C390 N359 1.435 . S
C390 C391 1.358 . S
C390 C395 1.371 . S
C391 H363 0.930 . S
C391 C390 1.358 . S
C391 C392 1.405 . S
C392 H364 0.932 . S
C392 C391 1.405 . S
C392 C393 1.383 . S
C393 C392 1.383 . S
C393 C394 1.393 . S
C394 H366 0.931 . S
C394 C393 1.393 . S
C394 C395 1.382 . S
C395 H365 0.929 . S
C395 C390 1.371 . S
C395 C394 1.382 . S
C396 N359 1.423 . S
C396 C397 1.362 . S
C396 C401 1.388 . S
C397 H367 0.929 . S
C397 C396 1.362 . S
C397 C398 1.376 . S
C398 H369 0.931 . S
C398 C397 1.376 . S
C398 C399 1.396 . S
C399 C398 1.396 . S
C399 C400 1.348 . S
C399 C417 1.472 . S
C400 H370 0.929 . S
C400 C399 1.348 . S
C400 C401 1.443 . S
C401 H368 0.932 . S
C401 C396 1.388 . S
C401 C400 1.443 . S
C402 N382 1.433 . S
C402 C403 1.363 . S
C402 C407 1.370 . S
C403 H371 0.929 . S
C403 C402 1.363 . S
C403 C404 1.385 . S
C404 H372 0.930 . S
C404 C403 1.385 . S
C404 C405 1.357 . S
C405 C404 1.357 . S
C405 C406 1.406 . S
C406 H373 0.929 . S
C406 C405 1.406 . S
C406 C407 1.391 . S
C407 H374 0.931 . S
C407 C402 1.370 . S
C407 C406 1.391 . S
C408 N382 1.435 . S
C408 C409 1.358 . S
C408 C413 1.371 . S
C409 H375 0.930 . S
C409 C408 1.358 . S
C409 C410 1.405 . S
C410 H376 0.932 . S
C410 C409 1.405 . S
C410 C411 1.383 . S
C411 C410 1.383 . S
C411 C412 1.393 . S
C412 H377 0.931 . S
C412 C411 1.393 . S
C412 C413 1.382 . S
C413 H378 0.929 . S
C413 C408 1.371 . S
C413 C412 1.382 . S
C414 N382 1.423 . S
C414 C415 1.362 . S
C414 C419 1.388 . S
C415 H379 0.929 . S
C415 C414 1.362 . S
C415 C416 1.376 . S
C416 H380 0.931 . S
C416 C415 1.376 . S
C416 C417 1.396 . S
C417 C399 1.472 . S
C417 C416 1.396 . S
C417 C418 1.348 . S
C418 H381 0.929 . S
C418 C417 1.348 . S
C418 C419 1.443 . S
C419 H383 0.932 . S
C419 C414 1.388 . S
C419 C418 1.443 . S
H420 C447 0.929 . S
N421 C446 1.433 . S
N421 C452 1.435 . S
N421 C458 1.423 . S
H422 C448 0.930 . S
H423 C451 0.931 . S
H424 C450 0.929 . S
H425 C453 0.930 . S
H426 C454 0.932 . S
H427 C457 0.929 . S
H428 C456 0.931 . S
H429 C459 0.929 . S
H430 C463 0.932 . S
H431 C460 0.931 . S
H432 C462 0.929 . S
H433 C465 0.929 . S
H434 C466 0.930 . S
H435 C468 0.929 . S
H436 C469 0.931 . S
H437 C471 0.930 . S
H438 C472 0.932 . S
H439 C474 0.931 . S
H440 C475 0.929 . S
H441 C477 0.929 . S
H442 C478 0.931 . S
H443 C480 0.929 . S
N444 C464 1.433 . S
N444 C470 1.435 . S
N444 C476 1.423 . S
H445 C481 0.932 . S
C446 N421 1.433 . S
C446 C447 1.363 . S
C446 C451 1.370 . S
C447 H420 0.929 . S
C447 C446 1.363 . S
C447 C448 1.385 . S
C448 H422 0.930 . S
C448 C447 1.385 . S
C448 C449 1.357 . S
C449 C448 1.357 . S
C449 C450 1.406 . S
C450 H424 0.929 . S
C450 C449 1.406 . S
C450 C451 1.391 . S
C451 H423 0.931 . S
C451 C446 1.370 . S
C451 C450 1.391 . S
C452 N421 1.435 . S
C452 C453 1.358 . S
C452 C457 1.371 . S
C453 H425 0.930 . S
C453 C452 1.358 . S
C453 C454 1.405 . S
C454 H426 0.932 . S
C454 C453 1.405 . S
C454 C455 1.383 . S
C455 C454 1.383 . S
C455 C456 1.393 . S
C456 H428 0.931 . S
C456 C455 1.393 . S
C456 C457 1.382 . S
C457 H427 0.929 . S
C457 C452 1.371 . S
C457 C456 1.382 . S
C458 N421 1.423 . S
C458 C459 1.362 . S
C458 C463 1.388 . S
C459 H429 0.929 . S
C459 C458 1.362 . S
C459 C460 1.376 . S
C460 H431 0.931 . S
C460 C459 1.376 . S
C460 C461 1.396 . S
C461 C460 1.396 . S
C461 C462 1.348 . S
C461 C479 1.472 . S
C462 H432 0.929 . S
C462 C461 1.348 . S
C462 C463 1.443 . S
C463 H430 0.932 . S
C463 C458 1.388 . S
C463 C462 1.443 . S
C464 N444 1.433 . S
C464 C465 1.363 . S
C464 C469 1.370 . S
C465 H433 0.929 . S
C465 C464 1.363 . S
C465 C466 1.385 . S
C466 H434 0.930 . S
C466 C465 1.385 . S
C466 C467 1.357 . S
C467 C466 1.357 . S
C467 C468 1.406 . S
C468 H435 0.929 . S
C468 C467 1.406 . S
C468 C469 1.391 . S
C469 H436 0.931 . S
C469 C464 1.370 . S
C469 C468 1.391 . S
C470 N444 1.435 . S
C470 C471 1.358 . S
C470 C475 1.371 . S
C471 H437 0.930 . S
C471 C470 1.358 . S
C471 C472 1.405 . S
C472 H438 0.932 . S
C472 C471 1.405 . S
C472 C473 1.383 . S
C473 C472 1.383 . S
C473 C474 1.393 . S
C474 H439 0.931 . S
C474 C473 1.393 . S
C474 C475 1.382 . S
C475 H440 0.929 . S
C475 C470 1.371 . S
C475 C474 1.382 . S
C476 N444 1.423 . S
C476 C477 1.362 . S
C476 C481 1.388 . S
C477 H441 0.929 . S
C477 C476 1.362 . S
C477 C478 1.376 . S
C478 H442 0.931 . S
C478 C477 1.376 . S
C478 C479 1.396 . S
C479 C461 1.472 . S
C479 C478 1.396 . S
C479 C480 1.348 . S
C480 H443 0.929 . S
C480 C479 1.348 . S
C480 C481 1.443 . S
C481 H445 0.932 . S
C481 C476 1.388 . S
C481 C480 1.443 . S
H482 C509 0.929 . S
N483 C508 1.433 . S
N483 C514 1.435 . S
N483 C520 1.423 . S
H484 C510 0.930 . S
H485 C513 0.931 . S
H486 C512 0.929 . S
H487 C515 0.930 . S
H488 C516 0.932 . S
H489 C519 0.929 . S
H490 C518 0.931 . S
H491 C521 0.929 . S
H492 C525 0.932 . S
H493 C522 0.931 . S
H494 C524 0.929 . S
H495 C527 0.929 . S
H496 C528 0.930 . S
H497 C530 0.929 . S
H498 C531 0.931 . S
H499 C533 0.930 . S
H500 C534 0.932 . S
H501 C536 0.931 . S
H502 C537 0.929 . S
H503 C539 0.929 . S
H504 C540 0.931 . S
H505 C542 0.929 . S
N506 C526 1.433 . S
N506 C532 1.435 . S
N506 C538 1.423 . S
H507 C543 0.932 . S
C508 N483 1.433 . S
C508 C509 1.363 . S
C508 C513 1.370 . S
C509 H482 0.929 . S
C509 C508 1.363 . S
C509 C510 1.385 . S
C510 H484 0.930 . S
C510 C509 1.385 . S
C510 C511 1.357 . S
C511 C510 1.357 . S
C511 C512 1.406 . S
C512 H486 0.929 . S
C512 C511 1.406 . S
C512 C513 1.391 . S
C513 H485 0.931 . S
C513 C508 1.370 . S
C513 C512 1.391 . S
C514 N483 1.435 . S
C514 C515 1.358 . S
C514 C519 1.371 . S
C515 H487 0.930 . S
C515 C514 1.358 . S
C515 C516 1.405 . S
C516 H488 0.932 . S
C516 C515 1.405 . S
C516 C517 1.383 . S
C517 C516 1.383 . S
C517 C518 1.393 . S
C518 H490 0.931 . S
C518 C517 1.393 . S
C518 C519 1.382 . S
C519 H489 0.929 . S
C519 C514 1.371 . S
C519 C518 1.382 . S
C520 N483 1.423 . S
C520 C521 1.362 . S
C520 C525 1.388 . S
C521 H491 0.929 . S
C521 C520 1.362 . S
C521 C522 1.376 . S
C522 H493 0.931 . S
C522 C521 1.376 . S
C522 C523 1.396 . S
C523 C522 1.396 . S
C523 C524 1.348 . S
C523 C541 1.472 . S
C524 H494 0.929 . S
C524 C523 1.348 . S
C524 C525 1.443 . S
C525 H492 0.932 . S
C525 C520 1.388 . S
C525 C524 1.443 . S
C526 N506 1.433 . S
C526 C527 1.363 . S
C526 C531 1.370 . S
C527 H495 0.929 . S
C527 C526 1.363 . S
C527 C528 1.385 . S
C528 H496 0.930 . S
C528 C527 1.385 . S
C528 C529 1.357 . S
C529 C528 1.357 . S
C529 C530 1.406 . S
C530 H497 0.929 . S
C530 C529 1.406 . S
C530 C531 1.391 . S
C531 H498 0.931 . S
C531 C526 1.370 . S
C531 C530 1.391 . S
C532 N506 1.435 . S
C532 C533 1.358 . S
C532 C537 1.371 . S
C533 H499 0.930 . S
C533 C532 1.358 . S
C533 C534 1.405 . S
C534 H500 0.932 . S
C534 C533 1.405 . S
C534 C535 1.383 . S
C535 C534 1.383 . S
C535 C536 1.393 . S
C536 H501 0.931 . S
C536 C535 1.393 . S
C536 C537 1.382 . S
C537 H502 0.929 . S
C537 C532 1.371 . S
C537 C536 1.382 . S
C538 N506 1.423 . S
C538 C539 1.362 . S
C538 C543 1.388 . S
C539 H503 0.929 . S
C539 C538 1.362 . S
C539 C540 1.376 . S
C540 H504 0.931 . S
C540 C539 1.376 . S
C540 C541 1.396 . S
C541 C523 1.472 . S
C541 C540 1.396 . S
C541 C542 1.348 . S
C542 H505 0.929 . S
C542 C541 1.348 . S
C542 C543 1.443 . S
C543 H507 0.932 . S
C543 C538 1.388 . S
C543 C542 1.443 . S
H544 C571 0.929 . S
N545 C570 1.433 . S
N545 C576 1.435 . S
N545 C582 1.423 . S
H546 C572 0.930 . S
H547 C575 0.931 . S
H548 C574 0.929 . S
H549 C577 0.930 . S
H550 C578 0.932 . S
H551 C581 0.929 . S
H552 C580 0.931 . S
H553 C583 0.929 . S
H554 C587 0.932 . S
H555 C584 0.931 . S
H556 C586 0.929 . S
H557 C589 0.929 . S
H558 C590 0.930 . S
H559 C592 0.929 . S
H560 C593 0.931 . S
H561 C595 0.930 . S
H562 C596 0.932 . S
H563 C598 0.931 . S
H564 C599 0.929 . S
H565 C601 0.929 . S
H566 C602 0.931 . S
H567 C604 0.929 . S
N568 C588 1.433 . S
N568 C594 1.435 . S
N568 C600 1.423 . S
H569 C605 0.932 . S
C570 N545 1.433 . S
C570 C571 1.363 . S
C570 C575 1.370 . S
C571 H544 0.929 . S
C571 C570 1.363 . S
C571 C572 1.385 . S
C572 H546 0.930 . S
C572 C571 1.385 . S
C572 C573 1.357 . S
C573 C572 1.357 . S
C573 C574 1.406 . S
C574 H548 0.929 . S
C574 C573 1.406 . S
C574 C575 1.391 . S
C575 H547 0.931 . S
C575 C570 1.370 . S
C575 C574 1.391 . S
C576 N545 1.435 . S
C576 C577 1.358 . S
C576 C581 1.371 . S
C577 H549 0.930 . S
C577 C576 1.358 . S
C577 C578 1.405 . S
C578 H550 0.932 . S
C578 C577 1.405 . S
C578 C579 1.383 . S
C579 C578 1.383 . S
C579 C580 1.393 . S
C580 H552 0.931 . S
C580 C579 1.393 . S
C580 C581 1.382 . S
C581 H551 0.929 . S
C581 C576 1.371 . S
C581 C580 1.382 . S
C582 N545 1.423 . S
C582 C583 1.362 . S
C582 C587 1.388 . S
C583 H553 0.929 . S
C583 C582 1.362 . S
C583 C584 1.376 . S
C584 H555 0.931 . S
C584 C583 1.376 . S
C584 C585 1.396 . S
C585 C584 1.396 . S
C585 C586 1.348 . S
C585 C603 1.472 . S
C586 H556 0.929 . S
C586 C585 1.348 . S
C586 C587 1.443 . S
C587 H554 0.932 . S
C587 C582 1.388 . S
C587 C586 1.443 . S
C588 N568 1.433 . S
C588 C589 1.363 . S
C588 C593 1.370 . S
C589 H557 0.929 . S
C589 C588 1.363 . S
C589 C590 1.385 . S
C590 H558 0.930 . S
C590 C589 1.385 . S
C590 C591 1.357 . S
C591 C590 1.357 . S
C591 C592 1.406 . S
C592 H559 0.929 . S
C592 C591 1.406 . S
C592 C593 1.391 . S
C593 H560 0.931 . S
C593 C588 1.370 . S
C593 C592 1.391 . S
C594 N568 1.435 . S
C594 C595 1.358 . S
C594 C599 1.371 . S
C595 H561 0.930 . S
C595 C594 1.358 . S
C595 C596 1.405 . S
C596 H562 0.932 . S
C596 C595 1.405 . S
C596 C597 1.383 . S
C597 C596 1.383 . S
C597 C598 1.393 . S
C598 H563 0.931 . S
C598 C597 1.393 . S
C598 C599 1.382 . S
C599 H564 0.929 . S
C599 C594 1.371 . S
C599 C598 1.382 . S
C600 N568 1.423 . S
C600 C601 1.362 . S
C600 C605 1.388 . S
C601 H565 0.929 . S
C601 C600 1.362 . S
C601 C602 1.376 . S
C602 H566 0.931 . S
C602 C601 1.376 . S
C602 C603 1.396 . S
C603 C585 1.472 . S
C603 C602 1.396 . S
C603 C604 1.348 . S
C604 H567 0.929 . S
C604 C603 1.348 . S
C604 C605 1.443 . S
C605 H569 0.932 . S
C605 C600 1.388 . S
C605 C604 1.443 . S
H606 C633 0.929 . S
N607 C632 1.433 . S
N607 C638 1.435 . S
N607 C644 1.423 . S
H608 C634 0.930 . S
H609 C637 0.931 . S
H610 C636 0.929 . S
H611 C639 0.930 . S
H612 C640 0.932 . S
H613 C643 0.929 . S
H614 C642 0.931 . S
H615 C645 0.929 . S
H616 C649 0.932 . S
H617 C646 0.931 . S
H618 C648 0.929 . S
H619 C651 0.929 . S
H620 C652 0.930 . S
H621 C654 0.929 . S
H622 C655 0.931 . S
H623 C657 0.930 . S
H624 C658 0.932 . S
H625 C660 0.931 . S
H626 C661 0.929 . S
H627 C663 0.929 . S
H628 C664 0.931 . S
H629 C666 0.929 . S
N630 C650 1.433 . S
N630 C656 1.435 . S
N630 C662 1.423 . S
H631 C667 0.932 . S
C632 N607 1.433 . S
C632 C633 1.363 . S
C632 C637 1.370 . S
C633 H606 0.929 . S
C633 C632 1.363 . S
C633 C634 1.385 . S
C634 H608 0.930 . S
C634 C633 1.385 . S
C634 C635 1.357 . S
C635 C634 1.357 . S
C635 C636 1.406 . S
C636 H610 0.929 . S
C636 C635 1.406 . S
C636 C637 1.391 . S
C637 H609 0.931 . S
C637 C632 1.370 . S
C637 C636 1.391 . S
C638 N607 1.435 . S
C638 C639 1.358 . S
C638 C643 1.371 . S
C639 H611 0.930 . S
C639 C638 1.358 . S
C639 C640 1.405 . S
C640 H612 0.932 . S
C640 C639 1.405 . S
C640 C641 1.383 . S
C641 C640 1.383 . S
C641 C642 1.393 . S
C642 H614 0.931 . S
C642 C641 1.393 . S
C642 C643 1.382 . S
C643 H613 0.929 . S
C643 C638 1.371 . S
C643 C642 1.382 . S
C644 N607 1.423 . S
C644 C645 1.362 . S
C644 C649 1.388 . S
C645 H615 0.929 . S
C645 C644 1.362 . S
C645 C646 1.376 . S
C646 H617 0.931 . S
C646 C645 1.376 . S
C646 C647 1.396 . S
C647 C646 1.396 . S
C647 C648 1.348 . S
C647 C665 1.472 . S
C648 H618 0.929 . S
C648 C647 1.348 . S
C648 C649 1.443 . S
C649 H616 0.932 . S
C649 C644 1.388 . S
C649 C648 1.443 . S
C650 N630 1.433 . S
C650 C651 1.363 . S
C650 C655 1.370 . S
C651 H619 0.929 . S
C651 C650 1.363 . S
C651 C652 1.385 . S
C652 H620 0.930 . S
C652 C651 1.385 . S
C652 C653 1.357 . S
C653 C652 1.357 . S
C653 C654 1.406 . S
C654 H621 0.929 . S
C654 C653 1.406 . S
C654 C655 1.391 . S
C655 H622 0.931 . S
C655 C650 1.370 . S
C655 C654 1.391 . S
C656 N630 1.435 . S
C656 C657 1.358 . S
C656 C661 1.371 . S
C657 H623 0.930 . S
C657 C656 1.358 . S
C657 C658 1.405 . S
C658 H624 0.932 . S
C658 C657 1.405 . S
C658 C659 1.383 . S
C659 C658 1.383 . S
C659 C660 1.393 . S
C660 H625 0.931 . S
C660 C659 1.393 . S
C660 C661 1.382 . S
C661 H626 0.929 . S
C661 C656 1.371 . S
C661 C660 1.382 . S
C662 N630 1.423 . S
C662 C663 1.362 . S
C662 C667 1.388 . S
C663 H627 0.929 . S
C663 C662 1.362 . S
C663 C664 1.376 . S
C664 H628 0.931 . S
C664 C663 1.376 . S
C664 C665 1.396 . S
C665 C647 1.472 . S
C665 C664 1.396 . S
C665 C666 1.348 . S
C666 H629 0.929 . S
C666 C665 1.348 . S
C666 C667 1.443 . S
C667 H631 0.932 . S
C667 C662 1.388 . S
C667 C666 1.443 . S
H668 C695 0.929 . S
N669 C694 1.433 . S
N669 C700 1.435 . S
N669 C706 1.423 . S
H670 C696 0.930 . S
H671 C699 0.931 . S
H672 C698 0.929 . S
H673 C701 0.930 . S
H674 C702 0.932 . S
H675 C705 0.929 . S
H676 C704 0.931 . S
H677 C707 0.929 . S
H678 C711 0.932 . S
H679 C708 0.931 . S
H680 C710 0.929 . S
H681 C713 0.929 . S
H682 C714 0.930 . S
H683 C716 0.929 . S
H684 C717 0.931 . S
H685 C719 0.930 . S
H686 C720 0.932 . S
H687 C722 0.931 . S
H688 C723 0.929 . S
H689 C725 0.929 . S
H690 C726 0.931 . S
H691 C728 0.929 . S
N692 C712 1.433 . S
N692 C718 1.435 . S
N692 C724 1.423 . S
H693 C729 0.932 . S
C694 N669 1.433 . S
C694 C695 1.363 . S
C694 C699 1.370 . S
C695 H668 0.929 . S
C695 C694 1.363 . S
C695 C696 1.385 . S
C696 H670 0.930 . S
C696 C695 1.385 . S
C696 C697 1.357 . S
C697 C696 1.357 . S
C697 C698 1.406 . S
C698 H672 0.929 . S
C698 C697 1.406 . S
C698 C699 1.391 . S
C699 H671 0.931 . S
C699 C694 1.370 . S
C699 C698 1.391 . S
C700 N669 1.435 . S
C700 C701 1.358 . S
C700 C705 1.371 . S
C701 H673 0.930 . S
C701 C700 1.358 . S
C701 C702 1.405 . S
C702 H674 0.932 . S
C702 C701 1.405 . S
C702 C703 1.383 . S
C703 C702 1.383 . S
C703 C704 1.393 . S
C704 H676 0.931 . S
C704 C703 1.393 . S
C704 C705 1.382 . S
C705 H675 0.929 . S
C705 C700 1.371 . S
C705 C704 1.382 . S
C706 N669 1.423 . S
C706 C707 1.362 . S
C706 C711 1.388 . S
C707 H677 0.929 . S
C707 C706 1.362 . S
C707 C708 1.376 . S
C708 H679 0.931 . S
C708 C707 1.376 . S
C708 C709 1.396 . S
C709 C708 1.396 . S
C709 C710 1.348 . S
C709 C727 1.472 . S
C710 H680 0.929 . S
C710 C709 1.348 . S
C710 C711 1.443 . S
C711 H678 0.932 . S
C711 C706 1.388 . S
C711 C710 1.443 . S
C712 N692 1.433 . S
C712 C713 1.363 . S
C712 C717 1.370 . S
C713 H681 0.929 . S
C713 C712 1.363 . S
C713 C714 1.385 . S
C714 H682 0.930 . S
C714 C713 1.385 . S
C714 C715 1.357 . S
C715 C714 1.357 . S
C715 C716 1.406 . S
C716 H683 0.929 . S
C716 C715 1.406 . S
C716 C717 1.391 . S
C717 H684 0.931 . S
C717 C712 1.370 . S
C717 C716 1.391 . S
C718 N692 1.435 . S
C718 C719 1.358 . S
C718 C723 1.371 . S
C719 H685 0.930 . S
C719 C718 1.358 . S
C719 C720 1.405 . S
C720 H686 0.932 . S
C720 C719 1.405 . S
C720 C721 1.383 . S
C721 C720 1.383 . S
C721 C722 1.393 . S
C722 H687 0.931 . S
C722 C721 1.393 . S
C722 C723 1.382 . S
C723 H688 0.929 . S
C723 C718 1.371 . S
C723 C722 1.382 . S
C724 N692 1.423 . S
C724 C725 1.362 . S
C724 C729 1.388 . S
C725 H689 0.929 . S
C725 C724 1.362 . S
C725 C726 1.376 . S
C726 H690 0.931 . S
C726 C725 1.376 . S
C726 C727 1.396 . S
C727 C709 1.472 . S
C727 C726 1.396 . S
C727 C728 1.348 . S
C728 H691 0.929 . S
C728 C727 1.348 . S
C728 C729 1.443 . S
C729 H693 0.932 . S
C729 C724 1.388 . S
C729 C728 1.443 . S
H730 C757 0.929 . S
N731 C756 1.433 . S
N731 C762 1.435 . S
N731 C768 1.423 . S
H732 C758 0.930 . S
H733 C761 0.931 . S
H734 C760 0.929 . S
H735 C763 0.930 . S
H736 C764 0.932 . S
H737 C767 0.929 . S
H738 C766 0.931 . S
H739 C769 0.929 . S
H740 C773 0.932 . S
H741 C770 0.931 . S
H742 C772 0.929 . S
H743 C775 0.929 . S
H744 C776 0.930 . S
H745 C778 0.929 . S
H746 C779 0.931 . S
H747 C781 0.930 . S
H748 C782 0.932 . S
H749 C784 0.931 . S
H750 C785 0.929 . S
H751 C787 0.929 . S
H752 C788 0.931 . S
H753 C790 0.929 . S
N754 C774 1.433 . S
N754 C780 1.435 . S
N754 C786 1.423 . S
H755 C791 0.932 . S
C756 N731 1.433 . S
C756 C757 1.363 . S
C756 C761 1.370 . S
C757 H730 0.929 . S
C757 C756 1.363 . S
C757 C758 1.385 . S
C758 H732 0.930 . S
C758 C757 1.385 . S
C758 C759 1.357 . S
C759 C758 1.357 . S
C759 C760 1.406 . S
C760 H734 0.929 . S
C760 C759 1.406 . S
C760 C761 1.391 . S
C761 H733 0.931 . S
C761 C756 1.370 . S
C761 C760 1.391 . S
C762 N731 1.435 . S
C762 C763 1.358 . S
C762 C767 1.371 . S
C763 H735 0.930 . S
C763 C762 1.358 . S
C763 C764 1.405 . S
C764 H736 0.932 . S
C764 C763 1.405 . S
C764 C765 1.383 . S
C765 C764 1.383 . S
C765 C766 1.393 . S
C766 H738 0.931 . S
C766 C765 1.393 . S
C766 C767 1.382 . S
C767 H737 0.929 . S
C767 C762 1.371 . S
C767 C766 1.382 . S
C768 N731 1.423 . S
C768 C769 1.362 . S
C768 C773 1.388 . S
C769 H739 0.929 . S
C769 C768 1.362 . S
C769 C770 1.376 . S
C770 H741 0.931 . S
C770 C769 1.376 . S
C770 C771 1.396 . S
C771 C770 1.396 . S
C771 C772 1.348 . S
C771 C789 1.472 . S
C772 H742 0.929 . S
C772 C771 1.348 . S
C772 C773 1.443 . S
C773 H740 0.932 . S
C773 C768 1.388 . S
C773 C772 1.443 . S
C774 N754 1.433 . S
C774 C775 1.363 . S
C774 C779 1.370 . S
C775 H743 0.929 . S
C775 C774 1.363 . S
C775 C776 1.385 . S
C776 H744 0.930 . S
C776 C775 1.385 . S
C776 C777 1.357 . S
C777 C776 1.357 . S
C777 C778 1.406 . S
C778 H745 0.929 . S
C778 C777 1.406 . S
C778 C779 1.391 . S
C779 H746 0.931 . S
C779 C774 1.370 . S
C779 C778 1.391 . S
C780 N754 1.435 . S
C780 C781 1.358 . S
C780 C785 1.371 . S
C781 H747 0.930 . S
C781 C780 1.358 . S
C781 C782 1.405 . S
C782 H748 0.932 . S
C782 C781 1.405 . S
C782 C783 1.383 . S
C783 C782 1.383 . S
C783 C784 1.393 . S
C784 H749 0.931 . S
C784 C783 1.393 . S
C784 C785 1.382 . S
C785 H750 0.929 . S
C785 C780 1.371 . S
C785 C784 1.382 . S
C786 N754 1.423 . S
C786 C787 1.362 . S
C786 C791 1.388 . S
C787 H751 0.929 . S
C787 C786 1.362 . S
C787 C788 1.376 . S
C788 H752 0.931 . S
C788 C787 1.376 . S
C788 C789 1.396 . S
C789 C771 1.472 . S
C789 C788 1.396 . S
C789 C790 1.348 . S
C790 H753 0.929 . S
C790 C789 1.348 . S
C790 C791 1.443 . S
C791 H755 0.932 . S
C791 C786 1.388 . S
C791 C790 1.443 . S
H792 C819 0.929 . S
N793 C818 1.433 . S
N793 C824 1.435 . S
N793 C830 1.423 . S
H794 C820 0.930 . S
H795 C823 0.931 . S
H796 C822 0.929 . S
H797 C825 0.930 . S
H798 C826 0.932 . S
H799 C829 0.929 . S
H800 C828 0.931 . S
H801 C831 0.929 . S
H802 C835 0.932 . S
H803 C832 0.931 . S
H804 C834 0.929 . S
H805 C837 0.929 . S
H806 C838 0.930 . S
H807 C840 0.929 . S
H808 C841 0.931 . S
H809 C843 0.930 . S
H810 C844 0.932 . S
H811 C846 0.931 . S
H812 C847 0.929 . S
H813 C849 0.929 . S
H814 C850 0.931 . S
H815 C852 0.929 . S
N816 C836 1.433 . S
N816 C842 1.435 . S
N816 C848 1.423 . S
H817 C853 0.932 . S
C818 N793 1.433 . S
C818 C819 1.363 . S
C818 C823 1.370 . S
C819 H792 0.929 . S
C819 C818 1.363 . S
C819 C820 1.385 . S
C820 H794 0.930 . S
C820 C819 1.385 . S
C820 C821 1.357 . S
C821 C820 1.357 . S
C821 C822 1.406 . S
C822 H796 0.929 . S
C822 C821 1.406 . S
C822 C823 1.391 . S
C823 H795 0.931 . S
C823 C818 1.370 . S
C823 C822 1.391 . S
C824 N793 1.435 . S
C824 C825 1.358 . S
C824 C829 1.371 . S
C825 H797 0.930 . S
C825 C824 1.358 . S
C825 C826 1.405 . S
C826 H798 0.932 . S
C826 C825 1.405 . S
C826 C827 1.383 . S
C827 C826 1.383 . S
C827 C828 1.393 . S
C828 H800 0.931 . S
C828 C827 1.393 . S
C828 C829 1.382 . S
C829 H799 0.929 . S
C829 C824 1.371 . S
C829 C828 1.382 . S
C830 N793 1.423 . S
C830 C831 1.362 . S
C830 C835 1.388 . S
C831 H801 0.929 . S
C831 C830 1.362 . S
C831 C832 1.376 . S
C832 H803 0.931 . S
C832 C831 1.376 . S
C832 C833 1.396 . S
C833 C832 1.396 . S
C833 C834 1.348 . S
C833 C851 1.472 . S
C834 H804 0.929 . S
C834 C833 1.348 . S
C834 C835 1.443 . S
C835 H802 0.932 . S
C835 C830 1.388 . S
C835 C834 1.443 . S
C836 N816 1.433 . S
C836 C837 1.363 . S
C836 C841 1.370 . S
C837 H805 0.929 . S
C837 C836 1.363 . S
C837 C838 1.385 . S
C838 H806 0.930 . S
C838 C837 1.385 . S
C838 C839 1.357 . S
C839 C838 1.357 . S
C839 C840 1.406 . S
C840 H807 0.929 . S
C840 C839 1.406 . S
C840 C841 1.391 . S
C841 H808 0.931 . S
C841 C836 1.370 . S
C841 C840 1.391 . S
C842 N816 1.435 . S
C842 C843 1.358 . S
C842 C847 1.371 . S
C843 H809 0.930 . S
C843 C842 1.358 . S
C843 C844 1.405 . S
C844 H810 0.932 . S
C844 C843 1.405 . S
C844 C845 1.383 . S
C845 C844 1.383 . S
C845 C846 1.393 . S
C846 H811 0.931 . S
C846 C845 1.393 . S
C846 C847 1.382 . S
C847 H812 0.929 . S
C847 C842 1.371 . S
C847 C846 1.382 . S
C848 N816 1.423 . S
C848 C849 1.362 . S
C848 C853 1.388 . S
C849 H813 0.929 . S
C849 C848 1.362 . S
C849 C850 1.376 . S
C850 H814 0.931 . S
C850 C849 1.376 . S
C850 C851 1.396 . S
C851 C833 1.472 . S
C851 C850 1.396 . S
C851 C852 1.348 . S
C852 H815 0.929 . S
C852 C851 1.348 . S
C852 C853 1.443 . S
C853 H817 0.932 . S
C853 C848 1.388 . S
C853 C852 1.443 . S
H854 C881 0.929 . S
N855 C880 1.433 . S
N855 C886 1.435 . S
N855 C892 1.423 . S
H856 C882 0.930 . S
H857 C885 0.931 . S
H858 C884 0.929 . S
H859 C887 0.930 . S
H860 C888 0.932 . S
H861 C891 0.929 . S
H862 C890 0.931 . S
H863 C893 0.929 . S
H864 C897 0.932 . S
H865 C894 0.931 . S
H866 C896 0.929 . S
H867 C899 0.929 . S
H868 C900 0.930 . S
H869 C902 0.929 . S
H870 C903 0.931 . S
H871 C905 0.930 . S
H872 C906 0.932 . S
H873 C908 0.931 . S
H874 C909 0.929 . S
H875 C911 0.929 . S
H876 C912 0.931 . S
H877 C914 0.929 . S
N878 C898 1.433 . S
N878 C904 1.435 . S
N878 C910 1.423 . S
H879 C915 0.932 . S
C880 N855 1.433 . S
C880 C881 1.363 . S
C880 C885 1.370 . S
C881 H854 0.929 . S
C881 C880 1.363 . S
C881 C882 1.385 . S
C882 H856 0.930 . S
C882 C881 1.385 . S
C882 C883 1.357 . S
C883 C882 1.357 . S
C883 C884 1.406 . S
C884 H858 0.929 . S
C884 C883 1.406 . S
C884 C885 1.391 . S
C885 H857 0.931 . S
C885 C880 1.370 . S
C885 C884 1.391 . S
C886 N855 1.435 . S
C886 C887 1.358 . S
C886 C891 1.371 . S
C887 H859 0.930 . S
C887 C886 1.358 . S
C887 C888 1.405 . S
C888 H860 0.932 . S
C888 C887 1.405 . S
C888 C889 1.383 . S
C889 C888 1.383 . S
C889 C890 1.393 . S
C890 H862 0.931 . S
C890 C889 1.393 . S
C890 C891 1.382 . S
C891 H861 0.929 . S
C891 C886 1.371 . S
C891 C890 1.382 . S
C892 N855 1.423 . S
C892 C893 1.362 . S
C892 C897 1.388 . S
C893 H863 0.929 . S
C893 C892 1.362 . S
C893 C894 1.376 . S
C894 H865 0.931 . S
C894 C893 1.376 . S
C894 C895 1.396 . S
C895 C894 1.396 . S
C895 C896 1.348 . S
C895 C913 1.472 . S
C896 H866 0.929 . S
C896 C895 1.348 . S
C896 C897 1.443 . S
C897 H864 0.932 . S
C897 C892 1.388 . S
C897 C896 1.443 . S
C898 N878 1.433 . S
C898 C899 1.363 . S
C898 C903 1.370 . S
C899 H867 0.929 . S
C899 C898 1.363 . S
C899 C900 1.385 . S
C900 H868 0.930 . S
C900 C899 1.385 . S
C900 C901 1.357 . S
C901 C900 1.357 . S
C901 C902 1.406 . S
C902 H869 0.929 . S
C902 C901 1.406 . S
C902 C903 1.391 . S
C903 H870 0.931 . S
C903 C898 1.370 . S
C903 C902 1.391 . S
C904 N878 1.435 . S
C904 C905 1.358 . S
C904 C909 1.371 . S
C905 H871 0.930 . S
C905 C904 1.358 . S
C905 C906 1.405 . S
C906 H872 0.932 . S
C906 C905 1.405 . S
C906 C907 1.383 . S
C907 C906 1.383 . S
C907 C908 1.393 . S
C908 H873 0.931 . S
C908 C907 1.393 . S
C908 C909 1.382 . S
C909 H874 0.929 . S
C909 C904 1.371 . S
C909 C908 1.382 . S
C910 N878 1.423 . S
C910 C911 1.362 . S
C910 C915 1.388 . S
C911 H875 0.929 . S
C911 C910 1.362 . S
C911 C912 1.376 . S
C912 H876 0.931 . S
C912 C911 1.376 . S
C912 C913 1.396 . S
C913 C895 1.472 . S
C913 C912 1.396 . S
C913 C914 1.348 . S
C914 H877 0.929 . S
C914 C913 1.348 . S
C914 C915 1.443 . S
C915 H879 0.932 . S
C915 C910 1.388 . S
C915 C914 1.443 . S
H916 C943 0.929 . S
N917 C942 1.433 . S
N917 C948 1.435 . S
N917 C954 1.423 . S
H918 C944 0.930 . S
H919 C947 0.931 . S
H920 C946 0.929 . S
H921 C949 0.930 . S
H922 C950 0.932 . S
H923 C953 0.929 . S
H924 C952 0.931 . S
H925 C955 0.929 . S
H926 C959 0.932 1_545 S
H927 C956 0.931 . S
H928 C958 0.929 . S
H929 C961 0.929 . S
H930 C962 0.930 . S
H931 C964 0.929 . S
H932 C965 0.931 . S
H933 C967 0.930 . S
H934 C968 0.932 . S
H935 C970 0.931 . S
H936 C971 0.929 . S
H937 C973 0.929 . S
H938 C974 0.931 . S
H939 C976 0.929 . S
N940 C960 1.433 . S
N940 C966 1.435 . S
N940 C972 1.423 . S
H941 C977 0.932 1_545 S
C942 N917 1.433 . S
C942 C943 1.363 . S
C942 C947 1.370 1_565 S
C943 H916 0.929 . S
C943 C942 1.363 . S
C943 C944 1.385 . S
C944 H918 0.930 . S
C944 C943 1.385 . S
C944 C945 1.357 1_565 S
C945 C944 1.357 1_545 S
C945 C946 1.406 . S
C946 H920 0.929 . S
C946 C945 1.406 . S
C946 C947 1.391 . S
C947 H919 0.931 . S
C947 C942 1.370 1_545 S
C947 C946 1.391 . S
C948 N917 1.435 . S
C948 C949 1.358 1_565 S
C948 C953 1.371 . S
C949 H921 0.930 . S
C949 C948 1.358 1_545 S
C949 C950 1.405 . S
C950 H922 0.932 . S
C950 C949 1.405 . S
C950 C951 1.383 1_545 S
C951 C950 1.383 1_565 S
C951 C952 1.393 . S
C952 H924 0.931 . S
C952 C951 1.393 . S
C952 C953 1.382 . S
C953 H923 0.929 . S
C953 C948 1.371 . S
C953 C952 1.382 . S
C954 N917 1.423 . S
C954 C955 1.362 . S
C954 C959 1.388 . S
C955 H925 0.929 . S
C955 C954 1.362 . S
C955 C956 1.376 . S
C956 H927 0.931 . S
C956 C955 1.376 . S
C956 C957 1.396 . S
C957 C956 1.396 . S
C957 C958 1.348 . S
C957 C975 1.472 . S
C958 H928 0.929 . S
C958 C957 1.348 . S
C958 C959 1.443 . S
C959 H926 0.932 1_565 S
C959 C954 1.388 . S
C959 C958 1.443 . S
C960 N940 1.433 . S
C960 C961 1.363 . S
C960 C965 1.370 1_565 S
C961 H929 0.929 . S
C961 C960 1.363 . S
C961 C962 1.385 . S
C962 H930 0.930 . S
C962 C961 1.385 . S
C962 C963 1.357 1_565 S
C963 C962 1.357 1_545 S
C963 C964 1.406 . S
C964 H931 0.929 . S
C964 C963 1.406 . S
C964 C965 1.391 . S
C965 H932 0.931 . S
C965 C960 1.370 1_545 S
C965 C964 1.391 . S
C966 N940 1.435 . S
C966 C967 1.358 1_565 S
C966 C971 1.371 . S
C967 H933 0.930 . S
C967 C966 1.358 1_545 S
C967 C968 1.405 . S
C968 H934 0.932 . S
C968 C967 1.405 . S
C968 C969 1.383 1_545 S
C969 C968 1.383 1_565 S
C969 C970 1.393 . S
C970 H935 0.931 . S
C970 C969 1.393 . S
C970 C971 1.382 . S
C971 H936 0.929 . S
C971 C966 1.371 . S
C971 C970 1.382 . S
C972 N940 1.423 . S
C972 C973 1.362 . S
C972 C977 1.388 . S
C973 H937 0.929 . S
C973 C972 1.362 . S
C973 C974 1.376 . S
C974 H938 0.931 . S
C974 C973 1.376 . S
C974 C975 1.396 . S
C975 C957 1.472 . S
C975 C974 1.396 . S
C975 C976 1.348 . S
C976 H939 0.929 . S
C976 C975 1.348 . S
C976 C977 1.443 . S
C977 H941 0.932 1_565 S
C977 C972 1.388 . S
C977 C976 1.443 . S
H978 C1005 0.929 1_565 S
N979 C1004 1.433 . S
N979 C1010 1.435 . S
N979 C1016 1.423 . S
H980 C1006 0.929 . S
H981 C1009 0.931 . S
H982 C1008 0.929 . S
H983 C1011 0.930 . S
H984 C1012 0.932 . S
H985 C1015 0.929 . S
H986 C1014 0.931 . S
H987 C1017 0.929 . S
H988 C1021 0.932 . S
H989 C1018 0.931 . S
H990 C1020 0.929 . S
H991 C1023 0.916 1_565 S
H992 C1024 0.930 . S
H993 C1026 0.929 . S
H994 C1027 0.931 . S
H995 C1029 0.930 . S
H996 C1030 0.932 . S
H997 C1032 0.931 . S
H998 C1033 0.944 . S
H999 C1035 0.929 . S
H1000 C1036 0.931 . S
H1001 C1038 0.929 . S
N1002 C1022 1.433 . S
N1002 C1028 1.435 . S
N1002 C1034 1.423 . S
H1003 C1039 0.932 . S
C1004 N979 1.433 . S
C1004 C1005 1.363 . S
C1004 C1009 1.370 . S
C1005 H978 0.929 1_545 S
C1005 C1004 1.363 . S
C1005 C1006 1.385 . S
C1006 H980 0.929 . S
C1006 C1005 1.385 . S
C1006 C1007 1.357 . S
C1007 C1006 1.357 . S
C1007 C1008 1.406 . S
C1008 H982 0.929 . S
C1008 C1007 1.406 . S
C1008 C1009 1.391 . S
C1009 H981 0.931 . S
C1009 C1004 1.370 . S
C1009 C1008 1.391 . S
C1010 N979 1.435 . S
C1010 C1011 1.358 . S
C1010 C1015 1.371 . S
C1011 H983 0.930 . S
C1011 C1010 1.358 . S
C1011 C1012 1.405 . S
C1012 H984 0.932 . S
C1012 C1011 1.405 . S
C1012 C1013 1.383 . S
C1013 C1012 1.383 . S
C1013 C1014 1.393 . S
C1014 H986 0.931 . S
C1014 C1013 1.393 . S
C1014 C1015 1.382 . S
C1015 H985 0.929 . S
C1015 C1010 1.371 . S
C1015 C1014 1.382 . S
C1016 N979 1.423 . S
C1016 C1017 1.362 1_545 S
C1016 C1021 1.388 . S
C1017 H987 0.929 . S
C1017 C1016 1.362 1_565 S
C1017 C1018 1.376 . S
C1018 H989 0.931 . S
C1018 C1017 1.376 . S
C1018 C1019 1.396 1_565 S
C1019 C1018 1.396 1_545 S
C1019 C1020 1.348 . S
C1019 C1037 1.472 . S
C1020 H990 0.929 . S
C1020 C1019 1.348 . S
C1020 C1021 1.443 . S
C1021 H988 0.932 . S
C1021 C1016 1.388 . S
C1021 C1020 1.443 . S
C1022 N1002 1.433 . S
C1022 C1023 1.363 . S
C1022 C1027 1.370 . S
C1023 H991 0.916 1_545 S
C1023 C1022 1.363 . S
C1023 C1024 1.385 . S
C1024 H992 0.930 . S
C1024 C1023 1.385 . S
C1024 C1025 1.357 . S
C1025 C1024 1.357 . S
C1025 C1026 1.406 . S
C1026 H993 0.929 . S
C1026 C1025 1.406 . S
C1026 C1027 1.391 . S
C1027 H994 0.931 . S
C1027 C1022 1.370 . S
C1027 C1026 1.391 . S
C1028 N1002 1.435 . S
C1028 C1029 1.358 . S
C1028 C1033 1.371 . S
C1029 H995 0.930 . S
C1029 C1028 1.358 . S
C1029 C1030 1.405 . S
C1030 H996 0.932 . S
C1030 C1029 1.405 . S
C1030 C1031 1.383 . S
C1031 C1030 1.383 . S
C1031 C1032 1.393 . S
C1032 H997 0.931 . S
C1032 C1031 1.393 . S
C1032 C1033 1.382 . S
C1033 H998 0.944 . S
C1033 C1028 1.371 . S
C1033 C1032 1.382 . S
C1034 N1002 1.423 . S
C1034 C1035 1.362 1_545 S
C1034 C1039 1.388 . S
C1035 H999 0.929 . S
C1035 C1034 1.362 1_565 S
C1035 C1036 1.376 . S
C1036 H1000 0.931 . S
C1036 C1035 1.376 . S
C1036 C1037 1.396 1_565 S
C1037 C1019 1.472 . S
C1037 C1036 1.396 1_545 S
C1037 C1038 1.348 . S
C1038 H1001 0.929 . S
C1038 C1037 1.348 . S
C1038 C1039 1.443 . S
C1039 H1003 0.932 . S
C1039 C1034 1.388 . S
C1039 C1038 1.443 . S
H1040 C1067 0.929 . S
N1041 C1066 1.433 . S
N1041 C1072 1.435 . S
N1041 C1078 1.423 . S
H1042 C1068 0.930 . S
H1043 C1071 0.931 . S
H1044 C1070 0.929 . S
H1045 C1073 0.930 . S
H1046 C1074 0.932 . S
H1047 C1077 0.929 . S
H1048 C1076 0.931 . S
H1049 C1079 0.929 . S
H1050 C1083 0.932 1_455 S
H1051 C1080 0.931 . S
H1052 C1082 0.929 . S
H1053 C1085 0.929 . S
H1054 C1086 0.930 . S
H1055 C1088 0.929 . S
H1056 C1089 0.931 . S
H1057 C1091 0.930 . S
H1058 C1092 0.932 . S
H1059 C1094 0.931 . S
H1060 C1095 0.929 . S
H1061 C1097 0.929 . S
H1062 C1098 0.931 . S
H1063 C1100 0.929 . S
N1064 C1084 1.433 . S
N1064 C1090 1.435 . S
N1064 C1096 1.423 . S
H1065 C1101 0.932 1_455 S
C1066 N1041 1.433 . S
C1066 C1067 1.363 . S
C1066 C1071 1.370 1_655 S
C1067 H1040 0.929 . S
C1067 C1066 1.363 . S
C1067 C1068 1.385 . S
C1068 H1042 0.930 . S
C1068 C1067 1.385 . S
C1068 C1069 1.357 1_655 S
C1069 C1068 1.357 1_455 S
C1069 C1070 1.406 . S
C1070 H1044 0.929 . S
C1070 C1069 1.406 . S
C1070 C1071 1.391 . S
C1071 H1043 0.931 . S
C1071 C1066 1.370 1_455 S
C1071 C1070 1.391 . S
C1072 N1041 1.435 . S
C1072 C1073 1.358 1_655 S
C1072 C1077 1.371 . S
C1073 H1045 0.930 . S
C1073 C1072 1.358 1_455 S
C1073 C1074 1.405 . S
C1074 H1046 0.932 . S
C1074 C1073 1.405 . S
C1074 C1075 1.383 1_455 S
C1075 C1074 1.383 1_655 S
C1075 C1076 1.393 . S
C1076 H1048 0.931 . S
C1076 C1075 1.393 . S
C1076 C1077 1.382 . S
C1077 H1047 0.929 . S
C1077 C1072 1.371 . S
C1077 C1076 1.382 . S
C1078 N1041 1.423 . S
C1078 C1079 1.362 . S
C1078 C1083 1.388 . S
C1079 H1049 0.929 . S
C1079 C1078 1.362 . S
C1079 C1080 1.376 . S
C1080 H1051 0.931 . S
C1080 C1079 1.376 . S
C1080 C1081 1.396 . S
C1081 C1080 1.396 . S
C1081 C1082 1.348 . S
C1081 C1099 1.472 . S
C1082 H1052 0.929 . S
C1082 C1081 1.348 . S
C1082 C1083 1.443 . S
C1083 H1050 0.932 1_655 S
C1083 C1078 1.388 . S
C1083 C1082 1.443 . S
C1084 N1064 1.433 . S
C1084 C1085 1.363 . S
C1084 C1089 1.370 1_655 S
C1085 H1053 0.929 . S
C1085 C1084 1.363 . S
C1085 C1086 1.385 . S
C1086 H1054 0.930 . S
C1086 C1085 1.385 . S
C1086 C1087 1.357 1_655 S
C1087 C1086 1.357 1_455 S
C1087 C1088 1.406 . S
C1088 H1055 0.929 . S
C1088 C1087 1.406 . S
C1088 C1089 1.391 . S
C1089 H1056 0.931 . S
C1089 C1084 1.370 1_455 S
C1089 C1088 1.391 . S
C1090 N1064 1.435 . S
C1090 C1091 1.358 1_655 S
C1090 C1095 1.371 . S
C1091 H1057 0.930 . S
C1091 C1090 1.358 1_455 S
C1091 C1092 1.405 . S
C1092 H1058 0.932 . S
C1092 C1091 1.405 . S
C1092 C1093 1.383 1_455 S
C1093 C1092 1.383 1_655 S
C1093 C1094 1.393 . S
C1094 H1059 0.931 . S
C1094 C1093 1.393 . S
C1094 C1095 1.382 . S
C1095 H1060 0.929 . S
C1095 C1090 1.371 . S
C1095 C1094 1.382 . S
C1096 N1064 1.423 . S
C1096 C1097 1.362 . S
C1096 C1101 1.388 . S
C1097 H1061 0.929 . S
C1097 C1096 1.362 . S
C1097 C1098 1.376 . S
C1098 H1062 0.931 . S
C1098 C1097 1.376 . S
C1098 C1099 1.396 . S
C1099 C1081 1.472 . S
C1099 C1098 1.396 . S
C1099 C1100 1.348 . S
C1100 H1063 0.929 . S
C1100 C1099 1.348 . S
C1100 C1101 1.443 . S
C1101 H1065 0.932 1_655 S
C1101 C1096 1.388 . S
C1101 C1100 1.443 . S
H1102 C1129 0.929 . S
N1103 C1128 1.433 . S
N1103 C1134 1.435 . S
N1103 C1140 1.423 . S
H1104 C1130 0.930 . S
H1105 C1133 0.931 . S
H1106 C1132 0.929 . S
H1107 C1135 0.930 . S
H1108 C1136 0.932 . S
H1109 C1139 0.929 . S
H1110 C1138 0.931 . S
H1111 C1141 0.929 . S
H1112 C1145 0.932 . S
H1113 C1142 0.931 . S
H1114 C1144 0.929 . S
H1115 C1147 0.929 . S
H1116 C1148 0.930 . S
H1117 C1150 0.929 . S
H1118 C1151 0.931 . S
H1119 C1153 0.930 . S
H1120 C1154 0.932 . S
H1121 C1156 0.931 . S
H1122 C1157 0.929 . S
H1123 C1159 0.929 . S
H1124 C1160 0.931 . S
H1125 C1162 0.929 . S
N1126 C1146 1.433 . S
N1126 C1152 1.435 . S
N1126 C1158 1.423 . S
H1127 C1163 0.932 . S
C1128 N1103 1.433 . S
C1128 C1129 1.363 . S
C1128 C1133 1.370 . S
C1129 H1102 0.929 . S
C1129 C1128 1.363 . S
C1129 C1130 1.385 . S
C1130 H1104 0.930 . S
C1130 C1129 1.385 . S
C1130 C1131 1.357 . S
C1131 C1130 1.357 . S
C1131 C1132 1.406 . S
C1132 H1106 0.929 . S
C1132 C1131 1.406 . S
C1132 C1133 1.391 . S
C1133 H1105 0.931 . S
C1133 C1128 1.370 . S
C1133 C1132 1.391 . S
C1134 N1103 1.435 . S
C1134 C1135 1.358 . S
C1134 C1139 1.371 . S
C1135 H1107 0.930 . S
C1135 C1134 1.358 . S
C1135 C1136 1.405 . S
C1136 H1108 0.932 . S
C1136 C1135 1.405 . S
C1136 C1137 1.383 . S
C1137 C1136 1.383 . S
C1137 C1138 1.393 . S
C1138 H1110 0.931 . S
C1138 C1137 1.393 . S
C1138 C1139 1.382 . S
C1139 H1109 0.929 . S
C1139 C1134 1.371 . S
C1139 C1138 1.382 . S
C1140 N1103 1.423 . S
C1140 C1141 1.362 . S
C1140 C1145 1.388 . S
C1141 H1111 0.929 . S
C1141 C1140 1.362 . S
C1141 C1142 1.376 . S
C1142 H1113 0.931 . S
C1142 C1141 1.376 . S
C1142 C1143 1.396 . S
C1143 C1142 1.396 . S
C1143 C1144 1.348 . S
C1143 C1161 1.472 . S
C1144 H1114 0.929 . S
C1144 C1143 1.348 . S
C1144 C1145 1.443 . S
C1145 H1112 0.932 . S
C1145 C1140 1.388 . S
C1145 C1144 1.443 . S
C1146 N1126 1.433 . S
C1146 C1147 1.363 . S
C1146 C1151 1.370 . S
C1147 H1115 0.929 . S
C1147 C1146 1.363 . S
C1147 C1148 1.385 . S
C1148 H1116 0.930 . S
C1148 C1147 1.385 . S
C1148 C1149 1.357 . S
C1149 C1148 1.357 . S
C1149 C1150 1.406 . S
C1150 H1117 0.929 . S
C1150 C1149 1.406 . S
C1150 C1151 1.391 . S
C1151 H1118 0.931 . S
C1151 C1146 1.370 . S
C1151 C1150 1.391 . S
C1152 N1126 1.435 . S
C1152 C1153 1.358 . S
C1152 C1157 1.371 . S
C1153 H1119 0.930 . S
C1153 C1152 1.358 . S
C1153 C1154 1.405 . S
C1154 H1120 0.932 . S
C1154 C1153 1.405 . S
C1154 C1155 1.383 . S
C1155 C1154 1.383 . S
C1155 C1156 1.393 . S
C1156 H1121 0.931 . S
C1156 C1155 1.393 . S
C1156 C1157 1.382 . S
C1157 H1122 0.929 . S
C1157 C1152 1.371 . S
C1157 C1156 1.382 . S
C1158 N1126 1.423 . S
C1158 C1159 1.362 . S
C1158 C1163 1.388 . S
C1159 H1123 0.929 . S
C1159 C1158 1.362 . S
C1159 C1160 1.376 . S
C1160 H1124 0.931 . S
C1160 C1159 1.376 . S
C1160 C1161 1.396 . S
C1161 C1143 1.472 . S
C1161 C1160 1.396 . S
C1161 C1162 1.348 . S
C1162 H1125 0.929 . S
C1162 C1161 1.348 . S
C1162 C1163 1.443 . S
C1163 H1127 0.932 . S
C1163 C1158 1.388 . S
C1163 C1162 1.443 . S
H1164 C1191 0.929 . S
N1165 C1190 1.433 . S
N1165 C1196 1.435 . S
N1165 C1202 1.423 . S
H1166 C1192 0.930 . S
H1167 C1195 0.931 . S
H1168 C1194 0.929 . S
H1169 C1197 0.930 . S
H1170 C1198 0.932 . S
H1171 C1201 0.929 . S
H1172 C1200 0.931 . S
H1173 C1203 0.929 . S
H1174 C1207 0.932 . S
H1175 C1204 0.931 . S
H1176 C1206 0.929 . S
H1177 C1209 0.929 . S
H1178 C1210 0.930 . S
H1179 C1212 0.929 . S
H1180 C1213 0.931 . S
H1181 C1215 0.930 . S
H1182 C1216 0.932 . S
H1183 C1218 0.931 . S
H1184 C1219 0.929 . S
H1185 C1221 0.929 . S
H1186 C1222 0.931 . S
H1187 C1224 0.929 . S
N1188 C1208 1.433 . S
N1188 C1214 1.435 . S
N1188 C1220 1.423 . S
H1189 C1225 0.932 . S
C1190 N1165 1.433 . S
C1190 C1191 1.363 . S
C1190 C1195 1.370 . S
C1191 H1164 0.929 . S
C1191 C1190 1.363 . S
C1191 C1192 1.385 . S
C1192 H1166 0.930 . S
C1192 C1191 1.385 . S
C1192 C1193 1.357 . S
C1193 C1192 1.357 . S
C1193 C1194 1.406 . S
C1194 H1168 0.929 . S
C1194 C1193 1.406 . S
C1194 C1195 1.391 . S
C1195 H1167 0.931 . S
C1195 C1190 1.370 . S
C1195 C1194 1.391 . S
C1196 N1165 1.435 . S
C1196 C1197 1.358 . S
C1196 C1201 1.371 . S
C1197 H1169 0.930 . S
C1197 C1196 1.358 . S
C1197 C1198 1.405 . S
C1198 H1170 0.932 . S
C1198 C1197 1.405 . S
C1198 C1199 1.383 . S
C1199 C1198 1.383 . S
C1199 C1200 1.393 . S
C1200 H1172 0.931 . S
C1200 C1199 1.393 . S
C1200 C1201 1.382 . S
C1201 H1171 0.929 . S
C1201 C1196 1.371 . S
C1201 C1200 1.382 . S
C1202 N1165 1.423 . S
C1202 C1203 1.362 . S
C1202 C1207 1.388 . S
C1203 H1173 0.929 . S
C1203 C1202 1.362 . S
C1203 C1204 1.376 . S
C1204 H1175 0.931 . S
C1204 C1203 1.376 . S
C1204 C1205 1.396 . S
C1205 C1204 1.396 . S
C1205 C1206 1.348 . S
C1205 C1223 1.472 . S
C1206 H1176 0.929 . S
C1206 C1205 1.348 . S
C1206 C1207 1.443 . S
C1207 H1174 0.932 . S
C1207 C1202 1.388 . S
C1207 C1206 1.443 . S
C1208 N1188 1.433 . S
C1208 C1209 1.363 . S
C1208 C1213 1.370 . S
C1209 H1177 0.929 . S
C1209 C1208 1.363 . S
C1209 C1210 1.385 . S
C1210 H1178 0.930 . S
C1210 C1209 1.385 . S
C1210 C1211 1.357 . S
C1211 C1210 1.357 . S
C1211 C1212 1.406 . S
C1212 H1179 0.929 . S
C1212 C1211 1.406 . S
C1212 C1213 1.391 . S
C1213 H1180 0.931 . S
C1213 C1208 1.370 . S
C1213 C1212 1.391 . S
C1214 N1188 1.435 . S
C1214 C1215 1.358 . S
C1214 C1219 1.371 . S
C1215 H1181 0.930 . S
C1215 C1214 1.358 . S
C1215 C1216 1.405 . S
C1216 H1182 0.932 . S
C1216 C1215 1.405 . S
C1216 C1217 1.383 . S
C1217 C1216 1.383 . S
C1217 C1218 1.393 . S
C1218 H1183 0.931 . S
C1218 C1217 1.393 . S
C1218 C1219 1.382 . S
C1219 H1184 0.929 . S
C1219 C1214 1.371 . S
C1219 C1218 1.382 . S
C1220 N1188 1.423 . S
C1220 C1221 1.362 . S
C1220 C1225 1.388 . S
C1221 H1185 0.929 . S
C1221 C1220 1.362 . S
C1221 C1222 1.376 . S
C1222 H1186 0.931 . S
C1222 C1221 1.376 . S
C1222 C1223 1.396 . S
C1223 C1205 1.472 . S
C1223 C1222 1.396 . S
C1223 C1224 1.348 . S
C1224 H1187 0.929 . S
C1224 C1223 1.348 . S
C1224 C1225 1.443 . S
C1225 H1189 0.932 . S
C1225 C1220 1.388 . S
C1225 C1224 1.443 . S
H1226 C1253 0.929 . S
N1227 C1252 1.433 . S
N1227 C1258 1.435 . S
N1227 C1264 1.423 . S
H1228 C1254 0.930 . S
H1229 C1257 0.931 . S
H1230 C1256 0.929 . S
H1231 C1259 0.930 . S
H1232 C1260 0.932 . S
H1233 C1263 0.929 . S
H1234 C1262 0.931 . S
H1235 C1265 0.929 . S
H1236 C1269 0.932 . S
H1237 C1266 0.931 . S
H1238 C1268 0.929 . S
H1239 C1271 0.929 . S
H1240 C1272 0.930 . S
H1241 C1274 0.929 . S
H1242 C1275 0.931 . S
H1243 C1277 0.930 . S
H1244 C1278 0.932 . S
H1245 C1280 0.931 . S
H1246 C1281 0.929 . S
H1247 C1283 0.929 . S
H1248 C1284 0.931 . S
H1249 C1286 0.929 . S
N1250 C1270 1.433 . S
N1250 C1276 1.435 . S
N1250 C1282 1.423 . S
H1251 C1287 0.932 . S
C1252 N1227 1.433 . S
C1252 C1253 1.363 . S
C1252 C1257 1.370 . S
C1253 H1226 0.929 . S
C1253 C1252 1.363 . S
C1253 C1254 1.385 . S
C1254 H1228 0.930 . S
C1254 C1253 1.385 . S
C1254 C1255 1.357 . S
C1255 C1254 1.357 . S
C1255 C1256 1.406 . S
C1256 H1230 0.929 . S
C1256 C1255 1.406 . S
C1256 C1257 1.391 . S
C1257 H1229 0.931 . S
C1257 C1252 1.370 . S
C1257 C1256 1.391 . S
C1258 N1227 1.435 . S
C1258 C1259 1.358 . S
C1258 C1263 1.371 . S
C1259 H1231 0.930 . S
C1259 C1258 1.358 . S
C1259 C1260 1.405 . S
C1260 H1232 0.932 . S
C1260 C1259 1.405 . S
C1260 C1261 1.383 . S
C1261 C1260 1.383 . S
C1261 C1262 1.393 . S
C1262 H1234 0.931 . S
C1262 C1261 1.393 . S
C1262 C1263 1.382 . S
C1263 H1233 0.929 . S
C1263 C1258 1.371 . S
C1263 C1262 1.382 . S
C1264 N1227 1.423 . S
C1264 C1265 1.362 . S
C1264 C1269 1.388 . S
C1265 H1235 0.929 . S
C1265 C1264 1.362 . S
C1265 C1266 1.376 . S
C1266 H1237 0.931 . S
C1266 C1265 1.376 . S
C1266 C1267 1.396 . S
C1267 C1266 1.396 . S
C1267 C1268 1.348 . S
C1267 C1285 1.472 . S
C1268 H1238 0.929 . S
C1268 C1267 1.348 . S
C1268 C1269 1.443 . S
C1269 H1236 0.932 . S
C1269 C1264 1.388 . S
C1269 C1268 1.443 . S
C1270 N1250 1.433 . S
C1270 C1271 1.363 . S
C1270 C1275 1.370 . S
C1271 H1239 0.929 . S
C1271 C1270 1.363 . S
C1271 C1272 1.385 . S
C1272 H1240 0.930 . S
C1272 C1271 1.385 . S
C1272 C1273 1.357 . S
C1273 C1272 1.357 . S
C1273 C1274 1.406 . S
C1274 H1241 0.929 . S
C1274 C1273 1.406 . S
C1274 C1275 1.391 . S
C1275 H1242 0.931 . S
C1275 C1270 1.370 . S
C1275 C1274 1.391 . S
C1276 N1250 1.435 . S
C1276 C1277 1.358 . S
C1276 C1281 1.371 . S
C1277 H1243 0.930 . S
C1277 C1276 1.358 . S
C1277 C1278 1.405 . S
C1278 H1244 0.932 . S
C1278 C1277 1.405 . S
C1278 C1279 1.383 . S
C1279 C1278 1.383 . S
C1279 C1280 1.393 . S
C1280 H1245 0.931 . S
C1280 C1279 1.393 . S
C1280 C1281 1.382 . S
C1281 H1246 0.929 . S
C1281 C1276 1.371 . S
C1281 C1280 1.382 . S
C1282 N1250 1.423 . S
C1282 C1283 1.362 . S
C1282 C1287 1.388 . S
C1283 H1247 0.929 . S
C1283 C1282 1.362 . S
C1283 C1284 1.376 . S
C1284 H1248 0.931 . S
C1284 C1283 1.376 . S
C1284 C1285 1.396 . S
C1285 C1267 1.472 . S
C1285 C1284 1.396 . S
C1285 C1286 1.348 . S
C1286 H1249 0.929 . S
C1286 C1285 1.348 . S
C1286 C1287 1.443 . S
C1287 H1251 0.932 . S
C1287 C1282 1.388 . S
C1287 C1286 1.443 . S
H1288 C1315 0.929 . S
N1289 C1314 1.433 . S
N1289 C1320 1.435 . S
N1289 C1326 1.423 . S
H1290 C1316 0.930 . S
H1291 C1319 0.931 . S
H1292 C1318 0.929 . S
H1293 C1321 0.930 . S
H1294 C1322 0.932 . S
H1295 C1325 0.929 . S
H1296 C1324 0.931 . S
H1297 C1327 0.929 . S
H1298 C1331 0.932 . S
H1299 C1328 0.931 . S
H1300 C1330 0.929 . S
H1301 C1333 0.929 . S
H1302 C1334 0.930 . S
H1303 C1336 0.929 . S
H1304 C1337 0.931 . S
H1305 C1339 0.930 . S
H1306 C1340 0.932 . S
H1307 C1342 0.931 . S
H1308 C1343 0.929 . S
H1309 C1345 0.929 . S
H1310 C1346 0.931 . S
H1311 C1348 0.929 . S
N1312 C1332 1.433 . S
N1312 C1338 1.435 . S
N1312 C1344 1.423 . S
H1313 C1349 0.932 . S
C1314 N1289 1.433 . S
C1314 C1315 1.363 . S
C1314 C1319 1.370 . S
C1315 H1288 0.929 . S
C1315 C1314 1.363 . S
C1315 C1316 1.385 . S
C1316 H1290 0.930 . S
C1316 C1315 1.385 . S
C1316 C1317 1.357 . S
C1317 C1316 1.357 . S
C1317 C1318 1.406 . S
C1318 H1292 0.929 . S
C1318 C1317 1.406 . S
C1318 C1319 1.391 . S
C1319 H1291 0.931 . S
C1319 C1314 1.370 . S
C1319 C1318 1.391 . S
C1320 N1289 1.435 . S
C1320 C1321 1.358 . S
C1320 C1325 1.371 . S
C1321 H1293 0.930 . S
C1321 C1320 1.358 . S
C1321 C1322 1.405 . S
C1322 H1294 0.932 . S
C1322 C1321 1.405 . S
C1322 C1323 1.383 . S
C1323 C1322 1.383 . S
C1323 C1324 1.393 . S
C1324 H1296 0.931 . S
C1324 C1323 1.393 . S
C1324 C1325 1.382 . S
C1325 H1295 0.929 . S
C1325 C1320 1.371 . S
C1325 C1324 1.382 . S
C1326 N1289 1.423 . S
C1326 C1327 1.362 . S
C1326 C1331 1.388 . S
C1327 H1297 0.929 . S
C1327 C1326 1.362 . S
C1327 C1328 1.376 . S
C1328 H1299 0.931 . S
C1328 C1327 1.376 . S
C1328 C1329 1.396 . S
C1329 C1328 1.396 . S
C1329 C1330 1.348 . S
C1329 C1347 1.472 . S
C1330 H1300 0.929 . S
C1330 C1329 1.348 . S
C1330 C1331 1.443 . S
C1331 H1298 0.932 . S
C1331 C1326 1.388 . S
C1331 C1330 1.443 . S
C1332 N1312 1.433 . S
C1332 C1333 1.363 . S
C1332 C1337 1.370 . S
C1333 H1301 0.929 . S
C1333 C1332 1.363 . S
C1333 C1334 1.385 . S
C1334 H1302 0.930 . S
C1334 C1333 1.385 . S
C1334 C1335 1.357 . S
C1335 C1334 1.357 . S
C1335 C1336 1.406 . S
C1336 H1303 0.929 . S
C1336 C1335 1.406 . S
C1336 C1337 1.391 . S
C1337 H1304 0.931 . S
C1337 C1332 1.370 . S
C1337 C1336 1.391 . S
C1338 N1312 1.435 . S
C1338 C1339 1.358 . S
C1338 C1343 1.371 . S
C1339 H1305 0.930 . S
C1339 C1338 1.358 . S
C1339 C1340 1.405 . S
C1340 H1306 0.932 . S
C1340 C1339 1.405 . S
C1340 C1341 1.383 . S
C1341 C1340 1.383 . S
C1341 C1342 1.393 . S
C1342 H1307 0.931 . S
C1342 C1341 1.393 . S
C1342 C1343 1.382 . S
C1343 H1308 0.929 . S
C1343 C1338 1.371 . S
C1343 C1342 1.382 . S
C1344 N1312 1.423 . S
C1344 C1345 1.362 . S
C1344 C1349 1.388 . S
C1345 H1309 0.929 . S
C1345 C1344 1.362 . S
C1345 C1346 1.376 . S
C1346 H1310 0.931 . S
C1346 C1345 1.376 . S
C1346 C1347 1.396 . S
C1347 C1329 1.472 . S
C1347 C1346 1.396 . S
C1347 C1348 1.348 . S
C1348 H1311 0.929 . S
C1348 C1347 1.348 . S
C1348 C1349 1.443 . S
C1349 H1313 0.932 . S
C1349 C1344 1.388 . S
C1349 C1348 1.443 . S
C1350 C1351 1.369 . S
C1350 C1352 1.419 . S
C1350 H1354 0.930 . S
C1351 C1350 1.369 . S
C1351 C1360 1.429 . S
C1352 C1350 1.419 . S
C1352 C1353 1.363 . S
C1352 H1355 0.929 . S
C1353 C1352 1.363 . S
C1353 C1359 1.428 . S
H1354 C1350 0.930 . S
H1355 C1352 0.929 . S
S1356 N1357 1.613 . S
S1356 N1358 1.610 . S
N1357 S1356 1.613 . S
N1357 C1360 1.350 . S
N1358 S1356 1.610 . S
N1358 C1359 1.351 . S
C1359 C1353 1.428 . S
C1359 N1358 1.351 . S
C1359 C1360 1.434 . S
C1360 C1351 1.429 . S
C1360 N1357 1.350 . S
C1360 C1359 1.434 . S
C1361 C1362 1.369 . S
C1361 C1363 1.419 . S
C1361 H1365 0.930 . S
C1362 C1361 1.369 . S
C1362 C1371 1.429 . S
C1363 C1361 1.419 . S
C1363 C1364 1.363 . S
C1363 H1366 0.929 . S
C1364 C1363 1.363 . S
C1364 C1370 1.428 . S
H1365 C1361 0.930 . S
H1366 C1363 0.929 . S
S1367 N1368 1.613 . S
S1367 N1369 1.610 . S
N1368 S1367 1.613 . S
N1368 C1371 1.350 . S
N1369 S1367 1.610 . S
N1369 C1370 1.351 . S
C1370 C1364 1.428 . S
C1370 N1369 1.351 . S
C1370 C1371 1.434 . S
C1371 C1362 1.429 . S
C1371 N1368 1.350 . S
C1371 C1370 1.434 . S
C1372 C1373 1.369 1_565 S
C1372 C1374 1.419 . S
C1372 H1376 0.930 . S
C1373 C1372 1.369 1_545 S
C1373 C1382 1.429 . S
C1374 C1372 1.419 . S
C1374 C1375 1.363 1_565 S
C1374 H1377 0.929 . S
C1375 C1374 1.363 1_545 S
C1375 C1381 1.428 . S
H1376 C1372 0.930 . S
H1377 C1374 0.929 . S
S1378 N1379 1.613 . S
S1378 N1380 1.610 . S
N1379 S1378 1.613 . S
N1379 C1382 1.350 . S
N1380 S1378 1.610 . S
N1380 C1381 1.351 . S
C1381 C1375 1.428 . S
C1381 N1380 1.351 . S
C1381 C1382 1.434 . S
C1382 C1373 1.429 . S
C1382 N1379 1.350 . S
C1382 C1381 1.434 . S
C1383 C1384 1.369 . S
C1383 C1385 1.419 . S
C1383 H1387 0.930 . S
C1384 C1383 1.369 . S
C1384 C1393 1.429 . S
C1385 C1383 1.419 . S
C1385 C1386 1.363 . S
C1385 H1388 0.929 . S
C1386 C1385 1.363 . S
C1386 C1392 1.428 . S
H1387 C1383 0.930 . S
H1388 C1385 0.929 . S
S1389 N1390 1.613 . S
S1389 N1391 1.610 . S
N1390 S1389 1.613 . S
N1390 C1393 1.350 1_565 S
N1391 S1389 1.610 . S
N1391 C1392 1.351 1_565 S
C1392 C1386 1.428 . S
C1392 N1391 1.351 1_545 S
C1392 C1393 1.434 . S
C1393 C1384 1.429 . S
C1393 N1390 1.350 1_545 S
C1393 C1392 1.434 . S
C1394 C1395 1.369 1_655 S
C1394 C1396 1.419 . S
C1394 H1398 0.930 . S
C1395 C1394 1.369 1_455 S
C1395 C1404 1.429 . S
C1396 C1394 1.419 . S
C1396 C1397 1.363 1_655 S
C1396 H1399 0.929 . S
C1397 C1396 1.363 1_455 S
C1397 C1403 1.428 . S
H1398 C1394 0.930 . S
H1399 C1396 0.929 . S
S1400 N1401 1.613 . S
S1400 N1402 1.610 . S
N1401 S1400 1.613 . S
N1401 C1404 1.350 . S
N1402 S1400 1.610 . S
N1402 C1403 1.351 . S
C1403 C1397 1.428 . S
C1403 N1402 1.351 . S
C1403 C1404 1.434 . S
C1404 C1395 1.429 . S
C1404 N1401 1.350 . S
C1404 C1403 1.434 . S
C1405 C1406 1.369 . S
C1405 C1407 1.419 . S
C1405 H1409 0.930 . S
C1406 C1405 1.369 . S
C1406 C1415 1.429 . S
C1407 C1405 1.419 . S
C1407 C1408 1.363 . S
C1407 H1410 0.929 . S
C1408 C1407 1.363 . S
C1408 C1414 1.428 . S
H1409 C1405 0.930 . S
H1410 C1407 0.929 . S
S1411 N1412 1.613 . S
S1411 N1413 1.610 . S
N1412 S1411 1.613 . S
N1412 C1415 1.350 . S
N1413 S1411 1.610 . S
N1413 C1414 1.351 . S
C1414 C1408 1.428 . S
C1414 N1413 1.351 . S
C1414 C1415 1.434 . S
C1415 C1406 1.429 . S
C1415 N1412 1.350 . S
C1415 C1414 1.434 . S
C1416 C1417 1.369 . S
C1416 C1418 1.419 . S
C1416 H1420 0.930 . S
C1417 C1416 1.369 . S
C1417 C1426 1.429 1_455 S
C1418 C1416 1.419 . S
C1418 C1419 1.363 . S
C1418 H1421 0.929 . S
C1419 C1418 1.363 . S
C1419 C1425 1.428 1_455 S
H1420 C1416 0.930 . S
H1421 C1418 0.929 . S
S1422 N1423 1.613 . S
S1422 N1424 1.610 . S
N1423 S1422 1.613 . S
N1423 C1426 1.350 . S
N1424 S1422 1.610 . S
N1424 C1425 1.351 . S
C1425 C1419 1.428 1_655 S
C1425 N1424 1.351 . S
C1425 C1426 1.434 . S
C1426 C1417 1.429 1_655 S
C1426 N1423 1.350 . S
C1426 C1425 1.434 . S
C1427 C1428 1.369 . S
C1427 C1429 1.419 . S
C1427 H1431 0.930 . S
C1428 C1427 1.369 . S
C1428 C1437 1.429 . S
C1429 C1427 1.419 . S
C1429 C1430 1.363 . S
C1429 H1432 0.929 . S
C1430 C1429 1.363 . S
C1430 C1436 1.428 . S
H1431 C1427 0.930 . S
H1432 C1429 0.929 . S
S1433 N1434 1.613 . S
S1433 N1435 1.610 . S
N1434 S1433 1.613 . S
N1434 C1437 1.350 . S
N1435 S1433 1.610 . S
N1435 C1436 1.351 . S
C1436 C1430 1.428 . S
C1436 N1435 1.351 . S
C1436 C1437 1.434 . S
C1437 C1428 1.429 . S
C1437 N1434 1.350 . S
C1437 C1436 1.434 . S
C1438 C1439 1.369 . S
C1438 C1440 1.419 . S
C1438 H1442 0.930 1_545 S
C1439 C1438 1.369 . S
C1439 C1448 1.429 . S
C1440 C1438 1.419 . S
C1440 C1441 1.363 . S
C1440 H1443 0.929 1_545 S
C1441 C1440 1.363 . S
C1441 C1447 1.428 . S
H1442 C1438 0.930 1_565 S
H1443 C1440 0.929 1_565 S
S1444 N1445 1.613 . S
S1444 N1446 1.610 . S
N1445 S1444 1.613 . S
N1445 C1448 1.350 . S
N1446 S1444 1.610 . S
N1446 C1447 1.351 . S
C1447 C1441 1.428 . S
C1447 N1446 1.351 . S
C1447 C1448 1.434 . S
C1448 C1439 1.429 . S
C1448 N1445 1.350 . S
C1448 C1447 1.434 . S
C1449 C1450 1.369 1_565 S
C1449 C1451 1.419 . S
C1449 H1453 0.930 . S
C1450 C1449 1.369 1_545 S
C1450 C1459 1.429 . S
C1451 C1449 1.419 . S
C1451 C1452 1.363 1_565 S
C1451 H1454 0.929 . S
C1452 C1451 1.363 1_545 S
C1452 C1458 1.428 . S
H1453 C1449 0.930 . S
H1454 C1451 0.929 . S
S1455 N1456 1.613 . S
S1455 N1457 1.610 . S
N1456 S1455 1.613 . S
N1456 C1459 1.350 . S
N1457 S1455 1.610 . S
N1457 C1458 1.351 . S
C1458 C1452 1.428 . S
C1458 N1457 1.351 . S
C1458 C1459 1.434 . S
C1459 C1450 1.429 . S
C1459 N1456 1.350 . S
C1459 C1458 1.434 . S
C1460 C1461 1.369 . S
C1460 C1462 1.419 . S
C1460 H1464 0.930 . S
C1461 C1460 1.369 . S
C1461 C1470 1.429 . S
C1462 C1460 1.419 . S
C1462 C1463 1.363 . S
C1462 H1465 0.929 . S
C1463 C1462 1.363 . S
C1463 C1469 1.428 . S
H1464 C1460 0.930 . S
H1465 C1462 0.929 . S
S1466 N1467 1.613 . S
S1466 N1468 1.610 . S
N1467 S1466 1.613 . S
N1467 C1470 1.350 . S
N1468 S1466 1.610 . S
N1468 C1469 1.351 . S
C1469 C1463 1.428 . S
C1469 N1468 1.351 . S
C1469 C1470 1.434 . S
C1470 C1461 1.429 . S
C1470 N1467 1.350 . S
C1470 C1469 1.434 . S
C1471 C1472 1.369 . S
C1471 C1473 1.419 . S
C1471 H1475 0.930 . S
C1472 C1471 1.369 . S
C1472 C1481 1.429 . S
C1473 C1471 1.419 . S
C1473 C1474 1.363 . S
C1473 H1476 0.929 . S
C1474 C1473 1.363 . S
C1474 C1480 1.428 . S
H1475 C1471 0.930 . S
H1476 C1473 0.929 . S
S1477 N1478 1.613 . S
S1477 N1479 1.610 . S
N1478 S1477 1.613 . S
N1478 C1481 1.350 . S
N1479 S1477 1.610 . S
N1479 C1480 1.351 . S
C1480 C1474 1.428 . S
C1480 N1479 1.351 . S
C1480 C1481 1.434 . S
C1481 C1472 1.429 . S
C1481 N1478 1.350 . S
C1481 C1480 1.434 . S
C1482 C1483 1.369 . S
C1482 C1484 1.419 . S
C1482 H1486 0.930 . S
C1483 C1482 1.369 . S
C1483 C1492 1.429 . S
C1484 C1482 1.419 . S
C1484 C1485 1.363 . S
C1484 H1487 0.929 . S
C1485 C1484 1.363 . S
C1485 C1491 1.428 . S
H1486 C1482 0.930 . S
H1487 C1484 0.929 . S
S1488 N1489 1.613 . S
S1488 N1490 1.610 . S
N1489 S1488 1.613 . S
N1489 C1492 1.350 . S
N1490 S1488 1.610 . S
N1490 C1491 1.351 . S
C1491 C1485 1.428 . S
C1491 N1490 1.351 . S
C1491 C1492 1.434 . S
C1492 C1483 1.429 . S
C1492 N1489 1.350 . S
C1492 C1491 1.434 . S
C1493 C1494 1.369 . S
C1493 C1495 1.419 . S
C1493 H1497 0.930 . S
C1494 C1493 1.369 . S
C1494 C1503 1.429 . S
C1495 C1493 1.419 . S
C1495 C1496 1.363 . S
C1495 H1498 0.929 . S
C1496 C1495 1.363 . S
C1496 C1502 1.428 . S
H1497 C1493 0.930 . S
H1498 C1495 0.929 . S
S1499 N1500 1.613 . S
S1499 N1501 1.610 . S
N1500 S1499 1.613 . S
N1500 C1503 1.350 . S
N1501 S1499 1.610 . S
N1501 C1502 1.351 . S
C1502 C1496 1.428 . S
C1502 N1501 1.351 . S
C1502 C1503 1.434 . S
C1503 C1494 1.429 . S
C1503 N1500 1.350 . S
C1503 C1502 1.434 . S
C1504 C1505 1.369 . S
C1504 C1506 1.419 . S
C1504 H1508 0.930 . S
C1505 C1504 1.369 . S
C1505 C1514 1.429 . S
C1506 C1504 1.419 . S
C1506 C1507 1.363 . S
C1506 H1509 0.929 . S
C1507 C1506 1.363 . S
C1507 C1513 1.428 . S
H1508 C1504 0.930 . S
H1509 C1506 0.929 . S
S1510 N1511 1.613 . S
S1510 N1512 1.610 . S
N1511 S1510 1.613 . S
N1511 C1514 1.350 . S
N1512 S1510 1.610 . S
N1512 C1513 1.351 . S
C1513 C1507 1.428 . S
C1513 N1512 1.351 . S
C1513 C1514 1.434 . S
C1514 C1505 1.429 . S
C1514 N1511 1.350 . S
C1514 C1513 1.434 . S
C1515 C1516 1.369 . S
C1515 C1517 1.419 . S
C1515 H1519 0.930 . S
C1516 C1515 1.369 . S
C1516 C1525 1.429 . S
C1517 C1515 1.419 . S
C1517 C1518 1.363 . S
C1517 H1520 0.929 . S
C1518 C1517 1.363 . S
C1518 C1524 1.428 . S
H1519 C1515 0.930 . S
H1520 C1517 0.929 . S
S1521 N1522 1.613 . S
S1521 N1523 1.610 . S
N1522 S1521 1.613 . S
N1522 C1525 1.350 . S
N1523 S1521 1.610 . S
N1523 C1524 1.351 . S
C1524 C1518 1.428 . S
C1524 N1523 1.351 . S
C1524 C1525 1.434 . S
C1525 C1516 1.429 . S
C1525 N1522 1.350 . S
C1525 C1524 1.434 . S
C1526 C1527 1.369 . S
C1526 C1528 1.419 . S
C1526 H1530 0.930 . S
C1527 C1526 1.369 . S
C1527 C1536 1.429 . S
C1528 C1526 1.419 . S
C1528 C1529 1.363 . S
C1528 H1531 0.929 . S
C1529 C1528 1.363 . S
C1529 C1535 1.428 . S
H1530 C1526 0.930 . S
H1531 C1528 0.929 . S
S1532 N1533 1.613 . S
S1532 N1534 1.610 . S
N1533 S1532 1.613 . S
N1533 C1536 1.350 . S
N1534 S1532 1.610 . S
N1534 C1535 1.351 . S
C1535 C1529 1.428 . S
C1535 N1534 1.351 . S
C1535 C1536 1.434 . S
C1536 C1527 1.429 . S
C1536 N1533 1.350 . S
C1536 C1535 1.434 . S
C1537 C1538 1.369 . S
C1537 C1539 1.419 . S
C1537 H1541 0.930 . S
C1538 C1537 1.369 . S
C1538 C1547 1.429 . S
C1539 C1537 1.419 . S
C1539 C1540 1.363 . S
C1539 H1542 0.929 . S
C1540 C1539 1.363 . S
C1540 C1546 1.428 . S
H1541 C1537 0.930 . S
H1542 C1539 0.929 . S
S1543 N1544 1.613 . S
S1543 N1545 1.610 . S
N1544 S1543 1.613 . S
N1544 C1547 1.350 . S
N1545 S1543 1.610 . S
N1545 C1546 1.351 . S
C1546 C1540 1.428 . S
C1546 N1545 1.351 . S
C1546 C1547 1.434 . S
C1547 C1538 1.429 . S
C1547 N1544 1.350 . S
C1547 C1546 1.434 . S
C1548 C1549 1.369 . S
C1548 C1550 1.419 . S
C1548 H1552 0.930 . S
C1549 C1548 1.369 . S
C1549 C1558 1.429 . S
C1550 C1548 1.419 . S
C1550 C1551 1.363 . S
C1550 H1553 0.929 . S
C1551 C1550 1.363 . S
C1551 C1557 1.428 . S
H1552 C1548 0.930 . S
H1553 C1550 0.929 . S
S1554 N1555 1.613 . S
S1554 N1556 1.610 . S
N1555 S1554 1.613 . S
N1555 C1558 1.350 . S
N1556 S1554 1.610 . S
N1556 C1557 1.351 . S
C1557 C1551 1.428 . S
C1557 N1556 1.351 . S
C1557 C1558 1.434 . S
C1558 C1549 1.429 . S
C1558 N1555 1.350 . S
C1558 C1557 1.434 . S
C1559 C1560 1.369 . S
C1559 C1561 1.419 . S
C1559 H1563 0.930 . S
C1560 C1559 1.369 . S
C1560 C1569 1.429 . S
C1561 C1559 1.419 . S
C1561 C1562 1.363 . S
C1561 H1564 0.929 . S
C1562 C1561 1.363 . S
C1562 C1568 1.428 . S
H1563 C1559 0.930 . S
H1564 C1561 0.929 . S
S1565 N1566 1.613 . S
S1565 N1567 1.610 . S
N1566 S1565 1.613 . S
N1566 C1569 1.350 . S
N1567 S1565 1.610 . S
N1567 C1568 1.351 . S
C1568 C1562 1.428 . S
C1568 N1567 1.351 . S
C1568 C1569 1.434 . S
C1569 C1560 1.429 . S
C1569 N1566 1.350 . S
C1569 C1568 1.434 . S
C1570 C1571 1.369 . S
C1570 C1572 1.419 . S
C1570 H1574 0.930 . S
C1571 C1570 1.369 . S
C1571 C1580 1.429 . S
C1572 C1570 1.419 . S
C1572 C1573 1.363 . S
C1572 H1575 0.929 . S
C1573 C1572 1.363 . S
C1573 C1579 1.428 . S
H1574 C1570 0.930 . S
H1575 C1572 0.929 . S
S1576 N1577 1.613 . S
S1576 N1578 1.610 . S
N1577 S1576 1.613 . S
N1577 C1580 1.350 . S
N1578 S1576 1.610 . S
N1578 C1579 1.351 . S
C1579 C1573 1.428 . S
C1579 N1578 1.351 . S
C1579 C1580 1.434 . S
C1580 C1571 1.429 . S
C1580 N1577 1.350 . S
C1580 C1579 1.434 . S
C1581 C1582 1.369 . S
C1581 C1583 1.419 . S
C1581 H1585 0.930 . S
C1582 C1581 1.369 . S
C1582 C1591 1.429 . S
C1583 C1581 1.419 . S
C1583 C1584 1.363 . S
C1583 H1586 0.929 . S
C1584 C1583 1.363 . S
C1584 C1590 1.428 . S
H1585 C1581 0.930 . S
H1586 C1583 0.929 . S
S1587 N1588 1.613 . S
S1587 N1589 1.610 . S
N1588 S1587 1.613 . S
N1588 C1591 1.350 . S
N1589 S1587 1.610 . S
N1589 C1590 1.351 . S
C1590 C1584 1.428 . S
C1590 N1589 1.351 . S
C1590 C1591 1.434 . S
C1591 C1582 1.429 . S
C1591 N1588 1.350 . S
C1591 C1590 1.434 . S
C1592 C1593 1.369 . S
C1592 C1594 1.419 . S
C1592 H1596 0.930 . S
C1593 C1592 1.369 . S
C1593 C1602 1.429 . S
C1594 C1592 1.419 . S
C1594 C1595 1.363 . S
C1594 H1597 0.929 . S
C1595 C1594 1.363 . S
C1595 C1601 1.428 . S
H1596 C1592 0.930 . S
H1597 C1594 0.929 . S
S1598 N1599 1.613 . S
S1598 N1600 1.610 . S
N1599 S1598 1.613 . S
N1599 C1602 1.350 . S
N1600 S1598 1.610 . S
N1600 C1601 1.351 . S
C1601 C1595 1.428 . S
C1601 N1600 1.351 . S
C1601 C1602 1.434 . S
C1602 C1593 1.429 . S
C1602 N1599 1.350 . S
C1602 C1601 1.434 . S
C1603 C1604 1.369 . S
C1603 C1605 1.419 . S
C1603 H1607 0.930 . S
C1604 C1603 1.369 . S
C1604 C1613 1.429 . S
C1605 C1603 1.419 . S
C1605 C1606 1.363 . S
C1605 H1608 0.929 . S
C1606 C1605 1.363 . S
C1606 C1612 1.428 . S
H1607 C1603 0.930 . S
H1608 C1605 0.929 . S
S1609 N1610 1.613 . S
S1609 N1611 1.610 . S
N1610 S1609 1.613 . S
N1610 C1613 1.350 . S
N1611 S1609 1.610 . S
N1611 C1612 1.351 . S
C1612 C1606 1.428 . S
C1612 N1611 1.351 . S
C1612 C1613 1.434 . S
C1613 C1604 1.429 . S
C1613 N1610 1.350 . S
C1613 C1612 1.434 . S
C1614 C1615 1.369 . S
C1614 C1616 1.419 . S
C1614 H1618 0.930 . S
C1615 C1614 1.369 . S
C1615 C1624 1.429 . S
C1616 C1614 1.419 . S
C1616 C1617 1.363 . S
C1616 H1619 0.929 . S
C1617 C1616 1.363 . S
C1617 C1623 1.428 . S
H1618 C1614 0.930 . S
H1619 C1616 0.929 . S
S1620 N1621 1.613 . S
S1620 N1622 1.610 . S
N1621 S1620 1.613 . S
N1621 C1624 1.350 . S
N1622 S1620 1.610 . S
N1622 C1623 1.351 . S
C1623 C1617 1.428 . S
C1623 N1622 1.351 . S
C1623 C1624 1.434 . S
C1624 C1615 1.429 . S
C1624 N1621 1.350 . S
C1624 C1623 1.434 . S
C1625 C1626 1.369 . S
C1625 C1627 1.419 . S
C1625 H1629 0.930 . S
C1626 C1625 1.369 . S
C1626 C1635 1.429 . S
C1627 C1625 1.419 . S
C1627 C1628 1.363 . S
C1627 H1630 0.929 . S
C1628 C1627 1.363 . S
C1628 C1634 1.428 . S
H1629 C1625 0.930 . S
H1630 C1627 0.929 . S
S1631 N1632 1.613 . S
S1631 N1633 1.610 . S
N1632 S1631 1.613 . S
N1632 C1635 1.350 . S
N1633 S1631 1.610 . S
N1633 C1634 1.351 . S
C1634 C1628 1.428 . S
C1634 N1633 1.351 . S
C1634 C1635 1.434 . S
C1635 C1626 1.429 . S
C1635 N1632 1.350 . S
C1635 C1634 1.434 . S
C1636 C1637 1.369 . S
C1636 C1638 1.419 . S
C1636 H1640 0.930 . S
C1637 C1636 1.369 . S
C1637 C1646 1.429 . S
C1638 C1636 1.419 . S
C1638 C1639 1.363 . S
C1638 H1641 0.929 . S
C1639 C1638 1.363 . S
C1639 C1645 1.428 . S
H1640 C1636 0.930 . S
H1641 C1638 0.929 . S
S1642 N1643 1.613 . S
S1642 N1644 1.610 . S
N1643 S1642 1.613 . S
N1643 C1646 1.350 . S
N1644 S1642 1.610 . S
N1644 C1645 1.351 . S
C1645 C1639 1.428 . S
C1645 N1644 1.351 . S
C1645 C1646 1.434 . S
C1646 C1637 1.429 . S
C1646 N1643 1.350 . S
C1646 C1645 1.434 . S
C1647 C1648 1.369 . S
C1647 C1649 1.419 . S
C1647 H1651 0.930 . S
C1648 C1647 1.369 . S
C1648 C1657 1.429 . S
C1649 C1647 1.419 . S
C1649 C1650 1.363 . S
C1649 H1652 0.929 . S
C1650 C1649 1.363 . S
C1650 C1656 1.428 . S
H1651 C1647 0.930 . S
H1652 C1649 0.929 . S
S1653 N1654 1.613 . S
S1653 N1655 1.610 . S
N1654 S1653 1.613 . S
N1654 C1657 1.350 . S
N1655 S1653 1.610 . S
N1655 C1656 1.351 . S
C1656 C1650 1.428 . S
C1656 N1655 1.351 . S
C1656 C1657 1.434 . S
C1657 C1648 1.429 . S
C1657 N1654 1.350 . S
C1657 C1656 1.434 . S
C1658 C1659 1.369 . S
C1658 C1660 1.419 . S
C1658 H1662 0.930 . S
C1659 C1658 1.369 . S
C1659 C1668 1.429 . S
C1660 C1658 1.419 . S
C1660 C1661 1.363 . S
C1660 H1663 0.929 . S
C1661 C1660 1.363 . S
C1661 C1667 1.428 . S
H1662 C1658 0.930 . S
H1663 C1660 0.929 . S
S1664 N1665 1.613 . S
S1664 N1666 1.610 . S
N1665 S1664 1.613 . S
N1665 C1668 1.350 . S
N1666 S1664 1.610 . S
N1666 C1667 1.351 . S
C1667 C1661 1.428 . S
C1667 N1666 1.351 . S
C1667 C1668 1.434 . S
C1668 C1659 1.429 . S
C1668 N1665 1.350 . S
C1668 C1667 1.434 . S
C1669 C1670 1.369 . S
C1669 C1671 1.419 . S
C1669 H1673 0.930 . S
C1670 C1669 1.369 . S
C1670 C1679 1.429 . S
C1671 C1669 1.419 . S
C1671 C1672 1.363 . S
C1671 H1674 0.929 . S
C1672 C1671 1.363 . S
C1672 C1678 1.428 . S
H1673 C1669 0.930 . S
H1674 C1671 0.929 . S
S1675 N1676 1.613 . S
S1675 N1677 1.610 . S
N1676 S1675 1.613 . S
N1676 C1679 1.350 . S
N1677 S1675 1.610 . S
N1677 C1678 1.351 . S
C1678 C1672 1.428 . S
C1678 N1677 1.351 . S
C1678 C1679 1.434 . S
C1679 C1670 1.429 . S
C1679 N1676 1.350 . S
C1679 C1678 1.434 . S
C1680 C1681 1.369 . S
C1680 C1682 1.419 . S
C1680 H1684 0.930 . S
C1681 C1680 1.369 . S
C1681 C1690 1.429 . S
C1682 C1680 1.419 . S
C1682 C1683 1.363 . S
C1682 H1685 0.929 . S
C1683 C1682 1.363 . S
C1683 C1689 1.428 . S
H1684 C1680 0.930 . S
H1685 C1682 0.929 . S
S1686 N1687 1.613 . S
S1686 N1688 1.610 . S
N1687 S1686 1.613 . S
N1687 C1690 1.350 . S
N1688 S1686 1.610 . S
N1688 C1689 1.351 . S
C1689 C1683 1.428 . S
C1689 N1688 1.351 . S
C1689 C1690 1.434 . S
C1690 C1681 1.429 . S
C1690 N1687 1.350 . S
C1690 C1689 1.434 . S
C1691 C1692 1.369 . S
C1691 C1693 1.419 . S
C1691 H1695 0.930 . S
C1692 C1691 1.369 . S
C1692 C1701 1.429 . S
C1693 C1691 1.419 . S
C1693 C1694 1.363 . S
C1693 H1696 0.929 . S
C1694 C1693 1.363 . S
C1694 C1700 1.428 . S
H1695 C1691 0.930 . S
H1696 C1693 0.929 . S
S1697 N1698 1.613 . S
S1697 N1699 1.610 . S
N1698 S1697 1.613 . S
N1698 C1701 1.350 . S
N1699 S1697 1.610 . S
N1699 C1700 1.351 . S
C1700 C1694 1.428 . S
C1700 N1699 1.351 . S
C1700 C1701 1.434 . S
C1701 C1692 1.429 . S
C1701 N1698 1.350 . S
C1701 C1700 1.434 . S
C1702 C1703 1.369 . S
C1702 C1704 1.419 . S
C1702 H1706 0.930 . S
C1703 C1702 1.369 . S
C1703 C1712 1.429 . S
C1704 C1702 1.419 . S
C1704 C1705 1.363 . S
C1704 H1707 0.929 . S
C1705 C1704 1.363 . S
C1705 C1711 1.428 . S
H1706 C1702 0.930 . S
H1707 C1704 0.929 . S
S1708 N1709 1.613 . S
S1708 N1710 1.610 . S
N1709 S1708 1.613 . S
N1709 C1712 1.350 . S
N1710 S1708 1.610 . S
N1710 C1711 1.351 . S
C1711 C1705 1.428 . S
C1711 N1710 1.351 . S
C1711 C1712 1.434 . S
C1712 C1703 1.429 . S
C1712 N1709 1.350 . S
C1712 C1711 1.434 . S
C1713 C1714 1.369 . S
C1713 C1715 1.419 . S
C1713 H1717 0.930 . S
C1714 C1713 1.369 . S
C1714 C1723 1.429 . S
C1715 C1713 1.419 . S
C1715 C1716 1.363 . S
C1715 H1718 0.929 . S
C1716 C1715 1.363 . S
C1716 C1722 1.428 . S
H1717 C1713 0.930 . S
H1718 C1715 0.929 . S
S1719 N1720 1.613 . S
S1719 N1721 1.610 . S
N1720 S1719 1.613 . S
N1720 C1723 1.350 . S
N1721 S1719 1.610 . S
N1721 C1722 1.351 . S
C1722 C1716 1.428 . S
C1722 N1721 1.351 . S
C1722 C1723 1.434 . S
C1723 C1714 1.429 . S
C1723 N1720 1.350 . S
C1723 C1722 1.434 . S
C1724 C1725 1.369 . S
C1724 C1726 1.419 . S
C1724 H1728 0.930 . S
C1725 C1724 1.369 . S
C1725 C1734 1.429 . S
C1726 C1724 1.419 . S
C1726 C1727 1.363 . S
C1726 H1729 0.929 . S
C1727 C1726 1.363 . S
C1727 C1733 1.428 . S
H1728 C1724 0.930 . S
H1729 C1726 0.929 . S
S1730 N1731 1.613 . S
S1730 N1732 1.610 . S
N1731 S1730 1.613 . S
N1731 C1734 1.350 . S
N1732 S1730 1.610 . S
N1732 C1733 1.351 . S
C1733 C1727 1.428 . S
C1733 N1732 1.351 . S
C1733 C1734 1.434 . S
C1734 C1725 1.429 . S
C1734 N1731 1.350 . S
C1734 C1733 1.434 . S
C1735 C1736 1.369 . S
C1735 C1737 1.419 . S
C1735 H1739 0.930 . S
C1736 C1735 1.369 . S
C1736 C1745 1.429 . S
C1737 C1735 1.419 . S
C1737 C1738 1.363 . S
C1737 H1740 0.929 . S
C1738 C1737 1.363 . S
C1738 C1744 1.428 . S
H1739 C1735 0.930 . S
H1740 C1737 0.929 . S
S1741 N1742 1.613 . S
S1741 N1743 1.610 . S
N1742 S1741 1.613 . S
N1742 C1745 1.350 . S
N1743 S1741 1.610 . S
N1743 C1744 1.351 . S
C1744 C1738 1.428 . S
C1744 N1743 1.351 . S
C1744 C1745 1.434 . S
C1745 C1736 1.429 . S
C1745 N1742 1.350 . S
C1745 C1744 1.434 . S
C1746 C1747 1.369 . S
C1746 C1748 1.419 . S
C1746 H1750 0.930 . S
C1747 C1746 1.369 . S
C1747 C1756 1.429 . S
C1748 C1746 1.419 . S
C1748 C1749 1.363 . S
C1748 H1751 0.929 . S
C1749 C1748 1.363 . S
C1749 C1755 1.428 . S
H1750 C1746 0.930 . S
H1751 C1748 0.929 . S
S1752 N1753 1.613 . S
S1752 N1754 1.610 . S
N1753 S1752 1.613 . S
N1753 C1756 1.350 . S
N1754 S1752 1.610 . S
N1754 C1755 1.351 . S
C1755 C1749 1.428 . S
C1755 N1754 1.351 . S
C1755 C1756 1.434 . S
C1756 C1747 1.429 . S
C1756 N1753 1.350 . S
C1756 C1755 1.434 . S
C1757 C1758 1.369 . S
C1757 C1759 1.419 . S
C1757 H1761 0.930 . S
C1758 C1757 1.369 . S
C1758 C1767 1.429 . S
C1759 C1757 1.419 . S
C1759 C1760 1.363 . S
C1759 H1762 0.929 . S
C1760 C1759 1.363 . S
C1760 C1766 1.428 . S
H1761 C1757 0.930 . S
H1762 C1759 0.929 . S
S1763 N1764 1.613 . S
S1763 N1765 1.610 . S
N1764 S1763 1.613 . S
N1764 C1767 1.350 . S
N1765 S1763 1.610 . S
N1765 C1766 1.351 . S
C1766 C1760 1.428 . S
C1766 N1765 1.351 . S
C1766 C1767 1.434 . S
C1767 C1758 1.429 . S
C1767 N1764 1.350 . S
C1767 C1766 1.434 . S
C1768 C1769 1.369 . S
C1768 C1770 1.419 . S
C1768 H1772 0.930 . S
C1769 C1768 1.369 . S
C1769 C1778 1.429 . S
C1770 C1768 1.419 . S
C1770 C1771 1.363 . S
C1770 H1773 0.929 . S
C1771 C1770 1.363 . S
C1771 C1777 1.428 . S
H1772 C1768 0.930 . S
H1773 C1770 0.929 . S
S1774 N1775 1.613 . S
S1774 N1776 1.610 . S
N1775 S1774 1.613 . S
N1775 C1778 1.350 . S
N1776 S1774 1.610 . S
N1776 C1777 1.351 . S
C1777 C1771 1.428 . S
C1777 N1776 1.351 . S
C1777 C1778 1.434 . S
C1778 C1769 1.429 . S
C1778 N1775 1.350 . S
C1778 C1777 1.434 . S
C1779 C1780 1.369 . S
C1779 C1781 1.419 . S
C1779 H1783 0.930 . S
C1780 C1779 1.369 . S
C1780 C1789 1.429 . S
C1781 C1779 1.419 . S
C1781 C1782 1.363 . S
C1781 H1784 0.929 . S
C1782 C1781 1.363 . S
C1782 C1788 1.428 . S
H1783 C1779 0.930 . S
H1784 C1781 0.929 . S
S1785 N1786 1.613 . S
S1785 N1787 1.610 1_554 S
N1786 S1785 1.613 . S
N1786 C1789 1.350 1_554 S
N1787 S1785 1.610 1_556 S
N1787 C1788 1.351 . S
C1788 C1782 1.428 . S
C1788 N1787 1.351 . S
C1788 C1789 1.434 . S
C1789 C1780 1.429 . S
C1789 N1786 1.350 1_556 S
C1789 C1788 1.434 . S
C1790 C1791 1.369 . S
C1790 C1792 1.419 . S
C1790 H1794 0.930 . S
C1791 C1790 1.369 . S
C1791 C1800 1.429 1_556 S
C1792 C1790 1.419 . S
C1792 C1793 1.363 . S
C1792 H1795 0.929 . S
C1793 C1792 1.363 . S
C1793 C1799 1.428 . S
H1794 C1790 0.930 . S
H1795 C1792 0.929 . S
S1796 N1797 1.613 . S
S1796 N1798 1.610 . S
N1797 S1796 1.613 . S
N1797 C1800 1.350 . S
N1798 S1796 1.610 . S
N1798 C1799 1.351 1_554 S
C1799 C1793 1.428 . S
C1799 N1798 1.351 1_556 S
C1799 C1800 1.434 1_556 S
C1800 C1791 1.429 1_554 S
C1800 N1797 1.350 . S
C1800 C1799 1.434 1_554 S
C1801 C1802 1.369 . S
C1801 C1803 1.419 . S
C1801 H1805 0.930 . S
C1802 C1801 1.369 . S
C1802 C1811 1.429 . S
C1803 C1801 1.419 . S
C1803 C1804 1.363 . S
C1803 H1806 0.929 . S
C1804 C1803 1.363 . S
C1804 C1810 1.428 . S
H1805 C1801 0.930 . S
H1806 C1803 0.929 . S
S1807 N1808 1.613 . S
S1807 N1809 1.610 . S
N1808 S1807 1.613 . S
N1808 C1811 1.350 1_554 S
N1809 S1807 1.610 . S
N1809 C1810 1.351 1_554 S
C1810 C1804 1.428 . S
C1810 N1809 1.351 1_556 S
C1810 C1811 1.434 . S
C1811 C1802 1.429 . S
C1811 N1808 1.350 1_556 S
C1811 C1810 1.434 . S
C1812 C1813 1.369 . S
C1812 C1814 1.419 . S
C1812 H1816 0.930 . S
C1813 C1812 1.369 . S
C1813 C1822 1.429 . S
C1814 C1812 1.419 . S
C1814 C1815 1.363 . S
C1814 H1817 0.929 . S
C1815 C1814 1.363 . S
C1815 C1821 1.428 . S
H1816 C1812 0.930 . S
H1817 C1814 0.929 . S
S1818 N1819 1.613 . S
S1818 N1820 1.610 . S
N1819 S1818 1.613 . S
N1819 C1822 1.350 1_554 S
N1820 S1818 1.610 . S
N1820 C1821 1.351 1_554 S
C1821 C1815 1.428 . S
C1821 N1820 1.351 1_556 S
C1821 C1822 1.434 . S
C1822 C1813 1.429 . S
C1822 N1819 1.350 1_556 S
C1822 C1821 1.434 . S
C1823 C1824 1.369 . S
C1823 C1825 1.419 . S
C1823 H1827 0.930 . S
C1824 C1823 1.369 . S
C1824 C1833 1.433 . S
C1825 C1823 1.419 . S
C1825 C1826 1.363 . S
C1825 H1828 0.929 . S
C1826 C1825 1.363 . S
C1826 C1832 1.428 . S
H1827 C1823 0.930 . S
H1828 C1825 0.929 . S
S1829 N1830 1.613 . S
S1829 N1831 1.610 . S
N1830 S1829 1.613 . S
N1830 C1833 1.344 1_554 S
N1831 S1829 1.610 . S
N1831 C1832 1.351 1_554 S
C1832 C1826 1.428 . S
C1832 N1831 1.351 1_556 S
C1832 C1833 1.436 . S
C1833 C1824 1.433 . S
C1833 N1830 1.344 1_556 S
C1833 C1832 1.436 . S
C1834 C1835 1.369 . S
C1834 C1836 1.419 . S
C1834 H1838 0.930 1_556 S
C1835 C1834 1.369 . S
C1835 C1844 1.429 . S
C1836 C1834 1.419 . S
C1836 C1837 1.363 . S
C1836 H1839 0.929 . S
C1837 C1836 1.363 . S
C1837 C1843 1.428 . S
H1838 C1834 0.930 1_554 S
H1839 C1836 0.929 . S
S1840 N1841 1.613 . S
S1840 N1842 1.610 . S
N1841 S1840 1.613 . S
N1841 C1844 1.350 . S
N1842 S1840 1.610 . S
N1842 C1843 1.351 . S
C1843 C1837 1.428 . S
C1843 N1842 1.351 . S
C1843 C1844 1.434 . S
C1844 C1835 1.429 . S
C1844 N1841 1.350 . S
C1844 C1843 1.434 . S
C1845 C1846 1.369 . S
C1845 C1847 1.419 . S
C1845 H1849 0.930 . S
C1846 C1845 1.369 . S
C1846 C1855 1.429 . S
C1847 C1845 1.419 . S
C1847 C1848 1.363 . S
C1847 H1850 0.929 . S
C1848 C1847 1.363 . S
C1848 C1854 1.428 . S
H1849 C1845 0.930 . S
H1850 C1847 0.929 . S
S1851 N1852 1.613 . S
S1851 N1853 1.610 . S
N1852 S1851 1.613 . S
N1852 C1855 1.350 . S
N1853 S1851 1.610 . S
N1853 C1854 1.351 . S
C1854 C1848 1.428 . S
C1854 N1853 1.351 . S
C1854 C1855 1.434 . S
C1855 C1846 1.429 . S
C1855 N1852 1.350 . S
C1855 C1854 1.434 . S
C1856 C1857 1.369 . S
C1856 C1858 1.419 . S
C1856 H1860 0.930 . S
C1857 C1856 1.369 . S
C1857 C1866 1.429 . S
C1858 C1856 1.419 . S
C1858 C1859 1.363 . S
C1858 H1861 0.929 . S
C1859 C1858 1.363 . S
C1859 C1865 1.428 . S
H1860 C1856 0.930 . S
H1861 C1858 0.929 . S
S1862 N1863 1.613 1_556 S
S1862 N1864 1.610 1_556 S
N1863 S1862 1.613 1_554 S
N1863 C1866 1.350 . S
N1864 S1862 1.610 1_554 S
N1864 C1865 1.351 . S
C1865 C1859 1.428 . S
C1865 N1864 1.351 . S
C1865 C1866 1.434 . S
C1866 C1857 1.429 . S
C1866 N1863 1.350 . S
C1866 C1865 1.434 . S
C1867 C1868 1.369 . S
C1867 C1869 1.419 . S
C1867 H1871 0.930 . S
C1868 C1867 1.369 . S
C1868 C1877 1.429 . S
C1869 C1867 1.419 . S
C1869 C1870 1.363 . S
C1869 H1872 0.929 . S
C1870 C1869 1.363 . S
C1870 C1876 1.428 . S
H1871 C1867 0.930 . S
H1872 C1869 0.929 . S
S1873 N1874 1.613 . S
S1873 N1875 1.610 . S
N1874 S1873 1.613 . S
N1874 C1877 1.350 . S
N1875 S1873 1.610 . S
N1875 C1876 1.351 . S
C1876 C1870 1.428 . S
C1876 N1875 1.351 . S
C1876 C1877 1.434 . S
C1877 C1868 1.429 . S
C1877 N1874 1.350 . S
C1877 C1876 1.434 . S
C1878 C1879 1.369 . S
C1878 C1880 1.419 . S
C1878 H1882 0.930 . S
C1879 C1878 1.369 . S
C1879 C1888 1.429 . S
C1880 C1878 1.419 . S
C1880 C1881 1.363 . S
C1880 H1883 0.929 . S
C1881 C1880 1.363 . S
C1881 C1887 1.428 . S
H1882 C1878 0.930 . S
H1883 C1880 0.929 . S
S1884 N1885 1.613 . S
S1884 N1886 1.610 . S
N1885 S1884 1.613 . S
N1885 C1888 1.350 . S
N1886 S1884 1.610 . S
N1886 C1887 1.351 . S
C1887 C1881 1.428 . S
C1887 N1886 1.351 . S
C1887 C1888 1.434 . S
C1888 C1879 1.429 . S
C1888 N1885 1.350 . S
C1888 C1887 1.434 . S
C1889 C1890 1.369 . S
C1889 C1891 1.419 . S
C1889 H1893 0.930 . S
C1890 C1889 1.369 . S
C1890 C1899 1.429 . S
C1891 C1889 1.419 . S
C1891 C1892 1.363 . S
C1891 H1894 0.929 . S
C1892 C1891 1.363 . S
C1892 C1898 1.428 . S
H1893 C1889 0.930 . S
H1894 C1891 0.929 . S
S1895 N1896 1.613 . S
S1895 N1897 1.610 . S
N1896 S1895 1.613 . S
N1896 C1899 1.350 . S
N1897 S1895 1.610 . S
N1897 C1898 1.351 . S
C1898 C1892 1.428 . S
C1898 N1897 1.351 . S
C1898 C1899 1.434 . S
C1899 C1890 1.429 . S
C1899 N1896 1.350 . S
C1899 C1898 1.434 . S
C1900 C1901 1.369 . S
C1900 C1902 1.419 . S
C1900 H1904 0.930 . S
C1901 C1900 1.369 . S
C1901 C1910 1.429 . S
C1902 C1900 1.419 . S
C1902 C1903 1.363 . S
C1902 H1905 0.929 . S
C1903 C1902 1.363 . S
C1903 C1909 1.428 . S
H1904 C1900 0.930 . S
H1905 C1902 0.929 . S
S1906 N1907 1.623 . S
S1906 N1908 1.610 . S
N1907 S1906 1.623 . S
N1907 C1910 1.369 . S
N1908 S1906 1.610 . S
N1908 C1909 1.351 . S
C1909 C1903 1.428 . S
C1909 N1908 1.351 . S
C1909 C1910 1.434 . S
C1910 C1901 1.429 . S
C1910 N1907 1.369 . S
C1910 C1909 1.434 . S
C1911 C1912 1.369 . S
C1911 C1913 1.419 . S
C1911 H1915 0.930 . S
C1912 C1911 1.369 . S
C1912 C1921 1.429 . S
C1913 C1911 1.419 . S
C1913 C1914 1.363 . S
C1913 H1916 0.929 . S
C1914 C1913 1.363 . S
C1914 C1920 1.428 . S
H1915 C1911 0.930 . S
H1916 C1913 0.929 . S
S1917 N1918 1.613 . S
S1917 N1919 1.610 . S
N1918 S1917 1.613 . S
N1918 C1921 1.350 . S
N1919 S1917 1.610 . S
N1919 C1920 1.351 . S
C1920 C1914 1.428 . S
C1920 N1919 1.351 . S
C1920 C1921 1.434 . S
C1921 C1912 1.429 . S
C1921 N1918 1.350 . S
C1921 C1920 1.434 . S
C1922 C1923 1.369 . S
C1922 C1924 1.419 . S
C1922 H1926 0.930 . S
C1923 C1922 1.369 . S
C1923 C1932 1.429 . S
C1924 C1922 1.419 . S
C1924 C1925 1.363 . S
C1924 H1927 0.929 . S
C1925 C1924 1.363 . S
C1925 C1931 1.428 . S
H1926 C1922 0.930 . S
H1927 C1924 0.929 . S
S1928 N1929 1.613 . S
S1928 N1930 1.610 . S
N1929 S1928 1.613 . S
N1929 C1932 1.350 . S
N1930 S1928 1.610 . S
N1930 C1931 1.351 . S
C1931 C1925 1.428 . S
C1931 N1930 1.351 . S
C1931 C1932 1.434 . S
C1932 C1923 1.429 . S
C1932 N1929 1.350 . S
C1932 C1931 1.434 . S
C1933 C1934 1.369 . S
C1933 C1935 1.419 . S
C1933 H1937 0.930 . S
C1934 C1933 1.369 . S
C1934 C1943 1.429 . S
C1935 C1933 1.419 . S
C1935 C1936 1.363 . S
C1935 H1938 0.929 . S
C1936 C1935 1.363 . S
C1936 C1942 1.428 . S
H1937 C1933 0.930 . S
H1938 C1935 0.929 . S
S1939 N1940 1.613 . S
S1939 N1941 1.610 . S
N1940 S1939 1.613 . S
N1940 C1943 1.350 1_545 S
N1941 S1939 1.610 . S
N1941 C1942 1.351 1_545 S
C1942 C1936 1.428 . S
C1942 N1941 1.351 1_565 S
C1942 C1943 1.434 . S
C1943 C1934 1.429 . S
C1943 N1940 1.350 1_565 S
C1943 C1942 1.434 . S
C1944 C1945 1.369 . S
C1944 C1946 1.425 . S
C1944 H1948 0.930 1_565 S
C1945 C1944 1.369 . S
C1945 C1954 1.429 . S
C1946 C1944 1.425 . S
C1946 C1947 1.366 . S
C1946 H1949 0.920 1_565 S
C1947 C1946 1.366 . S
C1947 C1953 1.428 . S
H1948 C1944 0.930 1_545 S
H1949 C1946 0.920 1_545 S
S1950 N1951 1.613 . S
S1950 N1952 1.610 . S
N1951 S1950 1.613 . S
N1951 C1954 1.350 . S
N1952 S1950 1.610 . S
N1952 C1953 1.351 . S
C1953 C1947 1.428 . S
C1953 N1952 1.351 . S
C1953 C1954 1.434 . S
C1954 C1945 1.429 . S
C1954 N1951 1.350 . S
C1954 C1953 1.434 . S
C1955 C1956 1.369 . S
C1955 C1957 1.419 . S
C1955 H1959 0.930 . S
C1956 C1955 1.369 . S
C1956 C1965 1.429 . S
C1957 C1955 1.419 . S
C1957 C1958 1.363 . S
C1957 H1960 0.929 . S
C1958 C1957 1.363 . S
C1958 C1964 1.428 . S
H1959 C1955 0.930 . S
H1960 C1957 0.929 . S
S1961 N1962 1.613 . S
S1961 N1963 1.610 . S
N1962 S1961 1.613 . S
N1962 C1965 1.350 . S
N1963 S1961 1.610 . S
N1963 C1964 1.351 . S
C1964 C1958 1.428 . S
C1964 N1963 1.351 . S
C1964 C1965 1.434 . S
C1965 C1956 1.429 . S
C1965 N1962 1.350 . S
C1965 C1964 1.434 . S
C1966 C1967 1.369 . S
C1966 C1968 1.419 . S
C1966 H1970 0.930 . S
C1967 C1966 1.369 . S
C1967 C1976 1.429 . S
C1968 C1966 1.419 . S
C1968 C1969 1.363 . S
C1968 H1971 0.929 . S
C1969 C1968 1.363 . S
C1969 C1975 1.428 . S
H1970 C1966 0.930 . S
H1971 C1968 0.929 . S
S1972 N1973 1.613 . S
S1972 N1974 1.610 . S
N1973 S1972 1.613 . S
N1973 C1976 1.350 . S
N1974 S1972 1.610 . S
N1974 C1975 1.351 . S
C1975 C1969 1.428 . S
C1975 N1974 1.351 . S
C1975 C1976 1.434 . S
C1976 C1967 1.429 . S
C1976 N1973 1.350 . S
C1976 C1975 1.434 . S
C1977 C1978 1.369 . S
C1977 C1979 1.419 . S
C1977 H1981 0.930 . S
C1978 C1977 1.369 . S
C1978 C1987 1.429 . S
C1979 C1977 1.419 . S
C1979 C1980 1.363 . S
C1979 H1982 0.929 . S
C1980 C1979 1.363 . S
C1980 C1986 1.428 . S
H1981 C1977 0.930 . S
H1982 C1979 0.929 . S
S1983 N1984 1.613 . S
S1983 N1985 1.610 . S
N1984 S1983 1.613 . S
N1984 C1987 1.350 . S
N1985 S1983 1.610 . S
N1985 C1986 1.351 . S
C1986 C1980 1.428 . S
C1986 N1985 1.351 . S
C1986 C1987 1.434 . S
C1987 C1978 1.429 . S
C1987 N1984 1.350 . S
C1987 C1986 1.434 . S
C1988 C1989 1.369 . S
C1988 C1990 1.419 . S
C1988 H1992 0.930 . S
C1989 C1988 1.369 . S
C1989 C1998 1.429 . S
C1990 C1988 1.419 . S
C1990 C1991 1.363 . S
C1990 H1993 0.929 . S
C1991 C1990 1.363 . S
C1991 C1997 1.428 . S
H1992 C1988 0.930 . S
H1993 C1990 0.929 . S
S1994 N1995 1.613 . S
S1994 N1996 1.610 . S
N1995 S1994 1.613 . S
N1995 C1998 1.350 . S
N1996 S1994 1.610 . S
N1996 C1997 1.351 . S
C1997 C1991 1.428 . S
C1997 N1996 1.351 . S
C1997 C1998 1.434 . S
C1998 C1989 1.429 . S
C1998 N1995 1.350 . S
C1998 C1997 1.434 . S
C1999 C2000 1.369 . S
C1999 C2001 1.419 . S
C1999 H2003 0.930 . S
C2000 C1999 1.369 . S
C2000 C2009 1.429 . S
C2001 C1999 1.419 . S
C2001 C2002 1.363 . S
C2001 H2004 0.929 . S
C2002 C2001 1.363 . S
C2002 C2008 1.428 . S
H2003 C1999 0.930 . S
H2004 C2001 0.929 . S
S2005 N2006 1.613 . S
S2005 N2007 1.610 . S
N2006 S2005 1.613 . S
N2006 C2009 1.350 . S
N2007 S2005 1.610 . S
N2007 C2008 1.351 . S
C2008 C2002 1.428 . S
C2008 N2007 1.351 . S
C2008 C2009 1.434 . S
C2009 C2000 1.429 . S
C2009 N2006 1.350 . S
C2009 C2008 1.434 . S
C2010 C2011 1.369 . S
C2010 C2012 1.419 . S
C2010 H2014 0.930 . S
C2011 C2010 1.369 . S
C2011 C2020 1.429 . S
C2012 C2010 1.419 . S
C2012 C2013 1.363 . S
C2012 H2015 0.929 . S
C2013 C2012 1.363 . S
C2013 C2019 1.428 . S
H2014 C2010 0.930 . S
H2015 C2012 0.929 . S
S2016 N2017 1.613 . S
S2016 N2018 1.610 . S
N2017 S2016 1.613 . S
N2017 C2020 1.350 . S
N2018 S2016 1.610 . S
N2018 C2019 1.351 . S
C2019 C2013 1.428 . S
C2019 N2018 1.351 . S
C2019 C2020 1.434 . S
C2020 C2011 1.429 . S
C2020 N2017 1.350 . S
C2020 C2019 1.434 . S
C2021 C2022 1.369 . S
C2021 C2023 1.419 . S
C2021 H2025 0.930 1_655 S
C2022 C2021 1.369 . S
C2022 C2031 1.429 . S
C2023 C2021 1.419 . S
C2023 C2024 1.363 . S
C2023 H2026 0.929 1_655 S
C2024 C2023 1.363 . S
C2024 C2030 1.428 . S
H2025 C2021 0.930 1_455 S
H2026 C2023 0.929 1_455 S
S2027 N2028 1.613 . S
S2027 N2029 1.610 . S
N2028 S2027 1.613 . S
N2028 C2031 1.350 . S
N2029 S2027 1.610 . S
N2029 C2030 1.351 . S
C2030 C2024 1.428 . S
C2030 N2029 1.351 . S
C2030 C2031 1.434 . S
C2031 C2022 1.429 . S
C2031 N2028 1.350 . S
C2031 C2030 1.434 . S
C2032 C2033 1.369 . S
C2032 C2034 1.419 . S
C2032 H2036 0.930 . S
C2033 C2032 1.369 . S
C2033 C2042 1.429 . S
C2034 C2032 1.419 . S
C2034 C2035 1.363 . S
C2034 H2037 0.929 . S
C2035 C2034 1.363 . S
C2035 C2041 1.428 . S
H2036 C2032 0.930 . S
H2037 C2034 0.929 . S
S2038 N2039 1.613 . S
S2038 N2040 1.610 . S
N2039 S2038 1.613 . S
N2039 C2042 1.350 . S
N2040 S2038 1.610 . S
N2040 C2041 1.351 . S
C2041 C2035 1.428 . S
C2041 N2040 1.351 . S
C2041 C2042 1.434 . S
C2042 C2033 1.429 . S
C2042 N2039 1.350 . S
C2042 C2041 1.434 . S
C2043 C2044 1.369 . S
C2043 C2045 1.419 . S
C2043 H2047 0.930 . S
C2044 C2043 1.369 . S
C2044 C2053 1.429 . S
C2045 C2043 1.419 . S
C2045 C2046 1.363 . S
C2045 H2048 0.929 . S
C2046 C2045 1.363 . S
C2046 C2052 1.428 . S
H2047 C2043 0.930 . S
H2048 C2045 0.929 . S
S2049 N2050 1.613 . S
S2049 N2051 1.610 . S
N2050 S2049 1.613 . S
N2050 C2053 1.350 . S
N2051 S2049 1.610 . S
N2051 C2052 1.351 . S
C2052 C2046 1.428 . S
C2052 N2051 1.351 . S
C2052 C2053 1.434 . S
C2053 C2044 1.429 . S
C2053 N2050 1.350 . S
C2053 C2052 1.434 . S
C2054 C2055 1.369 . S
C2054 C2056 1.419 . S
C2054 H2058 0.932 . S
C2055 C2054 1.369 . S
C2055 C2064 1.429 . S
C2056 C2054 1.419 . S
C2056 C2057 1.363 . S
C2056 H2059 0.929 . S
C2057 C2056 1.363 . S
C2057 C2063 1.428 . S
H2058 C2054 0.932 . S
H2059 C2056 0.929 . S
S2060 N2061 1.613 . S
S2060 N2062 1.610 . S
N2061 S2060 1.613 . S
N2061 C2064 1.350 . S
N2062 S2060 1.610 . S
N2062 C2063 1.351 . S
C2063 C2057 1.428 . S
C2063 N2062 1.351 . S
C2063 C2064 1.434 . S
C2064 C2055 1.429 . S
C2064 N2061 1.350 . S
C2064 C2063 1.434 . S
C2065 C2066 1.369 . S
C2065 C2067 1.419 . S
C2065 H2069 0.930 . S
C2066 C2065 1.369 . S
C2066 C2075 1.429 . S
C2067 C2065 1.419 . S
C2067 C2068 1.363 . S
C2067 H2070 0.929 . S
C2068 C2067 1.363 . S
C2068 C2074 1.428 . S
H2069 C2065 0.930 . S
H2070 C2067 0.929 . S
S2071 N2072 1.613 . S
S2071 N2073 1.610 . S
N2072 S2071 1.613 . S
N2072 C2075 1.350 . S
N2073 S2071 1.610 . S
N2073 C2074 1.351 . S
C2074 C2068 1.428 . S
C2074 N2073 1.351 . S
C2074 C2075 1.434 . S
C2075 C2066 1.429 . S
C2075 N2072 1.350 . S
C2075 C2074 1.434 . S
C2076 C2077 1.369 . S
C2076 C2078 1.419 . S
C2076 H2080 0.930 . S
C2077 C2076 1.369 . S
C2077 C2086 1.429 . S
C2078 C2076 1.419 . S
C2078 C2079 1.363 . S
C2078 H2081 0.929 . S
C2079 C2078 1.363 . S
C2079 C2085 1.428 . S
H2080 C2076 0.930 . S
H2081 C2078 0.929 . S
S2082 N2083 1.613 . S
S2082 N2084 1.610 . S
N2083 S2082 1.613 . S
N2083 C2086 1.350 . S
N2084 S2082 1.610 . S
N2084 C2085 1.351 . S
C2085 C2079 1.428 . S
C2085 N2084 1.351 . S
C2085 C2086 1.434 . S
C2086 C2077 1.429 . S
C2086 N2083 1.350 . S
C2086 C2085 1.434 . S
C2087 C2088 1.369 . S
C2087 C2089 1.419 . S
C2087 H2091 0.930 . S
C2088 C2087 1.369 . S
C2088 C2097 1.429 . S
C2089 C2087 1.419 . S
C2089 C2090 1.363 . S
C2089 H2092 0.929 . S
C2090 C2089 1.363 . S
C2090 C2096 1.428 . S
H2091 C2087 0.930 . S
H2092 C2089 0.929 . S
S2093 N2094 1.613 . S
S2093 N2095 1.610 . S
N2094 S2093 1.613 . S
N2094 C2097 1.350 . S
N2095 S2093 1.610 . S
N2095 C2096 1.351 . S
C2096 C2090 1.428 . S
C2096 N2095 1.351 . S
C2096 C2097 1.434 . S
C2097 C2088 1.429 . S
C2097 N2094 1.350 . S
C2097 C2096 1.434 . S
C2098 C2099 1.369 . S
C2098 C2100 1.419 . S
C2098 H2102 0.930 . S
C2099 C2098 1.369 . S
C2099 C2108 1.429 . S
C2100 C2098 1.419 . S
C2100 C2101 1.363 . S
C2100 H2103 0.929 . S
C2101 C2100 1.363 . S
C2101 C2107 1.428 . S
H2102 C2098 0.930 . S
H2103 C2100 0.929 . S
S2104 N2105 1.613 . S
S2104 N2106 1.610 . S
N2105 S2104 1.613 . S
N2105 C2108 1.350 . S
N2106 S2104 1.610 . S
N2106 C2107 1.351 . S
C2107 C2101 1.428 . S
C2107 N2106 1.351 . S
C2107 C2108 1.434 . S
C2108 C2099 1.429 . S
C2108 N2105 1.350 . S
C2108 C2107 1.434 . S
C2109 C2110 1.369 . S
C2109 C2111 1.419 . S
C2109 H2113 0.930 . S
C2110 C2109 1.369 . S
C2110 C2119 1.429 1_655 S
C2111 C2109 1.419 . S
C2111 C2112 1.363 . S
C2111 H2114 0.929 . S
C2112 C2111 1.363 . S
C2112 C2118 1.428 1_655 S
H2113 C2109 0.930 . S
H2114 C2111 0.929 . S
S2115 N2116 1.613 . S
S2115 N2117 1.610 . S
N2116 S2115 1.613 . S
N2116 C2119 1.350 . S
N2117 S2115 1.610 . S
N2117 C2118 1.351 . S
C2118 C2112 1.428 1_455 S
C2118 N2117 1.351 . S
C2118 C2119 1.434 . S
C2119 C2110 1.429 1_455 S
C2119 N2116 1.350 . S
C2119 C2118 1.434 . S
C2120 C2121 1.369 . S
C2120 C2122 1.419 . S
C2120 H2124 0.930 . S
C2121 C2120 1.369 . S
C2121 C2130 1.429 . S
C2122 C2120 1.419 . S
C2122 C2123 1.363 . S
C2122 H2125 0.929 . S
C2123 C2122 1.363 . S
C2123 C2129 1.428 . S
H2124 C2120 0.930 . S
H2125 C2122 0.929 . S
S2126 N2127 1.613 . S
S2126 N2128 1.610 . S
N2127 S2126 1.613 . S
N2127 C2130 1.350 . S
N2128 S2126 1.610 . S
N2128 C2129 1.351 . S
C2129 C2123 1.428 . S
C2129 N2128 1.351 . S
C2129 C2130 1.434 . S
C2130 C2121 1.429 . S
C2130 N2127 1.350 . S
C2130 C2129 1.434 . S
C2131 C2132 1.369 . S
C2131 C2133 1.419 . S
C2131 H2135 0.930 . S
C2132 C2131 1.369 . S
C2132 C2141 1.429 . S
C2133 C2131 1.419 . S
C2133 C2134 1.363 . S
C2133 H2136 0.929 . S
C2134 C2133 1.363 . S
C2134 C2140 1.428 . S
H2135 C2131 0.930 . S
H2136 C2133 0.929 . S
S2137 N2138 1.613 . S
S2137 N2139 1.610 . S
N2138 S2137 1.613 . S
N2138 C2141 1.350 . S
N2139 S2137 1.610 . S
N2139 C2140 1.351 . S
C2140 C2134 1.428 . S
C2140 N2139 1.351 . S
C2140 C2141 1.434 . S
C2141 C2132 1.429 . S
C2141 N2138 1.350 . S
C2141 C2140 1.434 . S
C1351 C10 1.693 . S
C1353 C839 1.652 . S
C1362 C23 1.683 . S
C1364 C883 1.654 . S
C1375 C963 1.656 . S
C1373 C29 1.695 . S
C1384 C30 1.691 . S
C1386 C1007 1.663 . S
C1395 C5 1.700 . S
C1397 C1087 1.665 . S
C1406 C18 1.690 . S
C1408 C1149 1.649 . S
C1417 C49 1.694 . S
C1419 C1069 1.650 . S
C1430 C1131 1.647 . S
C1428 C62 1.683 . S
C1441 C1025 1.666 . S
C1439 C70 1.693 . S
C1450 C75 1.691 . S
C1452 C945 1.653 . S
C1463 C821 1.657 . S
C1461 C44 1.700 . S
C1472 C57 1.690 . S
C1474 C901 1.661 . S
C1483 C88 1.694 . S
C1485 C1211 1.656 . S
C1494 C101 1.683 . S
C1496 C1255 1.658 . S
C1507 C1335 1.654 . S
C1505 C107 1.692 . S
C1516 C108 1.691 . S
C1518 C281 1.650 . S
C1527 C83 1.699 . S
C1529 C325 1.674 . S
C1538 C96 1.690 . S
C1540 C405 1.650 . S
C1549 C127 1.693 . S
C1551 C343 1.665 . S
C1560 C140 1.684 . S
C1562 C387 1.643 . S
C1573 C263 1.651 . S
C1571 C146 1.693 . S
C1584 C1317 1.651 . S
C1582 C147 1.691 . S
C1595 C1193 1.660 . S
C1593 C122 1.699 . S
C1606 C1273 1.661 . S
C1604 C135 1.690 . S
C1615 C160 1.693 . S
C1617 C467 1.655 . S
C1626 C173 1.684 . S
C1628 C529 1.643 . S
C1637 C185 1.693 . S
C1639 C573 1.666 . S
C1648 C186 1.691 . S
C1650 C635 1.666 . S
C1661 C697 1.671 . S
C1659 C159 1.700 . S
C1672 C777 1.650 . S
C1670 C172 1.690 . S
C1683 C715 1.666 . S
C1681 C205 1.693 . S
C1694 C759 1.647 . S
C1692 C218 1.684 . S
C1703 C224 1.693 . S
C1705 C653 1.665 . S
C1716 C591 1.665 . S
C1714 C225 1.691 . S
C1725 C200 1.699 . S
C1727 C449 1.662 . S
C1738 C511 1.654 . S
C1736 C213 1.689 . S
C1749 C287 1.442 . S
C1747 C4 1.513 . S
C1758 C17 1.508 . S
C1760 C331 1.439 . S
C1771 C411 1.450 . S
C1769 C31 1.516 . S
C1782 C473 1.446 . S
C1780 C36 1.513 . S
C1793 C535 1.455 . S
C1791 C3 1.521 . S
C1804 C579 1.449 . S
C1802 C16 1.517 . S
C1813 C43 1.513 . S
C1815 C597 1.450 . S
C1824 C56 1.508 . S
C1826 C455 1.442 . S
C1835 C68 1.518 . S
C1837 C517 1.445 . S
C1846 C69 1.515 . S
C1848 C349 1.444 . S
C1859 C393 1.454 . S
C1857 C42 1.521 . S
C1868 C55 1.517 . S
C1870 C269 1.443 . S
C1881 C641 1.448 . S
C1879 C82 1.513 . S
C1890 C95 1.508 . S
C1892 C703 1.439 . S
C1901 C109 1.517 1_655 S
C1903 C783 1.443 . S
C1914 C845 1.447 . S
C1912 C114 1.513 . S
C1923 C81 1.522 . S
C1925 C889 1.449 . S
C1934 C94 1.516 . S
C1936 C969 1.452 . S
C1945 C121 1.515 . S
C1947 C951 1.437 . S
C1956 C134 1.508 . S
C1958 C827 1.440 . S
C1969 C907 1.452 . S
C1967 C148 1.516 . S
C1978 C153 1.513 . S
C1980 C721 1.450 . S
C1989 C120 1.522 . S
C1991 C765 1.454 . S
C2002 C659 1.443 . S
C2000 C133 1.517 1_655 S
C2013 C1013 1.449 . S
C2011 C166 1.513 . S
C2022 C179 1.508 . S
C2024 C1093 1.439 . S
C2033 C187 1.516 . S
C2035 C1155 1.448 . S
C2046 C1217 1.439 . S
C2044 C192 1.514 . S
C2057 C1261 1.454 . S
C2055 C161 1.522 1_565 S
C2066 C174 1.515 . S
C2068 C1341 1.447 . S
C2077 C199 1.514 . S
C2079 C1323 1.443 . S
C2088 C212 1.508 1_565 S
C2090 C1199 1.441 . S
C2101 C1279 1.446 . S
C2099 C226 1.516 . S
C2112 C1075 1.446 . S
C2110 C231 1.510 . S
C2123 C1137 1.451 . S
C2121 C198 1.521 . S
C2132 C211 1.516 . S
C2134 C1031 1.447 . S
