# Generated by pormake.
# Topology apo, (3,6)-cn, num edge types: 1
# Building blocks:
#     Node 0, Type 0, BuildingBlock: BETDIP_clean_linker_0, # of connection points: 3
#     Node 1, Type 0, BuildingBlock: BETDIP_clean_linker_0, # of connection points: 3
#     Node 2, Type 0, BuildingBlock: BETDIP_clean_linker_0, # of connection points: 3
#     Node 3, Type 0, BuildingBlock: BETDIP_clean_linker_0, # of connection points: 3
#     Node 4, Type 0, BuildingBlock: BETDIP_clean_linker_0, # of connection points: 3
#     Node 5, Type 0, BuildingBlock: BETDIP_clean_linker_0, # of connection points: 3
#     Node 6, Type 0, BuildingBlock: BETDIP_clean_linker_0, # of connection points: 3
#     Node 7, Type 0, BuildingBlock: BETDIP_clean_linker_0, # of connection points: 3
#     Node 8, Type 1, BuildingBlock: MIDCAF_clean_sbu_0, # of connection points: 6
#     Node 9, Type 1, BuildingBlock: MIDCAF_clean_sbu_0, # of connection points: 6
#     Node 10, Type 1, BuildingBlock: MIDCAF_clean_sbu_0, # of connection points: 6
#     Node 11, Type 1, BuildingBlock: MIDCAF_clean_sbu_0, # of connection points: 6
#     Edge 12, Type (0, 1), BuildingBlock: OJICUG_clean_linker_0, # of connection points: 2
#     Edge 13, Type (0, 1), BuildingBlock: OJICUG_clean_linker_0, # of connection points: 2
#     Edge 14, Type (0, 1), BuildingBlock: OJICUG_clean_linker_0, # of connection points: 2
#     Edge 15, Type (0, 1), BuildingBlock: OJICUG_clean_linker_0, # of connection points: 2
#     Edge 16, Type (0, 1), BuildingBlock: OJICUG_clean_linker_0, # of connection points: 2
#     Edge 17, Type (0, 1), BuildingBlock: OJICUG_clean_linker_0, # of connection points: 2
#     Edge 18, Type (0, 1), BuildingBlock: OJICUG_clean_linker_0, # of connection points: 2
#     Edge 19, Type (0, 1), BuildingBlock: OJICUG_clean_linker_0, # of connection points: 2
#     Edge 20, Type (0, 1), BuildingBlock: OJICUG_clean_linker_0, # of connection points: 2
#     Edge 21, Type (0, 1), BuildingBlock: OJICUG_clean_linker_0, # of connection points: 2
#     Edge 22, Type (0, 1), BuildingBlock: OJICUG_clean_linker_0, # of connection points: 2
#     Edge 23, Type (0, 1), BuildingBlock: OJICUG_clean_linker_0, # of connection points: 2
#     Edge 24, Type (0, 1), BuildingBlock: OJICUG_clean_linker_0, # of connection points: 2
#     Edge 25, Type (0, 1), BuildingBlock: OJICUG_clean_linker_0, # of connection points: 2
#     Edge 26, Type (0, 1), BuildingBlock: OJICUG_clean_linker_0, # of connection points: 2
#     Edge 27, Type (0, 1), BuildingBlock: OJICUG_clean_linker_0, # of connection points: 2
#     Edge 28, Type (0, 1), BuildingBlock: OJICUG_clean_linker_0, # of connection points: 2
#     Edge 29, Type (0, 1), BuildingBlock: OJICUG_clean_linker_0, # of connection points: 2
#     Edge 30, Type (0, 1), BuildingBlock: OJICUG_clean_linker_0, # of connection points: 2
#     Edge 31, Type (0, 1), BuildingBlock: OJICUG_clean_linker_0, # of connection points: 2
#     Edge 32, Type (0, 1), BuildingBlock: OJICUG_clean_linker_0, # of connection points: 2
#     Edge 33, Type (0, 1), BuildingBlock: OJICUG_clean_linker_0, # of connection points: 2
#     Edge 34, Type (0, 1), BuildingBlock: OJICUG_clean_linker_0, # of connection points: 2
#     Edge 35, Type (0, 1), BuildingBlock: OJICUG_clean_linker_0, # of connection points: 2
# Relax obj value: 0.011
# Max RMSD: 0.060
# Mean RMSD: 0.050
data_MOF--net-apo--node1-MIDCAF_clean_sbu_0--node2-BETDIP_clean_linker_0--edge1-OJICUG_clean_linker_0
_symmetry_space_group_name_H-M    P1
_symmetry_Int_Tables_number       1
_symmetry_cell_setting            triclinic
loop_
_symmetry_equiv_pos_as_xyz
'x, y, z'
_cell_length_a     26.634693
_cell_length_b     30.046764
_cell_length_c     24.502898
_cell_angle_alpha  89.980123
_cell_angle_beta   89.911197
_cell_angle_gamma 89.803397
loop_
_atom_site_label
_atom_site_type_symbol
_atom_site_fract_x
_atom_site_fract_y
_atom_site_fract_z
_atom_type_partial_charge
H0 H 0.33426 0.26866 0.43649 0.0
H1 H 0.35141 0.35656 0.29907 0.0
H2 H 0.41649 0.39046 0.45432 0.0
H3 H 0.2746 0.32488 0.27476 0.0
C4 C 0.27822 0.29049 0.28789 0.0
C5 C 0.34849 0.29938 0.41927 0.0
C6 C 0.37598 0.3287 0.45212 0.0
C7 C 0.33798 0.30992 0.36464 0.0
C8 C 0.35755 0.34921 0.34179 0.0
C9 C 0.38689 0.37819 0.37362 0.0
C10 C 0.39487 0.368 0.42903 0.0
N11 N 0.30854 0.27962 0.33387 0.0
H12 H 0.17272 0.23555 0.93625 0.0
H13 H 0.16468 0.13256 0.81402 0.0
H14 H 0.09194 0.1158 0.96993 0.0
H15 H 0.23888 0.16598 0.78522 0.0
C16 C 0.23455 0.20115 0.79431 0.0
C17 C 0.15985 0.20303 0.92336 0.0
C18 C 0.13254 0.17648 0.95962 0.0
C19 C 0.1722 0.18726 0.87101 0.0
C20 C 0.15537 0.14487 0.85427 0.0
C21 C 0.12649 0.11838 0.88995 0.0
C22 C 0.11517 0.13498 0.94226 0.0
N23 N 0.2016 0.2152 0.83683 0.0
H24 H 0.84535 0.23621 0.62086 0.0
H25 H 0.86862 0.1336 0.74134 0.0
H26 H 0.95365 0.1336 0.59144 0.0
H27 H 0.789 0.15537 0.76711 0.0
C28 C 0.78807 0.19114 0.76089 0.0
C29 C 0.86482 0.20646 0.63439 0.0
C30 C 0.89979 0.18587 0.59993 0.0
C31 C 0.85394 0.18822 0.68592 0.0
C32 C 0.878 0.14845 0.70247 0.0
C33 C 0.91362 0.12755 0.66817 0.0
C34 C 0.9253 0.1479 0.61798 0.0
N35 N 0.81831 0.21075 0.71942 0.0
H36 H 0.66818 0.25528 0.1205 0.0
H37 H 0.65514 0.36149 0.23835 0.0
H38 H 0.58345 0.3724 0.08155 0.0
H39 H 0.72903 0.3312 0.2696 0.0
C40 C 0.72645 0.29564 0.26239 0.0
C41 C 0.65391 0.28776 0.13208 0.0
C42 C 0.62553 0.3126 0.0948 0.0
C43 C 0.66515 0.30523 0.18393 0.0
C44 C 0.64664 0.34768 0.19868 0.0
C45 C 0.61743 0.37256 0.16163 0.0
C46 C 0.60673 0.3542 0.11025 0.0
N47 N 0.69547 0.27918 0.21959 0.0
H48 H 0.68316 0.72435 0.60829 0.0
H49 H 0.68077 0.62229 0.73221 0.0
H50 H 0.61603 0.59791 0.57428 0.0
H51 H 0.75193 0.65946 0.76155 0.0
C52 C 0.74557 0.69431 0.75199 0.0
C53 C 0.67347 0.69096 0.62122 0.0
C54 C 0.64945 0.66217 0.5847 0.0
C55 C 0.68629 0.6765 0.67402 0.0
C56 C 0.6723 0.63345 0.69124 0.0
C57 C 0.64702 0.60473 0.65522 0.0
C58 C 0.63636 0.61941 0.60205 0.0
N59 N 0.71291 0.70638 0.70837 0.0
H60 H 0.84652 0.7583 0.11125 0.0
H61 H 0.85623 0.86246 0.2318 0.0
H62 H 0.9256 0.87845 0.07422 0.0
H63 H 0.78467 0.83027 0.26363 0.0
C64 C 0.78756 0.79498 0.25467 0.0
C65 C 0.85941 0.79099 0.12343 0.0
C66 C 0.88594 0.81741 0.08622 0.0
C67 C 0.84784 0.80722 0.17582 0.0
C68 C 0.86478 0.84978 0.19154 0.0
C69 C 0.89265 0.87614 0.15493 0.0
C70 C 0.90313 0.85925 0.10261 0.0
N71 N 0.81867 0.77989 0.21102 0.0
H72 H 0.19638 0.78005 0.44018 0.0
H73 H 0.16196 0.87169 0.31091 0.0
H74 H 0.05813 0.85309 0.44447 0.0
H75 H 0.20278 0.80007 0.26156 0.0
C76 C 0.23516 0.80177 0.28839 0.0
C77 C 0.17043 0.80324 0.42128 0.0
C78 C 0.12555 0.81429 0.44775 0.0
C79 C 0.18182 0.82164 0.37008 0.0
C80 C 0.15018 0.85462 0.34764 0.0
C81 C 0.10624 0.86813 0.3756 0.0
C82 C 0.0928 0.845 0.42345 0.0
N83 N 0.22806 0.80974 0.34511 0.0
H84 H 0.34714 0.73201 0.92376 0.0
H85 H 0.37643 0.64449 0.78842 0.0
H86 H 0.43402 0.61329 0.94837 0.0
H87 H 0.29581 0.66982 0.76332 0.0
C88 C 0.29656 0.70474 0.77474 0.0
C89 C 0.36401 0.70185 0.90769 0.0
C90 C 0.39133 0.67374 0.94241 0.0
C91 C 0.35673 0.69047 0.85269 0.0
C92 C 0.37998 0.65202 0.83141 0.0
C93 C 0.40913 0.62418 0.86529 0.0
C94 C 0.41327 0.63495 0.92108 0.0
N95 N 0.32611 0.71869 0.82001 0.0
Zn96 Zn 0.05783 0.13231 0.35217 0.0
Zn97 Zn 0.9479 0.14804 0.1927 0.0
Zn98 Zn 1.00187 0.13694 0.27419 0.0
C99 C 0.03283 0.18672 0.15908 0.0
C100 C 0.95545 0.05636 0.20493 0.0
O101 O 0.96445 0.17051 0.34618 0.0
O102 O 0.02791 0.1751 0.40347 0.0
C103 C 0.11824 0.16943 0.27763 0.0
O104 O 0.04497 0.16998 0.20589 0.0
O105 O 0.98773 0.18563 0.14377 0.0
O106 O 0.93982 0.08541 0.17186 0.0
O107 O 0.98009 0.06849 0.24768 0.0
O108 O 0.12289 0.14878 0.32204 0.0
O109 O 0.07501 0.17085 0.25386 0.0
O110 O 0.01455 0.06406 0.29148 0.0
O111 O 0.0519 0.06941 0.37143 0.0
C112 C 0.03425 0.04549 0.33391 0.0
O113 O 0.93256 0.17499 0.30045 0.0
O114 O 0.88828 0.17455 0.22426 0.0
C115 C 0.98271 0.18354 0.39234 0.0
C116 C 0.89206 0.18454 0.27393 0.0
Zn117 Zn 0.56594 0.33542 0.68883 0.0
Zn118 Zn 0.45596 0.36415 0.85227 0.0
Zn119 Zn 0.513 0.35371 0.77074 0.0
C120 C 0.47925 0.44926 0.82071 0.0
C121 C 0.39708 0.31947 0.77978 0.0
O122 O 0.58006 0.31228 0.79677 0.0
O123 O 0.61433 0.29343 0.71775 0.0
C124 C 0.57399 0.42805 0.7064 0.0
O125 O 0.50346 0.42717 0.78386 0.0
O126 O 0.45628 0.42919 0.85827 0.0
O127 O 0.39367 0.33844 0.82546 0.0
O128 O 0.43875 0.32094 0.75276 0.0
O129 O 0.59096 0.39669 0.6774 0.0
O130 O 0.54126 0.41967 0.74383 0.0
O131 O 0.46553 0.32512 0.70273 0.0
O132 O 0.51879 0.31238 0.63527 0.0
C133 C 0.47448 0.31249 0.65318 0.0
O134 O 0.54981 0.32086 0.84292 0.0
O135 O 0.49237 0.32922 0.90727 0.0
C136 C 0.61388 0.29118 0.769 0.0
C137 C 0.53465 0.31459 0.89244 0.0
Zn138 Zn 0.06911 0.84705 0.85256 0.0
Zn139 Zn 0.95898 0.85856 0.6939 0.0
Zn140 Zn 0.01528 0.85756 0.7712 0.0
C141 C 0.9789 0.94684 0.71048 0.0
C142 C 0.90001 0.82006 0.76749 0.0
O143 O 0.08609 0.82143 0.74532 0.0
O144 O 0.12946 0.82109 0.82211 0.0
C145 C 0.06047 0.93904 0.83911 0.0
O146 O 1.00038 0.92998 0.75296 0.0
O147 O 0.9613 0.92135 0.67452 0.0
O148 O 0.89449 0.83966 0.72253 0.0
O149 O 0.94313 0.82112 0.79163 0.0
O150 O 0.07648 0.91002 0.87203 0.0
O151 O 0.03543 0.9268 0.79667 0.0
O152 O 0.97279 0.82397 0.8398 0.0
O153 O 0.0301 0.80967 0.90235 0.0
C154 C 0.98509 0.80777 0.88687 0.0
O155 O 0.05425 0.82504 0.69964 0.0
O156 O 0.99124 0.8175 0.64231 0.0
C157 C 0.12649 0.81204 0.77212 0.0
C158 C 0.03689 0.81124 0.65343 0.0
Zn159 Zn 0.56487 0.64594 0.18485 0.0
Zn160 Zn 0.45302 0.63947 0.34932 0.0
Zn161 Zn 0.51033 0.63858 0.267 0.0
C162 C 0.54308 0.66956 0.38886 0.0
C163 C 0.45578 0.55178 0.31565 0.0
O164 O 0.46722 0.67058 0.1973 0.0
O165 O 0.52405 0.67885 0.13234 0.0
C166 C 0.6215 0.68446 0.26254 0.0
O167 O 0.55348 0.667 0.33743 0.0
O168 O 0.5008 0.65713 0.40619 0.0
O169 O 0.43024 0.5771 0.34596 0.0
O170 O 0.49081 0.56779 0.28503 0.0
O171 O 0.62398 0.67539 0.2125 0.0
O172 O 0.58202 0.67403 0.29041 0.0
O173 O 0.52779 0.56841 0.24323 0.0
O174 O 0.57411 0.58225 0.17053 0.0
C175 C 0.55488 0.55451 0.20296 0.0
O176 O 0.44242 0.68065 0.24718 0.0
O177 O 0.40585 0.68563 0.32801 0.0
C178 C 0.47935 0.68293 0.14841 0.0
C179 C 0.40813 0.69706 0.27867 0.0
C180 C 0.05859 0.93683 0.40316 0.0
C181 C 0.07888 0.91029 0.36106 0.0
H182 H 0.02661 -0.00098 0.42668 0.0
C183 C 0.07678 0.92692 0.30717 0.0
H184 H 0.06037 0.92671 0.44548 0.0
C185 C 0.058 0.96997 0.29664 0.0
C186 C 0.04064 -0.00318 0.33976 0.0
H187 H 0.09135 0.9075 0.27346 0.0
H188 H 0.05994 0.98317 0.25556 0.0
C189 C 0.03939 0.97899 0.39255 0.0
C190 C 0.40981 0.55626 0.80457 0.0
C191 C 0.43387 0.58299 0.84374 0.0
H192 H 0.40723 0.49267 0.7649 0.0
C193 C 0.47972 0.56787 0.86588 0.0
H194 H 0.37437 0.56638 0.78683 0.0
C195 C 0.49798 0.5253 0.85377 0.0
C196 C 0.47188 0.49764 0.81772 0.0
H197 H 0.50025 0.58796 0.89488 0.0
H198 H 0.53075 0.51294 0.87519 0.0
C199 C 0.42877 0.51404 0.79165 0.0
C200 C 0.63843 0.52376 0.63525 0.0
C201 C 0.63121 0.55925 0.67166 0.0
H202 H 0.62539 0.45554 0.61715 0.0
C203 C 0.60588 0.55123 0.72115 0.0
H204 H 0.65844 0.5286 0.59718 0.0
C205 C 0.58693 0.5087 0.73298 0.0
C206 C 0.59287 0.47365 0.69551 0.0
H207 H 0.59967 0.578 0.75001 0.0
H208 H 0.56817 0.50319 0.77143 0.0
C209 C 0.61945 0.48172 0.64687 0.0
C210 C 0.90929 0.95533 0.12925 0.0
C211 C 0.90957 0.92194 0.16942 0.0
H212 H 0.9252 0.02249 0.10844 0.0
C213 C 0.92639 0.93294 0.22225 0.0
H214 H 0.89528 0.94885 0.08857 0.0
C215 C 0.94242 0.97637 0.23426 0.0
C216 C 0.94277 0.00926 0.19347 0.0
H217 H 0.92725 0.9081 0.25425 0.0
H218 H 0.95317 0.98441 0.2756 0.0
C219 C 0.92615 -0.00201 0.14088 0.0
C220 C 0.9446 0.06836 0.73526 0.0
C221 C 0.93561 0.08278 0.68124 0.0
H222 H 0.96557 0.01362 0.78757 0.0
C223 C 0.94601 0.05295 0.63839 0.0
H224 H 0.93756 0.09031 0.76944 0.0
C225 C 0.96412 0.01042 0.64873 0.0
C226 C 0.97093 0.99521 0.70234 0.0
H227 H 0.93821 0.06139 0.59632 0.0
H228 H 0.97043 0.98849 0.61425 0.0
C229 C 0.96167 0.02474 0.74574 0.0
C230 C 0.58161 0.43112 0.22579 0.0
C231 C 0.60002 0.4187 0.174 0.0
H232 H 0.553 0.48426 0.27596 0.0
C233 C 0.60135 0.45094 0.13249 0.0
H234 H 0.57999 0.4071 0.25869 0.0
C235 C 0.58438 0.49401 0.14191 0.0
C236 C 0.56639 0.50682 0.19352 0.0
H237 H 0.6164 0.4432 0.0925 0.0
H238 H 0.58644 0.51767 0.10861 0.0
C239 C 0.56508 0.47495 0.23547 0.0
C240 C 0.37956 0.44721 0.31599 0.0
C241 C 0.40859 0.41959 0.34996 0.0
H242 H 0.37277 0.51111 0.27752 0.0
C243 C 0.45713 0.43362 0.36476 0.0
H244 H 0.34193 0.43767 0.30423 0.0
C245 C 0.47468 0.47561 0.3493 0.0
C246 C 0.44448 0.50399 0.31793 0.0
H247 H 0.48076 0.41288 0.39025 0.0
H248 H 0.51051 0.48698 0.36475 0.0
C249 C 0.39725 0.48915 0.30047 0.0
C250 C 0.0927 0.06204 0.8217 0.0
C251 C 0.10916 0.07277 0.87478 0.0
H252 H 0.06497 0.01097 0.76806 0.0
C253 C 0.1081 0.03938 0.91492 0.0
H254 H 0.09293 0.08688 0.78969 0.0
C255 C 0.09004 -0.00285 0.9032 0.0
C256 C 0.07365 0.9861 0.85046 0.0
H257 H 0.12187 0.04553 0.95578 0.0
H258 H 0.08995 0.97272 0.93575 0.0
C259 C 0.07551 0.01889 0.80954 0.0
C260 C 0.13717 0.16646 0.06058 0.0
C261 C 0.11995 0.19126 1.01563 0.0
H262 H 0.12404 0.14735 0.14365 0.0
C263 C 0.08222 0.22321 0.02358 0.0
H264 H 0.16619 0.14148 0.05516 0.0
C265 C 0.05776 0.22629 0.07403 0.0
C266 C 0.07095 0.19765 0.11726 0.0
H267 H 0.06819 0.24247 0.98943 0.0
H268 H 0.02522 0.24786 0.07748 0.0
C269 C 0.11325 0.17005 0.11134 0.0
C270 C 0.37894 0.34822 0.5517 0.0
C271 C 0.3884 0.3175 0.50957 0.0
H272 H 0.39709 0.36895 0.63309 0.0
C273 C 0.41648 0.27907 0.52122 0.0
H274 H 0.35716 0.37802 0.54369 0.0
C275 C 0.43967 0.27413 0.57209 0.0
C276 C 0.43425 0.30705 0.61247 0.0
H277 H 0.42439 0.25496 0.48946 0.0
H278 H 0.46558 0.24669 0.57808 0.0
C279 C 0.40117 0.3427 0.60308 0.0
C280 C 0.56918 0.27319 0.03071 0.0
C281 C 0.61387 0.29659 0.03921 0.0
H282 H 0.50918 0.25943 0.97532 0.0
C283 C 0.63859 0.31562 0.99415 0.0
H284 H 0.54915 0.25887 0.06497 0.0
C285 C 0.61601 0.31556 0.94246 0.0
C286 C 0.56795 0.29733 0.93579 0.0
H287 H 0.67277 0.33446 1.00008 0.0
H288 H 0.6332 0.3345 0.90981 0.0
C289 C 0.54635 0.27359 0.97938 0.0
C290 C 0.88304 0.18143 0.50005 0.0
C291 C 0.90928 0.20122 0.54348 0.0
H292 H 0.88529 0.16166 0.41585 0.0
C293 C 0.95313 0.22511 0.53225 0.0
H294 H 0.84947 0.16223 0.50807 0.0
C295 C 0.97359 0.22482 0.47968 0.0
C296 C 0.95083 0.20018 0.4376 0.0
H297 H 0.97427 0.24012 0.56517 0.0
H298 H 0.01007 0.23987 0.47343 0.0
C299 C 0.90351 0.18119 0.44722 0.0
C300 C 0.93631 0.77071 0.02236 0.0
C301 C 0.89806 0.80218 0.03026 0.0
H302 H 0.99372 0.74677 0.9685 0.0
C303 C 0.8803 0.82656 0.98519 0.0
H304 H 0.9508 0.75181 0.05658 0.0
C305 C 0.90425 0.82319 0.93441 0.0
C306 C 0.94709 0.79623 0.92859 0.0
H307 H 0.85091 0.8512 0.99056 0.0
H308 H 0.89305 0.84567 0.90203 0.0
C309 C 0.96078 0.76785 0.97189 0.0
C310 C 0.6514 0.65344 0.48323 0.0
C311 C 0.63379 0.67651 0.52946 0.0
H312 H 0.63705 0.63502 0.40002 0.0
C313 C 0.59297 0.7057 0.52396 0.0
H314 H 0.68261 0.63041 0.48682 0.0
C315 C 0.56651 0.70771 0.47477 0.0
C316 C 0.58105 0.68122 0.43012 0.0
H317 H 0.57843 0.72338 0.55916 0.0
H318 H 0.532 0.72688 0.47319 0.0
C319 C 0.62554 0.65625 0.43356 0.0
C320 C 0.43151 0.72108 1.01356 0.0
C321 C 0.40012 0.68527 1.00048 0.0
H322 H 0.48097 0.74925 0.0731 0.0
C323 C 0.38508 0.65601 0.04216 0.0
H324 H 0.44381 0.7439 0.98204 0.0
C325 C 0.40506 0.65994 0.09484 0.0
C326 C 0.4415 0.69236 0.10599 0.0
H327 H 0.36093 0.62809 0.03289 0.0
H328 H 0.39668 0.63437 0.12466 0.0
C329 C 0.45242 0.72436 0.06579 0.0
C330 C 0.13925 0.8168 0.54856 0.0
C331 C 0.11387 0.79851 0.50358 0.0
H332 H 0.13491 0.8342 0.63347 0.0
C333 C 0.06977 0.7743 0.51257 0.0
H334 H 0.17316 0.83598 0.5424 0.0
C335 C 0.04821 0.7729 0.5645 0.0
C336 C 0.06988 0.79638 0.60819 0.0
H337 H 0.04955 0.76004 0.47849 0.0
H338 H 0.01174 0.75744 0.56907 0.0
C339 C 0.11741 0.81566 0.60075 0.0
C340 C 0.19429 0.27135 0.24795 0.0
C341 C 0.24091 0.25751 0.26901 0.0
H342 H 0.11756 0.25312 0.23263 0.0
C343 C 0.24916 0.21209 0.27875 0.0
H344 H 0.18727 0.30622 0.23961 0.0
C345 C 0.20984 0.18188 0.27398 0.0
C346 C 0.1614 0.19652 0.25984 0.0
H347 H 0.28507 0.20031 0.29376 0.0
H348 H 0.21625 0.14769 0.28635 0.0
C349 C 0.15456 0.24094 0.24344 0.0
C350 C 0.31975 0.21758 0.7551 0.0
C351 C 0.27295 0.23287 0.77428 0.0
H352 H 0.3971 0.23418 0.74005 0.0
C353 C 0.26543 0.27878 0.78106 0.0
H354 H 0.32631 0.18232 0.74911 0.0
C355 C 0.30544 0.30821 0.7753 0.0
C356 C 0.35378 0.29239 0.76269 0.0
H357 H 0.22951 0.29171 0.79463 0.0
H358 H 0.29957 0.34291 0.78563 0.0
C359 C 0.3601 0.24726 0.74934 0.0
C360 C 0.69863 0.19555 0.79183 0.0
C361 C 0.74473 0.21679 0.7823 0.0
H362 H 0.61863 0.20377 0.79709 0.0
C363 C 0.74705 0.26337 0.78562 0.0
H364 H 0.69597 0.15962 0.78963 0.0
C365 C 0.70313 0.28844 0.79196 0.0
C366 C 0.65619 0.26739 0.79401 0.0
H367 H 0.78225 0.28055 0.77912 0.0
H368 H 0.70533 0.32434 0.78838 0.0
C369 C 0.65445 0.22075 0.79699 0.0
C370 C 0.76012 0.21982 0.28305 0.0
C371 C 0.76614 0.26616 0.28472 0.0
H372 H 0.79685 0.15647 0.28208 0.0
C373 C 0.81291 0.28369 0.30019 0.0
H374 H 0.72428 0.20535 0.27227 0.0
C375 C 0.85466 0.25545 0.30626 0.0
C376 C 0.84969 0.20953 0.29738 0.0
H377 H 0.81834 0.31937 0.30216 0.0
H378 H 0.89153 0.27 0.31129 0.0
C379 C 0.80152 0.19176 0.28962 0.0
C380 C 0.77111 0.77334 0.76625 0.0
C381 C 0.7815 0.72786 0.77274 0.0
H382 H 0.80111 0.83911 0.76246 0.0
C383 C 0.82894 0.71485 0.79243 0.0
H384 H 0.73457 0.78449 0.75235 0.0
C385 C 0.8673 0.74644 0.79866 0.0
C386 C 0.85832 0.79124 0.78533 0.0
H387 H 0.83767 0.67994 0.7983 0.0
H388 H 0.90497 0.73513 0.80809 0.0
C389 C 0.8091 0.80471 0.77269 0.0
C390 C 0.75384 0.71868 0.27065 0.0
C391 C 0.74798 0.76491 0.2755 0.0
H392 H 0.71687 0.65576 0.26604 0.0
C393 C 0.7014 0.78216 0.29264 0.0
H394 H 0.78955 0.70438 0.25851 0.0
C395 C 0.65962 0.75406 0.29741 0.0
C396 C 0.66442 0.70855 0.28554 0.0
H397 H 0.69611 0.81775 0.29703 0.0
H398 H 0.62284 0.76863 0.30403 0.0
C399 C 0.7124 0.69074 0.27582 0.0
C400 C 0.28524 0.74537 0.23556 0.0
C401 C 0.28366 0.78236 0.27074 0.0
H402 H 0.32822 0.68846 0.2091 0.0
C403 C 0.32807 0.7965 0.29583 0.0
H404 H 0.25131 0.7339 0.2158 0.0
C405 C 0.37197 0.77142 0.29075 0.0
C406 C 0.37214 0.73141 0.26116 0.0
H407 H 0.32795 0.82516 0.32266 0.0
H408 H 0.40437 0.7808 0.31483 0.0
C409 C 0.32929 0.71967 0.23118 0.0
C410 C 0.20963 0.71652 0.73812 0.0
C411 C 0.25569 0.73435 0.7555 0.0
H412 H 0.13055 0.72864 0.72782 0.0
C413 C 0.25993 0.78054 0.76204 0.0
H414 H 0.2056 0.68096 0.73246 0.0
C415 C 0.21752 0.8077 0.75811 0.0
C416 C 0.17009 0.78913 0.74812 0.0
H417 H 0.29518 0.79529 0.77444 0.0
H418 H 0.22086 0.84252 0.76903 0.0
C419 C 0.16683 0.74382 0.7347 0.0
loop_
_geom_bond_atom_site_label_1
_geom_bond_atom_site_label_2
_geom_bond_distance
_geom_bond_site_symmetry_2
_ccdc_geom_bond_type
H0 C5 0.930 . S
H1 C8 0.930 . S
H2 C10 0.930 . S
H3 C4 1.016 . S
C4 H3 1.016 . S
C4 N11 1.286 . S
C5 H0 0.930 . S
C5 C6 1.397 . S
C5 C7 1.361 . S
C6 C5 1.397 . S
C6 C10 1.390 . S
C7 C5 1.361 . S
C7 C8 1.393 . S
C7 N11 1.413 . S
C8 H1 0.930 . S
C8 C7 1.393 . S
C8 C9 1.399 . S
C9 C8 1.399 . S
C9 C10 1.381 . S
C10 H2 0.930 . S
C10 C6 1.390 . S
C10 C9 1.381 . S
N11 C4 1.286 . S
N11 C7 1.413 . S
H12 C17 0.930 . S
H13 C20 0.930 . S
H14 C22 0.930 . S
H15 C16 1.016 . S
C16 H15 1.016 . S
C16 N23 1.286 . S
C17 H12 0.930 . S
C17 C18 1.397 . S
C17 C19 1.361 . S
C18 C17 1.397 . S
C18 C22 1.390 . S
C19 C17 1.361 . S
C19 C20 1.393 . S
C19 N23 1.413 . S
C20 H13 0.930 . S
C20 C19 1.393 . S
C20 C21 1.399 . S
C21 C20 1.399 . S
C21 C22 1.381 . S
C22 H14 0.930 . S
C22 C18 1.390 . S
C22 C21 1.381 . S
N23 C16 1.286 . S
N23 C19 1.413 . S
H24 C29 0.930 . S
H25 C32 0.930 . S
H26 C34 0.930 . S
H27 C28 1.016 . S
C28 H27 1.016 . S
C28 N35 1.286 . S
C29 H24 0.930 . S
C29 C30 1.397 . S
C29 C31 1.361 . S
C30 C29 1.397 . S
C30 C34 1.390 . S
C31 C29 1.361 . S
C31 C32 1.393 . S
C31 N35 1.413 . S
C32 H25 0.930 . S
C32 C31 1.393 . S
C32 C33 1.399 . S
C33 C32 1.399 . S
C33 C34 1.381 . S
C34 H26 0.930 . S
C34 C30 1.390 . S
C34 C33 1.381 . S
N35 C28 1.286 . S
N35 C31 1.413 . S
H36 C41 0.930 . S
H37 C44 0.930 . S
H38 C46 0.930 . S
H39 C40 1.016 . S
C40 H39 1.016 . S
C40 N47 1.286 . S
C41 H36 0.930 . S
C41 C42 1.397 . S
C41 C43 1.361 . S
C42 C41 1.397 . S
C42 C46 1.390 . S
C43 C41 1.361 . S
C43 C44 1.393 . S
C43 N47 1.413 . S
C44 H37 0.930 . S
C44 C43 1.393 . S
C44 C45 1.399 . S
C45 C44 1.399 . S
C45 C46 1.381 . S
C46 H38 0.930 . S
C46 C42 1.390 . S
C46 C45 1.381 . S
N47 C40 1.286 . S
N47 C43 1.413 . S
H48 C53 0.930 . S
H49 C56 0.930 . S
H50 C58 0.930 . S
H51 C52 1.016 . S
C52 H51 1.016 . S
C52 N59 1.286 . S
C53 H48 0.930 . S
C53 C54 1.397 . S
C53 C55 1.361 . S
C54 C53 1.397 . S
C54 C58 1.390 . S
C55 C53 1.361 . S
C55 C56 1.393 . S
C55 N59 1.413 . S
C56 H49 0.930 . S
C56 C55 1.393 . S
C56 C57 1.399 . S
C57 C56 1.399 . S
C57 C58 1.381 . S
C58 H50 0.930 . S
C58 C54 1.390 . S
C58 C57 1.381 . S
N59 C52 1.286 . S
N59 C55 1.413 . S
H60 C65 0.930 . S
H61 C68 0.930 . S
H62 C70 0.930 . S
H63 C64 1.016 . S
C64 H63 1.016 . S
C64 N71 1.286 . S
C65 H60 0.930 . S
C65 C66 1.397 . S
C65 C67 1.361 . S
C66 C65 1.397 . S
C66 C70 1.390 . S
C67 C65 1.361 . S
C67 C68 1.393 . S
C67 N71 1.413 . S
C68 H61 0.930 . S
C68 C67 1.393 . S
C68 C69 1.399 . S
C69 C68 1.399 . S
C69 C70 1.381 . S
C70 H62 0.930 . S
C70 C66 1.390 . S
C70 C69 1.381 . S
N71 C64 1.286 . S
N71 C67 1.413 . S
H72 C77 0.930 . S
H73 C80 0.930 . S
H74 C82 0.930 . S
H75 C76 1.016 . S
C76 H75 1.016 . S
C76 N83 1.286 . S
C77 H72 0.930 . S
C77 C78 1.397 . S
C77 C79 1.361 . S
C78 C77 1.397 . S
C78 C82 1.390 . S
C79 C77 1.361 . S
C79 C80 1.393 . S
C79 N83 1.413 . S
C80 H73 0.930 . S
C80 C79 1.393 . S
C80 C81 1.399 . S
C81 C80 1.399 . S
C81 C82 1.381 . S
C82 H74 0.930 . S
C82 C78 1.390 . S
C82 C81 1.381 . S
N83 C76 1.286 . S
N83 C79 1.413 . S
H84 C89 0.930 . S
H85 C92 0.930 . S
H86 C94 0.930 . S
H87 C88 1.016 . S
C88 H87 1.016 . S
C88 N95 1.286 . S
C89 H84 0.930 . S
C89 C90 1.397 . S
C89 C91 1.361 . S
C90 C89 1.397 . S
C90 C94 1.390 . S
C91 C89 1.361 . S
C91 C92 1.393 . S
C91 N95 1.413 . S
C92 H85 0.930 . S
C92 C91 1.393 . S
C92 C93 1.399 . S
C93 C92 1.399 . S
C93 C94 1.381 . S
C94 H86 0.930 . S
C94 C90 1.390 . S
C94 C93 1.381 . S
N95 C88 1.286 . S
N95 C91 1.413 . S
Zn96 O102 1.919 . S
Zn96 O108 1.898 . S
Zn96 O111 1.905 . S
Zn97 O105 1.905 1_655 S
Zn97 O106 1.898 . S
Zn97 O114 1.920 . S
Zn98 O101 2.080 1_455 S
Zn98 O104 2.114 . S
Zn98 O107 2.120 1_455 S
Zn98 O109 2.120 . S
Zn98 O110 2.114 . S
Zn98 O113 2.080 1_455 S
C99 O104 1.166 . S
C99 O105 1.182 . S
C100 O106 1.167 . S
C100 O107 1.299 . S
O101 Zn98 2.080 1_655 S
O101 C115 1.305 . S
O102 Zn96 1.919 . S
O102 C115 1.235 1_455 S
C103 O108 1.167 . S
C103 O109 1.299 . S
O104 Zn98 2.114 . S
O104 C99 1.166 . S
O105 Zn97 1.905 1_455 S
O105 C99 1.182 . S
O106 Zn97 1.898 . S
O106 C100 1.167 . S
O107 Zn98 2.120 1_655 S
O107 C100 1.299 . S
O108 Zn96 1.898 . S
O108 C103 1.167 . S
O109 Zn98 2.120 . S
O109 C103 1.299 . S
O110 Zn98 2.114 . S
O110 C112 1.166 . S
O111 Zn96 1.905 . S
O111 C112 1.182 . S
C112 O110 1.166 . S
C112 O111 1.182 . S
O113 Zn98 2.080 1_655 S
O113 C116 1.305 . S
O114 Zn97 1.920 . S
O114 C116 1.234 . S
C115 O101 1.305 . S
C115 O102 1.235 1_655 S
C116 O113 1.305 . S
C116 O114 1.234 . S
Zn117 O123 1.920 . S
Zn117 O129 1.898 . S
Zn117 O132 1.905 . S
Zn118 O126 1.905 . S
Zn118 O127 1.898 . S
Zn118 O135 1.920 . S
Zn119 O122 2.080 . S
Zn119 O125 2.114 . S
Zn119 O128 2.120 . S
Zn119 O130 2.120 . S
Zn119 O131 2.114 . S
Zn119 O134 2.080 . S
C120 O125 1.166 . S
C120 O126 1.182 . S
C121 O127 1.167 . S
C121 O128 1.299 . S
O122 Zn119 2.080 . S
O122 C136 1.305 . S
O123 Zn117 1.920 . S
O123 C136 1.234 . S
C124 O129 1.167 . S
C124 O130 1.299 . S
O125 Zn119 2.114 . S
O125 C120 1.166 . S
O126 Zn118 1.905 . S
O126 C120 1.182 . S
O127 Zn118 1.898 . S
O127 C121 1.167 . S
O128 Zn119 2.120 . S
O128 C121 1.299 . S
O129 Zn117 1.898 . S
O129 C124 1.167 . S
O130 Zn119 2.120 . S
O130 C124 1.299 . S
O131 Zn119 2.114 . S
O131 C133 1.166 . S
O132 Zn117 1.905 . S
O132 C133 1.182 . S
C133 O131 1.166 . S
C133 O132 1.182 . S
O134 Zn119 2.080 . S
O134 C137 1.305 . S
O135 Zn118 1.920 . S
O135 C137 1.234 . S
C136 O122 1.305 . S
C136 O123 1.234 . S
C137 O134 1.305 . S
C137 O135 1.234 . S
Zn138 O144 1.920 . S
Zn138 O150 1.898 . S
Zn138 O153 1.905 1_455 S
Zn139 O147 1.905 . S
Zn139 O148 1.898 . S
Zn139 O156 1.920 1_655 S
Zn140 O143 2.080 . S
Zn140 O146 2.114 1_455 S
Zn140 O149 2.120 1_455 S
Zn140 O151 2.120 . S
Zn140 O152 2.114 1_455 S
Zn140 O155 2.080 . S
C141 O146 1.166 . S
C141 O147 1.182 . S
C142 O148 1.167 . S
C142 O149 1.299 . S
O143 Zn140 2.080 . S
O143 C157 1.305 . S
O144 Zn138 1.920 . S
O144 C157 1.234 . S
C145 O150 1.167 . S
C145 O151 1.299 . S
O146 Zn140 2.114 1_655 S
O146 C141 1.166 . S
O147 Zn139 1.905 . S
O147 C141 1.182 . S
O148 Zn139 1.898 . S
O148 C142 1.167 . S
O149 Zn140 2.120 1_655 S
O149 C142 1.299 . S
O150 Zn138 1.898 . S
O150 C145 1.167 . S
O151 Zn140 2.120 . S
O151 C145 1.299 . S
O152 Zn140 2.114 1_655 S
O152 C154 1.166 . S
O153 Zn138 1.905 1_655 S
O153 C154 1.182 . S
C154 O152 1.166 . S
C154 O153 1.182 . S
O155 Zn140 2.080 . S
O155 C158 1.305 . S
O156 Zn139 1.920 1_455 S
O156 C158 1.234 . S
C157 O143 1.305 . S
C157 O144 1.234 . S
C158 O155 1.305 . S
C158 O156 1.234 . S
Zn159 O165 1.920 . S
Zn159 O171 1.898 . S
Zn159 O174 1.905 . S
Zn160 O168 1.905 . S
Zn160 O169 1.898 . S
Zn160 O177 1.920 . S
Zn161 O164 2.080 . S
Zn161 O167 2.114 . S
Zn161 O170 2.120 . S
Zn161 O172 2.120 . S
Zn161 O173 2.114 . S
Zn161 O176 2.080 . S
C162 O167 1.166 . S
C162 O168 1.182 . S
C163 O169 1.167 . S
C163 O170 1.299 . S
O164 Zn161 2.080 . S
O164 C178 1.305 . S
O165 Zn159 1.920 . S
O165 C178 1.234 . S
C166 O171 1.167 . S
C166 O172 1.299 . S
O167 Zn161 2.114 . S
O167 C162 1.166 . S
O168 Zn160 1.905 . S
O168 C162 1.182 . S
O169 Zn160 1.898 . S
O169 C163 1.167 . S
O170 Zn161 2.120 . S
O170 C163 1.299 . S
O171 Zn159 1.898 . S
O171 C166 1.167 . S
O172 Zn161 2.120 . S
O172 C166 1.299 . S
O173 Zn161 2.114 . S
O173 C175 1.166 . S
O174 Zn159 1.905 . S
O174 C175 1.182 . S
C175 O173 1.166 . S
C175 O174 1.182 . S
O176 Zn161 2.080 . S
O176 C179 1.305 . S
O177 Zn160 1.920 . S
O177 C179 1.234 . S
C178 O164 1.305 . S
C178 O165 1.234 . S
C179 O176 1.305 . S
C179 O177 1.234 . S
C180 C181 1.387 . S
C180 H184 0.950 . S
C180 C189 1.390 . S
C181 C180 1.387 . S
C181 C183 1.387 . S
H182 C189 0.950 1_545 S
C183 C181 1.387 . S
C183 C185 1.390 . S
C183 H187 0.950 . S
H184 C180 0.950 . S
C185 C183 1.390 . S
C185 C186 1.387 . S
C185 H188 0.950 . S
C186 C185 1.387 . S
C186 C189 1.387 . S
H187 C183 0.950 . S
H188 C185 0.950 . S
C189 C180 1.390 . S
C189 H182 0.950 1_565 S
C189 C186 1.387 . S
C190 C191 1.387 . S
C190 H194 0.950 . S
C190 C199 1.390 . S
C191 C190 1.387 . S
C191 C193 1.387 . S
H192 C199 0.950 . S
C193 C191 1.387 . S
C193 C195 1.390 . S
C193 H197 0.950 . S
H194 C190 0.950 . S
C195 C193 1.390 . S
C195 C196 1.387 . S
C195 H198 0.950 . S
C196 C195 1.387 . S
C196 C199 1.387 . S
H197 C193 0.950 . S
H198 C195 0.950 . S
C199 C190 1.390 . S
C199 H192 0.950 . S
C199 C196 1.387 . S
C200 C201 1.387 . S
C200 H204 0.950 . S
C200 C209 1.390 . S
C201 C200 1.387 . S
C201 C203 1.387 . S
H202 C209 0.950 . S
C203 C201 1.387 . S
C203 C205 1.390 . S
C203 H207 0.950 . S
H204 C200 0.950 . S
C205 C203 1.390 . S
C205 C206 1.387 . S
C205 H208 0.950 . S
C206 C205 1.387 . S
C206 C209 1.387 . S
H207 C203 0.950 . S
H208 C205 0.950 . S
C209 C200 1.390 . S
C209 H202 0.950 . S
C209 C206 1.387 . S
C210 C211 1.387 . S
C210 H214 0.950 . S
C210 C219 1.390 . S
C211 C210 1.387 . S
C211 C213 1.387 . S
H212 C219 0.950 1_545 S
C213 C211 1.387 . S
C213 C215 1.390 . S
C213 H217 0.950 . S
H214 C210 0.950 . S
C215 C213 1.390 . S
C215 C216 1.387 . S
C215 H218 0.950 . S
C216 C215 1.387 . S
C216 C219 1.387 . S
H217 C213 0.950 . S
H218 C215 0.950 . S
C219 C210 1.390 . S
C219 H212 0.950 1_565 S
C219 C216 1.387 . S
C220 C221 1.387 . S
C220 H224 0.950 . S
C220 C229 1.390 . S
C221 C220 1.387 . S
C221 C223 1.387 . S
H222 C229 0.950 . S
C223 C221 1.387 . S
C223 C225 1.390 . S
C223 H227 0.950 . S
H224 C220 0.950 . S
C225 C223 1.390 . S
C225 C226 1.387 . S
C225 H228 0.950 1_545 S
C226 C225 1.387 . S
C226 C229 1.387 . S
H227 C223 0.950 . S
H228 C225 0.950 1_565 S
C229 C220 1.390 . S
C229 H222 0.950 . S
C229 C226 1.387 . S
C230 C231 1.387 . S
C230 H234 0.950 . S
C230 C239 1.390 . S
C231 C230 1.387 . S
C231 C233 1.387 . S
H232 C239 0.950 . S
C233 C231 1.387 . S
C233 C235 1.390 . S
C233 H237 0.950 . S
H234 C230 0.950 . S
C235 C233 1.390 . S
C235 C236 1.387 . S
C235 H238 0.950 . S
C236 C235 1.387 . S
C236 C239 1.387 . S
H237 C233 0.950 . S
H238 C235 0.950 . S
C239 C230 1.390 . S
C239 H232 0.950 . S
C239 C236 1.387 . S
C240 C241 1.387 . S
C240 H244 0.950 . S
C240 C249 1.390 . S
C241 C240 1.387 . S
C241 C243 1.387 . S
H242 C249 0.950 . S
C243 C241 1.387 . S
C243 C245 1.390 . S
C243 H247 0.950 . S
H244 C240 0.950 . S
C245 C243 1.390 . S
C245 C246 1.387 . S
C245 H248 0.950 . S
C246 C245 1.387 . S
C246 C249 1.387 . S
H247 C243 0.950 . S
H248 C245 0.950 . S
C249 C240 1.390 . S
C249 H242 0.950 . S
C249 C246 1.387 . S
C250 C251 1.387 . S
C250 H254 0.950 . S
C250 C259 1.390 . S
C251 C250 1.387 . S
C251 C253 1.387 . S
H252 C259 0.950 . S
C253 C251 1.387 . S
C253 C255 1.390 . S
C253 H257 0.950 . S
H254 C250 0.950 . S
C255 C253 1.390 . S
C255 C256 1.387 . S
C255 H258 0.950 1_545 S
C256 C255 1.387 . S
C256 C259 1.387 . S
H257 C253 0.950 . S
H258 C255 0.950 1_565 S
C259 C250 1.390 . S
C259 H252 0.950 . S
C259 C256 1.387 . S
C260 C261 1.387 . S
C260 H264 0.950 1_554 S
C260 C269 1.390 . S
C261 C260 1.387 . S
C261 C263 1.387 . S
H262 C269 0.950 . S
C263 C261 1.387 . S
C263 C265 1.390 . S
C263 H267 0.950 . S
H264 C260 0.950 1_556 S
C265 C263 1.390 . S
C265 C266 1.387 . S
C265 H268 0.950 . S
C266 C265 1.387 . S
C266 C269 1.387 . S
H267 C263 0.950 . S
H268 C265 0.950 . S
C269 C260 1.390 . S
C269 H262 0.950 . S
C269 C266 1.387 . S
C270 C271 1.387 . S
C270 H274 0.950 . S
C270 C279 1.390 . S
C271 C270 1.387 . S
C271 C273 1.387 . S
H272 C279 0.950 . S
C273 C271 1.387 . S
C273 C275 1.390 . S
C273 H277 0.950 . S
H274 C270 0.950 . S
C275 C273 1.390 . S
C275 C276 1.387 . S
C275 H278 0.950 . S
C276 C275 1.387 . S
C276 C279 1.387 . S
H277 C273 0.950 . S
H278 C275 0.950 . S
C279 C270 1.390 . S
C279 H272 0.950 . S
C279 C276 1.387 . S
C280 C281 1.387 . S
C280 H284 0.950 . S
C280 C289 1.390 . S
C281 C280 1.387 . S
C281 C283 1.387 . S
H282 C289 0.950 . S
C283 C281 1.387 . S
C283 C285 1.390 . S
C283 H287 0.950 1_556 S
H284 C280 0.950 . S
C285 C283 1.390 . S
C285 C286 1.387 . S
C285 H288 0.950 . S
C286 C285 1.387 . S
C286 C289 1.387 . S
H287 C283 0.950 1_554 S
H288 C285 0.950 . S
C289 C280 1.390 . S
C289 H282 0.950 . S
C289 C286 1.387 . S
C290 C291 1.387 . S
C290 H294 0.950 . S
C290 C299 1.390 . S
C291 C290 1.387 . S
C291 C293 1.387 . S
H292 C299 0.950 . S
C293 C291 1.387 . S
C293 C295 1.390 . S
C293 H297 0.950 . S
H294 C290 0.950 . S
C295 C293 1.390 . S
C295 C296 1.387 . S
C295 H298 0.950 . S
C296 C295 1.387 . S
C296 C299 1.387 . S
H297 C293 0.950 . S
H298 C295 0.950 . S
C299 C290 1.390 . S
C299 H292 0.950 . S
C299 C296 1.387 . S
C300 C301 1.387 . S
C300 H304 0.950 . S
C300 C309 1.390 . S
C301 C300 1.387 . S
C301 C303 1.387 . S
H302 C309 0.950 . S
C303 C301 1.387 . S
C303 C305 1.390 . S
C303 H307 0.950 1_556 S
H304 C300 0.950 . S
C305 C303 1.390 . S
C305 C306 1.387 . S
C305 H308 0.950 . S
C306 C305 1.387 . S
C306 C309 1.387 . S
H307 C303 0.950 1_554 S
H308 C305 0.950 . S
C309 C300 1.390 . S
C309 H302 0.950 . S
C309 C306 1.387 . S
C310 C311 1.387 . S
C310 H314 0.950 . S
C310 C319 1.390 . S
C311 C310 1.387 . S
C311 C313 1.387 . S
H312 C319 0.950 . S
C313 C311 1.387 . S
C313 C315 1.390 . S
C313 H317 0.950 . S
H314 C310 0.950 . S
C315 C313 1.390 . S
C315 C316 1.387 . S
C315 H318 0.950 . S
C316 C315 1.387 . S
C316 C319 1.387 . S
H317 C313 0.950 . S
H318 C315 0.950 . S
C319 C310 1.390 . S
C319 H312 0.950 . S
C319 C316 1.387 . S
C320 C321 1.387 . S
C320 H324 0.950 . S
C320 C329 1.390 . S
C321 C320 1.387 . S
C321 C323 1.387 . S
H322 C329 0.950 . S
C323 C321 1.387 . S
C323 C325 1.390 . S
C323 H327 0.950 1_554 S
H324 C320 0.950 . S
C325 C323 1.390 . S
C325 C326 1.387 . S
C325 H328 0.950 . S
C326 C325 1.387 . S
C326 C329 1.387 . S
H327 C323 0.950 1_556 S
H328 C325 0.950 . S
C329 C320 1.390 . S
C329 H322 0.950 . S
C329 C326 1.387 . S
C330 C331 1.387 . S
C330 H334 0.950 . S
C330 C339 1.390 . S
C331 C330 1.387 . S
C331 C333 1.387 . S
H332 C339 0.950 . S
C333 C331 1.387 . S
C333 C335 1.390 . S
C333 H337 0.950 . S
H334 C330 0.950 . S
C335 C333 1.390 . S
C335 C336 1.387 . S
C335 H338 0.950 . S
C336 C335 1.387 . S
C336 C339 1.387 . S
H337 C333 0.950 . S
H338 C335 0.950 . S
C339 C330 1.390 . S
C339 H332 0.950 . S
C339 C336 1.387 . S
C340 C341 1.387 . S
C340 H344 0.950 . S
C340 C349 1.390 . S
C341 C340 1.387 . S
C341 C343 1.387 . S
H342 C349 0.950 . S
C343 C341 1.387 . S
C343 C345 1.390 . S
C343 H347 0.950 . S
H344 C340 0.950 . S
C345 C343 1.390 . S
C345 C346 1.387 . S
C345 H348 0.950 . S
C346 C345 1.387 . S
C346 C349 1.387 . S
H347 C343 0.950 . S
H348 C345 0.950 . S
C349 C340 1.390 . S
C349 H342 0.950 . S
C349 C346 1.387 . S
C350 C351 1.387 . S
C350 H354 0.950 . S
C350 C359 1.390 . S
C351 C350 1.387 . S
C351 C353 1.387 . S
H352 C359 0.950 . S
C353 C351 1.387 . S
C353 C355 1.390 . S
C353 H357 0.950 . S
H354 C350 0.950 . S
C355 C353 1.390 . S
C355 C356 1.387 . S
C355 H358 0.950 . S
C356 C355 1.387 . S
C356 C359 1.387 . S
H357 C353 0.950 . S
H358 C355 0.950 . S
C359 C350 1.390 . S
C359 H352 0.950 . S
C359 C356 1.387 . S
C360 C361 1.387 . S
C360 H364 0.950 . S
C360 C369 1.390 . S
C361 C360 1.387 . S
C361 C363 1.387 . S
H362 C369 0.950 . S
C363 C361 1.387 . S
C363 C365 1.390 . S
C363 H367 0.950 . S
H364 C360 0.950 . S
C365 C363 1.390 . S
C365 C366 1.387 . S
C365 H368 0.950 . S
C366 C365 1.387 . S
C366 C369 1.387 . S
H367 C363 0.950 . S
H368 C365 0.950 . S
C369 C360 1.390 . S
C369 H362 0.950 . S
C369 C366 1.387 . S
C370 C371 1.387 . S
C370 H374 0.950 . S
C370 C379 1.390 . S
C371 C370 1.387 . S
C371 C373 1.387 . S
H372 C379 0.950 . S
C373 C371 1.387 . S
C373 C375 1.390 . S
C373 H377 0.950 . S
H374 C370 0.950 . S
C375 C373 1.390 . S
C375 C376 1.387 . S
C375 H378 0.950 . S
C376 C375 1.387 . S
C376 C379 1.387 . S
H377 C373 0.950 . S
H378 C375 0.950 . S
C379 C370 1.390 . S
C379 H372 0.950 . S
C379 C376 1.387 . S
C380 C381 1.387 . S
C380 H384 0.950 . S
C380 C389 1.390 . S
C381 C380 1.387 . S
C381 C383 1.387 . S
H382 C389 0.950 . S
C383 C381 1.387 . S
C383 C385 1.390 . S
C383 H387 0.950 . S
H384 C380 0.950 . S
C385 C383 1.390 . S
C385 C386 1.387 . S
C385 H388 0.950 . S
C386 C385 1.387 . S
C386 C389 1.387 . S
H387 C383 0.950 . S
H388 C385 0.950 . S
C389 C380 1.390 . S
C389 H382 0.950 . S
C389 C386 1.387 . S
C390 C391 1.387 . S
C390 H394 0.950 . S
C390 C399 1.390 . S
C391 C390 1.387 . S
C391 C393 1.387 . S
H392 C399 0.950 . S
C393 C391 1.387 . S
C393 C395 1.390 . S
C393 H397 0.950 . S
H394 C390 0.950 . S
C395 C393 1.390 . S
C395 C396 1.387 . S
C395 H398 0.950 . S
C396 C395 1.387 . S
C396 C399 1.387 . S
H397 C393 0.950 . S
H398 C395 0.950 . S
C399 C390 1.390 . S
C399 H392 0.950 . S
C399 C396 1.387 . S
C400 C401 1.387 . S
C400 H404 0.950 . S
C400 C409 1.390 . S
C401 C400 1.387 . S
C401 C403 1.387 . S
H402 C409 0.950 . S
C403 C401 1.387 . S
C403 C405 1.390 . S
C403 H407 0.950 . S
H404 C400 0.950 . S
C405 C403 1.390 . S
C405 C406 1.387 . S
C405 H408 0.950 . S
C406 C405 1.387 . S
C406 C409 1.387 . S
H407 C403 0.950 . S
H408 C405 0.950 . S
C409 C400 1.390 . S
C409 H402 0.950 . S
C409 C406 1.387 . S
C410 C411 1.387 . S
C410 H414 0.950 . S
C410 C419 1.390 . S
C411 C410 1.387 . S
C411 C413 1.387 . S
H412 C419 0.950 . S
C413 C411 1.387 . S
C413 C415 1.390 . S
C413 H417 0.950 . S
H414 C410 0.950 . S
C415 C413 1.390 . S
C415 C416 1.387 . S
C415 H418 0.950 . S
C416 C415 1.387 . S
C416 C419 1.387 . S
H417 C413 0.950 . S
H418 C415 0.950 . S
C419 C410 1.390 . S
C419 H412 0.950 . S
C419 C416 1.387 . S
C181 C81 1.429 . S
C186 C112 1.380 1_565 S
C196 C120 1.383 . S
C191 C93 1.428 . S
C206 C124 1.371 . S
C201 C57 1.430 . S
C211 C69 1.429 . S
C216 C100 1.372 1_565 S
C226 C141 1.380 1_545 S
C221 C33 1.432 . S
C236 C175 1.379 . S
C231 C45 1.433 . S
C241 C9 1.434 . S
C246 C163 1.370 . S
C251 C21 1.432 . S
C256 C145 1.372 1_545 S
C266 C99 1.348 . S
C261 C18 1.492 1_554 S
C276 C133 1.348 . S
C271 C6 1.492 . S
C286 C137 1.340 . S
C281 C42 1.490 1_556 S
C296 C115 1.345 . S
C291 C30 1.489 . S
C306 C154 1.349 . S
C301 C66 1.484 1_556 S
C311 C54 1.484 . S
C316 C162 1.344 . S
C326 C178 1.344 . S
C321 C90 1.483 1_554 S
C331 C78 1.482 . S
C336 C158 1.340 . S
C346 C103 1.356 . S
C341 C4 1.511 . S
C356 C121 1.356 . S
C351 C16 1.510 . S
C361 C28 1.507 . S
C366 C136 1.360 . S
C376 C116 1.359 . S
C371 C40 1.508 . S
C386 C142 1.355 . S
C381 C52 1.515 . S
C391 C64 1.514 . S
C396 C166 1.354 . S
C401 C76 1.511 . S
C406 C179 1.359 . S
C411 C88 1.512 . S
C416 C157 1.359 . S
