# Generated by pormake.
# Topology ptr, (4,4)-cn, num edge types: 1
# Building blocks:
#     Node 0, Type 0, BuildingBlock: CEKHIL_clean_sbu_0, # of connection points: 4
#     Node 1, Type 0, BuildingBlock: CEKHIL_clean_sbu_0, # of connection points: 4
#     Node 2, Type 0, BuildingBlock: CEKHIL_clean_sbu_0, # of connection points: 4
#     Node 3, Type 0, BuildingBlock: CEKHIL_clean_sbu_0, # of connection points: 4
#     Node 4, Type 0, BuildingBlock: CEKHIL_clean_sbu_0, # of connection points: 4
#     Node 5, Type 0, BuildingBlock: CEKHIL_clean_sbu_0, # of connection points: 4
#     Node 6, Type 0, BuildingBlock: CEKHIL_clean_sbu_0, # of connection points: 4
#     Node 7, Type 0, BuildingBlock: CEKHIL_clean_sbu_0, # of connection points: 4
#     Node 8, Type 0, BuildingBlock: CEKHIL_clean_sbu_0, # of connection points: 4
#     Node 9, Type 0, BuildingBlock: CEKHIL_clean_sbu_0, # of connection points: 4
#     Node 10, Type 0, BuildingBlock: CEKHIL_clean_sbu_0, # of connection points: 4
#     Node 11, Type 0, BuildingBlock: CEKHIL_clean_sbu_0, # of connection points: 4
#     Node 12, Type 0, BuildingBlock: CEKHIL_clean_sbu_0, # of connection points: 4
#     Node 13, Type 0, BuildingBlock: CEKHIL_clean_sbu_0, # of connection points: 4
#     Node 14, Type 0, BuildingBlock: CEKHIL_clean_sbu_0, # of connection points: 4
#     Node 15, Type 0, BuildingBlock: CEKHIL_clean_sbu_0, # of connection points: 4
#     Node 16, Type 0, BuildingBlock: CEKHIL_clean_sbu_0, # of connection points: 4
#     Node 17, Type 0, BuildingBlock: CEKHIL_clean_sbu_0, # of connection points: 4
#     Node 18, Type 1, BuildingBlock: MIFKUJ_clean_linker_1, # of connection points: 4
#     Node 19, Type 1, BuildingBlock: MIFKUJ_clean_linker_1, # of connection points: 4
#     Node 20, Type 1, BuildingBlock: MIFKUJ_clean_linker_1, # of connection points: 4
#     Node 21, Type 1, BuildingBlock: MIFKUJ_clean_linker_1, # of connection points: 4
#     Node 22, Type 1, BuildingBlock: MIFKUJ_clean_linker_1, # of connection points: 4
#     Node 23, Type 1, BuildingBlock: MIFKUJ_clean_linker_1, # of connection points: 4
#     Node 24, Type 1, BuildingBlock: MIFKUJ_clean_linker_1, # of connection points: 4
#     Node 25, Type 1, BuildingBlock: MIFKUJ_clean_linker_1, # of connection points: 4
#     Node 26, Type 1, BuildingBlock: MIFKUJ_clean_linker_1, # of connection points: 4
#     Node 27, Type 1, BuildingBlock: MIFKUJ_clean_linker_1, # of connection points: 4
#     Node 28, Type 1, BuildingBlock: MIFKUJ_clean_linker_1, # of connection points: 4
#     Node 29, Type 1, BuildingBlock: MIFKUJ_clean_linker_1, # of connection points: 4
#     Node 30, Type 1, BuildingBlock: MIFKUJ_clean_linker_1, # of connection points: 4
#     Node 31, Type 1, BuildingBlock: MIFKUJ_clean_linker_1, # of connection points: 4
#     Node 32, Type 1, BuildingBlock: MIFKUJ_clean_linker_1, # of connection points: 4
#     Node 33, Type 1, BuildingBlock: MIFKUJ_clean_linker_1, # of connection points: 4
#     Node 34, Type 1, BuildingBlock: MIFKUJ_clean_linker_1, # of connection points: 4
#     Node 35, Type 1, BuildingBlock: MIFKUJ_clean_linker_1, # of connection points: 4
#     Edge 36, Type (0, 1), BuildingBlock: CIFDUS_clean_linker_0, # of connection points: 2
#     Edge 37, Type (0, 1), BuildingBlock: CIFDUS_clean_linker_0, # of connection points: 2
#     Edge 38, Type (0, 1), BuildingBlock: CIFDUS_clean_linker_0, # of connection points: 2
#     Edge 39, Type (0, 1), BuildingBlock: CIFDUS_clean_linker_0, # of connection points: 2
#     Edge 40, Type (0, 1), BuildingBlock: CIFDUS_clean_linker_0, # of connection points: 2
#     Edge 41, Type (0, 1), BuildingBlock: CIFDUS_clean_linker_0, # of connection points: 2
#     Edge 42, Type (0, 1), BuildingBlock: CIFDUS_clean_linker_0, # of connection points: 2
#     Edge 43, Type (0, 1), BuildingBlock: CIFDUS_clean_linker_0, # of connection points: 2
#     Edge 44, Type (0, 1), BuildingBlock: CIFDUS_clean_linker_0, # of connection points: 2
#     Edge 45, Type (0, 1), BuildingBlock: CIFDUS_clean_linker_0, # of connection points: 2
#     Edge 46, Type (0, 1), BuildingBlock: CIFDUS_clean_linker_0, # of connection points: 2
#     Edge 47, Type (0, 1), BuildingBlock: CIFDUS_clean_linker_0, # of connection points: 2
#     Edge 48, Type (0, 1), BuildingBlock: CIFDUS_clean_linker_0, # of connection points: 2
#     Edge 49, Type (0, 1), BuildingBlock: CIFDUS_clean_linker_0, # of connection points: 2
#     Edge 50, Type (0, 1), BuildingBlock: CIFDUS_clean_linker_0, # of connection points: 2
#     Edge 51, Type (0, 1), BuildingBlock: CIFDUS_clean_linker_0, # of connection points: 2
#     Edge 52, Type (0, 1), BuildingBlock: CIFDUS_clean_linker_0, # of connection points: 2
#     Edge 53, Type (0, 1), BuildingBlock: CIFDUS_clean_linker_0, # of connection points: 2
#     Edge 54, Type (0, 1), BuildingBlock: CIFDUS_clean_linker_0, # of connection points: 2
#     Edge 55, Type (0, 1), BuildingBlock: CIFDUS_clean_linker_0, # of connection points: 2
#     Edge 56, Type (0, 1), BuildingBlock: CIFDUS_clean_linker_0, # of connection points: 2
#     Edge 57, Type (0, 1), BuildingBlock: CIFDUS_clean_linker_0, # of connection points: 2
#     Edge 58, Type (0, 1), BuildingBlock: CIFDUS_clean_linker_0, # of connection points: 2
#     Edge 59, Type (0, 1), BuildingBlock: CIFDUS_clean_linker_0, # of connection points: 2
#     Edge 60, Type (0, 1), BuildingBlock: CIFDUS_clean_linker_0, # of connection points: 2
#     Edge 61, Type (0, 1), BuildingBlock: CIFDUS_clean_linker_0, # of connection points: 2
#     Edge 62, Type (0, 1), BuildingBlock: CIFDUS_clean_linker_0, # of connection points: 2
#     Edge 63, Type (0, 1), BuildingBlock: CIFDUS_clean_linker_0, # of connection points: 2
#     Edge 64, Type (0, 1), BuildingBlock: CIFDUS_clean_linker_0, # of connection points: 2
#     Edge 65, Type (0, 1), BuildingBlock: CIFDUS_clean_linker_0, # of connection points: 2
#     Edge 66, Type (0, 1), BuildingBlock: CIFDUS_clean_linker_0, # of connection points: 2
#     Edge 67, Type (0, 1), BuildingBlock: CIFDUS_clean_linker_0, # of connection points: 2
#     Edge 68, Type (0, 1), BuildingBlock: CIFDUS_clean_linker_0, # of connection points: 2
#     Edge 69, Type (0, 1), BuildingBlock: CIFDUS_clean_linker_0, # of connection points: 2
#     Edge 70, Type (0, 1), BuildingBlock: CIFDUS_clean_linker_0, # of connection points: 2
#     Edge 71, Type (0, 1), BuildingBlock: CIFDUS_clean_linker_0, # of connection points: 2
#     Edge 72, Type (0, 1), BuildingBlock: CIFDUS_clean_linker_0, # of connection points: 2
#     Edge 73, Type (0, 1), BuildingBlock: CIFDUS_clean_linker_0, # of connection points: 2
#     Edge 74, Type (0, 1), BuildingBlock: CIFDUS_clean_linker_0, # of connection points: 2
#     Edge 75, Type (0, 1), BuildingBlock: CIFDUS_clean_linker_0, # of connection points: 2
#     Edge 76, Type (0, 1), BuildingBlock: CIFDUS_clean_linker_0, # of connection points: 2
#     Edge 77, Type (0, 1), BuildingBlock: CIFDUS_clean_linker_0, # of connection points: 2
#     Edge 78, Type (0, 1), BuildingBlock: CIFDUS_clean_linker_0, # of connection points: 2
#     Edge 79, Type (0, 1), BuildingBlock: CIFDUS_clean_linker_0, # of connection points: 2
#     Edge 80, Type (0, 1), BuildingBlock: CIFDUS_clean_linker_0, # of connection points: 2
#     Edge 81, Type (0, 1), BuildingBlock: CIFDUS_clean_linker_0, # of connection points: 2
#     Edge 82, Type (0, 1), BuildingBlock: CIFDUS_clean_linker_0, # of connection points: 2
#     Edge 83, Type (0, 1), BuildingBlock: CIFDUS_clean_linker_0, # of connection points: 2
#     Edge 84, Type (0, 1), BuildingBlock: CIFDUS_clean_linker_0, # of connection points: 2
#     Edge 85, Type (0, 1), BuildingBlock: CIFDUS_clean_linker_0, # of connection points: 2
#     Edge 86, Type (0, 1), BuildingBlock: CIFDUS_clean_linker_0, # of connection points: 2
#     Edge 87, Type (0, 1), BuildingBlock: CIFDUS_clean_linker_0, # of connection points: 2
#     Edge 88, Type (0, 1), BuildingBlock: CIFDUS_clean_linker_0, # of connection points: 2
#     Edge 89, Type (0, 1), BuildingBlock: CIFDUS_clean_linker_0, # of connection points: 2
#     Edge 90, Type (0, 1), BuildingBlock: CIFDUS_clean_linker_0, # of connection points: 2
#     Edge 91, Type (0, 1), BuildingBlock: CIFDUS_clean_linker_0, # of connection points: 2
#     Edge 92, Type (0, 1), BuildingBlock: CIFDUS_clean_linker_0, # of connection points: 2
#     Edge 93, Type (0, 1), BuildingBlock: CIFDUS_clean_linker_0, # of connection points: 2
#     Edge 94, Type (0, 1), BuildingBlock: CIFDUS_clean_linker_0, # of connection points: 2
#     Edge 95, Type (0, 1), BuildingBlock: CIFDUS_clean_linker_0, # of connection points: 2
#     Edge 96, Type (0, 1), BuildingBlock: CIFDUS_clean_linker_0, # of connection points: 2
#     Edge 97, Type (0, 1), BuildingBlock: CIFDUS_clean_linker_0, # of connection points: 2
#     Edge 98, Type (0, 1), BuildingBlock: CIFDUS_clean_linker_0, # of connection points: 2
#     Edge 99, Type (0, 1), BuildingBlock: CIFDUS_clean_linker_0, # of connection points: 2
#     Edge 100, Type (0, 1), BuildingBlock: CIFDUS_clean_linker_0, # of connection points: 2
#     Edge 101, Type (0, 1), BuildingBlock: CIFDUS_clean_linker_0, # of connection points: 2
#     Edge 102, Type (0, 1), BuildingBlock: CIFDUS_clean_linker_0, # of connection points: 2
#     Edge 103, Type (0, 1), BuildingBlock: CIFDUS_clean_linker_0, # of connection points: 2
#     Edge 104, Type (0, 1), BuildingBlock: CIFDUS_clean_linker_0, # of connection points: 2
#     Edge 105, Type (0, 1), BuildingBlock: CIFDUS_clean_linker_0, # of connection points: 2
#     Edge 106, Type (0, 1), BuildingBlock: CIFDUS_clean_linker_0, # of connection points: 2
#     Edge 107, Type (0, 1), BuildingBlock: CIFDUS_clean_linker_0, # of connection points: 2
# Relax obj value: 0.037
# Max RMSD: 0.119
# Mean RMSD: 0.059
data_MOF--net-ptr--node1-CEKHIL_clean_sbu_0--node2-MIFKUJ_clean_linker_1--edge1-CIFDUS_clean_linker_0
_symmetry_space_group_name_H-M    P1
_symmetry_Int_Tables_number       1
_symmetry_cell_setting            triclinic
loop_
_symmetry_equiv_pos_as_xyz
'x, y, z'
_cell_length_a     80.594477
_cell_length_b     79.723755
_cell_length_c     55.797567
_cell_angle_alpha  90.823934
_cell_angle_beta   89.444281
_cell_angle_gamma 120.9544
loop_
_atom_site_label
_atom_site_type_symbol
_atom_site_fract_x
_atom_site_fract_y
_atom_site_fract_z
_atom_type_partial_charge
Co0 Co 0.01594 0.35164 0.00572 0.0
O1 O 0.0237 0.33853 0.02758 0.0
O2 O 0.04384 0.36634 0.0095 0.0
C3 C 0.99515 0.3247 0.98444 0.0
O4 O 0.01314 0.36901 0.98145 0.0
Co5 Co 0.97312 0.34126 0.00457 0.0
O6 O 0.98145 0.35686 0.97474 0.0
C7 C 0.99851 0.36561 0.04409 0.0
C8 C 0.04135 0.3527 0.02424 0.0
C9 C 0.99922 0.36871 0.96984 0.0
O10 O 0.01319 0.36676 0.03317 0.0
O11 O 0.9811 0.35483 0.03665 0.0
O12 O 0.01357 0.33378 0.97968 0.0
O13 O 0.99031 0.33112 0.00295 0.0
Co14 Co 0.65731 0.65965 0.00887 0.0
O15 O 0.67487 0.67008 0.98217 0.0
O16 O 0.67108 0.64576 0.00487 0.0
C17 C 0.6653 0.6889 0.02516 0.0
O18 O 0.64097 0.64523 0.03813 0.0
Co19 Co 0.62417 0.66838 0.01594 0.0
O20 O 0.6218 0.65707 0.04817 0.0
C21 C 0.62163 0.64108 0.97765 0.0
C22 C 0.67965 0.65721 0.98678 0.0
C23 C 0.62897 0.64643 0.05246 0.0
O24 O 0.6362 0.64084 0.9865 0.0
O25 O 0.61578 0.65234 0.98556 0.0
O26 O 0.67571 0.68116 0.02972 0.0
O27 O 0.65148 0.67947 0.01001 0.0
Co28 Co 0.34425 0.99833 0.00795 0.0
O29 O 0.3299 0.00243 0.98369 0.0
O30 O 0.35592 0.02611 1.00167 0.0
C31 C 0.31801 0.97673 0.02933 0.0
O32 O 0.36242 0.99968 0.0344 0.0
Co33 Co 0.33879 0.95716 0.01532 0.0
O34 O 0.35275 0.96898 0.04573 0.0
C35 C 0.36244 0.98144 0.97467 0.0
C36 C 0.34202 0.02104 0.98631 0.0
C37 C 0.36321 0.98746 0.04858 0.0
O38 O 0.3611 0.99596 0.98262 0.0
O39 O 0.35341 0.96446 0.98415 0.0
O40 O 0.3251 0.99541 0.03211 0.0
O41 O 0.32591 0.97181 0.01263 0.0
Co42 Co 0.99633 0.65362 0.01129 0.0
O43 O 0.98869 0.6663 0.9884 0.0
O44 O 0.9688 0.63795 0.00554 0.0
C45 C 0.01481 0.68054 0.03396 0.0
O46 O 0.99849 0.63615 0.03603 0.0
Co47 Co 0.03927 0.66558 0.01806 0.0
O48 O 0.02952 0.64903 0.04704 0.0
C49 C 0.01766 0.64248 0.97534 0.0
C50 C 0.97116 0.65163 0.99101 0.0
C51 C 0.01158 0.63646 0.04944 0.0
O52 O 1.00176 0.63989 0.98441 0.0
O53 O 0.03423 0.65356 0.98502 0.0
O54 O 0.99616 0.67058 0.03691 0.0
O55 O 0.0214 0.67487 0.01645 0.0
Co56 Co 0.35012 0.34736 0.01408 0.0
O57 O 0.33333 0.33617 0.04131 0.0
O58 O 0.33516 0.35991 0.01913 0.0
C59 C 0.34329 0.31857 0.99751 0.0
O60 O 0.36554 0.36233 0.9845 0.0
Co61 Co 0.38453 0.34064 0.00527 0.0
O62 O 0.38535 0.35152 0.97321 0.0
C63 C 0.38619 0.36706 0.0443 0.0
C64 C 0.32748 0.34828 0.0373 0.0
C65 C 0.37748 0.36162 0.96957 0.0
O66 O 0.37121 0.36677 0.03594 0.0
O67 O 0.39254 0.35637 0.03587 0.0
O68 O 0.33195 0.32536 0.99362 0.0
O69 O 0.3573 0.32864 0.01218 0.0
Co70 Co 0.66163 0.00418 0.01409 0.0
O71 O 0.67347 0.99599 0.03738 0.0
O72 O 0.64609 0.97606 0.01855 0.0
C73 C 0.68903 0.02375 0.99326 0.0
O74 O 0.64554 0.00729 0.98821 0.0
Co75 Co 0.67397 0.04808 0.01091 0.0
O76 O 0.65863 0.03937 0.98094 0.0
C77 C 0.64793 0.02398 0.04987 0.0
C78 C 0.65922 0.97827 0.03377 0.0
C79 C 0.64652 0.02145 0.97609 0.0
O80 O 0.64655 0.00854 0.04017 0.0
O81 O 0.6594 0.04126 0.04207 0.0
O82 O 0.67952 0.00497 0.98942 0.0
O83 O 0.68279 0.0297 0.01086 0.0
Co84 Co 0.67889 0.68203 0.34664 0.0
O85 O 0.6845 0.66757 0.36894 0.0
O86 O 0.70661 0.69561 0.35304 0.0
C87 C 0.65908 0.65599 0.32348 0.0
O88 O 0.67793 0.7004 0.32205 0.0
Co89 Co 0.63627 0.67218 0.34229 0.0
O90 O 0.64658 0.68877 0.31351 0.0
C91 C 0.66002 0.69599 0.38319 0.0
C92 C 0.70257 0.68104 0.36708 0.0
C93 C 0.66455 0.70058 0.30966 0.0
O94 O 0.67501 0.69664 0.37385 0.0
O95 O 0.64301 0.68575 0.37431 0.0
O96 O 0.67769 0.66487 0.32039 0.0
O97 O 0.65337 0.66198 0.34158 0.0
Co98 Co 0.32671 0.99634 0.33729 0.0
O99 O 0.34571 0.00895 0.31242 0.0
O100 O 0.34153 0.98356 0.33312 0.0
C101 C 0.33243 0.02409 0.35612 0.0
O102 O 0.30902 0.97976 0.36453 0.0
Co103 Co 0.29206 0.00309 0.34222 0.0
O104 O 0.28654 0.98785 0.37207 0.0
C105 C 0.29274 0.9782 0.30297 0.0
C106 C 0.35083 0.99624 0.31634 0.0
C107 C 0.2947 0.9782 0.37688 0.0
O108 O 0.30724 0.97832 0.31266 0.0
O109 O 0.28592 0.98865 0.31078 0.0
O110 O 0.34329 0.01682 0.36052 0.0
O111 O 0.31979 0.01534 0.33946 0.0
Co112 Co 0.01098 0.33108 0.34534 0.0
O113 O 0.99768 0.33705 0.32167 0.0
O114 O 0.02315 0.35934 0.34198 0.0
C115 C 0.98389 0.30829 0.36427 0.0
O116 O 0.02766 0.32985 0.37214 0.0
Co117 Co 0.00438 0.28905 0.34651 0.0
O118 O 0.01632 0.29791 0.37858 0.0
C119 C 0.03038 0.31667 0.30993 0.0
C120 C 0.00976 0.35536 0.32621 0.0
C121 C 0.02686 0.31588 0.38455 0.0
O122 O 0.02876 0.33045 0.31992 0.0
O123 O 0.02072 0.29887 0.31681 0.0
O124 O 0.99108 0.32675 0.36902 0.0
O125 O 0.99215 0.30444 0.34691 0.0
Co126 Co 0.66447 0.98935 0.34603 0.0
O127 O 0.65586 1.00025 0.32191 0.0
O128 O 0.63656 0.97385 0.34295 0.0
C129 C 0.68486 0.0183 0.36403 0.0
O130 O 0.66771 0.97395 0.37276 0.0
Co131 Co 0.70753 1.00113 0.35057 0.0
O132 O 0.69916 0.98615 0.3808 0.0
C133 C 0.68361 0.97585 0.31033 0.0
C134 C 0.63841 0.98616 0.32656 0.0
C135 C 0.6813 0.97448 0.38536 0.0
O136 O 0.66805 0.97319 0.32059 0.0
O137 O 0.7006 0.98782 0.31836 0.0
O138 O 0.66658 0.00893 0.36963 0.0
O139 O 0.68984 0.01047 0.34731 0.0
Co140 Co 0.01691 0.67903 0.34561 0.0
O141 O 0.99555 0.66662 0.36775 0.0
O142 O 1.00342 0.69329 0.34727 0.0
C143 C 0.01164 0.65166 0.32639 0.0
O144 O 0.03744 0.69553 0.32054 0.0
Co145 Co 0.05012 0.66983 0.34761 0.0
O146 O 0.05925 0.68593 0.31829 0.0
C147 C 0.04724 0.69453 0.385 0.0
C148 C 0.99205 0.68036 0.36282 0.0
C149 C 0.05245 0.69627 0.31098 0.0
O150 O 0.03455 0.69572 0.37249 0.0
O151 O 0.05365 0.68328 0.37932 0.0
O152 O 1.00164 0.65962 0.32065 0.0
O153 O 0.02262 0.65916 0.34485 0.0
Co154 Co 0.32957 0.33746 0.34382 0.0
O155 O 0.34108 0.3289 0.36709 0.0
O156 O 0.31534 0.30906 0.34538 0.0
C157 C 0.35765 0.35981 0.32612 0.0
O158 O 0.31428 0.34113 0.31723 0.0
Co159 Co 0.33917 0.38065 0.34508 0.0
O160 O 0.32663 0.3735 0.31319 0.0
C161 C 0.31153 0.3527 0.38016 0.0
C162 C 0.32782 0.31113 0.36154 0.0
C163 C 0.31565 0.35588 0.30608 0.0
O164 O 0.31208 0.33861 0.36931 0.0
O165 O 0.32238 0.37065 0.37434 0.0
O166 O 0.34957 0.3414 0.32034 0.0
O167 O 0.34965 0.36368 0.34377 0.0
Co168 Co 0.34324 0.01654 0.67614 0.0
O169 O 0.34902 0.00339 0.70029 0.0
O170 O 0.3711 0.02918 0.68037 0.0
C171 C 0.32098 0.98874 0.65764 0.0
O172 O 0.3425 0.03342 0.64927 0.0
Co173 Co 0.30173 0.00959 0.67131 0.0
O174 O 0.31135 0.02165 0.63948 0.0
C175 C 0.32732 0.03447 0.71072 0.0
C176 C 0.36715 0.01593 0.69645 0.0
C177 C 0.32939 0.03263 0.63539 0.0
O178 O 0.34178 0.03408 0.70134 0.0
O179 O 0.31009 0.02453 0.70243 0.0
O180 O 0.33922 0.9963 0.65253 0.0
O181 O 0.31708 0.99752 0.67431 0.0
Co182 Co 0.99305 0.32577 0.67677 0.0
O183 O 0.01163 0.3364 0.65097 0.0
O184 O 0.00802 0.31306 0.6753 0.0
C185 C 0.99878 0.35485 0.69138 0.0
O186 O 0.97623 0.31156 0.70583 0.0
Co187 Co 0.95814 0.33224 0.68107 0.0
O188 O 0.95691 0.32348 0.71448 0.0
C189 C 0.95618 0.30177 0.64802 0.0
C190 C 0.01714 0.32442 0.65734 0.0
C191 C 0.96424 0.31315 0.71973 0.0
O192 O 0.97297 0.30533 0.65455 0.0
O193 O 0.9483 0.31125 0.65574 0.0
O194 O 0.01002 0.34834 0.69725 0.0
O195 O 0.98564 0.34445 0.67581 0.0
Co196 Co 0.67945 0.66846 0.67708 0.0
O197 O 0.66752 0.67627 0.65335 0.0
O198 O 0.69248 0.69673 0.67581 0.0
C199 C 0.65148 0.64509 0.69409 0.0
O200 O 0.6952 0.66617 0.70401 0.0
Co201 Co 0.67274 0.62659 0.67754 0.0
O202 O 0.68528 0.63451 0.70946 0.0
C203 C 0.69972 0.65486 0.64205 0.0
C204 C 0.68015 0.69421 0.65922 0.0
C205 C 0.6953 0.65244 0.71581 0.0
O206 O 0.69786 0.66846 0.6521 0.0
O207 O 0.68987 0.63695 0.64847 0.0
O208 O 0.65891 0.66338 0.70014 0.0
O209 O 0.66022 0.64178 0.6768 0.0
Co210 Co 0.3278 0.32066 0.68186 0.0
O211 O 0.32187 0.3325 0.65588 0.0
O212 O 0.30045 0.30558 0.67455 0.0
C213 C 0.34652 0.34885 0.70245 0.0
O214 O 0.32793 0.30436 0.70987 0.0
Co215 Co 0.3699 0.33156 0.69396 0.0
O216 O 0.35816 0.31712 0.72392 0.0
C217 C 0.34868 0.30374 0.65414 0.0
C218 C 0.30396 0.31858 0.65835 0.0
C219 C 0.34003 0.30502 0.72538 0.0
O220 O 0.33328 0.30439 0.65853 0.0
O221 O 0.36466 0.31414 0.66535 0.0
O222 O 0.32779 0.33984 0.70434 0.0
O223 O 0.35311 0.34145 0.68713 0.0
Co224 Co 0.68071 0.01046 0.68809 0.0
O225 O 0.66131 0.99725 0.71237 0.0
O226 O 0.66789 0.02487 0.69515 0.0
C227 C 0.67281 0.98366 0.66562 0.0
O228 O 0.69895 0.02783 0.66177 0.0
Co229 Co 0.71305 1.00069 0.67964 0.0
O230 O 0.7188 0.01706 0.65074 0.0
C231 C 0.71489 0.02432 0.7218 0.0
C232 C 0.6575 0.01112 0.71039 0.0
C233 C 0.71208 0.02831 0.64795 0.0
O234 O 0.70083 0.02576 0.71347 0.0
O235 O 0.72063 0.01351 0.71211 0.0
O236 O 0.66312 0.99249 0.66352 0.0
O237 O 0.68553 0.99019 0.68249 0.0
Co238 Co 0.99699 0.67577 0.6827 0.0
O239 O 0.00807 0.6687 0.70807 0.0
O240 O 0.98395 0.64736 0.68519 0.0
C241 C 0.02545 0.69853 0.66627 0.0
O242 O 0.98235 0.67827 0.65439 0.0
Co243 Co 0.00503 0.71831 0.68204 0.0
O244 O 0.99422 0.71047 0.64925 0.0
C245 C 0.97684 0.69026 0.71654 0.0
C246 C 0.99568 0.65058 0.70291 0.0
C247 C 0.98382 0.6927 0.64234 0.0
O248 O 0.97809 0.6764 0.70621 0.0
O249 O 0.98754 0.70827 0.71082 0.0
O250 O 0.01803 0.68013 0.6609 0.0
O251 O 0.01648 0.70221 0.68289 0.0
H252 H 0.1573 0.35738 0.20897 0.0
H253 H 0.12955 0.35119 0.23377 0.0
H254 H 0.09208 0.30165 0.18854 0.0
H255 H 0.11994 0.30743 0.16447 0.0
H256 H 0.17202 0.33445 0.20294 0.0
H257 H 0.14748 0.36387 0.14794 0.0
H258 H 0.12242 0.36446 0.12386 0.0
H259 H 0.11133 0.31165 0.08714 0.0
H260 H 0.13645 0.31122 0.11102 0.0
H261 H 0.18864 0.31739 0.10615 0.0
H262 H 0.21576 0.322 0.08113 0.0
H263 H 0.25578 0.36711 0.12955 0.0
H264 H 0.22866 0.36343 0.15384 0.0
H265 H 0.17561 0.33942 0.11438 0.0
H266 H 0.19891 0.30872 0.17023 0.0
H267 H 0.22301 0.30713 0.19534 0.0
H268 H 0.23593 0.36109 0.23053 0.0
H269 H 0.21175 0.36246 0.20579 0.0
C270 C 0.14073 0.33298 0.18472 0.0
C271 C 0.14308 0.34527 0.20431 0.0
C272 C 0.12716 0.34181 0.21835 0.0
C273 C 0.10857 0.32591 0.21317 0.0
C274 C 0.10621 0.31391 0.19319 0.0
C275 C 0.12212 0.31734 0.17922 0.0
C276 C 0.15785 0.33569 0.17103 0.0
C277 C 0.17294 0.33579 0.18358 0.0
C278 C 0.15886 0.33696 0.14575 0.0
C279 C 0.14373 0.33743 0.13135 0.0
C280 C 0.13963 0.35244 0.1347 0.0
C281 C 0.12544 0.35284 0.12085 0.0
C282 C 0.11495 0.33809 0.10367 0.0
C283 C 0.11912 0.32312 0.10036 0.0
C284 C 0.13349 0.3229 0.11392 0.0
C285 C 0.2065 0.33984 0.13219 0.0
C286 C 0.20322 0.32834 0.11142 0.0
C287 C 0.21868 0.33096 0.09711 0.0
C288 C 0.23776 0.34489 0.1035 0.0
C289 C 0.24116 0.35617 0.12442 0.0
C290 C 0.22565 0.35389 0.13844 0.0
C291 C 0.1898 0.33795 0.14621 0.0
C292 C 0.17476 0.33804 0.13373 0.0
C293 C 0.18877 0.33668 0.17155 0.0
C294 C 0.20364 0.33578 0.18607 0.0
C295 C 0.207 0.32022 0.18331 0.0
C296 C 0.22067 0.31927 0.1977 0.0
C297 C 0.23138 0.33404 0.21477 0.0
C298 C 0.22802 0.34962 0.21735 0.0
C299 C 0.21417 0.35038 0.20331 0.0
H300 H 0.69832 0.87743 0.20435 0.0
H301 H 0.69511 0.90075 0.2298 0.0
H302 H 0.64122 0.88484 0.19501 0.0
H303 H 0.64446 0.86125 0.16955 0.0
H304 H 0.67376 0.8379 0.20149 0.0
H305 H 0.69756 0.89358 0.15169 0.0
H306 H 0.69663 0.91961 0.13087 0.0
H307 H 0.65175 0.87677 0.08434 0.0
H308 H 0.65166 0.85061 0.10675 0.0
H309 H 0.65171 0.79924 0.1111 0.0
H310 H 0.65282 0.7728 0.09021 0.0
H311 H 0.70776 0.79063 0.12368 0.0
H312 H 0.70601 0.81656 0.14538 0.0
H313 H 0.67671 0.83989 0.11267 0.0
H314 H 0.65129 0.78466 0.1631 0.0
H315 H 0.64841 0.75806 0.18706 0.0
H316 H 0.69477 0.79986 0.23273 0.0
H317 H 0.69849 0.82644 0.2075 0.0
C318 C 0.67171 0.86774 0.18499 0.0
C319 C 0.68584 0.87898 0.20216 0.0
C320 C 0.68404 0.89238 0.21655 0.0
C321 C 0.66798 0.8947 0.21422 0.0
C322 C 0.65371 0.88331 0.19717 0.0
C323 C 0.6556 0.86995 0.18257 0.0
C324 C 0.67376 0.85336 0.17017 0.0
C325 C 0.67476 0.83851 0.18208 0.0
C326 C 0.67444 0.85399 0.14479 0.0
C327 C 0.67438 0.87 0.13125 0.0
C328 C 0.68721 0.8897 0.13735 0.0
C329 C 0.68689 0.90468 0.12504 0.0
C330 C 0.67414 0.90046 0.10572 0.0
C331 C 0.66154 0.88069 0.09933 0.0
C332 C 0.66164 0.86567 0.11198 0.0
C333 C 0.67874 0.8098 0.12979 0.0
C334 C 0.66409 0.79756 0.11371 0.0
C335 C 0.66481 0.78247 0.10171 0.0
C336 C 0.68043 0.77953 0.10516 0.0
C337 C 0.69537 0.79221 0.12085 0.0
C338 C 0.69449 0.80716 0.13311 0.0
C339 C 0.67691 0.82456 0.14408 0.0
C340 C 0.6759 0.83942 0.13209 0.0
C341 C 0.67614 0.82396 0.16943 0.0
C342 C 0.67529 0.80763 0.1832 0.0
C343 C 0.66127 0.78813 0.17779 0.0
C344 C 0.65943 0.77289 0.19182 0.0
C345 C 0.67121 0.77676 0.21207 0.0
C346 C 0.68557 0.79627 0.21716 0.0
C347 C 0.68758 0.81152 0.20287 0.0
H348 H 0.1194 0.82764 0.20016 0.0
H349 H 0.09731 0.80162 0.22703 0.0
H350 H 0.11101 0.76172 0.19132 0.0
H351 H 0.13385 0.78812 0.16538 0.0
H352 H 0.15733 0.84344 0.19698 0.0
H353 H 0.10332 0.80566 0.1448 0.0
H354 H 0.07973 0.77535 0.12506 0.0
H355 H 0.12554 0.77707 0.08196 0.0
H356 H 0.14916 0.80593 0.10386 0.0
H357 H 0.19447 0.85427 0.10403 0.0
H358 H 0.22133 0.88026 0.08188 0.0
H359 H 0.21468 0.92326 0.12211 0.0
H360 H 0.18661 0.89707 0.14236 0.0
H361 H 0.15816 0.84055 0.1082 0.0
H362 H 0.2113 0.87167 0.16512 0.0
H363 H 0.23652 0.89923 0.18837 0.0
H364 H 0.193 0.90879 0.2205 0.0
H365 H 0.16808 0.88172 0.1968 0.0
C366 C 0.12822 0.80984 0.18063 0.0
C367 C 0.1176 0.81326 0.19809 0.0
C368 C 0.10481 0.79829 0.2133 0.0
C369 C 0.10234 0.77952 0.2114 0.0
C370 C 0.11272 0.77604 0.19354 0.0
C371 C 0.12565 0.79108 0.17848 0.0
C372 C 0.14274 0.82622 0.16565 0.0
C373 C 0.15732 0.84286 0.17753 0.0
C374 C 0.14302 0.82525 0.14024 0.0
C375 C 0.12818 0.80789 0.12643 0.0
C376 C 0.10833 0.79928 0.13145 0.0
C377 C 0.09474 0.78202 0.11973 0.0
C378 C 0.10057 0.77336 0.10196 0.0
C379 C 0.12038 0.78273 0.09605 0.0
C380 C 0.13399 0.79958 0.10832 0.0
C381 C 0.18866 0.87361 0.1253 0.0
C382 C 0.19859 0.86928 0.1078 0.0
C383 C 0.21424 0.88428 0.09539 0.0
C384 C 0.22063 0.90407 0.10041 0.0
C385 C 0.21027 0.90831 0.1175 0.0
C386 C 0.19431 0.89327 0.12946 0.0
C387 C 0.17287 0.85758 0.1396 0.0
C388 C 0.15806 0.84105 0.12763 0.0
C389 C 0.17247 0.85835 0.16496 0.0
C390 C 0.18786 0.87482 0.17906 0.0
C391 C 0.20727 0.87984 0.17705 0.0
C392 C 0.22163 0.89548 0.19044 0.0
C393 C 0.21677 0.90628 0.20611 0.0
C394 C 0.19728 0.90101 0.20824 0.0
C395 C 0.18298 0.88543 0.19489 0.0
H396 H 0.29791 0.18466 0.84609 0.0
H397 H 0.30075 0.21269 0.82451 0.0
H398 H 0.36251 0.23714 0.81848 0.0
H399 H 0.35953 0.20946 0.84044 0.0
H400 H 0.32869 0.16387 0.82706 0.0
H401 H 0.29526 0.18197 0.89355 0.0
H402 H 0.29491 0.20939 0.91361 0.0
H403 H 0.35692 0.23863 0.92277 0.0
H404 H 0.357 0.21106 0.90316 0.0
H405 H 0.36185 0.14656 0.88286 0.0
H406 H 0.36777 0.12382 0.90504 0.0
H407 H 0.31197 0.09992 0.9393 0.0
H408 H 0.30623 0.12294 0.9173 0.0
H409 H 0.32835 0.16496 0.91606 0.0
H410 H 0.35373 0.15277 0.82242 0.0
H411 H 0.35117 0.12665 0.79639 0.0
H412 H 0.30304 0.08398 0.83878 0.0
H413 H 0.30511 0.11023 0.86403 0.0
C414 C 0.32853 0.19509 0.84488 0.0
C415 C 0.31202 0.19612 0.84009 0.0
C416 C 0.31367 0.21209 0.82768 0.0
C417 C 0.33189 0.22729 0.81992 0.0
C418 C 0.34831 0.22595 0.82458 0.0
C419 C 0.34664 0.21004 0.83693 0.0
C420 C 0.32726 0.17873 0.85869 0.0
C421 C 0.32855 0.16399 0.84651 0.0
C422 C 0.32662 0.1787 0.88394 0.0
C423 C 0.32613 0.19453 0.89721 0.0
C424 C 0.3087 0.19426 0.90013 0.0
C425 C 0.30856 0.20998 0.91135 0.0
C426 C 0.32587 0.22614 0.91985 0.0
C427 C 0.34329 0.22626 0.91681 0.0
C428 C 0.3434 0.21056 0.90564 0.0
C429 C 0.33357 0.13639 0.89838 0.0
C430 C 0.35093 0.13647 0.89522 0.0
C431 C 0.35433 0.12354 0.90795 0.0
C432 C 0.34032 0.11009 0.92386 0.0
C433 C 0.32296 0.11005 0.92704 0.0
C434 C 0.31971 0.12324 0.91461 0.0
C435 C 0.32995 0.14994 0.88444 0.0
C436 C 0.32805 0.16441 0.89663 0.0
C437 C 0.32967 0.14944 0.85907 0.0
C438 C 0.32964 0.13346 0.84519 0.0
C439 C 0.34274 0.13777 0.82621 0.0
C440 C 0.34138 0.1228 0.8115 0.0
C441 C 0.32686 0.10325 0.81549 0.0
C442 C 0.31424 0.09892 0.83509 0.0
C443 C 0.31556 0.11389 0.84971 0.0
H444 H 0.82975 0.12802 0.82524 0.0
H445 H 0.80365 0.10323 0.80043 0.0
H446 H 0.76424 0.11921 0.83137 0.0
H447 H 0.7907 0.14455 0.85561 0.0
H448 H 0.84554 0.16677 0.82536 0.0
H449 H 0.80891 0.11442 0.87931 0.0
H450 H 0.77987 0.09048 0.90014 0.0
H451 H 0.78022 0.13718 0.94116 0.0
H452 H 0.80769 0.16103 0.91801 0.0
H453 H 0.85553 0.2122 0.90794 0.0
H454 H 0.88079 0.24018 0.93023 0.0
H455 H 0.92199 0.22322 0.90939 0.0
H456 H 0.89669 0.19558 0.88654 0.0
H457 H 0.84207 0.17173 0.91376 0.0
H458 H 0.86487 0.21854 0.84531 0.0
H459 H 0.88928 0.24308 0.81886 0.0
H460 H 0.91589 0.20798 0.81116 0.0
H461 H 0.89056 0.18297 0.83655 0.0
C462 C 0.81214 0.13801 0.84243 0.0
C463 C 0.81549 0.12619 0.82668 0.0
C464 C 0.8005 0.11189 0.81268 0.0
C465 C 0.7818 0.1091 0.81409 0.0
C466 C 0.77849 0.12104 0.8298 0.0
C467 C 0.79354 0.13541 0.84379 0.0
C468 C 0.82829 0.15335 0.85694 0.0
C469 C 0.84482 0.16757 0.84474 0.0
C470 C 0.82722 0.15462 0.88226 0.0
C471 C 0.81031 0.1397 0.89643 0.0
C472 C 0.80244 0.11956 0.89234 0.0
C473 C 0.78593 0.10576 0.90476 0.0
C474 C 0.77729 0.11166 0.92241 0.0
C475 C 0.78585 0.13186 0.92725 0.0
C476 C 0.80193 0.14564 0.91424 0.0
C477 C 0.87427 0.20188 0.89558 0.0
C478 C 0.87002 0.21455 0.9082 0.0
C479 C 0.88448 0.23049 0.92101 0.0
C480 C 0.90345 0.23396 0.92171 0.0
C481 C 0.90764 0.2212 0.90896 0.0
C482 C 0.89318 0.20533 0.89599 0.0
C483 C 0.85885 0.18504 0.88202 0.0
C484 C 0.84261 0.17058 0.89441 0.0
C485 C 0.85999 0.18344 0.85696 0.0
C486 C 0.87595 0.199 0.84278 0.0
C487 C 0.87607 0.21626 0.838 0.0
C488 C 0.8902 0.23037 0.823 0.0
C489 C 0.90471 0.22764 0.81272 0.0
C490 C 0.90481 0.2105 0.81829 0.0
C491 C 0.89044 0.19623 0.83296 0.0
H492 H 0.79566 0.63701 0.82238 0.0
H493 H 0.76842 0.63294 0.79889 0.0
H494 H 0.77194 0.68291 0.83509 0.0
H495 H 0.79941 0.68689 0.85887 0.0
H496 H 0.83338 0.67034 0.82455 0.0
H497 H 0.77626 0.63413 0.8748 0.0
H498 H 0.74895 0.6304 0.89884 0.0
H499 H 0.78865 0.67563 0.94735 0.0
H500 H 0.81593 0.68037 0.92253 0.0
H501 H 0.8836 0.69611 0.88867 0.0
H502 H 0.91024 0.69589 0.9089 0.0
H503 H 0.8737 0.63351 0.91948 0.0
H504 H 0.84693 0.63423 0.90045 0.0
H505 H 0.83008 0.65889 0.91204 0.0
H506 H 0.87007 0.70053 0.82758 0.0
H507 H 0.89798 0.7078 0.80267 0.0
H508 H 0.89405 0.65433 0.82578 0.0
H509 H 0.86548 0.64668 0.84971 0.0
C510 C 0.79947 0.66215 0.84247 0.0
C511 C 0.79059 0.6471 0.8253 0.0
C512 C 0.77496 0.64473 0.812 0.0
C513 C 0.76796 0.65751 0.81531 0.0
C514 C 0.77706 0.67286 0.83219 0.0
C515 C 0.79265 0.6751 0.84581 0.0
C516 C 0.81596 0.66408 0.85641 0.0
C517 C 0.83271 0.66802 0.84374 0.0
C518 C 0.81506 0.66113 0.88152 0.0
C519 C 0.79824 0.65792 0.89641 0.0
C520 C 0.77915 0.64358 0.89028 0.0
C521 C 0.76355 0.64127 0.90414 0.0
C522 C 0.76682 0.65274 0.92485 0.0
C523 C 0.78585 0.66658 0.93148 0.0
C524 C 0.8014 0.66925 0.91731 0.0
C525 C 0.86333 0.6652 0.89311 0.0
C526 C 0.88135 0.68246 0.89559 0.0
C527 C 0.89663 0.68222 0.90696 0.0
C528 C 0.89429 0.66464 0.9158 0.0
C529 C 0.87606 0.64741 0.91337 0.0
C530 C 0.86072 0.64774 0.90236 0.0
C531 C 0.84735 0.66515 0.88012 0.0
C532 C 0.83076 0.6615 0.89293 0.0
C533 C 0.84847 0.66875 0.85526 0.0
C534 C 0.86579 0.67318 0.84075 0.0
C535 C 0.8752 0.69036 0.82725 0.0
C536 C 0.8913 0.69459 0.81319 0.0
C537 C 0.8984 0.68173 0.81233 0.0
C538 C 0.88891 0.66449 0.82587 0.0
C539 C 0.87271 0.66021 0.83982 0.0
H540 H 0.8283 0.69537 0.54377 0.0
H541 H 0.80044 0.68943 0.56826 0.0
H542 H 0.76254 0.64222 0.52042 0.0
H543 H 0.7904 0.64775 0.49657 0.0
H544 H 0.84235 0.6727 0.53691 0.0
H545 H 0.82191 0.70473 0.48417 0.0
H546 H 0.79963 0.71 0.46035 0.0
H547 H 0.78484 0.65834 0.41818 0.0
H548 H 0.80709 0.65309 0.44208 0.0
H549 H 0.85471 0.6443 0.44984 0.0
H550 H 0.88003 0.6427 0.42705 0.0
H551 H 0.92297 0.69852 0.45709 0.0
H552 H 0.89757 0.69998 0.48001 0.0
H553 H 0.84543 0.675 0.4481 0.0
H554 H 0.86584 0.64325 0.50779 0.0
H555 H 0.88986 0.64171 0.53309 0.0
H556 H 0.90792 0.6993 0.56135 0.0
H557 H 0.88388 0.70066 0.53632 0.0
C558 C 0.8115 0.6721 0.5182 0.0
C559 C 0.81396 0.68385 0.53845 0.0
C560 C 0.798 0.68053 0.55233 0.0
C561 C 0.77924 0.6653 0.54636 0.0
C562 C 0.77679 0.65394 0.52569 0.0
C563 C 0.79272 0.65725 0.51185 0.0
C564 C 0.82854 0.67425 0.50475 0.0
C565 C 0.84314 0.67354 0.51751 0.0
C566 C 0.82968 0.67533 0.47941 0.0
C567 C 0.81605 0.67842 0.46504 0.0
C568 C 0.81381 0.6945 0.46985 0.0
C569 C 0.80121 0.6976 0.45611 0.0
C570 C 0.79049 0.68458 0.43741 0.0
C571 C 0.7928 0.66853 0.43259 0.0
C572 C 0.80556 0.66556 0.44616 0.0
C573 C 0.8743 0.67219 0.4667 0.0
C574 C 0.86959 0.65618 0.45152 0.0
C575 C 0.88405 0.65525 0.4386 0.0
C576 C 0.90346 0.67049 0.44031 0.0
C577 C 0.90812 0.68664 0.45531 0.0
C578 C 0.89366 0.68743 0.46851 0.0
C579 C 0.85884 0.67304 0.48029 0.0
C580 C 0.84459 0.67429 0.46751 0.0
C581 C 0.8583 0.673 0.50561 0.0
C582 C 0.87316 0.67211 0.52014 0.0
C583 C 0.87507 0.65556 0.51936 0.0
C584 C 0.8887 0.65466 0.53387 0.0
C585 C 0.90083 0.67043 0.54909 0.0
C586 C 0.89895 0.68703 0.54959 0.0
C587 C 0.88517 0.68779 0.53541 0.0
H588 H 0.37518 0.22001 0.52994 0.0
H589 H 0.37303 0.24392 0.55539 0.0
H590 H 0.31394 0.22066 0.53248 0.0
H591 H 0.31667 0.19738 0.50602 0.0
H592 H 0.35103 0.1792 0.53423 0.0
H593 H 0.3693 0.22971 0.47953 0.0
H594 H 0.36783 0.2547 0.45722 0.0
H595 H 0.31963 0.20988 0.41633 0.0
H596 H 0.32 0.18484 0.44068 0.0
H597 H 0.31745 0.1311 0.45249 0.0
H598 H 0.31673 0.10343 0.43208 0.0
H599 H 0.376 0.1255 0.45328 0.0
H600 H 0.37625 0.15272 0.47442 0.0
H601 H 0.34338 0.17265 0.44586 0.0
H602 H 0.32139 0.12438 0.51056 0.0
H603 H 0.32244 0.10088 0.53705 0.0
H604 H 0.38196 0.14354 0.55443 0.0
H605 H 0.38027 0.16725 0.52883 0.0
C606 C 0.34607 0.20692 0.51622 0.0
C607 C 0.36184 0.22021 0.53026 0.0
C608 C 0.3605 0.23377 0.54492 0.0
C609 C 0.34316 0.234 0.54639 0.0
C610 C 0.32754 0.221 0.53172 0.0
C611 C 0.32903 0.20762 0.51668 0.0
C612 C 0.34717 0.19163 0.50219 0.0
C613 C 0.34961 0.17795 0.51487 0.0
C614 C 0.34512 0.18999 0.47692 0.0
C615 C 0.34444 0.20525 0.4624 0.0
C616 C 0.35803 0.22517 0.46626 0.0
C617 C 0.35744 0.23955 0.45296 0.0
C618 C 0.34368 0.23451 0.43465 0.0
C619 C 0.33026 0.2145 0.43047 0.0
C620 C 0.3306 0.20007 0.44423 0.0
C621 C 0.34688 0.14391 0.46492 0.0
C622 C 0.33029 0.12997 0.45263 0.0
C623 C 0.32996 0.1142 0.4409 0.0
C624 C 0.34635 0.11222 0.4409 0.0
C625 C 0.36302 0.12635 0.45318 0.0
C626 C 0.36325 0.14201 0.46512 0.0
C627 C 0.34692 0.1602 0.47804 0.0
C628 C 0.34476 0.17403 0.46521 0.0
C629 C 0.34945 0.16224 0.50313 0.0
C630 C 0.35074 0.14754 0.51776 0.0
C631 C 0.33468 0.12858 0.51999 0.0
C632 C 0.3354 0.11509 0.53505 0.0
C633 C 0.35232 0.12017 0.54805 0.0
C634 C 0.36856 0.13911 0.54518 0.0
C635 C 0.36769 0.15269 0.53039 0.0
H636 H 0.79225 0.15577 0.54394 0.0
H637 H 0.77209 0.12789 0.56967 0.0
H638 H 0.77927 0.08992 0.52006 0.0
H639 H 0.80026 0.11798 0.49524 0.0
H640 H 0.82921 0.17051 0.53438 0.0
H641 H 0.77203 0.14571 0.48499 0.0
H642 H 0.74386 0.11864 0.46503 0.0
H643 H 0.78196 0.10654 0.42294 0.0
H644 H 0.80989 0.134 0.44227 0.0
H645 H 0.85903 0.18517 0.437 0.0
H646 H 0.88533 0.21142 0.41441 0.0
H647 H 0.88573 0.25384 0.46404 0.0
H648 H 0.85821 0.22763 0.48502 0.0
H649 H 0.8236 0.17369 0.44635 0.0
H650 H 0.88082 0.198 0.49746 0.0
H651 H 0.90813 0.22137 0.52254 0.0
H652 H 0.86934 0.2327 0.56412 0.0
H653 H 0.8423 0.20941 0.53928 0.0
C654 C 0.79766 0.13899 0.51752 0.0
C655 C 0.78935 0.1414 0.53854 0.0
C656 C 0.77767 0.1254 0.55313 0.0
C657 C 0.77407 0.10663 0.54699 0.0
C658 C 0.78193 0.10418 0.52552 0.0
C659 C 0.79373 0.1202 0.51108 0.0
C660 C 0.81166 0.15628 0.50337 0.0
C661 C 0.8278 0.1714 0.51519 0.0
C662 C 0.81004 0.15726 0.47829 0.0
C663 C 0.79303 0.14185 0.46506 0.0
C664 C 0.77424 0.13731 0.47124 0.0
C665 C 0.75816 0.12173 0.45996 0.0
C666 C 0.76056 0.11033 0.44235 0.0
C667 C 0.77949 0.11518 0.43603 0.0
C668 C 0.79553 0.13087 0.44711 0.0
C669 C 0.85681 0.20429 0.46309 0.0
C670 C 0.86458 0.20015 0.44279 0.0
C671 C 0.8799 0.21524 0.43007 0.0
C672 C 0.88807 0.23489 0.43753 0.0
C673 C 0.87987 0.23901 0.45751 0.0
C674 C 0.86425 0.22393 0.46986 0.0
C675 C 0.84133 0.18804 0.47741 0.0
C676 C 0.82493 0.17301 0.46559 0.0
C677 C 0.84268 0.18714 0.50261 0.0
C678 C 0.85955 0.20199 0.51655 0.0
C679 C 0.8783 0.20569 0.51186 0.0
C680 C 0.89386 0.21902 0.52615 0.0
C681 C 0.89081 0.22866 0.54546 0.0
C682 C 0.87208 0.22519 0.5497 0.0
C683 C 0.85662 0.21195 0.53547 0.0
H684 H 0.97236 0.51218 0.15968 0.0
H685 H 0.97482 0.53935 0.13702 0.0
H686 H 0.03471 0.57533 0.15882 0.0
H687 H 0.03134 0.54861 0.183 0.0
H688 H 0.9984 0.4954 0.15667 0.0
H689 H 0.97431 0.5249 0.20725 0.0
H690 H 0.97338 0.55163 0.22717 0.0
H691 H 0.02093 0.56129 0.27243 0.0
H692 H 0.02328 0.53616 0.25023 0.0
H693 H 0.03034 0.49198 0.2471 0.0
H694 H 0.03506 0.46952 0.27114 0.0
H695 H 0.98528 0.4206 0.23725 0.0
H696 H 0.97969 0.44323 0.21496 0.0
H697 H 1.00288 0.5 0.24535 0.0
H698 H 0.02644 0.46957 0.18605 0.0
H699 H 0.02346 0.4419 0.16256 0.0
H700 H 0.96796 0.42964 0.1363 0.0
H701 H 0.97073 0.45666 0.16037 0.0
C702 C 1.00161 0.52848 0.17316 0.0
C703 C 0.98595 0.52602 0.15958 0.0
C704 C 0.98749 0.54162 0.14645 0.0
C705 C 0.00498 0.55985 0.14593 0.0
C706 C 0.02078 0.56191 0.15917 0.0
C707 C 0.01901 0.54651 0.17284 0.0
C708 C 0.99996 0.51229 0.18781 0.0
C709 C 0.9992 0.49628 0.17609 0.0
C710 C 1.00065 0.51336 0.21314 0.0
C711 C 0.99934 0.52891 0.22654 0.0
C712 C 0.98497 0.5332 0.22092 0.0
C713 C 0.98415 0.54827 0.23283 0.0
C714 C 0.99719 0.55895 0.2514 0.0
C715 C 0.011 0.55396 0.25774 0.0
C716 C 0.0122 0.5393 0.24528 0.0
C717 C 0.00484 0.4694 0.22882 0.0
C718 C 0.0203 0.47641 0.24504 0.0
C719 C 0.02314 0.46346 0.2586 0.0
C720 C 0.0107 0.44308 0.25615 0.0
C721 C 0.99508 0.43612 0.24002 0.0
C722 C 0.99203 0.44911 0.22684 0.0
C723 C 1.00232 0.48347 0.21418 0.0
C724 C 1.00219 0.49913 0.22594 0.0
C725 C 1.00019 0.48176 0.18889 0.0
C726 C 0.99872 0.46505 0.17509 0.0
C727 C 0.01356 0.46074 0.17543 0.0
C728 C 0.01188 0.44502 0.16189 0.0
C729 C 0.9954 0.43346 0.14768 0.0
C730 C 0.98065 0.43793 0.14742 0.0
C731 C 0.9823 0.45353 0.16096 0.0
H732 H 0.50833 0.45804 0.15837 0.0
H733 H 0.4843 0.43193 0.13275 0.0
H734 H 0.4399 0.44119 0.16259 0.0
H735 H 0.46424 0.46786 0.18765 0.0
H736 H 0.51973 0.49589 0.1584 0.0
H737 H 0.48773 0.44246 0.21159 0.0
H738 H 0.46001 0.41598 0.23167 0.0
H739 H 0.45312 0.45832 0.27323 0.0
H740 H 0.47922 0.48455 0.25069 0.0
H741 H 0.52432 0.5401 0.23959 0.0
H742 H 0.54766 0.56895 0.26249 0.0
H743 H 0.59229 0.55585 0.24522 0.0
H744 H 0.56896 0.5275 0.22157 0.0
H745 H 0.51446 0.4997 0.24671 0.0
H746 H 0.53429 0.54706 0.17929 0.0
H747 H 0.55711 0.57266 0.15254 0.0
H748 H 0.5882 0.542 0.14361 0.0
H749 H 0.56448 0.51591 0.16934 0.0
C750 C 0.48803 0.46477 0.17501 0.0
C751 C 0.49342 0.45444 0.15939 0.0
C752 C 0.47963 0.4394 0.14495 0.0
C753 C 0.46017 0.43441 0.14578 0.0
C754 C 0.45479 0.44478 0.16146 0.0
C755 C 0.46864 0.45989 0.17591 0.0
C756 C 0.50292 0.48106 0.18974 0.0
C757 C 0.51866 0.49649 0.17776 0.0
C758 C 0.50132 0.48195 0.21503 0.0
C759 C 0.48534 0.46564 0.22892 0.0
C760 C 0.47993 0.44606 0.22455 0.0
C761 C 0.46419 0.43082 0.23657 0.0
C762 C 0.45389 0.43471 0.25415 0.0
C763 C 0.46004 0.45444 0.25934 0.0
C764 C 0.47534 0.46963 0.24669 0.0
C765 C 0.54498 0.53177 0.22894 0.0
C766 C 0.53917 0.54354 0.24074 0.0
C767 C 0.55252 0.55995 0.2539 0.0
C768 C 0.57188 0.56472 0.2558 0.0
C769 C 0.57761 0.55284 0.24384 0.0
C770 C 0.56429 0.53655 0.23045 0.0
C771 C 0.53079 0.51437 0.21518 0.0
C772 C 0.51536 0.49878 0.22737 0.0
C773 C 0.53252 0.51316 0.19016 0.0
C774 C 0.54773 0.52964 0.1762 0.0
C775 C 0.54616 0.54601 0.1717 0.0
C776 C 0.55936 0.56072 0.1565 0.0
C777 C 0.57461 0.55951 0.14571 0.0
C778 C 0.57649 0.54333 0.1511 0.0
C779 C 0.56305 0.52846 0.16598 0.0
H780 H 0.53899 0.02579 0.15342 0.0
H781 H 0.56459 0.02736 0.12792 0.0
H782 H 0.55229 0.97155 0.15492 0.0
H783 H 0.52628 0.96976 0.17973 0.0
H784 H 0.50075 1.00032 0.15326 0.0
H785 H 0.551 0.02305 0.21299 0.0
H786 H 0.57746 0.02323 0.23401 0.0
H787 H 0.53892 0.96292 0.2539 0.0
H788 H 0.51229 0.96329 0.23372 0.0
H789 H 0.45577 0.96097 0.23571 0.0
H790 H 0.42897 0.95872 0.2594 0.0
H791 H 0.44835 0.01889 0.24262 0.0
H792 H 0.47445 0.02062 0.21826 0.0
H793 H 0.49697 0.98844 0.2408 0.0
H794 H 0.44835 0.96465 0.17753 0.0
H795 H 0.42199 0.96342 0.15515 0.0
H796 H 0.45721 0.02569 0.14279 0.0
H797 H 0.48399 0.02637 0.16414 0.0
C798 C 0.53082 0.99776 0.16868 0.0
C799 C 0.54181 0.0139 0.15384 0.0
C800 C 0.55656 0.01485 0.13944 0.0
C801 C 0.56057 0.99962 0.13946 0.0
C802 C 0.54951 0.98346 0.15434 0.0
C803 C 0.53476 0.98252 0.16873 0.0
C804 C 0.5149 0.99659 0.18365 0.0
C805 C 0.50015 0.99807 0.17245 0.0
C806 C 0.51377 0.99316 0.20862 0.0
C807 C 0.52972 0.99314 0.22169 0.0
C808 C 0.54827 0.0099 0.22194 0.0
C809 C 0.56344 0.00989 0.23386 0.0
C810 C 0.5605 0.99302 0.24557 0.0
C811 C 0.54177 0.97628 0.24542 0.0
C812 C 0.52651 0.9764 0.23377 0.0
C813 C 0.46695 0.9909 0.22509 0.0
C814 C 0.45415 0.97362 0.23716 0.0
C815 C 0.43891 0.97242 0.25081 0.0
C816 C 0.43636 0.98859 0.25291 0.0
C817 C 0.4495 0.00598 0.24103 0.0
C818 C 0.46455 0.00706 0.22718 0.0
C819 C 0.48297 0.99221 0.21037 0.0
C820 C 0.49771 0.99079 0.22162 0.0
C821 C 0.48416 0.99581 0.1855 0.0
C822 C 0.46808 0.99558 0.17249 0.0
C823 C 0.45035 0.97802 0.16999 0.0
C824 C 0.43519 0.97744 0.15734 0.0
C825 C 0.43723 0.99451 0.1472 0.0
C826 C 0.45507 0.01218 0.14998 0.0
C827 C 0.47039 0.01265 0.16231 0.0
H828 H 0.49772 0.04346 0.87516 0.0
H829 H 0.47085 0.04011 0.8995 0.0
H830 H 0.43083 0.99027 0.85635 0.0
H831 H 0.45785 0.99315 0.8328 0.0
H832 H 0.51081 0.01986 0.87119 0.0
H833 H 0.48872 0.0486 0.81433 0.0
H834 H 0.4656 0.05158 0.78921 0.0
H835 H 0.45071 0.99728 0.75331 0.0
H836 H 0.47386 0.99437 0.77846 0.0
H837 H 0.527 0.99223 0.7846 0.0
H838 H 0.55436 0.99412 0.7625 0.0
H839 H 0.59236 0.0514 0.79317 0.0
H840 H 0.56496 0.0494 0.81528 0.0
H841 H 0.51322 0.01928 0.78233 0.0
H842 H 0.53942 0.99371 0.8407 0.0
H843 H 0.56584 0.99569 0.86458 0.0
H844 H 0.57546 0.04943 0.8972 0.0
H845 H 0.54933 0.0475 0.87321 0.0
C846 C 0.47986 0.01863 0.85204 0.0
C847 C 0.48315 0.03186 0.87088 0.0
C848 C 0.46773 0.03004 0.88465 0.0
C849 C 0.44865 0.0149 0.87992 0.0
C850 C 0.44535 0.00196 0.86067 0.0
C851 C 0.46079 0.00374 0.84698 0.0
C852 C 0.49643 0.01967 0.83868 0.0
C853 C 0.51141 0.01996 0.85176 0.0
C854 C 0.49717 0.01957 0.81331 0.0
C855 C 0.48289 0.02117 0.7984 0.0
C856 C 0.48041 0.03729 0.80113 0.0
C857 C 0.46732 0.03907 0.78664 0.0
C858 C 0.45636 0.02466 0.7693 0.0
C859 C 0.45886 0.00852 0.76665 0.0
C860 C 0.47211 0.00688 0.78093 0.0
C861 C 0.54402 0.02061 0.80166 0.0
C862 C 0.54124 0.00517 0.78655 0.0
C863 C 0.55686 0.00623 0.77405 0.0
C864 C 0.57547 0.02291 0.77616 0.0
C865 C 0.57816 0.03845 0.7911 0.0
C866 C 0.56257 0.03727 0.80383 0.0
C867 C 0.52746 0.01947 0.81488 0.0
C868 C 0.51249 0.01909 0.80176 0.0
C869 C 0.52694 0.01991 0.8402 0.0
C870 C 0.54252 0.02057 0.85501 0.0
C871 C 0.54728 0.00594 0.85296 0.0
C872 C 0.56227 0.007 0.86671 0.0
C873 C 0.57282 0.02279 0.88263 0.0
C874 C 0.56779 0.03723 0.88484 0.0
C875 C 0.55277 0.03608 0.87127 0.0
H876 H 0.02868 0.54437 0.86217 0.0
H877 H 0.0279 0.56905 0.88753 0.0
H878 H 0.97345 0.55509 0.85582 0.0
H879 H 0.97401 0.52975 0.831 0.0
H880 H 1.00284 0.50554 0.86354 0.0
H881 H 0.02551 0.55704 0.80242 0.0
H882 H 0.02223 0.58051 0.77833 0.0
H883 H 0.96714 0.53381 0.75195 0.0
H884 H 0.97093 0.51037 0.77553 0.0
H885 H 0.97323 0.45415 0.78996 0.0
H886 H 0.97529 0.42768 0.76994 0.0
H887 H 0.03758 0.46145 0.7762 0.0
H888 H 0.03534 0.48781 0.79617 0.0
H889 H 1.00052 0.50125 0.7747 0.0
H890 H 0.97222 0.46165 0.8566 0.0
H891 H 0.96988 0.43517 0.88062 0.0
H892 H 0.02982 0.45501 0.86503 0.0
H893 H 0.03216 0.482 0.84168 0.0
C894 C 1.00147 0.53528 0.84461 0.0
C895 C 0.01663 0.54671 0.86054 0.0
C896 C 0.01624 0.56097 0.87488 0.0
C897 C 1.00065 0.56415 0.87363 0.0
C898 C 0.98561 0.55292 0.85732 0.0
C899 C 0.986 0.53857 0.84296 0.0
C900 C 1.00149 0.51916 0.83103 0.0
C901 C 1.00264 0.50485 0.8441 0.0
C902 C 1.00028 0.51767 0.80569 0.0
C903 C 0.99841 0.53197 0.79091 0.0
C904 C 0.01273 0.55188 0.79145 0.0
C905 C 0.01075 0.56531 0.77773 0.0
C906 C 0.99432 0.55915 0.76324 0.0
C907 C 0.98009 0.53911 0.76261 0.0
C908 C 0.98218 0.52567 0.77618 0.0
C909 C 0.00413 0.47283 0.79445 0.0
C910 C 0.9873 0.45583 0.78685 0.0
C911 C 0.98852 0.44078 0.77544 0.0
C912 C 0.00661 0.44249 0.77154 0.0
C913 C 0.02345 0.45961 0.7792 0.0
C914 C 0.02221 0.4747 0.79045 0.0
C915 C 1.00286 0.48844 0.80728 0.0
C916 C 1.00108 0.50231 0.79411 0.0
C917 C 1.00318 0.48944 0.83253 0.0
C918 C 1.00228 0.47363 0.84718 0.0
C919 C 0.98486 0.4603 0.85842 0.0
C920 C 0.98352 0.44506 0.87197 0.0
C921 C 0.99961 0.44277 0.87456 0.0
C922 C 0.01718 0.45636 0.86351 0.0
C923 C 0.0185 0.47169 0.84997 0.0
H924 H 0.44752 0.4951 0.85828 0.0
H925 H 0.42372 0.46973 0.88458 0.0
H926 H 0.44808 0.43362 0.86754 0.0
H927 H 0.4709 0.4586 0.84016 0.0
H928 H 0.48898 0.51291 0.86329 0.0
H929 H 0.43788 0.47538 0.80939 0.0
H930 H 0.41355 0.44517 0.79036 0.0
H931 H 0.45875 0.4416 0.75236 0.0
H932 H 0.48301 0.47053 0.77378 0.0
H933 H 0.53525 0.52139 0.7818 0.0
H934 H 0.56414 0.5475 0.76226 0.0
H935 H 0.54562 0.58833 0.78037 0.0
H936 H 0.51725 0.56225 0.8007 0.0
H937 H 0.49455 0.50614 0.77551 0.0
H938 H 0.54451 0.53949 0.83497 0.0
H939 H 0.56857 0.56645 0.85983 0.0
H940 H 0.52423 0.5773 0.88603 0.0
H941 H 0.50052 0.55096 0.86038 0.0
C942 C 0.46089 0.47867 0.84722 0.0
C943 C 0.4475 0.48157 0.86005 0.0
C944 C 0.434 0.46707 0.87525 0.0
C945 C 0.43391 0.44952 0.87848 0.0
C946 C 0.4473 0.44666 0.86529 0.0
C947 C 0.46053 0.46102 0.84972 0.0
C948 C 0.47596 0.49454 0.83229 0.0
C949 C 0.49 0.51157 0.84402 0.0
C950 C 0.47739 0.4925 0.8072 0.0
C951 C 0.46241 0.475 0.79375 0.0
C952 C 0.4426 0.46782 0.79745 0.0
C953 C 0.42859 0.45065 0.78605 0.0
C954 C 0.43399 0.44057 0.76986 0.0
C955 C 0.45387 0.44843 0.76524 0.0
C956 C 0.46787 0.46527 0.77722 0.0
C957 C 0.52415 0.53988 0.79279 0.0
C958 C 0.53737 0.53594 0.78134 0.0
C959 C 0.55388 0.55094 0.7701 0.0
C960 C 0.5574 0.57018 0.76976 0.0
C961 C 0.54373 0.57387 0.78067 0.0
C962 C 0.52735 0.55892 0.79212 0.0
C963 C 0.50764 0.52439 0.80665 0.0
C964 C 0.49336 0.50747 0.79473 0.0
C965 C 0.50587 0.52642 0.83162 0.0
C966 C 0.52077 0.54339 0.8456 0.0
C967 C 0.54008 0.54797 0.84569 0.0
C968 C 0.55377 0.56322 0.86013 0.0
C969 C 0.54833 0.57404 0.87492 0.0
C970 C 0.529 0.5695 0.87457 0.0
C971 C 0.51538 0.55434 0.86007 0.0
H972 H 0.64259 0.86329 0.51895 0.0
H973 H 0.64751 0.89138 0.49561 0.0
H974 H 0.70341 0.90185 0.47274 0.0
H975 H 0.69851 0.87408 0.49634 0.0
H976 H 0.6674 0.83407 0.49147 0.0
H977 H 0.63726 0.8537 0.56691 0.0
H978 H 0.64078 0.88116 0.59149 0.0
H979 H 0.70297 0.90915 0.58619 0.0
H980 H 0.69929 0.88173 0.56158 0.0
H981 H 0.69274 0.80874 0.54884 0.0
H982 H 0.69314 0.7824 0.57051 0.0
H983 H 0.63705 0.76489 0.60064 0.0
H984 H 0.63685 0.79147 0.57918 0.0
H985 H 0.6641 0.83309 0.58036 0.0
H986 H 0.68929 0.81843 0.48836 0.0
H987 H 0.68523 0.79112 0.46338 0.0
H988 H 0.6326 0.752 0.50166 0.0
H989 H 0.63633 0.77948 0.52584 0.0
C990 C 0.67028 0.86672 0.50955 0.0
C991 C 0.65597 0.87179 0.50909 0.0
C992 C 0.65873 0.88774 0.49558 0.0
C993 C 0.6759 0.89895 0.48239 0.0
C994 C 0.69016 0.89376 0.48297 0.0
C995 C 0.68733 0.87779 0.49632 0.0
C996 C 0.66742 0.84962 0.52332 0.0
C997 C 0.66676 0.83387 0.5109 0.0
C998 C 0.66603 0.84907 0.54856 0.0
C999 C 0.66803 0.86582 0.56255 0.0
C1000 C 0.65161 0.86585 0.57098 0.0
C1001 C 0.65365 0.88154 0.58486 0.0
C1002 C 0.67215 0.89724 0.59079 0.0
C1003 C 0.68855 0.89716 0.58209 0.0
C1004 C 0.68649 0.88159 0.56801 0.0
C1005 C 0.66473 0.802 0.56234 0.0
C1006 C 0.68058 0.79929 0.56022 0.0
C1007 C 0.68084 0.78431 0.57267 0.0
C1008 C 0.66512 0.77159 0.58722 0.0
C1009 C 0.64931 0.77442 0.58944 0.0
C1010 C 0.64921 0.78962 0.57731 0.0
C1011 C 0.66432 0.81757 0.54852 0.0
C1012 C 0.66445 0.83308 0.56091 0.0
C1013 C 0.66501 0.81775 0.52317 0.0
C1014 C 0.66319 0.80099 0.50906 0.0
C1015 C 0.67692 0.80395 0.4914 0.0
C1016 C 0.67467 0.78829 0.47731 0.0
C1017 C 0.65861 0.76937 0.48058 0.0
C1018 C 0.64505 0.76641 0.49856 0.0
C1019 C 0.64727 0.78208 0.51257 0.0
H1020 H 0.16835 0.79086 0.49283 0.0
H1021 H 0.14302 0.76256 0.47105 0.0
H1022 H 0.10016 0.77447 0.5001 0.0
H1023 H 0.12574 0.80311 0.5215 0.0
H1024 H 0.17814 0.83065 0.48879 0.0
H1025 H 0.15592 0.77987 0.55239 0.0
H1026 H 0.12869 0.75382 0.57448 0.0
H1027 H 0.11051 0.79443 0.59534 0.0
H1028 H 0.13829 0.82048 0.57417 0.0
H1029 H 0.19452 0.87489 0.57664 0.0
H1030 H 0.22226 0.90318 0.5952 0.0
H1031 H 0.2606 0.88748 0.56014 0.0
H1032 H 0.23274 0.85978 0.54071 0.0
H1033 H 0.18066 0.83478 0.57769 0.0
H1034 H 0.20172 0.88555 0.52422 0.0
H1035 H 0.22222 0.9135 0.49914 0.0
H1036 H 0.23536 0.87711 0.45437 0.0
H1037 H 0.21554 0.84926 0.48052 0.0
C1038 C 0.14887 0.79896 0.50883 0.0
C1039 C 0.15349 0.78735 0.49451 0.0
C1040 C 0.13899 0.77109 0.48229 0.0
C1041 C 0.11959 0.76621 0.48406 0.0
C1042 C 0.11499 0.77792 0.49838 0.0
C1043 C 0.12953 0.79418 0.51068 0.0
C1044 C 0.16441 0.81612 0.52168 0.0
C1045 C 0.17897 0.83144 0.5082 0.0
C1046 C 0.16473 0.81753 0.54695 0.0
C1047 C 0.14911 0.80208 0.56174 0.0
C1048 C 0.14616 0.78314 0.56202 0.0
C1049 C 0.13045 0.76823 0.57447 0.0
C1050 C 0.11722 0.77189 0.58668 0.0
C1051 C 0.12049 0.79104 0.58658 0.0
C1052 C 0.13635 0.80599 0.5744 0.0
C1053 C 0.21162 0.86532 0.55734 0.0
C1054 C 0.20891 0.87751 0.57313 0.0
C1055 C 0.22482 0.89365 0.58378 0.0
C1056 C 0.24375 0.89764 0.57926 0.0
C1057 C 0.24632 0.88509 0.56373 0.0
C1058 C 0.23041 0.86915 0.55278 0.0
C1059 C 0.19493 0.84902 0.54477 0.0
C1060 C 0.18008 0.83393 0.55827 0.0
C1061 C 0.19396 0.84818 0.51944 0.0
C1062 C 0.20727 0.8653 0.50453 0.0
C1063 C 0.20939 0.88364 0.5094 0.0
C1064 C 0.22093 0.89959 0.49479 0.0
C1065 C 0.23035 0.89755 0.4746 0.0
C1066 C 0.22848 0.87926 0.46991 0.0
C1067 C 0.21701 0.86327 0.48471 0.0
H1068 H 0.12913 0.31015 0.48896 0.0
H1069 H 0.10468 0.31092 0.46406 0.0
H1070 H 0.12351 0.36933 0.48987 0.0
H1071 H 0.14786 0.36836 0.51511 0.0
H1072 H 0.17104 0.33881 0.48682 0.0
H1073 H 0.11741 0.30986 0.54497 0.0
H1074 H 0.0907 0.30967 0.56672 0.0
H1075 H 0.13034 0.36772 0.59413 0.0
H1076 H 0.15704 0.36774 0.57255 0.0
H1077 H 0.20933 0.36398 0.57853 0.0
H1078 H 0.23491 0.36272 0.60042 0.0
H1079 H 0.22018 0.30879 0.56368 0.0
H1080 H 0.19466 0.31014 0.5418 0.0
H1081 H 0.16976 0.33889 0.57576 0.0
H1082 H 0.22398 0.3662 0.52462 0.0
H1083 H 0.25133 0.3707 0.50056 0.0
H1084 H 0.21255 0.32099 0.45637 0.0
H1085 H 0.18528 0.31596 0.48137 0.0
C1086 C 0.14022 0.33914 0.50395 0.0
C1087 C 0.12791 0.32306 0.48938 0.0
C1088 C 0.11391 0.3235 0.47526 0.0
C1089 C 0.11216 0.34018 0.47508 0.0
C1090 C 0.12458 0.35633 0.48961 0.0
C1091 C 0.1384 0.35575 0.50409 0.0
C1092 C 0.15542 0.33873 0.51831 0.0
C1093 C 0.17064 0.33847 0.50625 0.0
C1094 C 0.15521 0.33909 0.54363 0.0
C1095 C 0.13916 0.33884 0.55713 0.0
C1096 C 0.12033 0.32251 0.55574 0.0
C1097 C 0.10513 0.32237 0.56824 0.0
C1098 C 0.10846 0.33868 0.58208 0.0
C1099 C 0.12735 0.35501 0.58347 0.0
C1100 C 0.1426 0.35501 0.57126 0.0
C1101 C 0.20015 0.33722 0.55843 0.0
C1102 C 0.21152 0.35182 0.57532 0.0
C1103 C 0.22621 0.35115 0.58768 0.0
C1104 C 0.2296 0.33569 0.58369 0.0
C1105 C 0.21785 0.32082 0.56723 0.0
C1106 C 0.20333 0.32163 0.55465 0.0
C1107 C 0.18532 0.33853 0.54425 0.0
C1108 C 0.17018 0.33905 0.55632 0.0
C1109 C 0.18578 0.33869 0.51885 0.0
C1110 C 0.20254 0.3406 0.50502 0.0
C1111 C 0.22138 0.35595 0.51014 0.0
C1112 C 0.23701 0.35867 0.49614 0.0
C1113 C 0.23416 0.34628 0.4764 0.0
C1114 C 0.21532 0.33066 0.47158 0.0
C1115 C 0.19968 0.32788 0.48573 0.0
H1116 H 0.97216 0.36245 0.07726 0.0
H1117 H 0.03264 0.39765 0.05851 0.0
H1118 H 0.0374 0.42103 0.09035 0.0
H1119 H 0.02366 0.43308 0.1208 0.0
H1120 H 0.9633 0.39747 0.13988 0.0
H1121 H 0.95925 0.37271 0.11051 0.0
C1122 C 0.98643 0.37514 0.08024 0.0
C1123 C 1.00194 0.3784 0.06527 0.0
C1124 C 0.98907 0.38857 0.09849 0.0
C1125 C 0.0204 0.39478 0.06968 0.0
C1126 C 0.02314 0.40822 0.08784 0.0
C1127 C 0.00972 0.41972 0.11892 0.0
C1128 C 0.99374 0.41731 0.13227 0.0
C1129 C 0.00747 0.40549 0.10199 0.0
C1130 C 0.97574 0.39993 0.12945 0.0
C1131 C 0.97342 0.38571 0.11272 0.0
H1132 H 0.62347 0.61002 0.05697 0.0
H1133 H 0.61757 0.65404 0.0953 0.0
H1134 H 0.6019 0.63161 0.12863 0.0
H1135 H 0.58792 0.59885 0.14561 0.0
H1136 H 0.59074 0.55378 0.10511 0.0
H1137 H 0.60999 0.57735 0.0744 0.0
C1138 C 0.61905 0.61479 0.07281 0.0
C1139 C 0.6217 0.63366 0.0737 0.0
C1140 C 0.60942 0.60158 0.09155 0.0
C1141 C 0.61562 0.63955 0.09417 0.0
C1142 C 0.60664 0.62673 0.11321 0.0
C1143 C 0.59259 0.59407 0.13003 0.0
C1144 C 0.5877 0.5744 0.12786 0.0
C1145 C 0.60306 0.60756 0.11185 0.0
C1146 C 0.59443 0.56879 0.10768 0.0
C1147 C 0.60533 0.58226 0.08988 0.0
H1148 H 0.36014 0.97215 0.09247 0.0
H1149 H 0.40034 0.01838 0.0462 0.0
H1150 H 0.42695 0.02558 0.07344 0.0
H1151 H 0.43912 0.01593 0.1078 0.0
H1152 H 0.39821 0.97114 0.15547 0.0
H1153 H 0.37165 0.96607 0.13008 0.0
C1154 C 0.37469 0.98406 0.08862 0.0
C1155 C 0.37832 0.99462 0.06729 0.0
C1156 C 0.38985 0.98811 0.10433 0.0
C1157 C 0.39717 0.01012 0.06258 0.0
C1158 C 0.41241 0.0141 0.07804 0.0
C1159 C 0.42442 0.00537 0.11306 0.0
C1160 C 0.42092 0.99354 0.13331 0.0
C1161 C 0.409 0.0028 0.09863 0.0
C1162 C 0.40159 0.97995 0.13956 0.0
C1163 C 0.38628 0.97714 0.12515 0.0
H1164 H 0.38927 0.01607 0.9541 0.0
H1165 H 0.36604 0.95372 0.94984 0.0
H1166 H 0.38994 0.95858 0.91951 0.0
H1167 H 0.41874 0.98045 0.89619 0.0
H1168 H 0.44225 0.04279 0.89989 0.0
H1169 H 0.41707 0.03796 0.92856 0.0
C1170 C 0.38928 0.00352 0.94636 0.0
C1171 C 0.37588 0.98456 0.95449 0.0
C1172 C 0.40326 0.0064 0.92897 0.0
C1173 C 0.3762 0.9685 0.94418 0.0
C1174 C 0.3899 0.97125 0.92678 0.0
C1175 C 0.41818 0.99299 0.90287 0.0
C1176 C 0.43245 0.01196 0.8959 0.0
C1177 C 0.40368 0.99013 0.91933 0.0
C1178 C 0.43163 0.02803 0.90518 0.0
C1179 C 0.41717 0.02528 0.92151 0.0
H1180 H 0.9758 0.36683 0.934 0.0
H1181 H 0.03269 0.40411 0.96386 0.0
H1182 H 0.03832 0.43008 0.93616 0.0
H1183 H 0.02595 0.44306 0.90563 0.0
H1184 H 0.96927 0.40507 0.87544 0.0
H1185 H 0.96469 0.37864 0.90126 0.0
C1186 C 0.98951 0.38058 0.93436 0.0
C1187 C 0.00372 0.38356 0.95118 0.0
C1188 C 0.99262 0.39543 0.91849 0.0
C1189 C 0.0215 0.40139 0.95111 0.0
C1190 C 0.02469 0.4163 0.93535 0.0
C1191 C 0.01272 0.42891 0.90441 0.0
C1192 C 0.99784 0.42624 0.88885 0.0
C1193 C 0.0102 0.41362 0.91926 0.0
C1194 C 0.98078 0.40777 0.88764 0.0
C1195 C 0.97817 0.39256 0.90231 0.0
H1196 H 0.59721 0.64367 0.94699 0.0
H1197 H 0.62154 0.60797 0.96341 0.0
H1198 H 0.60168 0.58451 0.93215 0.0
H1199 H 0.57592 0.57321 0.90195 0.0
H1200 H 0.55244 0.6096 0.88509 0.0
H1201 H 0.5734 0.63367 0.91497 0.0
C1202 C 0.59822 0.63078 0.94374 0.0
C1203 C 0.61067 0.62747 0.95773 0.0
C1204 C 0.58684 0.61742 0.92578 0.0
C1205 C 0.61203 0.61085 0.95296 0.0
C1206 C 0.60064 0.5974 0.93513 0.0
C1207 C 0.57563 0.58656 0.90449 0.0
C1208 C 0.56246 0.58948 0.89145 0.0
C1209 C 0.58781 0.60043 0.92164 0.0
C1210 C 0.56215 0.60679 0.8952 0.0
C1211 C 0.57419 0.62061 0.9122 0.0
H1212 H 0.98612 0.61061 0.95554 0.0
H1213 H 0.0476 0.64949 0.94565 0.0
H1214 H 0.04729 0.62968 0.91185 0.0
H1215 H 0.0302 0.60014 0.88696 0.0
H1216 H 0.96916 0.56011 0.89808 0.0
H1217 H 0.9686 0.58181 0.929 0.0
C1218 C 0.99941 0.61489 0.94582 0.0
C1219 C 0.01688 0.63144 0.95334 0.0
C1220 C 0.99923 0.60322 0.92657 0.0
C1221 C 0.03396 0.63673 0.94049 0.0
C1222 C 0.03382 0.62541 0.9211 0.0
C1223 C 0.01676 0.59615 0.89613 0.0
C1224 C 0.9998 0.57841 0.89033 0.0
C1225 C 0.01664 0.60841 0.91433 0.0
C1226 C 0.98241 0.57372 0.90202 0.0
C1227 C 0.98211 0.58605 0.91988 0.0
H1228 H 0.38595 0.39915 0.96781 0.0
H1229 H 0.38492 0.35333 0.92472 0.0
H1230 H 0.40058 0.37612 0.89166 0.0
H1231 H 0.41677 0.40955 0.87627 0.0
H1232 H 0.42134 0.45617 0.92159 0.0
H1233 H 0.40171 0.43259 0.95205 0.0
C1234 C 0.38881 0.39411 0.95098 0.0
C1235 C 0.3842 0.3746 0.94858 0.0
C1236 C 0.39857 0.4075 0.93245 0.0
C1237 C 0.38833 0.3683 0.9269 0.0
C1238 C 0.39734 0.38134 0.90806 0.0
C1239 C 0.41364 0.41466 0.89284 0.0
C1240 C 0.42072 0.43478 0.89641 0.0
C1241 C 0.40298 0.40109 0.91086 0.0
C1242 C 0.41595 0.44085 0.91791 0.0
C1243 C 0.40483 0.42735 0.93557 0.0
H1244 H 0.64713 0.04701 0.94399 0.0
H1245 H 0.6134 0.98652 0.96499 0.0
H1246 H 0.58806 0.98114 0.93662 0.0
H1247 H 0.57433 0.99449 0.90821 0.0
H1248 H 0.60835 0.05526 0.88853 0.0
H1249 H 0.63465 0.05963 0.91415 0.0
C1250 C 0.63432 0.03256 0.94233 0.0
C1251 C 0.63215 0.01725 0.95688 0.0
C1252 C 0.61973 0.02967 0.92635 0.0
C1253 C 0.6155 0.99861 0.95411 0.0
C1254 C 0.60094 0.99554 0.93796 0.0
C1255 C 0.58762 0.0086 0.90932 0.0
C1256 C 0.58927 0.0246 0.89672 0.0
C1257 C 0.60272 0.01109 0.92433 0.0
C1258 C 0.60655 0.04281 0.89839 0.0
C1259 C 0.62164 0.04531 0.91295 0.0
H1260 H 0.61479 0.99089 0.06388 0.0
H1261 H 0.65119 0.05239 0.08075 0.0
H1262 H 0.62787 0.05002 0.11064 0.0
H1263 H 0.59634 0.03105 0.13046 0.0
H1264 H 0.55926 0.9699 0.11268 0.0
H1265 H 0.58373 0.97154 0.08504 0.0
C1266 C 0.61776 0.00372 0.07431 0.0
C1267 C 0.63472 0.02181 0.06991 0.0
C1268 C 0.6041 0.00237 0.09128 0.0
C1269 C 0.63823 0.03829 0.08358 0.0
C1270 C 0.62487 0.03698 0.10069 0.0
C1271 C 0.59358 0.01809 0.12048 0.0
C1272 C 0.57592 1.00042 0.12358 0.0
C1273 C 0.6076 0.01919 0.10437 0.0
C1274 C 0.57277 0.98367 0.11084 0.0
C1275 C 0.58672 0.98462 0.0949 0.0
H1276 H 0.02767 0.63871 0.0928 0.0
H1277 H 0.98321 0.59823 0.0444 0.0
H1278 H 0.97701 0.57091 0.06999 0.0
H1279 H 0.98609 0.55844 0.10429 0.0
H1280 H 0.02811 0.59942 0.15509 0.0
H1281 H 0.03364 0.62648 0.13004 0.0
C1282 C 0.01646 0.62391 0.08804 0.0
C1283 C 0.00601 0.62046 0.06668 0.0
C1284 C 0.01278 0.60831 0.10301 0.0
C1285 C 0.99139 0.60127 0.06082 0.0
C1286 C 0.98794 0.58563 0.07536 0.0
C1287 C 0.99616 0.57322 0.11035 0.0
C1288 C 0.00696 0.57655 0.13151 0.0
C1289 C 0.99879 0.58895 0.0963 0.0
C1290 C 0.02006 0.59607 0.13855 0.0
C1291 C 0.02311 0.6117 0.12434 0.0
H1292 H 0.41089 0.36464 0.07445 0.0
H1293 H 0.38562 0.39969 0.0592 0.0
H1294 H 0.40554 0.42316 0.09046 0.0
H1295 H 0.43179 0.43477 0.12007 0.0
H1296 H 0.45635 0.39908 0.13542 0.0
H1297 H 0.43506 0.37481 0.10593 0.0
C1298 C 0.40968 0.37739 0.07795 0.0
C1299 C 0.397 0.38056 0.06429 0.0
C1300 C 0.42112 0.39074 0.09585 0.0
C1301 C 0.39534 0.39696 0.06941 0.0
C1302 C 0.40676 0.4104 0.08722 0.0
C1303 C 0.43223 0.42151 0.11727 0.0
C1304 C 0.4458 0.41885 0.12971 0.0
C1305 C 0.41991 0.40758 0.1003 0.0
C1306 C 0.44631 0.40167 0.12573 0.0
C1307 C 0.43409 0.38775 0.10895 0.0
H1308 H 0.63252 0.70066 0.40555 0.0
H1309 H 0.69347 0.72047 0.40778 0.0
H1310 H 0.6982 0.74416 0.43919 0.0
H1311 H 0.68536 0.76067 0.46419 0.0
H1312 H 0.62465 0.7415 0.46033 0.0
H1313 H 0.61951 0.71597 0.43162 0.0
C1314 C 0.64684 0.70999 0.413 0.0
C1315 C 0.66263 0.70884 0.40409 0.0
C1316 C 0.64953 0.72377 0.43076 0.0
C1317 C 0.68104 0.72106 0.41415 0.0
C1318 C 0.68378 0.73467 0.43209 0.0
C1319 C 0.67102 0.7509 0.45704 0.0
C1320 C 0.65544 0.75305 0.46437 0.0
C1321 C 0.6682 0.73642 0.44019 0.0
C1322 C 0.63687 0.74006 0.45524 0.0
C1323 C 0.63393 0.72552 0.43867 0.0
H1324 H 0.26284 0.96869 0.40383 0.0
H1325 H 0.30745 0.95451 0.39372 0.0
H1326 H 0.29185 0.92867 0.42351 0.0
H1327 H 0.26475 0.90926 0.45143 0.0
H1328 H 0.21977 0.92312 0.45969 0.0
H1329 H 0.23646 0.95001 0.43181 0.0
C1330 C 0.26931 0.9601 0.40819 0.0
C1331 C 0.28631 0.96359 0.3964 0.0
C1332 C 0.26016 0.94512 0.42504 0.0
C1333 C 0.29437 0.95219 0.40243 0.0
C1334 C 0.28543 0.93735 0.41944 0.0
C1335 C 0.25858 0.91812 0.44705 0.0
C1336 C 0.24105 0.91417 0.45782 0.0
C1337 C 0.26815 0.93351 0.43064 0.0
C1338 C 0.23339 0.92598 0.45209 0.0
C1339 C 0.24286 0.94131 0.43598 0.0
H1340 H 0.0624 0.34851 0.39417 0.0
H1341 H 0.01949 0.29255 0.42276 0.0
H1342 H 0.04162 0.29582 0.45428 0.0
H1343 H 0.07414 0.31277 0.4714 0.0
H1344 H 0.11761 0.36857 0.44345 0.0
H1345 H 0.09437 0.36731 0.41434 0.0
C1346 C 0.05779 0.33727 0.40761 0.0
C1347 C 0.03938 0.3202 0.40587 0.0
C1348 C 0.07079 0.33908 0.42569 0.0
C1349 C 0.03366 0.30572 0.42344 0.0
C1350 C 0.04632 0.30754 0.4415 0.0
C1351 C 0.07847 0.32472 0.45903 0.0
C1352 C 0.09759 0.3406 0.45935 0.0
C1353 C 0.0651 0.32384 0.44235 0.0
C1354 C 0.10294 0.35616 0.44354 0.0
C1355 C 0.08967 0.3554 0.42682 0.0
H1356 H 0.03744 0.29172 0.28421 0.0
H1357 H 0.05605 0.35292 0.29169 0.0
H1358 H 0.08139 0.36114 0.2618 0.0
H1359 H 0.09916 0.35103 0.23469 0.0
H1360 H 0.0807 0.28982 0.22845 0.0
H1361 H 0.0543 0.28159 0.25646 0.0
C1362 C 0.04692 0.30688 0.27928 0.0
C1363 C 0.04482 0.32166 0.2904 0.0
C1364 C 0.06155 0.31153 0.26224 0.0
C1365 C 0.05728 0.3412 0.28354 0.0
C1366 C 0.07184 0.34593 0.26646 0.0
C1367 C 0.08938 0.3359 0.2395 0.0
C1368 C 0.09195 0.32109 0.2294 0.0
C1369 C 0.07427 0.33124 0.25592 0.0
C1370 C 0.07895 0.30152 0.23562 0.0
C1371 C 0.0639 0.29679 0.2518 0.0
H1372 H 0.63986 0.705 0.28156 0.0
H1373 H 0.70081 0.73011 0.29538 0.0
H1374 H 0.70842 0.75561 0.26585 0.0
H1375 H 0.69748 0.77125 0.23682 0.0
H1376 H 0.63615 0.74611 0.22545 0.0
H1377 H 0.62912 0.72006 0.25312 0.0
C1378 C 0.65489 0.71595 0.27817 0.0
C1379 C 0.66973 0.71558 0.29085 0.0
C1380 C 0.65911 0.73061 0.26149 0.0
C1381 C 0.68906 0.72998 0.28597 0.0
C1382 C 0.69341 0.7446 0.2691 0.0
C1383 C 0.68258 0.76011 0.24046 0.0
C1384 C 0.6674 0.76065 0.22874 0.0
C1385 C 0.67852 0.74517 0.2569 0.0
C1386 C 0.64819 0.74594 0.23363 0.0
C1387 C 0.6441 0.73106 0.24968 0.0
H1388 H 0.26773 0.9795 0.27209 0.0
H1389 H 0.29455 0.94611 0.28858 0.0
H1390 H 0.2743 0.92144 0.25859 0.0
H1391 H 0.24683 0.90795 0.23044 0.0
H1392 H 0.22037 0.94176 0.21434 0.0
H1393 H 0.24259 0.96763 0.24163 0.0
C1394 C 0.26929 0.96691 0.26905 0.0
C1395 C 0.28245 0.96453 0.28281 0.0
C1396 C 0.25752 0.95275 0.25203 0.0
C1397 C 0.28449 0.94828 0.2783 0.0
C1398 C 0.27284 0.93412 0.26123 0.0
C1399 C 0.24617 0.92114 0.23258 0.0
C1400 C 0.23177 0.92279 0.22065 0.0
C1401 C 0.259 0.93599 0.24838 0.0
C1402 C 0.23104 0.93994 0.22372 0.0
C1403 C 0.24379 0.95478 0.23923 0.0
H1404 H 0.65229 0.94166 0.29414 0.0
H1405 H 0.7121 0.98381 0.27806 0.0
H1406 H 0.71183 0.96315 0.24547 0.0
H1407 H 0.69574 0.93202 0.22379 0.0
H1408 H 0.63641 0.88902 0.23996 0.0
H1409 H 0.63522 0.91122 0.26985 0.0
C1410 C 0.66516 0.94642 0.28328 0.0
C1411 C 0.68226 0.96413 0.28882 0.0
C1412 C 0.66504 0.93429 0.26462 0.0
C1413 C 0.69881 0.97012 0.2745 0.0
C1414 C 0.6987 0.95833 0.25579 0.0
C1415 C 0.68252 0.92756 0.23379 0.0
C1416 C 0.66629 0.90887 0.22997 0.0
C1417 C 0.68208 0.94019 0.25112 0.0
C1418 C 0.6491 0.90338 0.24262 0.0
C1419 C 0.64847 0.91601 0.2598 0.0
H1420 H 0.04337 0.72104 0.28859 0.0
H1421 H 0.0855 0.70286 0.28871 0.0
H1422 H 0.10404 0.7264 0.25783 0.0
H1423 H 0.10933 0.75307 0.23199 0.0
H1424 H 0.06726 0.77115 0.23034 0.0
H1425 H 0.04793 0.74696 0.26075 0.0
C1426 C 0.05655 0.72216 0.28179 0.0
C1427 C 0.06297 0.71016 0.2912 0.0
C1428 C 0.06731 0.73583 0.26383 0.0
C1429 C 0.0801 0.71184 0.28201 0.0
C1430 C 0.09081 0.72536 0.26428 0.0
C1431 C 0.09576 0.75153 0.23788 0.0
C1432 C 0.08983 0.76399 0.22881 0.0
C1433 C 0.08465 0.73752 0.2552 0.0
C1434 C 0.07236 0.76197 0.23719 0.0
C1435 C 0.06122 0.74805 0.25452 0.0
H1436 H 0.28127 0.32302 0.29297 0.0
H1437 H 0.32223 0.38223 0.27161 0.0
H1438 H 0.30032 0.38014 0.24053 0.0
H1439 H 0.26844 0.36287 0.22174 0.0
H1440 H 0.227 0.30378 0.24221 0.0
H1441 H 0.25013 0.30434 0.27098 0.0
C1442 C 0.28551 0.33531 0.28123 0.0
C1443 C 0.30328 0.35285 0.28494 0.0
C1444 C 0.27267 0.33413 0.26333 0.0
C1445 C 0.30854 0.36864 0.26948 0.0
C1446 C 0.29601 0.3675 0.25165 0.0
C1447 C 0.26455 0.35007 0.2324 0.0
C1448 C 0.24601 0.33341 0.23011 0.0
C1449 C 0.27785 0.35055 0.24886 0.0
C1450 C 0.24122 0.31679 0.24369 0.0
C1451 C 0.25441 0.31715 0.26021 0.0
H1452 H 0.30535 0.37828 0.40574 0.0
H1453 H 0.28468 0.31662 0.39796 0.0
H1454 H 0.25934 0.30919 0.42763 0.0
H1455 H 0.2423 0.3202 0.45477 0.0
H1456 H 0.26279 0.38191 0.4609 0.0
H1457 H 0.28906 0.38923 0.43312 0.0
C1458 C 0.29542 0.36318 0.41055 0.0
C1459 C 0.29696 0.34805 0.39945 0.0
C1460 C 0.2808 0.35899 0.4274 0.0
C1461 C 0.28389 0.3286 0.40611 0.0
C1462 C 0.26934 0.32432 0.42307 0.0
C1463 C 0.25248 0.33524 0.44997 0.0
C1464 C 0.25055 0.35047 0.46006 0.0
C1465 C 0.26751 0.33939 0.43362 0.0
C1466 C 0.26405 0.3699 0.45381 0.0
C1467 C 0.27903 0.37412 0.43774 0.0
H1468 H 0.70499 0.97449 0.41987 0.0
H1469 H 0.64616 0.94145 0.39425 0.0
H1470 H 0.63892 0.91568 0.42297 0.0
H1471 H 0.65004 0.90133 0.45326 0.0
H1472 H 0.70889 0.9347 0.47867 0.0
H1473 H 0.71533 0.96142 0.45209 0.0
C1474 C 0.69052 0.96174 0.42064 0.0
C1475 C 0.67622 0.95991 0.40469 0.0
C1476 C 0.68648 0.9469 0.43706 0.0
C1477 C 0.6575 0.94332 0.40624 0.0
C1478 C 0.65335 0.9285 0.42262 0.0
C1479 C 0.66418 0.91457 0.45326 0.0
C1480 C 0.67903 0.91585 0.46776 0.0
C1481 C 0.66783 0.92996 0.43783 0.0
C1482 C 0.6973 0.93312 0.46737 0.0
C1483 C 0.70099 0.94847 0.45224 0.0
H1484 H 0.06925 0.69209 0.41958 0.0
H1485 H 0.04556 0.72712 0.39706 0.0
H1486 H 0.06461 0.7517 0.42767 0.0
H1487 H 0.09079 0.7649 0.45754 0.0
H1488 H 0.11464 0.72987 0.47924 0.0
H1489 H 0.09273 0.70363 0.45207 0.0
C1490 C 0.06807 0.705 0.42147 0.0
C1491 C 0.05624 0.7079 0.40576 0.0
C1492 C 0.07925 0.71918 0.43877 0.0
C1493 C 0.05464 0.72455 0.4088 0.0
C1494 C 0.0656 0.73868 0.42623 0.0
C1495 C 0.09089 0.75135 0.45668 0.0
C1496 C 0.10448 0.74941 0.47011 0.0
C1497 C 0.07837 0.73639 0.44084 0.0
C1498 C 0.10455 0.73184 0.46871 0.0
C1499 C 0.092 0.71682 0.45326 0.0
H1500 H 0.30026 0.03692 0.73721 0.0
H1501 H 0.36197 0.06123 0.7315 0.0
H1502 H 0.3672 0.08392 0.76451 0.0
H1503 H 0.35428 0.09789 0.79366 0.0
H1504 H 0.29258 0.07388 0.7979 0.0
H1505 H 0.28737 0.0498 0.76701 0.0
C1506 C 0.31487 0.0471 0.74315 0.0
C1507 C 0.33068 0.04746 0.73167 0.0
C1508 C 0.31781 0.06015 0.76195 0.0
C1509 C 0.3495 0.06067 0.73991 0.0
C1510 C 0.35254 0.07369 0.75877 0.0
C1511 C 0.33971 0.08737 0.78781 0.0
C1512 C 0.32386 0.0877 0.7981 0.0
C1513 C 0.33679 0.07372 0.76969 0.0
C1514 C 0.30503 0.07379 0.79057 0.0
C1515 C 0.30202 0.06011 0.77274 0.0
H1516 H 0.95665 0.27608 0.72473 0.0
H1517 H 0.95418 0.32232 0.76247 0.0
H1518 H 0.93733 0.3004 0.79592 0.0
H1519 H 0.92105 0.26748 0.81285 0.0
H1520 H 0.92023 0.22032 0.77268 0.0
H1521 H 0.94103 0.24326 0.74227 0.0
C1522 C 0.95276 0.28143 0.74051 0.0
C1523 C 0.9567 0.30078 0.74122 0.0
C1524 C 0.94238 0.26853 0.75923 0.0
C1525 C 0.95128 0.30746 0.76155 0.0
C1526 C 0.9416 0.29492 0.78063 0.0
C1527 C 0.92528 0.26212 0.79741 0.0
C1528 C 0.91885 0.24204 0.79521 0.0
C1529 C 0.93663 0.27528 0.77937 0.0
C1530 C 0.92505 0.23564 0.77525 0.0
C1531 C 0.93685 0.24876 0.75762 0.0
H1532 H 0.69521 0.62785 0.74907 0.0
H1533 H 0.72578 0.68859 0.72883 0.0
H1534 H 0.75017 0.69601 0.75952 0.0
H1535 H 0.7645 0.68452 0.78958 0.0
H1536 H 0.73383 0.62357 0.80869 0.0
H1537 H 0.70782 0.61701 0.7811 0.0
C1538 C 0.7071 0.64277 0.75145 0.0
C1539 C 0.70873 0.65757 0.7364 0.0
C1540 C 0.72118 0.64689 0.76889 0.0
C1541 C 0.72414 0.67687 0.74007 0.0
C1542 C 0.73817 0.68112 0.75757 0.0
C1543 C 0.75194 0.6699 0.78797 0.0
C1544 C 0.75118 0.65449 0.80094 0.0
C1545 C 0.73708 0.66616 0.77173 0.0
C1546 C 0.73487 0.6356 0.79863 0.0
C1547 C 0.71998 0.63184 0.78287 0.0
H1548 H 0.70679 0.63026 0.61548 0.0
H1549 H 0.72643 0.69149 0.62572 0.0
H1550 H 0.75238 0.70014 0.59659 0.0
H1551 H 0.77032 0.69034 0.56924 0.0
H1552 H 0.75059 0.62903 0.55996 0.0
H1553 H 0.72382 0.62048 0.58747 0.0
C1554 C 0.71664 0.64552 0.61132 0.0
C1555 C 0.71463 0.66017 0.62299 0.0
C1556 C 0.73159 0.65042 0.59467 0.0
C1557 C 0.72757 0.67985 0.61712 0.0
C1558 C 0.74248 0.68484 0.60048 0.0
C1559 C 0.76017 0.67512 0.57328 0.0
C1560 C 0.7625 0.66037 0.56245 0.0
C1561 C 0.74478 0.67025 0.58935 0.0
C1562 C 0.74905 0.64069 0.56769 0.0
C1563 C 0.73377 0.63577 0.58359 0.0
H1564 H 0.35541 0.07167 0.63528 0.0
H1565 H 0.31506 0.0238 0.59028 0.0
H1566 H 0.32014 0.04658 0.55818 0.0
H1567 H 0.33393 0.08019 0.54424 0.0
H1568 H 0.37129 0.12837 0.59125 0.0
H1569 H 0.36991 0.1055 0.62077 0.0
C1570 C 0.3481 0.06627 0.61822 0.0
C1571 C 0.33502 0.04613 0.61499 0.0
C1572 C 0.35045 0.07955 0.60023 0.0
C1573 C 0.32526 0.03927 0.59306 0.0
C1574 C 0.32809 0.05229 0.57477 0.0
C1575 C 0.3417 0.08578 0.56097 0.0
C1576 C 0.35261 0.10612 0.56534 0.0
C1577 C 0.34025 0.0725 0.5784 0.0
C1578 C 0.36297 0.11289 0.58701 0.0
C1579 C 0.36206 0.09978 0.60412 0.0
H1580 H 0.96247 0.29645 0.60124 0.0
H1581 H 0.92289 0.26973 0.66027 0.0
H1582 H 0.89986 0.2434 0.63394 0.0
H1583 H 0.88975 0.22979 0.59376 0.0
H1584 H 0.92781 0.25732 0.53358 0.0
H1585 H 0.95284 0.28132 0.56062 0.0
C1586 C 0.94895 0.2846 0.60825 0.0
C1587 C 0.94425 0.28481 0.63251 0.0
C1588 C 0.93549 0.26983 0.59279 0.0
C1589 C 0.92667 0.26967 0.64158 0.0
C1590 C 0.91352 0.25471 0.62656 0.0
C1591 C 0.90353 0.24105 0.58655 0.0
C1592 C 0.90682 0.242 0.56171 0.0
C1593 C 0.91755 0.25495 0.60205 0.0
C1594 C 0.92493 0.25632 0.55267 0.0
C1595 C 0.93919 0.27009 0.5681 0.0
H1596 H 0.32987 0.29247 0.6109 0.0
H1597 H 0.36601 0.28277 0.65839 0.0
H1598 H 0.36668 0.25982 0.6298 0.0
H1599 H 0.35773 0.24301 0.59137 0.0
H1600 H 0.32388 0.25407 0.54159 0.0
H1601 H 0.32124 0.2756 0.57114 0.0
C1602 C 0.33777 0.2852 0.61492 0.0
C1603 C 0.34795 0.28935 0.63663 0.0
C1604 C 0.33852 0.27228 0.59804 0.0
C1605 C 0.35824 0.27996 0.64167 0.0
C1606 C 0.3586 0.2668 0.62537 0.0
C1607 C 0.35002 0.25035 0.5867 0.0
C1608 C 0.34123 0.24705 0.56412 0.0
C1609 C 0.349 0.26303 0.60343 0.0
C1610 C 0.33073 0.25622 0.55887 0.0
C1611 C 0.3293 0.26863 0.57572 0.0
H1612 H 0.74137 0.0352 0.61737 0.0
H1613 H 0.70173 0.05481 0.63505 0.0
H1614 H 0.7168 0.08018 0.60468 0.0
H1615 H 0.74197 0.0975 0.57396 0.0
H1616 H 0.78224 0.07838 0.55793 0.0
H1617 H 0.7659 0.05193 0.58649 0.0
C1618 C 0.73589 0.04492 0.61458 0.0
C1619 C 0.72045 0.04308 0.62864 0.0
C1620 C 0.74472 0.05958 0.59728 0.0
C1621 C 0.71362 0.05587 0.6246 0.0
C1622 C 0.72224 0.07042 0.60722 0.0
C1623 C 0.74722 0.0876 0.57677 0.0
C1624 C 0.76331 0.08997 0.56368 0.0
C1625 C 0.73795 0.07255 0.59363 0.0
C1626 C 0.76971 0.07677 0.56736 0.0
C1627 C 0.76047 0.06171 0.58388 0.0
H1628 H 0.94903 0.66009 0.63027 0.0
H1629 H 0.99195 0.7175 0.60543 0.0
H1630 H 0.9706 0.71497 0.57326 0.0
H1631 H 0.93861 0.69813 0.55465 0.0
H1632 H 0.89512 0.64098 0.57907 0.0
H1633 H 0.91778 0.64159 0.60859 0.0
C1634 C 0.95384 0.67184 0.61749 0.0
C1635 C 0.972 0.68906 0.62049 0.0
C1636 C 0.94128 0.67045 0.59908 0.0
C1637 C 0.97797 0.70418 0.60378 0.0
C1638 C 0.96575 0.70279 0.58535 0.0
C1639 C 0.93415 0.68576 0.56633 0.0
C1640 C 0.91517 0.66966 0.5649 0.0
C1641 C 0.94718 0.68628 0.58329 0.0
C1642 C 0.90968 0.65355 0.57983 0.0
C1643 C 0.9226 0.65395 0.59679 0.0
H1644 H 0.97315 0.71499 0.7473 0.0
H1645 H 0.94634 0.65393 0.72758 0.0
H1646 H 0.92012 0.64583 0.75602 0.0
H1647 H 0.90385 0.65631 0.7848 0.0
H1648 H 0.93125 0.71727 0.80523 0.0
H1649 H 0.95803 0.72514 0.77794 0.0
C1650 C 0.96163 0.69988 0.74925 0.0
C1651 C 0.96169 0.68514 0.73511 0.0
C1652 C 0.94658 0.6953 0.76562 0.0
C1653 C 0.94671 0.66562 0.73816 0.0
C1654 C 0.93165 0.66096 0.75438 0.0
C1655 C 0.91582 0.67128 0.78361 0.0
C1656 C 0.91536 0.68619 0.79693 0.0
C1657 C 0.93131 0.67571 0.768 0.0
C1658 C 0.93095 0.70554 0.79486 0.0
C1659 C 0.94637 0.71005 0.77936 0.0
H1660 H 0.35836 0.30635 0.76655 0.0
H1661 H 0.30671 0.269 0.72575 0.0
H1662 H 0.29876 0.24183 0.75256 0.0
H1663 H 0.30847 0.22779 0.78493 0.0
H1664 H 0.36007 0.26562 0.82565 0.0
H1665 H 0.36607 0.29338 0.80141 0.0
C1666 C 0.34521 0.29235 0.76368 0.0
C1667 C 0.33328 0.2897 0.74398 0.0
C1668 C 0.34086 0.27675 0.77895 0.0
C1669 C 0.31617 0.2715 0.74076 0.0
C1670 C 0.31168 0.25588 0.75599 0.0
C1671 C 0.32083 0.24217 0.78879 0.0
C1672 C 0.33401 0.24447 0.80682 0.0
C1673 C 0.32421 0.25819 0.77476 0.0
C1674 C 0.34996 0.26327 0.8115 0.0
C1675 C 0.35336 0.27921 0.79773 0.0
H1676 H 0.71694 0.05773 0.73829 0.0
H1677 H 0.73804 0.01874 0.7518 0.0
H1678 H 0.75944 0.04086 0.7829 0.0
H1679 H 0.7739 0.07226 0.80417 0.0
H1680 H 0.75434 0.11227 0.78935 0.0
H1681 H 0.73034 0.0886 0.76128 0.0
C1682 C 0.72601 0.05393 0.74828 0.0
C1683 C 0.72598 0.03666 0.74257 0.0
C1684 C 0.73863 0.06694 0.76586 0.0
C1685 C 0.7379 0.03202 0.75565 0.0
C1686 C 0.75016 0.04467 0.77345 0.0
C1687 C 0.76441 0.07583 0.79477 0.0
C1688 C 0.76607 0.09409 0.79868 0.0
C1689 C 0.75097 0.06236 0.7783 0.0
C1690 C 0.75332 0.09828 0.78679 0.0
C1691 C 0.73968 0.0848 0.7706 0.0
H1692 H 0.04035 0.32332 0.04905 0.0
H1693 H 0.0787 0.38333 0.02872 0.0
H1694 H 0.10487 0.38431 0.05191 0.0
H1695 H 0.11669 0.36802 0.07843 0.0
H1696 H 0.07824 0.3077 0.09738 0.0
H1697 H 0.05224 0.30691 0.07429 0.0
C1698 C 0.05444 0.33663 0.04964 0.0
C1699 C 0.05756 0.35325 0.03725 0.0
C1700 C 0.06938 0.33702 0.06282 0.0
C1701 C 0.07594 0.37032 0.03806 0.0
C1702 C 0.09088 0.3709 0.05138 0.0
C1703 C 0.10258 0.35477 0.07753 0.0
C1704 C 0.09934 0.33795 0.0896 0.0
C1705 C 0.08774 0.35435 0.06394 0.0
C1706 C 0.08109 0.32078 0.0881 0.0
C1707 C 0.06622 0.32033 0.07496 0.0
H1708 H 0.68264 0.70508 0.06809 0.0
H1709 H 0.65481 0.71342 0.00758 0.0
H1710 H 0.65833 0.7429 0.02619 0.0
H1711 H 0.6683 0.7657 0.05992 0.0
H1712 H 0.69343 0.75615 0.12242 0.0
H1713 H 0.69248 0.72818 0.10255 0.0
C1714 C 0.67751 0.71348 0.05899 0.0
C1715 C 0.66848 0.70713 0.03654 0.0
C1716 C 0.67914 0.73024 0.0701 0.0
C1717 C 0.66172 0.71799 0.02496 0.0
C1718 C 0.66374 0.73486 0.03555 0.0
C1719 C 0.67339 0.75742 0.06939 0.0
C1720 C 0.68081 0.76306 0.09272 0.0
C1721 C 0.6722 0.74098 0.05822 0.0
C1722 C 0.68784 0.75238 0.10433 0.0
C1723 C 0.68715 0.73623 0.09306 0.0
H1724 H 0.28808 0.97898 0.04849 0.0
H1725 H 0.31147 0.94113 0.04231 0.0
H1726 H 0.28401 0.9158 0.06476 0.0
H1727 H 0.25318 0.9042 0.08542 0.0
H1728 H 0.22768 0.94045 0.08745 0.0
H1729 H 0.25625 0.96666 0.06789 0.0
C1730 C 0.28719 0.96523 0.05228 0.0
C1731 C 0.30182 0.96195 0.04395 0.0
C1732 C 0.27098 0.95043 0.06446 0.0
C1733 C 0.30039 0.94399 0.04857 0.0
C1734 C 0.28468 0.9295 0.06138 0.0
C1735 C 0.25359 0.91765 0.08129 0.0
C1736 C 0.23808 0.92013 0.08808 0.0
C1737 C 0.26978 0.93247 0.06919 0.0
C1738 C 0.2394 0.93805 0.08298 0.0
C1739 C 0.25573 0.95308 0.07155 0.0
H1740 H 0.36675 0.06072 0.98348 0.0
H1741 H 0.31113 0.0138 0.95926 0.0
H1742 H 0.30558 0.03707 0.93835 0.0
H1743 H 0.31625 0.07079 0.92698 0.0
H1744 H 0.37222 0.11779 0.9496 0.0
H1745 H 0.37791 0.09458 0.97096 0.0
C1746 C 0.35345 0.05561 0.97359 0.0
C1747 C 0.33938 0.03551 0.97304 0.0
C1748 C 0.35037 0.06912 0.96131 0.0
C1749 C 0.32225 0.02915 0.96001 0.0
C1750 C 0.31901 0.04246 0.94805 0.0
C1751 C 0.32964 0.07593 0.93671 0.0
C1752 C 0.34373 0.09597 0.93685 0.0
C1753 C 0.33291 0.06248 0.94864 0.0
C1754 C 0.36116 0.10241 0.94918 0.0
C1755 C 0.3644 0.08915 0.96144 0.0
H1756 H 0.9572 0.30119 0.99466 0.0
H1757 H 1.0002 0.31161 0.9409 0.0
H1758 H 0.97558 0.28456 0.91652 0.0
H1759 H 0.94174 0.2581 0.91052 0.0
H1760 H 0.89938 0.24708 0.96561 0.0
H1761 H 0.92384 0.27443 0.98924 0.0
C1762 C 0.96121 0.29758 0.97759 0.0
C1763 C 0.98047 0.3084 0.96956 0.0
C1764 C 0.94707 0.28196 0.96386 0.0
C1765 C 0.98545 0.30347 0.94747 0.0
C1766 C 0.97138 0.28802 0.93354 0.0
C1767 C 0.93788 0.26154 0.9278 0.0
C1768 C 0.91864 0.25056 0.93612 0.0
C1769 C 0.95214 0.27714 0.94158 0.0
C1770 C 0.91393 0.25546 0.95846 0.0
C1771 C 0.92795 0.27103 0.97212 0.0
H1772 H 0.70417 0.64501 1.00003 0.0
H1773 H 0.68757 0.66655 0.93994 0.0
H1774 H 0.71217 0.66569 0.91494 0.0
H1775 H 0.73938 0.66015 0.91053 0.0
H1776 H 0.75811 0.64153 0.97133 0.0
H1777 H 0.73179 0.63983 0.99572 0.0
C1778 C 0.70588 0.64935 0.98141 0.0
C1779 C 0.69408 0.65577 0.97179 0.0
C1780 C 0.72049 0.6494 0.96732 0.0
C1781 C 0.69657 0.66162 0.94774 0.0
C1782 C 0.71061 0.66111 0.93343 0.0
C1783 C 0.73751 0.65555 0.92906 0.0
C1784 C 0.75042 0.65081 0.93918 0.0
C1785 C 0.72278 0.65522 0.94308 0.0
C1786 C 0.7482 0.64518 0.96327 0.0
C1787 C 0.7332 0.64423 0.97716 0.0
H1788 H 0.97251 0.67385 0.95371 0.0
H1789 H 0.93268 0.62798 1.00078 0.0
H1790 H 0.90548 0.62812 0.98197 0.0
H1791 H 0.89314 0.64199 0.95309 0.0
H1792 H 0.93289 0.6863 0.90411 0.0
H1793 H 0.95994 0.68632 0.92315 0.0
C1794 C 0.95787 0.66384 0.95981 0.0
C1795 C 0.95464 0.65098 0.97869 0.0
C1796 C 0.94227 0.66386 0.94876 0.0
C1797 C 0.93557 0.638 0.98624 0.0
C1798 C 0.92001 0.63811 0.97555 0.0
C1799 C 0.90765 0.65147 0.94625 0.0
C1800 C 0.91081 0.66426 0.92722 0.0
C1801 C 0.92319 0.65106 0.95687 0.0
C1802 C 0.92989 0.67662 0.91905 0.0
C1803 C 0.94544 0.67653 0.92979 0.0
H1804 H 0.32042 0.29809 0.95924 0.0
H1805 H 0.3613 0.29929 0.00972 0.0
H1806 H 0.35889 0.27051 0.99073 0.0
H1807 H 0.34575 0.24532 0.95968 0.0
H1808 H 0.30594 0.24421 0.90768 0.0
H1809 H 0.30706 0.27235 0.92759 0.0
C1810 C 0.32871 0.29196 0.96607 0.0
C1811 C 0.34105 0.30084 0.98579 0.0
C1812 C 0.32742 0.27541 0.95486 0.0
C1813 C 0.35177 0.29281 0.99446 0.0
C1814 C 0.3504 0.27632 0.98366 0.0
C1815 C 0.33744 0.25133 0.95254 0.0
C1816 C 0.3259 0.24278 0.93216 0.0
C1817 C 0.3384 0.2676 0.96378 0.0
C1818 C 0.31485 0.25045 0.92348 0.0
C1819 C 0.31557 0.26661 0.93476 0.0
H1820 H 0.70027 0.06114 0.98249 0.0
H1821 H 0.71525 0.01696 0.97098 0.0
H1822 H 0.74416 0.04029 0.94854 0.0
H1823 H 0.76564 0.07353 0.93363 0.0
H1824 H 0.74801 0.11627 0.94081 0.0
H1825 H 0.71998 0.09333 0.96398 0.0
C1826 C 0.70984 0.05662 0.97499 0.0
C1827 C 0.70579 0.03746 0.97853 0.0
C1828 C 0.72609 0.06992 0.96159 0.0
C1829 C 0.71812 0.03167 0.96844 0.0
C1830 C 0.73466 0.04502 0.9557 0.0
C1831 C 0.75558 0.07786 0.93976 0.0
C1832 C 0.75946 0.097 0.93563 0.0
C1833 C 0.73885 0.06424 0.95227 0.0
C1834 C 0.74608 0.10206 0.94426 0.0
C1835 C 0.72978 0.08881 0.95734 0.0
H1836 H 0.68902 0.97743 0.05438 0.0
H1837 H 0.62784 0.94148 0.04063 0.0
H1838 H 0.62691 0.91425 0.06177 0.0
H1839 H 0.64351 0.90098 0.08491 0.0
H1840 H 0.70532 0.93664 0.09548 0.0
H1841 H 0.70583 0.96366 0.07522 0.0
C1842 C 0.67545 0.96365 0.05604 0.0
C1843 C 0.65849 0.96154 0.04612 0.0
C1844 C 0.67511 0.94801 0.06781 0.0
C1845 C 0.6411 0.94349 0.04813 0.0
C1846 C 0.64057 0.92793 0.06025 0.0
C1847 C 0.65717 0.91453 0.08255 0.0
C1848 C 0.6743 0.91666 0.0922 0.0
C1849 C 0.6575 0.93003 0.07021 0.0
C1850 C 0.69177 0.93456 0.089 0.0
C1851 C 0.69214 0.95006 0.07715 0.0
H1852 H 0.05195 0.69318 0.04529 0.0
H1853 H 0.00667 0.70612 0.05625 0.0
H1854 H 0.0292 0.7362 0.07808 0.0
H1855 H 0.06218 0.7595 0.092 0.0
H1856 H 0.10631 0.7442 0.08486 0.0
H1857 H 0.08389 0.71463 0.06306 0.0
C1858 C 0.04701 0.70254 0.0526 0.0
C1859 C 0.02779 0.69761 0.04904 0.0
C1860 C 0.05989 0.71952 0.06548 0.0
C1861 C 0.02143 0.70966 0.05885 0.0
C1862 C 0.03433 0.72688 0.0712 0.0
C1863 C 0.06692 0.74962 0.08617 0.0
C1864 C 0.08625 0.75458 0.08981 0.0
C1865 C 0.05367 0.73206 0.07441 0.0
C1866 C 0.09187 0.7414 0.08169 0.0
C1867 C 0.07895 0.72424 0.06941 0.0
H1868 H 0.29987 0.35657 0.02508 0.0
H1869 H 0.32216 0.34031 0.08465 0.0
H1870 H 0.29707 0.33902 0.11085 0.0
H1871 H 0.26791 0.34116 0.1165 0.0
H1872 H 0.24374 0.35447 0.05633 0.0
H1873 H 0.27029 0.35826 0.03065 0.0
C1874 C 0.29928 0.35294 0.04385 0.0
C1875 C 0.31283 0.34863 0.053 0.0
C1876 C 0.28439 0.35157 0.05864 0.0
C1877 C 0.31181 0.34364 0.07724 0.0
C1878 C 0.29749 0.3429 0.09222 0.0
C1879 C 0.26861 0.34503 0.0978 0.0
C1880 C 0.25406 0.34764 0.08825 0.0
C1881 C 0.28358 0.34663 0.08307 0.0
C1882 C 0.25485 0.35237 0.06395 0.0
C1883 C 0.27001 0.35456 0.04932 0.0
H1884 H 0.74039 0.70925 0.37654 0.0
H1885 H 0.69794 0.64821 0.387 0.0
H1886 H 0.72132 0.64392 0.40907 0.0
H1887 H 0.75357 0.65731 0.42608 0.0
H1888 H 0.79619 0.71837 0.41737 0.0
H1889 H 0.77308 0.72288 0.39424 0.0
C1890 C 0.73634 0.69503 0.38359 0.0
C1891 C 0.71743 0.6791 0.38007 0.0
C1892 C 0.74987 0.69265 0.39671 0.0
C1893 C 0.71235 0.66077 0.38949 0.0
C1894 C 0.72572 0.65825 0.40213 0.0
C1895 C 0.75785 0.67157 0.41894 0.0
C1896 C 0.77658 0.68744 0.42331 0.0
C1897 C 0.74448 0.67407 0.40591 0.0
C1898 C 0.7818 0.70593 0.41434 0.0
C1899 C 0.76862 0.70849 0.40104 0.0
H1900 H 0.3516 0.04088 0.39803 0.0
H1901 H 0.31633 0.04522 0.3436 0.0
H1902 H 0.31795 0.07298 0.36461 0.0
H1903 H 0.32929 0.09605 0.39816 0.0
H1904 H 0.36293 0.09102 0.45426 0.0
H1905 H 0.36237 0.06385 0.43266 0.0
C1906 C 0.34433 0.04797 0.3908 0.0
C1907 C 0.33388 0.04101 0.36929 0.0
C1908 C 0.34509 0.06387 0.40319 0.0
C1909 C 0.32442 0.05024 0.36017 0.0
C1910 C 0.32536 0.06615 0.37215 0.0
C1911 C 0.33629 0.08888 0.40591 0.0
C1912 C 0.34608 0.09562 0.42787 0.0
C1913 C 0.33557 0.07304 0.39369 0.0
C1914 C 0.35547 0.08637 0.43724 0.0
C1915 C 0.35505 0.07071 0.42498 0.0
H1916 H 0.9558 0.31093 0.3881 0.0
H1917 H 0.97486 0.27069 0.37022 0.0
H1918 H 0.94736 0.24471 0.39196 0.0
H1919 H 0.91801 0.23347 0.41595 0.0
H1920 H 0.89694 0.27274 0.43018 0.0
H1921 H 0.92529 0.29908 0.41042 0.0
C1922 C 0.95394 0.29648 0.38909 0.0
C1923 C 0.96739 0.29274 0.37774 0.0
C1924 C 0.93777 0.28144 0.40102 0.0
C1925 C 0.9647 0.27392 0.37883 0.0
C1926 C 0.94898 0.25906 0.39126 0.0
C1927 C 0.91932 0.24765 0.41444 0.0
C1928 C 0.90519 0.25094 0.42477 0.0
C1929 C 0.93537 0.26263 0.40231 0.0
C1930 C 0.90764 0.2697 0.42295 0.0
C1931 C 0.92383 0.28481 0.41143 0.0
H1932 H 0.03767 0.39256 0.31325 0.0
H1933 H 0.97608 0.35188 0.31291 0.0
H1934 H 0.97085 0.37556 0.29242 0.0
H1935 H 0.98357 0.40745 0.27406 0.0
H1936 H 0.04537 0.44723 0.27029 0.0
H1937 H 0.05061 0.42459 0.29326 0.0
C1938 C 0.02314 0.38901 0.3088 0.0
C1939 C 0.00729 0.37053 0.31463 0.0
C1940 C 0.02023 0.40256 0.29629 0.0
C1941 C 0.98853 0.36599 0.30852 0.0
C1942 C 0.98551 0.37953 0.29681 0.0
C1943 C 0.99825 0.41116 0.27785 0.0
C1944 C 0.01398 0.42919 0.27029 0.0
C1945 C 1.00125 0.39778 0.29039 0.0
C1946 C 0.03285 0.43371 0.27613 0.0
C1947 C 0.03592 0.42065 0.28915 0.0
H1948 H 0.62079 0.632 0.33099 0.0
H1949 H 0.66637 0.64436 0.28033 0.0
H1950 H 0.64324 0.61754 0.25444 0.0
H1951 H 0.61012 0.59047 0.24653 0.0
H1952 H 0.56518 0.57713 0.29878 0.0
H1953 H 0.58799 0.60473 0.32349 0.0
C1954 C 0.62566 0.62888 0.31424 0.0
C1955 C 0.64522 0.64012 0.30754 0.0
C1956 C 0.61239 0.61333 0.29969 0.0
C1957 C 0.65136 0.63585 0.28587 0.0
C1958 C 0.63815 0.62054 0.27108 0.0
C1959 C 0.60533 0.59346 0.26343 0.0
C1960 C 0.58589 0.58172 0.27066 0.0
C1961 C 0.61865 0.60912 0.27789 0.0
C1962 C 0.57993 0.58608 0.29247 0.0
C1963 C 0.59301 0.60178 0.30675 0.0
H1964 H 0.37035 0.97736 0.32554 0.0
H1965 H 0.36596 0.01502 0.27444 0.0
H1966 H 0.39139 0.0154 0.25008 0.0
H1967 H 0.41487 0.00518 0.24317 0.0
H1968 H 0.42112 0.96931 0.29531 0.0
H1969 H 0.39474 0.96774 0.31899 0.0
C1970 C 0.37496 0.9856 0.30905 0.0
C1971 C 0.36626 0.99615 0.30184 0.0
C1972 C 0.38986 0.986 0.2952 0.0
C1973 C 0.37245 0.00685 0.28049 0.0
C1974 C 0.38699 0.00705 0.26649 0.0
C1975 C 0.41071 0.99722 0.25987 0.0
C1976 C 0.42011 0.98743 0.26735 0.0
C1977 C 0.39585 0.99676 0.27372 0.0
C1978 C 0.41404 0.97679 0.28882 0.0
C1979 C 0.39902 0.976 0.30252 0.0
H1980 H 0.63879 0.00369 0.28517 0.0
H1981 H 0.60021 0.96488 0.33943 0.0
H1982 H 0.57267 0.96352 0.31926 0.0
H1983 H 0.55981 0.9743 0.2869 0.0
H1984 H 0.59846 0.0114 0.23129 0.0
H1985 H 0.62569 0.01272 0.25157 0.0
C1986 C 0.62435 0.9949 0.29258 0.0
C1987 C 0.62157 0.98451 0.31386 0.0
C1988 C 0.6086 0.99402 0.28075 0.0
C1989 C 0.60274 0.97302 0.32307 0.0
C1990 C 0.587 0.97227 0.31157 0.0
C1991 C 0.57411 0.98245 0.27896 0.0
C1992 C 0.57695 0.99295 0.25765 0.0
C1993 C 0.58977 0.98281 0.29045 0.0
C1994 C 0.59576 0.00359 0.24795 0.0
C1995 C 0.61139 0.00423 0.25943 0.0
H1996 H 0.98158 0.6211 0.30308 0.0
H1997 H 0.04255 0.64772 0.31742 0.0
H1998 H 0.04367 0.62232 0.29414 0.0
H1999 H 0.02742 0.5924 0.27036 0.0
H2000 H 0.96543 0.56256 0.26088 0.0
H2001 H 0.96472 0.5895 0.28098 0.0
C2002 C 0.99508 0.62132 0.30091 0.0
C2003 C 0.01199 0.63636 0.3117 0.0
C2004 C 0.99546 0.60609 0.28832 0.0
C2005 C 0.02936 0.63638 0.3092 0.0
C2006 C 0.03001 0.62182 0.2959 0.0
C2007 C 0.01362 0.59144 0.27302 0.0
C2008 C 0.99654 0.57528 0.26397 0.0
C2009 C 0.01312 0.60651 0.28559 0.0
C2010 C 0.97896 0.57488 0.26712 0.0
C2011 C 0.97847 0.59024 0.27887 0.0
H2012 H 0.38724 0.35817 0.30469 0.0
H2013 H 0.36528 0.39665 0.31802 0.0
H2014 H 0.39231 0.42263 0.29586 0.0
H2015 H 0.42201 0.43439 0.27271 0.0
H2016 H 0.44689 0.39778 0.26463 0.0
H2017 H 0.41874 0.37109 0.28409 0.0
C2018 C 0.38839 0.37224 0.30262 0.0
C2019 C 0.37415 0.37541 0.31269 0.0
C2020 C 0.40447 0.38746 0.29068 0.0
C2021 C 0.37596 0.39379 0.31031 0.0
C2022 C 0.39145 0.40868 0.29765 0.0
C2023 C 0.42167 0.42081 0.27555 0.0
C2024 C 0.43682 0.41838 0.26684 0.0
C2025 C 0.40584 0.40572 0.28785 0.0
C2026 C 0.43544 0.40021 0.27039 0.0
C2027 C 0.41936 0.38488 0.28182 0.0
H2028 H 0.35806 0.30998 0.37988 0.0
H2029 H 0.29644 0.27453 0.3693 0.0
H2030 H 0.29574 0.24757 0.39093 0.0
H2031 H 0.31266 0.23473 0.41432 0.0
H2032 H 0.37491 0.26967 0.42102 0.0
H2033 H 0.37521 0.29618 0.39983 0.0
C2034 C 0.34447 0.29632 0.38226 0.0
C2035 C 0.3273 0.29429 0.37322 0.0
C2036 C 0.34426 0.28084 0.39425 0.0
C2037 C 0.30986 0.27643 0.3761 0.0
C2038 C 0.30946 0.26105 0.38853 0.0
C2039 C 0.32636 0.24798 0.41088 0.0
C2040 C 0.34368 0.25014 0.41996 0.0
C2041 C 0.32658 0.26314 0.39786 0.0
C2042 C 0.36121 0.26763 0.4152 0.0
C2043 C 0.36147 0.28283 0.40278 0.0
H2044 H 0.68462 0.0323 0.40914 0.0
H2045 H 0.7179 0.04611 0.34372 0.0
H2046 H 0.74345 0.0764 0.36154 0.0
H2047 H 0.75701 0.09836 0.39586 0.0
H2048 H 0.72567 0.08378 0.46286 0.0
H2049 H 0.69859 0.05481 0.44417 0.0
C2050 C 0.69742 0.04207 0.39883 0.0
C2051 C 0.69942 0.03699 0.37521 0.0
C2052 C 0.71241 0.05936 0.40944 0.0
C2053 C 0.7161 0.04965 0.36202 0.0
C2054 C 0.73073 0.067 0.37216 0.0
C2055 C 0.74437 0.08879 0.40653 0.0
C2056 C 0.74354 0.09326 0.4308 0.0
C2057 C 0.72917 0.07186 0.39593 0.0
C2058 C 0.72671 0.08088 0.44406 0.0
C2059 C 0.71125 0.06418 0.43343 0.0
H2060 H 0.96317 0.65244 0.38989 0.0
H2061 H 0.98544 0.71077 0.3633 0.0
H2062 H 0.96015 0.71302 0.38515 0.0
H2063 H 0.93188 0.69847 0.41236 0.0
H2064 H 0.90928 0.63979 0.43781 0.0
H2065 H 0.93448 0.63758 0.41584 0.0
C2066 C 0.96248 0.66564 0.38882 0.0
C2067 C 0.97622 0.68145 0.37506 0.0
C2068 C 0.94785 0.66677 0.40127 0.0
C2069 C 0.97502 0.69838 0.37373 0.0
C2070 C 0.9606 0.6997 0.38628 0.0
C2071 C 0.93256 0.68525 0.41313 0.0
C2072 C 0.91879 0.66933 0.42674 0.0
C2073 C 0.94699 0.68402 0.40022 0.0
C2074 C 0.91965 0.65218 0.42734 0.0
C2075 C 0.93408 0.65094 0.41485 0.0
H2076 H 0.40515 0.04438 0.70321 0.0
H2077 H 0.36277 0.98454 0.72018 0.0
H2078 H 0.38661 0.98185 0.74358 0.0
H2079 H 0.41925 0.9965 0.76009 0.0
H2080 H 0.46165 0.05662 0.74492 0.0
H2081 H 0.43813 0.05926 0.72021 0.0
C2082 C 0.40122 0.03075 0.71193 0.0
C2083 C 0.38222 0.01469 0.7099 0.0
C2084 C 0.41499 0.02937 0.72583 0.0
C2085 C 0.37727 0.99717 0.7215 0.0
C2086 C 0.3909 0.99558 0.7349 0.0
C2087 C 0.42338 0.01013 0.7512 0.0
C2088 C 0.44216 0.0263 0.75423 0.0
C2089 C 0.40976 0.01159 0.7373 0.0
C2090 C 0.44722 0.04398 0.74296 0.0
C2091 C 0.4338 0.04547 0.72877 0.0
H2092 H 0.0199 0.37575 0.73057 0.0
H2093 H 0.97829 0.37167 0.67908 0.0
H2094 H 0.97717 0.39834 0.69918 0.0
H2095 H 0.98752 0.42256 0.73153 0.0
H2096 H 0.02877 0.42694 0.78362 0.0
H2097 H 0.03065 0.40061 0.76309 0.0
C2098 C 0.01069 0.3808 0.72373 0.0
C2099 C 0.99918 0.3717 0.70341 0.0
C2100 C 0.01001 0.39618 0.73549 0.0
C2101 C 0.98726 0.37835 0.69475 0.0
C2102 C 0.98659 0.39362 0.70623 0.0
C2103 C 0.99681 0.41765 0.7385 0.0
C2104 C 0.0079 0.42661 0.75911 0.0
C2105 C 0.99777 0.40254 0.72668 0.0
C2106 C 0.02017 0.42035 0.76767 0.0
C2107 C 0.02119 0.40525 0.75599 0.0
H2108 H 0.63293 0.6472 0.73423 0.0
H2109 H 0.63093 0.60677 0.68044 0.0
H2110 H 0.60174 0.58023 0.69879 0.0
H2111 H 0.57634 0.56856 0.72951 0.0
H2112 H 0.57925 0.60851 0.78473 0.0
H2113 H 0.60818 0.6351 0.76615 0.0
C2114 C 0.62612 0.63257 0.72656 0.0
C2115 C 0.63409 0.62902 0.70593 0.0
C2116 C 0.60935 0.61727 0.73733 0.0
C2117 C 0.62513 0.60994 0.69631 0.0
C2118 C 0.60839 0.59473 0.70677 0.0
C2119 C 0.58339 0.58299 0.73774 0.0
C2120 C 0.57536 0.58639 0.75848 0.0
C2121 C 0.60033 0.59822 0.72724 0.0
C2122 C 0.5847 0.6054 0.7685 0.0
C2123 C 0.60142 0.62065 0.758 0.0
H2124 H 0.65213 0.69311 0.6314 0.0
H2125 H 0.70864 0.73283 0.66073 0.0
H2126 H 0.70914 0.76024 0.64082 0.0
H2127 H 0.69346 0.77295 0.61492 0.0
H2128 H 0.63643 0.73329 0.58706 0.0
H2129 H 0.63614 0.70586 0.60657 0.0
C2130 C 0.66457 0.70776 0.63342 0.0
C2131 C 0.68037 0.7109 0.64745 0.0
C2132 C 0.66464 0.72348 0.6222 0.0
C2133 C 0.69629 0.73 0.65005 0.0
C2134 C 0.6966 0.74569 0.63864 0.0
C2135 C 0.68101 0.75828 0.61311 0.0
C2136 C 0.66499 0.75513 0.59956 0.0
C2137 C 0.68086 0.7426 0.62464 0.0
C2138 C 0.64886 0.73609 0.59755 0.0
C2139 C 0.64872 0.7204 0.60862 0.0
H2140 H 0.32132 0.97327 0.61371 0.0
H2141 H 0.28559 0.96431 0.67595 0.0
H2142 H 0.25903 0.93493 0.65773 0.0
H2143 H 0.24577 0.91199 0.62428 0.0
H2144 H 0.27993 0.92198 0.56018 0.0
H2145 H 0.30737 0.95038 0.57916 0.0
C2146 C 0.30772 0.9648 0.62322 0.0
C2147 C 0.30539 0.9709 0.64609 0.0
C2148 C 0.29225 0.94805 0.61239 0.0
C2149 C 0.28769 0.95995 0.65824 0.0
C2150 C 0.27249 0.94311 0.64788 0.0
C2151 C 0.25908 0.92049 0.61424 0.0
C2152 C 0.26066 0.9148 0.59078 0.0
C2153 C 0.27456 0.93712 0.62493 0.0
C2154 C 0.27831 0.92579 0.5784 0.0
C2155 C 0.294 0.94216 0.58917 0.0
H2156 H 0.04389 0.35185 0.62766 0.0
H2157 H 0.02656 0.29606 0.65916 0.0
H2158 H 0.05305 0.29533 0.63832 0.0
H2159 H 0.0813 0.31068 0.61116 0.0
H2160 H 0.09933 0.36712 0.58122 0.0
H2161 H 0.07249 0.36753 0.60149 0.0
C2162 C 0.04588 0.3395 0.62991 0.0
C2163 C 0.03321 0.32398 0.64483 0.0
C2164 C 0.06131 0.33934 0.6182 0.0
C2165 C 0.03611 0.30819 0.64778 0.0
C2166 C 0.05124 0.30776 0.63585 0.0
C2167 C 0.07926 0.32301 0.60904 0.0
C2168 C 0.09223 0.33884 0.59469 0.0
C2169 C 0.06394 0.32325 0.62101 0.0
C2170 C 0.08961 0.35485 0.59231 0.0
C2171 C 0.07423 0.35505 0.60382 0.0
H2172 H 0.30562 0.34824 0.63299 0.0
H2173 H 0.26687 0.2881 0.65247 0.0
H2174 H 0.24058 0.28786 0.63058 0.0
H2175 H 0.22835 0.30506 0.60667 0.0
H2176 H 0.26687 0.36562 0.58884 0.0
H2177 H 0.29342 0.36543 0.60941 0.0
C2178 C 0.29146 0.33503 0.63231 0.0
C2179 C 0.28824 0.31818 0.64426 0.0
C2180 C 0.27631 0.33513 0.62011 0.0
C2181 C 0.26974 0.30126 0.64342 0.0
C2182 C 0.25469 0.30112 0.63092 0.0
C2183 C 0.2426 0.31817 0.60719 0.0
C2184 C 0.24563 0.33534 0.59626 0.0
C2185 C 0.25777 0.31801 0.61931 0.0
C2186 C 0.26411 0.35228 0.59732 0.0
C2187 C 0.27932 0.35215 0.60898 0.0
H2188 H 0.69141 0.96359 0.66741 0.0
H2189 H 0.64856 0.96821 0.62705 0.0
H2190 H 0.64451 0.94178 0.6002 0.0
H2191 H 0.65325 0.91733 0.58831 0.0
H2192 H 0.69614 0.91308 0.62908 0.0
H2193 H 0.70014 0.9395 0.65563 0.0
C2194 C 0.68118 0.95884 0.65273 0.0
C2195 C 0.67028 0.96781 0.64923 0.0
C2196 C 0.67896 0.94373 0.63744 0.0
C2197 C 0.6571 0.9615 0.63013 0.0
C2198 C 0.65478 0.9464 0.61479 0.0
C2199 C 0.66338 0.92216 0.60309 0.0
C2200 C 0.67443 0.91334 0.6067 0.0
C2201 C 0.66562 0.93739 0.61831 0.0
C2202 C 0.68766 0.91983 0.62576 0.0
C2203 C 0.68989 0.93485 0.64101 0.0
H2204 H 0.04286 0.69562 0.62564 0.0
H2205 H 0.04693 0.73681 0.67969 0.0
H2206 H 0.07587 0.76291 0.66033 0.0
H2207 H 0.1002 0.77399 0.62839 0.0
H2208 H 0.09495 0.73337 0.57267 0.0
H2209 H 0.06665 0.70709 0.59266 0.0
C2210 C 0.05011 0.71031 0.63317 0.0
C2211 C 0.0428 0.71426 0.65412 0.0
C2212 C 0.06664 0.72535 0.62176 0.0
C2213 C 0.05224 0.73339 0.66357 0.0
C2214 C 0.06883 0.74833 0.65253 0.0
C2215 C 0.09277 0.75947 0.62037 0.0
C2216 C 0.09991 0.75579 0.59902 0.0
C2217 C 0.07615 0.74448 0.63162 0.0
C2218 C 0.09016 0.73669 0.5893 0.0
C2219 C 0.0738 0.72162 0.60062 0.0
H2220 H 0.98141 0.61206 0.69029 0.0
H2221 H 0.00904 0.65389 0.74796 0.0
H2222 H 0.01035 0.62931 0.77184 0.0
H2223 H 0.00449 0.59632 0.77628 0.0
H2224 H 0.97886 0.55459 0.71809 0.0
H2225 H 0.97562 0.57849 0.69486 0.0
C2226 C 0.98757 0.61569 0.70814 0.0
C2227 C 0.99515 0.63481 0.71727 0.0
C2228 C 0.98866 0.60148 0.72176 0.0
C2229 C 1.00322 0.63934 0.74039 0.0
C2230 C 0.00397 0.62527 0.75412 0.0
C2231 C 0.9984 0.59245 0.7584 0.0
C2232 C 0.99204 0.57362 0.74903 0.0
C2233 C 0.99696 0.60638 0.74491 0.0
C2234 C 0.98371 0.56885 0.726 0.0
C2235 C 0.98196 0.58259 0.71258 0.0
H2236 H 0.38241 0.35926 0.71699 0.0
H2237 H 0.34028 0.37716 0.72069 0.0
H2238 H 0.3637 0.40739 0.74168 0.0
H2239 H 0.39671 0.42929 0.75685 0.0
H2240 H 0.43732 0.4091 0.75668 0.0
H2241 H 0.41399 0.37939 0.73581 0.0
C2242 C 0.37829 0.3697 0.7225 0.0
C2243 C 0.35974 0.36611 0.71714 0.0
C2244 C 0.39165 0.38676 0.73485 0.0
C2245 C 0.3545 0.37963 0.7247 0.0
C2246 C 0.36791 0.39694 0.73656 0.0
C2247 C 0.40045 0.41832 0.75273 0.0
C2248 C 0.4191 0.42188 0.75807 0.0
C2249 C 0.38663 0.40075 0.7415 0.0
C2250 C 0.42347 0.40733 0.75216 0.0
C2251 C 0.41001 0.39012 0.74044 0.0
H2252 H 0.64811 0.03946 0.71353 0.0
H2253 H 0.6313 0.98192 0.73887 0.0
H2254 H 0.60451 0.98049 0.76129 0.0
H2255 H 0.58557 0.99534 0.7735 0.0
H2256 H 0.60249 0.05308 0.74913 0.0
H2257 H 0.62954 0.05474 0.72667 0.0
C2258 C 0.63859 0.02664 0.72399 0.0
C2259 C 0.64168 0.01081 0.72444 0.0
C2260 C 0.62322 0.02594 0.73702 0.0
C2261 C 0.62928 0.99433 0.73819 0.0
C2262 C 0.61391 0.99346 0.75101 0.0
C2263 C 0.59514 0.00824 0.76316 0.0
C2264 C 0.59201 0.02402 0.76285 0.0
C2265 C 0.61069 0.00913 0.75048 0.0
C2266 C 0.60469 0.04079 0.74972 0.0
C2267 C 0.6201 0.04171 0.73683 0.0
loop_
_geom_bond_atom_site_label_1
_geom_bond_atom_site_label_2
_geom_bond_distance
_geom_bond_site_symmetry_2
_ccdc_geom_bond_type
Co0 O1 2.216 . S
Co0 O2 2.091 . S
Co0 O4 2.004 1_554 S
Co0 O10 2.021 . S
Co0 O12 2.137 1_454 S
Co0 O13 2.244 1_455 S
O1 Co0 2.216 . S
O1 C8 1.247 . S
O2 Co0 2.091 . S
O2 C8 1.261 . S
C3 O12 1.247 . S
C3 O13 1.272 1_556 S
O4 Co0 2.004 1_556 S
O4 C9 1.259 . S
Co5 O6 2.061 1_554 S
Co5 O11 2.052 . S
Co5 O13 2.135 . S
O6 Co5 2.061 1_556 S
O6 C9 1.235 1_655 S
C7 O10 1.238 1_655 S
C7 O11 1.241 . S
C8 O1 1.247 . S
C8 O2 1.261 . S
C9 O4 1.259 . S
C9 O6 1.235 1_455 S
O10 Co0 2.021 . S
O10 C7 1.238 1_455 S
O11 Co5 2.052 . S
O11 C7 1.241 . S
O12 Co0 2.137 1_656 S
O12 C3 1.247 . S
O13 Co0 2.244 1_655 S
O13 C3 1.272 1_554 S
O13 Co5 2.135 . S
Co14 O15 2.216 1_554 S
Co14 O16 2.091 . S
Co14 O18 2.004 . S
Co14 O24 2.021 1_554 S
Co14 O26 2.137 . S
Co14 O27 2.244 . S
O15 Co14 2.216 1_556 S
O15 C22 1.247 . S
O16 Co14 2.091 . S
O16 C22 1.261 1_554 S
C17 O26 1.247 . S
C17 O27 1.272 . S
O18 Co14 2.004 . S
O18 C23 1.259 . S
Co19 O20 2.061 . S
Co19 O25 2.052 1_554 S
Co19 O27 2.135 . S
O20 Co19 2.061 . S
O20 C23 1.235 . S
C21 O24 1.238 . S
C21 O25 1.241 . S
C22 O15 1.247 . S
C22 O16 1.261 1_556 S
C23 O18 1.259 . S
C23 O20 1.235 . S
O24 Co14 2.021 1_556 S
O24 C21 1.238 . S
O25 Co19 2.052 1_556 S
O25 C21 1.241 . S
O26 Co14 2.137 . S
O26 C17 1.247 . S
O27 Co14 2.244 . S
O27 C17 1.272 . S
O27 Co19 2.135 . S
Co28 O29 2.216 1_554 S
Co28 O30 2.091 . S
Co28 O32 2.004 . S
Co28 O38 2.021 1_554 S
Co28 O40 2.137 1_545 S
Co28 O41 2.244 1_545 S
O29 Co28 2.216 1_556 S
O29 C36 1.247 . S
O30 Co28 2.091 . S
O30 C36 1.261 1_554 S
C31 O40 1.247 . S
C31 O41 1.272 . S
O32 Co28 2.004 . S
O32 C37 1.259 . S
Co33 O34 2.061 . S
Co33 O39 2.052 1_554 S
Co33 O41 2.135 . S
O34 Co33 2.061 . S
O34 C37 1.235 1_565 S
C35 O38 1.238 1_565 S
C35 O39 1.241 . S
C36 O29 1.247 . S
C36 O30 1.261 1_556 S
C37 O32 1.259 . S
C37 O34 1.235 1_545 S
O38 Co28 2.021 1_556 S
O38 C35 1.238 1_545 S
O39 Co33 2.052 1_556 S
O39 C35 1.241 . S
O40 Co28 2.137 1_565 S
O40 C31 1.247 . S
O41 Co28 2.244 1_565 S
O41 C31 1.272 . S
O41 Co33 2.135 . S
Co42 O43 2.216 1_554 S
Co42 O44 2.091 . S
Co42 O46 2.004 . S
Co42 O52 2.021 1_554 S
Co42 O54 2.137 1_655 S
Co42 O55 2.244 1_655 S
O43 Co42 2.216 1_556 S
O43 C50 1.247 . S
O44 Co42 2.091 . S
O44 C50 1.261 1_554 S
C45 O54 1.247 . S
C45 O55 1.272 . S
O46 Co42 2.004 . S
O46 C51 1.255 1_655 S
Co47 O48 2.061 . S
Co47 O53 2.052 1_554 S
Co47 O55 2.135 . S
O48 Co47 2.061 . S
O48 C51 1.239 . S
C49 O52 1.238 1_455 S
C49 O53 1.241 . S
C50 O43 1.247 . S
C50 O44 1.261 1_556 S
C51 O46 1.255 1_455 S
C51 O48 1.239 . S
O52 Co42 2.021 1_556 S
O52 C49 1.238 1_655 S
O53 Co47 2.052 1_556 S
O53 C49 1.241 . S
O54 Co42 2.137 1_455 S
O54 C45 1.247 . S
O55 Co42 2.244 1_455 S
O55 C45 1.272 . S
O55 Co47 2.135 . S
Co56 O57 2.216 . S
Co56 O58 2.091 . S
Co56 O60 2.004 1_554 S
Co56 O66 2.021 . S
Co56 O68 2.137 1_554 S
Co56 O69 2.241 1_554 S
O57 Co56 2.216 . S
O57 C64 1.247 . S
O58 Co56 2.091 . S
O58 C64 1.261 . S
C59 O68 1.247 . S
C59 O69 1.280 . S
O60 Co56 2.004 1_556 S
O60 C65 1.259 . S
Co61 O62 2.061 . S
Co61 O67 2.052 1_556 S
Co61 O69 2.135 . S
O62 Co61 2.061 . S
O62 C65 1.235 . S
C63 O66 1.238 . S
C63 O67 1.241 . S
C64 O57 1.247 . S
C64 O58 1.261 . S
C65 O60 1.259 . S
C65 O62 1.235 . S
O66 Co56 2.021 . S
O66 C63 1.238 . S
O67 Co61 2.052 1_554 S
O67 C63 1.241 . S
O68 Co56 2.137 1_556 S
O68 C59 1.247 . S
O69 Co56 2.241 1_556 S
O69 C59 1.280 . S
O69 Co61 2.135 . S
Co70 O71 2.216 . S
Co70 O72 2.091 . S
Co70 O74 2.004 1_554 S
Co70 O80 2.021 . S
Co70 O82 2.137 1_564 S
Co70 O83 2.244 1_565 S
O71 Co70 2.216 . S
O71 C78 1.247 . S
O72 Co70 2.091 . S
O72 C78 1.261 . S
C73 O82 1.247 . S
C73 O83 1.272 1_556 S
O74 Co70 2.004 1_556 S
O74 C79 1.255 1_565 S
Co75 O76 2.061 1_554 S
Co75 O81 2.052 . S
Co75 O83 2.135 . S
O76 Co75 2.061 1_556 S
O76 C79 1.239 . S
C77 O80 1.238 1_545 S
C77 O81 1.241 . S
C78 O71 1.247 . S
C78 O72 1.261 . S
C79 O74 1.255 1_545 S
C79 O76 1.239 . S
O80 Co70 2.021 . S
O80 C77 1.238 1_565 S
O81 Co75 2.052 . S
O81 C77 1.241 . S
O82 Co70 2.137 1_546 S
O82 C73 1.247 . S
O83 Co70 2.244 1_545 S
O83 C73 1.272 1_554 S
O83 Co75 2.135 . S
Co84 O85 2.216 . S
Co84 O86 2.091 . S
Co84 O88 2.004 . S
Co84 O94 2.021 . S
Co84 O96 2.137 . S
Co84 O97 2.244 . S
O85 Co84 2.216 . S
O85 C92 1.247 . S
O86 Co84 2.091 . S
O86 C92 1.261 . S
C87 O96 1.247 . S
C87 O97 1.272 . S
O88 Co84 2.004 . S
O88 C93 1.259 . S
Co89 O90 2.061 . S
Co89 O95 2.052 . S
Co89 O97 2.135 . S
O90 Co89 2.061 . S
O90 C93 1.235 . S
C91 O94 1.238 . S
C91 O95 1.241 . S
C92 O85 1.247 . S
C92 O86 1.261 . S
C93 O88 1.259 . S
C93 O90 1.235 . S
O94 Co84 2.021 . S
O94 C91 1.238 . S
O95 Co89 2.052 . S
O95 C91 1.241 . S
O96 Co84 2.137 . S
O96 C87 1.247 . S
O97 Co84 2.244 . S
O97 C87 1.272 . S
O97 Co89 2.135 . S
Co98 O99 2.216 1_565 S
Co98 O100 2.091 . S
Co98 O102 2.004 . S
Co98 O108 2.021 . S
Co98 O110 2.137 1_565 S
Co98 O111 2.244 1_565 S
O99 Co98 2.216 1_545 S
O99 C106 1.247 1_545 S
O100 Co98 2.091 . S
O100 C106 1.261 . S
C101 O110 1.247 . S
C101 O111 1.272 . S
O102 Co98 2.004 . S
O102 C107 1.259 . S
Co103 O104 2.061 . S
Co103 O109 2.052 . S
Co103 O111 2.135 1_565 S
O104 Co103 2.061 . S
O104 C107 1.235 . S
C105 O108 1.238 . S
C105 O109 1.241 . S
C106 O99 1.247 1_565 S
C106 O100 1.261 . S
C107 O102 1.259 . S
C107 O104 1.235 . S
O108 Co98 2.021 . S
O108 C105 1.238 . S
O109 Co103 2.052 . S
O109 C105 1.241 . S
O110 Co98 2.137 1_545 S
O110 C101 1.247 . S
O111 Co98 2.244 1_545 S
O111 C101 1.272 . S
O111 Co103 2.135 1_545 S
Co112 O113 2.216 . S
Co112 O114 2.091 . S
Co112 O116 2.004 . S
Co112 O122 2.021 . S
Co112 O124 2.137 1_455 S
Co112 O125 2.240 1_455 S
O113 Co112 2.216 . S
O113 C120 1.247 . S
O114 Co112 2.091 . S
O114 C120 1.261 . S
C115 O124 1.247 . S
C115 O125 1.297 . S
O116 Co112 2.004 . S
O116 C121 1.259 . S
Co117 O118 2.061 . S
Co117 O123 2.052 . S
Co117 O125 2.105 1_455 S
O118 Co117 2.061 . S
O118 C121 1.235 . S
C119 O122 1.238 . S
C119 O123 1.241 . S
C120 O113 1.247 . S
C120 O114 1.261 . S
C121 O116 1.259 . S
C121 O118 1.235 . S
O122 Co112 2.021 . S
O122 C119 1.238 . S
O123 Co117 2.052 . S
O123 C119 1.241 . S
O124 Co112 2.137 1_655 S
O124 C115 1.247 . S
O125 Co112 2.240 1_655 S
O125 C115 1.297 . S
O125 Co117 2.105 1_655 S
Co126 O127 2.186 1_565 S
Co126 O128 2.091 . S
Co126 O130 2.004 . S
Co126 O136 2.021 . S
Co126 O138 2.137 1_565 S
Co126 O139 2.244 1_565 S
O127 Co126 2.186 1_545 S
O127 C134 1.247 1_545 S
O128 Co126 2.091 . S
O128 C134 1.261 . S
C129 O138 1.247 . S
C129 O139 1.272 . S
O130 Co126 2.004 . S
O130 C135 1.259 . S
Co131 O132 2.061 . S
Co131 O137 2.052 . S
Co131 O139 2.135 1_565 S
O132 Co131 2.061 . S
O132 C135 1.235 . S
C133 O136 1.238 . S
C133 O137 1.241 . S
C134 O127 1.247 1_565 S
C134 O128 1.261 . S
C135 O130 1.259 . S
C135 O132 1.235 . S
O136 Co126 2.021 . S
O136 C133 1.238 . S
O137 Co131 2.052 . S
O137 C133 1.241 . S
O138 Co126 2.137 1_545 S
O138 C129 1.247 . S
O139 Co126 2.244 1_545 S
O139 C129 1.272 . S
O139 Co131 2.135 1_545 S
Co140 O141 2.216 1_455 S
Co140 O142 2.091 1_455 S
Co140 O144 2.004 . S
Co140 O150 2.021 . S
Co140 O152 2.137 1_455 S
Co140 O153 2.244 . S
O141 Co140 2.216 1_655 S
O141 C148 1.247 . S
O142 Co140 2.091 1_655 S
O142 C148 1.261 . S
C143 O152 1.247 1_455 S
C143 O153 1.272 . S
O144 Co140 2.004 . S
O144 C149 1.259 . S
Co145 O146 2.061 . S
Co145 O151 2.052 . S
Co145 O153 2.135 . S
O146 Co145 2.061 . S
O146 C149 1.235 . S
C147 O150 1.238 . S
C147 O151 1.241 . S
C148 O141 1.247 . S
C148 O142 1.261 . S
C149 O144 1.259 . S
C149 O146 1.235 . S
O150 Co140 2.021 . S
O150 C147 1.238 . S
O151 Co145 2.052 . S
O151 C147 1.241 . S
O152 Co140 2.137 1_655 S
O152 C143 1.247 1_655 S
O153 Co140 2.244 . S
O153 C143 1.272 . S
O153 Co145 2.135 . S
Co154 O155 2.216 . S
Co154 O156 2.091 . S
Co154 O158 2.004 . S
Co154 O164 2.021 . S
Co154 O166 2.137 . S
Co154 O167 2.244 . S
O155 Co154 2.216 . S
O155 C162 1.247 . S
O156 Co154 2.091 . S
O156 C162 1.261 . S
C157 O166 1.247 . S
C157 O167 1.272 . S
O158 Co154 2.004 . S
O158 C163 1.259 . S
Co159 O160 2.061 . S
Co159 O165 2.052 . S
Co159 O167 2.135 . S
O160 Co159 2.061 . S
O160 C163 1.235 . S
C161 O164 1.238 . S
C161 O165 1.241 . S
C162 O155 1.247 . S
C162 O156 1.261 . S
C163 O158 1.259 . S
C163 O160 1.235 . S
O164 Co154 2.021 . S
O164 C161 1.238 . S
O165 Co159 2.052 . S
O165 C161 1.241 . S
O166 Co154 2.137 . S
O166 C157 1.247 . S
O167 Co154 2.244 . S
O167 C157 1.272 . S
O167 Co159 2.135 . S
Co168 O169 2.216 . S
Co168 O170 2.091 . S
Co168 O172 2.004 . S
Co168 O178 2.021 . S
Co168 O180 2.137 1_545 S
Co168 O181 2.244 1_545 S
O169 Co168 2.216 . S
O169 C176 1.247 . S
O170 Co168 2.091 . S
O170 C176 1.261 . S
C171 O180 1.247 . S
C171 O181 1.272 . S
O172 Co168 2.004 . S
O172 C177 1.259 . S
Co173 O174 2.061 . S
Co173 O179 2.052 . S
Co173 O181 2.135 1_545 S
O174 Co173 2.061 . S
O174 C177 1.235 . S
C175 O178 1.238 . S
C175 O179 1.241 . S
C176 O169 1.247 . S
C176 O170 1.261 . S
C177 O172 1.259 . S
C177 O174 1.235 . S
O178 Co168 2.021 . S
O178 C175 1.238 . S
O179 Co173 2.052 . S
O179 C175 1.241 . S
O180 Co168 2.137 1_565 S
O180 C171 1.247 . S
O181 Co168 2.244 1_565 S
O181 C171 1.272 . S
O181 Co173 2.135 1_565 S
Co182 O183 2.216 1_655 S
Co182 O184 2.091 1_655 S
Co182 O186 2.004 . S
Co182 O192 2.021 . S
Co182 O194 2.137 1_655 S
Co182 O195 2.244 . S
O183 Co182 2.216 1_455 S
O183 C190 1.247 . S
O184 Co182 2.091 1_455 S
O184 C190 1.261 . S
C185 O194 1.247 1_655 S
C185 O195 1.272 . S
O186 Co182 2.004 . S
O186 C191 1.259 . S
Co187 O188 2.061 . S
Co187 O193 2.052 . S
Co187 O195 2.135 . S
O188 Co187 2.061 . S
O188 C191 1.235 . S
C189 O192 1.238 . S
C189 O193 1.241 . S
C190 O183 1.247 . S
C190 O184 1.261 . S
C191 O186 1.259 . S
C191 O188 1.235 . S
O192 Co182 2.021 . S
O192 C189 1.238 . S
O193 Co187 2.052 . S
O193 C189 1.241 . S
O194 Co182 2.137 1_455 S
O194 C185 1.247 1_455 S
O195 Co182 2.244 . S
O195 C185 1.272 . S
O195 Co187 2.135 . S
Co196 O197 2.216 . S
Co196 O198 2.091 . S
Co196 O200 2.004 . S
Co196 O206 2.021 . S
Co196 O208 2.137 . S
Co196 O209 2.244 . S
O197 Co196 2.216 . S
O197 C204 1.247 . S
O198 Co196 2.091 . S
O198 C204 1.261 . S
C199 O208 1.247 . S
C199 O209 1.272 . S
O200 Co196 2.004 . S
O200 C205 1.259 . S
Co201 O202 2.061 . S
Co201 O207 2.052 . S
Co201 O209 2.135 . S
O202 Co201 2.061 . S
O202 C205 1.235 . S
C203 O206 1.238 . S
C203 O207 1.241 . S
C204 O197 1.247 . S
C204 O198 1.261 . S
C205 O200 1.259 . S
C205 O202 1.235 . S
O206 Co196 2.021 . S
O206 C203 1.238 . S
O207 Co201 2.052 . S
O207 C203 1.241 . S
O208 Co196 2.137 . S
O208 C199 1.247 . S
O209 Co196 2.244 . S
O209 C199 1.272 . S
O209 Co201 2.135 . S
Co210 O211 2.216 . S
Co210 O212 2.091 . S
Co210 O214 2.004 . S
Co210 O220 2.021 . S
Co210 O222 2.137 . S
Co210 O223 2.244 . S
O211 Co210 2.216 . S
O211 C218 1.247 . S
O212 Co210 2.091 . S
O212 C218 1.261 . S
C213 O222 1.247 . S
C213 O223 1.272 . S
O214 Co210 2.004 . S
O214 C219 1.259 . S
Co215 O216 2.061 . S
Co215 O221 2.052 . S
Co215 O223 2.135 . S
O216 Co215 2.061 . S
O216 C219 1.235 . S
C217 O220 1.238 . S
C217 O221 1.241 . S
C218 O211 1.247 . S
C218 O212 1.261 . S
C219 O214 1.259 . S
C219 O216 1.235 . S
O220 Co210 2.021 . S
O220 C217 1.238 . S
O221 Co215 2.052 . S
O221 C217 1.241 . S
O222 Co210 2.137 . S
O222 C213 1.247 . S
O223 Co210 2.244 . S
O223 C213 1.272 . S
O223 Co215 2.135 . S
Co224 O225 2.216 . S
Co224 O226 2.091 . S
Co224 O228 2.004 . S
Co224 O234 2.021 . S
Co224 O236 2.137 1_545 S
Co224 O237 2.244 1_545 S
O225 Co224 2.216 . S
O225 C232 1.247 . S
O226 Co224 2.091 . S
O226 C232 1.261 . S
C227 O236 1.247 . S
C227 O237 1.272 . S
O228 Co224 2.004 . S
O228 C233 1.259 . S
Co229 O230 2.061 . S
Co229 O235 2.052 . S
Co229 O237 2.135 1_545 S
O230 Co229 2.061 . S
O230 C233 1.235 . S
C231 O234 1.238 . S
C231 O235 1.241 . S
C232 O225 1.247 . S
C232 O226 1.261 . S
C233 O228 1.259 . S
C233 O230 1.235 . S
O234 Co224 2.021 . S
O234 C231 1.238 . S
O235 Co229 2.052 . S
O235 C231 1.241 . S
O236 Co224 2.137 1_565 S
O236 C227 1.247 . S
O237 Co224 2.244 1_565 S
O237 C227 1.272 . S
O237 Co229 2.135 1_565 S
Co238 O239 2.216 . S
Co238 O240 2.091 . S
Co238 O242 2.004 . S
Co238 O248 2.021 . S
Co238 O250 2.137 1_655 S
Co238 O251 2.244 1_655 S
O239 Co238 2.216 . S
O239 C246 1.247 . S
O240 Co238 2.091 . S
O240 C246 1.261 . S
C241 O250 1.247 . S
C241 O251 1.272 . S
O242 Co238 2.004 . S
O242 C247 1.259 . S
Co243 O244 2.061 . S
Co243 O249 2.052 . S
Co243 O251 2.135 1_655 S
O244 Co243 2.061 . S
O244 C247 1.235 . S
C245 O248 1.238 . S
C245 O249 1.241 . S
C246 O239 1.247 . S
C246 O240 1.261 . S
C247 O242 1.259 . S
C247 O244 1.235 . S
O248 Co238 2.021 . S
O248 C245 1.238 . S
O249 Co243 2.052 . S
O249 C245 1.241 . S
O250 Co238 2.137 1_455 S
O250 C241 1.247 . S
O251 Co238 2.244 1_455 S
O251 C241 1.272 . S
O251 Co243 2.135 1_455 S
H252 C271 0.949 . S
H253 C272 0.950 . S
H254 C274 0.950 . S
H255 C275 0.950 . S
H256 C277 0.950 . S
H257 C280 0.950 . S
H258 C281 0.950 . S
H259 C283 0.951 . S
H260 C284 0.949 . S
H261 C286 0.949 . S
H262 C287 0.950 . S
H263 C289 0.950 . S
H264 C290 0.950 . S
H265 C292 0.950 . S
H266 C295 0.950 . S
H267 C296 0.950 . S
H268 C298 0.951 . S
H269 C299 0.949 . S
C270 C271 1.376 . S
C270 C275 1.386 . S
C270 C276 1.483 . S
C271 H252 0.949 . S
C271 C270 1.376 . S
C271 C272 1.397 . S
C272 H253 0.950 . S
C272 C271 1.397 . S
C272 C273 1.391 . S
C273 C272 1.391 . S
C273 C274 1.405 . S
C274 H254 0.950 . S
C274 C273 1.405 . S
C274 C275 1.367 . S
C275 H255 0.950 . S
C275 C270 1.386 . S
C275 C274 1.367 . S
C276 C270 1.483 . S
C276 C277 1.382 . S
C276 C278 1.403 . S
C277 H256 0.950 . S
C277 C276 1.382 . S
C277 C293 1.411 . S
C278 C276 1.403 . S
C278 C279 1.489 . S
C278 C292 1.411 . S
C279 C278 1.489 . S
C279 C280 1.383 . S
C279 C284 1.382 . S
C280 H257 0.950 . S
C280 C279 1.383 . S
C280 C281 1.395 . S
C281 H258 0.950 . S
C281 C280 1.395 . S
C281 C282 1.288 . S
C282 C281 1.288 . S
C282 C283 1.392 . S
C283 H259 0.951 . S
C283 C282 1.392 . S
C283 C284 1.392 . S
C284 H260 0.949 . S
C284 C279 1.382 . S
C284 C283 1.392 . S
C285 C286 1.376 . S
C285 C290 1.386 . S
C285 C291 1.483 . S
C286 H261 0.949 . S
C286 C285 1.376 . S
C286 C287 1.397 . S
C287 H262 0.950 . S
C287 C286 1.397 . S
C287 C288 1.391 . S
C288 C287 1.391 . S
C288 C289 1.405 . S
C289 H263 0.950 . S
C289 C288 1.405 . S
C289 C290 1.367 . S
C290 H264 0.950 . S
C290 C285 1.386 . S
C290 C289 1.367 . S
C291 C285 1.483 . S
C291 C292 1.382 . S
C291 C293 1.403 . S
C292 H265 0.950 . S
C292 C278 1.411 . S
C292 C291 1.382 . S
C293 C277 1.411 . S
C293 C291 1.403 . S
C293 C294 1.489 . S
C294 C293 1.489 . S
C294 C295 1.383 . S
C294 C299 1.382 . S
C295 H266 0.950 . S
C295 C294 1.383 . S
C295 C296 1.395 . S
C296 H267 0.950 . S
C296 C295 1.395 . S
C296 C297 1.288 . S
C297 C296 1.288 . S
C297 C298 1.392 . S
C298 H268 0.951 . S
C298 C297 1.392 . S
C298 C299 1.392 . S
C299 H269 0.949 . S
C299 C294 1.382 . S
C299 C298 1.392 . S
H300 C319 0.949 . S
H301 C320 0.950 . S
H302 C322 0.950 . S
H303 C323 0.950 . S
H304 C325 0.950 . S
H305 C328 0.950 . S
H306 C329 0.950 . S
H307 C331 0.951 . S
H308 C332 0.949 . S
H309 C334 0.949 . S
H310 C335 0.950 . S
H311 C337 0.950 . S
H312 C338 0.950 . S
H313 C340 0.950 . S
H314 C343 0.950 . S
H315 C344 0.950 . S
H316 C346 0.951 . S
H317 C347 0.949 . S
C318 C319 1.376 . S
C318 C323 1.386 . S
C318 C324 1.483 . S
C319 H300 0.949 . S
C319 C318 1.376 . S
C319 C320 1.397 . S
C320 H301 0.950 . S
C320 C319 1.397 . S
C320 C321 1.391 . S
C321 C320 1.391 . S
C321 C322 1.405 . S
C322 H302 0.950 . S
C322 C321 1.405 . S
C322 C323 1.367 . S
C323 H303 0.950 . S
C323 C318 1.386 . S
C323 C322 1.367 . S
C324 C318 1.483 . S
C324 C325 1.382 . S
C324 C326 1.403 . S
C325 H304 0.950 . S
C325 C324 1.382 . S
C325 C341 1.411 . S
C326 C324 1.403 . S
C326 C327 1.489 . S
C326 C340 1.411 . S
C327 C326 1.489 . S
C327 C328 1.383 . S
C327 C332 1.382 . S
C328 H305 0.950 . S
C328 C327 1.383 . S
C328 C329 1.395 . S
C329 H306 0.950 . S
C329 C328 1.395 . S
C329 C330 1.288 . S
C330 C329 1.288 . S
C330 C331 1.392 . S
C331 H307 0.951 . S
C331 C330 1.392 . S
C331 C332 1.392 . S
C332 H308 0.949 . S
C332 C327 1.382 . S
C332 C331 1.392 . S
C333 C334 1.376 . S
C333 C338 1.386 . S
C333 C339 1.483 . S
C334 H309 0.949 . S
C334 C333 1.376 . S
C334 C335 1.397 . S
C335 H310 0.950 . S
C335 C334 1.397 . S
C335 C336 1.391 . S
C336 C335 1.391 . S
C336 C337 1.405 . S
C337 H311 0.950 . S
C337 C336 1.405 . S
C337 C338 1.367 . S
C338 H312 0.950 . S
C338 C333 1.386 . S
C338 C337 1.367 . S
C339 C333 1.483 . S
C339 C340 1.382 . S
C339 C341 1.403 . S
C340 H313 0.950 . S
C340 C326 1.411 . S
C340 C339 1.382 . S
C341 C325 1.411 . S
C341 C339 1.403 . S
C341 C342 1.489 . S
C342 C341 1.489 . S
C342 C343 1.383 . S
C342 C347 1.382 . S
C343 H314 0.950 . S
C343 C342 1.383 . S
C343 C344 1.395 . S
C344 H315 0.950 . S
C344 C343 1.395 . S
C344 C345 1.288 . S
C345 C344 1.288 . S
C345 C346 1.392 . S
C346 H316 0.951 . S
C346 C345 1.392 . S
C346 C347 1.392 . S
C347 H317 0.949 . S
C347 C342 1.382 . S
C347 C346 1.392 . S
H348 C367 0.949 . S
H349 C368 0.950 . S
H350 C370 0.950 . S
H351 C371 0.950 . S
H352 C373 0.950 . S
H353 C376 0.950 . S
H354 C377 0.950 . S
H355 C379 0.951 . S
H356 C380 0.949 . S
H357 C382 0.949 . S
H358 C383 0.950 . S
H359 C385 0.950 . S
H360 C386 0.950 . S
H361 C388 0.950 . S
H362 C391 0.950 . S
H363 C392 0.950 . S
H364 C394 0.951 . S
H365 C395 0.949 . S
C366 C367 1.376 . S
C366 C371 1.386 . S
C366 C372 1.483 . S
C367 H348 0.949 . S
C367 C366 1.376 . S
C367 C368 1.397 . S
C368 H349 0.950 . S
C368 C367 1.397 . S
C368 C369 1.391 . S
C369 C368 1.391 . S
C369 C370 1.405 . S
C370 H350 0.950 . S
C370 C369 1.405 . S
C370 C371 1.367 . S
C371 H351 0.950 . S
C371 C366 1.386 . S
C371 C370 1.367 . S
C372 C366 1.483 . S
C372 C373 1.382 . S
C372 C374 1.403 . S
C373 H352 0.950 . S
C373 C372 1.382 . S
C373 C389 1.411 . S
C374 C372 1.403 . S
C374 C375 1.489 . S
C374 C388 1.411 . S
C375 C374 1.489 . S
C375 C376 1.383 . S
C375 C380 1.382 . S
C376 H353 0.950 . S
C376 C375 1.383 . S
C376 C377 1.395 . S
C377 H354 0.950 . S
C377 C376 1.395 . S
C377 C378 1.288 . S
C378 C377 1.288 . S
C378 C379 1.392 . S
C379 H355 0.951 . S
C379 C378 1.392 . S
C379 C380 1.392 . S
C380 H356 0.949 . S
C380 C375 1.382 . S
C380 C379 1.392 . S
C381 C382 1.376 . S
C381 C386 1.386 . S
C381 C387 1.483 . S
C382 H357 0.949 . S
C382 C381 1.376 . S
C382 C383 1.397 . S
C383 H358 0.950 . S
C383 C382 1.397 . S
C383 C384 1.391 . S
C384 C383 1.391 . S
C384 C385 1.405 . S
C385 H359 0.950 . S
C385 C384 1.405 . S
C385 C386 1.367 . S
C386 H360 0.950 . S
C386 C381 1.386 . S
C386 C385 1.367 . S
C387 C381 1.483 . S
C387 C388 1.382 . S
C387 C389 1.403 . S
C388 H361 0.950 . S
C388 C374 1.411 . S
C388 C387 1.382 . S
C389 C373 1.411 . S
C389 C387 1.403 . S
C389 C390 1.489 . S
C390 C389 1.489 . S
C390 C391 1.383 . S
C390 C395 1.382 . S
C391 H362 0.950 . S
C391 C390 1.383 . S
C391 C392 1.395 . S
C392 H363 0.950 . S
C392 C391 1.395 . S
C392 C393 1.288 . S
C393 C392 1.288 . S
C393 C394 1.392 . S
C394 H364 0.951 . S
C394 C393 1.392 . S
C394 C395 1.392 . S
C395 H365 0.949 . S
C395 C390 1.382 . S
C395 C394 1.392 . S
H396 C415 0.949 . S
H397 C416 0.950 . S
H398 C418 0.950 . S
H399 C419 0.950 . S
H400 C421 0.950 . S
H401 C424 0.950 . S
H402 C425 0.950 . S
H403 C427 0.951 . S
H404 C428 0.949 . S
H405 C430 0.949 . S
H406 C431 0.950 . S
H407 C433 0.950 . S
H408 C434 0.950 . S
H409 C436 0.950 . S
H410 C439 0.950 . S
H411 C440 0.950 . S
H412 C442 0.951 . S
H413 C443 0.949 . S
C414 C415 1.376 . S
C414 C419 1.386 . S
C414 C420 1.483 . S
C415 H396 0.949 . S
C415 C414 1.376 . S
C415 C416 1.397 . S
C416 H397 0.950 . S
C416 C415 1.397 . S
C416 C417 1.391 . S
C417 C416 1.391 . S
C417 C418 1.405 . S
C418 H398 0.950 . S
C418 C417 1.405 . S
C418 C419 1.367 . S
C419 H399 0.950 . S
C419 C414 1.386 . S
C419 C418 1.367 . S
C420 C414 1.483 . S
C420 C421 1.382 . S
C420 C422 1.403 . S
C421 H400 0.950 . S
C421 C420 1.382 . S
C421 C437 1.411 . S
C422 C420 1.403 . S
C422 C423 1.489 . S
C422 C436 1.411 . S
C423 C422 1.489 . S
C423 C424 1.383 . S
C423 C428 1.382 . S
C424 H401 0.950 . S
C424 C423 1.383 . S
C424 C425 1.395 . S
C425 H402 0.950 . S
C425 C424 1.395 . S
C425 C426 1.288 . S
C426 C425 1.288 . S
C426 C427 1.392 . S
C427 H403 0.951 . S
C427 C426 1.392 . S
C427 C428 1.392 . S
C428 H404 0.949 . S
C428 C423 1.382 . S
C428 C427 1.392 . S
C429 C430 1.376 . S
C429 C434 1.386 . S
C429 C435 1.483 . S
C430 H405 0.949 . S
C430 C429 1.376 . S
C430 C431 1.397 . S
C431 H406 0.950 . S
C431 C430 1.397 . S
C431 C432 1.391 . S
C432 C431 1.391 . S
C432 C433 1.405 . S
C433 H407 0.950 . S
C433 C432 1.405 . S
C433 C434 1.367 . S
C434 H408 0.950 . S
C434 C429 1.386 . S
C434 C433 1.367 . S
C435 C429 1.483 . S
C435 C436 1.382 . S
C435 C437 1.403 . S
C436 H409 0.950 . S
C436 C422 1.411 . S
C436 C435 1.382 . S
C437 C421 1.411 . S
C437 C435 1.403 . S
C437 C438 1.489 . S
C438 C437 1.489 . S
C438 C439 1.383 . S
C438 C443 1.382 . S
C439 H410 0.950 . S
C439 C438 1.383 . S
C439 C440 1.395 . S
C440 H411 0.950 . S
C440 C439 1.395 . S
C440 C441 1.288 . S
C441 C440 1.288 . S
C441 C442 1.392 . S
C442 H412 0.951 . S
C442 C441 1.392 . S
C442 C443 1.392 . S
C443 H413 0.949 . S
C443 C438 1.382 . S
C443 C442 1.392 . S
H444 C463 0.949 . S
H445 C464 0.950 . S
H446 C466 0.950 . S
H447 C467 0.950 . S
H448 C469 0.950 . S
H449 C472 0.950 . S
H450 C473 0.950 . S
H451 C475 0.951 . S
H452 C476 0.949 . S
H453 C478 0.949 . S
H454 C479 0.950 . S
H455 C481 0.950 . S
H456 C482 0.950 . S
H457 C484 0.950 . S
H458 C487 0.950 . S
H459 C488 0.950 . S
H460 C490 0.951 . S
H461 C491 0.949 . S
C462 C463 1.376 . S
C462 C467 1.386 . S
C462 C468 1.483 . S
C463 H444 0.949 . S
C463 C462 1.376 . S
C463 C464 1.397 . S
C464 H445 0.950 . S
C464 C463 1.397 . S
C464 C465 1.391 . S
C465 C464 1.391 . S
C465 C466 1.405 . S
C466 H446 0.950 . S
C466 C465 1.405 . S
C466 C467 1.367 . S
C467 H447 0.950 . S
C467 C462 1.386 . S
C467 C466 1.367 . S
C468 C462 1.483 . S
C468 C469 1.382 . S
C468 C470 1.403 . S
C469 H448 0.950 . S
C469 C468 1.382 . S
C469 C485 1.411 . S
C470 C468 1.403 . S
C470 C471 1.489 . S
C470 C484 1.411 . S
C471 C470 1.489 . S
C471 C472 1.383 . S
C471 C476 1.382 . S
C472 H449 0.950 . S
C472 C471 1.383 . S
C472 C473 1.395 . S
C473 H450 0.950 . S
C473 C472 1.395 . S
C473 C474 1.288 . S
C474 C473 1.288 . S
C474 C475 1.392 . S
C475 H451 0.951 . S
C475 C474 1.392 . S
C475 C476 1.392 . S
C476 H452 0.949 . S
C476 C471 1.382 . S
C476 C475 1.392 . S
C477 C478 1.376 . S
C477 C482 1.386 . S
C477 C483 1.483 . S
C478 H453 0.949 . S
C478 C477 1.376 . S
C478 C479 1.397 . S
C479 H454 0.950 . S
C479 C478 1.397 . S
C479 C480 1.391 . S
C480 C479 1.391 . S
C480 C481 1.405 . S
C481 H455 0.950 . S
C481 C480 1.405 . S
C481 C482 1.367 . S
C482 H456 0.950 . S
C482 C477 1.386 . S
C482 C481 1.367 . S
C483 C477 1.483 . S
C483 C484 1.382 . S
C483 C485 1.403 . S
C484 H457 0.950 . S
C484 C470 1.411 . S
C484 C483 1.382 . S
C485 C469 1.411 . S
C485 C483 1.403 . S
C485 C486 1.489 . S
C486 C485 1.489 . S
C486 C487 1.383 . S
C486 C491 1.382 . S
C487 H458 0.950 . S
C487 C486 1.383 . S
C487 C488 1.395 . S
C488 H459 0.950 . S
C488 C487 1.395 . S
C488 C489 1.288 . S
C489 C488 1.288 . S
C489 C490 1.392 . S
C490 H460 0.951 . S
C490 C489 1.392 . S
C490 C491 1.392 . S
C491 H461 0.949 . S
C491 C486 1.382 . S
C491 C490 1.392 . S
H492 C511 0.949 . S
H493 C512 0.950 . S
H494 C514 0.950 . S
H495 C515 0.950 . S
H496 C517 0.950 . S
H497 C520 0.950 . S
H498 C521 0.950 . S
H499 C523 0.951 . S
H500 C524 0.949 . S
H501 C526 0.949 . S
H502 C527 0.950 . S
H503 C529 0.950 . S
H504 C530 0.950 . S
H505 C532 0.950 . S
H506 C535 0.950 . S
H507 C536 0.950 . S
H508 C538 0.951 . S
H509 C539 0.949 . S
C510 C511 1.376 . S
C510 C515 1.386 . S
C510 C516 1.483 . S
C511 H492 0.949 . S
C511 C510 1.376 . S
C511 C512 1.397 . S
C512 H493 0.950 . S
C512 C511 1.397 . S
C512 C513 1.391 . S
C513 C512 1.391 . S
C513 C514 1.405 . S
C514 H494 0.950 . S
C514 C513 1.405 . S
C514 C515 1.367 . S
C515 H495 0.950 . S
C515 C510 1.386 . S
C515 C514 1.367 . S
C516 C510 1.483 . S
C516 C517 1.382 . S
C516 C518 1.403 . S
C517 H496 0.950 . S
C517 C516 1.382 . S
C517 C533 1.411 . S
C518 C516 1.403 . S
C518 C519 1.489 . S
C518 C532 1.411 . S
C519 C518 1.489 . S
C519 C520 1.383 . S
C519 C524 1.382 . S
C520 H497 0.950 . S
C520 C519 1.383 . S
C520 C521 1.395 . S
C521 H498 0.950 . S
C521 C520 1.395 . S
C521 C522 1.288 . S
C522 C521 1.288 . S
C522 C523 1.392 . S
C523 H499 0.951 . S
C523 C522 1.392 . S
C523 C524 1.392 . S
C524 H500 0.949 . S
C524 C519 1.382 . S
C524 C523 1.392 . S
C525 C526 1.376 . S
C525 C530 1.386 . S
C525 C531 1.483 . S
C526 H501 0.949 . S
C526 C525 1.376 . S
C526 C527 1.397 . S
C527 H502 0.950 . S
C527 C526 1.397 . S
C527 C528 1.391 . S
C528 C527 1.391 . S
C528 C529 1.405 . S
C529 H503 0.950 . S
C529 C528 1.405 . S
C529 C530 1.367 . S
C530 H504 0.950 . S
C530 C525 1.386 . S
C530 C529 1.367 . S
C531 C525 1.483 . S
C531 C532 1.382 . S
C531 C533 1.403 . S
C532 H505 0.950 . S
C532 C518 1.411 . S
C532 C531 1.382 . S
C533 C517 1.411 . S
C533 C531 1.403 . S
C533 C534 1.489 . S
C534 C533 1.489 . S
C534 C535 1.383 . S
C534 C539 1.382 . S
C535 H506 0.950 . S
C535 C534 1.383 . S
C535 C536 1.395 . S
C536 H507 0.950 . S
C536 C535 1.395 . S
C536 C537 1.288 . S
C537 C536 1.288 . S
C537 C538 1.392 . S
C538 H508 0.951 . S
C538 C537 1.392 . S
C538 C539 1.392 . S
C539 H509 0.949 . S
C539 C534 1.382 . S
C539 C538 1.392 . S
H540 C559 0.949 . S
H541 C560 0.950 . S
H542 C562 0.950 . S
H543 C563 0.950 . S
H544 C565 0.950 . S
H545 C568 0.950 . S
H546 C569 0.950 . S
H547 C571 0.951 . S
H548 C572 0.949 . S
H549 C574 0.949 . S
H550 C575 0.950 . S
H551 C577 0.950 . S
H552 C578 0.950 . S
H553 C580 0.950 . S
H554 C583 0.950 . S
H555 C584 0.950 . S
H556 C586 0.951 . S
H557 C587 0.949 . S
C558 C559 1.376 . S
C558 C563 1.386 . S
C558 C564 1.483 . S
C559 H540 0.949 . S
C559 C558 1.376 . S
C559 C560 1.397 . S
C560 H541 0.950 . S
C560 C559 1.397 . S
C560 C561 1.391 . S
C561 C560 1.391 . S
C561 C562 1.405 . S
C562 H542 0.950 . S
C562 C561 1.405 . S
C562 C563 1.367 . S
C563 H543 0.950 . S
C563 C558 1.386 . S
C563 C562 1.367 . S
C564 C558 1.483 . S
C564 C565 1.382 . S
C564 C566 1.403 . S
C565 H544 0.950 . S
C565 C564 1.382 . S
C565 C581 1.411 . S
C566 C564 1.403 . S
C566 C567 1.489 . S
C566 C580 1.411 . S
C567 C566 1.489 . S
C567 C568 1.383 . S
C567 C572 1.382 . S
C568 H545 0.950 . S
C568 C567 1.383 . S
C568 C569 1.395 . S
C569 H546 0.950 . S
C569 C568 1.395 . S
C569 C570 1.288 . S
C570 C569 1.288 . S
C570 C571 1.392 . S
C571 H547 0.951 . S
C571 C570 1.392 . S
C571 C572 1.392 . S
C572 H548 0.949 . S
C572 C567 1.382 . S
C572 C571 1.392 . S
C573 C574 1.376 . S
C573 C578 1.386 . S
C573 C579 1.483 . S
C574 H549 0.949 . S
C574 C573 1.376 . S
C574 C575 1.397 . S
C575 H550 0.950 . S
C575 C574 1.397 . S
C575 C576 1.391 . S
C576 C575 1.391 . S
C576 C577 1.405 . S
C577 H551 0.950 . S
C577 C576 1.405 . S
C577 C578 1.367 . S
C578 H552 0.950 . S
C578 C573 1.386 . S
C578 C577 1.367 . S
C579 C573 1.483 . S
C579 C580 1.382 . S
C579 C581 1.403 . S
C580 H553 0.950 . S
C580 C566 1.411 . S
C580 C579 1.382 . S
C581 C565 1.411 . S
C581 C579 1.403 . S
C581 C582 1.489 . S
C582 C581 1.489 . S
C582 C583 1.383 . S
C582 C587 1.382 . S
C583 H554 0.950 . S
C583 C582 1.383 . S
C583 C584 1.395 . S
C584 H555 0.950 . S
C584 C583 1.395 . S
C584 C585 1.288 . S
C585 C584 1.288 . S
C585 C586 1.392 . S
C586 H556 0.951 . S
C586 C585 1.392 . S
C586 C587 1.392 . S
C587 H557 0.949 . S
C587 C582 1.382 . S
C587 C586 1.392 . S
H588 C607 0.949 . S
H589 C608 0.950 . S
H590 C610 0.950 . S
H591 C611 0.950 . S
H592 C613 0.950 . S
H593 C616 0.950 . S
H594 C617 0.950 . S
H595 C619 0.951 . S
H596 C620 0.949 . S
H597 C622 0.949 . S
H598 C623 0.950 . S
H599 C625 0.950 . S
H600 C626 0.950 . S
H601 C628 0.950 . S
H602 C631 0.950 . S
H603 C632 0.950 . S
H604 C634 0.951 . S
H605 C635 0.949 . S
C606 C607 1.376 . S
C606 C611 1.386 . S
C606 C612 1.483 . S
C607 H588 0.949 . S
C607 C606 1.376 . S
C607 C608 1.397 . S
C608 H589 0.950 . S
C608 C607 1.397 . S
C608 C609 1.391 . S
C609 C608 1.391 . S
C609 C610 1.405 . S
C610 H590 0.950 . S
C610 C609 1.405 . S
C610 C611 1.367 . S
C611 H591 0.950 . S
C611 C606 1.386 . S
C611 C610 1.367 . S
C612 C606 1.483 . S
C612 C613 1.382 . S
C612 C614 1.403 . S
C613 H592 0.950 . S
C613 C612 1.382 . S
C613 C629 1.411 . S
C614 C612 1.403 . S
C614 C615 1.489 . S
C614 C628 1.411 . S
C615 C614 1.489 . S
C615 C616 1.383 . S
C615 C620 1.382 . S
C616 H593 0.950 . S
C616 C615 1.383 . S
C616 C617 1.395 . S
C617 H594 0.950 . S
C617 C616 1.395 . S
C617 C618 1.288 . S
C618 C617 1.288 . S
C618 C619 1.392 . S
C619 H595 0.951 . S
C619 C618 1.392 . S
C619 C620 1.392 . S
C620 H596 0.949 . S
C620 C615 1.382 . S
C620 C619 1.392 . S
C621 C622 1.376 . S
C621 C626 1.386 . S
C621 C627 1.483 . S
C622 H597 0.949 . S
C622 C621 1.376 . S
C622 C623 1.397 . S
C623 H598 0.950 . S
C623 C622 1.397 . S
C623 C624 1.391 . S
C624 C623 1.391 . S
C624 C625 1.405 . S
C625 H599 0.950 . S
C625 C624 1.405 . S
C625 C626 1.367 . S
C626 H600 0.950 . S
C626 C621 1.386 . S
C626 C625 1.367 . S
C627 C621 1.483 . S
C627 C628 1.382 . S
C627 C629 1.403 . S
C628 H601 0.950 . S
C628 C614 1.411 . S
C628 C627 1.382 . S
C629 C613 1.411 . S
C629 C627 1.403 . S
C629 C630 1.489 . S
C630 C629 1.489 . S
C630 C631 1.383 . S
C630 C635 1.382 . S
C631 H602 0.950 . S
C631 C630 1.383 . S
C631 C632 1.395 . S
C632 H603 0.950 . S
C632 C631 1.395 . S
C632 C633 1.288 . S
C633 C632 1.288 . S
C633 C634 1.392 . S
C634 H604 0.951 . S
C634 C633 1.392 . S
C634 C635 1.392 . S
C635 H605 0.949 . S
C635 C630 1.382 . S
C635 C634 1.392 . S
H636 C655 0.949 . S
H637 C656 0.950 . S
H638 C658 0.950 . S
H639 C659 0.950 . S
H640 C661 0.950 . S
H641 C664 0.950 . S
H642 C665 0.950 . S
H643 C667 0.951 . S
H644 C668 0.949 . S
H645 C670 0.949 . S
H646 C671 0.950 . S
H647 C673 0.950 . S
H648 C674 0.950 . S
H649 C676 0.950 . S
H650 C679 0.950 . S
H651 C680 0.950 . S
H652 C682 0.951 . S
H653 C683 0.949 . S
C654 C655 1.376 . S
C654 C659 1.386 . S
C654 C660 1.483 . S
C655 H636 0.949 . S
C655 C654 1.376 . S
C655 C656 1.397 . S
C656 H637 0.950 . S
C656 C655 1.397 . S
C656 C657 1.391 . S
C657 C656 1.391 . S
C657 C658 1.405 . S
C658 H638 0.950 . S
C658 C657 1.405 . S
C658 C659 1.367 . S
C659 H639 0.950 . S
C659 C654 1.386 . S
C659 C658 1.367 . S
C660 C654 1.483 . S
C660 C661 1.382 . S
C660 C662 1.403 . S
C661 H640 0.950 . S
C661 C660 1.382 . S
C661 C677 1.411 . S
C662 C660 1.403 . S
C662 C663 1.489 . S
C662 C676 1.411 . S
C663 C662 1.489 . S
C663 C664 1.383 . S
C663 C668 1.382 . S
C664 H641 0.950 . S
C664 C663 1.383 . S
C664 C665 1.395 . S
C665 H642 0.950 . S
C665 C664 1.395 . S
C665 C666 1.288 . S
C666 C665 1.288 . S
C666 C667 1.392 . S
C667 H643 0.951 . S
C667 C666 1.392 . S
C667 C668 1.392 . S
C668 H644 0.949 . S
C668 C663 1.382 . S
C668 C667 1.392 . S
C669 C670 1.376 . S
C669 C674 1.386 . S
C669 C675 1.483 . S
C670 H645 0.949 . S
C670 C669 1.376 . S
C670 C671 1.397 . S
C671 H646 0.950 . S
C671 C670 1.397 . S
C671 C672 1.391 . S
C672 C671 1.391 . S
C672 C673 1.405 . S
C673 H647 0.950 . S
C673 C672 1.405 . S
C673 C674 1.367 . S
C674 H648 0.950 . S
C674 C669 1.386 . S
C674 C673 1.367 . S
C675 C669 1.483 . S
C675 C676 1.382 . S
C675 C677 1.403 . S
C676 H649 0.950 . S
C676 C662 1.411 . S
C676 C675 1.382 . S
C677 C661 1.411 . S
C677 C675 1.403 . S
C677 C678 1.489 . S
C678 C677 1.489 . S
C678 C679 1.383 . S
C678 C683 1.382 . S
C679 H650 0.950 . S
C679 C678 1.383 . S
C679 C680 1.395 . S
C680 H651 0.950 . S
C680 C679 1.395 . S
C680 C681 1.288 . S
C681 C680 1.288 . S
C681 C682 1.392 . S
C682 H652 0.951 . S
C682 C681 1.392 . S
C682 C683 1.392 . S
C683 H653 0.949 . S
C683 C678 1.382 . S
C683 C682 1.392 . S
H684 C703 0.949 . S
H685 C704 0.950 . S
H686 C706 0.950 . S
H687 C707 0.950 . S
H688 C709 0.950 . S
H689 C712 0.950 . S
H690 C713 0.950 . S
H691 C715 0.951 . S
H692 C716 0.949 . S
H693 C718 0.949 . S
H694 C719 0.950 . S
H695 C721 0.950 . S
H696 C722 0.950 . S
H697 C724 0.950 . S
H698 C727 0.950 . S
H699 C728 0.950 . S
H700 C730 0.951 . S
H701 C731 0.949 . S
C702 C703 1.376 . S
C702 C707 1.386 1_655 S
C702 C708 1.483 . S
C703 H684 0.949 . S
C703 C702 1.376 . S
C703 C704 1.397 . S
C704 H685 0.950 . S
C704 C703 1.397 . S
C704 C705 1.391 . S
C705 C704 1.391 . S
C705 C706 1.405 1_655 S
C706 H686 0.950 . S
C706 C705 1.405 1_455 S
C706 C707 1.367 . S
C707 H687 0.950 . S
C707 C702 1.386 1_455 S
C707 C706 1.367 . S
C708 C702 1.483 . S
C708 C709 1.382 . S
C708 C710 1.403 1_655 S
C709 H688 0.950 . S
C709 C708 1.382 . S
C709 C725 1.411 . S
C710 C708 1.403 1_455 S
C710 C711 1.489 . S
C710 C724 1.411 . S
C711 C710 1.489 . S
C711 C712 1.383 1_455 S
C711 C716 1.382 . S
C712 H689 0.950 . S
C712 C711 1.383 1_655 S
C712 C713 1.395 . S
C713 H690 0.950 . S
C713 C712 1.395 . S
C713 C714 1.288 1_655 S
C714 C713 1.288 1_455 S
C714 C715 1.392 . S
C715 H691 0.951 . S
C715 C714 1.392 . S
C715 C716 1.392 . S
C716 H692 0.949 . S
C716 C711 1.382 . S
C716 C715 1.392 . S
C717 C718 1.376 . S
C717 C722 1.386 1_455 S
C717 C723 1.483 . S
C718 H693 0.949 . S
C718 C717 1.376 . S
C718 C719 1.397 . S
C719 H694 0.950 . S
C719 C718 1.397 . S
C719 C720 1.391 . S
C720 C719 1.391 . S
C720 C721 1.405 1_455 S
C721 H695 0.950 . S
C721 C720 1.405 1_655 S
C721 C722 1.367 . S
C722 H696 0.950 . S
C722 C717 1.386 1_655 S
C722 C721 1.367 . S
C723 C717 1.483 . S
C723 C724 1.382 . S
C723 C725 1.403 1_455 S
C724 H697 0.950 . S
C724 C710 1.411 . S
C724 C723 1.382 . S
C725 C709 1.411 . S
C725 C723 1.403 1_655 S
C725 C726 1.489 . S
C726 C725 1.489 . S
C726 C727 1.383 1_655 S
C726 C731 1.382 . S
C727 H698 0.950 . S
C727 C726 1.383 1_455 S
C727 C728 1.395 . S
C728 H699 0.950 . S
C728 C727 1.395 . S
C728 C729 1.288 1_455 S
C729 C728 1.288 1_655 S
C729 C730 1.392 . S
C730 H700 0.951 . S
C730 C729 1.392 . S
C730 C731 1.392 . S
C731 H701 0.949 . S
C731 C726 1.382 . S
C731 C730 1.392 . S
H732 C751 0.949 . S
H733 C752 0.950 . S
H734 C754 0.950 . S
H735 C755 0.950 . S
H736 C757 0.950 . S
H737 C760 0.950 . S
H738 C761 0.950 . S
H739 C763 0.951 . S
H740 C764 0.949 . S
H741 C766 0.949 . S
H742 C767 0.950 . S
H743 C769 0.950 . S
H744 C770 0.950 . S
H745 C772 0.950 . S
H746 C775 0.950 . S
H747 C776 0.950 . S
H748 C778 0.951 . S
H749 C779 0.949 . S
C750 C751 1.376 . S
C750 C755 1.386 . S
C750 C756 1.483 . S
C751 H732 0.949 . S
C751 C750 1.376 . S
C751 C752 1.397 . S
C752 H733 0.950 . S
C752 C751 1.397 . S
C752 C753 1.391 . S
C753 C752 1.391 . S
C753 C754 1.405 . S
C754 H734 0.950 . S
C754 C753 1.405 . S
C754 C755 1.367 . S
C755 H735 0.950 . S
C755 C750 1.386 . S
C755 C754 1.367 . S
C756 C750 1.483 . S
C756 C757 1.382 . S
C756 C758 1.403 . S
C757 H736 0.950 . S
C757 C756 1.382 . S
C757 C773 1.411 . S
C758 C756 1.403 . S
C758 C759 1.489 . S
C758 C772 1.411 . S
C759 C758 1.489 . S
C759 C760 1.383 . S
C759 C764 1.382 . S
C760 H737 0.950 . S
C760 C759 1.383 . S
C760 C761 1.395 . S
C761 H738 0.950 . S
C761 C760 1.395 . S
C761 C762 1.288 . S
C762 C761 1.288 . S
C762 C763 1.392 . S
C763 H739 0.951 . S
C763 C762 1.392 . S
C763 C764 1.392 . S
C764 H740 0.949 . S
C764 C759 1.382 . S
C764 C763 1.392 . S
C765 C766 1.376 . S
C765 C770 1.386 . S
C765 C771 1.483 . S
C766 H741 0.949 . S
C766 C765 1.376 . S
C766 C767 1.397 . S
C767 H742 0.950 . S
C767 C766 1.397 . S
C767 C768 1.391 . S
C768 C767 1.391 . S
C768 C769 1.405 . S
C769 H743 0.950 . S
C769 C768 1.405 . S
C769 C770 1.367 . S
C770 H744 0.950 . S
C770 C765 1.386 . S
C770 C769 1.367 . S
C771 C765 1.483 . S
C771 C772 1.382 . S
C771 C773 1.403 . S
C772 H745 0.950 . S
C772 C758 1.411 . S
C772 C771 1.382 . S
C773 C757 1.411 . S
C773 C771 1.403 . S
C773 C774 1.489 . S
C774 C773 1.489 . S
C774 C775 1.383 . S
C774 C779 1.382 . S
C775 H746 0.950 . S
C775 C774 1.383 . S
C775 C776 1.395 . S
C776 H747 0.950 . S
C776 C775 1.395 . S
C776 C777 1.288 . S
C777 C776 1.288 . S
C777 C778 1.392 . S
C778 H748 0.951 . S
C778 C777 1.392 . S
C778 C779 1.392 . S
C779 H749 0.949 . S
C779 C774 1.382 . S
C779 C778 1.392 . S
H780 C799 0.949 . S
H781 C800 0.950 . S
H782 C802 0.950 . S
H783 C803 0.950 . S
H784 C805 0.950 . S
H785 C808 0.950 . S
H786 C809 0.950 . S
H787 C811 0.951 . S
H788 C812 0.949 . S
H789 C814 0.949 . S
H790 C815 0.950 . S
H791 C817 0.950 . S
H792 C818 0.950 . S
H793 C820 0.950 . S
H794 C823 0.950 . S
H795 C824 0.950 . S
H796 C826 0.951 . S
H797 C827 0.949 . S
C798 C799 1.376 . S
C798 C803 1.386 1_545 S
C798 C804 1.483 . S
C799 H780 0.949 . S
C799 C798 1.376 . S
C799 C800 1.397 . S
C800 H781 0.950 . S
C800 C799 1.397 . S
C800 C801 1.391 . S
C801 C800 1.391 . S
C801 C802 1.405 1_545 S
C802 H782 0.950 . S
C802 C801 1.405 1_565 S
C802 C803 1.367 . S
C803 H783 0.950 . S
C803 C798 1.386 1_565 S
C803 C802 1.367 . S
C804 C798 1.483 . S
C804 C805 1.382 . S
C804 C806 1.403 1_545 S
C805 H784 0.950 . S
C805 C804 1.382 . S
C805 C821 1.411 . S
C806 C804 1.403 1_565 S
C806 C807 1.489 . S
C806 C820 1.411 . S
C807 C806 1.489 . S
C807 C808 1.383 1_565 S
C807 C812 1.382 . S
C808 H785 0.950 . S
C808 C807 1.383 1_545 S
C808 C809 1.395 . S
C809 H786 0.950 . S
C809 C808 1.395 . S
C809 C810 1.288 1_545 S
C810 C809 1.288 1_565 S
C810 C811 1.392 . S
C811 H787 0.951 . S
C811 C810 1.392 . S
C811 C812 1.392 . S
C812 H788 0.949 . S
C812 C807 1.382 . S
C812 C811 1.392 . S
C813 C814 1.376 . S
C813 C818 1.386 1_565 S
C813 C819 1.483 . S
C814 H789 0.949 . S
C814 C813 1.376 . S
C814 C815 1.397 . S
C815 H790 0.950 . S
C815 C814 1.397 . S
C815 C816 1.391 . S
C816 C815 1.391 . S
C816 C817 1.405 1_565 S
C817 H791 0.950 . S
C817 C816 1.405 1_545 S
C817 C818 1.367 . S
C818 H792 0.950 . S
C818 C813 1.386 1_545 S
C818 C817 1.367 . S
C819 C813 1.483 . S
C819 C820 1.382 . S
C819 C821 1.403 1_565 S
C820 H793 0.950 . S
C820 C806 1.411 . S
C820 C819 1.382 . S
C821 C805 1.411 . S
C821 C819 1.403 1_545 S
C821 C822 1.489 . S
C822 C821 1.489 . S
C822 C823 1.383 1_545 S
C822 C827 1.382 . S
C823 H794 0.950 . S
C823 C822 1.383 1_565 S
C823 C824 1.395 . S
C824 H795 0.950 . S
C824 C823 1.395 . S
C824 C825 1.288 1_565 S
C825 C824 1.288 1_545 S
C825 C826 1.392 . S
C826 H796 0.951 . S
C826 C825 1.392 . S
C826 C827 1.392 . S
C827 H797 0.949 . S
C827 C822 1.382 . S
C827 C826 1.392 . S
H828 C847 0.949 . S
H829 C848 0.950 . S
H830 C850 0.950 . S
H831 C851 0.950 . S
H832 C853 0.950 . S
H833 C856 0.950 . S
H834 C857 0.950 . S
H835 C859 0.951 . S
H836 C860 0.949 . S
H837 C862 0.949 . S
H838 C863 0.950 . S
H839 C865 0.950 . S
H840 C866 0.950 . S
H841 C868 0.950 . S
H842 C871 0.950 . S
H843 C872 0.950 . S
H844 C874 0.951 . S
H845 C875 0.949 . S
C846 C847 1.397 . S
C846 C851 1.377 1_545 S
C846 C852 1.471 . S
C847 H828 0.949 . S
C847 C846 1.397 . S
C847 C848 1.397 . S
C848 H829 0.950 . S
C848 C847 1.397 . S
C848 C849 1.391 1_545 S
C849 C848 1.391 1_565 S
C849 C850 1.405 . S
C850 H830 0.950 . S
C850 C849 1.405 . S
C850 C851 1.367 . S
C851 H831 0.950 . S
C851 C846 1.377 1_565 S
C851 C850 1.367 . S
C852 C846 1.471 . S
C852 C853 1.382 . S
C852 C854 1.401 1_545 S
C853 H832 0.950 . S
C853 C852 1.382 . S
C853 C869 1.443 . S
C854 C852 1.401 1_565 S
C854 C855 1.481 . S
C854 C868 1.434 . S
C855 C854 1.481 . S
C855 C856 1.355 1_565 S
C855 C860 1.396 . S
C856 H833 0.950 . S
C856 C855 1.355 1_545 S
C856 C857 1.395 . S
C857 H834 0.950 . S
C857 C856 1.395 . S
C857 C858 1.288 . S
C858 C857 1.288 . S
C858 C859 1.392 1_545 S
C859 H835 0.951 . S
C859 C858 1.392 1_565 S
C859 C860 1.392 . S
C860 H836 0.949 . S
C860 C855 1.396 . S
C860 C859 1.392 . S
C861 C862 1.385 . S
C861 C866 1.382 1_565 S
C861 C867 1.501 . S
C862 H837 0.949 . S
C862 C861 1.385 . S
C862 C863 1.397 . S
C863 H838 0.950 . S
C863 C862 1.397 . S
C863 C864 1.391 1_565 S
C864 C863 1.391 1_545 S
C864 C865 1.405 . S
C865 H839 0.950 . S
C865 C864 1.405 . S
C865 C866 1.367 . S
C866 H840 0.950 . S
C866 C861 1.382 1_545 S
C866 C865 1.367 . S
C867 C861 1.501 . S
C867 C868 1.359 . S
C867 C869 1.401 1_565 S
C868 H841 0.950 . S
C868 C854 1.434 . S
C868 C867 1.359 . S
C869 C853 1.443 . S
C869 C867 1.401 1_545 S
C869 C870 1.481 . S
C870 C869 1.481 . S
C870 C871 1.340 1_545 S
C870 C875 1.404 . S
C871 H842 0.950 . S
C871 C870 1.340 1_565 S
C871 C872 1.395 . S
C872 H843 0.950 . S
C872 C871 1.395 . S
C872 C873 1.288 . S
C873 C872 1.288 . S
C873 C874 1.392 1_565 S
C874 H844 0.951 . S
C874 C873 1.392 1_545 S
C874 C875 1.392 . S
C875 H845 0.949 . S
C875 C870 1.404 . S
C875 C874 1.392 . S
H876 C895 0.949 . S
H877 C896 0.950 . S
H878 C898 0.950 . S
H879 C899 0.950 . S
H880 C901 0.950 . S
H881 C904 0.950 . S
H882 C905 0.950 . S
H883 C907 0.951 . S
H884 C908 0.949 . S
H885 C910 0.949 . S
H886 C911 0.950 . S
H887 C913 0.950 . S
H888 C914 0.950 . S
H889 C916 0.950 . S
H890 C919 0.950 . S
H891 C920 0.950 . S
H892 C922 0.951 . S
H893 C923 0.949 . S
C894 C895 1.376 . S
C894 C899 1.386 1_455 S
C894 C900 1.483 . S
C895 H876 0.949 . S
C895 C894 1.376 . S
C895 C896 1.397 . S
C896 H877 0.950 . S
C896 C895 1.397 . S
C896 C897 1.391 . S
C897 C896 1.391 . S
C897 C898 1.405 1_455 S
C898 H878 0.950 . S
C898 C897 1.405 1_655 S
C898 C899 1.367 . S
C899 H879 0.950 . S
C899 C894 1.386 1_655 S
C899 C898 1.367 . S
C900 C894 1.483 . S
C900 C901 1.382 . S
C900 C902 1.403 1_455 S
C901 H880 0.950 . S
C901 C900 1.382 . S
C901 C917 1.411 . S
C902 C900 1.403 1_655 S
C902 C903 1.489 . S
C902 C916 1.411 . S
C903 C902 1.489 . S
C903 C904 1.383 1_655 S
C903 C908 1.382 . S
C904 H881 0.950 . S
C904 C903 1.383 1_455 S
C904 C905 1.395 . S
C905 H882 0.950 . S
C905 C904 1.395 . S
C905 C906 1.288 1_455 S
C906 C905 1.288 1_655 S
C906 C907 1.392 . S
C907 H883 0.951 . S
C907 C906 1.392 . S
C907 C908 1.392 . S
C908 H884 0.949 . S
C908 C903 1.382 . S
C908 C907 1.392 . S
C909 C910 1.376 . S
C909 C914 1.386 1_655 S
C909 C915 1.483 . S
C910 H885 0.949 . S
C910 C909 1.376 . S
C910 C911 1.397 . S
C911 H886 0.950 . S
C911 C910 1.397 . S
C911 C912 1.391 . S
C912 C911 1.391 . S
C912 C913 1.405 1_655 S
C913 H887 0.950 . S
C913 C912 1.405 1_455 S
C913 C914 1.367 . S
C914 H888 0.950 . S
C914 C909 1.386 1_455 S
C914 C913 1.367 . S
C915 C909 1.483 . S
C915 C916 1.382 . S
C915 C917 1.403 1_655 S
C916 H889 0.950 . S
C916 C902 1.411 . S
C916 C915 1.382 . S
C917 C901 1.411 . S
C917 C915 1.403 1_455 S
C917 C918 1.489 . S
C918 C917 1.489 . S
C918 C919 1.383 1_455 S
C918 C923 1.382 . S
C919 H890 0.950 . S
C919 C918 1.383 1_655 S
C919 C920 1.395 . S
C920 H891 0.950 . S
C920 C919 1.395 . S
C920 C921 1.288 1_655 S
C921 C920 1.288 1_455 S
C921 C922 1.392 . S
C922 H892 0.951 . S
C922 C921 1.392 . S
C922 C923 1.392 . S
C923 H893 0.949 . S
C923 C918 1.382 . S
C923 C922 1.392 . S
H924 C943 0.949 . S
H925 C944 0.950 . S
H926 C946 0.950 . S
H927 C947 0.950 . S
H928 C949 0.950 . S
H929 C952 0.950 . S
H930 C953 0.950 . S
H931 C955 0.951 . S
H932 C956 0.949 . S
H933 C958 0.949 . S
H934 C959 0.950 . S
H935 C961 0.950 . S
H936 C962 0.950 . S
H937 C964 0.950 . S
H938 C967 0.950 . S
H939 C968 0.950 . S
H940 C970 0.951 . S
H941 C971 0.949 . S
C942 C943 1.376 . S
C942 C947 1.386 . S
C942 C948 1.483 . S
C943 H924 0.949 . S
C943 C942 1.376 . S
C943 C944 1.397 . S
C944 H925 0.950 . S
C944 C943 1.397 . S
C944 C945 1.391 . S
C945 C944 1.391 . S
C945 C946 1.405 . S
C946 H926 0.950 . S
C946 C945 1.405 . S
C946 C947 1.367 . S
C947 H927 0.950 . S
C947 C942 1.386 . S
C947 C946 1.367 . S
C948 C942 1.483 . S
C948 C949 1.382 . S
C948 C950 1.403 . S
C949 H928 0.950 . S
C949 C948 1.382 . S
C949 C965 1.411 . S
C950 C948 1.403 . S
C950 C951 1.489 . S
C950 C964 1.411 . S
C951 C950 1.489 . S
C951 C952 1.383 . S
C951 C956 1.382 . S
C952 H929 0.950 . S
C952 C951 1.383 . S
C952 C953 1.395 . S
C953 H930 0.950 . S
C953 C952 1.395 . S
C953 C954 1.288 . S
C954 C953 1.288 . S
C954 C955 1.392 . S
C955 H931 0.951 . S
C955 C954 1.392 . S
C955 C956 1.392 . S
C956 H932 0.949 . S
C956 C951 1.382 . S
C956 C955 1.392 . S
C957 C958 1.376 . S
C957 C962 1.386 . S
C957 C963 1.483 . S
C958 H933 0.949 . S
C958 C957 1.376 . S
C958 C959 1.397 . S
C959 H934 0.950 . S
C959 C958 1.397 . S
C959 C960 1.391 . S
C960 C959 1.391 . S
C960 C961 1.405 . S
C961 H935 0.950 . S
C961 C960 1.405 . S
C961 C962 1.367 . S
C962 H936 0.950 . S
C962 C957 1.386 . S
C962 C961 1.367 . S
C963 C957 1.483 . S
C963 C964 1.382 . S
C963 C965 1.403 . S
C964 H937 0.950 . S
C964 C950 1.411 . S
C964 C963 1.382 . S
C965 C949 1.411 . S
C965 C963 1.403 . S
C965 C966 1.489 . S
C966 C965 1.489 . S
C966 C967 1.383 . S
C966 C971 1.382 . S
C967 H938 0.950 . S
C967 C966 1.383 . S
C967 C968 1.395 . S
C968 H939 0.950 . S
C968 C967 1.395 . S
C968 C969 1.288 . S
C969 C968 1.288 . S
C969 C970 1.392 . S
C970 H940 0.951 . S
C970 C969 1.392 . S
C970 C971 1.392 . S
C971 H941 0.949 . S
C971 C966 1.382 . S
C971 C970 1.392 . S
H972 C991 0.949 . S
H973 C992 0.950 . S
H974 C994 0.950 . S
H975 C995 0.950 . S
H976 C997 0.950 . S
H977 C1000 0.950 . S
H978 C1001 0.950 . S
H979 C1003 0.951 . S
H980 C1004 0.949 . S
H981 C1006 0.949 . S
H982 C1007 0.950 . S
H983 C1009 0.950 . S
H984 C1010 0.950 . S
H985 C1012 0.950 . S
H986 C1015 0.950 . S
H987 C1016 0.950 . S
H988 C1018 0.951 . S
H989 C1019 0.949 . S
C990 C991 1.376 . S
C990 C995 1.386 . S
C990 C996 1.483 . S
C991 H972 0.949 . S
C991 C990 1.376 . S
C991 C992 1.397 . S
C992 H973 0.950 . S
C992 C991 1.397 . S
C992 C993 1.391 . S
C993 C992 1.391 . S
C993 C994 1.405 . S
C994 H974 0.950 . S
C994 C993 1.405 . S
C994 C995 1.367 . S
C995 H975 0.950 . S
C995 C990 1.386 . S
C995 C994 1.367 . S
C996 C990 1.483 . S
C996 C997 1.382 . S
C996 C998 1.403 . S
C997 H976 0.950 . S
C997 C996 1.382 . S
C997 C1013 1.411 . S
C998 C996 1.403 . S
C998 C999 1.489 . S
C998 C1012 1.411 . S
C999 C998 1.489 . S
C999 C1000 1.383 . S
C999 C1004 1.382 . S
C1000 H977 0.950 . S
C1000 C999 1.383 . S
C1000 C1001 1.395 . S
C1001 H978 0.950 . S
C1001 C1000 1.395 . S
C1001 C1002 1.288 . S
C1002 C1001 1.288 . S
C1002 C1003 1.392 . S
C1003 H979 0.951 . S
C1003 C1002 1.392 . S
C1003 C1004 1.392 . S
C1004 H980 0.949 . S
C1004 C999 1.382 . S
C1004 C1003 1.392 . S
C1005 C1006 1.376 . S
C1005 C1010 1.386 . S
C1005 C1011 1.483 . S
C1006 H981 0.949 . S
C1006 C1005 1.376 . S
C1006 C1007 1.397 . S
C1007 H982 0.950 . S
C1007 C1006 1.397 . S
C1007 C1008 1.391 . S
C1008 C1007 1.391 . S
C1008 C1009 1.405 . S
C1009 H983 0.950 . S
C1009 C1008 1.405 . S
C1009 C1010 1.367 . S
C1010 H984 0.950 . S
C1010 C1005 1.386 . S
C1010 C1009 1.367 . S
C1011 C1005 1.483 . S
C1011 C1012 1.382 . S
C1011 C1013 1.403 . S
C1012 H985 0.950 . S
C1012 C998 1.411 . S
C1012 C1011 1.382 . S
C1013 C997 1.411 . S
C1013 C1011 1.403 . S
C1013 C1014 1.489 . S
C1014 C1013 1.489 . S
C1014 C1015 1.383 . S
C1014 C1019 1.382 . S
C1015 H986 0.950 . S
C1015 C1014 1.383 . S
C1015 C1016 1.395 . S
C1016 H987 0.950 . S
C1016 C1015 1.395 . S
C1016 C1017 1.288 . S
C1017 C1016 1.288 . S
C1017 C1018 1.392 . S
C1018 H988 0.951 . S
C1018 C1017 1.392 . S
C1018 C1019 1.392 . S
C1019 H989 0.949 . S
C1019 C1014 1.382 . S
C1019 C1018 1.392 . S
H1020 C1039 0.949 . S
H1021 C1040 0.950 . S
H1022 C1042 0.950 . S
H1023 C1043 0.950 . S
H1024 C1045 0.950 . S
H1025 C1048 0.950 . S
H1026 C1049 0.950 . S
H1027 C1051 0.951 . S
H1028 C1052 0.949 . S
H1029 C1054 0.949 . S
H1030 C1055 0.950 . S
H1031 C1057 0.950 . S
H1032 C1058 0.950 . S
H1033 C1060 0.950 . S
H1034 C1063 0.950 . S
H1035 C1064 0.950 . S
H1036 C1066 0.951 . S
H1037 C1067 0.949 . S
C1038 C1039 1.376 . S
C1038 C1043 1.386 . S
C1038 C1044 1.483 . S
C1039 H1020 0.949 . S
C1039 C1038 1.376 . S
C1039 C1040 1.397 . S
C1040 H1021 0.950 . S
C1040 C1039 1.397 . S
C1040 C1041 1.391 . S
C1041 C1040 1.391 . S
C1041 C1042 1.405 . S
C1042 H1022 0.950 . S
C1042 C1041 1.405 . S
C1042 C1043 1.367 . S
C1043 H1023 0.950 . S
C1043 C1038 1.386 . S
C1043 C1042 1.367 . S
C1044 C1038 1.483 . S
C1044 C1045 1.382 . S
C1044 C1046 1.403 . S
C1045 H1024 0.950 . S
C1045 C1044 1.382 . S
C1045 C1061 1.411 . S
C1046 C1044 1.403 . S
C1046 C1047 1.489 . S
C1046 C1060 1.411 . S
C1047 C1046 1.489 . S
C1047 C1048 1.383 . S
C1047 C1052 1.382 . S
C1048 H1025 0.950 . S
C1048 C1047 1.383 . S
C1048 C1049 1.395 . S
C1049 H1026 0.950 . S
C1049 C1048 1.395 . S
C1049 C1050 1.288 . S
C1050 C1049 1.288 . S
C1050 C1051 1.392 . S
C1051 H1027 0.951 . S
C1051 C1050 1.392 . S
C1051 C1052 1.392 . S
C1052 H1028 0.949 . S
C1052 C1047 1.382 . S
C1052 C1051 1.392 . S
C1053 C1054 1.376 . S
C1053 C1058 1.386 . S
C1053 C1059 1.483 . S
C1054 H1029 0.949 . S
C1054 C1053 1.376 . S
C1054 C1055 1.397 . S
C1055 H1030 0.950 . S
C1055 C1054 1.397 . S
C1055 C1056 1.391 . S
C1056 C1055 1.391 . S
C1056 C1057 1.405 . S
C1057 H1031 0.950 . S
C1057 C1056 1.405 . S
C1057 C1058 1.367 . S
C1058 H1032 0.950 . S
C1058 C1053 1.386 . S
C1058 C1057 1.367 . S
C1059 C1053 1.483 . S
C1059 C1060 1.382 . S
C1059 C1061 1.403 . S
C1060 H1033 0.950 . S
C1060 C1046 1.411 . S
C1060 C1059 1.382 . S
C1061 C1045 1.411 . S
C1061 C1059 1.403 . S
C1061 C1062 1.489 . S
C1062 C1061 1.489 . S
C1062 C1063 1.383 . S
C1062 C1067 1.382 . S
C1063 H1034 0.950 . S
C1063 C1062 1.383 . S
C1063 C1064 1.395 . S
C1064 H1035 0.950 . S
C1064 C1063 1.395 . S
C1064 C1065 1.288 . S
C1065 C1064 1.288 . S
C1065 C1066 1.392 . S
C1066 H1036 0.951 . S
C1066 C1065 1.392 . S
C1066 C1067 1.392 . S
C1067 H1037 0.949 . S
C1067 C1062 1.382 . S
C1067 C1066 1.392 . S
H1068 C1087 0.949 . S
H1069 C1088 0.950 . S
H1070 C1090 0.950 . S
H1071 C1091 0.950 . S
H1072 C1093 0.950 . S
H1073 C1096 0.950 . S
H1074 C1097 0.950 . S
H1075 C1099 0.951 . S
H1076 C1100 0.949 . S
H1077 C1102 0.949 . S
H1078 C1103 0.950 . S
H1079 C1105 0.950 . S
H1080 C1106 0.950 . S
H1081 C1108 0.950 . S
H1082 C1111 0.950 . S
H1083 C1112 0.950 . S
H1084 C1114 0.951 . S
H1085 C1115 0.949 . S
C1086 C1087 1.376 . S
C1086 C1091 1.386 . S
C1086 C1092 1.483 . S
C1087 H1068 0.949 . S
C1087 C1086 1.376 . S
C1087 C1088 1.397 . S
C1088 H1069 0.950 . S
C1088 C1087 1.397 . S
C1088 C1089 1.391 . S
C1089 C1088 1.391 . S
C1089 C1090 1.405 . S
C1090 H1070 0.950 . S
C1090 C1089 1.405 . S
C1090 C1091 1.367 . S
C1091 H1071 0.950 . S
C1091 C1086 1.386 . S
C1091 C1090 1.367 . S
C1092 C1086 1.483 . S
C1092 C1093 1.382 . S
C1092 C1094 1.403 . S
C1093 H1072 0.950 . S
C1093 C1092 1.382 . S
C1093 C1109 1.411 . S
C1094 C1092 1.403 . S
C1094 C1095 1.489 . S
C1094 C1108 1.411 . S
C1095 C1094 1.489 . S
C1095 C1096 1.383 . S
C1095 C1100 1.382 . S
C1096 H1073 0.950 . S
C1096 C1095 1.383 . S
C1096 C1097 1.395 . S
C1097 H1074 0.950 . S
C1097 C1096 1.395 . S
C1097 C1098 1.288 . S
C1098 C1097 1.288 . S
C1098 C1099 1.392 . S
C1099 H1075 0.951 . S
C1099 C1098 1.392 . S
C1099 C1100 1.392 . S
C1100 H1076 0.949 . S
C1100 C1095 1.382 . S
C1100 C1099 1.392 . S
C1101 C1102 1.376 . S
C1101 C1106 1.386 . S
C1101 C1107 1.483 . S
C1102 H1077 0.949 . S
C1102 C1101 1.376 . S
C1102 C1103 1.397 . S
C1103 H1078 0.950 . S
C1103 C1102 1.397 . S
C1103 C1104 1.391 . S
C1104 C1103 1.391 . S
C1104 C1105 1.405 . S
C1105 H1079 0.950 . S
C1105 C1104 1.405 . S
C1105 C1106 1.367 . S
C1106 H1080 0.950 . S
C1106 C1101 1.386 . S
C1106 C1105 1.367 . S
C1107 C1101 1.483 . S
C1107 C1108 1.382 . S
C1107 C1109 1.403 . S
C1108 H1081 0.950 . S
C1108 C1094 1.411 . S
C1108 C1107 1.382 . S
C1109 C1093 1.411 . S
C1109 C1107 1.403 . S
C1109 C1110 1.489 . S
C1110 C1109 1.489 . S
C1110 C1111 1.383 . S
C1110 C1115 1.382 . S
C1111 H1082 0.950 . S
C1111 C1110 1.383 . S
C1111 C1112 1.395 . S
C1112 H1083 0.950 . S
C1112 C1111 1.395 . S
C1112 C1113 1.288 . S
C1113 C1112 1.288 . S
C1113 C1114 1.392 . S
C1114 H1084 0.951 . S
C1114 C1113 1.392 . S
C1114 C1115 1.392 . S
C1115 H1085 0.949 . S
C1115 C1110 1.382 . S
C1115 C1114 1.392 . S
H1116 C1122 0.930 . S
H1117 C1125 0.930 . S
H1118 C1126 0.930 . S
H1119 C1127 0.930 . S
H1120 C1130 0.930 . S
H1121 C1131 0.930 . S
C1122 H1116 0.930 . S
C1122 C1123 1.420 . S
C1122 C1124 1.415 . S
C1123 C1122 1.420 . S
C1123 C1125 1.369 1_655 S
C1124 C1122 1.415 . S
C1124 C1129 1.425 1_655 S
C1124 C1131 1.409 . S
C1125 H1117 0.930 . S
C1125 C1123 1.369 1_455 S
C1125 C1126 1.362 . S
C1126 H1118 0.930 . S
C1126 C1125 1.362 . S
C1126 C1129 1.409 . S
C1127 H1119 0.930 . S
C1127 C1128 1.355 1_455 S
C1127 C1129 1.415 . S
C1128 C1127 1.355 1_655 S
C1128 C1130 1.419 . S
C1129 C1124 1.425 1_455 S
C1129 C1126 1.409 . S
C1129 C1127 1.415 . S
C1130 H1120 0.930 . S
C1130 C1128 1.419 . S
C1130 C1131 1.362 . S
C1131 H1121 0.930 . S
C1131 C1124 1.409 . S
C1131 C1130 1.362 . S
H1132 C1138 0.930 . S
H1133 C1141 0.930 . S
H1134 C1142 0.930 . S
H1135 C1143 0.930 . S
H1136 C1146 0.930 . S
H1137 C1147 0.930 . S
C1138 H1132 0.930 . S
C1138 C1139 1.355 . S
C1138 C1140 1.415 . S
C1139 C1138 1.355 . S
C1139 C1141 1.419 . S
C1140 C1138 1.415 . S
C1140 C1145 1.425 . S
C1140 C1147 1.409 . S
C1141 H1133 0.930 . S
C1141 C1139 1.419 . S
C1141 C1142 1.362 . S
C1142 H1134 0.930 . S
C1142 C1141 1.362 . S
C1142 C1145 1.409 . S
C1143 H1135 0.930 . S
C1143 C1144 1.355 . S
C1143 C1145 1.415 . S
C1144 C1143 1.355 . S
C1144 C1146 1.419 . S
C1145 C1140 1.425 . S
C1145 C1142 1.409 . S
C1145 C1143 1.415 . S
C1146 H1136 0.930 . S
C1146 C1144 1.419 . S
C1146 C1147 1.362 . S
C1147 H1137 0.930 . S
C1147 C1140 1.409 . S
C1147 C1146 1.362 . S
H1148 C1154 0.930 . S
H1149 C1157 0.930 . S
H1150 C1158 0.930 . S
H1151 C1159 0.930 . S
H1152 C1162 0.930 . S
H1153 C1163 0.930 . S
C1154 H1148 0.930 . S
C1154 C1155 1.355 . S
C1154 C1156 1.415 . S
C1155 C1154 1.355 . S
C1155 C1157 1.419 1_545 S
C1156 C1154 1.415 . S
C1156 C1161 1.425 . S
C1156 C1163 1.409 . S
C1157 H1149 0.930 . S
C1157 C1155 1.419 1_565 S
C1157 C1158 1.362 . S
C1158 H1150 0.930 . S
C1158 C1157 1.362 . S
C1158 C1161 1.409 1_565 S
C1159 H1151 0.930 . S
C1159 C1160 1.355 1_565 S
C1159 C1161 1.415 1_565 S
C1160 C1159 1.355 1_545 S
C1160 C1162 1.419 . S
C1161 C1156 1.425 . S
C1161 C1158 1.409 1_545 S
C1161 C1159 1.415 1_545 S
C1162 H1152 0.930 . S
C1162 C1160 1.419 . S
C1162 C1163 1.362 . S
C1163 H1153 0.930 . S
C1163 C1156 1.409 . S
C1163 C1162 1.362 . S
H1164 C1170 0.930 . S
H1165 C1173 0.930 . S
H1166 C1174 0.930 . S
H1167 C1175 0.930 . S
H1168 C1178 0.930 . S
H1169 C1179 0.930 . S
C1170 H1164 0.930 . S
C1170 C1171 1.355 1_545 S
C1170 C1172 1.415 . S
C1171 C1170 1.355 1_565 S
C1171 C1173 1.419 . S
C1172 C1170 1.415 . S
C1172 C1177 1.425 1_545 S
C1172 C1179 1.409 . S
C1173 H1165 0.930 . S
C1173 C1171 1.419 . S
C1173 C1174 1.362 . S
C1174 H1166 0.930 . S
C1174 C1173 1.362 . S
C1174 C1177 1.409 . S
C1175 H1167 0.930 . S
C1175 C1176 1.374 . S
C1175 C1177 1.415 . S
C1176 C1175 1.374 . S
C1176 C1178 1.373 1_565 S
C1177 C1172 1.425 1_565 S
C1177 C1174 1.409 . S
C1177 C1175 1.415 . S
C1178 H1168 0.930 . S
C1178 C1176 1.373 1_545 S
C1178 C1179 1.362 . S
C1179 H1169 0.930 . S
C1179 C1172 1.409 . S
C1179 C1178 1.362 . S
H1180 C1186 0.930 1_655 S
H1181 C1189 0.930 . S
H1182 C1190 0.930 . S
H1183 C1191 0.930 . S
H1184 C1194 0.930 . S
H1185 C1195 0.930 . S
C1186 H1180 0.930 1_455 S
C1186 C1187 1.355 . S
C1186 C1188 1.415 . S
C1187 C1186 1.355 . S
C1187 C1189 1.419 . S
C1188 C1186 1.415 . S
C1188 C1193 1.425 . S
C1188 C1195 1.409 1_455 S
C1189 H1181 0.930 . S
C1189 C1187 1.419 . S
C1189 C1190 1.362 . S
C1190 H1182 0.930 . S
C1190 C1189 1.362 . S
C1190 C1193 1.409 . S
C1191 H1183 0.930 . S
C1191 C1192 1.355 . S
C1191 C1193 1.415 . S
C1192 C1191 1.355 . S
C1192 C1194 1.419 1_455 S
C1193 C1188 1.425 . S
C1193 C1190 1.409 . S
C1193 C1191 1.415 . S
C1194 H1184 0.930 . S
C1194 C1192 1.419 1_655 S
C1194 C1195 1.362 . S
C1195 H1185 0.930 . S
C1195 C1188 1.409 1_655 S
C1195 C1194 1.362 . S
H1196 C1202 0.930 . S
H1197 C1205 0.930 . S
H1198 C1206 0.930 . S
H1199 C1207 0.930 . S
H1200 C1210 0.930 . S
H1201 C1211 0.930 . S
C1202 H1196 0.930 . S
C1202 C1203 1.355 . S
C1202 C1204 1.415 . S
C1203 C1202 1.355 . S
C1203 C1205 1.419 . S
C1204 C1202 1.415 . S
C1204 C1209 1.425 . S
C1204 C1211 1.409 . S
C1205 H1197 0.930 . S
C1205 C1203 1.419 . S
C1205 C1206 1.362 . S
C1206 H1198 0.930 . S
C1206 C1205 1.362 . S
C1206 C1209 1.409 . S
C1207 H1199 0.930 . S
C1207 C1208 1.355 . S
C1207 C1209 1.415 . S
C1208 C1207 1.355 . S
C1208 C1210 1.419 . S
C1209 C1204 1.425 . S
C1209 C1206 1.409 . S
C1209 C1207 1.415 . S
C1210 H1200 0.930 . S
C1210 C1208 1.419 . S
C1210 C1211 1.362 . S
C1211 H1201 0.930 . S
C1211 C1204 1.409 . S
C1211 C1210 1.362 . S
H1212 C1218 0.930 . S
H1213 C1221 0.930 . S
H1214 C1222 0.930 . S
H1215 C1223 0.930 . S
H1216 C1226 0.930 . S
H1217 C1227 0.930 . S
C1218 H1212 0.930 . S
C1218 C1219 1.355 1_655 S
C1218 C1220 1.415 . S
C1219 C1218 1.355 1_455 S
C1219 C1221 1.419 . S
C1220 C1218 1.415 . S
C1220 C1225 1.425 1_655 S
C1220 C1227 1.409 . S
C1221 H1213 0.930 . S
C1221 C1219 1.419 . S
C1221 C1222 1.362 . S
C1222 H1214 0.930 . S
C1222 C1221 1.362 . S
C1222 C1225 1.409 . S
C1223 H1215 0.930 . S
C1223 C1224 1.355 . S
C1223 C1225 1.415 . S
C1224 C1223 1.355 . S
C1224 C1226 1.419 1_455 S
C1225 C1220 1.425 1_455 S
C1225 C1222 1.409 . S
C1225 C1223 1.415 . S
C1226 H1216 0.930 . S
C1226 C1224 1.419 1_655 S
C1226 C1227 1.362 . S
C1227 H1217 0.930 . S
C1227 C1220 1.409 . S
C1227 C1226 1.362 . S
H1228 C1234 0.930 . S
H1229 C1237 0.930 . S
H1230 C1238 0.930 . S
H1231 C1239 0.930 . S
H1232 C1242 0.930 . S
H1233 C1243 0.930 . S
C1234 H1228 0.930 . S
C1234 C1235 1.355 . S
C1234 C1236 1.415 . S
C1235 C1234 1.355 . S
C1235 C1237 1.419 . S
C1236 C1234 1.415 . S
C1236 C1241 1.425 . S
C1236 C1243 1.409 . S
C1237 H1229 0.930 . S
C1237 C1235 1.419 . S
C1237 C1238 1.362 . S
C1238 H1230 0.930 . S
C1238 C1237 1.362 . S
C1238 C1241 1.409 . S
C1239 H1231 0.930 . S
C1239 C1240 1.355 . S
C1239 C1241 1.415 . S
C1240 C1239 1.355 . S
C1240 C1242 1.419 . S
C1241 C1236 1.425 . S
C1241 C1238 1.409 . S
C1241 C1239 1.415 . S
C1242 H1232 0.930 . S
C1242 C1240 1.419 . S
C1242 C1243 1.362 . S
C1243 H1233 0.930 . S
C1243 C1236 1.409 . S
C1243 C1242 1.362 . S
H1244 C1250 0.930 . S
H1245 C1253 0.930 . S
H1246 C1254 0.930 . S
H1247 C1255 0.930 . S
H1248 C1258 0.930 . S
H1249 C1259 0.930 . S
C1250 H1244 0.930 . S
C1250 C1251 1.355 1_545 S
C1250 C1252 1.415 . S
C1251 C1250 1.355 1_565 S
C1251 C1253 1.419 . S
C1252 C1250 1.415 . S
C1252 C1257 1.425 1_545 S
C1252 C1259 1.409 . S
C1253 H1245 0.930 . S
C1253 C1251 1.419 . S
C1253 C1254 1.362 . S
C1254 H1246 0.930 . S
C1254 C1253 1.362 . S
C1254 C1257 1.409 . S
C1255 H1247 0.930 . S
C1255 C1256 1.355 . S
C1255 C1257 1.415 . S
C1256 C1255 1.355 . S
C1256 C1258 1.419 1_565 S
C1257 C1252 1.425 1_565 S
C1257 C1254 1.409 . S
C1257 C1255 1.415 . S
C1258 H1248 0.930 . S
C1258 C1256 1.419 1_545 S
C1258 C1259 1.362 . S
C1259 H1249 0.930 . S
C1259 C1252 1.409 . S
C1259 C1258 1.362 . S
H1260 C1266 0.930 . S
H1261 C1269 0.930 . S
H1262 C1270 0.930 . S
H1263 C1271 0.930 . S
H1264 C1274 0.930 . S
H1265 C1275 0.930 . S
C1266 H1260 0.930 . S
C1266 C1267 1.355 1_565 S
C1266 C1268 1.415 . S
C1267 C1266 1.355 1_545 S
C1267 C1269 1.419 . S
C1268 C1266 1.415 . S
C1268 C1273 1.425 1_565 S
C1268 C1275 1.409 . S
C1269 H1261 0.930 . S
C1269 C1267 1.419 . S
C1269 C1270 1.362 . S
C1270 H1262 0.930 . S
C1270 C1269 1.362 . S
C1270 C1273 1.409 . S
C1271 H1263 0.930 . S
C1271 C1272 1.355 . S
C1271 C1273 1.415 . S
C1272 C1271 1.355 . S
C1272 C1274 1.419 1_545 S
C1273 C1268 1.425 1_545 S
C1273 C1270 1.409 . S
C1273 C1271 1.415 . S
C1274 H1264 0.930 . S
C1274 C1272 1.419 1_565 S
C1274 C1275 1.362 . S
C1275 H1265 0.930 . S
C1275 C1268 1.409 . S
C1275 C1274 1.362 . S
H1276 C1282 0.930 . S
H1277 C1285 0.930 . S
H1278 C1286 0.930 . S
H1279 C1287 0.890 1_455 S
H1280 C1290 0.930 . S
H1281 C1291 0.930 . S
C1282 H1276 0.930 . S
C1282 C1283 1.355 . S
C1282 C1284 1.415 . S
C1283 C1282 1.355 . S
C1283 C1285 1.419 1_655 S
C1284 C1282 1.415 . S
C1284 C1289 1.425 . S
C1284 C1291 1.409 . S
C1285 H1277 0.930 . S
C1285 C1283 1.419 1_455 S
C1285 C1286 1.362 . S
C1286 H1278 0.930 . S
C1286 C1285 1.362 . S
C1286 C1289 1.409 1_455 S
C1287 H1279 0.890 1_655 S
C1287 C1288 1.355 . S
C1287 C1289 1.415 . S
C1288 C1287 1.355 . S
C1288 C1290 1.419 . S
C1289 C1284 1.425 . S
C1289 C1286 1.409 1_655 S
C1289 C1287 1.415 . S
C1290 H1280 0.930 . S
C1290 C1288 1.419 . S
C1290 C1291 1.362 . S
C1291 H1281 0.930 . S
C1291 C1284 1.409 . S
C1291 C1290 1.362 . S
H1292 C1298 0.930 . S
H1293 C1301 0.930 . S
H1294 C1302 0.930 . S
H1295 C1303 0.930 . S
H1296 C1306 0.930 . S
H1297 C1307 0.930 . S
C1298 H1292 0.930 . S
C1298 C1299 1.355 . S
C1298 C1300 1.415 . S
C1299 C1298 1.355 . S
C1299 C1301 1.419 . S
C1300 C1298 1.415 . S
C1300 C1305 1.425 . S
C1300 C1307 1.409 . S
C1301 H1293 0.930 . S
C1301 C1299 1.419 . S
C1301 C1302 1.362 . S
C1302 H1294 0.930 . S
C1302 C1301 1.362 . S
C1302 C1305 1.409 . S
C1303 H1295 0.930 . S
C1303 C1304 1.355 . S
C1303 C1305 1.415 . S
C1304 C1303 1.355 . S
C1304 C1306 1.419 . S
C1305 C1300 1.425 . S
C1305 C1302 1.409 . S
C1305 C1303 1.415 . S
C1306 H1296 0.930 . S
C1306 C1304 1.419 . S
C1306 C1307 1.362 . S
C1307 H1297 0.930 . S
C1307 C1300 1.409 . S
C1307 C1306 1.362 . S
H1308 C1314 0.930 . S
H1309 C1317 0.930 . S
H1310 C1318 0.930 . S
H1311 C1319 0.930 . S
H1312 C1322 0.930 . S
H1313 C1323 0.930 . S
C1314 H1308 0.930 . S
C1314 C1315 1.355 . S
C1314 C1316 1.415 . S
C1315 C1314 1.355 . S
C1315 C1317 1.419 . S
C1316 C1314 1.415 . S
C1316 C1321 1.425 . S
C1316 C1323 1.409 . S
C1317 H1309 0.930 . S
C1317 C1315 1.419 . S
C1317 C1318 1.362 . S
C1318 H1310 0.930 . S
C1318 C1317 1.362 . S
C1318 C1321 1.409 . S
C1319 H1311 0.930 . S
C1319 C1320 1.355 . S
C1319 C1321 1.415 . S
C1320 C1319 1.355 . S
C1320 C1322 1.419 . S
C1321 C1316 1.425 . S
C1321 C1318 1.409 . S
C1321 C1319 1.415 . S
C1322 H1312 0.930 . S
C1322 C1320 1.419 . S
C1322 C1323 1.362 . S
C1323 H1313 0.930 . S
C1323 C1316 1.409 . S
C1323 C1322 1.362 . S
H1324 C1330 0.930 . S
H1325 C1333 0.930 . S
H1326 C1334 0.930 . S
H1327 C1335 0.930 . S
H1328 C1338 0.930 . S
H1329 C1339 0.930 . S
C1330 H1324 0.930 . S
C1330 C1331 1.355 . S
C1330 C1332 1.415 . S
C1331 C1330 1.355 . S
C1331 C1333 1.419 . S
C1332 C1330 1.415 . S
C1332 C1337 1.425 . S
C1332 C1339 1.409 . S
C1333 H1325 0.930 . S
C1333 C1331 1.419 . S
C1333 C1334 1.362 . S
C1334 H1326 0.930 . S
C1334 C1333 1.362 . S
C1334 C1337 1.409 . S
C1335 H1327 0.930 . S
C1335 C1336 1.355 . S
C1335 C1337 1.415 . S
C1336 C1335 1.355 . S
C1336 C1338 1.419 . S
C1337 C1332 1.425 . S
C1337 C1334 1.409 . S
C1337 C1335 1.415 . S
C1338 H1328 0.930 . S
C1338 C1336 1.419 . S
C1338 C1339 1.362 . S
C1339 H1329 0.930 . S
C1339 C1332 1.409 . S
C1339 C1338 1.362 . S
H1340 C1346 0.930 . S
H1341 C1349 0.930 . S
H1342 C1350 0.930 . S
H1343 C1351 0.930 . S
H1344 C1354 0.930 . S
H1345 C1355 0.930 . S
C1346 H1340 0.930 . S
C1346 C1347 1.355 . S
C1346 C1348 1.415 . S
C1347 C1346 1.355 . S
C1347 C1349 1.419 . S
C1348 C1346 1.415 . S
C1348 C1353 1.425 . S
C1348 C1355 1.409 . S
C1349 H1341 0.930 . S
C1349 C1347 1.419 . S
C1349 C1350 1.362 . S
C1350 H1342 0.930 . S
C1350 C1349 1.362 . S
C1350 C1353 1.409 . S
C1351 H1343 0.930 . S
C1351 C1352 1.355 . S
C1351 C1353 1.415 . S
C1352 C1351 1.355 . S
C1352 C1354 1.419 . S
C1353 C1348 1.425 . S
C1353 C1350 1.409 . S
C1353 C1351 1.415 . S
C1354 H1344 0.930 . S
C1354 C1352 1.419 . S
C1354 C1355 1.362 . S
C1355 H1345 0.930 . S
C1355 C1348 1.409 . S
C1355 C1354 1.362 . S
H1356 C1362 0.930 . S
H1357 C1365 0.930 . S
H1358 C1366 0.930 . S
H1359 C1367 0.930 . S
H1360 C1370 0.930 . S
H1361 C1371 0.930 . S
C1362 H1356 0.930 . S
C1362 C1363 1.355 . S
C1362 C1364 1.415 . S
C1363 C1362 1.355 . S
C1363 C1365 1.419 . S
C1364 C1362 1.415 . S
C1364 C1369 1.425 . S
C1364 C1371 1.409 . S
C1365 H1357 0.930 . S
C1365 C1363 1.419 . S
C1365 C1366 1.362 . S
C1366 H1358 0.930 . S
C1366 C1365 1.362 . S
C1366 C1369 1.409 . S
C1367 H1359 0.930 . S
C1367 C1368 1.355 . S
C1367 C1369 1.415 . S
C1368 C1367 1.355 . S
C1368 C1370 1.419 . S
C1369 C1364 1.425 . S
C1369 C1366 1.409 . S
C1369 C1367 1.415 . S
C1370 H1360 0.930 . S
C1370 C1368 1.419 . S
C1370 C1371 1.362 . S
C1371 H1361 0.930 . S
C1371 C1364 1.409 . S
C1371 C1370 1.362 . S
H1372 C1378 0.930 . S
H1373 C1381 0.930 . S
H1374 C1382 0.930 . S
H1375 C1383 0.930 . S
H1376 C1386 0.930 . S
H1377 C1387 0.930 . S
C1378 H1372 0.930 . S
C1378 C1379 1.355 . S
C1378 C1380 1.415 . S
C1379 C1378 1.355 . S
C1379 C1381 1.419 . S
C1380 C1378 1.415 . S
C1380 C1385 1.425 . S
C1380 C1387 1.409 . S
C1381 H1373 0.930 . S
C1381 C1379 1.419 . S
C1381 C1382 1.362 . S
C1382 H1374 0.930 . S
C1382 C1381 1.362 . S
C1382 C1385 1.409 . S
C1383 H1375 0.930 . S
C1383 C1384 1.355 . S
C1383 C1385 1.415 . S
C1384 C1383 1.355 . S
C1384 C1386 1.419 . S
C1385 C1380 1.425 . S
C1385 C1382 1.409 . S
C1385 C1383 1.415 . S
C1386 H1376 0.930 . S
C1386 C1384 1.419 . S
C1386 C1387 1.362 . S
C1387 H1377 0.930 . S
C1387 C1380 1.409 . S
C1387 C1386 1.362 . S
H1388 C1394 0.930 . S
H1389 C1397 0.930 . S
H1390 C1398 0.930 . S
H1391 C1399 0.930 . S
H1392 C1402 0.930 . S
H1393 C1403 0.930 . S
C1394 H1388 0.930 . S
C1394 C1395 1.355 . S
C1394 C1396 1.415 . S
C1395 C1394 1.355 . S
C1395 C1397 1.419 . S
C1396 C1394 1.415 . S
C1396 C1401 1.425 . S
C1396 C1403 1.409 . S
C1397 H1389 0.930 . S
C1397 C1395 1.419 . S
C1397 C1398 1.362 . S
C1398 H1390 0.930 . S
C1398 C1397 1.362 . S
C1398 C1401 1.409 . S
C1399 H1391 0.930 . S
C1399 C1400 1.355 . S
C1399 C1401 1.415 . S
C1400 C1399 1.355 . S
C1400 C1402 1.419 . S
C1401 C1396 1.425 . S
C1401 C1398 1.409 . S
C1401 C1399 1.415 . S
C1402 H1392 0.930 . S
C1402 C1400 1.419 . S
C1402 C1403 1.362 . S
C1403 H1393 0.930 . S
C1403 C1396 1.409 . S
C1403 C1402 1.362 . S
H1404 C1410 0.930 . S
H1405 C1413 0.930 . S
H1406 C1414 0.930 . S
H1407 C1415 0.930 . S
H1408 C1418 0.930 . S
H1409 C1419 0.930 . S
C1410 H1404 0.930 . S
C1410 C1411 1.355 . S
C1410 C1412 1.415 . S
C1411 C1410 1.355 . S
C1411 C1413 1.419 . S
C1412 C1410 1.415 . S
C1412 C1417 1.425 . S
C1412 C1419 1.409 . S
C1413 H1405 0.930 . S
C1413 C1411 1.419 . S
C1413 C1414 1.362 . S
C1414 H1406 0.930 . S
C1414 C1413 1.362 . S
C1414 C1417 1.409 . S
C1415 H1407 0.930 . S
C1415 C1416 1.355 . S
C1415 C1417 1.415 . S
C1416 C1415 1.355 . S
C1416 C1418 1.419 . S
C1417 C1412 1.425 . S
C1417 C1414 1.409 . S
C1417 C1415 1.415 . S
C1418 H1408 0.930 . S
C1418 C1416 1.419 . S
C1418 C1419 1.362 . S
C1419 H1409 0.930 . S
C1419 C1412 1.409 . S
C1419 C1418 1.362 . S
H1420 C1426 0.930 . S
H1421 C1429 0.930 . S
H1422 C1430 0.930 . S
H1423 C1431 0.930 . S
H1424 C1434 0.930 . S
H1425 C1435 0.930 . S
C1426 H1420 0.930 . S
C1426 C1427 1.355 . S
C1426 C1428 1.415 . S
C1427 C1426 1.355 . S
C1427 C1429 1.419 . S
C1428 C1426 1.415 . S
C1428 C1433 1.425 . S
C1428 C1435 1.409 . S
C1429 H1421 0.930 . S
C1429 C1427 1.419 . S
C1429 C1430 1.362 . S
C1430 H1422 0.930 . S
C1430 C1429 1.362 . S
C1430 C1433 1.409 . S
C1431 H1423 0.930 . S
C1431 C1432 1.355 . S
C1431 C1433 1.415 . S
C1432 C1431 1.355 . S
C1432 C1434 1.419 . S
C1433 C1428 1.425 . S
C1433 C1430 1.409 . S
C1433 C1431 1.415 . S
C1434 H1424 0.930 . S
C1434 C1432 1.419 . S
C1434 C1435 1.362 . S
C1435 H1425 0.930 . S
C1435 C1428 1.409 . S
C1435 C1434 1.362 . S
H1436 C1442 0.930 . S
H1437 C1445 0.930 . S
H1438 C1446 0.930 . S
H1439 C1447 0.930 . S
H1440 C1450 0.930 . S
H1441 C1451 0.930 . S
C1442 H1436 0.930 . S
C1442 C1443 1.355 . S
C1442 C1444 1.415 . S
C1443 C1442 1.355 . S
C1443 C1445 1.419 . S
C1444 C1442 1.415 . S
C1444 C1449 1.425 . S
C1444 C1451 1.409 . S
C1445 H1437 0.930 . S
C1445 C1443 1.419 . S
C1445 C1446 1.362 . S
C1446 H1438 0.930 . S
C1446 C1445 1.362 . S
C1446 C1449 1.409 . S
C1447 H1439 0.930 . S
C1447 C1448 1.355 . S
C1447 C1449 1.415 . S
C1448 C1447 1.355 . S
C1448 C1450 1.419 . S
C1449 C1444 1.425 . S
C1449 C1446 1.409 . S
C1449 C1447 1.415 . S
C1450 H1440 0.930 . S
C1450 C1448 1.419 . S
C1450 C1451 1.362 . S
C1451 H1441 0.930 . S
C1451 C1444 1.409 . S
C1451 C1450 1.362 . S
H1452 C1458 0.930 . S
H1453 C1461 0.930 . S
H1454 C1462 0.930 . S
H1455 C1463 0.930 . S
H1456 C1466 0.930 . S
H1457 C1467 0.930 . S
C1458 H1452 0.930 . S
C1458 C1459 1.355 . S
C1458 C1460 1.415 . S
C1459 C1458 1.355 . S
C1459 C1461 1.419 . S
C1460 C1458 1.415 . S
C1460 C1465 1.425 . S
C1460 C1467 1.409 . S
C1461 H1453 0.930 . S
C1461 C1459 1.419 . S
C1461 C1462 1.362 . S
C1462 H1454 0.930 . S
C1462 C1461 1.362 . S
C1462 C1465 1.409 . S
C1463 H1455 0.930 . S
C1463 C1464 1.355 . S
C1463 C1465 1.415 . S
C1464 C1463 1.355 . S
C1464 C1466 1.419 . S
C1465 C1460 1.425 . S
C1465 C1462 1.409 . S
C1465 C1463 1.415 . S
C1466 H1456 0.930 . S
C1466 C1464 1.419 . S
C1466 C1467 1.362 . S
C1467 H1457 0.930 . S
C1467 C1460 1.409 . S
C1467 C1466 1.362 . S
H1468 C1474 0.930 . S
H1469 C1477 0.930 . S
H1470 C1478 0.930 . S
H1471 C1479 0.930 . S
H1472 C1482 0.930 . S
H1473 C1483 0.930 . S
C1474 H1468 0.930 . S
C1474 C1475 1.355 . S
C1474 C1476 1.415 . S
C1475 C1474 1.355 . S
C1475 C1477 1.419 . S
C1476 C1474 1.415 . S
C1476 C1481 1.425 . S
C1476 C1483 1.409 . S
C1477 H1469 0.930 . S
C1477 C1475 1.419 . S
C1477 C1478 1.362 . S
C1478 H1470 0.930 . S
C1478 C1477 1.362 . S
C1478 C1481 1.409 . S
C1479 H1471 0.930 . S
C1479 C1480 1.355 . S
C1479 C1481 1.415 . S
C1480 C1479 1.355 . S
C1480 C1482 1.419 . S
C1481 C1476 1.425 . S
C1481 C1478 1.409 . S
C1481 C1479 1.415 . S
C1482 H1472 0.930 . S
C1482 C1480 1.419 . S
C1482 C1483 1.362 . S
C1483 H1473 0.930 . S
C1483 C1476 1.409 . S
C1483 C1482 1.362 . S
H1484 C1490 0.930 . S
H1485 C1493 0.930 . S
H1486 C1494 0.930 . S
H1487 C1495 0.930 . S
H1488 C1498 0.930 . S
H1489 C1499 0.930 . S
C1490 H1484 0.930 . S
C1490 C1491 1.355 . S
C1490 C1492 1.415 . S
C1491 C1490 1.355 . S
C1491 C1493 1.419 . S
C1492 C1490 1.415 . S
C1492 C1497 1.425 . S
C1492 C1499 1.409 . S
C1493 H1485 0.930 . S
C1493 C1491 1.419 . S
C1493 C1494 1.362 . S
C1494 H1486 0.930 . S
C1494 C1493 1.362 . S
C1494 C1497 1.409 . S
C1495 H1487 0.930 . S
C1495 C1496 1.355 . S
C1495 C1497 1.415 . S
C1496 C1495 1.355 . S
C1496 C1498 1.419 . S
C1497 C1492 1.425 . S
C1497 C1494 1.409 . S
C1497 C1495 1.415 . S
C1498 H1488 0.930 . S
C1498 C1496 1.419 . S
C1498 C1499 1.362 . S
C1499 H1489 0.930 . S
C1499 C1492 1.409 . S
C1499 C1498 1.362 . S
H1500 C1506 0.930 . S
H1501 C1509 0.930 . S
H1502 C1510 0.930 . S
H1503 C1511 0.930 . S
H1504 C1514 0.930 . S
H1505 C1515 0.930 . S
C1506 H1500 0.930 . S
C1506 C1507 1.355 . S
C1506 C1508 1.415 . S
C1507 C1506 1.355 . S
C1507 C1509 1.419 . S
C1508 C1506 1.415 . S
C1508 C1513 1.425 . S
C1508 C1515 1.409 . S
C1509 H1501 0.930 . S
C1509 C1507 1.419 . S
C1509 C1510 1.362 . S
C1510 H1502 0.930 . S
C1510 C1509 1.362 . S
C1510 C1513 1.409 . S
C1511 H1503 0.930 . S
C1511 C1512 1.355 . S
C1511 C1513 1.415 . S
C1512 C1511 1.355 . S
C1512 C1514 1.419 . S
C1513 C1508 1.425 . S
C1513 C1510 1.409 . S
C1513 C1511 1.415 . S
C1514 H1504 0.930 . S
C1514 C1512 1.419 . S
C1514 C1515 1.362 . S
C1515 H1505 0.930 . S
C1515 C1508 1.409 . S
C1515 C1514 1.362 . S
H1516 C1522 0.930 . S
H1517 C1525 0.930 . S
H1518 C1526 0.930 . S
H1519 C1527 0.930 . S
H1520 C1530 0.930 . S
H1521 C1531 0.930 . S
C1522 H1516 0.930 . S
C1522 C1523 1.355 . S
C1522 C1524 1.415 . S
C1523 C1522 1.355 . S
C1523 C1525 1.419 . S
C1524 C1522 1.415 . S
C1524 C1529 1.425 . S
C1524 C1531 1.409 . S
C1525 H1517 0.930 . S
C1525 C1523 1.419 . S
C1525 C1526 1.362 . S
C1526 H1518 0.930 . S
C1526 C1525 1.362 . S
C1526 C1529 1.409 . S
C1527 H1519 0.930 . S
C1527 C1528 1.355 . S
C1527 C1529 1.415 . S
C1528 C1527 1.355 . S
C1528 C1530 1.419 . S
C1529 C1524 1.425 . S
C1529 C1526 1.409 . S
C1529 C1527 1.415 . S
C1530 H1520 0.930 . S
C1530 C1528 1.419 . S
C1530 C1531 1.362 . S
C1531 H1521 0.930 . S
C1531 C1524 1.409 . S
C1531 C1530 1.362 . S
H1532 C1538 0.930 . S
H1533 C1541 0.930 . S
H1534 C1542 0.930 . S
H1535 C1543 0.930 . S
H1536 C1546 0.930 . S
H1537 C1547 0.930 . S
C1538 H1532 0.930 . S
C1538 C1539 1.355 . S
C1538 C1540 1.415 . S
C1539 C1538 1.355 . S
C1539 C1541 1.419 . S
C1540 C1538 1.415 . S
C1540 C1545 1.425 . S
C1540 C1547 1.409 . S
C1541 H1533 0.930 . S
C1541 C1539 1.419 . S
C1541 C1542 1.362 . S
C1542 H1534 0.930 . S
C1542 C1541 1.362 . S
C1542 C1545 1.409 . S
C1543 H1535 0.930 . S
C1543 C1544 1.355 . S
C1543 C1545 1.415 . S
C1544 C1543 1.355 . S
C1544 C1546 1.419 . S
C1545 C1540 1.425 . S
C1545 C1542 1.409 . S
C1545 C1543 1.415 . S
C1546 H1536 0.930 . S
C1546 C1544 1.419 . S
C1546 C1547 1.362 . S
C1547 H1537 0.930 . S
C1547 C1540 1.409 . S
C1547 C1546 1.362 . S
H1548 C1554 0.930 . S
H1549 C1557 0.930 . S
H1550 C1558 0.930 . S
H1551 C1559 0.930 . S
H1552 C1562 0.930 . S
H1553 C1563 0.930 . S
C1554 H1548 0.930 . S
C1554 C1555 1.355 . S
C1554 C1556 1.415 . S
C1555 C1554 1.355 . S
C1555 C1557 1.419 . S
C1556 C1554 1.415 . S
C1556 C1561 1.425 . S
C1556 C1563 1.409 . S
C1557 H1549 0.930 . S
C1557 C1555 1.419 . S
C1557 C1558 1.362 . S
C1558 H1550 0.930 . S
C1558 C1557 1.362 . S
C1558 C1561 1.409 . S
C1559 H1551 0.930 . S
C1559 C1560 1.355 . S
C1559 C1561 1.415 . S
C1560 C1559 1.355 . S
C1560 C1562 1.419 . S
C1561 C1556 1.425 . S
C1561 C1558 1.409 . S
C1561 C1559 1.415 . S
C1562 H1552 0.930 . S
C1562 C1560 1.419 . S
C1562 C1563 1.362 . S
C1563 H1553 0.930 . S
C1563 C1556 1.409 . S
C1563 C1562 1.362 . S
H1564 C1570 0.930 . S
H1565 C1573 0.930 . S
H1566 C1574 0.930 . S
H1567 C1575 0.930 . S
H1568 C1578 0.930 . S
H1569 C1579 0.930 . S
C1570 H1564 0.930 . S
C1570 C1571 1.355 . S
C1570 C1572 1.415 . S
C1571 C1570 1.355 . S
C1571 C1573 1.419 . S
C1572 C1570 1.415 . S
C1572 C1577 1.425 . S
C1572 C1579 1.409 . S
C1573 H1565 0.930 . S
C1573 C1571 1.419 . S
C1573 C1574 1.362 . S
C1574 H1566 0.930 . S
C1574 C1573 1.362 . S
C1574 C1577 1.409 . S
C1575 H1567 0.930 . S
C1575 C1576 1.355 . S
C1575 C1577 1.415 . S
C1576 C1575 1.355 . S
C1576 C1578 1.419 . S
C1577 C1572 1.425 . S
C1577 C1574 1.409 . S
C1577 C1575 1.415 . S
C1578 H1568 0.930 . S
C1578 C1576 1.419 . S
C1578 C1579 1.362 . S
C1579 H1569 0.930 . S
C1579 C1572 1.409 . S
C1579 C1578 1.362 . S
H1580 C1586 0.930 . S
H1581 C1589 0.930 . S
H1582 C1590 0.930 . S
H1583 C1591 0.930 . S
H1584 C1594 0.930 . S
H1585 C1595 0.930 . S
C1586 H1580 0.930 . S
C1586 C1587 1.355 . S
C1586 C1588 1.415 . S
C1587 C1586 1.355 . S
C1587 C1589 1.419 . S
C1588 C1586 1.415 . S
C1588 C1593 1.425 . S
C1588 C1595 1.409 . S
C1589 H1581 0.930 . S
C1589 C1587 1.419 . S
C1589 C1590 1.362 . S
C1590 H1582 0.930 . S
C1590 C1589 1.362 . S
C1590 C1593 1.409 . S
C1591 H1583 0.930 . S
C1591 C1592 1.355 . S
C1591 C1593 1.415 . S
C1592 C1591 1.355 . S
C1592 C1594 1.419 . S
C1593 C1588 1.425 . S
C1593 C1590 1.409 . S
C1593 C1591 1.415 . S
C1594 H1584 0.930 . S
C1594 C1592 1.419 . S
C1594 C1595 1.362 . S
C1595 H1585 0.930 . S
C1595 C1588 1.409 . S
C1595 C1594 1.362 . S
H1596 C1602 0.930 . S
H1597 C1605 0.930 . S
H1598 C1606 0.930 . S
H1599 C1607 0.930 . S
H1600 C1610 0.930 . S
H1601 C1611 0.930 . S
C1602 H1596 0.930 . S
C1602 C1603 1.355 . S
C1602 C1604 1.415 . S
C1603 C1602 1.355 . S
C1603 C1605 1.419 . S
C1604 C1602 1.415 . S
C1604 C1609 1.425 . S
C1604 C1611 1.409 . S
C1605 H1597 0.930 . S
C1605 C1603 1.419 . S
C1605 C1606 1.362 . S
C1606 H1598 0.930 . S
C1606 C1605 1.362 . S
C1606 C1609 1.409 . S
C1607 H1599 0.930 . S
C1607 C1608 1.355 . S
C1607 C1609 1.415 . S
C1608 C1607 1.355 . S
C1608 C1610 1.419 . S
C1609 C1604 1.425 . S
C1609 C1606 1.409 . S
C1609 C1607 1.415 . S
C1610 H1600 0.930 . S
C1610 C1608 1.419 . S
C1610 C1611 1.362 . S
C1611 H1601 0.930 . S
C1611 C1604 1.409 . S
C1611 C1610 1.362 . S
H1612 C1618 0.930 . S
H1613 C1621 0.930 . S
H1614 C1622 0.930 . S
H1615 C1623 0.930 . S
H1616 C1626 0.930 . S
H1617 C1627 0.930 . S
C1618 H1612 0.930 . S
C1618 C1619 1.355 . S
C1618 C1620 1.415 . S
C1619 C1618 1.355 . S
C1619 C1621 1.419 . S
C1620 C1618 1.415 . S
C1620 C1625 1.425 . S
C1620 C1627 1.409 . S
C1621 H1613 0.930 . S
C1621 C1619 1.419 . S
C1621 C1622 1.362 . S
C1622 H1614 0.930 . S
C1622 C1621 1.362 . S
C1622 C1625 1.409 . S
C1623 H1615 0.930 . S
C1623 C1624 1.355 . S
C1623 C1625 1.415 . S
C1624 C1623 1.355 . S
C1624 C1626 1.419 . S
C1625 C1620 1.425 . S
C1625 C1622 1.409 . S
C1625 C1623 1.415 . S
C1626 H1616 0.930 . S
C1626 C1624 1.419 . S
C1626 C1627 1.362 . S
C1627 H1617 0.930 . S
C1627 C1620 1.409 . S
C1627 C1626 1.362 . S
H1628 C1634 0.930 . S
H1629 C1637 0.930 . S
H1630 C1638 0.930 . S
H1631 C1639 0.930 . S
H1632 C1642 0.930 . S
H1633 C1643 0.930 . S
C1634 H1628 0.930 . S
C1634 C1635 1.355 . S
C1634 C1636 1.415 . S
C1635 C1634 1.355 . S
C1635 C1637 1.419 . S
C1636 C1634 1.415 . S
C1636 C1641 1.425 . S
C1636 C1643 1.409 . S
C1637 H1629 0.930 . S
C1637 C1635 1.419 . S
C1637 C1638 1.362 . S
C1638 H1630 0.930 . S
C1638 C1637 1.362 . S
C1638 C1641 1.409 . S
C1639 H1631 0.930 . S
C1639 C1640 1.355 . S
C1639 C1641 1.415 . S
C1640 C1639 1.355 . S
C1640 C1642 1.419 . S
C1641 C1636 1.425 . S
C1641 C1638 1.409 . S
C1641 C1639 1.415 . S
C1642 H1632 0.930 . S
C1642 C1640 1.419 . S
C1642 C1643 1.362 . S
C1643 H1633 0.930 . S
C1643 C1636 1.409 . S
C1643 C1642 1.362 . S
H1644 C1650 0.930 . S
H1645 C1653 0.930 . S
H1646 C1654 0.930 . S
H1647 C1655 0.930 . S
H1648 C1658 0.930 . S
H1649 C1659 0.930 . S
C1650 H1644 0.930 . S
C1650 C1651 1.355 . S
C1650 C1652 1.415 . S
C1651 C1650 1.355 . S
C1651 C1653 1.419 . S
C1652 C1650 1.415 . S
C1652 C1657 1.425 . S
C1652 C1659 1.409 . S
C1653 H1645 0.930 . S
C1653 C1651 1.419 . S
C1653 C1654 1.362 . S
C1654 H1646 0.930 . S
C1654 C1653 1.362 . S
C1654 C1657 1.409 . S
C1655 H1647 0.930 . S
C1655 C1656 1.355 . S
C1655 C1657 1.415 . S
C1656 C1655 1.355 . S
C1656 C1658 1.419 . S
C1657 C1652 1.425 . S
C1657 C1654 1.409 . S
C1657 C1655 1.415 . S
C1658 H1648 0.930 . S
C1658 C1656 1.419 . S
C1658 C1659 1.362 . S
C1659 H1649 0.930 . S
C1659 C1652 1.409 . S
C1659 C1658 1.362 . S
H1660 C1666 0.930 . S
H1661 C1669 0.930 . S
H1662 C1670 0.930 . S
H1663 C1671 0.930 . S
H1664 C1674 0.930 . S
H1665 C1675 0.930 . S
C1666 H1660 0.930 . S
C1666 C1667 1.355 . S
C1666 C1668 1.415 . S
C1667 C1666 1.355 . S
C1667 C1669 1.419 . S
C1668 C1666 1.415 . S
C1668 C1673 1.425 . S
C1668 C1675 1.409 . S
C1669 H1661 0.930 . S
C1669 C1667 1.419 . S
C1669 C1670 1.362 . S
C1670 H1662 0.930 . S
C1670 C1669 1.362 . S
C1670 C1673 1.409 . S
C1671 H1663 0.930 . S
C1671 C1672 1.355 . S
C1671 C1673 1.415 . S
C1672 C1671 1.355 . S
C1672 C1674 1.419 . S
C1673 C1668 1.425 . S
C1673 C1670 1.409 . S
C1673 C1671 1.415 . S
C1674 H1664 0.930 . S
C1674 C1672 1.419 . S
C1674 C1675 1.362 . S
C1675 H1665 0.930 . S
C1675 C1668 1.409 . S
C1675 C1674 1.362 . S
H1676 C1682 0.930 . S
H1677 C1685 0.930 . S
H1678 C1686 0.930 . S
H1679 C1687 0.930 . S
H1680 C1690 0.930 . S
H1681 C1691 0.930 . S
C1682 H1676 0.930 . S
C1682 C1683 1.355 . S
C1682 C1684 1.415 . S
C1683 C1682 1.355 . S
C1683 C1685 1.419 . S
C1684 C1682 1.415 . S
C1684 C1689 1.425 . S
C1684 C1691 1.409 . S
C1685 H1677 0.930 . S
C1685 C1683 1.419 . S
C1685 C1686 1.362 . S
C1686 H1678 0.930 . S
C1686 C1685 1.362 . S
C1686 C1689 1.409 . S
C1687 H1679 0.930 . S
C1687 C1688 1.355 . S
C1687 C1689 1.415 . S
C1688 C1687 1.355 . S
C1688 C1690 1.419 . S
C1689 C1684 1.425 . S
C1689 C1686 1.409 . S
C1689 C1687 1.415 . S
C1690 H1680 0.930 . S
C1690 C1688 1.419 . S
C1690 C1691 1.362 . S
C1691 H1681 0.930 . S
C1691 C1684 1.409 . S
C1691 C1690 1.362 . S
H1692 C1698 0.930 . S
H1693 C1701 0.930 . S
H1694 C1702 0.930 . S
H1695 C1703 0.930 . S
H1696 C1706 0.930 . S
H1697 C1707 0.930 . S
C1698 H1692 0.930 . S
C1698 C1699 1.355 . S
C1698 C1700 1.415 . S
C1699 C1698 1.355 . S
C1699 C1701 1.419 . S
C1700 C1698 1.415 . S
C1700 C1705 1.425 . S
C1700 C1707 1.409 . S
C1701 H1693 0.930 . S
C1701 C1699 1.419 . S
C1701 C1702 1.362 . S
C1702 H1694 0.930 . S
C1702 C1701 1.362 . S
C1702 C1705 1.409 . S
C1703 H1695 0.930 . S
C1703 C1704 1.355 . S
C1703 C1705 1.415 . S
C1704 C1703 1.355 . S
C1704 C1706 1.419 . S
C1705 C1700 1.425 . S
C1705 C1702 1.409 . S
C1705 C1703 1.415 . S
C1706 H1696 0.930 . S
C1706 C1704 1.419 . S
C1706 C1707 1.362 . S
C1707 H1697 0.930 . S
C1707 C1700 1.409 . S
C1707 C1706 1.362 . S
H1708 C1714 0.930 . S
H1709 C1717 0.930 . S
H1710 C1718 0.930 . S
H1711 C1719 0.930 . S
H1712 C1722 0.930 . S
H1713 C1723 0.930 . S
C1714 H1708 0.930 . S
C1714 C1715 1.355 . S
C1714 C1716 1.415 . S
C1715 C1714 1.355 . S
C1715 C1717 1.419 . S
C1716 C1714 1.415 . S
C1716 C1721 1.425 . S
C1716 C1723 1.409 . S
C1717 H1709 0.930 . S
C1717 C1715 1.419 . S
C1717 C1718 1.362 . S
C1718 H1710 0.930 . S
C1718 C1717 1.362 . S
C1718 C1721 1.409 . S
C1719 H1711 0.930 . S
C1719 C1720 1.355 . S
C1719 C1721 1.415 . S
C1720 C1719 1.355 . S
C1720 C1722 1.419 . S
C1721 C1716 1.425 . S
C1721 C1718 1.409 . S
C1721 C1719 1.415 . S
C1722 H1712 0.930 . S
C1722 C1720 1.419 . S
C1722 C1723 1.362 . S
C1723 H1713 0.930 . S
C1723 C1716 1.409 . S
C1723 C1722 1.362 . S
H1724 C1730 0.930 . S
H1725 C1733 0.930 . S
H1726 C1734 0.930 . S
H1727 C1735 0.930 . S
H1728 C1738 0.930 . S
H1729 C1739 0.930 . S
C1730 H1724 0.930 . S
C1730 C1731 1.355 . S
C1730 C1732 1.415 . S
C1731 C1730 1.355 . S
C1731 C1733 1.419 . S
C1732 C1730 1.415 . S
C1732 C1737 1.425 . S
C1732 C1739 1.409 . S
C1733 H1725 0.930 . S
C1733 C1731 1.419 . S
C1733 C1734 1.362 . S
C1734 H1726 0.930 . S
C1734 C1733 1.362 . S
C1734 C1737 1.409 . S
C1735 H1727 0.930 . S
C1735 C1736 1.355 . S
C1735 C1737 1.415 . S
C1736 C1735 1.355 . S
C1736 C1738 1.419 . S
C1737 C1732 1.425 . S
C1737 C1734 1.409 . S
C1737 C1735 1.415 . S
C1738 H1728 0.930 . S
C1738 C1736 1.419 . S
C1738 C1739 1.362 . S
C1739 H1729 0.930 . S
C1739 C1732 1.409 . S
C1739 C1738 1.362 . S
H1740 C1746 0.930 1_554 S
H1741 C1749 0.930 . S
H1742 C1750 0.930 . S
H1743 C1751 0.930 . S
H1744 C1754 0.930 . S
H1745 C1755 0.930 . S
C1746 H1740 0.930 1_556 S
C1746 C1747 1.355 . S
C1746 C1748 1.415 . S
C1747 C1746 1.355 . S
C1747 C1749 1.419 . S
C1748 C1746 1.415 . S
C1748 C1753 1.425 . S
C1748 C1755 1.409 . S
C1749 H1741 0.930 . S
C1749 C1747 1.419 . S
C1749 C1750 1.362 . S
C1750 H1742 0.930 . S
C1750 C1749 1.362 . S
C1750 C1753 1.409 . S
C1751 H1743 0.930 . S
C1751 C1752 1.355 . S
C1751 C1753 1.415 . S
C1752 C1751 1.355 . S
C1752 C1754 1.419 . S
C1753 C1748 1.425 . S
C1753 C1750 1.409 . S
C1753 C1751 1.415 . S
C1754 H1744 0.930 . S
C1754 C1752 1.419 . S
C1754 C1755 1.362 . S
C1755 H1745 0.930 . S
C1755 C1748 1.409 . S
C1755 C1754 1.362 . S
H1756 C1762 0.930 1_554 S
H1757 C1765 0.930 . S
H1758 C1766 0.930 . S
H1759 C1767 0.930 . S
H1760 C1770 0.930 . S
H1761 C1771 0.930 . S
C1762 H1756 0.930 1_556 S
C1762 C1763 1.355 . S
C1762 C1764 1.415 . S
C1763 C1762 1.355 . S
C1763 C1765 1.419 . S
C1764 C1762 1.415 . S
C1764 C1769 1.425 . S
C1764 C1771 1.409 . S
C1765 H1757 0.930 . S
C1765 C1763 1.419 . S
C1765 C1766 1.362 . S
C1766 H1758 0.930 . S
C1766 C1765 1.362 . S
C1766 C1769 1.409 . S
C1767 H1759 0.930 . S
C1767 C1768 1.355 . S
C1767 C1769 1.415 . S
C1768 C1767 1.355 . S
C1768 C1770 1.419 . S
C1769 C1764 1.425 . S
C1769 C1766 1.409 . S
C1769 C1767 1.415 . S
C1770 H1760 0.930 . S
C1770 C1768 1.419 . S
C1770 C1771 1.362 . S
C1771 H1761 0.930 . S
C1771 C1764 1.409 . S
C1771 C1770 1.362 . S
H1772 C1778 0.930 . S
H1773 C1781 0.930 . S
H1774 C1782 0.930 . S
H1775 C1783 0.930 . S
H1776 C1786 0.930 . S
H1777 C1787 0.930 . S
C1778 H1772 0.930 . S
C1778 C1779 1.355 . S
C1778 C1780 1.415 . S
C1779 C1778 1.355 . S
C1779 C1781 1.419 . S
C1780 C1778 1.415 . S
C1780 C1785 1.425 . S
C1780 C1787 1.409 . S
C1781 H1773 0.930 . S
C1781 C1779 1.419 . S
C1781 C1782 1.362 . S
C1782 H1774 0.930 . S
C1782 C1781 1.362 . S
C1782 C1785 1.409 . S
C1783 H1775 0.930 . S
C1783 C1784 1.355 . S
C1783 C1785 1.415 . S
C1784 C1783 1.355 . S
C1784 C1786 1.419 . S
C1785 C1780 1.425 . S
C1785 C1782 1.409 . S
C1785 C1783 1.415 . S
C1786 H1776 0.930 . S
C1786 C1784 1.419 . S
C1786 C1787 1.362 . S
C1787 H1777 0.930 . S
C1787 C1780 1.409 . S
C1787 C1786 1.362 . S
H1788 C1794 0.930 . S
H1789 C1797 0.930 . S
H1790 C1798 0.930 . S
H1791 C1799 0.930 . S
H1792 C1802 0.930 . S
H1793 C1803 0.930 . S
C1794 H1788 0.930 . S
C1794 C1795 1.355 . S
C1794 C1796 1.415 . S
C1795 C1794 1.355 . S
C1795 C1797 1.419 . S
C1796 C1794 1.415 . S
C1796 C1801 1.425 . S
C1796 C1803 1.409 . S
C1797 H1789 0.930 . S
C1797 C1795 1.419 . S
C1797 C1798 1.362 . S
C1798 H1790 0.930 . S
C1798 C1797 1.362 . S
C1798 C1801 1.409 . S
C1799 H1791 0.930 . S
C1799 C1800 1.355 . S
C1799 C1801 1.415 . S
C1800 C1799 1.355 . S
C1800 C1802 1.419 . S
C1801 C1796 1.425 . S
C1801 C1798 1.409 . S
C1801 C1799 1.415 . S
C1802 H1792 0.930 . S
C1802 C1800 1.419 . S
C1802 C1803 1.362 . S
C1803 H1793 0.930 . S
C1803 C1796 1.409 . S
C1803 C1802 1.362 . S
H1804 C1810 0.930 . S
H1805 C1813 0.930 1_554 S
H1806 C1814 0.930 1_554 S
H1807 C1815 0.930 . S
H1808 C1818 0.930 . S
H1809 C1819 0.930 . S
C1810 H1804 0.930 . S
C1810 C1811 1.355 . S
C1810 C1812 1.415 . S
C1811 C1810 1.355 . S
C1811 C1813 1.419 . S
C1812 C1810 1.415 . S
C1812 C1817 1.425 . S
C1812 C1819 1.409 . S
C1813 H1805 0.930 1_556 S
C1813 C1811 1.419 . S
C1813 C1814 1.362 . S
C1814 H1806 0.930 1_556 S
C1814 C1813 1.362 . S
C1814 C1817 1.409 . S
C1815 H1807 0.930 . S
C1815 C1816 1.355 . S
C1815 C1817 1.415 . S
C1816 C1815 1.355 . S
C1816 C1818 1.419 . S
C1817 C1812 1.425 . S
C1817 C1814 1.409 . S
C1817 C1815 1.415 . S
C1818 H1808 0.930 . S
C1818 C1816 1.419 . S
C1818 C1819 1.362 . S
C1819 H1809 0.930 . S
C1819 C1812 1.409 . S
C1819 C1818 1.362 . S
H1820 C1826 0.930 . S
H1821 C1829 0.930 . S
H1822 C1830 0.930 . S
H1823 C1831 0.930 . S
H1824 C1834 0.930 . S
H1825 C1835 0.930 . S
C1826 H1820 0.930 . S
C1826 C1827 1.355 . S
C1826 C1828 1.415 . S
C1827 C1826 1.355 . S
C1827 C1829 1.419 . S
C1828 C1826 1.415 . S
C1828 C1833 1.425 . S
C1828 C1835 1.409 . S
C1829 H1821 0.930 . S
C1829 C1827 1.419 . S
C1829 C1830 1.362 . S
C1830 H1822 0.930 . S
C1830 C1829 1.362 . S
C1830 C1833 1.409 . S
C1831 H1823 0.930 . S
C1831 C1832 1.355 . S
C1831 C1833 1.415 . S
C1832 C1831 1.355 . S
C1832 C1834 1.419 . S
C1833 C1828 1.425 . S
C1833 C1830 1.409 . S
C1833 C1831 1.415 . S
C1834 H1824 0.930 . S
C1834 C1832 1.419 . S
C1834 C1835 1.362 . S
C1835 H1825 0.930 . S
C1835 C1828 1.409 . S
C1835 C1834 1.362 . S
H1836 C1842 0.930 . S
H1837 C1845 0.930 . S
H1838 C1846 0.930 . S
H1839 C1847 0.930 . S
H1840 C1850 0.930 . S
H1841 C1851 0.930 . S
C1842 H1836 0.930 . S
C1842 C1843 1.355 . S
C1842 C1844 1.415 . S
C1843 C1842 1.355 . S
C1843 C1845 1.419 . S
C1844 C1842 1.415 . S
C1844 C1849 1.425 . S
C1844 C1851 1.409 . S
C1845 H1837 0.930 . S
C1845 C1843 1.419 . S
C1845 C1846 1.362 . S
C1846 H1838 0.930 . S
C1846 C1845 1.362 . S
C1846 C1849 1.409 . S
C1847 H1839 0.930 . S
C1847 C1848 1.355 . S
C1847 C1849 1.415 . S
C1848 C1847 1.355 . S
C1848 C1850 1.419 . S
C1849 C1844 1.425 . S
C1849 C1846 1.409 . S
C1849 C1847 1.415 . S
C1850 H1840 0.930 . S
C1850 C1848 1.419 . S
C1850 C1851 1.362 . S
C1851 H1841 0.930 . S
C1851 C1844 1.409 . S
C1851 C1850 1.362 . S
H1852 C1858 0.930 . S
H1853 C1861 0.930 . S
H1854 C1862 0.930 . S
H1855 C1863 0.930 . S
H1856 C1866 0.930 . S
H1857 C1867 0.930 . S
C1858 H1852 0.930 . S
C1858 C1859 1.355 . S
C1858 C1860 1.415 . S
C1859 C1858 1.355 . S
C1859 C1861 1.419 . S
C1860 C1858 1.415 . S
C1860 C1865 1.425 . S
C1860 C1867 1.409 . S
C1861 H1853 0.930 . S
C1861 C1859 1.419 . S
C1861 C1862 1.362 . S
C1862 H1854 0.930 . S
C1862 C1861 1.362 . S
C1862 C1865 1.409 . S
C1863 H1855 0.930 . S
C1863 C1864 1.355 . S
C1863 C1865 1.415 . S
C1864 C1863 1.355 . S
C1864 C1866 1.419 . S
C1865 C1860 1.425 . S
C1865 C1862 1.409 . S
C1865 C1863 1.415 . S
C1866 H1856 0.930 . S
C1866 C1864 1.419 . S
C1866 C1867 1.362 . S
C1867 H1857 0.930 . S
C1867 C1860 1.409 . S
C1867 C1866 1.362 . S
H1868 C1874 0.930 . S
H1869 C1877 0.930 . S
H1870 C1878 0.930 . S
H1871 C1879 0.930 . S
H1872 C1882 0.930 . S
H1873 C1883 0.930 . S
C1874 H1868 0.930 . S
C1874 C1875 1.355 . S
C1874 C1876 1.415 . S
C1875 C1874 1.355 . S
C1875 C1877 1.419 . S
C1876 C1874 1.415 . S
C1876 C1881 1.425 . S
C1876 C1883 1.409 . S
C1877 H1869 0.930 . S
C1877 C1875 1.419 . S
C1877 C1878 1.362 . S
C1878 H1870 0.930 . S
C1878 C1877 1.362 . S
C1878 C1881 1.409 . S
C1879 H1871 0.930 . S
C1879 C1880 1.355 . S
C1879 C1881 1.415 . S
C1880 C1879 1.355 . S
C1880 C1882 1.419 . S
C1881 C1876 1.425 . S
C1881 C1878 1.409 . S
C1881 C1879 1.415 . S
C1882 H1872 0.930 . S
C1882 C1880 1.419 . S
C1882 C1883 1.362 . S
C1883 H1873 0.930 . S
C1883 C1876 1.409 . S
C1883 C1882 1.362 . S
H1884 C1890 0.930 . S
H1885 C1893 0.930 . S
H1886 C1894 0.930 . S
H1887 C1895 0.930 . S
H1888 C1898 0.930 . S
H1889 C1899 0.930 . S
C1890 H1884 0.930 . S
C1890 C1891 1.355 . S
C1890 C1892 1.415 . S
C1891 C1890 1.355 . S
C1891 C1893 1.419 . S
C1892 C1890 1.415 . S
C1892 C1897 1.425 . S
C1892 C1899 1.409 . S
C1893 H1885 0.930 . S
C1893 C1891 1.419 . S
C1893 C1894 1.362 . S
C1894 H1886 0.930 . S
C1894 C1893 1.362 . S
C1894 C1897 1.409 . S
C1895 H1887 0.930 . S
C1895 C1896 1.355 . S
C1895 C1897 1.415 . S
C1896 C1895 1.355 . S
C1896 C1898 1.419 . S
C1897 C1892 1.425 . S
C1897 C1894 1.409 . S
C1897 C1895 1.415 . S
C1898 H1888 0.930 . S
C1898 C1896 1.419 . S
C1898 C1899 1.362 . S
C1899 H1889 0.930 . S
C1899 C1892 1.409 . S
C1899 C1898 1.362 . S
H1900 C1906 0.930 . S
H1901 C1909 0.930 . S
H1902 C1910 0.930 . S
H1903 C1911 0.930 . S
H1904 C1914 0.930 . S
H1905 C1915 0.930 . S
C1906 H1900 0.930 . S
C1906 C1907 1.355 . S
C1906 C1908 1.415 . S
C1907 C1906 1.355 . S
C1907 C1909 1.419 . S
C1908 C1906 1.415 . S
C1908 C1913 1.425 . S
C1908 C1915 1.409 . S
C1909 H1901 0.930 . S
C1909 C1907 1.419 . S
C1909 C1910 1.362 . S
C1910 H1902 0.930 . S
C1910 C1909 1.362 . S
C1910 C1913 1.409 . S
C1911 H1903 0.930 . S
C1911 C1912 1.355 . S
C1911 C1913 1.415 . S
C1912 C1911 1.355 . S
C1912 C1914 1.419 . S
C1913 C1908 1.425 . S
C1913 C1910 1.409 . S
C1913 C1911 1.415 . S
C1914 H1904 0.930 . S
C1914 C1912 1.419 . S
C1914 C1915 1.362 . S
C1915 H1905 0.930 . S
C1915 C1908 1.409 . S
C1915 C1914 1.362 . S
H1916 C1922 0.930 . S
H1917 C1925 0.930 . S
H1918 C1926 0.930 . S
H1919 C1927 0.930 . S
H1920 C1930 0.930 . S
H1921 C1931 0.930 . S
C1922 H1916 0.930 . S
C1922 C1923 1.355 . S
C1922 C1924 1.415 . S
C1923 C1922 1.355 . S
C1923 C1925 1.419 . S
C1924 C1922 1.415 . S
C1924 C1929 1.425 . S
C1924 C1931 1.409 . S
C1925 H1917 0.930 . S
C1925 C1923 1.419 . S
C1925 C1926 1.362 . S
C1926 H1918 0.930 . S
C1926 C1925 1.362 . S
C1926 C1929 1.409 . S
C1927 H1919 0.930 . S
C1927 C1928 1.355 . S
C1927 C1929 1.415 . S
C1928 C1927 1.355 . S
C1928 C1930 1.419 . S
C1929 C1924 1.425 . S
C1929 C1926 1.409 . S
C1929 C1927 1.415 . S
C1930 H1920 0.930 . S
C1930 C1928 1.419 . S
C1930 C1931 1.362 . S
C1931 H1921 0.930 . S
C1931 C1924 1.409 . S
C1931 C1930 1.362 . S
H1932 C1938 0.930 . S
H1933 C1941 0.930 . S
H1934 C1942 0.930 . S
H1935 C1943 0.930 . S
H1936 C1946 0.930 . S
H1937 C1947 0.930 . S
C1938 H1932 0.930 . S
C1938 C1939 1.355 . S
C1938 C1940 1.415 . S
C1939 C1938 1.355 . S
C1939 C1941 1.419 1_455 S
C1940 C1938 1.415 . S
C1940 C1945 1.425 1_455 S
C1940 C1947 1.409 . S
C1941 H1933 0.930 . S
C1941 C1939 1.419 1_655 S
C1941 C1942 1.362 . S
C1942 H1934 0.930 . S
C1942 C1941 1.362 . S
C1942 C1945 1.409 . S
C1943 H1935 0.930 . S
C1943 C1944 1.355 1_655 S
C1943 C1945 1.415 . S
C1944 C1943 1.355 1_455 S
C1944 C1946 1.419 . S
C1945 C1940 1.425 1_655 S
C1945 C1942 1.409 . S
C1945 C1943 1.415 . S
C1946 H1936 0.930 . S
C1946 C1944 1.419 . S
C1946 C1947 1.362 . S
C1947 H1937 0.930 . S
C1947 C1940 1.409 . S
C1947 C1946 1.362 . S
H1948 C1954 0.930 . S
H1949 C1957 0.930 . S
H1950 C1958 0.930 . S
H1951 C1959 0.930 . S
H1952 C1962 0.930 . S
H1953 C1963 0.930 . S
C1954 H1948 0.930 . S
C1954 C1955 1.355 . S
C1954 C1956 1.415 . S
C1955 C1954 1.355 . S
C1955 C1957 1.419 . S
C1956 C1954 1.415 . S
C1956 C1961 1.425 . S
C1956 C1963 1.409 . S
C1957 H1949 0.930 . S
C1957 C1955 1.419 . S
C1957 C1958 1.362 . S
C1958 H1950 0.930 . S
C1958 C1957 1.362 . S
C1958 C1961 1.409 . S
C1959 H1951 0.930 . S
C1959 C1960 1.355 . S
C1959 C1961 1.415 . S
C1960 C1959 1.355 . S
C1960 C1962 1.419 . S
C1961 C1956 1.425 . S
C1961 C1958 1.409 . S
C1961 C1959 1.415 . S
C1962 H1952 0.930 . S
C1962 C1960 1.419 . S
C1962 C1963 1.362 . S
C1963 H1953 0.930 . S
C1963 C1956 1.409 . S
C1963 C1962 1.362 . S
H1964 C1970 0.930 . S
H1965 C1973 0.930 . S
H1966 C1974 0.930 . S
H1967 C1975 0.930 . S
H1968 C1978 0.930 . S
H1969 C1979 0.930 . S
C1970 H1964 0.930 . S
C1970 C1971 1.355 . S
C1970 C1972 1.415 . S
C1971 C1970 1.355 . S
C1971 C1973 1.419 1_565 S
C1972 C1970 1.415 . S
C1972 C1977 1.425 1_565 S
C1972 C1979 1.409 . S
C1973 H1965 0.930 . S
C1973 C1971 1.419 1_545 S
C1973 C1974 1.362 . S
C1974 H1966 0.930 . S
C1974 C1973 1.362 . S
C1974 C1977 1.409 . S
C1975 H1967 0.930 . S
C1975 C1976 1.355 1_545 S
C1975 C1977 1.415 . S
C1976 C1975 1.355 1_565 S
C1976 C1978 1.419 . S
C1977 C1972 1.425 1_545 S
C1977 C1974 1.409 . S
C1977 C1975 1.415 . S
C1978 H1968 0.930 . S
C1978 C1976 1.419 . S
C1978 C1979 1.362 . S
C1979 H1969 0.930 . S
C1979 C1972 1.409 . S
C1979 C1978 1.362 . S
H1980 C1986 0.931 1_545 S
H1981 C1989 0.930 . S
H1982 C1990 0.930 . S
H1983 C1991 0.930 . S
H1984 C1994 0.914 1_545 S
H1985 C1995 0.940 1_545 S
C1986 H1980 0.931 1_565 S
C1986 C1987 1.355 . S
C1986 C1988 1.415 . S
C1987 C1986 1.355 . S
C1987 C1989 1.419 . S
C1988 C1986 1.415 . S
C1988 C1993 1.425 . S
C1988 C1995 1.420 . S
C1989 H1981 0.930 . S
C1989 C1987 1.419 . S
C1989 C1990 1.362 . S
C1990 H1982 0.930 . S
C1990 C1989 1.362 . S
C1990 C1993 1.409 . S
C1991 H1983 0.930 . S
C1991 C1992 1.355 . S
C1991 C1993 1.415 . S
C1992 C1991 1.355 . S
C1992 C1994 1.408 . S
C1993 C1988 1.425 . S
C1993 C1990 1.409 . S
C1993 C1991 1.415 . S
C1994 H1984 0.914 1_565 S
C1994 C1992 1.408 . S
C1994 C1995 1.373 . S
C1995 H1985 0.940 1_565 S
C1995 C1988 1.420 . S
C1995 C1994 1.373 . S
H1996 C2002 0.930 . S
H1997 C2005 0.930 . S
H1998 C2006 0.930 . S
H1999 C2007 0.930 . S
H2000 C2010 0.930 . S
H2001 C2011 0.930 . S
C2002 H1996 0.930 . S
C2002 C2003 1.355 1_655 S
C2002 C2004 1.415 . S
C2003 C2002 1.355 1_455 S
C2003 C2005 1.419 . S
C2004 C2002 1.415 . S
C2004 C2009 1.425 1_655 S
C2004 C2011 1.409 . S
C2005 H1997 0.930 . S
C2005 C2003 1.419 . S
C2005 C2006 1.362 . S
C2006 H1998 0.930 . S
C2006 C2005 1.362 . S
C2006 C2009 1.409 . S
C2007 H1999 0.930 . S
C2007 C2008 1.355 . S
C2007 C2009 1.415 . S
C2008 C2007 1.355 . S
C2008 C2010 1.419 1_455 S
C2009 C2004 1.425 1_455 S
C2009 C2006 1.409 . S
C2009 C2007 1.415 . S
C2010 H2000 0.930 . S
C2010 C2008 1.419 1_655 S
C2010 C2011 1.362 . S
C2011 H2001 0.930 . S
C2011 C2004 1.409 . S
C2011 C2010 1.362 . S
H2012 C2018 0.930 . S
H2013 C2021 0.930 . S
H2014 C2022 0.930 . S
H2015 C2023 0.930 . S
H2016 C2026 0.930 . S
H2017 C2027 0.930 . S
C2018 H2012 0.930 . S
C2018 C2019 1.355 . S
C2018 C2020 1.415 . S
C2019 C2018 1.355 . S
C2019 C2021 1.419 . S
C2020 C2018 1.415 . S
C2020 C2025 1.425 . S
C2020 C2027 1.409 . S
C2021 H2013 0.930 . S
C2021 C2019 1.419 . S
C2021 C2022 1.362 . S
C2022 H2014 0.930 . S
C2022 C2021 1.362 . S
C2022 C2025 1.409 . S
C2023 H2015 0.930 . S
C2023 C2024 1.355 . S
C2023 C2025 1.415 . S
C2024 C2023 1.355 . S
C2024 C2026 1.419 . S
C2025 C2020 1.425 . S
C2025 C2022 1.409 . S
C2025 C2023 1.415 . S
C2026 H2016 0.930 . S
C2026 C2024 1.419 . S
C2026 C2027 1.362 . S
C2027 H2017 0.930 . S
C2027 C2020 1.409 . S
C2027 C2026 1.362 . S
H2028 C2034 0.930 . S
H2029 C2037 0.930 . S
H2030 C2038 0.930 . S
H2031 C2039 0.930 . S
H2032 C2042 0.930 . S
H2033 C2043 0.930 . S
C2034 H2028 0.930 . S
C2034 C2035 1.355 . S
C2034 C2036 1.415 . S
C2035 C2034 1.355 . S
C2035 C2037 1.419 . S
C2036 C2034 1.415 . S
C2036 C2041 1.425 . S
C2036 C2043 1.409 . S
C2037 H2029 0.930 . S
C2037 C2035 1.419 . S
C2037 C2038 1.362 . S
C2038 H2030 0.930 . S
C2038 C2037 1.362 . S
C2038 C2041 1.409 . S
C2039 H2031 0.930 . S
C2039 C2040 1.355 . S
C2039 C2041 1.415 . S
C2040 C2039 1.355 . S
C2040 C2042 1.419 . S
C2041 C2036 1.425 . S
C2041 C2038 1.409 . S
C2041 C2039 1.415 . S
C2042 H2032 0.930 . S
C2042 C2040 1.419 . S
C2042 C2043 1.362 . S
C2043 H2033 0.930 . S
C2043 C2036 1.409 . S
C2043 C2042 1.362 . S
H2044 C2050 0.930 . S
H2045 C2053 0.930 . S
H2046 C2054 0.930 . S
H2047 C2055 0.930 . S
H2048 C2058 0.930 . S
H2049 C2059 0.930 . S
C2050 H2044 0.930 . S
C2050 C2051 1.355 . S
C2050 C2052 1.415 . S
C2051 C2050 1.355 . S
C2051 C2053 1.419 . S
C2052 C2050 1.415 . S
C2052 C2057 1.425 . S
C2052 C2059 1.409 . S
C2053 H2045 0.930 . S
C2053 C2051 1.419 . S
C2053 C2054 1.362 . S
C2054 H2046 0.930 . S
C2054 C2053 1.362 . S
C2054 C2057 1.409 . S
C2055 H2047 0.930 . S
C2055 C2056 1.355 . S
C2055 C2057 1.415 . S
C2056 C2055 1.355 . S
C2056 C2058 1.419 . S
C2057 C2052 1.425 . S
C2057 C2054 1.409 . S
C2057 C2055 1.415 . S
C2058 H2048 0.930 . S
C2058 C2056 1.419 . S
C2058 C2059 1.362 . S
C2059 H2049 0.930 . S
C2059 C2052 1.409 . S
C2059 C2058 1.362 . S
H2060 C2066 0.930 . S
H2061 C2069 0.930 . S
H2062 C2070 0.930 . S
H2063 C2071 0.930 . S
H2064 C2074 0.930 . S
H2065 C2075 0.930 . S
C2066 H2060 0.930 . S
C2066 C2067 1.355 . S
C2066 C2068 1.415 . S
C2067 C2066 1.355 . S
C2067 C2069 1.419 . S
C2068 C2066 1.415 . S
C2068 C2073 1.425 . S
C2068 C2075 1.409 . S
C2069 H2061 0.930 . S
C2069 C2067 1.419 . S
C2069 C2070 1.362 . S
C2070 H2062 0.930 . S
C2070 C2069 1.362 . S
C2070 C2073 1.409 . S
C2071 H2063 0.930 . S
C2071 C2072 1.355 . S
C2071 C2073 1.415 . S
C2072 C2071 1.355 . S
C2072 C2074 1.419 . S
C2073 C2068 1.425 . S
C2073 C2070 1.409 . S
C2073 C2071 1.415 . S
C2074 H2064 0.930 . S
C2074 C2072 1.419 . S
C2074 C2075 1.362 . S
C2075 H2065 0.930 . S
C2075 C2068 1.409 . S
C2075 C2074 1.362 . S
H2076 C2082 0.930 . S
H2077 C2085 0.930 . S
H2078 C2086 0.930 . S
H2079 C2087 0.930 . S
H2080 C2090 0.930 . S
H2081 C2091 0.930 . S
C2082 H2076 0.930 . S
C2082 C2083 1.355 . S
C2082 C2084 1.415 . S
C2083 C2082 1.355 . S
C2083 C2085 1.419 1_545 S
C2084 C2082 1.415 . S
C2084 C2089 1.425 1_545 S
C2084 C2091 1.409 . S
C2085 H2077 0.930 . S
C2085 C2083 1.419 1_565 S
C2085 C2086 1.362 . S
C2086 H2078 0.930 . S
C2086 C2085 1.362 . S
C2086 C2089 1.409 . S
C2087 H2079 0.930 . S
C2087 C2088 1.355 1_565 S
C2087 C2089 1.415 . S
C2088 C2087 1.355 1_545 S
C2088 C2090 1.419 . S
C2089 C2084 1.425 1_565 S
C2089 C2086 1.409 . S
C2089 C2087 1.415 . S
C2090 H2080 0.930 . S
C2090 C2088 1.419 . S
C2090 C2091 1.362 . S
C2091 H2081 0.930 . S
C2091 C2084 1.409 . S
C2091 C2090 1.362 . S
H2092 C2098 0.930 . S
H2093 C2101 0.930 . S
H2094 C2102 0.930 . S
H2095 C2103 0.930 . S
H2096 C2106 0.930 . S
H2097 C2107 0.930 . S
C2098 H2092 0.930 . S
C2098 C2099 1.355 1_455 S
C2098 C2100 1.415 . S
C2099 C2098 1.355 1_655 S
C2099 C2101 1.419 . S
C2100 C2098 1.415 . S
C2100 C2105 1.425 1_455 S
C2100 C2107 1.409 . S
C2101 H2093 0.930 . S
C2101 C2099 1.419 . S
C2101 C2102 1.362 . S
C2102 H2094 0.930 . S
C2102 C2101 1.362 . S
C2102 C2105 1.409 . S
C2103 H2095 0.930 . S
C2103 C2104 1.355 . S
C2103 C2105 1.415 . S
C2104 C2103 1.355 . S
C2104 C2106 1.419 1_655 S
C2105 C2100 1.425 1_655 S
C2105 C2102 1.409 . S
C2105 C2103 1.415 . S
C2106 H2096 0.930 . S
C2106 C2104 1.419 1_455 S
C2106 C2107 1.362 . S
C2107 H2097 0.930 . S
C2107 C2100 1.409 . S
C2107 C2106 1.362 . S
H2108 C2114 0.930 . S
H2109 C2117 0.930 . S
H2110 C2118 0.930 . S
H2111 C2119 0.930 . S
H2112 C2122 0.930 . S
H2113 C2123 0.930 . S
C2114 H2108 0.930 . S
C2114 C2115 1.355 . S
C2114 C2116 1.415 . S
C2115 C2114 1.355 . S
C2115 C2117 1.419 . S
C2116 C2114 1.415 . S
C2116 C2121 1.425 . S
C2116 C2123 1.409 . S
C2117 H2109 0.930 . S
C2117 C2115 1.419 . S
C2117 C2118 1.362 . S
C2118 H2110 0.930 . S
C2118 C2117 1.362 . S
C2118 C2121 1.409 . S
C2119 H2111 0.930 . S
C2119 C2120 1.355 . S
C2119 C2121 1.415 . S
C2120 C2119 1.355 . S
C2120 C2122 1.419 . S
C2121 C2116 1.425 . S
C2121 C2118 1.409 . S
C2121 C2119 1.415 . S
C2122 H2112 0.930 . S
C2122 C2120 1.419 . S
C2122 C2123 1.362 . S
C2123 H2113 0.930 . S
C2123 C2116 1.409 . S
C2123 C2122 1.362 . S
H2124 C2130 0.930 . S
H2125 C2133 0.930 . S
H2126 C2134 0.930 . S
H2127 C2135 0.930 . S
H2128 C2138 0.930 . S
H2129 C2139 0.930 . S
C2130 H2124 0.930 . S
C2130 C2131 1.355 . S
C2130 C2132 1.415 . S
C2131 C2130 1.355 . S
C2131 C2133 1.419 . S
C2132 C2130 1.415 . S
C2132 C2137 1.425 . S
C2132 C2139 1.409 . S
C2133 H2125 0.930 . S
C2133 C2131 1.419 . S
C2133 C2134 1.362 . S
C2134 H2126 0.930 . S
C2134 C2133 1.362 . S
C2134 C2137 1.409 . S
C2135 H2127 0.930 . S
C2135 C2136 1.355 . S
C2135 C2137 1.415 . S
C2136 C2135 1.355 . S
C2136 C2138 1.419 . S
C2137 C2132 1.425 . S
C2137 C2134 1.409 . S
C2137 C2135 1.415 . S
C2138 H2128 0.930 . S
C2138 C2136 1.419 . S
C2138 C2139 1.362 . S
C2139 H2129 0.930 . S
C2139 C2132 1.409 . S
C2139 C2138 1.362 . S
H2140 C2146 0.930 . S
H2141 C2149 0.930 . S
H2142 C2150 0.930 . S
H2143 C2151 0.930 . S
H2144 C2154 0.930 . S
H2145 C2155 0.930 . S
C2146 H2140 0.930 . S
C2146 C2147 1.355 . S
C2146 C2148 1.415 . S
C2147 C2146 1.355 . S
C2147 C2149 1.419 . S
C2148 C2146 1.415 . S
C2148 C2153 1.425 . S
C2148 C2155 1.409 . S
C2149 H2141 0.930 . S
C2149 C2147 1.419 . S
C2149 C2150 1.362 . S
C2150 H2142 0.930 . S
C2150 C2149 1.362 . S
C2150 C2153 1.409 . S
C2151 H2143 0.930 . S
C2151 C2152 1.355 . S
C2151 C2153 1.415 . S
C2152 C2151 1.355 . S
C2152 C2154 1.419 . S
C2153 C2148 1.425 . S
C2153 C2150 1.409 . S
C2153 C2151 1.415 . S
C2154 H2144 0.930 . S
C2154 C2152 1.419 . S
C2154 C2155 1.362 . S
C2155 H2145 0.930 . S
C2155 C2148 1.409 . S
C2155 C2154 1.362 . S
H2156 C2162 0.930 . S
H2157 C2165 0.930 . S
H2158 C2166 0.930 . S
H2159 C2167 0.930 . S
H2160 C2170 0.930 . S
H2161 C2171 0.930 . S
C2162 H2156 0.930 . S
C2162 C2163 1.355 . S
C2162 C2164 1.415 . S
C2163 C2162 1.355 . S
C2163 C2165 1.419 . S
C2164 C2162 1.415 . S
C2164 C2169 1.425 . S
C2164 C2171 1.409 . S
C2165 H2157 0.930 . S
C2165 C2163 1.419 . S
C2165 C2166 1.362 . S
C2166 H2158 0.930 . S
C2166 C2165 1.362 . S
C2166 C2169 1.409 . S
C2167 H2159 0.930 . S
C2167 C2168 1.355 . S
C2167 C2169 1.415 . S
C2168 C2167 1.355 . S
C2168 C2170 1.419 . S
C2169 C2164 1.425 . S
C2169 C2166 1.409 . S
C2169 C2167 1.415 . S
C2170 H2160 0.930 . S
C2170 C2168 1.419 . S
C2170 C2171 1.362 . S
C2171 H2161 0.930 . S
C2171 C2164 1.409 . S
C2171 C2170 1.362 . S
H2172 C2178 0.930 . S
H2173 C2181 0.930 . S
H2174 C2182 0.930 . S
H2175 C2183 0.930 . S
H2176 C2186 0.930 . S
H2177 C2187 0.930 . S
C2178 H2172 0.930 . S
C2178 C2179 1.355 . S
C2178 C2180 1.415 . S
C2179 C2178 1.355 . S
C2179 C2181 1.419 . S
C2180 C2178 1.415 . S
C2180 C2185 1.425 . S
C2180 C2187 1.409 . S
C2181 H2173 0.930 . S
C2181 C2179 1.419 . S
C2181 C2182 1.362 . S
C2182 H2174 0.930 . S
C2182 C2181 1.362 . S
C2182 C2185 1.409 . S
C2183 H2175 0.930 . S
C2183 C2184 1.355 . S
C2183 C2185 1.415 . S
C2184 C2183 1.355 . S
C2184 C2186 1.419 . S
C2185 C2180 1.425 . S
C2185 C2182 1.409 . S
C2185 C2183 1.415 . S
C2186 H2176 0.930 . S
C2186 C2184 1.419 . S
C2186 C2187 1.362 . S
C2187 H2177 0.930 . S
C2187 C2180 1.409 . S
C2187 C2186 1.362 . S
H2188 C2194 0.930 . S
H2189 C2197 0.930 . S
H2190 C2198 0.930 . S
H2191 C2199 0.930 . S
H2192 C2202 0.930 . S
H2193 C2203 0.930 . S
C2194 H2188 0.930 . S
C2194 C2195 1.355 . S
C2194 C2196 1.415 . S
C2195 C2194 1.355 . S
C2195 C2197 1.419 . S
C2196 C2194 1.415 . S
C2196 C2201 1.425 . S
C2196 C2203 1.409 . S
C2197 H2189 0.930 . S
C2197 C2195 1.419 . S
C2197 C2198 1.362 . S
C2198 H2190 0.930 . S
C2198 C2197 1.362 . S
C2198 C2201 1.409 . S
C2199 H2191 0.930 . S
C2199 C2200 1.355 . S
C2199 C2201 1.415 . S
C2200 C2199 1.355 . S
C2200 C2202 1.419 . S
C2201 C2196 1.425 . S
C2201 C2198 1.409 . S
C2201 C2199 1.415 . S
C2202 H2192 0.930 . S
C2202 C2200 1.419 . S
C2202 C2203 1.362 . S
C2203 H2193 0.930 . S
C2203 C2196 1.409 . S
C2203 C2202 1.362 . S
H2204 C2210 0.930 . S
H2205 C2213 0.930 . S
H2206 C2214 0.930 . S
H2207 C2215 0.930 . S
H2208 C2218 0.930 . S
H2209 C2219 0.930 . S
C2210 H2204 0.930 . S
C2210 C2211 1.355 . S
C2210 C2212 1.415 . S
C2211 C2210 1.355 . S
C2211 C2213 1.419 . S
C2212 C2210 1.415 . S
C2212 C2217 1.425 . S
C2212 C2219 1.409 . S
C2213 H2205 0.930 . S
C2213 C2211 1.419 . S
C2213 C2214 1.362 . S
C2214 H2206 0.930 . S
C2214 C2213 1.362 . S
C2214 C2217 1.409 . S
C2215 H2207 0.930 . S
C2215 C2216 1.355 . S
C2215 C2217 1.415 . S
C2216 C2215 1.355 . S
C2216 C2218 1.419 . S
C2217 C2212 1.425 . S
C2217 C2214 1.409 . S
C2217 C2215 1.415 . S
C2218 H2208 0.930 . S
C2218 C2216 1.419 . S
C2218 C2219 1.362 . S
C2219 H2209 0.930 . S
C2219 C2212 1.409 . S
C2219 C2218 1.362 . S
H2220 C2226 0.930 . S
H2221 C2229 0.936 1_455 S
H2222 C2230 0.930 . S
H2223 C2231 0.943 . S
H2224 C2234 0.930 . S
H2225 C2235 0.930 . S
C2226 H2220 0.930 . S
C2226 C2227 1.355 . S
C2226 C2228 1.415 . S
C2227 C2226 1.355 . S
C2227 C2229 1.427 . S
C2228 C2226 1.415 . S
C2228 C2233 1.425 . S
C2228 C2235 1.409 . S
C2229 H2221 0.936 1_655 S
C2229 C2227 1.427 . S
C2229 C2230 1.348 1_655 S
C2230 H2222 0.930 . S
C2230 C2229 1.348 1_455 S
C2230 C2233 1.409 1_455 S
C2231 H2223 0.943 . S
C2231 C2232 1.363 1_455 S
C2231 C2233 1.394 1_455 S
C2232 C2231 1.363 1_655 S
C2232 C2234 1.419 . S
C2233 C2228 1.425 . S
C2233 C2230 1.409 1_655 S
C2233 C2231 1.394 1_655 S
C2234 H2224 0.930 . S
C2234 C2232 1.419 . S
C2234 C2235 1.362 . S
C2235 H2225 0.930 . S
C2235 C2228 1.409 . S
C2235 C2234 1.362 . S
H2236 C2242 0.930 . S
H2237 C2245 0.930 . S
H2238 C2246 0.930 . S
H2239 C2247 0.930 . S
H2240 C2250 0.930 . S
H2241 C2251 0.930 . S
C2242 H2236 0.930 . S
C2242 C2243 1.355 . S
C2242 C2244 1.415 . S
C2243 C2242 1.355 . S
C2243 C2245 1.419 . S
C2244 C2242 1.415 . S
C2244 C2249 1.425 . S
C2244 C2251 1.409 . S
C2245 H2237 0.930 . S
C2245 C2243 1.419 . S
C2245 C2246 1.362 . S
C2246 H2238 0.930 . S
C2246 C2245 1.362 . S
C2246 C2249 1.409 . S
C2247 H2239 0.930 . S
C2247 C2248 1.355 . S
C2247 C2249 1.415 . S
C2248 C2247 1.355 . S
C2248 C2250 1.419 . S
C2249 C2244 1.425 . S
C2249 C2246 1.409 . S
C2249 C2247 1.415 . S
C2250 H2240 0.930 . S
C2250 C2248 1.419 . S
C2250 C2251 1.362 . S
C2251 H2241 0.930 . S
C2251 C2244 1.409 . S
C2251 C2250 1.362 . S
H2252 C2258 0.930 . S
H2253 C2261 0.930 . S
H2254 C2262 0.930 . S
H2255 C2263 0.930 . S
H2256 C2266 0.937 1_565 S
H2257 C2267 0.930 1_565 S
C2258 H2252 0.930 . S
C2258 C2259 1.355 . S
C2258 C2260 1.415 . S
C2259 C2258 1.355 . S
C2259 C2261 1.419 . S
C2260 C2258 1.415 . S
C2260 C2265 1.425 . S
C2260 C2267 1.409 . S
C2261 H2253 0.930 . S
C2261 C2259 1.419 . S
C2261 C2262 1.362 . S
C2262 H2254 0.930 . S
C2262 C2261 1.362 . S
C2262 C2265 1.409 . S
C2263 H2255 0.930 . S
C2263 C2264 1.355 . S
C2263 C2265 1.415 . S
C2264 C2263 1.355 . S
C2264 C2266 1.419 . S
C2265 C2260 1.425 . S
C2265 C2262 1.409 . S
C2265 C2263 1.415 . S
C2266 H2256 0.937 1_545 S
C2266 C2264 1.419 . S
C2266 C2267 1.355 . S
C2267 H2257 0.930 1_545 S
C2267 C2260 1.409 . S
C2267 C2266 1.355 . S
C1123 C7 1.473 . S
C1128 C729 1.476 . S
C1139 C23 1.589 . S
C1144 C777 1.602 . S
C1160 C825 1.508 . S
C1155 C37 1.460 . S
C1171 C35 1.470 . S
C1176 C849 1.509 . S
C1187 C9 1.488 . S
C1192 C921 1.519 . S
C1203 C21 1.599 . S
C1208 C969 1.614 . S
C1219 C49 1.455 . S
C1224 C897 1.489 . S
C1240 C945 1.593 . S
C1235 C65 1.609 . S
C1256 C873 1.516 . S
C1251 C79 1.486 1_565 S
C1267 C77 1.453 . S
C1272 C801 1.481 . S
C1288 C705 1.525 . S
C1283 C51 1.473 1_655 S
C1299 C63 1.592 . S
C1304 C753 1.624 . S
C1315 C91 1.650 . S
C1320 C1017 1.658 . S
C1331 C107 1.675 . S
C1336 C1065 1.642 . S
C1352 C1089 1.667 . S
C1347 C121 1.666 . S
C1363 C119 1.626 . S
C1368 C273 1.616 . S
C1379 C93 1.677 . S
C1384 C345 1.643 . S
C1395 C105 1.644 . S
C1400 C393 1.654 . S
C1411 C133 1.547 . S
C1416 C321 1.579 . S
C1427 C149 1.636 . S
C1432 C369 1.655 . S
C1448 C297 1.590 . S
C1443 C163 1.673 . S
C1464 C1113 1.645 . S
C1459 C161 1.686 . S
C1480 C993 1.646 . S
C1475 C135 1.664 . S
C1496 C1041 1.690 . S
C1491 C147 1.669 . S
C1507 C175 1.595 . S
C1512 C441 1.597 . S
C1523 C191 1.629 . S
C1528 C489 1.633 . S
C1539 C205 1.657 . S
C1544 C513 1.653 . S
C1555 C203 1.704 . S
C1560 C561 1.704 . S
C1576 C633 1.660 . S
C1571 C177 1.667 . S
C1592 C681 1.675 . S
C1587 C189 1.613 . S
C1608 C609 1.692 . S
C1603 C217 1.631 . S
C1624 C657 1.646 . S
C1619 C233 1.684 . S
C1635 C247 1.669 . S
C1640 C585 1.608 . S
C1656 C537 1.609 . S
C1651 C245 1.587 . S
C1667 C219 1.658 . S
C1672 C417 1.667 . S
C1688 C465 1.638 . S
C1683 C231 1.594 . S
C1704 C282 1.606 . S
C1699 C8 1.608 . S
C1715 C17 1.544 . S
C1720 C336 1.525 . S
C1736 C384 1.602 . S
C1731 C31 1.601 . S
C1752 C432 1.598 . S
C1747 C36 1.619 . S
C1768 C480 1.558 . S
C1763 C3 1.570 . S
C1784 C522 1.533 . S
C1779 C22 1.539 . S
C1795 C50 1.616 . S
C1800 C528 1.605 . S
C1811 C59 1.519 . S
C1816 C426 1.463 . S
C1827 C73 1.566 . S
C1832 C474 1.526 . S
C1843 C78 1.638 . S
C1848 C330 1.612 . S
C1864 C378 1.518 . S
C1859 C45 1.569 . S
C1875 C64 1.554 . S
C1880 C288 1.541 . S
C1896 C570 1.568 . S
C1891 C92 1.569 . S
C1907 C101 1.648 . S
C1912 C624 1.614 . S
C1923 C115 1.663 . S
C1928 C672 1.647 . S
C1944 C720 1.439 . S
C1939 C120 1.452 . S
C1955 C87 1.561 . S
C1960 C768 1.535 . S
C1971 C106 1.427 . S
C1976 C816 1.419 . S
C1987 C134 1.426 . S
C1992 C810 1.422 . S
C2003 C143 1.434 . S
C2008 C714 1.448 . S
C2024 C762 1.577 . S
C2019 C157 1.592 . S
C2035 C162 1.594 . S
C2040 C618 1.574 . S
C2051 C129 1.646 . S
C2056 C666 1.590 . S
C2072 C576 1.617 . S
C2067 C148 1.637 . S
C2088 C858 1.447 . S
C2083 C176 1.441 . S
C2099 C185 1.433 . S
C2104 C912 1.428 . S
C2115 C199 1.582 . S
C2120 C960 1.545 . S
C2136 C1008 1.560 . S
C2131 C204 1.583 . S
C2152 C1056 1.624 . S
C2147 C171 1.654 . S
C2163 C190 1.644 . S
C2168 C1098 1.647 . S
C2179 C218 1.582 . S
C2184 C1104 1.566 . S
C2195 C227 1.642 . S
C2200 C1002 1.620 . S
C2216 C1050 1.587 . S
C2211 C241 1.637 . S
C2232 C906 1.445 . S
C2227 C246 1.447 . S
C2248 C954 1.518 . S
C2243 C213 1.566 . S
C2259 C232 1.425 . S
C2264 C864 1.434 . S
