# Generated by pormake.
# Topology csq, (4,8)-cn, num edge types: 1
# Building blocks:
#     Node 0, Type 0, BuildingBlock: NAHDIM_clean_linker_0, # of connection points: 4
#     Node 1, Type 0, BuildingBlock: NAHDIM_clean_linker_0, # of connection points: 4
#     Node 2, Type 0, BuildingBlock: NAHDIM_clean_linker_0, # of connection points: 4
#     Node 3, Type 0, BuildingBlock: NAHDIM_clean_linker_0, # of connection points: 4
#     Node 4, Type 0, BuildingBlock: NAHDIM_clean_linker_0, # of connection points: 4
#     Node 5, Type 0, BuildingBlock: NAHDIM_clean_linker_0, # of connection points: 4
#     Node 6, Type 1, BuildingBlock: TAGTUT_clean_sbu_1, # of connection points: 8
#     Node 7, Type 1, BuildingBlock: TAGTUT_clean_sbu_1, # of connection points: 8
#     Node 8, Type 1, BuildingBlock: TAGTUT_clean_sbu_1, # of connection points: 8
#     Edge 9, Type (0, 1), None
#     Edge 10, Type (0, 1), None
#     Edge 11, Type (0, 1), None
#     Edge 12, Type (0, 1), None
#     Edge 13, Type (0, 1), None
#     Edge 14, Type (0, 1), None
#     Edge 15, Type (0, 1), None
#     Edge 16, Type (0, 1), None
#     Edge 17, Type (0, 1), None
#     Edge 18, Type (0, 1), None
#     Edge 19, Type (0, 1), None
#     Edge 20, Type (0, 1), None
#     Edge 21, Type (0, 1), None
#     Edge 22, Type (0, 1), None
#     Edge 23, Type (0, 1), None
#     Edge 24, Type (0, 1), None
#     Edge 25, Type (0, 1), None
#     Edge 26, Type (0, 1), None
#     Edge 27, Type (0, 1), None
#     Edge 28, Type (0, 1), None
#     Edge 29, Type (0, 1), None
#     Edge 30, Type (0, 1), None
#     Edge 31, Type (0, 1), None
#     Edge 32, Type (0, 1), None
# Relax obj value: 0.051
# Max RMSD: 0.130
# Mean RMSD: 0.086
data_MOF--net-csq--node1-TAGTUT_clean_sbu_1--node2-NAHDIM_clean_linker_0--edge1-none
_symmetry_space_group_name_H-M    P1
_symmetry_Int_Tables_number       1
_symmetry_cell_setting            triclinic
loop_
_symmetry_equiv_pos_as_xyz
'x, y, z'
_cell_length_a     41.760529
_cell_length_b     41.285972
_cell_length_c     16.774709
_cell_angle_alpha  93.180846
_cell_angle_beta   92.400606
_cell_angle_gamma 119.71238
loop_
_atom_site_label
_atom_site_type_symbol
_atom_site_fract_x
_atom_site_fract_y
_atom_site_fract_z
_atom_type_partial_charge
C0 C 0.42938 0.55183 0.71732 0.0
C1 C 0.41361 0.52252 0.64558 0.0
C2 C 0.3724 0.52601 0.54181 0.0
C3 C 0.34668 0.48773 0.52569 0.0
C4 C 0.31316 0.47592 0.4801 0.0
C5 C 0.30545 0.50296 0.45033 0.0
C6 C 0.33142 0.54151 0.46663 0.0
C7 C 0.3648 0.55246 0.51135 0.0
C8 C 0.28631 0.4346 0.46227 0.0
C9 C 0.32409 0.57112 0.43603 0.0
C10 C 0.06973 0.43681 0.71638 0.0
C11 C 0.08292 0.46076 0.64576 0.0
C12 C 0.11343 0.44891 0.53424 0.0
C13 C 0.13809 0.48615 0.51982 0.0
C14 C 0.16772 0.4948 0.47178 0.0
C15 C 0.17299 0.46568 0.43813 0.0
C16 C 0.14757 0.4281 0.45103 0.0
C17 C 0.11787 0.42024 0.49797 0.0
C18 C 0.1935 0.53506 0.45716 0.0
C19 C 0.15216 0.39625 0.41639 0.0
C20 C 0.1012 0.44974 0.93945 0.0
C21 C 0.13107 0.48619 0.95705 0.0
C22 C 0.16515 0.49219 0.99002 0.0
C23 C 0.16939 0.46105 0.00454 0.0
C24 C 0.14033 0.42438 0.98021 0.0
C25 C 0.1065 0.41921 0.94732 0.0
C26 C 0.19603 0.53173 0.01296 0.0
C27 C 0.14435 0.39068 0.99321 0.0
C28 C 0.44785 0.54996 0.95132 0.0
C29 C 0.42098 0.50887 0.92212 0.0
C30 C 0.35914 0.49887 0.92645 0.0
C31 C 0.34873 0.52617 0.93361 0.0
C32 C 0.31912 0.52101 0.97849 0.0
C33 C 0.29869 0.4871 0.01479 0.0
C34 C 0.30847 0.45884 0.00509 0.0
C35 C 0.33896 0.4653 0.96189 0.0
C36 C 0.30973 0.55187 0.9869 0.0
C37 C 0.28662 0.4217 0.03971 0.0
C38 C 0.27091 0.49114 0.39954 0.0
C39 C 0.2391 0.48393 0.43739 0.0
C40 C 0.20605 0.47446 0.39311 0.0
C41 C 0.20484 0.47244 0.30834 0.0
C42 C 0.17252 0.46402 0.2617 0.0
C43 C 0.17162 0.46214 0.17849 0.0
C44 C 0.20296 0.46839 0.13852 0.0
C45 C 0.2023 0.46681 0.054 0.0
C46 C 0.23357 0.47247 0.01588 0.0
C47 C 0.2663 0.48071 0.06003 0.0
C48 C 0.26777 0.48337 0.14497 0.0
C49 C 0.30038 0.49278 0.19179 0.0
C50 C 0.30143 0.4951 0.27509 0.0
C51 C 0.26998 0.48844 0.31497 0.0
C52 C 0.23686 0.47915 0.26922 0.0
C53 C 0.23582 0.47681 0.18416 0.0
C54 C 0.02704 0.43763 0.01856 0.0
C55 C 0.04972 0.46085 0.95273 0.0
O56 O 0.40551 0.53868 0.58341 0.0
O57 O 0.38887 0.50537 0.88564 0.0
O58 O 0.06688 0.44323 0.91631 0.0
O59 O 0.08469 0.43931 0.58107 0.0
H60 H 0.38855 0.4975 0.66313 0.0
H61 H 0.40784 0.55801 0.73765 0.0
H62 H 0.45316 0.5781 0.70032 0.0
H63 H 0.43888 0.54177 0.76766 0.0
H64 H 0.35308 0.4671 0.54668 0.0
H65 H 0.38514 0.58191 0.52342 0.0
H66 H 0.25944 0.42754 0.48631 0.0
H67 H 0.29663 0.41708 0.48867 0.0
H68 H 0.28111 0.42748 0.39645 0.0
H69 H 0.34583 0.59987 0.45915 0.0
H70 H 0.29689 0.56648 0.45369 0.0
H71 H 0.32288 0.56907 0.3696 0.0
H72 H 0.11084 0.48477 0.66567 0.0
H73 H 0.07072 0.45431 0.76993 0.0
H74 H 0.0882 0.42531 0.73026 0.0
H75 H 0.04101 0.41319 0.70252 0.0
H76 H 0.13408 0.50846 0.54519 0.0
H77 H 0.09841 0.39155 0.50838 0.0
H78 H 0.1961 0.53769 0.39189 0.0
H79 H 0.22146 0.54428 0.48589 0.0
H80 H 0.18385 0.55407 0.48134 0.0
H81 H 0.13069 0.36869 0.43401 0.0
H82 H 0.17985 0.4008 0.43675 0.0
H83 H 0.15057 0.39543 0.35004 0.0
H84 H 0.07016 0.48917 0.981 0.0
H85 H 0.12766 0.50997 0.9464 0.0
H86 H 0.08345 0.39121 0.93147 0.0
H87 H 0.20157 0.53634 0.07912 0.0
H88 H 0.18931 0.55292 0.99216 0.0
H89 H 0.22179 0.53613 0.98715 0.0
H90 H 0.12057 0.36437 0.96422 0.0
H91 H 0.14642 0.38797 0.05845 0.0
H92 H 0.17023 0.39438 0.96917 0.0
H93 H 0.41462 0.49276 0.976 0.0
H94 H 0.47276 0.55293 0.98505 0.0
H95 H 0.43419 0.56058 0.99215 0.0
H96 H 0.45656 0.56751 0.90026 0.0
H97 H 0.36447 0.55194 0.90548 0.0
H98 H 0.3469 0.44405 0.95489 0.0
H99 H 0.30486 0.55665 0.04995 0.0
H100 H 0.28389 0.54347 0.94923 0.0
H101 H 0.33195 0.57861 0.96757 0.0
H102 H 0.29445 0.40095 0.01727 0.0
H103 H 0.25654 0.41003 0.02481 0.0
H104 H 0.29163 0.42577 0.10592 0.0
H105 H 0.24011 0.48582 0.50233 0.0
H106 H 0.14761 0.45897 0.28907 0.0
H107 H 0.1459 0.45562 0.14595 0.0
H108 H 0.23258 0.471 0.95097 0.0
H109 H 0.3255 0.49847 0.16454 0.0
H110 H 0.32729 0.50225 0.30786 0.0
H111 H 0.01291 0.45125 0.04827 0.0
H112 H 0.04558 0.43535 0.06457 0.0
H113 H 0.00596 0.40897 0.99328 0.0
C114 C 0.89718 0.43724 0.61495 0.0
C115 C 0.91194 0.4157 0.56607 0.0
C116 C 0.87491 0.37895 0.44739 0.0
C117 C 0.88479 0.35196 0.42734 0.0
C118 C 0.85868 0.31697 0.38895 0.0
C119 C 0.82174 0.30875 0.37196 0.0
C120 C 0.81164 0.33595 0.39367 0.0
C121 C 0.83865 0.3711 0.43001 0.0
C122 C 0.87066 0.28894 0.36596 0.0
C123 C 0.77246 0.32801 0.37801 0.0
C124 C 0.70378 0.05304 0.6269 0.0
C125 C 0.68605 0.07115 0.57806 0.0
C126 C 0.71396 0.10866 0.46575 0.0
C127 C 0.69895 0.13244 0.47174 0.0
C128 C 0.71192 0.16379 0.42722 0.0
C129 C 0.74124 0.17209 0.37777 0.0
C130 C 0.75724 0.14882 0.37399 0.0
C131 C 0.74261 0.11681 0.41633 0.0
C132 C 0.69397 0.18775 0.43235 0.0
C133 C 0.78972 0.15754 0.3252 0.0
C134 C 0.67702 0.08531 0.84865 0.0
C135 C 0.65519 0.09654 0.8903 0.0
C136 C 0.67148 0.13123 0.93609 0.0
C137 C 0.71052 0.15413 0.94342 0.0
C138 C 0.73246 0.14246 0.9018 0.0
C139 C 0.71523 0.10864 0.85323 0.0
C140 C 0.6468 0.14324 0.97584 0.0
C141 C 0.77415 0.16569 0.90771 0.0
C142 C 0.86974 0.45589 0.96115 0.0
C143 C 0.87738 0.42552 0.92618 0.0
C144 C 0.82629 0.36296 0.89179 0.0
C145 C 0.78814 0.34695 0.89558 0.0
C146 C 0.76726 0.31131 0.92259 0.0
C147 C 0.78516 0.29127 0.94431 0.0
C148 C 0.8231 0.3059 0.9326 0.0
C149 C 0.84338 0.34185 0.90704 0.0
C150 C 0.72676 0.29625 0.93339 0.0
C151 C 0.84285 0.28477 0.95261 0.0
C152 C 0.79441 0.27246 0.32771 0.0
C153 C 0.77856 0.24045 0.36962 0.0
C154 C 0.75518 0.20501 0.32996 0.0
C155 C 0.74714 0.20123 0.24598 0.0
C156 C 0.72443 0.16598 0.20367 0.0
C157 C 0.71865 0.16239 0.12051 0.0
C158 C 0.73397 0.19405 0.0766 0.0
C159 C 0.72877 0.19085 0.99187 0.0
C160 C 0.74439 0.22309 0.95053 0.0
C161 C 0.76616 0.25843 0.9912 0.0
C162 C 0.77198 0.26221 0.07556 0.0
C163 C 0.79429 0.2975 0.11788 0.0
C164 C 0.80176 0.30089 0.20019 0.0
C165 C 0.78631 0.26926 0.24404 0.0
C166 C 0.7628 0.2335 0.20299 0.0
C167 C 0.75585 0.22993 0.11842 0.0
C168 C 0.63929 0.987 0.78534 0.0
C169 C 0.63417 0.01863 0.82247 0.0
O170 O 0.90004 0.41224 0.48626 0.0
O171 O 0.84648 0.39944 0.87776 0.0
O172 O 0.66208 0.05255 0.80211 0.0
O173 O 0.70099 0.07706 0.50456 0.0
H174 H 0.90045 0.38751 0.58926 0.0
H175 H 0.86653 0.42246 0.60571 0.0
H176 H 0.90821 0.46602 0.59612 0.0
H177 H 0.90467 0.43879 0.67973 0.0
H178 H 0.91305 0.35852 0.4415 0.0
H179 H 0.83145 0.39231 0.44647 0.0
H180 H 0.85625 0.26418 0.40071 0.0
H181 H 0.90097 0.30079 0.37759 0.0
H182 H 0.8628 0.27908 0.30145 0.0
H183 H 0.76795 0.34971 0.40918 0.0
H184 H 0.75264 0.30024 0.39772 0.0
H185 H 0.76622 0.32722 0.31274 0.0
H186 H 0.69312 0.09829 0.6112 0.0
H187 H 0.69252 0.04703 0.68599 0.0
H188 H 0.7341 0.07241 0.63671 0.0
H189 H 0.69889 0.02652 0.59473 0.0
H190 H 0.67664 0.12629 0.50952 0.0
H191 H 0.75401 0.09827 0.41224 0.0
H192 H 0.68606 0.19186 0.37129 0.0
H193 H 0.71404 0.21576 0.46235 0.0
H194 H 0.66896 0.17527 0.46652 0.0
H195 H 0.80367 0.14168 0.34226 0.0
H196 H 0.81034 0.18792 0.3327 0.0
H197 H 0.77995 0.14983 0.26082 0.0
H198 H 0.63589 0.01769 0.88876 0.0
H199 H 0.62543 0.0788 0.88553 0.0
H200 H 0.73167 0.09975 0.82004 0.0
H201 H 0.64627 0.13807 0.04008 0.0
H202 H 0.61791 0.12733 0.94826 0.0
H203 H 0.65727 0.17359 0.97214 0.0
H204 H 0.78703 0.14904 0.88729 0.0
H205 H 0.78525 0.17776 0.97017 0.0
H206 H 0.78253 0.18914 0.86914 0.0
H207 H 0.88302 0.41265 0.97769 0.0
H208 H 0.8668 0.47184 0.91296 0.0
H209 H 0.89256 0.47559 0.00577 0.0
H210 H 0.84373 0.44284 0.99195 0.0
H211 H 0.77513 0.36332 0.8825 0.0
H212 H 0.87282 0.35405 0.9017 0.0
H213 H 0.72225 0.29443 -0.00185 0.0
H214 H 0.71021 0.26752 0.90316 0.0
H215 H 0.71646 0.31418 0.90903 0.0
H216 H 0.86999 0.2965 0.92633 0.0
H217 H 0.82564 0.25478 0.9306 0.0
H218 H 0.84776 0.2864 0.01863 0.0
H219 H 0.78531 0.24305 0.43368 0.0
H220 H 0.71146 0.14064 0.23421 0.0
H221 H 0.702 0.13443 0.09119 0.0
H222 H 0.74082 0.22052 0.8856 0.0
H223 H 0.8068 0.32301 0.08784 0.0
H224 H 0.81987 0.32873 0.22885 0.0
H225 H 0.63725 0.98599 0.71892 0.0
H226 H 0.61783 0.95961 0.80384 0.0
H227 H 0.66691 0.99146 0.80607 0.0
C228 C 0.5781 0.0066 0.23171 0.0
C229 C 0.5638 0.9725 0.28033 0.0
C230 C 0.57584 0.92004 0.25987 0.0
C231 C 0.6027 0.91135 0.23797 0.0
C232 C 0.59403 0.87421 0.22113 0.0
C233 C 0.55722 0.84497 0.22542 0.0
C234 C 0.53023 0.85329 0.25201 0.0
C235 C 0.53988 0.89085 0.26984 0.0
C236 C 0.62401 0.86643 0.19568 0.0
C237 C 0.49099 0.82262 0.25854 0.0
C238 C 0.54565 0.59656 0.29008 0.0
C239 C 0.55467 0.61457 0.37655 0.0
C240 C 0.53729 0.66215 0.3607 0.0
C241 C 0.50542 0.66299 0.33594 0.0
C242 C 0.50765 0.69224 0.29339 0.0
C243 C 0.54274 0.72159 0.27702 0.0
C244 C 0.57521 0.72258 0.30823 0.0
C245 C 0.57217 0.69271 0.34957 0.0
C246 C 0.4725 0.69079 0.26224 0.0
C247 C 0.61305 0.75424 0.29429 0.0
C248 C 0.59649 0.64683 0.84691 0.0
C249 C 0.55831 0.63419 0.83928 0.0
C250 C 0.54528 0.65975 0.84559 0.0
C251 C 0.57078 0.69849 0.86092 0.0
C252 C 0.60917 0.71133 0.86357 0.0
C253 C 0.62146 0.6853 0.85603 0.0
C254 C 0.50424 0.6453 0.84097 0.0
C255 C 0.63727 0.75245 0.87899 0.0
C256 C 0.46849 0.88584 0.7677 0.0
C257 C 0.50611 0.89557 0.73755 0.0
C258 C 0.51474 0.84158 0.7259 0.0
C259 C 0.48955 0.80354 0.72845 0.0
C260 C 0.49978 0.78031 0.76698 0.0
C261 C 0.53643 0.79547 0.80162 0.0
C262 C 0.56298 0.83311 0.79146 0.0
C263 C 0.55167 0.85599 0.75474 0.0
C264 C 0.47083 0.74021 0.7752 0.0
C265 C 0.60266 0.8499 0.82439 0.0
C266 C 0.54688 0.80651 0.19401 0.0
C267 C 0.54639 0.78149 0.24741 0.0
C268 C 0.54519 0.74837 0.21913 0.0
C269 C 0.54694 0.74121 0.1364 0.0
C270 C 0.55079 0.71087 0.10695 0.0
C271 C 0.5549 0.70568 0.02623 0.0
C272 C 0.55312 0.7293 0.97086 0.0
C273 C 0.55791 0.72469 0.88877 0.0
C274 C 0.5529 0.74677 0.8344 0.0
C275 C 0.54465 0.77448 0.8609 0.0
C276 C 0.54307 0.78149 0.94387 0.0
C277 C 0.5377 0.8109 0.97363 0.0
C278 C 0.53899 0.81924 0.0555 0.0
C279 C 0.5434 0.7971 0.11065 0.0
C280 C 0.54539 0.7654 0.08187 0.0
C281 C 0.54696 0.75857 -0.00133 0.0
C282 C 0.61805 0.57261 0.88365 0.0
C283 C 0.59126 0.58483 0.85162 0.0
O284 O 0.58611 0.95686 0.27007 0.0
O285 O 0.50277 0.8639 0.69583 0.0
O286 O 0.61053 0.62325 0.84681 0.0
O287 O 0.53336 0.63097 0.39248 0.0
H288 H 0.53476 0.95304 0.25661 0.0
H289 H 0.57731 0.99788 0.16747 0.0
H290 H 0.60707 0.02778 0.25301 0.0
H291 H 0.56032 0.01943 0.23729 0.0
H292 H 0.6305 0.934 0.23215 0.0
H293 H 0.51911 0.89697 0.29048 0.0
H294 H 0.62275 0.84265 0.2261 0.0
H295 H 0.65205 0.89124 0.20914 0.0
H296 H 0.61983 0.85859 0.13014 0.0
H297 H 0.47331 0.8336 0.28146 0.0
H298 H 0.49079 0.80221 0.29919 0.0
H299 H 0.47877 0.80727 0.19877 0.0
H300 H 0.5846 0.63572 0.38424 0.0
H301 H 0.51558 0.5763 0.27843 0.0
H302 H 0.5614 0.58181 0.27859 0.0
H303 H 0.55358 0.61847 0.24746 0.0
H304 H 0.47868 0.63962 0.34624 0.0
H305 H 0.59708 0.69324 0.37202 0.0
H306 H 0.46984 0.68695 0.19577 0.0
H307 H 0.47362 0.71768 0.27989 0.0
H308 H 0.44753 0.66758 0.28496 0.0
H309 H 0.63544 0.75312 0.33001 0.0
H310 H 0.61476 0.78158 0.3098 0.0
H311 H 0.61777 0.75282 0.22987 0.0
H312 H 0.56956 0.57709 0.89476 0.0
H313 H 0.53855 0.60452 0.83008 0.0
H314 H 0.65084 0.69487 0.86048 0.0
H315 H 0.49565 0.64717 0.90201 0.0
H316 H 0.48838 0.61576 0.81572 0.0
H317 H 0.49714 0.66256 0.80356 0.0
H318 H 0.66598 0.75819 0.87309 0.0
H319 H 0.63554 0.76262 0.94046 0.0
H320 H 0.63112 0.76867 0.83641 0.0
H321 H 0.52663 0.90505 0.79045 0.0
H322 H 0.44759 0.87846 0.71654 0.0
H323 H 0.47062 0.90972 0.80608 0.0
H324 H 0.45883 0.86154 0.80431 0.0
H325 H 0.46127 0.7926 0.70419 0.0
H326 H 0.5714 0.88525 0.74992 0.0
H327 H 0.46604 0.7361 0.8394 0.0
H328 H 0.48074 0.72115 0.753 0.0
H329 H 0.44409 0.73216 0.74156 0.0
H330 H 0.62119 0.87582 0.79614 0.0
H331 H 0.61245 0.8295 0.81495 0.0
H332 H 0.60475 0.85714 0.88983 0.0
H333 H 0.5481 0.78835 0.31138 0.0
H334 H 0.55194 0.69148 0.14625 0.0
H335 H 0.55912 0.68263 0.00795 0.0
H336 H 0.5556 0.74248 0.77124 0.0
H337 H 0.53355 0.82866 0.93444 0.0
H338 H 0.53602 0.84299 0.07511 0.0
H339 H 0.64059 0.57957 0.84316 0.0
H340 H 0.60321 0.54194 0.88923 0.0
H341 H 0.63061 0.5872 0.9439 0.0
C342 C 0.98357 0.58832 0.32689 0.0
C343 C 0.965 0.57286 0.40369 0.0
C344 C 0.89975 0.53301 0.35282 0.0
C345 C 0.87186 0.49603 0.33261 0.0
C346 C 0.83773 0.4877 0.29478 0.0
C347 C 0.83152 0.51729 0.27668 0.0
C348 C 0.85921 0.5548 0.29892 0.0
C349 C 0.89301 0.56232 0.33715 0.0
C350 C 0.80856 0.44733 0.273 0.0
C351 C 0.85324 0.58695 0.2812 0.0
C352 C 0.56474 0.45758 0.34045 0.0
C353 C 0.58779 0.47898 0.41928 0.0
C354 C 0.64986 0.50432 0.36917 0.0
C355 C 0.67814 0.53629 0.34016 0.0
C356 C 0.70622 0.53497 0.29963 0.0
C357 C 0.70613 0.50071 0.28838 0.0
C358 C 0.67847 0.46849 0.32057 0.0
C359 C 0.65063 0.47062 0.361 0.0
C360 C 0.73545 0.57003 0.26694 0.0
C361 C 0.67785 0.43166 0.31031 0.0
C362 C 0.59818 0.41864 0.80055 0.0
C363 C 0.62382 0.45573 0.78689 0.0
C364 C 0.66085 0.47239 0.81775 0.0
C365 C 0.67263 0.45113 0.8608 0.0
C366 C 0.64722 0.41311 0.87061 0.0
C367 C 0.61017 0.3977 0.84175 0.0
C368 C 0.68698 0.51308 0.80694 0.0
C369 C 0.65877 0.38893 0.91373 0.0
C370 C 0.92955 0.57478 0.60267 0.0
C371 C 0.92451 0.55897 0.68437 0.0
C372 C 0.86365 0.51964 0.73559 0.0
C373 C 0.85847 0.54757 0.77424 0.0
C374 C 0.83031 0.53833 0.82658 0.0
C375 C 0.80682 0.50039 0.84061 0.0
C376 C 0.8117 0.47221 0.80076 0.0
C377 C 0.83991 0.48222 0.74842 0.0
C378 C 0.82505 0.56909 0.86533 0.0
C379 C 0.78715 0.43151 0.8135 0.0
C380 C 0.79642 0.50902 0.23261 0.0
C381 C 0.76775 0.50649 0.27701 0.0
C382 C 0.73389 0.49851 0.23907 0.0
C383 C 0.72786 0.49135 0.15476 0.0
C384 C 0.69351 0.48132 0.115 0.0
C385 C 0.68773 0.47406 0.03222 0.0
C386 C 0.71633 0.47734 0.98575 0.0
C387 C 0.71041 0.46916 0.90175 0.0
C388 C 0.74026 0.47647 0.85638 0.0
C389 C 0.77586 0.49018 0.89317 0.0
C390 C 0.7814 0.4948 0.97792 0.0
C391 C 0.81582 0.50499 0.01766 0.0
C392 C 0.82073 0.50912 0.10108 0.0
C393 C 0.79169 0.5043 0.1479 0.0
C394 C 0.75703 0.49477 0.10902 0.0
C395 C 0.7516 0.48896 0.02416 0.0
C396 C 0.51113 0.37818 0.67913 0.0
C397 C 0.5451 0.41322 0.71977 0.0
O398 O 0.93268 0.53893 0.38596 0.0
O399 O 0.88982 0.52724 0.6827 0.0
O400 O 0.56154 0.40232 0.77751 0.0
O401 O 0.62237 0.50742 0.40322 0.0
H402 H 0.95911 0.59338 0.43588 0.0
H403 H 0.9655 0.59402 0.28671 0.0
H404 H 0.98939 0.56792 0.29396 0.0
H405 H 0.00998 0.61504 0.34162 0.0
H406 H 0.87716 0.4736 0.34561 0.0
H407 H 0.91401 0.59112 0.35355 0.0
H408 H 0.78213 0.44159 0.29756 0.0
H409 H 0.81679 0.42754 0.29591 0.0
H410 H 0.80341 0.44196 0.20683 0.0
H411 H 0.878 0.61463 0.2998 0.0
H412 H 0.82958 0.58477 0.31308 0.0
H413 H 0.84614 0.58548 0.21606 0.0
H414 H 0.59104 0.45954 0.45759 0.0
H415 H 0.56233 0.47716 0.30104 0.0
H416 H 0.53659 0.43547 0.35212 0.0
H417 H 0.57776 0.44363 0.30776 0.0
H418 H 0.67758 0.56225 0.3476 0.0
H419 H 0.62942 0.44584 0.38504 0.0
H420 H 0.76335 0.57609 0.29001 0.0
H421 H 0.73243 0.59476 0.28334 0.0
H422 H 0.73375 0.56569 0.20063 0.0
H423 H 0.65544 0.40951 0.34163 0.0
H424 H 0.70483 0.43532 0.33369 0.0
H425 H 0.67387 0.42217 0.24558 0.0
H426 H 0.56421 0.42648 0.67232 0.0
H427 H 0.61493 0.47225 0.75467 0.0
H428 H 0.59024 0.36903 0.85136 0.0
H429 H 0.70034 0.52873 0.86593 0.0
H430 H 0.67275 0.52655 0.77781 0.0
H431 H 0.7092 0.51541 0.76947 0.0
H432 H 0.63854 0.35864 0.89996 0.0
H433 H 0.66057 0.39559 0.97933 0.0
H434 H 0.68641 0.39437 0.89739 0.0
H435 H 0.92801 0.58129 0.72991 0.0
H436 H 0.95769 0.59942 0.60174 0.0
H437 H 0.90896 0.58385 0.59049 0.0
H438 H 0.92524 0.55309 0.55455 0.0
H439 H 0.87543 0.57647 0.7619 0.0
H440 H 0.84375 0.46078 0.71752 0.0
H441 H 0.83086 0.57129 0.93118 0.0
H442 H 0.79592 0.56231 0.85366 0.0
H443 H 0.84355 0.59673 0.84322 0.0
H444 H 0.79696 0.41348 0.78473 0.0
H445 H 0.75861 0.42189 0.78788 0.0
H446 H 0.78591 0.42789 0.87862 0.0
H447 H 0.7721 0.5115 0.34178 0.0
H448 H 0.6705 0.47845 0.14749 0.0
H449 H 0.6606 0.46618 0.00505 0.0
H450 H 0.73572 0.47135 0.79166 0.0
H451 H 0.83919 0.50948 0.98463 0.0
H452 H 0.84773 0.51663 0.1284 0.0
H453 H 0.4909 0.3634 0.72365 0.0
H454 H 0.49747 0.3857 0.63126 0.0
H455 H 0.51962 0.35881 0.65146 0.0
C456 C 0.3713 0.96508 0.69615 0.0
C457 C 0.38998 0.95875 0.76917 0.0
C458 C 0.35873 0.89671 0.81904 0.0
C459 C 0.33036 0.89926 0.8558 0.0
C460 C 0.30916 0.8733 0.9092 0.0
C461 C 0.3164 0.8442 0.92561 0.0
C462 C 0.34472 0.84138 0.888 0.0
C463 C 0.36534 0.86759 0.83456 0.0
C464 C 0.27857 0.87652 0.947 0.0
C465 C 0.35292 0.81049 0.90371 0.0
C466 C 0.04612 0.59628 0.92242 0.0
C467 C 0.07017 0.61627 0.85519 0.0
C468 C 0.13695 0.65607 0.89383 0.0
C469 C 0.17098 0.65782 0.88657 0.0
C470 C 0.20438 0.69057 0.91161 0.0
C471 C 0.2036 0.72238 0.94474 0.0
C472 C 0.16932 0.72126 0.94986 0.0
C473 C 0.13631 0.68796 0.92563 0.0
C474 C 0.2404 0.69068 0.90608 0.0
C475 C 0.16743 0.75472 0.98481 0.0
C476 C 0.17432 0.67163 0.39559 0.0
C477 C 0.20895 0.67398 0.39186 0.0
C478 C 0.2404 0.7081 0.3795 0.0
C479 C 0.23682 0.74002 0.36957 0.0
C480 C 0.20289 0.73853 0.38239 0.0
C481 C 0.17195 0.70416 0.39442 0.0
C482 C 0.27646 0.70904 0.36801 0.0
C483 C 0.19826 0.77222 0.37435 0.0
C484 C 0.42483 0.02281 0.53715 0.0
C485 C 0.43849 0.99803 0.4981 0.0
C486 C 0.39435 0.93207 0.4634 0.0
C487 C 0.39853 0.90054 0.45908 0.0
C488 C 0.37455 0.86861 0.40796 0.0
C489 C 0.34453 0.86766 0.36303 0.0
C490 C 0.33995 0.89957 0.36833 0.0
C491 C 0.3655 0.93175 0.41722 0.0
C492 C 0.38096 0.83567 0.4035 0.0
C493 C 0.30745 0.8994 0.3249 0.0
C494 C 0.29268 0.81517 0.97763 0.0
C495 C 0.26154 0.78318 0.94058 0.0
C496 C 0.23773 0.7546 0.98538 0.0
C497 C 0.24532 0.75757 0.06904 0.0
C498 C 0.22254 0.72856 0.11499 0.0
C499 C 0.22884 0.73225 0.19741 0.0
C500 C 0.25813 0.76521 0.23769 0.0
C501 C 0.26334 0.7697 0.32213 0.0
C502 C 0.29187 0.80309 0.36079 0.0
C503 C 0.31616 0.83225 0.31694 0.0
C504 C 0.31189 0.82776 0.2319 0.0
C505 C 0.33624 0.85566 0.18516 0.0
C506 C 0.33041 0.85151 0.1017 0.0
C507 C 0.3 0.81929 0.06193 0.0
C508 C 0.27601 0.79035 0.10773 0.0
C509 C 0.28221 0.79438 0.1925 0.0
C510 C 0.13382 0.58076 0.33471 0.0
C511 C 0.13707 0.60411 0.41206 0.0
O512 O 0.37969 0.92122 0.76693 0.0
O513 O 0.41688 0.96147 0.51668 0.0
O514 O 0.14218 0.63866 0.39478 0.0
O515 O 0.10574 0.6228 0.87202 0.0
H516 H 0.38165 0.968 0.82415 0.0
H517 H 0.34079 0.94767 0.69656 0.0
H518 H 0.37973 0.95696 0.64014 0.0
H519 H 0.37848 0.99487 0.69737 0.0
H520 H 0.32415 0.92092 0.84165 0.0
H521 H 0.38702 0.86568 0.80507 0.0
H522 H 0.25165 0.85077 0.9295 0.0
H523 H 0.27678 0.9011 0.92896 0.0
H524 H 0.28316 0.87896 0.01325 0.0
H525 H 0.37734 0.81355 0.8735 0.0
H526 H 0.32855 0.78302 0.88208 0.0
H527 H 0.35803 0.81028 0.96913 0.0
H528 H 0.06961 0.64267 0.84958 0.0
H529 H 0.01711 0.58938 0.90782 0.0
H530 H 0.05677 0.61489 0.97898 0.0
H531 H 0.0468 0.57024 0.9322 0.0
H532 H 0.17123 0.63304 0.86243 0.0
H533 H 0.11033 0.6869 0.93452 0.0
H534 H 0.25388 0.69489 0.9672 0.0
H535 H 0.25947 0.71436 0.87256 0.0
H536 H 0.23644 0.66416 0.87591 0.0
H537 H 0.13973 0.75171 0.972 0.0
H538 H 0.18855 0.78071 0.96064 0.0
H539 H 0.17345 0.75794 0.05077 0.0
H540 H 0.16055 0.60753 0.45247 0.0
H541 H 0.21126 0.64904 0.3932 0.0
H542 H 0.1452 0.70214 0.39873 0.0
H543 H 0.27993 0.70729 0.30293 0.0
H544 H 0.27723 0.68526 0.39408 0.0
H545 H 0.30011 0.73576 0.39579 0.0
H546 H 0.17264 0.76853 0.39983 0.0
H547 H 0.19674 0.7767 0.30996 0.0
H548 H 0.22242 0.79773 0.4049 0.0
H549 H 0.43736 0.99991 0.43206 0.0
H550 H 0.4412 0.05183 0.51949 0.0
H551 H 0.39532 0.01195 0.5173 0.0
H552 H 0.42763 0.02364 0.60342 0.0
H553 H 0.42084 0.9011 0.49572 0.0
H554 H 0.36206 0.9561 0.42207 0.0
H555 H 0.37672 0.82351 0.34062 0.0
H556 H 0.36079 0.81362 0.43888 0.0
H557 H 0.40927 0.84361 0.428 0.0
H558 H 0.30398 0.92317 0.3477 0.0
H559 H 0.28144 0.87285 0.33096 0.0
H560 H 0.31177 0.9017 0.2602 0.0
H561 H 0.25557 0.78069 0.87623 0.0
H562 H 0.19934 0.70262 0.08799 0.0
H563 H 0.20991 0.70887 0.22879 0.0
H564 H 0.29478 0.80665 0.42575 0.0
H565 H 0.35985 0.88114 0.2127 0.0
H566 H 0.34972 0.87404 0.06875 0.0
H567 H 0.10968 0.57591 0.29468 0.0
H568 H 0.13067 0.55338 0.34864 0.0
H569 H 0.15921 0.59569 0.30252 0.0
C570 C 0.4045 0.41593 0.42948 0.0
C571 C 0.42021 0.39719 0.48193 0.0
C572 C 0.45825 0.36885 0.45103 0.0
C573 C 0.49576 0.38015 0.46297 0.0
C574 C 0.50805 0.35408 0.4578 0.0
C575 C 0.48207 0.3157 0.43857 0.0
C576 C 0.44378 0.30381 0.43193 0.0
C577 C 0.43225 0.33057 0.43776 0.0
C578 C 0.549 0.36797 0.46723 0.0
C579 C 0.41521 0.26309 0.4124 0.0
C580 C 0.58286 0.12743 0.51551 0.0
C581 C 0.56424 0.13113 0.58955 0.0
C582 C 0.52894 0.16207 0.54863 0.0
C583 C 0.49322 0.15548 0.52938 0.0
C584 C 0.48718 0.18348 0.50094 0.0
C585 C 0.51781 0.21907 0.4914 0.0
C586 C 0.55384 0.22704 0.51796 0.0
C587 C 0.55916 0.19834 0.54565 0.0
C588 C 0.4483 0.174 0.47457 0.0
C589 C 0.58706 0.26488 0.51008 0.0
C590 C 0.54712 0.13242 0.05097 0.0
C591 C 0.51038 0.12499 0.0436 0.0
C592 C 0.50235 0.15408 0.05459 0.0
C593 C 0.53164 0.19136 0.07179 0.0
C594 C 0.56869 0.1992 0.07256 0.0
C595 C 0.57591 0.16953 0.06255 0.0
C596 C 0.46251 0.1448 0.05142 0.0
C597 C 0.60062 0.23868 0.08894 0.0
C598 C 0.41004 0.36201 -0.00029 0.0
C599 C 0.44549 0.37117 0.95986 0.0
C600 C 0.45842 0.32034 0.94368 0.0
C601 C 0.43699 0.28219 0.95224 0.0
C602 C 0.45242 0.26302 0.98967 0.0
C603 C 0.49041 0.28256 0.01696 0.0
C604 C 0.51306 0.32016 -0.00019 0.0
C605 C 0.49668 0.33885 0.96374 0.0
C606 C 0.42761 0.2226 0.00468 0.0
C607 C 0.55393 0.34129 0.02492 0.0
C608 C 0.49493 0.28974 0.40872 0.0
C609 C 0.50223 0.26885 0.46243 0.0
C610 C 0.51312 0.24329 0.43503 0.0
C611 C 0.51698 0.23852 0.35238 0.0
C612 C 0.52719 0.21261 0.32276 0.0
C613 C 0.52984 0.20715 0.24157 0.0
C614 C 0.52223 0.2272 0.18605 0.0
C615 C 0.52351 0.22068 0.10281 0.0
C616 C 0.5146 0.24016 0.04874 0.0
C617 C 0.50426 0.26605 0.07602 0.0
C618 C 0.50342 0.27331 0.15925 0.0
C619 C 0.49302 0.29908 0.18865 0.0
C620 C 0.49103 0.30509 0.27013 0.0
C621 C 0.49868 0.28509 0.32589 0.0
C622 C 0.50962 0.25935 0.29773 0.0
C623 C 0.51219 0.25362 0.21436 0.0
C624 C 0.55273 0.0499 0.09108 0.0
C625 C 0.53255 0.0666 0.04623 0.0
O626 O 0.4485 0.39557 0.44486 0.0
O627 O 0.44129 0.339 0.9192 0.0
O628 O 0.55615 0.10496 0.04816 0.0
O629 O 0.53256 0.1322 0.56617 0.0
H630 H 0.3973 0.36867 0.49067 0.0
H631 H 0.39265 0.39899 0.37109 0.0
H632 H 0.4265 0.44446 0.41805 0.0
H633 H 0.38218 0.41803 0.45899 0.0
H634 H 0.51556 0.40971 0.47506 0.0
H635 H 0.40319 0.32165 0.42709 0.0
H636 H 0.5547 0.34842 0.49964 0.0
H637 H 0.56445 0.39617 0.50031 0.0
H638 H 0.55952 0.36968 0.40699 0.0
H639 H 0.38679 0.25757 0.42157 0.0
H640 H 0.42141 0.24529 0.45007 0.0
H641 H 0.41608 0.25476 0.34881 0.0
H642 H 0.58404 0.15697 0.62762 0.0
H643 H 0.60719 0.12452 0.53325 0.0
H644 H 0.59268 0.15285 0.48255 0.0
H645 H 0.56295 0.10289 0.47441 0.0
H646 H 0.47002 0.1276 0.5331 0.0
H647 H 0.58701 0.20416 0.56113 0.0
H648 H 0.44288 0.1962 0.49912 0.0
H649 H 0.42724 0.14668 0.49411 0.0
H650 H 0.4451 0.17267 0.40822 0.0
H651 H 0.61158 0.2694 0.54818 0.0
H652 H 0.58088 0.28752 0.52665 0.0
H653 H 0.59406 0.26692 0.44674 0.0
H654 H 0.50755 0.06 0.07831 0.0
H655 H 0.48776 0.0966 0.031 0.0
H656 H 0.6042 0.17511 0.06651 0.0
H657 H 0.45653 0.15393 0.1097 0.0
H658 H 0.44288 0.11438 0.03754 0.0
H659 H 0.4576 0.16023 0.00485 0.0
H660 H 0.62733 0.24083 0.07482 0.0
H661 H 0.60271 0.24804 0.15324 0.0
H662 H 0.59585 0.25799 0.05327 0.0
H663 H 0.46846 0.38262 0.00818 0.0
H664 H 0.41276 0.38766 0.03175 0.0
H665 H 0.40485 0.34123 0.04398 0.0
H666 H 0.3859 0.34999 0.95452 0.0
H667 H 0.40762 0.26811 0.93442 0.0
H668 H 0.5134 0.36815 0.95367 0.0
H669 H 0.42776 0.21949 0.07001 0.0
H670 H 0.43828 0.20528 0.97644 0.0
H671 H 0.39861 0.21158 0.98017 0.0
H672 H 0.56852 0.3682 0.99705 0.0
H673 H 0.56657 0.32394 0.00847 0.0
H674 H 0.55813 0.34746 0.091 0.0
H675 H 0.49875 0.27199 0.52556 0.0
H676 H 0.533 0.1958 0.36163 0.0
H677 H 0.53753 0.18658 0.2231 0.0
H678 H 0.51455 0.23423 0.98491 0.0
H679 H 0.48605 0.3149 0.14914 0.0
H680 H 0.48288 0.32532 0.28844 0.0
H681 H 0.57727 0.05384 0.06 0.0
H682 H 0.53388 0.01955 0.09589 0.0
H683 H 0.56233 0.06425 0.15243 0.0
C684 C 0.91094 0.44138 0.87877 0.0
C685 C 0.02504 0.46512 0.89196 0.0
C686 C 0.05598 0.59422 0.77506 0.0
Mg687 Mg 0.96155 0.43308 0.75778 0.0
O688 O 0.97077 0.48211 0.74468 0.0
Mg689 Mg 0.98908 0.51927 0.84135 0.0
Mg690 Mg 0.00624 0.51337 0.66663 0.0
O691 O 0.0427 0.5441 0.59282 0.0
Mg692 Mg 0.05553 0.59401 0.58536 0.0
Mg693 Mg 0.02384 0.50837 0.49467 0.0
C694 C 0.9536 0.43465 0.57564 0.0
C695 C 0.05787 0.47611 0.62387 0.0
O696 O 0.93617 0.4758 0.89575 0.0
O697 O 0.91394 0.41956 0.82559 0.0
O698 O 0.022 0.4944 0.8998 0.0
O699 O 0.00517 0.43806 0.83935 0.0
O700 O 0.96688 0.42301 0.62995 0.0
O701 O 0.97123 0.46938 0.56188 0.0
C702 C 0.95295 0.54817 0.70721 0.0
O703 O 0.96938 0.54013 0.65313 0.0
O704 O 0.95636 0.54278 0.78061 0.0
O705 O 0.07849 0.55141 0.44108 0.0
O706 O 0.10045 0.60709 0.51309 0.0
O707 O 0.99341 0.53752 0.44285 0.0
C708 C 0.10326 0.58608 0.45803 0.0
O709 O 0.01089 0.59217 0.51334 0.0
O710 O 0.06527 0.61273 0.71289 0.0
C711 C 0.99075 0.56683 0.45761 0.0
O712 O 0.03848 0.55823 0.76993 0.0
O713 O 0.043 0.4859 0.67886 0.0
O714 O 0.05382 0.48104 0.55048 0.0
C715 C 0.52108 0.05007 0.96052 0.0
C716 C 0.43149 0.98176 0.77265 0.0
C717 C 0.51943 0.92717 0.68394 0.0
Mg718 Mg 0.5047 0.05651 0.78319 0.0
O719 O 0.53009 0.02992 0.77074 0.0
Mg720 Mg 0.51115 0.98177 0.82244 0.0
Mg721 Mg 0.53765 0.01362 0.66303 0.0
O722 O 0.5453 0.99709 0.55539 0.0
Mg723 Mg 0.57152 0.97112 0.54685 0.0
Mg724 Mg 0.56508 0.04608 0.50655 0.0
C725 C 0.55292 0.0991 0.64153 0.0
C726 C 0.47757 0.01125 0.52937 0.0
O727 O 0.51662 0.01737 0.94098 0.0
O728 O 0.51833 0.07049 0.90901 0.0
O729 O 0.45039 0.96692 0.79649 0.0
O730 O 0.4467 0.01638 0.76083 0.0
O731 O 0.53238 0.09766 0.69772 0.0
O732 O 0.56188 0.07365 0.62771 0.0
C733 C 0.5971 0.0129 0.79438 0.0
O734 O 0.59203 0.02194 0.72474 0.0
O735 O 0.57105 0.99753 0.84081 0.0
O736 O 0.56536 0.01368 0.38972 0.0
O737 O 0.56461 0.96064 0.41838 0.0
O738 O 0.62604 0.06226 0.5399 0.0
C739 C 0.56479 0.98302 0.3681 0.0
O740 O 0.62885 0.01241 0.57671 0.0
O741 O 0.54128 0.92863 0.63046 0.0
C742 C 0.64449 0.04715 0.56521 0.0
O743 O 0.51242 0.95389 0.69872 0.0
O744 O 0.48346 0.00421 0.60052 0.0
O745 O 0.50354 0.02688 0.48243 0.0
C746 C 0.54774 0.58605 0.43504 0.0
C747 C 0.56932 0.49642 0.46687 0.0
C748 C 0.43566 0.41931 0.56166 0.0
Mg749 Mg 0.57321 0.55943 0.58116 0.0
O750 O 0.52167 0.53234 0.58988 0.0
Mg751 Mg 0.49066 0.4996 0.49159 0.0
Mg752 Mg 0.50657 0.49136 0.66293 0.0
O753 O 0.48417 0.45381 0.74522 0.0
Mg754 Mg 0.43239 0.4279 0.75164 0.0
Mg755 Mg 0.51528 0.48538 0.84924 0.0
C756 C 0.57419 0.56489 0.77047 0.0
C757 C 0.53493 0.44088 0.75594 0.0
O758 O 0.51733 0.55442 0.4263 0.0
O759 O 0.5727 0.59457 0.4921 0.0
O760 O 0.53565 0.48703 0.44734 0.0
O761 O 0.58853 0.52158 0.5237 0.0
O762 O 0.59066 0.57965 0.70807 0.0
O763 O 0.54372 0.53359 0.76527 0.0
C764 C 0.44149 0.51144 0.62171 0.0
O765 O 0.45803 0.50275 0.67604 0.0
O766 O 0.44863 0.51195 0.5478 0.0
O767 O 0.48329 0.43208 0.91628 0.0
O768 O 0.43114 0.39154 0.83993 0.0
O769 O 0.47223 0.50221 0.88404 0.0
C770 C 0.45374 0.40006 0.90195 0.0
O771 O 0.41765 0.46577 0.81428 0.0
O772 O 0.41722 0.40717 0.62347 0.0
C773 C 0.43827 0.49249 0.86749 0.0
O774 O 0.46782 0.44873 0.56631 0.0
O775 O 0.50475 0.44024 0.73006 0.0
O776 O 0.55466 0.46505 0.8133 0.0
loop_
_geom_bond_atom_site_label_1
_geom_bond_atom_site_label_2
_geom_bond_distance
_geom_bond_site_symmetry_2
_ccdc_geom_bond_type
C0 C1 1.560 . S
C0 H61 0.959 . S
C0 H62 0.959 . S
C0 H63 0.960 . S
C1 C0 1.560 . S
C1 O56 1.426 . S
C1 H60 0.980 . S
C2 C3 1.407 . S
C2 C7 1.418 . S
C2 O56 1.334 . S
C3 C2 1.407 . S
C3 C4 1.360 . S
C3 H64 0.929 . S
C4 C3 1.360 . S
C4 C5 1.401 . S
C4 C8 1.527 . S
C5 C4 1.401 . S
C5 C6 1.405 . S
C5 C38 1.587 . S
C6 C5 1.405 . S
C6 C7 1.332 . S
C6 C9 1.496 . S
C7 C2 1.418 . S
C7 C6 1.332 . S
C7 H65 0.929 . S
C8 C4 1.527 . S
C8 H66 0.959 . S
C8 H67 0.961 . S
C8 H68 0.961 . S
C9 C6 1.496 . S
C9 H69 0.960 . S
C9 H70 0.960 . S
C9 H71 0.961 . S
C10 C11 1.517 . S
C10 H73 0.961 . S
C10 H74 0.960 . S
C10 H75 0.959 . S
C11 C10 1.517 . S
C11 O59 1.468 . S
C11 H72 0.980 . S
C12 C13 1.349 . S
C12 C17 1.367 . S
C12 O59 1.408 . S
C13 C12 1.349 . S
C13 C14 1.407 . S
C13 H76 0.930 . S
C14 C13 1.407 . S
C14 C15 1.449 . S
C14 C18 1.535 . S
C15 C14 1.449 . S
C15 C16 1.384 . S
C15 C40 1.553 . S
C16 C15 1.384 . S
C16 C17 1.364 . S
C16 C19 1.450 . S
C17 C12 1.367 . S
C17 C16 1.364 . S
C17 H77 0.931 . S
C18 C14 1.535 . S
C18 H78 0.959 . S
C18 H79 0.961 . S
C18 H80 0.959 . S
C19 C16 1.450 . S
C19 H81 0.960 . S
C19 H82 0.960 . S
C19 H83 0.960 . S
C20 C21 1.309 . S
C20 C25 1.304 . S
C20 O58 1.435 . S
C21 C20 1.309 . S
C21 C22 1.482 . S
C21 H85 0.930 . S
C22 C21 1.482 . S
C22 C23 1.399 1_556 S
C22 C26 1.562 1_556 S
C23 C22 1.399 1_554 S
C23 C24 1.373 1_554 S
C23 C45 1.432 . S
C24 C23 1.373 1_556 S
C24 C25 1.339 . S
C24 C27 1.530 . S
C25 C20 1.304 . S
C25 C24 1.339 . S
C25 H86 0.930 . S
C26 C22 1.562 1_554 S
C26 H87 0.961 . S
C26 H88 0.960 . S
C26 H89 0.958 . S
C27 C24 1.530 . S
C27 H90 0.961 . S
C27 H91 0.960 1_556 S
C27 H92 0.960 . S
C28 C29 1.530 . S
C28 H94 0.961 . S
C28 H95 0.961 . S
C28 H96 0.959 . S
C29 C28 1.530 . S
C29 O57 1.412 . S
C29 H93 0.980 . S
C30 C31 1.288 . S
C30 C35 1.377 . S
C30 O57 1.393 . S
C31 C30 1.288 . S
C31 C32 1.369 . S
C31 H97 0.932 . S
C32 C31 1.369 . S
C32 C33 1.398 1_556 S
C32 C36 1.527 1_556 S
C33 C32 1.398 1_554 S
C33 C34 1.380 1_554 S
C33 C47 1.497 . S
C34 C33 1.380 1_556 S
C34 C35 1.383 . S
C34 C37 1.603 . S
C35 C30 1.377 . S
C35 C34 1.383 . S
C35 H98 0.929 . S
C36 C32 1.527 1_554 S
C36 H99 0.961 . S
C36 H100 0.959 1_554 S
C36 H101 0.959 . S
C37 C34 1.603 . S
C37 H102 0.960 . S
C37 H103 0.962 1_556 S
C37 H104 0.961 1_556 S
C38 C5 1.587 . S
C38 C39 1.360 . S
C38 C51 1.412 . S
C39 C38 1.360 . S
C39 C40 1.365 . S
C39 H105 0.929 . S
C40 C15 1.553 . S
C40 C39 1.365 . S
C40 C41 1.404 . S
C41 C40 1.404 . S
C41 C42 1.395 . S
C41 C52 1.451 . S
C42 C41 1.395 . S
C42 C43 1.322 . S
C42 H106 0.930 . S
C43 C42 1.322 . S
C43 C44 1.459 . S
C43 H107 0.929 . S
C44 C43 1.459 . S
C44 C45 1.445 . S
C44 C53 1.395 . S
C45 C23 1.432 . S
C45 C44 1.445 . S
C45 C46 1.370 . S
C46 C45 1.370 . S
C46 C47 1.438 . S
C46 H108 0.930 1_554 S
C47 C33 1.497 . S
C47 C46 1.438 . S
C47 C48 1.360 . S
C48 C47 1.360 . S
C48 C49 1.401 . S
C48 C53 1.446 . S
C49 C48 1.401 . S
C49 C50 1.347 . S
C49 H109 0.929 . S
C50 C49 1.347 . S
C50 C51 1.455 . S
C50 H110 0.930 . S
C51 C38 1.412 . S
C51 C50 1.455 . S
C51 C52 1.331 . S
C52 C41 1.451 . S
C52 C51 1.331 . S
C52 C53 1.497 . S
C53 C44 1.395 . S
C53 C48 1.446 . S
C53 C52 1.497 . S
C54 C55 1.582 . S
C54 H111 0.962 . S
C54 H112 0.959 1_455 S
C54 H113 0.958 . S
C55 C54 1.582 . S
C55 O58 1.458 . S
C55 H84 0.980 . S
O56 C1 1.426 . S
O56 C2 1.334 . S
O57 C29 1.412 . S
O57 C30 1.393 . S
O58 C20 1.435 . S
O58 C55 1.458 . S
O59 C11 1.468 . S
O59 C12 1.408 . S
H60 C1 0.980 . S
H61 C0 0.959 . S
H62 C0 0.959 . S
H63 C0 0.960 . S
H64 C3 0.929 . S
H65 C7 0.929 . S
H66 C8 0.959 . S
H67 C8 0.961 . S
H68 C8 0.961 . S
H69 C9 0.960 . S
H70 C9 0.960 . S
H71 C9 0.961 . S
H72 C11 0.980 . S
H73 C10 0.961 . S
H74 C10 0.960 . S
H75 C10 0.959 . S
H76 C13 0.930 . S
H77 C17 0.931 . S
H78 C18 0.959 . S
H79 C18 0.961 . S
H80 C18 0.959 . S
H81 C19 0.960 . S
H82 C19 0.960 . S
H83 C19 0.960 . S
H84 C55 0.980 . S
H85 C21 0.930 . S
H86 C25 0.930 . S
H87 C26 0.961 . S
H88 C26 0.960 . S
H89 C26 0.958 . S
H90 C27 0.961 . S
H91 C27 0.960 1_554 S
H92 C27 0.960 . S
H93 C29 0.980 . S
H94 C28 0.961 . S
H95 C28 0.961 . S
H96 C28 0.959 . S
H97 C31 0.932 . S
H98 C35 0.929 . S
H99 C36 0.961 . S
H100 C36 0.959 1_556 S
H101 C36 0.959 . S
H102 C37 0.960 . S
H103 C37 0.962 1_554 S
H104 C37 0.961 1_554 S
H105 C39 0.929 . S
H106 C42 0.930 . S
H107 C43 0.929 . S
H108 C46 0.930 1_556 S
H109 C49 0.929 . S
H110 C50 0.930 . S
H111 C54 0.962 . S
H112 C54 0.959 1_655 S
H113 C54 0.958 . S
C114 C115 1.560 . S
C114 H175 0.959 . S
C114 H176 0.959 . S
C114 H177 0.960 . S
C115 C114 1.560 . S
C115 O170 1.426 . S
C115 H174 0.980 . S
C116 C117 1.407 . S
C116 C121 1.418 . S
C116 O170 1.334 . S
C117 C116 1.407 . S
C117 C118 1.360 . S
C117 H178 0.929 . S
C118 C117 1.360 . S
C118 C119 1.401 . S
C118 C122 1.527 . S
C119 C118 1.401 . S
C119 C120 1.405 . S
C119 C152 1.587 . S
C120 C119 1.405 . S
C120 C121 1.332 . S
C120 C123 1.496 . S
C121 C116 1.418 . S
C121 C120 1.332 . S
C121 H179 0.929 . S
C122 C118 1.527 . S
C122 H180 0.959 . S
C122 H181 0.961 . S
C122 H182 0.961 . S
C123 C120 1.496 . S
C123 H183 0.960 . S
C123 H184 0.960 . S
C123 H185 0.961 . S
C124 C125 1.517 . S
C124 H187 0.961 . S
C124 H188 0.960 . S
C124 H189 0.959 . S
C125 C124 1.517 . S
C125 O173 1.468 . S
C125 H186 0.980 . S
C126 C127 1.349 . S
C126 C131 1.367 . S
C126 O173 1.408 . S
C127 C126 1.349 . S
C127 C128 1.407 . S
C127 H190 0.930 . S
C128 C127 1.407 . S
C128 C129 1.449 . S
C128 C132 1.535 . S
C129 C128 1.449 . S
C129 C130 1.384 . S
C129 C154 1.553 . S
C130 C129 1.384 . S
C130 C131 1.364 . S
C130 C133 1.450 . S
C131 C126 1.367 . S
C131 C130 1.364 . S
C131 H191 0.931 . S
C132 C128 1.535 . S
C132 H192 0.959 . S
C132 H193 0.961 . S
C132 H194 0.959 . S
C133 C130 1.450 . S
C133 H195 0.960 . S
C133 H196 0.960 . S
C133 H197 0.960 . S
C134 C135 1.309 . S
C134 C139 1.304 . S
C134 O172 1.435 . S
C135 C134 1.309 . S
C135 C136 1.476 . S
C135 H199 0.930 . S
C136 C135 1.476 . S
C136 C137 1.400 . S
C136 C140 1.567 . S
C137 C136 1.400 . S
C137 C138 1.373 . S
C137 C159 1.432 1_556 S
C138 C137 1.373 . S
C138 C139 1.339 . S
C138 C141 1.530 . S
C139 C134 1.304 . S
C139 C138 1.339 . S
C139 H200 0.930 . S
C140 C136 1.567 . S
C140 H201 0.961 1_556 S
C140 H202 0.957 1_556 S
C140 H203 0.958 . S
C141 C138 1.530 . S
C141 H204 0.961 . S
C141 H205 0.960 1_556 S
C141 H206 0.960 . S
C142 C143 1.530 . S
C142 H208 0.961 . S
C142 H209 0.961 . S
C142 H210 0.959 . S
C143 C142 1.530 . S
C143 O171 1.412 . S
C143 H207 0.980 . S
C144 C145 1.288 . S
C144 C149 1.377 . S
C144 O171 1.393 . S
C145 C144 1.288 . S
C145 C146 1.369 . S
C145 H211 0.932 . S
C146 C145 1.369 . S
C146 C147 1.398 . S
C146 C150 1.527 . S
C147 C146 1.398 . S
C147 C148 1.380 . S
C147 C161 1.497 1_556 S
C148 C147 1.380 . S
C148 C149 1.383 . S
C148 C151 1.603 . S
C149 C144 1.377 . S
C149 C148 1.383 . S
C149 H212 0.929 . S
C150 C146 1.527 . S
C150 H213 0.961 1_556 S
C150 H214 0.959 . S
C150 H215 0.959 . S
C151 C148 1.603 . S
C151 H216 0.960 . S
C151 H217 0.962 . S
C151 H218 0.961 1_556 S
C152 C119 1.587 . S
C152 C153 1.360 . S
C152 C165 1.412 . S
C153 C152 1.360 . S
C153 C154 1.365 . S
C153 H219 0.929 . S
C154 C129 1.553 . S
C154 C153 1.365 . S
C154 C155 1.404 . S
C155 C154 1.404 . S
C155 C156 1.395 . S
C155 C166 1.451 . S
C156 C155 1.395 . S
C156 C157 1.322 . S
C156 H220 0.930 . S
C157 C156 1.322 . S
C157 C158 1.459 . S
C157 H221 0.929 . S
C158 C157 1.459 . S
C158 C159 1.445 . S
C158 C167 1.395 . S
C159 C137 1.432 1_554 S
C159 C158 1.445 . S
C159 C160 1.370 1_554 S
C160 C159 1.370 1_556 S
C160 C161 1.438 1_556 S
C160 H222 0.930 . S
C161 C147 1.497 1_554 S
C161 C160 1.438 1_554 S
C161 C162 1.360 . S
C162 C161 1.360 . S
C162 C163 1.401 . S
C162 C167 1.446 . S
C163 C162 1.401 . S
C163 C164 1.347 . S
C163 H223 0.929 . S
C164 C163 1.347 . S
C164 C165 1.455 . S
C164 H224 0.930 . S
C165 C152 1.412 . S
C165 C164 1.455 . S
C165 C166 1.331 . S
C166 C155 1.451 . S
C166 C165 1.331 . S
C166 C167 1.497 . S
C167 C158 1.395 . S
C167 C162 1.446 . S
C167 C166 1.497 . S
C168 C169 1.582 . S
C168 H225 0.962 . S
C168 H226 0.959 1_545 S
C168 H227 0.956 . S
C169 C168 1.582 . S
C169 O172 1.458 . S
C169 H198 0.980 . S
O170 C115 1.426 . S
O170 C116 1.334 . S
O171 C143 1.412 . S
O171 C144 1.393 . S
O172 C134 1.435 . S
O172 C169 1.458 . S
O173 C125 1.468 . S
O173 C126 1.408 . S
H174 C115 0.980 . S
H175 C114 0.959 . S
H176 C114 0.959 . S
H177 C114 0.960 . S
H178 C117 0.929 . S
H179 C121 0.929 . S
H180 C122 0.959 . S
H181 C122 0.961 . S
H182 C122 0.961 . S
H183 C123 0.960 . S
H184 C123 0.960 . S
H185 C123 0.961 . S
H186 C125 0.980 . S
H187 C124 0.961 . S
H188 C124 0.960 . S
H189 C124 0.959 . S
H190 C127 0.930 . S
H191 C131 0.931 . S
H192 C132 0.959 . S
H193 C132 0.961 . S
H194 C132 0.959 . S
H195 C133 0.960 . S
H196 C133 0.960 . S
H197 C133 0.960 . S
H198 C169 0.980 . S
H199 C135 0.930 . S
H200 C139 0.930 . S
H201 C140 0.961 1_554 S
H202 C140 0.957 1_554 S
H203 C140 0.958 . S
H204 C141 0.961 . S
H205 C141 0.960 1_554 S
H206 C141 0.960 . S
H207 C143 0.980 . S
H208 C142 0.961 . S
H209 C142 0.961 . S
H210 C142 0.959 . S
H211 C145 0.932 . S
H212 C149 0.929 . S
H213 C150 0.961 1_554 S
H214 C150 0.959 . S
H215 C150 0.959 . S
H216 C151 0.960 . S
H217 C151 0.962 . S
H218 C151 0.961 1_554 S
H219 C153 0.929 . S
H220 C156 0.930 . S
H221 C157 0.929 . S
H222 C160 0.930 . S
H223 C163 0.929 . S
H224 C164 0.930 . S
H225 C168 0.962 . S
H226 C168 0.959 1_565 S
H227 C168 0.956 . S
C228 C229 1.560 . S
C228 H289 0.959 . S
C228 H290 0.959 . S
C228 H291 0.960 . S
C229 C228 1.560 . S
C229 O284 1.426 . S
C229 H288 0.980 . S
C230 C231 1.407 . S
C230 C235 1.418 . S
C230 O284 1.334 . S
C231 C230 1.407 . S
C231 C232 1.360 . S
C231 H292 0.929 . S
C232 C231 1.360 . S
C232 C233 1.401 . S
C232 C236 1.527 . S
C233 C232 1.401 . S
C233 C234 1.405 . S
C233 C266 1.587 . S
C234 C233 1.405 . S
C234 C235 1.332 . S
C234 C237 1.496 . S
C235 C230 1.418 . S
C235 C234 1.332 . S
C235 H293 0.929 . S
C236 C232 1.527 . S
C236 H294 0.959 . S
C236 H295 0.961 . S
C236 H296 0.961 . S
C237 C234 1.496 . S
C237 H297 0.960 . S
C237 H298 0.960 . S
C237 H299 0.961 . S
C238 C239 1.517 . S
C238 H301 0.961 . S
C238 H302 0.960 . S
C238 H303 0.959 . S
C239 C238 1.517 . S
C239 O287 1.468 . S
C239 H300 0.980 . S
C240 C241 1.349 . S
C240 C245 1.367 . S
C240 O287 1.408 . S
C241 C240 1.349 . S
C241 C242 1.407 . S
C241 H304 0.930 . S
C242 C241 1.407 . S
C242 C243 1.449 . S
C242 C246 1.535 . S
C243 C242 1.449 . S
C243 C244 1.384 . S
C243 C268 1.553 . S
C244 C243 1.384 . S
C244 C245 1.364 . S
C244 C247 1.450 . S
C245 C240 1.367 . S
C245 C244 1.364 . S
C245 H305 0.931 . S
C246 C242 1.535 . S
C246 H306 0.959 . S
C246 H307 0.961 . S
C246 H308 0.959 . S
C247 C244 1.450 . S
C247 H309 0.960 . S
C247 H310 0.960 . S
C247 H311 0.960 . S
C248 C249 1.309 . S
C248 C253 1.304 . S
C248 O286 1.435 . S
C249 C248 1.309 . S
C249 C250 1.476 . S
C249 H313 0.930 . S
C250 C249 1.476 . S
C250 C251 1.400 . S
C250 C254 1.567 . S
C251 C250 1.400 . S
C251 C252 1.373 . S
C251 C273 1.432 . S
C252 C251 1.373 . S
C252 C253 1.339 . S
C252 C255 1.530 . S
C253 C248 1.304 . S
C253 C252 1.339 . S
C253 H314 0.930 . S
C254 C250 1.567 . S
C254 H315 0.961 . S
C254 H316 0.960 . S
C254 H317 0.958 . S
C255 C252 1.530 . S
C255 H318 0.961 . S
C255 H319 0.960 . S
C255 H320 0.960 . S
C256 C257 1.530 . S
C256 H322 0.961 . S
C256 H323 0.961 . S
C256 H324 0.959 . S
C257 C256 1.530 . S
C257 O285 1.412 . S
C257 H321 0.980 . S
C258 C259 1.288 . S
C258 C263 1.377 . S
C258 O285 1.393 . S
C259 C258 1.288 . S
C259 C260 1.369 . S
C259 H325 0.932 . S
C260 C259 1.369 . S
C260 C261 1.398 . S
C260 C264 1.527 . S
C261 C260 1.398 . S
C261 C262 1.380 . S
C261 C275 1.497 . S
C262 C261 1.380 . S
C262 C263 1.383 . S
C262 C265 1.603 . S
C263 C258 1.377 . S
C263 C262 1.383 . S
C263 H326 0.929 . S
C264 C260 1.527 . S
C264 H327 0.961 . S
C264 H328 0.959 . S
C264 H329 0.959 . S
C265 C262 1.603 . S
C265 H330 0.960 . S
C265 H331 0.962 . S
C265 H332 0.961 . S
C266 C233 1.587 . S
C266 C267 1.360 . S
C266 C279 1.412 . S
C267 C266 1.360 . S
C267 C268 1.365 . S
C267 H333 0.929 . S
C268 C243 1.553 . S
C268 C267 1.365 . S
C268 C269 1.404 . S
C269 C268 1.404 . S
C269 C270 1.395 . S
C269 C280 1.451 . S
C270 C269 1.395 . S
C270 C271 1.322 . S
C270 H334 0.930 . S
C271 C270 1.322 . S
C271 C272 1.459 1_554 S
C271 H335 0.929 1_554 S
C272 C271 1.459 1_556 S
C272 C273 1.445 . S
C272 C281 1.395 1_556 S
C273 C251 1.432 . S
C273 C272 1.445 . S
C273 C274 1.370 . S
C274 C273 1.370 . S
C274 C275 1.438 . S
C274 H336 0.930 . S
C275 C261 1.497 . S
C275 C274 1.438 . S
C275 C276 1.360 . S
C276 C275 1.360 . S
C276 C277 1.401 1_556 S
C276 C281 1.446 1_556 S
C277 C276 1.401 1_554 S
C277 C278 1.347 . S
C277 H337 0.929 1_554 S
C278 C277 1.347 . S
C278 C279 1.455 . S
C278 H338 0.930 . S
C279 C266 1.412 . S
C279 C278 1.455 . S
C279 C280 1.331 . S
C280 C269 1.451 . S
C280 C279 1.331 . S
C280 C281 1.497 . S
C281 C272 1.395 1_554 S
C281 C276 1.446 1_554 S
C281 C280 1.497 . S
C282 C283 1.582 . S
C282 H339 0.962 . S
C282 H340 0.959 . S
C282 H341 0.958 . S
C283 C282 1.582 . S
C283 O286 1.458 . S
C283 H312 0.980 . S
O284 C229 1.426 . S
O284 C230 1.334 . S
O285 C257 1.412 . S
O285 C258 1.393 . S
O286 C248 1.435 . S
O286 C283 1.458 . S
O287 C239 1.468 . S
O287 C240 1.408 . S
H288 C229 0.980 . S
H289 C228 0.959 . S
H290 C228 0.959 . S
H291 C228 0.960 . S
H292 C231 0.929 . S
H293 C235 0.929 . S
H294 C236 0.959 . S
H295 C236 0.961 . S
H296 C236 0.961 . S
H297 C237 0.960 . S
H298 C237 0.960 . S
H299 C237 0.961 . S
H300 C239 0.980 . S
H301 C238 0.961 . S
H302 C238 0.960 . S
H303 C238 0.959 . S
H304 C241 0.930 . S
H305 C245 0.931 . S
H306 C246 0.959 . S
H307 C246 0.961 . S
H308 C246 0.959 . S
H309 C247 0.960 . S
H310 C247 0.960 . S
H311 C247 0.960 . S
H312 C283 0.980 . S
H313 C249 0.930 . S
H314 C253 0.930 . S
H315 C254 0.961 . S
H316 C254 0.960 . S
H317 C254 0.958 . S
H318 C255 0.961 . S
H319 C255 0.960 . S
H320 C255 0.960 . S
H321 C257 0.980 . S
H322 C256 0.961 . S
H323 C256 0.961 . S
H324 C256 0.959 . S
H325 C259 0.932 . S
H326 C263 0.929 . S
H327 C264 0.961 . S
H328 C264 0.959 . S
H329 C264 0.959 . S
H330 C265 0.960 . S
H331 C265 0.962 . S
H332 C265 0.961 . S
H333 C267 0.929 . S
H334 C270 0.930 . S
H335 C271 0.929 1_556 S
H336 C274 0.930 . S
H337 C277 0.929 1_556 S
H338 C278 0.930 . S
H339 C282 0.962 . S
H340 C282 0.959 . S
H341 C282 0.958 . S
C342 C343 1.560 . S
C342 H403 0.959 . S
C342 H404 0.959 1_655 S
C342 H405 0.960 . S
C343 C342 1.560 . S
C343 O398 1.426 . S
C343 H402 0.980 . S
C344 C345 1.407 . S
C344 C349 1.418 . S
C344 O398 1.334 . S
C345 C344 1.407 . S
C345 C346 1.360 . S
C345 H406 0.929 . S
C346 C345 1.360 . S
C346 C347 1.401 . S
C346 C350 1.527 . S
C347 C346 1.401 . S
C347 C348 1.405 . S
C347 C380 1.587 . S
C348 C347 1.405 . S
C348 C349 1.332 . S
C348 C351 1.496 . S
C349 C344 1.418 . S
C349 C348 1.332 . S
C349 H407 0.929 . S
C350 C346 1.527 . S
C350 H408 0.959 . S
C350 H409 0.961 . S
C350 H410 0.961 . S
C351 C348 1.496 . S
C351 H411 0.960 . S
C351 H412 0.960 . S
C351 H413 0.961 . S
C352 C353 1.517 . S
C352 H415 0.961 . S
C352 H416 0.960 . S
C352 H417 0.959 . S
C353 C352 1.517 . S
C353 O401 1.468 . S
C353 H414 0.980 . S
C354 C355 1.349 . S
C354 C359 1.367 . S
C354 O401 1.408 . S
C355 C354 1.349 . S
C355 C356 1.407 . S
C355 H418 0.930 . S
C356 C355 1.407 . S
C356 C357 1.449 . S
C356 C360 1.535 . S
C357 C356 1.449 . S
C357 C358 1.384 . S
C357 C382 1.553 . S
C358 C357 1.384 . S
C358 C359 1.364 . S
C358 C361 1.450 . S
C359 C354 1.367 . S
C359 C358 1.364 . S
C359 H419 0.931 . S
C360 C356 1.535 . S
C360 H420 0.959 . S
C360 H421 0.961 . S
C360 H422 0.959 . S
C361 C358 1.450 . S
C361 H423 0.960 . S
C361 H424 0.960 . S
C361 H425 0.960 . S
C362 C363 1.309 . S
C362 C367 1.304 . S
C362 O400 1.435 . S
C363 C362 1.309 . S
C363 C364 1.476 . S
C363 H427 0.930 . S
C364 C363 1.476 . S
C364 C365 1.400 . S
C364 C368 1.567 . S
C365 C364 1.400 . S
C365 C366 1.373 . S
C365 C387 1.432 . S
C366 C365 1.373 . S
C366 C367 1.339 . S
C366 C369 1.530 . S
C367 C362 1.304 . S
C367 C366 1.339 . S
C367 H428 0.930 . S
C368 C364 1.567 . S
C368 H429 0.961 . S
C368 H430 0.960 . S
C368 H431 0.958 . S
C369 C366 1.530 . S
C369 H432 0.961 . S
C369 H433 0.960 . S
C369 H434 0.960 . S
C370 C371 1.530 . S
C370 H436 0.961 . S
C370 H437 0.956 1_655 S
C370 H438 0.959 . S
C371 C370 1.530 . S
C371 O399 1.412 . S
C371 H435 0.980 . S
C372 C373 1.288 . S
C372 C377 1.377 . S
C372 O399 1.393 . S
C373 C372 1.288 . S
C373 C374 1.369 . S
C373 H439 0.932 . S
C374 C373 1.369 . S
C374 C375 1.398 . S
C374 C378 1.527 . S
C375 C374 1.398 . S
C375 C376 1.380 . S
C375 C389 1.497 . S
C376 C375 1.380 . S
C376 C377 1.383 . S
C376 C379 1.603 . S
C377 C372 1.377 . S
C377 C376 1.383 . S
C377 H440 0.929 . S
C378 C374 1.527 . S
C378 H441 0.961 . S
C378 H442 0.959 . S
C378 H443 0.959 . S
C379 C376 1.603 . S
C379 H444 0.960 . S
C379 H445 0.962 . S
C379 H446 0.961 . S
C380 C347 1.587 . S
C380 C381 1.360 . S
C380 C393 1.412 . S
C381 C380 1.360 . S
C381 C382 1.365 . S
C381 H447 0.929 . S
C382 C357 1.553 . S
C382 C381 1.365 . S
C382 C383 1.404 . S
C383 C382 1.404 . S
C383 C384 1.395 . S
C383 C394 1.451 . S
C384 C383 1.395 . S
C384 C385 1.322 . S
C384 H448 0.930 . S
C385 C384 1.322 . S
C385 C386 1.459 . S
C385 H449 0.929 . S
C386 C385 1.459 . S
C386 C387 1.445 1_554 S
C386 C395 1.395 . S
C387 C365 1.432 . S
C387 C386 1.445 1_556 S
C387 C388 1.370 . S
C388 C387 1.370 . S
C388 C389 1.438 . S
C388 H450 0.930 . S
C389 C375 1.497 . S
C389 C388 1.438 . S
C389 C390 1.360 1_556 S
C390 C389 1.360 1_554 S
C390 C391 1.401 . S
C390 C395 1.446 . S
C391 C390 1.401 . S
C391 C392 1.347 . S
C391 H451 0.929 . S
C392 C391 1.347 . S
C392 C393 1.455 . S
C392 H452 0.930 . S
C393 C380 1.412 . S
C393 C392 1.455 . S
C393 C394 1.331 . S
C394 C383 1.451 . S
C394 C393 1.331 . S
C394 C395 1.497 . S
C395 C386 1.395 . S
C395 C390 1.446 . S
C395 C394 1.497 . S
C396 C397 1.582 . S
C396 H453 0.962 . S
C396 H454 0.959 . S
C396 H455 0.958 . S
C397 C396 1.582 . S
C397 O400 1.458 . S
C397 H426 0.980 . S
O398 C343 1.426 . S
O398 C344 1.334 . S
O399 C371 1.412 . S
O399 C372 1.393 . S
O400 C362 1.435 . S
O400 C397 1.458 . S
O401 C353 1.468 . S
O401 C354 1.408 . S
H402 C343 0.980 . S
H403 C342 0.959 . S
H404 C342 0.959 1_455 S
H405 C342 0.960 . S
H406 C345 0.929 . S
H407 C349 0.929 . S
H408 C350 0.959 . S
H409 C350 0.961 . S
H410 C350 0.961 . S
H411 C351 0.960 . S
H412 C351 0.960 . S
H413 C351 0.961 . S
H414 C353 0.980 . S
H415 C352 0.961 . S
H416 C352 0.960 . S
H417 C352 0.959 . S
H418 C355 0.930 . S
H419 C359 0.931 . S
H420 C360 0.959 . S
H421 C360 0.961 . S
H422 C360 0.959 . S
H423 C361 0.960 . S
H424 C361 0.960 . S
H425 C361 0.960 . S
H426 C397 0.980 . S
H427 C363 0.930 . S
H428 C367 0.930 . S
H429 C368 0.961 . S
H430 C368 0.960 . S
H431 C368 0.958 . S
H432 C369 0.961 . S
H433 C369 0.960 . S
H434 C369 0.960 . S
H435 C371 0.980 . S
H436 C370 0.961 . S
H437 C370 0.956 1_455 S
H438 C370 0.959 . S
H439 C373 0.932 . S
H440 C377 0.929 . S
H441 C378 0.961 . S
H442 C378 0.959 . S
H443 C378 0.959 . S
H444 C379 0.960 . S
H445 C379 0.962 . S
H446 C379 0.961 . S
H447 C381 0.929 . S
H448 C384 0.930 . S
H449 C385 0.929 . S
H450 C388 0.930 . S
H451 C391 0.929 . S
H452 C392 0.930 . S
H453 C396 0.962 . S
H454 C396 0.959 . S
H455 C396 0.958 . S
C456 C457 1.560 . S
C456 H517 0.959 . S
C456 H518 0.959 . S
C456 H519 0.960 . S
C457 C456 1.560 . S
C457 O512 1.426 . S
C457 H516 0.980 . S
C458 C459 1.407 . S
C458 C463 1.418 . S
C458 O512 1.334 . S
C459 C458 1.407 . S
C459 C460 1.360 . S
C459 H520 0.929 . S
C460 C459 1.360 . S
C460 C461 1.401 . S
C460 C464 1.527 . S
C461 C460 1.401 . S
C461 C462 1.405 . S
C461 C494 1.587 . S
C462 C461 1.405 . S
C462 C463 1.332 . S
C462 C465 1.496 . S
C463 C458 1.418 . S
C463 C462 1.332 . S
C463 H521 0.929 . S
C464 C460 1.527 . S
C464 H522 0.959 . S
C464 H523 0.961 . S
C464 H524 0.961 . S
C465 C462 1.496 . S
C465 H525 0.960 . S
C465 H526 0.960 . S
C465 H527 0.961 . S
C466 C467 1.517 . S
C466 H529 0.961 . S
C466 H530 0.960 . S
C466 H531 0.959 1_455 S
C467 C466 1.517 . S
C467 O515 1.468 . S
C467 H528 0.980 . S
C468 C469 1.349 . S
C468 C473 1.367 . S
C468 O515 1.408 . S
C469 C468 1.349 . S
C469 C470 1.407 . S
C469 H532 0.930 . S
C470 C469 1.407 . S
C470 C471 1.449 . S
C470 C474 1.535 . S
C471 C470 1.449 . S
C471 C472 1.384 . S
C471 C496 1.553 . S
C472 C471 1.384 . S
C472 C473 1.364 . S
C472 C475 1.450 . S
C473 C468 1.367 . S
C473 C472 1.364 . S
C473 H533 0.931 . S
C474 C470 1.535 . S
C474 H534 0.959 . S
C474 H535 0.961 . S
C474 H536 0.959 . S
C475 C472 1.450 . S
C475 H537 0.960 . S
C475 H538 0.960 . S
C475 H539 0.960 . S
C476 C477 1.309 . S
C476 C481 1.304 . S
C476 O514 1.435 . S
C477 C476 1.309 . S
C477 C478 1.476 . S
C477 H541 0.930 . S
C478 C477 1.476 . S
C478 C479 1.400 . S
C478 C482 1.567 . S
C479 C478 1.400 . S
C479 C480 1.373 . S
C479 C501 1.432 . S
C480 C479 1.373 . S
C480 C481 1.339 . S
C480 C483 1.530 . S
C481 C476 1.304 . S
C481 C480 1.339 . S
C481 H542 0.930 . S
C482 C478 1.567 . S
C482 H543 0.961 . S
C482 H544 0.960 . S
C482 H545 0.958 . S
C483 C480 1.530 . S
C483 H546 0.961 . S
C483 H547 0.960 . S
C483 H548 0.960 . S
C484 C485 1.530 . S
C484 H550 0.961 . S
C484 H551 0.961 . S
C484 H552 0.959 . S
C485 C484 1.530 . S
C485 O513 1.412 . S
C485 H549 0.980 . S
C486 C487 1.288 . S
C486 C491 1.377 . S
C486 O513 1.393 . S
C487 C486 1.288 . S
C487 C488 1.369 . S
C487 H553 0.932 . S
C488 C487 1.369 . S
C488 C489 1.398 . S
C488 C492 1.527 . S
C489 C488 1.398 . S
C489 C490 1.380 . S
C489 C503 1.497 . S
C490 C489 1.380 . S
C490 C491 1.383 . S
C490 C493 1.603 . S
C491 C486 1.377 . S
C491 C490 1.383 . S
C491 H554 0.929 . S
C492 C488 1.527 . S
C492 H555 0.961 . S
C492 H556 0.959 . S
C492 H557 0.959 . S
C493 C490 1.603 . S
C493 H558 0.960 . S
C493 H559 0.962 . S
C493 H560 0.961 . S
C494 C461 1.587 . S
C494 C495 1.360 . S
C494 C507 1.412 1_556 S
C495 C494 1.360 . S
C495 C496 1.365 . S
C495 H561 0.929 . S
C496 C471 1.553 . S
C496 C495 1.365 . S
C496 C497 1.404 1_556 S
C497 C496 1.404 1_554 S
C497 C498 1.395 . S
C497 C508 1.451 . S
C498 C497 1.395 . S
C498 C499 1.322 . S
C498 H562 0.930 . S
C499 C498 1.322 . S
C499 C500 1.459 . S
C499 H563 0.929 . S
C500 C499 1.459 . S
C500 C501 1.445 . S
C500 C509 1.395 . S
C501 C479 1.432 . S
C501 C500 1.445 . S
C501 C502 1.370 . S
C502 C501 1.370 . S
C502 C503 1.438 . S
C502 H564 0.930 . S
C503 C489 1.497 . S
C503 C502 1.438 . S
C503 C504 1.360 . S
C504 C503 1.360 . S
C504 C505 1.401 . S
C504 C509 1.446 . S
C505 C504 1.401 . S
C505 C506 1.347 . S
C505 H565 0.929 . S
C506 C505 1.347 . S
C506 C507 1.455 . S
C506 H566 0.930 . S
C507 C494 1.412 1_554 S
C507 C506 1.455 . S
C507 C508 1.331 . S
C508 C497 1.451 . S
C508 C507 1.331 . S
C508 C509 1.497 . S
C509 C500 1.395 . S
C509 C504 1.446 . S
C509 C508 1.497 . S
C510 C511 1.582 . S
C510 H567 0.962 . S
C510 H568 0.959 . S
C510 H569 0.958 . S
C511 C510 1.582 . S
C511 O514 1.458 . S
C511 H540 0.980 . S
O512 C457 1.426 . S
O512 C458 1.334 . S
O513 C485 1.412 . S
O513 C486 1.393 . S
O514 C476 1.435 . S
O514 C511 1.458 . S
O515 C467 1.468 . S
O515 C468 1.408 . S
H516 C457 0.980 . S
H517 C456 0.959 . S
H518 C456 0.959 . S
H519 C456 0.960 . S
H520 C459 0.929 . S
H521 C463 0.929 . S
H522 C464 0.959 . S
H523 C464 0.961 . S
H524 C464 0.961 . S
H525 C465 0.960 . S
H526 C465 0.960 . S
H527 C465 0.961 . S
H528 C467 0.980 . S
H529 C466 0.961 . S
H530 C466 0.960 . S
H531 C466 0.959 1_655 S
H532 C469 0.930 . S
H533 C473 0.931 . S
H534 C474 0.959 . S
H535 C474 0.961 . S
H536 C474 0.959 . S
H537 C475 0.960 . S
H538 C475 0.960 . S
H539 C475 0.960 . S
H540 C511 0.980 . S
H541 C477 0.930 . S
H542 C481 0.930 . S
H543 C482 0.961 . S
H544 C482 0.960 . S
H545 C482 0.958 . S
H546 C483 0.961 . S
H547 C483 0.960 . S
H548 C483 0.960 . S
H549 C485 0.980 . S
H550 C484 0.961 . S
H551 C484 0.961 . S
H552 C484 0.959 . S
H553 C487 0.932 . S
H554 C491 0.929 . S
H555 C492 0.961 . S
H556 C492 0.959 . S
H557 C492 0.959 . S
H558 C493 0.960 . S
H559 C493 0.962 . S
H560 C493 0.961 . S
H561 C495 0.929 . S
H562 C498 0.930 . S
H563 C499 0.929 . S
H564 C502 0.930 . S
H565 C505 0.929 . S
H566 C506 0.930 . S
H567 C510 0.962 . S
H568 C510 0.959 . S
H569 C510 0.958 . S
C570 C571 1.560 . S
C570 H631 0.959 . S
C570 H632 0.959 . S
C570 H633 0.960 . S
C571 C570 1.560 . S
C571 O626 1.426 . S
C571 H630 0.980 . S
C572 C573 1.407 . S
C572 C577 1.418 . S
C572 O626 1.334 . S
C573 C572 1.407 . S
C573 C574 1.360 . S
C573 H634 0.929 . S
C574 C573 1.360 . S
C574 C575 1.401 . S
C574 C578 1.527 . S
C575 C574 1.401 . S
C575 C576 1.405 . S
C575 C608 1.587 . S
C576 C575 1.405 . S
C576 C577 1.332 . S
C576 C579 1.496 . S
C577 C572 1.418 . S
C577 C576 1.332 . S
C577 H635 0.929 . S
C578 C574 1.527 . S
C578 H636 0.959 . S
C578 H637 0.961 . S
C578 H638 0.961 . S
C579 C576 1.496 . S
C579 H639 0.960 . S
C579 H640 0.960 . S
C579 H641 0.961 . S
C580 C581 1.517 . S
C580 H643 0.961 . S
C580 H644 0.960 . S
C580 H645 0.959 . S
C581 C580 1.517 . S
C581 O629 1.468 . S
C581 H642 0.980 . S
C582 C583 1.349 . S
C582 C587 1.367 . S
C582 O629 1.408 . S
C583 C582 1.349 . S
C583 C584 1.407 . S
C583 H646 0.930 . S
C584 C583 1.407 . S
C584 C585 1.449 . S
C584 C588 1.535 . S
C585 C584 1.449 . S
C585 C586 1.384 . S
C585 C610 1.553 . S
C586 C585 1.384 . S
C586 C587 1.364 . S
C586 C589 1.450 . S
C587 C582 1.367 . S
C587 C586 1.364 . S
C587 H647 0.931 . S
C588 C584 1.535 . S
C588 H648 0.959 . S
C588 H649 0.961 . S
C588 H650 0.959 . S
C589 C586 1.450 . S
C589 H651 0.960 . S
C589 H652 0.960 . S
C589 H653 0.960 . S
C590 C591 1.309 . S
C590 C595 1.304 . S
C590 O628 1.435 . S
C591 C590 1.309 . S
C591 C592 1.476 1_556 S
C591 H655 0.930 . S
C592 C591 1.476 1_554 S
C592 C593 1.400 . S
C592 C596 1.567 . S
C593 C592 1.400 . S
C593 C594 1.373 . S
C593 C615 1.432 . S
C594 C593 1.373 . S
C594 C595 1.339 1_554 S
C594 C597 1.530 . S
C595 C590 1.304 . S
C595 C594 1.339 1_556 S
C595 H656 0.930 . S
C596 C592 1.567 . S
C596 H657 0.961 . S
C596 H658 0.960 . S
C596 H659 0.958 . S
C597 C594 1.530 . S
C597 H660 0.961 . S
C597 H661 0.960 . S
C597 H662 0.960 . S
C598 C599 1.530 . S
C598 H664 0.961 . S
C598 H665 0.961 . S
C598 H666 0.959 . S
C599 C598 1.530 . S
C599 O627 1.412 . S
C599 H663 0.980 . S
C600 C601 1.288 . S
C600 C605 1.377 . S
C600 O627 1.393 . S
C601 C600 1.288 . S
C601 C602 1.369 1_556 S
C601 H667 0.932 . S
C602 C601 1.369 1_554 S
C602 C603 1.398 . S
C602 C606 1.527 . S
C603 C602 1.398 . S
C603 C604 1.380 . S
C603 C617 1.497 . S
C604 C603 1.380 . S
C604 C605 1.383 1_554 S
C604 C607 1.603 . S
C605 C600 1.377 . S
C605 C604 1.383 1_556 S
C605 H668 0.929 . S
C606 C602 1.527 . S
C606 H669 0.961 . S
C606 H670 0.959 . S
C606 H671 0.959 . S
C607 C604 1.603 . S
C607 H672 0.960 . S
C607 H673 0.962 . S
C607 H674 0.961 . S
C608 C575 1.587 . S
C608 C609 1.360 . S
C608 C621 1.412 . S
C609 C608 1.360 . S
C609 C610 1.365 . S
C609 H675 0.929 . S
C610 C585 1.553 . S
C610 C609 1.365 . S
C610 C611 1.404 . S
C611 C610 1.404 . S
C611 C612 1.395 . S
C611 C622 1.451 . S
C612 C611 1.395 . S
C612 C613 1.322 . S
C612 H676 0.930 . S
C613 C612 1.322 . S
C613 C614 1.459 . S
C613 H677 0.929 . S
C614 C613 1.459 . S
C614 C615 1.445 . S
C614 C623 1.395 . S
C615 C593 1.432 . S
C615 C614 1.445 . S
C615 C616 1.370 . S
C616 C615 1.370 . S
C616 C617 1.438 . S
C616 H678 0.930 . S
C617 C603 1.497 . S
C617 C616 1.438 . S
C617 C618 1.360 . S
C618 C617 1.360 . S
C618 C619 1.401 . S
C618 C623 1.446 . S
C619 C618 1.401 . S
C619 C620 1.347 . S
C619 H679 0.929 . S
C620 C619 1.347 . S
C620 C621 1.455 . S
C620 H680 0.930 . S
C621 C608 1.412 . S
C621 C620 1.455 . S
C621 C622 1.331 . S
C622 C611 1.451 . S
C622 C621 1.331 . S
C622 C623 1.497 . S
C623 C614 1.395 . S
C623 C618 1.446 . S
C623 C622 1.497 . S
C624 C625 1.582 . S
C624 H681 0.962 . S
C624 H682 0.959 . S
C624 H683 0.958 . S
C625 C624 1.582 . S
C625 O628 1.458 . S
C625 H654 0.980 . S
O626 C571 1.426 . S
O626 C572 1.334 . S
O627 C599 1.412 . S
O627 C600 1.393 . S
O628 C590 1.435 . S
O628 C625 1.458 . S
O629 C581 1.468 . S
O629 C582 1.408 . S
H630 C571 0.980 . S
H631 C570 0.959 . S
H632 C570 0.959 . S
H633 C570 0.960 . S
H634 C573 0.929 . S
H635 C577 0.929 . S
H636 C578 0.959 . S
H637 C578 0.961 . S
H638 C578 0.961 . S
H639 C579 0.960 . S
H640 C579 0.960 . S
H641 C579 0.961 . S
H642 C581 0.980 . S
H643 C580 0.961 . S
H644 C580 0.960 . S
H645 C580 0.959 . S
H646 C583 0.930 . S
H647 C587 0.931 . S
H648 C588 0.959 . S
H649 C588 0.961 . S
H650 C588 0.959 . S
H651 C589 0.960 . S
H652 C589 0.960 . S
H653 C589 0.960 . S
H654 C625 0.980 . S
H655 C591 0.930 . S
H656 C595 0.930 . S
H657 C596 0.961 . S
H658 C596 0.960 . S
H659 C596 0.958 . S
H660 C597 0.961 . S
H661 C597 0.960 . S
H662 C597 0.960 . S
H663 C599 0.980 . S
H664 C598 0.961 . S
H665 C598 0.961 . S
H666 C598 0.959 . S
H667 C601 0.932 . S
H668 C605 0.929 . S
H669 C606 0.961 . S
H670 C606 0.959 . S
H671 C606 0.959 . S
H672 C607 0.960 . S
H673 C607 0.962 . S
H674 C607 0.961 . S
H675 C609 0.929 . S
H676 C612 0.930 . S
H677 C613 0.929 . S
H678 C616 0.930 . S
H679 C619 0.929 . S
H680 C620 0.930 . S
H681 C624 0.962 . S
H682 C624 0.959 . S
H683 C624 0.958 . S
C684 O696 1.241 . S
C684 O697 1.280 . S
C685 O698 1.277 . S
C685 O699 1.245 . S
C686 O710 1.247 . S
C686 O712 1.289 . S
Mg687 O688 1.930 1_655 S
Mg687 O697 1.984 . S
Mg687 O699 1.988 1_655 S
Mg687 O700 2.061 . S
O688 Mg687 1.930 1_455 S
O688 Mg689 1.986 . S
O688 Mg690 1.916 . S
Mg689 O688 1.986 . S
Mg689 O696 2.042 1_455 S
Mg689 O698 2.041 . S
Mg689 O704 2.038 1_455 S
Mg689 O712 2.238 . S
Mg690 O688 1.916 . S
Mg690 O691 1.917 . S
Mg690 O701 2.106 1_455 S
Mg690 O703 2.079 1_455 S
Mg690 O712 2.106 . S
Mg690 O713 2.079 . S
O691 Mg690 1.917 . S
O691 Mg692 1.926 . S
O691 Mg693 1.986 . S
Mg692 O691 1.926 . S
Mg692 O706 1.984 . S
Mg692 O709 1.988 1_455 S
Mg692 O710 2.061 . S
Mg693 O691 1.986 . S
Mg693 O701 2.238 1_455 S
Mg693 O705 2.042 . S
Mg693 O707 2.041 1_455 S
Mg693 O714 2.038 . S
C694 O700 1.247 . S
C694 O701 1.289 . S
C695 O713 1.245 . S
C695 O714 1.274 . S
O696 C684 1.241 . S
O696 Mg689 2.042 1_655 S
O697 C684 1.280 . S
O697 Mg687 1.984 . S
O698 C685 1.277 . S
O698 Mg689 2.041 . S
O699 C685 1.245 . S
O699 Mg687 1.988 1_455 S
O700 Mg687 2.061 . S
O700 C694 1.247 . S
O701 Mg690 2.106 1_655 S
O701 Mg693 2.238 1_655 S
O701 C694 1.289 . S
C702 O703 1.245 . S
C702 O704 1.274 . S
O703 Mg690 2.079 1_655 S
O703 C702 1.245 . S
O704 Mg689 2.038 1_655 S
O704 C702 1.274 . S
O705 Mg693 2.042 . S
O705 C708 1.241 . S
O706 Mg692 1.984 . S
O706 C708 1.280 . S
O707 Mg693 2.041 1_655 S
O707 C711 1.277 . S
C708 O705 1.241 . S
C708 O706 1.280 . S
O709 Mg692 1.988 1_655 S
O709 C711 1.245 . S
O710 C686 1.247 . S
O710 Mg692 2.061 . S
C711 O707 1.277 . S
C711 O709 1.245 . S
O712 C686 1.289 . S
O712 Mg689 2.238 . S
O712 Mg690 2.106 . S
O713 Mg690 2.079 . S
O713 C695 1.245 . S
O714 Mg693 2.038 . S
O714 C695 1.274 . S
C715 O727 1.241 . S
C715 O728 1.280 . S
C716 O729 1.277 . S
C716 O730 1.245 . S
C717 O741 1.247 . S
C717 O743 1.289 . S
Mg718 O719 1.926 . S
Mg718 O728 1.984 . S
Mg718 O730 1.988 1_545 S
Mg718 O731 2.061 . S
O719 Mg718 1.926 . S
O719 Mg720 1.986 . S
O719 Mg721 1.917 . S
Mg720 O719 1.986 . S
Mg720 O727 2.042 . S
Mg720 O729 2.041 1_545 S
Mg720 O735 2.038 . S
Mg720 O743 2.238 1_545 S
Mg721 O719 1.917 . S
Mg721 O722 1.917 1_545 S
Mg721 O732 2.106 . S
Mg721 O734 2.079 . S
Mg721 O743 2.106 1_545 S
Mg721 O744 2.079 1_545 S
O722 Mg721 1.917 1_565 S
O722 Mg723 1.926 . S
O722 Mg724 1.986 1_565 S
Mg723 O722 1.926 . S
Mg723 O737 1.984 . S
Mg723 O740 1.988 1_565 S
Mg723 O741 2.061 . S
Mg724 O722 1.986 1_545 S
Mg724 O732 2.238 . S
Mg724 O736 2.042 1_545 S
Mg724 O738 2.041 . S
Mg724 O745 2.038 1_545 S
C725 O731 1.247 . S
C725 O732 1.289 . S
C726 O744 1.245 . S
C726 O745 1.274 . S
O727 C715 1.241 . S
O727 Mg720 2.042 . S
O728 C715 1.280 . S
O728 Mg718 1.984 . S
O729 C716 1.277 . S
O729 Mg720 2.041 1_565 S
O730 C716 1.245 . S
O730 Mg718 1.988 1_565 S
O731 Mg718 2.061 . S
O731 C725 1.247 . S
O732 Mg721 2.106 . S
O732 Mg724 2.238 . S
O732 C725 1.289 . S
C733 O734 1.245 . S
C733 O735 1.274 . S
O734 Mg721 2.079 . S
O734 C733 1.245 . S
O735 Mg720 2.038 . S
O735 C733 1.274 . S
O736 Mg724 2.042 1_565 S
O736 C739 1.241 . S
O737 Mg723 1.984 . S
O737 C739 1.280 . S
O738 Mg724 2.041 . S
O738 C742 1.277 . S
C739 O736 1.241 . S
C739 O737 1.280 . S
O740 Mg723 1.988 1_545 S
O740 C742 1.245 . S
O741 C717 1.247 . S
O741 Mg723 2.061 . S
C742 O738 1.277 . S
C742 O740 1.245 . S
O743 C717 1.289 . S
O743 Mg720 2.238 1_565 S
O743 Mg721 2.106 1_565 S
O744 Mg721 2.079 1_565 S
O744 C726 1.245 . S
O745 Mg724 2.038 1_565 S
O745 C726 1.274 . S
C746 O758 1.241 . S
C746 O759 1.280 . S
C747 O760 1.277 . S
C747 O761 1.245 . S
C748 O772 1.247 . S
C748 O774 1.289 . S
Mg749 O750 1.926 . S
Mg749 O759 1.984 . S
Mg749 O761 1.988 . S
Mg749 O762 2.061 . S
O750 Mg749 1.926 . S
O750 Mg751 1.986 . S
O750 Mg752 1.917 . S
Mg751 O750 1.986 . S
Mg751 O758 2.042 . S
Mg751 O760 2.041 . S
Mg751 O766 2.038 . S
Mg751 O774 2.238 . S
Mg752 O750 1.917 . S
Mg752 O753 1.917 . S
Mg752 O763 2.106 . S
Mg752 O765 2.079 . S
Mg752 O774 2.106 . S
Mg752 O775 2.079 . S
O753 Mg752 1.917 . S
O753 Mg754 1.926 . S
O753 Mg755 1.986 . S
Mg754 O753 1.926 . S
Mg754 O768 1.984 . S
Mg754 O771 1.988 . S
Mg754 O772 2.061 . S
Mg755 O753 1.986 . S
Mg755 O763 2.238 . S
Mg755 O767 2.042 . S
Mg755 O769 2.041 . S
Mg755 O776 2.038 . S
C756 O762 1.247 . S
C756 O763 1.289 . S
C757 O775 1.245 . S
C757 O776 1.274 . S
O758 C746 1.241 . S
O758 Mg751 2.042 . S
O759 C746 1.280 . S
O759 Mg749 1.984 . S
O760 C747 1.277 . S
O760 Mg751 2.041 . S
O761 C747 1.245 . S
O761 Mg749 1.988 . S
O762 Mg749 2.061 . S
O762 C756 1.247 . S
O763 Mg752 2.106 . S
O763 Mg755 2.238 . S
O763 C756 1.289 . S
C764 O765 1.245 . S
C764 O766 1.274 . S
O765 Mg752 2.079 . S
O765 C764 1.245 . S
O766 Mg751 2.038 . S
O766 C764 1.274 . S
O767 Mg755 2.042 . S
O767 C770 1.241 . S
O768 Mg754 1.984 . S
O768 C770 1.280 . S
O769 Mg755 2.041 . S
O769 C773 1.277 . S
C770 O767 1.241 . S
C770 O768 1.280 . S
O771 Mg754 1.988 . S
O771 C773 1.245 . S
O772 C748 1.247 . S
O772 Mg754 2.061 . S
C773 O769 1.277 . S
C773 O771 1.245 . S
O774 C748 1.289 . S
O774 Mg751 2.238 . S
O774 Mg752 2.106 . S
O775 Mg752 2.079 . S
O775 C757 1.245 . S
O776 Mg755 2.038 . S
O776 C757 1.274 . S
C11 C695 3.047 . S
C125 C742 1.907 . S
C746 C239 1.804 . S
C711 C343 1.642 . S
C485 C726 2.208 . S
C748 C571 2.758 . S
C717 C257 1.763 . S
C397 C757 1.561 . S
C686 C467 2.384 . S
C625 C715 0.832 . S
C29 C773 1.642 . S
C684 C143 1.446 . S
C702 C371 2.742 . S
C716 C457 1.794 . S
C770 C599 1.677 . S
C685 C55 1.364 . S
C733 C169 2.689 . S
C283 C756 1.492 . S
C725 C581 1.578 . S
C764 C1 2.333 . S
C694 C115 1.592 . S
C739 C229 1.013 . S
C353 C747 1.162 . S
C511 C708 1.617 . S
