# Generated by pormake.
# Topology zzz, (3,6)-cn, num edge types: 1
# Building blocks:
#     Node 0, Type 0, BuildingBlock: VETTIZ_charged_linker_0, # of connection points: 3
#     Node 1, Type 0, BuildingBlock: VETTIZ_charged_linker_0, # of connection points: 3
#     Node 2, Type 0, BuildingBlock: VETTIZ_charged_linker_0, # of connection points: 3
#     Node 3, Type 0, BuildingBlock: VETTIZ_charged_linker_0, # of connection points: 3
#     Node 4, Type 0, BuildingBlock: VETTIZ_charged_linker_0, # of connection points: 3
#     Node 5, Type 0, BuildingBlock: VETTIZ_charged_linker_0, # of connection points: 3
#     Node 6, Type 0, BuildingBlock: VETTIZ_charged_linker_0, # of connection points: 3
#     Node 7, Type 0, BuildingBlock: VETTIZ_charged_linker_0, # of connection points: 3
#     Node 8, Type 1, BuildingBlock: CIFDUS_clean_sbu_1, # of connection points: 6
#     Node 9, Type 1, BuildingBlock: CIFDUS_clean_sbu_1, # of connection points: 6
#     Node 10, Type 1, BuildingBlock: CIFDUS_clean_sbu_1, # of connection points: 6
#     Node 11, Type 1, BuildingBlock: CIFDUS_clean_sbu_1, # of connection points: 6
#     Edge 12, Type (0, 1), BuildingBlock: UVAHIK_clean_linker_0, # of connection points: 2
#     Edge 13, Type (0, 1), BuildingBlock: UVAHIK_clean_linker_0, # of connection points: 2
#     Edge 14, Type (0, 1), BuildingBlock: UVAHIK_clean_linker_0, # of connection points: 2
#     Edge 15, Type (0, 1), BuildingBlock: UVAHIK_clean_linker_0, # of connection points: 2
#     Edge 16, Type (0, 1), BuildingBlock: UVAHIK_clean_linker_0, # of connection points: 2
#     Edge 17, Type (0, 1), BuildingBlock: UVAHIK_clean_linker_0, # of connection points: 2
#     Edge 18, Type (0, 1), BuildingBlock: UVAHIK_clean_linker_0, # of connection points: 2
#     Edge 19, Type (0, 1), BuildingBlock: UVAHIK_clean_linker_0, # of connection points: 2
#     Edge 20, Type (0, 1), BuildingBlock: UVAHIK_clean_linker_0, # of connection points: 2
#     Edge 21, Type (0, 1), BuildingBlock: UVAHIK_clean_linker_0, # of connection points: 2
#     Edge 22, Type (0, 1), BuildingBlock: UVAHIK_clean_linker_0, # of connection points: 2
#     Edge 23, Type (0, 1), BuildingBlock: UVAHIK_clean_linker_0, # of connection points: 2
#     Edge 24, Type (0, 1), BuildingBlock: UVAHIK_clean_linker_0, # of connection points: 2
#     Edge 25, Type (0, 1), BuildingBlock: UVAHIK_clean_linker_0, # of connection points: 2
#     Edge 26, Type (0, 1), BuildingBlock: UVAHIK_clean_linker_0, # of connection points: 2
#     Edge 27, Type (0, 1), BuildingBlock: UVAHIK_clean_linker_0, # of connection points: 2
#     Edge 28, Type (0, 1), BuildingBlock: UVAHIK_clean_linker_0, # of connection points: 2
#     Edge 29, Type (0, 1), BuildingBlock: UVAHIK_clean_linker_0, # of connection points: 2
#     Edge 30, Type (0, 1), BuildingBlock: UVAHIK_clean_linker_0, # of connection points: 2
#     Edge 31, Type (0, 1), BuildingBlock: UVAHIK_clean_linker_0, # of connection points: 2
#     Edge 32, Type (0, 1), BuildingBlock: UVAHIK_clean_linker_0, # of connection points: 2
#     Edge 33, Type (0, 1), BuildingBlock: UVAHIK_clean_linker_0, # of connection points: 2
#     Edge 34, Type (0, 1), BuildingBlock: UVAHIK_clean_linker_0, # of connection points: 2
#     Edge 35, Type (0, 1), BuildingBlock: UVAHIK_clean_linker_0, # of connection points: 2
# Relax obj value: 0.314
# Max RMSD: 0.222
# Mean RMSD: 0.210
data_MOF--net-zzz--node1-CIFDUS_clean_sbu_1--node2-VETTIZ_charged_linker_0--edge1-UVAHIK_clean_linker_0
_symmetry_space_group_name_H-M    P1
_symmetry_Int_Tables_number       1
_symmetry_cell_setting            triclinic
loop_
_symmetry_equiv_pos_as_xyz
'x, y, z'
_cell_length_a     67.202105
_cell_length_b     71.387639
_cell_length_c     25.95644
_cell_angle_alpha  89.876618
_cell_angle_beta   90.108667
_cell_angle_gamma 88.449043
loop_
_atom_site_label
_atom_site_type_symbol
_atom_site_fract_x
_atom_site_fract_y
_atom_site_fract_z
_atom_type_partial_charge
C0 C 0.79642 0.58759 0.30429 0.0
C1 C 0.81684 0.59014 0.31643 0.0
C2 C 0.82891 0.59883 0.27993 0.0
C3 C 0.80144 0.6013 0.21939 0.0
C4 C 0.7889 0.59362 0.25541 0.0
C5 C 0.76776 0.59254 0.2338 0.0
H6 H 0.71163 0.59502 0.01037 0.0
C7 C 0.79022 0.6048 0.17112 0.0
C8 C 0.77028 0.59959 0.17826 0.0
H9 H 0.6884 0.58272 0.16127 0.0
H10 H 0.7211 0.58903 0.19934 0.0
H11 H 0.72852 0.63074 0.04302 0.0
H12 H 0.75445 0.57596 0.02074 0.0
H13 H 0.77033 0.5917 0.99068 0.0
H14 H 0.74487 0.59086 0.97016 0.0
H15 H 0.73749 0.6235 0.98114 0.0
H16 H 0.75322 0.6353 0.02679 0.0
C17 C 0.75399 0.60593 0.26468 0.0
C18 C 0.76108 0.57211 0.23596 0.0
C19 C 0.82896 0.62056 0.01002 0.0
C20 C 0.82315 0.62121 0.95801 0.0
C21 C 0.8029 0.62339 0.94552 0.0
C22 C 0.7885 0.62227 0.98395 0.0
C23 C 0.79446 0.61878 0.03519 0.0
C24 C 0.81435 0.61909 0.04797 0.0
C25 C 0.81794 0.61476 0.10399 0.0
C26 C 0.79687 0.6111 0.1223 0.0
C27 C 0.78343 0.61294 0.08143 0.0
C28 C 0.82671 0.63241 0.12941 0.0
C29 C 0.83153 0.59682 0.10734 0.0
C30 C 0.71312 0.59372 0.05176 0.0
C31 C 0.69707 0.58841 0.08224 0.0
C32 C 0.70045 0.58659 0.13615 0.0
C33 C 0.71944 0.59016 0.15825 0.0
C34 C 0.73529 0.5955 0.12622 0.0
C35 C 0.73145 0.59758 0.07408 0.0
C36 C 0.74843 0.60523 0.04491 0.0
C37 C 0.76366 0.60707 0.08723 0.0
C38 C 0.75657 0.60081 0.13534 0.0
C39 C 0.74167 0.62462 0.02243 0.0
C40 C 0.75491 0.59034 0.0042 0.0
H41 H 0.83181 0.61026 0.20589 0.0
H42 H 0.78672 0.58103 0.33182 0.0
H43 H 0.77225 0.56269 0.21687 0.0
H44 H 0.74673 0.57026 0.21626 0.0
H45 H 0.75944 0.56743 0.27656 0.0
H46 H 0.76019 0.62022 0.26573 0.0
H47 H 0.75242 0.60094 0.305 0.0
H48 H 0.73901 0.60727 0.24726 0.0
H49 H 0.84451 0.61869 0.0205 0.0
H50 H 0.7982 0.62387 0.90556 0.0
H51 H 0.77338 0.62246 0.97118 0.0
H52 H 0.8234 0.64533 0.10656 0.0
H53 H 0.84315 0.63104 0.13323 0.0
H54 H 0.82013 0.63535 0.16777 0.0
H55 H 0.82734 0.58652 0.07735 0.0
H56 H 0.83026 0.5892 0.14414 0.0
H57 H 0.8474 0.60016 0.10127 0.0
H58 H 0.84455 0.60083 0.28798 0.0
C59 C 0.82142 0.60432 0.23196 0.0
C60 C 0.99711 0.80037 0.98019 0.0
C61 C 0.99644 0.81986 0.97922 0.0
C62 C 0.99664 0.83008 0.02548 0.0
C63 C 0.99805 0.80112 0.07373 0.0
C64 C 0.99788 0.79135 0.02786 0.0
C65 C 0.99897 0.77067 0.0357 0.0
H66 H 0.00401 0.6945 0.18712 0.0
C67 C 0.99901 0.78729 0.11604 0.0
C68 C 0.99954 0.76951 0.09407 0.0
H69 H 0.0035 0.6997 0.02097 0.0
H70 H 1.00128 0.73262 0.02734 0.0
H71 H 0.03435 0.73364 0.20962 0.0
H72 H 0.96972 0.731 0.20884 0.0
H73 H 0.97984 0.74129 0.26502 0.0
H74 H 0.98442 0.71679 0.25273 0.0
H75 H 0.02178 0.71765 0.25137 0.0
H76 H 0.02251 0.74213 0.26664 0.0
C77 C 0.01872 0.76326 0.01078 0.0
C78 C 0.97955 0.76255 0.01308 0.0
C79 C 0.99994 0.81153 0.2975 0.0
C80 C 0.99989 0.80348 0.34651 0.0
C81 C 0.99968 0.78372 0.35078 0.0
C82 C 0.99985 0.77228 0.30604 0.0
C83 C 1.00003 0.78075 0.25684 0.0
C84 C 0.99989 0.80015 0.25393 0.0
C85 C 0.99944 0.80738 0.20004 0.0
C86 C 0.99936 0.7893 0.17019 0.0
C87 C 0.99995 0.7734 0.20281 0.0
C88 C 0.01881 0.81826 0.19077 0.0
C89 C 0.97985 0.81915 0.19254 0.0
C90 C 0.00364 0.70303 0.15261 0.0
C91 C 0.00413 0.6946 0.10316 0.0
C92 C 1.00339 0.70591 0.05909 0.0
C93 C 1.00208 0.72519 0.06301 0.0
C94 C 1.00171 0.73365 0.11164 0.0
C95 C 1.00257 0.72289 0.15589 0.0
C96 C 1.00182 0.73531 0.2037 0.0
C97 C 1.00061 0.75504 0.17999 0.0
C98 C 1.00048 0.75347 0.12595 0.0
C99 C 0.02114 0.73203 0.23483 0.0
C100 C 0.98297 0.73088 0.23458 0.0
H101 H 0.99774 0.82933 0.10687 0.0
H102 H 0.99721 0.79237 0.94475 0.0
H103 H 0.96685 0.77283 0.01571 0.0
H104 H 0.97441 0.75018 0.03451 0.0
H105 H 0.98141 0.75883 0.97182 0.0
H106 H 0.03012 0.77427 0.00921 0.0
H107 H 0.01625 0.75842 0.97069 0.0
H108 H 0.02603 0.75181 0.03326 0.0
H109 H 0.99994 0.82664 0.29304 0.0
H110 H 0.99968 0.7772 0.38848 0.0
H111 H 0.99988 0.75735 0.31113 0.0
H112 H 0.03163 0.81149 0.21149 0.0
H113 H 0.01725 0.83291 0.20478 0.0
H114 H 0.0234 0.81843 0.14994 0.0
H115 H 0.96781 0.81413 0.21807 0.0
H116 H 0.97362 0.81803 0.15326 0.0
H117 H 0.98204 0.83415 0.20162 0.0
H118 H 0.99637 0.84527 0.02473 0.0
C119 C 0.99747 0.8208 0.07291 0.0
C120 C 0.79857 0.91714 0.12179 0.0
C121 C 0.80715 0.91385 0.07249 0.0
C122 C 0.79736 0.90217 0.03783 0.0
C123 C 0.76936 0.90015 0.09569 0.0
C124 C 0.77953 0.90985 0.13287 0.0
C125 C 0.76693 0.91199 0.18155 0.0
H126 H 0.67195 0.90777 0.28279 0.0
C127 C 0.74884 0.89735 0.1135 0.0
C128 C 0.74696 0.90401 0.16441 0.0
H129 H 0.72391 0.92551 0.36511 0.0
H130 H 0.74473 0.91786 0.29003 0.0
H131 H 0.68267 0.92934 0.1828 0.0
H132 H 0.68999 0.87206 0.23066 0.0
H133 H 0.68332 0.87119 0.16532 0.0
H134 H 0.66643 0.88212 0.21092 0.0
H135 H 0.66246 0.91347 0.18323 0.0
H136 H 0.67814 0.91618 0.1275 0.0
C137 C 0.76509 0.93288 0.19594 0.0
C138 C 0.77665 0.89986 0.22434 0.0
C139 C 0.69774 0.88346 0.97675 0.0
C140 C 0.67695 0.88543 0.97689 0.0
C141 C 0.66686 0.88577 0.02451 0.0
C142 C 0.67745 0.88641 0.07089 0.0
C143 C 0.69833 0.887 0.06966 0.0
C144 C 0.70811 0.8848 0.02328 0.0
C145 C 0.7301 0.88721 0.02832 0.0
C146 C 0.7319 0.89175 0.08541 0.0
C147 C 0.71327 0.89172 0.10919 0.0
C148 C 0.73568 0.90404 0.99349 0.0
C149 C 0.74059 0.86826 0.01425 0.0
C150 C 0.68784 0.90982 0.2853 0.0
C151 C 0.69621 0.91708 0.3302 0.0
C152 C 0.71699 0.91997 0.33087 0.0
C153 C 0.72903 0.91564 0.28726 0.0
C154 C 0.72012 0.90888 0.24192 0.0
C155 C 0.6998 0.906 0.24231 0.0
C156 C 0.69214 0.8995 0.1916 0.0
C157 C 0.7112 0.89767 0.161 0.0
C158 C 0.72783 0.90361 0.18944 0.0
C159 C 0.678 0.91525 0.16996 0.0
C160 C 0.6823 0.88029 0.19968 0.0
H161 H 0.77196 0.88702 0.02008 0.0
H162 H 0.80604 0.92573 0.14972 0.0
H163 H 0.7795 0.8853 0.21041 0.0
H164 H 0.76705 0.89883 0.2586 0.0
H165 H 0.79112 0.90566 0.23633 0.0
H166 H 0.7603 0.94136 0.16191 0.0
H167 H 0.77961 0.93808 0.20958 0.0
H168 H 0.75399 0.93555 0.22643 0.0
H169 H 0.70585 0.88304 0.94071 0.0
H170 H 0.6508 0.88742 0.02597 0.0
H171 H 0.66885 0.88776 0.10551 0.0
H172 H 0.72414 0.91549 0.99594 0.0
H173 H 0.73686 0.89975 0.95248 0.0
H174 H 0.74962 0.91071 0.00446 0.0
H175 H 0.73029 0.85633 0.01622 0.0
H176 H 0.75273 0.86444 0.04167 0.0
H177 H 0.7467 0.86854 0.97454 0.0
H178 H 0.80381 0.89907 1.00044 0.0
C179 C 0.77876 0.89518 0.04933 0.0
C180 C 0.49416 0.71672 0.33084 0.0
C181 C 0.49347 0.6971 0.33868 0.0
C182 C 0.48985 0.68538 0.29659 0.0
C183 C 0.48922 0.71197 0.23895 0.0
C184 C 0.49172 0.72392 0.28022 0.0
C185 C 0.492 0.74424 0.26234 0.0
H186 H 0.48196 0.80374 0.054 0.0
C187 C 0.48826 0.72308 0.19121 0.0
C188 C 0.48924 0.74221 0.20406 0.0
H189 H 0.49752 0.82053 0.20773 0.0
H190 H 0.49451 0.78804 0.2379 0.0
H191 H 0.51417 0.77575 0.05752 0.0
H192 H 0.45109 0.77174 0.07257 0.0
H193 H 0.45844 0.75226 0.0354 0.0
H194 H 0.46346 0.77552 0.01238 0.0
H195 H 0.49833 0.7742 0.00227 0.0
H196 H 0.50963 0.75364 0.03221 0.0
C197 C 0.51241 0.75228 0.27591 0.0
C198 C 0.47446 0.75518 0.28726 0.0
C199 C 0.48856 0.68964 0.01832 0.0
C200 C 0.48789 0.69646 0.96754 0.0
C201 C 0.48632 0.71568 0.95787 0.0
C202 C 0.48541 0.72823 0.99886 0.0
C203 C 0.48625 0.72139 0.04984 0.0
C204 C 0.48773 0.70239 0.05898 0.0
C205 C 0.48792 0.69777 0.11563 0.0
C206 C 0.48726 0.71734 0.13893 0.0
C207 C 0.4861 0.73084 0.10012 0.0
C208 C 0.50772 0.68702 0.12781 0.0
C209 C 0.46888 0.68676 0.1282 0.0
C210 C 0.48402 0.80059 0.09462 0.0
C211 C 0.48961 0.8145 0.12862 0.0
C212 C 0.49295 0.80986 0.18094 0.0
C213 C 0.49143 0.79106 0.19809 0.0
C214 C 0.48721 0.77694 0.162 0.0
C215 C 0.4838 0.78213 0.11121 0.0
C216 C 0.48362 0.76604 0.07522 0.0
C217 C 0.48571 0.75 0.11251 0.0
C218 C 0.48766 0.75601 0.16387 0.0
C219 C 0.50223 0.76741 0.03962 0.0
C220 C 0.46321 0.76635 0.04698 0.0
H221 H 0.48528 0.68282 0.21689 0.0
H222 H 0.49676 0.72603 0.36287 0.0
H223 H 0.46027 0.74793 0.28019 0.0
H224 H 0.47262 0.76948 0.27143 0.0
H225 H 0.47663 0.75628 0.32959 0.0
H226 H 0.52463 0.74229 0.26476 0.0
H227 H 0.5136 0.75488 0.31799 0.0
H228 H 0.5152 0.76546 0.25527 0.0
H229 H 0.48946 0.67471 0.02604 0.0
H230 H 0.48559 0.72092 0.91868 0.0
H231 H 0.4839 0.74273 0.98884 0.0
H232 H 0.52041 0.69383 0.10848 0.0
H233 H 0.50725 0.67234 0.11387 0.0
H234 H 0.51151 0.68677 0.16915 0.0
H235 H 0.45726 0.68862 0.0979 0.0
H236 H 0.46157 0.69176 0.16407 0.0
H237 H 0.47224 0.67148 0.13166 0.0
H238 H 0.48909 0.67035 0.30199 0.0
C239 C 0.4877 0.69266 0.24709 0.0
C240 C 0.29926 0.41565 0.34215 0.0
C241 C 0.30799 0.41306 0.39181 0.0
C242 C 0.29613 0.40636 0.4319 0.0
C243 C 0.26748 0.40556 0.37559 0.0
C244 C 0.27886 0.41144 0.33469 0.0
C245 C 0.26621 0.41298 0.2857 0.0
H246 H 0.17072 0.41015 0.18466 0.0
C247 C 0.24675 0.40365 0.35825 0.0
C248 C 0.24544 0.40798 0.30531 0.0
H249 H 0.22344 0.42352 0.09919 0.0
H250 H 0.2439 0.41772 0.17636 0.0
H251 H 0.1873 0.37592 0.2415 0.0
H252 H 0.18207 0.43392 0.283 0.0
H253 H 0.1752 0.42125 0.3378 0.0
H254 H 0.16125 0.41878 0.27896 0.0
H255 H 0.16441 0.38613 0.26493 0.0
H256 H 0.18277 0.37572 0.30797 0.0
C257 C 0.2741 0.39842 0.24653 0.0
C258 C 0.26681 0.43322 0.2652 0.0
C259 C 0.19515 0.39007 0.49444 0.0
C260 C 0.17428 0.38986 0.49303 0.0
C261 C 0.1646 0.39023 0.44463 0.0
C262 C 0.17538 0.39221 0.39908 0.0
C263 C 0.1961 0.39401 0.40156 0.0
C264 C 0.20563 0.39247 0.44853 0.0
C265 C 0.22752 0.3955 0.44427 0.0
C266 C 0.22959 0.39911 0.38678 0.0
C267 C 0.21114 0.39846 0.36224 0.0
C268 C 0.23852 0.3771 0.46159 0.0
C269 C 0.23231 0.41316 0.47656 0.0
C270 C 0.18668 0.41171 0.18199 0.0
C271 C 0.19536 0.41716 0.13557 0.0
C272 C 0.21627 0.41939 0.13461 0.0
C273 C 0.2281 0.41616 0.17941 0.0
C274 C 0.2189 0.41114 0.22608 0.0
C275 C 0.19846 0.40893 0.22599 0.0
C276 C 0.19052 0.40383 0.2776 0.0
C277 C 0.20943 0.40277 0.30914 0.0
C278 C 0.22634 0.40737 0.27987 0.0
C279 C 0.1806 0.38449 0.2731 0.0
C280 C 0.1764 0.42013 0.29551 0.0
H281 H 0.26821 0.39824 0.4574 0.0
H282 H 0.30802 0.42082 0.31046 0.0
H283 H 0.26348 0.44336 0.29667 0.0
H284 H 0.2557 0.43598 0.23463 0.0
H285 H 0.28177 0.4362 0.24954 0.0
H286 H 0.27513 0.38426 0.26452 0.0
H287 H 0.28918 0.40204 0.2329 0.0
H288 H 0.2642 0.39736 0.21272 0.0
H289 H 0.20309 0.38979 0.5308 0.0
H290 H 0.14852 0.39052 0.44189 0.0
H291 H 0.16696 0.39326 0.36404 0.0
H292 H 0.22889 0.36472 0.45819 0.0
H293 H 0.2434 0.3779 0.50241 0.0
H294 H 0.25155 0.37357 0.43703 0.0
H295 H 0.21988 0.42376 0.47448 0.0
H296 H 0.24538 0.42066 0.46243 0.0
H297 H 0.23463 0.40953 0.5178 0.0
H298 H 0.30218 0.40456 0.4704 0.0
C299 C 0.27617 0.40272 0.42421 0.0
C300 C 0.00505 0.20528 0.4788 0.0
C301 C 0.00935 0.18609 0.47897 0.0
C302 C 0.00932 0.17596 0.43248 0.0
C303 C 1.00258 0.2046 0.38542 0.0
C304 C 1.00201 0.21425 0.43151 0.0
C305 C 0.99922 0.23488 0.42397 0.0
H306 H 0.00598 0.31089 0.2754 0.0
C307 C 1.00078 0.21843 0.3433 0.0
C308 C 0.99916 0.23614 0.36554 0.0
H309 H 0.99557 0.30586 0.43928 0.0
H310 H 0.99274 0.27301 0.43135 0.0
H311 H 0.03462 0.27137 0.25761 0.0
H312 H 0.9701 0.27623 0.24593 0.0
H313 H 0.98163 0.26539 0.19187 0.0
H314 H 0.98578 0.28971 0.20469 0.0
H315 H 0.02285 0.28738 0.21254 0.0
H316 H 0.02477 0.26276 0.19882 0.0
C317 C 0.01747 0.24445 0.44873 0.0
C318 C 0.97863 0.2407 0.44706 0.0
C319 C 1.00242 0.19489 0.16083 0.0
C320 C 1.00296 0.20326 0.11222 0.0
C321 C 1.00343 0.22301 0.10884 0.0
C322 C 1.00298 0.23418 0.15401 0.0
C323 C 1.00224 0.22543 0.20276 0.0
C324 C 1.00218 0.20602 0.20493 0.0
C325 C 1.00255 0.19856 0.25866 0.0
C326 C 1.00161 0.21654 0.28912 0.0
C327 C 1.00152 0.23252 0.25692 0.0
C328 C 0.02259 0.18752 0.26667 0.0
C329 C 0.9837 0.18684 0.26684 0.0
C330 C 1.00308 0.30245 0.3091 0.0
C331 C 1.00128 0.3108 0.35842 0.0
C332 C 0.9971 0.29967 0.4013 0.0
C333 C 0.99545 0.28049 0.39654 0.0
C334 C 0.99819 0.27204 0.34836 0.0
C335 C 1.00117 0.28277 0.30491 0.0
C336 C 1.00205 0.2705 0.2569 0.0
C337 C 1.0005 0.2508 0.28002 0.0
C338 C 0.99863 0.25224 0.33383 0.0
C339 C 0.02214 0.27313 0.22967 0.0
C340 C 0.98398 0.27571 0.22264 0.0
H341 H 0.00594 0.17665 0.35155 0.0
H342 H 0.0047 0.21318 0.51441 0.0
H343 H 0.96816 0.22888 0.44677 0.0
H344 H 0.97086 0.25182 0.42425 0.0
H345 H 0.98005 0.2454 0.48763 0.0
H346 H 0.03096 0.23506 0.4481 0.0
H347 H 0.01455 0.2482 0.48957 0.0
H348 H 0.02214 0.25705 0.42777 0.0
H349 H 1.00241 0.17976 0.16453 0.0
H350 H 0.00397 0.22974 0.07147 0.0
H351 H 1.00336 0.24911 0.14955 0.0
H352 H 0.03424 0.19214 0.23935 0.0
H353 H 0.02081 0.17225 0.26076 0.0
H354 H 0.02918 0.18986 0.30515 0.0
H355 H 0.97051 0.19374 0.24806 0.0
H356 H 0.97959 0.1854 0.3078 0.0
H357 H 0.98566 0.17263 0.24995 0.0
H358 H 0.012 0.16091 0.43258 0.0
C359 C 0.0058 0.1851 0.38564 0.0
C360 C 0.29679 0.09076 0.14637 0.0
C361 C 0.31736 0.09314 0.13514 0.0
C362 C 0.32946 0.10079 0.17347 0.0
C363 C 0.30163 0.10382 0.23201 0.0
C364 C 0.28917 0.09635 0.19549 0.0
C365 C 0.26801 0.09511 0.21699 0.0
H366 H 0.21112 0.09845 0.43969 0.0
C367 C 0.2904 0.1071 0.28004 0.0
C368 C 0.27063 0.10154 0.27314 0.0
H369 H 0.18938 0.08383 0.28922 0.0
H370 H 0.22184 0.09132 0.25142 0.0
H371 H 0.24819 0.07653 0.43398 0.0
H372 H 0.23769 0.1353 0.40438 0.0
H373 H 0.25771 0.13229 0.4481 0.0
H374 H 0.23377 0.12381 0.46507 0.0
H375 H 0.24869 0.09331 0.4851 0.0
H376 H 0.27077 0.08707 0.44851 0.0
C377 C 0.26125 0.07474 0.21327 0.0
C378 C 0.25429 0.10891 0.18702 0.0
C379 C 0.32865 0.13133 0.43213 0.0
C380 C 0.32773 0.12527 0.48353 0.0
C381 C 0.30907 0.11988 0.50291 0.0
C382 C 0.29283 0.1178 0.46955 0.0
C383 C 0.29563 0.12005 0.41618 0.0
C384 C 0.3136 0.12625 0.3985 0.0
C385 C 0.31711 0.12106 0.34329 0.0
C386 C 0.29698 0.11373 0.32838 0.0
C387 C 0.28443 0.11336 0.371 0.0
C388 C 0.33346 0.10507 0.34261 0.0
C389 C 0.32237 0.13906 0.31337 0.0
C390 C 0.21316 0.09698 0.39845 0.0
C391 C 0.19784 0.09033 0.36772 0.0
C392 C 0.20109 0.08878 0.31397 0.0
C393 C 0.21995 0.09282 0.2923 0.0
C394 C 0.23564 0.09823 0.32486 0.0
C395 C 0.23162 0.10069 0.37684 0.0
C396 C 0.2493 0.10618 0.40734 0.0
C397 C 0.26464 0.10757 0.36532 0.0
C398 C 0.25719 0.10234 0.31652 0.0
C399 C 0.25454 0.09009 0.44601 0.0
C400 C 0.24448 0.12537 0.43289 0.0
H401 H 0.33217 0.11207 0.24708 0.0
H402 H 0.28703 0.08485 0.11783 0.0
H403 H 0.26055 0.12318 0.18716 0.0
H404 H 0.23931 0.11011 0.2043 0.0
H405 H 0.25271 0.10441 0.14629 0.0
H406 H 0.27253 0.06505 0.23104 0.0
H407 H 0.25927 0.07063 0.17235 0.0
H408 H 0.24706 0.07263 0.23347 0.0
H409 H 0.34235 0.13633 0.41595 0.0
H410 H 0.30739 0.11543 0.54248 0.0
H411 H 0.27933 0.11292 0.48615 0.0
H412 H 0.33449 0.09745 0.38003 0.0
H413 H 0.34841 0.11063 0.33454 0.0
H414 H 0.33023 0.09386 0.31464 0.0
H415 H 0.31369 0.15139 0.32817 0.0
H416 H 0.31861 0.1384 0.27197 0.0
H417 H 0.33842 0.14208 0.31754 0.0
H418 H 0.34526 0.10241 0.16708 0.0
C419 C 0.32179 0.10621 0.22088 0.0
C420 C 0.51314 0.28828 0.1289 0.0
C421 C 0.51079 0.30781 0.1197 0.0
C422 C 0.50498 0.31965 0.16042 0.0
C423 C 0.5062 0.29362 0.21967 0.0
C424 C 0.51066 0.28143 0.17981 0.0
C425 C 0.51183 0.26127 0.19931 0.0
H426 H 0.51527 0.20492 0.41567 0.0
C427 C 0.50587 0.28309 0.26825 0.0
C428 C 0.50876 0.26388 0.25741 0.0
H429 H 0.51382 0.18485 0.25943 0.0
H430 H 0.51292 0.21736 0.22733 0.0
H431 H 0.54363 0.23575 0.40378 0.0
H432 H 0.48069 0.23226 0.40108 0.0
H433 H 0.48467 0.25371 0.43166 0.0
H434 H 0.49531 0.23239 0.45892 0.0
H435 H 0.52929 0.23846 0.4613 0.0
H436 H 0.53641 0.25835 0.42314 0.0
C437 C 0.53253 0.25263 0.18709 0.0
C438 C 0.49473 0.25048 0.17455 0.0
C439 C 0.51454 0.31866 0.43374 0.0
C440 C 0.51979 0.31222 0.48324 0.0
C441 C 0.51632 0.29369 0.49739 0.0
C442 C 0.50993 0.28106 0.46044 0.0
C443 C 0.50745 0.28709 0.40904 0.0
C444 C 0.5086 0.3058 0.39696 0.0
C445 C 0.50599 0.30955 0.34028 0.0
C446 C 0.50525 0.28963 0.31978 0.0
C447 C 0.5061 0.27678 0.36028 0.0
C448 C 0.52456 0.32009 0.32122 0.0
C449 C 0.48586 0.32041 0.33238 0.0
C450 C 0.51507 0.20745 0.37442 0.0
C451 C 0.51485 0.19257 0.3401 0.0
C452 C 0.51419 0.19632 0.28661 0.0
C453 C 0.51342 0.21508 0.26821 0.0
C454 C 0.51277 0.22996 0.30391 0.0
C455 C 0.51356 0.22567 0.35596 0.0
C456 C 0.51137 0.24226 0.38986 0.0
C457 C 0.50878 0.25753 0.35027 0.0
C458 C 0.50995 0.25075 0.29939 0.0
C459 C 0.53102 0.24385 0.42145 0.0
C460 C 0.49214 0.24011 0.42251 0.0
H461 H 0.49824 0.32257 0.23893 0.0
H462 H 0.51703 0.2788 0.09779 0.0
H463 H 0.48051 0.25877 0.17706 0.0
H464 H 0.49213 0.23706 0.19411 0.0
H465 H 0.49784 0.24769 0.1332 0.0
H466 H 0.5444 0.26164 0.20247 0.0
H467 H 0.53466 0.25127 0.14481 0.0
H468 H 0.5347 0.23861 0.20455 0.0
H469 H 0.5162 0.33322 0.4231 0.0
H470 H 0.51953 0.28879 0.53614 0.0
H471 H 0.50837 0.2669 0.47302 0.0
H472 H 0.53832 0.31445 0.34023 0.0
H473 H 0.52321 0.33527 0.33028 0.0
H474 H 0.52749 0.31864 0.27974 0.0
H475 H 0.47557 0.31847 0.3654 0.0
H476 H 0.47755 0.31531 0.29848 0.0
H477 H 0.48805 0.3357 0.32815 0.0
H478 H 0.5026 0.33456 0.15398 0.0
C479 C 0.50244 0.31266 0.20982 0.0
O480 O 0.00651 0.02972 0.76702 0.0
Mn481 Mn 0.00362 0.00443 0.72634 0.0
O482 O 0.9756 0.04155 0.77841 0.0
Mn483 Mn 0.96341 0.02293 0.74064 0.0
O484 O 1.00054 0.97894 0.68487 0.0
O485 O 0.03265 0.00879 0.69961 0.0
Mn486 Mn 0.04302 0.98593 0.71264 0.0
O487 O 0.01306 0.9908 0.79238 0.0
O488 O 0.0316 0.9682 0.6713 0.0
O489 O 0.99378 0.01814 0.66028 0.0
O490 O 0.96177 0.02603 0.67035 0.0
O491 O 0.06363 -0.00244 0.68547 0.0
O492 O 0.04448 0.9813 0.78232 0.0
C493 C 0.95744 -0.00294 0.77438 0.0
C494 C 0.99433 0.04222 0.78516 0.0
C495 C 0.01297 0.96714 0.66424 0.0
C496 C 0.05093 0.01152 0.6828 0.0
C497 C 0.02923 0.98363 0.81039 0.0
C498 C 0.97711 0.02429 0.64223 0.0
O499 O 0.975 0.00073 0.75493 0.0
O500 O 0.94384 0.01021 0.77111 0.0
O501 O 0.52318 0.0011 0.79058 0.0
Mn502 Mn 0.50323 0.0031 0.72907 0.0
O503 O 0.54574 0.02332 0.78242 0.0
Mn504 Mn 0.53933 0.02751 0.7145 0.0
O505 O 0.48338 0.00559 0.66716 0.0
O506 O 0.49335 0.97732 0.75285 0.0
Mn507 Mn 0.46812 0.97839 0.73304 0.0
O508 O 0.48149 0.01656 0.77681 0.0
O509 O 0.46777 0.97891 0.66265 0.0
O510 O 0.5246 0.98934 0.68025 0.0
O511 O 0.549 0.00988 0.66777 0.0
O512 O 0.47041 0.95567 0.76272 0.0
O513 O 0.45509 -0.00192 0.76763 0.0
C514 C 0.51609 0.04588 0.69138 0.0
C515 C 0.53833 0.00989 0.80728 0.0
C516 C 0.47172 0.99459 0.64357 0.0
C517 C 0.48859 0.9607 0.76974 0.0
C518 C 0.46299 0.01291 0.78485 0.0
C519 C 0.54116 0.99414 0.65917 0.0
O520 O 0.51312 0.02886 0.70756 0.0
O521 O 0.53434 0.05127 0.69255 0.0
O522 O 0.5017 0.51375 0.79861 0.0
Mn523 Mn 0.5064 0.50192 0.72782 0.0
O524 O 0.47012 0.52394 0.80143 0.0
Mn525 Mn 0.46701 0.52243 0.73101 0.0
O526 O 0.51081 0.49088 0.65804 0.0
O527 O 0.53627 0.50216 0.74268 0.0
Mn528 Mn 0.54701 0.48014 0.72538 0.0
O529 O 0.50472 0.47514 0.76336 0.0
O530 O 0.53902 0.47365 0.65908 0.0
O531 O 0.50898 0.52822 0.69233 0.0
O532 O 0.47827 0.54125 0.69185 0.0
O533 O 0.56766 0.49645 0.73585 0.0
O534 O 0.5365 0.46501 0.7765 0.0
C535 C 0.45782 0.4981 0.69292 0.0
C536 C 0.48695 0.52107 0.82277 0.0
C537 C 0.52299 0.47948 0.63736 0.0
C538 C 0.55402 0.50879 0.74748 0.0
C539 C 0.51777 0.46374 0.784 0.0
C540 C 0.49658 0.54142 0.67953 0.0
O541 O 0.47633 0.50045 0.70807 0.0
O542 O 0.44524 0.51139 0.70533 0.0
O543 O 0.02753 0.489 0.77313 0.0
Mn544 Mn 0.00566 0.50316 0.72645 0.0
O545 O 0.05353 0.50809 0.77591 0.0
Mn546 Mn 0.042 0.52694 0.73531 0.0
O547 O 0.98337 0.51693 0.67936 0.0
O548 O 0.99495 0.47748 0.70838 0.0
Mn549 Mn 0.96881 0.47875 0.71703 0.0
O550 O 0.98706 0.50534 0.78926 0.0
O551 O 0.95915 0.49598 0.6688 0.0
O552 O 0.02432 0.50115 0.66189 0.0
O553 O 0.04542 0.52469 0.6658 0.0
O554 O 0.97411 0.45467 0.697 0.0
O555 O 0.96295 0.48444 0.78466 0.0
C556 C 0.02065 0.54574 0.7643 0.0
C557 C 0.04533 0.49281 0.78798 0.0
C558 C 0.96667 0.51183 0.65924 0.0
C559 C 0.99221 0.46032 0.6936 0.0
C560 C 0.97152 0.49772 0.80748 0.0
C561 C 0.03791 0.5112 0.64175 0.0
O562 O 0.01618 0.52894 0.74828 0.0
O563 O 0.03911 0.55033 0.76067 0.0
C564 C 0.16075 0.09127 0.38768 0.0
C565 C 0.1799 0.08327 0.39475 0.0
C566 C 0.14492 0.08626 0.42024 0.0
C567 C 0.13208 0.05036 0.52276 0.0
H568 H 0.08709 0.08418 0.54837 0.0
C569 C 0.07739 0.03467 0.68304 0.0
C570 C 0.05881 0.02942 0.66339 0.0
C571 C 0.09041 0.04515 0.65335 0.0
C572 C 0.09962 0.07464 0.54154 0.0
H573 H 0.1974 0.06379 0.44129 0.0
H574 H 0.17079 0.05577 0.49844 0.0
H575 H 0.11359 0.09368 0.48979 0.0
H576 H 0.03872 0.03269 0.59887 0.0
H577 H 0.06108 0.0521 0.54768 0.0
H578 H 0.11853 0.03179 0.57639 0.0
C579 C 0.16723 0.0653 0.46716 0.0
C580 C 0.1148 0.07996 0.50747 0.0
C581 C 0.18276 0.07003 0.43435 0.0
C582 C 0.0526 0.0369 0.61569 0.0
C583 C 0.06558 0.04779 0.5861 0.0
C584 C 0.1173 0.04535 0.55767 0.0
C585 C 0.14791 0.07325 0.46101 0.0
C586 C 0.13135 0.06786 0.49722 0.0
C587 C 0.08506 0.05104 0.60348 0.0
C588 C 0.10083 0.05732 0.56732 0.0
H589 H 0.15817 0.10182 0.35818 0.0
H590 H 0.1304 0.09269 0.41335 0.0
H591 H 0.1439 0.04014 0.51546 0.0
H592 H 0.08278 0.02888 0.71928 0.0
H593 H 0.10528 0.04745 0.66788 0.0
C594 C 0.49392 0.16918 0.38224 0.0
C595 C 0.51271 0.17382 0.36332 0.0
C596 C 0.49203 0.15519 0.41949 0.0
C597 C 0.51705 0.1138 0.4775 0.0
H598 H 0.48012 0.12331 0.58991 0.0
C599 C 0.49766 0.05421 0.61277 0.0
C600 C 0.5015 0.05813 0.6647 0.0
C601 C 0.49548 0.06888 0.57708 0.0
C602 C 0.49043 0.12043 0.5587 0.0
H603 H 0.54431 0.1676 0.36878 0.0
H604 H 0.54102 0.14233 0.43232 0.0
H605 H 0.48581 0.14779 0.52579 0.0
H606 H 0.50309 0.0802 0.72135 0.0
H607 H 0.49839 0.10577 0.65969 0.0
H608 H 0.52191 0.08659 0.51069 0.0
C609 C 0.52769 0.14948 0.41805 0.0
C610 C 0.49364 0.13441 0.52183 0.0
C611 C 0.52959 0.16371 0.38109 0.0
C612 C 0.49987 0.07681 0.68157 0.0
C613 C 0.49752 0.09149 0.64602 0.0
C614 C 0.51371 0.0998 0.51404 0.0
C615 C 0.50891 0.14541 0.43869 0.0
C616 C 0.50671 0.13112 0.4802 0.0
C617 C 0.49679 0.08765 0.59298 0.0
C618 C 0.50006 0.10278 0.55447 0.0
H619 H 0.48079 0.17731 0.37074 0.0
H620 H 0.47734 0.1523 0.43408 0.0
H621 H 0.52732 0.11084 0.44628 0.0
H622 H 0.49914 0.03998 0.59859 0.0
H623 H 0.4944 0.06549 0.53653 0.0
C624 C 0.33422 0.43718 0.40333 0.0
C625 C 0.32867 0.4184 0.40606 0.0
C626 C 0.35059 0.44345 0.43179 0.0
C627 C 0.39534 0.42818 0.51084 0.0
H628 H 0.38652 0.47696 0.57309 0.0
C629 C 0.44702 0.46549 0.66667 0.0
C630 C 0.45078 0.4843 0.65409 0.0
C631 C 0.43393 0.45488 0.63612 0.0
C632 C 0.3893 0.46332 0.55593 0.0
H633 H 0.33685 0.39122 0.4381 0.0
H634 H 0.36536 0.40203 0.4871 0.0
H635 H 0.36084 0.46391 0.51875 0.0
H636 H 0.44399 0.50633 0.59891 0.0
H637 H 0.42139 0.48822 0.54694 0.0
H638 H 0.42388 0.42774 0.54918 0.0
C639 C 0.35719 0.41202 0.46317 0.0
C640 C 0.37458 0.45587 0.52424 0.0
C641 C 0.34085 0.40577 0.43474 0.0
C642 C 0.44187 0.4918 0.60918 0.0
C643 C 0.42861 0.48148 0.5797 0.0
C644 C 0.41011 0.43565 0.54304 0.0
C645 C 0.36187 0.43112 0.46384 0.0
C646 C 0.37752 0.43841 0.49985 0.0
C647 C 0.42388 0.4631 0.59348 0.0
C648 C 0.40749 0.45359 0.56485 0.0
H649 H 0.32505 0.44731 0.38231 0.0
H650 H 0.35395 0.45818 0.43007 0.0
H651 H 0.39818 0.41463 0.49327 0.0
H652 H 0.45314 0.45941 0.70171 0.0
H653 H 0.43068 0.44071 0.64778 0.0
C654 C 0.98746 0.34187 0.38313 0.0
C655 C 0.0042 0.3308 0.36947 0.0
C656 C 0.98936 0.35717 0.4162 0.0
C657 C 0.02336 0.37443 0.51797 0.0
H658 H 0.98924 0.41891 0.50954 0.0
C659 C 0.01081 0.43036 0.68049 0.0
C660 C 0.0064 0.44876 0.66386 0.0
C661 C 0.0149 0.41611 0.64454 0.0
C662 C 0.99915 0.40672 0.51213 0.0
H663 H 0.03613 0.32757 0.37751 0.0
H664 H 0.03971 0.35495 0.43283 0.0
H665 H 0.98691 0.395 0.44384 0.0
H666 H 1.00316 0.46665 0.59745 0.0
H667 H 0.01233 0.44259 0.53516 0.0
H668 H 0.03562 0.38645 0.58655 0.0
C669 C 0.02502 0.35159 0.41906 0.0
C670 C 0.99758 0.39282 0.47472 0.0
C671 C 0.02308 0.33623 0.38609 0.0
C672 C 0.00807 0.45302 0.6115 0.0
C673 C 0.01243 0.43895 0.5757 0.0
C674 C 0.02496 0.38843 0.55554 0.0
C675 C 0.00809 0.36179 0.43628 0.0
C676 C 0.00981 0.37657 0.47662 0.0
C677 C 0.01449 0.42014 0.59143 0.0
C678 C 0.01311 0.40491 0.55246 0.0
H679 H 0.97269 0.33755 0.37242 0.0
H680 H 0.97594 0.36451 0.42882 0.0
H681 H 0.03263 0.36185 0.52163 0.0
H682 H 0.00892 0.4266 0.72062 0.0
H683 H 0.01643 0.40178 0.65806 0.0
C684 C 0.82294 0.93559 0.01047 0.0
C685 C 0.82512 0.92336 0.05276 0.0
C686 C 0.8395 0.94136 0.98246 0.0
C687 C 0.89537 0.94279 0.98364 0.0
H688 H 0.88722 0.95057 0.83736 0.0
C689 C 0.95317 0.9811 0.85803 0.0
C690 C 0.95225 0.98014 0.80408 0.0
C691 C 0.94012 0.97092 0.88894 0.0
C692 C 0.89015 0.94817 0.87785 0.0
H693 H 0.84654 0.90771 0.09905 0.0
H694 H 0.87569 0.91782 0.05048 0.0
H695 H 0.86013 0.93995 0.88991 0.0
H696 H 0.93745 0.96691 0.7404 0.0
H697 H 0.91586 0.94802 0.79355 0.0
H698 H 0.92564 0.9501 0.97133 0.0
C699 C 0.86113 0.92325 0.03924 0.0
C700 C 0.87425 0.94241 0.90857 0.0
C701 C 0.84443 0.91752 0.0675 0.0
C702 C 0.93905 0.96752 0.78191 0.0
C703 C 0.92614 0.9571 0.81274 0.0
C704 C 0.91141 0.94826 0.95275 0.0
C705 C 0.85889 0.93491 0.99535 0.0
C706 C 0.87641 0.94001 0.96225 0.0
C707 C 0.92563 0.95939 0.86684 0.0
C708 C 0.90907 0.95145 0.89929 0.0
H709 H 0.80821 0.94008 0.99763 0.0
H710 H 0.83697 0.95067 0.95 0.0
H711 H 0.89781 0.94117 0.02465 0.0
H712 H 0.96247 0.99132 0.87632 0.0
H713 H 0.94043 0.97347 0.92996 0.0
C714 C 0.4813 0.8475 0.10217 0.0
C715 C 0.49508 0.83245 0.10485 0.0
C716 C 0.48391 0.862 0.06643 0.0
C717 C 0.51032 0.87197 0.94312 0.0
H718 H 0.49412 0.92298 0.97516 0.0
C719 C 0.50379 0.92957 0.78626 0.0
C720 C 0.50136 0.94834 0.80147 0.0
C721 C 0.5071 0.91543 0.82292 0.0
C722 C 0.49934 0.909 0.96535 0.0
H723 H 0.52224 0.82056 0.07247 0.0
H724 H 0.52726 0.846 0.01167 0.0
H725 H 0.49138 0.89911 0.04002 0.0
H726 H 0.501 0.96704 0.86654 0.0
H727 H 0.51056 0.94321 0.92915 0.0
H728 H 0.51928 0.88189 0.86939 0.0
C729 C 0.51436 0.84675 0.03662 0.0
C730 C 0.49722 0.89509 0.00268 0.0
C731 C 0.51178 0.8324 0.07236 0.0
C732 C 0.50414 0.9529 0.85324 0.0
C733 C 0.50859 0.93893 0.88959 0.0
C734 C 0.51292 0.88598 0.90604 0.0
C735 C 0.50028 0.86159 0.03237 0.0
C736 C 0.5026 0.87637 0.99218 0.0
C737 C 0.50853 0.91981 0.87577 0.0
C738 C 0.5074 0.90481 0.91638 0.0
H739 H 0.46792 0.84747 0.1254 0.0
H740 H 0.47259 0.87304 0.06387 0.0
H741 H 0.51425 0.85763 0.93305 0.0
H742 H 0.50095 0.92562 0.74667 0.0
H743 H 0.50681 0.90109 0.80972 0.0
C744 C 0.66512 0.57014 0.07103 0.0
C745 C 0.67745 0.58482 0.05584 0.0
C746 C 0.64876 0.56502 0.04032 0.0
C747 C 0.63326 0.56474 0.90433 0.0
H748 H 0.58053 0.55392 0.95425 0.0
C749 C 0.57313 0.5379 0.76306 0.0
C750 C 0.56004 0.52437 0.78155 0.0
C751 C 0.58516 0.54803 0.7971 0.0
C752 C 0.59522 0.5566 0.93944 0.0
H753 H 0.68037 0.60691 0.99862 0.0
H754 H 0.65292 0.59735 0.94468 0.0
H755 H 0.60557 0.56549 0.01385 0.0
H756 H 0.55025 0.51037 0.85036 0.0
H757 H 0.5706 0.52796 0.90955 0.0
H758 H 0.62353 0.55515 0.83069 0.0
C759 C 0.65604 0.5896 0.97984 0.0
C760 C 0.60959 0.56333 0.97387 0.0
C761 C 0.67196 0.59499 0.01093 0.0
C762 C 0.55919 0.52148 0.835 0.0
C763 C 0.57119 0.53151 0.86906 0.0
C764 C 0.61905 0.5577 0.87012 0.0
C765 C 0.64449 0.57425 0.99329 0.0
C766 C 0.62885 0.56743 0.95686 0.0
C767 C 0.58489 0.5446 0.85077 0.0
C768 C 0.59973 0.55337 0.88696 0.0
H769 H 0.66865 0.562 0.10522 0.0
H770 H 0.64007 0.5532 0.05209 0.0
H771 H 0.64798 0.56758 0.88986 0.0
H772 H 0.57498 0.53983 0.72195 0.0
H773 H 0.59519 0.55808 0.78092 0.0
C774 C 0.98592 0.66595 0.0838 0.0
C775 C 0.00427 0.67424 0.09317 0.0
C776 C 0.9846 0.6509 0.04955 0.0
C777 C 0.01196 0.63117 0.93695 0.0
H778 H 0.97343 0.59186 0.94605 0.0
C779 C 0.00435 0.57694 0.77473 0.0
C780 C 0.00739 0.55855 0.79324 0.0
C781 C 0.99958 0.59162 0.8087 0.0
C782 C 0.98415 0.60286 0.94283 0.0
H783 H 0.03583 0.67239 0.07726 0.0
H784 H 0.03382 0.6454 0.02003 0.0
H785 H 0.97602 0.61447 0.01597 0.0
H786 H 0.00816 0.54128 0.86165 0.0
H787 H 0.99805 0.56636 0.92015 0.0
H788 H 0.02054 0.61908 0.86453 0.0
C789 C 0.02029 0.65083 0.03779 0.0
C790 C 0.98564 0.61586 0.98287 0.0
C791 C 0.02157 0.66594 0.07186 0.0
C792 C 0.00466 0.55504 0.84583 0.0
C793 C 0.99917 0.56951 0.87944 0.0
C794 C 0.01044 0.61819 0.89688 0.0
C795 C 1.00165 0.64374 0.02409 0.0
C796 C 0.99983 0.62999 0.98103 0.0
C797 C 0.99757 0.58811 0.86176 0.0
C798 C 0.99677 0.60366 0.89984 0.0
H799 H 0.9723 0.67246 0.09827 0.0
H800 H 0.96997 0.64594 0.03996 0.0
H801 H 0.02272 0.64212 0.93335 0.0
H802 H 0.00742 0.58021 0.73478 0.0
H803 H 0.99857 0.60583 0.79395 0.0
C804 C 0.99655 0.1717 0.55773 0.0
C805 C 0.01292 0.176 0.52714 0.0
C806 C 0.99702 0.15517 0.58624 0.0
C807 C 0.01626 0.11258 0.53739 0.0
H808 H 0.97958 0.09111 0.63432 0.0
C809 C 0.9954 0.03618 0.56716 0.0
C810 C 0.97719 0.03453 0.59299 0.0
C811 C 1.00051 0.05357 0.54756 0.0
C812 C 0.98963 0.09711 0.60656 0.0
H813 H 0.04389 0.16956 0.51079 0.0
H814 H 0.04489 0.14082 0.56165 0.0
H815 H 0.99261 0.12206 0.65113 0.0
H816 H 0.94737 0.0467 0.60065 0.0
H817 H 0.9561 0.07684 0.56529 0.0
H818 H 0.01298 0.0877 0.4925 0.0
C819 C 0.03157 0.14972 0.56279 0.0
C820 C 0.99739 0.11457 0.61686 0.0
C821 C 0.03103 0.1661 0.53369 0.0
C822 C 0.96201 0.04806 0.58389 0.0
C823 C 0.96701 0.06538 0.56388 0.0
C824 C 0.00856 0.09508 0.52726 0.0
C825 C 0.0138 0.14299 0.58321 0.0
C826 C 0.01032 0.12273 0.58159 0.0
C827 C 0.98697 0.06876 0.55221 0.0
C828 C 0.9947 0.08752 0.56089 0.0
H829 H 0.98255 0.17944 0.55346 0.0
H830 H 0.98319 0.15057 0.60279 0.0
H831 H 0.02587 0.11862 0.5087 0.0
H832 H 0.00686 0.0253 0.57042 0.0
H833 H 0.01584 0.0557 0.53671 0.0
C834 C 0.36267 0.1124 0.47868 0.0
C835 C 0.34655 0.11883 0.50941 0.0
C836 C 0.378 0.10153 0.49949 0.0
C837 C 0.38222 0.06439 0.58679 0.0
H838 H 0.43818 0.06489 0.551 0.0
C839 C 0.43717 0.00548 0.64238 0.0
C840 C 0.45534 0.00378 0.61604 0.0
C841 C 0.42312 0.01901 0.62786 0.0
C842 C 0.42251 0.06432 0.56022 0.0
H843 H 0.33563 0.12034 0.58815 0.0
H844 H 0.36227 0.10014 0.62397 0.0
H845 H 0.41765 0.09309 0.53968 0.0
H846 H 0.47237 0.01297 0.5507 0.0
H847 H 0.44662 0.03546 0.52103 0.0
H848 H 0.38649 0.03537 0.60384 0.0
C849 C 0.36267 0.10392 0.58355 0.0
C850 C 0.41093 0.08064 0.55503 0.0
C851 C 0.34739 0.11534 0.56285 0.0
C852 C 0.4584 0.0142 0.57134 0.0
C853 C 0.44383 0.02724 0.55521 0.0
C854 C 0.39369 0.04793 0.591 0.0
C855 C 0.3776 0.0964 0.55133 0.0
C856 C 0.39068 0.08074 0.56783 0.0
C857 C 0.42667 0.03065 0.58545 0.0
C858 C 0.41397 0.04767 0.57745 0.0
H859 H 0.36287 0.11398 0.4373 0.0
H860 H 0.38917 0.09563 0.47367 0.0
H861 H 0.36647 0.06405 0.59553 0.0
H862 H 0.43464 -0.00233 0.67751 0.0
H863 H 0.41036 0.02124 0.65268 0.0
C864 C 0.54414 0.33654 0.50096 0.0
C865 C 0.52899 0.3251 0.51908 0.0
C866 C 0.54671 0.35391 0.52336 0.0
C867 C 0.52448 0.38931 0.60737 0.0
H868 H 0.5031 0.40911 0.47806 0.0
C869 C 0.49638 0.45865 0.61646 0.0
C870 C 0.5138 0.46742 0.60025 0.0
C871 C 0.49092 0.44205 0.59389 0.0
C872 C 0.50868 0.40352 0.51431 0.0
H873 H 0.50829 0.32019 0.58114 0.0
H874 H 0.51267 0.35076 0.62012 0.0
H875 H 0.51842 0.3777 0.48075 0.0
H876 H 0.53695 0.46828 0.54288 0.0
H877 H 0.5272 0.43907 0.50229 0.0
H878 H 0.51501 0.41526 0.64076 0.0
C879 C 0.52234 0.34653 0.58862 0.0
C880 C 0.5179 0.38593 0.51579 0.0
C881 C 0.51968 0.32913 0.56609 0.0
C882 C 0.52369 0.46143 0.55594 0.0
C883 C 0.51786 0.44496 0.53247 0.0
C884 C 0.51523 0.40691 0.60592 0.0
C885 C 0.53389 0.35969 0.56306 0.0
C886 C 0.52623 0.37895 0.56205 0.0
C887 C 0.50322 0.43416 0.556 0.0
C888 C 0.50757 0.41416 0.55915 0.0
H889 H 0.55189 0.33324 0.46539 0.0
H890 H 0.556 0.3639 0.50397 0.0
H891 H 0.53045 0.38388 0.6434 0.0
H892 H 0.48879 0.463 0.65139 0.0
H893 H 0.47958 0.43387 0.61236 0.0
C894 C 0.1687 0.4085 0.57264 0.0
C895 C 0.16251 0.39403 0.54003 0.0
C896 C 0.15456 0.41963 0.59814 0.0
C897 C 0.10049 0.43094 0.60611 0.0
H898 H 0.11607 0.47529 0.53079 0.0
C899 C 0.04312 0.4875 0.57313 0.0
C900 C 0.04943 0.50367 0.59792 0.0
C901 C 0.05716 0.47412 0.55667 0.0
C902 C 0.11151 0.46305 0.55201 0.0
H903 H 0.13773 0.37657 0.52047 0.0
H904 H 0.11297 0.3965 0.56299 0.0
H905 H 0.14041 0.45025 0.54707 0.0
H906 H 0.07477 0.52154 0.60956 0.0
H907 H 0.09913 0.49851 0.58106 0.0
H908 H 0.07154 0.44387 0.61119 0.0
C909 C 0.12855 0.39955 0.56821 0.0
C910 C 0.12551 0.44883 0.56219 0.0
C911 C 0.14274 0.38821 0.54336 0.0
C912 C 0.06946 0.50865 0.59313 0.0
C913 C 0.08354 0.49537 0.57671 0.0
C914 C 0.08648 0.44527 0.59631 0.0
C915 C 0.13426 0.41647 0.59049 0.0
C916 C 0.12012 0.4326 0.58907 0.0
C917 C 0.07752 0.4773 0.56369 0.0
C918 C 0.09184 0.46139 0.56873 0.0
H919 H 0.18389 0.41316 0.57235 0.0
H920 H 0.1593 0.43231 0.61692 0.0
H921 H 0.09595 0.41849 0.62643 0.0
H922 H 0.02759 0.48424 0.57244 0.0
H923 H 0.05214 0.46061 0.54385 0.0
C924 C 0.0148 0.8354 0.91053 0.0
C925 C 0.99654 0.82991 0.93043 0.0
C926 C 0.0154 0.85094 0.87829 0.0
C927 C 0.98909 0.89292 0.89866 0.0
H928 H 0.03145 0.91313 0.81642 0.0
C929 C 0.00916 0.9702 0.87959 0.0
C930 C 0.02812 0.97279 0.85845 0.0
C931 C 0.00375 0.95224 0.89375 0.0
C932 C 0.01975 0.90757 0.84019 0.0
H933 H 0.96455 0.83355 0.92655 0.0
H934 H 0.96553 0.86085 0.86971 0.0
H935 H 0.02167 0.8809 0.80276 0.0
H936 H 0.05836 0.96139 0.85573 0.0
H937 H 0.04928 0.93031 0.88368 0.0
H938 H 0.98783 0.91919 0.93793 0.0
C939 C 0.97933 0.85337 0.87896 0.0
C940 C 0.01385 0.88933 0.83132 0.0
C941 C 0.97874 0.83788 0.91153 0.0
C942 C 0.04324 0.95932 0.86854 0.0
C943 C 0.03798 0.94144 0.88371 0.0
C944 C 0.99507 0.9111 0.90772 0.0
C945 C 0.99773 0.86115 0.86699 0.0
C946 C 0.99906 0.88159 0.86204 0.0
C947 C 0.01777 0.9374 0.88972 0.0
C948 C 0.01102 0.91829 0.8801 0.0
H949 H 0.02864 0.82921 0.9249 0.0
H950 H 0.02983 0.85651 0.8693 0.0
H951 H 0.9778 0.88728 0.92357 0.0
H952 H 0.99753 0.98089 0.87555 0.0
H953 H 0.98814 0.94971 0.90038 0.0
C954 C 0.64657 0.88803 0.92128 0.0
C955 C 0.66648 0.89254 0.93035 0.0
C956 C 0.63421 0.90031 0.8932 0.0
C957 C 0.63016 0.9491 0.89881 0.0
H958 H 0.58313 0.94453 0.8138 0.0
C959 C 0.57046 0.00717 0.85513 0.0
C960 C 0.55112 0.00069 0.84661 0.0
C961 C 0.58578 0.99451 0.86867 0.0
C962 C 0.59615 0.94586 0.83809 0.0
H963 H 0.6899 0.9116 0.90949 0.0
H964 H 0.66829 0.93283 0.86088 0.0
H965 H 0.60908 0.91982 0.81171 0.0
H966 H 0.53199 0.97737 0.8575 0.0
H967 H 0.55837 0.95529 0.88185 0.0
H968 H 0.61691 0.97471 0.92687 0.0
C969 C 0.66223 0.92 0.87583 0.0
C970 C 0.61103 0.93191 0.83618 0.0
C971 C 0.6746 0.90771 0.90358 0.0
C972 C 0.54672 0.9825 0.86223 0.0
C973 C 0.56192 0.96983 0.8755 0.0
C974 C 0.61523 0.96297 0.90098 0.0
C975 C 0.64171 0.91715 0.87431 0.0
C976 C 0.62795 0.93329 0.86724 0.0
C977 C 0.58172 0.97545 0.87448 0.0
C978 C 0.5979 0.9612 0.87166 0.0
H979 H 0.64007 0.87623 0.94068 0.0
H980 H 0.61839 0.89779 0.89205 0.0
H981 H 0.64294 0.95023 0.924 0.0
H982 H 0.57429 0.02135 0.84496 0.0
H983 H 0.60095 -0.00073 0.86902 0.0
C984 C 0.5059 0.67521 0.90823 0.0
C985 C 0.48784 0.68318 0.92521 0.0
C986 C 0.50601 0.658 0.88321 0.0
C987 C 0.48101 0.6197 0.92305 0.0
H988 H 0.50969 0.59013 0.82117 0.0
C989 C 0.47562 0.54133 0.89425 0.0
C990 C 0.49143 0.53256 0.86775 0.0
C991 C 0.47736 0.55983 0.90998 0.0
C992 C 0.50201 0.59833 0.85046 0.0
H993 H 0.45576 0.68154 0.92394 0.0
H994 H 0.45594 0.65115 0.88088 0.0
H995 H 0.50574 0.62408 0.80905 0.0
H996 H 0.52275 0.53412 0.84954 0.0
H997 H 0.52597 0.56599 0.8778 0.0
H998 H 0.47783 0.59434 0.96554 0.0
C999 C 0.46989 0.65818 0.88599 0.0
C1000 C 0.49942 0.61756 0.84279 0.0
C1001 C 0.46979 0.67541 0.91082 0.0
C1002 C 0.51027 0.54062 0.86908 0.0
C1003 C 0.51201 0.5591 0.88429 0.0
C1004 C 0.48384 0.60062 0.93109 0.0
C1005 C 0.48807 0.64871 0.87652 0.0
C1006 C 0.48873 0.62827 0.87892 0.0
C1007 C 0.49502 0.56929 0.89995 0.0
C1008 C 0.4943 0.58977 0.89491 0.0
H1009 H 0.51992 0.68121 0.91931 0.0
H1010 H 0.52016 0.65084 0.87614 0.0
H1011 H 0.4733 0.62789 0.95231 0.0
H1012 H 0.46107 0.53516 0.89499 0.0
H1013 H 0.4641 0.56731 0.92317 0.0
C1014 C 0.83198 0.59572 0.89838 0.0
C1015 C 0.83693 0.61304 0.91991 0.0
C1016 C 0.84685 0.5836 0.88026 0.0
C1017 C 0.89556 0.5739 0.83811 0.0
H1018 H 0.90149 0.53821 0.95109 0.0
C1019 C 0.96341 0.52794 0.84784 0.0
C1020 C 0.9598 0.50873 0.84502 0.0
C1021 C 0.94883 0.5405 0.86436 0.0
C1022 C 0.89982 0.54797 0.91927 0.0
H1023 H 0.86063 0.63237 0.93347 0.0
H1024 H 0.88682 0.61122 0.89937 0.0
H1025 H 0.87424 0.56181 0.95227 0.0
H1026 H 0.9387 0.48726 0.86347 0.0
H1027 H 0.91261 0.50956 0.89211 0.0
H1028 H 0.92095 0.56009 0.8047 0.0
C1029 C 0.87144 0.60707 0.89752 0.0
C1030 C 0.88439 0.56137 0.91986 0.0
C1031 C 0.85656 0.61913 0.91668 0.0
C1032 C 0.94194 0.50203 0.86524 0.0
C1033 C 0.92704 0.51475 0.88144 0.0
C1034 C 0.91089 0.56044 0.83731 0.0
C1035 C 0.86669 0.58889 0.8824 0.0
C1036 C 0.88235 0.57442 0.8795 0.0
C1037 C 0.93008 0.53409 0.87753 0.0
C1038 C 0.9133 0.54762 0.87832 0.0
H1039 H 0.81699 0.59057 0.90127 0.0
H1040 H 0.84309 0.56953 0.86889 0.0
H1041 H 0.894 0.58385 0.8067 0.0
H1042 H 0.97629 0.53362 0.83005 0.0
H1043 H 0.95156 0.55538 0.8616 0.0
C1044 C 0.0207 0.18623 0.04043 0.0
C1045 C 1.00294 0.19068 0.06669 0.0
C1046 C 0.02192 0.17065 0.00734 0.0
C1047 C 0.99615 0.12553 0.98475 0.0
H1048 H 0.03001 0.1219 0.86443 0.0
C1049 C 1.00113 0.0564 0.87091 0.0
C1050 C 1.0018 0.0577 0.81703 0.0
C1051 C 0.00456 0.07213 0.90167 0.0
C1052 C 0.02032 0.12264 0.89767 0.0
H1053 H 0.97237 0.18289 0.07741 0.0
H1054 H 0.97404 0.1565 0.01812 0.0
H1055 H 0.02805 0.15107 0.91312 0.0
H1056 H 0.0072 0.07618 0.75284 0.0
H1057 H 0.01277 0.10379 0.80597 0.0
H1058 H 0.98759 0.09762 0.96839 0.0
C1059 C 0.9873 0.16453 0.02381 0.0
C1060 C 0.01939 0.1394 0.9261 0.0
C1061 C 0.98617 0.17992 0.05709 0.0
C1062 C 0.00678 0.07481 0.79441 0.0
C1063 C 0.01003 0.09063 0.82511 0.0
C1064 C 0.99691 0.10892 0.95614 0.0
C1065 C 0.00538 0.15917 0.99987 0.0
C1066 C 0.00704 0.14121 0.96973 0.0
C1067 C 0.00834 0.08972 0.87928 0.0
C1068 C 0.00885 0.10718 0.91176 0.0
H1069 H 0.03397 0.19405 0.04808 0.0
H1070 H 0.03614 0.16705 0.98997 0.0
H1071 H 0.98689 0.126 0.01883 0.0
H1072 H 0.99721 0.04336 0.88924 0.0
H1073 H 0.00369 0.07053 0.94307 0.0
C1074 C 0.3414 0.0998 0.06364 0.0
C1075 C 0.32751 0.08764 0.08559 0.0
C1076 C 0.35527 0.09345 0.02689 0.0
C1077 C 0.36827 0.05407 0.93665 0.0
H1078 H 0.42193 0.07187 0.9529 0.0
C1079 C 0.42995 0.02941 0.79543 0.0
C1080 C 0.44941 0.02607 0.81395 0.0
C1081 C 0.41552 0.03887 0.8253 0.0
C1082 C 0.40712 0.06658 0.94778 0.0
H1083 H 0.31652 0.05949 0.08235 0.0
H1084 H 0.34033 0.04844 0.01683 0.0
H1085 H 0.39545 0.08376 0.00901 0.0
H1086 H 0.46911 0.03081 0.87831 0.0
H1087 H 0.4438 0.04692 0.93154 0.0
H1088 H 0.3799 0.03636 0.87702 0.0
C1089 C 0.34068 0.06294 0.02879 0.0
C1090 C 0.39174 0.07364 0.97974 0.0
C1091 C 0.32683 0.0693 0.06618 0.0
C1092 C 0.45432 0.03326 0.86264 0.0
C1093 C 0.43968 0.04251 0.8932 0.0
C1094 C 0.38362 0.04697 0.90486 0.0
C1095 C 0.35565 0.07473 0.01001 0.0
C1096 C 0.37202 0.06748 0.97484 0.0
C1097 C 0.41981 0.04501 0.8756 0.0
C1098 C 0.40338 0.05306 0.90967 0.0
H1099 H 0.34228 0.1141 0.07718 0.0
H1100 H 0.36604 0.1032 0.0126 0.0
H1101 H 0.35337 0.04903 0.93104 0.0
H1102 H 0.42568 0.02425 0.75788 0.0
H1103 H 0.40081 0.04103 0.80896 0.0
C1104 C 0.49945 0.31692 0.03088 0.0
C1105 C 0.51421 0.31707 0.06933 0.0
C1106 C 0.4983 0.33126 0.9936 0.0
C1107 C 0.50605 0.38078 0.98945 0.0
H1108 H 0.50607 0.37933 0.84024 0.0
C1109 C 0.52004 0.44621 0.86697 0.0
C1110 C 0.51137 0.44829 0.81798 0.0
C1111 C 0.51694 0.43017 0.89663 0.0
C1112 C 0.5056 0.37999 0.88188 0.0
H1113 H 0.54016 0.3314 0.09655 0.0
H1114 H 0.53814 0.3563 0.03194 0.0
H1115 H 0.50885 0.35 0.88959 0.0
H1116 H 0.49219 0.43543 0.762 0.0
H1117 H 0.48681 0.40711 0.81376 0.0
H1118 H 0.50263 0.41056 0.98254 0.0
C1119 C 0.52749 0.34519 0.03041 0.0
C1120 C 0.50733 0.36317 0.91005 0.0
C1121 C 0.52882 0.33078 0.06692 0.0
C1122 C 0.49888 0.43425 0.79992 0.0
C1123 C 0.49601 0.41796 0.82936 0.0
C1124 C 0.50405 0.39751 0.9615 0.0
C1125 C 0.51171 0.34606 0.99489 0.0
C1126 C 0.50813 0.36346 0.9641 0.0
C1127 C 0.50535 0.41552 0.87776 0.0
C1128 C 0.50439 0.39746 0.90725 0.0
H1129 H 0.48778 0.30677 0.03252 0.0
H1130 H 0.48601 0.3316 0.96653 0.0
H1131 H 0.50619 0.38138 0.03117 0.0
H1132 H 0.52978 0.4568 0.88173 0.0
H1133 H 0.52455 0.42887 0.93332 0.0
C1134 C 0.1666 0.40917 0.07736 0.0
C1135 C 0.18198 0.42136 0.09034 0.0
C1136 C 0.15189 0.41436 0.04105 0.0
C1137 C 0.13849 0.45171 0.94179 0.0
H1138 H 0.08547 0.43239 0.95719 0.0
C1139 C 0.07756 0.47524 0.79892 0.0
C1140 C 0.05813 0.47888 0.81684 0.0
C1141 C 0.09165 0.46545 0.82909 0.0
C1142 C 0.10011 0.4381 0.95244 0.0
H1143 H 0.19402 0.44848 0.07409 0.0
H1144 H 0.16835 0.45789 0.01242 0.0
H1145 H 0.11207 0.42156 0.01482 0.0
H1146 H 0.03797 0.47405 0.8801 0.0
H1147 H 0.06282 0.45726 0.93404 0.0
H1148 H 0.12643 0.4691 0.88196 0.0
C1149 C 0.16771 0.44399 0.02888 0.0
C1150 C 0.11563 0.43162 0.98524 0.0
C1151 C 0.18261 0.43863 0.06456 0.0
C1152 C 0.0528 0.47144 0.86501 0.0
C1153 C 0.06714 0.46181 0.89597 0.0
C1154 C 0.123 0.45836 0.90978 0.0
C1155 C 0.15182 0.4321 0.01693 0.0
C1156 C 0.13516 0.43838 0.98072 0.0
C1157 C 0.08709 0.45931 0.87922 0.0
C1158 C 0.1035 0.45168 0.91414 0.0
H1159 H 0.1657 0.39567 0.09626 0.0
H1160 H 0.14048 0.40443 0.03246 0.0
H1161 H 0.15315 0.45716 0.93556 0.0
H1162 H 0.08211 0.48059 0.76178 0.0
H1163 H 0.10642 0.46321 0.8133 0.0
C1164 C 0.98353 0.82076 0.42042 0.0
C1165 C 1.00065 0.81642 0.39134 0.0
C1166 C 0.98297 0.83637 0.4536 0.0
C1167 C 0.01613 0.87192 0.51463 0.0
H1168 H 0.96756 0.90231 0.52459 0.0
C1169 C 0.01881 0.94695 0.58745 0.0
C1170 C 0.00643 0.95195 0.62915 0.0
C1171 C 0.01553 0.93083 0.55867 0.0
C1172 C 0.98118 0.89388 0.52249 0.0
H1173 H 0.03058 0.82486 0.37442 0.0
H1174 H 0.02978 0.85179 0.43134 0.0
H1175 H 0.96754 0.87266 0.47688 0.0
H1176 H 0.97989 0.94451 0.67079 0.0
H1177 H 0.97408 0.91593 0.6199 0.0
H1178 H 0.02993 0.89338 0.5584 0.0
C1179 C 0.01683 0.84313 0.43016 0.0
C1180 C 0.98119 0.87679 0.49532 0.0
C1181 C 0.01737 0.82759 0.39738 0.0
C1182 C 0.98971 0.94104 0.63897 0.0
C1183 C 0.98642 0.92468 0.60989 0.0
C1184 C 0.01617 0.88901 0.54091 0.0
C1185 C 0.99952 0.84805 0.45825 0.0
C1186 C 0.99878 0.86563 0.49038 0.0
C1187 C 0.99979 0.91905 0.57064 0.0
C1188 C 0.99881 0.90036 0.54476 0.0
H1189 H 0.97026 0.81268 0.4155 0.0
H1190 H 0.96943 0.83946 0.47481 0.0
H1191 H 0.02987 0.86367 0.51333 0.0
H1192 H 0.03159 0.95523 0.57809 0.0
H1193 H 0.02581 0.92721 0.52793 0.0
C1194 C 0.68214 0.94072 0.39382 0.0
C1195 C 0.68255 0.92245 0.3738 0.0
C1196 C 0.66675 0.94683 0.42704 0.0
C1197 C 0.62372 0.9304 0.50781 0.0
H1198 H 0.60509 0.98173 0.48884 0.0
C1199 C 0.56352 0.96592 0.64211 0.0
C1200 C 0.55232 0.9814 0.62337 0.0
C1201 C 0.5783 0.95709 0.61134 0.0
C1202 C 0.60971 0.96724 0.49444 0.0
H1203 H 0.66765 0.89593 0.37571 0.0
H1204 H 0.64101 0.90643 0.43335 0.0
H1205 H 0.633 0.96983 0.439 0.0
H1206 H 0.54723 -0.00081 0.55694 0.0
H1207 H 0.57172 0.98324 0.50232 0.0
H1208 H 0.59985 0.92763 0.56188 0.0
C1209 C 0.65246 0.91619 0.42363 0.0
C1210 C 0.62621 0.96047 0.46628 0.0
C1211 C 0.66778 0.91014 0.39027 0.0
C1212 C 0.55545 0.98715 0.5723 0.0
C1213 C 0.5699 0.97817 0.54129 0.0
C1214 C 0.60704 0.93714 0.53578 0.0
C1215 C 0.6513 0.93483 0.44147 0.0
C1216 C 0.63366 0.94197 0.47257 0.0
C1217 C 0.58222 0.96345 0.56079 0.0
C1218 C 0.59971 0.95575 0.52976 0.0
H1219 H 0.69315 0.95062 0.3817 0.0
H1220 H 0.66681 0.96115 0.44063 0.0
H1221 H 0.62891 0.9161 0.51434 0.0
H1222 H 0.56181 0.96145 0.68172 0.0
H1223 H 0.58734 0.94596 0.62847 0.0
C1224 C 0.48105 0.68206 0.41876 0.0
C1225 C 0.49722 0.68773 0.3889 0.0
C1226 C 0.48346 0.66762 0.45519 0.0
C1227 C 0.5161 0.62568 0.48002 0.0
H1228 H 0.48557 0.62277 0.60602 0.0
C1229 C 0.50556 0.5562 0.5954 0.0
C1230 C 0.5033 0.55757 0.64908 0.0
C1231 C 0.50749 0.57242 0.56517 0.0
C1232 C 0.49446 0.62337 0.57135 0.0
H1233 H 0.52867 0.68323 0.37486 0.0
H1234 H 0.53313 0.6585 0.43952 0.0
H1235 H 0.48391 0.6513 0.55478 0.0
H1236 H 0.50237 0.57661 0.71361 0.0
H1237 H 0.50654 0.60479 0.66164 0.0
H1238 H 0.52673 0.59771 0.49691 0.0
C1239 C 0.5185 0.66499 0.43461 0.0
C1240 C 0.49329 0.63973 0.5415 0.0
C1241 C 0.51607 0.67946 0.39834 0.0
C1242 C 0.50414 0.57523 0.6723 0.0
C1243 C 0.50626 0.59138 0.64232 0.0
C1244 C 0.51728 0.60927 0.50995 0.0
C1245 C 0.50208 0.65837 0.46219 0.0
C1246 C 0.50405 0.64117 0.49533 0.0
C1247 C 0.50721 0.59032 0.58816 0.0
C1248 C 0.5065 0.60787 0.55618 0.0
H1249 H 0.46624 0.6878 0.4111 0.0
H1250 H 0.47041 0.66289 0.47528 0.0
H1251 H 0.52434 0.62606 0.44424 0.0
H1252 H 0.50469 0.54271 0.57657 0.0
H1253 H 0.50811 0.57097 0.52369 0.0
C1254 C 0.83548 0.59552 0.39922 0.0
C1255 C 0.82698 0.58291 0.36424 0.0
C1256 C 0.8501 0.58942 0.43498 0.0
C1257 C 0.89047 0.55398 0.44508 0.0
H1258 H 0.89328 0.56568 0.59053 0.0
C1259 C 0.94868 0.51624 0.57571 0.0
C1260 C 0.95509 0.52406 0.62231 0.0
C1261 C 0.93421 0.52532 0.54489 0.0
C1262 C 0.89306 0.56251 0.5498 0.0
H1263 H 0.82712 0.55395 0.34026 0.0
H1264 H 0.85259 0.54328 0.40228 0.0
H1265 H 0.86493 0.57731 0.53903 0.0
H1266 H 0.95125 0.54795 0.67272 0.0
H1267 H 0.92632 0.5643 0.61821 0.0
H1268 H 0.91873 0.54 0.45417 0.0
C1269 C 0.84778 0.55789 0.40252 0.0
C1270 C 0.8766 0.5691 0.52028 0.0
C1271 C 0.83292 0.56392 0.36747 0.0
C1272 C 0.94702 0.54171 0.63645 0.0
C1273 C 0.93238 0.5509 0.60543 0.0
C1274 C 0.90705 0.54776 0.47408 0.0
C1275 C 0.85703 0.57062 0.43579 0.0
C1276 C 0.87483 0.56452 0.46771 0.0
C1277 C 0.92539 0.54269 0.55936 0.0
C1278 C 0.90851 0.5514 0.52744 0.0
H1279 H 0.83165 0.61034 0.39677 0.0
H1280 H 0.85689 0.59967 0.45969 0.0
H1281 H 0.88998 0.55062 0.40442 0.0
H1282 H 0.95431 0.50252 0.56404 0.0
H1283 H 0.9293 0.51807 0.51082 0.0
loop_
_geom_bond_atom_site_label_1
_geom_bond_atom_site_label_2
_geom_bond_distance
_geom_bond_site_symmetry_2
_ccdc_geom_bond_type
C0 C1 1.391 . S
C0 C4 1.391 . S
C0 H42 0.948 . S
C1 C0 1.391 . S
C1 C2 1.391 . S
C2 C1 1.391 . S
C2 H58 0.947 . S
C2 C59 1.392 . S
C3 C4 1.391 . S
C3 C7 1.397 . S
C3 C59 1.419 . S
C4 C0 1.391 . S
C4 C3 1.391 . S
C4 C5 1.399 . S
C5 C4 1.399 . S
C5 C8 1.396 . S
C5 C17 1.453 . S
C5 C18 1.684 . S
H6 C30 0.948 1_556 S
C7 C3 1.397 . S
C7 C8 1.394 . S
C7 C26 1.723 . S
C8 C5 1.396 . S
C8 C7 1.394 . S
C8 C38 1.723 . S
H9 C32 0.947 . S
H10 C33 0.948 . S
H11 C39 0.982 1_554 S
H12 C40 0.979 . S
H13 C40 0.980 . S
H14 C40 0.983 . S
H15 C39 0.979 . S
H16 C39 0.977 . S
C17 C5 1.453 . S
C17 H46 0.982 . S
C17 H47 0.979 . S
C17 H48 0.977 . S
C18 C5 1.684 . S
C18 H43 0.979 . S
C18 H44 0.980 . S
C18 H45 0.983 . S
C19 C20 1.391 . S
C19 C24 1.391 1_556 S
C19 H49 0.948 1_556 S
C20 C19 1.391 . S
C20 C21 1.391 . S
C21 C20 1.391 . S
C21 C22 1.392 . S
C21 H50 0.947 . S
C22 C21 1.392 . S
C22 C23 1.419 1_556 S
C22 H51 0.948 . S
C23 C22 1.419 1_554 S
C23 C24 1.391 . S
C23 C27 1.397 . S
C24 C19 1.391 1_554 S
C24 C23 1.391 . S
C24 C25 1.399 . S
C25 C24 1.399 . S
C25 C26 1.396 . S
C25 C28 1.453 . S
C25 C29 1.684 . S
C26 C7 1.723 . S
C26 C25 1.396 . S
C26 C27 1.394 . S
C27 C23 1.397 . S
C27 C26 1.394 . S
C27 C37 1.723 . S
C28 C25 1.453 . S
C28 H52 0.982 . S
C28 H53 0.979 . S
C28 H54 0.977 . S
C29 C25 1.684 . S
C29 H55 0.979 . S
C29 H56 0.980 . S
C29 H57 0.983 . S
C30 H6 0.948 1_554 S
C30 C31 1.391 . S
C30 C35 1.391 . S
C31 C30 1.391 . S
C31 C32 1.391 . S
C32 H9 0.947 . S
C32 C31 1.391 . S
C32 C33 1.392 . S
C33 H10 0.948 . S
C33 C32 1.392 . S
C33 C34 1.419 . S
C34 C33 1.419 . S
C34 C35 1.391 . S
C34 C38 1.397 . S
C35 C30 1.391 . S
C35 C34 1.391 . S
C35 C36 1.399 . S
C36 C35 1.399 . S
C36 C37 1.396 . S
C36 C39 1.453 1_554 S
C36 C40 1.684 1_554 S
C37 C27 1.723 . S
C37 C36 1.396 . S
C37 C38 1.394 . S
C38 C8 1.723 . S
C38 C34 1.397 . S
C38 C37 1.394 . S
C39 H11 0.982 1_556 S
C39 H15 0.979 . S
C39 H16 0.977 . S
C39 C36 1.453 1_556 S
C40 H12 0.979 . S
C40 H13 0.980 . S
C40 H14 0.983 . S
C40 C36 1.684 1_556 S
H41 C59 0.948 . S
H42 C0 0.948 . S
H43 C18 0.979 . S
H44 C18 0.980 . S
H45 C18 0.983 . S
H46 C17 0.982 . S
H47 C17 0.979 . S
H48 C17 0.977 . S
H49 C19 0.948 1_554 S
H50 C21 0.947 . S
H51 C22 0.948 . S
H52 C28 0.982 . S
H53 C28 0.979 . S
H54 C28 0.977 . S
H55 C29 0.979 . S
H56 C29 0.980 . S
H57 C29 0.983 . S
H58 C2 0.947 . S
C59 C2 1.392 . S
C59 C3 1.419 . S
C59 H41 0.948 . S
C60 C61 1.391 . S
C60 C64 1.391 1_556 S
C60 H102 0.948 . S
C61 C60 1.391 . S
C61 C62 1.391 1_556 S
C62 C61 1.391 1_554 S
C62 H118 0.947 . S
C62 C119 1.392 . S
C63 C64 1.391 . S
C63 C67 1.397 1_655 S
C63 C119 1.419 . S
C64 C60 1.391 1_554 S
C64 C63 1.391 . S
C64 C65 1.399 . S
C65 C64 1.399 . S
C65 C68 1.389 1_655 S
C65 C77 1.453 1_654 S
C65 C78 1.684 1_554 S
H66 C90 0.948 . S
C67 C63 1.397 1_455 S
C67 C68 1.394 . S
C67 C86 1.722 . S
C68 C65 1.389 1_455 S
C68 C67 1.394 . S
C68 C98 1.720 . S
H69 C92 0.947 1_556 S
H70 C93 0.948 . S
H71 C99 0.982 . S
H72 C100 0.979 . S
H73 C100 0.980 . S
H74 C100 0.983 . S
H75 C99 0.979 . S
H76 C99 0.977 . S
C77 C65 1.453 1_456 S
C77 H106 0.982 1_556 S
C77 H107 0.979 . S
C77 H108 0.977 . S
C78 C65 1.684 1_556 S
C78 H103 0.979 . S
C78 H104 0.980 . S
C78 H105 0.983 . S
C79 C80 1.391 . S
C79 C84 1.391 . S
C79 H109 0.948 . S
C80 C79 1.391 . S
C80 C81 1.391 . S
C81 C80 1.391 . S
C81 C82 1.392 . S
C81 H110 0.947 . S
C82 C81 1.392 . S
C82 C83 1.419 . S
C82 H111 0.948 . S
C83 C82 1.419 . S
C83 C84 1.391 . S
C83 C87 1.397 1_655 S
C84 C79 1.391 . S
C84 C83 1.391 . S
C84 C85 1.399 . S
C85 C84 1.399 . S
C85 C86 1.389 1_655 S
C85 C88 1.453 1_655 S
C85 C89 1.684 . S
C86 C67 1.722 . S
C86 C85 1.389 1_455 S
C86 C87 1.391 . S
C87 C83 1.397 1_455 S
C87 C86 1.391 . S
C87 C97 1.723 . S
C88 C85 1.453 1_455 S
C88 H112 0.982 . S
C88 H113 0.979 . S
C88 H114 0.977 . S
C89 C85 1.684 . S
C89 H115 0.979 . S
C89 H116 0.980 . S
C89 H117 0.983 . S
C90 H66 0.948 . S
C90 C91 1.391 . S
C90 C95 1.391 . S
C91 C90 1.391 . S
C91 C92 1.391 . S
C92 H69 0.947 1_554 S
C92 C91 1.391 . S
C92 C93 1.392 . S
C93 H70 0.948 . S
C93 C92 1.392 . S
C93 C94 1.419 . S
C94 C93 1.419 . S
C94 C95 1.391 . S
C94 C98 1.397 1_655 S
C95 C90 1.391 . S
C95 C94 1.391 . S
C95 C96 1.399 . S
C96 C95 1.399 . S
C96 C97 1.386 1_655 S
C96 C99 1.453 1_655 S
C96 C100 1.684 . S
C97 C87 1.723 . S
C97 C96 1.386 1_455 S
C97 C98 1.393 . S
C98 C68 1.720 . S
C98 C94 1.397 1_455 S
C98 C97 1.393 . S
C99 H71 0.982 . S
C99 H75 0.979 . S
C99 H76 0.977 . S
C99 C96 1.453 1_455 S
C100 H72 0.979 . S
C100 H73 0.980 . S
C100 H74 0.983 . S
C100 C96 1.684 . S
H101 C119 0.948 . S
H102 C60 0.948 . S
H103 C78 0.979 . S
H104 C78 0.980 . S
H105 C78 0.983 . S
H106 C77 0.982 1_554 S
H107 C77 0.979 . S
H108 C77 0.977 . S
H109 C79 0.948 . S
H110 C81 0.947 . S
H111 C82 0.948 . S
H112 C88 0.982 . S
H113 C88 0.979 . S
H114 C88 0.977 . S
H115 C89 0.979 . S
H116 C89 0.980 . S
H117 C89 0.983 . S
H118 C62 0.947 . S
C119 C62 1.392 . S
C119 C63 1.419 . S
C119 H101 0.948 . S
C120 C121 1.391 . S
C120 C124 1.391 . S
C120 H162 0.948 . S
C121 C120 1.391 . S
C121 C122 1.391 . S
C122 C121 1.391 . S
C122 H178 0.947 1_554 S
C122 C179 1.392 . S
C123 C124 1.391 . S
C123 C127 1.397 . S
C123 C179 1.419 . S
C124 C120 1.391 . S
C124 C123 1.391 . S
C124 C125 1.399 . S
C125 C124 1.399 . S
C125 C128 1.396 . S
C125 C137 1.453 . S
C125 C138 1.684 . S
H126 C150 0.948 . S
C127 C123 1.397 . S
C127 C128 1.394 . S
C127 C146 1.723 . S
C128 C125 1.396 . S
C128 C127 1.394 . S
C128 C158 1.723 . S
H129 C152 0.947 . S
H130 C153 0.948 . S
H131 C159 0.982 . S
H132 C160 0.979 . S
H133 C160 0.980 . S
H134 C160 0.983 . S
H135 C159 0.979 . S
H136 C159 0.977 . S
C137 C125 1.453 . S
C137 H166 0.982 . S
C137 H167 0.979 . S
C137 H168 0.977 . S
C138 C125 1.684 . S
C138 H163 0.979 . S
C138 H164 0.980 . S
C138 H165 0.983 . S
C139 C140 1.391 . S
C139 C144 1.391 . S
C139 H169 0.948 . S
C140 C139 1.391 . S
C140 C141 1.391 1_556 S
C141 C140 1.391 1_554 S
C141 C142 1.392 . S
C141 H170 0.947 . S
C142 C141 1.392 . S
C142 C143 1.419 . S
C142 H171 0.948 . S
C143 C142 1.419 . S
C143 C144 1.391 1_554 S
C143 C147 1.397 . S
C144 C139 1.391 . S
C144 C143 1.391 1_556 S
C144 C145 1.399 1_556 S
C145 C144 1.399 1_554 S
C145 C146 1.396 . S
C145 C148 1.453 1_554 S
C145 C149 1.684 1_554 S
C146 C127 1.723 . S
C146 C145 1.396 . S
C146 C147 1.394 . S
C147 C143 1.397 . S
C147 C146 1.394 . S
C147 C157 1.723 . S
C148 C145 1.453 1_556 S
C148 H172 0.982 . S
C148 H173 0.979 . S
C148 H174 0.977 . S
C149 C145 1.684 1_556 S
C149 H175 0.979 . S
C149 H176 0.980 . S
C149 H177 0.983 . S
C150 H126 0.948 . S
C150 C151 1.391 . S
C150 C155 1.391 . S
C151 C150 1.391 . S
C151 C152 1.391 . S
C152 H129 0.947 . S
C152 C151 1.391 . S
C152 C153 1.392 . S
C153 H130 0.948 . S
C153 C152 1.392 . S
C153 C154 1.419 . S
C154 C153 1.419 . S
C154 C155 1.391 . S
C154 C158 1.397 . S
C155 C150 1.391 . S
C155 C154 1.391 . S
C155 C156 1.399 . S
C156 C155 1.399 . S
C156 C157 1.396 . S
C156 C159 1.453 . S
C156 C160 1.684 . S
C157 C147 1.723 . S
C157 C156 1.396 . S
C157 C158 1.394 . S
C158 C128 1.723 . S
C158 C154 1.397 . S
C158 C157 1.394 . S
C159 H131 0.982 . S
C159 H135 0.979 . S
C159 H136 0.977 . S
C159 C156 1.453 . S
C160 H132 0.979 . S
C160 H133 0.980 . S
C160 H134 0.983 . S
C160 C156 1.684 . S
H161 C179 0.948 1_556 S
H162 C120 0.948 . S
H163 C138 0.979 . S
H164 C138 0.980 . S
H165 C138 0.983 . S
H166 C137 0.982 . S
H167 C137 0.979 . S
H168 C137 0.977 . S
H169 C139 0.948 . S
H170 C141 0.947 . S
H171 C142 0.948 . S
H172 C148 0.982 . S
H173 C148 0.979 . S
H174 C148 0.977 . S
H175 C149 0.979 . S
H176 C149 0.980 . S
H177 C149 0.983 . S
H178 C122 0.947 1_556 S
C179 C122 1.392 . S
C179 C123 1.419 . S
C179 H161 0.948 1_554 S
C180 C181 1.391 . S
C180 C184 1.391 . S
C180 H222 0.948 . S
C181 C180 1.391 . S
C181 C182 1.391 . S
C182 C181 1.391 . S
C182 H238 0.947 . S
C182 C239 1.392 . S
C183 C184 1.391 . S
C183 C187 1.397 . S
C183 C239 1.419 . S
C184 C180 1.391 . S
C184 C183 1.391 . S
C184 C185 1.399 . S
C185 C184 1.399 . S
C185 C188 1.396 . S
C185 C197 1.453 . S
C185 C198 1.684 . S
H186 C210 0.948 . S
C187 C183 1.397 . S
C187 C188 1.394 . S
C187 C206 1.723 . S
C188 C185 1.396 . S
C188 C187 1.394 . S
C188 C218 1.723 . S
H189 C212 0.947 . S
H190 C213 0.948 . S
H191 C219 0.982 . S
H192 C220 0.979 1_554 S
H193 C220 0.980 . S
H194 C220 0.983 . S
H195 C219 0.979 1_556 S
H196 C219 0.977 1_556 S
C197 C185 1.453 . S
C197 H226 0.982 . S
C197 H227 0.979 . S
C197 H228 0.977 . S
C198 C185 1.684 . S
C198 H223 0.979 . S
C198 H224 0.980 . S
C198 H225 0.983 . S
C199 C200 1.391 1_554 S
C199 C204 1.391 . S
C199 H229 0.948 . S
C200 C199 1.391 1_556 S
C200 C201 1.391 . S
C201 C200 1.391 . S
C201 C202 1.392 . S
C201 H230 0.947 . S
C202 C201 1.392 . S
C202 C203 1.419 1_556 S
C202 H231 0.948 . S
C203 C202 1.419 1_554 S
C203 C204 1.391 . S
C203 C207 1.397 . S
C204 C199 1.391 . S
C204 C203 1.391 . S
C204 C205 1.399 . S
C205 C204 1.399 . S
C205 C206 1.396 . S
C205 C208 1.453 . S
C205 C209 1.684 . S
C206 C187 1.723 . S
C206 C205 1.396 . S
C206 C207 1.394 . S
C207 C203 1.397 . S
C207 C206 1.394 . S
C207 C217 1.723 . S
C208 C205 1.453 . S
C208 H232 0.982 . S
C208 H233 0.979 . S
C208 H234 0.977 . S
C209 C205 1.684 . S
C209 H235 0.979 . S
C209 H236 0.980 . S
C209 H237 0.983 . S
C210 H186 0.948 . S
C210 C211 1.391 . S
C210 C215 1.391 . S
C211 C210 1.391 . S
C211 C212 1.391 . S
C212 H189 0.947 . S
C212 C211 1.391 . S
C212 C213 1.392 . S
C213 H190 0.948 . S
C213 C212 1.392 . S
C213 C214 1.419 . S
C214 C213 1.419 . S
C214 C215 1.391 . S
C214 C218 1.397 . S
C215 C210 1.391 . S
C215 C214 1.391 . S
C215 C216 1.399 . S
C216 C215 1.399 . S
C216 C217 1.396 . S
C216 C219 1.453 . S
C216 C220 1.684 1_554 S
C217 C207 1.723 . S
C217 C216 1.396 . S
C217 C218 1.394 . S
C218 C188 1.723 . S
C218 C214 1.397 . S
C218 C217 1.394 . S
C219 H191 0.982 . S
C219 H195 0.979 1_554 S
C219 H196 0.977 1_554 S
C219 C216 1.453 . S
C220 H192 0.979 1_556 S
C220 H193 0.980 . S
C220 H194 0.983 . S
C220 C216 1.684 1_556 S
H221 C239 0.948 . S
H222 C180 0.948 . S
H223 C198 0.979 . S
H224 C198 0.980 . S
H225 C198 0.983 . S
H226 C197 0.982 . S
H227 C197 0.979 . S
H228 C197 0.977 . S
H229 C199 0.948 . S
H230 C201 0.947 . S
H231 C202 0.948 . S
H232 C208 0.982 . S
H233 C208 0.979 . S
H234 C208 0.977 . S
H235 C209 0.979 . S
H236 C209 0.980 . S
H237 C209 0.983 . S
H238 C182 0.947 . S
C239 C182 1.392 . S
C239 C183 1.419 . S
C239 H221 0.948 . S
C240 C241 1.391 . S
C240 C244 1.391 . S
C240 H282 0.948 . S
C241 C240 1.391 . S
C241 C242 1.391 . S
C242 C241 1.391 . S
C242 H298 0.947 . S
C242 C299 1.392 . S
C243 C244 1.391 . S
C243 C247 1.397 . S
C243 C299 1.419 . S
C244 C240 1.391 . S
C244 C243 1.391 . S
C244 C245 1.399 . S
C245 C244 1.399 . S
C245 C248 1.396 . S
C245 C257 1.453 . S
C245 C258 1.684 . S
H246 C270 0.948 . S
C247 C243 1.397 . S
C247 C248 1.394 . S
C247 C266 1.723 . S
C248 C245 1.396 . S
C248 C247 1.394 . S
C248 C278 1.723 . S
H249 C272 0.947 . S
H250 C273 0.948 . S
H251 C279 0.982 . S
H252 C280 0.979 . S
H253 C280 0.980 . S
H254 C280 0.983 . S
H255 C279 0.979 . S
H256 C279 0.977 . S
C257 C245 1.453 . S
C257 H286 0.982 . S
C257 H287 0.979 . S
C257 H288 0.977 . S
C258 C245 1.684 . S
C258 H283 0.979 . S
C258 H284 0.980 . S
C258 H285 0.983 . S
C259 C260 1.391 . S
C259 C264 1.391 . S
C259 H289 0.948 . S
C260 C259 1.391 . S
C260 C261 1.391 . S
C261 C260 1.391 . S
C261 C262 1.392 . S
C261 H290 0.947 . S
C262 C261 1.392 . S
C262 C263 1.419 . S
C262 H291 0.948 . S
C263 C262 1.419 . S
C263 C264 1.391 . S
C263 C267 1.397 . S
C264 C259 1.391 . S
C264 C263 1.391 . S
C264 C265 1.399 . S
C265 C264 1.399 . S
C265 C266 1.396 . S
C265 C268 1.453 . S
C265 C269 1.684 . S
C266 C247 1.723 . S
C266 C265 1.396 . S
C266 C267 1.394 . S
C267 C263 1.397 . S
C267 C266 1.394 . S
C267 C277 1.723 . S
C268 C265 1.453 . S
C268 H292 0.982 . S
C268 H293 0.979 . S
C268 H294 0.977 . S
C269 C265 1.684 . S
C269 H295 0.979 . S
C269 H296 0.980 . S
C269 H297 0.983 . S
C270 H246 0.948 . S
C270 C271 1.391 . S
C270 C275 1.391 . S
C271 C270 1.391 . S
C271 C272 1.391 . S
C272 H249 0.947 . S
C272 C271 1.391 . S
C272 C273 1.392 . S
C273 H250 0.948 . S
C273 C272 1.392 . S
C273 C274 1.419 . S
C274 C273 1.419 . S
C274 C275 1.391 . S
C274 C278 1.397 . S
C275 C270 1.391 . S
C275 C274 1.391 . S
C275 C276 1.399 . S
C276 C275 1.399 . S
C276 C277 1.396 . S
C276 C279 1.453 . S
C276 C280 1.684 . S
C277 C267 1.723 . S
C277 C276 1.396 . S
C277 C278 1.394 . S
C278 C248 1.723 . S
C278 C274 1.397 . S
C278 C277 1.394 . S
C279 H251 0.982 . S
C279 H255 0.979 . S
C279 H256 0.977 . S
C279 C276 1.453 . S
C280 H252 0.979 . S
C280 H253 0.980 . S
C280 H254 0.983 . S
C280 C276 1.684 . S
H281 C299 0.948 . S
H282 C240 0.948 . S
H283 C258 0.979 . S
H284 C258 0.980 . S
H285 C258 0.983 . S
H286 C257 0.982 . S
H287 C257 0.979 . S
H288 C257 0.977 . S
H289 C259 0.948 . S
H290 C261 0.947 . S
H291 C262 0.948 . S
H292 C268 0.982 . S
H293 C268 0.979 . S
H294 C268 0.977 . S
H295 C269 0.979 . S
H296 C269 0.980 . S
H297 C269 0.983 . S
H298 C242 0.947 . S
C299 C242 1.392 . S
C299 C243 1.419 . S
C299 H281 0.948 . S
C300 C301 1.391 . S
C300 C304 1.391 . S
C300 H342 0.948 . S
C301 C300 1.391 . S
C301 C302 1.391 . S
C302 C301 1.391 . S
C302 H358 0.947 . S
C302 C359 1.392 . S
C303 C304 1.397 . S
C303 C307 1.393 1_655 S
C303 C359 1.426 . S
C304 C300 1.391 . S
C304 C303 1.397 . S
C304 C305 1.399 . S
C305 C304 1.399 . S
C305 C308 1.396 1_655 S
C305 C317 1.453 1_655 S
C305 C318 1.684 . S
H306 C330 0.948 . S
C307 C303 1.393 1_455 S
C307 C308 1.395 . S
C307 C326 1.723 . S
C308 C305 1.396 1_455 S
C308 C307 1.395 . S
C308 C338 1.723 . S
H309 C332 0.947 . S
H310 C333 0.948 . S
H311 C339 0.982 . S
H312 C340 0.979 . S
H313 C340 0.980 . S
H314 C340 0.983 . S
H315 C339 0.979 . S
H316 C339 0.977 . S
C317 C305 1.453 1_455 S
C317 H346 0.982 . S
C317 H347 0.979 . S
C317 H348 0.977 . S
C318 C305 1.684 . S
C318 H343 0.979 . S
C318 H344 0.980 . S
C318 H345 0.983 . S
C319 C320 1.391 . S
C319 C324 1.391 . S
C319 H349 0.948 . S
C320 C319 1.391 . S
C320 C321 1.391 . S
C321 C320 1.391 . S
C321 C322 1.392 . S
C321 H350 0.947 . S
C322 C321 1.392 . S
C322 C323 1.423 . S
C322 H351 0.948 . S
C323 C322 1.423 . S
C323 C324 1.400 . S
C323 C327 1.395 1_655 S
C324 C319 1.391 . S
C324 C323 1.400 . S
C324 C325 1.399 . S
C325 C324 1.399 . S
C325 C326 1.396 1_655 S
C325 C328 1.453 1_655 S
C325 C329 1.684 . S
C326 C307 1.723 . S
C326 C325 1.396 1_455 S
C326 C327 1.394 . S
C327 C323 1.395 1_455 S
C327 C326 1.394 . S
C327 C337 1.723 . S
C328 C325 1.453 1_455 S
C328 H352 0.982 . S
C328 H353 0.979 . S
C328 H354 0.977 . S
C329 C325 1.684 . S
C329 H355 0.979 . S
C329 H356 0.980 . S
C329 H357 0.983 . S
C330 H306 0.948 . S
C330 C331 1.391 . S
C330 C335 1.391 . S
C331 C330 1.391 . S
C331 C332 1.391 . S
C332 H309 0.947 . S
C332 C331 1.391 . S
C332 C333 1.392 . S
C333 H310 0.948 . S
C333 C332 1.392 . S
C333 C334 1.423 . S
C334 C333 1.423 . S
C334 C335 1.396 . S
C334 C338 1.397 1_655 S
C335 C330 1.391 . S
C335 C334 1.396 . S
C335 C336 1.399 . S
C336 C335 1.399 . S
C336 C337 1.396 1_655 S
C336 C339 1.453 1_655 S
C336 C340 1.684 . S
C337 C327 1.723 . S
C337 C336 1.396 1_455 S
C337 C338 1.395 . S
C338 C308 1.723 . S
C338 C334 1.397 1_455 S
C338 C337 1.395 . S
C339 H311 0.982 . S
C339 H315 0.979 . S
C339 H316 0.977 . S
C339 C336 1.453 1_455 S
C340 H312 0.979 . S
C340 H313 0.980 . S
C340 H314 0.983 . S
C340 C336 1.684 . S
H341 C359 0.948 . S
H342 C300 0.948 . S
H343 C318 0.979 . S
H344 C318 0.980 . S
H345 C318 0.983 . S
H346 C317 0.982 . S
H347 C317 0.979 . S
H348 C317 0.977 . S
H349 C319 0.948 . S
H350 C321 0.947 . S
H351 C322 0.948 . S
H352 C328 0.982 . S
H353 C328 0.979 . S
H354 C328 0.977 . S
H355 C329 0.979 . S
H356 C329 0.980 . S
H357 C329 0.983 . S
H358 C302 0.947 . S
C359 C302 1.392 . S
C359 C303 1.426 . S
C359 H341 0.948 . S
C360 C361 1.391 . S
C360 C364 1.391 . S
C360 H402 0.948 . S
C361 C360 1.391 . S
C361 C362 1.391 . S
C362 C361 1.391 . S
C362 H418 0.947 . S
C362 C419 1.392 . S
C363 C364 1.391 . S
C363 C367 1.397 . S
C363 C419 1.419 . S
C364 C360 1.391 . S
C364 C363 1.391 . S
C364 C365 1.399 . S
C365 C364 1.399 . S
C365 C368 1.396 . S
C365 C377 1.453 . S
C365 C378 1.684 . S
H366 C390 0.948 . S
C367 C363 1.397 . S
C367 C368 1.394 . S
C367 C386 1.723 . S
C368 C365 1.396 . S
C368 C367 1.394 . S
C368 C398 1.723 . S
H369 C392 0.947 . S
H370 C393 0.948 . S
H371 C399 0.982 . S
H372 C400 0.979 . S
H373 C400 0.980 . S
H374 C400 0.983 . S
H375 C399 0.979 . S
H376 C399 0.977 . S
C377 C365 1.453 . S
C377 H406 0.982 . S
C377 H407 0.979 . S
C377 H408 0.977 . S
C378 C365 1.684 . S
C378 H403 0.979 . S
C378 H404 0.980 . S
C378 H405 0.983 . S
C379 C380 1.391 . S
C379 C384 1.391 . S
C379 H409 0.948 . S
C380 C379 1.391 . S
C380 C381 1.391 . S
C381 C380 1.391 . S
C381 C382 1.392 . S
C381 H410 0.947 . S
C382 C381 1.392 . S
C382 C383 1.419 . S
C382 H411 0.948 . S
C383 C382 1.419 . S
C383 C384 1.391 . S
C383 C387 1.397 . S
C384 C379 1.391 . S
C384 C383 1.391 . S
C384 C385 1.399 . S
C385 C384 1.399 . S
C385 C386 1.396 . S
C385 C388 1.453 . S
C385 C389 1.684 . S
C386 C367 1.723 . S
C386 C385 1.396 . S
C386 C387 1.394 . S
C387 C383 1.397 . S
C387 C386 1.394 . S
C387 C397 1.723 . S
C388 C385 1.453 . S
C388 H412 0.982 . S
C388 H413 0.979 . S
C388 H414 0.977 . S
C389 C385 1.684 . S
C389 H415 0.979 . S
C389 H416 0.980 . S
C389 H417 0.983 . S
C390 H366 0.948 . S
C390 C391 1.391 . S
C390 C395 1.391 . S
C391 C390 1.391 . S
C391 C392 1.391 . S
C392 H369 0.947 . S
C392 C391 1.391 . S
C392 C393 1.392 . S
C393 H370 0.948 . S
C393 C392 1.392 . S
C393 C394 1.419 . S
C394 C393 1.419 . S
C394 C395 1.391 . S
C394 C398 1.397 . S
C395 C390 1.391 . S
C395 C394 1.391 . S
C395 C396 1.399 . S
C396 C395 1.399 . S
C396 C397 1.396 . S
C396 C399 1.453 . S
C396 C400 1.684 . S
C397 C387 1.723 . S
C397 C396 1.396 . S
C397 C398 1.394 . S
C398 C368 1.723 . S
C398 C394 1.397 . S
C398 C397 1.394 . S
C399 H371 0.982 . S
C399 H375 0.979 . S
C399 H376 0.977 . S
C399 C396 1.453 . S
C400 H372 0.979 . S
C400 H373 0.980 . S
C400 H374 0.983 . S
C400 C396 1.684 . S
H401 C419 0.948 . S
H402 C360 0.948 . S
H403 C378 0.979 . S
H404 C378 0.980 . S
H405 C378 0.983 . S
H406 C377 0.982 . S
H407 C377 0.979 . S
H408 C377 0.977 . S
H409 C379 0.948 . S
H410 C381 0.947 . S
H411 C382 0.948 . S
H412 C388 0.982 . S
H413 C388 0.979 . S
H414 C388 0.977 . S
H415 C389 0.979 . S
H416 C389 0.980 . S
H417 C389 0.983 . S
H418 C362 0.947 . S
C419 C362 1.392 . S
C419 C363 1.419 . S
C419 H401 0.948 . S
C420 C421 1.391 . S
C420 C424 1.391 . S
C420 H462 0.948 . S
C421 C420 1.391 . S
C421 C422 1.391 . S
C422 C421 1.391 . S
C422 H478 0.947 . S
C422 C479 1.392 . S
C423 C424 1.391 . S
C423 C427 1.397 . S
C423 C479 1.419 . S
C424 C420 1.391 . S
C424 C423 1.391 . S
C424 C425 1.399 . S
C425 C424 1.399 . S
C425 C428 1.396 . S
C425 C437 1.453 . S
C425 C438 1.684 . S
H426 C450 0.948 . S
C427 C423 1.397 . S
C427 C428 1.394 . S
C427 C446 1.723 . S
C428 C425 1.396 . S
C428 C427 1.394 . S
C428 C458 1.723 . S
H429 C452 0.947 . S
H430 C453 0.948 . S
H431 C459 0.982 . S
H432 C460 0.979 . S
H433 C460 0.980 . S
H434 C460 0.983 . S
H435 C459 0.979 . S
H436 C459 0.977 . S
C437 C425 1.453 . S
C437 H466 0.982 . S
C437 H467 0.979 . S
C437 H468 0.977 . S
C438 C425 1.684 . S
C438 H463 0.979 . S
C438 H464 0.980 . S
C438 H465 0.983 . S
C439 C440 1.391 . S
C439 C444 1.391 . S
C439 H469 0.948 . S
C440 C439 1.391 . S
C440 C441 1.391 . S
C441 C440 1.391 . S
C441 C442 1.392 . S
C441 H470 0.947 . S
C442 C441 1.392 . S
C442 C443 1.419 . S
C442 H471 0.948 . S
C443 C442 1.419 . S
C443 C444 1.391 . S
C443 C447 1.397 . S
C444 C439 1.391 . S
C444 C443 1.391 . S
C444 C445 1.399 . S
C445 C444 1.399 . S
C445 C446 1.396 . S
C445 C448 1.453 . S
C445 C449 1.684 . S
C446 C427 1.723 . S
C446 C445 1.396 . S
C446 C447 1.394 . S
C447 C443 1.397 . S
C447 C446 1.394 . S
C447 C457 1.723 . S
C448 C445 1.453 . S
C448 H472 0.982 . S
C448 H473 0.979 . S
C448 H474 0.977 . S
C449 C445 1.684 . S
C449 H475 0.979 . S
C449 H476 0.980 . S
C449 H477 0.983 . S
C450 H426 0.948 . S
C450 C451 1.391 . S
C450 C455 1.391 . S
C451 C450 1.391 . S
C451 C452 1.391 . S
C452 H429 0.947 . S
C452 C451 1.391 . S
C452 C453 1.392 . S
C453 H430 0.948 . S
C453 C452 1.392 . S
C453 C454 1.419 . S
C454 C453 1.419 . S
C454 C455 1.391 . S
C454 C458 1.397 . S
C455 C450 1.391 . S
C455 C454 1.391 . S
C455 C456 1.399 . S
C456 C455 1.399 . S
C456 C457 1.396 . S
C456 C459 1.453 . S
C456 C460 1.684 . S
C457 C447 1.723 . S
C457 C456 1.396 . S
C457 C458 1.394 . S
C458 C428 1.723 . S
C458 C454 1.397 . S
C458 C457 1.394 . S
C459 H431 0.982 . S
C459 H435 0.979 . S
C459 H436 0.977 . S
C459 C456 1.453 . S
C460 H432 0.979 . S
C460 H433 0.980 . S
C460 H434 0.983 . S
C460 C456 1.684 . S
H461 C479 0.948 . S
H462 C420 0.948 . S
H463 C438 0.979 . S
H464 C438 0.980 . S
H465 C438 0.983 . S
H466 C437 0.982 . S
H467 C437 0.979 . S
H468 C437 0.977 . S
H469 C439 0.948 . S
H470 C441 0.947 . S
H471 C442 0.948 . S
H472 C448 0.982 . S
H473 C448 0.979 . S
H474 C448 0.977 . S
H475 C449 0.979 . S
H476 C449 0.980 . S
H477 C449 0.983 . S
H478 C422 0.947 . S
C479 C422 1.392 . S
C479 C423 1.419 . S
C479 H461 0.948 . S
O480 Mn481 2.147 1_455 S
O480 C494 1.244 . S
Mn481 O480 2.147 1_655 S
Mn481 O484 2.172 1_545 S
Mn481 O485 2.173 1_655 S
Mn481 O487 2.161 1_645 S
Mn481 O489 2.168 . S
Mn481 O499 2.271 . S
O482 Mn483 2.087 . S
O482 C494 1.256 1_655 S
Mn483 O482 2.087 . S
Mn483 O490 2.089 . S
Mn483 O499 2.290 . S
Mn483 O500 2.251 . S
O484 Mn481 2.172 1_565 S
O484 C495 1.239 . S
O485 Mn481 2.173 1_455 S
O485 Mn486 2.290 1_545 S
O485 C496 1.278 . S
Mn486 O485 2.290 1_565 S
Mn486 O488 2.089 . S
Mn486 O491 2.251 . S
Mn486 O492 2.087 . S
O487 Mn481 2.161 1_465 S
O487 C497 1.244 . S
O488 Mn486 2.089 . S
O488 C495 1.256 1_455 S
O489 Mn481 2.168 . S
O489 C498 1.239 . S
O490 Mn483 2.089 . S
O490 C498 1.256 . S
O491 Mn486 2.251 . S
O491 C496 1.241 1_565 S
O492 Mn486 2.087 . S
O492 C497 1.256 . S
C493 O499 1.278 . S
C493 O500 1.241 . S
C494 O480 1.244 . S
C494 O482 1.256 1_455 S
C495 O484 1.239 . S
C495 O488 1.256 1_655 S
C496 O485 1.278 . S
C496 O491 1.241 1_545 S
C497 O487 1.244 . S
C497 O492 1.256 . S
C498 O489 1.239 . S
C498 O490 1.256 . S
O499 Mn481 2.271 . S
O499 Mn483 2.290 . S
O499 C493 1.278 . S
O500 Mn483 2.251 . S
O500 C493 1.241 . S
O501 Mn502 2.163 1_565 S
O501 C515 1.244 1_565 S
Mn502 O501 2.163 1_545 S
Mn502 O505 2.160 . S
Mn502 O506 2.221 1_545 S
Mn502 O508 2.163 . S
Mn502 O510 2.160 1_545 S
Mn502 O520 2.221 . S
O503 Mn504 2.087 . S
O503 C515 1.256 . S
Mn504 O503 2.087 . S
Mn504 O511 2.089 . S
Mn504 O520 2.290 . S
Mn504 O521 2.251 . S
O505 Mn502 2.160 . S
O505 C516 1.239 . S
O506 Mn502 2.221 1_565 S
O506 Mn507 2.290 . S
O506 C517 1.278 . S
Mn507 O506 2.290 . S
Mn507 O509 2.089 1_565 S
Mn507 O512 2.251 . S
Mn507 O513 2.087 1_565 S
O508 Mn502 2.163 . S
O508 C518 1.244 . S
O509 Mn507 2.089 1_545 S
O509 C516 1.256 . S
O510 Mn502 2.160 1_565 S
O510 C519 1.239 . S
O511 Mn504 2.089 . S
O511 C519 1.256 1_545 S
O512 Mn507 2.251 . S
O512 C517 1.241 . S
O513 Mn507 2.087 1_545 S
O513 C518 1.256 . S
C514 O520 1.278 . S
C514 O521 1.241 . S
C515 O501 1.244 1_545 S
C515 O503 1.256 . S
C516 O505 1.239 . S
C516 O509 1.256 . S
C517 O506 1.278 . S
C517 O512 1.241 . S
C518 O508 1.244 . S
C518 O513 1.256 . S
C519 O510 1.239 . S
C519 O511 1.256 1_565 S
O520 Mn502 2.221 . S
O520 Mn504 2.290 . S
O520 C514 1.278 . S
O521 Mn504 2.251 . S
O521 C514 1.241 . S
O522 Mn523 2.163 . S
O522 C536 1.244 . S
Mn523 O522 2.163 . S
Mn523 O526 2.160 . S
Mn523 O527 2.221 . S
Mn523 O529 2.163 . S
Mn523 O531 2.160 . S
Mn523 O541 2.221 . S
O524 Mn525 2.087 . S
O524 C536 1.256 . S
Mn525 O524 2.087 . S
Mn525 O532 2.089 . S
Mn525 O541 2.290 . S
Mn525 O542 2.251 . S
O526 Mn523 2.160 . S
O526 C537 1.239 . S
O527 Mn523 2.221 . S
O527 Mn528 2.290 . S
O527 C538 1.278 . S
Mn528 O527 2.290 . S
Mn528 O530 2.089 . S
Mn528 O533 2.251 . S
Mn528 O534 2.087 . S
O529 Mn523 2.163 . S
O529 C539 1.244 . S
O530 Mn528 2.089 . S
O530 C537 1.256 . S
O531 Mn523 2.160 . S
O531 C540 1.239 . S
O532 Mn525 2.089 . S
O532 C540 1.256 . S
O533 Mn528 2.251 . S
O533 C538 1.241 . S
O534 Mn528 2.087 . S
O534 C539 1.256 . S
C535 O541 1.278 . S
C535 O542 1.241 . S
C536 O522 1.244 . S
C536 O524 1.256 . S
C537 O526 1.239 . S
C537 O530 1.256 . S
C538 O527 1.278 . S
C538 O533 1.241 . S
C539 O529 1.244 . S
C539 O534 1.256 . S
C540 O531 1.239 . S
C540 O532 1.256 . S
O541 Mn523 2.221 . S
O541 Mn525 2.290 . S
O541 C535 1.278 . S
O542 Mn525 2.251 . S
O542 C535 1.241 . S
O543 Mn544 2.163 . S
O543 C557 1.244 . S
Mn544 O543 2.163 . S
Mn544 O547 2.160 1_455 S
Mn544 O548 2.221 1_455 S
Mn544 O550 2.163 1_455 S
Mn544 O552 2.160 . S
Mn544 O562 2.221 . S
O545 Mn546 2.087 . S
O545 C557 1.256 . S
Mn546 O545 2.087 . S
Mn546 O553 2.089 . S
Mn546 O562 2.290 . S
Mn546 O563 2.251 . S
O547 Mn544 2.160 1_655 S
O547 C558 1.239 . S
O548 Mn544 2.221 1_655 S
O548 Mn549 2.290 . S
O548 C559 1.278 . S
Mn549 O548 2.290 . S
Mn549 O551 2.089 . S
Mn549 O554 2.251 . S
Mn549 O555 2.087 . S
O550 Mn544 2.163 1_655 S
O550 C560 1.244 . S
O551 Mn549 2.089 . S
O551 C558 1.256 . S
O552 Mn544 2.160 . S
O552 C561 1.239 . S
O553 Mn546 2.089 . S
O553 C561 1.256 . S
O554 Mn549 2.251 . S
O554 C559 1.241 . S
O555 Mn549 2.087 . S
O555 C560 1.256 . S
C556 O562 1.278 . S
C556 O563 1.241 . S
C557 O543 1.244 . S
C557 O545 1.256 . S
C558 O547 1.239 . S
C558 O551 1.256 . S
C559 O548 1.278 . S
C559 O554 1.241 . S
C560 O550 1.244 . S
C560 O555 1.256 . S
C561 O552 1.239 . S
C561 O553 1.256 . S
O562 Mn544 2.221 . S
O562 Mn546 2.290 . S
O562 C556 1.278 . S
O563 Mn546 2.251 . S
O563 C556 1.241 . S
C564 C565 1.349 . S
C564 C566 1.327 . S
C564 H589 0.950 . S
C565 C564 1.349 . S
C565 C581 1.349 . S
C566 C564 1.327 . S
C566 C585 1.429 . S
C566 H590 0.950 . S
C567 C584 1.574 . S
C567 C586 1.368 . S
C567 H591 0.949 . S
H568 C572 0.949 . S
C569 C570 1.349 . S
C569 C571 1.327 . S
C569 H592 0.950 . S
C570 C569 1.349 . S
C570 C582 1.349 . S
C571 C569 1.327 . S
C571 C587 1.429 . S
C571 H593 0.950 . S
C572 H568 0.949 . S
C572 C580 1.574 . S
C572 C588 1.368 . S
H573 C581 0.950 . S
H574 C579 0.950 . S
H575 C580 0.949 . S
H576 C582 0.950 . S
H577 C583 0.950 . S
H578 C584 0.949 . S
C579 H574 0.950 . S
C579 C581 1.327 . S
C579 C585 1.429 . S
C580 C572 1.574 . S
C580 H575 0.949 . S
C580 C586 1.368 . S
C581 C565 1.349 . S
C581 H573 0.950 . S
C581 C579 1.327 . S
C582 C570 1.349 . S
C582 H576 0.950 . S
C582 C583 1.327 . S
C583 H577 0.950 . S
C583 C582 1.327 . S
C583 C587 1.429 . S
C584 C567 1.574 . S
C584 H578 0.949 . S
C584 C588 1.368 . S
C585 C566 1.429 . S
C585 C579 1.429 . S
C585 C586 1.523 . S
C586 C567 1.368 . S
C586 C580 1.368 . S
C586 C585 1.523 . S
C587 C571 1.429 . S
C587 C583 1.429 . S
C587 C588 1.523 . S
C588 C572 1.368 . S
C588 C584 1.368 . S
C588 C587 1.523 . S
H589 C564 0.950 . S
H590 C566 0.950 . S
H591 C567 0.949 . S
H592 C569 0.950 . S
H593 C571 0.950 . S
C594 C595 1.349 . S
C594 C596 1.327 . S
C594 H619 0.950 . S
C595 C594 1.349 . S
C595 C611 1.349 . S
C596 C594 1.327 . S
C596 C615 1.429 . S
C596 H620 0.950 . S
C597 C614 1.574 . S
C597 C616 1.368 . S
C597 H621 0.949 . S
H598 C602 0.949 . S
C599 C600 1.349 . S
C599 C601 1.327 . S
C599 H622 0.950 . S
C600 C599 1.349 . S
C600 C612 1.349 . S
C601 C599 1.327 . S
C601 C617 1.429 . S
C601 H623 0.950 . S
C602 H598 0.949 . S
C602 C610 1.574 . S
C602 C618 1.368 . S
H603 C611 0.950 . S
H604 C609 0.950 . S
H605 C610 0.949 . S
H606 C612 0.950 . S
H607 C613 0.950 . S
H608 C614 0.949 . S
C609 H604 0.950 . S
C609 C611 1.327 . S
C609 C615 1.429 . S
C610 C602 1.574 . S
C610 H605 0.949 . S
C610 C616 1.368 . S
C611 C595 1.349 . S
C611 H603 0.950 . S
C611 C609 1.327 . S
C612 C600 1.349 . S
C612 H606 0.950 . S
C612 C613 1.327 . S
C613 H607 0.950 . S
C613 C612 1.327 . S
C613 C617 1.429 . S
C614 C597 1.574 . S
C614 H608 0.949 . S
C614 C618 1.368 . S
C615 C596 1.429 . S
C615 C609 1.429 . S
C615 C616 1.523 . S
C616 C597 1.368 . S
C616 C610 1.368 . S
C616 C615 1.523 . S
C617 C601 1.429 . S
C617 C613 1.429 . S
C617 C618 1.523 . S
C618 C602 1.368 . S
C618 C614 1.368 . S
C618 C617 1.523 . S
H619 C594 0.950 . S
H620 C596 0.950 . S
H621 C597 0.949 . S
H622 C599 0.950 . S
H623 C601 0.950 . S
C624 C625 1.349 . S
C624 C626 1.327 . S
C624 H649 0.950 . S
C625 C624 1.349 . S
C625 C641 1.349 . S
C626 C624 1.327 . S
C626 C645 1.429 . S
C626 H650 0.950 . S
C627 C644 1.574 . S
C627 C646 1.368 . S
C627 H651 0.949 . S
H628 C632 0.949 . S
C629 C630 1.349 . S
C629 C631 1.327 . S
C629 H652 0.950 . S
C630 C629 1.349 . S
C630 C642 1.349 . S
C631 C629 1.327 . S
C631 C647 1.429 . S
C631 H653 0.950 . S
C632 H628 0.949 . S
C632 C640 1.574 . S
C632 C648 1.368 . S
H633 C641 0.950 . S
H634 C639 0.950 . S
H635 C640 0.949 . S
H636 C642 0.950 . S
H637 C643 0.950 . S
H638 C644 0.949 . S
C639 H634 0.950 . S
C639 C641 1.327 . S
C639 C645 1.429 . S
C640 C632 1.574 . S
C640 H635 0.949 . S
C640 C646 1.368 . S
C641 C625 1.349 . S
C641 H633 0.950 . S
C641 C639 1.327 . S
C642 C630 1.349 . S
C642 H636 0.950 . S
C642 C643 1.327 . S
C643 H637 0.950 . S
C643 C642 1.327 . S
C643 C647 1.429 . S
C644 C627 1.574 . S
C644 H638 0.949 . S
C644 C648 1.368 . S
C645 C626 1.429 . S
C645 C639 1.429 . S
C645 C646 1.523 . S
C646 C627 1.368 . S
C646 C640 1.368 . S
C646 C645 1.523 . S
C647 C631 1.429 . S
C647 C643 1.429 . S
C647 C648 1.523 . S
C648 C632 1.368 . S
C648 C644 1.368 . S
C648 C647 1.523 . S
H649 C624 0.950 . S
H650 C626 0.950 . S
H651 C627 0.949 . S
H652 C629 0.950 . S
H653 C631 0.950 . S
C654 C655 1.357 . S
C654 C656 1.327 . S
C654 H679 0.950 . S
C655 C654 1.357 . S
C655 C671 1.341 1_655 S
C656 C654 1.327 . S
C656 C675 1.429 . S
C656 H680 0.950 . S
C657 C674 1.574 . S
C657 C676 1.368 1_455 S
C657 H681 0.949 . S
H658 C662 0.949 . S
C659 C660 1.349 1_455 S
C659 C661 1.327 . S
C659 H682 0.950 . S
C660 C659 1.349 1_655 S
C660 C672 1.349 . S
C661 C659 1.327 . S
C661 C677 1.429 1_455 S
C661 H683 0.950 . S
C662 H658 0.949 . S
C662 C670 1.574 . S
C662 C678 1.368 . S
H663 C671 0.950 . S
H664 C669 0.950 . S
H665 C670 0.949 . S
H666 C672 0.950 . S
H667 C673 0.950 . S
H668 C674 0.949 . S
C669 H664 0.950 . S
C669 C671 1.327 . S
C669 C675 1.429 1_455 S
C670 C662 1.574 . S
C670 H665 0.949 . S
C670 C676 1.368 . S
C671 C655 1.341 1_455 S
C671 H663 0.950 . S
C671 C669 1.327 . S
C672 C660 1.349 . S
C672 H666 0.950 . S
C672 C673 1.327 . S
C673 H667 0.950 . S
C673 C672 1.327 . S
C673 C677 1.429 . S
C674 C657 1.574 . S
C674 H668 0.949 . S
C674 C678 1.368 1_455 S
C675 C656 1.429 . S
C675 C669 1.429 1_655 S
C675 C676 1.523 . S
C676 C657 1.368 1_655 S
C676 C670 1.368 . S
C676 C675 1.523 . S
C677 C661 1.429 1_655 S
C677 C673 1.429 . S
C677 C678 1.523 . S
C678 C662 1.368 . S
C678 C674 1.368 1_655 S
C678 C677 1.523 . S
H679 C654 0.950 . S
H680 C656 0.950 . S
H681 C657 0.949 . S
H682 C659 0.950 . S
H683 C661 0.950 . S
C684 C685 1.349 1_556 S
C684 C686 1.327 . S
C684 H709 0.950 . S
C685 C684 1.349 1_554 S
C685 C701 1.349 . S
C686 C684 1.327 . S
C686 C705 1.429 . S
C686 H710 0.950 . S
C687 C704 1.574 . S
C687 C706 1.368 . S
C687 H711 0.949 1_556 S
H688 C692 0.949 . S
C689 C690 1.349 . S
C689 C691 1.327 . S
C689 H712 0.950 . S
C690 C689 1.349 . S
C690 C702 1.349 . S
C691 C689 1.327 . S
C691 C707 1.429 . S
C691 H713 0.950 . S
C692 H688 0.949 . S
C692 C700 1.574 . S
C692 C708 1.368 . S
H693 C701 0.950 . S
H694 C699 0.950 . S
H695 C700 0.949 . S
H696 C702 0.950 . S
H697 C703 0.950 . S
H698 C704 0.949 . S
C699 H694 0.950 . S
C699 C701 1.327 . S
C699 C705 1.429 1_554 S
C700 C692 1.574 . S
C700 H695 0.949 . S
C700 C706 1.368 . S
C701 C685 1.349 . S
C701 H693 0.950 . S
C701 C699 1.327 . S
C702 C690 1.349 . S
C702 H696 0.950 . S
C702 C703 1.327 . S
C703 H697 0.950 . S
C703 C702 1.327 . S
C703 C707 1.429 . S
C704 C687 1.574 . S
C704 H698 0.949 . S
C704 C708 1.368 . S
C705 C686 1.429 . S
C705 C699 1.429 1_556 S
C705 C706 1.523 . S
C706 C687 1.368 . S
C706 C700 1.368 . S
C706 C705 1.523 . S
C707 C691 1.429 . S
C707 C703 1.429 . S
C707 C708 1.523 . S
C708 C692 1.368 . S
C708 C704 1.368 . S
C708 C707 1.523 . S
H709 C684 0.950 . S
H710 C686 0.950 . S
H711 C687 0.949 1_554 S
H712 C689 0.950 . S
H713 C691 0.950 . S
C714 C715 1.349 . S
C714 C716 1.327 . S
C714 H739 0.950 . S
C715 C714 1.349 . S
C715 C731 1.349 . S
C716 C714 1.327 . S
C716 C735 1.429 1_554 S
C716 H740 0.950 . S
C717 C734 1.574 . S
C717 C736 1.368 . S
C717 H741 0.949 . S
H718 C722 0.949 . S
C719 C720 1.349 . S
C719 C721 1.327 . S
C719 H742 0.950 . S
C720 C719 1.349 . S
C720 C732 1.349 . S
C721 C719 1.327 . S
C721 C737 1.429 . S
C721 H743 0.950 . S
C722 H718 0.949 . S
C722 C730 1.574 . S
C722 C738 1.368 . S
H723 C731 0.950 1_556 S
H724 C729 0.950 . S
H725 C730 0.949 1_554 S
H726 C732 0.950 . S
H727 C733 0.950 . S
H728 C734 0.949 . S
C729 H724 0.950 . S
C729 C731 1.327 1_556 S
C729 C735 1.429 . S
C730 C722 1.574 . S
C730 H725 0.949 1_556 S
C730 C736 1.368 . S
C731 C715 1.349 . S
C731 H723 0.950 1_554 S
C731 C729 1.327 1_554 S
C732 C720 1.349 . S
C732 H726 0.950 . S
C732 C733 1.327 . S
C733 H727 0.950 . S
C733 C732 1.327 . S
C733 C737 1.429 . S
C734 C717 1.574 . S
C734 H728 0.949 . S
C734 C738 1.368 . S
C735 C716 1.429 1_556 S
C735 C729 1.429 . S
C735 C736 1.523 . S
C736 C717 1.368 . S
C736 C730 1.368 . S
C736 C735 1.523 . S
C737 C721 1.429 . S
C737 C733 1.429 . S
C737 C738 1.523 . S
C738 C722 1.368 . S
C738 C734 1.368 . S
C738 C737 1.523 . S
H739 C714 0.950 . S
H740 C716 0.950 . S
H741 C717 0.949 . S
H742 C719 0.950 . S
H743 C721 0.950 . S
C744 C745 1.349 . S
C744 C746 1.327 . S
C744 H769 0.950 . S
C745 C744 1.349 . S
C745 C761 1.349 1_554 S
C746 C744 1.327 . S
C746 C765 1.429 1_554 S
C746 H770 0.950 . S
C747 C764 1.574 . S
C747 C766 1.368 . S
C747 H771 0.949 . S
H748 C752 0.949 . S
C749 C750 1.349 . S
C749 C751 1.327 . S
C749 H772 0.950 . S
C750 C749 1.349 . S
C750 C762 1.349 . S
C751 C749 1.327 . S
C751 C767 1.429 . S
C751 H773 0.950 . S
C752 H748 0.949 . S
C752 C760 1.574 . S
C752 C768 1.368 . S
H753 C761 0.950 . S
H754 C759 0.950 . S
H755 C760 0.949 1_554 S
H756 C762 0.950 . S
H757 C763 0.950 . S
H758 C764 0.949 . S
C759 H754 0.950 . S
C759 C761 1.327 . S
C759 C765 1.429 . S
C760 C752 1.574 . S
C760 H755 0.949 1_556 S
C760 C766 1.368 . S
C761 C745 1.349 1_556 S
C761 H753 0.950 . S
C761 C759 1.327 . S
C762 C750 1.349 . S
C762 H756 0.950 . S
C762 C763 1.327 . S
C763 H757 0.950 . S
C763 C762 1.327 . S
C763 C767 1.429 . S
C764 C747 1.574 . S
C764 H758 0.949 . S
C764 C768 1.368 . S
C765 C746 1.429 1_556 S
C765 C759 1.429 . S
C765 C766 1.523 . S
C766 C747 1.368 . S
C766 C760 1.368 . S
C766 C765 1.523 . S
C767 C751 1.429 . S
C767 C763 1.429 . S
C767 C768 1.523 . S
C768 C752 1.368 . S
C768 C764 1.368 . S
C768 C767 1.523 . S
H769 C744 0.950 . S
H770 C746 0.950 . S
H771 C747 0.949 . S
H772 C749 0.950 . S
H773 C751 0.950 . S
C774 C775 1.341 1_655 S
C774 C776 1.327 . S
C774 H799 0.950 . S
C775 C774 1.341 1_455 S
C775 C791 1.356 . S
C776 C774 1.327 . S
C776 C795 1.429 1_654 S
C776 H800 0.950 . S
C777 C794 1.574 . S
C777 C796 1.368 . S
C777 H801 0.949 . S
H778 C782 0.949 . S
C779 C780 1.349 . S
C779 C781 1.327 . S
C779 H802 0.950 . S
C780 C779 1.349 . S
C780 C792 1.349 1_455 S
C781 C779 1.327 . S
C781 C797 1.429 . S
C781 H803 0.950 . S
C782 H778 0.949 . S
C782 C790 1.574 . S
C782 C798 1.368 1_655 S
H783 C791 0.950 . S
H784 C789 0.950 . S
H785 C790 0.949 . S
H786 C792 0.950 . S
H787 C793 0.950 . S
H788 C794 0.949 . S
C789 H784 0.950 . S
C789 C791 1.327 1_556 S
C789 C795 1.429 . S
C790 C782 1.574 . S
C790 H785 0.949 . S
C790 C796 1.368 1_655 S
C791 C775 1.356 . S
C791 H783 0.950 . S
C791 C789 1.327 1_554 S
C792 C780 1.349 1_655 S
C792 H786 0.950 . S
C792 C793 1.327 . S
C793 H787 0.950 . S
C793 C792 1.327 . S
C793 C797 1.429 1_655 S
C794 C777 1.574 . S
C794 H788 0.949 . S
C794 C798 1.368 . S
C795 C776 1.429 1_456 S
C795 C789 1.429 . S
C795 C796 1.523 . S
C796 C777 1.368 . S
C796 C790 1.368 1_455 S
C796 C795 1.523 . S
C797 C781 1.429 . S
C797 C793 1.429 1_455 S
C797 C798 1.523 . S
C798 C782 1.368 1_455 S
C798 C794 1.368 . S
C798 C797 1.523 . S
H799 C774 0.950 . S
H800 C776 0.950 . S
H801 C777 0.949 . S
H802 C779 0.950 . S
H803 C781 0.950 . S
C804 C805 1.349 1_655 S
C804 C806 1.327 . S
C804 H829 0.950 . S
C805 C804 1.349 1_455 S
C805 C821 1.349 . S
C806 C804 1.327 . S
C806 C825 1.429 . S
C806 H830 0.950 . S
C807 C824 1.574 . S
C807 C826 1.368 1_455 S
C807 H831 0.949 . S
H808 C812 0.949 . S
C809 C810 1.346 1_455 S
C809 C811 1.328 . S
C809 H832 0.952 . S
C810 C809 1.346 1_655 S
C810 C822 1.349 . S
C811 C809 1.328 . S
C811 C827 1.429 1_455 S
C811 H833 0.950 . S
C812 H808 0.949 . S
C812 C820 1.574 . S
C812 C828 1.368 . S
H813 C821 0.950 . S
H814 C819 0.950 . S
H815 C820 0.949 . S
H816 C822 0.950 . S
H817 C823 0.950 . S
H818 C824 0.949 . S
C819 H814 0.950 . S
C819 C821 1.327 . S
C819 C825 1.429 1_455 S
C820 C812 1.574 . S
C820 H815 0.949 . S
C820 C826 1.368 . S
C821 C805 1.349 . S
C821 H813 0.950 . S
C821 C819 1.327 . S
C822 C810 1.349 . S
C822 H816 0.950 . S
C822 C823 1.327 . S
C823 H817 0.950 . S
C823 C822 1.327 . S
C823 C827 1.429 . S
C824 C807 1.574 . S
C824 H818 0.949 . S
C824 C828 1.368 1_455 S
C825 C806 1.429 . S
C825 C819 1.429 1_655 S
C825 C826 1.523 . S
C826 C807 1.368 1_655 S
C826 C820 1.368 . S
C826 C825 1.523 . S
C827 C811 1.429 1_655 S
C827 C823 1.429 . S
C827 C828 1.523 . S
C828 C812 1.368 . S
C828 C824 1.368 1_655 S
C828 C827 1.523 . S
H829 C804 0.950 . S
H830 C806 0.950 . S
H831 C807 0.949 . S
H832 C809 0.952 . S
H833 C811 0.950 . S
C834 C835 1.349 . S
C834 C836 1.327 . S
C834 H859 0.950 . S
C835 C834 1.349 . S
C835 C851 1.349 . S
C836 C834 1.327 . S
C836 C855 1.429 . S
C836 H860 0.950 . S
C837 C854 1.574 . S
C837 C856 1.368 . S
C837 H861 0.949 . S
H838 C842 0.949 . S
C839 C840 1.349 . S
C839 C841 1.327 . S
C839 H862 0.950 . S
C840 C839 1.349 . S
C840 C852 1.349 . S
C841 C839 1.327 . S
C841 C857 1.429 . S
C841 H863 0.950 . S
C842 H838 0.949 . S
C842 C850 1.574 . S
C842 C858 1.368 . S
H843 C851 0.950 . S
H844 C849 0.950 . S
H845 C850 0.949 . S
H846 C852 0.950 . S
H847 C853 0.950 . S
H848 C854 0.949 . S
C849 H844 0.950 . S
C849 C851 1.327 . S
C849 C855 1.429 . S
C850 C842 1.574 . S
C850 H845 0.949 . S
C850 C856 1.368 . S
C851 C835 1.349 . S
C851 H843 0.950 . S
C851 C849 1.327 . S
C852 C840 1.349 . S
C852 H846 0.950 . S
C852 C853 1.327 . S
C853 H847 0.950 . S
C853 C852 1.327 . S
C853 C857 1.429 . S
C854 C837 1.574 . S
C854 H848 0.949 . S
C854 C858 1.368 . S
C855 C836 1.429 . S
C855 C849 1.429 . S
C855 C856 1.523 . S
C856 C837 1.368 . S
C856 C850 1.368 . S
C856 C855 1.523 . S
C857 C841 1.429 . S
C857 C853 1.429 . S
C857 C858 1.523 . S
C858 C842 1.368 . S
C858 C854 1.368 . S
C858 C857 1.523 . S
H859 C834 0.950 . S
H860 C836 0.950 . S
H861 C837 0.949 . S
H862 C839 0.950 . S
H863 C841 0.950 . S
C864 C865 1.349 . S
C864 C866 1.327 . S
C864 H889 0.950 . S
C865 C864 1.349 . S
C865 C881 1.349 . S
C866 C864 1.327 . S
C866 C885 1.429 . S
C866 H890 0.950 . S
C867 C884 1.574 . S
C867 C886 1.368 . S
C867 H891 0.949 . S
H868 C872 0.949 . S
C869 C870 1.349 . S
C869 C871 1.327 . S
C869 H892 0.950 . S
C870 C869 1.349 . S
C870 C882 1.349 . S
C871 C869 1.327 . S
C871 C887 1.429 . S
C871 H893 0.950 . S
C872 H868 0.949 . S
C872 C880 1.574 . S
C872 C888 1.368 . S
H873 C881 0.950 . S
H874 C879 0.950 . S
H875 C880 0.949 . S
H876 C882 0.950 . S
H877 C883 0.950 . S
H878 C884 0.949 . S
C879 H874 0.950 . S
C879 C881 1.327 . S
C879 C885 1.429 . S
C880 C872 1.574 . S
C880 H875 0.949 . S
C880 C886 1.368 . S
C881 C865 1.349 . S
C881 H873 0.950 . S
C881 C879 1.327 . S
C882 C870 1.349 . S
C882 H876 0.950 . S
C882 C883 1.327 . S
C883 H877 0.950 . S
C883 C882 1.327 . S
C883 C887 1.429 . S
C884 C867 1.574 . S
C884 H878 0.949 . S
C884 C888 1.368 . S
C885 C866 1.429 . S
C885 C879 1.429 . S
C885 C886 1.523 . S
C886 C867 1.368 . S
C886 C880 1.368 . S
C886 C885 1.523 . S
C887 C871 1.429 . S
C887 C883 1.429 . S
C887 C888 1.523 . S
C888 C872 1.368 . S
C888 C884 1.368 . S
C888 C887 1.523 . S
H889 C864 0.950 . S
H890 C866 0.950 . S
H891 C867 0.949 . S
H892 C869 0.950 . S
H893 C871 0.950 . S
C894 C895 1.349 . S
C894 C896 1.327 . S
C894 H919 0.950 . S
C895 C894 1.349 . S
C895 C911 1.349 . S
C896 C894 1.327 . S
C896 C915 1.429 . S
C896 H920 0.950 . S
C897 C914 1.574 . S
C897 C916 1.368 . S
C897 H921 0.949 . S
H898 C902 0.949 . S
C899 C900 1.349 . S
C899 C901 1.327 . S
C899 H922 0.950 . S
C900 C899 1.349 . S
C900 C912 1.349 . S
C901 C899 1.327 . S
C901 C917 1.429 . S
C901 H923 0.950 . S
C902 H898 0.949 . S
C902 C910 1.574 . S
C902 C918 1.368 . S
H903 C911 0.950 . S
H904 C909 0.950 . S
H905 C910 0.949 . S
H906 C912 0.950 . S
H907 C913 0.950 . S
H908 C914 0.949 . S
C909 H904 0.950 . S
C909 C911 1.327 . S
C909 C915 1.429 . S
C910 C902 1.574 . S
C910 H905 0.949 . S
C910 C916 1.368 . S
C911 C895 1.349 . S
C911 H903 0.950 . S
C911 C909 1.327 . S
C912 C900 1.349 . S
C912 H906 0.950 . S
C912 C913 1.327 . S
C913 H907 0.950 . S
C913 C912 1.327 . S
C913 C917 1.429 . S
C914 C897 1.574 . S
C914 H908 0.949 . S
C914 C918 1.368 . S
C915 C896 1.429 . S
C915 C909 1.429 . S
C915 C916 1.523 . S
C916 C897 1.368 . S
C916 C910 1.368 . S
C916 C915 1.523 . S
C917 C901 1.429 . S
C917 C913 1.429 . S
C917 C918 1.523 . S
C918 C902 1.368 . S
C918 C914 1.368 . S
C918 C917 1.523 . S
H919 C894 0.950 . S
H920 C896 0.950 . S
H921 C897 0.949 . S
H922 C899 0.950 . S
H923 C901 0.950 . S
C924 C925 1.349 1_455 S
C924 C926 1.327 . S
C924 H949 0.950 . S
C925 C924 1.349 1_655 S
C925 C941 1.349 . S
C926 C924 1.327 . S
C926 C945 1.429 . S
C926 H950 0.950 . S
C927 C944 1.574 . S
C927 C946 1.368 1_655 S
C927 H951 0.949 . S
H928 C932 0.949 . S
C929 C930 1.349 1_655 S
C929 C931 1.327 . S
C929 H952 0.950 . S
C930 C929 1.349 1_455 S
C930 C942 1.349 . S
C931 C929 1.327 . S
C931 C947 1.429 1_655 S
C931 H953 0.950 . S
C932 H928 0.949 . S
C932 C940 1.574 . S
C932 C948 1.368 . S
H933 C941 0.950 . S
H934 C939 0.950 . S
H935 C940 0.949 . S
H936 C942 0.950 . S
H937 C943 0.950 . S
H938 C944 0.949 . S
C939 H934 0.950 . S
C939 C941 1.327 . S
C939 C945 1.429 1_655 S
C940 C932 1.574 . S
C940 H935 0.949 . S
C940 C946 1.368 . S
C941 C925 1.349 . S
C941 H933 0.950 . S
C941 C939 1.327 . S
C942 C930 1.349 . S
C942 H936 0.950 . S
C942 C943 1.327 . S
C943 H937 0.950 . S
C943 C942 1.327 . S
C943 C947 1.429 . S
C944 C927 1.574 . S
C944 H938 0.949 . S
C944 C948 1.368 1_655 S
C945 C926 1.429 . S
C945 C939 1.429 1_455 S
C945 C946 1.523 . S
C946 C927 1.368 1_455 S
C946 C940 1.368 . S
C946 C945 1.523 . S
C947 C931 1.429 1_455 S
C947 C943 1.429 . S
C947 C948 1.523 . S
C948 C932 1.368 . S
C948 C944 1.368 1_455 S
C948 C947 1.523 . S
H949 C924 0.950 . S
H950 C926 0.950 . S
H951 C927 0.949 . S
H952 C929 0.950 . S
H953 C931 0.950 . S
C954 C955 1.349 . S
C954 C956 1.327 . S
C954 H979 0.950 . S
C955 C954 1.349 . S
C955 C971 1.349 . S
C956 C954 1.327 . S
C956 C975 1.429 . S
C956 H980 0.950 . S
C957 C974 1.574 . S
C957 C976 1.368 . S
C957 H981 0.949 . S
H958 C962 0.949 . S
C959 C960 1.349 . S
C959 C961 1.327 1_545 S
C959 H982 0.950 . S
C960 C959 1.349 . S
C960 C972 1.349 1_545 S
C961 C959 1.327 1_565 S
C961 C977 1.429 . S
C961 H983 0.950 1_565 S
C962 H958 0.949 . S
C962 C970 1.574 . S
C962 C978 1.368 . S
H963 C971 0.950 . S
H964 C969 0.950 . S
H965 C970 0.949 . S
H966 C972 0.950 . S
H967 C973 0.950 . S
H968 C974 0.949 . S
C969 H964 0.950 . S
C969 C971 1.327 . S
C969 C975 1.429 . S
C970 C962 1.574 . S
C970 H965 0.949 . S
C970 C976 1.368 . S
C971 C955 1.349 . S
C971 H963 0.950 . S
C971 C969 1.327 . S
C972 C960 1.349 1_565 S
C972 H966 0.950 . S
C972 C973 1.327 . S
C973 H967 0.950 . S
C973 C972 1.327 . S
C973 C977 1.429 . S
C974 C957 1.574 . S
C974 H968 0.949 . S
C974 C978 1.368 . S
C975 C956 1.429 . S
C975 C969 1.429 . S
C975 C976 1.523 . S
C976 C957 1.368 . S
C976 C970 1.368 . S
C976 C975 1.523 . S
C977 C961 1.429 . S
C977 C973 1.429 . S
C977 C978 1.523 . S
C978 C962 1.368 . S
C978 C974 1.368 . S
C978 C977 1.523 . S
H979 C954 0.950 . S
H980 C956 0.950 . S
H981 C957 0.949 . S
H982 C959 0.950 . S
H983 C961 0.950 1_545 S
C984 C985 1.349 . S
C984 C986 1.327 . S
C984 H1009 0.950 . S
C985 C984 1.349 . S
C985 C1001 1.349 . S
C986 C984 1.327 . S
C986 C1005 1.429 . S
C986 H1010 0.950 . S
C987 C1004 1.574 . S
C987 C1006 1.368 . S
C987 H1011 0.949 . S
H988 C992 0.949 . S
C989 C990 1.349 . S
C989 C991 1.327 . S
C989 H1012 0.950 . S
C990 C989 1.349 . S
C990 C1002 1.349 . S
C991 C989 1.327 . S
C991 C1007 1.429 . S
C991 H1013 0.950 . S
C992 H988 0.949 . S
C992 C1000 1.574 . S
C992 C1008 1.368 . S
H993 C1001 0.950 1_554 S
H994 C999 0.950 . S
H995 C1000 0.949 . S
H996 C1002 0.950 . S
H997 C1003 0.950 . S
H998 C1004 0.949 . S
C999 H994 0.950 . S
C999 C1001 1.327 . S
C999 C1005 1.429 . S
C1000 C992 1.574 . S
C1000 H995 0.949 . S
C1000 C1006 1.368 . S
C1001 C985 1.349 . S
C1001 H993 0.950 1_556 S
C1001 C999 1.327 . S
C1002 C990 1.349 . S
C1002 H996 0.950 . S
C1002 C1003 1.327 . S
C1003 H997 0.950 . S
C1003 C1002 1.327 . S
C1003 C1007 1.429 . S
C1004 C987 1.574 . S
C1004 H998 0.949 . S
C1004 C1008 1.368 . S
C1005 C986 1.429 . S
C1005 C999 1.429 . S
C1005 C1006 1.523 . S
C1006 C987 1.368 . S
C1006 C1000 1.368 . S
C1006 C1005 1.523 . S
C1007 C991 1.429 . S
C1007 C1003 1.429 . S
C1007 C1008 1.523 . S
C1008 C992 1.368 . S
C1008 C1004 1.368 . S
C1008 C1007 1.523 . S
H1009 C984 0.950 . S
H1010 C986 0.950 . S
H1011 C987 0.949 . S
H1012 C989 0.950 . S
H1013 C991 0.950 . S
C1014 C1015 1.349 . S
C1014 C1016 1.327 . S
C1014 H1039 0.950 . S
C1015 C1014 1.349 . S
C1015 C1031 1.349 . S
C1016 C1014 1.327 . S
C1016 C1035 1.429 . S
C1016 H1040 0.950 . S
C1017 C1034 1.574 . S
C1017 C1036 1.368 . S
C1017 H1041 0.949 . S
H1018 C1022 0.949 . S
C1019 C1020 1.349 . S
C1019 C1021 1.327 . S
C1019 H1042 0.950 . S
C1020 C1019 1.349 . S
C1020 C1032 1.349 . S
C1021 C1019 1.327 . S
C1021 C1037 1.429 . S
C1021 H1043 0.950 . S
C1022 H1018 0.949 . S
C1022 C1030 1.574 . S
C1022 C1038 1.368 . S
H1023 C1031 0.950 . S
H1024 C1029 0.950 . S
H1025 C1030 0.949 . S
H1026 C1032 0.950 . S
H1027 C1033 0.950 . S
H1028 C1034 0.949 . S
C1029 H1024 0.950 . S
C1029 C1031 1.327 . S
C1029 C1035 1.429 . S
C1030 C1022 1.574 . S
C1030 H1025 0.949 . S
C1030 C1036 1.368 . S
C1031 C1015 1.349 . S
C1031 H1023 0.950 . S
C1031 C1029 1.327 . S
C1032 C1020 1.349 . S
C1032 H1026 0.950 . S
C1032 C1033 1.327 . S
C1033 H1027 0.950 . S
C1033 C1032 1.327 . S
C1033 C1037 1.429 . S
C1034 C1017 1.574 . S
C1034 H1028 0.949 . S
C1034 C1038 1.368 . S
C1035 C1016 1.429 . S
C1035 C1029 1.429 . S
C1035 C1036 1.523 . S
C1036 C1017 1.368 . S
C1036 C1030 1.368 . S
C1036 C1035 1.523 . S
C1037 C1021 1.429 . S
C1037 C1033 1.429 . S
C1037 C1038 1.523 . S
C1038 C1022 1.368 . S
C1038 C1034 1.368 . S
C1038 C1037 1.523 . S
H1039 C1014 0.950 . S
H1040 C1016 0.950 . S
H1041 C1017 0.949 . S
H1042 C1019 0.950 . S
H1043 C1021 0.950 . S
C1044 C1045 1.374 . S
C1044 C1046 1.327 1_554 S
C1044 H1069 0.950 . S
C1045 C1044 1.374 . S
C1045 C1061 1.326 1_455 S
C1046 C1044 1.327 1_556 S
C1046 C1065 1.429 1_556 S
C1046 H1070 0.950 . S
C1047 C1064 1.574 1_554 S
C1047 C1066 1.368 1_654 S
C1047 H1071 0.949 . S
H1048 C1052 0.949 . S
C1049 C1050 1.349 1_655 S
C1049 C1051 1.327 . S
C1049 H1072 0.950 . S
C1050 C1049 1.349 1_455 S
C1050 C1062 1.349 . S
C1051 C1049 1.327 . S
C1051 C1067 1.429 1_655 S
C1051 H1073 0.950 . S
C1052 H1048 0.949 . S
C1052 C1060 1.574 . S
C1052 C1068 1.368 . S
H1053 C1061 0.950 . S
H1054 C1059 0.950 . S
H1055 C1060 0.949 . S
H1056 C1062 0.950 . S
H1057 C1063 0.950 . S
H1058 C1064 0.949 . S
C1059 H1054 0.950 . S
C1059 C1061 1.327 . S
C1059 C1065 1.429 1_655 S
C1060 C1052 1.574 . S
C1060 H1055 0.949 . S
C1060 C1066 1.368 . S
C1061 C1045 1.326 1_655 S
C1061 H1053 0.950 . S
C1061 C1059 1.327 . S
C1062 C1050 1.349 . S
C1062 H1056 0.950 . S
C1062 C1063 1.327 . S
C1063 H1057 0.950 . S
C1063 C1062 1.327 . S
C1063 C1067 1.429 . S
C1064 C1047 1.574 1_556 S
C1064 H1058 0.949 . S
C1064 C1068 1.368 1_655 S
C1065 C1046 1.429 1_554 S
C1065 C1059 1.429 1_455 S
C1065 C1066 1.523 1_554 S
C1066 C1047 1.368 1_456 S
C1066 C1060 1.368 . S
C1066 C1065 1.523 1_556 S
C1067 C1051 1.429 1_455 S
C1067 C1063 1.429 . S
C1067 C1068 1.523 . S
C1068 C1052 1.368 . S
C1068 C1064 1.368 1_455 S
C1068 C1067 1.523 . S
H1069 C1044 0.950 . S
H1070 C1046 0.950 . S
H1071 C1047 0.949 . S
H1072 C1049 0.950 . S
H1073 C1051 0.950 . S
C1074 C1075 1.349 . S
C1074 C1076 1.327 . S
C1074 H1099 0.950 . S
C1075 C1074 1.349 . S
C1075 C1091 1.349 . S
C1076 C1074 1.327 . S
C1076 C1095 1.429 . S
C1076 H1100 0.950 . S
C1077 C1094 1.574 . S
C1077 C1096 1.368 . S
C1077 H1101 0.949 . S
H1078 C1082 0.949 . S
C1079 C1080 1.349 . S
C1079 C1081 1.327 . S
C1079 H1102 0.950 . S
C1080 C1079 1.349 . S
C1080 C1092 1.349 . S
C1081 C1079 1.327 . S
C1081 C1097 1.429 . S
C1081 H1103 0.950 . S
C1082 H1078 0.949 . S
C1082 C1090 1.574 1_556 S
C1082 C1098 1.368 . S
H1083 C1091 0.950 . S
H1084 C1089 0.950 1_556 S
H1085 C1090 0.949 . S
H1086 C1092 0.950 . S
H1087 C1093 0.950 . S
H1088 C1094 0.949 . S
C1089 H1084 0.950 1_554 S
C1089 C1091 1.327 . S
C1089 C1095 1.429 . S
C1090 C1082 1.574 1_554 S
C1090 H1085 0.949 . S
C1090 C1096 1.368 1_554 S
C1091 C1075 1.349 . S
C1091 H1083 0.950 . S
C1091 C1089 1.327 . S
C1092 C1080 1.349 . S
C1092 H1086 0.950 . S
C1092 C1093 1.327 . S
C1093 H1087 0.950 . S
C1093 C1092 1.327 . S
C1093 C1097 1.429 . S
C1094 C1077 1.574 . S
C1094 H1088 0.949 . S
C1094 C1098 1.368 . S
C1095 C1076 1.429 . S
C1095 C1089 1.429 . S
C1095 C1096 1.523 1_554 S
C1096 C1077 1.368 . S
C1096 C1090 1.368 1_556 S
C1096 C1095 1.523 1_556 S
C1097 C1081 1.429 . S
C1097 C1093 1.429 . S
C1097 C1098 1.523 . S
C1098 C1082 1.368 . S
C1098 C1094 1.368 . S
C1098 C1097 1.523 . S
H1099 C1074 0.950 . S
H1100 C1076 0.950 . S
H1101 C1077 0.949 . S
H1102 C1079 0.950 . S
H1103 C1081 0.950 . S
C1104 C1105 1.349 . S
C1104 C1106 1.327 1_554 S
C1104 H1129 0.950 . S
C1105 C1104 1.349 . S
C1105 C1121 1.349 . S
C1106 C1104 1.327 1_556 S
C1106 C1125 1.429 1_556 S
C1106 H1130 0.950 . S
C1107 C1124 1.574 1_554 S
C1107 C1126 1.368 1_554 S
C1107 H1131 0.949 . S
H1108 C1112 0.949 . S
C1109 C1110 1.349 . S
C1109 C1111 1.327 . S
C1109 H1132 0.950 . S
C1110 C1109 1.349 . S
C1110 C1122 1.349 . S
C1111 C1109 1.327 . S
C1111 C1127 1.429 . S
C1111 H1133 0.950 . S
C1112 H1108 0.949 . S
C1112 C1120 1.574 . S
C1112 C1128 1.368 . S
H1113 C1121 0.950 . S
H1114 C1119 0.950 . S
H1115 C1120 0.949 . S
H1116 C1122 0.950 . S
H1117 C1123 0.950 . S
H1118 C1124 0.949 . S
C1119 H1114 0.950 . S
C1119 C1121 1.327 . S
C1119 C1125 1.429 . S
C1120 C1112 1.574 . S
C1120 H1115 0.949 . S
C1120 C1126 1.368 . S
C1121 C1105 1.349 . S
C1121 H1113 0.950 . S
C1121 C1119 1.327 . S
C1122 C1110 1.349 . S
C1122 H1116 0.950 . S
C1122 C1123 1.327 . S
C1123 H1117 0.950 . S
C1123 C1122 1.327 . S
C1123 C1127 1.429 . S
C1124 C1107 1.574 1_556 S
C1124 H1118 0.949 . S
C1124 C1128 1.368 . S
C1125 C1106 1.429 1_554 S
C1125 C1119 1.429 . S
C1125 C1126 1.523 1_554 S
C1126 C1107 1.368 1_556 S
C1126 C1120 1.368 . S
C1126 C1125 1.523 1_556 S
C1127 C1111 1.429 . S
C1127 C1123 1.429 . S
C1127 C1128 1.523 . S
C1128 C1112 1.368 . S
C1128 C1124 1.368 . S
C1128 C1127 1.523 . S
H1129 C1104 0.950 . S
H1130 C1106 0.950 . S
H1131 C1107 0.949 . S
H1132 C1109 0.950 . S
H1133 C1111 0.950 . S
C1134 C1135 1.349 . S
C1134 C1136 1.327 . S
C1134 H1159 0.950 . S
C1135 C1134 1.349 . S
C1135 C1151 1.349 . S
C1136 C1134 1.327 . S
C1136 C1155 1.429 . S
C1136 H1160 0.950 . S
C1137 C1154 1.574 . S
C1137 C1156 1.368 . S
C1137 H1161 0.949 . S
H1138 C1142 0.949 . S
C1139 C1140 1.349 . S
C1139 C1141 1.327 . S
C1139 H1162 0.950 . S
C1140 C1139 1.349 . S
C1140 C1152 1.349 . S
C1141 C1139 1.327 . S
C1141 C1157 1.429 . S
C1141 H1163 0.950 . S
C1142 H1138 0.949 . S
C1142 C1150 1.574 1_556 S
C1142 C1158 1.368 . S
H1143 C1151 0.950 . S
H1144 C1149 0.950 1_556 S
H1145 C1150 0.949 . S
H1146 C1152 0.950 . S
H1147 C1153 0.950 . S
H1148 C1154 0.949 . S
C1149 H1144 0.950 1_554 S
C1149 C1151 1.327 . S
C1149 C1155 1.429 . S
C1150 C1142 1.574 1_554 S
C1150 H1145 0.949 . S
C1150 C1156 1.368 1_554 S
C1151 C1135 1.349 . S
C1151 H1143 0.950 . S
C1151 C1149 1.327 . S
C1152 C1140 1.349 . S
C1152 H1146 0.950 . S
C1152 C1153 1.327 . S
C1153 H1147 0.950 . S
C1153 C1152 1.327 . S
C1153 C1157 1.429 . S
C1154 C1137 1.574 . S
C1154 H1148 0.949 . S
C1154 C1158 1.368 . S
C1155 C1136 1.429 . S
C1155 C1149 1.429 . S
C1155 C1156 1.523 1_554 S
C1156 C1137 1.368 . S
C1156 C1150 1.368 1_556 S
C1156 C1155 1.523 1_556 S
C1157 C1141 1.429 . S
C1157 C1153 1.429 . S
C1157 C1158 1.523 . S
C1158 C1142 1.368 . S
C1158 C1154 1.368 . S
C1158 C1157 1.523 . S
H1159 C1134 0.950 . S
H1160 C1136 0.950 . S
H1161 C1137 0.949 . S
H1162 C1139 0.950 . S
H1163 C1141 0.950 . S
C1164 C1165 1.387 . S
C1164 C1166 1.327 . S
C1164 H1189 0.950 . S
C1165 C1164 1.387 . S
C1165 C1181 1.312 1_655 S
C1166 C1164 1.327 . S
C1166 C1185 1.429 . S
C1166 H1190 0.950 . S
C1167 C1184 1.574 . S
C1167 C1186 1.368 1_455 S
C1167 H1191 0.949 . S
H1168 C1172 0.949 . S
C1169 C1170 1.349 1_455 S
C1169 C1171 1.327 . S
C1169 H1192 0.950 . S
C1170 C1169 1.349 1_655 S
C1170 C1182 1.349 . S
C1171 C1169 1.327 . S
C1171 C1187 1.429 1_455 S
C1171 H1193 0.950 . S
C1172 H1168 0.949 . S
C1172 C1180 1.574 . S
C1172 C1188 1.368 . S
H1173 C1181 0.950 . S
H1174 C1179 0.950 . S
H1175 C1180 0.949 . S
H1176 C1182 0.950 . S
H1177 C1183 0.950 . S
H1178 C1184 0.949 . S
C1179 H1174 0.950 . S
C1179 C1181 1.327 . S
C1179 C1185 1.429 1_455 S
C1180 C1172 1.574 . S
C1180 H1175 0.949 . S
C1180 C1186 1.368 . S
C1181 C1165 1.312 1_455 S
C1181 H1173 0.950 . S
C1181 C1179 1.327 . S
C1182 C1170 1.349 . S
C1182 H1176 0.950 . S
C1182 C1183 1.327 . S
C1183 H1177 0.950 . S
C1183 C1182 1.327 . S
C1183 C1187 1.429 . S
C1184 C1167 1.574 . S
C1184 H1178 0.949 . S
C1184 C1188 1.368 1_455 S
C1185 C1166 1.429 . S
C1185 C1179 1.429 1_655 S
C1185 C1186 1.523 . S
C1186 C1167 1.368 1_655 S
C1186 C1180 1.368 . S
C1186 C1185 1.523 . S
C1187 C1171 1.429 1_655 S
C1187 C1183 1.429 . S
C1187 C1188 1.523 . S
C1188 C1172 1.368 . S
C1188 C1184 1.368 1_655 S
C1188 C1187 1.523 . S
H1189 C1164 0.950 . S
H1190 C1166 0.950 . S
H1191 C1167 0.949 . S
H1192 C1169 0.950 . S
H1193 C1171 0.950 . S
C1194 C1195 1.349 . S
C1194 C1196 1.327 . S
C1194 H1219 0.950 . S
C1195 C1194 1.349 . S
C1195 C1211 1.349 . S
C1196 C1194 1.327 . S
C1196 C1215 1.429 . S
C1196 H1220 0.950 . S
C1197 C1214 1.574 . S
C1197 C1216 1.368 . S
C1197 H1221 0.949 . S
H1198 C1202 0.949 . S
C1199 C1200 1.349 . S
C1199 C1201 1.327 . S
C1199 H1222 0.950 . S
C1200 C1199 1.349 . S
C1200 C1212 1.349 . S
C1201 C1199 1.327 . S
C1201 C1217 1.429 . S
C1201 H1223 0.950 . S
C1202 H1198 0.949 . S
C1202 C1210 1.574 . S
C1202 C1218 1.368 . S
H1203 C1211 0.950 . S
H1204 C1209 0.950 . S
H1205 C1210 0.949 . S
H1206 C1212 0.973 . S
H1207 C1213 0.950 . S
H1208 C1214 0.949 . S
C1209 H1204 0.950 . S
C1209 C1211 1.327 . S
C1209 C1215 1.429 . S
C1210 C1202 1.574 . S
C1210 H1205 0.949 . S
C1210 C1216 1.368 . S
C1211 C1195 1.349 . S
C1211 H1203 0.950 . S
C1211 C1209 1.327 . S
C1212 C1200 1.349 . S
C1212 H1206 0.973 . S
C1212 C1213 1.327 . S
C1213 H1207 0.950 . S
C1213 C1212 1.327 . S
C1213 C1217 1.429 . S
C1214 C1197 1.574 . S
C1214 H1208 0.949 . S
C1214 C1218 1.368 . S
C1215 C1196 1.429 . S
C1215 C1209 1.429 . S
C1215 C1216 1.523 . S
C1216 C1197 1.368 . S
C1216 C1210 1.368 . S
C1216 C1215 1.523 . S
C1217 C1201 1.429 . S
C1217 C1213 1.429 . S
C1217 C1218 1.523 . S
C1218 C1202 1.368 . S
C1218 C1214 1.368 . S
C1218 C1217 1.523 . S
H1219 C1194 0.950 . S
H1220 C1196 0.950 . S
H1221 C1197 0.949 . S
H1222 C1199 0.950 . S
H1223 C1201 0.950 . S
C1224 C1225 1.349 . S
C1224 C1226 1.327 . S
C1224 H1249 0.950 . S
C1225 C1224 1.349 . S
C1225 C1241 1.349 . S
C1226 C1224 1.327 . S
C1226 C1245 1.429 . S
C1226 H1250 0.950 . S
C1227 C1244 1.574 . S
C1227 C1246 1.368 . S
C1227 H1251 0.949 . S
H1228 C1232 0.949 . S
C1229 C1230 1.349 . S
C1229 C1231 1.327 . S
C1229 H1252 0.950 . S
C1230 C1229 1.349 . S
C1230 C1242 1.349 . S
C1231 C1229 1.327 . S
C1231 C1247 1.429 . S
C1231 H1253 0.950 . S
C1232 H1228 0.949 . S
C1232 C1240 1.574 . S
C1232 C1248 1.368 . S
H1233 C1241 0.950 . S
H1234 C1239 0.950 . S
H1235 C1240 0.949 . S
H1236 C1242 0.950 . S
H1237 C1243 0.950 . S
H1238 C1244 0.949 . S
C1239 H1234 0.950 . S
C1239 C1241 1.327 . S
C1239 C1245 1.429 . S
C1240 C1232 1.574 . S
C1240 H1235 0.949 . S
C1240 C1246 1.368 . S
C1241 C1225 1.349 . S
C1241 H1233 0.950 . S
C1241 C1239 1.327 . S
C1242 C1230 1.349 . S
C1242 H1236 0.950 . S
C1242 C1243 1.327 . S
C1243 H1237 0.950 . S
C1243 C1242 1.327 . S
C1243 C1247 1.429 . S
C1244 C1227 1.574 . S
C1244 H1238 0.949 . S
C1244 C1248 1.368 . S
C1245 C1226 1.429 . S
C1245 C1239 1.429 . S
C1245 C1246 1.523 . S
C1246 C1227 1.368 . S
C1246 C1240 1.368 . S
C1246 C1245 1.523 . S
C1247 C1231 1.429 . S
C1247 C1243 1.429 . S
C1247 C1248 1.523 . S
C1248 C1232 1.368 . S
C1248 C1244 1.368 . S
C1248 C1247 1.523 . S
H1249 C1224 0.950 . S
H1250 C1226 0.950 . S
H1251 C1227 0.949 . S
H1252 C1229 0.950 . S
H1253 C1231 0.950 . S
C1254 C1255 1.349 . S
C1254 C1256 1.327 . S
C1254 H1279 0.950 . S
C1255 C1254 1.349 . S
C1255 C1271 1.349 . S
C1256 C1254 1.327 . S
C1256 C1275 1.429 . S
C1256 H1280 0.950 . S
C1257 C1274 1.574 . S
C1257 C1276 1.368 . S
C1257 H1281 0.949 . S
H1258 C1262 0.949 . S
C1259 C1260 1.349 . S
C1259 C1261 1.327 . S
C1259 H1282 0.950 . S
C1260 C1259 1.349 . S
C1260 C1272 1.349 . S
C1261 C1259 1.327 . S
C1261 C1277 1.429 . S
C1261 H1283 0.950 . S
C1262 H1258 0.949 . S
C1262 C1270 1.574 . S
C1262 C1278 1.368 . S
H1263 C1271 0.950 . S
H1264 C1269 0.950 . S
H1265 C1270 0.949 . S
H1266 C1272 0.950 . S
H1267 C1273 0.950 . S
H1268 C1274 0.949 . S
C1269 H1264 0.950 . S
C1269 C1271 1.327 . S
C1269 C1275 1.429 . S
C1270 C1262 1.574 . S
C1270 H1265 0.949 . S
C1270 C1276 1.368 . S
C1271 C1255 1.349 . S
C1271 H1263 0.950 . S
C1271 C1269 1.327 . S
C1272 C1260 1.349 . S
C1272 H1266 0.950 . S
C1272 C1273 1.327 . S
C1273 H1267 0.950 . S
C1273 C1272 1.327 . S
C1273 C1277 1.429 . S
C1274 C1257 1.574 . S
C1274 H1268 0.949 . S
C1274 C1278 1.368 . S
C1275 C1256 1.429 . S
C1275 C1269 1.429 . S
C1275 C1276 1.523 . S
C1276 C1257 1.368 . S
C1276 C1270 1.368 . S
C1276 C1275 1.523 . S
C1277 C1261 1.429 . S
C1277 C1273 1.429 . S
C1277 C1278 1.523 . S
C1278 C1262 1.368 . S
C1278 C1274 1.368 . S
C1278 C1277 1.523 . S
H1279 C1254 0.950 . S
H1280 C1256 0.950 . S
H1281 C1257 0.949 . S
H1282 C1259 0.950 . S
H1283 C1261 0.950 . S
C565 C391 1.981 . S
C570 C496 1.815 . S
C600 C514 1.311 . S
C595 C451 1.519 . S
C630 C535 1.790 . S
C625 C241 1.764 . S
C660 C559 1.337 . S
C655 C331 1.422 . S
C690 C493 1.717 1_565 S
C685 C121 1.768 . S
C715 C211 1.408 . S
C720 C517 1.217 . S
C745 C31 1.775 . S
C750 C538 1.690 . S
C775 C91 1.322 1_455 S
C780 C556 1.243 . S
C810 C498 0.498 . S
C805 C301 0.678 1_455 S
C840 C516 0.423 . S
C835 C380 0.379 . S
C870 C537 0.487 . S
C865 C440 0.244 . S
C895 C260 0.695 . S
C900 C561 0.423 . S
C925 C61 0.545 . S
C930 C497 0.325 . S
C960 C515 0.386 . S
C955 C140 0.525 . S
C990 C536 0.327 . S
C985 C200 0.157 . S
C1015 C20 0.560 . S
C1020 C560 0.372 . S
C1045 C320 1.891 1_455 S
C1050 C494 1.825 . S
C1075 C361 2.001 . S
C1080 C518 2.115 . S
C1110 C539 1.791 . S
C1105 C421 1.658 . S
C1140 C557 2.144 . S
C1135 C271 2.142 . S
C1165 C80 1.750 . S
C1170 C495 1.681 . S
C1200 C519 1.959 . S
C1195 C151 2.042 . S
C1230 C540 1.643 . S
C1225 C181 1.537 . S
C1255 C1 1.809 . S
C1260 C558 1.988 . S
