# Generated by pormake.
# Topology pts, (4,4)-cn, num edge types: 1
# Building blocks:
#     Node 0, Type 0, BuildingBlock: AZAVOO_clean_linker_0, # of connection points: 4
#     Node 1, Type 0, BuildingBlock: AZAVOO_clean_linker_0, # of connection points: 4
#     Node 2, Type 1, BuildingBlock: AZAVOO_clean_sbu_0, # of connection points: 4
#     Node 3, Type 1, BuildingBlock: AZAVOO_clean_sbu_0, # of connection points: 4
#     Edge 4, Type (0, 1), BuildingBlock: FUNLAD_clean_linker_1, # of connection points: 2
#     Edge 5, Type (0, 1), BuildingBlock: FUNLAD_clean_linker_1, # of connection points: 2
#     Edge 6, Type (0, 1), BuildingBlock: FUNLAD_clean_linker_1, # of connection points: 2
#     Edge 7, Type (0, 1), BuildingBlock: FUNLAD_clean_linker_1, # of connection points: 2
#     Edge 8, Type (0, 1), BuildingBlock: FUNLAD_clean_linker_1, # of connection points: 2
#     Edge 9, Type (0, 1), BuildingBlock: FUNLAD_clean_linker_1, # of connection points: 2
#     Edge 10, Type (0, 1), BuildingBlock: FUNLAD_clean_linker_1, # of connection points: 2
#     Edge 11, Type (0, 1), BuildingBlock: FUNLAD_clean_linker_1, # of connection points: 2
# Relax obj value: 0.119
# Max RMSD: 0.230
# Mean RMSD: 0.159
data_MOF--net-pts--node1-AZAVOO_clean_sbu_0--node2-AZAVOO_clean_linker_0--edge1-FUNLAD_clean_linker_1
_symmetry_space_group_name_H-M    P1
_symmetry_Int_Tables_number       1
_symmetry_cell_setting            triclinic
loop_
_symmetry_equiv_pos_as_xyz
'x, y, z'
_cell_length_a     27.333373
_cell_length_b     27.939828
_cell_length_c     48.304225
_cell_angle_alpha  91.760079
_cell_angle_beta   98.457247
_cell_angle_gamma 89.790326
loop_
_atom_site_label
_atom_site_type_symbol
_atom_site_fract_x
_atom_site_fract_y
_atom_site_fract_z
_atom_type_partial_charge
H0 H 0.47321 0.0939 0.81127 0.0
H1 H 0.85669 0.96214 0.06213 0.0
H2 H 0.45523 0.13331 0.96027 0.0
H3 H 0.37648 0.13723 0.92903 0.0
H4 H 0.34661 0.99026 0.947 0.0
H5 H 0.4249 0.9872 0.97815 0.0
H6 H 0.54961 0.12048 0.9304 0.0
H7 H 0.5237 0.12251 0.87973 0.0
H8 H 0.45831 0.982 0.88103 0.0
H9 H 0.4851 0.98019 0.9316 0.0
H10 H 0.65279 0.10999 0.96817 0.0
H11 H 0.71404 0.10408 0.93617 0.0
H12 H 0.66139 0.96168 0.90985 0.0
H13 H 0.60066 0.96781 0.94245 0.0
H14 H 0.66314 0.10772 0.03246 0.0
H15 H 0.74858 0.09507 0.0544 0.0
H16 H 0.73809 0.94638 0.02655 0.0
H17 H 0.65238 0.9594 0.0051 0.0
H18 H 0.58066 0.11799 0.06212 0.0
H19 H 0.62992 0.11367 0.10867 0.0
H20 H 0.63277 0.95942 0.09963 0.0
H21 H 0.58381 0.96415 0.05305 0.0
H22 H 0.45985 0.12917 0.02611 0.0
H23 H 0.40025 0.13474 0.05898 0.0
H24 H 0.421 0.98406 0.07544 0.0
H25 H 0.48092 0.97923 0.04249 0.0
O26 O 0.48336 0.09225 0.83128 0.0
O27 O 0.44969 0.0203 0.83318 0.0
O28 O 0.82526 0.04396 0.06913 0.0
O29 O 0.82315 0.96824 0.05341 0.0
C30 C 0.49819 0.05371 0.98363 0.0
C31 C 0.53422 0.0494 0.96543 0.0
C32 C 0.5845 0.04362 0.97648 0.0
C33 C 0.59881 0.04147 0.00562 0.0
C34 C 0.56273 0.04468 0.02379 0.0
C35 C 0.51237 0.05094 0.01286 0.0
C36 C 0.44566 0.05997 0.97141 0.0
C37 C 0.43066 0.10265 0.95821 0.0
C38 C 0.38582 0.1047 0.94027 0.0
C39 C 0.35509 0.06421 0.93528 0.0
C40 C 0.36858 0.02254 0.95034 0.0
C41 C 0.41352 0.0206 0.96833 0.0
C42 C 0.5191 0.05027 0.93462 0.0
C43 C 0.5299 0.09012 0.91965 0.0
C44 C 0.51494 0.09121 0.89074 0.0
C45 C 0.48884 0.05245 0.87633 0.0
C46 C 0.47829 0.01247 0.89147 0.0
C47 C 0.49345 0.01137 0.92035 0.0
C48 C 0.6222 0.03947 0.95742 0.0
C49 C 0.65456 0.07759 0.95544 0.0
C50 C 0.68915 0.07428 0.93687 0.0
C51 C 0.69169 0.0327 0.9199 0.0
C52 C 0.65989 0.99424 0.92248 0.0
C53 C 0.62524 -0.00233 0.94099 0.0
C54 C 0.65166 0.03445 0.01727 0.0
C55 C 0.67944 0.07249 0.03109 0.0
C56 C 0.72819 0.06515 0.0436 0.0
C57 C 0.75015 0.01966 0.04226 0.0
C58 C 0.72233 0.98183 0.02797 0.0
C59 C 0.67347 0.98917 0.01561 0.0
C60 C 0.57899 0.0414 0.05428 0.0
C61 C 0.59058 0.08326 0.07062 0.0
C62 C 0.6193 0.08072 0.09698 0.0
C63 C 0.63635 0.03616 0.10728 0.0
C64 C 0.62039 0.99414 0.09201 0.0
C65 C 0.59226 0.99675 0.06555 0.0
C66 C 0.47468 0.05385 0.03198 0.0
C67 C 0.45107 0.09734 0.03667 0.0
C68 C 0.41668 0.10029 0.05544 0.0
C69 C 0.40523 0.0595 0.06975 0.0
C70 C 0.4289 0.01602 0.06473 0.0
C71 C 0.46316 0.01316 0.04598 0.0
C72 C 0.47271 0.05384 0.84565 0.0
C73 C 0.80177 0.01157 0.05576 0.0
H74 H 0.06944 0.47029 0.3205 0.0
H75 H 0.11256 0.86269 0.56585 0.0
H76 H 0.03296 0.44832 0.47162 0.0
H77 H 0.04199 0.37819 0.44225 0.0
H78 H 0.20116 0.39657 0.45686 0.0
H79 H 0.19101 0.46696 0.48685 0.0
H80 H 0.02582 0.52402 0.43228 0.0
H81 H 0.0291 0.49985 0.38344 0.0
H82 H 0.18726 0.52335 0.39683 0.0
H83 H 0.18332 0.5474 0.44567 0.0
H84 H 0.01458 0.62394 0.44803 0.0
H85 H 0.00753 0.68092 0.41019 0.0
H86 H 0.16397 0.71122 0.43002 0.0
H87 H 0.17059 0.65376 0.46781 0.0
H88 H 0.01183 0.65186 0.52087 0.0
H89 H 0.00262 0.73353 0.5393 0.0
H90 H 0.15871 0.7583 0.53923 0.0
H91 H 0.1674 0.67641 0.52108 0.0
H92 H 0.0178 0.56155 0.55568 0.0
H93 H 0.00592 0.59803 0.60098 0.0
H94 H 0.15858 0.64431 0.61425 0.0
H95 H 0.16964 0.60855 0.56879 0.0
H96 H 0.02504 0.46377 0.52405 0.0
H97 H 0.02131 0.40007 0.55697 0.0
H98 H 0.17168 0.43173 0.5946 0.0
H99 H 0.17521 0.49521 0.56084 0.0
O100 O 0.06886 0.48069 0.33975 0.0
O101 O 0.15017 0.4927 0.3478 0.0
O102 O 0.03434 0.81711 0.556 0.0
O103 O 0.11503 0.83039 0.55836 0.0
C104 C 0.10482 0.51207 0.49172 0.0
C105 C 0.1025 0.54916 0.47239 0.0
C106 C 0.09785 0.59708 0.48145 0.0
C107 C 0.09612 0.60814 0.50993 0.0
C108 C 0.0981 0.57093 0.52928 0.0
C109 C 0.10174 0.52279 0.52011 0.0
C110 C 0.11129 0.46238 0.48149 0.0
C111 C 0.06983 0.43592 0.46939 0.0
C112 C 0.07532 0.39594 0.45209 0.0
C113 C 0.12266 0.38202 0.44644 0.0
C114 C 0.16426 0.40656 0.46053 0.0
C115 C 0.15864 0.44643 0.47792 0.0
C116 C 0.10432 0.53744 0.44237 0.0
C117 C 0.06104 0.52421 0.42452 0.0
C118 C 0.06307 0.51033 0.39668 0.0
C119 C 0.10847 0.50953 0.38624 0.0
C120 C 0.1517 0.52351 0.4042 0.0
C121 C 0.14958 0.53741 0.43204 0.0
C122 C 0.093 0.6351 0.46063 0.0
C123 C 0.04718 0.64319 0.44425 0.0
C124 C 0.04342 0.67523 0.42242 0.0
C125 C 0.08561 0.69962 0.41675 0.0
C126 C 0.13106 0.69255 0.43386 0.0
C127 C 0.13486 0.66012 0.45549 0.0
C128 C 0.09017 0.65851 0.51945 0.0
C129 C 0.04386 0.67516 0.52467 0.0
C130 C 0.03875 0.72175 0.53523 0.0
C131 C 0.07995 0.75248 0.5407 0.0
C132 C 0.12624 0.73562 0.53523 0.0
C133 C 0.13128 0.68899 0.52472 0.0
C134 C 0.09435 0.58307 0.55892 0.0
C135 C 0.04891 0.57854 0.56875 0.0
C136 C 0.04223 0.59939 0.59457 0.0
C137 C 0.08074 0.62538 0.61071 0.0
C138 C 0.12758 0.62606 0.60188 0.0
C139 C 0.1342 0.6052 0.57607 0.0
C140 C 0.10044 0.48378 0.54001 0.0
C141 C 0.05717 0.45685 0.53938 0.0
C142 C 0.05491 0.42094 0.5586 0.0
C143 C 0.09595 0.41165 0.579 0.0
C144 C 0.13941 0.43849 0.57932 0.0
C145 C 0.14157 0.47453 0.56008 0.0
C146 C 0.11063 0.49387 0.35681 0.0
C147 C 0.07486 0.80187 0.55214 0.0
Mg148 Mg 0.09487 0.03402 0.2548 0.0
O149 O 0.01429 0.0376 0.23299 0.0
O150 O 0.96481 0.01717 0.26373 0.0
Mg151 Mg 0.01305 0.00251 0.30527 0.0
C152 C 0.97136 0.03003 0.23941 0.0
C153 C 0.1676 0.06514 0.21704 0.0
O154 O 0.19509 0.04219 0.23702 0.0
O155 O 0.08546 0.10475 0.27849 0.0
O156 O 0.03612 0.08151 0.30882 0.0
O157 O 0.09796 0.95555 0.24385 0.0
O158 O 0.07543 0.98573 0.28288 0.0
C159 C 0.06111 0.11347 0.29874 0.0
C160 C 0.08209 0.94877 0.26737 0.0
O161 O 0.12178 0.07033 0.21823 0.0
Mg162 Mg 0.98119 0.0261 0.71848 0.0
O163 O 0.04433 0.02737 0.75529 0.0
O164 O 0.11603 0.01844 0.73866 0.0
Mg165 Mg 0.09827 0.00932 0.69092 0.0
C166 C 0.09134 0.0244 0.75898 0.0
C167 C 0.92655 0.03139 0.76968 0.0
O168 O 0.95457 0.99342 0.77474 0.0
O169 O 0.00157 0.10133 0.70694 0.0
O170 O 0.07034 0.08703 0.68794 0.0
O171 O 0.97601 0.9465 0.72036 0.0
O172 O 0.02347 0.9843 0.69473 0.0
C173 C 0.03682 0.11544 0.69453 0.0
C174 C 0.00901 0.94468 0.70368 0.0
O175 O 0.92874 0.05441 0.74764 0.0
H176 H 0.37075 0.02985 0.10408 0.0
C177 C 0.37051 0.06061 0.09077 0.0
H178 H 0.33649 0.12802 0.08175 0.0
H179 H 0.19234 0.00623 0.15599 0.0
H180 H 0.17312 0.95602 0.11404 0.0
H181 H 0.21327 0.96974 0.07245 0.0
H182 H 0.2736 0.03339 0.07281 0.0
C183 C 0.33863 0.09637 0.09428 0.0
C184 C 0.30706 0.09438 0.11686 0.0
C185 C 0.27012 0.05858 0.11584 0.0
C186 C 0.24557 0.05192 0.13944 0.0
C187 C 0.21109 0.01395 0.13843 0.0
C188 C 0.1998 0.98468 0.11448 0.0
C189 C 0.22251 0.99231 0.0911 0.0
C190 C 0.25728 0.02875 0.09165 0.0
H191 H 0.16399 0.09626 0.17517 0.0
C192 C 0.18849 0.08037 0.19222 0.0
H193 H 0.26114 0.05709 0.20671 0.0
H194 H 0.37174 0.16984 0.12433 0.0
H195 H 0.38747 0.22332 0.16521 0.0
H196 H 0.34317 0.21327 0.20563 0.0
H197 H 0.28292 0.1495 0.20545 0.0
C198 C 0.23606 0.07203 0.18959 0.0
C199 C 0.25671 0.08237 0.1636 0.0
C200 C 0.29111 0.12024 0.16382 0.0
C201 C 0.3163 0.1263 0.14041 0.0
C202 C 0.35132 0.16379 0.14146 0.0
C203 C 0.36071 0.19474 0.1648 0.0
C204 C 0.33579 0.18906 0.18757 0.0
C205 C 0.30142 0.15227 0.18723 0.0
H206 H 0.13074 0.35688 0.60769 0.0
C207 C 0.09549 0.37261 0.59913 0.0
H208 H 0.01799 0.37071 0.59932 0.0
H209 H 0.02441 0.14839 0.62237 0.0
H210 H 0.98913 0.14762 0.57326 0.0
H211 H 0.98338 0.22191 0.54666 0.0
H212 H 0.01285 0.2974 0.569 0.0
C213 C 0.05385 0.35555 0.60697 0.0
C214 C 0.0549 0.31179 0.62372 0.0
C215 C 0.03699 0.26812 0.61037 0.0
C216 C 0.04055 0.22531 0.62565 0.0
C217 C 0.02288 0.182 0.61173 0.0
C218 C 0.00246 0.18103 0.58354 0.0
C219 C 0.99919 0.22286 0.56857 0.0
C220 C 0.01623 0.26598 0.58169 0.0
H221 H 0.0062 0.18867 0.68956 0.0
C222 C 0.03626 0.16534 0.68524 0.0
H223 H 0.09796 0.15713 0.66375 0.0
H224 H 0.08793 0.39043 0.65618 0.0
H225 H 0.12278 0.39128 0.70545 0.0
H226 H 0.13034 0.31662 0.73176 0.0
H227 H 0.10279 0.24064 0.709 0.0
C228 C 0.0689 0.18069 0.6692 0.0
C229 C 0.06166 0.22637 0.65428 0.0
C230 C 0.07815 0.27025 0.66787 0.0
C231 C 0.07455 0.31315 0.65259 0.0
C232 C 0.09068 0.35668 0.6667 0.0
C233 C 0.11057 0.35768 0.69498 0.0
C234 C 0.11477 0.31564 0.70981 0.0
C235 C 0.09882 0.27231 0.69652 0.0
H236 H 0.67589 -0.0004 0.14401 0.0
C237 C 0.6744 0.03236 0.13231 0.0
H238 H 0.71264 0.09605 0.12603 0.0
H239 H 0.84279 0.09959 0.24614 0.0
H240 H 0.78442 0.16289 0.25303 0.0
H241 H 0.71184 0.17713 0.21741 0.0
H242 H 0.69731 0.12823 0.17457 0.0
C243 C 0.71183 0.06391 0.13803 0.0
C244 C 0.75509 0.05452 0.15964 0.0
C245 C 0.76285 0.08313 0.1846 0.0
C246 C 0.80439 0.07453 0.20526 0.0
C247 C 0.81156 0.10413 0.22987 0.0
C248 C 0.77839 0.14068 0.23408 0.0
C249 C 0.73755 0.14873 0.21401 0.0
C250 C 0.72967 0.12042 0.18952 0.0
H251 H 0.93419 0.04844 0.19733 0.0
C252 C 0.92797 0.03672 0.21779 0.0
H253 H 0.87453 0.01847 0.2432 0.0
H254 H 0.75442 0.99659 0.11259 0.0
H255 H 0.81064 0.93124 0.10648 0.0
H256 H 0.87901 0.91233 0.1438 0.0
H257 H 0.89186 0.95909 0.18734 0.0
C258 C 0.8815 0.02878 0.22262 0.0
C259 C 0.83803 0.03724 0.20091 0.0
C260 C 0.8299 0.00816 0.17605 0.0
C261 C 0.78909 0.01761 0.15507 0.0
C262 C 0.78351 0.98983 0.12975 0.0
C263 C 0.81579 0.95238 0.12584 0.0
C264 C 0.85435 0.94182 0.14682 0.0
C265 C 0.86149 0.96921 0.17167 0.0
H266 H 0.03577 0.64757 0.64344 0.0
C267 C 0.06896 0.65583 0.63454 0.0
H268 H 0.12265 0.70941 0.63175 0.0
H269 H 0.95063 0.85565 0.65677 0.0
H270 H 0.91734 0.83743 0.60822 0.0
H271 H 0.95346 0.77305 0.58157 0.0
H272 H 0.02266 0.72641 0.60326 0.0
C273 C 0.09129 0.69824 0.64137 0.0
C274 C 0.06826 0.73533 0.65786 0.0
C275 C 0.0284 0.76287 0.64451 0.0
C276 C 0.00851 0.80083 0.65957 0.0
C277 C 0.96792 0.82713 0.64605 0.0
C278 C 0.94831 0.81692 0.61823 0.0
C279 C 0.96857 0.78062 0.60325 0.0
C280 C 0.00824 0.75393 0.61606 0.0
H281 H 0.05546 0.90073 0.67953 0.0
C282 C 0.02928 0.89917 0.6944 0.0
H283 H 0.98779 0.85356 0.71643 0.0
H284 H 0.14281 0.68787 0.68972 0.0
H285 H 0.17627 0.70653 0.73833 0.0
H286 H 0.14277 0.77364 0.76418 0.0
H287 H 0.07544 0.82247 0.74162 0.0
C288 C 0.01387 0.85642 0.70163 0.0
C289 C 0.02967 0.81223 0.68757 0.0
C290 C 0.06838 0.7838 0.70117 0.0
C291 C 0.08778 0.74524 0.68625 0.0
C292 C 0.12691 0.71767 0.70014 0.0
C293 C 0.14636 0.72798 0.72799 0.0
C294 C 0.12749 0.76578 0.74255 0.0
C295 C 0.08895 0.79354 0.72939 0.0
H296 H 0.31412 0.09349 0.89673 0.0
C297 C 0.31354 0.0652 0.91168 0.0
H298 H 0.27555 0.00267 0.92043 0.0
H299 H 0.13885 0.11209 0.8131 0.0
H300 H 0.1274 0.17556 0.84684 0.0
H301 H 0.16793 0.17192 0.89586 0.0
H302 H 0.2211 0.10511 0.91122 0.0
C303 C 0.27794 0.03167 0.9063 0.0
C304 C 0.24554 0.02948 0.87865 0.0
C305 C 0.21246 0.06739 0.8704 0.0
C306 C 0.18702 0.06817 0.84251 0.0
C307 C 0.15722 0.10836 0.83431 0.0
C308 C 0.15063 0.14531 0.85344 0.0
C309 C 0.1736 0.14337 0.881 0.0
C310 C 0.20425 0.10499 0.8895 0.0
H311 H 0.09526 0.02719 0.80497 0.0
C312 C 0.11736 0.02721 0.78799 0.0
H313 H 0.18943 0.02881 0.77726 0.0
H314 H 0.30472 0.95034 0.88798 0.0
H315 H 0.31235 0.88442 0.85517 0.0
H316 H 0.26453 0.88339 0.80769 0.0
H317 H 0.20925 0.94863 0.79264 0.0
C318 C 0.16685 0.02986 0.79401 0.0
C319 C 0.19263 0.02958 0.8234 0.0
C320 C 0.22393 0.99058 0.8321 0.0
C321 C 0.25066 0.99067 0.85967 0.0
C322 C 0.28288 0.95192 0.86746 0.0
C323 C 0.2877 0.91378 0.8488 0.0
C324 C 0.26084 0.91324 0.82207 0.0
C325 C 0.2293 0.95104 0.81369 0.0
H326 H 0.16801 0.3399 0.42009 0.0
C327 C 0.13043 0.34531 0.42449 0.0
H328 H 0.05556 0.3255 0.41134 0.0
H329 H 0.06352 0.2599 0.28867 0.0
H330 H 0.01883 0.33516 0.2821 0.0
H331 H 0.01338 0.39088 0.32216 0.0
H332 H 0.05231 0.37186 0.36897 0.0
C333 C 0.09387 0.32058 0.40866 0.0
C334 C 0.10319 0.28974 0.38435 0.0
C335 C 0.08122 0.30214 0.35703 0.0
C336 C 0.0846 0.27031 0.33389 0.0
C337 C 0.0616 0.28289 0.30693 0.0
C338 C 0.03612 0.32598 0.30287 0.0
C339 C 0.03308 0.35738 0.32543 0.0
C340 C 0.05538 0.34588 0.35223 0.0
H341 H 0.0348 0.16971 0.32546 0.0
C342 C 0.06386 0.16075 0.31301 0.0
H343 H 0.13587 0.17821 0.3055 0.0
H344 H 0.14966 0.25428 0.43393 0.0
H345 H 0.19795 0.18152 0.43955 0.0
H346 H 0.20796 0.12906 0.39874 0.0
H347 H 0.16902 0.14899 0.35205 0.0
C348 C 0.10439 0.18838 0.31574 0.0
C349 C 0.1104 0.22657 0.33805 0.0
C350 C 0.13568 0.2159 0.36491 0.0
C351 C 0.13119 0.24696 0.38827 0.0
C352 C 0.15341 0.23323 0.41523 0.0
C353 C 0.18095 0.19123 0.41881 0.0
C354 C 0.18648 0.16163 0.39585 0.0
C355 C 0.16392 0.17347 0.36919 0.0
H356 H 0.73684 0.99162 0.8931 0.0
C357 C 0.72741 0.02768 0.89966 0.0
H358 H 0.73747 0.10162 0.89338 0.0
H359 H 0.94443 0.06766 0.85125 0.0
H360 H 0.97002 0.1087 0.89605 0.0
H361 H 0.90982 0.12649 0.92834 0.0
H362 H 0.82364 0.10353 0.91601 0.0
C363 C 0.74644 0.06502 0.88791 0.0
C364 C 0.78173 0.05723 0.86755 0.0
C365 C 0.83185 0.0711 0.87508 0.0
C366 C 0.86662 0.06049 0.85659 0.0
C367 C 0.91655 0.07455 0.86463 0.0
C368 C 0.93172 0.09817 0.89026 0.0
C369 C 0.89781 0.10822 0.90842 0.0
C370 C 0.84844 0.09486 0.90107 0.0
H371 H 0.86634 0.07566 0.78281 0.0
C372 C 0.8912 0.04597 0.7886 0.0
H373 H 0.91364 0.99383 0.81869 0.0
H374 H 0.68696 0.03256 0.84484 0.0
H375 H 0.66154 0.99084 0.8003 0.0
H376 H 0.7227 0.96821 0.76943 0.0
H377 H 0.80946 0.98784 0.7827 0.0
C378 C 0.88818 0.0227 0.81219 0.0
C379 C 0.85113 0.03618 0.83063 0.0
C380 C 0.80076 0.02329 0.82279 0.0
C381 C 0.76582 0.03466 0.84106 0.0
C382 C 0.71538 0.02318 0.83224 0.0
C383 C 0.70021 -0.00047 0.80663 0.0
C384 C 0.73462 0.98692 0.78922 0.0
C385 C 0.78433 -0.00143 0.79707 0.0
H386 H 0.11099 0.76171 0.39557 0.0
C387 C 0.08348 0.73326 0.39353 0.0
H388 H 0.0238 0.70058 0.3666 0.0
H389 H 0.9736 0.89858 0.30675 0.0
H390 H 0.8986 0.88371 0.32659 0.0
H391 H 0.89255 0.81424 0.35625 0.0
H392 H 0.96126 0.75906 0.3661 0.0
C393 C 0.05117 0.72903 0.36972 0.0
C394 C 0.05103 0.76488 0.3476 0.0
C395 C 0.01022 0.79616 0.34176 0.0
C396 C 0.01398 0.83653 0.32502 0.0
C397 C 0.97293 0.86773 0.31972 0.0
C398 C 0.92963 0.85952 0.33088 0.0
C399 C 0.92621 0.82038 0.34755 0.0
C400 C 0.96595 0.789 0.35305 0.0
H401 H 0.07267 0.87007 0.26181 0.0
C402 C 0.07207 0.90036 0.27641 0.0
H403 H 0.06506 0.92384 0.31757 0.0
H404 H 0.12983 0.70423 0.34842 0.0
H405 H 0.20483 0.71824 0.32838 0.0
H406 H 0.21467 0.79178 0.30274 0.0
H407 H 0.14949 0.85094 0.29637 0.0
C408 C 0.06593 0.89342 0.30308 0.0
C409 C 0.05861 0.84563 0.31441 0.0
C410 C 0.09803 0.81217 0.31842 0.0
C411 C 0.09353 0.77099 0.33442 0.0
C412 C 0.13238 0.73704 0.33737 0.0
C413 C 0.17541 0.7445 0.32585 0.0
C414 C 0.18086 0.78581 0.31133 0.0
C415 C 0.14288 0.81946 0.30769 0.0
loop_
_geom_bond_atom_site_label_1
_geom_bond_atom_site_label_2
_geom_bond_distance
_geom_bond_site_symmetry_2
_ccdc_geom_bond_type
H0 O26 0.856 . S
H1 O29 0.854 . S
H2 C37 0.930 . S
H3 C38 0.930 . S
H4 C40 0.930 1_565 S
H5 C41 0.930 1_565 S
H6 C43 0.931 . S
H7 C44 0.930 . S
H8 C46 0.930 . S
H9 C47 0.929 . S
H10 C49 0.930 . S
H11 C50 0.931 . S
H12 C52 0.930 . S
H13 C53 0.929 . S
H14 C55 0.931 . S
H15 C56 0.930 . S
H16 C58 0.930 . S
H17 C59 0.932 1_556 S
H18 C61 0.930 . S
H19 C62 0.929 . S
H20 C64 0.931 1_565 S
H21 C65 0.930 1_565 S
H22 C67 0.929 . S
H23 C68 0.931 . S
H24 C70 0.930 . S
H25 C71 0.929 . S
O26 H0 0.856 . S
O26 C72 1.300 . S
O27 C72 1.209 1_565 S
O28 C73 1.199 . S
O29 H1 0.854 . S
O29 C73 1.297 1_565 S
C30 C31 1.404 . S
C30 C35 1.397 1_556 S
C30 C36 1.492 . S
C31 C30 1.404 . S
C31 C32 1.396 . S
C31 C42 1.492 . S
C32 C31 1.396 . S
C32 C33 1.397 . S
C32 C48 1.509 . S
C33 C32 1.397 . S
C33 C34 1.412 1_556 S
C33 C54 1.485 1_556 S
C34 C33 1.412 1_554 S
C34 C35 1.388 . S
C34 C60 1.490 . S
C35 C30 1.397 1_554 S
C35 C34 1.388 . S
C35 C66 1.519 . S
C36 C30 1.492 . S
C36 C37 1.363 . S
C36 C41 1.390 . S
C37 H2 0.930 . S
C37 C36 1.363 . S
C37 C38 1.372 . S
C38 H3 0.930 . S
C38 C37 1.372 . S
C38 C39 1.383 . S
C39 C38 1.383 . S
C39 C40 1.395 . S
C40 H4 0.930 1_545 S
C40 C39 1.395 . S
C40 C41 1.362 . S
C41 H5 0.930 1_545 S
C41 C36 1.390 . S
C41 C40 1.362 . S
C42 C31 1.492 . S
C42 C43 1.377 . S
C42 C47 1.397 1_545 S
C43 H6 0.931 . S
C43 C42 1.377 . S
C43 C44 1.376 . S
C44 H7 0.930 . S
C44 C43 1.376 . S
C44 C45 1.376 . S
C45 C44 1.376 . S
C45 C46 1.378 1_545 S
C45 C72 1.486 . S
C46 H8 0.930 . S
C46 C45 1.378 1_565 S
C46 C47 1.376 . S
C47 H9 0.929 . S
C47 C42 1.397 1_565 S
C47 C46 1.376 . S
C48 C32 1.509 . S
C48 C49 1.391 . S
C48 C53 1.386 1_545 S
C49 H10 0.930 . S
C49 C48 1.391 . S
C49 C50 1.375 . S
C50 H11 0.931 . S
C50 C49 1.375 . S
C50 C51 1.375 . S
C51 C50 1.375 . S
C51 C52 1.361 1_545 S
C52 H12 0.930 . S
C52 C51 1.361 1_565 S
C52 C53 1.399 . S
C53 H13 0.929 . S
C53 C48 1.386 1_565 S
C53 C52 1.399 . S
C54 C33 1.485 1_554 S
C54 C55 1.394 . S
C54 C59 1.360 1_545 S
C55 H14 0.931 . S
C55 C54 1.394 . S
C55 C56 1.372 . S
C56 H15 0.930 . S
C56 C55 1.372 . S
C56 C57 1.397 . S
C57 C56 1.397 . S
C57 C58 1.390 1_545 S
C57 C73 1.476 . S
C58 H16 0.930 . S
C58 C57 1.390 1_565 S
C58 C59 1.366 . S
C59 H17 0.932 1_554 S
C59 C54 1.360 1_565 S
C59 C58 1.366 . S
C60 C34 1.490 . S
C60 C61 1.380 . S
C60 C65 1.386 . S
C61 H18 0.930 . S
C61 C60 1.380 . S
C61 C62 1.381 . S
C62 H19 0.929 . S
C62 C61 1.381 . S
C62 C63 1.371 . S
C63 C62 1.371 . S
C63 C64 1.380 . S
C64 H20 0.931 1_545 S
C64 C63 1.380 . S
C64 C65 1.387 . S
C65 H21 0.930 1_545 S
C65 C60 1.386 . S
C65 C64 1.387 . S
C66 C35 1.519 . S
C66 C67 1.377 . S
C66 C71 1.361 1_545 S
C67 H22 0.929 . S
C67 C66 1.377 . S
C67 C68 1.386 . S
C68 H23 0.931 . S
C68 C67 1.386 . S
C68 C69 1.363 . S
C69 C68 1.363 . S
C69 C70 1.385 1_545 S
C70 H24 0.930 . S
C70 C69 1.385 1_565 S
C70 C71 1.396 . S
C71 H25 0.929 . S
C71 C66 1.361 1_565 S
C71 C70 1.396 . S
C72 O26 1.300 . S
C72 O27 1.209 1_545 S
C72 C45 1.486 . S
C73 O28 1.199 . S
C73 O29 1.297 1_545 S
C73 C57 1.476 . S
H74 O100 0.856 . S
H75 O103 0.854 . S
H76 C111 0.930 1_655 S
H77 C112 0.930 1_655 S
H78 C114 0.930 . S
H79 C115 0.930 . S
H80 C117 0.931 . S
H81 C118 0.930 . S
H82 C120 0.930 . S
H83 C121 0.929 . S
H84 C123 0.930 . S
H85 C124 0.931 . S
H86 C126 0.930 . S
H87 C127 0.929 . S
H88 C129 0.920 1_655 S
H89 C130 0.930 . S
H90 C132 0.930 . S
H91 C133 0.932 . S
H92 C135 0.930 1_655 S
H93 C136 0.928 1_655 S
H94 C138 0.931 . S
H95 C139 0.930 . S
H96 C141 0.929 1_655 S
H97 C142 0.931 1_655 S
H98 C144 0.930 . S
H99 C145 0.929 . S
O100 H74 0.856 . S
O100 C146 1.300 . S
O101 C146 1.209 . S
O102 C147 1.199 . S
O103 H75 0.854 . S
O103 C147 1.297 . S
C104 C105 1.404 . S
C104 C109 1.397 . S
C104 C110 1.492 . S
C105 C104 1.404 . S
C105 C106 1.396 . S
C105 C116 1.492 . S
C106 C105 1.396 . S
C106 C107 1.397 . S
C106 C122 1.509 . S
C107 C106 1.397 . S
C107 C108 1.412 . S
C107 C128 1.485 . S
C108 C107 1.412 . S
C108 C109 1.388 . S
C108 C134 1.490 . S
C109 C104 1.397 . S
C109 C108 1.388 . S
C109 C140 1.519 . S
C110 C104 1.492 . S
C110 C111 1.363 . S
C110 C115 1.390 . S
C111 H76 0.930 1_455 S
C111 C110 1.363 . S
C111 C112 1.372 . S
C112 H77 0.930 1_455 S
C112 C111 1.372 . S
C112 C113 1.383 . S
C113 C112 1.383 . S
C113 C114 1.395 . S
C114 H78 0.930 . S
C114 C113 1.395 . S
C114 C115 1.362 . S
C115 H79 0.930 . S
C115 C110 1.390 . S
C115 C114 1.362 . S
C116 C105 1.492 . S
C116 C117 1.377 . S
C116 C121 1.397 . S
C117 H80 0.931 . S
C117 C116 1.377 . S
C117 C118 1.376 . S
C118 H81 0.930 . S
C118 C117 1.376 . S
C118 C119 1.376 . S
C119 C118 1.376 . S
C119 C120 1.378 . S
C119 C146 1.486 . S
C120 H82 0.930 . S
C120 C119 1.378 . S
C120 C121 1.376 . S
C121 H83 0.929 . S
C121 C116 1.397 . S
C121 C120 1.376 . S
C122 C106 1.509 . S
C122 C123 1.391 . S
C122 C127 1.386 . S
C123 H84 0.930 . S
C123 C122 1.391 . S
C123 C124 1.375 . S
C124 H85 0.931 . S
C124 C123 1.375 . S
C124 C125 1.375 . S
C125 C124 1.375 . S
C125 C126 1.361 . S
C126 H86 0.930 . S
C126 C125 1.361 . S
C126 C127 1.399 . S
C127 H87 0.929 . S
C127 C122 1.386 . S
C127 C126 1.399 . S
C128 C107 1.485 . S
C128 C129 1.394 . S
C128 C133 1.360 . S
C129 H88 0.920 1_455 S
C129 C128 1.394 . S
C129 C130 1.372 . S
C130 H89 0.930 . S
C130 C129 1.372 . S
C130 C131 1.397 . S
C131 C130 1.397 . S
C131 C132 1.390 . S
C131 C147 1.476 . S
C132 H90 0.930 . S
C132 C131 1.390 . S
C132 C133 1.366 . S
C133 H91 0.932 . S
C133 C128 1.360 . S
C133 C132 1.366 . S
C134 C108 1.490 . S
C134 C135 1.380 . S
C134 C139 1.386 . S
C135 H92 0.930 1_455 S
C135 C134 1.380 . S
C135 C136 1.381 . S
C136 H93 0.928 1_455 S
C136 C135 1.381 . S
C136 C137 1.372 . S
C137 C136 1.372 . S
C137 C138 1.380 . S
C138 H94 0.931 . S
C138 C137 1.380 . S
C138 C139 1.387 . S
C139 H95 0.930 . S
C139 C134 1.386 . S
C139 C138 1.387 . S
C140 C109 1.519 . S
C140 C141 1.377 . S
C140 C145 1.361 . S
C141 H96 0.929 1_455 S
C141 C140 1.377 . S
C141 C142 1.386 . S
C142 H97 0.931 1_455 S
C142 C141 1.386 . S
C142 C143 1.363 . S
C143 C142 1.363 . S
C143 C144 1.385 . S
C144 H98 0.930 . S
C144 C143 1.385 . S
C144 C145 1.396 . S
C145 H99 0.929 . S
C145 C140 1.361 . S
C145 C144 1.396 . S
C146 O100 1.300 . S
C146 O101 1.209 . S
C146 C119 1.486 . S
C147 O102 1.199 . S
C147 O103 1.297 . S
C147 C131 1.476 . S
Mg148 O149 2.028 . S
Mg148 O155 1.986 . S
Mg148 O157 2.114 1_545 S
Mg148 O158 2.251 . S
Mg148 O161 2.010 . S
O149 Mg148 2.028 . S
O149 C152 1.250 1_455 S
O150 Mg151 2.028 . S
O150 C152 1.248 . S
Mg151 O150 2.028 . S
Mg151 O156 2.032 1_655 S
Mg151 O158 2.079 1_655 S
C152 O149 1.250 1_655 S
C152 O150 1.248 . S
C153 O154 1.264 . S
C153 O161 1.249 . S
O154 C153 1.264 . S
O155 Mg148 1.986 . S
O155 C159 1.246 . S
O156 Mg151 2.032 1_455 S
O156 C159 1.259 . S
O157 Mg148 2.114 1_565 S
O157 C160 1.252 . S
O158 Mg148 2.251 . S
O158 Mg151 2.079 1_455 S
O158 C160 1.273 1_545 S
C159 O155 1.246 . S
C159 O156 1.259 . S
C160 O157 1.252 . S
C160 O158 1.273 1_565 S
O161 Mg148 2.010 . S
O161 C153 1.249 . S
Mg162 O163 2.028 . S
Mg162 O169 1.986 . S
Mg162 O171 2.114 1_545 S
Mg162 O172 2.251 1_545 S
Mg162 O175 2.010 1_455 S
O163 Mg162 2.028 . S
O163 C166 1.250 . S
O164 Mg165 2.028 . S
O164 C166 1.248 . S
Mg165 O164 2.028 . S
Mg165 O170 2.032 . S
Mg165 O172 2.079 1_545 S
C166 O163 1.250 . S
C166 O164 1.248 . S
C167 O168 1.264 . S
C167 O175 1.249 . S
O168 C167 1.264 . S
O169 Mg162 1.986 . S
O169 C173 1.246 . S
O170 Mg165 2.032 . S
O170 C173 1.259 . S
O171 Mg162 2.114 1_565 S
O171 C174 1.252 . S
O172 Mg162 2.251 1_565 S
O172 Mg165 2.079 1_565 S
O172 C174 1.273 . S
C173 O169 1.246 . S
C173 O170 1.259 . S
C174 O171 1.252 . S
C174 O172 1.273 . S
O175 Mg162 2.010 1_655 S
O175 C167 1.249 . S
H176 C177 0.951 . S
C177 H176 0.951 . S
C177 C183 1.265 . S
H178 C183 0.950 . S
H179 C187 0.949 . S
H180 C188 0.950 . S
H181 C189 0.951 . S
H182 C190 0.951 . S
C183 C177 1.265 . S
C183 H178 0.950 . S
C183 C184 1.478 . S
C184 C183 1.478 . S
C184 C185 1.397 1_545 S
C184 C201 1.394 . S
C185 C184 1.397 1_565 S
C185 C186 1.438 1_565 S
C185 C190 1.429 . S
C186 C185 1.438 1_545 S
C186 C187 1.428 1_545 S
C186 C199 1.394 . S
C187 H179 0.949 . S
C187 C186 1.428 1_565 S
C187 C188 1.345 . S
C188 H180 0.950 . S
C188 C187 1.345 . S
C188 C189 1.424 . S
C189 H181 0.951 . S
C189 C188 1.424 . S
C189 C190 1.347 . S
C190 H182 0.951 . S
C190 C185 1.429 . S
C190 C189 1.347 . S
H191 C192 0.951 . S
C192 H191 0.951 . S
C192 C198 1.265 . S
H193 C198 0.950 . S
H194 C202 0.949 . S
H195 C203 0.950 . S
H196 C204 0.951 . S
H197 C205 0.951 . S
C198 C192 1.265 . S
C198 H193 0.950 . S
C198 C199 1.478 . S
C199 C186 1.394 . S
C199 C198 1.478 . S
C199 C200 1.397 . S
C200 C199 1.397 . S
C200 C201 1.438 . S
C200 C205 1.429 . S
C201 C184 1.394 . S
C201 C200 1.438 . S
C201 C202 1.428 . S
C202 H194 0.949 . S
C202 C201 1.428 . S
C202 C203 1.345 . S
C203 H195 0.950 . S
C203 C202 1.345 . S
C203 C204 1.424 . S
C204 H196 0.951 . S
C204 C203 1.424 . S
C204 C205 1.347 . S
C205 H197 0.951 . S
C205 C200 1.429 . S
C205 C204 1.347 . S
H206 C207 0.951 . S
C207 H206 0.951 . S
C207 C213 1.265 . S
H208 C213 0.950 . S
H209 C217 0.949 . S
H210 C218 0.950 . S
H211 C219 0.951 1_655 S
H212 C220 0.951 . S
C213 C207 1.265 . S
C213 H208 0.950 . S
C213 C214 1.478 . S
C214 C213 1.478 . S
C214 C215 1.397 . S
C214 C231 1.394 . S
C215 C214 1.397 . S
C215 C216 1.438 . S
C215 C220 1.429 . S
C216 C215 1.438 . S
C216 C217 1.428 . S
C216 C229 1.394 . S
C217 H209 0.949 . S
C217 C216 1.428 . S
C217 C218 1.345 . S
C218 H210 0.950 . S
C218 C217 1.345 . S
C218 C219 1.424 . S
C219 H211 0.951 1_455 S
C219 C218 1.424 . S
C219 C220 1.347 . S
C220 H212 0.951 . S
C220 C215 1.429 . S
C220 C219 1.347 . S
H221 C222 0.951 1_655 S
C222 H221 0.951 1_455 S
C222 C228 1.265 . S
H223 C228 0.950 . S
H224 C232 0.949 . S
H225 C233 0.950 . S
H226 C234 0.951 . S
H227 C235 0.951 . S
C228 C222 1.265 . S
C228 H223 0.950 . S
C228 C229 1.478 . S
C229 C216 1.394 . S
C229 C228 1.478 . S
C229 C230 1.397 . S
C230 C229 1.397 . S
C230 C231 1.438 . S
C230 C235 1.429 . S
C231 C214 1.394 . S
C231 C230 1.438 . S
C231 C232 1.428 . S
C232 H224 0.949 . S
C232 C231 1.428 . S
C232 C233 1.345 . S
C233 H225 0.950 . S
C233 C232 1.345 . S
C233 C234 1.424 . S
C234 H226 0.951 . S
C234 C233 1.424 . S
C234 C235 1.347 . S
C235 H227 0.951 . S
C235 C230 1.429 . S
C235 C234 1.347 . S
H236 C237 0.951 . S
C237 H236 0.951 . S
C237 C243 1.265 . S
H238 C243 0.950 . S
H239 C247 0.949 . S
H240 C248 0.950 . S
H241 C249 0.951 . S
H242 C250 0.951 . S
C243 C237 1.265 . S
C243 H238 0.950 . S
C243 C244 1.478 . S
C244 C243 1.478 . S
C244 C245 1.397 . S
C244 C261 1.394 . S
C245 C244 1.397 . S
C245 C246 1.438 . S
C245 C250 1.429 . S
C246 C245 1.438 . S
C246 C247 1.428 . S
C246 C259 1.394 . S
C247 H239 0.949 . S
C247 C246 1.428 . S
C247 C248 1.345 . S
C248 H240 0.950 . S
C248 C247 1.345 . S
C248 C249 1.424 . S
C249 H241 0.951 . S
C249 C248 1.424 . S
C249 C250 1.347 . S
C250 H242 0.951 . S
C250 C245 1.429 . S
C250 C249 1.347 . S
H251 C252 0.951 . S
C252 H251 0.951 . S
C252 C258 1.265 . S
H253 C258 0.950 . S
H254 C262 0.944 1_545 S
H255 C263 0.950 . S
H256 C264 0.951 . S
H257 C265 0.951 . S
C258 C252 1.265 . S
C258 H253 0.950 . S
C258 C259 1.478 . S
C259 C246 1.394 . S
C259 C258 1.478 . S
C259 C260 1.397 . S
C260 C259 1.397 . S
C260 C261 1.438 . S
C260 C265 1.429 1_545 S
C261 C244 1.394 . S
C261 C260 1.438 . S
C261 C262 1.428 1_545 S
C262 H254 0.944 1_565 S
C262 C261 1.428 1_565 S
C262 C263 1.345 . S
C263 H255 0.950 . S
C263 C262 1.345 . S
C263 C264 1.424 . S
C264 H256 0.951 . S
C264 C263 1.424 . S
C264 C265 1.347 . S
C265 H257 0.951 . S
C265 C260 1.429 1_565 S
C265 C264 1.347 . S
H266 C267 0.951 . S
C267 H266 0.951 . S
C267 C273 1.265 . S
H268 C273 0.950 . S
H269 C277 0.949 . S
H270 C278 0.950 . S
H271 C279 0.951 . S
H272 C280 0.951 . S
C273 C267 1.265 . S
C273 H268 0.950 . S
C273 C274 1.478 . S
C274 C273 1.478 . S
C274 C275 1.397 . S
C274 C291 1.394 . S
C275 C274 1.397 . S
C275 C276 1.438 . S
C275 C280 1.429 1_455 S
C276 C275 1.438 . S
C276 C277 1.428 1_455 S
C276 C289 1.394 . S
C277 H269 0.949 . S
C277 C276 1.428 1_655 S
C277 C278 1.345 . S
C278 H270 0.950 . S
C278 C277 1.345 . S
C278 C279 1.424 . S
C279 H271 0.951 . S
C279 C278 1.424 . S
C279 C280 1.347 . S
C280 H272 0.951 . S
C280 C275 1.429 1_655 S
C280 C279 1.347 . S
H281 C282 0.951 . S
C282 H281 0.951 . S
C282 C288 1.265 . S
H283 C288 0.950 . S
H284 C292 0.949 . S
H285 C293 0.950 . S
H286 C294 0.951 . S
H287 C295 0.951 . S
C288 C282 1.265 . S
C288 H283 0.950 . S
C288 C289 1.478 . S
C289 C276 1.394 . S
C289 C288 1.478 . S
C289 C290 1.397 . S
C290 C289 1.397 . S
C290 C291 1.438 . S
C290 C295 1.429 . S
C291 C274 1.394 . S
C291 C290 1.438 . S
C291 C292 1.428 . S
C292 H284 0.949 . S
C292 C291 1.428 . S
C292 C293 1.345 . S
C293 H285 0.950 . S
C293 C292 1.345 . S
C293 C294 1.424 . S
C294 H286 0.951 . S
C294 C293 1.424 . S
C294 C295 1.347 . S
C295 H287 0.951 . S
C295 C290 1.429 . S
C295 C294 1.347 . S
H296 C297 0.951 . S
C297 H296 0.951 . S
C297 C303 1.265 . S
H298 C303 0.950 . S
H299 C307 0.949 . S
H300 C308 0.950 . S
H301 C309 0.951 . S
H302 C310 0.951 . S
C303 C297 1.265 . S
C303 H298 0.950 . S
C303 C304 1.478 . S
C304 C303 1.478 . S
C304 C305 1.397 . S
C304 C321 1.394 . S
C305 C304 1.397 . S
C305 C306 1.438 . S
C305 C310 1.429 . S
C306 C305 1.438 . S
C306 C307 1.428 . S
C306 C319 1.394 . S
C307 H299 0.949 . S
C307 C306 1.428 . S
C307 C308 1.345 . S
C308 H300 0.950 . S
C308 C307 1.345 . S
C308 C309 1.424 . S
C309 H301 0.951 . S
C309 C308 1.424 . S
C309 C310 1.347 . S
C310 H302 0.951 . S
C310 C305 1.429 . S
C310 C309 1.347 . S
H311 C312 0.951 . S
C312 H311 0.951 . S
C312 C318 1.265 . S
H313 C318 0.950 . S
H314 C322 0.949 . S
H315 C323 0.950 . S
H316 C324 0.951 . S
H317 C325 0.951 . S
C318 C312 1.265 . S
C318 H313 0.950 . S
C318 C319 1.478 . S
C319 C306 1.394 . S
C319 C318 1.478 . S
C319 C320 1.397 . S
C320 C319 1.397 . S
C320 C321 1.438 . S
C320 C325 1.429 1_545 S
C321 C304 1.394 . S
C321 C320 1.438 . S
C321 C322 1.428 1_545 S
C322 H314 0.949 . S
C322 C321 1.428 1_565 S
C322 C323 1.345 . S
C323 H315 0.950 . S
C323 C322 1.345 . S
C323 C324 1.424 . S
C324 H316 0.951 . S
C324 C323 1.424 . S
C324 C325 1.347 . S
C325 H317 0.951 . S
C325 C320 1.429 1_565 S
C325 C324 1.347 . S
H326 C327 0.951 . S
C327 H326 0.951 . S
C327 C333 1.265 . S
H328 C333 0.950 1_655 S
H329 C337 0.949 1_455 S
H330 C338 0.950 . S
H331 C339 0.951 . S
H332 C340 0.951 . S
C333 C327 1.265 . S
C333 H328 0.950 1_455 S
C333 C334 1.478 . S
C334 C333 1.478 . S
C334 C335 1.397 . S
C334 C351 1.394 . S
C335 C334 1.397 . S
C335 C336 1.438 . S
C335 C340 1.429 1_455 S
C336 C335 1.438 . S
C336 C337 1.428 1_455 S
C336 C349 1.394 . S
C337 H329 0.949 1_655 S
C337 C336 1.428 1_655 S
C337 C338 1.345 . S
C338 H330 0.950 . S
C338 C337 1.345 . S
C338 C339 1.424 . S
C339 H331 0.951 . S
C339 C338 1.424 . S
C339 C340 1.347 . S
C340 H332 0.951 . S
C340 C335 1.429 1_655 S
C340 C339 1.347 . S
H341 C342 0.951 . S
C342 H341 0.951 . S
C342 C348 1.265 . S
H343 C348 0.950 . S
H344 C352 0.949 . S
H345 C353 0.950 . S
H346 C354 0.951 . S
H347 C355 0.951 . S
C348 C342 1.265 . S
C348 H343 0.950 . S
C348 C349 1.478 . S
C349 C336 1.394 . S
C349 C348 1.478 . S
C349 C350 1.397 . S
C350 C349 1.397 . S
C350 C351 1.438 . S
C350 C355 1.429 . S
C351 C334 1.394 . S
C351 C350 1.438 . S
C351 C352 1.428 . S
C352 H344 0.949 . S
C352 C351 1.428 . S
C352 C353 1.345 . S
C353 H345 0.950 . S
C353 C352 1.345 . S
C353 C354 1.424 . S
C354 H346 0.951 . S
C354 C353 1.424 . S
C354 C355 1.347 . S
C355 H347 0.951 . S
C355 C350 1.429 . S
C355 C354 1.347 . S
H356 C357 0.951 1_565 S
C357 H356 0.951 1_545 S
C357 C363 1.265 . S
H358 C363 0.950 . S
H359 C367 0.949 . S
H360 C368 0.950 . S
H361 C369 0.951 . S
H362 C370 0.951 . S
C363 C357 1.265 . S
C363 H358 0.950 . S
C363 C364 1.478 . S
C364 C363 1.478 . S
C364 C365 1.397 . S
C364 C381 1.394 1_545 S
C365 C364 1.397 . S
C365 C366 1.438 . S
C365 C370 1.429 . S
C366 C365 1.438 . S
C366 C367 1.428 . S
C366 C379 1.394 . S
C367 H359 0.949 . S
C367 C366 1.428 . S
C367 C368 1.345 . S
C368 H360 0.950 . S
C368 C367 1.345 . S
C368 C369 1.424 . S
C369 H361 0.951 . S
C369 C368 1.424 . S
C369 C370 1.347 . S
C370 H362 0.951 . S
C370 C365 1.429 . S
C370 C369 1.347 . S
H371 C372 0.951 . S
C372 H371 0.951 . S
C372 C378 1.265 . S
H373 C378 0.950 1_565 S
H374 C382 0.949 . S
H375 C383 0.950 . S
H376 C384 0.951 . S
H377 C385 0.951 . S
C378 C372 1.265 . S
C378 H373 0.950 1_545 S
C378 C379 1.478 . S
C379 C366 1.394 . S
C379 C378 1.478 . S
C379 C380 1.397 1_545 S
C380 C379 1.397 1_565 S
C380 C381 1.438 . S
C380 C385 1.429 . S
C381 C364 1.394 1_565 S
C381 C380 1.438 . S
C381 C382 1.428 . S
C382 H374 0.949 . S
C382 C381 1.428 . S
C382 C383 1.345 . S
C383 H375 0.950 . S
C383 C382 1.345 . S
C383 C384 1.424 . S
C384 H376 0.951 . S
C384 C383 1.424 . S
C384 C385 1.347 . S
C385 H377 0.951 . S
C385 C380 1.429 . S
C385 C384 1.347 . S
H386 C387 0.951 . S
C387 H386 0.951 . S
C387 C393 1.265 . S
H388 C393 0.950 . S
H389 C397 0.949 . S
H390 C398 0.950 . S
H391 C399 0.951 . S
H392 C400 0.951 . S
C393 C387 1.265 . S
C393 H388 0.950 . S
C393 C394 1.478 . S
C394 C393 1.478 . S
C394 C395 1.397 . S
C394 C411 1.394 . S
C395 C394 1.397 . S
C395 C396 1.438 . S
C395 C400 1.429 . S
C396 C395 1.438 . S
C396 C397 1.428 . S
C396 C409 1.394 . S
C397 H389 0.949 . S
C397 C396 1.428 . S
C397 C398 1.345 . S
C398 H390 0.950 . S
C398 C397 1.345 . S
C398 C399 1.424 . S
C399 H391 0.951 . S
C399 C398 1.424 . S
C399 C400 1.347 . S
C400 H392 0.951 . S
C400 C395 1.429 . S
C400 C399 1.347 . S
H401 C402 0.951 . S
C402 H401 0.951 . S
C402 C408 1.265 . S
H403 C408 0.950 . S
H404 C412 0.949 . S
H405 C413 0.950 . S
H406 C414 0.951 . S
H407 C415 0.951 . S
C408 C402 1.265 . S
C408 H403 0.950 . S
C408 C409 1.478 . S
C409 C396 1.394 . S
C409 C408 1.478 . S
C409 C410 1.397 . S
C410 C409 1.397 . S
C410 C411 1.438 . S
C410 C415 1.429 . S
C411 C394 1.394 . S
C411 C410 1.438 . S
C411 C412 1.428 . S
C412 H404 0.949 . S
C412 C411 1.428 . S
C412 C413 1.345 . S
C413 H405 0.950 . S
C413 C412 1.345 . S
C413 C414 1.424 . S
C414 H406 0.951 . S
C414 C413 1.424 . S
C414 C415 1.347 . S
C415 H407 0.951 . S
C415 C410 1.429 . S
C415 C414 1.347 . S
C192 C153 1.913 . S
C177 C69 2.115 . S
C222 C173 2.128 . S
C207 C143 2.164 . S
C252 C152 1.536 . S
C237 C63 1.479 . S
C282 C174 1.572 . S
C267 C137 1.514 . S
C312 C166 1.469 . S
C297 C39 1.317 . S
C342 C159 1.290 . S
C327 C113 1.281 . S
C372 C167 0.738 . S
C357 C51 0.821 . S
C387 C125 0.861 . S
C402 C160 0.846 . S
