# Generated by pormake.
# Topology eea, (3,6)-cn, num edge types: 1
# Building blocks:
#     Node 0, Type 0, BuildingBlock: BETDAH_clean_linker_0, # of connection points: 3
#     Node 1, Type 0, BuildingBlock: BETDAH_clean_linker_0, # of connection points: 3
#     Node 2, Type 0, BuildingBlock: BETDAH_clean_linker_0, # of connection points: 3
#     Node 3, Type 0, BuildingBlock: BETDAH_clean_linker_0, # of connection points: 3
#     Node 4, Type 0, BuildingBlock: BETDAH_clean_linker_0, # of connection points: 3
#     Node 5, Type 0, BuildingBlock: BETDAH_clean_linker_0, # of connection points: 3
#     Node 6, Type 0, BuildingBlock: BETDAH_clean_linker_0, # of connection points: 3
#     Node 7, Type 0, BuildingBlock: BETDAH_clean_linker_0, # of connection points: 3
#     Node 8, Type 0, BuildingBlock: BETDAH_clean_linker_0, # of connection points: 3
#     Node 9, Type 0, BuildingBlock: BETDAH_clean_linker_0, # of connection points: 3
#     Node 10, Type 0, BuildingBlock: BETDAH_clean_linker_0, # of connection points: 3
#     Node 11, Type 0, BuildingBlock: BETDAH_clean_linker_0, # of connection points: 3
#     Node 12, Type 0, BuildingBlock: BETDAH_clean_linker_0, # of connection points: 3
#     Node 13, Type 0, BuildingBlock: BETDAH_clean_linker_0, # of connection points: 3
#     Node 14, Type 0, BuildingBlock: BETDAH_clean_linker_0, # of connection points: 3
#     Node 15, Type 0, BuildingBlock: BETDAH_clean_linker_0, # of connection points: 3
#     Node 16, Type 0, BuildingBlock: BETDAH_clean_linker_0, # of connection points: 3
#     Node 17, Type 0, BuildingBlock: BETDAH_clean_linker_0, # of connection points: 3
#     Node 18, Type 1, BuildingBlock: CUWYAW_clean_sbu_0, # of connection points: 6
#     Node 19, Type 1, BuildingBlock: CUWYAW_clean_sbu_0, # of connection points: 6
#     Node 20, Type 1, BuildingBlock: CUWYAW_clean_sbu_0, # of connection points: 6
#     Node 21, Type 1, BuildingBlock: CUWYAW_clean_sbu_0, # of connection points: 6
#     Node 22, Type 1, BuildingBlock: CUWYAW_clean_sbu_0, # of connection points: 6
#     Node 23, Type 1, BuildingBlock: CUWYAW_clean_sbu_0, # of connection points: 6
#     Node 24, Type 1, BuildingBlock: CUWYAW_clean_sbu_0, # of connection points: 6
#     Node 25, Type 1, BuildingBlock: CUWYAW_clean_sbu_0, # of connection points: 6
#     Node 26, Type 1, BuildingBlock: CUWYAW_clean_sbu_0, # of connection points: 6
#     Edge 27, Type (0, 1), BuildingBlock: EZIPEK_clean_linker_0, # of connection points: 2
#     Edge 28, Type (0, 1), BuildingBlock: EZIPEK_clean_linker_0, # of connection points: 2
#     Edge 29, Type (0, 1), BuildingBlock: EZIPEK_clean_linker_0, # of connection points: 2
#     Edge 30, Type (0, 1), BuildingBlock: EZIPEK_clean_linker_0, # of connection points: 2
#     Edge 31, Type (0, 1), BuildingBlock: EZIPEK_clean_linker_0, # of connection points: 2
#     Edge 32, Type (0, 1), BuildingBlock: EZIPEK_clean_linker_0, # of connection points: 2
#     Edge 33, Type (0, 1), BuildingBlock: EZIPEK_clean_linker_0, # of connection points: 2
#     Edge 34, Type (0, 1), BuildingBlock: EZIPEK_clean_linker_0, # of connection points: 2
#     Edge 35, Type (0, 1), BuildingBlock: EZIPEK_clean_linker_0, # of connection points: 2
#     Edge 36, Type (0, 1), BuildingBlock: EZIPEK_clean_linker_0, # of connection points: 2
#     Edge 37, Type (0, 1), BuildingBlock: EZIPEK_clean_linker_0, # of connection points: 2
#     Edge 38, Type (0, 1), BuildingBlock: EZIPEK_clean_linker_0, # of connection points: 2
#     Edge 39, Type (0, 1), BuildingBlock: EZIPEK_clean_linker_0, # of connection points: 2
#     Edge 40, Type (0, 1), BuildingBlock: EZIPEK_clean_linker_0, # of connection points: 2
#     Edge 41, Type (0, 1), BuildingBlock: EZIPEK_clean_linker_0, # of connection points: 2
#     Edge 42, Type (0, 1), BuildingBlock: EZIPEK_clean_linker_0, # of connection points: 2
#     Edge 43, Type (0, 1), BuildingBlock: EZIPEK_clean_linker_0, # of connection points: 2
#     Edge 44, Type (0, 1), BuildingBlock: EZIPEK_clean_linker_0, # of connection points: 2
#     Edge 45, Type (0, 1), BuildingBlock: EZIPEK_clean_linker_0, # of connection points: 2
#     Edge 46, Type (0, 1), BuildingBlock: EZIPEK_clean_linker_0, # of connection points: 2
#     Edge 47, Type (0, 1), BuildingBlock: EZIPEK_clean_linker_0, # of connection points: 2
#     Edge 48, Type (0, 1), BuildingBlock: EZIPEK_clean_linker_0, # of connection points: 2
#     Edge 49, Type (0, 1), BuildingBlock: EZIPEK_clean_linker_0, # of connection points: 2
#     Edge 50, Type (0, 1), BuildingBlock: EZIPEK_clean_linker_0, # of connection points: 2
#     Edge 51, Type (0, 1), BuildingBlock: EZIPEK_clean_linker_0, # of connection points: 2
#     Edge 52, Type (0, 1), BuildingBlock: EZIPEK_clean_linker_0, # of connection points: 2
#     Edge 53, Type (0, 1), BuildingBlock: EZIPEK_clean_linker_0, # of connection points: 2
#     Edge 54, Type (0, 1), BuildingBlock: EZIPEK_clean_linker_0, # of connection points: 2
#     Edge 55, Type (0, 1), BuildingBlock: EZIPEK_clean_linker_0, # of connection points: 2
#     Edge 56, Type (0, 1), BuildingBlock: EZIPEK_clean_linker_0, # of connection points: 2
#     Edge 57, Type (0, 1), BuildingBlock: EZIPEK_clean_linker_0, # of connection points: 2
#     Edge 58, Type (0, 1), BuildingBlock: EZIPEK_clean_linker_0, # of connection points: 2
#     Edge 59, Type (0, 1), BuildingBlock: EZIPEK_clean_linker_0, # of connection points: 2
#     Edge 60, Type (0, 1), BuildingBlock: EZIPEK_clean_linker_0, # of connection points: 2
#     Edge 61, Type (0, 1), BuildingBlock: EZIPEK_clean_linker_0, # of connection points: 2
#     Edge 62, Type (0, 1), BuildingBlock: EZIPEK_clean_linker_0, # of connection points: 2
#     Edge 63, Type (0, 1), BuildingBlock: EZIPEK_clean_linker_0, # of connection points: 2
#     Edge 64, Type (0, 1), BuildingBlock: EZIPEK_clean_linker_0, # of connection points: 2
#     Edge 65, Type (0, 1), BuildingBlock: EZIPEK_clean_linker_0, # of connection points: 2
#     Edge 66, Type (0, 1), BuildingBlock: EZIPEK_clean_linker_0, # of connection points: 2
#     Edge 67, Type (0, 1), BuildingBlock: EZIPEK_clean_linker_0, # of connection points: 2
#     Edge 68, Type (0, 1), BuildingBlock: EZIPEK_clean_linker_0, # of connection points: 2
#     Edge 69, Type (0, 1), BuildingBlock: EZIPEK_clean_linker_0, # of connection points: 2
#     Edge 70, Type (0, 1), BuildingBlock: EZIPEK_clean_linker_0, # of connection points: 2
#     Edge 71, Type (0, 1), BuildingBlock: EZIPEK_clean_linker_0, # of connection points: 2
#     Edge 72, Type (0, 1), BuildingBlock: EZIPEK_clean_linker_0, # of connection points: 2
#     Edge 73, Type (0, 1), BuildingBlock: EZIPEK_clean_linker_0, # of connection points: 2
#     Edge 74, Type (0, 1), BuildingBlock: EZIPEK_clean_linker_0, # of connection points: 2
#     Edge 75, Type (0, 1), BuildingBlock: EZIPEK_clean_linker_0, # of connection points: 2
#     Edge 76, Type (0, 1), BuildingBlock: EZIPEK_clean_linker_0, # of connection points: 2
#     Edge 77, Type (0, 1), BuildingBlock: EZIPEK_clean_linker_0, # of connection points: 2
#     Edge 78, Type (0, 1), BuildingBlock: EZIPEK_clean_linker_0, # of connection points: 2
#     Edge 79, Type (0, 1), BuildingBlock: EZIPEK_clean_linker_0, # of connection points: 2
#     Edge 80, Type (0, 1), BuildingBlock: EZIPEK_clean_linker_0, # of connection points: 2
# Relax obj value: 0.058
# Max RMSD: 0.225
# Mean RMSD: 0.160
data_MOF--net-eea--node1-CUWYAW_clean_sbu_0--node2-BETDAH_clean_linker_0--edge1-EZIPEK_clean_linker_0
_symmetry_space_group_name_H-M    P1
_symmetry_Int_Tables_number       1
_symmetry_cell_setting            triclinic
loop_
_symmetry_equiv_pos_as_xyz
'x, y, z'
_cell_length_a     39.683686
_cell_length_b     39.470299
_cell_length_c     54.556799
_cell_angle_alpha  93.257288
_cell_angle_beta   93.335182
_cell_angle_gamma 119.85863
loop_
_atom_site_label
_atom_site_type_symbol
_atom_site_fract_x
_atom_site_fract_y
_atom_site_fract_z
_atom_type_partial_charge
H0 H 0.24658 0.05011 0.42565 0.0
H1 H 0.25941 0.16537 0.42694 0.0
H2 H 0.23316 0.09472 0.35795 0.0
C3 C 0.24613 0.0732 0.41604 0.0
C4 C 0.23822 0.06809 0.39028 0.0
C5 C 0.25384 0.10831 0.42939 0.0
C6 C 0.25289 0.13805 0.41679 0.0
C7 C 0.24556 0.1331 0.39092 0.0
C8 C 0.23864 0.09835 0.3779 0.0
N9 N 0.24748 0.16324 0.37713 0.0
C10 C 0.2351 0.18922 0.38439 0.0
H11 H 0.95232 0.21823 0.43995 0.0
H12 H 0.85762 0.09836 0.42457 0.0
H13 H 0.94902 0.14652 0.37745 0.0
C14 C 0.93571 0.19118 0.42812 0.0
C15 C 0.95358 0.18615 0.40781 0.0
C16 C 0.89789 0.16148 0.43307 0.0
C17 C 0.88274 0.1241 0.41943 0.0
C18 C 0.90071 0.11905 0.39913 0.0
C19 C 0.93535 0.15044 0.39317 0.0
N20 N 0.88535 0.08298 0.38411 0.0
C21 C 0.85149 0.04802 0.38679 0.0
H22 H 0.81385 0.75894 0.44819 0.0
H23 H 0.91101 0.74005 0.4587 0.0
H24 H 0.88582 0.77243 0.38888 0.0
C25 C 0.83882 0.75885 0.44117 0.0
C26 C 0.84694 0.76704 0.41671 0.0
C27 C 0.8617 0.74894 0.45631 0.0
C28 C 0.89356 0.74822 0.44713 0.0
C29 C 0.90317 0.75754 0.42317 0.0
C30 C 0.87961 0.76674 0.40776 0.0
N31 N 0.93485 0.75408 0.41508 0.0
C32 C 0.95851 0.77345 0.3968 0.0
H33 H 0.05683 0.26205 0.58884 0.0
H34 H 0.16911 0.27296 0.60783 0.0
H35 H 0.0847 0.23787 0.66081 0.0
C36 C 0.07694 0.25963 0.60194 0.0
C37 C 0.0659 0.248 0.62549 0.0
C38 C 0.11443 0.26925 0.59559 0.0
C39 C 0.14022 0.26546 0.61257 0.0
C40 C 0.1293 0.25392 0.6361 0.0
C41 C 0.09268 0.24615 0.64249 0.0
N42 N 0.15497 0.25193 0.65442 0.0
C43 C 0.18295 0.24156 0.6499 0.0
H44 H 0.76374 0.80219 0.59837 0.0
H45 H 0.74792 0.90269 0.60566 0.0
H46 H 0.78278 0.86478 0.66968 0.0
C47 C 0.76456 0.82607 0.60974 0.0
C48 C 0.77507 0.83086 0.63531 0.0
C49 C 0.75433 0.85176 0.59901 0.0
C50 C 0.75594 0.883 0.61386 0.0
C51 C 0.7663 0.88764 0.6394 0.0
C52 C 0.77516 0.86124 0.64991 0.0
N53 N 0.76646 0.91727 0.65542 0.0
C54 C 0.77352 0.95355 0.64886 0.0
H55 H 0.2032 0.95538 0.59122 0.0
H56 H 0.10607 0.83777 0.57825 0.0
H57 H 0.12888 0.90353 0.64898 0.0
C58 C 0.17835 0.93068 0.59783 0.0
C59 C 0.16907 0.93356 0.62206 0.0
C60 C 0.15529 0.89658 0.58185 0.0
C61 C 0.12358 0.86449 0.59047 0.0
C62 C 0.11381 0.86655 0.61455 0.0
C63 C 0.13625 0.90148 0.63036 0.0
N64 N 0.08207 0.83221 0.62207 0.0
C65 C 0.05988 0.83032 0.64132 0.0
H66 H 0.91312 0.38705 0.76335 0.0
H67 H 0.90051 0.48953 0.76581 0.0
H68 H 0.86404 0.41149 0.69909 0.0
C69 C 0.90439 0.40563 0.7543 0.0
C70 C 0.88839 0.39547 0.72956 0.0
C71 C 0.90908 0.43968 0.76738 0.0
C72 C 0.89733 0.46355 0.75564 0.0
C73 C 0.88085 0.45313 0.73091 0.0
C74 C 0.87677 0.41939 0.71812 0.0
N75 N 0.86665 0.47465 0.71826 0.0
C76 C 0.87555 0.51283 0.72519 0.0
H77 H 0.62261 0.54027 0.77517 0.0
H78 H 0.52278 0.42473 0.75579 0.0
H79 H 0.61199 0.47554 0.7063 0.0
C80 C 0.6065 0.51413 0.7623 0.0
C81 C 0.62136 0.51166 0.73993 0.0
C82 C 0.57083 0.48284 0.76805 0.0
C83 C 0.55019 0.44877 0.75134 0.0
C84 C 0.5653 0.4461 0.72905 0.0
C85 C 0.60051 0.47766 0.72352 0.0
N86 N 0.54675 0.41241 0.71162 0.0
C87 C 0.5116 0.37811 0.71319 0.0
H88 H 0.46512 0.07927 0.77516 0.0
H89 H 0.56882 0.07246 0.79037 0.0
H90 H 0.54991 0.11254 0.72191 0.0
C91 C 0.49253 0.08314 0.76961 0.0
C92 C 0.50471 0.09701 0.7467 0.0
C93 C 0.51584 0.07473 0.78552 0.0
C94 C 0.55103 0.0795 0.77822 0.0
C95 C 0.56362 0.09288 0.75543 0.0
C96 C 0.54051 0.10202 0.73957 0.0
N97 N 0.59921 0.09551 0.74947 0.0
C98 C 0.62045 0.11216 0.72972 0.0
H99 H 0.738 0.60255 0.92245 0.0
H100 H 0.83932 0.5911 0.93888 0.0
H101 H 0.74883 0.55182 0.98796 0.0
C102 C 0.75448 0.59384 0.93446 0.0
C103 C 0.73932 0.57667 0.956 0.0
C104 C 0.79069 0.59929 0.92825 0.0
C105 C 0.81158 0.58713 0.94372 0.0
C106 C 0.7964 0.57009 0.96541 0.0
C107 C 0.76059 0.56526 0.97136 0.0
N108 N 0.8157 0.55718 0.9819 0.0
C109 C 0.84949 0.55594 0.97839 0.0
H110 H 0.43168 0.13349 0.92976 0.0
H111 H 0.46092 0.25446 0.93173 0.0
H112 H 0.50084 0.21486 0.99269 0.0
C113 C 0.44551 0.16275 0.93934 0.0
C114 C 0.46602 0.17053 0.96277 0.0
C115 C 0.44423 0.19319 0.92789 0.0
C116 C 0.46194 0.231 0.94052 0.0
C117 C 0.48207 0.23859 0.96406 0.0
C118 C 0.48456 0.20857 0.97475 0.0
N119 N 0.50133 0.27626 0.97732 0.0
C120 C 0.49159 0.30498 0.97397 0.0
H121 H 0.87432 0.29432 0.92429 0.0
H122 H 0.777 0.17845 0.92963 0.0
H123 H 0.83636 0.25739 0.99513 0.0
C124 C 0.85391 0.27252 0.93526 0.0
C125 C 0.85786 0.28063 0.96098 0.0
C126 C 0.82483 0.23572 0.92378 0.0
C127 C 0.79867 0.20731 0.93822 0.0
C128 C 0.80277 0.21533 0.96405 0.0
C129 C 0.83252 0.25175 0.97519 0.0
N130 N 0.78155 0.18567 0.97956 0.0
C131 C 0.74105 0.16392 0.97849 0.0
H132 H 0.57996 0.71611 0.09914 0.0
H133 H 0.59562 0.83205 0.09723 0.0
H134 H 0.56768 0.75733 0.02981 0.0
C135 C 0.57967 0.73868 0.08884 0.0
C136 C 0.57186 0.73228 0.06309 0.0
C137 C 0.58849 0.77475 0.10119 0.0
C138 C 0.58826 0.80402 0.08773 0.0
C139 C 0.58076 0.79758 0.06186 0.0
C140 C 0.57295 0.76195 0.04978 0.0
N141 N 0.58276 0.82673 0.04709 0.0
C142 C 0.57795 0.85784 0.05513 0.0
H143 H 0.29018 0.88655 0.10807 0.0
H144 H 0.18474 0.77776 0.08287 0.0
H145 H 0.2769 0.82898 0.03658 0.0
C146 C 0.2711 0.86382 0.09373 0.0
C147 C 0.28729 0.86147 0.07189 0.0
C148 C 0.23133 0.83704 0.0968 0.0
C149 C 0.21213 0.8028 0.07967 0.0
C150 C 0.22829 0.80047 0.05781 0.0
C151 C 0.26483 0.83072 0.05364 0.0
N152 N 0.20856 0.76874 0.03911 0.0
C153 C 0.17944 0.73107 0.04245 0.0
H154 H 0.1539 0.43416 0.1123 0.0
H155 H 0.24854 0.41229 0.12702 0.0
H156 H 0.23226 0.44953 0.05686 0.0
C157 C 0.17934 0.43369 0.10649 0.0
C158 C 0.19058 0.4432 0.08269 0.0
C159 C 0.20019 0.42257 0.12256 0.0
C160 C 0.23259 0.42131 0.11477 0.0
C161 C 0.24486 0.43162 0.09141 0.0
C162 C 0.22376 0.4426 0.07525 0.0
N163 N 0.27732 0.4285 0.08469 0.0
C164 C 0.30126 0.44764 0.06652 0.0
H165 H 0.40342 0.94092 0.25402 0.0
H166 H 0.48763 0.90215 0.25904 0.0
H167 H 0.39414 0.85893 0.30568 0.0
C168 C 0.41442 0.92367 0.26247 0.0
C169 C 0.3949 0.90038 0.28126 0.0
C170 C 0.44708 0.92339 0.25376 0.0
C171 C 0.4623 0.90214 0.26546 0.0
C172 C 0.44336 0.87935 0.28454 0.0
C173 C 0.40923 0.87764 0.29155 0.0
N174 N 0.45603 0.85591 0.29643 0.0
C175 C 0.49366 0.86151 0.29845 0.0
H176 H 0.10385 0.46909 0.26393 0.0
H177 H 0.09505 0.57391 0.26976 0.0
H178 H 0.12743 0.53534 0.33441 0.0
C179 C 0.1063 0.4941 0.27494 0.0
C180 C 0.11726 0.49956 0.30047 0.0
C181 C 0.0981 0.52089 0.26377 0.0
C182 C 0.10164 0.55344 0.27825 0.0
C183 C 0.11218 0.55849 0.3038 0.0
C184 C 0.11951 0.53138 0.31466 0.0
N185 N 0.11404 0.58927 0.31956 0.0
C186 C 0.12149 0.62545 0.31261 0.0
H187 H 0.54384 0.63039 0.26043 0.0
H188 H 0.44792 0.51182 0.248 0.0
H189 H 0.47663 0.57437 0.32026 0.0
C190 C 0.5195 0.60538 0.26717 0.0
C191 C 0.5129 0.60667 0.29217 0.0
C192 C 0.49594 0.57135 0.25109 0.0
C193 C 0.46544 0.5386 0.26016 0.0
C194 C 0.4576 0.53965 0.28483 0.0
C195 C 0.48132 0.57391 0.30091 0.0
N196 N 0.42897 0.50414 0.29331 0.0
C197 C 0.40149 0.50038 0.30935 0.0
C198 C 0.54765 0.05518 0.09835 0.0
Eu199 Eu 0.5288 0.03811 0.05073 0.0
C200 C 0.53254 0.03641 0.12112 0.0
C201 C 0.55899 0.04152 0.14121 0.0
C202 C 0.54557 0.02354 0.1628 0.0
C203 C 0.50536 1.00015 0.16476 0.0
C204 C 0.47881 0.99499 0.14467 0.0
C205 C 0.49226 0.01285 0.12301 0.0
C206 C 0.50435 0.07179 0.01738 0.0
C207 C 0.43951 0.96321 0.04056 0.0
C208 C 0.47672 0.96979 0.95203 0.0
Eu209 Eu 0.49827 0.99196 0.99912 0.0
C210 C 0.4815 0.98752 0.92825 0.0
C211 C 0.51526 0.99865 0.91604 0.0
C212 C 0.5186 0.01376 0.89313 0.0
C213 C 0.48834 0.01806 0.88201 0.0
C214 C 0.45484 0.00749 0.8942 0.0
C215 C 0.45136 0.99218 0.91704 0.0
C216 C 0.52546 0.96013 0.0323 0.0
C217 C 0.58752 0.06777 1.00909 0.0
O218 O 0.56215 0.03873 0.08423 0.0
O219 O 0.52676 0.06667 0.08563 0.0
O220 O 0.5317 0.0915 0.03535 0.0
O221 O 0.48827 0.03549 0.01957 0.0
O222 O 0.46964 0.98661 0.0567 0.0
O223 O 0.44192 0.96221 0.01657 0.0
O224 O 0.45562 0.97607 0.96721 0.0
O225 O 0.50728 0.97106 0.96354 0.0
O226 O 0.49701 0.93954 0.01519 0.0
O227 O 0.5396 0.99591 0.02967 0.0
O228 O 0.55667 0.04533 0.99315 0.0
O229 O 0.58556 0.06782 0.03324 0.0
H230 H 0.59015 0.05936 0.14015 0.0
H231 H 0.56655 0.02779 0.17799 0.0
H232 H 0.44769 0.97695 0.14574 0.0
H233 H 0.47119 0.00813 0.10776 0.0
H234 H 0.53895 0.99532 0.92403 0.0
H235 H 0.54462 0.02171 0.88392 0.0
H236 H 0.43116 0.01051 0.88583 0.0
H237 H 0.42488 0.98364 0.92584 0.0
C238 C 0.00792 0.51529 0.08614 0.0
Eu239 Eu 0.01591 0.49783 0.04082 0.0
C240 C 0.02006 0.51212 0.11171 0.0
C241 C 0.01329 0.47624 0.11986 0.0
C242 C 0.02559 0.47473 0.14423 0.0
C243 C 0.04498 0.50904 0.16068 0.0
C244 C 0.05189 0.54477 0.15249 0.0
C245 C 0.03946 0.54627 0.12827 0.0
C246 C 0.98106 0.427 0.01286 0.0
C247 C 0.08377 0.47906 0.02982 0.0
C248 C 0.04026 0.48913 0.94001 0.0
Eu249 Eu 0.03867 0.49964 0.98743 0.0
C250 C 0.01622 0.48141 0.91625 0.0
C251 C 0.00842 0.5099 0.90738 0.0
C252 C 0.98921 0.50368 0.88379 0.0
C253 C 0.97736 0.4689 0.8687 0.0
C254 C 0.98408 0.43997 0.87772 0.0
C255 C 1.00345 0.44623 0.90125 0.0
C256 C 0.08576 0.56565 0.01841 0.0
C257 C 0.97015 0.51938 0.99891 0.0
O258 O 0.03604 0.5393 0.07368 0.0
O259 O 0.98176 0.48321 0.07261 0.0
O260 O 0.99067 0.4315 0.03651 0.0
O261 O 0.98794 0.45938 1.00585 0.0
O262 O 0.07091 0.49457 0.04622 0.0
O263 O 0.07101 0.47234 1.00607 0.0
O264 O 0.02887 0.46059 0.95438 0.0
O265 O 0.05444 0.52371 0.95231 0.0
O266 O 0.09804 0.55207 1.00099 0.0
O267 O 0.04924 0.54489 0.01741 0.0
O268 O 0.99012 0.51386 0.98208 0.0
O269 O 0.97516 0.51554 0.02258 0.0
H270 H 0.99861 0.44948 0.10747 0.0
H271 H 0.02 0.44688 0.15027 0.0
H272 H 0.06672 0.5715 0.16494 0.0
H273 H 0.04508 0.57425 0.12243 0.0
H274 H 0.01791 0.53739 0.91839 0.0
H275 H 0.98428 0.52632 0.87709 0.0
H276 H 0.97521 0.41298 0.86627 0.0
H277 H 0.00931 0.42392 0.9075 0.0
C278 C 0.47044 0.50573 0.93118 0.0
Eu279 Eu 0.50067 0.52029 0.97696 0.0
C280 C 0.48428 0.5027 0.9068 0.0
C281 C 0.50501 0.53606 0.89409 0.0
C282 C 0.51873 0.53295 0.87144 0.0
C283 C 0.51188 0.49644 0.86105 0.0
C284 C 0.49081 0.46304 0.87347 0.0
C285 C 0.47704 0.46609 0.89605 0.0
C286 C 0.54031 0.58964 1.00632 0.0
C287 C 0.58859 0.53903 0.98789 0.0
C288 C 0.54796 0.52409 0.07709 0.0
Eu289 Eu 0.52867 0.51574 0.02972 0.0
C290 C 0.53717 0.53273 0.10128 0.0
C291 C 0.52554 0.5045 0.11832 0.0
C292 C 0.51819 0.51273 0.14203 0.0
C293 C 0.5225 0.54947 0.14927 0.0
C294 C 0.5335 0.57764 0.13221 0.0
C295 C 0.54073 0.56935 0.10837 0.0
C296 C 0.5107 0.45291 0.99727 0.0
C297 C 0.43956 0.49891 0.01823 0.0
O298 O 0.46512 0.47839 0.94552 0.0
O299 O 0.48639 0.54051 0.94347 0.0
O300 O 0.54263 0.58644 0.98274 0.0
O301 O 0.51544 0.55703 0.01255 0.0
O302 O 0.55799 0.52349 0.97133 0.0
O303 O 0.58556 0.54478 0.01163 0.0
O304 O 0.56424 0.55272 0.06289 0.0
O305 O 0.52356 0.49017 0.06467 0.0
O306 O 0.5381 0.46668 0.01539 0.0
O307 O 0.49222 0.47114 0.99843 0.0
O308 O 0.46661 0.5008 0.03454 0.0
O309 O 0.44575 0.50631 0.99503 0.0
H310 H 0.51086 0.56464 0.90168 0.0
H311 H 0.53487 0.55904 0.86207 0.0
H312 H 0.48515 0.4346 0.86569 0.0
H313 H 0.46091 0.43972 0.90518 0.0
H314 H 0.52289 0.47621 0.11344 0.0
H315 H 0.50985 0.49068 0.15495 0.0
H316 H 0.53709 0.60621 0.13749 0.0
H317 H 0.54978 0.59181 0.09571 0.0
C318 C 0.21392 0.38912 0.43679 0.0
Eu319 Eu 0.18901 0.37408 0.38995 0.0
C320 C 0.19819 0.37069 0.45971 0.0
C321 C 0.16785 0.37355 0.47003 0.0
C322 C 0.15354 0.35623 0.49167 0.0
C323 C 0.16919 0.33568 0.50344 0.0
C324 C 0.19932 0.3326 0.4932 0.0
C325 C 0.21374 0.35001 0.4716 0.0
C326 C 0.15806 0.40758 0.36128 0.0
C327 C 0.10148 0.3019 0.37565 0.0
C328 C 0.13722 0.32415 0.2902 0.0
Eu329 Eu 0.16727 0.34064 0.33604 0.0
C330 C 0.14659 0.34144 0.26632 0.0
C331 C 0.15673 0.32325 0.24757 0.0
C332 C 0.16468 0.33832 0.22468 0.0
C333 C 0.16234 0.37171 0.21997 0.0
C334 C 0.15207 0.38996 0.23858 0.0
C335 C 0.14436 0.37505 0.26159 0.0
C336 C 0.198 0.30602 0.36386 0.0
C337 C 0.25543 0.41169 0.35024 0.0
O338 O 0.22303 0.36931 0.42112 0.0
O339 O 0.19704 0.4062 0.42574 0.0
O340 O 0.15196 0.40273 0.38429 0.0
O341 O 0.18216 0.39747 0.35532 0.0
O342 O 0.1281 0.32538 0.39365 0.0
O343 O 0.10957 0.30294 0.35237 0.0
O344 O 0.12766 0.34184 0.30717 0.0
O345 O 0.15942 0.31114 0.29936 0.0
O346 O 0.20288 0.31098 0.34072 0.0
O347 O 0.17451 0.31675 0.37059 0.0
O348 O 0.22811 0.38937 0.3322 0.0
O349 O 0.24774 0.41007 0.37373 0.0
H350 H 0.15515 0.38924 0.46146 0.0
H351 H 0.13038 0.35904 0.49934 0.0
H352 H 0.2119 0.31701 0.50207 0.0
H353 H 0.23719 0.34739 0.46421 0.0
H354 H 0.15832 0.29716 0.25057 0.0
H355 H 0.17243 0.32376 0.21053 0.0
H356 H 0.14998 0.41568 0.23525 0.0
H357 H 0.13645 0.38972 0.27556 0.0
C358 C 0.65809 0.84034 0.42192 0.0
Eu359 Eu 0.66656 0.82107 0.37712 0.0
C360 C 0.67049 0.83809 0.44757 0.0
C361 C 0.66977 0.80426 0.45513 0.0
C362 C 0.68312 0.80386 0.47944 0.0
C363 C 0.69767 0.83735 0.49639 0.0
C364 C 0.69847 0.87107 0.4888 0.0
C365 C 0.68493 0.87139 0.46463 0.0
C366 C 0.63118 0.74977 0.34992 0.0
C367 C 0.73331 0.79888 0.36749 0.0
C368 C 0.69658 0.81362 0.27803 0.0
Eu369 Eu 0.69181 0.82272 0.32507 0.0
C370 C 0.67408 0.80698 0.25386 0.0
C371 C 0.67175 0.83782 0.24363 0.0
C372 C 0.6547 0.83257 0.21953 0.0
C373 C 0.63961 0.79645 0.2053 0.0
C374 C 0.64046 0.76516 0.2157 0.0
C375 C 0.65769 0.77042 0.23976 0.0
C376 C 0.73941 0.88797 0.35655 0.0
C377 C 0.62147 0.84089 0.33343 0.0
O378 O 0.68612 0.8639 0.40925 0.0
O379 O 0.63223 0.80769 0.40879 0.0
O380 O 0.64029 0.75477 0.37364 0.0
O381 O 0.63915 0.78216 0.34221 0.0
O382 O 0.71956 0.81387 0.38371 0.0
O383 O 0.72179 0.79331 0.34363 0.0
O384 O 0.68383 0.78454 0.29203 0.0
O385 O 0.71046 0.84792 0.29063 0.0
O386 O 0.75165 0.87338 0.33979 0.0
O387 O 0.70269 0.86874 0.35483 0.0
O388 O 0.64398 0.83727 0.31778 0.0
O389 O 0.62456 0.83629 0.3572 0.0
H390 H 0.65917 0.77833 0.44225 0.0
H391 H 0.6823 0.77758 0.48503 0.0
H392 H 0.70954 0.89713 0.50164 0.0
H393 H 0.68602 0.89786 0.45916 0.0
H394 H 0.68421 0.86642 0.25389 0.0
H395 H 0.65442 0.85704 0.21169 0.0
H396 H 0.62915 0.73717 0.20485 0.0
H397 H 0.65935 0.74627 0.24705 0.0
C398 C 0.12919 0.82932 0.26264 0.0
Eu399 Eu 0.16022 0.84971 0.30821 0.0
C400 C 0.14471 0.83282 0.23834 0.0
C401 C 0.12769 0.84204 0.21849 0.0
C402 C 0.14149 0.84461 0.19525 0.0
C403 C 0.17237 0.83772 0.19143 0.0
C404 C 0.18971 0.82883 0.2113 0.0
C405 C 0.17615 0.82662 0.23463 0.0
C406 C 0.19785 0.92306 0.33268 0.0
C407 C 0.25 0.87577 0.31855 0.0
C408 C 0.21704 0.8711 0.40786 0.0
Eu409 Eu 0.19263 0.85557 0.36101 0.0
C410 C 0.2069 0.87926 0.43214 0.0
C411 C 0.23686 0.89959 0.45135 0.0
C412 C 0.22801 0.90415 0.4753 0.0
C413 C 0.18902 0.88834 0.48035 0.0
C414 C 0.159 0.86913 0.46099 0.0
C415 C 0.16788 0.86465 0.43696 0.0
C416 C 0.17498 0.78846 0.33312 0.0
C417 C 0.10056 0.8294 0.35053 0.0
O418 O 0.1336 0.8057 0.27667 0.0
O419 O 0.13599 0.86189 0.275 0.0
O420 O 0.20068 0.9161 0.30956 0.0
O421 O 0.17474 0.89172 0.34121 0.0
O422 O 0.21806 0.85352 0.30354 0.0
O423 O 0.24743 0.88745 0.34122 0.0
O424 O 0.22736 0.89826 0.39256 0.0
O425 O 0.19506 0.83551 0.39693 0.0
O426 O 0.20539 0.8074 0.34909 0.0
O427 O 0.1553 0.80548 0.33301 0.0
O428 O 0.12984 0.83691 0.36707 0.0
O429 O 0.10494 0.83279 0.32672 0.0
H430 H 0.10357 0.84705 0.22095 0.0
H431 H 0.12784 0.85164 0.18013 0.0
H432 H 0.21369 0.82363 0.20874 0.0
H433 H 0.19008 0.81981 0.24969 0.0
H434 H 0.2671 0.91098 0.44797 0.0
H435 H 0.25149 0.91909 0.49003 0.0
H436 H 0.12875 0.8568 0.4646 0.0
H437 H 0.14433 0.8489 0.42235 0.0
C438 C 0.87791 0.72979 0.7713 0.0
Eu439 Eu 0.85212 0.7093 0.72473 0.0
C440 C 0.8671 0.71063 0.79456 0.0
C441 C 0.84743 0.72143 0.81115 0.0
C442 C 0.83622 0.70301 0.83283 0.0
C443 C 0.84458 0.67354 0.83841 0.0
C444 C 0.8647 0.66301 0.82213 0.0
C445 C 0.87597 0.68144 0.80045 0.0
C446 C 0.81858 0.73816 0.69375 0.0
C447 C 0.76767 0.63393 0.71066 0.0
C448 C 0.80569 0.65255 0.62511 0.0
Eu449 Eu 0.83336 0.67345 0.67139 0.0
C450 C 0.81455 0.6694 0.6011 0.0
C451 C 0.82568 0.65174 0.58264 0.0
C452 C 0.83311 0.66638 0.5596 0.0
C453 C 0.82928 0.69882 0.55448 0.0
C454 C 0.81817 0.71663 0.57285 0.0
C455 C 0.81097 0.70214 0.59599 0.0
C456 C 0.86813 0.64478 0.70183 0.0
C457 C 0.919 0.74749 0.68597 0.0
O458 O 0.8933 0.71637 0.7556 0.0
O459 O 0.85302 0.73807 0.76034 0.0
O460 O 0.81255 0.73466 0.71682 0.0
O461 O 0.84443 0.72998 0.68894 0.0
O462 O 0.7945 0.65591 0.72885 0.0
O463 O 0.77497 0.63678 0.68724 0.0
O464 O 0.79238 0.66799 0.641 0.0
O465 O 0.83055 0.64383 0.6356 0.0
O466 O 0.87291 0.64849 0.67857 0.0
O467 O 0.8421 0.65273 0.70702 0.0
O468 O 0.8921 0.72574 0.66763 0.0
O469 O 0.91094 0.74536 0.70929 0.0
H470 H 0.8405 0.74402 0.80729 0.0
H471 H 0.82085 0.71163 0.84522 0.0
H472 H 0.87155 0.64044 0.82619 0.0
H473 H 0.89143 0.67261 0.78829 0.0
H474 H 0.8284 0.62636 0.58599 0.0
H475 H 0.84153 0.65218 0.54563 0.0
H476 H 0.81492 0.7416 0.56921 0.0
H477 H 0.80235 0.71644 0.60976 0.0
C478 C 0.31688 0.15427 0.75506 0.0
Eu479 Eu 0.32345 0.14952 0.7078 0.0
C480 C 0.33803 0.15884 0.77941 0.0
C481 C 0.32224 0.12823 0.79477 0.0
C482 C 0.33997 0.13286 0.81859 0.0
C483 C 0.37374 0.16825 0.82749 0.0
C484 C 0.39 0.19871 0.81213 0.0
C485 C 0.37224 0.19412 0.78831 0.0
C486 C 0.2746 0.08557 0.6758 0.0
C487 C 0.3939 0.13191 0.69738 0.0
C488 C 0.34898 0.13922 0.60895 0.0
Eu489 Eu 0.34788 0.15188 0.65639 0.0
C490 C 0.32907 0.13634 0.58436 0.0
C491 C 0.34178 0.16956 0.57117 0.0
C492 C 0.32701 0.16582 0.54661 0.0
C493 C 0.29948 0.12881 0.53472 0.0
C494 C 0.28564 0.0958 0.54803 0.0
C495 C 0.30032 0.0995 0.57261 0.0
C496 C 0.39649 0.21759 0.68697 0.0
C497 C 0.28521 0.18064 0.66906 0.0
O498 O 0.33045 0.18448 0.74209 0.0
O499 O 0.30374 0.12101 0.74142 0.0
O500 O 0.26283 0.10117 0.69227 0.0
O501 O 0.31139 0.10298 0.67779 0.0
O502 O 0.37793 0.14429 0.71357 0.0
O503 O 0.38379 0.12771 0.67343 0.0
O504 O 0.33044 0.11128 0.62314 0.0
O505 O 0.36947 0.17382 0.6214 0.0
O506 O 0.40781 0.20244 0.66979 0.0
O507 O 0.35968 0.19865 0.6861 0.0
O508 O 0.30032 0.1686 0.65194 0.0
O509 O 0.29289 0.17994 0.69278 0.0
H510 H 0.29569 0.10092 0.7885 0.0
H511 H 0.32703 0.1091 0.83024 0.0
H512 H 0.41602 0.22626 0.81877 0.0
H513 H 0.38489 0.21846 0.7771 0.0
H514 H 0.36418 0.19827 0.57951 0.0
H515 H 0.33813 0.19159 0.53658 0.0
H516 H 0.26452 0.06697 0.53911 0.0
H517 H 0.29018 0.07325 0.5821 0.0
C518 C 0.79775 0.16589 0.5982 0.0
Eu519 Eu 0.82518 0.18385 0.64458 0.0
C520 C 0.81373 0.16977 0.57398 0.0
C521 C 0.79426 0.17463 0.55339 0.0
C522 C 0.80731 0.17551 0.52999 0.0
C523 C 0.83997 0.17134 0.52675 0.0
C524 C 0.85997 0.16719 0.54739 0.0
C525 C 0.84705 0.16654 0.57085 0.0
C526 C 0.86244 0.25458 0.67255 0.0
C527 C 0.91424 0.2064 0.65887 0.0
C528 C 0.86723 0.19214 0.74694 0.0
Eu529 Eu 0.85135 0.18256 0.69905 0.0
C530 C 0.85386 0.19847 0.77084 0.0
C531 C 0.82813 0.1662 0.78302 0.0
C532 C 0.81995 0.17166 0.80708 0.0
C533 C 0.83736 0.20944 0.81954 0.0
C534 C 0.86195 0.24187 0.80723 0.0
C535 C 0.87022 0.23645 0.78314 0.0
C536 C 0.8321 0.11718 0.66857 0.0
C537 C 0.76149 0.1624 0.68444 0.0
O538 O 0.80171 0.14179 0.61204 0.0
O539 O 0.80402 0.19807 0.61087 0.0
O540 O 0.86493 0.2504 0.64904 0.0
O541 O 0.83821 0.22204 0.67928 0.0
O542 O 0.88451 0.19005 0.64158 0.0
O543 O 0.90961 0.21199 0.68236 0.0
O544 O 0.88215 0.22115 0.73291 0.0
O545 O 0.84624 0.1578 0.73418 0.0
O546 O 0.85947 0.13155 0.68673 0.0
O547 O 0.81517 0.13696 0.66837 0.0
O548 O 0.78858 0.16721 0.7019 0.0
O549 O 0.76828 0.1673 0.661 0.0
H550 H 0.76852 0.17709 0.55533 0.0
H551 H 0.79154 0.17882 0.51429 0.0
H552 H 0.88528 0.16404 0.54529 0.0
H553 H 0.86268 0.16284 0.58645 0.0
H554 H 0.81537 0.13651 0.77432 0.0
H555 H 0.80109 0.14626 0.81633 0.0
H556 H 0.87588 0.27125 0.81661 0.0
H557 H 0.89053 0.2619 0.7745 0.0
C558 C 0.35444 0.87571 0.06445 0.0
C559 C 0.32837 0.88999 0.06773 0.0
C560 C 0.37797 0.95439 0.05672 0.0
C561 C 0.40133 0.93808 0.04994 0.0
N562 N 0.40845 0.88113 0.04326 0.0
N563 N 0.31319 0.94171 0.06398 0.0
C564 C 0.38868 0.89815 0.05269 0.0
C565 C 0.33966 0.9292 0.06332 0.0
N566 N 0.34663 0.84083 0.0729 0.0
N567 N 0.39224 0.99384 0.05664 0.0
H568 H 0.28476 0.92412 0.06844 0.0
H569 H 0.31838 0.96845 0.0582 0.0
H570 H 0.41942 0.01289 0.05087 0.0
H571 H 0.37836 0.00804 0.06397 0.0
H572 H 0.36637 0.83069 0.07308 0.0
H573 H 0.32214 0.82408 0.08212 0.0
H574 H 0.39829 0.85111 0.04259 0.0
H575 H 0.43316 0.8964 0.034 0.0
C576 C 0.17801 0.49074 0.06027 0.0
C577 C 0.16578 0.45165 0.06539 0.0
C578 C 0.10055 0.4295 0.04474 0.0
C579 C 0.113 0.4684 0.03903 0.0
N580 N 0.16573 0.53399 0.03618 0.0
N581 N 0.11908 0.38255 0.0573 0.0
C582 C 0.15251 0.49837 0.04514 0.0
C583 C 0.12818 0.4206 0.05588 0.0
N584 N 0.21319 0.52082 0.07083 0.0
N585 N 0.06195 0.40145 0.04071 0.0
H586 H 0.13875 0.37505 0.06522 0.0
H587 H 0.09359 0.35855 0.04861 0.0
H588 H 0.04093 0.40679 0.03252 0.0
H589 H 0.0503 0.37385 0.04713 0.0
H590 H 0.22178 0.55033 0.07022 0.0
H591 H 0.23282 0.51637 0.08176 0.0
H592 H 0.19498 0.55597 0.03802 0.0
H593 H 0.14785 0.54013 0.02481 0.0
C594 C 0.52569 0.66896 0.03774 0.0
C595 C 0.56367 0.69495 0.04953 0.0
C596 C 0.58578 0.65042 0.03457 0.0
C597 C 0.54919 0.62679 0.02041 0.0
N598 N 0.48592 0.6165 1.0056 0.0
N599 N 0.63181 0.71417 0.05583 0.0
C600 C 0.51958 0.63693 0.02113 0.0
C601 C 0.59431 0.68675 0.04704 0.0
N602 N 0.49524 0.67422 0.04301 0.0
N603 N 0.61192 0.63763 0.03691 0.0
H604 H 0.63936 0.7412 0.06512 0.0
H605 H 0.65588 0.71153 0.05205 0.0
H606 H 0.60655 0.61108 0.02827 0.0
H607 H 0.63716 0.65154 0.04918 0.0
H608 H 0.46619 0.65386 0.03706 0.0
H609 H 0.49863 0.6972 0.05529 0.0
H610 H 0.46511 0.62513 1.0035 0.0
H611 H 0.48015 0.59266 0.99324 0.0
C612 C 0.92888 0.32656 0.9755 0.0
C613 C 0.88978 0.31873 0.97349 0.0
C614 C 0.91017 0.38003 0.99933 0.0
C615 C 0.94971 0.3893 0.99971 0.0
N616 N 0.99741 0.37551 0.98367 0.0
N617 N 0.84405 0.34107 0.97945 0.0
C618 C 0.9593 0.36374 0.98651 0.0
C619 C 0.88066 0.34638 0.98426 0.0
N620 N 0.93687 0.29802 0.96764 0.0
N621 N 0.90065 0.40289 0.01377 0.0
H622 H 0.82175 0.31683 0.96844 0.0
H623 H 0.83672 0.36226 0.98446 0.0
H624 H 0.92134 0.42798 0.0249 0.0
H625 H 0.87203 0.39532 0.01631 0.0
H626 H 0.96413 0.3005 0.97115 0.0
H627 H 0.91547 0.27042 0.95943 0.0
H628 H 1.00601 0.35994 0.97205 0.0
H629 H 0.02034 0.40275 0.99107 0.0
C630 C 0.66878 0.52873 0.95915 0.0
C631 C 0.69998 0.56813 0.96218 0.0
C632 C 0.65665 0.58915 0.97918 0.0
C633 C 0.62721 0.54923 0.97934 0.0
N634 N 0.60741 0.48061 0.9726 0.0
N635 N 0.72546 0.63572 0.97767 0.0
C636 C 0.6338 0.51888 0.97006 0.0
C637 C 0.69445 0.59838 0.9729 0.0
N638 N 0.67236 0.5008 0.94544 0.0
N639 N 0.64803 0.61819 0.98389 0.0
H640 H 0.75335 0.64371 0.97288 0.0
H641 H 0.72417 0.65801 0.98797 0.0
H642 H 0.62022 0.61234 0.98742 0.0
H643 H 0.66715 0.6476 0.98179 0.0
H644 H 0.64919 0.47246 0.94036 0.0
H645 H 0.69755 0.50702 0.93707 0.0
H646 H 0.61241 0.45748 0.96854 0.0
H647 H 0.58199 0.47235 0.98102 0.0
C648 C 0.49175 0.1239 0.96475 0.0
C649 C 0.46983 0.13966 0.9749 0.0
C650 C 0.4663 0.10685 0.01239 0.0
C651 C 0.48711 0.09012 1.00175 0.0
N652 N 0.5064 0.07164 0.96463 0.0
N653 N 0.42785 0.13837 1.0055 0.0
C654 C 0.49562 0.09511 0.9769 0.0
C655 C 0.45439 0.12862 0.99787 0.0
N656 N 0.51068 0.13774 0.94427 0.0
N657 N 0.45845 0.10245 0.03643 0.0
H658 H 0.41802 0.15362 0.995 0.0
H659 H 0.41288 0.12824 0.02096 0.0
H660 H 0.46483 0.08491 0.04714 0.0
H661 H 0.44748 0.11774 0.04611 0.0
H662 H 0.53051 0.13017 0.93785 0.0
H663 H 0.50966 0.15966 0.93507 0.0
H664 H 0.51049 0.07215 0.94593 0.0
H665 H 0.50533 0.04787 0.97241 0.0
C666 C 0.68119 0.15818 0.99411 0.0
C667 C 0.70007 0.14005 0.9826 0.0
C668 C 0.64277 0.07505 0.98492 0.0
C669 C 0.62572 0.09287 0.99922 0.0
N670 N 0.62839 0.15137 0.01756 0.0
N671 N 0.70073 0.08192 0.96765 0.0
C672 C 0.64486 0.13449 1.00381 0.0
C673 C 0.68119 0.09869 0.97792 0.0
N674 N 0.69782 0.19812 0.99531 0.0
N675 N 0.62237 0.03553 0.97798 0.0
H676 H 0.72802 0.09835 0.96116 0.0
H677 H 0.6911 0.05202 0.9667 0.0
H678 H 0.59541 0.01641 0.98391 0.0
H679 H 0.63096 0.02169 0.96503 0.0
H680 H 0.68419 0.21334 1.00129 0.0
H681 H 0.72435 0.21607 0.98833 0.0
H682 H 0.64275 0.1809 0.02423 0.0
H683 H 0.6006 0.13545 0.02332 0.0
C684 C 0.91659 0.57675 0.99615 0.0
C685 C 0.88332 0.55079 0.97972 0.0
C686 C 0.90784 0.50507 0.97463 0.0
C687 C 0.94131 0.53107 0.99105 0.0
N688 N 0.982 0.59517 0.01313 0.0
N689 N 0.85102 0.49546 0.94895 0.0
C690 C 0.94705 0.56804 1.00051 0.0
C691 C 0.88028 0.51667 0.96746 0.0
N692 N 0.91841 0.60904 1.00823 0.0
N693 N 0.9012 0.46843 0.96707 0.0
H694 H 0.83047 0.5034 0.94344 0.0
H695 H 0.84919 0.47233 0.93763 0.0
H696 H 0.9204 0.45863 0.97212 0.0
H697 H 0.87527 0.44655 0.95738 0.0
H698 H 0.93934 0.62646 0.02276 0.0
H699 H 0.89761 0.61737 1.00449 0.0
H700 H 0.98966 0.62411 0.01824 0.0
H701 H 1.00486 0.58972 0.0168 0.0
C702 C 0.50314 0.36738 0.95874 0.0
C703 C 0.48505 0.3379 0.97484 0.0
C704 C 0.4718 0.38102 1.00133 0.0
C705 C 0.49321 0.41176 0.98652 0.0
N706 N 0.51652 0.431 0.9471 0.0
N707 N 0.44169 0.31137 1.00639 0.0
C708 C 0.50457 0.40379 0.96377 0.0
C709 C 0.4656 0.34294 0.9944 0.0
N710 N 0.52044 0.36112 0.93941 0.0
N711 N 0.45917 0.38882 0.02256 0.0
H712 H 0.43679 0.28322 1.00142 0.0
H713 H 0.42421 0.31219 0.01964 0.0
H714 H 0.46147 0.4159 0.0274 0.0
H715 H 0.44758 0.36909 0.03577 0.0
H716 H 0.53818 0.38302 0.92869 0.0
H717 H 0.51819 0.334 0.93473 0.0
H718 H 0.52259 0.42611 0.92937 0.0
H719 H 0.51655 0.45722 0.95036 0.0
C720 C 0.11848 0.67444 0.02289 0.0
C721 C 0.15114 0.68948 0.04065 0.0
C722 C 0.13535 0.62263 0.04774 0.0
C723 C 0.10666 0.608 0.02714 0.0
N724 N 0.07356 0.62037 0.99316 0.0
N725 N 0.19186 0.67931 0.07021 0.0
C726 C 0.09855 0.63393 0.01433 0.0
C727 C 0.15972 0.66396 0.05337 0.0
N728 N 0.10663 0.69902 0.01418 0.0
N729 N 0.13885 0.59706 0.06206 0.0
H730 H 0.20903 0.70938 0.07555 0.0
H731 H 0.20256 0.66263 0.078 0.0
H732 H 0.12138 0.56673 0.05837 0.0
H733 H 0.15667 0.60569 0.07862 0.0
H734 H 0.08069 0.6892 1.00299 0.0
H735 H 0.12086 0.72892 0.0202 0.0
H736 H 0.06991 0.63869 0.98164 0.0
H737 H 0.05865 0.59105 0.98589 0.0
C738 C 0.33156 0.44352 0.02889 0.0
C739 C 0.3327 0.46547 0.05067 0.0
C740 C 0.40058 0.51489 0.04629 0.0
C741 C 0.40142 0.4896 0.02704 0.0
N742 N 0.3684 0.42895 1.00036 0.0
N743 N 0.36724 0.52217 0.0804 0.0
C744 C 0.36689 0.45398 0.01807 0.0
C745 C 0.36677 0.50153 0.05926 0.0
N746 N 0.29666 0.41259 0.0187 0.0
N747 N 0.43197 0.55189 0.05183 0.0
H748 H 0.34236 0.51422 0.08956 0.0
H749 H 0.39244 0.546 0.08948 0.0
H750 H 0.45704 0.56252 0.04257 0.0
H751 H 0.43202 0.57319 0.06402 0.0
H752 H 0.29298 0.39738 1.00161 0.0
H753 H 0.27052 0.40447 0.02641 0.0
H754 H 0.34544 0.40059 0.99508 0.0
H755 H 0.39364 0.43545 0.99202 0.0
C756 C 0.5974 0.92619 0.04951 0.0
C757 C 0.57057 0.89013 0.05789 0.0
C758 C 0.52306 0.91189 0.06055 0.0
C759 C 0.54564 0.94297 0.04631 0.0
N760 N 0.60729 0.98326 0.02972 0.0
N761 N 0.50929 0.84895 0.07381 0.0
C762 C 0.58417 0.95187 0.04204 0.0
C763 C 0.53403 0.88333 0.06459 0.0
N764 N 0.63539 0.93553 0.04858 0.0
N765 N 0.49174 0.91044 0.07058 0.0
H766 H 0.51753 0.82845 0.07801 0.0
H767 H 0.48035 0.84016 0.07633 0.0
H768 H 0.4848 0.93248 0.06881 0.0
H769 H 0.47551 0.89018 0.08265 0.0
H770 H 0.65752 0.96286 0.04471 0.0
H771 H 0.64542 0.91691 0.05407 0.0
H772 H 0.63281 0.98752 0.02271 0.0
H773 H 0.6009 0.00506 0.02606 0.0
C774 C 0.99242 0.2432 0.38375 0.0
C775 C 0.9919 0.21793 0.40134 0.0
C776 C 0.06283 0.24614 0.40117 0.0
C777 C 0.06313 0.27045 0.38267 0.0
N778 N 0.02632 0.28477 0.35225 0.0
N779 N 0.02499 0.19201 0.42539 0.0
C780 C 0.02739 0.26685 0.37274 0.0
C781 C 0.02676 0.21867 0.40978 0.0
N782 N 0.95942 0.24502 0.37784 0.0
N783 N 0.09705 0.24876 0.41017 0.0
H784 H 0.9995 0.17285 0.43297 0.0
H785 H 0.04804 0.18734 0.43007 0.0
H786 H 0.123 0.26375 0.402 0.0
H787 H 0.10016 0.23669 0.42601 0.0
H788 H 0.9589 0.26605 0.36739 0.0
H789 H 0.93315 0.22771 0.38526 0.0
H790 H 1.00055 0.27986 0.3427 0.0
H791 H 0.05064 0.3014 0.34304 0.0
C792 C 0.77932 0.7433 0.39631 0.0
C793 C 0.81915 0.77343 0.40052 0.0
C794 C 0.8034 0.81561 0.37676 0.0
C795 C 0.76285 0.78835 0.37667 0.0
N796 N 0.71203 0.72724 0.38882 0.0
N797 N 0.86827 0.84078 0.39738 0.0
C798 C 0.75074 0.75239 0.3871 0.0
C799 C 0.8311 0.81023 0.39128 0.0
N800 N 0.76894 0.7057 0.40052 0.0
N801 N 0.81562 0.84635 0.36271 0.0
H802 H 0.88931 0.83838 0.40826 0.0
H803 H 0.87717 0.86941 0.39346 0.0
H804 H 0.79624 0.85024 0.35123 0.0
H805 H 0.84487 0.86521 0.36038 0.0
H806 H 0.74095 0.68185 0.39574 0.0
H807 H 0.78938 0.69777 0.40627 0.0
H808 H 0.70185 0.70274 0.39871 0.0
H809 H 0.69023 0.73252 0.38195 0.0
C810 C 0.25864 0.02665 0.36557 0.0
C811 C 0.22863 0.03081 0.3758 0.0
C812 C 0.17905 0.96865 0.35304 0.0
C813 C 0.20895 0.96219 0.34504 0.0
N814 N 0.27727 0.98398 0.34379 0.0
N815 N 0.16066 0.00393 0.382 0.0
C816 C 0.24884 0.99106 0.35117 0.0
C817 C 0.18894 1.00122 0.37034 0.0
N818 N 0.29636 0.05706 0.36925 0.0
N819 N 0.14131 0.94474 0.34303 0.0
H820 H 0.16663 0.02776 0.39444 0.0
H821 H 0.13182 0.98111 0.38095 0.0
H822 H 0.13321 0.92161 0.32946 0.0
H823 H 0.11872 0.95013 0.34626 0.0
H824 H 0.31905 0.05789 0.36016 0.0
H825 H 0.30472 0.0828 0.3805 0.0
H826 H 0.3067 1.00127 0.35017 0.0
H827 H 0.27118 0.95963 0.33186 0.0
C828 C 0.53294 0.67101 0.31696 0.0
C829 C 0.54158 0.64146 0.30932 0.0
C830 C 0.60914 0.6829 0.32826 0.0
C831 C 0.59997 0.7116 0.337 0.0
N832 N 0.55101 0.7292 0.34445 0.0
N833 N 0.58513 0.61549 0.31191 0.0
C834 C 0.56119 0.70452 0.33277 0.0
C835 C 0.57888 0.64627 0.31632 0.0
N836 N 0.49829 0.66776 0.3084 0.0
N837 N 0.64704 0.69124 0.33042 0.0
H838 H 0.5636 0.58823 0.30331 0.0
H839 H 0.61031 0.61573 0.31874 0.0
H840 H 0.66987 0.71769 0.33903 0.0
H841 H 0.65632 0.67342 0.32198 0.0
H842 H 0.49222 0.69048 0.31082 0.0
H843 H 0.4766 0.64329 0.29725 0.0
H844 H 0.52239 0.72356 0.34402 0.0
H845 H 0.57061 0.75362 0.35649 0.0
C846 C 0.32599 0.88992 0.27428 0.0
C847 C 0.35932 0.89905 0.29055 0.0
C848 C 0.32075 0.89118 0.32558 0.0
C849 C 0.28891 0.88677 0.30951 0.0
N850 N 0.26905 0.89692 0.26897 0.0
N851 N 0.39097 0.92166 0.33213 0.0
C852 C 0.29389 0.89079 0.28396 0.0
C853 C 0.35756 0.90415 0.31635 0.0
N854 N 0.32367 0.87839 0.24987 0.0
N855 N 0.31582 0.88041 0.34904 0.0
H856 H 0.41866 0.93329 0.32597 0.0
H857 H 0.39118 0.9286 0.35089 0.0
H858 H 0.28881 0.86641 0.35604 0.0
H859 H 0.33795 0.88055 0.36041 0.0
H860 H 0.2983 0.8683 0.23798 0.0
H861 H 0.34512 0.87458 0.24217 0.0
H862 H 0.27334 0.90246 0.2506 0.0
H863 H 0.24757 0.90178 0.27563 0.0
C864 C 0.16664 0.48557 0.32039 0.0
C865 C 0.12689 0.47271 0.31324 0.0
C866 C 0.10694 0.41666 0.33785 0.0
C867 C 0.14675 0.43111 0.34613 0.0
N868 N 0.21303 0.48504 0.35094 0.0
N869 N 0.05869 0.42862 0.31677 0.0
C870 C 0.17628 0.46708 0.33888 0.0
C871 C 0.09681 0.43876 0.3223 0.0
N872 N 0.19525 0.51538 0.30933 0.0
N873 N 0.07891 0.38172 0.34479 0.0
H874 H 0.05027 0.4433 0.30475 0.0
H875 H 0.03549 0.40705 0.32495 0.0
H876 H 0.08513 0.36662 0.35769 0.0
H877 H 0.04995 0.36696 0.33719 0.0
H878 H 0.2246 0.52342 0.31201 0.0
H879 H 0.18914 0.52956 0.29566 0.0
H880 H 0.23474 0.51333 0.34828 0.0
H881 H 0.22085 0.47305 0.36523 0.0
C882 C 0.36662 0.47129 0.34572 0.0
C883 C 0.36697 0.48651 0.32284 0.0
C884 C 0.29686 0.46281 0.32249 0.0
C885 C 0.2949 0.44121 0.34303 0.0
N886 N 0.32895 0.42326 0.37323 0.0
N887 N 0.33282 0.49656 0.28873 0.0
C888 C 0.33018 0.4456 0.35472 0.0
C889 C 0.33228 0.4826 0.31117 0.0
N890 N 0.40126 0.48126 0.35878 0.0
N891 N 0.26512 0.46533 0.31412 0.0
H892 H 0.35856 0.51309 0.28057 0.0
H893 H 0.30767 0.48995 0.2776 0.0
H894 H 0.23873 0.45175 0.32186 0.0
H895 H 0.26597 0.48395 0.30108 0.0
H896 H 0.4034 0.47445 0.37676 0.0
H897 H 0.4282 0.49978 0.35244 0.0
H898 H 0.35296 0.42154 0.38024 0.0
H899 H 0.30336 0.40396 0.3804 0.0
C900 C 0.5339 0.83027 0.29326 0.0
C901 C 0.52943 0.86063 0.30477 0.0
C902 C 0.58873 0.88177 0.33273 0.0
C903 C 0.59014 0.84818 0.3234 0.0
N904 N 0.56054 0.78714 0.29701 0.0
N905 N 0.55061 0.91424 0.33633 0.0
C906 C 0.562 0.8217 0.30407 0.0
C907 C 0.55642 0.88625 0.32469 0.0
N908 N 0.51132 0.80968 0.27188 0.0
N909 N 0.61894 0.91006 0.34859 0.0
H910 H 0.5284 0.91953 0.33016 0.0
H911 H 0.56632 0.9307 0.35281 0.0
H912 H 0.64317 0.90796 0.35469 0.0
H913 H 0.62168 0.93709 0.35407 0.0
H914 H 0.51583 0.78986 0.26118 0.0
H915 H 0.4904 0.81524 0.26361 0.0
H916 H 0.53805 0.76476 0.28505 0.0
H917 H 0.57973 0.779 0.30482 0.0
C918 C 0.10601 0.67776 0.32048 0.0
C919 C 0.13175 0.66608 0.31166 0.0
C920 C 0.18243 0.73497 0.31147 0.0
C921 C 0.15891 0.74645 0.32427 0.0
N922 N 0.10063 0.727 0.34532 0.0
N923 N 0.19448 0.68223 0.29872 0.0
C924 C 0.12099 0.71752 0.32962 0.0
C925 C 0.16988 0.69433 0.30685 0.0
N926 N 0.06735 0.65061 0.32059 0.0
N927 N 0.21646 0.76284 0.30349 0.0
H928 H 0.18534 0.65271 0.29397 0.0
H929 H 0.22418 0.70109 0.29775 0.0
H930 H 0.22687 0.79282 0.30682 0.0
H931 H 0.23288 0.75633 0.29193 0.0
H932 H 0.04637 0.65807 0.32464 0.0
H933 H 0.05579 0.62116 0.31409 0.0
H934 H 0.07461 0.70617 0.35155 0.0
H935 H 0.11154 0.75478 0.35455 0.0
C936 C 0.78334 0.99871 0.37161 0.0
C937 C 0.81904 0.00792 0.38479 0.0
C938 C 0.79663 0.93792 0.38542 0.0
C939 C 0.76396 0.92884 0.36851 0.0
N940 N 0.72785 0.95139 0.34363 0.0
N941 N 0.86063 0.98744 0.40477 0.0
C942 C 0.75724 0.95934 0.36142 0.0
C943 C 0.82575 0.97781 0.39215 0.0
N944 N 0.77468 0.02778 0.36867 0.0
N945 N 0.79945 0.90837 0.39537 0.0
H946 H 0.88159 0.01631 0.41119 0.0
H947 H 0.86962 0.96724 0.40789 0.0
H948 H 0.77851 0.87899 0.39097 0.0
H949 H 0.82043 0.91289 0.40953 0.0
H950 H 0.74753 0.02253 0.36125 0.0
H951 H 0.79356 0.05681 0.37595 0.0
H952 H 0.72434 0.97307 0.33586 0.0
H953 H 0.70872 0.92342 0.33496 0.0
C954 C 0.02034 0.82961 0.38631 0.0
C955 C 0.99027 0.79002 0.38094 0.0
C956 C 0.02929 0.77881 0.35153 0.0
C957 C 0.06147 0.81697 0.35934 0.0
N958 N 0.0882 0.87903 0.3842 0.0
N959 N 0.96457 0.72651 0.35858 0.0
C960 C 0.05703 0.84258 0.37663 0.0
C961 C 0.99408 0.7647 0.36325 0.0
N962 N 0.01349 0.85479 0.40054 0.0
N963 N 0.0326 0.75577 0.33323 0.0
H964 H 0.93774 0.71599 0.36581 0.0
H965 H 0.96687 0.70477 0.34841 0.0
H966 H 0.0585 0.76356 0.32542 0.0
H967 H 0.00924 0.72964 0.32473 0.0
H968 H 0.03263 0.88492 0.40359 0.0
H969 H 0.98679 0.84585 0.40768 0.0
H970 H 0.08862 0.89741 0.3988 0.0
H971 H 0.11474 0.8905 0.37656 0.0
C972 C 0.18406 0.20572 0.37342 0.0
C973 C 0.22097 0.2168 0.38581 0.0
C974 C 0.23851 0.28585 0.38943 0.0
C975 C 0.20295 0.27529 0.37524 0.0
N976 N 0.13793 0.22537 0.35877 0.0
N977 N 0.27881 0.26433 0.41121 0.0
C978 C 0.17428 0.23516 0.36903 0.0
C979 C 0.24667 0.25598 0.39579 0.0
N980 N 0.15928 0.16724 0.36482 0.0
N981 N 0.26499 0.32459 0.39591 0.0
H982 H 0.28495 0.24262 0.41607 0.0
H983 H 0.29759 0.29175 0.42068 0.0
H984 H 0.25861 0.34657 0.39252 0.0
H985 H 0.29331 0.3351 0.40386 0.0
H986 H 0.13397 0.15742 0.35302 0.0
H987 H 0.16481 0.14486 0.36896 0.0
H988 H 0.11445 0.19679 0.35589 0.0
H989 H 0.13019 0.24622 0.35472 0.0
C990 C 0.66263 0.57997 0.7272 0.0
C991 C 0.65933 0.54408 0.73349 0.0
C992 C 0.72507 0.56542 0.72139 0.0
C993 C 0.7296 0.60252 0.71719 0.0
N994 N 0.70577 0.64794 0.72035 0.0
N995 N 0.69018 0.50582 0.74144 0.0
C996 C 0.69928 0.61067 0.72137 0.0
C997 C 0.69139 0.53771 0.73196 0.0
N998 N 0.63044 0.58422 0.72585 0.0
N999 N 0.75265 0.55641 0.71489 0.0
H1000 H 0.66632 0.48534 0.74981 0.0
H1001 H 0.71413 0.5017 0.74318 0.0
H1002 H 0.77766 0.57598 0.70706 0.0
H1003 H 0.74916 0.52849 0.71523 0.0
H1004 H 0.63009 0.608 0.71876 0.0
H1005 H 0.60307 0.56244 0.7299 0.0
H1006 H 0.68627 0.65665 0.72579 0.0
H1007 H 0.73213 0.67105 0.71598 0.0
C1008 C 0.44624 0.07646 0.71611 0.0
C1009 C 0.4796 0.10691 0.73073 0.0
C1010 C 0.46072 0.15459 0.7186 0.0
C1011 C 0.42477 0.12345 0.70676 0.0
N1012 N 0.38156 0.05413 0.69573 0.0
N1013 N 0.51729 0.1745 0.74783 0.0
C1014 C 0.41722 0.0842 0.70565 0.0
C1015 C 0.48663 0.14593 0.73237 0.0
N1016 N 0.44251 0.04019 0.71216 0.0
N1017 N 0.47065 0.19257 0.71603 0.0
H1018 H 0.53763 0.16965 0.75761 0.0
H1019 H 0.52113 0.20229 0.75228 0.0
H1020 H 0.45286 0.19984 0.70554 0.0
H1021 H 0.49795 0.21663 0.72214 0.0
H1022 H 0.42101 0.01771 0.69976 0.0
H1023 H 0.46306 0.0336 0.71977 0.0
H1024 H 0.37246 0.02462 0.6969 0.0
H1025 H 0.35975 0.05862 0.68774 0.0
C1026 C 0.91497 0.35551 0.70945 0.0
C1027 C 0.88246 0.35914 0.71543 0.0
C1028 C 0.83865 0.29833 0.68919 0.0
C1029 C 0.87034 0.29206 0.68581 0.0
N1030 N 0.93804 0.31187 0.69567 0.0
N1031 N 0.81253 0.32937 0.71529 0.0
C1032 C 0.9084 0.31987 0.69676 0.0
C1033 C 0.84402 0.32919 0.70652 0.0
N1034 N 0.95205 0.38653 0.715 0.0
N1035 N 0.80365 0.27559 0.67528 0.0
H1036 H 0.81523 0.35077 0.72867 0.0
H1037 H 0.784 0.30614 0.71121 0.0
H1038 H 0.79875 0.25315 0.66197 0.0
H1039 H 0.78076 0.2814 0.67534 0.0
H1040 H 0.97656 0.38692 0.70879 0.0
H1041 H 0.9581 0.4133 0.72393 0.0
H1042 H 0.96533 0.32902 0.70561 0.0
H1043 H 0.93432 0.28631 0.68635 0.0
C1044 C 0.19557 0.00584 0.62975 0.0
C1045 C 0.19354 0.97144 0.63781 0.0
C1046 C 0.24354 0.01173 0.67211 0.0
C1047 C 0.24857 0.04623 0.66211 0.0
N1048 N 0.2366 0.07526 0.62741 0.0
N1049 N 0.22011 0.94196 0.66455 0.0
C1050 C 0.22658 0.04307 0.63982 0.0
C1051 C 0.21865 0.97436 0.65853 0.0
N1052 N 0.16746 0.00299 0.61266 0.0
N1053 N 0.26219 0.01456 0.69464 0.0
H1054 H 0.20255 0.91423 0.65503 0.0
H1055 H 0.24085 0.94313 0.67771 0.0
H1056 H 0.28156 0.0414 0.70471 0.0
H1057 H 0.25641 0.99032 0.70408 0.0
H1058 H 0.16569 0.02725 0.6078 0.0
H1059 H 0.14357 0.9761 0.60539 0.0
H1060 H 0.22395 0.07391 0.60983 0.0
H1061 H 0.26067 0.10245 0.6335 0.0
C1062 C 1.00105 0.19879 0.63903 0.0
C1063 C 0.02634 0.23742 0.63288 0.0
C1064 C 0.97691 0.25516 0.64219 0.0
C1065 C 0.95387 0.2181 0.65124 0.0
N1066 N 0.94792 0.15721 0.66229 0.0
N1067 N 0.04128 0.30466 0.63311 0.0
C1068 C 0.96715 0.19069 0.65087 0.0
C1069 C 0.01508 0.26628 0.63566 0.0
N1070 N 0.00868 0.16943 0.63276 0.0
N1071 N 0.96211 0.27948 0.6392 0.0
H1072 H 0.06966 0.31418 0.62872 0.0
H1073 H 0.03606 0.32755 0.63757 0.0
H1074 H 0.93449 0.27251 0.64382 0.0
H1075 H 0.97581 0.30486 0.6302 0.0
H1076 H 0.98924 0.13995 0.6345 0.0
H1077 H 0.03259 0.17395 0.62344 0.0
H1078 H 0.95841 0.13801 0.66475 0.0
H1079 H 0.92342 0.15062 0.67143 0.0
C1080 C 0.75804 0.76606 0.65151 0.0
C1081 C 0.78665 0.80485 0.64751 0.0
C1082 C 0.83487 0.80078 0.67549 0.0
C1083 C 0.80727 0.76105 0.67802 0.0
N1084 N 0.74461 0.70362 0.66539 0.0
N1085 N 0.8543 0.85581 0.6511 0.0
C1086 C 0.76944 0.74298 0.66507 0.0
C1087 C 0.82573 0.82113 0.65808 0.0
N1088 N 0.71973 0.75191 0.64336 0.0
N1089 N 0.86914 0.81969 0.69052 0.0
H1090 H 0.84867 0.87123 0.6381 0.0
H1091 H 0.88392 0.86715 0.65629 0.0
H1092 H 0.87687 0.80588 0.70364 0.0
H1093 H 0.88847 0.8498 0.69134 0.0
H1094 H 0.69696 0.72569 0.64818 0.0
H1095 H 0.71025 0.76774 0.63322 0.0
H1096 H 0.71835 0.68786 0.65418 0.0
H1097 H 0.75177 0.68607 0.67546 0.0
C1098 C 0.99935 0.82712 0.65313 0.0
C1099 C 0.02951 0.81856 0.65804 0.0
C1100 C 0.9917 0.77326 0.68784 0.0
C1101 C 0.95875 0.7764 0.67956 0.0
N1102 N 0.93127 0.80765 0.65517 0.0
N1103 N 0.05664 0.78565 0.6805 0.0
C1104 C 0.96278 0.80415 0.66266 0.0
C1105 C 0.02663 0.79284 0.67592 0.0
N1106 N 1.00588 0.85726 0.6393 0.0
N1107 N 0.9895 0.75108 0.7067 0.0
H1108 H 0.08325 0.80115 0.67304 0.0
H1109 H 0.05488 0.7635 0.69077 0.0
H1110 H 0.96417 0.73474 0.71517 0.0
H1111 H 0.01348 0.75079 0.71523 0.0
H1112 H 0.98651 0.86756 0.63659 0.0
H1113 H 0.03259 0.87443 0.63228 0.0
H1114 H 0.93063 0.82353 0.64074 0.0
H1115 H 0.90478 0.79315 0.66277 0.0
C1116 C 0.24989 0.25356 0.66082 0.0
C1117 C 0.21099 0.22799 0.65033 0.0
C1118 C 0.22084 0.17159 0.6516 0.0
C1119 C 0.26014 0.19709 0.66154 0.0
N1120 N 0.31419 0.26276 0.67235 0.0
N1121 N 0.16198 0.16495 0.63045 0.0
C1122 C 0.27535 0.23829 0.66508 0.0
C1123 C 0.1974 0.18773 0.64388 0.0
N1124 N 0.26198 0.29213 0.66751 0.0
N1125 N 0.20514 0.13188 0.65111 0.0
H1126 H 0.1442 0.17611 0.62465 0.0
H1127 H 0.15193 0.13622 0.62312 0.0
H1128 H 0.22087 0.1192 0.65792 0.0
H1129 H 0.17567 0.1117 0.64629 0.0
H1130 H 0.28826 0.31142 0.67796 0.0
H1131 H 0.24467 0.30454 0.6635 0.0
H1132 H 0.32817 0.29319 0.67272 0.0
H1133 H 0.33324 0.25247 0.67657 0.0
C1134 C 0.76028 0.00687 0.65948 0.0
C1135 C 0.78342 0.99409 0.64784 0.0
C1136 C 0.83223 0.06225 0.64326 0.0
C1137 C 0.81272 0.07511 0.65903 0.0
N1138 N 0.75964 0.05896 0.68453 0.0
N1139 N 0.84107 0.00835 0.62811 0.0
C1140 C 0.77672 0.04734 0.66746 0.0
C1141 C 0.81914 0.02141 0.63928 0.0
N1142 N 0.72273 0.98016 0.66319 0.0
N1143 N 0.86283 0.08906 0.63185 0.0
H1144 H 0.83121 0.97854 0.6239 0.0
H1145 H 0.86955 0.02681 0.62407 0.0
H1146 H 0.87238 0.11897 0.63405 0.0
H1147 H 0.87635 0.08148 0.61855 0.0
H1148 H 0.70305 0.98806 0.66944 0.0
H1149 H 0.71015 0.95026 0.65755 0.0
H1150 H 0.73578 0.03935 0.69321 0.0
H1151 H 0.77111 0.08792 0.69185 0.0
C1152 C 0.46661 0.31276 0.72686 0.0
C1153 C 0.47668 0.33954 0.70868 0.0
C1154 C 0.42638 0.28793 0.67859 0.0
C1155 C 0.42012 0.26 0.69566 0.0
N1156 N 0.4314 0.24485 0.73635 0.0
N1157 N 0.46625 0.35443 0.66768 0.0
C1158 C 0.43899 0.27225 0.72006 0.0
C1159 C 0.45611 0.32776 0.68478 0.0
N1160 N 0.4835 0.32627 0.75056 0.0
N1161 N 0.40355 0.27629 0.65655 0.0
H1162 H 0.4862 0.38429 0.67199 0.0
H1163 H 0.45627 0.3471 0.64903 0.0
H1164 H 0.38179 0.24729 0.65131 0.0
H1165 H 0.40368 0.29551 0.64424 0.0
H1166 H 0.47557 0.30929 0.76536 0.0
H1167 H 0.50405 0.35571 0.75579 0.0
H1168 H 0.44716 0.25051 0.75345 0.0
H1169 H 0.40963 0.21558 0.73233 0.0
C1170 C 0.6816 0.16695 0.71786 0.0
C1171 C 0.65114 0.12748 0.71311 0.0
C1172 C 0.68951 0.11403 0.68434 0.0
C1173 C 0.72221 0.15186 0.69202 0.0
N1174 N 0.75015 0.21445 0.71642 0.0
N1175 N 0.6241 0.06324 0.69155 0.0
C1176 C 0.71833 0.17854 0.70868 0.0
C1177 C 0.65427 0.10114 0.69589 0.0
N1178 N 0.67519 0.19325 0.73117 0.0
N1179 N 0.69247 0.09014 0.66649 0.0
H1180 H 0.59736 0.05375 0.69876 0.0
H1181 H 0.62568 0.04087 0.68162 0.0
H1182 H 0.71832 0.0975 0.65869 0.0
H1183 H 0.66893 0.06388 0.6583 0.0
H1184 H 0.69478 0.22334 0.73361 0.0
H1185 H 0.64841 0.18525 0.73795 0.0
H1186 H 0.75065 0.23345 0.73065 0.0
H1187 H 0.77711 0.22461 0.70951 0.0
C1188 C 0.91256 0.5812 0.71473 0.0
C1189 C 0.8819 0.55245 0.72677 0.0
C1190 C 0.85653 0.5969 0.73387 0.0
C1191 C 0.87991 0.62023 0.71601 0.0
N1192 N 0.93832 0.64228 0.69543 0.0
N1193 N 0.82601 0.53308 0.7496 0.0
C1194 C 0.91089 0.61499 0.70853 0.0
C1195 C 0.85458 0.56057 0.73723 0.0
N1196 N 0.94276 0.57572 0.70912 0.0
N1197 N 0.83783 0.61021 0.74833 0.0
H1198 H 0.82501 0.50696 0.75334 0.0
H1199 H 0.8024 0.53538 0.75499 0.0
H1200 H 0.84306 0.63878 0.74841 0.0
H1201 H 0.82213 0.5954 0.76263 0.0
H1202 H 0.96724 0.59602 0.70128 0.0
H1203 H 0.94448 0.55134 0.71391 0.0
H1204 H 0.95949 0.6389 0.68708 0.0
H1205 H 0.94009 0.66916 0.69318 0.0
C1206 C 0.45668 0.92035 0.20847 0.0
C1207 C 0.46346 0.94326 0.23122 0.0
C1208 C 0.4948 0.00335 0.20998 0.0
C1209 C 0.49112 0.98061 0.18776 0.0
N1210 N 0.4752 0.91805 0.16709 0.0
N1211 N 0.4946 0.00676 0.25456 0.0
C1212 C 0.47395 0.93924 0.18737 0.0
C1213 C 0.48418 0.98487 0.23223 0.0
N1214 N 0.43238 0.88056 0.2067 0.0
N1215 N 0.50708 0.04239 0.20964 0.0
H1216 H 0.48737 0.99422 0.27117 0.0
H1217 H 0.51322 0.03706 0.25686 0.0
H1218 H 0.51483 0.05689 0.19373 0.0
H1219 H 0.50637 0.05963 0.22455 0.0
H1220 H 0.42283 0.86286 0.19001 0.0
H1221 H 0.41884 0.86552 0.22157 0.0
H1222 H 0.46705 0.88852 0.16672 0.0
H1223 H 0.48772 0.93075 0.15133 0.0
C1224 C 0.11072 0.5237 0.2189 0.0
C1225 C 0.08395 0.51414 0.23704 0.0
C1226 C 0.03116 0.49956 0.20498 0.0
C1227 C 0.05762 0.50791 0.18675 0.0
N1228 N 0.12039 0.52081 0.17542 0.0
N1229 N 0.0175 0.48535 0.24716 0.0
C1230 C 0.09676 0.51773 0.19345 0.0
C1231 C 0.04376 0.49973 0.22999 0.0
N1232 N 0.14969 0.53995 0.22607 0.0
N1233 N 0.99433 0.49274 0.19851 0.0
H1234 H 0.02568 0.48502 0.26563 0.0
H1235 H 0.98737 0.47067 0.2428 0.0
H1236 H 0.98364 0.49119 0.18031 0.0
H1237 H 0.97522 0.49122 0.21126 0.0
H1238 H 0.17128 0.55168 0.21405 0.0
H1239 H 0.16088 0.54422 0.24448 0.0
H1240 H 0.14786 0.5238 0.17887 0.0
H1241 H 0.11122 0.51715 0.15665 0.0
C1242 C 0.5373 0.56578 0.21948 0.0
C1243 C 0.50434 0.56893 0.22493 0.0
C1244 C 0.48305 0.55956 0.18061 0.0
C1245 C 0.51718 0.55867 0.17518 0.0
N1246 N 0.58088 0.5695 0.18905 0.0
N1247 N 0.44999 0.57653 0.21087 0.0
C1248 C 0.54558 0.56444 0.19453 0.0
C1249 C 0.47845 0.56816 0.20551 0.0
N1250 N 0.55974 0.56228 0.23803 0.0
N1251 N 0.45433 0.55068 0.16211 0.0
H1252 H 0.44587 0.58301 0.22888 0.0
H1253 H 0.43276 0.58044 0.1975 0.0
H1254 H 0.45677 0.54458 0.14366 0.0
H1255 H 0.42691 0.54645 0.16521 0.0
H1256 H 0.5814 0.55542 0.23491 0.0
H1257 H 0.5546 0.56286 0.25653 0.0
H1258 H 0.60431 0.57795 0.20231 0.0
H1259 H 0.58807 0.56888 0.171 0.0
C1260 C 0.96743 0.47268 0.79898 0.0
C1261 C 0.92629 0.4499 0.79357 0.0
C1262 C 0.91847 0.44385 0.83776 0.0
C1263 C 0.95968 0.46349 0.84291 0.0
N1264 N 0.0238 0.49374 0.82869 0.0
N1265 N 0.86232 0.41085 0.80701 0.0
C1266 C 0.9843 0.4773 0.82358 0.0
C1267 C 0.90167 0.4348 0.81278 0.0
N1268 N 0.99028 0.49036 0.78059 0.0
N1269 N 0.89548 0.4345 0.85684 0.0
H1270 H 0.84887 0.40473 0.78903 0.0
H1271 H 0.84317 0.39509 0.81969 0.0
H1272 H 0.9068 0.43993 0.8753 0.0
H1273 H 0.86557 0.42398 0.85462 0.0
H1274 H 0.01998 0.51079 0.78364 0.0
H1275 H 0.97898 0.48685 0.76228 0.0
H1276 H 0.04307 0.50021 0.81522 0.0
H1277 H 0.03735 0.49869 0.84654 0.0
C1278 C 0.57262 0.48189 0.81422 0.0
C1279 C 0.55532 0.48582 0.79184 0.0
C1280 C 0.50763 0.49369 0.81463 0.0
C1281 C 0.52702 0.4931 0.83717 0.0
N1282 N 0.58145 0.4927 0.85894 0.0
N1283 N 0.51038 0.50147 0.77086 0.0
C1284 C 0.56051 0.48886 0.83711 0.0
C1285 C 0.52387 0.49335 0.79207 0.0
N1286 N 0.59983 0.4703 0.81353 0.0
N1287 N 0.47303 0.49338 0.81471 0.0
H1288 H 0.52137 0.50127 0.75397 0.0
H1289 H 0.49056 0.51148 0.77032 0.0
H1290 H 0.46042 0.49398 0.83087 0.0
H1291 H 0.45524 0.48937 0.79875 0.0
H1292 H 0.61045 0.46275 0.82892 0.0
H1293 H 0.6095 0.46504 0.79714 0.0
H1294 H 0.60848 0.49429 0.86007 0.0
H1295 H 0.57337 0.49758 0.87606 0.0
C1296 C 0.51169 0.08654 0.83082 0.0
C1297 C 0.50345 0.05969 0.8098 0.0
C1298 C 0.47893 0.00498 0.83582 0.0
C1299 C 0.49129 0.03231 0.85708 0.0
N1300 N 0.52 0.09884 0.8756 0.0
N1301 N 0.48001 0.99376 0.7917 0.0
C1302 C 0.50749 0.07305 0.85478 0.0
C1303 C 0.48696 0.01894 0.81213 0.0
N1304 N 0.52345 0.1249 0.82778 0.0
N1305 N 0.45892 0.96561 0.83832 0.0
H1306 H 0.48323 1.00249 0.77388 0.0
H1307 H 0.4728 0.96464 0.79234 0.0
H1308 H 0.45326 0.95436 0.8554 0.0
H1309 H 0.44541 0.94395 0.82355 0.0
H1310 H 0.52631 0.14533 0.84186 0.0
H1311 H 0.5279 0.13593 0.81061 0.0
H1312 H 0.53582 0.12921 0.87558 0.0
H1313 H 0.51626 0.08982 0.89333 0.0
C1314 C 0.15231 0.32723 0.57168 0.0
C1315 C 0.12783 0.28602 0.57178 0.0
C1316 C 0.12771 0.27764 0.52672 0.0
C1317 C 0.15483 0.31841 0.52697 0.0
N1318 N 0.19752 0.38123 0.54998 0.0
N1319 N 0.09585 0.22117 0.55018 0.0
C1320 C 0.16838 0.343 0.54956 0.0
C1321 C 0.11647 0.26097 0.54948 0.0
N1322 N 0.15926 0.35147 0.5926 0.0
N1323 N 0.11191 0.25509 0.50465 0.0
H1324 H 0.08666 0.20806 0.56643 0.0
H1325 H 0.09026 0.20111 0.5351 0.0
H1326 H 0.11985 0.26619 0.4877 0.0
H1327 H 0.0889 0.22621 0.50296 0.0
H1328 H 0.17314 0.38191 0.59305 0.0
H1329 H 0.1483 0.3411 0.60921 0.0
H1330 H 0.21185 0.39946 0.56617 0.0
H1331 H 0.20969 0.394 0.53415 0.0
C1332 C 0.69895 0.82679 0.56554 0.0
C1333 C 0.73972 0.84487 0.57238 0.0
C1334 C 0.75199 0.85134 0.52878 0.0
C1335 C 0.71173 0.8374 0.52232 0.0
N1336 N 0.647 0.81478 0.53439 0.0
N1337 N 0.80571 0.87725 0.56122 0.0
C1338 C 0.68519 0.82573 0.54066 0.0
C1339 C 0.76645 0.85769 0.55416 0.0
N1340 N 0.67336 0.80982 0.58279 0.0
N1341 N 0.77624 0.85803 0.51058 0.0
H1342 H 0.81727 0.88177 0.57956 0.0
H1343 H 0.82689 0.89129 0.54922 0.0
H1344 H 0.76674 0.85438 0.49188 0.0
H1345 H 0.80496 0.86422 0.51378 0.0
H1346 H 0.64327 0.79257 0.57855 0.0
H1347 H 0.68238 0.81019 0.6012 0.0
H1348 H 0.62723 0.81059 0.54725 0.0
H1349 H 0.63552 0.81228 0.51625 0.0
C1350 C 0.15639 0.91643 0.53873 0.0
C1351 C 0.164 0.89461 0.55582 0.0
C1352 C 0.18375 0.86557 0.52274 0.0
C1353 C 0.17975 0.89019 0.50624 0.0
N1354 N 0.16824 0.94351 0.49924 0.0
N1355 N 0.19118 0.85362 0.56526 0.0
C1356 C 0.16773 0.91691 0.51443 0.0
C1357 C 0.17942 0.87059 0.54814 0.0
N1358 N 0.13709 0.93557 0.54546 0.0
N1359 N 0.19053 0.83658 0.51398 0.0
H1360 H 0.18867 0.85679 0.58407 0.0
H1361 H 0.20654 0.83931 0.56116 0.0
H1362 H 0.1938 0.83188 0.49548 0.0
H1363 H 0.18951 0.81501 0.52458 0.0
H1364 H 0.12706 0.94849 0.53309 0.0
H1365 H 0.12799 0.93564 0.56301 0.0
H1366 H 0.16406 0.96661 0.50509 0.0
H1367 H 0.17606 0.9445 0.48125 0.0
C1368 C 0.64184 0.79946 0.13576 0.0
C1369 C 0.60151 0.78283 0.12801 0.0
C1370 C 0.58656 0.77902 0.17116 0.0
C1371 C 0.62639 0.79251 0.17873 0.0
N1372 N 0.69165 0.81221 0.1687 0.0
N1373 N 0.53477 0.75382 0.13746 0.0
C1374 C 0.654 0.80197 0.16115 0.0
C1375 C 0.57363 0.7719 0.14549 0.0
N1376 N 0.66856 0.81334 0.11881 0.0
N1377 N 0.56135 0.77369 0.18857 0.0
H1378 H 0.52448 0.74952 0.11885 0.0
H1379 H 0.51253 0.74108 0.14895 0.0
H1380 H 0.56973 0.77775 0.20747 0.0
H1381 H 0.5329 0.76784 0.18448 0.0
H1382 H 0.6986 0.82989 0.12347 0.0
H1383 H 0.66077 0.81082 0.09992 0.0
H1384 H 0.71204 0.8148 0.15669 0.0
H1385 H 0.7021 0.81571 0.1872 0.0
C1386 C 0.17268 0.81492 0.1227 0.0
C1387 C 0.21161 0.84279 0.11874 0.0
C1388 C 0.22077 0.87323 0.16099 0.0
C1389 C 0.18606 0.83965 0.16642 0.0
N1390 N 0.12886 0.77721 0.15205 0.0
N1391 N 0.25354 0.91254 0.12851 0.0
C1392 C 0.16188 0.81016 0.14714 0.0
C1393 C 0.23101 0.87638 0.13632 0.0
N1394 N 0.14441 0.79846 0.1033 0.0
N1395 N 0.24391 0.90233 0.17922 0.0
H1396 H 0.25479 0.91658 0.10977 0.0
H1397 H 0.26566 0.93859 0.14009 0.0
H1398 H 0.23656 0.90226 0.19727 0.0
H1399 H 0.27159 0.9252 0.17661 0.0
H1400 H 0.11487 0.78057 0.10544 0.0
H1401 H 0.15 0.80781 0.0857 0.0
H1402 H 0.11242 0.75347 0.13876 0.0
H1403 H 0.11989 0.77227 0.16974 0.0
C1404 C 0.21203 0.43636 0.16879 0.0
C1405 C 0.18809 0.41147 0.14762 0.0
C1406 C 0.1434 0.36474 0.17437 0.0
C1407 C 0.17015 0.38693 0.19528 0.0
N1408 N 0.23243 0.44166 0.21227 0.0
N1409 N 0.13338 0.3495 0.12996 0.0
C1410 C 0.20507 0.42233 0.1925 0.0
C1411 C 0.15423 0.37506 0.15031 0.0
N1412 N 0.24098 0.47372 0.16624 0.0
N1413 N 0.10726 0.33426 0.17754 0.0
H1414 H 0.14032 0.35584 0.11202 0.0
H1415 H 0.11115 0.32076 0.13094 0.0
H1416 H 0.09823 0.32606 0.1949 0.0
H1417 H 0.08503 0.31952 0.16322 0.0
H1418 H 0.25684 0.49463 0.18114 0.0
H1419 H 0.2467 0.48501 0.14917 0.0
H1420 H 0.26029 0.46509 0.21081 0.0
H1421 H 0.22853 0.43236 0.22993 0.0
C1422 C 0.83749 0.65692 0.90665 0.0
C1423 C 0.80628 0.61751 0.90523 0.0
C1424 C 0.79929 0.61515 0.86001 0.0
C1425 C 0.8321 0.65367 0.86137 0.0
N1426 N 0.88696 0.70855 0.88547 0.0
N1427 N 0.76213 0.55658 0.88071 0.0
C1428 C 0.85256 0.67377 0.88457 0.0
C1429 C 0.78856 0.59586 0.88191 0.0
N1430 N 0.85171 0.6788 0.92903 0.0
N1431 N 0.77751 0.59755 0.8379 0.0
H1432 H 0.75364 0.54148 0.89636 0.0
H1433 H 0.7512 0.53825 0.86427 0.0
H1434 H 0.78455 0.61057 0.82143 0.0
H1435 H 0.75079 0.57145 0.83614 0.0
H1436 H 0.8713 0.70891 0.93104 0.0
H1437 H 0.8416 0.66753 0.94561 0.0
H1438 H 0.90543 0.72256 0.90161 0.0
H1439 H 0.8988 0.72183 0.8697 0.0
C1440 C 0.44481 0.18116 0.88216 0.0
C1441 C 0.4257 0.18594 0.90218 0.0
C1442 C 0.37403 0.18194 0.8731 0.0
C1443 C 0.39143 0.17389 0.85325 0.0
N1444 N 0.43953 0.15923 0.83894 0.0
N1445 N 0.36913 0.18454 0.91721 0.0
C1446 C 0.42573 0.17154 0.8578 0.0
C1447 C 0.38941 0.18453 0.89779 0.0
N1448 N 0.48188 0.1874 0.8863 0.0
N1449 N 0.34354 0.18832 0.86832 0.0
H1450 H 0.37953 0.18646 0.93554 0.0
H1451 H 0.34064 0.17932 0.91513 0.0
H1452 H 0.33126 0.1864 0.8505 0.0
H1453 H 0.33244 0.19862 0.88182 0.0
H1454 H 0.49887 0.1883 0.87223 0.0
H1455 H 0.49713 0.19521 0.90381 0.0
H1456 H 0.46178 0.15266 0.84157 0.0
H1457 H 0.42655 0.15235 0.8208 0.0
C1458 C 0.80346 0.23395 0.87893 0.0
C1459 C 0.82516 0.22597 0.89698 0.0
C1460 C 0.85575 0.2087 0.86435 0.0
C1461 C 0.83259 0.21471 0.84621 0.0
N1462 N 0.78054 0.22759 0.83566 0.0
N1463 N 0.86726 0.2 0.90711 0.0
C1464 C 0.80528 0.22576 0.85335 0.0
C1465 C 0.84984 0.21153 0.88971 0.0
N1466 N 0.78195 0.25034 0.8863 0.0
N1467 N 0.8845 0.20175 0.85738 0.0
H1468 H 0.86446 0.20251 0.92592 0.0
H1469 H 0.88196 0.18508 0.90284 0.0
H1470 H 0.88948 0.19895 0.83901 0.0
H1471 H 0.90544 0.20172 0.86977 0.0
H1472 H 0.76901 0.26109 0.87429 0.0
H1473 H 0.77893 0.25539 0.90481 0.0
H1474 H 0.75723 0.23144 0.83954 0.0
H1475 H 0.78159 0.22242 0.81683 0.0
C1476 C 0.30414 0.12487 0.46503 0.0
C1477 C 0.26552 0.11476 0.45644 0.0
C1478 C 0.25011 0.1175 0.49924 0.0
C1479 C 0.28761 0.12415 0.50775 0.0
N1480 N 0.34808 0.12766 0.49886 0.0
N1481 N 0.2 0.0965 0.46488 0.0
C1482 C 0.31406 0.12612 0.49066 0.0
C1483 C 0.23799 0.10976 0.47343 0.0
N1484 N 0.33166 0.13427 0.4487 0.0
N1485 N 0.22653 0.11964 0.51582 0.0
H1486 H 0.1903 0.09115 0.44612 0.0
H1487 H 0.17753 0.08807 0.47626 0.0
H1488 H 0.23438 0.12492 0.53483 0.0
H1489 H 0.20062 0.11921 0.51075 0.0
H1490 H 0.3613 0.14615 0.45409 0.0
H1491 H 0.3255 0.13338 0.42975 0.0
H1492 H 0.36642 0.12463 0.48715 0.0
H1493 H 0.35648 0.12857 0.51747 0.0
C1494 C 0.89256 0.20443 0.46867 0.0
C1495 C 0.8766 0.16801 0.45385 0.0
C1496 C 0.83022 0.13674 0.48444 0.0
C1497 C 0.85242 0.1705 0.50152 0.0
N1498 N 0.90467 0.23787 0.50955 0.0
N1499 N 0.8115 0.11457 0.44119 0.0
C1500 C 0.88361 0.2048 0.49355 0.0
C1501 C 0.83981 0.13779 0.4597 0.0
N1502 N 0.90984 0.23864 0.45782 0.0
N1503 N 0.80032 0.10333 0.49176 0.0
H1504 H 0.81527 0.12 0.42275 0.0
H1505 H 0.78295 0.09437 0.44432 0.0
H1506 H 0.79221 0.10119 0.50971 0.0
H1507 H 0.78585 0.07694 0.48041 0.0
H1508 H 0.91894 0.266 0.46722 0.0
H1509 H 0.90935 0.2387 0.43866 0.0
H1510 H 0.93019 0.26216 0.50523 0.0
H1511 H 0.89807 0.23997 0.52761 0.0
C1512 C 0.819 0.70041 0.48474 0.0
C1513 C 0.85158 0.73756 0.48162 0.0
C1514 C 0.87006 0.74942 0.52636 0.0
C1515 C 0.8361 0.71338 0.52959 0.0
N1516 N 0.77384 0.65882 0.51254 0.0
N1517 N 0.90364 0.80076 0.49958 0.0
C1518 C 0.8092 0.69017 0.50895 0.0
C1519 C 0.87575 0.76311 0.50251 0.0
N1520 N 0.79843 0.67413 0.46464 0.0
N1521 N 0.89768 0.76976 0.54586 0.0
H1522 H 0.90853 0.81174 0.48239 0.0
H1523 H 0.91948 0.82206 0.51429 0.0
H1524 H 0.89465 0.76071 0.56359 0.0
H1525 H 0.92499 0.79384 0.5441 0.0
H1526 H 0.7772 0.64507 0.46592 0.0
H1527 H 0.80486 0.68027 0.44661 0.0
H1528 H 0.7514 0.64327 0.49843 0.0
H1529 H 0.76552 0.6506 0.53002 0.0
loop_
_geom_bond_atom_site_label_1
_geom_bond_atom_site_label_2
_geom_bond_distance
_geom_bond_site_symmetry_2
_ccdc_geom_bond_type
H0 C3 0.929 . S
H1 C6 0.929 . S
H2 C8 0.930 . S
C3 H0 0.929 . S
C3 C4 1.398 . S
C3 C5 1.396 . S
C4 C3 1.398 . S
C4 C8 1.407 . S
C5 C3 1.396 . S
C5 C6 1.394 . S
C6 H1 0.929 . S
C6 C5 1.394 . S
C6 C7 1.382 . S
C7 C6 1.382 . S
C7 C8 1.392 . S
C7 N9 1.420 . S
C8 H2 0.930 . S
C8 C4 1.407 . S
C8 C7 1.392 . S
N9 C7 1.420 . S
N9 C10 1.244 . S
C10 N9 1.244 . S
H11 C14 0.929 . S
H12 C17 0.929 . S
H13 C19 0.930 . S
C14 H11 0.929 . S
C14 C15 1.398 . S
C14 C16 1.396 . S
C15 C14 1.398 . S
C15 C19 1.407 . S
C16 C14 1.396 . S
C16 C17 1.394 . S
C17 H12 0.929 . S
C17 C16 1.394 . S
C17 C18 1.382 . S
C18 C17 1.382 . S
C18 C19 1.392 . S
C18 N20 1.420 . S
C19 H13 0.930 . S
C19 C15 1.407 . S
C19 C18 1.392 . S
N20 C18 1.420 . S
N20 C21 1.244 . S
C21 N20 1.244 . S
H22 C25 0.929 . S
H23 C28 0.929 . S
H24 C30 0.930 . S
C25 H22 0.929 . S
C25 C26 1.398 . S
C25 C27 1.396 . S
C26 C25 1.398 . S
C26 C30 1.407 . S
C27 C25 1.396 . S
C27 C28 1.394 . S
C28 H23 0.929 . S
C28 C27 1.394 . S
C28 C29 1.382 . S
C29 C28 1.382 . S
C29 C30 1.392 . S
C29 N31 1.420 . S
C30 H24 0.930 . S
C30 C26 1.407 . S
C30 C29 1.392 . S
N31 C29 1.420 . S
N31 C32 1.244 . S
C32 N31 1.244 . S
H33 C36 0.929 . S
H34 C39 0.929 . S
H35 C41 0.930 . S
C36 H33 0.929 . S
C36 C37 1.398 . S
C36 C38 1.396 . S
C37 C36 1.398 . S
C37 C41 1.407 . S
C38 C36 1.396 . S
C38 C39 1.394 . S
C39 H34 0.929 . S
C39 C38 1.394 . S
C39 C40 1.382 . S
C40 C39 1.382 . S
C40 C41 1.392 . S
C40 N42 1.420 . S
C41 H35 0.930 . S
C41 C37 1.407 . S
C41 C40 1.392 . S
N42 C40 1.420 . S
N42 C43 1.244 . S
C43 N42 1.244 . S
H44 C47 0.929 . S
H45 C50 0.929 . S
H46 C52 0.930 . S
C47 H44 0.929 . S
C47 C48 1.398 . S
C47 C49 1.396 . S
C48 C47 1.398 . S
C48 C52 1.407 . S
C49 C47 1.396 . S
C49 C50 1.394 . S
C50 H45 0.929 . S
C50 C49 1.394 . S
C50 C51 1.382 . S
C51 C50 1.382 . S
C51 C52 1.392 . S
C51 N53 1.420 . S
C52 H46 0.930 . S
C52 C48 1.407 . S
C52 C51 1.392 . S
N53 C51 1.420 . S
N53 C54 1.244 . S
C54 N53 1.244 . S
H55 C58 0.929 . S
H56 C61 0.929 . S
H57 C63 0.930 . S
C58 H55 0.929 . S
C58 C59 1.398 . S
C58 C60 1.396 . S
C59 C58 1.398 . S
C59 C63 1.407 . S
C60 C58 1.396 . S
C60 C61 1.394 . S
C61 H56 0.929 . S
C61 C60 1.394 . S
C61 C62 1.382 . S
C62 C61 1.382 . S
C62 C63 1.392 . S
C62 N64 1.420 . S
C63 H57 0.930 . S
C63 C59 1.407 . S
C63 C62 1.392 . S
N64 C62 1.420 . S
N64 C65 1.244 . S
C65 N64 1.244 . S
H66 C69 0.929 . S
H67 C72 0.929 . S
H68 C74 0.930 . S
C69 H66 0.929 . S
C69 C70 1.398 . S
C69 C71 1.396 . S
C70 C69 1.398 . S
C70 C74 1.407 . S
C71 C69 1.396 . S
C71 C72 1.394 . S
C72 H67 0.929 . S
C72 C71 1.394 . S
C72 C73 1.382 . S
C73 C72 1.382 . S
C73 C74 1.392 . S
C73 N75 1.420 . S
C74 H68 0.930 . S
C74 C70 1.407 . S
C74 C73 1.392 . S
N75 C73 1.420 . S
N75 C76 1.244 . S
C76 N75 1.244 . S
H77 C80 0.929 . S
H78 C83 0.929 . S
H79 C85 0.930 . S
C80 H77 0.929 . S
C80 C81 1.398 . S
C80 C82 1.396 . S
C81 C80 1.398 . S
C81 C85 1.407 . S
C82 C80 1.396 . S
C82 C83 1.394 . S
C83 H78 0.929 . S
C83 C82 1.394 . S
C83 C84 1.382 . S
C84 C83 1.382 . S
C84 C85 1.392 . S
C84 N86 1.420 . S
C85 H79 0.930 . S
C85 C81 1.407 . S
C85 C84 1.392 . S
N86 C84 1.420 . S
N86 C87 1.244 . S
C87 N86 1.244 . S
H88 C91 0.929 . S
H89 C94 0.929 . S
H90 C96 0.930 . S
C91 H88 0.929 . S
C91 C92 1.398 . S
C91 C93 1.396 . S
C92 C91 1.398 . S
C92 C96 1.407 . S
C93 C91 1.396 . S
C93 C94 1.394 . S
C94 H89 0.929 . S
C94 C93 1.394 . S
C94 C95 1.382 . S
C95 C94 1.382 . S
C95 C96 1.392 . S
C95 N97 1.420 . S
C96 H90 0.930 . S
C96 C92 1.407 . S
C96 C95 1.392 . S
N97 C95 1.420 . S
N97 C98 1.244 . S
C98 N97 1.244 . S
H99 C102 0.929 . S
H100 C105 0.929 . S
H101 C107 0.930 . S
C102 H99 0.929 . S
C102 C103 1.398 . S
C102 C104 1.396 . S
C103 C102 1.398 . S
C103 C107 1.407 . S
C104 C102 1.396 . S
C104 C105 1.394 . S
C105 H100 0.929 . S
C105 C104 1.394 . S
C105 C106 1.382 . S
C106 C105 1.382 . S
C106 C107 1.392 . S
C106 N108 1.420 . S
C107 H101 0.930 . S
C107 C103 1.407 . S
C107 C106 1.392 . S
N108 C106 1.420 . S
N108 C109 1.244 . S
C109 N108 1.244 . S
H110 C113 0.929 . S
H111 C116 0.929 . S
H112 C118 0.930 1_554 S
C113 H110 0.929 . S
C113 C114 1.398 . S
C113 C115 1.396 . S
C114 C113 1.398 . S
C114 C118 1.407 . S
C115 C113 1.396 . S
C115 C116 1.394 . S
C116 H111 0.929 . S
C116 C115 1.394 . S
C116 C117 1.382 . S
C117 C116 1.382 . S
C117 C118 1.392 . S
C117 N119 1.420 . S
C118 H112 0.930 1_556 S
C118 C114 1.407 . S
C118 C117 1.392 . S
N119 C117 1.420 . S
N119 C120 1.244 . S
C120 N119 1.244 . S
H121 C124 0.929 . S
H122 C127 0.929 . S
H123 C129 0.930 . S
C124 H121 0.929 . S
C124 C125 1.398 . S
C124 C126 1.396 . S
C125 C124 1.398 . S
C125 C129 1.407 . S
C126 C124 1.396 . S
C126 C127 1.394 . S
C127 H122 0.929 . S
C127 C126 1.394 . S
C127 C128 1.382 . S
C128 C127 1.382 . S
C128 C129 1.392 . S
C128 N130 1.420 . S
C129 H123 0.930 . S
C129 C125 1.407 . S
C129 C128 1.392 . S
N130 C128 1.420 . S
N130 C131 1.244 . S
C131 N130 1.244 . S
H132 C135 0.929 . S
H133 C138 0.929 . S
H134 C140 0.930 . S
C135 H132 0.929 . S
C135 C136 1.398 . S
C135 C137 1.396 . S
C136 C135 1.398 . S
C136 C140 1.407 . S
C137 C135 1.396 . S
C137 C138 1.394 . S
C138 H133 0.929 . S
C138 C137 1.394 . S
C138 C139 1.382 . S
C139 C138 1.382 . S
C139 C140 1.392 . S
C139 N141 1.420 . S
C140 H134 0.930 . S
C140 C136 1.407 . S
C140 C139 1.392 . S
N141 C139 1.420 . S
N141 C142 1.244 . S
C142 N141 1.244 . S
H143 C146 0.929 . S
H144 C149 0.929 . S
H145 C151 0.930 . S
C146 H143 0.929 . S
C146 C147 1.398 . S
C146 C148 1.396 . S
C147 C146 1.398 . S
C147 C151 1.407 . S
C148 C146 1.396 . S
C148 C149 1.394 . S
C149 H144 0.929 . S
C149 C148 1.394 . S
C149 C150 1.382 . S
C150 C149 1.382 . S
C150 C151 1.392 . S
C150 N152 1.420 . S
C151 H145 0.930 . S
C151 C147 1.407 . S
C151 C150 1.392 . S
N152 C150 1.420 . S
N152 C153 1.244 . S
C153 N152 1.244 . S
H154 C157 0.929 . S
H155 C160 0.929 . S
H156 C162 0.930 . S
C157 H154 0.929 . S
C157 C158 1.398 . S
C157 C159 1.396 . S
C158 C157 1.398 . S
C158 C162 1.407 . S
C159 C157 1.396 . S
C159 C160 1.394 . S
C160 H155 0.929 . S
C160 C159 1.394 . S
C160 C161 1.382 . S
C161 C160 1.382 . S
C161 C162 1.392 . S
C161 N163 1.420 . S
C162 H156 0.930 . S
C162 C158 1.407 . S
C162 C161 1.392 . S
N163 C161 1.420 . S
N163 C164 1.244 . S
C164 N163 1.244 . S
H165 C168 0.929 . S
H166 C171 0.929 . S
H167 C173 0.930 . S
C168 H165 0.929 . S
C168 C169 1.398 . S
C168 C170 1.396 . S
C169 C168 1.398 . S
C169 C173 1.407 . S
C170 C168 1.396 . S
C170 C171 1.394 . S
C171 H166 0.929 . S
C171 C170 1.394 . S
C171 C172 1.382 . S
C172 C171 1.382 . S
C172 C173 1.392 . S
C172 N174 1.420 . S
C173 H167 0.930 . S
C173 C169 1.407 . S
C173 C172 1.392 . S
N174 C172 1.420 . S
N174 C175 1.244 . S
C175 N174 1.244 . S
H176 C179 0.929 . S
H177 C182 0.929 . S
H178 C184 0.930 . S
C179 H176 0.929 . S
C179 C180 1.398 . S
C179 C181 1.396 . S
C180 C179 1.398 . S
C180 C184 1.407 . S
C181 C179 1.396 . S
C181 C182 1.394 . S
C182 H177 0.929 . S
C182 C181 1.394 . S
C182 C183 1.382 . S
C183 C182 1.382 . S
C183 C184 1.392 . S
C183 N185 1.420 . S
C184 H178 0.930 . S
C184 C180 1.407 . S
C184 C183 1.392 . S
N185 C183 1.420 . S
N185 C186 1.244 . S
C186 N185 1.244 . S
H187 C190 0.929 . S
H188 C193 0.929 . S
H189 C195 0.930 . S
C190 H187 0.929 . S
C190 C191 1.398 . S
C190 C192 1.396 . S
C191 C190 1.398 . S
C191 C195 1.407 . S
C192 C190 1.396 . S
C192 C193 1.394 . S
C193 H188 0.929 . S
C193 C192 1.394 . S
C193 C194 1.382 . S
C194 C193 1.382 . S
C194 C195 1.392 . S
C194 N196 1.420 . S
C195 H189 0.930 . S
C195 C191 1.407 . S
C195 C194 1.392 . S
N196 C194 1.420 . S
N196 C197 1.244 . S
C197 N196 1.244 . S
C198 Eu199 2.835 . S
C198 C200 1.500 1_545 S
C198 O218 1.257 1_545 S
C198 O219 1.260 . S
Eu199 C198 2.835 . S
Eu199 O218 2.473 1_545 S
Eu199 O219 2.480 . S
Eu199 O220 2.430 . S
Eu199 O221 2.670 1_554 S
Eu199 O222 2.394 1_545 S
Eu199 O227 2.355 1_545 S
Eu199 O229 2.374 . S
C200 C198 1.500 1_565 S
C200 C201 1.377 1_565 S
C200 C205 1.377 . S
C201 C200 1.377 1_545 S
C201 C202 1.395 . S
C201 H230 0.931 . S
C202 C201 1.395 . S
C202 C203 1.383 1_545 S
C202 H231 0.931 . S
C203 C202 1.383 1_565 S
C203 C204 1.394 . S
C204 C203 1.394 . S
C204 C205 1.378 . S
C204 H232 0.931 . S
C205 C200 1.377 . S
C205 C204 1.378 . S
C205 H233 0.931 . S
C206 O220 1.259 . S
C206 O221 1.270 1_554 S
C207 O222 1.251 . S
C207 O223 1.251 1_554 S
C208 Eu209 2.835 1_545 S
C208 C210 1.500 . S
C208 O224 1.257 . S
C208 O225 1.260 1_545 S
Eu209 C208 2.835 1_565 S
Eu209 O221 2.355 1_565 S
Eu209 O223 2.374 . S
Eu209 O224 2.473 1_565 S
Eu209 O225 2.480 . S
Eu209 O226 2.430 . S
Eu209 O227 2.670 1_556 S
Eu209 O228 2.394 1_565 S
C210 C208 1.500 . S
C210 C211 1.368 1_545 S
C210 C215 1.377 . S
C211 C210 1.368 1_565 S
C211 C212 1.393 1_565 S
C211 H234 0.941 . S
C212 C211 1.393 1_545 S
C212 C213 1.383 . S
C212 H235 0.931 1_545 S
C213 C212 1.383 . S
C213 C214 1.394 . S
C214 C213 1.394 . S
C214 C215 1.378 . S
C214 H236 0.931 . S
C215 C210 1.377 . S
C215 C214 1.378 . S
C215 H237 0.931 . S
C216 O226 1.259 1_554 S
C216 O227 1.270 . S
C217 O228 1.251 . S
C217 O229 1.251 1_556 S
O218 C198 1.257 1_565 S
O218 Eu199 2.473 1_565 S
O219 C198 1.260 . S
O219 Eu199 2.480 . S
O220 Eu199 2.430 . S
O220 C206 1.259 . S
O221 Eu199 2.670 1_556 S
O221 C206 1.270 1_556 S
O221 Eu209 2.355 1_545 S
O222 Eu199 2.394 1_565 S
O222 C207 1.251 . S
O223 C207 1.251 1_556 S
O223 Eu209 2.374 . S
O224 C208 1.257 . S
O224 Eu209 2.473 1_545 S
O225 C208 1.260 1_565 S
O225 Eu209 2.480 . S
O226 Eu209 2.430 . S
O226 C216 1.259 1_556 S
O227 Eu199 2.355 1_565 S
O227 Eu209 2.670 1_554 S
O227 C216 1.270 . S
O228 Eu209 2.394 1_545 S
O228 C217 1.251 . S
O229 Eu199 2.374 . S
O229 C217 1.251 1_554 S
H230 C201 0.931 . S
H231 C202 0.931 . S
H232 C204 0.931 . S
H233 C205 0.931 . S
H234 C211 0.941 . S
H235 C212 0.931 1_565 S
H236 C214 0.931 . S
H237 C215 0.931 . S
C238 Eu239 2.835 1_455 S
C238 C240 1.500 . S
C238 O258 1.257 . S
C238 O259 1.260 1_455 S
Eu239 C238 2.835 1_655 S
Eu239 O258 2.473 1_655 S
Eu239 O259 2.480 . S
Eu239 O260 2.430 . S
Eu239 O261 2.670 1_554 S
Eu239 O262 2.394 1_655 S
Eu239 O267 2.355 1_655 S
Eu239 O269 2.374 . S
C240 C238 1.500 . S
C240 C241 1.377 . S
C240 C245 1.377 . S
C241 C240 1.377 . S
C241 C242 1.395 . S
C241 H270 0.931 1_455 S
C242 C241 1.395 . S
C242 C243 1.383 . S
C242 H271 0.931 1_455 S
C243 C242 1.383 . S
C243 C244 1.394 . S
C244 C243 1.394 . S
C244 C245 1.378 . S
C244 H272 0.931 . S
C245 C240 1.377 . S
C245 C244 1.378 . S
C245 H273 0.931 . S
C246 O260 1.241 1_556 S
C246 O261 1.279 . S
C247 O262 1.251 . S
C247 O263 1.280 . S
C248 Eu249 2.835 1_655 S
C248 C250 1.500 . S
C248 O264 1.257 . S
C248 O265 1.260 1_655 S
Eu249 C248 2.835 1_455 S
Eu249 O261 2.355 1_455 S
Eu249 O263 2.355 1_556 S
Eu249 O264 2.473 1_455 S
Eu249 O265 2.480 . S
Eu249 O266 2.430 . S
Eu249 O267 2.670 1_556 S
Eu249 O268 2.394 1_455 S
C250 C248 1.500 . S
C250 C251 1.377 1_655 S
C250 C255 1.377 . S
C251 C250 1.377 1_455 S
C251 C252 1.395 1_455 S
C251 H274 0.931 . S
C252 C251 1.395 1_655 S
C252 C253 1.383 . S
C252 H275 0.931 1_655 S
C253 C252 1.383 . S
C253 C254 1.394 . S
C254 C253 1.394 . S
C254 C255 1.378 . S
C254 H276 0.931 . S
C255 C250 1.377 . S
C255 C254 1.378 . S
C255 H277 0.931 . S
C256 O266 1.259 1_554 S
C256 O267 1.270 . S
C257 O268 1.251 . S
C257 O269 1.251 1_556 S
O258 C238 1.257 . S
O258 Eu239 2.473 1_455 S
O259 C238 1.260 1_655 S
O259 Eu239 2.480 . S
O260 Eu239 2.430 . S
O260 C246 1.241 1_554 S
O261 Eu239 2.670 1_556 S
O261 C246 1.279 . S
O261 Eu249 2.355 1_655 S
O262 Eu239 2.394 1_455 S
O262 C247 1.251 . S
O263 C247 1.280 . S
O263 Eu249 2.355 1_554 S
O264 C248 1.257 . S
O264 Eu249 2.473 1_655 S
O265 C248 1.260 1_455 S
O265 Eu249 2.480 . S
O266 Eu249 2.430 . S
O266 C256 1.259 1_556 S
O267 Eu239 2.355 1_455 S
O267 Eu249 2.670 1_554 S
O267 C256 1.270 . S
O268 Eu249 2.394 1_655 S
O268 C257 1.251 . S
O269 Eu239 2.374 . S
O269 C257 1.251 1_554 S
H270 C241 0.931 1_655 S
H271 C242 0.931 1_655 S
H272 C244 0.931 . S
H273 C245 0.931 . S
H274 C251 0.931 . S
H275 C252 0.931 1_455 S
H276 C254 0.931 . S
H277 C255 0.931 . S
C278 Eu279 2.835 . S
C278 C280 1.500 . S
C278 O298 1.257 . S
C278 O299 1.260 . S
Eu279 C278 2.835 . S
Eu279 O298 2.473 . S
Eu279 O299 2.480 . S
Eu279 O300 2.430 . S
Eu279 O301 2.670 1_556 S
Eu279 O302 2.394 . S
Eu279 O307 2.355 . S
Eu279 O309 2.374 1_556 S
C280 C278 1.500 . S
C280 C281 1.377 . S
C280 C285 1.377 . S
C281 C280 1.377 . S
C281 C282 1.395 . S
C281 H310 0.931 . S
C282 C281 1.395 . S
C282 C283 1.383 . S
C282 H311 0.931 . S
C283 C282 1.383 . S
C283 C284 1.394 . S
C284 C283 1.394 . S
C284 C285 1.378 . S
C284 H312 0.931 . S
C285 C280 1.377 . S
C285 C284 1.378 . S
C285 H313 0.931 . S
C286 O300 1.259 1_554 S
C286 O301 1.270 . S
C287 O302 1.251 . S
C287 O303 1.251 1_556 S
C288 Eu289 2.835 . S
C288 C290 1.500 . S
C288 O304 1.257 . S
C288 O305 1.260 . S
Eu289 C288 2.835 . S
Eu289 O301 2.355 . S
Eu289 O303 2.374 . S
Eu289 O304 2.473 . S
Eu289 O305 2.480 . S
Eu289 O306 2.430 . S
Eu289 O307 2.670 1_554 S
Eu289 O308 2.394 . S
C290 C288 1.500 . S
C290 C291 1.377 . S
C290 C295 1.377 . S
C291 C290 1.377 . S
C291 C292 1.395 . S
C291 H314 0.931 . S
C292 C291 1.395 . S
C292 C293 1.383 . S
C292 H315 0.931 . S
C293 C292 1.383 . S
C293 C294 1.394 . S
C294 C293 1.394 . S
C294 C295 1.378 . S
C294 H316 0.931 . S
C295 C290 1.377 . S
C295 C294 1.378 . S
C295 H317 0.931 . S
C296 O306 1.259 . S
C296 O307 1.270 1_554 S
C297 O308 1.251 . S
C297 O309 1.251 . S
O298 C278 1.257 . S
O298 Eu279 2.473 . S
O299 C278 1.260 . S
O299 Eu279 2.480 . S
O300 Eu279 2.430 . S
O300 C286 1.259 1_556 S
O301 Eu279 2.670 1_554 S
O301 C286 1.270 . S
O301 Eu289 2.355 . S
O302 Eu279 2.394 . S
O302 C287 1.251 . S
O303 C287 1.251 1_554 S
O303 Eu289 2.374 . S
O304 C288 1.257 . S
O304 Eu289 2.473 . S
O305 C288 1.260 . S
O305 Eu289 2.480 . S
O306 Eu289 2.430 . S
O306 C296 1.259 . S
O307 Eu279 2.355 . S
O307 Eu289 2.670 1_556 S
O307 C296 1.270 1_556 S
O308 Eu289 2.394 . S
O308 C297 1.251 . S
O309 Eu279 2.374 1_554 S
O309 C297 1.251 . S
H310 C281 0.931 . S
H311 C282 0.931 . S
H312 C284 0.931 . S
H313 C285 0.931 . S
H314 C291 0.931 . S
H315 C292 0.931 . S
H316 C294 0.931 . S
H317 C295 0.931 . S
C318 Eu319 2.835 . S
C318 C320 1.500 . S
C318 O338 1.257 . S
C318 O339 1.260 . S
Eu319 C318 2.835 . S
Eu319 O338 2.473 . S
Eu319 O339 2.480 . S
Eu319 O340 2.430 . S
Eu319 O341 2.670 . S
Eu319 O342 2.394 . S
Eu319 O347 2.355 . S
Eu319 O349 2.374 . S
C320 C318 1.500 . S
C320 C321 1.377 . S
C320 C325 1.377 . S
C321 C320 1.377 . S
C321 C322 1.395 . S
C321 H350 0.931 . S
C322 C321 1.395 . S
C322 C323 1.383 . S
C322 H351 0.931 . S
C323 C322 1.383 . S
C323 C324 1.394 . S
C324 C323 1.394 . S
C324 C325 1.378 . S
C324 H352 0.931 . S
C325 C320 1.377 . S
C325 C324 1.378 . S
C325 H353 0.931 . S
C326 O340 1.259 . S
C326 O341 1.270 . S
C327 O342 1.251 . S
C327 O343 1.251 . S
C328 Eu329 2.835 . S
C328 C330 1.500 . S
C328 O344 1.257 . S
C328 O345 1.260 . S
Eu329 C328 2.835 . S
Eu329 O341 2.355 . S
Eu329 O343 2.374 . S
Eu329 O344 2.473 . S
Eu329 O345 2.480 . S
Eu329 O346 2.430 . S
Eu329 O347 2.670 . S
Eu329 O348 2.394 . S
C330 C328 1.500 . S
C330 C331 1.377 . S
C330 C335 1.377 . S
C331 C330 1.377 . S
C331 C332 1.395 . S
C331 H354 0.931 . S
C332 C331 1.395 . S
C332 C333 1.383 . S
C332 H355 0.931 . S
C333 C332 1.383 . S
C333 C334 1.394 . S
C334 C333 1.394 . S
C334 C335 1.378 . S
C334 H356 0.931 . S
C335 C330 1.377 . S
C335 C334 1.378 . S
C335 H357 0.931 . S
C336 O346 1.259 . S
C336 O347 1.270 . S
C337 O348 1.251 . S
C337 O349 1.251 . S
O338 C318 1.257 . S
O338 Eu319 2.473 . S
O339 C318 1.260 . S
O339 Eu319 2.480 . S
O340 Eu319 2.430 . S
O340 C326 1.259 . S
O341 Eu319 2.670 . S
O341 C326 1.270 . S
O341 Eu329 2.355 . S
O342 Eu319 2.394 . S
O342 C327 1.251 . S
O343 C327 1.251 . S
O343 Eu329 2.374 . S
O344 C328 1.257 . S
O344 Eu329 2.473 . S
O345 C328 1.260 . S
O345 Eu329 2.480 . S
O346 Eu329 2.430 . S
O346 C336 1.259 . S
O347 Eu319 2.355 . S
O347 Eu329 2.670 . S
O347 C336 1.270 . S
O348 Eu329 2.394 . S
O348 C337 1.251 . S
O349 Eu319 2.374 . S
O349 C337 1.251 . S
H350 C321 0.931 . S
H351 C322 0.931 . S
H352 C324 0.931 . S
H353 C325 0.931 . S
H354 C331 0.931 . S
H355 C332 0.931 . S
H356 C334 0.931 . S
H357 C335 0.931 . S
C358 Eu359 2.835 . S
C358 C360 1.500 . S
C358 O378 1.257 . S
C358 O379 1.260 . S
Eu359 C358 2.835 . S
Eu359 O378 2.473 . S
Eu359 O379 2.480 . S
Eu359 O380 2.430 . S
Eu359 O381 2.670 . S
Eu359 O382 2.394 . S
Eu359 O387 2.355 . S
Eu359 O389 2.374 . S
C360 C358 1.500 . S
C360 C361 1.377 . S
C360 C365 1.377 . S
C361 C360 1.377 . S
C361 C362 1.395 . S
C361 H390 0.931 . S
C362 C361 1.395 . S
C362 C363 1.383 . S
C362 H391 0.931 . S
C363 C362 1.383 . S
C363 C364 1.394 . S
C364 C363 1.394 . S
C364 C365 1.378 . S
C364 H392 0.931 . S
C365 C360 1.377 . S
C365 C364 1.378 . S
C365 H393 0.931 . S
C366 O380 1.259 . S
C366 O381 1.270 . S
C367 O382 1.251 . S
C367 O383 1.251 . S
C368 Eu369 2.835 . S
C368 C370 1.500 . S
C368 O384 1.257 . S
C368 O385 1.260 . S
Eu369 C368 2.835 . S
Eu369 O381 2.355 . S
Eu369 O383 2.374 . S
Eu369 O384 2.473 . S
Eu369 O385 2.480 . S
Eu369 O386 2.430 . S
Eu369 O387 2.670 . S
Eu369 O388 2.394 . S
C370 C368 1.500 . S
C370 C371 1.377 . S
C370 C375 1.377 . S
C371 C370 1.377 . S
C371 C372 1.395 . S
C371 H394 0.931 . S
C372 C371 1.395 . S
C372 C373 1.383 . S
C372 H395 0.931 . S
C373 C372 1.383 . S
C373 C374 1.394 . S
C374 C373 1.394 . S
C374 C375 1.378 . S
C374 H396 0.931 . S
C375 C370 1.377 . S
C375 C374 1.378 . S
C375 H397 0.931 . S
C376 O386 1.259 . S
C376 O387 1.270 . S
C377 O388 1.251 . S
C377 O389 1.251 . S
O378 C358 1.257 . S
O378 Eu359 2.473 . S
O379 C358 1.260 . S
O379 Eu359 2.480 . S
O380 Eu359 2.430 . S
O380 C366 1.259 . S
O381 Eu359 2.670 . S
O381 C366 1.270 . S
O381 Eu369 2.355 . S
O382 Eu359 2.394 . S
O382 C367 1.251 . S
O383 C367 1.251 . S
O383 Eu369 2.374 . S
O384 C368 1.257 . S
O384 Eu369 2.473 . S
O385 C368 1.260 . S
O385 Eu369 2.480 . S
O386 Eu369 2.430 . S
O386 C376 1.259 . S
O387 Eu359 2.355 . S
O387 Eu369 2.670 . S
O387 C376 1.270 . S
O388 Eu369 2.394 . S
O388 C377 1.251 . S
O389 Eu359 2.374 . S
O389 C377 1.251 . S
H390 C361 0.931 . S
H391 C362 0.931 . S
H392 C364 0.931 . S
H393 C365 0.931 . S
H394 C371 0.931 . S
H395 C372 0.931 . S
H396 C374 0.931 . S
H397 C375 0.931 . S
C398 Eu399 2.835 . S
C398 C400 1.500 . S
C398 O418 1.257 . S
C398 O419 1.260 . S
Eu399 C398 2.835 . S
Eu399 O418 2.473 . S
Eu399 O419 2.480 . S
Eu399 O420 2.430 . S
Eu399 O421 2.670 . S
Eu399 O422 2.394 . S
Eu399 O427 2.355 . S
Eu399 O429 2.374 . S
C400 C398 1.500 . S
C400 C401 1.377 . S
C400 C405 1.377 . S
C401 C400 1.377 . S
C401 C402 1.395 . S
C401 H430 0.931 . S
C402 C401 1.395 . S
C402 C403 1.383 . S
C402 H431 0.931 . S
C403 C402 1.383 . S
C403 C404 1.394 . S
C404 C403 1.394 . S
C404 C405 1.378 . S
C404 H432 0.931 . S
C405 C400 1.377 . S
C405 C404 1.378 . S
C405 H433 0.931 . S
C406 O420 1.259 . S
C406 O421 1.270 . S
C407 O422 1.251 . S
C407 O423 1.251 . S
C408 Eu409 2.835 . S
C408 C410 1.500 . S
C408 O424 1.257 . S
C408 O425 1.260 . S
Eu409 C408 2.835 . S
Eu409 O421 2.355 . S
Eu409 O423 2.374 . S
Eu409 O424 2.473 . S
Eu409 O425 2.480 . S
Eu409 O426 2.430 . S
Eu409 O427 2.670 . S
Eu409 O428 2.394 . S
C410 C408 1.500 . S
C410 C411 1.377 . S
C410 C415 1.377 . S
C411 C410 1.377 . S
C411 C412 1.395 . S
C411 H434 0.931 . S
C412 C411 1.395 . S
C412 C413 1.383 . S
C412 H435 0.931 . S
C413 C412 1.383 . S
C413 C414 1.394 . S
C414 C413 1.394 . S
C414 C415 1.378 . S
C414 H436 0.931 . S
C415 C410 1.377 . S
C415 C414 1.378 . S
C415 H437 0.931 . S
C416 O426 1.259 . S
C416 O427 1.270 . S
C417 O428 1.251 . S
C417 O429 1.251 . S
O418 C398 1.257 . S
O418 Eu399 2.473 . S
O419 C398 1.260 . S
O419 Eu399 2.480 . S
O420 Eu399 2.430 . S
O420 C406 1.259 . S
O421 Eu399 2.670 . S
O421 C406 1.270 . S
O421 Eu409 2.355 . S
O422 Eu399 2.394 . S
O422 C407 1.251 . S
O423 C407 1.251 . S
O423 Eu409 2.374 . S
O424 C408 1.257 . S
O424 Eu409 2.473 . S
O425 C408 1.260 . S
O425 Eu409 2.480 . S
O426 Eu409 2.430 . S
O426 C416 1.259 . S
O427 Eu399 2.355 . S
O427 Eu409 2.670 . S
O427 C416 1.270 . S
O428 Eu409 2.394 . S
O428 C417 1.251 . S
O429 Eu399 2.374 . S
O429 C417 1.251 . S
H430 C401 0.931 . S
H431 C402 0.931 . S
H432 C404 0.931 . S
H433 C405 0.931 . S
H434 C411 0.931 . S
H435 C412 0.931 . S
H436 C414 0.931 . S
H437 C415 0.931 . S
C438 Eu439 2.835 . S
C438 C440 1.500 . S
C438 O458 1.257 . S
C438 O459 1.260 . S
Eu439 C438 2.835 . S
Eu439 O458 2.473 . S
Eu439 O459 2.480 . S
Eu439 O460 2.430 . S
Eu439 O461 2.670 . S
Eu439 O462 2.394 . S
Eu439 O467 2.355 . S
Eu439 O469 2.374 . S
C440 C438 1.500 . S
C440 C441 1.377 . S
C440 C445 1.377 . S
C441 C440 1.377 . S
C441 C442 1.395 . S
C441 H470 0.931 . S
C442 C441 1.395 . S
C442 C443 1.383 . S
C442 H471 0.931 . S
C443 C442 1.383 . S
C443 C444 1.394 . S
C444 C443 1.394 . S
C444 C445 1.378 . S
C444 H472 0.931 . S
C445 C440 1.377 . S
C445 C444 1.378 . S
C445 H473 0.931 . S
C446 O460 1.259 . S
C446 O461 1.270 . S
C447 O462 1.251 . S
C447 O463 1.251 . S
C448 Eu449 2.835 . S
C448 C450 1.500 . S
C448 O464 1.257 . S
C448 O465 1.260 . S
Eu449 C448 2.835 . S
Eu449 O461 2.355 . S
Eu449 O463 2.374 . S
Eu449 O464 2.473 . S
Eu449 O465 2.480 . S
Eu449 O466 2.430 . S
Eu449 O467 2.670 . S
Eu449 O468 2.394 . S
C450 C448 1.500 . S
C450 C451 1.377 . S
C450 C455 1.377 . S
C451 C450 1.377 . S
C451 C452 1.395 . S
C451 H474 0.931 . S
C452 C451 1.395 . S
C452 C453 1.383 . S
C452 H475 0.931 . S
C453 C452 1.383 . S
C453 C454 1.394 . S
C454 C453 1.394 . S
C454 C455 1.378 . S
C454 H476 0.931 . S
C455 C450 1.377 . S
C455 C454 1.378 . S
C455 H477 0.931 . S
C456 O466 1.259 . S
C456 O467 1.270 . S
C457 O468 1.251 . S
C457 O469 1.251 . S
O458 C438 1.257 . S
O458 Eu439 2.473 . S
O459 C438 1.260 . S
O459 Eu439 2.480 . S
O460 Eu439 2.430 . S
O460 C446 1.259 . S
O461 Eu439 2.670 . S
O461 C446 1.270 . S
O461 Eu449 2.355 . S
O462 Eu439 2.394 . S
O462 C447 1.251 . S
O463 C447 1.251 . S
O463 Eu449 2.374 . S
O464 C448 1.257 . S
O464 Eu449 2.473 . S
O465 C448 1.260 . S
O465 Eu449 2.480 . S
O466 Eu449 2.430 . S
O466 C456 1.259 . S
O467 Eu439 2.355 . S
O467 Eu449 2.670 . S
O467 C456 1.270 . S
O468 Eu449 2.394 . S
O468 C457 1.251 . S
O469 Eu439 2.374 . S
O469 C457 1.251 . S
H470 C441 0.931 . S
H471 C442 0.931 . S
H472 C444 0.931 . S
H473 C445 0.931 . S
H474 C451 0.931 . S
H475 C452 0.931 . S
H476 C454 0.931 . S
H477 C455 0.931 . S
C478 Eu479 2.835 . S
C478 C480 1.500 . S
C478 O498 1.257 . S
C478 O499 1.260 . S
Eu479 C478 2.835 . S
Eu479 O498 2.473 . S
Eu479 O499 2.480 . S
Eu479 O500 2.430 . S
Eu479 O501 2.670 . S
Eu479 O502 2.394 . S
Eu479 O507 2.355 . S
Eu479 O509 2.374 . S
C480 C478 1.500 . S
C480 C481 1.377 . S
C480 C485 1.377 . S
C481 C480 1.377 . S
C481 C482 1.395 . S
C481 H510 0.931 . S
C482 C481 1.395 . S
C482 C483 1.383 . S
C482 H511 0.931 . S
C483 C482 1.383 . S
C483 C484 1.394 . S
C484 C483 1.394 . S
C484 C485 1.378 . S
C484 H512 0.931 . S
C485 C480 1.377 . S
C485 C484 1.378 . S
C485 H513 0.931 . S
C486 O500 1.259 . S
C486 O501 1.270 . S
C487 O502 1.251 . S
C487 O503 1.251 . S
C488 Eu489 2.835 . S
C488 C490 1.500 . S
C488 O504 1.257 . S
C488 O505 1.260 . S
Eu489 C488 2.835 . S
Eu489 O501 2.355 . S
Eu489 O503 2.374 . S
Eu489 O504 2.473 . S
Eu489 O505 2.480 . S
Eu489 O506 2.430 . S
Eu489 O507 2.670 . S
Eu489 O508 2.394 . S
C490 C488 1.500 . S
C490 C491 1.377 . S
C490 C495 1.377 . S
C491 C490 1.377 . S
C491 C492 1.395 . S
C491 H514 0.931 . S
C492 C491 1.395 . S
C492 C493 1.383 . S
C492 H515 0.931 . S
C493 C492 1.383 . S
C493 C494 1.394 . S
C494 C493 1.394 . S
C494 C495 1.378 . S
C494 H516 0.931 . S
C495 C490 1.377 . S
C495 C494 1.378 . S
C495 H517 0.931 . S
C496 O506 1.259 . S
C496 O507 1.270 . S
C497 O508 1.251 . S
C497 O509 1.251 . S
O498 C478 1.257 . S
O498 Eu479 2.473 . S
O499 C478 1.260 . S
O499 Eu479 2.480 . S
O500 Eu479 2.430 . S
O500 C486 1.259 . S
O501 Eu479 2.670 . S
O501 C486 1.270 . S
O501 Eu489 2.355 . S
O502 Eu479 2.394 . S
O502 C487 1.251 . S
O503 C487 1.251 . S
O503 Eu489 2.374 . S
O504 C488 1.257 . S
O504 Eu489 2.473 . S
O505 C488 1.260 . S
O505 Eu489 2.480 . S
O506 Eu489 2.430 . S
O506 C496 1.259 . S
O507 Eu479 2.355 . S
O507 Eu489 2.670 . S
O507 C496 1.270 . S
O508 Eu489 2.394 . S
O508 C497 1.251 . S
O509 Eu479 2.374 . S
O509 C497 1.251 . S
H510 C481 0.931 . S
H511 C482 0.931 . S
H512 C484 0.931 . S
H513 C485 0.931 . S
H514 C491 0.931 . S
H515 C492 0.931 . S
H516 C494 0.931 . S
H517 C495 0.931 . S
C518 Eu519 2.835 . S
C518 C520 1.500 . S
C518 O538 1.257 . S
C518 O539 1.260 . S
Eu519 C518 2.835 . S
Eu519 O538 2.473 . S
Eu519 O539 2.480 . S
Eu519 O540 2.430 . S
Eu519 O541 2.670 . S
Eu519 O542 2.394 . S
Eu519 O547 2.355 . S
Eu519 O549 2.374 . S
C520 C518 1.500 . S
C520 C521 1.377 . S
C520 C525 1.377 . S
C521 C520 1.377 . S
C521 C522 1.395 . S
C521 H550 0.931 . S
C522 C521 1.395 . S
C522 C523 1.383 . S
C522 H551 0.931 . S
C523 C522 1.383 . S
C523 C524 1.394 . S
C524 C523 1.394 . S
C524 C525 1.378 . S
C524 H552 0.931 . S
C525 C520 1.377 . S
C525 C524 1.378 . S
C525 H553 0.931 . S
C526 O540 1.259 . S
C526 O541 1.270 . S
C527 O542 1.251 . S
C527 O543 1.251 . S
C528 Eu529 2.835 . S
C528 C530 1.500 . S
C528 O544 1.257 . S
C528 O545 1.260 . S
Eu529 C528 2.835 . S
Eu529 O541 2.355 . S
Eu529 O543 2.374 . S
Eu529 O544 2.473 . S
Eu529 O545 2.480 . S
Eu529 O546 2.430 . S
Eu529 O547 2.670 . S
Eu529 O548 2.394 . S
C530 C528 1.500 . S
C530 C531 1.377 . S
C530 C535 1.377 . S
C531 C530 1.377 . S
C531 C532 1.395 . S
C531 H554 0.931 . S
C532 C531 1.395 . S
C532 C533 1.383 . S
C532 H555 0.931 . S
C533 C532 1.383 . S
C533 C534 1.394 . S
C534 C533 1.394 . S
C534 C535 1.378 . S
C534 H556 0.931 . S
C535 C530 1.377 . S
C535 C534 1.378 . S
C535 H557 0.931 . S
C536 O546 1.259 . S
C536 O547 1.270 . S
C537 O548 1.251 . S
C537 O549 1.251 . S
O538 C518 1.257 . S
O538 Eu519 2.473 . S
O539 C518 1.260 . S
O539 Eu519 2.480 . S
O540 Eu519 2.430 . S
O540 C526 1.259 . S
O541 Eu519 2.670 . S
O541 C526 1.270 . S
O541 Eu529 2.355 . S
O542 Eu519 2.394 . S
O542 C527 1.251 . S
O543 C527 1.251 . S
O543 Eu529 2.374 . S
O544 C528 1.257 . S
O544 Eu529 2.473 . S
O545 C528 1.260 . S
O545 Eu529 2.480 . S
O546 Eu529 2.430 . S
O546 C536 1.259 . S
O547 Eu519 2.355 . S
O547 Eu529 2.670 . S
O547 C536 1.270 . S
O548 Eu529 2.394 . S
O548 C537 1.251 . S
O549 Eu519 2.374 . S
O549 C537 1.251 . S
H550 C521 0.931 . S
H551 C522 0.931 . S
H552 C524 0.931 . S
H553 C525 0.931 . S
H554 C531 0.931 . S
H555 C532 0.931 . S
H556 C534 0.931 . S
H557 C535 0.931 . S
C558 C559 1.363 . S
C558 C564 1.379 . S
C558 N566 1.356 . S
C559 C558 1.363 . S
C559 C565 1.363 . S
C560 C561 1.363 . S
C560 C565 1.379 . S
C560 N567 1.356 . S
C561 C560 1.363 . S
C561 C564 1.363 . S
N562 C564 1.355 . S
N562 H574 0.985 1_554 S
N562 H575 0.981 1_554 S
N563 C565 1.356 . S
N563 H568 0.984 . S
N563 H569 0.985 . S
C564 C558 1.379 . S
C564 C561 1.363 . S
C564 N562 1.355 . S
C565 C559 1.363 . S
C565 C560 1.379 . S
C565 N563 1.356 . S
N566 C558 1.356 . S
N566 H572 0.984 . S
N566 H573 0.984 . S
N567 C560 1.356 . S
N567 H570 0.984 . S
N567 H571 0.985 . S
H568 N563 0.984 . S
H569 N563 0.985 . S
H570 N567 0.984 . S
H571 N567 0.985 . S
H572 N566 0.984 . S
H573 N566 0.984 . S
H574 N562 0.985 1_556 S
H575 N562 0.981 1_556 S
C576 C577 1.363 . S
C576 C582 1.379 . S
C576 N584 1.356 . S
C577 C576 1.363 . S
C577 C583 1.363 . S
C578 C579 1.363 . S
C578 C583 1.379 . S
C578 N585 1.356 . S
C579 C578 1.363 . S
C579 C582 1.363 . S
N580 C582 1.327 1_556 S
N580 H592 1.016 . S
N580 H593 0.985 . S
N581 C583 1.356 . S
N581 H586 0.984 . S
N581 H587 0.985 . S
C582 C576 1.379 . S
C582 C579 1.363 . S
C582 N580 1.327 1_554 S
C583 C577 1.363 . S
C583 C578 1.379 . S
C583 N581 1.356 . S
N584 C576 1.356 . S
N584 H590 1.019 . S
N584 H591 0.984 . S
N585 C578 1.356 . S
N585 H588 0.984 . S
N585 H589 0.985 . S
H586 N581 0.984 . S
H587 N581 0.985 . S
H588 N585 0.984 . S
H589 N585 0.985 . S
H590 N584 1.019 . S
H591 N584 0.984 . S
H592 N580 1.016 . S
H593 N580 0.985 . S
C594 C595 1.363 . S
C594 C600 1.379 . S
C594 N602 1.356 1_554 S
C595 C594 1.363 . S
C595 C601 1.363 . S
C596 C597 1.363 . S
C596 C601 1.379 . S
C596 N603 1.356 . S
C597 C596 1.363 . S
C597 C600 1.363 . S
N598 C600 1.356 1_556 S
N598 H610 0.984 . S
N598 H611 0.985 . S
N599 C601 1.356 . S
N599 H604 0.984 . S
N599 H605 0.985 . S
C600 C594 1.379 . S
C600 C597 1.363 . S
C600 N598 1.356 1_554 S
C601 C595 1.363 . S
C601 C596 1.379 . S
C601 N599 1.356 . S
N602 C594 1.356 1_556 S
N602 H608 0.984 . S
N602 H609 0.984 1_556 S
N603 C596 1.356 . S
N603 H606 0.984 . S
N603 H607 0.985 . S
H604 N599 0.984 . S
H605 N599 0.985 . S
H606 N603 0.984 . S
H607 N603 0.985 . S
H608 N602 0.984 . S
H609 N602 0.984 1_554 S
H610 N598 0.984 . S
H611 N598 0.985 . S
C612 C613 1.363 . S
C612 C618 1.379 . S
C612 N620 1.356 . S
C613 C612 1.363 . S
C613 C619 1.363 . S
C614 C615 1.363 1_554 S
C614 C619 1.379 1_554 S
C614 N621 1.356 . S
C615 C614 1.363 1_556 S
C615 C618 1.363 . S
N616 C618 1.356 . S
N616 H628 0.984 . S
N616 H629 0.985 . S
N617 C619 1.356 1_554 S
N617 H622 0.984 1_554 S
N617 H623 0.985 . S
C618 C612 1.379 . S
C618 C615 1.363 . S
C618 N616 1.356 . S
C619 C613 1.363 . S
C619 C614 1.379 1_556 S
C619 N617 1.356 1_556 S
N620 C612 1.356 . S
N620 H626 0.984 . S
N620 H627 0.984 . S
N621 C614 1.356 . S
N621 H624 0.984 . S
N621 H625 0.985 . S
H622 N617 0.984 1_556 S
H623 N617 0.985 . S
H624 N621 0.984 . S
H625 N621 0.985 . S
H626 N620 0.984 . S
H627 N620 0.984 . S
H628 N616 0.984 . S
H629 N616 0.985 . S
C630 C631 1.363 . S
C630 C636 1.379 . S
C630 N638 1.356 . S
C631 C630 1.363 . S
C631 C637 1.363 . S
C632 C633 1.363 . S
C632 C637 1.379 . S
C632 N639 1.356 1_556 S
C633 C632 1.363 . S
C633 C636 1.363 . S
N634 C636 1.356 . S
N634 H646 0.984 . S
N634 H647 0.985 . S
N635 C637 1.356 . S
N635 H640 0.984 . S
N635 H641 0.985 . S
C636 C630 1.379 . S
C636 C633 1.363 . S
C636 N634 1.356 . S
C637 C631 1.363 . S
C637 C632 1.379 . S
C637 N635 1.356 . S
N638 C630 1.356 . S
N638 H644 0.984 . S
N638 H645 0.984 . S
N639 C632 1.356 1_554 S
N639 H642 0.984 . S
N639 H643 0.985 . S
H640 N635 0.984 . S
H641 N635 0.985 . S
H642 N639 0.984 . S
H643 N639 0.985 . S
H644 N638 0.984 . S
H645 N638 0.984 . S
H646 N634 0.984 . S
H647 N634 0.985 . S
C648 C649 1.363 . S
C648 C654 1.379 . S
C648 N656 1.356 . S
C649 C648 1.363 . S
C649 C655 1.363 1_556 S
C650 C651 1.363 1_554 S
C650 C655 1.379 . S
C650 N657 1.356 . S
C651 C650 1.363 1_556 S
C651 C654 1.363 . S
N652 C654 1.356 . S
N652 H664 0.984 . S
N652 H665 0.985 . S
N653 C655 1.356 . S
N653 H658 0.984 . S
N653 H659 0.985 . S
C654 C648 1.379 . S
C654 C651 1.363 . S
C654 N652 1.356 . S
C655 C649 1.363 1_554 S
C655 C650 1.379 . S
C655 N653 1.356 . S
N656 C648 1.356 . S
N656 H662 0.984 . S
N656 H663 0.984 . S
N657 C650 1.356 . S
N657 H660 0.984 . S
N657 H661 0.985 . S
H658 N653 0.984 . S
H659 N653 0.985 . S
H660 N657 0.984 . S
H661 N657 0.985 . S
H662 N656 0.984 . S
H663 N656 0.984 . S
H664 N652 0.984 . S
H665 N652 0.985 . S
C666 C667 1.363 . S
C666 C672 1.379 . S
C666 N674 1.356 . S
C667 C666 1.363 . S
C667 C673 1.363 . S
C668 C669 1.363 . S
C668 C673 1.379 . S
C668 N675 1.356 . S
C669 C668 1.363 . S
C669 C672 1.363 . S
N670 C672 1.356 . S
N670 H682 0.984 . S
N670 H683 0.985 . S
N671 C673 1.356 . S
N671 H676 0.984 . S
N671 H677 0.985 . S
C672 C666 1.379 . S
C672 C669 1.363 . S
C672 N670 1.356 . S
C673 C667 1.363 . S
C673 C668 1.379 . S
C673 N671 1.356 . S
N674 C666 1.356 . S
N674 H680 0.984 . S
N674 H681 0.984 . S
N675 C668 1.356 . S
N675 H678 0.984 . S
N675 H679 0.963 1_545 S
H676 N671 0.984 . S
H677 N671 0.985 . S
H678 N675 0.984 . S
H679 N675 0.963 1_565 S
H680 N674 0.984 . S
H681 N674 0.984 . S
H682 N670 0.984 . S
H683 N670 0.985 . S
C684 C685 1.363 . S
C684 C690 1.379 . S
C684 N692 1.356 . S
C685 C684 1.363 . S
C685 C691 1.363 . S
C686 C687 1.363 . S
C686 C691 1.379 . S
C686 N693 1.356 . S
C687 C686 1.363 . S
C687 C690 1.363 . S
N688 C690 1.356 . S
N688 H700 0.984 1_556 S
N688 H701 0.985 . S
N689 C691 1.356 . S
N689 H694 0.984 . S
N689 H695 0.985 . S
C690 C684 1.379 . S
C690 C687 1.363 . S
C690 N688 1.356 . S
C691 C685 1.363 . S
C691 C686 1.379 . S
C691 N689 1.356 . S
N692 C684 1.356 . S
N692 H698 0.984 . S
N692 H699 0.984 . S
N693 C686 1.356 . S
N693 H696 0.984 . S
N693 H697 0.985 . S
H694 N689 0.984 . S
H695 N689 0.985 . S
H696 N693 0.984 . S
H697 N693 0.985 . S
H698 N692 0.984 . S
H699 N692 0.984 . S
H700 N688 0.984 1_554 S
H701 N688 0.985 . S
C702 C703 1.363 . S
C702 C708 1.379 . S
C702 N710 1.356 . S
C703 C702 1.363 . S
C703 C709 1.363 1_556 S
C704 C705 1.363 1_554 S
C704 C709 1.379 . S
C704 N711 1.356 . S
C705 C704 1.363 1_556 S
C705 C708 1.363 . S
N706 C708 1.356 . S
N706 H718 0.984 . S
N706 H719 0.985 . S
N707 C709 1.356 . S
N707 H712 0.984 . S
N707 H713 0.985 . S
C708 C702 1.379 . S
C708 C705 1.363 . S
C708 N706 1.356 . S
C709 C703 1.363 1_554 S
C709 C704 1.379 . S
C709 N707 1.356 . S
N710 C702 1.356 . S
N710 H716 0.984 . S
N710 H717 0.984 . S
N711 C704 1.356 . S
N711 H714 0.984 . S
N711 H715 0.985 . S
H712 N707 0.984 . S
H713 N707 0.985 . S
H714 N711 0.984 . S
H715 N711 0.985 . S
H716 N710 0.984 . S
H717 N710 0.984 . S
H718 N706 0.984 . S
H719 N706 0.985 . S
C720 C721 1.363 . S
C720 C726 1.379 . S
C720 N728 1.356 1_554 S
C721 C720 1.363 . S
C721 C727 1.363 . S
C722 C723 1.363 . S
C722 C727 1.379 . S
C722 N729 1.356 . S
C723 C722 1.363 . S
C723 C726 1.363 . S
N724 C726 1.356 1_556 S
N724 H736 0.984 . S
N724 H737 0.985 . S
N725 C727 1.356 . S
N725 H730 0.984 . S
N725 H731 0.985 . S
C726 C720 1.379 . S
C726 C723 1.363 . S
C726 N724 1.356 1_554 S
C727 C721 1.363 . S
C727 C722 1.379 . S
C727 N725 1.356 . S
N728 C720 1.356 1_556 S
N728 H734 0.984 . S
N728 H735 0.983 1_556 S
N729 C722 1.356 . S
N729 H732 0.984 . S
N729 H733 0.985 . S
H730 N725 0.984 . S
H731 N725 0.985 . S
H732 N729 0.984 . S
H733 N729 0.985 . S
H734 N728 0.984 . S
H735 N728 0.983 1_554 S
H736 N724 0.984 . S
H737 N724 0.985 . S
C738 C739 1.363 . S
C738 C744 1.379 . S
C738 N746 1.356 . S
C739 C738 1.363 . S
C739 C745 1.363 . S
C740 C741 1.363 . S
C740 C745 1.379 . S
C740 N747 1.356 . S
C741 C740 1.363 . S
C741 C744 1.363 . S
N742 C744 1.356 . S
N742 H754 0.984 1_554 S
N742 H755 0.985 . S
N743 C745 1.356 . S
N743 H748 0.984 . S
N743 H749 0.985 . S
C744 C738 1.379 . S
C744 C741 1.363 . S
C744 N742 1.356 . S
C745 C739 1.363 . S
C745 C740 1.379 . S
C745 N743 1.356 . S
N746 C738 1.356 . S
N746 H752 0.984 . S
N746 H753 0.984 . S
N747 C740 1.356 . S
N747 H750 0.984 . S
N747 H751 0.985 . S
H748 N743 0.984 . S
H749 N743 0.985 . S
H750 N747 0.984 . S
H751 N747 0.985 . S
H752 N746 0.984 . S
H753 N746 0.984 . S
H754 N742 0.984 1_556 S
H755 N742 0.985 . S
C756 C757 1.363 . S
C756 C762 1.379 . S
C756 N764 1.356 . S
C757 C756 1.363 . S
C757 C763 1.363 . S
C758 C759 1.363 . S
C758 C763 1.379 . S
C758 N765 1.356 . S
C759 C758 1.363 . S
C759 C762 1.363 . S
N760 C762 1.374 . S
N760 H772 0.968 1_564 S
N760 H773 0.986 . S
N761 C763 1.356 . S
N761 H766 0.984 . S
N761 H767 0.985 . S
C762 C756 1.379 . S
C762 C759 1.363 . S
C762 N760 1.374 . S
C763 C757 1.363 . S
C763 C758 1.379 . S
C763 N761 1.356 . S
N764 C756 1.356 . S
N764 H770 0.984 . S
N764 H771 0.984 . S
N765 C758 1.356 . S
N765 H768 0.984 . S
N765 H769 0.985 . S
H766 N761 0.984 . S
H767 N761 0.985 . S
H768 N765 0.984 . S
H769 N765 0.985 . S
H770 N764 0.984 . S
H771 N764 0.984 . S
H772 N760 0.968 1_546 S
H773 N760 0.986 . S
C774 C775 1.363 . S
C774 C780 1.379 . S
C774 N782 1.356 . S
C775 C774 1.363 . S
C775 C781 1.363 . S
C776 C777 1.363 . S
C776 C781 1.379 1_455 S
C776 N783 1.356 . S
C777 C776 1.363 . S
C777 C780 1.363 1_455 S
N778 C780 1.356 1_455 S
N778 H790 0.984 1_455 S
N778 H791 0.985 . S
N779 C781 1.356 . S
N779 H784 0.984 . S
N779 H785 0.985 . S
C780 C774 1.379 . S
C780 C777 1.363 1_655 S
C780 N778 1.356 1_655 S
C781 C775 1.363 . S
C781 C776 1.379 1_655 S
C781 N779 1.356 . S
N782 C774 1.356 . S
N782 H788 0.984 . S
N782 H789 0.984 . S
N783 C776 1.356 . S
N783 H786 0.984 . S
N783 H787 0.985 . S
H784 N779 0.984 . S
H785 N779 0.985 . S
H786 N783 0.984 . S
H787 N783 0.985 . S
H788 N782 0.984 . S
H789 N782 0.984 . S
H790 N778 0.984 1_655 S
H791 N778 0.985 . S
C792 C793 1.363 . S
C792 C798 1.379 . S
C792 N800 1.356 . S
C793 C792 1.363 . S
C793 C799 1.363 . S
C794 C795 1.363 . S
C794 C799 1.379 . S
C794 N801 1.356 . S
C795 C794 1.363 . S
C795 C798 1.363 . S
N796 C798 1.356 . S
N796 H808 0.984 . S
N796 H809 0.985 . S
N797 C799 1.356 . S
N797 H802 0.984 . S
N797 H803 0.985 . S
C798 C792 1.379 . S
C798 C795 1.363 . S
C798 N796 1.356 . S
C799 C793 1.363 . S
C799 C794 1.379 . S
C799 N797 1.356 . S
N800 C792 1.356 . S
N800 H806 0.984 . S
N800 H807 0.984 . S
N801 C794 1.356 . S
N801 H804 0.984 . S
N801 H805 0.985 . S
H802 N797 0.984 . S
H803 N797 0.985 . S
H804 N801 0.984 . S
H805 N801 0.985 . S
H806 N800 0.984 . S
H807 N800 0.984 . S
H808 N796 0.984 . S
H809 N796 0.985 . S
C810 C811 1.363 . S
C810 C816 1.379 . S
C810 N818 1.356 . S
C811 C810 1.363 . S
C811 C817 1.363 . S
C812 C813 1.363 1_545 S
C812 C817 1.379 . S
C812 N819 1.356 1_545 S
C813 C812 1.363 1_565 S
C813 C816 1.363 1_565 S
N814 C816 1.356 1_565 S
N814 H826 0.984 . S
N814 H827 0.985 . S
N815 C817 1.356 . S
N815 H820 0.984 . S
N815 H821 0.985 . S
C816 C810 1.379 . S
C816 C813 1.363 1_545 S
C816 N814 1.356 1_545 S
C817 C811 1.363 . S
C817 C812 1.379 . S
C817 N815 1.356 . S
N818 C810 1.356 . S
N818 H824 0.984 . S
N818 H825 0.984 . S
N819 C812 1.356 1_565 S
N819 H822 0.984 . S
N819 H823 0.985 . S
H820 N815 0.984 . S
H821 N815 0.985 . S
H822 N819 0.984 . S
H823 N819 0.985 . S
H824 N818 0.984 . S
H825 N818 0.984 . S
H826 N814 0.984 . S
H827 N814 0.985 . S
C828 C829 1.363 . S
C828 C834 1.379 . S
C828 N836 1.356 . S
C829 C828 1.363 . S
C829 C835 1.363 . S
C830 C831 1.363 . S
C830 C835 1.379 . S
C830 N837 1.356 . S
C831 C830 1.363 . S
C831 C834 1.363 . S
N832 C834 1.356 . S
N832 H844 0.984 . S
N832 H845 0.985 . S
N833 C835 1.356 . S
N833 H838 0.984 . S
N833 H839 0.985 . S
C834 C828 1.379 . S
C834 C831 1.363 . S
C834 N832 1.356 . S
C835 C829 1.363 . S
C835 C830 1.379 . S
C835 N833 1.356 . S
N836 C828 1.356 . S
N836 H842 0.984 . S
N836 H843 0.984 . S
N837 C830 1.356 . S
N837 H840 0.984 . S
N837 H841 0.985 . S
H838 N833 0.984 . S
H839 N833 0.985 . S
H840 N837 0.984 . S
H841 N837 0.985 . S
H842 N836 0.984 . S
H843 N836 0.984 . S
H844 N832 0.984 . S
H845 N832 0.985 . S
C846 C847 1.363 . S
C846 C852 1.379 . S
C846 N854 1.356 . S
C847 C846 1.363 . S
C847 C853 1.363 . S
C848 C849 1.363 . S
C848 C853 1.379 . S
C848 N855 1.356 . S
C849 C848 1.363 . S
C849 C852 1.363 . S
N850 C852 1.356 . S
N850 H862 0.984 . S
N850 H863 0.985 . S
N851 C853 1.356 . S
N851 H856 0.984 . S
N851 H857 0.985 . S
C852 C846 1.379 . S
C852 C849 1.363 . S
C852 N850 1.356 . S
C853 C847 1.363 . S
C853 C848 1.379 . S
C853 N851 1.356 . S
N854 C846 1.356 . S
N854 H860 0.984 . S
N854 H861 0.984 . S
N855 C848 1.356 . S
N855 H858 0.984 . S
N855 H859 0.985 . S
H856 N851 0.984 . S
H857 N851 0.985 . S
H858 N855 0.984 . S
H859 N855 0.985 . S
H860 N854 0.984 . S
H861 N854 0.984 . S
H862 N850 0.984 . S
H863 N850 0.985 . S
C864 C865 1.363 . S
C864 C870 1.379 . S
C864 N872 1.356 . S
C865 C864 1.363 . S
C865 C871 1.363 . S
C866 C867 1.363 . S
C866 C871 1.379 . S
C866 N873 1.356 . S
C867 C866 1.363 . S
C867 C870 1.363 . S
N868 C870 1.356 . S
N868 H880 0.984 . S
N868 H881 0.985 . S
N869 C871 1.356 . S
N869 H874 0.984 . S
N869 H875 0.985 . S
C870 C864 1.379 . S
C870 C867 1.363 . S
C870 N868 1.356 . S
C871 C865 1.363 . S
C871 C866 1.379 . S
C871 N869 1.356 . S
N872 C864 1.356 . S
N872 H878 0.984 . S
N872 H879 0.984 . S
N873 C866 1.356 . S
N873 H876 0.984 . S
N873 H877 0.985 . S
H874 N869 0.984 . S
H875 N869 0.985 . S
H876 N873 0.984 . S
H877 N873 0.985 . S
H878 N872 0.984 . S
H879 N872 0.984 . S
H880 N868 0.984 . S
H881 N868 0.985 . S
C882 C883 1.363 . S
C882 C888 1.379 . S
C882 N890 1.356 . S
C883 C882 1.363 . S
C883 C889 1.363 . S
C884 C885 1.363 . S
C884 C889 1.379 . S
C884 N891 1.356 . S
C885 C884 1.363 . S
C885 C888 1.363 . S
N886 C888 1.356 . S
N886 H898 0.984 . S
N886 H899 0.985 . S
N887 C889 1.356 . S
N887 H892 0.984 . S
N887 H893 0.985 . S
C888 C882 1.379 . S
C888 C885 1.363 . S
C888 N886 1.356 . S
C889 C883 1.363 . S
C889 C884 1.379 . S
C889 N887 1.356 . S
N890 C882 1.356 . S
N890 H896 0.984 . S
N890 H897 0.984 . S
N891 C884 1.356 . S
N891 H894 0.984 . S
N891 H895 0.985 . S
H892 N887 0.984 . S
H893 N887 0.985 . S
H894 N891 0.984 . S
H895 N891 0.985 . S
H896 N890 0.984 . S
H897 N890 0.984 . S
H898 N886 0.984 . S
H899 N886 0.985 . S
C900 C901 1.363 . S
C900 C906 1.379 . S
C900 N908 1.356 . S
C901 C900 1.363 . S
C901 C907 1.363 . S
C902 C903 1.363 . S
C902 C907 1.379 . S
C902 N909 1.356 . S
C903 C902 1.363 . S
C903 C906 1.363 . S
N904 C906 1.356 . S
N904 H916 0.984 . S
N904 H917 0.985 . S
N905 C907 1.356 . S
N905 H910 0.984 . S
N905 H911 0.985 . S
C906 C900 1.379 . S
C906 C903 1.363 . S
C906 N904 1.356 . S
C907 C901 1.363 . S
C907 C902 1.379 . S
C907 N905 1.356 . S
N908 C900 1.356 . S
N908 H914 0.984 . S
N908 H915 0.984 . S
N909 C902 1.356 . S
N909 H912 0.984 . S
N909 H913 0.985 . S
H910 N905 0.984 . S
H911 N905 0.985 . S
H912 N909 0.984 . S
H913 N909 0.985 . S
H914 N908 0.984 . S
H915 N908 0.984 . S
H916 N904 0.984 . S
H917 N904 0.985 . S
C918 C919 1.363 . S
C918 C924 1.379 . S
C918 N926 1.356 . S
C919 C918 1.363 . S
C919 C925 1.363 . S
C920 C921 1.363 . S
C920 C925 1.379 . S
C920 N927 1.356 . S
C921 C920 1.363 . S
C921 C924 1.363 . S
N922 C924 1.356 . S
N922 H934 0.984 . S
N922 H935 0.985 . S
N923 C925 1.356 . S
N923 H928 0.984 . S
N923 H929 0.985 . S
C924 C918 1.379 . S
C924 C921 1.363 . S
C924 N922 1.356 . S
C925 C919 1.363 . S
C925 C920 1.379 . S
C925 N923 1.356 . S
N926 C918 1.356 . S
N926 H932 0.984 . S
N926 H933 0.984 . S
N927 C920 1.356 . S
N927 H930 0.984 . S
N927 H931 0.985 . S
H928 N923 0.984 . S
H929 N923 0.985 . S
H930 N927 0.984 . S
H931 N927 0.985 . S
H932 N926 0.984 . S
H933 N926 0.984 . S
H934 N922 0.984 . S
H935 N922 0.985 . S
C936 C937 1.363 1_565 S
C936 C942 1.379 . S
C936 N944 1.356 1_565 S
C937 C936 1.363 1_545 S
C937 C943 1.363 1_545 S
C938 C939 1.363 . S
C938 C943 1.379 . S
C938 N945 1.356 . S
C939 C938 1.363 . S
C939 C942 1.363 . S
N940 C942 1.356 . S
N940 H952 0.984 . S
N940 H953 0.985 . S
N941 C943 1.356 1_545 S
N941 H946 0.984 . S
N941 H947 0.985 . S
C942 C936 1.379 . S
C942 C939 1.363 . S
C942 N940 1.356 . S
C943 C937 1.363 1_565 S
C943 C938 1.379 . S
C943 N941 1.356 1_565 S
N944 C936 1.356 1_545 S
N944 H950 0.984 . S
N944 H951 0.984 . S
N945 C938 1.356 . S
N945 H948 0.984 . S
N945 H949 0.985 . S
H946 N941 0.984 . S
H947 N941 0.985 . S
H948 N945 0.984 . S
H949 N945 0.985 . S
H950 N944 0.984 . S
H951 N944 0.984 . S
H952 N940 0.984 . S
H953 N940 0.985 . S
C954 C955 1.363 . S
C954 C960 1.379 . S
C954 N962 1.356 . S
C955 C954 1.363 . S
C955 C961 1.363 . S
C956 C957 1.363 . S
C956 C961 1.379 . S
C956 N963 1.356 . S
C957 C956 1.363 . S
C957 C960 1.363 . S
N958 C960 1.356 . S
N958 H970 0.984 . S
N958 H971 0.985 . S
N959 C961 1.356 . S
N959 H964 0.984 1_455 S
N959 H965 0.985 . S
C960 C954 1.379 . S
C960 C957 1.363 . S
C960 N958 1.356 . S
C961 C955 1.363 . S
C961 C956 1.379 . S
C961 N959 1.356 . S
N962 C954 1.356 . S
N962 H968 0.984 . S
N962 H969 0.984 1_455 S
N963 C956 1.356 . S
N963 H966 0.984 . S
N963 H967 0.985 . S
H964 N959 0.984 1_655 S
H965 N959 0.985 . S
H966 N963 0.984 . S
H967 N963 0.985 . S
H968 N962 0.984 . S
H969 N962 0.984 1_655 S
H970 N958 0.984 . S
H971 N958 0.985 . S
C972 C973 1.363 . S
C972 C978 1.379 . S
C972 N980 1.356 . S
C973 C972 1.363 . S
C973 C979 1.363 . S
C974 C975 1.363 . S
C974 C979 1.379 . S
C974 N981 1.356 . S
C975 C974 1.363 . S
C975 C978 1.363 . S
N976 C978 1.356 . S
N976 H988 0.984 . S
N976 H989 0.985 . S
N977 C979 1.356 . S
N977 H982 0.984 . S
N977 H983 0.985 . S
C978 C972 1.379 . S
C978 C975 1.363 . S
C978 N976 1.356 . S
C979 C973 1.363 . S
C979 C974 1.379 . S
C979 N977 1.356 . S
N980 C972 1.356 . S
N980 H986 0.984 . S
N980 H987 0.984 . S
N981 C974 1.356 . S
N981 H984 0.984 . S
N981 H985 0.985 . S
H982 N977 0.984 . S
H983 N977 0.985 . S
H984 N981 0.984 . S
H985 N981 0.985 . S
H986 N980 0.984 . S
H987 N980 0.984 . S
H988 N976 0.984 . S
H989 N976 0.985 . S
C990 C991 1.363 . S
C990 C996 1.379 . S
C990 N998 1.356 . S
C991 C990 1.363 . S
C991 C997 1.363 . S
C992 C993 1.363 . S
C992 C997 1.379 . S
C992 N999 1.356 . S
C993 C992 1.363 . S
C993 C996 1.363 . S
N994 C996 1.356 . S
N994 H1006 0.984 . S
N994 H1007 0.985 . S
N995 C997 1.356 . S
N995 H1000 0.984 . S
N995 H1001 0.985 . S
C996 C990 1.379 . S
C996 C993 1.363 . S
C996 N994 1.356 . S
C997 C991 1.363 . S
C997 C992 1.379 . S
C997 N995 1.356 . S
N998 C990 1.356 . S
N998 H1004 0.984 . S
N998 H1005 0.984 . S
N999 C992 1.356 . S
N999 H1002 0.984 . S
N999 H1003 0.985 . S
H1000 N995 0.984 . S
H1001 N995 0.985 . S
H1002 N999 0.984 . S
H1003 N999 0.985 . S
H1004 N998 0.984 . S
H1005 N998 0.984 . S
H1006 N994 0.984 . S
H1007 N994 0.985 . S
C1008 C1009 1.363 . S
C1008 C1014 1.379 . S
C1008 N1016 1.356 . S
C1009 C1008 1.363 . S
C1009 C1015 1.363 . S
C1010 C1011 1.363 . S
C1010 C1015 1.379 . S
C1010 N1017 1.356 . S
C1011 C1010 1.363 . S
C1011 C1014 1.363 . S
N1012 C1014 1.356 . S
N1012 H1024 0.984 . S
N1012 H1025 0.985 . S
N1013 C1015 1.356 . S
N1013 H1018 0.984 . S
N1013 H1019 0.985 . S
C1014 C1008 1.379 . S
C1014 C1011 1.363 . S
C1014 N1012 1.356 . S
C1015 C1009 1.363 . S
C1015 C1010 1.379 . S
C1015 N1013 1.356 . S
N1016 C1008 1.356 . S
N1016 H1022 0.984 . S
N1016 H1023 0.984 . S
N1017 C1010 1.356 . S
N1017 H1020 0.984 . S
N1017 H1021 0.985 . S
H1018 N1013 0.984 . S
H1019 N1013 0.985 . S
H1020 N1017 0.984 . S
H1021 N1017 0.985 . S
H1022 N1016 0.984 . S
H1023 N1016 0.984 . S
H1024 N1012 0.984 . S
H1025 N1012 0.985 . S
C1026 C1027 1.363 . S
C1026 C1032 1.379 . S
C1026 N1034 1.356 . S
C1027 C1026 1.363 . S
C1027 C1033 1.363 . S
C1028 C1029 1.363 . S
C1028 C1033 1.379 . S
C1028 N1035 1.356 . S
C1029 C1028 1.363 . S
C1029 C1032 1.363 . S
N1030 C1032 1.356 . S
N1030 H1042 0.984 . S
N1030 H1043 0.985 . S
N1031 C1033 1.356 . S
N1031 H1036 0.984 . S
N1031 H1037 0.985 . S
C1032 C1026 1.379 . S
C1032 C1029 1.363 . S
C1032 N1030 1.356 . S
C1033 C1027 1.363 . S
C1033 C1028 1.379 . S
C1033 N1031 1.356 . S
N1034 C1026 1.356 . S
N1034 H1040 0.984 . S
N1034 H1041 0.984 . S
N1035 C1028 1.356 . S
N1035 H1038 0.984 . S
N1035 H1039 0.985 . S
H1036 N1031 0.984 . S
H1037 N1031 0.985 . S
H1038 N1035 0.984 . S
H1039 N1035 0.985 . S
H1040 N1034 0.984 . S
H1041 N1034 0.984 . S
H1042 N1030 0.984 . S
H1043 N1030 0.985 . S
C1044 C1045 1.363 . S
C1044 C1050 1.379 1_565 S
C1044 N1052 1.356 . S
C1045 C1044 1.363 . S
C1045 C1051 1.363 . S
C1046 C1047 1.363 1_565 S
C1046 C1051 1.379 . S
C1046 N1053 1.356 1_565 S
C1047 C1046 1.363 1_545 S
C1047 C1050 1.363 . S
N1048 C1050 1.356 . S
N1048 H1060 0.984 . S
N1048 H1061 0.985 . S
N1049 C1051 1.356 . S
N1049 H1054 0.984 . S
N1049 H1055 0.985 . S
C1050 C1044 1.379 1_545 S
C1050 C1047 1.363 . S
C1050 N1048 1.356 . S
C1051 C1045 1.363 . S
C1051 C1046 1.379 . S
C1051 N1049 1.356 . S
N1052 C1044 1.356 . S
N1052 H1058 0.984 . S
N1052 H1059 0.984 . S
N1053 C1046 1.356 1_545 S
N1053 H1056 0.984 . S
N1053 H1057 0.985 . S
H1054 N1049 0.984 . S
H1055 N1049 0.985 . S
H1056 N1053 0.984 . S
H1057 N1053 0.985 . S
H1058 N1052 0.984 . S
H1059 N1052 0.984 . S
H1060 N1048 0.984 . S
H1061 N1048 0.985 . S
C1062 C1063 1.363 . S
C1062 C1068 1.379 1_455 S
C1062 N1070 1.356 . S
C1063 C1062 1.363 . S
C1063 C1069 1.363 . S
C1064 C1065 1.363 1_455 S
C1064 C1069 1.379 . S
C1064 N1071 1.356 . S
C1065 C1064 1.363 1_655 S
C1065 C1068 1.363 . S
N1066 C1068 1.356 . S
N1066 H1078 0.984 . S
N1066 H1079 0.985 . S
N1067 C1069 1.356 . S
N1067 H1072 0.984 . S
N1067 H1073 0.985 . S
C1068 C1062 1.379 1_655 S
C1068 C1065 1.363 . S
C1068 N1066 1.356 . S
C1069 C1063 1.363 . S
C1069 C1064 1.379 . S
C1069 N1067 1.356 . S
N1070 C1062 1.356 . S
N1070 H1076 0.984 1_455 S
N1070 H1077 0.984 . S
N1071 C1064 1.356 . S
N1071 H1074 0.984 1_455 S
N1071 H1075 0.985 . S
H1072 N1067 0.984 . S
H1073 N1067 0.985 . S
H1074 N1071 0.984 1_655 S
H1075 N1071 0.985 . S
H1076 N1070 0.984 1_655 S
H1077 N1070 0.984 . S
H1078 N1066 0.984 . S
H1079 N1066 0.985 . S
C1080 C1081 1.363 . S
C1080 C1086 1.379 . S
C1080 N1088 1.356 . S
C1081 C1080 1.363 . S
C1081 C1087 1.363 . S
C1082 C1083 1.363 . S
C1082 C1087 1.379 . S
C1082 N1089 1.356 . S
C1083 C1082 1.363 . S
C1083 C1086 1.363 . S
N1084 C1086 1.356 . S
N1084 H1096 0.984 . S
N1084 H1097 0.985 . S
N1085 C1087 1.356 . S
N1085 H1090 0.984 . S
N1085 H1091 0.985 . S
C1086 C1080 1.379 . S
C1086 C1083 1.363 . S
C1086 N1084 1.356 . S
C1087 C1081 1.363 . S
C1087 C1082 1.379 . S
C1087 N1085 1.356 . S
N1088 C1080 1.356 . S
N1088 H1094 0.984 . S
N1088 H1095 0.984 . S
N1089 C1082 1.356 . S
N1089 H1092 0.984 . S
N1089 H1093 0.985 . S
H1090 N1085 0.984 . S
H1091 N1085 0.985 . S
H1092 N1089 0.984 . S
H1093 N1089 0.985 . S
H1094 N1088 0.984 . S
H1095 N1088 0.984 . S
H1096 N1084 0.984 . S
H1097 N1084 0.985 . S
C1098 C1099 1.375 . S
C1098 C1104 1.379 . S
C1098 N1106 1.364 . S
C1099 C1098 1.375 . S
C1099 C1105 1.366 . S
C1100 C1101 1.363 . S
C1100 C1105 1.379 . S
C1100 N1107 1.356 . S
C1101 C1100 1.363 . S
C1101 C1104 1.363 . S
N1102 C1104 1.356 . S
N1102 H1114 0.984 . S
N1102 H1115 0.985 . S
N1103 C1105 1.356 1_455 S
N1103 H1108 0.984 . S
N1103 H1109 0.985 . S
C1104 C1098 1.379 . S
C1104 C1101 1.363 . S
C1104 N1102 1.356 . S
C1105 C1099 1.366 . S
C1105 C1100 1.379 . S
C1105 N1103 1.356 1_655 S
N1106 C1098 1.364 . S
N1106 H1112 0.994 . S
N1106 H1113 0.967 1_655 S
N1107 C1100 1.356 . S
N1107 H1110 0.984 . S
N1107 H1111 0.985 . S
H1108 N1103 0.984 . S
H1109 N1103 0.985 . S
H1110 N1107 0.984 . S
H1111 N1107 0.985 . S
H1112 N1106 0.994 . S
H1113 N1106 0.967 1_455 S
H1114 N1102 0.984 . S
H1115 N1102 0.985 . S
C1116 C1117 1.363 . S
C1116 C1122 1.379 . S
C1116 N1124 1.356 . S
C1117 C1116 1.363 . S
C1117 C1123 1.363 . S
C1118 C1119 1.363 . S
C1118 C1123 1.379 . S
C1118 N1125 1.356 . S
C1119 C1118 1.363 . S
C1119 C1122 1.363 . S
N1120 C1122 1.356 . S
N1120 H1132 0.984 . S
N1120 H1133 0.985 . S
N1121 C1123 1.356 . S
N1121 H1126 0.984 . S
N1121 H1127 0.985 . S
C1122 C1116 1.379 . S
C1122 C1119 1.363 . S
C1122 N1120 1.356 . S
C1123 C1117 1.363 . S
C1123 C1118 1.379 . S
C1123 N1121 1.356 . S
N1124 C1116 1.356 . S
N1124 H1130 0.984 . S
N1124 H1131 0.984 . S
N1125 C1118 1.356 . S
N1125 H1128 0.984 . S
N1125 H1129 0.985 . S
H1126 N1121 0.984 . S
H1127 N1121 0.985 . S
H1128 N1125 0.984 . S
H1129 N1125 0.985 . S
H1130 N1124 0.984 . S
H1131 N1124 0.984 . S
H1132 N1120 0.984 . S
H1133 N1120 0.985 . S
C1134 C1135 1.363 . S
C1134 C1140 1.379 . S
C1134 N1142 1.358 . S
C1135 C1134 1.363 . S
C1135 C1141 1.363 . S
C1136 C1137 1.363 . S
C1136 C1141 1.379 . S
C1136 N1143 1.356 . S
C1137 C1136 1.363 . S
C1137 C1140 1.363 . S
N1138 C1140 1.356 . S
N1138 H1150 0.984 . S
N1138 H1151 0.985 . S
N1139 C1141 1.356 1_565 S
N1139 H1144 0.984 . S
N1139 H1145 0.985 . S
C1140 C1134 1.379 . S
C1140 C1137 1.363 . S
C1140 N1138 1.356 . S
C1141 C1135 1.363 . S
C1141 C1136 1.379 . S
C1141 N1139 1.356 1_545 S
N1142 C1134 1.358 . S
N1142 H1148 0.986 . S
N1142 H1149 0.981 1_545 S
N1143 C1136 1.356 . S
N1143 H1146 0.984 . S
N1143 H1147 0.985 . S
H1144 N1139 0.984 . S
H1145 N1139 0.985 . S
H1146 N1143 0.984 . S
H1147 N1143 0.985 . S
H1148 N1142 0.986 . S
H1149 N1142 0.981 1_565 S
H1150 N1138 0.984 . S
H1151 N1138 0.985 . S
C1152 C1153 1.363 . S
C1152 C1158 1.379 . S
C1152 N1160 1.356 . S
C1153 C1152 1.363 . S
C1153 C1159 1.363 . S
C1154 C1155 1.363 . S
C1154 C1159 1.379 . S
C1154 N1161 1.356 . S
C1155 C1154 1.363 . S
C1155 C1158 1.363 . S
N1156 C1158 1.356 . S
N1156 H1168 0.984 . S
N1156 H1169 0.985 . S
N1157 C1159 1.356 . S
N1157 H1162 0.984 . S
N1157 H1163 0.985 . S
C1158 C1152 1.379 . S
C1158 C1155 1.363 . S
C1158 N1156 1.356 . S
C1159 C1153 1.363 . S
C1159 C1154 1.379 . S
C1159 N1157 1.356 . S
N1160 C1152 1.356 . S
N1160 H1166 0.984 . S
N1160 H1167 0.984 . S
N1161 C1154 1.356 . S
N1161 H1164 0.984 . S
N1161 H1165 0.985 . S
H1162 N1157 0.984 . S
H1163 N1157 0.985 . S
H1164 N1161 0.984 . S
H1165 N1161 0.985 . S
H1166 N1160 0.984 . S
H1167 N1160 0.984 . S
H1168 N1156 0.984 . S
H1169 N1156 0.985 . S
C1170 C1171 1.363 . S
C1170 C1176 1.379 . S
C1170 N1178 1.356 . S
C1171 C1170 1.363 . S
C1171 C1177 1.363 . S
C1172 C1173 1.363 . S
C1172 C1177 1.379 . S
C1172 N1179 1.356 . S
C1173 C1172 1.363 . S
C1173 C1176 1.363 . S
N1174 C1176 1.356 . S
N1174 H1186 0.984 . S
N1174 H1187 0.985 . S
N1175 C1177 1.356 . S
N1175 H1180 0.984 . S
N1175 H1181 0.985 . S
C1176 C1170 1.379 . S
C1176 C1173 1.363 . S
C1176 N1174 1.356 . S
C1177 C1171 1.363 . S
C1177 C1172 1.379 . S
C1177 N1175 1.356 . S
N1178 C1170 1.356 . S
N1178 H1184 0.984 . S
N1178 H1185 0.984 . S
N1179 C1172 1.356 . S
N1179 H1182 0.984 . S
N1179 H1183 0.985 . S
H1180 N1175 0.984 . S
H1181 N1175 0.985 . S
H1182 N1179 0.984 . S
H1183 N1179 0.985 . S
H1184 N1178 0.984 . S
H1185 N1178 0.984 . S
H1186 N1174 0.984 . S
H1187 N1174 0.985 . S
C1188 C1189 1.363 . S
C1188 C1194 1.379 . S
C1188 N1196 1.356 . S
C1189 C1188 1.363 . S
C1189 C1195 1.363 . S
C1190 C1191 1.363 . S
C1190 C1195 1.379 . S
C1190 N1197 1.356 . S
C1191 C1190 1.363 . S
C1191 C1194 1.363 . S
N1192 C1194 1.356 . S
N1192 H1204 0.984 . S
N1192 H1205 0.985 . S
N1193 C1195 1.356 . S
N1193 H1198 0.984 . S
N1193 H1199 0.985 . S
C1194 C1188 1.379 . S
C1194 C1191 1.363 . S
C1194 N1192 1.356 . S
C1195 C1189 1.363 . S
C1195 C1190 1.379 . S
C1195 N1193 1.356 . S
N1196 C1188 1.356 . S
N1196 H1202 0.984 . S
N1196 H1203 0.984 . S
N1197 C1190 1.356 . S
N1197 H1200 0.984 . S
N1197 H1201 0.985 . S
H1198 N1193 0.984 . S
H1199 N1193 0.985 . S
H1200 N1197 0.984 . S
H1201 N1197 0.985 . S
H1202 N1196 0.984 . S
H1203 N1196 0.984 . S
H1204 N1192 0.984 . S
H1205 N1192 0.985 . S
C1206 C1207 1.363 . S
C1206 C1212 1.379 . S
C1206 N1214 1.356 . S
C1207 C1206 1.363 . S
C1207 C1213 1.363 . S
C1208 C1209 1.363 . S
C1208 C1213 1.379 . S
C1208 N1215 1.356 . S
C1209 C1208 1.363 . S
C1209 C1212 1.363 . S
N1210 C1212 1.356 . S
N1210 H1222 0.984 . S
N1210 H1223 0.985 . S
N1211 C1213 1.356 . S
N1211 H1216 0.984 . S
N1211 H1217 0.985 . S
C1212 C1206 1.379 . S
C1212 C1209 1.363 . S
C1212 N1210 1.356 . S
C1213 C1207 1.363 . S
C1213 C1208 1.379 . S
C1213 N1211 1.356 . S
N1214 C1206 1.356 . S
N1214 H1220 0.984 . S
N1214 H1221 0.984 . S
N1215 C1208 1.356 . S
N1215 H1218 0.984 . S
N1215 H1219 0.985 . S
H1216 N1211 0.984 . S
H1217 N1211 0.985 . S
H1218 N1215 0.984 . S
H1219 N1215 0.985 . S
H1220 N1214 0.984 . S
H1221 N1214 0.984 . S
H1222 N1210 0.984 . S
H1223 N1210 0.985 . S
C1224 C1225 1.363 . S
C1224 C1230 1.379 . S
C1224 N1232 1.356 . S
C1225 C1224 1.363 . S
C1225 C1231 1.363 . S
C1226 C1227 1.363 . S
C1226 C1231 1.379 . S
C1226 N1233 1.356 . S
C1227 C1226 1.363 . S
C1227 C1230 1.363 . S
N1228 C1230 1.356 . S
N1228 H1240 0.984 . S
N1228 H1241 0.985 . S
N1229 C1231 1.356 . S
N1229 H1234 0.984 . S
N1229 H1235 0.985 . S
C1230 C1224 1.379 . S
C1230 C1227 1.363 . S
C1230 N1228 1.356 . S
C1231 C1225 1.363 . S
C1231 C1226 1.379 . S
C1231 N1229 1.356 . S
N1232 C1224 1.356 . S
N1232 H1238 0.984 . S
N1232 H1239 0.984 . S
N1233 C1226 1.356 . S
N1233 H1236 0.984 . S
N1233 H1237 0.985 . S
H1234 N1229 0.984 . S
H1235 N1229 0.985 . S
H1236 N1233 0.984 . S
H1237 N1233 0.985 . S
H1238 N1232 0.984 . S
H1239 N1232 0.984 . S
H1240 N1228 0.984 . S
H1241 N1228 0.985 . S
C1242 C1243 1.363 . S
C1242 C1248 1.379 . S
C1242 N1250 1.356 . S
C1243 C1242 1.363 . S
C1243 C1249 1.363 . S
C1244 C1245 1.363 . S
C1244 C1249 1.379 . S
C1244 N1251 1.356 . S
C1245 C1244 1.363 . S
C1245 C1248 1.363 . S
N1246 C1248 1.356 . S
N1246 H1258 0.984 . S
N1246 H1259 0.985 . S
N1247 C1249 1.356 . S
N1247 H1252 0.984 . S
N1247 H1253 0.985 . S
C1248 C1242 1.379 . S
C1248 C1245 1.363 . S
C1248 N1246 1.356 . S
C1249 C1243 1.363 . S
C1249 C1244 1.379 . S
C1249 N1247 1.356 . S
N1250 C1242 1.356 . S
N1250 H1256 0.984 . S
N1250 H1257 0.984 . S
N1251 C1244 1.356 . S
N1251 H1254 0.984 . S
N1251 H1255 0.985 . S
H1252 N1247 0.984 . S
H1253 N1247 0.985 . S
H1254 N1251 0.984 . S
H1255 N1251 0.985 . S
H1256 N1250 0.984 . S
H1257 N1250 0.984 . S
H1258 N1246 0.984 . S
H1259 N1246 0.985 . S
C1260 C1261 1.363 . S
C1260 C1266 1.379 . S
C1260 N1268 1.356 1_655 S
C1261 C1260 1.363 . S
C1261 C1267 1.363 . S
C1262 C1263 1.363 . S
C1262 C1267 1.379 . S
C1262 N1269 1.356 . S
C1263 C1262 1.363 . S
C1263 C1266 1.363 . S
N1264 C1266 1.356 1_455 S
N1264 H1276 0.984 . S
N1264 H1277 0.985 1_455 S
N1265 C1267 1.356 . S
N1265 H1270 0.984 . S
N1265 H1271 0.985 . S
C1266 C1260 1.379 . S
C1266 C1263 1.363 . S
C1266 N1264 1.356 1_655 S
C1267 C1261 1.363 . S
C1267 C1262 1.379 . S
C1267 N1265 1.356 . S
N1268 C1260 1.356 1_455 S
N1268 H1274 0.984 . S
N1268 H1275 0.984 . S
N1269 C1262 1.356 . S
N1269 H1272 0.984 . S
N1269 H1273 0.985 . S
H1270 N1265 0.984 . S
H1271 N1265 0.985 . S
H1272 N1269 0.984 . S
H1273 N1269 0.985 . S
H1274 N1268 0.984 . S
H1275 N1268 0.984 . S
H1276 N1264 0.984 . S
H1277 N1264 0.985 1_655 S
C1278 C1279 1.363 . S
C1278 C1284 1.379 . S
C1278 N1286 1.356 . S
C1279 C1278 1.363 . S
C1279 C1285 1.363 . S
C1280 C1281 1.363 . S
C1280 C1285 1.379 . S
C1280 N1287 1.356 . S
C1281 C1280 1.363 . S
C1281 C1284 1.363 . S
N1282 C1284 1.356 . S
N1282 H1294 0.984 . S
N1282 H1295 0.985 . S
N1283 C1285 1.356 . S
N1283 H1288 0.984 . S
N1283 H1289 0.985 . S
C1284 C1278 1.379 . S
C1284 C1281 1.363 . S
C1284 N1282 1.356 . S
C1285 C1279 1.363 . S
C1285 C1280 1.379 . S
C1285 N1283 1.356 . S
N1286 C1278 1.356 . S
N1286 H1292 0.984 . S
N1286 H1293 0.984 . S
N1287 C1280 1.356 . S
N1287 H1290 0.984 . S
N1287 H1291 0.985 . S
H1288 N1283 0.984 . S
H1289 N1283 0.985 . S
H1290 N1287 0.984 . S
H1291 N1287 0.985 . S
H1292 N1286 0.984 . S
H1293 N1286 0.984 . S
H1294 N1282 0.984 . S
H1295 N1282 0.985 . S
C1296 C1297 1.363 . S
C1296 C1302 1.379 . S
C1296 N1304 1.356 . S
C1297 C1296 1.363 . S
C1297 C1303 1.363 . S
C1298 C1299 1.363 . S
C1298 C1303 1.379 . S
C1298 N1305 1.356 1_545 S
C1299 C1298 1.363 . S
C1299 C1302 1.363 . S
N1300 C1302 1.356 . S
N1300 H1312 0.984 . S
N1300 H1313 0.985 . S
N1301 C1303 1.356 . S
N1301 H1306 0.984 . S
N1301 H1307 0.985 1_545 S
C1302 C1296 1.379 . S
C1302 C1299 1.363 . S
C1302 N1300 1.356 . S
C1303 C1297 1.363 . S
C1303 C1298 1.379 . S
C1303 N1301 1.356 . S
N1304 C1296 1.356 . S
N1304 H1310 0.984 . S
N1304 H1311 0.984 . S
N1305 C1298 1.356 1_565 S
N1305 H1308 0.984 . S
N1305 H1309 0.985 . S
H1306 N1301 0.984 . S
H1307 N1301 0.985 1_565 S
H1308 N1305 0.984 . S
H1309 N1305 0.985 . S
H1310 N1304 0.984 . S
H1311 N1304 0.984 . S
H1312 N1300 0.984 . S
H1313 N1300 0.985 . S
C1314 C1315 1.363 . S
C1314 C1320 1.379 . S
C1314 N1322 1.356 . S
C1315 C1314 1.363 . S
C1315 C1321 1.363 . S
C1316 C1317 1.363 . S
C1316 C1321 1.379 . S
C1316 N1323 1.356 . S
C1317 C1316 1.363 . S
C1317 C1320 1.363 . S
N1318 C1320 1.356 . S
N1318 H1330 0.984 . S
N1318 H1331 0.985 . S
N1319 C1321 1.356 . S
N1319 H1324 0.984 . S
N1319 H1325 0.985 . S
C1320 C1314 1.379 . S
C1320 C1317 1.363 . S
C1320 N1318 1.356 . S
C1321 C1315 1.363 . S
C1321 C1316 1.379 . S
C1321 N1319 1.356 . S
N1322 C1314 1.356 . S
N1322 H1328 0.984 . S
N1322 H1329 0.984 . S
N1323 C1316 1.356 . S
N1323 H1326 0.984 . S
N1323 H1327 0.985 . S
H1324 N1319 0.984 . S
H1325 N1319 0.985 . S
H1326 N1323 0.984 . S
H1327 N1323 0.985 . S
H1328 N1322 0.984 . S
H1329 N1322 0.984 . S
H1330 N1318 0.984 . S
H1331 N1318 0.985 . S
C1332 C1333 1.363 . S
C1332 C1338 1.379 . S
C1332 N1340 1.356 . S
C1333 C1332 1.363 . S
C1333 C1339 1.363 . S
C1334 C1335 1.363 . S
C1334 C1339 1.379 . S
C1334 N1341 1.356 . S
C1335 C1334 1.363 . S
C1335 C1338 1.363 . S
N1336 C1338 1.356 . S
N1336 H1348 0.984 . S
N1336 H1349 0.985 . S
N1337 C1339 1.356 . S
N1337 H1342 0.984 . S
N1337 H1343 0.985 . S
C1338 C1332 1.379 . S
C1338 C1335 1.363 . S
C1338 N1336 1.356 . S
C1339 C1333 1.363 . S
C1339 C1334 1.379 . S
C1339 N1337 1.356 . S
N1340 C1332 1.356 . S
N1340 H1346 0.984 . S
N1340 H1347 0.984 . S
N1341 C1334 1.356 . S
N1341 H1344 0.984 . S
N1341 H1345 0.985 . S
H1342 N1337 0.984 . S
H1343 N1337 0.985 . S
H1344 N1341 0.984 . S
H1345 N1341 0.985 . S
H1346 N1340 0.984 . S
H1347 N1340 0.984 . S
H1348 N1336 0.984 . S
H1349 N1336 0.985 . S
C1350 C1351 1.363 . S
C1350 C1356 1.379 . S
C1350 N1358 1.356 . S
C1351 C1350 1.363 . S
C1351 C1357 1.363 . S
C1352 C1353 1.363 . S
C1352 C1357 1.379 . S
C1352 N1359 1.356 . S
C1353 C1352 1.363 . S
C1353 C1356 1.363 . S
N1354 C1356 1.356 . S
N1354 H1366 0.984 . S
N1354 H1367 0.985 . S
N1355 C1357 1.356 . S
N1355 H1360 0.984 . S
N1355 H1361 0.985 . S
C1356 C1350 1.379 . S
C1356 C1353 1.363 . S
C1356 N1354 1.356 . S
C1357 C1351 1.363 . S
C1357 C1352 1.379 . S
C1357 N1355 1.356 . S
N1358 C1350 1.356 . S
N1358 H1364 0.984 . S
N1358 H1365 0.984 . S
N1359 C1352 1.356 . S
N1359 H1362 0.984 . S
N1359 H1363 0.985 . S
H1360 N1355 0.984 . S
H1361 N1355 0.985 . S
H1362 N1359 0.984 . S
H1363 N1359 0.985 . S
H1364 N1358 0.984 . S
H1365 N1358 0.984 . S
H1366 N1354 0.984 . S
H1367 N1354 0.985 . S
C1368 C1369 1.363 . S
C1368 C1374 1.379 . S
C1368 N1376 1.356 . S
C1369 C1368 1.363 . S
C1369 C1375 1.363 . S
C1370 C1371 1.363 . S
C1370 C1375 1.379 . S
C1370 N1377 1.356 . S
C1371 C1370 1.363 . S
C1371 C1374 1.363 . S
N1372 C1374 1.356 . S
N1372 H1384 0.984 . S
N1372 H1385 0.985 . S
N1373 C1375 1.356 . S
N1373 H1378 0.984 . S
N1373 H1379 0.985 . S
C1374 C1368 1.379 . S
C1374 C1371 1.363 . S
C1374 N1372 1.356 . S
C1375 C1369 1.363 . S
C1375 C1370 1.379 . S
C1375 N1373 1.356 . S
N1376 C1368 1.356 . S
N1376 H1382 0.984 . S
N1376 H1383 0.984 . S
N1377 C1370 1.356 . S
N1377 H1380 0.984 . S
N1377 H1381 0.985 . S
H1378 N1373 0.984 . S
H1379 N1373 0.985 . S
H1380 N1377 0.984 . S
H1381 N1377 0.985 . S
H1382 N1376 0.984 . S
H1383 N1376 0.984 . S
H1384 N1372 0.984 . S
H1385 N1372 0.985 . S
C1386 C1387 1.363 . S
C1386 C1392 1.379 . S
C1386 N1394 1.356 . S
C1387 C1386 1.363 . S
C1387 C1393 1.363 . S
C1388 C1389 1.363 . S
C1388 C1393 1.379 . S
C1388 N1395 1.356 . S
C1389 C1388 1.363 . S
C1389 C1392 1.363 . S
N1390 C1392 1.356 . S
N1390 H1402 0.984 . S
N1390 H1403 0.985 . S
N1391 C1393 1.356 . S
N1391 H1396 0.984 . S
N1391 H1397 0.985 . S
C1392 C1386 1.379 . S
C1392 C1389 1.363 . S
C1392 N1390 1.356 . S
C1393 C1387 1.363 . S
C1393 C1388 1.379 . S
C1393 N1391 1.356 . S
N1394 C1386 1.356 . S
N1394 H1400 0.984 . S
N1394 H1401 0.984 . S
N1395 C1388 1.356 . S
N1395 H1398 0.984 . S
N1395 H1399 0.985 . S
H1396 N1391 0.984 . S
H1397 N1391 0.985 . S
H1398 N1395 0.984 . S
H1399 N1395 0.985 . S
H1400 N1394 0.984 . S
H1401 N1394 0.984 . S
H1402 N1390 0.984 . S
H1403 N1390 0.985 . S
C1404 C1405 1.363 . S
C1404 C1410 1.379 . S
C1404 N1412 1.356 . S
C1405 C1404 1.363 . S
C1405 C1411 1.363 . S
C1406 C1407 1.363 . S
C1406 C1411 1.379 . S
C1406 N1413 1.356 . S
C1407 C1406 1.363 . S
C1407 C1410 1.363 . S
N1408 C1410 1.356 . S
N1408 H1420 0.984 . S
N1408 H1421 0.985 . S
N1409 C1411 1.356 . S
N1409 H1414 0.984 . S
N1409 H1415 0.985 . S
C1410 C1404 1.379 . S
C1410 C1407 1.363 . S
C1410 N1408 1.356 . S
C1411 C1405 1.363 . S
C1411 C1406 1.379 . S
C1411 N1409 1.356 . S
N1412 C1404 1.356 . S
N1412 H1418 0.984 . S
N1412 H1419 0.984 . S
N1413 C1406 1.356 . S
N1413 H1416 0.984 . S
N1413 H1417 0.985 . S
H1414 N1409 0.984 . S
H1415 N1409 0.985 . S
H1416 N1413 0.984 . S
H1417 N1413 0.985 . S
H1418 N1412 0.984 . S
H1419 N1412 0.984 . S
H1420 N1408 0.984 . S
H1421 N1408 0.985 . S
C1422 C1423 1.363 . S
C1422 C1428 1.379 . S
C1422 N1430 1.356 . S
C1423 C1422 1.363 . S
C1423 C1429 1.363 . S
C1424 C1425 1.363 . S
C1424 C1429 1.379 . S
C1424 N1431 1.356 . S
C1425 C1424 1.363 . S
C1425 C1428 1.363 . S
N1426 C1428 1.356 . S
N1426 H1438 0.984 . S
N1426 H1439 0.985 . S
N1427 C1429 1.356 . S
N1427 H1432 0.984 . S
N1427 H1433 0.985 . S
C1428 C1422 1.379 . S
C1428 C1425 1.363 . S
C1428 N1426 1.356 . S
C1429 C1423 1.363 . S
C1429 C1424 1.379 . S
C1429 N1427 1.356 . S
N1430 C1422 1.356 . S
N1430 H1436 0.984 . S
N1430 H1437 0.984 . S
N1431 C1424 1.356 . S
N1431 H1434 0.984 . S
N1431 H1435 0.985 . S
H1432 N1427 0.984 . S
H1433 N1427 0.985 . S
H1434 N1431 0.984 . S
H1435 N1431 0.985 . S
H1436 N1430 0.984 . S
H1437 N1430 0.984 . S
H1438 N1426 0.984 . S
H1439 N1426 0.985 . S
C1440 C1441 1.363 . S
C1440 C1446 1.379 . S
C1440 N1448 1.356 . S
C1441 C1440 1.363 . S
C1441 C1447 1.363 . S
C1442 C1443 1.363 . S
C1442 C1447 1.379 . S
C1442 N1449 1.356 . S
C1443 C1442 1.363 . S
C1443 C1446 1.363 . S
N1444 C1446 1.356 . S
N1444 H1456 0.984 . S
N1444 H1457 0.985 . S
N1445 C1447 1.356 . S
N1445 H1450 0.984 . S
N1445 H1451 0.985 . S
C1446 C1440 1.379 . S
C1446 C1443 1.363 . S
C1446 N1444 1.356 . S
C1447 C1441 1.363 . S
C1447 C1442 1.379 . S
C1447 N1445 1.356 . S
N1448 C1440 1.356 . S
N1448 H1454 0.984 . S
N1448 H1455 0.984 . S
N1449 C1442 1.356 . S
N1449 H1452 0.984 . S
N1449 H1453 0.985 . S
H1450 N1445 0.984 . S
H1451 N1445 0.985 . S
H1452 N1449 0.984 . S
H1453 N1449 0.985 . S
H1454 N1448 0.984 . S
H1455 N1448 0.984 . S
H1456 N1444 0.984 . S
H1457 N1444 0.985 . S
C1458 C1459 1.363 . S
C1458 C1464 1.379 . S
C1458 N1466 1.356 . S
C1459 C1458 1.363 . S
C1459 C1465 1.363 . S
C1460 C1461 1.363 . S
C1460 C1465 1.379 . S
C1460 N1467 1.356 . S
C1461 C1460 1.363 . S
C1461 C1464 1.363 . S
N1462 C1464 1.356 . S
N1462 H1474 0.984 . S
N1462 H1475 0.985 . S
N1463 C1465 1.356 . S
N1463 H1468 0.984 . S
N1463 H1469 0.985 . S
C1464 C1458 1.379 . S
C1464 C1461 1.363 . S
C1464 N1462 1.356 . S
C1465 C1459 1.363 . S
C1465 C1460 1.379 . S
C1465 N1463 1.356 . S
N1466 C1458 1.356 . S
N1466 H1472 0.984 . S
N1466 H1473 0.984 . S
N1467 C1460 1.356 . S
N1467 H1470 0.984 . S
N1467 H1471 0.985 . S
H1468 N1463 0.984 . S
H1469 N1463 0.985 . S
H1470 N1467 0.984 . S
H1471 N1467 0.985 . S
H1472 N1466 0.984 . S
H1473 N1466 0.984 . S
H1474 N1462 0.984 . S
H1475 N1462 0.985 . S
C1476 C1477 1.363 . S
C1476 C1482 1.379 . S
C1476 N1484 1.356 . S
C1477 C1476 1.363 . S
C1477 C1483 1.363 . S
C1478 C1479 1.363 . S
C1478 C1483 1.379 . S
C1478 N1485 1.356 . S
C1479 C1478 1.363 . S
C1479 C1482 1.363 . S
N1480 C1482 1.356 . S
N1480 H1492 0.984 . S
N1480 H1493 0.985 . S
N1481 C1483 1.356 . S
N1481 H1486 0.984 . S
N1481 H1487 0.985 . S
C1482 C1476 1.379 . S
C1482 C1479 1.363 . S
C1482 N1480 1.356 . S
C1483 C1477 1.363 . S
C1483 C1478 1.379 . S
C1483 N1481 1.356 . S
N1484 C1476 1.356 . S
N1484 H1490 0.984 . S
N1484 H1491 0.984 . S
N1485 C1478 1.356 . S
N1485 H1488 0.984 . S
N1485 H1489 0.985 . S
H1486 N1481 0.984 . S
H1487 N1481 0.985 . S
H1488 N1485 0.984 . S
H1489 N1485 0.985 . S
H1490 N1484 0.984 . S
H1491 N1484 0.984 . S
H1492 N1480 0.984 . S
H1493 N1480 0.985 . S
C1494 C1495 1.363 . S
C1494 C1500 1.379 . S
C1494 N1502 1.356 . S
C1495 C1494 1.363 . S
C1495 C1501 1.363 . S
C1496 C1497 1.363 . S
C1496 C1501 1.379 . S
C1496 N1503 1.356 . S
C1497 C1496 1.363 . S
C1497 C1500 1.363 . S
N1498 C1500 1.356 . S
N1498 H1510 0.984 . S
N1498 H1511 0.985 . S
N1499 C1501 1.356 . S
N1499 H1504 0.984 . S
N1499 H1505 0.985 . S
C1500 C1494 1.379 . S
C1500 C1497 1.363 . S
C1500 N1498 1.356 . S
C1501 C1495 1.363 . S
C1501 C1496 1.379 . S
C1501 N1499 1.356 . S
N1502 C1494 1.356 . S
N1502 H1508 0.984 . S
N1502 H1509 0.984 . S
N1503 C1496 1.356 . S
N1503 H1506 0.984 . S
N1503 H1507 0.985 . S
H1504 N1499 0.984 . S
H1505 N1499 0.985 . S
H1506 N1503 0.984 . S
H1507 N1503 0.985 . S
H1508 N1502 0.984 . S
H1509 N1502 0.984 . S
H1510 N1498 0.984 . S
H1511 N1498 0.985 . S
C1512 C1513 1.363 . S
C1512 C1518 1.379 . S
C1512 N1520 1.356 . S
C1513 C1512 1.363 . S
C1513 C1519 1.363 . S
C1514 C1515 1.363 . S
C1514 C1519 1.379 . S
C1514 N1521 1.356 . S
C1515 C1514 1.363 . S
C1515 C1518 1.363 . S
N1516 C1518 1.356 . S
N1516 H1528 0.984 . S
N1516 H1529 0.985 . S
N1517 C1519 1.356 . S
N1517 H1522 0.984 . S
N1517 H1523 0.985 . S
C1518 C1512 1.379 . S
C1518 C1515 1.363 . S
C1518 N1516 1.356 . S
C1519 C1513 1.363 . S
C1519 C1514 1.379 . S
C1519 N1517 1.356 . S
N1520 C1512 1.356 . S
N1520 H1526 0.984 . S
N1520 H1527 0.984 . S
N1521 C1514 1.356 . S
N1521 H1524 0.984 . S
N1521 H1525 0.985 . S
H1522 N1517 0.984 . S
H1523 N1517 0.985 . S
H1524 N1521 0.984 . S
H1525 N1521 0.985 . S
H1526 N1520 0.984 . S
H1527 N1520 0.984 . S
H1528 N1516 0.984 . S
H1529 N1516 0.985 . S
C559 C147 1.643 . S
C561 C207 1.639 . S
C577 C158 1.732 . S
C579 C247 1.727 . S
C595 C136 1.584 . S
C597 C286 1.557 . S
C613 C125 1.493 . S
C615 C246 1.460 . S
C633 C287 1.514 . S
C631 C103 1.516 . S
C649 C114 1.406 . S
C651 C206 1.392 1_556 S
C669 C217 1.617 . S
C667 C131 1.644 . S
C687 C257 1.606 . S
C685 C109 1.627 . S
C703 C120 1.636 . S
C705 C296 1.663 1_556 S
C721 C153 1.519 . S
C723 C256 1.528 . S
C739 C164 1.487 . S
C741 C297 1.457 . S
C759 C216 1.533 . S
C757 C142 1.501 . S
C777 C327 1.640 . S
C775 C15 1.643 . S
C793 C26 1.732 . S
C795 C367 1.727 . S
C811 C4 1.584 . S
C813 C406 1.557 . S
C829 C191 1.494 . S
C831 C366 1.454 . S
C847 C169 1.516 . S
C849 C407 1.513 . S
C865 C180 1.406 . S
C867 C326 1.392 . S
C883 C197 1.645 . S
C885 C337 1.617 . S
C901 C175 1.627 . S
C903 C377 1.606 . S
C921 C416 1.663 . S
C919 C186 1.636 . S
C937 C21 1.519 . S
C939 C376 1.528 . S
C957 C417 1.457 . S
C955 C32 1.486 1_455 S
C973 C10 1.501 . S
C975 C336 1.533 . S
C993 C447 1.639 . S
C991 C81 1.643 . S
C1009 C92 1.732 . S
C1011 C487 1.727 . S
C1029 C526 1.557 . S
C1027 C70 1.585 . S
C1047 C486 1.454 . S
C1045 C59 1.494 . S
C1065 C527 1.513 . S
C1063 C37 1.516 . S
C1081 C48 1.406 . S
C1083 C446 1.392 . S
C1099 C65 1.632 1_655 S
C1101 C457 1.617 . S
C1117 C43 1.627 . S
C1119 C497 1.606 . S
C1137 C536 1.663 . S
C1135 C54 1.636 1_545 S
C1153 C87 1.519 . S
C1155 C496 1.528 . S
C1171 C98 1.487 . S
C1173 C537 1.457 . S
C1189 C76 1.501 . S
C1191 C456 1.533 . S
C1207 C170 1.593 . S
C1209 C203 1.580 . S
C1227 C243 1.886 . S
C1225 C181 1.891 . S
C1243 C192 1.551 . S
C1245 C293 1.569 . S
C1261 C71 1.715 . S
C1263 C253 1.728 . S
C1279 C82 1.670 . S
C1281 C283 1.672 . S
C1299 C213 1.382 . S
C1297 C93 1.373 . S
C1315 C38 1.593 . S
C1317 C323 1.580 . S
C1333 C49 1.891 . S
C1335 C363 1.886 . S
C1351 C60 1.550 . S
C1353 C413 1.569 . S
C1369 C137 1.715 . S
C1371 C373 1.728 . S
C1389 C403 1.672 . S
C1387 C148 1.670 . S
C1405 C159 1.373 . S
C1407 C333 1.382 . S
C1423 C104 1.593 . S
C1425 C443 1.580 . S
C1441 C115 1.890 . S
C1443 C483 1.885 . S
C1461 C533 1.569 . S
C1459 C126 1.551 . S
C1477 C5 1.715 . S
C1479 C493 1.728 . S
C1495 C16 1.670 . S
C1497 C523 1.672 . S
C1513 C27 1.373 . S
C1515 C453 1.382 . S
