# Generated by pormake.
# Topology ctn, (3,4)-cn, num edge types: 1
# Building blocks:
#     Node 0, Type 0, BuildingBlock: ESEHIV_clean_linker_0, # of connection points: 3
#     Node 1, Type 0, BuildingBlock: ESEHIV_clean_linker_0, # of connection points: 3
#     Node 2, Type 0, BuildingBlock: ESEHIV_clean_linker_0, # of connection points: 3
#     Node 3, Type 0, BuildingBlock: ESEHIV_clean_linker_0, # of connection points: 3
#     Node 4, Type 0, BuildingBlock: ESEHIV_clean_linker_0, # of connection points: 3
#     Node 5, Type 0, BuildingBlock: ESEHIV_clean_linker_0, # of connection points: 3
#     Node 6, Type 0, BuildingBlock: ESEHIV_clean_linker_0, # of connection points: 3
#     Node 7, Type 0, BuildingBlock: ESEHIV_clean_linker_0, # of connection points: 3
#     Node 8, Type 0, BuildingBlock: ESEHIV_clean_linker_0, # of connection points: 3
#     Node 9, Type 0, BuildingBlock: ESEHIV_clean_linker_0, # of connection points: 3
#     Node 10, Type 0, BuildingBlock: ESEHIV_clean_linker_0, # of connection points: 3
#     Node 11, Type 0, BuildingBlock: ESEHIV_clean_linker_0, # of connection points: 3
#     Node 12, Type 0, BuildingBlock: ESEHIV_clean_linker_0, # of connection points: 3
#     Node 13, Type 0, BuildingBlock: ESEHIV_clean_linker_0, # of connection points: 3
#     Node 14, Type 0, BuildingBlock: ESEHIV_clean_linker_0, # of connection points: 3
#     Node 15, Type 0, BuildingBlock: ESEHIV_clean_linker_0, # of connection points: 3
#     Node 16, Type 1, BuildingBlock: AZAVOO_clean_sbu_0, # of connection points: 4
#     Node 17, Type 1, BuildingBlock: AZAVOO_clean_sbu_0, # of connection points: 4
#     Node 18, Type 1, BuildingBlock: AZAVOO_clean_sbu_0, # of connection points: 4
#     Node 19, Type 1, BuildingBlock: AZAVOO_clean_sbu_0, # of connection points: 4
#     Node 20, Type 1, BuildingBlock: AZAVOO_clean_sbu_0, # of connection points: 4
#     Node 21, Type 1, BuildingBlock: AZAVOO_clean_sbu_0, # of connection points: 4
#     Node 22, Type 1, BuildingBlock: AZAVOO_clean_sbu_0, # of connection points: 4
#     Node 23, Type 1, BuildingBlock: AZAVOO_clean_sbu_0, # of connection points: 4
#     Node 24, Type 1, BuildingBlock: AZAVOO_clean_sbu_0, # of connection points: 4
#     Node 25, Type 1, BuildingBlock: AZAVOO_clean_sbu_0, # of connection points: 4
#     Node 26, Type 1, BuildingBlock: AZAVOO_clean_sbu_0, # of connection points: 4
#     Node 27, Type 1, BuildingBlock: AZAVOO_clean_sbu_0, # of connection points: 4
#     Edge 28, Type (0, 1), BuildingBlock: TEMPAE_clean_linker_10, # of connection points: 2
#     Edge 29, Type (0, 1), BuildingBlock: TEMPAE_clean_linker_10, # of connection points: 2
#     Edge 30, Type (0, 1), BuildingBlock: TEMPAE_clean_linker_10, # of connection points: 2
#     Edge 31, Type (0, 1), BuildingBlock: TEMPAE_clean_linker_10, # of connection points: 2
#     Edge 32, Type (0, 1), BuildingBlock: TEMPAE_clean_linker_10, # of connection points: 2
#     Edge 33, Type (0, 1), BuildingBlock: TEMPAE_clean_linker_10, # of connection points: 2
#     Edge 34, Type (0, 1), BuildingBlock: TEMPAE_clean_linker_10, # of connection points: 2
#     Edge 35, Type (0, 1), BuildingBlock: TEMPAE_clean_linker_10, # of connection points: 2
#     Edge 36, Type (0, 1), BuildingBlock: TEMPAE_clean_linker_10, # of connection points: 2
#     Edge 37, Type (0, 1), BuildingBlock: TEMPAE_clean_linker_10, # of connection points: 2
#     Edge 38, Type (0, 1), BuildingBlock: TEMPAE_clean_linker_10, # of connection points: 2
#     Edge 39, Type (0, 1), BuildingBlock: TEMPAE_clean_linker_10, # of connection points: 2
#     Edge 40, Type (0, 1), BuildingBlock: TEMPAE_clean_linker_10, # of connection points: 2
#     Edge 41, Type (0, 1), BuildingBlock: TEMPAE_clean_linker_10, # of connection points: 2
#     Edge 42, Type (0, 1), BuildingBlock: TEMPAE_clean_linker_10, # of connection points: 2
#     Edge 43, Type (0, 1), BuildingBlock: TEMPAE_clean_linker_10, # of connection points: 2
#     Edge 44, Type (0, 1), BuildingBlock: TEMPAE_clean_linker_10, # of connection points: 2
#     Edge 45, Type (0, 1), BuildingBlock: TEMPAE_clean_linker_10, # of connection points: 2
#     Edge 46, Type (0, 1), BuildingBlock: TEMPAE_clean_linker_10, # of connection points: 2
#     Edge 47, Type (0, 1), BuildingBlock: TEMPAE_clean_linker_10, # of connection points: 2
#     Edge 48, Type (0, 1), BuildingBlock: TEMPAE_clean_linker_10, # of connection points: 2
#     Edge 49, Type (0, 1), BuildingBlock: TEMPAE_clean_linker_10, # of connection points: 2
#     Edge 50, Type (0, 1), BuildingBlock: TEMPAE_clean_linker_10, # of connection points: 2
#     Edge 51, Type (0, 1), BuildingBlock: TEMPAE_clean_linker_10, # of connection points: 2
#     Edge 52, Type (0, 1), BuildingBlock: TEMPAE_clean_linker_10, # of connection points: 2
#     Edge 53, Type (0, 1), BuildingBlock: TEMPAE_clean_linker_10, # of connection points: 2
#     Edge 54, Type (0, 1), BuildingBlock: TEMPAE_clean_linker_10, # of connection points: 2
#     Edge 55, Type (0, 1), BuildingBlock: TEMPAE_clean_linker_10, # of connection points: 2
#     Edge 56, Type (0, 1), BuildingBlock: TEMPAE_clean_linker_10, # of connection points: 2
#     Edge 57, Type (0, 1), BuildingBlock: TEMPAE_clean_linker_10, # of connection points: 2
#     Edge 58, Type (0, 1), BuildingBlock: TEMPAE_clean_linker_10, # of connection points: 2
#     Edge 59, Type (0, 1), BuildingBlock: TEMPAE_clean_linker_10, # of connection points: 2
#     Edge 60, Type (0, 1), BuildingBlock: TEMPAE_clean_linker_10, # of connection points: 2
#     Edge 61, Type (0, 1), BuildingBlock: TEMPAE_clean_linker_10, # of connection points: 2
#     Edge 62, Type (0, 1), BuildingBlock: TEMPAE_clean_linker_10, # of connection points: 2
#     Edge 63, Type (0, 1), BuildingBlock: TEMPAE_clean_linker_10, # of connection points: 2
#     Edge 64, Type (0, 1), BuildingBlock: TEMPAE_clean_linker_10, # of connection points: 2
#     Edge 65, Type (0, 1), BuildingBlock: TEMPAE_clean_linker_10, # of connection points: 2
#     Edge 66, Type (0, 1), BuildingBlock: TEMPAE_clean_linker_10, # of connection points: 2
#     Edge 67, Type (0, 1), BuildingBlock: TEMPAE_clean_linker_10, # of connection points: 2
#     Edge 68, Type (0, 1), BuildingBlock: TEMPAE_clean_linker_10, # of connection points: 2
#     Edge 69, Type (0, 1), BuildingBlock: TEMPAE_clean_linker_10, # of connection points: 2
#     Edge 70, Type (0, 1), BuildingBlock: TEMPAE_clean_linker_10, # of connection points: 2
#     Edge 71, Type (0, 1), BuildingBlock: TEMPAE_clean_linker_10, # of connection points: 2
#     Edge 72, Type (0, 1), BuildingBlock: TEMPAE_clean_linker_10, # of connection points: 2
#     Edge 73, Type (0, 1), BuildingBlock: TEMPAE_clean_linker_10, # of connection points: 2
#     Edge 74, Type (0, 1), BuildingBlock: TEMPAE_clean_linker_10, # of connection points: 2
#     Edge 75, Type (0, 1), BuildingBlock: TEMPAE_clean_linker_10, # of connection points: 2
# Relax obj value: 0.002
# Max RMSD: 0.042
# Mean RMSD: 0.022
data_MOF--net-ctn--node1-AZAVOO_clean_sbu_0--node2-ESEHIV_clean_linker_0--edge1-TEMPAE_clean_linker_10
_symmetry_space_group_name_H-M    P1
_symmetry_Int_Tables_number       1
_symmetry_cell_setting            triclinic
loop_
_symmetry_equiv_pos_as_xyz
'x, y, z'
_cell_length_a     51.938787
_cell_length_b     53.060141
_cell_length_c     52.962404
_cell_angle_alpha  90.158879
_cell_angle_beta   93.208259
_cell_angle_gamma 93.360219
loop_
_atom_site_label
_atom_site_type_symbol
_atom_site_fract_x
_atom_site_fract_y
_atom_site_fract_z
_atom_type_partial_charge
H0 H 0.00159 0.05137 0.02074 0.0
H1 H 0.03828 0.98338 0.04194 0.0
H2 H 0.06413 0.02722 0.97874 0.0
C3 C 0.01579 0.03769 0.01751 0.0
C4 C 0.03225 0.04134 -0.0024 0.0
C5 C 0.01805 0.01701 0.03378 0.0
C6 C 0.03658 -0.00057 0.02947 0.0
C7 C 0.0533 0.00284 0.00953 0.0
C8 C 0.05104 0.02399 -0.00621 0.0
H9 H 0.31147 0.68745 0.25387 0.0
H10 H 0.33276 0.75689 0.21677 0.0
H11 H 0.27153 0.7071 0.18413 0.0
C12 C 0.30874 0.70034 0.23829 0.0
C13 C 0.28887 0.69487 0.21958 0.0
C14 C 0.32515 0.72234 0.23714 0.0
C15 C 0.32104 0.73934 0.21721 0.0
C16 C 0.30144 0.73419 0.19821 0.0
C17 C 0.28588 0.71168 0.19933 0.0
H18 H 0.96263 0.50623 0.07594 0.0
H19 H 0.00508 0.44315 0.05471 0.0
H20 H 0.93758 0.46235 0.00973 0.0
C21 C 0.9651 0.49061 0.06326 0.0
C22 C 0.948 0.48656 0.04186 0.0
C23 C 0.98545 0.47469 0.06833 0.0
C24 C 0.98875 0.45477 0.05149 0.0
C25 C 0.97166 0.45009 0.03023 0.0
C26 C 0.9513 0.4661 0.02565 0.0
H27 H 0.68887 0.76629 0.21198 0.0
H28 H 0.74995 0.81092 0.17918 0.0
H29 H 0.71431 0.83846 0.24435 0.0
C30 C 0.70106 0.78354 0.2115 0.0
C31 C 0.69855 0.80254 0.22963 0.0
C32 C 0.71976 0.7862 0.19339 0.0
C33 C 0.73615 0.80826 0.19367 0.0
C34 C 0.73481 0.82703 0.21227 0.0
C35 C 0.7157 0.82409 0.23002 0.0
H36 H -0.00079 0.94933 0.45902 0.0
H37 H 0.04705 0.01527 0.44276 0.0
H38 H 0.0665 0.96971 0.50739 0.0
C39 C 0.01586 0.96202 0.46388 0.0
C40 C 0.03235 0.95677 0.48497 0.0
C41 C 0.021 0.98309 0.44856 0.0
C42 C 0.04284 -0.00072 0.4548 0.0
C43 C 0.0594 -0.00513 0.47611 0.0
C44 C 0.05385 0.97353 0.4911 0.0
H45 H 0.1737 0.74221 0.77052 0.0
H46 H 0.2405 0.70527 0.79861 0.0
H47 H 0.195 0.67397 0.73449 0.0
C48 C 0.18612 0.7266 0.76932 0.0
C49 C 0.18164 0.70841 0.74989 0.0
C50 C 0.20709 0.72532 0.787 0.0
C51 C 0.22409 0.70593 0.7851 0.0
C52 C 0.22 0.68737 0.76611 0.0
C53 C 0.19861 0.68866 0.7487 0.0
H54 H 0.93298 0.52232 0.48971 0.0
H55 H -0.00089 0.54369 0.4481 0.0
H56 H 0.95079 0.47811 0.42519 0.0
C57 C 0.94484 0.51896 0.474 0.0
C58 C 0.9388 0.49812 0.45778 0.0
C59 C 0.96648 0.53543 0.47055 0.0
C60 C 0.98272 0.53064 0.45106 0.0
C61 C 0.97735 0.50986 0.43468 0.0
C62 C 0.9552 0.49387 0.43803 0.0
H63 H 0.75472 0.7782 0.80603 0.0
H64 H 0.79816 0.80869 0.74533 0.0
H65 H 0.8212 0.74117 0.78335 0.0
C66 C 0.77047 0.77697 0.79355 0.0
C67 C 0.78766 0.75764 0.7969 0.0
C68 C 0.77432 0.79555 0.77515 0.0
C69 C 0.79518 0.79427 0.75951 0.0
C70 C 0.81214 0.77458 0.76203 0.0
C71 C 0.80838 0.7565 0.78109 0.0
H72 H 0.25734 0.28207 0.31008 0.0
H73 H 0.30157 0.30821 0.24802 0.0
H74 H 0.32202 0.24138 0.28857 0.0
C75 C 0.27305 0.27984 0.29776 0.0
C76 C 0.28921 0.25973 0.30164 0.0
C77 C 0.27729 0.29733 0.2784 0.0
C78 C 0.29816 0.29475 0.263 0.0
C79 C 0.31419 0.27443 0.26634 0.0
C80 C 0.3094 0.25679 0.28553 0.0
H81 H 0.47216 0.00754 0.57386 0.0
H82 H 0.51618 0.94585 0.5518 0.0
H83 H 0.44814 0.96403 0.50713 0.0
C84 C 0.47506 0.99222 0.56094 0.0
C85 C 0.45797 0.98801 0.53957 0.0
C86 C 0.49587 0.9768 0.56576 0.0
C87 C 0.49962 0.95719 0.5487 0.0
C88 C 0.48259 0.9524 0.52744 0.0
C89 C 0.46181 0.96794 0.52306 0.0
H90 H 0.18693 0.26356 0.70921 0.0
H91 H 0.25087 0.30849 0.68116 0.0
H92 H 0.2085 0.33657 0.74165 0.0
C93 C 0.19935 0.28071 0.70959 0.0
C94 C 0.19513 0.29987 0.72696 0.0
C95 C 0.21932 0.28359 0.69278 0.0
C96 C 0.2354 0.30592 0.69397 0.0
C97 C 0.23192 0.32495 0.71177 0.0
C98 C 0.21152 0.3219 0.72802 0.0
H99 H 0.8178 0.18643 0.75295 0.0
H100 H 0.84249 0.25072 0.70971 0.0
H101 H 0.76822 0.21237 0.69199 0.0
C102 C 0.814 0.19952 0.73771 0.0
C103 C 0.79095 0.19654 0.72252 0.0
C104 C 0.83221 0.21949 0.73361 0.0
C105 C 0.82783 0.23603 0.71338 0.0
C106 C 0.80507 0.23322 0.69765 0.0
C107 C 0.78648 0.21384 0.70295 0.0
H108 H 0.48807 0.54505 0.51713 0.0
H109 H 0.53078 0.48164 0.54118 0.0
H110 H 0.55386 0.52535 0.47697 0.0
C111 C 0.50333 0.53243 0.51416 0.0
C112 C 0.52037 0.53743 0.4949 0.0
C113 C 0.50712 0.51242 0.53091 0.0
C114 C 0.52757 0.49675 0.52784 0.0
C115 C 0.54441 0.50111 0.50822 0.0
C116 C 0.54076 0.52161 0.49194 0.0
H117 H 0.49987 0.44554 0.96017 0.0
H118 H 0.54708 0.51056 0.93908 0.0
H119 H 0.57196 0.46497 0.00158 0.0
C120 C 0.51733 0.45765 0.96291 0.0
C121 C 0.53554 0.45239 0.9826 0.0
C122 C 0.52138 0.47834 0.94673 0.0
C123 C 0.54358 0.49457 0.95133 0.0
C124 C 0.56156 0.49028 0.97149 0.0
C125 C 0.5575 0.469 0.98684 0.0
H126 H 0.66885 0.23747 0.27857 0.0
H127 H 0.73589 0.19871 0.30365 0.0
H128 H 0.69565 0.1786 0.23242 0.0
C129 C 0.68243 0.22315 0.27554 0.0
C130 C 0.67958 0.20808 0.2536 0.0
C131 C 0.70282 0.2199 0.29352 0.0
C132 C 0.72031 0.20129 0.28958 0.0
C133 C 0.71808 0.18629 0.26754 0.0
C134 C 0.69759 0.18988 0.24959 0.0
H135 H 0.43378 0.02264 0.99138 0.0
H136 H 0.49505 0.05022 0.94604 0.0
H137 H 0.45433 0.97879 0.92779 0.0
C138 C 0.44585 0.01992 0.97567 0.0
C139 C 0.4413 -0.00141 0.95989 0.0
C140 C 0.4653 0.03838 0.97075 0.0
C141 C 0.48043 0.03555 0.94995 0.0
C142 C 0.47676 0.01402 0.93428 0.0
C143 C 0.45707 -0.00433 0.93942 0.0
Mg144 Mg 0.23737 0.84929 0.0013 0.0
O145 O 0.27576 0.87164 -0.0057 0.0
O146 O 0.30591 0.8432 -0.0051 0.0
Mg147 Mg 0.28797 0.80397 0.00349 0.0
C148 C 0.29916 0.86587 0.99237 0.0
C149 C 0.18893 0.87629 0.99156 0.0
O150 O 0.18193 0.8527 -0.00347 0.0
O151 O 0.23561 0.83331 0.9609 0.0
O152 O 0.26454 0.80376 0.96545 0.0
O153 O 0.24436 0.85392 0.04329 0.0
O154 O 0.25692 0.82204 0.02124 0.0
C155 C 0.24727 0.81484 0.95223 0.0
C156 C 0.25624 0.83317 0.04274 0.0
O157 O 0.2129 0.8823 0.9903 0.0
Mg158 Mg 0.14977 0.50111 0.26667 0.0
O159 O 0.12375 0.49828 0.22968 0.0
O160 O 0.15029 0.49873 0.19787 0.0
Mg161 Mg 0.19221 0.50322 0.21336 0.0
C162 C 0.12758 0.49744 0.20604 0.0
C163 C 0.09902 0.507 0.29309 0.0
O164 O 0.10152 0.52793 0.28004 0.0
O165 O 0.16088 0.46019 0.26242 0.0
O166 O 0.18827 0.46387 0.23127 0.0
O167 O 0.15143 0.54337 0.26625 0.0
O168 O 0.17898 0.52046 0.2476 0.0
C169 C 0.17675 0.45076 0.24792 0.0
C170 C 0.17118 0.5424 0.25256 0.0
O171 O 0.1154 0.49034 0.29074 0.0
Mg172 Mg 0.76681 0.64502 0.01406 0.0
O173 O 0.72839 0.62127 0.00731 0.0
O174 O 0.69739 0.64868 0.00334 0.0
Mg175 Mg 0.71495 0.68904 0.00918 0.0
C176 C 0.70466 0.62609 0.00347 0.0
C177 C 0.81478 0.61604 0.01268 0.0
O178 O 0.82257 0.63937 0.01885 0.0
O179 O 0.76579 0.65683 0.97223 0.0
O180 O 0.73647 0.68611 0.97278 0.0
O181 O 0.76267 0.64548 0.05619 0.0
O182 O 0.74808 0.67416 0.03001 0.0
C183 C 0.75326 0.67429 0.96146 0.0
C184 C 0.75066 0.66599 0.05274 0.0
O185 O 0.79078 0.61103 0.0077 0.0
Mg186 Mg 0.89726 0.02729 0.23177 0.0
O187 O 0.87095 0.99093 0.2272 0.0
O188 O 0.89634 0.95874 0.22235 0.0
Mg189 Mg 0.93833 0.97429 0.22253 0.0
C190 C 0.87415 0.96748 0.22413 0.0
C191 C 0.85569 0.06643 0.23003 0.0
O192 O 0.86761 0.07052 0.20907 0.0
O193 O 0.91028 0.01613 0.27231 0.0
O194 O 0.936 0.98498 0.26431 0.0
O195 O 0.89602 0.03218 0.18963 0.0
O196 O 0.92551 0.01144 0.21101 0.0
C197 C 0.92571 -0.00063 0.27979 0.0
C198 C 0.91614 0.01893 0.18952 0.0
O199 O 0.86328 0.0491 0.24477 0.0
Mg200 Mg 0.27233 0.14218 0.51511 0.0
O201 O 0.23432 0.11731 0.50998 0.0
O202 O 0.20195 0.14351 0.50812 0.0
Mg203 Mg 0.21886 0.18424 0.50923 0.0
C204 C 0.21027 0.12136 0.50822 0.0
C205 C 0.32089 0.11407 0.51378 0.0
O206 O 0.32834 0.13765 0.51923 0.0
O207 O 0.27014 0.15199 0.47309 0.0
O208 O 0.23783 0.1782 0.4715 0.0
O209 O 0.26893 0.14409 0.55711 0.0
O210 O 0.25325 0.17164 0.53013 0.0
C211 C 0.25533 0.16667 0.46087 0.0
C212 C 0.25636 0.16419 0.55311 0.0
O213 O 0.29689 0.1085 0.50949 0.0
Mg214 Mg 0.39344 0.52465 0.73229 0.0
O215 O 0.36891 0.48722 0.72753 0.0
O216 O 0.39609 0.45724 0.72015 0.0
Mg217 Mg 0.43709 0.47528 0.71779 0.0
C218 C 0.37334 0.46415 0.72345 0.0
C219 C 0.3626 0.56821 0.74956 0.0
O220 O 0.3849 0.57917 0.74399 0.0
O221 O 0.40943 0.51226 0.77147 0.0
O222 O 0.43865 0.48566 0.75999 0.0
O223 O 0.3891 0.53265 0.69074 0.0
O224 O 0.42028 0.51113 0.70847 0.0
C225 C 0.42802 0.49806 0.77689 0.0
C226 C 0.40913 0.51968 0.68824 0.0
O227 O 0.3597 0.54427 0.74811 0.0
Mg228 Mg 0.73338 0.3496 0.50437 0.0
O229 O 0.76973 0.37499 0.49613 0.0
O230 O 0.80314 0.34997 0.4983 0.0
Mg231 Mg 0.78853 0.30931 0.505 0.0
C232 C 0.79384 0.37155 0.49519 0.0
C233 C 0.6921 0.38647 0.51167 0.0
O234 O 0.69488 0.3745 0.53322 0.0
O235 O 0.73181 0.3336 0.46426 0.0
O236 O 0.76519 0.30871 0.46654 0.0
O237 O 0.74088 0.35468 0.54609 0.0
O238 O 0.75631 0.3242 0.52409 0.0
C239 C 0.74598 0.31783 0.45429 0.0
C240 C 0.75477 0.3353 0.54554 0.0
O241 O 0.706 0.38077 0.49368 0.0
Mg242 Mg 0.65098 0.00265 0.77024 0.0
O243 O 0.62756 0.00032 0.73182 0.0
O244 O 0.65603 0.00177 0.70169 0.0
Mg245 Mg 0.69694 0.0051 0.72003 0.0
C246 C 0.6328 0.00022 0.70851 0.0
C247 C 0.59753 0.00833 0.79195 0.0
O248 O 0.60018 0.02864 0.77799 0.0
O249 O 0.66174 0.96149 0.76638 0.0
O250 O 0.69053 0.96536 0.73646 0.0
O251 O 0.6529 0.04502 0.76918 0.0
O252 O 0.68209 0.02157 0.75387 0.0
C253 C 0.67791 0.95205 0.7522 0.0
C254 C 0.67406 0.04366 0.7576 0.0
O255 O 0.61475 0.99224 0.79168 0.0
Mg256 Mg 0.02975 0.25513 0.89836 0.0
O257 O 0.99306 0.24756 0.87225 0.0
O258 O 0.96197 0.23262 0.89663 0.0
Mg259 Mg 0.97815 0.23082 0.93752 0.0
C260 C 0.96981 0.23918 0.87505 0.0
C261 C 0.05109 0.26804 0.84437 0.0
O262 O 0.05129 0.27831 0.86686 0.0
O263 O 0.01356 0.29069 0.91406 0.0
O264 O 0.98315 0.27425 0.93853 0.0
O265 O 0.04045 0.21538 0.89315 0.0
O266 O 0.01694 0.22805 0.92374 0.0
C267 C 0.99585 0.29321 0.92953 0.0
C268 C 0.02718 0.20985 0.91258 0.0
O269 O 0.05085 0.27745 0.86654 0.0
Mg270 Mg 0.52811 0.75135 0.39714 0.0
O271 O 0.49111 0.74747 0.37108 0.0
O272 O 0.45838 0.73637 0.39542 0.0
Mg273 Mg 0.47421 0.73282 0.43626 0.0
C274 C 0.46721 0.74187 0.37401 0.0
C275 C 0.57148 0.75914 0.36207 0.0
O276 O 0.57725 0.73984 0.37636 0.0
O277 O 0.51608 0.78896 0.41262 0.0
O278 O 0.48415 0.77562 0.4369 0.0
O279 O 0.53384 0.71042 0.39181 0.0
O280 O 0.51222 0.72564 0.42257 0.0
C281 C 0.49869 0.79331 0.42797 0.0
C282 C 0.52012 0.70631 0.41118 0.0
O283 O 0.55084 0.77005 0.36579 0.0
Mg284 Mg 0.98058 0.7388 0.59261 0.0
O285 O 0.01778 0.73362 0.61735 0.0
O286 O 0.04956 0.72848 0.59121 0.0
Mg287 Mg 0.03262 0.72868 0.55042 0.0
C288 C 0.04137 0.73027 0.61337 0.0
C289 C 0.9406 0.73872 0.63281 0.0
O290 O 0.93446 0.71809 0.61954 0.0
O291 O 0.99474 0.77887 0.58164 0.0
O292 O 0.02515 0.77076 0.55494 0.0
O293 O 0.97209 0.6971 0.59243 0.0
O294 O 0.9942 0.7172 0.56352 0.0
C295 C 0.01182 0.78627 0.56638 0.0
C296 C 0.98505 0.69613 0.57234 0.0
O297 O 0.95995 0.75279 0.62676 0.0
Mg298 Mg 0.47857 0.24027 0.09572 0.0
O299 O 0.51489 0.23402 0.12185 0.0
O300 O 0.54592 0.22312 0.09685 0.0
Mg301 Mg 0.53066 0.2243 0.0556 0.0
C302 C 0.53778 0.22743 0.11865 0.0
C303 C 0.45744 0.24803 0.14988 0.0
O304 O 0.47262 0.22966 0.15551 0.0
O305 O 0.49608 0.27859 0.08397 0.0
O306 O 0.52641 0.26738 0.05848 0.0
O307 O 0.46569 0.19939 0.09626 0.0
O308 O 0.49159 0.21624 0.06844 0.0
C309 C 0.51394 0.28427 0.06898 0.0
C310 C 0.47962 0.19642 0.07708 0.0
O311 O 0.45707 0.25721 0.12771 0.0
C312 C 0.23482 0.7568 0.81305 0.0
C313 C 0.21087 0.74365 0.8082 0.0
C314 C 0.23959 0.77186 0.83482 0.0
C315 C 0.22013 0.77326 0.85239 0.0
C316 C 0.1955 0.76095 0.84692 0.0
C317 C 0.19109 0.74645 0.82473 0.0
C318 C 0.26593 0.7851 0.83969 0.0
C319 C 0.17439 0.76157 0.86535 0.0
C320 C 0.24424 0.77952 0.92103 0.0
C321 C 0.24001 0.80477 0.92655 0.0
C322 C 0.23751 0.7691 0.89711 0.0
C323 C 0.22672 0.78441 0.87791 0.0
C324 C 0.22247 0.80998 0.88322 0.0
C325 C 0.2289 0.81982 0.90763 0.0
C326 C 0.24192 0.74161 0.89243 0.0
C327 C 0.21146 0.82696 0.86305 0.0
H328 H 0.25001 0.75479 0.80008 0.0
H329 H 0.17261 0.73615 0.82099 0.0
H330 H 0.26411 0.80487 0.84593 0.0
H331 H 0.27669 0.77538 0.85512 0.0
H332 H 0.27747 0.78524 0.82265 0.0
H333 H 0.15554 0.75356 0.85704 0.0
H334 H 0.17979 0.75045 0.88235 0.0
H335 H 0.17201 0.78118 0.87172 0.0
H336 H 0.25253 0.76767 0.93563 0.0
H337 H 0.22568 0.83937 0.91178 0.0
H338 H 0.25576 0.73992 0.8774 0.0
H339 H 0.22352 0.73141 0.88574 0.0
H340 H 0.24964 0.73209 0.90967 0.0
H341 H 0.22422 0.82802 0.84692 0.0
H342 H 0.20932 0.84638 0.8702 0.0
H343 H 0.19228 0.81901 0.85565 0.0
C344 C 0.98433 0.49851 0.38948 0.0
C345 C 0.99462 0.50542 0.41375 0.0
C346 C 0.00042 0.49604 0.36925 0.0
C347 C 0.02745 0.50085 0.37331 0.0
C348 C 0.03803 0.50702 0.39792 0.0
C349 C 0.02153 0.5091 0.41783 0.0
C350 C 0.98841 0.48922 0.34334 0.0
C351 C 0.06672 0.51239 0.40307 0.0
C352 C 0.07459 0.48167 0.32507 0.0
C353 C 0.07928 0.50447 0.31229 0.0
C354 C 0.05716 0.47993 0.3445 0.0
C355 C 0.04447 0.50158 0.35154 0.0
C356 C 0.04882 0.52449 0.3384 0.0
C357 C 0.06597 0.52559 0.31885 0.0
C358 C 0.0527 0.45507 0.35782 0.0
C359 C 0.03595 0.54812 0.3455 0.0
H360 H 0.96358 0.49585 0.38605 0.0
H361 H 0.02971 0.51395 0.43661 0.0
H362 H 0.99062 0.50567 0.33059 0.0
H363 H -0.00154 0.47357 0.33501 0.0
H364 H 0.96753 0.4835 0.34383 0.0
H365 H 0.07202 0.51548 0.42351 0.0
H366 H 0.07748 0.49651 0.39623 0.0
H367 H 0.07317 0.5295 0.3926 0.0
H368 H 0.08472 0.46525 0.32006 0.0
H369 H 0.0695 0.54333 0.30918 0.0
H370 H 0.03172 0.44968 0.35758 0.0
H371 H 0.05978 0.45697 0.37792 0.0
H372 H 0.06268 0.43962 0.349 0.0
H373 H 0.01466 0.54457 0.34445 0.0
H374 H 0.04093 0.56428 0.33303 0.0
H375 H 0.04191 0.55355 0.36531 0.0
C376 C 0.80507 0.73698 0.83601 0.0
C377 C 0.78466 0.73958 0.81795 0.0
C378 C 0.80141 0.72295 0.85809 0.0
C379 C 0.77687 0.71091 0.86191 0.0
C380 C 0.75678 0.71196 0.84278 0.0
C381 C 0.76082 0.72657 0.82115 0.0
C382 C 0.8232 0.72274 0.87818 0.0
C383 C 0.73051 0.69897 0.84586 0.0
C384 C 0.76969 0.66687 0.9183 0.0
C385 C 0.75939 0.68287 0.93577 0.0
C386 C 0.77525 0.67552 0.89395 0.0
C387 C 0.77101 0.70087 0.88731 0.0
C388 C 0.761 0.71711 0.90507 0.0
C389 C 0.75508 0.70785 0.92889 0.0
C390 C 0.7854 0.65756 0.87528 0.0
C391 C 0.75667 0.74443 0.89903 0.0
H392 H 0.82347 0.74716 0.83356 0.0
H393 H 0.74512 0.7284 0.80702 0.0
H394 H 0.81862 0.73464 0.89441 0.0
H395 H 0.8255 0.70335 0.88538 0.0
H396 H 0.84187 0.73014 0.87104 0.0
H397 H 0.7185 0.69816 0.82782 0.0
H398 H 0.73243 0.67948 0.85296 0.0
H399 H 0.7202 0.70938 0.86001 0.0
H400 H 0.77299 0.64753 0.92352 0.0
H401 H 0.74746 0.72046 0.94239 0.0
H402 H 0.80447 0.66495 0.8692 0.0
H403 H 0.77213 0.65599 0.85811 0.0
H404 H 0.78746 0.6384 0.88328 0.0
H405 H 0.77494 0.7542 0.89344 0.0
H406 H 0.7496 0.75476 0.9153 0.0
H407 H 0.74232 0.74556 0.88282 0.0
C408 C 0.97726 0.98358 0.42547 0.0
C409 C 0.00424 0.98754 0.42538 0.0
C410 C 0.96147 0.98645 0.40333 0.0
C411 C 0.97289 0.99363 0.38059 0.0
C412 C 1e-05 -0.00163 0.38055 0.0
C413 C 0.01532 -0.00489 0.40284 0.0
C414 C 0.93266 0.9811 0.40411 0.0
C415 C 0.01299 0.0061 0.35672 0.0
C416 C 0.94277 0.97437 0.31612 0.0
C417 C 0.93366 -0.00282 0.30697 0.0
C418 C 0.95423 0.97264 0.3406 0.0
C419 C 0.95697 -0.00565 0.35631 0.0
C420 C 0.94657 0.01712 0.34773 0.0
C421 C 0.93485 0.01823 0.32316 0.0
C422 C 0.96464 0.94787 0.34911 0.0
C423 C 0.9492 0.0407 0.36388 0.0
H424 H 0.96846 0.97809 0.44285 0.0
H425 H 0.03613 -0.00217 0.40239 0.0
H426 H 0.92226 -0.00272 0.39631 0.0
H427 H 0.92657 0.96441 0.39208 0.0
H428 H 0.9266 0.97734 0.4236 0.0
H429 H 0.03399 0.01091 0.36027 0.0
H430 H 0.01048 0.99048 0.34266 0.0
H431 H 0.00388 0.02268 0.34814 0.0
H432 H 0.94163 0.95793 0.3038 0.0
H433 H 0.92793 0.03593 0.31617 0.0
H434 H 0.95792 0.94275 0.36804 0.0
H435 H 0.98606 0.94976 0.35078 0.0
H436 H 0.95866 0.9322 0.3357 0.0
H437 H 0.94318 0.03653 0.38327 0.0
H438 H 0.93753 0.05592 0.35579 0.0
H439 H 0.96977 0.04776 0.36555 0.0
C440 C 0.24838 0.25818 0.66761 0.0
C441 C 0.22334 0.26344 0.67392 0.0
C442 C 0.25244 0.24044 0.64877 0.0
C443 C 0.23097 0.22708 0.6363 0.0
C444 C 0.2057 0.23144 0.64328 0.0
C445 C 0.20216 0.24976 0.66176 0.0
C446 C 0.2797 0.23659 0.64164 0.0
C447 C 0.18235 0.21723 0.63074 0.0
C448 C 0.24075 0.20409 0.56988 0.0
C449 C 0.24716 0.17908 0.57412 0.0
C450 C 0.23493 0.21971 0.58991 0.0
C451 C 0.23499 0.20996 0.61475 0.0
C452 C 0.24025 0.18437 0.61901 0.0
C453 C 0.24658 0.16928 0.59865 0.0
C454 C 0.22983 0.24699 0.58459 0.0
C455 C 0.23986 0.17314 0.64515 0.0
H456 H 0.26493 0.26808 0.67729 0.0
H457 H 0.1827 0.25379 0.66618 0.0
H458 H 0.2839 0.2164 0.64349 0.0
H459 H 0.28182 0.24183 0.62156 0.0
H460 H 0.29433 0.24803 0.65356 0.0
H461 H 0.16433 0.22082 0.64016 0.0
H462 H 0.17997 0.22298 0.61066 0.0
H463 H 0.18503 0.19664 0.63093 0.0
H464 H 0.24131 0.21186 0.551 0.0
H465 H 0.25141 0.14993 0.602 0.0
H466 H 0.24493 0.25949 0.59471 0.0
H467 H 0.21098 0.25158 0.59173 0.0
H468 H 0.22971 0.25141 0.5641 0.0
H469 H 0.25589 0.18207 0.6574 0.0
H470 H 0.2419 0.15242 0.6449 0.0
H471 H 0.22155 0.17701 0.65388 0.0
C472 C 0.46509 0.50273 0.55059 0.0
C473 C 0.49147 0.50989 0.55326 0.0
C474 C 0.4498 0.50208 0.57168 0.0
C475 C 0.46111 0.50954 0.59571 0.0
C476 C 0.48785 0.51665 0.59839 0.0
C477 C 0.50278 0.51644 0.57714 0.0
C478 C 0.42153 0.49374 0.5682 0.0
C479 C 0.50056 0.52526 0.62354 0.0
C480 C 0.41982 0.53533 0.64564 0.0
C481 C 0.41955 0.51573 0.66328 0.0
C482 C 0.43275 0.53333 0.6232 0.0
C483 C 0.44498 0.51086 0.618 0.0
C484 C 0.44339 0.49043 0.6351 0.0
C485 C 0.43102 0.49327 0.65776 0.0
C486 C 0.4345 0.55577 0.60577 0.0
C487 C 0.45545 0.46589 0.62985 0.0
H488 H 0.45647 0.49776 0.53199 0.0
H489 H 0.52317 0.52224 0.57898 0.0
H490 H 0.41666 0.47861 0.58185 0.0
H491 H 0.40955 0.50978 0.57213 0.0
H492 H 0.41621 0.48666 0.54874 0.0
H493 H 0.52154 0.53022 0.62238 0.0
H494 H 0.49116 0.54204 0.6304 0.0
H495 H 0.49806 0.51022 0.63784 0.0
H496 H 0.41107 0.55277 0.65001 0.0
H497 H 0.43042 0.47793 0.67119 0.0
H498 H 0.42773 0.55013 0.58623 0.0
H499 H 0.45496 0.56294 0.60515 0.0
H500 H 0.42294 0.5714 0.61194 0.0
H501 H 0.44953 0.45908 0.61044 0.0
H502 H 0.44997 0.45095 0.64353 0.0
H503 H 0.47679 0.4689 0.63095 0.0
C504 C 0.78708 0.2407 0.65346 0.0
C505 C 0.80064 0.25014 0.67552 0.0
C506 C 0.78148 0.25641 0.63292 0.0
C507 C 0.79059 0.28207 0.63386 0.0
C508 C 0.80523 0.29159 0.65551 0.0
C509 C 0.80968 0.27565 0.67626 0.0
C510 C 0.76532 0.24561 0.61038 0.0
C511 C 0.81592 0.31867 0.65687 0.0
C512 C 0.78927 0.31239 0.56905 0.0
C513 C 0.76626 0.32487 0.56904 0.0
C514 C 0.79848 0.29982 0.59074 0.0
C515 C 0.78374 0.29896 0.61247 0.0
C516 C 0.76092 0.31229 0.61276 0.0
C517 C 0.75271 0.32547 0.59114 0.0
C518 C 0.82342 0.28665 0.59006 0.0
C519 C 0.74422 0.31124 0.63523 0.0
H520 H 0.78068 0.22092 0.65217 0.0
H521 H 0.81992 0.28337 0.69318 0.0
H522 H 0.74788 0.25653 0.60704 0.0
H523 H 0.77644 0.24721 0.59314 0.0
H524 H 0.75905 0.22545 0.61298 0.0
H525 H 0.82905 0.32245 0.67391 0.0
H526 H 0.82665 0.32337 0.6398 0.0
H527 H 0.79986 0.33151 0.65728 0.0
H528 H 0.79993 0.31223 0.55206 0.0
H529 H 0.73479 0.33497 0.59105 0.0
H530 H 0.8192 0.26592 0.58937 0.0
H531 H 0.83581 0.29101 0.60746 0.0
H532 H 0.83438 0.29221 0.57333 0.0
H533 H 0.73616 0.29161 0.63766 0.0
H534 H 0.72794 0.32387 0.63301 0.0
H535 H 0.75588 0.31661 0.6528 0.0
C536 C 0.52282 0.00555 0.59599 0.0
C537 C 0.51384 0.98105 0.58851 0.0
C538 C 0.54082 0.00959 0.61664 0.0
C539 C 0.55018 0.98863 0.63005 0.0
C540 C 0.54067 0.96391 0.62301 0.0
C541 C 0.52259 0.96043 0.60242 0.0
C542 C 0.55042 0.03625 0.6236 0.0
C543 C 0.55015 0.94105 0.6368 0.0
C544 C 0.61704 -0.00464 0.66307 0.0
C545 C 0.61143 -0.00215 0.68857 0.0
C546 C 0.59729 0.99258 0.64393 0.0
C547 C 0.57118 0.99238 0.65029 0.0
C548 C 0.5653 -0.00483 0.67591 0.0
C549 C 0.58549 -0.00219 0.69476 0.0
C550 C 0.6044 0.98952 0.61686 0.0
C551 C 0.53769 -0.00482 0.68341 0.0
H552 H 0.51635 0.02158 0.58525 0.0
H553 H 0.51538 0.94147 0.59709 0.0
H554 H 0.54847 0.03972 0.64405 0.0
H555 H 0.57124 0.03896 0.62002 0.0
H556 H 0.53977 0.05053 0.61261 0.0
H557 H 0.53989 0.92321 0.62981 0.0
H558 H 0.57112 0.93976 0.63439 0.0
H559 H 0.54756 0.94287 0.65736 0.0
H560 H 0.63696 -0.00467 0.65799 0.0
H561 H 0.5809 -0.00021 0.71436 0.0
H562 H 0.59601 0.00448 0.60494 0.0
H563 H 0.5962 0.97109 0.60921 0.0
H564 H 0.62564 0.99045 0.61501 0.0
H565 H 0.52754 0.01018 0.67307 0.0
H566 H 0.53635 -0.00175 0.70404 0.0
H567 H 0.52732 0.9769 0.67807 0.0
C568 C 0.86096 0.24707 0.76282 0.0
C569 C 0.85536 0.2235 0.75115 0.0
C570 C 0.88106 0.2505 0.78158 0.0
C571 C 0.89611 0.22995 0.78854 0.0
C572 C 0.8913 0.20644 0.77591 0.0
C573 C 0.87081 0.20343 0.7575 0.0
C574 C 0.88533 0.27576 0.79482 0.0
C575 C 0.90716 0.18418 0.7825 0.0
C576 C 0.95891 0.24292 0.82834 0.0
C577 C 0.95117 0.23692 0.8527 0.0
C578 C 0.94126 0.2407 0.8072 0.0
C579 C 0.91527 0.23238 0.81053 0.0
C580 C 0.90736 0.22634 0.83503 0.0
C581 C 0.92536 0.22863 0.85575 0.0
C582 C 0.95041 0.2472 0.78133 0.0
C583 C 0.87979 0.21747 0.8394 0.0
H584 H 0.84887 0.26254 0.75805 0.0
H585 H 0.86662 0.18526 0.74829 0.0
H586 H 0.88044 0.27376 0.81487 0.0
H587 H 0.90595 0.2825 0.79476 0.0
H588 H 0.87334 0.29033 0.78588 0.0
H589 H 0.90264 0.16804 0.76926 0.0
H590 H 0.92807 0.18973 0.78225 0.0
H591 H 0.90336 0.17776 0.80194 0.0
H592 H 0.97879 0.24931 0.82573 0.0
H593 H 0.91909 0.22395 0.87443 0.0
H594 H 0.93928 0.26268 0.77303 0.0
H595 H 0.94687 0.23064 0.7685 0.0
H596 H 0.9713 0.25316 0.78189 0.0
H597 H 0.86646 0.2319 0.83258 0.0
H598 H 0.87669 0.21375 0.85967 0.0
H599 H 0.87446 0.1999 0.82847 0.0
C600 C 0.49392 0.90772 0.52022 0.0
C601 C 0.48616 0.93073 0.51024 0.0
C602 C 0.49683 0.88691 0.50449 0.0
C603 C 0.49146 0.88892 0.47809 0.0
C604 C 0.48386 0.91211 0.46779 0.0
C605 C 0.48144 0.93278 0.48396 0.0
C606 C 0.50509 0.86254 0.51623 0.0
C607 C 0.47777 0.9149 0.43977 0.0
C608 C 0.51716 0.83703 0.43858 0.0
C609 C 0.49599 0.81933 0.4372 0.0
C610 C 0.51569 0.86037 0.45091 0.0
C611 C 0.49239 0.8662 0.4617 0.0
C612 C 0.47049 0.84905 0.45887 0.0
C613 C 0.47262 0.82577 0.44684 0.0
C614 C 0.53951 0.87809 0.45369 0.0
C615 C 0.44514 0.85473 0.46967 0.0
H616 H 0.49718 0.90574 0.54048 0.0
H617 H 0.47583 0.95057 0.476 0.0
H618 H 0.48924 0.84767 0.51345 0.0
H619 H 0.52205 0.85592 0.50684 0.0
H620 H 0.51017 0.86457 0.53682 0.0
H621 H 0.47318 0.93448 0.4346 0.0
H622 H 0.49434 0.90951 0.42901 0.0
H623 H 0.461 0.90194 0.43371 0.0
H624 H 0.53529 0.83212 0.43122 0.0
H625 H 0.45607 0.81229 0.44553 0.0
H626 H 0.54687 0.87866 0.47378 0.0
H627 H 0.5348 0.89756 0.44838 0.0
H628 H 0.55514 0.87214 0.44191 0.0
H629 H 0.44729 0.85462 0.49063 0.0
H630 H 0.42929 0.84071 0.46352 0.0
H631 H 0.43949 0.87381 0.4639 0.0
C632 C 0.17073 0.27498 0.75875 0.0
C633 C 0.17355 0.29675 0.74404 0.0
C634 C 0.15024 0.27159 0.77481 0.0
C635 C 0.13188 0.29024 0.7758 0.0
C636 C 0.13455 0.3122 0.76082 0.0
C637 C 0.15553 0.31531 0.74527 0.0
C638 C 0.14834 0.24812 0.79083 0.0
C639 C 0.11513 0.33227 0.76105 0.0
C640 C 0.06763 0.26782 0.80145 0.0
C641 C 0.07062 0.27644 0.82648 0.0
C642 C 0.08699 0.27305 0.7844 0.0
C643 C 0.1101 0.28678 0.79282 0.0
C644 C 0.11298 0.29604 0.81798 0.0
C645 C 0.09313 0.29092 0.83447 0.0
C646 C 0.08302 0.26324 0.75759 0.0
C647 C 0.13748 0.31041 0.82779 0.0
H648 H 0.1848 0.26073 0.75791 0.0
H649 H 0.15761 0.33203 0.73368 0.0
H650 H 0.1485 0.25344 0.81112 0.0
H651 H 0.12982 0.23723 0.78607 0.0
H652 H 0.16445 0.23567 0.78816 0.0
H653 H 0.11975 0.34801 0.74795 0.0
H654 H 0.09555 0.32385 0.75556 0.0
H655 H 0.11445 0.3401 0.78042 0.0
H656 H 0.05029 0.25656 0.79533 0.0
H657 H 0.09572 0.29745 0.85391 0.0
H658 H 0.09694 0.24864 0.75433 0.0
H659 H 0.0868 0.27872 0.744 0.0
H660 H 0.06315 0.25481 0.75344 0.0
H661 H 0.15394 0.29803 0.82732 0.0
H662 H 0.1362 0.31731 0.84748 0.0
H663 H 0.14188 0.32682 0.81551 0.0
C664 C 0.53999 0.57727 0.47765 0.0
C665 C 0.5183 0.56055 0.47952 0.0
C666 C 0.53813 0.60027 0.46496 0.0
C667 C 0.51405 0.60654 0.45354 0.0
C668 C 0.49222 0.58939 0.45471 0.0
C669 C 0.49455 0.56665 0.46795 0.0
C670 C 0.56179 0.61821 0.46445 0.0
C671 C 0.46638 0.59524 0.44235 0.0
C672 C 0.50703 0.67676 0.44532 0.0
C673 C 0.51485 0.68046 0.42063 0.0
C674 C 0.50561 0.65257 0.45594 0.0
C675 C 0.51175 0.63157 0.44135 0.0
C676 C 0.51806 0.635 0.41589 0.0
C677 C 0.51977 0.65947 0.40589 0.0
C678 C 0.49908 0.64974 0.48326 0.0
C679 C 0.52418 0.61299 0.39958 0.0
H680 H 0.55827 0.57271 0.4869 0.0
H681 H 0.4778 0.55364 0.46932 0.0
H682 H 0.56605 0.62278 0.44464 0.0
H683 H 0.55813 0.63619 0.47401 0.0
H684 H 0.57912 0.6103 0.47394 0.0
H685 H 0.45178 0.57919 0.44354 0.0
H686 H 0.45904 0.61196 0.4516 0.0
H687 H 0.46847 0.6 0.42215 0.0
H688 H 0.50325 0.69292 0.45682 0.0
H689 H 0.52561 0.66222 0.38671 0.0
H690 H 0.51628 0.64387 0.49465 0.0
H691 H 0.48348 0.63479 0.48513 0.0
H692 H 0.49286 0.66757 0.49138 0.0
H693 H 0.54291 0.60575 0.40642 0.0
H694 H 0.52548 0.61835 0.37941 0.0
H695 H 0.50922 0.59732 0.40092 0.0
C696 C 0.85763 0.76487 0.75304 0.0
C697 C 0.83327 0.7725 0.74434 0.0
C698 C 0.87702 0.76112 0.73618 0.0
C699 C 0.87203 0.76524 0.71001 0.0
C700 C 0.84786 0.77389 0.70124 0.0
C701 C 0.82877 0.77728 0.71847 0.0
C702 C 0.90252 0.75186 0.74627 0.0
C703 C 0.84177 0.77857 0.6735 0.0
C704 C 0.92665 0.76963 0.66475 0.0
C705 C 0.92444 0.74545 0.65376 0.0
C706 C 0.91005 0.7763 0.68348 0.0
C707 C 0.89101 0.7583 0.69149 0.0
C708 C 0.88926 0.73368 0.68096 0.0
C709 C 0.9059 0.72761 0.66221 0.0
C710 C 0.9124 0.80277 0.6942 0.0
C711 C 0.8694 0.71383 0.68911 0.0
H712 H 0.86147 0.76158 0.77305 0.0
H713 H 0.80995 0.78287 0.71147 0.0
H714 H 0.9047 0.73248 0.73907 0.0
H715 H 0.91877 0.76404 0.73948 0.0
H716 H 0.90414 0.7515 0.76727 0.0
H717 H 0.82305 0.78744 0.67004 0.0
H718 H 0.85727 0.79097 0.66564 0.0
H719 H 0.84087 0.76041 0.66295 0.0
H720 H 0.94091 0.78352 0.6583 0.0
H721 H 0.90417 0.70881 0.654 0.0
H722 H 0.91454 0.80223 0.71514 0.0
H723 H 0.89451 0.81249 0.68911 0.0
H724 H 0.9291 0.8141 0.68705 0.0
H725 H 0.87122 0.71138 0.70992 0.0
H726 H 0.87135 0.69525 0.67992 0.0
H727 H 0.84968 0.72 0.68429 0.0
C728 C 0.01942 0.91048 0.48725 0.0
C729 C 0.02786 0.93311 0.49974 0.0
C730 C 0.01598 0.88781 0.50054 0.0
C731 C 0.02161 0.88748 0.52699 0.0
C732 C 0.0299 0.91021 0.53984 0.0
C733 C 0.03273 0.93277 0.52611 0.0
C734 C 0.0069 0.86404 0.4861 0.0
C735 C 0.03637 0.91057 0.56799 0.0
C736 C 0.99472 0.82929 0.5608 0.0
C737 C 0.01533 0.81342 0.56005 0.0
C738 C -0.00323 0.85392 0.55104 0.0
C739 C 0.02013 0.86298 0.54073 0.0
C740 C 0.0415 0.84757 0.54145 0.0
C741 C 0.03877 0.82293 0.55087 0.0
C742 C 0.97345 0.86964 0.55036 0.0
C743 C 0.06693 0.85665 0.53115 0.0
H744 H 0.01609 0.91028 0.46687 0.0
H745 H 0.03888 0.95015 0.53606 0.0
H746 H 0.0224 0.85049 0.48696 0.0
H747 H 0.98991 0.85477 0.49484 0.0
H748 H 0.00156 0.86781 0.46591 0.0
H749 H 0.04158 0.92994 0.57533 0.0
H750 H 0.01975 0.9025 0.57817 0.0
H751 H 0.05284 0.89861 0.57242 0.0
H752 H 0.97652 0.82201 0.56776 0.0
H753 H 0.05487 0.81084 0.55049 0.0
H754 H 0.96596 0.87168 0.53048 0.0
H755 H 0.97879 0.8889 0.55785 0.0
H756 H 0.9577 0.86102 0.56145 0.0
H757 H 0.06455 0.8585 0.5103 0.0
H758 H 0.08241 0.84351 0.53562 0.0
H759 H 0.07324 0.87557 0.53898 0.0
C760 C 0.16196 0.70309 0.70545 0.0
C761 C 0.15959 0.71039 0.7307 0.0
C762 C 0.14174 0.70561 0.68706 0.0
C763 C 0.11881 0.71646 0.69379 0.0
C764 C 0.11618 0.72384 0.71916 0.0
C765 C 0.13636 0.72031 0.73735 0.0
C766 C 0.14507 0.69695 0.66031 0.0
C767 C 0.09224 0.73596 0.72701 0.0
C768 C 0.08015 0.74593 0.63965 0.0
C769 C 0.0599 0.72766 0.63506 0.0
C770 C 0.09895 0.74293 0.65934 0.0
C771 C 0.09791 0.72069 0.6741 0.0
C772 C 0.07735 0.7022 0.66946 0.0
C773 C 0.05834 0.7061 0.65017 0.0
C774 C 0.12009 0.76343 0.66416 0.0
C775 C 0.07596 0.67792 0.68425 0.0
H776 H 0.17985 0.69583 0.69981 0.0
H777 H 0.13388 0.72547 0.75683 0.0
H778 H 0.12849 0.684 0.65372 0.0
H779 H 0.14542 0.71342 0.64746 0.0
H780 H 0.16319 0.6871 0.65859 0.0
H781 H 0.09331 0.7409 0.74745 0.0
H782 H 0.08946 0.75341 0.71592 0.0
H783 H 0.07494 0.72306 0.72287 0.0
H784 H 0.08122 0.76257 0.62782 0.0
H785 H 0.04274 0.6919 0.64627 0.0
H786 H 0.13904 0.75615 0.66018 0.0
H787 H 0.12111 0.76928 0.68434 0.0
H788 H 0.11705 0.78032 0.65225 0.0
H789 H 0.09334 0.66731 0.68128 0.0
H790 H 0.0585 0.66566 0.67859 0.0
H791 H 0.07585 0.68203 0.70478 0.0
C792 C 0.9516 0.57437 0.4904 0.0
C793 C 0.97151 0.55826 0.48675 0.0
C794 C 0.95605 0.59646 0.50497 0.0
C795 C 0.98094 0.60243 0.51648 0.0
C796 C 0.00107 0.58606 0.51313 0.0
C797 C 0.99617 0.56424 0.4981 0.0
C798 C 0.93414 0.61359 0.50779 0.0
C799 C 0.02772 0.59156 0.52546 0.0
C800 C 0.99475 0.67154 0.53403 0.0
C801 C 0.98778 0.67185 0.55922 0.0
C802 C 0.99362 0.64889 0.52013 0.0
C803 C 0.98571 0.62597 0.53184 0.0
C804 C 0.98018 0.62599 0.55772 0.0
C805 C 0.98108 0.64896 0.57104 0.0
C806 C -0.00055 0.6497 0.49252 0.0
C807 C 0.97216 0.6019 0.57103 0.0
H808 H 0.93261 0.56991 0.48139 0.0
H809 H 0.01153 0.55169 0.49541 0.0
H810 H 0.93027 0.61563 0.52805 0.0
H811 H 0.93958 0.6327 0.50065 0.0
H812 H 0.91603 0.60637 0.49737 0.0
H813 H 0.0411 0.57666 0.52141 0.0
H814 H 0.03602 0.6099 0.51872 0.0
H815 H 0.02655 0.59321 0.54625 0.0
H816 H -0.00012 0.68917 0.52476 0.0
H817 H 0.97586 0.64905 0.59058 0.0
H818 H 0.98149 0.64483 0.48074 0.0
H819 H 0.01351 0.63553 0.48833 0.0
H820 H 0.00735 0.66861 0.4868 0.0
H821 H 0.95274 0.59481 0.5634 0.0
H822 H 0.97141 0.60469 0.59177 0.0
H823 H 0.98574 0.58706 0.56753 0.0
C824 C 0.74682 0.87323 0.22062 0.0
C825 C 0.75399 0.84917 0.21358 0.0
C826 C 0.76507 0.89388 0.22268 0.0
C827 C 0.79099 0.89056 0.21709 0.0
C828 C 0.79826 0.8665 0.20955 0.0
C829 C 0.77981 0.8461 0.20821 0.0
C830 C 0.75669 0.91918 0.23115 0.0
C831 C 0.82565 0.86221 0.20313 0.0
C832 C 0.83575 0.94676 0.20079 0.0
C833 C 0.8515 0.94955 0.22302 0.0
C834 C 0.81551 0.92796 0.19874 0.0
C835 C 0.8108 0.912 0.21961 0.0
C836 C 0.82619 0.91551 0.24244 0.0
C837 C 0.84662 0.93408 0.24374 0.0
C838 C 0.79988 0.92451 0.17394 0.0
C839 C 0.82153 0.89922 0.26525 0.0
H840 H 0.72691 0.87599 0.22445 0.0
H841 H 0.7858 0.82757 0.20331 0.0
H842 H 0.76809 0.92542 0.24863 0.0
H843 H 0.76052 0.93359 0.21649 0.0
H844 H 0.73584 0.91862 0.23492 0.0
H845 H 0.82784 0.84269 0.19627 0.0
H846 H 0.83185 0.87567 0.18834 0.0
H847 H 0.83893 0.86575 0.22008 0.0
H848 H 0.83983 0.95872 0.18476 0.0
H849 H 0.85897 0.93639 0.26089 0.0
H850 H 0.77896 0.92491 0.17702 0.0
H851 H 0.8031 0.90576 0.16573 0.0
H852 H 0.80509 0.93929 0.16 0.0
H853 H 0.80094 0.89911 0.26983 0.0
H854 H 0.83374 0.90578 0.28216 0.0
H855 H 0.82579 0.87945 0.26104 0.0
C856 C 0.72983 0.14341 0.25306 0.0
C857 C 0.7375 0.16736 0.26313 0.0
C858 C 0.7481 0.12563 0.2485 0.0
C859 C 0.77468 0.13191 0.25418 0.0
C860 C 0.7825 0.15589 0.26468 0.0
C861 C 0.76386 0.17332 0.26895 0.0
C862 C 0.739 0.10027 0.23725 0.0
C863 C 0.81064 0.16339 0.27092 0.0
C864 C 0.82307 0.08055 0.25972 0.0
C865 C 0.83419 0.08224 0.23619 0.0
C866 C 0.80337 0.09631 0.26575 0.0
C867 C 0.79452 0.11405 0.24779 0.0
C868 C 0.80533 0.11545 0.22386 0.0
C869 C 0.82501 0.09961 0.21839 0.0
C870 C 0.79236 0.09431 0.29149 0.0
C871 C 0.7964 0.13401 0.20412 0.0
H872 H 0.70949 0.13851 0.24883 0.0
H873 H 0.77004 0.19188 0.27638 0.0
H874 H 0.74711 0.09804 0.21849 0.0
H875 H 0.74608 0.08489 0.24945 0.0
H876 H 0.7176 0.09791 0.23488 0.0
H877 H 0.81341 0.18221 0.28026 0.0
H878 H 0.8194 0.1492 0.28357 0.0
H879 H 0.82132 0.16389 0.25335 0.0
H880 H 0.83002 0.06719 0.27358 0.0
H881 H 0.83333 0.101 0.2001 0.0
H882 H 0.77106 0.09091 0.28949 0.0
H883 H 0.79643 0.11238 0.30195 0.0
H884 H 0.80055 0.07888 0.30295 0.0
H885 H 0.77522 0.13123 0.20013 0.0
H886 H 0.8061 0.13209 0.1861 0.0
H887 H 0.80038 0.15358 0.21132 0.0
C888 C 0.41494 0.97202 0.98933 0.0
C889 C 0.41987 0.97958 0.9646 0.0
C890 C 0.39466 0.95426 -0.00599 0.0
C891 C 0.379 0.94367 0.97347 0.0
C892 C 0.38377 0.9513 0.94848 0.0
C893 C 0.40409 0.96919 0.94436 0.0
C894 C 0.39022 0.94659 0.02093 0.0
C895 C 0.36752 0.94042 0.92608 0.0
C896 C 0.34465 0.87956 0.98312 0.0
C897 C 0.31934 0.88596 0.98722 0.0
C898 C 0.36413 0.89813 0.97852 0.0
C899 C 0.3583 0.92384 0.97806 0.0
C900 C 0.33283 0.93052 0.98209 0.0
C901 C 0.31364 0.9115 0.98657 0.0
C902 C 0.39102 0.89022 0.9742 0.0
C903 C 0.32592 0.95776 0.98181 0.0
H904 H 0.4272 0.97972 0.00506 0.0
H905 H 0.40748 0.97523 0.92523 0.0
H906 H 0.36999 0.9496 0.02535 0.0
H907 H 0.39315 0.92617 0.02329 0.0
H908 H 0.40342 0.95735 0.03484 0.0
H909 H 0.3734 0.94873 0.9079 0.0
H910 H 0.36915 0.91969 0.92518 0.0
H911 H 0.34688 0.94377 0.92825 0.0
H912 H 0.34933 0.85992 0.98349 0.0
H913 H 0.2942 0.9167 0.98974 0.0
H914 H 0.40498 0.89901 0.98872 0.0
H915 H 0.39704 0.89695 0.95549 0.0
H916 H 0.39234 0.86941 0.97494 0.0
H917 H 0.33785 0.96858 -0.00337 0.0
H918 H 0.30521 0.95982 0.98511 0.0
H919 H 0.33023 0.96641 0.96336 0.0
C920 C 0.23312 0.31365 0.27211 0.0
C921 C 0.26 0.31841 0.27444 0.0
C922 C 0.21655 0.33342 0.26798 0.0
C923 C 0.22714 0.35855 0.26662 0.0
C924 C 0.25428 0.36345 0.26943 0.0
C925 C 0.27039 0.34328 0.27306 0.0
C926 C 0.1878 0.32739 0.26458 0.0
C927 C 0.26634 0.39001 0.26852 0.0
C928 C 0.19339 0.41087 0.23211 0.0
C929 C 0.18477 0.42476 0.25222 0.0
C930 C 0.20571 0.38832 0.23642 0.0
C931 C 0.21011 0.3798 0.26151 0.0
C932 C 0.20024 0.39304 0.28177 0.0
C933 C 0.18739 0.41525 0.27684 0.0
C934 C 0.2153 0.37441 0.21421 0.0
C935 C 0.20482 0.38477 0.30882 0.0
H936 H 0.2251 0.29436 0.27302 0.0
H937 H 0.29116 0.34698 0.27513 0.0
H938 H 0.17756 0.338 0.27862 0.0
H939 H 0.18066 0.33344 0.24554 0.0
H940 H 0.18261 0.30692 0.26666 0.0
H941 H 0.28763 0.39071 0.27224 0.0
H942 H 0.26204 0.3983 0.24966 0.0
H943 H 0.25793 0.40205 0.28272 0.0
H944 H 0.19125 0.41811 0.21303 0.0
H945 H 0.18099 0.42607 0.29247 0.0
H946 H 0.20981 0.35393 0.21533 0.0
H947 H 0.2367 0.37653 0.21464 0.0
H948 H 0.20752 0.38164 0.19583 0.0
H949 H 0.19951 0.36435 0.31076 0.0
H950 H 0.19368 0.39549 0.32209 0.0
H951 H 0.22568 0.38771 0.3145 0.0
C952 C 0.08206 0.03824 0.47718 0.0
C953 C 0.08269 0.01228 0.48224 0.0
C954 C 0.10401 0.05468 0.48168 0.0
C955 C 0.12703 0.04527 0.4925 0.0
C956 C 0.12774 0.0193 0.49833 0.0
C957 C 0.10576 0.00307 0.49273 0.0
C958 C 0.10256 0.08217 0.47469 0.0
C959 C 0.1517 0.00866 0.51054 0.0
C960 C 0.18938 0.08486 0.48376 0.0
C961 C 0.19109 0.09986 0.50562 0.0
C962 C 0.16889 0.06657 0.47943 0.0
C963 C 0.15022 0.0628 0.49781 0.0
C964 C 0.15277 0.0771 0.52053 0.0
C965 C 0.17291 0.09585 0.52393 0.0
C966 C 0.16647 0.05228 0.45465 0.0
C967 C 0.1338 0.07312 0.54095 0.0
H968 H 0.06432 0.04588 0.46973 0.0
H969 H 0.10687 0.98307 0.49634 0.0
H970 H 0.10551 0.09415 0.49192 0.0
H971 H 0.11817 0.08782 0.46201 0.0
H972 H 0.08371 0.0862 0.46505 0.0
H973 H 0.14871 0.98831 0.51509 0.0
H974 H 0.16786 0.01099 0.49776 0.0
H975 H 0.1577 0.01919 0.52823 0.0
H976 H 0.20335 0.08831 0.46951 0.0
H977 H 0.17434 0.10757 0.54081 0.0
H978 H 0.14862 0.0573 0.44378 0.0
H979 H 0.16474 0.03166 0.45804 0.0
H980 H 0.18323 0.05655 0.4429 0.0
H981 H 0.11467 0.07946 0.53416 0.0
H982 H 0.14015 0.08369 0.55856 0.0
H983 H 0.13122 0.05275 0.54547 0.0
C984 C 0.75814 0.16274 0.70627 0.0
C985 C 0.77165 0.17525 0.72684 0.0
C986 C 0.74044 0.14225 0.70996 0.0
C987 C 0.73655 0.13361 0.73478 0.0
C988 C 0.74986 0.14625 0.75564 0.0
C989 C 0.76701 0.16705 0.75144 0.0
C990 C 0.72633 0.12949 0.68725 0.0
C991 C 0.74646 0.13741 0.7824 0.0
C992 C 0.67844 0.0902 0.74945 0.0
C993 C 0.68912 0.06653 0.74971 0.0
C994 C 0.69342 0.11218 0.74383 0.0
C995 C 0.71978 0.11044 0.73889 0.0
C996 C 0.7305 0.08653 0.73872 0.0
C997 C 0.71498 0.06487 0.7439 0.0
C998 C 0.68118 0.1373 0.7436 0.0
C999 C 0.75862 0.0839 0.7339 0.0
H1000 H 0.76179 0.16859 0.68715 0.0
H1001 H 0.77686 0.17685 0.76751 0.0
H1002 H 0.73278 0.11006 0.68521 0.0
H1003 H 0.70525 0.12786 0.68986 0.0
H1004 H 0.72974 0.13988 0.66944 0.0
H1005 H 0.75785 0.14958 0.79658 0.0
H1006 H 0.7258 0.13717 0.78671 0.0
H1007 H 0.75259 0.1178 0.78447 0.0
H1008 H 0.65843 0.09156 0.75383 0.0
H1009 H 0.72342 0.04665 0.74424 0.0
H1010 H 0.68446 0.14716 0.72551 0.0
H1011 H 0.69032 0.14953 0.75902 0.0
H1012 H 0.66006 0.13524 0.74609 0.0
H1013 H 0.76313 0.09226 0.71538 0.0
H1014 H 0.76383 0.06389 0.73398 0.0
H1015 H 0.771 0.09439 0.74863 0.0
C1016 C 0.43033 0.01311 0.50978 0.0
C1017 C 0.43617 0.00462 0.53441 0.0
C1018 C 0.41048 0.02959 0.50478 0.0
C1019 C 0.39618 0.03787 0.52489 0.0
C1020 C 0.40156 0.0289 0.54968 0.0
C1021 C 0.42145 0.01238 0.55413 0.0
C1022 C 0.40535 0.03872 0.47809 0.0
C1023 C 0.38672 0.03726 0.57164 0.0
C1024 C 0.36634 0.10138 0.51998 0.0
C1025 C 0.3401 0.09441 0.51476 0.0
C1026 C 0.38477 0.08317 0.52285 0.0
C1027 C 0.37685 0.05727 0.52041 0.0
C1028 C 0.3505 0.05006 0.51449 0.0
C1029 C 0.3324 0.06873 0.51175 0.0
C1030 C 0.41268 0.09168 0.5291 0.0
C1031 C 0.34136 0.02262 0.5116 0.0
H1032 H 0.44175 0.0074 0.49447 0.0
H1033 H 0.42553 0.00555 0.57312 0.0
H1034 H 0.38455 0.03564 0.4723 0.0
H1035 H 0.41027 0.05932 0.47719 0.0
H1036 H 0.41679 0.02902 0.46429 0.0
H1037 H 0.39235 0.02754 0.58949 0.0
H1038 H 0.39021 0.05791 0.57459 0.0
H1039 H 0.36568 0.03351 0.56744 0.0
H1040 H 0.37253 0.12116 0.52226 0.0
H1041 H 0.31218 0.06317 0.5077 0.0
H1042 H 0.42517 0.08403 0.51495 0.0
H1043 H 0.41906 0.0842 0.54782 0.0
H1044 H 0.41581 0.11257 0.52956 0.0
H1045 H 0.35253 0.01331 0.49735 0.0
H1046 H 0.32048 0.02017 0.50578 0.0
H1047 H 0.3448 0.01271 0.52979 0.0
C1048 C 0.59143 0.49605 0.50273 0.0
C1049 C 0.56654 0.48503 0.50551 0.0
C1050 C 0.61277 0.4811 0.50151 0.0
C1051 C 0.60906 0.4545 0.50288 0.0
C1052 C 0.58383 0.44326 0.50484 0.0
C1053 C 0.5629 0.45867 0.5063 0.0
C1054 C 0.63938 0.49382 0.49978 0.0
C1055 C 0.57904 0.41496 0.50613 0.0
C1056 C 0.66201 0.41214 0.48487 0.0
C1057 C 0.67238 0.40545 0.50876 0.0
C1058 C 0.64159 0.42845 0.48254 0.0
C1059 C 0.6317 0.43851 0.5046 0.0
C1060 C 0.64283 0.43254 0.52867 0.0
C1061 C 0.66288 0.41598 0.53044 0.0
C1062 C 0.63006 0.43427 0.45657 0.0
C1063 C 0.63317 0.44317 0.55265 0.0
H1064 H 0.59435 0.51644 0.50234 0.0
H1065 H 0.54363 0.45011 0.50815 0.0
H1066 H 0.65116 0.49051 0.51747 0.0
H1067 H 0.64937 0.48561 0.48401 0.0
H1068 H 0.63876 0.51451 0.49688 0.0
H1069 H 0.55812 0.40914 0.5055 0.0
H1070 H 0.58792 0.40574 0.4902 0.0
H1071 H 0.58824 0.40785 0.52392 0.0
H1072 H 0.66924 0.40398 0.46807 0.0
H1073 H 0.67099 0.41109 0.54897 0.0
H1074 H 0.62997 0.45498 0.45384 0.0
H1075 H 0.60966 0.42668 0.45475 0.0
H1076 H 0.64075 0.426 0.44128 0.0
H1077 H 0.63352 0.46407 0.5517 0.0
H1078 H 0.64489 0.43779 0.56977 0.0
H1079 H 0.61284 0.43624 0.55475 0.0
C1080 C 0.70944 0.26258 0.31377 0.0
C1081 C 0.70641 0.2363 0.31625 0.0
C1082 C 0.71504 0.2782 0.33508 0.0
C1083 C 0.71713 0.26723 0.35941 0.0
C1084 C 0.71316 0.24073 0.36201 0.0
C1085 C 0.70814 0.22556 0.34035 0.0
C1086 C 0.71966 0.30628 0.33149 0.0
C1087 C 0.71472 0.22833 0.38764 0.0
C1088 C 0.7578 0.29822 0.41394 0.0
C1089 C 0.73893 0.30805 0.42846 0.0
C1090 C 0.75106 0.28606 0.39074 0.0
C1091 C 0.72475 0.28313 0.38213 0.0
C1092 C 0.7057 0.29382 0.39626 0.0
C1093 C 0.71306 0.30641 0.41915 0.0
C1094 C 0.77204 0.27548 0.37595 0.0
C1095 C 0.67742 0.29078 0.3879 0.0
H1096 H 0.70832 0.27081 0.29505 0.0
H1097 H 0.70565 0.20523 0.3422 0.0
H1098 H 0.70704 0.31675 0.34349 0.0
H1099 H 0.73994 0.3121 0.33755 0.0
H1100 H 0.71605 0.31197 0.31149 0.0
H1101 H 0.70932 0.20777 0.38654 0.0
H1102 H 0.73468 0.231 0.39621 0.0
H1103 H 0.70176 0.2373 0.40051 0.0
H1104 H 0.77785 0.29964 0.42094 0.0
H1105 H 0.69838 0.31383 0.43038 0.0
H1106 H 0.77017 0.28151 0.35592 0.0
H1107 H 0.77003 0.25455 0.3761 0.0
H1108 H 0.79168 0.28156 0.38388 0.0
H1109 H 0.67434 0.29673 0.36796 0.0
H1110 H 0.66526 0.30189 0.39987 0.0
H1111 H 0.67075 0.27057 0.38889 0.0
C1112 C 0.48314 0.00072 0.88945 0.0
C1113 C 0.49352 0.01076 0.91265 0.0
C1114 C 0.4987 -0.00187 0.86882 0.0
C1115 C 0.52523 0.00606 0.87132 0.0
C1116 C 0.5359 0.01591 0.89475 0.0
C1117 C 0.51999 0.01797 0.91513 0.0
C1118 C 0.48666 0.98735 0.84422 0.0
C1119 C 0.56407 0.02471 0.89818 0.0
C1120 C 0.57405 0.98495 0.82581 0.0
C1121 C 0.57694 0.00623 0.81031 0.0
C1122 C 0.5565 0.98416 0.84512 0.0
C1123 C 0.54171 0.00525 0.84919 0.0
C1124 C 0.54386 0.02637 0.83302 0.0
C1125 C 0.56131 0.02654 0.81372 0.0
C1126 C 0.55444 0.96113 0.86172 0.0
C1127 C 0.52857 0.04931 0.8368 0.0
H1128 H 0.46268 -0.00465 0.8872 0.0
H1129 H 0.52835 0.02524 0.93309 0.0
H1130 H 0.48735 0.00201 0.82934 0.0
H1131 H 0.49776 0.97151 0.83781 0.0
H1132 H 0.46623 0.98041 0.84588 0.0
H1133 H 0.56947 0.03151 0.91773 0.0
H1134 H 0.57641 0.0091 0.89374 0.0
H1135 H 0.56842 0.04028 0.88484 0.0
H1136 H 0.58593 0.96911 0.82324 0.0
H1137 H 0.56333 0.04307 0.80186 0.0
H1138 H 0.53392 0.95437 0.86285 0.0
H1139 H 0.56201 0.9661 0.88121 0.0
H1140 H 0.56543 0.94546 0.85468 0.0
H1141 H 0.50768 0.04374 0.83708 0.0
H1142 H 0.5314 0.06361 0.82177 0.0
H1143 H 0.53454 0.05822 0.85536 0.0
C1144 C 0.2823 0.21649 0.31998 0.0
C1145 C 0.28566 0.24269 0.32341 0.0
C1146 C 0.27775 0.20048 0.3406 0.0
C1147 C 0.2771 0.21099 0.36516 0.0
C1148 C 0.28131 0.23742 0.36871 0.0
C1149 C 0.28528 0.25294 0.34776 0.0
C1150 C 0.27291 0.17248 0.33602 0.0
C1151 C 0.28125 0.24939 0.39462 0.0
C1152 C 0.24013 0.1817 0.41832 0.0
C1153 C 0.26013 0.17305 0.43429 0.0
C1154 C 0.24515 0.19232 0.39475 0.0
C1155 C 0.27089 0.19483 0.3872 0.0
C1156 C 0.29094 0.18466 0.40252 0.0
C1157 C 0.28527 0.17365 0.42583 0.0
C1158 C 0.22311 0.20237 0.37872 0.0
C1159 C 0.31867 0.18719 0.39529 0.0
H1160 H 0.28253 0.20862 0.30109 0.0
H1161 H 0.28821 0.27321 0.3504 0.0
H1162 H 0.28622 0.1618 0.34847 0.0
H1163 H 0.25294 0.16655 0.34082 0.0
H1164 H 0.27542 0.16714 0.31604 0.0
H1165 H 0.28638 0.27001 0.39432 0.0
H1166 H 0.26182 0.2464 0.40219 0.0
H1167 H 0.29515 0.24036 0.4079 0.0
H1168 H 0.22061 0.18103 0.42468 0.0
H1169 H 0.30083 0.16709 0.43814 0.0
H1170 H 0.2241 0.1965 0.3587 0.0
H1171 H 0.22459 0.22331 0.37932 0.0
H1172 H 0.20399 0.19577 0.38543 0.0
H1173 H 0.32018 0.18181 0.3752 0.0
H1174 H 0.33133 0.17538 0.40731 0.0
H1175 H 0.32597 0.2072 0.39744 0.0
C1176 C 0.49161 0.46144 0.91062 0.0
C1177 C 0.50321 0.48225 0.92432 0.0
C1178 C 0.47631 0.46469 0.8883 0.0
C1179 C 0.47305 0.48931 0.8789 0.0
C1180 C 0.48386 0.51044 0.893 0.0
C1181 C 0.49849 0.50667 0.91567 0.0
C1182 C 0.46474 0.44165 0.87408 0.0
C1183 C 0.4812 0.537 0.88346 0.0
C1184 C 0.46548 0.49329 0.80745 0.0
C1185 C 0.43903 0.49675 0.80323 0.0
C1186 C 0.47678 0.49158 0.83197 0.0
C1187 C 0.46115 0.4927 0.85294 0.0
C1188 C 0.43439 0.49629 0.84889 0.0
C1189 C 0.42367 0.49864 0.82402 0.0
C1190 C 0.50549 0.48839 0.83539 0.0
C1191 C 0.41701 0.49697 0.87075 0.0
H1192 H 0.49527 0.44245 0.91673 0.0
H1193 H 0.5067 0.52294 0.92633 0.0
H1194 H 0.44421 0.44412 0.86821 0.0
H1195 H 0.47521 0.43902 0.85666 0.0
H1196 H 0.46588 0.42423 0.88558 0.0
H1197 H 0.4887 0.55144 0.89767 0.0
H1198 H 0.49207 0.53972 0.86613 0.0
H1199 H 0.46069 0.54024 0.87825 0.0
H1200 H 0.47752 0.49217 0.79145 0.0
H1201 H 0.40321 0.50124 0.82081 0.0
H1202 H 0.50899 0.46989 0.84424 0.0
H1203 H 0.51469 0.50326 0.84825 0.0
H1204 H 0.51513 0.48936 0.81719 0.0
H1205 H 0.41697 0.47864 0.8808 0.0
H1206 H 0.39681 0.50068 0.86451 0.0
H1207 H 0.42441 0.51177 0.88457 0.0
C1208 C 0.74707 0.76022 0.16697 0.0
C1209 C 0.72251 0.76584 0.17439 0.0
C1210 C 0.75001 0.74213 0.14816 0.0
C1211 C 0.72789 0.72882 0.13683 0.0
C1212 C 0.70312 0.73355 0.14495 0.0
C1213 C 0.70069 0.75219 0.16342 0.0
C1214 C 0.77677 0.73785 0.13983 0.0
C1215 C 0.67912 0.71944 0.13361 0.0
C1216 C 0.73508 0.70566 0.07003 0.0
C1217 C 0.74173 0.68068 0.07403 0.0
C1218 C 0.72978 0.72125 0.09025 0.0
C1219 C 0.7307 0.71153 0.11511 0.0
C1220 C 0.73608 0.68594 0.11918 0.0
C1221 C 0.74181 0.67084 0.09858 0.0
C1222 C 0.72449 0.74852 0.0851 0.0
C1223 C 0.73664 0.67476 0.14536 0.0
H1224 H 0.76412 0.77011 0.17575 0.0
H1225 H 0.68159 0.75646 0.1688 0.0
H1226 H 0.78078 0.71762 0.1416 0.0
H1227 H 0.77801 0.74293 0.1196 0.0
H1228 H 0.79203 0.74921 0.15106 0.0
H1229 H 0.66169 0.72328 0.1439 0.0
H1230 H 0.67577 0.72505 0.11359 0.0
H1231 H 0.68161 0.69882 0.13378 0.0
H1232 H 0.73511 0.71348 0.05115 0.0
H1233 H 0.74684 0.65153 0.10178 0.0
H1234 H 0.74013 0.76102 0.09441 0.0
H1235 H 0.70613 0.75324 0.0932 0.0
H1236 H 0.72329 0.75281 0.06457 0.0
H1237 H 0.75336 0.68338 0.15691 0.0
H1238 H 0.73823 0.65398 0.14499 0.0
H1239 H 0.71892 0.67902 0.15495 0.0
C1240 C 0.00048 0.03568 0.07205 0.0
C1241 C 0.00202 0.01477 0.05609 0.0
C1242 C 0.98555 0.0342 0.0933 0.0
C1243 C 0.97154 0.0113 0.09861 0.0
C1244 C 0.9729 0.99012 0.08249 0.0
C1245 C 0.98833 0.99204 0.0615 0.0
C1246 C 0.98496 0.05712 0.11019 0.0
C1247 C 0.95798 0.96551 0.08737 0.0
C1248 C 0.95361 0.00454 0.16684 0.0
C1249 C 0.92875 0.01366 0.16582 0.0
C1250 C 0.96735 0.00263 0.14491 0.0
C1251 C 0.95585 0.00971 0.12132 0.0
C1252 C 0.93021 0.01756 0.11996 0.0
C1253 C 0.91702 0.01961 0.14227 0.0
C1254 C 0.99473 -0.00559 0.14723 0.0
C1255 C 0.91713 0.02489 0.09511 0.0
H1256 H 0.01132 0.05317 0.0681 0.0
H1257 H 0.9894 0.97591 0.04907 0.0
H1258 H 0.96485 0.06291 0.11105 0.0
H1259 H 0.99188 0.05248 0.12974 0.0
H1260 H -0.00287 0.07341 0.10352 0.0
H1261 H 0.96078 0.95095 0.07283 0.0
H1262 H 0.9641 0.95813 0.1062 0.0
H1263 H 0.93706 0.96866 0.08765 0.0
H1264 H 0.96285 -4e-05 0.18497 0.0
H1265 H 0.89776 0.02652 0.14131 0.0
H1266 H 0.00829 0.01058 0.14294 0.0
H1267 H -0.00258 0.97925 0.13333 0.0
H1268 H 5e-05 0.98746 0.16648 0.0
H1269 H 0.92659 0.04269 0.08831 0.0
H1270 H 0.89627 0.02774 0.0968 0.0
H1271 H 0.91913 0.01017 0.08055 0.0
C1272 C 0.31781 0.76471 0.16565 0.0
C1273 C 0.29699 0.75222 0.17715 0.0
C1274 C 0.31367 0.78058 0.14481 0.0
C1275 C 0.28814 0.78367 0.13501 0.0
C1276 C 0.26704 0.77174 0.14698 0.0
C1277 C 0.27171 0.7564 0.16803 0.0
C1278 C 0.33662 0.79334 0.13277 0.0
C1279 C 0.23951 0.7744 0.137 0.0
C1280 C 0.26957 0.83517 0.08896 0.0
C1281 C 0.26756 0.82185 0.06597 0.0
C1282 C 0.27764 0.82339 0.11154 0.0
C1283 C 0.28335 0.79762 0.11107 0.0
C1284 C 0.28229 0.78442 0.08776 0.0
C1285 C 0.27458 0.79674 0.06549 0.0
C1286 C 0.27908 0.8382 0.136 0.0
C1287 C 0.28792 0.75684 0.08646 0.0
H1288 H 0.33742 0.76151 0.17244 0.0
H1289 H 0.25548 0.74738 0.17718 0.0
H1290 H 0.33868 0.78491 0.11386 0.0
H1291 H 0.33369 0.81371 0.12996 0.0
H1292 H 0.35489 0.7914 0.14435 0.0
H1293 H 0.22525 0.76461 0.14904 0.0
H1294 H 0.2353 0.79462 0.13579 0.0
H1295 H 0.23679 0.76638 0.11759 0.0
H1296 H 0.26431 0.85463 0.08942 0.0
H1297 H 0.27297 0.78627 0.04782 0.0
H1298 H 0.29767 0.83557 0.14676 0.0
H1299 H 0.26338 0.83115 0.14797 0.0
H1300 H 0.27716 0.85871 0.13278 0.0
H1301 H 0.30703 0.75372 0.09596 0.0
H1302 H 0.28774 0.74975 0.06669 0.0
H1303 H 0.27322 0.74542 0.09661 0.0
C1304 C 0.01349 0.50323 0.09788 0.0
C1305 C 0.00363 0.47885 0.09095 0.0
C1306 C 0.03206 0.50708 0.11808 0.0
C1307 C 0.04108 0.48604 0.13162 0.0
C1308 C 0.03054 0.46148 0.12528 0.0
C1309 C 0.01192 0.4582 0.10511 0.0
C1310 C 0.04277 0.53357 0.12429 0.0
C1311 C 0.0396 0.43854 0.13921 0.0
C1312 C 0.10936 0.49131 0.16151 0.0
C1313 C 0.10518 0.49477 0.18724 0.0
C1314 C 0.08868 0.48858 0.14333 0.0
C1315 C 0.06305 0.48944 0.15092 0.0
C1316 C 0.05859 0.49307 0.17679 0.0
C1317 C 0.0797 0.49562 0.19467 0.0
C1318 C 0.09431 0.48458 0.11597 0.0
C1319 C 0.03153 0.49419 0.18557 0.0
H1320 H 0.00736 0.51927 0.08695 0.0
H1321 H 0.00404 0.43934 0.1002 0.0
H1322 H 0.04196 0.53743 0.14482 0.0
H1323 H 0.06336 0.53557 0.11969 0.0
H1324 H 0.03209 0.54803 0.1136 0.0
H1325 H 0.02823 0.42097 0.13313 0.0
H1326 H 0.06021 0.4362 0.13582 0.0
H1327 H 0.0382 0.44104 0.15988 0.0
H1328 H 0.12889 0.49054 0.15547 0.0
H1329 H 0.07622 0.49835 0.21445 0.0
H1330 H 0.08603 0.49964 0.10412 0.0
H1331 H 0.08502 0.4663 0.10904 0.0
H1332 H 0.11534 0.48457 0.11315 0.0
H1333 H 0.02153 0.50948 0.17554 0.0
H1334 H 0.03132 0.49756 0.20626 0.0
H1335 H 0.02027 0.47622 0.18085 0.0
C1336 C 0.34337 0.7211 0.28209 0.0
C1337 C 0.34664 0.72739 0.25669 0.0
C1338 C 0.36387 0.72435 0.30041 0.0
C1339 C 0.38813 0.73473 0.29335 0.0
C1340 C 0.39142 0.74184 0.26796 0.0
C1341 C 0.37073 0.73785 0.24989 0.0
C1342 C 0.35965 0.7163 0.32728 0.0
C1343 C 0.41688 0.75337 0.25981 0.0
C1344 C 0.43269 0.76107 0.3476 0.0
C1345 C 0.44895 0.74125 0.35186 0.0
C1346 C 0.41344 0.75968 0.32788 0.0
C1347 C 0.41012 0.73765 0.31258 0.0
C1348 C 0.42693 0.71777 0.31663 0.0
C1349 C 0.44632 0.71991 0.3362 0.0
C1350 C 0.39622 0.78144 0.32386 0.0
C1351 C 0.42377 0.69385 0.30098 0.0
H1352 H 0.32473 0.71356 0.28773 0.0
H1353 H 0.37362 0.7425 0.2303 0.0
H1354 H 0.37343 0.70191 0.33314 0.0
H1355 H 0.36345 0.73266 0.3403 0.0
H1356 H 0.3397 0.70826 0.32961 0.0
H1357 H 0.41584 0.75922 0.23967 0.0
H1358 H 0.42306 0.7701 0.27174 0.0
H1359 H 0.43203 0.73957 0.26248 0.0
H1360 H 0.43484 0.77749 0.35995 0.0
H1361 H 0.45888 0.70454 0.33984 0.0
H1362 H 0.37616 0.77541 0.32824 0.0
H1363 H 0.39575 0.78735 0.30377 0.0
H1364 H 0.40272 0.79799 0.33596 0.0
H1365 H 0.40471 0.6841 0.30402 0.0
H1366 H 0.4391 0.68065 0.30585 0.0
H1367 H 0.42417 0.69837 0.28057 0.0
C1368 C 0.97008 0.43028 0.98678 0.0
C1369 C 0.97501 0.42832 0.01305 0.0
C1370 C 0.97287 0.40971 0.97058 0.0
C1371 C 0.98124 0.38677 0.9808 0.0
C1372 C 0.98658 0.38476 0.0072 0.0
C1373 C 0.98312 0.40541 0.02298 0.0
C1374 C 0.96663 0.41243 0.94257 0.0
C1375 C 0.99577 0.36069 0.01885 0.0
C1376 C 0.96706 0.3232 0.94864 0.0
C1377 C 0.99102 0.31864 0.93909 0.0
C1378 C 0.96314 0.34601 0.9609 0.0
C1379 C 0.98386 0.36449 0.9642 0.0
C1380 C 0.00774 0.36048 0.9536 0.0
C1381 C 0.01095 0.33767 0.94092 0.0
C1382 C 0.93719 0.34981 0.97138 0.0
C1383 C 0.03039 0.37957 0.95699 0.0
H1384 H 0.96419 0.44796 0.97881 0.0
H1385 H 0.98648 0.40343 0.04324 0.0
H1386 H 0.98382 0.40881 0.93189 0.0
H1387 H 0.95112 0.39818 0.93621 0.0
H1388 H 0.96025 0.4315 0.93761 0.0
H1389 H 0.00034 0.36264 0.03954 0.0
H1390 H 0.98069 0.34517 0.0156 0.0
H1391 H 0.0133 0.35506 0.00974 0.0
H1392 H 0.95149 0.30866 0.94702 0.0
H1393 H 0.02954 0.33419 0.93368 0.0
H1394 H 0.93042 0.36858 0.96592 0.0
H1395 H 0.93899 0.34927 0.99234 0.0
H1396 H 0.9223 0.33505 0.96466 0.0
H1397 H 0.02453 0.39868 0.95162 0.0
H1398 H 0.04676 0.37476 0.9456 0.0
H1399 H 0.03724 0.38044 0.97723 0.0
C1400 C 0.65373 0.78866 0.24125 0.0
C1401 C 0.67841 0.79936 0.24851 0.0
C1402 C 0.6351 0.78385 0.25908 0.0
C1403 C 0.64114 0.79019 0.28479 0.0
C1404 C 0.6656 0.80196 0.2921 0.0
C1405 C 0.684 0.80624 0.27392 0.0
C1406 C 0.60931 0.77109 0.25056 0.0
C1407 C 0.6727 0.80915 0.31932 0.0
C1408 C 0.58666 0.79076 0.33005 0.0
C1409 C 0.58875 0.76733 0.34195 0.0
C1410 C 0.60363 0.79859 0.31141 0.0
C1411 C 0.62281 0.78243 0.30434 0.0
C1412 C 0.6247 0.75863 0.31605 0.0
C1413 C 0.60779 0.75146 0.33479 0.0
C1414 C 0.60125 0.82421 0.2995 0.0
C1415 C 0.64463 0.74067 0.30881 0.0
H1416 H 0.64905 0.78375 0.22158 0.0
H1417 H 0.70307 0.81425 0.27982 0.0
H1418 H 0.60732 0.7521 0.25922 0.0
H1419 H 0.59334 0.78205 0.257 0.0
H1420 H 0.60701 0.76889 0.22967 0.0
H1421 H 0.69142 0.82042 0.32148 0.0
H1422 H 0.65745 0.82021 0.32708 0.0
H1423 H 0.67416 0.79184 0.33088 0.0
H1424 H 0.57204 0.80313 0.33557 0.0
H1425 H 0.60942 0.73324 0.34374 0.0
H1426 H 0.59789 0.82219 0.27871 0.0
H1427 H 0.61958 0.83583 0.30303 0.0
H1428 H 0.58525 0.83448 0.30699 0.0
H1429 H 0.64231 0.7364 0.28826 0.0
H1430 H 0.64316 0.72262 0.31935 0.0
H1431 H 0.66433 0.74959 0.31259 0.0
C1432 C 0.05258 0.08065 0.97987 0.0
C1433 C 0.03072 0.06418 0.98178 0.0
C1434 C 0.05099 0.10352 0.96683 0.0
C1435 C 0.02707 0.10977 0.95502 0.0
C1436 C 0.00517 0.09268 0.95606 0.0
C1437 C 0.00719 0.07018 0.96972 0.0
C1438 C 0.07466 0.12145 0.96657 0.0
C1439 C 0.9795 0.09843 0.94324 0.0
C1440 C 0.01742 0.17962 0.94712 0.0
C1441 C 0.02464 0.1838 0.9223 0.0
C1442 C 0.01761 0.15549 0.9578 0.0
C1443 C 0.02469 0.13493 0.94312 0.0
C1444 C 0.03083 0.13881 0.91765 0.0
C1445 C 0.03103 0.1633 0.90761 0.0
C1446 C 0.01131 0.15223 0.98515 0.0
C1447 C 0.03785 0.11722 0.90125 0.0
H1448 H 0.07071 0.07606 0.98942 0.0
H1449 H 0.99035 0.0573 0.97112 0.0
H1450 H 0.07896 0.12634 0.94684 0.0
H1451 H 0.071 0.13927 0.97641 0.0
H1452 H 0.09197 0.11339 0.97595 0.0
H1453 H 0.96505 0.08218 0.94386 0.0
H1454 H 0.97173 0.11485 0.95262 0.0
H1455 H 0.98198 0.1036 0.9232 0.0
H1456 H 0.01259 0.19543 0.95861 0.0
H1457 H 0.03647 0.16642 0.88836 0.0
H1458 H 0.02846 0.14588 -0.00372 0.0
H1459 H 0.99551 0.13745 0.98682 0.0
H1460 H 0.00541 0.16998 0.99371 0.0
H1461 H 0.05648 0.11007 0.90854 0.0
H1462 H 0.03972 0.12292 0.88124 0.0
H1463 H 0.02302 0.10134 0.90192 0.0
C1464 C 0.33884 0.24899 0.23721 0.0
C1465 C 0.33608 0.27178 0.24991 0.0
C1466 C 0.3592 0.24634 0.22123 0.0
C1467 C 0.37755 0.26681 0.21831 0.0
C1468 C 0.37505 0.28977 0.23143 0.0
C1469 C 0.35416 0.29206 0.24687 0.0
C1470 C 0.36088 0.22172 0.20721 0.0
C1471 C 0.39449 0.31183 0.22924 0.0
C1472 C 0.44154 0.24922 0.19362 0.0
C1473 C 0.43836 0.25536 0.16794 0.0
C1474 C 0.42233 0.25376 0.21046 0.0
C1475 C 0.39915 0.2642 0.20128 0.0
C1476 C 0.39611 0.27101 0.1755 0.0
C1477 C 0.41586 0.26675 0.15921 0.0
C1478 C 0.42656 0.24679 0.23794 0.0
C1479 C 0.37154 0.28181 0.16487 0.0
H1480 H 0.32473 0.23338 0.23943 0.0
H1481 H 0.35214 0.30962 0.25689 0.0
H1482 H 0.36042 0.22518 0.18654 0.0
H1483 H 0.37946 0.21332 0.21252 0.0
H1484 H 0.34483 0.2078 0.21123 0.0
H1485 H 0.39017 0.32811 0.24122 0.0
H1486 H 0.41415 0.30599 0.23488 0.0
H1487 H 0.39479 0.31813 0.2093 0.0
H1488 H 0.45894 0.24054 0.20053 0.0
H1489 H 0.41317 0.27141 0.13935 0.0
H1490 H 0.41262 0.23108 0.24262 0.0
H1491 H 0.423 0.26304 0.25024 0.0
H1492 H 0.44644 0.24085 0.24248 0.0
H1493 H 0.35506 0.26777 0.16669 0.0
H1494 H 0.37259 0.287 0.14463 0.0
H1495 H 0.36734 0.29883 0.17576 0.0
C1496 C 0.53956 0.42878 0.02384 0.0
C1497 C 0.53216 0.42894 -0.00209 0.0
C1498 C 0.53737 0.40647 0.03804 0.0
C1499 C 0.52717 0.38383 0.02614 0.0
C1500 C 0.51925 0.38394 0.00013 0.0
C1501 C 0.52208 0.40636 0.98632 0.0
C1502 C 0.54628 0.40703 0.06567 0.0
C1503 C 0.50808 0.36026 0.98674 0.0
C1504 C 0.54189 0.31869 0.05041 0.0
C1505 C 0.51884 0.31098 0.0615 0.0
C1506 C 0.54544 0.34292 0.04012 0.0
C1507 C 0.52527 0.35973 0.04052 0.0
C1508 C 0.50241 0.35249 0.05268 0.0
C1509 C 0.49956 0.32827 0.06323 0.0
C1510 C 0.57033 0.3501 0.0278 0.0
C1511 C 0.48034 0.36973 0.05326 0.0
H1512 H 0.54704 0.44614 0.03311 0.0
H1513 H 0.51681 0.40602 0.96623 0.0
H1514 H 0.53015 0.40056 0.07738 0.0
H1515 H 0.56189 0.39383 0.06906 0.0
H1516 H 0.55359 0.42619 0.07216 0.0
H1517 H 0.50165 0.3638 0.96677 0.0
H1518 H 0.52274 0.34586 0.98698 0.0
H1519 H 0.49133 0.35214 -0.00326 0.0
H1520 H 0.55699 0.30554 0.04922 0.0
H1521 H 0.48164 0.32245 0.07167 0.0
H1522 H 0.57833 0.36887 0.03469 0.0
H1523 H 0.56651 0.35149 0.00704 0.0
H1524 H 0.58514 0.33608 0.03153 0.0
H1525 H 0.48738 0.38879 0.06017 0.0
H1526 H 0.46495 0.36231 0.06546 0.0
H1527 H 0.47173 0.37193 0.03379 0.0
C1528 C 0.66259 0.21613 0.20941 0.0
C1529 C 0.65784 0.21149 0.2348 0.0
C1530 C 0.64218 0.21947 0.19142 0.0
C1531 C 0.61636 0.2175 0.19891 0.0
C1532 C 0.61148 0.2127 0.22456 0.0
C1533 C 0.63233 0.21005 0.24226 0.0
C1534 C 0.64825 0.22511 0.1644 0.0
C1535 C 0.58426 0.20984 0.23319 0.0
C1536 C 0.56447 0.24551 0.15564 0.0
C1537 C 0.55579 0.22454 0.14077 0.0
C1538 C 0.58405 0.24349 0.17486 0.0
C1539 C 0.59451 0.21977 0.1797 0.0
C1540 C 0.58486 0.19834 0.16535 0.0
C1541 C 0.56595 0.2011 0.14572 0.0
C1542 C 0.59429 0.26691 0.18923 0.0
C1543 C 0.59488 0.17258 0.17039 0.0
H1544 H 0.68235 0.21747 0.20372 0.0
H1545 H 0.62868 0.2063 0.2619 0.0
H1546 H 0.63997 0.2096 0.15181 0.0
H1547 H 0.63925 0.24266 0.15809 0.0
H1548 H 0.66936 0.2274 0.16195 0.0
H1549 H 0.58376 0.20619 0.25381 0.0
H1550 H 0.57395 0.22715 0.22879 0.0
H1551 H 0.57347 0.19398 0.22281 0.0
H1552 H 0.55674 0.26368 0.15149 0.0
H1553 H 0.55914 0.18494 0.1341 0.0
H1554 H 0.61498 0.27085 0.18562 0.0
H1555 H 0.5931 0.26397 0.20986 0.0
H1556 H 0.58356 0.28374 0.18373 0.0
H1557 H 0.61544 0.17257 0.16574 0.0
H1558 H 0.58377 0.15752 0.15908 0.0
H1559 H 0.59394 0.16791 0.19074 0.0
C1560 C 0.47881 0.05874 0.01228 0.0
C1561 C 0.4694 0.06097 0.98715 0.0
C1562 C 0.48244 0.08005 0.02817 0.0
C1563 C 0.47579 0.10394 0.0188 0.0
C1564 C 0.46622 0.10617 0.99336 0.0
C1565 C 0.46345 0.08466 0.97773 0.0
C1566 C 0.49329 0.07701 0.05495 0.0
C1567 C 0.45837 0.13117 0.9828 0.0
C1568 C 0.45856 0.15447 0.06486 0.0
C1569 C 0.48013 0.1716 0.06444 0.0
C1570 C 0.45707 0.13217 0.0504 0.0
C1571 C 0.47799 0.12651 0.03573 0.0
C1572 C 0.50039 0.14313 0.03628 0.0
C1573 C 0.50103 0.16568 0.05034 0.0
C1574 C 0.43262 0.11526 0.04993 0.0
C1575 C 0.52341 0.13738 0.02152 0.0
H1576 H 0.48349 0.04032 0.0194 0.0
H1577 H 0.45606 0.0862 0.95827 0.0
H1578 H 0.51048 0.0902 0.05864 0.0
H1579 H 0.47877 0.08187 0.06847 0.0
H1580 H 0.49891 0.05745 0.05883 0.0
H1581 H 0.4511 0.12965 0.96269 0.0
H1582 H 0.44301 0.13851 -0.00595 0.0
H1583 H 0.47504 0.14524 0.98425 0.0
H1584 H 0.44227 0.15908 0.07557 0.0
H1585 H 0.51785 0.17871 0.05018 0.0
H1586 H 0.43714 0.09573 0.0552 0.0
H1587 H 0.42348 0.11445 0.03047 0.0
H1588 H 0.41843 0.12195 0.06299 0.0
H1589 H 0.52931 0.11801 0.02575 0.0
H1590 H 0.54019 0.15095 0.02585 0.0
H1591 H 0.51815 0.13812 0.00096 0.0
C1592 C 0.25789 0.36033 0.69217 0.0
C1593 C 0.25028 0.34751 0.7139 0.0
C1594 C 0.27672 0.38046 0.6938 0.0
C1595 C 0.28836 0.38783 0.71771 0.0
C1596 C 0.28026 0.37538 0.73978 0.0
C1597 C 0.26125 0.35543 0.73761 0.0
C1598 C 0.28464 0.3934 0.66985 0.0
C1599 C 0.29232 0.38254 0.7656 0.0
C1600 C 0.3561 0.41913 0.71901 0.0
C1601 C 0.35148 0.44471 0.72229 0.0
C1602 C 0.33575 0.40049 0.71762 0.0
C1603 C 0.31005 0.40752 0.71947 0.0
C1604 C 0.30518 0.43326 0.72284 0.0
C1605 C 0.32594 0.45154 0.72426 0.0
C1606 C 0.34177 0.37323 0.71411 0.0
C1607 C 0.27802 0.44148 0.72482 0.0
H1608 H 0.24924 0.35446 0.67384 0.0
H1609 H 0.25562 0.34541 0.75443 0.0
H1610 H 0.28314 0.4141 0.67159 0.0
H1611 H 0.30513 0.39009 0.66677 0.0
H1612 H 0.2726 0.3865 0.65296 0.0
H1613 H 0.28282 0.37204 0.78099 0.0
H1614 H 0.31308 0.37855 0.76653 0.0
H1615 H 0.29119 0.40307 0.76901 0.0
H1616 H 0.37571 0.41356 0.71752 0.0
H1617 H 0.3221 0.47122 0.72677 0.0
H1618 H 0.3319 0.36561 0.69635 0.0
H1619 H 0.33438 0.3617 0.72988 0.0
H1620 H 0.36282 0.37085 0.71331 0.0
H1621 H 0.26612 0.43589 0.70743 0.0
H1622 H 0.27747 0.46221 0.72751 0.0
H1623 H 0.26892 0.43186 0.74092 0.0
C1624 C 0.24683 0.65977 0.74083 0.0
C1625 C 0.23843 0.667 0.76436 0.0
C1626 C 0.26575 0.64206 0.7391 0.0
C1627 C 0.27665 0.63138 0.76144 0.0
C1628 C 0.26764 0.63795 0.78517 0.0
C1629 C 0.2486 0.6556 0.78633 0.0
C1630 C 0.27475 0.63548 0.71341 0.0
C1631 C 0.27872 0.62699 0.80942 0.0
C1632 C 0.31533 0.57307 0.75481 0.0
C1633 C 0.34067 0.58383 0.75475 0.0
C1634 C 0.29427 0.58823 0.75735 0.0
C1635 C 0.29869 0.61473 0.76006 0.0
C1636 C 0.32429 0.62556 0.76079 0.0
C1637 C 0.34491 0.61002 0.75807 0.0
C1638 C 0.26725 0.57599 0.75643 0.0
C1639 C 0.32989 0.65369 0.76391 0.0
H1640 H 0.23928 0.66861 0.72377 0.0
H1641 H 0.24187 0.66069 0.80456 0.0
H1642 H 0.2952 0.64239 0.71204 0.0
H1643 H 0.27385 0.61469 0.71075 0.0
H1644 H 0.263 0.6439 0.69779 0.0
H1645 H 0.2685 0.6328 0.82617 0.0
H1646 H 0.27763 0.60608 0.80828 0.0
H1647 H 0.29943 0.63329 0.8123 0.0
H1648 H 0.31185 0.55287 0.75218 0.0
H1649 H 0.36442 0.6185 0.75817 0.0
H1650 H 0.25599 0.58281 0.73964 0.0
H1651 H 0.25718 0.5814 0.77338 0.0
H1652 H 0.26714 0.55507 0.75542 0.0
H1653 H 0.32077 0.6637 0.74768 0.0
H1654 H 0.35092 0.65903 0.76508 0.0
H1655 H 0.32142 0.66045 0.78128 0.0
C1656 C 0.9159 0.4548 0.45671 0.0
C1657 C 0.91557 0.4808 0.46173 0.0
C1658 C 0.89453 0.43826 0.46109 0.0
C1659 C 0.8725 0.44769 0.47159 0.0
C1660 C 0.87186 0.47384 0.47657 0.0
C1661 C 0.89315 0.4901 0.47116 0.0
C1662 C 0.89576 0.41056 0.45495 0.0
C1663 C 0.84899 0.48456 0.4883 0.0
C1664 C 0.80998 0.40621 0.46747 0.0
C1665 C 0.81201 0.39306 0.49029 0.0
C1666 C 0.82938 0.42436 0.46118 0.0
C1667 C 0.85077 0.42991 0.47852 0.0
C1668 C 0.8521 0.41747 0.50215 0.0
C1669 C 0.83294 0.39883 0.50753 0.0
C1670 C 0.82764 0.43664 0.43551 0.0
C1671 C 0.8741 0.42339 0.52152 0.0
H1672 H 0.9331 0.44715 0.44986 0.0
H1673 H 0.89219 0.51016 0.47452 0.0
H1674 H 0.89612 0.39946 0.47267 0.0
H1675 H 0.8783 0.40376 0.44328 0.0
H1676 H 0.91314 0.40664 0.44462 0.0
H1677 H 0.85135 0.50539 0.49073 0.0
H1678 H 0.83107 0.4799 0.47642 0.0
H1679 H 0.84632 0.4759 0.50709 0.0
H1680 H 0.7939 0.40139 0.45405 0.0
H1681 H 0.8344 0.38854 0.52517 0.0
H1682 H 0.84384 0.43097 0.42436 0.0
H1683 H 0.82953 0.45749 0.43747 0.0
H1684 H 0.80915 0.43125 0.42475 0.0
H1685 H 0.89238 0.41726 0.5143 0.0
H1686 H 0.87096 0.41384 0.53983 0.0
H1687 H 0.87657 0.44406 0.52493 0.0
C1688 C 0.73018 0.8123 0.77006 0.0
C1689 C 0.75707 0.81681 0.77279 0.0
C1690 C 0.71379 0.83239 0.76715 0.0
C1691 C 0.72459 0.85754 0.76748 0.0
C1692 C 0.75172 0.86214 0.7709 0.0
C1693 C 0.76762 0.84171 0.77327 0.0
C1694 C 0.68504 0.82672 0.76309 0.0
C1695 C 0.76401 0.88866 0.77177 0.0
C1696 C 0.69312 0.9122 0.73493 0.0
C1697 C 0.68463 0.92551 0.75549 0.0
C1698 C 0.70446 0.88902 0.73837 0.0
C1699 C 0.70792 0.87919 0.76306 0.0
C1700 C 0.69794 0.89178 0.7837 0.0
C1701 C 0.68615 0.91473 0.77962 0.0
C1702 C 0.71422 0.87592 0.71575 0.0
C1703 C 0.70148 0.88206 0.81035 0.0
H1704 H 0.72204 0.793 0.76959 0.0
H1705 H 0.78839 0.8452 0.77572 0.0
H1706 H 0.6746 0.837 0.77723 0.0
H1707 H 0.67838 0.8334 0.74413 0.0
H1708 H 0.67961 0.80622 0.76445 0.0
H1709 H 0.78522 0.88903 0.77605 0.0
H1710 H 0.76036 0.898 0.7533 0.0
H1711 H 0.75527 0.89997 0.78635 0.0
H1712 H 0.69178 0.92041 0.71621 0.0
H1713 H 0.67977 0.92506 0.79559 0.0
H1714 H 0.70833 0.85548 0.71585 0.0
H1715 H 0.73565 0.87769 0.71663 0.0
H1716 H 0.70696 0.8841 0.69761 0.0
H1717 H 0.69603 0.86156 0.81107 0.0
H1718 H 0.68985 0.8921 0.82373 0.0
H1719 H 0.72215 0.88468 0.81685 0.0
C1720 C 0.59858 0.51785 0.95642 0.0
C1721 C 0.58457 0.50808 0.97646 0.0
C1722 C 0.6193 0.53585 0.96074 0.0
C1723 C 0.62625 0.54429 0.98572 0.0
C1724 C 0.61271 0.53393 0.00611 0.0
C1725 C 0.59204 0.51598 0.00124 0.0
C1726 C 0.6333 0.54634 0.93849 0.0
C1727 C 0.61951 0.54241 0.03302 0.0
C1728 C 0.69157 0.57971 -0.00065 0.0
C1729 C 0.68477 0.60496 -0.00102 0.0
C1730 C 0.67277 0.55974 -0.0049 0.0
C1731 C 0.64655 0.5651 0.99034 0.0
C1732 C 0.63958 0.59049 0.98992 0.0
C1733 C 0.6587 0.61004 -0.00575 0.0
C1734 C 0.68095 0.5329 -0.00429 0.0
C1735 C 0.61184 0.59703 0.98487 0.0
H1736 H 0.59324 0.5115 0.93727 0.0
H1737 H 0.5812 0.50868 0.01681 0.0
H1738 H 0.63034 0.56681 0.93664 0.0
H1739 H 0.65438 0.5443 0.94156 0.0
H1740 H 0.6265 0.53679 0.92043 0.0
H1741 H 0.60832 0.5313 0.04688 0.0
H1742 H 0.64042 0.54069 0.03773 0.0
H1743 H 0.61559 0.56262 0.03513 0.0
H1744 H 0.7116 0.57551 0.00299 0.0
H1745 H 0.65314 0.62941 -0.00613 0.0
H1746 H 0.67549 0.52345 0.97731 0.0
H1747 H 0.67071 0.5221 0.01042 0.0
H1748 H 0.70209 0.53188 -0.00031 0.0
H1749 H 0.60442 0.5895 0.96612 0.0
H1750 H 0.6096 0.61772 0.98521 0.0
H1751 H 0.59959 0.58807 -0.00076 0.0
C1752 C 0.27957 0.64957 0.23207 0.0
C1753 C 0.27088 0.672 0.22149 0.0
C1754 C 0.26242 0.62861 0.23564 0.0
C1755 C 0.23606 0.6297 0.22761 0.0
C1756 C 0.22731 0.65178 0.21588 0.0
C1757 C 0.24468 0.67278 0.21339 0.0
C1758 C 0.27241 0.60554 0.24866 0.0
C1759 C 0.19949 0.65341 0.20643 0.0
C1760 C 0.19823 0.56623 0.22198 0.0
C1761 C 0.18543 0.5656 0.24457 0.0
C1762 C 0.2139 0.58749 0.21561 0.0
C1763 C 0.21746 0.60815 0.23268 0.0
C1764 C 0.20412 0.60776 0.25529 0.0
C1765 C 0.18791 0.58663 0.26075 0.0
C1766 C 0.22703 0.58762 0.19089 0.0
C1767 C 0.20786 0.62913 0.27427 0.0
H1768 H 0.2998 0.64836 0.2378 0.0
H1769 H 0.23748 0.69002 0.20556 0.0
H1770 H 0.26194 0.60172 0.26608 0.0
H1771 H 0.26878 0.58875 0.23618 0.0
H1772 H 0.29344 0.60776 0.25391 0.0
H1773 H 0.19641 0.67081 0.19531 0.0
H1774 H 0.19318 0.63677 0.19441 0.0
H1775 H 0.18691 0.65327 0.22268 0.0
H1776 H 0.19604 0.55011 0.2093 0.0
H1777 H 0.17818 0.58605 0.27834 0.0
H1778 H 0.24822 0.58714 0.1946 0.0
H1779 H 0.22339 0.60525 0.1804 0.0
H1780 H 0.22029 0.57121 0.17867 0.0
H1781 H 0.22844 0.63115 0.28126 0.0
H1782 H 0.19574 0.62608 0.29075 0.0
H1783 H 0.20309 0.64721 0.26521 0.0
C1784 C 0.9122 0.51241 0.05563 0.0
C1785 C 0.92686 0.50384 0.03623 0.0
C1786 C 0.89288 0.52945 0.05067 0.0
C1787 C 0.88804 0.53815 0.02568 0.0
C1788 C 0.90234 0.52912 0.00591 0.0
C1789 C 0.92158 0.51212 0.01142 0.0
C1790 C 0.87802 0.53859 0.07228 0.0
C1791 C 0.89782 0.53797 0.97904 0.0
C1792 C 0.82526 0.57037 0.01114 0.0
C1793 C 0.83351 0.59593 0.01393 0.0
C1794 C 0.84285 0.55129 0.01442 0.0
C1795 C 0.86927 0.55797 0.02062 0.0
C1796 C 0.87778 0.58375 0.02276 0.0
C1797 C 0.85984 0.60237 0.01939 0.0
C1798 C 0.83309 0.524 0.01185 0.0
C1799 C 0.90578 0.5917 0.02925 0.0
H1800 H 0.91586 0.50578 0.07476 0.0
H1801 H 0.93299 0.5058 -0.00365 0.0
H1802 H 0.882 0.55924 0.07492 0.0
H1803 H 0.85696 0.53529 0.06789 0.0
H1804 H 0.88319 0.52906 0.09036 0.0
H1805 H 0.90923 0.5278 0.96557 0.0
H1806 H 0.87704 0.53527 0.97298 0.0
H1807 H 0.9032 0.55847 0.97791 0.0
H1808 H 0.80496 0.56522 0.00693 0.0
H1809 H 0.86646 0.62205 0.02148 0.0
H1810 H 0.836 0.51432 0.03024 0.0
H1811 H 0.84423 0.51416 -0.00205 0.0
H1812 H 0.81225 0.52196 0.00575 0.0
H1813 H 0.91171 0.58443 0.04819 0.0
H1814 H 0.90942 0.61254 0.02936 0.0
H1815 H 0.91826 0.58345 0.01544 0.0
C1816 C 0.08827 0.97557 0.02618 0.0
C1817 C 0.07365 0.98484 0.00553 0.0
C1818 C 0.10762 0.95871 0.02266 0.0
C1819 C 0.11258 0.95096 -0.00212 0.0
C1820 C 0.09812 0.96044 0.97692 0.0
C1821 C 0.0788 0.9772 0.981 0.0
C1822 C 0.12261 0.949 0.04551 0.0
C1823 C 0.10279 0.95259 0.95022 0.0
C1824 C 0.17669 0.92143 0.98953 0.0
C1825 C 0.16936 0.8956 0.99056 0.0
C1826 C 0.15831 0.93974 0.99124 0.0
C1827 C 0.13206 0.93199 -0.00594 0.0
C1828 C 0.12447 0.90595 -0.00574 0.0
C1829 C 0.14317 0.88811 0.99247 0.0
C1830 C 0.1671 0.96735 0.99078 0.0
C1831 C 0.09668 0.89688 -0.00283 0.0
H1832 H 0.08475 0.98171 0.04515 0.0
H1833 H 0.06743 0.98407 0.96495 0.0
H1834 H 0.11949 0.92818 0.04655 0.0
H1835 H 0.1436 0.95331 0.04381 0.0
H1836 H 0.11686 0.95737 0.06346 0.0
H1837 H 0.09075 0.9626 0.93593 0.0
H1838 H 0.12342 0.95641 0.94636 0.0
H1839 H 0.0984 0.93198 0.94786 0.0
H1840 H 0.19686 0.92739 0.98805 0.0
H1841 H 0.13727 0.8682 0.99318 0.0
H1842 H 0.16396 0.97621 0.00927 0.0
H1843 H 0.1555 0.97732 0.97615 0.0
H1844 H 0.18786 0.97028 0.98691 0.0
H1845 H 0.09044 0.90303 0.01581 0.0
H1846 H 0.09375 0.87601 -0.00419 0.0
H1847 H 0.08393 0.90539 0.98243 0.0
loop_
_geom_bond_atom_site_label_1
_geom_bond_atom_site_label_2
_geom_bond_distance
_geom_bond_site_symmetry_2
_ccdc_geom_bond_type
H0 C3 0.931 . S
H1 C6 0.928 . S
H2 C8 0.930 1_556 S
C3 H0 0.931 . S
C3 C4 1.413 . S
C3 C5 1.360 . S
C4 C3 1.413 . S
C4 C8 1.429 . S
C5 C3 1.360 . S
C5 C6 1.372 . S
C6 H1 0.928 . S
C6 C5 1.372 . S
C6 C7 1.404 . S
C7 C6 1.404 . S
C7 C8 1.391 . S
C8 H2 0.930 1_554 S
C8 C4 1.429 . S
C8 C7 1.391 . S
H9 C12 0.931 . S
H10 C15 0.928 . S
H11 C17 0.930 . S
C12 H9 0.931 . S
C12 C13 1.413 . S
C12 C14 1.360 . S
C13 C12 1.413 . S
C13 C17 1.429 . S
C14 C12 1.360 . S
C14 C15 1.372 . S
C15 H10 0.928 . S
C15 C14 1.372 . S
C15 C16 1.404 . S
C16 C15 1.404 . S
C16 C17 1.391 . S
C17 H11 0.930 . S
C17 C13 1.429 . S
C17 C16 1.391 . S
H18 C21 0.931 . S
H19 C24 0.928 . S
H20 C26 0.930 . S
C21 H18 0.931 . S
C21 C22 1.413 . S
C21 C23 1.360 . S
C22 C21 1.413 . S
C22 C26 1.429 . S
C23 C21 1.360 . S
C23 C24 1.372 1_655 S
C24 H19 0.928 . S
C24 C23 1.372 1_455 S
C24 C25 1.404 1_455 S
C25 C24 1.404 1_655 S
C25 C26 1.391 . S
C26 H20 0.930 . S
C26 C22 1.429 . S
C26 C25 1.391 . S
H27 C30 0.931 . S
H28 C33 0.928 . S
H29 C35 0.930 . S
C30 H27 0.931 . S
C30 C31 1.413 . S
C30 C32 1.360 . S
C31 C30 1.413 . S
C31 C35 1.429 . S
C32 C30 1.360 . S
C32 C33 1.372 . S
C33 H28 0.928 . S
C33 C32 1.372 . S
C33 C34 1.404 . S
C34 C33 1.404 . S
C34 C35 1.391 . S
C35 H29 0.930 . S
C35 C31 1.429 . S
C35 C34 1.391 . S
H36 C39 0.931 . S
H37 C42 0.928 1_545 S
H38 C44 0.930 . S
C39 H36 0.931 . S
C39 C40 1.413 . S
C39 C41 1.360 . S
C40 C39 1.413 . S
C40 C44 1.429 . S
C41 C39 1.360 . S
C41 C42 1.372 . S
C42 H37 0.928 1_565 S
C42 C41 1.372 . S
C42 C43 1.404 . S
C43 C42 1.404 . S
C43 C44 1.391 . S
C44 H38 0.930 . S
C44 C40 1.429 . S
C44 C43 1.391 . S
H45 C48 0.931 . S
H46 C51 0.928 . S
H47 C53 0.930 . S
C48 H45 0.931 . S
C48 C49 1.413 . S
C48 C50 1.360 . S
C49 C48 1.413 . S
C49 C53 1.429 . S
C50 C48 1.360 . S
C50 C51 1.372 . S
C51 H46 0.928 . S
C51 C50 1.372 . S
C51 C52 1.404 . S
C52 C51 1.404 . S
C52 C53 1.391 . S
C53 H47 0.930 . S
C53 C49 1.429 . S
C53 C52 1.391 . S
H54 C57 0.931 . S
H55 C60 0.949 . S
H56 C62 0.930 . S
C57 H54 0.931 . S
C57 C58 1.413 . S
C57 C59 1.360 . S
C58 C57 1.413 . S
C58 C62 1.429 . S
C59 C57 1.360 . S
C59 C60 1.372 . S
C60 H55 0.949 . S
C60 C59 1.372 . S
C60 C61 1.404 . S
C61 C60 1.404 . S
C61 C62 1.391 . S
C62 H56 0.930 . S
C62 C58 1.429 . S
C62 C61 1.391 . S
H63 C66 0.931 . S
H64 C69 0.928 . S
H65 C71 0.930 . S
C66 H63 0.931 . S
C66 C67 1.413 . S
C66 C68 1.360 . S
C67 C66 1.413 . S
C67 C71 1.429 . S
C68 C66 1.360 . S
C68 C69 1.372 . S
C69 H64 0.928 . S
C69 C68 1.372 . S
C69 C70 1.404 . S
C70 C69 1.404 . S
C70 C71 1.391 . S
C71 H65 0.930 . S
C71 C67 1.429 . S
C71 C70 1.391 . S
H72 C75 0.931 . S
H73 C78 0.928 . S
H74 C80 0.930 . S
C75 H72 0.931 . S
C75 C76 1.413 . S
C75 C77 1.360 . S
C76 C75 1.413 . S
C76 C80 1.429 . S
C77 C75 1.360 . S
C77 C78 1.372 . S
C78 H73 0.928 . S
C78 C77 1.372 . S
C78 C79 1.404 . S
C79 C78 1.404 . S
C79 C80 1.391 . S
C80 H74 0.930 . S
C80 C76 1.429 . S
C80 C79 1.391 . S
H81 C84 0.966 . S
H82 C87 0.928 . S
H83 C89 0.930 . S
C84 H81 0.966 . S
C84 C85 1.413 . S
C84 C86 1.360 . S
C85 C84 1.413 . S
C85 C89 1.429 . S
C86 C84 1.360 . S
C86 C87 1.372 . S
C87 H82 0.928 . S
C87 C86 1.372 . S
C87 C88 1.404 . S
C88 C87 1.404 . S
C88 C89 1.391 . S
C89 H83 0.930 . S
C89 C85 1.429 . S
C89 C88 1.391 . S
H90 C93 0.931 . S
H91 C96 0.928 . S
H92 C98 0.930 . S
C93 H90 0.931 . S
C93 C94 1.413 . S
C93 C95 1.360 . S
C94 C93 1.413 . S
C94 C98 1.429 . S
C95 C93 1.360 . S
C95 C96 1.372 . S
C96 H91 0.928 . S
C96 C95 1.372 . S
C96 C97 1.404 . S
C97 C96 1.404 . S
C97 C98 1.391 . S
C98 H92 0.930 . S
C98 C94 1.429 . S
C98 C97 1.391 . S
H99 C102 0.931 . S
H100 C105 0.928 . S
H101 C107 0.930 . S
C102 H99 0.931 . S
C102 C103 1.413 . S
C102 C104 1.360 . S
C103 C102 1.413 . S
C103 C107 1.429 . S
C104 C102 1.360 . S
C104 C105 1.372 . S
C105 H100 0.928 . S
C105 C104 1.372 . S
C105 C106 1.404 . S
C106 C105 1.404 . S
C106 C107 1.391 . S
C107 H101 0.930 . S
C107 C103 1.429 . S
C107 C106 1.391 . S
H108 C111 0.931 . S
H109 C114 0.928 . S
H110 C116 0.930 . S
C111 H108 0.931 . S
C111 C112 1.413 . S
C111 C113 1.360 . S
C112 C111 1.413 . S
C112 C116 1.429 . S
C113 C111 1.360 . S
C113 C114 1.372 . S
C114 H109 0.928 . S
C114 C113 1.372 . S
C114 C115 1.404 . S
C115 C114 1.404 . S
C115 C116 1.391 . S
C116 H110 0.930 . S
C116 C112 1.429 . S
C116 C115 1.391 . S
H117 C120 0.931 . S
H118 C123 0.928 . S
H119 C125 0.924 1_554 S
C120 H117 0.931 . S
C120 C121 1.413 . S
C120 C122 1.360 . S
C121 C120 1.413 . S
C121 C125 1.429 . S
C122 C120 1.360 . S
C122 C123 1.372 . S
C123 H118 0.928 . S
C123 C122 1.372 . S
C123 C124 1.404 . S
C124 C123 1.404 . S
C124 C125 1.391 . S
C125 H119 0.924 1_556 S
C125 C121 1.429 . S
C125 C124 1.391 . S
H126 C129 0.931 . S
H127 C132 0.928 . S
H128 C134 0.930 . S
C129 H126 0.931 . S
C129 C130 1.413 . S
C129 C131 1.360 . S
C130 C129 1.413 . S
C130 C134 1.429 . S
C131 C129 1.360 . S
C131 C132 1.372 . S
C132 H127 0.928 . S
C132 C131 1.372 . S
C132 C133 1.404 . S
C133 C132 1.404 . S
C133 C134 1.391 . S
C134 H128 0.930 . S
C134 C130 1.429 . S
C134 C133 1.391 . S
H135 C138 0.931 1_554 S
H136 C141 0.928 . S
H137 C143 0.930 1_565 S
C138 H135 0.931 1_556 S
C138 C139 1.413 . S
C138 C140 1.360 . S
C139 C138 1.413 . S
C139 C143 1.429 . S
C140 C138 1.360 . S
C140 C141 1.372 . S
C141 H136 0.928 . S
C141 C140 1.372 . S
C141 C142 1.404 . S
C142 C141 1.404 . S
C142 C143 1.391 . S
C143 H137 0.930 1_545 S
C143 C139 1.429 . S
C143 C142 1.391 . S
Mg144 O145 2.027 1_554 S
Mg144 O151 1.986 1_554 S
Mg144 O153 2.114 . S
Mg144 O154 2.251 . S
Mg144 O157 2.010 . S
O145 Mg144 2.027 1_556 S
O145 C148 1.252 . S
O146 Mg147 2.028 . S
O146 C148 1.248 . S
Mg147 O146 2.028 . S
Mg147 O152 2.032 . S
Mg147 O154 2.079 1_556 S
C148 O145 1.252 . S
C148 O146 1.248 . S
C149 O150 1.264 . S
C149 O157 1.249 . S
O150 C149 1.264 . S
O151 Mg144 1.986 1_556 S
O151 C155 1.246 . S
O152 Mg147 2.032 . S
O152 C155 1.259 . S
O153 Mg144 2.114 . S
O153 C156 1.252 . S
O154 Mg144 2.251 . S
O154 Mg147 2.079 1_554 S
O154 C156 1.273 . S
C155 O151 1.246 . S
C155 O152 1.259 . S
C156 O153 1.252 . S
C156 O154 1.273 . S
O157 Mg144 2.010 . S
O157 C149 1.249 . S
Mg158 O159 2.028 . S
Mg158 O165 1.986 . S
Mg158 O167 2.114 . S
Mg158 O168 2.251 . S
Mg158 O171 2.010 . S
O159 Mg158 2.028 . S
O159 C162 1.250 . S
O160 Mg161 2.028 . S
O160 C162 1.248 . S
Mg161 O160 2.028 . S
Mg161 O166 2.032 . S
Mg161 O168 2.079 . S
C162 O159 1.250 . S
C162 O160 1.248 . S
C163 O164 1.264 . S
C163 O171 1.249 . S
O164 C163 1.264 . S
O165 Mg158 1.986 . S
O165 C169 1.246 . S
O166 Mg161 2.032 . S
O166 C169 1.259 . S
O167 Mg158 2.114 . S
O167 C170 1.252 . S
O168 Mg158 2.251 . S
O168 Mg161 2.079 . S
O168 C170 1.273 . S
C169 O165 1.246 . S
C169 O166 1.259 . S
C170 O167 1.252 . S
C170 O168 1.273 . S
O171 Mg158 2.010 . S
O171 C163 1.249 . S
Mg172 O173 2.028 . S
Mg172 O179 1.986 1_554 S
Mg172 O181 2.114 . S
Mg172 O182 2.251 . S
Mg172 O185 2.010 . S
O173 Mg172 2.028 . S
O173 C176 1.250 . S
O174 Mg175 2.028 . S
O174 C176 1.248 1_556 S
Mg175 O174 2.028 . S
Mg175 O180 2.032 . S
Mg175 O182 2.079 1_556 S
C176 O173 1.250 . S
C176 O174 1.248 1_554 S
C177 O178 1.264 . S
C177 O185 1.249 . S
O178 C177 1.264 . S
O179 Mg172 1.986 1_556 S
O179 C183 1.246 . S
O180 Mg175 2.032 . S
O180 C183 1.259 . S
O181 Mg172 2.114 . S
O181 C184 1.252 . S
O182 Mg172 2.251 . S
O182 Mg175 2.079 1_554 S
O182 C184 1.273 . S
C183 O179 1.246 . S
C183 O180 1.259 . S
C184 O181 1.252 . S
C184 O182 1.273 . S
O185 Mg172 2.010 . S
O185 C177 1.249 . S
Mg186 O187 2.032 1_545 S
Mg186 O193 1.986 . S
Mg186 O195 2.114 . S
Mg186 O196 2.251 . S
Mg186 O199 2.010 . S
O187 Mg186 2.032 1_565 S
O187 C190 1.246 . S
O188 Mg189 2.028 . S
O188 C190 1.248 . S
Mg189 O188 2.028 . S
Mg189 O194 2.032 . S
Mg189 O196 2.079 1_565 S
C190 O187 1.246 . S
C190 O188 1.248 . S
C191 O192 1.264 . S
C191 O199 1.249 . S
O192 C191 1.264 . S
O193 Mg186 1.986 . S
O193 C197 1.246 . S
O194 Mg189 2.032 . S
O194 C197 1.259 1_565 S
O195 Mg186 2.114 . S
O195 C198 1.252 . S
O196 Mg186 2.251 . S
O196 Mg189 2.079 1_545 S
O196 C198 1.273 . S
C197 O193 1.246 . S
C197 O194 1.259 1_545 S
C198 O195 1.252 . S
C198 O196 1.273 . S
O199 Mg186 2.010 . S
O199 C191 1.249 . S
Mg200 O201 2.028 . S
Mg200 O207 1.986 . S
Mg200 O209 2.114 . S
Mg200 O210 2.251 . S
Mg200 O213 2.010 . S
O201 Mg200 2.028 . S
O201 C204 1.250 . S
O202 Mg203 2.028 . S
O202 C204 1.248 . S
Mg203 O202 2.028 . S
Mg203 O208 2.032 . S
Mg203 O210 2.079 . S
C204 O201 1.250 . S
C204 O202 1.248 . S
C205 O206 1.264 . S
C205 O213 1.249 . S
O206 C205 1.264 . S
O207 Mg200 1.986 . S
O207 C211 1.246 . S
O208 Mg203 2.032 . S
O208 C211 1.259 . S
O209 Mg200 2.114 . S
O209 C212 1.252 . S
O210 Mg200 2.251 . S
O210 Mg203 2.079 . S
O210 C212 1.273 . S
C211 O207 1.246 . S
C211 O208 1.259 . S
C212 O209 1.252 . S
C212 O210 1.273 . S
O213 Mg200 2.010 . S
O213 C205 1.249 . S
Mg214 O215 2.028 . S
Mg214 O221 1.986 . S
Mg214 O223 2.114 . S
Mg214 O224 2.251 . S
Mg214 O227 2.010 . S
O215 Mg214 2.028 . S
O215 C218 1.250 . S
O216 Mg217 2.028 . S
O216 C218 1.248 . S
Mg217 O216 2.028 . S
Mg217 O222 2.032 . S
Mg217 O224 2.079 . S
C218 O215 1.250 . S
C218 O216 1.248 . S
C219 O220 1.264 . S
C219 O227 1.249 . S
O220 C219 1.264 . S
O221 Mg214 1.986 . S
O221 C225 1.246 . S
O222 Mg217 2.032 . S
O222 C225 1.259 . S
O223 Mg214 2.114 . S
O223 C226 1.252 . S
O224 Mg214 2.251 . S
O224 Mg217 2.079 . S
O224 C226 1.273 . S
C225 O221 1.246 . S
C225 O222 1.259 . S
C226 O223 1.252 . S
C226 O224 1.273 . S
O227 Mg214 2.010 . S
O227 C219 1.249 . S
Mg228 O229 2.028 . S
Mg228 O235 1.986 . S
Mg228 O237 2.114 . S
Mg228 O238 2.251 . S
Mg228 O241 2.010 . S
O229 Mg228 2.028 . S
O229 C232 1.250 . S
O230 Mg231 2.028 . S
O230 C232 1.248 . S
Mg231 O230 2.028 . S
Mg231 O236 2.032 . S
Mg231 O238 2.079 . S
C232 O229 1.250 . S
C232 O230 1.248 . S
C233 O234 1.264 . S
C233 O241 1.249 . S
O234 C233 1.264 . S
O235 Mg228 1.986 . S
O235 C239 1.246 . S
O236 Mg231 2.032 . S
O236 C239 1.259 . S
O237 Mg228 2.114 . S
O237 C240 1.252 . S
O238 Mg228 2.251 . S
O238 Mg231 2.079 . S
O238 C240 1.273 . S
C239 O235 1.246 . S
C239 O236 1.259 . S
C240 O237 1.252 . S
C240 O238 1.273 . S
O241 Mg228 2.010 . S
O241 C233 1.249 . S
Mg242 O243 2.028 1_545 S
Mg242 O249 1.986 1_545 S
Mg242 O251 2.114 . S
Mg242 O252 2.251 . S
Mg242 O255 2.010 . S
O243 Mg242 2.028 1_565 S
O243 C246 1.250 . S
O244 Mg245 2.028 . S
O244 C246 1.248 . S
Mg245 O244 2.028 . S
Mg245 O250 2.032 . S
Mg245 O252 2.079 1_565 S
C246 O243 1.250 . S
C246 O244 1.248 . S
C247 O248 1.264 . S
C247 O255 1.249 . S
O248 C247 1.264 . S
O249 Mg242 1.986 1_565 S
O249 C253 1.246 . S
O250 Mg245 2.032 . S
O250 C253 1.259 . S
O251 Mg242 2.114 . S
O251 C254 1.252 . S
O252 Mg242 2.251 . S
O252 Mg245 2.079 1_545 S
O252 C254 1.273 . S
C253 O249 1.246 . S
C253 O250 1.259 . S
C254 O251 1.252 . S
C254 O252 1.273 . S
O255 Mg242 2.010 . S
O255 C247 1.249 . S
Mg256 O257 2.053 . S
Mg256 O263 1.986 . S
Mg256 O265 2.114 . S
Mg256 O266 2.251 . S
Mg256 O269 2.010 . S
O257 Mg256 2.053 . S
O257 C260 1.215 1_455 S
O258 Mg259 2.028 . S
O258 C260 1.248 . S
Mg259 O258 2.028 . S
Mg259 O264 2.032 . S
Mg259 O266 2.079 1_655 S
C260 O257 1.215 1_655 S
C260 O258 1.248 . S
C261 O262 1.264 . S
C261 O269 1.249 . S
O262 C261 1.264 . S
O263 Mg256 1.986 . S
O263 C267 1.246 . S
O264 Mg259 2.032 . S
O264 C267 1.259 1_655 S
O265 Mg256 2.114 . S
O265 C268 1.252 . S
O266 Mg256 2.251 . S
O266 Mg259 2.079 1_455 S
O266 C268 1.273 . S
C267 O263 1.246 . S
C267 O264 1.259 1_455 S
C268 O265 1.252 . S
C268 O266 1.273 . S
O269 Mg256 2.010 . S
O269 C261 1.249 . S
Mg270 O271 2.028 . S
Mg270 O277 1.986 . S
Mg270 O279 2.114 . S
Mg270 O280 2.251 . S
Mg270 O283 2.010 . S
O271 Mg270 2.028 . S
O271 C274 1.250 . S
O272 Mg273 2.028 . S
O272 C274 1.248 . S
Mg273 O272 2.028 . S
Mg273 O278 2.032 . S
Mg273 O280 2.079 . S
C274 O271 1.250 . S
C274 O272 1.248 . S
C275 O276 1.264 . S
C275 O283 1.249 . S
O276 C275 1.264 . S
O277 Mg270 1.986 . S
O277 C281 1.246 . S
O278 Mg273 2.032 . S
O278 C281 1.259 . S
O279 Mg270 2.114 . S
O279 C282 1.252 . S
O280 Mg270 2.251 . S
O280 Mg273 2.079 . S
O280 C282 1.273 . S
C281 O277 1.246 . S
C281 O278 1.259 . S
C282 O279 1.252 . S
C282 O280 1.273 . S
O283 Mg270 2.010 . S
O283 C275 1.249 . S
Mg284 O285 2.028 1_655 S
Mg284 O291 1.986 . S
Mg284 O293 2.114 . S
Mg284 O294 2.251 1_655 S
Mg284 O297 2.010 . S
O285 Mg284 2.028 1_455 S
O285 C288 1.250 . S
O286 Mg287 2.028 . S
O286 C288 1.248 . S
Mg287 O286 2.028 . S
Mg287 O292 2.032 . S
Mg287 O294 2.079 . S
C288 O285 1.250 . S
C288 O286 1.248 . S
C289 O290 1.264 . S
C289 O297 1.249 . S
O290 C289 1.264 . S
O291 Mg284 1.986 . S
O291 C295 1.246 1_655 S
O292 Mg287 2.032 . S
O292 C295 1.259 . S
O293 Mg284 2.114 . S
O293 C296 1.252 . S
O294 Mg284 2.251 1_455 S
O294 Mg287 2.079 . S
O294 C296 1.273 1_455 S
C295 O291 1.246 1_455 S
C295 O292 1.259 . S
C296 O293 1.252 . S
C296 O294 1.273 1_655 S
O297 Mg284 2.010 . S
O297 C289 1.249 . S
Mg298 O299 2.028 . S
Mg298 O305 1.986 . S
Mg298 O307 2.114 . S
Mg298 O308 2.251 . S
Mg298 O311 2.010 . S
O299 Mg298 2.028 . S
O299 C302 1.250 . S
O300 Mg301 2.028 . S
O300 C302 1.248 . S
Mg301 O300 2.028 . S
Mg301 O306 2.032 . S
Mg301 O308 2.079 . S
C302 O299 1.250 . S
C302 O300 1.248 . S
C303 O304 1.264 . S
C303 O311 1.249 . S
O304 C303 1.264 . S
O305 Mg298 1.986 . S
O305 C309 1.246 . S
O306 Mg301 2.032 . S
O306 C309 1.259 . S
O307 Mg298 2.114 . S
O307 C310 1.252 . S
O308 Mg298 2.251 . S
O308 Mg301 2.079 . S
O308 C310 1.273 . S
C309 O305 1.246 . S
C309 O306 1.259 . S
C310 O307 1.252 . S
C310 O308 1.273 . S
O311 Mg298 2.010 . S
O311 C303 1.249 . S
C312 C313 1.391 . S
C312 C314 1.394 . S
C312 H328 0.931 . S
C313 C312 1.391 . S
C313 C317 1.376 . S
C314 C312 1.394 . S
C314 C315 1.369 . S
C314 C318 1.531 . S
C315 C314 1.369 . S
C315 C316 1.410 . S
C315 C323 1.503 . S
C316 C315 1.410 . S
C316 C317 1.392 . S
C316 C319 1.511 . S
C317 C313 1.376 . S
C317 C316 1.392 . S
C317 H329 0.929 . S
C318 C314 1.531 . S
C318 H330 0.960 . S
C318 H331 0.962 . S
C318 H332 0.960 . S
C319 C316 1.511 . S
C319 H333 0.961 . S
C319 H334 0.961 . S
C319 H335 0.961 . S
C320 C321 1.370 . S
C320 C322 1.363 . S
C320 H336 0.931 . S
C321 C320 1.370 . S
C321 C325 1.408 . S
C322 C320 1.363 . S
C322 C323 1.370 . S
C322 C326 1.524 . S
C323 C315 1.503 . S
C323 C322 1.370 . S
C323 C324 1.403 . S
C324 C323 1.403 . S
C324 C325 1.404 . S
C324 C327 1.539 . S
C325 C321 1.408 . S
C325 C324 1.404 . S
C325 H337 0.930 . S
C326 C322 1.524 . S
C326 H338 0.956 . S
C326 H339 0.961 . S
C326 H340 0.961 . S
C327 C324 1.539 . S
C327 H341 0.958 . S
C327 H342 0.961 . S
C327 H343 0.960 . S
H328 C312 0.931 . S
H329 C317 0.929 . S
H330 C318 0.960 . S
H331 C318 0.962 . S
H332 C318 0.960 . S
H333 C319 0.961 . S
H334 C319 0.961 . S
H335 C319 0.961 . S
H336 C320 0.931 . S
H337 C325 0.930 . S
H338 C326 0.956 . S
H339 C326 0.961 . S
H340 C326 0.961 . S
H341 C327 0.958 . S
H342 C327 0.961 . S
H343 C327 0.960 . S
C344 C345 1.391 1_655 S
C344 C346 1.394 1_655 S
C344 H360 0.931 . S
C345 C344 1.391 1_455 S
C345 C349 1.376 . S
C346 C344 1.394 1_455 S
C346 C347 1.369 . S
C346 C350 1.531 1_455 S
C347 C346 1.369 . S
C347 C348 1.410 . S
C347 C355 1.503 . S
C348 C347 1.410 . S
C348 C349 1.392 . S
C348 C351 1.511 . S
C349 C345 1.376 . S
C349 C348 1.392 . S
C349 H361 0.929 . S
C350 C346 1.531 1_655 S
C350 H362 0.960 1_655 S
C350 H363 0.962 . S
C350 H364 0.960 . S
C351 C348 1.511 . S
C351 H365 0.961 . S
C351 H366 0.961 . S
C351 H367 0.961 . S
C352 C353 1.370 . S
C352 C354 1.363 . S
C352 H368 0.931 . S
C353 C352 1.370 . S
C353 C357 1.408 . S
C354 C352 1.363 . S
C354 C355 1.370 . S
C354 C358 1.524 . S
C355 C347 1.503 . S
C355 C354 1.370 . S
C355 C356 1.403 . S
C356 C355 1.403 . S
C356 C357 1.404 . S
C356 C359 1.539 . S
C357 C353 1.408 . S
C357 C356 1.404 . S
C357 H369 0.930 . S
C358 C354 1.524 . S
C358 H370 0.956 . S
C358 H371 0.961 . S
C358 H372 0.961 . S
C359 C356 1.539 . S
C359 H373 0.958 . S
C359 H374 0.961 . S
C359 H375 0.960 . S
H360 C344 0.931 . S
H361 C349 0.929 . S
H362 C350 0.960 1_455 S
H363 C350 0.962 . S
H364 C350 0.960 . S
H365 C351 0.961 . S
H366 C351 0.961 . S
H367 C351 0.961 . S
H368 C352 0.931 . S
H369 C357 0.930 . S
H370 C358 0.956 . S
H371 C358 0.961 . S
H372 C358 0.961 . S
H373 C359 0.958 . S
H374 C359 0.961 . S
H375 C359 0.960 . S
C376 C377 1.391 . S
C376 C378 1.394 . S
C376 H392 0.931 . S
C377 C376 1.391 . S
C377 C381 1.376 . S
C378 C376 1.394 . S
C378 C379 1.369 . S
C378 C382 1.531 . S
C379 C378 1.369 . S
C379 C380 1.410 . S
C379 C387 1.503 . S
C380 C379 1.410 . S
C380 C381 1.392 . S
C380 C383 1.511 . S
C381 C377 1.376 . S
C381 C380 1.392 . S
C381 H393 0.929 . S
C382 C378 1.531 . S
C382 H394 0.960 . S
C382 H395 0.962 . S
C382 H396 0.960 . S
C383 C380 1.511 . S
C383 H397 0.961 . S
C383 H398 0.961 . S
C383 H399 0.961 . S
C384 C385 1.370 . S
C384 C386 1.363 . S
C384 H400 0.931 . S
C385 C384 1.370 . S
C385 C389 1.408 . S
C386 C384 1.363 . S
C386 C387 1.370 . S
C386 C390 1.524 . S
C387 C379 1.503 . S
C387 C386 1.370 . S
C387 C388 1.403 . S
C388 C387 1.403 . S
C388 C389 1.404 . S
C388 C391 1.539 . S
C389 C385 1.408 . S
C389 C388 1.404 . S
C389 H401 0.930 . S
C390 C386 1.524 . S
C390 H402 0.956 . S
C390 H403 0.961 . S
C390 H404 0.961 . S
C391 C388 1.539 . S
C391 H405 0.958 . S
C391 H406 0.961 . S
C391 H407 0.960 . S
H392 C376 0.931 . S
H393 C381 0.929 . S
H394 C382 0.960 . S
H395 C382 0.962 . S
H396 C382 0.960 . S
H397 C383 0.961 . S
H398 C383 0.961 . S
H399 C383 0.961 . S
H400 C384 0.931 . S
H401 C389 0.930 . S
H402 C390 0.956 . S
H403 C390 0.961 . S
H404 C390 0.961 . S
H405 C391 0.958 . S
H406 C391 0.961 . S
H407 C391 0.960 . S
C408 C409 1.391 1_655 S
C408 C410 1.394 . S
C408 H424 0.931 . S
C409 C408 1.391 1_455 S
C409 C413 1.376 . S
C410 C408 1.394 . S
C410 C411 1.369 . S
C410 C414 1.531 . S
C411 C410 1.369 . S
C411 C412 1.410 1_655 S
C411 C419 1.503 . S
C412 C411 1.410 1_455 S
C412 C413 1.392 . S
C412 C415 1.511 1_565 S
C413 C409 1.376 . S
C413 C412 1.392 . S
C413 H425 0.929 . S
C414 C410 1.531 . S
C414 H426 0.962 1_565 S
C414 H427 0.962 . S
C414 H428 0.960 . S
C415 C412 1.511 1_545 S
C415 H429 0.961 1_545 S
C415 H430 0.968 . S
C415 H431 0.961 . S
C416 C417 1.370 1_565 S
C416 C418 1.363 . S
C416 H432 0.931 . S
C417 C416 1.370 1_545 S
C417 C421 1.408 . S
C418 C416 1.363 . S
C418 C419 1.370 . S
C418 C422 1.524 . S
C419 C411 1.503 . S
C419 C418 1.370 . S
C419 C420 1.403 1_565 S
C420 C419 1.403 1_545 S
C420 C421 1.404 . S
C420 C423 1.539 . S
C421 C417 1.408 . S
C421 C420 1.404 . S
C421 H433 0.930 . S
C422 C418 1.524 . S
C422 H434 0.956 . S
C422 H435 0.961 . S
C422 H436 0.961 . S
C423 C420 1.539 . S
C423 H437 0.958 . S
C423 H438 0.961 . S
C423 H439 0.960 . S
H424 C408 0.931 . S
H425 C413 0.929 . S
H426 C414 0.962 1_545 S
H427 C414 0.962 . S
H428 C414 0.960 . S
H429 C415 0.961 1_565 S
H430 C415 0.968 . S
H431 C415 0.961 . S
H432 C416 0.931 . S
H433 C421 0.930 . S
H434 C422 0.956 . S
H435 C422 0.961 . S
H436 C422 0.961 . S
H437 C423 0.958 . S
H438 C423 0.961 . S
H439 C423 0.960 . S
C440 C441 1.391 . S
C440 C442 1.394 . S
C440 H456 0.931 . S
C441 C440 1.391 . S
C441 C445 1.376 . S
C442 C440 1.394 . S
C442 C443 1.369 . S
C442 C446 1.531 . S
C443 C442 1.369 . S
C443 C444 1.410 . S
C443 C451 1.503 . S
C444 C443 1.410 . S
C444 C445 1.392 . S
C444 C447 1.511 . S
C445 C441 1.376 . S
C445 C444 1.392 . S
C445 H457 0.929 . S
C446 C442 1.531 . S
C446 H458 0.960 . S
C446 H459 0.962 . S
C446 H460 0.960 . S
C447 C444 1.511 . S
C447 H461 0.961 . S
C447 H462 0.961 . S
C447 H463 0.961 . S
C448 C449 1.370 . S
C448 C450 1.363 . S
C448 H464 0.931 . S
C449 C448 1.370 . S
C449 C453 1.408 . S
C450 C448 1.363 . S
C450 C451 1.370 . S
C450 C454 1.524 . S
C451 C443 1.503 . S
C451 C450 1.370 . S
C451 C452 1.403 . S
C452 C451 1.403 . S
C452 C453 1.404 . S
C452 C455 1.539 . S
C453 C449 1.408 . S
C453 C452 1.404 . S
C453 H465 0.930 . S
C454 C450 1.524 . S
C454 H466 0.956 . S
C454 H467 0.961 . S
C454 H468 0.961 . S
C455 C452 1.539 . S
C455 H469 0.958 . S
C455 H470 0.961 . S
C455 H471 0.960 . S
H456 C440 0.931 . S
H457 C445 0.929 . S
H458 C446 0.960 . S
H459 C446 0.962 . S
H460 C446 0.960 . S
H461 C447 0.961 . S
H462 C447 0.961 . S
H463 C447 0.961 . S
H464 C448 0.931 . S
H465 C453 0.930 . S
H466 C454 0.956 . S
H467 C454 0.961 . S
H468 C454 0.961 . S
H469 C455 0.958 . S
H470 C455 0.961 . S
H471 C455 0.960 . S
C472 C473 1.391 . S
C472 C474 1.394 . S
C472 H488 0.931 . S
C473 C472 1.391 . S
C473 C477 1.376 . S
C474 C472 1.394 . S
C474 C475 1.369 . S
C474 C478 1.531 . S
C475 C474 1.369 . S
C475 C476 1.410 . S
C475 C483 1.503 . S
C476 C475 1.410 . S
C476 C477 1.392 . S
C476 C479 1.511 . S
C477 C473 1.376 . S
C477 C476 1.392 . S
C477 H489 0.929 . S
C478 C474 1.531 . S
C478 H490 0.960 . S
C478 H491 0.962 . S
C478 H492 0.960 . S
C479 C476 1.511 . S
C479 H493 0.961 . S
C479 H494 0.961 . S
C479 H495 0.961 . S
C480 C481 1.370 . S
C480 C482 1.363 . S
C480 H496 0.931 . S
C481 C480 1.370 . S
C481 C485 1.408 . S
C482 C480 1.363 . S
C482 C483 1.370 . S
C482 C486 1.524 . S
C483 C475 1.503 . S
C483 C482 1.370 . S
C483 C484 1.403 . S
C484 C483 1.403 . S
C484 C485 1.404 . S
C484 C487 1.539 . S
C485 C481 1.408 . S
C485 C484 1.404 . S
C485 H497 0.930 . S
C486 C482 1.524 . S
C486 H498 0.956 . S
C486 H499 0.961 . S
C486 H500 0.961 . S
C487 C484 1.539 . S
C487 H501 0.958 . S
C487 H502 0.961 . S
C487 H503 0.960 . S
H488 C472 0.931 . S
H489 C477 0.929 . S
H490 C478 0.960 . S
H491 C478 0.962 . S
H492 C478 0.960 . S
H493 C479 0.961 . S
H494 C479 0.961 . S
H495 C479 0.961 . S
H496 C480 0.931 . S
H497 C485 0.930 . S
H498 C486 0.956 . S
H499 C486 0.961 . S
H500 C486 0.961 . S
H501 C487 0.958 . S
H502 C487 0.961 . S
H503 C487 0.960 . S
C504 C505 1.391 . S
C504 C506 1.394 . S
C504 H520 0.931 . S
C505 C504 1.391 . S
C505 C509 1.376 . S
C506 C504 1.394 . S
C506 C507 1.369 . S
C506 C510 1.531 . S
C507 C506 1.369 . S
C507 C508 1.410 . S
C507 C515 1.503 . S
C508 C507 1.410 . S
C508 C509 1.392 . S
C508 C511 1.511 . S
C509 C505 1.376 . S
C509 C508 1.392 . S
C509 H521 0.929 . S
C510 C506 1.531 . S
C510 H522 0.960 . S
C510 H523 0.962 . S
C510 H524 0.960 . S
C511 C508 1.511 . S
C511 H525 0.961 . S
C511 H526 0.961 . S
C511 H527 0.961 . S
C512 C513 1.370 . S
C512 C514 1.363 . S
C512 H528 0.931 . S
C513 C512 1.370 . S
C513 C517 1.408 . S
C514 C512 1.363 . S
C514 C515 1.370 . S
C514 C518 1.524 . S
C515 C507 1.503 . S
C515 C514 1.370 . S
C515 C516 1.403 . S
C516 C515 1.403 . S
C516 C517 1.404 . S
C516 C519 1.539 . S
C517 C513 1.408 . S
C517 C516 1.404 . S
C517 H529 0.930 . S
C518 C514 1.524 . S
C518 H530 0.956 . S
C518 H531 0.961 . S
C518 H532 0.961 . S
C519 C516 1.539 . S
C519 H533 0.958 . S
C519 H534 0.961 . S
C519 H535 0.960 . S
H520 C504 0.931 . S
H521 C509 0.929 . S
H522 C510 0.960 . S
H523 C510 0.962 . S
H524 C510 0.960 . S
H525 C511 0.961 . S
H526 C511 0.961 . S
H527 C511 0.961 . S
H528 C512 0.931 . S
H529 C517 0.930 . S
H530 C518 0.956 . S
H531 C518 0.961 . S
H532 C518 0.961 . S
H533 C519 0.958 . S
H534 C519 0.961 . S
H535 C519 0.960 . S
C536 C537 1.391 . S
C536 C538 1.394 1_565 S
C536 H552 0.931 1_565 S
C537 C536 1.391 . S
C537 C541 1.376 . S
C538 C536 1.394 1_545 S
C538 C539 1.369 1_545 S
C538 C542 1.531 . S
C539 C538 1.369 1_565 S
C539 C540 1.410 . S
C539 C547 1.503 . S
C540 C539 1.410 . S
C540 C541 1.392 . S
C540 C543 1.511 . S
C541 C537 1.376 . S
C541 C540 1.392 . S
C541 H553 0.929 . S
C542 C538 1.531 . S
C542 H554 0.960 . S
C542 H555 0.962 . S
C542 H556 0.960 . S
C543 C540 1.511 . S
C543 H557 0.961 . S
C543 H558 0.961 . S
C543 H559 0.961 . S
C544 C545 1.370 . S
C544 C546 1.363 . S
C544 H560 0.931 . S
C545 C544 1.370 . S
C545 C549 1.408 . S
C546 C544 1.363 . S
C546 C547 1.370 . S
C546 C550 1.524 . S
C547 C539 1.503 . S
C547 C546 1.370 . S
C547 C548 1.403 . S
C548 C547 1.403 . S
C548 C549 1.404 . S
C548 C551 1.539 . S
C549 C545 1.408 . S
C549 C548 1.404 . S
C549 H561 0.930 . S
C550 C546 1.524 . S
C550 H562 0.956 . S
C550 H563 0.961 . S
C550 H564 0.961 . S
C551 C548 1.539 . S
C551 H565 0.958 1_565 S
C551 H566 0.961 . S
C551 H567 0.960 . S
H552 C536 0.931 1_545 S
H553 C541 0.929 . S
H554 C542 0.960 . S
H555 C542 0.962 . S
H556 C542 0.960 . S
H557 C543 0.961 . S
H558 C543 0.961 . S
H559 C543 0.961 . S
H560 C544 0.931 . S
H561 C549 0.930 . S
H562 C550 0.956 . S
H563 C550 0.961 . S
H564 C550 0.961 . S
H565 C551 0.958 1_545 S
H566 C551 0.961 . S
H567 C551 0.960 . S
C568 C569 1.391 . S
C568 C570 1.394 . S
C568 H584 0.931 . S
C569 C568 1.391 . S
C569 C573 1.376 . S
C570 C568 1.394 . S
C570 C571 1.369 . S
C570 C574 1.531 . S
C571 C570 1.369 . S
C571 C572 1.410 . S
C571 C579 1.503 . S
C572 C571 1.410 . S
C572 C573 1.392 . S
C572 C575 1.511 . S
C573 C569 1.376 . S
C573 C572 1.392 . S
C573 H585 0.929 . S
C574 C570 1.531 . S
C574 H586 0.960 . S
C574 H587 0.962 . S
C574 H588 0.960 . S
C575 C572 1.511 . S
C575 H589 0.961 . S
C575 H590 0.961 . S
C575 H591 0.961 . S
C576 C577 1.370 . S
C576 C578 1.363 . S
C576 H592 0.931 . S
C577 C576 1.370 . S
C577 C581 1.408 . S
C578 C576 1.363 . S
C578 C579 1.370 . S
C578 C582 1.524 . S
C579 C571 1.503 . S
C579 C578 1.370 . S
C579 C580 1.403 . S
C580 C579 1.403 . S
C580 C581 1.404 . S
C580 C583 1.539 . S
C581 C577 1.408 . S
C581 C580 1.404 . S
C581 H593 0.930 . S
C582 C578 1.524 . S
C582 H594 0.956 . S
C582 H595 0.961 . S
C582 H596 0.961 . S
C583 C580 1.539 . S
C583 H597 0.958 . S
C583 H598 0.961 . S
C583 H599 0.960 . S
H584 C568 0.931 . S
H585 C573 0.929 . S
H586 C574 0.960 . S
H587 C574 0.962 . S
H588 C574 0.960 . S
H589 C575 0.961 . S
H590 C575 0.961 . S
H591 C575 0.961 . S
H592 C576 0.931 . S
H593 C581 0.930 . S
H594 C582 0.956 . S
H595 C582 0.961 . S
H596 C582 0.961 . S
H597 C583 0.958 . S
H598 C583 0.961 . S
H599 C583 0.960 . S
C600 C601 1.391 . S
C600 C602 1.394 . S
C600 H616 0.931 . S
C601 C600 1.391 . S
C601 C605 1.376 . S
C602 C600 1.394 . S
C602 C603 1.369 . S
C602 C606 1.531 . S
C603 C602 1.369 . S
C603 C604 1.410 . S
C603 C611 1.503 . S
C604 C603 1.410 . S
C604 C605 1.392 . S
C604 C607 1.511 . S
C605 C601 1.376 . S
C605 C604 1.392 . S
C605 H617 0.929 . S
C606 C602 1.531 . S
C606 H618 0.960 . S
C606 H619 0.962 . S
C606 H620 0.960 . S
C607 C604 1.511 . S
C607 H621 0.961 . S
C607 H622 0.961 . S
C607 H623 0.961 . S
C608 C609 1.370 . S
C608 C610 1.363 . S
C608 H624 0.931 . S
C609 C608 1.370 . S
C609 C613 1.408 . S
C610 C608 1.363 . S
C610 C611 1.370 . S
C610 C614 1.524 . S
C611 C603 1.503 . S
C611 C610 1.370 . S
C611 C612 1.403 . S
C612 C611 1.403 . S
C612 C613 1.404 . S
C612 C615 1.539 . S
C613 C609 1.408 . S
C613 C612 1.404 . S
C613 H625 0.930 . S
C614 C610 1.524 . S
C614 H626 0.956 . S
C614 H627 0.961 . S
C614 H628 0.961 . S
C615 C612 1.539 . S
C615 H629 0.958 . S
C615 H630 0.961 . S
C615 H631 0.960 . S
H616 C600 0.931 . S
H617 C605 0.929 . S
H618 C606 0.960 . S
H619 C606 0.962 . S
H620 C606 0.960 . S
H621 C607 0.961 . S
H622 C607 0.961 . S
H623 C607 0.961 . S
H624 C608 0.931 . S
H625 C613 0.930 . S
H626 C614 0.956 . S
H627 C614 0.961 . S
H628 C614 0.961 . S
H629 C615 0.958 . S
H630 C615 0.961 . S
H631 C615 0.960 . S
C632 C633 1.391 . S
C632 C634 1.394 . S
C632 H648 0.931 . S
C633 C632 1.391 . S
C633 C637 1.376 . S
C634 C632 1.394 . S
C634 C635 1.369 . S
C634 C638 1.531 . S
C635 C634 1.369 . S
C635 C636 1.410 . S
C635 C643 1.503 . S
C636 C635 1.410 . S
C636 C637 1.392 . S
C636 C639 1.511 . S
C637 C633 1.376 . S
C637 C636 1.392 . S
C637 H649 0.929 . S
C638 C634 1.531 . S
C638 H650 0.960 . S
C638 H651 0.962 . S
C638 H652 0.960 . S
C639 C636 1.511 . S
C639 H653 0.961 . S
C639 H654 0.961 . S
C639 H655 0.961 . S
C640 C641 1.370 . S
C640 C642 1.363 . S
C640 H656 0.931 . S
C641 C640 1.370 . S
C641 C645 1.408 . S
C642 C640 1.363 . S
C642 C643 1.370 . S
C642 C646 1.524 . S
C643 C635 1.503 . S
C643 C642 1.370 . S
C643 C644 1.403 . S
C644 C643 1.403 . S
C644 C645 1.404 . S
C644 C647 1.539 . S
C645 C641 1.408 . S
C645 C644 1.404 . S
C645 H657 0.930 . S
C646 C642 1.524 . S
C646 H658 0.956 . S
C646 H659 0.961 . S
C646 H660 0.961 . S
C647 C644 1.539 . S
C647 H661 0.958 . S
C647 H662 0.961 . S
C647 H663 0.960 . S
H648 C632 0.931 . S
H649 C637 0.929 . S
H650 C638 0.960 . S
H651 C638 0.962 . S
H652 C638 0.960 . S
H653 C639 0.961 . S
H654 C639 0.961 . S
H655 C639 0.961 . S
H656 C640 0.931 . S
H657 C645 0.930 . S
H658 C646 0.956 . S
H659 C646 0.961 . S
H660 C646 0.961 . S
H661 C647 0.958 . S
H662 C647 0.961 . S
H663 C647 0.960 . S
C664 C665 1.391 . S
C664 C666 1.394 . S
C664 H680 0.931 . S
C665 C664 1.391 . S
C665 C669 1.376 . S
C666 C664 1.394 . S
C666 C667 1.369 . S
C666 C670 1.531 . S
C667 C666 1.369 . S
C667 C668 1.410 . S
C667 C675 1.503 . S
C668 C667 1.410 . S
C668 C669 1.392 . S
C668 C671 1.511 . S
C669 C665 1.376 . S
C669 C668 1.392 . S
C669 H681 0.929 . S
C670 C666 1.531 . S
C670 H682 0.960 . S
C670 H683 0.962 . S
C670 H684 0.960 . S
C671 C668 1.511 . S
C671 H685 0.961 . S
C671 H686 0.961 . S
C671 H687 0.961 . S
C672 C673 1.370 . S
C672 C674 1.363 . S
C672 H688 0.931 . S
C673 C672 1.370 . S
C673 C677 1.408 . S
C674 C672 1.363 . S
C674 C675 1.370 . S
C674 C678 1.524 . S
C675 C667 1.503 . S
C675 C674 1.370 . S
C675 C676 1.403 . S
C676 C675 1.403 . S
C676 C677 1.404 . S
C676 C679 1.539 . S
C677 C673 1.408 . S
C677 C676 1.404 . S
C677 H689 0.930 . S
C678 C674 1.524 . S
C678 H690 0.956 . S
C678 H691 0.961 . S
C678 H692 0.961 . S
C679 C676 1.539 . S
C679 H693 0.958 . S
C679 H694 0.961 . S
C679 H695 0.960 . S
H680 C664 0.931 . S
H681 C669 0.929 . S
H682 C670 0.960 . S
H683 C670 0.962 . S
H684 C670 0.960 . S
H685 C671 0.961 . S
H686 C671 0.961 . S
H687 C671 0.961 . S
H688 C672 0.931 . S
H689 C677 0.930 . S
H690 C678 0.956 . S
H691 C678 0.961 . S
H692 C678 0.961 . S
H693 C679 0.958 . S
H694 C679 0.961 . S
H695 C679 0.960 . S
C696 C697 1.391 . S
C696 C698 1.394 . S
C696 H712 0.931 . S
C697 C696 1.391 . S
C697 C701 1.376 . S
C698 C696 1.394 . S
C698 C699 1.369 . S
C698 C702 1.531 . S
C699 C698 1.369 . S
C699 C700 1.410 . S
C699 C707 1.503 . S
C700 C699 1.410 . S
C700 C701 1.392 . S
C700 C703 1.511 . S
C701 C697 1.376 . S
C701 C700 1.392 . S
C701 H713 0.929 . S
C702 C698 1.531 . S
C702 H714 0.960 . S
C702 H715 0.962 . S
C702 H716 0.960 . S
C703 C700 1.511 . S
C703 H717 0.961 . S
C703 H718 0.961 . S
C703 H719 0.961 . S
C704 C705 1.370 . S
C704 C706 1.363 . S
C704 H720 0.931 . S
C705 C704 1.370 . S
C705 C709 1.408 . S
C706 C704 1.363 . S
C706 C707 1.370 . S
C706 C710 1.524 . S
C707 C699 1.503 . S
C707 C706 1.370 . S
C707 C708 1.403 . S
C708 C707 1.403 . S
C708 C709 1.404 . S
C708 C711 1.539 . S
C709 C705 1.408 . S
C709 C708 1.404 . S
C709 H721 0.930 . S
C710 C706 1.524 . S
C710 H722 0.956 . S
C710 H723 0.961 . S
C710 H724 0.961 . S
C711 C708 1.539 . S
C711 H725 0.958 . S
C711 H726 0.961 . S
C711 H727 0.960 . S
H712 C696 0.931 . S
H713 C701 0.929 . S
H714 C702 0.960 . S
H715 C702 0.962 . S
H716 C702 0.960 . S
H717 C703 0.961 . S
H718 C703 0.961 . S
H719 C703 0.961 . S
H720 C704 0.931 . S
H721 C709 0.930 . S
H722 C710 0.956 . S
H723 C710 0.961 . S
H724 C710 0.961 . S
H725 C711 0.958 . S
H726 C711 0.961 . S
H727 C711 0.960 . S
C728 C729 1.391 . S
C728 C730 1.394 . S
C728 H744 0.931 . S
C729 C728 1.391 . S
C729 C733 1.376 . S
C730 C728 1.394 . S
C730 C731 1.369 . S
C730 C734 1.531 . S
C731 C730 1.369 . S
C731 C732 1.410 . S
C731 C739 1.503 . S
C732 C731 1.410 . S
C732 C733 1.392 . S
C732 C735 1.511 . S
C733 C729 1.376 . S
C733 C732 1.392 . S
C733 H745 0.929 . S
C734 C730 1.531 . S
C734 H746 0.960 . S
C734 H747 0.962 1_455 S
C734 H748 0.961 . S
C735 C732 1.511 . S
C735 H749 0.961 . S
C735 H750 0.961 . S
C735 H751 0.961 . S
C736 C737 1.370 . S
C736 C738 1.363 . S
C736 H752 0.931 1_455 S
C737 C736 1.370 . S
C737 C741 1.408 . S
C738 C736 1.363 . S
C738 C739 1.370 . S
C738 C742 1.524 1_455 S
C739 C731 1.503 . S
C739 C738 1.370 . S
C739 C740 1.403 . S
C740 C739 1.403 . S
C740 C741 1.404 . S
C740 C743 1.539 . S
C741 C737 1.408 . S
C741 C740 1.404 . S
C741 H753 0.930 . S
C742 C738 1.524 1_655 S
C742 H754 0.956 . S
C742 H755 0.961 1_655 S
C742 H756 0.961 . S
C743 C740 1.539 . S
C743 H757 0.958 . S
C743 H758 0.961 . S
C743 H759 0.960 . S
H744 C728 0.931 . S
H745 C733 0.929 . S
H746 C734 0.960 . S
H747 C734 0.962 1_655 S
H748 C734 0.961 . S
H749 C735 0.961 . S
H750 C735 0.961 . S
H751 C735 0.961 . S
H752 C736 0.931 1_655 S
H753 C741 0.930 . S
H754 C742 0.956 . S
H755 C742 0.961 1_455 S
H756 C742 0.961 . S
H757 C743 0.958 . S
H758 C743 0.961 . S
H759 C743 0.960 . S
C760 C761 1.391 . S
C760 C762 1.394 . S
C760 H776 0.931 . S
C761 C760 1.391 . S
C761 C765 1.376 . S
C762 C760 1.394 . S
C762 C763 1.369 . S
C762 C766 1.531 . S
C763 C762 1.369 . S
C763 C764 1.410 . S
C763 C771 1.503 . S
C764 C763 1.410 . S
C764 C765 1.392 . S
C764 C767 1.511 . S
C765 C761 1.376 . S
C765 C764 1.392 . S
C765 H777 0.929 . S
C766 C762 1.531 . S
C766 H778 0.960 . S
C766 H779 0.962 . S
C766 H780 0.960 . S
C767 C764 1.511 . S
C767 H781 0.961 . S
C767 H782 0.961 . S
C767 H783 0.961 . S
C768 C769 1.370 . S
C768 C770 1.363 . S
C768 H784 0.931 . S
C769 C768 1.370 . S
C769 C773 1.408 . S
C770 C768 1.363 . S
C770 C771 1.370 . S
C770 C774 1.524 . S
C771 C763 1.503 . S
C771 C770 1.370 . S
C771 C772 1.403 . S
C772 C771 1.403 . S
C772 C773 1.404 . S
C772 C775 1.539 . S
C773 C769 1.408 . S
C773 C772 1.404 . S
C773 H785 0.930 . S
C774 C770 1.524 . S
C774 H786 0.956 . S
C774 H787 0.961 . S
C774 H788 0.961 . S
C775 C772 1.539 . S
C775 H789 0.958 . S
C775 H790 0.961 . S
C775 H791 0.960 . S
H776 C760 0.931 . S
H777 C765 0.929 . S
H778 C766 0.960 . S
H779 C766 0.962 . S
H780 C766 0.960 . S
H781 C767 0.961 . S
H782 C767 0.961 . S
H783 C767 0.961 . S
H784 C768 0.931 . S
H785 C773 0.930 . S
H786 C774 0.956 . S
H787 C774 0.961 . S
H788 C774 0.961 . S
H789 C775 0.958 . S
H790 C775 0.961 . S
H791 C775 0.960 . S
C792 C793 1.391 . S
C792 C794 1.394 . S
C792 H808 0.931 . S
C793 C792 1.391 . S
C793 C797 1.376 . S
C794 C792 1.394 . S
C794 C795 1.369 . S
C794 C798 1.531 . S
C795 C794 1.369 . S
C795 C796 1.410 1_655 S
C795 C803 1.503 . S
C796 C795 1.410 1_455 S
C796 C797 1.392 1_455 S
C796 C799 1.511 . S
C797 C793 1.376 . S
C797 C796 1.392 1_655 S
C797 H809 0.929 1_655 S
C798 C794 1.531 . S
C798 H810 0.960 . S
C798 H811 0.962 . S
C798 H812 0.960 . S
C799 C796 1.511 . S
C799 H813 0.961 . S
C799 H814 0.961 . S
C799 H815 0.961 . S
C800 C801 1.370 . S
C800 C802 1.363 . S
C800 H816 0.931 . S
C801 C800 1.370 . S
C801 C805 1.408 . S
C802 C800 1.363 . S
C802 C803 1.370 . S
C802 C806 1.524 . S
C803 C795 1.503 . S
C803 C802 1.370 . S
C803 C804 1.403 . S
C804 C803 1.403 . S
C804 C805 1.404 . S
C804 C807 1.539 . S
C805 C801 1.408 . S
C805 C804 1.404 . S
C805 H817 0.930 . S
C806 C802 1.524 . S
C806 H818 0.956 . S
C806 H819 0.961 . S
C806 H820 0.961 . S
C807 C804 1.539 . S
C807 H821 0.958 . S
C807 H822 0.961 . S
C807 H823 0.960 . S
H808 C792 0.931 . S
H809 C797 0.929 1_455 S
H810 C798 0.960 . S
H811 C798 0.962 . S
H812 C798 0.960 . S
H813 C799 0.961 . S
H814 C799 0.961 . S
H815 C799 0.961 . S
H816 C800 0.931 . S
H817 C805 0.930 . S
H818 C806 0.956 . S
H819 C806 0.961 . S
H820 C806 0.961 . S
H821 C807 0.958 . S
H822 C807 0.961 . S
H823 C807 0.960 . S
C824 C825 1.391 . S
C824 C826 1.394 . S
C824 H840 0.931 . S
C825 C824 1.391 . S
C825 C829 1.376 . S
C826 C824 1.394 . S
C826 C827 1.369 . S
C826 C830 1.531 . S
C827 C826 1.369 . S
C827 C828 1.410 . S
C827 C835 1.503 . S
C828 C827 1.410 . S
C828 C829 1.392 . S
C828 C831 1.511 . S
C829 C825 1.376 . S
C829 C828 1.392 . S
C829 H841 0.929 . S
C830 C826 1.531 . S
C830 H842 0.960 . S
C830 H843 0.962 . S
C830 H844 0.960 . S
C831 C828 1.511 . S
C831 H845 0.961 . S
C831 H846 0.961 . S
C831 H847 0.961 . S
C832 C833 1.370 . S
C832 C834 1.363 . S
C832 H848 0.931 . S
C833 C832 1.370 . S
C833 C837 1.408 . S
C834 C832 1.363 . S
C834 C835 1.370 . S
C834 C838 1.524 . S
C835 C827 1.503 . S
C835 C834 1.370 . S
C835 C836 1.403 . S
C836 C835 1.403 . S
C836 C837 1.404 . S
C836 C839 1.539 . S
C837 C833 1.408 . S
C837 C836 1.404 . S
C837 H849 0.930 . S
C838 C834 1.524 . S
C838 H850 0.956 . S
C838 H851 0.961 . S
C838 H852 0.961 . S
C839 C836 1.539 . S
C839 H853 0.958 . S
C839 H854 0.961 . S
C839 H855 0.960 . S
H840 C824 0.931 . S
H841 C829 0.929 . S
H842 C830 0.960 . S
H843 C830 0.962 . S
H844 C830 0.960 . S
H845 C831 0.961 . S
H846 C831 0.961 . S
H847 C831 0.961 . S
H848 C832 0.931 . S
H849 C837 0.930 . S
H850 C838 0.956 . S
H851 C838 0.961 . S
H852 C838 0.961 . S
H853 C839 0.958 . S
H854 C839 0.961 . S
H855 C839 0.960 . S
C856 C857 1.391 . S
C856 C858 1.394 . S
C856 H872 0.931 . S
C857 C856 1.391 . S
C857 C861 1.376 . S
C858 C856 1.394 . S
C858 C859 1.369 . S
C858 C862 1.531 . S
C859 C858 1.369 . S
C859 C860 1.410 . S
C859 C867 1.503 . S
C860 C859 1.410 . S
C860 C861 1.392 . S
C860 C863 1.511 . S
C861 C857 1.376 . S
C861 C860 1.392 . S
C861 H873 0.929 . S
C862 C858 1.531 . S
C862 H874 0.960 . S
C862 H875 0.962 . S
C862 H876 0.960 . S
C863 C860 1.511 . S
C863 H877 0.961 . S
C863 H878 0.961 . S
C863 H879 0.961 . S
C864 C865 1.370 . S
C864 C866 1.363 . S
C864 H880 0.931 . S
C865 C864 1.370 . S
C865 C869 1.408 . S
C866 C864 1.363 . S
C866 C867 1.370 . S
C866 C870 1.524 . S
C867 C859 1.503 . S
C867 C866 1.370 . S
C867 C868 1.403 . S
C868 C867 1.403 . S
C868 C869 1.404 . S
C868 C871 1.539 . S
C869 C865 1.408 . S
C869 C868 1.404 . S
C869 H881 0.930 . S
C870 C866 1.524 . S
C870 H882 0.956 . S
C870 H883 0.961 . S
C870 H884 0.961 . S
C871 C868 1.539 . S
C871 H885 0.958 . S
C871 H886 0.961 . S
C871 H887 0.960 . S
H872 C856 0.931 . S
H873 C861 0.929 . S
H874 C862 0.960 . S
H875 C862 0.962 . S
H876 C862 0.960 . S
H877 C863 0.961 . S
H878 C863 0.961 . S
H879 C863 0.961 . S
H880 C864 0.931 . S
H881 C869 0.930 . S
H882 C870 0.956 . S
H883 C870 0.961 . S
H884 C870 0.961 . S
H885 C871 0.958 . S
H886 C871 0.961 . S
H887 C871 0.960 . S
C888 C889 1.398 1_554 S
C888 C890 1.394 . S
C888 H904 0.931 . S
C889 C888 1.398 1_556 S
C889 C893 1.381 . S
C890 C888 1.394 . S
C890 C891 1.369 1_554 S
C890 C894 1.531 . S
C891 C890 1.369 1_556 S
C891 C892 1.410 . S
C891 C899 1.503 . S
C892 C891 1.410 . S
C892 C893 1.392 . S
C892 C895 1.511 . S
C893 C889 1.381 . S
C893 C892 1.392 . S
C893 H905 0.942 . S
C894 C890 1.531 . S
C894 H906 0.960 . S
C894 H907 0.962 . S
C894 H908 0.960 . S
C895 C892 1.511 . S
C895 H909 0.961 . S
C895 H910 0.961 . S
C895 H911 0.961 . S
C896 C897 1.370 . S
C896 C898 1.363 . S
C896 H912 0.931 . S
C897 C896 1.370 . S
C897 C901 1.408 . S
C898 C896 1.363 . S
C898 C899 1.370 . S
C898 C902 1.524 . S
C899 C891 1.503 . S
C899 C898 1.370 . S
C899 C900 1.403 . S
C900 C899 1.403 . S
C900 C901 1.404 . S
C900 C903 1.539 . S
C901 C897 1.408 . S
C901 C900 1.404 . S
C901 H913 0.934 . S
C902 C898 1.524 . S
C902 H914 0.956 . S
C902 H915 0.961 . S
C902 H916 0.961 . S
C903 C900 1.539 . S
C903 H917 0.958 1_556 S
C903 H918 0.961 . S
C903 H919 0.959 1_565 S
H904 C888 0.931 . S
H905 C893 0.942 . S
H906 C894 0.960 . S
H907 C894 0.962 . S
H908 C894 0.960 . S
H909 C895 0.961 . S
H910 C895 0.961 . S
H911 C895 0.961 . S
H912 C896 0.931 . S
H913 C901 0.934 . S
H914 C902 0.956 . S
H915 C902 0.961 . S
H916 C902 0.961 . S
H917 C903 0.958 1_554 S
H918 C903 0.961 . S
H919 C903 0.959 1_545 S
C920 C921 1.391 . S
C920 C922 1.394 . S
C920 H936 0.931 . S
C921 C920 1.391 . S
C921 C925 1.376 . S
C922 C920 1.394 . S
C922 C923 1.369 . S
C922 C926 1.531 . S
C923 C922 1.369 . S
C923 C924 1.410 . S
C923 C931 1.503 . S
C924 C923 1.410 . S
C924 C925 1.392 . S
C924 C927 1.511 . S
C925 C921 1.376 . S
C925 C924 1.392 . S
C925 H937 0.929 . S
C926 C922 1.531 . S
C926 H938 0.960 . S
C926 H939 0.962 . S
C926 H940 0.960 . S
C927 C924 1.511 . S
C927 H941 0.961 . S
C927 H942 0.961 . S
C927 H943 0.961 . S
C928 C929 1.370 . S
C928 C930 1.363 . S
C928 H944 0.931 . S
C929 C928 1.370 . S
C929 C933 1.408 . S
C930 C928 1.363 . S
C930 C931 1.370 . S
C930 C934 1.524 . S
C931 C923 1.503 . S
C931 C930 1.370 . S
C931 C932 1.403 . S
C932 C931 1.403 . S
C932 C933 1.404 . S
C932 C935 1.539 . S
C933 C929 1.408 . S
C933 C932 1.404 . S
C933 H945 0.930 . S
C934 C930 1.524 . S
C934 H946 0.956 . S
C934 H947 0.961 . S
C934 H948 0.961 . S
C935 C932 1.539 . S
C935 H949 0.958 . S
C935 H950 0.961 . S
C935 H951 0.960 . S
H936 C920 0.931 . S
H937 C925 0.929 . S
H938 C926 0.960 . S
H939 C926 0.962 . S
H940 C926 0.960 . S
H941 C927 0.961 . S
H942 C927 0.961 . S
H943 C927 0.961 . S
H944 C928 0.931 . S
H945 C933 0.930 . S
H946 C934 0.956 . S
H947 C934 0.961 . S
H948 C934 0.961 . S
H949 C935 0.958 . S
H950 C935 0.961 . S
H951 C935 0.960 . S
C952 C953 1.391 . S
C952 C954 1.394 . S
C952 H968 0.931 . S
C953 C952 1.391 . S
C953 C957 1.376 1_545 S
C954 C952 1.394 . S
C954 C955 1.369 . S
C954 C958 1.531 . S
C955 C954 1.369 . S
C955 C956 1.410 . S
C955 C963 1.503 . S
C956 C955 1.410 . S
C956 C957 1.392 1_545 S
C956 C959 1.511 . S
C957 C953 1.376 1_565 S
C957 C956 1.392 1_565 S
C957 H969 0.929 . S
C958 C954 1.531 . S
C958 H970 0.960 . S
C958 H971 0.962 . S
C958 H972 0.960 . S
C959 C956 1.511 . S
C959 H973 0.961 1_545 S
C959 H974 0.961 . S
C959 H975 0.961 . S
C960 C961 1.370 . S
C960 C962 1.363 . S
C960 H976 0.931 . S
C961 C960 1.370 . S
C961 C965 1.408 . S
C962 C960 1.363 . S
C962 C963 1.370 . S
C962 C966 1.524 . S
C963 C955 1.503 . S
C963 C962 1.370 . S
C963 C964 1.403 . S
C964 C963 1.403 . S
C964 C965 1.404 . S
C964 C967 1.539 . S
C965 C961 1.408 . S
C965 C964 1.404 . S
C965 H977 0.930 . S
C966 C962 1.524 . S
C966 H978 0.956 . S
C966 H979 0.961 . S
C966 H980 0.961 . S
C967 C964 1.539 . S
C967 H981 0.958 . S
C967 H982 0.961 . S
C967 H983 0.960 . S
H968 C952 0.931 . S
H969 C957 0.929 . S
H970 C958 0.960 . S
H971 C958 0.962 . S
H972 C958 0.960 . S
H973 C959 0.961 1_565 S
H974 C959 0.961 . S
H975 C959 0.961 . S
H976 C960 0.931 . S
H977 C965 0.930 . S
H978 C966 0.956 . S
H979 C966 0.961 . S
H980 C966 0.961 . S
H981 C967 0.958 . S
H982 C967 0.961 . S
H983 C967 0.960 . S
C984 C985 1.391 . S
C984 C986 1.394 . S
C984 H1000 0.931 . S
C985 C984 1.391 . S
C985 C989 1.376 . S
C986 C984 1.394 . S
C986 C987 1.369 . S
C986 C990 1.531 . S
C987 C986 1.369 . S
C987 C988 1.410 . S
C987 C995 1.503 . S
C988 C987 1.410 . S
C988 C989 1.392 . S
C988 C991 1.511 . S
C989 C985 1.376 . S
C989 C988 1.392 . S
C989 H1001 0.929 . S
C990 C986 1.531 . S
C990 H1002 0.960 . S
C990 H1003 0.962 . S
C990 H1004 0.960 . S
C991 C988 1.511 . S
C991 H1005 0.961 . S
C991 H1006 0.961 . S
C991 H1007 0.961 . S
C992 C993 1.370 . S
C992 C994 1.363 . S
C992 H1008 0.931 . S
C993 C992 1.370 . S
C993 C997 1.408 . S
C994 C992 1.363 . S
C994 C995 1.370 . S
C994 C998 1.524 . S
C995 C987 1.503 . S
C995 C994 1.370 . S
C995 C996 1.403 . S
C996 C995 1.403 . S
C996 C997 1.404 . S
C996 C999 1.539 . S
C997 C993 1.408 . S
C997 C996 1.404 . S
C997 H1009 0.930 . S
C998 C994 1.524 . S
C998 H1010 0.956 . S
C998 H1011 0.961 . S
C998 H1012 0.961 . S
C999 C996 1.539 . S
C999 H1013 0.958 . S
C999 H1014 0.961 . S
C999 H1015 0.960 . S
H1000 C984 0.931 . S
H1001 C989 0.929 . S
H1002 C990 0.960 . S
H1003 C990 0.962 . S
H1004 C990 0.960 . S
H1005 C991 0.961 . S
H1006 C991 0.961 . S
H1007 C991 0.961 . S
H1008 C992 0.931 . S
H1009 C997 0.930 . S
H1010 C998 0.956 . S
H1011 C998 0.961 . S
H1012 C998 0.961 . S
H1013 C999 0.958 . S
H1014 C999 0.961 . S
H1015 C999 0.960 . S
C1016 C1017 1.391 1_545 S
C1016 C1018 1.394 . S
C1016 H1032 0.931 . S
C1017 C1016 1.391 1_565 S
C1017 C1021 1.376 1_565 S
C1018 C1016 1.394 . S
C1018 C1019 1.369 . S
C1018 C1022 1.531 . S
C1019 C1018 1.369 . S
C1019 C1020 1.410 . S
C1019 C1027 1.503 . S
C1020 C1019 1.410 . S
C1020 C1021 1.392 . S
C1020 C1023 1.511 . S
C1021 C1017 1.376 1_545 S
C1021 C1020 1.392 . S
C1021 H1033 0.929 1_545 S
C1022 C1018 1.531 . S
C1022 H1034 0.960 . S
C1022 H1035 0.962 . S
C1022 H1036 0.960 . S
C1023 C1020 1.511 . S
C1023 H1037 0.961 . S
C1023 H1038 0.961 . S
C1023 H1039 0.961 . S
C1024 C1025 1.370 . S
C1024 C1026 1.363 . S
C1024 H1040 0.931 . S
C1025 C1024 1.370 . S
C1025 C1029 1.408 . S
C1026 C1024 1.363 . S
C1026 C1027 1.370 . S
C1026 C1030 1.524 . S
C1027 C1019 1.503 . S
C1027 C1026 1.370 . S
C1027 C1028 1.403 . S
C1028 C1027 1.403 . S
C1028 C1029 1.404 . S
C1028 C1031 1.539 . S
C1029 C1025 1.408 . S
C1029 C1028 1.404 . S
C1029 H1041 0.930 . S
C1030 C1026 1.524 . S
C1030 H1042 0.956 . S
C1030 H1043 0.961 . S
C1030 H1044 0.961 . S
C1031 C1028 1.539 . S
C1031 H1045 0.958 . S
C1031 H1046 0.961 . S
C1031 H1047 0.960 1_545 S
H1032 C1016 0.931 . S
H1033 C1021 0.929 1_565 S
H1034 C1022 0.960 . S
H1035 C1022 0.962 . S
H1036 C1022 0.960 . S
H1037 C1023 0.961 . S
H1038 C1023 0.961 . S
H1039 C1023 0.961 . S
H1040 C1024 0.931 . S
H1041 C1029 0.930 . S
H1042 C1030 0.956 . S
H1043 C1030 0.961 . S
H1044 C1030 0.961 . S
H1045 C1031 0.958 . S
H1046 C1031 0.961 . S
H1047 C1031 0.960 1_565 S
C1048 C1049 1.391 . S
C1048 C1050 1.394 . S
C1048 H1064 0.931 . S
C1049 C1048 1.391 . S
C1049 C1053 1.376 . S
C1050 C1048 1.394 . S
C1050 C1051 1.369 . S
C1050 C1054 1.531 . S
C1051 C1050 1.369 . S
C1051 C1052 1.410 . S
C1051 C1059 1.503 . S
C1052 C1051 1.410 . S
C1052 C1053 1.392 . S
C1052 C1055 1.511 . S
C1053 C1049 1.376 . S
C1053 C1052 1.392 . S
C1053 H1065 0.929 . S
C1054 C1050 1.531 . S
C1054 H1066 0.960 . S
C1054 H1067 0.962 . S
C1054 H1068 0.960 . S
C1055 C1052 1.511 . S
C1055 H1069 0.961 . S
C1055 H1070 0.961 . S
C1055 H1071 0.961 . S
C1056 C1057 1.370 . S
C1056 C1058 1.363 . S
C1056 H1072 0.931 . S
C1057 C1056 1.370 . S
C1057 C1061 1.408 . S
C1058 C1056 1.363 . S
C1058 C1059 1.370 . S
C1058 C1062 1.524 . S
C1059 C1051 1.503 . S
C1059 C1058 1.370 . S
C1059 C1060 1.403 . S
C1060 C1059 1.403 . S
C1060 C1061 1.404 . S
C1060 C1063 1.539 . S
C1061 C1057 1.408 . S
C1061 C1060 1.404 . S
C1061 H1073 0.930 . S
C1062 C1058 1.524 . S
C1062 H1074 0.956 . S
C1062 H1075 0.961 . S
C1062 H1076 0.961 . S
C1063 C1060 1.539 . S
C1063 H1077 0.958 . S
C1063 H1078 0.961 . S
C1063 H1079 0.960 . S
H1064 C1048 0.931 . S
H1065 C1053 0.929 . S
H1066 C1054 0.960 . S
H1067 C1054 0.962 . S
H1068 C1054 0.960 . S
H1069 C1055 0.961 . S
H1070 C1055 0.961 . S
H1071 C1055 0.961 . S
H1072 C1056 0.931 . S
H1073 C1061 0.930 . S
H1074 C1062 0.956 . S
H1075 C1062 0.961 . S
H1076 C1062 0.961 . S
H1077 C1063 0.958 . S
H1078 C1063 0.961 . S
H1079 C1063 0.960 . S
C1080 C1081 1.391 . S
C1080 C1082 1.394 . S
C1080 H1096 0.931 . S
C1081 C1080 1.391 . S
C1081 C1085 1.376 . S
C1082 C1080 1.394 . S
C1082 C1083 1.369 . S
C1082 C1086 1.531 . S
C1083 C1082 1.369 . S
C1083 C1084 1.410 . S
C1083 C1091 1.503 . S
C1084 C1083 1.410 . S
C1084 C1085 1.392 . S
C1084 C1087 1.511 . S
C1085 C1081 1.376 . S
C1085 C1084 1.392 . S
C1085 H1097 0.929 . S
C1086 C1082 1.531 . S
C1086 H1098 0.960 . S
C1086 H1099 0.962 . S
C1086 H1100 0.960 . S
C1087 C1084 1.511 . S
C1087 H1101 0.961 . S
C1087 H1102 0.961 . S
C1087 H1103 0.961 . S
C1088 C1089 1.370 . S
C1088 C1090 1.363 . S
C1088 H1104 0.931 . S
C1089 C1088 1.370 . S
C1089 C1093 1.408 . S
C1090 C1088 1.363 . S
C1090 C1091 1.370 . S
C1090 C1094 1.524 . S
C1091 C1083 1.503 . S
C1091 C1090 1.370 . S
C1091 C1092 1.403 . S
C1092 C1091 1.403 . S
C1092 C1093 1.404 . S
C1092 C1095 1.539 . S
C1093 C1089 1.408 . S
C1093 C1092 1.404 . S
C1093 H1105 0.930 . S
C1094 C1090 1.524 . S
C1094 H1106 0.956 . S
C1094 H1107 0.961 . S
C1094 H1108 0.961 . S
C1095 C1092 1.539 . S
C1095 H1109 0.958 . S
C1095 H1110 0.961 . S
C1095 H1111 0.960 . S
H1096 C1080 0.931 . S
H1097 C1085 0.929 . S
H1098 C1086 0.960 . S
H1099 C1086 0.962 . S
H1100 C1086 0.960 . S
H1101 C1087 0.961 . S
H1102 C1087 0.961 . S
H1103 C1087 0.961 . S
H1104 C1088 0.931 . S
H1105 C1093 0.930 . S
H1106 C1094 0.956 . S
H1107 C1094 0.961 . S
H1108 C1094 0.961 . S
H1109 C1095 0.958 . S
H1110 C1095 0.961 . S
H1111 C1095 0.960 . S
C1112 C1113 1.391 . S
C1112 C1114 1.394 . S
C1112 H1128 0.931 . S
C1113 C1112 1.391 . S
C1113 C1117 1.376 . S
C1114 C1112 1.394 . S
C1114 C1115 1.369 . S
C1114 C1118 1.533 1_545 S
C1115 C1114 1.369 . S
C1115 C1116 1.410 . S
C1115 C1123 1.503 . S
C1116 C1115 1.410 . S
C1116 C1117 1.392 . S
C1116 C1119 1.511 . S
C1117 C1113 1.376 . S
C1117 C1116 1.392 . S
C1117 H1129 0.929 . S
C1118 C1114 1.533 1_565 S
C1118 H1130 0.962 1_565 S
C1118 H1131 0.957 . S
C1118 H1132 0.961 1_565 S
C1119 C1116 1.511 . S
C1119 H1133 0.961 . S
C1119 H1134 0.961 . S
C1119 H1135 0.961 . S
C1120 C1121 1.370 1_565 S
C1120 C1122 1.363 . S
C1120 H1136 0.931 . S
C1121 C1120 1.370 1_545 S
C1121 C1125 1.408 . S
C1122 C1120 1.363 . S
C1122 C1123 1.370 1_565 S
C1122 C1126 1.524 . S
C1123 C1115 1.503 . S
C1123 C1122 1.370 1_545 S
C1123 C1124 1.403 . S
C1124 C1123 1.403 . S
C1124 C1125 1.404 . S
C1124 C1127 1.539 . S
C1125 C1121 1.408 . S
C1125 C1124 1.404 . S
C1125 H1137 0.930 . S
C1126 C1122 1.524 . S
C1126 H1138 0.956 . S
C1126 H1139 0.961 . S
C1126 H1140 0.961 . S
C1127 C1124 1.539 . S
C1127 H1141 0.958 . S
C1127 H1142 0.961 . S
C1127 H1143 0.960 . S
H1128 C1112 0.931 . S
H1129 C1117 0.929 . S
H1130 C1118 0.962 1_545 S
H1131 C1118 0.957 . S
H1132 C1118 0.961 1_545 S
H1133 C1119 0.961 . S
H1134 C1119 0.961 . S
H1135 C1119 0.961 . S
H1136 C1120 0.931 . S
H1137 C1125 0.930 . S
H1138 C1126 0.956 . S
H1139 C1126 0.961 . S
H1140 C1126 0.961 . S
H1141 C1127 0.958 . S
H1142 C1127 0.961 . S
H1143 C1127 0.960 . S
C1144 C1145 1.391 . S
C1144 C1146 1.394 . S
C1144 H1160 0.931 . S
C1145 C1144 1.391 . S
C1145 C1149 1.376 . S
C1146 C1144 1.394 . S
C1146 C1147 1.369 . S
C1146 C1150 1.531 . S
C1147 C1146 1.369 . S
C1147 C1148 1.410 . S
C1147 C1155 1.503 . S
C1148 C1147 1.410 . S
C1148 C1149 1.392 . S
C1148 C1151 1.511 . S
C1149 C1145 1.376 . S
C1149 C1148 1.392 . S
C1149 H1161 0.929 . S
C1150 C1146 1.531 . S
C1150 H1162 0.960 . S
C1150 H1163 0.962 . S
C1150 H1164 0.960 . S
C1151 C1148 1.511 . S
C1151 H1165 0.961 . S
C1151 H1166 0.961 . S
C1151 H1167 0.961 . S
C1152 C1153 1.370 . S
C1152 C1154 1.363 . S
C1152 H1168 0.931 . S
C1153 C1152 1.370 . S
C1153 C1157 1.408 . S
C1154 C1152 1.363 . S
C1154 C1155 1.370 . S
C1154 C1158 1.524 . S
C1155 C1147 1.503 . S
C1155 C1154 1.370 . S
C1155 C1156 1.403 . S
C1156 C1155 1.403 . S
C1156 C1157 1.404 . S
C1156 C1159 1.539 . S
C1157 C1153 1.408 . S
C1157 C1156 1.404 . S
C1157 H1169 0.930 . S
C1158 C1154 1.524 . S
C1158 H1170 0.956 . S
C1158 H1171 0.961 . S
C1158 H1172 0.961 . S
C1159 C1156 1.539 . S
C1159 H1173 0.958 . S
C1159 H1174 0.961 . S
C1159 H1175 0.960 . S
H1160 C1144 0.931 . S
H1161 C1149 0.929 . S
H1162 C1150 0.960 . S
H1163 C1150 0.962 . S
H1164 C1150 0.960 . S
H1165 C1151 0.961 . S
H1166 C1151 0.961 . S
H1167 C1151 0.961 . S
H1168 C1152 0.931 . S
H1169 C1157 0.930 . S
H1170 C1158 0.956 . S
H1171 C1158 0.961 . S
H1172 C1158 0.961 . S
H1173 C1159 0.958 . S
H1174 C1159 0.961 . S
H1175 C1159 0.960 . S
C1176 C1177 1.391 . S
C1176 C1178 1.394 . S
C1176 H1192 0.931 . S
C1177 C1176 1.391 . S
C1177 C1181 1.376 . S
C1178 C1176 1.394 . S
C1178 C1179 1.369 . S
C1178 C1182 1.531 . S
C1179 C1178 1.369 . S
C1179 C1180 1.410 . S
C1179 C1187 1.503 . S
C1180 C1179 1.410 . S
C1180 C1181 1.392 . S
C1180 C1183 1.511 . S
C1181 C1177 1.376 . S
C1181 C1180 1.392 . S
C1181 H1193 0.929 . S
C1182 C1178 1.531 . S
C1182 H1194 0.960 . S
C1182 H1195 0.962 . S
C1182 H1196 0.960 . S
C1183 C1180 1.511 . S
C1183 H1197 0.961 . S
C1183 H1198 0.961 . S
C1183 H1199 0.961 . S
C1184 C1185 1.370 . S
C1184 C1186 1.363 . S
C1184 H1200 0.931 . S
C1185 C1184 1.370 . S
C1185 C1189 1.408 . S
C1186 C1184 1.363 . S
C1186 C1187 1.370 . S
C1186 C1190 1.524 . S
C1187 C1179 1.503 . S
C1187 C1186 1.370 . S
C1187 C1188 1.403 . S
C1188 C1187 1.403 . S
C1188 C1189 1.404 . S
C1188 C1191 1.539 . S
C1189 C1185 1.408 . S
C1189 C1188 1.404 . S
C1189 H1201 0.930 . S
C1190 C1186 1.524 . S
C1190 H1202 0.956 . S
C1190 H1203 0.961 . S
C1190 H1204 0.961 . S
C1191 C1188 1.539 . S
C1191 H1205 0.958 . S
C1191 H1206 0.961 . S
C1191 H1207 0.960 . S
H1192 C1176 0.931 . S
H1193 C1181 0.929 . S
H1194 C1182 0.960 . S
H1195 C1182 0.962 . S
H1196 C1182 0.960 . S
H1197 C1183 0.961 . S
H1198 C1183 0.961 . S
H1199 C1183 0.961 . S
H1200 C1184 0.931 . S
H1201 C1189 0.930 . S
H1202 C1190 0.956 . S
H1203 C1190 0.961 . S
H1204 C1190 0.961 . S
H1205 C1191 0.958 . S
H1206 C1191 0.961 . S
H1207 C1191 0.960 . S
C1208 C1209 1.391 . S
C1208 C1210 1.394 . S
C1208 H1224 0.931 . S
C1209 C1208 1.391 . S
C1209 C1213 1.376 . S
C1210 C1208 1.394 . S
C1210 C1211 1.369 . S
C1210 C1214 1.531 . S
C1211 C1210 1.369 . S
C1211 C1212 1.410 . S
C1211 C1219 1.503 . S
C1212 C1211 1.410 . S
C1212 C1213 1.392 . S
C1212 C1215 1.511 . S
C1213 C1209 1.376 . S
C1213 C1212 1.392 . S
C1213 H1225 0.929 . S
C1214 C1210 1.531 . S
C1214 H1226 0.960 . S
C1214 H1227 0.962 . S
C1214 H1228 0.960 . S
C1215 C1212 1.511 . S
C1215 H1229 0.961 . S
C1215 H1230 0.961 . S
C1215 H1231 0.961 . S
C1216 C1217 1.370 . S
C1216 C1218 1.363 . S
C1216 H1232 0.931 . S
C1217 C1216 1.370 . S
C1217 C1221 1.408 . S
C1218 C1216 1.363 . S
C1218 C1219 1.370 . S
C1218 C1222 1.524 . S
C1219 C1211 1.503 . S
C1219 C1218 1.370 . S
C1219 C1220 1.403 . S
C1220 C1219 1.403 . S
C1220 C1221 1.404 . S
C1220 C1223 1.539 . S
C1221 C1217 1.408 . S
C1221 C1220 1.404 . S
C1221 H1233 0.930 . S
C1222 C1218 1.524 . S
C1222 H1234 0.956 . S
C1222 H1235 0.961 . S
C1222 H1236 0.961 . S
C1223 C1220 1.539 . S
C1223 H1237 0.958 . S
C1223 H1238 0.961 . S
C1223 H1239 0.960 . S
H1224 C1208 0.931 . S
H1225 C1213 0.929 . S
H1226 C1214 0.960 . S
H1227 C1214 0.962 . S
H1228 C1214 0.960 . S
H1229 C1215 0.961 . S
H1230 C1215 0.961 . S
H1231 C1215 0.961 . S
H1232 C1216 0.931 . S
H1233 C1221 0.930 . S
H1234 C1222 0.956 . S
H1235 C1222 0.961 . S
H1236 C1222 0.961 . S
H1237 C1223 0.958 . S
H1238 C1223 0.961 . S
H1239 C1223 0.960 . S
C1240 C1241 1.392 . S
C1240 C1242 1.394 1_455 S
C1240 H1256 0.931 . S
C1241 C1240 1.392 . S
C1241 C1245 1.370 1_455 S
C1242 C1240 1.394 1_655 S
C1242 C1243 1.369 . S
C1242 C1246 1.531 . S
C1243 C1242 1.369 . S
C1243 C1244 1.410 . S
C1243 C1251 1.503 . S
C1244 C1243 1.410 . S
C1244 C1245 1.392 . S
C1244 C1247 1.511 1_545 S
C1245 C1241 1.370 1_655 S
C1245 C1244 1.392 . S
C1245 H1257 0.929 . S
C1246 C1242 1.531 . S
C1246 H1258 0.960 . S
C1246 H1259 0.962 1_655 S
C1246 H1260 0.960 1_655 S
C1247 C1244 1.511 1_565 S
C1247 H1261 0.961 . S
C1247 H1262 0.961 . S
C1247 H1263 0.961 1_565 S
C1248 C1249 1.370 . S
C1248 C1250 1.363 . S
C1248 H1264 0.931 1_545 S
C1249 C1248 1.370 . S
C1249 C1253 1.408 . S
C1250 C1248 1.363 . S
C1250 C1251 1.370 . S
C1250 C1254 1.524 1_545 S
C1251 C1243 1.503 . S
C1251 C1250 1.370 . S
C1251 C1252 1.403 . S
C1252 C1251 1.403 . S
C1252 C1253 1.404 . S
C1252 C1255 1.539 . S
C1253 C1249 1.408 . S
C1253 C1252 1.404 . S
C1253 H1265 0.930 . S
C1254 C1250 1.524 1_565 S
C1254 H1266 0.956 1_665 S
C1254 H1267 0.961 . S
C1254 H1268 0.961 . S
C1255 C1252 1.539 . S
C1255 H1269 0.958 . S
C1255 H1270 0.961 . S
C1255 H1271 0.960 . S
H1256 C1240 0.931 . S
H1257 C1245 0.929 . S
H1258 C1246 0.960 . S
H1259 C1246 0.962 1_455 S
H1260 C1246 0.960 1_455 S
H1261 C1247 0.961 . S
H1262 C1247 0.961 . S
H1263 C1247 0.961 1_545 S
H1264 C1248 0.931 1_565 S
H1265 C1253 0.930 . S
H1266 C1254 0.956 1_445 S
H1267 C1254 0.961 . S
H1268 C1254 0.961 . S
H1269 C1255 0.958 . S
H1270 C1255 0.961 . S
H1271 C1255 0.960 . S
C1272 C1273 1.391 . S
C1272 C1274 1.394 . S
C1272 H1288 0.931 . S
C1273 C1272 1.391 . S
C1273 C1277 1.376 . S
C1274 C1272 1.394 . S
C1274 C1275 1.369 . S
C1274 C1278 1.531 . S
C1275 C1274 1.369 . S
C1275 C1276 1.410 . S
C1275 C1283 1.503 . S
C1276 C1275 1.410 . S
C1276 C1277 1.392 . S
C1276 C1279 1.511 . S
C1277 C1273 1.376 . S
C1277 C1276 1.392 . S
C1277 H1289 0.929 . S
C1278 C1274 1.531 . S
C1278 H1290 0.960 . S
C1278 H1291 0.962 . S
C1278 H1292 0.960 . S
C1279 C1276 1.511 . S
C1279 H1293 0.961 . S
C1279 H1294 0.961 . S
C1279 H1295 0.961 . S
C1280 C1281 1.370 . S
C1280 C1282 1.363 . S
C1280 H1296 0.931 . S
C1281 C1280 1.370 . S
C1281 C1285 1.408 . S
C1282 C1280 1.363 . S
C1282 C1283 1.370 . S
C1282 C1286 1.524 . S
C1283 C1275 1.503 . S
C1283 C1282 1.370 . S
C1283 C1284 1.403 . S
C1284 C1283 1.403 . S
C1284 C1285 1.404 . S
C1284 C1287 1.539 . S
C1285 C1281 1.408 . S
C1285 C1284 1.404 . S
C1285 H1297 0.930 . S
C1286 C1282 1.524 . S
C1286 H1298 0.956 . S
C1286 H1299 0.961 . S
C1286 H1300 0.961 . S
C1287 C1284 1.539 . S
C1287 H1301 0.958 . S
C1287 H1302 0.961 . S
C1287 H1303 0.960 . S
H1288 C1272 0.931 . S
H1289 C1277 0.929 . S
H1290 C1278 0.960 . S
H1291 C1278 0.962 . S
H1292 C1278 0.960 . S
H1293 C1279 0.961 . S
H1294 C1279 0.961 . S
H1295 C1279 0.961 . S
H1296 C1280 0.931 . S
H1297 C1285 0.930 . S
H1298 C1286 0.956 . S
H1299 C1286 0.961 . S
H1300 C1286 0.961 . S
H1301 C1287 0.958 . S
H1302 C1287 0.961 . S
H1303 C1287 0.960 . S
C1304 C1305 1.391 . S
C1304 C1306 1.394 . S
C1304 H1320 0.931 . S
C1305 C1304 1.391 . S
C1305 C1309 1.376 . S
C1306 C1304 1.394 . S
C1306 C1307 1.369 . S
C1306 C1310 1.531 . S
C1307 C1306 1.369 . S
C1307 C1308 1.410 . S
C1307 C1315 1.503 . S
C1308 C1307 1.410 . S
C1308 C1309 1.392 . S
C1308 C1311 1.511 . S
C1309 C1305 1.376 . S
C1309 C1308 1.392 . S
C1309 H1321 0.929 1_455 S
C1310 C1306 1.531 . S
C1310 H1322 0.960 . S
C1310 H1323 0.962 . S
C1310 H1324 0.960 . S
C1311 C1308 1.511 . S
C1311 H1325 0.961 1_455 S
C1311 H1326 0.961 . S
C1311 H1327 0.961 1_455 S
C1312 C1313 1.370 . S
C1312 C1314 1.363 . S
C1312 H1328 0.931 . S
C1313 C1312 1.370 . S
C1313 C1317 1.408 . S
C1314 C1312 1.363 . S
C1314 C1315 1.370 . S
C1314 C1318 1.524 . S
C1315 C1307 1.503 . S
C1315 C1314 1.370 . S
C1315 C1316 1.403 . S
C1316 C1315 1.403 . S
C1316 C1317 1.404 . S
C1316 C1319 1.539 . S
C1317 C1313 1.408 . S
C1317 C1316 1.404 . S
C1317 H1329 0.930 . S
C1318 C1314 1.524 . S
C1318 H1330 0.956 . S
C1318 H1331 0.961 . S
C1318 H1332 0.961 . S
C1319 C1316 1.539 . S
C1319 H1333 0.958 . S
C1319 H1334 0.961 . S
C1319 H1335 0.960 . S
H1320 C1304 0.931 . S
H1321 C1309 0.929 1_655 S
H1322 C1310 0.960 . S
H1323 C1310 0.962 . S
H1324 C1310 0.960 . S
H1325 C1311 0.961 1_655 S
H1326 C1311 0.961 . S
H1327 C1311 0.961 1_655 S
H1328 C1312 0.931 . S
H1329 C1317 0.930 . S
H1330 C1318 0.956 . S
H1331 C1318 0.961 . S
H1332 C1318 0.961 . S
H1333 C1319 0.958 . S
H1334 C1319 0.961 . S
H1335 C1319 0.960 . S
C1336 C1337 1.391 . S
C1336 C1338 1.394 . S
C1336 H1352 0.931 . S
C1337 C1336 1.391 . S
C1337 C1341 1.376 . S
C1338 C1336 1.394 . S
C1338 C1339 1.369 . S
C1338 C1342 1.531 . S
C1339 C1338 1.369 . S
C1339 C1340 1.410 . S
C1339 C1347 1.503 . S
C1340 C1339 1.410 . S
C1340 C1341 1.392 . S
C1340 C1343 1.511 . S
C1341 C1337 1.376 . S
C1341 C1340 1.392 . S
C1341 H1353 0.929 . S
C1342 C1338 1.531 . S
C1342 H1354 0.960 . S
C1342 H1355 0.962 . S
C1342 H1356 0.960 . S
C1343 C1340 1.511 . S
C1343 H1357 0.961 . S
C1343 H1358 0.961 . S
C1343 H1359 0.961 . S
C1344 C1345 1.370 . S
C1344 C1346 1.363 . S
C1344 H1360 0.931 . S
C1345 C1344 1.370 . S
C1345 C1349 1.408 . S
C1346 C1344 1.363 . S
C1346 C1347 1.370 . S
C1346 C1350 1.524 . S
C1347 C1339 1.503 . S
C1347 C1346 1.370 . S
C1347 C1348 1.403 . S
C1348 C1347 1.403 . S
C1348 C1349 1.404 . S
C1348 C1351 1.539 . S
C1349 C1345 1.408 . S
C1349 C1348 1.404 . S
C1349 H1361 0.930 . S
C1350 C1346 1.524 . S
C1350 H1362 0.956 . S
C1350 H1363 0.961 . S
C1350 H1364 0.961 . S
C1351 C1348 1.539 . S
C1351 H1365 0.958 . S
C1351 H1366 0.961 . S
C1351 H1367 0.960 . S
H1352 C1336 0.931 . S
H1353 C1341 0.929 . S
H1354 C1342 0.960 . S
H1355 C1342 0.962 . S
H1356 C1342 0.960 . S
H1357 C1343 0.961 . S
H1358 C1343 0.961 . S
H1359 C1343 0.961 . S
H1360 C1344 0.931 . S
H1361 C1349 0.930 . S
H1362 C1350 0.956 . S
H1363 C1350 0.961 . S
H1364 C1350 0.961 . S
H1365 C1351 0.958 . S
H1366 C1351 0.961 . S
H1367 C1351 0.960 . S
C1368 C1369 1.391 1_556 S
C1368 C1370 1.394 . S
C1368 H1384 0.931 . S
C1369 C1368 1.391 1_554 S
C1369 C1373 1.376 1_655 S
C1370 C1368 1.394 . S
C1370 C1371 1.369 . S
C1370 C1374 1.531 . S
C1371 C1370 1.369 . S
C1371 C1372 1.410 1_655 S
C1371 C1379 1.500 1_655 S
C1372 C1371 1.410 1_455 S
C1372 C1373 1.392 1_556 S
C1372 C1375 1.511 1_556 S
C1373 C1369 1.376 1_455 S
C1373 C1372 1.392 1_554 S
C1373 H1385 0.929 . S
C1374 C1370 1.531 . S
C1374 H1386 0.960 . S
C1374 H1387 0.962 . S
C1374 H1388 0.960 . S
C1375 C1372 1.511 1_554 S
C1375 H1389 0.961 . S
C1375 H1390 0.961 1_554 S
C1375 H1391 0.961 1_554 S
C1376 C1377 1.370 1_655 S
C1376 C1378 1.363 . S
C1376 H1392 0.931 . S
C1377 C1376 1.370 1_455 S
C1377 C1381 1.408 . S
C1378 C1376 1.363 . S
C1378 C1379 1.361 1_655 S
C1378 C1382 1.524 . S
C1379 C1371 1.500 1_455 S
C1379 C1378 1.361 1_455 S
C1379 C1380 1.416 . S
C1380 C1379 1.416 . S
C1380 C1381 1.404 . S
C1380 C1383 1.539 . S
C1381 C1377 1.408 . S
C1381 C1380 1.404 . S
C1381 H1393 0.930 . S
C1382 C1378 1.524 . S
C1382 H1394 0.956 . S
C1382 H1395 0.963 1_556 S
C1382 H1396 0.961 . S
C1383 C1380 1.539 . S
C1383 H1397 0.958 . S
C1383 H1398 0.961 . S
C1383 H1399 0.960 . S
H1384 C1368 0.931 . S
H1385 C1373 0.929 . S
H1386 C1374 0.960 . S
H1387 C1374 0.962 . S
H1388 C1374 0.960 . S
H1389 C1375 0.961 . S
H1390 C1375 0.961 1_556 S
H1391 C1375 0.961 1_556 S
H1392 C1376 0.931 . S
H1393 C1381 0.930 . S
H1394 C1382 0.956 . S
H1395 C1382 0.963 1_554 S
H1396 C1382 0.961 . S
H1397 C1383 0.958 . S
H1398 C1383 0.961 . S
H1399 C1383 0.960 . S
C1400 C1401 1.391 . S
C1400 C1402 1.394 . S
C1400 H1416 0.931 . S
C1401 C1400 1.391 . S
C1401 C1405 1.376 . S
C1402 C1400 1.394 . S
C1402 C1403 1.369 . S
C1402 C1406 1.531 . S
C1403 C1402 1.369 . S
C1403 C1404 1.410 . S
C1403 C1411 1.503 . S
C1404 C1403 1.410 . S
C1404 C1405 1.392 . S
C1404 C1407 1.511 . S
C1405 C1401 1.376 . S
C1405 C1404 1.392 . S
C1405 H1417 0.929 . S
C1406 C1402 1.531 . S
C1406 H1418 0.960 . S
C1406 H1419 0.962 . S
C1406 H1420 0.960 . S
C1407 C1404 1.511 . S
C1407 H1421 0.961 . S
C1407 H1422 0.961 . S
C1407 H1423 0.961 . S
C1408 C1409 1.370 . S
C1408 C1410 1.363 . S
C1408 H1424 0.931 . S
C1409 C1408 1.370 . S
C1409 C1413 1.408 . S
C1410 C1408 1.363 . S
C1410 C1411 1.370 . S
C1410 C1414 1.524 . S
C1411 C1403 1.503 . S
C1411 C1410 1.370 . S
C1411 C1412 1.403 . S
C1412 C1411 1.403 . S
C1412 C1413 1.404 . S
C1412 C1415 1.539 . S
C1413 C1409 1.408 . S
C1413 C1412 1.404 . S
C1413 H1425 0.930 . S
C1414 C1410 1.524 . S
C1414 H1426 0.956 . S
C1414 H1427 0.961 . S
C1414 H1428 0.961 . S
C1415 C1412 1.539 . S
C1415 H1429 0.958 . S
C1415 H1430 0.961 . S
C1415 H1431 0.960 . S
H1416 C1400 0.931 . S
H1417 C1405 0.929 . S
H1418 C1406 0.960 . S
H1419 C1406 0.962 . S
H1420 C1406 0.960 . S
H1421 C1407 0.961 . S
H1422 C1407 0.961 . S
H1423 C1407 0.961 . S
H1424 C1408 0.931 . S
H1425 C1413 0.930 . S
H1426 C1414 0.956 . S
H1427 C1414 0.961 . S
H1428 C1414 0.961 . S
H1429 C1415 0.958 . S
H1430 C1415 0.961 . S
H1431 C1415 0.960 . S
C1432 C1433 1.391 . S
C1432 C1434 1.394 . S
C1432 H1448 0.931 . S
C1433 C1432 1.391 . S
C1433 C1437 1.376 . S
C1434 C1432 1.394 . S
C1434 C1435 1.369 . S
C1434 C1438 1.531 . S
C1435 C1434 1.369 . S
C1435 C1436 1.410 . S
C1435 C1443 1.503 . S
C1436 C1435 1.410 . S
C1436 C1437 1.392 . S
C1436 C1439 1.511 1_455 S
C1437 C1433 1.376 . S
C1437 C1436 1.392 . S
C1437 H1449 0.929 1_455 S
C1438 C1434 1.531 . S
C1438 H1450 0.960 . S
C1438 H1451 0.962 . S
C1438 H1452 0.960 . S
C1439 C1436 1.511 1_655 S
C1439 H1453 0.961 . S
C1439 H1454 0.961 . S
C1439 H1455 0.961 . S
C1440 C1441 1.370 . S
C1440 C1442 1.363 . S
C1440 H1456 0.931 . S
C1441 C1440 1.370 . S
C1441 C1445 1.408 . S
C1442 C1440 1.363 . S
C1442 C1443 1.370 . S
C1442 C1446 1.524 . S
C1443 C1435 1.503 . S
C1443 C1442 1.370 . S
C1443 C1444 1.403 . S
C1444 C1443 1.403 . S
C1444 C1445 1.404 . S
C1444 C1447 1.539 . S
C1445 C1441 1.408 . S
C1445 C1444 1.404 . S
C1445 H1457 0.930 . S
C1446 C1442 1.524 . S
C1446 H1458 0.956 . S
C1446 H1459 0.932 1_455 S
C1446 H1460 0.961 . S
C1447 C1444 1.539 . S
C1447 H1461 0.958 . S
C1447 H1462 0.961 . S
C1447 H1463 0.960 . S
H1448 C1432 0.931 . S
H1449 C1437 0.929 1_655 S
H1450 C1438 0.960 . S
H1451 C1438 0.962 . S
H1452 C1438 0.960 . S
H1453 C1439 0.961 . S
H1454 C1439 0.961 . S
H1455 C1439 0.961 . S
H1456 C1440 0.931 . S
H1457 C1445 0.930 . S
H1458 C1446 0.956 . S
H1459 C1446 0.932 1_655 S
H1460 C1446 0.961 . S
H1461 C1447 0.958 . S
H1462 C1447 0.961 . S
H1463 C1447 0.960 . S
C1464 C1465 1.391 . S
C1464 C1466 1.394 . S
C1464 H1480 0.931 . S
C1465 C1464 1.391 . S
C1465 C1469 1.376 . S
C1466 C1464 1.394 . S
C1466 C1467 1.369 . S
C1466 C1470 1.531 . S
C1467 C1466 1.369 . S
C1467 C1468 1.410 . S
C1467 C1475 1.503 . S
C1468 C1467 1.410 . S
C1468 C1469 1.392 . S
C1468 C1471 1.511 . S
C1469 C1465 1.376 . S
C1469 C1468 1.392 . S
C1469 H1481 0.929 . S
C1470 C1466 1.531 . S
C1470 H1482 0.960 . S
C1470 H1483 0.962 . S
C1470 H1484 0.960 . S
C1471 C1468 1.511 . S
C1471 H1485 0.961 . S
C1471 H1486 0.961 . S
C1471 H1487 0.961 . S
C1472 C1473 1.370 . S
C1472 C1474 1.363 . S
C1472 H1488 0.931 . S
C1473 C1472 1.370 . S
C1473 C1477 1.408 . S
C1474 C1472 1.363 . S
C1474 C1475 1.370 . S
C1474 C1478 1.524 . S
C1475 C1467 1.503 . S
C1475 C1474 1.370 . S
C1475 C1476 1.403 . S
C1476 C1475 1.403 . S
C1476 C1477 1.404 . S
C1476 C1479 1.539 . S
C1477 C1473 1.408 . S
C1477 C1476 1.404 . S
C1477 H1489 0.930 . S
C1478 C1474 1.524 . S
C1478 H1490 0.956 . S
C1478 H1491 0.961 . S
C1478 H1492 0.961 . S
C1479 C1476 1.539 . S
C1479 H1493 0.958 . S
C1479 H1494 0.961 . S
C1479 H1495 0.960 . S
H1480 C1464 0.931 . S
H1481 C1469 0.929 . S
H1482 C1470 0.960 . S
H1483 C1470 0.962 . S
H1484 C1470 0.960 . S
H1485 C1471 0.961 . S
H1486 C1471 0.961 . S
H1487 C1471 0.961 . S
H1488 C1472 0.931 . S
H1489 C1477 0.930 . S
H1490 C1478 0.956 . S
H1491 C1478 0.961 . S
H1492 C1478 0.961 . S
H1493 C1479 0.958 . S
H1494 C1479 0.961 . S
H1495 C1479 0.960 . S
C1496 C1497 1.391 1_554 S
C1496 C1498 1.394 . S
C1496 H1512 0.931 . S
C1497 C1496 1.391 1_556 S
C1497 C1501 1.376 . S
C1498 C1496 1.394 . S
C1498 C1499 1.369 . S
C1498 C1502 1.531 . S
C1499 C1498 1.369 . S
C1499 C1500 1.396 1_554 S
C1499 C1507 1.503 . S
C1500 C1499 1.396 1_556 S
C1500 C1501 1.400 . S
C1500 C1503 1.517 . S
C1501 C1497 1.376 . S
C1501 C1500 1.400 . S
C1501 H1513 0.929 . S
C1502 C1498 1.531 . S
C1502 H1514 0.960 . S
C1502 H1515 0.962 . S
C1502 H1516 0.960 . S
C1503 C1500 1.517 . S
C1503 H1517 0.961 . S
C1503 H1518 0.961 . S
C1503 H1519 0.961 . S
C1504 C1505 1.370 . S
C1504 C1506 1.363 . S
C1504 H1520 0.931 . S
C1505 C1504 1.370 . S
C1505 C1509 1.408 . S
C1506 C1504 1.363 . S
C1506 C1507 1.370 . S
C1506 C1510 1.524 . S
C1507 C1499 1.503 . S
C1507 C1506 1.370 . S
C1507 C1508 1.403 . S
C1508 C1507 1.403 . S
C1508 C1509 1.404 . S
C1508 C1511 1.539 . S
C1509 C1505 1.408 . S
C1509 C1508 1.404 . S
C1509 H1521 0.930 . S
C1510 C1506 1.524 . S
C1510 H1522 0.956 . S
C1510 H1523 0.961 . S
C1510 H1524 0.961 . S
C1511 C1508 1.539 . S
C1511 H1525 0.958 . S
C1511 H1526 0.961 . S
C1511 H1527 0.960 . S
H1512 C1496 0.931 . S
H1513 C1501 0.929 . S
H1514 C1502 0.960 . S
H1515 C1502 0.962 . S
H1516 C1502 0.960 . S
H1517 C1503 0.961 . S
H1518 C1503 0.961 . S
H1519 C1503 0.961 . S
H1520 C1504 0.931 . S
H1521 C1509 0.930 . S
H1522 C1510 0.956 . S
H1523 C1510 0.961 . S
H1524 C1510 0.961 . S
H1525 C1511 0.958 . S
H1526 C1511 0.961 . S
H1527 C1511 0.960 . S
C1528 C1529 1.391 . S
C1528 C1530 1.394 . S
C1528 H1544 0.931 . S
C1529 C1528 1.391 . S
C1529 C1533 1.376 . S
C1530 C1528 1.394 . S
C1530 C1531 1.369 . S
C1530 C1534 1.531 . S
C1531 C1530 1.369 . S
C1531 C1532 1.410 . S
C1531 C1539 1.503 . S
C1532 C1531 1.410 . S
C1532 C1533 1.392 . S
C1532 C1535 1.511 . S
C1533 C1529 1.376 . S
C1533 C1532 1.392 . S
C1533 H1545 0.929 . S
C1534 C1530 1.531 . S
C1534 H1546 0.960 . S
C1534 H1547 0.962 . S
C1534 H1548 0.960 . S
C1535 C1532 1.511 . S
C1535 H1549 0.961 . S
C1535 H1550 0.961 . S
C1535 H1551 0.961 . S
C1536 C1537 1.370 . S
C1536 C1538 1.363 . S
C1536 H1552 0.931 . S
C1537 C1536 1.370 . S
C1537 C1541 1.408 . S
C1538 C1536 1.363 . S
C1538 C1539 1.370 . S
C1538 C1542 1.524 . S
C1539 C1531 1.503 . S
C1539 C1538 1.370 . S
C1539 C1540 1.403 . S
C1540 C1539 1.403 . S
C1540 C1541 1.404 . S
C1540 C1543 1.539 . S
C1541 C1537 1.408 . S
C1541 C1540 1.404 . S
C1541 H1553 0.930 . S
C1542 C1538 1.524 . S
C1542 H1554 0.956 . S
C1542 H1555 0.961 . S
C1542 H1556 0.961 . S
C1543 C1540 1.539 . S
C1543 H1557 0.958 . S
C1543 H1558 0.961 . S
C1543 H1559 0.960 . S
H1544 C1528 0.931 . S
H1545 C1533 0.929 . S
H1546 C1534 0.960 . S
H1547 C1534 0.962 . S
H1548 C1534 0.960 . S
H1549 C1535 0.961 . S
H1550 C1535 0.961 . S
H1551 C1535 0.961 . S
H1552 C1536 0.931 . S
H1553 C1541 0.930 . S
H1554 C1542 0.956 . S
H1555 C1542 0.961 . S
H1556 C1542 0.961 . S
H1557 C1543 0.958 . S
H1558 C1543 0.961 . S
H1559 C1543 0.960 . S
C1560 C1561 1.391 . S
C1560 C1562 1.394 . S
C1560 H1576 0.931 . S
C1561 C1560 1.391 . S
C1561 C1565 1.368 1_554 S
C1562 C1560 1.394 . S
C1562 C1563 1.369 . S
C1562 C1566 1.531 . S
C1563 C1562 1.369 . S
C1563 C1564 1.410 . S
C1563 C1571 1.503 . S
C1564 C1563 1.410 . S
C1564 C1565 1.372 1_554 S
C1564 C1567 1.511 . S
C1565 C1561 1.368 1_556 S
C1565 C1564 1.372 1_556 S
C1565 H1577 0.959 . S
C1566 C1562 1.531 . S
C1566 H1578 0.960 . S
C1566 H1579 0.962 . S
C1566 H1580 0.960 . S
C1567 C1564 1.511 . S
C1567 H1581 0.961 1_554 S
C1567 H1582 0.961 . S
C1567 H1583 0.961 . S
C1568 C1569 1.370 . S
C1568 C1570 1.363 . S
C1568 H1584 0.931 . S
C1569 C1568 1.370 . S
C1569 C1573 1.408 . S
C1570 C1568 1.363 . S
C1570 C1571 1.370 . S
C1570 C1574 1.524 . S
C1571 C1563 1.503 . S
C1571 C1570 1.370 . S
C1571 C1572 1.403 . S
C1572 C1571 1.403 . S
C1572 C1573 1.404 . S
C1572 C1575 1.539 . S
C1573 C1569 1.408 . S
C1573 C1572 1.404 . S
C1573 H1585 0.930 . S
C1574 C1570 1.524 . S
C1574 H1586 0.956 . S
C1574 H1587 0.961 . S
C1574 H1588 0.961 . S
C1575 C1572 1.539 . S
C1575 H1589 0.958 . S
C1575 H1590 0.961 . S
C1575 H1591 0.960 . S
H1576 C1560 0.931 . S
H1577 C1565 0.959 . S
H1578 C1566 0.960 . S
H1579 C1566 0.962 . S
H1580 C1566 0.960 . S
H1581 C1567 0.961 1_556 S
H1582 C1567 0.961 . S
H1583 C1567 0.961 . S
H1584 C1568 0.931 . S
H1585 C1573 0.930 . S
H1586 C1574 0.956 . S
H1587 C1574 0.961 . S
H1588 C1574 0.961 . S
H1589 C1575 0.958 . S
H1590 C1575 0.961 . S
H1591 C1575 0.960 . S
C1592 C1593 1.391 . S
C1592 C1594 1.394 . S
C1592 H1608 0.931 . S
C1593 C1592 1.391 . S
C1593 C1597 1.376 . S
C1594 C1592 1.394 . S
C1594 C1595 1.369 . S
C1594 C1598 1.531 . S
C1595 C1594 1.369 . S
C1595 C1596 1.410 . S
C1595 C1603 1.503 . S
C1596 C1595 1.410 . S
C1596 C1597 1.392 . S
C1596 C1599 1.511 . S
C1597 C1593 1.376 . S
C1597 C1596 1.392 . S
C1597 H1609 0.929 . S
C1598 C1594 1.531 . S
C1598 H1610 0.960 . S
C1598 H1611 0.962 . S
C1598 H1612 0.960 . S
C1599 C1596 1.511 . S
C1599 H1613 0.961 . S
C1599 H1614 0.961 . S
C1599 H1615 0.961 . S
C1600 C1601 1.370 . S
C1600 C1602 1.363 . S
C1600 H1616 0.931 . S
C1601 C1600 1.370 . S
C1601 C1605 1.408 . S
C1602 C1600 1.363 . S
C1602 C1603 1.370 . S
C1602 C1606 1.524 . S
C1603 C1595 1.503 . S
C1603 C1602 1.370 . S
C1603 C1604 1.403 . S
C1604 C1603 1.403 . S
C1604 C1605 1.404 . S
C1604 C1607 1.539 . S
C1605 C1601 1.408 . S
C1605 C1604 1.404 . S
C1605 H1617 0.930 . S
C1606 C1602 1.524 . S
C1606 H1618 0.956 . S
C1606 H1619 0.961 . S
C1606 H1620 0.961 . S
C1607 C1604 1.539 . S
C1607 H1621 0.958 . S
C1607 H1622 0.961 . S
C1607 H1623 0.960 . S
H1608 C1592 0.931 . S
H1609 C1597 0.929 . S
H1610 C1598 0.960 . S
H1611 C1598 0.962 . S
H1612 C1598 0.960 . S
H1613 C1599 0.961 . S
H1614 C1599 0.961 . S
H1615 C1599 0.961 . S
H1616 C1600 0.931 . S
H1617 C1605 0.930 . S
H1618 C1606 0.956 . S
H1619 C1606 0.961 . S
H1620 C1606 0.961 . S
H1621 C1607 0.958 . S
H1622 C1607 0.961 . S
H1623 C1607 0.960 . S
C1624 C1625 1.391 . S
C1624 C1626 1.394 . S
C1624 H1640 0.931 . S
C1625 C1624 1.391 . S
C1625 C1629 1.376 . S
C1626 C1624 1.394 . S
C1626 C1627 1.369 . S
C1626 C1630 1.531 . S
C1627 C1626 1.369 . S
C1627 C1628 1.410 . S
C1627 C1635 1.503 . S
C1628 C1627 1.410 . S
C1628 C1629 1.392 . S
C1628 C1631 1.511 . S
C1629 C1625 1.376 . S
C1629 C1628 1.392 . S
C1629 H1641 0.929 . S
C1630 C1626 1.531 . S
C1630 H1642 0.960 . S
C1630 H1643 0.962 . S
C1630 H1644 0.960 . S
C1631 C1628 1.511 . S
C1631 H1645 0.961 . S
C1631 H1646 0.961 . S
C1631 H1647 0.961 . S
C1632 C1633 1.370 . S
C1632 C1634 1.363 . S
C1632 H1648 0.931 . S
C1633 C1632 1.370 . S
C1633 C1637 1.408 . S
C1634 C1632 1.363 . S
C1634 C1635 1.370 . S
C1634 C1638 1.524 . S
C1635 C1627 1.503 . S
C1635 C1634 1.370 . S
C1635 C1636 1.403 . S
C1636 C1635 1.403 . S
C1636 C1637 1.404 . S
C1636 C1639 1.539 . S
C1637 C1633 1.408 . S
C1637 C1636 1.404 . S
C1637 H1649 0.930 . S
C1638 C1634 1.524 . S
C1638 H1650 0.956 . S
C1638 H1651 0.961 . S
C1638 H1652 0.961 . S
C1639 C1636 1.539 . S
C1639 H1653 0.958 . S
C1639 H1654 0.961 . S
C1639 H1655 0.960 . S
H1640 C1624 0.931 . S
H1641 C1629 0.929 . S
H1642 C1630 0.960 . S
H1643 C1630 0.962 . S
H1644 C1630 0.960 . S
H1645 C1631 0.961 . S
H1646 C1631 0.961 . S
H1647 C1631 0.961 . S
H1648 C1632 0.931 . S
H1649 C1637 0.930 . S
H1650 C1638 0.956 . S
H1651 C1638 0.961 . S
H1652 C1638 0.961 . S
H1653 C1639 0.958 . S
H1654 C1639 0.961 . S
H1655 C1639 0.960 . S
C1656 C1657 1.391 . S
C1656 C1658 1.394 . S
C1656 H1672 0.931 . S
C1657 C1656 1.391 . S
C1657 C1661 1.376 . S
C1658 C1656 1.394 . S
C1658 C1659 1.369 . S
C1658 C1662 1.531 . S
C1659 C1658 1.369 . S
C1659 C1660 1.410 . S
C1659 C1667 1.503 . S
C1660 C1659 1.410 . S
C1660 C1661 1.392 . S
C1660 C1663 1.511 . S
C1661 C1657 1.376 . S
C1661 C1660 1.392 . S
C1661 H1673 0.929 . S
C1662 C1658 1.531 . S
C1662 H1674 0.960 . S
C1662 H1675 0.962 . S
C1662 H1676 0.960 . S
C1663 C1660 1.511 . S
C1663 H1677 0.961 . S
C1663 H1678 0.961 . S
C1663 H1679 0.961 . S
C1664 C1665 1.370 . S
C1664 C1666 1.363 . S
C1664 H1680 0.931 . S
C1665 C1664 1.370 . S
C1665 C1669 1.408 . S
C1666 C1664 1.363 . S
C1666 C1667 1.370 . S
C1666 C1670 1.524 . S
C1667 C1659 1.503 . S
C1667 C1666 1.370 . S
C1667 C1668 1.403 . S
C1668 C1667 1.403 . S
C1668 C1669 1.404 . S
C1668 C1671 1.539 . S
C1669 C1665 1.408 . S
C1669 C1668 1.404 . S
C1669 H1681 0.930 . S
C1670 C1666 1.524 . S
C1670 H1682 0.956 . S
C1670 H1683 0.961 . S
C1670 H1684 0.961 . S
C1671 C1668 1.539 . S
C1671 H1685 0.958 . S
C1671 H1686 0.961 . S
C1671 H1687 0.960 . S
H1672 C1656 0.931 . S
H1673 C1661 0.929 . S
H1674 C1662 0.960 . S
H1675 C1662 0.962 . S
H1676 C1662 0.960 . S
H1677 C1663 0.961 . S
H1678 C1663 0.961 . S
H1679 C1663 0.961 . S
H1680 C1664 0.931 . S
H1681 C1669 0.930 . S
H1682 C1670 0.956 . S
H1683 C1670 0.961 . S
H1684 C1670 0.961 . S
H1685 C1671 0.958 . S
H1686 C1671 0.961 . S
H1687 C1671 0.960 . S
C1688 C1689 1.391 . S
C1688 C1690 1.394 . S
C1688 H1704 0.931 . S
C1689 C1688 1.391 . S
C1689 C1693 1.376 . S
C1690 C1688 1.394 . S
C1690 C1691 1.369 . S
C1690 C1694 1.531 . S
C1691 C1690 1.369 . S
C1691 C1692 1.410 . S
C1691 C1699 1.503 . S
C1692 C1691 1.410 . S
C1692 C1693 1.392 . S
C1692 C1695 1.511 . S
C1693 C1689 1.376 . S
C1693 C1692 1.392 . S
C1693 H1705 0.929 . S
C1694 C1690 1.531 . S
C1694 H1706 0.960 . S
C1694 H1707 0.962 . S
C1694 H1708 0.960 . S
C1695 C1692 1.511 . S
C1695 H1709 0.961 . S
C1695 H1710 0.961 . S
C1695 H1711 0.961 . S
C1696 C1697 1.370 . S
C1696 C1698 1.363 . S
C1696 H1712 0.931 . S
C1697 C1696 1.370 . S
C1697 C1701 1.408 . S
C1698 C1696 1.363 . S
C1698 C1699 1.370 . S
C1698 C1702 1.524 . S
C1699 C1691 1.503 . S
C1699 C1698 1.370 . S
C1699 C1700 1.403 . S
C1700 C1699 1.403 . S
C1700 C1701 1.404 . S
C1700 C1703 1.539 . S
C1701 C1697 1.408 . S
C1701 C1700 1.404 . S
C1701 H1713 0.930 . S
C1702 C1698 1.524 . S
C1702 H1714 0.956 . S
C1702 H1715 0.961 . S
C1702 H1716 0.961 . S
C1703 C1700 1.539 . S
C1703 H1717 0.958 . S
C1703 H1718 0.961 . S
C1703 H1719 0.960 . S
H1704 C1688 0.931 . S
H1705 C1693 0.929 . S
H1706 C1694 0.960 . S
H1707 C1694 0.962 . S
H1708 C1694 0.960 . S
H1709 C1695 0.961 . S
H1710 C1695 0.961 . S
H1711 C1695 0.961 . S
H1712 C1696 0.931 . S
H1713 C1701 0.930 . S
H1714 C1702 0.956 . S
H1715 C1702 0.961 . S
H1716 C1702 0.961 . S
H1717 C1703 0.958 . S
H1718 C1703 0.961 . S
H1719 C1703 0.960 . S
C1720 C1721 1.391 . S
C1720 C1722 1.394 . S
C1720 H1736 0.931 . S
C1721 C1720 1.391 . S
C1721 C1725 1.376 . S
C1722 C1720 1.394 . S
C1722 C1723 1.369 . S
C1722 C1726 1.531 . S
C1723 C1722 1.369 . S
C1723 C1724 1.404 1_556 S
C1723 C1731 1.503 . S
C1724 C1723 1.404 1_554 S
C1724 C1725 1.392 1_554 S
C1724 C1727 1.517 . S
C1725 C1721 1.376 . S
C1725 C1724 1.392 1_556 S
C1725 H1737 0.929 1_556 S
C1726 C1722 1.531 . S
C1726 H1738 0.960 . S
C1726 H1739 0.962 . S
C1726 H1740 0.960 . S
C1727 C1724 1.517 . S
C1727 H1741 0.961 . S
C1727 H1742 0.961 . S
C1727 H1743 0.961 . S
C1728 C1729 1.370 1_554 S
C1728 C1730 1.363 1_554 S
C1728 H1744 0.931 . S
C1729 C1728 1.370 1_556 S
C1729 C1733 1.408 . S
C1730 C1728 1.363 1_556 S
C1730 C1731 1.370 . S
C1730 C1734 1.524 1_556 S
C1731 C1723 1.503 . S
C1731 C1730 1.370 . S
C1731 C1732 1.403 . S
C1732 C1731 1.403 . S
C1732 C1733 1.404 . S
C1732 C1735 1.539 . S
C1733 C1729 1.408 . S
C1733 C1732 1.404 . S
C1733 H1745 0.930 . S
C1734 C1730 1.524 1_554 S
C1734 H1746 0.956 1_554 S
C1734 H1747 0.961 . S
C1734 H1748 0.961 . S
C1735 C1732 1.539 . S
C1735 H1749 0.958 . S
C1735 H1750 0.961 . S
C1735 H1751 0.960 . S
H1736 C1720 0.931 . S
H1737 C1725 0.929 1_554 S
H1738 C1726 0.960 . S
H1739 C1726 0.962 . S
H1740 C1726 0.960 . S
H1741 C1727 0.961 . S
H1742 C1727 0.961 . S
H1743 C1727 0.961 . S
H1744 C1728 0.931 . S
H1745 C1733 0.930 . S
H1746 C1734 0.956 1_556 S
H1747 C1734 0.961 . S
H1748 C1734 0.961 . S
H1749 C1735 0.958 . S
H1750 C1735 0.961 . S
H1751 C1735 0.960 . S
C1752 C1753 1.391 . S
C1752 C1754 1.394 . S
C1752 H1768 0.931 . S
C1753 C1752 1.391 . S
C1753 C1757 1.376 . S
C1754 C1752 1.394 . S
C1754 C1755 1.369 . S
C1754 C1758 1.531 . S
C1755 C1754 1.369 . S
C1755 C1756 1.410 . S
C1755 C1763 1.503 . S
C1756 C1755 1.410 . S
C1756 C1757 1.392 . S
C1756 C1759 1.511 . S
C1757 C1753 1.376 . S
C1757 C1756 1.392 . S
C1757 H1769 0.929 . S
C1758 C1754 1.531 . S
C1758 H1770 0.960 . S
C1758 H1771 0.962 . S
C1758 H1772 0.960 . S
C1759 C1756 1.511 . S
C1759 H1773 0.961 . S
C1759 H1774 0.961 . S
C1759 H1775 0.961 . S
C1760 C1761 1.370 . S
C1760 C1762 1.363 . S
C1760 H1776 0.931 . S
C1761 C1760 1.370 . S
C1761 C1765 1.408 . S
C1762 C1760 1.363 . S
C1762 C1763 1.370 . S
C1762 C1766 1.524 . S
C1763 C1755 1.503 . S
C1763 C1762 1.370 . S
C1763 C1764 1.403 . S
C1764 C1763 1.403 . S
C1764 C1765 1.404 . S
C1764 C1767 1.539 . S
C1765 C1761 1.408 . S
C1765 C1764 1.404 . S
C1765 H1777 0.930 . S
C1766 C1762 1.524 . S
C1766 H1778 0.956 . S
C1766 H1779 0.961 . S
C1766 H1780 0.961 . S
C1767 C1764 1.539 . S
C1767 H1781 0.958 . S
C1767 H1782 0.961 . S
C1767 H1783 0.960 . S
H1768 C1752 0.931 . S
H1769 C1757 0.929 . S
H1770 C1758 0.960 . S
H1771 C1758 0.962 . S
H1772 C1758 0.960 . S
H1773 C1759 0.961 . S
H1774 C1759 0.961 . S
H1775 C1759 0.961 . S
H1776 C1760 0.931 . S
H1777 C1765 0.930 . S
H1778 C1766 0.956 . S
H1779 C1766 0.961 . S
H1780 C1766 0.961 . S
H1781 C1767 0.958 . S
H1782 C1767 0.961 . S
H1783 C1767 0.960 . S
C1784 C1785 1.391 . S
C1784 C1786 1.394 . S
C1784 H1800 0.931 . S
C1785 C1784 1.391 . S
C1785 C1789 1.376 . S
C1786 C1784 1.394 . S
C1786 C1787 1.369 . S
C1786 C1790 1.531 . S
C1787 C1786 1.369 . S
C1787 C1788 1.410 . S
C1787 C1795 1.503 . S
C1788 C1787 1.410 . S
C1788 C1789 1.392 . S
C1788 C1791 1.511 . S
C1789 C1785 1.376 . S
C1789 C1788 1.392 . S
C1789 H1801 0.929 . S
C1790 C1786 1.531 . S
C1790 H1802 0.960 . S
C1790 H1803 0.962 . S
C1790 H1804 0.960 . S
C1791 C1788 1.511 . S
C1791 H1805 0.961 1_554 S
C1791 H1806 0.961 1_554 S
C1791 H1807 0.961 . S
C1792 C1793 1.370 . S
C1792 C1794 1.363 . S
C1792 H1808 0.931 1_554 S
C1793 C1792 1.370 . S
C1793 C1797 1.408 . S
C1794 C1792 1.363 . S
C1794 C1795 1.370 . S
C1794 C1798 1.524 1_554 S
C1795 C1787 1.503 . S
C1795 C1794 1.370 . S
C1795 C1796 1.403 . S
C1796 C1795 1.403 . S
C1796 C1797 1.404 . S
C1796 C1799 1.539 . S
C1797 C1793 1.408 . S
C1797 C1796 1.404 . S
C1797 H1809 0.930 . S
C1798 C1794 1.524 1_556 S
C1798 H1810 0.956 1_556 S
C1798 H1811 0.961 . S
C1798 H1812 0.961 . S
C1799 C1796 1.539 . S
C1799 H1813 0.958 . S
C1799 H1814 0.961 . S
C1799 H1815 0.960 . S
H1800 C1784 0.931 . S
H1801 C1789 0.929 . S
H1802 C1790 0.960 . S
H1803 C1790 0.962 . S
H1804 C1790 0.960 . S
H1805 C1791 0.961 1_556 S
H1806 C1791 0.961 1_556 S
H1807 C1791 0.961 . S
H1808 C1792 0.931 1_556 S
H1809 C1797 0.930 . S
H1810 C1798 0.956 1_554 S
H1811 C1798 0.961 . S
H1812 C1798 0.961 . S
H1813 C1799 0.958 . S
H1814 C1799 0.961 . S
H1815 C1799 0.960 . S
C1816 C1817 1.391 1_565 S
C1816 C1818 1.394 . S
C1816 H1832 0.931 . S
C1817 C1816 1.391 1_545 S
C1817 C1821 1.376 1_544 S
C1818 C1816 1.394 . S
C1818 C1819 1.369 . S
C1818 C1822 1.531 . S
C1819 C1818 1.369 . S
C1819 C1820 1.410 1_554 S
C1819 C1827 1.503 . S
C1820 C1819 1.410 1_556 S
C1820 C1821 1.392 . S
C1820 C1823 1.511 . S
C1821 C1817 1.376 1_566 S
C1821 C1820 1.392 . S
C1821 H1833 0.929 1_565 S
C1822 C1818 1.531 . S
C1822 H1834 0.960 . S
C1822 H1835 0.962 . S
C1822 H1836 0.960 . S
C1823 C1820 1.511 . S
C1823 H1837 0.961 . S
C1823 H1838 0.961 . S
C1823 H1839 0.961 . S
C1824 C1825 1.370 . S
C1824 C1826 1.363 . S
C1824 H1840 0.931 . S
C1825 C1824 1.370 . S
C1825 C1829 1.408 . S
C1826 C1824 1.363 . S
C1826 C1827 1.370 . S
C1826 C1830 1.524 . S
C1827 C1819 1.503 . S
C1827 C1826 1.370 . S
C1827 C1828 1.403 . S
C1828 C1827 1.403 . S
C1828 C1829 1.404 . S
C1828 C1831 1.539 . S
C1829 C1825 1.408 . S
C1829 C1828 1.404 . S
C1829 H1841 0.930 . S
C1830 C1826 1.524 . S
C1830 H1842 0.956 . S
C1830 H1843 0.961 1_565 S
C1830 H1844 0.960 . S
C1831 C1828 1.539 . S
C1831 H1845 0.958 . S
C1831 H1846 0.961 1_554 S
C1831 H1847 0.960 1_554 S
H1832 C1816 0.931 . S
H1833 C1821 0.929 1_545 S
H1834 C1822 0.960 . S
H1835 C1822 0.962 . S
H1836 C1822 0.960 . S
H1837 C1823 0.961 . S
H1838 C1823 0.961 . S
H1839 C1823 0.961 . S
H1840 C1824 0.931 . S
H1841 C1829 0.930 . S
H1842 C1830 0.956 . S
H1843 C1830 0.961 1_545 S
H1844 C1830 0.960 . S
H1845 C1831 0.958 . S
H1846 C1831 0.961 1_556 S
H1847 C1831 0.960 1_556 S
C321 C155 1.464 . S
C313 C50 1.474 . S
C353 C163 1.259 . S
C345 C61 1.515 1_455 S
C377 C67 1.443 . S
C385 C183 1.415 . S
C417 C197 1.498 . S
C409 C41 1.511 . S
C449 C212 1.521 . S
C441 C95 1.517 . S
C481 C226 1.510 . S
C473 C113 1.505 . S
C505 C106 1.543 . S
C513 C240 1.544 . S
C545 C246 1.459 . S
C537 C86 1.485 . S
C569 C104 1.509 . S
C577 C260 1.474 . S
C609 C281 1.513 . S
C601 C88 1.542 . S
C633 C94 1.478 . S
C641 C261 1.217 . S
C673 C282 1.516 . S
C665 C112 1.516 . S
C697 C70 1.473 . S
C705 C289 1.213 . S
C729 C40 1.503 . S
C737 C295 1.482 . S
C761 C49 1.505 . S
C769 C288 1.475 . S
C793 C59 1.486 . S
C801 C296 1.484 . S
C825 C34 1.489 . S
C833 C190 1.445 . S
C857 C133 1.490 . S
C865 C191 1.236 . S
C897 C148 1.518 . S
C889 C139 1.529 1_565 S
C929 C169 1.452 . S
C921 C77 1.465 . S
C953 C43 1.480 1_545 S
C961 C204 1.443 . S
C993 C254 1.524 . S
C985 C103 1.521 . S
C1025 C205 1.261 . S
C1017 C85 1.466 . S
C1057 C233 1.251 . S
C1049 C115 1.514 . S
C1089 C239 1.464 . S
C1081 C131 1.474 . S
C1113 C142 1.513 . S
C1121 C247 1.278 . S
C1145 C76 1.444 . S
C1153 C211 1.433 . S
C1185 C225 1.499 . S
C1177 C122 1.513 . S
C1209 C32 1.515 . S
C1217 C184 1.519 . S
C1249 C198 1.509 . S
C1241 C5 1.509 . S
C1281 C156 1.544 . S
C1273 C16 1.543 . S
C1313 C162 1.456 . S
C1305 C23 1.485 1_455 S
C1337 C14 1.510 . S
C1345 C274 1.483 . S
C1369 C25 1.542 . S
C1377 C267 1.529 . S
C1401 C31 1.482 . S
C1409 C275 1.232 . S
C1433 C4 1.513 1_556 S
C1441 C268 1.516 . S
C1473 C303 1.209 . S
C1465 C79 1.470 . S
C1505 C309 1.496 . S
C1497 C121 1.508 . S
C1537 C302 1.473 . S
C1529 C130 1.505 . S
C1561 C140 1.485 1_554 S
C1569 C310 1.485 . S
C1593 C97 1.489 . S
C1601 C218 1.456 . S
C1633 C219 1.228 . S
C1625 C52 1.489 . S
C1665 C232 1.510 . S
C1657 C58 1.547 . S
C1697 C253 1.455 . S
C1689 C68 1.468 . S
C1721 C124 1.476 . S
C1729 C176 1.433 1_556 S
C1761 C170 1.524 . S
C1753 C13 1.522 . S
C1785 C22 1.466 . S
C1793 C177 1.210 . S
C1825 C149 1.238 . S
C1817 C7 1.525 . S
