# Generated by pormake.
# Topology tbo, (3,4)-cn, num edge types: 1
# Building blocks:
#     Node 0, Type 0, BuildingBlock: WUSLED_clean_sbu_0, # of connection points: 3
#     Node 1, Type 0, BuildingBlock: WUSLED_clean_sbu_0, # of connection points: 3
#     Node 2, Type 0, BuildingBlock: WUSLED_clean_sbu_0, # of connection points: 3
#     Node 3, Type 0, BuildingBlock: WUSLED_clean_sbu_0, # of connection points: 3
#     Node 4, Type 0, BuildingBlock: WUSLED_clean_sbu_0, # of connection points: 3
#     Node 5, Type 0, BuildingBlock: WUSLED_clean_sbu_0, # of connection points: 3
#     Node 6, Type 0, BuildingBlock: WUSLED_clean_sbu_0, # of connection points: 3
#     Node 7, Type 0, BuildingBlock: WUSLED_clean_sbu_0, # of connection points: 3
#     Node 8, Type 0, BuildingBlock: WUSLED_clean_sbu_0, # of connection points: 3
#     Node 9, Type 0, BuildingBlock: WUSLED_clean_sbu_0, # of connection points: 3
#     Node 10, Type 0, BuildingBlock: WUSLED_clean_sbu_0, # of connection points: 3
#     Node 11, Type 0, BuildingBlock: WUSLED_clean_sbu_0, # of connection points: 3
#     Node 12, Type 0, BuildingBlock: WUSLED_clean_sbu_0, # of connection points: 3
#     Node 13, Type 0, BuildingBlock: WUSLED_clean_sbu_0, # of connection points: 3
#     Node 14, Type 0, BuildingBlock: WUSLED_clean_sbu_0, # of connection points: 3
#     Node 15, Type 0, BuildingBlock: WUSLED_clean_sbu_0, # of connection points: 3
#     Node 16, Type 0, BuildingBlock: WUSLED_clean_sbu_0, # of connection points: 3
#     Node 17, Type 0, BuildingBlock: WUSLED_clean_sbu_0, # of connection points: 3
#     Node 18, Type 0, BuildingBlock: WUSLED_clean_sbu_0, # of connection points: 3
#     Node 19, Type 0, BuildingBlock: WUSLED_clean_sbu_0, # of connection points: 3
#     Node 20, Type 0, BuildingBlock: WUSLED_clean_sbu_0, # of connection points: 3
#     Node 21, Type 0, BuildingBlock: WUSLED_clean_sbu_0, # of connection points: 3
#     Node 22, Type 0, BuildingBlock: WUSLED_clean_sbu_0, # of connection points: 3
#     Node 23, Type 0, BuildingBlock: WUSLED_clean_sbu_0, # of connection points: 3
#     Node 24, Type 0, BuildingBlock: WUSLED_clean_sbu_0, # of connection points: 3
#     Node 25, Type 0, BuildingBlock: WUSLED_clean_sbu_0, # of connection points: 3
#     Node 26, Type 0, BuildingBlock: WUSLED_clean_sbu_0, # of connection points: 3
#     Node 27, Type 0, BuildingBlock: WUSLED_clean_sbu_0, # of connection points: 3
#     Node 28, Type 0, BuildingBlock: WUSLED_clean_sbu_0, # of connection points: 3
#     Node 29, Type 0, BuildingBlock: WUSLED_clean_sbu_0, # of connection points: 3
#     Node 30, Type 0, BuildingBlock: WUSLED_clean_sbu_0, # of connection points: 3
#     Node 31, Type 0, BuildingBlock: WUSLED_clean_sbu_0, # of connection points: 3
#     Node 32, Type 1, BuildingBlock: NAWXER_clean_linker_0, # of connection points: 4
#     Node 33, Type 1, BuildingBlock: NAWXER_clean_linker_0, # of connection points: 4
#     Node 34, Type 1, BuildingBlock: NAWXER_clean_linker_0, # of connection points: 4
#     Node 35, Type 1, BuildingBlock: NAWXER_clean_linker_0, # of connection points: 4
#     Node 36, Type 1, BuildingBlock: NAWXER_clean_linker_0, # of connection points: 4
#     Node 37, Type 1, BuildingBlock: NAWXER_clean_linker_0, # of connection points: 4
#     Node 38, Type 1, BuildingBlock: NAWXER_clean_linker_0, # of connection points: 4
#     Node 39, Type 1, BuildingBlock: NAWXER_clean_linker_0, # of connection points: 4
#     Node 40, Type 1, BuildingBlock: NAWXER_clean_linker_0, # of connection points: 4
#     Node 41, Type 1, BuildingBlock: NAWXER_clean_linker_0, # of connection points: 4
#     Node 42, Type 1, BuildingBlock: NAWXER_clean_linker_0, # of connection points: 4
#     Node 43, Type 1, BuildingBlock: NAWXER_clean_linker_0, # of connection points: 4
#     Node 44, Type 1, BuildingBlock: NAWXER_clean_linker_0, # of connection points: 4
#     Node 45, Type 1, BuildingBlock: NAWXER_clean_linker_0, # of connection points: 4
#     Node 46, Type 1, BuildingBlock: NAWXER_clean_linker_0, # of connection points: 4
#     Node 47, Type 1, BuildingBlock: NAWXER_clean_linker_0, # of connection points: 4
#     Node 48, Type 1, BuildingBlock: NAWXER_clean_linker_0, # of connection points: 4
#     Node 49, Type 1, BuildingBlock: NAWXER_clean_linker_0, # of connection points: 4
#     Node 50, Type 1, BuildingBlock: NAWXER_clean_linker_0, # of connection points: 4
#     Node 51, Type 1, BuildingBlock: NAWXER_clean_linker_0, # of connection points: 4
#     Node 52, Type 1, BuildingBlock: NAWXER_clean_linker_0, # of connection points: 4
#     Node 53, Type 1, BuildingBlock: NAWXER_clean_linker_0, # of connection points: 4
#     Node 54, Type 1, BuildingBlock: NAWXER_clean_linker_0, # of connection points: 4
#     Node 55, Type 1, BuildingBlock: NAWXER_clean_linker_0, # of connection points: 4
#     Edge 56, Type (0, 1), BuildingBlock: CIFDUS_clean_linker_0, # of connection points: 2
#     Edge 57, Type (0, 1), BuildingBlock: CIFDUS_clean_linker_0, # of connection points: 2
#     Edge 58, Type (0, 1), BuildingBlock: CIFDUS_clean_linker_0, # of connection points: 2
#     Edge 59, Type (0, 1), BuildingBlock: CIFDUS_clean_linker_0, # of connection points: 2
#     Edge 60, Type (0, 1), BuildingBlock: CIFDUS_clean_linker_0, # of connection points: 2
#     Edge 61, Type (0, 1), BuildingBlock: CIFDUS_clean_linker_0, # of connection points: 2
#     Edge 62, Type (0, 1), BuildingBlock: CIFDUS_clean_linker_0, # of connection points: 2
#     Edge 63, Type (0, 1), BuildingBlock: CIFDUS_clean_linker_0, # of connection points: 2
#     Edge 64, Type (0, 1), BuildingBlock: CIFDUS_clean_linker_0, # of connection points: 2
#     Edge 65, Type (0, 1), BuildingBlock: CIFDUS_clean_linker_0, # of connection points: 2
#     Edge 66, Type (0, 1), BuildingBlock: CIFDUS_clean_linker_0, # of connection points: 2
#     Edge 67, Type (0, 1), BuildingBlock: CIFDUS_clean_linker_0, # of connection points: 2
#     Edge 68, Type (0, 1), BuildingBlock: CIFDUS_clean_linker_0, # of connection points: 2
#     Edge 69, Type (0, 1), BuildingBlock: CIFDUS_clean_linker_0, # of connection points: 2
#     Edge 70, Type (0, 1), BuildingBlock: CIFDUS_clean_linker_0, # of connection points: 2
#     Edge 71, Type (0, 1), BuildingBlock: CIFDUS_clean_linker_0, # of connection points: 2
#     Edge 72, Type (0, 1), BuildingBlock: CIFDUS_clean_linker_0, # of connection points: 2
#     Edge 73, Type (0, 1), BuildingBlock: CIFDUS_clean_linker_0, # of connection points: 2
#     Edge 74, Type (0, 1), BuildingBlock: CIFDUS_clean_linker_0, # of connection points: 2
#     Edge 75, Type (0, 1), BuildingBlock: CIFDUS_clean_linker_0, # of connection points: 2
#     Edge 76, Type (0, 1), BuildingBlock: CIFDUS_clean_linker_0, # of connection points: 2
#     Edge 77, Type (0, 1), BuildingBlock: CIFDUS_clean_linker_0, # of connection points: 2
#     Edge 78, Type (0, 1), BuildingBlock: CIFDUS_clean_linker_0, # of connection points: 2
#     Edge 79, Type (0, 1), BuildingBlock: CIFDUS_clean_linker_0, # of connection points: 2
#     Edge 80, Type (0, 1), BuildingBlock: CIFDUS_clean_linker_0, # of connection points: 2
#     Edge 81, Type (0, 1), BuildingBlock: CIFDUS_clean_linker_0, # of connection points: 2
#     Edge 82, Type (0, 1), BuildingBlock: CIFDUS_clean_linker_0, # of connection points: 2
#     Edge 83, Type (0, 1), BuildingBlock: CIFDUS_clean_linker_0, # of connection points: 2
#     Edge 84, Type (0, 1), BuildingBlock: CIFDUS_clean_linker_0, # of connection points: 2
#     Edge 85, Type (0, 1), BuildingBlock: CIFDUS_clean_linker_0, # of connection points: 2
#     Edge 86, Type (0, 1), BuildingBlock: CIFDUS_clean_linker_0, # of connection points: 2
#     Edge 87, Type (0, 1), BuildingBlock: CIFDUS_clean_linker_0, # of connection points: 2
#     Edge 88, Type (0, 1), BuildingBlock: CIFDUS_clean_linker_0, # of connection points: 2
#     Edge 89, Type (0, 1), BuildingBlock: CIFDUS_clean_linker_0, # of connection points: 2
#     Edge 90, Type (0, 1), BuildingBlock: CIFDUS_clean_linker_0, # of connection points: 2
#     Edge 91, Type (0, 1), BuildingBlock: CIFDUS_clean_linker_0, # of connection points: 2
#     Edge 92, Type (0, 1), BuildingBlock: CIFDUS_clean_linker_0, # of connection points: 2
#     Edge 93, Type (0, 1), BuildingBlock: CIFDUS_clean_linker_0, # of connection points: 2
#     Edge 94, Type (0, 1), BuildingBlock: CIFDUS_clean_linker_0, # of connection points: 2
#     Edge 95, Type (0, 1), BuildingBlock: CIFDUS_clean_linker_0, # of connection points: 2
#     Edge 96, Type (0, 1), BuildingBlock: CIFDUS_clean_linker_0, # of connection points: 2
#     Edge 97, Type (0, 1), BuildingBlock: CIFDUS_clean_linker_0, # of connection points: 2
#     Edge 98, Type (0, 1), BuildingBlock: CIFDUS_clean_linker_0, # of connection points: 2
#     Edge 99, Type (0, 1), BuildingBlock: CIFDUS_clean_linker_0, # of connection points: 2
#     Edge 100, Type (0, 1), BuildingBlock: CIFDUS_clean_linker_0, # of connection points: 2
#     Edge 101, Type (0, 1), BuildingBlock: CIFDUS_clean_linker_0, # of connection points: 2
#     Edge 102, Type (0, 1), BuildingBlock: CIFDUS_clean_linker_0, # of connection points: 2
#     Edge 103, Type (0, 1), BuildingBlock: CIFDUS_clean_linker_0, # of connection points: 2
#     Edge 104, Type (0, 1), BuildingBlock: CIFDUS_clean_linker_0, # of connection points: 2
#     Edge 105, Type (0, 1), BuildingBlock: CIFDUS_clean_linker_0, # of connection points: 2
#     Edge 106, Type (0, 1), BuildingBlock: CIFDUS_clean_linker_0, # of connection points: 2
#     Edge 107, Type (0, 1), BuildingBlock: CIFDUS_clean_linker_0, # of connection points: 2
#     Edge 108, Type (0, 1), BuildingBlock: CIFDUS_clean_linker_0, # of connection points: 2
#     Edge 109, Type (0, 1), BuildingBlock: CIFDUS_clean_linker_0, # of connection points: 2
#     Edge 110, Type (0, 1), BuildingBlock: CIFDUS_clean_linker_0, # of connection points: 2
#     Edge 111, Type (0, 1), BuildingBlock: CIFDUS_clean_linker_0, # of connection points: 2
#     Edge 112, Type (0, 1), BuildingBlock: CIFDUS_clean_linker_0, # of connection points: 2
#     Edge 113, Type (0, 1), BuildingBlock: CIFDUS_clean_linker_0, # of connection points: 2
#     Edge 114, Type (0, 1), BuildingBlock: CIFDUS_clean_linker_0, # of connection points: 2
#     Edge 115, Type (0, 1), BuildingBlock: CIFDUS_clean_linker_0, # of connection points: 2
#     Edge 116, Type (0, 1), BuildingBlock: CIFDUS_clean_linker_0, # of connection points: 2
#     Edge 117, Type (0, 1), BuildingBlock: CIFDUS_clean_linker_0, # of connection points: 2
#     Edge 118, Type (0, 1), BuildingBlock: CIFDUS_clean_linker_0, # of connection points: 2
#     Edge 119, Type (0, 1), BuildingBlock: CIFDUS_clean_linker_0, # of connection points: 2
#     Edge 120, Type (0, 1), BuildingBlock: CIFDUS_clean_linker_0, # of connection points: 2
#     Edge 121, Type (0, 1), BuildingBlock: CIFDUS_clean_linker_0, # of connection points: 2
#     Edge 122, Type (0, 1), BuildingBlock: CIFDUS_clean_linker_0, # of connection points: 2
#     Edge 123, Type (0, 1), BuildingBlock: CIFDUS_clean_linker_0, # of connection points: 2
#     Edge 124, Type (0, 1), BuildingBlock: CIFDUS_clean_linker_0, # of connection points: 2
#     Edge 125, Type (0, 1), BuildingBlock: CIFDUS_clean_linker_0, # of connection points: 2
#     Edge 126, Type (0, 1), BuildingBlock: CIFDUS_clean_linker_0, # of connection points: 2
#     Edge 127, Type (0, 1), BuildingBlock: CIFDUS_clean_linker_0, # of connection points: 2
#     Edge 128, Type (0, 1), BuildingBlock: CIFDUS_clean_linker_0, # of connection points: 2
#     Edge 129, Type (0, 1), BuildingBlock: CIFDUS_clean_linker_0, # of connection points: 2
#     Edge 130, Type (0, 1), BuildingBlock: CIFDUS_clean_linker_0, # of connection points: 2
#     Edge 131, Type (0, 1), BuildingBlock: CIFDUS_clean_linker_0, # of connection points: 2
#     Edge 132, Type (0, 1), BuildingBlock: CIFDUS_clean_linker_0, # of connection points: 2
#     Edge 133, Type (0, 1), BuildingBlock: CIFDUS_clean_linker_0, # of connection points: 2
#     Edge 134, Type (0, 1), BuildingBlock: CIFDUS_clean_linker_0, # of connection points: 2
#     Edge 135, Type (0, 1), BuildingBlock: CIFDUS_clean_linker_0, # of connection points: 2
#     Edge 136, Type (0, 1), BuildingBlock: CIFDUS_clean_linker_0, # of connection points: 2
#     Edge 137, Type (0, 1), BuildingBlock: CIFDUS_clean_linker_0, # of connection points: 2
#     Edge 138, Type (0, 1), BuildingBlock: CIFDUS_clean_linker_0, # of connection points: 2
#     Edge 139, Type (0, 1), BuildingBlock: CIFDUS_clean_linker_0, # of connection points: 2
#     Edge 140, Type (0, 1), BuildingBlock: CIFDUS_clean_linker_0, # of connection points: 2
#     Edge 141, Type (0, 1), BuildingBlock: CIFDUS_clean_linker_0, # of connection points: 2
#     Edge 142, Type (0, 1), BuildingBlock: CIFDUS_clean_linker_0, # of connection points: 2
#     Edge 143, Type (0, 1), BuildingBlock: CIFDUS_clean_linker_0, # of connection points: 2
#     Edge 144, Type (0, 1), BuildingBlock: CIFDUS_clean_linker_0, # of connection points: 2
#     Edge 145, Type (0, 1), BuildingBlock: CIFDUS_clean_linker_0, # of connection points: 2
#     Edge 146, Type (0, 1), BuildingBlock: CIFDUS_clean_linker_0, # of connection points: 2
#     Edge 147, Type (0, 1), BuildingBlock: CIFDUS_clean_linker_0, # of connection points: 2
#     Edge 148, Type (0, 1), BuildingBlock: CIFDUS_clean_linker_0, # of connection points: 2
#     Edge 149, Type (0, 1), BuildingBlock: CIFDUS_clean_linker_0, # of connection points: 2
#     Edge 150, Type (0, 1), BuildingBlock: CIFDUS_clean_linker_0, # of connection points: 2
#     Edge 151, Type (0, 1), BuildingBlock: CIFDUS_clean_linker_0, # of connection points: 2
# Relax obj value: 0.000
# Max RMSD: 0.011
# Mean RMSD: 0.006
data_MOF--net-tbo--node1-WUSLED_clean_sbu_0--node2-NAWXER_clean_linker_0--edge1-CIFDUS_clean_linker_0
_symmetry_space_group_name_H-M    P1
_symmetry_Int_Tables_number       1
_symmetry_cell_setting            triclinic
loop_
_symmetry_equiv_pos_as_xyz
'x, y, z'
_cell_length_a     99.077882
_cell_length_b     99.368486
_cell_length_c     99.237601
_cell_angle_alpha  89.719855
_cell_angle_beta   90.369258
_cell_angle_gamma 90.7499
loop_
_atom_site_label
_atom_site_type_symbol
_atom_site_fract_x
_atom_site_fract_y
_atom_site_fract_z
_atom_type_partial_charge
C0 C 0.18449 0.14337 0.19688 0.0
C1 C 0.19325 0.13745 0.18761 0.0
C2 C 0.20084 0.12154 0.20488 0.0
C3 C 0.20134 0.12658 0.19157 0.0
C4 C 0.19224 0.12783 0.2141 0.0
C5 C 0.18413 0.13851 0.21012 0.0
U6 U 0.17321 0.17398 0.17533 0.0
O7 O 0.15262 0.18058 0.17047 0.0
O8 O 0.16609 0.19358 0.18253 0.0
C9 C 0.15394 0.19176 0.17742 0.0
C10 C 0.17558 0.15464 0.19332 0.0
C11 C 0.14253 0.19556 0.18605 0.0
C12 C 0.12337 0.19017 0.20046 0.0
C13 C 0.13478 0.18606 0.19329 0.0
C14 C 0.12769 0.21323 0.19357 0.0
C15 C 0.11966 0.2038 0.20056 0.0
C16 C 0.13897 0.20914 0.18641 0.0
C17 C 0.19523 0.184 0.14414 0.0
C18 C 0.19247 0.20219 0.12783 0.0
C19 C 0.21304 0.18926 0.12822 0.0
C20 C 0.20796 0.18144 0.13876 0.0
C21 C 0.20544 0.19977 0.12275 0.0
C22 C 0.1874 0.19438 0.13858 0.0
C23 C 0.19092 0.17579 0.15578 0.0
O24 O 0.18076 0.16676 0.19493 0.0
O25 O 0.16827 0.15342 0.18227 0.0
O26 O 0.1795 0.16899 0.15469 0.0
O27 O 0.19281 0.18119 0.16771 0.0
H28 H 0.19376 0.14114 0.17733 0.0
H29 H 0.20778 0.122 0.18415 0.0
H30 H 0.19181 0.1246 0.22453 0.0
H31 H 0.17754 0.14302 0.21745 0.0
H32 H 0.11744 0.1827 0.20588 0.0
H33 H 0.1374 0.17552 0.19323 0.0
H34 H 0.12502 0.22377 0.19331 0.0
H35 H 0.14479 0.21661 0.18086 0.0
H36 H 0.18648 0.21031 0.12376 0.0
H37 H 0.22302 0.18719 0.12441 0.0
H38 H 0.21412 0.17347 0.14289 0.0
H39 H 0.17754 0.19653 0.14264 0.0
C40 C 0.82401 0.189 0.14826 0.0
C41 C 0.82751 0.20276 0.14824 0.0
C42 C 0.81787 0.20526 0.12568 0.0
C43 C 0.82441 0.21085 0.13704 0.0
C44 C 0.81492 0.19136 0.12566 0.0
C45 C 0.81787 0.18337 0.13685 0.0
U46 U 0.84391 0.17857 0.17987 0.0
O47 O 0.83662 0.17064 0.19931 0.0
O48 O 0.84975 0.15837 0.18667 0.0
C49 C 0.84244 0.15895 0.19765 0.0
C50 C 0.82644 0.18022 0.16 0.0
C51 C 0.83423 0.14693 0.20082 0.0
C52 C 0.81757 0.12966 0.19501 0.0
C53 C 0.8247 0.14153 0.19173 0.0
C54 C 0.8292 0.12882 0.21656 0.0
C55 C 0.8198 0.12324 0.20747 0.0
C56 C 0.83638 0.14052 0.21323 0.0
C57 C 0.875 0.20027 0.19004 0.0
C58 C 0.89294 0.1944 0.20575 0.0
C59 C 0.89223 0.21678 0.19597 0.0
C60 C 0.88054 0.21324 0.18887 0.0
C61 C 0.89863 0.20738 0.20436 0.0
C62 C 0.88114 0.19087 0.19866 0.0
C63 C 0.86324 0.19679 0.18161 0.0
O64 O 0.83733 0.17285 0.15945 0.0
O65 O 0.82443 0.18551 0.17193 0.0
O66 O 0.85135 0.19822 0.18718 0.0
O67 O 0.86419 0.1858 0.17439 0.0
H68 H 0.83242 0.20728 0.15692 0.0
H69 H 0.82681 0.2215 0.13744 0.0
H70 H 0.81027 0.18658 0.11699 0.0
H71 H 0.81524 0.17276 0.13663 0.0
H72 H 0.81029 0.12555 0.1879 0.0
H73 H 0.82287 0.14639 0.1821 0.0
H74 H 0.83117 0.12397 0.22616 0.0
H75 H 0.84375 0.14451 0.22033 0.0
H76 H 0.89763 0.18701 0.21226 0.0
H77 H 0.89647 0.22679 0.19458 0.0
H78 H 0.87596 0.22059 0.18222 0.0
H79 H 0.87694 0.1808 0.19972 0.0
C80 C 0.82571 0.83768 0.14375 0.0
C81 C 0.8337 0.82766 0.13795 0.0
C82 C 0.81669 0.82416 0.12022 0.0
C83 C 0.82918 0.8209 0.12626 0.0
C84 C 0.80869 0.8339 0.12644 0.0
C85 C 0.81317 0.84057 0.13797 0.0
U86 U 0.84746 0.8482 0.17544 0.0
O87 O 0.8524 0.86887 0.18198 0.0
O88 O 0.83951 0.85586 0.19458 0.0
C89 C 0.84522 0.86777 0.19303 0.0
C90 C 0.82988 0.8457 0.15561 0.0
C91 C 0.83747 0.87965 0.19716 0.0
C92 C 0.81833 0.89483 0.19584 0.0
C93 C 0.82502 0.88326 0.19135 0.0
C94 C 0.8364 0.89906 0.21187 0.0
C95 C 0.8241 0.90293 0.20604 0.0
C96 C 0.84297 0.88758 0.20749 0.0
C97 C 0.8792 0.82755 0.18623 0.0
C98 C 0.89558 0.83188 0.20419 0.0
C99 C 0.89758 0.81204 0.19029 0.0
C100 C 0.88608 0.81575 0.18306 0.0
C101 C 0.90246 0.82007 0.20085 0.0
C102 C 0.88397 0.83562 0.19691 0.0
C103 C 0.86733 0.83102 0.1779 0.0
O104 O 0.82817 0.84016 0.16753 0.0
O105 O 0.84103 0.85296 0.15467 0.0
O106 O 0.86818 0.84211 0.17067 0.0
O107 O 0.8554 0.82908 0.18333 0.0
H108 H 0.84341 0.82521 0.14232 0.0
H109 H 0.83557 0.81341 0.12176 0.0
H110 H 0.79889 0.83645 0.12234 0.0
H111 H 0.80681 0.84818 0.14233 0.0
H112 H 0.80885 0.89761 0.19116 0.0
H113 H 0.82057 0.87724 0.18337 0.0
H114 H 0.84099 0.90495 0.21987 0.0
H115 H 0.85248 0.88491 0.21218 0.0
H116 H 0.89924 0.8382 0.21233 0.0
H117 H 0.90277 0.80293 0.18755 0.0
H118 H 0.88258 0.80941 0.17487 0.0
H119 H 0.8788 0.84477 0.19952 0.0
C120 C 0.14651 0.82326 0.18927 0.0
C121 C 0.14655 0.82646 0.20306 0.0
C122 C 0.12468 0.81522 0.20576 0.0
C123 C 0.13573 0.8224 0.21127 0.0
C124 C 0.12456 0.81243 0.19189 0.0
C125 C 0.13537 0.81638 0.18376 0.0
U126 U 0.17831 0.84358 0.17875 0.0
O127 O 0.19744 0.83607 0.17069 0.0
O128 O 0.18502 0.84982 0.15854 0.0
C129 C 0.19595 0.84249 0.15916 0.0
C130 C 0.15814 0.82625 0.18048 0.0
C131 C 0.19962 0.83535 0.14679 0.0
C132 C 0.19943 0.81588 0.13198 0.0
C133 C 0.19536 0.8221 0.14396 0.0
C134 C 0.2119 0.83609 0.12575 0.0
C135 C 0.20766 0.82291 0.12272 0.0
C136 C 0.20791 0.84221 0.13764 0.0
C137 C 0.18965 0.8742 0.20028 0.0
C138 C 0.20667 0.89127 0.1949 0.0
C139 C 0.1961 0.89097 0.21684 0.0
C140 C 0.18837 0.87978 0.2131 0.0
C141 C 0.2052 0.89705 0.20776 0.0
C142 C 0.19895 0.8799 0.19119 0.0
C143 C 0.18085 0.86267 0.19682 0.0
O144 O 0.15754 0.83738 0.1733 0.0
O145 O 0.17017 0.82409 0.18568 0.0
O146 O 0.1861 0.85067 0.19833 0.0
O147 O 0.17347 0.86387 0.18585 0.0
H148 H 0.15502 0.83186 0.20751 0.0
H149 H 0.13602 0.82481 0.2219 0.0
H150 H 0.11627 0.80679 0.18739 0.0
H151 H 0.13516 0.81378 0.17317 0.0
H152 H 0.19601 0.80571 0.12986 0.0
H153 H 0.18894 0.81662 0.15094 0.0
H154 H 0.21844 0.84166 0.11895 0.0
H155 H 0.21138 0.85239 0.13971 0.0
H156 H 0.21354 0.89568 0.18762 0.0
H157 H 0.19492 0.89481 0.22695 0.0
H158 H 0.1813 0.87548 0.22027 0.0
H159 H 0.2001 0.87568 0.18122 0.0
C160 C 0.14477 0.82475 0.83929 0.0
C161 C 0.14079 0.83211 0.82783 0.0
C162 C 0.12129 0.81716 0.82493 0.0
C163 C 0.12912 0.82826 0.82062 0.0
C164 C 0.1255 0.80977 0.83625 0.0
C165 C 0.13713 0.81351 0.84333 0.0
U166 U 0.1761 0.84661 0.8488 0.0
O167 O 0.18332 0.8521 0.86906 0.0
O168 O 0.19591 0.83971 0.85601 0.0
C169 C 0.19442 0.84509 0.86797 0.0
C170 C 0.15668 0.82842 0.84746 0.0
C171 C 0.19808 0.8366 0.8796 0.0
C172 C 0.19263 0.82055 0.89743 0.0
C173 C 0.18876 0.82794 0.88598 0.0
C174 C 0.21514 0.83027 0.89599 0.0
C175 C 0.20589 0.82168 0.90257 0.0
C176 C 0.21127 0.83761 0.88463 0.0
C177 C 0.18593 0.87762 0.82699 0.0
C178 C 0.20564 0.8922 0.83001 0.0
C179 C 0.19104 0.89505 0.81053 0.0
C180 C 0.18278 0.88453 0.81507 0.0
C181 C 0.20257 0.89887 0.81787 0.0
C182 C 0.19735 0.88156 0.83455 0.0
C183 C 0.17737 0.86603 0.83078 0.0
O184 O 0.16848 0.82697 0.84173 0.0
O185 O 0.15582 0.83948 0.8546 0.0
O186 O 0.17061 0.867 0.84208 0.0
O187 O 0.1827 0.85413 0.82902 0.0
H188 H 0.1466 0.84083 0.82456 0.0
H189 H 0.12603 0.83411 0.81191 0.0
H190 H 0.11974 0.80107 0.83966 0.0
H191 H 0.14011 0.80767 0.85208 0.0
H192 H 0.18531 0.81393 0.90222 0.0
H193 H 0.17851 0.82699 0.88219 0.0
H194 H 0.22534 0.83157 0.8998 0.0
H195 H 0.21858 0.84427 0.87988 0.0
H196 H 0.21455 0.89503 0.83576 0.0
H197 H 0.18855 0.90009 0.80115 0.0
H198 H 0.17402 0.88161 0.80912 0.0
H199 H 0.19996 0.87629 0.84377 0.0
C200 C 0.14146 0.18298 0.82685 0.0
C201 C 0.13829 0.19482 0.83381 0.0
C202 C 0.11829 0.19766 0.81964 0.0
C203 C 0.12678 0.20218 0.83015 0.0
C204 C 0.12159 0.18591 0.81271 0.0
C205 C 0.13308 0.17869 0.81624 0.0
U206 U 0.17355 0.1725 0.84731 0.0
O207 O 0.18017 0.15195 0.8521 0.0
O208 O 0.19262 0.165 0.83912 0.0
C209 C 0.19108 0.15306 0.84469 0.0
C210 C 0.15332 0.17473 0.83016 0.0
C211 C 0.19459 0.14135 0.83643 0.0
C212 C 0.19115 0.12612 0.81752 0.0
C213 C 0.18712 0.13733 0.82503 0.0
C214 C 0.20987 0.12283 0.83294 0.0
C215 C 0.20267 0.11878 0.82134 0.0
C216 C 0.20593 0.13401 0.84029 0.0
C217 C 0.18565 0.19353 0.87834 0.0
C218 C 0.2026 0.18848 0.89551 0.0
C219 C 0.19312 0.21077 0.89404 0.0
C220 C 0.18509 0.20669 0.88319 0.0
C221 C 0.20186 0.20172 0.90054 0.0
C222 C 0.19456 0.18441 0.88447 0.0
C223 C 0.17662 0.1899 0.86701 0.0
O224 O 0.16525 0.18032 0.82822 0.0
O225 O 0.15268 0.16742 0.84122 0.0
O226 O 0.16945 0.17872 0.86815 0.0
O227 O 0.18144 0.19188 0.85485 0.0
H228 H 0.14465 0.1983 0.84204 0.0
H229 H 0.12436 0.21121 0.83566 0.0
H230 H 0.11524 0.1823 0.80453 0.0
H231 H 0.13539 0.16965 0.8107 0.0
H232 H 0.18538 0.12337 0.80863 0.0
H233 H 0.17828 0.14288 0.82191 0.0
H234 H 0.21854 0.1173 0.83649 0.0
H235 H 0.21177 0.1369 0.8491 0.0
H236 H 0.20916 0.18119 0.90024 0.0
H237 H 0.1925 0.22114 0.89725 0.0
H238 H 0.17836 0.2139 0.87856 0.0
H239 H 0.19521 0.17419 0.88082 0.0
C240 C 0.82132 0.14671 0.83781 0.0
C241 C 0.82669 0.14394 0.82504 0.0
C242 C 0.81387 0.12279 0.82427 0.0
C243 C 0.82291 0.13206 0.81826 0.0
C244 C 0.80846 0.12579 0.83693 0.0
C245 C 0.81214 0.1376 0.84359 0.0
U246 U 0.84298 0.1784 0.84736 0.0
O247 O 0.83581 0.19773 0.85507 0.0
O248 O 0.84866 0.18498 0.8678 0.0
C249 C 0.84151 0.196 0.86694 0.0
C250 C 0.82496 0.15883 0.84561 0.0
C251 C 0.8334 0.19937 0.87881 0.0
C252 C 0.81244 0.19932 0.89148 0.0
C253 C 0.81994 0.19505 0.88036 0.0
C254 C 0.8319 0.21194 0.89963 0.0
C255 C 0.81834 0.20792 0.90119 0.0
C256 C 0.83933 0.20768 0.8886 0.0
C257 C 0.87488 0.18844 0.82691 0.0
C258 C 0.88912 0.20846 0.82948 0.0
C259 C 0.89534 0.19103 0.81382 0.0
C260 C 0.88386 0.1836 0.81734 0.0
C261 C 0.89807 0.20368 0.81964 0.0
C262 C 0.8776 0.20088 0.83311 0.0
C263 C 0.86281 0.18019 0.82997 0.0
O264 O 0.83593 0.15808 0.85307 0.0
O265 O 0.82354 0.17055 0.83961 0.0
O266 O 0.85105 0.18589 0.82808 0.0
O267 O 0.86338 0.1728 0.84096 0.0
H268 H 0.83382 0.15088 0.8204 0.0
H269 H 0.82724 0.12997 0.80851 0.0
H270 H 0.80131 0.11897 0.8417 0.0
H271 H 0.80784 0.13959 0.85338 0.0
H272 H 0.80206 0.19594 0.89247 0.0
H273 H 0.8152 0.18855 0.87293 0.0
H274 H 0.83672 0.21872 0.90674 0.0
H275 H 0.84969 0.21114 0.88755 0.0
H276 H 0.89083 0.21816 0.83416 0.0
H277 H 0.90212 0.18675 0.80653 0.0
H278 H 0.88198 0.17398 0.81252 0.0
H279 H 0.87079 0.20477 0.8406 0.0
C280 C 0.83488 0.87706 0.82421 0.0
C281 C 0.8222 0.87888 0.83016 0.0
C282 C 0.81921 0.89977 0.81735 0.0
C283 C 0.81441 0.89015 0.82674 0.0
C284 C 0.83208 0.89795 0.81176 0.0
C285 C 0.83974 0.88672 0.81509 0.0
U286 U 0.84601 0.84521 0.84424 0.0
O287 O 0.8541 0.82635 0.8363 0.0
O288 O 0.86681 0.83921 0.84927 0.0
C289 C 0.86608 0.82837 0.84175 0.0
C290 C 0.84337 0.86527 0.82707 0.0
C291 C 0.87788 0.82556 0.83324 0.0
C292 C 0.88916 0.82461 0.81153 0.0
C293 C 0.87828 0.82877 0.81943 0.0
C294 C 0.89953 0.81455 0.83125 0.0
C295 C 0.89981 0.8173 0.81735 0.0
C296 C 0.88868 0.81863 0.83908 0.0
C297 C 0.82516 0.83475 0.87629 0.0
C298 C 0.82621 0.81504 0.89101 0.0
C299 C 0.81254 0.83405 0.89717 0.0
C300 C 0.81632 0.8407 0.88537 0.0
C301 C 0.8175 0.82122 0.90023 0.0
C302 C 0.8301 0.82181 0.87911 0.0
C303 C 0.82873 0.84256 0.86411 0.0
O304 O 0.85101 0.86595 0.83792 0.0
O305 O 0.83782 0.85333 0.82522 0.0
O306 O 0.82705 0.83672 0.85235 0.0
O307 O 0.83966 0.85016 0.86483 0.0
H308 H 0.81829 0.87156 0.83731 0.0
H309 H 0.80455 0.89115 0.83124 0.0
H310 H 0.83635 0.90526 0.80482 0.0
H311 H 0.84954 0.88556 0.81048 0.0
H312 H 0.88919 0.827 0.80086 0.0
H313 H 0.87008 0.83419 0.81472 0.0
H314 H 0.90747 0.80881 0.83601 0.0
H315 H 0.88855 0.81601 0.84969 0.0
H316 H 0.8302 0.80515 0.89315 0.0
H317 H 0.80565 0.83898 0.90394 0.0
H318 H 0.81233 0.85061 0.88333 0.0
H319 H 0.83694 0.81702 0.87221 0.0
C320 C 0.18343 0.64269 0.69496 0.0
C321 C 0.19659 0.64146 0.68995 0.0
C322 C 0.19958 0.62075 0.70298 0.0
C323 C 0.20462 0.63058 0.69395 0.0
C324 C 0.18621 0.62189 0.70752 0.0
C325 C 0.1783 0.63277 0.70363 0.0
U326 U 0.17309 0.67441 0.67461 0.0
O327 O 0.15265 0.68138 0.66952 0.0
O328 O 0.16588 0.69365 0.68255 0.0
C329 C 0.15385 0.69219 0.67703 0.0
C330 C 0.17493 0.65441 0.69194 0.0
C331 C 0.14217 0.69548 0.68548 0.0
C332 C 0.12949 0.69455 0.70644 0.0
C333 C 0.14046 0.69041 0.69862 0.0
C334 C 0.12172 0.70839 0.68789 0.0
C335 C 0.12009 0.70379 0.70122 0.0
C336 C 0.13265 0.70436 0.68019 0.0
C337 C 0.19557 0.68449 0.64353 0.0
C338 C 0.19333 0.70221 0.6266 0.0
C339 C 0.21388 0.68933 0.62804 0.0
C340 C 0.20847 0.68182 0.63864 0.0
C341 C 0.20649 0.69973 0.622 0.0
C342 C 0.1879 0.69467 0.63739 0.0
C343 C 0.19087 0.67639 0.65513 0.0
O344 O 0.18052 0.66631 0.69389 0.0
O345 O 0.16753 0.65377 0.68092 0.0
O346 O 0.17935 0.66978 0.65388 0.0
O347 O 0.19276 0.68162 0.66714 0.0
H348 H 0.20073 0.64903 0.68319 0.0
H349 H 0.21486 0.63008 0.69026 0.0
H350 H 0.18179 0.61438 0.71415 0.0
H351 H 0.16816 0.6335 0.70756 0.0
H352 H 0.12861 0.69079 0.71666 0.0
H353 H 0.14768 0.68346 0.70288 0.0
H354 H 0.11453 0.71516 0.68331 0.0
H355 H 0.13374 0.70831 0.67005 0.0
H356 H 0.18743 0.71019 0.62212 0.0
H357 H 0.22394 0.68705 0.6246 0.0
H358 H 0.2145 0.67396 0.64317 0.0
H359 H 0.17788 0.69687 0.64101 0.0
C360 C 0.82369 0.68997 0.64839 0.0
C361 C 0.82881 0.70323 0.64767 0.0
C362 C 0.81771 0.70638 0.62587 0.0
C363 C 0.82583 0.71139 0.63647 0.0
C364 C 0.81308 0.69295 0.62654 0.0
C365 C 0.81597 0.6849 0.63769 0.0
U366 U 0.84327 0.6791 0.68017 0.0
O367 O 0.83568 0.67122 0.69952 0.0
O368 O 0.84865 0.65872 0.68689 0.0
C369 C 0.84163 0.65958 0.69804 0.0
C370 C 0.826 0.68117 0.66014 0.0
C371 C 0.83419 0.64745 0.70243 0.0
C372 C 0.81778 0.62922 0.69938 0.0
C373 C 0.82384 0.64128 0.6948 0.0
C374 C 0.83213 0.62978 0.71923 0.0
C375 C 0.82207 0.62321 0.71156 0.0
C376 C 0.83813 0.64168 0.71468 0.0
C377 C 0.8747 0.70017 0.69082 0.0
C378 C 0.8875 0.69877 0.71178 0.0
C379 C 0.89534 0.71322 0.69363 0.0
C380 C 0.88429 0.7093 0.68578 0.0
C381 C 0.8971 0.70804 0.70672 0.0
C382 C 0.87637 0.69481 0.70385 0.0
C383 C 0.86295 0.69691 0.68226 0.0
O384 O 0.83679 0.67364 0.65964 0.0
O385 O 0.82402 0.68649 0.67206 0.0
O386 O 0.85101 0.6985 0.68768 0.0
O387 O 0.8638 0.68596 0.67496 0.0
H388 H 0.83493 0.7073 0.65582 0.0
H389 H 0.82956 0.72168 0.63629 0.0
H390 H 0.80713 0.6886 0.61842 0.0
H391 H 0.81206 0.67466 0.638 0.0
H392 H 0.81003 0.62444 0.69324 0.0
H393 H 0.82064 0.64564 0.6853 0.0
H394 H 0.83545 0.6257 0.72882 0.0
H395 H 0.84603 0.64632 0.72073 0.0
H396 H 0.88864 0.69455 0.72181 0.0
H397 H 0.90238 0.72056 0.68951 0.0
H398 H 0.88312 0.71357 0.67578 0.0
H399 H 0.86905 0.6877 0.70789 0.0
C400 C 0.82691 0.3385 0.64236 0.0
C401 C 0.83184 0.32559 0.63959 0.0
C402 C 0.8162 0.32352 0.6205 0.0
C403 C 0.82656 0.31816 0.62865 0.0
C404 C 0.8119 0.33669 0.62302 0.0
C405 C 0.81715 0.34403 0.63381 0.0
U406 U 0.84795 0.34847 0.67463 0.0
O407 O 0.85311 0.36905 0.68134 0.0
O408 O 0.83978 0.35614 0.69364 0.0
C409 C 0.84571 0.36797 0.69225 0.0
C410 C 0.83079 0.34636 0.6544 0.0
C411 C 0.83814 0.37993 0.69643 0.0
C412 C 0.81757 0.39292 0.69871 0.0
C413 C 0.82453 0.38209 0.69302 0.0
C414 C 0.83789 0.39968 0.7107 0.0
C415 C 0.82411 0.40162 0.70794 0.0
C416 C 0.84476 0.38897 0.70507 0.0
C417 C 0.87921 0.32805 0.68638 0.0
C418 C 0.89118 0.32881 0.7079 0.0
C419 C 0.89956 0.31507 0.68977 0.0
C420 C 0.88892 0.31922 0.68154 0.0
C421 C 0.9008 0.31969 0.7031 0.0
C422 C 0.88046 0.33299 0.69959 0.0
C423 C 0.86765 0.3312 0.67751 0.0
O424 O 0.82881 0.34066 0.66621 0.0
O425 O 0.84197 0.35361 0.65379 0.0
O426 O 0.8687 0.3422 0.67015 0.0
O427 O 0.85555 0.32929 0.68257 0.0
H428 H 0.83946 0.32116 0.64605 0.0
H429 H 0.83014 0.30806 0.62692 0.0
H430 H 0.8042 0.34127 0.61678 0.0
H431 H 0.81327 0.35399 0.63571 0.0
H432 H 0.80698 0.39417 0.6963 0.0
H433 H 0.81924 0.37524 0.6863 0.0
H434 H 0.84337 0.40635 0.71744 0.0
H435 H 0.85525 0.38752 0.70778 0.0
H436 H 0.89193 0.33267 0.71807 0.0
H437 H 0.90661 0.30789 0.68578 0.0
H438 H 0.88811 0.31526 0.6714 0.0
H439 H 0.87309 0.33988 0.70351 0.0
C440 C 0.14586 0.32327 0.68798 0.0
C441 C 0.1439 0.32693 0.7015 0.0
C442 C 0.12343 0.31294 0.70234 0.0
C443 C 0.13269 0.32183 0.70864 0.0
C444 C 0.12521 0.30991 0.68866 0.0
C445 C 0.13629 0.31497 0.6816 0.0
U446 U 0.17787 0.34482 0.67908 0.0
O447 O 0.19714 0.33757 0.67115 0.0
O448 O 0.18463 0.3511 0.65887 0.0
C449 C 0.19557 0.3438 0.65953 0.0
C450 C 0.15797 0.32713 0.68024 0.0
C451 C 0.19931 0.33652 0.64721 0.0
C452 C 0.20306 0.31603 0.63443 0.0
C453 C 0.19773 0.32251 0.64575 0.0
C454 C 0.21094 0.33755 0.62579 0.0
C455 C 0.2101 0.32349 0.62453 0.0
C456 C 0.20566 0.34396 0.63699 0.0
C457 C 0.18809 0.37593 0.70062 0.0
C458 C 0.20587 0.39244 0.69597 0.0
C459 C 0.19178 0.39482 0.71568 0.0
C460 C 0.18473 0.38309 0.71222 0.0
C461 C 0.2023 0.39964 0.70755 0.0
C462 C 0.1988 0.38058 0.69252 0.0
C463 C 0.1798 0.36403 0.69713 0.0
O464 O 0.15734 0.33832 0.67318 0.0
O465 O 0.16976 0.32531 0.68609 0.0
O466 O 0.18547 0.35222 0.69865 0.0
O467 O 0.17246 0.36498 0.68611 0.0
H468 H 0.15115 0.33342 0.70659 0.0
H469 H 0.13156 0.3244 0.71916 0.0
H470 H 0.11812 0.30337 0.68341 0.0
H471 H 0.13756 0.31212 0.67117 0.0
H472 H 0.20218 0.30518 0.63371 0.0
H473 H 0.19277 0.31657 0.65349 0.0
H474 H 0.21597 0.34364 0.6182 0.0
H475 H 0.20691 0.35477 0.63788 0.0
H476 H 0.21399 0.39605 0.68959 0.0
H477 H 0.18887 0.40029 0.7246 0.0
H478 H 0.17647 0.37968 0.71854 0.0
H479 H 0.20153 0.37518 0.6835 0.0
C480 C 0.14407 0.325 0.33992 0.0
C481 C 0.14223 0.32925 0.32649 0.0
C482 C 0.12211 0.31493 0.3246 0.0
C483 C 0.13126 0.32426 0.31887 0.0
C484 C 0.12365 0.31141 0.33826 0.0
C485 C 0.13452 0.31635 0.34579 0.0
U486 U 0.17563 0.34663 0.34934 0.0
O487 O 0.18331 0.35157 0.36959 0.0
O488 O 0.1957 0.33973 0.35579 0.0
C489 C 0.19457 0.34496 0.36786 0.0
C490 C 0.15618 0.3285 0.34793 0.0
C491 C 0.19953 0.33684 0.37927 0.0
C492 C 0.1964 0.32174 0.39845 0.0
C493 C 0.19119 0.32823 0.38694 0.0
C494 C 0.21827 0.33208 0.39429 0.0
C495 C 0.20994 0.32391 0.40241 0.0
C496 C 0.21311 0.33847 0.38291 0.0
C497 C 0.18418 0.37851 0.32791 0.0
C498 C 0.20523 0.39136 0.3263 0.0
C499 C 0.18539 0.39855 0.31395 0.0
C500 C 0.17803 0.38777 0.31928 0.0
C501 C 0.19917 0.40028 0.31704 0.0
C502 C 0.19777 0.38048 0.33168 0.0
C503 C 0.17624 0.36652 0.33185 0.0
O504 O 0.16788 0.32719 0.34194 0.0
O505 O 0.15548 0.33929 0.35547 0.0
O506 O 0.1697 0.36711 0.34331 0.0
O507 O 0.18179 0.3548 0.32968 0.0
H508 H 0.14947 0.33604 0.32181 0.0
H509 H 0.13029 0.32722 0.3084 0.0
H510 H 0.1166 0.30453 0.34308 0.0
H511 H 0.1357 0.31305 0.35615 0.0
H512 H 0.18975 0.31545 0.40449 0.0
H513 H 0.18066 0.32678 0.38424 0.0
H514 H 0.2288 0.3337 0.39685 0.0
H515 H 0.21971 0.345 0.37707 0.0
H516 H 0.21581 0.39246 0.32893 0.0
H517 H 0.18032 0.40541 0.30715 0.0
H518 H 0.16755 0.38646 0.31632 0.0
H519 H 0.20268 0.37344 0.33842 0.0
C520 C 0.14161 0.68343 0.32699 0.0
C521 C 0.13524 0.69125 0.33682 0.0
C522 C 0.11874 0.69879 0.32013 0.0
C523 C 0.12379 0.69881 0.33342 0.0
C524 C 0.12534 0.6912 0.31033 0.0
C525 C 0.1366 0.68357 0.31375 0.0
U526 U 0.1731 0.67207 0.34754 0.0
O527 O 0.17954 0.65139 0.35223 0.0
O528 O 0.1924 0.6647 0.33986 0.0
C529 C 0.19079 0.65275 0.34538 0.0
C530 C 0.15314 0.67463 0.33013 0.0
C531 C 0.19546 0.64111 0.33762 0.0
C532 C 0.19469 0.62566 0.3186 0.0
C533 C 0.18899 0.63628 0.32591 0.0
C534 C 0.213 0.62458 0.33485 0.0
C535 C 0.20696 0.61993 0.32288 0.0
C536 C 0.20734 0.63504 0.34207 0.0
C537 C 0.1837 0.69405 0.3789 0.0
C538 C 0.20105 0.6913 0.39624 0.0
C539 C 0.18712 0.71114 0.39598 0.0
C540 C 0.18037 0.7064 0.38459 0.0
C541 C 0.19736 0.7036 0.40218 0.0
C542 C 0.19422 0.68653 0.38466 0.0
C543 C 0.17563 0.68964 0.36714 0.0
O544 O 0.16524 0.67985 0.32822 0.0
O545 O 0.15229 0.66722 0.34111 0.0
O546 O 0.1686 0.67838 0.36827 0.0
O547 O 0.18098 0.69142 0.35518 0.0
H548 H 0.13898 0.69137 0.3471 0.0
H549 H 0.1189 0.70467 0.34111 0.0
H550 H 0.12158 0.69094 0.30006 0.0
H551 H 0.14132 0.67759 0.30604 0.0
H552 H 0.18979 0.62225 0.30942 0.0
H553 H 0.17975 0.64083 0.32233 0.0
H554 H 0.22226 0.62021 0.3386 0.0
H555 H 0.21244 0.63857 0.35111 0.0
H556 H 0.20893 0.68526 0.40072 0.0
H557 H 0.18424 0.72081 0.39995 0.0
H558 H 0.17238 0.7124 0.38024 0.0
H559 H 0.19702 0.67698 0.38034 0.0
C560 C 0.82222 0.64655 0.33793 0.0
C561 C 0.82342 0.64557 0.32384 0.0
C562 C 0.81208 0.62358 0.3243 0.0
C563 C 0.81841 0.63413 0.31707 0.0
C564 C 0.81163 0.62439 0.33843 0.0
C565 C 0.81659 0.63573 0.34512 0.0
U566 U 0.84328 0.67892 0.34653 0.0
O567 O 0.83582 0.69809 0.35449 0.0
O568 O 0.84974 0.68586 0.36661 0.0
C569 C 0.84233 0.69671 0.36599 0.0
C570 C 0.82576 0.65886 0.34553 0.0
C571 C 0.83521 0.70035 0.37842 0.0
C572 C 0.81593 0.69978 0.39357 0.0
C573 C 0.82207 0.69579 0.3815 0.0
C574 C 0.83599 0.71274 0.39942 0.0
C575 C 0.82294 0.7082 0.40269 0.0
C576 C 0.84203 0.70885 0.38745 0.0
C577 C 0.87468 0.68843 0.32463 0.0
C578 C 0.89034 0.70747 0.32659 0.0
C579 C 0.89499 0.68934 0.31112 0.0
C580 C 0.88304 0.68285 0.31489 0.0
C581 C 0.89889 0.70162 0.31701 0.0
C582 C 0.87831 0.70085 0.33046 0.0
C583 C 0.86251 0.68064 0.32846 0.0
O584 O 0.8369 0.65852 0.35277 0.0
O585 O 0.82381 0.67051 0.33952 0.0
O586 O 0.85077 0.6865 0.32701 0.0
O587 O 0.86345 0.67337 0.33951 0.0
H588 H 0.82785 0.65377 0.31807 0.0
H589 H 0.81897 0.63379 0.30618 0.0
H590 H 0.80716 0.61632 0.34435 0.0
H591 H 0.81566 0.63622 0.35599 0.0
H592 H 0.80586 0.69612 0.39587 0.0
H593 H 0.81663 0.68919 0.37465 0.0
H594 H 0.84154 0.71942 0.4061 0.0
H595 H 0.85212 0.71253 0.38521 0.0
H596 H 0.89313 0.71693 0.33129 0.0
H597 H 0.90122 0.6847 0.30357 0.0
H598 H 0.88039 0.67332 0.31025 0.0
H599 H 0.87197 0.70531 0.33804 0.0
C600 C 0.83429 0.37549 0.32347 0.0
C601 C 0.82436 0.38009 0.33233 0.0
C602 C 0.81841 0.39797 0.31638 0.0
C603 C 0.81648 0.39127 0.32882 0.0
C604 C 0.82818 0.39299 0.30752 0.0
C605 C 0.83606 0.38199 0.31108 0.0
U606 U 0.84602 0.34444 0.34428 0.0
O607 O 0.8547 0.32568 0.33664 0.0
O608 O 0.86676 0.33887 0.3499 0.0
C609 C 0.86642 0.32789 0.34257 0.0
C610 C 0.84318 0.36412 0.32672 0.0
C611 C 0.8787 0.32487 0.33486 0.0
C612 C 0.89228 0.32488 0.31444 0.0
C613 C 0.88047 0.32853 0.32126 0.0
C614 C 0.90054 0.31407 0.33475 0.0
C615 C 0.90245 0.31766 0.32119 0.0
C616 C 0.88882 0.31763 0.34147 0.0
C617 C 0.82518 0.33403 0.37626 0.0
C618 C 0.82546 0.3139 0.39042 0.0
C619 C 0.81357 0.33369 0.39773 0.0
C620 C 0.8173 0.34038 0.38593 0.0
C621 C 0.81761 0.32041 0.40016 0.0
C622 C 0.82931 0.3207 0.37854 0.0
C623 C 0.82852 0.34176 0.36395 0.0
O624 O 0.85053 0.3652 0.33774 0.0
O625 O 0.83808 0.35198 0.32491 0.0
O626 O 0.82713 0.33568 0.35228 0.0
O627 O 0.8392 0.3497 0.36463 0.0
H628 H 0.82281 0.37516 0.34197 0.0
H629 H 0.80911 0.39481 0.33594 0.0
H630 H 0.82976 0.39752 0.29771 0.0
H631 H 0.84361 0.37855 0.30408 0.0
H632 H 0.89354 0.32781 0.30399 0.0
H633 H 0.87277 0.33414 0.31595 0.0
H634 H 0.90808 0.30834 0.34016 0.0
H635 H 0.8876 0.31461 0.35191 0.0
H636 H 0.82875 0.30367 0.3921 0.0
H637 H 0.80737 0.33889 0.40494 0.0
H638 H 0.81394 0.35061 0.38432 0.0
H639 H 0.83544 0.31561 0.3712 0.0
C640 C 0.68459 0.14285 0.69632 0.0
C641 C 0.69399 0.13744 0.68735 0.0
C642 C 0.69977 0.12002 0.70385 0.0
C643 C 0.70152 0.1261 0.69109 0.0
C644 C 0.6903 0.12554 0.71269 0.0
C645 C 0.68287 0.13682 0.70898 0.0
U646 U 0.67382 0.17385 0.67482 0.0
O647 O 0.65315 0.18039 0.67001 0.0
O648 O 0.66669 0.19341 0.68195 0.0
C649 C 0.65454 0.19165 0.6768 0.0
C650 C 0.67617 0.15453 0.69288 0.0
C651 C 0.64316 0.19555 0.68535 0.0
C652 C 0.63063 0.19492 0.70637 0.0
C653 C 0.64103 0.19004 0.69825 0.0
C654 C 0.6242 0.21041 0.68858 0.0
C655 C 0.62223 0.20521 0.70158 0.0
C656 C 0.63461 0.20566 0.68057 0.0
C657 C 0.6947 0.18289 0.64244 0.0
C658 C 0.6983 0.20369 0.6297 0.0
C659 C 0.70722 0.18271 0.62151 0.0
C660 C 0.70167 0.17592 0.63251 0.0
C661 C 0.70604 0.19674 0.62016 0.0
C662 C 0.69271 0.19681 0.64083 0.0
C663 C 0.69092 0.17533 0.65472 0.0
O664 O 0.68185 0.16648 0.69422 0.0
O665 O 0.66855 0.15348 0.68204 0.0
O666 O 0.67971 0.16812 0.65426 0.0
O667 O 0.69302 0.18124 0.66638 0.0
H668 H 0.69548 0.14196 0.67751 0.0
H669 H 0.70879 0.12219 0.68406 0.0
H670 H 0.68842 0.12102 0.72246 0.0
H671 H 0.67562 0.14078 0.71601 0.0
H672 H 0.62918 0.19075 0.71637 0.0
H673 H 0.64751 0.18219 0.7021 0.0
H674 H 0.61789 0.21841 0.68475 0.0
H675 H 0.63616 0.21008 0.67069 0.0
H676 H 0.69713 0.21449 0.62892 0.0
H677 H 0.71278 0.17697 0.6142 0.0
H678 H 0.70327 0.16519 0.63352 0.0
H679 H 0.68726 0.2024 0.64835 0.0
C680 C 0.32209 0.18857 0.64875 0.0
C681 C 0.32954 0.20024 0.64535 0.0
C682 C 0.31352 0.20508 0.62731 0.0
C683 C 0.32531 0.20843 0.63458 0.0
C684 C 0.3063 0.19332 0.63062 0.0
C685 C 0.31059 0.18512 0.64121 0.0
U686 U 0.34349 0.17863 0.67993 0.0
O687 O 0.33639 0.17085 0.69947 0.0
O688 O 0.3492 0.15837 0.68673 0.0
C689 C 0.34197 0.15906 0.69776 0.0
C690 C 0.32563 0.17997 0.66032 0.0
C691 C 0.33345 0.14724 0.701 0.0
C692 C 0.31586 0.13075 0.69561 0.0
C693 C 0.32359 0.14218 0.69207 0.0
C694 C 0.32761 0.12967 0.71705 0.0
C695 C 0.31785 0.12429 0.70814 0.0
C696 C 0.33535 0.14093 0.71348 0.0
C697 C 0.37421 0.20182 0.68958 0.0
C698 C 0.39343 0.19805 0.7045 0.0
C699 C 0.39035 0.21983 0.69392 0.0
C700 C 0.37858 0.21513 0.68773 0.0
C701 C 0.39814 0.21128 0.70208 0.0
C702 C 0.38152 0.19331 0.69823 0.0
C703 C 0.36246 0.19724 0.68162 0.0
O704 O 0.3369 0.17321 0.65941 0.0
O705 O 0.32375 0.18519 0.67229 0.0
O706 O 0.35055 0.19844 0.68718 0.0
O707 O 0.36379 0.18609 0.6747 0.0
H708 H 0.33846 0.20307 0.65111 0.0
H709 H 0.33097 0.21752 0.63218 0.0
H710 H 0.29724 0.19054 0.62508 0.0
H711 H 0.30475 0.17615 0.64367 0.0
H712 H 0.30851 0.12689 0.68845 0.0
H713 H 0.32194 0.14698 0.68239 0.0
H714 H 0.32923 0.12529 0.72693 0.0
H715 H 0.34284 0.14476 0.72053 0.0
H716 H 0.39918 0.19124 0.71079 0.0
H717 H 0.39348 0.23016 0.69212 0.0
H718 H 0.37302 0.22186 0.68117 0.0
H719 H 0.37824 0.18299 0.69985 0.0
C720 C 0.32724 0.8375 0.64331 0.0
C721 C 0.33696 0.82949 0.63706 0.0
C722 C 0.32019 0.8219 0.62045 0.0
C723 C 0.33346 0.82177 0.62568 0.0
C724 C 0.31058 0.82991 0.62686 0.0
C725 C 0.31407 0.83757 0.63813 0.0
U726 U 0.34779 0.84929 0.67487 0.0
O727 O 0.35221 0.87009 0.68139 0.0
O728 O 0.33998 0.85662 0.69414 0.0
C729 C 0.34519 0.86874 0.69252 0.0
C730 C 0.33037 0.84626 0.65495 0.0
C731 C 0.33667 0.88011 0.69645 0.0
C732 C 0.31598 0.89305 0.69532 0.0
C733 C 0.32408 0.88266 0.69041 0.0
C734 C 0.33318 0.89859 0.71193 0.0
C735 C 0.32048 0.90099 0.70619 0.0
C736 C 0.34116 0.88822 0.70714 0.0
C737 C 0.3798 0.82958 0.68598 0.0
C738 C 0.39246 0.83071 0.70709 0.0
C739 C 0.4006 0.81719 0.68869 0.0
C740 C 0.38956 0.82099 0.68084 0.0
C741 C 0.40212 0.82175 0.70203 0.0
C742 C 0.38138 0.8346 0.69912 0.0
C743 C 0.36797 0.83252 0.67741 0.0
O744 O 0.32861 0.84094 0.66697 0.0
O745 O 0.34126 0.85393 0.65413 0.0
O746 O 0.36862 0.84354 0.67006 0.0
O747 O 0.35603 0.83034 0.68274 0.0
H748 H 0.34721 0.82926 0.64091 0.0
H749 H 0.34109 0.81563 0.62104 0.0
H750 H 0.30035 0.83049 0.623 0.0
H751 H 0.30644 0.84373 0.64275 0.0
H752 H 0.3062 0.89481 0.69075 0.0
H753 H 0.32044 0.87652 0.68213 0.0
H754 H 0.33677 0.90455 0.72037 0.0
H755 H 0.3508 0.88635 0.71197 0.0
H756 H 0.39325 0.83441 0.71732 0.0
H757 H 0.40796 0.81062 0.68424 0.0
H758 H 0.38856 0.81707 0.6707 0.0
H759 H 0.37396 0.8413 0.70327 0.0
C760 C 0.64622 0.82353 0.68994 0.0
C761 C 0.64091 0.83298 0.69893 0.0
C762 C 0.62299 0.81705 0.70524 0.0
C763 C 0.62933 0.82977 0.70649 0.0
C764 C 0.62849 0.80767 0.69632 0.0
C765 C 0.63994 0.81089 0.68878 0.0
U766 U 0.6779 0.84407 0.67876 0.0
O767 O 0.69705 0.83659 0.67069 0.0
O768 O 0.68418 0.84956 0.65818 0.0
C769 C 0.69536 0.84264 0.65901 0.0
C770 C 0.65792 0.82654 0.68123 0.0
C771 C 0.69971 0.83551 0.64681 0.0
C772 C 0.69876 0.81713 0.63061 0.0
C773 C 0.69406 0.8232 0.64247 0.0
C774 C 0.71472 0.83555 0.62758 0.0
C775 C 0.70905 0.82339 0.62296 0.0
C776 C 0.71009 0.84151 0.63932 0.0
C777 C 0.68785 0.87604 0.69982 0.0
C778 C 0.70782 0.89066 0.69939 0.0
C779 C 0.68808 0.89721 0.71192 0.0
C780 C 0.68148 0.88535 0.70809 0.0
C781 C 0.70126 0.90007 0.70757 0.0
C782 C 0.70111 0.87871 0.69545 0.0
C783 C 0.68012 0.86375 0.69627 0.0
O784 O 0.6572 0.83745 0.67373 0.0
O785 O 0.66994 0.82474 0.68658 0.0
O786 O 0.6861 0.85211 0.69784 0.0
O787 O 0.67254 0.8644 0.68539 0.0
H788 H 0.64563 0.84281 0.70001 0.0
H789 H 0.62538 0.83717 0.71335 0.0
H790 H 0.62375 0.79788 0.69494 0.0
H791 H 0.64381 0.8035 0.68185 0.0
H792 H 0.69419 0.80775 0.62728 0.0
H793 H 0.68604 0.81837 0.64816 0.0
H794 H 0.72283 0.84049 0.62212 0.0
H795 H 0.71465 0.85094 0.64255 0.0
H796 H 0.71798 0.89266 0.69587 0.0
H797 H 0.68285 0.90415 0.71839 0.0
H798 H 0.67131 0.88345 0.71164 0.0
H799 H 0.70621 0.87163 0.68904 0.0
C800 C 0.64333 0.82723 0.33736 0.0
C801 C 0.64239 0.8327 0.3243 0.0
C802 C 0.62127 0.82034 0.32051 0.0
C803 C 0.63141 0.82927 0.31592 0.0
C804 C 0.62207 0.81542 0.33381 0.0
C805 C 0.633 0.81877 0.34209 0.0
U806 U 0.67506 0.84717 0.3483 0.0
O807 O 0.68253 0.85163 0.36875 0.0
O808 O 0.69489 0.83979 0.3549 0.0
C809 C 0.69374 0.84492 0.36701 0.0
C810 C 0.65512 0.82967 0.34615 0.0
C811 C 0.69877 0.83676 0.37835 0.0
C812 C 0.69578 0.82348 0.39885 0.0
C813 C 0.69028 0.82976 0.38736 0.0
C814 C 0.71816 0.83074 0.392 0.0
C815 C 0.70978 0.82426 0.40145 0.0
C816 C 0.71271 0.83693 0.38065 0.0
C817 C 0.68584 0.87861 0.32791 0.0
C818 C 0.70785 0.88974 0.32839 0.0
C819 C 0.68961 0.89915 0.31512 0.0
C820 C 0.68107 0.88869 0.31929 0.0
C821 C 0.70312 0.89971 0.31948 0.0
C822 C 0.69923 0.87926 0.33263 0.0
C823 C 0.6768 0.86717 0.33102 0.0
O824 O 0.667 0.82796 0.34063 0.0
O825 O 0.6546 0.84034 0.3539 0.0
O826 O 0.66999 0.86789 0.34231 0.0
O827 O 0.6817 0.85518 0.32876 0.0
H828 H 0.65025 0.83935 0.3205 0.0
H829 H 0.63111 0.83324 0.30574 0.0
H830 H 0.61427 0.80883 0.33784 0.0
H831 H 0.6335 0.81456 0.35217 0.0
H832 H 0.68907 0.8185 0.40592 0.0
H833 H 0.67946 0.82945 0.38573 0.0
H834 H 0.72899 0.83123 0.3935 0.0
H835 H 0.71942 0.84223 0.37379 0.0
H836 H 0.7182 0.89002 0.33199 0.0
H837 H 0.68572 0.90657 0.30813 0.0
H838 H 0.67079 0.88829 0.3155 0.0
H839 H 0.70307 0.87156 0.33935 0.0
C840 C 0.64222 0.18395 0.32735 0.0
C841 C 0.64134 0.1971 0.33242 0.0
C842 C 0.62081 0.20073 0.31921 0.0
C843 C 0.63073 0.20546 0.32832 0.0
C844 C 0.62158 0.18744 0.31452 0.0
C845 C 0.63218 0.17918 0.31852 0.0
U846 U 0.67389 0.17269 0.34757 0.0
O847 O 0.68046 0.15206 0.35227 0.0
O848 O 0.69305 0.16527 0.33959 0.0
C849 C 0.69141 0.15324 0.34493 0.0
C850 C 0.65381 0.1752 0.3303 0.0
C851 C 0.69487 0.14167 0.33642 0.0
C852 C 0.69463 0.12947 0.31517 0.0
C853 C 0.69009 0.14015 0.32313 0.0
C854 C 0.70842 0.12166 0.33379 0.0
C855 C 0.70395 0.12017 0.3204 0.0
C856 C 0.70392 0.13227 0.34168 0.0
C857 C 0.68502 0.19374 0.37905 0.0
C858 C 0.70506 0.19145 0.3932 0.0
C859 C 0.68947 0.20957 0.39717 0.0
C860 C 0.68135 0.20501 0.38656 0.0
C861 C 0.70144 0.20295 0.40049 0.0
C862 C 0.69687 0.18684 0.3825 0.0
C863 C 0.67645 0.19001 0.36741 0.0
O864 O 0.66586 0.18054 0.32842 0.0
O865 O 0.65303 0.1677 0.34122 0.0
O866 O 0.66935 0.17879 0.36837 0.0
O867 O 0.68168 0.19197 0.35541 0.0
H868 H 0.64897 0.20096 0.3393 0.0
H869 H 0.63031 0.21562 0.33218 0.0
H870 H 0.6142 0.18357 0.30738 0.0
H871 H 0.63272 0.16911 0.31444 0.0
H872 H 0.6909 0.12851 0.30493 0.0
H873 H 0.68306 0.14729 0.31888 0.0
H874 H 0.71574 0.11485 0.33809 0.0
H875 H 0.70778 0.13331 0.35187 0.0
H876 H 0.7143 0.18623 0.39563 0.0
H877 H 0.68656 0.21848 0.40263 0.0
H878 H 0.67227 0.21046 0.38403 0.0
H879 H 0.69988 0.17811 0.37682 0.0
C880 C 0.32163 0.14635 0.3377 0.0
C881 C 0.32647 0.14405 0.32463 0.0
C882 C 0.31445 0.12244 0.32402 0.0
C883 C 0.32282 0.13216 0.31778 0.0
C884 C 0.30958 0.12495 0.33701 0.0
C885 C 0.31312 0.13677 0.34374 0.0
U886 U 0.34283 0.17838 0.34686 0.0
O887 O 0.33547 0.19785 0.3541 0.0
O888 O 0.34835 0.18545 0.36715 0.0
C889 C 0.34113 0.19641 0.36602 0.0
C890 C 0.32508 0.15853 0.3455 0.0
C891 C 0.33289 0.2 0.37772 0.0
C892 C 0.31621 0.19497 0.39501 0.0
C893 C 0.32342 0.1911 0.38354 0.0
C894 C 0.32764 0.21666 0.39458 0.0
C895 C 0.31835 0.20779 0.40076 0.0
C896 C 0.33487 0.21276 0.38329 0.0
C897 C 0.37398 0.18818 0.32459 0.0
C898 C 0.39303 0.2035 0.32847 0.0
C899 C 0.39014 0.19265 0.30683 0.0
C900 C 0.37844 0.18627 0.31141 0.0
C901 C 0.39782 0.20106 0.31536 0.0
C902 C 0.38118 0.19705 0.33309 0.0
C903 C 0.3622 0.18011 0.32898 0.0
O904 O 0.33614 0.15802 0.35287 0.0
O905 O 0.32339 0.17021 0.3395 0.0
O906 O 0.35027 0.18546 0.32716 0.0
O907 O 0.36334 0.17335 0.34034 0.0
H908 H 0.33307 0.15135 0.31978 0.0
H909 H 0.32672 0.13044 0.30777 0.0
H910 H 0.30295 0.11776 0.34197 0.0
H911 H 0.30921 0.1384 0.35377 0.0
H912 H 0.30919 0.18784 0.3995 0.0
H913 H 0.32173 0.18118 0.37933 0.0
H914 H 0.32933 0.22674 0.39837 0.0
H915 H 0.34209 0.21977 0.3789 0.0
H916 H 0.39867 0.20999 0.33528 0.0
H917 H 0.39326 0.19083 0.29657 0.0
H918 H 0.37298 0.17956 0.30467 0.0
H919 H 0.37782 0.19874 0.3433 0.0
C920 C 0.33576 0.8777 0.32413 0.0
C921 C 0.3227 0.87967 0.3292 0.0
C922 C 0.32146 0.90113 0.31722 0.0
C923 C 0.31554 0.89133 0.32568 0.0
C924 C 0.33444 0.89903 0.31219 0.0
C925 C 0.34148 0.88742 0.31557 0.0
U926 U 0.34603 0.84543 0.34428 0.0
O927 O 0.35376 0.82658 0.33594 0.0
O928 O 0.36668 0.83894 0.34918 0.0
C929 C 0.36575 0.82826 0.34146 0.0
C930 C 0.34381 0.86569 0.32728 0.0
C931 C 0.37751 0.82542 0.33295 0.0
C932 C 0.38958 0.82619 0.31164 0.0
C933 C 0.37862 0.83006 0.31959 0.0
C934 C 0.39848 0.81336 0.33044 0.0
C935 C 0.39958 0.81767 0.31696 0.0
C936 C 0.38761 0.81722 0.33831 0.0
C937 C 0.32551 0.83328 0.37554 0.0
C938 C 0.33147 0.81695 0.39294 0.0
C939 C 0.30882 0.82573 0.39182 0.0
C940 C 0.3124 0.83358 0.38068 0.0
C941 C 0.31832 0.81746 0.3983 0.0
C942 C 0.33503 0.82478 0.38163 0.0
C943 C 0.32876 0.84228 0.36409 0.0
O944 O 0.35128 0.8662 0.33826 0.0
O945 O 0.33802 0.85387 0.32533 0.0
O946 O 0.32673 0.83735 0.35197 0.0
O947 O 0.33985 0.84963 0.36509 0.0
H948 H 0.31811 0.87228 0.33585 0.0
H949 H 0.30554 0.89281 0.32972 0.0
H950 H 0.33915 0.90641 0.30558 0.0
H951 H 0.35148 0.88605 0.31149 0.0
H952 H 0.39021 0.8298 0.30135 0.0
H953 H 0.37094 0.83648 0.31527 0.0
H954 H 0.40583 0.80663 0.33482 0.0
H955 H 0.38691 0.81351 0.34857 0.0
H956 H 0.3391 0.81075 0.39763 0.0
H957 H 0.2985 0.82616 0.39529 0.0
H958 H 0.30489 0.84 0.37609 0.0
H959 H 0.34522 0.82435 0.37777 0.0
C960 C 0.68458 0.64383 0.19687 0.0
C961 C 0.69346 0.63794 0.18768 0.0
C962 C 0.70058 0.6217 0.20488 0.0
C963 C 0.70138 0.62694 0.19165 0.0
C964 C 0.69183 0.62793 0.21401 0.0
C965 C 0.6839 0.63875 0.21002 0.0
U966 U 0.67318 0.6745 0.17525 0.0
O967 O 0.6525 0.68084 0.17036 0.0
O968 O 0.66579 0.694 0.18242 0.0
C969 C 0.65372 0.69213 0.17714 0.0
C970 C 0.67577 0.6552 0.19328 0.0
C971 C 0.64214 0.6961 0.18544 0.0
C972 C 0.62483 0.69173 0.20229 0.0
C973 C 0.63634 0.68761 0.19526 0.0
C974 C 0.62515 0.71286 0.19 0.0
C975 C 0.61914 0.70436 0.1996 0.0
C976 C 0.63652 0.70875 0.18298 0.0
C977 C 0.69498 0.68374 0.14338 0.0
C978 C 0.69585 0.70367 0.12893 0.0
C979 C 0.71055 0.68491 0.12464 0.0
C980 C 0.70497 0.67793 0.1355 0.0
C981 C 0.70639 0.69801 0.1214 0.0
C982 C 0.6902 0.69658 0.13992 0.0
C983 C 0.69065 0.6762 0.15548 0.0
O984 O 0.68103 0.66731 0.19477 0.0
O985 O 0.66834 0.65396 0.18232 0.0
O986 O 0.67938 0.66912 0.15468 0.0
O987 O 0.69248 0.68208 0.16719 0.0
H988 H 0.69419 0.64176 0.17747 0.0
H989 H 0.70793 0.62241 0.1843 0.0
H990 H 0.69115 0.62454 0.22437 0.0
H991 H 0.67719 0.6432 0.21728 0.0
H992 H 0.6203 0.68505 0.2097 0.0
H993 H 0.64056 0.67781 0.19734 0.0
H994 H 0.62086 0.7226 0.18776 0.0
H995 H 0.64083 0.71542 0.17544 0.0
H996 H 0.69235 0.71371 0.12666 0.0
H997 H 0.71835 0.68007 0.11889 0.0
H998 H 0.70874 0.66802 0.13796 0.0
H999 H 0.68242 0.70122 0.14586 0.0
C1000 C 0.32179 0.69011 0.14929 0.0
C1001 C 0.32984 0.70152 0.14649 0.0
C1002 C 0.31567 0.70673 0.12699 0.0
C1003 C 0.3268 0.70978 0.1354 0.0
C1004 C 0.30764 0.69533 0.13002 0.0
C1005 C 0.31073 0.6871 0.14099 0.0
U1006 U 0.34292 0.67904 0.17983 0.0
O1007 O 0.33637 0.67106 0.19949 0.0
O1008 O 0.34855 0.6586 0.18611 0.0
C1009 C 0.34169 0.65921 0.19738 0.0
C1010 C 0.32463 0.68111 0.16073 0.0
C1011 C 0.3331 0.64747 0.20068 0.0
C1012 C 0.31646 0.63018 0.19484 0.0
C1013 C 0.3241 0.64166 0.19131 0.0
C1014 C 0.32651 0.63058 0.21716 0.0
C1015 C 0.31768 0.62441 0.2078 0.0
C1016 C 0.33417 0.64189 0.21359 0.0
C1017 C 0.37483 0.70068 0.18834 0.0
C1018 C 0.38974 0.69956 0.20789 0.0
C1019 C 0.39599 0.71317 0.18851 0.0
C1020 C 0.384 0.70946 0.18207 0.0
C1021 C 0.39903 0.70821 0.20141 0.0
C1022 C 0.3777 0.69572 0.20133 0.0
C1023 C 0.36248 0.69706 0.18086 0.0
O1024 O 0.33545 0.67371 0.15961 0.0
O1025 O 0.32322 0.68633 0.17278 0.0
O1026 O 0.35096 0.69842 0.18717 0.0
O1027 O 0.36302 0.68613 0.17351 0.0
H1028 H 0.33846 0.70398 0.15283 0.0
H1029 H 0.33325 0.71841 0.13333 0.0
H1030 H 0.29881 0.69281 0.12402 0.0
H1031 H 0.30439 0.67836 0.14304 0.0
H1032 H 0.30982 0.62571 0.18735 0.0
H1033 H 0.32308 0.64589 0.18128 0.0
H1034 H 0.32748 0.62673 0.22734 0.0
H1035 H 0.34099 0.6463 0.22097 0.0
H1036 H 0.39192 0.69561 0.21785 0.0
H1037 H 0.40289 0.72 0.1834 0.0
H1038 H 0.3819 0.71344 0.17209 0.0
H1039 H 0.3707 0.6889 0.20632 0.0
C1040 C 0.32712 0.33897 0.14312 0.0
C1041 C 0.33177 0.32588 0.1407 0.0
C1042 C 0.31653 0.32388 0.12129 0.0
C1043 C 0.32653 0.31839 0.12979 0.0
C1044 C 0.31252 0.33721 0.12347 0.0
C1045 C 0.3177 0.3446 0.13426 0.0
U1046 U 0.34834 0.34899 0.17514 0.0
O1047 O 0.3531 0.36957 0.18198 0.0
O1048 O 0.34038 0.35627 0.19443 0.0
C1049 C 0.34575 0.36833 0.19291 0.0
C1050 C 0.33095 0.34689 0.15511 0.0
C1051 C 0.33722 0.37984 0.19647 0.0
C1052 C 0.32007 0.39656 0.1915 0.0
C1053 C 0.32761 0.38533 0.1876 0.0
C1054 C 0.33167 0.39675 0.21305 0.0
C1055 C 0.32202 0.40238 0.20431 0.0
C1056 C 0.33912 0.38562 0.20918 0.0
C1057 C 0.37963 0.32797 0.18614 0.0
C1058 C 0.39276 0.3293 0.20695 0.0
C1059 C 0.39843 0.31292 0.18995 0.0
C1060 C 0.3879 0.31753 0.18181 0.0
C1061 C 0.40083 0.31863 0.20263 0.0
C1062 C 0.38221 0.334 0.19871 0.0
C1063 C 0.36807 0.33166 0.17751 0.0
O1064 O 0.32914 0.34114 0.16693 0.0
O1065 O 0.34206 0.35423 0.15442 0.0
O1066 O 0.36914 0.34291 0.17056 0.0
O1067 O 0.356 0.32966 0.18263 0.0
H1068 H 0.33912 0.32137 0.1474 0.0
H1069 H 0.3299 0.30818 0.12834 0.0
H1070 H 0.30514 0.34192 0.11695 0.0
H1071 H 0.31405 0.35469 0.1359 0.0
H1072 H 0.31266 0.40059 0.18456 0.0
H1073 H 0.32597 0.381 0.17772 0.0
H1074 H 0.33368 0.4011 0.22286 0.0
H1075 H 0.34654 0.38159 0.21613 0.0
H1076 H 0.39451 0.33383 0.21672 0.0
H1077 H 0.40449 0.30464 0.18649 0.0
H1078 H 0.38603 0.31272 0.17218 0.0
H1079 H 0.37594 0.3421 0.20222 0.0
C1080 C 0.64639 0.32286 0.18876 0.0
C1081 C 0.64435 0.32868 0.20147 0.0
C1082 C 0.62476 0.31404 0.20499 0.0
C1083 C 0.63357 0.32426 0.20957 0.0
C1084 C 0.62665 0.30852 0.19218 0.0
C1085 C 0.63737 0.3129 0.18415 0.0
U1086 U 0.67761 0.34449 0.1785 0.0
O1087 O 0.69722 0.33773 0.17102 0.0
O1088 O 0.68422 0.35009 0.15804 0.0
C1089 C 0.69556 0.34346 0.15917 0.0
C1090 C 0.65806 0.32644 0.18024 0.0
C1091 C 0.69997 0.33578 0.14739 0.0
C1092 C 0.6979 0.31743 0.13128 0.0
C1093 C 0.69275 0.32464 0.14224 0.0
C1094 C 0.71731 0.33252 0.13062 0.0
C1095 C 0.71036 0.32123 0.12557 0.0
C1096 C 0.71214 0.33972 0.14138 0.0
C1097 C 0.68816 0.37563 0.19969 0.0
C1098 C 0.70976 0.38763 0.19986 0.0
C1099 C 0.69086 0.39639 0.2123 0.0
C1100 C 0.68284 0.38556 0.20802 0.0
C1101 C 0.70442 0.39743 0.20842 0.0
C1102 C 0.70164 0.37682 0.19542 0.0
C1103 C 0.67955 0.3639 0.19633 0.0
O1104 O 0.65709 0.33753 0.17305 0.0
O1105 O 0.67006 0.32485 0.1857 0.0
O1106 O 0.68496 0.352 0.19804 0.0
O1107 O 0.67223 0.36482 0.18528 0.0
H1108 H 0.6512 0.33642 0.2052 0.0
H1109 H 0.63224 0.32861 0.21945 0.0
H1110 H 0.61998 0.30061 0.18852 0.0
H1111 H 0.63878 0.3083 0.17439 0.0
H1112 H 0.69239 0.30873 0.12753 0.0
H1113 H 0.68331 0.32144 0.14677 0.0
H1114 H 0.72684 0.33572 0.12629 0.0
H1115 H 0.7178 0.34832 0.14517 0.0
H1116 H 0.72019 0.38832 0.19668 0.0
H1117 H 0.68656 0.40376 0.21898 0.0
H1118 H 0.6725 0.38478 0.21146 0.0
H1119 H 0.70593 0.36929 0.18891 0.0
C1120 C 0.64498 0.32547 0.83794 0.0
C1121 C 0.63854 0.3354 0.83018 0.0
C1122 C 0.62289 0.31848 0.82114 0.0
C1123 C 0.62754 0.33193 0.82186 0.0
C1124 C 0.6297 0.30861 0.82869 0.0
C1125 C 0.64054 0.3121 0.83704 0.0
U1126 U 0.67556 0.34687 0.84942 0.0
O1127 O 0.68238 0.35201 0.8699 0.0
O1128 O 0.69538 0.34015 0.85673 0.0
C1129 C 0.69365 0.34528 0.86876 0.0
C1130 C 0.65632 0.32862 0.84709 0.0
C1131 C 0.69745 0.33667 0.88022 0.0
C1132 C 0.69225 0.32049 0.89798 0.0
C1133 C 0.68821 0.32799 0.88667 0.0
C1134 C 0.71477 0.33013 0.89624 0.0
C1135 C 0.70558 0.32155 0.90291 0.0
C1136 C 0.71074 0.33758 0.88502 0.0
C1137 C 0.68553 0.37837 0.82859 0.0
C1138 C 0.70421 0.39382 0.83331 0.0
C1139 C 0.69062 0.39664 0.81312 0.0
C1140 C 0.68275 0.3855 0.81674 0.0
C1141 C 0.70148 0.4009 0.82129 0.0
C1142 C 0.6963 0.38256 0.83692 0.0
C1143 C 0.67701 0.36658 0.83178 0.0
O1144 O 0.66842 0.32719 0.84199 0.0
O1145 O 0.6552 0.33946 0.85453 0.0
O1146 O 0.6699 0.36723 0.84289 0.0
O1147 O 0.68254 0.3548 0.82992 0.0
H1148 H 0.64192 0.3458 0.83065 0.0
H1149 H 0.62253 0.3398 0.81622 0.0
H1150 H 0.62671 0.29811 0.82813 0.0
H1151 H 0.64547 0.30429 0.84284 0.0
H1152 H 0.68499 0.31387 0.90285 0.0
H1153 H 0.6779 0.3271 0.88305 0.0
H1154 H 0.72504 0.33136 0.89988 0.0
H1155 H 0.71799 0.34425 0.88019 0.0
H1156 H 0.71256 0.39685 0.83976 0.0
H1157 H 0.68812 0.40201 0.80393 0.0
H1158 H 0.67445 0.38243 0.81023 0.0
H1159 H 0.6986 0.37711 0.84612 0.0
C1160 C 0.64221 0.68337 0.82611 0.0
C1161 C 0.63656 0.69283 0.83487 0.0
C1162 C 0.62113 0.70007 0.81705 0.0
C1163 C 0.62598 0.70109 0.83038 0.0
C1164 C 0.62672 0.69049 0.80847 0.0
C1165 C 0.6371 0.68222 0.81297 0.0
U1166 U 0.67333 0.67217 0.84762 0.0
O1167 O 0.6797 0.65152 0.85234 0.0
O1168 O 0.69269 0.66473 0.84005 0.0
C1169 C 0.69085 0.65269 0.84528 0.0
C1170 C 0.65357 0.67463 0.82996 0.0
C1171 C 0.69455 0.6412 0.83678 0.0
C1172 C 0.68935 0.62323 0.82088 0.0
C1173 C 0.68533 0.63457 0.82818 0.0
C1174 C 0.71178 0.62525 0.83058 0.0
C1175 C 0.70264 0.6184 0.82207 0.0
C1176 C 0.70778 0.63652 0.83779 0.0
C1177 C 0.68399 0.69431 0.87881 0.0
C1178 C 0.70068 0.69122 0.89671 0.0
C1179 C 0.68799 0.71185 0.89531 0.0
C1180 C 0.68127 0.70706 0.88391 0.0
C1181 C 0.69757 0.70394 0.90208 0.0
C1182 C 0.69389 0.6864 0.88514 0.0
C1183 C 0.67587 0.68984 0.8671 0.0
O1184 O 0.66573 0.6797 0.82814 0.0
O1185 O 0.65243 0.66758 0.84116 0.0
O1186 O 0.66884 0.67859 0.86831 0.0
O1187 O 0.68121 0.69156 0.85513 0.0
H1188 H 0.6404 0.69392 0.84506 0.0
H1189 H 0.62184 0.70847 0.83715 0.0
H1190 H 0.62309 0.68947 0.7982 0.0
H1191 H 0.64127 0.67496 0.80607 0.0
H1192 H 0.6821 0.61826 0.81431 0.0
H1193 H 0.67506 0.63806 0.82722 0.0
H1194 H 0.72199 0.62173 0.83198 0.0
H1195 H 0.71503 0.64147 0.84439 0.0
H1196 H 0.70805 0.68489 0.90165 0.0
H1197 H 0.68559 0.72182 0.89884 0.0
H1198 H 0.67376 0.71335 0.87912 0.0
H1199 H 0.6962 0.67652 0.88128 0.0
C1200 C 0.32232 0.64678 0.83691 0.0
C1201 C 0.32533 0.64691 0.82308 0.0
C1202 C 0.31395 0.62518 0.82037 0.0
C1203 C 0.32111 0.6362 0.81486 0.0
C1204 C 0.31142 0.62491 0.83429 0.0
C1205 C 0.31554 0.63563 0.84245 0.0
U1206 U 0.34305 0.67821 0.84758 0.0
O1207 O 0.33587 0.69744 0.85546 0.0
O1208 O 0.3489 0.6847 0.86803 0.0
C1209 C 0.34165 0.69566 0.86728 0.0
C1210 C 0.32539 0.65836 0.84569 0.0
C1211 C 0.33353 0.69886 0.87918 0.0
C1212 C 0.31222 0.69979 0.89117 0.0
C1213 C 0.31978 0.69538 0.88017 0.0
C1214 C 0.33218 0.71077 0.9004 0.0
C1215 C 0.31833 0.70769 0.90132 0.0
C1216 C 0.33968 0.70639 0.88946 0.0
C1217 C 0.37415 0.6892 0.82654 0.0
C1218 C 0.38594 0.71086 0.82618 0.0
C1219 C 0.39541 0.69172 0.81472 0.0
C1220 C 0.3845 0.68374 0.81885 0.0
C1221 C 0.39621 0.70541 0.8182 0.0
C1222 C 0.37499 0.70279 0.83037 0.0
C1223 C 0.36241 0.68054 0.82974 0.0
O1224 O 0.3365 0.6576 0.85295 0.0
O1225 O 0.32345 0.67036 0.84045 0.0
O1226 O 0.35044 0.6859 0.82814 0.0
O1227 O 0.36342 0.67308 0.84066 0.0
H1228 H 0.33067 0.65539 0.81862 0.0
H1229 H 0.32332 0.63658 0.80419 0.0
H1230 H 0.30582 0.61662 0.8388 0.0
H1231 H 0.31312 0.63535 0.85308 0.0
H1232 H 0.3016 0.69713 0.89169 0.0
H1233 H 0.31486 0.6895 0.87235 0.0
H1234 H 0.33717 0.71699 0.90791 0.0
H1235 H 0.35026 0.70921 0.88885 0.0
H1236 H 0.38636 0.72134 0.82912 0.0
H1237 H 0.40304 0.68726 0.80846 0.0
H1238 H 0.38401 0.67329 0.81577 0.0
H1239 H 0.36713 0.70719 0.8364 0.0
C1240 C 0.33083 0.37903 0.8273 0.0
C1241 C 0.31682 0.38063 0.82685 0.0
C1242 C 0.31982 0.40165 0.8146 0.0
C1243 C 0.31134 0.39192 0.82061 0.0
C1244 C 0.33388 0.4 0.81516 0.0
C1245 C 0.33935 0.38878 0.82154 0.0
U1246 U 0.34656 0.3457 0.84458 0.0
O1247 O 0.35565 0.33137 0.83059 0.0
O1248 O 0.36878 0.34442 0.8436 0.0
C1249 C 0.36789 0.33524 0.83414 0.0
C1250 C 0.33653 0.36705 0.83351 0.0
C1251 C 0.37971 0.32847 0.82898 0.0
C1252 C 0.39952 0.32909 0.81489 0.0
C1253 C 0.388 0.33524 0.81977 0.0
C1254 C 0.39442 0.30925 0.82838 0.0
C1255 C 0.40287 0.31601 0.81913 0.0
C1256 C 0.3829 0.31546 0.83328 0.0
C1257 C 0.32877 0.32921 0.87745 0.0
C1258 C 0.32792 0.31183 0.89461 0.0
C1259 C 0.31018 0.3284 0.89314 0.0
C1260 C 0.3167 0.33449 0.88224 0.0
C1261 C 0.31568 0.31696 0.89935 0.0
C1262 C 0.33441 0.31793 0.88368 0.0
C1263 C 0.33516 0.33515 0.86563 0.0
O1264 O 0.34597 0.36781 0.84284 0.0
O1265 O 0.33242 0.35489 0.83013 0.0
O1266 O 0.33169 0.33153 0.85335 0.0
O1267 O 0.34477 0.34434 0.86667 0.0
H1268 H 0.31014 0.37315 0.83132 0.0
H1269 H 0.30046 0.3929 0.82025 0.0
H1270 H 0.34065 0.40742 0.81074 0.0
H1271 H 0.35021 0.3876 0.8218 0.0
H1272 H 0.40588 0.33468 0.80796 0.0
H1273 H 0.3856 0.34533 0.8164 0.0
H1274 H 0.39661 0.29912 0.83172 0.0
H1275 H 0.37653 0.31016 0.84045 0.0
H1276 H 0.3323 0.30295 0.89915 0.0
H1277 H 0.30086 0.33264 0.89672 0.0
H1278 H 0.31227 0.34324 0.87748 0.0
H1279 H 0.34371 0.31373 0.87997 0.0
C1280 C 0.25029 0.23602 0.05723 0.0
C1281 C 0.23607 0.23603 0.05753 0.0
C1282 C 0.25727 0.24221 0.04658 0.0
C1283 C 0.25014 0.2487 0.0362 0.0
C1284 C 0.22904 0.24271 0.0472 0.0
C1285 C 0.23599 0.24891 0.03666 0.0
C1286 C 0.25695 0.25398 0.02403 0.0
C1287 C 0.27482 0.27803 0.05865 0.0
C1288 C 0.28887 0.28059 0.05834 0.0
C1289 C 0.26807 0.27232 0.04759 0.0
C1290 C 0.27527 0.26824 0.03619 0.0
C1291 C 0.29592 0.27698 0.04665 0.0
C1292 C 0.28926 0.27076 0.03586 0.0
C1293 C 0.26849 0.26257 0.02398 0.0
C1294 C 0.27388 0.28235 0.96791 0.0
C1295 C 0.2877 0.28013 0.96552 0.0
C1296 C 0.26734 0.27612 0.97875 0.0
C1297 C 0.27453 0.26774 0.98754 0.0
C1298 C 0.29469 0.27137 0.97424 0.0
C1299 C 0.28823 0.26546 0.98525 0.0
C1300 C 0.26826 0.26229 0.99983 0.0
C1301 C 0.24974 0.23894 0.96498 0.0
C1302 C 0.23561 0.23722 0.96535 0.0
C1303 C 0.25678 0.24432 0.97606 0.0
C1304 C 0.2498 0.24851 0.9876 0.0
C1305 C 0.22878 0.24096 0.97711 0.0
C1306 C 0.23574 0.24662 0.98797 0.0
C1307 C 0.25679 0.25374 0.99987 0.0
H1308 H 0.25601 0.23084 0.06495 0.0
H1309 H 0.26817 0.24159 0.04627 0.0
H1310 H 0.21812 0.24309 0.04722 0.0
H1311 H 0.23026 0.25375 0.0287 0.0
H1312 H 0.26889 0.28043 0.0674 0.0
H1313 H 0.2572 0.27136 0.04799 0.0
H1314 H 0.30658 0.27914 0.0456 0.0
H1315 H 0.29511 0.26809 0.02711 0.0
H1316 H 0.26814 0.2892 0.96169 0.0
H1317 H 0.25679 0.27817 0.98054 0.0
H1318 H 0.30518 0.26902 0.97263 0.0
H1319 H 0.29395 0.25906 0.99201 0.0
H1320 H 0.25539 0.23618 0.95614 0.0
H1321 H 0.26767 0.2449 0.97562 0.0
H1322 H 0.218 0.2394 0.97807 0.0
H1323 H 0.23005 0.24945 0.99678 0.0
N1324 N 0.25165 0.25003 0.012 0.0
N1325 N 0.27363 0.26626 0.01181 0.0
C1326 C 0.77535 0.24082 0.96959 0.0
C1327 C 0.78946 0.24163 0.96805 0.0
C1328 C 0.76908 0.24719 0.98036 0.0
C1329 C 0.7768 0.2544 0.98986 0.0
C1330 C 0.79707 0.24917 0.97747 0.0
C1331 C 0.79082 0.2553 0.98836 0.0
C1332 C 0.77046 0.26028 1.00183 0.0
C1333 C 0.75718 0.28623 0.9672 0.0
C1334 C 0.74329 0.28516 0.96424 0.0
C1335 C 0.76244 0.28072 0.97903 0.0
C1336 C 0.75391 0.27413 0.98822 0.0
C1337 C 0.73478 0.27858 0.97356 0.0
C1338 C 0.74004 0.27326 0.9855 0.0
C1339 C 0.75929 0.26889 1.00105 0.0
C1340 C 0.75206 0.28799 0.05753 0.0
C1341 C 0.73793 0.28661 0.05876 0.0
C1342 C 0.75879 0.28221 0.04671 0.0
C1343 C 0.75151 0.2751 0.03683 0.0
C1344 C 0.73077 0.27927 0.04888 0.0
C1345 C 0.73747 0.27375 0.03794 0.0
C1346 C 0.75829 0.26949 0.02498 0.0
C1347 C 0.77032 0.24357 0.05988 0.0
C1348 C 0.78423 0.24157 0.0618 0.0
C1349 C 0.76552 0.24994 0.04832 0.0
C1350 C 0.77452 0.25502 0.03863 0.0
C1351 C 0.79327 0.24667 0.05211 0.0
C1352 C 0.78845 0.25333 0.04063 0.0
C1353 C 0.76945 0.2608 0.02581 0.0
H1354 H 0.76913 0.23495 0.96274 0.0
H1355 H 0.75825 0.24614 0.98149 0.0
H1356 H 0.80789 0.25035 0.97651 0.0
H1357 H 0.79695 0.2608 0.99561 0.0
H1358 H 0.76402 0.29154 0.96051 0.0
H1359 H 0.77314 0.28185 0.98114 0.0
H1360 H 0.72407 0.27737 0.9716 0.0
H1361 H 0.73328 0.26832 0.99257 0.0
H1362 H 0.75793 0.29377 0.06474 0.0
H1363 H 0.76962 0.28354 0.04589 0.0
H1364 H 0.71997 0.27768 0.04957 0.0
H1365 H 0.7317 0.26827 0.0304 0.0
H1366 H 0.76305 0.23997 0.0672 0.0
H1367 H 0.75471 0.25046 0.04682 0.0
H1368 H 0.80403 0.24514 0.05314 0.0
H1369 H 0.7956 0.25694 0.03318 0.0
N1370 N 0.77515 0.25659 0.01417 0.0
N1371 N 0.7536 0.27314 0.01263 0.0
C1372 C 0.77357 0.78289 0.05591 0.0
C1373 C 0.78743 0.78102 0.05832 0.0
C1374 C 0.76731 0.77727 0.04452 0.0
C1375 C 0.77486 0.76981 0.03531 0.0
C1376 C 0.79495 0.77362 0.04906 0.0
C1377 C 0.78875 0.76821 0.03758 0.0
C1378 C 0.76862 0.76413 0.02298 0.0
C1379 C 0.7501 0.74131 0.05831 0.0
C1380 C 0.73612 0.73846 0.05741 0.0
C1381 C 0.75722 0.74653 0.04726 0.0
C1382 C 0.75046 0.74976 0.0352 0.0
C1383 C 0.72952 0.7413 0.04513 0.0
C1384 C 0.73653 0.747 0.03431 0.0
C1385 C 0.7576 0.75489 0.02297 0.0
C1386 C 0.7551 0.73733 0.96444 0.0
C1387 C 0.7412 0.73403 0.9639 0.0
C1388 C 0.76077 0.74362 0.97576 0.0
C1389 C 0.75261 0.74758 0.98653 0.0
C1390 C 0.73321 0.73746 0.97505 0.0
C1391 C 0.73879 0.74428 0.98607 0.0
C1392 C 0.7583 0.75417 0.99881 0.0
C1393 C 0.7722 0.77931 0.9638 0.0
C1394 C 0.78624 0.78098 0.9628 0.0
C1395 C 0.76646 0.77417 0.97563 0.0
C1396 C 0.77472 0.77003 0.98643 0.0
C1397 C 0.79446 0.77763 0.97384 0.0
C1398 C 0.78875 0.77215 0.98554 0.0
C1399 C 0.76888 0.7639 0.99883 0.0
H1400 H 0.76759 0.78859 0.06291 0.0
H1401 H 0.75663 0.77881 0.04284 0.0
H1402 H 0.80567 0.77221 0.05062 0.0
H1403 H 0.79478 0.76265 0.0305 0.0
H1404 H 0.75569 0.7395 0.06752 0.0
H1405 H 0.76804 0.74773 0.0482 0.0
H1406 H 0.71893 0.7389 0.04365 0.0
H1407 H 0.731 0.74908 0.0251 0.0
H1408 H 0.76171 0.73511 0.95614 0.0
H1409 H 0.77158 0.74533 0.97603 0.0
H1410 H 0.72263 0.73475 0.97551 0.0
H1411 H 0.73225 0.74687 0.99435 0.0
H1412 H 0.76568 0.78209 0.95546 0.0
H1413 H 0.75558 0.77329 0.97624 0.0
H1414 H 0.80531 0.77899 0.9733 0.0
H1415 H 0.79534 0.76934 0.99382 0.0
N1416 N 0.77375 0.76824 0.01093 0.0
N1417 N 0.75306 0.75029 0.01086 0.0
C1418 C 0.27472 0.74161 0.96875 0.0
C1419 C 0.28889 0.74158 0.9677 0.0
C1420 C 0.26849 0.74808 0.97949 0.0
C1421 C 0.27633 0.7546 0.98939 0.0
C1422 C 0.29662 0.74846 0.97749 0.0
C1423 C 0.29041 0.75475 0.98829 0.0
C1424 C 0.27011 0.7602 1.00157 0.0
C1425 C 0.25685 0.78693 0.96773 0.0
C1426 C 0.24298 0.78574 0.96466 0.0
C1427 C 0.26209 0.78139 0.97956 0.0
C1428 C 0.25358 0.77466 0.98866 0.0
C1429 C 0.23447 0.77909 0.97395 0.0
C1430 C 0.23972 0.77375 0.98591 0.0
C1431 C 0.25908 0.76903 1.00128 0.0
C1432 C 0.25467 0.78345 0.06043 0.0
C1433 C 0.24062 0.78462 0.06111 0.0
C1434 C 0.26069 0.77885 0.04868 0.0
C1435 C 0.25268 0.77475 0.03764 0.0
C1436 C 0.23264 0.78134 0.04985 0.0
C1437 C 0.23863 0.77636 0.03822 0.0
C1438 C 0.25882 0.7692 0.0253 0.0
C1439 C 0.27237 0.74072 0.05818 0.0
C1440 C 0.28636 0.74106 0.06047 0.0
C1441 C 0.26688 0.74728 0.047 0.0
C1442 C 0.27533 0.75421 0.03796 0.0
C1443 C 0.2948 0.74817 0.05158 0.0
C1444 C 0.28932 0.75459 0.0403 0.0
C1445 C 0.26978 0.76023 0.02554 0.0
H1446 H 0.26842 0.73626 0.96155 0.0
H1447 H 0.2576 0.74754 0.98032 0.0
H1448 H 0.30752 0.74896 0.9769 0.0
H1449 H 0.29663 0.75967 0.99586 0.0
H1450 H 0.26369 0.79231 0.9611 0.0
H1451 H 0.27278 0.78253 0.98169 0.0
H1452 H 0.22379 0.7778 0.97192 0.0
H1453 H 0.23298 0.76868 0.9929 0.0
H1454 H 0.26099 0.78627 0.06894 0.0
H1455 H 0.27159 0.77852 0.04829 0.0
H1456 H 0.22178 0.78237 0.05017 0.0
H1457 H 0.23224 0.77357 0.02975 0.0
H1458 H 0.26575 0.73517 0.06492 0.0
H1459 H 0.25609 0.74664 0.04523 0.0
H1460 H 0.30563 0.74836 0.05313 0.0
H1461 H 0.296 0.75977 0.03333 0.0
N1462 N 0.27504 0.75617 0.01368 0.0
N1463 N 0.25383 0.77317 0.01314 0.0
C1464 C 0.96463 0.24289 0.25323 0.0
C1465 C 0.96316 0.24097 0.23932 0.0
C1466 C 0.97671 0.24801 0.25849 0.0
C1467 C 0.98729 0.25184 0.24985 0.0
C1468 C 0.97397 0.24397 0.23073 0.0
C1469 C 0.98596 0.24943 0.23596 0.0
C1470 C 0.99984 0.25811 0.25517 0.0
C1471 C 0.96609 0.28546 0.26658 0.0
C1472 C 0.96391 0.28605 0.28057 0.0
C1473 C 0.97785 0.27983 0.2615 0.0
C1474 C 0.98765 0.27459 0.27029 0.0
C1475 C 0.97394 0.28108 0.28933 0.0
C1476 C 0.98573 0.27553 0.28423 0.0
C1477 C 0.99999 0.2683 0.26505 0.0
C1478 C 0.05675 0.2883 0.2676 0.0
C1479 C 0.05909 0.28798 0.28157 0.0
C1480 C 0.04549 0.28164 0.26208 0.0
C1481 C 0.0364 0.27472 0.27051 0.0
C1482 C 0.05002 0.28095 0.28993 0.0
C1483 C 0.03868 0.27451 0.28446 0.0
C1484 C 0.02403 0.26838 0.26505 0.0
C1485 C 0.059 0.24353 0.25191 0.0
C1486 C 0.05944 0.2406 0.2381 0.0
C1487 C 0.04746 0.24907 0.25752 0.0
C1488 C 0.03632 0.25232 0.24933 0.0
C1489 C 0.0481 0.2432 0.23 0.0
C1490 C 0.03667 0.24906 0.23556 0.0
C1491 C 0.02395 0.25831 0.25502 0.0
H1492 H 0.95642 0.24042 0.26 0.0
H1493 H 0.97769 0.24911 0.2693 0.0
H1494 H 0.973 0.24248 0.21996 0.0
H1495 H 0.99407 0.25205 0.22913 0.0
H1496 H 0.95877 0.28946 0.25953 0.0
H1497 H 0.97929 0.27954 0.25069 0.0
H1498 H 0.9726 0.28122 0.30015 0.0
H1499 H 0.99323 0.27166 0.29119 0.0
H1500 H 0.06365 0.29362 0.26097 0.0
H1501 H 0.04376 0.28205 0.2513 0.0
H1502 H 0.05158 0.28065 0.30075 0.0
H1503 H 0.0317 0.26932 0.29111 0.0
H1504 H 0.06754 0.24134 0.25839 0.0
H1505 H 0.04726 0.25064 0.2683 0.0
H1506 H 0.0482 0.24098 0.21932 0.0
H1507 H 0.02814 0.25117 0.22904 0.0
N1508 N 0.01181 0.25362 0.25047 0.0
N1509 N 0.01208 0.27292 0.2697 0.0
C1510 C 0.74096 0.96418 0.27327 0.0
C1511 C 0.73933 0.96415 0.2873 0.0
C1512 C 0.74729 0.97512 0.26687 0.0
C1513 C 0.7525 0.98591 0.27451 0.0
C1514 C 0.74451 0.97486 0.29492 0.0
C1515 C 0.75111 0.9856 0.2886 0.0
C1516 C 0.75799 0.99831 0.26814 0.0
C1517 C 0.78291 0.9643 0.2529 0.0
C1518 C 0.78375 0.96347 0.23883 0.0
C1519 C 0.77779 0.97583 0.25894 0.0
C1520 C 0.77292 0.9865 0.25098 0.0
C1521 C 0.77958 0.97436 0.23088 0.0
C1522 C 0.77418 0.98577 0.23689 0.0
C1523 C 0.76701 0.99867 0.25711 0.0
C1524 C 0.7836 0.05698 0.25571 0.0
C1525 C 0.78336 0.05976 0.24179 0.0
C1526 C 0.77817 0.04498 0.26075 0.0
C1527 C 0.77233 0.03547 0.25201 0.0
C1528 C 0.77786 0.05001 0.23301 0.0
C1529 C 0.77249 0.03792 0.23808 0.0
C1530 C 0.76659 0.02274 0.25735 0.0
C1531 C 0.73847 0.05455 0.27413 0.0
C1532 C 0.73915 0.05563 0.28829 0.0
C1533 C 0.74492 0.04405 0.26747 0.0
C1534 C 0.75207 0.03436 0.27485 0.0
C1535 C 0.7468 0.04611 0.2955 0.0
C1536 C 0.75297 0.03551 0.28889 0.0
C1537 C 0.75763 0.02231 0.26832 0.0
H1538 H 0.73681 0.95605 0.26723 0.0
H1539 H 0.74773 0.97531 0.25597 0.0
H1540 H 0.74325 0.97503 0.30576 0.0
H1541 H 0.75487 0.99385 0.29473 0.0
H1542 H 0.78632 0.95606 0.2592 0.0
H1543 H 0.77761 0.97635 0.26983 0.0
H1544 H 0.78033 0.97394 0.22 0.0
H1545 H 0.7708 0.99395 0.23052 0.0
H1546 H 0.78813 0.06401 0.26276 0.0
H1547 H 0.77868 0.04307 0.27149 0.0
H1548 H 0.77745 0.05179 0.22224 0.0
H1549 H 0.76824 0.03061 0.23114 0.0
H1550 H 0.73257 0.06152 0.26818 0.0
H1551 H 0.74392 0.04322 0.25663 0.0
H1552 H 0.74799 0.04673 0.30633 0.0
H1553 H 0.75845 0.02813 0.29477 0.0
N1554 N 0.75376 0.01015 0.27326 0.0
N1555 N 0.77086 0.01092 0.25211 0.0
C1556 C 0.05662 0.7844 0.25291 0.0
C1557 C 0.05707 0.78538 0.23875 0.0
C1558 C 0.04562 0.77814 0.2593 0.0
C1559 C 0.03495 0.77262 0.25163 0.0
C1560 C 0.04644 0.77964 0.23118 0.0
C1561 C 0.03548 0.77345 0.23754 0.0
C1562 C 0.02262 0.76696 0.258 0.0
C1563 C 0.05687 0.74073 0.27132 0.0
C1564 C 0.05839 0.7392 0.28535 0.0
C1565 C 0.04528 0.74655 0.26584 0.0
C1566 C 0.03505 0.75124 0.27427 0.0
C1567 C 0.04789 0.7434 0.29376 0.0
C1568 C 0.03634 0.74933 0.28826 0.0
C1569 C 0.02263 0.75742 0.26865 0.0
C1570 C 0.96326 0.74257 0.27268 0.0
C1571 C 0.96225 0.74149 0.28672 0.0
C1572 C 0.97512 0.74753 0.26681 0.0
C1573 C 0.98599 0.75192 0.27494 0.0
C1574 C 0.9733 0.74521 0.29484 0.0
C1575 C 0.98507 0.75041 0.28899 0.0
C1576 C 0.99847 0.75773 0.26897 0.0
C1577 C 0.96435 0.78425 0.25553 0.0
C1578 C 0.96284 0.78555 0.24148 0.0
C1579 C 0.97596 0.77853 0.2611 0.0
C1580 C 0.98615 0.77363 0.25273 0.0
C1581 C 0.97331 0.78117 0.23314 0.0
C1582 C 0.98483 0.77528 0.23871 0.0
C1583 C 0.9985 0.76738 0.2584 0.0
H1584 H 0.06455 0.78883 0.25907 0.0
H1585 H 0.04529 0.77793 0.2702 0.0
H1586 H 0.04653 0.77995 0.22027 0.0
H1587 H 0.02735 0.76933 0.23141 0.0
H1588 H 0.06457 0.73727 0.26452 0.0
H1589 H 0.04431 0.74723 0.25499 0.0
H1590 H 0.0487 0.74236 0.3046 0.0
H1591 H 0.02847 0.75259 0.29499 0.0
H1592 H 0.95489 0.73951 0.26626 0.0
H1593 H 0.97575 0.748 0.25593 0.0
H1594 H 0.97272 0.74428 0.30571 0.0
H1595 H 0.99339 0.75347 0.29547 0.0
H1596 H 0.95661 0.7878 0.26225 0.0
H1597 H 0.97694 0.77794 0.27196 0.0
H1598 H 0.97246 0.78201 0.22228 0.0
H1599 H 0.99265 0.77182 0.23202 0.0
N1600 N 0.01057 0.77146 0.25332 0.0
N1601 N 0.01054 0.75327 0.27372 0.0
C1602 C 0.25033 0.96426 0.24274 0.0
C1603 C 0.23627 0.9644 0.24045 0.0
C1604 C 0.25706 0.97559 0.24798 0.0
C1605 C 0.24979 0.98708 0.25154 0.0
C1606 C 0.22922 0.97621 0.2434 0.0
C1607 C 0.23585 0.9873 0.24899 0.0
C1608 C 0.25639 0.99938 0.25706 0.0
C1609 C 0.26787 0.96549 0.28451 0.0
C1610 C 0.28186 0.96341 0.28551 0.0
C1611 C 0.26288 0.97735 0.27885 0.0
C1612 C 0.27176 0.98724 0.27373 0.0
C1613 C 0.29073 0.97363 0.28101 0.0
C1614 C 0.28572 0.98544 0.27521 0.0
C1615 C 0.26662 0.99955 0.26706 0.0
C1616 C 0.26984 0.05861 0.28185 0.0
C1617 C 0.28387 0.05999 0.28333 0.0
C1618 C 0.26418 0.0467 0.27678 0.0
C1619 C 0.27252 0.03621 0.27252 0.0
C1620 C 0.29218 0.04924 0.27988 0.0
C1621 C 0.28655 0.03747 0.27446 0.0
C1622 C 0.26682 0.02369 0.26656 0.0
C1623 C 0.24955 0.05793 0.24111 0.0
C1624 C 0.23538 0.05735 0.23972 0.0
C1625 C 0.25662 0.04697 0.2465 0.0
C1626 C 0.24959 0.03543 0.251 0.0
C1627 C 0.22856 0.04549 0.24364 0.0
C1628 C 0.23553 0.03478 0.24931 0.0
C1629 C 0.25645 0.02345 0.25668 0.0
H1630 H 0.25615 0.95539 0.24063 0.0
H1631 H 0.26791 0.97532 0.24924 0.0
H1632 H 0.21852 0.97701 0.24134 0.0
H1633 H 0.22999 0.99611 0.25134 0.0
H1634 H 0.26077 0.95798 0.28818 0.0
H1635 H 0.25207 0.97872 0.27834 0.0
H1636 H 0.30155 0.97237 0.28162 0.0
H1637 H 0.29277 0.99303 0.27158 0.0
H1638 H 0.26325 0.06671 0.28475 0.0
H1639 H 0.2533 0.04575 0.27613 0.0
H1640 H 0.30303 0.05007 0.28114 0.0
H1641 H 0.29319 0.02941 0.27158 0.0
H1642 H 0.25519 0.06687 0.2382 0.0
H1643 H 0.26752 0.04756 0.24717 0.0
H1644 H 0.21775 0.04436 0.2423 0.0
H1645 H 0.22984 0.02592 0.2524 0.0
N1646 N 0.25178 0.01132 0.25241 0.0
N1647 N 0.27155 0.0117 0.27125 0.0
C1648 C 0.96694 0.73973 0.75064 0.0
C1649 C 0.96474 0.7411 0.73666 0.0
C1650 C 0.97805 0.74602 0.75683 0.0
C1651 C 0.98718 0.75367 0.74913 0.0
C1652 C 0.97369 0.74927 0.72916 0.0
C1653 C 0.9849 0.75529 0.73529 0.0
C1654 C 0.9998 0.75896 0.75506 0.0
C1655 C 0.96694 0.78521 0.77155 0.0
C1656 C 0.96649 0.78596 0.78571 0.0
C1657 C 0.9777 0.77895 0.76515 0.0
C1658 C 0.98817 0.77318 0.77277 0.0
C1659 C 0.97692 0.78 0.79326 0.0
C1660 C 0.98766 0.77381 0.78687 0.0
C1661 C 1.0003 0.7676 0.7663 0.0
C1662 C 0.05727 0.78697 0.76774 0.0
C1663 C 0.06054 0.78578 0.78153 0.0
C1664 C 0.04571 0.78069 0.76248 0.0
C1665 C 0.03708 0.77324 0.77091 0.0
C1666 C 0.05188 0.77808 0.78986 0.0
C1667 C 0.04017 0.77208 0.78463 0.0
C1668 C 0.02436 0.76743 0.76562 0.0
C1669 C 0.05726 0.74127 0.74944 0.0
C1670 C 0.05851 0.74196 0.73536 0.0
C1671 C 0.04609 0.74686 0.75577 0.0
C1672 C 0.03597 0.75314 0.74809 0.0
C1673 C 0.04827 0.74806 0.72771 0.0
C1674 C 0.03705 0.75349 0.73402 0.0
C1675 C 0.02383 0.75867 0.75451 0.0
H1676 H 0.9604 0.73342 0.75675 0.0
H1677 H 0.97979 0.7445 0.76751 0.0
H1678 H 0.97216 0.75093 0.71847 0.0
H1679 H 0.99187 0.76117 0.7292 0.0
H1680 H 0.95923 0.78986 0.76539 0.0
H1681 H 0.97805 0.77906 0.75425 0.0
H1682 H 0.97683 0.78015 0.80417 0.0
H1683 H 0.99566 0.76954 0.79297 0.0
H1684 H 0.06345 0.793 0.76102 0.0
H1685 H 0.04332 0.78194 0.75188 0.0
H1686 H 0.05412 0.77658 0.80044 0.0
H1687 H 0.03357 0.76641 0.7913 0.0
H1688 H 0.06503 0.73663 0.75554 0.0
H1689 H 0.04528 0.74614 0.76663 0.0
H1690 H 0.04893 0.74857 0.71683 0.0
H1691 H 0.02927 0.7581 0.72789 0.0
N1692 N 0.01157 0.75486 0.74959 0.0
N1693 N 0.0126 0.77148 0.77116 0.0
C1694 C 0.24025 0.96452 0.77447 0.0
C1695 C 0.23961 0.96428 0.78863 0.0
C1696 C 0.24645 0.97534 0.76775 0.0
C1697 C 0.25237 0.98594 0.77512 0.0
C1698 C 0.24573 0.97479 0.79594 0.0
C1699 C 0.25202 0.98549 0.78925 0.0
C1700 C 0.25753 0.99831 0.76847 0.0
C1701 C 0.2835 0.96507 0.75165 0.0
C1702 C 0.28532 0.96536 0.73762 0.0
C1703 C 0.27708 0.97569 0.75813 0.0
C1704 C 0.27192 0.98656 0.75062 0.0
C1705 C 0.28022 0.9762 0.73015 0.0
C1706 C 0.27356 0.98663 0.73656 0.0
C1707 C 0.26614 0.99861 0.75711 0.0
C1708 C 0.28498 0.05563 0.7548 0.0
C1709 C 0.2849 0.05798 0.74084 0.0
C1710 C 0.27833 0.04438 0.76019 0.0
C1711 C 0.27152 0.03527 0.75168 0.0
C1712 C 0.27785 0.04904 0.73235 0.0
C1713 C 0.27134 0.03767 0.73773 0.0
C1714 C 0.26566 0.02268 0.7572 0.0
C1715 C 0.23937 0.05568 0.7727 0.0
C1716 C 0.24012 0.05724 0.78673 0.0
C1717 C 0.24495 0.04439 0.76662 0.0
C1718 C 0.2513 0.03451 0.77452 0.0
C1719 C 0.24631 0.04731 0.79463 0.0
C1720 C 0.25171 0.03595 0.78858 0.0
C1721 C 0.25694 0.02233 0.76834 0.0
H1722 H 0.23548 0.95661 0.76858 0.0
H1723 H 0.2462 0.97563 0.75684 0.0
H1724 H 0.24554 0.97481 0.80685 0.0
H1725 H 0.25642 0.9936 0.79516 0.0
H1726 H 0.28752 0.95689 0.75764 0.0
H1727 H 0.27658 0.97558 0.76902 0.0
H1728 H 0.28146 0.97665 0.71932 0.0
H1729 H 0.26985 0.99491 0.7305 0.0
H1730 H 0.29036 0.0624 0.76154 0.0
H1731 H 0.27888 0.04258 0.77095 0.0
H1732 H 0.27777 0.05059 0.72154 0.0
H1733 H 0.26628 0.03066 0.731 0.0
H1734 H 0.23465 0.06329 0.76646 0.0
H1735 H 0.24423 0.04333 0.75578 0.0
H1736 H 0.24695 0.04836 0.80547 0.0
H1737 H 0.2564 0.02836 0.79487 0.0
N1738 N 0.25333 0.01019 0.77357 0.0
N1739 N 0.26982 0.01084 0.75198 0.0
C1740 C 0.05622 0.28687 0.75672 0.0
C1741 C 0.05861 0.28655 0.74278 0.0
C1742 C 0.04485 0.28038 0.76214 0.0
C1743 C 0.03567 0.27357 0.75367 0.0
C1744 C 0.04945 0.27964 0.73436 0.0
C1745 C 0.038 0.27335 0.73974 0.0
C1746 C 0.02314 0.26746 0.75903 0.0
C1747 C 0.05768 0.24259 0.77344 0.0
C1748 C 0.05813 0.23986 0.78732 0.0
C1749 C 0.04613 0.24807 0.76755 0.0
C1750 C 0.03499 0.25153 0.77551 0.0
C1751 C 0.04677 0.24257 0.79519 0.0
C1752 C 0.03534 0.24842 0.78935 0.0
C1753 C 0.02272 0.25772 0.76947 0.0
C1754 C 0.96321 0.24243 0.77004 0.0
C1755 C 0.96205 0.23884 0.78374 0.0
C1756 C 0.975 0.24838 0.76508 0.0
C1757 C 0.98573 0.25178 0.77379 0.0
C1758 C 0.97297 0.2419 0.79241 0.0
C1759 C 0.9846 0.24837 0.78751 0.0
C1760 C 0.99851 0.25788 0.76863 0.0
C1761 C 0.96697 0.28695 0.75144 0.0
C1762 C 0.96576 0.28587 0.73731 0.0
C1763 C 0.97754 0.28065 0.75839 0.0
C1764 C 0.98715 0.27328 0.75131 0.0
C1765 C 0.97522 0.27802 0.73043 0.0
C1766 C 0.98588 0.27202 0.73731 0.0
C1767 C 0.99908 0.26752 0.75809 0.0
H1768 H 0.06317 0.29209 0.76341 0.0
H1769 H 0.04311 0.28084 0.77289 0.0
H1770 H 0.05102 0.27933 0.72357 0.0
H1771 H 0.03095 0.26827 0.73303 0.0
H1772 H 0.06619 0.24026 0.76711 0.0
H1773 H 0.04594 0.24944 0.75673 0.0
H1774 H 0.04685 0.24043 0.80591 0.0
H1775 H 0.02682 0.25066 0.79571 0.0
H1776 H 0.95505 0.24057 0.76296 0.0
H1777 H 0.97572 0.24996 0.75433 0.0
H1778 H 0.97274 0.23906 0.80295 0.0
H1779 H 0.9928 0.25057 0.79446 0.0
H1780 H 0.96003 0.29299 0.75713 0.0
H1781 H 0.97843 0.28184 0.7692 0.0
H1782 H 0.97447 0.27651 0.71966 0.0
H1783 H 0.99318 0.26632 0.73167 0.0
N1784 N 0.01133 0.27183 0.75372 0.0
N1785 N 0.0104 0.25344 0.77391 0.0
C1786 C 0.75472 0.96574 0.74074 0.0
C1787 C 0.7408 0.96269 0.7405 0.0
C1788 C 0.75955 0.97763 0.74661 0.0
C1789 C 0.7506 0.98674 0.75241 0.0
C1790 C 0.73185 0.97198 0.74618 0.0
C1791 C 0.7367 0.98393 0.75195 0.0
C1792 C 0.75563 0.99948 0.75836 0.0
C1793 C 0.77086 0.96604 0.78489 0.0
C1794 C 0.78492 0.96463 0.7841 0.0
C1795 C 0.76468 0.97758 0.77973 0.0
C1796 C 0.7725 0.9879 0.7738 0.0
C1797 C 0.79272 0.97513 0.7785 0.0
C1798 C 0.78658 0.98671 0.77353 0.0
C1799 C 0.76619 1.00004 0.76796 0.0
C1800 C 0.76923 0.05938 0.78171 0.0
C1801 C 0.78327 0.06055 0.78328 0.0
C1802 C 0.76341 0.04748 0.77678 0.0
C1803 C 0.7716 0.03675 0.77283 0.0
C1804 C 0.79143 0.04965 0.77998 0.0
C1805 C 0.78565 0.03787 0.77474 0.0
C1806 C 0.76575 0.02407 0.76733 0.0
C1807 C 0.75126 0.05744 0.74028 0.0
C1808 C 0.73716 0.05841 0.73955 0.0
C1809 C 0.7572 0.046 0.74592 0.0
C1810 C 0.74911 0.03555 0.75125 0.0
C1811 C 0.72907 0.04777 0.74432 0.0
C1812 C 0.735 0.0364 0.75008 0.0
C1813 C 0.75514 0.02351 0.75767 0.0
H1814 H 0.7619 0.95906 0.73618 0.0
H1815 H 0.77029 0.97979 0.74645 0.0
H1816 H 0.72109 0.96996 0.74636 0.0
H1817 H 0.7296 0.9909 0.75623 0.0
H1818 H 0.76465 0.95806 0.78914 0.0
H1819 H 0.75381 0.97841 0.78029 0.0
H1820 H 0.80359 0.9743 0.77787 0.0
H1821 H 0.79281 0.99461 0.76914 0.0
H1822 H 0.76277 0.06762 0.78448 0.0
H1823 H 0.75252 0.04669 0.77608 0.0
H1824 H 0.80229 0.05033 0.78128 0.0
H1825 H 0.79219 0.02967 0.77204 0.0
H1826 H 0.75764 0.06558 0.73662 0.0
H1827 H 0.7681 0.04541 0.74625 0.0
H1828 H 0.71817 0.04837 0.74383 0.0
H1829 H 0.72855 0.02838 0.7539 0.0
N1830 N 0.75045 0.01122 0.75368 0.0
N1831 N 0.77088 0.01229 0.77199 0.0
C1832 C 0.25039 0.7367 0.55597 0.0
C1833 C 0.23619 0.73743 0.55666 0.0
C1834 C 0.25747 0.74275 0.54531 0.0
C1835 C 0.2505 0.74952 0.53503 0.0
C1836 C 0.22936 0.74462 0.54648 0.0
C1837 C 0.23641 0.75041 0.53573 0.0
C1838 C 0.25751 0.75459 0.52286 0.0
C1839 C 0.27051 0.78233 0.55629 0.0
C1840 C 0.28445 0.78216 0.55928 0.0
C1841 C 0.26536 0.77614 0.54471 0.0
C1842 C 0.27399 0.7697 0.53572 0.0
C1843 C 0.29309 0.77587 0.55009 0.0
C1844 C 0.28792 0.76984 0.53837 0.0
C1845 C 0.26863 0.76361 0.52314 0.0
C1846 C 0.27117 0.78316 0.46631 0.0
C1847 C 0.28517 0.78391 0.46415 0.0
C1848 C 0.26596 0.77638 0.47753 0.0
C1849 C 0.27465 0.77013 0.48679 0.0
C1850 C 0.29386 0.77756 0.47338 0.0
C1851 C 0.28864 0.77085 0.48469 0.0
C1852 C 0.26919 0.76351 0.49904 0.0
C1853 C 0.25486 0.73848 0.46378 0.0
C1854 C 0.24113 0.73452 0.46352 0.0
C1855 C 0.26056 0.74468 0.47514 0.0
C1856 C 0.25256 0.74786 0.4863 0.0
C1857 C 0.23329 0.73731 0.47497 0.0
C1858 C 0.23887 0.74403 0.48605 0.0
C1859 C 0.25836 0.75404 0.49878 0.0
H1860 H 0.25608 0.73109 0.5634 0.0
H1861 H 0.26833 0.74171 0.54484 0.0
H1862 H 0.21852 0.74576 0.54674 0.0
H1863 H 0.23082 0.75557 0.52788 0.0
H1864 H 0.26352 0.78743 0.56279 0.0
H1865 H 0.25463 0.77664 0.54264 0.0
H1866 H 0.30384 0.7754 0.55199 0.0
H1867 H 0.2948 0.76511 0.53146 0.0
H1868 H 0.26422 0.78791 0.45933 0.0
H1869 H 0.25514 0.77619 0.47906 0.0
H1870 H 0.3047 0.77812 0.47206 0.0
H1871 H 0.29553 0.76622 0.4918 0.0
H1872 H 0.26135 0.73679 0.45526 0.0
H1873 H 0.27131 0.74672 0.47516 0.0
H1874 H 0.22285 0.73411 0.47564 0.0
H1875 H 0.23242 0.74605 0.49456 0.0
N1876 N 0.25293 0.75014 0.51074 0.0
N1877 N 0.27401 0.76774 0.5112 0.0
C1878 C 0.78619 0.75509 0.55926 0.0
C1879 C 0.78534 0.74104 0.56077 0.0
C1880 C 0.78135 0.76124 0.54752 0.0
C1881 C 0.77567 0.75339 0.53713 0.0
C1882 C 0.77998 0.73323 0.55021 0.0
C1883 C 0.77529 0.73935 0.53846 0.0
C1884 C 0.77035 0.75961 0.5247 0.0
C1885 C 0.74077 0.77086 0.55698 0.0
C1886 C 0.742 0.78449 0.56076 0.0
C1887 C 0.7471 0.76612 0.54543 0.0
C1888 C 0.75458 0.77492 0.53721 0.0
C1889 C 0.74962 0.79324 0.55241 0.0
C1890 C 0.75563 0.78854 0.54066 0.0
C1891 C 0.76081 0.76999 0.52474 0.0
C1892 C 0.74185 0.77137 0.46713 0.0
C1893 C 0.73981 0.78529 0.46561 0.0
C1894 C 0.74841 0.7663 0.47853 0.0
C1895 C 0.7536 0.77506 0.48841 0.0
C1896 C 0.74468 0.79399 0.47576 0.0
C1897 C 0.75154 0.78893 0.48698 0.0
C1898 C 0.76034 0.76989 0.50071 0.0
C1899 C 0.78391 0.75538 0.46533 0.0
C1900 C 0.78538 0.74138 0.46477 0.0
C1901 C 0.77934 0.76144 0.4771 0.0
C1902 C 0.77562 0.75352 0.48829 0.0
C1903 C 0.78242 0.73351 0.47616 0.0
C1904 C 0.77751 0.73953 0.4878 0.0
C1905 C 0.77009 0.75958 0.50067 0.0
H1906 H 0.79029 0.7613 0.56728 0.0
H1907 H 0.78202 0.77209 0.54655 0.0
H1908 H 0.77935 0.72237 0.5511 0.0
H1909 H 0.77109 0.73312 0.5305 0.0
H1910 H 0.73474 0.7638 0.56278 0.0
H1911 H 0.74594 0.75561 0.54277 0.0
H1912 H 0.75114 0.80372 0.55497 0.0
H1913 H 0.76132 0.79549 0.53436 0.0
H1914 H 0.73841 0.76433 0.45952 0.0
H1915 H 0.74938 0.7555 0.47962 0.0
H1916 H 0.74303 0.80472 0.4752 0.0
H1917 H 0.75519 0.79587 0.4946 0.0
H1918 H 0.78642 0.76162 0.4567 0.0
H1919 H 0.7786 0.7723 0.47738 0.0
H1920 H 0.78364 0.7227 0.47593 0.0
H1921 H 0.77497 0.7332 0.49636 0.0
N1922 N 0.77459 0.75479 0.51271 0.0
N1923 N 0.7562 0.77478 0.51276 0.0
C1924 C 0.78449 0.2658 0.46465 0.0
C1925 C 0.78495 0.27976 0.46213 0.0
C1926 C 0.77872 0.26068 0.47647 0.0
C1927 C 0.77316 0.26938 0.486 0.0
C1928 C 0.77962 0.28845 0.47187 0.0
C1929 C 0.7739 0.28331 0.48371 0.0
C1930 C 0.76717 0.26411 0.49866 0.0
C1931 C 0.74035 0.24709 0.46537 0.0
C1932 C 0.73848 0.23303 0.46571 0.0
C1933 C 0.74689 0.25376 0.47602 0.0
C1934 C 0.75196 0.24645 0.48708 0.0
C1935 C 0.74367 0.22577 0.47672 0.0
C1936 C 0.75029 0.2324 0.48727 0.0
C1937 C 0.75783 0.25321 0.49913 0.0
C1938 C 0.73894 0.252 0.55624 0.0
C1939 C 0.73801 0.238 0.5582 0.0
C1940 C 0.74587 0.25737 0.54515 0.0
C1941 C 0.75194 0.24882 0.5358 0.0
C1942 C 0.74429 0.22948 0.54893 0.0
C1943 C 0.75107 0.23484 0.53779 0.0
C1944 C 0.75791 0.25421 0.5232 0.0
C1945 C 0.78706 0.2685 0.55541 0.0
C1946 C 0.78735 0.28251 0.5571 0.0
C1947 C 0.78014 0.26275 0.54448 0.0
C1948 C 0.77355 0.27095 0.53498 0.0
C1949 C 0.78058 0.29069 0.54774 0.0
C1950 C 0.7739 0.28496 0.53666 0.0
C1951 C 0.76726 0.26504 0.52276 0.0
H1952 H 0.78878 0.2588 0.45759 0.0
H1953 H 0.77873 0.24991 0.47821 0.0
H1954 H 0.77965 0.29923 0.47028 0.0
H1955 H 0.76985 0.29024 0.491 0.0
H1956 H 0.73631 0.25299 0.45711 0.0
H1957 H 0.74759 0.26464 0.47578 0.0
H1958 H 0.74255 0.21492 0.47724 0.0
H1959 H 0.754 0.22651 0.4957 0.0
H1960 H 0.73425 0.2588 0.56325 0.0
H1961 H 0.74611 0.26818 0.54367 0.0
H1962 H 0.74363 0.21865 0.5501 0.0
H1963 H 0.75552 0.22804 0.53061 0.0
H1964 H 0.79218 0.26202 0.56254 0.0
H1965 H 0.78024 0.25192 0.54326 0.0
H1966 H 0.78073 0.30154 0.54884 0.0
H1967 H 0.769 0.29148 0.52939 0.0
N1968 N 0.77145 0.26962 0.51051 0.0
N1969 N 0.75364 0.24873 0.51139 0.0
C1970 C 0.25317 0.28539 0.46781 0.0
C1971 C 0.23922 0.28343 0.46574 0.0
C1972 C 0.25945 0.28028 0.47937 0.0
C1973 C 0.25187 0.27316 0.48902 0.0
C1974 C 0.23166 0.27642 0.47548 0.0
C1975 C 0.23792 0.27144 0.48708 0.0
C1976 C 0.25819 0.26798 0.50145 0.0
C1977 C 0.27526 0.24405 0.4671 0.0
C1978 C 0.28934 0.24223 0.46734 0.0
C1979 C 0.26867 0.2495 0.47819 0.0
C1980 C 0.27606 0.25389 0.48953 0.0
C1981 C 0.29657 0.24601 0.479 0.0
C1982 C 0.29006 0.25192 0.48982 0.0
C1983 C 0.2695 0.25945 0.50167 0.0
C1984 C 0.27477 0.24173 0.55895 0.0
C1985 C 0.28888 0.24285 0.56057 0.0
C1986 C 0.26833 0.24757 0.54784 0.0
C1987 C 0.27587 0.25464 0.53814 0.0
C1988 C 0.29633 0.25011 0.55088 0.0
C1989 C 0.2899 0.25582 0.53973 0.0
C1990 C 0.26948 0.25987 0.52575 0.0
C1991 C 0.25258 0.28351 0.56008 0.0
C1992 C 0.23839 0.28424 0.56047 0.0
C1993 C 0.25908 0.27849 0.54875 0.0
C1994 C 0.25154 0.27358 0.53775 0.0
C1995 C 0.23093 0.27979 0.5492 0.0
C1996 C 0.23742 0.27447 0.53803 0.0
C1997 C 0.2581 0.26829 0.52553 0.0
H1998 H 0.2592 0.29079 0.46044 0.0
H1999 H 0.2702 0.28193 0.48081 0.0
H2000 H 0.22088 0.27497 0.47423 0.0
H2001 H 0.23187 0.26614 0.49452 0.0
H2002 H 0.26926 0.24134 0.45836 0.0
H2003 H 0.25778 0.25006 0.47788 0.0
H2004 H 0.3073 0.24433 0.47992 0.0
H2005 H 0.29604 0.25485 0.49854 0.0
H2006 H 0.2687 0.236 0.56603 0.0
H2007 H 0.25751 0.24626 0.54663 0.0
H2008 H 0.30716 0.2514 0.55187 0.0
H2009 H 0.29591 0.26116 0.53229 0.0
H2010 H 0.25873 0.28677 0.56855 0.0
H2011 H 0.27 0.2786 0.54861 0.0
H2012 H 0.22004 0.28055 0.5489 0.0
H2013 H 0.23135 0.27105 0.52956 0.0
N2014 N 0.25291 0.27194 0.51336 0.0
N2015 N 0.27469 0.25586 0.51384 0.0
C2016 C 0.73751 0.46601 0.77071 0.0
C2017 C 0.7396 0.46202 0.78422 0.0
C2018 C 0.74365 0.47765 0.7656 0.0
C2019 C 0.75177 0.48574 0.77393 0.0
C2020 C 0.74777 0.47028 0.79253 0.0
C2021 C 0.7536 0.48213 0.78747 0.0
C2022 C 0.75785 0.49826 0.76866 0.0
C2023 C 0.78122 0.46385 0.75122 0.0
C2024 C 0.78326 0.46427 0.73717 0.0
C2025 C 0.77601 0.47493 0.758 0.0
C2026 C 0.77217 0.48652 0.75084 0.0
C2027 C 0.77981 0.47608 0.73014 0.0
C2028 C 0.77426 0.48697 0.73686 0.0
C2029 C 0.76687 0.49864 0.75767 0.0
C2030 C 0.78378 0.55669 0.75391 0.0
C2031 C 0.78209 0.55889 0.74001 0.0
C2032 C 0.77868 0.54495 0.75993 0.0
C2033 C 0.77198 0.53521 0.75207 0.0
C2034 C 0.77548 0.5491 0.73217 0.0
C2035 C 0.77061 0.53726 0.73813 0.0
C2036 C 0.76667 0.52266 0.75814 0.0
C2037 C 0.74111 0.55644 0.77246 0.0
C2038 C 0.73956 0.55724 0.78645 0.0
C2039 C 0.74669 0.54502 0.7667 0.0
C2040 C 0.75136 0.53443 0.7749 0.0
C2041 C 0.74353 0.54644 0.79464 0.0
C2042 C 0.74942 0.53513 0.7889 0.0
C2043 C 0.75751 0.52227 0.769 0.0
H2044 H 0.73097 0.46028 0.76404 0.0
H2045 H 0.74189 0.48047 0.75518 0.0
H2046 H 0.74985 0.46756 0.8029 0.0
H2047 H 0.75977 0.48837 0.79407 0.0
H2048 H 0.78364 0.45498 0.75707 0.0
H2049 H 0.77524 0.47443 0.76885 0.0
H2050 H 0.78159 0.47707 0.71943 0.0
H2051 H 0.77166 0.49585 0.73106 0.0
H2052 H 0.78892 0.56412 0.76011 0.0
H2053 H 0.78002 0.54343 0.77067 0.0
H2054 H 0.77423 0.55054 0.72141 0.0
H2055 H 0.76559 0.52978 0.73189 0.0
H2056 H 0.73793 0.56465 0.766 0.0
H2057 H 0.74725 0.54449 0.75583 0.0
H2058 H 0.74235 0.5469 0.80547 0.0
H2059 H 0.75262 0.527 0.79543 0.0
N2060 N 0.75358 0.51005 0.77391 0.0
N2061 N 0.77088 0.51087 0.75288 0.0
C2062 C 0.25356 0.46526 0.74178 0.0
C2063 C 0.2396 0.4633 0.7401 0.0
C2064 C 0.25868 0.47736 0.7469 0.0
C2065 C 0.24991 0.4876 0.75084 0.0
C2066 C 0.23085 0.47378 0.74341 0.0
C2067 C 0.23596 0.48583 0.74875 0.0
C2068 C 0.25522 0.50029 0.75678 0.0
C2069 C 0.26744 0.46775 0.78566 0.0
C2070 C 0.28146 0.46597 0.78654 0.0
C2071 C 0.26222 0.47901 0.77912 0.0
C2072 C 0.27094 0.48858 0.77325 0.0
C2073 C 0.29016 0.47566 0.7808 0.0
C2074 C 0.28493 0.48692 0.77428 0.0
C2075 C 0.26559 0.50067 0.76658 0.0
C2076 C 0.27061 0.55898 0.78231 0.0
C2077 C 0.28456 0.55894 0.78495 0.0
C2078 C 0.26436 0.54803 0.77588 0.0
C2079 C 0.27205 0.53709 0.77152 0.0
C2080 C 0.29222 0.54804 0.78064 0.0
C2081 C 0.28605 0.53728 0.77394 0.0
C2082 C 0.26576 0.52467 0.76592 0.0
C2083 C 0.24955 0.55794 0.73921 0.0
C2084 C 0.23545 0.55904 0.74015 0.0
C2085 C 0.25606 0.54667 0.74455 0.0
C2086 C 0.24854 0.53639 0.75087 0.0
C2087 C 0.22797 0.54857 0.7462 0.0
C2088 C 0.23445 0.53732 0.75142 0.0
C2089 C 0.255 0.52431 0.75647 0.0
H2090 H 0.26055 0.45746 0.73902 0.0
H2091 H 0.26951 0.47866 0.74778 0.0
H2092 H 0.22003 0.47255 0.74219 0.0
H2093 H 0.22901 0.49367 0.75149 0.0
H2094 H 0.26051 0.4604 0.78994 0.0
H2095 H 0.25138 0.48028 0.77872 0.0
H2096 H 0.30101 0.47464 0.78151 0.0
H2097 H 0.29181 0.4943 0.76995 0.0
H2098 H 0.26448 0.56722 0.78575 0.0
H2099 H 0.25349 0.54796 0.7748 0.0
H2100 H 0.303 0.54779 0.78255 0.0
H2101 H 0.29224 0.52893 0.77088 0.0
H2102 H 0.25552 0.56589 0.73459 0.0
H2103 H 0.26693 0.54599 0.74377 0.0
H2104 H 0.21708 0.54909 0.74688 0.0
H2105 H 0.22845 0.52939 0.75608 0.0
N2106 N 0.25019 0.51214 0.75227 0.0
N2107 N 0.27054 0.51278 0.7706 0.0
C2108 C 0.24431 0.46298 0.27497 0.0
C2109 C 0.24207 0.46327 0.28899 0.0
C2110 C 0.24935 0.47431 0.26819 0.0
C2111 C 0.2529 0.48603 0.27531 0.0
C2112 C 0.24537 0.47513 0.29602 0.0
C2113 C 0.2508 0.48629 0.2893 0.0
C2114 C 0.2577 0.49848 0.26841 0.0
C2115 C 0.28718 0.46705 0.25523 0.0
C2116 C 0.28551 0.46341 0.24159 0.0
C2117 C 0.28098 0.47846 0.26037 0.0
C2118 C 0.27313 0.48663 0.25197 0.0
C2119 C 0.27776 0.47183 0.23318 0.0
C2120 C 0.2718 0.48342 0.23829 0.0
C2121 C 0.26663 0.49875 0.25733 0.0
C2122 C 0.2847 0.55585 0.25463 0.0
C2123 C 0.2851 0.55804 0.24064 0.0
C2124 C 0.27803 0.54458 0.25991 0.0
C2125 C 0.27164 0.53529 0.25129 0.0
C2126 C 0.27849 0.54888 0.23203 0.0
C2127 C 0.27194 0.5375 0.23732 0.0
C2128 C 0.2657 0.52273 0.25677 0.0
C2129 C 0.23797 0.55539 0.27089 0.0
C2130 C 0.2367 0.55632 0.28492 0.0
C2131 C 0.2448 0.5446 0.26521 0.0
C2132 C 0.25052 0.53465 0.27351 0.0
C2133 C 0.24254 0.54653 0.29323 0.0
C2134 C 0.24933 0.53573 0.28756 0.0
C2135 C 0.25666 0.52248 0.26771 0.0
H2136 H 0.24209 0.45405 0.26914 0.0
H2137 H 0.25016 0.47392 0.25733 0.0
H2138 H 0.24347 0.47599 0.30671 0.0
H2139 H 0.2532 0.49525 0.29507 0.0
H2140 H 0.29339 0.46118 0.26201 0.0
H2141 H 0.2824 0.48096 0.27091 0.0
H2142 H 0.27602 0.4694 0.22269 0.0
H2143 H 0.26587 0.4897 0.23162 0.0
H2144 H 0.2897 0.56279 0.26148 0.0
H2145 H 0.2782 0.54292 0.27071 0.0
H2146 H 0.27878 0.55029 0.2212 0.0
H2147 H 0.2672 0.53035 0.2305 0.0
H2148 H 0.23348 0.56288 0.26436 0.0
H2149 H 0.24522 0.54383 0.25434 0.0
H2150 H 0.24163 0.54712 0.30409 0.0
H2151 H 0.25355 0.52813 0.29417 0.0
N2152 N 0.2531 0.51038 0.27308 0.0
N2153 N 0.27024 0.51086 0.25193 0.0
C2154 C 0.75114 0.46541 0.24023 0.0
C2155 C 0.73699 0.4646 0.23908 0.0
C2156 C 0.75736 0.47644 0.2466 0.0
C2157 C 0.74951 0.48665 0.25221 0.0
C2158 C 0.72921 0.47479 0.2448 0.0
C2159 C 0.73539 0.48569 0.25123 0.0
C2160 C 0.75563 0.49908 0.25785 0.0
C2161 C 0.77255 0.46473 0.28257 0.0
C2162 C 0.78659 0.46532 0.28499 0.0
C2163 C 0.76579 0.47582 0.27711 0.0
C2164 C 0.773 0.48753 0.27332 0.0
C2165 C 0.79352 0.47744 0.28207 0.0
C2166 C 0.78688 0.48825 0.27616 0.0
C2167 C 0.7664 0.49952 0.26727 0.0
C2168 C 0.77076 0.55821 0.28229 0.0
C2169 C 0.78494 0.55935 0.28301 0.0
C2170 C 0.76453 0.54666 0.277 0.0
C2171 C 0.77234 0.53619 0.27189 0.0
C2172 C 0.79269 0.54863 0.27825 0.0
C2173 C 0.78647 0.53722 0.27274 0.0
C2174 C 0.76612 0.52367 0.26654 0.0
C2175 C 0.74843 0.55756 0.24132 0.0
C2176 C 0.73427 0.55701 0.2398 0.0
C2177 C 0.75543 0.54663 0.24683 0.0
C2178 C 0.74838 0.53513 0.25141 0.0
C2179 C 0.72742 0.54515 0.24374 0.0
C2180 C 0.73434 0.53447 0.24957 0.0
C2181 C 0.75525 0.5232 0.25723 0.0
H2182 H 0.75741 0.45779 0.2358 0.0
H2183 H 0.76828 0.47714 0.24685 0.0
H2184 H 0.71829 0.47439 0.24425 0.0
H2185 H 0.72911 0.4935 0.25534 0.0
H2186 H 0.76676 0.45567 0.2847 0.0
H2187 H 0.75495 0.47516 0.27588 0.0
H2188 H 0.80416 0.47868 0.28433 0.0
H2189 H 0.79271 0.49724 0.27377 0.0
H2190 H 0.76441 0.56626 0.28577 0.0
H2191 H 0.75361 0.54592 0.27694 0.0
H2192 H 0.8036 0.54892 0.27896 0.0
H2193 H 0.79273 0.52915 0.26916 0.0
H2194 H 0.75412 0.56647 0.2384 0.0
H2195 H 0.76633 0.54722 0.24746 0.0
H2196 H 0.71663 0.54401 0.24229 0.0
H2197 H 0.72862 0.52562 0.25266 0.0
N2198 N 0.75051 0.51091 0.25338 0.0
N2199 N 0.7712 0.51183 0.27107 0.0
C2200 C 0.5583 0.25087 0.73804 0.0
C2201 C 0.55768 0.2369 0.73604 0.0
C2202 C 0.54763 0.25745 0.74426 0.0
C2203 C 0.53641 0.25006 0.74902 0.0
C2204 C 0.5465 0.22954 0.7408 0.0
C2205 C 0.53602 0.23604 0.74727 0.0
C2206 C 0.52442 0.25673 0.75466 0.0
C2207 C 0.55771 0.27025 0.78278 0.0
C2208 C 0.55968 0.28425 0.78371 0.0
C2209 C 0.54668 0.26493 0.77573 0.0
C2210 C 0.53752 0.27351 0.76927 0.0
C2211 C 0.55067 0.29283 0.77702 0.0
C2212 C 0.53962 0.28749 0.76994 0.0
C2213 C 0.52497 0.26807 0.76323 0.0
C2214 C 0.46797 0.27309 0.7818 0.0
C2215 C 0.46609 0.28698 0.78016 0.0
C2216 C 0.4793 0.26699 0.7764 0.0
C2217 C 0.48887 0.27471 0.76927 0.0
C2218 C 0.47581 0.29472 0.77327 0.0
C2219 C 0.48718 0.28863 0.76797 0.0
C2220 C 0.50094 0.26846 0.76364 0.0
C2221 C 0.46584 0.25226 0.73935 0.0
C2222 C 0.4637 0.23836 0.74117 0.0
C2223 C 0.47769 0.25843 0.74407 0.0
C2224 C 0.4876 0.25078 0.75062 0.0
C2225 C 0.47363 0.23073 0.74772 0.0
C2226 C 0.48554 0.23688 0.75229 0.0
C2227 C 0.50036 0.25705 0.75528 0.0
H2228 H 0.56676 0.25676 0.73428 0.0
H2229 H 0.54802 0.26832 0.74493 0.0
H2230 H 0.54583 0.21875 0.7394 0.0
H2231 H 0.52747 0.23009 0.75074 0.0
H2232 H 0.56456 0.26339 0.78776 0.0
H2233 H 0.54507 0.25413 0.77572 0.0
H2234 H 0.55185 0.30366 0.7777 0.0
H2235 H 0.53255 0.2943 0.7652 0.0
H2236 H 0.46059 0.26694 0.78709 0.0
H2237 H 0.48062 0.25627 0.77783 0.0
H2238 H 0.47464 0.30549 0.77208 0.0
H2239 H 0.49459 0.29476 0.76269 0.0
H2240 H 0.45833 0.25834 0.73432 0.0
H2241 H 0.4792 0.26914 0.74244 0.0
H2242 H 0.47227 0.21998 0.74907 0.0
H2243 H 0.49314 0.23079 0.7572 0.0
N2244 N 0.5121 0.25165 0.75112 0.0
N2245 N 0.51319 0.27355 0.76726 0.0
C2246 C 0.46405 0.7701 0.74233 0.0
C2247 C 0.46328 0.78393 0.73926 0.0
C2248 C 0.47537 0.76486 0.74881 0.0
C2249 C 0.48597 0.77335 0.75312 0.0
C2250 C 0.47405 0.79241 0.74333 0.0
C2251 C 0.48521 0.78718 0.75022 0.0
C2252 C 0.49833 0.76784 0.75958 0.0
C2253 C 0.46467 0.75183 0.78684 0.0
C2254 C 0.46358 0.73767 0.78691 0.0
C2255 C 0.47569 0.75832 0.7807 0.0
C2256 C 0.48578 0.75076 0.77453 0.0
C2257 C 0.47356 0.73024 0.78036 0.0
C2258 C 0.48458 0.73669 0.77439 0.0
C2259 C 0.49815 0.75713 0.76903 0.0
C2260 C 0.55674 0.75094 0.78541 0.0
C2261 C 0.55587 0.73711 0.78839 0.0
C2262 C 0.54603 0.75746 0.77893 0.0
C2263 C 0.53443 0.75016 0.77488 0.0
C2264 C 0.54433 0.72983 0.78433 0.0
C2265 C 0.53379 0.73626 0.77761 0.0
C2266 C 0.52228 0.7568 0.76914 0.0
C2267 C 0.55559 0.76898 0.74096 0.0
C2268 C 0.55917 0.78274 0.74178 0.0
C2269 C 0.54372 0.76406 0.74681 0.0
C2270 C 0.53505 0.77278 0.75351 0.0
C2271 C 0.55021 0.7915 0.74823 0.0
C2272 C 0.5382 0.78657 0.75389 0.0
C2273 C 0.52251 0.76757 0.75975 0.0
H2274 H 0.45596 0.7632 0.73961 0.0
H2275 H 0.47586 0.75407 0.75016 0.0
H2276 H 0.47406 0.80304 0.74093 0.0
H2277 H 0.49336 0.79396 0.75314 0.0
H2278 H 0.45727 0.7579 0.79189 0.0
H2279 H 0.47652 0.76919 0.7811 0.0
H2280 H 0.47294 0.71936 0.77986 0.0
H2281 H 0.49225 0.73066 0.76967 0.0
H2282 H 0.56549 0.7568 0.78856 0.0
H2283 H 0.54668 0.76825 0.77755 0.0
H2284 H 0.54344 0.71914 0.78638 0.0
H2285 H 0.52499 0.73033 0.77471 0.0
H2286 H 0.56191 0.76195 0.73571 0.0
H2287 H 0.54129 0.75343 0.74605 0.0
H2288 H 0.55257 0.80211 0.74919 0.0
H2289 H 0.53153 0.79349 0.75887 0.0
N2290 N 0.51055 0.77269 0.75542 0.0
N2291 N 0.51009 0.7521 0.77332 0.0
C2292 C 0.46693 0.78634 0.27087 0.0
C2293 C 0.4658 0.7855 0.28501 0.0
C2294 C 0.47765 0.78022 0.26424 0.0
C2295 C 0.4875 0.77331 0.27163 0.0
C2296 C 0.4755 0.77808 0.29224 0.0
C2297 C 0.48632 0.77226 0.28564 0.0
C2298 C 0.49962 0.76797 0.26509 0.0
C2299 C 0.46535 0.74064 0.25396 0.0
C2300 C 0.46216 0.74072 0.24014 0.0
C2301 C 0.47737 0.74647 0.25861 0.0
C2302 C 0.48643 0.75254 0.24954 0.0
C2303 C 0.4714 0.74663 0.23106 0.0
C2304 C 0.48348 0.75237 0.23573 0.0
C2305 C 0.49918 0.75865 0.25443 0.0
C2306 C 0.55718 0.74139 0.25185 0.0
C2307 C 0.55877 0.74005 0.23786 0.0
C2308 C 0.54563 0.74726 0.25709 0.0
C2309 C 0.53554 0.75224 0.24846 0.0
C2310 C 0.5484 0.74449 0.22924 0.0
C2311 C 0.53689 0.75051 0.2345 0.0
C2312 C 0.52327 0.75856 0.25393 0.0
C2313 C 0.55787 0.78485 0.26918 0.0
C2314 C 0.55944 0.78389 0.28323 0.0
C2315 C 0.54627 0.77957 0.26293 0.0
C2316 C 0.53612 0.77338 0.2707 0.0
C2317 C 0.54916 0.77791 0.29095 0.0
C2318 C 0.53756 0.7728 0.28475 0.0
C2319 C 0.52361 0.76801 0.26455 0.0
H2320 H 0.45982 0.79207 0.26493 0.0
H2321 H 0.4785 0.78129 0.25341 0.0
H2322 H 0.47483 0.77678 0.30305 0.0
H2323 H 0.49382 0.76692 0.29151 0.0
H2324 H 0.45866 0.7359 0.2612 0.0
H2325 H 0.47966 0.74608 0.26929 0.0
H2326 H 0.46923 0.747 0.22036 0.0
H2327 H 0.49043 0.75689 0.22857 0.0
H2328 H 0.56481 0.73774 0.25878 0.0
H2329 H 0.54457 0.74777 0.26793 0.0
H2330 H 0.54931 0.74357 0.21841 0.0
H2331 H 0.52912 0.75399 0.22764 0.0
H2332 H 0.5657 0.78944 0.26306 0.0
H2333 H 0.54519 0.78035 0.25208 0.0
H2334 H 0.5501 0.77719 0.30181 0.0
H2335 H 0.52976 0.76821 0.29093 0.0
N2336 N 0.5118 0.77224 0.26974 0.0
N2337 N 0.51101 0.75433 0.24919 0.0
C2338 C 0.46543 0.27411 0.24098 0.0
C2339 C 0.46581 0.28815 0.23908 0.0
C2340 C 0.47608 0.26761 0.24758 0.0
C2341 C 0.48708 0.27508 0.25277 0.0
C2342 C 0.4768 0.29557 0.24426 0.0
C2343 C 0.48729 0.28912 0.25102 0.0
C2344 C 0.49901 0.26853 0.25894 0.0
C2345 C 0.46382 0.25552 0.28468 0.0
C2346 C 0.46268 0.24168 0.28769 0.0
C2347 C 0.47539 0.26081 0.27848 0.0
C2348 C 0.48583 0.25231 0.27444 0.0
C2349 C 0.47344 0.2333 0.2841 0.0
C2350 C 0.48475 0.23852 0.27746 0.0
C2351 C 0.49845 0.25767 0.26823 0.0
C2352 C 0.5556 0.24987 0.28662 0.0
C2353 C 0.55582 0.23568 0.28652 0.0
C2354 C 0.5451 0.25684 0.28027 0.0
C2355 C 0.53463 0.24977 0.27368 0.0
C2356 C 0.54547 0.22874 0.27955 0.0
C2357 C 0.53495 0.23568 0.27338 0.0
C2358 C 0.52262 0.25668 0.26821 0.0
C2359 C 0.55718 0.27266 0.24231 0.0
C2360 C 0.55807 0.2868 0.24149 0.0
C2361 C 0.5461 0.26633 0.2485 0.0
C2362 C 0.5358 0.27405 0.25416 0.0
C2363 C 0.54786 0.29444 0.24739 0.0
C2364 C 0.53685 0.28814 0.25357 0.0
C2365 C 0.52318 0.26783 0.25936 0.0
H2366 H 0.45715 0.26813 0.23693 0.0
H2367 H 0.47583 0.25673 0.24836 0.0
H2368 H 0.47733 0.3064 0.24305 0.0
H2369 H 0.49569 0.29513 0.25479 0.0
H2370 H 0.45582 0.26239 0.28707 0.0
H2371 H 0.47614 0.27159 0.27702 0.0
H2372 H 0.47334 0.22269 0.28659 0.0
H2373 H 0.49277 0.23173 0.2748 0.0
H2374 H 0.56326 0.2556 0.29199 0.0
H2375 H 0.54492 0.26772 0.28091 0.0
H2376 H 0.5454 0.21786 0.2789 0.0
H2377 H 0.52696 0.23 0.2684 0.0
H2378 H 0.56478 0.26647 0.23771 0.0
H2379 H 0.54536 0.25545 0.24841 0.0
H2380 H 0.5483 0.30533 0.24714 0.0
H2381 H 0.52901 0.29433 0.25777 0.0
N2382 N 0.51136 0.2732 0.25509 0.0
N2383 N 0.5103 0.25212 0.27228 0.0
H2384 H 0.19784 0.20232 0.09645 0.0
H2385 H 0.22725 0.21604 0.12561 0.0
H2386 H 0.23934 0.22862 0.10809 0.0
H2387 H 0.24189 0.23522 0.0844 0.0
H2388 H 0.21321 0.22052 0.05488 0.0
H2389 H 0.20049 0.20892 0.07253 0.0
C2390 C 0.20678 0.20825 0.09893 0.0
C2391 C 0.21161 0.20844 0.11226 0.0
C2392 C 0.21385 0.2152 0.08873 0.0
C2393 C 0.22334 0.2159 0.11539 0.0
C2394 C 0.23027 0.22302 0.10539 0.0
C2395 C 0.23291 0.22941 0.08181 0.0
C2396 C 0.22849 0.22883 0.06834 0.0
C2397 C 0.22571 0.22263 0.092 0.0
C2398 C 0.21673 0.22134 0.0652 0.0
C2399 C 0.20947 0.21464 0.07528 0.0
H2400 H 0.79489 0.20276 0.11087 0.0
H2401 H 0.83113 0.22713 0.11434 0.0
H2402 H 0.82388 0.24072 0.09503 0.0
H2403 H 0.80718 0.2455 0.07704 0.0
H2404 H 0.7723 0.21926 0.07273 0.0
H2405 H 0.77927 0.20648 0.0924 0.0
C2406 C 0.8014 0.21087 0.10731 0.0
C2407 C 0.81361 0.21379 0.11404 0.0
C2408 C 0.79739 0.21835 0.09604 0.0
C2409 C 0.82161 0.22468 0.10947 0.0
C2410 C 0.81752 0.23241 0.09835 0.0
C2411 C 0.80118 0.2369 0.08032 0.0
C2412 C 0.78906 0.23356 0.07352 0.0
C2413 C 0.80543 0.22929 0.09153 0.0
C2414 C 0.78142 0.22238 0.07797 0.0
C2415 C 0.78546 0.21496 0.08917 0.0
H2416 H 0.81781 0.79763 0.11226 0.0
H2417 H 0.80477 0.83684 0.09901 0.0
H2418 H 0.79429 0.82698 0.07909 0.0
H2419 H 0.78803 0.8072 0.06565 0.0
H2420 H 0.80203 0.76809 0.07771 0.0
H2421 H 0.81294 0.77785 0.09773 0.0
C2422 C 0.81285 0.80403 0.10492 0.0
C2423 C 0.81186 0.81795 0.10735 0.0
C2424 C 0.80689 0.79829 0.09328 0.0
C2425 C 0.80538 0.82606 0.09765 0.0
C2426 C 0.79941 0.82045 0.08619 0.0
C2427 C 0.79346 0.80084 0.0727 0.0
C2428 C 0.79413 0.78696 0.07035 0.0
C2429 C 0.7999 0.80657 0.084 0.0
C2430 C 0.80137 0.77882 0.07939 0.0
C2431 C 0.8076 0.7844 0.09082 0.0
H2432 H 0.21839 0.79809 0.1188 0.0
H2433 H 0.20676 0.83429 0.09781 0.0
H2434 H 0.21566 0.82551 0.0768 0.0
H2435 H 0.22739 0.80783 0.06446 0.0
H2436 H 0.24004 0.77206 0.0854 0.0
H2437 H 0.22997 0.78021 0.10631 0.0
C2438 C 0.21762 0.80393 0.10957 0.0
C2439 C 0.21192 0.81681 0.10985 0.0
C2440 C 0.22296 0.79889 0.09753 0.0
C2441 C 0.21118 0.82438 0.09786 0.0
C2442 C 0.21625 0.81937 0.08584 0.0
C2443 C 0.22783 0.80184 0.07362 0.0
C2444 C 0.23433 0.78942 0.07354 0.0
C2445 C 0.22227 0.80671 0.08558 0.0
C2446 C 0.23505 0.7817 0.08539 0.0
C2447 C 0.2293 0.78634 0.09729 0.0
H2448 H 0.22948 0.8087 0.90673 0.0
H2449 H 0.19194 0.81805 0.92615 0.0
H2450 H 0.19997 0.80758 0.94703 0.0
H2451 H 0.21824 0.79708 0.96009 0.0
H2452 H 0.25537 0.78697 0.94008 0.0
H2453 H 0.2471 0.79704 0.91932 0.0
C2454 C 0.22305 0.80849 0.91554 0.0
C2455 C 0.21018 0.81427 0.9149 0.0
C2456 C 0.22776 0.80257 0.9275 0.0
C2457 C 0.20186 0.81362 0.92633 0.0
C2458 C 0.2065 0.80773 0.9383 0.0
C2459 C 0.22446 0.79683 0.95116 0.0
C2460 C 0.23752 0.79137 0.95181 0.0
C2461 C 0.21951 0.80233 0.93905 0.0
C2462 C 0.24544 0.79139 0.94009 0.0
C2463 C 0.24067 0.79703 0.92811 0.0
H2464 H 0.19427 0.21911 0.92013 0.0
H2465 H 0.22774 0.19457 0.90814 0.0
H2466 H 0.24103 0.20306 0.92723 0.0
H2467 H 0.24325 0.2179 0.94712 0.0
H2468 H 0.21037 0.24427 0.95682 0.0
H2469 H 0.19691 0.2347 0.93871 0.0
C2470 C 0.20456 0.21573 0.92146 0.0
C2471 C 0.20996 0.20627 0.91251 0.0
C2472 C 0.2123 0.221 0.93211 0.0
C2473 C 0.22318 0.20173 0.91487 0.0
C2474 C 0.23086 0.20668 0.92573 0.0
C2475 C 0.23322 0.2217 0.94519 0.0
C2476 C 0.22784 0.23169 0.95361 0.0
C2477 C 0.22556 0.21643 0.93437 0.0
C2478 C 0.21473 0.23634 0.95089 0.0
C2479 C 0.207 0.23094 0.94041 0.0
H2480 H 0.82664 0.21092 0.92718 0.0
H2481 H 0.79227 0.21691 0.90101 0.0
H2482 H 0.7802 0.22769 0.91939 0.0
H2483 H 0.78008 0.23678 0.94238 0.0
H2484 H 0.81432 0.22981 0.96864 0.0
H2485 H 0.82598 0.21871 0.95046 0.0
C2486 C 0.81651 0.21461 0.92546 0.0
C2487 C 0.81044 0.21321 0.91267 0.0
C2488 C 0.80971 0.22092 0.93598 0.0
C2489 C 0.79718 0.21777 0.91075 0.0
C2490 C 0.79031 0.22405 0.92123 0.0
C2491 C 0.78999 0.23265 0.94426 0.0
C2492 C 0.79631 0.23438 0.95692 0.0
C2493 C 0.79657 0.22586 0.93383 0.0
C2494 C 0.80927 0.22906 0.95896 0.0
C2495 C 0.81594 0.22253 0.94859 0.0
H2496 H 0.8075 0.79572 0.90452 0.0
H2497 H 0.81854 0.83241 0.92508 0.0
H2498 H 0.81023 0.82312 0.9463 0.0
H2499 H 0.79903 0.80487 0.959 0.0
H2500 H 0.78681 0.76859 0.9385 0.0
H2501 H 0.79645 0.77723 0.91739 0.0
C2502 C 0.80826 0.80156 0.9137 0.0
C2503 C 0.81364 0.81474 0.91323 0.0
C2504 C 0.8032 0.79623 0.92589 0.0
C2505 C 0.81439 0.82227 0.92517 0.0
C2506 C 0.80963 0.81697 0.93732 0.0
C2507 C 0.79858 0.79888 0.94989 0.0
C2508 C 0.79229 0.78616 0.95019 0.0
C2509 C 0.80388 0.80403 0.93778 0.0
C2510 C 0.7916 0.77845 0.93839 0.0
C2511 C 0.79712 0.78338 0.92636 0.0
H2512 H 0.11707 0.22545 0.21686 0.0
H2513 H 0.0944 0.19235 0.19963 0.0
H2514 H 0.07363 0.20089 0.20954 0.0
H2515 H 0.06183 0.21819 0.2227 0.0
H2516 H 0.0848 0.25089 0.24025 0.0
H2517 H 0.10552 0.24222 0.23048 0.0
C2518 C 0.10758 0.2201 0.21528 0.0
C2519 C 0.10727 0.20831 0.2075 0.0
C2520 C 0.09573 0.22506 0.22099 0.0
C2521 C 0.09493 0.20138 0.2057 0.0
C2522 C 0.08304 0.20631 0.21127 0.0
C2523 C 0.0714 0.22338 0.22433 0.0
C2524 C 0.07186 0.23514 0.23214 0.0
C2525 C 0.0833 0.2182 0.21885 0.0
C2526 C 0.08428 0.24176 0.23433 0.0
C2527 C 0.09609 0.23682 0.22874 0.0
H2528 H 0.80456 0.11878 0.2295 0.0
H2529 H 0.81921 0.09951 0.19376 0.0
H2530 H 0.80921 0.07801 0.20116 0.0
H2531 H 0.79726 0.06459 0.21841 0.0
H2532 H 0.78137 0.08453 0.2534 0.0
H2533 H 0.7911 0.10581 0.24578 0.0
C2534 C 0.80543 0.10987 0.2233 0.0
C2535 C 0.81258 0.11064 0.21114 0.0
C2536 C 0.7996 0.09766 0.22756 0.0
C2537 C 0.81363 0.09911 0.20312 0.0
C2538 C 0.808 0.08684 0.20738 0.0
C2539 C 0.79572 0.07361 0.22428 0.0
C2540 C 0.78874 0.07284 0.23659 0.0
C2541 C 0.80107 0.08596 0.21966 0.0
C2542 C 0.78701 0.08468 0.24408 0.0
C2543 C 0.79246 0.09692 0.23967 0.0
H2544 H 0.90459 0.80358 0.22253 0.0
H2545 H 0.92816 0.82704 0.19446 0.0
H2546 H 0.94908 0.8184 0.20444 0.0
H2547 H 0.96058 0.80376 0.22089 0.0
H2548 H 0.93687 0.78009 0.24883 0.0
H2549 H 0.91613 0.78925 0.23929 0.0
C2550 C 0.91434 0.80693 0.21879 0.0
C2551 C 0.91494 0.81606 0.20797 0.0
C2552 C 0.92627 0.80183 0.22452 0.0
C2553 C 0.92756 0.82018 0.20296 0.0
C2554 C 0.93947 0.81518 0.2086 0.0
C2555 C 0.95087 0.80058 0.22485 0.0
C2556 C 0.95029 0.79128 0.2356 0.0
C2557 C 0.93895 0.80591 0.21932 0.0
C2558 C 0.93762 0.78736 0.24069 0.0
C2559 C 0.92574 0.79255 0.2352 0.0
H2560 H 0.19631 0.91761 0.22317 0.0
H2561 H 0.23139 0.90452 0.20151 0.0
H2562 H 0.24397 0.9244 0.20927 0.0
H2563 H 0.24507 0.94524 0.22268 0.0
H2564 H 0.21057 0.95611 0.24661 0.0
H2565 H 0.1978 0.93727 0.23751 0.0
C2566 C 0.20678 0.9189 0.22028 0.0
C2567 C 0.21287 0.90942 0.21185 0.0
C2568 C 0.21408 0.93002 0.22517 0.0
C2569 C 0.22634 0.91166 0.20788 0.0
C2570 C 0.23359 0.92298 0.21242 0.0
C2571 C 0.23484 0.94342 0.22609 0.0
C2572 C 0.22882 0.95236 0.2352 0.0
C2573 C 0.22759 0.93217 0.22118 0.0
C2574 C 0.21544 0.94978 0.2393 0.0
C2575 C 0.20811 0.93888 0.2342 0.0
H2576 H 0.11734 0.81105 0.79842 0.0
H2577 H 0.09675 0.81416 0.83639 0.0
H2578 H 0.07597 0.80544 0.82615 0.0
H2579 H 0.06391 0.79632 0.80674 0.0
H2580 H 0.085 0.79075 0.76923 0.0
H2581 H 0.10507 0.80153 0.77877 0.0
C2582 C 0.10822 0.80999 0.80434 0.0
C2583 C 0.10851 0.81326 0.8181 0.0
C2584 C 0.09638 0.80458 0.79846 0.0
C2585 C 0.09672 0.81169 0.82577 0.0
C2586 C 0.08486 0.80669 0.81993 0.0
C2587 C 0.07292 0.7972 0.80065 0.0
C2588 C 0.07282 0.79258 0.78725 0.0
C2589 C 0.08463 0.80291 0.80635 0.0
C2590 C 0.08458 0.79433 0.77949 0.0
C2591 C 0.09617 0.80041 0.78499 0.0
H2592 H 0.22861 0.11133 0.81673 0.0
H2593 H 0.18737 0.09951 0.80805 0.0
H2594 H 0.19531 0.07977 0.79596 0.0
H2595 H 0.21411 0.06534 0.78855 0.0
H2596 H 0.25496 0.07637 0.7993 0.0
H2597 H 0.24703 0.09678 0.81024 0.0
C2598 C 0.22128 0.10438 0.8124 0.0
C2599 C 0.20737 0.10697 0.81343 0.0
C2600 C 0.22588 0.09284 0.80589 0.0
C2601 C 0.19814 0.09796 0.80732 0.0
C2602 C 0.20267 0.08657 0.80049 0.0
C2603 C 0.2212 0.0723 0.79327 0.0
C2604 C 0.23507 0.06952 0.79313 0.0
C2605 C 0.21652 0.08386 0.79979 0.0
C2606 C 0.24425 0.07841 0.79934 0.0
C2607 C 0.23971 0.09005 0.80556 0.0
H2608 H 0.90851 0.20537 0.79438 0.0
H2609 H 0.91485 0.22025 0.83476 0.0
H2610 H 0.93486 0.23279 0.82722 0.0
H2611 H 0.95062 0.23934 0.80909 0.0
H2612 H 0.94559 0.22129 0.76973 0.0
H2613 H 0.92503 0.21025 0.77705 0.0
C2614 C 0.91434 0.21113 0.80167 0.0
C2615 C 0.91011 0.21173 0.81518 0.0
C2616 C 0.92608 0.21788 0.79741 0.0
C2617 C 0.91768 0.21969 0.82427 0.0
C2618 C 0.92922 0.22679 0.81998 0.0
C2619 C 0.94521 0.23284 0.80212 0.0
C2620 C 0.94971 0.23154 0.7887 0.0
C2621 C 0.93355 0.2259 0.80656 0.0
C2622 C 0.94229 0.22308 0.77992 0.0
C2623 C 0.93053 0.21654 0.78415 0.0
H2624 H 0.81765 0.91139 0.79246 0.0
H2625 H 0.80206 0.91496 0.8328 0.0
H2626 H 0.78944 0.93488 0.82594 0.0
H2627 H 0.78361 0.95199 0.80858 0.0
H2628 H 0.80093 0.94903 0.76898 0.0
H2629 H 0.81237 0.92838 0.77556 0.0
C2630 C 0.81167 0.91658 0.79988 0.0
C2631 C 0.81097 0.91164 0.81319 0.0
C2632 C 0.80479 0.92824 0.79599 0.0
C2633 C 0.80274 0.91837 0.82245 0.0
C2634 C 0.79559 0.92986 0.81856 0.0
C2635 C 0.78985 0.94673 0.80143 0.0
C2636 C 0.79147 0.95198 0.78833 0.0
C2637 C 0.79663 0.93496 0.80538 0.0
C2638 C 0.79964 0.9452 0.77914 0.0
C2639 C 0.80614 0.93339 0.78288 0.0
H2640 H 0.19367 0.1018 0.22266 0.0
H2641 H 0.22657 0.11456 0.19709 0.0
H2642 H 0.24007 0.09573 0.20529 0.0
H2643 H 0.24262 0.07584 0.22014 0.0
H2644 H 0.21037 0.06539 0.24758 0.0
H2645 H 0.19669 0.08325 0.23831 0.0
C2646 C 0.20388 0.10069 0.219 0.0
C2647 C 0.20906 0.10977 0.20932 0.0
C2648 C 0.21175 0.0902 0.2241 0.0
C2649 C 0.22218 0.10772 0.20442 0.0
C2650 C 0.22998 0.09701 0.2092 0.0
C2651 C 0.23269 0.07756 0.22424 0.0
C2652 C 0.22753 0.06899 0.23442 0.0
C2653 C 0.2249 0.08823 0.21915 0.0
C2654 C 0.21454 0.07143 0.23947 0.0
C2655 C 0.20669 0.08176 0.23426 0.0
H2656 H 0.20323 0.92535 0.82411 0.0
H2657 H 0.22143 0.89576 0.79869 0.0
H2658 H 0.23468 0.91339 0.78731 0.0
H2659 H 0.24051 0.93732 0.78415 0.0
H2660 H 0.22184 0.96702 0.80924 0.0
H2661 H 0.2094 0.94934 0.82122 0.0
C2662 C 0.21028 0.92283 0.81622 0.0
C2663 C 0.21158 0.90937 0.81229 0.0
C2664 C 0.21768 0.93303 0.80962 0.0
C2665 C 0.22048 0.9061 0.80192 0.0
C2666 C 0.22797 0.91616 0.79538 0.0
C2667 C 0.23368 0.9399 0.79221 0.0
C2668 C 0.23213 0.95344 0.79583 0.0
C2669 C 0.22653 0.92968 0.79905 0.0
C2670 C 0.22334 0.95664 0.80638 0.0
C2671 C 0.21618 0.94655 0.81321 0.0
H2672 H 0.11591 0.22233 0.8079 0.0
H2673 H 0.09268 0.18841 0.8225 0.0
H2674 H 0.07182 0.19873 0.81437 0.0
H2675 H 0.06028 0.21697 0.80218 0.0
H2676 H 0.08364 0.25012 0.78608 0.0
H2677 H 0.10431 0.24066 0.79568 0.0
C2678 C 0.10623 0.21736 0.80947 0.0
C2679 C 0.10573 0.20475 0.81594 0.0
C2680 C 0.09433 0.22318 0.8044 0.0
C2681 C 0.09322 0.1982 0.81766 0.0
C2682 C 0.08132 0.20407 0.81297 0.0
C2683 C 0.06991 0.22214 0.80091 0.0
C2684 C 0.0705 0.23422 0.79351 0.0
C2685 C 0.08176 0.21648 0.8062 0.0
C2686 C 0.08301 0.24077 0.79172 0.0
C2687 C 0.0948 0.23538 0.79722 0.0
H2688 H 0.80516 0.11857 0.79838 0.0
H2689 H 0.8139 0.09794 0.83571 0.0
H2690 H 0.8056 0.07678 0.82621 0.0
H2691 H 0.79496 0.06422 0.80761 0.0
H2692 H 0.78513 0.08474 0.77061 0.0
H2693 H 0.79486 0.10578 0.77948 0.0
C2694 C 0.80542 0.10939 0.80433 0.0
C2695 C 0.8101 0.10983 0.81774 0.0
C2696 C 0.80039 0.09725 0.79886 0.0
C2697 C 0.81025 0.09788 0.82539 0.0
C2698 C 0.80551 0.08577 0.81997 0.0
C2699 C 0.79504 0.07332 0.80153 0.0
C2700 C 0.78939 0.07308 0.78855 0.0
C2701 C 0.8004 0.08536 0.80679 0.0
C2702 C 0.78942 0.08484 0.78068 0.0
C2703 C 0.79498 0.09682 0.78575 0.0
H2704 H 0.9267 0.81806 0.82289 0.0
H2705 H 0.89781 0.80424 0.79319 0.0
H2706 H 0.91585 0.79346 0.78062 0.0
H2707 H 0.93967 0.78692 0.7788 0.0
H2708 H 0.96856 0.8017 0.80817 0.0
H2709 H 0.95062 0.8128 0.82029 0.0
C2710 C 0.92436 0.81272 0.81364 0.0
C2711 C 0.91093 0.81192 0.80902 0.0
C2712 C 0.93475 0.80653 0.80651 0.0
C2713 C 0.90808 0.80512 0.79691 0.0
C2714 C 0.91838 0.79886 0.78978 0.0
C2715 C 0.9421 0.79272 0.78774 0.0
C2716 C 0.95548 0.79325 0.79264 0.0
C2717 C 0.93174 0.79937 0.79456 0.0
C2718 C 0.95834 0.80076 0.80433 0.0
C2719 C 0.94809 0.80725 0.81123 0.0
H2720 H 0.79807 0.90691 0.2142 0.0
H2721 H 0.83622 0.92742 0.20831 0.0
H2722 H 0.82709 0.948 0.21772 0.0
H2723 H 0.80849 0.96011 0.22832 0.0
H2724 H 0.7706 0.93965 0.23523 0.0
H2725 H 0.77925 0.91919 0.22471 0.0
C2726 C 0.80429 0.91595 0.21481 0.0
C2727 C 0.8178 0.91564 0.21055 0.0
C2728 C 0.79902 0.92775 0.22049 0.0
C2729 C 0.82581 0.92739 0.21157 0.0
C2730 C 0.8206 0.93917 0.21696 0.0
C2731 C 0.80217 0.95114 0.22744 0.0
C2732 C 0.78899 0.95125 0.23245 0.0
C2733 C 0.80729 0.93944 0.22158 0.0
C2734 C 0.78082 0.93966 0.23141 0.0
C2735 C 0.78576 0.92802 0.22539 0.0
H2736 H 0.09777 0.81707 0.201 0.0
H2737 H 0.12656 0.80174 0.22978 0.0
H2738 H 0.10821 0.79137 0.24279 0.0
H2739 H 0.08404 0.78558 0.2452 0.0
H2740 H 0.05537 0.8018 0.21667 0.0
H2741 H 0.07362 0.81264 0.20425 0.0
C2742 C 0.10001 0.8115 0.21015 0.0
C2743 C 0.1135 0.81011 0.21438 0.0
C2744 C 0.08945 0.80557 0.21754 0.0
C2745 C 0.11625 0.80303 0.22637 0.0
C2746 C 0.10577 0.79702 0.23375 0.0
C2747 C 0.08176 0.79164 0.23638 0.0
C2748 C 0.06832 0.79264 0.23179 0.0
C2749 C 0.09233 0.79808 0.22934 0.0
C2750 C 0.06561 0.8005 0.22027 0.0
C2751 C 0.07605 0.80683 0.21319 0.0
H2752 H 0.90401 0.23008 0.21848 0.0
H2753 H 0.92201 0.19315 0.20536 0.0
H2754 H 0.94378 0.20034 0.21489 0.0
H2755 H 0.95786 0.21759 0.22635 0.0
H2756 H 0.93952 0.25409 0.24005 0.0
H2757 H 0.91771 0.24677 0.2307 0.0
C2758 C 0.9127 0.22361 0.21775 0.0
C2759 C 0.91145 0.21114 0.21121 0.0
C2760 C 0.92512 0.2278 0.22323 0.0
C2761 C 0.92273 0.20274 0.21046 0.0
C2762 C 0.93518 0.2069 0.21581 0.0
C2763 C 0.94903 0.22387 0.22725 0.0
C2764 C 0.95014 0.23633 0.23376 0.0
C2765 C 0.93652 0.21946 0.22209 0.0
C2766 C 0.93875 0.24444 0.23505 0.0
C2767 C 0.92634 0.24026 0.22973 0.0
H2768 H 0.19689 0.70605 0.59681 0.0
H2769 H 0.23102 0.71197 0.6234 0.0
H2770 H 0.24306 0.72429 0.60578 0.0
H2771 H 0.24407 0.73324 0.58287 0.0
H2772 H 0.21081 0.72573 0.55542 0.0
H2773 H 0.1982 0.71466 0.57337 0.0
C2774 C 0.20689 0.7102 0.59876 0.0
C2775 C 0.21304 0.70814 0.61141 0.0
C2776 C 0.21392 0.71709 0.58844 0.0
C2777 C 0.22608 0.7134 0.61373 0.0
C2778 C 0.23298 0.72045 0.60366 0.0
C2779 C 0.23415 0.72904 0.58067 0.0
C2780 C 0.22848 0.7305 0.5677 0.0
C2781 C 0.22706 0.72226 0.59094 0.0
C2782 C 0.21543 0.72514 0.56532 0.0
C2783 C 0.2082 0.71865 0.57558 0.0
H2784 H 0.79327 0.70694 0.61356 0.0
H2785 H 0.83289 0.72542 0.61214 0.0
H2786 H 0.82616 0.73848 0.59224 0.0
H2787 H 0.80921 0.74365 0.57445 0.0
H2788 H 0.77029 0.72372 0.57557 0.0
H2789 H 0.77667 0.71194 0.59622 0.0
C2790 C 0.80053 0.71369 0.60884 0.0
C2791 C 0.81363 0.71503 0.61426 0.0
C2792 C 0.79673 0.72083 0.59727 0.0
C2793 C 0.82272 0.72421 0.60824 0.0
C2794 C 0.81891 0.73161 0.5968 0.0
C2795 C 0.80215 0.73679 0.57933 0.0
C2796 C 0.78933 0.73447 0.57354 0.0
C2797 C 0.80597 0.72987 0.59113 0.0
C2798 C 0.78025 0.72552 0.57982 0.0
C2799 C 0.78388 0.71884 0.59162 0.0
H2800 H 0.82702 0.30698 0.6012 0.0
H2801 H 0.78919 0.32174 0.61616 0.0
H2802 H 0.77706 0.31061 0.5979 0.0
H2803 H 0.77704 0.29731 0.57717 0.0
H2804 H 0.81431 0.28134 0.5625 0.0
H2805 H 0.82678 0.29222 0.58103 0.0
C2806 C 0.81612 0.30762 0.60053 0.0
C2807 C 0.80908 0.31544 0.60992 0.0
C2808 C 0.80909 0.30103 0.58998 0.0
C2809 C 0.79493 0.3161 0.6089 0.0
C2810 C 0.78793 0.30968 0.59848 0.0
C2811 C 0.78789 0.29621 0.5781 0.0
C2812 C 0.7948 0.28864 0.56854 0.0
C2813 C 0.7949 0.30229 0.58886 0.0
C2814 C 0.80882 0.28713 0.56983 0.0
C2815 C 0.81594 0.29336 0.5804 0.0
H2816 H 0.20125 0.30254 0.60869 0.0
H2817 H 0.23523 0.32941 0.61521 0.0
H2818 H 0.24676 0.31991 0.59598 0.0
H2819 H 0.24697 0.30463 0.57689 0.0
H2820 H 0.21395 0.27638 0.57111 0.0
H2821 H 0.20222 0.28597 0.59023 0.0
C2822 C 0.21123 0.3062 0.60598 0.0
C2823 C 0.21724 0.31684 0.61327 0.0
C2824 C 0.21794 0.30058 0.59492 0.0
C2825 C 0.2302 0.32147 0.60959 0.0
C2826 C 0.23685 0.316 0.59862 0.0
C2827 C 0.23734 0.30034 0.57991 0.0
C2828 C 0.23141 0.28979 0.57244 0.0
C2829 C 0.23078 0.30564 0.59114 0.0
C2830 C 0.21871 0.28467 0.57644 0.0
C2831 C 0.21201 0.29007 0.58749 0.0
H2832 H 0.20668 0.29843 0.41282 0.0
H2833 H 0.22567 0.33693 0.42083 0.0
H2834 H 0.23665 0.32775 0.44079 0.0
H2835 H 0.24127 0.30877 0.45584 0.0
H2836 H 0.2219 0.27038 0.44863 0.0
H2837 H 0.21059 0.27951 0.42862 0.0
C2838 C 0.21309 0.30483 0.41902 0.0
C2839 C 0.21551 0.31829 0.41519 0.0
C2840 C 0.21936 0.29949 0.43062 0.0
C2841 C 0.22387 0.32645 0.42336 0.0
C2842 C 0.23013 0.32123 0.43482 0.0
C2843 C 0.23463 0.3024 0.44982 0.0
C2844 C 0.23247 0.28893 0.4536 0.0
C2845 C 0.22808 0.30775 0.43846 0.0
C2846 C 0.22367 0.28081 0.44589 0.0
C2847 C 0.21722 0.28602 0.43446 0.0
H2848 H 0.2241 0.70291 0.41018 0.0
H2849 H 0.18476 0.71565 0.42313 0.0
H2850 H 0.1948 0.72675 0.44255 0.0
H2851 H 0.21459 0.73402 0.45511 0.0
H2852 H 0.25377 0.71866 0.44452 0.0
H2853 H 0.24395 0.70794 0.42477 0.0
C2854 C 0.2177 0.70793 0.41736 0.0
C2855 C 0.2037 0.70872 0.4149 0.0
C2856 C 0.22352 0.71412 0.42882 0.0
C2857 C 0.19561 0.71524 0.42443 0.0
C2858 C 0.20133 0.72156 0.43562 0.0
C2859 C 0.22108 0.72806 0.44883 0.0
C2860 C 0.23505 0.72742 0.45153 0.0
C2861 C 0.21528 0.72126 0.43781 0.0
C2862 C 0.24308 0.71985 0.44271 0.0
C2863 C 0.23743 0.71348 0.43141 0.0
H2864 H 0.79787 0.71841 0.40707 0.0
H2865 H 0.83482 0.70766 0.42742 0.0
H2866 H 0.82634 0.71667 0.44851 0.0
H2867 H 0.80878 0.72841 0.46107 0.0
H2868 H 0.77224 0.74018 0.44076 0.0
H2869 H 0.78002 0.72984 0.41983 0.0
C2870 C 0.80394 0.71785 0.41618 0.0
C2871 C 0.81695 0.71239 0.41568 0.0
C2872 C 0.79908 0.72328 0.42827 0.0
C2873 C 0.8248 0.7119 0.42753 0.0
C2874 C 0.81997 0.71704 0.4396 0.0
C2875 C 0.80255 0.72861 0.45204 0.0
C2876 C 0.79002 0.73498 0.45231 0.0
C2877 C 0.80721 0.7229 0.44006 0.0
C2878 C 0.78198 0.73535 0.44063 0.0
C2879 C 0.78642 0.72943 0.42872 0.0
H2880 H 0.80529 0.29584 0.40356 0.0
H2881 H 0.82059 0.33021 0.42549 0.0
H2882 H 0.81211 0.32063 0.44655 0.0
H2883 H 0.79995 0.30281 0.4587 0.0
H2884 H 0.78332 0.26899 0.43673 0.0
H2885 H 0.79295 0.27785 0.41589 0.0
C2886 C 0.80692 0.3011 0.413 0.0
C2887 C 0.81358 0.3137 0.41298 0.0
C2888 C 0.80178 0.29564 0.42509 0.0
C2889 C 0.81546 0.32051 0.42524 0.0
C2890 C 0.8106 0.31505 0.43729 0.0
C2891 C 0.79828 0.29741 0.44935 0.0
C2892 C 0.7909 0.2852 0.44939 0.0
C2893 C 0.80361 0.3027 0.43732 0.0
C2894 C 0.78913 0.27828 0.43713 0.0
C2895 C 0.79456 0.2834 0.42515 0.0
H2896 H 0.10982 0.72906 0.70106 0.0
H2897 H 0.10479 0.69025 0.72029 0.0
H2898 H 0.08575 0.69881 0.73312 0.0
H2899 H 0.06984 0.71719 0.73814 0.0
H2900 H 0.07424 0.75519 0.71734 0.0
H2901 H 0.09397 0.74692 0.70554 0.0
C2902 C 0.10448 0.72233 0.70788 0.0
C2903 C 0.10874 0.70895 0.70953 0.0
C2904 C 0.09333 0.72717 0.71489 0.0
C2905 C 0.10188 0.70063 0.71883 0.0
C2906 C 0.0909 0.70548 0.72611 0.0
C2907 C 0.07521 0.72363 0.73108 0.0
C2908 C 0.07063 0.73677 0.72858 0.0
C2909 C 0.08646 0.71872 0.72414 0.0
C2910 C 0.07754 0.74502 0.71933 0.0
C2911 C 0.08884 0.74031 0.71262 0.0
H2912 H 0.79579 0.61399 0.71084 0.0
H2913 H 0.836 0.60263 0.72305 0.0
H2914 H 0.82714 0.58213 0.73334 0.0
H2915 H 0.80797 0.56755 0.73948 0.0
H2916 H 0.76795 0.5777 0.72608 0.0
H2917 H 0.77668 0.59843 0.71557 0.0
C2918 C 0.80263 0.60694 0.71558 0.0
C2919 C 0.81652 0.61005 0.7164 0.0
C2920 C 0.79749 0.59496 0.72134 0.0
C2921 C 0.82522 0.60073 0.72259 0.0
C2922 C 0.82018 0.58894 0.72844 0.0
C2923 C 0.80121 0.57436 0.73427 0.0
C2924 C 0.78738 0.57129 0.73362 0.0
C2925 C 0.80634 0.58604 0.72805 0.0
C2926 C 0.77866 0.57998 0.72668 0.0
C2927 C 0.78365 0.59179 0.72069 0.0
H2928 H 0.92702 0.31579 0.6964 0.0
H2929 H 0.8994 0.31181 0.72964 0.0
H2930 H 0.91703 0.30122 0.74328 0.0
H2931 H 0.93985 0.29174 0.74518 0.0
H2932 H 0.96755 0.29691 0.71199 0.0
H2933 H 0.9501 0.30776 0.69879 0.0
C2934 C 0.92482 0.31259 0.70662 0.0
C2935 C 0.91184 0.3145 0.71191 0.0
C2936 C 0.93494 0.30642 0.71435 0.0
C2937 C 0.90931 0.31055 0.72531 0.0
C2938 C 0.91936 0.30438 0.73308 0.0
C2939 C 0.94219 0.29541 0.73516 0.0
C2940 C 0.95505 0.29318 0.72961 0.0
C2941 C 0.93217 0.30209 0.72764 0.0
C2942 C 0.9577 0.29798 0.71649 0.0
C2943 C 0.94775 0.30439 0.70892 0.0
H2944 H 0.22228 0.40355 0.72582 0.0
H2945 H 0.19672 0.42435 0.69758 0.0
H2946 H 0.20582 0.44609 0.70527 0.0
H2947 H 0.22072 0.45913 0.72047 0.0
H2948 H 0.24651 0.43822 0.74855 0.0
H2949 H 0.23778 0.41658 0.74048 0.0
C2950 C 0.21891 0.41287 0.72125 0.0
C2951 C 0.20903 0.41248 0.71107 0.0
C2952 C 0.22418 0.42527 0.72575 0.0
C2953 C 0.2045 0.42452 0.7053 0.0
C2954 C 0.20963 0.43691 0.70975 0.0
C2955 C 0.22438 0.44982 0.72483 0.0
C2956 C 0.23423 0.45025 0.73508 0.0
C2957 C 0.21939 0.43741 0.72006 0.0
C2958 C 0.23901 0.43813 0.74056 0.0
C2959 C 0.234 0.42576 0.73598 0.0
H2960 H 0.10487 0.32584 0.30576 0.0
H2961 H 0.11566 0.28834 0.32489 0.0
H2962 H 0.0973 0.27677 0.31321 0.0
H2963 H 0.07766 0.27729 0.29824 0.0
H2964 H 0.06691 0.31423 0.27826 0.0
H2965 H 0.0858 0.32601 0.28941 0.0
C2966 C 0.10328 0.31512 0.30724 0.0
C2967 C 0.11148 0.30804 0.31642 0.0
C2968 C 0.09268 0.30843 0.30036 0.0
C2969 C 0.10929 0.29412 0.31818 0.0
C2970 C 0.09883 0.28746 0.31144 0.0
C2971 C 0.07951 0.28791 0.29632 0.0
C2972 C 0.07095 0.29493 0.28755 0.0
C2973 C 0.09036 0.29452 0.30268 0.0
C2974 C 0.07347 0.30864 0.28496 0.0
C2975 C 0.08422 0.31537 0.29137 0.0
H2976 H 0.19629 0.59731 0.31079 0.0
H2977 H 0.23364 0.61933 0.31694 0.0
H2978 H 0.24611 0.60162 0.30589 0.0
H2979 H 0.24667 0.5795 0.29502 0.0
H2980 H 0.20962 0.55746 0.2882 0.0
H2981 H 0.19675 0.57546 0.29884 0.0
C2982 C 0.20712 0.59829 0.30953 0.0
C2983 C 0.21402 0.60956 0.31486 0.0
C2984 C 0.2143 0.58802 0.30309 0.0
C2985 C 0.22809 0.61065 0.31318 0.0
C2986 C 0.23526 0.60054 0.30682 0.0
C2987 C 0.23577 0.57875 0.29584 0.0
C2988 C 0.22901 0.56733 0.29091 0.0
C2989 C 0.22851 0.58913 0.30187 0.0
C2990 C 0.21492 0.56629 0.29196 0.0
C2991 C 0.20761 0.57655 0.29803 0.0
H2992 H 0.90422 0.72768 0.30935 0.0
H2993 H 0.92312 0.68932 0.31591 0.0
H2994 H 0.94446 0.69833 0.30744 0.0
H2995 H 0.95765 0.71683 0.29728 0.0
H2996 H 0.93887 0.75497 0.28981 0.0
H2997 H 0.91769 0.7465 0.29961 0.0
C2998 C 0.91308 0.72139 0.30911 0.0
C2999 C 0.91207 0.70784 0.31321 0.0
C3000 C 0.92533 0.7266 0.304 0.0
C3001 C 0.92361 0.69975 0.3127 0.0
C3002 C 0.93582 0.70489 0.30787 0.0
C3003 C 0.94889 0.72324 0.29789 0.0
C3004 C 0.94967 0.73644 0.2929 0.0
C3005 C 0.93677 0.71823 0.30333 0.0
C3006 C 0.93836 0.74474 0.29361 0.0
C3007 C 0.9263 0.7399 0.29921 0.0
H3008 H 0.82722 0.41985 0.3022 0.0
H3009 H 0.79175 0.40373 0.32187 0.0
H3010 H 0.7789 0.42332 0.31446 0.0
H3011 H 0.77769 0.44483 0.30189 0.0
H3012 H 0.81272 0.45852 0.27958 0.0
H3013 H 0.82564 0.44004 0.28854 0.0
C3014 C 0.81661 0.4204 0.30472 0.0
C3015 C 0.81051 0.41015 0.31251 0.0
C3016 C 0.80916 0.43136 0.29999 0.0
C3017 C 0.79684 0.41147 0.31602 0.0
C3018 C 0.78942 0.42263 0.31167 0.0
C3019 C 0.78808 0.44372 0.29879 0.0
C3020 C 0.79417 0.45342 0.29022 0.0
C3021 C 0.79546 0.4326 0.30353 0.0
C3022 C 0.80775 0.45168 0.28653 0.0
C3023 C 0.81519 0.44096 0.29153 0.0
H3024 H 0.19979 0.6096 0.72809 0.0
H3025 H 0.21889 0.60654 0.68925 0.0
H3026 H 0.2323 0.58771 0.69755 0.0
H3027 H 0.23784 0.57137 0.71564 0.0
H3028 H 0.21732 0.57382 0.75373 0.0
H3029 H 0.2049 0.59337 0.74576 0.0
C3030 C 0.20671 0.60473 0.7213 0.0
C3031 C 0.20816 0.60949 0.70799 0.0
C3032 C 0.21408 0.5937 0.72599 0.0
C3033 C 0.21758 0.60324 0.69958 0.0
C3034 C 0.2252 0.59238 0.70429 0.0
C3035 C 0.23072 0.5763 0.72218 0.0
C3036 C 0.22846 0.57119 0.73524 0.0
C3037 C 0.22345 0.58746 0.71745 0.0
C3038 C 0.21913 0.57753 0.74361 0.0
C3039 C 0.21207 0.58872 0.73907 0.0
H3040 H 0.21856 0.41746 0.32739 0.0
H3041 H 0.19775 0.4069 0.29049 0.0
H3042 H 0.20894 0.42539 0.27876 0.0
H3043 H 0.22361 0.44512 0.27911 0.0
H3044 H 0.24636 0.45475 0.31517 0.0
H3045 H 0.23516 0.4363 0.3271 0.0
C3046 C 0.21661 0.41912 0.31675 0.0
C3047 C 0.20709 0.41095 0.30993 0.0
C3048 C 0.22326 0.42973 0.30993 0.0
C3049 C 0.20472 0.41325 0.29612 0.0
C3050 C 0.21117 0.42379 0.28935 0.0
C3051 C 0.22646 0.44308 0.28947 0.0
C3052 C 0.23585 0.45149 0.29614 0.0
C3053 C 0.22032 0.43219 0.29618 0.0
C3054 C 0.23898 0.44871 0.30975 0.0
C3055 C 0.23266 0.43805 0.31659 0.0
H3056 H 0.11642 0.71802 0.3009 0.0
H3057 H 0.09348 0.696 0.33062 0.0
H3058 H 0.07265 0.70659 0.32262 0.0
H3059 H 0.06091 0.7214 0.3064 0.0
H3060 H 0.08428 0.74408 0.27734 0.0
H3061 H 0.10495 0.73394 0.28581 0.0
C3062 C 0.10686 0.71568 0.30569 0.0
C3063 C 0.10644 0.7063 0.31633 0.0
C3064 C 0.095 0.72184 0.30109 0.0
C3065 C 0.09403 0.70332 0.32251 0.0
C3066 C 0.08213 0.7093 0.31788 0.0
C3067 C 0.07054 0.72425 0.30203 0.0
C3068 C 0.07098 0.73337 0.29111 0.0
C3069 C 0.08248 0.71849 0.30708 0.0
C3070 C 0.08357 0.73686 0.28553 0.0
C3071 C 0.09543 0.73114 0.29043 0.0
H3072 H 0.82082 0.60903 0.30259 0.0
H3073 H 0.78765 0.6124 0.33032 0.0
H3074 H 0.77657 0.59289 0.32025 0.0
H3075 H 0.77647 0.57449 0.30412 0.0
H3076 H 0.80869 0.57168 0.27521 0.0
H3077 H 0.82 0.59113 0.28534 0.0
C3078 C 0.81111 0.60557 0.30633 0.0
C3079 C 0.80522 0.61208 0.31736 0.0
C3080 C 0.80465 0.59433 0.30038 0.0
C3081 C 0.79262 0.60741 0.32208 0.0
C3082 C 0.78621 0.59628 0.31627 0.0
C3083 C 0.78583 0.57823 0.29983 0.0
C3084 C 0.79166 0.57152 0.2889 0.0
C3085 C 0.79217 0.5896 0.3055 0.0
C3086 C 0.80401 0.57644 0.28376 0.0
C3087 C 0.81047 0.58766 0.28948 0.0
H3088 H 0.90538 0.30508 0.29696 0.0
H3089 H 0.92804 0.32131 0.33053 0.0
H3090 H 0.94899 0.3132 0.32087 0.0
H3091 H 0.96085 0.3012 0.30319 0.0
H3092 H 0.93823 0.28364 0.2702 0.0
H3093 H 0.91742 0.29284 0.27912 0.0
C3094 C 0.91494 0.307 0.30202 0.0
C3095 C 0.91516 0.3138 0.31443 0.0
C3096 C 0.92698 0.30209 0.29651 0.0
C3097 C 0.9276 0.31605 0.32099 0.0
C3098 C 0.93959 0.31141 0.31549 0.0
C3099 C 0.95137 0.29924 0.29799 0.0
C3100 C 0.9512 0.29173 0.286 0.0
C3101 C 0.93938 0.3043 0.30333 0.0
C3102 C 0.93878 0.28957 0.27932 0.0
C3103 C 0.92682 0.29475 0.28447 0.0
H3104 H 0.80477 0.41886 0.69824 0.0
H3105 H 0.82672 0.4083 0.73443 0.0
H3106 H 0.81637 0.42672 0.74643 0.0
H3107 H 0.80189 0.44631 0.74656 0.0
H3108 H 0.77807 0.45581 0.71122 0.0
H3109 H 0.78857 0.43756 0.69902 0.0
C3110 C 0.80716 0.42048 0.70879 0.0
C3111 C 0.81675 0.41231 0.71529 0.0
C3112 C 0.80098 0.43104 0.71579 0.0
C3113 C 0.81969 0.41463 0.729 0.0
C3114 C 0.81371 0.42513 0.73594 0.0
C3115 C 0.79871 0.44429 0.73629 0.0
C3116 C 0.7892 0.45263 0.7299 0.0
C3117 C 0.80446 0.43349 0.72941 0.0
C3118 C 0.78558 0.44986 0.71642 0.0
C3119 C 0.79148 0.43929 0.70942 0.0
H3120 H 0.10591 0.32382 0.72061 0.0
H3121 H 0.1161 0.28657 0.70117 0.0
H3122 H 0.09701 0.27525 0.7118 0.0
H3123 H 0.07704 0.27588 0.72613 0.0
H3124 H 0.06691 0.31259 0.74639 0.0
H3125 H 0.08632 0.32413 0.73606 0.0
C3126 C 0.10402 0.3132 0.71884 0.0
C3127 C 0.11232 0.30613 0.70991 0.0
C3128 C 0.09299 0.30665 0.7251 0.0
C3129 C 0.10971 0.29235 0.70773 0.0
C3130 C 0.09882 0.28582 0.71385 0.0
C3131 C 0.07911 0.28641 0.72827 0.0
C3132 C 0.0706 0.29341 0.73695 0.0
C3133 C 0.09031 0.29289 0.72241 0.0
C3134 C 0.07343 0.307 0.73979 0.0
C3135 C 0.08448 0.31359 0.73385 0.0
H3136 H 0.92296 0.71126 0.69859 0.0
H3137 H 0.89749 0.71538 0.73337 0.0
H3138 H 0.91629 0.72566 0.74593 0.0
H3139 H 0.9394 0.73513 0.74628 0.0
H3140 H 0.96483 0.73006 0.71147 0.0
H3141 H 0.94636 0.71908 0.6995 0.0
C3142 C 0.9215 0.71441 0.70892 0.0
C3143 C 0.9088 0.71273 0.71496 0.0
C3144 C 0.93225 0.72044 0.71598 0.0
C3145 C 0.90718 0.71654 0.72848 0.0
C3146 C 0.91789 0.72252 0.73563 0.0
C3147 C 0.94101 0.73144 0.73617 0.0
C3148 C 0.9535 0.73373 0.72976 0.0
C3149 C 0.9304 0.72476 0.72938 0.0
C3150 C 0.95526 0.72891 0.71657 0.0
C3151 C 0.94473 0.72245 0.70973 0.0
H3152 H 0.69793 0.2177 0.6038 0.0
H3153 H 0.73178 0.19203 0.61239 0.0
H3154 H 0.74442 0.20231 0.59406 0.0
H3155 H 0.746 0.21833 0.57536 0.0
H3156 H 0.71279 0.24469 0.56682 0.0
H3157 H 0.69992 0.2346 0.58538 0.0
C3158 C 0.70811 0.21446 0.60173 0.0
C3159 C 0.71375 0.2039 0.60936 0.0
C3160 C 0.71549 0.22055 0.59116 0.0
C3161 C 0.72699 0.19986 0.60649 0.0
C3162 C 0.73431 0.20579 0.59605 0.0
C3163 C 0.73592 0.22184 0.57755 0.0
C3164 C 0.73035 0.23221 0.56972 0.0
C3165 C 0.72864 0.21605 0.58824 0.0
C3166 C 0.71736 0.23678 0.57279 0.0
C3167 C 0.70997 0.23098 0.58336 0.0
H3168 H 0.3246 0.21091 0.60293 0.0
H3169 H 0.29012 0.21862 0.62781 0.0
H3170 H 0.27966 0.23153 0.60958 0.0
H3171 H 0.27998 0.23994 0.5864 0.0
H3172 H 0.31354 0.23053 0.56069 0.0
H3173 H 0.32481 0.21929 0.57941 0.0
C3174 C 0.3149 0.21562 0.60435 0.0
C3175 C 0.30815 0.214 0.61666 0.0
C3176 C 0.30878 0.22271 0.59368 0.0
C3177 C 0.29548 0.21988 0.6184 0.0
C3178 C 0.2895 0.2272 0.60798 0.0
C3179 C 0.2897 0.23533 0.58481 0.0
C3180 C 0.29586 0.23616 0.5721 0.0
C3181 C 0.29597 0.22853 0.59552 0.0
C3182 C 0.30861 0.23031 0.57039 0.0
C3183 C 0.31504 0.22376 0.58109 0.0
H3184 H 0.29704 0.80744 0.61649 0.0
H3185 H 0.33437 0.81849 0.59697 0.0
H3186 H 0.32681 0.80701 0.57642 0.0
H3187 H 0.30895 0.79503 0.56359 0.0
H3188 H 0.27209 0.78331 0.58387 0.0
H3189 H 0.27992 0.7944 0.60425 0.0
C3190 C 0.30353 0.8074 0.60773 0.0
C3191 C 0.3162 0.81396 0.60828 0.0
C3192 C 0.29909 0.80088 0.59595 0.0
C3193 C 0.32459 0.81348 0.5969 0.0
C3194 C 0.32022 0.80701 0.5851 0.0
C3195 C 0.30268 0.79468 0.5725 0.0
C3196 C 0.28979 0.78845 0.57196 0.0
C3197 C 0.30741 0.80081 0.58445 0.0
C3198 C 0.28186 0.78832 0.5837 0.0
C3199 C 0.28639 0.79455 0.59548 0.0
H3200 H 0.71564 0.79726 0.6175 0.0
H3201 H 0.71362 0.83678 0.59944 0.0
H3202 H 0.72338 0.82828 0.57874 0.0
H3203 H 0.73241 0.8098 0.56574 0.0
H3204 H 0.73646 0.77059 0.58433 0.0
H3205 H 0.72538 0.77867 0.60444 0.0
C3206 C 0.71717 0.80395 0.60896 0.0
C3207 C 0.71391 0.81765 0.61005 0.0
C3208 C 0.723 0.79903 0.59706 0.0
C3209 C 0.71613 0.82622 0.59893 0.0
C3210 C 0.72169 0.82136 0.58706 0.0
C3211 C 0.73117 0.80299 0.57421 0.0
C3212 C 0.73535 0.78952 0.57327 0.0
C3213 C 0.72526 0.80782 0.58604 0.0
C3214 C 0.73316 0.78093 0.58443 0.0
C3215 C 0.72692 0.78557 0.59609 0.0
H3216 H 0.70431 0.80035 0.4144 0.0
H3217 H 0.72881 0.83649 0.41716 0.0
H3218 H 0.74046 0.8275 0.4368 0.0
H3219 H 0.74439 0.80917 0.45261 0.0
H3220 H 0.71872 0.7737 0.45144 0.0
H3221 H 0.70714 0.7825 0.4316 0.0
C3222 C 0.71208 0.8063 0.4194 0.0
C3223 C 0.71583 0.81897 0.41413 0.0
C3224 C 0.7187 0.80112 0.43087 0.0
C3225 C 0.72594 0.82656 0.42077 0.0
C3226 C 0.73259 0.82146 0.43205 0.0
C3227 C 0.73609 0.80341 0.44824 0.0
C3228 C 0.73254 0.79073 0.45359 0.0
C3229 C 0.72917 0.8087 0.43709 0.0
C3230 C 0.72195 0.78336 0.44744 0.0
C3231 C 0.71518 0.78846 0.43615 0.0
H3232 H 0.7009 0.19786 0.42735 0.0
H3233 H 0.72132 0.22148 0.39706 0.0
H3234 H 0.73457 0.23312 0.41451 0.0
H3235 H 0.74005 0.2368 0.43848 0.0
H3236 H 0.71934 0.21328 0.46881 0.0
H3237 H 0.70663 0.20132 0.45136 0.0
C3238 C 0.70841 0.20541 0.42464 0.0
C3239 C 0.71036 0.20872 0.41101 0.0
C3240 C 0.7159 0.2121 0.43474 0.0
C3241 C 0.71989 0.21868 0.40752 0.0
C3242 C 0.72738 0.22537 0.41749 0.0
C3243 C 0.73271 0.2291 0.44126 0.0
C3244 C 0.73072 0.22592 0.45494 0.0
C3245 C 0.72541 0.22223 0.43114 0.0
C3246 C 0.72124 0.21581 0.45835 0.0
C3247 C 0.7139 0.20899 0.44838 0.0
H3248 H 0.32813 0.22344 0.42112 0.0
H3249 H 0.29219 0.20181 0.40844 0.0
H3250 H 0.28027 0.20995 0.42823 0.0
H3251 H 0.27995 0.22372 0.44878 0.0
H3252 H 0.31513 0.24797 0.45898 0.0
H3253 H 0.32736 0.23825 0.44046 0.0
C3254 C 0.31761 0.22064 0.42247 0.0
C3255 C 0.3111 0.21209 0.41313 0.0
C3256 C 0.31066 0.2258 0.4335 0.0
C3257 C 0.29758 0.20825 0.41547 0.0
C3258 C 0.2907 0.21301 0.42674 0.0
C3259 C 0.2902 0.2271 0.44688 0.0
C3260 C 0.29656 0.2365 0.45555 0.0
C3261 C 0.29711 0.22192 0.43575 0.0
C3262 C 0.30999 0.24047 0.45289 0.0
C3263 C 0.31701 0.23502 0.44215 0.0
H3264 H 0.30115 0.82498 0.41821 0.0
H3265 H 0.3266 0.79218 0.40637 0.0
H3266 H 0.31919 0.7792 0.42603 0.0
H3267 H 0.30453 0.77671 0.44608 0.0
H3268 H 0.27807 0.80912 0.45657 0.0
H3269 H 0.28648 0.82247 0.43765 0.0
C3270 C 0.30497 0.81491 0.41972 0.0
C3271 C 0.31435 0.8096 0.41061 0.0
C3272 C 0.30035 0.80733 0.43078 0.0
C3273 C 0.31948 0.79667 0.41319 0.0
C3274 C 0.31515 0.78916 0.42439 0.0
C3275 C 0.30069 0.78673 0.44424 0.0
C3276 C 0.29064 0.7919 0.45268 0.0
C3277 C 0.30548 0.79433 0.43319 0.0
C3278 C 0.28567 0.80485 0.45013 0.0
C3279 C 0.29053 0.81252 0.43935 0.0
H3280 H 0.59527 0.20397 0.6976 0.0
H3281 H 0.62586 0.21991 0.72433 0.0
H3282 H 0.6086 0.23169 0.73721 0.0
H3283 H 0.58473 0.23764 0.74061 0.0
H3284 H 0.55415 0.22072 0.7144 0.0
H3285 H 0.5714 0.20907 0.70157 0.0
C3286 C 0.59807 0.2099 0.70635 0.0
C3287 C 0.6117 0.21105 0.71014 0.0
C3288 C 0.58812 0.21649 0.71373 0.0
C3289 C 0.61535 0.21879 0.72141 0.0
C3290 C 0.60552 0.22557 0.72869 0.0
C3291 C 0.58192 0.23141 0.73206 0.0
C3292 C 0.56826 0.23001 0.72839 0.0
C3293 C 0.59187 0.22455 0.7249 0.0
C3294 C 0.56463 0.22185 0.71741 0.0
C3295 C 0.57447 0.21522 0.71008 0.0
H3296 H 0.32652 0.10271 0.7227 0.0
H3297 H 0.29117 0.11813 0.70251 0.0
H3298 H 0.27804 0.09858 0.71015 0.0
H3299 H 0.27631 0.0776 0.72366 0.0
H3300 H 0.31134 0.0636 0.7453 0.0
H3301 H 0.32478 0.08234 0.73633 0.0
C3302 C 0.3159 0.10197 0.72009 0.0
C3303 C 0.30988 0.11204 0.71211 0.0
C3304 C 0.3083 0.09098 0.7249 0.0
C3305 C 0.29618 0.11054 0.70851 0.0
C3306 C 0.2886 0.0994 0.71298 0.0
C3307 C 0.28691 0.07868 0.72632 0.0
C3308 C 0.29286 0.06932 0.73514 0.0
C3309 C 0.29452 0.08964 0.72132 0.0
C3310 C 0.30655 0.07079 0.73863 0.0
C3311 C 0.31424 0.08145 0.73347 0.0
H3312 H 0.41295 0.79671 0.70218 0.0
H3313 H 0.41712 0.83554 0.72119 0.0
H3314 H 0.43607 0.82723 0.73465 0.0
H3315 H 0.45155 0.8089 0.74087 0.0
H3316 H 0.4486 0.77113 0.71949 0.0
H3317 H 0.42911 0.77916 0.70716 0.0
C3318 C 0.41809 0.8035 0.70907 0.0
C3319 C 0.41357 0.81679 0.71054 0.0
C3320 C 0.4292 0.79881 0.71647 0.0
C3321 C 0.42021 0.82521 0.71991 0.0
C3322 C 0.43114 0.8205 0.72755 0.0
C3323 C 0.4468 0.80245 0.7334 0.0
C3324 C 0.45155 0.78927 0.7314 0.0
C3325 C 0.43576 0.8073 0.72588 0.0
C3326 C 0.44504 0.78112 0.7217 0.0
C3327 C 0.43392 0.78576 0.71447 0.0
H3328 H 0.72619 0.90417 0.71897 0.0
H3329 H 0.69063 0.92501 0.70548 0.0
H3330 H 0.69977 0.94617 0.7142 0.0
H3331 H 0.7175 0.95869 0.7261 0.0
H3332 H 0.75255 0.93779 0.74101 0.0
H3333 H 0.74417 0.91691 0.731 0.0
C3334 C 0.72058 0.9134 0.71777 0.0
C3335 C 0.70776 0.91302 0.71159 0.0
C3336 C 0.7258 0.92555 0.72306 0.0
C3337 C 0.7005 0.92503 0.71025 0.0
C3338 C 0.7057 0.93714 0.71525 0.0
C3339 C 0.72327 0.94956 0.72733 0.0
C3340 C 0.73567 0.94992 0.73435 0.0
C3341 C 0.71826 0.93749 0.72182 0.0
C3342 C 0.74308 0.93796 0.73551 0.0
C3343 C 0.73825 0.92595 0.72986 0.0
H3344 H 0.61086 0.7951 0.31884 0.0
H3345 H 0.60674 0.83485 0.30172 0.0
H3346 H 0.58774 0.82686 0.28784 0.0
H3347 H 0.57144 0.8087 0.28158 0.0
H3348 H 0.57521 0.76957 0.30011 0.0
H3349 H 0.59505 0.77728 0.31268 0.0
C3350 C 0.60574 0.80211 0.31221 0.0
C3351 C 0.61013 0.8156 0.31149 0.0
C3352 C 0.5947 0.79755 0.30456 0.0
C3353 C 0.60362 0.82439 0.30246 0.0
C3354 C 0.5927 0.81985 0.29459 0.0
C3355 C 0.57675 0.80189 0.28828 0.0
C3356 C 0.57193 0.78861 0.28998 0.0
C3357 C 0.58805 0.80647 0.29567 0.0
C3358 C 0.57873 0.77985 0.29875 0.0
C3359 C 0.59007 0.78424 0.3059 0.0
H3360 H 0.708 0.09412 0.3277 0.0
H3361 H 0.7125 0.12157 0.29418 0.0
H3362 H 0.72365 0.10408 0.28119 0.0
H3363 H 0.73339 0.08144 0.27997 0.0
H3364 H 0.7275 0.05378 0.31327 0.0
H3365 H 0.71624 0.07113 0.32588 0.0
C3366 C 0.71142 0.0963 0.31755 0.0
C3367 C 0.7095 0.10919 0.31198 0.0
C3368 C 0.71787 0.08625 0.31018 0.0
C3369 C 0.71376 0.11173 0.2987 0.0
C3370 C 0.72025 0.10176 0.29131 0.0
C3371 C 0.72947 0.07907 0.28988 0.0
C3372 C 0.73163 0.06626 0.29565 0.0
C3373 C 0.72252 0.08902 0.29702 0.0
C3374 C 0.7265 0.0636 0.30862 0.0
C3375 C 0.71985 0.07349 0.31584 0.0
H3376 H 0.40872 0.22645 0.31905 0.0
H3377 H 0.41674 0.18803 0.30081 0.0
H3378 H 0.43702 0.19723 0.29045 0.0
H3379 H 0.45172 0.21629 0.28543 0.0
H3380 H 0.44569 0.25415 0.30568 0.0
H3381 H 0.42525 0.24514 0.31596 0.0
C3382 C 0.415 0.22005 0.31296 0.0
C3383 C 0.41096 0.20664 0.31046 0.0
C3384 C 0.42691 0.22535 0.30714 0.0
C3385 C 0.41932 0.1985 0.30258 0.0
C3386 C 0.43099 0.20373 0.29668 0.0
C3387 C 0.44624 0.22258 0.29234 0.0
C3388 C 0.4504 0.23601 0.29455 0.0
C3389 C 0.43477 0.21719 0.29871 0.0
C3390 C 0.4427 0.24392 0.30334 0.0
C3391 C 0.43102 0.23871 0.30942 0.0
H3392 H 0.29836 0.90422 0.30254 0.0
H3393 H 0.32949 0.92637 0.32372 0.0
H3394 H 0.31985 0.94766 0.3161 0.0
H3395 H 0.30309 0.95995 0.30273 0.0
H3396 H 0.27254 0.93788 0.28053 0.0
H3397 H 0.28133 0.91666 0.28923 0.0
C3398 C 0.30285 0.91374 0.30563 0.0
C3399 C 0.31452 0.91381 0.31376 0.0
C3400 C 0.29742 0.92595 0.30093 0.0
C3401 C 0.32045 0.92615 0.31752 0.0
C3402 C 0.31498 0.93829 0.31312 0.0
C3403 C 0.29839 0.9505 0.29975 0.0
C3404 C 0.28715 0.95054 0.29102 0.0
C3405 C 0.30358 0.93832 0.30468 0.0
C3406 C 0.28108 0.93818 0.2874 0.0
C3407 C 0.28615 0.92602 0.29231 0.0
H3408 H 0.71033 0.11445 0.72866 0.0
H3409 H 0.70673 0.09819 0.68853 0.0
H3410 H 0.71828 0.0778 0.69589 0.0
H3411 H 0.7287 0.06413 0.7141 0.0
H3412 H 0.73155 0.08035 0.75419 0.0
H3413 H 0.72068 0.10108 0.7466 0.0
C3414 C 0.71194 0.10642 0.72151 0.0
C3415 C 0.70754 0.10789 0.70806 0.0
C3416 C 0.71837 0.09465 0.72586 0.0
C3417 C 0.71009 0.09745 0.6989 0.0
C3418 C 0.7166 0.08572 0.70314 0.0
C3419 C 0.72694 0.07228 0.72109 0.0
C3420 C 0.73087 0.07088 0.73464 0.0
C3421 C 0.72069 0.08416 0.71662 0.0
C3422 C 0.72859 0.08136 0.74371 0.0
C3423 C 0.7224 0.09316 0.73937 0.0
H3424 H 0.69807 0.92637 0.31763 0.0
H3425 H 0.7285 0.89698 0.30925 0.0
H3426 H 0.74246 0.91432 0.29831 0.0
H3427 H 0.74553 0.9378 0.2903 0.0
H3428 H 0.71527 0.96709 0.29935 0.0
H3429 H 0.70156 0.94982 0.31065 0.0
C3430 C 0.70778 0.92378 0.31343 0.0
C3431 C 0.71222 0.91043 0.31417 0.0
C3432 C 0.71568 0.93375 0.30715 0.0
C3433 C 0.72491 0.90723 0.30889 0.0
C3434 C 0.73284 0.9171 0.30254 0.0
C3435 C 0.73592 0.9403 0.29476 0.0
C3436 C 0.73127 0.95355 0.29398 0.0
C3437 C 0.72824 0.93036 0.30145 0.0
C3438 C 0.71893 0.95687 0.29987 0.0
C3439 C 0.71113 0.94703 0.30632 0.0
H3440 H 0.59397 0.1951 0.31744 0.0
H3441 H 0.62344 0.22629 0.30916 0.0
H3442 H 0.606 0.24001 0.29842 0.0
H3443 H 0.58262 0.24246 0.29021 0.0
H3444 H 0.553 0.21167 0.29998 0.0
H3445 H 0.57032 0.19838 0.31095 0.0
C3446 C 0.59655 0.20493 0.31334 0.0
C3447 C 0.60998 0.20964 0.31403 0.0
C3448 C 0.58649 0.21276 0.30724 0.0
C3449 C 0.61315 0.22248 0.30884 0.0
C3450 C 0.6032 0.23028 0.30261 0.0
C3451 C 0.57986 0.23296 0.2949 0.0
C3452 C 0.56647 0.22804 0.29394 0.0
C3453 C 0.58985 0.22544 0.3016 0.0
C3454 C 0.56324 0.2156 0.30008 0.0
C3455 C 0.57314 0.20801 0.30653 0.0
H3456 H 0.30408 0.11853 0.29871 0.0
H3457 H 0.31645 0.09736 0.33466 0.0
H3458 H 0.30856 0.07608 0.32507 0.0
H3459 H 0.29724 0.06353 0.30685 0.0
H3460 H 0.28362 0.08461 0.2714 0.0
H3461 H 0.29298 0.10581 0.28022 0.0
C3462 C 0.30521 0.10921 0.30432 0.0
C3463 C 0.31084 0.1095 0.31737 0.0
C3464 C 0.30038 0.09701 0.29884 0.0
C3465 C 0.31209 0.09739 0.32462 0.0
C3466 C 0.30758 0.08522 0.31915 0.0
C3467 C 0.29643 0.07279 0.30108 0.0
C3468 C 0.28981 0.07264 0.28855 0.0
C3469 C 0.30156 0.08492 0.30635 0.0
C3470 C 0.28865 0.08462 0.28112 0.0
C3471 C 0.29401 0.0967 0.28615 0.0
H3472 H 0.4259 0.8149 0.3243 0.0
H3473 H 0.39865 0.80928 0.29065 0.0
H3474 H 0.41672 0.79909 0.27767 0.0
H3475 H 0.4398 0.79033 0.27653 0.0
H3476 H 0.46714 0.79704 0.31005 0.0
H3477 H 0.44926 0.80758 0.3226 0.0
C3478 C 0.42388 0.81142 0.31413 0.0
C3479 C 0.41087 0.81274 0.30853 0.0
C3480 C 0.43425 0.80545 0.30679 0.0
C3481 C 0.40856 0.80847 0.29521 0.0
C3482 C 0.41887 0.80252 0.28782 0.0
C3483 C 0.44197 0.79428 0.28648 0.0
C3484 C 0.45486 0.79258 0.29233 0.0
C3485 C 0.4317 0.80077 0.29359 0.0
C3486 C 0.45729 0.79772 0.30534 0.0
C3487 C 0.44708 0.80395 0.31253 0.0
H3488 H 0.32366 0.92798 0.70409 0.0
H3489 H 0.29852 0.89717 0.72196 0.0
H3490 H 0.2856 0.91432 0.73381 0.0
H3491 H 0.28168 0.9382 0.73925 0.0
H3492 H 0.30635 0.96899 0.72055 0.0
H3493 H 0.31921 0.95184 0.70883 0.0
C3494 C 0.31523 0.92511 0.71045 0.0
C3495 C 0.31188 0.91143 0.71209 0.0
C3496 C 0.30783 0.93502 0.71711 0.0
C3497 C 0.30107 0.9077 0.72044 0.0
C3498 C 0.29377 0.91748 0.72726 0.0
C3499 C 0.2899 0.94109 0.73263 0.0
C3500 C 0.2931 0.95479 0.73075 0.0
C3501 C 0.2971 0.93117 0.72573 0.0
C3502 C 0.30368 0.95848 0.72207 0.0
C3503 C 0.31104 0.94869 0.71538 0.0
H3504 H 0.6177 0.79378 0.71871 0.0
H3505 H 0.6003 0.83215 0.70885 0.0
H3506 H 0.57903 0.8251 0.71941 0.0
H3507 H 0.565 0.80739 0.73013 0.0
H3508 H 0.58324 0.76953 0.74098 0.0
H3509 H 0.60434 0.77688 0.73089 0.0
C3510 C 0.60926 0.80062 0.71888 0.0
C3511 C 0.61055 0.81342 0.71288 0.0
C3512 C 0.5971 0.79649 0.72492 0.0
C3513 C 0.5996 0.82226 0.71344 0.0
C3514 C 0.5874 0.81818 0.71939 0.0
C3515 C 0.57361 0.80079 0.73051 0.0
C3516 C 0.57229 0.78776 0.73615 0.0
C3517 C 0.58598 0.80523 0.725 0.0
C3518 C 0.58367 0.77941 0.73637 0.0
C3519 C 0.59587 0.78367 0.73072 0.0
H3520 H 0.40907 0.20768 0.72734 0.0
H3521 H 0.41707 0.22596 0.68859 0.0
H3522 H 0.4378 0.23608 0.69732 0.0
H3523 H 0.45344 0.24032 0.71601 0.0
H3524 H 0.44639 0.22151 0.75457 0.0
H3525 H 0.42564 0.2109 0.74587 0.0
C3526 C 0.41544 0.21374 0.72078 0.0
C3527 C 0.41136 0.21626 0.7074 0.0
C3528 C 0.4275 0.21949 0.72584 0.0
C3529 C 0.41976 0.22414 0.69903 0.0
C3530 C 0.43168 0.22989 0.70398 0.0
C3531 C 0.44731 0.23393 0.7225 0.0
C3532 C 0.4513 0.23177 0.73591 0.0
C3533 C 0.43555 0.22779 0.7174 0.0
C3534 C 0.44346 0.22328 0.74419 0.0
C3535 C 0.43161 0.21725 0.73922 0.0
H3536 H 0.69597 0.71478 0.10178 0.0
H3537 H 0.73344 0.69876 0.11696 0.0
H3538 H 0.74567 0.70931 0.09851 0.0
H3539 H 0.74577 0.72211 0.07764 0.0
H3540 H 0.709 0.74074 0.06367 0.0
H3541 H 0.69655 0.72978 0.08174 0.0
C3542 C 0.70683 0.71374 0.10114 0.0
C3543 C 0.71368 0.70569 0.11064 0.0
C3544 C 0.71396 0.7201 0.09055 0.0
C3545 C 0.72779 0.70452 0.10961 0.0
C3546 C 0.73485 0.71063 0.09908 0.0
C3547 C 0.73512 0.72417 0.0786 0.0
C3548 C 0.7285 0.73229 0.06901 0.0
C3549 C 0.72803 0.71831 0.08941 0.0
C3550 C 0.71451 0.73431 0.07052 0.0
C3551 C 0.70731 0.72815 0.08103 0.0
H3552 H 0.30639 0.69842 0.10257 0.0
H3553 H 0.31722 0.73435 0.12463 0.0
H3554 H 0.30991 0.74823 0.10558 0.0
H3555 H 0.29907 0.75013 0.08304 0.0
H3556 H 0.28654 0.71406 0.06226 0.0
H3557 H 0.2956 0.70022 0.08056 0.0
C3558 C 0.30704 0.70929 0.10333 0.0
C3559 C 0.31222 0.71529 0.11512 0.0
C3560 C 0.3024 0.71718 0.09258 0.0
C3561 C 0.31337 0.72941 0.11566 0.0
C3562 C 0.30908 0.73738 0.10481 0.0
C3563 C 0.29842 0.73924 0.08259 0.0
C3564 C 0.29218 0.73302 0.07147 0.0
C3565 C 0.30339 0.73137 0.09329 0.0
C3566 C 0.29127 0.71895 0.07085 0.0
C3567 C 0.29646 0.71108 0.08126 0.0
H3568 H 0.32747 0.30597 0.10337 0.0
H3569 H 0.28971 0.32336 0.11534 0.0
H3570 H 0.27809 0.312 0.09693 0.0
H3571 H 0.27867 0.29814 0.07691 0.0
H3572 H 0.31564 0.27824 0.06624 0.0
H3573 H 0.32749 0.28995 0.08429 0.0
C3574 C 0.31668 0.30715 0.10203 0.0
C3575 C 0.30958 0.3158 0.1106 0.0
C3576 C 0.3099 0.30034 0.09148 0.0
C3577 C 0.29556 0.31713 0.1087 0.0
C3578 C 0.28885 0.31057 0.09819 0.0
C3579 C 0.28922 0.29597 0.07861 0.0
C3580 C 0.29609 0.28726 0.06993 0.0
C3581 C 0.29593 0.30228 0.08942 0.0
C3582 C 0.30996 0.28511 0.07236 0.0
C3583 C 0.3168 0.2917 0.08286 0.0
H3584 H 0.6999 0.31516 0.10084 0.0
H3585 H 0.73509 0.31007 0.12601 0.0
H3586 H 0.74662 0.2986 0.10775 0.0
H3587 H 0.7468 0.29027 0.08467 0.0
H3588 H 0.71251 0.29742 0.05859 0.0
H3589 H 0.70043 0.30741 0.07723 0.0
C3590 C 0.71002 0.31136 0.10232 0.0
C3591 C 0.71662 0.31332 0.11474 0.0
C3592 C 0.71673 0.30509 0.09164 0.0
C3593 C 0.72982 0.3086 0.11652 0.0
C3594 C 0.73642 0.30208 0.10609 0.0
C3595 C 0.73677 0.29417 0.08293 0.0
C3596 C 0.73063 0.29294 0.07016 0.0
C3597 C 0.73002 0.30037 0.09357 0.0
C3598 C 0.71746 0.29787 0.06833 0.0
C3599 C 0.71055 0.30374 0.07898 0.0
H3600 H 0.7291 0.30834 0.9066 0.0
H3601 H 0.69204 0.31812 0.9267 0.0
H3602 H 0.70035 0.3076 0.94744 0.0
H3603 H 0.71871 0.2969 0.96014 0.0
H3604 H 0.75535 0.28635 0.9395 0.0
H3605 H 0.74684 0.29653 0.91887 0.0
C3606 C 0.72284 0.3082 0.91552 0.0
C3607 C 0.71002 0.3141 0.91513 0.0
C3608 C 0.72771 0.30225 0.92739 0.0
C3609 C 0.70192 0.31357 0.9267 0.0
C3610 C 0.70671 0.30766 0.93859 0.0
C3611 C 0.72477 0.29657 0.9511 0.0
C3612 C 0.73775 0.29092 0.95151 0.0
C3613 C 0.71966 0.30212 0.93909 0.0
C3614 C 0.74548 0.29088 0.93967 0.0
C3615 C 0.74057 0.29658 0.92778 0.0
H3616 H 0.72396 0.70202 0.91089 0.0
H3617 H 0.68509 0.71739 0.92221 0.0
H3618 H 0.69517 0.72845 0.94165 0.0
H3619 H 0.71497 0.73485 0.95469 0.0
H3620 H 0.75347 0.71703 0.94568 0.0
H3621 H 0.74363 0.70635 0.9259 0.0
C3622 C 0.71766 0.70761 0.91771 0.0
C3623 C 0.70382 0.70913 0.91481 0.0
C3624 C 0.72349 0.71379 0.92918 0.0
C3625 C 0.69585 0.7164 0.92387 0.0
C3626 C 0.70159 0.72269 0.93507 0.0
C3627 C 0.72128 0.72837 0.94874 0.0
C3628 C 0.73509 0.72699 0.9519 0.0
C3629 C 0.71543 0.72164 0.93771 0.0
C3630 C 0.74292 0.71876 0.94352 0.0
C3631 C 0.73725 0.71242 0.93221 0.0
H3632 H 0.3255 0.70915 0.92774 0.0
H3633 H 0.29327 0.71897 0.9001 0.0
H3634 H 0.28118 0.73015 0.91821 0.0
H3635 H 0.28051 0.73835 0.94152 0.0
H3636 H 0.31253 0.72767 0.96921 0.0
H3637 H 0.3242 0.71616 0.95126 0.0
C3638 C 0.31583 0.71374 0.92566 0.0
C3639 C 0.31035 0.71329 0.91256 0.0
C3640 C 0.30902 0.72026 0.93606 0.0
C3641 C 0.29768 0.71907 0.91012 0.0
C3642 C 0.29081 0.72557 0.92044 0.0
C3643 C 0.28992 0.73333 0.94373 0.0
C3644 C 0.29566 0.7341 0.95673 0.0
C3645 C 0.29648 0.72638 0.93341 0.0
C3646 C 0.30799 0.72763 0.95926 0.0
C3647 C 0.31464 0.72088 0.94902 0.0
H3648 H 0.32628 0.30854 0.92313 0.0
H3649 H 0.28895 0.31045 0.90065 0.0
H3650 H 0.27702 0.2991 0.91902 0.0
H3651 H 0.2774 0.28803 0.94104 0.0
H3652 H 0.31439 0.28819 0.96446 0.0
H3653 H 0.32632 0.29873 0.94586 0.0
C3654 C 0.31555 0.30639 0.92225 0.0
C3655 C 0.3085 0.31024 0.91057 0.0
C3656 C 0.30873 0.30002 0.9329 0.0
C3657 C 0.29456 0.30762 0.90961 0.0
C3658 C 0.28775 0.30109 0.92007 0.0
C3659 C 0.28799 0.29056 0.94228 0.0
C3660 C 0.2949 0.28706 0.95422 0.0
C3661 C 0.29475 0.2972 0.93175 0.0
C3662 C 0.30876 0.29029 0.95533 0.0
C3663 C 0.31563 0.29652 0.94472 0.0
H3664 H 0.61697 0.72114 0.22081 0.0
H3665 H 0.59347 0.69772 0.19258 0.0
H3666 H 0.57255 0.70682 0.20173 0.0
H3667 H 0.56104 0.72177 0.21759 0.0
H3668 H 0.58469 0.74523 0.24583 0.0
H3669 H 0.60541 0.7357 0.23704 0.0
C3670 C 0.60723 0.71792 0.21686 0.0
C3671 C 0.60663 0.70867 0.20622 0.0
C3672 C 0.5953 0.72322 0.22216 0.0
C3673 C 0.59405 0.70467 0.20094 0.0
C3674 C 0.58214 0.70993 0.20611 0.0
C3675 C 0.57074 0.72484 0.22176 0.0
C3676 C 0.5713 0.73418 0.23236 0.0
C3677 C 0.58264 0.71929 0.21666 0.0
C3678 C 0.58395 0.73794 0.23777 0.0
C3679 C 0.59582 0.73254 0.23272 0.0
H3680 H 0.32612 0.60385 0.22387 0.0
H3681 H 0.29174 0.61694 0.2005 0.0
H3682 H 0.27888 0.59714 0.20796 0.0
H3683 H 0.27701 0.57667 0.22216 0.0
H3684 H 0.31096 0.56491 0.24674 0.0
H3685 H 0.32423 0.5839 0.2381 0.0
C3686 C 0.31575 0.60255 0.22052 0.0
C3687 C 0.30992 0.61203 0.21172 0.0
C3688 C 0.30827 0.59142 0.22519 0.0
C3689 C 0.29659 0.6098 0.20717 0.0
C3690 C 0.28917 0.59853 0.21153 0.0
C3691 C 0.28734 0.57827 0.22553 0.0
C3692 C 0.29301 0.56948 0.2351 0.0
C3693 C 0.29486 0.58935 0.22066 0.0
C3694 C 0.30636 0.57166 0.23949 0.0
C3695 C 0.31396 0.58246 0.23451 0.0
H3696 H 0.42787 0.32236 0.20092 0.0
H3697 H 0.39713 0.3014 0.22353 0.0
H3698 H 0.41448 0.28969 0.23668 0.0
H3699 H 0.43851 0.28524 0.24149 0.0
H3700 H 0.4692 0.30667 0.21908 0.0
H3701 H 0.45187 0.31845 0.2062 0.0
C3702 C 0.42505 0.31537 0.20887 0.0
C3703 C 0.41134 0.31282 0.21144 0.0
C3704 C 0.43507 0.30874 0.21637 0.0
C3705 C 0.40768 0.30362 0.2216 0.0
C3706 C 0.41758 0.29688 0.22902 0.0
C3707 C 0.44136 0.29245 0.23374 0.0
C3708 C 0.4551 0.29509 0.23125 0.0
C3709 C 0.43132 0.2993 0.22645 0.0
C3710 C 0.45868 0.30456 0.22128 0.0
C3711 C 0.44878 0.31127 0.21388 0.0
H3712 H 0.70024 0.42413 0.20582 0.0
H3713 H 0.72739 0.3954 0.22347 0.0
H3714 H 0.74011 0.41366 0.2345 0.0
H3715 H 0.74282 0.43779 0.23985 0.0
H3716 H 0.716 0.46645 0.22132 0.0
H3717 H 0.70385 0.44827 0.20992 0.0
C3718 C 0.70904 0.42193 0.21197 0.0
C3719 C 0.71294 0.40852 0.21383 0.0
C3720 C 0.71629 0.43245 0.21818 0.0
C3721 C 0.72433 0.4057 0.2218 0.0
C3722 C 0.73153 0.41612 0.22815 0.0
C3723 C 0.73443 0.44005 0.23318 0.0
C3724 C 0.73023 0.45345 0.23159 0.0
C3725 C 0.72754 0.42953 0.22651 0.0
C3726 C 0.71927 0.45621 0.22297 0.0
C3727 C 0.71235 0.44583 0.21637 0.0
H3728 H 0.6034 0.30003 0.82723 0.0
H3729 H 0.61533 0.32825 0.79617 0.0
H3730 H 0.5964 0.32066 0.78207 0.0
H3731 H 0.57722 0.30494 0.77806 0.0
H3732 H 0.56643 0.27609 0.80896 0.0
H3733 H 0.58452 0.28466 0.8234 0.0
C3734 C 0.60203 0.30443 0.81731 0.0
C3735 C 0.61095 0.31458 0.81274 0.0
C3736 C 0.59143 0.29976 0.80913 0.0
C3737 C 0.60863 0.32047 0.80002 0.0
C3738 C 0.59786 0.31605 0.79189 0.0
C3739 C 0.57881 0.30062 0.788 0.0
C3740 C 0.5706 0.28981 0.79238 0.0
C3741 C 0.5893 0.30556 0.79627 0.0
C3742 C 0.57278 0.28425 0.80525 0.0
C3743 C 0.58305 0.2892 0.81355 0.0
H3744 H 0.7268 0.61423 0.80998 0.0
H3745 H 0.68845 0.5948 0.81798 0.0
H3746 H 0.69644 0.5741 0.80764 0.0
H3747 H 0.71476 0.56121 0.79701 0.0
H3748 H 0.75297 0.58081 0.78926 0.0
H3749 H 0.74478 0.60166 0.79921 0.0
C3750 C 0.72019 0.60546 0.80956 0.0
C3751 C 0.70706 0.60609 0.81486 0.0
C3752 C 0.7249 0.59357 0.80379 0.0
C3753 C 0.69855 0.59468 0.81389 0.0
C3754 C 0.70316 0.58279 0.80809 0.0
C3755 C 0.72121 0.5701 0.79755 0.0
C3756 C 0.73441 0.56962 0.79251 0.0
C3757 C 0.71636 0.58207 0.80313 0.0
C3758 C 0.74277 0.58109 0.79311 0.0
C3759 C 0.73809 0.59296 0.79876 0.0
H3760 H 0.4228 0.69928 0.81785 0.0
H3761 H 0.39498 0.73052 0.80679 0.0
H3762 H 0.41335 0.74345 0.79631 0.0
H3763 H 0.4371 0.74517 0.78914 0.0
H3764 H 0.46489 0.71412 0.80122 0.0
H3765 H 0.44666 0.70167 0.81203 0.0
C3766 C 0.42076 0.70893 0.81316 0.0
C3767 C 0.40753 0.71389 0.81303 0.0
C3768 C 0.43133 0.71625 0.80712 0.0
C3769 C 0.40509 0.72652 0.80712 0.0
C3770 C 0.41557 0.73386 0.80103 0.0
C3771 C 0.43924 0.73579 0.7943 0.0
C3772 C 0.45239 0.73055 0.79411 0.0
C3773 C 0.42871 0.72875 0.80083 0.0
C3774 C 0.45485 0.71828 0.8008 0.0
C3775 C 0.44444 0.71117 0.80714 0.0
H3776 H 0.2993 0.41724 0.82306 0.0
H3777 H 0.32737 0.41234 0.79042 0.0
H3778 H 0.31802 0.4319 0.77891 0.0
H3779 H 0.30175 0.45022 0.77803 0.0
H3780 H 0.27355 0.45508 0.81055 0.0
H3781 H 0.28284 0.43544 0.82206 0.0
C3782 C 0.30327 0.42039 0.81337 0.0
C3783 C 0.31402 0.41341 0.80761 0.0
C3784 C 0.29779 0.43155 0.80677 0.0
C3785 C 0.31922 0.41769 0.79514 0.0
C3786 C 0.31383 0.42881 0.78852 0.0
C3787 C 0.29772 0.44703 0.78769 0.0
C3788 C 0.28702 0.45406 0.79346 0.0
C3789 C 0.30314 0.43582 0.79426 0.0
C3790 C 0.28172 0.44972 0.80586 0.0
C3791 C 0.28706 0.43856 0.81247 0.0
H3792 H 0.69297 0.60174 0.22229 0.0
H3793 H 0.72643 0.61467 0.19752 0.0
H3794 H 0.73968 0.5957 0.20576 0.0
H3795 H 0.74188 0.57563 0.22044 0.0
H3796 H 0.70905 0.56498 0.24712 0.0
H3797 H 0.6956 0.58295 0.23775 0.0
C3798 C 0.70324 0.60064 0.2188 0.0
C3799 C 0.70864 0.60981 0.20934 0.0
C3800 C 0.71097 0.59004 0.22393 0.0
C3801 C 0.72186 0.60776 0.20467 0.0
C3802 C 0.72952 0.59696 0.20949 0.0
C3803 C 0.73187 0.57732 0.22436 0.0
C3804 C 0.7265 0.56866 0.23436 0.0
C3805 C 0.72421 0.58808 0.21922 0.0
C3806 C 0.7134 0.57108 0.23915 0.0
C3807 C 0.70568 0.58149 0.23388 0.0
H3808 H 0.71154 0.40584 0.79648 0.0
H3809 H 0.71014 0.42233 0.83655 0.0
H3810 H 0.72197 0.4427 0.82871 0.0
H3811 H 0.73117 0.45633 0.81007 0.0
H3812 H 0.73394 0.43872 0.7704 0.0
H3813 H 0.72246 0.41857 0.77842 0.0
C3814 C 0.71382 0.4139 0.80351 0.0
C3815 C 0.70982 0.41267 0.81702 0.0
C3816 C 0.72057 0.42551 0.79895 0.0
C3817 C 0.71312 0.42304 0.82609 0.0
C3818 C 0.71979 0.43472 0.82158 0.0
C3819 C 0.72957 0.44803 0.80318 0.0
C3820 C 0.7333 0.44932 0.78952 0.0
C3821 C 0.72339 0.43614 0.80797 0.0
C3822 C 0.73084 0.43837 0.78083 0.0
C3823 C 0.72441 0.4267 0.78544 0.0
H3824 H 0.5949 0.70224 0.82489 0.0
H3825 H 0.62399 0.71788 0.79659 0.0
H3826 H 0.60655 0.73129 0.78557 0.0
H3827 H 0.58275 0.73766 0.78319 0.0
H3828 H 0.55328 0.72107 0.81058 0.0
H3829 H 0.57099 0.70896 0.82271 0.0
C3830 C 0.5974 0.70877 0.81646 0.0
C3831 C 0.6107 0.70921 0.81161 0.0
C3832 C 0.58721 0.71618 0.80992 0.0
C3833 C 0.61382 0.71749 0.80051 0.0
C3834 C 0.60384 0.7251 0.79419 0.0
C3835 C 0.58027 0.7315 0.7919 0.0
C3836 C 0.56677 0.73025 0.79599 0.0
C3837 C 0.59047 0.7244 0.79868 0.0
C3838 C 0.56362 0.72209 0.80719 0.0
C3839 C 0.57374 0.71521 0.81415 0.0
H3840 H 0.31545 0.59822 0.8246 0.0
H3841 H 0.29999 0.62774 0.79672 0.0
H3842 H 0.28931 0.60988 0.78334 0.0
H3843 H 0.28383 0.58582 0.77992 0.0
H3844 H 0.29992 0.55637 0.80749 0.0
H3845 H 0.31078 0.57421 0.82072 0.0
C3846 C 0.30977 0.60072 0.81557 0.0
C3847 C 0.30848 0.61426 0.81167 0.0
C3848 C 0.30369 0.59042 0.80794 0.0
C3849 C 0.30123 0.61737 0.79986 0.0
C3850 C 0.29503 0.60718 0.79227 0.0
C3851 C 0.2897 0.58338 0.78885 0.0
C3852 C 0.29107 0.56987 0.7928 0.0
C3853 C 0.2961 0.59368 0.79627 0.0
C3854 C 0.29881 0.56673 0.80427 0.0
C3855 C 0.30499 0.57691 0.81183 0.0
H3856 H 0.41281 0.31752 0.7937 0.0
H3857 H 0.42054 0.29987 0.83282 0.0
H3858 H 0.44056 0.28898 0.82408 0.0
H3859 H 0.45607 0.28473 0.80538 0.0
H3860 H 0.44907 0.3036 0.76678 0.0
H3861 H 0.42873 0.31413 0.7754 0.0
C3862 C 0.41896 0.31146 0.8004 0.0
C3863 C 0.41512 0.30949 0.81389 0.0
C3864 C 0.43063 0.30552 0.79542 0.0
C3865 C 0.4231 0.30136 0.82232 0.0
C3866 C 0.43462 0.29522 0.81737 0.0
C3867 C 0.45002 0.29111 0.79888 0.0
C3868 C 0.45394 0.29339 0.78549 0.0
C3869 C 0.43846 0.29722 0.80394 0.0
C3870 C 0.44622 0.3018 0.77716 0.0
C3871 C 0.43459 0.30776 0.78206 0.0
H3872 H 0.31131 0.40695 0.229 0.0
H3873 H 0.31532 0.42484 0.18951 0.0
H3874 H 0.3043 0.44522 0.19744 0.0
H3875 H 0.29486 0.45841 0.216 0.0
H3876 H 0.28993 0.43969 0.25514 0.0
H3877 H 0.30069 0.41953 0.24706 0.0
C3878 C 0.30985 0.41532 0.22211 0.0
C3879 C 0.3143 0.41438 0.20871 0.0
C3880 C 0.30363 0.42701 0.22676 0.0
C3881 C 0.31197 0.42523 0.19986 0.0
C3882 C 0.30577 0.43694 0.20443 0.0
C3883 C 0.29587 0.44988 0.22275 0.0
C3884 C 0.29167 0.45083 0.23629 0.0
C3885 C 0.30171 0.438 0.21792 0.0
C3886 C 0.29337 0.43959 0.24481 0.0
C3887 C 0.29939 0.4279 0.24015 0.0
H3888 H 0.59865 0.32168 0.20615 0.0
H3889 H 0.62692 0.29341 0.22267 0.0
H3890 H 0.60881 0.28232 0.23548 0.0
H3891 H 0.58483 0.28048 0.24164 0.0
H3892 H 0.55645 0.30851 0.22458 0.0
H3893 H 0.57464 0.31998 0.21251 0.0
C3894 C 0.6008 0.31321 0.21272 0.0
C3895 C 0.61403 0.30842 0.21368 0.0
C3896 C 0.59032 0.30684 0.21993 0.0
C3897 C 0.61678 0.29732 0.222 0.0
C3898 C 0.60644 0.29096 0.22924 0.0
C3899 C 0.58261 0.28904 0.23522 0.0
C3900 C 0.56928 0.29364 0.2341 0.0
C3901 C 0.59314 0.29557 0.22821 0.0
C3902 C 0.56663 0.30486 0.22583 0.0
C3903 C 0.57703 0.3114 0.21885 0.0
H3904 H 0.4032 0.71945 0.22608 0.0
H3905 H 0.42391 0.70596 0.19064 0.0
H3906 H 0.44534 0.71447 0.19967 0.0
H3907 H 0.45804 0.7263 0.21721 0.0
H3908 H 0.43726 0.74134 0.25204 0.0
H3909 H 0.41612 0.7314 0.24386 0.0
C3910 C 0.41247 0.71822 0.22048 0.0
C3911 C 0.41205 0.71209 0.20776 0.0
C3912 C 0.42473 0.72341 0.22561 0.0
C3913 C 0.42404 0.71068 0.20046 0.0
C3914 C 0.43627 0.71556 0.2056 0.0
C3915 C 0.44888 0.72756 0.22296 0.0
C3916 C 0.44929 0.73459 0.23521 0.0
C3917 C 0.4367 0.7221 0.21806 0.0
C3918 C 0.43732 0.73582 0.24266 0.0
C3919 C 0.42518 0.73021 0.23795 0.0
loop_
_geom_bond_atom_site_label_1
_geom_bond_atom_site_label_2
_geom_bond_distance
_geom_bond_site_symmetry_2
_ccdc_geom_bond_type
C0 C1 1.264 . S
C0 C5 1.479 . S
C0 C10 1.465 . S
C1 C0 1.264 . S
C1 C3 1.339 . S
C1 H28 0.931 . S
C2 C3 1.395 . S
C2 C4 1.320 . S
C3 C1 1.339 . S
C3 C2 1.395 . S
C3 H29 0.929 . S
C4 C2 1.320 . S
C4 C5 1.405 . S
C4 H30 0.930 . S
C5 C0 1.479 . S
C5 C4 1.405 . S
C5 H31 0.931 . S
U6 O7 2.454 . S
U6 O8 2.458 . S
U6 C9 2.984 . S
U6 C10 2.847 . S
U6 C23 2.882 . S
U6 O24 2.441 . S
U6 O25 2.420 . S
U6 O26 2.455 . S
U6 O27 2.449 . S
O7 U6 2.454 . S
O7 C9 1.353 . S
O8 U6 2.458 . S
O8 C9 1.286 . S
C9 U6 2.984 . S
C9 O7 1.353 . S
C9 O8 1.286 . S
C9 C11 1.363 . S
C10 C0 1.465 . S
C10 U6 2.847 . S
C10 O24 1.249 . S
C10 O25 1.202 . S
C11 C9 1.363 . S
C11 C13 1.408 . S
C11 C16 1.342 . S
C12 C13 1.310 . S
C12 C15 1.461 . S
C12 H32 0.932 . S
C13 C11 1.408 . S
C13 C12 1.310 . S
C13 H33 0.930 . S
C14 C15 1.474 . S
C14 C16 1.285 . S
C14 H34 0.929 . S
C15 C12 1.461 . S
C15 C14 1.474 . S
C16 C11 1.342 . S
C16 C14 1.285 . S
C16 H35 0.930 . S
C17 C20 1.424 . S
C17 C22 1.245 . S
C17 C23 1.428 . S
C18 C21 1.260 . S
C18 C22 1.477 . S
C18 H36 0.932 . S
C19 C20 1.384 . S
C19 C21 1.479 . S
C19 H37 0.929 . S
C20 C17 1.424 . S
C20 C19 1.384 . S
C20 H38 0.928 . S
C21 C18 1.260 . S
C21 C19 1.479 . S
C22 C17 1.245 . S
C22 C18 1.477 . S
C22 H39 0.932 . S
C23 U6 2.882 . S
C23 C17 1.428 . S
C23 O26 1.301 . S
C23 O27 1.282 . S
O24 U6 2.441 . S
O24 C10 1.249 . S
O25 U6 2.420 . S
O25 C10 1.202 . S
O26 U6 2.455 . S
O26 C23 1.301 . S
O27 U6 2.449 . S
O27 C23 1.282 . S
H28 C1 0.931 . S
H29 C3 0.929 . S
H30 C4 0.930 . S
H31 C5 0.931 . S
H32 C12 0.932 . S
H33 C13 0.930 . S
H34 C14 0.929 . S
H35 C16 0.930 . S
H36 C18 0.932 . S
H37 C19 0.929 . S
H38 C20 0.928 . S
H39 C22 0.932 . S
C40 C41 1.264 . S
C40 C45 1.479 . S
C40 C50 1.465 . S
C41 C40 1.264 . S
C41 C43 1.339 . S
C41 H68 0.931 . S
C42 C43 1.395 . S
C42 C44 1.320 . S
C43 C41 1.339 . S
C43 C42 1.395 . S
C43 H69 0.929 . S
C44 C42 1.320 . S
C44 C45 1.405 . S
C44 H70 0.930 . S
C45 C40 1.479 . S
C45 C44 1.405 . S
C45 H71 0.931 . S
U46 O47 2.454 . S
U46 O48 2.458 . S
U46 C49 2.984 . S
U46 C50 2.847 . S
U46 C63 2.882 . S
U46 O64 2.441 . S
U46 O65 2.420 . S
U46 O66 2.455 . S
U46 O67 2.449 . S
O47 U46 2.454 . S
O47 C49 1.353 . S
O48 U46 2.458 . S
O48 C49 1.286 . S
C49 U46 2.984 . S
C49 O47 1.353 . S
C49 O48 1.286 . S
C49 C51 1.363 . S
C50 C40 1.465 . S
C50 U46 2.847 . S
C50 O64 1.249 . S
C50 O65 1.202 . S
C51 C49 1.363 . S
C51 C53 1.408 . S
C51 C56 1.342 . S
C52 C53 1.310 . S
C52 C55 1.461 . S
C52 H72 0.932 . S
C53 C51 1.408 . S
C53 C52 1.310 . S
C53 H73 0.930 . S
C54 C55 1.474 . S
C54 C56 1.285 . S
C54 H74 0.929 . S
C55 C52 1.461 . S
C55 C54 1.474 . S
C56 C51 1.342 . S
C56 C54 1.285 . S
C56 H75 0.930 . S
C57 C60 1.424 . S
C57 C62 1.245 . S
C57 C63 1.428 . S
C58 C61 1.260 . S
C58 C62 1.477 . S
C58 H76 0.932 . S
C59 C60 1.384 . S
C59 C61 1.479 . S
C59 H77 0.929 . S
C60 C57 1.424 . S
C60 C59 1.384 . S
C60 H78 0.928 . S
C61 C58 1.260 . S
C61 C59 1.479 . S
C62 C57 1.245 . S
C62 C58 1.477 . S
C62 H79 0.932 . S
C63 U46 2.882 . S
C63 C57 1.428 . S
C63 O66 1.301 . S
C63 O67 1.282 . S
O64 U46 2.441 . S
O64 C50 1.249 . S
O65 U46 2.420 . S
O65 C50 1.202 . S
O66 U46 2.455 . S
O66 C63 1.301 . S
O67 U46 2.449 . S
O67 C63 1.282 . S
H68 C41 0.931 . S
H69 C43 0.929 . S
H70 C44 0.930 . S
H71 C45 0.931 . S
H72 C52 0.932 . S
H73 C53 0.930 . S
H74 C54 0.929 . S
H75 C56 0.930 . S
H76 C58 0.932 . S
H77 C59 0.929 . S
H78 C60 0.928 . S
H79 C62 0.932 . S
C80 C81 1.264 . S
C80 C85 1.479 . S
C80 C90 1.465 . S
C81 C80 1.264 . S
C81 C83 1.339 . S
C81 H108 0.931 . S
C82 C83 1.395 . S
C82 C84 1.320 . S
C83 C81 1.339 . S
C83 C82 1.395 . S
C83 H109 0.929 . S
C84 C82 1.320 . S
C84 C85 1.405 . S
C84 H110 0.930 . S
C85 C80 1.479 . S
C85 C84 1.405 . S
C85 H111 0.931 . S
U86 O87 2.454 . S
U86 O88 2.458 . S
U86 C89 2.984 . S
U86 C90 2.847 . S
U86 C103 2.882 . S
U86 O104 2.441 . S
U86 O105 2.420 . S
U86 O106 2.455 . S
U86 O107 2.449 . S
O87 U86 2.454 . S
O87 C89 1.353 . S
O88 U86 2.458 . S
O88 C89 1.286 . S
C89 U86 2.984 . S
C89 O87 1.353 . S
C89 O88 1.286 . S
C89 C91 1.363 . S
C90 C80 1.465 . S
C90 U86 2.847 . S
C90 O104 1.249 . S
C90 O105 1.202 . S
C91 C89 1.363 . S
C91 C93 1.408 . S
C91 C96 1.342 . S
C92 C93 1.310 . S
C92 C95 1.461 . S
C92 H112 0.932 . S
C93 C91 1.408 . S
C93 C92 1.310 . S
C93 H113 0.930 . S
C94 C95 1.474 . S
C94 C96 1.285 . S
C94 H114 0.929 . S
C95 C92 1.461 . S
C95 C94 1.474 . S
C96 C91 1.342 . S
C96 C94 1.285 . S
C96 H115 0.930 . S
C97 C100 1.424 . S
C97 C102 1.245 . S
C97 C103 1.428 . S
C98 C101 1.260 . S
C98 C102 1.477 . S
C98 H116 0.932 . S
C99 C100 1.384 . S
C99 C101 1.479 . S
C99 H117 0.929 . S
C100 C97 1.424 . S
C100 C99 1.384 . S
C100 H118 0.928 . S
C101 C98 1.260 . S
C101 C99 1.479 . S
C102 C97 1.245 . S
C102 C98 1.477 . S
C102 H119 0.932 . S
C103 U86 2.882 . S
C103 C97 1.428 . S
C103 O106 1.301 . S
C103 O107 1.282 . S
O104 U86 2.441 . S
O104 C90 1.249 . S
O105 U86 2.420 . S
O105 C90 1.202 . S
O106 U86 2.455 . S
O106 C103 1.301 . S
O107 U86 2.449 . S
O107 C103 1.282 . S
H108 C81 0.931 . S
H109 C83 0.929 . S
H110 C84 0.930 . S
H111 C85 0.931 . S
H112 C92 0.932 . S
H113 C93 0.930 . S
H114 C94 0.929 . S
H115 C96 0.930 . S
H116 C98 0.932 . S
H117 C99 0.929 . S
H118 C100 0.928 . S
H119 C102 0.932 . S
C120 C121 1.264 . S
C120 C125 1.479 . S
C120 C130 1.465 . S
C121 C120 1.264 . S
C121 C123 1.339 . S
C121 H148 0.931 . S
C122 C123 1.395 . S
C122 C124 1.320 . S
C123 C121 1.339 . S
C123 C122 1.395 . S
C123 H149 0.929 . S
C124 C122 1.320 . S
C124 C125 1.405 . S
C124 H150 0.930 . S
C125 C120 1.479 . S
C125 C124 1.405 . S
C125 H151 0.931 . S
U126 O127 2.454 . S
U126 O128 2.458 . S
U126 C129 2.984 . S
U126 C130 2.847 . S
U126 C143 2.882 . S
U126 O144 2.441 . S
U126 O145 2.420 . S
U126 O146 2.455 . S
U126 O147 2.449 . S
O127 U126 2.454 . S
O127 C129 1.353 . S
O128 U126 2.458 . S
O128 C129 1.286 . S
C129 U126 2.984 . S
C129 O127 1.353 . S
C129 O128 1.286 . S
C129 C131 1.363 . S
C130 C120 1.465 . S
C130 U126 2.847 . S
C130 O144 1.249 . S
C130 O145 1.202 . S
C131 C129 1.363 . S
C131 C133 1.408 . S
C131 C136 1.342 . S
C132 C133 1.310 . S
C132 C135 1.461 . S
C132 H152 0.932 . S
C133 C131 1.408 . S
C133 C132 1.310 . S
C133 H153 0.930 . S
C134 C135 1.474 . S
C134 C136 1.285 . S
C134 H154 0.929 . S
C135 C132 1.461 . S
C135 C134 1.474 . S
C136 C131 1.342 . S
C136 C134 1.285 . S
C136 H155 0.930 . S
C137 C140 1.424 . S
C137 C142 1.245 . S
C137 C143 1.428 . S
C138 C141 1.260 . S
C138 C142 1.477 . S
C138 H156 0.932 . S
C139 C140 1.384 . S
C139 C141 1.479 . S
C139 H157 0.929 . S
C140 C137 1.424 . S
C140 C139 1.384 . S
C140 H158 0.928 . S
C141 C138 1.260 . S
C141 C139 1.479 . S
C142 C137 1.245 . S
C142 C138 1.477 . S
C142 H159 0.932 . S
C143 U126 2.882 . S
C143 C137 1.428 . S
C143 O146 1.301 . S
C143 O147 1.282 . S
O144 U126 2.441 . S
O144 C130 1.249 . S
O145 U126 2.420 . S
O145 C130 1.202 . S
O146 U126 2.455 . S
O146 C143 1.301 . S
O147 U126 2.449 . S
O147 C143 1.282 . S
H148 C121 0.931 . S
H149 C123 0.929 . S
H150 C124 0.930 . S
H151 C125 0.931 . S
H152 C132 0.932 . S
H153 C133 0.930 . S
H154 C134 0.929 . S
H155 C136 0.930 . S
H156 C138 0.932 . S
H157 C139 0.929 . S
H158 C140 0.928 . S
H159 C142 0.932 . S
C160 C161 1.264 . S
C160 C165 1.479 . S
C160 C170 1.465 . S
C161 C160 1.264 . S
C161 C163 1.339 . S
C161 H188 0.931 . S
C162 C163 1.395 . S
C162 C164 1.320 . S
C163 C161 1.339 . S
C163 C162 1.395 . S
C163 H189 0.929 . S
C164 C162 1.320 . S
C164 C165 1.405 . S
C164 H190 0.930 . S
C165 C160 1.479 . S
C165 C164 1.405 . S
C165 H191 0.931 . S
U166 O167 2.454 . S
U166 O168 2.458 . S
U166 C169 2.984 . S
U166 C170 2.847 . S
U166 C183 2.882 . S
U166 O184 2.441 . S
U166 O185 2.420 . S
U166 O186 2.455 . S
U166 O187 2.449 . S
O167 U166 2.454 . S
O167 C169 1.353 . S
O168 U166 2.458 . S
O168 C169 1.286 . S
C169 U166 2.984 . S
C169 O167 1.353 . S
C169 O168 1.286 . S
C169 C171 1.363 . S
C170 C160 1.465 . S
C170 U166 2.847 . S
C170 O184 1.249 . S
C170 O185 1.202 . S
C171 C169 1.363 . S
C171 C173 1.408 . S
C171 C176 1.342 . S
C172 C173 1.310 . S
C172 C175 1.461 . S
C172 H192 0.932 . S
C173 C171 1.408 . S
C173 C172 1.310 . S
C173 H193 0.930 . S
C174 C175 1.474 . S
C174 C176 1.285 . S
C174 H194 0.929 . S
C175 C172 1.461 . S
C175 C174 1.474 . S
C176 C171 1.342 . S
C176 C174 1.285 . S
C176 H195 0.930 . S
C177 C180 1.424 . S
C177 C182 1.245 . S
C177 C183 1.428 . S
C178 C181 1.260 . S
C178 C182 1.477 . S
C178 H196 0.932 . S
C179 C180 1.384 . S
C179 C181 1.479 . S
C179 H197 0.929 . S
C180 C177 1.424 . S
C180 C179 1.384 . S
C180 H198 0.928 . S
C181 C178 1.260 . S
C181 C179 1.479 . S
C182 C177 1.245 . S
C182 C178 1.477 . S
C182 H199 0.932 . S
C183 U166 2.882 . S
C183 C177 1.428 . S
C183 O186 1.301 . S
C183 O187 1.282 . S
O184 U166 2.441 . S
O184 C170 1.249 . S
O185 U166 2.420 . S
O185 C170 1.202 . S
O186 U166 2.455 . S
O186 C183 1.301 . S
O187 U166 2.449 . S
O187 C183 1.282 . S
H188 C161 0.931 . S
H189 C163 0.929 . S
H190 C164 0.930 . S
H191 C165 0.931 . S
H192 C172 0.932 . S
H193 C173 0.930 . S
H194 C174 0.929 . S
H195 C176 0.930 . S
H196 C178 0.932 . S
H197 C179 0.929 . S
H198 C180 0.928 . S
H199 C182 0.932 . S
C200 C201 1.264 . S
C200 C205 1.479 . S
C200 C210 1.465 . S
C201 C200 1.264 . S
C201 C203 1.339 . S
C201 H228 0.931 . S
C202 C203 1.395 . S
C202 C204 1.320 . S
C203 C201 1.339 . S
C203 C202 1.395 . S
C203 H229 0.929 . S
C204 C202 1.320 . S
C204 C205 1.405 . S
C204 H230 0.930 . S
C205 C200 1.479 . S
C205 C204 1.405 . S
C205 H231 0.931 . S
U206 O207 2.454 . S
U206 O208 2.458 . S
U206 C209 2.984 . S
U206 C210 2.847 . S
U206 C223 2.882 . S
U206 O224 2.441 . S
U206 O225 2.420 . S
U206 O226 2.455 . S
U206 O227 2.449 . S
O207 U206 2.454 . S
O207 C209 1.353 . S
O208 U206 2.458 . S
O208 C209 1.286 . S
C209 U206 2.984 . S
C209 O207 1.353 . S
C209 O208 1.286 . S
C209 C211 1.363 . S
C210 C200 1.465 . S
C210 U206 2.847 . S
C210 O224 1.249 . S
C210 O225 1.202 . S
C211 C209 1.363 . S
C211 C213 1.408 . S
C211 C216 1.342 . S
C212 C213 1.310 . S
C212 C215 1.461 . S
C212 H232 0.932 . S
C213 C211 1.408 . S
C213 C212 1.310 . S
C213 H233 0.930 . S
C214 C215 1.474 . S
C214 C216 1.285 . S
C214 H234 0.929 . S
C215 C212 1.461 . S
C215 C214 1.474 . S
C216 C211 1.342 . S
C216 C214 1.285 . S
C216 H235 0.930 . S
C217 C220 1.424 . S
C217 C222 1.245 . S
C217 C223 1.428 . S
C218 C221 1.260 . S
C218 C222 1.477 . S
C218 H236 0.932 . S
C219 C220 1.384 . S
C219 C221 1.479 . S
C219 H237 0.929 . S
C220 C217 1.424 . S
C220 C219 1.384 . S
C220 H238 0.928 . S
C221 C218 1.260 . S
C221 C219 1.479 . S
C222 C217 1.245 . S
C222 C218 1.477 . S
C222 H239 0.932 . S
C223 U206 2.882 . S
C223 C217 1.428 . S
C223 O226 1.301 . S
C223 O227 1.282 . S
O224 U206 2.441 . S
O224 C210 1.249 . S
O225 U206 2.420 . S
O225 C210 1.202 . S
O226 U206 2.455 . S
O226 C223 1.301 . S
O227 U206 2.449 . S
O227 C223 1.282 . S
H228 C201 0.931 . S
H229 C203 0.929 . S
H230 C204 0.930 . S
H231 C205 0.931 . S
H232 C212 0.932 . S
H233 C213 0.930 . S
H234 C214 0.929 . S
H235 C216 0.930 . S
H236 C218 0.932 . S
H237 C219 0.929 . S
H238 C220 0.928 . S
H239 C222 0.932 . S
C240 C241 1.264 . S
C240 C245 1.479 . S
C240 C250 1.465 . S
C241 C240 1.264 . S
C241 C243 1.339 . S
C241 H268 0.931 . S
C242 C243 1.395 . S
C242 C244 1.320 . S
C243 C241 1.339 . S
C243 C242 1.395 . S
C243 H269 0.929 . S
C244 C242 1.320 . S
C244 C245 1.405 . S
C244 H270 0.930 . S
C245 C240 1.479 . S
C245 C244 1.405 . S
C245 H271 0.931 . S
U246 O247 2.454 . S
U246 O248 2.458 . S
U246 C249 2.984 . S
U246 C250 2.847 . S
U246 C263 2.882 . S
U246 O264 2.441 . S
U246 O265 2.420 . S
U246 O266 2.455 . S
U246 O267 2.449 . S
O247 U246 2.454 . S
O247 C249 1.353 . S
O248 U246 2.458 . S
O248 C249 1.286 . S
C249 U246 2.984 . S
C249 O247 1.353 . S
C249 O248 1.286 . S
C249 C251 1.363 . S
C250 C240 1.465 . S
C250 U246 2.847 . S
C250 O264 1.249 . S
C250 O265 1.202 . S
C251 C249 1.363 . S
C251 C253 1.408 . S
C251 C256 1.342 . S
C252 C253 1.310 . S
C252 C255 1.461 . S
C252 H272 0.932 . S
C253 C251 1.408 . S
C253 C252 1.310 . S
C253 H273 0.930 . S
C254 C255 1.474 . S
C254 C256 1.285 . S
C254 H274 0.929 . S
C255 C252 1.461 . S
C255 C254 1.474 . S
C256 C251 1.342 . S
C256 C254 1.285 . S
C256 H275 0.930 . S
C257 C260 1.424 . S
C257 C262 1.245 . S
C257 C263 1.428 . S
C258 C261 1.260 . S
C258 C262 1.477 . S
C258 H276 0.932 . S
C259 C260 1.384 . S
C259 C261 1.479 . S
C259 H277 0.929 . S
C260 C257 1.424 . S
C260 C259 1.384 . S
C260 H278 0.928 . S
C261 C258 1.260 . S
C261 C259 1.479 . S
C262 C257 1.245 . S
C262 C258 1.477 . S
C262 H279 0.932 . S
C263 U246 2.882 . S
C263 C257 1.428 . S
C263 O266 1.301 . S
C263 O267 1.282 . S
O264 U246 2.441 . S
O264 C250 1.249 . S
O265 U246 2.420 . S
O265 C250 1.202 . S
O266 U246 2.455 . S
O266 C263 1.301 . S
O267 U246 2.449 . S
O267 C263 1.282 . S
H268 C241 0.931 . S
H269 C243 0.929 . S
H270 C244 0.930 . S
H271 C245 0.931 . S
H272 C252 0.932 . S
H273 C253 0.930 . S
H274 C254 0.929 . S
H275 C256 0.930 . S
H276 C258 0.932 . S
H277 C259 0.929 . S
H278 C260 0.928 . S
H279 C262 0.932 . S
C280 C281 1.264 . S
C280 C285 1.479 . S
C280 C290 1.465 . S
C281 C280 1.264 . S
C281 C283 1.339 . S
C281 H308 0.931 . S
C282 C283 1.395 . S
C282 C284 1.320 . S
C283 C281 1.339 . S
C283 C282 1.395 . S
C283 H309 0.929 . S
C284 C282 1.320 . S
C284 C285 1.405 . S
C284 H310 0.930 . S
C285 C280 1.479 . S
C285 C284 1.405 . S
C285 H311 0.931 . S
U286 O287 2.454 . S
U286 O288 2.458 . S
U286 C289 2.984 . S
U286 C290 2.847 . S
U286 C303 2.882 . S
U286 O304 2.441 . S
U286 O305 2.420 . S
U286 O306 2.455 . S
U286 O307 2.449 . S
O287 U286 2.454 . S
O287 C289 1.353 . S
O288 U286 2.458 . S
O288 C289 1.286 . S
C289 U286 2.984 . S
C289 O287 1.353 . S
C289 O288 1.286 . S
C289 C291 1.363 . S
C290 C280 1.465 . S
C290 U286 2.847 . S
C290 O304 1.249 . S
C290 O305 1.202 . S
C291 C289 1.363 . S
C291 C293 1.408 . S
C291 C296 1.342 . S
C292 C293 1.310 . S
C292 C295 1.461 . S
C292 H312 0.932 . S
C293 C291 1.408 . S
C293 C292 1.310 . S
C293 H313 0.930 . S
C294 C295 1.474 . S
C294 C296 1.285 . S
C294 H314 0.929 . S
C295 C292 1.461 . S
C295 C294 1.474 . S
C296 C291 1.342 . S
C296 C294 1.285 . S
C296 H315 0.930 . S
C297 C300 1.424 . S
C297 C302 1.245 . S
C297 C303 1.428 . S
C298 C301 1.260 . S
C298 C302 1.477 . S
C298 H316 0.932 . S
C299 C300 1.384 . S
C299 C301 1.479 . S
C299 H317 0.929 . S
C300 C297 1.424 . S
C300 C299 1.384 . S
C300 H318 0.928 . S
C301 C298 1.260 . S
C301 C299 1.479 . S
C302 C297 1.245 . S
C302 C298 1.477 . S
C302 H319 0.932 . S
C303 U286 2.882 . S
C303 C297 1.428 . S
C303 O306 1.301 . S
C303 O307 1.282 . S
O304 U286 2.441 . S
O304 C290 1.249 . S
O305 U286 2.420 . S
O305 C290 1.202 . S
O306 U286 2.455 . S
O306 C303 1.301 . S
O307 U286 2.449 . S
O307 C303 1.282 . S
H308 C281 0.931 . S
H309 C283 0.929 . S
H310 C284 0.930 . S
H311 C285 0.931 . S
H312 C292 0.932 . S
H313 C293 0.930 . S
H314 C294 0.929 . S
H315 C296 0.930 . S
H316 C298 0.932 . S
H317 C299 0.929 . S
H318 C300 0.928 . S
H319 C302 0.932 . S
C320 C321 1.264 . S
C320 C325 1.479 . S
C320 C330 1.465 . S
C321 C320 1.264 . S
C321 C323 1.339 . S
C321 H348 0.931 . S
C322 C323 1.395 . S
C322 C324 1.320 . S
C323 C321 1.339 . S
C323 C322 1.395 . S
C323 H349 0.929 . S
C324 C322 1.320 . S
C324 C325 1.405 . S
C324 H350 0.930 . S
C325 C320 1.479 . S
C325 C324 1.405 . S
C325 H351 0.931 . S
U326 O327 2.454 . S
U326 O328 2.458 . S
U326 C329 2.984 . S
U326 C330 2.847 . S
U326 C343 2.882 . S
U326 O344 2.441 . S
U326 O345 2.420 . S
U326 O346 2.455 . S
U326 O347 2.449 . S
O327 U326 2.454 . S
O327 C329 1.353 . S
O328 U326 2.458 . S
O328 C329 1.286 . S
C329 U326 2.984 . S
C329 O327 1.353 . S
C329 O328 1.286 . S
C329 C331 1.363 . S
C330 C320 1.465 . S
C330 U326 2.847 . S
C330 O344 1.249 . S
C330 O345 1.202 . S
C331 C329 1.363 . S
C331 C333 1.408 . S
C331 C336 1.342 . S
C332 C333 1.310 . S
C332 C335 1.461 . S
C332 H352 0.932 . S
C333 C331 1.408 . S
C333 C332 1.310 . S
C333 H353 0.930 . S
C334 C335 1.474 . S
C334 C336 1.285 . S
C334 H354 0.929 . S
C335 C332 1.461 . S
C335 C334 1.474 . S
C336 C331 1.342 . S
C336 C334 1.285 . S
C336 H355 0.930 . S
C337 C340 1.424 . S
C337 C342 1.245 . S
C337 C343 1.428 . S
C338 C341 1.260 . S
C338 C342 1.477 . S
C338 H356 0.932 . S
C339 C340 1.384 . S
C339 C341 1.479 . S
C339 H357 0.929 . S
C340 C337 1.424 . S
C340 C339 1.384 . S
C340 H358 0.928 . S
C341 C338 1.260 . S
C341 C339 1.479 . S
C342 C337 1.245 . S
C342 C338 1.477 . S
C342 H359 0.932 . S
C343 U326 2.882 . S
C343 C337 1.428 . S
C343 O346 1.301 . S
C343 O347 1.282 . S
O344 U326 2.441 . S
O344 C330 1.249 . S
O345 U326 2.420 . S
O345 C330 1.202 . S
O346 U326 2.455 . S
O346 C343 1.301 . S
O347 U326 2.449 . S
O347 C343 1.282 . S
H348 C321 0.931 . S
H349 C323 0.929 . S
H350 C324 0.930 . S
H351 C325 0.931 . S
H352 C332 0.932 . S
H353 C333 0.930 . S
H354 C334 0.929 . S
H355 C336 0.930 . S
H356 C338 0.932 . S
H357 C339 0.929 . S
H358 C340 0.928 . S
H359 C342 0.932 . S
C360 C361 1.264 . S
C360 C365 1.479 . S
C360 C370 1.465 . S
C361 C360 1.264 . S
C361 C363 1.339 . S
C361 H388 0.931 . S
C362 C363 1.395 . S
C362 C364 1.320 . S
C363 C361 1.339 . S
C363 C362 1.395 . S
C363 H389 0.929 . S
C364 C362 1.320 . S
C364 C365 1.405 . S
C364 H390 0.930 . S
C365 C360 1.479 . S
C365 C364 1.405 . S
C365 H391 0.931 . S
U366 O367 2.454 . S
U366 O368 2.458 . S
U366 C369 2.984 . S
U366 C370 2.847 . S
U366 C383 2.882 . S
U366 O384 2.441 . S
U366 O385 2.420 . S
U366 O386 2.455 . S
U366 O387 2.449 . S
O367 U366 2.454 . S
O367 C369 1.353 . S
O368 U366 2.458 . S
O368 C369 1.286 . S
C369 U366 2.984 . S
C369 O367 1.353 . S
C369 O368 1.286 . S
C369 C371 1.363 . S
C370 C360 1.465 . S
C370 U366 2.847 . S
C370 O384 1.249 . S
C370 O385 1.202 . S
C371 C369 1.363 . S
C371 C373 1.408 . S
C371 C376 1.342 . S
C372 C373 1.310 . S
C372 C375 1.461 . S
C372 H392 0.932 . S
C373 C371 1.408 . S
C373 C372 1.310 . S
C373 H393 0.930 . S
C374 C375 1.474 . S
C374 C376 1.285 . S
C374 H394 0.929 . S
C375 C372 1.461 . S
C375 C374 1.474 . S
C376 C371 1.342 . S
C376 C374 1.285 . S
C376 H395 0.930 . S
C377 C380 1.424 . S
C377 C382 1.245 . S
C377 C383 1.428 . S
C378 C381 1.260 . S
C378 C382 1.477 . S
C378 H396 0.932 . S
C379 C380 1.384 . S
C379 C381 1.479 . S
C379 H397 0.929 . S
C380 C377 1.424 . S
C380 C379 1.384 . S
C380 H398 0.928 . S
C381 C378 1.260 . S
C381 C379 1.479 . S
C382 C377 1.245 . S
C382 C378 1.477 . S
C382 H399 0.932 . S
C383 U366 2.882 . S
C383 C377 1.428 . S
C383 O386 1.301 . S
C383 O387 1.282 . S
O384 U366 2.441 . S
O384 C370 1.249 . S
O385 U366 2.420 . S
O385 C370 1.202 . S
O386 U366 2.455 . S
O386 C383 1.301 . S
O387 U366 2.449 . S
O387 C383 1.282 . S
H388 C361 0.931 . S
H389 C363 0.929 . S
H390 C364 0.930 . S
H391 C365 0.931 . S
H392 C372 0.932 . S
H393 C373 0.930 . S
H394 C374 0.929 . S
H395 C376 0.930 . S
H396 C378 0.932 . S
H397 C379 0.929 . S
H398 C380 0.928 . S
H399 C382 0.932 . S
C400 C401 1.264 . S
C400 C405 1.479 . S
C400 C410 1.465 . S
C401 C400 1.264 . S
C401 C403 1.339 . S
C401 H428 0.931 . S
C402 C403 1.395 . S
C402 C404 1.320 . S
C403 C401 1.339 . S
C403 C402 1.395 . S
C403 H429 0.929 . S
C404 C402 1.320 . S
C404 C405 1.405 . S
C404 H430 0.930 . S
C405 C400 1.479 . S
C405 C404 1.405 . S
C405 H431 0.931 . S
U406 O407 2.454 . S
U406 O408 2.458 . S
U406 C409 2.984 . S
U406 C410 2.847 . S
U406 C423 2.882 . S
U406 O424 2.441 . S
U406 O425 2.420 . S
U406 O426 2.455 . S
U406 O427 2.449 . S
O407 U406 2.454 . S
O407 C409 1.353 . S
O408 U406 2.458 . S
O408 C409 1.286 . S
C409 U406 2.984 . S
C409 O407 1.353 . S
C409 O408 1.286 . S
C409 C411 1.363 . S
C410 C400 1.465 . S
C410 U406 2.847 . S
C410 O424 1.249 . S
C410 O425 1.202 . S
C411 C409 1.363 . S
C411 C413 1.408 . S
C411 C416 1.342 . S
C412 C413 1.310 . S
C412 C415 1.461 . S
C412 H432 0.932 . S
C413 C411 1.408 . S
C413 C412 1.310 . S
C413 H433 0.930 . S
C414 C415 1.474 . S
C414 C416 1.285 . S
C414 H434 0.929 . S
C415 C412 1.461 . S
C415 C414 1.474 . S
C416 C411 1.342 . S
C416 C414 1.285 . S
C416 H435 0.930 . S
C417 C420 1.424 . S
C417 C422 1.245 . S
C417 C423 1.428 . S
C418 C421 1.260 . S
C418 C422 1.477 . S
C418 H436 0.932 . S
C419 C420 1.384 . S
C419 C421 1.479 . S
C419 H437 0.929 . S
C420 C417 1.424 . S
C420 C419 1.384 . S
C420 H438 0.928 . S
C421 C418 1.260 . S
C421 C419 1.479 . S
C422 C417 1.245 . S
C422 C418 1.477 . S
C422 H439 0.932 . S
C423 U406 2.882 . S
C423 C417 1.428 . S
C423 O426 1.301 . S
C423 O427 1.282 . S
O424 U406 2.441 . S
O424 C410 1.249 . S
O425 U406 2.420 . S
O425 C410 1.202 . S
O426 U406 2.455 . S
O426 C423 1.301 . S
O427 U406 2.449 . S
O427 C423 1.282 . S
H428 C401 0.931 . S
H429 C403 0.929 . S
H430 C404 0.930 . S
H431 C405 0.931 . S
H432 C412 0.932 . S
H433 C413 0.930 . S
H434 C414 0.929 . S
H435 C416 0.930 . S
H436 C418 0.932 . S
H437 C419 0.929 . S
H438 C420 0.928 . S
H439 C422 0.932 . S
C440 C441 1.264 . S
C440 C445 1.479 . S
C440 C450 1.465 . S
C441 C440 1.264 . S
C441 C443 1.339 . S
C441 H468 0.931 . S
C442 C443 1.395 . S
C442 C444 1.320 . S
C443 C441 1.339 . S
C443 C442 1.395 . S
C443 H469 0.929 . S
C444 C442 1.320 . S
C444 C445 1.405 . S
C444 H470 0.930 . S
C445 C440 1.479 . S
C445 C444 1.405 . S
C445 H471 0.931 . S
U446 O447 2.454 . S
U446 O448 2.458 . S
U446 C449 2.984 . S
U446 C450 2.847 . S
U446 C463 2.882 . S
U446 O464 2.441 . S
U446 O465 2.420 . S
U446 O466 2.455 . S
U446 O467 2.449 . S
O447 U446 2.454 . S
O447 C449 1.353 . S
O448 U446 2.458 . S
O448 C449 1.286 . S
C449 U446 2.984 . S
C449 O447 1.353 . S
C449 O448 1.286 . S
C449 C451 1.363 . S
C450 C440 1.465 . S
C450 U446 2.847 . S
C450 O464 1.249 . S
C450 O465 1.202 . S
C451 C449 1.363 . S
C451 C453 1.408 . S
C451 C456 1.342 . S
C452 C453 1.310 . S
C452 C455 1.461 . S
C452 H472 0.932 . S
C453 C451 1.408 . S
C453 C452 1.310 . S
C453 H473 0.930 . S
C454 C455 1.474 . S
C454 C456 1.285 . S
C454 H474 0.929 . S
C455 C452 1.461 . S
C455 C454 1.474 . S
C456 C451 1.342 . S
C456 C454 1.285 . S
C456 H475 0.930 . S
C457 C460 1.424 . S
C457 C462 1.245 . S
C457 C463 1.428 . S
C458 C461 1.260 . S
C458 C462 1.477 . S
C458 H476 0.932 . S
C459 C460 1.384 . S
C459 C461 1.479 . S
C459 H477 0.929 . S
C460 C457 1.424 . S
C460 C459 1.384 . S
C460 H478 0.928 . S
C461 C458 1.260 . S
C461 C459 1.479 . S
C462 C457 1.245 . S
C462 C458 1.477 . S
C462 H479 0.932 . S
C463 U446 2.882 . S
C463 C457 1.428 . S
C463 O466 1.301 . S
C463 O467 1.282 . S
O464 U446 2.441 . S
O464 C450 1.249 . S
O465 U446 2.420 . S
O465 C450 1.202 . S
O466 U446 2.455 . S
O466 C463 1.301 . S
O467 U446 2.449 . S
O467 C463 1.282 . S
H468 C441 0.931 . S
H469 C443 0.929 . S
H470 C444 0.930 . S
H471 C445 0.931 . S
H472 C452 0.932 . S
H473 C453 0.930 . S
H474 C454 0.929 . S
H475 C456 0.930 . S
H476 C458 0.932 . S
H477 C459 0.929 . S
H478 C460 0.928 . S
H479 C462 0.932 . S
C480 C481 1.264 . S
C480 C485 1.479 . S
C480 C490 1.465 . S
C481 C480 1.264 . S
C481 C483 1.339 . S
C481 H508 0.931 . S
C482 C483 1.395 . S
C482 C484 1.320 . S
C483 C481 1.339 . S
C483 C482 1.395 . S
C483 H509 0.929 . S
C484 C482 1.320 . S
C484 C485 1.405 . S
C484 H510 0.930 . S
C485 C480 1.479 . S
C485 C484 1.405 . S
C485 H511 0.931 . S
U486 O487 2.454 . S
U486 O488 2.458 . S
U486 C489 2.984 . S
U486 C490 2.847 . S
U486 C503 2.882 . S
U486 O504 2.441 . S
U486 O505 2.420 . S
U486 O506 2.455 . S
U486 O507 2.449 . S
O487 U486 2.454 . S
O487 C489 1.353 . S
O488 U486 2.458 . S
O488 C489 1.286 . S
C489 U486 2.984 . S
C489 O487 1.353 . S
C489 O488 1.286 . S
C489 C491 1.363 . S
C490 C480 1.465 . S
C490 U486 2.847 . S
C490 O504 1.249 . S
C490 O505 1.202 . S
C491 C489 1.363 . S
C491 C493 1.408 . S
C491 C496 1.342 . S
C492 C493 1.310 . S
C492 C495 1.461 . S
C492 H512 0.932 . S
C493 C491 1.408 . S
C493 C492 1.310 . S
C493 H513 0.930 . S
C494 C495 1.474 . S
C494 C496 1.285 . S
C494 H514 0.929 . S
C495 C492 1.461 . S
C495 C494 1.474 . S
C496 C491 1.342 . S
C496 C494 1.285 . S
C496 H515 0.930 . S
C497 C500 1.424 . S
C497 C502 1.245 . S
C497 C503 1.428 . S
C498 C501 1.260 . S
C498 C502 1.477 . S
C498 H516 0.932 . S
C499 C500 1.384 . S
C499 C501 1.479 . S
C499 H517 0.929 . S
C500 C497 1.424 . S
C500 C499 1.384 . S
C500 H518 0.928 . S
C501 C498 1.260 . S
C501 C499 1.479 . S
C502 C497 1.245 . S
C502 C498 1.477 . S
C502 H519 0.932 . S
C503 U486 2.882 . S
C503 C497 1.428 . S
C503 O506 1.301 . S
C503 O507 1.282 . S
O504 U486 2.441 . S
O504 C490 1.249 . S
O505 U486 2.420 . S
O505 C490 1.202 . S
O506 U486 2.455 . S
O506 C503 1.301 . S
O507 U486 2.449 . S
O507 C503 1.282 . S
H508 C481 0.931 . S
H509 C483 0.929 . S
H510 C484 0.930 . S
H511 C485 0.931 . S
H512 C492 0.932 . S
H513 C493 0.930 . S
H514 C494 0.929 . S
H515 C496 0.930 . S
H516 C498 0.932 . S
H517 C499 0.929 . S
H518 C500 0.928 . S
H519 C502 0.932 . S
C520 C521 1.264 . S
C520 C525 1.479 . S
C520 C530 1.465 . S
C521 C520 1.264 . S
C521 C523 1.339 . S
C521 H548 0.931 . S
C522 C523 1.395 . S
C522 C524 1.320 . S
C523 C521 1.339 . S
C523 C522 1.395 . S
C523 H549 0.929 . S
C524 C522 1.320 . S
C524 C525 1.405 . S
C524 H550 0.930 . S
C525 C520 1.479 . S
C525 C524 1.405 . S
C525 H551 0.931 . S
U526 O527 2.454 . S
U526 O528 2.458 . S
U526 C529 2.984 . S
U526 C530 2.847 . S
U526 C543 2.882 . S
U526 O544 2.441 . S
U526 O545 2.420 . S
U526 O546 2.455 . S
U526 O547 2.449 . S
O527 U526 2.454 . S
O527 C529 1.353 . S
O528 U526 2.458 . S
O528 C529 1.286 . S
C529 U526 2.984 . S
C529 O527 1.353 . S
C529 O528 1.286 . S
C529 C531 1.363 . S
C530 C520 1.465 . S
C530 U526 2.847 . S
C530 O544 1.249 . S
C530 O545 1.202 . S
C531 C529 1.363 . S
C531 C533 1.408 . S
C531 C536 1.342 . S
C532 C533 1.310 . S
C532 C535 1.461 . S
C532 H552 0.932 . S
C533 C531 1.408 . S
C533 C532 1.310 . S
C533 H553 0.930 . S
C534 C535 1.474 . S
C534 C536 1.285 . S
C534 H554 0.929 . S
C535 C532 1.461 . S
C535 C534 1.474 . S
C536 C531 1.342 . S
C536 C534 1.285 . S
C536 H555 0.930 . S
C537 C540 1.424 . S
C537 C542 1.245 . S
C537 C543 1.428 . S
C538 C541 1.260 . S
C538 C542 1.477 . S
C538 H556 0.932 . S
C539 C540 1.384 . S
C539 C541 1.479 . S
C539 H557 0.929 . S
C540 C537 1.424 . S
C540 C539 1.384 . S
C540 H558 0.928 . S
C541 C538 1.260 . S
C541 C539 1.479 . S
C542 C537 1.245 . S
C542 C538 1.477 . S
C542 H559 0.932 . S
C543 U526 2.882 . S
C543 C537 1.428 . S
C543 O546 1.301 . S
C543 O547 1.282 . S
O544 U526 2.441 . S
O544 C530 1.249 . S
O545 U526 2.420 . S
O545 C530 1.202 . S
O546 U526 2.455 . S
O546 C543 1.301 . S
O547 U526 2.449 . S
O547 C543 1.282 . S
H548 C521 0.931 . S
H549 C523 0.929 . S
H550 C524 0.930 . S
H551 C525 0.931 . S
H552 C532 0.932 . S
H553 C533 0.930 . S
H554 C534 0.929 . S
H555 C536 0.930 . S
H556 C538 0.932 . S
H557 C539 0.929 . S
H558 C540 0.928 . S
H559 C542 0.932 . S
C560 C561 1.264 . S
C560 C565 1.479 . S
C560 C570 1.465 . S
C561 C560 1.264 . S
C561 C563 1.339 . S
C561 H588 0.931 . S
C562 C563 1.395 . S
C562 C564 1.320 . S
C563 C561 1.339 . S
C563 C562 1.395 . S
C563 H589 0.929 . S
C564 C562 1.320 . S
C564 C565 1.405 . S
C564 H590 0.930 . S
C565 C560 1.479 . S
C565 C564 1.405 . S
C565 H591 0.931 . S
U566 O567 2.454 . S
U566 O568 2.458 . S
U566 C569 2.984 . S
U566 C570 2.847 . S
U566 C583 2.882 . S
U566 O584 2.441 . S
U566 O585 2.420 . S
U566 O586 2.455 . S
U566 O587 2.449 . S
O567 U566 2.454 . S
O567 C569 1.353 . S
O568 U566 2.458 . S
O568 C569 1.286 . S
C569 U566 2.984 . S
C569 O567 1.353 . S
C569 O568 1.286 . S
C569 C571 1.363 . S
C570 C560 1.465 . S
C570 U566 2.847 . S
C570 O584 1.249 . S
C570 O585 1.202 . S
C571 C569 1.363 . S
C571 C573 1.408 . S
C571 C576 1.342 . S
C572 C573 1.310 . S
C572 C575 1.461 . S
C572 H592 0.932 . S
C573 C571 1.408 . S
C573 C572 1.310 . S
C573 H593 0.930 . S
C574 C575 1.474 . S
C574 C576 1.285 . S
C574 H594 0.929 . S
C575 C572 1.461 . S
C575 C574 1.474 . S
C576 C571 1.342 . S
C576 C574 1.285 . S
C576 H595 0.930 . S
C577 C580 1.424 . S
C577 C582 1.245 . S
C577 C583 1.428 . S
C578 C581 1.260 . S
C578 C582 1.477 . S
C578 H596 0.932 . S
C579 C580 1.384 . S
C579 C581 1.479 . S
C579 H597 0.929 . S
C580 C577 1.424 . S
C580 C579 1.384 . S
C580 H598 0.928 . S
C581 C578 1.260 . S
C581 C579 1.479 . S
C582 C577 1.245 . S
C582 C578 1.477 . S
C582 H599 0.932 . S
C583 U566 2.882 . S
C583 C577 1.428 . S
C583 O586 1.301 . S
C583 O587 1.282 . S
O584 U566 2.441 . S
O584 C570 1.249 . S
O585 U566 2.420 . S
O585 C570 1.202 . S
O586 U566 2.455 . S
O586 C583 1.301 . S
O587 U566 2.449 . S
O587 C583 1.282 . S
H588 C561 0.931 . S
H589 C563 0.929 . S
H590 C564 0.930 . S
H591 C565 0.931 . S
H592 C572 0.932 . S
H593 C573 0.930 . S
H594 C574 0.929 . S
H595 C576 0.930 . S
H596 C578 0.932 . S
H597 C579 0.929 . S
H598 C580 0.928 . S
H599 C582 0.932 . S
C600 C601 1.264 . S
C600 C605 1.479 . S
C600 C610 1.465 . S
C601 C600 1.264 . S
C601 C603 1.339 . S
C601 H628 0.931 . S
C602 C603 1.395 . S
C602 C604 1.320 . S
C603 C601 1.339 . S
C603 C602 1.395 . S
C603 H629 0.929 . S
C604 C602 1.320 . S
C604 C605 1.405 . S
C604 H630 0.930 . S
C605 C600 1.479 . S
C605 C604 1.405 . S
C605 H631 0.931 . S
U606 O607 2.454 . S
U606 O608 2.458 . S
U606 C609 2.984 . S
U606 C610 2.847 . S
U606 C623 2.882 . S
U606 O624 2.441 . S
U606 O625 2.420 . S
U606 O626 2.455 . S
U606 O627 2.449 . S
O607 U606 2.454 . S
O607 C609 1.353 . S
O608 U606 2.458 . S
O608 C609 1.286 . S
C609 U606 2.984 . S
C609 O607 1.353 . S
C609 O608 1.286 . S
C609 C611 1.363 . S
C610 C600 1.465 . S
C610 U606 2.847 . S
C610 O624 1.249 . S
C610 O625 1.202 . S
C611 C609 1.363 . S
C611 C613 1.408 . S
C611 C616 1.342 . S
C612 C613 1.310 . S
C612 C615 1.461 . S
C612 H632 0.932 . S
C613 C611 1.408 . S
C613 C612 1.310 . S
C613 H633 0.930 . S
C614 C615 1.474 . S
C614 C616 1.285 . S
C614 H634 0.929 . S
C615 C612 1.461 . S
C615 C614 1.474 . S
C616 C611 1.342 . S
C616 C614 1.285 . S
C616 H635 0.930 . S
C617 C620 1.424 . S
C617 C622 1.245 . S
C617 C623 1.428 . S
C618 C621 1.260 . S
C618 C622 1.477 . S
C618 H636 0.932 . S
C619 C620 1.384 . S
C619 C621 1.479 . S
C619 H637 0.929 . S
C620 C617 1.424 . S
C620 C619 1.384 . S
C620 H638 0.928 . S
C621 C618 1.260 . S
C621 C619 1.479 . S
C622 C617 1.245 . S
C622 C618 1.477 . S
C622 H639 0.932 . S
C623 U606 2.882 . S
C623 C617 1.428 . S
C623 O626 1.301 . S
C623 O627 1.282 . S
O624 U606 2.441 . S
O624 C610 1.249 . S
O625 U606 2.420 . S
O625 C610 1.202 . S
O626 U606 2.455 . S
O626 C623 1.301 . S
O627 U606 2.449 . S
O627 C623 1.282 . S
H628 C601 0.931 . S
H629 C603 0.929 . S
H630 C604 0.930 . S
H631 C605 0.931 . S
H632 C612 0.932 . S
H633 C613 0.930 . S
H634 C614 0.929 . S
H635 C616 0.930 . S
H636 C618 0.932 . S
H637 C619 0.929 . S
H638 C620 0.928 . S
H639 C622 0.932 . S
C640 C641 1.264 . S
C640 C645 1.479 . S
C640 C650 1.465 . S
C641 C640 1.264 . S
C641 C643 1.339 . S
C641 H668 0.931 . S
C642 C643 1.395 . S
C642 C644 1.320 . S
C643 C641 1.339 . S
C643 C642 1.395 . S
C643 H669 0.929 . S
C644 C642 1.320 . S
C644 C645 1.405 . S
C644 H670 0.930 . S
C645 C640 1.479 . S
C645 C644 1.405 . S
C645 H671 0.931 . S
U646 O647 2.454 . S
U646 O648 2.458 . S
U646 C649 2.984 . S
U646 C650 2.847 . S
U646 C663 2.882 . S
U646 O664 2.441 . S
U646 O665 2.420 . S
U646 O666 2.455 . S
U646 O667 2.449 . S
O647 U646 2.454 . S
O647 C649 1.353 . S
O648 U646 2.458 . S
O648 C649 1.286 . S
C649 U646 2.984 . S
C649 O647 1.353 . S
C649 O648 1.286 . S
C649 C651 1.363 . S
C650 C640 1.465 . S
C650 U646 2.847 . S
C650 O664 1.249 . S
C650 O665 1.202 . S
C651 C649 1.363 . S
C651 C653 1.408 . S
C651 C656 1.342 . S
C652 C653 1.310 . S
C652 C655 1.461 . S
C652 H672 0.932 . S
C653 C651 1.408 . S
C653 C652 1.310 . S
C653 H673 0.930 . S
C654 C655 1.474 . S
C654 C656 1.285 . S
C654 H674 0.929 . S
C655 C652 1.461 . S
C655 C654 1.474 . S
C656 C651 1.342 . S
C656 C654 1.285 . S
C656 H675 0.930 . S
C657 C660 1.424 . S
C657 C662 1.245 . S
C657 C663 1.428 . S
C658 C661 1.260 . S
C658 C662 1.477 . S
C658 H676 0.932 . S
C659 C660 1.384 . S
C659 C661 1.479 . S
C659 H677 0.929 . S
C660 C657 1.424 . S
C660 C659 1.384 . S
C660 H678 0.928 . S
C661 C658 1.260 . S
C661 C659 1.479 . S
C662 C657 1.245 . S
C662 C658 1.477 . S
C662 H679 0.932 . S
C663 U646 2.882 . S
C663 C657 1.428 . S
C663 O666 1.301 . S
C663 O667 1.282 . S
O664 U646 2.441 . S
O664 C650 1.249 . S
O665 U646 2.420 . S
O665 C650 1.202 . S
O666 U646 2.455 . S
O666 C663 1.301 . S
O667 U646 2.449 . S
O667 C663 1.282 . S
H668 C641 0.931 . S
H669 C643 0.929 . S
H670 C644 0.930 . S
H671 C645 0.931 . S
H672 C652 0.932 . S
H673 C653 0.930 . S
H674 C654 0.929 . S
H675 C656 0.930 . S
H676 C658 0.932 . S
H677 C659 0.929 . S
H678 C660 0.928 . S
H679 C662 0.932 . S
C680 C681 1.264 . S
C680 C685 1.479 . S
C680 C690 1.465 . S
C681 C680 1.264 . S
C681 C683 1.339 . S
C681 H708 0.931 . S
C682 C683 1.395 . S
C682 C684 1.320 . S
C683 C681 1.339 . S
C683 C682 1.395 . S
C683 H709 0.929 . S
C684 C682 1.320 . S
C684 C685 1.405 . S
C684 H710 0.930 . S
C685 C680 1.479 . S
C685 C684 1.405 . S
C685 H711 0.931 . S
U686 O687 2.454 . S
U686 O688 2.458 . S
U686 C689 2.984 . S
U686 C690 2.847 . S
U686 C703 2.882 . S
U686 O704 2.441 . S
U686 O705 2.420 . S
U686 O706 2.455 . S
U686 O707 2.449 . S
O687 U686 2.454 . S
O687 C689 1.353 . S
O688 U686 2.458 . S
O688 C689 1.286 . S
C689 U686 2.984 . S
C689 O687 1.353 . S
C689 O688 1.286 . S
C689 C691 1.363 . S
C690 C680 1.465 . S
C690 U686 2.847 . S
C690 O704 1.249 . S
C690 O705 1.202 . S
C691 C689 1.363 . S
C691 C693 1.408 . S
C691 C696 1.342 . S
C692 C693 1.310 . S
C692 C695 1.461 . S
C692 H712 0.932 . S
C693 C691 1.408 . S
C693 C692 1.310 . S
C693 H713 0.930 . S
C694 C695 1.474 . S
C694 C696 1.285 . S
C694 H714 0.929 . S
C695 C692 1.461 . S
C695 C694 1.474 . S
C696 C691 1.342 . S
C696 C694 1.285 . S
C696 H715 0.930 . S
C697 C700 1.424 . S
C697 C702 1.245 . S
C697 C703 1.428 . S
C698 C701 1.260 . S
C698 C702 1.477 . S
C698 H716 0.932 . S
C699 C700 1.384 . S
C699 C701 1.479 . S
C699 H717 0.929 . S
C700 C697 1.424 . S
C700 C699 1.384 . S
C700 H718 0.928 . S
C701 C698 1.260 . S
C701 C699 1.479 . S
C702 C697 1.245 . S
C702 C698 1.477 . S
C702 H719 0.932 . S
C703 U686 2.882 . S
C703 C697 1.428 . S
C703 O706 1.301 . S
C703 O707 1.282 . S
O704 U686 2.441 . S
O704 C690 1.249 . S
O705 U686 2.420 . S
O705 C690 1.202 . S
O706 U686 2.455 . S
O706 C703 1.301 . S
O707 U686 2.449 . S
O707 C703 1.282 . S
H708 C681 0.931 . S
H709 C683 0.929 . S
H710 C684 0.930 . S
H711 C685 0.931 . S
H712 C692 0.932 . S
H713 C693 0.930 . S
H714 C694 0.929 . S
H715 C696 0.930 . S
H716 C698 0.932 . S
H717 C699 0.929 . S
H718 C700 0.928 . S
H719 C702 0.932 . S
C720 C721 1.264 . S
C720 C725 1.479 . S
C720 C730 1.465 . S
C721 C720 1.264 . S
C721 C723 1.339 . S
C721 H748 0.931 . S
C722 C723 1.395 . S
C722 C724 1.320 . S
C723 C721 1.339 . S
C723 C722 1.395 . S
C723 H749 0.929 . S
C724 C722 1.320 . S
C724 C725 1.405 . S
C724 H750 0.930 . S
C725 C720 1.479 . S
C725 C724 1.405 . S
C725 H751 0.931 . S
U726 O727 2.454 . S
U726 O728 2.458 . S
U726 C729 2.984 . S
U726 C730 2.847 . S
U726 C743 2.882 . S
U726 O744 2.441 . S
U726 O745 2.420 . S
U726 O746 2.455 . S
U726 O747 2.449 . S
O727 U726 2.454 . S
O727 C729 1.353 . S
O728 U726 2.458 . S
O728 C729 1.286 . S
C729 U726 2.984 . S
C729 O727 1.353 . S
C729 O728 1.286 . S
C729 C731 1.363 . S
C730 C720 1.465 . S
C730 U726 2.847 . S
C730 O744 1.249 . S
C730 O745 1.202 . S
C731 C729 1.363 . S
C731 C733 1.408 . S
C731 C736 1.342 . S
C732 C733 1.310 . S
C732 C735 1.461 . S
C732 H752 0.932 . S
C733 C731 1.408 . S
C733 C732 1.310 . S
C733 H753 0.930 . S
C734 C735 1.474 . S
C734 C736 1.285 . S
C734 H754 0.929 . S
C735 C732 1.461 . S
C735 C734 1.474 . S
C736 C731 1.342 . S
C736 C734 1.285 . S
C736 H755 0.930 . S
C737 C740 1.424 . S
C737 C742 1.245 . S
C737 C743 1.428 . S
C738 C741 1.260 . S
C738 C742 1.477 . S
C738 H756 0.932 . S
C739 C740 1.384 . S
C739 C741 1.479 . S
C739 H757 0.929 . S
C740 C737 1.424 . S
C740 C739 1.384 . S
C740 H758 0.928 . S
C741 C738 1.260 . S
C741 C739 1.479 . S
C742 C737 1.245 . S
C742 C738 1.477 . S
C742 H759 0.932 . S
C743 U726 2.882 . S
C743 C737 1.428 . S
C743 O746 1.301 . S
C743 O747 1.282 . S
O744 U726 2.441 . S
O744 C730 1.249 . S
O745 U726 2.420 . S
O745 C730 1.202 . S
O746 U726 2.455 . S
O746 C743 1.301 . S
O747 U726 2.449 . S
O747 C743 1.282 . S
H748 C721 0.931 . S
H749 C723 0.929 . S
H750 C724 0.930 . S
H751 C725 0.931 . S
H752 C732 0.932 . S
H753 C733 0.930 . S
H754 C734 0.929 . S
H755 C736 0.930 . S
H756 C738 0.932 . S
H757 C739 0.929 . S
H758 C740 0.928 . S
H759 C742 0.932 . S
C760 C761 1.264 . S
C760 C765 1.479 . S
C760 C770 1.465 . S
C761 C760 1.264 . S
C761 C763 1.339 . S
C761 H788 0.931 . S
C762 C763 1.395 . S
C762 C764 1.320 . S
C763 C761 1.339 . S
C763 C762 1.395 . S
C763 H789 0.929 . S
C764 C762 1.320 . S
C764 C765 1.405 . S
C764 H790 0.930 . S
C765 C760 1.479 . S
C765 C764 1.405 . S
C765 H791 0.931 . S
U766 O767 2.454 . S
U766 O768 2.458 . S
U766 C769 2.984 . S
U766 C770 2.847 . S
U766 C783 2.882 . S
U766 O784 2.441 . S
U766 O785 2.420 . S
U766 O786 2.455 . S
U766 O787 2.449 . S
O767 U766 2.454 . S
O767 C769 1.353 . S
O768 U766 2.458 . S
O768 C769 1.286 . S
C769 U766 2.984 . S
C769 O767 1.353 . S
C769 O768 1.286 . S
C769 C771 1.363 . S
C770 C760 1.465 . S
C770 U766 2.847 . S
C770 O784 1.249 . S
C770 O785 1.202 . S
C771 C769 1.363 . S
C771 C773 1.408 . S
C771 C776 1.342 . S
C772 C773 1.310 . S
C772 C775 1.461 . S
C772 H792 0.932 . S
C773 C771 1.408 . S
C773 C772 1.310 . S
C773 H793 0.930 . S
C774 C775 1.474 . S
C774 C776 1.285 . S
C774 H794 0.929 . S
C775 C772 1.461 . S
C775 C774 1.474 . S
C776 C771 1.342 . S
C776 C774 1.285 . S
C776 H795 0.930 . S
C777 C780 1.424 . S
C777 C782 1.245 . S
C777 C783 1.428 . S
C778 C781 1.260 . S
C778 C782 1.477 . S
C778 H796 0.932 . S
C779 C780 1.384 . S
C779 C781 1.479 . S
C779 H797 0.929 . S
C780 C777 1.424 . S
C780 C779 1.384 . S
C780 H798 0.928 . S
C781 C778 1.260 . S
C781 C779 1.479 . S
C782 C777 1.245 . S
C782 C778 1.477 . S
C782 H799 0.932 . S
C783 U766 2.882 . S
C783 C777 1.428 . S
C783 O786 1.301 . S
C783 O787 1.282 . S
O784 U766 2.441 . S
O784 C770 1.249 . S
O785 U766 2.420 . S
O785 C770 1.202 . S
O786 U766 2.455 . S
O786 C783 1.301 . S
O787 U766 2.449 . S
O787 C783 1.282 . S
H788 C761 0.931 . S
H789 C763 0.929 . S
H790 C764 0.930 . S
H791 C765 0.931 . S
H792 C772 0.932 . S
H793 C773 0.930 . S
H794 C774 0.929 . S
H795 C776 0.930 . S
H796 C778 0.932 . S
H797 C779 0.929 . S
H798 C780 0.928 . S
H799 C782 0.932 . S
C800 C801 1.264 . S
C800 C805 1.479 . S
C800 C810 1.465 . S
C801 C800 1.264 . S
C801 C803 1.339 . S
C801 H828 0.931 . S
C802 C803 1.395 . S
C802 C804 1.320 . S
C803 C801 1.339 . S
C803 C802 1.395 . S
C803 H829 0.929 . S
C804 C802 1.320 . S
C804 C805 1.405 . S
C804 H830 0.930 . S
C805 C800 1.479 . S
C805 C804 1.405 . S
C805 H831 0.931 . S
U806 O807 2.454 . S
U806 O808 2.458 . S
U806 C809 2.984 . S
U806 C810 2.847 . S
U806 C823 2.882 . S
U806 O824 2.441 . S
U806 O825 2.420 . S
U806 O826 2.455 . S
U806 O827 2.449 . S
O807 U806 2.454 . S
O807 C809 1.353 . S
O808 U806 2.458 . S
O808 C809 1.286 . S
C809 U806 2.984 . S
C809 O807 1.353 . S
C809 O808 1.286 . S
C809 C811 1.363 . S
C810 C800 1.465 . S
C810 U806 2.847 . S
C810 O824 1.249 . S
C810 O825 1.202 . S
C811 C809 1.363 . S
C811 C813 1.408 . S
C811 C816 1.342 . S
C812 C813 1.310 . S
C812 C815 1.461 . S
C812 H832 0.932 . S
C813 C811 1.408 . S
C813 C812 1.310 . S
C813 H833 0.930 . S
C814 C815 1.474 . S
C814 C816 1.285 . S
C814 H834 0.929 . S
C815 C812 1.461 . S
C815 C814 1.474 . S
C816 C811 1.342 . S
C816 C814 1.285 . S
C816 H835 0.930 . S
C817 C820 1.424 . S
C817 C822 1.245 . S
C817 C823 1.428 . S
C818 C821 1.260 . S
C818 C822 1.477 . S
C818 H836 0.932 . S
C819 C820 1.384 . S
C819 C821 1.479 . S
C819 H837 0.929 . S
C820 C817 1.424 . S
C820 C819 1.384 . S
C820 H838 0.928 . S
C821 C818 1.260 . S
C821 C819 1.479 . S
C822 C817 1.245 . S
C822 C818 1.477 . S
C822 H839 0.932 . S
C823 U806 2.882 . S
C823 C817 1.428 . S
C823 O826 1.301 . S
C823 O827 1.282 . S
O824 U806 2.441 . S
O824 C810 1.249 . S
O825 U806 2.420 . S
O825 C810 1.202 . S
O826 U806 2.455 . S
O826 C823 1.301 . S
O827 U806 2.449 . S
O827 C823 1.282 . S
H828 C801 0.931 . S
H829 C803 0.929 . S
H830 C804 0.930 . S
H831 C805 0.931 . S
H832 C812 0.932 . S
H833 C813 0.930 . S
H834 C814 0.929 . S
H835 C816 0.930 . S
H836 C818 0.932 . S
H837 C819 0.929 . S
H838 C820 0.928 . S
H839 C822 0.932 . S
C840 C841 1.264 . S
C840 C845 1.479 . S
C840 C850 1.465 . S
C841 C840 1.264 . S
C841 C843 1.339 . S
C841 H868 0.931 . S
C842 C843 1.395 . S
C842 C844 1.320 . S
C843 C841 1.339 . S
C843 C842 1.395 . S
C843 H869 0.929 . S
C844 C842 1.320 . S
C844 C845 1.405 . S
C844 H870 0.930 . S
C845 C840 1.479 . S
C845 C844 1.405 . S
C845 H871 0.931 . S
U846 O847 2.454 . S
U846 O848 2.458 . S
U846 C849 2.984 . S
U846 C850 2.847 . S
U846 C863 2.882 . S
U846 O864 2.441 . S
U846 O865 2.420 . S
U846 O866 2.455 . S
U846 O867 2.449 . S
O847 U846 2.454 . S
O847 C849 1.353 . S
O848 U846 2.458 . S
O848 C849 1.286 . S
C849 U846 2.984 . S
C849 O847 1.353 . S
C849 O848 1.286 . S
C849 C851 1.363 . S
C850 C840 1.465 . S
C850 U846 2.847 . S
C850 O864 1.249 . S
C850 O865 1.202 . S
C851 C849 1.363 . S
C851 C853 1.408 . S
C851 C856 1.342 . S
C852 C853 1.310 . S
C852 C855 1.461 . S
C852 H872 0.932 . S
C853 C851 1.408 . S
C853 C852 1.310 . S
C853 H873 0.930 . S
C854 C855 1.474 . S
C854 C856 1.285 . S
C854 H874 0.929 . S
C855 C852 1.461 . S
C855 C854 1.474 . S
C856 C851 1.342 . S
C856 C854 1.285 . S
C856 H875 0.930 . S
C857 C860 1.424 . S
C857 C862 1.245 . S
C857 C863 1.428 . S
C858 C861 1.260 . S
C858 C862 1.477 . S
C858 H876 0.932 . S
C859 C860 1.384 . S
C859 C861 1.479 . S
C859 H877 0.929 . S
C860 C857 1.424 . S
C860 C859 1.384 . S
C860 H878 0.928 . S
C861 C858 1.260 . S
C861 C859 1.479 . S
C862 C857 1.245 . S
C862 C858 1.477 . S
C862 H879 0.932 . S
C863 U846 2.882 . S
C863 C857 1.428 . S
C863 O866 1.301 . S
C863 O867 1.282 . S
O864 U846 2.441 . S
O864 C850 1.249 . S
O865 U846 2.420 . S
O865 C850 1.202 . S
O866 U846 2.455 . S
O866 C863 1.301 . S
O867 U846 2.449 . S
O867 C863 1.282 . S
H868 C841 0.931 . S
H869 C843 0.929 . S
H870 C844 0.930 . S
H871 C845 0.931 . S
H872 C852 0.932 . S
H873 C853 0.930 . S
H874 C854 0.929 . S
H875 C856 0.930 . S
H876 C858 0.932 . S
H877 C859 0.929 . S
H878 C860 0.928 . S
H879 C862 0.932 . S
C880 C881 1.264 . S
C880 C885 1.479 . S
C880 C890 1.465 . S
C881 C880 1.264 . S
C881 C883 1.339 . S
C881 H908 0.931 . S
C882 C883 1.395 . S
C882 C884 1.320 . S
C883 C881 1.339 . S
C883 C882 1.395 . S
C883 H909 0.929 . S
C884 C882 1.320 . S
C884 C885 1.405 . S
C884 H910 0.930 . S
C885 C880 1.479 . S
C885 C884 1.405 . S
C885 H911 0.931 . S
U886 O887 2.454 . S
U886 O888 2.458 . S
U886 C889 2.984 . S
U886 C890 2.847 . S
U886 C903 2.882 . S
U886 O904 2.441 . S
U886 O905 2.420 . S
U886 O906 2.455 . S
U886 O907 2.449 . S
O887 U886 2.454 . S
O887 C889 1.353 . S
O888 U886 2.458 . S
O888 C889 1.286 . S
C889 U886 2.984 . S
C889 O887 1.353 . S
C889 O888 1.286 . S
C889 C891 1.363 . S
C890 C880 1.465 . S
C890 U886 2.847 . S
C890 O904 1.249 . S
C890 O905 1.202 . S
C891 C889 1.363 . S
C891 C893 1.408 . S
C891 C896 1.342 . S
C892 C893 1.310 . S
C892 C895 1.461 . S
C892 H912 0.932 . S
C893 C891 1.408 . S
C893 C892 1.310 . S
C893 H913 0.930 . S
C894 C895 1.474 . S
C894 C896 1.285 . S
C894 H914 0.929 . S
C895 C892 1.461 . S
C895 C894 1.474 . S
C896 C891 1.342 . S
C896 C894 1.285 . S
C896 H915 0.930 . S
C897 C900 1.424 . S
C897 C902 1.245 . S
C897 C903 1.428 . S
C898 C901 1.260 . S
C898 C902 1.477 . S
C898 H916 0.932 . S
C899 C900 1.384 . S
C899 C901 1.479 . S
C899 H917 0.929 . S
C900 C897 1.424 . S
C900 C899 1.384 . S
C900 H918 0.928 . S
C901 C898 1.260 . S
C901 C899 1.479 . S
C902 C897 1.245 . S
C902 C898 1.477 . S
C902 H919 0.932 . S
C903 U886 2.882 . S
C903 C897 1.428 . S
C903 O906 1.301 . S
C903 O907 1.282 . S
O904 U886 2.441 . S
O904 C890 1.249 . S
O905 U886 2.420 . S
O905 C890 1.202 . S
O906 U886 2.455 . S
O906 C903 1.301 . S
O907 U886 2.449 . S
O907 C903 1.282 . S
H908 C881 0.931 . S
H909 C883 0.929 . S
H910 C884 0.930 . S
H911 C885 0.931 . S
H912 C892 0.932 . S
H913 C893 0.930 . S
H914 C894 0.929 . S
H915 C896 0.930 . S
H916 C898 0.932 . S
H917 C899 0.929 . S
H918 C900 0.928 . S
H919 C902 0.932 . S
C920 C921 1.264 . S
C920 C925 1.479 . S
C920 C930 1.465 . S
C921 C920 1.264 . S
C921 C923 1.339 . S
C921 H948 0.931 . S
C922 C923 1.395 . S
C922 C924 1.320 . S
C923 C921 1.339 . S
C923 C922 1.395 . S
C923 H949 0.929 . S
C924 C922 1.320 . S
C924 C925 1.405 . S
C924 H950 0.930 . S
C925 C920 1.479 . S
C925 C924 1.405 . S
C925 H951 0.931 . S
U926 O927 2.454 . S
U926 O928 2.458 . S
U926 C929 2.984 . S
U926 C930 2.847 . S
U926 C943 2.882 . S
U926 O944 2.441 . S
U926 O945 2.420 . S
U926 O946 2.455 . S
U926 O947 2.449 . S
O927 U926 2.454 . S
O927 C929 1.353 . S
O928 U926 2.458 . S
O928 C929 1.286 . S
C929 U926 2.984 . S
C929 O927 1.353 . S
C929 O928 1.286 . S
C929 C931 1.363 . S
C930 C920 1.465 . S
C930 U926 2.847 . S
C930 O944 1.249 . S
C930 O945 1.202 . S
C931 C929 1.363 . S
C931 C933 1.408 . S
C931 C936 1.342 . S
C932 C933 1.310 . S
C932 C935 1.461 . S
C932 H952 0.932 . S
C933 C931 1.408 . S
C933 C932 1.310 . S
C933 H953 0.930 . S
C934 C935 1.474 . S
C934 C936 1.285 . S
C934 H954 0.929 . S
C935 C932 1.461 . S
C935 C934 1.474 . S
C936 C931 1.342 . S
C936 C934 1.285 . S
C936 H955 0.930 . S
C937 C940 1.424 . S
C937 C942 1.245 . S
C937 C943 1.428 . S
C938 C941 1.260 . S
C938 C942 1.477 . S
C938 H956 0.932 . S
C939 C940 1.384 . S
C939 C941 1.479 . S
C939 H957 0.929 . S
C940 C937 1.424 . S
C940 C939 1.384 . S
C940 H958 0.928 . S
C941 C938 1.260 . S
C941 C939 1.479 . S
C942 C937 1.245 . S
C942 C938 1.477 . S
C942 H959 0.932 . S
C943 U926 2.882 . S
C943 C937 1.428 . S
C943 O946 1.301 . S
C943 O947 1.282 . S
O944 U926 2.441 . S
O944 C930 1.249 . S
O945 U926 2.420 . S
O945 C930 1.202 . S
O946 U926 2.455 . S
O946 C943 1.301 . S
O947 U926 2.449 . S
O947 C943 1.282 . S
H948 C921 0.931 . S
H949 C923 0.929 . S
H950 C924 0.930 . S
H951 C925 0.931 . S
H952 C932 0.932 . S
H953 C933 0.930 . S
H954 C934 0.929 . S
H955 C936 0.930 . S
H956 C938 0.932 . S
H957 C939 0.929 . S
H958 C940 0.928 . S
H959 C942 0.932 . S
C960 C961 1.264 . S
C960 C965 1.479 . S
C960 C970 1.465 . S
C961 C960 1.264 . S
C961 C963 1.339 . S
C961 H988 0.931 . S
C962 C963 1.395 . S
C962 C964 1.320 . S
C963 C961 1.339 . S
C963 C962 1.395 . S
C963 H989 0.929 . S
C964 C962 1.320 . S
C964 C965 1.405 . S
C964 H990 0.930 . S
C965 C960 1.479 . S
C965 C964 1.405 . S
C965 H991 0.931 . S
U966 O967 2.454 . S
U966 O968 2.458 . S
U966 C969 2.984 . S
U966 C970 2.847 . S
U966 C983 2.882 . S
U966 O984 2.441 . S
U966 O985 2.420 . S
U966 O986 2.455 . S
U966 O987 2.449 . S
O967 U966 2.454 . S
O967 C969 1.353 . S
O968 U966 2.458 . S
O968 C969 1.286 . S
C969 U966 2.984 . S
C969 O967 1.353 . S
C969 O968 1.286 . S
C969 C971 1.363 . S
C970 C960 1.465 . S
C970 U966 2.847 . S
C970 O984 1.249 . S
C970 O985 1.202 . S
C971 C969 1.363 . S
C971 C973 1.408 . S
C971 C976 1.342 . S
C972 C973 1.310 . S
C972 C975 1.461 . S
C972 H992 0.932 . S
C973 C971 1.408 . S
C973 C972 1.310 . S
C973 H993 0.930 . S
C974 C975 1.474 . S
C974 C976 1.285 . S
C974 H994 0.929 . S
C975 C972 1.461 . S
C975 C974 1.474 . S
C976 C971 1.342 . S
C976 C974 1.285 . S
C976 H995 0.930 . S
C977 C980 1.424 . S
C977 C982 1.245 . S
C977 C983 1.428 . S
C978 C981 1.260 . S
C978 C982 1.477 . S
C978 H996 0.932 . S
C979 C980 1.384 . S
C979 C981 1.479 . S
C979 H997 0.929 . S
C980 C977 1.424 . S
C980 C979 1.384 . S
C980 H998 0.928 . S
C981 C978 1.260 . S
C981 C979 1.479 . S
C982 C977 1.245 . S
C982 C978 1.477 . S
C982 H999 0.932 . S
C983 U966 2.882 . S
C983 C977 1.428 . S
C983 O986 1.301 . S
C983 O987 1.282 . S
O984 U966 2.441 . S
O984 C970 1.249 . S
O985 U966 2.420 . S
O985 C970 1.202 . S
O986 U966 2.455 . S
O986 C983 1.301 . S
O987 U966 2.449 . S
O987 C983 1.282 . S
H988 C961 0.931 . S
H989 C963 0.929 . S
H990 C964 0.930 . S
H991 C965 0.931 . S
H992 C972 0.932 . S
H993 C973 0.930 . S
H994 C974 0.929 . S
H995 C976 0.930 . S
H996 C978 0.932 . S
H997 C979 0.929 . S
H998 C980 0.928 . S
H999 C982 0.932 . S
C1000 C1001 1.264 . S
C1000 C1005 1.479 . S
C1000 C1010 1.465 . S
C1001 C1000 1.264 . S
C1001 C1003 1.339 . S
C1001 H1028 0.931 . S
C1002 C1003 1.395 . S
C1002 C1004 1.320 . S
C1003 C1001 1.339 . S
C1003 C1002 1.395 . S
C1003 H1029 0.929 . S
C1004 C1002 1.320 . S
C1004 C1005 1.405 . S
C1004 H1030 0.930 . S
C1005 C1000 1.479 . S
C1005 C1004 1.405 . S
C1005 H1031 0.931 . S
U1006 O1007 2.454 . S
U1006 O1008 2.458 . S
U1006 C1009 2.984 . S
U1006 C1010 2.847 . S
U1006 C1023 2.882 . S
U1006 O1024 2.441 . S
U1006 O1025 2.420 . S
U1006 O1026 2.455 . S
U1006 O1027 2.449 . S
O1007 U1006 2.454 . S
O1007 C1009 1.353 . S
O1008 U1006 2.458 . S
O1008 C1009 1.286 . S
C1009 U1006 2.984 . S
C1009 O1007 1.353 . S
C1009 O1008 1.286 . S
C1009 C1011 1.363 . S
C1010 C1000 1.465 . S
C1010 U1006 2.847 . S
C1010 O1024 1.249 . S
C1010 O1025 1.202 . S
C1011 C1009 1.363 . S
C1011 C1013 1.408 . S
C1011 C1016 1.342 . S
C1012 C1013 1.310 . S
C1012 C1015 1.461 . S
C1012 H1032 0.932 . S
C1013 C1011 1.408 . S
C1013 C1012 1.310 . S
C1013 H1033 0.930 . S
C1014 C1015 1.474 . S
C1014 C1016 1.285 . S
C1014 H1034 0.929 . S
C1015 C1012 1.461 . S
C1015 C1014 1.474 . S
C1016 C1011 1.342 . S
C1016 C1014 1.285 . S
C1016 H1035 0.930 . S
C1017 C1020 1.424 . S
C1017 C1022 1.245 . S
C1017 C1023 1.428 . S
C1018 C1021 1.260 . S
C1018 C1022 1.477 . S
C1018 H1036 0.932 . S
C1019 C1020 1.384 . S
C1019 C1021 1.479 . S
C1019 H1037 0.929 . S
C1020 C1017 1.424 . S
C1020 C1019 1.384 . S
C1020 H1038 0.928 . S
C1021 C1018 1.260 . S
C1021 C1019 1.479 . S
C1022 C1017 1.245 . S
C1022 C1018 1.477 . S
C1022 H1039 0.932 . S
C1023 U1006 2.882 . S
C1023 C1017 1.428 . S
C1023 O1026 1.301 . S
C1023 O1027 1.282 . S
O1024 U1006 2.441 . S
O1024 C1010 1.249 . S
O1025 U1006 2.420 . S
O1025 C1010 1.202 . S
O1026 U1006 2.455 . S
O1026 C1023 1.301 . S
O1027 U1006 2.449 . S
O1027 C1023 1.282 . S
H1028 C1001 0.931 . S
H1029 C1003 0.929 . S
H1030 C1004 0.930 . S
H1031 C1005 0.931 . S
H1032 C1012 0.932 . S
H1033 C1013 0.930 . S
H1034 C1014 0.929 . S
H1035 C1016 0.930 . S
H1036 C1018 0.932 . S
H1037 C1019 0.929 . S
H1038 C1020 0.928 . S
H1039 C1022 0.932 . S
C1040 C1041 1.264 . S
C1040 C1045 1.479 . S
C1040 C1050 1.465 . S
C1041 C1040 1.264 . S
C1041 C1043 1.339 . S
C1041 H1068 0.931 . S
C1042 C1043 1.395 . S
C1042 C1044 1.320 . S
C1043 C1041 1.339 . S
C1043 C1042 1.395 . S
C1043 H1069 0.929 . S
C1044 C1042 1.320 . S
C1044 C1045 1.405 . S
C1044 H1070 0.930 . S
C1045 C1040 1.479 . S
C1045 C1044 1.405 . S
C1045 H1071 0.931 . S
U1046 O1047 2.454 . S
U1046 O1048 2.458 . S
U1046 C1049 2.984 . S
U1046 C1050 2.847 . S
U1046 C1063 2.882 . S
U1046 O1064 2.441 . S
U1046 O1065 2.420 . S
U1046 O1066 2.455 . S
U1046 O1067 2.449 . S
O1047 U1046 2.454 . S
O1047 C1049 1.353 . S
O1048 U1046 2.458 . S
O1048 C1049 1.286 . S
C1049 U1046 2.984 . S
C1049 O1047 1.353 . S
C1049 O1048 1.286 . S
C1049 C1051 1.363 . S
C1050 C1040 1.465 . S
C1050 U1046 2.847 . S
C1050 O1064 1.249 . S
C1050 O1065 1.202 . S
C1051 C1049 1.363 . S
C1051 C1053 1.408 . S
C1051 C1056 1.342 . S
C1052 C1053 1.310 . S
C1052 C1055 1.461 . S
C1052 H1072 0.932 . S
C1053 C1051 1.408 . S
C1053 C1052 1.310 . S
C1053 H1073 0.930 . S
C1054 C1055 1.474 . S
C1054 C1056 1.285 . S
C1054 H1074 0.929 . S
C1055 C1052 1.461 . S
C1055 C1054 1.474 . S
C1056 C1051 1.342 . S
C1056 C1054 1.285 . S
C1056 H1075 0.930 . S
C1057 C1060 1.424 . S
C1057 C1062 1.245 . S
C1057 C1063 1.428 . S
C1058 C1061 1.260 . S
C1058 C1062 1.477 . S
C1058 H1076 0.932 . S
C1059 C1060 1.384 . S
C1059 C1061 1.479 . S
C1059 H1077 0.929 . S
C1060 C1057 1.424 . S
C1060 C1059 1.384 . S
C1060 H1078 0.928 . S
C1061 C1058 1.260 . S
C1061 C1059 1.479 . S
C1062 C1057 1.245 . S
C1062 C1058 1.477 . S
C1062 H1079 0.932 . S
C1063 U1046 2.882 . S
C1063 C1057 1.428 . S
C1063 O1066 1.301 . S
C1063 O1067 1.282 . S
O1064 U1046 2.441 . S
O1064 C1050 1.249 . S
O1065 U1046 2.420 . S
O1065 C1050 1.202 . S
O1066 U1046 2.455 . S
O1066 C1063 1.301 . S
O1067 U1046 2.449 . S
O1067 C1063 1.282 . S
H1068 C1041 0.931 . S
H1069 C1043 0.929 . S
H1070 C1044 0.930 . S
H1071 C1045 0.931 . S
H1072 C1052 0.932 . S
H1073 C1053 0.930 . S
H1074 C1054 0.929 . S
H1075 C1056 0.930 . S
H1076 C1058 0.932 . S
H1077 C1059 0.929 . S
H1078 C1060 0.928 . S
H1079 C1062 0.932 . S
C1080 C1081 1.264 . S
C1080 C1085 1.479 . S
C1080 C1090 1.465 . S
C1081 C1080 1.264 . S
C1081 C1083 1.339 . S
C1081 H1108 0.931 . S
C1082 C1083 1.395 . S
C1082 C1084 1.320 . S
C1083 C1081 1.339 . S
C1083 C1082 1.395 . S
C1083 H1109 0.929 . S
C1084 C1082 1.320 . S
C1084 C1085 1.405 . S
C1084 H1110 0.930 . S
C1085 C1080 1.479 . S
C1085 C1084 1.405 . S
C1085 H1111 0.931 . S
U1086 O1087 2.454 . S
U1086 O1088 2.458 . S
U1086 C1089 2.984 . S
U1086 C1090 2.847 . S
U1086 C1103 2.882 . S
U1086 O1104 2.441 . S
U1086 O1105 2.420 . S
U1086 O1106 2.455 . S
U1086 O1107 2.449 . S
O1087 U1086 2.454 . S
O1087 C1089 1.353 . S
O1088 U1086 2.458 . S
O1088 C1089 1.286 . S
C1089 U1086 2.984 . S
C1089 O1087 1.353 . S
C1089 O1088 1.286 . S
C1089 C1091 1.363 . S
C1090 C1080 1.465 . S
C1090 U1086 2.847 . S
C1090 O1104 1.249 . S
C1090 O1105 1.202 . S
C1091 C1089 1.363 . S
C1091 C1093 1.408 . S
C1091 C1096 1.342 . S
C1092 C1093 1.310 . S
C1092 C1095 1.461 . S
C1092 H1112 0.932 . S
C1093 C1091 1.408 . S
C1093 C1092 1.310 . S
C1093 H1113 0.930 . S
C1094 C1095 1.474 . S
C1094 C1096 1.285 . S
C1094 H1114 0.929 . S
C1095 C1092 1.461 . S
C1095 C1094 1.474 . S
C1096 C1091 1.342 . S
C1096 C1094 1.285 . S
C1096 H1115 0.930 . S
C1097 C1100 1.424 . S
C1097 C1102 1.245 . S
C1097 C1103 1.428 . S
C1098 C1101 1.260 . S
C1098 C1102 1.477 . S
C1098 H1116 0.932 . S
C1099 C1100 1.384 . S
C1099 C1101 1.479 . S
C1099 H1117 0.929 . S
C1100 C1097 1.424 . S
C1100 C1099 1.384 . S
C1100 H1118 0.928 . S
C1101 C1098 1.260 . S
C1101 C1099 1.479 . S
C1102 C1097 1.245 . S
C1102 C1098 1.477 . S
C1102 H1119 0.932 . S
C1103 U1086 2.882 . S
C1103 C1097 1.428 . S
C1103 O1106 1.301 . S
C1103 O1107 1.282 . S
O1104 U1086 2.441 . S
O1104 C1090 1.249 . S
O1105 U1086 2.420 . S
O1105 C1090 1.202 . S
O1106 U1086 2.455 . S
O1106 C1103 1.301 . S
O1107 U1086 2.449 . S
O1107 C1103 1.282 . S
H1108 C1081 0.931 . S
H1109 C1083 0.929 . S
H1110 C1084 0.930 . S
H1111 C1085 0.931 . S
H1112 C1092 0.932 . S
H1113 C1093 0.930 . S
H1114 C1094 0.929 . S
H1115 C1096 0.930 . S
H1116 C1098 0.932 . S
H1117 C1099 0.929 . S
H1118 C1100 0.928 . S
H1119 C1102 0.932 . S
C1120 C1121 1.264 . S
C1120 C1125 1.479 . S
C1120 C1130 1.465 . S
C1121 C1120 1.264 . S
C1121 C1123 1.339 . S
C1121 H1148 0.931 . S
C1122 C1123 1.395 . S
C1122 C1124 1.320 . S
C1123 C1121 1.339 . S
C1123 C1122 1.395 . S
C1123 H1149 0.929 . S
C1124 C1122 1.320 . S
C1124 C1125 1.405 . S
C1124 H1150 0.930 . S
C1125 C1120 1.479 . S
C1125 C1124 1.405 . S
C1125 H1151 0.931 . S
U1126 O1127 2.454 . S
U1126 O1128 2.458 . S
U1126 C1129 2.984 . S
U1126 C1130 2.847 . S
U1126 C1143 2.882 . S
U1126 O1144 2.441 . S
U1126 O1145 2.420 . S
U1126 O1146 2.455 . S
U1126 O1147 2.449 . S
O1127 U1126 2.454 . S
O1127 C1129 1.353 . S
O1128 U1126 2.458 . S
O1128 C1129 1.286 . S
C1129 U1126 2.984 . S
C1129 O1127 1.353 . S
C1129 O1128 1.286 . S
C1129 C1131 1.363 . S
C1130 C1120 1.465 . S
C1130 U1126 2.847 . S
C1130 O1144 1.249 . S
C1130 O1145 1.202 . S
C1131 C1129 1.363 . S
C1131 C1133 1.408 . S
C1131 C1136 1.342 . S
C1132 C1133 1.310 . S
C1132 C1135 1.461 . S
C1132 H1152 0.932 . S
C1133 C1131 1.408 . S
C1133 C1132 1.310 . S
C1133 H1153 0.930 . S
C1134 C1135 1.474 . S
C1134 C1136 1.285 . S
C1134 H1154 0.929 . S
C1135 C1132 1.461 . S
C1135 C1134 1.474 . S
C1136 C1131 1.342 . S
C1136 C1134 1.285 . S
C1136 H1155 0.930 . S
C1137 C1140 1.424 . S
C1137 C1142 1.245 . S
C1137 C1143 1.428 . S
C1138 C1141 1.260 . S
C1138 C1142 1.477 . S
C1138 H1156 0.932 . S
C1139 C1140 1.384 . S
C1139 C1141 1.479 . S
C1139 H1157 0.929 . S
C1140 C1137 1.424 . S
C1140 C1139 1.384 . S
C1140 H1158 0.928 . S
C1141 C1138 1.260 . S
C1141 C1139 1.479 . S
C1142 C1137 1.245 . S
C1142 C1138 1.477 . S
C1142 H1159 0.932 . S
C1143 U1126 2.882 . S
C1143 C1137 1.428 . S
C1143 O1146 1.301 . S
C1143 O1147 1.282 . S
O1144 U1126 2.441 . S
O1144 C1130 1.249 . S
O1145 U1126 2.420 . S
O1145 C1130 1.202 . S
O1146 U1126 2.455 . S
O1146 C1143 1.301 . S
O1147 U1126 2.449 . S
O1147 C1143 1.282 . S
H1148 C1121 0.931 . S
H1149 C1123 0.929 . S
H1150 C1124 0.930 . S
H1151 C1125 0.931 . S
H1152 C1132 0.932 . S
H1153 C1133 0.930 . S
H1154 C1134 0.929 . S
H1155 C1136 0.930 . S
H1156 C1138 0.932 . S
H1157 C1139 0.929 . S
H1158 C1140 0.928 . S
H1159 C1142 0.932 . S
C1160 C1161 1.264 . S
C1160 C1165 1.479 . S
C1160 C1170 1.465 . S
C1161 C1160 1.264 . S
C1161 C1163 1.339 . S
C1161 H1188 0.931 . S
C1162 C1163 1.395 . S
C1162 C1164 1.320 . S
C1163 C1161 1.339 . S
C1163 C1162 1.395 . S
C1163 H1189 0.929 . S
C1164 C1162 1.320 . S
C1164 C1165 1.405 . S
C1164 H1190 0.930 . S
C1165 C1160 1.479 . S
C1165 C1164 1.405 . S
C1165 H1191 0.931 . S
U1166 O1167 2.454 . S
U1166 O1168 2.458 . S
U1166 C1169 2.984 . S
U1166 C1170 2.847 . S
U1166 C1183 2.882 . S
U1166 O1184 2.441 . S
U1166 O1185 2.420 . S
U1166 O1186 2.455 . S
U1166 O1187 2.449 . S
O1167 U1166 2.454 . S
O1167 C1169 1.353 . S
O1168 U1166 2.458 . S
O1168 C1169 1.286 . S
C1169 U1166 2.984 . S
C1169 O1167 1.353 . S
C1169 O1168 1.286 . S
C1169 C1171 1.363 . S
C1170 C1160 1.465 . S
C1170 U1166 2.847 . S
C1170 O1184 1.249 . S
C1170 O1185 1.202 . S
C1171 C1169 1.363 . S
C1171 C1173 1.408 . S
C1171 C1176 1.342 . S
C1172 C1173 1.310 . S
C1172 C1175 1.461 . S
C1172 H1192 0.932 . S
C1173 C1171 1.408 . S
C1173 C1172 1.310 . S
C1173 H1193 0.930 . S
C1174 C1175 1.474 . S
C1174 C1176 1.285 . S
C1174 H1194 0.929 . S
C1175 C1172 1.461 . S
C1175 C1174 1.474 . S
C1176 C1171 1.342 . S
C1176 C1174 1.285 . S
C1176 H1195 0.930 . S
C1177 C1180 1.424 . S
C1177 C1182 1.245 . S
C1177 C1183 1.428 . S
C1178 C1181 1.260 . S
C1178 C1182 1.477 . S
C1178 H1196 0.932 . S
C1179 C1180 1.384 . S
C1179 C1181 1.479 . S
C1179 H1197 0.929 . S
C1180 C1177 1.424 . S
C1180 C1179 1.384 . S
C1180 H1198 0.928 . S
C1181 C1178 1.260 . S
C1181 C1179 1.479 . S
C1182 C1177 1.245 . S
C1182 C1178 1.477 . S
C1182 H1199 0.932 . S
C1183 U1166 2.882 . S
C1183 C1177 1.428 . S
C1183 O1186 1.301 . S
C1183 O1187 1.282 . S
O1184 U1166 2.441 . S
O1184 C1170 1.249 . S
O1185 U1166 2.420 . S
O1185 C1170 1.202 . S
O1186 U1166 2.455 . S
O1186 C1183 1.301 . S
O1187 U1166 2.449 . S
O1187 C1183 1.282 . S
H1188 C1161 0.931 . S
H1189 C1163 0.929 . S
H1190 C1164 0.930 . S
H1191 C1165 0.931 . S
H1192 C1172 0.932 . S
H1193 C1173 0.930 . S
H1194 C1174 0.929 . S
H1195 C1176 0.930 . S
H1196 C1178 0.932 . S
H1197 C1179 0.929 . S
H1198 C1180 0.928 . S
H1199 C1182 0.932 . S
C1200 C1201 1.264 . S
C1200 C1205 1.479 . S
C1200 C1210 1.465 . S
C1201 C1200 1.264 . S
C1201 C1203 1.339 . S
C1201 H1228 0.931 . S
C1202 C1203 1.395 . S
C1202 C1204 1.320 . S
C1203 C1201 1.339 . S
C1203 C1202 1.395 . S
C1203 H1229 0.929 . S
C1204 C1202 1.320 . S
C1204 C1205 1.405 . S
C1204 H1230 0.930 . S
C1205 C1200 1.479 . S
C1205 C1204 1.405 . S
C1205 H1231 0.931 . S
U1206 O1207 2.454 . S
U1206 O1208 2.458 . S
U1206 C1209 2.984 . S
U1206 C1210 2.847 . S
U1206 C1223 2.882 . S
U1206 O1224 2.441 . S
U1206 O1225 2.420 . S
U1206 O1226 2.455 . S
U1206 O1227 2.449 . S
O1207 U1206 2.454 . S
O1207 C1209 1.353 . S
O1208 U1206 2.458 . S
O1208 C1209 1.286 . S
C1209 U1206 2.984 . S
C1209 O1207 1.353 . S
C1209 O1208 1.286 . S
C1209 C1211 1.363 . S
C1210 C1200 1.465 . S
C1210 U1206 2.847 . S
C1210 O1224 1.249 . S
C1210 O1225 1.202 . S
C1211 C1209 1.363 . S
C1211 C1213 1.408 . S
C1211 C1216 1.342 . S
C1212 C1213 1.310 . S
C1212 C1215 1.461 . S
C1212 H1232 0.932 . S
C1213 C1211 1.408 . S
C1213 C1212 1.310 . S
C1213 H1233 0.930 . S
C1214 C1215 1.474 . S
C1214 C1216 1.285 . S
C1214 H1234 0.929 . S
C1215 C1212 1.461 . S
C1215 C1214 1.474 . S
C1216 C1211 1.342 . S
C1216 C1214 1.285 . S
C1216 H1235 0.930 . S
C1217 C1220 1.424 . S
C1217 C1222 1.245 . S
C1217 C1223 1.428 . S
C1218 C1221 1.260 . S
C1218 C1222 1.477 . S
C1218 H1236 0.932 . S
C1219 C1220 1.384 . S
C1219 C1221 1.479 . S
C1219 H1237 0.929 . S
C1220 C1217 1.424 . S
C1220 C1219 1.384 . S
C1220 H1238 0.928 . S
C1221 C1218 1.260 . S
C1221 C1219 1.479 . S
C1222 C1217 1.245 . S
C1222 C1218 1.477 . S
C1222 H1239 0.932 . S
C1223 U1206 2.882 . S
C1223 C1217 1.428 . S
C1223 O1226 1.301 . S
C1223 O1227 1.282 . S
O1224 U1206 2.441 . S
O1224 C1210 1.249 . S
O1225 U1206 2.420 . S
O1225 C1210 1.202 . S
O1226 U1206 2.455 . S
O1226 C1223 1.301 . S
O1227 U1206 2.449 . S
O1227 C1223 1.282 . S
H1228 C1201 0.931 . S
H1229 C1203 0.929 . S
H1230 C1204 0.930 . S
H1231 C1205 0.931 . S
H1232 C1212 0.932 . S
H1233 C1213 0.930 . S
H1234 C1214 0.929 . S
H1235 C1216 0.930 . S
H1236 C1218 0.932 . S
H1237 C1219 0.929 . S
H1238 C1220 0.928 . S
H1239 C1222 0.932 . S
C1240 C1241 1.264 . S
C1240 C1245 1.479 . S
C1240 C1250 1.465 . S
C1241 C1240 1.264 . S
C1241 C1243 1.339 . S
C1241 H1268 0.931 . S
C1242 C1243 1.395 . S
C1242 C1244 1.320 . S
C1243 C1241 1.339 . S
C1243 C1242 1.395 . S
C1243 H1269 0.929 . S
C1244 C1242 1.320 . S
C1244 C1245 1.405 . S
C1244 H1270 0.930 . S
C1245 C1240 1.479 . S
C1245 C1244 1.405 . S
C1245 H1271 0.931 . S
U1246 O1247 2.454 . S
U1246 O1248 2.458 . S
U1246 C1249 2.984 . S
U1246 C1250 2.847 . S
U1246 C1263 2.882 . S
U1246 O1264 2.441 . S
U1246 O1265 2.420 . S
U1246 O1266 2.455 . S
U1246 O1267 2.449 . S
O1247 U1246 2.454 . S
O1247 C1249 1.353 . S
O1248 U1246 2.458 . S
O1248 C1249 1.286 . S
C1249 U1246 2.984 . S
C1249 O1247 1.353 . S
C1249 O1248 1.286 . S
C1249 C1251 1.363 . S
C1250 C1240 1.465 . S
C1250 U1246 2.847 . S
C1250 O1264 1.249 . S
C1250 O1265 1.202 . S
C1251 C1249 1.363 . S
C1251 C1253 1.408 . S
C1251 C1256 1.342 . S
C1252 C1253 1.310 . S
C1252 C1255 1.461 . S
C1252 H1272 0.932 . S
C1253 C1251 1.408 . S
C1253 C1252 1.310 . S
C1253 H1273 0.930 . S
C1254 C1255 1.474 . S
C1254 C1256 1.285 . S
C1254 H1274 0.929 . S
C1255 C1252 1.461 . S
C1255 C1254 1.474 . S
C1256 C1251 1.342 . S
C1256 C1254 1.285 . S
C1256 H1275 0.930 . S
C1257 C1260 1.424 . S
C1257 C1262 1.245 . S
C1257 C1263 1.428 . S
C1258 C1261 1.260 . S
C1258 C1262 1.477 . S
C1258 H1276 0.932 . S
C1259 C1260 1.384 . S
C1259 C1261 1.479 . S
C1259 H1277 0.929 . S
C1260 C1257 1.424 . S
C1260 C1259 1.384 . S
C1260 H1278 0.928 . S
C1261 C1258 1.260 . S
C1261 C1259 1.479 . S
C1262 C1257 1.245 . S
C1262 C1258 1.477 . S
C1262 H1279 0.932 . S
C1263 U1246 2.882 . S
C1263 C1257 1.428 . S
C1263 O1266 1.301 . S
C1263 O1267 1.282 . S
O1264 U1246 2.441 . S
O1264 C1250 1.249 . S
O1265 U1246 2.420 . S
O1265 C1250 1.202 . S
O1266 U1246 2.455 . S
O1266 C1263 1.301 . S
O1267 U1246 2.449 . S
O1267 C1263 1.282 . S
H1268 C1241 0.931 . S
H1269 C1243 0.929 . S
H1270 C1244 0.930 . S
H1271 C1245 0.931 . S
H1272 C1252 0.932 . S
H1273 C1253 0.930 . S
H1274 C1254 0.929 . S
H1275 C1256 0.930 . S
H1276 C1258 0.932 . S
H1277 C1259 0.929 . S
H1278 C1260 0.928 . S
H1279 C1262 0.932 . S
C1280 C1281 1.384 . S
C1280 C1282 1.384 . S
C1280 H1308 0.931 . S
C1281 C1280 1.384 . S
C1281 C1284 1.382 . S
C1282 C1280 1.384 . S
C1282 C1283 1.381 . S
C1282 H1309 0.930 . S
C1283 C1282 1.381 . S
C1283 C1285 1.381 . S
C1283 C1286 1.487 . S
C1284 C1281 1.382 . S
C1284 C1285 1.387 . S
C1284 H1310 0.930 . S
C1285 C1283 1.381 . S
C1285 C1284 1.387 . S
C1285 H1311 0.931 . S
C1286 C1283 1.487 . S
C1286 C1293 1.399 . S
C1286 N1324 1.343 . S
C1287 C1288 1.384 . S
C1287 C1289 1.384 . S
C1287 H1312 0.931 . S
C1288 C1287 1.384 . S
C1288 C1291 1.382 . S
C1289 C1287 1.384 . S
C1289 C1290 1.381 . S
C1289 H1313 0.930 . S
C1290 C1289 1.381 . S
C1290 C1292 1.381 . S
C1290 C1293 1.487 . S
C1291 C1288 1.382 . S
C1291 C1292 1.387 . S
C1291 H1314 0.930 . S
C1292 C1290 1.381 . S
C1292 C1291 1.387 . S
C1292 H1315 0.931 . S
C1293 C1286 1.399 . S
C1293 C1290 1.487 . S
C1293 N1325 1.343 . S
C1294 C1295 1.384 . S
C1294 C1296 1.384 . S
C1294 H1316 0.931 . S
C1295 C1294 1.384 . S
C1295 C1298 1.382 . S
C1296 C1294 1.384 . S
C1296 C1297 1.381 . S
C1296 H1317 0.930 . S
C1297 C1296 1.381 . S
C1297 C1299 1.381 . S
C1297 C1300 1.487 . S
C1298 C1295 1.382 . S
C1298 C1299 1.387 . S
C1298 H1318 0.930 . S
C1299 C1297 1.381 . S
C1299 C1298 1.387 . S
C1299 H1319 0.931 . S
C1300 C1297 1.487 . S
C1300 C1307 1.399 . S
C1300 N1325 1.343 1_556 S
C1301 C1302 1.384 . S
C1301 C1303 1.384 . S
C1301 H1320 0.931 . S
C1302 C1301 1.384 . S
C1302 C1305 1.382 . S
C1303 C1301 1.384 . S
C1303 C1304 1.381 . S
C1303 H1321 0.930 . S
C1304 C1303 1.381 . S
C1304 C1306 1.381 . S
C1304 C1307 1.487 . S
C1305 C1302 1.382 . S
C1305 C1306 1.387 . S
C1305 H1322 0.930 . S
C1306 C1304 1.381 . S
C1306 C1305 1.387 . S
C1306 H1323 0.931 . S
C1307 C1300 1.399 . S
C1307 C1304 1.487 . S
C1307 N1324 1.343 1_556 S
H1308 C1280 0.931 . S
H1309 C1282 0.930 . S
H1310 C1284 0.930 . S
H1311 C1285 0.931 . S
H1312 C1287 0.931 . S
H1313 C1289 0.930 . S
H1314 C1291 0.930 . S
H1315 C1292 0.931 . S
H1316 C1294 0.931 . S
H1317 C1296 0.930 . S
H1318 C1298 0.930 . S
H1319 C1299 0.931 . S
H1320 C1301 0.931 . S
H1321 C1303 0.930 . S
H1322 C1305 0.930 . S
H1323 C1306 0.931 . S
N1324 C1286 1.343 . S
N1324 C1307 1.343 1_554 S
N1325 C1293 1.343 . S
N1325 C1300 1.343 1_554 S
C1326 C1327 1.384 . S
C1326 C1328 1.384 . S
C1326 H1354 0.931 . S
C1327 C1326 1.384 . S
C1327 C1330 1.382 . S
C1328 C1326 1.384 . S
C1328 C1329 1.381 . S
C1328 H1355 0.930 . S
C1329 C1328 1.381 . S
C1329 C1331 1.381 . S
C1329 C1332 1.487 . S
C1330 C1327 1.382 . S
C1330 C1331 1.387 . S
C1330 H1356 0.930 . S
C1331 C1329 1.381 . S
C1331 C1330 1.387 . S
C1331 H1357 0.931 . S
C1332 C1329 1.487 . S
C1332 C1339 1.399 . S
C1332 N1370 1.343 1_556 S
C1333 C1334 1.384 . S
C1333 C1335 1.384 . S
C1333 H1358 0.931 . S
C1334 C1333 1.384 . S
C1334 C1337 1.382 . S
C1335 C1333 1.384 . S
C1335 C1336 1.381 . S
C1335 H1359 0.930 . S
C1336 C1335 1.381 . S
C1336 C1338 1.381 . S
C1336 C1339 1.487 . S
C1337 C1334 1.382 . S
C1337 C1338 1.387 . S
C1337 H1360 0.930 . S
C1338 C1336 1.381 . S
C1338 C1337 1.387 . S
C1338 H1361 0.931 . S
C1339 C1332 1.399 . S
C1339 C1336 1.487 . S
C1339 N1371 1.343 1_556 S
C1340 C1341 1.384 . S
C1340 C1342 1.384 . S
C1340 H1362 0.931 . S
C1341 C1340 1.384 . S
C1341 C1344 1.382 . S
C1342 C1340 1.384 . S
C1342 C1343 1.381 . S
C1342 H1363 0.930 . S
C1343 C1342 1.381 . S
C1343 C1345 1.381 . S
C1343 C1346 1.487 . S
C1344 C1341 1.382 . S
C1344 C1345 1.387 . S
C1344 H1364 0.930 . S
C1345 C1343 1.381 . S
C1345 C1344 1.387 . S
C1345 H1365 0.931 . S
C1346 C1343 1.487 . S
C1346 C1353 1.399 . S
C1346 N1371 1.343 . S
C1347 C1348 1.384 . S
C1347 C1349 1.384 . S
C1347 H1366 0.931 . S
C1348 C1347 1.384 . S
C1348 C1351 1.382 . S
C1349 C1347 1.384 . S
C1349 C1350 1.381 . S
C1349 H1367 0.930 . S
C1350 C1349 1.381 . S
C1350 C1352 1.381 . S
C1350 C1353 1.487 . S
C1351 C1348 1.382 . S
C1351 C1352 1.387 . S
C1351 H1368 0.930 . S
C1352 C1350 1.381 . S
C1352 C1351 1.387 . S
C1352 H1369 0.931 . S
C1353 C1346 1.399 . S
C1353 C1350 1.487 . S
C1353 N1370 1.343 . S
H1354 C1326 0.931 . S
H1355 C1328 0.930 . S
H1356 C1330 0.930 . S
H1357 C1331 0.931 . S
H1358 C1333 0.931 . S
H1359 C1335 0.930 . S
H1360 C1337 0.930 . S
H1361 C1338 0.931 . S
H1362 C1340 0.931 . S
H1363 C1342 0.930 . S
H1364 C1344 0.930 . S
H1365 C1345 0.931 . S
H1366 C1347 0.931 . S
H1367 C1349 0.930 . S
H1368 C1351 0.930 . S
H1369 C1352 0.931 . S
N1370 C1332 1.343 1_554 S
N1370 C1353 1.343 . S
N1371 C1339 1.343 1_554 S
N1371 C1346 1.343 . S
C1372 C1373 1.384 . S
C1372 C1374 1.384 . S
C1372 H1400 0.931 . S
C1373 C1372 1.384 . S
C1373 C1376 1.382 . S
C1374 C1372 1.384 . S
C1374 C1375 1.381 . S
C1374 H1401 0.930 . S
C1375 C1374 1.381 . S
C1375 C1377 1.381 . S
C1375 C1378 1.487 . S
C1376 C1373 1.382 . S
C1376 C1377 1.387 . S
C1376 H1402 0.930 . S
C1377 C1375 1.381 . S
C1377 C1376 1.387 . S
C1377 H1403 0.931 . S
C1378 C1375 1.487 . S
C1378 C1385 1.399 . S
C1378 N1416 1.343 . S
C1379 C1380 1.384 . S
C1379 C1381 1.384 . S
C1379 H1404 0.931 . S
C1380 C1379 1.384 . S
C1380 C1383 1.382 . S
C1381 C1379 1.384 . S
C1381 C1382 1.381 . S
C1381 H1405 0.930 . S
C1382 C1381 1.381 . S
C1382 C1384 1.381 . S
C1382 C1385 1.487 . S
C1383 C1380 1.382 . S
C1383 C1384 1.387 . S
C1383 H1406 0.930 . S
C1384 C1382 1.381 . S
C1384 C1383 1.387 . S
C1384 H1407 0.931 . S
C1385 C1378 1.399 . S
C1385 C1382 1.487 . S
C1385 N1417 1.343 . S
C1386 C1387 1.384 . S
C1386 C1388 1.384 . S
C1386 H1408 0.931 . S
C1387 C1386 1.384 . S
C1387 C1390 1.382 . S
C1388 C1386 1.384 . S
C1388 C1389 1.381 . S
C1388 H1409 0.930 . S
C1389 C1388 1.381 . S
C1389 C1391 1.381 . S
C1389 C1392 1.487 . S
C1390 C1387 1.382 . S
C1390 C1391 1.387 . S
C1390 H1410 0.930 . S
C1391 C1389 1.381 . S
C1391 C1390 1.387 . S
C1391 H1411 0.931 . S
C1392 C1389 1.487 . S
C1392 C1399 1.399 . S
C1392 N1417 1.343 1_556 S
C1393 C1394 1.384 . S
C1393 C1395 1.384 . S
C1393 H1412 0.931 . S
C1394 C1393 1.384 . S
C1394 C1397 1.382 . S
C1395 C1393 1.384 . S
C1395 C1396 1.381 . S
C1395 H1413 0.930 . S
C1396 C1395 1.381 . S
C1396 C1398 1.381 . S
C1396 C1399 1.487 . S
C1397 C1394 1.382 . S
C1397 C1398 1.387 . S
C1397 H1414 0.930 . S
C1398 C1396 1.381 . S
C1398 C1397 1.387 . S
C1398 H1415 0.931 . S
C1399 C1392 1.399 . S
C1399 C1396 1.487 . S
C1399 N1416 1.343 1_556 S
H1400 C1372 0.931 . S
H1401 C1374 0.930 . S
H1402 C1376 0.930 . S
H1403 C1377 0.931 . S
H1404 C1379 0.931 . S
H1405 C1381 0.930 . S
H1406 C1383 0.930 . S
H1407 C1384 0.931 . S
H1408 C1386 0.931 . S
H1409 C1388 0.930 . S
H1410 C1390 0.930 . S
H1411 C1391 0.931 . S
H1412 C1393 0.931 . S
H1413 C1395 0.930 . S
H1414 C1397 0.930 . S
H1415 C1398 0.931 . S
N1416 C1378 1.343 . S
N1416 C1399 1.343 1_554 S
N1417 C1385 1.343 . S
N1417 C1392 1.343 1_554 S
C1418 C1419 1.384 . S
C1418 C1420 1.384 . S
C1418 H1446 0.931 . S
C1419 C1418 1.384 . S
C1419 C1422 1.382 . S
C1420 C1418 1.384 . S
C1420 C1421 1.381 . S
C1420 H1447 0.930 . S
C1421 C1420 1.381 . S
C1421 C1423 1.381 . S
C1421 C1424 1.487 . S
C1422 C1419 1.382 . S
C1422 C1423 1.387 . S
C1422 H1448 0.930 . S
C1423 C1421 1.381 . S
C1423 C1422 1.387 . S
C1423 H1449 0.931 . S
C1424 C1421 1.487 . S
C1424 C1431 1.399 . S
C1424 N1462 1.343 1_556 S
C1425 C1426 1.384 . S
C1425 C1427 1.384 . S
C1425 H1450 0.931 . S
C1426 C1425 1.384 . S
C1426 C1429 1.382 . S
C1427 C1425 1.384 . S
C1427 C1428 1.381 . S
C1427 H1451 0.930 . S
C1428 C1427 1.381 . S
C1428 C1430 1.381 . S
C1428 C1431 1.487 . S
C1429 C1426 1.382 . S
C1429 C1430 1.387 . S
C1429 H1452 0.930 . S
C1430 C1428 1.381 . S
C1430 C1429 1.387 . S
C1430 H1453 0.931 . S
C1431 C1424 1.399 . S
C1431 C1428 1.487 . S
C1431 N1463 1.343 1_556 S
C1432 C1433 1.384 . S
C1432 C1434 1.384 . S
C1432 H1454 0.931 . S
C1433 C1432 1.384 . S
C1433 C1436 1.382 . S
C1434 C1432 1.384 . S
C1434 C1435 1.381 . S
C1434 H1455 0.930 . S
C1435 C1434 1.381 . S
C1435 C1437 1.381 . S
C1435 C1438 1.487 . S
C1436 C1433 1.382 . S
C1436 C1437 1.387 . S
C1436 H1456 0.930 . S
C1437 C1435 1.381 . S
C1437 C1436 1.387 . S
C1437 H1457 0.931 . S
C1438 C1435 1.487 . S
C1438 C1445 1.399 . S
C1438 N1463 1.343 . S
C1439 C1440 1.384 . S
C1439 C1441 1.384 . S
C1439 H1458 0.931 . S
C1440 C1439 1.384 . S
C1440 C1443 1.382 . S
C1441 C1439 1.384 . S
C1441 C1442 1.381 . S
C1441 H1459 0.930 . S
C1442 C1441 1.381 . S
C1442 C1444 1.381 . S
C1442 C1445 1.487 . S
C1443 C1440 1.382 . S
C1443 C1444 1.387 . S
C1443 H1460 0.930 . S
C1444 C1442 1.381 . S
C1444 C1443 1.387 . S
C1444 H1461 0.931 . S
C1445 C1438 1.399 . S
C1445 C1442 1.487 . S
C1445 N1462 1.343 . S
H1446 C1418 0.931 . S
H1447 C1420 0.930 . S
H1448 C1422 0.930 . S
H1449 C1423 0.931 . S
H1450 C1425 0.931 . S
H1451 C1427 0.930 . S
H1452 C1429 0.930 . S
H1453 C1430 0.931 . S
H1454 C1432 0.931 . S
H1455 C1434 0.930 . S
H1456 C1436 0.930 . S
H1457 C1437 0.931 . S
H1458 C1439 0.931 . S
H1459 C1441 0.930 . S
H1460 C1443 0.930 . S
H1461 C1444 0.931 . S
N1462 C1424 1.343 1_554 S
N1462 C1445 1.343 . S
N1463 C1431 1.343 1_554 S
N1463 C1438 1.343 . S
C1464 C1465 1.384 . S
C1464 C1466 1.384 . S
C1464 H1492 0.931 . S
C1465 C1464 1.384 . S
C1465 C1468 1.382 . S
C1466 C1464 1.384 . S
C1466 C1467 1.381 . S
C1466 H1493 0.930 . S
C1467 C1466 1.381 . S
C1467 C1469 1.381 . S
C1467 C1470 1.487 . S
C1468 C1465 1.382 . S
C1468 C1469 1.387 . S
C1468 H1494 0.930 . S
C1469 C1467 1.381 . S
C1469 C1468 1.387 . S
C1469 H1495 0.931 . S
C1470 C1467 1.487 . S
C1470 C1477 1.399 . S
C1470 N1508 1.343 1_655 S
C1471 C1472 1.384 . S
C1471 C1473 1.384 . S
C1471 H1496 0.931 . S
C1472 C1471 1.384 . S
C1472 C1475 1.382 . S
C1473 C1471 1.384 . S
C1473 C1474 1.381 . S
C1473 H1497 0.930 . S
C1474 C1473 1.381 . S
C1474 C1476 1.381 . S
C1474 C1477 1.487 . S
C1475 C1472 1.382 . S
C1475 C1476 1.387 . S
C1475 H1498 0.930 . S
C1476 C1474 1.381 . S
C1476 C1475 1.387 . S
C1476 H1499 0.931 . S
C1477 C1470 1.399 . S
C1477 C1474 1.487 . S
C1477 N1509 1.343 1_655 S
C1478 C1479 1.384 . S
C1478 C1480 1.384 . S
C1478 H1500 0.931 . S
C1479 C1478 1.384 . S
C1479 C1482 1.382 . S
C1480 C1478 1.384 . S
C1480 C1481 1.381 . S
C1480 H1501 0.930 . S
C1481 C1480 1.381 . S
C1481 C1483 1.381 . S
C1481 C1484 1.487 . S
C1482 C1479 1.382 . S
C1482 C1483 1.387 . S
C1482 H1502 0.930 . S
C1483 C1481 1.381 . S
C1483 C1482 1.387 . S
C1483 H1503 0.931 . S
C1484 C1481 1.487 . S
C1484 C1491 1.399 . S
C1484 N1509 1.343 . S
C1485 C1486 1.384 . S
C1485 C1487 1.384 . S
C1485 H1504 0.931 . S
C1486 C1485 1.384 . S
C1486 C1489 1.382 . S
C1487 C1485 1.384 . S
C1487 C1488 1.381 . S
C1487 H1505 0.930 . S
C1488 C1487 1.381 . S
C1488 C1490 1.381 . S
C1488 C1491 1.487 . S
C1489 C1486 1.382 . S
C1489 C1490 1.387 . S
C1489 H1506 0.930 . S
C1490 C1488 1.381 . S
C1490 C1489 1.387 . S
C1490 H1507 0.931 . S
C1491 C1484 1.399 . S
C1491 C1488 1.487 . S
C1491 N1508 1.343 . S
H1492 C1464 0.931 . S
H1493 C1466 0.930 . S
H1494 C1468 0.930 . S
H1495 C1469 0.931 . S
H1496 C1471 0.931 . S
H1497 C1473 0.930 . S
H1498 C1475 0.930 . S
H1499 C1476 0.931 . S
H1500 C1478 0.931 . S
H1501 C1480 0.930 . S
H1502 C1482 0.930 . S
H1503 C1483 0.931 . S
H1504 C1485 0.931 . S
H1505 C1487 0.930 . S
H1506 C1489 0.930 . S
H1507 C1490 0.931 . S
N1508 C1470 1.343 1_455 S
N1508 C1491 1.343 . S
N1509 C1477 1.343 1_455 S
N1509 C1484 1.343 . S
C1510 C1511 1.384 . S
C1510 C1512 1.384 . S
C1510 H1538 0.931 . S
C1511 C1510 1.384 . S
C1511 C1514 1.382 . S
C1512 C1510 1.384 . S
C1512 C1513 1.381 . S
C1512 H1539 0.930 . S
C1513 C1512 1.381 . S
C1513 C1515 1.381 . S
C1513 C1516 1.487 . S
C1514 C1511 1.382 . S
C1514 C1515 1.387 . S
C1514 H1540 0.930 . S
C1515 C1513 1.381 . S
C1515 C1514 1.387 . S
C1515 H1541 0.931 . S
C1516 C1513 1.487 . S
C1516 C1523 1.399 . S
C1516 N1554 1.292 1_565 S
C1517 C1518 1.384 . S
C1517 C1519 1.384 . S
C1517 H1542 0.931 . S
C1518 C1517 1.384 . S
C1518 C1521 1.382 . S
C1519 C1517 1.384 . S
C1519 C1520 1.381 . S
C1519 H1543 0.930 . S
C1520 C1519 1.381 . S
C1520 C1522 1.381 . S
C1520 C1523 1.487 . S
C1521 C1518 1.382 . S
C1521 C1522 1.387 . S
C1521 H1544 0.930 . S
C1522 C1520 1.381 . S
C1522 C1521 1.387 . S
C1522 H1545 0.931 . S
C1523 C1516 1.399 . S
C1523 C1520 1.487 . S
C1523 N1555 1.343 1_565 S
C1524 C1525 1.384 . S
C1524 C1526 1.384 . S
C1524 H1546 0.931 . S
C1525 C1524 1.384 . S
C1525 C1528 1.382 . S
C1526 C1524 1.384 . S
C1526 C1527 1.381 . S
C1526 H1547 0.930 . S
C1527 C1526 1.381 . S
C1527 C1529 1.381 . S
C1527 C1530 1.487 . S
C1528 C1525 1.382 . S
C1528 C1529 1.387 . S
C1528 H1548 0.930 . S
C1529 C1527 1.381 . S
C1529 C1528 1.387 . S
C1529 H1549 0.931 . S
C1530 C1527 1.487 . S
C1530 C1537 1.399 . S
C1530 N1555 1.343 . S
C1531 C1532 1.384 . S
C1531 C1533 1.384 . S
C1531 H1550 0.931 . S
C1532 C1531 1.384 . S
C1532 C1535 1.382 . S
C1533 C1531 1.384 . S
C1533 C1534 1.381 . S
C1533 H1551 0.930 . S
C1534 C1533 1.381 . S
C1534 C1536 1.381 . S
C1534 C1537 1.487 . S
C1535 C1532 1.382 . S
C1535 C1536 1.387 . S
C1535 H1552 0.930 . S
C1536 C1534 1.381 . S
C1536 C1535 1.387 . S
C1536 H1553 0.931 . S
C1537 C1530 1.399 . S
C1537 C1534 1.487 . S
C1537 N1554 1.395 . S
H1538 C1510 0.931 . S
H1539 C1512 0.930 . S
H1540 C1514 0.930 . S
H1541 C1515 0.931 . S
H1542 C1517 0.931 . S
H1543 C1519 0.930 . S
H1544 C1521 0.930 . S
H1545 C1522 0.931 . S
H1546 C1524 0.931 . S
H1547 C1526 0.930 . S
H1548 C1528 0.930 . S
H1549 C1529 0.931 . S
H1550 C1531 0.931 . S
H1551 C1533 0.930 . S
H1552 C1535 0.930 . S
H1553 C1536 0.931 . S
N1554 C1516 1.292 1_545 S
N1554 C1537 1.395 . S
N1555 C1523 1.343 1_545 S
N1555 C1530 1.343 . S
C1556 C1557 1.384 . S
C1556 C1558 1.384 . S
C1556 H1584 0.931 . S
C1557 C1556 1.384 . S
C1557 C1560 1.382 . S
C1558 C1556 1.384 . S
C1558 C1559 1.381 . S
C1558 H1585 0.930 . S
C1559 C1558 1.381 . S
C1559 C1561 1.381 . S
C1559 C1562 1.487 . S
C1560 C1557 1.382 . S
C1560 C1561 1.387 . S
C1560 H1586 0.930 . S
C1561 C1559 1.381 . S
C1561 C1560 1.387 . S
C1561 H1587 0.931 . S
C1562 C1559 1.487 . S
C1562 C1569 1.399 . S
C1562 N1600 1.343 . S
C1563 C1564 1.384 . S
C1563 C1565 1.384 . S
C1563 H1588 0.931 . S
C1564 C1563 1.384 . S
C1564 C1567 1.382 . S
C1565 C1563 1.384 . S
C1565 C1566 1.381 . S
C1565 H1589 0.930 . S
C1566 C1565 1.381 . S
C1566 C1568 1.381 . S
C1566 C1569 1.487 . S
C1567 C1564 1.382 . S
C1567 C1568 1.387 . S
C1567 H1590 0.930 . S
C1568 C1566 1.381 . S
C1568 C1567 1.387 . S
C1568 H1591 0.931 . S
C1569 C1562 1.399 . S
C1569 C1566 1.487 . S
C1569 N1601 1.417 . S
C1570 C1571 1.384 . S
C1570 C1572 1.384 . S
C1570 H1592 0.931 . S
C1571 C1570 1.384 . S
C1571 C1574 1.382 . S
C1572 C1570 1.384 . S
C1572 C1573 1.381 . S
C1572 H1593 0.930 . S
C1573 C1572 1.381 . S
C1573 C1575 1.381 . S
C1573 C1576 1.487 . S
C1574 C1571 1.382 . S
C1574 C1575 1.387 . S
C1574 H1594 0.930 . S
C1575 C1573 1.381 . S
C1575 C1574 1.387 . S
C1575 H1595 0.931 . S
C1576 C1573 1.487 . S
C1576 C1583 1.399 . S
C1576 N1601 1.271 1_655 S
C1577 C1578 1.384 . S
C1577 C1579 1.384 . S
C1577 H1596 0.931 . S
C1578 C1577 1.384 . S
C1578 C1581 1.382 . S
C1579 C1577 1.384 . S
C1579 C1580 1.381 . S
C1579 H1597 0.930 . S
C1580 C1579 1.381 . S
C1580 C1582 1.381 . S
C1580 C1583 1.487 . S
C1581 C1578 1.382 . S
C1581 C1582 1.387 . S
C1581 H1598 0.930 . S
C1582 C1580 1.381 . S
C1582 C1581 1.387 . S
C1582 H1599 0.931 . S
C1583 C1576 1.399 . S
C1583 C1580 1.487 . S
C1583 N1600 1.343 1_655 S
H1584 C1556 0.931 . S
H1585 C1558 0.930 . S
H1586 C1560 0.930 . S
H1587 C1561 0.931 . S
H1588 C1563 0.931 . S
H1589 C1565 0.930 . S
H1590 C1567 0.930 . S
H1591 C1568 0.931 . S
H1592 C1570 0.931 . S
H1593 C1572 0.930 . S
H1594 C1574 0.930 . S
H1595 C1575 0.931 . S
H1596 C1577 0.931 . S
H1597 C1579 0.930 . S
H1598 C1581 0.930 . S
H1599 C1582 0.931 . S
N1600 C1562 1.343 . S
N1600 C1583 1.343 1_455 S
N1601 C1569 1.417 . S
N1601 C1576 1.271 1_455 S
C1602 C1603 1.384 . S
C1602 C1604 1.384 . S
C1602 H1630 0.931 . S
C1603 C1602 1.384 . S
C1603 C1606 1.382 . S
C1604 C1602 1.384 . S
C1604 C1605 1.381 . S
C1604 H1631 0.930 . S
C1605 C1604 1.381 . S
C1605 C1607 1.381 . S
C1605 C1608 1.487 . S
C1606 C1603 1.382 . S
C1606 C1607 1.387 . S
C1606 H1632 0.930 . S
C1607 C1605 1.381 . S
C1607 C1606 1.387 . S
C1607 H1633 0.931 . S
C1608 C1605 1.487 . S
C1608 C1615 1.399 . S
C1608 N1646 1.343 1_565 S
C1609 C1610 1.384 . S
C1609 C1611 1.384 . S
C1609 H1634 0.931 . S
C1610 C1609 1.384 . S
C1610 C1613 1.382 . S
C1611 C1609 1.384 . S
C1611 C1612 1.381 . S
C1611 H1635 0.930 . S
C1612 C1611 1.381 . S
C1612 C1614 1.381 . S
C1612 C1615 1.487 . S
C1613 C1610 1.382 . S
C1613 C1614 1.387 . S
C1613 H1636 0.930 . S
C1614 C1612 1.381 . S
C1614 C1613 1.387 . S
C1614 H1637 0.931 . S
C1615 C1608 1.399 . S
C1615 C1612 1.487 . S
C1615 N1647 1.343 1_565 S
C1616 C1617 1.384 . S
C1616 C1618 1.384 . S
C1616 H1638 0.931 . S
C1617 C1616 1.384 . S
C1617 C1620 1.382 . S
C1618 C1616 1.384 . S
C1618 C1619 1.381 . S
C1618 H1639 0.930 . S
C1619 C1618 1.381 . S
C1619 C1621 1.381 . S
C1619 C1622 1.487 . S
C1620 C1617 1.382 . S
C1620 C1621 1.387 . S
C1620 H1640 0.930 . S
C1621 C1619 1.381 . S
C1621 C1620 1.387 . S
C1621 H1641 0.931 . S
C1622 C1619 1.487 . S
C1622 C1629 1.399 . S
C1622 N1647 1.343 . S
C1623 C1624 1.384 . S
C1623 C1625 1.384 . S
C1623 H1642 0.931 . S
C1624 C1623 1.384 . S
C1624 C1627 1.382 . S
C1625 C1623 1.384 . S
C1625 C1626 1.381 . S
C1625 H1643 0.930 . S
C1626 C1625 1.381 . S
C1626 C1628 1.381 . S
C1626 C1629 1.487 . S
C1627 C1624 1.382 . S
C1627 C1628 1.387 . S
C1627 H1644 0.930 . S
C1628 C1626 1.381 . S
C1628 C1627 1.387 . S
C1628 H1645 0.931 . S
C1629 C1622 1.399 . S
C1629 C1626 1.487 . S
C1629 N1646 1.343 . S
H1630 C1602 0.931 . S
H1631 C1604 0.930 . S
H1632 C1606 0.930 . S
H1633 C1607 0.931 . S
H1634 C1609 0.931 . S
H1635 C1611 0.930 . S
H1636 C1613 0.930 . S
H1637 C1614 0.931 . S
H1638 C1616 0.931 . S
H1639 C1618 0.930 . S
H1640 C1620 0.930 . S
H1641 C1621 0.931 . S
H1642 C1623 0.931 . S
H1643 C1625 0.930 . S
H1644 C1627 0.930 . S
H1645 C1628 0.931 . S
N1646 C1608 1.343 1_545 S
N1646 C1629 1.343 . S
N1647 C1615 1.343 1_545 S
N1647 C1622 1.343 . S
C1648 C1649 1.384 . S
C1648 C1650 1.384 . S
C1648 H1676 0.931 . S
C1649 C1648 1.384 . S
C1649 C1652 1.382 . S
C1650 C1648 1.384 . S
C1650 C1651 1.381 . S
C1650 H1677 0.930 . S
C1651 C1650 1.381 . S
C1651 C1653 1.381 . S
C1651 C1654 1.487 . S
C1652 C1649 1.382 . S
C1652 C1653 1.387 . S
C1652 H1678 0.930 . S
C1653 C1651 1.381 . S
C1653 C1652 1.387 . S
C1653 H1679 0.931 . S
C1654 C1651 1.487 . S
C1654 C1661 1.399 . S
C1654 N1692 1.343 1_655 S
C1655 C1656 1.384 . S
C1655 C1657 1.384 . S
C1655 H1680 0.931 . S
C1656 C1655 1.384 . S
C1656 C1659 1.382 . S
C1657 C1655 1.384 . S
C1657 C1658 1.381 . S
C1657 H1681 0.930 . S
C1658 C1657 1.381 . S
C1658 C1660 1.381 . S
C1658 C1661 1.487 . S
C1659 C1656 1.382 . S
C1659 C1660 1.387 . S
C1659 H1682 0.930 . S
C1660 C1658 1.381 . S
C1660 C1659 1.387 . S
C1660 H1683 0.931 . S
C1661 C1654 1.399 . S
C1661 C1658 1.487 . S
C1661 N1693 1.343 1_655 S
C1662 C1663 1.384 . S
C1662 C1664 1.384 . S
C1662 H1684 0.931 . S
C1663 C1662 1.384 . S
C1663 C1666 1.382 . S
C1664 C1662 1.384 . S
C1664 C1665 1.381 . S
C1664 H1685 0.930 . S
C1665 C1664 1.381 . S
C1665 C1667 1.381 . S
C1665 C1668 1.487 . S
C1666 C1663 1.382 . S
C1666 C1667 1.387 . S
C1666 H1686 0.930 . S
C1667 C1665 1.381 . S
C1667 C1666 1.387 . S
C1667 H1687 0.931 . S
C1668 C1665 1.487 . S
C1668 C1675 1.399 . S
C1668 N1693 1.343 . S
C1669 C1670 1.384 . S
C1669 C1671 1.384 . S
C1669 H1688 0.931 . S
C1670 C1669 1.384 . S
C1670 C1673 1.382 . S
C1671 C1669 1.384 . S
C1671 C1672 1.381 . S
C1671 H1689 0.930 . S
C1672 C1671 1.381 . S
C1672 C1674 1.381 . S
C1672 C1675 1.487 . S
C1673 C1670 1.382 . S
C1673 C1674 1.387 . S
C1673 H1690 0.930 . S
C1674 C1672 1.381 . S
C1674 C1673 1.387 . S
C1674 H1691 0.931 . S
C1675 C1668 1.399 . S
C1675 C1672 1.487 . S
C1675 N1692 1.343 . S
H1676 C1648 0.931 . S
H1677 C1650 0.930 . S
H1678 C1652 0.930 . S
H1679 C1653 0.931 . S
H1680 C1655 0.931 . S
H1681 C1657 0.930 . S
H1682 C1659 0.930 . S
H1683 C1660 0.931 . S
H1684 C1662 0.931 . S
H1685 C1664 0.930 . S
H1686 C1666 0.930 . S
H1687 C1667 0.931 . S
H1688 C1669 0.931 . S
H1689 C1671 0.930 . S
H1690 C1673 0.930 . S
H1691 C1674 0.931 . S
N1692 C1654 1.343 1_455 S
N1692 C1675 1.343 . S
N1693 C1661 1.343 1_455 S
N1693 C1668 1.343 . S
C1694 C1695 1.384 . S
C1694 C1696 1.384 . S
C1694 H1722 0.931 . S
C1695 C1694 1.384 . S
C1695 C1698 1.382 . S
C1696 C1694 1.384 . S
C1696 C1697 1.381 . S
C1696 H1723 0.930 . S
C1697 C1696 1.381 . S
C1697 C1699 1.381 . S
C1697 C1700 1.487 . S
C1698 C1695 1.382 . S
C1698 C1699 1.387 . S
C1698 H1724 0.930 . S
C1699 C1697 1.381 . S
C1699 C1698 1.387 . S
C1699 H1725 0.931 . S
C1700 C1697 1.487 . S
C1700 C1707 1.399 . S
C1700 N1738 1.293 1_565 S
C1701 C1702 1.384 . S
C1701 C1703 1.384 . S
C1701 H1726 0.931 . S
C1702 C1701 1.384 . S
C1702 C1705 1.382 . S
C1703 C1701 1.384 . S
C1703 C1704 1.381 . S
C1703 H1727 0.930 . S
C1704 C1703 1.381 . S
C1704 C1706 1.381 . S
C1704 C1707 1.487 . S
C1705 C1702 1.382 . S
C1705 C1706 1.387 . S
C1705 H1728 0.930 . S
C1706 C1704 1.381 . S
C1706 C1705 1.387 . S
C1706 H1729 0.931 . S
C1707 C1700 1.399 . S
C1707 C1704 1.487 . S
C1707 N1739 1.343 1_565 S
C1708 C1709 1.384 . S
C1708 C1710 1.384 . S
C1708 H1730 0.931 . S
C1709 C1708 1.384 . S
C1709 C1712 1.382 . S
C1710 C1708 1.384 . S
C1710 C1711 1.381 . S
C1710 H1731 0.930 . S
C1711 C1710 1.381 . S
C1711 C1713 1.381 . S
C1711 C1714 1.487 . S
C1712 C1709 1.382 . S
C1712 C1713 1.387 . S
C1712 H1732 0.930 . S
C1713 C1711 1.381 . S
C1713 C1712 1.387 . S
C1713 H1733 0.931 . S
C1714 C1711 1.487 . S
C1714 C1721 1.399 . S
C1714 N1739 1.343 . S
C1715 C1716 1.384 . S
C1715 C1717 1.384 . S
C1715 H1734 0.931 . S
C1716 C1715 1.384 . S
C1716 C1719 1.382 . S
C1717 C1715 1.384 . S
C1717 C1718 1.381 . S
C1717 H1735 0.930 . S
C1718 C1717 1.381 . S
C1718 C1720 1.381 . S
C1718 C1721 1.487 . S
C1719 C1716 1.382 . S
C1719 C1720 1.387 . S
C1719 H1736 0.930 . S
C1720 C1718 1.381 . S
C1720 C1719 1.387 . S
C1720 H1737 0.931 . S
C1721 C1714 1.399 . S
C1721 C1718 1.487 . S
C1721 N1738 1.394 . S
H1722 C1694 0.931 . S
H1723 C1696 0.930 . S
H1724 C1698 0.930 . S
H1725 C1699 0.931 . S
H1726 C1701 0.931 . S
H1727 C1703 0.930 . S
H1728 C1705 0.930 . S
H1729 C1706 0.931 . S
H1730 C1708 0.931 . S
H1731 C1710 0.930 . S
H1732 C1712 0.930 . S
H1733 C1713 0.931 . S
H1734 C1715 0.931 . S
H1735 C1717 0.930 . S
H1736 C1719 0.930 . S
H1737 C1720 0.931 . S
N1738 C1700 1.293 1_545 S
N1738 C1721 1.394 . S
N1739 C1707 1.343 1_545 S
N1739 C1714 1.343 . S
C1740 C1741 1.384 . S
C1740 C1742 1.384 . S
C1740 H1768 0.931 . S
C1741 C1740 1.384 . S
C1741 C1744 1.382 . S
C1742 C1740 1.384 . S
C1742 C1743 1.381 . S
C1742 H1769 0.930 . S
C1743 C1742 1.381 . S
C1743 C1745 1.381 . S
C1743 C1746 1.487 . S
C1744 C1741 1.382 . S
C1744 C1745 1.387 . S
C1744 H1770 0.930 . S
C1745 C1743 1.381 . S
C1745 C1744 1.387 . S
C1745 H1771 0.931 . S
C1746 C1743 1.487 . S
C1746 C1753 1.399 . S
C1746 N1784 1.343 . S
C1747 C1748 1.384 . S
C1747 C1749 1.384 . S
C1747 H1772 0.931 . S
C1748 C1747 1.384 . S
C1748 C1751 1.382 . S
C1749 C1747 1.384 . S
C1749 C1750 1.381 . S
C1749 H1773 0.930 . S
C1750 C1749 1.381 . S
C1750 C1752 1.381 . S
C1750 C1753 1.487 . S
C1751 C1748 1.382 . S
C1751 C1752 1.387 . S
C1751 H1774 0.930 . S
C1752 C1750 1.381 . S
C1752 C1751 1.387 . S
C1752 H1775 0.931 . S
C1753 C1746 1.399 . S
C1753 C1750 1.487 . S
C1753 N1785 1.416 . S
C1754 C1755 1.384 . S
C1754 C1756 1.384 . S
C1754 H1776 0.931 . S
C1755 C1754 1.384 . S
C1755 C1758 1.382 . S
C1756 C1754 1.384 . S
C1756 C1757 1.381 . S
C1756 H1777 0.930 . S
C1757 C1756 1.381 . S
C1757 C1759 1.381 . S
C1757 C1760 1.487 . S
C1758 C1755 1.382 . S
C1758 C1759 1.387 . S
C1758 H1778 0.930 . S
C1759 C1757 1.381 . S
C1759 C1758 1.387 . S
C1759 H1779 0.931 . S
C1760 C1757 1.487 . S
C1760 C1767 1.399 . S
C1760 N1785 1.272 1_655 S
C1761 C1762 1.384 . S
C1761 C1763 1.384 . S
C1761 H1780 0.931 . S
C1762 C1761 1.384 . S
C1762 C1765 1.382 . S
C1763 C1761 1.384 . S
C1763 C1764 1.381 . S
C1763 H1781 0.930 . S
C1764 C1763 1.381 . S
C1764 C1766 1.381 . S
C1764 C1767 1.487 . S
C1765 C1762 1.382 . S
C1765 C1766 1.387 . S
C1765 H1782 0.930 . S
C1766 C1764 1.381 . S
C1766 C1765 1.387 . S
C1766 H1783 0.931 . S
C1767 C1760 1.399 . S
C1767 C1764 1.487 . S
C1767 N1784 1.343 1_655 S
H1768 C1740 0.931 . S
H1769 C1742 0.930 . S
H1770 C1744 0.930 . S
H1771 C1745 0.931 . S
H1772 C1747 0.931 . S
H1773 C1749 0.930 . S
H1774 C1751 0.930 . S
H1775 C1752 0.931 . S
H1776 C1754 0.931 . S
H1777 C1756 0.930 . S
H1778 C1758 0.930 . S
H1779 C1759 0.931 . S
H1780 C1761 0.931 . S
H1781 C1763 0.930 . S
H1782 C1765 0.930 . S
H1783 C1766 0.931 . S
N1784 C1746 1.343 . S
N1784 C1767 1.343 1_455 S
N1785 C1753 1.416 . S
N1785 C1760 1.272 1_455 S
C1786 C1787 1.384 . S
C1786 C1788 1.384 . S
C1786 H1814 0.931 . S
C1787 C1786 1.384 . S
C1787 C1790 1.382 . S
C1788 C1786 1.384 . S
C1788 C1789 1.381 . S
C1788 H1815 0.930 . S
C1789 C1788 1.381 . S
C1789 C1791 1.381 . S
C1789 C1792 1.487 . S
C1790 C1787 1.382 . S
C1790 C1791 1.387 . S
C1790 H1816 0.930 . S
C1791 C1789 1.381 . S
C1791 C1790 1.387 . S
C1791 H1817 0.931 . S
C1792 C1789 1.487 . S
C1792 C1799 1.399 . S
C1792 N1830 1.343 1_565 S
C1793 C1794 1.384 . S
C1793 C1795 1.384 . S
C1793 H1818 0.931 . S
C1794 C1793 1.384 . S
C1794 C1797 1.382 . S
C1795 C1793 1.384 . S
C1795 C1796 1.381 . S
C1795 H1819 0.930 . S
C1796 C1795 1.381 . S
C1796 C1798 1.381 . S
C1796 C1799 1.487 . S
C1797 C1794 1.382 . S
C1797 C1798 1.387 . S
C1797 H1820 0.930 . S
C1798 C1796 1.381 . S
C1798 C1797 1.387 . S
C1798 H1821 0.931 . S
C1799 C1792 1.399 . S
C1799 C1796 1.487 . S
C1799 N1831 1.343 1_565 S
C1800 C1801 1.384 . S
C1800 C1802 1.384 . S
C1800 H1822 0.931 . S
C1801 C1800 1.384 . S
C1801 C1804 1.382 . S
C1802 C1800 1.384 . S
C1802 C1803 1.381 . S
C1802 H1823 0.930 . S
C1803 C1802 1.381 . S
C1803 C1805 1.381 . S
C1803 C1806 1.487 . S
C1804 C1801 1.382 . S
C1804 C1805 1.387 . S
C1804 H1824 0.930 . S
C1805 C1803 1.381 . S
C1805 C1804 1.387 . S
C1805 H1825 0.931 . S
C1806 C1803 1.487 . S
C1806 C1813 1.399 . S
C1806 N1831 1.343 . S
C1807 C1808 1.384 . S
C1807 C1809 1.384 . S
C1807 H1826 0.931 . S
C1808 C1807 1.384 . S
C1808 C1811 1.382 . S
C1809 C1807 1.384 . S
C1809 C1810 1.381 . S
C1809 H1827 0.930 . S
C1810 C1809 1.381 . S
C1810 C1812 1.381 . S
C1810 C1813 1.487 . S
C1811 C1808 1.382 . S
C1811 C1812 1.387 . S
C1811 H1828 0.930 . S
C1812 C1810 1.381 . S
C1812 C1811 1.387 . S
C1812 H1829 0.931 . S
C1813 C1806 1.399 . S
C1813 C1810 1.487 . S
C1813 N1830 1.343 . S
H1814 C1786 0.931 . S
H1815 C1788 0.930 . S
H1816 C1790 0.930 . S
H1817 C1791 0.931 . S
H1818 C1793 0.931 . S
H1819 C1795 0.930 . S
H1820 C1797 0.930 . S
H1821 C1798 0.931 . S
H1822 C1800 0.931 . S
H1823 C1802 0.930 . S
H1824 C1804 0.930 . S
H1825 C1805 0.931 . S
H1826 C1807 0.931 . S
H1827 C1809 0.930 . S
H1828 C1811 0.930 . S
H1829 C1812 0.931 . S
N1830 C1792 1.343 1_545 S
N1830 C1813 1.343 . S
N1831 C1799 1.343 1_545 S
N1831 C1806 1.343 . S
C1832 C1833 1.384 . S
C1832 C1834 1.384 . S
C1832 H1860 0.931 . S
C1833 C1832 1.384 . S
C1833 C1836 1.382 . S
C1834 C1832 1.384 . S
C1834 C1835 1.381 . S
C1834 H1861 0.930 . S
C1835 C1834 1.381 . S
C1835 C1837 1.381 . S
C1835 C1838 1.487 . S
C1836 C1833 1.382 . S
C1836 C1837 1.387 . S
C1836 H1862 0.930 . S
C1837 C1835 1.381 . S
C1837 C1836 1.387 . S
C1837 H1863 0.931 . S
C1838 C1835 1.487 . S
C1838 C1845 1.399 . S
C1838 N1876 1.343 . S
C1839 C1840 1.384 . S
C1839 C1841 1.384 . S
C1839 H1864 0.931 . S
C1840 C1839 1.384 . S
C1840 C1843 1.382 . S
C1841 C1839 1.384 . S
C1841 C1842 1.381 . S
C1841 H1865 0.930 . S
C1842 C1841 1.381 . S
C1842 C1844 1.381 . S
C1842 C1845 1.487 . S
C1843 C1840 1.382 . S
C1843 C1844 1.387 . S
C1843 H1866 0.930 . S
C1844 C1842 1.381 . S
C1844 C1843 1.387 . S
C1844 H1867 0.931 . S
C1845 C1838 1.399 . S
C1845 C1842 1.487 . S
C1845 N1877 1.343 . S
C1846 C1847 1.384 . S
C1846 C1848 1.384 . S
C1846 H1868 0.931 . S
C1847 C1846 1.384 . S
C1847 C1850 1.382 . S
C1848 C1846 1.384 . S
C1848 C1849 1.381 . S
C1848 H1869 0.930 . S
C1849 C1848 1.381 . S
C1849 C1851 1.381 . S
C1849 C1852 1.487 . S
C1850 C1847 1.382 . S
C1850 C1851 1.387 . S
C1850 H1870 0.930 . S
C1851 C1849 1.381 . S
C1851 C1850 1.387 . S
C1851 H1871 0.931 . S
C1852 C1849 1.487 . S
C1852 C1859 1.399 . S
C1852 N1877 1.343 . S
C1853 C1854 1.384 . S
C1853 C1855 1.384 . S
C1853 H1872 0.931 . S
C1854 C1853 1.384 . S
C1854 C1857 1.382 . S
C1855 C1853 1.384 . S
C1855 C1856 1.381 . S
C1855 H1873 0.930 . S
C1856 C1855 1.381 . S
C1856 C1858 1.381 . S
C1856 C1859 1.487 . S
C1857 C1854 1.382 . S
C1857 C1858 1.387 . S
C1857 H1874 0.930 . S
C1858 C1856 1.381 . S
C1858 C1857 1.387 . S
C1858 H1875 0.931 . S
C1859 C1852 1.399 . S
C1859 C1856 1.487 . S
C1859 N1876 1.343 . S
H1860 C1832 0.931 . S
H1861 C1834 0.930 . S
H1862 C1836 0.930 . S
H1863 C1837 0.931 . S
H1864 C1839 0.931 . S
H1865 C1841 0.930 . S
H1866 C1843 0.930 . S
H1867 C1844 0.931 . S
H1868 C1846 0.931 . S
H1869 C1848 0.930 . S
H1870 C1850 0.930 . S
H1871 C1851 0.931 . S
H1872 C1853 0.931 . S
H1873 C1855 0.930 . S
H1874 C1857 0.930 . S
H1875 C1858 0.931 . S
N1876 C1838 1.343 . S
N1876 C1859 1.343 . S
N1877 C1845 1.343 . S
N1877 C1852 1.343 . S
C1878 C1879 1.384 . S
C1878 C1880 1.384 . S
C1878 H1906 0.931 . S
C1879 C1878 1.384 . S
C1879 C1882 1.382 . S
C1880 C1878 1.384 . S
C1880 C1881 1.381 . S
C1880 H1907 0.930 . S
C1881 C1880 1.381 . S
C1881 C1883 1.381 . S
C1881 C1884 1.487 . S
C1882 C1879 1.382 . S
C1882 C1883 1.387 . S
C1882 H1908 0.930 . S
C1883 C1881 1.381 . S
C1883 C1882 1.387 . S
C1883 H1909 0.931 . S
C1884 C1881 1.487 . S
C1884 C1891 1.399 . S
C1884 N1922 1.343 . S
C1885 C1886 1.384 . S
C1885 C1887 1.384 . S
C1885 H1910 0.931 . S
C1886 C1885 1.384 . S
C1886 C1889 1.382 . S
C1887 C1885 1.384 . S
C1887 C1888 1.381 . S
C1887 H1911 0.930 . S
C1888 C1887 1.381 . S
C1888 C1890 1.381 . S
C1888 C1891 1.487 . S
C1889 C1886 1.382 . S
C1889 C1890 1.387 . S
C1889 H1912 0.930 . S
C1890 C1888 1.381 . S
C1890 C1889 1.387 . S
C1890 H1913 0.931 . S
C1891 C1884 1.399 . S
C1891 C1888 1.487 . S
C1891 N1923 1.343 . S
C1892 C1893 1.384 . S
C1892 C1894 1.384 . S
C1892 H1914 0.931 . S
C1893 C1892 1.384 . S
C1893 C1896 1.382 . S
C1894 C1892 1.384 . S
C1894 C1895 1.381 . S
C1894 H1915 0.930 . S
C1895 C1894 1.381 . S
C1895 C1897 1.381 . S
C1895 C1898 1.487 . S
C1896 C1893 1.382 . S
C1896 C1897 1.387 . S
C1896 H1916 0.930 . S
C1897 C1895 1.381 . S
C1897 C1896 1.387 . S
C1897 H1917 0.931 . S
C1898 C1895 1.487 . S
C1898 C1905 1.399 . S
C1898 N1923 1.343 . S
C1899 C1900 1.384 . S
C1899 C1901 1.384 . S
C1899 H1918 0.931 . S
C1900 C1899 1.384 . S
C1900 C1903 1.382 . S
C1901 C1899 1.384 . S
C1901 C1902 1.381 . S
C1901 H1919 0.930 . S
C1902 C1901 1.381 . S
C1902 C1904 1.381 . S
C1902 C1905 1.487 . S
C1903 C1900 1.382 . S
C1903 C1904 1.387 . S
C1903 H1920 0.930 . S
C1904 C1902 1.381 . S
C1904 C1903 1.387 . S
C1904 H1921 0.931 . S
C1905 C1898 1.399 . S
C1905 C1902 1.487 . S
C1905 N1922 1.343 . S
H1906 C1878 0.931 . S
H1907 C1880 0.930 . S
H1908 C1882 0.930 . S
H1909 C1883 0.931 . S
H1910 C1885 0.931 . S
H1911 C1887 0.930 . S
H1912 C1889 0.930 . S
H1913 C1890 0.931 . S
H1914 C1892 0.931 . S
H1915 C1894 0.930 . S
H1916 C1896 0.930 . S
H1917 C1897 0.931 . S
H1918 C1899 0.931 . S
H1919 C1901 0.930 . S
H1920 C1903 0.930 . S
H1921 C1904 0.931 . S
N1922 C1884 1.343 . S
N1922 C1905 1.343 . S
N1923 C1891 1.343 . S
N1923 C1898 1.343 . S
C1924 C1925 1.384 . S
C1924 C1926 1.384 . S
C1924 H1952 0.931 . S
C1925 C1924 1.384 . S
C1925 C1928 1.382 . S
C1926 C1924 1.384 . S
C1926 C1927 1.381 . S
C1926 H1953 0.930 . S
C1927 C1926 1.381 . S
C1927 C1929 1.381 . S
C1927 C1930 1.487 . S
C1928 C1925 1.382 . S
C1928 C1929 1.387 . S
C1928 H1954 0.930 . S
C1929 C1927 1.381 . S
C1929 C1928 1.387 . S
C1929 H1955 0.931 . S
C1930 C1927 1.487 . S
C1930 C1937 1.399 . S
C1930 N1968 1.343 . S
C1931 C1932 1.384 . S
C1931 C1933 1.384 . S
C1931 H1956 0.931 . S
C1932 C1931 1.384 . S
C1932 C1935 1.382 . S
C1933 C1931 1.384 . S
C1933 C1934 1.381 . S
C1933 H1957 0.930 . S
C1934 C1933 1.381 . S
C1934 C1936 1.381 . S
C1934 C1937 1.487 . S
C1935 C1932 1.382 . S
C1935 C1936 1.387 . S
C1935 H1958 0.930 . S
C1936 C1934 1.381 . S
C1936 C1935 1.387 . S
C1936 H1959 0.931 . S
C1937 C1930 1.399 . S
C1937 C1934 1.487 . S
C1937 N1969 1.343 . S
C1938 C1939 1.384 . S
C1938 C1940 1.384 . S
C1938 H1960 0.931 . S
C1939 C1938 1.384 . S
C1939 C1942 1.382 . S
C1940 C1938 1.384 . S
C1940 C1941 1.381 . S
C1940 H1961 0.930 . S
C1941 C1940 1.381 . S
C1941 C1943 1.381 . S
C1941 C1944 1.487 . S
C1942 C1939 1.382 . S
C1942 C1943 1.387 . S
C1942 H1962 0.930 . S
C1943 C1941 1.381 . S
C1943 C1942 1.387 . S
C1943 H1963 0.931 . S
C1944 C1941 1.487 . S
C1944 C1951 1.399 . S
C1944 N1969 1.343 . S
C1945 C1946 1.384 . S
C1945 C1947 1.384 . S
C1945 H1964 0.931 . S
C1946 C1945 1.384 . S
C1946 C1949 1.382 . S
C1947 C1945 1.384 . S
C1947 C1948 1.381 . S
C1947 H1965 0.930 . S
C1948 C1947 1.381 . S
C1948 C1950 1.381 . S
C1948 C1951 1.487 . S
C1949 C1946 1.382 . S
C1949 C1950 1.387 . S
C1949 H1966 0.930 . S
C1950 C1948 1.381 . S
C1950 C1949 1.387 . S
C1950 H1967 0.931 . S
C1951 C1944 1.399 . S
C1951 C1948 1.487 . S
C1951 N1968 1.343 . S
H1952 C1924 0.931 . S
H1953 C1926 0.930 . S
H1954 C1928 0.930 . S
H1955 C1929 0.931 . S
H1956 C1931 0.931 . S
H1957 C1933 0.930 . S
H1958 C1935 0.930 . S
H1959 C1936 0.931 . S
H1960 C1938 0.931 . S
H1961 C1940 0.930 . S
H1962 C1942 0.930 . S
H1963 C1943 0.931 . S
H1964 C1945 0.931 . S
H1965 C1947 0.930 . S
H1966 C1949 0.930 . S
H1967 C1950 0.931 . S
N1968 C1930 1.343 . S
N1968 C1951 1.343 . S
N1969 C1937 1.343 . S
N1969 C1944 1.343 . S
C1970 C1971 1.384 . S
C1970 C1972 1.384 . S
C1970 H1998 0.931 . S
C1971 C1970 1.384 . S
C1971 C1974 1.382 . S
C1972 C1970 1.384 . S
C1972 C1973 1.381 . S
C1972 H1999 0.930 . S
C1973 C1972 1.381 . S
C1973 C1975 1.381 . S
C1973 C1976 1.487 . S
C1974 C1971 1.382 . S
C1974 C1975 1.387 . S
C1974 H2000 0.930 . S
C1975 C1973 1.381 . S
C1975 C1974 1.387 . S
C1975 H2001 0.931 . S
C1976 C1973 1.487 . S
C1976 C1983 1.399 . S
C1976 N2014 1.343 . S
C1977 C1978 1.384 . S
C1977 C1979 1.384 . S
C1977 H2002 0.931 . S
C1978 C1977 1.384 . S
C1978 C1981 1.382 . S
C1979 C1977 1.384 . S
C1979 C1980 1.381 . S
C1979 H2003 0.930 . S
C1980 C1979 1.381 . S
C1980 C1982 1.381 . S
C1980 C1983 1.487 . S
C1981 C1978 1.382 . S
C1981 C1982 1.387 . S
C1981 H2004 0.930 . S
C1982 C1980 1.381 . S
C1982 C1981 1.387 . S
C1982 H2005 0.931 . S
C1983 C1976 1.399 . S
C1983 C1980 1.487 . S
C1983 N2015 1.343 . S
C1984 C1985 1.384 . S
C1984 C1986 1.384 . S
C1984 H2006 0.931 . S
C1985 C1984 1.384 . S
C1985 C1988 1.382 . S
C1986 C1984 1.384 . S
C1986 C1987 1.381 . S
C1986 H2007 0.930 . S
C1987 C1986 1.381 . S
C1987 C1989 1.381 . S
C1987 C1990 1.487 . S
C1988 C1985 1.382 . S
C1988 C1989 1.387 . S
C1988 H2008 0.930 . S
C1989 C1987 1.381 . S
C1989 C1988 1.387 . S
C1989 H2009 0.931 . S
C1990 C1987 1.487 . S
C1990 C1997 1.399 . S
C1990 N2015 1.343 . S
C1991 C1992 1.384 . S
C1991 C1993 1.384 . S
C1991 H2010 0.931 . S
C1992 C1991 1.384 . S
C1992 C1995 1.382 . S
C1993 C1991 1.384 . S
C1993 C1994 1.381 . S
C1993 H2011 0.930 . S
C1994 C1993 1.381 . S
C1994 C1996 1.381 . S
C1994 C1997 1.487 . S
C1995 C1992 1.382 . S
C1995 C1996 1.387 . S
C1995 H2012 0.930 . S
C1996 C1994 1.381 . S
C1996 C1995 1.387 . S
C1996 H2013 0.931 . S
C1997 C1990 1.399 . S
C1997 C1994 1.487 . S
C1997 N2014 1.343 . S
H1998 C1970 0.931 . S
H1999 C1972 0.930 . S
H2000 C1974 0.930 . S
H2001 C1975 0.931 . S
H2002 C1977 0.931 . S
H2003 C1979 0.930 . S
H2004 C1981 0.930 . S
H2005 C1982 0.931 . S
H2006 C1984 0.931 . S
H2007 C1986 0.930 . S
H2008 C1988 0.930 . S
H2009 C1989 0.931 . S
H2010 C1991 0.931 . S
H2011 C1993 0.930 . S
H2012 C1995 0.930 . S
H2013 C1996 0.931 . S
N2014 C1976 1.343 . S
N2014 C1997 1.343 . S
N2015 C1983 1.343 . S
N2015 C1990 1.343 . S
C2016 C2017 1.384 . S
C2016 C2018 1.384 . S
C2016 H2044 0.931 . S
C2017 C2016 1.384 . S
C2017 C2020 1.382 . S
C2018 C2016 1.384 . S
C2018 C2019 1.381 . S
C2018 H2045 0.930 . S
C2019 C2018 1.381 . S
C2019 C2021 1.381 . S
C2019 C2022 1.487 . S
C2020 C2017 1.382 . S
C2020 C2021 1.387 . S
C2020 H2046 0.930 . S
C2021 C2019 1.381 . S
C2021 C2020 1.387 . S
C2021 H2047 0.931 . S
C2022 C2019 1.487 . S
C2022 C2029 1.399 . S
C2022 N2060 1.343 . S
C2023 C2024 1.384 . S
C2023 C2025 1.384 . S
C2023 H2048 0.931 . S
C2024 C2023 1.384 . S
C2024 C2027 1.382 . S
C2025 C2023 1.384 . S
C2025 C2026 1.381 . S
C2025 H2049 0.930 . S
C2026 C2025 1.381 . S
C2026 C2028 1.381 . S
C2026 C2029 1.487 . S
C2027 C2024 1.382 . S
C2027 C2028 1.387 . S
C2027 H2050 0.930 . S
C2028 C2026 1.381 . S
C2028 C2027 1.387 . S
C2028 H2051 0.931 . S
C2029 C2022 1.399 . S
C2029 C2026 1.487 . S
C2029 N2061 1.343 . S
C2030 C2031 1.384 . S
C2030 C2032 1.384 . S
C2030 H2052 0.931 . S
C2031 C2030 1.384 . S
C2031 C2034 1.382 . S
C2032 C2030 1.384 . S
C2032 C2033 1.381 . S
C2032 H2053 0.930 . S
C2033 C2032 1.381 . S
C2033 C2035 1.381 . S
C2033 C2036 1.487 . S
C2034 C2031 1.382 . S
C2034 C2035 1.387 . S
C2034 H2054 0.930 . S
C2035 C2033 1.381 . S
C2035 C2034 1.387 . S
C2035 H2055 0.931 . S
C2036 C2033 1.487 . S
C2036 C2043 1.399 . S
C2036 N2061 1.343 . S
C2037 C2038 1.384 . S
C2037 C2039 1.384 . S
C2037 H2056 0.931 . S
C2038 C2037 1.384 . S
C2038 C2041 1.382 . S
C2039 C2037 1.384 . S
C2039 C2040 1.381 . S
C2039 H2057 0.930 . S
C2040 C2039 1.381 . S
C2040 C2042 1.381 . S
C2040 C2043 1.487 . S
C2041 C2038 1.382 . S
C2041 C2042 1.387 . S
C2041 H2058 0.930 . S
C2042 C2040 1.381 . S
C2042 C2041 1.387 . S
C2042 H2059 0.931 . S
C2043 C2036 1.399 . S
C2043 C2040 1.487 . S
C2043 N2060 1.343 . S
H2044 C2016 0.931 . S
H2045 C2018 0.930 . S
H2046 C2020 0.930 . S
H2047 C2021 0.931 . S
H2048 C2023 0.931 . S
H2049 C2025 0.930 . S
H2050 C2027 0.930 . S
H2051 C2028 0.931 . S
H2052 C2030 0.931 . S
H2053 C2032 0.930 . S
H2054 C2034 0.930 . S
H2055 C2035 0.931 . S
H2056 C2037 0.931 . S
H2057 C2039 0.930 . S
H2058 C2041 0.930 . S
H2059 C2042 0.931 . S
N2060 C2022 1.343 . S
N2060 C2043 1.343 . S
N2061 C2029 1.343 . S
N2061 C2036 1.343 . S
C2062 C2063 1.384 . S
C2062 C2064 1.384 . S
C2062 H2090 0.931 . S
C2063 C2062 1.384 . S
C2063 C2066 1.382 . S
C2064 C2062 1.384 . S
C2064 C2065 1.381 . S
C2064 H2091 0.930 . S
C2065 C2064 1.381 . S
C2065 C2067 1.381 . S
C2065 C2068 1.487 . S
C2066 C2063 1.382 . S
C2066 C2067 1.387 . S
C2066 H2092 0.930 . S
C2067 C2065 1.381 . S
C2067 C2066 1.387 . S
C2067 H2093 0.931 . S
C2068 C2065 1.487 . S
C2068 C2075 1.399 . S
C2068 N2106 1.343 . S
C2069 C2070 1.384 . S
C2069 C2071 1.384 . S
C2069 H2094 0.931 . S
C2070 C2069 1.384 . S
C2070 C2073 1.382 . S
C2071 C2069 1.384 . S
C2071 C2072 1.381 . S
C2071 H2095 0.930 . S
C2072 C2071 1.381 . S
C2072 C2074 1.381 . S
C2072 C2075 1.487 . S
C2073 C2070 1.382 . S
C2073 C2074 1.387 . S
C2073 H2096 0.930 . S
C2074 C2072 1.381 . S
C2074 C2073 1.387 . S
C2074 H2097 0.931 . S
C2075 C2068 1.399 . S
C2075 C2072 1.487 . S
C2075 N2107 1.343 . S
C2076 C2077 1.384 . S
C2076 C2078 1.384 . S
C2076 H2098 0.931 . S
C2077 C2076 1.384 . S
C2077 C2080 1.382 . S
C2078 C2076 1.384 . S
C2078 C2079 1.381 . S
C2078 H2099 0.930 . S
C2079 C2078 1.381 . S
C2079 C2081 1.381 . S
C2079 C2082 1.487 . S
C2080 C2077 1.382 . S
C2080 C2081 1.387 . S
C2080 H2100 0.930 . S
C2081 C2079 1.381 . S
C2081 C2080 1.387 . S
C2081 H2101 0.931 . S
C2082 C2079 1.487 . S
C2082 C2089 1.399 . S
C2082 N2107 1.343 . S
C2083 C2084 1.384 . S
C2083 C2085 1.384 . S
C2083 H2102 0.931 . S
C2084 C2083 1.384 . S
C2084 C2087 1.382 . S
C2085 C2083 1.384 . S
C2085 C2086 1.381 . S
C2085 H2103 0.930 . S
C2086 C2085 1.381 . S
C2086 C2088 1.381 . S
C2086 C2089 1.487 . S
C2087 C2084 1.382 . S
C2087 C2088 1.387 . S
C2087 H2104 0.930 . S
C2088 C2086 1.381 . S
C2088 C2087 1.387 . S
C2088 H2105 0.931 . S
C2089 C2082 1.399 . S
C2089 C2086 1.487 . S
C2089 N2106 1.343 . S
H2090 C2062 0.931 . S
H2091 C2064 0.930 . S
H2092 C2066 0.930 . S
H2093 C2067 0.931 . S
H2094 C2069 0.931 . S
H2095 C2071 0.930 . S
H2096 C2073 0.930 . S
H2097 C2074 0.931 . S
H2098 C2076 0.931 . S
H2099 C2078 0.930 . S
H2100 C2080 0.930 . S
H2101 C2081 0.931 . S
H2102 C2083 0.931 . S
H2103 C2085 0.930 . S
H2104 C2087 0.930 . S
H2105 C2088 0.931 . S
N2106 C2068 1.343 . S
N2106 C2089 1.343 . S
N2107 C2075 1.343 . S
N2107 C2082 1.343 . S
C2108 C2109 1.384 . S
C2108 C2110 1.384 . S
C2108 H2136 0.931 . S
C2109 C2108 1.384 . S
C2109 C2112 1.382 . S
C2110 C2108 1.384 . S
C2110 C2111 1.381 . S
C2110 H2137 0.930 . S
C2111 C2110 1.381 . S
C2111 C2113 1.381 . S
C2111 C2114 1.487 . S
C2112 C2109 1.382 . S
C2112 C2113 1.387 . S
C2112 H2138 0.930 . S
C2113 C2111 1.381 . S
C2113 C2112 1.387 . S
C2113 H2139 0.931 . S
C2114 C2111 1.487 . S
C2114 C2121 1.399 . S
C2114 N2152 1.343 . S
C2115 C2116 1.384 . S
C2115 C2117 1.384 . S
C2115 H2140 0.931 . S
C2116 C2115 1.384 . S
C2116 C2119 1.382 . S
C2117 C2115 1.384 . S
C2117 C2118 1.381 . S
C2117 H2141 0.930 . S
C2118 C2117 1.381 . S
C2118 C2120 1.381 . S
C2118 C2121 1.487 . S
C2119 C2116 1.382 . S
C2119 C2120 1.387 . S
C2119 H2142 0.930 . S
C2120 C2118 1.381 . S
C2120 C2119 1.387 . S
C2120 H2143 0.931 . S
C2121 C2114 1.399 . S
C2121 C2118 1.487 . S
C2121 N2153 1.343 . S
C2122 C2123 1.384 . S
C2122 C2124 1.384 . S
C2122 H2144 0.931 . S
C2123 C2122 1.384 . S
C2123 C2126 1.382 . S
C2124 C2122 1.384 . S
C2124 C2125 1.381 . S
C2124 H2145 0.930 . S
C2125 C2124 1.381 . S
C2125 C2127 1.381 . S
C2125 C2128 1.487 . S
C2126 C2123 1.382 . S
C2126 C2127 1.387 . S
C2126 H2146 0.930 . S
C2127 C2125 1.381 . S
C2127 C2126 1.387 . S
C2127 H2147 0.931 . S
C2128 C2125 1.487 . S
C2128 C2135 1.399 . S
C2128 N2153 1.343 . S
C2129 C2130 1.384 . S
C2129 C2131 1.384 . S
C2129 H2148 0.931 . S
C2130 C2129 1.384 . S
C2130 C2133 1.382 . S
C2131 C2129 1.384 . S
C2131 C2132 1.381 . S
C2131 H2149 0.930 . S
C2132 C2131 1.381 . S
C2132 C2134 1.381 . S
C2132 C2135 1.487 . S
C2133 C2130 1.382 . S
C2133 C2134 1.387 . S
C2133 H2150 0.930 . S
C2134 C2132 1.381 . S
C2134 C2133 1.387 . S
C2134 H2151 0.931 . S
C2135 C2128 1.399 . S
C2135 C2132 1.487 . S
C2135 N2152 1.343 . S
H2136 C2108 0.931 . S
H2137 C2110 0.930 . S
H2138 C2112 0.930 . S
H2139 C2113 0.931 . S
H2140 C2115 0.931 . S
H2141 C2117 0.930 . S
H2142 C2119 0.930 . S
H2143 C2120 0.931 . S
H2144 C2122 0.931 . S
H2145 C2124 0.930 . S
H2146 C2126 0.930 . S
H2147 C2127 0.931 . S
H2148 C2129 0.931 . S
H2149 C2131 0.930 . S
H2150 C2133 0.930 . S
H2151 C2134 0.931 . S
N2152 C2114 1.343 . S
N2152 C2135 1.343 . S
N2153 C2121 1.343 . S
N2153 C2128 1.343 . S
C2154 C2155 1.384 . S
C2154 C2156 1.384 . S
C2154 H2182 0.931 . S
C2155 C2154 1.384 . S
C2155 C2158 1.382 . S
C2156 C2154 1.384 . S
C2156 C2157 1.381 . S
C2156 H2183 0.930 . S
C2157 C2156 1.381 . S
C2157 C2159 1.381 . S
C2157 C2160 1.487 . S
C2158 C2155 1.382 . S
C2158 C2159 1.387 . S
C2158 H2184 0.930 . S
C2159 C2157 1.381 . S
C2159 C2158 1.387 . S
C2159 H2185 0.931 . S
C2160 C2157 1.487 . S
C2160 C2167 1.399 . S
C2160 N2198 1.343 . S
C2161 C2162 1.384 . S
C2161 C2163 1.384 . S
C2161 H2186 0.931 . S
C2162 C2161 1.384 . S
C2162 C2165 1.382 . S
C2163 C2161 1.384 . S
C2163 C2164 1.381 . S
C2163 H2187 0.930 . S
C2164 C2163 1.381 . S
C2164 C2166 1.381 . S
C2164 C2167 1.487 . S
C2165 C2162 1.382 . S
C2165 C2166 1.387 . S
C2165 H2188 0.930 . S
C2166 C2164 1.381 . S
C2166 C2165 1.387 . S
C2166 H2189 0.931 . S
C2167 C2160 1.399 . S
C2167 C2164 1.487 . S
C2167 N2199 1.343 . S
C2168 C2169 1.384 . S
C2168 C2170 1.384 . S
C2168 H2190 0.931 . S
C2169 C2168 1.384 . S
C2169 C2172 1.382 . S
C2170 C2168 1.384 . S
C2170 C2171 1.381 . S
C2170 H2191 0.930 . S
C2171 C2170 1.381 . S
C2171 C2173 1.381 . S
C2171 C2174 1.487 . S
C2172 C2169 1.382 . S
C2172 C2173 1.387 . S
C2172 H2192 0.930 . S
C2173 C2171 1.381 . S
C2173 C2172 1.387 . S
C2173 H2193 0.931 . S
C2174 C2171 1.487 . S
C2174 C2181 1.399 . S
C2174 N2199 1.343 . S
C2175 C2176 1.384 . S
C2175 C2177 1.384 . S
C2175 H2194 0.931 . S
C2176 C2175 1.384 . S
C2176 C2179 1.382 . S
C2177 C2175 1.384 . S
C2177 C2178 1.381 . S
C2177 H2195 0.930 . S
C2178 C2177 1.381 . S
C2178 C2180 1.381 . S
C2178 C2181 1.487 . S
C2179 C2176 1.382 . S
C2179 C2180 1.387 . S
C2179 H2196 0.930 . S
C2180 C2178 1.381 . S
C2180 C2179 1.387 . S
C2180 H2197 0.931 . S
C2181 C2174 1.399 . S
C2181 C2178 1.487 . S
C2181 N2198 1.343 . S
H2182 C2154 0.931 . S
H2183 C2156 0.930 . S
H2184 C2158 0.930 . S
H2185 C2159 0.931 . S
H2186 C2161 0.931 . S
H2187 C2163 0.930 . S
H2188 C2165 0.930 . S
H2189 C2166 0.931 . S
H2190 C2168 0.931 . S
H2191 C2170 0.930 . S
H2192 C2172 0.930 . S
H2193 C2173 0.931 . S
H2194 C2175 0.931 . S
H2195 C2177 0.930 . S
H2196 C2179 0.930 . S
H2197 C2180 0.931 . S
N2198 C2160 1.343 . S
N2198 C2181 1.343 . S
N2199 C2167 1.343 . S
N2199 C2174 1.343 . S
C2200 C2201 1.384 . S
C2200 C2202 1.384 . S
C2200 H2228 0.931 . S
C2201 C2200 1.384 . S
C2201 C2204 1.382 . S
C2202 C2200 1.384 . S
C2202 C2203 1.381 . S
C2202 H2229 0.930 . S
C2203 C2202 1.381 . S
C2203 C2205 1.381 . S
C2203 C2206 1.487 . S
C2204 C2201 1.382 . S
C2204 C2205 1.387 . S
C2204 H2230 0.930 . S
C2205 C2203 1.381 . S
C2205 C2204 1.387 . S
C2205 H2231 0.931 . S
C2206 C2203 1.487 . S
C2206 C2213 1.399 . S
C2206 N2244 1.343 . S
C2207 C2208 1.384 . S
C2207 C2209 1.384 . S
C2207 H2232 0.931 . S
C2208 C2207 1.384 . S
C2208 C2211 1.382 . S
C2209 C2207 1.384 . S
C2209 C2210 1.381 . S
C2209 H2233 0.930 . S
C2210 C2209 1.381 . S
C2210 C2212 1.381 . S
C2210 C2213 1.487 . S
C2211 C2208 1.382 . S
C2211 C2212 1.387 . S
C2211 H2234 0.930 . S
C2212 C2210 1.381 . S
C2212 C2211 1.387 . S
C2212 H2235 0.931 . S
C2213 C2206 1.399 . S
C2213 C2210 1.487 . S
C2213 N2245 1.343 . S
C2214 C2215 1.384 . S
C2214 C2216 1.384 . S
C2214 H2236 0.931 . S
C2215 C2214 1.384 . S
C2215 C2218 1.382 . S
C2216 C2214 1.384 . S
C2216 C2217 1.381 . S
C2216 H2237 0.930 . S
C2217 C2216 1.381 . S
C2217 C2219 1.381 . S
C2217 C2220 1.487 . S
C2218 C2215 1.382 . S
C2218 C2219 1.387 . S
C2218 H2238 0.930 . S
C2219 C2217 1.381 . S
C2219 C2218 1.387 . S
C2219 H2239 0.931 . S
C2220 C2217 1.487 . S
C2220 C2227 1.399 . S
C2220 N2245 1.343 . S
C2221 C2222 1.384 . S
C2221 C2223 1.384 . S
C2221 H2240 0.931 . S
C2222 C2221 1.384 . S
C2222 C2225 1.382 . S
C2223 C2221 1.384 . S
C2223 C2224 1.381 . S
C2223 H2241 0.930 . S
C2224 C2223 1.381 . S
C2224 C2226 1.381 . S
C2224 C2227 1.487 . S
C2225 C2222 1.382 . S
C2225 C2226 1.387 . S
C2225 H2242 0.930 . S
C2226 C2224 1.381 . S
C2226 C2225 1.387 . S
C2226 H2243 0.931 . S
C2227 C2220 1.399 . S
C2227 C2224 1.487 . S
C2227 N2244 1.343 . S
H2228 C2200 0.931 . S
H2229 C2202 0.930 . S
H2230 C2204 0.930 . S
H2231 C2205 0.931 . S
H2232 C2207 0.931 . S
H2233 C2209 0.930 . S
H2234 C2211 0.930 . S
H2235 C2212 0.931 . S
H2236 C2214 0.931 . S
H2237 C2216 0.930 . S
H2238 C2218 0.930 . S
H2239 C2219 0.931 . S
H2240 C2221 0.931 . S
H2241 C2223 0.930 . S
H2242 C2225 0.930 . S
H2243 C2226 0.931 . S
N2244 C2206 1.343 . S
N2244 C2227 1.343 . S
N2245 C2213 1.343 . S
N2245 C2220 1.343 . S
C2246 C2247 1.384 . S
C2246 C2248 1.384 . S
C2246 H2274 0.931 . S
C2247 C2246 1.384 . S
C2247 C2250 1.382 . S
C2248 C2246 1.384 . S
C2248 C2249 1.381 . S
C2248 H2275 0.930 . S
C2249 C2248 1.381 . S
C2249 C2251 1.381 . S
C2249 C2252 1.487 . S
C2250 C2247 1.382 . S
C2250 C2251 1.387 . S
C2250 H2276 0.930 . S
C2251 C2249 1.381 . S
C2251 C2250 1.387 . S
C2251 H2277 0.931 . S
C2252 C2249 1.487 . S
C2252 C2259 1.399 . S
C2252 N2290 1.343 . S
C2253 C2254 1.384 . S
C2253 C2255 1.384 . S
C2253 H2278 0.931 . S
C2254 C2253 1.384 . S
C2254 C2257 1.382 . S
C2255 C2253 1.384 . S
C2255 C2256 1.381 . S
C2255 H2279 0.930 . S
C2256 C2255 1.381 . S
C2256 C2258 1.381 . S
C2256 C2259 1.487 . S
C2257 C2254 1.382 . S
C2257 C2258 1.387 . S
C2257 H2280 0.930 . S
C2258 C2256 1.381 . S
C2258 C2257 1.387 . S
C2258 H2281 0.931 . S
C2259 C2252 1.399 . S
C2259 C2256 1.487 . S
C2259 N2291 1.343 . S
C2260 C2261 1.384 . S
C2260 C2262 1.384 . S
C2260 H2282 0.931 . S
C2261 C2260 1.384 . S
C2261 C2264 1.382 . S
C2262 C2260 1.384 . S
C2262 C2263 1.381 . S
C2262 H2283 0.930 . S
C2263 C2262 1.381 . S
C2263 C2265 1.381 . S
C2263 C2266 1.487 . S
C2264 C2261 1.382 . S
C2264 C2265 1.387 . S
C2264 H2284 0.930 . S
C2265 C2263 1.381 . S
C2265 C2264 1.387 . S
C2265 H2285 0.931 . S
C2266 C2263 1.487 . S
C2266 C2273 1.399 . S
C2266 N2291 1.343 . S
C2267 C2268 1.384 . S
C2267 C2269 1.384 . S
C2267 H2286 0.931 . S
C2268 C2267 1.384 . S
C2268 C2271 1.382 . S
C2269 C2267 1.384 . S
C2269 C2270 1.381 . S
C2269 H2287 0.930 . S
C2270 C2269 1.381 . S
C2270 C2272 1.381 . S
C2270 C2273 1.487 . S
C2271 C2268 1.382 . S
C2271 C2272 1.387 . S
C2271 H2288 0.930 . S
C2272 C2270 1.381 . S
C2272 C2271 1.387 . S
C2272 H2289 0.931 . S
C2273 C2266 1.399 . S
C2273 C2270 1.487 . S
C2273 N2290 1.343 . S
H2274 C2246 0.931 . S
H2275 C2248 0.930 . S
H2276 C2250 0.930 . S
H2277 C2251 0.931 . S
H2278 C2253 0.931 . S
H2279 C2255 0.930 . S
H2280 C2257 0.930 . S
H2281 C2258 0.931 . S
H2282 C2260 0.931 . S
H2283 C2262 0.930 . S
H2284 C2264 0.930 . S
H2285 C2265 0.931 . S
H2286 C2267 0.931 . S
H2287 C2269 0.930 . S
H2288 C2271 0.930 . S
H2289 C2272 0.931 . S
N2290 C2252 1.343 . S
N2290 C2273 1.343 . S
N2291 C2259 1.343 . S
N2291 C2266 1.343 . S
C2292 C2293 1.384 . S
C2292 C2294 1.384 . S
C2292 H2320 0.931 . S
C2293 C2292 1.384 . S
C2293 C2296 1.382 . S
C2294 C2292 1.384 . S
C2294 C2295 1.381 . S
C2294 H2321 0.930 . S
C2295 C2294 1.381 . S
C2295 C2297 1.381 . S
C2295 C2298 1.487 . S
C2296 C2293 1.382 . S
C2296 C2297 1.387 . S
C2296 H2322 0.930 . S
C2297 C2295 1.381 . S
C2297 C2296 1.387 . S
C2297 H2323 0.931 . S
C2298 C2295 1.487 . S
C2298 C2305 1.399 . S
C2298 N2336 1.343 . S
C2299 C2300 1.384 . S
C2299 C2301 1.384 . S
C2299 H2324 0.931 . S
C2300 C2299 1.384 . S
C2300 C2303 1.382 . S
C2301 C2299 1.384 . S
C2301 C2302 1.381 . S
C2301 H2325 0.930 . S
C2302 C2301 1.381 . S
C2302 C2304 1.381 . S
C2302 C2305 1.487 . S
C2303 C2300 1.382 . S
C2303 C2304 1.387 . S
C2303 H2326 0.930 . S
C2304 C2302 1.381 . S
C2304 C2303 1.387 . S
C2304 H2327 0.931 . S
C2305 C2298 1.399 . S
C2305 C2302 1.487 . S
C2305 N2337 1.343 . S
C2306 C2307 1.384 . S
C2306 C2308 1.384 . S
C2306 H2328 0.931 . S
C2307 C2306 1.384 . S
C2307 C2310 1.382 . S
C2308 C2306 1.384 . S
C2308 C2309 1.381 . S
C2308 H2329 0.930 . S
C2309 C2308 1.381 . S
C2309 C2311 1.381 . S
C2309 C2312 1.487 . S
C2310 C2307 1.382 . S
C2310 C2311 1.387 . S
C2310 H2330 0.930 . S
C2311 C2309 1.381 . S
C2311 C2310 1.387 . S
C2311 H2331 0.931 . S
C2312 C2309 1.487 . S
C2312 C2319 1.399 . S
C2312 N2337 1.343 . S
C2313 C2314 1.384 . S
C2313 C2315 1.384 . S
C2313 H2332 0.931 . S
C2314 C2313 1.384 . S
C2314 C2317 1.382 . S
C2315 C2313 1.384 . S
C2315 C2316 1.381 . S
C2315 H2333 0.930 . S
C2316 C2315 1.381 . S
C2316 C2318 1.381 . S
C2316 C2319 1.487 . S
C2317 C2314 1.382 . S
C2317 C2318 1.387 . S
C2317 H2334 0.930 . S
C2318 C2316 1.381 . S
C2318 C2317 1.387 . S
C2318 H2335 0.931 . S
C2319 C2312 1.399 . S
C2319 C2316 1.487 . S
C2319 N2336 1.343 . S
H2320 C2292 0.931 . S
H2321 C2294 0.930 . S
H2322 C2296 0.930 . S
H2323 C2297 0.931 . S
H2324 C2299 0.931 . S
H2325 C2301 0.930 . S
H2326 C2303 0.930 . S
H2327 C2304 0.931 . S
H2328 C2306 0.931 . S
H2329 C2308 0.930 . S
H2330 C2310 0.930 . S
H2331 C2311 0.931 . S
H2332 C2313 0.931 . S
H2333 C2315 0.930 . S
H2334 C2317 0.930 . S
H2335 C2318 0.931 . S
N2336 C2298 1.343 . S
N2336 C2319 1.343 . S
N2337 C2305 1.343 . S
N2337 C2312 1.343 . S
C2338 C2339 1.384 . S
C2338 C2340 1.384 . S
C2338 H2366 0.931 . S
C2339 C2338 1.384 . S
C2339 C2342 1.382 . S
C2340 C2338 1.384 . S
C2340 C2341 1.381 . S
C2340 H2367 0.930 . S
C2341 C2340 1.381 . S
C2341 C2343 1.381 . S
C2341 C2344 1.487 . S
C2342 C2339 1.382 . S
C2342 C2343 1.387 . S
C2342 H2368 0.930 . S
C2343 C2341 1.381 . S
C2343 C2342 1.387 . S
C2343 H2369 0.931 . S
C2344 C2341 1.487 . S
C2344 C2351 1.399 . S
C2344 N2382 1.343 . S
C2345 C2346 1.384 . S
C2345 C2347 1.384 . S
C2345 H2370 0.931 . S
C2346 C2345 1.384 . S
C2346 C2349 1.382 . S
C2347 C2345 1.384 . S
C2347 C2348 1.381 . S
C2347 H2371 0.930 . S
C2348 C2347 1.381 . S
C2348 C2350 1.381 . S
C2348 C2351 1.487 . S
C2349 C2346 1.382 . S
C2349 C2350 1.387 . S
C2349 H2372 0.930 . S
C2350 C2348 1.381 . S
C2350 C2349 1.387 . S
C2350 H2373 0.931 . S
C2351 C2344 1.399 . S
C2351 C2348 1.487 . S
C2351 N2383 1.343 . S
C2352 C2353 1.384 . S
C2352 C2354 1.384 . S
C2352 H2374 0.931 . S
C2353 C2352 1.384 . S
C2353 C2356 1.382 . S
C2354 C2352 1.384 . S
C2354 C2355 1.381 . S
C2354 H2375 0.930 . S
C2355 C2354 1.381 . S
C2355 C2357 1.381 . S
C2355 C2358 1.487 . S
C2356 C2353 1.382 . S
C2356 C2357 1.387 . S
C2356 H2376 0.930 . S
C2357 C2355 1.381 . S
C2357 C2356 1.387 . S
C2357 H2377 0.931 . S
C2358 C2355 1.487 . S
C2358 C2365 1.399 . S
C2358 N2383 1.343 . S
C2359 C2360 1.384 . S
C2359 C2361 1.384 . S
C2359 H2378 0.931 . S
C2360 C2359 1.384 . S
C2360 C2363 1.382 . S
C2361 C2359 1.384 . S
C2361 C2362 1.381 . S
C2361 H2379 0.930 . S
C2362 C2361 1.381 . S
C2362 C2364 1.381 . S
C2362 C2365 1.487 . S
C2363 C2360 1.382 . S
C2363 C2364 1.387 . S
C2363 H2380 0.930 . S
C2364 C2362 1.381 . S
C2364 C2363 1.387 . S
C2364 H2381 0.931 . S
C2365 C2358 1.399 . S
C2365 C2362 1.487 . S
C2365 N2382 1.343 . S
H2366 C2338 0.931 . S
H2367 C2340 0.930 . S
H2368 C2342 0.930 . S
H2369 C2343 0.931 . S
H2370 C2345 0.931 . S
H2371 C2347 0.930 . S
H2372 C2349 0.930 . S
H2373 C2350 0.931 . S
H2374 C2352 0.931 . S
H2375 C2354 0.930 . S
H2376 C2356 0.930 . S
H2377 C2357 0.931 . S
H2378 C2359 0.931 . S
H2379 C2361 0.930 . S
H2380 C2363 0.930 . S
H2381 C2364 0.931 . S
N2382 C2344 1.343 . S
N2382 C2365 1.343 . S
N2383 C2351 1.343 . S
N2383 C2358 1.343 . S
H2384 C2390 0.930 . S
H2385 C2393 0.930 . S
H2386 C2394 0.930 . S
H2387 C2395 0.930 . S
H2388 C2398 0.930 . S
H2389 C2399 0.930 . S
C2390 H2384 0.930 . S
C2390 C2391 1.355 . S
C2390 C2392 1.415 . S
C2391 C2390 1.355 . S
C2391 C2393 1.419 . S
C2392 C2390 1.415 . S
C2392 C2397 1.425 . S
C2392 C2399 1.409 . S
C2393 H2385 0.930 . S
C2393 C2391 1.419 . S
C2393 C2394 1.362 . S
C2394 H2386 0.930 . S
C2394 C2393 1.362 . S
C2394 C2397 1.409 . S
C2395 H2387 0.930 . S
C2395 C2396 1.355 . S
C2395 C2397 1.415 . S
C2396 C2395 1.355 . S
C2396 C2398 1.419 . S
C2397 C2392 1.425 . S
C2397 C2394 1.409 . S
C2397 C2395 1.415 . S
C2398 H2388 0.930 . S
C2398 C2396 1.419 . S
C2398 C2399 1.362 . S
C2399 H2389 0.930 . S
C2399 C2392 1.409 . S
C2399 C2398 1.362 . S
H2400 C2406 0.930 . S
H2401 C2409 0.930 . S
H2402 C2410 0.930 . S
H2403 C2411 0.930 . S
H2404 C2414 0.930 . S
H2405 C2415 0.930 . S
C2406 H2400 0.930 . S
C2406 C2407 1.355 . S
C2406 C2408 1.415 . S
C2407 C2406 1.355 . S
C2407 C2409 1.419 . S
C2408 C2406 1.415 . S
C2408 C2413 1.425 . S
C2408 C2415 1.409 . S
C2409 H2401 0.930 . S
C2409 C2407 1.419 . S
C2409 C2410 1.362 . S
C2410 H2402 0.930 . S
C2410 C2409 1.362 . S
C2410 C2413 1.409 . S
C2411 H2403 0.930 . S
C2411 C2412 1.355 . S
C2411 C2413 1.415 . S
C2412 C2411 1.355 . S
C2412 C2414 1.419 . S
C2413 C2408 1.425 . S
C2413 C2410 1.409 . S
C2413 C2411 1.415 . S
C2414 H2404 0.930 . S
C2414 C2412 1.419 . S
C2414 C2415 1.362 . S
C2415 H2405 0.930 . S
C2415 C2408 1.409 . S
C2415 C2414 1.362 . S
H2416 C2422 0.930 . S
H2417 C2425 0.930 . S
H2418 C2426 0.930 . S
H2419 C2427 0.930 . S
H2420 C2430 0.930 . S
H2421 C2431 0.930 . S
C2422 H2416 0.930 . S
C2422 C2423 1.355 . S
C2422 C2424 1.415 . S
C2423 C2422 1.355 . S
C2423 C2425 1.419 . S
C2424 C2422 1.415 . S
C2424 C2429 1.425 . S
C2424 C2431 1.409 . S
C2425 H2417 0.930 . S
C2425 C2423 1.419 . S
C2425 C2426 1.362 . S
C2426 H2418 0.930 . S
C2426 C2425 1.362 . S
C2426 C2429 1.409 . S
C2427 H2419 0.930 . S
C2427 C2428 1.355 . S
C2427 C2429 1.415 . S
C2428 C2427 1.355 . S
C2428 C2430 1.419 . S
C2429 C2424 1.425 . S
C2429 C2426 1.409 . S
C2429 C2427 1.415 . S
C2430 H2420 0.930 . S
C2430 C2428 1.419 . S
C2430 C2431 1.362 . S
C2431 H2421 0.930 . S
C2431 C2424 1.409 . S
C2431 C2430 1.362 . S
H2432 C2438 0.930 . S
H2433 C2441 0.930 . S
H2434 C2442 0.930 . S
H2435 C2443 0.930 . S
H2436 C2446 0.930 . S
H2437 C2447 0.930 . S
C2438 H2432 0.930 . S
C2438 C2439 1.355 . S
C2438 C2440 1.415 . S
C2439 C2438 1.355 . S
C2439 C2441 1.419 . S
C2440 C2438 1.415 . S
C2440 C2445 1.425 . S
C2440 C2447 1.409 . S
C2441 H2433 0.930 . S
C2441 C2439 1.419 . S
C2441 C2442 1.362 . S
C2442 H2434 0.930 . S
C2442 C2441 1.362 . S
C2442 C2445 1.409 . S
C2443 H2435 0.930 . S
C2443 C2444 1.355 . S
C2443 C2445 1.415 . S
C2444 C2443 1.355 . S
C2444 C2446 1.419 . S
C2445 C2440 1.425 . S
C2445 C2442 1.409 . S
C2445 C2443 1.415 . S
C2446 H2436 0.930 . S
C2446 C2444 1.419 . S
C2446 C2447 1.362 . S
C2447 H2437 0.930 . S
C2447 C2440 1.409 . S
C2447 C2446 1.362 . S
H2448 C2454 0.930 . S
H2449 C2457 0.930 . S
H2450 C2458 0.930 . S
H2451 C2459 0.930 . S
H2452 C2462 0.930 . S
H2453 C2463 0.930 . S
C2454 H2448 0.930 . S
C2454 C2455 1.355 . S
C2454 C2456 1.415 . S
C2455 C2454 1.355 . S
C2455 C2457 1.419 . S
C2456 C2454 1.415 . S
C2456 C2461 1.425 . S
C2456 C2463 1.409 . S
C2457 H2449 0.930 . S
C2457 C2455 1.419 . S
C2457 C2458 1.362 . S
C2458 H2450 0.930 . S
C2458 C2457 1.362 . S
C2458 C2461 1.409 . S
C2459 H2451 0.930 . S
C2459 C2460 1.355 . S
C2459 C2461 1.415 . S
C2460 C2459 1.355 . S
C2460 C2462 1.419 . S
C2461 C2456 1.425 . S
C2461 C2458 1.409 . S
C2461 C2459 1.415 . S
C2462 H2452 0.930 . S
C2462 C2460 1.419 . S
C2462 C2463 1.362 . S
C2463 H2453 0.930 . S
C2463 C2456 1.409 . S
C2463 C2462 1.362 . S
H2464 C2470 0.930 . S
H2465 C2473 0.930 . S
H2466 C2474 0.930 . S
H2467 C2475 0.930 . S
H2468 C2478 0.930 . S
H2469 C2479 0.930 . S
C2470 H2464 0.930 . S
C2470 C2471 1.355 . S
C2470 C2472 1.415 . S
C2471 C2470 1.355 . S
C2471 C2473 1.419 . S
C2472 C2470 1.415 . S
C2472 C2477 1.425 . S
C2472 C2479 1.409 . S
C2473 H2465 0.930 . S
C2473 C2471 1.419 . S
C2473 C2474 1.362 . S
C2474 H2466 0.930 . S
C2474 C2473 1.362 . S
C2474 C2477 1.409 . S
C2475 H2467 0.930 . S
C2475 C2476 1.355 . S
C2475 C2477 1.415 . S
C2476 C2475 1.355 . S
C2476 C2478 1.419 . S
C2477 C2472 1.425 . S
C2477 C2474 1.409 . S
C2477 C2475 1.415 . S
C2478 H2468 0.930 . S
C2478 C2476 1.419 . S
C2478 C2479 1.362 . S
C2479 H2469 0.930 . S
C2479 C2472 1.409 . S
C2479 C2478 1.362 . S
H2480 C2486 0.930 . S
H2481 C2489 0.930 . S
H2482 C2490 0.930 . S
H2483 C2491 0.930 . S
H2484 C2494 0.930 . S
H2485 C2495 0.930 . S
C2486 H2480 0.930 . S
C2486 C2487 1.355 . S
C2486 C2488 1.415 . S
C2487 C2486 1.355 . S
C2487 C2489 1.419 . S
C2488 C2486 1.415 . S
C2488 C2493 1.425 . S
C2488 C2495 1.409 . S
C2489 H2481 0.930 . S
C2489 C2487 1.419 . S
C2489 C2490 1.362 . S
C2490 H2482 0.930 . S
C2490 C2489 1.362 . S
C2490 C2493 1.409 . S
C2491 H2483 0.930 . S
C2491 C2492 1.355 . S
C2491 C2493 1.415 . S
C2492 C2491 1.355 . S
C2492 C2494 1.419 . S
C2493 C2488 1.425 . S
C2493 C2490 1.409 . S
C2493 C2491 1.415 . S
C2494 H2484 0.930 . S
C2494 C2492 1.419 . S
C2494 C2495 1.362 . S
C2495 H2485 0.930 . S
C2495 C2488 1.409 . S
C2495 C2494 1.362 . S
H2496 C2502 0.930 . S
H2497 C2505 0.930 . S
H2498 C2506 0.930 . S
H2499 C2507 0.930 . S
H2500 C2510 0.930 . S
H2501 C2511 0.930 . S
C2502 H2496 0.930 . S
C2502 C2503 1.355 . S
C2502 C2504 1.415 . S
C2503 C2502 1.355 . S
C2503 C2505 1.419 . S
C2504 C2502 1.415 . S
C2504 C2509 1.425 . S
C2504 C2511 1.409 . S
C2505 H2497 0.930 . S
C2505 C2503 1.419 . S
C2505 C2506 1.362 . S
C2506 H2498 0.930 . S
C2506 C2505 1.362 . S
C2506 C2509 1.409 . S
C2507 H2499 0.930 . S
C2507 C2508 1.355 . S
C2507 C2509 1.415 . S
C2508 C2507 1.355 . S
C2508 C2510 1.419 . S
C2509 C2504 1.425 . S
C2509 C2506 1.409 . S
C2509 C2507 1.415 . S
C2510 H2500 0.930 . S
C2510 C2508 1.419 . S
C2510 C2511 1.362 . S
C2511 H2501 0.930 . S
C2511 C2504 1.409 . S
C2511 C2510 1.362 . S
H2512 C2518 0.930 . S
H2513 C2521 0.930 . S
H2514 C2522 0.930 . S
H2515 C2523 0.930 . S
H2516 C2526 0.930 . S
H2517 C2527 0.930 . S
C2518 H2512 0.930 . S
C2518 C2519 1.355 . S
C2518 C2520 1.415 . S
C2519 C2518 1.355 . S
C2519 C2521 1.419 . S
C2520 C2518 1.415 . S
C2520 C2525 1.425 . S
C2520 C2527 1.409 . S
C2521 H2513 0.930 . S
C2521 C2519 1.419 . S
C2521 C2522 1.362 . S
C2522 H2514 0.930 . S
C2522 C2521 1.362 . S
C2522 C2525 1.409 . S
C2523 H2515 0.930 . S
C2523 C2524 1.355 . S
C2523 C2525 1.415 . S
C2524 C2523 1.355 . S
C2524 C2526 1.419 . S
C2525 C2520 1.425 . S
C2525 C2522 1.409 . S
C2525 C2523 1.415 . S
C2526 H2516 0.930 . S
C2526 C2524 1.419 . S
C2526 C2527 1.362 . S
C2527 H2517 0.930 . S
C2527 C2520 1.409 . S
C2527 C2526 1.362 . S
H2528 C2534 0.930 . S
H2529 C2537 0.930 . S
H2530 C2538 0.930 . S
H2531 C2539 0.930 . S
H2532 C2542 0.930 . S
H2533 C2543 0.930 . S
C2534 H2528 0.930 . S
C2534 C2535 1.355 . S
C2534 C2536 1.415 . S
C2535 C2534 1.355 . S
C2535 C2537 1.419 . S
C2536 C2534 1.415 . S
C2536 C2541 1.425 . S
C2536 C2543 1.409 . S
C2537 H2529 0.930 . S
C2537 C2535 1.419 . S
C2537 C2538 1.362 . S
C2538 H2530 0.930 . S
C2538 C2537 1.362 . S
C2538 C2541 1.409 . S
C2539 H2531 0.930 . S
C2539 C2540 1.355 . S
C2539 C2541 1.415 . S
C2540 C2539 1.355 . S
C2540 C2542 1.419 . S
C2541 C2536 1.425 . S
C2541 C2538 1.409 . S
C2541 C2539 1.415 . S
C2542 H2532 0.930 . S
C2542 C2540 1.419 . S
C2542 C2543 1.362 . S
C2543 H2533 0.930 . S
C2543 C2536 1.409 . S
C2543 C2542 1.362 . S
H2544 C2550 0.930 . S
H2545 C2553 0.930 . S
H2546 C2554 0.930 . S
H2547 C2555 0.930 . S
H2548 C2558 0.930 . S
H2549 C2559 0.930 . S
C2550 H2544 0.930 . S
C2550 C2551 1.355 . S
C2550 C2552 1.415 . S
C2551 C2550 1.355 . S
C2551 C2553 1.419 . S
C2552 C2550 1.415 . S
C2552 C2557 1.425 . S
C2552 C2559 1.409 . S
C2553 H2545 0.930 . S
C2553 C2551 1.419 . S
C2553 C2554 1.362 . S
C2554 H2546 0.930 . S
C2554 C2553 1.362 . S
C2554 C2557 1.409 . S
C2555 H2547 0.930 . S
C2555 C2556 1.355 . S
C2555 C2557 1.415 . S
C2556 C2555 1.355 . S
C2556 C2558 1.419 . S
C2557 C2552 1.425 . S
C2557 C2554 1.409 . S
C2557 C2555 1.415 . S
C2558 H2548 0.930 . S
C2558 C2556 1.419 . S
C2558 C2559 1.362 . S
C2559 H2549 0.930 . S
C2559 C2552 1.409 . S
C2559 C2558 1.362 . S
H2560 C2566 0.930 . S
H2561 C2569 0.930 . S
H2562 C2570 0.930 . S
H2563 C2571 0.930 . S
H2564 C2574 0.930 . S
H2565 C2575 0.930 . S
C2566 H2560 0.930 . S
C2566 C2567 1.355 . S
C2566 C2568 1.415 . S
C2567 C2566 1.355 . S
C2567 C2569 1.419 . S
C2568 C2566 1.415 . S
C2568 C2573 1.425 . S
C2568 C2575 1.409 . S
C2569 H2561 0.930 . S
C2569 C2567 1.419 . S
C2569 C2570 1.362 . S
C2570 H2562 0.930 . S
C2570 C2569 1.362 . S
C2570 C2573 1.409 . S
C2571 H2563 0.930 . S
C2571 C2572 1.355 . S
C2571 C2573 1.415 . S
C2572 C2571 1.355 . S
C2572 C2574 1.419 . S
C2573 C2568 1.425 . S
C2573 C2570 1.409 . S
C2573 C2571 1.415 . S
C2574 H2564 0.930 . S
C2574 C2572 1.419 . S
C2574 C2575 1.362 . S
C2575 H2565 0.930 . S
C2575 C2568 1.409 . S
C2575 C2574 1.362 . S
H2576 C2582 0.930 . S
H2577 C2585 0.930 . S
H2578 C2586 0.930 . S
H2579 C2587 0.930 . S
H2580 C2590 0.930 . S
H2581 C2591 0.930 . S
C2582 H2576 0.930 . S
C2582 C2583 1.355 . S
C2582 C2584 1.415 . S
C2583 C2582 1.355 . S
C2583 C2585 1.419 . S
C2584 C2582 1.415 . S
C2584 C2589 1.425 . S
C2584 C2591 1.409 . S
C2585 H2577 0.930 . S
C2585 C2583 1.419 . S
C2585 C2586 1.362 . S
C2586 H2578 0.930 . S
C2586 C2585 1.362 . S
C2586 C2589 1.409 . S
C2587 H2579 0.930 . S
C2587 C2588 1.355 . S
C2587 C2589 1.415 . S
C2588 C2587 1.355 . S
C2588 C2590 1.419 . S
C2589 C2584 1.425 . S
C2589 C2586 1.409 . S
C2589 C2587 1.415 . S
C2590 H2580 0.930 . S
C2590 C2588 1.419 . S
C2590 C2591 1.362 . S
C2591 H2581 0.930 . S
C2591 C2584 1.409 . S
C2591 C2590 1.362 . S
H2592 C2598 0.930 . S
H2593 C2601 0.930 . S
H2594 C2602 0.930 . S
H2595 C2603 0.930 . S
H2596 C2606 0.930 . S
H2597 C2607 0.930 . S
C2598 H2592 0.930 . S
C2598 C2599 1.355 . S
C2598 C2600 1.415 . S
C2599 C2598 1.355 . S
C2599 C2601 1.419 . S
C2600 C2598 1.415 . S
C2600 C2605 1.425 . S
C2600 C2607 1.409 . S
C2601 H2593 0.930 . S
C2601 C2599 1.419 . S
C2601 C2602 1.362 . S
C2602 H2594 0.930 . S
C2602 C2601 1.362 . S
C2602 C2605 1.409 . S
C2603 H2595 0.930 . S
C2603 C2604 1.355 . S
C2603 C2605 1.415 . S
C2604 C2603 1.355 . S
C2604 C2606 1.419 . S
C2605 C2600 1.425 . S
C2605 C2602 1.409 . S
C2605 C2603 1.415 . S
C2606 H2596 0.930 . S
C2606 C2604 1.419 . S
C2606 C2607 1.362 . S
C2607 H2597 0.930 . S
C2607 C2600 1.409 . S
C2607 C2606 1.362 . S
H2608 C2614 0.930 . S
H2609 C2617 0.930 . S
H2610 C2618 0.930 . S
H2611 C2619 0.930 . S
H2612 C2622 0.930 . S
H2613 C2623 0.930 . S
C2614 H2608 0.930 . S
C2614 C2615 1.355 . S
C2614 C2616 1.415 . S
C2615 C2614 1.355 . S
C2615 C2617 1.419 . S
C2616 C2614 1.415 . S
C2616 C2621 1.425 . S
C2616 C2623 1.409 . S
C2617 H2609 0.930 . S
C2617 C2615 1.419 . S
C2617 C2618 1.362 . S
C2618 H2610 0.930 . S
C2618 C2617 1.362 . S
C2618 C2621 1.409 . S
C2619 H2611 0.930 . S
C2619 C2620 1.355 . S
C2619 C2621 1.415 . S
C2620 C2619 1.355 . S
C2620 C2622 1.419 . S
C2621 C2616 1.425 . S
C2621 C2618 1.409 . S
C2621 C2619 1.415 . S
C2622 H2612 0.930 . S
C2622 C2620 1.419 . S
C2622 C2623 1.362 . S
C2623 H2613 0.930 . S
C2623 C2616 1.409 . S
C2623 C2622 1.362 . S
H2624 C2630 0.930 . S
H2625 C2633 0.930 . S
H2626 C2634 0.930 . S
H2627 C2635 0.930 . S
H2628 C2638 0.930 . S
H2629 C2639 0.930 . S
C2630 H2624 0.930 . S
C2630 C2631 1.355 . S
C2630 C2632 1.415 . S
C2631 C2630 1.355 . S
C2631 C2633 1.419 . S
C2632 C2630 1.415 . S
C2632 C2637 1.425 . S
C2632 C2639 1.409 . S
C2633 H2625 0.930 . S
C2633 C2631 1.419 . S
C2633 C2634 1.362 . S
C2634 H2626 0.930 . S
C2634 C2633 1.362 . S
C2634 C2637 1.409 . S
C2635 H2627 0.930 . S
C2635 C2636 1.355 . S
C2635 C2637 1.415 . S
C2636 C2635 1.355 . S
C2636 C2638 1.419 . S
C2637 C2632 1.425 . S
C2637 C2634 1.409 . S
C2637 C2635 1.415 . S
C2638 H2628 0.930 . S
C2638 C2636 1.419 . S
C2638 C2639 1.362 . S
C2639 H2629 0.930 . S
C2639 C2632 1.409 . S
C2639 C2638 1.362 . S
H2640 C2646 0.930 . S
H2641 C2649 0.930 . S
H2642 C2650 0.930 . S
H2643 C2651 0.930 . S
H2644 C2654 0.930 . S
H2645 C2655 0.930 . S
C2646 H2640 0.930 . S
C2646 C2647 1.355 . S
C2646 C2648 1.415 . S
C2647 C2646 1.355 . S
C2647 C2649 1.419 . S
C2648 C2646 1.415 . S
C2648 C2653 1.425 . S
C2648 C2655 1.409 . S
C2649 H2641 0.930 . S
C2649 C2647 1.419 . S
C2649 C2650 1.362 . S
C2650 H2642 0.930 . S
C2650 C2649 1.362 . S
C2650 C2653 1.409 . S
C2651 H2643 0.930 . S
C2651 C2652 1.355 . S
C2651 C2653 1.415 . S
C2652 C2651 1.355 . S
C2652 C2654 1.419 . S
C2653 C2648 1.425 . S
C2653 C2650 1.409 . S
C2653 C2651 1.415 . S
C2654 H2644 0.930 . S
C2654 C2652 1.419 . S
C2654 C2655 1.362 . S
C2655 H2645 0.930 . S
C2655 C2648 1.409 . S
C2655 C2654 1.362 . S
H2656 C2662 0.930 . S
H2657 C2665 0.930 . S
H2658 C2666 0.930 . S
H2659 C2667 0.930 . S
H2660 C2670 0.930 . S
H2661 C2671 0.930 . S
C2662 H2656 0.930 . S
C2662 C2663 1.355 . S
C2662 C2664 1.415 . S
C2663 C2662 1.355 . S
C2663 C2665 1.419 . S
C2664 C2662 1.415 . S
C2664 C2669 1.425 . S
C2664 C2671 1.409 . S
C2665 H2657 0.930 . S
C2665 C2663 1.419 . S
C2665 C2666 1.362 . S
C2666 H2658 0.930 . S
C2666 C2665 1.362 . S
C2666 C2669 1.409 . S
C2667 H2659 0.930 . S
C2667 C2668 1.355 . S
C2667 C2669 1.415 . S
C2668 C2667 1.355 . S
C2668 C2670 1.419 . S
C2669 C2664 1.425 . S
C2669 C2666 1.409 . S
C2669 C2667 1.415 . S
C2670 H2660 0.930 . S
C2670 C2668 1.419 . S
C2670 C2671 1.362 . S
C2671 H2661 0.930 . S
C2671 C2664 1.409 . S
C2671 C2670 1.362 . S
H2672 C2678 0.930 . S
H2673 C2681 0.930 . S
H2674 C2682 0.930 . S
H2675 C2683 0.930 . S
H2676 C2686 0.930 . S
H2677 C2687 0.930 . S
C2678 H2672 0.930 . S
C2678 C2679 1.355 . S
C2678 C2680 1.415 . S
C2679 C2678 1.355 . S
C2679 C2681 1.419 . S
C2680 C2678 1.415 . S
C2680 C2685 1.425 . S
C2680 C2687 1.409 . S
C2681 H2673 0.930 . S
C2681 C2679 1.419 . S
C2681 C2682 1.362 . S
C2682 H2674 0.930 . S
C2682 C2681 1.362 . S
C2682 C2685 1.409 . S
C2683 H2675 0.930 . S
C2683 C2684 1.355 . S
C2683 C2685 1.415 . S
C2684 C2683 1.355 . S
C2684 C2686 1.419 . S
C2685 C2680 1.425 . S
C2685 C2682 1.409 . S
C2685 C2683 1.415 . S
C2686 H2676 0.930 . S
C2686 C2684 1.419 . S
C2686 C2687 1.362 . S
C2687 H2677 0.930 . S
C2687 C2680 1.409 . S
C2687 C2686 1.362 . S
H2688 C2694 0.930 . S
H2689 C2697 0.930 . S
H2690 C2698 0.930 . S
H2691 C2699 0.930 . S
H2692 C2702 0.930 . S
H2693 C2703 0.930 . S
C2694 H2688 0.930 . S
C2694 C2695 1.355 . S
C2694 C2696 1.415 . S
C2695 C2694 1.355 . S
C2695 C2697 1.419 . S
C2696 C2694 1.415 . S
C2696 C2701 1.425 . S
C2696 C2703 1.409 . S
C2697 H2689 0.930 . S
C2697 C2695 1.419 . S
C2697 C2698 1.362 . S
C2698 H2690 0.930 . S
C2698 C2697 1.362 . S
C2698 C2701 1.409 . S
C2699 H2691 0.930 . S
C2699 C2700 1.355 . S
C2699 C2701 1.415 . S
C2700 C2699 1.355 . S
C2700 C2702 1.419 . S
C2701 C2696 1.425 . S
C2701 C2698 1.409 . S
C2701 C2699 1.415 . S
C2702 H2692 0.930 . S
C2702 C2700 1.419 . S
C2702 C2703 1.362 . S
C2703 H2693 0.930 . S
C2703 C2696 1.409 . S
C2703 C2702 1.362 . S
H2704 C2710 0.930 . S
H2705 C2713 0.930 . S
H2706 C2714 0.930 . S
H2707 C2715 0.930 . S
H2708 C2718 0.930 . S
H2709 C2719 0.930 . S
C2710 H2704 0.930 . S
C2710 C2711 1.355 . S
C2710 C2712 1.415 . S
C2711 C2710 1.355 . S
C2711 C2713 1.419 . S
C2712 C2710 1.415 . S
C2712 C2717 1.425 . S
C2712 C2719 1.409 . S
C2713 H2705 0.930 . S
C2713 C2711 1.419 . S
C2713 C2714 1.362 . S
C2714 H2706 0.930 . S
C2714 C2713 1.362 . S
C2714 C2717 1.409 . S
C2715 H2707 0.930 . S
C2715 C2716 1.355 . S
C2715 C2717 1.415 . S
C2716 C2715 1.355 . S
C2716 C2718 1.419 . S
C2717 C2712 1.425 . S
C2717 C2714 1.409 . S
C2717 C2715 1.415 . S
C2718 H2708 0.930 . S
C2718 C2716 1.419 . S
C2718 C2719 1.362 . S
C2719 H2709 0.930 . S
C2719 C2712 1.409 . S
C2719 C2718 1.362 . S
H2720 C2726 0.930 . S
H2721 C2729 0.930 . S
H2722 C2730 0.930 . S
H2723 C2731 0.930 . S
H2724 C2734 0.930 . S
H2725 C2735 0.930 . S
C2726 H2720 0.930 . S
C2726 C2727 1.355 . S
C2726 C2728 1.415 . S
C2727 C2726 1.355 . S
C2727 C2729 1.419 . S
C2728 C2726 1.415 . S
C2728 C2733 1.425 . S
C2728 C2735 1.409 . S
C2729 H2721 0.930 . S
C2729 C2727 1.419 . S
C2729 C2730 1.362 . S
C2730 H2722 0.930 . S
C2730 C2729 1.362 . S
C2730 C2733 1.409 . S
C2731 H2723 0.930 . S
C2731 C2732 1.355 . S
C2731 C2733 1.415 . S
C2732 C2731 1.355 . S
C2732 C2734 1.419 . S
C2733 C2728 1.425 . S
C2733 C2730 1.409 . S
C2733 C2731 1.415 . S
C2734 H2724 0.930 . S
C2734 C2732 1.419 . S
C2734 C2735 1.362 . S
C2735 H2725 0.930 . S
C2735 C2728 1.409 . S
C2735 C2734 1.362 . S
H2736 C2742 0.930 . S
H2737 C2745 0.930 . S
H2738 C2746 0.930 . S
H2739 C2747 0.930 . S
H2740 C2750 0.930 . S
H2741 C2751 0.930 . S
C2742 H2736 0.930 . S
C2742 C2743 1.355 . S
C2742 C2744 1.415 . S
C2743 C2742 1.355 . S
C2743 C2745 1.419 . S
C2744 C2742 1.415 . S
C2744 C2749 1.425 . S
C2744 C2751 1.409 . S
C2745 H2737 0.930 . S
C2745 C2743 1.419 . S
C2745 C2746 1.362 . S
C2746 H2738 0.930 . S
C2746 C2745 1.362 . S
C2746 C2749 1.409 . S
C2747 H2739 0.930 . S
C2747 C2748 1.355 . S
C2747 C2749 1.415 . S
C2748 C2747 1.355 . S
C2748 C2750 1.419 . S
C2749 C2744 1.425 . S
C2749 C2746 1.409 . S
C2749 C2747 1.415 . S
C2750 H2740 0.930 . S
C2750 C2748 1.419 . S
C2750 C2751 1.362 . S
C2751 H2741 0.930 . S
C2751 C2744 1.409 . S
C2751 C2750 1.362 . S
H2752 C2758 0.930 . S
H2753 C2761 0.930 . S
H2754 C2762 0.930 . S
H2755 C2763 0.930 . S
H2756 C2766 0.930 . S
H2757 C2767 0.930 . S
C2758 H2752 0.930 . S
C2758 C2759 1.355 . S
C2758 C2760 1.415 . S
C2759 C2758 1.355 . S
C2759 C2761 1.419 . S
C2760 C2758 1.415 . S
C2760 C2765 1.425 . S
C2760 C2767 1.409 . S
C2761 H2753 0.930 . S
C2761 C2759 1.419 . S
C2761 C2762 1.362 . S
C2762 H2754 0.930 . S
C2762 C2761 1.362 . S
C2762 C2765 1.409 . S
C2763 H2755 0.930 . S
C2763 C2764 1.355 . S
C2763 C2765 1.415 . S
C2764 C2763 1.355 . S
C2764 C2766 1.419 . S
C2765 C2760 1.425 . S
C2765 C2762 1.409 . S
C2765 C2763 1.415 . S
C2766 H2756 0.930 . S
C2766 C2764 1.419 . S
C2766 C2767 1.362 . S
C2767 H2757 0.930 . S
C2767 C2760 1.409 . S
C2767 C2766 1.362 . S
H2768 C2774 0.930 . S
H2769 C2777 0.930 . S
H2770 C2778 0.930 . S
H2771 C2779 0.930 . S
H2772 C2782 0.930 . S
H2773 C2783 0.930 . S
C2774 H2768 0.930 . S
C2774 C2775 1.355 . S
C2774 C2776 1.415 . S
C2775 C2774 1.355 . S
C2775 C2777 1.419 . S
C2776 C2774 1.415 . S
C2776 C2781 1.425 . S
C2776 C2783 1.409 . S
C2777 H2769 0.930 . S
C2777 C2775 1.419 . S
C2777 C2778 1.362 . S
C2778 H2770 0.930 . S
C2778 C2777 1.362 . S
C2778 C2781 1.409 . S
C2779 H2771 0.930 . S
C2779 C2780 1.355 . S
C2779 C2781 1.415 . S
C2780 C2779 1.355 . S
C2780 C2782 1.419 . S
C2781 C2776 1.425 . S
C2781 C2778 1.409 . S
C2781 C2779 1.415 . S
C2782 H2772 0.930 . S
C2782 C2780 1.419 . S
C2782 C2783 1.362 . S
C2783 H2773 0.930 . S
C2783 C2776 1.409 . S
C2783 C2782 1.362 . S
H2784 C2790 0.930 . S
H2785 C2793 0.930 . S
H2786 C2794 0.930 . S
H2787 C2795 0.930 . S
H2788 C2798 0.930 . S
H2789 C2799 0.930 . S
C2790 H2784 0.930 . S
C2790 C2791 1.355 . S
C2790 C2792 1.415 . S
C2791 C2790 1.355 . S
C2791 C2793 1.419 . S
C2792 C2790 1.415 . S
C2792 C2797 1.425 . S
C2792 C2799 1.409 . S
C2793 H2785 0.930 . S
C2793 C2791 1.419 . S
C2793 C2794 1.362 . S
C2794 H2786 0.930 . S
C2794 C2793 1.362 . S
C2794 C2797 1.409 . S
C2795 H2787 0.930 . S
C2795 C2796 1.355 . S
C2795 C2797 1.415 . S
C2796 C2795 1.355 . S
C2796 C2798 1.419 . S
C2797 C2792 1.425 . S
C2797 C2794 1.409 . S
C2797 C2795 1.415 . S
C2798 H2788 0.930 . S
C2798 C2796 1.419 . S
C2798 C2799 1.362 . S
C2799 H2789 0.930 . S
C2799 C2792 1.409 . S
C2799 C2798 1.362 . S
H2800 C2806 0.930 . S
H2801 C2809 0.930 . S
H2802 C2810 0.930 . S
H2803 C2811 0.930 . S
H2804 C2814 0.930 . S
H2805 C2815 0.930 . S
C2806 H2800 0.930 . S
C2806 C2807 1.355 . S
C2806 C2808 1.415 . S
C2807 C2806 1.355 . S
C2807 C2809 1.419 . S
C2808 C2806 1.415 . S
C2808 C2813 1.425 . S
C2808 C2815 1.409 . S
C2809 H2801 0.930 . S
C2809 C2807 1.419 . S
C2809 C2810 1.362 . S
C2810 H2802 0.930 . S
C2810 C2809 1.362 . S
C2810 C2813 1.409 . S
C2811 H2803 0.930 . S
C2811 C2812 1.355 . S
C2811 C2813 1.415 . S
C2812 C2811 1.355 . S
C2812 C2814 1.419 . S
C2813 C2808 1.425 . S
C2813 C2810 1.409 . S
C2813 C2811 1.415 . S
C2814 H2804 0.930 . S
C2814 C2812 1.419 . S
C2814 C2815 1.362 . S
C2815 H2805 0.930 . S
C2815 C2808 1.409 . S
C2815 C2814 1.362 . S
H2816 C2822 0.930 . S
H2817 C2825 0.930 . S
H2818 C2826 0.930 . S
H2819 C2827 0.930 . S
H2820 C2830 0.930 . S
H2821 C2831 0.930 . S
C2822 H2816 0.930 . S
C2822 C2823 1.355 . S
C2822 C2824 1.415 . S
C2823 C2822 1.355 . S
C2823 C2825 1.419 . S
C2824 C2822 1.415 . S
C2824 C2829 1.425 . S
C2824 C2831 1.409 . S
C2825 H2817 0.930 . S
C2825 C2823 1.419 . S
C2825 C2826 1.362 . S
C2826 H2818 0.930 . S
C2826 C2825 1.362 . S
C2826 C2829 1.409 . S
C2827 H2819 0.930 . S
C2827 C2828 1.355 . S
C2827 C2829 1.415 . S
C2828 C2827 1.355 . S
C2828 C2830 1.419 . S
C2829 C2824 1.425 . S
C2829 C2826 1.409 . S
C2829 C2827 1.415 . S
C2830 H2820 0.930 . S
C2830 C2828 1.419 . S
C2830 C2831 1.362 . S
C2831 H2821 0.930 . S
C2831 C2824 1.409 . S
C2831 C2830 1.362 . S
H2832 C2838 0.930 . S
H2833 C2841 0.930 . S
H2834 C2842 0.930 . S
H2835 C2843 0.930 . S
H2836 C2846 0.930 . S
H2837 C2847 0.930 . S
C2838 H2832 0.930 . S
C2838 C2839 1.355 . S
C2838 C2840 1.415 . S
C2839 C2838 1.355 . S
C2839 C2841 1.419 . S
C2840 C2838 1.415 . S
C2840 C2845 1.425 . S
C2840 C2847 1.409 . S
C2841 H2833 0.930 . S
C2841 C2839 1.419 . S
C2841 C2842 1.362 . S
C2842 H2834 0.930 . S
C2842 C2841 1.362 . S
C2842 C2845 1.409 . S
C2843 H2835 0.930 . S
C2843 C2844 1.355 . S
C2843 C2845 1.415 . S
C2844 C2843 1.355 . S
C2844 C2846 1.419 . S
C2845 C2840 1.425 . S
C2845 C2842 1.409 . S
C2845 C2843 1.415 . S
C2846 H2836 0.930 . S
C2846 C2844 1.419 . S
C2846 C2847 1.362 . S
C2847 H2837 0.930 . S
C2847 C2840 1.409 . S
C2847 C2846 1.362 . S
H2848 C2854 0.930 . S
H2849 C2857 0.930 . S
H2850 C2858 0.930 . S
H2851 C2859 0.930 . S
H2852 C2862 0.930 . S
H2853 C2863 0.930 . S
C2854 H2848 0.930 . S
C2854 C2855 1.355 . S
C2854 C2856 1.415 . S
C2855 C2854 1.355 . S
C2855 C2857 1.419 . S
C2856 C2854 1.415 . S
C2856 C2861 1.425 . S
C2856 C2863 1.409 . S
C2857 H2849 0.930 . S
C2857 C2855 1.419 . S
C2857 C2858 1.362 . S
C2858 H2850 0.930 . S
C2858 C2857 1.362 . S
C2858 C2861 1.409 . S
C2859 H2851 0.930 . S
C2859 C2860 1.355 . S
C2859 C2861 1.415 . S
C2860 C2859 1.355 . S
C2860 C2862 1.419 . S
C2861 C2856 1.425 . S
C2861 C2858 1.409 . S
C2861 C2859 1.415 . S
C2862 H2852 0.930 . S
C2862 C2860 1.419 . S
C2862 C2863 1.362 . S
C2863 H2853 0.930 . S
C2863 C2856 1.409 . S
C2863 C2862 1.362 . S
H2864 C2870 0.930 . S
H2865 C2873 0.930 . S
H2866 C2874 0.930 . S
H2867 C2875 0.930 . S
H2868 C2878 0.930 . S
H2869 C2879 0.930 . S
C2870 H2864 0.930 . S
C2870 C2871 1.355 . S
C2870 C2872 1.415 . S
C2871 C2870 1.355 . S
C2871 C2873 1.419 . S
C2872 C2870 1.415 . S
C2872 C2877 1.425 . S
C2872 C2879 1.409 . S
C2873 H2865 0.930 . S
C2873 C2871 1.419 . S
C2873 C2874 1.362 . S
C2874 H2866 0.930 . S
C2874 C2873 1.362 . S
C2874 C2877 1.409 . S
C2875 H2867 0.930 . S
C2875 C2876 1.355 . S
C2875 C2877 1.415 . S
C2876 C2875 1.355 . S
C2876 C2878 1.419 . S
C2877 C2872 1.425 . S
C2877 C2874 1.409 . S
C2877 C2875 1.415 . S
C2878 H2868 0.930 . S
C2878 C2876 1.419 . S
C2878 C2879 1.362 . S
C2879 H2869 0.930 . S
C2879 C2872 1.409 . S
C2879 C2878 1.362 . S
H2880 C2886 0.930 . S
H2881 C2889 0.930 . S
H2882 C2890 0.930 . S
H2883 C2891 0.930 . S
H2884 C2894 0.930 . S
H2885 C2895 0.930 . S
C2886 H2880 0.930 . S
C2886 C2887 1.355 . S
C2886 C2888 1.415 . S
C2887 C2886 1.355 . S
C2887 C2889 1.419 . S
C2888 C2886 1.415 . S
C2888 C2893 1.425 . S
C2888 C2895 1.409 . S
C2889 H2881 0.930 . S
C2889 C2887 1.419 . S
C2889 C2890 1.362 . S
C2890 H2882 0.930 . S
C2890 C2889 1.362 . S
C2890 C2893 1.409 . S
C2891 H2883 0.930 . S
C2891 C2892 1.355 . S
C2891 C2893 1.415 . S
C2892 C2891 1.355 . S
C2892 C2894 1.419 . S
C2893 C2888 1.425 . S
C2893 C2890 1.409 . S
C2893 C2891 1.415 . S
C2894 H2884 0.930 . S
C2894 C2892 1.419 . S
C2894 C2895 1.362 . S
C2895 H2885 0.930 . S
C2895 C2888 1.409 . S
C2895 C2894 1.362 . S
H2896 C2902 0.930 . S
H2897 C2905 0.930 . S
H2898 C2906 0.930 . S
H2899 C2907 0.930 . S
H2900 C2910 0.930 . S
H2901 C2911 0.930 . S
C2902 H2896 0.930 . S
C2902 C2903 1.355 . S
C2902 C2904 1.415 . S
C2903 C2902 1.355 . S
C2903 C2905 1.419 . S
C2904 C2902 1.415 . S
C2904 C2909 1.425 . S
C2904 C2911 1.409 . S
C2905 H2897 0.930 . S
C2905 C2903 1.419 . S
C2905 C2906 1.362 . S
C2906 H2898 0.930 . S
C2906 C2905 1.362 . S
C2906 C2909 1.409 . S
C2907 H2899 0.930 . S
C2907 C2908 1.355 . S
C2907 C2909 1.415 . S
C2908 C2907 1.355 . S
C2908 C2910 1.419 . S
C2909 C2904 1.425 . S
C2909 C2906 1.409 . S
C2909 C2907 1.415 . S
C2910 H2900 0.930 . S
C2910 C2908 1.419 . S
C2910 C2911 1.362 . S
C2911 H2901 0.930 . S
C2911 C2904 1.409 . S
C2911 C2910 1.362 . S
H2912 C2918 0.930 . S
H2913 C2921 0.930 . S
H2914 C2922 0.930 . S
H2915 C2923 0.930 . S
H2916 C2926 0.930 . S
H2917 C2927 0.930 . S
C2918 H2912 0.930 . S
C2918 C2919 1.355 . S
C2918 C2920 1.415 . S
C2919 C2918 1.355 . S
C2919 C2921 1.419 . S
C2920 C2918 1.415 . S
C2920 C2925 1.425 . S
C2920 C2927 1.409 . S
C2921 H2913 0.930 . S
C2921 C2919 1.419 . S
C2921 C2922 1.362 . S
C2922 H2914 0.930 . S
C2922 C2921 1.362 . S
C2922 C2925 1.409 . S
C2923 H2915 0.930 . S
C2923 C2924 1.355 . S
C2923 C2925 1.415 . S
C2924 C2923 1.355 . S
C2924 C2926 1.419 . S
C2925 C2920 1.425 . S
C2925 C2922 1.409 . S
C2925 C2923 1.415 . S
C2926 H2916 0.930 . S
C2926 C2924 1.419 . S
C2926 C2927 1.362 . S
C2927 H2917 0.930 . S
C2927 C2920 1.409 . S
C2927 C2926 1.362 . S
H2928 C2934 0.930 . S
H2929 C2937 0.930 . S
H2930 C2938 0.930 . S
H2931 C2939 0.930 . S
H2932 C2942 0.930 . S
H2933 C2943 0.930 . S
C2934 H2928 0.930 . S
C2934 C2935 1.355 . S
C2934 C2936 1.415 . S
C2935 C2934 1.355 . S
C2935 C2937 1.419 . S
C2936 C2934 1.415 . S
C2936 C2941 1.425 . S
C2936 C2943 1.409 . S
C2937 H2929 0.930 . S
C2937 C2935 1.419 . S
C2937 C2938 1.362 . S
C2938 H2930 0.930 . S
C2938 C2937 1.362 . S
C2938 C2941 1.409 . S
C2939 H2931 0.930 . S
C2939 C2940 1.355 . S
C2939 C2941 1.415 . S
C2940 C2939 1.355 . S
C2940 C2942 1.419 . S
C2941 C2936 1.425 . S
C2941 C2938 1.409 . S
C2941 C2939 1.415 . S
C2942 H2932 0.930 . S
C2942 C2940 1.419 . S
C2942 C2943 1.362 . S
C2943 H2933 0.930 . S
C2943 C2936 1.409 . S
C2943 C2942 1.362 . S
H2944 C2950 0.930 . S
H2945 C2953 0.930 . S
H2946 C2954 0.930 . S
H2947 C2955 0.930 . S
H2948 C2958 0.930 . S
H2949 C2959 0.930 . S
C2950 H2944 0.930 . S
C2950 C2951 1.355 . S
C2950 C2952 1.415 . S
C2951 C2950 1.355 . S
C2951 C2953 1.419 . S
C2952 C2950 1.415 . S
C2952 C2957 1.425 . S
C2952 C2959 1.409 . S
C2953 H2945 0.930 . S
C2953 C2951 1.419 . S
C2953 C2954 1.362 . S
C2954 H2946 0.930 . S
C2954 C2953 1.362 . S
C2954 C2957 1.409 . S
C2955 H2947 0.930 . S
C2955 C2956 1.355 . S
C2955 C2957 1.415 . S
C2956 C2955 1.355 . S
C2956 C2958 1.419 . S
C2957 C2952 1.425 . S
C2957 C2954 1.409 . S
C2957 C2955 1.415 . S
C2958 H2948 0.930 . S
C2958 C2956 1.419 . S
C2958 C2959 1.362 . S
C2959 H2949 0.930 . S
C2959 C2952 1.409 . S
C2959 C2958 1.362 . S
H2960 C2966 0.930 . S
H2961 C2969 0.930 . S
H2962 C2970 0.930 . S
H2963 C2971 0.930 . S
H2964 C2974 0.930 . S
H2965 C2975 0.930 . S
C2966 H2960 0.930 . S
C2966 C2967 1.355 . S
C2966 C2968 1.415 . S
C2967 C2966 1.355 . S
C2967 C2969 1.419 . S
C2968 C2966 1.415 . S
C2968 C2973 1.425 . S
C2968 C2975 1.409 . S
C2969 H2961 0.930 . S
C2969 C2967 1.419 . S
C2969 C2970 1.362 . S
C2970 H2962 0.930 . S
C2970 C2969 1.362 . S
C2970 C2973 1.409 . S
C2971 H2963 0.930 . S
C2971 C2972 1.355 . S
C2971 C2973 1.415 . S
C2972 C2971 1.355 . S
C2972 C2974 1.419 . S
C2973 C2968 1.425 . S
C2973 C2970 1.409 . S
C2973 C2971 1.415 . S
C2974 H2964 0.930 . S
C2974 C2972 1.419 . S
C2974 C2975 1.362 . S
C2975 H2965 0.930 . S
C2975 C2968 1.409 . S
C2975 C2974 1.362 . S
H2976 C2982 0.930 . S
H2977 C2985 0.930 . S
H2978 C2986 0.930 . S
H2979 C2987 0.930 . S
H2980 C2990 0.930 . S
H2981 C2991 0.930 . S
C2982 H2976 0.930 . S
C2982 C2983 1.355 . S
C2982 C2984 1.415 . S
C2983 C2982 1.355 . S
C2983 C2985 1.419 . S
C2984 C2982 1.415 . S
C2984 C2989 1.425 . S
C2984 C2991 1.409 . S
C2985 H2977 0.930 . S
C2985 C2983 1.419 . S
C2985 C2986 1.362 . S
C2986 H2978 0.930 . S
C2986 C2985 1.362 . S
C2986 C2989 1.409 . S
C2987 H2979 0.930 . S
C2987 C2988 1.355 . S
C2987 C2989 1.415 . S
C2988 C2987 1.355 . S
C2988 C2990 1.419 . S
C2989 C2984 1.425 . S
C2989 C2986 1.409 . S
C2989 C2987 1.415 . S
C2990 H2980 0.930 . S
C2990 C2988 1.419 . S
C2990 C2991 1.362 . S
C2991 H2981 0.930 . S
C2991 C2984 1.409 . S
C2991 C2990 1.362 . S
H2992 C2998 0.930 . S
H2993 C3001 0.930 . S
H2994 C3002 0.930 . S
H2995 C3003 0.930 . S
H2996 C3006 0.930 . S
H2997 C3007 0.930 . S
C2998 H2992 0.930 . S
C2998 C2999 1.355 . S
C2998 C3000 1.415 . S
C2999 C2998 1.355 . S
C2999 C3001 1.419 . S
C3000 C2998 1.415 . S
C3000 C3005 1.425 . S
C3000 C3007 1.409 . S
C3001 H2993 0.930 . S
C3001 C2999 1.419 . S
C3001 C3002 1.362 . S
C3002 H2994 0.930 . S
C3002 C3001 1.362 . S
C3002 C3005 1.409 . S
C3003 H2995 0.930 . S
C3003 C3004 1.355 . S
C3003 C3005 1.415 . S
C3004 C3003 1.355 . S
C3004 C3006 1.419 . S
C3005 C3000 1.425 . S
C3005 C3002 1.409 . S
C3005 C3003 1.415 . S
C3006 H2996 0.930 . S
C3006 C3004 1.419 . S
C3006 C3007 1.362 . S
C3007 H2997 0.930 . S
C3007 C3000 1.409 . S
C3007 C3006 1.362 . S
H3008 C3014 0.930 . S
H3009 C3017 0.930 . S
H3010 C3018 0.930 . S
H3011 C3019 0.930 . S
H3012 C3022 0.930 . S
H3013 C3023 0.930 . S
C3014 H3008 0.930 . S
C3014 C3015 1.355 . S
C3014 C3016 1.415 . S
C3015 C3014 1.355 . S
C3015 C3017 1.419 . S
C3016 C3014 1.415 . S
C3016 C3021 1.425 . S
C3016 C3023 1.409 . S
C3017 H3009 0.930 . S
C3017 C3015 1.419 . S
C3017 C3018 1.362 . S
C3018 H3010 0.930 . S
C3018 C3017 1.362 . S
C3018 C3021 1.409 . S
C3019 H3011 0.930 . S
C3019 C3020 1.355 . S
C3019 C3021 1.415 . S
C3020 C3019 1.355 . S
C3020 C3022 1.419 . S
C3021 C3016 1.425 . S
C3021 C3018 1.409 . S
C3021 C3019 1.415 . S
C3022 H3012 0.930 . S
C3022 C3020 1.419 . S
C3022 C3023 1.362 . S
C3023 H3013 0.930 . S
C3023 C3016 1.409 . S
C3023 C3022 1.362 . S
H3024 C3030 0.930 . S
H3025 C3033 0.930 . S
H3026 C3034 0.930 . S
H3027 C3035 0.930 . S
H3028 C3038 0.930 . S
H3029 C3039 0.930 . S
C3030 H3024 0.930 . S
C3030 C3031 1.355 . S
C3030 C3032 1.415 . S
C3031 C3030 1.355 . S
C3031 C3033 1.419 . S
C3032 C3030 1.415 . S
C3032 C3037 1.425 . S
C3032 C3039 1.409 . S
C3033 H3025 0.930 . S
C3033 C3031 1.419 . S
C3033 C3034 1.362 . S
C3034 H3026 0.930 . S
C3034 C3033 1.362 . S
C3034 C3037 1.409 . S
C3035 H3027 0.930 . S
C3035 C3036 1.355 . S
C3035 C3037 1.415 . S
C3036 C3035 1.355 . S
C3036 C3038 1.419 . S
C3037 C3032 1.425 . S
C3037 C3034 1.409 . S
C3037 C3035 1.415 . S
C3038 H3028 0.930 . S
C3038 C3036 1.419 . S
C3038 C3039 1.362 . S
C3039 H3029 0.930 . S
C3039 C3032 1.409 . S
C3039 C3038 1.362 . S
H3040 C3046 0.930 . S
H3041 C3049 0.930 . S
H3042 C3050 0.930 . S
H3043 C3051 0.930 . S
H3044 C3054 0.930 . S
H3045 C3055 0.930 . S
C3046 H3040 0.930 . S
C3046 C3047 1.355 . S
C3046 C3048 1.415 . S
C3047 C3046 1.355 . S
C3047 C3049 1.419 . S
C3048 C3046 1.415 . S
C3048 C3053 1.425 . S
C3048 C3055 1.409 . S
C3049 H3041 0.930 . S
C3049 C3047 1.419 . S
C3049 C3050 1.362 . S
C3050 H3042 0.930 . S
C3050 C3049 1.362 . S
C3050 C3053 1.409 . S
C3051 H3043 0.930 . S
C3051 C3052 1.355 . S
C3051 C3053 1.415 . S
C3052 C3051 1.355 . S
C3052 C3054 1.419 . S
C3053 C3048 1.425 . S
C3053 C3050 1.409 . S
C3053 C3051 1.415 . S
C3054 H3044 0.930 . S
C3054 C3052 1.419 . S
C3054 C3055 1.362 . S
C3055 H3045 0.930 . S
C3055 C3048 1.409 . S
C3055 C3054 1.362 . S
H3056 C3062 0.930 . S
H3057 C3065 0.930 . S
H3058 C3066 0.930 . S
H3059 C3067 0.930 . S
H3060 C3070 0.930 . S
H3061 C3071 0.930 . S
C3062 H3056 0.930 . S
C3062 C3063 1.355 . S
C3062 C3064 1.415 . S
C3063 C3062 1.355 . S
C3063 C3065 1.419 . S
C3064 C3062 1.415 . S
C3064 C3069 1.425 . S
C3064 C3071 1.409 . S
C3065 H3057 0.930 . S
C3065 C3063 1.419 . S
C3065 C3066 1.362 . S
C3066 H3058 0.930 . S
C3066 C3065 1.362 . S
C3066 C3069 1.409 . S
C3067 H3059 0.930 . S
C3067 C3068 1.355 . S
C3067 C3069 1.415 . S
C3068 C3067 1.355 . S
C3068 C3070 1.419 . S
C3069 C3064 1.425 . S
C3069 C3066 1.409 . S
C3069 C3067 1.415 . S
C3070 H3060 0.930 . S
C3070 C3068 1.419 . S
C3070 C3071 1.362 . S
C3071 H3061 0.930 . S
C3071 C3064 1.409 . S
C3071 C3070 1.362 . S
H3072 C3078 0.930 . S
H3073 C3081 0.930 . S
H3074 C3082 0.930 . S
H3075 C3083 0.930 . S
H3076 C3086 0.930 . S
H3077 C3087 0.930 . S
C3078 H3072 0.930 . S
C3078 C3079 1.355 . S
C3078 C3080 1.415 . S
C3079 C3078 1.355 . S
C3079 C3081 1.419 . S
C3080 C3078 1.415 . S
C3080 C3085 1.425 . S
C3080 C3087 1.409 . S
C3081 H3073 0.930 . S
C3081 C3079 1.419 . S
C3081 C3082 1.362 . S
C3082 H3074 0.930 . S
C3082 C3081 1.362 . S
C3082 C3085 1.409 . S
C3083 H3075 0.930 . S
C3083 C3084 1.355 . S
C3083 C3085 1.415 . S
C3084 C3083 1.355 . S
C3084 C3086 1.419 . S
C3085 C3080 1.425 . S
C3085 C3082 1.409 . S
C3085 C3083 1.415 . S
C3086 H3076 0.930 . S
C3086 C3084 1.419 . S
C3086 C3087 1.362 . S
C3087 H3077 0.930 . S
C3087 C3080 1.409 . S
C3087 C3086 1.362 . S
H3088 C3094 0.930 . S
H3089 C3097 0.930 . S
H3090 C3098 0.930 . S
H3091 C3099 0.930 . S
H3092 C3102 0.930 . S
H3093 C3103 0.930 . S
C3094 H3088 0.930 . S
C3094 C3095 1.355 . S
C3094 C3096 1.415 . S
C3095 C3094 1.355 . S
C3095 C3097 1.419 . S
C3096 C3094 1.415 . S
C3096 C3101 1.425 . S
C3096 C3103 1.409 . S
C3097 H3089 0.930 . S
C3097 C3095 1.419 . S
C3097 C3098 1.362 . S
C3098 H3090 0.930 . S
C3098 C3097 1.362 . S
C3098 C3101 1.409 . S
C3099 H3091 0.930 . S
C3099 C3100 1.355 . S
C3099 C3101 1.415 . S
C3100 C3099 1.355 . S
C3100 C3102 1.419 . S
C3101 C3096 1.425 . S
C3101 C3098 1.409 . S
C3101 C3099 1.415 . S
C3102 H3092 0.930 . S
C3102 C3100 1.419 . S
C3102 C3103 1.362 . S
C3103 H3093 0.930 . S
C3103 C3096 1.409 . S
C3103 C3102 1.362 . S
H3104 C3110 0.930 . S
H3105 C3113 0.930 . S
H3106 C3114 0.930 . S
H3107 C3115 0.930 . S
H3108 C3118 0.930 . S
H3109 C3119 0.930 . S
C3110 H3104 0.930 . S
C3110 C3111 1.355 . S
C3110 C3112 1.415 . S
C3111 C3110 1.355 . S
C3111 C3113 1.419 . S
C3112 C3110 1.415 . S
C3112 C3117 1.425 . S
C3112 C3119 1.409 . S
C3113 H3105 0.930 . S
C3113 C3111 1.419 . S
C3113 C3114 1.362 . S
C3114 H3106 0.930 . S
C3114 C3113 1.362 . S
C3114 C3117 1.409 . S
C3115 H3107 0.930 . S
C3115 C3116 1.355 . S
C3115 C3117 1.415 . S
C3116 C3115 1.355 . S
C3116 C3118 1.419 . S
C3117 C3112 1.425 . S
C3117 C3114 1.409 . S
C3117 C3115 1.415 . S
C3118 H3108 0.930 . S
C3118 C3116 1.419 . S
C3118 C3119 1.362 . S
C3119 H3109 0.930 . S
C3119 C3112 1.409 . S
C3119 C3118 1.362 . S
H3120 C3126 0.930 . S
H3121 C3129 0.930 . S
H3122 C3130 0.930 . S
H3123 C3131 0.930 . S
H3124 C3134 0.930 . S
H3125 C3135 0.930 . S
C3126 H3120 0.930 . S
C3126 C3127 1.355 . S
C3126 C3128 1.415 . S
C3127 C3126 1.355 . S
C3127 C3129 1.419 . S
C3128 C3126 1.415 . S
C3128 C3133 1.425 . S
C3128 C3135 1.409 . S
C3129 H3121 0.930 . S
C3129 C3127 1.419 . S
C3129 C3130 1.362 . S
C3130 H3122 0.930 . S
C3130 C3129 1.362 . S
C3130 C3133 1.409 . S
C3131 H3123 0.930 . S
C3131 C3132 1.355 . S
C3131 C3133 1.415 . S
C3132 C3131 1.355 . S
C3132 C3134 1.419 . S
C3133 C3128 1.425 . S
C3133 C3130 1.409 . S
C3133 C3131 1.415 . S
C3134 H3124 0.930 . S
C3134 C3132 1.419 . S
C3134 C3135 1.362 . S
C3135 H3125 0.930 . S
C3135 C3128 1.409 . S
C3135 C3134 1.362 . S
H3136 C3142 0.930 . S
H3137 C3145 0.930 . S
H3138 C3146 0.930 . S
H3139 C3147 0.930 . S
H3140 C3150 0.930 . S
H3141 C3151 0.930 . S
C3142 H3136 0.930 . S
C3142 C3143 1.355 . S
C3142 C3144 1.415 . S
C3143 C3142 1.355 . S
C3143 C3145 1.419 . S
C3144 C3142 1.415 . S
C3144 C3149 1.425 . S
C3144 C3151 1.409 . S
C3145 H3137 0.930 . S
C3145 C3143 1.419 . S
C3145 C3146 1.362 . S
C3146 H3138 0.930 . S
C3146 C3145 1.362 . S
C3146 C3149 1.409 . S
C3147 H3139 0.930 . S
C3147 C3148 1.355 . S
C3147 C3149 1.415 . S
C3148 C3147 1.355 . S
C3148 C3150 1.419 . S
C3149 C3144 1.425 . S
C3149 C3146 1.409 . S
C3149 C3147 1.415 . S
C3150 H3140 0.930 . S
C3150 C3148 1.419 . S
C3150 C3151 1.362 . S
C3151 H3141 0.930 . S
C3151 C3144 1.409 . S
C3151 C3150 1.362 . S
H3152 C3158 0.930 . S
H3153 C3161 0.930 . S
H3154 C3162 0.930 . S
H3155 C3163 0.930 . S
H3156 C3166 0.930 . S
H3157 C3167 0.930 . S
C3158 H3152 0.930 . S
C3158 C3159 1.355 . S
C3158 C3160 1.415 . S
C3159 C3158 1.355 . S
C3159 C3161 1.419 . S
C3160 C3158 1.415 . S
C3160 C3165 1.425 . S
C3160 C3167 1.409 . S
C3161 H3153 0.930 . S
C3161 C3159 1.419 . S
C3161 C3162 1.362 . S
C3162 H3154 0.930 . S
C3162 C3161 1.362 . S
C3162 C3165 1.409 . S
C3163 H3155 0.930 . S
C3163 C3164 1.355 . S
C3163 C3165 1.415 . S
C3164 C3163 1.355 . S
C3164 C3166 1.419 . S
C3165 C3160 1.425 . S
C3165 C3162 1.409 . S
C3165 C3163 1.415 . S
C3166 H3156 0.930 . S
C3166 C3164 1.419 . S
C3166 C3167 1.362 . S
C3167 H3157 0.930 . S
C3167 C3160 1.409 . S
C3167 C3166 1.362 . S
H3168 C3174 0.930 . S
H3169 C3177 0.930 . S
H3170 C3178 0.930 . S
H3171 C3179 0.930 . S
H3172 C3182 0.930 . S
H3173 C3183 0.930 . S
C3174 H3168 0.930 . S
C3174 C3175 1.355 . S
C3174 C3176 1.415 . S
C3175 C3174 1.355 . S
C3175 C3177 1.419 . S
C3176 C3174 1.415 . S
C3176 C3181 1.425 . S
C3176 C3183 1.409 . S
C3177 H3169 0.930 . S
C3177 C3175 1.419 . S
C3177 C3178 1.362 . S
C3178 H3170 0.930 . S
C3178 C3177 1.362 . S
C3178 C3181 1.409 . S
C3179 H3171 0.930 . S
C3179 C3180 1.355 . S
C3179 C3181 1.415 . S
C3180 C3179 1.355 . S
C3180 C3182 1.419 . S
C3181 C3176 1.425 . S
C3181 C3178 1.409 . S
C3181 C3179 1.415 . S
C3182 H3172 0.930 . S
C3182 C3180 1.419 . S
C3182 C3183 1.362 . S
C3183 H3173 0.930 . S
C3183 C3176 1.409 . S
C3183 C3182 1.362 . S
H3184 C3190 0.930 . S
H3185 C3193 0.930 . S
H3186 C3194 0.930 . S
H3187 C3195 0.930 . S
H3188 C3198 0.930 . S
H3189 C3199 0.930 . S
C3190 H3184 0.930 . S
C3190 C3191 1.355 . S
C3190 C3192 1.415 . S
C3191 C3190 1.355 . S
C3191 C3193 1.419 . S
C3192 C3190 1.415 . S
C3192 C3197 1.425 . S
C3192 C3199 1.409 . S
C3193 H3185 0.930 . S
C3193 C3191 1.419 . S
C3193 C3194 1.362 . S
C3194 H3186 0.930 . S
C3194 C3193 1.362 . S
C3194 C3197 1.409 . S
C3195 H3187 0.930 . S
C3195 C3196 1.355 . S
C3195 C3197 1.415 . S
C3196 C3195 1.355 . S
C3196 C3198 1.419 . S
C3197 C3192 1.425 . S
C3197 C3194 1.409 . S
C3197 C3195 1.415 . S
C3198 H3188 0.930 . S
C3198 C3196 1.419 . S
C3198 C3199 1.362 . S
C3199 H3189 0.930 . S
C3199 C3192 1.409 . S
C3199 C3198 1.362 . S
H3200 C3206 0.930 . S
H3201 C3209 0.930 . S
H3202 C3210 0.930 . S
H3203 C3211 0.930 . S
H3204 C3214 0.930 . S
H3205 C3215 0.930 . S
C3206 H3200 0.930 . S
C3206 C3207 1.355 . S
C3206 C3208 1.415 . S
C3207 C3206 1.355 . S
C3207 C3209 1.419 . S
C3208 C3206 1.415 . S
C3208 C3213 1.425 . S
C3208 C3215 1.409 . S
C3209 H3201 0.930 . S
C3209 C3207 1.419 . S
C3209 C3210 1.362 . S
C3210 H3202 0.930 . S
C3210 C3209 1.362 . S
C3210 C3213 1.409 . S
C3211 H3203 0.930 . S
C3211 C3212 1.355 . S
C3211 C3213 1.415 . S
C3212 C3211 1.355 . S
C3212 C3214 1.419 . S
C3213 C3208 1.425 . S
C3213 C3210 1.409 . S
C3213 C3211 1.415 . S
C3214 H3204 0.930 . S
C3214 C3212 1.419 . S
C3214 C3215 1.362 . S
C3215 H3205 0.930 . S
C3215 C3208 1.409 . S
C3215 C3214 1.362 . S
H3216 C3222 0.930 . S
H3217 C3225 0.930 . S
H3218 C3226 0.930 . S
H3219 C3227 0.930 . S
H3220 C3230 0.930 . S
H3221 C3231 0.930 . S
C3222 H3216 0.930 . S
C3222 C3223 1.355 . S
C3222 C3224 1.415 . S
C3223 C3222 1.355 . S
C3223 C3225 1.419 . S
C3224 C3222 1.415 . S
C3224 C3229 1.425 . S
C3224 C3231 1.409 . S
C3225 H3217 0.930 . S
C3225 C3223 1.419 . S
C3225 C3226 1.362 . S
C3226 H3218 0.930 . S
C3226 C3225 1.362 . S
C3226 C3229 1.409 . S
C3227 H3219 0.930 . S
C3227 C3228 1.355 . S
C3227 C3229 1.415 . S
C3228 C3227 1.355 . S
C3228 C3230 1.419 . S
C3229 C3224 1.425 . S
C3229 C3226 1.409 . S
C3229 C3227 1.415 . S
C3230 H3220 0.930 . S
C3230 C3228 1.419 . S
C3230 C3231 1.362 . S
C3231 H3221 0.930 . S
C3231 C3224 1.409 . S
C3231 C3230 1.362 . S
H3232 C3238 0.930 . S
H3233 C3241 0.930 . S
H3234 C3242 0.930 . S
H3235 C3243 0.930 . S
H3236 C3246 0.930 . S
H3237 C3247 0.930 . S
C3238 H3232 0.930 . S
C3238 C3239 1.355 . S
C3238 C3240 1.415 . S
C3239 C3238 1.355 . S
C3239 C3241 1.419 . S
C3240 C3238 1.415 . S
C3240 C3245 1.425 . S
C3240 C3247 1.409 . S
C3241 H3233 0.930 . S
C3241 C3239 1.419 . S
C3241 C3242 1.362 . S
C3242 H3234 0.930 . S
C3242 C3241 1.362 . S
C3242 C3245 1.409 . S
C3243 H3235 0.930 . S
C3243 C3244 1.355 . S
C3243 C3245 1.415 . S
C3244 C3243 1.355 . S
C3244 C3246 1.419 . S
C3245 C3240 1.425 . S
C3245 C3242 1.409 . S
C3245 C3243 1.415 . S
C3246 H3236 0.930 . S
C3246 C3244 1.419 . S
C3246 C3247 1.362 . S
C3247 H3237 0.930 . S
C3247 C3240 1.409 . S
C3247 C3246 1.362 . S
H3248 C3254 0.930 . S
H3249 C3257 0.930 . S
H3250 C3258 0.930 . S
H3251 C3259 0.930 . S
H3252 C3262 0.930 . S
H3253 C3263 0.930 . S
C3254 H3248 0.930 . S
C3254 C3255 1.355 . S
C3254 C3256 1.415 . S
C3255 C3254 1.355 . S
C3255 C3257 1.419 . S
C3256 C3254 1.415 . S
C3256 C3261 1.425 . S
C3256 C3263 1.409 . S
C3257 H3249 0.930 . S
C3257 C3255 1.419 . S
C3257 C3258 1.362 . S
C3258 H3250 0.930 . S
C3258 C3257 1.362 . S
C3258 C3261 1.409 . S
C3259 H3251 0.930 . S
C3259 C3260 1.355 . S
C3259 C3261 1.415 . S
C3260 C3259 1.355 . S
C3260 C3262 1.419 . S
C3261 C3256 1.425 . S
C3261 C3258 1.409 . S
C3261 C3259 1.415 . S
C3262 H3252 0.930 . S
C3262 C3260 1.419 . S
C3262 C3263 1.362 . S
C3263 H3253 0.930 . S
C3263 C3256 1.409 . S
C3263 C3262 1.362 . S
H3264 C3270 0.930 . S
H3265 C3273 0.930 . S
H3266 C3274 0.930 . S
H3267 C3275 0.930 . S
H3268 C3278 0.930 . S
H3269 C3279 0.930 . S
C3270 H3264 0.930 . S
C3270 C3271 1.355 . S
C3270 C3272 1.415 . S
C3271 C3270 1.355 . S
C3271 C3273 1.419 . S
C3272 C3270 1.415 . S
C3272 C3277 1.425 . S
C3272 C3279 1.409 . S
C3273 H3265 0.930 . S
C3273 C3271 1.419 . S
C3273 C3274 1.362 . S
C3274 H3266 0.930 . S
C3274 C3273 1.362 . S
C3274 C3277 1.409 . S
C3275 H3267 0.930 . S
C3275 C3276 1.355 . S
C3275 C3277 1.415 . S
C3276 C3275 1.355 . S
C3276 C3278 1.419 . S
C3277 C3272 1.425 . S
C3277 C3274 1.409 . S
C3277 C3275 1.415 . S
C3278 H3268 0.930 . S
C3278 C3276 1.419 . S
C3278 C3279 1.362 . S
C3279 H3269 0.930 . S
C3279 C3272 1.409 . S
C3279 C3278 1.362 . S
H3280 C3286 0.930 . S
H3281 C3289 0.930 . S
H3282 C3290 0.930 . S
H3283 C3291 0.930 . S
H3284 C3294 0.930 . S
H3285 C3295 0.930 . S
C3286 H3280 0.930 . S
C3286 C3287 1.355 . S
C3286 C3288 1.415 . S
C3287 C3286 1.355 . S
C3287 C3289 1.419 . S
C3288 C3286 1.415 . S
C3288 C3293 1.425 . S
C3288 C3295 1.409 . S
C3289 H3281 0.930 . S
C3289 C3287 1.419 . S
C3289 C3290 1.362 . S
C3290 H3282 0.930 . S
C3290 C3289 1.362 . S
C3290 C3293 1.409 . S
C3291 H3283 0.930 . S
C3291 C3292 1.355 . S
C3291 C3293 1.415 . S
C3292 C3291 1.355 . S
C3292 C3294 1.419 . S
C3293 C3288 1.425 . S
C3293 C3290 1.409 . S
C3293 C3291 1.415 . S
C3294 H3284 0.930 . S
C3294 C3292 1.419 . S
C3294 C3295 1.362 . S
C3295 H3285 0.930 . S
C3295 C3288 1.409 . S
C3295 C3294 1.362 . S
H3296 C3302 0.930 . S
H3297 C3305 0.930 . S
H3298 C3306 0.930 . S
H3299 C3307 0.930 . S
H3300 C3310 0.930 . S
H3301 C3311 0.930 . S
C3302 H3296 0.930 . S
C3302 C3303 1.355 . S
C3302 C3304 1.415 . S
C3303 C3302 1.355 . S
C3303 C3305 1.419 . S
C3304 C3302 1.415 . S
C3304 C3309 1.425 . S
C3304 C3311 1.409 . S
C3305 H3297 0.930 . S
C3305 C3303 1.419 . S
C3305 C3306 1.362 . S
C3306 H3298 0.930 . S
C3306 C3305 1.362 . S
C3306 C3309 1.409 . S
C3307 H3299 0.930 . S
C3307 C3308 1.355 . S
C3307 C3309 1.415 . S
C3308 C3307 1.355 . S
C3308 C3310 1.419 . S
C3309 C3304 1.425 . S
C3309 C3306 1.409 . S
C3309 C3307 1.415 . S
C3310 H3300 0.930 . S
C3310 C3308 1.419 . S
C3310 C3311 1.362 . S
C3311 H3301 0.930 . S
C3311 C3304 1.409 . S
C3311 C3310 1.362 . S
H3312 C3318 0.930 . S
H3313 C3321 0.930 . S
H3314 C3322 0.930 . S
H3315 C3323 0.930 . S
H3316 C3326 0.930 . S
H3317 C3327 0.930 . S
C3318 H3312 0.930 . S
C3318 C3319 1.355 . S
C3318 C3320 1.415 . S
C3319 C3318 1.355 . S
C3319 C3321 1.419 . S
C3320 C3318 1.415 . S
C3320 C3325 1.425 . S
C3320 C3327 1.409 . S
C3321 H3313 0.930 . S
C3321 C3319 1.419 . S
C3321 C3322 1.362 . S
C3322 H3314 0.930 . S
C3322 C3321 1.362 . S
C3322 C3325 1.409 . S
C3323 H3315 0.930 . S
C3323 C3324 1.355 . S
C3323 C3325 1.415 . S
C3324 C3323 1.355 . S
C3324 C3326 1.419 . S
C3325 C3320 1.425 . S
C3325 C3322 1.409 . S
C3325 C3323 1.415 . S
C3326 H3316 0.930 . S
C3326 C3324 1.419 . S
C3326 C3327 1.362 . S
C3327 H3317 0.930 . S
C3327 C3320 1.409 . S
C3327 C3326 1.362 . S
H3328 C3334 0.930 . S
H3329 C3337 0.930 . S
H3330 C3338 0.930 . S
H3331 C3339 0.930 . S
H3332 C3342 0.930 . S
H3333 C3343 0.930 . S
C3334 H3328 0.930 . S
C3334 C3335 1.355 . S
C3334 C3336 1.415 . S
C3335 C3334 1.355 . S
C3335 C3337 1.419 . S
C3336 C3334 1.415 . S
C3336 C3341 1.425 . S
C3336 C3343 1.409 . S
C3337 H3329 0.930 . S
C3337 C3335 1.419 . S
C3337 C3338 1.362 . S
C3338 H3330 0.930 . S
C3338 C3337 1.362 . S
C3338 C3341 1.409 . S
C3339 H3331 0.930 . S
C3339 C3340 1.355 . S
C3339 C3341 1.415 . S
C3340 C3339 1.355 . S
C3340 C3342 1.419 . S
C3341 C3336 1.425 . S
C3341 C3338 1.409 . S
C3341 C3339 1.415 . S
C3342 H3332 0.930 . S
C3342 C3340 1.419 . S
C3342 C3343 1.362 . S
C3343 H3333 0.930 . S
C3343 C3336 1.409 . S
C3343 C3342 1.362 . S
H3344 C3350 0.930 . S
H3345 C3353 0.930 . S
H3346 C3354 0.930 . S
H3347 C3355 0.930 . S
H3348 C3358 0.930 . S
H3349 C3359 0.930 . S
C3350 H3344 0.930 . S
C3350 C3351 1.355 . S
C3350 C3352 1.415 . S
C3351 C3350 1.355 . S
C3351 C3353 1.419 . S
C3352 C3350 1.415 . S
C3352 C3357 1.425 . S
C3352 C3359 1.409 . S
C3353 H3345 0.930 . S
C3353 C3351 1.419 . S
C3353 C3354 1.362 . S
C3354 H3346 0.930 . S
C3354 C3353 1.362 . S
C3354 C3357 1.409 . S
C3355 H3347 0.930 . S
C3355 C3356 1.355 . S
C3355 C3357 1.415 . S
C3356 C3355 1.355 . S
C3356 C3358 1.419 . S
C3357 C3352 1.425 . S
C3357 C3354 1.409 . S
C3357 C3355 1.415 . S
C3358 H3348 0.930 . S
C3358 C3356 1.419 . S
C3358 C3359 1.362 . S
C3359 H3349 0.930 . S
C3359 C3352 1.409 . S
C3359 C3358 1.362 . S
H3360 C3366 0.930 . S
H3361 C3369 0.930 . S
H3362 C3370 0.930 . S
H3363 C3371 0.930 . S
H3364 C3374 0.930 . S
H3365 C3375 0.930 . S
C3366 H3360 0.930 . S
C3366 C3367 1.355 . S
C3366 C3368 1.415 . S
C3367 C3366 1.355 . S
C3367 C3369 1.419 . S
C3368 C3366 1.415 . S
C3368 C3373 1.425 . S
C3368 C3375 1.409 . S
C3369 H3361 0.930 . S
C3369 C3367 1.419 . S
C3369 C3370 1.362 . S
C3370 H3362 0.930 . S
C3370 C3369 1.362 . S
C3370 C3373 1.409 . S
C3371 H3363 0.930 . S
C3371 C3372 1.355 . S
C3371 C3373 1.415 . S
C3372 C3371 1.355 . S
C3372 C3374 1.419 . S
C3373 C3368 1.425 . S
C3373 C3370 1.409 . S
C3373 C3371 1.415 . S
C3374 H3364 0.930 . S
C3374 C3372 1.419 . S
C3374 C3375 1.362 . S
C3375 H3365 0.930 . S
C3375 C3368 1.409 . S
C3375 C3374 1.362 . S
H3376 C3382 0.930 . S
H3377 C3385 0.930 . S
H3378 C3386 0.930 . S
H3379 C3387 0.930 . S
H3380 C3390 0.930 . S
H3381 C3391 0.930 . S
C3382 H3376 0.930 . S
C3382 C3383 1.355 . S
C3382 C3384 1.415 . S
C3383 C3382 1.355 . S
C3383 C3385 1.419 . S
C3384 C3382 1.415 . S
C3384 C3389 1.425 . S
C3384 C3391 1.409 . S
C3385 H3377 0.930 . S
C3385 C3383 1.419 . S
C3385 C3386 1.362 . S
C3386 H3378 0.930 . S
C3386 C3385 1.362 . S
C3386 C3389 1.409 . S
C3387 H3379 0.930 . S
C3387 C3388 1.355 . S
C3387 C3389 1.415 . S
C3388 C3387 1.355 . S
C3388 C3390 1.419 . S
C3389 C3384 1.425 . S
C3389 C3386 1.409 . S
C3389 C3387 1.415 . S
C3390 H3380 0.930 . S
C3390 C3388 1.419 . S
C3390 C3391 1.362 . S
C3391 H3381 0.930 . S
C3391 C3384 1.409 . S
C3391 C3390 1.362 . S
H3392 C3398 0.930 . S
H3393 C3401 0.930 . S
H3394 C3402 0.930 . S
H3395 C3403 0.930 . S
H3396 C3406 0.930 . S
H3397 C3407 0.930 . S
C3398 H3392 0.930 . S
C3398 C3399 1.355 . S
C3398 C3400 1.415 . S
C3399 C3398 1.355 . S
C3399 C3401 1.419 . S
C3400 C3398 1.415 . S
C3400 C3405 1.425 . S
C3400 C3407 1.409 . S
C3401 H3393 0.930 . S
C3401 C3399 1.419 . S
C3401 C3402 1.362 . S
C3402 H3394 0.930 . S
C3402 C3401 1.362 . S
C3402 C3405 1.409 . S
C3403 H3395 0.930 . S
C3403 C3404 1.355 . S
C3403 C3405 1.415 . S
C3404 C3403 1.355 . S
C3404 C3406 1.419 . S
C3405 C3400 1.425 . S
C3405 C3402 1.409 . S
C3405 C3403 1.415 . S
C3406 H3396 0.930 . S
C3406 C3404 1.419 . S
C3406 C3407 1.362 . S
C3407 H3397 0.930 . S
C3407 C3400 1.409 . S
C3407 C3406 1.362 . S
H3408 C3414 0.930 . S
H3409 C3417 0.930 . S
H3410 C3418 0.930 . S
H3411 C3419 0.930 . S
H3412 C3422 0.930 . S
H3413 C3423 0.930 . S
C3414 H3408 0.930 . S
C3414 C3415 1.355 . S
C3414 C3416 1.415 . S
C3415 C3414 1.355 . S
C3415 C3417 1.419 . S
C3416 C3414 1.415 . S
C3416 C3421 1.425 . S
C3416 C3423 1.409 . S
C3417 H3409 0.930 . S
C3417 C3415 1.419 . S
C3417 C3418 1.362 . S
C3418 H3410 0.930 . S
C3418 C3417 1.362 . S
C3418 C3421 1.409 . S
C3419 H3411 0.930 . S
C3419 C3420 1.355 . S
C3419 C3421 1.415 . S
C3420 C3419 1.355 . S
C3420 C3422 1.419 . S
C3421 C3416 1.425 . S
C3421 C3418 1.409 . S
C3421 C3419 1.415 . S
C3422 H3412 0.930 . S
C3422 C3420 1.419 . S
C3422 C3423 1.362 . S
C3423 H3413 0.930 . S
C3423 C3416 1.409 . S
C3423 C3422 1.362 . S
H3424 C3430 0.930 . S
H3425 C3433 0.930 . S
H3426 C3434 0.930 . S
H3427 C3435 0.930 . S
H3428 C3438 0.930 . S
H3429 C3439 0.930 . S
C3430 H3424 0.930 . S
C3430 C3431 1.355 . S
C3430 C3432 1.415 . S
C3431 C3430 1.355 . S
C3431 C3433 1.419 . S
C3432 C3430 1.415 . S
C3432 C3437 1.425 . S
C3432 C3439 1.409 . S
C3433 H3425 0.930 . S
C3433 C3431 1.419 . S
C3433 C3434 1.362 . S
C3434 H3426 0.930 . S
C3434 C3433 1.362 . S
C3434 C3437 1.409 . S
C3435 H3427 0.930 . S
C3435 C3436 1.355 . S
C3435 C3437 1.415 . S
C3436 C3435 1.355 . S
C3436 C3438 1.419 . S
C3437 C3432 1.425 . S
C3437 C3434 1.409 . S
C3437 C3435 1.415 . S
C3438 H3428 0.930 . S
C3438 C3436 1.419 . S
C3438 C3439 1.362 . S
C3439 H3429 0.930 . S
C3439 C3432 1.409 . S
C3439 C3438 1.362 . S
H3440 C3446 0.930 . S
H3441 C3449 0.930 . S
H3442 C3450 0.930 . S
H3443 C3451 0.930 . S
H3444 C3454 0.930 . S
H3445 C3455 0.930 . S
C3446 H3440 0.930 . S
C3446 C3447 1.355 . S
C3446 C3448 1.415 . S
C3447 C3446 1.355 . S
C3447 C3449 1.419 . S
C3448 C3446 1.415 . S
C3448 C3453 1.425 . S
C3448 C3455 1.409 . S
C3449 H3441 0.930 . S
C3449 C3447 1.419 . S
C3449 C3450 1.362 . S
C3450 H3442 0.930 . S
C3450 C3449 1.362 . S
C3450 C3453 1.409 . S
C3451 H3443 0.930 . S
C3451 C3452 1.355 . S
C3451 C3453 1.415 . S
C3452 C3451 1.355 . S
C3452 C3454 1.419 . S
C3453 C3448 1.425 . S
C3453 C3450 1.409 . S
C3453 C3451 1.415 . S
C3454 H3444 0.930 . S
C3454 C3452 1.419 . S
C3454 C3455 1.362 . S
C3455 H3445 0.930 . S
C3455 C3448 1.409 . S
C3455 C3454 1.362 . S
H3456 C3462 0.930 . S
H3457 C3465 0.930 . S
H3458 C3466 0.930 . S
H3459 C3467 0.930 . S
H3460 C3470 0.930 . S
H3461 C3471 0.930 . S
C3462 H3456 0.930 . S
C3462 C3463 1.355 . S
C3462 C3464 1.415 . S
C3463 C3462 1.355 . S
C3463 C3465 1.419 . S
C3464 C3462 1.415 . S
C3464 C3469 1.425 . S
C3464 C3471 1.409 . S
C3465 H3457 0.930 . S
C3465 C3463 1.419 . S
C3465 C3466 1.362 . S
C3466 H3458 0.930 . S
C3466 C3465 1.362 . S
C3466 C3469 1.409 . S
C3467 H3459 0.930 . S
C3467 C3468 1.355 . S
C3467 C3469 1.415 . S
C3468 C3467 1.355 . S
C3468 C3470 1.419 . S
C3469 C3464 1.425 . S
C3469 C3466 1.409 . S
C3469 C3467 1.415 . S
C3470 H3460 0.930 . S
C3470 C3468 1.419 . S
C3470 C3471 1.362 . S
C3471 H3461 0.930 . S
C3471 C3464 1.409 . S
C3471 C3470 1.362 . S
H3472 C3478 0.930 . S
H3473 C3481 0.930 . S
H3474 C3482 0.930 . S
H3475 C3483 0.930 . S
H3476 C3486 0.930 . S
H3477 C3487 0.930 . S
C3478 H3472 0.930 . S
C3478 C3479 1.355 . S
C3478 C3480 1.415 . S
C3479 C3478 1.355 . S
C3479 C3481 1.419 . S
C3480 C3478 1.415 . S
C3480 C3485 1.425 . S
C3480 C3487 1.409 . S
C3481 H3473 0.930 . S
C3481 C3479 1.419 . S
C3481 C3482 1.362 . S
C3482 H3474 0.930 . S
C3482 C3481 1.362 . S
C3482 C3485 1.409 . S
C3483 H3475 0.930 . S
C3483 C3484 1.355 . S
C3483 C3485 1.415 . S
C3484 C3483 1.355 . S
C3484 C3486 1.419 . S
C3485 C3480 1.425 . S
C3485 C3482 1.409 . S
C3485 C3483 1.415 . S
C3486 H3476 0.930 . S
C3486 C3484 1.419 . S
C3486 C3487 1.362 . S
C3487 H3477 0.930 . S
C3487 C3480 1.409 . S
C3487 C3486 1.362 . S
H3488 C3494 0.930 . S
H3489 C3497 0.930 . S
H3490 C3498 0.930 . S
H3491 C3499 0.930 . S
H3492 C3502 0.930 . S
H3493 C3503 0.930 . S
C3494 H3488 0.930 . S
C3494 C3495 1.355 . S
C3494 C3496 1.415 . S
C3495 C3494 1.355 . S
C3495 C3497 1.419 . S
C3496 C3494 1.415 . S
C3496 C3501 1.425 . S
C3496 C3503 1.409 . S
C3497 H3489 0.930 . S
C3497 C3495 1.419 . S
C3497 C3498 1.362 . S
C3498 H3490 0.930 . S
C3498 C3497 1.362 . S
C3498 C3501 1.409 . S
C3499 H3491 0.930 . S
C3499 C3500 1.355 . S
C3499 C3501 1.415 . S
C3500 C3499 1.355 . S
C3500 C3502 1.419 . S
C3501 C3496 1.425 . S
C3501 C3498 1.409 . S
C3501 C3499 1.415 . S
C3502 H3492 0.930 . S
C3502 C3500 1.419 . S
C3502 C3503 1.362 . S
C3503 H3493 0.930 . S
C3503 C3496 1.409 . S
C3503 C3502 1.362 . S
H3504 C3510 0.930 . S
H3505 C3513 0.930 . S
H3506 C3514 0.930 . S
H3507 C3515 0.930 . S
H3508 C3518 0.930 . S
H3509 C3519 0.930 . S
C3510 H3504 0.930 . S
C3510 C3511 1.355 . S
C3510 C3512 1.415 . S
C3511 C3510 1.355 . S
C3511 C3513 1.419 . S
C3512 C3510 1.415 . S
C3512 C3517 1.425 . S
C3512 C3519 1.409 . S
C3513 H3505 0.930 . S
C3513 C3511 1.419 . S
C3513 C3514 1.362 . S
C3514 H3506 0.930 . S
C3514 C3513 1.362 . S
C3514 C3517 1.409 . S
C3515 H3507 0.930 . S
C3515 C3516 1.355 . S
C3515 C3517 1.415 . S
C3516 C3515 1.355 . S
C3516 C3518 1.419 . S
C3517 C3512 1.425 . S
C3517 C3514 1.409 . S
C3517 C3515 1.415 . S
C3518 H3508 0.930 . S
C3518 C3516 1.419 . S
C3518 C3519 1.362 . S
C3519 H3509 0.930 . S
C3519 C3512 1.409 . S
C3519 C3518 1.362 . S
H3520 C3526 0.930 . S
H3521 C3529 0.930 . S
H3522 C3530 0.930 . S
H3523 C3531 0.930 . S
H3524 C3534 0.930 . S
H3525 C3535 0.930 . S
C3526 H3520 0.930 . S
C3526 C3527 1.355 . S
C3526 C3528 1.415 . S
C3527 C3526 1.355 . S
C3527 C3529 1.419 . S
C3528 C3526 1.415 . S
C3528 C3533 1.425 . S
C3528 C3535 1.409 . S
C3529 H3521 0.930 . S
C3529 C3527 1.419 . S
C3529 C3530 1.362 . S
C3530 H3522 0.930 . S
C3530 C3529 1.362 . S
C3530 C3533 1.409 . S
C3531 H3523 0.930 . S
C3531 C3532 1.355 . S
C3531 C3533 1.415 . S
C3532 C3531 1.355 . S
C3532 C3534 1.419 . S
C3533 C3528 1.425 . S
C3533 C3530 1.409 . S
C3533 C3531 1.415 . S
C3534 H3524 0.930 . S
C3534 C3532 1.419 . S
C3534 C3535 1.362 . S
C3535 H3525 0.930 . S
C3535 C3528 1.409 . S
C3535 C3534 1.362 . S
H3536 C3542 0.930 . S
H3537 C3545 0.930 . S
H3538 C3546 0.930 . S
H3539 C3547 0.930 . S
H3540 C3550 0.930 . S
H3541 C3551 0.930 . S
C3542 H3536 0.930 . S
C3542 C3543 1.355 . S
C3542 C3544 1.415 . S
C3543 C3542 1.355 . S
C3543 C3545 1.419 . S
C3544 C3542 1.415 . S
C3544 C3549 1.425 . S
C3544 C3551 1.409 . S
C3545 H3537 0.930 . S
C3545 C3543 1.419 . S
C3545 C3546 1.362 . S
C3546 H3538 0.930 . S
C3546 C3545 1.362 . S
C3546 C3549 1.409 . S
C3547 H3539 0.930 . S
C3547 C3548 1.355 . S
C3547 C3549 1.415 . S
C3548 C3547 1.355 . S
C3548 C3550 1.419 . S
C3549 C3544 1.425 . S
C3549 C3546 1.409 . S
C3549 C3547 1.415 . S
C3550 H3540 0.930 . S
C3550 C3548 1.419 . S
C3550 C3551 1.362 . S
C3551 H3541 0.930 . S
C3551 C3544 1.409 . S
C3551 C3550 1.362 . S
H3552 C3558 0.930 . S
H3553 C3561 0.930 . S
H3554 C3562 0.930 . S
H3555 C3563 0.930 . S
H3556 C3566 0.930 . S
H3557 C3567 0.930 . S
C3558 H3552 0.930 . S
C3558 C3559 1.355 . S
C3558 C3560 1.415 . S
C3559 C3558 1.355 . S
C3559 C3561 1.419 . S
C3560 C3558 1.415 . S
C3560 C3565 1.425 . S
C3560 C3567 1.409 . S
C3561 H3553 0.930 . S
C3561 C3559 1.419 . S
C3561 C3562 1.362 . S
C3562 H3554 0.930 . S
C3562 C3561 1.362 . S
C3562 C3565 1.409 . S
C3563 H3555 0.930 . S
C3563 C3564 1.355 . S
C3563 C3565 1.415 . S
C3564 C3563 1.355 . S
C3564 C3566 1.419 . S
C3565 C3560 1.425 . S
C3565 C3562 1.409 . S
C3565 C3563 1.415 . S
C3566 H3556 0.930 . S
C3566 C3564 1.419 . S
C3566 C3567 1.362 . S
C3567 H3557 0.930 . S
C3567 C3560 1.409 . S
C3567 C3566 1.362 . S
H3568 C3574 0.930 . S
H3569 C3577 0.930 . S
H3570 C3578 0.930 . S
H3571 C3579 0.930 . S
H3572 C3582 0.930 . S
H3573 C3583 0.930 . S
C3574 H3568 0.930 . S
C3574 C3575 1.355 . S
C3574 C3576 1.415 . S
C3575 C3574 1.355 . S
C3575 C3577 1.419 . S
C3576 C3574 1.415 . S
C3576 C3581 1.425 . S
C3576 C3583 1.409 . S
C3577 H3569 0.930 . S
C3577 C3575 1.419 . S
C3577 C3578 1.362 . S
C3578 H3570 0.930 . S
C3578 C3577 1.362 . S
C3578 C3581 1.409 . S
C3579 H3571 0.930 . S
C3579 C3580 1.355 . S
C3579 C3581 1.415 . S
C3580 C3579 1.355 . S
C3580 C3582 1.419 . S
C3581 C3576 1.425 . S
C3581 C3578 1.409 . S
C3581 C3579 1.415 . S
C3582 H3572 0.930 . S
C3582 C3580 1.419 . S
C3582 C3583 1.362 . S
C3583 H3573 0.930 . S
C3583 C3576 1.409 . S
C3583 C3582 1.362 . S
H3584 C3590 0.930 . S
H3585 C3593 0.930 . S
H3586 C3594 0.930 . S
H3587 C3595 0.930 . S
H3588 C3598 0.930 . S
H3589 C3599 0.930 . S
C3590 H3584 0.930 . S
C3590 C3591 1.355 . S
C3590 C3592 1.415 . S
C3591 C3590 1.355 . S
C3591 C3593 1.419 . S
C3592 C3590 1.415 . S
C3592 C3597 1.425 . S
C3592 C3599 1.409 . S
C3593 H3585 0.930 . S
C3593 C3591 1.419 . S
C3593 C3594 1.362 . S
C3594 H3586 0.930 . S
C3594 C3593 1.362 . S
C3594 C3597 1.409 . S
C3595 H3587 0.930 . S
C3595 C3596 1.355 . S
C3595 C3597 1.415 . S
C3596 C3595 1.355 . S
C3596 C3598 1.419 . S
C3597 C3592 1.425 . S
C3597 C3594 1.409 . S
C3597 C3595 1.415 . S
C3598 H3588 0.930 . S
C3598 C3596 1.419 . S
C3598 C3599 1.362 . S
C3599 H3589 0.930 . S
C3599 C3592 1.409 . S
C3599 C3598 1.362 . S
H3600 C3606 0.930 . S
H3601 C3609 0.930 . S
H3602 C3610 0.930 . S
H3603 C3611 0.930 . S
H3604 C3614 0.930 . S
H3605 C3615 0.930 . S
C3606 H3600 0.930 . S
C3606 C3607 1.355 . S
C3606 C3608 1.415 . S
C3607 C3606 1.355 . S
C3607 C3609 1.419 . S
C3608 C3606 1.415 . S
C3608 C3613 1.425 . S
C3608 C3615 1.409 . S
C3609 H3601 0.930 . S
C3609 C3607 1.419 . S
C3609 C3610 1.362 . S
C3610 H3602 0.930 . S
C3610 C3609 1.362 . S
C3610 C3613 1.409 . S
C3611 H3603 0.930 . S
C3611 C3612 1.355 . S
C3611 C3613 1.415 . S
C3612 C3611 1.355 . S
C3612 C3614 1.419 . S
C3613 C3608 1.425 . S
C3613 C3610 1.409 . S
C3613 C3611 1.415 . S
C3614 H3604 0.930 . S
C3614 C3612 1.419 . S
C3614 C3615 1.362 . S
C3615 H3605 0.930 . S
C3615 C3608 1.409 . S
C3615 C3614 1.362 . S
H3616 C3622 0.930 . S
H3617 C3625 0.930 . S
H3618 C3626 0.930 . S
H3619 C3627 0.930 . S
H3620 C3630 0.930 . S
H3621 C3631 0.930 . S
C3622 H3616 0.930 . S
C3622 C3623 1.355 . S
C3622 C3624 1.415 . S
C3623 C3622 1.355 . S
C3623 C3625 1.419 . S
C3624 C3622 1.415 . S
C3624 C3629 1.425 . S
C3624 C3631 1.409 . S
C3625 H3617 0.930 . S
C3625 C3623 1.419 . S
C3625 C3626 1.362 . S
C3626 H3618 0.930 . S
C3626 C3625 1.362 . S
C3626 C3629 1.409 . S
C3627 H3619 0.930 . S
C3627 C3628 1.355 . S
C3627 C3629 1.415 . S
C3628 C3627 1.355 . S
C3628 C3630 1.419 . S
C3629 C3624 1.425 . S
C3629 C3626 1.409 . S
C3629 C3627 1.415 . S
C3630 H3620 0.930 . S
C3630 C3628 1.419 . S
C3630 C3631 1.362 . S
C3631 H3621 0.930 . S
C3631 C3624 1.409 . S
C3631 C3630 1.362 . S
H3632 C3638 0.930 . S
H3633 C3641 0.930 . S
H3634 C3642 0.930 . S
H3635 C3643 0.930 . S
H3636 C3646 0.930 . S
H3637 C3647 0.930 . S
C3638 H3632 0.930 . S
C3638 C3639 1.355 . S
C3638 C3640 1.415 . S
C3639 C3638 1.355 . S
C3639 C3641 1.419 . S
C3640 C3638 1.415 . S
C3640 C3645 1.425 . S
C3640 C3647 1.409 . S
C3641 H3633 0.930 . S
C3641 C3639 1.419 . S
C3641 C3642 1.362 . S
C3642 H3634 0.930 . S
C3642 C3641 1.362 . S
C3642 C3645 1.409 . S
C3643 H3635 0.930 . S
C3643 C3644 1.355 . S
C3643 C3645 1.415 . S
C3644 C3643 1.355 . S
C3644 C3646 1.419 . S
C3645 C3640 1.425 . S
C3645 C3642 1.409 . S
C3645 C3643 1.415 . S
C3646 H3636 0.930 . S
C3646 C3644 1.419 . S
C3646 C3647 1.362 . S
C3647 H3637 0.930 . S
C3647 C3640 1.409 . S
C3647 C3646 1.362 . S
H3648 C3654 0.930 . S
H3649 C3657 0.930 . S
H3650 C3658 0.930 . S
H3651 C3659 0.930 . S
H3652 C3662 0.930 . S
H3653 C3663 0.930 . S
C3654 H3648 0.930 . S
C3654 C3655 1.355 . S
C3654 C3656 1.415 . S
C3655 C3654 1.355 . S
C3655 C3657 1.419 . S
C3656 C3654 1.415 . S
C3656 C3661 1.425 . S
C3656 C3663 1.409 . S
C3657 H3649 0.930 . S
C3657 C3655 1.419 . S
C3657 C3658 1.362 . S
C3658 H3650 0.930 . S
C3658 C3657 1.362 . S
C3658 C3661 1.409 . S
C3659 H3651 0.930 . S
C3659 C3660 1.355 . S
C3659 C3661 1.415 . S
C3660 C3659 1.355 . S
C3660 C3662 1.419 . S
C3661 C3656 1.425 . S
C3661 C3658 1.409 . S
C3661 C3659 1.415 . S
C3662 H3652 0.930 . S
C3662 C3660 1.419 . S
C3662 C3663 1.362 . S
C3663 H3653 0.930 . S
C3663 C3656 1.409 . S
C3663 C3662 1.362 . S
H3664 C3670 0.930 . S
H3665 C3673 0.930 . S
H3666 C3674 0.930 . S
H3667 C3675 0.930 . S
H3668 C3678 0.930 . S
H3669 C3679 0.930 . S
C3670 H3664 0.930 . S
C3670 C3671 1.355 . S
C3670 C3672 1.415 . S
C3671 C3670 1.355 . S
C3671 C3673 1.419 . S
C3672 C3670 1.415 . S
C3672 C3677 1.425 . S
C3672 C3679 1.409 . S
C3673 H3665 0.930 . S
C3673 C3671 1.419 . S
C3673 C3674 1.362 . S
C3674 H3666 0.930 . S
C3674 C3673 1.362 . S
C3674 C3677 1.409 . S
C3675 H3667 0.930 . S
C3675 C3676 1.355 . S
C3675 C3677 1.415 . S
C3676 C3675 1.355 . S
C3676 C3678 1.419 . S
C3677 C3672 1.425 . S
C3677 C3674 1.409 . S
C3677 C3675 1.415 . S
C3678 H3668 0.930 . S
C3678 C3676 1.419 . S
C3678 C3679 1.362 . S
C3679 H3669 0.930 . S
C3679 C3672 1.409 . S
C3679 C3678 1.362 . S
H3680 C3686 0.930 . S
H3681 C3689 0.930 . S
H3682 C3690 0.930 . S
H3683 C3691 0.930 . S
H3684 C3694 0.930 . S
H3685 C3695 0.930 . S
C3686 H3680 0.930 . S
C3686 C3687 1.355 . S
C3686 C3688 1.415 . S
C3687 C3686 1.355 . S
C3687 C3689 1.419 . S
C3688 C3686 1.415 . S
C3688 C3693 1.425 . S
C3688 C3695 1.409 . S
C3689 H3681 0.930 . S
C3689 C3687 1.419 . S
C3689 C3690 1.362 . S
C3690 H3682 0.930 . S
C3690 C3689 1.362 . S
C3690 C3693 1.409 . S
C3691 H3683 0.930 . S
C3691 C3692 1.355 . S
C3691 C3693 1.415 . S
C3692 C3691 1.355 . S
C3692 C3694 1.419 . S
C3693 C3688 1.425 . S
C3693 C3690 1.409 . S
C3693 C3691 1.415 . S
C3694 H3684 0.930 . S
C3694 C3692 1.419 . S
C3694 C3695 1.362 . S
C3695 H3685 0.930 . S
C3695 C3688 1.409 . S
C3695 C3694 1.362 . S
H3696 C3702 0.930 . S
H3697 C3705 0.930 . S
H3698 C3706 0.930 . S
H3699 C3707 0.930 . S
H3700 C3710 0.930 . S
H3701 C3711 0.930 . S
C3702 H3696 0.930 . S
C3702 C3703 1.355 . S
C3702 C3704 1.415 . S
C3703 C3702 1.355 . S
C3703 C3705 1.419 . S
C3704 C3702 1.415 . S
C3704 C3709 1.425 . S
C3704 C3711 1.409 . S
C3705 H3697 0.930 . S
C3705 C3703 1.419 . S
C3705 C3706 1.362 . S
C3706 H3698 0.930 . S
C3706 C3705 1.362 . S
C3706 C3709 1.409 . S
C3707 H3699 0.930 . S
C3707 C3708 1.355 . S
C3707 C3709 1.415 . S
C3708 C3707 1.355 . S
C3708 C3710 1.419 . S
C3709 C3704 1.425 . S
C3709 C3706 1.409 . S
C3709 C3707 1.415 . S
C3710 H3700 0.930 . S
C3710 C3708 1.419 . S
C3710 C3711 1.362 . S
C3711 H3701 0.930 . S
C3711 C3704 1.409 . S
C3711 C3710 1.362 . S
H3712 C3718 0.930 . S
H3713 C3721 0.930 . S
H3714 C3722 0.930 . S
H3715 C3723 0.930 . S
H3716 C3726 0.930 . S
H3717 C3727 0.930 . S
C3718 H3712 0.930 . S
C3718 C3719 1.355 . S
C3718 C3720 1.415 . S
C3719 C3718 1.355 . S
C3719 C3721 1.419 . S
C3720 C3718 1.415 . S
C3720 C3725 1.425 . S
C3720 C3727 1.409 . S
C3721 H3713 0.930 . S
C3721 C3719 1.419 . S
C3721 C3722 1.362 . S
C3722 H3714 0.930 . S
C3722 C3721 1.362 . S
C3722 C3725 1.409 . S
C3723 H3715 0.930 . S
C3723 C3724 1.355 . S
C3723 C3725 1.415 . S
C3724 C3723 1.355 . S
C3724 C3726 1.419 . S
C3725 C3720 1.425 . S
C3725 C3722 1.409 . S
C3725 C3723 1.415 . S
C3726 H3716 0.930 . S
C3726 C3724 1.419 . S
C3726 C3727 1.362 . S
C3727 H3717 0.930 . S
C3727 C3720 1.409 . S
C3727 C3726 1.362 . S
H3728 C3734 0.930 . S
H3729 C3737 0.930 . S
H3730 C3738 0.930 . S
H3731 C3739 0.930 . S
H3732 C3742 0.930 . S
H3733 C3743 0.930 . S
C3734 H3728 0.930 . S
C3734 C3735 1.355 . S
C3734 C3736 1.415 . S
C3735 C3734 1.355 . S
C3735 C3737 1.419 . S
C3736 C3734 1.415 . S
C3736 C3741 1.425 . S
C3736 C3743 1.409 . S
C3737 H3729 0.930 . S
C3737 C3735 1.419 . S
C3737 C3738 1.362 . S
C3738 H3730 0.930 . S
C3738 C3737 1.362 . S
C3738 C3741 1.409 . S
C3739 H3731 0.930 . S
C3739 C3740 1.355 . S
C3739 C3741 1.415 . S
C3740 C3739 1.355 . S
C3740 C3742 1.419 . S
C3741 C3736 1.425 . S
C3741 C3738 1.409 . S
C3741 C3739 1.415 . S
C3742 H3732 0.930 . S
C3742 C3740 1.419 . S
C3742 C3743 1.362 . S
C3743 H3733 0.930 . S
C3743 C3736 1.409 . S
C3743 C3742 1.362 . S
H3744 C3750 0.930 . S
H3745 C3753 0.930 . S
H3746 C3754 0.930 . S
H3747 C3755 0.930 . S
H3748 C3758 0.930 . S
H3749 C3759 0.930 . S
C3750 H3744 0.930 . S
C3750 C3751 1.355 . S
C3750 C3752 1.415 . S
C3751 C3750 1.355 . S
C3751 C3753 1.419 . S
C3752 C3750 1.415 . S
C3752 C3757 1.425 . S
C3752 C3759 1.409 . S
C3753 H3745 0.930 . S
C3753 C3751 1.419 . S
C3753 C3754 1.362 . S
C3754 H3746 0.930 . S
C3754 C3753 1.362 . S
C3754 C3757 1.409 . S
C3755 H3747 0.930 . S
C3755 C3756 1.355 . S
C3755 C3757 1.415 . S
C3756 C3755 1.355 . S
C3756 C3758 1.419 . S
C3757 C3752 1.425 . S
C3757 C3754 1.409 . S
C3757 C3755 1.415 . S
C3758 H3748 0.930 . S
C3758 C3756 1.419 . S
C3758 C3759 1.362 . S
C3759 H3749 0.930 . S
C3759 C3752 1.409 . S
C3759 C3758 1.362 . S
H3760 C3766 0.930 . S
H3761 C3769 0.930 . S
H3762 C3770 0.930 . S
H3763 C3771 0.930 . S
H3764 C3774 0.930 . S
H3765 C3775 0.930 . S
C3766 H3760 0.930 . S
C3766 C3767 1.355 . S
C3766 C3768 1.415 . S
C3767 C3766 1.355 . S
C3767 C3769 1.419 . S
C3768 C3766 1.415 . S
C3768 C3773 1.425 . S
C3768 C3775 1.409 . S
C3769 H3761 0.930 . S
C3769 C3767 1.419 . S
C3769 C3770 1.362 . S
C3770 H3762 0.930 . S
C3770 C3769 1.362 . S
C3770 C3773 1.409 . S
C3771 H3763 0.930 . S
C3771 C3772 1.355 . S
C3771 C3773 1.415 . S
C3772 C3771 1.355 . S
C3772 C3774 1.419 . S
C3773 C3768 1.425 . S
C3773 C3770 1.409 . S
C3773 C3771 1.415 . S
C3774 H3764 0.930 . S
C3774 C3772 1.419 . S
C3774 C3775 1.362 . S
C3775 H3765 0.930 . S
C3775 C3768 1.409 . S
C3775 C3774 1.362 . S
H3776 C3782 0.930 . S
H3777 C3785 0.930 . S
H3778 C3786 0.930 . S
H3779 C3787 0.930 . S
H3780 C3790 0.930 . S
H3781 C3791 0.930 . S
C3782 H3776 0.930 . S
C3782 C3783 1.355 . S
C3782 C3784 1.415 . S
C3783 C3782 1.355 . S
C3783 C3785 1.419 . S
C3784 C3782 1.415 . S
C3784 C3789 1.425 . S
C3784 C3791 1.409 . S
C3785 H3777 0.930 . S
C3785 C3783 1.419 . S
C3785 C3786 1.362 . S
C3786 H3778 0.930 . S
C3786 C3785 1.362 . S
C3786 C3789 1.409 . S
C3787 H3779 0.930 . S
C3787 C3788 1.355 . S
C3787 C3789 1.415 . S
C3788 C3787 1.355 . S
C3788 C3790 1.419 . S
C3789 C3784 1.425 . S
C3789 C3786 1.409 . S
C3789 C3787 1.415 . S
C3790 H3780 0.930 . S
C3790 C3788 1.419 . S
C3790 C3791 1.362 . S
C3791 H3781 0.930 . S
C3791 C3784 1.409 . S
C3791 C3790 1.362 . S
H3792 C3798 0.930 . S
H3793 C3801 0.930 . S
H3794 C3802 0.930 . S
H3795 C3803 0.930 . S
H3796 C3806 0.930 . S
H3797 C3807 0.930 . S
C3798 H3792 0.930 . S
C3798 C3799 1.355 . S
C3798 C3800 1.415 . S
C3799 C3798 1.355 . S
C3799 C3801 1.419 . S
C3800 C3798 1.415 . S
C3800 C3805 1.425 . S
C3800 C3807 1.409 . S
C3801 H3793 0.930 . S
C3801 C3799 1.419 . S
C3801 C3802 1.362 . S
C3802 H3794 0.930 . S
C3802 C3801 1.362 . S
C3802 C3805 1.409 . S
C3803 H3795 0.930 . S
C3803 C3804 1.355 . S
C3803 C3805 1.415 . S
C3804 C3803 1.355 . S
C3804 C3806 1.419 . S
C3805 C3800 1.425 . S
C3805 C3802 1.409 . S
C3805 C3803 1.415 . S
C3806 H3796 0.930 . S
C3806 C3804 1.419 . S
C3806 C3807 1.362 . S
C3807 H3797 0.930 . S
C3807 C3800 1.409 . S
C3807 C3806 1.362 . S
H3808 C3814 0.930 . S
H3809 C3817 0.930 . S
H3810 C3818 0.930 . S
H3811 C3819 0.930 . S
H3812 C3822 0.930 . S
H3813 C3823 0.930 . S
C3814 H3808 0.930 . S
C3814 C3815 1.355 . S
C3814 C3816 1.415 . S
C3815 C3814 1.355 . S
C3815 C3817 1.419 . S
C3816 C3814 1.415 . S
C3816 C3821 1.425 . S
C3816 C3823 1.409 . S
C3817 H3809 0.930 . S
C3817 C3815 1.419 . S
C3817 C3818 1.362 . S
C3818 H3810 0.930 . S
C3818 C3817 1.362 . S
C3818 C3821 1.409 . S
C3819 H3811 0.930 . S
C3819 C3820 1.355 . S
C3819 C3821 1.415 . S
C3820 C3819 1.355 . S
C3820 C3822 1.419 . S
C3821 C3816 1.425 . S
C3821 C3818 1.409 . S
C3821 C3819 1.415 . S
C3822 H3812 0.930 . S
C3822 C3820 1.419 . S
C3822 C3823 1.362 . S
C3823 H3813 0.930 . S
C3823 C3816 1.409 . S
C3823 C3822 1.362 . S
H3824 C3830 0.930 . S
H3825 C3833 0.930 . S
H3826 C3834 0.930 . S
H3827 C3835 0.930 . S
H3828 C3838 0.930 . S
H3829 C3839 0.930 . S
C3830 H3824 0.930 . S
C3830 C3831 1.355 . S
C3830 C3832 1.415 . S
C3831 C3830 1.355 . S
C3831 C3833 1.419 . S
C3832 C3830 1.415 . S
C3832 C3837 1.425 . S
C3832 C3839 1.409 . S
C3833 H3825 0.930 . S
C3833 C3831 1.419 . S
C3833 C3834 1.362 . S
C3834 H3826 0.930 . S
C3834 C3833 1.362 . S
C3834 C3837 1.409 . S
C3835 H3827 0.930 . S
C3835 C3836 1.355 . S
C3835 C3837 1.415 . S
C3836 C3835 1.355 . S
C3836 C3838 1.419 . S
C3837 C3832 1.425 . S
C3837 C3834 1.409 . S
C3837 C3835 1.415 . S
C3838 H3828 0.930 . S
C3838 C3836 1.419 . S
C3838 C3839 1.362 . S
C3839 H3829 0.930 . S
C3839 C3832 1.409 . S
C3839 C3838 1.362 . S
H3840 C3846 0.930 . S
H3841 C3849 0.930 . S
H3842 C3850 0.930 . S
H3843 C3851 0.930 . S
H3844 C3854 0.930 . S
H3845 C3855 0.930 . S
C3846 H3840 0.930 . S
C3846 C3847 1.355 . S
C3846 C3848 1.415 . S
C3847 C3846 1.355 . S
C3847 C3849 1.419 . S
C3848 C3846 1.415 . S
C3848 C3853 1.425 . S
C3848 C3855 1.409 . S
C3849 H3841 0.930 . S
C3849 C3847 1.419 . S
C3849 C3850 1.362 . S
C3850 H3842 0.930 . S
C3850 C3849 1.362 . S
C3850 C3853 1.409 . S
C3851 H3843 0.930 . S
C3851 C3852 1.355 . S
C3851 C3853 1.415 . S
C3852 C3851 1.355 . S
C3852 C3854 1.419 . S
C3853 C3848 1.425 . S
C3853 C3850 1.409 . S
C3853 C3851 1.415 . S
C3854 H3844 0.930 . S
C3854 C3852 1.419 . S
C3854 C3855 1.362 . S
C3855 H3845 0.930 . S
C3855 C3848 1.409 . S
C3855 C3854 1.362 . S
H3856 C3862 0.930 . S
H3857 C3865 0.930 . S
H3858 C3866 0.930 . S
H3859 C3867 0.930 . S
H3860 C3870 0.930 . S
H3861 C3871 0.930 . S
C3862 H3856 0.930 . S
C3862 C3863 1.355 . S
C3862 C3864 1.415 . S
C3863 C3862 1.355 . S
C3863 C3865 1.419 . S
C3864 C3862 1.415 . S
C3864 C3869 1.425 . S
C3864 C3871 1.409 . S
C3865 H3857 0.930 . S
C3865 C3863 1.419 . S
C3865 C3866 1.362 . S
C3866 H3858 0.930 . S
C3866 C3865 1.362 . S
C3866 C3869 1.409 . S
C3867 H3859 0.930 . S
C3867 C3868 1.355 . S
C3867 C3869 1.415 . S
C3868 C3867 1.355 . S
C3868 C3870 1.419 . S
C3869 C3864 1.425 . S
C3869 C3866 1.409 . S
C3869 C3867 1.415 . S
C3870 H3860 0.930 . S
C3870 C3868 1.419 . S
C3870 C3871 1.362 . S
C3871 H3861 0.930 . S
C3871 C3864 1.409 . S
C3871 C3870 1.362 . S
H3872 C3878 0.930 . S
H3873 C3881 0.930 . S
H3874 C3882 0.930 . S
H3875 C3883 0.930 . S
H3876 C3886 0.930 . S
H3877 C3887 0.930 . S
C3878 H3872 0.930 . S
C3878 C3879 1.355 . S
C3878 C3880 1.415 . S
C3879 C3878 1.355 . S
C3879 C3881 1.419 . S
C3880 C3878 1.415 . S
C3880 C3885 1.425 . S
C3880 C3887 1.409 . S
C3881 H3873 0.930 . S
C3881 C3879 1.419 . S
C3881 C3882 1.362 . S
C3882 H3874 0.930 . S
C3882 C3881 1.362 . S
C3882 C3885 1.409 . S
C3883 H3875 0.930 . S
C3883 C3884 1.355 . S
C3883 C3885 1.415 . S
C3884 C3883 1.355 . S
C3884 C3886 1.419 . S
C3885 C3880 1.425 . S
C3885 C3882 1.409 . S
C3885 C3883 1.415 . S
C3886 H3876 0.930 . S
C3886 C3884 1.419 . S
C3886 C3887 1.362 . S
C3887 H3877 0.930 . S
C3887 C3880 1.409 . S
C3887 C3886 1.362 . S
H3888 C3894 0.930 . S
H3889 C3897 0.930 . S
H3890 C3898 0.930 . S
H3891 C3899 0.930 . S
H3892 C3902 0.930 . S
H3893 C3903 0.930 . S
C3894 H3888 0.930 . S
C3894 C3895 1.355 . S
C3894 C3896 1.415 . S
C3895 C3894 1.355 . S
C3895 C3897 1.419 . S
C3896 C3894 1.415 . S
C3896 C3901 1.425 . S
C3896 C3903 1.409 . S
C3897 H3889 0.930 . S
C3897 C3895 1.419 . S
C3897 C3898 1.362 . S
C3898 H3890 0.930 . S
C3898 C3897 1.362 . S
C3898 C3901 1.409 . S
C3899 H3891 0.930 . S
C3899 C3900 1.355 . S
C3899 C3901 1.415 . S
C3900 C3899 1.355 . S
C3900 C3902 1.419 . S
C3901 C3896 1.425 . S
C3901 C3898 1.409 . S
C3901 C3899 1.415 . S
C3902 H3892 0.930 . S
C3902 C3900 1.419 . S
C3902 C3903 1.362 . S
C3903 H3893 0.930 . S
C3903 C3896 1.409 . S
C3903 C3902 1.362 . S
H3904 C3910 0.930 . S
H3905 C3913 0.930 . S
H3906 C3914 0.930 . S
H3907 C3915 0.930 . S
H3908 C3918 0.930 . S
H3909 C3919 0.930 . S
C3910 H3904 0.930 . S
C3910 C3911 1.355 . S
C3910 C3912 1.415 . S
C3911 C3910 1.355 . S
C3911 C3913 1.419 . S
C3912 C3910 1.415 . S
C3912 C3917 1.425 . S
C3912 C3919 1.409 . S
C3913 H3905 0.930 . S
C3913 C3911 1.419 . S
C3913 C3914 1.362 . S
C3914 H3906 0.930 . S
C3914 C3913 1.362 . S
C3914 C3917 1.409 . S
C3915 H3907 0.930 . S
C3915 C3916 1.355 . S
C3915 C3917 1.415 . S
C3916 C3915 1.355 . S
C3916 C3918 1.419 . S
C3917 C3912 1.425 . S
C3917 C3914 1.409 . S
C3917 C3915 1.415 . S
C3918 H3908 0.930 . S
C3918 C3916 1.419 . S
C3918 C3919 1.362 . S
C3919 H3909 0.930 . S
C3919 C3912 1.409 . S
C3919 C3918 1.362 . S
C2396 C1281 1.541 . S
C2391 C21 1.544 . S
C2412 C1348 1.432 . S
C2407 C42 1.433 . S
C2423 C82 1.498 . S
C2428 C1373 1.519 . S
C2444 C1433 1.482 . S
C2439 C135 1.491 . S
C2455 C175 1.422 . S
C2460 C1426 1.421 . S
C2471 C221 1.538 . S
C2476 C1302 1.533 . S
C2487 C255 1.477 . S
C2492 C1327 1.480 . S
C2508 C1394 1.552 . S
C2503 C301 1.550 . S
C2524 C1486 1.509 . S
C2519 C15 1.514 . S
C2535 C55 1.433 . S
C2540 C1525 1.425 . S
C2551 C101 1.526 . S
C2556 C1578 1.542 . S
C2572 C1603 1.494 . S
C2567 C141 1.483 . S
C2583 C162 1.424 . S
C2588 C1663 1.450 . S
C2604 C1716 1.508 . S
C2599 C215 1.512 . S
C2615 C261 1.501 . S
C2620 C1755 1.499 . S
C2636 C1794 1.514 . S
C2631 C282 1.521 . S
C2647 C2 1.530 . S
C2652 C1624 1.526 . S
C2663 C181 1.440 . S
C2668 C1695 1.437 . S
C2684 C1748 1.535 . S
C2679 C202 1.516 . S
C2695 C242 1.489 . S
C2700 C1801 1.497 . S
C2716 C1656 1.507 . S
C2711 C295 1.502 . S
C2732 C1518 1.512 . S
C2727 C95 1.518 . S
C2743 C122 1.464 . S
C2748 C1557 1.496 . S
C2764 C1465 1.440 . S
C2759 C61 1.451 . S
C2780 C1833 1.540 . S
C2775 C341 1.541 . S
C2791 C362 1.436 . S
C2796 C1879 1.424 . S
C2807 C402 1.507 . S
C2812 C1946 1.527 . S
C2828 C1992 1.484 . S
C2823 C455 1.486 . S
C2839 C495 1.420 . S
C2844 C1971 1.411 . S
C2855 C541 1.519 . S
C2860 C1854 1.537 . S
C2871 C575 1.479 . S
C2876 C1900 1.470 . S
C2887 C621 1.553 . S
C2892 C1925 1.554 . S
C2908 C1670 1.510 . S
C2903 C335 1.512 . S
C2919 C375 1.432 . S
C2924 C2031 1.426 . S
C2940 C1762 1.546 . S
C2935 C421 1.552 . S
C2951 C461 1.500 . S
C2956 C2063 1.494 . S
C2967 C482 1.433 . S
C2972 C1479 1.456 . S
C2988 C2130 1.514 . S
C2983 C535 1.510 . S
C2999 C581 1.496 . S
C3004 C1571 1.496 . S
C3020 C2162 1.515 . S
C3015 C602 1.507 . S
C3031 C322 1.527 . S
C3036 C2084 1.525 . S
C3052 C2109 1.433 . S
C3047 C501 1.426 . S
C3063 C522 1.518 . S
C3068 C1564 1.536 . S
C3084 C2169 1.500 . S
C3079 C562 1.471 . S
C3095 C615 1.512 . S
C3100 C1472 1.507 . S
C3111 C415 1.517 . S
C3116 C2024 1.511 . S
C3127 C442 1.458 . S
C3132 C1741 1.498 . S
C3143 C381 1.425 . S
C3148 C1649 1.446 . S
C3159 C661 1.530 . S
C3164 C1939 1.543 . S
C3180 C1985 1.435 . S
C3175 C682 1.400 . S
C3191 C722 1.512 . S
C3196 C1840 1.523 . S
C3207 C775 1.489 . S
C3212 C1886 1.489 . S
C3223 C815 1.419 . S
C3228 C1893 1.419 . S
C3239 C861 1.542 . S
C3244 C1932 1.538 . S
C3260 C1978 1.478 . S
C3255 C895 1.479 . S
C3271 C941 1.541 . S
C3276 C1847 1.555 . S
C3292 C2201 1.513 . S
C3287 C655 1.511 . S
C3303 C695 1.429 . S
C3308 C1709 1.433 . S
C3324 C2247 1.548 . S
C3319 C741 1.540 . S
C3335 C781 1.496 . S
C3340 C1787 1.496 . S
C3351 C802 1.451 . S
C3356 C2314 1.446 . S
C3367 C855 1.510 . S
C3372 C1532 1.513 . S
C3388 C2346 1.503 . S
C3383 C901 1.486 . S
C3399 C922 1.514 . S
C3404 C1610 1.516 . S
C3420 C1808 1.523 . S
C3415 C642 1.516 . S
C3436 C1511 1.439 . S
C3431 C821 1.442 . S
C3447 C842 1.540 . S
C3452 C2353 1.540 . S
C3463 C882 1.491 . S
C3468 C1617 1.497 . S
C3484 C2293 1.504 . S
C3479 C935 1.502 . S
C3500 C1702 1.517 . S
C3495 C735 1.515 . S
C3516 C2268 1.491 . S
C3511 C762 1.496 . S
C3532 C2222 1.438 . S
C3527 C701 1.429 . S
C3543 C981 1.536 . S
C3548 C1380 1.538 . S
C3559 C1002 1.420 . S
C3564 C1440 1.434 . S
C3580 C1288 1.521 . S
C3575 C1042 1.507 . S
C3596 C1341 1.489 . S
C3591 C1095 1.485 . S
C3612 C1334 1.421 . S
C3607 C1135 1.422 . S
C3628 C1387 1.538 . S
C3623 C1181 1.520 . S
C3644 C1419 1.481 . S
C3639 C1215 1.476 . S
C3655 C1261 1.521 . S
C3660 C1295 1.555 . S
C3671 C975 1.514 . S
C3676 C2307 1.509 . S
C3692 C2123 1.433 . S
C3687 C1015 1.430 . S
C3708 C2339 1.547 . S
C3703 C1061 1.551 . S
C3724 C2155 1.499 . S
C3719 C1101 1.465 . S
C3735 C1122 1.455 . S
C3740 C2208 1.455 . S
C3756 C2038 1.507 . S
C3751 C1175 1.512 . S
C3772 C2254 1.500 . S
C3767 C1221 1.470 . S
C3783 C1242 1.483 . S
C3788 C2070 1.522 . S
C3804 C2176 1.526 . S
C3799 C962 1.530 . S
C3820 C2017 1.435 . S
C3815 C1141 1.420 . S
C3836 C2261 1.542 . S
C3831 C1162 1.533 . S
C3847 C1202 1.475 . S
C3852 C2077 1.507 . S
C3863 C1255 1.510 . S
C3868 C2215 1.507 . S
C3879 C1055 1.516 . S
C3884 C2116 1.517 . S
C3895 C1082 1.460 . S
C3900 C2360 1.497 . S
C3916 C2300 1.442 . S
C3911 C1021 1.444 . S
