# Generated by pormake.
# Topology ssa, (4,4)-cn, num edge types: 1
# Building blocks:
#     Node 0, Type 0, BuildingBlock: GIZVER_clean_linker_0, # of connection points: 4
#     Node 1, Type 0, BuildingBlock: GIZVER_clean_linker_0, # of connection points: 4
#     Node 2, Type 0, BuildingBlock: GIZVER_clean_linker_0, # of connection points: 4
#     Node 3, Type 0, BuildingBlock: GIZVER_clean_linker_0, # of connection points: 4
#     Node 4, Type 0, BuildingBlock: GIZVER_clean_linker_0, # of connection points: 4
#     Node 5, Type 0, BuildingBlock: GIZVER_clean_linker_0, # of connection points: 4
#     Node 6, Type 1, BuildingBlock: MUDLON_clean_sbu_0, # of connection points: 4
#     Node 7, Type 1, BuildingBlock: MUDLON_clean_sbu_0, # of connection points: 4
#     Node 8, Type 1, BuildingBlock: MUDLON_clean_sbu_0, # of connection points: 4
#     Node 9, Type 1, BuildingBlock: MUDLON_clean_sbu_0, # of connection points: 4
#     Node 10, Type 1, BuildingBlock: MUDLON_clean_sbu_0, # of connection points: 4
#     Node 11, Type 1, BuildingBlock: MUDLON_clean_sbu_0, # of connection points: 4
#     Edge 12, Type (0, 1), BuildingBlock: ZUJKAS_clean_linker_0, # of connection points: 2
#     Edge 13, Type (0, 1), BuildingBlock: ZUJKAS_clean_linker_0, # of connection points: 2
#     Edge 14, Type (0, 1), BuildingBlock: ZUJKAS_clean_linker_0, # of connection points: 2
#     Edge 15, Type (0, 1), BuildingBlock: ZUJKAS_clean_linker_0, # of connection points: 2
#     Edge 16, Type (0, 1), BuildingBlock: ZUJKAS_clean_linker_0, # of connection points: 2
#     Edge 17, Type (0, 1), BuildingBlock: ZUJKAS_clean_linker_0, # of connection points: 2
#     Edge 18, Type (0, 1), BuildingBlock: ZUJKAS_clean_linker_0, # of connection points: 2
#     Edge 19, Type (0, 1), BuildingBlock: ZUJKAS_clean_linker_0, # of connection points: 2
#     Edge 20, Type (0, 1), BuildingBlock: ZUJKAS_clean_linker_0, # of connection points: 2
#     Edge 21, Type (0, 1), BuildingBlock: ZUJKAS_clean_linker_0, # of connection points: 2
#     Edge 22, Type (0, 1), BuildingBlock: ZUJKAS_clean_linker_0, # of connection points: 2
#     Edge 23, Type (0, 1), BuildingBlock: ZUJKAS_clean_linker_0, # of connection points: 2
#     Edge 24, Type (0, 1), BuildingBlock: ZUJKAS_clean_linker_0, # of connection points: 2
#     Edge 25, Type (0, 1), BuildingBlock: ZUJKAS_clean_linker_0, # of connection points: 2
#     Edge 26, Type (0, 1), BuildingBlock: ZUJKAS_clean_linker_0, # of connection points: 2
#     Edge 27, Type (0, 1), BuildingBlock: ZUJKAS_clean_linker_0, # of connection points: 2
#     Edge 28, Type (0, 1), BuildingBlock: ZUJKAS_clean_linker_0, # of connection points: 2
#     Edge 29, Type (0, 1), BuildingBlock: ZUJKAS_clean_linker_0, # of connection points: 2
#     Edge 30, Type (0, 1), BuildingBlock: ZUJKAS_clean_linker_0, # of connection points: 2
#     Edge 31, Type (0, 1), BuildingBlock: ZUJKAS_clean_linker_0, # of connection points: 2
#     Edge 32, Type (0, 1), BuildingBlock: ZUJKAS_clean_linker_0, # of connection points: 2
#     Edge 33, Type (0, 1), BuildingBlock: ZUJKAS_clean_linker_0, # of connection points: 2
#     Edge 34, Type (0, 1), BuildingBlock: ZUJKAS_clean_linker_0, # of connection points: 2
#     Edge 35, Type (0, 1), BuildingBlock: ZUJKAS_clean_linker_0, # of connection points: 2
# Relax obj value: 0.001
# Max RMSD: 0.030
# Mean RMSD: 0.018
data_MOF--net-ssa--node1-MUDLON_clean_sbu_0--node2-GIZVER_clean_linker_0--edge1-ZUJKAS_clean_linker_0
_symmetry_space_group_name_H-M    P1
_symmetry_Int_Tables_number       1
_symmetry_cell_setting            triclinic
loop_
_symmetry_equiv_pos_as_xyz
'x, y, z'
_cell_length_a     57.147771
_cell_length_b     57.254635
_cell_length_c     54.530604
_cell_angle_alpha  90.651718
_cell_angle_beta   89.593426
_cell_angle_gamma 120.08347
loop_
_atom_site_label
_atom_site_type_symbol
_atom_site_fract_x
_atom_site_fract_y
_atom_site_fract_z
_atom_type_partial_charge
H0 H 0.06741 0.58104 0.02205 0.0
H1 H 0.06548 0.50476 0.02325 0.0
H2 H 0.08006 0.55109 0.0895 0.0
H3 H 0.0734 0.56111 0.98445 0.0
H4 H 0.07361 0.53023 0.98493 0.0
H5 H 0.03081 0.56166 0.97931 0.0
H6 H 0.96687 0.49062 0.94453 0.0
H7 H 0.03169 0.48673 0.97982 0.0
C8 C 0.06747 0.56492 0.03222 0.0
C9 C 0.07304 0.56829 0.05751 0.0
C10 C 0.06379 0.54156 0.01974 0.0
C11 C 0.06637 0.52184 0.0329 0.0
C12 C 0.07182 0.52508 0.05823 0.0
C13 C 0.07426 0.54786 0.07031 0.0
C14 C 0.06252 0.5403 0.99196 0.0
C15 C 0.034 0.52564 0.98171 0.0
C16 C 0.02119 0.54028 0.97504 0.0
C17 C 0.99667 0.52768 0.96191 0.0
C18 C 0.98511 0.50027 0.95555 0.0
C19 C 0.9975 0.48542 0.96197 0.0
C20 C 0.02163 0.49797 0.97554 0.0
H21 H 0.56909 0.01097 0.56482 0.0
H22 H 0.49367 0.01045 0.55794 0.0
H23 H 0.5587 0.07227 0.60064 0.0
H24 H 0.5282 0.96968 0.55401 0.0
H25 H 0.49651 0.96826 0.55358 0.0
H26 H 0.55634 0.98055 0.51657 0.0
H27 H 0.51241 0.96517 0.44914 0.0
H28 H 0.47859 0.97573 0.51606 0.0
C29 C 0.55703 0.02049 0.56805 0.0
C30 C 0.56709 0.0433 0.58348 0.0
C31 C 0.53049 0.00839 0.55869 0.0
C32 C 0.51439 0.02011 0.56434 0.0
C33 C 0.52463 0.04357 0.57914 0.0
C34 C 0.55099 0.0549 0.58842 0.0
C35 C 0.51783 0.98039 0.54719 0.0
C36 C 0.51821 0.97996 0.51934 0.0
C37 C 0.53925 0.97888 0.50654 0.0
C38 C 0.53745 0.97402 0.48103 0.0
C39 C 0.51458 0.97055 0.46846 0.0
C40 C 0.49316 0.97087 0.48084 0.0
C41 C 0.49534 0.97613 0.50624 0.0
H42 H 0.5334 0.52812 0.05938 0.0
H43 H 0.46104 0.45068 0.06811 0.0
H44 H 0.46694 0.5214 0.10224 0.0
H45 H 0.53385 0.48519 0.05427 0.0
H46 H 0.50373 0.45352 0.0569 0.0
H47 H 0.54973 0.50539 0.01499 0.0
H48 H 0.50907 0.45797 0.95119 0.0
H49 H 0.47077 0.43448 0.02166 0.0
C50 C 0.51283 0.51608 0.06601 0.0
C51 C 0.50146 0.52832 0.08063 0.0
C52 C 0.49809 0.48805 0.06084 0.0
C53 C 0.4719 0.47239 0.07079 0.0
C54 C 0.46079 0.48428 0.08611 0.0
C55 C 0.4754 0.51225 0.09025 0.0
C56 C 0.51208 0.47408 0.04913 0.0
C57 C 0.50965 0.47144 0.02138 0.0
C58 C 0.53182 0.48895 1.00656 0.0
C59 C 0.53173 0.48425 0.98117 0.0
C60 C 0.50881 0.46246 0.97055 0.0
C61 C 0.48682 0.44442 0.98489 0.0
C62 C 0.48721 0.449 1.01035 0.0
H63 H 0.98129 0.53097 0.53692 0.0
H64 H 0.98301 0.45669 0.5413 0.0
H65 H 0.91438 0.46064 0.56833 0.0
H66 H 0.02433 0.53022 0.53566 0.0
H67 H 0.02443 0.49926 0.53506 0.0
H68 H 0.02024 0.5505 0.49796 0.0
H69 H 0.03701 0.52146 0.43092 0.0
H70 H 0.01781 0.47401 0.49628 0.0
C71 C 0.97118 0.50956 0.54078 0.0
C72 C 0.9456 0.49708 0.55213 0.0
C73 C 0.98453 0.49486 0.53598 0.0
C74 C 0.97215 0.46762 0.54328 0.0
C75 C 0.94662 0.45507 0.55474 0.0
C76 C 0.93328 0.46974 0.55819 0.0
C77 C 0.01381 0.50948 0.52766 0.0
C78 C 0.01723 0.51137 0.50001 0.0
C79 C 0.0213 0.5347 0.48775 0.0
C80 C 0.02819 0.53835 0.4627 0.0
C81 C 0.03036 0.51811 0.44989 0.0
C82 C 0.02678 0.4949 0.46174 0.0
C83 C 0.01994 0.49152 0.48681 0.0
H84 H 0.50837 0.9865 0.04439 0.0
H85 H 0.439 0.99736 0.04252 0.0
H86 H 0.46001 0.97262 0.109 0.0
H87 H 0.48789 0.98671 1.00542 0.0
H88 H 0.4586 0.99003 1.00441 0.0
H89 H 0.53369 0.02686 1.00595 0.0
H90 H 0.53917 0.09998 0.98008 0.0
H91 H 0.46219 0.03402 1.00164 0.0
C92 C 0.49188 0.9871 0.05375 0.0
C93 C 0.48664 0.97963 0.0785 0.0
C94 C 0.4751 0.99407 0.04069 0.0
C95 C 0.45272 0.99322 0.05271 0.0
C96 C 0.4474 0.98591 0.07757 0.0
C97 C 0.4648 0.97967 0.09026 0.0
C98 C 0.47874 0.99834 1.01327 0.0
C99 C 0.49622 0.02775 1.00644 0.0
C100 C 0.52435 0.03901 1.0028 0.0
C101 C 0.54006 0.06533 0.99359 0.0
C102 C 0.52751 0.08041 0.98867 0.0
C103 C 0.49954 0.06925 0.99117 0.0
C104 C 0.48397 0.04305 1.00046 0.0
H105 H 0.58112 0.56825 0.54164 0.0
H106 H 0.51359 0.48683 0.54338 0.0
H107 H 0.56391 0.52119 0.60692 0.0
H108 H 0.56105 0.5411 0.50328 0.0
H109 H 0.53161 0.50862 0.50455 0.0
H110 H 0.55797 0.58248 0.50561 0.0
H111 H 0.48234 0.57327 0.48206 0.0
H112 H 0.48664 0.50348 0.50295 0.0
C113 C 0.56807 0.55 0.55168 0.0
C114 C 0.57431 0.54764 0.57613 0.0
C115 C 0.54568 0.52829 0.53987 0.0
C116 C 0.53001 0.504 0.55268 0.0
C117 C 0.5364 0.50132 0.57696 0.0
C118 C 0.5581 0.52348 0.58859 0.0
C119 C 0.54116 0.52931 0.51264 0.0
C120 C 0.52389 0.54177 0.50681 0.0
C121 C 0.53632 0.56983 0.50313 0.0
C122 C 0.52128 0.58127 0.4944 0.0
C123 C 0.49354 0.56463 0.4902 0.0
C124 C 0.48083 0.53661 0.49292 0.0
C125 C 0.49606 0.52521 0.50153 0.0
Mg126 Mg 0.23021 0.4471 0.28092 0.0
C127 C 0.21152 0.45667 0.23354 0.0
O128 O 0.21115 0.43375 0.23046 0.0
C129 C 0.26348 0.45295 0.32259 0.0
O130 O 0.24737 0.42701 0.31852 0.0
C131 C 0.17131 0.42128 0.29703 0.0
O132 O 0.16863 0.42747 0.27451 0.0
O133 O 0.19393 0.42403 0.3035 0.0
O134 O 0.22006 0.46916 0.25395 0.0
O135 O 0.24959 0.42827 0.26021 0.0
C136 C 0.24115 0.40685 0.24735 0.0
O137 O 0.2151 0.38944 0.24607 0.0
O138 O 0.26127 0.46953 0.30871 0.0
Mg139 Mg 0.79516 0.2283 0.78565 0.0
C140 C 0.78948 0.19536 0.73905 0.0
O141 O 0.8074 0.21912 0.73058 0.0
C142 C 0.82881 0.24295 0.83273 0.0
O143 O 0.80491 0.22785 0.84269 0.0
C144 C 0.74793 0.19092 0.81583 0.0
O145 O 0.75541 0.17504 0.80511 0.0
O146 O 0.76056 0.21594 0.81052 0.0
O147 O 0.78354 0.19307 0.76178 0.0
O148 O 0.8048 0.26105 0.75976 0.0
C149 C 0.82989 0.27531 0.7546 0.0
O150 O 0.84708 0.27065 0.76636 0.0
O151 O 0.83085 0.24399 0.80944 0.0
Mg152 Mg 0.57271 0.79509 0.26609 0.0
C153 C 0.56872 0.83389 0.23503 0.0
O154 O 0.59468 0.84398 0.23914 0.0
C155 C 0.55599 0.74656 0.296 0.0
O156 O 0.5742 0.74661 0.28115 0.0
C157 C 0.60133 0.8267 0.31236 0.0
O158 O 0.59212 0.80216 0.32062 0.0
O159 O 0.59984 0.82986 0.28941 0.0
O160 O 0.55211 0.8115 0.24488 0.0
O161 O 0.58665 0.77589 0.23876 0.0
C162 C 0.5691 0.76327 0.22205 0.0
O163 O 0.54707 0.76507 0.22211 0.0
O164 O 0.54857 0.76387 0.29268 0.0
Mg165 Mg 0.79487 0.58247 0.77713 0.0
C166 C 0.79087 0.60977 0.73095 0.0
O167 O 0.80391 0.59828 0.72165 0.0
C168 C 0.8254 0.58233 0.82048 0.0
O169 O 0.80237 0.55946 0.82144 0.0
C170 C 0.74287 0.54067 0.80755 0.0
O171 O 0.74796 0.52136 0.8016 0.0
O172 O 0.7581 0.56442 0.79956 0.0
O173 O 0.78778 0.60958 0.75414 0.0
O174 O 0.80196 0.55726 0.75101 0.0
C175 C 0.82688 0.56585 0.74655 0.0
O176 O 0.84507 0.58636 0.75949 0.0
O177 O 0.82883 0.59868 0.80329 0.0
Mg178 Mg 0.22989 0.80133 0.27902 0.0
C179 C 0.22963 0.77486 0.23036 0.0
O180 O 0.2442 0.8002 0.22375 0.0
C181 C 0.26399 0.82909 0.32211 0.0
O182 O 0.24161 0.82973 0.32612 0.0
C183 C 0.19815 0.76451 0.31766 0.0
O184 O 0.22081 0.76395 0.31586 0.0
O185 O 0.19494 0.78035 0.30361 0.0
O186 O 0.22354 0.76952 0.25291 0.0
O187 O 0.23457 0.83417 0.25531 0.0
C188 C 0.25558 0.85744 0.25733 0.0
O189 O 0.27103 0.86277 0.27669 0.0
O190 O 0.26565 0.81742 0.30267 0.0
Mg191 Mg 0.45109 0.23063 0.76186 0.0
C192 C 0.43431 0.1965 0.71475 0.0
O193 O 0.44338 0.22037 0.70495 0.0
C194 C 0.4471 0.25905 0.80354 0.0
O195 O 0.47268 0.26884 0.79773 0.0
C196 C 0.4761 0.20149 0.78608 0.0
O197 O 0.4616 0.18362 0.76917 0.0
O198 O 0.47863 0.22484 0.78522 0.0
O199 O 0.4318 0.1944 0.73801 0.0
O200 O 0.46803 0.26658 0.7392 0.0
C201 C 0.48762 0.27575 0.7241 0.0
O202 O 0.50175 0.26351 0.72145 0.0
O203 O 0.42932 0.23996 0.79025 0.0
H204 H 0.11218 0.51472 0.0466 0.0
H205 H 0.13493 0.49961 0.07498 0.0
H206 H 0.07471 0.48482 0.13011 0.0
H207 H 0.05188 0.4997 0.10177 0.0
H208 H 0.15617 0.52742 0.1198 0.0
H209 H 0.08445 0.41867 0.13565 0.0
H210 H 0.08214 0.4363 0.10935 0.0
H211 H 0.06981 0.43995 0.13872 0.0
C212 C 0.10314 0.50708 0.06437 0.0
C213 C 0.08012 0.50813 0.07191 0.0
C214 C 0.11635 0.4988 0.0807 0.0
C215 C 0.10655 0.4911 0.10469 0.0
C216 C 0.08247 0.49032 0.11163 0.0
H217 H 0.19748 0.4964 0.23596 0.0
H218 H 0.1728 0.50631 0.20478 0.0
C219 C 0.06937 0.49872 0.09539 0.0
C220 C 0.12291 0.48674 0.12324 0.0
H221 H 0.1215 0.44057 0.16323 0.0
C222 C 0.14866 0.50838 0.12921 0.0
C223 C 0.11307 0.46194 0.13555 0.0
C224 C 0.08595 0.43778 0.1294 0.0
C225 C 0.16474 0.50594 0.14727 0.0
C226 C 0.15472 0.48128 0.15986 0.0
C227 C 0.12906 0.45957 0.15374 0.0
C228 C 0.17109 0.47693 0.17841 0.0
C229 C 0.19252 0.52957 0.15245 0.0
C230 C 0.17842 0.45731 0.17392 0.0
C231 C 0.19243 0.45169 0.19155 0.0
C232 C 0.19937 0.46543 0.21428 0.0
C233 C 0.19263 0.48561 0.21861 0.0
C234 C 0.17852 0.49127 0.20081 0.0
H235 H 0.19931 0.54513 0.13795 0.0
H236 H 0.19213 0.53911 0.17016 0.0
H237 H 0.20756 0.52278 0.15402 0.0
H238 H 0.173 0.44606 0.15678 0.0
H239 H 0.19735 0.43608 0.18748 0.0
H240 H 0.57507 0.05094 0.63255 0.0
H241 H 0.61791 0.0718 0.65487 0.0
H242 H 0.66079 0.0802 0.58721 0.0
H243 H 0.61761 0.05903 0.56461 0.0
H244 H 0.66281 0.05684 0.65416 0.0
H245 H 0.69094 0.15907 0.61992 0.0
H246 H 0.65623 0.13191 0.62034 0.0
H247 H 0.67944 0.13138 0.59838 0.0
C248 C 0.59361 0.05706 0.62243 0.0
C249 C 0.59309 0.05366 0.59681 0.0
C250 C 0.61803 0.06883 0.63522 0.0
C251 C 0.64249 0.07768 0.62268 0.0
C252 C 0.64208 0.07356 0.59718 0.0
H253 H 0.79754 0.19231 0.68985 0.0
H254 H 0.76498 0.16088 0.65994 0.0
C255 C 0.61748 0.06144 0.58433 0.0
C256 C 0.66827 0.09263 0.63644 0.0
H257 H 0.71816 0.15665 0.65049 0.0
C258 C 0.67522 0.07864 0.65314 0.0
C259 C 0.6844 0.121 0.635 0.0
C260 C 0.67752 0.13693 0.61755 0.0
C261 C 0.69759 0.09238 0.66886 0.0
C262 C 0.71292 0.12095 0.66839 0.0
C263 C 0.7065 0.13478 0.65095 0.0
C264 C 0.73433 0.13716 0.68682 0.0
C265 C 0.70448 0.07608 0.68582 0.0
C266 C 0.72835 0.134 0.71203 0.0
C267 C 0.7471 0.15175 0.72922 0.0
C268 C 0.77208 0.17342 0.72156 0.0
C269 C 0.77851 0.17586 0.69641 0.0
C270 C 0.75985 0.15793 0.67925 0.0
H271 H 0.698 0.05575 0.67794 0.0
H272 H 0.72651 0.08636 0.68963 0.0
H273 H 0.69356 0.07317 0.70344 0.0
H274 H 0.70862 0.11867 0.7184 0.0
H275 H 0.74132 0.14939 0.74839 0.0
H276 H 0.55061 0.55463 0.10384 0.0
H277 H 0.56993 0.59802 0.12607 0.0
H278 H 0.50605 0.60976 0.0986 0.0
H279 H 0.4866 0.56646 0.07676 0.0
H280 H 0.58657 0.65401 0.11417 0.0
H281 H 0.4958 0.60593 0.17387 0.0
H282 H 0.50466 0.58674 0.15319 0.0
H283 H 0.48791 0.60395 0.14184 0.0
C284 C 0.54123 0.56692 0.10195 0.0
C285 C 0.51704 0.55713 0.08864 0.0
C286 C 0.55218 0.59162 0.11477 0.0
C287 C 0.53911 0.60688 0.11444 0.0
C288 C 0.51622 0.59812 0.09952 0.0
H289 H 0.53943 0.74176 0.18077 0.0
H290 H 0.53647 0.70536 0.15501 0.0
C291 C 0.50522 0.57346 0.0869 0.0
C292 C 0.54758 0.63052 0.13124 0.0
H293 H 0.52366 0.65361 0.17758 0.0
C294 C 0.57299 0.65387 0.12824 0.0
C295 C 0.53001 0.63023 0.14985 0.0
C296 C 0.50319 0.60529 0.15511 0.0
C297 C 0.58061 0.67733 0.14252 0.0
C298 C 0.56243 0.67733 0.16028 0.0
C299 C 0.53753 0.65367 0.16385 0.0
C300 C 0.56761 0.70202 0.17417 0.0
C301 C 0.60751 0.70233 0.13797 0.0
C302 C 0.58661 0.71278 0.19334 0.0
C303 C 0.58838 0.73382 0.20831 0.0
C304 C 0.57104 0.74426 0.20439 0.0
C305 C 0.55299 0.73416 0.18447 0.0
C306 C 0.55126 0.71331 0.16964 0.0
H307 H 0.61834 0.69986 0.12204 0.0
H308 H 0.60458 0.7198 0.13465 0.0
H309 H 0.6204 0.70709 0.15449 0.0
H310 H 0.59924 0.70418 0.19735 0.0
H311 H 0.60236 0.74099 0.22358 0.0
H312 H 0.89396 0.48717 0.54676 0.0
H313 H 0.87047 0.50241 0.57468 0.0
H314 H 0.94595 0.55537 0.61103 0.0
H315 H 0.96947 0.54048 0.58293 0.0
H316 H 0.86812 0.49175 0.62282 0.0
H317 H 0.91117 0.60166 0.61174 0.0
H318 H 0.91547 0.58101 0.5889 0.0
H319 H 0.93697 0.59289 0.61551 0.0
C320 C 0.90568 0.50298 0.56001 0.0
C321 C 0.93356 0.51275 0.5626 0.0
C322 C 0.89222 0.51151 0.57609 0.0
C323 C 0.90638 0.53004 0.59501 0.0
C324 C 0.93461 0.54146 0.59633 0.0
H325 H 0.87806 0.5774 0.73571 0.0
H326 H 0.89449 0.56734 0.69796 0.0
C327 C 0.94811 0.53302 0.58016 0.0
C328 C 0.89137 0.53434 0.61534 0.0
H329 H 0.88902 0.58304 0.65024 0.0
C330 C 0.87233 0.51169 0.62854 0.0
C331 C 0.89691 0.56033 0.62291 0.0
C332 C 0.91605 0.58532 0.60886 0.0
C333 C 0.85965 0.51441 0.64969 0.0
C334 C 0.86593 0.54047 0.65773 0.0
C335 C 0.88431 0.56306 0.64411 0.0
C336 C 0.85507 0.54494 0.68106 0.0
C337 C 0.84061 0.4895 0.66391 0.0
C338 C 0.82728 0.53528 0.68434 0.0
C339 C 0.81771 0.5409 0.70611 0.0
C340 C 0.83583 0.55643 0.72486 0.0
C341 C 0.86351 0.56541 0.72167 0.0
C342 C 0.873 0.55979 0.70003 0.0
H343 H 0.84191 0.47157 0.65792 0.0
H344 H 0.84501 0.49282 0.68385 0.0
H345 H 0.81954 0.48499 0.66108 0.0
H346 H 0.8131 0.52403 0.66982 0.0
H347 H 0.79632 0.53393 0.70787 0.0
H348 H 0.44222 0.00302 0.12312 0.0
H349 H 0.40098 0.98484 0.14778 0.0
H350 H 0.35391 0.93896 0.08529 0.0
H351 H 0.39536 0.95663 0.06063 0.0
H352 H 0.34994 0.98117 0.14557 0.0
H353 H 0.34219 0.88068 0.13472 0.0
H354 H 0.37183 0.91149 0.12541 0.0
H355 H 0.34182 0.89698 0.10689 0.0
C356 C 0.423 0.98955 0.11447 0.0
C357 C 0.42208 0.981 0.09002 0.0
C358 C 0.39942 0.97919 0.12857 0.0
C359 C 0.37442 0.96003 0.11857 0.0
C360 C 0.37307 0.95332 0.09353 0.0
H361 H 0.23755 0.84706 0.20961 0.0
H362 H 0.26151 0.8734 0.17342 0.0
C363 C 0.39673 0.96369 0.07936 0.0
C364 C 0.35074 0.94519 0.13514 0.0
H365 H 0.31177 0.8836 0.16162 0.0
C366 C 0.3413 0.95974 0.14883 0.0
C367 C 0.33945 0.91721 0.13945 0.0
C368 C 0.34938 0.90061 0.12603 0.0
C369 C 0.32144 0.94725 0.16713 0.0
C370 C 0.31108 0.91957 0.17219 0.0
C371 C 0.31961 0.90478 0.15772 0.0
C372 C 0.29377 0.90612 0.19396 0.0
C373 C 0.31202 0.96393 0.18108 0.0
C374 C 0.3035 0.916 0.21762 0.0
C375 C 0.28985 0.90103 0.23831 0.0
C376 C 0.26624 0.87568 0.23586 0.0
C377 C 0.2556 0.86653 0.21222 0.0
C378 C 0.26934 0.88154 0.19148 0.0
H379 H 0.31404 0.98089 0.1698 0.0
H380 H 0.29062 0.9515 0.18701 0.0
H381 H 0.32478 0.97274 0.19763 0.0
H382 H 0.32256 0.93457 0.22011 0.0
H383 H 0.29867 0.9087 0.2562 0.0
H384 H 0.51886 0.49027 0.62445 0.0
H385 H 0.50803 0.44951 0.64734 0.0
H386 H 0.51472 0.4117 0.58093 0.0
H387 H 0.52592 0.45257 0.55791 0.0
H388 H 0.46986 0.37687 0.61526 0.0
H389 H 0.57147 0.43316 0.65841 0.0
H390 H 0.55145 0.44931 0.66038 0.0
H391 H 0.56286 0.44456 0.63097 0.0
C392 C 0.51752 0.47308 0.61463 0.0
C393 C 0.52349 0.47473 0.58941 0.0
C394 C 0.51142 0.44987 0.62774 0.0
C395 C 0.51112 0.42786 0.61588 0.0
C396 C 0.515 0.42858 0.59041 0.0
H397 H 0.52691 0.30084 0.68884 0.0
H398 H 0.53278 0.33691 0.66114 0.0
C399 C 0.52118 0.45186 0.57725 0.0
C400 C 0.50876 0.40505 0.63042 0.0
H401 H 0.54151 0.38953 0.67384 0.0
C402 C 0.48553 0.37955 0.628 0.0
C403 C 0.52948 0.40856 0.64671 0.0
C404 C 0.55536 0.43529 0.64922 0.0
C405 C 0.4821 0.35763 0.64209 0.0
C406 C 0.50235 0.36143 0.65909 0.0
C407 C 0.52595 0.38672 0.66091 0.0
C408 C 0.49898 0.33969 0.67581 0.0
C409 C 0.45685 0.33055 0.63866 0.0
C410 C 0.47845 0.32979 0.69356 0.0
C411 C 0.47518 0.30942 0.70947 0.0
C412 C 0.49239 0.29847 0.708 0.0
C413 C 0.51329 0.30877 0.69045 0.0
C414 C 0.51663 0.32932 0.67458 0.0
H415 H 0.44682 0.32919 0.6209 0.0
H416 H 0.46153 0.31394 0.63949 0.0
H417 H 0.44234 0.32752 0.65361 0.0
H418 H 0.46497 0.3379 0.69516 0.0
H419 H 0.45892 0.30209 0.72278 0.0
H420 H 0.55431 0.93845 0.4928 0.0
H421 H 0.57554 0.92048 0.46507 0.0
H422 H 0.58414 0.97776 0.41003 0.0
H423 H 0.56267 0.99553 0.43758 0.0
H424 H 0.55608 0.92603 0.39343 0.0
H425 H 0.65026 0.94286 0.43782 0.0
H426 H 0.62114 0.92719 0.45748 0.0
H427 H 0.63329 0.96103 0.44698 0.0
C428 C 0.56174 0.94793 0.47517 0.0
C429 C 0.55685 0.96844 0.46739 0.0
C430 C 0.57385 0.93759 0.45927 0.0
C431 C 0.58157 0.94778 0.4354 0.0
C432 C 0.5784 0.96954 0.42831 0.0
H433 H 0.61223 0.87834 0.30265 0.0
H434 H 0.61167 0.91081 0.33198 0.0
C435 C 0.56622 0.97977 0.44411 0.0
C436 C 0.58939 0.93356 0.41681 0.0
H437 H 0.63336 0.91071 0.40477 0.0
C438 C 0.57323 0.92303 0.39576 0.0
C439 C 0.61158 0.92936 0.41992 0.0
C440 C 0.63023 0.94091 0.44166 0.0
C441 C 0.57807 0.90781 0.37818 0.0
C442 C 0.60016 0.90341 0.38131 0.0
C443 C 0.61656 0.9142 0.40222 0.0
C444 C 0.60523 0.88612 0.36388 0.0
C445 C 0.55869 0.89556 0.35694 0.0
C446 C 0.60359 0.86222 0.37215 0.0
C447 C 0.60428 0.8438 0.35548 0.0
C448 C 0.60661 0.84881 0.33008 0.0
C449 C 0.61024 0.87369 0.32201 0.0
C450 C 0.60968 0.8922 0.33876 0.0
H451 H 0.53941 0.89538 0.36037 0.0
H452 H 0.56808 0.90765 0.34024 0.0
H453 H 0.55398 0.87454 0.35322 0.0
H454 H 0.60037 0.85713 0.39143 0.0
H455 H 0.60158 0.82496 0.36245 0.0
H456 H 0.58252 0.49399 0.99172 0.0
H457 H 0.62011 0.50755 0.96293 0.0
H458 H 0.57429 0.51938 0.90687 0.0
H459 H 0.53656 0.50559 0.93556 0.0
H460 H 0.59224 0.48573 0.89171 0.0
H461 H 0.6771 0.5781 0.93299 0.0
H462 H 0.66157 0.5502 0.95373 0.0
H463 H 0.64241 0.56493 0.94246 0.0
C464 C 0.58085 0.50044 0.97355 0.0
C465 C 0.5566 0.49879 0.96593 0.0
C466 C 0.60235 0.50811 0.95704 0.0
C467 C 0.60011 0.51457 0.9327 0.0
C468 C 0.57649 0.51444 0.92552 0.0
H469 H 0.7261 0.57591 0.82165 0.0
H470 H 0.69122 0.56888 0.85151 0.0
C471 C 0.55499 0.50668 0.94196 0.0
C472 C 0.62107 0.5188 0.91411 0.0
H473 H 0.68831 0.5572 0.9005 0.0
C474 C 0.61323 0.50146 0.89358 0.0
C475 C 0.64842 0.53938 0.91646 0.0
C476 C 0.65789 0.55939 0.93747 0.0
C477 C 0.63196 0.50397 0.87548 0.0
C478 C 0.65947 0.52406 0.87817 0.0
C479 C 0.66728 0.54161 0.89856 0.0
C480 C 0.68032 0.52777 0.85967 0.0
C481 C 0.622 0.48541 0.8534 0.0
C482 C 0.68588 0.50697 0.85424 0.0
C483 C 0.70581 0.51086 0.83698 0.0
C484 C 0.72073 0.53573 0.82497 0.0
C485 C 0.71504 0.55647 0.83048 0.0
C486 C 0.69512 0.55254 0.84764 0.0
H487 H 0.59981 0.47616 0.85095 0.0
H488 H 0.63226 0.49638 0.83641 0.0
H489 H 0.62651 0.46885 0.85588 0.0
H490 H 0.67508 0.48783 0.86361 0.0
H491 H 0.70979 0.49454 0.83336 0.0
H492 H 0.0131 0.54634 0.41749 0.0
H493 H 0.0353 0.58778 0.39334 0.0
H494 H 0.08617 0.63063 0.45501 0.0
H495 H 0.06387 0.58929 0.47933 0.0
H496 H 0.07052 0.66253 0.42579 0.0
H497 H 0.11247 0.61007 0.36999 0.0
H498 H 0.07622 0.59305 0.37169 0.0
H499 H 0.09555 0.5971 0.39887 0.0
C500 C 0.02857 0.56477 0.42608 0.0
C501 C 0.0369 0.56449 0.45025 0.0
C502 C 0.04129 0.58841 0.41225 0.0
C503 C 0.06277 0.61217 0.4222 0.0
C504 C 0.06968 0.61252 0.44693 0.0
H505 H 0.20407 0.73618 0.35417 0.0
H506 H 0.16919 0.70114 0.37944 0.0
C507 C 0.05683 0.58888 0.46086 0.0
C508 C 0.08004 0.63551 0.40616 0.0
H509 H 0.12493 0.65422 0.35858 0.0
C510 C 0.08226 0.66072 0.41095 0.0
C511 C 0.09561 0.63318 0.38698 0.0
C512 C 0.09512 0.607 0.38162 0.0
C513 C 0.09979 0.68367 0.39714 0.0
C514 C 0.11537 0.68126 0.37806 0.0
C515 C 0.11281 0.65598 0.3731 0.0
C516 C 0.13637 0.70493 0.36437 0.0
C517 C 0.10233 0.71053 0.40354 0.0
C518 C 0.12964 0.7192 0.34769 0.0
C519 C 0.14976 0.73951 0.33304 0.0
C520 C 0.17683 0.74563 0.33476 0.0
C521 C 0.18345 0.7319 0.35215 0.0
C522 C 0.1635 0.71182 0.3667 0.0
H523 H 0.09166 0.70976 0.42089 0.0
H524 H 0.12396 0.72628 0.40535 0.0
H525 H 0.09355 0.71665 0.38856 0.0
H526 H 0.10877 0.71399 0.34538 0.0
H527 H 0.144 0.74964 0.31977 0.0
H528 H 0.46272 0.04943 0.9544 0.0
H529 H 0.45642 0.07661 0.92373 0.0
H530 H 0.50339 0.14809 0.96785 0.0
H531 H 0.51024 0.12098 0.99836 0.0
H532 H 0.43891 0.11389 0.91969 0.0
H533 H 0.55025 0.16225 0.90678 0.0
H534 H 0.53139 0.13295 0.92568 0.0
H535 H 0.53964 0.16582 0.93698 0.0
C536 C 0.47064 0.07072 0.9581 0.0
C537 C 0.48711 0.08317 0.97864 0.0
C538 C 0.46726 0.0863 0.94044 0.0
C539 C 0.48019 0.11448 0.94316 0.0
C540 C 0.49385 0.12646 0.96511 0.0
H541 H 0.49615 0.22948 0.82937 0.0
H542 H 0.49858 0.21068 0.86887 0.0
C543 C 0.49744 0.11094 0.98267 0.0
C544 C 0.48209 0.13127 0.92187 0.0
H545 H 0.52703 0.17585 0.88036 0.0
C546 C 0.45818 0.12765 0.91126 0.0
C547 C 0.5073 0.14901 0.91069 0.0
C548 C 0.53362 0.15265 0.92042 0.0
C549 C 0.4588 0.14107 0.88966 0.0
C550 C 0.48393 0.15841 0.87837 0.0
C551 C 0.50787 0.16263 0.88924 0.0
C552 C 0.48539 0.17072 0.85431 0.0
C553 C 0.4326 0.1363 0.87867 0.0
C554 C 0.47829 0.15469 0.83303 0.0
C555 C 0.47715 0.16535 0.81047 0.0
C556 C 0.48295 0.19225 0.8088 0.0
C557 C 0.4916 0.20872 0.82999 0.0
C558 C 0.49285 0.198 0.85259 0.0
H559 H 0.41535 0.1259 0.8916 0.0
H560 H 0.43435 0.15574 0.87319 0.0
H561 H 0.42811 0.12357 0.86191 0.0
H562 H 0.47279 0.13365 0.83403 0.0
H563 H 0.47053 0.15212 0.79456 0.0
H564 H 0.4639 0.49577 0.45906 0.0
H565 H 0.42387 0.47877 0.43278 0.0
H566 H 0.39672 0.52497 0.47483 0.0
H567 H 0.4363 0.54147 0.50144 0.0
H568 H 0.35421 0.4759 0.45924 0.0
H569 H 0.4234 0.5308 0.38213 0.0
H570 H 0.42962 0.50614 0.39601 0.0
H571 H 0.43473 0.53513 0.41352 0.0
C572 C 0.44885 0.50144 0.46329 0.0
C573 C 0.4533 0.52005 0.48226 0.0
C574 C 0.42622 0.4921 0.44799 0.0
C575 C 0.40773 0.50128 0.45136 0.0
C576 C 0.41085 0.51786 0.47167 0.0
H577 H 0.30284 0.5047 0.3359 0.0
H578 H 0.33711 0.51768 0.36824 0.0
C579 C 0.43341 0.52717 0.48695 0.0
C580 C 0.38634 0.49533 0.43285 0.0
H581 H 0.37683 0.5041 0.37254 0.0
C582 C 0.35915 0.48205 0.44028 0.0
C583 C 0.39281 0.50405 0.40825 0.0
C584 C 0.42172 0.52006 0.39948 0.0
C585 C 0.33825 0.47656 0.42365 0.0
C586 C 0.34465 0.48417 0.39878 0.0
C587 C 0.37188 0.4981 0.39152 0.0
C588 C 0.32336 0.47674 0.37981 0.0
C589 C 0.30952 0.46297 0.43299 0.0
C590 C 0.30444 0.44951 0.37537 0.0
C591 C 0.28495 0.44211 0.35707 0.0
C592 C 0.28396 0.46174 0.34249 0.0
C593 C 0.30295 0.4891 0.34685 0.0
C594 C 0.32256 0.49652 0.3653 0.0
H595 H 0.30878 0.46627 0.45303 0.0
H596 H 0.29751 0.47047 0.42341 0.0
H597 H 0.29984 0.44089 0.42967 0.0
H598 H 0.30501 0.43382 0.38582 0.0
H599 H 0.27082 0.42082 0.35422 0.0
H600 H 0.97356 0.43748 0.98669 0.0
H601 H 0.94935 0.39173 0.96851 0.0
H602 H 0.97162 0.42587 0.89621 0.0
H603 H 0.99539 0.4713 0.91425 0.0
H604 H 0.90532 0.37588 0.93355 0.0
H605 H 0.98794 0.36254 0.8949 0.0
H606 H 0.99331 0.3863 0.91935 0.0
H607 H 0.99047 0.39439 0.88817 0.0
C608 C 0.97373 0.43503 0.96698 0.0
C609 C 0.98639 0.45775 0.95182 0.0
C610 C 0.95988 0.40899 0.95661 0.0
C611 C 0.95896 0.40537 0.931 0.0
C612 C 0.97246 0.42811 0.91599 0.0
H613 H 0.87526 0.28817 0.81798 0.0
H614 H 0.90773 0.32528 0.84393 0.0
C615 C 0.98595 0.45403 0.92628 0.0
C616 C 0.94176 0.37832 0.91963 0.0
H617 H 0.94344 0.33261 0.87985 0.0
C618 C 0.91361 0.36612 0.92215 0.0
C619 C 0.95265 0.36585 0.90453 0.0
C620 C 0.98277 0.37778 0.90167 0.0
C621 C 0.89599 0.34244 0.90911 0.0
C622 C 0.90684 0.3301 0.89364 0.0
C623 C 0.93507 0.34195 0.8917 0.0
C624 C 0.88918 0.30595 0.87821 0.0
C625 C 0.86594 0.33179 0.91102 0.0
C626 C 0.86863 0.28213 0.88878 0.0
C627 C 0.84984 0.26095 0.87396 0.0
C628 C 0.8515 0.26292 0.84823 0.0
C629 C 0.87334 0.28593 0.83771 0.0
C630 C 0.89193 0.30724 0.85255 0.0
H631 H 0.86143 0.34727 0.91841 0.0
H632 H 0.85602 0.3249 0.89286 0.0
H633 H 0.85685 0.31436 0.92365 0.0
H634 H 0.86656 0.28026 0.90852 0.0
H635 H 0.83344 0.24341 0.88267 0.0
H636 H 0.94346 0.5135 0.96421 0.0
H637 H 0.92108 0.53406 0.94253 0.0
H638 H 0.99833 0.59686 0.91626 0.0
H639 H 0.02089 0.57607 0.93773 0.0
H640 H 0.92735 0.58713 0.94334 0.0
H641 H 0.9546 0.56086 0.85298 0.0
H642 H 0.95744 0.54643 0.88127 0.0
H643 H 0.98185 0.58067 0.87387 0.0
C644 C 0.95573 0.5319 0.9541 0.0
C645 C 0.98393 0.54304 0.95255 0.0
C646 C 0.94292 0.54367 0.94175 0.0
C647 C 0.95795 0.56674 0.92742 0.0
C648 C 0.98628 0.57883 0.92691 0.0
H649 H 0.88034 0.61813 0.81704 0.0
H650 H 0.91595 0.62059 0.84396 0.0
C651 C 0.99917 0.56711 0.93941 0.0
C652 C 0.94352 0.5768 0.91198 0.0
H653 H 0.92577 0.5789 0.85263 0.0
C654 C 0.92731 0.58571 0.92349 0.0
C655 C 0.94356 0.5751 0.88604 0.0
C656 C 0.96012 0.56511 0.87268 0.0
C657 C 0.91049 0.5921 0.90985 0.0
C658 C 0.90936 0.58892 0.884 0.0
C659 C 0.92662 0.58136 0.87241 0.0
C660 C 0.8882 0.59003 0.86904 0.0
C661 C 0.89375 0.60177 0.92333 0.0
C662 C 0.86083 0.57218 0.87416 0.0
C663 C 0.84063 0.57073 0.8589 0.0
C664 C 0.8472 0.587 0.83796 0.0
C665 C 0.87459 0.6055 0.83313 0.0
C666 C 0.89494 0.60684 0.84845 0.0
H667 H 0.90365 0.61225 0.94073 0.0
H668 H 0.89028 0.6157 0.91194 0.0
H669 H 0.87383 0.58412 0.92807 0.0
H670 H 0.85503 0.55852 0.88952 0.0
H671 H 0.81977 0.55621 0.86319 0.0
H672 H 0.48592 0.98616 0.43544 0.0
H673 H 0.44533 0.96349 0.40997 0.0
H674 H 0.40143 0.91102 0.47002 0.0
H675 H 0.44219 0.93322 0.49543 0.0
H676 H 0.39835 0.88326 0.42712 0.0
H677 H 0.37421 0.96389 0.40871 0.0
H678 H 0.4087 0.97349 0.40218 0.0
H679 H 0.39644 0.96633 0.43322 0.0
C680 C 0.46744 0.97019 0.4434 0.0
C681 C 0.46728 0.96151 0.46747 0.0
C682 C 0.44421 0.95732 0.42884 0.0
C683 C 0.42027 0.93562 0.4381 0.0
C684 C 0.41966 0.92777 0.46252 0.0
H685 H 0.26479 0.85405 0.36516 0.0
H686 H 0.30262 0.87893 0.39313 0.0
C687 C 0.4429 0.94068 0.47712 0.0
C688 C 0.39676 0.91963 0.42167 0.0
H689 H 0.35205 0.9243 0.38366 0.0
C690 C 0.38811 0.89219 0.41773 0.0
C691 C 0.38335 0.93126 0.40948 0.0
C692 C 0.39094 0.9603 0.41374 0.0
C693 C 0.36667 0.87615 0.40172 0.0
C694 C 0.35377 0.88797 0.389 0.0
C695 C 0.36216 0.91532 0.3932 0.0
C696 C 0.33082 0.87211 0.37196 0.0
C697 C 0.35773 0.8466 0.39887 0.0
C698 C 0.33403 0.85992 0.35065 0.0
C699 C 0.31229 0.84551 0.33453 0.0
C700 C 0.28701 0.8432 0.33938 0.0
C701 C 0.28393 0.85538 0.3608 0.0
C702 C 0.30559 0.8697 0.37683 0.0
H703 H 0.36514 0.83933 0.41413 0.0
H704 H 0.33533 0.83414 0.39814 0.0
H705 H 0.36597 0.84344 0.38147 0.0
H706 H 0.35346 0.8619 0.34629 0.0
H707 H 0.31539 0.83654 0.31814 0.0
H708 H 0.45164 0.43813 0.94854 0.0
H709 H 0.42946 0.3996 0.92026 0.0
H710 H 0.45736 0.356 0.96392 0.0
H711 H 0.47841 0.39405 0.99268 0.0
H712 H 0.45758 0.38596 0.89329 0.0
H713 H 0.38648 0.29426 0.94355 0.0
H714 H 0.39903 0.32764 0.95641 0.0
H715 H 0.41857 0.31094 0.95873 0.0
C716 C 0.45175 0.41973 0.95273 0.0
C717 C 0.46635 0.41888 0.97298 0.0
C718 C 0.4393 0.39778 0.93644 0.0
C719 C 0.44152 0.37464 0.93985 0.0
C720 C 0.45458 0.37313 0.96107 0.0
H721 H 0.48087 0.28868 0.84021 0.0
H722 H 0.4736 0.31379 0.87267 0.0
C723 C 0.46667 0.39495 0.97758 0.0
C724 C 0.43458 0.35456 0.91943 0.0
H725 H 0.40678 0.28708 0.90665 0.0
C726 C 0.44581 0.36436 0.89617 0.0
C727 C 0.41918 0.32624 0.92286 0.0
C728 C 0.40491 0.3142 0.9467 0.0
C729 C 0.44351 0.34686 0.87692 0.0
C730 C 0.42994 0.31874 0.88093 0.0
C731 C 0.41732 0.30868 0.90363 0.0
C732 C 0.43219 0.30035 0.86283 0.0
C733 C 0.45677 0.35865 0.85263 0.0
C734 C 0.41095 0.28373 0.84681 0.0
C735 C 0.41504 0.2691 0.82794 0.0
C736 C 0.44048 0.27113 0.82488 0.0
C737 C 0.46112 0.28687 0.84176 0.0
C738 C 0.45701 0.30122 0.86046 0.0
H739 H 0.46103 0.37972 0.85057 0.0
H740 H 0.47624 0.3588 0.85136 0.0
H741 H 0.44379 0.34622 0.83717 0.0
H742 H 0.39161 0.28283 0.84835 0.0
H743 H 0.39876 0.25718 0.81525 0.0
H744 H 0.01008 0.47291 0.41606 0.0
H745 H 0.0291 0.45119 0.39037 0.0
H746 H 0.07967 0.45505 0.45041 0.0
H747 H 0.06043 0.47653 0.47627 0.0
H748 H 0.08234 0.47735 0.37836 0.0
H749 H 0.05587 0.38029 0.42239 0.0
H750 H 0.03862 0.39868 0.42964 0.0
H751 H 0.07118 0.40894 0.44276 0.0
C752 C 0.02471 0.46845 0.42398 0.0
C753 C 0.03375 0.47645 0.44819 0.0
C754 C 0.0356 0.45606 0.40928 0.0
C755 C 0.05577 0.45133 0.41842 0.0
C756 C 0.06376 0.45793 0.44303 0.0
H757 H 0.17597 0.42276 0.34728 0.0
H758 H 0.14605 0.42689 0.37724 0.0
C759 C 0.05274 0.47023 0.45783 0.0
C760 C 0.07068 0.44287 0.40132 0.0
H761 H 0.08953 0.3955 0.39094 0.0
C762 C 0.08365 0.45928 0.38102 0.0
C763 C 0.07275 0.4195 0.40493 0.0
C764 C 0.05868 0.40068 0.42599 0.0
C765 C 0.09879 0.45324 0.36442 0.0
C766 C 0.10069 0.42977 0.36785 0.0
C767 C 0.08791 0.41337 0.38823 0.0
C768 C 0.11632 0.42252 0.35049 0.0
C769 C 0.11323 0.47249 0.34366 0.0
C770 C 0.10891 0.41738 0.32567 0.0
C771 C 0.12599 0.41511 0.3085 0.0
C772 C 0.15077 0.41771 0.3158 0.0
C773 C 0.15709 0.42069 0.34098 0.0
C774 C 0.14001 0.4231 0.35816 0.0
H775 H 0.11522 0.49258 0.34707 0.0
H776 H 0.13373 0.47529 0.34079 0.0
H777 H 0.10153 0.46409 0.32649 0.0
H778 H 0.09046 0.41633 0.3194 0.0
H779 H 0.12034 0.41257 0.28932 0.0
H780 H 0.55844 0.04051 0.96235 0.0
H781 H 0.59881 0.06317 0.93645 0.0
H782 H 0.62433 0.13764 0.97611 0.0
H783 H 0.58406 0.11502 1.00212 0.0
H784 H 0.6167 0.14033 0.92538 0.0
H785 H 0.68136 0.09542 0.94257 0.0
H786 H 0.64614 0.07127 0.93818 0.0
H787 H 0.65652 0.09345 0.96442 0.0
C788 C 0.57332 0.06135 0.96634 0.0
C789 C 0.56809 0.07599 0.98428 0.0
C790 C 0.59634 0.07436 0.9514 0.0
C791 C 0.61457 0.10215 0.95427 0.0
C792 C 0.61054 0.11621 0.97354 0.0
H793 H 0.73756 0.21817 0.85236 0.0
H794 H 0.70606 0.19836 0.88691 0.0
C795 C 0.58763 0.10323 0.9885 0.0
C796 C 0.63542 0.11719 0.93524 0.0
H797 H 0.69046 0.12128 0.9062 0.0
C798 C 0.63305 0.13642 0.92135 0.0
C799 C 0.65656 0.11191 0.9299 0.0
C800 C 0.66054 0.09206 0.94466 0.0
C801 C 0.65066 0.14985 0.90172 0.0
C802 C 0.67169 0.14438 0.89617 0.0
C803 C 0.67436 0.12551 0.91041 0.0
C804 C 0.69032 0.15693 0.87496 0.0
C805 C 0.64581 0.16887 0.8865 0.0
C806 C 0.69222 0.14036 0.85685 0.0
C807 C 0.71033 0.15159 0.83733 0.0
C808 C 0.727 0.17974 0.83535 0.0
C809 C 0.72476 0.19644 0.85319 0.0
C810 C 0.70672 0.18512 0.87293 0.0
H811 H 0.62501 0.16543 0.88907 0.0
H812 H 0.66025 0.18997 0.89215 0.0
H813 H 0.64897 0.16662 0.8667 0.0
H814 H 0.67978 0.1186 0.85792 0.0
H815 H 0.71149 0.13811 0.82391 0.0
H816 H 0.5621 0.60302 0.46116 0.0
H817 H 0.57157 0.63993 0.43355 0.0
H818 H 0.51825 0.65794 0.47563 0.0
H819 H 0.50834 0.62054 0.50311 0.0
H820 H 0.50236 0.64634 0.4291 0.0
H821 H 0.61161 0.7207 0.42957 0.0
H822 H 0.60586 0.68707 0.42601 0.0
H823 H 0.59551 0.69658 0.45388 0.0
C824 C 0.5535 0.61572 0.46529 0.0
C825 C 0.53447 0.60892 0.48426 0.0
C826 C 0.55887 0.63684 0.44941 0.0
C827 C 0.54563 0.65178 0.45247 0.0
C828 C 0.52868 0.6467 0.47289 0.0
H829 H 0.53027 0.75088 0.33722 0.0
H830 H 0.52615 0.7295 0.37704 0.0
C831 C 0.52318 0.62547 0.48868 0.0
C832 C 0.54582 0.66906 0.43226 0.0
H833 H 0.58754 0.71769 0.39205 0.0
C834 C 0.52096 0.6624 0.42136 0.0
C835 C 0.57005 0.68993 0.42207 0.0
C836 C 0.59722 0.69916 0.43368 0.0
C837 C 0.51983 0.67496 0.39979 0.0
C838 C 0.54414 0.69477 0.38893 0.0
C839 C 0.56891 0.70232 0.40038 0.0
C840 C 0.54453 0.70635 0.36469 0.0
C841 C 0.49278 0.66599 0.388 0.0
C842 C 0.55573 0.69998 0.34456 0.0
C843 C 0.55794 0.71194 0.32188 0.0
C844 C 0.54917 0.73071 0.31887 0.0
C845 C 0.537 0.73633 0.33886 0.0
C846 C 0.53475 0.72425 0.36164 0.0
H847 H 0.47608 0.64813 0.39719 0.0
H848 H 0.4883 0.68273 0.38893 0.0
H849 H 0.4933 0.66098 0.36834 0.0
H850 H 0.56324 0.68608 0.34653 0.0
H851 H 0.56737 0.7071 0.30689 0.0
H852 H 0.5385 0.09666 0.58026 0.0
H853 H 0.51519 0.11685 0.60181 0.0
H854 H 0.44934 0.0376 0.61906 0.0
H855 H 0.4728 0.01713 0.59767 0.0
H856 H 0.4357 0.08144 0.60408 0.0
H857 H 0.50991 0.1096 0.67979 0.0
H858 H 0.52412 0.1185 0.64949 0.0
H859 H 0.50381 0.08357 0.65751 0.0
C860 C 0.51883 0.08347 0.58827 0.0
C861 C 0.50764 0.05526 0.58742 0.0
C862 C 0.50555 0.09506 0.6006 0.0
C863 C 0.48073 0.07876 0.61234 0.0
C864 C 0.46852 0.05056 0.61016 0.0
H865 H 0.428 0.14793 0.72987 0.0
H866 H 0.43449 0.11556 0.70524 0.0
C867 C 0.48188 0.03888 0.5978 0.0
C868 C 0.46892 0.09141 0.62845 0.0
H869 H 0.48146 0.12864 0.68117 0.0
C870 C 0.44551 0.09156 0.62105 0.0
C871 C 0.4815 0.10427 0.65077 0.0
C872 C 0.50611 0.10389 0.66007 0.0
C873 C 0.43501 0.10516 0.63495 0.0
C874 C 0.44841 0.11917 0.65669 0.0
C875 C 0.47118 0.11804 0.66451 0.0
C876 C 0.44032 0.13646 0.67094 0.0
C877 C 0.40968 0.10445 0.62621 0.0
C878 C 0.44089 0.15877 0.65988 0.0
C879 C 0.43719 0.17731 0.67392 0.0
C880 C 0.43298 0.17412 0.69944 0.0
C881 C 0.43111 0.15105 0.7103 0.0
C882 C 0.43491 0.13253 0.69623 0.0
H883 H 0.39741 0.08654 0.6143 0.0
H884 H 0.39702 0.10413 0.64188 0.0
H885 H 0.41538 0.12276 0.61525 0.0
H886 H 0.44556 0.16264 0.64056 0.0
H887 H 0.43887 0.19484 0.66489 0.0
H888 H 0.45415 0.48623 0.13519 0.0
H889 H 0.41264 0.46231 0.15907 0.0
H890 H 0.36875 0.42069 0.09375 0.0
H891 H 0.4107 0.44506 0.06947 0.0
H892 H 0.34428 0.44478 0.1216 0.0
H893 H 0.37032 0.38389 0.18136 0.0
H894 H 0.3965 0.41867 0.18096 0.0
H895 H 0.3883 0.39875 0.15323 0.0
C896 C 0.4357 0.47186 0.12589 0.0
C897 C 0.43561 0.46765 0.10042 0.0
C898 C 0.41203 0.45797 0.13962 0.0
C899 C 0.38763 0.4394 0.12831 0.0
C900 C 0.38743 0.43477 0.10289 0.0
H901 H 0.23029 0.37603 0.20536 0.0
H902 H 0.26311 0.37853 0.17463 0.0
C903 C 0.41134 0.4486 0.08907 0.0
C904 C 0.36231 0.42666 0.1431 0.0
H905 H 0.33621 0.39346 0.19695 0.0
C906 C 0.34211 0.43294 0.13773 0.0
C907 C 0.35951 0.41123 0.16416 0.0
C908 C 0.3797 0.4025 0.17015 0.0
C909 C 0.3202 0.42585 0.15378 0.0
C910 C 0.31833 0.41184 0.1756 0.0
C911 C 0.33772 0.40427 0.18027 0.0
C912 C 0.29823 0.40767 0.19501 0.0
C913 C 0.30015 0.43486 0.14811 0.0
C914 C 0.30714 0.42244 0.217 0.0
C915 C 0.28854 0.42108 0.23451 0.0
C916 C 0.26056 0.40471 0.23052 0.0
C917 C 0.25168 0.38877 0.20905 0.0
C918 C 0.27038 0.39032 0.19138 0.0
H919 H 0.30628 0.44832 0.13193 0.0
H920 H 0.28009 0.41692 0.14429 0.0
H921 H 0.29786 0.4457 0.16414 0.0
H922 H 0.32853 0.43587 0.22022 0.0
H923 H 0.29609 0.43354 0.25087 0.0
H924 H 0.97297 0.44071 0.58735 0.0
H925 H 0.95177 0.40569 0.61854 0.0
H926 H 0.87399 0.37723 0.58476 0.0
H927 H 0.89518 0.41191 0.55332 0.0
H928 H 0.91335 0.4074 0.64935 0.0
H929 H 0.8703 0.30663 0.6046 0.0
H930 H 0.89666 0.33702 0.59062 0.0
H931 H 0.86216 0.32956 0.58984 0.0
C932 C 0.95158 0.42616 0.58586 0.0
C933 C 0.93573 0.42903 0.56787 0.0
C934 C 0.93941 0.40633 0.60387 0.0
C935 C 0.91127 0.38885 0.60405 0.0
C936 C 0.89576 0.3902 0.58486 0.0
H937 H 0.80066 0.28011 0.7169 0.0
H938 H 0.81889 0.30837 0.68021 0.0
C939 C 0.90789 0.41004 0.56689 0.0
C940 C 0.89781 0.37218 0.62599 0.0
H941 H 0.85633 0.30766 0.64561 0.0
C942 C 0.90103 0.38557 0.64853 0.0
C943 C 0.88128 0.34376 0.62484 0.0
C944 C 0.8775 0.3283 0.60123 0.0
C945 C 0.88827 0.37137 0.66994 0.0
C946 C 0.87222 0.3429 0.66895 0.0
C947 C 0.86858 0.32949 0.64634 0.0
C948 C 0.86071 0.3267 0.69151 0.0
C949 C 0.89189 0.38705 0.69341 0.0
C950 C 0.87811 0.32773 0.71001 0.0
C951 C 0.86782 0.3118 0.73087 0.0
C952 C 0.83983 0.2943 0.73371 0.0
C953 C 0.82228 0.29359 0.71538 0.0
C954 C 0.83268 0.30955 0.69435 0.0
H955 H 0.89758 0.4083 0.68971 0.0
H956 H 0.87313 0.37759 0.70463 0.0
H957 H 0.90836 0.38737 0.70432 0.0
H958 H 0.89981 0.34044 0.70808 0.0
H959 H 0.88195 0.31281 0.74455 0.0
H960 H 0.49566 0.93933 0.06293 0.0
H961 H 0.51045 0.91385 0.08803 0.0
H962 H 0.52456 0.96808 0.14891 0.0
H963 H 0.50928 0.99324 0.12404 0.0
H964 H 0.5559 0.92498 0.11348 0.0
H965 H 0.47011 0.89565 0.1775 0.0
H966 H 0.47258 0.91174 0.14859 0.0
H967 H 0.49114 0.93155 0.17485 0.0
C968 C 0.50256 0.94619 0.08147 0.0
C969 C 0.5012 0.96816 0.09161 0.0
C970 C 0.5108 0.9315 0.09585 0.0
C971 C 0.51784 0.93859 0.12056 0.0
C972 C 0.51842 0.96175 0.13012 0.0
H973 H 0.59889 0.88501 0.21795 0.0
H974 H 0.58548 0.90865 0.18952 0.0
C975 C 0.50998 0.97627 0.11585 0.0
C976 C 0.52354 0.92124 0.13662 0.0
H977 H 0.50408 0.88581 0.19009 0.0
C978 C 0.54449 0.9163 0.13016 0.0
C979 C 0.50817 0.9093 0.15807 0.0
C980 C 0.48406 0.91206 0.16506 0.0
C981 C 0.55114 0.90059 0.14503 0.0
C982 C 0.53684 0.89004 0.16725 0.0
C983 C 0.51527 0.89417 0.17324 0.0
C984 C 0.54457 0.8755 0.18491 0.0
C985 C 0.57326 0.89525 0.13663 0.0
C986 C 0.52567 0.84932 0.1927 0.0
C987 C 0.53319 0.83578 0.20937 0.0
C988 C 0.55975 0.84824 0.2185 0.0
C989 C 0.57836 0.87466 0.21106 0.0
C990 C 0.5708 0.88818 0.19462 0.0
H991 H 0.57586 0.89693 0.11639 0.0
H992 H 0.59268 0.91048 0.14505 0.0
H993 H 0.56898 0.87487 0.14214 0.0
H994 H 0.50521 0.83924 0.18564 0.0
H995 H 0.51839 0.81546 0.21476 0.0
H996 H 0.57917 0.5727 0.62004 0.0
H997 H 0.6199 0.59566 0.64536 0.0
H998 H 0.66687 0.58934 0.58608 0.0
H999 H 0.6262 0.56698 0.56055 0.0
H1000 H 0.6448 0.56913 0.65887 0.0
H1001 H 0.72002 0.66308 0.61308 0.0
H1002 H 0.68457 0.64569 0.60516 0.0
H1003 H 0.70646 0.63421 0.59299 0.0
C1004 C 0.59843 0.57729 0.6121 0.0
C1005 C 0.59959 0.56826 0.58829 0.0
C1006 C 0.62168 0.59025 0.62662 0.0
C1007 C 0.64658 0.59436 0.6177 0.0
C1008 C 0.64812 0.587 0.59329 0.0
H1009 H 0.79029 0.60894 0.6808 0.0
H1010 H 0.75653 0.60961 0.65407 0.0
C1011 C 0.62484 0.57423 0.57864 0.0
C1012 C 0.66954 0.60226 0.63498 0.0
H1013 H 0.73722 0.64556 0.64359 0.0
C1014 C 0.66488 0.58615 0.65572 0.0
C1015 C 0.69588 0.62426 0.63078 0.0
C1016 C 0.70202 0.64296 0.60941 0.0
C1017 C 0.68583 0.59083 0.67189 0.0
C1018 C 0.71226 0.6126 0.66756 0.0
C1019 C 0.71694 0.62899 0.64701 0.0
C1020 C 0.7354 0.61721 0.68332 0.0
C1021 C 0.67967 0.57162 0.6929 0.0
C1022 C 0.7356 0.62259 0.70856 0.0
C1023 C 0.75488 0.62213 0.72399 0.0
C1024 C 0.77442 0.61639 0.71443 0.0
C1025 C 0.77545 0.61322 0.68886 0.0
C1026 C 0.75615 0.61363 0.67349 0.0
H1027 H 0.65994 0.55272 0.69054 0.0
H1028 H 0.69573 0.56622 0.69477 0.0
H1029 H 0.6788 0.58149 0.71024 0.0
H1030 H 0.72008 0.62593 0.71649 0.0
H1031 H 0.75354 0.62483 0.74354 0.0
H1032 H 0.05622 0.57735 0.10168 0.0
H1033 H 0.08244 0.61619 0.12878 0.0
H1034 H 0.13936 0.6569 0.0704 0.0
H1035 H 0.11336 0.6179 0.04324 0.0
H1036 H 0.14054 0.63048 0.13556 0.0
H1037 H 0.12766 0.71661 0.10753 0.0
H1038 H 0.10169 0.68188 0.10236 0.0
H1039 H 0.13171 0.69661 0.08391 0.0
C1040 C 0.07373 0.59502 0.09434 0.0
C1041 C 0.08279 0.59457 0.07037 0.0
C1042 C 0.08875 0.61712 0.10987 0.0
C1043 C 0.11289 0.63931 0.10162 0.0
C1044 C 0.12065 0.64004 0.07703 0.0
H1045 H 0.23851 0.77905 0.1808 0.0
H1046 H 0.21189 0.7458 0.1491 0.0
C1047 C 0.10565 0.61783 0.06147 0.0
C1048 C 0.13176 0.65945 0.11962 0.0
H1049 H 0.15896 0.7248 0.13909 0.0
C1050 C 0.14458 0.65112 0.13639 0.0
C1051 C 0.13726 0.68638 0.12033 0.0
C1052 C 0.12385 0.69609 0.10269 0.0
C1053 C 0.16275 0.669 0.15396 0.0
C1054 C 0.16768 0.69581 0.15527 0.0
C1055 C 0.15515 0.70425 0.13818 0.0
C1056 C 0.18516 0.71517 0.1746 0.0
C1057 C 0.17686 0.65908 0.1706 0.0
C1058 C 0.17928 0.70895 0.19955 0.0
C1059 C 0.1947 0.72779 0.21773 0.0
C1060 C 0.21606 0.75347 0.21136 0.0
C1061 C 0.22227 0.75945 0.18637 0.0
C1062 C 0.20697 0.74051 0.1682 0.0
H1063 H 0.17784 0.6418 0.16222 0.0
H1064 H 0.19775 0.67535 0.17493 0.0
H1065 H 0.16536 0.652 0.18802 0.0
H1066 H 0.16221 0.68982 0.20499 0.0
H1067 H 0.18911 0.72259 0.23675 0.0
loop_
_geom_bond_atom_site_label_1
_geom_bond_atom_site_label_2
_geom_bond_distance
_geom_bond_site_symmetry_2
_ccdc_geom_bond_type
H0 C8 0.930 . S
H1 C11 0.930 . S
H2 C13 0.930 . S
H3 C14 0.970 . S
H4 C14 0.970 . S
H5 C16 0.930 . S
H6 C18 0.930 . S
H7 C20 0.930 . S
C8 H0 0.930 . S
C8 C9 1.382 . S
C8 C10 1.426 . S
C9 C8 1.382 . S
C9 C13 1.389 . S
C10 C8 1.426 . S
C10 C11 1.375 . S
C10 C14 1.532 1_554 S
C11 H1 0.930 . S
C11 C10 1.375 . S
C11 C12 1.416 . S
C12 C11 1.416 . S
C12 C13 1.371 . S
C13 H2 0.930 . S
C13 C9 1.389 . S
C13 C12 1.371 . S
C14 H3 0.970 . S
C14 H4 0.970 . S
C14 C10 1.532 1_556 S
C14 C15 1.499 . S
C15 C14 1.499 . S
C15 C16 1.370 . S
C15 C20 1.415 . S
C16 H5 0.930 . S
C16 C15 1.370 . S
C16 C17 1.407 1_455 S
C17 C16 1.407 1_655 S
C17 C18 1.365 . S
C18 H6 0.930 . S
C18 C17 1.365 . S
C18 C19 1.393 . S
C19 C18 1.393 . S
C19 C20 1.387 1_655 S
C20 H7 0.930 . S
C20 C15 1.415 . S
C20 C19 1.387 1_455 S
H21 C29 0.930 . S
H22 C32 0.930 . S
H23 C34 0.930 . S
H24 C35 0.970 . S
H25 C35 0.970 . S
H26 C37 0.930 . S
H27 C39 0.930 . S
H28 C41 0.930 . S
C29 H21 0.930 . S
C29 C30 1.382 . S
C29 C31 1.426 . S
C30 C29 1.382 . S
C30 C34 1.389 . S
C31 C29 1.426 . S
C31 C32 1.375 . S
C31 C35 1.532 1_545 S
C32 H22 0.930 . S
C32 C31 1.375 . S
C32 C33 1.416 . S
C33 C32 1.416 . S
C33 C34 1.371 . S
C34 H23 0.930 . S
C34 C30 1.389 . S
C34 C33 1.371 . S
C35 H24 0.970 . S
C35 H25 0.970 . S
C35 C31 1.532 1_565 S
C35 C36 1.499 . S
C36 C35 1.499 . S
C36 C37 1.370 . S
C36 C41 1.415 . S
C37 H26 0.930 . S
C37 C36 1.370 . S
C37 C38 1.407 . S
C38 C37 1.407 . S
C38 C39 1.365 . S
C39 H27 0.930 . S
C39 C38 1.365 . S
C39 C40 1.393 . S
C40 C39 1.393 . S
C40 C41 1.387 . S
C41 H28 0.930 . S
C41 C36 1.415 . S
C41 C40 1.387 . S
H42 C50 0.930 . S
H43 C53 0.930 . S
H44 C55 0.930 . S
H45 C56 0.970 . S
H46 C56 0.970 . S
H47 C58 0.930 1_554 S
H48 C60 0.930 . S
H49 C62 0.930 1_554 S
C50 H42 0.930 . S
C50 C51 1.382 . S
C50 C52 1.426 . S
C51 C50 1.382 . S
C51 C55 1.389 . S
C52 C50 1.426 . S
C52 C53 1.375 . S
C52 C56 1.532 . S
C53 H43 0.930 . S
C53 C52 1.375 . S
C53 C54 1.416 . S
C54 C53 1.416 . S
C54 C55 1.371 . S
C55 H44 0.930 . S
C55 C51 1.389 . S
C55 C54 1.371 . S
C56 H45 0.970 . S
C56 H46 0.970 . S
C56 C52 1.532 . S
C56 C57 1.499 . S
C57 C56 1.499 . S
C57 C58 1.370 1_554 S
C57 C62 1.415 1_554 S
C58 H47 0.930 1_556 S
C58 C57 1.370 1_556 S
C58 C59 1.407 . S
C59 C58 1.407 . S
C59 C60 1.365 . S
C60 H48 0.930 . S
C60 C59 1.365 . S
C60 C61 1.393 . S
C61 C60 1.393 . S
C61 C62 1.387 . S
C62 H49 0.930 1_556 S
C62 C57 1.415 1_556 S
C62 C61 1.387 . S
H63 C71 0.930 1_455 S
H64 C74 0.930 1_455 S
H65 C76 0.930 . S
H66 C77 0.970 . S
H67 C77 0.970 . S
H68 C79 0.930 . S
H69 C81 0.930 . S
H70 C83 0.930 . S
C71 H63 0.930 1_655 S
C71 C72 1.382 . S
C71 C73 1.426 1_655 S
C72 C71 1.382 . S
C72 C76 1.389 . S
C73 C71 1.426 1_455 S
C73 C74 1.375 1_455 S
C73 C77 1.532 . S
C74 H64 0.930 1_655 S
C74 C73 1.375 1_655 S
C74 C75 1.416 . S
C75 C74 1.416 . S
C75 C76 1.371 . S
C76 H65 0.930 . S
C76 C72 1.389 . S
C76 C75 1.371 . S
C77 H66 0.970 . S
C77 H67 0.970 . S
C77 C73 1.532 . S
C77 C78 1.499 . S
C78 C77 1.499 . S
C78 C79 1.370 . S
C78 C83 1.415 . S
C79 H68 0.930 . S
C79 C78 1.370 . S
C79 C80 1.407 . S
C80 C79 1.407 . S
C80 C81 1.365 . S
C81 H69 0.930 . S
C81 C80 1.365 . S
C81 C82 1.393 . S
C82 C81 1.393 . S
C82 C83 1.387 . S
C83 H70 0.930 . S
C83 C78 1.415 . S
C83 C82 1.387 . S
H84 C92 0.930 . S
H85 C95 0.930 . S
H86 C97 0.930 . S
H87 C98 0.970 . S
H88 C98 0.970 . S
H89 C100 0.930 . S
H90 C102 0.930 . S
H91 C104 0.930 . S
C92 H84 0.930 . S
C92 C93 1.382 . S
C92 C94 1.426 . S
C93 C92 1.382 . S
C93 C97 1.389 . S
C94 C92 1.426 . S
C94 C95 1.375 . S
C94 C98 1.532 1_554 S
C95 H85 0.930 . S
C95 C94 1.375 . S
C95 C96 1.416 . S
C96 C95 1.416 . S
C96 C97 1.371 . S
C97 H86 0.930 . S
C97 C93 1.389 . S
C97 C96 1.371 . S
C98 H87 0.970 . S
C98 H88 0.970 . S
C98 C94 1.532 1_556 S
C98 C99 1.499 . S
C99 C98 1.499 . S
C99 C100 1.370 1_565 S
C99 C104 1.415 1_565 S
C100 H89 0.930 . S
C100 C99 1.370 1_545 S
C100 C101 1.407 . S
C101 C100 1.407 . S
C101 C102 1.365 . S
C102 H90 0.930 . S
C102 C101 1.365 . S
C102 C103 1.393 . S
C103 C102 1.393 . S
C103 C104 1.387 . S
C104 H91 0.930 . S
C104 C99 1.415 1_545 S
C104 C103 1.387 . S
H105 C113 0.930 . S
H106 C116 0.930 . S
H107 C118 0.930 . S
H108 C119 0.970 . S
H109 C119 0.970 . S
H110 C121 0.930 . S
H111 C123 0.930 . S
H112 C125 0.930 . S
C113 H105 0.930 . S
C113 C114 1.382 . S
C113 C115 1.426 . S
C114 C113 1.382 . S
C114 C118 1.389 . S
C115 C113 1.426 . S
C115 C116 1.375 . S
C115 C119 1.532 . S
C116 H106 0.930 . S
C116 C115 1.375 . S
C116 C117 1.416 . S
C117 C116 1.416 . S
C117 C118 1.371 . S
C118 H107 0.930 . S
C118 C114 1.389 . S
C118 C117 1.371 . S
C119 H108 0.970 . S
C119 H109 0.970 . S
C119 C115 1.532 . S
C119 C120 1.499 . S
C120 C119 1.499 . S
C120 C121 1.370 . S
C120 C125 1.415 . S
C121 H110 0.930 . S
C121 C120 1.370 . S
C121 C122 1.407 . S
C122 C121 1.407 . S
C122 C123 1.365 . S
C123 H111 0.930 . S
C123 C122 1.365 . S
C123 C124 1.393 . S
C124 C123 1.393 . S
C124 C125 1.387 . S
C125 H112 0.930 . S
C125 C120 1.415 . S
C125 C124 1.387 . S
Mg126 O133 2.141 . S
Mg126 O134 2.048 . S
Mg126 O135 2.048 . S
Mg126 O138 2.141 . S
C127 O128 1.313 . S
C127 O134 1.195 . S
O128 C127 1.313 . S
C129 O130 1.245 . S
C129 O138 1.289 . S
O130 C129 1.245 . S
C131 O132 1.245 . S
C131 O133 1.289 . S
O132 C131 1.245 . S
O133 Mg126 2.141 . S
O133 C131 1.289 . S
O134 Mg126 2.048 . S
O134 C127 1.195 . S
O135 Mg126 2.048 . S
O135 C136 1.195 . S
C136 O135 1.195 . S
C136 O137 1.313 . S
O137 C136 1.313 . S
O138 Mg126 2.141 . S
O138 C129 1.289 . S
Mg139 O146 2.141 . S
Mg139 O147 2.048 . S
Mg139 O148 2.048 . S
Mg139 O151 2.141 . S
C140 O141 1.313 . S
C140 O147 1.195 . S
O141 C140 1.313 . S
C142 O143 1.245 . S
C142 O151 1.289 . S
O143 C142 1.245 . S
C144 O145 1.245 . S
C144 O146 1.289 . S
O145 C144 1.245 . S
O146 Mg139 2.141 . S
O146 C144 1.289 . S
O147 Mg139 2.048 . S
O147 C140 1.195 . S
O148 Mg139 2.048 . S
O148 C149 1.195 . S
C149 O148 1.195 . S
C149 O150 1.313 . S
O150 C149 1.313 . S
O151 Mg139 2.141 . S
O151 C142 1.289 . S
Mg152 O159 2.141 . S
Mg152 O160 2.048 . S
Mg152 O161 2.048 . S
Mg152 O164 2.141 . S
C153 O154 1.313 . S
C153 O160 1.195 . S
O154 C153 1.313 . S
C155 O156 1.245 . S
C155 O164 1.289 . S
O156 C155 1.245 . S
C157 O158 1.245 . S
C157 O159 1.289 . S
O158 C157 1.245 . S
O159 Mg152 2.141 . S
O159 C157 1.289 . S
O160 Mg152 2.048 . S
O160 C153 1.195 . S
O161 Mg152 2.048 . S
O161 C162 1.195 . S
C162 O161 1.195 . S
C162 O163 1.313 . S
O163 C162 1.313 . S
O164 Mg152 2.141 . S
O164 C155 1.289 . S
Mg165 O172 2.141 . S
Mg165 O173 2.048 . S
Mg165 O174 2.048 . S
Mg165 O177 2.141 . S
C166 O167 1.313 . S
C166 O173 1.195 . S
O167 C166 1.313 . S
C168 O169 1.245 . S
C168 O177 1.289 . S
O169 C168 1.245 . S
C170 O171 1.245 . S
C170 O172 1.289 . S
O171 C170 1.245 . S
O172 Mg165 2.141 . S
O172 C170 1.289 . S
O173 Mg165 2.048 . S
O173 C166 1.195 . S
O174 Mg165 2.048 . S
O174 C175 1.195 . S
C175 O174 1.195 . S
C175 O176 1.313 . S
O176 C175 1.313 . S
O177 Mg165 2.141 . S
O177 C168 1.289 . S
Mg178 O185 2.141 . S
Mg178 O186 2.048 . S
Mg178 O187 2.048 . S
Mg178 O190 2.141 . S
C179 O180 1.313 . S
C179 O186 1.195 . S
O180 C179 1.313 . S
C181 O182 1.245 . S
C181 O190 1.289 . S
O182 C181 1.245 . S
C183 O184 1.245 . S
C183 O185 1.289 . S
O184 C183 1.245 . S
O185 Mg178 2.141 . S
O185 C183 1.289 . S
O186 Mg178 2.048 . S
O186 C179 1.195 . S
O187 Mg178 2.048 . S
O187 C188 1.195 . S
C188 O187 1.195 . S
C188 O189 1.313 . S
O189 C188 1.313 . S
O190 Mg178 2.141 . S
O190 C181 1.289 . S
Mg191 O198 2.141 . S
Mg191 O199 2.048 . S
Mg191 O200 2.048 . S
Mg191 O203 2.141 . S
C192 O193 1.313 . S
C192 O199 1.195 . S
O193 C192 1.313 . S
C194 O195 1.245 . S
C194 O203 1.289 . S
O195 C194 1.245 . S
C196 O197 1.245 . S
C196 O198 1.289 . S
O197 C196 1.245 . S
O198 Mg191 2.141 . S
O198 C196 1.289 . S
O199 Mg191 2.048 . S
O199 C192 1.195 . S
O200 Mg191 2.048 . S
O200 C201 1.195 . S
C201 O200 1.195 . S
C201 O202 1.313 . S
O202 C201 1.313 . S
O203 Mg191 2.141 . S
O203 C194 1.289 . S
H204 C212 0.929 . S
H205 C214 0.930 . S
H206 C216 0.930 . S
H207 C219 0.929 . S
H208 C222 0.930 . S
H209 C224 0.960 . S
H210 C224 0.960 . S
H211 C224 0.960 . S
C212 H204 0.929 . S
C212 C213 1.377 . S
C212 C214 1.384 . S
C213 C212 1.377 . S
C213 C219 1.390 . S
C214 H205 0.930 . S
C214 C212 1.384 . S
C214 C215 1.372 . S
C215 C214 1.372 . S
C215 C216 1.400 . S
C215 C220 1.490 . S
C216 H206 0.930 . S
C216 C215 1.400 . S
C216 C219 1.386 . S
H217 C233 0.930 . S
H218 C234 0.931 . S
C219 H207 0.929 . S
C219 C213 1.390 . S
C219 C216 1.386 . S
C220 C215 1.490 . S
C220 C222 1.395 . S
C220 C223 1.403 . S
H221 C227 0.930 . S
C222 H208 0.930 . S
C222 C220 1.395 . S
C222 C225 1.403 . S
C223 C220 1.403 . S
C223 C224 1.524 . S
C223 C227 1.400 . S
C224 H209 0.960 . S
C224 H210 0.960 . S
C224 H211 0.960 . S
C224 C223 1.524 . S
C225 C222 1.403 . S
C225 C226 1.392 . S
C225 C229 1.495 . S
C226 C225 1.392 . S
C226 C227 1.385 . S
C226 C228 1.478 . S
C227 H221 0.930 . S
C227 C223 1.400 . S
C227 C226 1.385 . S
C228 C226 1.478 . S
C228 C230 1.381 . S
C228 C234 1.383 . S
C229 C225 1.495 . S
C229 H235 0.959 . S
C229 H236 0.961 . S
C229 H237 0.960 . S
C230 C228 1.381 . S
C230 C231 1.394 . S
C230 H238 0.930 . S
C231 C230 1.394 . S
C231 C232 1.383 . S
C231 H239 0.929 . S
C232 C231 1.383 . S
C232 C233 1.377 . S
C233 H217 0.930 . S
C233 C232 1.377 . S
C233 C234 1.379 . S
C234 H218 0.931 . S
C234 C228 1.383 . S
C234 C233 1.379 . S
H235 C229 0.959 . S
H236 C229 0.961 . S
H237 C229 0.960 . S
H238 C230 0.930 . S
H239 C231 0.929 . S
H240 C248 0.929 . S
H241 C250 0.930 . S
H242 C252 0.930 . S
H243 C255 0.929 . S
H244 C258 0.930 . S
H245 C260 0.960 . S
H246 C260 0.960 . S
H247 C260 0.960 . S
C248 H240 0.929 . S
C248 C249 1.377 . S
C248 C250 1.384 . S
C249 C248 1.377 . S
C249 C255 1.390 . S
C250 H241 0.930 . S
C250 C248 1.384 . S
C250 C251 1.372 . S
C251 C250 1.372 . S
C251 C252 1.400 . S
C251 C256 1.490 . S
C252 H242 0.930 . S
C252 C251 1.400 . S
C252 C255 1.386 . S
H253 C269 0.930 . S
H254 C270 0.931 . S
C255 H243 0.929 . S
C255 C249 1.390 . S
C255 C252 1.386 . S
C256 C251 1.490 . S
C256 C258 1.395 . S
C256 C259 1.403 . S
H257 C263 0.930 . S
C258 H244 0.930 . S
C258 C256 1.395 . S
C258 C261 1.403 . S
C259 C256 1.403 . S
C259 C260 1.524 . S
C259 C263 1.400 . S
C260 H245 0.960 . S
C260 H246 0.960 . S
C260 H247 0.960 . S
C260 C259 1.524 . S
C261 C258 1.403 . S
C261 C262 1.392 . S
C261 C265 1.495 . S
C262 C261 1.392 . S
C262 C263 1.385 . S
C262 C264 1.478 . S
C263 H257 0.930 . S
C263 C259 1.400 . S
C263 C262 1.385 . S
C264 C262 1.478 . S
C264 C266 1.381 . S
C264 C270 1.383 . S
C265 C261 1.495 . S
C265 H271 0.959 . S
C265 H272 0.961 . S
C265 H273 0.960 . S
C266 C264 1.381 . S
C266 C267 1.394 . S
C266 H274 0.930 . S
C267 C266 1.394 . S
C267 C268 1.383 . S
C267 H275 0.929 . S
C268 C267 1.383 . S
C268 C269 1.377 . S
C269 H253 0.930 . S
C269 C268 1.377 . S
C269 C270 1.379 . S
C270 H254 0.931 . S
C270 C264 1.383 . S
C270 C269 1.379 . S
H271 C265 0.959 . S
H272 C265 0.961 . S
H273 C265 0.960 . S
H274 C266 0.930 . S
H275 C267 0.929 . S
H276 C284 0.929 . S
H277 C286 0.930 . S
H278 C288 0.930 . S
H279 C291 0.929 . S
H280 C294 0.930 . S
H281 C296 0.960 . S
H282 C296 0.960 . S
H283 C296 0.960 . S
C284 H276 0.929 . S
C284 C285 1.377 . S
C284 C286 1.384 . S
C285 C284 1.377 . S
C285 C291 1.390 . S
C286 H277 0.930 . S
C286 C284 1.384 . S
C286 C287 1.372 . S
C287 C286 1.372 . S
C287 C288 1.400 . S
C287 C292 1.490 . S
C288 H278 0.930 . S
C288 C287 1.400 . S
C288 C291 1.386 . S
H289 C305 0.930 . S
H290 C306 0.931 . S
C291 H279 0.929 . S
C291 C285 1.390 . S
C291 C288 1.386 . S
C292 C287 1.490 . S
C292 C294 1.395 . S
C292 C295 1.403 . S
H293 C299 0.930 . S
C294 H280 0.930 . S
C294 C292 1.395 . S
C294 C297 1.403 . S
C295 C292 1.403 . S
C295 C296 1.524 . S
C295 C299 1.400 . S
C296 H281 0.960 . S
C296 H282 0.960 . S
C296 H283 0.960 . S
C296 C295 1.524 . S
C297 C294 1.403 . S
C297 C298 1.392 . S
C297 C301 1.495 . S
C298 C297 1.392 . S
C298 C299 1.385 . S
C298 C300 1.478 . S
C299 H293 0.930 . S
C299 C295 1.400 . S
C299 C298 1.385 . S
C300 C298 1.478 . S
C300 C302 1.381 . S
C300 C306 1.383 . S
C301 C297 1.495 . S
C301 H307 0.959 . S
C301 H308 0.961 . S
C301 H309 0.960 . S
C302 C300 1.381 . S
C302 C303 1.394 . S
C302 H310 0.930 . S
C303 C302 1.394 . S
C303 C304 1.383 . S
C303 H311 0.929 . S
C304 C303 1.383 . S
C304 C305 1.377 . S
C305 H289 0.930 . S
C305 C304 1.377 . S
C305 C306 1.379 . S
C306 H290 0.931 . S
C306 C300 1.383 . S
C306 C305 1.379 . S
H307 C301 0.959 . S
H308 C301 0.961 . S
H309 C301 0.960 . S
H310 C302 0.930 . S
H311 C303 0.929 . S
H312 C320 0.929 . S
H313 C322 0.930 . S
H314 C324 0.930 . S
H315 C327 0.929 . S
H316 C330 0.930 . S
H317 C332 0.960 . S
H318 C332 0.960 . S
H319 C332 0.960 . S
C320 H312 0.929 . S
C320 C321 1.377 . S
C320 C322 1.384 . S
C321 C320 1.377 . S
C321 C327 1.390 . S
C322 H313 0.930 . S
C322 C320 1.384 . S
C322 C323 1.372 . S
C323 C322 1.372 . S
C323 C324 1.400 . S
C323 C328 1.490 . S
C324 H314 0.930 . S
C324 C323 1.400 . S
C324 C327 1.386 . S
H325 C341 0.930 . S
H326 C342 0.931 . S
C327 H315 0.929 . S
C327 C321 1.390 . S
C327 C324 1.386 . S
C328 C323 1.490 . S
C328 C330 1.395 . S
C328 C331 1.403 . S
H329 C335 0.930 . S
C330 H316 0.930 . S
C330 C328 1.395 . S
C330 C333 1.403 . S
C331 C328 1.403 . S
C331 C332 1.524 . S
C331 C335 1.400 . S
C332 H317 0.960 . S
C332 H318 0.960 . S
C332 H319 0.960 . S
C332 C331 1.524 . S
C333 C330 1.403 . S
C333 C334 1.392 . S
C333 C337 1.495 . S
C334 C333 1.392 . S
C334 C335 1.385 . S
C334 C336 1.478 . S
C335 H329 0.930 . S
C335 C331 1.400 . S
C335 C334 1.385 . S
C336 C334 1.478 . S
C336 C338 1.381 . S
C336 C342 1.383 . S
C337 C333 1.495 . S
C337 H343 0.959 . S
C337 H344 0.961 . S
C337 H345 0.960 . S
C338 C336 1.381 . S
C338 C339 1.394 . S
C338 H346 0.930 . S
C339 C338 1.394 . S
C339 C340 1.383 . S
C339 H347 0.929 . S
C340 C339 1.383 . S
C340 C341 1.377 . S
C341 H325 0.930 . S
C341 C340 1.377 . S
C341 C342 1.379 . S
C342 H326 0.931 . S
C342 C336 1.383 . S
C342 C341 1.379 . S
H343 C337 0.959 . S
H344 C337 0.961 . S
H345 C337 0.960 . S
H346 C338 0.930 . S
H347 C339 0.929 . S
H348 C356 0.929 . S
H349 C358 0.930 . S
H350 C360 0.930 . S
H351 C363 0.929 . S
H352 C366 0.930 . S
H353 C368 0.960 . S
H354 C368 0.960 . S
H355 C368 0.960 . S
C356 H348 0.929 . S
C356 C357 1.377 . S
C356 C358 1.384 . S
C357 C356 1.377 . S
C357 C363 1.390 . S
C358 H349 0.930 . S
C358 C356 1.384 . S
C358 C359 1.372 . S
C359 C358 1.372 . S
C359 C360 1.400 . S
C359 C364 1.490 . S
C360 H350 0.930 . S
C360 C359 1.400 . S
C360 C363 1.386 . S
H361 C377 0.930 . S
H362 C378 0.931 . S
C363 H351 0.929 . S
C363 C357 1.390 . S
C363 C360 1.386 . S
C364 C359 1.490 . S
C364 C366 1.395 . S
C364 C367 1.403 . S
H365 C371 0.930 . S
C366 H352 0.930 . S
C366 C364 1.395 . S
C366 C369 1.403 . S
C367 C364 1.403 . S
C367 C368 1.524 . S
C367 C371 1.400 . S
C368 H353 0.960 . S
C368 H354 0.960 . S
C368 H355 0.960 . S
C368 C367 1.524 . S
C369 C366 1.403 . S
C369 C370 1.392 . S
C369 C373 1.495 . S
C370 C369 1.392 . S
C370 C371 1.385 . S
C370 C372 1.478 . S
C371 H365 0.930 . S
C371 C367 1.400 . S
C371 C370 1.385 . S
C372 C370 1.478 . S
C372 C374 1.381 . S
C372 C378 1.383 . S
C373 C369 1.495 . S
C373 H379 0.959 . S
C373 H380 0.961 . S
C373 H381 0.960 . S
C374 C372 1.381 . S
C374 C375 1.394 . S
C374 H382 0.930 . S
C375 C374 1.394 . S
C375 C376 1.383 . S
C375 H383 0.929 . S
C376 C375 1.383 . S
C376 C377 1.377 . S
C377 H361 0.930 . S
C377 C376 1.377 . S
C377 C378 1.379 . S
C378 H362 0.931 . S
C378 C372 1.383 . S
C378 C377 1.379 . S
H379 C373 0.959 . S
H380 C373 0.961 . S
H381 C373 0.960 . S
H382 C374 0.930 . S
H383 C375 0.929 . S
H384 C392 0.929 . S
H385 C394 0.930 . S
H386 C396 0.930 . S
H387 C399 0.929 . S
H388 C402 0.930 . S
H389 C404 0.960 . S
H390 C404 0.960 . S
H391 C404 0.960 . S
C392 H384 0.929 . S
C392 C393 1.377 . S
C392 C394 1.384 . S
C393 C392 1.377 . S
C393 C399 1.390 . S
C394 H385 0.930 . S
C394 C392 1.384 . S
C394 C395 1.372 . S
C395 C394 1.372 . S
C395 C396 1.400 . S
C395 C400 1.490 . S
C396 H386 0.930 . S
C396 C395 1.400 . S
C396 C399 1.386 . S
H397 C413 0.930 . S
H398 C414 0.931 . S
C399 H387 0.929 . S
C399 C393 1.390 . S
C399 C396 1.386 . S
C400 C395 1.490 . S
C400 C402 1.395 . S
C400 C403 1.403 . S
H401 C407 0.930 . S
C402 H388 0.930 . S
C402 C400 1.395 . S
C402 C405 1.403 . S
C403 C400 1.403 . S
C403 C404 1.524 . S
C403 C407 1.400 . S
C404 H389 0.960 . S
C404 H390 0.960 . S
C404 H391 0.960 . S
C404 C403 1.524 . S
C405 C402 1.403 . S
C405 C406 1.392 . S
C405 C409 1.495 . S
C406 C405 1.392 . S
C406 C407 1.385 . S
C406 C408 1.478 . S
C407 H401 0.930 . S
C407 C403 1.400 . S
C407 C406 1.385 . S
C408 C406 1.478 . S
C408 C410 1.381 . S
C408 C414 1.383 . S
C409 C405 1.495 . S
C409 H415 0.959 . S
C409 H416 0.961 . S
C409 H417 0.960 . S
C410 C408 1.381 . S
C410 C411 1.394 . S
C410 H418 0.930 . S
C411 C410 1.394 . S
C411 C412 1.383 . S
C411 H419 0.929 . S
C412 C411 1.383 . S
C412 C413 1.377 . S
C413 H397 0.930 . S
C413 C412 1.377 . S
C413 C414 1.379 . S
C414 H398 0.931 . S
C414 C408 1.383 . S
C414 C413 1.379 . S
H415 C409 0.959 . S
H416 C409 0.961 . S
H417 C409 0.960 . S
H418 C410 0.930 . S
H419 C411 0.929 . S
H420 C428 0.929 . S
H421 C430 0.930 . S
H422 C432 0.930 . S
H423 C435 0.939 . S
H424 C438 0.930 . S
H425 C440 0.960 . S
H426 C440 0.960 . S
H427 C440 0.960 . S
C428 H420 0.929 . S
C428 C429 1.377 . S
C428 C430 1.384 . S
C429 C428 1.377 . S
C429 C435 1.390 . S
C430 H421 0.930 . S
C430 C428 1.384 . S
C430 C431 1.372 . S
C431 C430 1.372 . S
C431 C432 1.400 . S
C431 C436 1.490 . S
C432 H422 0.930 . S
C432 C431 1.400 . S
C432 C435 1.386 . S
H433 C449 0.930 . S
H434 C450 0.931 . S
C435 H423 0.939 . S
C435 C429 1.390 . S
C435 C432 1.386 . S
C436 C431 1.490 . S
C436 C438 1.395 . S
C436 C439 1.403 . S
H437 C443 0.930 . S
C438 H424 0.930 . S
C438 C436 1.395 . S
C438 C441 1.403 . S
C439 C436 1.403 . S
C439 C440 1.524 . S
C439 C443 1.400 . S
C440 H425 0.960 . S
C440 H426 0.960 . S
C440 H427 0.960 . S
C440 C439 1.524 . S
C441 C438 1.403 . S
C441 C442 1.392 . S
C441 C445 1.495 . S
C442 C441 1.392 . S
C442 C443 1.385 . S
C442 C444 1.478 . S
C443 H437 0.930 . S
C443 C439 1.400 . S
C443 C442 1.385 . S
C444 C442 1.478 . S
C444 C446 1.381 . S
C444 C450 1.383 . S
C445 C441 1.495 . S
C445 H451 0.959 . S
C445 H452 0.961 . S
C445 H453 0.960 . S
C446 C444 1.381 . S
C446 C447 1.394 . S
C446 H454 0.930 . S
C447 C446 1.394 . S
C447 C448 1.383 . S
C447 H455 0.929 . S
C448 C447 1.383 . S
C448 C449 1.377 . S
C449 H433 0.930 . S
C449 C448 1.377 . S
C449 C450 1.379 . S
C450 H434 0.931 . S
C450 C444 1.383 . S
C450 C449 1.379 . S
H451 C445 0.959 . S
H452 C445 0.961 . S
H453 C445 0.960 . S
H454 C446 0.930 . S
H455 C447 0.929 . S
H456 C464 0.929 . S
H457 C466 0.930 . S
H458 C468 0.930 . S
H459 C471 0.929 . S
H460 C474 0.930 . S
H461 C476 0.960 . S
H462 C476 0.960 . S
H463 C476 0.960 . S
C464 H456 0.929 . S
C464 C465 1.377 . S
C464 C466 1.384 . S
C465 C464 1.377 . S
C465 C471 1.390 . S
C466 H457 0.930 . S
C466 C464 1.384 . S
C466 C467 1.372 . S
C467 C466 1.372 . S
C467 C468 1.400 . S
C467 C472 1.490 . S
C468 H458 0.930 . S
C468 C467 1.400 . S
C468 C471 1.386 . S
H469 C485 0.930 . S
H470 C486 0.931 . S
C471 H459 0.929 . S
C471 C465 1.390 . S
C471 C468 1.386 . S
C472 C467 1.490 . S
C472 C474 1.395 . S
C472 C475 1.403 . S
H473 C479 0.930 . S
C474 H460 0.930 . S
C474 C472 1.395 . S
C474 C477 1.403 . S
C475 C472 1.403 . S
C475 C476 1.524 . S
C475 C479 1.400 . S
C476 H461 0.960 . S
C476 H462 0.960 . S
C476 H463 0.960 . S
C476 C475 1.524 . S
C477 C474 1.403 . S
C477 C478 1.392 . S
C477 C481 1.495 . S
C478 C477 1.392 . S
C478 C479 1.385 . S
C478 C480 1.478 . S
C479 H473 0.930 . S
C479 C475 1.400 . S
C479 C478 1.385 . S
C480 C478 1.478 . S
C480 C482 1.381 . S
C480 C486 1.383 . S
C481 C477 1.495 . S
C481 H487 0.959 . S
C481 H488 0.961 . S
C481 H489 0.960 . S
C482 C480 1.381 . S
C482 C483 1.394 . S
C482 H490 0.930 . S
C483 C482 1.394 . S
C483 C484 1.383 . S
C483 H491 0.929 . S
C484 C483 1.383 . S
C484 C485 1.377 . S
C485 H469 0.930 . S
C485 C484 1.377 . S
C485 C486 1.379 . S
C486 H470 0.931 . S
C486 C480 1.383 . S
C486 C485 1.379 . S
H487 C481 0.959 . S
H488 C481 0.961 . S
H489 C481 0.960 . S
H490 C482 0.930 . S
H491 C483 0.929 . S
H492 C500 0.929 . S
H493 C502 0.930 . S
H494 C504 0.930 . S
H495 C507 0.929 . S
H496 C510 0.930 . S
H497 C512 0.960 . S
H498 C512 0.960 . S
H499 C512 0.960 . S
C500 H492 0.929 . S
C500 C501 1.377 . S
C500 C502 1.384 . S
C501 C500 1.377 . S
C501 C507 1.390 . S
C502 H493 0.930 . S
C502 C500 1.384 . S
C502 C503 1.372 . S
C503 C502 1.372 . S
C503 C504 1.400 . S
C503 C508 1.490 . S
C504 H494 0.930 . S
C504 C503 1.400 . S
C504 C507 1.386 . S
H505 C521 0.930 . S
H506 C522 0.931 . S
C507 H495 0.929 . S
C507 C501 1.390 . S
C507 C504 1.386 . S
C508 C503 1.490 . S
C508 C510 1.395 . S
C508 C511 1.403 . S
H509 C515 0.930 . S
C510 H496 0.930 . S
C510 C508 1.395 . S
C510 C513 1.403 . S
C511 C508 1.403 . S
C511 C512 1.524 . S
C511 C515 1.400 . S
C512 H497 0.960 . S
C512 H498 0.960 . S
C512 H499 0.960 . S
C512 C511 1.524 . S
C513 C510 1.403 . S
C513 C514 1.392 . S
C513 C517 1.495 . S
C514 C513 1.392 . S
C514 C515 1.385 . S
C514 C516 1.478 . S
C515 H509 0.930 . S
C515 C511 1.400 . S
C515 C514 1.385 . S
C516 C514 1.478 . S
C516 C518 1.381 . S
C516 C522 1.383 . S
C517 C513 1.495 . S
C517 H523 0.959 . S
C517 H524 0.961 . S
C517 H525 0.960 . S
C518 C516 1.381 . S
C518 C519 1.394 . S
C518 H526 0.930 . S
C519 C518 1.394 . S
C519 C520 1.383 . S
C519 H527 0.929 . S
C520 C519 1.383 . S
C520 C521 1.377 . S
C521 H505 0.930 . S
C521 C520 1.377 . S
C521 C522 1.379 . S
C522 H506 0.931 . S
C522 C516 1.383 . S
C522 C521 1.379 . S
H523 C517 0.959 . S
H524 C517 0.961 . S
H525 C517 0.960 . S
H526 C518 0.930 . S
H527 C519 0.929 . S
H528 C536 0.929 . S
H529 C538 0.930 . S
H530 C540 0.930 . S
H531 C543 0.929 . S
H532 C546 0.930 . S
H533 C548 0.960 . S
H534 C548 0.960 . S
H535 C548 0.960 . S
C536 H528 0.929 . S
C536 C537 1.377 . S
C536 C538 1.384 . S
C537 C536 1.377 . S
C537 C543 1.390 . S
C538 H529 0.930 . S
C538 C536 1.384 . S
C538 C539 1.372 . S
C539 C538 1.372 . S
C539 C540 1.400 . S
C539 C544 1.490 . S
C540 H530 0.930 . S
C540 C539 1.400 . S
C540 C543 1.386 . S
H541 C557 0.930 . S
H542 C558 0.931 . S
C543 H531 0.929 . S
C543 C537 1.390 . S
C543 C540 1.386 . S
C544 C539 1.490 . S
C544 C546 1.395 . S
C544 C547 1.403 . S
H545 C551 0.930 . S
C546 H532 0.930 . S
C546 C544 1.395 . S
C546 C549 1.403 . S
C547 C544 1.403 . S
C547 C548 1.524 . S
C547 C551 1.400 . S
C548 H533 0.960 . S
C548 H534 0.960 . S
C548 H535 0.960 . S
C548 C547 1.524 . S
C549 C546 1.403 . S
C549 C550 1.392 . S
C549 C553 1.495 . S
C550 C549 1.392 . S
C550 C551 1.385 . S
C550 C552 1.478 . S
C551 H545 0.930 . S
C551 C547 1.400 . S
C551 C550 1.385 . S
C552 C550 1.478 . S
C552 C554 1.381 . S
C552 C558 1.383 . S
C553 C549 1.495 . S
C553 H559 0.959 . S
C553 H560 0.961 . S
C553 H561 0.960 . S
C554 C552 1.381 . S
C554 C555 1.394 . S
C554 H562 0.930 . S
C555 C554 1.394 . S
C555 C556 1.383 . S
C555 H563 0.929 . S
C556 C555 1.383 . S
C556 C557 1.377 . S
C557 H541 0.930 . S
C557 C556 1.377 . S
C557 C558 1.379 . S
C558 H542 0.931 . S
C558 C552 1.383 . S
C558 C557 1.379 . S
H559 C553 0.959 . S
H560 C553 0.961 . S
H561 C553 0.960 . S
H562 C554 0.930 . S
H563 C555 0.929 . S
H564 C572 0.929 . S
H565 C574 0.930 . S
H566 C576 0.930 . S
H567 C579 0.929 . S
H568 C582 0.930 . S
H569 C584 0.960 . S
H570 C584 0.960 . S
H571 C584 0.960 . S
C572 H564 0.929 . S
C572 C573 1.377 . S
C572 C574 1.384 . S
C573 C572 1.377 . S
C573 C579 1.390 . S
C574 H565 0.930 . S
C574 C572 1.384 . S
C574 C575 1.372 . S
C575 C574 1.372 . S
C575 C576 1.400 . S
C575 C580 1.490 . S
C576 H566 0.930 . S
C576 C575 1.400 . S
C576 C579 1.386 . S
H577 C593 0.930 . S
H578 C594 0.931 . S
C579 H567 0.929 . S
C579 C573 1.390 . S
C579 C576 1.386 . S
C580 C575 1.490 . S
C580 C582 1.395 . S
C580 C583 1.403 . S
H581 C587 0.930 . S
C582 H568 0.930 . S
C582 C580 1.395 . S
C582 C585 1.403 . S
C583 C580 1.403 . S
C583 C584 1.524 . S
C583 C587 1.400 . S
C584 H569 0.960 . S
C584 H570 0.960 . S
C584 H571 0.960 . S
C584 C583 1.524 . S
C585 C582 1.403 . S
C585 C586 1.392 . S
C585 C589 1.495 . S
C586 C585 1.392 . S
C586 C587 1.385 . S
C586 C588 1.478 . S
C587 H581 0.930 . S
C587 C583 1.400 . S
C587 C586 1.385 . S
C588 C586 1.478 . S
C588 C590 1.381 . S
C588 C594 1.383 . S
C589 C585 1.495 . S
C589 H595 0.959 . S
C589 H596 0.961 . S
C589 H597 0.960 . S
C590 C588 1.381 . S
C590 C591 1.394 . S
C590 H598 0.930 . S
C591 C590 1.394 . S
C591 C592 1.383 . S
C591 H599 0.929 . S
C592 C591 1.383 . S
C592 C593 1.377 . S
C593 H577 0.930 . S
C593 C592 1.377 . S
C593 C594 1.379 . S
C594 H578 0.931 . S
C594 C588 1.383 . S
C594 C593 1.379 . S
H595 C589 0.959 . S
H596 C589 0.961 . S
H597 C589 0.960 . S
H598 C590 0.930 . S
H599 C591 0.929 . S
H600 C608 0.929 . S
H601 C610 0.930 . S
H602 C612 0.930 . S
H603 C615 0.929 . S
H604 C618 0.930 . S
H605 C620 0.960 . S
H606 C620 0.960 . S
H607 C620 0.960 . S
C608 H600 0.929 . S
C608 C609 1.377 . S
C608 C610 1.384 . S
C609 C608 1.377 . S
C609 C615 1.390 . S
C610 H601 0.930 . S
C610 C608 1.384 . S
C610 C611 1.372 . S
C611 C610 1.372 . S
C611 C612 1.400 . S
C611 C616 1.490 . S
C612 H602 0.930 . S
C612 C611 1.400 . S
C612 C615 1.386 . S
H613 C629 0.930 . S
H614 C630 0.931 . S
C615 H603 0.929 . S
C615 C609 1.390 . S
C615 C612 1.386 . S
C616 C611 1.490 . S
C616 C618 1.395 . S
C616 C619 1.403 . S
H617 C623 0.930 . S
C618 H604 0.930 . S
C618 C616 1.395 . S
C618 C621 1.403 . S
C619 C616 1.403 . S
C619 C620 1.524 . S
C619 C623 1.400 . S
C620 H605 0.960 . S
C620 H606 0.960 . S
C620 H607 0.960 . S
C620 C619 1.524 . S
C621 C618 1.403 . S
C621 C622 1.392 . S
C621 C625 1.495 . S
C622 C621 1.392 . S
C622 C623 1.385 . S
C622 C624 1.478 . S
C623 H617 0.930 . S
C623 C619 1.400 . S
C623 C622 1.385 . S
C624 C622 1.478 . S
C624 C626 1.381 . S
C624 C630 1.383 . S
C625 C621 1.495 . S
C625 H631 0.959 . S
C625 H632 0.961 . S
C625 H633 0.960 . S
C626 C624 1.381 . S
C626 C627 1.394 . S
C626 H634 0.930 . S
C627 C626 1.394 . S
C627 C628 1.383 . S
C627 H635 0.929 . S
C628 C627 1.383 . S
C628 C629 1.377 . S
C629 H613 0.930 . S
C629 C628 1.377 . S
C629 C630 1.379 . S
C630 H614 0.931 . S
C630 C624 1.383 . S
C630 C629 1.379 . S
H631 C625 0.959 . S
H632 C625 0.961 . S
H633 C625 0.960 . S
H634 C626 0.930 . S
H635 C627 0.929 . S
H636 C644 0.929 . S
H637 C646 0.930 . S
H638 C648 0.930 . S
H639 C651 0.929 . S
H640 C654 0.930 . S
H641 C656 0.960 . S
H642 C656 0.960 . S
H643 C656 0.960 . S
C644 H636 0.929 . S
C644 C645 1.377 . S
C644 C646 1.384 . S
C645 C644 1.377 . S
C645 C651 1.390 . S
C646 H637 0.930 . S
C646 C644 1.384 . S
C646 C647 1.372 . S
C647 C646 1.372 . S
C647 C648 1.400 . S
C647 C652 1.490 . S
C648 H638 0.930 . S
C648 C647 1.400 . S
C648 C651 1.386 . S
H649 C665 0.930 . S
H650 C666 0.931 . S
C651 H639 0.929 . S
C651 C645 1.390 . S
C651 C648 1.386 . S
C652 C647 1.490 . S
C652 C654 1.395 . S
C652 C655 1.403 . S
H653 C659 0.930 . S
C654 H640 0.930 . S
C654 C652 1.395 . S
C654 C657 1.403 . S
C655 C652 1.403 . S
C655 C656 1.524 . S
C655 C659 1.400 . S
C656 H641 0.960 . S
C656 H642 0.960 . S
C656 H643 0.960 . S
C656 C655 1.524 . S
C657 C654 1.403 . S
C657 C658 1.392 . S
C657 C661 1.495 . S
C658 C657 1.392 . S
C658 C659 1.385 . S
C658 C660 1.478 . S
C659 H653 0.930 . S
C659 C655 1.400 . S
C659 C658 1.385 . S
C660 C658 1.478 . S
C660 C662 1.381 . S
C660 C666 1.383 . S
C661 C657 1.495 . S
C661 H667 0.959 . S
C661 H668 0.961 . S
C661 H669 0.960 . S
C662 C660 1.381 . S
C662 C663 1.394 . S
C662 H670 0.930 . S
C663 C662 1.394 . S
C663 C664 1.383 . S
C663 H671 0.929 . S
C664 C663 1.383 . S
C664 C665 1.377 . S
C665 H649 0.930 . S
C665 C664 1.377 . S
C665 C666 1.379 . S
C666 H650 0.931 . S
C666 C660 1.383 . S
C666 C665 1.379 . S
H667 C661 0.959 . S
H668 C661 0.961 . S
H669 C661 0.960 . S
H670 C662 0.930 . S
H671 C663 0.929 . S
H672 C680 0.929 . S
H673 C682 0.930 . S
H674 C684 0.930 . S
H675 C687 0.929 . S
H676 C690 0.930 . S
H677 C692 0.960 . S
H678 C692 0.960 . S
H679 C692 0.960 . S
C680 H672 0.929 . S
C680 C681 1.377 . S
C680 C682 1.384 . S
C681 C680 1.377 . S
C681 C687 1.390 . S
C682 H673 0.930 . S
C682 C680 1.384 . S
C682 C683 1.372 . S
C683 C682 1.372 . S
C683 C684 1.400 . S
C683 C688 1.490 . S
C684 H674 0.930 . S
C684 C683 1.400 . S
C684 C687 1.386 . S
H685 C701 0.930 . S
H686 C702 0.931 . S
C687 H675 0.929 . S
C687 C681 1.390 . S
C687 C684 1.386 . S
C688 C683 1.490 . S
C688 C690 1.395 . S
C688 C691 1.403 . S
H689 C695 0.930 . S
C690 H676 0.930 . S
C690 C688 1.395 . S
C690 C693 1.403 . S
C691 C688 1.403 . S
C691 C692 1.524 . S
C691 C695 1.400 . S
C692 H677 0.960 . S
C692 H678 0.960 . S
C692 H679 0.960 . S
C692 C691 1.524 . S
C693 C690 1.403 . S
C693 C694 1.392 . S
C693 C697 1.495 . S
C694 C693 1.392 . S
C694 C695 1.385 . S
C694 C696 1.478 . S
C695 H689 0.930 . S
C695 C691 1.400 . S
C695 C694 1.385 . S
C696 C694 1.478 . S
C696 C698 1.381 . S
C696 C702 1.383 . S
C697 C693 1.495 . S
C697 H703 0.959 . S
C697 H704 0.961 . S
C697 H705 0.960 . S
C698 C696 1.381 . S
C698 C699 1.394 . S
C698 H706 0.930 . S
C699 C698 1.394 . S
C699 C700 1.383 . S
C699 H707 0.929 . S
C700 C699 1.383 . S
C700 C701 1.377 . S
C701 H685 0.930 . S
C701 C700 1.377 . S
C701 C702 1.379 . S
C702 H686 0.931 . S
C702 C696 1.383 . S
C702 C701 1.379 . S
H703 C697 0.959 . S
H704 C697 0.961 . S
H705 C697 0.960 . S
H706 C698 0.930 . S
H707 C699 0.929 . S
H708 C716 0.929 . S
H709 C718 0.930 . S
H710 C720 0.930 . S
H711 C723 0.929 . S
H712 C726 0.930 . S
H713 C728 0.960 . S
H714 C728 0.960 . S
H715 C728 0.960 . S
C716 H708 0.929 . S
C716 C717 1.377 . S
C716 C718 1.384 . S
C717 C716 1.377 . S
C717 C723 1.390 . S
C718 H709 0.930 . S
C718 C716 1.384 . S
C718 C719 1.372 . S
C719 C718 1.372 . S
C719 C720 1.400 . S
C719 C724 1.490 . S
C720 H710 0.930 . S
C720 C719 1.400 . S
C720 C723 1.386 . S
H721 C737 0.930 . S
H722 C738 0.931 . S
C723 H711 0.929 . S
C723 C717 1.390 . S
C723 C720 1.386 . S
C724 C719 1.490 . S
C724 C726 1.395 . S
C724 C727 1.403 . S
H725 C731 0.930 . S
C726 H712 0.930 . S
C726 C724 1.395 . S
C726 C729 1.403 . S
C727 C724 1.403 . S
C727 C728 1.524 . S
C727 C731 1.400 . S
C728 H713 0.960 . S
C728 H714 0.960 . S
C728 H715 0.960 . S
C728 C727 1.524 . S
C729 C726 1.403 . S
C729 C730 1.392 . S
C729 C733 1.495 . S
C730 C729 1.392 . S
C730 C731 1.385 . S
C730 C732 1.478 . S
C731 H725 0.930 . S
C731 C727 1.400 . S
C731 C730 1.385 . S
C732 C730 1.478 . S
C732 C734 1.381 . S
C732 C738 1.383 . S
C733 C729 1.495 . S
C733 H739 0.959 . S
C733 H740 0.961 . S
C733 H741 0.960 . S
C734 C732 1.381 . S
C734 C735 1.394 . S
C734 H742 0.930 . S
C735 C734 1.394 . S
C735 C736 1.383 . S
C735 H743 0.929 . S
C736 C735 1.383 . S
C736 C737 1.377 . S
C737 H721 0.930 . S
C737 C736 1.377 . S
C737 C738 1.379 . S
C738 H722 0.931 . S
C738 C732 1.383 . S
C738 C737 1.379 . S
H739 C733 0.959 . S
H740 C733 0.961 . S
H741 C733 0.960 . S
H742 C734 0.930 . S
H743 C735 0.929 . S
H744 C752 0.929 . S
H745 C754 0.930 . S
H746 C756 0.930 . S
H747 C759 0.929 . S
H748 C762 0.930 . S
H749 C764 0.960 . S
H750 C764 0.960 . S
H751 C764 0.960 . S
C752 H744 0.929 . S
C752 C753 1.377 . S
C752 C754 1.384 . S
C753 C752 1.377 . S
C753 C759 1.390 . S
C754 H745 0.930 . S
C754 C752 1.384 . S
C754 C755 1.372 . S
C755 C754 1.372 . S
C755 C756 1.400 . S
C755 C760 1.490 . S
C756 H746 0.930 . S
C756 C755 1.400 . S
C756 C759 1.386 . S
H757 C773 0.930 . S
H758 C774 0.931 . S
C759 H747 0.929 . S
C759 C753 1.390 . S
C759 C756 1.386 . S
C760 C755 1.490 . S
C760 C762 1.395 . S
C760 C763 1.403 . S
H761 C767 0.930 . S
C762 H748 0.930 . S
C762 C760 1.395 . S
C762 C765 1.403 . S
C763 C760 1.403 . S
C763 C764 1.524 . S
C763 C767 1.400 . S
C764 H749 0.960 . S
C764 H750 0.960 . S
C764 H751 0.960 . S
C764 C763 1.524 . S
C765 C762 1.403 . S
C765 C766 1.392 . S
C765 C769 1.495 . S
C766 C765 1.392 . S
C766 C767 1.385 . S
C766 C768 1.478 . S
C767 H761 0.930 . S
C767 C763 1.400 . S
C767 C766 1.385 . S
C768 C766 1.478 . S
C768 C770 1.381 . S
C768 C774 1.383 . S
C769 C765 1.495 . S
C769 H775 0.959 . S
C769 H776 0.961 . S
C769 H777 0.960 . S
C770 C768 1.381 . S
C770 C771 1.394 . S
C770 H778 0.930 . S
C771 C770 1.394 . S
C771 C772 1.383 . S
C771 H779 0.929 . S
C772 C771 1.383 . S
C772 C773 1.377 . S
C773 H757 0.930 . S
C773 C772 1.377 . S
C773 C774 1.379 . S
C774 H758 0.931 . S
C774 C768 1.383 . S
C774 C773 1.379 . S
H775 C769 0.959 . S
H776 C769 0.961 . S
H777 C769 0.960 . S
H778 C770 0.930 . S
H779 C771 0.929 . S
H780 C788 0.929 . S
H781 C790 0.930 . S
H782 C792 0.930 . S
H783 C795 0.929 . S
H784 C798 0.930 . S
H785 C800 0.960 . S
H786 C800 0.960 . S
H787 C800 0.960 . S
C788 H780 0.929 . S
C788 C789 1.377 . S
C788 C790 1.384 . S
C789 C788 1.377 . S
C789 C795 1.390 . S
C790 H781 0.930 . S
C790 C788 1.384 . S
C790 C791 1.372 . S
C791 C790 1.372 . S
C791 C792 1.400 . S
C791 C796 1.490 . S
C792 H782 0.930 . S
C792 C791 1.400 . S
C792 C795 1.386 . S
H793 C809 0.930 . S
H794 C810 0.931 . S
C795 H783 0.929 . S
C795 C789 1.390 . S
C795 C792 1.386 . S
C796 C791 1.490 . S
C796 C798 1.395 . S
C796 C799 1.403 . S
H797 C803 0.930 . S
C798 H784 0.930 . S
C798 C796 1.395 . S
C798 C801 1.403 . S
C799 C796 1.403 . S
C799 C800 1.524 . S
C799 C803 1.400 . S
C800 H785 0.960 . S
C800 H786 0.960 . S
C800 H787 0.960 . S
C800 C799 1.524 . S
C801 C798 1.403 . S
C801 C802 1.392 . S
C801 C805 1.495 . S
C802 C801 1.392 . S
C802 C803 1.385 . S
C802 C804 1.478 . S
C803 H797 0.930 . S
C803 C799 1.400 . S
C803 C802 1.385 . S
C804 C802 1.478 . S
C804 C806 1.381 . S
C804 C810 1.383 . S
C805 C801 1.495 . S
C805 H811 0.959 . S
C805 H812 0.961 . S
C805 H813 0.960 . S
C806 C804 1.381 . S
C806 C807 1.394 . S
C806 H814 0.930 . S
C807 C806 1.394 . S
C807 C808 1.383 . S
C807 H815 0.929 . S
C808 C807 1.383 . S
C808 C809 1.377 . S
C809 H793 0.930 . S
C809 C808 1.377 . S
C809 C810 1.379 . S
C810 H794 0.931 . S
C810 C804 1.383 . S
C810 C809 1.379 . S
H811 C805 0.959 . S
H812 C805 0.961 . S
H813 C805 0.960 . S
H814 C806 0.930 . S
H815 C807 0.929 . S
H816 C824 0.929 . S
H817 C826 0.930 . S
H818 C828 0.930 . S
H819 C831 0.929 . S
H820 C834 0.930 . S
H821 C836 0.960 . S
H822 C836 0.960 . S
H823 C836 0.960 . S
C824 H816 0.929 . S
C824 C825 1.377 . S
C824 C826 1.384 . S
C825 C824 1.377 . S
C825 C831 1.390 . S
C826 H817 0.930 . S
C826 C824 1.384 . S
C826 C827 1.372 . S
C827 C826 1.372 . S
C827 C828 1.400 . S
C827 C832 1.490 . S
C828 H818 0.930 . S
C828 C827 1.400 . S
C828 C831 1.386 . S
H829 C845 0.930 . S
H830 C846 0.931 . S
C831 H819 0.929 . S
C831 C825 1.390 . S
C831 C828 1.386 . S
C832 C827 1.490 . S
C832 C834 1.395 . S
C832 C835 1.403 . S
H833 C839 0.930 . S
C834 H820 0.930 . S
C834 C832 1.395 . S
C834 C837 1.403 . S
C835 C832 1.403 . S
C835 C836 1.524 . S
C835 C839 1.400 . S
C836 H821 0.960 . S
C836 H822 0.960 . S
C836 H823 0.960 . S
C836 C835 1.524 . S
C837 C834 1.403 . S
C837 C838 1.392 . S
C837 C841 1.495 . S
C838 C837 1.392 . S
C838 C839 1.385 . S
C838 C840 1.478 . S
C839 H833 0.930 . S
C839 C835 1.400 . S
C839 C838 1.385 . S
C840 C838 1.478 . S
C840 C842 1.381 . S
C840 C846 1.383 . S
C841 C837 1.495 . S
C841 H847 0.959 . S
C841 H848 0.961 . S
C841 H849 0.960 . S
C842 C840 1.381 . S
C842 C843 1.394 . S
C842 H850 0.930 . S
C843 C842 1.394 . S
C843 C844 1.383 . S
C843 H851 0.929 . S
C844 C843 1.383 . S
C844 C845 1.377 . S
C845 H829 0.930 . S
C845 C844 1.377 . S
C845 C846 1.379 . S
C846 H830 0.931 . S
C846 C840 1.383 . S
C846 C845 1.379 . S
H847 C841 0.959 . S
H848 C841 0.961 . S
H849 C841 0.960 . S
H850 C842 0.930 . S
H851 C843 0.929 . S
H852 C860 0.929 . S
H853 C862 0.930 . S
H854 C864 0.930 . S
H855 C867 0.929 . S
H856 C870 0.930 . S
H857 C872 0.960 . S
H858 C872 0.960 . S
H859 C872 0.960 . S
C860 H852 0.929 . S
C860 C861 1.377 . S
C860 C862 1.384 . S
C861 C860 1.377 . S
C861 C867 1.390 . S
C862 H853 0.930 . S
C862 C860 1.384 . S
C862 C863 1.372 . S
C863 C862 1.372 . S
C863 C864 1.400 . S
C863 C868 1.490 . S
C864 H854 0.930 . S
C864 C863 1.400 . S
C864 C867 1.386 . S
H865 C881 0.930 . S
H866 C882 0.931 . S
C867 H855 0.929 . S
C867 C861 1.390 . S
C867 C864 1.386 . S
C868 C863 1.490 . S
C868 C870 1.395 . S
C868 C871 1.403 . S
H869 C875 0.930 . S
C870 H856 0.930 . S
C870 C868 1.395 . S
C870 C873 1.403 . S
C871 C868 1.403 . S
C871 C872 1.524 . S
C871 C875 1.400 . S
C872 H857 0.960 . S
C872 H858 0.960 . S
C872 H859 0.960 . S
C872 C871 1.524 . S
C873 C870 1.403 . S
C873 C874 1.392 . S
C873 C877 1.495 . S
C874 C873 1.392 . S
C874 C875 1.385 . S
C874 C876 1.478 . S
C875 H869 0.930 . S
C875 C871 1.400 . S
C875 C874 1.385 . S
C876 C874 1.478 . S
C876 C878 1.381 . S
C876 C882 1.383 . S
C877 C873 1.495 . S
C877 H883 0.959 . S
C877 H884 0.961 . S
C877 H885 0.960 . S
C878 C876 1.381 . S
C878 C879 1.394 . S
C878 H886 0.930 . S
C879 C878 1.394 . S
C879 C880 1.383 . S
C879 H887 0.929 . S
C880 C879 1.383 . S
C880 C881 1.377 . S
C881 H865 0.930 . S
C881 C880 1.377 . S
C881 C882 1.379 . S
C882 H866 0.931 . S
C882 C876 1.383 . S
C882 C881 1.379 . S
H883 C877 0.959 . S
H884 C877 0.961 . S
H885 C877 0.960 . S
H886 C878 0.930 . S
H887 C879 0.929 . S
H888 C896 0.929 . S
H889 C898 0.930 . S
H890 C900 0.930 . S
H891 C903 0.929 . S
H892 C906 0.930 . S
H893 C908 0.960 . S
H894 C908 0.960 . S
H895 C908 0.960 . S
C896 H888 0.929 . S
C896 C897 1.377 . S
C896 C898 1.384 . S
C897 C896 1.377 . S
C897 C903 1.390 . S
C898 H889 0.930 . S
C898 C896 1.384 . S
C898 C899 1.372 . S
C899 C898 1.372 . S
C899 C900 1.400 . S
C899 C904 1.490 . S
C900 H890 0.930 . S
C900 C899 1.400 . S
C900 C903 1.386 . S
H901 C917 0.930 . S
H902 C918 0.931 . S
C903 H891 0.929 . S
C903 C897 1.390 . S
C903 C900 1.386 . S
C904 C899 1.490 . S
C904 C906 1.395 . S
C904 C907 1.403 . S
H905 C911 0.930 . S
C906 H892 0.930 . S
C906 C904 1.395 . S
C906 C909 1.403 . S
C907 C904 1.403 . S
C907 C908 1.524 . S
C907 C911 1.400 . S
C908 H893 0.960 . S
C908 H894 0.960 . S
C908 H895 0.960 . S
C908 C907 1.524 . S
C909 C906 1.403 . S
C909 C910 1.392 . S
C909 C913 1.495 . S
C910 C909 1.392 . S
C910 C911 1.385 . S
C910 C912 1.478 . S
C911 H905 0.930 . S
C911 C907 1.400 . S
C911 C910 1.385 . S
C912 C910 1.478 . S
C912 C914 1.381 . S
C912 C918 1.383 . S
C913 C909 1.495 . S
C913 H919 0.959 . S
C913 H920 0.961 . S
C913 H921 0.960 . S
C914 C912 1.381 . S
C914 C915 1.394 . S
C914 H922 0.930 . S
C915 C914 1.394 . S
C915 C916 1.383 . S
C915 H923 0.929 . S
C916 C915 1.383 . S
C916 C917 1.377 . S
C917 H901 0.930 . S
C917 C916 1.377 . S
C917 C918 1.379 . S
C918 H902 0.931 . S
C918 C912 1.383 . S
C918 C917 1.379 . S
H919 C913 0.959 . S
H920 C913 0.961 . S
H921 C913 0.960 . S
H922 C914 0.930 . S
H923 C915 0.929 . S
H924 C932 0.929 . S
H925 C934 0.930 . S
H926 C936 0.930 . S
H927 C939 0.929 . S
H928 C942 0.930 . S
H929 C944 0.960 . S
H930 C944 0.960 . S
H931 C944 0.960 . S
C932 H924 0.929 . S
C932 C933 1.377 . S
C932 C934 1.384 . S
C933 C932 1.377 . S
C933 C939 1.390 . S
C934 H925 0.930 . S
C934 C932 1.384 . S
C934 C935 1.372 . S
C935 C934 1.372 . S
C935 C936 1.400 . S
C935 C940 1.490 . S
C936 H926 0.930 . S
C936 C935 1.400 . S
C936 C939 1.386 . S
H937 C953 0.930 . S
H938 C954 0.931 . S
C939 H927 0.929 . S
C939 C933 1.390 . S
C939 C936 1.386 . S
C940 C935 1.490 . S
C940 C942 1.395 . S
C940 C943 1.403 . S
H941 C947 0.930 . S
C942 H928 0.930 . S
C942 C940 1.395 . S
C942 C945 1.403 . S
C943 C940 1.403 . S
C943 C944 1.524 . S
C943 C947 1.400 . S
C944 H929 0.960 . S
C944 H930 0.960 . S
C944 H931 0.960 . S
C944 C943 1.524 . S
C945 C942 1.403 . S
C945 C946 1.392 . S
C945 C949 1.495 . S
C946 C945 1.392 . S
C946 C947 1.385 . S
C946 C948 1.478 . S
C947 H941 0.930 . S
C947 C943 1.400 . S
C947 C946 1.385 . S
C948 C946 1.478 . S
C948 C950 1.381 . S
C948 C954 1.383 . S
C949 C945 1.495 . S
C949 H955 0.959 . S
C949 H956 0.961 . S
C949 H957 0.960 . S
C950 C948 1.381 . S
C950 C951 1.394 . S
C950 H958 0.930 . S
C951 C950 1.394 . S
C951 C952 1.383 . S
C951 H959 0.929 . S
C952 C951 1.383 . S
C952 C953 1.377 . S
C953 H937 0.930 . S
C953 C952 1.377 . S
C953 C954 1.379 . S
C954 H938 0.931 . S
C954 C948 1.383 . S
C954 C953 1.379 . S
H955 C949 0.959 . S
H956 C949 0.961 . S
H957 C949 0.960 . S
H958 C950 0.930 . S
H959 C951 0.929 . S
H960 C968 0.929 . S
H961 C970 0.930 . S
H962 C972 0.930 . S
H963 C975 0.929 . S
H964 C978 0.930 . S
H965 C980 0.960 . S
H966 C980 0.960 . S
H967 C980 0.960 . S
C968 H960 0.929 . S
C968 C969 1.377 . S
C968 C970 1.384 . S
C969 C968 1.377 . S
C969 C975 1.390 . S
C970 H961 0.930 . S
C970 C968 1.384 . S
C970 C971 1.372 . S
C971 C970 1.372 . S
C971 C972 1.400 . S
C971 C976 1.490 . S
C972 H962 0.930 . S
C972 C971 1.400 . S
C972 C975 1.386 . S
H973 C989 0.930 . S
H974 C990 0.931 . S
C975 H963 0.929 . S
C975 C969 1.390 . S
C975 C972 1.386 . S
C976 C971 1.490 . S
C976 C978 1.395 . S
C976 C979 1.403 . S
H977 C983 0.930 . S
C978 H964 0.930 . S
C978 C976 1.395 . S
C978 C981 1.403 . S
C979 C976 1.403 . S
C979 C980 1.524 . S
C979 C983 1.400 . S
C980 H965 0.960 . S
C980 H966 0.960 . S
C980 H967 0.960 . S
C980 C979 1.524 . S
C981 C978 1.403 . S
C981 C982 1.392 . S
C981 C985 1.495 . S
C982 C981 1.392 . S
C982 C983 1.385 . S
C982 C984 1.478 . S
C983 H977 0.930 . S
C983 C979 1.400 . S
C983 C982 1.385 . S
C984 C982 1.478 . S
C984 C986 1.381 . S
C984 C990 1.383 . S
C985 C981 1.495 . S
C985 H991 0.959 . S
C985 H992 0.961 . S
C985 H993 0.960 . S
C986 C984 1.381 . S
C986 C987 1.394 . S
C986 H994 0.930 . S
C987 C986 1.394 . S
C987 C988 1.383 . S
C987 H995 0.929 . S
C988 C987 1.383 . S
C988 C989 1.377 . S
C989 H973 0.930 . S
C989 C988 1.377 . S
C989 C990 1.379 . S
C990 H974 0.931 . S
C990 C984 1.383 . S
C990 C989 1.379 . S
H991 C985 0.959 . S
H992 C985 0.961 . S
H993 C985 0.960 . S
H994 C986 0.930 . S
H995 C987 0.929 . S
H996 C1004 0.929 . S
H997 C1006 0.930 . S
H998 C1008 0.930 . S
H999 C1011 0.929 . S
H1000 C1014 0.930 . S
H1001 C1016 0.960 . S
H1002 C1016 0.960 . S
H1003 C1016 0.960 . S
C1004 H996 0.929 . S
C1004 C1005 1.377 . S
C1004 C1006 1.384 . S
C1005 C1004 1.377 . S
C1005 C1011 1.390 . S
C1006 H997 0.930 . S
C1006 C1004 1.384 . S
C1006 C1007 1.372 . S
C1007 C1006 1.372 . S
C1007 C1008 1.400 . S
C1007 C1012 1.490 . S
C1008 H998 0.930 . S
C1008 C1007 1.400 . S
C1008 C1011 1.386 . S
H1009 C1025 0.930 . S
H1010 C1026 0.931 . S
C1011 H999 0.929 . S
C1011 C1005 1.390 . S
C1011 C1008 1.386 . S
C1012 C1007 1.490 . S
C1012 C1014 1.395 . S
C1012 C1015 1.403 . S
H1013 C1019 0.930 . S
C1014 H1000 0.930 . S
C1014 C1012 1.395 . S
C1014 C1017 1.403 . S
C1015 C1012 1.403 . S
C1015 C1016 1.524 . S
C1015 C1019 1.400 . S
C1016 H1001 0.960 . S
C1016 H1002 0.960 . S
C1016 H1003 0.960 . S
C1016 C1015 1.524 . S
C1017 C1014 1.403 . S
C1017 C1018 1.392 . S
C1017 C1021 1.495 . S
C1018 C1017 1.392 . S
C1018 C1019 1.385 . S
C1018 C1020 1.478 . S
C1019 H1013 0.930 . S
C1019 C1015 1.400 . S
C1019 C1018 1.385 . S
C1020 C1018 1.478 . S
C1020 C1022 1.381 . S
C1020 C1026 1.383 . S
C1021 C1017 1.495 . S
C1021 H1027 0.959 . S
C1021 H1028 0.961 . S
C1021 H1029 0.960 . S
C1022 C1020 1.381 . S
C1022 C1023 1.394 . S
C1022 H1030 0.930 . S
C1023 C1022 1.394 . S
C1023 C1024 1.383 . S
C1023 H1031 0.929 . S
C1024 C1023 1.383 . S
C1024 C1025 1.377 . S
C1025 H1009 0.930 . S
C1025 C1024 1.377 . S
C1025 C1026 1.379 . S
C1026 H1010 0.931 . S
C1026 C1020 1.383 . S
C1026 C1025 1.379 . S
H1027 C1021 0.959 . S
H1028 C1021 0.961 . S
H1029 C1021 0.960 . S
H1030 C1022 0.930 . S
H1031 C1023 0.929 . S
H1032 C1040 0.929 . S
H1033 C1042 0.930 . S
H1034 C1044 0.930 . S
H1035 C1047 0.929 . S
H1036 C1050 0.930 . S
H1037 C1052 0.960 . S
H1038 C1052 0.960 . S
H1039 C1052 0.960 . S
C1040 H1032 0.929 . S
C1040 C1041 1.377 . S
C1040 C1042 1.384 . S
C1041 C1040 1.377 . S
C1041 C1047 1.390 . S
C1042 H1033 0.930 . S
C1042 C1040 1.384 . S
C1042 C1043 1.372 . S
C1043 C1042 1.372 . S
C1043 C1044 1.400 . S
C1043 C1048 1.490 . S
C1044 H1034 0.930 . S
C1044 C1043 1.400 . S
C1044 C1047 1.386 . S
H1045 C1061 0.930 . S
H1046 C1062 0.931 . S
C1047 H1035 0.929 . S
C1047 C1041 1.390 . S
C1047 C1044 1.386 . S
C1048 C1043 1.490 . S
C1048 C1050 1.395 . S
C1048 C1051 1.403 . S
H1049 C1055 0.930 . S
C1050 H1036 0.930 . S
C1050 C1048 1.395 . S
C1050 C1053 1.403 . S
C1051 C1048 1.403 . S
C1051 C1052 1.524 . S
C1051 C1055 1.400 . S
C1052 H1037 0.960 . S
C1052 H1038 0.960 . S
C1052 H1039 0.960 . S
C1052 C1051 1.524 . S
C1053 C1050 1.403 . S
C1053 C1054 1.392 . S
C1053 C1057 1.495 . S
C1054 C1053 1.392 . S
C1054 C1055 1.385 . S
C1054 C1056 1.478 . S
C1055 H1049 0.930 . S
C1055 C1051 1.400 . S
C1055 C1054 1.385 . S
C1056 C1054 1.478 . S
C1056 C1058 1.381 . S
C1056 C1062 1.383 . S
C1057 C1053 1.495 . S
C1057 H1063 0.959 . S
C1057 H1064 0.961 . S
C1057 H1065 0.960 . S
C1058 C1056 1.381 . S
C1058 C1059 1.394 . S
C1058 H1066 0.930 . S
C1059 C1058 1.394 . S
C1059 C1060 1.383 . S
C1059 H1067 0.929 . S
C1060 C1059 1.383 . S
C1060 C1061 1.377 . S
C1061 H1045 0.930 . S
C1061 C1060 1.377 . S
C1061 C1062 1.379 . S
C1062 H1046 0.931 . S
C1062 C1056 1.383 . S
C1062 C1061 1.379 . S
H1063 C1057 0.959 . S
H1064 C1057 0.961 . S
H1065 C1057 0.960 . S
H1066 C1058 0.930 . S
H1067 C1059 0.929 . S
C213 C12 1.469 . S
C232 C127 1.559 . S
C249 C30 1.458 . S
C268 C140 1.541 . S
C304 C162 1.549 . S
C285 C51 1.470 . S
C340 C175 1.498 . S
C321 C72 1.462 . S
C376 C188 1.549 . S
C357 C96 1.461 . S
C412 C201 1.518 . S
C393 C117 1.452 . S
C429 C38 1.471 . S
C448 C157 1.515 . S
C465 C59 1.449 . S
C484 C170 1.494 . S
C520 C183 1.541 . S
C501 C80 1.461 . S
C556 C196 1.480 . S
C537 C103 1.458 . S
C573 C124 1.476 . S
C592 C129 1.541 . S
C628 C142 1.531 . S
C609 C19 1.470 . S
C664 C168 1.533 . S
C645 C17 1.468 . S
C681 C40 1.470 . S
C700 C181 1.482 . S
C736 C194 1.522 . S
C717 C61 1.478 . S
C753 C82 1.459 . S
C772 C131 1.523 . S
C789 C101 1.462 . S
C808 C144 1.558 . S
C825 C122 1.448 . S
C844 C155 1.486 . S
C861 C33 1.456 . S
C880 C192 1.548 . S
C916 C136 1.541 . S
C897 C54 1.432 . S
C933 C75 1.459 . S
C952 C149 1.566 . S
C969 C93 1.467 . S
C988 C153 1.531 . S
C1005 C114 1.496 . S
C1024 C166 1.531 . S
C1041 C9 1.475 . S
C1060 C179 1.514 . S
