# Generated by pormake.
# Topology wbl, (4,4)-cn, num edge types: 1
# Building blocks:
#     Node 0, Type 0, BuildingBlock: MIFKUJ_clean_linker_1, # of connection points: 4
#     Node 1, Type 0, BuildingBlock: MIFKUJ_clean_linker_1, # of connection points: 4
#     Node 2, Type 0, BuildingBlock: MIFKUJ_clean_linker_1, # of connection points: 4
#     Node 3, Type 0, BuildingBlock: MIFKUJ_clean_linker_1, # of connection points: 4
#     Node 4, Type 0, BuildingBlock: MIFKUJ_clean_linker_1, # of connection points: 4
#     Node 5, Type 0, BuildingBlock: MIFKUJ_clean_linker_1, # of connection points: 4
#     Node 6, Type 0, BuildingBlock: MIFKUJ_clean_linker_1, # of connection points: 4
#     Node 7, Type 0, BuildingBlock: MIFKUJ_clean_linker_1, # of connection points: 4
#     Node 8, Type 1, BuildingBlock: TATPOV_clean_sbu_0, # of connection points: 4
#     Node 9, Type 1, BuildingBlock: TATPOV_clean_sbu_0, # of connection points: 4
#     Node 10, Type 1, BuildingBlock: TATPOV_clean_sbu_0, # of connection points: 4
#     Node 11, Type 1, BuildingBlock: TATPOV_clean_sbu_0, # of connection points: 4
#     Node 12, Type 1, BuildingBlock: TATPOV_clean_sbu_0, # of connection points: 4
#     Node 13, Type 1, BuildingBlock: TATPOV_clean_sbu_0, # of connection points: 4
#     Node 14, Type 1, BuildingBlock: TATPOV_clean_sbu_0, # of connection points: 4
#     Node 15, Type 1, BuildingBlock: TATPOV_clean_sbu_0, # of connection points: 4
#     Edge 16, Type (0, 1), BuildingBlock: TEMPAE_clean_linker_10, # of connection points: 2
#     Edge 17, Type (0, 1), BuildingBlock: TEMPAE_clean_linker_10, # of connection points: 2
#     Edge 18, Type (0, 1), BuildingBlock: TEMPAE_clean_linker_10, # of connection points: 2
#     Edge 19, Type (0, 1), BuildingBlock: TEMPAE_clean_linker_10, # of connection points: 2
#     Edge 20, Type (0, 1), BuildingBlock: TEMPAE_clean_linker_10, # of connection points: 2
#     Edge 21, Type (0, 1), BuildingBlock: TEMPAE_clean_linker_10, # of connection points: 2
#     Edge 22, Type (0, 1), BuildingBlock: TEMPAE_clean_linker_10, # of connection points: 2
#     Edge 23, Type (0, 1), BuildingBlock: TEMPAE_clean_linker_10, # of connection points: 2
#     Edge 24, Type (0, 1), BuildingBlock: TEMPAE_clean_linker_10, # of connection points: 2
#     Edge 25, Type (0, 1), BuildingBlock: TEMPAE_clean_linker_10, # of connection points: 2
#     Edge 26, Type (0, 1), BuildingBlock: TEMPAE_clean_linker_10, # of connection points: 2
#     Edge 27, Type (0, 1), BuildingBlock: TEMPAE_clean_linker_10, # of connection points: 2
#     Edge 28, Type (0, 1), BuildingBlock: TEMPAE_clean_linker_10, # of connection points: 2
#     Edge 29, Type (0, 1), BuildingBlock: TEMPAE_clean_linker_10, # of connection points: 2
#     Edge 30, Type (0, 1), BuildingBlock: TEMPAE_clean_linker_10, # of connection points: 2
#     Edge 31, Type (0, 1), BuildingBlock: TEMPAE_clean_linker_10, # of connection points: 2
#     Edge 32, Type (0, 1), BuildingBlock: TEMPAE_clean_linker_10, # of connection points: 2
#     Edge 33, Type (0, 1), BuildingBlock: TEMPAE_clean_linker_10, # of connection points: 2
#     Edge 34, Type (0, 1), BuildingBlock: TEMPAE_clean_linker_10, # of connection points: 2
#     Edge 35, Type (0, 1), BuildingBlock: TEMPAE_clean_linker_10, # of connection points: 2
#     Edge 36, Type (0, 1), BuildingBlock: TEMPAE_clean_linker_10, # of connection points: 2
#     Edge 37, Type (0, 1), BuildingBlock: TEMPAE_clean_linker_10, # of connection points: 2
#     Edge 38, Type (0, 1), BuildingBlock: TEMPAE_clean_linker_10, # of connection points: 2
#     Edge 39, Type (0, 1), BuildingBlock: TEMPAE_clean_linker_10, # of connection points: 2
#     Edge 40, Type (0, 1), BuildingBlock: TEMPAE_clean_linker_10, # of connection points: 2
#     Edge 41, Type (0, 1), BuildingBlock: TEMPAE_clean_linker_10, # of connection points: 2
#     Edge 42, Type (0, 1), BuildingBlock: TEMPAE_clean_linker_10, # of connection points: 2
#     Edge 43, Type (0, 1), BuildingBlock: TEMPAE_clean_linker_10, # of connection points: 2
#     Edge 44, Type (0, 1), BuildingBlock: TEMPAE_clean_linker_10, # of connection points: 2
#     Edge 45, Type (0, 1), BuildingBlock: TEMPAE_clean_linker_10, # of connection points: 2
#     Edge 46, Type (0, 1), BuildingBlock: TEMPAE_clean_linker_10, # of connection points: 2
#     Edge 47, Type (0, 1), BuildingBlock: TEMPAE_clean_linker_10, # of connection points: 2
# Relax obj value: 0.161
# Max RMSD: 0.152
# Mean RMSD: 0.128
data_MOF--net-wbl--node1-TATPOV_clean_sbu_0--node2-MIFKUJ_clean_linker_1--edge1-TEMPAE_clean_linker_10
_symmetry_space_group_name_H-M    P1
_symmetry_Int_Tables_number       1
_symmetry_cell_setting            triclinic
loop_
_symmetry_equiv_pos_as_xyz
'x, y, z'
_cell_length_a     46.287412
_cell_length_b     46.273311
_cell_length_c     73.87301
_cell_angle_alpha  91.456524
_cell_angle_beta   91.520101
_cell_angle_gamma 90.038515
loop_
_atom_site_label
_atom_site_type_symbol
_atom_site_fract_x
_atom_site_fract_y
_atom_site_fract_z
_atom_type_partial_charge
H0 H 0.05204 0.09041 0.39223 0.0
H1 H 0.02382 0.12061 0.41296 0.0
H2 H 0.94496 0.08393 0.38975 0.0
H3 H 0.97332 0.05368 0.36908 0.0
H4 H 0.05254 0.03014 0.38951 0.0
H5 H 0.02569 0.11087 0.35358 0.0
H6 H 0.99152 0.14425 0.33979 0.0
H7 H 0.95744 0.07442 0.30545 0.0
H8 H 0.98954 0.04074 0.32064 0.0
H9 H 0.04316 0.96992 0.3219 0.0
H10 H 0.07144 0.93409 0.30507 0.0
H11 H 0.1502 0.97582 0.32485 0.0
H12 H 0.12173 0.01054 0.34223 0.0
H13 H 0.04327 0.03316 0.3225 0.0
H14 H 0.06107 0.95273 0.36056 0.0
H15 H 0.08964 0.9159 0.37599 0.0
H16 H 0.13846 0.98303 0.40478 0.0
H17 H 0.11044 0.01977 0.38881 0.0
C18 C 0.01475 0.06996 0.37908 0.0
C19 C 0.02867 0.08897 0.39159 0.0
C20 C 0.01255 0.10632 0.40331 0.0
C21 C 0.98222 0.10464 0.40291 0.0
C22 C 0.96832 0.08554 0.39039 0.0
C23 C 0.98445 0.06839 0.37854 0.0
C24 C 0.03202 0.05125 0.36693 0.0
C25 C 0.0508 0.03114 0.37486 0.0
C26 C 0.02909 0.05207 0.34779 0.0
C27 C 0.00973 0.07304 0.33856 0.0
C28 C 0.01041 0.10261 0.34337 0.0
C29 C 0.99115 0.12186 0.33518 0.0
C30 C 0.97136 0.11213 0.32156 0.0
C31 C 0.97168 0.08269 0.31623 0.0
C32 C 0.9904 0.06337 0.32475 0.0
C33 C 0.08042 0.99262 0.3334 0.0
C34 C 0.06652 0.97141 0.32241 0.0
C35 C 0.08274 0.95104 0.31276 0.0
C36 C 0.11316 0.95183 0.31373 0.0
C37 C 0.12687 0.97407 0.32412 0.0
C38 C 0.11066 0.99411 0.33395 0.0
C39 C 0.06347 0.01218 0.34515 0.0
C40 C 0.04494 0.03242 0.33716 0.0
C41 C 0.06623 0.01132 0.36422 0.0
C42 C 0.08388 0.989 0.37338 0.0
C43 C 0.07823 0.95951 0.36998 0.0
C44 C 0.09437 0.93848 0.37895 0.0
C45 C 0.11633 0.94654 0.39159 0.0
C46 C 0.12197 0.97611 0.39492 0.0
C47 C 0.10583 0.99713 0.38593 0.0
H48 H 0.00283 0.484 0.56778 0.0
H49 H 0.97127 0.44861 0.55198 0.0
H50 H 0.89637 0.49503 0.57066 0.0
H51 H 0.92809 0.53057 0.58639 0.0
H52 H 0.01088 0.54299 0.56716 0.0
H53 H 0.98188 0.47081 0.60933 0.0
H54 H 0.94899 0.44104 0.62645 0.0
H55 H 0.90787 0.51827 0.64731 0.0
H56 H 0.94081 0.54797 0.63008 0.0
H57 H 0.04229 0.61845 0.61056 0.0
H58 H 0.07831 0.64375 0.62989 0.0
H59 H 0.09373 0.56524 0.65914 0.0
H60 H 0.05886 0.53979 0.63918 0.0
H61 H 0.00279 0.54685 0.63405 0.0
H62 H 0.02518 0.60565 0.56995 0.0
H63 H 0.06453 0.63126 0.55594 0.0
H64 H 0.12596 0.57165 0.57957 0.0
H65 H 0.08639 0.54718 0.59428 0.0
C66 C 0.96776 0.5097 0.57837 0.0
C67 C 0.97963 0.48691 0.56815 0.0
C68 C 0.96162 0.46666 0.55923 0.0
C69 C 0.93145 0.46905 0.56023 0.0
C70 C 0.91956 0.49283 0.5696 0.0
C71 C 0.93762 0.51298 0.57865 0.0
C72 C 0.98697 0.52844 0.58987 0.0
C73 C 0.00894 0.54408 0.58177 0.0
C74 C 0.98473 0.52951 0.60893 0.0
C75 C 0.96364 0.51156 0.61839 0.0
C76 C 0.96554 0.4813 0.61742 0.0
C77 C 0.94688 0.46434 0.62726 0.0
C78 C 0.92592 0.47737 0.63822 0.0
C79 C 0.92364 0.50767 0.63885 0.0
C80 C 0.94251 0.52463 0.62912 0.0
C81 C 0.04813 0.57714 0.62328 0.0
C82 C 0.05373 0.60662 0.62097 0.0
C83 C 0.0741 0.62113 0.63217 0.0
C84 C 0.08898 0.60649 0.64603 0.0
C85 C 0.08305 0.57704 0.6484 0.0
C86 C 0.06288 0.56253 0.63713 0.0
C87 C 0.02682 0.56135 0.61138 0.0
C88 C 0.0044 0.54627 0.61942 0.0
C89 C 0.02908 0.56024 0.59232 0.0
C90 C 0.05296 0.57468 0.58317 0.0
C91 C 0.04715 0.59811 0.57202 0.0
C92 C 0.06972 0.61258 0.56393 0.0
C93 C 0.09857 0.60352 0.56652 0.0
C94 C 0.10416 0.57958 0.57748 0.0
C95 C 0.08157 0.56541 0.5858 0.0
H96 H 0.49056 0.53439 0.86427 0.0
H97 H 0.46617 0.56863 0.88424 0.0
H98 H 0.41201 0.49975 0.90267 0.0
H99 H 0.43593 0.46564 0.88197 0.0
H100 H 0.4935 0.44929 0.87949 0.0
H101 H 0.49926 0.53104 0.82296 0.0
H102 H 0.47082 0.57259 0.81267 0.0
H103 H 0.3928 0.53099 0.82954 0.0
H104 H 0.42125 0.48966 0.83981 0.0
H105 H 0.51232 0.38545 0.82664 0.0
H106 H 0.54629 0.35885 0.80743 0.0
H107 H 0.59044 0.43869 0.79693 0.0
H108 H 0.55659 0.46512 0.8161 0.0
H109 H 0.49772 0.47143 0.8142 0.0
H110 H 0.49289 0.38929 0.87136 0.0
H111 H 0.5224 0.3551 0.88849 0.0
H112 H 0.59957 0.40011 0.87319 0.0
H113 H 0.56993 0.43364 0.85575 0.0
C114 C 0.46471 0.49759 0.87143 0.0
C115 C 0.47331 0.52668 0.87253 0.0
C116 C 0.45957 0.54617 0.88411 0.0
C117 C 0.43715 0.53691 0.89506 0.0
C118 C 0.42898 0.50759 0.89424 0.0
C119 C 0.44273 0.48805 0.88255 0.0
C120 C 0.47876 0.47747 0.85847 0.0
C121 C 0.49384 0.45359 0.86513 0.0
C122 C 0.47957 0.48348 0.83983 0.0
C123 C 0.46231 0.50735 0.83212 0.0
C124 C 0.476 0.53078 0.82422 0.0
C125 C 0.45982 0.55455 0.81853 0.0
C126 C 0.42967 0.55498 0.82039 0.0
C127 C 0.41598 0.53112 0.82786 0.0
C128 C 0.43218 0.50756 0.83373 0.0
C129 C 0.53214 0.42719 0.82289 0.0
C130 C 0.52922 0.39719 0.8201 0.0
C131 C 0.54843 0.38209 0.80903 0.0
C132 C 0.57094 0.39677 0.80076 0.0
C133 C 0.57334 0.42688 0.80324 0.0
C134 C 0.554 0.44197 0.81412 0.0
C135 C 0.51295 0.44331 0.83526 0.0
C136 C 0.49683 0.46653 0.82846 0.0
C137 C 0.51118 0.43656 0.85379 0.0
C138 C 0.52923 0.41387 0.86221 0.0
C139 C 0.5162 0.39141 0.87146 0.0
C140 C 0.5331 0.37202 0.88133 0.0
C141 C 0.56337 0.37495 0.88235 0.0
C142 C 0.57638 0.39691 0.87251 0.0
C143 C 0.55946 0.41617 0.86255 0.0
H144 H 0.52011 0.94636 0.0665 0.0
H145 H 0.48733 0.91469 0.04897 0.0
H146 H 0.41535 0.94889 0.07892 0.0
H147 H 0.44798 0.98231 0.09524 0.0
H148 H 0.52675 0.00127 0.06937 0.0
H149 H 0.50253 0.92786 0.11327 0.0
H150 H 0.47067 0.89933 0.13196 0.0
H151 H 0.43514 0.97816 0.15463 0.0
H152 H 0.46684 0.00649 0.13588 0.0
H153 H 0.53884 0.07138 0.13128 0.0
H154 H 0.57463 0.09945 0.14892 0.0
H155 H 0.63881 0.03374 0.13763 0.0
H156 H 0.60326 0.00744 0.11858 0.0
H157 H 0.52695 0.00561 0.13655 0.0
H158 H 0.55464 0.07834 0.09675 0.0
H159 H 0.58838 0.1082 0.08115 0.0
H160 H 0.61425 0.03378 0.04881 0.0
H161 H 0.58247 0.00332 0.06611 0.0
C162 C 0.48666 0.96636 0.08247 0.0
C163 C 0.49721 0.94731 0.06913 0.0
C164 C 0.47843 0.92891 0.05926 0.0
C165 C 0.44867 0.92883 0.06268 0.0
C166 C 0.43806 0.94842 0.07579 0.0
C167 C 0.45681 0.96725 0.08539 0.0
C168 C 0.50702 0.98514 0.09325 0.0
C169 C 0.52707 0.00185 0.08406 0.0
C170 C 0.5068 0.98675 0.11242 0.0
C171 C 0.48692 0.96927 0.12314 0.0
C172 C 0.48768 0.93894 0.12215 0.0
C173 C 0.46961 0.9227 0.13289 0.0
C174 C 0.45038 0.93654 0.14471 0.0
C175 C 0.44947 0.96691 0.14549 0.0
C176 C 0.46769 0.9831 0.13489 0.0
C177 C 0.56861 0.03763 0.12353 0.0
C178 C 0.56074 0.06328 0.13254 0.0
C179 C 0.58126 0.0791 0.14282 0.0
C180 C 0.60983 0.06893 0.14494 0.0
C181 C 0.61735 0.04275 0.13608 0.0
C182 C 0.597 0.02747 0.1253 0.0
C183 C 0.54689 0.02099 0.11266 0.0
C184 C 0.52666 0.0048 0.12185 0.0
C185 C 0.54693 0.01996 0.09351 0.0
C186 C 0.56667 0.03833 0.08313 0.0
C187 C 0.56819 0.0682 0.08671 0.0
C188 C 0.58708 0.08549 0.07734 0.0
C189 C 0.60417 0.07361 0.06352 0.0
C190 C 0.60194 0.04373 0.05954 0.0
C191 C 0.5835 0.02628 0.06931 0.0
H192 H 0.98737 0.60577 0.88699 0.0
H193 H 0.01906 0.6364 0.86953 0.0
H194 H 0.09358 0.59151 0.89118 0.0
H195 H 0.06183 0.56082 0.90844 0.0
H196 H 0.98411 0.54537 0.88298 0.0
H197 H 0.00618 0.61594 0.93119 0.0
H198 H 0.04247 0.64519 0.94803 0.0
H199 H 0.08312 0.56728 0.96716 0.0
H200 H 0.04718 0.53816 0.95004 0.0
H201 H 0.99135 0.47287 0.94432 0.0
H202 H 0.96383 0.43361 0.95747 0.0
H203 H 0.88456 0.47041 0.93628 0.0
H204 H 0.91213 0.50958 0.92318 0.0
H205 H 0.98955 0.53234 0.94947 0.0
H206 H 0.97758 0.46273 0.90212 0.0
H207 H 0.95295 0.42822 0.88147 0.0
H208 H 0.90224 0.4977 0.85898 0.0
H209 H 0.92638 0.53207 0.88017 0.0
C210 C 0.02225 0.58118 0.89909 0.0
C211 C 0.01055 0.60279 0.88812 0.0
C212 C 0.02867 0.62034 0.87824 0.0
C213 C 0.05878 0.61628 0.87898 0.0
C214 C 0.07045 0.59498 0.89026 0.0
C215 C 0.05236 0.57761 0.90023 0.0
C216 C 0.00301 0.56094 0.90833 0.0
C217 C 0.98469 0.54307 0.89757 0.0
C218 C 0.00475 0.55708 0.92727 0.0
C219 C 0.02428 0.5749 0.93916 0.0
C220 C 0.02275 0.60521 0.93916 0.0
C221 C 0.0433 0.62187 0.94891 0.0
C222 C 0.06567 0.60845 0.95879 0.0
C223 C 0.06625 0.57814 0.9595 0.0
C224 C 0.04567 0.56151 0.94982 0.0
C225 C 0.95375 0.49407 0.93278 0.0
C226 C 0.96803 0.47255 0.94263 0.0
C227 C 0.95235 0.45005 0.94998 0.0
C228 C 0.92211 0.44897 0.94783 0.0
C229 C 0.90784 0.47082 0.93822 0.0
C230 C 0.92354 0.49312 0.9307 0.0
C231 C 0.97052 0.51697 0.9241 0.0
C232 C 0.98837 0.53521 0.93494 0.0
C233 C 0.96897 0.52072 0.90517 0.0
C234 C 0.95349 0.49988 0.89285 0.0
C235 C 0.96085 0.47047 0.89293 0.0
C236 C 0.94701 0.45083 0.88098 0.0
C237 C 0.9257 0.46027 0.86858 0.0
C238 C 0.91834 0.48976 0.86852 0.0
C239 C 0.93221 0.50942 0.88052 0.0
H240 H 0.48401 0.5335 0.20212 0.0
H241 H 0.45073 0.56646 0.21686 0.0
H242 H 0.38158 0.53576 0.18073 0.0
H243 H 0.41442 0.50054 0.16742 0.0
H244 H 0.49155 0.47981 0.19802 0.0
H245 H 0.46681 0.55561 0.15606 0.0
H246 H 0.43502 0.58457 0.13664 0.0
H247 H 0.40886 0.50727 0.10654 0.0
H248 H 0.44022 0.47835 0.12616 0.0
H249 H 0.51003 0.42369 0.12894 0.0
H250 H 0.54786 0.39979 0.11163 0.0
H251 H 0.61288 0.4478 0.14284 0.0
H252 H 0.57481 0.4721 0.15993 0.0
H253 H 0.49785 0.48098 0.13114 0.0
H254 H 0.52974 0.40712 0.17043 0.0
H255 H 0.56658 0.38068 0.187 0.0
H256 H 0.57994 0.45466 0.22333 0.0
H257 H 0.54517 0.48203 0.20532 0.0
C258 C 0.45198 0.51497 0.18331 0.0
C259 C 0.46153 0.53336 0.19763 0.0
C260 C 0.44249 0.55264 0.20585 0.0
C261 C 0.41353 0.55454 0.19967 0.0
C262 C 0.40365 0.53505 0.18592 0.0
C263 C 0.42257 0.51512 0.17807 0.0
C264 C 0.47327 0.49695 0.1734 0.0
C265 C 0.49311 0.4803 0.18341 0.0
C266 C 0.47492 0.49697 0.15426 0.0
C267 C 0.45562 0.51476 0.14269 0.0
C268 C 0.45396 0.54487 0.14542 0.0
C269 C 0.4358 0.56137 0.13435 0.0
C270 C 0.41946 0.54812 0.12013 0.0
C271 C 0.42136 0.51805 0.11733 0.0
C272 C 0.43924 0.50153 0.12852 0.0
C273 C 0.53963 0.44948 0.14579 0.0
C274 C 0.53244 0.42903 0.13206 0.0
C275 C 0.55407 0.41526 0.12228 0.0
C276 C 0.58333 0.42185 0.12594 0.0
C277 C 0.59051 0.44242 0.13966 0.0
C278 C 0.56883 0.45614 0.14951 0.0
C279 C 0.51643 0.46445 0.15578 0.0
C280 C 0.49622 0.48044 0.14576 0.0
C281 C 0.51476 0.46406 0.17489 0.0
C282 C 0.53519 0.44692 0.18623 0.0
C283 C 0.54094 0.41786 0.18176 0.0
C284 C 0.56172 0.4025 0.19158 0.0
C285 C 0.57654 0.4154 0.20662 0.0
C286 C 0.56962 0.44409 0.21162 0.0
C287 C 0.54936 0.45972 0.20146 0.0
H288 H 0.52576 0.921 0.40386 0.0
H289 H 0.4944 0.88622 0.38738 0.0
H290 H 0.45241 0.95643 0.35958 0.0
H291 H 0.48294 0.99109 0.37667 0.0
H292 H 0.54047 -0.00168 0.37741 0.0
H293 H 0.5428 0.93703 0.44228 0.0
H294 H 0.51169 0.90333 0.45781 0.0
H295 H 0.43661 0.95152 0.43985 0.0
H296 H 0.46781 0.98391 0.42361 0.0
H297 H 0.54341 0.06389 0.44384 0.0
H298 H 0.57427 0.09944 0.46026 0.0
H299 H 0.64945 0.06196 0.43546 0.0
H300 H 0.61855 0.02647 0.41914 0.0
H301 H 0.54445 0.00319 0.44466 0.0
H302 H 0.55368 0.07901 0.40139 0.0
H303 H 0.57815 0.11318 0.38224 0.0
H304 H 0.62404 0.04232 0.35683 0.0
H305 H 0.59899 0.0083 0.37576 0.0
C306 C 0.50642 0.95865 0.39166 0.0
C307 C 0.50953 0.92889 0.39439 0.0
C308 C 0.49182 0.90902 0.38482 0.0
C309 C 0.47083 0.91857 0.37222 0.0
C310 C 0.46802 0.9484 0.3694 0.0
C311 C 0.48563 0.96822 0.37902 0.0
C312 C 0.52494 0.97991 0.40183 0.0
C313 C 0.54146 -0.00069 0.39211 0.0
C314 C 0.52596 0.98144 0.42097 0.0
C315 C 0.50749 0.96272 0.43173 0.0
C316 C 0.51962 0.9403 0.44183 0.0
C317 C 0.50178 0.92116 0.45076 0.0
C318 C 0.47153 0.92444 0.44997 0.0
C319 C 0.45969 0.94777 0.44038 0.0
C320 C 0.47748 0.96653 0.43124 0.0
C321 C 0.57876 0.04268 0.43028 0.0
C322 C 0.56656 0.06334 0.44201 0.0
C323 C 0.58412 0.0837 0.45125 0.0
C324 C 0.61418 0.08339 0.44909 0.0
C325 C 0.62635 0.06251 0.43745 0.0
C326 C 0.60876 0.04236 0.42808 0.0
C327 C 0.56011 0.02154 0.42021 0.0
C328 C 0.54367 0.00209 0.42996 0.0
C329 C 0.55886 0.02027 0.40106 0.0
C330 C 0.57462 0.04114 0.39004 0.0
C331 C 0.56921 0.07091 0.39179 0.0
C332 C 0.58328 0.09042 0.38087 0.0
C333 C 0.60302 0.08052 0.36795 0.0
C334 C 0.60861 0.05067 0.36641 0.0
C335 C 0.59444 0.03119 0.37728 0.0
H336 H 0.0522 0.10137 0.69886 0.0
H337 H 0.01279 0.13176 0.70987 0.0
H338 H 0.95082 0.0679 0.68974 0.0
H339 H 0.99031 0.03831 0.67823 0.0
H340 H 0.06711 0.03652 0.70245 0.0
H341 H 0.03632 0.10953 0.65994 0.0
H342 H -0.00194 0.13536 0.64378 0.0
H343 H 0.97234 0.05573 0.61595 0.0
H344 H 0.00951 0.02976 0.63304 0.0
H345 H 0.07296 0.97622 0.63428 0.0
H346 H 0.10521 0.94853 0.61487 0.0
H347 H 0.17902 0.98965 0.64176 0.0
H348 H 0.14646 0.01718 0.66137 0.0
H349 H 0.06731 0.03363 0.63522 0.0
H350 H 0.08424 0.96017 0.67863 0.0
H351 H 0.11319 0.92681 0.69649 0.0
H352 H 0.16091 -0.00104 0.72077 0.0
H353 H 0.13073 0.03235 0.70328 0.0
C354 C 0.02405 0.06777 0.6877 0.0
C355 C 0.03014 0.09373 0.6972 0.0
C356 C 0.00756 0.11105 0.70345 0.0
C357 C 0.97859 0.10244 0.70046 0.0
C358 C 0.97281 0.0755 0.69189 0.0
C359 C 0.99533 0.05839 0.68551 0.0
C360 C 0.04706 0.05227 0.67798 0.0
C361 C 0.06765 0.03635 0.68778 0.0
C362 C 0.04706 0.05143 0.65884 0.0
C363 C 0.02548 0.06764 0.64792 0.0
C364 C 0.02225 0.09761 0.65049 0.0
C365 C 0.00054 0.1124 0.64108 0.0
C366 C 0.98198 0.0976 0.62862 0.0
C367 C 0.98585 0.0677 0.6257 0.0
C368 C 0.00735 0.05288 0.63528 0.0
C369 C 0.1073 -0.00118 0.64921 0.0
C370 C 0.09609 0.97913 0.63609 0.0
C371 C 0.11455 0.96344 0.62495 0.0
C372 C 0.14465 0.96723 0.62661 0.0
C373 C 0.15594 0.98619 0.64021 0.0
C374 C 0.13738 0.0019 0.65142 0.0
C375 C 0.08729 0.01744 0.65961 0.0
C376 C 0.06728 0.03418 0.64991 0.0
C377 C 0.08746 0.01849 0.67877 0.0
C378 C 0.10561 -0.00137 0.68952 0.0
C379 C 0.101 0.96876 0.68777 0.0
C380 C 0.11773 0.94972 0.69794 0.0
C381 C 0.13969 0.96012 0.70996 0.0
C382 C 0.14405 0.99019 0.71179 0.0
C383 C 0.12698 0.0093 0.70174 0.0
Zn384 Zn 0.29731 0.74166 0.97164 0.0
Zn385 Zn 0.30733 0.7121 0.00285 0.0
O386 O 0.26363 0.70827 1.00009 0.0
O387 O 0.25477 0.73267 0.97532 0.0
O388 O 0.31909 0.69115 0.02537 0.0
O389 O 0.31652 0.77716 0.98337 0.0
O390 O 0.32229 0.75288 0.00846 0.0
C391 C 0.24583 0.71773 0.98822 0.0
C392 C 0.33243 0.69102 0.96657 0.0
O393 O 0.32857 0.6889 0.98348 0.0
O394 O 0.32159 0.71204 0.95809 0.0
C395 C 0.30802 0.66753 0.03022 0.0
O396 O 0.28626 0.65627 0.02068 0.0
C397 C 0.32506 0.77607 0.99977 0.0
Zn398 Zn 0.28832 0.75767 0.28486 0.0
Zn399 Zn 0.30884 0.78719 0.25616 0.0
O400 O 0.26888 0.80492 0.25947 0.0
O401 O 0.25051 0.77951 0.28123 0.0
O402 O 0.32552 0.80836 0.23524 0.0
O403 O 0.29665 0.72012 0.27132 0.0
O404 O 0.3108 0.74461 0.24794 0.0
C405 C 0.24815 0.79955 0.26989 0.0
C406 C 0.33826 0.7929 0.29398 0.0
O407 O 0.33649 0.79823 0.27717 0.0
O408 O 0.32008 0.77619 0.30087 0.0
C409 C 0.33507 0.83398 0.2377 0.0
O410 O 0.3327 0.84665 0.25371 0.0
C411 C 0.30607 0.7206 0.25539 0.0
Zn412 Zn 0.26844 0.76366 0.48126 0.0
Zn413 Zn 0.25502 0.80189 0.50863 0.0
O414 O 0.29809 0.80881 0.50565 0.0
O415 O 0.31038 0.77726 0.48441 0.0
O416 O 0.24388 0.82724 0.52975 0.0
O417 O 0.25216 0.73031 0.49557 0.0
O418 O 0.24106 0.7626 0.51657 0.0
C419 C 0.31712 0.79777 0.49545 0.0
C420 C 0.22835 0.80988 0.47103 0.0
O421 O 0.23163 0.81774 0.48759 0.0
O422 O 0.24124 0.78755 0.46501 0.0
C423 C 0.25311 0.85272 0.53313 0.0
O424 O 0.27187 0.86416 0.52234 0.0
C425 C 0.24082 0.73658 0.5106 0.0
Zn426 Zn 0.2741 0.74581 0.74706 0.0
Zn427 Zn 0.23669 0.73177 0.77325 0.0
O428 O 0.23206 0.7757 0.77129 0.0
O429 O 0.26514 0.78808 0.75203 0.0
O430 O 0.20981 0.72067 0.79307 0.0
O431 O 0.30614 0.72504 0.76055 0.0
O432 O 0.27572 0.71535 0.78198 0.0
C433 C 0.2449 0.79505 0.7625 0.0
C434 C 0.22639 0.70957 0.73421 0.0
O435 O 0.21998 0.71047 0.75087 0.0
O436 O 0.24828 0.72319 0.72893 0.0
C437 C 0.18285 0.71734 0.78992 0.0
O438 O 0.17221 0.72239 0.77364 0.0
C439 C 0.30094 0.71359 0.77552 0.0
Zn440 Zn 0.78523 0.2432 0.54608 0.0
Zn441 Zn 0.82013 0.23022 0.5173 0.0
O442 O 0.82547 0.27381 0.52041 0.0
O443 O 0.79667 0.28523 0.54276 0.0
O444 O 0.8452 0.21836 0.49644 0.0
O445 O 0.75164 0.22469 0.53162 0.0
O446 O 0.7802 0.21659 0.50867 0.0
C447 C 0.81469 0.29268 0.53111 0.0
C448 C 0.83234 0.20513 0.55506 0.0
O449 O 0.83733 0.20767 0.53832 0.0
O450 O 0.81127 0.21839 0.56206 0.0
C451 C 0.87189 0.2128 0.49891 0.0
O452 O 0.88364 0.21643 0.5152 0.0
C453 C 0.75539 0.21513 0.51562 0.0
Zn454 Zn 0.79416 0.26749 0.77022 0.0
Zn455 Zn 0.80376 0.30478 0.74302 0.0
O456 O 0.75955 0.30605 0.74507 0.0
O457 O 0.75152 0.27523 0.76661 0.0
O458 O 0.81313 0.33151 0.72273 0.0
O459 O 0.81417 0.23564 0.75622 0.0
O460 O 0.82282 0.26669 0.73493 0.0
C461 C 0.74207 0.29325 0.75526 0.0
C462 C 0.82781 0.31757 0.78154 0.0
O463 O 0.82414 0.3239 0.76498 0.0
O464 O 0.81747 0.29429 0.78733 0.0
C465 C 0.81553 0.35865 0.72554 0.0
O466 O 0.80992 0.36961 0.74164 0.0
C467 C 0.82538 0.24146 0.74129 0.0
Zn468 Zn 0.76938 0.27822 0.03612 0.0
Zn469 Zn 0.73115 0.288 0.00813 0.0
O470 O 0.72533 0.24475 0.01224 0.0
O471 O 0.75604 0.2363 0.03479 0.0
O472 O 0.70431 0.29824 0.98731 0.0
O473 O 0.80199 0.29378 0.02123 0.0
O474 O 0.77027 0.30146 0.99919 0.0
C475 C 0.73644 0.22751 0.02365 0.0
C476 C 0.72363 0.31781 0.04542 0.0
O477 O 0.71558 0.31272 0.02902 0.0
O478 O 0.74633 0.30609 0.05179 0.0
C479 C 0.69175 0.28089 0.97602 0.0
O480 O 0.69553 0.25292 0.97756 0.0
C481 C 0.79608 0.30295 0.00555 0.0
Zn482 Zn 0.78005 0.24548 0.23003 0.0
Zn483 Zn 0.74972 0.226 0.25852 0.0
O484 O 0.73263 0.26641 0.25504 0.0
O485 O 0.75867 0.28347 0.23313 0.0
O486 O 0.72876 0.20926 0.27938 0.0
O487 O 0.81742 0.23595 0.24375 0.0
O488 O 0.7919 0.22341 0.26704 0.0
C489 C 0.73844 0.28657 0.24427 0.0
C490 C 0.74356 0.19667 0.22085 0.0
O491 O 0.73841 0.19796 0.2377 0.0
O492 O 0.76023 0.21487 0.21397 0.0
C493 C 0.70151 0.21068 0.28091 0.0
O494 O 0.68613 0.22488 0.26886 0.0
C495 C 0.81623 0.22708 0.2598 0.0
C496 C 0.15556 0.91828 0.31347 0.0
C497 C 0.1306 0.92886 0.30473 0.0
C498 C 0.17238 0.89666 0.30538 0.0
C499 C 0.16378 0.88476 0.28823 0.0
C500 C 0.13845 0.89497 0.27937 0.0
C501 C 0.12225 0.91706 0.28767 0.0
C502 C 0.19936 0.88648 0.31526 0.0
C503 C 0.12845 0.8825 0.26119 0.0
C504 C 0.22563 0.84771 0.26455 0.0
C505 C 0.2232 0.81948 0.27084 0.0
C506 C 0.20521 0.86893 0.26906 0.0
C507 C 0.1816 0.86156 0.27984 0.0
C508 C 0.17759 0.83248 0.28474 0.0
C509 C 0.19859 0.81181 0.28031 0.0
C510 C 0.21039 0.89971 0.26366 0.0
C511 C 0.15232 0.8236 0.29586 0.0
H512 H 0.16184 0.92665 0.32683 0.0
H513 H 0.10315 0.92524 0.28072 0.0
H514 H 0.19738 0.86319 0.31822 0.0
H515 H 0.21839 0.88895 0.30661 0.0
H516 H 0.20352 0.89864 0.32823 0.0
H517 H 0.10797 0.89243 0.25624 0.0
H518 H 0.14528 0.88583 0.25103 0.0
H519 H 0.12517 0.85883 0.2621 0.0
H520 H 0.24457 0.85383 0.25721 0.0
H521 H 0.1964 0.78994 0.28502 0.0
H522 H 0.21767 0.91272 0.27577 0.0
H523 H 0.19015 0.90959 0.25837 0.0
H524 H 0.22715 0.90116 0.25323 0.0
H525 H 0.15572 0.83162 0.31004 0.0
H526 H 0.1497 0.79974 0.29596 0.0
H527 H 0.13197 0.83331 0.29058 0.0
C528 C 0.11871 0.63134 0.54093 0.0
C529 C 0.12262 0.61943 0.55811 0.0
C530 C 0.14018 0.64843 0.53346 0.0
C531 C 0.16658 0.6532 0.54318 0.0
C532 C 0.17132 0.64009 0.56011 0.0
C533 C 0.14918 0.62366 0.56747 0.0
C534 C 0.13412 0.66229 0.51546 0.0
C535 C 0.1994 0.64424 0.57073 0.0
C536 C 0.22677 0.68502 0.51578 0.0
C537 C 0.22449 0.71452 0.52035 0.0
C538 C 0.209 0.6645 0.52376 0.0
C539 C 0.18808 0.67384 0.53627 0.0
C540 C 0.18633 0.70347 0.54134 0.0
C541 C 0.20473 0.72337 0.53347 0.0
C542 C 0.21201 0.63297 0.5184 0.0
C543 C 0.16405 0.71442 0.55442 0.0
H544 H 0.09863 0.62764 0.53335 0.0
H545 H 0.15245 0.61488 0.58082 0.0
H546 H 0.1343 0.68617 0.51729 0.0
H547 H 0.15126 0.65654 0.50581 0.0
H548 H 0.11289 0.65564 0.50934 0.0
H549 H 0.20107 0.62978 0.58249 0.0
H550 H 0.21804 0.64007 0.56189 0.0
H551 H 0.20114 0.66695 0.57581 0.0
H552 H 0.24211 0.67799 0.50574 0.0
H553 H 0.20271 0.74612 0.53707 0.0
H554 H 0.19254 0.62572 0.51046 0.0
H555 H 0.21356 0.61958 0.53064 0.0
H556 H 0.23132 0.62887 0.5101 0.0
H557 H 0.14203 0.71023 0.54862 0.0
H558 H 0.16625 0.73797 0.55748 0.0
H559 H 0.16592 0.70273 0.56732 0.0
C560 C 0.42071 0.60833 0.82032 0.0
C561 C 0.41245 0.58028 0.81469 0.0
C562 C 0.4041 0.63238 0.81533 0.0
C563 C 0.37894 0.62823 0.80426 0.0
C564 C 0.37064 0.59993 0.79847 0.0
C565 C 0.38741 0.57629 0.80385 0.0
C566 C 0.41337 0.66218 0.82196 0.0
C567 C 0.34415 0.59463 0.78646 0.0
C568 C 0.31814 0.68295 0.80114 0.0
C569 C 0.32317 0.69526 0.78435 0.0
C570 C 0.33705 0.66219 0.80832 0.0
C571 C 0.36136 0.65334 0.79836 0.0
C572 C 0.36738 0.66677 0.78188 0.0
C573 C 0.34832 0.68769 0.77513 0.0
C574 C 0.3302 0.6487 0.8261 0.0
C575 C 0.39301 0.65783 0.77082 0.0
H576 H 0.4399 0.61137 0.82889 0.0
H577 H 0.38116 0.55463 0.79939 0.0
H578 H 0.41741 0.67606 0.81027 0.0
H579 H 0.39581 0.67248 0.82976 0.0
H580 H 0.43326 0.66167 0.8307 0.0
H581 H 0.34079 0.57131 0.78307 0.0
H582 H 0.32467 0.60301 0.79325 0.0
H583 H 0.34614 0.60643 0.77366 0.0
H584 H 0.29889 0.68881 0.80843 0.0
H585 H 0.35246 0.69709 0.76216 0.0
H586 H 0.34967 0.64857 0.83518 0.0
H587 H 0.32348 0.62589 0.82364 0.0
H588 H 0.31256 0.66028 0.83316 0.0
H589 H 0.41307 0.65817 0.77937 0.0
H590 H 0.39608 0.67207 0.75914 0.0
H591 H 0.38987 0.63532 0.76558 0.0
C592 C 0.40062 0.91579 0.04793 0.0
C593 C 0.42898 0.90792 0.05293 0.0
C594 C 0.38174 0.89589 0.03916 0.0
C595 C 0.39164 0.86766 0.03494 0.0
C596 C 0.4203 0.85969 0.03967 0.0
C597 C 0.43847 0.87977 0.0488 0.0
C598 C 0.35113 0.90495 0.03457 0.0
C599 C 0.43177 0.82986 0.0352 0.0
C600 C 0.34072 0.80411 0.02759 0.0
C601 C 0.33969 0.8012 0.00865 0.0
C602 C 0.35645 0.82656 0.03631 0.0
C603 C 0.37204 0.84611 0.02583 0.0
C604 C 0.37047 0.84373 0.00669 0.0
C605 C 0.35402 0.82144 0.99831 0.0
C606 C 0.35708 0.82883 0.05675 0.0
C607 C 0.38726 0.86385 0.99508 0.0
H608 H 0.39316 0.93757 0.05078 0.0
H609 H 0.46006 0.87318 0.05293 0.0
H610 H 0.34694 0.90285 0.01974 0.0
H611 H 0.33567 0.89048 0.04115 0.0
H612 H 0.34669 0.9276 0.03899 0.0
H613 H 0.45502 0.82759 0.03902 0.0
H614 H 0.41937 0.81341 0.04243 0.0
H615 H 0.42893 0.82498 0.02048 0.0
H616 H 0.32942 0.78864 0.03562 0.0
H617 H 0.35338 0.81916 0.98366 0.0
H618 H 0.35181 0.85119 0.06132 0.0
H619 H 0.37913 0.82393 0.06206 0.0
H620 H 0.34163 0.81369 0.0628 0.0
H621 H 0.38242 0.88669 0.99874 0.0
H622 H 0.38235 0.86021 0.9804 0.0
H623 H 0.41077 0.86058 0.99757 0.0
C624 C 0.11835 0.61755 0.96332 0.0
C625 C 0.08989 0.62581 0.96679 0.0
C626 C 0.14173 0.63479 0.96926 0.0
C627 C 0.13654 0.66089 0.97905 0.0
C628 C 0.10791 0.66888 0.9832 0.0
C629 C 0.08482 0.65132 0.97686 0.0
C630 C 0.17194 0.62562 0.96438 0.0
C631 C 0.10164 0.6963 0.99387 0.0
C632 C 0.20536 0.68993 0.00145 0.0
C633 C 0.21529 0.70813 0.98803 0.0
C634 C 0.1784 0.67614 0.99949 0.0
C635 C 0.16121 0.68048 0.98366 0.0
C636 C 0.17007 0.70063 0.97082 0.0
C637 C 0.19694 0.71434 0.97322 0.0
C638 C 0.16936 0.65528 0.01366 0.0
C639 C 0.15239 0.70586 0.95374 0.0
H640 H 0.12231 0.59807 0.9553 0.0
H641 H 0.06279 0.65762 0.97965 0.0
H642 H 0.18151 0.64183 0.95548 0.0
H643 H 0.18594 0.62458 0.97676 0.0
H644 H 0.17229 0.60419 0.95726 0.0
H645 H 0.07865 0.6977 0.99774 0.0
H646 H 0.11554 0.6977 0.00633 0.0
H647 H 0.10672 0.7153 0.98566 0.0
H648 H 0.21923 0.68527 0.01307 0.0
H649 H 0.20426 0.72861 0.96286 0.0
H650 H 0.17248 0.63279 0.00851 0.0
H651 H 0.14612 0.65791 0.01661 0.0
H652 H 0.18224 0.65823 0.02649 0.0
H653 H 0.15323 0.68638 0.94468 0.0
H654 H 0.16047 0.72463 0.94626 0.0
H655 H 0.1294 0.70967 0.95691 0.0
C656 C 0.40575 0.6048 0.21208 0.0
C657 C 0.39427 0.57756 0.20706 0.0
C658 C 0.3884 0.62662 0.21946 0.0
C659 C 0.35848 0.62161 0.22129 0.0
C660 C 0.34642 0.59461 0.21573 0.0
C661 C 0.36452 0.57275 0.20893 0.0
C662 C 0.40223 0.65499 0.2255 0.0
C663 C 0.31446 0.58879 0.21706 0.0
C664 C 0.32392 0.66993 0.25667 0.0
C665 C 0.31489 0.69335 0.24627 0.0
C666 C 0.33697 0.6457 0.24858 0.0
C667 C 0.34031 0.64456 0.22959 0.0
C668 C 0.32922 0.66718 0.21888 0.0
C669 C 0.31705 0.69157 0.22739 0.0
C670 C 0.34912 0.62239 0.26053 0.0
C671 C 0.33154 0.66629 0.19853 0.0
H672 H 0.42844 0.60924 0.21019 0.0
H673 H 0.35535 0.5518 0.20528 0.0
H674 H 0.39264 0.67293 0.2177 0.0
H675 H 0.39798 0.65949 0.24001 0.0
H676 H 0.42598 0.65505 0.22367 0.0
H677 H 0.30814 0.5675 0.21087 0.0
H678 H 0.30832 0.58924 0.23147 0.0
H679 H 0.30188 0.60597 0.21021 0.0
H680 H 0.32245 0.67128 0.27129 0.0
H681 H 0.30982 0.70955 0.2193 0.0
H682 H 0.37308 0.62284 0.26024 0.0
H683 H 0.34202 0.60072 0.25544 0.0
H684 H 0.34252 0.62522 0.27482 0.0
H685 H 0.35433 0.66989 0.19488 0.0
H686 H 0.31797 0.68311 0.19203 0.0
H687 H 0.32496 0.64477 0.19287 0.0
C688 C 0.45992 0.891 0.47526 0.0
C689 C 0.4522 0.90333 0.45863 0.0
C690 C 0.44145 0.87142 0.48352 0.0
C691 C 0.4144 0.86448 0.47514 0.0
C692 C 0.40664 0.8766 0.45829 0.0
C693 C 0.42574 0.8955 0.45016 0.0
C694 C 0.45071 0.85846 0.5013 0.0
C695 C 0.37788 0.86995 0.44892 0.0
C696 C 0.36754 0.79955 0.48396 0.0
C697 C 0.34549 0.81233 0.49409 0.0
C698 C 0.39168 0.81569 0.47904 0.0
C699 C 0.39345 0.8454 0.48404 0.0
C700 C 0.37247 0.85774 0.49548 0.0
C701 C 0.3489 0.84096 0.50053 0.0
C702 C 0.41411 0.80149 0.46732 0.0
C703 C 0.37334 0.88939 0.50099 0.0
H704 H 0.48018 0.89701 0.48202 0.0
H705 H 0.41986 0.90414 0.43708 0.0
H706 H 0.43643 0.86636 0.51218 0.0
H707 H 0.44855 0.83457 0.50045 0.0
H708 H 0.4734 0.86404 0.50524 0.0
H709 H 0.37498 0.8815 0.436 0.0
H710 H 0.37594 0.84639 0.44599 0.0
H711 H 0.36 0.87617 0.45794 0.0
H712 H 0.36525 0.77734 0.47911 0.0
H713 H 0.33205 0.85103 0.5084 0.0
H714 H 0.4362 0.80812 0.47192 0.0
H715 H 0.41095 0.80847 0.45315 0.0
H716 H 0.41259 0.77753 0.46742 0.0
H717 H 0.3953 0.89577 0.50596 0.0
H718 H 0.35768 0.89475 0.51171 0.0
H719 H 0.36802 0.90257 0.48901 0.0
C720 C 0.1662 0.91316 0.71217 0.0
C721 C 0.15791 0.93945 0.72034 0.0
C722 C 0.18176 0.8925 0.7219 0.0
C723 C 0.18997 0.89845 0.74022 0.0
C724 C 0.1827 0.92535 0.74843 0.0
C725 C 0.16651 0.94546 0.73843 0.0
C726 C 0.189 0.86403 0.71261 0.0
C727 C 0.19158 0.93267 0.76781 0.0
C728 C 0.20347 0.82919 0.76504 0.0
C729 C 0.23281 0.8246 0.76168 0.0
C730 C 0.18953 0.85449 0.75943 0.0
C731 C 0.2055 0.87587 0.75063 0.0
C732 C 0.23577 0.87277 0.74913 0.0
C733 C 0.24904 0.847 0.7545 0.0
C734 C 0.15719 0.85683 0.76122 0.0
C735 C 0.25373 0.89548 0.74035 0.0
H736 H 0.1604 0.9086 0.69807 0.0
H737 H 0.16007 0.9656 0.74494 0.0
H738 H 0.21276 0.86097 0.71261 0.0
H739 H 0.1797 0.8459 0.72012 0.0
H740 H 0.18062 0.86266 0.69838 0.0
H741 H 0.18683 0.95553 0.77159 0.0
H742 H 0.17991 0.91848 0.77705 0.0
H743 H 0.21503 0.92871 0.77003 0.0
H744 H 0.19077 0.81201 0.77061 0.0
H745 H 0.27183 0.84373 0.75211 0.0
H746 H 0.14655 0.85295 0.74774 0.0
H747 H 0.15102 0.87882 0.76601 0.0
H748 H 0.14872 0.84082 0.77071 0.0
H749 H 0.25024 0.89395 0.72544 0.0
H750 H 0.27717 0.89264 0.74342 0.0
H751 H 0.2472 0.91749 0.74491 0.0
C752 C 0.62242 0.3853 0.79504 0.0
C753 C 0.59317 0.38059 0.79065 0.0
C754 C 0.64398 0.36934 0.78642 0.0
C755 C 0.63612 0.34838 0.77286 0.0
C756 C 0.60661 0.34409 0.76797 0.0
C757 C 0.58539 0.36007 0.7771 0.0
C758 C 0.67517 0.37431 0.79226 0.0
C759 C 0.59749 0.32236 0.75334 0.0
C760 C 0.70158 0.32638 0.74626 0.0
C761 C 0.71155 0.30278 0.75621 0.0
C762 C 0.67534 0.33999 0.75038 0.0
C763 C 0.659 0.3299 0.76488 0.0
C764 C 0.66759 0.30444 0.77375 0.0
C765 C 0.69364 0.29106 0.7692 0.0
C766 C 0.66645 0.36661 0.74026 0.0
C767 C 0.65086 0.29295 0.78932 0.0
H768 H 0.62841 0.40094 0.80567 0.0
H769 H 0.56272 0.3566 0.77363 0.0
H770 H 0.68444 0.35413 0.79776 0.0
H771 H 0.68809 0.38011 0.78045 0.0
H772 H 0.67762 0.39179 0.80279 0.0
H773 H 0.57404 0.32377 0.74985 0.0
H774 H 0.60992 0.32571 0.74092 0.0
H775 H 0.60228 0.30018 0.7579 0.0
H776 H 0.71505 0.33539 0.73603 0.0
H777 H 0.70089 0.27256 0.7768 0.0
H778 H 0.67166 0.38614 0.74874 0.0
H779 H 0.6428 0.36663 0.73736 0.0
H780 H 0.6779 0.36823 0.72729 0.0
H781 H 0.65392 0.30766 0.80132 0.0
H782 H 0.65809 0.27097 0.7931 0.0
H783 H 0.6274 0.29217 0.78591 0.0
C784 C 0.6175 0.12156 0.0508 0.0
C785 C 0.62443 0.09245 0.05367 0.0
C786 C 0.63761 0.14062 0.04376 0.0
C787 C 0.66501 0.13017 0.03864 0.0
C788 C 0.67139 0.1004 0.04009 0.0
C789 C 0.65127 0.08199 0.0479 0.0
C790 C 0.63 0.17231 0.04271 0.0
C791 C 0.69991 0.08818 0.03409 0.0
C792 C 0.70585 0.18571 0.0123 0.0
C793 C 0.72291 0.19894 0.02614 0.0
C794 C 0.68865 0.1615 0.01577 0.0
C795 C 0.68769 0.15111 0.03362 0.0
C796 C 0.70611 0.16341 0.04736 0.0
C797 C 0.72384 0.18683 0.04336 0.0
C798 C 0.67034 0.14812 1.00056 0.0
C799 C 0.70535 0.15349 0.06667 0.0
H800 H 0.59649 0.12977 0.05448 0.0
H801 H 0.65711 0.05965 0.05002 0.0
H802 H 0.64521 0.18528 0.05149 0.0
H803 H 0.63218 0.17975 0.02867 0.0
H804 H 0.60762 0.17688 0.04704 0.0
H805 H 0.69932 0.06421 0.03278 0.0
H806 H 0.70589 0.09711 0.0209 0.0
H807 H 0.71718 0.09436 0.04415 0.0
H808 H 0.70523 0.19483 0.99892 0.0
H809 H 0.73685 0.197 0.05415 0.0
H810 H 0.64763 0.15534 0.00184 0.0
H811 H 0.67054 0.12418 0.00123 0.0
H812 H 0.67791 0.15447 0.98708 0.0
H813 H 0.68388 0.15848 0.07233 0.0
H814 H 0.72223 0.16412 0.0755 0.0
H815 H 0.70838 0.12976 0.06718 0.0
C816 C 0.95752 0.16132 0.31019 0.0
C817 C 0.95019 0.13234 0.31307 0.0
C818 C 0.93758 0.18038 0.30223 0.0
C819 C 0.90997 0.17003 0.29653 0.0
C820 C 0.90245 0.14086 0.29932 0.0
C821 C 0.92242 0.12257 0.30782 0.0
C822 C 0.94607 0.21154 0.29986 0.0
C823 C 0.87333 0.12884 0.2932 0.0
C824 C 0.84392 0.2166 0.28834 0.0
C825 C 0.84274 0.21736 0.26938 0.0
C826 C 0.86698 0.20312 0.29749 0.0
C827 C 0.88881 0.18931 0.28737 0.0
C828 C 0.88844 0.19125 0.26827 0.0
C829 C 0.86558 0.20564 0.25951 0.0
C830 C 0.86712 0.20231 0.31791 0.0
C831 C 0.91095 0.17627 0.25696 0.0
H832 H 0.97897 0.16913 0.31395 0.0
H833 H 0.91609 0.10055 0.3104 0.0
H834 H 0.94637 0.2164 0.28525 0.0
H835 H 0.92987 0.22608 0.30612 0.0
H836 H 0.96769 0.21662 0.30602 0.0
H837 H 0.8713 0.10538 0.29576 0.0
H838 H 0.85589 0.14044 0.30039 0.0
H839 H 0.86976 0.13222 0.27849 0.0
H840 H 0.82639 0.22587 0.29601 0.0
H841 H 0.86462 0.206 0.24484 0.0
H842 H 0.88895 0.20757 0.32364 0.0
H843 H 0.86159 0.18021 0.32217 0.0
H844 H 0.85128 0.21767 0.3238 0.0
H845 H 0.933 0.18174 0.26219 0.0
H846 H 0.90916 0.18212 0.24248 0.0
H847 H 0.90833 0.15251 0.25785 0.0
C848 C 0.88801 0.45098 0.54229 0.0
C849 C 0.91263 0.44533 0.55308 0.0
C850 C 0.86953 0.42842 0.53625 0.0
C851 C 0.87563 0.39978 0.54147 0.0
C852 C 0.9006 0.39405 0.55228 0.0
C853 C 0.91886 0.41687 0.55785 0.0
C854 C 0.84336 0.43521 0.5245 0.0
C855 C 0.90769 0.36388 0.55838 0.0
C856 C 0.8189 0.34184 0.54575 0.0
C857 C 0.82593 0.32269 0.5315 0.0
C858 C 0.83358 0.36817 0.54842 0.0
C859 C 0.85557 0.37566 0.53645 0.0
C860 C 0.861 0.35764 0.52115 0.0
C861 C 0.8462 0.33126 0.5189 0.0
C862 C 0.82719 0.38675 0.56494 0.0
C863 C 0.88391 0.36518 0.50788 0.0
H864 H 0.88329 0.47303 0.53856 0.0
H865 H 0.93765 0.41257 0.56643 0.0
H866 H 0.84316 0.42142 0.51199 0.0
H867 H 0.82339 0.43028 0.5318 0.0
H868 H 0.84275 0.45826 0.52065 0.0
H869 H 0.92812 0.3631 0.56658 0.0
H870 H 0.88991 0.35561 0.56661 0.0
H871 H 0.90968 0.34903 0.54645 0.0
H872 H 0.80311 0.33555 0.55549 0.0
H873 H 0.85152 0.31678 0.50771 0.0
H874 H 0.82499 0.40976 0.56131 0.0
H875 H 0.84545 0.3853 0.57492 0.0
H876 H 0.80712 0.37989 0.57156 0.0
H877 H 0.88241 0.38828 0.5043 0.0
H878 H 0.88217 0.35165 0.49526 0.0
H879 H 0.9056 0.36175 0.51421 0.0
C880 C 0.62623 0.13413 0.45915 0.0
C881 C 0.63294 0.10459 0.45909 0.0
C882 C 0.64436 0.15443 0.46819 0.0
C883 C 0.66953 0.14483 0.47752 0.0
C884 C 0.67611 0.11496 0.47773 0.0
C885 C 0.6578 0.09521 0.46842 0.0
C886 C 0.63688 0.18614 0.46751 0.0
C887 C 0.7026 0.10385 0.4877 0.0
C888 C 0.73431 0.19347 0.4869 0.0
C889 C 0.73159 0.20022 0.50539 0.0
C890 C 0.71349 0.17657 0.47744 0.0
C891 C 0.68954 0.1659 0.48675 0.0
C892 C 0.68603 0.1736 0.50522 0.0
C893 C 0.70704 0.19083 0.51432 0.0
C894 C 0.71776 0.16914 0.45766 0.0
C895 C 0.66084 0.16248 0.51562 0.0
H896 H 0.60711 0.14139 0.45179 0.0
H897 H 0.66279 0.07232 0.46855 0.0
H898 H 0.63531 0.19544 0.48143 0.0
H899 H 0.6543 0.198 0.4608 0.0
H900 H 0.61614 0.18998 0.46004 0.0
H901 H 0.70409 0.07989 0.48702 0.0
H902 H 0.72236 0.11296 0.48185 0.0
H903 H 0.70234 0.11101 0.50215 0.0
H904 H 0.75309 0.20088 0.47987 0.0
H905 H 0.70479 0.19594 0.52861 0.0
H906 H 0.69781 0.1738 0.4496 0.0
H907 H 0.72221 0.14568 0.45598 0.0
H908 H 0.73599 0.18132 0.45201 0.0
H909 H 0.64017 0.16695 0.50828 0.0
H910 H 0.65998 0.17232 0.52947 0.0
H911 H 0.66262 0.13868 0.51678 0.0
C912 C 0.93011 0.12459 0.69391 0.0
C913 C 0.95447 0.122 0.7055 0.0
C914 C 0.90731 0.14322 0.69832 0.0
C915 C 0.90911 0.15999 0.71458 0.0
C916 C 0.93369 0.15766 0.72628 0.0
C917 C 0.95597 0.13856 0.72166 0.0
C918 C 0.88136 0.145 0.68556 0.0
C919 C 0.93648 0.17542 0.74368 0.0
C920 C 0.86514 0.2286 0.72034 0.0
C921 C 0.84408 0.2198 0.73236 0.0
C922 C 0.88596 0.2091 0.71395 0.0
C923 C 0.88535 0.18004 0.71948 0.0
C924 C 0.86311 0.17064 0.73073 0.0
C925 C 0.84287 0.1907 0.73716 0.0
C926 C 0.9095 0.21997 0.70209 0.0
C927 C 0.86139 0.13968 0.73659 0.0
H928 H 0.92901 0.11234 0.68121 0.0
H929 H 0.97453 0.13646 0.73078 0.0
H930 H 0.86141 0.13976 0.69282 0.0
H931 H 0.87895 0.16735 0.68067 0.0
H932 H 0.88304 0.13002 0.67364 0.0
H933 H 0.95729 0.17156 0.75107 0.0
H934 H 0.93487 0.19877 0.74074 0.0
H935 H 0.91852 0.17019 0.7527 0.0
H936 H 0.86629 0.25108 0.71663 0.0
H937 H 0.82649 0.18372 0.74633 0.0
H938 H 0.91123 0.20598 0.68976 0.0
H939 H 0.9306 0.21907 0.70955 0.0
H940 H 0.90568 0.24258 0.69791 0.0
H941 H 0.86242 0.12469 0.72466 0.0
H942 H 0.84126 0.13524 0.7439 0.0
H943 H 0.88015 0.13481 0.74567 0.0
C944 C 0.88092 0.43152 0.96581 0.0
C945 C 0.9054 0.42523 0.95569 0.0
C946 C 0.86478 0.40939 0.97334 0.0
C947 C 0.87315 0.38022 0.97049 0.0
C948 C 0.89779 0.37371 0.9602 0.0
C949 C 0.91376 0.39634 0.95301 0.0
C950 C 0.83884 0.41727 0.98441 0.0
C951 C 0.9071 0.34286 0.95667 0.0
C952 C 0.84372 0.32836 0.00444 0.0
C953 C 0.81824 0.31867 0.99551 0.0
C954 C 0.86255 0.34742 0.99612 0.0
C955 C 0.85593 0.35673 0.97838 0.0
C956 C 0.83127 0.34552 0.96886 0.0
C957 C 0.81263 0.32675 0.97758 0.0
C958 C 0.88857 0.35899 0.00675 0.0
C959 C 0.82374 0.35453 0.94981 0.0
H960 H 0.87461 0.45386 0.96804 0.0
H961 H 0.93254 0.39145 0.94503 0.0
H962 H 0.81907 0.40727 0.97816 0.0
H963 H 0.8415 0.40865 0.99824 0.0
H964 H 0.83551 0.44101 0.98557 0.0
H965 H 0.92672 0.34145 0.94835 0.0
H966 H 0.91161 0.33209 0.96969 0.0
H967 H 0.88938 0.33062 0.94956 0.0
H968 H 0.84825 0.32225 0.01829 0.0
H969 H 0.79312 0.31918 0.97052 0.0
H970 H 0.88544 0.38233 0.00993 0.0
H971 H 0.90829 0.35695 0.99862 0.0
H972 H 0.89221 0.34759 0.01967 0.0
H973 H 0.81702 0.37755 0.95 0.0
H974 H 0.80589 0.34134 0.94355 0.0
H975 H 0.84289 0.35262 0.94115 0.0
C976 C 0.59833 0.36908 0.21774 0.0
C977 C 0.59984 0.39928 0.21645 0.0
C978 C 0.62171 0.35317 0.22466 0.0
C979 C 0.64688 0.36782 0.23121 0.0
C980 C 0.64773 0.39838 0.23135 0.0
C981 C 0.62448 0.41372 0.22367 0.0
C982 C 0.62005 0.32054 0.22399 0.0
C983 C 0.67375 0.41485 0.23885 0.0
C984 C 0.69943 0.31891 0.25624 0.0
C985 C 0.71845 0.31134 0.24244 0.0
C986 C 0.67715 0.33903 0.25325 0.0
C987 C 0.67326 0.35092 0.23587 0.0
C988 C 0.69324 0.34434 0.22219 0.0
C989 C 0.71585 0.32503 0.22575 0.0
C990 C 0.65704 0.34649 0.26841 0.0
C991 C 0.68957 0.35601 0.20334 0.0
H992 H 0.57912 0.35765 0.21287 0.0
H993 H 0.62623 0.43696 0.22273 0.0
H994 H 0.6368 0.31174 0.2149 0.0
H995 H 0.62449 0.31185 0.23763 0.0
H996 H 0.59859 0.31249 0.219 0.0
H997 H 0.66894 0.43816 0.24109 0.0
H998 H 0.68145 0.4057 0.25185 0.0
H999 H 0.69165 0.41293 0.22921 0.0
H1000 H 0.70145 0.30853 0.2692 0.0
H1001 H 0.73034 0.31919 0.21496 0.0
H1002 H 0.63612 0.33516 0.26598 0.0
H1003 H 0.65254 0.37005 0.26894 0.0
H1004 H 0.6661 0.33999 0.28177 0.0
H1005 H 0.66907 0.34773 0.19701 0.0
H1006 H 0.70763 0.34969 0.19446 0.0
H1007 H 0.68814 0.37992 0.20393 0.0
C1008 C 0.11826 0.90065 0.40889 0.0
C1009 C 0.1327 0.92426 0.40172 0.0
C1010 C 0.13317 0.8803 0.41935 0.0
C1011 C 0.16323 0.8837 0.42276 0.0
C1012 C 0.17807 0.90706 0.41517 0.0
C1013 C 0.16263 0.92706 0.40474 0.0
C1014 C 0.11659 0.85569 0.42723 0.0
C1015 C 0.21015 0.91135 0.41845 0.0
C1016 C 0.19657 0.85257 0.46545 0.0
C1017 C 0.21042 0.82773 0.4587 0.0
C1018 C 0.18085 0.87071 0.45391 0.0
C1019 C 0.17886 0.86388 0.43514 0.0
C1020 C 0.19229 0.83857 0.42825 0.0
C1021 C 0.20793 0.82077 0.44012 0.0
C1022 C 0.16678 0.89749 0.46179 0.0
C1023 C 0.19054 0.83057 0.40831 0.0
H1024 H 0.09508 0.89852 0.40678 0.0
H1025 H 0.17398 0.94501 0.399 0.0
H1026 H 0.12697 0.83474 0.42374 0.0
H1027 H 0.11696 0.85798 0.44222 0.0
H1028 H 0.09371 0.85498 0.42229 0.0
H1029 H 0.21871 0.92975 0.41084 0.0
H1030 H 0.21474 0.91545 0.43311 0.0
H1031 H 0.22201 0.89147 0.41444 0.0
H1032 H 0.1983 0.85815 0.47978 0.0
H1033 H 0.21854 0.80163 0.43477 0.0
H1034 H 0.14329 0.89734 0.4584 0.0
H1035 H 0.17607 0.91704 0.45576 0.0
H1036 H 0.16975 0.89933 0.47675 0.0
H1037 H 0.16761 0.82909 0.40361 0.0
H1038 H 0.20133 0.80966 0.4052 0.0
H1039 H 0.20085 0.84768 0.40043 0.0
C1040 C 0.10465 0.64999 0.66475 0.0
C1041 C 0.1103 0.62189 0.6582 0.0
C1042 C 0.12416 0.66437 0.67672 0.0
C1043 C 0.14982 0.65023 0.68241 0.0
C1044 C 0.15582 0.62201 0.67572 0.0
C1045 C 0.13606 0.60823 0.66363 0.0
C1046 C 0.1171 0.69454 0.68351 0.0
C1047 C 0.18294 0.60622 0.68151 0.0
C1048 C 0.21151 0.69604 0.70227 0.0
C1049 C 0.20758 0.69345 0.72093 0.0
C1050 C 0.19294 0.68198 0.68956 0.0
C1051 C 0.17007 0.66475 0.69567 0.0
C1052 C 0.16627 0.66165 0.71446 0.0
C1053 C 0.185 0.67613 0.72687 0.0
C1054 C 0.19751 0.68593 0.66961 0.0
C1055 C 0.14225 0.64324 0.72148 0.0
H1056 H 0.08464 0.66055 0.66082 0.0
H1057 H 0.14083 0.58672 0.65839 0.0
H1058 H 0.11478 0.69467 0.69842 0.0
H1059 H 0.13502 0.70953 0.68061 0.0
H1060 H 0.09682 0.70295 0.67723 0.0
H1061 H 0.18455 0.58447 0.67489 0.0
H1062 H 0.20229 0.619 0.67817 0.0
H1063 H 0.18341 0.60369 0.69641 0.0
H1064 H 0.22883 0.70946 0.69756 0.0
H1065 H 0.18184 0.67394 0.74126 0.0
H1066 H 0.17809 0.69603 0.66332 0.0
H1067 H 0.20049 0.66462 0.6627 0.0
H1068 H 0.21659 0.69969 0.66708 0.0
H1069 H 0.121 0.65181 0.71686 0.0
H1070 H 0.14266 0.64255 0.73651 0.0
H1071 H 0.14398 0.62083 0.71592 0.0
C1072 C 0.43781 0.57963 0.91659 0.0
C1073 C 0.42208 0.55809 0.90693 0.0
C1074 C 0.42377 0.601 0.92687 0.0
C1075 C 0.39327 0.60071 0.9276 0.0
C1076 C 0.37728 0.57861 0.91828 0.0
C1077 C 0.39188 0.55759 0.90801 0.0
C1078 C 0.44156 0.6242 0.93666 0.0
C1079 C 0.3447 0.57755 0.91881 0.0
C1080 C 0.35767 0.64319 0.96556 0.0
C1081 C 0.34873 0.6683 0.95673 0.0
C1082 C 0.37217 0.62099 0.95625 0.0
C1083 C 0.37803 0.62404 0.9377 0.0
C1084 C 0.36937 0.64942 0.92874 0.0
C1085 C 0.35475 0.67121 0.93835 0.0
C1086 C 0.38098 0.59417 0.96623 0.0
C1087 C 0.37543 0.65351 0.90898 0.0
H1088 H 0.46119 0.57986 0.91605 0.0
H1089 H 0.37957 0.54121 0.90041 0.0
H1090 H 0.43566 0.6457 0.93137 0.0
H1091 H 0.43686 0.62464 0.95131 0.0
H1092 H 0.46514 0.62091 0.93509 0.0
H1093 H 0.33559 0.55816 0.91154 0.0
H1094 H 0.33766 0.57751 0.93305 0.0
H1095 H 0.33543 0.59713 0.91254 0.0
H1096 H 0.35303 0.64068 0.97974 0.0
H1097 H 0.34798 0.69053 0.93142 0.0
H1098 H 0.40469 0.59102 0.96556 0.0
H1099 H 0.37057 0.57487 0.95964 0.0
H1100 H 0.37494 0.59522 0.98068 0.0
H1101 H 0.39901 0.65207 0.90679 0.0
H1102 H 0.36754 0.67465 0.90407 0.0
H1103 H 0.36492 0.63602 0.90062 0.0
C1104 C 0.44414 0.89713 0.16689 0.0
C1105 C 0.43206 0.91954 0.15676 0.0
C1106 C 0.42766 0.88232 0.17937 0.0
C1107 C 0.39833 0.88994 0.18166 0.0
C1108 C 0.38577 0.91194 0.17105 0.0
C1109 C 0.40284 0.92657 0.15879 0.0
C1110 C 0.4419 0.85917 0.19054 0.0
C1111 C 0.35449 0.92044 0.17294 0.0
C1112 C 0.35044 0.83676 0.20547 0.0
C1113 C 0.35023 0.84875 0.22311 0.0
C1114 C 0.36566 0.85013 0.19175 0.0
C1115 C 0.38124 0.87593 0.19582 0.0
C1116 C 0.38092 0.88823 0.21356 0.0
C1117 C 0.36531 0.87457 0.22695 0.0
C1118 C 0.36526 0.83655 0.17294 0.0
C1119 C 0.39744 0.9156 0.21848 0.0
H1120 H 0.46679 0.89183 0.16549 0.0
H1121 H 0.39335 0.94367 0.15083 0.0
H1122 H 0.44204 0.86583 0.20508 0.0
H1123 H 0.42946 0.83871 0.18912 0.0
H1124 H 0.46451 0.85492 0.18656 0.0
H1125 H 0.34755 0.93669 0.1629 0.0
H1126 H 0.34038 0.90112 0.1712 0.0
H1127 H 0.35109 0.92961 0.18674 0.0
H1128 H 0.33878 0.81685 0.20237 0.0
H1129 H 0.36538 0.88394 0.24055 0.0
H1130 H 0.38752 0.83041 0.16919 0.0
H1131 H 0.35734 0.85238 0.16293 0.0
H1132 H 0.35134 0.81698 0.17184 0.0
H1133 H 0.42078 0.91232 0.21607 0.0
H1134 H 0.39485 0.92246 0.23286 0.0
H1135 H 0.38998 0.9334 0.20973 0.0
C1136 C 0.07456 0.66299 0.86575 0.0
C1137 C 0.07778 0.633 0.8672 0.0
C1138 C 0.09173 0.6787 0.85404 0.0
C1139 C 0.11228 0.66396 0.84336 0.0
C1140 C 0.11577 0.63371 0.8449 0.0
C1141 C 0.09859 0.61864 0.85686 0.0
C1142 C 0.08766 0.71097 0.85295 0.0
C1143 C 0.1372 0.61713 0.8336 0.0
C1144 C 0.13613 0.69583 0.79929 0.0
C1145 C 0.16406 0.70573 0.80397 0.0
C1146 C 0.11881 0.68277 0.81209 0.0
C1147 C 0.12953 0.67984 0.83008 0.0
C1148 C 0.1573 0.69068 0.83506 0.0
C1149 C 0.17432 0.70334 0.82192 0.0
C1150 C 0.08941 0.67125 0.8062 0.0
C1151 C 0.16932 0.68828 0.85416 0.0
H1152 H 0.05865 0.67418 0.87384 0.0
H1153 H 0.10087 0.5954 0.85776 0.0
H1154 H 0.10859 0.72221 0.85559 0.0
H1155 H 0.08011 0.71655 0.83909 0.0
H1156 H 0.07175 0.71937 0.86277 0.0
H1157 H 0.13766 0.59376 0.83667 0.0
H1158 H 0.13162 0.61942 0.81901 0.0
H1159 H 0.15922 0.62615 0.83596 0.0
H1160 H 0.12803 0.69753 0.78546 0.0
H1161 H 0.19581 0.71109 0.82568 0.0
H1162 H 0.07254 0.68053 0.815 0.0
H1163 H 0.0889 0.64745 0.80764 0.0
H1164 H 0.08378 0.67626 0.7919 0.0
H1165 H 0.15382 0.69745 0.86396 0.0
H1166 H 0.19036 0.69964 0.85617 0.0
H1167 H 0.17242 0.66519 0.85738 0.0
C1168 C 0.3824 0.5867 0.1149 0.0
C1169 C 0.40112 0.56568 0.10788 0.0
C1170 C 0.36524 0.60365 0.10335 0.0
C1171 C 0.36721 0.59968 0.08435 0.0
C1172 C 0.386 0.57838 0.07721 0.0
C1173 C 0.40261 0.56155 0.08907 0.0
C1174 C 0.3452 0.62591 0.11144 0.0
C1175 C 0.389 0.57375 0.05703 0.0
C1176 C 0.3091 0.62608 0.05145 0.0
C1177 C 0.32164 0.65152 0.04532 0.0
C1178 C 0.32317 0.60952 0.0647 0.0
C1179 C 0.35053 0.61847 0.07182 0.0
C1180 C 0.36287 0.64457 0.06609 0.0
C1181 C 0.34821 0.66085 0.053 0.0
C1182 C 0.30917 0.58199 0.07067 0.0
C1183 C 0.39212 0.65474 0.07325 0.0
H1184 H 0.38101 0.58972 0.12946 0.0
H1185 H 0.41731 0.54552 0.08361 0.0
H1186 H 0.35167 0.64785 0.10737 0.0
H1187 H 0.32279 0.62219 0.10619 0.0
H1188 H 0.34529 0.62543 0.12647 0.0
H1189 H 0.40422 0.55596 0.05369 0.0
H1190 H 0.36764 0.56863 0.05057 0.0
H1191 H 0.39689 0.59389 0.05097 0.0
H1192 H 0.2885 0.61881 0.04567 0.0
H1193 H 0.35809 0.68048 0.04837 0.0
H1194 H 0.30851 0.58172 0.08567 0.0
H1195 H 0.32219 0.56312 0.06621 0.0
H1196 H 0.28682 0.57933 0.06501 0.0
H1197 H 0.39245 0.65601 0.08827 0.0
H1198 H 0.39802 0.67626 0.06811 0.0
H1199 H 0.40891 0.63894 0.06918 0.0
C1200 C 0.46374 0.872 0.3545 0.0
C1201 C 0.45213 0.8976 0.36184 0.0
C1202 C 0.44651 0.85273 0.34394 0.0
C1203 C 0.41704 0.85934 0.34057 0.0
C1204 C 0.40505 0.88482 0.34824 0.0
C1205 C 0.42271 0.90358 0.35883 0.0
C1206 C 0.45998 0.82568 0.33604 0.0
C1207 C 0.37369 0.89259 0.34497 0.0
C1208 C 0.37789 0.82931 0.29847 0.0
C1209 C 0.36039 0.80788 0.30565 0.0
C1210 C 0.39702 0.84566 0.30963 0.0
C1211 C 0.39888 0.84033 0.3284 0.0
C1212 C 0.38215 0.81799 0.33564 0.0
C1213 C 0.36302 0.80207 0.32418 0.0
C1214 C 0.41446 0.86938 0.30142 0.0
C1215 C 0.38379 0.81152 0.35557 0.0
H1216 H 0.48651 0.86737 0.35662 0.0
H1217 H 0.41348 0.92305 0.36474 0.0
H1218 H 0.44728 0.8064 0.33962 0.0
H1219 H 0.45964 0.82663 0.32105 0.0
H1220 H 0.48269 0.82277 0.34089 0.0
H1221 H 0.36755 0.91283 0.35231 0.0
H1222 H 0.36938 0.8954 0.33027 0.0
H1223 H 0.35956 0.87483 0.34932 0.0
H1224 H 0.37608 0.83395 0.28418 0.0
H1225 H 0.3497 0.78545 0.32983 0.0
H1226 H 0.43776 0.86662 0.30484 0.0
H1227 H 0.40781 0.89066 0.30717 0.0
H1228 H 0.41163 0.86977 0.28644 0.0
H1229 H 0.40658 0.80819 0.36005 0.0
H1230 H 0.37107 0.79203 0.3588 0.0
H1231 H 0.37542 0.83021 0.36353 0.0
C1232 C 0.15608 0.95067 0.59517 0.0
C1233 C 0.16387 0.9522 0.61364 0.0
C1234 C 0.17301 0.93543 0.58273 0.0
C1235 C 0.19849 0.92148 0.58888 0.0
C1236 C 0.20703 0.92368 0.60742 0.0
C1237 C 0.18957 0.93904 0.61961 0.0
C1238 C 0.16317 0.93365 0.56306 0.0
C1239 C 0.23412 0.90915 0.61444 0.0
C1240 C 0.22044 0.85748 0.55941 0.0
C1241 C 0.24125 0.86977 0.54846 0.0
C1242 C 0.20721 0.87381 0.5731 0.0
C1243 C 0.21501 0.90316 0.57598 0.0
C1244 C 0.23683 0.91543 0.56549 0.0
C1245 C 0.24968 0.89858 0.55182 0.0
C1246 C 0.184 0.85993 0.58397 0.0
C1247 C 0.24582 0.94662 0.56827 0.0
H1248 H 0.13658 0.96135 0.59041 0.0
H1249 H 0.19564 0.94008 0.63389 0.0
H1250 H 0.18059 0.94125 0.55431 0.0
H1251 H 0.15845 0.91083 0.55904 0.0
H1252 H 0.14348 0.94674 0.56037 0.0
H1253 H 0.23895 0.91483 0.6289 0.0
H1254 H 0.23166 0.88534 0.61302 0.0
H1255 H 0.25287 0.91532 0.60632 0.0
H1256 H 0.21389 0.83518 0.55702 0.0
H1257 H 0.26586 0.90821 0.5435 0.0
H1258 H 0.16289 0.87035 0.58097 0.0
H1259 H 0.18875 0.86317 0.59868 0.0
H1260 H 0.18189 0.83637 0.58093 0.0
H1261 H 0.2277 0.96094 0.5642 0.0
H1262 H 0.26495 0.95209 0.56025 0.0
H1263 H 0.25092 0.95138 0.5828 0.0
C1264 C 0.60864 0.3471 0.8898 0.0
C1265 C 0.58113 0.35678 0.89472 0.0
C1266 C 0.62667 0.33249 0.90212 0.0
C1267 C 0.61691 0.3273 0.91975 0.0
C1268 C 0.58875 0.33592 0.92454 0.0
C1269 C 0.57127 0.35065 0.91202 0.0
C1270 C 0.65658 0.32362 0.8965 0.0
C1271 C 0.57749 0.33071 0.94319 0.0
C1272 C 0.65637 0.27384 0.94992 0.0
C1273 C 0.67307 0.29243 0.96128 0.0
C1274 C 0.63821 0.28479 0.93617 0.0
C1275 C 0.63687 0.31501 0.93367 0.0
C1276 C 0.654 0.33381 0.94492 0.0
C1277 C 0.67179 0.32232 0.9586 0.0
C1278 C 0.62012 0.26411 0.92449 0.0
C1279 C 0.65332 0.36616 0.94264 0.0
H1280 H 0.61627 0.35134 0.87638 0.0
H1281 H 0.55027 0.35838 0.91609 0.0
H1282 H 0.67297 0.33622 0.9046 0.0
H1283 H 0.66031 0.30045 0.89925 0.0
H1284 H 0.66008 0.32723 0.88191 0.0
H1285 H 0.55427 0.3364 0.94424 0.0
H1286 H 0.58032 0.3077 0.94669 0.0
H1287 H 0.59004 0.34388 0.9534 0.0
H1288 H 0.65721 0.25072 0.95189 0.0
H1289 H 0.68472 0.33686 0.96723 0.0
H1290 H 0.62453 0.26718 0.90998 0.0
H1291 H 0.59685 0.26869 0.92636 0.0
H1292 H 0.62433 0.24117 0.92776 0.0
H1293 H 0.65878 0.37146 0.92858 0.0
H1294 H 0.66865 0.37772 0.95213 0.0
H1295 H 0.63122 0.37445 0.94501 0.0
C1296 C 0.62279 0.10204 0.17147 0.0
C1297 C 0.63153 0.08556 0.15634 0.0
C1298 C 0.64253 0.11908 0.18172 0.0
C1299 C 0.67208 0.1187 0.1773 0.0
C1300 C 0.68139 0.10123 0.1626 0.0
C1301 C 0.66096 0.08536 0.15207 0.0
C1302 C 0.63162 0.13802 0.19704 0.0
C1303 C 0.71289 0.09957 0.15786 0.0
C1304 C 0.71669 0.18418 0.19221 0.0
C1305 C 0.72787 0.1756 0.20902 0.0
C1306 C 0.69879 0.16568 0.1816 0.0
C1307 C 0.6929 0.13756 0.18769 0.0
C1308 C 0.70544 0.12827 0.20424 0.0
C1309 C 0.7223 0.14769 0.21494 0.0
C1310 C 0.68502 0.17675 0.16436 0.0
C1311 C 0.70057 0.09808 0.21082 0.0
H1312 H 0.6004 0.1018 0.17535 0.0
H1313 H 0.66812 0.0732 0.14031 0.0
H1314 H 0.64204 0.13178 0.21004 0.0
H1315 H 0.63742 0.16091 0.19482 0.0
H1316 H 0.60781 0.13653 0.19833 0.0
H1317 H 0.71698 0.0827 0.14727 0.0
H1318 H 0.72015 0.1207 0.15286 0.0
H1319 H 0.72633 0.09483 0.17009 0.0
H1320 H 0.72076 0.20593 0.18776 0.0
H1321 H 0.73113 0.14108 0.22793 0.0
H1322 H 0.66116 0.17691 0.16551 0.0
H1323 H 0.69015 0.16224 0.15271 0.0
H1324 H 0.6923 0.19897 0.16136 0.0
H1325 H 0.67769 0.09547 0.21455 0.0
H1326 H 0.71455 0.09321 0.22282 0.0
H1327 H 0.7049 0.08192 0.19987 0.0
C1328 C 0.97123 0.15162 0.41885 0.0
C1329 C 0.96526 0.12213 0.41593 0.0
C1330 C 0.95603 0.16812 0.43166 0.0
C1331 C 0.93465 0.15468 0.44192 0.0
C1332 C 0.92836 0.12497 0.43889 0.0
C1333 C 0.94364 0.10909 0.42586 0.0
C1334 C 0.96306 0.19983 0.43434 0.0
C1335 C 0.90593 0.10978 0.44971 0.0
C1336 C 0.91574 0.1871 0.48782 0.0
C1337 C 0.88885 0.19987 0.48404 0.0
C1338 C 0.93109 0.17273 0.47417 0.0
C1339 C 0.91942 0.17138 0.45625 0.0
C1340 C 0.89273 0.18501 0.45223 0.0
C1341 C 0.87766 0.19894 0.4662 0.0
C1342 C 0.95938 0.15824 0.47903 0.0
C1343 C 0.8798 0.18435 0.43324 0.0
H1344 H 0.98775 0.1618 0.41106 0.0
H1345 H 0.93921 0.08622 0.42376 0.0
H1346 H 0.94318 0.21295 0.43258 0.0
H1347 H 0.97151 0.20405 0.44835 0.0
H1348 H 0.97937 0.20727 0.42471 0.0
H1349 H 0.90325 0.08671 0.44546 0.0
H1350 H 0.91221 0.11088 0.46431 0.0
H1351 H 0.88475 0.12076 0.44818 0.0
H1352 H 0.9245 0.18762 0.50158 0.0
H1353 H 0.85695 0.20888 0.46316 0.0
H1354 H 0.97679 0.16632 0.47045 0.0
H1355 H 0.95752 0.13459 0.47635 0.0
H1356 H 0.96589 0.162 0.49348 0.0
H1357 H 0.89566 0.19256 0.4236 0.0
H1358 H 0.85978 0.19748 0.43214 0.0
H1359 H 0.87457 0.16174 0.42898 0.0
C1360 C 0.87768 0.46418 0.65038 0.0
C1361 C 0.90756 0.45947 0.64971 0.0
C1362 C 0.86039 0.44795 0.66174 0.0
C1363 C 0.87341 0.42688 0.67287 0.0
C1364 C 0.90356 0.42194 0.67213 0.0
C1365 C 0.92022 0.43817 0.66048 0.0
C1366 C 0.82827 0.45351 0.66195 0.0
C1367 C 0.91835 0.39995 0.68396 0.0
C1368 C 0.83806 0.4049 0.71624 0.0
C1369 C 0.82764 0.37717 0.71152 0.0
C1370 C 0.85231 0.42164 0.70364 0.0
C1371 C 0.85586 0.41057 0.68579 0.0
C1372 C 0.84427 0.38313 0.68071 0.0
C1373 C 0.83049 0.36665 0.69367 0.0
C1374 C 0.86461 0.45067 0.70965 0.0
C1375 C 0.84723 0.37079 0.66173 0.0
H1376 H 0.86783 0.4805 0.64194 0.0
H1377 H 0.94337 0.43473 0.66015 0.0
H1378 H 0.81624 0.43308 0.6591 0.0
H1379 H 0.82212 0.46152 0.67559 0.0
H1380 H 0.82131 0.46964 0.65184 0.0
H1381 H 0.9419 0.39846 0.68158 0.0
H1382 H 0.91523 0.40578 0.69844 0.0
H1383 H 0.90855 0.3783 0.6814 0.0
H1384 H 0.83604 0.41318 0.73 0.0
H1385 H 0.82232 0.34532 0.68989 0.0
H1386 H 0.85677 0.46772 0.70046 0.0
H1387 H 0.88853 0.45013 0.70893 0.0
H1388 H 0.85876 0.4568 0.72372 0.0
H1389 H 0.83962 0.38666 0.65166 0.0
H1390 H 0.83482 0.35039 0.6595 0.0
H1391 H 0.87032 0.36635 0.65913 0.0
C1392 C 0.62089 0.09373 0.33748 0.0
C1393 C 0.61727 0.1011 0.35583 0.0
C1394 C 0.63445 0.11271 0.32587 0.0
C1395 C 0.64443 0.13989 0.33269 0.0
C1396 C 0.6406 0.14765 0.35113 0.0
C1397 C 0.62715 0.12812 0.36249 0.0
C1398 C 0.6382 0.10359 0.30629 0.0
C1399 C 0.65088 0.17648 0.35887 0.0
C1400 C 0.70319 0.17541 0.30605 0.0
C1401 C 0.68716 0.19438 0.29518 0.0
C1402 C 0.68964 0.15806 0.31862 0.0
C1403 C 0.65934 0.15987 0.3205 0.0
C1404 C 0.64315 0.17968 0.31003 0.0
C1405 C 0.65724 0.19662 0.29744 0.0
C1406 C 0.70763 0.13709 0.32946 0.0
C1407 C 0.61084 0.18242 0.31179 0.0
H1408 H 0.61285 0.07316 0.33212 0.0
H1409 H 0.62475 0.13388 0.37669 0.0
H1410 H 0.62729 0.11925 0.29728 0.0
H1411 H 0.66148 0.10361 0.30308 0.0
H1412 H 0.62926 0.0817 0.30313 0.0
H1413 H 0.64546 0.1796 0.37334 0.0
H1414 H 0.67464 0.17828 0.35766 0.0
H1415 H 0.64101 0.19428 0.35105 0.0
H1416 H 0.72632 0.17351 0.30441 0.0
H1417 H 0.64471 0.21132 0.28918 0.0
H1418 H 0.70098 0.11461 0.32579 0.0
H1419 H 0.70396 0.14044 0.34414 0.0
H1420 H 0.73111 0.13935 0.32707 0.0
H1421 H 0.6002 0.16187 0.30733 0.0
H1422 H 0.6017 0.20018 0.30358 0.0
H1423 H 0.6054 0.18647 0.32617 0.0
C1424 C 0.93152 0.10043 0.61549 0.0
C1425 C 0.95874 0.11326 0.61865 0.0
C1426 C 0.90968 0.1146 0.60563 0.0
C1427 C 0.91507 0.14243 0.59896 0.0
C1428 C 0.94224 0.15578 0.60242 0.0
C1429 C 0.9638 0.14097 0.61211 0.0
C1430 C 0.88101 0.09963 0.60213 0.0
C1431 C 0.9487 0.18556 0.59563 0.0
C1432 C 0.8722 0.16912 0.55827 0.0
C1433 C 0.85214 0.18769 0.56643 0.0
C1434 C 0.89233 0.15373 0.56875 0.0
C1435 C 0.89265 0.15725 0.58784 0.0
C1436 C 0.87219 0.1756 0.59619 0.0
C1437 C 0.85203 0.19048 0.58538 0.0
C1438 C 0.91358 0.13406 0.55935 0.0
C1439 C 0.87212 0.18012 0.61651 0.0
H1440 H 0.92722 0.07927 0.62078 0.0
H1441 H 0.98486 0.15092 0.61427 0.0
H1442 H 0.86323 0.11318 0.60745 0.0
H1443 H 0.87695 0.09667 0.58732 0.0
H1444 H 0.88014 0.07814 0.60847 0.0
H1445 H 0.97039 0.1935 0.60026 0.0
H1446 H 0.94768 0.18522 0.58061 0.0
H1447 H 0.9322 0.20117 0.60038 0.0
H1448 H 0.87233 0.16672 0.54364 0.0
H1449 H 0.8367 0.2049 0.59178 0.0
H1450 H 0.91229 0.11196 0.56477 0.0
H1451 H 0.93593 0.14201 0.56208 0.0
H1452 H 0.90963 0.13274 0.54445 0.0
H1453 H 0.87025 0.15906 0.62323 0.0
H1454 H 0.85414 0.1943 0.62094 0.0
H1455 H 0.89287 0.19004 0.62129 0.0
C1456 C 0.88164 0.44035 0.85226 0.0
C1457 C 0.91158 0.43941 0.85559 0.0
C1458 C 0.86805 0.42053 0.84012 0.0
C1459 C 0.88484 0.39933 0.83112 0.0
C1460 C 0.91508 0.39835 0.83436 0.0
C1461 C 0.92809 0.41843 0.84655 0.0
C1462 C 0.83573 0.42218 0.837 0.0
C1463 C 0.93369 0.3761 0.82495 0.0
C1464 C 0.84688 0.33175 0.81254 0.0
C1465 C 0.84329 0.33801 0.79414 0.0
C1466 C 0.8605 0.35148 0.82472 0.0
C1467 C 0.87075 0.37807 0.81834 0.0
C1468 C 0.86747 0.38442 0.79976 0.0
C1469 C 0.8538 0.3643 0.78788 0.0
C1470 C 0.86371 0.34397 0.84445 0.0
C1471 C 0.87816 0.41258 0.79247 0.0
H1472 H 0.86876 0.45633 0.85936 0.0
H1473 H 0.95131 0.4179 0.84888 0.0
H1474 H 0.83061 0.42524 0.82242 0.0
H1475 H 0.82554 0.40158 0.84081 0.0
H1476 H 0.82585 0.44016 0.84493 0.0
H1477 H 0.9569 0.37826 0.829 0.0
H1478 H 0.92633 0.35403 0.82814 0.0
H1479 H 0.9315 0.37825 0.81006 0.0
H1480 H 0.83883 0.31151 0.8175 0.0
H1481 H 0.85114 0.36935 0.77369 0.0
H1482 H 0.85239 0.36026 0.85295 0.0
H1483 H 0.88687 0.34449 0.84874 0.0
H1484 H 0.85484 0.32225 0.8472 0.0
H1485 H 0.86727 0.43101 0.79933 0.0
H1486 H 0.87417 0.41407 0.77762 0.0
H1487 H 0.90169 0.41496 0.79538 0.0
C1488 C 0.60476 0.3778 0.11132 0.0
C1489 C 0.60612 0.40759 0.11517 0.0
C1490 C 0.62523 0.3642 0.10036 0.0
C1491 C 0.64756 0.38084 0.09303 0.0
C1492 C 0.64941 0.41084 0.09715 0.0
C1493 C 0.62866 0.42387 0.10821 0.0
C1494 C 0.62268 0.3321 0.09639 0.0
C1495 C 0.67288 0.42926 0.08953 0.0
C1496 C 0.7124 0.33918 0.07592 0.0
C1497 C 0.70552 0.33607 0.05735 0.0
C1498 C 0.69412 0.35438 0.08765 0.0
C1499 C 0.66841 0.36684 0.08062 0.0
C1500 C 0.66182 0.36463 0.06181 0.0
C1501 C 0.68042 0.34924 0.05041 0.0
C1502 C 0.70185 0.35631 0.10763 0.0
C1503 C 0.63465 0.37778 0.05381 0.0
H1504 H 0.5876 0.36508 0.11689 0.0
H1505 H 0.62962 0.44696 0.11101 0.0
H1506 H 0.61918 0.32808 0.08163 0.0
H1507 H 0.64307 0.3211 0.10041 0.0
H1508 H 0.60459 0.32214 0.10361 0.0
H1509 H 0.67203 0.45201 0.09466 0.0
H1510 H 0.69444 0.42021 0.09303 0.0
H1511 H 0.67074 0.42912 0.07453 0.0
H1512 H 0.73175 0.32912 0.08142 0.0
H1513 H 0.67497 0.34708 0.03608 0.0
H1514 H 0.6855 0.34454 0.11533 0.0
H1515 H 0.70162 0.37917 0.11252 0.0
H1516 H 0.72347 0.347 0.11077 0.0
H1517 H 0.61541 0.36706 0.05929 0.0
H1518 H 0.63353 0.37561 0.0388 0.0
H1519 H 0.6334 0.40105 0.05771 0.0
loop_
_geom_bond_atom_site_label_1
_geom_bond_atom_site_label_2
_geom_bond_distance
_geom_bond_site_symmetry_2
_ccdc_geom_bond_type
H0 C19 0.949 . S
H1 C20 0.938 1_455 S
H2 C22 0.950 . S
H3 C23 0.950 . S
H4 C25 0.950 . S
H5 C28 0.950 . S
H6 C29 0.950 . S
H7 C31 0.951 . S
H8 C32 0.949 . S
H9 C34 0.949 . S
H10 C35 0.950 . S
H11 C37 0.950 . S
H12 C38 0.950 . S
H13 C40 0.946 1_565 S
H14 C43 0.950 . S
H15 C44 0.950 . S
H16 C46 0.951 . S
H17 C47 0.949 1_545 S
C18 C19 1.376 . S
C18 C23 1.386 1_455 S
C18 C24 1.483 . S
C19 H0 0.949 . S
C19 C18 1.376 . S
C19 C20 1.371 1_455 S
C20 H1 0.938 1_655 S
C20 C19 1.371 1_655 S
C20 C21 1.430 . S
C21 C20 1.430 . S
C21 C22 1.405 . S
C22 H2 0.950 . S
C22 C21 1.405 . S
C22 C23 1.367 . S
C23 H3 0.950 . S
C23 C18 1.386 1_655 S
C23 C22 1.367 . S
C24 C18 1.483 . S
C24 C25 1.382 . S
C24 C26 1.403 . S
C25 H4 0.950 . S
C25 C24 1.382 . S
C25 C41 1.411 1_545 S
C26 C24 1.403 . S
C26 C27 1.489 . S
C26 C40 1.411 . S
C27 C26 1.489 . S
C27 C28 1.383 . S
C27 C32 1.382 1_455 S
C28 H5 0.950 . S
C28 C27 1.383 . S
C28 C29 1.395 1_455 S
C29 H6 0.950 . S
C29 C28 1.395 1_655 S
C29 C30 1.288 . S
C30 C29 1.288 . S
C30 C31 1.392 . S
C31 H7 0.951 . S
C31 C30 1.392 . S
C31 C32 1.392 . S
C32 H8 0.949 . S
C32 C27 1.382 1_655 S
C32 C31 1.392 . S
C33 C34 1.376 . S
C33 C38 1.386 . S
C33 C39 1.483 . S
C34 H9 0.949 . S
C34 C33 1.376 . S
C34 C35 1.397 . S
C35 H10 0.950 . S
C35 C34 1.397 . S
C35 C36 1.391 . S
C36 C35 1.391 . S
C36 C37 1.405 . S
C37 H11 0.950 . S
C37 C36 1.405 . S
C37 C38 1.367 . S
C38 H12 0.950 . S
C38 C33 1.386 . S
C38 C37 1.367 . S
C39 C33 1.483 . S
C39 C40 1.382 1_565 S
C39 C41 1.403 . S
C40 H13 0.946 1_545 S
C40 C26 1.411 . S
C40 C39 1.382 1_545 S
C41 C25 1.411 1_565 S
C41 C39 1.403 . S
C41 C42 1.489 . S
C42 C41 1.489 . S
C42 C43 1.383 . S
C42 C47 1.382 . S
C43 H14 0.950 . S
C43 C42 1.383 . S
C43 C44 1.395 . S
C44 H15 0.950 . S
C44 C43 1.395 . S
C44 C45 1.288 . S
C45 C44 1.288 . S
C45 C46 1.392 . S
C46 H16 0.951 . S
C46 C45 1.392 . S
C46 C47 1.392 . S
C47 H17 0.949 1_565 S
C47 C42 1.382 . S
C47 C46 1.392 . S
H48 C67 0.949 1_455 S
H49 C68 0.950 . S
H50 C70 0.950 . S
H51 C71 0.950 . S
H52 C73 0.950 . S
H53 C76 0.950 . S
H54 C77 0.950 . S
H55 C79 0.951 . S
H56 C80 0.949 . S
H57 C82 0.949 . S
H58 C83 0.950 . S
H59 C85 0.950 . S
H60 C86 0.950 . S
H61 C88 0.950 . S
H62 C91 0.950 . S
H63 C92 0.950 . S
H64 C94 0.951 . S
H65 C95 0.949 . S
C66 C67 1.376 . S
C66 C71 1.386 . S
C66 C72 1.483 . S
C67 H48 0.949 1_655 S
C67 C66 1.376 . S
C67 C68 1.397 . S
C68 H49 0.950 . S
C68 C67 1.397 . S
C68 C69 1.391 . S
C69 C68 1.391 . S
C69 C70 1.405 . S
C70 H50 0.950 . S
C70 C69 1.405 . S
C70 C71 1.367 . S
C71 H51 0.950 . S
C71 C66 1.386 . S
C71 C70 1.367 . S
C72 C66 1.483 . S
C72 C73 1.382 1_655 S
C72 C74 1.403 . S
C73 H52 0.950 . S
C73 C72 1.382 1_455 S
C73 C89 1.411 . S
C74 C72 1.403 . S
C74 C75 1.489 . S
C74 C88 1.411 1_655 S
C75 C74 1.489 . S
C75 C76 1.383 . S
C75 C80 1.382 . S
C76 H53 0.950 . S
C76 C75 1.383 . S
C76 C77 1.395 . S
C77 H54 0.950 . S
C77 C76 1.395 . S
C77 C78 1.288 . S
C78 C77 1.288 . S
C78 C79 1.392 . S
C79 H55 0.951 . S
C79 C78 1.392 . S
C79 C80 1.392 . S
C80 H56 0.949 . S
C80 C75 1.382 . S
C80 C79 1.392 . S
C81 C82 1.376 . S
C81 C86 1.386 . S
C81 C87 1.483 . S
C82 H57 0.949 . S
C82 C81 1.376 . S
C82 C83 1.397 . S
C83 H58 0.950 . S
C83 C82 1.397 . S
C83 C84 1.391 . S
C84 C83 1.391 . S
C84 C85 1.405 . S
C85 H59 0.950 . S
C85 C84 1.405 . S
C85 C86 1.367 . S
C86 H60 0.950 . S
C86 C81 1.386 . S
C86 C85 1.367 . S
C87 C81 1.483 . S
C87 C88 1.382 . S
C87 C89 1.403 . S
C88 H61 0.950 . S
C88 C74 1.411 1_455 S
C88 C87 1.382 . S
C89 C73 1.411 . S
C89 C87 1.403 . S
C89 C90 1.489 . S
C90 C89 1.489 . S
C90 C91 1.383 . S
C90 C95 1.382 . S
C91 H62 0.950 . S
C91 C90 1.383 . S
C91 C92 1.395 . S
C92 H63 0.950 . S
C92 C91 1.395 . S
C92 C93 1.288 . S
C93 C92 1.288 . S
C93 C94 1.392 . S
C94 H64 0.951 . S
C94 C93 1.392 . S
C94 C95 1.392 . S
C95 H65 0.949 . S
C95 C90 1.382 . S
C95 C94 1.392 . S
H96 C115 0.949 . S
H97 C116 0.950 . S
H98 C118 0.950 . S
H99 C119 0.950 . S
H100 C121 0.950 . S
H101 C124 0.950 . S
H102 C125 0.950 . S
H103 C127 0.951 . S
H104 C128 0.949 . S
H105 C130 0.949 . S
H106 C131 0.950 . S
H107 C133 0.950 . S
H108 C134 0.950 . S
H109 C136 0.950 . S
H110 C139 0.950 . S
H111 C140 0.950 . S
H112 C142 0.951 . S
H113 C143 0.949 . S
C114 C115 1.376 . S
C114 C119 1.386 . S
C114 C120 1.483 . S
C115 H96 0.949 . S
C115 C114 1.376 . S
C115 C116 1.397 . S
C116 H97 0.950 . S
C116 C115 1.397 . S
C116 C117 1.391 . S
C117 C116 1.391 . S
C117 C118 1.405 . S
C118 H98 0.950 . S
C118 C117 1.405 . S
C118 C119 1.367 . S
C119 H99 0.950 . S
C119 C114 1.386 . S
C119 C118 1.367 . S
C120 C114 1.483 . S
C120 C121 1.382 . S
C120 C122 1.403 . S
C121 H100 0.950 . S
C121 C120 1.382 . S
C121 C137 1.411 . S
C122 C120 1.403 . S
C122 C123 1.489 . S
C122 C136 1.411 . S
C123 C122 1.489 . S
C123 C124 1.383 . S
C123 C128 1.382 . S
C124 H101 0.950 . S
C124 C123 1.383 . S
C124 C125 1.395 . S
C125 H102 0.950 . S
C125 C124 1.395 . S
C125 C126 1.288 . S
C126 C125 1.288 . S
C126 C127 1.392 . S
C127 H103 0.951 . S
C127 C126 1.392 . S
C127 C128 1.392 . S
C128 H104 0.949 . S
C128 C123 1.382 . S
C128 C127 1.392 . S
C129 C130 1.376 . S
C129 C134 1.386 . S
C129 C135 1.483 . S
C130 H105 0.949 . S
C130 C129 1.376 . S
C130 C131 1.397 . S
C131 H106 0.950 . S
C131 C130 1.397 . S
C131 C132 1.391 . S
C132 C131 1.391 . S
C132 C133 1.405 . S
C133 H107 0.950 . S
C133 C132 1.405 . S
C133 C134 1.367 . S
C134 H108 0.950 . S
C134 C129 1.386 . S
C134 C133 1.367 . S
C135 C129 1.483 . S
C135 C136 1.382 . S
C135 C137 1.403 . S
C136 H109 0.950 . S
C136 C122 1.411 . S
C136 C135 1.382 . S
C137 C121 1.411 . S
C137 C135 1.403 . S
C137 C138 1.489 . S
C138 C137 1.489 . S
C138 C139 1.383 . S
C138 C143 1.382 . S
C139 H110 0.950 . S
C139 C138 1.383 . S
C139 C140 1.395 . S
C140 H111 0.950 . S
C140 C139 1.395 . S
C140 C141 1.288 . S
C141 C140 1.288 . S
C141 C142 1.392 . S
C142 H112 0.951 . S
C142 C141 1.392 . S
C142 C143 1.392 . S
C143 H113 0.949 . S
C143 C138 1.382 . S
C143 C142 1.392 . S
H144 C163 0.949 . S
H145 C164 0.950 . S
H146 C166 0.950 . S
H147 C167 0.950 . S
H148 C169 0.950 . S
H149 C172 0.950 . S
H150 C173 0.950 . S
H151 C175 0.951 . S
H152 C176 0.949 . S
H153 C178 0.949 . S
H154 C179 0.950 . S
H155 C181 0.950 . S
H156 C182 0.950 . S
H157 C184 0.950 . S
H158 C187 0.950 . S
H159 C188 0.950 . S
H160 C190 0.951 . S
H161 C191 0.949 . S
C162 C163 1.376 . S
C162 C167 1.386 . S
C162 C168 1.483 . S
C163 H144 0.949 . S
C163 C162 1.376 . S
C163 C164 1.397 . S
C164 H145 0.950 . S
C164 C163 1.397 . S
C164 C165 1.391 . S
C165 C164 1.391 . S
C165 C166 1.405 . S
C166 H146 0.950 . S
C166 C165 1.405 . S
C166 C167 1.367 . S
C167 H147 0.950 . S
C167 C162 1.386 . S
C167 C166 1.367 . S
C168 C162 1.483 . S
C168 C169 1.382 . S
C168 C170 1.403 . S
C169 H148 0.950 . S
C169 C168 1.382 . S
C169 C185 1.411 1_565 S
C170 C168 1.403 . S
C170 C171 1.489 . S
C170 C184 1.411 1_565 S
C171 C170 1.489 . S
C171 C172 1.383 . S
C171 C176 1.382 . S
C172 H149 0.950 . S
C172 C171 1.383 . S
C172 C173 1.395 . S
C173 H150 0.950 . S
C173 C172 1.395 . S
C173 C174 1.288 . S
C174 C173 1.288 . S
C174 C175 1.392 . S
C175 H151 0.951 . S
C175 C174 1.392 . S
C175 C176 1.392 . S
C176 H152 0.949 . S
C176 C171 1.382 . S
C176 C175 1.392 . S
C177 C178 1.376 . S
C177 C182 1.386 . S
C177 C183 1.483 . S
C178 H153 0.949 . S
C178 C177 1.376 . S
C178 C179 1.397 . S
C179 H154 0.950 . S
C179 C178 1.397 . S
C179 C180 1.391 . S
C180 C179 1.391 . S
C180 C181 1.405 . S
C181 H155 0.950 . S
C181 C180 1.405 . S
C181 C182 1.367 . S
C182 H156 0.950 . S
C182 C177 1.386 . S
C182 C181 1.367 . S
C183 C177 1.483 . S
C183 C184 1.382 . S
C183 C185 1.403 . S
C184 H157 0.950 . S
C184 C170 1.411 1_545 S
C184 C183 1.382 . S
C185 C169 1.411 1_545 S
C185 C183 1.403 . S
C185 C186 1.489 . S
C186 C185 1.489 . S
C186 C187 1.383 . S
C186 C191 1.382 . S
C187 H158 0.950 . S
C187 C186 1.383 . S
C187 C188 1.395 . S
C188 H159 0.950 . S
C188 C187 1.395 . S
C188 C189 1.288 . S
C189 C188 1.288 . S
C189 C190 1.392 . S
C190 H160 0.951 . S
C190 C189 1.392 . S
C190 C191 1.392 . S
C191 H161 0.949 . S
C191 C186 1.382 . S
C191 C190 1.392 . S
H192 C211 0.949 . S
H193 C212 0.950 . S
H194 C214 0.950 . S
H195 C215 0.950 . S
H196 C217 0.950 . S
H197 C220 0.950 . S
H198 C221 0.950 . S
H199 C223 0.951 . S
H200 C224 0.949 . S
H201 C226 0.949 . S
H202 C227 0.950 . S
H203 C229 0.950 . S
H204 C230 0.950 . S
H205 C232 0.950 . S
H206 C235 0.950 . S
H207 C236 0.950 . S
H208 C238 0.951 . S
H209 C239 0.949 . S
C210 C211 1.376 . S
C210 C215 1.386 . S
C210 C216 1.483 . S
C211 H192 0.949 . S
C211 C210 1.376 . S
C211 C212 1.397 . S
C212 H193 0.950 . S
C212 C211 1.397 . S
C212 C213 1.391 . S
C213 C212 1.391 . S
C213 C214 1.405 . S
C214 H194 0.950 . S
C214 C213 1.405 . S
C214 C215 1.367 . S
C215 H195 0.950 . S
C215 C210 1.386 . S
C215 C214 1.367 . S
C216 C210 1.483 . S
C216 C217 1.382 1_455 S
C216 C218 1.403 . S
C217 H196 0.950 . S
C217 C216 1.382 1_655 S
C217 C233 1.411 . S
C218 C216 1.403 . S
C218 C219 1.489 . S
C218 C232 1.411 . S
C219 C218 1.489 . S
C219 C220 1.383 . S
C219 C224 1.382 . S
C220 H197 0.950 . S
C220 C219 1.383 . S
C220 C221 1.395 . S
C221 H198 0.950 . S
C221 C220 1.395 . S
C221 C222 1.288 . S
C222 C221 1.288 . S
C222 C223 1.392 . S
C223 H199 0.951 . S
C223 C222 1.392 . S
C223 C224 1.392 . S
C224 H200 0.949 . S
C224 C219 1.382 . S
C224 C223 1.392 . S
C225 C226 1.376 . S
C225 C230 1.386 . S
C225 C231 1.483 . S
C226 H201 0.949 . S
C226 C225 1.376 . S
C226 C227 1.397 . S
C227 H202 0.950 . S
C227 C226 1.397 . S
C227 C228 1.391 . S
C228 C227 1.391 . S
C228 C229 1.405 . S
C229 H203 0.950 . S
C229 C228 1.405 . S
C229 C230 1.367 . S
C230 H204 0.950 . S
C230 C225 1.386 . S
C230 C229 1.367 . S
C231 C225 1.483 . S
C231 C232 1.382 1_655 S
C231 C233 1.403 . S
C232 H205 0.950 . S
C232 C218 1.411 . S
C232 C231 1.382 1_455 S
C233 C217 1.411 . S
C233 C231 1.403 . S
C233 C234 1.489 . S
C234 C233 1.489 . S
C234 C235 1.383 . S
C234 C239 1.382 . S
C235 H206 0.950 . S
C235 C234 1.383 . S
C235 C236 1.395 . S
C236 H207 0.950 . S
C236 C235 1.395 . S
C236 C237 1.288 . S
C237 C236 1.288 . S
C237 C238 1.392 . S
C238 H208 0.951 . S
C238 C237 1.392 . S
C238 C239 1.392 . S
C239 H209 0.949 . S
C239 C234 1.382 . S
C239 C238 1.392 . S
H240 C259 0.949 . S
H241 C260 0.950 . S
H242 C262 0.950 . S
H243 C263 0.950 . S
H244 C265 0.950 . S
H245 C268 0.950 . S
H246 C269 0.950 . S
H247 C271 0.951 . S
H248 C272 0.949 . S
H249 C274 0.949 . S
H250 C275 0.950 . S
H251 C277 0.950 . S
H252 C278 0.950 . S
H253 C280 0.950 . S
H254 C283 0.950 . S
H255 C284 0.950 . S
H256 C286 0.951 . S
H257 C287 0.949 . S
C258 C259 1.376 . S
C258 C263 1.386 . S
C258 C264 1.483 . S
C259 H240 0.949 . S
C259 C258 1.376 . S
C259 C260 1.397 . S
C260 H241 0.950 . S
C260 C259 1.397 . S
C260 C261 1.391 . S
C261 C260 1.391 . S
C261 C262 1.405 . S
C262 H242 0.950 . S
C262 C261 1.405 . S
C262 C263 1.367 . S
C263 H243 0.950 . S
C263 C258 1.386 . S
C263 C262 1.367 . S
C264 C258 1.483 . S
C264 C265 1.382 . S
C264 C266 1.403 . S
C265 H244 0.950 . S
C265 C264 1.382 . S
C265 C281 1.411 . S
C266 C264 1.403 . S
C266 C267 1.489 . S
C266 C280 1.411 . S
C267 C266 1.489 . S
C267 C268 1.383 . S
C267 C272 1.382 . S
C268 H245 0.950 . S
C268 C267 1.383 . S
C268 C269 1.395 . S
C269 H246 0.950 . S
C269 C268 1.395 . S
C269 C270 1.288 . S
C270 C269 1.288 . S
C270 C271 1.392 . S
C271 H247 0.951 . S
C271 C270 1.392 . S
C271 C272 1.392 . S
C272 H248 0.949 . S
C272 C267 1.382 . S
C272 C271 1.392 . S
C273 C274 1.376 . S
C273 C278 1.386 . S
C273 C279 1.483 . S
C274 H249 0.949 . S
C274 C273 1.376 . S
C274 C275 1.397 . S
C275 H250 0.950 . S
C275 C274 1.397 . S
C275 C276 1.391 . S
C276 C275 1.391 . S
C276 C277 1.405 . S
C277 H251 0.950 . S
C277 C276 1.405 . S
C277 C278 1.367 . S
C278 H252 0.950 . S
C278 C273 1.386 . S
C278 C277 1.367 . S
C279 C273 1.483 . S
C279 C280 1.382 . S
C279 C281 1.403 . S
C280 H253 0.950 . S
C280 C266 1.411 . S
C280 C279 1.382 . S
C281 C265 1.411 . S
C281 C279 1.403 . S
C281 C282 1.489 . S
C282 C281 1.489 . S
C282 C283 1.383 . S
C282 C287 1.382 . S
C283 H254 0.950 . S
C283 C282 1.383 . S
C283 C284 1.395 . S
C284 H255 0.950 . S
C284 C283 1.395 . S
C284 C285 1.288 . S
C285 C284 1.288 . S
C285 C286 1.392 . S
C286 H256 0.951 . S
C286 C285 1.392 . S
C286 C287 1.392 . S
C287 H257 0.949 . S
C287 C282 1.382 . S
C287 C286 1.392 . S
H288 C307 0.949 . S
H289 C308 0.950 . S
H290 C310 0.950 . S
H291 C311 0.950 . S
H292 C313 0.950 . S
H293 C316 0.950 . S
H294 C317 0.950 . S
H295 C319 0.951 . S
H296 C320 0.949 1_545 S
H297 C322 0.949 . S
H298 C323 0.950 . S
H299 C325 0.950 . S
H300 C326 0.950 . S
H301 C328 0.950 . S
H302 C331 0.950 . S
H303 C332 0.950 . S
H304 C334 0.951 . S
H305 C335 0.949 1_565 S
C306 C307 1.376 . S
C306 C311 1.386 . S
C306 C312 1.483 . S
C307 H288 0.949 . S
C307 C306 1.376 . S
C307 C308 1.397 . S
C308 H289 0.950 . S
C308 C307 1.397 . S
C308 C309 1.391 . S
C309 C308 1.391 . S
C309 C310 1.405 . S
C310 H290 0.950 . S
C310 C309 1.405 . S
C310 C311 1.367 . S
C311 H291 0.950 . S
C311 C306 1.386 . S
C311 C310 1.367 . S
C312 C306 1.483 . S
C312 C313 1.382 . S
C312 C314 1.403 . S
C313 H292 0.950 . S
C313 C312 1.382 . S
C313 C329 1.411 1_565 S
C314 C312 1.403 . S
C314 C315 1.489 . S
C314 C328 1.411 1_565 S
C315 C314 1.489 . S
C315 C316 1.383 . S
C315 C320 1.382 . S
C316 H293 0.950 . S
C316 C315 1.383 . S
C316 C317 1.395 . S
C317 H294 0.950 . S
C317 C316 1.395 . S
C317 C318 1.288 . S
C318 C317 1.288 . S
C318 C319 1.392 . S
C319 H295 0.951 . S
C319 C318 1.392 . S
C319 C320 1.392 . S
C320 H296 0.949 1_565 S
C320 C315 1.382 . S
C320 C319 1.392 . S
C321 C322 1.376 . S
C321 C326 1.386 . S
C321 C327 1.483 . S
C322 H297 0.949 . S
C322 C321 1.376 . S
C322 C323 1.397 . S
C323 H298 0.950 . S
C323 C322 1.397 . S
C323 C324 1.391 . S
C324 C323 1.391 . S
C324 C325 1.405 . S
C325 H299 0.950 . S
C325 C324 1.405 . S
C325 C326 1.367 . S
C326 H300 0.950 . S
C326 C321 1.386 . S
C326 C325 1.367 . S
C327 C321 1.483 . S
C327 C328 1.382 . S
C327 C329 1.403 . S
C328 H301 0.950 . S
C328 C314 1.411 1_545 S
C328 C327 1.382 . S
C329 C313 1.411 1_545 S
C329 C327 1.403 . S
C329 C330 1.489 . S
C330 C329 1.489 . S
C330 C331 1.383 . S
C330 C335 1.382 . S
C331 H302 0.950 . S
C331 C330 1.383 . S
C331 C332 1.395 . S
C332 H303 0.950 . S
C332 C331 1.395 . S
C332 C333 1.288 . S
C333 C332 1.288 . S
C333 C334 1.392 . S
C334 H304 0.951 . S
C334 C333 1.392 . S
C334 C335 1.392 . S
C335 H305 0.949 1_545 S
C335 C330 1.382 . S
C335 C334 1.392 . S
H336 C355 0.949 . S
H337 C356 0.950 1_455 S
H338 C358 0.950 . S
H339 C359 0.950 . S
H340 C361 0.950 . S
H341 C364 0.950 . S
H342 C365 0.950 . S
H343 C367 0.951 . S
H344 C368 0.949 . S
H345 C370 0.949 . S
H346 C371 0.950 . S
H347 C373 0.950 . S
H348 C374 0.950 1_545 S
H349 C376 0.950 . S
H350 C379 0.950 . S
H351 C380 0.950 . S
H352 C382 0.951 . S
H353 C383 0.949 . S
C354 C355 1.376 . S
C354 C359 1.386 1_455 S
C354 C360 1.483 . S
C355 H336 0.949 . S
C355 C354 1.376 . S
C355 C356 1.397 1_455 S
C356 H337 0.950 1_655 S
C356 C355 1.397 1_655 S
C356 C357 1.391 . S
C357 C356 1.391 . S
C357 C358 1.405 . S
C358 H338 0.950 . S
C358 C357 1.405 . S
C358 C359 1.367 . S
C359 H339 0.950 . S
C359 C354 1.386 1_655 S
C359 C358 1.367 . S
C360 C354 1.483 . S
C360 C361 1.382 . S
C360 C362 1.403 . S
C361 H340 0.950 . S
C361 C360 1.382 . S
C361 C377 1.411 . S
C362 C360 1.403 . S
C362 C363 1.489 . S
C362 C376 1.411 . S
C363 C362 1.489 . S
C363 C364 1.383 . S
C363 C368 1.382 1_455 S
C364 H341 0.950 . S
C364 C363 1.383 . S
C364 C365 1.395 1_455 S
C365 H342 0.950 . S
C365 C364 1.395 1_655 S
C365 C366 1.288 . S
C366 C365 1.288 . S
C366 C367 1.392 . S
C367 H343 0.951 . S
C367 C366 1.392 . S
C367 C368 1.392 . S
C368 H344 0.949 . S
C368 C363 1.382 1_655 S
C368 C367 1.392 . S
C369 C370 1.376 . S
C369 C374 1.386 . S
C369 C375 1.483 1_565 S
C370 H345 0.949 . S
C370 C369 1.376 . S
C370 C371 1.397 . S
C371 H346 0.950 . S
C371 C370 1.397 . S
C371 C372 1.391 . S
C372 C371 1.391 . S
C372 C373 1.405 . S
C373 H347 0.950 . S
C373 C372 1.405 . S
C373 C374 1.367 . S
C374 H348 0.950 1_565 S
C374 C369 1.386 . S
C374 C373 1.367 . S
C375 C369 1.483 1_545 S
C375 C376 1.382 . S
C375 C377 1.403 . S
C376 H349 0.950 . S
C376 C362 1.411 . S
C376 C375 1.382 . S
C377 C361 1.411 . S
C377 C375 1.403 . S
C377 C378 1.489 1_545 S
C378 C377 1.489 1_565 S
C378 C379 1.383 . S
C378 C383 1.382 1_565 S
C379 H350 0.950 . S
C379 C378 1.383 . S
C379 C380 1.395 . S
C380 H351 0.950 . S
C380 C379 1.395 . S
C380 C381 1.288 . S
C381 C380 1.288 . S
C381 C382 1.392 . S
C382 H352 0.951 . S
C382 C381 1.392 . S
C382 C383 1.392 1_565 S
C383 H353 0.949 . S
C383 C378 1.382 1_545 S
C383 C382 1.392 1_545 S
Zn384 O387 2.031 . S
Zn384 O389 2.049 . S
Zn384 O394 2.067 . S
Zn385 O386 1.962 . S
Zn385 O388 1.986 . S
Zn385 O390 1.996 . S
Zn385 O393 1.953 . S
O386 Zn385 1.962 . S
O386 C391 1.254 . S
O387 Zn384 2.031 . S
O387 C391 1.269 1_556 S
O388 Zn385 1.986 . S
O388 C395 1.262 . S
O389 Zn384 2.049 . S
O389 C397 1.260 1_556 S
O390 Zn385 1.996 . S
O390 C397 1.257 . S
C391 O386 1.254 . S
C391 O387 1.269 1_554 S
C392 O393 1.237 1_556 S
C392 O394 1.270 . S
O393 Zn385 1.953 . S
O393 C392 1.237 1_554 S
O394 Zn384 2.067 . S
O394 C392 1.270 . S
C395 O388 1.262 . S
C395 O396 1.232 . S
O396 C395 1.232 . S
C397 O389 1.260 1_554 S
C397 O390 1.257 . S
Zn398 O401 2.031 . S
Zn398 O403 2.049 . S
Zn398 O408 2.067 . S
Zn399 O400 1.962 . S
Zn399 O402 1.986 . S
Zn399 O404 1.996 . S
Zn399 O407 1.943 . S
O400 Zn399 1.962 . S
O400 C405 1.254 . S
O401 Zn398 2.031 . S
O401 C405 1.269 . S
O402 Zn399 1.986 . S
O402 C409 1.262 . S
O403 Zn398 2.049 . S
O403 C411 1.260 . S
O404 Zn399 1.996 . S
O404 C411 1.257 . S
C405 O400 1.254 . S
C405 O401 1.269 . S
C406 O407 1.249 . S
C406 O408 1.270 . S
O407 Zn399 1.943 . S
O407 C406 1.249 . S
O408 Zn398 2.067 . S
O408 C406 1.270 . S
C409 O402 1.262 . S
C409 O410 1.232 . S
O410 C409 1.232 . S
C411 O403 1.260 . S
C411 O404 1.257 . S
Zn412 O415 2.031 . S
Zn412 O417 2.049 . S
Zn412 O422 2.067 . S
Zn413 O414 1.962 . S
Zn413 O416 1.986 . S
Zn413 O418 1.996 . S
Zn413 O421 1.943 . S
O414 Zn413 1.962 . S
O414 C419 1.254 . S
O415 Zn412 2.031 . S
O415 C419 1.269 . S
O416 Zn413 1.986 . S
O416 C423 1.262 . S
O417 Zn412 2.049 . S
O417 C425 1.260 . S
O418 Zn413 1.996 . S
O418 C425 1.257 . S
C419 O414 1.254 . S
C419 O415 1.269 . S
C420 O421 1.249 . S
C420 O422 1.270 . S
O421 Zn413 1.943 . S
O421 C420 1.249 . S
O422 Zn412 2.067 . S
O422 C420 1.270 . S
C423 O416 1.262 . S
C423 O424 1.232 . S
O424 C423 1.232 . S
C425 O417 1.260 . S
C425 O418 1.257 . S
Zn426 O429 2.031 . S
Zn426 O431 2.049 . S
Zn426 O436 2.067 . S
Zn427 O428 1.962 . S
Zn427 O430 1.986 . S
Zn427 O432 1.996 . S
Zn427 O435 1.943 . S
O428 Zn427 1.962 . S
O428 C433 1.254 . S
O429 Zn426 2.031 . S
O429 C433 1.269 . S
O430 Zn427 1.986 . S
O430 C437 1.262 . S
O431 Zn426 2.049 . S
O431 C439 1.260 . S
O432 Zn427 1.996 . S
O432 C439 1.257 . S
C433 O428 1.254 . S
C433 O429 1.269 . S
C434 O435 1.249 . S
C434 O436 1.270 . S
O435 Zn427 1.943 . S
O435 C434 1.249 . S
O436 Zn426 2.067 . S
O436 C434 1.270 . S
C437 O430 1.262 . S
C437 O438 1.232 . S
O438 C437 1.232 . S
C439 O431 1.260 . S
C439 O432 1.257 . S
Zn440 O443 2.031 . S
Zn440 O445 2.049 . S
Zn440 O450 2.067 . S
Zn441 O442 1.962 . S
Zn441 O444 1.986 . S
Zn441 O446 1.996 . S
Zn441 O449 1.943 . S
O442 Zn441 1.962 . S
O442 C447 1.254 . S
O443 Zn440 2.031 . S
O443 C447 1.269 . S
O444 Zn441 1.986 . S
O444 C451 1.262 . S
O445 Zn440 2.049 . S
O445 C453 1.260 . S
O446 Zn441 1.996 . S
O446 C453 1.257 . S
C447 O442 1.254 . S
C447 O443 1.269 . S
C448 O449 1.249 . S
C448 O450 1.270 . S
O449 Zn441 1.943 . S
O449 C448 1.249 . S
O450 Zn440 2.067 . S
O450 C448 1.270 . S
C451 O444 1.262 . S
C451 O452 1.232 . S
O452 C451 1.232 . S
C453 O445 1.260 . S
C453 O446 1.257 . S
Zn454 O457 2.031 . S
Zn454 O459 2.049 . S
Zn454 O464 2.067 . S
Zn455 O456 1.962 . S
Zn455 O458 1.986 . S
Zn455 O460 1.996 . S
Zn455 O463 1.943 . S
O456 Zn455 1.962 . S
O456 C461 1.254 . S
O457 Zn454 2.031 . S
O457 C461 1.269 . S
O458 Zn455 1.986 . S
O458 C465 1.262 . S
O459 Zn454 2.049 . S
O459 C467 1.260 . S
O460 Zn455 1.996 . S
O460 C467 1.257 . S
C461 O456 1.254 . S
C461 O457 1.269 . S
C462 O463 1.249 . S
C462 O464 1.270 . S
O463 Zn455 1.943 . S
O463 C462 1.249 . S
O464 Zn454 2.067 . S
O464 C462 1.270 . S
C465 O458 1.262 . S
C465 O466 1.232 . S
O466 C465 1.232 . S
C467 O459 1.260 . S
C467 O460 1.257 . S
Zn468 O471 2.031 . S
Zn468 O473 2.049 . S
Zn468 O478 2.067 . S
Zn469 O470 1.962 . S
Zn469 O472 1.986 . S
Zn469 O474 1.996 . S
Zn469 O477 1.943 1_556 S
O470 Zn469 1.962 . S
O470 C475 1.254 1_556 S
O471 Zn468 2.031 . S
O471 C475 1.269 . S
O472 Zn469 1.986 . S
O472 C479 1.262 . S
O473 Zn468 2.049 . S
O473 C481 1.260 . S
O474 Zn469 1.996 . S
O474 C481 1.257 1_556 S
C475 O470 1.254 1_554 S
C475 O471 1.269 . S
C476 O477 1.249 . S
C476 O478 1.270 . S
O477 Zn469 1.943 1_554 S
O477 C476 1.249 . S
O478 Zn468 2.067 . S
O478 C476 1.270 . S
C479 O472 1.262 . S
C479 O480 1.232 . S
O480 C479 1.232 . S
C481 O473 1.260 . S
C481 O474 1.257 1_554 S
Zn482 O485 2.031 . S
Zn482 O487 2.049 . S
Zn482 O492 2.067 . S
Zn483 O484 1.962 . S
Zn483 O486 1.986 . S
Zn483 O488 1.996 . S
Zn483 O491 1.943 . S
O484 Zn483 1.962 . S
O484 C489 1.254 . S
O485 Zn482 2.031 . S
O485 C489 1.269 . S
O486 Zn483 1.986 . S
O486 C493 1.262 . S
O487 Zn482 2.049 . S
O487 C495 1.260 . S
O488 Zn483 1.996 . S
O488 C495 1.257 . S
C489 O484 1.254 . S
C489 O485 1.269 . S
C490 O491 1.249 . S
C490 O492 1.270 . S
O491 Zn483 1.943 . S
O491 C490 1.249 . S
O492 Zn482 2.067 . S
O492 C490 1.270 . S
C493 O486 1.262 . S
C493 O494 1.232 . S
O494 C493 1.232 . S
C495 O487 1.260 . S
C495 O488 1.257 . S
C496 C497 1.391 . S
C496 C498 1.394 . S
C496 H512 0.931 . S
C497 C496 1.391 . S
C497 C501 1.376 . S
C498 C496 1.394 . S
C498 C499 1.369 . S
C498 C502 1.531 . S
C499 C498 1.369 . S
C499 C500 1.410 . S
C499 C507 1.503 . S
C500 C499 1.410 . S
C500 C501 1.392 . S
C500 C503 1.511 . S
C501 C497 1.376 . S
C501 C500 1.392 . S
C501 H513 0.929 . S
C502 C498 1.531 . S
C502 H514 0.960 . S
C502 H515 0.962 . S
C502 H516 0.960 . S
C503 C500 1.511 . S
C503 H517 0.961 . S
C503 H518 0.961 . S
C503 H519 0.961 . S
C504 C505 1.370 . S
C504 C506 1.363 . S
C504 H520 0.931 . S
C505 C504 1.370 . S
C505 C509 1.408 . S
C506 C504 1.363 . S
C506 C507 1.370 . S
C506 C510 1.524 . S
C507 C499 1.503 . S
C507 C506 1.370 . S
C507 C508 1.403 . S
C508 C507 1.403 . S
C508 C509 1.404 . S
C508 C511 1.539 . S
C509 C505 1.408 . S
C509 C508 1.404 . S
C509 H521 0.930 . S
C510 C506 1.524 . S
C510 H522 0.956 . S
C510 H523 0.961 . S
C510 H524 0.961 . S
C511 C508 1.539 . S
C511 H525 0.958 . S
C511 H526 0.961 . S
C511 H527 0.960 . S
H512 C496 0.931 . S
H513 C501 0.929 . S
H514 C502 0.960 . S
H515 C502 0.962 . S
H516 C502 0.960 . S
H517 C503 0.961 . S
H518 C503 0.961 . S
H519 C503 0.961 . S
H520 C504 0.931 . S
H521 C509 0.930 . S
H522 C510 0.956 . S
H523 C510 0.961 . S
H524 C510 0.961 . S
H525 C511 0.958 . S
H526 C511 0.961 . S
H527 C511 0.960 . S
C528 C529 1.391 . S
C528 C530 1.394 . S
C528 H544 0.931 . S
C529 C528 1.391 . S
C529 C533 1.376 . S
C530 C528 1.394 . S
C530 C531 1.369 . S
C530 C534 1.531 . S
C531 C530 1.369 . S
C531 C532 1.410 . S
C531 C539 1.503 . S
C532 C531 1.410 . S
C532 C533 1.392 . S
C532 C535 1.511 . S
C533 C529 1.376 . S
C533 C532 1.392 . S
C533 H545 0.929 . S
C534 C530 1.531 . S
C534 H546 0.960 . S
C534 H547 0.962 . S
C534 H548 0.960 . S
C535 C532 1.511 . S
C535 H549 0.961 . S
C535 H550 0.961 . S
C535 H551 0.961 . S
C536 C537 1.370 . S
C536 C538 1.363 . S
C536 H552 0.931 . S
C537 C536 1.370 . S
C537 C541 1.408 . S
C538 C536 1.363 . S
C538 C539 1.370 . S
C538 C542 1.524 . S
C539 C531 1.503 . S
C539 C538 1.370 . S
C539 C540 1.403 . S
C540 C539 1.403 . S
C540 C541 1.404 . S
C540 C543 1.539 . S
C541 C537 1.408 . S
C541 C540 1.404 . S
C541 H553 0.930 . S
C542 C538 1.524 . S
C542 H554 0.956 . S
C542 H555 0.961 . S
C542 H556 0.961 . S
C543 C540 1.539 . S
C543 H557 0.958 . S
C543 H558 0.961 . S
C543 H559 0.960 . S
H544 C528 0.931 . S
H545 C533 0.929 . S
H546 C534 0.960 . S
H547 C534 0.962 . S
H548 C534 0.960 . S
H549 C535 0.961 . S
H550 C535 0.961 . S
H551 C535 0.961 . S
H552 C536 0.931 . S
H553 C541 0.930 . S
H554 C542 0.956 . S
H555 C542 0.961 . S
H556 C542 0.961 . S
H557 C543 0.958 . S
H558 C543 0.961 . S
H559 C543 0.960 . S
C560 C561 1.391 . S
C560 C562 1.394 . S
C560 H576 0.931 . S
C561 C560 1.391 . S
C561 C565 1.376 . S
C562 C560 1.394 . S
C562 C563 1.369 . S
C562 C566 1.531 . S
C563 C562 1.369 . S
C563 C564 1.410 . S
C563 C571 1.503 . S
C564 C563 1.410 . S
C564 C565 1.392 . S
C564 C567 1.511 . S
C565 C561 1.376 . S
C565 C564 1.392 . S
C565 H577 0.929 . S
C566 C562 1.531 . S
C566 H578 0.960 . S
C566 H579 0.962 . S
C566 H580 0.960 . S
C567 C564 1.511 . S
C567 H581 0.961 . S
C567 H582 0.961 . S
C567 H583 0.961 . S
C568 C569 1.370 . S
C568 C570 1.363 . S
C568 H584 0.931 . S
C569 C568 1.370 . S
C569 C573 1.408 . S
C570 C568 1.363 . S
C570 C571 1.370 . S
C570 C574 1.524 . S
C571 C563 1.503 . S
C571 C570 1.370 . S
C571 C572 1.403 . S
C572 C571 1.403 . S
C572 C573 1.404 . S
C572 C575 1.539 . S
C573 C569 1.408 . S
C573 C572 1.404 . S
C573 H585 0.930 . S
C574 C570 1.524 . S
C574 H586 0.956 . S
C574 H587 0.961 . S
C574 H588 0.961 . S
C575 C572 1.539 . S
C575 H589 0.958 . S
C575 H590 0.961 . S
C575 H591 0.960 . S
H576 C560 0.931 . S
H577 C565 0.929 . S
H578 C566 0.960 . S
H579 C566 0.962 . S
H580 C566 0.960 . S
H581 C567 0.961 . S
H582 C567 0.961 . S
H583 C567 0.961 . S
H584 C568 0.931 . S
H585 C573 0.930 . S
H586 C574 0.956 . S
H587 C574 0.961 . S
H588 C574 0.961 . S
H589 C575 0.958 . S
H590 C575 0.961 . S
H591 C575 0.960 . S
C592 C593 1.391 . S
C592 C594 1.394 . S
C592 H608 0.931 . S
C593 C592 1.391 . S
C593 C597 1.376 . S
C594 C592 1.394 . S
C594 C595 1.369 . S
C594 C598 1.531 . S
C595 C594 1.369 . S
C595 C596 1.410 . S
C595 C603 1.503 . S
C596 C595 1.410 . S
C596 C597 1.392 . S
C596 C599 1.511 . S
C597 C593 1.376 . S
C597 C596 1.392 . S
C597 H609 0.929 . S
C598 C594 1.531 . S
C598 H610 0.959 1_554 S
C598 H611 0.962 . S
C598 H612 0.960 1_554 S
C599 C596 1.511 . S
C599 H613 0.961 . S
C599 H614 0.961 . S
C599 H615 0.961 . S
C600 C601 1.370 . S
C600 C602 1.363 . S
C600 H616 0.931 . S
C601 C600 1.370 . S
C601 C605 1.408 . S
C602 C600 1.363 . S
C602 C603 1.370 . S
C602 C606 1.524 . S
C603 C595 1.503 . S
C603 C602 1.370 . S
C603 C604 1.403 . S
C604 C603 1.403 . S
C604 C605 1.404 . S
C604 C607 1.539 1_554 S
C605 C601 1.408 . S
C605 C604 1.404 . S
C605 H617 0.930 1_554 S
C606 C602 1.524 . S
C606 H618 0.956 . S
C606 H619 0.961 . S
C606 H620 0.961 . S
C607 C604 1.539 1_556 S
C607 H621 0.958 . S
C607 H622 0.961 . S
C607 H623 0.960 . S
H608 C592 0.931 . S
H609 C597 0.929 . S
H610 C598 0.959 1_556 S
H611 C598 0.962 . S
H612 C598 0.960 1_556 S
H613 C599 0.961 . S
H614 C599 0.961 . S
H615 C599 0.961 . S
H616 C600 0.931 . S
H617 C605 0.930 1_556 S
H618 C606 0.956 . S
H619 C606 0.961 . S
H620 C606 0.961 . S
H621 C607 0.958 . S
H622 C607 0.961 . S
H623 C607 0.960 . S
C624 C625 1.391 . S
C624 C626 1.394 . S
C624 H640 0.931 . S
C625 C624 1.391 . S
C625 C629 1.376 . S
C626 C624 1.394 . S
C626 C627 1.369 . S
C626 C630 1.531 . S
C627 C626 1.369 . S
C627 C628 1.410 . S
C627 C635 1.503 . S
C628 C627 1.410 . S
C628 C629 1.392 . S
C628 C631 1.511 . S
C629 C625 1.376 . S
C629 C628 1.392 . S
C629 H641 0.929 . S
C630 C626 1.531 . S
C630 H642 0.960 . S
C630 H643 0.962 . S
C630 H644 0.960 . S
C631 C628 1.511 . S
C631 H645 0.961 . S
C631 H646 0.961 . S
C631 H647 0.961 . S
C632 C633 1.370 . S
C632 C634 1.363 . S
C632 H648 0.931 . S
C633 C632 1.370 . S
C633 C637 1.408 1_554 S
C634 C632 1.363 . S
C634 C635 1.370 1_554 S
C634 C638 1.524 . S
C635 C627 1.503 . S
C635 C634 1.370 1_556 S
C635 C636 1.403 . S
C636 C635 1.403 . S
C636 C637 1.404 . S
C636 C639 1.539 . S
C637 C633 1.408 1_556 S
C637 C636 1.404 . S
C637 H649 0.930 . S
C638 C634 1.524 . S
C638 H650 0.956 . S
C638 H651 0.961 . S
C638 H652 0.961 . S
C639 C636 1.539 . S
C639 H653 0.958 . S
C639 H654 0.961 . S
C639 H655 0.960 . S
H640 C624 0.931 . S
H641 C629 0.929 . S
H642 C630 0.960 . S
H643 C630 0.962 . S
H644 C630 0.960 . S
H645 C631 0.961 . S
H646 C631 0.961 . S
H647 C631 0.961 . S
H648 C632 0.931 . S
H649 C637 0.930 . S
H650 C638 0.956 . S
H651 C638 0.961 . S
H652 C638 0.961 . S
H653 C639 0.958 . S
H654 C639 0.961 . S
H655 C639 0.960 . S
C656 C657 1.391 . S
C656 C658 1.394 . S
C656 H672 0.931 . S
C657 C656 1.391 . S
C657 C661 1.376 . S
C658 C656 1.394 . S
C658 C659 1.369 . S
C658 C662 1.531 . S
C659 C658 1.369 . S
C659 C660 1.410 . S
C659 C667 1.503 . S
C660 C659 1.410 . S
C660 C661 1.392 . S
C660 C663 1.511 . S
C661 C657 1.376 . S
C661 C660 1.392 . S
C661 H673 0.929 . S
C662 C658 1.531 . S
C662 H674 0.960 . S
C662 H675 0.962 . S
C662 H676 0.960 . S
C663 C660 1.511 . S
C663 H677 0.961 . S
C663 H678 0.961 . S
C663 H679 0.961 . S
C664 C665 1.370 . S
C664 C666 1.363 . S
C664 H680 0.931 . S
C665 C664 1.370 . S
C665 C669 1.408 . S
C666 C664 1.363 . S
C666 C667 1.370 . S
C666 C670 1.524 . S
C667 C659 1.503 . S
C667 C666 1.370 . S
C667 C668 1.403 . S
C668 C667 1.403 . S
C668 C669 1.404 . S
C668 C671 1.539 . S
C669 C665 1.408 . S
C669 C668 1.404 . S
C669 H681 0.930 . S
C670 C666 1.524 . S
C670 H682 0.956 . S
C670 H683 0.961 . S
C670 H684 0.961 . S
C671 C668 1.539 . S
C671 H685 0.958 . S
C671 H686 0.961 . S
C671 H687 0.960 . S
H672 C656 0.931 . S
H673 C661 0.929 . S
H674 C662 0.960 . S
H675 C662 0.962 . S
H676 C662 0.960 . S
H677 C663 0.961 . S
H678 C663 0.961 . S
H679 C663 0.961 . S
H680 C664 0.931 . S
H681 C669 0.930 . S
H682 C670 0.956 . S
H683 C670 0.961 . S
H684 C670 0.961 . S
H685 C671 0.958 . S
H686 C671 0.961 . S
H687 C671 0.960 . S
C688 C689 1.391 . S
C688 C690 1.394 . S
C688 H704 0.931 . S
C689 C688 1.391 . S
C689 C693 1.376 . S
C690 C688 1.394 . S
C690 C691 1.369 . S
C690 C694 1.531 . S
C691 C690 1.369 . S
C691 C692 1.410 . S
C691 C699 1.503 . S
C692 C691 1.410 . S
C692 C693 1.392 . S
C692 C695 1.511 . S
C693 C689 1.376 . S
C693 C692 1.392 . S
C693 H705 0.929 . S
C694 C690 1.531 . S
C694 H706 0.960 . S
C694 H707 0.962 . S
C694 H708 0.960 . S
C695 C692 1.511 . S
C695 H709 0.961 . S
C695 H710 0.961 . S
C695 H711 0.961 . S
C696 C697 1.370 . S
C696 C698 1.363 . S
C696 H712 0.931 . S
C697 C696 1.370 . S
C697 C701 1.408 . S
C698 C696 1.363 . S
C698 C699 1.370 . S
C698 C702 1.524 . S
C699 C691 1.503 . S
C699 C698 1.370 . S
C699 C700 1.403 . S
C700 C699 1.403 . S
C700 C701 1.404 . S
C700 C703 1.539 . S
C701 C697 1.408 . S
C701 C700 1.404 . S
C701 H713 0.930 . S
C702 C698 1.524 . S
C702 H714 0.956 . S
C702 H715 0.961 . S
C702 H716 0.961 . S
C703 C700 1.539 . S
C703 H717 0.958 . S
C703 H718 0.961 . S
C703 H719 0.960 . S
H704 C688 0.931 . S
H705 C693 0.929 . S
H706 C694 0.960 . S
H707 C694 0.962 . S
H708 C694 0.960 . S
H709 C695 0.961 . S
H710 C695 0.961 . S
H711 C695 0.961 . S
H712 C696 0.931 . S
H713 C701 0.930 . S
H714 C702 0.956 . S
H715 C702 0.961 . S
H716 C702 0.961 . S
H717 C703 0.958 . S
H718 C703 0.961 . S
H719 C703 0.960 . S
C720 C721 1.391 . S
C720 C722 1.394 . S
C720 H736 0.931 . S
C721 C720 1.391 . S
C721 C725 1.376 . S
C722 C720 1.394 . S
C722 C723 1.369 . S
C722 C726 1.531 . S
C723 C722 1.369 . S
C723 C724 1.410 . S
C723 C731 1.503 . S
C724 C723 1.410 . S
C724 C725 1.392 . S
C724 C727 1.511 . S
C725 C721 1.376 . S
C725 C724 1.392 . S
C725 H737 0.929 . S
C726 C722 1.531 . S
C726 H738 0.960 . S
C726 H739 0.962 . S
C726 H740 0.960 . S
C727 C724 1.511 . S
C727 H741 0.961 . S
C727 H742 0.961 . S
C727 H743 0.961 . S
C728 C729 1.370 . S
C728 C730 1.363 . S
C728 H744 0.931 . S
C729 C728 1.370 . S
C729 C733 1.408 . S
C730 C728 1.363 . S
C730 C731 1.370 . S
C730 C734 1.524 . S
C731 C723 1.503 . S
C731 C730 1.370 . S
C731 C732 1.403 . S
C732 C731 1.403 . S
C732 C733 1.404 . S
C732 C735 1.539 . S
C733 C729 1.408 . S
C733 C732 1.404 . S
C733 H745 0.930 . S
C734 C730 1.524 . S
C734 H746 0.956 . S
C734 H747 0.961 . S
C734 H748 0.961 . S
C735 C732 1.539 . S
C735 H749 0.958 . S
C735 H750 0.961 . S
C735 H751 0.960 . S
H736 C720 0.931 . S
H737 C725 0.929 . S
H738 C726 0.960 . S
H739 C726 0.962 . S
H740 C726 0.960 . S
H741 C727 0.961 . S
H742 C727 0.961 . S
H743 C727 0.961 . S
H744 C728 0.931 . S
H745 C733 0.930 . S
H746 C734 0.956 . S
H747 C734 0.961 . S
H748 C734 0.961 . S
H749 C735 0.958 . S
H750 C735 0.961 . S
H751 C735 0.960 . S
C752 C753 1.391 . S
C752 C754 1.394 . S
C752 H768 0.931 . S
C753 C752 1.391 . S
C753 C757 1.376 . S
C754 C752 1.394 . S
C754 C755 1.369 . S
C754 C758 1.531 . S
C755 C754 1.369 . S
C755 C756 1.410 . S
C755 C763 1.503 . S
C756 C755 1.410 . S
C756 C757 1.392 . S
C756 C759 1.511 . S
C757 C753 1.376 . S
C757 C756 1.392 . S
C757 H769 0.929 . S
C758 C754 1.531 . S
C758 H770 0.960 . S
C758 H771 0.962 . S
C758 H772 0.960 . S
C759 C756 1.511 . S
C759 H773 0.961 . S
C759 H774 0.961 . S
C759 H775 0.961 . S
C760 C761 1.370 . S
C760 C762 1.363 . S
C760 H776 0.931 . S
C761 C760 1.370 . S
C761 C765 1.408 . S
C762 C760 1.363 . S
C762 C763 1.370 . S
C762 C766 1.524 . S
C763 C755 1.503 . S
C763 C762 1.370 . S
C763 C764 1.403 . S
C764 C763 1.403 . S
C764 C765 1.404 . S
C764 C767 1.539 . S
C765 C761 1.408 . S
C765 C764 1.404 . S
C765 H777 0.930 . S
C766 C762 1.524 . S
C766 H778 0.956 . S
C766 H779 0.961 . S
C766 H780 0.961 . S
C767 C764 1.539 . S
C767 H781 0.958 . S
C767 H782 0.961 . S
C767 H783 0.960 . S
H768 C752 0.931 . S
H769 C757 0.929 . S
H770 C758 0.960 . S
H771 C758 0.962 . S
H772 C758 0.960 . S
H773 C759 0.961 . S
H774 C759 0.961 . S
H775 C759 0.961 . S
H776 C760 0.931 . S
H777 C765 0.930 . S
H778 C766 0.956 . S
H779 C766 0.961 . S
H780 C766 0.961 . S
H781 C767 0.958 . S
H782 C767 0.961 . S
H783 C767 0.960 . S
C784 C785 1.391 . S
C784 C786 1.394 . S
C784 H800 0.931 . S
C785 C784 1.391 . S
C785 C789 1.376 . S
C786 C784 1.394 . S
C786 C787 1.369 . S
C786 C790 1.531 . S
C787 C786 1.369 . S
C787 C788 1.410 . S
C787 C795 1.503 . S
C788 C787 1.410 . S
C788 C789 1.392 . S
C788 C791 1.511 . S
C789 C785 1.376 . S
C789 C788 1.392 . S
C789 H801 0.929 . S
C790 C786 1.531 . S
C790 H802 0.960 . S
C790 H803 0.962 . S
C790 H804 0.960 . S
C791 C788 1.511 . S
C791 H805 0.961 . S
C791 H806 0.961 . S
C791 H807 0.961 . S
C792 C793 1.361 1_556 S
C792 C794 1.359 1_556 S
C792 H808 0.945 . S
C793 C792 1.361 1_554 S
C793 C797 1.408 . S
C794 C792 1.359 1_554 S
C794 C795 1.370 . S
C794 C798 1.524 1_554 S
C795 C787 1.503 . S
C795 C794 1.370 . S
C795 C796 1.403 . S
C796 C795 1.403 . S
C796 C797 1.404 . S
C796 C799 1.539 . S
C797 C793 1.408 . S
C797 C796 1.404 . S
C797 H809 0.930 . S
C798 C794 1.524 1_556 S
C798 H810 0.956 . S
C798 H811 0.961 . S
C798 H812 0.961 . S
C799 C796 1.539 . S
C799 H813 0.958 . S
C799 H814 0.961 . S
C799 H815 0.960 . S
H800 C784 0.931 . S
H801 C789 0.929 . S
H802 C790 0.960 . S
H803 C790 0.962 . S
H804 C790 0.960 . S
H805 C791 0.961 . S
H806 C791 0.961 . S
H807 C791 0.961 . S
H808 C792 0.945 . S
H809 C797 0.930 . S
H810 C798 0.956 . S
H811 C798 0.961 . S
H812 C798 0.961 . S
H813 C799 0.958 . S
H814 C799 0.961 . S
H815 C799 0.960 . S
C816 C817 1.391 . S
C816 C818 1.394 . S
C816 H832 0.931 . S
C817 C816 1.391 . S
C817 C821 1.376 . S
C818 C816 1.394 . S
C818 C819 1.369 . S
C818 C822 1.531 . S
C819 C818 1.369 . S
C819 C820 1.410 . S
C819 C827 1.503 . S
C820 C819 1.410 . S
C820 C821 1.392 . S
C820 C823 1.511 . S
C821 C817 1.376 . S
C821 C820 1.392 . S
C821 H833 0.929 . S
C822 C818 1.531 . S
C822 H834 0.960 . S
C822 H835 0.962 . S
C822 H836 0.960 . S
C823 C820 1.511 . S
C823 H837 0.961 . S
C823 H838 0.961 . S
C823 H839 0.961 . S
C824 C825 1.370 . S
C824 C826 1.363 . S
C824 H840 0.931 . S
C825 C824 1.370 . S
C825 C829 1.408 . S
C826 C824 1.363 . S
C826 C827 1.370 . S
C826 C830 1.524 . S
C827 C819 1.503 . S
C827 C826 1.370 . S
C827 C828 1.403 . S
C828 C827 1.403 . S
C828 C829 1.404 . S
C828 C831 1.539 . S
C829 C825 1.408 . S
C829 C828 1.404 . S
C829 H841 0.930 . S
C830 C826 1.524 . S
C830 H842 0.956 . S
C830 H843 0.961 . S
C830 H844 0.961 . S
C831 C828 1.539 . S
C831 H845 0.958 . S
C831 H846 0.961 . S
C831 H847 0.960 . S
H832 C816 0.931 . S
H833 C821 0.929 . S
H834 C822 0.960 . S
H835 C822 0.962 . S
H836 C822 0.960 . S
H837 C823 0.961 . S
H838 C823 0.961 . S
H839 C823 0.961 . S
H840 C824 0.931 . S
H841 C829 0.930 . S
H842 C830 0.956 . S
H843 C830 0.961 . S
H844 C830 0.961 . S
H845 C831 0.958 . S
H846 C831 0.961 . S
H847 C831 0.960 . S
C848 C849 1.391 . S
C848 C850 1.394 . S
C848 H864 0.931 . S
C849 C848 1.391 . S
C849 C853 1.376 . S
C850 C848 1.394 . S
C850 C851 1.369 . S
C850 C854 1.531 . S
C851 C850 1.369 . S
C851 C852 1.410 . S
C851 C859 1.503 . S
C852 C851 1.410 . S
C852 C853 1.392 . S
C852 C855 1.511 . S
C853 C849 1.376 . S
C853 C852 1.392 . S
C853 H865 0.929 . S
C854 C850 1.531 . S
C854 H866 0.960 . S
C854 H867 0.962 . S
C854 H868 0.960 . S
C855 C852 1.511 . S
C855 H869 0.961 . S
C855 H870 0.961 . S
C855 H871 0.961 . S
C856 C857 1.370 . S
C856 C858 1.363 . S
C856 H872 0.931 . S
C857 C856 1.370 . S
C857 C861 1.408 . S
C858 C856 1.363 . S
C858 C859 1.370 . S
C858 C862 1.524 . S
C859 C851 1.503 . S
C859 C858 1.370 . S
C859 C860 1.403 . S
C860 C859 1.403 . S
C860 C861 1.404 . S
C860 C863 1.539 . S
C861 C857 1.408 . S
C861 C860 1.404 . S
C861 H873 0.930 . S
C862 C858 1.524 . S
C862 H874 0.956 . S
C862 H875 0.961 . S
C862 H876 0.961 . S
C863 C860 1.539 . S
C863 H877 0.958 . S
C863 H878 0.961 . S
C863 H879 0.960 . S
H864 C848 0.931 . S
H865 C853 0.929 . S
H866 C854 0.960 . S
H867 C854 0.962 . S
H868 C854 0.960 . S
H869 C855 0.961 . S
H870 C855 0.961 . S
H871 C855 0.961 . S
H872 C856 0.931 . S
H873 C861 0.930 . S
H874 C862 0.956 . S
H875 C862 0.961 . S
H876 C862 0.961 . S
H877 C863 0.958 . S
H878 C863 0.961 . S
H879 C863 0.960 . S
C880 C881 1.391 . S
C880 C882 1.394 . S
C880 H896 0.931 . S
C881 C880 1.391 . S
C881 C885 1.376 . S
C882 C880 1.394 . S
C882 C883 1.369 . S
C882 C886 1.531 . S
C883 C882 1.369 . S
C883 C884 1.410 . S
C883 C891 1.503 . S
C884 C883 1.410 . S
C884 C885 1.392 . S
C884 C887 1.511 . S
C885 C881 1.376 . S
C885 C884 1.392 . S
C885 H897 0.929 . S
C886 C882 1.531 . S
C886 H898 0.960 . S
C886 H899 0.962 . S
C886 H900 0.960 . S
C887 C884 1.511 . S
C887 H901 0.961 . S
C887 H902 0.961 . S
C887 H903 0.961 . S
C888 C889 1.370 . S
C888 C890 1.363 . S
C888 H904 0.931 . S
C889 C888 1.370 . S
C889 C893 1.408 . S
C890 C888 1.363 . S
C890 C891 1.370 . S
C890 C894 1.524 . S
C891 C883 1.503 . S
C891 C890 1.370 . S
C891 C892 1.403 . S
C892 C891 1.403 . S
C892 C893 1.404 . S
C892 C895 1.539 . S
C893 C889 1.408 . S
C893 C892 1.404 . S
C893 H905 0.930 . S
C894 C890 1.524 . S
C894 H906 0.956 . S
C894 H907 0.961 . S
C894 H908 0.961 . S
C895 C892 1.539 . S
C895 H909 0.958 . S
C895 H910 0.961 . S
C895 H911 0.960 . S
H896 C880 0.931 . S
H897 C885 0.929 . S
H898 C886 0.960 . S
H899 C886 0.962 . S
H900 C886 0.960 . S
H901 C887 0.961 . S
H902 C887 0.961 . S
H903 C887 0.961 . S
H904 C888 0.931 . S
H905 C893 0.930 . S
H906 C894 0.956 . S
H907 C894 0.961 . S
H908 C894 0.961 . S
H909 C895 0.958 . S
H910 C895 0.961 . S
H911 C895 0.960 . S
C912 C913 1.391 . S
C912 C914 1.394 . S
C912 H928 0.931 . S
C913 C912 1.391 . S
C913 C917 1.376 . S
C914 C912 1.394 . S
C914 C915 1.369 . S
C914 C918 1.531 . S
C915 C914 1.369 . S
C915 C916 1.410 . S
C915 C923 1.503 . S
C916 C915 1.410 . S
C916 C917 1.392 . S
C916 C919 1.511 . S
C917 C913 1.376 . S
C917 C916 1.392 . S
C917 H929 0.929 . S
C918 C914 1.531 . S
C918 H930 0.960 . S
C918 H931 0.962 . S
C918 H932 0.960 . S
C919 C916 1.511 . S
C919 H933 0.961 . S
C919 H934 0.961 . S
C919 H935 0.961 . S
C920 C921 1.370 . S
C920 C922 1.363 . S
C920 H936 0.931 . S
C921 C920 1.370 . S
C921 C925 1.408 . S
C922 C920 1.363 . S
C922 C923 1.370 . S
C922 C926 1.524 . S
C923 C915 1.503 . S
C923 C922 1.370 . S
C923 C924 1.403 . S
C924 C923 1.403 . S
C924 C925 1.404 . S
C924 C927 1.539 . S
C925 C921 1.408 . S
C925 C924 1.404 . S
C925 H937 0.930 . S
C926 C922 1.524 . S
C926 H938 0.956 . S
C926 H939 0.961 . S
C926 H940 0.961 . S
C927 C924 1.539 . S
C927 H941 0.958 . S
C927 H942 0.961 . S
C927 H943 0.960 . S
H928 C912 0.931 . S
H929 C917 0.929 . S
H930 C918 0.960 . S
H931 C918 0.962 . S
H932 C918 0.960 . S
H933 C919 0.961 . S
H934 C919 0.961 . S
H935 C919 0.961 . S
H936 C920 0.931 . S
H937 C925 0.930 . S
H938 C926 0.956 . S
H939 C926 0.961 . S
H940 C926 0.961 . S
H941 C927 0.958 . S
H942 C927 0.961 . S
H943 C927 0.960 . S
C944 C945 1.391 . S
C944 C946 1.394 . S
C944 H960 0.931 1_556 S
C945 C944 1.391 . S
C945 C949 1.376 . S
C946 C944 1.394 . S
C946 C947 1.369 . S
C946 C950 1.531 1_556 S
C947 C946 1.369 . S
C947 C948 1.410 . S
C947 C955 1.503 . S
C948 C947 1.410 . S
C948 C949 1.392 . S
C948 C951 1.511 . S
C949 C945 1.376 . S
C949 C948 1.392 . S
C949 H961 0.929 . S
C950 C946 1.531 1_554 S
C950 H962 0.960 . S
C950 H963 0.962 . S
C950 H964 0.960 . S
C951 C948 1.511 . S
C951 H965 0.961 . S
C951 H966 0.961 . S
C951 H967 0.961 . S
C952 C953 1.385 . S
C952 C954 1.375 . S
C952 H968 0.907 1_556 S
C953 C952 1.385 . S
C953 C957 1.408 . S
C954 C952 1.375 . S
C954 C955 1.370 . S
C954 C958 1.524 1_556 S
C955 C947 1.503 . S
C955 C954 1.370 . S
C955 C956 1.403 . S
C956 C955 1.403 . S
C956 C957 1.404 . S
C956 C959 1.539 . S
C957 C953 1.408 . S
C957 C956 1.404 . S
C957 H969 0.930 . S
C958 C954 1.524 1_554 S
C958 H970 0.956 . S
C958 H971 0.961 1_554 S
C958 H972 0.961 . S
C959 C956 1.539 . S
C959 H973 0.958 . S
C959 H974 0.961 . S
C959 H975 0.960 . S
H960 C944 0.931 1_554 S
H961 C949 0.929 . S
H962 C950 0.960 . S
H963 C950 0.962 . S
H964 C950 0.960 . S
H965 C951 0.961 . S
H966 C951 0.961 . S
H967 C951 0.961 . S
H968 C952 0.907 1_554 S
H969 C957 0.930 . S
H970 C958 0.956 . S
H971 C958 0.961 1_556 S
H972 C958 0.961 . S
H973 C959 0.958 . S
H974 C959 0.961 . S
H975 C959 0.960 . S
C976 C977 1.391 . S
C976 C978 1.394 . S
C976 H992 0.931 . S
C977 C976 1.391 . S
C977 C981 1.376 . S
C978 C976 1.394 . S
C978 C979 1.369 . S
C978 C982 1.531 . S
C979 C978 1.369 . S
C979 C980 1.410 . S
C979 C987 1.503 . S
C980 C979 1.410 . S
C980 C981 1.392 . S
C980 C983 1.511 . S
C981 C977 1.376 . S
C981 C980 1.392 . S
C981 H993 0.929 . S
C982 C978 1.531 . S
C982 H994 0.960 . S
C982 H995 0.962 . S
C982 H996 0.960 . S
C983 C980 1.511 . S
C983 H997 0.961 . S
C983 H998 0.961 . S
C983 H999 0.961 . S
C984 C985 1.370 . S
C984 C986 1.363 . S
C984 H1000 0.931 . S
C985 C984 1.370 . S
C985 C989 1.408 . S
C986 C984 1.363 . S
C986 C987 1.370 . S
C986 C990 1.524 . S
C987 C979 1.503 . S
C987 C986 1.370 . S
C987 C988 1.403 . S
C988 C987 1.403 . S
C988 C989 1.404 . S
C988 C991 1.539 . S
C989 C985 1.408 . S
C989 C988 1.404 . S
C989 H1001 0.930 . S
C990 C986 1.524 . S
C990 H1002 0.956 . S
C990 H1003 0.961 . S
C990 H1004 0.961 . S
C991 C988 1.539 . S
C991 H1005 0.958 . S
C991 H1006 0.961 . S
C991 H1007 0.960 . S
H992 C976 0.931 . S
H993 C981 0.929 . S
H994 C982 0.960 . S
H995 C982 0.962 . S
H996 C982 0.960 . S
H997 C983 0.961 . S
H998 C983 0.961 . S
H999 C983 0.961 . S
H1000 C984 0.931 . S
H1001 C989 0.930 . S
H1002 C990 0.956 . S
H1003 C990 0.961 . S
H1004 C990 0.961 . S
H1005 C991 0.958 . S
H1006 C991 0.961 . S
H1007 C991 0.960 . S
C1008 C1009 1.391 . S
C1008 C1010 1.394 . S
C1008 H1024 0.931 . S
C1009 C1008 1.391 . S
C1009 C1013 1.376 . S
C1010 C1008 1.394 . S
C1010 C1011 1.369 . S
C1010 C1014 1.531 . S
C1011 C1010 1.369 . S
C1011 C1012 1.410 . S
C1011 C1019 1.503 . S
C1012 C1011 1.410 . S
C1012 C1013 1.392 . S
C1012 C1015 1.511 . S
C1013 C1009 1.376 . S
C1013 C1012 1.392 . S
C1013 H1025 0.929 . S
C1014 C1010 1.531 . S
C1014 H1026 0.960 . S
C1014 H1027 0.962 . S
C1014 H1028 0.960 . S
C1015 C1012 1.511 . S
C1015 H1029 0.961 . S
C1015 H1030 0.961 . S
C1015 H1031 0.961 . S
C1016 C1017 1.370 . S
C1016 C1018 1.363 . S
C1016 H1032 0.931 . S
C1017 C1016 1.370 . S
C1017 C1021 1.408 . S
C1018 C1016 1.363 . S
C1018 C1019 1.370 . S
C1018 C1022 1.524 . S
C1019 C1011 1.503 . S
C1019 C1018 1.370 . S
C1019 C1020 1.403 . S
C1020 C1019 1.403 . S
C1020 C1021 1.404 . S
C1020 C1023 1.539 . S
C1021 C1017 1.408 . S
C1021 C1020 1.404 . S
C1021 H1033 0.930 . S
C1022 C1018 1.524 . S
C1022 H1034 0.956 . S
C1022 H1035 0.961 . S
C1022 H1036 0.961 . S
C1023 C1020 1.539 . S
C1023 H1037 0.958 . S
C1023 H1038 0.961 . S
C1023 H1039 0.960 . S
H1024 C1008 0.931 . S
H1025 C1013 0.929 . S
H1026 C1014 0.960 . S
H1027 C1014 0.962 . S
H1028 C1014 0.960 . S
H1029 C1015 0.961 . S
H1030 C1015 0.961 . S
H1031 C1015 0.961 . S
H1032 C1016 0.931 . S
H1033 C1021 0.930 . S
H1034 C1022 0.956 . S
H1035 C1022 0.961 . S
H1036 C1022 0.961 . S
H1037 C1023 0.958 . S
H1038 C1023 0.961 . S
H1039 C1023 0.960 . S
C1040 C1041 1.391 . S
C1040 C1042 1.394 . S
C1040 H1056 0.931 . S
C1041 C1040 1.391 . S
C1041 C1045 1.376 . S
C1042 C1040 1.394 . S
C1042 C1043 1.369 . S
C1042 C1046 1.531 . S
C1043 C1042 1.369 . S
C1043 C1044 1.410 . S
C1043 C1051 1.503 . S
C1044 C1043 1.410 . S
C1044 C1045 1.392 . S
C1044 C1047 1.511 . S
C1045 C1041 1.376 . S
C1045 C1044 1.392 . S
C1045 H1057 0.929 . S
C1046 C1042 1.531 . S
C1046 H1058 0.960 . S
C1046 H1059 0.962 . S
C1046 H1060 0.960 . S
C1047 C1044 1.511 . S
C1047 H1061 0.961 . S
C1047 H1062 0.961 . S
C1047 H1063 0.961 . S
C1048 C1049 1.370 . S
C1048 C1050 1.363 . S
C1048 H1064 0.931 . S
C1049 C1048 1.370 . S
C1049 C1053 1.408 . S
C1050 C1048 1.363 . S
C1050 C1051 1.370 . S
C1050 C1054 1.524 . S
C1051 C1043 1.503 . S
C1051 C1050 1.370 . S
C1051 C1052 1.403 . S
C1052 C1051 1.403 . S
C1052 C1053 1.404 . S
C1052 C1055 1.539 . S
C1053 C1049 1.408 . S
C1053 C1052 1.404 . S
C1053 H1065 0.930 . S
C1054 C1050 1.524 . S
C1054 H1066 0.956 . S
C1054 H1067 0.961 . S
C1054 H1068 0.961 . S
C1055 C1052 1.539 . S
C1055 H1069 0.958 . S
C1055 H1070 0.961 . S
C1055 H1071 0.960 . S
H1056 C1040 0.931 . S
H1057 C1045 0.929 . S
H1058 C1046 0.960 . S
H1059 C1046 0.962 . S
H1060 C1046 0.960 . S
H1061 C1047 0.961 . S
H1062 C1047 0.961 . S
H1063 C1047 0.961 . S
H1064 C1048 0.931 . S
H1065 C1053 0.930 . S
H1066 C1054 0.956 . S
H1067 C1054 0.961 . S
H1068 C1054 0.961 . S
H1069 C1055 0.958 . S
H1070 C1055 0.961 . S
H1071 C1055 0.960 . S
C1072 C1073 1.391 . S
C1072 C1074 1.394 . S
C1072 H1088 0.931 . S
C1073 C1072 1.391 . S
C1073 C1077 1.376 . S
C1074 C1072 1.394 . S
C1074 C1075 1.369 . S
C1074 C1078 1.531 . S
C1075 C1074 1.369 . S
C1075 C1076 1.410 . S
C1075 C1083 1.503 . S
C1076 C1075 1.410 . S
C1076 C1077 1.392 . S
C1076 C1079 1.511 . S
C1077 C1073 1.376 . S
C1077 C1076 1.392 . S
C1077 H1089 0.929 . S
C1078 C1074 1.531 . S
C1078 H1090 0.960 . S
C1078 H1091 0.962 . S
C1078 H1092 0.960 . S
C1079 C1076 1.511 . S
C1079 H1093 0.961 . S
C1079 H1094 0.961 . S
C1079 H1095 0.961 . S
C1080 C1081 1.370 . S
C1080 C1082 1.363 . S
C1080 H1096 0.931 . S
C1081 C1080 1.370 . S
C1081 C1085 1.408 . S
C1082 C1080 1.363 . S
C1082 C1083 1.370 . S
C1082 C1086 1.524 . S
C1083 C1075 1.503 . S
C1083 C1082 1.370 . S
C1083 C1084 1.403 . S
C1084 C1083 1.403 . S
C1084 C1085 1.404 . S
C1084 C1087 1.539 . S
C1085 C1081 1.408 . S
C1085 C1084 1.404 . S
C1085 H1097 0.930 . S
C1086 C1082 1.524 . S
C1086 H1098 0.956 . S
C1086 H1099 0.961 . S
C1086 H1100 0.961 . S
C1087 C1084 1.539 . S
C1087 H1101 0.958 . S
C1087 H1102 0.961 . S
C1087 H1103 0.960 . S
H1088 C1072 0.931 . S
H1089 C1077 0.929 . S
H1090 C1078 0.960 . S
H1091 C1078 0.962 . S
H1092 C1078 0.960 . S
H1093 C1079 0.961 . S
H1094 C1079 0.961 . S
H1095 C1079 0.961 . S
H1096 C1080 0.931 . S
H1097 C1085 0.930 . S
H1098 C1086 0.956 . S
H1099 C1086 0.961 . S
H1100 C1086 0.961 . S
H1101 C1087 0.958 . S
H1102 C1087 0.961 . S
H1103 C1087 0.960 . S
C1104 C1105 1.391 . S
C1104 C1106 1.394 . S
C1104 H1120 0.931 . S
C1105 C1104 1.391 . S
C1105 C1109 1.376 . S
C1106 C1104 1.394 . S
C1106 C1107 1.369 . S
C1106 C1110 1.531 . S
C1107 C1106 1.369 . S
C1107 C1108 1.410 . S
C1107 C1115 1.503 . S
C1108 C1107 1.410 . S
C1108 C1109 1.392 . S
C1108 C1111 1.511 . S
C1109 C1105 1.376 . S
C1109 C1108 1.392 . S
C1109 H1121 0.929 . S
C1110 C1106 1.531 . S
C1110 H1122 0.960 . S
C1110 H1123 0.962 . S
C1110 H1124 0.960 . S
C1111 C1108 1.511 . S
C1111 H1125 0.961 . S
C1111 H1126 0.961 . S
C1111 H1127 0.961 . S
C1112 C1113 1.370 . S
C1112 C1114 1.363 . S
C1112 H1128 0.931 . S
C1113 C1112 1.370 . S
C1113 C1117 1.408 . S
C1114 C1112 1.363 . S
C1114 C1115 1.370 . S
C1114 C1118 1.524 . S
C1115 C1107 1.503 . S
C1115 C1114 1.370 . S
C1115 C1116 1.403 . S
C1116 C1115 1.403 . S
C1116 C1117 1.404 . S
C1116 C1119 1.539 . S
C1117 C1113 1.408 . S
C1117 C1116 1.404 . S
C1117 H1129 0.930 . S
C1118 C1114 1.524 . S
C1118 H1130 0.956 . S
C1118 H1131 0.961 . S
C1118 H1132 0.961 . S
C1119 C1116 1.539 . S
C1119 H1133 0.958 . S
C1119 H1134 0.961 . S
C1119 H1135 0.960 . S
H1120 C1104 0.931 . S
H1121 C1109 0.929 . S
H1122 C1110 0.960 . S
H1123 C1110 0.962 . S
H1124 C1110 0.960 . S
H1125 C1111 0.961 . S
H1126 C1111 0.961 . S
H1127 C1111 0.961 . S
H1128 C1112 0.931 . S
H1129 C1117 0.930 . S
H1130 C1118 0.956 . S
H1131 C1118 0.961 . S
H1132 C1118 0.961 . S
H1133 C1119 0.958 . S
H1134 C1119 0.961 . S
H1135 C1119 0.960 . S
C1136 C1137 1.391 . S
C1136 C1138 1.394 . S
C1136 H1152 0.931 . S
C1137 C1136 1.391 . S
C1137 C1141 1.376 . S
C1138 C1136 1.394 . S
C1138 C1139 1.369 . S
C1138 C1142 1.531 . S
C1139 C1138 1.369 . S
C1139 C1140 1.410 . S
C1139 C1147 1.503 . S
C1140 C1139 1.410 . S
C1140 C1141 1.392 . S
C1140 C1143 1.511 . S
C1141 C1137 1.376 . S
C1141 C1140 1.392 . S
C1141 H1153 0.929 . S
C1142 C1138 1.531 . S
C1142 H1154 0.960 . S
C1142 H1155 0.962 . S
C1142 H1156 0.960 . S
C1143 C1140 1.511 . S
C1143 H1157 0.961 . S
C1143 H1158 0.961 . S
C1143 H1159 0.961 . S
C1144 C1145 1.370 . S
C1144 C1146 1.363 . S
C1144 H1160 0.931 . S
C1145 C1144 1.370 . S
C1145 C1149 1.408 . S
C1146 C1144 1.363 . S
C1146 C1147 1.370 . S
C1146 C1150 1.524 . S
C1147 C1139 1.503 . S
C1147 C1146 1.370 . S
C1147 C1148 1.403 . S
C1148 C1147 1.403 . S
C1148 C1149 1.404 . S
C1148 C1151 1.539 . S
C1149 C1145 1.408 . S
C1149 C1148 1.404 . S
C1149 H1161 0.930 . S
C1150 C1146 1.524 . S
C1150 H1162 0.956 . S
C1150 H1163 0.961 . S
C1150 H1164 0.961 . S
C1151 C1148 1.539 . S
C1151 H1165 0.958 . S
C1151 H1166 0.961 . S
C1151 H1167 0.960 . S
H1152 C1136 0.931 . S
H1153 C1141 0.929 . S
H1154 C1142 0.960 . S
H1155 C1142 0.962 . S
H1156 C1142 0.960 . S
H1157 C1143 0.961 . S
H1158 C1143 0.961 . S
H1159 C1143 0.961 . S
H1160 C1144 0.931 . S
H1161 C1149 0.930 . S
H1162 C1150 0.956 . S
H1163 C1150 0.961 . S
H1164 C1150 0.961 . S
H1165 C1151 0.958 . S
H1166 C1151 0.961 . S
H1167 C1151 0.960 . S
C1168 C1169 1.391 . S
C1168 C1170 1.394 . S
C1168 H1184 0.931 . S
C1169 C1168 1.391 . S
C1169 C1173 1.376 . S
C1170 C1168 1.394 . S
C1170 C1171 1.369 . S
C1170 C1174 1.531 . S
C1171 C1170 1.369 . S
C1171 C1172 1.410 . S
C1171 C1179 1.503 . S
C1172 C1171 1.410 . S
C1172 C1173 1.392 . S
C1172 C1175 1.511 . S
C1173 C1169 1.376 . S
C1173 C1172 1.392 . S
C1173 H1185 0.929 . S
C1174 C1170 1.531 . S
C1174 H1186 0.960 . S
C1174 H1187 0.962 . S
C1174 H1188 0.960 . S
C1175 C1172 1.511 . S
C1175 H1189 0.961 . S
C1175 H1190 0.961 . S
C1175 H1191 0.961 . S
C1176 C1177 1.370 . S
C1176 C1178 1.363 . S
C1176 H1192 0.931 . S
C1177 C1176 1.370 . S
C1177 C1181 1.408 . S
C1178 C1176 1.363 . S
C1178 C1179 1.370 . S
C1178 C1182 1.524 . S
C1179 C1171 1.503 . S
C1179 C1178 1.370 . S
C1179 C1180 1.403 . S
C1180 C1179 1.403 . S
C1180 C1181 1.404 . S
C1180 C1183 1.539 . S
C1181 C1177 1.408 . S
C1181 C1180 1.404 . S
C1181 H1193 0.930 . S
C1182 C1178 1.524 . S
C1182 H1194 0.956 . S
C1182 H1195 0.961 . S
C1182 H1196 0.961 . S
C1183 C1180 1.539 . S
C1183 H1197 0.958 . S
C1183 H1198 0.961 . S
C1183 H1199 0.960 . S
H1184 C1168 0.931 . S
H1185 C1173 0.929 . S
H1186 C1174 0.960 . S
H1187 C1174 0.962 . S
H1188 C1174 0.960 . S
H1189 C1175 0.961 . S
H1190 C1175 0.961 . S
H1191 C1175 0.961 . S
H1192 C1176 0.931 . S
H1193 C1181 0.930 . S
H1194 C1182 0.956 . S
H1195 C1182 0.961 . S
H1196 C1182 0.961 . S
H1197 C1183 0.958 . S
H1198 C1183 0.961 . S
H1199 C1183 0.960 . S
C1200 C1201 1.391 . S
C1200 C1202 1.394 . S
C1200 H1216 0.931 . S
C1201 C1200 1.391 . S
C1201 C1205 1.376 . S
C1202 C1200 1.394 . S
C1202 C1203 1.369 . S
C1202 C1206 1.531 . S
C1203 C1202 1.369 . S
C1203 C1204 1.410 . S
C1203 C1211 1.503 . S
C1204 C1203 1.410 . S
C1204 C1205 1.392 . S
C1204 C1207 1.511 . S
C1205 C1201 1.376 . S
C1205 C1204 1.392 . S
C1205 H1217 0.929 . S
C1206 C1202 1.531 . S
C1206 H1218 0.960 . S
C1206 H1219 0.962 . S
C1206 H1220 0.960 . S
C1207 C1204 1.511 . S
C1207 H1221 0.961 . S
C1207 H1222 0.961 . S
C1207 H1223 0.961 . S
C1208 C1209 1.370 . S
C1208 C1210 1.363 . S
C1208 H1224 0.931 . S
C1209 C1208 1.370 . S
C1209 C1213 1.408 . S
C1210 C1208 1.363 . S
C1210 C1211 1.370 . S
C1210 C1214 1.524 . S
C1211 C1203 1.503 . S
C1211 C1210 1.370 . S
C1211 C1212 1.403 . S
C1212 C1211 1.403 . S
C1212 C1213 1.404 . S
C1212 C1215 1.539 . S
C1213 C1209 1.408 . S
C1213 C1212 1.404 . S
C1213 H1225 0.930 . S
C1214 C1210 1.524 . S
C1214 H1226 0.956 . S
C1214 H1227 0.961 . S
C1214 H1228 0.961 . S
C1215 C1212 1.539 . S
C1215 H1229 0.958 . S
C1215 H1230 0.961 . S
C1215 H1231 0.960 . S
H1216 C1200 0.931 . S
H1217 C1205 0.929 . S
H1218 C1206 0.960 . S
H1219 C1206 0.962 . S
H1220 C1206 0.960 . S
H1221 C1207 0.961 . S
H1222 C1207 0.961 . S
H1223 C1207 0.961 . S
H1224 C1208 0.931 . S
H1225 C1213 0.930 . S
H1226 C1214 0.956 . S
H1227 C1214 0.961 . S
H1228 C1214 0.961 . S
H1229 C1215 0.958 . S
H1230 C1215 0.961 . S
H1231 C1215 0.960 . S
C1232 C1233 1.391 . S
C1232 C1234 1.394 . S
C1232 H1248 0.931 . S
C1233 C1232 1.391 . S
C1233 C1237 1.376 . S
C1234 C1232 1.394 . S
C1234 C1235 1.369 . S
C1234 C1238 1.531 . S
C1235 C1234 1.369 . S
C1235 C1236 1.410 . S
C1235 C1243 1.503 . S
C1236 C1235 1.410 . S
C1236 C1237 1.392 . S
C1236 C1239 1.511 . S
C1237 C1233 1.376 . S
C1237 C1236 1.392 . S
C1237 H1249 0.929 . S
C1238 C1234 1.531 . S
C1238 H1250 0.960 . S
C1238 H1251 0.962 . S
C1238 H1252 0.960 . S
C1239 C1236 1.511 . S
C1239 H1253 0.961 . S
C1239 H1254 0.961 . S
C1239 H1255 0.961 . S
C1240 C1241 1.370 . S
C1240 C1242 1.363 . S
C1240 H1256 0.931 . S
C1241 C1240 1.370 . S
C1241 C1245 1.408 . S
C1242 C1240 1.363 . S
C1242 C1243 1.370 . S
C1242 C1246 1.524 . S
C1243 C1235 1.503 . S
C1243 C1242 1.370 . S
C1243 C1244 1.403 . S
C1244 C1243 1.403 . S
C1244 C1245 1.404 . S
C1244 C1247 1.539 . S
C1245 C1241 1.408 . S
C1245 C1244 1.404 . S
C1245 H1257 0.930 . S
C1246 C1242 1.524 . S
C1246 H1258 0.956 . S
C1246 H1259 0.961 . S
C1246 H1260 0.961 . S
C1247 C1244 1.539 . S
C1247 H1261 0.958 . S
C1247 H1262 0.961 . S
C1247 H1263 0.960 . S
H1248 C1232 0.931 . S
H1249 C1237 0.929 . S
H1250 C1238 0.960 . S
H1251 C1238 0.962 . S
H1252 C1238 0.960 . S
H1253 C1239 0.961 . S
H1254 C1239 0.961 . S
H1255 C1239 0.961 . S
H1256 C1240 0.931 . S
H1257 C1245 0.930 . S
H1258 C1246 0.956 . S
H1259 C1246 0.961 . S
H1260 C1246 0.961 . S
H1261 C1247 0.958 . S
H1262 C1247 0.961 . S
H1263 C1247 0.960 . S
C1264 C1265 1.391 . S
C1264 C1266 1.394 . S
C1264 H1280 0.931 . S
C1265 C1264 1.391 . S
C1265 C1269 1.376 . S
C1266 C1264 1.394 . S
C1266 C1267 1.369 . S
C1266 C1270 1.531 . S
C1267 C1266 1.369 . S
C1267 C1268 1.410 . S
C1267 C1275 1.503 . S
C1268 C1267 1.410 . S
C1268 C1269 1.392 . S
C1268 C1271 1.511 . S
C1269 C1265 1.376 . S
C1269 C1268 1.392 . S
C1269 H1281 0.929 . S
C1270 C1266 1.531 . S
C1270 H1282 0.960 . S
C1270 H1283 0.962 . S
C1270 H1284 0.960 . S
C1271 C1268 1.511 . S
C1271 H1285 0.961 . S
C1271 H1286 0.961 . S
C1271 H1287 0.961 . S
C1272 C1273 1.370 . S
C1272 C1274 1.363 . S
C1272 H1288 0.931 . S
C1273 C1272 1.370 . S
C1273 C1277 1.408 . S
C1274 C1272 1.363 . S
C1274 C1275 1.370 . S
C1274 C1278 1.524 . S
C1275 C1267 1.503 . S
C1275 C1274 1.370 . S
C1275 C1276 1.403 . S
C1276 C1275 1.403 . S
C1276 C1277 1.404 . S
C1276 C1279 1.539 . S
C1277 C1273 1.408 . S
C1277 C1276 1.404 . S
C1277 H1289 0.930 . S
C1278 C1274 1.524 . S
C1278 H1290 0.956 . S
C1278 H1291 0.961 . S
C1278 H1292 0.961 . S
C1279 C1276 1.539 . S
C1279 H1293 0.958 . S
C1279 H1294 0.961 . S
C1279 H1295 0.960 . S
H1280 C1264 0.931 . S
H1281 C1269 0.929 . S
H1282 C1270 0.960 . S
H1283 C1270 0.962 . S
H1284 C1270 0.960 . S
H1285 C1271 0.961 . S
H1286 C1271 0.961 . S
H1287 C1271 0.961 . S
H1288 C1272 0.931 . S
H1289 C1277 0.930 . S
H1290 C1278 0.956 . S
H1291 C1278 0.961 . S
H1292 C1278 0.961 . S
H1293 C1279 0.958 . S
H1294 C1279 0.961 . S
H1295 C1279 0.960 . S
C1296 C1297 1.391 . S
C1296 C1298 1.394 . S
C1296 H1312 0.931 . S
C1297 C1296 1.391 . S
C1297 C1301 1.376 . S
C1298 C1296 1.394 . S
C1298 C1299 1.369 . S
C1298 C1302 1.531 . S
C1299 C1298 1.369 . S
C1299 C1300 1.410 . S
C1299 C1307 1.503 . S
C1300 C1299 1.410 . S
C1300 C1301 1.392 . S
C1300 C1303 1.511 . S
C1301 C1297 1.376 . S
C1301 C1300 1.392 . S
C1301 H1313 0.929 . S
C1302 C1298 1.531 . S
C1302 H1314 0.960 . S
C1302 H1315 0.962 . S
C1302 H1316 0.960 . S
C1303 C1300 1.511 . S
C1303 H1317 0.961 . S
C1303 H1318 0.961 . S
C1303 H1319 0.961 . S
C1304 C1305 1.370 . S
C1304 C1306 1.363 . S
C1304 H1320 0.931 . S
C1305 C1304 1.370 . S
C1305 C1309 1.408 . S
C1306 C1304 1.363 . S
C1306 C1307 1.370 . S
C1306 C1310 1.524 . S
C1307 C1299 1.503 . S
C1307 C1306 1.370 . S
C1307 C1308 1.403 . S
C1308 C1307 1.403 . S
C1308 C1309 1.404 . S
C1308 C1311 1.539 . S
C1309 C1305 1.408 . S
C1309 C1308 1.404 . S
C1309 H1321 0.930 . S
C1310 C1306 1.524 . S
C1310 H1322 0.956 . S
C1310 H1323 0.961 . S
C1310 H1324 0.961 . S
C1311 C1308 1.539 . S
C1311 H1325 0.958 . S
C1311 H1326 0.961 . S
C1311 H1327 0.960 . S
H1312 C1296 0.931 . S
H1313 C1301 0.929 . S
H1314 C1302 0.960 . S
H1315 C1302 0.962 . S
H1316 C1302 0.960 . S
H1317 C1303 0.961 . S
H1318 C1303 0.961 . S
H1319 C1303 0.961 . S
H1320 C1304 0.931 . S
H1321 C1309 0.930 . S
H1322 C1310 0.956 . S
H1323 C1310 0.961 . S
H1324 C1310 0.961 . S
H1325 C1311 0.958 . S
H1326 C1311 0.961 . S
H1327 C1311 0.960 . S
C1328 C1329 1.391 . S
C1328 C1330 1.394 . S
C1328 H1344 0.931 . S
C1329 C1328 1.391 . S
C1329 C1333 1.376 . S
C1330 C1328 1.394 . S
C1330 C1331 1.369 . S
C1330 C1334 1.531 . S
C1331 C1330 1.369 . S
C1331 C1332 1.410 . S
C1331 C1339 1.503 . S
C1332 C1331 1.410 . S
C1332 C1333 1.392 . S
C1332 C1335 1.511 . S
C1333 C1329 1.376 . S
C1333 C1332 1.392 . S
C1333 H1345 0.929 . S
C1334 C1330 1.531 . S
C1334 H1346 0.960 . S
C1334 H1347 0.962 . S
C1334 H1348 0.960 . S
C1335 C1332 1.511 . S
C1335 H1349 0.961 . S
C1335 H1350 0.961 . S
C1335 H1351 0.961 . S
C1336 C1337 1.370 . S
C1336 C1338 1.363 . S
C1336 H1352 0.931 . S
C1337 C1336 1.370 . S
C1337 C1341 1.408 . S
C1338 C1336 1.363 . S
C1338 C1339 1.370 . S
C1338 C1342 1.524 . S
C1339 C1331 1.503 . S
C1339 C1338 1.370 . S
C1339 C1340 1.403 . S
C1340 C1339 1.403 . S
C1340 C1341 1.404 . S
C1340 C1343 1.539 . S
C1341 C1337 1.408 . S
C1341 C1340 1.404 . S
C1341 H1353 0.930 . S
C1342 C1338 1.524 . S
C1342 H1354 0.956 . S
C1342 H1355 0.961 . S
C1342 H1356 0.961 . S
C1343 C1340 1.539 . S
C1343 H1357 0.958 . S
C1343 H1358 0.961 . S
C1343 H1359 0.960 . S
H1344 C1328 0.931 . S
H1345 C1333 0.929 . S
H1346 C1334 0.960 . S
H1347 C1334 0.962 . S
H1348 C1334 0.960 . S
H1349 C1335 0.961 . S
H1350 C1335 0.961 . S
H1351 C1335 0.961 . S
H1352 C1336 0.931 . S
H1353 C1341 0.930 . S
H1354 C1342 0.956 . S
H1355 C1342 0.961 . S
H1356 C1342 0.961 . S
H1357 C1343 0.958 . S
H1358 C1343 0.961 . S
H1359 C1343 0.960 . S
C1360 C1361 1.391 . S
C1360 C1362 1.394 . S
C1360 H1376 0.931 . S
C1361 C1360 1.391 . S
C1361 C1365 1.376 . S
C1362 C1360 1.394 . S
C1362 C1363 1.369 . S
C1362 C1366 1.531 . S
C1363 C1362 1.369 . S
C1363 C1364 1.410 . S
C1363 C1371 1.503 . S
C1364 C1363 1.410 . S
C1364 C1365 1.392 . S
C1364 C1367 1.511 . S
C1365 C1361 1.376 . S
C1365 C1364 1.392 . S
C1365 H1377 0.929 . S
C1366 C1362 1.531 . S
C1366 H1378 0.960 . S
C1366 H1379 0.962 . S
C1366 H1380 0.960 . S
C1367 C1364 1.511 . S
C1367 H1381 0.961 . S
C1367 H1382 0.961 . S
C1367 H1383 0.961 . S
C1368 C1369 1.370 . S
C1368 C1370 1.363 . S
C1368 H1384 0.931 . S
C1369 C1368 1.370 . S
C1369 C1373 1.408 . S
C1370 C1368 1.363 . S
C1370 C1371 1.370 . S
C1370 C1374 1.524 . S
C1371 C1363 1.503 . S
C1371 C1370 1.370 . S
C1371 C1372 1.403 . S
C1372 C1371 1.403 . S
C1372 C1373 1.404 . S
C1372 C1375 1.539 . S
C1373 C1369 1.408 . S
C1373 C1372 1.404 . S
C1373 H1385 0.930 . S
C1374 C1370 1.524 . S
C1374 H1386 0.956 . S
C1374 H1387 0.961 . S
C1374 H1388 0.961 . S
C1375 C1372 1.539 . S
C1375 H1389 0.958 . S
C1375 H1390 0.961 . S
C1375 H1391 0.960 . S
H1376 C1360 0.931 . S
H1377 C1365 0.929 . S
H1378 C1366 0.960 . S
H1379 C1366 0.962 . S
H1380 C1366 0.960 . S
H1381 C1367 0.961 . S
H1382 C1367 0.961 . S
H1383 C1367 0.961 . S
H1384 C1368 0.931 . S
H1385 C1373 0.930 . S
H1386 C1374 0.956 . S
H1387 C1374 0.961 . S
H1388 C1374 0.961 . S
H1389 C1375 0.958 . S
H1390 C1375 0.961 . S
H1391 C1375 0.960 . S
C1392 C1393 1.391 . S
C1392 C1394 1.394 . S
C1392 H1408 0.931 . S
C1393 C1392 1.391 . S
C1393 C1397 1.376 . S
C1394 C1392 1.394 . S
C1394 C1395 1.369 . S
C1394 C1398 1.531 . S
C1395 C1394 1.369 . S
C1395 C1396 1.410 . S
C1395 C1403 1.503 . S
C1396 C1395 1.410 . S
C1396 C1397 1.392 . S
C1396 C1399 1.511 . S
C1397 C1393 1.376 . S
C1397 C1396 1.392 . S
C1397 H1409 0.929 . S
C1398 C1394 1.531 . S
C1398 H1410 0.960 . S
C1398 H1411 0.962 . S
C1398 H1412 0.960 . S
C1399 C1396 1.511 . S
C1399 H1413 0.961 . S
C1399 H1414 0.961 . S
C1399 H1415 0.961 . S
C1400 C1401 1.370 . S
C1400 C1402 1.363 . S
C1400 H1416 0.931 . S
C1401 C1400 1.370 . S
C1401 C1405 1.408 . S
C1402 C1400 1.363 . S
C1402 C1403 1.370 . S
C1402 C1406 1.524 . S
C1403 C1395 1.503 . S
C1403 C1402 1.370 . S
C1403 C1404 1.403 . S
C1404 C1403 1.403 . S
C1404 C1405 1.404 . S
C1404 C1407 1.539 . S
C1405 C1401 1.408 . S
C1405 C1404 1.404 . S
C1405 H1417 0.930 . S
C1406 C1402 1.524 . S
C1406 H1418 0.956 . S
C1406 H1419 0.961 . S
C1406 H1420 0.961 . S
C1407 C1404 1.539 . S
C1407 H1421 0.958 . S
C1407 H1422 0.961 . S
C1407 H1423 0.960 . S
H1408 C1392 0.931 . S
H1409 C1397 0.929 . S
H1410 C1398 0.960 . S
H1411 C1398 0.962 . S
H1412 C1398 0.960 . S
H1413 C1399 0.961 . S
H1414 C1399 0.961 . S
H1415 C1399 0.961 . S
H1416 C1400 0.931 . S
H1417 C1405 0.930 . S
H1418 C1406 0.956 . S
H1419 C1406 0.961 . S
H1420 C1406 0.961 . S
H1421 C1407 0.958 . S
H1422 C1407 0.961 . S
H1423 C1407 0.960 . S
C1424 C1425 1.391 . S
C1424 C1426 1.394 . S
C1424 H1440 0.931 . S
C1425 C1424 1.391 . S
C1425 C1429 1.376 . S
C1426 C1424 1.394 . S
C1426 C1427 1.369 . S
C1426 C1430 1.531 . S
C1427 C1426 1.369 . S
C1427 C1428 1.410 . S
C1427 C1435 1.503 . S
C1428 C1427 1.410 . S
C1428 C1429 1.392 . S
C1428 C1431 1.511 . S
C1429 C1425 1.376 . S
C1429 C1428 1.392 . S
C1429 H1441 0.929 . S
C1430 C1426 1.531 . S
C1430 H1442 0.960 . S
C1430 H1443 0.962 . S
C1430 H1444 0.960 . S
C1431 C1428 1.511 . S
C1431 H1445 0.961 . S
C1431 H1446 0.961 . S
C1431 H1447 0.961 . S
C1432 C1433 1.370 . S
C1432 C1434 1.363 . S
C1432 H1448 0.931 . S
C1433 C1432 1.370 . S
C1433 C1437 1.408 . S
C1434 C1432 1.363 . S
C1434 C1435 1.370 . S
C1434 C1438 1.524 . S
C1435 C1427 1.503 . S
C1435 C1434 1.370 . S
C1435 C1436 1.403 . S
C1436 C1435 1.403 . S
C1436 C1437 1.404 . S
C1436 C1439 1.539 . S
C1437 C1433 1.408 . S
C1437 C1436 1.404 . S
C1437 H1449 0.930 . S
C1438 C1434 1.524 . S
C1438 H1450 0.956 . S
C1438 H1451 0.961 . S
C1438 H1452 0.961 . S
C1439 C1436 1.539 . S
C1439 H1453 0.958 . S
C1439 H1454 0.961 . S
C1439 H1455 0.960 . S
H1440 C1424 0.931 . S
H1441 C1429 0.929 . S
H1442 C1430 0.960 . S
H1443 C1430 0.962 . S
H1444 C1430 0.960 . S
H1445 C1431 0.961 . S
H1446 C1431 0.961 . S
H1447 C1431 0.961 . S
H1448 C1432 0.931 . S
H1449 C1437 0.930 . S
H1450 C1438 0.956 . S
H1451 C1438 0.961 . S
H1452 C1438 0.961 . S
H1453 C1439 0.958 . S
H1454 C1439 0.961 . S
H1455 C1439 0.960 . S
C1456 C1457 1.391 . S
C1456 C1458 1.394 . S
C1456 H1472 0.931 . S
C1457 C1456 1.391 . S
C1457 C1461 1.376 . S
C1458 C1456 1.394 . S
C1458 C1459 1.369 . S
C1458 C1462 1.531 . S
C1459 C1458 1.369 . S
C1459 C1460 1.410 . S
C1459 C1467 1.503 . S
C1460 C1459 1.410 . S
C1460 C1461 1.392 . S
C1460 C1463 1.511 . S
C1461 C1457 1.376 . S
C1461 C1460 1.392 . S
C1461 H1473 0.929 . S
C1462 C1458 1.531 . S
C1462 H1474 0.960 . S
C1462 H1475 0.962 . S
C1462 H1476 0.960 . S
C1463 C1460 1.511 . S
C1463 H1477 0.961 . S
C1463 H1478 0.961 . S
C1463 H1479 0.961 . S
C1464 C1465 1.370 . S
C1464 C1466 1.363 . S
C1464 H1480 0.931 . S
C1465 C1464 1.370 . S
C1465 C1469 1.408 . S
C1466 C1464 1.363 . S
C1466 C1467 1.370 . S
C1466 C1470 1.524 . S
C1467 C1459 1.503 . S
C1467 C1466 1.370 . S
C1467 C1468 1.403 . S
C1468 C1467 1.403 . S
C1468 C1469 1.404 . S
C1468 C1471 1.539 . S
C1469 C1465 1.408 . S
C1469 C1468 1.404 . S
C1469 H1481 0.930 . S
C1470 C1466 1.524 . S
C1470 H1482 0.956 . S
C1470 H1483 0.961 . S
C1470 H1484 0.961 . S
C1471 C1468 1.539 . S
C1471 H1485 0.958 . S
C1471 H1486 0.961 . S
C1471 H1487 0.960 . S
H1472 C1456 0.931 . S
H1473 C1461 0.929 . S
H1474 C1462 0.960 . S
H1475 C1462 0.962 . S
H1476 C1462 0.960 . S
H1477 C1463 0.961 . S
H1478 C1463 0.961 . S
H1479 C1463 0.961 . S
H1480 C1464 0.931 . S
H1481 C1469 0.930 . S
H1482 C1470 0.956 . S
H1483 C1470 0.961 . S
H1484 C1470 0.961 . S
H1485 C1471 0.958 . S
H1486 C1471 0.961 . S
H1487 C1471 0.960 . S
C1488 C1489 1.391 . S
C1488 C1490 1.394 . S
C1488 H1504 0.931 . S
C1489 C1488 1.391 . S
C1489 C1493 1.376 . S
C1490 C1488 1.394 . S
C1490 C1491 1.369 . S
C1490 C1494 1.531 . S
C1491 C1490 1.369 . S
C1491 C1492 1.410 . S
C1491 C1499 1.503 . S
C1492 C1491 1.410 . S
C1492 C1493 1.392 . S
C1492 C1495 1.511 . S
C1493 C1489 1.376 . S
C1493 C1492 1.392 . S
C1493 H1505 0.929 . S
C1494 C1490 1.531 . S
C1494 H1506 0.960 . S
C1494 H1507 0.962 . S
C1494 H1508 0.960 . S
C1495 C1492 1.511 . S
C1495 H1509 0.961 . S
C1495 H1510 0.961 . S
C1495 H1511 0.961 . S
C1496 C1497 1.370 . S
C1496 C1498 1.363 . S
C1496 H1512 0.931 . S
C1497 C1496 1.370 . S
C1497 C1501 1.408 . S
C1498 C1496 1.363 . S
C1498 C1499 1.370 . S
C1498 C1502 1.524 . S
C1499 C1491 1.503 . S
C1499 C1498 1.370 . S
C1499 C1500 1.403 . S
C1500 C1499 1.403 . S
C1500 C1501 1.404 . S
C1500 C1503 1.539 . S
C1501 C1497 1.408 . S
C1501 C1500 1.404 . S
C1501 H1513 0.930 . S
C1502 C1498 1.524 . S
C1502 H1514 0.956 . S
C1502 H1515 0.961 . S
C1502 H1516 0.961 . S
C1503 C1500 1.539 . S
C1503 H1517 0.958 . S
C1503 H1518 0.961 . S
C1503 H1519 0.960 . S
H1504 C1488 0.931 . S
H1505 C1493 0.929 . S
H1506 C1494 0.960 . S
H1507 C1494 0.962 . S
H1508 C1494 0.960 . S
H1509 C1495 0.961 . S
H1510 C1495 0.961 . S
H1511 C1495 0.961 . S
H1512 C1496 0.931 . S
H1513 C1501 0.930 . S
H1514 C1502 0.956 . S
H1515 C1502 0.961 . S
H1516 C1502 0.961 . S
H1517 C1503 0.958 . S
H1518 C1503 0.961 . S
H1519 C1503 0.960 . S
C505 C405 1.353 . S
C497 C36 1.289 . S
C537 C425 1.381 . S
C529 C93 1.354 . S
C569 C439 1.370 . S
C561 C126 1.422 . S
C593 C165 1.430 . S
C601 C397 1.398 . S
C625 C222 1.409 . S
C633 C391 1.495 . S
C657 C261 1.383 . S
C665 C411 1.439 . S
C697 C419 1.371 . S
C689 C318 1.369 . S
C729 C433 1.448 . S
C721 C381 1.398 . S
C753 C132 1.375 . S
C761 C461 1.447 . S
C793 C475 1.370 . S
C785 C189 1.330 . S
C817 C30 1.451 . S
C825 C495 1.415 . S
C857 C447 1.491 . S
C849 C69 1.395 . S
C881 C324 1.439 . S
C889 C453 1.394 . S
C913 C357 1.411 . S
C921 C467 1.369 . S
C953 C481 1.375 1_556 S
C945 C228 1.356 . S
C977 C285 1.301 . S
C985 C489 1.349 . S
C1017 C420 1.739 . S
C1009 C45 1.736 . S
C1049 C434 1.748 . S
C1041 C84 1.715 . S
C1073 C117 1.644 . S
C1081 C392 1.675 . S
C1105 C174 1.448 . S
C1113 C409 1.518 . S
C1137 C213 1.439 . S
C1145 C437 1.446 . S
C1177 C395 1.423 . S
C1169 C270 1.415 . S
C1209 C406 1.640 . S
C1201 C309 1.614 . S
C1241 C423 1.506 . S
C1233 C372 1.489 . S
C1273 C479 1.501 . S
C1265 C141 1.465 . S
C1305 C490 1.645 . S
C1297 C180 1.613 . S
C1329 C21 1.417 . S
C1337 C451 1.426 . S
C1369 C465 1.443 . S
C1361 C78 1.435 . S
C1401 C493 1.520 . S
C1393 C333 1.505 . S
C1425 C366 1.652 . S
C1433 C448 1.681 . S
C1465 C462 1.752 . S
C1457 C237 1.725 . S
C1497 C476 1.747 . S
C1489 C276 1.729 . S
