# Generated by pormake.
# Topology rtl, (3,6)-cn, num edge types: 1
# Building blocks:
#     Node 0, Type 0, BuildingBlock: QEWDON_clean_linker_0, # of connection points: 3
#     Node 1, Type 0, BuildingBlock: QEWDON_clean_linker_0, # of connection points: 3
#     Node 2, Type 0, BuildingBlock: QEWDON_clean_linker_0, # of connection points: 3
#     Node 3, Type 0, BuildingBlock: QEWDON_clean_linker_0, # of connection points: 3
#     Node 4, Type 1, BuildingBlock: KUMJIN_clean_sbu_1, # of connection points: 6
#     Node 5, Type 1, BuildingBlock: KUMJIN_clean_sbu_1, # of connection points: 6
#     Edge 6, Type (0, 1), BuildingBlock: XIVTED_clean_linker_0, # of connection points: 2
#     Edge 7, Type (0, 1), BuildingBlock: XIVTED_clean_linker_0, # of connection points: 2
#     Edge 8, Type (0, 1), BuildingBlock: XIVTED_clean_linker_0, # of connection points: 2
#     Edge 9, Type (0, 1), BuildingBlock: XIVTED_clean_linker_0, # of connection points: 2
#     Edge 10, Type (0, 1), BuildingBlock: XIVTED_clean_linker_0, # of connection points: 2
#     Edge 11, Type (0, 1), BuildingBlock: XIVTED_clean_linker_0, # of connection points: 2
#     Edge 12, Type (0, 1), BuildingBlock: XIVTED_clean_linker_0, # of connection points: 2
#     Edge 13, Type (0, 1), BuildingBlock: XIVTED_clean_linker_0, # of connection points: 2
#     Edge 14, Type (0, 1), BuildingBlock: XIVTED_clean_linker_0, # of connection points: 2
#     Edge 15, Type (0, 1), BuildingBlock: XIVTED_clean_linker_0, # of connection points: 2
#     Edge 16, Type (0, 1), BuildingBlock: XIVTED_clean_linker_0, # of connection points: 2
#     Edge 17, Type (0, 1), BuildingBlock: XIVTED_clean_linker_0, # of connection points: 2
# Relax obj value: 0.085
# Max RMSD: 0.274
# Mean RMSD: 0.209
data_MOF--net-rtl--node1-KUMJIN_clean_sbu_1--node2-QEWDON_clean_linker_0--edge1-XIVTED_clean_linker_0
_symmetry_space_group_name_H-M    P1
_symmetry_Int_Tables_number       1
_symmetry_cell_setting            triclinic
loop_
_symmetry_equiv_pos_as_xyz
'x, y, z'
_cell_length_a     37.50453
_cell_length_b     37.389091
_cell_length_c     26.975063
_cell_angle_alpha  79.080439
_cell_angle_beta   101.28293
_cell_angle_gamma 91.890385
loop_
_atom_site_label
_atom_site_type_symbol
_atom_site_fract_x
_atom_site_fract_y
_atom_site_fract_z
_atom_type_partial_charge
H0 H 0.24571 0.85098 0.10996 0.0
C1 C 0.23544 0.86122 0.06947 0.0
C2 C 0.20134 0.87864 0.0537 0.0
C3 C 0.25704 0.85767 0.03339 0.0
H4 H 0.16382 0.90744 0.98844 0.0
C5 C 0.18935 0.89266 1.0012 0.0
C6 C 0.21038 0.88929 0.96469 0.0
C7 C 0.24403 0.87106 0.98076 0.0
C8 C 0.29525 0.84536 0.05217 0.0
H9 H 0.26099 0.86943 0.953 0.0
C10 C 0.30813 0.81278 0.04248 0.0
C11 C 0.34409 0.8009 0.0646 0.0
C12 C 0.31882 0.86636 0.08224 0.0
H13 H 0.30945 0.89151 0.08992 0.0
C14 C 0.35457 0.85519 0.10277 0.0
H15 H 0.28997 0.79616 0.01991 0.0
C16 C 0.36709 0.82263 0.09434 0.0
H17 H 0.39489 0.81429 0.11128 0.0
H18 H 0.37254 0.87163 0.12583 0.0
H19 H 0.7563 0.69574 0.61206 0.0
C20 C 0.73761 0.69527 0.63815 0.0
C21 C 0.70284 0.67969 0.62711 0.0
C22 C 0.74956 0.70685 0.68545 0.0
H23 H 0.65294 0.66567 0.65457 0.0
C24 C 0.67957 0.67786 0.66259 0.0
C25 C 0.69136 0.68812 0.71037 0.0
C26 C 0.72611 0.70324 0.72108 0.0
C27 C 0.78819 0.71692 0.7022 0.0
H28 H 0.7356 0.71078 0.75831 0.0
C29 C 0.80567 0.7452 0.6732 0.0
C30 C 0.84186 0.75525 0.69234 0.0
C31 C 0.80751 0.69814 0.74942 0.0
H32 H 0.79498 0.676 0.77207 0.0
C33 C 0.84298 0.70772 0.76828 0.0
H34 H 0.79098 0.75948 0.63654 0.0
C35 C 0.85988 0.73618 0.74048 0.0
H36 H 0.88699 0.74363 0.75761 0.0
H37 H 0.85733 0.69333 0.80507 0.0
H38 H 0.80059 0.18503 0.13584 0.0
C39 C 0.81149 0.18479 0.10151 0.0
C40 C 0.84558 0.16882 0.10577 0.0
C41 C 0.79016 0.19765 0.05287 0.0
H42 H 0.8843 0.1528 0.06486 0.0
C43 C 0.85855 0.16638 0.06107 0.0
C44 C 0.83793 0.17989 0.01193 0.0
C45 C 0.80368 0.19564 0.00843 0.0
C46 C 0.75129 0.20619 0.04794 0.0
H47 H 0.78683 0.20548 0.97112 0.0
C48 C 0.73926 0.24084 0.05135 0.0
C49 C 0.70166 0.24825 0.04281 0.0
C50 C 0.72573 0.17902 0.0375 0.0
H51 H 0.73455 0.15227 0.03477 0.0
C52 C 0.68865 0.18613 0.03007 0.0
H53 H 0.75885 0.26206 0.05885 0.0
C54 C 0.67664 0.22054 0.03236 0.0
H55 H 0.64766 0.22559 0.02591 0.0
H56 H 0.66913 0.16501 0.02198 0.0
H57 H 0.35539 0.29435 0.52596 0.0
C58 C 0.36072 0.31007 0.49008 0.0
C59 C 0.37669 0.34476 0.48935 0.0
C60 C 0.35488 0.2944 0.44552 0.0
H61 H 0.39745 0.391 0.44268 0.0
C62 C 0.38484 0.36443 0.44321 0.0
C63 C 0.37922 0.34938 0.39865 0.0
C64 C 0.36424 0.31442 0.39998 0.0
C65 C 0.34377 0.25557 0.44759 0.0
H66 H 0.36051 0.30252 0.36567 0.0
C67 C 0.31373 0.24082 0.46918 0.0
C68 C 0.30403 0.20381 0.46974 0.0
C69 C 0.36404 0.23283 0.4274 0.0
H70 H 0.38755 0.24312 0.41146 0.0
C71 C 0.35453 0.19655 0.42775 0.0
H72 H 0.29803 0.25802 0.4851 0.0
C73 C 0.32477 0.18217 0.44839 0.0
H74 H 0.31769 0.15403 0.44687 0.0
H75 H 0.37024 0.17947 0.41169 0.0
Eu76 Eu 0.04149 0.98644 0.49846 0.0
C77 C 0.94003 0.11032 0.47991 0.0
N78 N 0.97528 0.11153 0.50392 0.0
C79 C 0.9814 0.1717 0.45644 0.0
C80 C 0.92429 0.1397 0.44178 0.0
C81 C 0.99598 0.14174 0.49349 0.0
C82 C 0.94547 0.17059 0.43021 0.0
C83 C 0.88285 0.07787 0.46959 0.0
C84 C 0.91971 0.07959 0.49355 0.0
C85 C 0.86746 0.10645 0.43023 0.0
C86 C 0.88811 0.13731 0.41643 0.0
Eu87 Eu 0.99776 0.06056 0.56689 0.0
N88 N 0.93532 0.05232 0.53192 0.0
C89 C 0.86212 0.04812 0.48722 0.0
C90 C 0.91405 0.02547 0.55271 0.0
C91 C 0.87758 0.02227 0.52976 0.0
H92 H 0.0237 0.14257 0.51395 0.0
H93 H 0.86123 1.00028 0.54563 0.0
H94 H 0.96694 0.94766 0.44048 0.0
H95 H 0.1691 0.91894 0.59975 0.0
H96 H 0.92457 1.00688 0.58788 0.0
H97 H 0.83373 0.0458 0.46988 0.0
H98 H 0.12963 0.97033 0.54887 0.0
H99 H 0.9979 0.19555 0.448 0.0
H100 H 0.83932 0.10535 0.41109 0.0
H101 H 0.8757 0.15939 0.38656 0.0
H102 H 0.93721 0.88724 0.44788 0.0
H103 H 0.93433 0.19372 0.4012 0.0
H104 H 0.14239 0.85795 0.62225 0.0
N105 N 1.01303 0.92913 0.49825 0.0
C106 C 0.03123 0.90015 0.52981 0.0
C107 C 0.96357 0.89053 0.47138 0.0
C108 C 1.01565 0.86514 0.53486 0.0
C109 C 0.98042 0.92463 0.46727 0.0
C110 C 0.98096 0.86077 0.50609 0.0
N111 N 0.08142 0.93871 0.54472 0.0
C112 C 0.11801 0.94366 0.55865 0.0
C113 C 0.088 0.87498 0.58225 0.0
C114 C 0.06673 0.90504 0.55356 0.0
C115 C 0.12508 0.88036 0.60015 0.0
C116 C 0.1403 0.91472 0.58738 0.0
H117 H 0.96796 0.83435 0.509 0.0
H118 H 0.02415 0.80843 0.57147 0.0
H119 H 0.0877 0.81701 0.61268 0.0
O120 O 0.05279 0.01854 0.4263 0.0
O121 O 0.06883 0.98591 0.58127 0.0
O122 O 0.04131 0.02444 0.62236 0.0
O123 O 0.06421 0.96087 0.44544 0.0
O124 O 0.07833 0.03387 0.51737 0.0
O125 O 0.05464 0.07742 0.55532 0.0
O126 O 0.96839 0.06809 0.62671 0.0
O127 O 1.0042 0.06968 0.48267 0.0
O128 O 0.98837 1.01479 0.46132 0.0
O129 O 1.01206 0.10435 0.61115 0.0
O130 O 0.9887 0.99985 0.59356 0.0
O131 O 0.98507 0.98421 0.5158 0.0
C132 C 0.06525 0.99943 0.62179 0.0
C133 C 0.04585 0.98517 0.35838 0.0
C134 C 0.05172 0.96324 0.28043 0.0
C135 C 1.01364 0.96612 0.26424 0.0
C136 C 1.00809 0.98771 0.34155 0.0
C137 C 0.99216 0.97861 0.29438 0.0
C138 C 0.06754 0.9735 0.32756 0.0
C139 C 0.08032 0.06444 0.53604 0.0
C140 C 0.06263 0.99018 0.4105 0.0
C141 C 0.0358 0.83549 0.56657 0.0
C142 C 0.07198 0.84037 0.59008 0.0
C143 C 0.98722 0.0503 0.44948 0.0
C144 C 0.9636 0.1276 0.64156 0.0
C145 C 0.92899 0.15564 0.6924 0.0
C146 C 0.91719 0.18295 0.64914 0.0
C147 C 0.95147 0.15526 0.59907 0.0
C148 C 0.9525 0.12809 0.6884 0.0
C149 C 0.92853 0.18278 0.60294 0.0
C150 C 0.9811 0.97571 0.56355 0.0
C151 C 0.98603 0.09704 0.63705 0.0
H152 H 1.00014 0.95784 0.22896 0.0
H153 H 0.99094 0.99578 0.36545 0.0
H154 H 0.96293 0.98031 0.28175 0.0
H155 H 0.09671 0.97188 0.34106 0.0
H156 H 0.8994 0.20464 0.65119 0.0
H157 H 0.9594 0.15563 0.56278 0.0
H158 H 0.96137 0.10656 0.72124 0.0
H159 H 0.91932 0.20396 0.56987 0.0
Eu160 Eu 0.48373 0.51035 0.99802 0.0
C161 C 0.63508 0.57957 0.0538 0.0
N162 N 0.62389 0.54686 0.07727 0.0
C163 C 0.6802 0.51918 0.07542 0.0
C164 C 0.66935 0.58306 0.03923 0.0
C165 C 0.64593 0.51696 0.08885 0.0
C166 C 0.69192 0.55233 0.05031 0.0
C167 C 0.62238 0.64341 0.01752 0.0
C168 C 0.61159 0.60933 0.04267 0.0
C169 C 0.65632 0.64685 0.00248 0.0
C170 C 0.67974 0.61679 0.01336 0.0
Eu171 Eu 0.56553 0.5453 0.09779 0.0
N172 N 0.57847 0.60508 0.05674 0.0
C173 C 0.59899 0.67324 0.00897 0.0
C174 C 0.55722 0.63487 0.05257 0.0
C175 C 0.56661 0.66909 0.02749 0.0
H176 H 0.63725 0.49151 0.1091 0.0
H177 H 0.5492 0.6924 0.02341 0.0
H178 H 0.41399 0.5687 0.9746 0.0
H179 H 0.4924 0.36576 0.08902 0.0
H180 H 0.53369 0.63303 0.07005 0.0
H181 H 0.60629 0.69985 0.98981 0.0
H182 H 0.51258 0.42227 0.04011 0.0
H183 H 0.69758 0.49535 0.08452 0.0
H184 H 0.66485 0.67276 0.98278 0.0
H185 H 0.70584 0.61991 1.00154 0.0
H186 H 0.35247 0.57034 0.99422 0.0
H187 H 0.71841 0.55392 0.03967 0.0
H188 H 0.4325 0.36335 0.11476 0.0
N189 N 0.42413 0.51388 0.01264 0.0
C190 C 0.41059 0.48292 0.03759 0.0
C191 C 0.36862 0.54567 0.00694 0.0
C192 C 0.37555 0.48254 0.04936 0.0
C193 C 0.40359 0.54482 0.9964 0.0
C194 C 0.3546 0.51446 0.0338 0.0
N195 N 0.4665 0.45324 0.04214 0.0
C196 C 0.48729 0.42244 0.05301 0.0
C197 C 0.41926 0.41956 0.0798 0.0
C198 C 0.43235 0.45179 0.0528 0.0
C199 C 0.44154 0.38859 0.09393 0.0
C200 C 0.47548 0.38992 0.07981 0.0
H201 H 0.32755 0.51525 0.0421 0.0
H202 H 0.33588 0.44982 0.08621 0.0
H203 H 0.3741 0.39473 0.11282 0.0
O204 O 0.48361 0.47679 0.93992 0.0
O205 O 0.47704 0.5096 0.08037 0.0
O206 O 0.53372 0.49659 0.13002 0.0
O207 O 0.44353 0.5194 0.92626 0.0
O208 O 0.53907 0.48227 0.01312 0.0
O209 O 0.56764 0.48488 0.09681 0.0
O210 O 0.56503 0.57334 0.16193 0.0
O211 O 0.57278 0.54444 0.01641 0.0
O212 O 0.51681 0.55788 0.96483 0.0
O213 O 0.6091 0.53681 0.16554 0.0
O214 O 0.50952 0.57199 0.08304 0.0
O215 O 0.48333 0.57087 0.99827 0.0
C216 C 0.49817 0.49408 0.12322 0.0
C217 C 0.46203 0.50447 0.85388 0.0
C218 C 0.45571 0.48918 0.76846 0.0
C219 C 0.47376 0.52173 0.75267 0.0
C220 C 0.48007 0.53668 0.83744 0.0
C221 C 0.48577 0.54527 0.78696 0.0
C222 C 0.44977 0.48088 0.81933 0.0
C223 C 0.56343 0.47031 0.05516 0.0
C224 C 0.45685 0.49445 0.90732 0.0
C225 C 0.36266 0.45056 0.07663 0.0
C226 C 0.38446 0.41919 0.09182 0.0
C227 C 0.55245 0.55995 0.97288 0.0
C228 C 0.59374 0.54274 0.24402 0.0
C229 C 0.6082 0.54939 0.33422 0.0
C230 C 0.59471 0.51397 0.34792 0.0
C231 C 0.58002 0.50781 0.2585 0.0
C232 C 0.60753 0.56352 0.28174 0.0
C233 C 0.58054 0.49355 0.31028 0.0
C234 C 0.48609 0.58463 0.04031 0.0
C235 C 0.59462 0.55757 0.18986 0.0
H236 H 0.4784 0.52913 0.71364 0.0
H237 H 0.48981 0.55507 0.86363 0.0
H238 H 0.49966 0.5702 0.77441 0.0
H239 H 0.43639 0.4557 0.83245 0.0
H240 H 0.59548 0.50169 0.38782 0.0
H241 H 0.56927 0.49147 0.22988 0.0
H242 H 0.61744 0.59075 0.26997 0.0
H243 H 0.57023 0.46643 0.32137 0.0
H244 H 0.23549 0.23302 0.45927 0.0
H245 H 0.14819 0.03943 0.53714 0.0
H246 H 0.29929 0.13592 0.52775 0.0
H247 H 0.09012 0.13831 0.53127 0.0
H248 H 0.20312 0.07513 0.52907 0.0
H249 H 0.1813 0.20041 0.48249 0.0
C250 C 0.2383 0.20513 0.47991 0.0
C251 C 0.272 0.18705 0.49068 0.0
C252 C 0.17845 0.08906 0.52993 0.0
C253 C 0.21002 0.14944 0.51627 0.0
C254 C 0.14698 0.06866 0.53431 0.0
C255 C 0.11435 0.08584 0.5347 0.0
C256 C 0.17735 0.12714 0.52483 0.0
C257 C 0.11463 0.12388 0.53126 0.0
C258 C 0.20731 0.18648 0.49287 0.0
C259 C 0.2738 0.15076 0.51731 0.0
N260 N 0.1455 0.14333 0.52579 0.0
N261 N 0.24329 0.1331 0.52844 0.0
H262 H 0.37469 0.74687 0.14165 0.0
H263 H 0.4462 0.63169 0.95833 0.0
H264 H 0.34618 0.77458 0.9763 0.0
H265 H 0.46935 0.60591 0.12427 0.0
H266 H 0.40654 0.68172 0.96232 0.0
H267 H 0.40566 0.69235 0.13448 0.0
C268 C 0.3747 0.74117 0.10373 0.0
C269 C 0.35809 0.76534 0.05951 0.0
C270 C 0.42018 0.66495 0.99778 0.0
C271 C 0.3941 0.70299 0.05074 0.0
C272 C 0.44279 0.63639 0.99554 0.0
C273 C 0.46123 0.61458 0.04104 0.0
C274 C 0.41606 0.67176 0.04587 0.0
C275 C 0.45597 0.62208 0.08816 0.0
C276 C 0.39246 0.71006 0.09959 0.0
C277 C 0.35863 0.75654 0.01131 0.0
N278 N 0.43404 0.64997 0.08928 0.0
N279 N 0.37676 0.72623 0.00814 0.0
H280 H 0.81304 0.82014 0.63184 0.0
H281 H 1.0001 0.92337 0.64924 0.0
H282 H 0.91478 0.76173 0.6889 0.0
H283 H 0.91602 0.95299 0.51478 0.0
H284 H 0.96589 0.86791 0.67527 0.0
H285 H 0.8468 0.87313 0.59647 0.0
C286 C 0.84227 0.8181 0.63653 0.0
C287 C 0.86094 0.78632 0.66451 0.0
C288 C 0.95496 0.88664 0.64011 0.0
C289 C 0.89966 0.84742 0.62558 0.0
C290 C 0.97429 0.91825 0.62554 0.0
C291 C 0.96064 0.94264 0.5801 0.0
C292 C 0.92126 0.88007 0.6098 0.0
C293 C 0.92728 0.93475 0.55024 0.0
C294 C 0.86151 0.84851 0.6166 0.0
C295 C 0.89906 0.78583 0.66941 0.0
N296 N 0.90842 0.90434 0.56592 0.0
N297 N 0.91712 0.81602 0.65105 0.0
H298 H 0.65699 0.29111 0.96457 0.0
H299 H 0.61007 0.42888 0.1362 0.0
H300 H 0.71292 0.2876 0.12094 0.0
H301 H 0.57114 0.44113 0.9723 0.0
H302 H 0.64834 0.37775 0.13269 0.0
H303 H 0.6263 0.34706 0.96728 0.0
C304 C 0.6631 0.30252 0.99931 0.0
C305 C 0.68747 0.28484 0.04256 0.0
C306 C 0.63157 0.39183 0.09752 0.0
C307 C 0.65185 0.34862 0.04654 0.0
C308 C 0.60967 0.42101 0.09947 0.0
C309 C 0.58726 0.43945 0.05448 0.0
C310 C 0.63081 0.38079 0.05032 0.0
C311 C 0.58774 0.42777 0.00809 0.0
C312 C 0.64553 0.33442 1.00096 0.0
C313 C 0.69446 0.30065 0.0867 0.0
N314 N 0.60896 0.39923 0.00731 0.0
N315 N 0.67638 0.33148 0.08781 0.0
H316 H 0.12689 0.8779 0.04264 0.0
H317 H 0.11522 0.92268 0.31419 0.0
H318 H 0.22456 0.89398 0.15118 0.0
H319 H 0.04078 0.96956 0.17489 0.0
H320 H 0.15206 0.8993 0.26196 0.0
H321 H 0.09077 0.89722 0.09898 0.0
C322 C 0.14085 0.88537 0.0783 0.0
C323 C 0.17905 0.88497 0.09146 0.0
C324 C 0.12759 0.9147 0.24314 0.0
C325 C 0.13748 0.90603 0.15682 0.0
C326 C 0.10659 0.92844 0.27279 0.0
C327 C 0.07462 0.94853 0.24922 0.0
C328 C 0.11616 0.92019 0.18963 0.0
C329 C 0.06463 0.95379 0.19526 0.0
C330 C 0.12011 0.89627 0.11044 0.0
C331 C 0.1953 0.89369 0.13929 0.0
N332 N 0.08516 0.93952 0.16743 0.0
N333 N 0.17441 0.90396 0.17022 0.0
H334 H 0.61761 0.69512 0.7049 0.0
H335 H 0.62081 0.54805 0.96019 0.0
H336 H 0.716 0.65332 0.80904 0.0
H337 H 0.52652 0.61599 0.89252 0.0
H338 H 0.65437 0.58395 0.8997 0.0
H339 H 0.58219 0.66553 0.76886 0.0
C340 C 0.63178 0.68026 0.74152 0.0
C341 C 0.66986 0.6767 0.7516 0.0
C342 C 0.62638 0.59119 0.89799 0.0
C343 C 0.62954 0.6423 0.82426 0.0
C344 C 0.60716 0.57068 0.9326 0.0
C345 C 0.57103 0.57951 0.93211 0.0
C346 C 0.60923 0.62043 0.86155 0.0
C347 C 0.5544 0.60837 0.89431 0.0
C348 C 0.61156 0.66338 0.7779 0.0
C349 C 0.68681 0.65717 0.79971 0.0
N350 N 0.57366 0.62789 0.86039 0.0
N351 N 0.66653 0.64037 0.83386 0.0
H352 H 0.8607 0.09685 0.13989 0.0
H353 H 0.9975 0.11868 0.3962 0.0
H354 H 0.87715 0.20117 0.18643 0.0
H355 H 0.93227 0.02227 0.38579 0.0
H356 H 0.96191 0.14864 0.31322 0.0
H357 H 0.89543 0.06777 0.22403 0.0
C358 C 0.87174 0.11354 0.16797 0.0
C359 C 0.86619 0.15133 0.15661 0.0
C360 C 0.95543 0.12095 0.32927 0.0
C361 C 0.9062 0.11854 0.25208 0.0
C362 C 0.97559 0.10392 0.37659 0.0
C363 C 0.96739 0.06821 0.39829 0.0
C364 C 0.92768 0.10167 0.30278 0.0
C365 C 0.93947 0.04987 0.37048 0.0
C366 C 0.89137 0.097 0.21584 0.0
C367 C 0.88087 0.17191 0.19407 0.0
N368 N 0.92072 0.06674 0.32402 0.0
N369 N 0.90057 0.15528 0.24014 0.0
H370 H 0.44455 0.36719 0.52527 0.0
H371 H 0.39103 0.452 0.75229 0.0
H372 H 0.33734 0.3561 0.56161 0.0
H373 H 0.49374 0.46817 0.7021 0.0
H374 H 0.37204 0.41191 0.68956 0.0
H375 H 0.46433 0.39849 0.59717 0.0
C376 C 0.4252 0.37123 0.54877 0.0
C377 C 0.38914 0.35952 0.53714 0.0
C378 C 0.39876 0.42415 0.69249 0.0
C379 C 0.41155 0.39571 0.61974 0.0
C380 C 0.40968 0.44692 0.72837 0.0
C381 C 0.44393 0.46376 0.73213 0.0
C382 C 0.42239 0.41799 0.66044 0.0
C383 C 0.46686 0.45636 0.69997 0.0
C384 C 0.43649 0.38915 0.58984 0.0
C385 C 0.36535 0.36486 0.56931 0.0
N386 N 0.45566 0.43416 0.66557 0.0
N387 N 0.37687 0.38297 0.60896 0.0
H388 H 0.66935 0.61392 0.62711 0.0
H389 H 0.66563 0.59804 0.33754 0.0
H390 H 0.71234 0.70104 0.52611 0.0
H391 H 0.58423 0.55103 0.4236 0.0
H392 H 0.69006 0.63144 0.40676 0.0
H393 H 0.64664 0.58451 0.55446 0.0
C394 C 0.67374 0.62717 0.58947 0.0
C395 C 0.69184 0.66074 0.58258 0.0
C396 C 0.66679 0.61385 0.41012 0.0
C397 C 0.66659 0.6262 0.49891 0.0
C398 C 0.65264 0.59486 0.37058 0.0
C399 C 0.6229 0.57119 0.37469 0.0
C400 C 0.65147 0.6087 0.45438 0.0
C401 C 0.60771 0.56801 0.41898 0.0
C402 C 0.66086 0.61016 0.54798 0.0
C403 C 0.6982 0.67542 0.5331 0.0
N404 N 0.62233 0.58622 0.45708 0.0
N405 N 0.68546 0.65808 0.49292 0.0
H406 H 0.79811 0.16439 0.92126 0.0
H407 H 0.96932 0.14802 0.79047 0.0
H408 H 0.90816 0.1845 0.99439 0.0
H409 H 0.85947 0.16456 0.70481 0.0
H410 H 0.94752 0.15283 0.86918 0.0
H411 H 0.82031 0.15699 0.84468 0.0
C412 C 0.82689 0.16765 0.92124 0.0
C413 C 0.85117 0.17546 0.9646 0.0
C414 C 0.92823 0.15532 0.83313 0.0
C415 C 0.87692 0.16587 0.87695 0.0
C416 C 0.9406 0.15232 0.78837 0.0
C417 C 0.91618 0.15608 0.74106 0.0
C418 C 0.8911 0.16158 0.83065 0.0
C419 C 0.87927 0.1619 0.74039 0.0
C420 C 0.83958 0.16308 0.87749 0.0
C421 C 0.88837 0.17814 0.96233 0.0
N422 N 0.86787 0.1644 0.78444 0.0
N423 N 0.90009 0.1733 0.91936 0.0
H424 H 0.36236 0.41862 0.34652 0.0
H425 H 0.52483 0.4334 0.19334 0.0
H426 H 0.42779 0.32556 0.34848 0.0
H427 H 0.43189 0.50533 0.14479 0.0
H428 H 0.4936 0.39623 0.25718 0.0
H429 H 0.39063 0.45347 0.27781 0.0
C430 C 0.38238 0.40546 0.33193 0.0
C431 C 0.39262 0.36916 0.3528 0.0
C432 C 0.48009 0.42015 0.23248 0.0
C433 C 0.42576 0.40902 0.27542 0.0
C434 C 0.49802 0.44152 0.1965 0.0
C435 C 0.48093 0.47249 0.16397 0.0
C436 C 0.44518 0.4303 0.23657 0.0
C437 C 0.44599 0.4816 0.16913 0.0
C438 C 0.39852 0.42531 0.29287 0.0
C439 C 0.41888 0.35338 0.33291 0.0
N440 N 0.42936 0.46076 0.20493 0.0
N441 N 0.4349 0.37354 0.29573 0.0
H442 H 0.1997 0.8588 0.87805 0.0
H443 H 0.09329 0.03489 0.70071 0.0
H444 H 0.19 0.95997 0.92892 0.0
H445 H 0.09251 0.93047 0.65499 0.0
H446 H 0.13432 1.00976 0.78145 0.0
H447 H 0.16764 0.8869 0.79158 0.0
C448 C 0.19143 0.88711 0.87064 0.0
C449 C 0.19712 0.90706 0.91052 0.0
C450 C 0.12548 0.99241 0.7535 0.0
C451 C 0.16018 0.93918 0.81252 0.0
C452 C 0.10193 1.00673 0.70757 0.0
C453 C 0.09003 0.98487 0.67074 0.0
C454 C 0.13698 0.95589 0.76282 0.0
C455 C 0.10203 0.94856 0.68155 0.0
C456 C 0.17289 0.90306 0.82155 0.0
C457 C 0.18572 0.94359 0.8992 0.0
N458 N 0.12477 0.93517 0.72659 0.0
N459 N 0.16757 0.95837 0.85143 0.0
loop_
_geom_bond_atom_site_label_1
_geom_bond_atom_site_label_2
_geom_bond_distance
_geom_bond_site_symmetry_2
_ccdc_geom_bond_type
H0 C1 0.949 . S
C1 H0 0.949 . S
C1 C2 1.395 . S
C1 C3 1.391 . S
C2 C1 1.395 . S
C2 C5 1.390 . S
C3 C1 1.391 . S
C3 C7 1.387 1_554 S
C3 C8 1.491 . S
H4 C5 0.950 . S
C5 C2 1.390 . S
C5 H4 0.950 . S
C5 C6 1.378 1_554 S
C6 C5 1.378 1_556 S
C6 C7 1.409 . S
C7 C3 1.387 1_556 S
C7 C6 1.409 . S
C7 H9 0.951 . S
C8 C3 1.491 . S
C8 C10 1.382 . S
C8 C12 1.404 1_554 S
H9 C7 0.951 . S
C10 C8 1.382 . S
C10 C11 1.390 . S
C10 H15 0.949 . S
C11 C10 1.390 . S
C11 C16 1.399 . S
C12 C8 1.404 1_556 S
C12 H13 0.950 . S
C12 C14 1.375 . S
H13 C12 0.950 . S
C14 C12 1.375 . S
C14 C16 1.382 1_556 S
C14 H18 0.950 . S
H15 C10 0.949 . S
C16 C11 1.399 . S
C16 C14 1.382 1_554 S
C16 H17 0.952 . S
H17 C16 0.952 . S
H18 C14 0.950 . S
H19 C20 0.949 . S
C20 H19 0.949 . S
C20 C21 1.395 . S
C20 C22 1.391 . S
C21 C20 1.395 . S
C21 C24 1.390 . S
C22 C20 1.391 . S
C22 C26 1.387 . S
C22 C27 1.491 . S
H23 C24 0.950 . S
C24 C21 1.390 . S
C24 H23 0.950 . S
C24 C25 1.378 . S
C25 C24 1.378 . S
C25 C26 1.409 . S
C26 C22 1.387 . S
C26 C25 1.409 . S
C26 H28 0.951 . S
C27 C22 1.491 . S
C27 C29 1.382 . S
C27 C31 1.404 . S
H28 C26 0.951 . S
C29 C27 1.382 . S
C29 C30 1.390 . S
C29 H34 0.949 . S
C30 C29 1.390 . S
C30 C35 1.399 . S
C31 C27 1.404 . S
C31 H32 0.950 . S
C31 C33 1.375 . S
H32 C31 0.950 . S
C33 C31 1.375 . S
C33 C35 1.382 . S
C33 H37 0.950 . S
H34 C29 0.949 . S
C35 C30 1.399 . S
C35 C33 1.382 . S
C35 H36 0.952 . S
H36 C35 0.952 . S
H37 C33 0.950 . S
H38 C39 0.949 . S
C39 H38 0.949 . S
C39 C40 1.395 . S
C39 C41 1.391 . S
C40 C39 1.395 . S
C40 C43 1.390 . S
C41 C39 1.391 . S
C41 C45 1.387 1_554 S
C41 C46 1.491 . S
H42 C43 0.950 . S
C43 C40 1.390 . S
C43 H42 0.950 . S
C43 C44 1.378 . S
C44 C43 1.378 . S
C44 C45 1.409 1_554 S
C45 C41 1.387 1_556 S
C45 C44 1.409 1_556 S
C45 H47 0.951 . S
C46 C41 1.491 . S
C46 C48 1.382 . S
C46 C50 1.404 1_554 S
H47 C45 0.951 . S
C48 C46 1.382 . S
C48 C49 1.390 . S
C48 H53 0.949 . S
C49 C48 1.390 . S
C49 C54 1.399 1_554 S
C50 C46 1.404 1_556 S
C50 H51 0.950 . S
C50 C52 1.375 . S
H51 C50 0.950 . S
C52 C50 1.375 . S
C52 C54 1.382 . S
C52 H56 0.950 . S
H53 C48 0.949 . S
C54 C49 1.399 1_556 S
C54 C52 1.382 . S
C54 H55 0.952 . S
H55 C54 0.952 . S
H56 C52 0.950 . S
H57 C58 0.949 . S
C58 H57 0.949 . S
C58 C59 1.395 . S
C58 C60 1.391 . S
C59 C58 1.395 . S
C59 C62 1.390 . S
C60 C58 1.391 . S
C60 C64 1.387 . S
C60 C65 1.491 . S
H61 C62 0.950 . S
C62 C59 1.390 . S
C62 H61 0.950 . S
C62 C63 1.378 . S
C63 C62 1.378 . S
C63 C64 1.409 . S
C64 C60 1.387 . S
C64 C63 1.409 . S
C64 H66 0.951 . S
C65 C60 1.491 . S
C65 C67 1.382 . S
C65 C69 1.404 . S
H66 C64 0.951 . S
C67 C65 1.382 . S
C67 C68 1.390 . S
C67 H72 0.949 . S
C68 C67 1.390 . S
C68 C73 1.399 . S
C69 C65 1.404 . S
C69 H70 0.950 . S
C69 C71 1.375 . S
H70 C69 0.950 . S
C71 C69 1.375 . S
C71 C73 1.382 . S
C71 H75 0.950 . S
H72 C67 0.949 . S
C73 C68 1.399 . S
C73 C71 1.382 . S
C73 H74 0.952 . S
H74 C73 0.952 . S
H75 C71 0.950 . S
Eu76 N105 2.600 . S
Eu76 N111 2.562 . S
Eu76 O120 2.462 . S
Eu76 O121 2.373 . S
Eu76 O123 2.432 . S
Eu76 O124 2.291 1_565 S
Eu76 O128 2.335 1_465 S
Eu76 O131 2.372 1_455 S
Eu76 C140 2.787 . S
C77 N78 1.365 . S
C77 C80 1.405 . S
C77 C84 1.448 . S
N78 C77 1.365 . S
N78 C81 1.319 1_655 S
N78 Eu87 2.600 . S
C79 C81 1.397 . S
C79 C82 1.367 1_455 S
C79 H99 0.931 . S
C80 C77 1.405 . S
C80 C82 1.403 . S
C80 C86 1.439 . S
C81 N78 1.319 1_455 S
C81 C79 1.397 . S
C81 H92 0.930 . S
C82 C79 1.367 1_655 S
C82 C80 1.403 . S
C82 H103 0.929 . S
C83 C84 1.430 . S
C83 C85 1.387 . S
C83 C89 1.404 . S
C84 C77 1.448 . S
C84 C83 1.430 . S
C84 N88 1.351 . S
C85 C83 1.387 . S
C85 C86 1.374 . S
C85 H100 0.931 . S
C86 C80 1.439 . S
C86 C85 1.374 . S
C86 H101 0.931 . S
Eu87 N78 2.600 . S
Eu87 N88 2.562 . S
Eu87 O122 2.335 1_655 S
Eu87 O125 2.372 1_655 S
Eu87 O126 2.462 . S
Eu87 O127 2.373 . S
Eu87 O129 2.432 . S
Eu87 O130 2.291 1_545 S
Eu87 C151 2.787 . S
N88 C84 1.351 . S
N88 Eu87 2.562 . S
N88 C90 1.325 . S
C89 C83 1.404 . S
C89 C91 1.366 . S
C89 H97 0.930 . S
C90 N88 1.325 . S
C90 C91 1.416 . S
C90 H96 0.929 . S
C91 C89 1.366 . S
C91 C90 1.416 . S
C91 H93 0.930 . S
H92 C81 0.930 . S
H93 C91 0.930 . S
H94 C109 0.930 1_655 S
H95 C116 0.930 . S
H96 C90 0.929 . S
H97 C89 0.930 . S
H98 C112 0.929 . S
H99 C79 0.931 . S
H100 C85 0.931 . S
H101 C86 0.931 . S
H102 C107 0.931 1_655 S
H103 C82 0.929 . S
H104 C115 0.930 . S
N105 Eu76 2.600 . S
N105 C106 1.365 . S
N105 C109 1.319 . S
C106 N105 1.365 . S
C106 C108 1.405 . S
C106 C114 1.448 . S
C107 H102 0.931 1_455 S
C107 C109 1.397 . S
C107 C110 1.367 . S
C108 C106 1.405 . S
C108 C110 1.403 . S
C108 C141 1.439 . S
C109 H94 0.930 1_455 S
C109 N105 1.319 . S
C109 C107 1.397 . S
C110 C107 1.367 . S
C110 C108 1.403 . S
C110 H117 0.929 . S
N111 Eu76 2.562 . S
N111 C112 1.325 . S
N111 C114 1.351 . S
C112 H98 0.929 . S
C112 N111 1.325 . S
C112 C116 1.416 . S
C113 C114 1.430 . S
C113 C115 1.404 . S
C113 C142 1.387 . S
C114 C106 1.448 . S
C114 N111 1.351 . S
C114 C113 1.430 . S
C115 H104 0.930 . S
C115 C113 1.404 . S
C115 C116 1.366 . S
C116 H95 0.930 . S
C116 C112 1.416 . S
C116 C115 1.366 . S
H117 C110 0.929 . S
H118 C141 0.931 . S
H119 C142 0.931 . S
O120 Eu76 2.462 . S
O120 C140 1.252 . S
O121 Eu76 2.373 . S
O121 C132 1.249 . S
O122 Eu87 2.335 1_455 S
O122 C132 1.264 1_545 S
O123 Eu76 2.432 . S
O123 C140 1.268 . S
O124 Eu76 2.291 1_545 S
O124 C139 1.255 . S
O125 Eu87 2.372 1_455 S
O125 C139 1.257 . S
O126 Eu87 2.462 . S
O126 C151 1.252 . S
O127 Eu87 2.373 . S
O127 C143 1.249 . S
O128 Eu76 2.335 1_645 S
O128 C143 1.264 . S
O129 Eu87 2.432 . S
O129 C151 1.268 . S
O130 Eu87 2.291 1_565 S
O130 C150 1.255 . S
O131 Eu76 2.372 1_655 S
O131 C150 1.257 . S
C132 O121 1.249 . S
C132 O122 1.264 1_565 S
C133 C136 1.382 . S
C133 C138 1.390 . S
C133 C140 1.506 . S
C134 C135 1.398 . S
C134 C138 1.392 . S
C135 C134 1.398 . S
C135 C137 1.372 . S
C135 H152 0.931 . S
C136 C133 1.382 . S
C136 C137 1.390 . S
C136 H153 0.931 . S
C137 C135 1.372 . S
C137 C136 1.390 . S
C137 H154 0.929 . S
C138 C133 1.390 . S
C138 C134 1.392 . S
C138 H155 0.930 . S
C139 O124 1.255 . S
C139 O125 1.257 . S
C140 Eu76 2.787 . S
C140 O120 1.252 . S
C140 O123 1.268 . S
C140 C133 1.506 . S
C141 C108 1.439 . S
C141 H118 0.931 . S
C141 C142 1.374 . S
C142 C113 1.387 . S
C142 H119 0.931 . S
C142 C141 1.374 . S
C143 O127 1.249 . S
C143 O128 1.264 . S
C144 C147 1.382 . S
C144 C148 1.390 . S
C144 C151 1.506 . S
C145 C146 1.398 . S
C145 C148 1.392 . S
C146 C145 1.398 . S
C146 C149 1.372 . S
C146 H156 0.931 . S
C147 C144 1.382 . S
C147 C149 1.390 . S
C147 H157 0.931 . S
C148 C144 1.390 . S
C148 C145 1.392 . S
C148 H158 0.930 . S
C149 C146 1.372 . S
C149 C147 1.390 . S
C149 H159 0.929 . S
C150 O130 1.255 . S
C150 O131 1.257 . S
C151 Eu87 2.787 . S
C151 O126 1.252 . S
C151 O129 1.268 . S
C151 C144 1.506 . S
H152 C135 0.931 . S
H153 C136 0.931 . S
H154 C137 0.929 . S
H155 C138 0.930 . S
H156 C146 0.931 . S
H157 C147 0.931 . S
H158 C148 0.930 . S
H159 C149 0.929 . S
Eu160 N189 2.596 1_556 S
Eu160 N195 2.562 1_556 S
Eu160 O204 2.462 . S
Eu160 O205 2.373 1_556 S
Eu160 O207 2.432 . S
Eu160 O208 2.291 1_556 S
Eu160 O212 2.335 . S
Eu160 O215 2.372 1_556 S
Eu160 C224 2.787 . S
C161 N162 1.365 . S
C161 C164 1.405 . S
C161 C168 1.448 . S
N162 C161 1.365 . S
N162 C165 1.319 . S
N162 Eu171 2.600 . S
C163 C165 1.397 . S
C163 C166 1.367 . S
C163 H183 0.931 . S
C164 C161 1.405 . S
C164 C166 1.403 . S
C164 C170 1.439 . S
C165 N162 1.319 . S
C165 C163 1.397 . S
C165 H176 0.930 . S
C166 C163 1.367 . S
C166 C164 1.403 . S
C166 H187 0.929 . S
C167 C168 1.430 . S
C167 C169 1.387 . S
C167 C173 1.404 . S
C168 C161 1.448 . S
C168 C167 1.430 . S
C168 N172 1.351 . S
C169 C167 1.387 . S
C169 C170 1.374 . S
C169 H184 0.931 . S
C170 C164 1.439 . S
C170 C169 1.374 . S
C170 H185 0.931 . S
Eu171 N162 2.600 . S
Eu171 N172 2.562 . S
Eu171 O206 2.335 . S
Eu171 O209 2.372 . S
Eu171 O210 2.462 . S
Eu171 O211 2.373 . S
Eu171 O213 2.432 . S
Eu171 O214 2.291 . S
Eu171 C235 2.787 . S
N172 C168 1.351 . S
N172 Eu171 2.562 . S
N172 C174 1.325 . S
C173 C167 1.404 . S
C173 C175 1.366 . S
C173 H181 0.930 . S
C174 N172 1.325 . S
C174 C175 1.416 . S
C174 H180 0.929 . S
C175 C173 1.366 . S
C175 C174 1.416 . S
C175 H177 0.930 . S
H176 C165 0.930 . S
H177 C175 0.930 . S
H178 C193 0.930 . S
H179 C200 0.930 . S
H180 C174 0.929 . S
H181 C173 0.930 . S
H182 C196 0.929 . S
H183 C163 0.931 . S
H184 C169 0.931 . S
H185 C170 0.931 . S
H186 C191 0.931 . S
H187 C166 0.929 . S
H188 C199 0.930 . S
N189 Eu160 2.596 1_554 S
N189 C190 1.370 . S
N189 C193 1.320 1_554 S
C190 N189 1.370 . S
C190 C192 1.405 . S
C190 C198 1.448 . S
C191 H186 0.931 . S
C191 C193 1.397 . S
C191 C194 1.367 1_556 S
C192 C190 1.405 . S
C192 C194 1.403 . S
C192 C225 1.439 . S
C193 H178 0.930 . S
C193 N189 1.320 1_556 S
C193 C191 1.397 . S
C194 C191 1.367 1_554 S
C194 C192 1.403 . S
C194 H201 0.929 . S
N195 Eu160 2.562 1_554 S
N195 C196 1.325 . S
N195 C198 1.351 . S
C196 H182 0.929 . S
C196 N195 1.325 . S
C196 C200 1.416 . S
C197 C198 1.430 . S
C197 C199 1.404 . S
C197 C226 1.387 . S
C198 C190 1.448 . S
C198 N195 1.351 . S
C198 C197 1.430 . S
C199 H188 0.930 . S
C199 C197 1.404 . S
C199 C200 1.366 . S
C200 H179 0.930 . S
C200 C196 1.416 . S
C200 C199 1.366 . S
H201 C194 0.929 . S
H202 C225 0.931 . S
H203 C226 0.931 . S
O204 Eu160 2.462 . S
O204 C224 1.252 . S
O205 Eu160 2.373 1_554 S
O205 C216 1.249 . S
O206 Eu171 2.335 . S
O206 C216 1.264 . S
O207 Eu160 2.432 . S
O207 C224 1.268 . S
O208 Eu160 2.291 1_554 S
O208 C223 1.255 . S
O209 Eu171 2.372 . S
O209 C223 1.257 . S
O210 Eu171 2.462 . S
O210 C235 1.252 . S
O211 Eu171 2.373 . S
O211 C227 1.249 1_554 S
O212 Eu160 2.335 . S
O212 C227 1.264 . S
O213 Eu171 2.432 . S
O213 C235 1.268 . S
O214 Eu171 2.291 . S
O214 C234 1.255 . S
O215 Eu160 2.372 1_554 S
O215 C234 1.257 . S
C216 O205 1.249 . S
C216 O206 1.264 . S
C217 C220 1.382 . S
C217 C222 1.390 . S
C217 C224 1.506 . S
C218 C219 1.398 . S
C218 C222 1.392 . S
C219 C218 1.398 . S
C219 C221 1.372 . S
C219 H236 0.931 . S
C220 C217 1.382 . S
C220 C221 1.390 . S
C220 H237 0.931 . S
C221 C219 1.372 . S
C221 C220 1.390 . S
C221 H238 0.929 . S
C222 C217 1.390 . S
C222 C218 1.392 . S
C222 H239 0.930 . S
C223 O208 1.255 . S
C223 O209 1.257 . S
C224 Eu160 2.787 . S
C224 O204 1.252 . S
C224 O207 1.268 . S
C224 C217 1.506 . S
C225 C192 1.439 . S
C225 H202 0.931 . S
C225 C226 1.374 . S
C226 C197 1.387 . S
C226 H203 0.931 . S
C226 C225 1.374 . S
C227 O211 1.249 1_556 S
C227 O212 1.264 . S
C228 C231 1.382 . S
C228 C232 1.390 . S
C228 C235 1.506 . S
C229 C230 1.398 . S
C229 C232 1.392 . S
C230 C229 1.398 . S
C230 C233 1.372 . S
C230 H240 0.931 . S
C231 C228 1.382 . S
C231 C233 1.390 . S
C231 H241 0.931 . S
C232 C228 1.390 . S
C232 C229 1.392 . S
C232 H242 0.930 . S
C233 C230 1.372 . S
C233 C231 1.390 . S
C233 H243 0.929 . S
C234 O214 1.255 . S
C234 O215 1.257 . S
C235 Eu171 2.787 . S
C235 O210 1.252 . S
C235 O213 1.268 . S
C235 C228 1.506 . S
H236 C219 0.931 . S
H237 C220 0.931 . S
H238 C221 0.929 . S
H239 C222 0.930 . S
H240 C230 0.931 . S
H241 C231 0.931 . S
H242 C232 0.930 . S
H243 C233 0.929 . S
H244 C250 0.930 . S
H245 C254 0.930 . S
H246 C259 0.929 . S
H247 C257 0.929 . S
H248 C252 0.929 . S
H249 C258 0.929 . S
C250 H244 0.930 . S
C250 C251 1.367 . S
C250 C258 1.378 . S
C251 C250 1.367 . S
C251 C259 1.433 . S
C252 H248 0.929 . S
C252 C254 1.378 . S
C252 C256 1.350 . S
C253 C256 1.463 . S
C253 C258 1.350 . S
C253 N261 1.427 . S
C254 H245 0.930 . S
C254 C252 1.378 . S
C254 C255 1.367 . S
C255 C254 1.367 . S
C255 C257 1.433 . S
C256 C252 1.350 . S
C256 C253 1.463 . S
C256 N260 1.427 . S
C257 H247 0.929 . S
C257 C255 1.433 . S
C257 N260 1.384 . S
C258 H249 0.929 . S
C258 C250 1.378 . S
C258 C253 1.350 . S
C259 H246 0.929 . S
C259 C251 1.433 . S
C259 N261 1.384 . S
N260 C256 1.427 . S
N260 C257 1.384 . S
N261 C253 1.427 . S
N261 C259 1.384 . S
H262 C268 0.930 . S
H263 C272 0.930 1_556 S
H264 C277 0.929 . S
H265 C275 0.929 . S
H266 C270 0.929 1_556 S
H267 C276 0.929 . S
C268 H262 0.930 . S
C268 C269 1.367 . S
C268 C276 1.378 . S
C269 C268 1.367 . S
C269 C277 1.433 . S
C270 H266 0.929 1_554 S
C270 C272 1.378 . S
C270 C274 1.350 . S
C271 C274 1.463 . S
C271 C276 1.350 . S
C271 N279 1.427 . S
C272 H263 0.930 1_554 S
C272 C270 1.378 . S
C272 C273 1.367 . S
C273 C272 1.367 . S
C273 C275 1.433 . S
C274 C270 1.350 . S
C274 C271 1.463 . S
C274 N278 1.427 . S
C275 H265 0.929 . S
C275 C273 1.433 . S
C275 N278 1.384 . S
C276 H267 0.929 . S
C276 C268 1.378 . S
C276 C271 1.350 . S
C277 H264 0.929 . S
C277 C269 1.433 . S
C277 N279 1.384 . S
N278 C274 1.427 . S
N278 C275 1.384 . S
N279 C271 1.427 . S
N279 C277 1.384 . S
H280 C286 0.930 . S
H281 C290 0.930 . S
H282 C295 0.929 . S
H283 C293 0.929 . S
H284 C288 0.929 . S
H285 C294 0.929 . S
C286 H280 0.930 . S
C286 C287 1.367 . S
C286 C294 1.378 . S
C287 C286 1.367 . S
C287 C295 1.433 . S
C288 H284 0.929 . S
C288 C290 1.378 . S
C288 C292 1.350 . S
C289 C292 1.463 . S
C289 C294 1.350 . S
C289 N297 1.427 . S
C290 H281 0.930 . S
C290 C288 1.378 . S
C290 C291 1.367 . S
C291 C290 1.367 . S
C291 C293 1.433 . S
C292 C288 1.350 . S
C292 C289 1.463 . S
C292 N296 1.427 . S
C293 H283 0.929 . S
C293 C291 1.433 . S
C293 N296 1.384 . S
C294 H285 0.929 . S
C294 C286 1.378 . S
C294 C289 1.350 . S
C295 H282 0.929 . S
C295 C287 1.433 . S
C295 N297 1.384 . S
N296 C292 1.427 . S
N296 C293 1.384 . S
N297 C289 1.427 . S
N297 C295 1.384 . S
H298 C304 0.929 . S
H299 C308 0.930 . S
H300 C313 0.929 . S
H301 C311 0.929 1_556 S
H302 C306 0.929 . S
H303 C312 0.916 1_556 S
C304 H298 0.929 . S
C304 C305 1.367 1_556 S
C304 C312 1.372 1_556 S
C305 C304 1.367 1_554 S
C305 C313 1.433 . S
C306 H302 0.929 . S
C306 C308 1.378 . S
C306 C310 1.350 . S
C307 C310 1.463 . S
C307 C312 1.369 . S
C307 N315 1.427 . S
C308 H299 0.930 . S
C308 C306 1.378 . S
C308 C309 1.367 . S
C309 C308 1.367 . S
C309 C311 1.433 . S
C310 C306 1.350 . S
C310 C307 1.463 . S
C310 N314 1.427 . S
C311 H301 0.929 1_554 S
C311 C309 1.433 . S
C311 N314 1.384 . S
C312 H303 0.916 1_554 S
C312 C304 1.372 1_554 S
C312 C307 1.369 . S
C313 H300 0.929 . S
C313 C305 1.433 . S
C313 N315 1.384 . S
N314 C310 1.427 . S
N314 C311 1.384 . S
N315 C307 1.427 . S
N315 C313 1.384 . S
H316 C322 0.930 . S
H317 C326 0.930 . S
H318 C331 0.929 . S
H319 C329 0.929 . S
H320 C324 0.929 . S
H321 C330 0.929 . S
C322 H316 0.930 . S
C322 C323 1.367 . S
C322 C330 1.378 . S
C323 C322 1.367 . S
C323 C331 1.433 . S
C324 H320 0.929 . S
C324 C326 1.378 . S
C324 C328 1.350 . S
C325 C328 1.463 . S
C325 C330 1.350 . S
C325 N333 1.427 . S
C326 H317 0.930 . S
C326 C324 1.378 . S
C326 C327 1.367 . S
C327 C326 1.367 . S
C327 C329 1.433 . S
C328 C324 1.350 . S
C328 C325 1.463 . S
C328 N332 1.427 . S
C329 H319 0.929 . S
C329 C327 1.433 . S
C329 N332 1.384 . S
C330 H321 0.929 . S
C330 C322 1.378 . S
C330 C325 1.350 . S
C331 H318 0.929 . S
C331 C323 1.433 . S
C331 N333 1.384 . S
N332 C328 1.427 . S
N332 C329 1.384 . S
N333 C325 1.427 . S
N333 C331 1.384 . S
H334 C340 0.930 . S
H335 C344 0.930 . S
H336 C349 0.929 . S
H337 C347 0.929 . S
H338 C342 0.929 . S
H339 C348 0.929 . S
C340 H334 0.930 . S
C340 C341 1.367 . S
C340 C348 1.378 . S
C341 C340 1.367 . S
C341 C349 1.433 . S
C342 H338 0.929 . S
C342 C344 1.378 . S
C342 C346 1.350 . S
C343 C346 1.463 . S
C343 C348 1.350 . S
C343 N351 1.427 . S
C344 H335 0.930 . S
C344 C342 1.378 . S
C344 C345 1.367 . S
C345 C344 1.367 . S
C345 C347 1.433 . S
C346 C342 1.350 . S
C346 C343 1.463 . S
C346 N350 1.427 . S
C347 H337 0.929 . S
C347 C345 1.433 . S
C347 N350 1.384 . S
C348 H339 0.929 . S
C348 C340 1.378 . S
C348 C343 1.350 . S
C349 H336 0.929 . S
C349 C341 1.433 . S
C349 N351 1.384 . S
N350 C346 1.427 . S
N350 C347 1.384 . S
N351 C343 1.427 . S
N351 C349 1.384 . S
H352 C358 0.930 . S
H353 C362 0.930 . S
H354 C367 0.929 . S
H355 C365 0.929 . S
H356 C360 0.929 . S
H357 C366 0.929 . S
C358 H352 0.930 . S
C358 C359 1.367 . S
C358 C366 1.378 . S
C359 C358 1.367 . S
C359 C367 1.433 . S
C360 H356 0.929 . S
C360 C362 1.378 . S
C360 C364 1.350 . S
C361 C364 1.463 . S
C361 C366 1.350 . S
C361 N369 1.427 . S
C362 H353 0.930 . S
C362 C360 1.378 . S
C362 C363 1.367 . S
C363 C362 1.367 . S
C363 C365 1.433 . S
C364 C360 1.350 . S
C364 C361 1.463 . S
C364 N368 1.427 . S
C365 H355 0.929 . S
C365 C363 1.433 . S
C365 N368 1.384 . S
C366 H357 0.929 . S
C366 C358 1.378 . S
C366 C361 1.350 . S
C367 H354 0.929 . S
C367 C359 1.433 . S
C367 N369 1.384 . S
N368 C364 1.427 . S
N368 C365 1.384 . S
N369 C361 1.427 . S
N369 C367 1.384 . S
H370 C376 0.930 . S
H371 C380 0.930 . S
H372 C385 0.929 . S
H373 C383 0.929 . S
H374 C378 0.929 . S
H375 C384 0.929 . S
C376 H370 0.930 . S
C376 C377 1.367 . S
C376 C384 1.378 . S
C377 C376 1.367 . S
C377 C385 1.433 . S
C378 H374 0.929 . S
C378 C380 1.378 . S
C378 C382 1.350 . S
C379 C382 1.463 . S
C379 C384 1.350 . S
C379 N387 1.427 . S
C380 H371 0.930 . S
C380 C378 1.378 . S
C380 C381 1.367 . S
C381 C380 1.367 . S
C381 C383 1.433 . S
C382 C378 1.350 . S
C382 C379 1.463 . S
C382 N386 1.427 . S
C383 H373 0.929 . S
C383 C381 1.433 . S
C383 N386 1.384 . S
C384 H375 0.929 . S
C384 C376 1.378 . S
C384 C379 1.350 . S
C385 H372 0.929 . S
C385 C377 1.433 . S
C385 N387 1.384 . S
N386 C382 1.427 . S
N386 C383 1.384 . S
N387 C379 1.427 . S
N387 C385 1.384 . S
H388 C394 0.930 . S
H389 C398 0.930 . S
H390 C403 0.929 . S
H391 C401 0.929 . S
H392 C396 0.929 . S
H393 C402 0.929 . S
C394 H388 0.930 . S
C394 C395 1.367 . S
C394 C402 1.378 . S
C395 C394 1.367 . S
C395 C403 1.433 . S
C396 H392 0.929 . S
C396 C398 1.378 . S
C396 C400 1.350 . S
C397 C400 1.463 . S
C397 C402 1.350 . S
C397 N405 1.427 . S
C398 H389 0.930 . S
C398 C396 1.378 . S
C398 C399 1.367 . S
C399 C398 1.367 . S
C399 C401 1.433 . S
C400 C396 1.350 . S
C400 C397 1.463 . S
C400 N404 1.427 . S
C401 H391 0.929 . S
C401 C399 1.433 . S
C401 N404 1.384 . S
C402 H393 0.929 . S
C402 C394 1.378 . S
C402 C397 1.350 . S
C403 H390 0.929 . S
C403 C395 1.433 . S
C403 N405 1.384 . S
N404 C400 1.427 . S
N404 C401 1.384 . S
N405 C397 1.427 . S
N405 C403 1.384 . S
H406 C412 0.930 . S
H407 C416 0.930 . S
H408 C421 0.929 1_554 S
H409 C419 0.929 . S
H410 C414 0.929 . S
H411 C420 0.929 . S
C412 H406 0.930 . S
C412 C413 1.367 . S
C412 C420 1.378 . S
C413 C412 1.367 . S
C413 C421 1.433 . S
C414 H410 0.929 . S
C414 C416 1.378 . S
C414 C418 1.350 . S
C415 C418 1.463 . S
C415 C420 1.350 . S
C415 N423 1.427 . S
C416 H407 0.930 . S
C416 C414 1.378 . S
C416 C417 1.367 . S
C417 C416 1.367 . S
C417 C419 1.433 . S
C418 C414 1.350 . S
C418 C415 1.463 . S
C418 N422 1.427 . S
C419 H409 0.929 . S
C419 C417 1.433 . S
C419 N422 1.384 . S
C420 H411 0.929 . S
C420 C412 1.378 . S
C420 C415 1.350 . S
C421 H408 0.929 1_556 S
C421 C413 1.433 . S
C421 N423 1.384 . S
N422 C418 1.427 . S
N422 C419 1.384 . S
N423 C415 1.427 . S
N423 C421 1.384 . S
H424 C430 0.930 . S
H425 C434 0.930 . S
H426 C439 0.929 . S
H427 C437 0.929 . S
H428 C432 0.929 . S
H429 C438 0.929 . S
C430 H424 0.930 . S
C430 C431 1.367 . S
C430 C438 1.378 . S
C431 C430 1.367 . S
C431 C439 1.433 . S
C432 H428 0.929 . S
C432 C434 1.378 . S
C432 C436 1.350 . S
C433 C436 1.463 . S
C433 C438 1.350 . S
C433 N441 1.427 . S
C434 H425 0.930 . S
C434 C432 1.378 . S
C434 C435 1.367 . S
C435 C434 1.367 . S
C435 C437 1.433 . S
C436 C432 1.350 . S
C436 C433 1.463 . S
C436 N440 1.427 . S
C437 H427 0.929 . S
C437 C435 1.433 . S
C437 N440 1.384 . S
C438 H429 0.929 . S
C438 C430 1.378 . S
C438 C433 1.350 . S
C439 H426 0.929 . S
C439 C431 1.433 . S
C439 N441 1.384 . S
N440 C436 1.427 . S
N440 C437 1.384 . S
N441 C433 1.427 . S
N441 C439 1.384 . S
H442 C448 0.930 . S
H443 C452 0.930 1_545 S
H444 C457 0.929 . S
H445 C455 0.929 . S
H446 C450 0.929 . S
H447 C456 0.929 . S
C448 H442 0.930 . S
C448 C449 1.367 . S
C448 C456 1.378 . S
C449 C448 1.367 . S
C449 C457 1.433 . S
C450 H446 0.929 . S
C450 C452 1.378 . S
C450 C454 1.350 . S
C451 C454 1.463 . S
C451 C456 1.350 . S
C451 N459 1.427 . S
C452 H443 0.930 1_565 S
C452 C450 1.378 . S
C452 C453 1.367 . S
C453 C452 1.367 . S
C453 C455 1.433 . S
C454 C450 1.350 . S
C454 C451 1.463 . S
C454 N458 1.427 . S
C455 H445 0.929 . S
C455 C453 1.433 . S
C455 N458 1.384 . S
C456 H447 0.929 . S
C456 C448 1.378 . S
C456 C451 1.350 . S
C457 H444 0.929 . S
C457 C449 1.433 . S
C457 N459 1.384 . S
N458 C454 1.427 . S
N458 C455 1.384 . S
N459 C451 1.427 . S
N459 C457 1.384 . S
C255 C139 1.697 . S
C251 C68 1.662 . S
C269 C11 1.582 . S
C273 C234 1.711 . S
C287 C30 1.633 . S
C291 C150 1.723 . S
C305 C49 1.611 . S
C309 C223 1.669 . S
C327 C134 1.508 . S
C323 C2 1.667 . S
C345 C227 1.785 . S
C341 C25 1.786 . S
C359 C40 1.691 . S
C363 C143 1.712 . S
C377 C59 1.669 . S
C381 C218 1.491 . S
C399 C229 1.442 . S
C395 C21 1.600 . S
C417 C145 1.416 . S
C413 C44 1.613 1_556 S
C435 C216 1.681 . S
C431 C63 1.678 . S
C449 C6 1.634 . S
C453 C132 1.643 . S
