# Generated by pormake.
# Topology anh, (6,3)-cn, num edge types: 1
# Building blocks:
#     Node 0, Type 0, BuildingBlock: HISSIN_clean_sbu_0, # of connection points: 6
#     Node 1, Type 0, BuildingBlock: HISSIN_clean_sbu_0, # of connection points: 6
#     Node 2, Type 0, BuildingBlock: HISSIN_clean_sbu_0, # of connection points: 6
#     Node 3, Type 1, BuildingBlock: BETDIP_clean_linker_0, # of connection points: 3
#     Node 4, Type 1, BuildingBlock: BETDIP_clean_linker_0, # of connection points: 3
#     Node 5, Type 1, BuildingBlock: BETDIP_clean_linker_0, # of connection points: 3
#     Node 6, Type 1, BuildingBlock: BETDIP_clean_linker_0, # of connection points: 3
#     Node 7, Type 1, BuildingBlock: BETDIP_clean_linker_0, # of connection points: 3
#     Node 8, Type 1, BuildingBlock: BETDIP_clean_linker_0, # of connection points: 3
#     Edge 9, Type (0, 1), BuildingBlock: UVAHIK_clean_linker_0, # of connection points: 2
#     Edge 10, Type (0, 1), BuildingBlock: UVAHIK_clean_linker_0, # of connection points: 2
#     Edge 11, Type (0, 1), BuildingBlock: UVAHIK_clean_linker_0, # of connection points: 2
#     Edge 12, Type (0, 1), BuildingBlock: UVAHIK_clean_linker_0, # of connection points: 2
#     Edge 13, Type (0, 1), BuildingBlock: UVAHIK_clean_linker_0, # of connection points: 2
#     Edge 14, Type (0, 1), BuildingBlock: UVAHIK_clean_linker_0, # of connection points: 2
#     Edge 15, Type (0, 1), BuildingBlock: UVAHIK_clean_linker_0, # of connection points: 2
#     Edge 16, Type (0, 1), BuildingBlock: UVAHIK_clean_linker_0, # of connection points: 2
#     Edge 17, Type (0, 1), BuildingBlock: UVAHIK_clean_linker_0, # of connection points: 2
#     Edge 18, Type (0, 1), BuildingBlock: UVAHIK_clean_linker_0, # of connection points: 2
#     Edge 19, Type (0, 1), BuildingBlock: UVAHIK_clean_linker_0, # of connection points: 2
#     Edge 20, Type (0, 1), BuildingBlock: UVAHIK_clean_linker_0, # of connection points: 2
#     Edge 21, Type (0, 1), BuildingBlock: UVAHIK_clean_linker_0, # of connection points: 2
#     Edge 22, Type (0, 1), BuildingBlock: UVAHIK_clean_linker_0, # of connection points: 2
#     Edge 23, Type (0, 1), BuildingBlock: UVAHIK_clean_linker_0, # of connection points: 2
#     Edge 24, Type (0, 1), BuildingBlock: UVAHIK_clean_linker_0, # of connection points: 2
#     Edge 25, Type (0, 1), BuildingBlock: UVAHIK_clean_linker_0, # of connection points: 2
#     Edge 26, Type (0, 1), BuildingBlock: UVAHIK_clean_linker_0, # of connection points: 2
# Relax obj value: 0.186
# Max RMSD: 0.186
# Mean RMSD: 0.121
data_MOF--net-anh--node1-HISSIN_clean_sbu_0--node2-BETDIP_clean_linker_0--edge1-UVAHIK_clean_linker_0
_symmetry_space_group_name_H-M    P1
_symmetry_Int_Tables_number       1
_symmetry_cell_setting            triclinic
loop_
_symmetry_equiv_pos_as_xyz
'x, y, z'
_cell_length_a     38.991908
_cell_length_b     39.09203
_cell_length_c     64.396409
_cell_angle_alpha  96.067504
_cell_angle_beta   88.564495
_cell_angle_gamma 119.92009
loop_
_atom_site_label
_atom_site_type_symbol
_atom_site_fract_x
_atom_site_fract_y
_atom_site_fract_z
_atom_type_partial_charge
Eu0 Eu 1.06391 0.57935 0.14631 0.0
Eu1 Eu 0.10625 0.67396 0.16259 0.0
C2 C 1.07364 0.60984 0.1955 0.0
C3 C 1.00521 0.46479 0.14024 0.0
C4 C 1.00029 0.46011 0.16162 0.0
C5 C 0.96664 0.39344 0.13196 0.0
C6 C 0.97911 0.42207 0.16813 0.0
C7 C 0.98775 0.43136 0.12549 0.0
C8 C 0.96272 0.38831 0.15335 0.0
C9 C 1.03069 0.50381 0.13299 0.0
O10 O 0.15502 0.65857 0.16526 0.0
O11 O 0.12937 0.60299 0.14163 0.0
C12 C 0.15918 0.63144 0.1533 0.0
O13 O 1.07155 0.61108 0.11764 0.0
O14 O 0.14449 0.72632 0.18396 0.0
O15 O 0.11277 0.73144 0.15846 0.0
O16 O 0.12505 0.67043 0.12973 0.0
C17 C 0.10215 0.64546 0.11427 0.0
O18 O 1.0139 0.58954 0.15776 0.0
O19 O 1.04352 0.65469 0.15201 0.0
O20 O 1.07657 0.64297 0.19067 0.0
O21 O 1.01463 0.52543 0.13034 0.0
O22 O 1.06593 0.52453 0.14178 0.0
O23 O 1.07429 0.58367 0.18112 0.0
C24 C 0.17689 0.78375 0.16667 0.0
C25 C 0.19926 0.77681 0.15118 0.0
C26 C 0.22569 0.85389 0.17013 0.0
C27 C 0.23486 0.80814 0.14533 0.0
C28 C 0.18993 0.82244 0.17593 0.0
C29 C 0.24877 0.84695 0.15494 0.0
C30 C 0.1402 0.75042 0.17313 0.0
C31 C 1.01144 0.62105 0.15487 0.0
H32 H 1.01371 0.48574 0.17322 0.0
H33 H 0.95371 0.36807 0.12019 0.0
H34 H 0.97673 0.41904 0.18471 0.0
H35 H 0.99124 0.43454 0.10893 0.0
H36 H 0.18954 0.74701 0.14388 0.0
H37 H 0.23558 0.88351 0.17772 0.0
H38 H 0.25223 0.80165 0.13389 0.0
H39 H 0.17278 0.82822 0.18783 0.0
Eu40 Eu 0.60546 1.03873 0.48895 0.0
Eu41 Eu 0.55219 0.08131 0.48506 0.0
C42 C 0.56999 1.06151 0.52916 0.0
C43 C 0.65176 0.97827 0.50644 0.0
C44 C 0.68342 0.99255 0.52093 0.0
C45 C 0.63016 0.911 0.51419 0.0
C46 C 0.68859 0.96649 0.53186 0.0
C47 C 0.62484 0.93726 0.50327 0.0
C48 C 0.66234 0.92539 0.52847 0.0
C49 C 0.64916 1.00686 0.49429 0.0
O50 O 0.6141 0.12978 0.47937 0.0
O51 O 0.6487 0.10537 0.49468 0.0
C52 C 0.64738 0.13458 0.4869 0.0
O53 O 0.61702 1.05861 0.45698 0.0
O54 O 0.53442 0.12373 0.49802 0.0
O55 O 0.5079 0.08819 0.4687 0.0
O56 O 0.56061 1.06146 0.45193 0.0
C57 C 0.59209 1.06075 0.4447 0.0
O58 O 0.54333 0.98834 0.47895 0.0
O59 O 0.50757 1.01825 0.49067 0.0
O60 O 0.56999 0.08915 0.51923 0.0
O61 O 0.62189 0.99354 0.47944 0.0
O62 O 0.65415 1.03939 0.50494 0.0
O63 O 0.57403 1.033 0.51906 0.0
C64 C 0.52627 0.15601 0.47179 0.0
C65 C 0.55182 0.16542 0.45491 0.0
C66 C 0.53844 0.22357 0.47618 0.0
C67 C 0.57137 0.20393 0.44908 0.0
C68 C 0.51866 0.18494 0.48189 0.0
C69 C 0.56621 0.23387 0.46023 0.0
C70 C 0.51381 0.11918 0.4813 0.0
C71 C 0.50933 0.98614 0.48409 0.0
H72 H 0.70481 1.02398 0.52349 0.0
H73 H 0.6094 0.87947 0.5113 0.0
H74 H 0.71415 0.97851 0.54239 0.0
H75 H 0.60015 0.9254 0.49216 0.0
H76 H 0.55852 0.14366 0.44701 0.0
H77 H 0.53407 0.24591 0.4853 0.0
H78 H 0.59207 0.2107 0.43654 0.0
H79 H 0.49948 0.17838 0.49513 0.0
Eu80 Eu 0.52682 0.53071 0.81831 0.0
Eu81 Eu 0.62293 0.5801 0.82339 0.0
C82 C 0.57037 0.56726 0.86357 0.0
C83 C 0.42425 0.50558 0.82971 0.0
C84 C 0.44118 0.53383 0.84715 0.0
C85 C 0.36267 0.50612 0.83482 0.0
C86 C 0.41945 0.54888 0.85803 0.0
C87 C 0.38467 0.49114 0.82381 0.0
C88 C 0.3802 0.53596 0.85173 0.0
C89 C 0.44974 0.49508 0.81672 0.0
O90 O 0.60453 0.51682 0.82918 0.0
O91 O 0.545 0.48403 0.81102 0.0
C92 C 0.57484 0.48378 0.82 0.0
O93 O 0.55052 0.54723 0.78628 0.0
O94 O 0.67827 0.5953 0.83944 0.0
O95 O 0.67924 0.62494 0.81257 0.0
O96 O 0.6089 0.54841 0.79098 0.0
C97 C 0.58173 0.54656 0.77865 0.0
O98 O 0.54244 0.59458 0.82748 0.0
O99 O 0.60465 0.62382 0.81467 0.0
O100 O 0.60199 0.59279 0.85451 0.0
O101 O 0.47204 0.52153 0.80437 0.0
O102 O 0.46956 0.48267 0.82659 0.0
O103 O 0.54128 0.53659 0.85268 0.0
C104 C 0.73504 0.61745 0.81838 0.0
C105 C 0.74668 0.62305 0.79758 0.0
C106 C 0.79528 0.61685 0.82634 0.0
C107 C 0.78283 0.62658 0.79139 0.0
C108 C 0.7593 0.61355 0.83255 0.0
C109 C 0.80792 0.62446 0.80585 0.0
C110 C 0.70016 0.61973 0.82607 0.0
C111 C 0.57318 0.62573 0.82088 0.0
H112 H 0.4719 0.54565 0.85179 0.0
H113 H 0.3324 0.49524 0.82969 0.0
H114 H 0.43433 0.57236 0.87064 0.0
H115 H 0.37126 0.46942 0.81031 0.0
H116 H 0.72863 0.62616 0.78624 0.0
H117 H 0.8142 0.6157 0.83795 0.0
H118 H 0.79171 0.63217 0.77547 0.0
H119 H 0.75123 0.6096 0.84871 0.0
H120 H 0.65002 0.96007 0.17041 0.0
H121 H 0.69824 0.99575 0.23318 0.0
H122 H 0.61189 1.02497 0.21377 0.0
H123 H 0.7592 0.96838 0.20545 0.0
C124 C 0.7442 0.98341 0.20055 0.0
C125 C 0.65157 0.97502 0.18582 0.0
C126 C 0.62856 0.99318 0.19017 0.0
C127 C 0.67784 0.9775 0.20109 0.0
C128 C 0.67928 0.99594 0.22123 0.0
C129 C 0.65472 1.01225 0.22619 0.0
C130 C 0.63053 1.01194 0.21029 0.0
N131 N 0.70271 0.96113 0.19619 0.0
H132 H 0.84322 0.65056 0.53875 0.0
H133 H 0.82104 0.69152 0.59928 0.0
H134 H 0.73351 0.579 0.56813 0.0
H135 H 0.91119 0.76759 0.58562 0.0
C136 C 0.8822 0.74733 0.57837 0.0
C137 C 0.82389 0.64582 0.55184 0.0
C138 C 0.78613 0.61193 0.55108 0.0
C139 C 0.83627 0.67466 0.56907 0.0
C140 C 0.81119 0.66905 0.58601 0.0
C141 C 0.77382 0.63461 0.5859 0.0
C142 C 0.76166 0.6063 0.56828 0.0
N143 N 0.87419 0.70924 0.56919 0.0
H144 H 0.23249 0.83208 0.85851 0.0
H145 H 0.26649 0.82953 0.9209 0.0
H146 H 0.1477 0.74807 0.89764 0.0
H147 H 0.35293 0.89278 0.89807 0.0
C148 C 0.32657 0.8649 0.8929 0.0
C149 C 0.22464 0.81957 0.8733 0.0
C150 C 0.18667 0.78738 0.87586 0.0
C151 C 0.25344 0.83443 0.88943 0.0
C152 C 0.24398 0.81791 0.90852 0.0
C153 C 0.2059 0.78652 0.91162 0.0
C154 C 0.17749 0.77151 0.89518 0.0
N155 N 0.29236 0.86534 0.88614 0.0
H156 H 0.10871 0.58906 0.47634 0.0
H157 H 1.0433 0.53275 0.41784 0.0
H158 H 0.15795 0.63663 0.41848 0.0
H159 H 0.99222 0.5224 0.43913 0.0
C160 C 0.99896 0.50919 0.4513 0.0
C161 C 0.10627 0.58775 0.45952 0.0
C162 C 0.13787 0.61641 0.44861 0.0
C163 C 1.07138 0.55746 0.44857 0.0
C164 C 1.06918 0.55607 0.42662 0.0
C165 C 0.09985 0.58485 0.41578 0.0
C166 C 0.13399 0.61459 0.42687 0.0
N167 N 1.03892 0.5284 0.45942 0.0
H168 H 0.57584 0.0854 0.81498 0.0
H169 H 0.57295 1.02047 0.75593 0.0
H170 H 0.57905 0.13336 0.75736 0.0
H171 H 0.52692 0.96861 0.77516 0.0
C172 C 0.54771 0.97568 0.78804 0.0
C173 C 0.57575 0.08287 0.79807 0.0
C174 C 0.57891 0.11423 0.78741 0.0
C175 C 0.57248 1.04815 0.78672 0.0
C176 C 0.57339 1.04588 0.76472 0.0
C177 C 0.57606 0.07653 0.75395 0.0
C178 C 0.5783 0.11011 0.7655 0.0
N179 N 0.5692 1.01608 0.79726 0.0
H180 H 0.55259 0.6261 0.14937 0.0
H181 H 0.60665 0.60955 0.09289 0.0
H182 H 0.5048 0.62355 0.08917 0.0
H183 H 0.60844 0.56345 0.11456 0.0
C184 C 0.62606 0.58739 0.12663 0.0
C185 C 0.55345 0.62335 0.13248 0.0
C186 C 0.52535 0.62652 0.12045 0.0
C187 C 0.58261 0.61642 0.12256 0.0
C188 C 0.58356 0.6133 0.10061 0.0
C189 C 0.55578 0.61594 0.08847 0.0
C190 C 0.52695 0.62254 0.09853 0.0
N191 N 0.61133 0.61315 0.13441 0.0
C192 C 0.20271 0.60341 0.14019 0.0
C193 C 0.19837 0.63287 0.15258 0.0
C194 C 0.23912 0.60421 0.13945 0.0
C195 C 0.34768 0.67143 0.14988 0.0
H196 H 0.34925 0.5725 0.14441 0.0
C197 C 0.48561 0.66135 0.12257 0.0
C198 C 0.49322 0.63301 0.12991 0.0
C199 C 0.45161 0.66328 0.12823 0.0
C200 C 0.34959 0.60052 0.1462 0.0
H201 H 0.22972 0.68645 0.17397 0.0
H202 H 0.2931 0.68775 0.17279 0.0
H203 H 0.28651 0.57156 0.14864 0.0
H204 H 0.47145 0.58546 0.14973 0.0
H205 H 0.41215 0.58909 0.15995 0.0
H206 H 0.4108 0.7004 0.14758 0.0
C207 C 0.2683 0.6641 0.16344 0.0
C208 C 0.31334 0.59996 0.14833 0.0
C209 C 0.23176 0.66326 0.16421 0.0
C210 C 0.4667 0.60783 0.14392 0.0
C211 C 0.43239 0.6096 0.14953 0.0
C212 C 0.38393 0.67199 0.14771 0.0
C213 C 0.27259 0.63452 0.15106 0.0
C214 C 0.31167 0.63536 0.14994 0.0
C215 C 0.42387 0.63684 0.14141 0.0
C216 C 0.38549 0.63651 0.14556 0.0
H217 H 0.1779 0.57953 0.13094 0.0
H218 H 0.24111 0.58125 0.12943 0.0
H219 H 0.34789 0.69936 0.15094 0.0
H220 H 0.50539 0.68125 0.11176 0.0
H221 H 0.44626 0.68443 0.12144 0.0
C222 C 0.72208 0.17706 0.48658 0.0
C223 C 0.68448 0.17375 0.486 0.0
C224 C 0.75667 0.21351 0.48443 0.0
C225 C 0.79009 0.31479 0.46721 0.0
H226 H 0.89186 0.33827 0.48945 0.0
C227 C 0.93289 0.44939 0.44311 0.0
C228 C 0.96595 0.47029 0.45691 0.0
C229 C 0.90012 0.41367 0.44766 0.0
C230 C 0.86372 0.33263 0.48331 0.0
H231 H 0.6542 0.207 0.48347 0.0
H232 H 0.71382 0.27038 0.4809 0.0
H233 H 0.83244 0.27716 0.49638 0.0
H234 H 0.99051 0.46959 0.48651 0.0
H235 H 0.93238 0.40758 0.49505 0.0
H236 H 0.82068 0.37095 0.45513 0.0
C237 C 0.71708 0.24474 0.48209 0.0
C238 C 0.82936 0.29693 0.48701 0.0
C239 C 0.68255 0.20818 0.48379 0.0
C240 C 0.96556 0.45416 0.47549 0.0
C241 C 0.93214 0.41841 0.4803 0.0
C242 C 0.82417 0.35062 0.46384 0.0
C243 C 0.7549 0.24811 0.48201 0.0
C244 C 0.79185 0.28706 0.47883 0.0
C245 C 0.89855 0.39772 0.46651 0.0
C246 C 0.86184 0.36005 0.47147 0.0
H247 H 0.72478 0.15116 0.48808 0.0
H248 H 0.7847 0.21408 0.48413 0.0
H249 H 0.76241 0.30878 0.46025 0.0
H250 H 0.93235 0.46072 0.42854 0.0
H251 H 0.876 0.39853 0.43615 0.0
C252 C 0.60299 0.69601 0.81121 0.0
C253 C 0.57205 0.66339 0.82 0.0
C254 C 0.60136 0.73085 0.80978 0.0
C255 C 0.52955 0.76838 0.81071 0.0
H256 H 0.62475 0.87168 0.81427 0.0
C257 C 0.52825 0.90411 0.78389 0.0
C258 C 0.55192 0.94217 0.79447 0.0
C259 C 0.53136 0.87159 0.78861 0.0
C260 C 0.59775 0.84319 0.81344 0.0
H261 H 0.51534 0.64276 0.8346 0.0
H262 H 0.51279 0.70335 0.8325 0.0
H263 H 0.62904 0.81304 0.81985 0.0
H264 H 0.59785 0.97577 0.81848 0.0
H265 H 0.60319 0.9186 0.82702 0.0
H266 H 0.49813 0.79838 0.80468 0.0
C267 C 0.53812 0.70188 0.82626 0.0
C268 C 0.60026 0.80927 0.81638 0.0
C269 C 0.53968 0.667 0.8276 0.0
C270 C 0.57904 0.94686 0.81007 0.0
C271 C 0.58223 0.91404 0.81484 0.0
C272 C 0.52705 0.80219 0.80782 0.0
C273 C 0.56877 0.73438 0.81716 0.0
C274 C 0.56622 0.77115 0.81487 0.0
C275 C 0.55828 0.87577 0.80419 0.0
C276 C 0.56112 0.84017 0.80884 0.0
H277 H 0.62838 0.69449 0.8051 0.0
H278 H 0.62536 0.7547 0.80241 0.0
H279 H 0.50259 0.73984 0.80917 0.0
H280 H 0.50728 0.89942 0.77166 0.0
H281 H 0.51298 0.84316 0.77966 0.0
C282 C 0.96788 0.64943 0.14731 0.0
C283 C 0.97189 0.61864 0.15433 0.0
C284 C 0.93074 0.64695 0.14627 0.0
C285 C 0.82182 0.57337 0.1458 0.0
H286 H 0.81279 0.66826 0.15238 0.0
C287 C 0.6776 0.56774 0.12152 0.0
C288 C 0.66552 0.59282 0.13243 0.0
C289 C 0.71449 0.57167 0.12574 0.0
C290 C 0.81452 0.64132 0.15073 0.0
H291 H 0.93949 0.56136 0.16626 0.0
H292 H 0.87519 0.55746 0.16509 0.0
H293 H 0.87708 0.67357 0.15745 0.0
H294 H 0.68317 0.64203 0.15652 0.0
H295 H 0.74772 0.64853 0.16438 0.0
H296 H 0.75925 0.54096 0.13977 0.0
C297 C 0.90053 0.58323 0.15978 0.0
C298 C 0.85175 0.64441 0.15334 0.0
C299 C 0.93765 0.58554 0.1606 0.0
C300 C 0.69151 0.62216 0.14785 0.0
C301 C 0.72867 0.62599 0.15223 0.0
C302 C 0.78467 0.57027 0.14338 0.0
C303 C 0.89628 0.61374 0.15243 0.0
C304 C 0.85618 0.61051 0.15066 0.0
C305 C 0.74074 0.60066 0.14123 0.0
C306 C 0.78035 0.6042 0.14545 0.0
H307 H 0.99344 0.67535 0.14224 0.0
H308 H 0.92907 0.67084 0.14016 0.0
H309 H 0.82354 0.54646 0.14334 0.0
H310 H 0.65851 0.54507 0.10939 0.0
H311 H 0.72262 0.5522 0.11646 0.0
C312 C 0.47146 0.91144 0.47459 0.0
C313 C 0.47183 0.94662 0.48248 0.0
C314 C 0.43601 0.87465 0.47286 0.0
C315 C 0.33215 0.82294 0.49189 0.0
H316 H 0.31304 0.74836 0.44295 0.0
C317 C 0.1769 0.6829 0.46995 0.0
C318 C 0.17553 0.64919 0.45896 0.0
C319 C 0.2134 0.7179 0.4749 0.0
C320 C 0.31793 0.76837 0.45695 0.0
H321 H 0.43449 0.96999 0.49492 0.0
H322 H 0.37315 0.90637 0.49182 0.0
H323 H 0.37522 0.81091 0.44719 0.0
H324 H 0.2114 0.62536 0.44519 0.0
H325 H 0.27478 0.68527 0.45451 0.0
H326 H 0.27469 0.78037 0.5016 0.0
C327 C 0.4003 0.90699 0.48712 0.0
C328 C 0.35385 0.80454 0.45936 0.0
C329 C 0.43566 0.94373 0.48877 0.0
C330 C 0.21151 0.65068 0.45393 0.0
C331 C 0.2479 0.68541 0.45897 0.0
C332 C 0.29621 0.78664 0.48952 0.0
C333 C 0.39977 0.87179 0.47906 0.0
C334 C 0.36159 0.83256 0.47683 0.0
C335 C 0.24952 0.72011 0.46894 0.0
C336 C 0.28839 0.75868 0.47197 0.0
H337 H 0.49859 0.91226 0.46964 0.0
H338 H 0.43712 0.84831 0.46682 0.0
H339 H 0.33702 0.84333 0.50573 0.0
H340 H 0.14967 0.68301 0.47357 0.0
H341 H 0.21307 0.74384 0.48242 0.0
C342 C 0.54705 0.41094 0.80747 0.0
C343 C 0.57529 0.44556 0.81956 0.0
C344 C 0.54779 0.37523 0.80683 0.0
C345 C 0.61425 0.33515 0.81845 0.0
H346 H 0.51694 0.23391 0.81029 0.0
C347 C 0.61395 0.18853 0.7926 0.0
C348 C 0.58304 0.1521 0.79812 0.0
C349 C 0.61384 0.22409 0.79824 0.0
C350 C 0.54447 0.2618 0.81288 0.0
H351 H 0.6262 0.46904 0.84076 0.0
H352 H 0.62696 0.40699 0.84007 0.0
H353 H 0.51433 0.29521 0.81418 0.0
H354 H 0.52847 0.12493 0.81475 0.0
H355 H 0.52867 0.18732 0.82525 0.0
H356 H 0.64434 0.30182 0.81763 0.0
C357 C 0.60464 0.40744 0.83063 0.0
C358 C 0.54302 0.29725 0.81477 0.0
C359 C 0.60407 0.44321 0.83114 0.0
C360 C 0.55298 0.15251 0.81048 0.0
C361 C 0.55283 0.1883 0.81616 0.0
C362 C 0.61568 0.29974 0.81668 0.0
C363 C 0.57663 0.37278 0.81838 0.0
C364 C 0.57793 0.33464 0.81732 0.0
C365 C 0.58278 0.2246 0.80966 0.0
C366 C 0.58087 0.26239 0.81355 0.0
H367 H 0.52451 0.41144 0.79824 0.0
H368 H 0.52606 0.34972 0.79689 0.0
H369 H 0.64195 0.363 0.82019 0.0
H370 H 0.63736 0.18922 0.7829 0.0
H371 H 0.63724 0.25089 0.79261 0.0
C372 C 0.68547 0.90748 0.5594 0.0
C373 C 0.67096 0.89801 0.53859 0.0
C374 C 0.70066 0.88602 0.56773 0.0
C375 C 0.76199 0.86103 0.57206 0.0
H376 H 0.72151 0.74791 0.55995 0.0
C377 C 0.82614 0.74699 0.55992 0.0
C378 C 0.85329 0.76111 0.57692 0.0
C379 C 0.79925 0.7604 0.55854 0.0
C380 C 0.73327 0.77958 0.56339 0.0
H381 H 0.65851 0.85692 0.51068 0.0
H382 H 0.68479 0.81931 0.52525 0.0
H383 H 0.68024 0.77589 0.55195 0.0
H384 H 0.8742 0.80055 0.60561 0.0
H385 H 0.82681 0.82395 0.60338 0.0
H386 H 0.81558 0.8652 0.58262 0.0
C387 C 0.6843 0.84323 0.53516 0.0
C388 C 0.70957 0.79553 0.55887 0.0
C389 C 0.66919 0.86477 0.52681 0.0
C390 C 0.85338 0.78918 0.5924 0.0
C391 C 0.82633 0.80255 0.59109 0.0
C392 C 0.78574 0.84515 0.57646 0.0
C393 C 0.70148 0.85455 0.55545 0.0
C394 C 0.72402 0.83654 0.56277 0.0
C395 C 0.79903 0.78839 0.57408 0.0
C396 C 0.77201 0.80438 0.57174 0.0
H397 H 0.68649 0.93249 0.56899 0.0
H398 H 0.71306 0.89495 0.58354 0.0
H399 H 0.77422 0.89286 0.57496 0.0
H400 H 0.82621 0.72627 0.54738 0.0
H401 H 0.77944 0.74968 0.54494 0.0
C402 C 0.87282 0.66893 0.79048 0.0
C403 C 0.84899 0.63486 0.80056 0.0
C404 C 0.91359 0.6839 0.78947 0.0
C405 C 0.99546 0.66466 0.79996 0.0
H406 H 1.04701 0.77313 0.8262 0.0
C407 C 0.13016 0.72903 0.85549 0.0
C408 C 0.15614 0.77024 0.85866 0.0
C409 C 1.09819 0.71305 0.84126 0.0
C410 C 1.03371 0.74328 0.81832 0.0
H411 H 0.84846 0.58752 0.81555 0.0
H412 H 0.91973 0.61386 0.814 0.0
H413 H 0.97952 0.74238 0.81281 0.0
H414 H 0.17066 0.82668 0.84808 0.0
H415 H 0.11558 0.79863 0.82266 0.0
H416 H 1.04942 0.66523 0.80616 0.0
C417 C 0.90697 0.62902 0.80686 0.0
C418 C 0.9948 0.72557 0.81064 0.0
C419 C 0.86621 0.61414 0.80795 0.0
C420 C 0.15112 0.79482 0.8461 0.0
C421 C 0.1193 0.77875 0.83166 0.0
C422 C 1.03463 0.68255 0.80746 0.0
C423 C 0.93128 0.665 0.79844 0.0
C424 C 0.97476 0.68563 0.80212 0.0
C425 C 1.09163 0.73782 0.8296 0.0
C426 C 1.05366 0.72156 0.81753 0.0
H427 H 0.86047 0.68567 0.7847 0.0
H428 H 0.93159 0.71147 0.7827 0.0
H429 H 0.98085 0.63396 0.79322 0.0
H430 H 0.13378 0.70912 0.86453 0.0
H431 H 1.07748 0.68146 0.8403 0.0
C432 C 0.31486 0.90384 0.16728 0.0
C433 C 0.28902 0.87894 0.15062 0.0
C434 C 0.35485 0.92889 0.16392 0.0
C435 C 0.43003 0.93003 0.12878 0.0
H436 H 0.49684 1.02168 0.16763 0.0
C437 C 0.597 1.02326 0.17098 0.0
C438 C 0.59961 0.9898 0.17456 0.0
C439 C 0.5646 1.01887 0.15976 0.0
C440 C 0.47909 0.99679 0.15617 0.0
H441 H 0.28399 0.86347 0.11706 0.0
H442 H 0.35409 0.90757 0.11113 0.0
H443 H 0.42735 1.00084 0.16343 0.0
H444 H 0.57231 0.92602 0.168 0.0
H445 H 0.51524 0.91796 0.14909 0.0
H446 H 0.48167 0.92563 0.12176 0.0
C447 C 0.34352 0.90709 0.12687 0.0
C448 C 0.43895 0.98451 0.154 0.0
C449 C 0.30343 0.88185 0.13026 0.0
C450 C 0.57104 0.95228 0.16535 0.0
C451 C 0.53837 0.94779 0.15439 0.0
C452 C 0.47032 0.94266 0.13073 0.0
C453 C 0.36997 0.92978 0.14379 0.0
C454 C 0.41351 0.94955 0.14129 0.0
C455 C 0.53387 0.98085 0.15224 0.0
C456 C 0.49481 0.97469 0.14543 0.0
H457 H 0.30483 0.90201 0.18318 0.0
H458 H 0.3743 0.94537 0.17741 0.0
H459 H 0.41143 0.90306 0.11874 0.0
H460 H 0.61908 1.0526 0.17773 0.0
H461 H 0.56261 1.04507 0.15797 0.0
C462 C 0.58006 0.30388 0.45983 0.0
C463 C 0.59341 0.27633 0.45744 0.0
C464 C 0.60708 0.34461 0.46162 0.0
C465 C 0.70838 0.41079 0.48152 0.0
H466 H 0.68612 0.49261 0.46872 0.0
C467 C 0.79638 0.56792 0.52334 0.0
C468 C 0.77196 0.58178 0.53259 0.0
C469 C 0.78111 0.536 0.50764 0.0
C470 C 0.69287 0.47011 0.47232 0.0
H471 H 0.64562 0.27013 0.45335 0.0
H472 H 0.69236 0.34089 0.45571 0.0
H473 H 0.64638 0.42499 0.45173 0.0
H474 H 0.7135 0.57539 0.53151 0.0
H475 H 0.68661 0.51926 0.5046 0.0
H476 H 0.75339 0.45509 0.50284 0.0
C477 C 0.66108 0.33106 0.45668 0.0
C478 C 0.67012 0.43142 0.4626 0.0
C479 C 0.63412 0.29038 0.45506 0.0
C480 C 0.7328 0.56483 0.52492 0.0
C481 C 0.71757 0.53302 0.50927 0.0
C482 C 0.73107 0.44937 0.4912 0.0
C483 C 0.64802 0.35864 0.46094 0.0
C484 C 0.67671 0.40102 0.46768 0.0
C485 C 0.74118 0.51744 0.50088 0.0
C486 C 0.72265 0.47914 0.4873 0.0
H487 H 0.54885 0.29403 0.46135 0.0
H488 H 0.59592 0.36496 0.46496 0.0
H489 H 0.71401 0.38811 0.48607 0.0
H490 H 0.82671 0.58046 0.52891 0.0
H491 H 0.80017 0.52495 0.50131 0.0
C492 C 0.36661 0.57226 0.88251 0.0
C493 C 0.35997 0.55724 0.86125 0.0
C494 C 0.35521 0.59967 0.89035 0.0
C495 C 0.29596 0.64591 0.87966 0.0
H496 H 0.38802 0.74413 0.90204 0.0
C497 C 0.30663 0.79656 0.87639 0.0
C498 C 0.32712 0.82727 0.89242 0.0
C499 C 0.30624 0.76069 0.87613 0.0
C500 C 0.36169 0.71683 0.89631 0.0
H501 H 0.33308 0.55688 0.83204 0.0
H502 H 0.31222 0.60368 0.84591 0.0
H503 H 0.39166 0.68354 0.89624 0.0
H504 H 0.36374 0.8452 0.92053 0.0
H505 H 0.36257 0.78193 0.92043 0.0
H506 H 0.26601 0.67914 0.87948 0.0
C507 C 0.32653 0.59444 0.85644 0.0
C508 C 0.36382 0.68208 0.89297 0.0
C509 C 0.3384 0.56745 0.84852 0.0
C510 C 0.34774 0.8218 0.90804 0.0
C511 C 0.34705 0.78563 0.90793 0.0
C512 C 0.29362 0.68054 0.88326 0.0
C513 C 0.3363 0.61202 0.87718 0.0
C514 C 0.33136 0.64659 0.88405 0.0
C515 C 0.32624 0.7546 0.89194 0.0
C516 C 0.32688 0.71673 0.89098 0.0
H517 H 0.3823 0.56427 0.89288 0.0
H518 H 0.36259 0.61244 0.90649 0.0
H519 H 0.27042 0.6188 0.87294 0.0
H520 H 0.29134 0.80045 0.86383 0.0
H521 H 0.29095 0.73806 0.86321 0.0
C522 C 0.95012 0.3186 0.1497 0.0
C523 C 0.94282 0.34774 0.16003 0.0
C524 C 0.93058 0.27999 0.15531 0.0
C525 C 0.87429 0.21864 0.19708 0.0
H526 H 0.83246 0.13396 0.15147 0.0
C527 C 0.80258 1.05139 0.20876 0.0
C528 C 0.76773 1.02573 0.19689 0.0
C529 C 0.82496 0.09137 0.20523 0.0
C530 C 0.84379 0.15725 0.16439 0.0
H531 H 0.90993 0.35944 0.18466 0.0
H532 H 0.87551 0.29163 0.19444 0.0
H533 H 0.86938 0.20265 0.14384 0.0
H534 H 0.73001 1.02106 0.17128 0.0
H535 H 0.76822 0.0906 0.16548 0.0
H536 H 0.84784 0.17289 0.21761 0.0
C537 C 0.89667 0.29889 0.18211 0.0
C538 C 0.86532 0.19661 0.16002 0.0
C539 C 0.9163 0.33766 0.17649 0.0
C540 C 0.75601 1.0404 0.18117 0.0
C541 C 0.77829 0.08015 0.17761 0.0
C542 C 0.85278 0.17911 0.20147 0.0
C543 C 0.90326 0.26953 0.17138 0.0
C544 C 0.88076 0.22777 0.1763 0.0
C545 C 0.81307 0.10608 0.18953 0.0
C546 C 0.83709 0.14804 0.18514 0.0
H547 H 0.97109 0.32566 0.13729 0.0
H548 H 0.93691 0.25826 0.14703 0.0
H549 H 0.88609 0.24202 0.20995 0.0
H550 H 0.81235 1.04055 0.22082 0.0
H551 H 0.8519 0.11058 0.21449 0.0
C552 C 1.09176 0.62977 0.07523 0.0
C553 C 0.11122 0.6571 0.0928 0.0
C554 C 0.10066 0.6416 0.05507 0.0
C555 C 0.14064 0.73033 0.02718 0.0
H556 H 0.16325 0.66927 0.98323 0.0
C557 C 0.20924 0.79506 0.95085 0.0
C558 C 0.19546 0.76987 0.93207 0.0
C559 C 0.19822 0.77969 0.97007 0.0
C560 C 0.15649 0.6864 -0.00476 0.0
H561 H 0.15534 0.71823 0.10297 0.0
H562 H 0.17045 0.73863 0.06801 0.0
H563 H 0.14383 0.64456 0.01739 0.0
H564 H 0.16014 0.7085 0.91882 0.0
H565 H 0.13988 0.68186 0.95235 0.0
H566 H 0.15281 0.77198 0.00522 0.0
C567 C 0.14827 0.70818 0.06977 0.0
C568 C 0.1454 0.67223 0.01479 0.0
C569 C 0.13972 0.69635 0.08981 0.0
C570 C 0.17083 0.72883 0.93299 0.0
C571 C 0.15961 0.71348 0.95223 0.0
C572 C 0.15139 0.74432 0.00766 0.0
C573 C 0.12877 0.68104 0.05219 0.0
C574 C 0.13791 0.69437 0.03102 0.0
C575 C 0.17289 0.73878 0.97101 0.0
C576 C 0.16 0.72285 0.99152 0.0
H577 H 1.06974 0.59931 0.07702 0.0
H578 H 1.08511 0.62012 0.04176 0.0
H579 H 0.13439 0.74769 0.03932 0.0
H580 H 0.22795 0.82683 0.95075 0.0
H581 H 0.2096 0.79999 0.98421 0.0
C582 C 0.57053 1.05365 0.40729 0.0
C583 C 0.60033 1.06267 0.4222 0.0
C584 C 0.57852 1.05367 0.38597 0.0
C585 C 0.64971 1.04593 0.34926 0.0
H586 H 0.60011 0.07752 0.30976 0.0
C587 C 0.68507 1.04634 0.26182 0.0
C588 C 0.65164 1.02631 0.24818 0.0
C589 C 0.68114 1.05618 0.28293 0.0
C590 C 0.61414 0.06861 0.32065 0.0
H591 H 0.66239 0.08093 0.42656 0.0
H592 H 0.6765 0.08204 0.38966 0.0
H593 H 0.58851 0.0845 0.34705 0.0
H594 H 0.58786 1.00142 0.24614 0.0
H595 H 0.58133 1.01934 0.2827 0.0
H596 H 0.67525 1.02999 0.32288 0.0
C597 C 0.64662 0.07359 0.39424 0.0
C598 C 0.60735 0.07239 0.34198 0.0
C599 C 0.63854 0.0731 0.41544 0.0
C600 C 0.61443 1.01756 0.25603 0.0
C601 C 0.61059 1.02773 0.27703 0.0
C602 C 0.65675 1.0425 0.328 0.0
C603 C 0.61659 1.06316 0.37918 0.0
C604 C 0.62479 1.06076 0.35654 0.0
C605 C 0.64376 1.04651 0.29078 0.0
C606 C 0.63874 1.05341 0.31345 0.0
H607 H 0.54081 1.04555 0.41204 0.0
H608 H 0.55457 1.04513 0.37481 0.0
H609 H 0.66302 1.0359 0.35992 0.0
H610 H 0.71423 1.05405 0.25625 0.0
H611 H 0.70729 0.07105 0.29316 0.0
C612 C 0.57718 0.5692 0.74449 0.0
C613 C 0.58922 0.54838 0.75614 0.0
C614 C 0.59009 0.57666 0.72414 0.0
C615 C 0.62846 0.54547 0.67843 0.0
H616 H 0.69655 0.65738 0.6723 0.0
C617 C 0.70645 0.60646 0.60176 0.0
C618 C 0.74804 0.6274 0.60434 0.0
C619 C 0.68236 0.597 0.6191 0.0
C620 C 0.67724 0.62609 0.67375 0.0
H621 H 0.62202 0.51698 0.75538 0.0
H622 H 0.6433 0.52873 0.7195 0.0
H623 H 0.65961 0.63731 0.70435 0.0
H624 H 0.7965 0.65542 0.62752 0.0
H625 H 0.75426 0.64058 0.65762 0.0
H626 H 0.64643 0.53429 0.64789 0.0
C627 C 0.6244 0.53971 0.72621 0.0
C628 C 0.65603 0.61465 0.69196 0.0
C629 C 0.61235 0.53311 0.74671 0.0
C630 C 0.76475 0.63995 0.62477 0.0
C631 C 0.74061 0.63125 0.64207 0.0
C632 C 0.64897 0.55695 0.66001 0.0
C633 C 0.6143 0.56246 0.71499 0.0
C634 C 0.63215 0.57425 0.69461 0.0
C635 C 0.69929 0.60917 0.63937 0.0
C636 C 0.67418 0.59732 0.65775 0.0
H637 H 0.55964 0.58159 0.75149 0.0
H638 H 0.58201 0.59431 0.71572 0.0
H639 H 0.61029 0.51416 0.68021 0.0
H640 H 0.69237 0.5971 0.58634 0.0
H641 H 0.65048 0.58016 0.6167 0.0
C642 C 0.55327 1.0278 0.56174 0.0
C643 C 0.56693 1.06277 0.55212 0.0
C644 C 0.55261 1.0288 0.58347 0.0
C645 C 0.56141 0.09352 0.6325 0.0
H646 H 0.58397 1.02043 0.65739 0.0
C647 C 0.59909 0.10802 0.72041 0.0
C648 C 0.57627 0.07379 0.73064 0.0
C649 C 0.5974 0.1062 0.69866 0.0
C650 C 0.57739 1.04081 0.65063 0.0
H651 H 0.59032 0.12624 0.5577 0.0
H652 H 0.59081 0.12846 0.59572 0.0
H653 H 0.58221 1.01902 0.61952 0.0
H654 H 0.53442 1.01051 0.72567 0.0
H655 H 0.53289 1.00722 0.68756 0.0
H656 H 0.55825 0.11622 0.66387 0.0
C657 C 0.57945 0.09993 0.58652 0.0
C658 C 0.5761 1.03992 0.62889 0.0
C659 C 0.57936 0.09877 0.5647 0.0
C660 C 0.55277 1.0374 0.71841 0.0
C661 C 0.55167 1.0355 0.69658 0.0
C662 C 0.56343 0.09486 0.65425 0.0
C663 C 0.56641 0.06497 0.59623 0.0
C664 C 0.56789 0.06614 0.61947 0.0
C665 C 0.57353 0.07 0.68655 0.0
C666 C 0.5713 0.06844 0.6635 0.0
H667 H 0.54304 0.99949 0.55243 0.0
H668 H 0.54128 1.00107 0.59023 0.0
H669 H 0.5543 0.1137 0.62594 0.0
H670 H 0.61837 0.1364 0.72919 0.0
H671 H 0.61505 0.13311 0.69127 0.0
C672 C 0.59992 0.60341 0.89877 0.0
C673 C 0.56764 0.57294 0.88656 0.0
C674 C 0.59767 0.60838 0.92049 0.0
C675 C 0.57778 0.62599 0.9648 0.0
H676 H 0.52709 0.53283 -0.00514 0.0
C677 C 0.55005 0.63579 0.05335 0.0
C678 C 0.5566 0.6113 0.06524 0.0
C679 C 0.55067 0.63124 0.03153 0.0
C680 C 0.54159 0.55917 0.98672 0.0
H681 H 0.50738 0.5242 0.88763 0.0
H682 H 0.50335 0.53316 0.92548 0.0
H683 H 0.52998 0.52488 0.95692 0.0
H684 H 0.56852 0.56248 0.06343 0.0
H685 H 0.57048 0.55515 0.02545 0.0
H686 H 0.59028 0.6603 -0.00535 0.0
C687 C 0.53066 0.55281 0.91829 0.0
C688 C 0.54281 0.5546 0.96494 0.0
C689 C 0.53292 0.54779 0.89657 0.0
C690 C 0.56378 0.58214 0.05477 0.0
C691 C 0.56441 0.5776 0.03297 0.0
C692 C 0.57657 0.63056 0.98659 0.0
C693 C 0.56307 0.58307 0.93053 0.0
C694 C 0.56104 0.58795 0.9537 0.0
C695 C 0.55783 0.60207 0.02106 0.0
C696 C 0.55858 0.59721 -0.00216 0.0
H697 H 0.62717 0.62326 0.89161 0.0
H698 H 0.62338 0.63164 0.92944 0.0
H699 H 0.59167 0.65231 0.95664 0.0
H700 H 0.5448 0.65878 0.06091 0.0
H701 H 0.5451 0.65033 0.02285 0.0
C702 C 1.06612 0.56731 0.224 0.0
C703 C 1.072 0.60333 0.21787 0.0
C704 C 1.06754 0.5627 0.2452 0.0
C705 C 0.1111 0.62169 0.2954 0.0
H706 H 1.03254 0.52939 0.32072 0.0
C707 C 0.10555 0.62012 0.38449 0.0
C708 C 1.0959 0.58477 0.39287 0.0
C709 C 0.10207 0.62051 0.363 0.0
C710 C 1.05508 0.55511 0.31385 0.0
H711 H 1.08305 0.66234 0.22935 0.0
H712 H 1.08569 0.65426 0.26608 0.0
H713 H 1.02704 0.53283 0.28333 0.0
H714 H 1.07506 0.52203 0.38528 0.0
H715 H 1.06965 0.52274 0.34759 0.0
H716 H 0.13959 0.64392 0.3256 0.0
C717 C 1.08024 0.62972 0.25452 0.0
C718 C 1.05182 0.55709 0.29244 0.0
C719 C 1.07844 0.63421 0.23343 0.0
C720 C 1.08244 0.54967 0.37927 0.0
C721 C 1.07925 0.5501 0.35769 0.0
C722 C 0.11458 0.61959 0.31669 0.0
C723 C 1.07532 0.59415 0.26064 0.0
C724 C 1.0795 0.59068 0.28308 0.0
C725 C 1.08918 0.5856 0.34926 0.0
C726 C 1.08631 0.58657 0.3263 0.0
H727 H 1.06101 0.5429 0.21242 0.0
H728 H 1.06372 0.53497 0.24948 0.0
H729 H 0.13334 0.64762 0.28853 0.0
H730 H 0.11531 0.6475 0.39462 0.0
H731 H 0.10908 0.64822 0.3572 0.0
loop_
_geom_bond_atom_site_label_1
_geom_bond_atom_site_label_2
_geom_bond_distance
_geom_bond_site_symmetry_2
_ccdc_geom_bond_type
Eu0 C9 2.820 1_455 S
Eu0 O11 2.404 . S
Eu0 O13 2.417 . S
Eu0 O18 2.362 1_455 S
Eu0 O21 2.482 1_455 S
Eu0 O22 2.464 1_455 S
Eu0 O23 2.348 . S
Eu1 O10 2.373 . S
Eu1 O14 2.488 . S
Eu1 O15 2.471 . S
Eu1 O16 2.349 . S
Eu1 O19 2.392 1_455 S
Eu1 O20 2.418 . S
Eu1 C30 2.828 . S
C2 O20 1.244 . S
C2 O23 1.265 . S
C3 C4 1.379 . S
C3 C7 1.373 . S
C3 C9 1.505 . S
C4 C3 1.379 . S
C4 C6 1.369 . S
C4 H32 0.930 . S
C5 C7 1.383 . S
C5 C8 1.382 . S
C5 H33 0.930 . S
C6 C4 1.369 . S
C6 C8 1.392 . S
C6 H34 0.930 . S
C7 C3 1.373 . S
C7 C5 1.383 . S
C7 H35 0.931 . S
C8 C5 1.382 . S
C8 C6 1.392 . S
C9 Eu0 2.820 1_655 S
C9 C3 1.505 . S
C9 O21 1.249 . S
C9 O22 1.244 . S
O10 Eu1 2.373 . S
O10 C12 1.258 . S
O11 Eu0 2.404 . S
O11 C12 1.242 . S
C12 O10 1.258 . S
C12 O11 1.242 . S
O13 Eu0 2.417 . S
O13 C17 1.244 . S
O14 Eu1 2.488 . S
O14 C30 1.249 . S
O15 Eu1 2.471 . S
O15 C30 1.244 . S
O16 Eu1 2.349 . S
O16 C17 1.265 . S
C17 O13 1.244 . S
C17 O16 1.265 . S
O18 Eu0 2.362 1_655 S
O18 C31 1.258 . S
O19 Eu1 2.392 1_655 S
O19 C31 1.242 . S
O20 Eu1 2.418 . S
O20 C2 1.244 . S
O21 Eu0 2.482 1_655 S
O21 C9 1.249 . S
O22 Eu0 2.464 1_655 S
O22 C9 1.244 . S
O23 Eu0 2.348 . S
O23 C2 1.265 . S
C24 C25 1.379 . S
C24 C28 1.373 . S
C24 C30 1.505 . S
C25 C24 1.379 . S
C25 C27 1.369 . S
C25 H36 0.930 . S
C26 C28 1.383 . S
C26 C29 1.382 . S
C26 H37 0.930 . S
C27 C25 1.369 . S
C27 C29 1.392 . S
C27 H38 0.930 . S
C28 C24 1.373 . S
C28 C26 1.383 . S
C28 H39 0.931 . S
C29 C26 1.382 . S
C29 C27 1.392 . S
C30 Eu1 2.828 . S
C30 O14 1.249 . S
C30 O15 1.244 . S
C30 C24 1.505 . S
C31 O18 1.258 . S
C31 O19 1.242 . S
H32 C4 0.930 . S
H33 C5 0.930 . S
H34 C6 0.930 . S
H35 C7 0.931 . S
H36 C25 0.930 . S
H37 C26 0.930 . S
H38 C27 0.930 . S
H39 C28 0.931 . S
Eu40 C49 2.828 1_545 S
Eu40 O51 2.392 . S
Eu40 O53 2.418 . S
Eu40 O58 2.373 1_545 S
Eu40 O61 2.488 1_545 S
Eu40 O62 2.471 1_545 S
Eu40 O63 2.349 . S
Eu41 O50 2.373 . S
Eu41 O54 2.488 . S
Eu41 O55 2.471 . S
Eu41 O56 2.349 . S
Eu41 O59 2.392 1_545 S
Eu41 O60 2.418 . S
Eu41 C70 2.828 . S
C42 O60 1.244 . S
C42 O63 1.265 . S
C43 C44 1.379 . S
C43 C47 1.373 . S
C43 C49 1.505 . S
C44 C43 1.379 . S
C44 C46 1.369 . S
C44 H72 0.930 . S
C45 C47 1.383 . S
C45 C48 1.382 . S
C45 H73 0.930 . S
C46 C44 1.369 . S
C46 C48 1.392 . S
C46 H74 0.930 . S
C47 C43 1.373 . S
C47 C45 1.383 . S
C47 H75 0.931 . S
C48 C45 1.382 . S
C48 C46 1.392 . S
C49 Eu40 2.828 1_565 S
C49 C43 1.505 . S
C49 O61 1.249 . S
C49 O62 1.244 . S
O50 Eu41 2.373 . S
O50 C52 1.258 . S
O51 Eu40 2.392 . S
O51 C52 1.242 . S
C52 O50 1.258 . S
C52 O51 1.242 . S
O53 Eu40 2.418 . S
O53 C57 1.244 . S
O54 Eu41 2.488 . S
O54 C70 1.249 . S
O55 Eu41 2.471 . S
O55 C70 1.244 . S
O56 Eu41 2.349 . S
O56 C57 1.265 . S
C57 O53 1.244 . S
C57 O56 1.265 . S
O58 Eu40 2.373 1_565 S
O58 C71 1.258 . S
O59 Eu41 2.392 1_565 S
O59 C71 1.242 . S
O60 Eu41 2.418 . S
O60 C42 1.244 . S
O61 Eu40 2.488 1_565 S
O61 C49 1.249 . S
O62 Eu40 2.471 1_565 S
O62 C49 1.244 . S
O63 Eu40 2.349 . S
O63 C42 1.265 . S
C64 C65 1.379 . S
C64 C68 1.373 . S
C64 C70 1.505 . S
C65 C64 1.379 . S
C65 C67 1.369 . S
C65 H76 0.930 . S
C66 C68 1.383 . S
C66 C69 1.382 . S
C66 H77 0.930 . S
C67 C65 1.369 . S
C67 C69 1.392 . S
C67 H78 0.930 . S
C68 C64 1.373 . S
C68 C66 1.383 . S
C68 H79 0.931 . S
C69 C66 1.382 . S
C69 C67 1.392 . S
C70 Eu41 2.828 . S
C70 O54 1.249 . S
C70 O55 1.244 . S
C70 C64 1.505 . S
C71 O58 1.258 . S
C71 O59 1.242 . S
H72 C44 0.930 . S
H73 C45 0.930 . S
H74 C46 0.930 . S
H75 C47 0.931 . S
H76 C65 0.930 . S
H77 C66 0.930 . S
H78 C67 0.930 . S
H79 C68 0.931 . S
Eu80 C89 2.828 . S
Eu80 O91 2.392 . S
Eu80 O93 2.418 . S
Eu80 O98 2.373 . S
Eu80 O101 2.488 . S
Eu80 O102 2.471 . S
Eu80 O103 2.349 . S
Eu81 O90 2.373 . S
Eu81 O94 2.488 . S
Eu81 O95 2.471 . S
Eu81 O96 2.349 . S
Eu81 O99 2.392 . S
Eu81 O100 2.418 . S
Eu81 C110 2.828 . S
C82 O100 1.244 . S
C82 O103 1.265 . S
C83 C84 1.379 . S
C83 C87 1.373 . S
C83 C89 1.505 . S
C84 C83 1.379 . S
C84 C86 1.369 . S
C84 H112 0.930 . S
C85 C87 1.383 . S
C85 C88 1.382 . S
C85 H113 0.930 . S
C86 C84 1.369 . S
C86 C88 1.392 . S
C86 H114 0.930 . S
C87 C83 1.373 . S
C87 C85 1.383 . S
C87 H115 0.931 . S
C88 C85 1.382 . S
C88 C86 1.392 . S
C89 Eu80 2.828 . S
C89 C83 1.505 . S
C89 O101 1.249 . S
C89 O102 1.244 . S
O90 Eu81 2.373 . S
O90 C92 1.258 . S
O91 Eu80 2.392 . S
O91 C92 1.242 . S
C92 O90 1.258 . S
C92 O91 1.242 . S
O93 Eu80 2.418 . S
O93 C97 1.244 . S
O94 Eu81 2.488 . S
O94 C110 1.249 . S
O95 Eu81 2.471 . S
O95 C110 1.244 . S
O96 Eu81 2.349 . S
O96 C97 1.265 . S
C97 O93 1.244 . S
C97 O96 1.265 . S
O98 Eu80 2.373 . S
O98 C111 1.258 . S
O99 Eu81 2.392 . S
O99 C111 1.242 . S
O100 Eu81 2.418 . S
O100 C82 1.244 . S
O101 Eu80 2.488 . S
O101 C89 1.249 . S
O102 Eu80 2.471 . S
O102 C89 1.244 . S
O103 Eu80 2.349 . S
O103 C82 1.265 . S
C104 C105 1.379 . S
C104 C108 1.373 . S
C104 C110 1.505 . S
C105 C104 1.379 . S
C105 C107 1.369 . S
C105 H116 0.930 . S
C106 C108 1.383 . S
C106 C109 1.382 . S
C106 H117 0.930 . S
C107 C105 1.369 . S
C107 C109 1.392 . S
C107 H118 0.930 . S
C108 C104 1.373 . S
C108 C106 1.383 . S
C108 H119 0.931 . S
C109 C106 1.382 . S
C109 C107 1.392 . S
C110 Eu81 2.828 . S
C110 O94 1.249 . S
C110 O95 1.244 . S
C110 C104 1.505 . S
C111 O98 1.258 . S
C111 O99 1.242 . S
H112 C84 0.930 . S
H113 C85 0.930 . S
H114 C86 0.930 . S
H115 C87 0.931 . S
H116 C105 0.930 . S
H117 C106 0.930 . S
H118 C107 0.930 . S
H119 C108 0.931 . S
H120 C125 0.930 . S
H121 C128 0.930 . S
H122 C130 0.930 . S
H123 C124 1.016 . S
C124 H123 1.016 . S
C124 N131 1.286 . S
C125 H120 0.930 . S
C125 C126 1.397 . S
C125 C127 1.361 . S
C126 C125 1.397 . S
C126 C130 1.390 . S
C127 C125 1.361 . S
C127 C128 1.393 . S
C127 N131 1.413 . S
C128 H121 0.930 . S
C128 C127 1.393 . S
C128 C129 1.399 . S
C129 C128 1.399 . S
C129 C130 1.381 . S
C130 H122 0.930 . S
C130 C126 1.390 . S
C130 C129 1.381 . S
N131 C124 1.286 . S
N131 C127 1.413 . S
H132 C137 0.930 . S
H133 C140 0.930 . S
H134 C142 0.930 . S
H135 C136 1.016 . S
C136 H135 1.016 . S
C136 N143 1.286 . S
C137 H132 0.930 . S
C137 C138 1.397 . S
C137 C139 1.361 . S
C138 C137 1.397 . S
C138 C142 1.390 . S
C139 C137 1.361 . S
C139 C140 1.393 . S
C139 N143 1.413 . S
C140 H133 0.930 . S
C140 C139 1.393 . S
C140 C141 1.399 . S
C141 C140 1.399 . S
C141 C142 1.381 . S
C142 H134 0.930 . S
C142 C138 1.390 . S
C142 C141 1.381 . S
N143 C136 1.286 . S
N143 C139 1.413 . S
H144 C149 0.930 . S
H145 C152 0.930 . S
H146 C154 0.930 1_655 S
H147 C148 1.016 . S
C148 H147 1.016 . S
C148 N155 1.286 . S
C149 H144 0.930 . S
C149 C150 1.428 . S
C149 C151 1.361 . S
C150 C149 1.428 . S
C150 C154 1.393 . S
C151 C149 1.361 . S
C151 C152 1.393 . S
C151 N155 1.413 . S
C152 H145 0.930 . S
C152 C151 1.393 . S
C152 C153 1.399 . S
C153 C152 1.399 . S
C153 C154 1.381 . S
C154 H146 0.930 1_455 S
C154 C150 1.393 . S
C154 C153 1.381 . S
N155 C148 1.286 . S
N155 C151 1.413 . S
H156 C161 0.930 . S
H157 C164 0.930 . S
H158 C166 0.930 . S
H159 C160 1.016 . S
C160 H159 1.016 . S
C160 N167 1.286 . S
C161 H156 0.930 . S
C161 C162 1.397 . S
C161 C163 1.367 . S
C162 C161 1.397 . S
C162 C166 1.390 . S
C163 C161 1.367 . S
C163 C164 1.391 1_455 S
C163 N167 1.410 1_455 S
C164 H157 0.930 . S
C164 C163 1.391 1_655 S
C164 C165 1.399 1_655 S
C165 C164 1.399 1_455 S
C165 C166 1.381 . S
C166 H158 0.930 . S
C166 C162 1.390 . S
C166 C165 1.381 . S
N167 C160 1.286 . S
N167 C163 1.410 1_655 S
H168 C173 0.930 . S
H169 C176 0.930 1_565 S
H170 C178 0.930 . S
H171 C172 1.016 . S
C172 H171 1.016 . S
C172 N179 1.286 . S
C173 H168 0.930 . S
C173 C174 1.397 . S
C173 C175 1.361 . S
C174 C173 1.397 . S
C174 C178 1.390 . S
C175 C173 1.361 . S
C175 C176 1.393 . S
C175 N179 1.413 1_545 S
C176 H169 0.930 1_545 S
C176 C175 1.393 . S
C176 C177 1.399 . S
C177 C176 1.399 . S
C177 C178 1.381 . S
C178 H170 0.930 . S
C178 C174 1.390 . S
C178 C177 1.381 . S
N179 C172 1.286 . S
N179 C175 1.413 1_565 S
H180 C185 0.930 . S
H181 C188 0.930 . S
H182 C190 0.930 . S
H183 C184 1.016 . S
C184 H183 1.016 . S
C184 N191 1.286 . S
C185 H180 0.930 . S
C185 C186 1.397 . S
C185 C187 1.361 . S
C186 C185 1.397 . S
C186 C190 1.390 . S
C187 C185 1.361 . S
C187 C188 1.393 . S
C187 N191 1.413 . S
C188 H181 0.930 . S
C188 C187 1.393 . S
C188 C189 1.399 . S
C189 C188 1.399 . S
C189 C190 1.381 . S
C190 H182 0.930 . S
C190 C186 1.390 . S
C190 C189 1.381 . S
N191 C184 1.286 . S
N191 C187 1.413 . S
C192 C193 1.349 . S
C192 C194 1.327 . S
C192 H217 0.950 . S
C193 C192 1.349 . S
C193 C209 1.349 . S
C194 C192 1.327 . S
C194 C213 1.429 . S
C194 H218 0.950 . S
C195 C212 1.574 . S
C195 C214 1.368 . S
C195 H219 0.949 . S
H196 C200 0.949 . S
C197 C198 1.349 . S
C197 C199 1.327 . S
C197 H220 0.950 . S
C198 C197 1.349 . S
C198 C210 1.349 . S
C199 C197 1.327 . S
C199 C215 1.429 . S
C199 H221 0.950 . S
C200 H196 0.949 . S
C200 C208 1.574 . S
C200 C216 1.368 . S
H201 C209 0.950 . S
H202 C207 0.950 . S
H203 C208 0.949 . S
H204 C210 0.950 . S
H205 C211 0.950 . S
H206 C212 0.949 . S
C207 H202 0.950 . S
C207 C209 1.327 . S
C207 C213 1.429 . S
C208 C200 1.574 . S
C208 H203 0.949 . S
C208 C214 1.368 . S
C209 C193 1.349 . S
C209 H201 0.950 . S
C209 C207 1.327 . S
C210 C198 1.349 . S
C210 H204 0.950 . S
C210 C211 1.327 . S
C211 H205 0.950 . S
C211 C210 1.327 . S
C211 C215 1.429 . S
C212 C195 1.574 . S
C212 H206 0.949 . S
C212 C216 1.368 . S
C213 C194 1.429 . S
C213 C207 1.429 . S
C213 C214 1.523 . S
C214 C195 1.368 . S
C214 C208 1.368 . S
C214 C213 1.523 . S
C215 C199 1.429 . S
C215 C211 1.429 . S
C215 C216 1.523 . S
C216 C200 1.368 . S
C216 C212 1.368 . S
C216 C215 1.523 . S
H217 C192 0.950 . S
H218 C194 0.950 . S
H219 C195 0.949 . S
H220 C197 0.950 . S
H221 C199 0.950 . S
C222 C223 1.349 . S
C222 C224 1.327 . S
C222 H247 0.950 . S
C223 C222 1.349 . S
C223 C239 1.349 . S
C224 C222 1.327 . S
C224 C243 1.429 . S
C224 H248 0.950 . S
C225 C242 1.574 . S
C225 C244 1.368 . S
C225 H249 0.949 . S
H226 C230 0.949 . S
C227 C228 1.349 . S
C227 C229 1.327 . S
C227 H250 0.950 . S
C228 C227 1.349 . S
C228 C240 1.349 . S
C229 C227 1.327 . S
C229 C245 1.429 . S
C229 H251 0.950 . S
C230 H226 0.949 . S
C230 C238 1.574 . S
C230 C246 1.368 . S
H231 C239 0.950 . S
H232 C237 0.950 . S
H233 C238 0.949 . S
H234 C240 0.950 . S
H235 C241 0.950 . S
H236 C242 0.949 . S
C237 H232 0.950 . S
C237 C239 1.327 . S
C237 C243 1.429 . S
C238 C230 1.574 . S
C238 H233 0.949 . S
C238 C244 1.368 . S
C239 C223 1.349 . S
C239 H231 0.950 . S
C239 C237 1.327 . S
C240 C228 1.349 . S
C240 H234 0.950 . S
C240 C241 1.327 . S
C241 H235 0.950 . S
C241 C240 1.327 . S
C241 C245 1.429 . S
C242 C225 1.574 . S
C242 H236 0.949 . S
C242 C246 1.368 . S
C243 C224 1.429 . S
C243 C237 1.429 . S
C243 C244 1.523 . S
C244 C225 1.368 . S
C244 C238 1.368 . S
C244 C243 1.523 . S
C245 C229 1.429 . S
C245 C241 1.429 . S
C245 C246 1.523 . S
C246 C230 1.368 . S
C246 C242 1.368 . S
C246 C245 1.523 . S
H247 C222 0.950 . S
H248 C224 0.950 . S
H249 C225 0.949 . S
H250 C227 0.950 . S
H251 C229 0.950 . S
C252 C253 1.349 . S
C252 C254 1.327 . S
C252 H277 0.950 . S
C253 C252 1.349 . S
C253 C269 1.349 . S
C254 C252 1.327 . S
C254 C273 1.429 . S
C254 H278 0.950 . S
C255 C272 1.574 . S
C255 C274 1.368 . S
C255 H279 0.949 . S
H256 C260 0.949 . S
C257 C258 1.349 . S
C257 C259 1.327 . S
C257 H280 0.950 . S
C258 C257 1.349 . S
C258 C270 1.349 . S
C259 C257 1.327 . S
C259 C275 1.429 . S
C259 H281 0.950 . S
C260 H256 0.949 . S
C260 C268 1.574 . S
C260 C276 1.368 . S
H261 C269 0.950 . S
H262 C267 0.950 . S
H263 C268 0.949 . S
H264 C270 0.950 . S
H265 C271 0.950 . S
H266 C272 0.949 . S
C267 H262 0.950 . S
C267 C269 1.327 . S
C267 C273 1.429 . S
C268 C260 1.574 . S
C268 H263 0.949 . S
C268 C274 1.368 . S
C269 C253 1.349 . S
C269 H261 0.950 . S
C269 C267 1.327 . S
C270 C258 1.349 . S
C270 H264 0.950 . S
C270 C271 1.327 . S
C271 H265 0.950 . S
C271 C270 1.327 . S
C271 C275 1.429 . S
C272 C255 1.574 . S
C272 H266 0.949 . S
C272 C276 1.368 . S
C273 C254 1.429 . S
C273 C267 1.429 . S
C273 C274 1.523 . S
C274 C255 1.368 . S
C274 C268 1.368 . S
C274 C273 1.523 . S
C275 C259 1.429 . S
C275 C271 1.429 . S
C275 C276 1.523 . S
C276 C260 1.368 . S
C276 C272 1.368 . S
C276 C275 1.523 . S
H277 C252 0.950 . S
H278 C254 0.950 . S
H279 C255 0.949 . S
H280 C257 0.950 . S
H281 C259 0.950 . S
C282 C283 1.349 . S
C282 C284 1.327 . S
C282 H307 0.950 . S
C283 C282 1.349 . S
C283 C299 1.349 . S
C284 C282 1.327 . S
C284 C303 1.429 . S
C284 H308 0.950 . S
C285 C302 1.574 . S
C285 C304 1.368 . S
C285 H309 0.949 . S
H286 C290 0.949 . S
C287 C288 1.349 . S
C287 C289 1.327 . S
C287 H310 0.950 . S
C288 C287 1.349 . S
C288 C300 1.349 . S
C289 C287 1.327 . S
C289 C305 1.429 . S
C289 H311 0.950 . S
C290 H286 0.949 . S
C290 C298 1.574 . S
C290 C306 1.368 . S
H291 C299 0.950 . S
H292 C297 0.950 . S
H293 C298 0.949 . S
H294 C300 0.950 . S
H295 C301 0.950 . S
H296 C302 0.949 . S
C297 H292 0.950 . S
C297 C299 1.327 . S
C297 C303 1.429 . S
C298 C290 1.574 . S
C298 H293 0.949 . S
C298 C304 1.368 . S
C299 C283 1.349 . S
C299 H291 0.950 . S
C299 C297 1.327 . S
C300 C288 1.349 . S
C300 H294 0.950 . S
C300 C301 1.327 . S
C301 H295 0.950 . S
C301 C300 1.327 . S
C301 C305 1.429 . S
C302 C285 1.574 . S
C302 H296 0.949 . S
C302 C306 1.368 . S
C303 C284 1.429 . S
C303 C297 1.429 . S
C303 C304 1.523 . S
C304 C285 1.368 . S
C304 C298 1.368 . S
C304 C303 1.523 . S
C305 C289 1.429 . S
C305 C301 1.429 . S
C305 C306 1.523 . S
C306 C290 1.368 . S
C306 C302 1.368 . S
C306 C305 1.523 . S
H307 C282 0.950 . S
H308 C284 0.950 . S
H309 C285 0.949 . S
H310 C287 0.950 . S
H311 C289 0.950 . S
C312 C313 1.349 . S
C312 C314 1.327 . S
C312 H337 0.950 . S
C313 C312 1.349 . S
C313 C329 1.349 . S
C314 C312 1.327 . S
C314 C333 1.429 . S
C314 H338 0.950 . S
C315 C332 1.574 . S
C315 C334 1.368 . S
C315 H339 0.949 . S
H316 C320 0.949 . S
C317 C318 1.349 . S
C317 C319 1.327 . S
C317 H340 0.950 . S
C318 C317 1.349 . S
C318 C330 1.349 . S
C319 C317 1.327 . S
C319 C335 1.429 . S
C319 H341 0.950 . S
C320 H316 0.949 . S
C320 C328 1.574 . S
C320 C336 1.368 . S
H321 C329 0.950 . S
H322 C327 0.950 . S
H323 C328 0.949 . S
H324 C330 0.950 . S
H325 C331 0.950 . S
H326 C332 0.949 . S
C327 H322 0.950 . S
C327 C329 1.327 . S
C327 C333 1.429 . S
C328 C320 1.574 . S
C328 H323 0.949 . S
C328 C334 1.368 . S
C329 C313 1.349 . S
C329 H321 0.950 . S
C329 C327 1.327 . S
C330 C318 1.349 . S
C330 H324 0.950 . S
C330 C331 1.327 . S
C331 H325 0.950 . S
C331 C330 1.327 . S
C331 C335 1.429 . S
C332 C315 1.574 . S
C332 H326 0.949 . S
C332 C336 1.368 . S
C333 C314 1.429 . S
C333 C327 1.429 . S
C333 C334 1.523 . S
C334 C315 1.368 . S
C334 C328 1.368 . S
C334 C333 1.523 . S
C335 C319 1.429 . S
C335 C331 1.429 . S
C335 C336 1.523 . S
C336 C320 1.368 . S
C336 C332 1.368 . S
C336 C335 1.523 . S
H337 C312 0.950 . S
H338 C314 0.950 . S
H339 C315 0.949 . S
H340 C317 0.950 . S
H341 C319 0.950 . S
C342 C343 1.349 . S
C342 C344 1.327 . S
C342 H367 0.950 . S
C343 C342 1.349 . S
C343 C359 1.349 . S
C344 C342 1.327 . S
C344 C363 1.429 . S
C344 H368 0.950 . S
C345 C362 1.574 . S
C345 C364 1.368 . S
C345 H369 0.949 . S
H346 C350 0.949 . S
C347 C348 1.349 . S
C347 C349 1.327 . S
C347 H370 0.950 . S
C348 C347 1.349 . S
C348 C360 1.349 . S
C349 C347 1.327 . S
C349 C365 1.429 . S
C349 H371 0.950 . S
C350 H346 0.949 . S
C350 C358 1.574 . S
C350 C366 1.368 . S
H351 C359 0.950 . S
H352 C357 0.950 . S
H353 C358 0.949 . S
H354 C360 0.950 . S
H355 C361 0.950 . S
H356 C362 0.949 . S
C357 H352 0.950 . S
C357 C359 1.327 . S
C357 C363 1.429 . S
C358 C350 1.574 . S
C358 H353 0.949 . S
C358 C364 1.368 . S
C359 C343 1.349 . S
C359 H351 0.950 . S
C359 C357 1.327 . S
C360 C348 1.349 . S
C360 H354 0.950 . S
C360 C361 1.327 . S
C361 H355 0.950 . S
C361 C360 1.327 . S
C361 C365 1.429 . S
C362 C345 1.574 . S
C362 H356 0.949 . S
C362 C366 1.368 . S
C363 C344 1.429 . S
C363 C357 1.429 . S
C363 C364 1.523 . S
C364 C345 1.368 . S
C364 C358 1.368 . S
C364 C363 1.523 . S
C365 C349 1.429 . S
C365 C361 1.429 . S
C365 C366 1.523 . S
C366 C350 1.368 . S
C366 C362 1.368 . S
C366 C365 1.523 . S
H367 C342 0.950 . S
H368 C344 0.950 . S
H369 C345 0.949 . S
H370 C347 0.950 . S
H371 C349 0.950 . S
C372 C373 1.349 . S
C372 C374 1.327 . S
C372 H397 0.950 . S
C373 C372 1.349 . S
C373 C389 1.349 . S
C374 C372 1.327 . S
C374 C393 1.429 . S
C374 H398 0.950 . S
C375 C392 1.574 . S
C375 C394 1.368 . S
C375 H399 0.949 . S
H376 C380 0.949 . S
C377 C378 1.349 . S
C377 C379 1.327 . S
C377 H400 0.950 . S
C378 C377 1.349 . S
C378 C390 1.349 . S
C379 C377 1.327 . S
C379 C395 1.429 . S
C379 H401 0.950 . S
C380 H376 0.949 . S
C380 C388 1.574 . S
C380 C396 1.368 . S
H381 C389 0.950 . S
H382 C387 0.950 . S
H383 C388 0.949 . S
H384 C390 0.950 . S
H385 C391 0.950 . S
H386 C392 0.949 . S
C387 H382 0.950 . S
C387 C389 1.327 . S
C387 C393 1.429 . S
C388 C380 1.574 . S
C388 H383 0.949 . S
C388 C394 1.368 . S
C389 C373 1.349 . S
C389 H381 0.950 . S
C389 C387 1.327 . S
C390 C378 1.349 . S
C390 H384 0.950 . S
C390 C391 1.327 . S
C391 H385 0.950 . S
C391 C390 1.327 . S
C391 C395 1.429 . S
C392 C375 1.574 . S
C392 H386 0.949 . S
C392 C396 1.368 . S
C393 C374 1.429 . S
C393 C387 1.429 . S
C393 C394 1.523 . S
C394 C375 1.368 . S
C394 C388 1.368 . S
C394 C393 1.523 . S
C395 C379 1.429 . S
C395 C391 1.429 . S
C395 C396 1.523 . S
C396 C380 1.368 . S
C396 C392 1.368 . S
C396 C395 1.523 . S
H397 C372 0.950 . S
H398 C374 0.950 . S
H399 C375 0.949 . S
H400 C377 0.950 . S
H401 C379 0.950 . S
C402 C403 1.349 . S
C402 C404 1.327 . S
C402 H427 0.950 . S
C403 C402 1.349 . S
C403 C419 1.349 . S
C404 C402 1.327 . S
C404 C423 1.429 . S
C404 H428 0.950 . S
C405 C422 1.574 . S
C405 C424 1.368 . S
C405 H429 0.949 . S
H406 C410 0.949 . S
C407 C408 1.349 . S
C407 C409 1.327 . S
C407 H430 0.950 . S
C408 C407 1.349 . S
C408 C420 1.349 . S
C409 C407 1.327 . S
C409 C425 1.429 . S
C409 H431 0.950 . S
C410 H406 0.949 . S
C410 C418 1.574 . S
C410 C426 1.368 . S
H411 C419 0.950 . S
H412 C417 0.950 . S
H413 C418 0.949 . S
H414 C420 0.950 1_455 S
H415 C421 0.950 . S
H416 C422 0.949 . S
C417 H412 0.950 . S
C417 C419 1.327 . S
C417 C423 1.429 . S
C418 C410 1.574 . S
C418 H413 0.949 . S
C418 C424 1.368 . S
C419 C403 1.349 . S
C419 H411 0.950 . S
C419 C417 1.327 . S
C420 C408 1.349 . S
C420 H414 0.950 1_655 S
C420 C421 1.327 . S
C421 H415 0.950 . S
C421 C420 1.327 . S
C421 C425 1.429 . S
C422 C405 1.574 . S
C422 H416 0.949 . S
C422 C426 1.368 . S
C423 C404 1.429 . S
C423 C417 1.429 . S
C423 C424 1.523 . S
C424 C405 1.368 . S
C424 C418 1.368 . S
C424 C423 1.523 . S
C425 C409 1.429 . S
C425 C421 1.429 . S
C425 C426 1.523 . S
C426 C410 1.368 . S
C426 C422 1.368 . S
C426 C425 1.523 . S
H427 C402 0.950 . S
H428 C404 0.950 . S
H429 C405 0.949 . S
H430 C407 0.950 . S
H431 C409 0.950 . S
C432 C433 1.349 . S
C432 C434 1.327 . S
C432 H457 0.950 . S
C433 C432 1.349 . S
C433 C449 1.349 . S
C434 C432 1.327 . S
C434 C453 1.429 . S
C434 H458 0.950 . S
C435 C452 1.574 . S
C435 C454 1.368 . S
C435 H459 0.949 . S
H436 C440 0.949 . S
C437 C438 1.349 . S
C437 C439 1.327 1_545 S
C437 H460 0.950 . S
C438 C437 1.349 . S
C438 C450 1.349 1_545 S
C439 C437 1.327 1_565 S
C439 C455 1.429 . S
C439 H461 0.950 . S
C440 H436 0.949 . S
C440 C448 1.574 . S
C440 C456 1.368 . S
H441 C449 0.950 . S
H442 C447 0.950 . S
H443 C448 0.949 . S
H444 C450 0.950 . S
H445 C451 0.950 . S
H446 C452 0.949 . S
C447 H442 0.950 . S
C447 C449 1.327 . S
C447 C453 1.429 . S
C448 C440 1.574 . S
C448 H443 0.949 . S
C448 C454 1.368 . S
C449 C433 1.349 . S
C449 H441 0.950 . S
C449 C447 1.327 . S
C450 C438 1.349 1_565 S
C450 H444 0.950 . S
C450 C451 1.327 . S
C451 H445 0.950 . S
C451 C450 1.327 . S
C451 C455 1.429 . S
C452 C435 1.574 . S
C452 H446 0.949 . S
C452 C456 1.368 . S
C453 C434 1.429 . S
C453 C447 1.429 . S
C453 C454 1.523 . S
C454 C435 1.368 . S
C454 C448 1.368 . S
C454 C453 1.523 . S
C455 C439 1.429 . S
C455 C451 1.429 . S
C455 C456 1.523 . S
C456 C440 1.368 . S
C456 C452 1.368 . S
C456 C455 1.523 . S
H457 C432 0.950 . S
H458 C434 0.950 . S
H459 C435 0.949 . S
H460 C437 0.950 . S
H461 C439 0.950 . S
C462 C463 1.349 . S
C462 C464 1.327 . S
C462 H487 0.950 . S
C463 C462 1.349 . S
C463 C479 1.349 . S
C464 C462 1.327 . S
C464 C483 1.429 . S
C464 H488 0.950 . S
C465 C482 1.574 . S
C465 C484 1.368 . S
C465 H489 0.949 . S
H466 C470 0.949 . S
C467 C468 1.349 . S
C467 C469 1.327 . S
C467 H490 0.950 . S
C468 C467 1.349 . S
C468 C480 1.349 . S
C469 C467 1.327 . S
C469 C485 1.429 . S
C469 H491 0.950 . S
C470 H466 0.949 . S
C470 C478 1.574 . S
C470 C486 1.368 . S
H471 C479 0.950 . S
H472 C477 0.950 . S
H473 C478 0.949 . S
H474 C480 0.950 . S
H475 C481 0.950 . S
H476 C482 0.949 . S
C477 H472 0.950 . S
C477 C479 1.327 . S
C477 C483 1.429 . S
C478 C470 1.574 . S
C478 H473 0.949 . S
C478 C484 1.368 . S
C479 C463 1.349 . S
C479 H471 0.950 . S
C479 C477 1.327 . S
C480 C468 1.349 . S
C480 H474 0.950 . S
C480 C481 1.327 . S
C481 H475 0.950 . S
C481 C480 1.327 . S
C481 C485 1.429 . S
C482 C465 1.574 . S
C482 H476 0.949 . S
C482 C486 1.368 . S
C483 C464 1.429 . S
C483 C477 1.429 . S
C483 C484 1.523 . S
C484 C465 1.368 . S
C484 C478 1.368 . S
C484 C483 1.523 . S
C485 C469 1.429 . S
C485 C481 1.429 . S
C485 C486 1.523 . S
C486 C470 1.368 . S
C486 C482 1.368 . S
C486 C485 1.523 . S
H487 C462 0.950 . S
H488 C464 0.950 . S
H489 C465 0.949 . S
H490 C467 0.950 . S
H491 C469 0.950 . S
C492 C493 1.349 . S
C492 C494 1.327 . S
C492 H517 0.950 . S
C493 C492 1.349 . S
C493 C509 1.349 . S
C494 C492 1.327 . S
C494 C513 1.429 . S
C494 H518 0.950 . S
C495 C512 1.574 . S
C495 C514 1.368 . S
C495 H519 0.949 . S
H496 C500 0.949 . S
C497 C498 1.349 . S
C497 C499 1.327 . S
C497 H520 0.950 . S
C498 C497 1.349 . S
C498 C510 1.349 . S
C499 C497 1.327 . S
C499 C515 1.429 . S
C499 H521 0.950 . S
C500 H496 0.949 . S
C500 C508 1.574 . S
C500 C516 1.368 . S
H501 C509 0.950 . S
H502 C507 0.950 . S
H503 C508 0.949 . S
H504 C510 0.950 . S
H505 C511 0.950 . S
H506 C512 0.949 . S
C507 H502 0.950 . S
C507 C509 1.327 . S
C507 C513 1.429 . S
C508 C500 1.574 . S
C508 H503 0.949 . S
C508 C514 1.368 . S
C509 C493 1.349 . S
C509 H501 0.950 . S
C509 C507 1.327 . S
C510 C498 1.349 . S
C510 H504 0.950 . S
C510 C511 1.327 . S
C511 H505 0.950 . S
C511 C510 1.327 . S
C511 C515 1.429 . S
C512 C495 1.574 . S
C512 H506 0.949 . S
C512 C516 1.368 . S
C513 C494 1.429 . S
C513 C507 1.429 . S
C513 C514 1.523 . S
C514 C495 1.368 . S
C514 C508 1.368 . S
C514 C513 1.523 . S
C515 C499 1.429 . S
C515 C511 1.429 . S
C515 C516 1.523 . S
C516 C500 1.368 . S
C516 C512 1.368 . S
C516 C515 1.523 . S
H517 C492 0.950 . S
H518 C494 0.950 . S
H519 C495 0.949 . S
H520 C497 0.950 . S
H521 C499 0.950 . S
C522 C523 1.349 . S
C522 C524 1.327 . S
C522 H547 0.950 . S
C523 C522 1.349 . S
C523 C539 1.349 . S
C524 C522 1.327 . S
C524 C543 1.429 . S
C524 H548 0.950 . S
C525 C542 1.574 . S
C525 C544 1.368 . S
C525 H549 0.949 . S
H526 C530 0.949 . S
C527 C528 1.349 . S
C527 C529 1.327 . S
C527 H550 0.950 . S
C528 C527 1.349 . S
C528 C540 1.349 . S
C529 C527 1.327 . S
C529 C545 1.429 . S
C529 H551 0.950 . S
C530 H526 0.949 . S
C530 C538 1.574 . S
C530 C546 1.368 . S
H531 C539 0.950 . S
H532 C537 0.950 . S
H533 C538 0.949 . S
H534 C540 0.950 . S
H535 C541 0.950 . S
H536 C542 0.949 . S
C537 H532 0.950 . S
C537 C539 1.327 . S
C537 C543 1.429 . S
C538 C530 1.574 . S
C538 H533 0.949 . S
C538 C544 1.368 . S
C539 C523 1.349 . S
C539 H531 0.950 . S
C539 C537 1.327 . S
C540 C528 1.349 . S
C540 H534 0.950 . S
C540 C541 1.327 . S
C541 H535 0.950 . S
C541 C540 1.327 . S
C541 C545 1.429 . S
C542 C525 1.574 . S
C542 H536 0.949 . S
C542 C546 1.368 . S
C543 C524 1.429 . S
C543 C537 1.429 . S
C543 C544 1.523 . S
C544 C525 1.368 . S
C544 C538 1.368 . S
C544 C543 1.523 . S
C545 C529 1.429 . S
C545 C541 1.429 . S
C545 C546 1.523 . S
C546 C530 1.368 . S
C546 C542 1.368 . S
C546 C545 1.523 . S
H547 C522 0.950 . S
H548 C524 0.950 . S
H549 C525 0.949 . S
H550 C527 0.950 . S
H551 C529 0.950 . S
C552 C553 1.332 1_655 S
C552 C554 1.326 . S
C552 H577 0.969 . S
C553 C552 1.332 1_455 S
C553 C569 1.349 . S
C554 C552 1.326 . S
C554 C573 1.421 1_655 S
C554 H578 0.957 . S
C555 C572 1.574 . S
C555 C574 1.368 . S
C555 H579 0.949 . S
H556 C560 0.949 1_656 S
C557 C558 1.349 . S
C557 C559 1.327 . S
C557 H580 0.950 . S
C558 C557 1.349 . S
C558 C570 1.349 . S
C559 C557 1.327 . S
C559 C575 1.429 . S
C559 H581 0.950 . S
C560 H556 0.949 1_454 S
C560 C568 1.575 . S
C560 C576 1.368 1_554 S
H561 C569 0.950 . S
H562 C567 0.950 . S
H563 C568 0.938 1_655 S
H564 C570 0.950 1_655 S
H565 C571 0.950 1_655 S
H566 C572 0.949 . S
C567 H562 0.950 . S
C567 C569 1.327 . S
C567 C573 1.429 . S
C568 C560 1.575 . S
C568 H563 0.938 1_455 S
C568 C574 1.380 . S
C569 C553 1.349 . S
C569 H561 0.950 . S
C569 C567 1.327 . S
C570 C558 1.349 . S
C570 H564 0.950 1_455 S
C570 C571 1.327 . S
C571 H565 0.950 1_455 S
C571 C570 1.327 . S
C571 C575 1.429 . S
C572 C555 1.574 . S
C572 H566 0.949 . S
C572 C576 1.368 1_554 S
C573 C554 1.421 1_455 S
C573 C567 1.429 . S
C573 C574 1.523 . S
C574 C555 1.368 . S
C574 C568 1.380 . S
C574 C573 1.523 . S
C575 C559 1.429 . S
C575 C571 1.429 . S
C575 C576 1.523 . S
C576 C560 1.368 1_556 S
C576 C572 1.368 1_556 S
C576 C575 1.523 . S
H577 C552 0.969 . S
H578 C554 0.957 . S
H579 C555 0.949 . S
H580 C557 0.950 . S
H581 C559 0.950 . S
C582 C583 1.349 . S
C582 C584 1.327 . S
C582 H607 0.950 1_545 S
C583 C582 1.349 . S
C583 C599 1.349 . S
C584 C582 1.327 . S
C584 C603 1.429 . S
C584 H608 0.950 1_545 S
C585 C602 1.574 . S
C585 C604 1.368 . S
C585 H609 0.949 . S
H586 C590 0.949 1_565 S
C587 C588 1.349 . S
C587 C589 1.327 . S
C587 H610 0.950 . S
C588 C587 1.349 . S
C588 C600 1.349 . S
C589 C587 1.327 . S
C589 C605 1.429 . S
C589 H611 0.950 . S
C590 H586 0.949 1_545 S
C590 C598 1.574 . S
C590 C606 1.368 . S
H591 C599 0.950 . S
H592 C597 0.950 . S
H593 C598 0.949 1_565 S
H594 C600 0.950 . S
H595 C601 0.957 . S
H596 C602 0.949 . S
C597 H592 0.950 . S
C597 C599 1.327 . S
C597 C603 1.429 . S
C598 C590 1.574 . S
C598 H593 0.949 1_545 S
C598 C604 1.368 . S
C599 C583 1.349 . S
C599 H591 0.950 . S
C599 C597 1.327 . S
C600 C588 1.349 . S
C600 H594 0.950 . S
C600 C601 1.327 . S
C601 H595 0.957 . S
C601 C600 1.327 . S
C601 C605 1.429 . S
C602 C585 1.574 . S
C602 H596 0.949 . S
C602 C606 1.368 . S
C603 C584 1.429 . S
C603 C597 1.429 . S
C603 C604 1.523 . S
C604 C585 1.368 . S
C604 C598 1.368 . S
C604 C603 1.523 . S
C605 C589 1.429 . S
C605 C601 1.429 . S
C605 C606 1.523 . S
C606 C590 1.368 . S
C606 C602 1.368 . S
C606 C605 1.523 . S
H607 C582 0.950 1_565 S
H608 C584 0.950 1_565 S
H609 C585 0.949 . S
H610 C587 0.950 . S
H611 C589 0.950 . S
C612 C613 1.349 . S
C612 C614 1.327 . S
C612 H637 0.950 . S
C613 C612 1.349 . S
C613 C629 1.349 . S
C614 C612 1.327 . S
C614 C633 1.429 . S
C614 H638 0.950 . S
C615 C632 1.574 . S
C615 C634 1.368 . S
C615 H639 0.949 . S
H616 C620 0.949 . S
C617 C618 1.349 . S
C617 C619 1.327 . S
C617 H640 0.950 . S
C618 C617 1.349 . S
C618 C630 1.349 . S
C619 C617 1.327 . S
C619 C635 1.429 . S
C619 H641 0.950 . S
C620 H616 0.949 . S
C620 C628 1.574 . S
C620 C636 1.368 . S
H621 C629 0.950 . S
H622 C627 0.950 . S
H623 C628 0.949 . S
H624 C630 0.950 . S
H625 C631 0.950 . S
H626 C632 0.949 . S
C627 H622 0.950 . S
C627 C629 1.327 . S
C627 C633 1.429 . S
C628 C620 1.574 . S
C628 H623 0.949 . S
C628 C634 1.368 . S
C629 C613 1.349 . S
C629 H621 0.950 . S
C629 C627 1.327 . S
C630 C618 1.349 . S
C630 H624 0.950 . S
C630 C631 1.327 . S
C631 H625 0.950 . S
C631 C630 1.327 . S
C631 C635 1.429 . S
C632 C615 1.574 . S
C632 H626 0.949 . S
C632 C636 1.368 . S
C633 C614 1.429 . S
C633 C627 1.429 . S
C633 C634 1.523 . S
C634 C615 1.368 . S
C634 C628 1.368 . S
C634 C633 1.523 . S
C635 C619 1.429 . S
C635 C631 1.429 . S
C635 C636 1.523 . S
C636 C620 1.368 . S
C636 C632 1.368 . S
C636 C635 1.523 . S
H637 C612 0.950 . S
H638 C614 0.950 . S
H639 C615 0.949 . S
H640 C617 0.950 . S
H641 C619 0.950 . S
C642 C643 1.349 . S
C642 C644 1.327 . S
C642 H667 0.950 1_545 S
C643 C642 1.349 . S
C643 C659 1.349 . S
C644 C642 1.327 . S
C644 C663 1.429 . S
C644 H668 0.950 1_545 S
C645 C662 1.574 . S
C645 C664 1.368 . S
C645 H669 0.949 . S
H646 C650 0.943 1_565 S
C647 C648 1.349 . S
C647 C649 1.327 . S
C647 H670 0.950 . S
C648 C647 1.349 . S
C648 C660 1.379 . S
C649 C647 1.327 . S
C649 C665 1.429 . S
C649 H671 0.950 . S
C650 H646 0.943 1_545 S
C650 C658 1.570 . S
C650 C666 1.374 . S
H651 C659 0.950 . S
H652 C657 0.950 . S
H653 C658 0.929 1_565 S
H654 C660 0.914 1_565 S
H655 C661 0.928 1_565 S
H656 C662 0.949 . S
C657 H652 0.950 . S
C657 C659 1.327 . S
C657 C663 1.429 . S
C658 C650 1.570 . S
C658 H653 0.929 1_545 S
C658 C664 1.395 . S
C659 C643 1.349 . S
C659 H651 0.950 . S
C659 C657 1.327 . S
C660 C648 1.379 . S
C660 H654 0.914 1_545 S
C660 C661 1.329 . S
C661 H655 0.928 1_545 S
C661 C660 1.329 . S
C661 C665 1.454 . S
C662 C645 1.574 . S
C662 H656 0.949 . S
C662 C666 1.368 . S
C663 C644 1.429 . S
C663 C657 1.429 . S
C663 C664 1.523 . S
C664 C645 1.368 . S
C664 C658 1.395 . S
C664 C663 1.523 . S
C665 C649 1.429 . S
C665 C661 1.454 . S
C665 C666 1.523 . S
C666 C650 1.374 . S
C666 C662 1.368 . S
C666 C665 1.523 . S
H667 C642 0.950 1_565 S
H668 C644 0.950 1_565 S
H669 C645 0.949 . S
H670 C647 0.950 . S
H671 C649 0.950 . S
C672 C673 1.349 . S
C672 C674 1.327 . S
C672 H697 0.950 . S
C673 C672 1.349 . S
C673 C689 1.349 . S
C674 C672 1.327 . S
C674 C693 1.429 . S
C674 H698 0.950 . S
C675 C692 1.574 . S
C675 C694 1.368 . S
C675 H699 0.949 . S
H676 C680 0.949 1_554 S
C677 C678 1.349 . S
C677 C679 1.327 . S
C677 H700 0.950 . S
C678 C677 1.349 . S
C678 C690 1.349 . S
C679 C677 1.327 . S
C679 C695 1.429 . S
C679 H701 0.950 . S
C680 H676 0.949 1_556 S
C680 C688 1.574 . S
C680 C696 1.368 1_556 S
H681 C689 0.950 . S
H682 C687 0.950 . S
H683 C688 0.949 . S
H684 C690 0.950 . S
H685 C691 0.950 . S
H686 C692 0.949 1_554 S
C687 H682 0.950 . S
C687 C689 1.327 . S
C687 C693 1.429 . S
C688 C680 1.574 . S
C688 H683 0.949 . S
C688 C694 1.368 . S
C689 C673 1.349 . S
C689 H681 0.950 . S
C689 C687 1.327 . S
C690 C678 1.349 . S
C690 H684 0.950 . S
C690 C691 1.327 . S
C691 H685 0.950 . S
C691 C690 1.327 . S
C691 C695 1.429 . S
C692 C675 1.574 . S
C692 H686 0.949 1_556 S
C692 C696 1.368 1_556 S
C693 C674 1.429 . S
C693 C687 1.429 . S
C693 C694 1.523 . S
C694 C675 1.368 . S
C694 C688 1.368 . S
C694 C693 1.523 . S
C695 C679 1.429 . S
C695 C691 1.429 . S
C695 C696 1.523 . S
C696 C680 1.368 1_554 S
C696 C692 1.368 1_554 S
C696 C695 1.523 . S
H697 C672 0.950 . S
H698 C674 0.950 . S
H699 C675 0.949 . S
H700 C677 0.950 . S
H701 C679 0.950 . S
C702 C703 1.349 . S
C702 C704 1.327 . S
C702 H727 0.950 . S
C703 C702 1.349 . S
C703 C719 1.349 . S
C704 C702 1.327 . S
C704 C723 1.429 . S
C704 H728 0.950 . S
C705 C722 1.574 . S
C705 C724 1.368 . S
C705 H729 0.949 . S
H706 C710 0.949 . S
C707 C708 1.349 . S
C707 C709 1.327 . S
C707 H730 0.950 . S
C708 C707 1.349 . S
C708 C720 1.349 . S
C709 C707 1.327 . S
C709 C725 1.429 . S
C709 H731 0.950 . S
C710 H706 0.949 . S
C710 C718 1.574 . S
C710 C726 1.368 . S
H711 C719 0.950 . S
H712 C717 0.950 . S
H713 C718 0.949 . S
H714 C720 0.950 . S
H715 C721 0.950 . S
H716 C722 0.949 . S
C717 H712 0.950 . S
C717 C719 1.327 . S
C717 C723 1.429 . S
C718 C710 1.574 . S
C718 H713 0.949 . S
C718 C724 1.368 . S
C719 C703 1.349 . S
C719 H711 0.950 . S
C719 C717 1.327 . S
C720 C708 1.349 . S
C720 H714 0.950 . S
C720 C721 1.327 . S
C721 H715 0.950 . S
C721 C720 1.327 . S
C721 C725 1.429 . S
C722 C705 1.574 . S
C722 H716 0.949 . S
C722 C726 1.368 . S
C723 C704 1.429 . S
C723 C717 1.429 . S
C723 C724 1.523 . S
C724 C705 1.368 . S
C724 C718 1.368 . S
C724 C723 1.523 . S
C725 C709 1.429 . S
C725 C721 1.429 . S
C725 C726 1.523 . S
C726 C710 1.368 . S
C726 C722 1.368 . S
C726 C725 1.523 . S
H727 C702 0.950 . S
H728 C704 0.950 . S
H729 C705 0.949 . S
H730 C707 0.950 . S
H731 C709 0.950 . S
C193 C12 3.229 . S
C198 C186 3.214 . S
C223 C52 2.992 . S
C228 C160 2.924 . S
C253 C111 3.034 . S
C258 C172 2.956 . S
C283 C31 2.794 . S
C288 C184 2.678 . S
C318 C162 2.935 . S
C313 C71 2.984 . S
C348 C174 2.886 . S
C343 C92 2.930 . S
C373 C48 0.525 . S
C378 C136 0.529 . S
C403 C109 0.627 . S
C408 C150 0.573 1_655 S
C433 C29 0.286 . S
C438 C126 0.208 . S
C468 C138 0.196 . S
C463 C69 0.258 . S
C498 C148 0.384 . S
C493 C88 0.119 . S
C523 C8 0.335 . S
C528 C124 0.369 . S
C558 C153 1.256 . S
C553 C17 1.226 . S
C583 C57 1.221 . S
C588 C129 1.250 . S
C613 C97 1.253 . S
C618 C141 1.272 . S
C648 C177 1.718 . S
C643 C42 1.690 . S
C678 C189 1.779 . S
C673 C82 1.730 . S
C703 C2 1.705 . S
C708 C165 1.726 . S
