# Generated by pormake.
# Topology pyr, (3,6)-cn, num edge types: 1
# Building blocks:
#     Node 0, Type 0, BuildingBlock: ESEHIV_clean_linker_0, # of connection points: 3
#     Node 1, Type 0, BuildingBlock: ESEHIV_clean_linker_0, # of connection points: 3
#     Node 2, Type 0, BuildingBlock: ESEHIV_clean_linker_0, # of connection points: 3
#     Node 3, Type 0, BuildingBlock: ESEHIV_clean_linker_0, # of connection points: 3
#     Node 4, Type 0, BuildingBlock: ESEHIV_clean_linker_0, # of connection points: 3
#     Node 5, Type 0, BuildingBlock: ESEHIV_clean_linker_0, # of connection points: 3
#     Node 6, Type 0, BuildingBlock: ESEHIV_clean_linker_0, # of connection points: 3
#     Node 7, Type 0, BuildingBlock: ESEHIV_clean_linker_0, # of connection points: 3
#     Node 8, Type 1, BuildingBlock: BETGAK_clean_sbu_0, # of connection points: 6
#     Node 9, Type 1, BuildingBlock: BETGAK_clean_sbu_0, # of connection points: 6
#     Node 10, Type 1, BuildingBlock: BETGAK_clean_sbu_0, # of connection points: 6
#     Node 11, Type 1, BuildingBlock: BETGAK_clean_sbu_0, # of connection points: 6
#     Edge 12, Type (0, 1), BuildingBlock: AJUNOK_clean_linker_0, # of connection points: 2
#     Edge 13, Type (0, 1), BuildingBlock: AJUNOK_clean_linker_0, # of connection points: 2
#     Edge 14, Type (0, 1), BuildingBlock: AJUNOK_clean_linker_0, # of connection points: 2
#     Edge 15, Type (0, 1), BuildingBlock: AJUNOK_clean_linker_0, # of connection points: 2
#     Edge 16, Type (0, 1), BuildingBlock: AJUNOK_clean_linker_0, # of connection points: 2
#     Edge 17, Type (0, 1), BuildingBlock: AJUNOK_clean_linker_0, # of connection points: 2
#     Edge 18, Type (0, 1), BuildingBlock: AJUNOK_clean_linker_0, # of connection points: 2
#     Edge 19, Type (0, 1), BuildingBlock: AJUNOK_clean_linker_0, # of connection points: 2
#     Edge 20, Type (0, 1), BuildingBlock: AJUNOK_clean_linker_0, # of connection points: 2
#     Edge 21, Type (0, 1), BuildingBlock: AJUNOK_clean_linker_0, # of connection points: 2
#     Edge 22, Type (0, 1), BuildingBlock: AJUNOK_clean_linker_0, # of connection points: 2
#     Edge 23, Type (0, 1), BuildingBlock: AJUNOK_clean_linker_0, # of connection points: 2
#     Edge 24, Type (0, 1), BuildingBlock: AJUNOK_clean_linker_0, # of connection points: 2
#     Edge 25, Type (0, 1), BuildingBlock: AJUNOK_clean_linker_0, # of connection points: 2
#     Edge 26, Type (0, 1), BuildingBlock: AJUNOK_clean_linker_0, # of connection points: 2
#     Edge 27, Type (0, 1), BuildingBlock: AJUNOK_clean_linker_0, # of connection points: 2
#     Edge 28, Type (0, 1), BuildingBlock: AJUNOK_clean_linker_0, # of connection points: 2
#     Edge 29, Type (0, 1), BuildingBlock: AJUNOK_clean_linker_0, # of connection points: 2
#     Edge 30, Type (0, 1), BuildingBlock: AJUNOK_clean_linker_0, # of connection points: 2
#     Edge 31, Type (0, 1), BuildingBlock: AJUNOK_clean_linker_0, # of connection points: 2
#     Edge 32, Type (0, 1), BuildingBlock: AJUNOK_clean_linker_0, # of connection points: 2
#     Edge 33, Type (0, 1), BuildingBlock: AJUNOK_clean_linker_0, # of connection points: 2
#     Edge 34, Type (0, 1), BuildingBlock: AJUNOK_clean_linker_0, # of connection points: 2
#     Edge 35, Type (0, 1), BuildingBlock: AJUNOK_clean_linker_0, # of connection points: 2
# Relax obj value: 0.224
# Max RMSD: 0.157
# Mean RMSD: 0.075
data_MOF--net-pyr--node1-BETGAK_clean_sbu_0--node2-ESEHIV_clean_linker_0--edge1-AJUNOK_clean_linker_0
_symmetry_space_group_name_H-M    P1
_symmetry_Int_Tables_number       1
_symmetry_cell_setting            triclinic
loop_
_symmetry_equiv_pos_as_xyz
'x, y, z'
_cell_length_a     25.833647
_cell_length_b     27.237733
_cell_length_c     23.82907
_cell_angle_alpha  90.251632
_cell_angle_beta   88.326922
_cell_angle_gamma 105.70907
loop_
_atom_site_label
_atom_site_type_symbol
_atom_site_fract_x
_atom_site_fract_y
_atom_site_fract_z
_atom_type_partial_charge
H0 H 0.38572 0.40958 0.34496 0.0
H1 H 0.50292 0.32443 0.36009 0.0
H2 H 0.43576 0.33962 0.20063 0.0
C3 C 0.41442 0.39139 0.32622 0.0
C4 C 0.41135 0.38179 0.26848 0.0
C5 C 0.44561 0.36931 0.36055 0.0
C6 C 0.47953 0.34282 0.3345 0.0
C7 C 0.47529 0.33112 0.27717 0.0
C8 C 0.44174 0.35128 0.24407 0.0
H9 H 0.12636 0.89572 0.83245 0.0
H10 H 0.19614 0.76925 0.82629 0.0
H11 H 0.19388 0.85552 0.67834 0.0
C12 C 0.14233 0.86903 0.80853 0.0
C13 C 0.1514 0.87645 0.75015 0.0
C14 C 0.16082 0.83195 0.83689 0.0
C15 C 0.18111 0.79748 0.80496 0.0
C16 C 0.1946 0.80727 0.74811 0.0
C17 C 0.1789 0.84588 0.72094 0.0
H18 H 0.7274 0.37311 1.00731 0.0
H19 H 0.74651 0.5037 0.90031 0.0
H20 H 0.60906 0.37303 0.88366 0.0
C21 C 0.71305 0.39185 0.97348 0.0
C22 C 0.66514 0.36582 0.94714 0.0
C23 C 0.74317 0.44132 0.95708 0.0
C24 C 0.72323 0.46608 0.9138 0.0
C25 C 0.6747 0.44212 0.88645 0.0
C26 C 0.64649 0.39158 0.9034 0.0
H27 H 0.85811 0.79108 0.50536 0.0
H28 H 0.98623 0.79108 0.38658 0.0
H29 H 0.83803 0.66958 0.38587 0.0
C30 C 0.87347 0.77336 0.47023 0.0
C31 C 0.84223 0.72625 0.45018 0.0
C32 C 0.92485 0.79789 0.44735 0.0
C33 C 0.94574 0.77363 0.40224 0.0
C34 C 0.91539 0.72586 0.37983 0.0
C35 C 0.86312 0.70402 0.40389 0.0
H36 H 0.60171 0.84272 0.85697 0.0
H37 H 0.71326 0.75492 0.89066 0.0
H38 H 0.65117 0.82771 1.02496 0.0
C39 C 0.62145 0.82388 0.88625 0.0
C40 C 0.61918 0.8354 0.94361 0.0
C41 C 0.65752 0.79694 0.86576 0.0
C42 C 0.68341 0.77383 0.90487 0.0
C43 C 0.68077 0.78406 0.96231 0.0
C44 C 0.6491 0.81546 0.98152 0.0
H45 H 0.8684 0.37668 0.426 0.0
H46 H 0.91917 0.23983 0.41683 0.0
H47 H 0.90704 0.31173 0.5766 0.0
C48 C 0.88536 0.34926 0.44635 0.0
C49 C 0.88388 0.34637 0.5049 0.0
C50 C 0.89762 0.31057 0.41434 0.0
C51 C 0.91411 0.2719 0.44134 0.0
C52 C 0.91779 0.27142 0.50017 0.0
C53 C 0.90558 0.31107 0.53128 0.0
H54 H 0.36453 0.79981 0.2159 0.0
H55 H 0.34927 0.673 0.3277 0.0
H56 H 0.48666 0.80484 0.33663 0.0
C57 C 0.38011 0.78236 0.24996 0.0
C58 C 0.42891 0.8092 0.27377 0.0
C59 C 0.35051 0.73375 0.26915 0.0
C60 C 0.37174 0.7104 0.31265 0.0
C61 C 0.42061 0.73575 0.33847 0.0
C62 C 0.44867 0.78543 0.31847 0.0
H63 H 0.12022 0.38642 0.85399 0.0
H64 H 0.24406 0.38912 0.72792 0.0
H65 H 0.25698 0.5191 0.83379 0.0
C66 C 0.15823 0.40585 0.83368 0.0
C67 C 0.18506 0.45686 0.85 0.0
C68 C 0.17908 0.38083 0.78912 0.0
C69 C 0.22753 0.40771 0.76158 0.0
C70 C 0.25563 0.45769 0.77649 0.0
C71 C 0.23466 0.48118 0.82154 0.0
La72 La 0.08631 0.11003 0.57378 0.0
La73 La 1.02774 1.06005 0.67769 0.0
C74 C 0.13054 0.17591 0.5014 0.0
C75 C 0.18125 0.21602 0.50528 0.0
C76 C 0.21872 0.21204 0.54542 0.0
C77 C 0.26908 0.24756 0.54622 0.0
C78 C 0.2822 0.28805 0.50758 0.0
C79 C 0.24292 0.29419 0.47052 0.0
C80 C 0.19276 0.25824 0.46927 0.0
C81 C 0.13933 1.06006 0.6347 0.0
C82 C 0.09183 0.17445 0.69026 0.0
C83 C 0.98647 0.99293 0.74951 0.0
C84 C 0.93792 0.95062 0.74239 0.0
C85 C 0.90323 0.95287 0.69867 0.0
C86 C 0.85342 0.91686 0.69545 0.0
C87 C 0.83784 0.87771 0.7355 0.0
C88 C 0.87463 0.87292 0.77623 0.0
C89 C 0.92442 0.90934 0.77977 0.0
C90 C 0.97267 0.10734 0.61705 0.0
C91 C 1.01824 0.99686 0.55964 0.0
O92 O 0.13502 0.12917 0.50083 0.0
O93 O 0.09237 0.18103 0.53612 0.0
O94 O 0.14496 1.06593 0.58094 0.0
O95 O 0.10953 0.08662 0.65235 0.0
O96 O 0.09546 0.1736 0.63453 0.0
O97 O 0.07311 0.13105 0.71882 0.0
O98 O 0.97819 1.03829 0.74959 0.0
O99 O 1.02773 0.99116 0.71729 0.0
O100 O 0.96708 0.10181 0.6709 0.0
O101 O 1.00423 1.08279 0.59883 0.0
O102 O 1.01525 0.99726 0.61544 0.0
O103 O 0.03807 1.04052 0.5317 0.0
H104 H 0.20989 0.18016 0.57448 0.0
H105 H 0.2989 0.24174 0.5746 0.0
H106 H 0.2525 0.3245 0.43947 0.0
H107 H 0.16391 0.26228 0.43873 0.0
H108 H 0.91342 0.98414 0.6688 0.0
H109 H 0.82555 0.92163 0.66416 0.0
H110 H 0.86304 0.84354 0.80824 0.0
H111 H 0.95101 0.90672 0.81327 0.0
La112 La 0.59617 0.0924 0.12191 0.0
La113 La 0.49079 1.07678 1.08381 0.0
C114 C 0.69708 0.11161 0.12677 0.0
C115 C 0.7407 0.15447 0.14503 0.0
C116 C 0.78439 0.14418 0.17121 0.0
C117 C 0.82003 0.18247 0.20063 0.0
C118 C 0.81224 0.23149 0.20415 0.0
C119 C 0.77211 0.24312 0.17233 0.0
C120 C 0.73596 0.20457 0.14346 0.0
C121 C 0.52635 1.01568 0.17755 0.0
C122 C 0.52983 0.15426 0.18418 0.0
C123 C 0.38987 1.05843 1.0775 0.0
C124 C 0.3439 1.01458 1.06688 0.0
C125 C 0.29812 1.02304 1.0432 0.0
C126 C 0.25716 0.98206 1.0246 0.0
C127 C 0.2613 0.93184 1.02964 0.0
C128 C 0.3053 0.92334 1.05779 0.0
C129 C 0.34658 0.96447 1.07591 0.0
C130 C 0.56155 0.1555 1.03083 0.0
C131 C 0.55693 1.01297 1.02424 0.0
O132 O 0.66367 0.0888 0.16676 0.0
O133 O 0.6721 0.11896 1.08201 0.0
O134 O 0.56589 1.04924 0.1995 0.0
O135 O 0.52755 1.02551 0.12561 0.0
O136 O 0.5795 0.1556 0.16837 0.0
O137 O 0.48928 0.12059 0.16136 0.0
O138 O 0.42352 1.07364 1.03506 0.0
O139 O 0.41473 1.05754 0.12427 0.0
O140 O 0.52238 0.12262 1.00744 0.0
O141 O 0.55889 0.14386 1.08213 0.0
O142 O 0.50745 1.01164 1.04074 0.0
O143 O 0.59724 1.04849 1.0446 0.0
H144 H 0.78858 0.10567 0.17253 0.0
H145 H 0.85045 0.17239 0.22496 0.0
H146 H 0.76588 0.28088 0.17379 0.0
H147 H 0.70244 0.2132 0.12316 0.0
H148 H 0.29549 1.06156 1.03606 0.0
H149 H 0.22467 0.99018 1.00194 0.0
H150 H 0.30961 0.88507 1.06214 0.0
H151 H 0.38169 0.95725 1.09433 0.0
La152 La 0.54079 0.54484 0.57898 0.0
La153 La 0.55614 0.63471 0.64596 0.0
C154 C 0.56304 0.47197 0.52735 0.0
C155 C 0.60575 0.44749 0.53855 0.0
C156 C 0.60886 0.40337 0.50996 0.0
C157 C 0.65342 0.38424 0.51681 0.0
C158 C 0.69486 0.40901 0.55263 0.0
C159 C 0.69031 0.45173 0.58281 0.0
C160 C 0.64639 0.47088 0.57549 0.0
C161 C 0.45127 0.54657 0.63589 0.0
C162 C 0.59351 0.54798 0.70257 0.0
C163 C 0.53525 0.70628 0.70085 0.0
C164 C 0.4866 0.72357 0.699 0.0
C165 C 0.48154 0.7656 0.73025 0.0
C166 C 0.43306 0.77906 0.73068 0.0
C167 C 0.38961 0.75105 0.69907 0.0
C168 C 0.39593 0.7102 0.66624 0.0
C169 C 0.4434 0.69575 0.66752 0.0
C170 C 0.6456 0.63338 0.58718 0.0
C171 C 0.50164 0.63159 0.52396 0.0
O172 O 0.52473 0.46566 0.56583 0.0
O173 O 0.58062 0.5196 0.51162 0.0
O174 O 0.45321 0.52927 0.58514 0.0
O175 O 0.49906 0.56101 0.65314 0.0
O176 O 0.58013 0.52409 0.65432 0.0
O177 O 0.58651 0.59371 0.71014 0.0
O178 O 0.56508 0.71342 0.65481 0.0
O179 O 0.52692 0.66002 0.72032 0.0
O180 O 0.64398 0.65283 0.6368 0.0
O181 O 0.59743 0.61866 0.5715 0.0
O182 O 0.51099 0.653 0.57415 0.0
O183 O 0.51249 0.58754 0.51409 0.0
H184 H 0.57811 0.38499 0.48093 0.0
H185 H 0.6567 0.35162 0.49222 0.0
H186 H 0.72192 0.47167 0.61016 0.0
H187 H 0.64642 0.50603 0.59616 0.0
H188 H 0.51435 0.78702 0.75532 0.0
H189 H 0.42912 0.81053 0.75686 0.0
H190 H 0.36395 0.68876 0.64026 0.0
H191 H 0.44562 0.66191 0.64496 0.0
La192 La 0.04428 0.54287 0.14656 0.0
La193 La 0.04836 0.63248 1.08342 0.0
C194 C 0.06695 0.46598 0.18759 0.0
C195 C 0.11792 0.45184 0.19128 0.0
C196 C 0.12189 0.4136 0.2287 0.0
C197 C 0.17059 0.40088 0.23336 0.0
C198 C 0.21617 0.42637 0.20075 0.0
C199 C 0.21201 0.46459 0.16315 0.0
C200 C 0.16317 0.47693 0.15812 0.0
C201 C 0.9927 0.60411 0.20078 0.0
C202 C 0.14771 0.63741 0.15537 0.0
C203 C 1.02624 0.70871 1.04031 0.0
C204 C 0.9756 0.72363 1.04039 0.0
C205 C 0.96764 0.75773 0.99988 0.0
C206 C 0.9182 0.76936 0.99767 0.0
C207 C 0.87581 0.7467 1.0357 0.0
C208 C 0.88443 0.71354 1.07718 0.0
C209 C 0.93394 0.70213 1.07954 0.0
C210 C 0.10209 0.57267 1.03037 0.0
C211 C 0.94422 0.53819 1.07565 0.0
O212 O 0.06325 0.50543 0.21711 0.0
O213 O 0.04955 0.46771 0.13701 0.0
O214 O 0.97795 0.55458 0.20117 0.0
O215 O 1.03618 0.61732 0.17182 0.0
O216 O 0.12896 0.58721 0.15578 0.0
O217 O 0.11956 0.6654 0.13226 0.0
O218 O 1.02615 0.66727 1.0126 0.0
O219 O 0.0479 0.70927 1.08908 0.0
O220 O 0.11607 0.6221 1.03117 0.0
O221 O 0.05774 0.55848 1.05792 0.0
O222 O 0.96315 0.58844 1.07534 0.0
O223 O 0.97223 0.51018 1.09892 0.0
H224 H 0.08748 0.39392 0.25471 0.0
H225 H 0.17298 0.37195 0.26346 0.0
H226 H 0.24653 0.48485 0.13765 0.0
H227 H 0.16087 0.50623 0.12849 0.0
H228 H 0.99923 0.7745 0.96926 0.0
H229 H 0.91248 0.79477 0.965 0.0
H230 H 0.85271 0.69603 1.10737 0.0
H231 H 0.9394 0.67588 0.11141 0.0
C232 C 0.41592 0.30643 0.43819 0.0
C233 C 0.42695 0.35766 0.42023 0.0
C234 C 0.37262 0.28544 0.47499 0.0
C235 C 0.33909 0.31489 0.4949 0.0
H236 H 0.43487 0.27998 0.41772 0.0
H237 H 0.36105 0.24447 0.48123 0.0
S238 S 0.36643 0.45503 0.48237 0.0
N239 N 0.41392 0.44091 0.44267 0.0
N240 N 0.32963 0.40037 0.50914 0.0
C241 C 0.35622 0.36785 0.48677 0.0
C242 C 0.40151 0.38962 0.45055 0.0
C243 C 0.23058 0.84152 0.90909 0.0
C244 C 0.17747 0.84124 0.89632 0.0
C245 C 0.25524 0.8659 0.95667 0.0
C246 C 0.22823 0.8916 0.99346 0.0
H247 H 0.25585 0.82767 0.87944 0.0
H248 H 0.29768 0.86919 0.961 0.0
S249 S 0.08427 0.88951 0.98871 0.0
N250 N 0.09498 0.85885 0.93142 0.0
N251 N 0.14218 0.90607 1.02099 0.0
C252 C 0.17319 0.88618 0.98541 0.0
C253 C 0.14767 0.86072 0.93684 0.0
C254 C 0.63477 0.44499 0.78941 0.0
C255 C 0.65392 0.4698 0.84003 0.0
C256 C 0.61627 0.47038 0.74539 0.0
C257 C 0.61515 0.52196 0.74959 0.0
H258 H 0.63472 0.40556 0.78328 0.0
H259 H 0.60236 0.44903 0.70775 0.0
S260 S 0.6589 0.60453 0.87365 0.0
N261 N 0.66902 0.54944 0.89152 0.0
N262 N 0.63477 0.59648 0.80993 0.0
C263 C 0.63388 0.5471 0.80012 0.0
C264 C 0.65303 0.52138 0.84473 0.0
C265 C 0.92209 0.64243 0.33292 0.0
C266 C 0.93736 0.6966 0.33338 0.0
C267 C 0.93944 0.61362 0.29015 0.0
C268 C 0.97433 0.63676 0.24533 0.0
H269 H 0.89657 0.62141 0.36648 0.0
H270 H 0.9257 0.57243 0.29284 0.0
S271 S 1.02766 0.77675 0.22442 0.0
N272 N 0.98961 0.77174 0.28217 0.0
N273 N 1.02425 0.71781 0.20469 0.0
C274 C 0.99092 0.69068 0.24536 0.0
C275 C 0.97227 0.7203 0.2884 0.0
C276 C 0.54367 0.28865 0.23801 0.0
C277 C 0.49103 0.28573 0.25713 0.0
C278 C 0.55715 0.24499 0.21762 0.0
C279 C 0.51833 0.19725 0.21591 0.0
H280 H 0.57408 0.32494 0.2376 0.0
H281 H 0.59758 0.24922 0.20093 0.0
S282 S 0.37651 0.16964 0.26829 0.0
N283 N 0.4014 0.23149 0.27806 0.0
N284 N 0.4263 0.14955 0.24033 0.0
C285 C 0.46631 0.19384 0.2379 0.0
C286 C 0.45276 0.23809 0.25831 0.0
C287 C 0.15337 0.96949 0.74918 0.0
C288 C 0.14287 0.92207 0.72134 0.0
C289 C 0.1523 1.01411 0.72076 0.0
C290 C 0.14291 1.01338 0.6631 0.0
H291 H 0.16419 0.97287 0.79282 0.0
H292 H 0.15988 1.04962 0.74381 0.0
S293 S 0.11196 0.89995 0.57042 0.0
N294 N 0.11808 0.87725 0.63318 0.0
N295 N 0.12307 0.96206 0.57867 0.0
C296 C 0.13272 0.9667 0.63449 0.0
C297 C 0.1308 0.92085 0.66392 0.0
C298 C 0.80804 0.51776 1.00335 0.0
C299 C 0.79551 0.46636 0.98569 0.0
C300 C 0.85552 0.54056 1.03266 0.0
C301 C 0.89269 0.51302 1.04628 0.0
H302 H 0.78049 0.54045 0.99526 0.0
H303 H 0.86289 0.5801 1.04512 0.0
S304 S 0.88239 0.37908 1.00454 0.0
N305 N 0.82757 0.3903 0.9801 0.0
N306 N 0.91472 0.43209 1.0361 0.0
C307 C 0.88109 0.46195 1.02794 0.0
C308 C 0.83329 0.43902 0.99755 0.0
C309 C 0.75599 0.72978 0.50336 0.0
C310 C 0.78881 0.70041 0.47982 0.0
C311 C 0.70953 0.7077 0.53682 0.0
C312 C 0.69245 0.6549 0.54748 0.0
H313 H 0.7665 0.7706 0.49659 0.0
H314 H 0.68697 0.73239 0.55498 0.0
S315 S 0.76048 0.55963 0.49444 0.0
N316 N 0.79888 0.61442 0.47002 0.0
N317 N 0.71034 0.57349 0.52968 0.0
C318 C 0.72305 0.62472 0.52252 0.0
C319 C 0.7712 0.64719 0.48944 0.0
C320 C 0.36207 0.44388 0.2375 0.0
C321 C 0.36646 0.39353 0.23868 0.0
C322 C 0.31416 0.45449 0.22211 0.0
C323 C 0.26861 0.41498 0.20847 0.0
H324 H 0.39509 0.47498 0.2512 0.0
H325 H 0.31179 0.49358 0.22397 0.0
S326 S 0.26047 0.27707 0.20166 0.0
N327 N 0.32221 0.30415 0.22198 0.0
N328 N 0.23218 0.32404 0.19319 0.0
C329 C 0.27332 0.36477 0.20697 0.0
C330 C 0.32226 0.35405 0.22198 0.0
C331 C 0.63261 0.29926 1.02474 0.0
C332 C 0.63569 0.312 0.96692 0.0
C333 C 0.60951 0.24903 1.04458 0.0
C334 C 0.58728 0.2085 1.00795 0.0
H335 H 0.64823 0.32853 1.05547 0.0
H336 H 0.60868 0.2421 1.08935 0.0
S337 S 0.58504 0.21942 0.85276 0.0
N338 N 0.61489 0.27803 0.87321 0.0
N339 N 0.57011 0.18462 0.9106 0.0
C340 C 0.58934 0.22042 0.95019 0.0
C341 C 0.61355 0.27164 0.92977 0.0
C342 C 0.97422 0.89375 0.44361 0.0
C343 C 0.9557 0.84767 0.47432 0.0
C344 C 0.99485 0.94159 0.4707 0.0
C345 C 0.99765 0.94582 0.52989 0.0
H346 H 0.97097 0.89312 0.39839 0.0
H347 H 1.00767 0.97564 0.44498 0.0
S348 S 0.959 0.83576 0.62946 0.0
N349 N 0.946 0.80947 0.56714 0.0
N350 N 0.98239 0.8975 0.61754 0.0
C351 C 0.98057 0.89951 0.56064 0.0
C352 C 0.96048 0.85122 0.53314 0.0
C353 C 0.28876 0.8281 0.71268 0.0
C354 C 0.24017 0.79068 0.72409 0.0
C355 C 0.33643 0.81469 0.70187 0.0
C356 C 0.33732 0.7634 0.70249 0.0
H357 H 0.29059 0.86827 0.71527 0.0
H358 H 0.3732 0.84484 0.69489 0.0
S359 S 0.21891 0.65092 0.72165 0.0
N360 N 0.19407 0.70052 0.72897 0.0
N361 N 0.28421 0.67461 0.70994 0.0
C362 C 0.28824 0.72539 0.71027 0.0
C363 C 0.23953 0.73924 0.72102 0.0
C364 C 0.69857 0.86104 0.79197 0.0
C365 C 0.68411 0.80942 0.80901 0.0
C366 C 0.74587 0.8817 0.76052 0.0
C367 C 0.78021 0.85159 0.74501 0.0
H368 H 0.67817 0.88772 0.80941 0.0
H369 H 0.75884 0.92271 0.75473 0.0
S370 S 0.74862 0.71109 0.75682 0.0
N371 N 0.69778 0.72578 0.79004 0.0
N372 N 0.7892 0.76564 0.73397 0.0
C373 C 0.76139 0.79863 0.75237 0.0
C374 C 0.71215 0.77722 0.78299 0.0
C375 C 0.91266 0.29118 0.3134 0.0
C376 C 0.87908 0.30246 0.35612 0.0
C377 C 0.89194 0.27276 0.26135 0.0
C378 C 0.837 0.26493 0.25065 0.0
H379 H 0.95445 0.29403 0.32137 0.0
H380 H 0.91822 0.26151 0.23059 0.0
S381 S 0.73272 0.29012 0.3485 0.0
N382 N 0.78873 0.30612 0.3838 0.0
N383 N 0.75002 0.2719 0.28627 0.0
C384 C 0.80383 0.27914 0.2919 0.0
C385 C 0.8248 0.29769 0.34471 0.0
C386 C 0.44429 0.65891 0.38208 0.0
C387 C 0.44164 0.71003 0.38634 0.0
C388 C 0.46333 0.63408 0.42618 0.0
C389 C 0.48001 0.65855 0.47766 0.0
H390 H 0.43211 0.6379 0.34381 0.0
H391 H 0.46483 0.5951 0.41971 0.0
S392 S 0.47822 0.79157 0.51236 0.0
N393 N 0.45593 0.78347 0.4478 0.0
N394 N 0.49067 0.73743 0.53003 0.0
C395 C 0.47665 0.70947 0.48278 0.0
C396 C 0.45793 0.73491 0.43756 0.0
C397 C 0.13497 0.4618 0.94495 0.0
C398 C 0.16142 0.48584 0.89522 0.0
C399 C 0.11523 0.48922 0.98805 0.0
C400 C 0.12134 0.54232 0.98414 0.0
H401 H 0.13031 0.42149 0.95131 0.0
H402 H 0.09597 0.46874 1.02524 0.0
S403 S 0.18118 0.62325 0.8611 0.0
N404 N 0.18664 0.56616 0.84358 0.0
N405 N 0.15279 0.61684 0.92439 0.0
C406 C 0.14647 0.56644 0.93436 0.0
C407 C 0.16552 0.53863 0.89024 0.0
C408 C 0.63892 0.92664 0.96852 0.0
C409 C 0.6003 0.88006 0.96044 0.0
C410 C 0.6239 0.97012 0.98542 0.0
C411 C 0.56951 0.96877 0.99564 0.0
H412 H 0.68134 0.9293 0.96234 0.0
H413 H 0.65565 1.00463 0.99242 0.0
S414 S 0.45254 0.85625 0.97549 0.0
N415 N 0.50543 0.83525 0.95933 0.0
N416 N 0.47651 0.91689 0.99257 0.0
C417 C 0.53017 0.92265 0.98527 0.0
C418 C 0.54574 0.87828 0.96738 0.0
C419 C 0.96302 0.20065 0.50419 0.0
C420 C 0.92767 0.22642 0.52898 0.0
C421 C 0.9737 0.15891 0.53079 0.0
C422 C 0.9526 0.14378 0.58476 0.0
H423 H 0.98341 0.21314 0.46433 0.0
H424 H 1.00001 0.13945 0.50966 0.0
S425 S 0.84775 0.18861 0.66216 0.0
N426 N 0.86177 0.22458 0.60528 0.0
N427 N 0.88779 0.15069 0.65801 0.0
C428 C 0.91458 0.16644 0.60852 0.0
C429 C 0.90113 0.207 0.58019 0.0
C430 C 0.28462 0.65726 0.22498 0.0
C431 C 0.29724 0.70846 0.24298 0.0
C432 C 0.23667 0.63467 0.19652 0.0
C433 C 0.19926 0.66233 0.1843 0.0
H434 H 0.31254 0.63469 0.23187 0.0
H435 H 0.22921 0.59529 0.18345 0.0
S436 S 0.2098 0.79573 0.22802 0.0
N437 N 0.26523 0.78446 0.25079 0.0
N438 N 0.17689 0.74291 0.19648 0.0
C439 C 0.21084 0.71313 0.2033 0.0
C440 C 0.25915 0.73585 0.23277 0.0
C441 C 0.30539 0.48267 0.68312 0.0
C442 C 0.30557 0.48515 0.74236 0.0
C443 C 0.3519 0.50417 0.6496 0.0
C444 C 0.40146 0.52926 0.67328 0.0
H445 H 0.26883 0.46336 0.6622 0.0
H446 H 0.34909 0.50007 0.60449 0.0
S447 S 0.42431 0.54845 0.82597 0.0
N448 N 0.36018 0.51655 0.82305 0.0
N449 N 0.44716 0.55686 0.76025 0.0
C450 C 0.40207 0.53352 0.73235 0.0
C451 C 0.35444 0.51165 0.76667 0.0
C452 C 0.76875 0.81458 1.00793 0.0
C453 C 0.7234 0.77395 0.99702 0.0
C454 C 0.81731 0.80555 1.02352 0.0
C455 C 0.82201 0.75556 1.02932 0.0
H456 H 0.76793 0.85352 1.00005 0.0
H457 H 0.85212 0.83784 1.02856 0.0
S458 S 0.71312 0.63629 1.01154 0.0
N459 N 0.6848 0.68226 0.99731 0.0
N460 N 0.77579 0.66504 1.02753 0.0
C461 C 0.77579 0.71472 1.02255 0.0
C462 C 0.72654 0.72397 1.00609 0.0
C463 C 0.45888 0.8717 0.19207 0.0
C464 C 0.45745 0.86195 0.25058 0.0
C465 C 0.48015 0.92108 0.16913 0.0
C466 C 0.502 0.96361 0.20324 0.0
H467 H 0.44317 0.84072 0.1633 0.0
H468 H 0.47988 0.92577 0.12403 0.0
S469 S 0.50831 0.96055 0.35876 0.0
N470 N 0.47959 0.90066 0.34194 0.0
N471 N 0.52086 0.99257 0.29892 0.0
C472 C 0.50167 0.95462 0.26161 0.0
C473 C 0.4794 0.90427 0.28513 0.0
C474 C 0.14612 0.31985 0.70886 0.0
C475 C 0.15075 0.32787 0.76733 0.0
C476 C 0.12672 0.27083 0.68548 0.0
C477 C 0.11043 0.22619 0.71889 0.0
H478 H 0.15852 0.35204 0.68034 0.0
H479 H 0.12517 0.26819 0.64017 0.0
S480 S 0.11209 0.22508 0.87491 0.0
N481 N 0.13566 0.28614 0.8585 0.0
N482 N 0.09876 0.19423 0.81487 0.0
C483 C 0.11325 0.23352 0.77771 0.0
C484 C 0.13324 0.28397 0.80169 0.0
C485 C 0.84187 0.41576 0.53075 0.0
C486 C 0.84149 0.3643 0.53422 0.0
C487 C 0.7946 0.43051 0.54079 0.0
C488 C 0.74552 0.39407 0.55362 0.0
H489 H 0.87787 0.44408 0.51626 0.0
H490 H 0.79577 0.47011 0.53458 0.0
S491 S 0.72453 0.25543 0.57352 0.0
N492 N 0.78886 0.27745 0.55572 0.0
N493 N 0.70043 0.3057 0.5754 0.0
C494 C 0.7455 0.34323 0.56135 0.0
C495 C 0.7935 0.32821 0.55152 0.0
loop_
_geom_bond_atom_site_label_1
_geom_bond_atom_site_label_2
_geom_bond_distance
_geom_bond_site_symmetry_2
_ccdc_geom_bond_type
H0 C3 0.931 . S
H1 C6 0.928 . S
H2 C8 0.930 . S
C3 H0 0.931 . S
C3 C4 1.413 . S
C3 C5 1.360 . S
C4 C3 1.413 . S
C4 C8 1.429 . S
C5 C3 1.360 . S
C5 C6 1.372 . S
C6 H1 0.928 . S
C6 C5 1.372 . S
C6 C7 1.404 . S
C7 C6 1.404 . S
C7 C8 1.391 . S
C8 H2 0.930 . S
C8 C4 1.429 . S
C8 C7 1.391 . S
H9 C12 0.931 . S
H10 C15 0.928 . S
H11 C17 0.930 . S
C12 H9 0.931 . S
C12 C13 1.413 . S
C12 C14 1.360 . S
C13 C12 1.413 . S
C13 C17 1.429 . S
C14 C12 1.360 . S
C14 C15 1.372 . S
C15 H10 0.928 . S
C15 C14 1.372 . S
C15 C16 1.404 . S
C16 C15 1.404 . S
C16 C17 1.391 . S
C17 H11 0.930 . S
C17 C13 1.429 . S
C17 C16 1.391 . S
H18 C21 0.931 . S
H19 C24 0.928 . S
H20 C26 0.930 . S
C21 H18 0.931 . S
C21 C22 1.413 . S
C21 C23 1.360 . S
C22 C21 1.413 . S
C22 C26 1.429 . S
C23 C21 1.360 . S
C23 C24 1.372 . S
C24 H19 0.928 . S
C24 C23 1.372 . S
C24 C25 1.404 . S
C25 C24 1.404 . S
C25 C26 1.391 . S
C26 H20 0.930 . S
C26 C22 1.429 . S
C26 C25 1.391 . S
H27 C30 0.931 . S
H28 C33 0.928 . S
H29 C35 0.930 . S
C30 H27 0.931 . S
C30 C31 1.413 . S
C30 C32 1.360 . S
C31 C30 1.413 . S
C31 C35 1.429 . S
C32 C30 1.360 . S
C32 C33 1.372 . S
C33 H28 0.928 . S
C33 C32 1.372 . S
C33 C34 1.404 . S
C34 C33 1.404 . S
C34 C35 1.391 . S
C35 H29 0.930 . S
C35 C31 1.429 . S
C35 C34 1.391 . S
H36 C39 0.931 . S
H37 C42 0.928 . S
H38 C44 0.930 . S
C39 H36 0.931 . S
C39 C40 1.413 . S
C39 C41 1.360 . S
C40 C39 1.413 . S
C40 C44 1.429 . S
C41 C39 1.360 . S
C41 C42 1.372 . S
C42 H37 0.928 . S
C42 C41 1.372 . S
C42 C43 1.404 . S
C43 C42 1.404 . S
C43 C44 1.391 . S
C44 H38 0.930 . S
C44 C40 1.429 . S
C44 C43 1.391 . S
H45 C48 0.931 . S
H46 C51 0.928 . S
H47 C53 0.930 . S
C48 H45 0.931 . S
C48 C49 1.413 . S
C48 C50 1.360 . S
C49 C48 1.413 . S
C49 C53 1.429 . S
C50 C48 1.360 . S
C50 C51 1.372 . S
C51 H46 0.928 . S
C51 C50 1.372 . S
C51 C52 1.404 . S
C52 C51 1.404 . S
C52 C53 1.391 . S
C53 H47 0.930 . S
C53 C49 1.429 . S
C53 C52 1.391 . S
H54 C57 0.931 . S
H55 C60 0.928 . S
H56 C62 0.930 . S
C57 H54 0.931 . S
C57 C58 1.413 . S
C57 C59 1.360 . S
C58 C57 1.413 . S
C58 C62 1.429 . S
C59 C57 1.360 . S
C59 C60 1.372 . S
C60 H55 0.928 . S
C60 C59 1.372 . S
C60 C61 1.404 . S
C61 C60 1.404 . S
C61 C62 1.391 . S
C62 H56 0.930 . S
C62 C58 1.429 . S
C62 C61 1.391 . S
H63 C66 0.931 . S
H64 C69 0.928 . S
H65 C71 0.930 . S
C66 H63 0.931 . S
C66 C67 1.413 . S
C66 C68 1.360 . S
C67 C66 1.413 . S
C67 C71 1.429 . S
C68 C66 1.360 . S
C68 C69 1.372 . S
C69 H64 0.928 . S
C69 C68 1.372 . S
C69 C70 1.404 . S
C70 C69 1.404 . S
C70 C71 1.391 . S
C71 H65 0.930 . S
C71 C67 1.429 . S
C71 C70 1.391 . S
La72 C74 2.928 . S
La72 O92 2.521 . S
La72 O93 2.628 . S
La72 O94 2.554 1_545 S
La72 O95 2.757 1_545 S
La72 O96 2.470 . S
La72 O101 2.482 1_455 S
La72 O103 2.503 1_445 S
La73 C83 2.928 . S
La73 O95 2.482 1_655 S
La73 O97 2.503 1_665 S
La73 O98 2.521 . S
La73 O99 2.628 . S
La73 O100 2.554 1_565 S
La73 O101 2.757 1_565 S
La73 O102 2.470 . S
C74 La72 2.928 . S
C74 C75 1.503 . S
C74 O92 1.261 . S
C74 O93 1.243 . S
C75 C74 1.503 . S
C75 C76 1.394 . S
C75 C80 1.373 . S
C76 C75 1.394 . S
C76 C77 1.380 . S
C76 H104 0.930 . S
C77 C76 1.380 . S
C77 C78 1.376 . S
C77 H105 0.930 . S
C78 C77 1.376 . S
C78 C79 1.370 . S
C79 C78 1.370 . S
C79 C80 1.396 . S
C79 H106 0.929 . S
C80 C75 1.373 . S
C80 C79 1.396 . S
C80 H107 0.929 . S
C81 O94 1.240 . S
C81 O95 1.289 . S
C82 O96 1.258 . S
C82 O97 1.256 . S
C83 La73 2.928 . S
C83 C84 1.503 . S
C83 O98 1.261 . S
C83 O99 1.243 . S
C84 C83 1.503 . S
C84 C85 1.394 . S
C84 C89 1.373 . S
C85 C84 1.394 . S
C85 C86 1.380 . S
C85 H108 0.930 . S
C86 C85 1.380 . S
C86 C87 1.376 . S
C86 H109 0.930 . S
C87 C86 1.376 . S
C87 C88 1.370 . S
C88 C87 1.370 . S
C88 C89 1.396 . S
C88 H110 0.929 . S
C89 C84 1.373 . S
C89 C88 1.396 . S
C89 H111 0.929 . S
C90 O100 1.240 . S
C90 O101 1.289 . S
C91 O102 1.258 . S
C91 O103 1.256 . S
O92 La72 2.521 . S
O92 C74 1.261 . S
O93 La72 2.628 . S
O93 C74 1.243 . S
O94 La72 2.554 1_565 S
O94 C81 1.240 . S
O95 La72 2.757 1_565 S
O95 La73 2.482 1_455 S
O95 C81 1.289 . S
O96 La72 2.470 . S
O96 C82 1.258 . S
O97 La73 2.503 1_445 S
O97 C82 1.256 . S
O98 La73 2.521 . S
O98 C83 1.261 . S
O99 La73 2.628 . S
O99 C83 1.243 . S
O100 La73 2.554 1_545 S
O100 C90 1.240 . S
O101 La72 2.482 1_655 S
O101 La73 2.757 1_545 S
O101 C90 1.289 . S
O102 La73 2.470 . S
O102 C91 1.258 . S
O103 La72 2.503 1_665 S
O103 C91 1.256 . S
H104 C76 0.930 . S
H105 C77 0.930 . S
H106 C79 0.929 . S
H107 C80 0.929 . S
H108 C85 0.930 . S
H109 C86 0.930 . S
H110 C88 0.929 . S
H111 C89 0.929 . S
La112 C114 2.928 1_565 S
La112 O132 2.521 1_565 S
La112 O133 2.628 1_565 S
La112 O134 2.554 . S
La112 O135 2.757 . S
La112 O136 2.470 1_565 S
La112 O141 2.482 1_564 S
La112 O143 2.503 1_554 S
La113 C123 2.928 1_545 S
La113 O135 2.482 1_546 S
La113 O137 2.503 1_556 S
La113 O138 2.521 1_545 S
La113 O139 2.628 1_545 S
La113 O140 2.554 . S
La113 O141 2.757 . S
La113 O142 2.470 1_545 S
C114 La112 2.928 1_545 S
C114 C115 1.503 . S
C114 O132 1.261 . S
C114 O133 1.243 . S
C115 C114 1.503 . S
C115 C116 1.394 . S
C115 C120 1.373 . S
C116 C115 1.394 . S
C116 C117 1.380 . S
C116 H144 0.930 . S
C117 C116 1.380 . S
C117 C118 1.376 . S
C117 H145 0.930 . S
C118 C117 1.376 . S
C118 C119 1.370 . S
C119 C118 1.370 . S
C119 C120 1.396 . S
C119 H146 0.929 . S
C120 C115 1.373 . S
C120 C119 1.396 . S
C120 H147 0.929 . S
C121 O134 1.240 . S
C121 O135 1.289 . S
C122 O136 1.258 . S
C122 O137 1.256 . S
C123 La113 2.928 1_565 S
C123 C124 1.503 . S
C123 O138 1.261 . S
C123 O139 1.243 . S
C124 C123 1.503 . S
C124 C125 1.394 . S
C124 C129 1.373 . S
C125 C124 1.394 . S
C125 C126 1.380 . S
C125 H148 0.930 . S
C126 C125 1.380 . S
C126 C127 1.376 . S
C126 H149 0.930 . S
C127 C126 1.376 . S
C127 C128 1.370 . S
C128 C127 1.370 . S
C128 C129 1.396 . S
C128 H150 0.929 . S
C129 C124 1.373 . S
C129 C128 1.396 . S
C129 H151 0.929 . S
C130 O140 1.240 . S
C130 O141 1.289 . S
C131 O142 1.258 . S
C131 O143 1.256 . S
O132 La112 2.521 1_545 S
O132 C114 1.261 . S
O133 La112 2.628 1_545 S
O133 C114 1.243 . S
O134 La112 2.554 . S
O134 C121 1.240 . S
O135 La112 2.757 . S
O135 La113 2.482 1_564 S
O135 C121 1.289 . S
O136 La112 2.470 1_545 S
O136 C122 1.258 . S
O137 La113 2.503 1_554 S
O137 C122 1.256 . S
O138 La113 2.521 1_565 S
O138 C123 1.261 . S
O139 La113 2.628 1_565 S
O139 C123 1.243 . S
O140 La113 2.554 . S
O140 C130 1.240 . S
O141 La112 2.482 1_546 S
O141 La113 2.757 . S
O141 C130 1.289 . S
O142 La113 2.470 1_565 S
O142 C131 1.258 . S
O143 La112 2.503 1_556 S
O143 C131 1.256 . S
H144 C116 0.930 . S
H145 C117 0.930 . S
H146 C119 0.929 . S
H147 C120 0.929 . S
H148 C125 0.930 . S
H149 C126 0.930 . S
H150 C128 0.929 . S
H151 C129 0.929 . S
La152 C154 2.928 . S
La152 O172 2.521 . S
La152 O173 2.628 . S
La152 O174 2.554 . S
La152 O175 2.757 . S
La152 O176 2.470 . S
La152 O181 2.482 . S
La152 O183 2.503 . S
La153 C163 2.928 . S
La153 O175 2.482 . S
La153 O177 2.503 . S
La153 O178 2.521 . S
La153 O179 2.628 . S
La153 O180 2.554 . S
La153 O181 2.757 . S
La153 O182 2.470 . S
C154 La152 2.928 . S
C154 C155 1.503 . S
C154 O172 1.261 . S
C154 O173 1.243 . S
C155 C154 1.503 . S
C155 C156 1.394 . S
C155 C160 1.373 . S
C156 C155 1.394 . S
C156 C157 1.380 . S
C156 H184 0.930 . S
C157 C156 1.380 . S
C157 C158 1.376 . S
C157 H185 0.930 . S
C158 C157 1.376 . S
C158 C159 1.370 . S
C159 C158 1.370 . S
C159 C160 1.396 . S
C159 H186 0.929 . S
C160 C155 1.373 . S
C160 C159 1.396 . S
C160 H187 0.929 . S
C161 O174 1.240 . S
C161 O175 1.289 . S
C162 O176 1.258 . S
C162 O177 1.256 . S
C163 La153 2.928 . S
C163 C164 1.503 . S
C163 O178 1.261 . S
C163 O179 1.243 . S
C164 C163 1.503 . S
C164 C165 1.394 . S
C164 C169 1.373 . S
C165 C164 1.394 . S
C165 C166 1.380 . S
C165 H188 0.930 . S
C166 C165 1.380 . S
C166 C167 1.376 . S
C166 H189 0.930 . S
C167 C166 1.376 . S
C167 C168 1.370 . S
C168 C167 1.370 . S
C168 C169 1.396 . S
C168 H190 0.929 . S
C169 C164 1.373 . S
C169 C168 1.396 . S
C169 H191 0.929 . S
C170 O180 1.240 . S
C170 O181 1.289 . S
C171 O182 1.258 . S
C171 O183 1.256 . S
O172 La152 2.521 . S
O172 C154 1.261 . S
O173 La152 2.628 . S
O173 C154 1.243 . S
O174 La152 2.554 . S
O174 C161 1.240 . S
O175 La152 2.757 . S
O175 La153 2.482 . S
O175 C161 1.289 . S
O176 La152 2.470 . S
O176 C162 1.258 . S
O177 La153 2.503 . S
O177 C162 1.256 . S
O178 La153 2.521 . S
O178 C163 1.261 . S
O179 La153 2.628 . S
O179 C163 1.243 . S
O180 La153 2.554 . S
O180 C170 1.240 . S
O181 La152 2.482 . S
O181 La153 2.757 . S
O181 C170 1.289 . S
O182 La153 2.470 . S
O182 C171 1.258 . S
O183 La152 2.503 . S
O183 C171 1.256 . S
H184 C156 0.930 . S
H185 C157 0.930 . S
H186 C159 0.929 . S
H187 C160 0.929 . S
H188 C165 0.930 . S
H189 C166 0.930 . S
H190 C168 0.929 . S
H191 C169 0.929 . S
La192 C194 2.928 . S
La192 O212 2.521 . S
La192 O213 2.628 . S
La192 O214 2.554 1_455 S
La192 O215 2.757 1_455 S
La192 O216 2.470 . S
La192 O221 2.482 1_554 S
La192 O223 2.503 1_454 S
La193 C203 2.928 . S
La193 O215 2.482 1_556 S
La193 O217 2.503 1_656 S
La193 O218 2.521 . S
La193 O219 2.628 . S
La193 O220 2.554 1_655 S
La193 O221 2.757 1_655 S
La193 O222 2.470 . S
C194 La192 2.928 . S
C194 C195 1.503 . S
C194 O212 1.261 . S
C194 O213 1.243 . S
C195 C194 1.503 . S
C195 C196 1.394 . S
C195 C200 1.373 . S
C196 C195 1.394 . S
C196 C197 1.380 . S
C196 H224 0.930 . S
C197 C196 1.380 . S
C197 C198 1.376 . S
C197 H225 0.930 . S
C198 C197 1.376 . S
C198 C199 1.370 . S
C199 C198 1.370 . S
C199 C200 1.396 . S
C199 H226 0.929 . S
C200 C195 1.373 . S
C200 C199 1.396 . S
C200 H227 0.929 . S
C201 O214 1.240 . S
C201 O215 1.289 . S
C202 O216 1.258 . S
C202 O217 1.256 . S
C203 La193 2.928 . S
C203 C204 1.503 . S
C203 O218 1.261 . S
C203 O219 1.243 . S
C204 C203 1.503 . S
C204 C205 1.394 . S
C204 C209 1.373 . S
C205 C204 1.394 . S
C205 C206 1.380 . S
C205 H228 0.930 . S
C206 C205 1.380 . S
C206 C207 1.376 . S
C206 H229 0.930 . S
C207 C206 1.376 . S
C207 C208 1.370 . S
C208 C207 1.370 . S
C208 C209 1.396 . S
C208 H230 0.929 . S
C209 C204 1.373 . S
C209 C208 1.396 . S
C209 H231 0.929 . S
C210 O220 1.240 . S
C210 O221 1.289 . S
C211 O222 1.258 . S
C211 O223 1.256 . S
O212 La192 2.521 . S
O212 C194 1.261 . S
O213 La192 2.628 . S
O213 C194 1.243 . S
O214 La192 2.554 1_655 S
O214 C201 1.240 . S
O215 La192 2.757 1_655 S
O215 La193 2.482 1_554 S
O215 C201 1.289 . S
O216 La192 2.470 . S
O216 C202 1.258 . S
O217 La193 2.503 1_454 S
O217 C202 1.256 . S
O218 La193 2.521 . S
O218 C203 1.261 . S
O219 La193 2.628 . S
O219 C203 1.243 . S
O220 La193 2.554 1_455 S
O220 C210 1.240 . S
O221 La192 2.482 1_556 S
O221 La193 2.757 1_455 S
O221 C210 1.289 . S
O222 La193 2.470 . S
O222 C211 1.258 . S
O223 La192 2.503 1_656 S
O223 C211 1.256 . S
H224 C196 0.930 . S
H225 C197 0.930 . S
H226 C199 0.929 . S
H227 C200 0.929 . S
H228 C205 0.930 . S
H229 C206 0.930 . S
H230 C208 0.929 . S
H231 C209 0.929 . S
C232 C233 1.369 . S
C232 C234 1.419 . S
C232 H236 0.930 . S
C233 C232 1.369 . S
C233 C242 1.429 . S
C234 C232 1.419 . S
C234 C235 1.363 . S
C234 H237 0.929 . S
C235 C234 1.363 . S
C235 C241 1.428 . S
H236 C232 0.930 . S
H237 C234 0.929 . S
S238 N239 1.613 . S
S238 N240 1.610 . S
N239 S238 1.613 . S
N239 C242 1.350 . S
N240 S238 1.610 . S
N240 C241 1.351 . S
C241 C235 1.428 . S
C241 N240 1.351 . S
C241 C242 1.434 . S
C242 C233 1.429 . S
C242 N239 1.350 . S
C242 C241 1.434 . S
C243 C244 1.369 . S
C243 C245 1.419 . S
C243 H247 0.930 . S
C244 C243 1.369 . S
C244 C253 1.429 . S
C245 C243 1.419 . S
C245 C246 1.363 . S
C245 H248 0.929 . S
C246 C245 1.363 . S
C246 C252 1.428 . S
H247 C243 0.930 . S
H248 C245 0.929 . S
S249 N250 1.613 . S
S249 N251 1.610 . S
N250 S249 1.613 . S
N250 C253 1.350 . S
N251 S249 1.610 . S
N251 C252 1.351 . S
C252 C246 1.428 . S
C252 N251 1.351 . S
C252 C253 1.434 . S
C253 C244 1.429 . S
C253 N250 1.350 . S
C253 C252 1.434 . S
C254 C255 1.369 . S
C254 C256 1.419 . S
C254 H258 0.930 . S
C255 C254 1.369 . S
C255 C264 1.429 . S
C256 C254 1.419 . S
C256 C257 1.363 . S
C256 H259 0.929 . S
C257 C256 1.363 . S
C257 C263 1.428 . S
H258 C254 0.930 . S
H259 C256 0.929 . S
S260 N261 1.613 . S
S260 N262 1.610 . S
N261 S260 1.613 . S
N261 C264 1.350 . S
N262 S260 1.610 . S
N262 C263 1.351 . S
C263 C257 1.428 . S
C263 N262 1.351 . S
C263 C264 1.434 . S
C264 C255 1.429 . S
C264 N261 1.350 . S
C264 C263 1.434 . S
C265 C266 1.369 . S
C265 C267 1.419 . S
C265 H269 0.930 . S
C266 C265 1.369 . S
C266 C275 1.429 . S
C267 C265 1.419 . S
C267 C268 1.363 . S
C267 H270 0.929 . S
C268 C267 1.363 . S
C268 C274 1.428 . S
H269 C265 0.930 . S
H270 C267 0.929 . S
S271 N272 1.613 . S
S271 N273 1.610 . S
N272 S271 1.613 . S
N272 C275 1.350 . S
N273 S271 1.610 . S
N273 C274 1.351 . S
C274 C268 1.428 . S
C274 N273 1.351 . S
C274 C275 1.434 . S
C275 C266 1.429 . S
C275 N272 1.350 . S
C275 C274 1.434 . S
C276 C277 1.369 . S
C276 C278 1.419 . S
C276 H280 0.930 . S
C277 C276 1.369 . S
C277 C286 1.429 . S
C278 C276 1.419 . S
C278 C279 1.363 . S
C278 H281 0.929 . S
C279 C278 1.363 . S
C279 C285 1.428 . S
H280 C276 0.930 . S
H281 C278 0.929 . S
S282 N283 1.613 . S
S282 N284 1.610 . S
N283 S282 1.613 . S
N283 C286 1.350 . S
N284 S282 1.610 . S
N284 C285 1.351 . S
C285 C279 1.428 . S
C285 N284 1.351 . S
C285 C286 1.434 . S
C286 C277 1.429 . S
C286 N283 1.350 . S
C286 C285 1.434 . S
C287 C288 1.369 . S
C287 C289 1.419 . S
C287 H291 0.930 . S
C288 C287 1.369 . S
C288 C297 1.429 . S
C289 C287 1.419 . S
C289 C290 1.363 . S
C289 H292 0.929 . S
C290 C289 1.363 . S
C290 C296 1.428 . S
H291 C287 0.930 . S
H292 C289 0.929 . S
S293 N294 1.613 . S
S293 N295 1.610 . S
N294 S293 1.613 . S
N294 C297 1.350 . S
N295 S293 1.610 . S
N295 C296 1.351 . S
C296 C290 1.428 . S
C296 N295 1.351 . S
C296 C297 1.434 . S
C297 C288 1.429 . S
C297 N294 1.350 . S
C297 C296 1.434 . S
C298 C299 1.369 . S
C298 C300 1.419 . S
C298 H302 0.930 . S
C299 C298 1.369 . S
C299 C308 1.429 . S
C300 C298 1.419 . S
C300 C301 1.363 . S
C300 H303 0.929 . S
C301 C300 1.363 . S
C301 C307 1.428 . S
H302 C298 0.930 . S
H303 C300 0.929 . S
S304 N305 1.613 . S
S304 N306 1.610 . S
N305 S304 1.613 . S
N305 C308 1.350 . S
N306 S304 1.610 . S
N306 C307 1.351 . S
C307 C301 1.428 . S
C307 N306 1.351 . S
C307 C308 1.434 . S
C308 C299 1.429 . S
C308 N305 1.350 . S
C308 C307 1.434 . S
C309 C310 1.369 . S
C309 C311 1.419 . S
C309 H313 0.930 . S
C310 C309 1.369 . S
C310 C319 1.429 . S
C311 C309 1.419 . S
C311 C312 1.363 . S
C311 H314 0.929 . S
C312 C311 1.363 . S
C312 C318 1.428 . S
H313 C309 0.930 . S
H314 C311 0.929 . S
S315 N316 1.613 . S
S315 N317 1.610 . S
N316 S315 1.613 . S
N316 C319 1.350 . S
N317 S315 1.610 . S
N317 C318 1.351 . S
C318 C312 1.428 . S
C318 N317 1.351 . S
C318 C319 1.434 . S
C319 C310 1.429 . S
C319 N316 1.350 . S
C319 C318 1.434 . S
C320 C321 1.369 . S
C320 C322 1.419 . S
C320 H324 0.930 . S
C321 C320 1.369 . S
C321 C330 1.429 . S
C322 C320 1.419 . S
C322 C323 1.363 . S
C322 H325 0.929 . S
C323 C322 1.363 . S
C323 C329 1.428 . S
H324 C320 0.930 . S
H325 C322 0.929 . S
S326 N327 1.613 . S
S326 N328 1.610 . S
N327 S326 1.613 . S
N327 C330 1.350 . S
N328 S326 1.610 . S
N328 C329 1.351 . S
C329 C323 1.428 . S
C329 N328 1.351 . S
C329 C330 1.434 . S
C330 C321 1.429 . S
C330 N327 1.350 . S
C330 C329 1.434 . S
C331 C332 1.369 . S
C331 C333 1.419 . S
C331 H335 0.930 . S
C332 C331 1.369 . S
C332 C341 1.429 . S
C333 C331 1.419 . S
C333 C334 1.363 . S
C333 H336 0.929 . S
C334 C333 1.363 . S
C334 C340 1.428 . S
H335 C331 0.930 . S
H336 C333 0.929 . S
S337 N338 1.613 . S
S337 N339 1.610 . S
N338 S337 1.613 . S
N338 C341 1.350 . S
N339 S337 1.610 . S
N339 C340 1.351 . S
C340 C334 1.428 . S
C340 N339 1.351 . S
C340 C341 1.434 . S
C341 C332 1.429 . S
C341 N338 1.350 . S
C341 C340 1.434 . S
C342 C343 1.369 . S
C342 C344 1.419 . S
C342 H346 0.930 . S
C343 C342 1.369 . S
C343 C352 1.429 . S
C344 C342 1.419 . S
C344 C345 1.363 . S
C344 H347 0.929 . S
C345 C344 1.363 . S
C345 C351 1.428 . S
H346 C342 0.930 . S
H347 C344 0.929 . S
S348 N349 1.613 . S
S348 N350 1.610 . S
N349 S348 1.613 . S
N349 C352 1.350 . S
N350 S348 1.610 . S
N350 C351 1.351 . S
C351 C345 1.428 . S
C351 N350 1.351 . S
C351 C352 1.434 . S
C352 C343 1.429 . S
C352 N349 1.350 . S
C352 C351 1.434 . S
C353 C354 1.369 . S
C353 C355 1.419 . S
C353 H357 0.930 . S
C354 C353 1.369 . S
C354 C363 1.429 . S
C355 C353 1.419 . S
C355 C356 1.363 . S
C355 H358 0.929 . S
C356 C355 1.363 . S
C356 C362 1.428 . S
H357 C353 0.930 . S
H358 C355 0.929 . S
S359 N360 1.613 . S
S359 N361 1.610 . S
N360 S359 1.613 . S
N360 C363 1.350 . S
N361 S359 1.610 . S
N361 C362 1.351 . S
C362 C356 1.428 . S
C362 N361 1.351 . S
C362 C363 1.434 . S
C363 C354 1.429 . S
C363 N360 1.350 . S
C363 C362 1.434 . S
C364 C365 1.369 . S
C364 C366 1.419 . S
C364 H368 0.930 . S
C365 C364 1.369 . S
C365 C374 1.429 . S
C366 C364 1.419 . S
C366 C367 1.363 . S
C366 H369 0.929 . S
C367 C366 1.363 . S
C367 C373 1.428 . S
H368 C364 0.930 . S
H369 C366 0.929 . S
S370 N371 1.613 . S
S370 N372 1.610 . S
N371 S370 1.613 . S
N371 C374 1.350 . S
N372 S370 1.610 . S
N372 C373 1.351 . S
C373 C367 1.428 . S
C373 N372 1.351 . S
C373 C374 1.434 . S
C374 C365 1.429 . S
C374 N371 1.350 . S
C374 C373 1.434 . S
C375 C376 1.369 . S
C375 C377 1.419 . S
C375 H379 0.930 . S
C376 C375 1.369 . S
C376 C385 1.429 . S
C377 C375 1.419 . S
C377 C378 1.363 . S
C377 H380 0.929 . S
C378 C377 1.363 . S
C378 C384 1.428 . S
H379 C375 0.930 . S
H380 C377 0.929 . S
S381 N382 1.613 . S
S381 N383 1.610 . S
N382 S381 1.613 . S
N382 C385 1.350 . S
N383 S381 1.610 . S
N383 C384 1.351 . S
C384 C378 1.428 . S
C384 N383 1.351 . S
C384 C385 1.434 . S
C385 C376 1.429 . S
C385 N382 1.350 . S
C385 C384 1.434 . S
C386 C387 1.369 . S
C386 C388 1.419 . S
C386 H390 0.930 . S
C387 C386 1.369 . S
C387 C396 1.429 . S
C388 C386 1.419 . S
C388 C389 1.363 . S
C388 H391 0.929 . S
C389 C388 1.363 . S
C389 C395 1.428 . S
H390 C386 0.930 . S
H391 C388 0.929 . S
S392 N393 1.613 . S
S392 N394 1.610 . S
N393 S392 1.613 . S
N393 C396 1.350 . S
N394 S392 1.610 . S
N394 C395 1.351 . S
C395 C389 1.428 . S
C395 N394 1.351 . S
C395 C396 1.434 . S
C396 C387 1.429 . S
C396 N393 1.350 . S
C396 C395 1.434 . S
C397 C398 1.369 . S
C397 C399 1.419 . S
C397 H401 0.930 . S
C398 C397 1.369 . S
C398 C407 1.429 . S
C399 C397 1.419 . S
C399 C400 1.363 . S
C399 H402 0.929 . S
C400 C399 1.363 . S
C400 C406 1.428 . S
H401 C397 0.930 . S
H402 C399 0.929 . S
S403 N404 1.613 . S
S403 N405 1.610 . S
N404 S403 1.613 . S
N404 C407 1.350 . S
N405 S403 1.610 . S
N405 C406 1.351 . S
C406 C400 1.428 . S
C406 N405 1.351 . S
C406 C407 1.434 . S
C407 C398 1.429 . S
C407 N404 1.350 . S
C407 C406 1.434 . S
C408 C409 1.369 . S
C408 C410 1.419 . S
C408 H412 0.930 . S
C409 C408 1.369 . S
C409 C418 1.429 . S
C410 C408 1.419 . S
C410 C411 1.363 . S
C410 H413 0.929 . S
C411 C410 1.363 . S
C411 C417 1.428 . S
H412 C408 0.930 . S
H413 C410 0.929 . S
S414 N415 1.613 . S
S414 N416 1.610 . S
N415 S414 1.613 . S
N415 C418 1.350 . S
N416 S414 1.610 . S
N416 C417 1.351 . S
C417 C411 1.428 . S
C417 N416 1.351 . S
C417 C418 1.434 . S
C418 C409 1.429 . S
C418 N415 1.350 . S
C418 C417 1.434 . S
C419 C420 1.369 . S
C419 C421 1.419 . S
C419 H423 0.930 . S
C420 C419 1.369 . S
C420 C429 1.429 . S
C421 C419 1.419 . S
C421 C422 1.363 . S
C421 H424 0.929 . S
C422 C421 1.363 . S
C422 C428 1.428 . S
H423 C419 0.930 . S
H424 C421 0.929 . S
S425 N426 1.613 . S
S425 N427 1.610 . S
N426 S425 1.613 . S
N426 C429 1.350 . S
N427 S425 1.610 . S
N427 C428 1.351 . S
C428 C422 1.428 . S
C428 N427 1.351 . S
C428 C429 1.434 . S
C429 C420 1.429 . S
C429 N426 1.350 . S
C429 C428 1.434 . S
C430 C431 1.369 . S
C430 C432 1.419 . S
C430 H434 0.930 . S
C431 C430 1.369 . S
C431 C440 1.429 . S
C432 C430 1.419 . S
C432 C433 1.363 . S
C432 H435 0.929 . S
C433 C432 1.363 . S
C433 C439 1.428 . S
H434 C430 0.930 . S
H435 C432 0.929 . S
S436 N437 1.613 . S
S436 N438 1.610 . S
N437 S436 1.613 . S
N437 C440 1.350 . S
N438 S436 1.610 . S
N438 C439 1.351 . S
C439 C433 1.428 . S
C439 N438 1.351 . S
C439 C440 1.434 . S
C440 C431 1.429 . S
C440 N437 1.350 . S
C440 C439 1.434 . S
C441 C442 1.369 . S
C441 C443 1.419 . S
C441 H445 0.930 . S
C442 C441 1.369 . S
C442 C451 1.429 . S
C443 C441 1.419 . S
C443 C444 1.363 . S
C443 H446 0.929 . S
C444 C443 1.363 . S
C444 C450 1.428 . S
H445 C441 0.930 . S
H446 C443 0.929 . S
S447 N448 1.613 . S
S447 N449 1.610 . S
N448 S447 1.613 . S
N448 C451 1.350 . S
N449 S447 1.610 . S
N449 C450 1.351 . S
C450 C444 1.428 . S
C450 N449 1.351 . S
C450 C451 1.434 . S
C451 C442 1.429 . S
C451 N448 1.350 . S
C451 C450 1.434 . S
C452 C453 1.369 . S
C452 C454 1.419 . S
C452 H456 0.930 . S
C453 C452 1.369 . S
C453 C462 1.429 . S
C454 C452 1.419 . S
C454 C455 1.363 . S
C454 H457 0.929 . S
C455 C454 1.363 . S
C455 C461 1.428 . S
H456 C452 0.930 . S
H457 C454 0.929 . S
S458 N459 1.613 . S
S458 N460 1.610 . S
N459 S458 1.613 . S
N459 C462 1.350 . S
N460 S458 1.610 . S
N460 C461 1.351 . S
C461 C455 1.428 . S
C461 N460 1.351 . S
C461 C462 1.434 . S
C462 C453 1.429 . S
C462 N459 1.350 . S
C462 C461 1.434 . S
C463 C464 1.369 . S
C463 C465 1.419 . S
C463 H467 0.930 . S
C464 C463 1.369 . S
C464 C473 1.429 . S
C465 C463 1.419 . S
C465 C466 1.363 . S
C465 H468 0.929 . S
C466 C465 1.363 . S
C466 C472 1.428 . S
H467 C463 0.930 . S
H468 C465 0.929 . S
S469 N470 1.613 . S
S469 N471 1.610 . S
N470 S469 1.613 . S
N470 C473 1.350 . S
N471 S469 1.610 . S
N471 C472 1.351 . S
C472 C466 1.428 . S
C472 N471 1.351 . S
C472 C473 1.434 . S
C473 C464 1.429 . S
C473 N470 1.350 . S
C473 C472 1.434 . S
C474 C475 1.369 . S
C474 C476 1.419 . S
C474 H478 0.930 . S
C475 C474 1.369 . S
C475 C484 1.429 . S
C476 C474 1.419 . S
C476 C477 1.363 . S
C476 H479 0.929 . S
C477 C476 1.363 . S
C477 C483 1.428 . S
H478 C474 0.930 . S
H479 C476 0.929 . S
S480 N481 1.613 . S
S480 N482 1.610 . S
N481 S480 1.613 . S
N481 C484 1.350 . S
N482 S480 1.610 . S
N482 C483 1.351 . S
C483 C477 1.428 . S
C483 N482 1.351 . S
C483 C484 1.434 . S
C484 C475 1.429 . S
C484 N481 1.350 . S
C484 C483 1.434 . S
C485 C486 1.369 . S
C485 C487 1.419 . S
C485 H489 0.930 . S
C486 C485 1.369 . S
C486 C495 1.429 . S
C487 C485 1.419 . S
C487 C488 1.363 . S
C487 H490 0.929 . S
C488 C487 1.363 . S
C488 C494 1.428 . S
H489 C485 0.930 . S
H490 C487 0.929 . S
S491 N492 1.613 . S
S491 N493 1.610 . S
N492 S491 1.613 . S
N492 C495 1.350 . S
N493 S491 1.610 . S
N493 C494 1.351 . S
C494 C488 1.428 . S
C494 N493 1.351 . S
C494 C495 1.434 . S
C495 C486 1.429 . S
C495 N492 1.350 . S
C495 C494 1.434 . S
C233 C5 1.015 . S
C235 C78 1.034 . S
C244 C14 0.995 . S
C246 C127 0.994 . S
C257 C162 2.518 . S
C255 C25 2.597 . S
C266 C34 2.548 . S
C268 C201 2.499 . S
C279 C122 2.003 . S
C277 C7 1.845 . S
C290 C81 0.703 . S
C288 C13 0.709 . S
C301 C211 1.938 . S
C299 C23 2.014 . S
C312 C170 1.808 . S
C310 C31 1.830 . S
C321 C4 1.371 . S
C323 C198 1.431 . S
C334 C130 2.354 . S
C332 C22 2.463 . S
C343 C32 2.396 . S
C345 C91 2.380 . S
C354 C16 1.064 . S
C356 C167 1.084 . S
C367 C87 1.023 . S
C365 C41 1.006 . S
C376 C50 1.003 . S
C378 C118 0.995 . S
C387 C61 2.591 . S
C389 C171 2.511 . S
C398 C67 2.556 . S
C400 C210 2.505 . S
C409 C40 1.869 . S
C411 C131 2.017 . S
C422 C90 0.680 . S
C420 C52 0.687 . S
C433 C202 1.943 . S
C431 C59 2.023 . S
C444 C161 1.808 . S
C442 C70 1.827 . S
C453 C43 1.372 . S
C455 C207 1.426 . S
C466 C121 2.363 . S
C464 C58 2.473 . S
C477 C82 2.362 . S
C475 C68 2.377 . S
C486 C49 1.070 . S
C488 C158 1.094 . S
