# Generated by pormake.
# Topology apo, (3,6)-cn, num edge types: 1
# Building blocks:
#     Node 0, Type 0, BuildingBlock: BELTOD_clean_linker_0, # of connection points: 3
#     Node 1, Type 0, BuildingBlock: BELTOD_clean_linker_0, # of connection points: 3
#     Node 2, Type 0, BuildingBlock: BELTOD_clean_linker_0, # of connection points: 3
#     Node 3, Type 0, BuildingBlock: BELTOD_clean_linker_0, # of connection points: 3
#     Node 4, Type 0, BuildingBlock: BELTOD_clean_linker_0, # of connection points: 3
#     Node 5, Type 0, BuildingBlock: BELTOD_clean_linker_0, # of connection points: 3
#     Node 6, Type 0, BuildingBlock: BELTOD_clean_linker_0, # of connection points: 3
#     Node 7, Type 0, BuildingBlock: BELTOD_clean_linker_0, # of connection points: 3
#     Node 8, Type 1, BuildingBlock: MIDCAF_clean_sbu_0, # of connection points: 6
#     Node 9, Type 1, BuildingBlock: MIDCAF_clean_sbu_0, # of connection points: 6
#     Node 10, Type 1, BuildingBlock: MIDCAF_clean_sbu_0, # of connection points: 6
#     Node 11, Type 1, BuildingBlock: MIDCAF_clean_sbu_0, # of connection points: 6
#     Edge 12, Type (0, 1), BuildingBlock: XIVTED_clean_linker_0, # of connection points: 2
#     Edge 13, Type (0, 1), BuildingBlock: XIVTED_clean_linker_0, # of connection points: 2
#     Edge 14, Type (0, 1), BuildingBlock: XIVTED_clean_linker_0, # of connection points: 2
#     Edge 15, Type (0, 1), BuildingBlock: XIVTED_clean_linker_0, # of connection points: 2
#     Edge 16, Type (0, 1), BuildingBlock: XIVTED_clean_linker_0, # of connection points: 2
#     Edge 17, Type (0, 1), BuildingBlock: XIVTED_clean_linker_0, # of connection points: 2
#     Edge 18, Type (0, 1), BuildingBlock: XIVTED_clean_linker_0, # of connection points: 2
#     Edge 19, Type (0, 1), BuildingBlock: XIVTED_clean_linker_0, # of connection points: 2
#     Edge 20, Type (0, 1), BuildingBlock: XIVTED_clean_linker_0, # of connection points: 2
#     Edge 21, Type (0, 1), BuildingBlock: XIVTED_clean_linker_0, # of connection points: 2
#     Edge 22, Type (0, 1), BuildingBlock: XIVTED_clean_linker_0, # of connection points: 2
#     Edge 23, Type (0, 1), BuildingBlock: XIVTED_clean_linker_0, # of connection points: 2
#     Edge 24, Type (0, 1), BuildingBlock: XIVTED_clean_linker_0, # of connection points: 2
#     Edge 25, Type (0, 1), BuildingBlock: XIVTED_clean_linker_0, # of connection points: 2
#     Edge 26, Type (0, 1), BuildingBlock: XIVTED_clean_linker_0, # of connection points: 2
#     Edge 27, Type (0, 1), BuildingBlock: XIVTED_clean_linker_0, # of connection points: 2
#     Edge 28, Type (0, 1), BuildingBlock: XIVTED_clean_linker_0, # of connection points: 2
#     Edge 29, Type (0, 1), BuildingBlock: XIVTED_clean_linker_0, # of connection points: 2
#     Edge 30, Type (0, 1), BuildingBlock: XIVTED_clean_linker_0, # of connection points: 2
#     Edge 31, Type (0, 1), BuildingBlock: XIVTED_clean_linker_0, # of connection points: 2
#     Edge 32, Type (0, 1), BuildingBlock: XIVTED_clean_linker_0, # of connection points: 2
#     Edge 33, Type (0, 1), BuildingBlock: XIVTED_clean_linker_0, # of connection points: 2
#     Edge 34, Type (0, 1), BuildingBlock: XIVTED_clean_linker_0, # of connection points: 2
#     Edge 35, Type (0, 1), BuildingBlock: XIVTED_clean_linker_0, # of connection points: 2
# Relax obj value: 0.078
# Max RMSD: 0.096
# Mean RMSD: 0.084
data_MOF--net-apo--node1-MIDCAF_clean_sbu_0--node2-BELTOD_clean_linker_0--edge1-XIVTED_clean_linker_0
_symmetry_space_group_name_H-M    P1
_symmetry_Int_Tables_number       1
_symmetry_cell_setting            triclinic
loop_
_symmetry_equiv_pos_as_xyz
'x, y, z'
_cell_length_a     40.137335
_cell_length_b     47.563704
_cell_length_c     42.076095
_cell_angle_alpha  89.391284
_cell_angle_beta   90.22285
_cell_angle_gamma 90.499246
loop_
_atom_site_label
_atom_site_type_symbol
_atom_site_fract_x
_atom_site_fract_y
_atom_site_fract_z
_atom_type_partial_charge
P0 P 0.3682 0.29119 0.37066 0.0
H1 H 0.41823 0.27675 0.41832 0.0
H2 H 0.41967 0.27991 0.4761 0.0
H3 H 0.31871 0.3107 0.47542 0.0
H4 H 0.31744 0.30733 0.41724 0.0
H5 H 0.32744 0.30989 0.31598 0.0
H6 H 0.27918 0.28845 0.28943 0.0
H7 H 0.27613 0.22342 0.36182 0.0
H8 H 0.32428 0.24482 0.38808 0.0
H9 H 0.41282 0.30953 0.31951 0.0
H10 H 0.3494 0.34842 0.38856 0.0
O11 O 0.39694 0.26819 0.3595 0.0
H12 H 0.43269 0.35591 0.30195 0.0
H13 H 0.36903 0.39482 0.37105 0.0
C14 C 0.36759 0.29146 0.41352 0.0
C15 C 0.39618 0.28372 0.43058 0.0
C16 C 0.39692 0.28543 0.46369 0.0
C17 C 0.3692 0.29534 0.48042 0.0
C18 C 0.34047 0.30301 0.46322 0.0
C19 C 0.33966 0.30101 0.43003 0.0
C20 C 0.32915 0.27915 0.35429 0.0
C21 C 0.31594 0.29137 0.32652 0.0
C22 C 0.28838 0.27909 0.3113 0.0
C23 C 0.27408 0.25409 0.32335 0.0
C24 C 0.28689 0.24245 0.35169 0.0
C25 C 0.31419 0.25482 0.36693 0.0
C26 C 0.38027 0.32549 0.3559 0.0
C27 C 0.40304 0.32804 0.3308 0.0
C28 C 0.41422 0.35458 0.32061 0.0
C29 C 0.40277 0.37901 0.3354 0.0
C30 C 0.37883 0.37635 0.35962 0.0
C31 C 0.36754 0.34983 0.36965 0.0
P32 P 0.21042 0.12021 0.9113 0.0
H33 H 0.20347 0.09468 0.84898 0.0
H34 H 0.15882 0.06873 0.82346 0.0
H35 H 0.09375 0.08766 0.90201 0.0
H36 H 0.13948 0.11112 0.92868 0.0
H37 H 0.26085 0.10817 0.8642 0.0
H38 H 0.29127 0.13715 0.82608 0.0
H39 H 0.24287 0.21112 0.86225 0.0
H40 H 0.21089 0.18152 0.89895 0.0
H41 H 0.23838 0.11737 0.97548 0.0
H42 H 0.15923 0.16176 0.92767 0.0
O43 O 0.23459 0.09299 0.92082 0.0
H44 H 0.21984 0.13525 0.0263 0.0
H45 H 0.13908 0.17845 0.97866 0.0
C46 C 0.17491 0.10568 0.89049 0.0
C47 C 0.17947 0.09373 0.86053 0.0
C48 C 0.15361 0.07894 0.84574 0.0
C49 C 0.12235 0.07593 0.8605 0.0
C50 C 0.11751 0.089 0.89 0.0
C51 C 0.1437 0.1031 0.90514 0.0
C52 C 0.23387 0.14268 0.8847 0.0
C53 C 0.2567 0.13064 0.86387 0.0
C54 C 0.2743 0.14734 0.84213 0.0
C55 C 0.26986 0.17664 0.84105 0.0
C56 C 0.24668 0.18863 0.86193 0.0
C57 C 0.22861 0.17174 0.88334 0.0
C58 C 0.19954 0.13748 0.94786 0.0
C59 C 0.21694 0.13101 0.97589 0.0
C60 C 0.20609 0.14112 0.0051 0.0
C61 C 0.17735 0.15777 0.00697 0.0
C62 C 0.16135 0.16579 0.97842 0.0
C63 C 0.17266 0.15605 0.94912 0.0
P64 P 0.86206 0.19138 0.63284 0.0
H65 H 0.83913 0.2273 0.58061 0.0
H66 H 0.84574 0.22407 0.52274 0.0
H67 H 0.88534 0.14052 0.5344 0.0
H68 H 0.87858 0.14366 0.59175 0.0
H69 H 0.84451 0.23352 0.67959 0.0
H70 H 0.79189 0.24799 0.70237 0.0
H71 H 0.7408 0.183 0.64939 0.0
H72 H 0.79369 0.16982 0.62527 0.0
H73 H 0.93068 0.17455 0.64372 0.0
H74 H 0.83279 0.14087 0.66359 0.0
O75 O 0.88854 0.21829 0.63754 0.0
H76 H 0.95583 0.13216 0.66608 0.0
H77 H 0.85774 0.09816 0.68558 0.0
C78 C 0.85857 0.18586 0.59059 0.0
C79 C 0.84827 0.20797 0.5706 0.0
C80 C 0.85196 0.20609 0.53757 0.0
C81 C 0.8663 0.18214 0.5242 0.0
C82 C 0.87444 0.15931 0.54416 0.0
C83 C 0.87057 0.16113 0.57704 0.0
C84 C 0.82289 0.20094 0.6503 0.0
C85 C 0.82195 0.22248 0.67272 0.0
C86 C 0.79174 0.23051 0.68612 0.0
C87 C 0.76178 0.21679 0.67779 0.0
C88 C 0.76312 0.19451 0.65596 0.0
C89 C 0.79337 0.1868 0.64222 0.0
C90 C 0.87988 0.16114 0.65252 0.0
C91 C 0.91458 0.15821 0.65335 0.0
C92 C 0.92894 0.13383 0.66591 0.0
C93 C 0.90882 0.11174 0.67768 0.0
C94 C 0.87398 0.11495 0.67722 0.0
C95 C 0.85964 0.13937 0.66454 0.0
P96 P 0.71762 0.36588 0.09343 0.0
H97 H 0.70874 0.39032 0.15626 0.0
H98 H 0.66464 0.41792 0.17946 0.0
H99 H 0.60372 0.4037 0.09602 0.0
H100 H 0.64897 0.37842 0.07195 0.0
H101 H 0.7664 0.37689 0.14301 0.0
H102 H 0.79525 0.34708 0.18129 0.0
H103 H 0.74625 0.27398 0.14162 0.0
H104 H 0.71595 0.30433 0.10467 0.0
H105 H 0.74571 0.36915 0.02938 0.0
H106 H 0.6651 0.32508 0.07613 0.0
O107 O 0.74358 0.3924 0.08461 0.0
H108 H 0.72623 0.35222 0.97813 0.0
H109 H 0.64436 0.30904 0.02476 0.0
C110 C 0.68216 0.38148 0.11259 0.0
C111 C 0.68571 0.39267 0.14314 0.0
C112 C 0.6602 0.40842 0.15655 0.0
C113 C 0.63037 0.41325 0.13972 0.0
C114 C 0.62644 0.40097 0.1096 0.0
C115 C 0.65229 0.38584 0.09594 0.0
C116 C 0.73922 0.34287 0.12075 0.0
C117 C 0.76171 0.35444 0.14266 0.0
C118 C 0.77843 0.33726 0.16448 0.0
C119 C 0.77341 0.30795 0.1646 0.0
C120 C 0.75049 0.29645 0.1427 0.0
C121 C 0.73334 0.31379 0.12118 0.0
C122 C 0.7064 0.34894 0.05656 0.0
C123 C 0.72386 0.35568 0.02867 0.0
C124 C 0.71249 0.34612 0.99922 0.0
C125 C 0.68322 0.32972 0.99699 0.0
C126 C 0.66706 0.32148 0.02534 0.0
C127 C 0.67878 0.33077 0.05484 0.0
P128 P 0.69971 0.63077 0.59216 0.0
H129 H 0.73138 0.64576 0.53205 0.0
H130 H 0.70951 0.66396 0.48159 0.0
H131 H 0.61213 0.67141 0.52413 0.0
H132 H 0.63444 0.65394 0.57454 0.0
H133 H 0.74369 0.61951 0.64527 0.0
H134 H 0.77326 0.64962 0.68273 0.0
H135 H 0.73556 0.72302 0.63327 0.0
H136 H 0.70491 0.69256 0.59678 0.0
H137 H 0.65515 0.58472 0.57572 0.0
H138 H 0.67049 0.63939 0.65574 0.0
O139 O 0.72574 0.60567 0.58079 0.0
H140 H 0.61434 0.55738 0.60638 0.0
H141 H 0.63008 0.61196 0.68657 0.0
C142 C 0.68437 0.64798 0.55677 0.0
C143 C 0.70542 0.65167 0.53054 0.0
C144 C 0.69284 0.66194 0.50167 0.0
C145 C 0.65895 0.66885 0.49862 0.0
C146 C 0.6384 0.66653 0.5256 0.0
C147 C 0.65105 0.6563 0.55445 0.0
C148 C 0.72261 0.65383 0.61802 0.0
C149 C 0.74197 0.64212 0.64246 0.0
C150 C 0.7589 0.65939 0.66385 0.0
C151 C 0.75696 0.68883 0.66107 0.0
C152 C 0.73727 0.70047 0.6365 0.0
C153 C 0.72004 0.68309 0.61529 0.0
C154 C 0.66632 0.61371 0.61358 0.0
C155 C 0.64942 0.59104 0.59973 0.0
C156 C 0.62596 0.57556 0.61722 0.0
C157 C 0.61919 0.58245 0.64896 0.0
C158 C 0.6351 0.60599 0.66229 0.0
C159 C 0.65829 0.62165 0.64464 0.0
P160 P 0.85092 0.80232 0.1194 0.0
H161 H 0.89937 0.81853 0.16823 0.0
H162 H 0.91923 0.86418 0.18721 0.0
H163 H 0.84883 0.90583 0.12514 0.0
H164 H 0.82904 0.86008 0.10632 0.0
H165 H 0.82601 0.74565 0.13224 0.0
H166 H 0.7778 0.72733 0.16111 0.0
H167 H 0.74705 0.81232 0.18057 0.0
H168 H 0.79461 0.83039 0.15056 0.0
H169 H 0.87926 0.83954 0.07035 0.0
H170 H 0.81429 0.76683 0.074 0.0
O171 O 0.8816 0.77964 0.12658 0.0
H172 H 0.87754 0.83892 0.01258 0.0
H173 H 0.81366 0.76551 0.01571 0.0
C174 C 0.86341 0.83597 0.1352 0.0
C175 C 0.88813 0.83748 0.15878 0.0
C176 C 0.89931 0.86357 0.16979 0.0
C177 C 0.88592 0.8886 0.15735 0.0
C178 C 0.86008 0.88692 0.13473 0.0
C179 C 0.84873 0.86082 0.12397 0.0
C180 C 0.81418 0.78937 0.13951 0.0
C181 C 0.80882 0.76033 0.14265 0.0
C182 C 0.78136 0.74989 0.15949 0.0
C183 C 0.75865 0.7683 0.17367 0.0
C184 C 0.76383 0.79747 0.1699 0.0
C185 C 0.79123 0.80788 0.15281 0.0
C186 C 0.84577 0.80394 0.07674 0.0
C187 C 0.86374 0.82394 0.05885 0.0
C188 C 0.86293 0.82348 0.0257 0.0
C189 C 0.84509 0.80239 0.00966 0.0
C190 C 0.82734 0.78215 0.02751 0.0
C191 C 0.82758 0.783 0.0608 0.0
P192 P 0.20238 0.85282 0.39507 0.0
H193 H 0.20682 0.87451 0.4593 0.0
H194 H 0.17979 0.8614 0.509 0.0
H195 H 0.13173 0.79121 0.46245 0.0
H196 H 0.15839 0.80509 0.41237 0.0
H197 H 0.21449 0.85234 0.32699 0.0
H198 H 0.23958 0.81787 0.29184 0.0
H199 H 0.24847 0.75979 0.37098 0.0
H200 H 0.22367 0.79442 0.40604 0.0
H201 H 0.20224 0.91128 0.37272 0.0
H202 H 0.13502 0.84005 0.37221 0.0
O203 O 0.2356 0.87293 0.40303 0.0
H204 H 0.16053 0.93971 0.34544 0.0
H205 H 0.09298 0.86847 0.34464 0.0
C206 C 0.18513 0.84048 0.43225 0.0
C207 C 0.19092 0.85601 0.45986 0.0
C208 C 0.17551 0.84837 0.48841 0.0
C209 C 0.15368 0.82509 0.48994 0.0
C210 C 0.14819 0.80937 0.46217 0.0
C211 C 0.16361 0.81713 0.43353 0.0
C212 C 0.21625 0.82563 0.36895 0.0
C213 C 0.22116 0.83194 0.33665 0.0
C214 C 0.23574 0.81234 0.3166 0.0
C215 C 0.24571 0.78604 0.32857 0.0
C216 C 0.24038 0.77966 0.36091 0.0
C217 C 0.22614 0.79943 0.38101 0.0
C218 C 0.17155 0.87367 0.37483 0.0
C219 C 0.17851 0.90172 0.36668 0.0
C220 C 0.15472 0.9179 0.35078 0.0
C221 C 0.12347 0.90631 0.34274 0.0
C222 C 0.11671 0.87804 0.35072 0.0
C223 C 0.14067 0.86182 0.3665 0.0
P224 P 0.34539 0.68081 0.87539 0.0
H225 H 0.39281 0.66342 0.82703 0.0
H226 H 0.41048 0.61729 0.809 0.0
H227 H 0.33408 0.57796 0.86677 0.0
H228 H 0.31677 0.62431 0.88502 0.0
H229 H 0.33068 0.73931 0.86184 0.0
H230 H 0.28307 0.76297 0.83797 0.0
H231 H 0.23368 0.68279 0.82517 0.0
H232 H 0.28198 0.65904 0.84889 0.0
H233 H 0.37211 0.64123 0.92253 0.0
H234 H 0.31081 0.7153 0.92232 0.0
O235 O 0.37857 0.70157 0.86943 0.0
H236 H 0.37207 0.64049 0.98035 0.0
H237 H 0.31141 0.71501 0.98056 0.0
C238 C 0.35404 0.6472 0.85797 0.0
C239 C 0.37959 0.6449 0.83555 0.0
C240 C 0.38955 0.6185 0.82507 0.0
C241 C 0.37404 0.59392 0.83683 0.0
C242 C 0.34697 0.59648 0.85776 0.0
C243 C 0.33693 0.62293 0.86809 0.0
C244 C 0.31007 0.69741 0.85681 0.0
C245 C 0.3098 0.72673 0.85364 0.0
C246 C 0.28245 0.74026 0.84013 0.0
C247 C 0.25458 0.72475 0.82969 0.0
C248 C 0.25497 0.69526 0.83263 0.0
C249 C 0.28246 0.68169 0.84634 0.0
C250 C 0.3405 0.67775 0.91791 0.0
C251 C 0.35771 0.65683 0.93483 0.0
C252 C 0.35778 0.65647 0.96801 0.0
C253 C 0.34144 0.67753 0.98501 0.0
C254 C 0.32405 0.69843 0.96806 0.0
C255 C 0.32356 0.6985 0.93477 0.0
Zn256 Zn 0.02289 0.1271 0.30434 0.0
Zn257 Zn 0.96599 0.13999 0.197 0.0
Zn258 Zn -0.00564 0.13419 0.25184 0.0
C259 C 0.02852 0.16339 0.1894 0.0
C260 C 0.96788 0.08265 0.20769 0.0
O261 O 0.9643 0.15677 0.28853 0.0
O262 O -0.00174 0.1541 0.32981 0.0
C263 C 0.07131 0.15079 0.26704 0.0
O264 O 0.03074 0.15386 0.21815 0.0
O265 O 0.0011 0.16197 0.1747 0.0
O266 O 0.96093 0.09995 0.18578 0.0
O267 O 0.97994 0.09153 0.23427 0.0
O268 O 0.0689 0.13765 0.29311 0.0
O269 O 0.04573 0.15286 0.24853 0.0
O270 O -0.00276 0.08825 0.26308 0.0
O271 O 0.01415 0.08701 0.31308 0.0
C272 C 0.00468 0.07424 0.28852 0.0
O273 O 0.94952 0.16099 0.25848 0.0
O274 O 0.92576 0.15956 0.21098 0.0
C275 C 0.97151 0.16283 0.31759 0.0
C276 C 0.92548 0.16754 0.23944 0.0
Zn277 Zn 0.5174 0.36042 0.70459 0.0
Zn278 Zn 0.46714 0.3441 0.80963 0.0
Zn279 Zn 0.49357 0.35127 0.75433 0.0
C280 C 0.46525 0.40156 0.79839 0.0
C281 C 0.42701 0.31458 0.7673 0.0
O282 O 0.54199 0.3285 0.75374 0.0
O283 O 0.54346 0.32545 0.70163 0.0
C284 C 0.52343 0.41003 0.73052 0.0
O285 O 0.47941 0.39342 0.77262 0.0
O286 O 0.45754 0.38377 0.81964 0.0
O287 O 0.42928 0.32034 0.79641 0.0
O288 O 0.4487 0.32415 0.74737 0.0
O289 O 0.54155 0.39617 0.71212 0.0
O290 O 0.5001 0.39745 0.74629 0.0
O291 O 0.4602 0.33295 0.71704 0.0
O292 O 0.47585 0.36231 0.67903 0.0
C293 C 0.45579 0.34375 0.6891 0.0
O294 O 0.53239 0.33173 0.78564 0.0
O295 O 0.50551 0.32619 0.83113 0.0
C296 C 0.55421 0.3176 0.72845 0.0
C297 C 0.53189 0.32401 0.81516 0.0
Zn298 Zn 0.01455 0.84988 0.82516 0.0
Zn299 Zn 0.95223 0.86097 0.69741 0.0
Zn300 Zn 0.98625 0.85246 0.74799 0.0
C301 C 0.96908 0.91374 0.71784 0.0
C302 C 0.91131 0.82934 0.73593 0.0
O303 O 0.03255 0.82992 0.73694 0.0
O304 O 0.03503 0.83581 0.7874 0.0
C305 C 0.00596 0.90553 0.79709 0.0
O306 O 0.98076 0.89855 0.74075 0.0
O307 O 0.95596 0.90226 0.69395 0.0
O308 O 0.90929 0.84422 0.71102 0.0
O309 O 0.93849 0.82918 0.75233 0.0
O310 O 0.01112 0.89119 0.82217 0.0
O311 O -0.00188 0.89403 0.77026 0.0
O312 O 0.95386 0.82869 0.78318 0.0
O313 O 0.97334 0.82886 0.83329 0.0
C314 C 0.95161 0.82171 0.81298 0.0
O315 O 0.01627 0.83448 0.70811 0.0
O316 O 0.9804 0.83892 0.66841 0.0
C317 C 0.04843 0.82664 0.76294 0.0
C318 C 0.00839 0.83083 0.67863 0.0
Zn319 Zn 0.51425 0.63968 0.19214 0.0
Zn320 Zn 0.46036 0.63106 0.3023 0.0
Zn321 Zn 0.48759 0.63393 0.24782 0.0
C322 C 0.51662 0.66298 0.31202 0.0
C323 C 0.47416 0.57603 0.2872 0.0
O324 O 0.45114 0.65421 0.21426 0.0
O325 O 0.47962 0.6613 0.16995 0.0
C326 C 0.55748 0.66674 0.23258 0.0
O327 O 0.52072 0.65566 0.28285 0.0
O328 O 0.48988 0.65673 0.32618 0.0
O329 O 0.46524 0.59047 0.3106 0.0
O330 O 0.48268 0.58837 0.26097 0.0
O331 O 0.55515 0.6601 0.20376 0.0
O332 O 0.53473 0.65916 0.25257 0.0
O333 O 0.49876 0.59087 0.23153 0.0
O334 O 0.51729 0.59906 0.18284 0.0
C335 C 0.50987 0.58189 0.20483 0.0
O336 O 0.43758 0.65425 0.24492 0.0
O337 O 0.41537 0.6442 0.29168 0.0
C338 C 0.45296 0.66353 0.18539 0.0
C339 C 0.41282 0.65509 0.26435 0.0
H340 H 0.05686 0.9088 0.35666 0.0
H341 H 0.98523 0.03786 0.33498 0.0
H342 H 0.13127 0.94464 0.29415 0.0
H343 H 0.03291 0.04138 0.24346 0.0
H344 H 0.00585 0.99029 0.34291 0.0
H345 H 0.01678 0.94321 0.33667 0.0
C346 C 0.06465 0.92367 0.33843 0.0
C347 C 0.09769 0.92427 0.32759 0.0
C348 C 0.01075 0.00083 0.32047 0.0
C349 C 0.05226 0.96421 0.3053 0.0
C350 C -0.001 0.02807 0.31602 0.0
C351 C 0.00747 0.04343 0.28859 0.0
C352 C 0.03179 0.98913 0.29759 0.0
C353 C 0.02574 0.03007 0.26488 0.0
C354 C 0.04185 0.94352 0.32729 0.0
C355 C 0.10632 0.94394 0.30382 0.0
N356 N 0.03813 0.00391 0.27031 0.0
N357 N 0.08385 0.96331 0.29372 0.0
H358 H 0.39636 0.57421 0.77935 0.0
H359 H 0.45545 0.42749 0.85473 0.0
H360 H 0.384 0.54987 0.87772 0.0
H361 H 0.45357 0.44302 0.7536 0.0
H362 H 0.43457 0.47464 0.86335 0.0
H363 H 0.42173 0.52839 0.76912 0.0
C364 C 0.39892 0.55923 0.79876 0.0
C365 C 0.3878 0.56582 0.82941 0.0
C366 C 0.43894 0.46793 0.83922 0.0
C367 C 0.41697 0.51358 0.81792 0.0
C368 C 0.45099 0.44099 0.83427 0.0
C369 C 0.45646 0.43135 0.80336 0.0
C370 C 0.43206 0.48554 0.81307 0.0
C371 C 0.45033 0.44983 0.77781 0.0
C372 C 0.41334 0.5331 0.79288 0.0
C373 C 0.39162 0.54558 0.85362 0.0
N374 N 0.43826 0.47605 0.78319 0.0
N375 N 0.40593 0.5205 0.84736 0.0
H376 H 0.63183 0.56285 0.70903 0.0
H377 H 0.48494 0.44899 0.70125 0.0
H378 H 0.55882 0.55856 0.63367 0.0
H379 H 0.57383 0.43949 0.75781 0.0
H380 H 0.50211 0.49734 0.68801 0.0
H381 H 0.60134 0.52594 0.73789 0.0
C382 C 0.60895 0.5546 0.69889 0.0
C383 C 0.59802 0.56353 0.66873 0.0
C384 C 0.51738 0.48497 0.70407 0.0
C385 C 0.56322 0.52119 0.70152 0.0
C386 C 0.50739 0.45758 0.71192 0.0
C387 C 0.52788 0.44062 0.73092 0.0
C388 C 0.54823 0.49519 0.71511 0.0
C389 C 0.55726 0.4522 0.74337 0.0
C390 C 0.59169 0.53343 0.7153 0.0
C391 C 0.56839 0.55192 0.65662 0.0
N392 N 0.56678 0.47873 0.73498 0.0
N393 N 0.55218 0.53115 0.67291 0.0
H394 H 0.9024 0.90743 0.21716 0.0
H395 H 0.97021 0.05572 0.15141 0.0
H396 H 0.90199 0.9328 0.11842 0.0
H397 H 0.94894 0.04133 0.25065 0.0
H398 H 0.9528 0.00768 0.14014 0.0
H399 H 0.92614 0.95356 0.23102 0.0
C400 C 0.90737 0.92267 0.19843 0.0
C401 C 0.89995 0.91637 0.1666 0.0
C402 C 0.9522 0.01484 0.16448 0.0
C403 C 0.92725 0.96889 0.18222 0.0
C404 C 0.96224 0.04227 0.17094 0.0
C405 C 0.96124 0.05247 0.20206 0.0
C406 C 0.94081 -0.00268 0.18926 0.0
C407 C 0.95075 0.0341 0.22645 0.0
C408 C 0.9208 0.94896 0.20636 0.0
C409 C 0.90678 0.93689 0.14329 0.0
N410 N 0.94074 0.00738 0.21952 0.0
N411 N 0.92006 0.96212 0.15156 0.0
H412 H 0.96028 0.0836 0.6503 0.0
H413 H 0.94587 0.94824 0.76447 0.0
H414 H 0.89193 0.07823 0.72911 0.0
H415 H 0.99204 0.94904 0.67221 0.0
H416 H 0.93659 -0.00078 0.75918 0.0
H417 H 0.98234 0.03776 0.66537 0.0
C418 C 0.95022 0.07299 0.6711 0.0
C419 C 0.92403 0.08478 0.68835 0.0
C420 C 0.94929 0.98829 0.74039 0.0
C421 C 0.94902 0.0319 0.70553 0.0
C422 C 0.95487 0.95935 0.74355 0.0
C423 C 0.96979 0.94466 0.71873 0.0
C424 C 0.95879 0.00238 0.71223 0.0
C425 C 0.98045 0.95974 0.69183 0.0
C426 C 0.96272 0.0467 0.67958 0.0
C427 C 0.91175 0.06975 0.71483 0.0
N428 N 0.97458 0.98772 0.68921 0.0
N429 N 0.92421 0.044 0.72252 0.0
H430 H 0.6121 0.42322 0.20211 0.0
H431 H 0.49852 0.55323 0.1508 0.0
H432 H 0.59085 0.4495 0.10553 0.0
H433 H 0.53694 0.54292 0.24597 0.0
H434 H 0.52061 0.5074 0.13711 0.0
H435 H 0.57511 0.46016 0.22108 0.0
C436 C 0.59959 0.43649 0.18484 0.0
C437 C 0.605 0.43314 0.15204 0.0
C438 C 0.52385 0.51486 0.16116 0.0
C439 C 0.56203 0.47499 0.17373 0.0
C440 C 0.51108 0.54095 0.16901 0.0
C441 C 0.5162 0.55186 0.19943 0.0
C442 C 0.54246 0.49968 0.18373 0.0
C443 C 0.53248 0.53513 0.22223 0.0
C444 C 0.57829 0.45743 0.19575 0.0
C445 C 0.58735 0.45069 0.13095 0.0
N446 N 0.5456 0.50996 0.21377 0.0
N447 N 0.56692 0.47081 0.14216 0.0
H448 H 0.423 0.4203 0.37568 0.0
H449 H 0.45837 0.53654 0.24181 0.0
H450 H 0.4154 0.4014 0.27585 0.0
H451 H 0.48414 0.54541 0.34081 0.0
H452 H 0.44488 0.48666 0.25194 0.0
H453 H 0.44591 0.46638 0.36211 0.0
C454 C 0.426 0.42593 0.35084 0.0
C455 C 0.41695 0.40706 0.32688 0.0
C456 C 0.45403 0.49946 0.27128 0.0
C457 C 0.44366 0.45997 0.311 0.0
C458 C 0.46204 0.52782 0.26543 0.0
C459 C 0.47233 0.54509 0.29054 0.0
C460 C 0.45605 0.4886 0.30247 0.0
C461 C 0.47602 0.5329 0.32082 0.0
C462 C 0.43942 0.4522 0.34306 0.0
C463 C 0.4221 0.41533 0.29507 0.0
N464 N 0.46758 0.50558 0.32597 0.0
N465 N 0.43486 0.44129 0.288 0.0
H466 H 0.10831 0.0647 0.79724 0.0
H467 H 0.98545 0.93863 0.84473 0.0
H468 H 0.07699 0.04279 0.89262 0.0
H469 H 0.03857 0.94138 0.75591 0.0
H470 H 0.00547 0.98595 0.85631 0.0
H471 H 0.07138 0.02776 0.7768 0.0
C472 C 0.09357 0.05244 0.81393 0.0
C473 C 0.09636 0.05684 0.8469 0.0
C474 C 0.01229 0.9765 0.83397 0.0
C475 C 0.05334 0.01513 0.82338 0.0
C476 C 0.00074 0.94957 0.82731 0.0
C477 C 0.01072 0.93612 0.79953 0.0
C478 C 0.03449 0.98995 0.81296 0.0
C479 C 0.03041 0.95115 0.77762 0.0
C480 C 0.07231 0.03152 0.80213 0.0
C481 C 0.07573 0.04071 0.86708 0.0
N482 N 0.04224 0.97721 0.78507 0.0
N483 N 0.0554 0.02054 0.85501 0.0
H484 H 0.14315 0.20546 0.02428 0.0
H485 H 0.09144 0.14194 0.19403 0.0
H486 H 0.17745 0.12588 0.06197 0.0
H487 H 0.03274 0.2023 0.14165 0.0
H488 H 0.13473 0.14581 0.15321 0.0
H489 H 0.11328 0.21314 0.07393 0.0
C490 C 0.14469 0.18966 0.04293 0.0
C491 C 0.16265 0.16476 0.03848 0.0
C492 C 0.11272 0.15871 0.1511 0.0
C493 C 0.12908 0.17389 0.09579 0.0
C494 C 0.08821 0.15679 0.1746 0.0
C495 C 0.05841 0.1717 0.17106 0.0
C496 C 0.10738 0.1758 0.12412 0.0
C497 C 0.05529 0.19028 0.14509 0.0
C498 C 0.12781 0.19422 0.07139 0.0
C499 C 0.16433 0.14553 0.06411 0.0
N500 N 0.07926 0.19157 0.12241 0.0
N501 N 0.14757 0.1504 0.09147 0.0
H502 H 0.34801 0.34025 0.51491 0.0
H503 H 0.43856 0.28933 0.67504 0.0
H504 H 0.39586 0.2598 0.52555 0.0
H505 H 0.41611 0.37551 0.65149 0.0
H506 H 0.4084 0.27442 0.62689 0.0
H507 H 0.35857 0.34935 0.57112 0.0
C508 C 0.36015 0.32424 0.5292 0.0
C509 C 0.37142 0.29936 0.51539 0.0
C510 C 0.4094 0.29653 0.63276 0.0
C511 C 0.38387 0.30977 0.57976 0.0
C512 C 0.42622 0.30497 0.66037 0.0
C513 C 0.42988 0.33366 0.66698 0.0
C514 C 0.39595 0.31698 0.61209 0.0
C515 C 0.41393 0.35318 0.64704 0.0
C516 C 0.36635 0.32952 0.56126 0.0
C517 C 0.38731 0.2795 0.5351 0.0
N518 N 0.39796 0.34453 0.62035 0.0
N519 N 0.39334 0.28523 0.56621 0.0
H520 H 0.64859 0.28207 0.97863 0.0
H521 H 0.59329 0.34902 0.81146 0.0
H522 H 0.68302 0.36263 0.94279 0.0
H523 H 0.53886 0.28323 0.8603 0.0
H524 H 0.63725 0.34581 0.85207 0.0
H525 H 0.61832 0.27491 0.9288 0.0
C526 C 0.65005 0.2982 0.96032 0.0
C527 C 0.66818 0.32319 0.96533 0.0
C528 C 0.61608 0.33158 0.85342 0.0
C529 C 0.63398 0.31477 0.90784 0.0
C530 C 0.59126 0.33313 0.83001 0.0
C531 C 0.56252 0.31632 0.83258 0.0
C532 C 0.61203 0.31303 0.87941 0.0
C533 C 0.56069 0.29656 0.85752 0.0
C534 C 0.63292 0.29396 0.93176 0.0
C535 C 0.66972 0.34291 0.94017 0.0
N536 N 0.58489 0.29566 0.88017 0.0
N537 N 0.65263 0.33839 0.91271 0.0
H538 H 0.92807 0.17095 0.50282 0.0
H539 H 0.90372 0.1546 0.32381 0.0
H540 H 0.83032 0.1945 0.46956 0.0
H541 H 0.98704 0.20119 0.36196 0.0
H542 H 0.87261 0.16361 0.3732 0.0
H543 H 0.94825 0.17311 0.44827 0.0
C544 C 0.91076 0.17633 0.48393 0.0
C545 C 0.87746 0.18242 0.49064 0.0
C546 C 0.89725 0.17266 0.37008 0.0
C547 C 0.9005 0.18503 0.42812 0.0
C548 C 0.91486 0.16778 0.34188 0.0
C549 C 0.94811 0.17691 0.33909 0.0
C550 C 0.91345 0.18634 0.39531 0.0
C551 C 0.96159 0.19353 0.36336 0.0
C552 C 0.92236 0.17784 0.4529 0.0
C553 C 0.8562 0.18968 0.46523 0.0
N554 N 0.94461 0.19704 0.39077 0.0
N555 N 0.86799 0.1905 0.43481 0.0
H556 H 0.83576 0.84428 0.96566 0.0
H557 H 0.94492 0.77036 0.84066 0.0
H558 H 0.86087 0.75658 0.97413 0.0
H559 H 0.89165 0.8464 0.81927 0.0
H560 H 0.90701 0.76081 0.88483 0.0
H561 H 0.8494 0.843 0.9091 0.0
C562 C 0.8436 0.82462 0.9554 0.0
C563 C 0.84751 0.80058 0.97458 0.0
C564 C 0.90267 0.77905 0.8698 0.0
C565 C 0.86359 0.79896 0.90998 0.0
C566 C 0.92402 0.78424 0.84424 0.0
C567 C 0.92119 0.8091 0.82629 0.0
C568 C 0.87902 0.79934 0.87791 0.0
C569 C 0.89435 0.82685 0.83241 0.0
C570 C 0.85123 0.82383 0.92309 0.0
C571 C 0.85751 0.77558 0.96014 0.0
N572 N 0.87489 0.8221 0.85835 0.0
N573 N 0.86588 0.77556 0.92883 0.0
H574 H 0.61109 0.70819 0.48469 0.0
H575 H 0.58328 0.65153 0.30853 0.0
H576 H 0.67341 0.6464 0.44045 0.0
H577 H 0.51181 0.70007 0.36034 0.0
H578 H 0.62438 0.66014 0.35074 0.0
H579 H 0.58208 0.71507 0.4341 0.0
C580 C 0.61889 0.69623 0.4643 0.0
C581 C 0.64442 0.67635 0.46706 0.0
C582 C 0.59995 0.66949 0.35246 0.0
C583 C 0.61142 0.68432 0.40888 0.0
C584 C 0.57666 0.66489 0.32817 0.0
C585 C 0.54409 0.67493 0.33115 0.0
C586 C 0.59047 0.68428 0.37971 0.0
C587 C 0.53661 0.69172 0.35734 0.0
C588 C 0.60243 0.70029 0.43535 0.0
C589 C 0.65395 0.662 0.43953 0.0
N590 N 0.55944 0.69554 0.38081 0.0
N591 N 0.63718 0.66599 0.41173 0.0
H592 H 0.33523 0.63476 0.02882 0.0
H593 H 0.44628 0.71237 0.15241 0.0
H594 H 0.35776 0.72336 0.02072 0.0
H595 H 0.39467 0.63522 0.17586 0.0
H596 H 0.40816 0.71968 0.10775 0.0
H597 H 0.35141 0.636 0.08494 0.0
C598 C 0.34306 0.65457 0.03903 0.0
C599 C 0.34548 0.67893 0.02004 0.0
C600 C 0.40437 0.70158 0.12318 0.0
C601 C 0.36432 0.68049 0.08412 0.0
C602 C 0.42597 0.69757 0.14884 0.0
C603 C 0.42346 0.67323 0.16774 0.0
C604 C 0.38086 0.68057 0.11577 0.0
C605 C 0.39716 0.65438 0.1619 0.0
C606 C 0.35211 0.65532 0.0711 0.0
C607 C 0.35547 0.7041 0.03451 0.0
N608 N 0.37739 0.65803 0.13584 0.0
N609 N 0.36513 0.70411 0.06552 0.0
H610 H 0.17609 0.82837 0.55186 0.0
H611 H -0.00615 0.80477 0.62317 0.0
H612 H 0.08879 0.80725 0.49647 0.0
H613 H 0.07714 0.83339 0.67965 0.0
H614 H 0.03127 0.79707 0.57884 0.0
H615 H 0.14309 0.82299 0.60038 0.0
C616 C 0.15006 0.82245 0.54984 0.0
C617 C 0.13519 0.81859 0.51985 0.0
C618 C 0.04159 0.80465 0.601 0.0
C619 C 0.09738 0.81204 0.57547 0.0
C620 C 0.02022 0.80893 0.62645 0.0
C621 C 0.03233 0.82003 0.65509 0.0
C622 C 0.07545 0.81178 0.60392 0.0
C623 C 0.06676 0.82482 0.658 0.0
C624 C 0.1313 0.81922 0.57761 0.0
C625 C 0.10153 0.81028 0.5189 0.0
N626 N 0.08709 0.8211 0.6325 0.0
N627 N 0.08379 0.80754 0.54621 0.0
H628 H 0.26939 0.19815 0.31069 0.0
H629 H 0.0819 0.20511 0.24656 0.0
H630 H 0.21738 0.2762 0.29588 0.0
H631 H 0.13295 0.12936 0.27423 0.0
H632 H 0.13463 0.23153 0.25229 0.0
H633 H 0.22303 0.17299 0.2862 0.0
C634 C 0.24814 0.21001 0.30225 0.0
C635 C 0.24695 0.23925 0.30595 0.0
C636 C 0.13441 0.20901 0.25634 0.0
C637 C 0.19353 0.21049 0.27762 0.0
C638 C 0.10446 0.19392 0.2527 0.0
C639 C 0.10321 0.16513 0.26022 0.0
C640 C 0.16306 0.195 0.26732 0.0
C641 C 0.13292 0.1516 0.26846 0.0
C642 C 0.22171 0.19565 0.28805 0.0
C643 C 0.21918 0.25361 0.29369 0.0
N644 N 0.16148 0.16667 0.27214 0.0
N645 N 0.19331 0.23904 0.28046 0.0
H646 H 0.33479 0.16902 0.8224 0.0
H647 H 0.36075 0.32417 0.76724 0.0
H648 H 0.252 0.22556 0.80962 0.0
H649 H 0.43343 0.26006 0.75047 0.0
H650 H 0.31817 0.28772 0.77507 0.0
H651 H 0.3692 0.20041 0.79031 0.0
C652 C 0.32352 0.18774 0.81243 0.0
C653 C 0.29031 0.19464 0.81921 0.0
C654 C 0.34312 0.28153 0.76858 0.0
C655 C 0.33027 0.23127 0.7828 0.0
C656 C 0.3673 0.30237 0.76373 0.0
C657 C 0.40042 0.29497 0.75803 0.0
C658 C 0.35253 0.25315 0.76875 0.0
C659 C 0.40799 0.26651 0.7545 0.0
C660 C 0.34336 0.20576 0.79407 0.0
C661 C 0.27764 0.21962 0.80589 0.0
N662 N 0.38439 0.24653 0.76075 0.0
N663 N 0.29776 0.23721 0.78877 0.0
H664 H 0.74796 0.23864 0.73705 0.0
H665 H 0.55947 0.27304 0.68998 0.0
H666 H 0.70097 0.21803 0.64761 0.0
H667 H 0.60991 0.31448 0.76724 0.0
H668 H 0.60812 0.24381 0.68209 0.0
H669 H 0.69539 0.25887 0.75488 0.0
C670 C 0.72671 0.23823 0.72114 0.0
C671 C 0.72926 0.22672 0.69053 0.0
C672 C 0.60856 0.259 0.70108 0.0
C673 C 0.66877 0.24926 0.71131 0.0
C674 C 0.5807 0.27561 0.70571 0.0
C675 C 0.58081 0.29634 0.72915 0.0
C676 C 0.63712 0.26328 0.71978 0.0
C677 C 0.60882 0.29863 0.74904 0.0
C678 C 0.69665 0.24963 0.73151 0.0
C679 C 0.70045 0.22623 0.67148 0.0
N680 N 0.63619 0.28256 0.74359 0.0
N681 N 0.67161 0.23741 0.68213 0.0
H682 H 0.83812 0.31503 0.18525 0.0
H683 H 0.85889 0.15858 0.23714 0.0
H684 H 0.75385 0.25839 0.19415 0.0
H685 H 0.93296 0.22185 0.25777 0.0
H686 H 0.81763 0.19541 0.22885 0.0
H687 H 0.87117 0.28281 0.21734 0.0
C688 C 0.82624 0.2961 0.19436 0.0
C689 C 0.79302 0.28943 0.18649 0.0
C690 C 0.84258 0.20133 0.23623 0.0
C691 C 0.83139 0.2519 0.22291 0.0
C692 C 0.86601 0.18026 0.24133 0.0
C693 C 0.89922 0.18729 0.2482 0.0
C694 C 0.85278 0.22964 0.23702 0.0
C695 C 0.90747 0.21564 0.25275 0.0
C696 C 0.84529 0.27761 0.21272 0.0
C697 C 0.77952 0.26419 0.19874 0.0
N698 N 0.88462 0.23589 0.24619 0.0
N699 N 0.79887 0.24619 0.21589 0.0
H700 H 0.81945 0.68022 0.68623 0.0
H701 H 0.8449 0.83815 0.72952 0.0
H702 H 0.73866 0.73962 0.68614 0.0
H703 H 0.91621 0.77452 0.75506 0.0
H704 H 0.80274 0.80159 0.72175 0.0
H705 H 0.85265 0.71268 0.71791 0.0
C706 C 0.80838 0.69985 0.6933 0.0
C707 C 0.77626 0.70729 0.68297 0.0
C708 C 0.82731 0.79554 0.72987 0.0
C709 C 0.81462 0.74491 0.71893 0.0
C710 C 0.85131 0.81645 0.7345 0.0
C711 C 0.88408 0.80921 0.74247 0.0
C712 C 0.83648 0.76717 0.73237 0.0
C713 C 0.8912 0.78089 0.74874 0.0
C714 C 0.82746 0.71845 0.71141 0.0
C715 C 0.7636 0.73325 0.6927 0.0
N716 N 0.8678 0.76075 0.74266 0.0
N717 N 0.78297 0.75126 0.7097 0.0
H718 H 0.6949 0.7891 0.17575 0.0
H719 H 0.61893 0.65029 0.25211 0.0
H720 H 0.75548 0.72167 0.21293 0.0
H721 H 0.56076 0.72337 0.2292 0.0
H722 H 0.66991 0.67857 0.24622 0.0
H723 H 0.64651 0.76812 0.20192 0.0
C724 C 0.69823 0.77011 0.18978 0.0
C725 C 0.72941 0.75699 0.19166 0.0
C726 C 0.64602 0.68871 0.24343 0.0
C727 C 0.67366 0.73248 0.22141 0.0
C728 C 0.61695 0.67263 0.24723 0.0
C729 C 0.58579 0.68472 0.24155 0.0
C730 C 0.64375 0.71685 0.23303 0.0
C731 C 0.58443 0.71348 0.23425 0.0
C732 C 0.67046 0.75806 0.20469 0.0
C733 C 0.73185 0.73218 0.21001 0.0
N734 N 0.61302 0.72848 0.22961 0.0
N735 N 0.70433 0.72059 0.22381 0.0
H736 H 0.23577 0.72925 0.32405 0.0
H737 H 0.40754 0.70645 0.23459 0.0
H738 H 0.29646 0.79709 0.28666 0.0
H739 H 0.34953 0.64083 0.27985 0.0
H740 H 0.36032 0.73853 0.24033 0.0
H741 H 0.27043 0.69573 0.296 0.0
C742 C 0.25624 0.73709 0.30967 0.0
C743 C 0.26358 0.76593 0.30811 0.0
C744 C 0.35762 0.71689 0.24821 0.0
C745 C 0.3036 0.72768 0.27601 0.0
C746 C 0.38442 0.69853 0.2446 0.0
C747 C 0.38245 0.67117 0.25724 0.0
C748 C 0.32888 0.70762 0.26446 0.0
C749 C 0.35212 0.66194 0.27021 0.0
C750 C 0.27596 0.71797 0.29353 0.0
C751 C 0.28999 0.77499 0.28859 0.0
N752 N 0.32674 0.68022 0.27396 0.0
N753 N 0.30941 0.7559 0.27372 0.0
H754 H 0.22603 0.77116 0.85441 0.0
H755 H 0.08024 0.7875 0.72452 0.0
H756 H 0.215 0.71234 0.77762 0.0
H757 H 0.09104 0.83487 0.81101 0.0
H758 H 0.13193 0.76196 0.73867 0.0
H759 H 0.1784 0.79679 0.83445 0.0
C760 C 0.21366 0.76373 0.83312 0.0
C761 C 0.22474 0.73972 0.81752 0.0
C762 C 0.12281 0.77808 0.75429 0.0
C763 C 0.16934 0.76897 0.79444 0.0
C764 C 0.09362 0.79276 0.74609 0.0
C765 C 0.08124 0.81318 0.76668 0.0
C766 C 0.13939 0.78421 0.78304 0.0
C767 C 0.09935 0.81914 0.79445 0.0
C768 C 0.18623 0.77833 0.82174 0.0
C769 C 0.20713 0.73074 0.79041 0.0
N770 N 0.12715 0.8047 0.80178 0.0
N771 N 0.18024 0.74543 0.77961 0.0
loop_
_geom_bond_atom_site_label_1
_geom_bond_atom_site_label_2
_geom_bond_distance
_geom_bond_site_symmetry_2
_ccdc_geom_bond_type
P0 O11 1.490 . S
P0 C14 1.812 . S
P0 C20 1.803 . S
P0 C26 1.819 . S
H1 C15 0.941 . S
H2 C16 0.939 . S
H3 C18 0.940 . S
H4 C19 0.940 . S
H5 C21 0.939 . S
H6 C22 0.942 . S
H7 C24 0.940 . S
H8 C25 0.939 . S
H9 C27 0.941 . S
H10 C31 0.939 . S
O11 P0 1.490 . S
H12 C28 0.939 . S
H13 C30 0.940 . S
C14 P0 1.812 . S
C14 C15 1.389 . S
C14 C19 1.391 . S
C15 H1 0.941 . S
C15 C14 1.389 . S
C15 C16 1.397 . S
C16 H2 0.939 . S
C16 C15 1.397 . S
C16 C17 1.378 . S
C17 C16 1.378 . S
C17 C18 1.378 . S
C18 H3 0.940 . S
C18 C17 1.378 . S
C18 C19 1.396 . S
C19 H4 0.940 . S
C19 C14 1.391 . S
C19 C18 1.396 . S
C20 P0 1.803 . S
C20 C21 1.378 . S
C20 C25 1.400 . S
C21 H5 0.939 . S
C21 C20 1.378 . S
C21 C22 1.361 . S
C22 H6 0.942 . S
C22 C21 1.361 . S
C22 C23 1.369 . S
C23 C22 1.369 . S
C23 C24 1.404 . S
C24 H7 0.940 . S
C24 C23 1.404 . S
C24 C25 1.389 . S
C25 H8 0.939 . S
C25 C20 1.400 . S
C25 C24 1.389 . S
C26 P0 1.819 . S
C26 C27 1.391 . S
C26 C31 1.391 . S
C27 H9 0.941 . S
C27 C26 1.391 . S
C27 C28 1.396 . S
C28 H12 0.939 . S
C28 C27 1.396 . S
C28 C29 1.397 . S
C29 C28 1.397 . S
C29 C30 1.385 . S
C30 H13 0.940 . S
C30 C29 1.385 . S
C30 C31 1.388 . S
C31 H10 0.939 . S
C31 C26 1.391 . S
C31 C30 1.388 . S
P32 O43 1.490 . S
P32 C46 1.812 . S
P32 C52 1.803 . S
P32 C58 1.819 . S
H33 C47 0.941 . S
H34 C48 0.939 . S
H35 C50 0.940 . S
H36 C51 0.940 . S
H37 C53 0.939 . S
H38 C54 0.942 . S
H39 C56 0.940 . S
H40 C57 0.939 . S
H41 C59 0.941 . S
H42 C63 0.939 . S
O43 P32 1.490 . S
H44 C60 0.959 . S
H45 C62 0.940 . S
C46 P32 1.812 . S
C46 C47 1.389 . S
C46 C51 1.391 . S
C47 H33 0.941 . S
C47 C46 1.389 . S
C47 C48 1.397 . S
C48 H34 0.939 . S
C48 C47 1.397 . S
C48 C49 1.378 . S
C49 C48 1.378 . S
C49 C50 1.378 . S
C50 H35 0.940 . S
C50 C49 1.378 . S
C50 C51 1.396 . S
C51 H36 0.940 . S
C51 C46 1.391 . S
C51 C50 1.396 . S
C52 P32 1.803 . S
C52 C53 1.378 . S
C52 C57 1.400 . S
C53 H37 0.939 . S
C53 C52 1.378 . S
C53 C54 1.361 . S
C54 H38 0.942 . S
C54 C53 1.361 . S
C54 C55 1.369 . S
C55 C54 1.369 . S
C55 C56 1.404 . S
C56 H39 0.940 . S
C56 C55 1.404 . S
C56 C57 1.389 . S
C57 H40 0.939 . S
C57 C52 1.400 . S
C57 C56 1.389 . S
C58 P32 1.819 . S
C58 C59 1.391 . S
C58 C63 1.391 . S
C59 H41 0.941 . S
C59 C58 1.391 . S
C59 C60 1.396 . S
C60 H44 0.959 . S
C60 C59 1.396 . S
C60 C61 1.397 . S
C61 C60 1.397 . S
C61 C62 1.385 . S
C62 H45 0.940 . S
C62 C61 1.385 . S
C62 C63 1.388 . S
C63 H42 0.939 . S
C63 C58 1.391 . S
C63 C62 1.388 . S
P64 O75 1.490 . S
P64 C78 1.812 . S
P64 C84 1.803 . S
P64 C90 1.819 . S
H65 C79 0.941 . S
H66 C80 0.939 . S
H67 C82 0.940 . S
H68 C83 0.940 . S
H69 C85 0.939 . S
H70 C86 0.942 . S
H71 C88 0.940 . S
H72 C89 0.939 . S
H73 C91 0.941 . S
H74 C95 0.939 . S
O75 P64 1.490 . S
H76 C92 0.939 . S
H77 C94 0.940 . S
C78 P64 1.812 . S
C78 C79 1.389 . S
C78 C83 1.391 . S
C79 H65 0.941 . S
C79 C78 1.389 . S
C79 C80 1.397 . S
C80 H66 0.939 . S
C80 C79 1.397 . S
C80 C81 1.378 . S
C81 C80 1.378 . S
C81 C82 1.378 . S
C82 H67 0.940 . S
C82 C81 1.378 . S
C82 C83 1.396 . S
C83 H68 0.940 . S
C83 C78 1.391 . S
C83 C82 1.396 . S
C84 P64 1.803 . S
C84 C85 1.378 . S
C84 C89 1.400 . S
C85 H69 0.939 . S
C85 C84 1.378 . S
C85 C86 1.361 . S
C86 H70 0.942 . S
C86 C85 1.361 . S
C86 C87 1.369 . S
C87 C86 1.369 . S
C87 C88 1.404 . S
C88 H71 0.940 . S
C88 C87 1.404 . S
C88 C89 1.389 . S
C89 H72 0.939 . S
C89 C84 1.400 . S
C89 C88 1.389 . S
C90 P64 1.819 . S
C90 C91 1.391 . S
C90 C95 1.391 . S
C91 H73 0.941 . S
C91 C90 1.391 . S
C91 C92 1.396 . S
C92 H76 0.939 . S
C92 C91 1.396 . S
C92 C93 1.397 . S
C93 C92 1.397 . S
C93 C94 1.385 . S
C94 H77 0.940 . S
C94 C93 1.385 . S
C94 C95 1.388 . S
C95 H74 0.939 . S
C95 C90 1.391 . S
C95 C94 1.388 . S
P96 O107 1.490 . S
P96 C110 1.812 . S
P96 C116 1.803 . S
P96 C122 1.819 . S
H97 C111 0.941 . S
H98 C112 0.939 . S
H99 C114 0.940 . S
H100 C115 0.940 . S
H101 C117 0.939 . S
H102 C118 0.942 . S
H103 C120 0.940 . S
H104 C121 0.939 . S
H105 C123 0.941 . S
H106 C127 0.939 . S
O107 P96 1.490 . S
H108 C124 0.939 . S
H109 C126 0.940 . S
C110 P96 1.812 . S
C110 C111 1.389 . S
C110 C115 1.391 . S
C111 H97 0.941 . S
C111 C110 1.389 . S
C111 C112 1.397 . S
C112 H98 0.939 . S
C112 C111 1.397 . S
C112 C113 1.378 . S
C113 C112 1.378 . S
C113 C114 1.378 . S
C114 H99 0.940 . S
C114 C113 1.378 . S
C114 C115 1.396 . S
C115 H100 0.940 . S
C115 C110 1.391 . S
C115 C114 1.396 . S
C116 P96 1.803 . S
C116 C117 1.378 . S
C116 C121 1.400 . S
C117 H101 0.939 . S
C117 C116 1.378 . S
C117 C118 1.361 . S
C118 H102 0.942 . S
C118 C117 1.361 . S
C118 C119 1.369 . S
C119 C118 1.369 . S
C119 C120 1.404 . S
C120 H103 0.940 . S
C120 C119 1.404 . S
C120 C121 1.389 . S
C121 H104 0.939 . S
C121 C116 1.400 . S
C121 C120 1.389 . S
C122 P96 1.819 . S
C122 C123 1.391 . S
C122 C127 1.391 . S
C123 H105 0.941 . S
C123 C122 1.391 . S
C123 C124 1.396 . S
C124 H108 0.939 . S
C124 C123 1.396 . S
C124 C125 1.397 . S
C125 C124 1.397 . S
C125 C126 1.385 . S
C126 H109 0.940 . S
C126 C125 1.385 . S
C126 C127 1.388 . S
C127 H106 0.939 . S
C127 C122 1.391 . S
C127 C126 1.388 . S
P128 O139 1.490 . S
P128 C142 1.812 . S
P128 C148 1.803 . S
P128 C154 1.819 . S
H129 C143 0.941 . S
H130 C144 0.939 . S
H131 C146 0.940 . S
H132 C147 0.940 . S
H133 C149 0.939 . S
H134 C150 0.942 . S
H135 C152 0.940 . S
H136 C153 0.939 . S
H137 C155 0.941 . S
H138 C159 0.939 . S
O139 P128 1.490 . S
H140 C156 0.939 . S
H141 C158 0.940 . S
C142 P128 1.812 . S
C142 C143 1.389 . S
C142 C147 1.391 . S
C143 H129 0.941 . S
C143 C142 1.389 . S
C143 C144 1.397 . S
C144 H130 0.939 . S
C144 C143 1.397 . S
C144 C145 1.378 . S
C145 C144 1.378 . S
C145 C146 1.378 . S
C146 H131 0.940 . S
C146 C145 1.378 . S
C146 C147 1.396 . S
C147 H132 0.940 . S
C147 C142 1.391 . S
C147 C146 1.396 . S
C148 P128 1.803 . S
C148 C149 1.378 . S
C148 C153 1.400 . S
C149 H133 0.939 . S
C149 C148 1.378 . S
C149 C150 1.361 . S
C150 H134 0.942 . S
C150 C149 1.361 . S
C150 C151 1.369 . S
C151 C150 1.369 . S
C151 C152 1.404 . S
C152 H135 0.940 . S
C152 C151 1.404 . S
C152 C153 1.389 . S
C153 H136 0.939 . S
C153 C148 1.400 . S
C153 C152 1.389 . S
C154 P128 1.819 . S
C154 C155 1.391 . S
C154 C159 1.391 . S
C155 H137 0.941 . S
C155 C154 1.391 . S
C155 C156 1.396 . S
C156 H140 0.939 . S
C156 C155 1.396 . S
C156 C157 1.397 . S
C157 C156 1.397 . S
C157 C158 1.385 . S
C158 H141 0.940 . S
C158 C157 1.385 . S
C158 C159 1.388 . S
C159 H138 0.939 . S
C159 C154 1.391 . S
C159 C158 1.388 . S
P160 O171 1.490 . S
P160 C174 1.812 . S
P160 C180 1.803 . S
P160 C186 1.819 . S
H161 C175 0.941 . S
H162 C176 0.939 . S
H163 C178 0.940 . S
H164 C179 0.940 . S
H165 C181 0.939 . S
H166 C182 0.942 . S
H167 C184 0.940 . S
H168 C185 0.939 . S
H169 C187 0.941 . S
H170 C191 0.939 . S
O171 P160 1.490 . S
H172 C188 0.939 . S
H173 C190 0.940 . S
C174 P160 1.812 . S
C174 C175 1.389 . S
C174 C179 1.391 . S
C175 H161 0.941 . S
C175 C174 1.389 . S
C175 C176 1.397 . S
C176 H162 0.939 . S
C176 C175 1.397 . S
C176 C177 1.378 . S
C177 C176 1.378 . S
C177 C178 1.378 . S
C178 H163 0.940 . S
C178 C177 1.378 . S
C178 C179 1.396 . S
C179 H164 0.940 . S
C179 C174 1.391 . S
C179 C178 1.396 . S
C180 P160 1.803 . S
C180 C181 1.378 . S
C180 C185 1.400 . S
C181 H165 0.939 . S
C181 C180 1.378 . S
C181 C182 1.361 . S
C182 H166 0.942 . S
C182 C181 1.361 . S
C182 C183 1.369 . S
C183 C182 1.369 . S
C183 C184 1.404 . S
C184 H167 0.940 . S
C184 C183 1.404 . S
C184 C185 1.389 . S
C185 H168 0.939 . S
C185 C180 1.400 . S
C185 C184 1.389 . S
C186 P160 1.819 . S
C186 C187 1.391 . S
C186 C191 1.391 . S
C187 H169 0.941 . S
C187 C186 1.391 . S
C187 C188 1.396 . S
C188 H172 0.939 . S
C188 C187 1.396 . S
C188 C189 1.397 . S
C189 C188 1.397 . S
C189 C190 1.385 . S
C190 H173 0.940 . S
C190 C189 1.385 . S
C190 C191 1.388 . S
C191 H170 0.939 . S
C191 C186 1.391 . S
C191 C190 1.388 . S
P192 O203 1.490 . S
P192 C206 1.812 . S
P192 C212 1.803 . S
P192 C218 1.819 . S
H193 C207 0.941 . S
H194 C208 0.939 . S
H195 C210 0.940 . S
H196 C211 0.940 . S
H197 C213 0.939 . S
H198 C214 0.942 . S
H199 C216 0.940 . S
H200 C217 0.939 . S
H201 C219 0.941 . S
H202 C223 0.939 . S
O203 P192 1.490 . S
H204 C220 0.939 . S
H205 C222 0.940 . S
C206 P192 1.812 . S
C206 C207 1.389 . S
C206 C211 1.391 . S
C207 H193 0.941 . S
C207 C206 1.389 . S
C207 C208 1.397 . S
C208 H194 0.939 . S
C208 C207 1.397 . S
C208 C209 1.378 . S
C209 C208 1.378 . S
C209 C210 1.378 . S
C210 H195 0.940 . S
C210 C209 1.378 . S
C210 C211 1.396 . S
C211 H196 0.940 . S
C211 C206 1.391 . S
C211 C210 1.396 . S
C212 P192 1.803 . S
C212 C213 1.378 . S
C212 C217 1.400 . S
C213 H197 0.939 . S
C213 C212 1.378 . S
C213 C214 1.361 . S
C214 H198 0.942 . S
C214 C213 1.361 . S
C214 C215 1.369 . S
C215 C214 1.369 . S
C215 C216 1.404 . S
C216 H199 0.940 . S
C216 C215 1.404 . S
C216 C217 1.389 . S
C217 H200 0.939 . S
C217 C212 1.400 . S
C217 C216 1.389 . S
C218 P192 1.819 . S
C218 C219 1.391 . S
C218 C223 1.391 . S
C219 H201 0.941 . S
C219 C218 1.391 . S
C219 C220 1.396 . S
C220 H204 0.939 . S
C220 C219 1.396 . S
C220 C221 1.397 . S
C221 C220 1.397 . S
C221 C222 1.385 . S
C222 H205 0.940 . S
C222 C221 1.385 . S
C222 C223 1.388 . S
C223 H202 0.939 . S
C223 C218 1.391 . S
C223 C222 1.388 . S
P224 O235 1.490 . S
P224 C238 1.812 . S
P224 C244 1.803 . S
P224 C250 1.819 . S
H225 C239 0.941 . S
H226 C240 0.939 . S
H227 C242 0.940 . S
H228 C243 0.940 . S
H229 C245 0.939 . S
H230 C246 0.942 . S
H231 C248 0.940 . S
H232 C249 0.939 . S
H233 C251 0.941 . S
H234 C255 0.939 . S
O235 P224 1.490 . S
H236 C252 0.939 . S
H237 C254 0.940 . S
C238 P224 1.812 . S
C238 C239 1.389 . S
C238 C243 1.391 . S
C239 H225 0.941 . S
C239 C238 1.389 . S
C239 C240 1.397 . S
C240 H226 0.939 . S
C240 C239 1.397 . S
C240 C241 1.378 . S
C241 C240 1.378 . S
C241 C242 1.378 . S
C242 H227 0.940 . S
C242 C241 1.378 . S
C242 C243 1.396 . S
C243 H228 0.940 . S
C243 C238 1.391 . S
C243 C242 1.396 . S
C244 P224 1.803 . S
C244 C245 1.378 . S
C244 C249 1.400 . S
C245 H229 0.939 . S
C245 C244 1.378 . S
C245 C246 1.361 . S
C246 H230 0.942 . S
C246 C245 1.361 . S
C246 C247 1.369 . S
C247 C246 1.369 . S
C247 C248 1.404 . S
C248 H231 0.940 . S
C248 C247 1.404 . S
C248 C249 1.389 . S
C249 H232 0.939 . S
C249 C244 1.400 . S
C249 C248 1.389 . S
C250 P224 1.819 . S
C250 C251 1.391 . S
C250 C255 1.391 . S
C251 H233 0.941 . S
C251 C250 1.391 . S
C251 C252 1.396 . S
C252 H236 0.939 . S
C252 C251 1.396 . S
C252 C253 1.397 . S
C253 C252 1.397 . S
C253 C254 1.385 . S
C254 H237 0.940 . S
C254 C253 1.385 . S
C254 C255 1.388 . S
C255 H234 0.939 . S
C255 C250 1.391 . S
C255 C254 1.388 . S
Zn256 O262 1.920 . S
Zn256 O268 1.898 . S
Zn256 O271 1.905 . S
Zn257 O265 1.905 1_655 S
Zn257 O266 1.898 . S
Zn257 O274 1.920 . S
Zn258 O261 2.080 1_455 S
Zn258 O264 2.114 . S
Zn258 O267 2.120 1_455 S
Zn258 O269 2.120 . S
Zn258 O270 2.114 . S
Zn258 O273 2.080 1_455 S
C259 O264 1.166 . S
C259 O265 1.182 . S
C260 O266 1.167 . S
C260 O267 1.299 . S
O261 Zn258 2.080 1_655 S
O261 C275 1.305 . S
O262 Zn256 1.920 . S
O262 C275 1.234 1_455 S
C263 O268 1.167 . S
C263 O269 1.299 . S
O264 Zn258 2.114 . S
O264 C259 1.166 . S
O265 Zn257 1.905 1_455 S
O265 C259 1.182 . S
O266 Zn257 1.898 . S
O266 C260 1.167 . S
O267 Zn258 2.120 1_655 S
O267 C260 1.299 . S
O268 Zn256 1.898 . S
O268 C263 1.167 . S
O269 Zn258 2.120 . S
O269 C263 1.299 . S
O270 Zn258 2.114 . S
O270 C272 1.166 . S
O271 Zn256 1.905 . S
O271 C272 1.182 . S
C272 O270 1.166 . S
C272 O271 1.182 . S
O273 Zn258 2.080 1_655 S
O273 C276 1.305 . S
O274 Zn257 1.920 . S
O274 C276 1.234 . S
C275 O261 1.305 . S
C275 O262 1.234 1_655 S
C276 O273 1.305 . S
C276 O274 1.234 . S
Zn277 O283 1.920 . S
Zn277 O289 1.898 . S
Zn277 O292 1.905 . S
Zn278 O286 1.905 . S
Zn278 O287 1.898 . S
Zn278 O295 1.920 . S
Zn279 O282 2.080 . S
Zn279 O285 2.114 . S
Zn279 O288 2.120 . S
Zn279 O290 2.120 . S
Zn279 O291 2.114 . S
Zn279 O294 2.080 . S
C280 O285 1.166 . S
C280 O286 1.182 . S
C281 O287 1.167 . S
C281 O288 1.299 . S
O282 Zn279 2.080 . S
O282 C296 1.305 . S
O283 Zn277 1.920 . S
O283 C296 1.234 . S
C284 O289 1.167 . S
C284 O290 1.299 . S
O285 Zn279 2.114 . S
O285 C280 1.166 . S
O286 Zn278 1.905 . S
O286 C280 1.182 . S
O287 Zn278 1.898 . S
O287 C281 1.167 . S
O288 Zn279 2.120 . S
O288 C281 1.299 . S
O289 Zn277 1.898 . S
O289 C284 1.167 . S
O290 Zn279 2.120 . S
O290 C284 1.299 . S
O291 Zn279 2.114 . S
O291 C293 1.166 . S
O292 Zn277 1.905 . S
O292 C293 1.182 . S
C293 O291 1.166 . S
C293 O292 1.182 . S
O294 Zn279 2.080 . S
O294 C297 1.305 . S
O295 Zn278 1.920 . S
O295 C297 1.234 . S
C296 O282 1.305 . S
C296 O283 1.234 . S
C297 O294 1.305 . S
C297 O295 1.234 . S
Zn298 O304 1.920 . S
Zn298 O310 1.898 . S
Zn298 O313 1.905 1_455 S
Zn299 O307 1.905 . S
Zn299 O308 1.898 . S
Zn299 O316 1.920 1_655 S
Zn300 O303 2.095 . S
Zn300 O306 2.098 1_455 S
Zn300 O309 2.105 1_455 S
Zn300 O311 2.137 . S
Zn300 O312 2.102 1_455 S
Zn300 O315 2.093 . S
C301 O306 1.166 . S
C301 O307 1.182 . S
C302 O308 1.167 . S
C302 O309 1.299 . S
O303 Zn300 2.095 . S
O303 C317 1.305 . S
O304 Zn298 1.920 . S
O304 C317 1.234 . S
C305 O310 1.167 . S
C305 O311 1.299 . S
O306 Zn300 2.098 1_655 S
O306 C301 1.166 . S
O307 Zn299 1.905 . S
O307 C301 1.182 . S
O308 Zn299 1.898 . S
O308 C302 1.167 . S
O309 Zn300 2.105 1_655 S
O309 C302 1.299 . S
O310 Zn298 1.898 . S
O310 C305 1.167 . S
O311 Zn300 2.137 . S
O311 C305 1.299 . S
O312 Zn300 2.102 1_655 S
O312 C314 1.166 . S
O313 Zn298 1.905 1_655 S
O313 C314 1.182 . S
C314 O312 1.166 . S
C314 O313 1.182 . S
O315 Zn300 2.093 . S
O315 C318 1.305 . S
O316 Zn299 1.920 1_455 S
O316 C318 1.234 . S
C317 O303 1.305 . S
C317 O304 1.234 . S
C318 O315 1.305 . S
C318 O316 1.234 . S
Zn319 O325 1.920 . S
Zn319 O331 1.898 . S
Zn319 O334 1.905 . S
Zn320 O328 1.905 . S
Zn320 O329 1.898 . S
Zn320 O337 1.920 . S
Zn321 O324 2.080 . S
Zn321 O327 2.114 . S
Zn321 O330 2.120 . S
Zn321 O332 2.120 . S
Zn321 O333 2.114 . S
Zn321 O336 2.080 . S
C322 O327 1.166 . S
C322 O328 1.182 . S
C323 O329 1.167 . S
C323 O330 1.299 . S
O324 Zn321 2.080 . S
O324 C338 1.305 . S
O325 Zn319 1.920 . S
O325 C338 1.234 . S
C326 O331 1.167 . S
C326 O332 1.299 . S
O327 Zn321 2.114 . S
O327 C322 1.166 . S
O328 Zn320 1.905 . S
O328 C322 1.182 . S
O329 Zn320 1.898 . S
O329 C323 1.167 . S
O330 Zn321 2.120 . S
O330 C323 1.299 . S
O331 Zn319 1.898 . S
O331 C326 1.167 . S
O332 Zn321 2.120 . S
O332 C326 1.299 . S
O333 Zn321 2.114 . S
O333 C335 1.166 . S
O334 Zn319 1.905 . S
O334 C335 1.182 . S
C335 O333 1.166 . S
C335 O334 1.182 . S
O336 Zn321 2.080 . S
O336 C339 1.305 . S
O337 Zn320 1.920 . S
O337 C339 1.234 . S
C338 O324 1.305 . S
C338 O325 1.234 . S
C339 O336 1.305 . S
C339 O337 1.234 . S
H340 C346 0.930 . S
H341 C350 0.930 . S
H342 C355 0.929 . S
H343 C353 0.929 . S
H344 C348 0.929 . S
H345 C354 0.929 . S
C346 H340 0.930 . S
C346 C347 1.367 . S
C346 C354 1.378 . S
C347 C346 1.367 . S
C347 C355 1.433 . S
C348 H344 0.929 . S
C348 C350 1.378 . S
C348 C352 1.350 . S
C349 C352 1.463 1_565 S
C349 C354 1.350 . S
C349 N357 1.427 . S
C350 H341 0.930 . S
C350 C348 1.378 . S
C350 C351 1.367 . S
C351 C350 1.367 . S
C351 C353 1.433 . S
C352 C348 1.350 . S
C352 C349 1.463 1_545 S
C352 N356 1.427 . S
C353 H343 0.929 . S
C353 C351 1.433 . S
C353 N356 1.384 . S
C354 H345 0.929 . S
C354 C346 1.378 . S
C354 C349 1.350 . S
C355 H342 0.929 . S
C355 C347 1.433 . S
C355 N357 1.384 . S
N356 C352 1.427 . S
N356 C353 1.384 . S
N357 C349 1.427 . S
N357 C355 1.384 . S
H358 C364 0.930 . S
H359 C368 0.930 . S
H360 C373 0.929 . S
H361 C371 0.929 . S
H362 C366 0.929 . S
H363 C372 0.929 . S
C364 H358 0.930 . S
C364 C365 1.367 . S
C364 C372 1.378 . S
C365 C364 1.367 . S
C365 C373 1.433 . S
C366 H362 0.929 . S
C366 C368 1.378 . S
C366 C370 1.350 . S
C367 C370 1.463 . S
C367 C372 1.350 . S
C367 N375 1.427 . S
C368 H359 0.930 . S
C368 C366 1.378 . S
C368 C369 1.367 . S
C369 C368 1.367 . S
C369 C371 1.433 . S
C370 C366 1.350 . S
C370 C367 1.463 . S
C370 N374 1.427 . S
C371 H361 0.929 . S
C371 C369 1.433 . S
C371 N374 1.384 . S
C372 H363 0.929 . S
C372 C364 1.378 . S
C372 C367 1.350 . S
C373 H360 0.929 . S
C373 C365 1.433 . S
C373 N375 1.384 . S
N374 C370 1.427 . S
N374 C371 1.384 . S
N375 C367 1.427 . S
N375 C373 1.384 . S
H376 C382 0.930 . S
H377 C386 0.930 . S
H378 C391 0.929 . S
H379 C389 0.929 . S
H380 C384 0.929 . S
H381 C390 0.929 . S
C382 H376 0.930 . S
C382 C383 1.367 . S
C382 C390 1.378 . S
C383 C382 1.367 . S
C383 C391 1.433 . S
C384 H380 0.929 . S
C384 C386 1.378 . S
C384 C388 1.350 . S
C385 C388 1.463 . S
C385 C390 1.350 . S
C385 N393 1.427 . S
C386 H377 0.930 . S
C386 C384 1.378 . S
C386 C387 1.367 . S
C387 C386 1.367 . S
C387 C389 1.433 . S
C388 C384 1.350 . S
C388 C385 1.463 . S
C388 N392 1.427 . S
C389 H379 0.929 . S
C389 C387 1.433 . S
C389 N392 1.384 . S
C390 H381 0.929 . S
C390 C382 1.378 . S
C390 C385 1.350 . S
C391 H378 0.929 . S
C391 C383 1.433 . S
C391 N393 1.384 . S
N392 C388 1.427 . S
N392 C389 1.384 . S
N393 C385 1.427 . S
N393 C391 1.384 . S
H394 C400 0.930 . S
H395 C404 0.930 . S
H396 C409 0.929 . S
H397 C407 0.929 . S
H398 C402 0.929 . S
H399 C408 0.929 . S
C400 H394 0.930 . S
C400 C401 1.367 . S
C400 C408 1.378 . S
C401 C400 1.367 . S
C401 C409 1.433 . S
C402 H398 0.929 . S
C402 C404 1.378 . S
C402 C406 1.350 . S
C403 C406 1.463 1_565 S
C403 C408 1.350 . S
C403 N411 1.427 . S
C404 H395 0.930 . S
C404 C402 1.378 . S
C404 C405 1.367 . S
C405 C404 1.367 . S
C405 C407 1.433 . S
C406 C402 1.350 . S
C406 C403 1.463 1_545 S
C406 N410 1.427 . S
C407 H397 0.929 . S
C407 C405 1.433 . S
C407 N410 1.384 . S
C408 H399 0.929 . S
C408 C400 1.378 . S
C408 C403 1.350 . S
C409 H396 0.929 . S
C409 C401 1.433 . S
C409 N411 1.384 . S
N410 C406 1.427 . S
N410 C407 1.384 . S
N411 C403 1.427 . S
N411 C409 1.384 . S
H412 C418 0.930 . S
H413 C422 0.930 . S
H414 C427 0.929 . S
H415 C425 0.929 . S
H416 C420 0.929 . S
H417 C426 0.929 . S
C418 H412 0.930 . S
C418 C419 1.367 . S
C418 C426 1.378 . S
C419 C418 1.367 . S
C419 C427 1.433 . S
C420 H416 0.929 . S
C420 C422 1.378 . S
C420 C424 1.350 . S
C421 C424 1.463 1_545 S
C421 C426 1.350 . S
C421 N429 1.427 . S
C422 H413 0.930 . S
C422 C420 1.378 . S
C422 C423 1.367 . S
C423 C422 1.367 . S
C423 C425 1.433 . S
C424 C420 1.350 . S
C424 C421 1.463 1_565 S
C424 N428 1.427 . S
C425 H415 0.929 . S
C425 C423 1.433 . S
C425 N428 1.384 . S
C426 H417 0.929 . S
C426 C418 1.378 . S
C426 C421 1.350 . S
C427 H414 0.929 . S
C427 C419 1.433 . S
C427 N429 1.384 . S
N428 C424 1.427 . S
N428 C425 1.384 . S
N429 C421 1.427 . S
N429 C427 1.384 . S
H430 C436 0.930 . S
H431 C440 0.930 . S
H432 C445 0.929 . S
H433 C443 0.929 . S
H434 C438 0.929 . S
H435 C444 0.929 . S
C436 H430 0.930 . S
C436 C437 1.367 . S
C436 C444 1.378 . S
C437 C436 1.367 . S
C437 C445 1.433 . S
C438 H434 0.929 . S
C438 C440 1.378 . S
C438 C442 1.350 . S
C439 C442 1.463 . S
C439 C444 1.350 . S
C439 N447 1.427 . S
C440 H431 0.930 . S
C440 C438 1.378 . S
C440 C441 1.367 . S
C441 C440 1.367 . S
C441 C443 1.433 . S
C442 C438 1.350 . S
C442 C439 1.463 . S
C442 N446 1.427 . S
C443 H433 0.929 . S
C443 C441 1.433 . S
C443 N446 1.384 . S
C444 H435 0.929 . S
C444 C436 1.378 . S
C444 C439 1.350 . S
C445 H432 0.929 . S
C445 C437 1.433 . S
C445 N447 1.384 . S
N446 C442 1.427 . S
N446 C443 1.384 . S
N447 C439 1.427 . S
N447 C445 1.384 . S
H448 C454 0.930 . S
H449 C458 0.930 . S
H450 C463 0.929 . S
H451 C461 0.929 . S
H452 C456 0.929 . S
H453 C462 0.929 . S
C454 H448 0.930 . S
C454 C455 1.367 . S
C454 C462 1.378 . S
C455 C454 1.367 . S
C455 C463 1.433 . S
C456 H452 0.929 . S
C456 C458 1.378 . S
C456 C460 1.350 . S
C457 C460 1.463 . S
C457 C462 1.350 . S
C457 N465 1.427 . S
C458 H449 0.930 . S
C458 C456 1.378 . S
C458 C459 1.367 . S
C459 C458 1.367 . S
C459 C461 1.433 . S
C460 C456 1.350 . S
C460 C457 1.463 . S
C460 N464 1.427 . S
C461 H451 0.929 . S
C461 C459 1.433 . S
C461 N464 1.384 . S
C462 H453 0.929 . S
C462 C454 1.378 . S
C462 C457 1.350 . S
C463 H450 0.929 . S
C463 C455 1.433 . S
C463 N465 1.384 . S
N464 C460 1.427 . S
N464 C461 1.384 . S
N465 C457 1.427 . S
N465 C463 1.384 . S
H466 C472 0.930 . S
H467 C476 0.930 . S
H468 C481 0.929 . S
H469 C479 0.929 . S
H470 C474 0.929 . S
H471 C480 0.929 . S
C472 H466 0.930 . S
C472 C473 1.367 . S
C472 C480 1.378 . S
C473 C472 1.367 . S
C473 C481 1.433 . S
C474 H470 0.929 . S
C474 C476 1.378 . S
C474 C478 1.350 . S
C475 C478 1.463 1_545 S
C475 C480 1.350 . S
C475 N483 1.427 . S
C476 H467 0.930 . S
C476 C474 1.378 . S
C476 C477 1.367 . S
C477 C476 1.367 . S
C477 C479 1.433 . S
C478 C474 1.350 . S
C478 C475 1.463 1_565 S
C478 N482 1.427 . S
C479 H469 0.929 . S
C479 C477 1.433 . S
C479 N482 1.384 . S
C480 H471 0.929 . S
C480 C472 1.378 . S
C480 C475 1.350 . S
C481 H468 0.929 . S
C481 C473 1.433 . S
C481 N483 1.384 . S
N482 C478 1.427 . S
N482 C479 1.384 . S
N483 C475 1.427 . S
N483 C481 1.384 . S
H484 C490 0.930 . S
H485 C494 0.930 . S
H486 C499 0.929 . S
H487 C497 0.929 . S
H488 C492 0.929 . S
H489 C498 0.929 . S
C490 H484 0.930 . S
C490 C491 1.367 . S
C490 C498 1.378 . S
C491 C490 1.367 . S
C491 C499 1.433 . S
C492 H488 0.929 . S
C492 C494 1.378 . S
C492 C496 1.350 . S
C493 C496 1.463 . S
C493 C498 1.350 . S
C493 N501 1.427 . S
C494 H485 0.930 . S
C494 C492 1.378 . S
C494 C495 1.367 . S
C495 C494 1.367 . S
C495 C497 1.433 . S
C496 C492 1.350 . S
C496 C493 1.463 . S
C496 N500 1.427 . S
C497 H487 0.929 . S
C497 C495 1.433 . S
C497 N500 1.384 . S
C498 H489 0.929 . S
C498 C490 1.378 . S
C498 C493 1.350 . S
C499 H486 0.929 . S
C499 C491 1.433 . S
C499 N501 1.384 . S
N500 C496 1.427 . S
N500 C497 1.384 . S
N501 C493 1.427 . S
N501 C499 1.384 . S
H502 C508 0.930 . S
H503 C512 0.930 . S
H504 C517 0.929 . S
H505 C515 0.929 . S
H506 C510 0.929 . S
H507 C516 0.929 . S
C508 H502 0.930 . S
C508 C509 1.367 . S
C508 C516 1.378 . S
C509 C508 1.367 . S
C509 C517 1.433 . S
C510 H506 0.929 . S
C510 C512 1.378 . S
C510 C514 1.350 . S
C511 C514 1.463 . S
C511 C516 1.350 . S
C511 N519 1.427 . S
C512 H503 0.930 . S
C512 C510 1.378 . S
C512 C513 1.367 . S
C513 C512 1.367 . S
C513 C515 1.433 . S
C514 C510 1.350 . S
C514 C511 1.463 . S
C514 N518 1.427 . S
C515 H505 0.929 . S
C515 C513 1.433 . S
C515 N518 1.384 . S
C516 H507 0.929 . S
C516 C508 1.378 . S
C516 C511 1.350 . S
C517 H504 0.929 . S
C517 C509 1.433 . S
C517 N519 1.384 . S
N518 C514 1.427 . S
N518 C515 1.384 . S
N519 C511 1.427 . S
N519 C517 1.384 . S
H520 C526 0.930 . S
H521 C530 0.930 . S
H522 C535 0.929 . S
H523 C533 0.929 . S
H524 C528 0.929 . S
H525 C534 0.929 . S
C526 H520 0.930 . S
C526 C527 1.367 . S
C526 C534 1.378 . S
C527 C526 1.367 . S
C527 C535 1.433 . S
C528 H524 0.929 . S
C528 C530 1.378 . S
C528 C532 1.350 . S
C529 C532 1.463 . S
C529 C534 1.350 . S
C529 N537 1.427 . S
C530 H521 0.930 . S
C530 C528 1.378 . S
C530 C531 1.367 . S
C531 C530 1.367 . S
C531 C533 1.433 . S
C532 C528 1.350 . S
C532 C529 1.463 . S
C532 N536 1.427 . S
C533 H523 0.929 . S
C533 C531 1.433 . S
C533 N536 1.384 . S
C534 H525 0.929 . S
C534 C526 1.378 . S
C534 C529 1.350 . S
C535 H522 0.929 . S
C535 C527 1.433 . S
C535 N537 1.384 . S
N536 C532 1.427 . S
N536 C533 1.384 . S
N537 C529 1.427 . S
N537 C535 1.384 . S
H538 C544 0.930 . S
H539 C548 0.930 . S
H540 C553 0.929 . S
H541 C551 0.929 1_455 S
H542 C546 0.929 . S
H543 C552 0.929 . S
C544 H538 0.930 . S
C544 C545 1.367 . S
C544 C552 1.378 . S
C545 C544 1.367 . S
C545 C553 1.433 . S
C546 H542 0.929 . S
C546 C548 1.378 . S
C546 C550 1.350 . S
C547 C550 1.463 . S
C547 C552 1.350 . S
C547 N555 1.427 . S
C548 H539 0.930 . S
C548 C546 1.378 . S
C548 C549 1.367 . S
C549 C548 1.367 . S
C549 C551 1.433 . S
C550 C546 1.350 . S
C550 C547 1.463 . S
C550 N554 1.427 . S
C551 H541 0.929 1_655 S
C551 C549 1.433 . S
C551 N554 1.384 . S
C552 H543 0.929 . S
C552 C544 1.378 . S
C552 C547 1.350 . S
C553 H540 0.929 . S
C553 C545 1.433 . S
C553 N555 1.384 . S
N554 C550 1.427 . S
N554 C551 1.384 . S
N555 C547 1.427 . S
N555 C553 1.384 . S
H556 C562 0.930 . S
H557 C566 0.930 . S
H558 C571 0.929 . S
H559 C569 0.929 . S
H560 C564 0.929 . S
H561 C570 0.929 . S
C562 H556 0.930 . S
C562 C563 1.367 . S
C562 C570 1.378 . S
C563 C562 1.367 . S
C563 C571 1.433 . S
C564 H560 0.929 . S
C564 C566 1.378 . S
C564 C568 1.350 . S
C565 C568 1.463 . S
C565 C570 1.350 . S
C565 N573 1.427 . S
C566 H557 0.930 . S
C566 C564 1.378 . S
C566 C567 1.367 . S
C567 C566 1.367 . S
C567 C569 1.433 . S
C568 C564 1.350 . S
C568 C565 1.463 . S
C568 N572 1.427 . S
C569 H559 0.929 . S
C569 C567 1.433 . S
C569 N572 1.384 . S
C570 H561 0.929 . S
C570 C562 1.378 . S
C570 C565 1.350 . S
C571 H558 0.929 . S
C571 C563 1.433 . S
C571 N573 1.384 . S
N572 C568 1.427 . S
N572 C569 1.384 . S
N573 C565 1.427 . S
N573 C571 1.384 . S
H574 C580 0.930 . S
H575 C584 0.930 . S
H576 C589 0.929 . S
H577 C587 0.929 . S
H578 C582 0.929 . S
H579 C588 0.929 . S
C580 H574 0.930 . S
C580 C581 1.367 . S
C580 C588 1.378 . S
C581 C580 1.367 . S
C581 C589 1.433 . S
C582 H578 0.929 . S
C582 C584 1.378 . S
C582 C586 1.350 . S
C583 C586 1.463 . S
C583 C588 1.350 . S
C583 N591 1.427 . S
C584 H575 0.930 . S
C584 C582 1.378 . S
C584 C585 1.367 . S
C585 C584 1.367 . S
C585 C587 1.433 . S
C586 C582 1.350 . S
C586 C583 1.463 . S
C586 N590 1.427 . S
C587 H577 0.929 . S
C587 C585 1.433 . S
C587 N590 1.384 . S
C588 H579 0.929 . S
C588 C580 1.378 . S
C588 C583 1.350 . S
C589 H576 0.929 . S
C589 C581 1.433 . S
C589 N591 1.384 . S
N590 C586 1.427 . S
N590 C587 1.384 . S
N591 C583 1.427 . S
N591 C589 1.384 . S
H592 C598 0.935 . S
H593 C602 0.930 . S
H594 C607 0.929 . S
H595 C605 0.929 . S
H596 C600 0.929 . S
H597 C606 0.929 . S
C598 H592 0.935 . S
C598 C599 1.367 . S
C598 C606 1.378 . S
C599 C598 1.367 . S
C599 C607 1.433 . S
C600 H596 0.929 . S
C600 C602 1.378 . S
C600 C604 1.350 . S
C601 C604 1.463 . S
C601 C606 1.350 . S
C601 N609 1.427 . S
C602 H593 0.930 . S
C602 C600 1.378 . S
C602 C603 1.367 . S
C603 C602 1.367 . S
C603 C605 1.433 . S
C604 C600 1.350 . S
C604 C601 1.463 . S
C604 N608 1.427 . S
C605 H595 0.929 . S
C605 C603 1.433 . S
C605 N608 1.384 . S
C606 H597 0.929 . S
C606 C598 1.378 . S
C606 C601 1.350 . S
C607 H594 0.929 . S
C607 C599 1.433 . S
C607 N609 1.384 . S
N608 C604 1.427 . S
N608 C605 1.384 . S
N609 C601 1.427 . S
N609 C607 1.384 . S
H610 C616 0.930 . S
H611 C620 0.930 . S
H612 C625 0.929 . S
H613 C623 0.929 . S
H614 C618 0.929 . S
H615 C624 0.929 . S
C616 H610 0.930 . S
C616 C617 1.367 . S
C616 C624 1.378 . S
C617 C616 1.367 . S
C617 C625 1.433 . S
C618 H614 0.929 . S
C618 C620 1.378 . S
C618 C622 1.350 . S
C619 C622 1.463 . S
C619 C624 1.350 . S
C619 N627 1.427 . S
C620 H611 0.930 . S
C620 C618 1.378 . S
C620 C621 1.367 . S
C621 C620 1.367 . S
C621 C623 1.433 . S
C622 C618 1.350 . S
C622 C619 1.463 . S
C622 N626 1.427 . S
C623 H613 0.929 . S
C623 C621 1.433 . S
C623 N626 1.384 . S
C624 H615 0.929 . S
C624 C616 1.378 . S
C624 C619 1.350 . S
C625 H612 0.929 . S
C625 C617 1.433 . S
C625 N627 1.384 . S
N626 C622 1.427 . S
N626 C623 1.384 . S
N627 C619 1.427 . S
N627 C625 1.384 . S
H628 C634 0.930 . S
H629 C638 0.930 . S
H630 C643 0.929 . S
H631 C641 0.929 . S
H632 C636 0.929 . S
H633 C642 0.929 . S
C634 H628 0.930 . S
C634 C635 1.367 . S
C634 C642 1.378 . S
C635 C634 1.367 . S
C635 C643 1.433 . S
C636 H632 0.929 . S
C636 C638 1.378 . S
C636 C640 1.350 . S
C637 C640 1.463 . S
C637 C642 1.350 . S
C637 N645 1.427 . S
C638 H629 0.930 . S
C638 C636 1.378 . S
C638 C639 1.367 . S
C639 C638 1.367 . S
C639 C641 1.433 . S
C640 C636 1.350 . S
C640 C637 1.463 . S
C640 N644 1.427 . S
C641 H631 0.929 . S
C641 C639 1.433 . S
C641 N644 1.384 . S
C642 H633 0.929 . S
C642 C634 1.378 . S
C642 C637 1.350 . S
C643 H630 0.929 . S
C643 C635 1.433 . S
C643 N645 1.384 . S
N644 C640 1.427 . S
N644 C641 1.384 . S
N645 C637 1.427 . S
N645 C643 1.384 . S
H646 C652 0.930 . S
H647 C656 0.930 . S
H648 C661 0.929 . S
H649 C659 0.929 . S
H650 C654 0.929 . S
H651 C660 0.929 . S
C652 H646 0.930 . S
C652 C653 1.367 . S
C652 C660 1.378 . S
C653 C652 1.367 . S
C653 C661 1.433 . S
C654 H650 0.929 . S
C654 C656 1.378 . S
C654 C658 1.350 . S
C655 C658 1.463 . S
C655 C660 1.350 . S
C655 N663 1.427 . S
C656 H647 0.930 . S
C656 C654 1.378 . S
C656 C657 1.367 . S
C657 C656 1.367 . S
C657 C659 1.433 . S
C658 C654 1.350 . S
C658 C655 1.463 . S
C658 N662 1.427 . S
C659 H649 0.929 . S
C659 C657 1.433 . S
C659 N662 1.384 . S
C660 H651 0.929 . S
C660 C652 1.378 . S
C660 C655 1.350 . S
C661 H648 0.929 . S
C661 C653 1.433 . S
C661 N663 1.384 . S
N662 C658 1.427 . S
N662 C659 1.384 . S
N663 C655 1.427 . S
N663 C661 1.384 . S
H664 C670 0.930 . S
H665 C674 0.930 . S
H666 C679 0.929 . S
H667 C677 0.929 . S
H668 C672 0.929 . S
H669 C678 0.929 . S
C670 H664 0.930 . S
C670 C671 1.367 . S
C670 C678 1.378 . S
C671 C670 1.367 . S
C671 C679 1.433 . S
C672 H668 0.929 . S
C672 C674 1.378 . S
C672 C676 1.350 . S
C673 C676 1.463 . S
C673 C678 1.350 . S
C673 N681 1.427 . S
C674 H665 0.930 . S
C674 C672 1.378 . S
C674 C675 1.367 . S
C675 C674 1.367 . S
C675 C677 1.433 . S
C676 C672 1.350 . S
C676 C673 1.463 . S
C676 N680 1.427 . S
C677 H667 0.929 . S
C677 C675 1.433 . S
C677 N680 1.384 . S
C678 H669 0.929 . S
C678 C670 1.378 . S
C678 C673 1.350 . S
C679 H666 0.929 . S
C679 C671 1.433 . S
C679 N681 1.384 . S
N680 C676 1.427 . S
N680 C677 1.384 . S
N681 C673 1.427 . S
N681 C679 1.384 . S
H682 C688 0.930 . S
H683 C692 0.930 . S
H684 C697 0.929 . S
H685 C695 0.929 . S
H686 C690 0.929 . S
H687 C696 0.929 . S
C688 H682 0.930 . S
C688 C689 1.367 . S
C688 C696 1.378 . S
C689 C688 1.367 . S
C689 C697 1.433 . S
C690 H686 0.929 . S
C690 C692 1.378 . S
C690 C694 1.350 . S
C691 C694 1.463 . S
C691 C696 1.350 . S
C691 N699 1.427 . S
C692 H683 0.930 . S
C692 C690 1.378 . S
C692 C693 1.367 . S
C693 C692 1.367 . S
C693 C695 1.433 . S
C694 C690 1.350 . S
C694 C691 1.463 . S
C694 N698 1.427 . S
C695 H685 0.929 . S
C695 C693 1.433 . S
C695 N698 1.384 . S
C696 H687 0.929 . S
C696 C688 1.378 . S
C696 C691 1.350 . S
C697 H684 0.929 . S
C697 C689 1.433 . S
C697 N699 1.384 . S
N698 C694 1.427 . S
N698 C695 1.384 . S
N699 C691 1.427 . S
N699 C697 1.384 . S
H700 C706 0.930 . S
H701 C710 0.930 . S
H702 C715 0.929 . S
H703 C713 0.929 . S
H704 C708 0.929 . S
H705 C714 0.929 . S
C706 H700 0.930 . S
C706 C707 1.367 . S
C706 C714 1.378 . S
C707 C706 1.367 . S
C707 C715 1.433 . S
C708 H704 0.929 . S
C708 C710 1.378 . S
C708 C712 1.350 . S
C709 C712 1.463 . S
C709 C714 1.350 . S
C709 N717 1.427 . S
C710 H701 0.930 . S
C710 C708 1.378 . S
C710 C711 1.367 . S
C711 C710 1.367 . S
C711 C713 1.433 . S
C712 C708 1.350 . S
C712 C709 1.463 . S
C712 N716 1.427 . S
C713 H703 0.929 . S
C713 C711 1.433 . S
C713 N716 1.384 . S
C714 H705 0.929 . S
C714 C706 1.378 . S
C714 C709 1.350 . S
C715 H702 0.929 . S
C715 C707 1.433 . S
C715 N717 1.384 . S
N716 C712 1.427 . S
N716 C713 1.384 . S
N717 C709 1.427 . S
N717 C715 1.384 . S
H718 C724 0.930 . S
H719 C728 0.930 . S
H720 C733 0.929 . S
H721 C731 0.929 . S
H722 C726 0.929 . S
H723 C732 0.929 . S
C724 H718 0.930 . S
C724 C725 1.367 . S
C724 C732 1.378 . S
C725 C724 1.367 . S
C725 C733 1.433 . S
C726 H722 0.929 . S
C726 C728 1.378 . S
C726 C730 1.350 . S
C727 C730 1.463 . S
C727 C732 1.350 . S
C727 N735 1.427 . S
C728 H719 0.930 . S
C728 C726 1.378 . S
C728 C729 1.367 . S
C729 C728 1.367 . S
C729 C731 1.433 . S
C730 C726 1.350 . S
C730 C727 1.463 . S
C730 N734 1.427 . S
C731 H721 0.929 . S
C731 C729 1.433 . S
C731 N734 1.384 . S
C732 H723 0.929 . S
C732 C724 1.378 . S
C732 C727 1.350 . S
C733 H720 0.929 . S
C733 C725 1.433 . S
C733 N735 1.384 . S
N734 C730 1.427 . S
N734 C731 1.384 . S
N735 C727 1.427 . S
N735 C733 1.384 . S
H736 C742 0.930 . S
H737 C746 0.930 . S
H738 C751 0.929 . S
H739 C749 0.929 . S
H740 C744 0.929 . S
H741 C750 0.929 . S
C742 H736 0.930 . S
C742 C743 1.367 . S
C742 C750 1.378 . S
C743 C742 1.367 . S
C743 C751 1.433 . S
C744 H740 0.929 . S
C744 C746 1.378 . S
C744 C748 1.350 . S
C745 C748 1.463 . S
C745 C750 1.350 . S
C745 N753 1.427 . S
C746 H737 0.930 . S
C746 C744 1.378 . S
C746 C747 1.367 . S
C747 C746 1.367 . S
C747 C749 1.433 . S
C748 C744 1.350 . S
C748 C745 1.463 . S
C748 N752 1.427 . S
C749 H739 0.929 . S
C749 C747 1.433 . S
C749 N752 1.384 . S
C750 H741 0.929 . S
C750 C742 1.378 . S
C750 C745 1.350 . S
C751 H738 0.929 . S
C751 C743 1.433 . S
C751 N753 1.384 . S
N752 C748 1.427 . S
N752 C749 1.384 . S
N753 C745 1.427 . S
N753 C751 1.384 . S
H754 C760 0.930 . S
H755 C764 0.930 . S
H756 C769 0.929 . S
H757 C767 0.929 . S
H758 C762 0.929 . S
H759 C768 0.929 . S
C760 H754 0.930 . S
C760 C761 1.367 . S
C760 C768 1.378 . S
C761 C760 1.367 . S
C761 C769 1.433 . S
C762 H758 0.929 . S
C762 C764 1.378 . S
C762 C766 1.350 . S
C763 C766 1.463 . S
C763 C768 1.350 . S
C763 N771 1.427 . S
C764 H755 0.930 . S
C764 C762 1.378 . S
C764 C765 1.367 . S
C765 C764 1.367 . S
C765 C767 1.433 . S
C766 C762 1.350 . S
C766 C763 1.463 . S
C766 N770 1.427 . S
C767 H757 0.929 . S
C767 C765 1.433 . S
C767 N770 1.384 . S
C768 H759 0.929 . S
C768 C760 1.378 . S
C768 C763 1.350 . S
C769 H756 0.929 . S
C769 C761 1.433 . S
C769 N771 1.384 . S
N770 C766 1.427 . S
N770 C767 1.384 . S
N771 C763 1.427 . S
N771 C769 1.384 . S
C347 C221 1.390 . S
C351 C272 1.361 . S
C369 C280 1.316 . S
C365 C241 1.383 . S
C387 C284 1.356 . S
C383 C157 1.371 . S
C401 C177 1.373 . S
C405 C260 1.298 . S
C423 C301 1.372 . S
C419 C93 1.421 . S
C441 C335 1.318 . S
C437 C113 1.360 . S
C455 C29 1.420 . S
C459 C323 1.366 . S
C473 C49 1.346 . S
C477 C305 1.306 . S
C495 C259 1.283 . S
C491 C61 1.406 1_554 S
C513 C293 1.298 . S
C509 C17 1.438 . S
C531 C297 1.290 . S
C527 C125 1.416 1_556 S
C549 C275 1.300 . S
C545 C81 1.437 . S
C567 C314 1.300 . S
C563 C189 1.425 1_556 S
C581 C145 1.415 . S
C585 C322 1.297 . S
C603 C338 1.306 . S
C599 C253 1.426 1_554 S
C617 C209 1.414 . S
C621 C318 1.276 . S
C639 C263 1.331 . S
C635 C23 1.495 . S
C657 C281 1.325 . S
C653 C55 1.460 . S
C671 C87 1.481 . S
C675 C296 1.304 . S
C693 C276 1.323 . S
C689 C119 1.453 . S
C711 C302 1.317 . S
C707 C151 1.458 . S
C725 C183 1.493 . S
C729 C326 1.326 . S
C743 C215 1.461 . S
C747 C339 1.316 . S
C761 C247 1.476 . S
C765 C317 1.328 . S
