# Generated by pormake.
# Topology zzz, (3,6)-cn, num edge types: 1
# Building blocks:
#     Node 0, Type 0, BuildingBlock: CUQRIR_clean_linker_1, # of connection points: 3
#     Node 1, Type 0, BuildingBlock: CUQRIR_clean_linker_1, # of connection points: 3
#     Node 2, Type 0, BuildingBlock: CUQRIR_clean_linker_1, # of connection points: 3
#     Node 3, Type 0, BuildingBlock: CUQRIR_clean_linker_1, # of connection points: 3
#     Node 4, Type 0, BuildingBlock: CUQRIR_clean_linker_1, # of connection points: 3
#     Node 5, Type 0, BuildingBlock: CUQRIR_clean_linker_1, # of connection points: 3
#     Node 6, Type 0, BuildingBlock: CUQRIR_clean_linker_1, # of connection points: 3
#     Node 7, Type 0, BuildingBlock: CUQRIR_clean_linker_1, # of connection points: 3
#     Node 8, Type 1, BuildingBlock: KUMJIN_clean_sbu_0, # of connection points: 6
#     Node 9, Type 1, BuildingBlock: KUMJIN_clean_sbu_0, # of connection points: 6
#     Node 10, Type 1, BuildingBlock: KUMJIN_clean_sbu_0, # of connection points: 6
#     Node 11, Type 1, BuildingBlock: KUMJIN_clean_sbu_0, # of connection points: 6
#     Edge 12, Type (0, 1), BuildingBlock: TEMPAE_clean_linker_10, # of connection points: 2
#     Edge 13, Type (0, 1), BuildingBlock: TEMPAE_clean_linker_10, # of connection points: 2
#     Edge 14, Type (0, 1), BuildingBlock: TEMPAE_clean_linker_10, # of connection points: 2
#     Edge 15, Type (0, 1), BuildingBlock: TEMPAE_clean_linker_10, # of connection points: 2
#     Edge 16, Type (0, 1), BuildingBlock: TEMPAE_clean_linker_10, # of connection points: 2
#     Edge 17, Type (0, 1), BuildingBlock: TEMPAE_clean_linker_10, # of connection points: 2
#     Edge 18, Type (0, 1), BuildingBlock: TEMPAE_clean_linker_10, # of connection points: 2
#     Edge 19, Type (0, 1), BuildingBlock: TEMPAE_clean_linker_10, # of connection points: 2
#     Edge 20, Type (0, 1), BuildingBlock: TEMPAE_clean_linker_10, # of connection points: 2
#     Edge 21, Type (0, 1), BuildingBlock: TEMPAE_clean_linker_10, # of connection points: 2
#     Edge 22, Type (0, 1), BuildingBlock: TEMPAE_clean_linker_10, # of connection points: 2
#     Edge 23, Type (0, 1), BuildingBlock: TEMPAE_clean_linker_10, # of connection points: 2
#     Edge 24, Type (0, 1), BuildingBlock: TEMPAE_clean_linker_10, # of connection points: 2
#     Edge 25, Type (0, 1), BuildingBlock: TEMPAE_clean_linker_10, # of connection points: 2
#     Edge 26, Type (0, 1), BuildingBlock: TEMPAE_clean_linker_10, # of connection points: 2
#     Edge 27, Type (0, 1), BuildingBlock: TEMPAE_clean_linker_10, # of connection points: 2
#     Edge 28, Type (0, 1), BuildingBlock: TEMPAE_clean_linker_10, # of connection points: 2
#     Edge 29, Type (0, 1), BuildingBlock: TEMPAE_clean_linker_10, # of connection points: 2
#     Edge 30, Type (0, 1), BuildingBlock: TEMPAE_clean_linker_10, # of connection points: 2
#     Edge 31, Type (0, 1), BuildingBlock: TEMPAE_clean_linker_10, # of connection points: 2
#     Edge 32, Type (0, 1), BuildingBlock: TEMPAE_clean_linker_10, # of connection points: 2
#     Edge 33, Type (0, 1), BuildingBlock: TEMPAE_clean_linker_10, # of connection points: 2
#     Edge 34, Type (0, 1), BuildingBlock: TEMPAE_clean_linker_10, # of connection points: 2
#     Edge 35, Type (0, 1), BuildingBlock: TEMPAE_clean_linker_10, # of connection points: 2
# Relax obj value: 0.206
# Max RMSD: 0.170
# Mean RMSD: 0.120
data_MOF--net-zzz--node1-KUMJIN_clean_sbu_0--node2-CUQRIR_clean_linker_1--edge1-TEMPAE_clean_linker_10
_symmetry_space_group_name_H-M    P1
_symmetry_Int_Tables_number       1
_symmetry_cell_setting            triclinic
loop_
_symmetry_equiv_pos_as_xyz
'x, y, z'
_cell_length_a     47.876743
_cell_length_b     47.912303
_cell_length_c     13.551812
_cell_angle_alpha  91.274988
_cell_angle_beta   89.915114
_cell_angle_gamma 90.044625
loop_
_atom_site_label
_atom_site_type_symbol
_atom_site_fract_x
_atom_site_fract_y
_atom_site_fract_z
_atom_type_partial_charge
C0 C 0.74624 0.53686 0.27616 0.0
N1 N 0.76894 0.55255 0.30378 0.0
N2 N 0.72712 0.55232 0.2261 0.0
C3 C 0.74279 0.50648 0.29725 0.0
C4 C 0.73916 0.5779 0.22425 0.0
N5 N 0.76469 0.57802 0.26802 0.0
C6 C 0.72676 0.60253 0.1723 0.0
H7 H 0.75384 0.494 0.23937 0.0
H8 H 0.72038 0.50053 0.29643 0.0
H9 H 0.75215 0.5016 0.36972 0.0
H10 H 0.70654 0.60829 0.20695 0.0
H11 H 0.72269 0.59681 0.09381 0.0
H12 H 0.7404 0.62123 0.17682 0.0
C13 C 0.01695 0.75644 0.31499 0.0
N14 N 1.00442 0.78224 0.31984 0.0
N15 N 1.00476 0.73928 0.24463 0.0
C16 C 0.0426 0.74904 0.37156 0.0
C17 C 0.98433 0.75567 0.20868 0.0
N18 N 0.98454 0.7816 0.25105 0.0
C19 C 0.96637 0.74759 0.12141 0.0
H20 H 0.0611 0.75794 0.33413 0.0
H21 H 0.04508 0.72604 0.37458 0.0
H22 H 0.04156 0.75825 0.44735 0.0
H23 H 0.96174 0.72488 0.12086 0.0
H24 H 0.9777 0.75246 0.05236 0.0
H25 H 0.94652 0.75955 0.12298 0.0
C26 C 0.78664 0.9889 0.32143 0.0
N27 N 0.75952 0.97971 0.31227 0.0
N28 N 0.80397 0.97607 0.25338 0.0
C29 C 0.79627 1.01039 0.39573 0.0
C30 C 0.78628 0.95886 0.20339 0.0
N31 N 0.75946 0.96186 0.235 0.0
C32 C 0.79469 0.94148 0.11393 0.0
H33 H 0.7924 0.03146 0.36626 0.0
H34 H 0.81899 1.0082 0.40989 0.0
H35 H 0.78441 1.0085 0.46568 0.0
H36 H 0.81087 0.9262 0.13491 0.0
H37 H 0.80388 0.95514 0.05725 0.0
H38 H 0.77677 0.92974 0.08189 0.0
C39 C 0.54934 0.7875 0.28803 0.0
N40 N 0.55297 0.75919 0.28452 0.0
N41 N 0.55546 0.79902 0.19902 0.0
C42 C 0.53878 0.80362 0.37632 0.0
C43 C 0.56261 0.77669 0.14168 0.0
N44 N 0.56119 0.75282 0.19293 0.0
C45 C 0.56999 0.77816 0.03397 0.0
H46 H 0.51564 0.80238 0.37765 0.0
H47 H 0.54502 0.8259 0.37288 0.0
H48 H 0.54678 0.79438 0.44514 0.0
H49 H 0.5815 0.79772 0.01882 0.0
H50 H 0.55044 0.77818 0.99011 0.0
H51 H 0.58282 0.75996 0.0099 0.0
C52 C 0.29467 0.5142 0.07143 0.0
N53 N 0.26755 0.50502 0.075 0.0
N54 N 0.30963 0.5056 0.15155 0.0
C55 C 0.30599 0.5329 0.99382 0.0
C56 C 0.29059 0.49072 0.20221 0.0
N57 N 0.26518 0.49107 0.15871 0.0
C58 C 0.2964 0.47669 0.29846 0.0
H59 H 0.32899 0.53074 0.98751 0.0
H60 H 0.30108 0.55487 0.0148 0.0
H61 H 0.29602 0.52807 0.92155 0.0
H62 H 0.2937 0.49192 0.36056 0.0
H63 H 0.31817 0.46877 0.30005 0.0
H64 H 0.28162 0.45915 0.3093 0.0
C65 C 0.03814 0.29671 0.07174 0.0
N66 N 0.04875 0.27 0.08009 0.0
N67 N 0.04639 0.31404 0.14911 0.0
C68 C 0.02037 0.30633 0.98834 0.0
C69 C 0.06215 0.29708 0.2042 0.0
N70 N 0.06359 0.27103 0.16362 0.0
C71 C 0.0737 0.30504 0.3049 0.0
H72 H 0.02186 0.32932 0.98132 0.0
H73 H 0.99827 0.30091 1.0035 0.0
H74 H 0.02686 0.2959 0.91806 0.0
H75 H 0.06692 0.28966 0.36012 0.0
H76 H 0.06712 0.32609 0.33117 0.0
H77 H 0.09684 0.30465 0.30178 0.0
C78 C 0.25499 0.02222 0.05469 0.0
N79 N 0.27926 0.0372 0.04565 0.0
N80 N 0.23659 0.03498 0.11821 0.0
C81 C 0.24974 0.9946 1.00395 0.0
C82 C 0.25081 0.05802 0.14967 0.0
N83 N 0.27647 0.06029 0.10369 0.0
C84 C 0.24043 0.07541 0.23727 0.0
H85 H 0.25777 0.99483 0.92712 0.0
H86 H 0.22715 0.98942 1.00353 0.0
H87 H 0.26119 0.97816 0.0437 0.0
H88 H 0.22302 0.06551 0.27718 0.0
H89 H 0.23287 0.0959 0.21177 0.0
H90 H 0.25669 0.07813 0.29427 0.0
C91 C 0.50918 0.24435 0.04289 0.0
N92 N 0.49381 0.26784 0.0263 0.0
N93 N 0.4946 0.22573 0.09788 0.0
C94 C 0.53842 0.2397 1.00661 0.0
C95 C 0.46995 0.23883 0.1145 0.0
N96 N 0.46953 0.26449 0.07391 0.0
C97 C 0.44669 0.22701 0.17615 0.0
H98 H 0.54334 0.21707 1.00216 0.0
H99 H 0.55314 0.24997 0.05912 0.0
H100 H 0.54134 0.24913 0.93326 0.0
H101 H 0.4543 0.22384 0.25242 0.0
H102 H 0.44027 0.20636 0.14547 0.0
H103 H 0.42801 0.24068 0.17791 0.0
Eu104 Eu 0.04998 0.02007 0.80871 0.0
C105 C 0.93912 1.00078 0.56613 0.0
C106 C 0.94777 0.96945 0.4268 0.0
C107 C 0.90041 0.97607 0.48689 0.0
C108 C 0.95782 0.98775 0.50183 0.0
C109 C 0.9102 0.99513 0.55893 0.0
C110 C 0.91912 0.96341 0.42058 0.0
C111 C 0.90212 0.02977 0.68789 0.0
N112 N 0.94897 0.01997 0.63259 0.0
C113 C 0.93077 0.03524 0.69059 0.0
C114 C 0.89179 1.00949 0.62222 0.0
Eu115 Eu 0.99763 0.02995 0.62423 0.0
N116 N 0.98559 0.99361 0.50999 0.0
C117 C 1.00418 0.98171 0.44497 0.0
C118 C 0.96672 0.95813 0.35858 0.0
C119 C 0.99503 0.96413 0.36828 0.0
H120 H 0.93851 0.05131 0.74057 0.0
H121 H 1.00993 0.9555 0.31621 0.0
H122 H 0.9112 0.94917 0.3641 0.0
H123 H 0.88801 0.04139 0.7358 0.0
H124 H 0.02621 0.98538 0.4505 0.0
H125 H 0.99991 0.07218 0.13217 0.0
H126 H 0.9596 0.94504 0.29764 0.0
H127 H 0.09201 0.06134 0.64723 0.0
H128 H 0.99865 0.0459 0.97662 0.0
H129 H 0.13127 0.09264 0.67133 0.0
H130 H 0.8783 0.9715 0.48025 0.0
H131 H 0.04263 0.09769 0.18235 0.0
H132 H 0.09097 0.1134 0.14001 0.0
H133 H 0.86951 1.00556 0.61925 0.0
H134 H 0.12722 0.11887 0.01354 0.0
N135 N 0.04122 0.05395 0.93834 0.0
C136 C 0.01794 0.05568 0.9972 0.0
C137 C 0.04238 0.08571 0.11354 0.0
C138 C 0.06526 0.08589 0.04948 0.0
C139 C 0.01829 0.07129 0.08562 0.0
C140 C 0.06376 0.07025 0.9601 0.0
H141 H 0.1417 0.11237 0.83705 0.0
N142 N 0.08097 0.05955 0.8003 0.0
C143 C 0.11878 0.08664 0.73407 0.0
C144 C 0.08441 0.07292 0.88914 0.0
C145 C 0.09665 0.06786 0.72138 0.0
C146 C 0.12454 0.0978 0.82751 0.0
C147 C 0.10674 0.09175 0.90584 0.0
O148 O 0.08872 0.99751 0.84124 0.0
O149 O 0.02259 0.99774 0.6972 0.0
O150 O 0.97535 1.00749 0.75009 0.0
O151 O 1.00753 1.00761 0.87863 0.0
O152 O 0.05059 0.97327 0.76502 0.0
O153 O 0.06135 1.01151 0.95936 0.0
O154 O 0.96885 0.05775 0.55111 0.0
O155 O 0.02838 0.05347 0.72497 0.0
O156 O 0.07482 0.01686 0.66523 0.0
O157 O 0.04053 0.02278 0.54459 0.0
O158 O 0.98809 0.06737 0.72904 0.0
O159 O 1.01086 0.05319 0.49528 0.0
C160 C 0.03132 0.97242 0.69874 0.0
C161 C 0.08116 0.96816 0.97635 0.0
C162 C 0.05163 0.93139 0.03848 0.0
C163 C 0.05488 0.9555 0.98472 0.0
C164 C 0.07525 0.91882 0.08021 0.0
C165 C 0.10471 0.95557 0.01718 0.0
C166 C 0.10173 0.93073 0.06841 0.0
C167 C 0.98168 1.00383 0.84424 0.0
C168 C 0.0826 0.99596 0.93482 0.0
C169 C 0.10977 0.105 0.99858 0.0
C170 C 0.08908 0.10197 0.07052 0.0
C171 C 1.01277 0.07255 0.76184 0.0
C172 C 0.99095 0.09843 0.50596 0.0
C173 C 0.01678 0.11036 0.5309 0.0
C174 C 0.01944 0.13929 0.54464 0.0
C175 C 0.99507 0.15588 0.54255 0.0
C176 C 0.96713 0.11535 0.50137 0.0
C177 C 0.96916 0.14389 0.52157 0.0
C178 C 0.0671 0.01854 0.57126 0.0
C179 C 0.98805 0.0681 0.49536 0.0
H180 H 0.0365 0.96535 0.9545 0.0
H181 H 0.0732 0.8999 0.12188 0.0
H182 H 0.12507 0.9653 0.01183 0.0
H183 H 0.11983 0.92105 0.10095 0.0
H184 H 0.03498 0.09714 0.53783 0.0
H185 H 0.99598 0.17835 0.55141 0.0
H186 H 0.94688 0.10638 0.48431 0.0
H187 H 0.95071 0.15688 0.51853 0.0
Eu188 Eu 0.52161 0.03833 0.75671 0.0
C189 C 0.55172 0.93508 0.50852 0.0
C190 C 0.58186 0.94796 0.37364 0.0
C191 C 0.58618 0.90205 0.44407 0.0
C192 C 0.56087 0.95482 0.44336 0.0
C193 C 0.56333 0.90799 0.50621 0.0
C194 C 0.59546 0.92206 0.37777 0.0
C195 C 0.5255 0.89315 0.61082 0.0
N196 N 0.52893 0.94119 0.56438 0.0
C197 C 0.51467 0.92025 0.61002 0.0
C198 C 0.55036 0.88715 0.56076 0.0
Eu199 Eu 0.51249 0.98818 0.56371 0.0
N200 N 0.54634 0.97905 0.43821 0.0
C201 C 0.54899 0.9952 0.35674 0.0
C202 C 0.58676 0.96621 0.29649 0.0
C203 C 0.5696 0.98943 0.28614 0.0
H204 H 0.49549 0.92482 0.64929 0.0
H205 H 0.57194 1.00265 0.2229 0.0
H206 H 0.61196 0.91666 0.32596 0.0
H207 H 0.51472 0.87695 0.65028 0.0
H208 H 0.53504 1.01239 0.34422 0.0
H209 H 0.46957 0.9664 0.0203 0.0
H210 H 0.60221 0.96149 0.24044 0.0
H211 H 0.50119 0.10323 0.70337 0.0
H212 H 0.49392 0.97707 0.86989 0.0
H213 H 0.4694 0.13945 0.76686 0.0
H214 H 0.59568 0.88152 0.44245 0.0
H215 H 0.44604 1.00383 0.11608 0.0
H216 H 0.42995 0.05277 0.12424 0.0
H217 H 0.55857 0.86608 0.56068 0.0
H218 H 0.42544 0.0982 0.04465 0.0
N219 N 0.49099 0.02163 0.88677 0.0
C220 C 0.48698 0.99443 0.91434 0.0
C221 C 0.45831 1.009 0.05171 0.0
C222 C 0.45872 0.03603 0.01579 0.0
C223 C 0.4717 0.9879 0.99848 0.0
C224 C 0.47514 0.04181 0.93169 0.0
H225 H 0.44028 0.13067 0.91354 0.0
N226 N 0.48826 0.07255 0.80575 0.0
C227 C 0.46995 0.11926 0.8011 0.0
C228 C 0.4733 0.06775 0.88885 0.0
C229 C 0.48748 0.09827 0.76373 0.0
C230 C 0.45375 0.11431 0.88425 0.0
C231 C 0.45538 0.08843 0.92949 0.0
O232 O 0.5476 0.07522 0.73226 0.0
O233 O 0.54342 0.019 0.62215 0.0
O234 O 0.53292 0.96629 0.69755 0.0
O235 O 0.53707 0.99864 0.82863 0.0
O236 O 0.56711 0.02255 0.74767 0.0
O237 O 0.53442 0.06504 0.87991 0.0
O238 O 0.48543 0.96067 0.4749 0.0
O239 O 0.48813 0.01683 0.66909 0.0
O240 O 0.50367 0.05883 0.6188 0.0
O241 O 0.52406 0.03108 0.49993 0.0
O242 O 0.47712 0.97544 0.66759 0.0
O243 O 0.4836 1.00485 0.45521 0.0
C244 C 0.56789 0.01481 0.65565 0.0
C245 C 0.57843 0.08516 0.86289 0.0
C246 C 0.61938 0.06603 0.94193 0.0
C247 C 0.59183 0.06327 0.9101 0.0
C248 C 0.63339 0.09154 0.92904 0.0
C249 C 0.59243 0.11048 0.84987 0.0
C250 C 0.61984 0.11368 0.88357 0.0
C251 C 0.53974 0.97291 0.79067 0.0
C252 C 0.55005 0.08103 0.82629 0.0
C253 C 0.43957 0.08272 0.01369 0.0
C254 C 0.4419 0.05688 0.05838 0.0
C255 C 0.47007 0.99975 0.70136 0.0
C256 C 0.44076 0.98149 0.46581 0.0
C257 C 0.42502 1.00542 0.44653 0.0
C258 C 0.3978 1.00857 0.484 0.0
C259 C 0.38633 0.98704 0.54043 0.0
C260 C 0.42853 0.95986 0.51955 0.0
C261 C 0.40148 0.96271 0.5565 0.0
C262 C 0.51294 0.05539 0.52754 0.0
C263 C 0.47082 0.98121 0.4416 0.0
H264 H 0.58076 0.04388 0.92197 0.0
H265 H 0.65489 0.09416 0.95212 0.0
H266 H 0.58222 0.12761 0.81356 0.0
H267 H 0.63074 0.13321 0.87328 0.0
H268 H 0.43414 0.0216 0.40202 0.0
H269 H 0.3655 0.98872 0.57104 0.0
H270 H 0.44014 0.94115 0.53605 0.0
H271 H 0.39235 0.94615 0.59891 0.0
Eu272 Eu 0.54806 0.5053 0.5696 0.0
C273 C 0.43829 0.54423 0.71022 0.0
C274 C 0.4342 0.59263 0.76537 0.0
C275 C 0.39455 0.56929 0.68848 0.0
C276 C 0.45021 0.56807 0.75252 0.0
C277 C 0.40988 0.54435 0.68231 0.0
C278 C 0.40673 0.59342 0.72953 0.0
C279 C 0.41242 0.49439 0.65889 0.0
N280 N 0.45347 0.52023 0.70624 0.0
C281 C 0.4406 0.4953 0.68559 0.0
C282 C 0.39717 0.51906 0.65507 0.0
Eu283 Eu 0.50059 0.52393 0.75854 0.0
N284 N 0.47652 0.56649 0.7894 0.0
C285 C 0.48702 0.58776 0.84752 0.0
C286 C 0.44571 0.61521 0.81859 0.0
C287 C 0.47197 0.61251 0.86171 0.0
H288 H 0.45177 0.47587 0.68792 0.0
H289 H 0.48072 0.62954 0.90545 0.0
H290 H 0.39427 0.61222 0.73756 0.0
H291 H 0.40253 0.4746 0.64092 0.0
H292 H 0.50745 0.58618 0.88015 0.0
H293 H 0.63462 0.46346 0.79044 0.0
H294 H 0.43405 0.63438 0.83007 0.0
H295 H 0.55405 0.54166 0.36326 0.0
H296 H 0.58677 0.46626 0.73254 0.0
H297 H 0.58764 0.57307 0.28446 0.0
H298 H 0.37287 0.56983 0.6657 0.0
H299 H 0.67056 0.49542 0.72692 0.0
H300 H 0.68329 0.53448 0.61677 0.0
H301 H 0.37527 0.51817 0.63547 0.0
H302 H 0.67041 0.56502 0.48072 0.0
N303 N 0.59417 0.50015 0.63509 0.0
C304 C 0.60163 0.48051 0.70223 0.0
C305 C 0.64924 0.49708 0.70146 0.0
C306 C 0.64192 0.51657 0.63104 0.0
C307 C 0.62908 0.47884 0.73656 0.0
C308 C 0.614 0.51733 0.59757 0.0
H309 H 0.63479 0.57982 0.35747 0.0
N310 N 0.58069 0.53266 0.48344 0.0
C311 C 0.59354 0.56218 0.35024 0.0
C312 C 0.60693 0.53433 0.52033 0.0
C313 C 0.57434 0.5447 0.39584 0.0
C314 C 0.61994 0.56607 0.39193 0.0
C315 C 0.6273 0.55124 0.47571 0.0
O316 O 0.56934 0.48498 0.44403 0.0
O317 O 0.50161 0.50826 0.60188 0.0
O318 O 0.49874 0.47665 0.72962 0.0
O319 O 0.54277 0.46759 0.66942 0.0
O320 O 0.51584 0.52717 0.47553 0.0
O321 O 0.53105 0.46781 0.49928 0.0
O322 O 0.51321 0.50076 0.88811 0.0
O323 O 0.54582 0.5132 0.73168 0.0
O324 O 0.54616 0.55357 0.57213 0.0
O325 O 0.50989 0.56541 0.68021 0.0
O326 O 0.53819 0.54937 0.81138 0.0
O327 O 0.4737 0.52155 0.889 0.0
C328 C 0.49385 0.52173 0.52646 0.0
C329 C 0.53775 0.46474 0.32782 0.0
C330 C 0.50466 0.44174 0.21746 0.0
C331 C 0.51423 0.44786 0.31264 0.0
C332 C 0.51844 0.45301 0.13615 0.0
C333 C 0.55077 0.47701 0.24638 0.0
C334 C 0.54091 0.47128 0.15095 0.0
C335 C 0.51989 0.45924 0.71506 0.0
C336 C 0.54921 0.46732 0.42824 0.0
C337 C 0.65457 0.55194 0.51341 0.0
C338 C 0.6619 0.53452 0.59069 0.0
C339 C 0.55774 0.53332 0.7777 0.0
C340 C 0.49774 0.51958 0.038 0.0
C341 C 0.51521 0.54275 0.04567 0.0
C342 C 0.52044 0.55588 0.13664 0.0
C343 C 0.50852 0.54463 0.22214 0.0
C344 C 0.48584 0.50859 0.12279 0.0
C345 C 0.49171 0.52076 0.21499 0.0
C346 C 0.52925 0.57242 0.61463 0.0
C347 C 0.49157 0.50775 0.94048 0.0
H348 H 0.50461 0.4375 0.37455 0.0
H349 H 0.51212 0.44735 0.06162 0.0
H350 H 0.5688 0.49044 0.25606 0.0
H351 H 0.55099 0.48052 0.08819 0.0
H352 H 0.5235 0.55149 0.97954 0.0
H353 H 0.51166 0.55457 0.2937 0.0
H354 H 0.47254 0.49036 0.11763 0.0
H355 H 0.48298 0.51174 0.28045 0.0
Eu356 Eu 0.02771 0.55029 0.5993 0.0
C357 C 0.03188 0.44116 0.82512 0.0
C358 C 1.00974 0.40839 0.71156 0.0
C359 C 0.04313 0.39165 0.83115 0.0
C360 C 1.01373 0.43603 0.74764 0.0
C361 C 0.04646 0.41896 0.86878 0.0
C362 C 0.02478 0.38637 0.75276 0.0
C363 C 0.06479 0.45191 0.98942 0.0
N364 N 0.03432 0.46764 0.86112 0.0
C365 C 0.04962 0.47305 0.94471 0.0
C366 C 0.06342 0.42474 0.95073 0.0
Eu367 Eu 1.00816 0.50303 0.78288 0.0
N368 N 0.99948 0.45781 0.70912 0.0
C369 C 0.98061 0.45288 0.63465 0.0
C370 C 0.99048 0.40354 0.63593 0.0
C371 C 0.9759 0.42588 0.59729 0.0
H372 H 0.05014 0.49388 0.97662 0.0
H373 H 0.96108 0.42238 0.53806 0.0
H374 H 0.02209 0.36512 0.72532 0.0
H375 H 0.07734 0.45657 0.05408 0.0
H376 H 0.96959 0.46951 0.5999 0.0
H377 H 0.13438 0.58079 0.50426 0.0
H378 H 0.98661 0.38262 0.60743 0.0
H379 H 0.97412 0.59115 0.66906 0.0
H380 H 0.09337 0.54948 0.51226 0.0
H381 H 0.96559 0.64032 0.71651 0.0
H382 H 0.05423 0.37439 0.86344 0.0
H383 H 0.1317 0.62833 0.57885 0.0
H384 H 0.1026 0.66587 0.65957 0.0
H385 H 0.07495 0.40827 0.98596 0.0
H386 H 0.05649 0.68222 0.71569 0.0
N387 N 0.06859 0.57826 0.5943 0.0
C388 C 0.09221 0.57015 0.54462 0.0
C389 C 0.11384 0.61451 0.58329 0.0
C390 C 0.0888 0.62359 0.62671 0.0
C391 C 0.11542 0.58777 0.54078 0.0
C392 C 0.06612 0.60478 0.63072 0.0
H393 H 1.00513 0.67321 0.73236 0.0
N394 N 0.01825 0.5959 0.65984 0.0
C395 C 0.98669 0.63311 0.70286 0.0
C396 C 0.04017 0.61392 0.66385 0.0
C397 C 0.99164 0.60521 0.67607 0.0
C398 C 1.00911 0.65156 0.71258 0.0
C399 C 0.03622 0.64217 0.6921 0.0
O400 O 0.02802 0.54061 0.44133 0.0
O401 O 0.01572 0.50519 0.62018 0.0
O402 O 0.05663 0.50514 0.78368 0.0
O403 O 0.06838 0.54266 0.68573 0.0
O404 O 0.05184 0.51236 0.54131 0.0
O405 O 1.01222 0.5801 0.49185 0.0
O406 O 0.99296 0.48769 0.92459 0.0
O407 O 1.01098 0.5493 0.75393 0.0
O408 O 0.98013 0.54542 0.58941 0.0
O409 O 0.96782 0.50976 0.69387 0.0
O410 O 0.03041 0.5355 0.87978 0.0
O411 O 0.9683 0.51686 0.84432 0.0
C412 C 0.0354 0.49292 0.57196 0.0
C413 C 0.04274 0.57998 0.35564 0.0
C414 C 0.08905 0.57365 0.28627 0.0
C415 C 0.06229 0.56336 0.30493 0.0
C416 C 0.09394 0.60256 0.29751 0.0
C417 C 0.04797 0.60873 0.36824 0.0
C418 C 0.07304 0.62009 0.3353 0.0
C419 C 0.07541 0.52276 0.74753 0.0
C420 C 0.02175 0.56588 0.41666 0.0
C421 C 0.0591 0.66052 0.69343 0.0
C422 C 0.08536 0.65121 0.66131 0.0
C423 C 0.02411 0.55748 0.83174 0.0
C424 C 0.97155 0.52503 0.01406 0.0
C425 C 0.94819 0.54221 0.02462 0.0
C426 C 0.9467 0.56252 0.10045 0.0
C427 C 0.96933 0.56615 0.16498 0.0
C428 C 0.99418 0.52876 0.07908 0.0
C429 C 0.99305 0.54938 0.15365 0.0
C430 C 0.96129 0.52812 0.62556 0.0
C431 C 0.97261 0.5055 0.92884 0.0
H432 H 0.05806 0.54131 0.29305 0.0
H433 H 0.11433 0.61143 0.28393 0.0
H434 H 0.03347 0.62212 0.40832 0.0
H435 H 0.07716 0.64215 0.34653 0.0
H436 H 0.93083 0.53957 0.97381 0.0
H437 H 0.96821 0.58106 0.22604 0.0
H438 H 1.01277 0.51607 0.07192 0.0
H439 H 1.01044 0.55206 0.20352 0.0
C440 C 0.20466 1.00235 0.208 0.0
C441 C 0.20873 0.02668 0.15361 0.0
C442 C 0.17988 0.99803 0.26427 0.0
C443 C 0.15883 0.01913 0.27159 0.0
C444 C 0.16233 0.04304 0.21224 0.0
C445 C 0.1865 0.04599 0.15241 0.0
C446 C 0.17709 0.97097 0.31804 0.0
C447 C 0.14131 0.06649 0.21558 0.0
C448 C 0.08474 1.01317 0.39152 0.0
C449 C 0.09019 0.0174 0.49299 0.0
C450 C 0.10652 1.0125 0.31948 0.0
C451 C 0.13489 0.01767 0.34732 0.0
C452 C 0.14028 0.02258 0.44956 0.0
C453 C 0.11839 0.02135 0.52007 0.0
C454 C 0.09842 1.00605 0.2139 0.0
C455 C 0.16925 0.02983 0.48598 0.0
H456 H 0.22139 0.98716 0.2103 0.0
H457 H 0.18925 0.06484 0.11077 0.0
H458 H 0.19019 0.97187 0.38547 0.0
H459 H 0.15518 0.96644 0.33931 0.0
H460 H 0.18498 0.95335 0.2712 0.0
H461 H 0.1493 0.08559 0.18003 0.0
H462 H 0.12213 0.05973 0.17608 0.0
H463 H 0.13543 0.07192 0.29294 0.0
H464 H 0.06337 1.00996 0.36769 0.0
H465 H 0.12353 0.02442 0.59734 0.0
H466 H 0.1166 1.00242 0.16458 0.0
H467 H 0.08587 0.02359 0.1853 0.0
H468 H 0.08484 0.98724 0.21069 0.0
H469 H 0.18137 1.01036 0.49505 0.0
H470 H 0.16861 0.04096 0.55877 0.0
H471 H 0.18056 0.04314 0.4331 0.0
C472 C 0.52282 0.19963 0.21976 0.0
C473 C 0.50321 0.19972 0.14275 0.0
C474 C 0.52667 0.17576 0.27859 0.0
C475 C 0.51019 0.15139 0.26169 0.0
C476 C 0.49105 0.15131 0.18187 0.0
C477 C 0.48823 0.17508 0.12277 0.0
C478 C 0.54747 0.17709 0.36193 0.0
C479 C 0.47269 0.12644 0.16008 0.0
C480 C 0.52949 0.08048 0.37419 0.0
C481 C 0.51216 0.0796 0.45808 0.0
C482 C 0.52938 0.10363 0.31064 0.0
C483 C 0.51151 0.12677 0.33056 0.0
C484 C 0.49375 0.12577 0.41452 0.0
C485 C 0.49432 0.10243 0.47668 0.0
C486 C 0.54832 0.10323 0.22159 0.0
C487 C 0.47354 0.14918 0.43765 0.0
H488 H 0.53419 0.21869 0.23685 0.0
H489 H 0.47312 0.17496 0.06329 0.0
H490 H 0.53625 0.17647 0.43356 0.0
H491 H 0.56151 0.15868 0.35795 0.0
H492 H 0.56036 0.19638 0.36067 0.0
H493 H 0.45485 0.13225 0.11272 0.0
H494 H 0.4852 0.11008 0.1213 0.0
H495 H 0.46427 0.11738 0.22863 0.0
H496 H 0.5435 0.06318 0.35865 0.0
H497 H 0.48035 0.10195 0.53954 0.0
H498 H 0.56144 0.12234 0.22161 0.0
H499 H 0.53555 0.10321 0.15333 0.0
H500 H 0.56219 0.08464 0.21905 0.0
H501 H 0.48487 0.16936 0.4436 0.0
H502 H 0.46189 0.14593 0.50745 0.0
H503 H 0.45825 0.15088 0.37659 0.0
C504 C 0.36192 0.50506 0.14843 0.0
C505 C 0.33677 0.51434 0.19107 0.0
C506 C 0.38781 0.50812 0.19902 0.0
C507 C 0.38883 0.51995 0.29659 0.0
C508 C 0.36348 0.53063 0.33721 0.0
C509 C 0.33819 0.52793 0.28397 0.0
C510 C 0.41417 0.4991 0.14691 0.0
C511 C 0.36192 0.54397 0.43889 0.0
C512 C 0.45012 0.49688 0.46299 0.0
C513 C 0.46558 0.52159 0.47712 0.0
C514 C 0.42503 0.49623 0.40707 0.0
C515 C 0.41588 0.52034 0.35671 0.0
C516 C 0.43233 0.54497 0.3667 0.0
C517 C 0.45647 0.54541 0.42748 0.0
C518 C 0.40801 0.46973 0.40333 0.0
C519 C 0.42463 0.57091 0.31205 0.0
H520 H 0.36121 0.49456 0.07686 0.0
H521 H 0.31895 0.53533 0.31772 0.0
H522 H 0.42706 0.48583 0.19478 0.0
H523 H 0.40992 0.48751 0.07661 0.0
H524 H 0.4266 0.51798 0.13019 0.0
H525 H 0.35067 0.56419 0.43539 0.0
H526 H 0.34945 0.53033 0.48735 0.0
H527 H 0.38254 0.54777 0.47334 0.0
H528 H 0.45771 0.47789 0.49564 0.0
H529 H 0.46884 0.56432 0.43375 0.0
H530 H 0.40602 0.46189 0.3261 0.0
H531 H 0.3866 0.47412 0.43113 0.0
H532 H 0.41738 0.45302 0.44817 0.0
H533 H 0.42071 0.56566 0.23306 0.0
H534 H 0.44124 0.5871 0.31691 0.0
H535 H 0.40508 0.57983 0.3434 0.0
C536 C 0.05801 0.3644 0.17538 0.0
C537 C 0.03844 0.34249 0.18073 0.0
C538 C 0.05564 0.3893 0.23442 0.0
C539 C 0.03329 0.39281 0.30316 0.0
C540 C 1.01272 0.37128 0.30505 0.0
C541 C 0.01562 0.34666 0.24499 0.0
C542 C 0.07804 0.4113 0.22692 0.0
C543 C 0.98853 0.37289 0.37607 0.0
C544 C 0.04724 0.44191 0.53121 0.0
C545 C 0.03247 0.46636 0.50908 0.0
C546 C 0.04678 0.41781 0.46753 0.0
C547 C 0.03238 0.41811 0.3755 0.0
C548 C 0.01775 0.443 0.35236 0.0
C549 C 0.0178 0.46645 0.41898 0.0
C550 C 0.06179 0.39186 0.49911 0.0
C551 C 1.00236 0.44506 0.25581 0.0
H552 H 0.07628 0.36125 0.12922 0.0
H553 H 1.00097 0.32963 0.25363 0.0
H554 H 0.06844 0.43215 0.21772 0.0
H555 H 0.09034 0.41221 0.29623 0.0
H556 H 0.09255 0.40703 0.1644 0.0
H557 H 0.97038 0.36069 0.34779 0.0
H558 H 0.99511 0.3637 0.44669 0.0
H559 H 0.98179 0.39471 0.391 0.0
H560 H 0.05922 0.44158 0.59896 0.0
H561 H 1.00683 0.48529 0.39918 0.0
H562 H 0.07854 0.38646 0.4454 0.0
H563 H 0.04696 0.37405 0.4998 0.0
H564 H 0.07119 0.39438 0.57369 0.0
H565 H 0.98628 0.42841 0.25021 0.0
H566 H 0.01713 0.44174 0.19341 0.0
H567 H 0.99204 0.46564 0.24768 0.0
C568 C 0.85267 0.96059 0.21425 0.0
C569 C 0.83271 0.98215 0.22165 0.0
C570 C 0.8779 0.96345 0.15993 0.0
C571 C 0.88413 0.98875 0.11151 0.0
C572 C 0.86486 1.01123 0.12406 0.0
C573 C 0.8395 1.00762 0.17766 0.0
C574 C 0.89728 0.93873 0.15018 0.0
C575 C 0.87059 0.03894 0.0776 0.0
C576 C 0.96 1.00142 0.01781 0.0
C577 C 0.95783 0.99691 0.91484 0.0
C578 C 0.93653 0.99915 0.08191 0.0
C579 C 0.90987 0.99111 0.04425 0.0
C580 C 0.90797 0.98498 0.94123 0.0
C581 C 0.93159 0.98807 0.87866 0.0
C582 C 0.94019 1.00675 0.18964 0.0
C583 C 0.88069 0.97544 0.89623 0.0
H584 H 0.84779 0.94078 0.24728 0.0
H585 H 0.82427 0.02433 0.18094 0.0
H586 H 0.89733 0.93087 0.07251 0.0
H587 H 0.91901 0.94498 0.16862 0.0
H588 H 0.89099 0.92142 0.19868 0.0
H589 H 0.85511 0.05509 0.10059 0.0
H590 H 0.89182 0.04638 0.09799 0.0
H591 H 0.87001 0.03649 0.99603 0.0
H592 H 0.97993 1.0076 0.04885 0.0
H593 H 0.92935 0.98363 0.80037 0.0
H594 H 0.92786 0.99277 0.23699 0.0
H595 H 0.93245 0.02832 0.20314 0.0
H596 H 0.96246 1.00598 0.21232 0.0
H597 H 0.87273 0.95692 0.93524 0.0
H598 H 0.88275 0.97002 0.81641 0.0
H599 H 0.86484 0.99219 0.90503 0.0
C600 C 0.52867 0.83552 0.11403 0.0
C601 C 0.55275 0.82748 0.16491 0.0
C602 C 0.52783 0.86043 0.05983 0.0
C603 C 0.55184 0.87782 0.05449 0.0
C604 C 0.57593 0.87025 0.10901 0.0
C605 C 0.57611 0.84522 0.16292 0.0
C606 C 0.50148 0.86758 1.00499 0.0
C607 C 0.60203 0.88791 0.10654 0.0
C608 C 0.55622 0.92351 0.8242 0.0
C609 C 0.54704 0.94968 0.85995 0.0
C610 C 0.55891 0.9004 0.88693 0.0
C611 C 0.55195 0.9031 0.98877 0.0
C612 C 0.544 0.92983 0.02625 0.0
C613 C 0.54228 0.95273 0.96232 0.0
C614 C 0.56838 0.87276 0.84317 0.0
C615 C 0.5358 0.93397 0.13313 0.0
H616 H 0.51085 0.82156 0.11321 0.0
H617 H 0.595 0.83875 0.19987 0.0
H618 H 0.49506 0.88934 0.02324 0.0
H619 H 0.50542 0.86628 0.92432 0.0
H620 H 0.48396 0.85332 0.02268 0.0
H621 H 0.61834 0.88035 0.15766 0.0
H622 H 0.61068 0.88768 0.0305 0.0
H623 H 0.59709 0.90994 0.12653 0.0
H624 H 0.56117 0.92102 0.74662 0.0
H625 H 0.53586 0.97284 0.99245 0.0
H626 H 0.55057 0.85793 0.84161 0.0
H627 H 0.58499 0.8636 0.88936 0.0
H628 H 0.57642 0.87478 0.76673 0.0
H629 H 0.53234 0.95631 0.15314 0.0
H630 H 0.55203 0.92541 0.18222 0.0
H631 H 0.5162 0.92237 0.1475 0.0
C632 C 0.6771 0.55819 0.18103 0.0
C633 C 0.7025 0.54377 0.16919 0.0
C634 C 0.65487 0.55477 0.11308 0.0
C635 C 0.65722 0.53563 0.03209 0.0
C636 C 0.68237 0.51993 0.02267 0.0
C637 C 0.70466 0.52439 0.09025 0.0
C638 C 0.62905 0.57241 0.12579 0.0
C639 C 0.68659 0.49945 0.93822 0.0
C640 C 0.5876 0.51268 0.91153 0.0
C641 C 0.5847 0.53146 0.83399 0.0
C642 C 0.61148 0.51294 0.9733 0.0
C643 C 0.63331 0.53254 0.95834 0.0
C644 C 0.6308 0.55092 0.87777 0.0
C645 C 0.60642 0.55057 0.81838 0.0
C646 C 0.61269 0.49286 0.05725 0.0
C647 C 0.65372 0.57142 0.85523 0.0
H648 H 0.67504 0.57302 0.242 0.0
H649 H 0.72429 0.51355 0.07886 0.0
H650 H 0.62506 0.58403 0.05764 0.0
H651 H 0.61075 0.55867 0.13755 0.0
H652 H 0.63084 0.58783 0.18767 0.0
H653 H 0.70309 0.48396 0.95487 0.0
H654 H 0.667 0.48813 0.9199 0.0
H655 H 0.6933 0.51112 0.87251 0.0
H656 H 0.57077 0.49815 0.92557 0.0
H657 H 0.60428 0.56539 0.75957 0.0
H658 H 0.63429 0.48538 0.0698 0.0
H659 H 0.5991 0.47442 0.04327 0.0
H660 H 0.60551 0.50374 0.12585 0.0
H661 H 0.65519 0.58736 0.91562 0.0
H662 H 0.65007 0.5822 0.78467 0.0
H663 H 0.67412 0.56047 0.85078 0.0
C664 C 1.00656 0.68703 0.23312 0.0
C665 C 0.01423 0.71316 0.19638 0.0
C666 C 1.00936 0.66194 0.1753 0.0
C667 C 0.01962 0.66247 0.07643 0.0
C668 C 0.02815 0.68884 0.04045 0.0
C669 C 0.02534 0.7135 0.10009 0.0
C670 C 0.99974 0.63493 0.21847 0.0
C671 C 0.03833 0.6917 0.93596 0.0
C672 C 0.04658 0.59554 0.93815 0.0
C673 C 0.02298 0.58566 0.88606 0.0
C674 C 0.04571 0.61986 1.0004 0.0
C675 C 0.02072 0.63579 0.01074 0.0
C676 C 0.99673 0.62574 0.95873 0.0
C677 C 0.9979 0.60052 0.90088 0.0
C678 C 0.07184 0.62847 0.05508 0.0
C679 C 0.96989 0.64221 0.96036 0.0
H680 H 0.99709 0.68637 0.3057 0.0
H681 H 0.03048 0.73354 0.06921 0.0
H682 H 0.97959 0.62895 0.18458 0.0
H683 H 0.01479 0.61791 0.20117 0.0
H684 H 0.99655 0.63676 0.29949 0.0
H685 H 0.0509 0.71098 0.92718 0.0
H686 H 0.05103 0.6735 0.91138 0.0
H687 H 0.01992 0.69298 0.88677 0.0
H688 H 0.06588 0.58382 0.93151 0.0
H689 H 0.97899 0.5924 0.86715 0.0
H690 H 0.06683 0.63594 0.13109 0.0
H691 H 0.08196 0.64593 0.0162 0.0
H692 H 0.08707 0.61104 0.0592 0.0
H693 H 0.95185 0.62943 0.93452 0.0
H694 H 0.97219 0.66018 0.91069 0.0
H695 H 0.96525 0.6509 0.035 0.0
C696 C 0.05028 0.22793 0.24138 0.0
C697 C 0.07092 0.24728 0.22037 0.0
C698 C 0.05543 0.20635 0.30539 0.0
C699 C 0.08146 0.20547 0.35589 0.0
C700 C 0.10307 0.22415 0.33072 0.0
C701 C 0.09765 0.24465 0.261 0.0
C702 C 0.03199 0.18589 0.32277 0.0
C703 C 0.1316 0.2229 0.37757 0.0
C704 C 0.051 0.18004 0.57649 0.0
C705 C 0.04746 0.15258 0.54062 0.0
C706 C 0.06951 0.19792 0.52924 0.0
C707 C 0.08347 0.18789 0.44368 0.0
C708 C 0.08647 0.1589 0.42814 0.0
C709 C 0.06805 0.14119 0.47699 0.0
C710 C 0.06896 0.22858 0.55637 0.0
C711 C 0.10397 0.14738 0.34427 0.0
H712 H 0.02969 0.23029 0.20944 0.0
H713 H 0.11378 0.25941 0.24146 0.0
H714 H 0.03972 0.16412 0.31869 0.0
H715 H 0.02274 0.19006 0.39651 0.0
H716 H 0.015 0.18769 0.26746 0.0
H717 H 0.14269 0.24321 0.37308 0.0
H718 H 0.13047 0.21686 0.45603 0.0
H719 H 0.14427 0.20694 0.33736 0.0
H720 H 0.03699 0.18848 0.63255 0.0
H721 H 0.06705 0.11961 0.452 0.0
H722 H 0.05239 0.23894 0.5132 0.0
H723 H 0.08922 0.23863 0.53907 0.0
H724 H 0.06423 0.2319 0.63607 0.0
H725 H 0.09225 0.14929 0.27415 0.0
H726 H 0.10899 0.12499 0.35447 0.0
H727 H 0.12366 0.15943 0.33762 0.0
C728 C 0.32615 0.07746 0.09763 0.0
C729 C 0.29822 0.08145 0.1258 0.0
C730 C 0.34715 0.08001 0.16933 0.0
C731 C 0.3397 0.08919 0.26545 0.0
C732 C 0.31477 0.10452 0.27621 0.0
C733 C 0.29466 0.10202 0.20093 0.0
C734 C 0.37623 0.0704 0.14602 0.0
C735 C 0.30806 0.12037 0.37025 0.0
C736 C 0.35277 0.02841 0.4279 0.0
C737 C 0.38063 0.03278 0.45434 0.0
C738 C 0.33788 0.0485 0.37682 0.0
C739 C 0.35132 0.07372 0.35003 0.0
C740 C 0.37826 0.07978 0.38785 0.0
C741 C 0.39264 0.05918 0.43977 0.0
C742 C 0.30855 0.04127 0.34447 0.0
C743 C 0.39291 0.10704 0.36936 0.0
H744 H 0.33164 0.07093 0.02363 0.0
H745 H 0.27552 0.11369 0.20783 0.0
H746 H 0.39109 0.08732 0.16589 0.0
H747 H 0.38155 0.05212 0.19109 0.0
H748 H 0.37888 0.06473 0.06675 0.0
H749 H 0.29582 0.13943 0.35431 0.0
H750 H 0.29508 0.1071 0.41832 0.0
H751 H 0.32737 0.12631 0.41096 0.0
H752 H 0.34313 1.00829 0.43959 0.0
H753 H 0.41382 0.0633 0.46427 0.0
H754 H 0.30113 0.02116 0.37431 0.0
H755 H 0.30753 0.03964 0.26299 0.0
H756 H 0.29404 0.0578 0.37049 0.0
H757 H 0.41134 0.10319 0.32113 0.0
H758 H 0.40097 0.11592 0.4402 0.0
H759 H 0.37915 0.12269 0.33495 0.0
C760 C 0.43962 0.30579 0.04809 0.0
C761 C 0.45257 0.28729 0.11159 0.0
C762 C 0.4331 0.33296 0.08133 0.0
C763 C 0.43959 0.34103 0.17992 0.0
C764 C 0.44339 0.31974 0.24892 0.0
C765 C 0.45151 0.2932 0.21383 0.0
C766 C 0.42001 0.35266 0.00996 0.0
C767 C 0.44375 0.32614 0.35825 0.0
C768 C 0.50005 0.39165 0.19951 0.0
C769 C 0.48669 0.41728 0.20465 0.0
C770 C 0.48495 0.36691 0.19779 0.0
C771 C 0.45516 0.3677 0.19727 0.0
C772 C 0.44148 0.39391 0.20829 0.0
C773 C 0.45755 0.41858 0.21196 0.0
C774 C 0.50162 0.34027 0.19879 0.0
C775 C 0.41022 0.39645 0.21884 0.0
H776 H 0.43609 0.29972 0.97188 0.0
H777 H 0.45963 0.27836 0.2656 0.0
H778 H 0.39718 0.34863 1.00803 0.0
H779 H 0.42305 0.37483 0.03123 0.0
H780 H 0.42811 0.34878 0.93406 0.0
H781 H 0.46532 0.32457 0.38728 0.0
H782 H 0.43536 0.34728 0.37589 0.0
H783 H 0.43101 0.31038 0.39697 0.0
H784 H 0.52273 0.39103 0.19947 0.0
H785 H 0.44744 0.43869 0.22136 0.0
H786 H 0.49323 0.32521 0.14435 0.0
H787 H 0.50045 0.33099 0.27275 0.0
H788 H 0.52409 0.34361 0.18266 0.0
H789 H 0.40188 0.40911 0.15791 0.0
H790 H 0.40523 0.40787 0.28885 0.0
H791 H 0.39933 0.37601 0.21885 0.0
C792 C 0.21756 0.47368 0.19053 0.0
C793 C 0.2399 0.49112 0.2158 0.0
C794 C 0.1907 0.47976 0.22631 0.0
C795 C 0.1869 0.50353 0.28917 0.0
C796 C 0.21044 0.51654 0.3327 0.0
C797 C 0.23672 0.511 0.29242 0.0
C798 C 0.16689 0.46105 0.19455 0.0
C799 C 0.20773 0.5387 0.41299 0.0
C800 C 0.13639 0.56081 0.22281 0.0
C801 C 0.11267 0.55373 0.27646 0.0
C802 C 0.16036 0.54428 0.22544 0.0
C803 C 0.1608 0.51999 0.28401 0.0
C804 C 0.13686 0.51262 0.33832 0.0
C805 C 0.11283 0.52901 0.33106 0.0
C806 C 0.18533 0.55361 0.16674 0.0
C807 C 0.1364 0.4881 0.40651 0.0
H808 H 0.22074 0.45645 0.13879 0.0
H809 H 0.25437 0.52368 0.31573 0.0
H810 H 0.16594 0.44314 0.24502 0.0
H811 H 0.14637 0.47164 0.19768 0.0
H812 H 0.17036 0.45241 0.11877 0.0
H813 H 0.21148 0.55959 0.38186 0.0
H814 H 0.18683 0.53852 0.44853 0.0
H815 H 0.22391 0.53551 0.47033 0.0
H816 H 0.13635 0.57949 0.17912 0.0
H817 H 0.09465 0.52295 0.37294 0.0
H818 H 0.19731 0.53557 0.1372 0.0
H819 H 0.19933 0.56632 0.21482 0.0
H820 H 0.17894 0.56689 0.10478 0.0
H821 H 0.12685 0.46987 0.36742 0.0
H822 H 0.12329 0.49282 0.47257 0.0
H823 H 0.15757 0.48217 0.43172 0.0
C824 C 0.99779 0.8126 0.12141 0.0
C825 C 0.97843 0.80539 0.19304 0.0
C826 C 0.99518 0.83724 0.07021 0.0
C827 C 0.97231 0.85531 0.09217 0.0
C828 C 0.95011 0.84546 0.15175 0.0
C829 C 0.95374 0.82066 0.20415 0.0
C830 C 0.019 0.84496 1.00263 0.0
C831 C 0.92353 0.86183 0.16628 0.0
C832 C 0.01486 0.91453 0.15085 0.0
C833 C 0.02338 0.92024 0.05498 0.0
C834 C 0.99116 0.89826 0.16696 0.0
C835 C 0.97753 0.88575 0.0847 0.0
C836 C 0.9817 0.89726 0.9907 0.0
C837 C 1.00522 0.91424 0.97593 0.0
C838 C 0.98322 0.89126 0.27106 0.0
C839 C 0.96377 0.88885 0.90385 0.0
H840 H 0.01606 0.79951 0.11047 0.0
H841 H 0.93795 0.81384 0.25564 0.0
H842 H 1.01099 0.85202 0.93083 0.0
H843 H 0.03155 0.86194 0.03742 0.0
H844 H 0.03328 0.82711 0.98733 0.0
H845 H 0.92089 0.86768 0.24546 0.0
H846 H 0.92294 0.88086 0.12115 0.0
H847 H 0.90546 0.84839 0.14567 0.0
H848 H 0.02778 0.92123 0.21241 0.0
H849 H 1.01063 0.92051 0.9019 0.0
H850 H 0.98674 0.86884 0.28408 0.0
H851 H 0.9607 0.89542 0.28292 0.0
H852 H 0.99524 0.90363 0.3265 0.0
H853 H 0.97656 0.8778 0.84689 0.0
H854 H 0.95542 0.90791 0.86925 0.0
H855 H 0.94603 0.87537 0.92566 0.0
C856 C 0.71121 0.94817 0.18824 0.0
C857 C 0.73662 0.96098 0.16593 0.0
C858 C 0.68657 0.95711 0.14303 0.0
C859 C 0.6884 0.97698 0.06753 0.0
C860 C 0.71478 0.98392 0.02815 0.0
C861 C 0.73857 0.97703 0.08105 0.0
C862 C 0.65909 0.94795 0.18568 0.0
C863 C 0.71778 1.00272 0.94084 0.0
C864 C 0.6304 0.015 0.94149 0.0
C865 C 0.6336 0.04178 0.98458 0.0
C866 C 0.64629 0.99243 0.97361 0.0
C867 C 0.6655 0.99692 0.05111 0.0
C868 C 0.66685 0.0233 0.10067 0.0
C869 C 0.65094 0.04546 0.06644 0.0
C870 C 0.64418 0.96454 0.91991 0.0
C871 C 0.68695 0.02888 0.18444 0.0
H872 H 0.71011 0.93314 0.24624 0.0
H873 H 0.75839 0.98625 0.06083 0.0
H874 H 0.64112 0.95309 0.13831 0.0
H875 H 0.6593 0.9251 0.19796 0.0
H876 H 0.65607 0.95845 0.25862 0.0
H877 H 0.73849 1.00004 0.9048 0.0
H878 H 0.70121 0.99839 0.88554 0.0
H879 H 0.71587 0.02484 0.96604 0.0
H880 H 0.6165 1.01204 0.87942 0.0
H881 H 0.65272 0.06589 0.10193 0.0
H882 H 0.64022 0.94764 0.97255 0.0
H883 H 0.6643 0.95966 0.88265 0.0
H884 H 0.62722 0.9641 0.86417 0.0
H885 H 0.68167 0.0483 0.22652 0.0
H886 H 0.7084 0.03131 0.15483 0.0
H887 H 0.68704 1.01108 0.23517 0.0
C888 C 0.54388 0.71521 0.08366 0.0
C889 C 0.56351 0.72501 0.15242 0.0
C890 C 0.5432 0.68694 0.05533 0.0
C891 C 0.56189 0.66817 0.10013 0.0
C892 C 0.58442 0.67888 0.15738 0.0
C893 C 0.58469 0.70733 0.18401 0.0
C894 C 0.52092 0.67685 0.98447 0.0
C895 C 0.60796 0.66071 0.19277 0.0
C896 C 0.52258 0.60533 0.1922 0.0
C897 C 0.53448 0.58344 0.13743 0.0
C898 C 0.53143 0.63278 0.18023 0.0
C899 C 0.55293 0.63874 0.11164 0.0
C900 C 0.56508 0.61673 0.05533 0.0
C901 C 0.55622 0.5892 0.07071 0.0
C902 C 0.51627 0.65514 0.23868 0.0
C903 C 0.58616 0.62242 0.97535 0.0
H904 H 0.52817 0.72937 0.05645 0.0
H905 H 0.60084 0.71562 0.23239 0.0
H906 H 0.52779 0.65791 0.94245 0.0
H907 H 0.50175 0.6716 0.02621 0.0
H908 H 0.5154 0.69335 0.93158 0.0
H909 H 0.6161 0.66842 0.26512 0.0
H910 H 0.60198 0.63847 0.19879 0.0
H911 H 0.62543 0.66186 0.13911 0.0
H912 H 0.50511 0.60132 0.24095 0.0
H913 H 0.56547 0.57231 0.02735 0.0
H914 H 0.49697 0.66096 0.19895 0.0
H915 H 0.52902 0.67415 0.25072 0.0
H916 H 0.50989 0.64703 0.31128 0.0
H917 H 0.57844 0.63916 0.92704 0.0
H918 H 0.59061 0.60354 0.92898 0.0
H919 H 0.60598 0.62985 0.00887 0.0
C920 C 0.80514 0.60856 0.30758 0.0
C921 C 0.78703 0.59632 0.23841 0.0
C922 C 0.83198 0.61692 0.27869 0.0
C923 C 0.83976 0.61399 0.178 0.0
C924 C 0.81853 0.61024 0.10693 0.0
C925 C 0.79277 0.59962 0.13749 0.0
C926 C 0.85195 0.62715 0.35725 0.0
C927 C 0.82467 0.61236 0.99826 0.0
C928 C 0.91792 0.60597 0.12884 0.0
C929 C 0.91994 0.5769 0.11802 0.0
C930 C 0.89186 0.61891 0.14411 0.0
C931 C 0.86764 0.60209 0.15305 0.0
C932 C 0.86993 0.57263 0.1396 0.0
C933 C 0.8959 0.56063 0.12214 0.0
C934 C 0.89073 0.65036 0.15032 0.0
C935 C 0.84524 0.55316 0.14449 0.0
H936 H 0.79921 0.60987 0.38445 0.0
H937 H 0.77829 0.5917 0.08226 0.0
H938 H 0.87401 0.62649 0.33338 0.0
H939 H 0.8467 0.64914 0.37694 0.0
H940 H 0.84954 0.61487 0.42525 0.0
H941 H 0.80583 0.61941 0.95807 0.0
H942 H 0.84213 0.62713 0.98525 0.0
H943 H 0.83064 0.5916 0.96723 0.0
H944 H 0.93651 0.61858 0.12339 0.0
H945 H 0.89752 0.5381 0.11408 0.0
H946 H 0.89866 0.65759 0.22345 0.0
H947 H 0.86932 0.65864 0.14015 0.0
H948 H 0.90466 0.65941 0.09368 0.0
H949 H 0.85156 0.53113 0.15456 0.0
H950 H 0.8332 0.55385 0.07485 0.0
H951 H 0.83141 0.55952 0.20586 0.0
C952 C 0.02082 0.23678 0.96542 0.0
C953 C 0.0454 0.24396 0.01792 0.0
C954 C 0.01719 0.20996 0.91731 0.0
C955 C 0.03699 0.1878 0.9298 0.0
C956 C 0.06143 0.19513 0.98469 0.0
C957 C 0.06623 0.22304 0.01827 0.0
C958 C 0.99157 0.20585 0.85413 0.0
C959 C 0.0822 0.17365 0.01707 0.0
C960 C 1.00343 0.11387 0.88061 0.0
C961 C 0.02071 0.10109 0.80841 0.0
C962 C 1.00912 0.14082 0.9231 0.0
C963 C 0.03185 0.15745 0.88889 0.0
C964 C 0.04965 0.14433 0.81614 0.0
C965 C 0.04373 0.11693 0.77709 0.0
C966 C 0.99077 0.15055 1.00764 0.0
C967 C 0.07579 0.15851 0.78021 0.0
H968 H 1.00404 0.25179 0.96202 0.0
H969 H 0.08619 0.22779 0.05198 0.0
H970 H 0.99349 0.18782 0.80171 0.0
H971 H 0.97316 0.20272 0.9024 0.0
H972 H 0.98748 0.22489 0.81114 0.0
H973 H 0.08581 0.17597 0.09783 0.0
H974 H 0.07505 0.15212 1.00151 0.0
H975 H 0.1026 0.17728 0.98054 0.0
H976 H 0.98542 0.10236 0.90627 0.0
H977 H 0.05691 0.10822 0.71942 0.0
H978 H 1.00037 0.16755 0.05302 0.0
H979 H 0.98606 0.13288 0.05673 0.0
H980 H 0.97054 0.15786 0.97803 0.0
H981 H 0.08232 0.15033 0.70657 0.0
H982 H 0.09327 0.15368 0.83029 0.0
H983 H 0.0733 0.18151 0.77788 0.0
C984 C 0.32743 0.01613 0.03998 0.0
C985 C 0.30448 0.02792 0.99107 0.0
C986 C 0.35371 1.01171 0.99222 0.0
C987 C 0.35741 0.01748 0.88976 0.0
C988 C 0.33319 0.02691 0.83825 0.0
C989 C 0.30763 0.03254 0.88944 0.0
C990 C 0.37768 1.00146 0.05373 0.0
C991 C 0.33325 0.03075 0.72809 0.0
C992 C 0.42902 0.032 0.75761 0.0
C993 C 0.4414 1.0054 0.74901 0.0
C994 C 0.40238 0.0363 0.8038 0.0
C995 C 0.38614 1.01328 0.83794 0.0
C996 C 0.39791 0.98617 0.82233 0.0
C997 C 0.42515 0.9828 0.78153 0.0
C998 C 0.39161 0.06576 0.81458 0.0
C999 C 0.3819 0.95992 0.84477 0.0
H1000 H 0.32534 1.01204 0.11792 0.0
H1001 H 0.29004 0.04093 0.8496 0.0
H1002 H 0.3799 0.9786 0.04285 0.0
H1003 H 0.39757 1.01151 0.03218 0.0
H1004 H 0.37408 1.00541 0.13378 0.0
H1005 H 0.32853 0.05287 0.71196 0.0
H1006 H 0.3532 0.02482 0.692 0.0
H1007 H 0.31629 0.01798 0.69413 0.0
H1008 H 0.44018 0.04965 0.72836 0.0
H1009 H 0.43354 0.96187 0.77307 0.0
H1010 H 0.38161 0.06932 0.88767 0.0
H1011 H 0.3758 0.06954 0.75687 0.0
H1012 H 0.40843 0.08138 0.80488 0.0
H1013 H 0.39223 0.94912 0.90645 0.0
H1014 H 0.38271 0.94532 0.78006 0.0
H1015 H 0.35967 0.96368 0.86362 0.0
C1016 C 0.52429 0.30975 0.9975 0.0
C1017 C 0.50181 0.29242 0.96928 0.0
C1018 C 0.52885 0.33608 0.95326 0.0
C1019 C 0.51156 0.34499 0.87454 0.0
C1020 C 0.49059 0.32619 0.83977 0.0
C1021 C 0.48623 0.3003 0.88654 0.0
C1022 C 0.5511 0.3552 0.99515 0.0
C1023 C 0.47204 0.33384 0.7548 0.0
C1024 C 0.49882 0.42359 0.82873 0.0
C1025 C 0.51801 0.42987 0.75401 0.0
C1026 C 0.4969 0.39663 0.86891 0.0
C1027 C 0.51412 0.37441 0.83307 0.0
C1028 C 0.53334 0.38053 0.75613 0.0
C1029 C 0.53535 0.40805 0.71894 0.0
C1030 C 0.47527 0.39246 0.94751 0.0
C1031 C 0.55131 0.35778 0.71093 0.0
H1032 H 0.53705 0.30364 0.0593 0.0
H1033 H 0.46996 0.28635 0.8599 0.0
H1034 H 0.56561 0.3617 0.93615 0.0
H1035 H 0.54117 0.37444 0.02595 0.0
H1036 H 0.56338 0.34524 0.05426 0.0
H1037 H 0.45819 0.31634 0.73108 0.0
H1038 H 0.45882 0.35196 0.77677 0.0
H1039 H 0.48493 0.3402 0.69097 0.0
H1040 H 0.48523 0.43997 0.85733 0.0
H1041 H 0.55022 0.41232 0.66082 0.0
H1042 H 0.47825 0.37301 0.98881 0.0
H1043 H 0.45451 0.39201 0.91143 0.0
H1044 H 0.47514 0.41049 1.00023 0.0
H1045 H 0.56477 0.34854 0.76808 0.0
H1046 H 0.56482 0.36555 0.65072 0.0
H1047 H 0.53785 0.34079 0.68068 0.0
C1048 C 0.23376 0.53548 0.98254 0.0
C1049 C 0.24428 0.50895 1.00532 0.0
C1050 C 0.20807 0.53867 0.93018 0.0
C1051 C 0.19203 0.51485 0.89974 0.0
C1052 C 0.20404 0.48817 0.91529 0.0
C1053 C 0.2297 0.48564 0.9668 0.0
C1054 C 0.19786 0.5677 0.90932 0.0
C1055 C 0.18942 0.462 0.8793 0.0
C1056 C 0.11095 0.51439 0.88216 0.0
C1057 C 0.1054 0.52115 0.78407 0.0
C1058 C 0.13845 0.51254 0.91977 0.0
C1059 C 0.16216 0.51748 0.85863 0.0
C1060 C 0.15666 0.52417 0.75828 0.0
C1061 C 0.12865 0.52626 0.7231 0.0
C1062 C 0.1411 0.50442 0.0257 0.0
C1063 C 0.17996 0.52871 0.68543 0.0
H1064 H 0.24484 0.55377 0.00993 0.0
H1065 H 0.2381 0.46507 0.97993 0.0
H1066 H 0.17513 0.56965 0.92407 0.0
H1067 H 0.20916 0.58383 0.95388 0.0
H1068 H 0.20132 0.572 0.83015 0.0
H1069 H 0.1712 0.45786 0.92745 0.0
H1070 H 0.18152 0.46463 0.80305 0.0
H1071 H 0.20339 0.44351 0.8803 0.0
H1072 H 0.0936 0.51094 0.93144 0.0
H1073 H 0.12512 0.53113 0.64655 0.0
H1074 H 0.12699 0.51745 0.07257 0.0
H1075 H 0.16262 0.50611 0.05453 0.0
H1076 H 0.13383 0.48254 0.03207 0.0
H1077 H 0.17516 0.51771 0.61442 0.0
H1078 H 0.20054 0.52139 0.71187 0.0
H1079 H 0.18143 0.55131 0.66988 0.0
C1080 C 0.02846 0.82885 0.34255 0.0
C1081 C 1.01167 0.80742 0.38001 0.0
C1082 C 0.03188 0.85521 0.39276 0.0
C1083 C 0.01832 0.86116 0.48555 0.0
C1084 C 1.00299 0.83846 0.52667 0.0
C1085 C 0.99928 0.81268 0.47287 0.0
C1086 C 0.04987 0.87655 0.34267 0.0
C1087 C 0.99054 0.84053 0.62887 0.0
C1088 C 0.0494 0.92775 0.6187 0.0
C1089 C 0.02645 0.94578 0.63516 0.0
C1090 C 0.04695 0.90056 0.57489 0.0
C1091 C 0.02076 0.8903 0.53927 0.0
C1092 C 0.99712 0.90827 0.55756 0.0
C1093 C 1.00017 0.93504 0.60667 0.0
C1094 C 0.07296 0.88276 0.57241 0.0
C1095 C 0.96793 0.89919 0.5304 0.0
H1096 H 0.03847 0.82531 0.27165 0.0
H1097 H 0.98638 0.79647 0.5039 0.0
H1098 H 0.04522 0.89827 0.36727 0.0
H1099 H 0.07212 0.87201 0.35813 0.0
H1100 H 0.04734 0.87488 0.26133 0.0
H1101 H 0.99442 0.82092 0.66884 0.0
H1102 H 0.99908 0.85818 0.67377 0.0
H1103 H 0.96755 0.84283 0.62291 0.0
H1104 H 0.06985 0.93459 0.64378 0.0
H1105 H 0.98173 0.94715 0.62503 0.0
H1106 H 0.08747 0.89073 0.51564 0.0
H1107 H 0.06872 0.86034 0.55708 0.0
H1108 H 0.08403 0.8846 0.64427 0.0
H1109 H 0.95558 0.91703 0.50384 0.0
H1110 H 0.95721 0.89182 0.59764 0.0
H1111 H 0.96745 0.88229 0.47335 0.0
C1112 C 0.71688 0.96506 0.40576 0.0
C1113 C 0.73432 0.98655 0.37223 0.0
C1114 C 0.6897 0.97007 0.44487 0.0
C1115 C 0.67998 0.99781 0.46387 0.0
C1116 C 0.69914 0.01985 0.44148 0.0
C1117 C 0.72528 0.01407 0.3932 0.0
C1118 C 0.67148 0.94507 0.46466 0.0
C1119 C 0.69291 0.04985 0.46912 0.0
C1120 C 0.6009 0.0176 0.50407 0.0
C1121 C 0.59541 1.009 0.6009 0.0
C1122 C 0.62779 0.01414 0.45869 0.0
C1123 C 0.65091 1.00302 0.51205 0.0
C1124 C 0.64552 0.99568 0.6117 0.0
C1125 C 0.61821 0.99801 0.65269 0.0
C1126 C 0.63136 0.02281 0.35339 0.0
C1127 C 0.6685 0.98611 0.67892 0.0
H1128 H 0.72424 0.94377 0.39783 0.0
H1129 H 0.73841 0.03126 0.3711 0.0
H1130 H 0.67527 0.93803 0.54084 0.0
H1131 H 0.64895 0.94991 0.4567 0.0
H1132 H 0.67665 0.92736 0.41355 0.0
H1133 H 0.71088 0.05895 0.5104 0.0
H1134 H 0.69061 0.06211 0.40112 0.0
H1135 H 0.67387 0.05246 0.51501 0.0
H1136 H 0.58437 0.0278 0.4643 0.0
H1137 H 0.61482 0.99155 0.72755 0.0
H1138 H 0.61145 0.02964 0.31982 0.0
H1139 H 0.64008 1.00525 0.30854 0.0
H1140 H 0.64614 0.04051 0.35031 0.0
H1141 H 0.66555 0.96363 0.6941 0.0
H1142 H 0.66703 0.99762 0.75072 0.0
H1143 H 0.68976 0.98934 0.64878 0.0
C1144 C 0.52087 0.72591 0.36713 0.0
C1145 C 0.54721 0.73854 0.35999 0.0
C1146 C 0.51641 0.70188 0.42487 0.0
C1147 C 0.53916 0.68935 0.47601 0.0
C1148 C 0.56505 0.70419 0.47712 0.0
C1149 C 0.56885 0.72798 0.41796 0.0
C1150 C 0.48715 0.69014 0.42762 0.0
C1151 C 0.58948 0.69496 0.53844 0.0
C1152 C 0.51705 0.62485 0.6299 0.0
C1153 C 0.53198 0.60275 0.58419 0.0
C1154 C 0.51998 0.65304 0.59977 0.0
C1155 C 0.5371 0.65971 0.51704 0.0
C1156 C 0.55247 0.63727 0.47236 0.0
C1157 C 0.55006 0.60985 0.5074 0.0
C1158 C 0.50476 0.67529 0.65895 0.0
C1159 C 0.57222 0.6413 0.38736 0.0
H1160 H 0.50389 0.73421 0.32388 0.0
H1161 H 0.5892 0.73782 0.41443 0.0
H1162 H 0.47497 0.70197 0.4843 0.0
H1163 H 0.47642 0.69291 0.35586 0.0
H1164 H 0.48644 0.66774 0.44591 0.0
H1165 H 0.59871 0.71328 0.57814 0.0
H1166 H 0.5837 0.67917 0.59353 0.0
H1167 H 0.60601 0.68633 0.48908 0.0
H1168 H 0.50323 0.62034 0.69045 0.0
H1169 H 0.56252 0.59378 0.47292 0.0
H1170 H 0.48221 0.67445 0.64033 0.0
H1171 H 0.51279 0.69659 0.64546 0.0
H1172 H 0.50651 0.67117 0.73907 0.0
H1173 H 0.57078 0.62342 0.33408 0.0
H1174 H 0.59395 0.64158 0.41556 0.0
H1175 H 0.56828 0.66075 0.34757 0.0
C1176 C 0.80097 0.55807 0.44886 0.0
C1177 C 0.79368 0.544 0.36039 0.0
C1178 C 0.8271 0.5539 0.49595 0.0
C1179 C 0.84652 0.5341 0.45697 0.0
C1180 C 0.83814 0.51797 0.37242 0.0
C1181 C 0.81186 0.5228 0.32627 0.0
C1182 C 0.83435 0.57156 0.58577 0.0
C1183 C 0.85772 0.49663 0.32729 0.0
C1184 C 0.92532 0.5473 0.50701 0.0
C1185 C 0.93174 0.52917 0.58405 0.0
C1186 C 0.89829 0.54879 0.46507 0.0
C1187 C 0.87609 0.53186 0.50004 0.0
C1188 C 0.8824 0.51333 0.57781 0.0
C1189 C 0.90987 0.51217 0.61838 0.0
C1190 C 0.89439 0.56905 0.3831 0.0
C1191 C 0.86004 0.49463 0.61852 0.0
H1192 H 0.78644 0.57324 0.4796 0.0
H1193 H 0.80639 0.51126 0.25942 0.0
H1194 H 0.83839 0.55796 0.64937 0.0
H1195 H 0.85381 0.58347 0.57195 0.0
H1196 H 0.81748 0.58652 0.60613 0.0
H1197 H 0.84794 0.48472 0.26512 0.0
H1198 H 0.87669 0.5073 0.29962 0.0
H1199 H 0.86459 0.48177 0.38397 0.0
H1200 H 0.94161 0.5606 0.47819 0.0
H1201 H 0.91416 0.49789 0.67735 0.0
H1202 H 0.89925 0.59039 0.41149 0.0
H1203 H 0.87315 0.56884 0.35101 0.0
H1204 H 0.9098 0.56429 0.32393 0.0
H1205 H 0.84279 0.50748 0.64994 0.0
H1206 H 0.86812 0.48087 0.67687 0.0
H1207 H 0.85104 0.48141 0.55828 0.0
loop_
_geom_bond_atom_site_label_1
_geom_bond_atom_site_label_2
_geom_bond_distance
_geom_bond_site_symmetry_2
_ccdc_geom_bond_type
C0 N1 1.317 . S
C0 N2 1.348 . S
C0 C3 1.485 . S
N1 C0 1.317 . S
N1 N5 1.370 . S
N2 C0 1.348 . S
N2 C4 1.346 . S
C3 C0 1.485 . S
C3 H7 0.960 . S
C3 H8 0.961 . S
C3 H9 0.960 . S
C4 N2 1.346 . S
C4 N5 1.307 . S
C4 C6 1.486 . S
N5 N1 1.370 . S
N5 C4 1.307 . S
C6 C4 1.486 . S
C6 H10 0.960 . S
C6 H11 0.960 . S
C6 H12 0.959 . S
H7 C3 0.960 . S
H8 C3 0.961 . S
H9 C3 0.960 . S
H10 C6 0.960 . S
H11 C6 0.960 . S
H12 C6 0.959 . S
C13 N14 1.317 . S
C13 N15 1.348 . S
C13 C16 1.485 . S
N14 C13 1.317 . S
N14 N18 1.370 . S
N15 C13 1.348 . S
N15 C17 1.346 . S
C16 C13 1.485 . S
C16 H20 0.960 . S
C16 H21 0.961 . S
C16 H22 0.960 . S
C17 N15 1.346 . S
C17 N18 1.307 . S
C17 C19 1.486 . S
N18 N14 1.370 . S
N18 C17 1.307 . S
C19 C17 1.486 . S
C19 H23 0.960 . S
C19 H24 0.960 . S
C19 H25 0.959 . S
H20 C16 0.960 . S
H21 C16 0.961 . S
H22 C16 0.960 . S
H23 C19 0.960 . S
H24 C19 0.960 . S
H25 C19 0.959 . S
C26 N27 1.317 . S
C26 N28 1.348 . S
C26 C29 1.485 . S
N27 C26 1.317 . S
N27 N31 1.370 . S
N28 C26 1.348 . S
N28 C30 1.346 . S
C29 C26 1.485 . S
C29 H33 0.960 . S
C29 H34 0.961 . S
C29 H35 0.960 . S
C30 N28 1.346 . S
C30 N31 1.307 . S
C30 C32 1.486 . S
N31 N27 1.370 . S
N31 C30 1.307 . S
C32 C30 1.486 . S
C32 H36 0.960 . S
C32 H37 0.960 . S
C32 H38 0.959 . S
H33 C29 0.960 . S
H34 C29 0.961 . S
H35 C29 0.960 . S
H36 C32 0.960 . S
H37 C32 0.960 . S
H38 C32 0.959 . S
C39 N40 1.317 . S
C39 N41 1.348 . S
C39 C42 1.485 . S
N40 C39 1.317 . S
N40 N44 1.370 . S
N41 C39 1.348 . S
N41 C43 1.346 . S
C42 C39 1.485 . S
C42 H46 0.960 . S
C42 H47 0.961 . S
C42 H48 0.960 . S
C43 N41 1.346 . S
C43 N44 1.307 . S
C43 C45 1.486 . S
N44 N40 1.370 . S
N44 C43 1.307 . S
C45 C43 1.486 . S
C45 H49 0.960 . S
C45 H50 0.960 . S
C45 H51 0.959 . S
H46 C42 0.960 . S
H47 C42 0.961 . S
H48 C42 0.960 . S
H49 C45 0.960 . S
H50 C45 0.960 . S
H51 C45 0.959 . S
C52 N53 1.317 . S
C52 N54 1.348 1_556 S
C52 C55 1.485 . S
N53 C52 1.317 . S
N53 N57 1.370 1_556 S
N54 C52 1.348 1_554 S
N54 C56 1.346 . S
C55 C52 1.485 . S
C55 H59 0.960 . S
C55 H60 0.961 . S
C55 H61 0.960 . S
C56 N54 1.346 . S
C56 N57 1.307 . S
C56 C58 1.486 . S
N57 N53 1.370 1_554 S
N57 C56 1.307 . S
C58 C56 1.486 . S
C58 H62 0.960 . S
C58 H63 0.960 . S
C58 H64 0.959 . S
H59 C55 0.960 . S
H60 C55 0.961 . S
H61 C55 0.960 . S
H62 C58 0.960 . S
H63 C58 0.960 . S
H64 C58 0.959 . S
C65 N66 1.317 . S
C65 N67 1.348 1_556 S
C65 C68 1.485 . S
N66 C65 1.317 . S
N66 N70 1.370 1_556 S
N67 C65 1.348 1_554 S
N67 C69 1.346 . S
C68 C65 1.485 . S
C68 H72 0.960 . S
C68 H73 0.961 . S
C68 H74 0.960 . S
C69 N67 1.346 . S
C69 N70 1.307 . S
C69 C71 1.486 . S
N70 N66 1.370 1_554 S
N70 C69 1.307 . S
C71 C69 1.486 . S
C71 H75 0.960 . S
C71 H76 0.960 . S
C71 H77 0.959 . S
H72 C68 0.960 . S
H73 C68 0.961 . S
H74 C68 0.960 . S
H75 C71 0.960 . S
H76 C71 0.960 . S
H77 C71 0.959 . S
C78 N79 1.317 . S
C78 N80 1.348 1_556 S
C78 C81 1.485 . S
N79 C78 1.317 . S
N79 N83 1.370 1_556 S
N80 C78 1.348 1_554 S
N80 C82 1.346 . S
C81 C78 1.485 . S
C81 H85 0.960 . S
C81 H86 0.961 . S
C81 H87 0.960 . S
C82 N80 1.346 . S
C82 N83 1.307 . S
C82 C84 1.486 . S
N83 N79 1.370 1_554 S
N83 C82 1.307 . S
C84 C82 1.486 . S
C84 H88 0.960 . S
C84 H89 0.960 . S
C84 H90 0.959 . S
H85 C81 0.960 . S
H86 C81 0.961 . S
H87 C81 0.960 . S
H88 C84 0.960 . S
H89 C84 0.960 . S
H90 C84 0.959 . S
C91 N92 1.317 . S
C91 N93 1.348 1_556 S
C91 C94 1.485 . S
N92 C91 1.317 . S
N92 N96 1.370 1_556 S
N93 C91 1.348 1_554 S
N93 C95 1.346 . S
C94 C91 1.485 . S
C94 H98 0.960 . S
C94 H99 0.961 . S
C94 H100 0.960 . S
C95 N93 1.346 . S
C95 N96 1.307 . S
C95 C97 1.486 . S
N96 N92 1.370 1_554 S
N96 C95 1.307 . S
C97 C95 1.486 . S
C97 H101 0.960 . S
C97 H102 0.960 . S
C97 H103 0.959 . S
H98 C94 0.960 . S
H99 C94 0.961 . S
H100 C94 0.960 . S
H101 C97 0.960 . S
H102 C97 0.960 . S
H103 C97 0.959 . S
Eu104 N135 2.657 1_565 S
Eu104 N142 2.609 1_565 S
Eu104 O148 2.558 . S
Eu104 O149 2.612 1_455 S
Eu104 O151 2.339 1_455 S
Eu104 O152 2.563 . S
Eu104 O153 2.419 . S
Eu104 O155 2.380 1_565 S
Eu104 O156 2.432 . S
Eu104 C168 2.848 . S
C105 C108 1.429 1_545 S
C105 C109 1.411 1_545 S
C105 N112 1.377 . S
C106 C108 1.420 . S
C106 C110 1.423 . S
C106 C118 1.392 . S
C107 C109 1.420 . S
C107 C110 1.351 . S
C107 H130 0.931 . S
C108 C105 1.429 1_565 S
C108 C106 1.420 . S
C108 N116 1.362 . S
C109 C105 1.411 1_565 S
C109 C107 1.420 . S
C109 C114 1.395 1_565 S
C110 C106 1.423 . S
C110 C107 1.351 . S
C110 H122 0.930 . S
C111 C113 1.400 . S
C111 C114 1.386 . S
C111 H123 0.930 . S
N112 C105 1.377 . S
N112 C113 1.321 . S
N112 Eu115 2.609 . S
C113 C111 1.400 . S
C113 N112 1.321 . S
C113 H120 0.930 . S
C114 C109 1.395 1_545 S
C114 C111 1.386 . S
C114 H133 0.930 . S
Eu115 N112 2.609 . S
Eu115 N116 2.657 1_545 S
Eu115 O149 2.380 1_545 S
Eu115 O150 2.432 . S
Eu115 O154 2.558 . S
Eu115 O155 2.612 1_655 S
Eu115 O157 2.339 1_655 S
Eu115 O158 2.563 1_655 S
Eu115 O159 2.419 . S
Eu115 C179 2.848 . S
N116 C108 1.362 . S
N116 Eu115 2.657 1_565 S
N116 C117 1.334 1_655 S
C117 N116 1.334 1_455 S
C117 C119 1.413 . S
C117 H124 0.929 . S
C118 C106 1.392 . S
C118 C119 1.367 1_655 S
C118 H126 0.930 . S
C119 C117 1.413 . S
C119 C118 1.367 1_455 S
C119 H121 0.930 . S
H120 C113 0.930 . S
H121 C119 0.930 . S
H122 C110 0.930 . S
H123 C111 0.930 . S
H124 C117 0.929 . S
H125 C139 0.930 1_655 S
H126 C118 0.930 . S
H127 C145 0.930 . S
H128 C136 0.929 1_655 S
H129 C143 0.930 . S
H130 C107 0.931 . S
H131 C137 0.930 . S
H132 C170 0.930 . S
H133 C114 0.930 . S
H134 C169 0.931 . S
N135 Eu104 2.657 1_545 S
N135 C136 1.334 . S
N135 C140 1.362 . S
C136 H128 0.929 1_455 S
C136 N135 1.334 . S
C136 C139 1.413 1_556 S
C137 H131 0.930 . S
C137 C138 1.392 . S
C137 C139 1.367 . S
C138 C137 1.392 . S
C138 C140 1.420 1_554 S
C138 C170 1.423 . S
C139 H125 0.930 1_455 S
C139 C136 1.413 1_554 S
C139 C137 1.367 . S
C140 N135 1.362 . S
C140 C138 1.420 1_556 S
C140 C144 1.429 . S
H141 C146 0.930 . S
N142 Eu104 2.609 1_545 S
N142 C144 1.377 . S
N142 C145 1.321 1_545 S
C143 H129 0.930 . S
C143 C145 1.400 . S
C143 C146 1.386 1_565 S
C144 C140 1.429 . S
C144 N142 1.377 . S
C144 C147 1.411 . S
C145 H127 0.930 . S
C145 N142 1.321 1_565 S
C145 C143 1.400 . S
C146 H141 0.930 . S
C146 C143 1.386 1_545 S
C146 C147 1.395 . S
C147 C144 1.411 . S
C147 C146 1.395 . S
C147 C169 1.420 1_556 S
O148 Eu104 2.558 . S
O148 C168 1.257 . S
O149 Eu104 2.612 1_655 S
O149 Eu115 2.380 1_565 S
O149 C160 1.276 . S
O150 Eu115 2.432 . S
O150 C167 1.264 . S
O151 Eu104 2.339 1_655 S
O151 C167 1.254 1_565 S
O152 Eu104 2.563 . S
O152 C160 1.235 1_455 S
O153 Eu104 2.419 . S
O153 C168 1.249 . S
O154 Eu115 2.558 . S
O154 C179 1.257 . S
O155 Eu104 2.380 1_545 S
O155 Eu115 2.612 1_455 S
O155 C171 1.276 . S
O156 Eu104 2.432 . S
O156 C178 1.264 1_565 S
O157 Eu115 2.339 1_455 S
O157 C178 1.254 . S
O158 Eu115 2.563 1_455 S
O158 C171 1.235 . S
O159 Eu115 2.419 . S
O159 C179 1.249 . S
C160 O149 1.276 . S
C160 O152 1.235 1_655 S
C161 C163 1.393 . S
C161 C165 1.395 . S
C161 C168 1.492 . S
C162 C163 1.392 1_554 S
C162 C164 1.386 . S
C163 C161 1.393 . S
C163 C162 1.392 1_556 S
C163 H180 0.930 . S
C164 C162 1.386 . S
C164 C166 1.395 . S
C164 H181 0.930 . S
C165 C161 1.395 . S
C165 C166 1.379 1_556 S
C165 H182 0.930 . S
C166 C164 1.395 . S
C166 C165 1.379 1_554 S
C166 H183 0.930 . S
C167 O150 1.264 . S
C167 O151 1.254 1_545 S
C168 Eu104 2.848 . S
C168 O148 1.257 . S
C168 O153 1.249 . S
C168 C161 1.492 . S
C169 H134 0.931 . S
C169 C147 1.420 1_554 S
C169 C170 1.351 . S
C170 H132 0.930 . S
C170 C138 1.423 . S
C170 C169 1.351 . S
C171 O155 1.276 . S
C171 O158 1.235 . S
C172 C173 1.393 . S
C172 C176 1.395 . S
C172 C179 1.492 . S
C173 C172 1.393 . S
C173 C174 1.392 . S
C173 H184 0.930 1_655 S
C174 C173 1.392 . S
C174 C175 1.386 . S
C175 C174 1.386 . S
C175 C177 1.395 . S
C175 H185 0.930 . S
C176 C172 1.395 . S
C176 C177 1.379 . S
C176 H186 0.930 . S
C177 C175 1.395 . S
C177 C176 1.379 . S
C177 H187 0.930 . S
C178 O156 1.264 1_545 S
C178 O157 1.254 . S
C179 Eu115 2.848 . S
C179 O154 1.257 . S
C179 O159 1.249 . S
C179 C172 1.492 . S
H180 C163 0.930 . S
H181 C164 0.930 . S
H182 C165 0.930 . S
H183 C166 0.930 . S
H184 C173 0.930 1_455 S
H185 C175 0.930 . S
H186 C176 0.930 . S
H187 C177 0.930 . S
Eu188 N219 2.657 . S
Eu188 N226 2.609 . S
Eu188 O232 2.558 . S
Eu188 O233 2.612 1_545 S
Eu188 O235 2.339 1_545 S
Eu188 O236 2.563 . S
Eu188 O237 2.419 . S
Eu188 O239 2.380 . S
Eu188 O240 2.432 . S
Eu188 C252 2.848 . S
C189 C192 1.429 . S
C189 C193 1.411 . S
C189 N196 1.377 . S
C190 C192 1.420 . S
C190 C194 1.423 . S
C190 C202 1.392 . S
C191 C193 1.420 . S
C191 C194 1.351 . S
C191 H214 0.931 . S
C192 C189 1.429 . S
C192 C190 1.420 . S
C192 N200 1.362 . S
C193 C189 1.411 . S
C193 C191 1.420 . S
C193 C198 1.395 . S
C194 C190 1.423 . S
C194 C191 1.351 . S
C194 H206 0.930 . S
C195 C197 1.400 . S
C195 C198 1.386 . S
C195 H207 0.930 . S
N196 C189 1.377 . S
N196 C197 1.321 . S
N196 Eu199 2.609 . S
C197 C195 1.400 . S
C197 N196 1.321 . S
C197 H204 0.930 . S
C198 C193 1.395 . S
C198 C195 1.386 . S
C198 H217 0.930 . S
Eu199 N196 2.609 . S
Eu199 N200 2.657 . S
Eu199 O233 2.380 . S
Eu199 O234 2.432 . S
Eu199 O238 2.558 . S
Eu199 O239 2.612 1_565 S
Eu199 O241 2.339 1_565 S
Eu199 O242 2.563 1_565 S
Eu199 O243 2.419 . S
Eu199 C263 2.848 . S
N200 C192 1.362 . S
N200 Eu199 2.657 . S
N200 C201 1.334 1_565 S
C201 N200 1.334 1_545 S
C201 C203 1.413 . S
C201 H208 0.929 . S
C202 C190 1.392 . S
C202 C203 1.367 1_565 S
C202 H210 0.930 . S
C203 C201 1.413 . S
C203 C202 1.367 1_545 S
C203 H205 0.930 . S
H204 C197 0.930 . S
H205 C203 0.930 . S
H206 C194 0.930 . S
H207 C195 0.930 . S
H208 C201 0.929 . S
H209 C223 0.930 1_565 S
H210 C202 0.930 . S
H211 C229 0.930 . S
H212 C220 0.929 1_565 S
H213 C227 0.930 . S
H214 C191 0.931 . S
H215 C221 0.930 . S
H216 C254 0.930 . S
H217 C198 0.930 . S
H218 C253 0.931 . S
N219 Eu188 2.657 . S
N219 C220 1.334 . S
N219 C224 1.362 . S
C220 H212 0.929 1_545 S
C220 N219 1.334 . S
C220 C223 1.413 1_556 S
C221 H215 0.930 . S
C221 C222 1.392 . S
C221 C223 1.367 . S
C222 C221 1.392 . S
C222 C224 1.420 1_554 S
C222 C254 1.423 . S
C223 H209 0.930 1_545 S
C223 C220 1.413 1_554 S
C223 C221 1.367 . S
C224 N219 1.362 . S
C224 C222 1.420 1_556 S
C224 C228 1.429 . S
H225 C230 0.930 . S
N226 Eu188 2.609 . S
N226 C228 1.377 . S
N226 C229 1.321 . S
C227 H213 0.930 . S
C227 C229 1.400 . S
C227 C230 1.386 . S
C228 C224 1.429 . S
C228 N226 1.377 . S
C228 C231 1.411 . S
C229 H211 0.930 . S
C229 N226 1.321 . S
C229 C227 1.400 . S
C230 H225 0.930 . S
C230 C227 1.386 . S
C230 C231 1.395 . S
C231 C228 1.411 . S
C231 C230 1.395 . S
C231 C253 1.420 1_556 S
O232 Eu188 2.558 . S
O232 C252 1.257 . S
O233 Eu188 2.612 1_565 S
O233 Eu199 2.380 . S
O233 C244 1.278 . S
O234 Eu199 2.432 . S
O234 C251 1.264 . S
O235 Eu188 2.339 1_565 S
O235 C251 1.254 . S
O236 Eu188 2.563 . S
O236 C244 1.216 1_545 S
O237 Eu188 2.419 . S
O237 C252 1.249 . S
O238 Eu199 2.558 . S
O238 C263 1.257 . S
O239 Eu188 2.380 . S
O239 Eu199 2.612 1_545 S
O239 C255 1.276 . S
O240 Eu188 2.432 . S
O240 C262 1.264 . S
O241 Eu199 2.339 1_545 S
O241 C262 1.254 . S
O242 Eu199 2.563 1_545 S
O242 C255 1.235 . S
O243 Eu199 2.419 . S
O243 C263 1.249 . S
C244 O233 1.278 . S
C244 O236 1.216 1_565 S
C245 C247 1.393 . S
C245 C249 1.395 . S
C245 C252 1.492 . S
C246 C247 1.392 1_554 S
C246 C248 1.386 . S
C247 C245 1.393 . S
C247 C246 1.392 1_556 S
C247 H264 0.930 . S
C248 C246 1.386 . S
C248 C250 1.395 . S
C248 H265 0.930 . S
C249 C245 1.395 . S
C249 C250 1.379 1_556 S
C249 H266 0.930 . S
C250 C248 1.395 . S
C250 C249 1.379 1_554 S
C250 H267 0.930 . S
C251 O234 1.264 . S
C251 O235 1.254 . S
C252 Eu188 2.848 . S
C252 O232 1.257 . S
C252 O237 1.249 . S
C252 C245 1.492 . S
C253 H218 0.931 . S
C253 C231 1.420 1_554 S
C253 C254 1.351 . S
C254 H216 0.930 . S
C254 C222 1.423 . S
C254 C253 1.351 . S
C255 O239 1.276 . S
C255 O242 1.235 . S
C256 C257 1.393 . S
C256 C260 1.395 . S
C256 C263 1.492 . S
C257 C256 1.393 . S
C257 C258 1.392 . S
C257 H268 0.930 1_565 S
C258 C257 1.392 . S
C258 C259 1.386 . S
C259 C258 1.386 . S
C259 C261 1.395 . S
C259 H269 0.930 . S
C260 C256 1.395 . S
C260 C261 1.379 . S
C260 H270 0.930 . S
C261 C259 1.395 . S
C261 C260 1.379 . S
C261 H271 0.930 . S
C262 O240 1.264 . S
C262 O241 1.254 . S
C263 Eu199 2.848 . S
C263 O238 1.257 . S
C263 O243 1.249 . S
C263 C256 1.492 . S
H264 C247 0.930 . S
H265 C248 0.930 . S
H266 C249 0.930 . S
H267 C250 0.930 . S
H268 C257 0.930 1_545 S
H269 C259 0.930 . S
H270 C260 0.930 . S
H271 C261 0.930 . S
Eu272 N303 2.657 . S
Eu272 N310 2.609 . S
Eu272 O316 2.558 . S
Eu272 O317 2.612 . S
Eu272 O319 2.339 . S
Eu272 O320 2.563 . S
Eu272 O321 2.419 . S
Eu272 O323 2.380 . S
Eu272 O324 2.432 . S
Eu272 C336 2.848 . S
C273 C276 1.429 . S
C273 C277 1.411 . S
C273 N280 1.377 . S
C274 C276 1.420 . S
C274 C278 1.423 . S
C274 C286 1.392 . S
C275 C277 1.420 . S
C275 C278 1.351 . S
C275 H298 0.931 . S
C276 C273 1.429 . S
C276 C274 1.420 . S
C276 N284 1.362 . S
C277 C273 1.411 . S
C277 C275 1.420 . S
C277 C282 1.395 . S
C278 C274 1.423 . S
C278 C275 1.351 . S
C278 H290 0.930 . S
C279 C281 1.400 . S
C279 C282 1.386 . S
C279 H291 0.930 1_556 S
N280 C273 1.377 . S
N280 C281 1.321 . S
N280 Eu283 2.609 . S
C281 C279 1.400 . S
C281 N280 1.321 . S
C281 H288 0.930 . S
C282 C277 1.395 . S
C282 C279 1.386 . S
C282 H301 0.930 . S
Eu283 N280 2.609 . S
Eu283 N284 2.657 . S
Eu283 O317 2.380 . S
Eu283 O318 2.432 . S
Eu283 O322 2.558 . S
Eu283 O323 2.612 . S
Eu283 O325 2.339 . S
Eu283 O326 2.563 . S
Eu283 O327 2.419 . S
Eu283 C347 2.848 . S
N284 C276 1.362 . S
N284 Eu283 2.657 . S
N284 C285 1.334 . S
C285 N284 1.334 . S
C285 C287 1.413 . S
C285 H292 0.929 . S
C286 C274 1.392 . S
C286 C287 1.367 . S
C286 H294 0.930 . S
C287 C285 1.413 . S
C287 C286 1.367 . S
C287 H289 0.930 . S
H288 C281 0.930 . S
H289 C287 0.930 . S
H290 C278 0.930 . S
H291 C279 0.930 1_554 S
H292 C285 0.929 . S
H293 C307 0.930 . S
H294 C286 0.930 . S
H295 C313 0.930 . S
H296 C304 0.929 . S
H297 C311 0.930 . S
H298 C275 0.931 . S
H299 C305 0.930 . S
H300 C338 0.930 . S
H301 C282 0.930 . S
H302 C337 0.931 . S
N303 Eu272 2.657 . S
N303 C304 1.334 . S
N303 C308 1.362 . S
C304 H296 0.929 . S
C304 N303 1.334 . S
C304 C307 1.413 . S
C305 H299 0.930 . S
C305 C306 1.392 . S
C305 C307 1.367 . S
C306 C305 1.392 . S
C306 C308 1.420 . S
C306 C338 1.423 . S
C307 H293 0.930 . S
C307 C304 1.413 . S
C307 C305 1.367 . S
C308 N303 1.362 . S
C308 C306 1.420 . S
C308 C312 1.429 . S
H309 C314 0.930 . S
N310 Eu272 2.609 . S
N310 C312 1.377 . S
N310 C313 1.321 . S
C311 H297 0.930 . S
C311 C313 1.400 . S
C311 C314 1.386 . S
C312 C308 1.429 . S
C312 N310 1.377 . S
C312 C315 1.411 . S
C313 H295 0.930 . S
C313 N310 1.321 . S
C313 C311 1.400 . S
C314 H309 0.930 . S
C314 C311 1.386 . S
C314 C315 1.395 . S
C315 C312 1.411 . S
C315 C314 1.395 . S
C315 C337 1.420 . S
O316 Eu272 2.558 . S
O316 C336 1.257 . S
O317 Eu272 2.612 . S
O317 Eu283 2.380 . S
O317 C328 1.276 . S
O318 Eu283 2.432 . S
O318 C335 1.264 . S
O319 Eu272 2.339 . S
O319 C335 1.254 . S
O320 Eu272 2.563 . S
O320 C328 1.235 . S
O321 Eu272 2.419 . S
O321 C336 1.249 . S
O322 Eu283 2.558 . S
O322 C347 1.257 . S
O323 Eu272 2.380 . S
O323 Eu283 2.612 . S
O323 C339 1.276 . S
O324 Eu272 2.432 . S
O324 C346 1.264 . S
O325 Eu283 2.339 . S
O325 C346 1.254 . S
O326 Eu283 2.563 . S
O326 C339 1.235 . S
O327 Eu283 2.419 . S
O327 C347 1.249 . S
C328 O317 1.276 . S
C328 O320 1.235 . S
C329 C331 1.393 . S
C329 C333 1.395 . S
C329 C336 1.492 . S
C330 C331 1.392 . S
C330 C332 1.386 . S
C331 C329 1.393 . S
C331 C330 1.392 . S
C331 H348 0.930 . S
C332 C330 1.386 . S
C332 C334 1.395 . S
C332 H349 0.930 . S
C333 C329 1.395 . S
C333 C334 1.379 . S
C333 H350 0.930 . S
C334 C332 1.395 . S
C334 C333 1.379 . S
C334 H351 0.930 . S
C335 O318 1.264 . S
C335 O319 1.254 . S
C336 Eu272 2.848 . S
C336 O316 1.257 . S
C336 O321 1.249 . S
C336 C329 1.492 . S
C337 H302 0.931 . S
C337 C315 1.420 . S
C337 C338 1.351 . S
C338 H300 0.930 . S
C338 C306 1.423 . S
C338 C337 1.351 . S
C339 O323 1.276 . S
C339 O326 1.235 . S
C340 C341 1.393 . S
C340 C344 1.395 . S
C340 C347 1.492 1_554 S
C341 C340 1.393 . S
C341 C342 1.392 . S
C341 H352 0.930 1_554 S
C342 C341 1.392 . S
C342 C343 1.386 . S
C343 C342 1.386 . S
C343 C345 1.395 . S
C343 H353 0.930 . S
C344 C340 1.395 . S
C344 C345 1.379 . S
C344 H354 0.930 . S
C345 C343 1.395 . S
C345 C344 1.379 . S
C345 H355 0.930 . S
C346 O324 1.264 . S
C346 O325 1.254 . S
C347 Eu283 2.848 . S
C347 O322 1.257 . S
C347 O327 1.249 . S
C347 C340 1.492 1_556 S
H348 C331 0.930 . S
H349 C332 0.930 . S
H350 C333 0.930 . S
H351 C334 0.930 . S
H352 C341 0.930 1_556 S
H353 C343 0.930 . S
H354 C344 0.930 . S
H355 C345 0.930 . S
Eu356 N387 2.657 . S
Eu356 N394 2.609 . S
Eu356 O400 2.558 . S
Eu356 O401 2.612 . S
Eu356 O403 2.339 . S
Eu356 O404 2.563 . S
Eu356 O405 2.419 . S
Eu356 O407 2.380 . S
Eu356 O408 2.432 1_455 S
Eu356 C420 2.848 . S
C357 C360 1.429 . S
C357 C361 1.411 . S
C357 N364 1.377 . S
C358 C360 1.420 . S
C358 C362 1.423 . S
C358 C370 1.392 . S
C359 C361 1.420 . S
C359 C362 1.351 . S
C359 H382 0.931 . S
C360 C357 1.429 . S
C360 C358 1.420 . S
C360 N368 1.362 . S
C361 C357 1.411 . S
C361 C359 1.420 . S
C361 C366 1.395 1_655 S
C362 C358 1.423 . S
C362 C359 1.351 . S
C362 H374 0.930 . S
C363 C365 1.400 . S
C363 C366 1.386 . S
C363 H375 0.930 1_556 S
N364 C357 1.377 . S
N364 C365 1.321 1_655 S
N364 Eu367 2.609 . S
C365 C363 1.400 . S
C365 N364 1.321 1_455 S
C365 H372 0.930 . S
C366 C361 1.395 1_455 S
C366 C363 1.386 . S
C366 H385 0.930 . S
Eu367 N364 2.609 . S
Eu367 N368 2.657 . S
Eu367 O401 2.380 1_655 S
Eu367 O402 2.432 1_655 S
Eu367 O406 2.558 . S
Eu367 O407 2.612 1_655 S
Eu367 O409 2.339 . S
Eu367 O410 2.563 . S
Eu367 O411 2.419 . S
Eu367 C431 2.848 . S
N368 C360 1.362 . S
N368 Eu367 2.657 . S
N368 C369 1.334 . S
C369 N368 1.334 . S
C369 C371 1.413 . S
C369 H376 0.929 . S
C370 C358 1.392 . S
C370 C371 1.367 . S
C370 H378 0.930 . S
C371 C369 1.413 . S
C371 C370 1.367 . S
C371 H373 0.930 . S
H372 C365 0.930 . S
H373 C371 0.930 . S
H374 C362 0.930 . S
H375 C363 0.930 1_554 S
H376 C369 0.929 . S
H377 C391 0.930 . S
H378 C370 0.930 . S
H379 C397 0.930 . S
H380 C388 0.929 . S
H381 C395 0.930 . S
H382 C359 0.931 . S
H383 C389 0.930 . S
H384 C422 0.930 . S
H385 C366 0.930 . S
H386 C421 0.931 . S
N387 Eu356 2.657 . S
N387 C388 1.334 . S
N387 C392 1.362 . S
C388 H380 0.929 . S
C388 N387 1.334 . S
C388 C391 1.413 . S
C389 H383 0.930 . S
C389 C390 1.392 . S
C389 C391 1.367 . S
C390 C389 1.392 . S
C390 C392 1.420 . S
C390 C422 1.423 . S
C391 H377 0.930 . S
C391 C388 1.413 . S
C391 C389 1.367 . S
C392 N387 1.362 . S
C392 C390 1.420 . S
C392 C396 1.429 . S
H393 C398 0.930 . S
N394 Eu356 2.609 . S
N394 C396 1.377 . S
N394 C397 1.321 1_455 S
C395 H381 0.930 . S
C395 C397 1.400 . S
C395 C398 1.386 1_655 S
C396 C392 1.429 . S
C396 N394 1.377 . S
C396 C399 1.411 . S
C397 H379 0.930 . S
C397 N394 1.321 1_655 S
C397 C395 1.400 . S
C398 H393 0.930 . S
C398 C395 1.386 1_455 S
C398 C399 1.395 . S
C399 C396 1.411 . S
C399 C398 1.395 . S
C399 C421 1.420 . S
O400 Eu356 2.558 . S
O400 C420 1.257 . S
O401 Eu356 2.612 . S
O401 Eu367 2.380 1_455 S
O401 C412 1.276 . S
O402 Eu367 2.432 1_455 S
O402 C419 1.264 . S
O403 Eu356 2.339 . S
O403 C419 1.254 . S
O404 Eu356 2.563 . S
O404 C412 1.235 . S
O405 Eu356 2.419 . S
O405 C420 1.249 . S
O406 Eu367 2.558 . S
O406 C431 1.257 . S
O407 Eu356 2.380 . S
O407 Eu367 2.612 1_455 S
O407 C423 1.276 1_455 S
O408 Eu356 2.432 1_655 S
O408 C430 1.264 . S
O409 Eu367 2.339 . S
O409 C430 1.254 . S
O410 Eu367 2.563 . S
O410 C423 1.235 . S
O411 Eu367 2.419 . S
O411 C431 1.249 . S
C412 O401 1.276 . S
C412 O404 1.235 . S
C413 C415 1.393 . S
C413 C417 1.395 . S
C413 C420 1.492 . S
C414 C415 1.392 . S
C414 C416 1.386 . S
C415 C413 1.393 . S
C415 C414 1.392 . S
C415 H432 0.930 . S
C416 C414 1.386 . S
C416 C418 1.395 . S
C416 H433 0.930 . S
C417 C413 1.395 . S
C417 C418 1.379 . S
C417 H434 0.930 . S
C418 C416 1.395 . S
C418 C417 1.379 . S
C418 H435 0.930 . S
C419 O402 1.264 . S
C419 O403 1.254 . S
C420 Eu356 2.848 . S
C420 O400 1.257 . S
C420 O405 1.249 . S
C420 C413 1.492 . S
C421 H386 0.931 . S
C421 C399 1.420 . S
C421 C422 1.351 . S
C422 H384 0.930 . S
C422 C390 1.423 . S
C422 C421 1.351 . S
C423 O407 1.276 1_655 S
C423 O410 1.235 . S
C424 C425 1.393 . S
C424 C428 1.395 . S
C424 C431 1.492 1_554 S
C425 C424 1.393 . S
C425 C426 1.392 . S
C425 H436 0.930 1_554 S
C426 C425 1.392 . S
C426 C427 1.386 . S
C427 C426 1.386 . S
C427 C429 1.395 . S
C427 H437 0.930 . S
C428 C424 1.395 . S
C428 C429 1.379 . S
C428 H438 0.930 . S
C429 C427 1.395 . S
C429 C428 1.379 . S
C429 H439 0.930 . S
C430 O408 1.264 . S
C430 O409 1.254 . S
C431 Eu367 2.848 . S
C431 O406 1.257 . S
C431 O411 1.249 . S
C431 C424 1.492 1_556 S
H432 C415 0.930 . S
H433 C416 0.930 . S
H434 C417 0.930 . S
H435 C418 0.930 . S
H436 C425 0.930 1_556 S
H437 C427 0.930 . S
H438 C428 0.930 . S
H439 C429 0.930 . S
C440 C441 1.391 . S
C440 C442 1.394 . S
C440 H456 0.931 . S
C441 C440 1.391 . S
C441 C445 1.376 . S
C442 C440 1.394 . S
C442 C443 1.369 . S
C442 C446 1.531 1_545 S
C443 C442 1.369 . S
C443 C444 1.410 . S
C443 C451 1.503 . S
C444 C443 1.410 . S
C444 C445 1.392 . S
C444 C447 1.511 . S
C445 C441 1.376 . S
C445 C444 1.392 . S
C445 H457 0.929 . S
C446 C442 1.531 1_565 S
C446 H458 0.960 . S
C446 H459 0.962 . S
C446 H460 0.960 . S
C447 C444 1.511 . S
C447 H461 0.961 . S
C447 H462 0.961 . S
C447 H463 0.961 . S
C448 C449 1.370 . S
C448 C450 1.363 . S
C448 H464 0.931 . S
C449 C448 1.370 . S
C449 C453 1.408 . S
C450 C448 1.363 . S
C450 C451 1.370 . S
C450 C454 1.524 . S
C451 C443 1.503 . S
C451 C450 1.370 . S
C451 C452 1.403 . S
C452 C451 1.403 . S
C452 C453 1.404 . S
C452 C455 1.539 . S
C453 C449 1.408 . S
C453 C452 1.404 . S
C453 H465 0.930 . S
C454 C450 1.524 . S
C454 H466 0.956 . S
C454 H467 0.961 . S
C454 H468 0.961 . S
C455 C452 1.539 . S
C455 H469 0.958 1_545 S
C455 H470 0.961 . S
C455 H471 0.960 . S
H456 C440 0.931 . S
H457 C445 0.929 . S
H458 C446 0.960 . S
H459 C446 0.962 . S
H460 C446 0.960 . S
H461 C447 0.961 . S
H462 C447 0.961 . S
H463 C447 0.961 . S
H464 C448 0.931 . S
H465 C453 0.930 . S
H466 C454 0.956 . S
H467 C454 0.961 . S
H468 C454 0.961 . S
H469 C455 0.958 1_565 S
H470 C455 0.961 . S
H471 C455 0.960 . S
C472 C473 1.391 . S
C472 C474 1.394 . S
C472 H488 0.931 . S
C473 C472 1.391 . S
C473 C477 1.376 . S
C474 C472 1.394 . S
C474 C475 1.369 . S
C474 C478 1.531 . S
C475 C474 1.369 . S
C475 C476 1.410 . S
C475 C483 1.503 . S
C476 C475 1.410 . S
C476 C477 1.392 . S
C476 C479 1.511 . S
C477 C473 1.376 . S
C477 C476 1.392 . S
C477 H489 0.929 . S
C478 C474 1.531 . S
C478 H490 0.960 . S
C478 H491 0.962 . S
C478 H492 0.960 . S
C479 C476 1.511 . S
C479 H493 0.961 . S
C479 H494 0.961 . S
C479 H495 0.961 . S
C480 C481 1.370 . S
C480 C482 1.363 . S
C480 H496 0.931 . S
C481 C480 1.370 . S
C481 C485 1.408 . S
C482 C480 1.363 . S
C482 C483 1.370 . S
C482 C486 1.524 . S
C483 C475 1.503 . S
C483 C482 1.370 . S
C483 C484 1.403 . S
C484 C483 1.403 . S
C484 C485 1.404 . S
C484 C487 1.539 . S
C485 C481 1.408 . S
C485 C484 1.404 . S
C485 H497 0.930 . S
C486 C482 1.524 . S
C486 H498 0.956 . S
C486 H499 0.961 . S
C486 H500 0.961 . S
C487 C484 1.539 . S
C487 H501 0.958 . S
C487 H502 0.961 . S
C487 H503 0.960 . S
H488 C472 0.931 . S
H489 C477 0.929 . S
H490 C478 0.960 . S
H491 C478 0.962 . S
H492 C478 0.960 . S
H493 C479 0.961 . S
H494 C479 0.961 . S
H495 C479 0.961 . S
H496 C480 0.931 . S
H497 C485 0.930 . S
H498 C486 0.956 . S
H499 C486 0.961 . S
H500 C486 0.961 . S
H501 C487 0.958 . S
H502 C487 0.961 . S
H503 C487 0.960 . S
C504 C505 1.391 . S
C504 C506 1.394 . S
C504 H520 0.931 . S
C505 C504 1.391 . S
C505 C509 1.376 . S
C506 C504 1.394 . S
C506 C507 1.369 . S
C506 C510 1.531 . S
C507 C506 1.369 . S
C507 C508 1.410 . S
C507 C515 1.503 . S
C508 C507 1.410 . S
C508 C509 1.392 . S
C508 C511 1.511 . S
C509 C505 1.376 . S
C509 C508 1.392 . S
C509 H521 0.929 . S
C510 C506 1.531 . S
C510 H522 0.960 . S
C510 H523 0.962 . S
C510 H524 0.960 . S
C511 C508 1.511 . S
C511 H525 0.961 . S
C511 H526 0.961 . S
C511 H527 0.961 . S
C512 C513 1.370 . S
C512 C514 1.363 . S
C512 H528 0.931 . S
C513 C512 1.370 . S
C513 C517 1.408 . S
C514 C512 1.363 . S
C514 C515 1.370 . S
C514 C518 1.524 . S
C515 C507 1.503 . S
C515 C514 1.370 . S
C515 C516 1.403 . S
C516 C515 1.403 . S
C516 C517 1.404 . S
C516 C519 1.539 . S
C517 C513 1.408 . S
C517 C516 1.404 . S
C517 H529 0.930 . S
C518 C514 1.524 . S
C518 H530 0.956 . S
C518 H531 0.961 . S
C518 H532 0.961 . S
C519 C516 1.539 . S
C519 H533 0.958 . S
C519 H534 0.961 . S
C519 H535 0.960 . S
H520 C504 0.931 . S
H521 C509 0.929 . S
H522 C510 0.960 . S
H523 C510 0.962 . S
H524 C510 0.960 . S
H525 C511 0.961 . S
H526 C511 0.961 . S
H527 C511 0.961 . S
H528 C512 0.931 . S
H529 C517 0.930 . S
H530 C518 0.956 . S
H531 C518 0.961 . S
H532 C518 0.961 . S
H533 C519 0.958 . S
H534 C519 0.961 . S
H535 C519 0.960 . S
C536 C537 1.391 . S
C536 C538 1.394 . S
C536 H552 0.931 . S
C537 C536 1.391 . S
C537 C541 1.376 . S
C538 C536 1.394 . S
C538 C539 1.369 . S
C538 C542 1.531 . S
C539 C538 1.369 . S
C539 C540 1.410 . S
C539 C547 1.503 . S
C540 C539 1.410 . S
C540 C541 1.392 . S
C540 C543 1.511 1_455 S
C541 C537 1.376 . S
C541 C540 1.392 . S
C541 H553 0.929 . S
C542 C538 1.531 . S
C542 H554 0.960 . S
C542 H555 0.962 . S
C542 H556 0.960 . S
C543 C540 1.511 1_655 S
C543 H557 0.961 . S
C543 H558 0.961 . S
C543 H559 0.961 . S
C544 C545 1.370 . S
C544 C546 1.363 . S
C544 H560 0.931 . S
C545 C544 1.370 . S
C545 C549 1.408 . S
C546 C544 1.363 . S
C546 C547 1.370 . S
C546 C550 1.524 . S
C547 C539 1.503 . S
C547 C546 1.370 . S
C547 C548 1.403 . S
C548 C547 1.403 . S
C548 C549 1.404 . S
C548 C551 1.539 . S
C549 C545 1.408 . S
C549 C548 1.404 . S
C549 H561 0.930 . S
C550 C546 1.524 . S
C550 H562 0.956 . S
C550 H563 0.961 . S
C550 H564 0.961 . S
C551 C548 1.539 . S
C551 H565 0.958 . S
C551 H566 0.961 1_455 S
C551 H567 0.960 . S
H552 C536 0.931 . S
H553 C541 0.929 . S
H554 C542 0.960 . S
H555 C542 0.962 . S
H556 C542 0.960 . S
H557 C543 0.961 . S
H558 C543 0.961 . S
H559 C543 0.961 . S
H560 C544 0.931 . S
H561 C549 0.930 . S
H562 C550 0.956 . S
H563 C550 0.961 . S
H564 C550 0.961 . S
H565 C551 0.958 . S
H566 C551 0.961 1_655 S
H567 C551 0.960 . S
C568 C569 1.391 . S
C568 C570 1.394 . S
C568 H584 0.931 . S
C569 C568 1.391 . S
C569 C573 1.376 . S
C570 C568 1.394 . S
C570 C571 1.369 . S
C570 C574 1.531 . S
C571 C570 1.369 . S
C571 C572 1.436 . S
C571 C579 1.503 . S
C572 C571 1.436 . S
C572 C573 1.398 . S
C572 C575 1.480 1_565 S
C573 C569 1.376 . S
C573 C572 1.398 . S
C573 H585 0.929 1_565 S
C574 C570 1.531 . S
C574 H586 0.960 . S
C574 H587 0.962 . S
C574 H588 0.960 . S
C575 C572 1.480 1_545 S
C575 H589 0.961 . S
C575 H590 0.961 . S
C575 H591 0.961 . S
C576 C577 1.370 . S
C576 C578 1.363 1_556 S
C576 H592 0.931 . S
C577 C576 1.370 . S
C577 C581 1.408 . S
C578 C576 1.363 1_554 S
C578 C579 1.370 . S
C578 C582 1.524 . S
C579 C571 1.503 . S
C579 C578 1.370 . S
C579 C580 1.403 1_554 S
C580 C579 1.403 1_556 S
C580 C581 1.404 . S
C580 C583 1.539 . S
C581 C577 1.408 . S
C581 C580 1.404 . S
C581 H593 0.930 . S
C582 C578 1.524 . S
C582 H594 0.956 . S
C582 H595 0.961 1_565 S
C582 H596 0.976 . S
C583 C580 1.539 . S
C583 H597 0.958 . S
C583 H598 0.961 . S
C583 H599 0.960 . S
H584 C568 0.931 . S
H585 C573 0.929 1_545 S
H586 C574 0.960 . S
H587 C574 0.962 . S
H588 C574 0.960 . S
H589 C575 0.961 . S
H590 C575 0.961 . S
H591 C575 0.961 . S
H592 C576 0.931 . S
H593 C581 0.930 . S
H594 C582 0.956 . S
H595 C582 0.961 1_545 S
H596 C582 0.976 . S
H597 C583 0.958 . S
H598 C583 0.961 . S
H599 C583 0.960 . S
C600 C601 1.391 . S
C600 C602 1.394 . S
C600 H616 0.931 . S
C601 C600 1.391 . S
C601 C605 1.376 . S
C602 C600 1.394 . S
C602 C603 1.369 . S
C602 C606 1.531 . S
C603 C602 1.369 . S
C603 C604 1.410 . S
C603 C611 1.503 . S
C604 C603 1.410 . S
C604 C605 1.392 . S
C604 C607 1.511 1_554 S
C605 C601 1.376 . S
C605 C604 1.392 . S
C605 H617 0.929 . S
C606 C602 1.531 . S
C606 H618 0.960 . S
C606 H619 0.962 . S
C606 H620 0.960 . S
C607 C604 1.511 1_556 S
C607 H621 0.961 . S
C607 H622 0.961 . S
C607 H623 0.961 1_556 S
C608 C609 1.370 . S
C608 C610 1.363 . S
C608 H624 0.931 . S
C609 C608 1.370 . S
C609 C613 1.408 . S
C610 C608 1.363 . S
C610 C611 1.370 1_556 S
C610 C614 1.524 . S
C611 C603 1.503 . S
C611 C610 1.370 1_554 S
C611 C612 1.403 . S
C612 C611 1.403 . S
C612 C613 1.404 1_554 S
C612 C615 1.539 . S
C613 C609 1.408 . S
C613 C612 1.404 1_556 S
C613 H625 0.930 . S
C614 C610 1.524 . S
C614 H626 0.956 1_556 S
C614 H627 0.961 . S
C614 H628 0.961 . S
C615 C612 1.539 . S
C615 H629 0.958 . S
C615 H630 0.961 . S
C615 H631 0.960 . S
H616 C600 0.931 . S
H617 C605 0.929 . S
H618 C606 0.960 . S
H619 C606 0.962 . S
H620 C606 0.960 . S
H621 C607 0.961 . S
H622 C607 0.961 . S
H623 C607 0.961 1_554 S
H624 C608 0.931 . S
H625 C613 0.930 . S
H626 C614 0.956 1_554 S
H627 C614 0.961 . S
H628 C614 0.961 . S
H629 C615 0.958 . S
H630 C615 0.961 . S
H631 C615 0.960 . S
C632 C633 1.391 . S
C632 C634 1.394 . S
C632 H648 0.931 . S
C633 C632 1.391 . S
C633 C637 1.376 . S
C634 C632 1.394 . S
C634 C635 1.369 . S
C634 C638 1.531 . S
C635 C634 1.369 . S
C635 C636 1.410 . S
C635 C643 1.503 . S
C636 C635 1.410 . S
C636 C637 1.392 . S
C636 C639 1.511 . S
C637 C633 1.376 . S
C637 C636 1.392 . S
C637 H649 0.929 . S
C638 C634 1.531 . S
C638 H650 0.960 1_554 S
C638 H651 0.962 . S
C638 H652 0.960 . S
C639 C636 1.511 . S
C639 H653 0.961 . S
C639 H654 0.961 . S
C639 H655 0.961 . S
C640 C641 1.370 . S
C640 C642 1.363 1_556 S
C640 H656 0.931 . S
C641 C640 1.370 . S
C641 C645 1.408 . S
C642 C640 1.363 1_554 S
C642 C643 1.370 . S
C642 C646 1.524 . S
C643 C635 1.503 . S
C643 C642 1.370 . S
C643 C644 1.403 1_554 S
C644 C643 1.403 1_556 S
C644 C645 1.404 . S
C644 C647 1.539 . S
C645 C641 1.408 . S
C645 C644 1.404 . S
C645 H657 0.930 . S
C646 C642 1.524 . S
C646 H658 0.956 . S
C646 H659 0.961 . S
C646 H660 0.961 . S
C647 C644 1.539 . S
C647 H661 0.958 . S
C647 H662 0.961 . S
C647 H663 0.960 . S
H648 C632 0.931 . S
H649 C637 0.929 . S
H650 C638 0.960 1_556 S
H651 C638 0.962 . S
H652 C638 0.960 . S
H653 C639 0.961 . S
H654 C639 0.961 . S
H655 C639 0.961 . S
H656 C640 0.931 . S
H657 C645 0.930 . S
H658 C646 0.956 . S
H659 C646 0.961 . S
H660 C646 0.961 . S
H661 C647 0.958 . S
H662 C647 0.961 . S
H663 C647 0.960 . S
C664 C665 1.391 . S
C664 C666 1.394 . S
C664 H680 0.931 . S
C665 C664 1.391 . S
C665 C669 1.376 . S
C666 C664 1.394 . S
C666 C667 1.369 . S
C666 C670 1.531 1_554 S
C667 C666 1.369 . S
C667 C668 1.410 . S
C667 C675 1.503 . S
C668 C667 1.410 . S
C668 C669 1.392 . S
C668 C671 1.511 . S
C669 C665 1.376 . S
C669 C668 1.392 . S
C669 H681 0.929 . S
C670 C666 1.531 1_556 S
C670 H682 0.960 . S
C670 H683 0.962 . S
C670 H684 0.960 . S
C671 C668 1.511 . S
C671 H685 0.961 . S
C671 H686 0.961 . S
C671 H687 0.961 1_655 S
C672 C673 1.370 . S
C672 C674 1.363 . S
C672 H688 0.931 . S
C673 C672 1.370 . S
C673 C677 1.408 1_655 S
C674 C672 1.363 . S
C674 C675 1.370 1_556 S
C674 C678 1.524 1_556 S
C675 C667 1.503 . S
C675 C674 1.370 1_554 S
C675 C676 1.403 1_654 S
C676 C675 1.403 1_456 S
C676 C677 1.404 . S
C676 C679 1.539 . S
C677 C673 1.408 1_455 S
C677 C676 1.404 . S
C677 H689 0.930 . S
C678 C674 1.524 1_554 S
C678 H690 0.956 . S
C678 H691 0.961 . S
C678 H692 0.961 . S
C679 C676 1.539 . S
C679 H693 0.958 . S
C679 H694 0.961 . S
C679 H695 0.960 1_556 S
H680 C664 0.931 . S
H681 C669 0.929 . S
H682 C670 0.960 . S
H683 C670 0.962 . S
H684 C670 0.960 . S
H685 C671 0.961 . S
H686 C671 0.961 . S
H687 C671 0.961 1_455 S
H688 C672 0.931 . S
H689 C677 0.930 . S
H690 C678 0.956 . S
H691 C678 0.961 . S
H692 C678 0.961 . S
H693 C679 0.958 . S
H694 C679 0.961 . S
H695 C679 0.960 1_554 S
C696 C697 1.391 . S
C696 C698 1.394 . S
C696 H712 0.931 1_554 S
C697 C696 1.391 . S
C697 C701 1.376 . S
C698 C696 1.394 . S
C698 C699 1.369 . S
C698 C702 1.531 . S
C699 C698 1.369 . S
C699 C700 1.410 . S
C699 C707 1.503 . S
C700 C699 1.410 . S
C700 C701 1.392 . S
C700 C703 1.511 . S
C701 C697 1.376 . S
C701 C700 1.392 . S
C701 H713 0.929 . S
C702 C698 1.531 . S
C702 H714 0.960 . S
C702 H715 0.962 1_554 S
C702 H716 0.960 1_554 S
C703 C700 1.511 . S
C703 H717 0.961 . S
C703 H718 0.961 . S
C703 H719 0.961 . S
C704 C705 1.370 1_655 S
C704 C706 1.369 . S
C704 H720 0.931 . S
C705 C704 1.370 1_455 S
C705 C709 1.408 . S
C706 C704 1.369 . S
C706 C707 1.358 1_655 S
C706 C710 1.531 . S
C707 C699 1.503 . S
C707 C706 1.358 1_455 S
C707 C708 1.403 . S
C708 C707 1.403 . S
C708 C709 1.404 . S
C708 C711 1.539 . S
C709 C705 1.408 . S
C709 C708 1.404 . S
C709 H721 0.930 . S
C710 C706 1.531 . S
C710 H722 0.956 . S
C710 H723 0.961 . S
C710 H724 0.961 . S
C711 C708 1.539 . S
C711 H725 0.958 . S
C711 H726 0.961 . S
C711 H727 0.960 . S
H712 C696 0.931 1_556 S
H713 C701 0.929 . S
H714 C702 0.960 . S
H715 C702 0.962 1_556 S
H716 C702 0.960 1_556 S
H717 C703 0.961 . S
H718 C703 0.961 . S
H719 C703 0.961 . S
H720 C704 0.931 . S
H721 C709 0.930 . S
H722 C710 0.956 . S
H723 C710 0.961 . S
H724 C710 0.961 . S
H725 C711 0.958 . S
H726 C711 0.961 . S
H727 C711 0.960 . S
C728 C729 1.391 . S
C728 C730 1.394 . S
C728 H744 0.931 1_554 S
C729 C728 1.391 . S
C729 C733 1.376 . S
C730 C728 1.394 . S
C730 C731 1.369 . S
C730 C734 1.531 . S
C731 C730 1.369 . S
C731 C732 1.410 . S
C731 C739 1.503 . S
C732 C731 1.410 . S
C732 C733 1.392 . S
C732 C735 1.511 . S
C733 C729 1.376 . S
C733 C732 1.392 . S
C733 H745 0.929 . S
C734 C730 1.531 . S
C734 H746 0.960 . S
C734 H747 0.962 1_554 S
C734 H748 0.960 1_554 S
C735 C732 1.511 . S
C735 H749 0.961 . S
C735 H750 0.961 . S
C735 H751 0.961 . S
C736 C737 1.370 1_565 S
C736 C738 1.368 . S
C736 H752 0.931 . S
C737 C736 1.370 1_545 S
C737 C741 1.408 . S
C738 C736 1.368 . S
C738 C739 1.358 1_565 S
C738 C742 1.531 . S
C739 C731 1.503 . S
C739 C738 1.358 1_545 S
C739 C740 1.403 . S
C740 C739 1.403 . S
C740 C741 1.404 . S
C740 C743 1.539 . S
C741 C737 1.408 . S
C741 C740 1.404 . S
C741 H753 0.930 . S
C742 C738 1.531 . S
C742 H754 0.956 . S
C742 H755 0.961 . S
C742 H756 0.961 . S
C743 C740 1.539 . S
C743 H757 0.958 . S
C743 H758 0.961 . S
C743 H759 0.960 . S
H744 C728 0.931 1_556 S
H745 C733 0.929 . S
H746 C734 0.960 . S
H747 C734 0.962 1_556 S
H748 C734 0.960 1_556 S
H749 C735 0.961 . S
H750 C735 0.961 . S
H751 C735 0.961 . S
H752 C736 0.931 . S
H753 C741 0.930 . S
H754 C742 0.956 . S
H755 C742 0.961 . S
H756 C742 0.961 . S
H757 C743 0.958 . S
H758 C743 0.961 . S
H759 C743 0.960 . S
C760 C761 1.391 . S
C760 C762 1.394 . S
C760 H776 0.931 . S
C761 C760 1.391 . S
C761 C765 1.376 . S
C762 C760 1.394 . S
C762 C763 1.369 . S
C762 C766 1.531 . S
C763 C762 1.369 . S
C763 C764 1.410 . S
C763 C771 1.503 . S
C764 C763 1.410 . S
C764 C765 1.392 . S
C764 C767 1.511 . S
C765 C761 1.376 . S
C765 C764 1.392 . S
C765 H777 0.929 . S
C766 C762 1.531 . S
C766 H778 0.960 . S
C766 H779 0.962 . S
C766 H780 0.960 . S
C767 C764 1.511 . S
C767 H781 0.961 . S
C767 H782 0.961 . S
C767 H783 0.961 . S
C768 C769 1.370 . S
C768 C770 1.363 . S
C768 H784 0.931 . S
C769 C768 1.370 . S
C769 C773 1.408 . S
C770 C768 1.363 . S
C770 C771 1.370 . S
C770 C774 1.524 . S
C771 C763 1.503 . S
C771 C770 1.370 . S
C771 C772 1.403 . S
C772 C771 1.403 . S
C772 C773 1.404 . S
C772 C775 1.539 . S
C773 C769 1.408 . S
C773 C772 1.404 . S
C773 H785 0.930 . S
C774 C770 1.524 . S
C774 H786 0.956 . S
C774 H787 0.961 . S
C774 H788 0.961 . S
C775 C772 1.539 . S
C775 H789 0.958 . S
C775 H790 0.961 . S
C775 H791 0.960 . S
H776 C760 0.931 . S
H777 C765 0.929 . S
H778 C766 0.960 . S
H779 C766 0.962 . S
H780 C766 0.960 . S
H781 C767 0.961 . S
H782 C767 0.961 . S
H783 C767 0.961 . S
H784 C768 0.931 . S
H785 C773 0.930 . S
H786 C774 0.956 . S
H787 C774 0.961 . S
H788 C774 0.961 . S
H789 C775 0.958 . S
H790 C775 0.961 . S
H791 C775 0.960 . S
C792 C793 1.391 . S
C792 C794 1.394 . S
C792 H808 0.931 . S
C793 C792 1.391 . S
C793 C797 1.376 . S
C794 C792 1.394 . S
C794 C795 1.369 . S
C794 C798 1.531 . S
C795 C794 1.369 . S
C795 C796 1.410 . S
C795 C803 1.503 . S
C796 C795 1.410 . S
C796 C797 1.392 . S
C796 C799 1.511 . S
C797 C793 1.376 . S
C797 C796 1.392 . S
C797 H809 0.929 . S
C798 C794 1.531 . S
C798 H810 0.960 . S
C798 H811 0.962 . S
C798 H812 0.960 . S
C799 C796 1.511 . S
C799 H813 0.961 . S
C799 H814 0.961 . S
C799 H815 0.961 . S
C800 C801 1.370 . S
C800 C802 1.363 . S
C800 H816 0.931 . S
C801 C800 1.370 . S
C801 C805 1.408 . S
C802 C800 1.363 . S
C802 C803 1.370 . S
C802 C806 1.524 . S
C803 C795 1.503 . S
C803 C802 1.370 . S
C803 C804 1.403 . S
C804 C803 1.403 . S
C804 C805 1.404 . S
C804 C807 1.539 . S
C805 C801 1.408 . S
C805 C804 1.404 . S
C805 H817 0.930 . S
C806 C802 1.524 . S
C806 H818 0.956 . S
C806 H819 0.961 . S
C806 H820 0.961 . S
C807 C804 1.539 . S
C807 H821 0.958 . S
C807 H822 0.961 . S
C807 H823 0.960 . S
H808 C792 0.931 . S
H809 C797 0.929 . S
H810 C798 0.960 . S
H811 C798 0.962 . S
H812 C798 0.960 . S
H813 C799 0.961 . S
H814 C799 0.961 . S
H815 C799 0.961 . S
H816 C800 0.931 . S
H817 C805 0.930 . S
H818 C806 0.956 . S
H819 C806 0.961 . S
H820 C806 0.961 . S
H821 C807 0.958 . S
H822 C807 0.961 . S
H823 C807 0.960 . S
C824 C825 1.391 . S
C824 C826 1.394 . S
C824 H840 0.931 . S
C825 C824 1.391 . S
C825 C829 1.376 . S
C826 C824 1.394 . S
C826 C827 1.369 . S
C826 C830 1.531 1_655 S
C827 C826 1.369 . S
C827 C828 1.410 . S
C827 C835 1.503 . S
C828 C827 1.410 . S
C828 C829 1.392 . S
C828 C831 1.511 . S
C829 C825 1.376 . S
C829 C828 1.392 . S
C829 H841 0.929 . S
C830 C826 1.531 1_455 S
C830 H842 0.960 . S
C830 H843 0.962 . S
C830 H844 0.960 . S
C831 C828 1.511 . S
C831 H845 0.961 . S
C831 H846 0.961 . S
C831 H847 0.961 . S
C832 C833 1.370 . S
C832 C834 1.363 . S
C832 H848 0.931 . S
C833 C832 1.370 . S
C833 C837 1.408 1_454 S
C834 C832 1.363 . S
C834 C835 1.370 1_455 S
C834 C838 1.524 . S
C835 C827 1.503 . S
C835 C834 1.370 1_655 S
C835 C836 1.403 . S
C836 C835 1.403 . S
C836 C837 1.404 1_554 S
C836 C839 1.539 1_554 S
C837 C833 1.408 1_656 S
C837 C836 1.404 1_556 S
C837 H849 0.930 . S
C838 C834 1.524 . S
C838 H850 0.956 . S
C838 H851 0.961 1_455 S
C838 H852 0.961 . S
C839 C836 1.539 1_556 S
C839 H853 0.958 . S
C839 H854 0.961 . S
C839 H855 0.960 1_556 S
H840 C824 0.931 . S
H841 C829 0.929 . S
H842 C830 0.960 . S
H843 C830 0.962 . S
H844 C830 0.960 . S
H845 C831 0.961 . S
H846 C831 0.961 . S
H847 C831 0.961 . S
H848 C832 0.931 . S
H849 C837 0.930 . S
H850 C838 0.956 . S
H851 C838 0.961 1_655 S
H852 C838 0.961 . S
H853 C839 0.958 . S
H854 C839 0.961 . S
H855 C839 0.960 1_554 S
C856 C857 1.391 . S
C856 C858 1.394 . S
C856 H872 0.931 . S
C857 C856 1.391 . S
C857 C861 1.376 . S
C858 C856 1.394 . S
C858 C859 1.369 . S
C858 C862 1.531 . S
C859 C858 1.369 . S
C859 C860 1.410 . S
C859 C867 1.495 1_565 S
C860 C859 1.410 . S
C860 C861 1.392 . S
C860 C863 1.511 1_565 S
C861 C857 1.376 . S
C861 C860 1.392 . S
C861 H873 0.929 . S
C862 C858 1.531 . S
C862 H874 0.960 . S
C862 H875 0.962 . S
C862 H876 0.960 . S
C863 C860 1.511 1_545 S
C863 H877 0.961 1_545 S
C863 H878 0.964 . S
C863 H879 0.961 . S
C864 C865 1.370 1_565 S
C864 C866 1.363 . S
C864 H880 0.931 . S
C865 C864 1.370 1_545 S
C865 C869 1.408 . S
C866 C864 1.363 . S
C866 C867 1.353 1_565 S
C866 C870 1.524 . S
C867 C859 1.495 1_545 S
C867 C866 1.353 1_545 S
C867 C868 1.429 . S
C868 C867 1.429 . S
C868 C869 1.404 . S
C868 C871 1.539 . S
C869 C865 1.408 . S
C869 C868 1.404 . S
C869 H881 0.930 . S
C870 C866 1.524 . S
C870 H882 0.956 . S
C870 H883 0.961 . S
C870 H884 0.961 . S
C871 C868 1.539 . S
C871 H885 0.958 . S
C871 H886 0.961 . S
C871 H887 0.960 . S
H872 C856 0.931 . S
H873 C861 0.929 . S
H874 C862 0.960 . S
H875 C862 0.962 . S
H876 C862 0.960 . S
H877 C863 0.961 1_565 S
H878 C863 0.964 . S
H879 C863 0.961 . S
H880 C864 0.931 . S
H881 C869 0.930 . S
H882 C870 0.956 . S
H883 C870 0.961 . S
H884 C870 0.961 . S
H885 C871 0.958 . S
H886 C871 0.961 . S
H887 C871 0.960 . S
C888 C889 1.391 . S
C888 C890 1.394 . S
C888 H904 0.931 . S
C889 C888 1.391 . S
C889 C893 1.376 . S
C890 C888 1.394 . S
C890 C891 1.369 . S
C890 C894 1.531 . S
C891 C890 1.369 . S
C891 C892 1.410 . S
C891 C899 1.503 . S
C892 C891 1.410 . S
C892 C893 1.392 . S
C892 C895 1.511 . S
C893 C889 1.376 . S
C893 C892 1.392 . S
C893 H905 0.929 . S
C894 C890 1.531 . S
C894 H906 0.960 . S
C894 H907 0.962 . S
C894 H908 0.960 . S
C895 C892 1.511 . S
C895 H909 0.961 . S
C895 H910 0.961 . S
C895 H911 0.961 . S
C896 C897 1.370 . S
C896 C898 1.363 . S
C896 H912 0.931 . S
C897 C896 1.370 . S
C897 C901 1.408 . S
C898 C896 1.363 . S
C898 C899 1.370 . S
C898 C902 1.524 . S
C899 C891 1.503 . S
C899 C898 1.370 . S
C899 C900 1.403 . S
C900 C899 1.403 . S
C900 C901 1.404 . S
C900 C903 1.539 . S
C901 C897 1.408 . S
C901 C900 1.404 . S
C901 H913 0.930 1_554 S
C902 C898 1.524 . S
C902 H914 0.956 . S
C902 H915 0.961 . S
C902 H916 0.961 . S
C903 C900 1.539 . S
C903 H917 0.958 1_554 S
C903 H918 0.961 . S
C903 H919 0.960 . S
H904 C888 0.931 . S
H905 C893 0.929 . S
H906 C894 0.960 . S
H907 C894 0.962 . S
H908 C894 0.960 . S
H909 C895 0.961 . S
H910 C895 0.961 . S
H911 C895 0.961 . S
H912 C896 0.931 . S
H913 C901 0.930 1_556 S
H914 C902 0.956 . S
H915 C902 0.961 . S
H916 C902 0.961 . S
H917 C903 0.958 1_556 S
H918 C903 0.961 . S
H919 C903 0.960 . S
C920 C921 1.391 . S
C920 C922 1.394 . S
C920 H936 0.931 . S
C921 C920 1.391 . S
C921 C925 1.376 . S
C922 C920 1.394 . S
C922 C923 1.369 . S
C922 C926 1.531 . S
C923 C922 1.369 . S
C923 C924 1.410 . S
C923 C931 1.503 . S
C924 C923 1.410 . S
C924 C925 1.392 . S
C924 C927 1.511 . S
C925 C921 1.376 . S
C925 C924 1.392 . S
C925 H937 0.929 . S
C926 C922 1.531 . S
C926 H938 0.960 . S
C926 H939 0.962 . S
C926 H940 0.960 . S
C927 C924 1.511 . S
C927 H941 0.961 . S
C927 H942 0.961 . S
C927 H943 0.961 . S
C928 C929 1.370 . S
C928 C930 1.363 . S
C928 H944 0.931 . S
C929 C928 1.370 . S
C929 C933 1.408 . S
C930 C928 1.363 . S
C930 C931 1.370 . S
C930 C934 1.524 . S
C931 C923 1.503 . S
C931 C930 1.370 . S
C931 C932 1.403 . S
C932 C931 1.403 . S
C932 C933 1.404 . S
C932 C935 1.539 . S
C933 C929 1.408 . S
C933 C932 1.404 . S
C933 H945 0.930 . S
C934 C930 1.524 . S
C934 H946 0.956 . S
C934 H947 0.961 . S
C934 H948 0.961 . S
C935 C932 1.539 . S
C935 H949 0.958 . S
C935 H950 0.961 . S
C935 H951 0.960 . S
H936 C920 0.931 . S
H937 C925 0.929 . S
H938 C926 0.960 . S
H939 C926 0.962 . S
H940 C926 0.960 . S
H941 C927 0.961 . S
H942 C927 0.961 . S
H943 C927 0.961 . S
H944 C928 0.931 . S
H945 C933 0.930 . S
H946 C934 0.956 . S
H947 C934 0.961 . S
H948 C934 0.961 . S
H949 C935 0.958 . S
H950 C935 0.961 . S
H951 C935 0.960 . S
C952 C953 1.391 . S
C952 C954 1.394 . S
C952 H968 0.931 . S
C953 C952 1.391 . S
C953 C957 1.376 . S
C954 C952 1.394 . S
C954 C955 1.369 . S
C954 C958 1.531 . S
C955 C954 1.369 . S
C955 C956 1.410 . S
C955 C963 1.503 . S
C956 C955 1.410 . S
C956 C957 1.392 . S
C956 C959 1.511 . S
C957 C953 1.376 . S
C957 C956 1.392 . S
C957 H969 0.929 . S
C958 C954 1.531 . S
C958 H970 0.960 . S
C958 H971 1.002 . S
C958 H972 0.960 . S
C959 C956 1.511 . S
C959 H973 0.961 1_556 S
C959 H974 0.961 . S
C959 H975 0.961 . S
C960 C961 1.370 . S
C960 C962 1.363 . S
C960 H976 0.931 . S
C961 C960 1.370 . S
C961 C965 1.408 . S
C962 C960 1.363 . S
C962 C963 1.370 . S
C962 C966 1.524 . S
C963 C955 1.503 . S
C963 C962 1.370 . S
C963 C964 1.403 . S
C964 C963 1.403 . S
C964 C965 1.404 . S
C964 C967 1.539 . S
C965 C961 1.408 . S
C965 C964 1.404 . S
C965 H977 0.930 . S
C966 C962 1.524 . S
C966 H978 0.956 1_455 S
C966 H979 0.961 . S
C966 H980 0.961 1_455 S
C967 C964 1.539 . S
C967 H981 0.958 . S
C967 H982 0.961 . S
C967 H983 0.960 . S
H968 C952 0.931 . S
H969 C957 0.929 . S
H970 C958 0.960 . S
H971 C958 1.002 . S
H972 C958 0.960 . S
H973 C959 0.961 1_554 S
H974 C959 0.961 . S
H975 C959 0.961 . S
H976 C960 0.931 . S
H977 C965 0.930 . S
H978 C966 0.956 1_655 S
H979 C966 0.961 . S
H980 C966 0.961 1_655 S
H981 C967 0.958 . S
H982 C967 0.961 . S
H983 C967 0.960 . S
C984 C985 1.391 . S
C984 C986 1.394 . S
C984 H1000 0.931 1_556 S
C985 C984 1.391 . S
C985 C989 1.376 . S
C986 C984 1.394 . S
C986 C987 1.369 . S
C986 C990 1.531 1_556 S
C987 C986 1.369 . S
C987 C988 1.410 . S
C987 C995 1.503 . S
C988 C987 1.410 . S
C988 C989 1.392 . S
C988 C991 1.511 . S
C989 C985 1.376 . S
C989 C988 1.392 . S
C989 H1001 0.929 . S
C990 C986 1.531 1_554 S
C990 H1002 0.960 1_554 S
C990 H1003 0.962 . S
C990 H1004 0.960 . S
C991 C988 1.511 . S
C991 H1005 0.961 . S
C991 H1006 0.961 . S
C991 H1007 0.961 . S
C992 C993 1.370 . S
C992 C994 1.363 . S
C992 H1008 0.931 . S
C993 C992 1.370 . S
C993 C997 1.408 . S
C994 C992 1.363 . S
C994 C995 1.370 . S
C994 C998 1.524 . S
C995 C987 1.503 . S
C995 C994 1.370 . S
C995 C996 1.403 . S
C996 C995 1.403 . S
C996 C997 1.404 . S
C996 C999 1.539 1_545 S
C997 C993 1.408 . S
C997 C996 1.404 . S
C997 H1009 0.930 1_545 S
C998 C994 1.524 . S
C998 H1010 0.956 . S
C998 H1011 0.961 . S
C998 H1012 0.961 . S
C999 C996 1.539 1_565 S
C999 H1013 0.958 . S
C999 H1014 0.961 . S
C999 H1015 0.960 . S
H1000 C984 0.931 1_554 S
H1001 C989 0.929 . S
H1002 C990 0.960 1_556 S
H1003 C990 0.962 . S
H1004 C990 0.960 . S
H1005 C991 0.961 . S
H1006 C991 0.961 . S
H1007 C991 0.961 . S
H1008 C992 0.931 . S
H1009 C997 0.930 1_565 S
H1010 C998 0.956 . S
H1011 C998 0.961 . S
H1012 C998 0.961 . S
H1013 C999 0.958 . S
H1014 C999 0.961 . S
H1015 C999 0.960 . S
C1016 C1017 1.391 . S
C1016 C1018 1.394 . S
C1016 H1032 0.931 1_556 S
C1017 C1016 1.391 . S
C1017 C1021 1.376 . S
C1018 C1016 1.394 . S
C1018 C1019 1.369 . S
C1018 C1022 1.531 1_556 S
C1019 C1018 1.369 . S
C1019 C1020 1.410 . S
C1019 C1027 1.503 . S
C1020 C1019 1.410 . S
C1020 C1021 1.392 . S
C1020 C1023 1.511 . S
C1021 C1017 1.376 . S
C1021 C1020 1.392 . S
C1021 H1033 0.929 . S
C1022 C1018 1.531 1_554 S
C1022 H1034 0.960 1_554 S
C1022 H1035 0.962 . S
C1022 H1036 0.960 . S
C1023 C1020 1.511 . S
C1023 H1037 0.961 . S
C1023 H1038 0.961 . S
C1023 H1039 0.961 . S
C1024 C1025 1.370 . S
C1024 C1026 1.363 . S
C1024 H1040 0.931 . S
C1025 C1024 1.370 . S
C1025 C1029 1.408 . S
C1026 C1024 1.363 . S
C1026 C1027 1.370 . S
C1026 C1030 1.524 . S
C1027 C1019 1.503 . S
C1027 C1026 1.370 . S
C1027 C1028 1.403 . S
C1028 C1027 1.403 . S
C1028 C1029 1.404 . S
C1028 C1031 1.539 . S
C1029 C1025 1.408 . S
C1029 C1028 1.404 . S
C1029 H1041 0.930 . S
C1030 C1026 1.524 . S
C1030 H1042 0.956 . S
C1030 H1043 0.961 . S
C1030 H1044 0.961 . S
C1031 C1028 1.539 . S
C1031 H1045 0.958 . S
C1031 H1046 0.961 . S
C1031 H1047 0.960 . S
H1032 C1016 0.931 1_554 S
H1033 C1021 0.929 . S
H1034 C1022 0.960 1_556 S
H1035 C1022 0.962 . S
H1036 C1022 0.960 . S
H1037 C1023 0.961 . S
H1038 C1023 0.961 . S
H1039 C1023 0.961 . S
H1040 C1024 0.931 . S
H1041 C1029 0.930 . S
H1042 C1030 0.956 . S
H1043 C1030 0.961 . S
H1044 C1030 0.961 . S
H1045 C1031 0.958 . S
H1046 C1031 0.961 . S
H1047 C1031 0.960 . S
C1048 C1049 1.391 . S
C1048 C1050 1.394 . S
C1048 H1064 0.931 . S
C1049 C1048 1.391 . S
C1049 C1053 1.376 . S
C1050 C1048 1.394 . S
C1050 C1051 1.369 . S
C1050 C1054 1.531 . S
C1051 C1050 1.369 . S
C1051 C1052 1.410 . S
C1051 C1059 1.503 . S
C1052 C1051 1.410 . S
C1052 C1053 1.392 . S
C1052 C1055 1.511 . S
C1053 C1049 1.376 . S
C1053 C1052 1.392 . S
C1053 H1065 0.929 . S
C1054 C1050 1.531 . S
C1054 H1066 0.960 . S
C1054 H1067 0.962 . S
C1054 H1068 0.960 . S
C1055 C1052 1.511 . S
C1055 H1069 0.961 . S
C1055 H1070 0.961 . S
C1055 H1071 0.961 . S
C1056 C1057 1.370 . S
C1056 C1058 1.363 . S
C1056 H1072 0.931 . S
C1057 C1056 1.370 . S
C1057 C1061 1.408 . S
C1058 C1056 1.363 . S
C1058 C1059 1.370 . S
C1058 C1062 1.524 . S
C1059 C1051 1.503 . S
C1059 C1058 1.370 . S
C1059 C1060 1.403 . S
C1060 C1059 1.403 . S
C1060 C1061 1.404 . S
C1060 C1063 1.539 . S
C1061 C1057 1.408 . S
C1061 C1060 1.404 . S
C1061 H1073 0.930 . S
C1062 C1058 1.524 . S
C1062 H1074 0.955 1_556 S
C1062 H1075 0.961 1_556 S
C1062 H1076 0.961 1_556 S
C1063 C1060 1.539 . S
C1063 H1077 0.958 . S
C1063 H1078 0.961 . S
C1063 H1079 0.960 . S
H1064 C1048 0.931 . S
H1065 C1053 0.929 . S
H1066 C1054 0.960 . S
H1067 C1054 0.962 . S
H1068 C1054 0.960 . S
H1069 C1055 0.961 . S
H1070 C1055 0.961 . S
H1071 C1055 0.961 . S
H1072 C1056 0.931 . S
H1073 C1061 0.930 . S
H1074 C1062 0.955 1_554 S
H1075 C1062 0.961 1_554 S
H1076 C1062 0.961 1_554 S
H1077 C1063 0.958 . S
H1078 C1063 0.961 . S
H1079 C1063 0.960 . S
C1080 C1081 1.391 . S
C1080 C1082 1.394 . S
C1080 H1096 0.931 1_655 S
C1081 C1080 1.391 . S
C1081 C1085 1.376 . S
C1082 C1080 1.394 . S
C1082 C1083 1.369 . S
C1082 C1086 1.531 1_655 S
C1083 C1082 1.369 . S
C1083 C1084 1.410 . S
C1083 C1091 1.503 . S
C1084 C1083 1.410 . S
C1084 C1085 1.392 . S
C1084 C1087 1.511 . S
C1085 C1081 1.376 . S
C1085 C1084 1.392 . S
C1085 H1097 0.929 . S
C1086 C1082 1.531 1_455 S
C1086 H1098 0.960 . S
C1086 H1099 0.962 . S
C1086 H1100 0.960 . S
C1087 C1084 1.511 . S
C1087 H1101 0.961 . S
C1087 H1102 0.961 . S
C1087 H1103 0.961 . S
C1088 C1089 1.370 . S
C1088 C1090 1.363 . S
C1088 H1104 0.931 . S
C1089 C1088 1.370 . S
C1089 C1093 1.408 . S
C1090 C1088 1.363 . S
C1090 C1091 1.370 . S
C1090 C1094 1.524 . S
C1091 C1083 1.503 . S
C1091 C1090 1.370 . S
C1091 C1092 1.403 . S
C1092 C1091 1.403 . S
C1092 C1093 1.404 . S
C1092 C1095 1.539 . S
C1093 C1089 1.408 . S
C1093 C1092 1.404 . S
C1093 H1105 0.930 . S
C1094 C1090 1.524 . S
C1094 H1106 0.956 . S
C1094 H1107 0.961 . S
C1094 H1108 0.961 . S
C1095 C1092 1.539 . S
C1095 H1109 0.958 . S
C1095 H1110 0.961 . S
C1095 H1111 0.960 . S
H1096 C1080 0.931 1_455 S
H1097 C1085 0.929 . S
H1098 C1086 0.960 . S
H1099 C1086 0.962 . S
H1100 C1086 0.960 . S
H1101 C1087 0.961 . S
H1102 C1087 0.961 . S
H1103 C1087 0.961 . S
H1104 C1088 0.931 . S
H1105 C1093 0.930 . S
H1106 C1094 0.956 . S
H1107 C1094 0.961 . S
H1108 C1094 0.961 . S
H1109 C1095 0.958 . S
H1110 C1095 0.961 . S
H1111 C1095 0.960 . S
C1112 C1113 1.391 . S
C1112 C1114 1.394 . S
C1112 H1128 0.931 . S
C1113 C1112 1.391 . S
C1113 C1117 1.376 . S
C1114 C1112 1.394 . S
C1114 C1115 1.369 . S
C1114 C1118 1.531 . S
C1115 C1114 1.369 . S
C1115 C1116 1.410 . S
C1115 C1123 1.503 . S
C1116 C1115 1.410 . S
C1116 C1117 1.392 . S
C1116 C1119 1.511 1_565 S
C1117 C1113 1.376 . S
C1117 C1116 1.392 . S
C1117 H1129 0.929 1_565 S
C1118 C1114 1.531 . S
C1118 H1130 0.960 . S
C1118 H1131 0.962 . S
C1118 H1132 0.960 . S
C1119 C1116 1.511 1_545 S
C1119 H1133 0.961 . S
C1119 H1134 0.961 . S
C1119 H1135 0.961 . S
C1120 C1121 1.370 . S
C1120 C1122 1.363 . S
C1120 H1136 0.931 1_565 S
C1121 C1120 1.370 . S
C1121 C1125 1.408 . S
C1122 C1120 1.363 . S
C1122 C1123 1.370 . S
C1122 C1126 1.514 1_565 S
C1123 C1115 1.503 . S
C1123 C1122 1.370 . S
C1123 C1124 1.403 . S
C1124 C1123 1.403 . S
C1124 C1125 1.404 . S
C1124 C1127 1.539 . S
C1125 C1121 1.408 . S
C1125 C1124 1.404 . S
C1125 H1137 0.930 . S
C1126 C1122 1.514 1_545 S
C1126 H1138 0.931 1_545 S
C1126 H1139 0.980 . S
C1126 H1140 0.978 . S
C1127 C1124 1.539 . S
C1127 H1141 0.958 . S
C1127 H1142 0.961 . S
C1127 H1143 0.960 . S
H1128 C1112 0.931 . S
H1129 C1117 0.929 1_545 S
H1130 C1118 0.960 . S
H1131 C1118 0.962 . S
H1132 C1118 0.960 . S
H1133 C1119 0.961 . S
H1134 C1119 0.961 . S
H1135 C1119 0.961 . S
H1136 C1120 0.931 1_545 S
H1137 C1125 0.930 . S
H1138 C1126 0.931 1_565 S
H1139 C1126 0.980 . S
H1140 C1126 0.978 . S
H1141 C1127 0.958 . S
H1142 C1127 0.961 . S
H1143 C1127 0.960 . S
C1144 C1145 1.391 . S
C1144 C1146 1.394 . S
C1144 H1160 0.931 . S
C1145 C1144 1.391 . S
C1145 C1149 1.376 . S
C1146 C1144 1.394 . S
C1146 C1147 1.369 . S
C1146 C1150 1.531 . S
C1147 C1146 1.369 . S
C1147 C1148 1.410 . S
C1147 C1155 1.503 . S
C1148 C1147 1.410 . S
C1148 C1149 1.392 . S
C1148 C1151 1.511 . S
C1149 C1145 1.376 . S
C1149 C1148 1.392 . S
C1149 H1161 0.929 . S
C1150 C1146 1.531 . S
C1150 H1162 0.960 . S
C1150 H1163 0.962 . S
C1150 H1164 0.960 . S
C1151 C1148 1.511 . S
C1151 H1165 0.961 . S
C1151 H1166 0.961 . S
C1151 H1167 0.961 . S
C1152 C1153 1.370 . S
C1152 C1154 1.363 . S
C1152 H1168 0.931 . S
C1153 C1152 1.370 . S
C1153 C1157 1.408 . S
C1154 C1152 1.363 . S
C1154 C1155 1.370 . S
C1154 C1158 1.524 . S
C1155 C1147 1.503 . S
C1155 C1154 1.370 . S
C1155 C1156 1.403 . S
C1156 C1155 1.403 . S
C1156 C1157 1.404 . S
C1156 C1159 1.539 . S
C1157 C1153 1.408 . S
C1157 C1156 1.404 . S
C1157 H1169 0.930 . S
C1158 C1154 1.524 . S
C1158 H1170 0.956 . S
C1158 H1171 0.961 . S
C1158 H1172 0.961 . S
C1159 C1156 1.539 . S
C1159 H1173 0.958 . S
C1159 H1174 0.961 . S
C1159 H1175 0.960 . S
H1160 C1144 0.931 . S
H1161 C1149 0.929 . S
H1162 C1150 0.960 . S
H1163 C1150 0.962 . S
H1164 C1150 0.960 . S
H1165 C1151 0.961 . S
H1166 C1151 0.961 . S
H1167 C1151 0.961 . S
H1168 C1152 0.931 . S
H1169 C1157 0.930 . S
H1170 C1158 0.956 . S
H1171 C1158 0.961 . S
H1172 C1158 0.961 . S
H1173 C1159 0.958 . S
H1174 C1159 0.961 . S
H1175 C1159 0.960 . S
C1176 C1177 1.391 . S
C1176 C1178 1.394 . S
C1176 H1192 0.931 . S
C1177 C1176 1.391 . S
C1177 C1181 1.376 . S
C1178 C1176 1.394 . S
C1178 C1179 1.369 . S
C1178 C1182 1.531 . S
C1179 C1178 1.369 . S
C1179 C1180 1.410 . S
C1179 C1187 1.503 . S
C1180 C1179 1.410 . S
C1180 C1181 1.392 . S
C1180 C1183 1.511 . S
C1181 C1177 1.376 . S
C1181 C1180 1.392 . S
C1181 H1193 0.929 . S
C1182 C1178 1.531 . S
C1182 H1194 0.960 . S
C1182 H1195 0.962 . S
C1182 H1196 0.960 . S
C1183 C1180 1.511 . S
C1183 H1197 0.961 . S
C1183 H1198 0.961 . S
C1183 H1199 0.961 . S
C1184 C1185 1.370 . S
C1184 C1186 1.363 . S
C1184 H1200 0.931 . S
C1185 C1184 1.370 . S
C1185 C1189 1.408 . S
C1186 C1184 1.363 . S
C1186 C1187 1.370 . S
C1186 C1190 1.524 . S
C1187 C1179 1.503 . S
C1187 C1186 1.370 . S
C1187 C1188 1.403 . S
C1188 C1187 1.403 . S
C1188 C1189 1.404 . S
C1188 C1191 1.539 . S
C1189 C1185 1.408 . S
C1189 C1188 1.404 . S
C1189 H1201 0.930 . S
C1190 C1186 1.524 . S
C1190 H1202 0.956 . S
C1190 H1203 0.961 . S
C1190 H1204 0.961 . S
C1191 C1188 1.539 . S
C1191 H1205 0.958 . S
C1191 H1206 0.961 . S
C1191 H1207 0.960 . S
H1192 C1176 0.931 . S
H1193 C1181 0.929 . S
H1194 C1182 0.960 . S
H1195 C1182 0.962 . S
H1196 C1182 0.960 . S
H1197 C1183 0.961 . S
H1198 C1183 0.961 . S
H1199 C1183 0.961 . S
H1200 C1184 0.931 . S
H1201 C1189 0.930 . S
H1202 C1190 0.956 . S
H1203 C1190 0.961 . S
H1204 C1190 0.961 . S
H1205 C1191 0.958 . S
H1206 C1191 0.961 . S
H1207 C1191 0.960 . S
C441 N80 1.871 . S
C449 C178 1.931 . S
C481 C262 1.952 . S
C473 N93 1.893 . S
C513 C328 1.940 . S
C505 N54 2.001 . S
C545 C412 1.913 . S
C537 N67 2.011 . S
C577 C167 1.934 1_565 S
C569 N28 1.882 . S
C601 N41 1.945 . S
C609 C251 1.945 . S
C633 N2 1.992 . S
C641 C339 1.952 . S
C665 N15 1.990 . S
C673 C423 1.928 . S
C705 C174 0.627 1_455 S
C697 N70 0.648 . S
C737 C258 0.607 1_545 S
C729 N83 0.618 . S
C769 C330 0.585 . S
C761 N96 0.556 . S
C793 N57 0.552 . S
C801 C414 0.596 . S
C825 N18 0.600 . S
C833 C162 0.616 . S
C865 C246 0.540 . S
C857 N31 0.501 . S
C897 C342 0.581 . S
C889 N44 0.573 . S
C921 N5 0.502 . S
C929 C426 0.547 . S
C953 N66 2.108 . S
C961 C171 2.047 . S
C985 N79 2.063 . S
C993 C255 2.003 . S
C1025 C335 2.019 . S
C1017 N92 1.967 . S
C1057 C419 2.055 . S
C1049 N53 2.018 . S
C1081 N14 2.077 . S
C1089 C160 2.053 . S
C1121 C244 2.021 . S
C1113 N27 2.095 . S
C1153 C346 2.033 . S
C1145 N40 1.979 . S
C1177 N1 2.029 . S
C1185 C430 2.054 . S
