# Generated by pormake.
# Topology ssa, (4,4)-cn, num edge types: 1
# Building blocks:
#     Node 0, Type 0, BuildingBlock: KUFVIS_clean_linker_0, # of connection points: 4
#     Node 1, Type 0, BuildingBlock: KUFVIS_clean_linker_0, # of connection points: 4
#     Node 2, Type 0, BuildingBlock: KUFVIS_clean_linker_0, # of connection points: 4
#     Node 3, Type 0, BuildingBlock: KUFVIS_clean_linker_0, # of connection points: 4
#     Node 4, Type 0, BuildingBlock: KUFVIS_clean_linker_0, # of connection points: 4
#     Node 5, Type 0, BuildingBlock: KUFVIS_clean_linker_0, # of connection points: 4
#     Node 6, Type 1, BuildingBlock: MUDLON_clean_sbu_0, # of connection points: 4
#     Node 7, Type 1, BuildingBlock: MUDLON_clean_sbu_0, # of connection points: 4
#     Node 8, Type 1, BuildingBlock: MUDLON_clean_sbu_0, # of connection points: 4
#     Node 9, Type 1, BuildingBlock: MUDLON_clean_sbu_0, # of connection points: 4
#     Node 10, Type 1, BuildingBlock: MUDLON_clean_sbu_0, # of connection points: 4
#     Node 11, Type 1, BuildingBlock: MUDLON_clean_sbu_0, # of connection points: 4
#     Edge 12, Type (0, 1), BuildingBlock: EYOCIG_clean_linker_4, # of connection points: 2
#     Edge 13, Type (0, 1), BuildingBlock: EYOCIG_clean_linker_4, # of connection points: 2
#     Edge 14, Type (0, 1), BuildingBlock: EYOCIG_clean_linker_4, # of connection points: 2
#     Edge 15, Type (0, 1), BuildingBlock: EYOCIG_clean_linker_4, # of connection points: 2
#     Edge 16, Type (0, 1), BuildingBlock: EYOCIG_clean_linker_4, # of connection points: 2
#     Edge 17, Type (0, 1), BuildingBlock: EYOCIG_clean_linker_4, # of connection points: 2
#     Edge 18, Type (0, 1), BuildingBlock: EYOCIG_clean_linker_4, # of connection points: 2
#     Edge 19, Type (0, 1), BuildingBlock: EYOCIG_clean_linker_4, # of connection points: 2
#     Edge 20, Type (0, 1), BuildingBlock: EYOCIG_clean_linker_4, # of connection points: 2
#     Edge 21, Type (0, 1), BuildingBlock: EYOCIG_clean_linker_4, # of connection points: 2
#     Edge 22, Type (0, 1), BuildingBlock: EYOCIG_clean_linker_4, # of connection points: 2
#     Edge 23, Type (0, 1), BuildingBlock: EYOCIG_clean_linker_4, # of connection points: 2
#     Edge 24, Type (0, 1), BuildingBlock: EYOCIG_clean_linker_4, # of connection points: 2
#     Edge 25, Type (0, 1), BuildingBlock: EYOCIG_clean_linker_4, # of connection points: 2
#     Edge 26, Type (0, 1), BuildingBlock: EYOCIG_clean_linker_4, # of connection points: 2
#     Edge 27, Type (0, 1), BuildingBlock: EYOCIG_clean_linker_4, # of connection points: 2
#     Edge 28, Type (0, 1), BuildingBlock: EYOCIG_clean_linker_4, # of connection points: 2
#     Edge 29, Type (0, 1), BuildingBlock: EYOCIG_clean_linker_4, # of connection points: 2
#     Edge 30, Type (0, 1), BuildingBlock: EYOCIG_clean_linker_4, # of connection points: 2
#     Edge 31, Type (0, 1), BuildingBlock: EYOCIG_clean_linker_4, # of connection points: 2
#     Edge 32, Type (0, 1), BuildingBlock: EYOCIG_clean_linker_4, # of connection points: 2
#     Edge 33, Type (0, 1), BuildingBlock: EYOCIG_clean_linker_4, # of connection points: 2
#     Edge 34, Type (0, 1), BuildingBlock: EYOCIG_clean_linker_4, # of connection points: 2
#     Edge 35, Type (0, 1), BuildingBlock: EYOCIG_clean_linker_4, # of connection points: 2
# Relax obj value: 0.001
# Max RMSD: 0.051
# Mean RMSD: 0.028
data_MOF--net-ssa--node1-MUDLON_clean_sbu_0--node2-KUFVIS_clean_linker_0--edge1-EYOCIG_clean_linker_4
_symmetry_space_group_name_H-M    P1
_symmetry_Int_Tables_number       1
_symmetry_cell_setting            triclinic
loop_
_symmetry_equiv_pos_as_xyz
'x, y, z'
_cell_length_a     36.308669
_cell_length_b     36.279563
_cell_length_c     33.006402
_cell_angle_alpha  90.017248
_cell_angle_beta   89.891769
_cell_angle_gamma 119.97066
loop_
_atom_site_label
_atom_site_type_symbol
_atom_site_fract_x
_atom_site_fract_y
_atom_site_fract_z
_atom_type_partial_charge
H0 H 0.90862 0.45754 0.9255 0.0
H1 H 0.97463 0.55027 1.01673 0.0
H2 H 0.98592 0.43641 1.00862 0.0
H3 H 0.01495 0.45143 0.06593 0.0
H4 H 0.0928 0.55125 0.14761 0.0
H5 H 0.02709 0.57674 0.05513 0.0
C6 C 0.93003 0.46822 0.95129 0.0
C7 C 0.94532 0.44266 0.96642 0.0
C8 C 0.94175 0.50725 0.96914 0.0
C9 C 0.96839 0.52073 1.00303 0.0
C10 C 0.98572 0.4961 1.01859 0.0
C11 C 0.9737 0.45669 0.99914 0.0
C12 C 0.01572 0.51137 0.05452 0.0
C13 C 0.02744 0.48416 0.07475 0.0
C14 C 0.05584 0.49898 0.10746 0.0
C15 C 0.07145 0.54018 0.12179 0.0
C16 C 0.05987 0.56728 0.10324 0.0
C17 C 0.03326 0.55363 0.06934 0.0
H18 H 0.54355 0.1008 0.64478 0.0
H19 H 0.45303 0.0353 0.55167 0.0
H20 H 0.56678 0.02433 0.56219 0.0
H21 H 0.55343 -0.00367 0.50432 0.0
H22 H 0.4544 0.91533 0.42338 0.0
H23 H 0.42719 0.98192 0.51395 0.0
C24 C 0.53361 0.07978 0.61867 0.0
C25 C 0.55955 0.06469 0.60408 0.0
C26 C 0.49494 0.06802 0.60012 0.0
C27 C 0.48235 0.04173 0.5659 0.0
C28 C 0.50742 0.02463 0.55089 0.0
C29 C 0.54636 0.03659 0.5711 0.0
C30 C 0.49288 -0.00555 0.51504 0.0
C31 C 0.52068 0.9831 0.49536 0.0
C32 C 0.50641 0.954 0.46317 0.0
C33 C 0.46514 0.93738 0.44871 0.0
C34 C 0.43745 0.94863 0.46663 0.0
C35 C 0.45065 0.97602 0.50006 0.0
H36 H 0.44788 0.5529 0.14493 0.0
H37 H 0.4194 0.46068 0.05216 0.0
H38 H 0.54643 0.5709 0.06322 0.0
H39 H 0.55881 0.55827 1.00423 0.0
H40 H 0.53965 0.45824 0.92402 0.0
H41 H 0.44604 0.43285 1.01466 0.0
C42 C 0.45822 0.54197 0.11896 0.0
C43 C 0.49958 0.5663 0.10457 0.0
C44 C 0.43011 0.50359 0.10049 0.0
C45 C 0.44294 0.48974 0.06641 0.0
C46 C 0.48527 0.51336 0.05148 0.0
C47 C 0.51347 0.55182 0.07183 0.0
C48 C 0.50001 0.49806 1.01553 0.0
C49 C 0.53909 0.5254 0.99562 0.0
C50 C 0.55359 0.51065 0.96359 0.0
C51 C 0.52856 0.46932 0.94929 0.0
C52 C 0.48945 0.44209 0.96721 0.0
C53 C 0.47559 0.4558 1.00065 0.0
H54 H 0.89719 0.45382 0.6465 0.0
H55 H 0.98072 0.55392 0.56752 0.0
H56 H 0.96226 0.42643 0.55388 0.0
H57 H 0.01941 0.45499 0.51892 0.0
H58 H 0.08515 0.54808 0.42704 0.0
H59 H 0.00239 0.56505 0.50682 0.0
C60 C 0.91906 0.46452 0.62098 0.0
C61 C 0.92932 0.43647 0.60222 0.0
C62 C 0.93694 0.50632 0.60752 0.0
C63 C 0.96605 0.52067 0.57541 0.0
C64 C 0.97602 0.49249 0.55459 0.0
C65 C 0.95668 0.44979 0.5686 0.0
C66 C 0.00623 0.50767 0.51887 0.0
C67 C 0.02521 0.48412 0.50447 0.0
C68 C 0.0526 0.49826 0.47089 0.0
C69 C 0.06321 0.53683 0.4525 0.0
C70 C 0.0458 0.56103 0.46641 0.0
C71 C 0.01666 0.54619 0.49852 0.0
H72 H 0.44581 0.90081 0.14547 0.0
H73 H 0.42632 0.98134 0.06511 0.0
H74 H 0.53866 0.96803 0.05402 0.0
H75 H 0.56563 0.02279 1.01725 0.0
H76 H 0.53901 0.08992 0.92672 0.0
H77 H 0.43923 0.0077 1.00661 0.0
C78 C 0.4566 0.92257 0.11988 0.0
C79 C 0.49556 0.93426 0.1017 0.0
C80 C 0.43163 0.93899 0.10574 0.0
C81 C 0.44591 0.96799 0.07352 0.0
C82 C 0.48485 0.97954 0.05342 0.0
C83 C 0.50917 0.96152 0.06809 0.0
C84 C 0.49994 0.01018 1.01796 0.0
C85 C 0.54237 0.02891 1.0033 0.0
C86 C 0.55578 0.0566 0.97002 0.0
C87 C 0.52815 0.06779 0.95202 0.0
C88 C 0.4867 0.05077 0.96615 0.0
C89 C 0.4722 0.02141 0.9981 0.0
H90 H 0.54604 0.45191 0.64633 0.0
H91 H 0.57452 0.54306 0.55274 0.0
H92 H 0.44804 0.43175 0.5632 0.0
H93 H 0.43412 0.44611 0.50563 0.0
H94 H 0.45592 0.54615 0.42415 0.0
H95 H 0.54908 0.57018 0.51413 0.0
C96 C 0.53572 0.4624 0.62007 0.0
C97 C 0.49458 0.43746 0.6054 0.0
C98 C 0.56366 0.50079 0.6014 0.0
C99 C 0.55091 0.51404 0.567 0.0
C100 C 0.50877 0.49004 0.55188 0.0
C101 C 0.48075 0.45141 0.5722 0.0
C102 C 0.49419 0.50541 0.51587 0.0
C103 C 0.45465 0.47868 0.49646 0.0
C104 C 0.44074 0.49383 0.46427 0.0
C105 C 0.46659 0.53479 0.44949 0.0
C106 C 0.50588 0.56141 0.46711 0.0
C107 C 0.5193 0.54744 0.50052 0.0
Mg108 Mg 0.2148 0.43785 0.29058 0.0
C109 C 0.15295 0.42723 0.22586 0.0
O110 O 0.1444 0.38776 0.22969 0.0
C111 C 0.2702 0.42582 0.3491 0.0
O112 O 0.24398 0.38626 0.33872 0.0
C113 C 0.15116 0.42943 0.35137 0.0
O114 O 0.13482 0.39001 0.33886 0.0
O115 O 0.18585 0.45825 0.33619 0.0
O116 O 0.18163 0.45615 0.24761 0.0
O117 O 0.26396 0.45977 0.24463 0.0
C118 C 0.2643 0.4312 0.22266 0.0
O119 O 0.23588 0.39111 0.22871 0.0
O120 O 0.26603 0.45557 0.33366 0.0
Mg121 Mg 0.77792 0.21913 0.79019 0.0
C122 C 0.72704 0.15887 0.7245 0.0
O123 O 0.75794 0.15027 0.72794 0.0
C124 C 0.84545 0.27361 0.84913 0.0
O125 O 0.85877 0.24749 0.8382 0.0
C126 C 0.72339 0.15523 0.85101 0.0
O127 O 0.74707 0.13949 0.83864 0.0
O128 O 0.72862 0.18964 0.83574 0.0
O129 O 0.72659 0.18703 0.74698 0.0
O130 O 0.8055 0.26898 0.74493 0.0
C131 C 0.83434 0.26941 0.72277 0.0
O132 O 0.84579 0.24074 0.7283 0.0
O133 O 0.8116 0.2697 0.8339 0.0
Mg134 Mg 0.56737 0.78667 0.28955 0.0
C135 C 0.54707 0.82902 0.22466 0.0
O136 O 0.50925 0.79894 0.23613 0.0
C137 C 0.55096 0.71932 0.34839 0.0
O138 O 0.51279 0.70696 0.33423 0.0
C139 C 0.55286 0.83989 0.34685 0.0
O140 O 0.51425 0.81195 0.3352 0.0
O141 O 0.58435 0.83795 0.33258 0.0
O142 O 0.57984 0.83269 0.24209 0.0
O143 O 0.58308 0.75281 0.24485 0.0
C144 C 0.55116 0.72333 0.22664 0.0
O145 O 0.51286 0.716 0.23562 0.0
O146 O 0.58243 0.75334 0.33516 0.0
Mg147 Mg 0.78155 0.57221 0.79035 0.0
C148 C 0.71909 0.55152 0.72514 0.0
O149 O 0.71108 0.5136 0.73665 0.0
C150 C 0.83108 0.55387 0.84917 0.0
O151 O 0.80547 0.51598 0.83424 0.0
C152 C 0.71488 0.55869 0.84787 0.0
O153 O 0.70433 0.52002 0.83635 0.0
O154 O 0.74807 0.59021 0.83329 0.0
O155 O 0.74812 0.58425 0.74265 0.0
O156 O 0.83205 0.58902 0.74659 0.0
C157 C 0.82986 0.55728 0.72812 0.0
O158 O 0.79858 0.51887 0.73629 0.0
O159 O 0.82886 0.58567 0.83648 0.0
Mg160 Mg 0.21073 0.78543 0.29001 0.0
C161 C 0.16719 0.7231 0.22511 0.0
O162 O 0.19699 0.71467 0.23579 0.0
C163 C 0.27834 0.83488 0.349 0.0
O164 O 0.2901 0.80865 0.33452 0.0
C165 C 0.15695 0.71896 0.34753 0.0
O166 O 0.18441 0.70759 0.33584 0.0
O167 O 0.15934 0.75252 0.3331 0.0
O168 O 0.16424 0.75243 0.24304 0.0
O169 O 0.24436 0.83514 0.24551 0.0
C170 C 0.27343 0.83224 0.22686 0.0
O171 O 0.28031 0.80088 0.23543 0.0
O172 O 0.24472 0.83318 0.3359 0.0
Mg173 Mg 0.42578 0.2156 0.78971 0.0
C174 C 0.4443 0.17204 0.72461 0.0
O175 O 0.48244 0.2016 0.73575 0.0
C176 C 0.44316 0.28286 0.84891 0.0
O177 O 0.48114 0.29472 0.83438 0.0
C178 C 0.44045 0.16284 0.84743 0.0
O179 O 0.47907 0.19063 0.83553 0.0
O180 O 0.40897 0.16465 0.83308 0.0
O181 O 0.41193 0.16912 0.74237 0.0
O182 O 0.41059 0.25025 0.74551 0.0
C183 C 0.4426 0.27952 0.72711 0.0
O184 O 0.48075 0.28617 0.73553 0.0
O185 O 0.41133 0.24914 0.83576 0.0
C186 C 0.08648 0.45746 0.14741 0.0
C187 C 0.07022 0.47292 0.12692 0.0
C188 C 0.10904 0.44538 0.17395 0.0
C189 C 0.12917 0.43725 0.19769 0.0
C190 C 0.63126 0.0949 0.64458 0.0
C191 C 0.59977 0.07894 0.62384 0.0
C192 C 0.6656 0.11662 0.67159 0.0
C193 C 0.69363 0.13593 0.69575 0.0
C194 C 0.54311 0.63787 0.14487 0.0
C195 C 0.52695 0.60638 0.12408 0.0
C196 C 0.55365 0.6715 0.17235 0.0
C197 C 0.55596 0.69681 0.19733 0.0
C198 C 0.90882 0.5498 0.64791 0.0
C199 C 0.92426 0.53366 0.6272 0.0
C200 C 0.88534 0.56023 0.675 0.0
C201 C 0.86184 0.56235 0.69951 0.0
C202 C 0.35949 0.90967 0.14557 0.0
C203 C 0.39128 0.92541 0.12515 0.0
C204 C 0.32559 0.88653 0.17277 0.0
C205 C 0.30015 0.8636 0.1977 0.0
C206 C 0.45126 0.36589 0.64603 0.0
C207 C 0.46741 0.39735 0.6251 0.0
C208 C 0.44058 0.33213 0.67344 0.0
C209 C 0.43808 0.30653 0.69818 0.0
C210 C 0.54804 0.92243 0.42476 0.0
C211 C 0.53293 0.93948 0.44472 0.0
C212 C 0.55726 0.89719 0.39867 0.0
C213 C 0.55863 0.87248 0.3751 0.0
C214 C 0.62704 0.55254 0.92562 0.0
C215 C 0.59464 0.53695 0.94518 0.0
C216 C 0.66186 0.56258 0.8998 0.0
C217 C 0.68811 0.56442 0.87619 0.0
C218 C 0.07553 0.63332 0.42693 0.0
C219 C 0.05926 0.60151 0.44733 0.0
C220 C 0.10015 0.66734 0.40028 0.0
C221 C 0.12461 0.69295 0.37629 0.0
C222 C 0.44497 0.08159 0.92705 0.0
C223 C 0.46006 0.06482 0.94733 0.0
C224 C 0.43588 0.10642 0.90038 0.0
C225 C 0.43464 0.13076 0.87629 0.0
C226 C 0.36732 0.45394 0.42635 0.0
C227 C 0.39955 0.46855 0.44599 0.0
C228 C 0.33234 0.44272 0.40052 0.0
C229 C 0.30403 0.4352 0.37703 0.0
C230 C 0.91353 0.36969 0.92776 0.0
C231 C 0.9304 0.4017 0.94783 0.0
C232 C 0.89033 0.33501 0.90141 0.0
C233 C 0.86978 0.30701 0.87753 0.0
C234 C 0.90841 0.5477 0.93203 0.0
C235 C 0.92564 0.53277 0.95178 0.0
C236 C 0.88441 0.5571 0.90476 0.0
C237 C 0.86124 0.5587 0.87965 0.0
C238 C 0.36291 0.91328 0.43074 0.0
C239 C 0.39545 0.93135 0.44984 0.0
C240 C 0.32907 0.88873 0.40404 0.0
C241 C 0.30402 0.86539 0.37916 0.0
C242 C 0.44968 0.36759 0.93101 0.0
C243 C 0.46429 0.40009 0.95033 0.0
C244 C 0.44021 0.33372 0.90413 0.0
C245 C 0.43834 0.30856 0.87919 0.0
C246 C 0.08795 0.45931 0.43425 0.0
C247 C 0.06998 0.47368 0.45379 0.0
C248 C 0.11029 0.44767 0.40688 0.0
C249 C 0.12921 0.43969 0.38152 0.0
C250 C 0.63009 0.09159 0.93349 0.0
C251 C 0.59767 0.07375 0.95289 0.0
C252 C 0.66421 0.11389 0.9063 0.0
C253 C 0.69118 0.1329 0.88105 0.0
C254 C 0.54621 0.63557 0.43052 0.0
C255 C 0.53153 0.60325 0.4501 0.0
C256 C 0.55517 0.66912 0.40346 0.0
C257 C 0.55641 0.69399 0.37854 0.0
C258 C 0.45285 0.09923 0.63797 0.0
C259 C 0.46847 0.08296 0.61769 0.0
C260 C 0.44241 0.12145 0.66656 0.0
C261 C 0.43999 0.1429 0.69314 0.0
C262 C 0.35643 0.46381 0.13816 0.0
C263 C 0.3885 0.47867 0.11817 0.0
C264 C 0.32281 0.45124 0.16613 0.0
C265 C 0.29617 0.44227 0.19198 0.0
C266 C 0.89434 0.3622 0.63893 0.0
C267 C 0.91207 0.39452 0.61932 0.0
C268 C 0.87297 0.32837 0.66664 0.0
C269 C 0.8552 0.30154 0.69232 0.0
C270 C 0.53682 0.90181 0.13901 0.0
C271 C 0.5214 0.91855 0.11918 0.0
C272 C 0.54759 0.87945 0.16711 0.0
C273 C 0.55056 0.85808 0.19343 0.0
C274 C 0.63712 0.54191 0.63896 0.0
C275 C 0.60512 0.52645 0.61899 0.0
C276 C 0.66996 0.55253 0.66724 0.0
C277 C 0.69395 0.55523 0.69373 0.0
C278 C 0.0925 0.64117 0.14001 0.0
C279 C 0.0756 0.60899 0.12027 0.0
C280 C 0.11553 0.67409 0.16801 0.0
C281 C 0.13755 0.69805 0.19419 0.0
loop_
_geom_bond_atom_site_label_1
_geom_bond_atom_site_label_2
_geom_bond_distance
_geom_bond_site_symmetry_2
_ccdc_geom_bond_type
H0 C6 0.930 . S
H1 C9 0.931 . S
H2 C11 0.931 . S
H3 C13 0.930 . S
H4 C15 0.930 . S
H5 C17 0.931 . S
C6 H0 0.930 . S
C6 C7 1.380 . S
C6 C8 1.394 . S
C7 C6 1.380 . S
C7 C11 1.382 . S
C8 C6 1.394 . S
C8 C9 1.400 . S
C9 H1 0.931 . S
C9 C8 1.400 . S
C9 C10 1.375 . S
C10 C9 1.375 . S
C10 C11 1.415 . S
C10 C12 1.501 1_656 S
C11 H2 0.931 . S
C11 C7 1.382 . S
C11 C10 1.415 . S
C12 C10 1.501 1_454 S
C12 C13 1.384 . S
C12 C17 1.408 . S
C13 H3 0.930 . S
C13 C12 1.384 . S
C13 C14 1.389 . S
C14 C13 1.389 . S
C14 C15 1.405 . S
C15 H4 0.930 . S
C15 C14 1.405 . S
C15 C16 1.364 . S
C16 C15 1.364 . S
C16 C17 1.400 . S
C17 H5 0.931 . S
C17 C12 1.408 . S
C17 C16 1.400 . S
H18 C24 0.930 . S
H19 C27 0.931 . S
H20 C29 0.931 . S
H21 C31 0.930 1_545 S
H22 C33 0.930 . S
H23 C35 0.931 . S
C24 H18 0.930 . S
C24 C25 1.380 . S
C24 C26 1.394 . S
C25 C24 1.380 . S
C25 C29 1.382 . S
C26 C24 1.394 . S
C26 C27 1.400 . S
C27 H19 0.931 . S
C27 C26 1.400 . S
C27 C28 1.375 . S
C28 C27 1.375 . S
C28 C29 1.415 . S
C28 C30 1.501 . S
C29 H20 0.931 . S
C29 C25 1.382 . S
C29 C28 1.415 . S
C30 C28 1.501 . S
C30 C31 1.384 1_545 S
C30 C35 1.408 1_545 S
C31 H21 0.930 1_565 S
C31 C30 1.384 1_565 S
C31 C32 1.389 . S
C32 C31 1.389 . S
C32 C33 1.405 . S
C33 H22 0.930 . S
C33 C32 1.405 . S
C33 C34 1.364 . S
C34 C33 1.364 . S
C34 C35 1.400 . S
C35 H23 0.931 . S
C35 C30 1.408 1_565 S
C35 C34 1.400 . S
H36 C42 0.930 . S
H37 C45 0.931 . S
H38 C47 0.931 . S
H39 C49 0.930 . S
H40 C51 0.930 . S
H41 C53 0.931 . S
C42 H36 0.930 . S
C42 C43 1.380 . S
C42 C44 1.394 . S
C43 C42 1.380 . S
C43 C47 1.382 . S
C44 C42 1.394 . S
C44 C45 1.400 . S
C45 H37 0.931 . S
C45 C44 1.400 . S
C45 C46 1.375 . S
C46 C45 1.375 . S
C46 C47 1.415 . S
C46 C48 1.501 1_554 S
C47 H38 0.931 . S
C47 C43 1.382 . S
C47 C46 1.415 . S
C48 C46 1.501 1_556 S
C48 C49 1.384 . S
C48 C53 1.408 . S
C49 H39 0.930 . S
C49 C48 1.384 . S
C49 C50 1.389 . S
C50 C49 1.389 . S
C50 C51 1.405 . S
C51 H40 0.930 . S
C51 C50 1.405 . S
C51 C52 1.364 . S
C52 C51 1.364 . S
C52 C53 1.400 . S
C53 H41 0.931 . S
C53 C48 1.408 . S
C53 C52 1.400 . S
H54 C60 0.930 . S
H55 C63 0.931 . S
H56 C65 0.931 . S
H57 C67 0.930 . S
H58 C69 0.930 . S
H59 C71 0.931 . S
C60 H54 0.930 . S
C60 C61 1.380 . S
C60 C62 1.394 . S
C61 C60 1.380 . S
C61 C65 1.382 . S
C62 C60 1.394 . S
C62 C63 1.400 . S
C63 H55 0.931 . S
C63 C62 1.400 . S
C63 C64 1.375 . S
C64 C63 1.375 . S
C64 C65 1.415 . S
C64 C66 1.501 1_655 S
C65 H56 0.931 . S
C65 C61 1.382 . S
C65 C64 1.415 . S
C66 C64 1.501 1_455 S
C66 C67 1.384 . S
C66 C71 1.408 . S
C67 H57 0.930 . S
C67 C66 1.384 . S
C67 C68 1.389 . S
C68 C67 1.389 . S
C68 C69 1.405 . S
C69 H58 0.930 . S
C69 C68 1.405 . S
C69 C70 1.364 . S
C70 C69 1.364 . S
C70 C71 1.400 . S
C71 H59 0.931 . S
C71 C66 1.408 . S
C71 C70 1.400 . S
H72 C78 0.930 . S
H73 C81 0.931 . S
H74 C83 0.931 . S
H75 C85 0.930 . S
H76 C87 0.930 . S
H77 C89 0.931 . S
C78 H72 0.930 . S
C78 C79 1.380 . S
C78 C80 1.394 . S
C79 C78 1.380 . S
C79 C83 1.382 . S
C80 C78 1.394 . S
C80 C81 1.400 . S
C81 H73 0.931 . S
C81 C80 1.400 . S
C81 C82 1.375 . S
C82 C81 1.375 . S
C82 C83 1.415 . S
C82 C84 1.501 1_564 S
C83 H74 0.931 . S
C83 C79 1.382 . S
C83 C82 1.415 . S
C84 C82 1.501 1_546 S
C84 C85 1.384 . S
C84 C89 1.408 . S
C85 H75 0.930 . S
C85 C84 1.384 . S
C85 C86 1.389 . S
C86 C85 1.389 . S
C86 C87 1.405 . S
C87 H76 0.930 . S
C87 C86 1.405 . S
C87 C88 1.364 . S
C88 C87 1.364 . S
C88 C89 1.400 . S
C89 H77 0.931 . S
C89 C84 1.408 . S
C89 C88 1.400 . S
H90 C96 0.930 . S
H91 C99 0.931 . S
H92 C101 0.931 . S
H93 C103 0.930 . S
H94 C105 0.930 . S
H95 C107 0.931 . S
C96 H90 0.930 . S
C96 C97 1.380 . S
C96 C98 1.394 . S
C97 C96 1.380 . S
C97 C101 1.382 . S
C98 C96 1.394 . S
C98 C99 1.400 . S
C99 H91 0.931 . S
C99 C98 1.400 . S
C99 C100 1.375 . S
C100 C99 1.375 . S
C100 C101 1.415 . S
C100 C102 1.501 . S
C101 H92 0.931 . S
C101 C97 1.382 . S
C101 C100 1.415 . S
C102 C100 1.501 . S
C102 C103 1.384 . S
C102 C107 1.408 . S
C103 H93 0.930 . S
C103 C102 1.384 . S
C103 C104 1.389 . S
C104 C103 1.389 . S
C104 C105 1.405 . S
C105 H94 0.930 . S
C105 C104 1.405 . S
C105 C106 1.364 . S
C106 C105 1.364 . S
C106 C107 1.400 . S
C107 H95 0.931 . S
C107 C102 1.408 . S
C107 C106 1.400 . S
Mg108 O115 2.141 . S
Mg108 O116 2.048 . S
Mg108 O117 2.048 . S
Mg108 O120 2.141 . S
C109 O110 1.313 . S
C109 O116 1.195 . S
O110 C109 1.313 . S
C111 O112 1.245 . S
C111 O120 1.289 . S
O112 C111 1.245 . S
C113 O114 1.245 . S
C113 O115 1.289 . S
O114 C113 1.245 . S
O115 Mg108 2.141 . S
O115 C113 1.289 . S
O116 Mg108 2.048 . S
O116 C109 1.195 . S
O117 Mg108 2.048 . S
O117 C118 1.195 . S
C118 O117 1.195 . S
C118 O119 1.313 . S
O119 C118 1.313 . S
O120 Mg108 2.141 . S
O120 C111 1.289 . S
Mg121 O128 2.141 . S
Mg121 O129 2.048 . S
Mg121 O130 2.048 . S
Mg121 O133 2.141 . S
C122 O123 1.313 . S
C122 O129 1.195 . S
O123 C122 1.313 . S
C124 O125 1.245 . S
C124 O133 1.289 . S
O125 C124 1.245 . S
C126 O127 1.245 . S
C126 O128 1.289 . S
O127 C126 1.245 . S
O128 Mg121 2.141 . S
O128 C126 1.289 . S
O129 Mg121 2.048 . S
O129 C122 1.195 . S
O130 Mg121 2.048 . S
O130 C131 1.195 . S
C131 O130 1.195 . S
C131 O132 1.313 . S
O132 C131 1.313 . S
O133 Mg121 2.141 . S
O133 C124 1.289 . S
Mg134 O141 2.141 . S
Mg134 O142 2.048 . S
Mg134 O143 2.048 . S
Mg134 O146 2.141 . S
C135 O136 1.313 . S
C135 O142 1.195 . S
O136 C135 1.313 . S
C137 O138 1.245 . S
C137 O146 1.289 . S
O138 C137 1.245 . S
C139 O140 1.245 . S
C139 O141 1.289 . S
O140 C139 1.245 . S
O141 Mg134 2.141 . S
O141 C139 1.289 . S
O142 Mg134 2.048 . S
O142 C135 1.195 . S
O143 Mg134 2.048 . S
O143 C144 1.195 . S
C144 O143 1.195 . S
C144 O145 1.313 . S
O145 C144 1.313 . S
O146 Mg134 2.141 . S
O146 C137 1.289 . S
Mg147 O154 2.141 . S
Mg147 O155 2.048 . S
Mg147 O156 2.048 . S
Mg147 O159 2.141 . S
C148 O149 1.313 . S
C148 O155 1.195 . S
O149 C148 1.313 . S
C150 O151 1.245 . S
C150 O159 1.289 . S
O151 C150 1.245 . S
C152 O153 1.245 . S
C152 O154 1.289 . S
O153 C152 1.245 . S
O154 Mg147 2.141 . S
O154 C152 1.289 . S
O155 Mg147 2.048 . S
O155 C148 1.195 . S
O156 Mg147 2.048 . S
O156 C157 1.195 . S
C157 O156 1.195 . S
C157 O158 1.313 . S
O158 C157 1.313 . S
O159 Mg147 2.141 . S
O159 C150 1.289 . S
Mg160 O167 2.141 . S
Mg160 O168 2.048 . S
Mg160 O169 2.048 . S
Mg160 O172 2.141 . S
C161 O162 1.313 . S
C161 O168 1.195 . S
O162 C161 1.313 . S
C163 O164 1.245 . S
C163 O172 1.289 . S
O164 C163 1.245 . S
C165 O166 1.245 . S
C165 O167 1.289 . S
O166 C165 1.245 . S
O167 Mg160 2.141 . S
O167 C165 1.289 . S
O168 Mg160 2.048 . S
O168 C161 1.195 . S
O169 Mg160 2.048 . S
O169 C170 1.195 . S
C170 O169 1.195 . S
C170 O171 1.313 . S
O171 C170 1.313 . S
O172 Mg160 2.141 . S
O172 C163 1.289 . S
Mg173 O180 2.141 . S
Mg173 O181 2.048 . S
Mg173 O182 2.048 . S
Mg173 O185 2.141 . S
C174 O175 1.313 . S
C174 O181 1.195 . S
O175 C174 1.313 . S
C176 O177 1.245 . S
C176 O185 1.289 . S
O177 C176 1.245 . S
C178 O179 1.245 . S
C178 O180 1.289 . S
O179 C178 1.245 . S
O180 Mg173 2.141 . S
O180 C178 1.289 . S
O181 Mg173 2.048 . S
O181 C174 1.195 . S
O182 Mg173 2.048 . S
O182 C183 1.195 . S
C183 O182 1.195 . S
C183 O184 1.313 . S
O184 C183 1.313 . S
O185 Mg173 2.141 . S
O185 C176 1.289 . S
C186 C187 1.170 . S
C186 C188 1.380 . S
C187 C186 1.170 . S
C188 C186 1.380 . S
C188 C189 1.170 . S
C189 C188 1.170 . S
C190 C191 1.170 . S
C190 C192 1.380 . S
C191 C190 1.170 . S
C192 C190 1.380 . S
C192 C193 1.170 . S
C193 C192 1.170 . S
C194 C195 1.170 . S
C194 C196 1.380 . S
C195 C194 1.170 . S
C196 C194 1.380 . S
C196 C197 1.170 . S
C197 C196 1.170 . S
C198 C199 1.170 . S
C198 C200 1.380 . S
C199 C198 1.170 . S
C200 C198 1.380 . S
C200 C201 1.170 . S
C201 C200 1.170 . S
C202 C203 1.170 . S
C202 C204 1.380 . S
C203 C202 1.170 . S
C204 C202 1.380 . S
C204 C205 1.170 . S
C205 C204 1.170 . S
C206 C207 1.170 . S
C206 C208 1.380 . S
C207 C206 1.170 . S
C208 C206 1.380 . S
C208 C209 1.170 . S
C209 C208 1.170 . S
C210 C211 1.170 . S
C210 C212 1.380 . S
C211 C210 1.170 . S
C212 C210 1.380 . S
C212 C213 1.170 . S
C213 C212 1.170 . S
C214 C215 1.170 . S
C214 C216 1.380 . S
C215 C214 1.170 . S
C216 C214 1.380 . S
C216 C217 1.170 . S
C217 C216 1.170 . S
C218 C219 1.170 . S
C218 C220 1.380 . S
C219 C218 1.170 . S
C220 C218 1.380 . S
C220 C221 1.170 . S
C221 C220 1.170 . S
C222 C223 1.170 . S
C222 C224 1.380 . S
C223 C222 1.170 . S
C224 C222 1.380 . S
C224 C225 1.170 . S
C225 C224 1.170 . S
C226 C227 1.170 . S
C226 C228 1.380 . S
C227 C226 1.170 . S
C228 C226 1.380 . S
C228 C229 1.170 . S
C229 C228 1.170 . S
C230 C231 1.170 . S
C230 C232 1.380 . S
C231 C230 1.170 . S
C232 C230 1.380 . S
C232 C233 1.170 . S
C233 C232 1.170 . S
C234 C235 1.170 . S
C234 C236 1.380 . S
C235 C234 1.170 . S
C236 C234 1.380 . S
C236 C237 1.170 . S
C237 C236 1.170 . S
C238 C239 1.170 . S
C238 C240 1.380 . S
C239 C238 1.170 . S
C240 C238 1.380 . S
C240 C241 1.170 . S
C241 C240 1.170 . S
C242 C243 1.170 . S
C242 C244 1.380 . S
C243 C242 1.170 . S
C244 C242 1.380 . S
C244 C245 1.170 . S
C245 C244 1.170 . S
C246 C247 1.170 . S
C246 C248 1.380 . S
C247 C246 1.170 . S
C248 C246 1.380 . S
C248 C249 1.170 . S
C249 C248 1.170 . S
C250 C251 1.170 . S
C250 C252 1.380 . S
C251 C250 1.170 . S
C252 C250 1.380 . S
C252 C253 1.170 . S
C253 C252 1.170 . S
C254 C255 1.170 . S
C254 C256 1.380 . S
C255 C254 1.170 . S
C256 C254 1.380 . S
C256 C257 1.170 . S
C257 C256 1.170 . S
C258 C259 1.170 . S
C258 C260 1.380 . S
C259 C258 1.170 . S
C260 C258 1.380 . S
C260 C261 1.170 . S
C261 C260 1.170 . S
C262 C263 1.170 . S
C262 C264 1.380 . S
C263 C262 1.170 . S
C264 C262 1.380 . S
C264 C265 1.170 . S
C265 C264 1.170 . S
C266 C267 1.170 . S
C266 C268 1.380 . S
C267 C266 1.170 . S
C268 C266 1.380 . S
C268 C269 1.170 . S
C269 C268 1.170 . S
C270 C271 1.170 . S
C270 C272 1.380 . S
C271 C270 1.170 . S
C272 C270 1.380 . S
C272 C273 1.170 . S
C273 C272 1.170 . S
C274 C275 1.170 . S
C274 C276 1.380 . S
C275 C274 1.170 . S
C276 C274 1.380 . S
C276 C277 1.170 . S
C277 C276 1.170 . S
C278 C279 1.170 . S
C278 C280 1.380 . S
C279 C278 1.170 . S
C280 C278 1.380 . S
C280 C281 1.170 . S
C281 C280 1.170 . S
C187 C14 1.517 . S
C189 C109 1.553 . S
C191 C25 1.502 . S
C193 C122 1.552 . S
C197 C144 1.517 . S
C195 C43 1.510 . S
C201 C157 1.523 . S
C199 C62 1.525 . S
C205 C170 1.511 . S
C203 C80 1.509 . S
C209 C183 1.501 . S
C207 C97 1.497 . S
C211 C32 1.496 . S
C213 C139 1.489 . S
C215 C50 1.522 . S
C217 C152 1.520 . S
C221 C165 1.518 . S
C219 C70 1.519 . S
C225 C178 1.502 . S
C223 C88 1.493 . S
C227 C104 1.496 . S
C229 C111 1.551 . S
C233 C124 1.554 . S
C231 C7 1.519 . S
C237 C150 1.501 . S
C235 C8 1.495 . S
C239 C34 1.496 . S
C241 C163 1.483 . S
C245 C176 1.486 . S
C243 C52 1.491 . S
C247 C68 1.503 . S
C249 C113 1.553 . S
C251 C86 1.530 . S
C253 C126 1.551 . S
C255 C106 1.492 . S
C257 C137 1.509 . S
C259 C26 1.537 . S
C261 C174 1.516 . S
C265 C118 1.556 . S
C263 C44 1.536 . S
C267 C61 1.520 . S
C269 C131 1.557 . S
C271 C79 1.518 . S
C273 C135 1.506 . S
C275 C98 1.530 . S
C277 C148 1.504 . S
C279 C16 1.527 . S
C281 C161 1.523 . S
