# Generated by pormake.
# Topology pyr, (3,6)-cn, num edge types: 1
# Building blocks:
#     Node 0, Type 0, BuildingBlock: PAMTOO_clean_linker_0, # of connection points: 3
#     Node 1, Type 0, BuildingBlock: PAMTOO_clean_linker_0, # of connection points: 3
#     Node 2, Type 0, BuildingBlock: PAMTOO_clean_linker_0, # of connection points: 3
#     Node 3, Type 0, BuildingBlock: PAMTOO_clean_linker_0, # of connection points: 3
#     Node 4, Type 0, BuildingBlock: PAMTOO_clean_linker_0, # of connection points: 3
#     Node 5, Type 0, BuildingBlock: PAMTOO_clean_linker_0, # of connection points: 3
#     Node 6, Type 0, BuildingBlock: PAMTOO_clean_linker_0, # of connection points: 3
#     Node 7, Type 0, BuildingBlock: PAMTOO_clean_linker_0, # of connection points: 3
#     Node 8, Type 1, BuildingBlock: FUNLAD_clean_sbu_0, # of connection points: 6
#     Node 9, Type 1, BuildingBlock: FUNLAD_clean_sbu_0, # of connection points: 6
#     Node 10, Type 1, BuildingBlock: FUNLAD_clean_sbu_0, # of connection points: 6
#     Node 11, Type 1, BuildingBlock: FUNLAD_clean_sbu_0, # of connection points: 6
#     Edge 12, Type (0, 1), BuildingBlock: EZIPEK_clean_linker_0, # of connection points: 2
#     Edge 13, Type (0, 1), BuildingBlock: EZIPEK_clean_linker_0, # of connection points: 2
#     Edge 14, Type (0, 1), BuildingBlock: EZIPEK_clean_linker_0, # of connection points: 2
#     Edge 15, Type (0, 1), BuildingBlock: EZIPEK_clean_linker_0, # of connection points: 2
#     Edge 16, Type (0, 1), BuildingBlock: EZIPEK_clean_linker_0, # of connection points: 2
#     Edge 17, Type (0, 1), BuildingBlock: EZIPEK_clean_linker_0, # of connection points: 2
#     Edge 18, Type (0, 1), BuildingBlock: EZIPEK_clean_linker_0, # of connection points: 2
#     Edge 19, Type (0, 1), BuildingBlock: EZIPEK_clean_linker_0, # of connection points: 2
#     Edge 20, Type (0, 1), BuildingBlock: EZIPEK_clean_linker_0, # of connection points: 2
#     Edge 21, Type (0, 1), BuildingBlock: EZIPEK_clean_linker_0, # of connection points: 2
#     Edge 22, Type (0, 1), BuildingBlock: EZIPEK_clean_linker_0, # of connection points: 2
#     Edge 23, Type (0, 1), BuildingBlock: EZIPEK_clean_linker_0, # of connection points: 2
#     Edge 24, Type (0, 1), BuildingBlock: EZIPEK_clean_linker_0, # of connection points: 2
#     Edge 25, Type (0, 1), BuildingBlock: EZIPEK_clean_linker_0, # of connection points: 2
#     Edge 26, Type (0, 1), BuildingBlock: EZIPEK_clean_linker_0, # of connection points: 2
#     Edge 27, Type (0, 1), BuildingBlock: EZIPEK_clean_linker_0, # of connection points: 2
#     Edge 28, Type (0, 1), BuildingBlock: EZIPEK_clean_linker_0, # of connection points: 2
#     Edge 29, Type (0, 1), BuildingBlock: EZIPEK_clean_linker_0, # of connection points: 2
#     Edge 30, Type (0, 1), BuildingBlock: EZIPEK_clean_linker_0, # of connection points: 2
#     Edge 31, Type (0, 1), BuildingBlock: EZIPEK_clean_linker_0, # of connection points: 2
#     Edge 32, Type (0, 1), BuildingBlock: EZIPEK_clean_linker_0, # of connection points: 2
#     Edge 33, Type (0, 1), BuildingBlock: EZIPEK_clean_linker_0, # of connection points: 2
#     Edge 34, Type (0, 1), BuildingBlock: EZIPEK_clean_linker_0, # of connection points: 2
#     Edge 35, Type (0, 1), BuildingBlock: EZIPEK_clean_linker_0, # of connection points: 2
# Relax obj value: 0.262
# Max RMSD: 0.227
# Mean RMSD: 0.141
data_MOF--net-pry--node1-FUNLAD_clean_sbu_0--node2-PAMTOO_clean_linker_0--edge1-EZIPEK_clean_linker_0
_symmetry_space_group_name_H-M    P1
_symmetry_Int_Tables_number       1
_symmetry_cell_setting            triclinic
loop_
_symmetry_equiv_pos_as_xyz
'x, y, z'
_cell_length_a     24.685641
_cell_length_b     27.708461
_cell_length_c     27.642679
_cell_angle_alpha  89.027451
_cell_angle_beta   91.559149
_cell_angle_gamma 85.176547
loop_
_atom_site_label
_atom_site_type_symbol
_atom_site_fract_x
_atom_site_fract_y
_atom_site_fract_z
_atom_type_partial_charge
H0 H 0.11128 0.2578 0.30811 0.0
H1 H 0.23408 0.13733 0.30309 0.0
H2 H 0.23328 0.25352 0.19876 0.0
H3 H 0.25088 0.14592 0.16643 0.0
C4 C 0.28393 0.13679 0.19396 0.0
O5 O 0.28392 0.17186 0.229 0.0
H6 H 0.27323 0.10211 0.21045 0.0
C7 C 0.14602 0.23938 0.29114 0.0
C8 C 0.16912 0.26141 0.25034 0.0
C9 C 0.1691 0.19389 0.31055 0.0
C10 C 0.21516 0.17139 0.28847 0.0
C11 C 0.23778 0.19267 0.24813 0.0
C12 C 0.21469 0.23717 0.22938 0.0
H13 H 0.35995 1.00954 0.78343 0.0
H14 H 0.361 0.89088 0.68445 0.0
H15 H 0.48419 0.89026 0.79714 0.0
H16 H 0.52262 0.84252 0.70226 0.0
C17 C 0.48225 0.83229 0.68916 0.0
O18 O 0.4447 0.84073 0.72509 0.0
H19 H 0.4722 0.8569 0.65745 0.0
C20 C 0.37853 0.97541 0.77079 0.0
C21 C 0.42577 0.95322 0.79513 0.0
C22 C 0.35518 0.95333 0.73022 0.0
C23 C 0.37919 0.90866 0.7147 0.0
C24 C 0.42539 0.88583 0.73857 0.0
C25 C 0.44877 0.9083 0.77846 0.0
H26 H 0.769 0.41864 1.03159 0.0
H27 H 0.63576 0.47549 0.93927 0.0
H28 H 0.74671 0.57166 0.99783 0.0
H29 H 0.604 0.62061 0.9761 0.0
C30 C 0.60369 0.58259 0.96478 0.0
O31 O 0.65483 0.56682 0.94894 0.0
H32 H 0.59409 0.56273 0.9983 0.0
C33 C 0.74586 0.44927 1.01386 0.0
C34 C 0.76494 0.49561 1.01619 0.0
C35 C 0.6987 0.442 0.98642 0.0
C36 C 0.67059 0.48148 0.96198 0.0
C37 C 0.68551 0.52852 0.96896 0.0
C38 C 0.73325 0.53553 0.99532 0.0
H39 H 0.87105 0.68863 0.53945 0.0
H40 H 0.90902 0.53469 0.55788 0.0
H41 H 0.03704 0.62728 0.53456 0.0
H42 H 0.9962 0.47951 0.50515 0.0
C43 C 0.02405 0.50877 0.50606 0.0
O44 O 1.01373 0.53757 0.5458 0.0
H45 H 0.06437 0.48826 0.51194 0.0
C46 C 0.9006 0.65737 0.54127 0.0
C47 C 0.9562 0.66343 0.5366 0.0
C48 C 0.88336 0.61084 0.54876 0.0
C49 C 0.92192 0.57069 0.55187 0.0
C50 C 0.977 0.57656 0.54551 0.0
C51 C 0.99416 0.62288 0.53846 0.0
H52 H 0.87442 0.99588 0.85084 0.0
H53 H 0.9006 0.89864 0.97375 0.0
H54 H 1.00843 0.88479 0.85396 0.0
H55 H 0.9433 0.79036 0.91794 0.0
C56 C 0.96094 0.80477 0.95154 0.0
O57 O 0.98513 0.84725 0.94042 0.0
H58 H 0.92503 0.81366 0.97414 0.0
C59 C 0.89783 0.96566 0.86894 0.0
C60 C 0.94449 0.94363 0.84684 0.0
C61 C 0.88145 0.94909 0.91448 0.0
C62 C 0.9126 0.91069 0.93843 0.0
C63 C 0.95729 0.886 0.9165 0.0
C64 C 0.97318 0.90276 0.87058 0.0
H65 H 0.78163 0.10732 0.34678 0.0
H66 H 0.63761 0.20777 0.33455 0.0
H67 H 0.74733 0.21283 0.45678 0.0
H68 H 0.61529 0.23251 0.46186 0.0
C69 C 0.6182 0.26444 0.43772 0.0
O70 O 0.6646 0.25855 0.41042 0.0
H71 H 0.58193 0.26431 0.41305 0.0
C72 C 0.75489 0.13636 0.36102 0.0
C73 C 0.76856 0.15631 0.40618 0.0
C74 C 0.7067 0.1535 0.33455 0.0
C75 C 0.6741 0.19292 0.35398 0.0
C76 C 0.68961 0.21521 0.39717 0.0
C77 C 0.73571 0.19576 0.42351 0.0
H78 H 0.41207 0.67878 0.12218 0.0
H79 H 0.44752 0.52398 0.13086 0.0
H80 H 0.57791 0.61644 0.13314 0.0
H81 H 0.60998 0.48615 0.17712 0.0
C82 C 0.5665 0.49983 0.17816 0.0
O83 O 0.55281 0.5264 0.13594 0.0
H84 H 0.54605 0.46583 0.1777 0.0
C85 C 0.44101 0.64713 0.12521 0.0
C86 C 0.49706 0.65291 0.12697 0.0
C87 C 0.42238 0.60064 0.12873 0.0
C88 C 0.46083 0.56018 0.13039 0.0
C89 C 0.51655 0.56581 0.13251 0.0
C90 C 0.53467 0.61217 0.13138 0.0
H91 H 0.14526 0.43939 0.7183 0.0
H92 H 0.1677 0.58649 0.67901 0.0
H93 H 0.16186 0.47883 0.56879 0.0
H94 H 0.21799 0.62891 0.58194 0.0
C95 C 0.21826 0.59109 0.56953 0.0
O96 O 0.17195 0.57118 0.58532 0.0
H97 H 0.21445 0.59622 0.52967 0.0
C98 C 0.15198 0.4664 0.69068 0.0
C99 C 0.15285 0.45358 0.64217 0.0
C100 C 0.15871 0.51376 0.70406 0.0
C101 C 0.16569 0.54922 0.66865 0.0
C102 C 0.16892 0.53642 0.61986 0.0
C103 C 0.16219 0.48847 0.60656 0.0
C104 C 0.1028 0.08826 0.48424 0.0
N105 N 0.07512 0.16105 0.61238 0.0
C106 C 0.12476 0.17437 0.59975 0.0
C107 C 0.13749 0.22187 0.60435 0.0
C108 C 0.09982 0.25589 0.62414 0.0
C109 C 0.04992 0.24099 0.63967 0.0
C110 C 0.03791 0.19301 0.63268 0.0
Zn111 Zn 0.06031 0.09379 0.58961 0.0
C112 C 0.95816 0.09211 0.53004 0.0
N113 N 0.04362 0.95391 0.53293 0.0
C114 C 0.08384 0.92133 0.51798 0.0
C115 C 0.99252 0.94061 0.54014 0.0
C116 C 0.98068 0.89283 0.53431 0.0
C117 C 0.02183 0.85815 0.52132 0.0
C118 C 0.0737 0.8727 0.51189 0.0
Zn119 Zn 0.05721 1.02179 0.55645 0.0
O120 O 0.09448 0.11415 0.52121 0.0
C121 C 0.16016 1.02359 0.61556 0.0
O122 O 0.09336 0.04358 0.48735 0.0
H123 H 0.96139 0.96647 0.55326 0.0
H124 H 0.15403 0.14857 0.58392 0.0
H125 H 0.12434 0.93244 0.51318 0.0
O126 O 0.13888 0.06651 0.62089 0.0
O127 O 0.13577 0.99531 0.58816 0.0
H128 H 0.99856 0.18172 0.64202 0.0
O129 O 0.02129 1.00178 0.62589 0.0
O130 O 0.02462 0.07323 0.65793 0.0
O131 O 0.97955 0.04923 0.52479 0.0
O132 O 0.98178 0.12029 0.55817 0.0
C133 C 1.01359 1.02912 0.66223 0.0
H134 H 0.17633 0.23212 0.5921 0.0
H135 H 1.02006 0.26658 0.65533 0.0
H136 H 0.94047 0.8825 0.54236 0.0
H137 H 0.10642 0.8464 0.5023 0.0
C138 C 0.68506 1.01985 1.01463 0.0
N139 N 0.598 0.15702 1.01608 0.0
C140 C 0.61445 0.16704 0.97064 0.0
C141 C 0.62653 0.21407 0.95804 0.0
C142 C 0.62338 0.25014 0.99324 0.0
C143 C 0.60433 0.23904 1.03899 0.0
C144 C 0.59085 0.19241 0.04928 0.0
Zn145 Zn 0.58925 0.08811 1.04029 0.0
C146 C 0.53188 1.02828 0.9685 0.0
N147 N 0.57234 0.94576 0.09516 0.0
C148 C 0.61516 0.91496 0.11132 0.0
C149 C 0.5216 0.93043 0.08949 0.0
C150 C 0.51253 0.88236 0.09917 0.0
C151 C 0.5562 0.84959 0.11407 0.0
C152 C 0.60798 0.86614 0.12079 0.0
Zn153 Zn 0.58223 1.01472 0.07163 0.0
O154 O 0.66518 0.06349 1.00882 0.0
C155 C 0.63629 0.07519 0.14568 0.0
O156 O 0.65997 0.99098 0.04063 0.0
H157 H 0.4883 0.95506 0.07564 0.0
H158 H 0.61965 0.13838 0.94467 0.0
H159 H 0.65517 0.92784 0.11527 0.0
O160 O 0.63121 0.1038 0.1088 0.0
O161 O 0.62065 0.03272 0.14079 0.0
H162 H 0.57616 0.1842 0.08443 0.0
O163 O 0.50601 0.03942 0.10135 0.0
O164 O 0.51323 0.11243 0.07189 0.0
O165 O 0.54188 0.99811 1.00353 0.0
O166 O 0.54655 0.0711 0.97308 0.0
C167 C 0.48713 0.08337 0.09648 0.0
H168 H 0.64043 0.22173 0.92211 0.0
H169 H 0.60074 0.26609 0.06684 0.0
H170 H 0.47226 0.87038 0.09323 0.0
H171 H 0.64249 0.84137 0.132 0.0
C172 C 0.57752 0.45069 0.53896 0.0
N173 N 0.57341 0.50667 0.68259 0.0
C174 C 0.53277 0.48655 0.70632 0.0
C175 C 0.52604 0.49414 0.75573 0.0
C176 C 0.56365 0.51973 0.78141 0.0
C177 C 0.6095 0.53358 0.75766 0.0
C178 C 0.61314 0.5275 0.70793 0.0
Zn179 Zn 0.56118 0.52686 0.61017 0.0
C180 C 0.6595 0.56459 0.56541 0.0
N181 N 0.52661 0.58199 0.46768 0.0
C182 C 0.49969 0.54894 0.44291 0.0
C183 C 0.55063 0.6177 0.44406 0.0
C184 C 0.5516 0.61847 0.3933 0.0
C185 C 0.5306 0.58043 0.36763 0.0
C186 C 0.50245 0.54668 0.39303 0.0
Zn187 Zn 0.54205 0.5625 0.53859 0.0
O188 O 0.5857 0.45547 0.58429 0.0
C189 C 0.44295 0.52955 0.58248 0.0
O190 O 0.55787 0.48784 0.5147 0.0
H191 H 0.57198 0.64356 0.46446 0.0
H192 H 0.50233 0.46844 0.68666 0.0
H193 H 0.48006 0.52124 0.46206 0.0
O194 O 0.47785 0.51054 0.61316 0.0
O195 O 0.45896 0.55311 0.5467 0.0
H196 H 0.6451 0.54389 0.6896 0.0
O197 O 0.52675 0.63506 0.56436 0.0
O198 O 0.53655 0.59892 0.63554 0.0
O199 O 0.62519 0.57463 0.53088 0.0
O200 O 0.64396 0.54459 0.60382 0.0
C201 C 0.52604 0.63769 0.61041 0.0
H202 H 0.49018 0.48279 0.77293 0.0
H203 H 0.6395 0.55325 0.77655 0.0
H204 H 0.57228 0.64597 0.37467 0.0
H205 H 0.48494 0.51715 0.37472 0.0
C206 C 0.05861 0.63736 0.06838 0.0
N207 N 0.05016 0.57704 0.21239 0.0
C208 C 0.06505 0.61622 0.23702 0.0
C209 C 0.05566 0.61967 0.28674 0.0
C210 C 0.03285 0.58144 0.3108 0.0
C211 C 1.01484 0.54344 0.2837 0.0
C212 C 0.0233 0.54224 0.23442 0.0
Zn213 Zn 0.07557 0.55871 0.14512 0.0
C214 C 0.98399 0.52229 0.08565 0.0
N215 N 0.12658 0.51238 1.00766 0.0
C216 C 0.16073 0.54335 0.98844 0.0
C217 C 0.10391 0.47882 0.97999 0.0
C218 C 0.11314 0.47747 0.93031 0.0
C219 C 0.14587 0.51097 0.90978 0.0
C220 C 0.17105 0.54314 0.93941 0.0
Zn221 Zn 0.10044 0.52961 0.07487 0.0
O222 O 0.04937 0.63133 0.11331 0.0
C223 C 0.19304 0.56602 0.13189 0.0
O224 O 0.08284 0.60214 0.04666 0.0
H225 H 0.07624 0.45515 0.99579 0.0
H226 H 0.08653 0.64337 0.21877 0.0
H227 H 0.17712 0.57091 1.01025 0.0
O228 O 0.157 0.57881 0.16232 0.0
O229 O 0.17848 0.54486 0.09415 0.0
H230 H 1.01151 0.51144 0.21445 0.0
O231 O 0.11764 0.4549 0.10433 0.0
O232 O 0.10017 0.48655 0.1748 0.0
O233 O 0.02106 0.51594 0.05497 0.0
O234 O 0.99617 0.53733 0.12737 0.0
C235 C 0.11448 0.44949 0.1502 0.0
H236 H 0.06912 0.64999 0.30669 0.0
H237 H 0.9965 0.51364 0.30094 0.0
H238 H 0.09305 0.45233 0.90784 0.0
H239 H 0.19613 0.56958 0.92428 0.0
C240 C 0.17699 0.1724 0.40049 0.0
C241 C 0.1484 0.16953 0.35541 0.0
C242 C 0.08897 0.11297 0.39423 0.0
C243 C 0.12093 0.11234 0.43812 0.0
N244 N 0.20157 0.1357 0.47934 0.0
N245 N 0.0814 0.13177 0.30774 0.0
C246 C 0.16653 0.1407 0.44013 0.0
C247 C 0.10557 0.13827 0.35191 0.0
N248 N 0.21378 0.20629 0.40575 0.0
N249 N 0.04111 0.09152 0.3934 0.0
H250 H 0.09091 0.15083 0.27665 0.0
H251 H 0.0547 0.10529 0.30126 0.0
H252 H 0.02723 0.07298 0.4231 0.0
H253 H 1.01281 0.09562 0.36469 0.0
H254 H 0.23178 0.21417 0.43887 0.0
H255 H 0.22256 0.22982 0.37771 0.0
H256 H 0.23848 0.15127 0.48133 0.0
H257 H 0.19641 0.11177 0.50797 0.0
C258 C 0.4999 0.99915 0.8348 0.0
C259 C 0.45087 0.97599 0.83894 0.0
C260 C 0.45077 0.99472 0.92617 0.0
C261 C 0.50282 1.01301 0.92309 0.0
N262 N 0.5802 1.02689 0.87491 0.0
N263 N 0.38299 0.94642 0.89012 0.0
C264 C 0.52808 1.01402 0.8774 0.0
C265 C 0.42716 0.9725 0.88508 0.0
N266 N 0.51907 1.00789 0.78984 0.0
N267 N 0.4228 1.00021 0.96801 0.0
H268 H 0.3641 0.93033 0.86106 0.0
H269 H 0.36762 0.93751 0.92351 0.0
H270 H 0.43805 1.01704 0.99835 0.0
H271 H 0.38251 0.99241 0.97121 0.0
H272 H 0.5511 1.02916 0.78367 0.0
H273 H 0.49987 0.99731 0.75812 0.0
H274 H 0.60335 1.02283 0.8441 0.0
H275 H 0.60217 0.03804 0.90485 0.0
C276 C 0.56001 0.60812 0.88314 0.0
C277 C 0.56305 0.57575 0.92359 0.0
C278 C 0.548 0.50803 0.87118 0.0
C279 C 0.55216 0.53898 0.83031 0.0
N280 N 0.53642 0.62041 0.79777 0.0
N281 N 0.52849 0.50404 0.95662 0.0
C282 C 0.54938 0.58989 0.83647 0.0
C283 C 0.54545 0.5289 0.91767 0.0
N284 N 0.56963 0.65548 0.88893 0.0
N285 N 0.55075 0.45893 0.86648 0.0
H286 H 0.52458 0.51983 0.9905 0.0
H287 H 0.51244 0.47056 0.95375 0.0
H288 H 0.55481 0.44199 0.83326 0.0
H289 H 0.55344 0.43499 0.89611 0.0
H290 H 0.57587 0.6789 0.86011 0.0
H291 H 0.5715 0.6713 0.92277 0.0
H292 H 0.5293 0.65779 0.80081 0.0
H293 H 0.52702 0.60771 0.76346 0.0
C294 C 0.07226 0.55682 0.44348 0.0
C295 C 0.02361 0.5379 0.45853 0.0
C296 C 0.97822 0.57136 0.38394 0.0
C297 C 0.02949 0.57787 0.36432 0.0
N298 N 0.12758 0.57197 0.37524 0.0
N299 N 0.92862 0.52662 0.44074 0.0
C300 C 0.07722 0.57021 0.39419 0.0
C301 C 0.97577 0.54559 0.42848 0.0
N302 N 0.11382 0.56187 0.47602 0.0
N303 N 0.93191 0.58948 0.3595 0.0
H304 H 0.92267 0.50982 0.47384 0.0
H305 H 0.89581 0.52525 0.4164 0.0
H306 H 0.93303 0.6091 0.327 0.0
H307 H 0.89333 0.58944 0.3739 0.0
H308 H 0.14803 0.5795 0.46737 0.0
H309 H 0.11109 0.55363 0.51271 0.0
H310 H 0.16336 0.56101 0.39475 0.0
H311 H 0.13392 0.5803 0.3391 0.0
C312 C 0.34771 0.14706 0.12351 0.0
C313 C 0.33984 0.12933 0.17116 0.0
C314 C 0.43419 0.09226 0.17303 0.0
C315 C 0.43718 0.10112 0.12238 0.0
N316 N 0.39309 0.13251 0.04796 0.0
N317 N 0.37738 0.08567 0.24255 0.0
C318 C 0.39307 0.12761 0.09723 0.0
C319 C 0.38374 0.10225 0.19637 0.0
N320 N 0.31319 0.18377 0.10388 0.0
N321 N 0.48023 0.07672 0.19941 0.0
H322 H 0.34335 0.09555 0.2628 0.0
H323 H 0.40497 0.06024 0.26009 0.0
H324 H 0.51837 0.07112 0.18418 0.0
H325 H 0.48189 0.07441 0.23707 0.0
H326 H 0.31977 0.20054 0.07077 0.0
H327 H 0.2823 0.20178 0.12334 0.0
H328 H 0.35937 0.14718 1.02755 0.0
H329 H 0.42462 0.11767 1.02706 0.0
C330 C 0.25426 0.95337 0.71063 0.0
C331 C 0.30403 0.97485 0.70421 0.0
C332 C 0.26042 1.02628 0.63772 0.0
C333 C 0.21026 1.00577 0.64504 0.0
N334 N 0.15703 0.95522 0.69339 0.0
N335 N 0.35325 0.03569 0.66587 0.0
C336 C 0.20664 0.97063 0.68275 0.0
C337 C 0.30656 1.01269 0.66912 0.0
N338 N 0.25276 0.91577 0.74313 0.0
N339 N 0.26453 0.05718 0.59917 0.0
H340 H 0.38833 1.02544 0.68666 0.0
H341 H 0.35647 0.06691 0.64508 0.0
H342 H 0.23185 0.06745 0.57554 0.0
H343 H 0.3008 0.06987 0.58819 0.0
H344 H 0.22062 0.89388 0.74513 0.0
H345 H 0.2851 0.90477 0.76698 0.0
H346 H 0.14995 0.93449 0.72395 0.0
H347 H 0.12145 0.96611 0.6736 0.0
C348 C 0.86595 0.47558 1.01594 0.0
C349 C 0.82039 0.50142 1.0364 0.0
C350 C 0.88207 0.54473 0.08717 0.0
C351 C 0.92701 0.51354 0.07177 0.0
N352 N 0.95665 0.43906 1.0318 0.0
N353 N 0.78514 0.55255 0.10009 0.0
C354 C 0.91743 0.4757 1.03942 0.0
C355 C 0.8284 0.53337 0.07492 0.0
N356 N 0.86101 0.45314 0.97264 0.0
N357 N 0.88992 0.58695 0.11019 0.0
H358 H 0.74536 0.54416 0.09273 0.0
H359 H 0.78968 0.57268 0.13126 0.0
H360 H 0.92794 0.59982 0.11586 0.0
H361 H 0.85795 0.61233 0.11813 0.0
H362 H 0.89437 0.43718 0.95471 0.0
H363 H 0.82503 0.45602 0.95182 0.0
H364 H 0.94931 0.40894 1.01125 0.0
H365 H 0.99396 0.43567 0.05056 0.0
C366 C 0.79827 0.61005 0.59672 0.0
C367 C 0.82476 0.60327 0.55228 0.0
C368 C 0.7455 0.56702 0.51823 0.0
C369 C 0.71676 0.57756 0.56119 0.0
N370 N 0.71219 0.62122 0.63614 0.0
N371 N 0.81847 0.58764 0.46702 0.0
C372 C 0.74219 0.60236 0.59917 0.0
C373 C 0.79671 0.58564 0.51182 0.0
N374 N 0.82672 0.62322 0.63678 0.0
N375 N 0.72556 0.53703 0.48467 0.0
H376 H 0.85519 0.60256 0.46101 0.0
H377 H 0.79748 0.57935 0.43543 0.0
H378 H 0.69008 0.51997 0.48952 0.0
H379 H 0.74737 0.52471 0.4549 0.0
H380 H 0.81099 0.62335 0.67138 0.0
H381 H 0.86747 0.63056 0.63602 0.0
H382 H 0.72741 0.64354 0.66228 0.0
H383 H 0.67044 0.61926 0.63737 0.0
C384 C 0.17676 0.35199 0.24188 0.0
C385 C 0.149 0.31084 0.22924 0.0
C386 C 0.09548 0.36133 0.16699 0.0
C387 C 0.1274 0.40093 0.17604 0.0
N388 N 0.20359 0.4314 0.2185 0.0
N389 N 0.08552 0.27498 0.17611 0.0
C390 C 0.16921 0.39558 0.21281 0.0
C391 C 0.10926 0.31526 0.1908 0.0
N392 N 0.21015 0.34948 0.28226 0.0
N393 N 0.05033 0.36831 0.13723 0.0
H394 H 0.09268 0.24145 0.19392 0.0
H395 H 0.0614 0.27406 0.1447 0.0
H396 H 0.03859 0.40143 0.12004 0.0
H397 H 0.02196 0.34283 0.13296 0.0
H398 H 0.22734 0.37931 0.29672 0.0
H399 H 0.21676 0.31826 0.30399 0.0
H400 H 0.23847 0.42788 0.24073 0.0
H401 H 0.20013 0.46329 0.19765 0.0
C402 C 0.71146 0.35357 0.96593 0.0
C403 C 0.67805 0.39317 0.98363 0.0
C404 C 0.60433 0.34034 0.99234 0.0
C405 C 0.64106 0.29938 0.98395 0.0
N406 N 0.73394 0.26721 0.97166 0.0
N407 N 0.59538 0.42136 1.02336 0.0
C408 C 0.69587 0.3059 0.97285 0.0
C409 C 0.62498 0.38593 0.99929 0.0
N410 N 0.75727 0.36141 0.94144 0.0
N411 N 0.54972 0.33575 0.99339 0.0
H412 H 0.61007 0.45444 1.03194 0.0
H413 H 0.55853 0.41584 1.03924 0.0
H414 H 0.5331 0.30296 0.98697 0.0
H415 H 0.52099 0.36542 0.99533 0.0
H416 H 0.78052 0.33386 0.92441 0.0
H417 H 0.76817 0.39609 0.93335 0.0
H418 H 0.77533 0.2711 0.96845 0.0
H419 H 0.72532 0.23167 0.9788 0.0
C420 C 0.98964 0.73723 0.57428 0.0
C421 C 0.97544 0.7125 0.53188 0.0
C422 C 0.99542 0.78217 0.4814 0.0
C423 C 1.01125 0.80622 0.52375 0.0
N424 N 0.03395 0.80388 0.60918 0.0
N425 N 0.97317 0.70683 0.44495 0.0
C426 C 1.01161 0.7828 0.56983 0.0
C427 C 0.98097 0.73358 0.4853 0.0
N428 N 0.98074 0.71766 0.61885 0.0
N429 N 0.99243 0.80642 0.4378 0.0
H430 H 0.96111 0.67164 0.44652 0.0
H431 H 0.9822 0.71803 0.41017 0.0
H432 H 1.00433 0.84146 0.43355 0.0
H433 H 0.97534 0.79309 0.40644 0.0
H434 H 0.98408 0.73632 0.65101 0.0
H435 H 0.96615 0.6837 0.62369 0.0
H436 H 0.04071 0.78657 0.64277 0.0
H437 H 0.05024 0.83739 0.60732 0.0
C438 C 0.45394 0.76307 0.63491 0.0
C439 C 0.48625 0.77892 0.67409 0.0
C440 C 0.54063 0.70018 0.67583 0.0
C441 C 0.51035 0.68499 0.63483 0.0
N442 N 0.42648 0.69566 0.58759 0.0
N443 N 0.54471 0.75516 0.74303 0.0
C444 C 0.46365 0.71474 0.61776 0.0
C445 C 0.52464 0.74506 0.69807 0.0
N446 N 0.41369 0.79408 0.61406 0.0
N447 N 0.5861 0.67299 0.69283 0.0
H448 H 0.53208 0.78652 0.7614 0.0
H449 H 0.56893 0.73023 0.7645 0.0
H450 H 0.59854 0.63896 0.68021 0.0
H451 H 0.61376 0.68559 0.71773 0.0
H452 H 0.39446 0.7877 0.58107 0.0
H453 H 0.40019 0.82695 0.6292 0.0
H454 H 0.389 0.71355 0.57752 0.0
H455 H 0.43019 0.65968 0.57681 0.0
C456 C 0.93516 0.95647 0.75483 0.0
C457 C 0.96324 0.96445 0.79927 0.0
C458 C 0.02618 1.01254 0.7538 0.0
C459 C 0.99512 1.0083 0.70994 0.0
N460 N 0.91427 0.9821 0.67127 0.0
N461 N 0.03049 1.00696 0.8418 0.0
C462 C 0.94815 0.98163 0.71123 0.0
C463 C 1.00733 0.99445 0.79884 0.0
N464 N 0.89667 0.9238 0.754 0.0
N465 N 0.07541 0.03164 0.75235 0.0
H466 H 1.01876 0.99397 0.87523 0.0
H467 H 0.05813 0.03325 0.84459 0.0
H468 H 0.09148 0.04452 0.72064 0.0
H469 H 0.10287 1.03041 0.78171 0.0
H470 H 0.87887 0.91199 0.72224 0.0
H471 H 0.88583 0.90525 0.78496 0.0
H472 H 0.87653 0.96792 0.67106 0.0
H473 H 0.92142 1.00086 0.63939 0.0
C474 C 0.67186 0.16283 0.24625 0.0
C475 C 0.69113 0.13201 0.28585 0.0
C476 C 0.6835 0.06278 0.23076 0.0
C477 C 0.6553 0.09351 0.19468 0.0
N478 N 0.60366 0.17105 0.1823 0.0
N479 N 0.69995 0.04934 0.317 0.0
C480 C 0.64421 0.14317 0.20629 0.0
C481 C 0.69277 0.0809 0.27849 0.0
N482 N 0.68071 0.21076 0.24561 0.0
N483 N 0.70308 1.01688 0.21978 0.0
H484 H 0.70192 0.06069 0.35269 0.0
H485 H 0.69703 1.01221 0.3137 0.0
H486 H 0.7006 1.00314 0.18503 0.0
H487 H 0.72746 0.99477 0.24398 0.0
H488 H 0.66956 0.23342 0.21581 0.0
H489 H 0.70495 0.22601 0.27175 0.0
H490 H 0.59282 0.2069 0.19141 0.0
H491 H 0.57539 0.15585 0.15982 0.0
C492 C 0.59793 0.55208 0.24712 0.0
C493 C 0.55548 0.52838 0.22435 0.0
C494 C 0.49426 0.56193 0.28565 0.0
C495 C 0.53938 0.57259 0.31504 0.0
N496 N 0.63782 0.56929 0.32469 0.0
N497 N 0.46243 0.5057 0.22853 0.0
C498 C 0.59241 0.5661 0.29598 0.0
C499 C 0.50312 0.53211 0.24513 0.0
N500 N 0.64345 0.56107 0.22268 0.0
N501 N 0.44295 0.57936 0.29716 0.0
H502 H 0.46651 0.48144 0.20036 0.0
H503 H 0.42564 0.50471 0.24604 0.0
H504 H 0.43568 0.6023 0.32629 0.0
H505 H 0.40901 0.57528 0.27477 0.0
H506 H 0.67344 0.58126 0.23742 0.0
H507 H 0.64796 0.55374 0.18606 0.0
H508 H 0.67692 0.56023 0.31251 0.0
H509 H 0.63681 0.57573 0.36162 0.0
C510 C 0.10854 0.53939 0.77777 0.0
C511 C 0.15832 0.5244 0.75607 0.0
C512 C 0.20002 0.50052 0.83494 0.0
C513 C 0.15039 0.51588 0.85684 0.0
N514 N 0.06228 0.56107 0.85145 0.0
N515 N 0.25455 0.50223 0.76329 0.0
C516 C 0.10605 0.53884 0.82896 0.0
C517 C 0.20523 0.50894 0.78463 0.0
N518 N 0.06319 0.55209 0.74939 0.0
N519 N 0.24118 0.47609 0.86185 0.0
H520 H 0.25925 0.50837 0.72632 0.0
H521 H 0.29123 0.49511 0.78259 0.0
H522 H 0.23862 0.46899 0.89886 0.0
H523 H 0.27616 0.45955 0.84698 0.0
H524 H 0.02423 0.55743 0.76293 0.0
H525 H 0.06413 0.55476 0.71173 0.0
H526 H 0.03145 0.58269 0.83321 0.0
H527 H 0.05892 0.56141 0.88898 0.0
C528 C 0.83176 1.00903 0.96973 0.0
C529 C 0.83012 0.96998 0.9372 0.0
C530 C 0.73248 0.96629 0.95256 0.0
C531 C 0.73534 1.00222 0.98853 0.0
N532 N 0.78924 0.05392 1.03556 0.0
N533 N 0.78055 0.90782 0.90111 0.0
C534 C 0.78538 1.0228 0.99799 0.0
C535 C 0.78085 0.94767 0.92959 0.0
N536 N 0.87764 0.03329 0.97321 0.0
N537 N 0.68303 0.95143 0.9387 0.0
H538 H 0.81416 0.89451 0.88181 0.0
H539 H 0.74822 0.88606 0.89896 0.0
H540 H 0.64671 0.96398 0.9544 0.0
H541 H 0.67715 0.92984 0.90887 0.0
H542 H 0.87995 0.06523 0.99215 0.0
H543 H 0.91247 1.02351 0.95388 0.0
H544 H 0.82565 0.06636 0.0479 0.0
H545 H 0.75653 0.06436 0.05726 0.0
C546 C 0.81631 0.09806 0.46837 0.0
C547 C 0.81852 0.13783 0.4355 0.0
C548 C 0.9128 0.14698 0.46371 0.0
C549 C 0.90902 0.1098 0.49939 0.0
N550 N 0.85492 0.05403 0.53985 0.0
N551 N 0.86663 0.20352 0.40494 0.0
C552 C 0.86018 0.08626 0.50261 0.0
C553 C 0.86617 0.16323 0.43415 0.0
N554 N 0.77225 0.0713 0.46658 0.0
N555 N 0.96177 0.16518 0.45622 0.0
H556 H 0.8349 0.21475 0.38054 0.0
H557 H 0.8969 0.22746 0.40681 0.0
H558 H 0.99686 0.15468 0.47683 0.0
H559 H 0.96904 0.1877 0.42701 0.0
H560 H 0.77035 0.03874 0.48554 0.0
H561 H 0.73879 0.07976 0.44321 0.0
H562 H 0.81878 0.0391 0.54761 0.0
H563 H 0.88572 0.04524 0.56584 0.0
C564 C 0.3289 0.61861 0.16488 0.0
C565 C 0.36302 0.59347 0.13111 0.0
C566 C 0.29009 0.54204 0.11372 0.0
C567 C 0.25215 0.57378 0.13821 0.0
N568 N 0.23688 0.6499 0.18036 0.0
N569 N 0.36728 0.54025 0.06251 0.0
C570 C 0.27172 0.61432 0.16215 0.0
C571 C 0.34093 0.55798 0.10207 0.0
N572 N 0.35069 0.64478 0.20083 0.0
N573 N 0.27884 0.49592 0.10306 0.0
H574 H 0.40277 0.55376 0.05028 0.0
H575 H 0.35008 0.51637 1.03894 0.0
H576 H 0.2447 0.48051 0.11584 0.0
H577 H 0.30724 0.47127 0.08749 0.0
H578 H 0.32742 0.66019 0.22842 0.0
H579 H 0.39244 0.64609 0.20649 0.0
H580 H 0.25028 0.68177 0.19412 0.0
H581 H 0.19478 0.65047 0.17724 0.0
C582 C 0.29371 0.52655 0.54965 0.0
C583 C 0.27221 0.56164 0.58251 0.0
C584 C 0.35915 0.55351 0.62875 0.0
C585 C 0.38355 0.52868 0.58934 0.0
N586 N 0.37435 0.48604 0.51501 0.0
N587 N 0.28342 0.60594 0.65636 0.0
C588 C 0.3506 0.51281 0.55101 0.0
C589 C 0.30419 0.57339 0.62366 0.0
N590 N 0.25983 0.50696 0.51688 0.0
N591 N 0.38847 0.55888 0.67069 0.0
H592 H 0.24293 0.61967 0.65598 0.0
H593 H 0.30695 0.62149 0.68271 0.0
H594 H 0.42899 0.54591 0.67581 0.0
H595 H 0.37123 0.57178 0.70243 0.0
H596 H 0.272 0.47829 0.49472 0.0
H597 H 0.21809 0.51647 0.5148 0.0
H598 H 0.35446 0.4786 0.48264 0.0
H599 H 0.41513 0.47247 0.51713 0.0
C600 C 1.01197 0.77082 1.03018 0.0
C601 C 0.99841 0.76574 0.98007 0.0
C602 C 1.0197 0.67784 0.98988 0.0
C603 C 0.03768 0.68251 1.03905 0.0
N604 N 0.06339 0.73727 0.1011 0.0
N605 N 1.01227 0.71572 0.91026 0.0
C606 C 0.03747 0.73018 0.05787 0.0
C607 C 1.01007 0.71975 0.95931 0.0
N608 N 0.99957 0.81411 0.0518 0.0
N609 N 1.00754 0.63395 0.97269 0.0
H610 H 1.00951 0.74594 0.887 0.0
H611 H 0.02427 0.68316 0.89367 0.0
H612 H 1.00657 0.60314 0.99467 0.0
H613 H 0.9907 0.62993 0.93813 0.0
H614 H 1.00227 0.81845 0.08913 0.0
H615 H 0.98371 0.84507 1.03262 0.0
H616 H 0.06882 0.77154 0.11439 0.0
H617 H 0.08459 0.70927 0.12118 0.0
C618 C 0.51915 0.72958 0.16718 0.0
C619 C 0.51654 0.70199 0.12447 0.0
C620 C 0.54531 0.7696 0.07589 0.0
C621 C 0.54763 0.79737 0.11852 0.0
N622 N 0.54482 0.80316 0.20523 0.0
N623 N 0.53437 0.69156 1.03983 0.0
C624 C 0.53713 0.77704 0.16442 0.0
C625 C 0.53196 0.72076 0.07929 0.0
N626 N 0.50329 0.71056 0.21005 0.0
N627 N 0.55441 0.79058 1.03199 0.0
H628 H 0.52271 0.65625 0.04039 0.0
H629 H 0.55094 0.70093 1.00715 0.0
H630 H 0.56757 0.82523 1.02833 0.0
H631 H 0.54677 0.77487 0.99886 0.0
H632 H 0.49841 0.73013 0.24162 0.0
H633 H 0.49251 0.67511 0.2138 0.0
H634 H 0.54294 0.78931 0.24029 0.0
H635 H 0.55661 0.83842 0.20424 0.0
C636 C 0.17887 0.36497 0.64902 0.0
C637 C 0.14217 0.40326 0.63045 0.0
C638 C 0.0807 0.34441 0.60196 0.0
C639 C 0.11325 0.307 0.62733 0.0
N640 N 0.18798 0.28402 0.68369 0.0
N641 N 0.05242 0.42999 0.59844 0.0
C642 C 0.16106 0.31787 0.65322 0.0
C643 C 0.09149 0.39325 0.6092 0.0
N644 N 0.23066 0.37376 0.66275 0.0
N645 N 0.0407 0.33351 0.56983 0.0
H646 H 0.05807 0.46624 0.6046 0.0
H647 H 1.0128 0.42397 0.58764 0.0
H648 H 0.03262 0.29809 0.56207 0.0
H649 H 1.01946 0.35954 0.54728 0.0
H650 H 0.26059 0.34632 0.67263 0.0
H651 H 0.24505 0.40801 0.65951 0.0
H652 H 0.22011 0.29171 0.70673 0.0
H653 H 0.17459 0.24979 0.6898 0.0
C654 C 0.60928 0.35786 0.43839 0.0
C655 C 0.61488 0.313 0.46466 0.0
C656 C 0.59079 0.35758 0.53853 0.0
C657 C 0.59154 0.40305 0.51367 0.0
N658 N 0.62024 0.44344 0.441 0.0
N659 N 0.63072 0.27492 0.54387 0.0
C660 C 0.60615 0.40241 0.46388 0.0
C661 C 0.612 0.31427 0.516 0.0
N662 N 0.60637 0.35853 0.38894 0.0
N663 N 0.56699 0.35455 0.58237 0.0
H664 H 0.65157 0.2443 0.52977 0.0
H665 H 0.63254 0.27576 0.58158 0.0
H666 H 0.54545 0.38378 0.59824 0.0
H667 H 0.56216 0.32148 0.59962 0.0
H668 H 0.59581 0.39013 0.3686 0.0
H669 H 0.61011 0.32742 0.36823 0.0
H670 H 0.63564 0.44343 0.40626 0.0
H671 H 0.62376 0.47604 0.45832 0.0
loop_
_geom_bond_atom_site_label_1
_geom_bond_atom_site_label_2
_geom_bond_distance
_geom_bond_site_symmetry_2
_ccdc_geom_bond_type
H0 C7 0.929 . S
H1 C10 0.930 . S
H2 C12 0.929 . S
H3 C4 0.969 . S
C4 H3 0.969 . S
C4 O5 1.550 . S
C4 H6 0.973 . S
O5 C4 1.550 . S
O5 C11 1.412 . S
H6 C4 0.973 . S
C7 H0 0.929 . S
C7 C8 1.400 . S
C7 C9 1.364 . S
C8 C7 1.400 . S
C8 C12 1.377 . S
C9 C7 1.364 . S
C9 C10 1.374 . S
C10 H1 0.930 . S
C10 C9 1.374 . S
C10 C11 1.383 . S
C11 O5 1.412 . S
C11 C10 1.383 . S
C11 C12 1.394 . S
C12 H2 0.929 . S
C12 C8 1.377 . S
C12 C11 1.394 . S
H13 C20 0.929 . S
H14 C23 0.930 . S
H15 C25 0.929 . S
H16 C17 0.969 . S
C17 H16 0.969 . S
C17 O18 1.550 . S
C17 H19 0.973 . S
O18 C17 1.550 . S
O18 C24 1.412 . S
H19 C17 0.973 . S
C20 H13 0.929 . S
C20 C21 1.400 . S
C20 C22 1.364 . S
C21 C20 1.400 . S
C21 C25 1.377 . S
C22 C20 1.364 . S
C22 C23 1.374 . S
C23 H14 0.930 . S
C23 C22 1.374 . S
C23 C24 1.383 . S
C24 O18 1.412 . S
C24 C23 1.383 . S
C24 C25 1.394 . S
C25 H15 0.929 . S
C25 C21 1.377 . S
C25 C24 1.394 . S
H26 C33 0.929 . S
H27 C36 0.930 . S
H28 C38 0.929 . S
H29 C30 0.969 . S
C30 H29 0.969 . S
C30 O31 1.550 . S
C30 H32 0.973 . S
O31 C30 1.550 . S
O31 C37 1.412 . S
H32 C30 0.973 . S
C33 H26 0.929 . S
C33 C34 1.400 1_554 S
C33 C35 1.364 1_554 S
C34 C33 1.400 1_556 S
C34 C38 1.377 . S
C35 C33 1.364 1_556 S
C35 C36 1.374 . S
C36 H27 0.930 . S
C36 C35 1.374 . S
C36 C37 1.383 . S
C37 O31 1.412 . S
C37 C36 1.383 . S
C37 C38 1.394 . S
C38 H28 0.929 . S
C38 C34 1.377 . S
C38 C37 1.394 . S
H39 C46 0.929 . S
H40 C49 0.930 . S
H41 C51 0.929 . S
H42 C43 0.969 . S
C43 H42 0.969 . S
C43 O44 1.550 . S
C43 H45 0.973 . S
O44 C43 1.550 . S
O44 C50 1.412 . S
H45 C43 0.973 . S
C46 H39 0.929 . S
C46 C47 1.400 . S
C46 C48 1.364 . S
C47 C46 1.400 . S
C47 C51 1.377 . S
C48 C46 1.364 . S
C48 C49 1.374 . S
C49 H40 0.930 . S
C49 C48 1.374 . S
C49 C50 1.383 . S
C50 O44 1.412 . S
C50 C49 1.383 . S
C50 C51 1.394 . S
C51 H41 0.929 . S
C51 C47 1.377 . S
C51 C50 1.394 . S
H52 C59 0.929 . S
H53 C62 0.930 . S
H54 C64 0.929 . S
H55 C56 0.969 . S
C56 H55 0.969 . S
C56 O57 1.550 . S
C56 H58 0.973 . S
O57 C56 1.550 . S
O57 C63 1.412 . S
H58 C56 0.973 . S
C59 H52 0.929 . S
C59 C60 1.400 . S
C59 C61 1.364 . S
C60 C59 1.400 . S
C60 C64 1.377 . S
C61 C59 1.364 . S
C61 C62 1.374 . S
C62 H53 0.930 . S
C62 C61 1.374 . S
C62 C63 1.383 . S
C63 O57 1.412 . S
C63 C62 1.383 . S
C63 C64 1.394 . S
C64 H54 0.929 . S
C64 C60 1.377 . S
C64 C63 1.394 . S
H65 C72 0.929 . S
H66 C75 0.930 . S
H67 C77 0.929 . S
H68 C69 0.969 . S
C69 H68 0.969 . S
C69 O70 1.550 . S
C69 H71 0.973 . S
O70 C69 1.550 . S
O70 C76 1.412 . S
H71 C69 0.973 . S
C72 H65 0.929 . S
C72 C73 1.400 . S
C72 C74 1.364 . S
C73 C72 1.400 . S
C73 C77 1.377 . S
C74 C72 1.364 . S
C74 C75 1.374 . S
C75 H66 0.930 . S
C75 C74 1.374 . S
C75 C76 1.383 . S
C76 O70 1.412 . S
C76 C75 1.383 . S
C76 C77 1.394 . S
C77 H67 0.929 . S
C77 C73 1.377 . S
C77 C76 1.394 . S
H78 C85 0.929 . S
H79 C88 0.930 . S
H80 C90 0.929 . S
H81 C82 0.969 . S
C82 H81 0.969 . S
C82 O83 1.550 . S
C82 H84 0.973 . S
O83 C82 1.550 . S
O83 C89 1.412 . S
H84 C82 0.973 . S
C85 H78 0.929 . S
C85 C86 1.400 . S
C85 C87 1.364 . S
C86 C85 1.400 . S
C86 C90 1.377 . S
C87 C85 1.364 . S
C87 C88 1.374 . S
C88 H79 0.930 . S
C88 C87 1.374 . S
C88 C89 1.383 . S
C89 O83 1.412 . S
C89 C88 1.383 . S
C89 C90 1.394 . S
C90 H80 0.929 . S
C90 C86 1.377 . S
C90 C89 1.394 . S
H91 C98 0.929 . S
H92 C101 0.930 . S
H93 C103 0.929 . S
H94 C95 0.969 . S
C95 H94 0.969 . S
C95 O96 1.550 . S
C95 H97 0.973 . S
O96 C95 1.550 . S
O96 C102 1.412 . S
H97 C95 0.973 . S
C98 H91 0.929 . S
C98 C99 1.400 . S
C98 C100 1.364 . S
C99 C98 1.400 . S
C99 C103 1.377 . S
C100 C98 1.364 . S
C100 C101 1.374 . S
C101 H92 0.930 . S
C101 C100 1.374 . S
C101 C102 1.383 . S
C102 O96 1.412 . S
C102 C101 1.383 . S
C102 C103 1.394 . S
C103 H93 0.929 . S
C103 C99 1.377 . S
C103 C102 1.394 . S
C104 O120 1.251 . S
C104 O122 1.254 . S
N105 C106 1.333 . S
N105 C110 1.307 . S
N105 Zn111 2.020 . S
C106 N105 1.333 . S
C106 C107 1.379 . S
C106 H124 0.952 . S
C107 C106 1.379 . S
C107 C108 1.390 . S
C107 H134 0.949 . S
C108 C107 1.390 . S
C108 C109 1.357 . S
C109 C108 1.357 . S
C109 C110 1.370 . S
C109 H135 0.950 . S
C110 N105 1.307 . S
C110 C109 1.370 . S
C110 H128 0.948 . S
Zn111 N105 2.020 . S
Zn111 O120 2.039 . S
Zn111 O126 2.034 . S
Zn111 O130 2.025 . S
Zn111 O132 2.024 1_455 S
C112 O131 1.246 . S
C112 O132 1.249 . S
N113 C114 1.307 1_655 S
N113 C115 1.333 . S
N113 Zn119 2.020 1_655 S
C114 N113 1.307 1_455 S
C114 C118 1.370 1_455 S
C114 H125 0.948 . S
C115 N113 1.333 . S
C115 C116 1.379 . S
C115 H123 0.952 . S
C116 C115 1.379 . S
C116 C117 1.390 . S
C116 H136 0.949 . S
C117 C116 1.390 . S
C117 C118 1.357 . S
C118 C114 1.370 1_655 S
C118 C117 1.357 . S
C118 H137 0.950 1_655 S
Zn119 N113 2.020 1_455 S
Zn119 O122 2.025 1_565 S
Zn119 O127 2.024 . S
Zn119 O129 2.039 1_455 S
Zn119 O131 2.034 1_465 S
O120 C104 1.251 . S
O120 Zn111 2.039 . S
C121 O126 1.246 . S
C121 O127 1.249 1_545 S
O122 C104 1.254 . S
O122 Zn119 2.025 1_545 S
H123 C115 0.952 . S
H124 C106 0.952 . S
H125 C114 0.948 . S
O126 Zn111 2.034 . S
O126 C121 1.246 . S
O127 Zn119 2.024 . S
O127 C121 1.249 1_565 S
H128 C110 0.948 . S
O129 Zn119 2.039 1_655 S
O129 C133 1.251 1_565 S
O130 Zn111 2.025 . S
O130 C133 1.254 1_455 S
O131 C112 1.246 . S
O131 Zn119 2.034 1_645 S
O132 Zn111 2.024 1_655 S
O132 C112 1.249 . S
C133 O129 1.251 1_545 S
C133 O130 1.254 1_655 S
H134 C107 0.949 . S
H135 C109 0.950 . S
H136 C116 0.949 . S
H137 C118 0.950 1_455 S
C138 O154 1.248 1_564 S
C138 O156 1.254 . S
N139 C140 1.334 . S
N139 C144 1.317 . S
N139 Zn145 2.013 1_556 S
C140 N139 1.334 . S
C140 C141 1.379 . S
C140 H158 0.952 1_556 S
C141 C140 1.379 . S
C141 C142 1.390 . S
C141 H168 0.949 . S
C142 C141 1.390 . S
C142 C143 1.357 . S
C143 C142 1.357 . S
C143 C144 1.370 . S
C143 H169 0.950 . S
C144 N139 1.317 . S
C144 C143 1.370 . S
C144 H162 0.948 . S
Zn145 N139 2.013 1_554 S
Zn145 O154 2.035 1_554 S
Zn145 O160 2.034 . S
Zn145 O164 2.025 . S
Zn145 O166 2.024 1_554 S
C146 O165 1.246 1_545 S
C146 O166 1.249 . S
N147 C148 1.307 . S
N147 C149 1.333 . S
N147 Zn153 2.020 . S
C148 N147 1.307 . S
C148 C152 1.370 . S
C148 H159 0.948 . S
C149 N147 1.333 . S
C149 C150 1.379 . S
C149 H157 0.952 . S
C150 C149 1.379 . S
C150 C151 1.390 . S
C150 H170 0.949 . S
C151 C150 1.390 . S
C151 C152 1.357 . S
C152 C148 1.370 . S
C152 C151 1.357 . S
C152 H171 0.950 . S
Zn153 N147 2.020 . S
Zn153 O156 2.025 . S
Zn153 O161 2.030 . S
Zn153 O163 2.039 1_565 S
Zn153 O165 2.034 1_554 S
O154 C138 1.248 1_546 S
O154 Zn145 2.035 1_556 S
C155 O160 1.246 . S
C155 O161 1.232 1_545 S
O156 C138 1.254 . S
O156 Zn153 2.025 . S
H157 C149 0.952 . S
H158 C140 0.952 1_554 S
H159 C148 0.948 . S
O160 Zn145 2.034 . S
O160 C155 1.246 . S
O161 Zn153 2.030 . S
O161 C155 1.232 1_565 S
H162 C144 0.948 . S
O163 Zn153 2.039 1_545 S
O163 C167 1.251 . S
O164 Zn145 2.025 . S
O164 C167 1.254 . S
O165 C146 1.246 1_565 S
O165 Zn153 2.034 1_556 S
O166 Zn145 2.024 1_556 S
O166 C146 1.249 . S
C167 O163 1.251 . S
C167 O164 1.254 . S
H168 C141 0.949 . S
H169 C143 0.950 . S
H170 C150 0.949 . S
H171 C152 0.950 . S
C172 O188 1.251 . S
C172 O190 1.254 . S
N173 C174 1.333 . S
N173 C178 1.307 . S
N173 Zn179 2.020 . S
C174 N173 1.333 . S
C174 C175 1.379 . S
C174 H192 0.952 . S
C175 C174 1.379 . S
C175 C176 1.390 . S
C175 H202 0.949 . S
C176 C175 1.390 . S
C176 C177 1.357 . S
C177 C176 1.357 . S
C177 C178 1.370 . S
C177 H203 0.950 . S
C178 N173 1.307 . S
C178 C177 1.370 . S
C178 H196 0.948 . S
Zn179 N173 2.020 . S
Zn179 O188 2.039 . S
Zn179 O194 2.034 . S
Zn179 O198 2.025 . S
Zn179 O200 2.024 . S
C180 O199 1.246 . S
C180 O200 1.249 . S
N181 C182 1.307 . S
N181 C183 1.333 . S
N181 Zn187 2.020 . S
C182 N181 1.307 . S
C182 C186 1.370 . S
C182 H193 0.948 . S
C183 N181 1.333 . S
C183 C184 1.379 . S
C183 H191 0.952 . S
C184 C183 1.379 . S
C184 C185 1.390 . S
C184 H204 0.949 . S
C185 C184 1.390 . S
C185 C186 1.357 . S
C186 C182 1.370 . S
C186 C185 1.357 . S
C186 H205 0.950 . S
Zn187 N181 2.020 . S
Zn187 O190 2.025 . S
Zn187 O195 2.024 . S
Zn187 O197 2.039 . S
Zn187 O199 2.034 . S
O188 C172 1.251 . S
O188 Zn179 2.039 . S
C189 O194 1.246 . S
C189 O195 1.249 . S
O190 C172 1.254 . S
O190 Zn187 2.025 . S
H191 C183 0.952 . S
H192 C174 0.952 . S
H193 C182 0.948 . S
O194 Zn179 2.034 . S
O194 C189 1.246 . S
O195 Zn187 2.024 . S
O195 C189 1.249 . S
H196 C178 0.948 . S
O197 Zn187 2.039 . S
O197 C201 1.251 . S
O198 Zn179 2.025 . S
O198 C201 1.254 . S
O199 C180 1.246 . S
O199 Zn187 2.034 . S
O200 Zn179 2.024 . S
O200 C180 1.249 . S
C201 O197 1.251 . S
C201 O198 1.254 . S
H202 C175 0.949 . S
H203 C177 0.950 . S
H204 C184 0.949 . S
H205 C186 0.950 . S
C206 O222 1.251 . S
C206 O224 1.254 1_554 S
N207 C208 1.333 . S
N207 C212 1.307 1_455 S
N207 Zn213 2.020 . S
C208 N207 1.333 . S
C208 C209 1.379 1_455 S
C208 H226 0.952 . S
C209 C208 1.379 1_655 S
C209 C210 1.390 . S
C209 H236 0.949 . S
C210 C209 1.390 . S
C210 C211 1.357 . S
C211 C210 1.357 . S
C211 C212 1.370 . S
C211 H237 0.950 . S
C212 N207 1.307 1_655 S
C212 C211 1.370 . S
C212 H230 0.948 . S
Zn213 N207 2.020 . S
Zn213 O222 2.039 . S
Zn213 O228 2.034 . S
Zn213 O232 2.025 . S
Zn213 O234 2.024 1_455 S
C214 O233 1.246 1_554 S
C214 O234 1.249 . S
N215 C216 1.307 . S
N215 C217 1.333 . S
N215 Zn221 2.020 . S
C216 N215 1.307 . S
C216 C220 1.370 . S
C216 H227 0.948 . S
C217 N215 1.333 . S
C217 C218 1.379 . S
C217 H225 0.952 . S
C218 C217 1.379 . S
C218 C219 1.390 . S
C218 H238 0.949 . S
C219 C218 1.390 . S
C219 C220 1.357 . S
C220 C216 1.370 . S
C220 C219 1.357 . S
C220 H239 0.950 . S
Zn221 N215 2.020 . S
Zn221 O224 2.025 . S
Zn221 O229 2.024 1_556 S
Zn221 O231 2.039 1_556 S
Zn221 O233 2.034 1_455 S
O222 C206 1.251 . S
O222 Zn213 2.039 . S
C223 O228 1.246 . S
C223 O229 1.249 . S
O224 C206 1.254 1_556 S
O224 Zn221 2.025 . S
H225 C217 0.952 . S
H226 C208 0.952 . S
H227 C216 0.948 . S
O228 Zn213 2.034 . S
O228 C223 1.246 . S
O229 Zn221 2.024 1_554 S
O229 C223 1.249 . S
H230 C212 0.948 . S
O231 Zn221 2.039 1_554 S
O231 C235 1.251 . S
O232 Zn213 2.025 . S
O232 C235 1.254 . S
O233 C214 1.246 1_556 S
O233 Zn221 2.034 1_655 S
O234 Zn213 2.024 1_655 S
O234 C214 1.249 . S
C235 O231 1.251 . S
C235 O232 1.254 . S
H236 C209 0.949 . S
H237 C211 0.950 . S
H238 C218 0.949 . S
H239 C220 0.950 . S
C240 C241 1.363 . S
C240 C246 1.379 . S
C240 N248 1.356 . S
C241 C240 1.363 . S
C241 C247 1.363 . S
C242 C243 1.363 . S
C242 C247 1.379 . S
C242 N249 1.356 . S
C243 C242 1.363 . S
C243 C246 1.363 . S
N244 C246 1.356 . S
N244 H256 0.984 . S
N244 H257 0.985 . S
N245 C247 1.356 . S
N245 H250 0.984 . S
N245 H251 0.985 . S
C246 C240 1.379 . S
C246 C243 1.363 . S
C246 N244 1.356 . S
C247 C241 1.363 . S
C247 C242 1.379 . S
C247 N245 1.356 . S
N248 C240 1.356 . S
N248 H254 0.984 . S
N248 H255 0.984 . S
N249 C242 1.356 . S
N249 H252 0.984 . S
N249 H253 0.985 1_545 S
H250 N245 0.984 . S
H251 N245 0.985 . S
H252 N249 0.984 . S
H253 N249 0.985 1_565 S
H254 N248 0.984 . S
H255 N248 0.984 . S
H256 N244 0.984 . S
H257 N244 0.985 . S
C258 C259 1.363 1_545 S
C258 C264 1.379 . S
C258 N266 1.356 . S
C259 C258 1.363 1_565 S
C259 C265 1.363 . S
C260 C261 1.363 . S
C260 C265 1.379 . S
C260 N267 1.356 . S
C261 C260 1.363 . S
C261 C264 1.363 1_565 S
N262 C264 1.356 . S
N262 H274 0.984 . S
N262 H275 0.985 . S
N263 C265 1.356 . S
N263 H268 0.984 . S
N263 H269 0.985 . S
C264 C258 1.379 . S
C264 C261 1.363 1_545 S
C264 N262 1.356 . S
C265 C259 1.363 . S
C265 C260 1.379 . S
C265 N263 1.356 . S
N266 C258 1.356 . S
N266 H272 0.984 . S
N266 H273 0.984 . S
N267 C260 1.356 . S
N267 H270 0.984 . S
N267 H271 0.985 . S
H268 N263 0.984 . S
H269 N263 0.985 . S
H270 N267 0.984 . S
H271 N267 0.985 . S
H272 N266 0.984 . S
H273 N266 0.984 . S
H274 N262 0.984 . S
H275 N262 0.985 . S
C276 C277 1.363 . S
C276 C282 1.379 . S
C276 N284 1.356 . S
C277 C276 1.363 . S
C277 C283 1.363 . S
C278 C279 1.363 . S
C278 C283 1.379 . S
C278 N285 1.356 . S
C279 C278 1.363 . S
C279 C282 1.363 . S
N280 C282 1.356 . S
N280 H292 0.984 . S
N280 H293 0.985 . S
N281 C283 1.356 . S
N281 H286 0.984 . S
N281 H287 0.985 . S
C282 C276 1.379 . S
C282 C279 1.363 . S
C282 N280 1.356 . S
C283 C277 1.363 . S
C283 C278 1.379 . S
C283 N281 1.356 . S
N284 C276 1.356 . S
N284 H290 0.984 . S
N284 H291 0.984 . S
N285 C278 1.356 . S
N285 H288 0.984 . S
N285 H289 0.985 . S
H286 N281 0.984 . S
H287 N281 0.985 . S
H288 N285 0.984 . S
H289 N285 0.985 . S
H290 N284 0.984 . S
H291 N284 0.984 . S
H292 N280 0.984 . S
H293 N280 0.985 . S
C294 C295 1.363 . S
C294 C300 1.379 1_655 S
C294 N302 1.356 1_655 S
C295 C294 1.363 . S
C295 C301 1.363 . S
C296 C297 1.363 . S
C296 C301 1.379 . S
C296 N303 1.356 . S
C297 C296 1.363 . S
C297 C300 1.363 1_655 S
N298 C300 1.356 . S
N298 H310 0.984 . S
N298 H311 0.985 . S
N299 C301 1.356 . S
N299 H304 0.984 . S
N299 H305 0.985 . S
C300 C294 1.379 1_455 S
C300 C297 1.363 1_455 S
C300 N298 1.356 . S
C301 C295 1.363 . S
C301 C296 1.379 . S
C301 N299 1.356 . S
N302 C294 1.356 1_455 S
N302 H308 0.984 . S
N302 H309 0.984 . S
N303 C296 1.356 . S
N303 H306 0.984 . S
N303 H307 0.985 . S
H304 N299 0.984 . S
H305 N299 0.985 . S
H306 N303 0.984 . S
H307 N303 0.985 . S
H308 N302 0.984 . S
H309 N302 0.984 . S
H310 N298 0.984 . S
H311 N298 0.985 . S
C312 C313 1.363 . S
C312 C318 1.379 . S
C312 N320 1.356 . S
C313 C312 1.363 . S
C313 C319 1.363 . S
C314 C315 1.363 . S
C314 C319 1.379 . S
C314 N321 1.356 . S
C315 C314 1.363 . S
C315 C318 1.363 . S
N316 C318 1.356 . S
N316 H328 0.984 1_554 S
N316 H329 0.985 . S
N317 C319 1.356 . S
N317 H322 0.984 . S
N317 H323 0.985 . S
C318 C312 1.379 . S
C318 C315 1.363 . S
C318 N316 1.356 . S
C319 C313 1.363 . S
C319 C314 1.379 . S
C319 N317 1.356 . S
N320 C312 1.356 . S
N320 H326 0.984 . S
N320 H327 0.984 . S
N321 C314 1.356 . S
N321 H324 0.984 . S
N321 H325 0.985 . S
H322 N317 0.984 . S
H323 N317 0.985 . S
H324 N321 0.984 . S
H325 N321 0.985 . S
H326 N320 0.984 . S
H327 N320 0.984 . S
H328 N316 0.984 1_556 S
H329 N316 0.985 . S
C330 C331 1.363 . S
C330 C336 1.379 . S
C330 N338 1.356 . S
C331 C330 1.363 . S
C331 C337 1.363 . S
C332 C333 1.363 . S
C332 C337 1.379 . S
C332 N339 1.356 . S
C333 C332 1.363 . S
C333 C336 1.363 . S
N334 C336 1.356 . S
N334 H346 0.984 . S
N334 H347 0.985 . S
N335 C337 1.356 . S
N335 H340 0.984 . S
N335 H341 0.985 . S
C336 C330 1.379 . S
C336 C333 1.363 . S
C336 N334 1.356 . S
C337 C331 1.363 . S
C337 C332 1.379 . S
C337 N335 1.356 . S
N338 C330 1.356 . S
N338 H344 0.984 . S
N338 H345 0.984 . S
N339 C332 1.356 . S
N339 H342 0.984 . S
N339 H343 0.985 . S
H340 N335 0.984 . S
H341 N335 0.985 . S
H342 N339 0.984 . S
H343 N339 0.985 . S
H344 N338 0.984 . S
H345 N338 0.984 . S
H346 N334 0.984 . S
H347 N334 0.985 . S
C348 C349 1.363 1_556 S
C348 C354 1.379 . S
C348 N356 1.356 . S
C349 C348 1.363 1_554 S
C349 C355 1.363 . S
C350 C351 1.375 . S
C350 C355 1.379 . S
C350 N357 1.356 . S
C351 C350 1.375 . S
C351 C354 1.352 1_554 S
N352 C354 1.356 . S
N352 H364 0.984 . S
N352 H365 0.985 . S
N353 C355 1.356 . S
N353 H358 0.984 . S
N353 H359 0.985 . S
C354 C348 1.379 . S
C354 C351 1.352 1_556 S
C354 N352 1.356 . S
C355 C349 1.363 . S
C355 C350 1.379 . S
C355 N353 1.356 . S
N356 C348 1.356 . S
N356 H362 0.984 . S
N356 H363 0.984 . S
N357 C350 1.356 . S
N357 H360 0.984 . S
N357 H361 0.985 . S
H358 N353 0.984 . S
H359 N353 0.985 . S
H360 N357 0.984 . S
H361 N357 0.985 . S
H362 N356 0.984 . S
H363 N356 0.984 . S
H364 N352 0.984 . S
H365 N352 0.985 . S
C366 C367 1.363 . S
C366 C372 1.379 . S
C366 N374 1.356 . S
C367 C366 1.363 . S
C367 C373 1.363 . S
C368 C369 1.363 . S
C368 C373 1.379 . S
C368 N375 1.356 . S
C369 C368 1.363 . S
C369 C372 1.363 . S
N370 C372 1.356 . S
N370 H382 0.984 . S
N370 H383 0.985 . S
N371 C373 1.356 . S
N371 H376 0.984 . S
N371 H377 0.985 . S
C372 C366 1.379 . S
C372 C369 1.363 . S
C372 N370 1.356 . S
C373 C367 1.363 . S
C373 C368 1.379 . S
C373 N371 1.356 . S
N374 C366 1.356 . S
N374 H380 0.984 . S
N374 H381 0.984 . S
N375 C368 1.356 . S
N375 H378 0.984 . S
N375 H379 0.985 . S
H376 N371 0.984 . S
H377 N371 0.985 . S
H378 N375 0.984 . S
H379 N375 0.985 . S
H380 N374 0.984 . S
H381 N374 0.984 . S
H382 N370 0.984 . S
H383 N370 0.985 . S
C384 C385 1.363 . S
C384 C390 1.379 . S
C384 N392 1.356 . S
C385 C384 1.363 . S
C385 C391 1.363 . S
C386 C387 1.363 . S
C386 C391 1.379 . S
C386 N393 1.356 . S
C387 C386 1.363 . S
C387 C390 1.363 . S
N388 C390 1.356 . S
N388 H400 0.984 . S
N388 H401 0.985 . S
N389 C391 1.356 . S
N389 H394 0.984 . S
N389 H395 0.985 1_455 S
C390 C384 1.379 . S
C390 C387 1.363 . S
C390 N388 1.356 . S
C391 C385 1.363 . S
C391 C386 1.379 . S
C391 N389 1.356 . S
N392 C384 1.356 . S
N392 H398 0.984 . S
N392 H399 0.984 . S
N393 C386 1.356 . S
N393 H396 0.984 . S
N393 H397 0.985 1_455 S
H394 N389 0.984 . S
H395 N389 0.985 1_655 S
H396 N393 0.984 . S
H397 N393 0.985 1_655 S
H398 N392 0.984 . S
H399 N392 0.984 . S
H400 N388 0.984 . S
H401 N388 0.985 . S
C402 C403 1.362 1_554 S
C402 C408 1.379 1_554 S
C402 N410 1.357 . S
C403 C402 1.362 1_556 S
C403 C409 1.363 . S
C404 C405 1.363 . S
C404 C409 1.379 . S
C404 N411 1.356 . S
C405 C404 1.363 . S
C405 C408 1.363 . S
N406 C408 1.356 1_554 S
N406 H418 0.984 . S
N406 H419 0.985 1_554 S
N407 C409 1.356 . S
N407 H412 0.984 . S
N407 H413 0.985 . S
C408 C402 1.379 1_556 S
C408 C405 1.363 . S
C408 N406 1.356 1_556 S
C409 C403 1.363 . S
C409 C404 1.379 . S
C409 N407 1.356 . S
N410 C402 1.357 . S
N410 H416 0.984 . S
N410 H417 0.984 . S
N411 C404 1.356 . S
N411 H414 0.984 . S
N411 H415 0.985 . S
H412 N407 0.984 . S
H413 N407 0.985 . S
H414 N411 0.984 . S
H415 N411 0.985 . S
H416 N410 0.984 . S
H417 N410 0.984 . S
H418 N406 0.984 . S
H419 N406 0.985 1_556 S
C420 C421 1.363 . S
C420 C426 1.379 . S
C420 N428 1.356 . S
C421 C420 1.363 . S
C421 C427 1.363 . S
C422 C423 1.363 . S
C422 C427 1.379 . S
C422 N429 1.356 . S
C423 C422 1.363 . S
C423 C426 1.363 . S
N424 C426 1.356 . S
N424 H436 0.984 . S
N424 H437 0.985 . S
N425 C427 1.356 . S
N425 H430 0.984 . S
N425 H431 0.985 . S
C426 C420 1.379 . S
C426 C423 1.363 . S
C426 N424 1.356 . S
C427 C421 1.363 . S
C427 C422 1.379 . S
C427 N425 1.356 . S
N428 C420 1.356 . S
N428 H434 0.984 . S
N428 H435 0.984 . S
N429 C422 1.356 . S
N429 H432 0.984 . S
N429 H433 0.985 1_655 S
H430 N425 0.984 . S
H431 N425 0.985 . S
H432 N429 0.984 . S
H433 N429 0.985 1_455 S
H434 N428 0.984 . S
H435 N428 0.984 . S
H436 N424 0.984 . S
H437 N424 0.985 . S
C438 C439 1.363 . S
C438 C444 1.379 . S
C438 N446 1.356 . S
C439 C438 1.363 . S
C439 C445 1.363 . S
C440 C441 1.363 . S
C440 C445 1.379 . S
C440 N447 1.356 . S
C441 C440 1.363 . S
C441 C444 1.363 . S
N442 C444 1.356 . S
N442 H454 0.984 . S
N442 H455 0.985 . S
N443 C445 1.356 . S
N443 H448 0.984 . S
N443 H449 0.985 . S
C444 C438 1.379 . S
C444 C441 1.363 . S
C444 N442 1.356 . S
C445 C439 1.363 . S
C445 C440 1.379 . S
C445 N443 1.356 . S
N446 C438 1.356 . S
N446 H452 0.984 . S
N446 H453 0.984 . S
N447 C440 1.356 . S
N447 H450 0.984 . S
N447 H451 0.985 . S
H448 N443 0.984 . S
H449 N443 0.985 . S
H450 N447 0.984 . S
H451 N447 0.985 . S
H452 N446 0.984 . S
H453 N446 0.984 . S
H454 N442 0.984 . S
H455 N442 0.985 . S
C456 C457 1.363 . S
C456 C462 1.379 . S
C456 N464 1.356 . S
C457 C456 1.363 . S
C457 C463 1.363 1_655 S
C458 C459 1.363 1_455 S
C458 C463 1.379 . S
C458 N465 1.356 1_565 S
C459 C458 1.363 1_655 S
C459 C462 1.363 . S
N460 C462 1.356 . S
N460 H472 0.984 . S
N460 H473 0.985 . S
N461 C463 1.356 . S
N461 H466 0.984 . S
N461 H467 0.985 . S
C462 C456 1.379 . S
C462 C459 1.363 . S
C462 N460 1.356 . S
C463 C457 1.363 1_455 S
C463 C458 1.379 . S
C463 N461 1.356 . S
N464 C456 1.356 . S
N464 H470 0.984 . S
N464 H471 0.984 . S
N465 C458 1.356 1_545 S
N465 H468 0.984 . S
N465 H469 0.985 . S
H466 N461 0.984 . S
H467 N461 0.985 . S
H468 N465 0.984 . S
H469 N465 0.985 . S
H470 N464 0.984 . S
H471 N464 0.984 . S
H472 N460 0.984 . S
H473 N460 0.985 . S
C474 C475 1.363 . S
C474 C480 1.379 . S
C474 N482 1.356 . S
C475 C474 1.363 . S
C475 C481 1.363 . S
C476 C477 1.363 . S
C476 C481 1.379 . S
C476 N483 1.356 1_545 S
C477 C476 1.363 . S
C477 C480 1.363 . S
N478 C480 1.356 . S
N478 H490 0.984 . S
N478 H491 0.985 . S
N479 C481 1.356 . S
N479 H484 0.984 . S
N479 H485 0.985 1_545 S
C480 C474 1.379 . S
C480 C477 1.363 . S
C480 N478 1.356 . S
C481 C475 1.363 . S
C481 C476 1.379 . S
C481 N479 1.356 . S
N482 C474 1.356 . S
N482 H488 0.984 . S
N482 H489 0.984 . S
N483 C476 1.356 1_565 S
N483 H486 0.984 . S
N483 H487 0.985 . S
H484 N479 0.984 . S
H485 N479 0.985 1_565 S
H486 N483 0.984 . S
H487 N483 0.985 . S
H488 N482 0.984 . S
H489 N482 0.984 . S
H490 N478 0.984 . S
H491 N478 0.985 . S
C492 C493 1.363 . S
C492 C498 1.379 . S
C492 N500 1.356 . S
C493 C492 1.363 . S
C493 C499 1.363 . S
C494 C495 1.363 . S
C494 C499 1.379 . S
C494 N501 1.356 . S
C495 C494 1.363 . S
C495 C498 1.363 . S
N496 C498 1.356 . S
N496 H508 0.984 . S
N496 H509 0.985 . S
N497 C499 1.356 . S
N497 H502 0.984 . S
N497 H503 0.985 . S
C498 C492 1.379 . S
C498 C495 1.363 . S
C498 N496 1.356 . S
C499 C493 1.363 . S
C499 C494 1.379 . S
C499 N497 1.356 . S
N500 C492 1.356 . S
N500 H506 0.984 . S
N500 H507 0.984 . S
N501 C494 1.356 . S
N501 H504 0.984 . S
N501 H505 0.985 . S
H502 N497 0.984 . S
H503 N497 0.985 . S
H504 N501 0.984 . S
H505 N501 0.985 . S
H506 N500 0.984 . S
H507 N500 0.984 . S
H508 N496 0.984 . S
H509 N496 0.985 . S
C510 C511 1.363 . S
C510 C516 1.379 . S
C510 N518 1.356 . S
C511 C510 1.363 . S
C511 C517 1.363 . S
C512 C513 1.363 . S
C512 C517 1.379 . S
C512 N519 1.356 . S
C513 C512 1.363 . S
C513 C516 1.363 . S
N514 C516 1.356 . S
N514 H526 0.984 . S
N514 H527 0.985 . S
N515 C517 1.356 . S
N515 H520 0.984 . S
N515 H521 0.985 . S
C516 C510 1.379 . S
C516 C513 1.363 . S
C516 N514 1.356 . S
C517 C511 1.363 . S
C517 C512 1.379 . S
C517 N515 1.356 . S
N518 C510 1.356 . S
N518 H524 0.984 . S
N518 H525 0.984 . S
N519 C512 1.356 . S
N519 H522 0.984 . S
N519 H523 0.985 . S
H520 N515 0.984 . S
H521 N515 0.985 . S
H522 N519 0.984 . S
H523 N519 0.985 . S
H524 N518 0.984 . S
H525 N518 0.984 . S
H526 N514 0.984 . S
H527 N514 0.985 . S
C528 C529 1.363 . S
C528 C534 1.379 1_556 S
C528 N536 1.356 1_556 S
C529 C528 1.363 . S
C529 C535 1.363 . S
C530 C531 1.363 . S
C530 C535 1.379 . S
C530 N537 1.356 . S
C531 C530 1.363 . S
C531 C534 1.363 1_556 S
N532 C534 1.356 . S
N532 H544 0.984 . S
N532 H545 0.985 . S
N533 C535 1.356 . S
N533 H538 0.984 . S
N533 H539 0.985 . S
C534 C528 1.379 1_554 S
C534 C531 1.363 1_554 S
C534 N532 1.356 . S
C535 C529 1.363 . S
C535 C530 1.379 . S
C535 N533 1.356 . S
N536 C528 1.356 1_554 S
N536 H542 0.984 . S
N536 H543 0.984 1_554 S
N537 C530 1.356 . S
N537 H540 0.984 . S
N537 H541 0.985 . S
H538 N533 0.984 . S
H539 N533 0.985 . S
H540 N537 0.984 . S
H541 N537 0.985 . S
H542 N536 0.984 . S
H543 N536 0.984 1_556 S
H544 N532 0.984 . S
H545 N532 0.985 . S
C546 C547 1.363 . S
C546 C552 1.379 . S
C546 N554 1.356 . S
C547 C546 1.363 . S
C547 C553 1.363 . S
C548 C549 1.363 . S
C548 C553 1.379 . S
C548 N555 1.356 . S
C549 C548 1.363 . S
C549 C552 1.363 . S
N550 C552 1.356 . S
N550 H562 0.984 . S
N550 H563 0.985 . S
N551 C553 1.356 . S
N551 H556 0.984 . S
N551 H557 0.985 . S
C552 C546 1.379 . S
C552 C549 1.363 . S
C552 N550 1.356 . S
C553 C547 1.363 . S
C553 C548 1.379 . S
C553 N551 1.356 . S
N554 C546 1.356 . S
N554 H560 0.984 . S
N554 H561 0.984 . S
N555 C548 1.356 . S
N555 H558 0.984 . S
N555 H559 0.985 . S
H556 N551 0.984 . S
H557 N551 0.985 . S
H558 N555 0.984 . S
H559 N555 0.985 . S
H560 N554 0.984 . S
H561 N554 0.984 . S
H562 N550 0.984 . S
H563 N550 0.985 . S
C564 C565 1.363 . S
C564 C570 1.379 . S
C564 N572 1.356 . S
C565 C564 1.363 . S
C565 C571 1.363 . S
C566 C567 1.363 . S
C566 C571 1.379 . S
C566 N573 1.356 . S
C567 C566 1.363 . S
C567 C570 1.363 . S
N568 C570 1.356 . S
N568 H580 0.984 1_554 S
N568 H581 0.985 . S
N569 C571 1.356 . S
N569 H574 0.984 . S
N569 H575 0.985 . S
C570 C564 1.379 . S
C570 C567 1.363 . S
C570 N568 1.356 . S
C571 C565 1.363 . S
C571 C566 1.379 . S
C571 N569 1.356 . S
N572 C564 1.356 . S
N572 H578 0.984 1_554 S
N572 H579 0.984 . S
N573 C566 1.356 . S
N573 H576 0.984 . S
N573 H577 0.985 . S
H574 N569 0.984 . S
H575 N569 0.985 . S
H576 N573 0.984 . S
H577 N573 0.985 . S
H578 N572 0.984 1_556 S
H579 N572 0.984 . S
H580 N568 0.984 1_556 S
H581 N568 0.985 . S
C582 C583 1.363 . S
C582 C588 1.379 . S
C582 N590 1.356 . S
C583 C582 1.363 . S
C583 C589 1.363 . S
C584 C585 1.363 . S
C584 C589 1.379 . S
C584 N591 1.356 . S
C585 C584 1.363 . S
C585 C588 1.363 . S
N586 C588 1.356 . S
N586 H598 0.984 . S
N586 H599 0.985 . S
N587 C589 1.356 . S
N587 H592 0.984 . S
N587 H593 0.985 . S
C588 C582 1.379 . S
C588 C585 1.363 . S
C588 N586 1.356 . S
C589 C583 1.363 . S
C589 C584 1.379 . S
C589 N587 1.356 . S
N590 C582 1.356 . S
N590 H596 0.984 . S
N590 H597 0.984 . S
N591 C584 1.356 . S
N591 H594 0.984 . S
N591 H595 0.985 . S
H592 N587 0.984 . S
H593 N587 0.985 . S
H594 N591 0.984 . S
H595 N591 0.985 . S
H596 N590 0.984 . S
H597 N590 0.984 . S
H598 N586 0.984 . S
H599 N586 0.985 . S
C600 C601 1.363 1_454 S
C600 C606 1.379 . S
C600 N608 1.356 . S
C601 C600 1.363 1_656 S
C601 C607 1.363 . S
C602 C603 1.363 1_655 S
C602 C607 1.379 . S
C602 N609 1.356 . S
C603 C602 1.363 1_455 S
C603 C606 1.363 1_556 S
N604 C606 1.356 . S
N604 H616 0.984 . S
N604 H617 0.985 . S
N605 C607 1.356 . S
N605 H610 0.984 . S
N605 H611 0.985 . S
C606 C600 1.379 . S
C606 C603 1.363 1_554 S
C606 N604 1.356 . S
C607 C601 1.363 . S
C607 C602 1.379 . S
C607 N605 1.356 . S
N608 C600 1.356 . S
N608 H614 0.984 . S
N608 H615 0.984 . S
N609 C602 1.356 . S
N609 H612 0.984 . S
N609 H613 0.985 . S
H610 N605 0.984 . S
H611 N605 0.985 . S
H612 N609 0.984 . S
H613 N609 0.985 . S
H614 N608 0.984 . S
H615 N608 0.984 . S
H616 N604 0.984 . S
H617 N604 0.985 . S
C618 C619 1.363 . S
C618 C624 1.379 . S
C618 N626 1.356 . S
C619 C618 1.363 . S
C619 C625 1.363 . S
C620 C621 1.363 . S
C620 C625 1.379 . S
C620 N627 1.356 . S
C621 C620 1.363 . S
C621 C624 1.363 . S
N622 C624 1.356 . S
N622 H634 0.984 . S
N622 H635 0.985 . S
N623 C625 1.356 . S
N623 H628 0.984 . S
N623 H629 0.985 1_554 S
C624 C618 1.379 . S
C624 C621 1.363 . S
C624 N622 1.356 . S
C625 C619 1.363 . S
C625 C620 1.379 . S
C625 N623 1.356 . S
N626 C618 1.356 . S
N626 H632 0.984 . S
N626 H633 0.984 . S
N627 C620 1.356 . S
N627 H630 0.984 . S
N627 H631 0.985 1_554 S
H628 N623 0.984 . S
H629 N623 0.985 1_556 S
H630 N627 0.984 . S
H631 N627 0.985 1_556 S
H632 N626 0.984 . S
H633 N626 0.984 . S
H634 N622 0.984 . S
H635 N622 0.985 . S
C636 C637 1.363 . S
C636 C642 1.379 . S
C636 N644 1.356 . S
C637 C636 1.363 . S
C637 C643 1.363 . S
C638 C639 1.363 . S
C638 C643 1.379 . S
C638 N645 1.356 . S
C639 C638 1.363 . S
C639 C642 1.363 . S
N640 C642 1.356 . S
N640 H652 0.984 . S
N640 H653 0.985 . S
N641 C643 1.356 . S
N641 H646 0.984 . S
N641 H647 0.985 . S
C642 C636 1.379 . S
C642 C639 1.363 . S
C642 N640 1.356 . S
C643 C637 1.363 . S
C643 C638 1.379 . S
C643 N641 1.356 . S
N644 C636 1.356 . S
N644 H650 0.984 . S
N644 H651 0.984 . S
N645 C638 1.356 . S
N645 H648 0.984 . S
N645 H649 0.985 . S
H646 N641 0.984 . S
H647 N641 0.985 . S
H648 N645 0.984 . S
H649 N645 0.985 . S
H650 N644 0.984 . S
H651 N644 0.984 . S
H652 N640 0.984 . S
H653 N640 0.985 . S
C654 C655 1.363 . S
C654 C660 1.379 . S
C654 N662 1.356 . S
C655 C654 1.363 . S
C655 C661 1.363 . S
C656 C657 1.363 . S
C656 C661 1.379 . S
C656 N663 1.356 . S
C657 C656 1.363 . S
C657 C660 1.363 . S
N658 C660 1.356 . S
N658 H670 0.984 . S
N658 H671 0.985 . S
N659 C661 1.356 . S
N659 H664 0.984 . S
N659 H665 0.985 . S
C660 C654 1.379 . S
C660 C657 1.363 . S
C660 N658 1.356 . S
C661 C655 1.363 . S
C661 C656 1.379 . S
C661 N659 1.356 . S
N662 C654 1.356 . S
N662 H668 0.984 . S
N662 H669 0.984 . S
N663 C656 1.356 . S
N663 H666 0.984 . S
N663 H667 0.985 . S
H664 N659 0.984 . S
H665 N659 0.985 . S
H666 N663 0.984 . S
H667 N663 0.985 . S
H668 N662 0.984 . S
H669 N662 0.984 . S
H670 N658 0.984 . S
H671 N658 0.985 . S
C241 C9 2.692 . S
C243 C104 2.702 . S
C259 C21 2.264 . S
C261 C146 2.275 1_565 S
C279 C176 0.865 . S
C277 C30 0.863 . S
C295 C43 0.871 . S
C297 C210 0.903 . S
C315 C167 1.761 . S
C313 C4 1.765 . S
C333 C121 2.244 1_565 S
C331 C22 2.235 . S
C351 C214 1.050 . S
C349 C34 1.021 1_554 S
C369 C180 1.216 . S
C367 C48 1.182 . S
C385 C8 2.299 . S
C387 C235 2.313 . S
C405 C142 1.248 . S
C403 C35 1.247 . S
C421 C47 1.184 . S
C423 C117 1.222 . S
C439 C17 1.966 . S
C441 C201 1.997 . S
C459 C133 2.335 1_565 S
C457 C60 2.323 . S
C475 C74 2.530 . S
C477 C155 2.546 . S
C493 C82 0.897 . S
C495 C185 0.872 . S
C511 C100 1.267 . S
C513 C219 1.289 . S
C529 C61 2.094 . S
C531 C138 2.110 1_556 S
C549 C112 1.963 . S
C547 C73 1.937 . S
C567 C223 1.451 . S
C565 C87 1.455 . S
C585 C189 0.960 . S
C583 C95 0.901 . S
C601 C56 2.159 . S
C603 C206 2.280 1_556 S
C621 C151 1.313 . S
C619 C86 1.278 . S
C639 C108 1.115 . S
C637 C99 1.096 . S
C655 C69 2.102 . S
C657 C172 2.104 . S
