# Generated by pormake.
# Topology pyr, (3,6)-cn, num edge types: 1
# Building blocks:
#     Node 0, Type 0, BuildingBlock: BELTOD_clean_linker_0, # of connection points: 3
#     Node 1, Type 0, BuildingBlock: BELTOD_clean_linker_0, # of connection points: 3
#     Node 2, Type 0, BuildingBlock: BELTOD_clean_linker_0, # of connection points: 3
#     Node 3, Type 0, BuildingBlock: BELTOD_clean_linker_0, # of connection points: 3
#     Node 4, Type 0, BuildingBlock: BELTOD_clean_linker_0, # of connection points: 3
#     Node 5, Type 0, BuildingBlock: BELTOD_clean_linker_0, # of connection points: 3
#     Node 6, Type 0, BuildingBlock: BELTOD_clean_linker_0, # of connection points: 3
#     Node 7, Type 0, BuildingBlock: BELTOD_clean_linker_0, # of connection points: 3
#     Node 8, Type 1, BuildingBlock: BETDAH_clean_sbu_0, # of connection points: 6
#     Node 9, Type 1, BuildingBlock: BETDAH_clean_sbu_0, # of connection points: 6
#     Node 10, Type 1, BuildingBlock: BETDAH_clean_sbu_0, # of connection points: 6
#     Node 11, Type 1, BuildingBlock: BETDAH_clean_sbu_0, # of connection points: 6
#     Edge 12, Type (0, 1), BuildingBlock: KIFKEQ_clean_linker_1, # of connection points: 2
#     Edge 13, Type (0, 1), BuildingBlock: KIFKEQ_clean_linker_1, # of connection points: 2
#     Edge 14, Type (0, 1), BuildingBlock: KIFKEQ_clean_linker_1, # of connection points: 2
#     Edge 15, Type (0, 1), BuildingBlock: KIFKEQ_clean_linker_1, # of connection points: 2
#     Edge 16, Type (0, 1), BuildingBlock: KIFKEQ_clean_linker_1, # of connection points: 2
#     Edge 17, Type (0, 1), BuildingBlock: KIFKEQ_clean_linker_1, # of connection points: 2
#     Edge 18, Type (0, 1), BuildingBlock: KIFKEQ_clean_linker_1, # of connection points: 2
#     Edge 19, Type (0, 1), BuildingBlock: KIFKEQ_clean_linker_1, # of connection points: 2
#     Edge 20, Type (0, 1), BuildingBlock: KIFKEQ_clean_linker_1, # of connection points: 2
#     Edge 21, Type (0, 1), BuildingBlock: KIFKEQ_clean_linker_1, # of connection points: 2
#     Edge 22, Type (0, 1), BuildingBlock: KIFKEQ_clean_linker_1, # of connection points: 2
#     Edge 23, Type (0, 1), BuildingBlock: KIFKEQ_clean_linker_1, # of connection points: 2
#     Edge 24, Type (0, 1), BuildingBlock: KIFKEQ_clean_linker_1, # of connection points: 2
#     Edge 25, Type (0, 1), BuildingBlock: KIFKEQ_clean_linker_1, # of connection points: 2
#     Edge 26, Type (0, 1), BuildingBlock: KIFKEQ_clean_linker_1, # of connection points: 2
#     Edge 27, Type (0, 1), BuildingBlock: KIFKEQ_clean_linker_1, # of connection points: 2
#     Edge 28, Type (0, 1), BuildingBlock: KIFKEQ_clean_linker_1, # of connection points: 2
#     Edge 29, Type (0, 1), BuildingBlock: KIFKEQ_clean_linker_1, # of connection points: 2
#     Edge 30, Type (0, 1), BuildingBlock: KIFKEQ_clean_linker_1, # of connection points: 2
#     Edge 31, Type (0, 1), BuildingBlock: KIFKEQ_clean_linker_1, # of connection points: 2
#     Edge 32, Type (0, 1), BuildingBlock: KIFKEQ_clean_linker_1, # of connection points: 2
#     Edge 33, Type (0, 1), BuildingBlock: KIFKEQ_clean_linker_1, # of connection points: 2
#     Edge 34, Type (0, 1), BuildingBlock: KIFKEQ_clean_linker_1, # of connection points: 2
#     Edge 35, Type (0, 1), BuildingBlock: KIFKEQ_clean_linker_1, # of connection points: 2
# Relax obj value: 0.102
# Max RMSD: 0.127
# Mean RMSD: 0.060
data_MOF--net-pyr--node1-BETDAH_clean_sbu_0--node2-BELTOD_clean_linker_0--edge1-KIFKEQ_clean_linker_1
_symmetry_space_group_name_H-M    P1
_symmetry_Int_Tables_number       1
_symmetry_cell_setting            triclinic
loop_
_symmetry_equiv_pos_as_xyz
'x, y, z'
_cell_length_a     43.626056
_cell_length_b     46.399751
_cell_length_c     41.586132
_cell_angle_alpha  90.945914
_cell_angle_beta   88.947224
_cell_angle_gamma 101.45288
loop_
_atom_site_label
_atom_site_type_symbol
_atom_site_fract_x
_atom_site_fract_y
_atom_site_fract_z
_atom_type_partial_charge
P0 P 0.3569 0.30873 0.255 0.0
H1 H 0.42025 0.30047 0.23948 0.0
H2 H 0.44076 0.25904 0.21694 0.0
H3 H 0.34639 0.20923 0.2077 0.0
H4 H 0.32624 0.25027 0.23111 0.0
H5 H 0.35239 0.37038 0.25448 0.0
H6 H 0.32328 0.39766 0.22076 0.0
H7 H 0.2985 0.32129 0.15849 0.0
H8 H 0.32907 0.2949 0.19131 0.0
H9 H 0.35141 0.3016 0.32506 0.0
H10 H 0.2907 0.28521 0.24329 0.0
O11 O 0.38518 0.33006 0.27594 0.0
H12 H 0.30709 0.2823 0.36072 0.0
H13 H 0.247 0.26481 0.27815 0.0
C14 C 0.37174 0.27837 0.23744 0.0
C15 C 0.404 0.28057 0.23275 0.0
C16 C 0.41568 0.25691 0.21963 0.0
C17 C 0.39524 0.23068 0.21065 0.0
C18 C 0.36285 0.22881 0.21496 0.0
C19 C 0.35125 0.25242 0.22822 0.0
C20 C 0.34312 0.33069 0.22531 0.0
C21 C 0.34163 0.3599 0.2329 0.0
C22 C 0.32456 0.37533 0.21381 0.0
C23 C 0.30799 0.36157 0.18715 0.0
C24 C 0.31114 0.3328 0.17857 0.0
C25 C 0.32864 0.31756 0.19744 0.0
C26 C 0.32434 0.29516 0.28155 0.0
C27 C 0.32857 0.29393 0.31478 0.0
C28 C 0.30322 0.2827 0.3351 0.0
C29 C 0.27331 0.27214 0.3224 0.0
C30 C 0.26939 0.27341 0.289 0.0
C31 C 0.29457 0.2849 0.26887 0.0
P32 P 0.37549 0.96309 0.57009 0.0
H33 H 0.41367 1.00589 0.61355 0.0
H34 H 0.41545 1.00999 0.67232 0.0
H35 H 0.34645 0.92931 0.67946 0.0
H36 H 0.34527 0.92517 0.62104 0.0
H37 H 0.43195 0.94107 0.55466 0.0
H38 H 0.44192 0.89131 0.54869 0.0
H39 H 0.34248 0.85634 0.55446 0.0
H40 H 0.33286 0.90607 0.56152 0.0
H41 H 0.33127 0.99203 0.60566 0.0
H42 H 0.33539 0.94813 0.51383 0.0
O43 O 0.40208 0.98906 0.55236 0.0
H44 H 0.27812 0.99743 0.59518 0.0
H45 H 0.28166 0.95355 0.50316 0.0
C46 C 0.37971 0.96499 0.61302 0.0
C47 C 0.39934 0.98889 0.62783 0.0
C48 C 0.4001 0.99132 0.66139 0.0
C49 C 0.38111 0.96994 0.68057 0.0
C50 C 0.36179 0.94587 0.66547 0.0
C51 C 0.36109 0.94347 0.63203 0.0
C52 C 0.38167 0.92732 0.55785 0.0
C53 C 0.41227 0.92272 0.55373 0.0
C54 C 0.41792 0.89422 0.55028 0.0
C55 C 0.39299 0.86979 0.55117 0.0
C56 C 0.36222 0.87464 0.55399 0.0
C57 C 0.35665 0.90314 0.55759 0.0
C58 C 0.33694 0.96872 0.56097 0.0
C59 C 0.3207 0.98327 0.58331 0.0
C60 C 0.29021 0.98635 0.57734 0.0
C61 C 0.27553 0.97538 0.54866 0.0
C62 C 0.29237 0.96206 0.52556 0.0
C63 C 0.32296 0.95885 0.53167 0.0
P64 P 0.66651 0.33926 0.84403 0.0
H65 H 0.72502 0.37931 0.82793 0.0
H66 H 0.76853 0.40547 0.85972 0.0
H67 H 0.71828 0.37431 0.94691 0.0
H68 H 0.67482 0.34778 0.91467 0.0
H69 H 0.67863 0.28047 0.85366 0.0
H70 H 0.65113 0.23722 0.88162 0.0
H71 H 0.5804 0.28517 0.9134 0.0
H72 H 0.6078 0.32835 0.88372 0.0
H73 H 0.67284 0.40276 0.83097 0.0
H74 H 0.60884 0.32234 0.80717 0.0
O75 O 0.68601 0.32527 0.81472 0.0
H76 H 0.64796 0.42915 0.79221 0.0
H77 H 0.583 0.34878 0.76891 0.0
C78 C 0.69656 0.36146 0.86876 0.0
C79 C 0.72315 0.37833 0.85391 0.0
C80 C 0.74809 0.39344 0.87223 0.0
C81 C 0.7472 0.39207 0.90606 0.0
C82 C 0.72011 0.37562 0.92095 0.0
C83 C 0.69504 0.36057 0.90251 0.0
C84 C 0.64506 0.30763 0.86594 0.0
C85 C 0.65706 0.28173 0.86639 0.0
C86 C 0.64136 0.2569 0.88291 0.0
C87 C 0.61331 0.25726 0.90013 0.0
C88 C 0.60158 0.28359 0.9001 0.0
C89 C 0.61731 0.30849 0.88324 0.0
C90 C 0.64249 0.36047 0.82268 0.0
C91 C 0.6528 0.39083 0.81817 0.0
C92 C 0.63841 0.40603 0.79576 0.0
C93 C 0.6134 0.39127 0.77691 0.0
C94 C 0.60245 0.361 0.78239 0.0
C95 C 0.61691 0.34584 0.8048 0.0
P96 P 0.82968 0.69157 0.34416 0.0
H97 H 0.80759 0.74058 0.37467 0.0
H98 H 0.83346 0.78611 0.40117 0.0
H99 H 0.92299 0.76177 0.38479 0.0
H100 H 0.89675 0.71561 0.35888 0.0
H101 H 0.87693 0.70971 0.294 0.0
H102 H 0.90469 0.68266 0.25646 0.0
H103 H 0.8633 0.60162 0.30388 0.0
H104 H 0.83762 0.6292 0.34256 0.0
H105 H 0.81263 0.69491 0.41352 0.0
H106 H 0.78288 0.63808 0.3323 0.0
O107 O 0.80824 0.70378 0.31658 0.0
H108 H 0.76855 0.66954 0.445 0.0
H109 H 0.74061 0.61018 0.36463 0.0
C110 C 0.8501 0.72447 0.36489 0.0
C111 C 0.83278 0.74483 0.37702 0.0
C112 C 0.84761 0.7709 0.39223 0.0
C113 C 0.88032 0.77763 0.39517 0.0
C114 C 0.89777 0.75732 0.38277 0.0
C115 C 0.88277 0.73085 0.36802 0.0
C116 C 0.85498 0.67167 0.3212 0.0
C117 C 0.87446 0.68619 0.2968 0.0
C118 C 0.88997 0.67048 0.27489 0.0
C119 C 0.88598 0.63959 0.27633 0.0
C120 C 0.86736 0.62529 0.30175 0.0
C121 C 0.85226 0.64114 0.32396 0.0
C122 C 0.80135 0.66855 0.37031 0.0
C123 C 0.79707 0.67648 0.40255 0.0
C124 C 0.7717 0.66148 0.42087 0.0
C125 C 0.75018 0.63755 0.40773 0.0
C126 C 0.75565 0.62887 0.37577 0.0
C127 C 0.78044 0.6445 0.35722 0.0
P128 P 0.71598 0.82673 0.85331 0.0
H129 H 0.68619 0.82515 0.9165 0.0
H130 H 0.64081 0.84417 0.93554 0.0
H131 H 0.61621 0.85654 0.8373 0.0
H132 H 0.66164 0.83736 0.81838 0.0
H133 H 0.78038 0.82606 0.8667 0.0
H134 H 0.80617 0.78955 0.89007 0.0
H135 H 0.71616 0.73473 0.91136 0.0
H136 H 0.69024 0.77162 0.88753 0.0
H137 H 0.71803 0.8611 0.7952 0.0
H138 H 0.72245 0.7719 0.81918 0.0
O139 O 0.7378 0.86024 0.85887 0.0
H140 H 0.73856 0.85356 0.74145 0.0
H141 H 0.74387 0.76457 0.76569 0.0
C142 C 0.67711 0.82944 0.86602 0.0
C143 C 0.67024 0.83064 0.899 0.0
C144 C 0.64428 0.84162 0.90987 0.0
C145 C 0.6251 0.85209 0.88789 0.0
C146 C 0.63075 0.84885 0.85477 0.0
C147 C 0.65662 0.83767 0.84394 0.0
C148 C 0.73344 0.80187 0.87617 0.0
C149 C 0.76612 0.80652 0.87703 0.0
C150 C 0.78084 0.78548 0.89 0.0
C151 C 0.76313 0.75926 0.90227 0.0
C152 C 0.73029 0.75487 0.9022 0.0
C153 C 0.71551 0.77595 0.88883 0.0
C154 C 0.71955 0.8174 0.81144 0.0
C155 C 0.72236 0.83958 0.78854 0.0
C156 C 0.73396 0.83517 0.75775 0.0
C157 C 0.74322 0.80859 0.74964 0.0
C158 C 0.73714 0.78533 0.7715 0.0
C159 C 0.72504 0.78962 0.80215 0.0
P160 P 0.85183 0.27348 0.3928 0.0
H161 H 0.85495 0.33221 0.42104 0.0
H162 H 0.81492 0.35671 0.44484 0.0
H163 H 0.74533 0.27737 0.43049 0.0
H164 H 0.78534 0.25307 0.40712 0.0
H165 H 0.91276 0.25721 0.39626 0.0
H166 H 0.93196 0.22122 0.42851 0.0
H167 H 0.844 0.20367 0.48124 0.0
H168 H 0.82562 0.24047 0.44985 0.0
H169 H 0.83109 0.28658 0.32956 0.0
H170 H 0.82993 0.20934 0.3863 0.0
O171 O 0.88044 0.29898 0.37724 0.0
H172 H 0.80058 0.25607 0.28818 0.0
H173 H 0.79906 0.17902 0.34566 0.0
C174 C 0.82296 0.29105 0.41185 0.0
C175 C 0.83108 0.32012 0.42313 0.0
C176 C 0.80821 0.33409 0.43665 0.0
C177 C 0.77697 0.31899 0.4394 0.0
C178 C 0.76923 0.28951 0.42898 0.0
C179 C 0.79204 0.27568 0.41534 0.0
C180 C 0.86797 0.2518 0.42094 0.0
C181 C 0.898 0.24622 0.41541 0.0
C182 C 0.90877 0.22536 0.43361 0.0
C183 C 0.8894 0.2093 0.45727 0.0
C184 C 0.85973 0.21587 0.46356 0.0
C185 C 0.84912 0.23694 0.44553 0.0
C186 C 0.83321 0.25027 0.36078 0.0
C187 C 0.82468 0.26303 0.33289 0.0
C188 C 0.807 0.24561 0.30945 0.0
C189 C 0.79734 0.2151 0.31368 0.0
C190 C 0.8065 0.20235 0.34142 0.0
C191 C 0.82417 0.21978 0.3648 0.0
P192 P 0.36858 0.69249 0.20793 0.0
H193 H 0.34819 0.66501 0.14593 0.0
H194 H 0.29761 0.64129 0.12484 0.0
H195 H 0.2531 0.65911 0.21458 0.0
H196 H 0.30434 0.68314 0.23567 0.0
H197 H 0.42158 0.7385 0.22743 0.0
H198 H 0.43863 0.78986 0.21203 0.0
H199 H 0.35239 0.7855 0.16115 0.0
H200 H 0.33567 0.73411 0.17646 0.0
H201 H 0.36892 0.63302 0.22751 0.0
H202 H 0.38311 0.71814 0.27406 0.0
O203 O 0.39481 0.68142 0.18342 0.0
H204 H 0.38376 0.61138 0.27648 0.0
H205 H 0.39844 0.69656 0.32351 0.0
C206 C 0.33028 0.67554 0.19266 0.0
C207 C 0.32768 0.66376 0.16128 0.0
C208 C 0.29858 0.65001 0.1492 0.0
C209 C 0.2711 0.64787 0.16803 0.0
C210 C 0.27367 0.66036 0.1993 0.0
C211 C 0.30298 0.67401 0.21148 0.0
C212 C 0.37689 0.73237 0.20402 0.0
C213 C 0.40583 0.74884 0.21391 0.0
C214 C 0.41567 0.77833 0.20484 0.0
C215 C 0.39704 0.79212 0.18512 0.0
C216 C 0.36764 0.77574 0.17599 0.0
C217 C 0.35779 0.74627 0.1852 0.0
C218 C 0.37506 0.67728 0.24681 0.0
C219 C 0.37497 0.64708 0.24843 0.0
C220 C 0.38378 0.63473 0.27649 0.0
C221 C 0.39289 0.6522 0.30401 0.0
C222 C 0.39163 0.68236 0.30287 0.0
C223 C 0.38292 0.6948 0.2745 0.0
P224 P 0.16848 0.35213 0.74771 0.0
H225 H 0.19364 0.30521 0.71754 0.0
H226 H 0.17135 0.26112 0.68699 0.0
H227 H 0.08048 0.28482 0.69344 0.0
H228 H 0.10358 0.32993 0.72308 0.0
H229 H 0.22802 0.38942 0.76557 0.0
H230 H 0.27175 0.41726 0.7346 0.0
H231 H 0.22082 0.39287 0.64689 0.0
H232 H 0.17667 0.36582 0.67837 0.0
H233 H 0.10826 0.33521 0.78269 0.0
H234 H 0.17519 0.41509 0.76402 0.0
O235 O 0.18664 0.33779 0.77659 0.0
H236 H 0.08057 0.36193 0.82122 0.0
H237 H 0.14834 0.44145 0.80321 0.0
C238 C 0.15028 0.3207 0.72325 0.0
C239 C 0.16889 0.30102 0.71233 0.0
C240 C 0.15597 0.27554 0.69501 0.0
C241 C 0.12383 0.26877 0.68813 0.0
C242 C 0.1053 0.28912 0.69821 0.0
C243 C 0.11843 0.3149 0.71548 0.0
C244 C 0.19916 0.37519 0.72433 0.0
C245 C 0.22614 0.39024 0.73969 0.0
C246 C 0.25132 0.40601 0.72183 0.0
C247 C 0.25025 0.40706 0.68804 0.0
C248 C 0.2226 0.39277 0.67282 0.0
C249 C 0.19729 0.37711 0.69081 0.0
C250 C 0.14337 0.37315 0.76937 0.0
C251 C 0.11645 0.35865 0.78593 0.0
C252 C 0.10078 0.37391 0.8083 0.0
C253 C 0.11231 0.40383 0.81546 0.0
C254 C 0.13891 0.4184 0.79844 0.0
C255 C 0.15415 0.40329 0.77566 0.0
Ho256 Ho 1.01079 0.03973 0.50325 0.0
Ho257 Ho 1.00575 1.00883 0.56677 0.0
C258 C 0.03729 0.07595 0.56921 0.0
C259 C 1.01195 0.07764 0.45829 0.0
C260 C 0.03667 0.1028 0.45 0.0
C261 C 0.033 0.1215 0.42487 0.0
C262 C 0.05798 0.14383 0.41553 0.0
C263 C 0.08689 0.14745 0.43111 0.0
C264 C 0.08994 0.12932 0.45708 0.0
C265 C 0.06501 0.10724 0.46649 0.0
C266 C 0.05957 1.01403 0.51582 0.0
C267 C 0.97895 0.97251 0.50132 0.0
C268 C 1.00236 0.97041 0.61136 0.0
C269 C 0.97757 0.94431 0.61583 0.0
C270 C 0.97845 0.9246 0.64078 0.0
C271 C 0.95292 0.9015 0.64623 0.0
C272 C 0.9263 0.89803 0.62678 0.0
C273 C 0.92635 0.91706 0.60089 0.0
C274 C 0.95162 0.94007 0.59564 0.0
C275 C 0.9578 0.03562 0.55314 0.0
O276 O 0.0258 0.07679 0.53996 0.0
O277 O 0.03713 0.05053 0.58326 0.0
O278 O 0.01959 0.05204 0.45359 0.0
O279 O 0.99817 0.07959 0.48619 0.0
O280 O 0.04867 1.01601 0.48742 0.0
O281 O 0.04578 1.02779 0.53589 0.0
O282 O 0.99103 0.97184 0.53023 0.0
O283 O 0.97914 0.99786 0.48714 0.0
O284 O 0.9931 0.99535 0.61549 0.0
O285 O 0.01962 0.97008 0.58535 0.0
O286 O 0.96889 0.03466 0.58166 0.0
O287 O 0.97149 1.0209 0.53421 0.0
H288 H 1.01121 0.11833 0.41198 0.0
H289 H 0.05513 0.15744 0.39532 0.0
H290 H 0.11183 0.13187 0.46972 0.0
H291 H 0.06814 0.09303 0.48609 0.0
H292 H 0.99831 0.92764 0.65662 0.0
H293 H 0.95335 0.88732 0.66657 0.0
H294 H 0.90633 0.91476 0.58533 0.0
H295 H 0.95038 0.95523 0.5764 0.0
Ho296 Ho 0.53306 0.04088 0.06496 0.0
Ho297 Ho 0.46163 1.02049 0.03719 0.0
C298 C 0.47529 0.06622 0.09706 0.0
C299 C 0.58931 0.06919 0.07477 0.0
C300 C 0.61094 0.07737 0.10139 0.0
C301 C 0.64179 0.09134 0.09456 0.0
C302 C 0.66219 0.10167 0.1195 0.0
C303 C 0.65203 0.0982 0.15176 0.0
C304 C 0.62124 0.08334 0.15849 0.0
C305 C 0.60082 0.07298 0.13345 0.0
C306 C 0.49857 0.9931 0.0965 0.0
C307 C 0.51882 0.99464 1.00591 0.0
C308 C 0.40671 0.9938 1.02079 0.0
C309 C 0.39222 0.99126 0.98877 0.0
C310 C 0.38547 0.96377 0.97306 0.0
C311 C 0.37841 0.96182 0.94034 0.0
C312 C 0.37783 0.98735 0.92278 0.0
C313 C 0.38219 1.01457 0.93915 0.0
C314 C 0.38942 1.01654 0.97176 0.0
C315 C 0.49701 0.06733 1.0045 0.0
O316 O 0.50592 0.07018 0.09163 0.0
O317 O 0.45456 0.0453 0.08274 0.0
O318 O 0.58264 0.04123 0.06675 0.0
O319 O 0.56483 0.08163 0.07523 0.0
O320 O 0.52753 1.00474 0.10279 0.0
O321 O 0.49051 1.00875 0.07508 0.0
O322 O 0.48848 0.98972 1.01274 0.0
O323 O 0.53923 1.01658 1.01887 0.0
O324 O 0.41213 1.02004 0.03436 0.0
O325 O 0.43023 0.98027 1.02339 0.0
O326 O 0.46817 0.05573 0.99806 0.0
O327 O 0.50429 0.05239 1.02696 0.0
H328 H 0.64986 0.09498 0.06988 0.0
H329 H 0.68556 0.11337 0.11346 0.0
H330 H 0.61284 0.08005 0.18309 0.0
H331 H 0.577 0.06216 0.13906 0.0
H332 H 0.38751 0.94398 0.98561 0.0
H333 H 0.3753 0.94052 0.92844 0.0
H334 H 0.38122 0.03456 0.92646 0.0
H335 H 0.39436 0.0381 0.98311 0.0
Ho336 Ho 0.49905 0.49964 0.5246 0.0
Ho337 Ho 0.49673 0.54978 0.5687 0.0
C338 C 0.52523 0.49865 0.59743 0.0
C339 C 0.51634 0.45881 0.48973 0.0
C340 C 0.54219 0.44292 0.49051 0.0
C341 C 0.56737 0.45209 0.51122 0.0
C342 C 0.59272 0.43783 0.51054 0.0
C343 C 0.59338 0.41428 0.48896 0.0
C344 C 0.56777 0.40491 0.46863 0.0
C345 C 0.54237 0.41912 0.46945 0.0
C346 C 0.44343 0.49565 0.55609 0.0
C347 C 0.4707 0.55135 0.49489 0.0
C348 C 0.48001 0.59137 0.60264 0.0
C349 C 0.47061 0.61932 0.59559 0.0
C350 C 0.45157 0.62181 0.5693 0.0
C351 C 0.44296 0.64856 0.56293 0.0
C352 C 0.45321 0.67332 0.58275 0.0
C353 C 0.47247 0.67076 0.60891 0.0
C354 C 0.48106 0.64399 0.61524 0.0
C355 C 0.55223 0.55331 0.53691 0.0
O356 O 0.52887 0.49137 0.56681 0.0
O357 O 0.50887 0.5189 0.60512 0.0
O358 O 0.49568 0.45341 0.5131 0.0
O359 O 0.52446 0.48683 0.48357 0.0
O360 O 0.44642 0.48773 0.52632 0.0
O361 O 0.47018 0.50429 0.56793 0.0
O362 O 0.47328 0.56329 0.52419 0.0
O363 O 0.48054 0.52674 0.48834 0.0
O364 O 0.50922 0.5903 0.59631 0.0
O365 O 0.46066 0.56735 0.59386 0.0
O366 O 0.54959 0.56091 0.56683 0.0
O367 O 0.52536 0.5452 0.52529 0.0
H368 H 0.56771 0.47057 0.52751 0.0
H369 H 0.61187 0.44536 0.52678 0.0
H370 H 0.56772 0.38715 0.45139 0.0
H371 H 0.52316 0.41191 0.45318 0.0
H372 H 0.44313 0.60305 0.55379 0.0
H373 H 0.42783 0.64969 0.54283 0.0
H374 H 0.48113 0.68952 0.62435 0.0
H375 H 0.49593 0.64255 0.63551 0.0
Ho376 Ho 1.00712 0.48846 0.06391 0.0
Ho377 Ho 0.99694 0.55038 0.03757 0.0
C378 C 0.06255 0.5479 0.07163 0.0
C379 C 0.02985 0.44272 0.07636 0.0
C380 C 0.06131 0.43763 0.08399 0.0
C381 C 0.07725 0.42243 0.06194 0.0
C382 C 0.10696 0.41736 0.06889 0.0
C383 C 0.12129 0.42723 0.09817 0.0
C384 C 0.10531 0.44256 0.12015 0.0
C385 C 0.07573 0.44776 0.11313 0.0
C386 C 0.97549 0.52023 0.10282 0.0
C387 C 0.94452 0.49012 1.02456 0.0
C388 C 0.97559 0.5983 0.03718 0.0
C389 C 0.95132 0.61096 1.02152 0.0
C390 C 0.92614 0.61671 0.04034 0.0
C391 C 0.90294 0.62918 1.02679 0.0
C392 C 0.90458 0.63661 0.99411 0.0
C393 C 0.92972 0.63066 0.97513 0.0
C394 C 0.95291 0.61792 0.9887 0.0
C395 C 0.02003 0.51812 0.99064 0.0
O396 O 0.05402 0.51874 0.07292 0.0
O397 O 0.04397 0.56483 0.06052 0.0
O398 O 0.01608 0.45675 0.09808 0.0
O399 O 0.02608 0.45114 0.04703 0.0
O400 O 0.96947 0.49162 0.10123 0.0
O401 O 0.99867 0.53006 0.08476 0.0
O402 O 0.95102 0.51933 1.02706 0.0
O403 O 0.96392 0.47345 0.03445 0.0
O404 O 1.00032 0.59472 1.02019 0.0
O405 O 0.96496 0.57631 0.05635 0.0
O406 O 1.01302 0.54367 0.98556 0.0
O407 O 0.0138 0.51244 1.01972 0.0
H408 H 0.06671 0.41444 0.03927 0.0
H409 H 0.11873 0.40579 0.05125 0.0
H410 H 0.11533 0.45004 0.14317 0.0
H411 H 0.06414 0.45955 0.13071 0.0
H412 H 0.92441 0.6116 0.06574 0.0
H413 H 0.88368 0.63299 0.04201 0.0
H414 H 0.93189 0.63644 0.94995 0.0
H415 H 0.97212 0.61382 0.97361 0.0
H416 H 0.21161 0.2759 0.31739 0.0
H417 H 0.27411 0.2373 0.37493 0.0
H418 H 0.16704 0.24779 0.34635 0.0
H419 H 0.22966 0.21098 0.40561 0.0
H420 H 0.14479 0.13662 0.41865 0.0
H421 H 0.18998 0.16969 0.39624 0.0
H422 H 0.13697 0.23914 0.39418 0.0
H423 H 0.09119 0.20532 0.41567 0.0
C424 C 0.21591 0.26169 0.33649 0.0
C425 C 0.24651 0.25847 0.34334 0.0
C426 C 0.19029 0.24588 0.35349 0.0
C427 C 0.19464 0.22677 0.37812 0.0
C428 C 0.22535 0.22496 0.3863 0.0
C429 C 0.25095 0.24045 0.36899 0.0
C430 C 0.14293 0.15907 0.41375 0.0
C431 C 0.11455 0.16846 0.41893 0.0
C432 C 0.16891 0.17814 0.40105 0.0
C433 C 0.1673 0.20724 0.39354 0.0
C434 C 0.13897 0.21679 0.39928 0.0
C435 C 0.11277 0.19751 0.41165 0.0
H436 H 0.3793 0.92694 0.72521 0.0
H437 H 0.38122 1.01995 0.71638 0.0
H438 H 0.37641 0.93176 0.78359 0.0
H439 H 0.37851 1.02477 0.7748 0.0
H440 H 0.41148 1.02525 0.8797 0.0
H441 H 0.41132 1.02152 0.82133 0.0
H442 H 0.34026 0.94226 0.82654 0.0
H443 H 0.34022 0.94607 0.88522 0.0
C444 C 0.37892 0.94838 0.73572 0.0
C445 C 0.38053 0.97308 0.71615 0.0
C446 C 0.37718 0.95112 0.76916 0.0
C447 C 0.37709 0.97861 0.78378 0.0
C448 C 0.37888 1.00334 0.76424 0.0
C449 C 0.38055 1.0006 0.73079 0.0
C450 C 0.39532 1.00734 0.86845 0.0
C451 C 0.37574 0.98601 0.88716 0.0
C452 C 0.39532 1.00517 0.83496 0.0
C453 C 0.37585 0.98157 0.81933 0.0
C454 C 0.35586 0.96048 0.83794 0.0
C455 C 0.3558 0.96268 0.87152 0.0
H456 H 0.60443 0.44866 0.77658 0.0
H457 H 0.59178 0.37003 0.71732 0.0
H458 H 0.58477 0.4746 0.73351 0.0
H459 H 0.57067 0.39554 0.67488 0.0
H460 H 0.56212 0.45686 0.59163 0.0
H461 H 0.58339 0.43156 0.6344 0.0
H462 H 0.5396 0.47971 0.70552 0.0
H463 H 0.51914 0.50546 0.66284 0.0
C464 C 0.59743 0.43677 0.75444 0.0
C465 C 0.59985 0.40704 0.75081 0.0
C466 C 0.58572 0.45165 0.7297 0.0
C467 C 0.57594 0.43737 0.70035 0.0
C468 C 0.57823 0.4076 0.69677 0.0
C469 C 0.58997 0.39273 0.72151 0.0
C470 C 0.55711 0.46216 0.61638 0.0
C471 C 0.53887 0.48338 0.62356 0.0
C472 C 0.56917 0.44742 0.64107 0.0
C473 C 0.56334 0.45335 0.67378 0.0
C474 C 0.54516 0.47469 0.68084 0.0
C475 C 0.5332 0.48944 0.65619 0.0
H476 H 0.89681 0.65222 0.21184 0.0
H477 H 0.90709 0.58735 0.28221 0.0
H478 H 0.91871 0.62416 0.1705 0.0
H479 H 0.92768 0.55876 0.24028 0.0
H480 H 0.92979 0.50093 0.14784 0.0
H481 H 0.9089 0.5297 0.18975 0.0
H482 H 0.96975 0.6086 0.15577 0.0
H483 H 0.99119 0.57972 0.11441 0.0
C484 C 0.90398 0.63221 0.2188 0.0
C485 C 0.90007 0.62239 0.25085 0.0
C486 C 0.91641 0.61597 0.19485 0.0
C487 C 0.92489 0.58911 0.20194 0.0
C488 C 0.92101 0.57916 0.23383 0.0
C489 C 0.90902 0.59561 0.25793 0.0
C490 C 0.93867 0.52443 0.14926 0.0
C491 C 0.96192 0.53803 0.12747 0.0
C492 C 0.92681 0.54091 0.17341 0.0
C493 C 0.93758 0.57152 0.17618 0.0
C494 C 0.96065 0.58515 0.15416 0.0
C495 C 0.97289 0.56858 0.13036 0.0
H496 H 0.3745 0.17181 0.22164 0.0
H497 H 0.44378 0.23241 0.16756 0.0
H498 H 0.39392 0.13053 0.19731 0.0
H499 H 0.4634 0.1912 0.14374 0.0
H500 H 0.50981 0.11328 0.12911 0.0
H501 H 0.49079 0.15181 0.15906 0.0
H502 H 0.39555 0.10701 0.14325 0.0
H503 H 0.41445 0.06814 0.11342 0.0
C504 C 0.39377 0.17635 0.20449 0.0
C505 C 0.40755 0.20548 0.19654 0.0
C506 C 0.40493 0.15269 0.19064 0.0
C507 C 0.43024 0.15761 0.16871 0.0
C508 C 0.4442 0.1867 0.16099 0.0
C509 C 0.43295 0.21034 0.17468 0.0
C510 C 0.48479 0.11136 0.13226 0.0
C511 C 0.46367 0.08765 0.11856 0.0
C512 C 0.47392 0.13359 0.14929 0.0
C513 C 0.44169 0.13262 0.15318 0.0
C514 C 0.42054 0.1083 0.14077 0.0
C515 C 0.43141 0.08606 0.12359 0.0
H516 H 0.2507 0.99304 0.49422 0.0
H517 H 0.22636 0.9634 0.59094 0.0
H518 H 0.19731 1.0 0.48667 0.0
H519 H 0.17288 0.96985 0.58334 0.0
H520 H 0.09278 0.98665 0.4736 0.0
H521 H 0.14394 0.97439 0.4814 0.0
H522 H 0.14511 1.00942 0.57846 0.0
H523 H 0.09349 1.02084 0.57084 0.0
C524 C 0.23379 0.98761 0.51367 0.0
C525 C 0.24271 0.97789 0.54322 0.0
C526 C 0.20319 0.99153 0.50938 0.0
C527 C 0.18084 0.9856 0.53448 0.0
C528 C 0.18965 0.97516 0.56374 0.0
C529 C 0.22025 0.97141 0.56808 0.0
C530 C 0.10392 0.99148 0.49667 0.0
C531 C 0.08937 1.00483 0.52157 0.0
C532 C 0.13329 0.98465 0.50108 0.0
C533 C 0.14876 0.99114 0.53045 0.0
C534 C 0.13372 1.00383 0.55564 0.0
C535 C 0.10424 1.01052 0.55127 0.0
H536 H 0.78562 0.44594 0.89572 0.0
H537 H 0.77181 0.37237 0.96024 0.0
H538 H 0.83222 0.46898 0.92487 0.0
H539 H 0.81784 0.39599 0.99021 0.0
H540 H 0.922 0.43107 1.01318 0.0
H541 H 0.87408 0.40796 0.986 0.0
H542 H 0.85045 0.49318 0.97414 0.0
H543 H 0.89855 0.51632 1.00071 0.0
C544 C 0.79241 0.43464 0.91618 0.0
C545 C 0.77478 0.40711 0.92538 0.0
C546 C 0.81907 0.44809 0.93322 0.0
C547 C 0.82908 0.43446 0.96004 0.0
C548 C 0.81123 0.40709 0.96951 0.0
C549 C 0.78448 0.39366 0.9525 0.0
C550 C 0.90657 0.44493 1.00491 0.0
C551 C 0.91443 0.47568 1.00921 0.0
C552 C 0.87888 0.4316 0.98941 0.0
C553 C 0.85817 0.44858 0.97765 0.0
C554 C 0.86589 0.4793 0.98233 0.0
C555 C 0.89353 0.49262 0.99785 0.0
H556 H 0.69269 0.60839 0.3851 0.0
H557 H 0.74184 0.63242 0.474 0.0
H558 H 0.64719 0.58478 0.4151 0.0
H559 H 0.69491 0.61225 0.50404 0.0
H560 H 0.61252 0.55752 0.5557 0.0
H561 H 0.66034 0.57448 0.52452 0.0
H562 H 0.60469 0.58974 0.44365 0.0
H563 H 0.55738 0.57026 0.47421 0.0
C564 C 0.69411 0.60877 0.41104 0.0
C565 C 0.72168 0.62263 0.42667 0.0
C566 C 0.66731 0.59565 0.42853 0.0
C567 C 0.66653 0.59661 0.46244 0.0
C568 C 0.69413 0.61038 0.4781 0.0
C569 C 0.72125 0.62273 0.4606 0.0
C570 C 0.61073 0.56419 0.53108 0.0
C571 C 0.58126 0.56249 0.51738 0.0
C572 C 0.63822 0.57434 0.51313 0.0
C573 C 0.63705 0.584 0.48121 0.0
C574 C 0.60721 0.58205 0.46767 0.0
C575 C 0.5798 0.57104 0.48533 0.0
H576 H 0.26954 0.39546 0.2143 0.0
H577 H 0.29332 0.35922 0.12283 0.0
H578 H 0.22809 0.41443 0.18902 0.0
H579 H 0.25085 0.37762 0.09775 0.0
H580 H 0.14312 0.37663 0.08578 0.0
H581 H 0.19184 0.36437 0.10354 0.0
H582 H 0.21794 0.45031 0.14792 0.0
H583 H 0.16955 0.46297 0.12953 0.0
C584 C 0.2665 0.3921 0.18864 0.0
C585 C 0.28495 0.37578 0.17065 0.0
C586 C 0.24256 0.40291 0.17418 0.0
C587 C 0.2362 0.39746 0.14143 0.0
C588 C 0.25507 0.38189 0.12313 0.0
C589 C 0.27932 0.3713 0.13755 0.0
C590 C 0.15953 0.3932 0.09865 0.0
C591 C 0.15223 0.42071 0.10646 0.0
C592 C 0.18746 0.38614 0.10884 0.0
C593 C 0.20859 0.40633 0.12726 0.0
C594 C 0.20187 0.43419 0.13411 0.0
C595 C 0.17408 0.44135 0.1237 0.0
H596 H 0.54965 0.23751 0.9096 0.0
H597 H 0.63851 0.21491 0.93055 0.0
H598 H 0.52274 0.19309 0.93603 0.0
H599 H 0.61161 0.16944 0.95473 0.0
H600 H 0.55562 0.09896 1.02012 0.0
H601 H 0.58318 0.14537 0.99739 0.0
H602 H 0.50788 0.14273 0.93057 0.0
H603 H 0.47996 0.09752 0.95476 0.0
C604 C 0.5636 0.2232 0.91983 0.0
C605 C 0.5965 0.23015 0.91748 0.0
C606 C 0.54803 0.19721 0.93464 0.0
C607 C 0.56471 0.17699 0.94743 0.0
C608 C 0.59763 0.18422 0.94557 0.0
C609 C 0.6132 0.21034 0.93107 0.0
C610 C 0.54495 0.10848 1.00082 0.0
C611 C 0.51541 0.09464 0.98967 0.0
C612 C 0.56088 0.13508 0.9874 0.0
C613 C 0.54789 0.14843 0.96204 0.0
C614 C 0.51856 0.13397 0.95051 0.0
C615 C 0.50257 0.10768 0.96421 0.0
H616 H 0.93137 0.81787 0.37389 0.0
H617 H 0.8641 0.80149 0.4521 0.0
H618 H 0.95512 0.86513 0.39891 0.0
H619 H 0.88787 0.84848 0.47713 0.0
H620 H 0.96212 0.91831 0.5287 0.0
H621 H 0.93896 0.87162 0.50311 0.0
H622 H 0.94021 0.91496 0.41197 0.0
H623 H 0.96309 0.96207 0.43775 0.0
C624 C 0.92181 0.82425 0.39653 0.0
C625 C 0.89583 0.80587 0.41097 0.0
C626 C 0.93523 0.85144 0.41072 0.0
C627 C 0.92337 0.86067 0.44002 0.0
C628 C 0.89771 0.84203 0.45467 0.0
C629 C 0.88398 0.81515 0.44023 0.0
C630 C 0.95739 0.91804 0.50323 0.0
C631 C 0.96442 0.94413 0.48537 0.0
C632 C 0.944 0.89119 0.48856 0.0
C633 C 0.93771 0.88946 0.45546 0.0
C634 C 0.94496 0.91546 0.43747 0.0
C635 C 0.95789 0.9425 0.45229 0.0
H636 H 0.43676 0.8466 0.51652 0.0
H637 H 0.36386 0.82458 0.58889 0.0
H638 H 0.45057 0.79856 0.52301 0.0
H639 H 0.37671 0.77629 0.59429 0.0
H640 H 0.43497 0.71111 0.62679 0.0
H641 H 0.41948 0.7577 0.61699 0.0
H642 H 0.43243 0.74561 0.51475 0.0
H643 H 0.44921 0.6994 0.52468 0.0
C644 C 0.42348 0.83142 0.53354 0.0
C645 C 0.39929 0.8395 0.55225 0.0
C646 C 0.43119 0.80379 0.53704 0.0
C647 C 0.41489 0.7837 0.55936 0.0
C648 C 0.39004 0.79144 0.57725 0.0
C649 C 0.38237 0.819 0.57379 0.0
C650 C 0.43483 0.7185 0.60223 0.0
C651 C 0.44343 0.70158 0.57654 0.0
C652 C 0.42554 0.74503 0.59657 0.0
C653 C 0.42453 0.75528 0.56506 0.0
C654 C 0.43315 0.7384 0.53931 0.0
C655 C 0.44245 0.7118 0.54499 0.0
H656 H 0.7369 0.82451 0.6873 0.0
H657 H 0.79954 0.79264 0.75077 0.0
H658 H 0.77942 0.83748 0.64789 0.0
H659 H 0.84219 0.80681 0.71261 0.0
H660 H 0.86763 0.90908 0.62957 0.0
H661 H 0.82065 0.87806 0.65028 0.0
H662 H 0.87148 0.80827 0.66464 0.0
H663 H 0.91927 0.84024 0.64455 0.0
C664 C 0.75955 0.81954 0.69237 0.0
C665 C 0.76507 0.80794 0.72216 0.0
C666 C 0.78401 0.8272 0.67 0.0
C667 C 0.81456 0.8241 0.67745 0.0
C668 C 0.81911 0.80952 0.70583 0.0
C669 C 0.79455 0.80137 0.72786 0.0
C670 C 0.86868 0.88686 0.63638 0.0
C671 C 0.89717 0.87714 0.6356 0.0
C672 C 0.84155 0.86886 0.64811 0.0
C673 C 0.84206 0.84049 0.65921 0.0
C674 C 0.87028 0.83013 0.65674 0.0
C675 C 0.89765 0.84838 0.64527 0.0
H676 H 0.80012 0.15988 0.2909 0.0
H677 H 0.74719 0.22888 0.2835 0.0
H678 H 0.76426 0.12915 0.25402 0.0
H679 H 0.7122 0.19872 0.24575 0.0
H680 H 0.63664 0.12819 0.20477 0.0
H681 H 0.67165 0.15452 0.24514 0.0
H682 H 0.74999 0.12687 0.19744 0.0
H683 H 0.71474 0.09948 0.15777 0.0
C684 C 0.78088 0.1685 0.28136 0.0
C685 C 0.77653 0.19684 0.2901 0.0
C686 C 0.7605 0.151 0.26004 0.0
C687 C 0.7353 0.16144 0.24708 0.0
C688 C 0.73111 0.18984 0.25568 0.0
C689 C 0.75145 0.20732 0.27695 0.0
C690 C 0.66122 0.12719 0.20327 0.0
C691 C 0.67292 0.11184 0.17797 0.0
C692 C 0.68135 0.14262 0.22616 0.0
C693 C 0.71365 0.1431 0.22426 0.0
C694 C 0.72521 0.12686 0.19966 0.0
C695 C 0.70506 0.1114 0.17676 0.0
H696 H 0.38073 0.6614 0.36861 0.0
H697 H 0.43211 0.61287 0.30537 0.0
H698 H 0.39829 0.63764 0.41509 0.0
H699 H 0.45017 0.58974 0.35139 0.0
H700 H 0.45371 0.52967 0.43472 0.0
H701 H 0.43451 0.55421 0.39041 0.0
H702 H 0.44003 0.63268 0.44918 0.0
H703 H 0.45841 0.60757 0.49403 0.0
C704 C 0.396 0.64588 0.36459 0.0
C705 C 0.40458 0.63887 0.33302 0.0
C706 C 0.40619 0.63222 0.39133 0.0
C707 C 0.42549 0.61127 0.38736 0.0
C708 C 0.43465 0.60497 0.35575 0.0
C709 C 0.42431 0.6184 0.32915 0.0
C710 C 0.45077 0.55214 0.43836 0.0
C711 C 0.45775 0.56651 0.46818 0.0
C712 C 0.43992 0.56643 0.41268 0.0
C713 C 0.43591 0.59579 0.41567 0.0
C714 C 0.44243 0.61005 0.44574 0.0
C715 C 0.45313 0.59562 0.47159 0.0
H716 H 0.1416 0.4369 0.86527 0.0
H717 H 0.05025 0.40591 0.82531 0.0
H718 H 0.11833 0.46257 0.90836 0.0
H719 H 0.02698 0.43212 0.86815 0.0
H720 H 1.00955 0.51622 0.92633 0.0
H721 H 0.03055 0.48718 0.8847 0.0
H722 H 0.07976 0.44962 0.95713 0.0
H723 H 0.0583 0.47847 0.99884 0.0
C724 C 0.11654 0.43568 0.86561 0.0
C725 C 0.09781 0.41943 0.84172 0.0
C726 C 0.10318 0.4502 0.89046 0.0
C727 C 0.07078 0.44941 0.89176 0.0
C728 C 0.05203 0.43327 0.8678 0.0
C729 C 0.06533 0.41817 0.84332 0.0
C730 C 0.0246 0.50152 0.93339 0.0
C731 C 0.03192 0.49932 0.96593 0.0
C732 C 0.03654 0.48481 0.90955 0.0
C733 C 0.0568 0.46599 0.91753 0.0
C734 C 0.06423 0.46389 0.95014 0.0
C735 C 0.05169 0.48015 0.9741 0.0
H736 H 0.61805 0.9049 0.86494 0.0
H737 H 0.58283 0.84114 0.93799 0.0
H738 H 0.58844 0.93911 0.8895 0.0
H739 H 0.5534 0.87565 0.96281 0.0
H740 H 0.4886 0.93988 0.98658 0.0
H741 H 0.5098 0.90405 0.95379 0.0
H742 H 0.59689 0.96646 0.94278 0.0
H743 H 0.57589 1.00228 0.97555 0.0
C744 C 0.60332 0.89788 0.88575 0.0
C745 C 0.60277 0.87033 0.89959 0.0
C746 C 0.58666 0.91761 0.89998 0.0
C747 C 0.56891 0.91013 0.92819 0.0
C748 C 0.56682 0.88193 0.94097 0.0
C749 C 0.58375 0.86226 0.9269 0.0
C750 C 0.51214 0.94611 0.97685 0.0
C751 C 0.53063 0.97391 0.98379 0.0
C752 C 0.52428 0.92552 0.95822 0.0
C753 C 0.55494 0.93249 0.94578 0.0
C754 C 0.57304 0.96061 0.9518 0.0
C755 C 0.56108 0.98105 0.97075 0.0
H756 H 0.87939 0.19228 0.52023 0.0
H757 H 0.92058 0.16909 0.43052 0.0
H758 H 0.89181 0.14876 0.54504 0.0
H759 H 0.93455 0.12684 0.45573 0.0
H760 H 0.92842 0.03774 0.49675 0.0
H761 H 0.9097 0.0795 0.47506 0.0
H762 H 0.93561 0.12876 0.56291 0.0
H763 H 0.9533 0.0865 0.58489 0.0
C764 C 0.89123 0.17802 0.50586 0.0
C765 C 0.89898 0.18422 0.47337 0.0
C766 C 0.89858 0.15323 0.52015 0.0
C767 C 0.9139 0.13416 0.50228 0.0
C768 C 0.92216 0.14071 0.47002 0.0
C769 C 0.91466 0.16531 0.45571 0.0
C770 C 0.92948 0.05732 0.51158 0.0
C771 C 0.94231 0.05904 0.54236 0.0
C772 C 0.9191 0.08134 0.49909 0.0
C773 C 0.92166 0.10765 0.51705 0.0
C774 C 0.93313 0.10878 0.54853 0.0
C775 C 0.94326 0.08461 0.56113 0.0
H776 H 0.21373 0.66402 0.17429 0.0
H777 H 0.25811 0.597 0.13174 0.0
H778 H 0.16384 0.63973 0.15145 0.0
H779 H 0.20859 0.57324 0.1082 0.0
H780 H 0.10782 0.52165 0.09718 0.0
H781 H 0.15724 0.54524 0.12115 0.0
H782 H 0.13748 0.63053 0.10044 0.0
H783 H 0.08784 0.607 0.0769 0.0
C784 C 0.21288 0.64405 0.1602 0.0
C785 C 0.24016 0.63263 0.15486 0.0
C786 C 0.18427 0.63025 0.14675 0.0
C787 C 0.182 0.60448 0.12774 0.0
C788 C 0.2092 0.59286 0.12284 0.0
C789 C 0.23779 0.60673 0.13611 0.0
C790 C 0.11398 0.54544 0.09757 0.0
C791 C 0.0936 0.56231 0.08495 0.0
C792 C 0.14251 0.55903 0.11128 0.0
C793 C 0.15154 0.58991 0.11293 0.0
C794 C 0.13124 0.60675 0.10012 0.0
C795 C 0.10277 0.59317 0.08631 0.0
H796 H 0.3124 0.40854 0.69949 0.0
H797 H 0.25187 0.43967 0.63282 0.0
H798 H 0.3579 0.43226 0.66836 0.0
H799 H 0.2976 0.46322 0.60142 0.0
H800 H 0.38536 0.47046 0.53458 0.0
H801 H 0.33853 0.45082 0.56649 0.0
H802 H 0.38871 0.47979 0.65351 0.0
H803 H 0.43568 0.49907 0.62148 0.0
C804 C 0.3087 0.42077 0.67844 0.0
C805 C 0.27821 0.42216 0.6689 0.0
C806 C 0.33494 0.43442 0.6605 0.0
C807 C 0.33159 0.44981 0.63232 0.0
C808 C 0.30114 0.45128 0.62275 0.0
C809 C 0.27484 0.4377 0.64078 0.0
C810 C 0.3863 0.47284 0.56052 0.0
C811 C 0.4143 0.48617 0.57549 0.0
C812 C 0.35937 0.46169 0.57885 0.0
C813 C 0.35974 0.46348 0.61269 0.0
C814 C 0.38762 0.47756 0.62757 0.0
C815 C 0.41452 0.48882 0.60921 0.0
H816 H 0.753 0.72978 0.95909 0.0
H817 H 0.80993 0.73773 0.87245 0.0
H818 H 0.78399 0.69625 0.98101 0.0
H819 H 0.84105 0.70468 0.89436 0.0
H820 H 0.87747 0.62757 0.93476 0.0
H821 H 0.83941 0.6533 0.91184 0.0
H822 H 0.83926 0.70439 0.99956 0.0
H823 H 0.87755 0.67924 1.02223 0.0
C824 C 0.77183 0.724 0.94461 0.0
C825 C 0.77935 0.73654 0.91429 0.0
C826 C 0.78967 0.70502 0.95718 0.0
C827 C 0.81505 0.69803 0.93946 0.0
C828 C 0.82153 0.70949 0.90849 0.0
C829 C 0.80392 0.72862 0.89608 0.0
C830 C 0.8694 0.64437 0.94909 0.0
C831 C 0.88061 0.65135 0.98032 0.0
C832 C 0.8475 0.65897 0.93603 0.0
C833 C 0.83626 0.68073 0.95399 0.0
C834 C 0.84703 0.68733 0.98537 0.0
C835 C 0.86902 0.6729 0.99834 0.0
H836 H 0.43149 0.83984 0.21727 0.0
H837 H 0.38984 0.81438 0.12514 0.0
H838 H 0.45333 0.88858 0.19669 0.0
H839 H 0.41185 0.86317 0.10445 0.0
H840 H 0.43843 0.96291 0.08357 0.0
H841 H 0.41178 0.91541 0.10545 0.0
H842 H 0.49346 0.9118 0.16124 0.0
H843 H 0.51943 0.95893 0.13986 0.0
C844 C 0.42703 0.84452 0.19256 0.0
C845 C 0.40892 0.82282 0.17297 0.0
C846 C 0.43965 0.87262 0.18066 0.0
C847 C 0.43474 0.88006 0.14866 0.0
C848 C 0.41596 0.8586 0.12928 0.0
C849 C 0.40327 0.83047 0.14123 0.0
C850 C 0.45054 0.95191 0.10055 0.0
C851 C 0.48108 0.96475 0.10989 0.0
C852 C 0.43535 0.92458 0.11306 0.0
C853 C 0.45028 0.90952 0.13538 0.0
C854 C 0.48078 0.9227 0.14468 0.0
C855 C 0.49585 0.94979 0.13219 0.0
H856 H 0.07674 0.25808 0.64314 0.0
H857 H 0.1395 0.21458 0.69431 0.0
H858 H 0.05538 0.21196 0.61521 0.0
H859 H 0.11951 0.16917 0.66527 0.0
H860 H 0.05749 0.08383 0.63152 0.0
H861 H 0.0767 0.12982 0.66029 0.0
H862 H 0.0662 0.17836 0.57477 0.0
H863 H 0.04607 0.13231 0.54631 0.0
C864 C 0.08602 0.23876 0.64853 0.0
C865 C 0.11009 0.24041 0.67103 0.0
C866 C 0.07402 0.21227 0.63213 0.0
C867 C 0.08566 0.18654 0.63771 0.0
C868 C 0.10953 0.1882 0.66041 0.0
C869 C 0.12141 0.21458 0.67683 0.0
C870 C 0.05934 0.10428 0.61877 0.0
C871 C 0.05023 0.10417 0.58648 0.0
C872 C 0.07055 0.13081 0.63529 0.0
C873 C 0.0732 0.15814 0.62003 0.0
C874 C 0.06414 0.15797 0.58765 0.0
C875 C 0.05279 0.13142 0.57117 0.0
H876 H 0.76865 0.37386 0.42432 0.0
H877 H 0.729 0.29828 0.48148 0.0
H878 H 0.72526 0.39716 0.4401 0.0
H879 H 0.68564 0.32173 0.49763 0.0
H880 H 0.59473 0.35582 0.48107 0.0
H881 H 0.64037 0.33364 0.47241 0.0
H882 H 0.70075 0.41892 0.48411 0.0
H883 H 0.65506 0.4413 0.49119 0.0
C884 C 0.75097 0.36249 0.4408 0.0
C885 C 0.75215 0.3342 0.45155 0.0
C886 C 0.72609 0.37584 0.44988 0.0
C887 C 0.70189 0.36125 0.47003 0.0
C888 C 0.70362 0.33334 0.48163 0.0
C889 C 0.72846 0.31994 0.47244 0.0
C890 C 0.61774 0.36984 0.48171 0.0
C891 C 0.62121 0.40036 0.48658 0.0
C892 C 0.64394 0.35708 0.47716 0.0
C893 C 0.67423 0.37452 0.47748 0.0
C894 C 0.67773 0.40491 0.48332 0.0
C895 C 0.65153 0.41769 0.48778 0.0
loop_
_geom_bond_atom_site_label_1
_geom_bond_atom_site_label_2
_geom_bond_distance
_geom_bond_site_symmetry_2
_ccdc_geom_bond_type
P0 O11 1.490 . S
P0 C14 1.812 . S
P0 C20 1.803 . S
P0 C26 1.819 . S
H1 C15 0.941 . S
H2 C16 0.939 . S
H3 C18 0.940 . S
H4 C19 0.940 . S
H5 C21 0.939 . S
H6 C22 0.942 . S
H7 C24 0.940 . S
H8 C25 0.939 . S
H9 C27 0.941 . S
H10 C31 0.939 . S
O11 P0 1.490 . S
H12 C28 0.939 . S
H13 C30 0.940 . S
C14 P0 1.812 . S
C14 C15 1.389 . S
C14 C19 1.391 . S
C15 H1 0.941 . S
C15 C14 1.389 . S
C15 C16 1.397 . S
C16 H2 0.939 . S
C16 C15 1.397 . S
C16 C17 1.378 . S
C17 C16 1.378 . S
C17 C18 1.378 . S
C18 H3 0.940 . S
C18 C17 1.378 . S
C18 C19 1.396 . S
C19 H4 0.940 . S
C19 C14 1.391 . S
C19 C18 1.396 . S
C20 P0 1.803 . S
C20 C21 1.378 . S
C20 C25 1.400 . S
C21 H5 0.939 . S
C21 C20 1.378 . S
C21 C22 1.361 . S
C22 H6 0.942 . S
C22 C21 1.361 . S
C22 C23 1.369 . S
C23 C22 1.369 . S
C23 C24 1.404 . S
C24 H7 0.940 . S
C24 C23 1.404 . S
C24 C25 1.389 . S
C25 H8 0.939 . S
C25 C20 1.400 . S
C25 C24 1.389 . S
C26 P0 1.819 . S
C26 C27 1.391 . S
C26 C31 1.391 . S
C27 H9 0.941 . S
C27 C26 1.391 . S
C27 C28 1.396 . S
C28 H12 0.939 . S
C28 C27 1.396 . S
C28 C29 1.397 . S
C29 C28 1.397 . S
C29 C30 1.385 . S
C30 H13 0.940 . S
C30 C29 1.385 . S
C30 C31 1.388 . S
C31 H10 0.939 . S
C31 C26 1.391 . S
C31 C30 1.388 . S
P32 O43 1.490 . S
P32 C46 1.812 . S
P32 C52 1.803 . S
P32 C58 1.819 . S
H33 C47 0.941 . S
H34 C48 0.939 . S
H35 C50 0.940 . S
H36 C51 0.940 . S
H37 C53 0.939 . S
H38 C54 0.942 . S
H39 C56 0.940 . S
H40 C57 0.939 . S
H41 C59 0.941 . S
H42 C63 0.939 . S
O43 P32 1.490 . S
H44 C60 0.939 . S
H45 C62 0.940 . S
C46 P32 1.812 . S
C46 C47 1.389 . S
C46 C51 1.391 . S
C47 H33 0.941 . S
C47 C46 1.389 . S
C47 C48 1.397 . S
C48 H34 0.939 . S
C48 C47 1.397 . S
C48 C49 1.378 . S
C49 C48 1.378 . S
C49 C50 1.378 . S
C50 H35 0.940 . S
C50 C49 1.378 . S
C50 C51 1.396 . S
C51 H36 0.940 . S
C51 C46 1.391 . S
C51 C50 1.396 . S
C52 P32 1.803 . S
C52 C53 1.378 . S
C52 C57 1.400 . S
C53 H37 0.939 . S
C53 C52 1.378 . S
C53 C54 1.361 . S
C54 H38 0.942 . S
C54 C53 1.361 . S
C54 C55 1.369 . S
C55 C54 1.369 . S
C55 C56 1.404 . S
C56 H39 0.940 . S
C56 C55 1.404 . S
C56 C57 1.389 . S
C57 H40 0.939 . S
C57 C52 1.400 . S
C57 C56 1.389 . S
C58 P32 1.819 . S
C58 C59 1.391 . S
C58 C63 1.391 . S
C59 H41 0.941 . S
C59 C58 1.391 . S
C59 C60 1.396 . S
C60 H44 0.939 . S
C60 C59 1.396 . S
C60 C61 1.397 . S
C61 C60 1.397 . S
C61 C62 1.385 . S
C62 H45 0.940 . S
C62 C61 1.385 . S
C62 C63 1.388 . S
C63 H42 0.939 . S
C63 C58 1.391 . S
C63 C62 1.388 . S
P64 O75 1.490 . S
P64 C78 1.812 . S
P64 C84 1.803 . S
P64 C90 1.819 . S
H65 C79 0.941 . S
H66 C80 0.939 . S
H67 C82 0.940 . S
H68 C83 0.940 . S
H69 C85 0.939 . S
H70 C86 0.942 . S
H71 C88 0.940 . S
H72 C89 0.939 . S
H73 C91 0.941 . S
H74 C95 0.939 . S
O75 P64 1.490 . S
H76 C92 0.939 . S
H77 C94 0.940 . S
C78 P64 1.812 . S
C78 C79 1.389 . S
C78 C83 1.391 . S
C79 H65 0.941 . S
C79 C78 1.389 . S
C79 C80 1.397 . S
C80 H66 0.939 . S
C80 C79 1.397 . S
C80 C81 1.378 . S
C81 C80 1.378 . S
C81 C82 1.378 . S
C82 H67 0.940 . S
C82 C81 1.378 . S
C82 C83 1.396 . S
C83 H68 0.940 . S
C83 C78 1.391 . S
C83 C82 1.396 . S
C84 P64 1.803 . S
C84 C85 1.378 . S
C84 C89 1.400 . S
C85 H69 0.939 . S
C85 C84 1.378 . S
C85 C86 1.361 . S
C86 H70 0.942 . S
C86 C85 1.361 . S
C86 C87 1.369 . S
C87 C86 1.369 . S
C87 C88 1.404 . S
C88 H71 0.940 . S
C88 C87 1.404 . S
C88 C89 1.389 . S
C89 H72 0.939 . S
C89 C84 1.400 . S
C89 C88 1.389 . S
C90 P64 1.819 . S
C90 C91 1.391 . S
C90 C95 1.391 . S
C91 H73 0.941 . S
C91 C90 1.391 . S
C91 C92 1.396 . S
C92 H76 0.939 . S
C92 C91 1.396 . S
C92 C93 1.397 . S
C93 C92 1.397 . S
C93 C94 1.385 . S
C94 H77 0.940 . S
C94 C93 1.385 . S
C94 C95 1.388 . S
C95 H74 0.939 . S
C95 C90 1.391 . S
C95 C94 1.388 . S
P96 O107 1.490 . S
P96 C110 1.812 . S
P96 C116 1.803 . S
P96 C122 1.819 . S
H97 C111 0.941 . S
H98 C112 0.939 . S
H99 C114 0.940 . S
H100 C115 0.940 . S
H101 C117 0.939 . S
H102 C118 0.942 . S
H103 C120 0.940 . S
H104 C121 0.939 . S
H105 C123 0.941 . S
H106 C127 0.939 . S
O107 P96 1.490 . S
H108 C124 0.939 . S
H109 C126 0.940 . S
C110 P96 1.812 . S
C110 C111 1.389 . S
C110 C115 1.391 . S
C111 H97 0.941 . S
C111 C110 1.389 . S
C111 C112 1.397 . S
C112 H98 0.939 . S
C112 C111 1.397 . S
C112 C113 1.378 . S
C113 C112 1.378 . S
C113 C114 1.378 . S
C114 H99 0.940 . S
C114 C113 1.378 . S
C114 C115 1.396 . S
C115 H100 0.940 . S
C115 C110 1.391 . S
C115 C114 1.396 . S
C116 P96 1.803 . S
C116 C117 1.378 . S
C116 C121 1.400 . S
C117 H101 0.939 . S
C117 C116 1.378 . S
C117 C118 1.361 . S
C118 H102 0.942 . S
C118 C117 1.361 . S
C118 C119 1.369 . S
C119 C118 1.369 . S
C119 C120 1.404 . S
C120 H103 0.940 . S
C120 C119 1.404 . S
C120 C121 1.389 . S
C121 H104 0.939 . S
C121 C116 1.400 . S
C121 C120 1.389 . S
C122 P96 1.819 . S
C122 C123 1.391 . S
C122 C127 1.391 . S
C123 H105 0.941 . S
C123 C122 1.391 . S
C123 C124 1.396 . S
C124 H108 0.939 . S
C124 C123 1.396 . S
C124 C125 1.397 . S
C125 C124 1.397 . S
C125 C126 1.385 . S
C126 H109 0.940 . S
C126 C125 1.385 . S
C126 C127 1.388 . S
C127 H106 0.939 . S
C127 C122 1.391 . S
C127 C126 1.388 . S
P128 O139 1.490 . S
P128 C142 1.812 . S
P128 C148 1.803 . S
P128 C154 1.819 . S
H129 C143 0.941 . S
H130 C144 0.939 . S
H131 C146 0.940 . S
H132 C147 0.940 . S
H133 C149 0.939 . S
H134 C150 0.942 . S
H135 C152 0.940 . S
H136 C153 0.939 . S
H137 C155 0.941 . S
H138 C159 0.939 . S
O139 P128 1.490 . S
H140 C156 0.939 . S
H141 C158 0.940 . S
C142 P128 1.812 . S
C142 C143 1.389 . S
C142 C147 1.391 . S
C143 H129 0.941 . S
C143 C142 1.389 . S
C143 C144 1.397 . S
C144 H130 0.939 . S
C144 C143 1.397 . S
C144 C145 1.378 . S
C145 C144 1.378 . S
C145 C146 1.378 . S
C146 H131 0.940 . S
C146 C145 1.378 . S
C146 C147 1.396 . S
C147 H132 0.940 . S
C147 C142 1.391 . S
C147 C146 1.396 . S
C148 P128 1.803 . S
C148 C149 1.378 . S
C148 C153 1.400 . S
C149 H133 0.939 . S
C149 C148 1.378 . S
C149 C150 1.361 . S
C150 H134 0.942 . S
C150 C149 1.361 . S
C150 C151 1.369 . S
C151 C150 1.369 . S
C151 C152 1.404 . S
C152 H135 0.940 . S
C152 C151 1.404 . S
C152 C153 1.389 . S
C153 H136 0.939 . S
C153 C148 1.400 . S
C153 C152 1.389 . S
C154 P128 1.819 . S
C154 C155 1.391 . S
C154 C159 1.391 . S
C155 H137 0.941 . S
C155 C154 1.391 . S
C155 C156 1.396 . S
C156 H140 0.939 . S
C156 C155 1.396 . S
C156 C157 1.397 . S
C157 C156 1.397 . S
C157 C158 1.385 . S
C158 H141 0.940 . S
C158 C157 1.385 . S
C158 C159 1.388 . S
C159 H138 0.939 . S
C159 C154 1.391 . S
C159 C158 1.388 . S
P160 O171 1.490 . S
P160 C174 1.812 . S
P160 C180 1.803 . S
P160 C186 1.819 . S
H161 C175 0.941 . S
H162 C176 0.939 . S
H163 C178 0.940 . S
H164 C179 0.940 . S
H165 C181 0.939 . S
H166 C182 0.942 . S
H167 C184 0.940 . S
H168 C185 0.939 . S
H169 C187 0.941 . S
H170 C191 0.939 . S
O171 P160 1.490 . S
H172 C188 0.939 . S
H173 C190 0.940 . S
C174 P160 1.812 . S
C174 C175 1.389 . S
C174 C179 1.391 . S
C175 H161 0.941 . S
C175 C174 1.389 . S
C175 C176 1.397 . S
C176 H162 0.939 . S
C176 C175 1.397 . S
C176 C177 1.378 . S
C177 C176 1.378 . S
C177 C178 1.378 . S
C178 H163 0.940 . S
C178 C177 1.378 . S
C178 C179 1.396 . S
C179 H164 0.940 . S
C179 C174 1.391 . S
C179 C178 1.396 . S
C180 P160 1.803 . S
C180 C181 1.378 . S
C180 C185 1.400 . S
C181 H165 0.939 . S
C181 C180 1.378 . S
C181 C182 1.361 . S
C182 H166 0.942 . S
C182 C181 1.361 . S
C182 C183 1.369 . S
C183 C182 1.369 . S
C183 C184 1.404 . S
C184 H167 0.940 . S
C184 C183 1.404 . S
C184 C185 1.389 . S
C185 H168 0.939 . S
C185 C180 1.400 . S
C185 C184 1.389 . S
C186 P160 1.819 . S
C186 C187 1.391 . S
C186 C191 1.391 . S
C187 H169 0.941 . S
C187 C186 1.391 . S
C187 C188 1.396 . S
C188 H172 0.939 . S
C188 C187 1.396 . S
C188 C189 1.397 . S
C189 C188 1.397 . S
C189 C190 1.385 . S
C190 H173 0.940 . S
C190 C189 1.385 . S
C190 C191 1.388 . S
C191 H170 0.939 . S
C191 C186 1.391 . S
C191 C190 1.388 . S
P192 O203 1.490 . S
P192 C206 1.812 . S
P192 C212 1.803 . S
P192 C218 1.819 . S
H193 C207 0.941 . S
H194 C208 0.939 . S
H195 C210 0.940 . S
H196 C211 0.940 . S
H197 C213 0.939 . S
H198 C214 0.942 . S
H199 C216 0.940 . S
H200 C217 0.939 . S
H201 C219 0.941 . S
H202 C223 0.939 . S
O203 P192 1.490 . S
H204 C220 0.939 . S
H205 C222 0.940 . S
C206 P192 1.812 . S
C206 C207 1.389 . S
C206 C211 1.391 . S
C207 H193 0.941 . S
C207 C206 1.389 . S
C207 C208 1.397 . S
C208 H194 0.939 . S
C208 C207 1.397 . S
C208 C209 1.378 . S
C209 C208 1.378 . S
C209 C210 1.378 . S
C210 H195 0.940 . S
C210 C209 1.378 . S
C210 C211 1.396 . S
C211 H196 0.940 . S
C211 C206 1.391 . S
C211 C210 1.396 . S
C212 P192 1.803 . S
C212 C213 1.378 . S
C212 C217 1.400 . S
C213 H197 0.939 . S
C213 C212 1.378 . S
C213 C214 1.361 . S
C214 H198 0.942 . S
C214 C213 1.361 . S
C214 C215 1.369 . S
C215 C214 1.369 . S
C215 C216 1.404 . S
C216 H199 0.940 . S
C216 C215 1.404 . S
C216 C217 1.389 . S
C217 H200 0.939 . S
C217 C212 1.400 . S
C217 C216 1.389 . S
C218 P192 1.819 . S
C218 C219 1.391 . S
C218 C223 1.391 . S
C219 H201 0.941 . S
C219 C218 1.391 . S
C219 C220 1.396 . S
C220 H204 0.939 . S
C220 C219 1.396 . S
C220 C221 1.397 . S
C221 C220 1.397 . S
C221 C222 1.385 . S
C222 H205 0.940 . S
C222 C221 1.385 . S
C222 C223 1.388 . S
C223 H202 0.939 . S
C223 C218 1.391 . S
C223 C222 1.388 . S
P224 O235 1.490 . S
P224 C238 1.812 . S
P224 C244 1.803 . S
P224 C250 1.819 . S
H225 C239 0.941 . S
H226 C240 0.939 . S
H227 C242 0.940 . S
H228 C243 0.940 . S
H229 C245 0.939 . S
H230 C246 0.942 . S
H231 C248 0.940 . S
H232 C249 0.939 . S
H233 C251 0.941 . S
H234 C255 0.939 . S
O235 P224 1.490 . S
H236 C252 0.939 . S
H237 C254 0.940 . S
C238 P224 1.812 . S
C238 C239 1.389 . S
C238 C243 1.391 . S
C239 H225 0.941 . S
C239 C238 1.389 . S
C239 C240 1.397 . S
C240 H226 0.939 . S
C240 C239 1.397 . S
C240 C241 1.378 . S
C241 C240 1.378 . S
C241 C242 1.378 . S
C242 H227 0.940 . S
C242 C241 1.378 . S
C242 C243 1.396 . S
C243 H228 0.940 . S
C243 C238 1.391 . S
C243 C242 1.396 . S
C244 P224 1.803 . S
C244 C245 1.378 . S
C244 C249 1.400 . S
C245 H229 0.939 . S
C245 C244 1.378 . S
C245 C246 1.361 . S
C246 H230 0.942 . S
C246 C245 1.361 . S
C246 C247 1.369 . S
C247 C246 1.369 . S
C247 C248 1.404 . S
C248 H231 0.940 . S
C248 C247 1.404 . S
C248 C249 1.389 . S
C249 H232 0.939 . S
C249 C244 1.400 . S
C249 C248 1.389 . S
C250 P224 1.819 . S
C250 C251 1.391 . S
C250 C255 1.391 . S
C251 H233 0.941 . S
C251 C250 1.391 . S
C251 C252 1.396 . S
C252 H236 0.939 . S
C252 C251 1.396 . S
C252 C253 1.397 . S
C253 C252 1.397 . S
C253 C254 1.385 . S
C254 H237 0.940 . S
C254 C253 1.385 . S
C254 C255 1.388 . S
C255 H234 0.939 . S
C255 C250 1.391 . S
C255 C254 1.388 . S
Ho256 C259 2.811 . S
Ho256 O276 2.322 . S
Ho256 O278 2.378 . S
Ho256 O279 2.524 . S
Ho256 O280 2.381 1_545 S
Ho256 O281 2.669 1_545 S
Ho256 O283 2.346 1_445 S
Ho256 O287 2.305 1_455 S
Ho257 C268 2.811 . S
Ho257 O277 2.346 1_665 S
Ho257 O281 2.305 1_655 S
Ho257 O282 2.322 . S
Ho257 O284 2.378 . S
Ho257 O285 2.524 . S
Ho257 O286 2.381 1_565 S
Ho257 O287 2.669 1_565 S
C258 O276 1.259 . S
C258 O277 1.268 . S
C259 Ho256 2.811 . S
C259 C260 1.488 . S
C259 O278 1.215 . S
C259 O279 1.289 . S
C260 C259 1.488 . S
C260 C261 1.348 . S
C260 C265 1.413 . S
C261 C260 1.348 . S
C261 C262 1.442 . S
C261 H288 0.930 . S
C262 C261 1.442 . S
C262 C263 1.381 . S
C262 H289 0.931 . S
C263 C262 1.381 . S
C263 C264 1.321 . S
C264 C263 1.321 . S
C264 C265 1.403 . S
C264 H290 0.934 . S
C265 C260 1.413 . S
C265 C264 1.403 . S
C265 H291 0.930 . S
C266 O280 1.275 . S
C266 O281 1.256 . S
C267 O282 1.259 . S
C267 O283 1.268 . S
C268 Ho257 2.811 . S
C268 C269 1.488 . S
C268 O284 1.215 . S
C268 O285 1.289 . S
C269 C268 1.488 . S
C269 C270 1.348 . S
C269 C274 1.413 . S
C270 C269 1.348 . S
C270 C271 1.442 . S
C270 H292 0.930 . S
C271 C270 1.442 . S
C271 C272 1.381 . S
C271 H293 0.931 . S
C272 C271 1.381 . S
C272 C273 1.321 . S
C273 C272 1.321 . S
C273 C274 1.403 . S
C273 H294 0.934 . S
C274 C269 1.413 . S
C274 C273 1.403 . S
C274 H295 0.930 . S
C275 O286 1.275 . S
C275 O287 1.256 . S
O276 Ho256 2.322 . S
O276 C258 1.259 . S
O277 Ho257 2.346 1_445 S
O277 C258 1.268 . S
O278 Ho256 2.378 . S
O278 C259 1.215 . S
O279 Ho256 2.524 . S
O279 C259 1.289 . S
O280 Ho256 2.381 1_565 S
O280 C266 1.275 . S
O281 Ho256 2.669 1_565 S
O281 Ho257 2.305 1_455 S
O281 C266 1.256 . S
O282 Ho257 2.322 . S
O282 C267 1.259 . S
O283 Ho256 2.346 1_665 S
O283 C267 1.268 . S
O284 Ho257 2.378 . S
O284 C268 1.215 . S
O285 Ho257 2.524 . S
O285 C268 1.289 . S
O286 Ho257 2.381 1_545 S
O286 C275 1.275 . S
O287 Ho256 2.305 1_655 S
O287 Ho257 2.669 1_545 S
O287 C275 1.256 . S
H288 C261 0.930 . S
H289 C262 0.931 . S
H290 C264 0.934 . S
H291 C265 0.930 . S
H292 C270 0.930 . S
H293 C271 0.931 . S
H294 C273 0.934 . S
H295 C274 0.930 . S
Ho296 C299 2.811 . S
Ho296 O316 2.322 . S
Ho296 O318 2.378 . S
Ho296 O319 2.524 . S
Ho296 O320 2.381 1_545 S
Ho296 O321 2.669 1_545 S
Ho296 O323 2.346 1_544 S
Ho296 O327 2.305 1_554 S
Ho297 C308 2.811 1_545 S
Ho297 O317 2.346 1_556 S
Ho297 O321 2.305 1_546 S
Ho297 O322 2.322 1_545 S
Ho297 O324 2.376 1_545 S
Ho297 O325 2.524 1_545 S
Ho297 O326 2.381 . S
Ho297 O327 2.669 . S
C298 O316 1.259 . S
C298 O317 1.268 . S
C299 Ho296 2.811 . S
C299 C300 1.488 . S
C299 O318 1.215 . S
C299 O319 1.289 . S
C300 C299 1.488 . S
C300 C301 1.348 . S
C300 C305 1.413 . S
C301 C300 1.348 . S
C301 C302 1.442 . S
C301 H328 0.930 . S
C302 C301 1.442 . S
C302 C303 1.381 . S
C302 H329 0.931 . S
C303 C302 1.381 . S
C303 C304 1.321 . S
C304 C303 1.321 . S
C304 C305 1.403 . S
C304 H330 0.934 . S
C305 C300 1.413 . S
C305 C304 1.403 . S
C305 H331 0.930 . S
C306 O320 1.275 . S
C306 O321 1.256 . S
C307 O322 1.259 . S
C307 O323 1.268 . S
C308 Ho297 2.811 1_565 S
C308 C309 1.488 . S
C308 O324 1.249 . S
C308 O325 1.289 . S
C309 C308 1.488 . S
C309 C310 1.348 . S
C309 C314 1.413 . S
C310 C309 1.348 . S
C310 C311 1.442 . S
C310 H332 0.930 . S
C311 C310 1.442 . S
C311 C312 1.381 . S
C311 H333 0.931 . S
C312 C311 1.381 . S
C312 C313 1.321 . S
C313 C312 1.321 . S
C313 C314 1.403 . S
C313 H334 0.934 . S
C314 C309 1.413 . S
C314 C313 1.403 . S
C314 H335 0.930 . S
C315 O326 1.275 . S
C315 O327 1.256 . S
O316 Ho296 2.322 . S
O316 C298 1.259 . S
O317 Ho297 2.346 1_554 S
O317 C298 1.268 . S
O318 Ho296 2.378 . S
O318 C299 1.215 . S
O319 Ho296 2.524 . S
O319 C299 1.289 . S
O320 Ho296 2.381 1_565 S
O320 C306 1.275 . S
O321 Ho296 2.669 1_565 S
O321 Ho297 2.305 1_564 S
O321 C306 1.256 . S
O322 Ho297 2.322 1_565 S
O322 C307 1.259 . S
O323 Ho296 2.346 1_566 S
O323 C307 1.268 . S
O324 Ho297 2.376 1_565 S
O324 C308 1.249 . S
O325 Ho297 2.524 1_565 S
O325 C308 1.289 . S
O326 Ho297 2.381 . S
O326 C315 1.275 . S
O327 Ho296 2.305 1_556 S
O327 Ho297 2.669 . S
O327 C315 1.256 . S
H328 C301 0.930 . S
H329 C302 0.931 . S
H330 C304 0.934 . S
H331 C305 0.930 . S
H332 C310 0.930 . S
H333 C311 0.931 . S
H334 C313 0.934 . S
H335 C314 0.930 . S
Ho336 C339 2.811 . S
Ho336 O356 2.322 . S
Ho336 O358 2.378 . S
Ho336 O359 2.524 . S
Ho336 O360 2.381 . S
Ho336 O361 2.669 . S
Ho336 O363 2.346 . S
Ho336 O367 2.305 . S
Ho337 C348 2.811 . S
Ho337 O357 2.346 . S
Ho337 O361 2.305 . S
Ho337 O362 2.322 . S
Ho337 O364 2.378 . S
Ho337 O365 2.524 . S
Ho337 O366 2.381 . S
Ho337 O367 2.669 . S
C338 O356 1.259 . S
C338 O357 1.268 . S
C339 Ho336 2.811 . S
C339 C340 1.488 . S
C339 O358 1.215 . S
C339 O359 1.289 . S
C340 C339 1.488 . S
C340 C341 1.348 . S
C340 C345 1.413 . S
C341 C340 1.348 . S
C341 C342 1.442 . S
C341 H368 0.930 . S
C342 C341 1.442 . S
C342 C343 1.381 . S
C342 H369 0.931 . S
C343 C342 1.381 . S
C343 C344 1.321 . S
C344 C343 1.321 . S
C344 C345 1.403 . S
C344 H370 0.934 . S
C345 C340 1.413 . S
C345 C344 1.403 . S
C345 H371 0.930 . S
C346 O360 1.275 . S
C346 O361 1.256 . S
C347 O362 1.259 . S
C347 O363 1.268 . S
C348 Ho337 2.811 . S
C348 C349 1.488 . S
C348 O364 1.215 . S
C348 O365 1.289 . S
C349 C348 1.488 . S
C349 C350 1.348 . S
C349 C354 1.413 . S
C350 C349 1.348 . S
C350 C351 1.442 . S
C350 H372 0.930 . S
C351 C350 1.442 . S
C351 C352 1.381 . S
C351 H373 0.931 . S
C352 C351 1.381 . S
C352 C353 1.321 . S
C353 C352 1.321 . S
C353 C354 1.403 . S
C353 H374 0.934 . S
C354 C349 1.413 . S
C354 C353 1.403 . S
C354 H375 0.930 . S
C355 O366 1.275 . S
C355 O367 1.256 . S
O356 Ho336 2.322 . S
O356 C338 1.259 . S
O357 Ho337 2.346 . S
O357 C338 1.268 . S
O358 Ho336 2.378 . S
O358 C339 1.215 . S
O359 Ho336 2.524 . S
O359 C339 1.289 . S
O360 Ho336 2.381 . S
O360 C346 1.275 . S
O361 Ho336 2.669 . S
O361 Ho337 2.305 . S
O361 C346 1.256 . S
O362 Ho337 2.322 . S
O362 C347 1.259 . S
O363 Ho336 2.346 . S
O363 C347 1.268 . S
O364 Ho337 2.378 . S
O364 C348 1.215 . S
O365 Ho337 2.524 . S
O365 C348 1.289 . S
O366 Ho337 2.381 . S
O366 C355 1.275 . S
O367 Ho336 2.305 . S
O367 Ho337 2.669 . S
O367 C355 1.256 . S
H368 C341 0.930 . S
H369 C342 0.931 . S
H370 C344 0.934 . S
H371 C345 0.930 . S
H372 C350 0.930 . S
H373 C351 0.931 . S
H374 C353 0.934 . S
H375 C354 0.930 . S
Ho376 C379 2.811 . S
Ho376 O396 2.322 . S
Ho376 O398 2.378 . S
Ho376 O399 2.524 . S
Ho376 O400 2.381 1_455 S
Ho376 O401 2.669 1_455 S
Ho376 O403 2.345 1_455 S
Ho376 O407 2.305 1_554 S
Ho377 C388 2.811 . S
Ho377 O397 2.346 1_656 S
Ho377 O401 2.305 1_556 S
Ho377 O402 2.322 . S
Ho377 O404 2.378 . S
Ho377 O405 2.524 . S
Ho377 O406 2.381 1_655 S
Ho377 O407 2.669 1_655 S
C378 O396 1.259 . S
C378 O397 1.268 . S
C379 Ho376 2.811 . S
C379 C380 1.488 . S
C379 O398 1.215 . S
C379 O399 1.289 . S
C380 C379 1.488 . S
C380 C381 1.348 . S
C380 C385 1.413 . S
C381 C380 1.348 . S
C381 C382 1.442 . S
C381 H408 0.930 . S
C382 C381 1.442 . S
C382 C383 1.381 . S
C382 H409 0.931 . S
C383 C382 1.381 . S
C383 C384 1.321 . S
C384 C383 1.321 . S
C384 C385 1.403 . S
C384 H410 0.934 . S
C385 C380 1.413 . S
C385 C384 1.403 . S
C385 H411 0.930 . S
C386 O400 1.275 . S
C386 O401 1.256 . S
C387 O402 1.259 . S
C387 O403 1.269 1_556 S
C388 Ho377 2.811 . S
C388 C389 1.488 . S
C388 O404 1.215 . S
C388 O405 1.289 . S
C389 C388 1.488 . S
C389 C390 1.348 . S
C389 C394 1.413 . S
C390 C389 1.348 . S
C390 C391 1.442 . S
C390 H412 0.930 . S
C391 C390 1.442 . S
C391 C392 1.381 . S
C391 H413 0.931 . S
C392 C391 1.381 . S
C392 C393 1.321 . S
C393 C392 1.321 . S
C393 C394 1.403 . S
C393 H414 0.934 . S
C394 C389 1.413 . S
C394 C393 1.403 . S
C394 H415 0.930 . S
C395 O406 1.275 . S
C395 O407 1.256 . S
O396 Ho376 2.322 . S
O396 C378 1.259 . S
O397 Ho377 2.346 1_454 S
O397 C378 1.268 . S
O398 Ho376 2.378 . S
O398 C379 1.215 . S
O399 Ho376 2.524 . S
O399 C379 1.289 . S
O400 Ho376 2.381 1_655 S
O400 C386 1.275 . S
O401 Ho376 2.669 1_655 S
O401 Ho377 2.305 1_554 S
O401 C386 1.256 . S
O402 Ho377 2.322 . S
O402 C387 1.259 . S
O403 Ho376 2.345 1_655 S
O403 C387 1.269 1_554 S
O404 Ho377 2.378 . S
O404 C388 1.215 . S
O405 Ho377 2.524 . S
O405 C388 1.289 . S
O406 Ho377 2.381 1_455 S
O406 C395 1.275 . S
O407 Ho376 2.305 1_556 S
O407 Ho377 2.669 1_455 S
O407 C395 1.256 . S
H408 C381 0.930 . S
H409 C382 0.931 . S
H410 C384 0.934 . S
H411 C385 0.930 . S
H412 C390 0.930 . S
H413 C391 0.931 . S
H414 C393 0.934 . S
H415 C394 0.930 . S
H416 C424 0.950 . S
H417 C429 0.950 . S
H418 C426 0.950 . S
H419 C428 0.950 . S
H420 C430 0.950 . S
H421 C432 0.950 . S
H422 C434 0.950 . S
H423 C435 0.950 . S
C424 H416 0.950 . S
C424 C425 1.386 . S
C424 C426 1.391 . S
C425 C424 1.386 . S
C425 C429 1.393 . S
C426 H418 0.950 . S
C426 C424 1.391 . S
C426 C427 1.400 . S
C427 C426 1.400 . S
C427 C428 1.398 . S
C427 C433 1.491 . S
C428 H419 0.950 . S
C428 C427 1.398 . S
C428 C429 1.391 . S
C429 H417 0.950 . S
C429 C425 1.393 . S
C429 C428 1.391 . S
C430 H420 0.950 . S
C430 C431 1.386 . S
C430 C432 1.391 . S
C431 C430 1.386 . S
C431 C435 1.393 . S
C432 H421 0.950 . S
C432 C430 1.391 . S
C432 C433 1.400 . S
C433 C427 1.491 . S
C433 C432 1.400 . S
C433 C434 1.398 . S
C434 H422 0.950 . S
C434 C433 1.398 . S
C434 C435 1.391 . S
C435 H423 0.950 . S
C435 C431 1.393 . S
C435 C434 1.391 . S
H436 C444 0.950 . S
H437 C449 0.950 . S
H438 C446 0.950 . S
H439 C448 0.950 . S
H440 C450 0.950 . S
H441 C452 0.950 . S
H442 C454 0.950 . S
H443 C455 0.950 . S
C444 H436 0.950 . S
C444 C445 1.386 . S
C444 C446 1.391 . S
C445 C444 1.386 . S
C445 C449 1.393 . S
C446 H438 0.950 . S
C446 C444 1.391 . S
C446 C447 1.400 . S
C447 C446 1.400 . S
C447 C448 1.398 . S
C447 C453 1.491 . S
C448 H439 0.950 . S
C448 C447 1.398 . S
C448 C449 1.391 . S
C449 H437 0.950 . S
C449 C445 1.393 . S
C449 C448 1.391 . S
C450 H440 0.950 . S
C450 C451 1.386 . S
C450 C452 1.391 . S
C451 C450 1.386 . S
C451 C455 1.393 . S
C452 H441 0.950 . S
C452 C450 1.391 . S
C452 C453 1.400 . S
C453 C447 1.491 . S
C453 C452 1.400 . S
C453 C454 1.398 . S
C454 H442 0.950 . S
C454 C453 1.398 . S
C454 C455 1.391 . S
C455 H443 0.950 . S
C455 C451 1.393 . S
C455 C454 1.391 . S
H456 C464 0.950 . S
H457 C469 0.950 . S
H458 C466 0.950 . S
H459 C468 0.950 . S
H460 C470 0.950 . S
H461 C472 0.950 . S
H462 C474 0.950 . S
H463 C475 0.950 . S
C464 H456 0.950 . S
C464 C465 1.386 . S
C464 C466 1.391 . S
C465 C464 1.386 . S
C465 C469 1.393 . S
C466 H458 0.950 . S
C466 C464 1.391 . S
C466 C467 1.400 . S
C467 C466 1.400 . S
C467 C468 1.398 . S
C467 C473 1.491 . S
C468 H459 0.950 . S
C468 C467 1.398 . S
C468 C469 1.391 . S
C469 H457 0.950 . S
C469 C465 1.393 . S
C469 C468 1.391 . S
C470 H460 0.950 . S
C470 C471 1.386 . S
C470 C472 1.391 . S
C471 C470 1.386 . S
C471 C475 1.393 . S
C472 H461 0.950 . S
C472 C470 1.391 . S
C472 C473 1.400 . S
C473 C467 1.491 . S
C473 C472 1.400 . S
C473 C474 1.398 . S
C474 H462 0.950 . S
C474 C473 1.398 . S
C474 C475 1.391 . S
C475 H463 0.950 . S
C475 C471 1.393 . S
C475 C474 1.391 . S
H476 C484 0.950 . S
H477 C489 0.950 . S
H478 C486 0.950 . S
H479 C488 0.950 . S
H480 C490 0.950 . S
H481 C492 0.950 . S
H482 C494 0.950 . S
H483 C495 0.950 . S
C484 H476 0.950 . S
C484 C485 1.386 . S
C484 C486 1.391 . S
C485 C484 1.386 . S
C485 C489 1.393 . S
C486 H478 0.950 . S
C486 C484 1.391 . S
C486 C487 1.400 . S
C487 C486 1.400 . S
C487 C488 1.398 . S
C487 C493 1.491 . S
C488 H479 0.950 . S
C488 C487 1.398 . S
C488 C489 1.391 . S
C489 H477 0.950 . S
C489 C485 1.393 . S
C489 C488 1.391 . S
C490 H480 0.950 . S
C490 C491 1.386 . S
C490 C492 1.391 . S
C491 C490 1.386 . S
C491 C495 1.393 . S
C492 H481 0.950 . S
C492 C490 1.391 . S
C492 C493 1.400 . S
C493 C487 1.491 . S
C493 C492 1.400 . S
C493 C494 1.398 . S
C494 H482 0.950 . S
C494 C493 1.398 . S
C494 C495 1.391 . S
C495 H483 0.950 . S
C495 C491 1.393 . S
C495 C494 1.391 . S
H496 C504 0.950 . S
H497 C509 0.950 . S
H498 C506 0.950 . S
H499 C508 0.950 . S
H500 C510 0.950 . S
H501 C512 0.950 . S
H502 C514 0.950 . S
H503 C515 0.950 . S
C504 H496 0.950 . S
C504 C505 1.386 . S
C504 C506 1.391 . S
C505 C504 1.386 . S
C505 C509 1.393 . S
C506 H498 0.950 . S
C506 C504 1.391 . S
C506 C507 1.400 . S
C507 C506 1.400 . S
C507 C508 1.398 . S
C507 C513 1.491 . S
C508 H499 0.950 . S
C508 C507 1.398 . S
C508 C509 1.391 . S
C509 H497 0.950 . S
C509 C505 1.393 . S
C509 C508 1.391 . S
C510 H500 0.950 . S
C510 C511 1.386 . S
C510 C512 1.391 . S
C511 C510 1.386 . S
C511 C515 1.393 . S
C512 H501 0.950 . S
C512 C510 1.391 . S
C512 C513 1.400 . S
C513 C507 1.491 . S
C513 C512 1.400 . S
C513 C514 1.398 . S
C514 H502 0.950 . S
C514 C513 1.398 . S
C514 C515 1.391 . S
C515 H503 0.950 . S
C515 C511 1.393 . S
C515 C514 1.391 . S
H516 C524 0.950 . S
H517 C529 0.950 . S
H518 C526 0.950 . S
H519 C528 0.950 . S
H520 C530 0.950 . S
H521 C532 0.950 . S
H522 C534 0.950 . S
H523 C535 0.950 . S
C524 H516 0.950 . S
C524 C525 1.386 . S
C524 C526 1.391 . S
C525 C524 1.386 . S
C525 C529 1.393 . S
C526 H518 0.950 . S
C526 C524 1.391 . S
C526 C527 1.400 . S
C527 C526 1.400 . S
C527 C528 1.398 . S
C527 C533 1.491 . S
C528 H519 0.950 . S
C528 C527 1.398 . S
C528 C529 1.391 . S
C529 H517 0.950 . S
C529 C525 1.393 . S
C529 C528 1.391 . S
C530 H520 0.950 . S
C530 C531 1.386 . S
C530 C532 1.391 . S
C531 C530 1.386 . S
C531 C535 1.393 . S
C532 H521 0.950 . S
C532 C530 1.391 . S
C532 C533 1.400 . S
C533 C527 1.491 . S
C533 C532 1.400 . S
C533 C534 1.398 . S
C534 H522 0.950 . S
C534 C533 1.398 . S
C534 C535 1.391 . S
C535 H523 0.950 . S
C535 C531 1.393 . S
C535 C534 1.391 . S
H536 C544 0.950 . S
H537 C549 0.950 . S
H538 C546 0.950 . S
H539 C548 0.950 . S
H540 C550 0.933 1_554 S
H541 C552 0.950 . S
H542 C554 0.950 . S
H543 C555 0.950 . S
C544 H536 0.950 . S
C544 C545 1.386 . S
C544 C546 1.391 . S
C545 C544 1.386 . S
C545 C549 1.393 . S
C546 H538 0.950 . S
C546 C544 1.391 . S
C546 C547 1.400 . S
C547 C546 1.400 . S
C547 C548 1.398 . S
C547 C553 1.491 . S
C548 H539 0.950 . S
C548 C547 1.398 . S
C548 C549 1.391 . S
C549 H537 0.950 . S
C549 C545 1.393 . S
C549 C548 1.391 . S
C550 H540 0.933 1_556 S
C550 C551 1.386 . S
C550 C552 1.391 . S
C551 C550 1.386 . S
C551 C555 1.393 . S
C552 H541 0.950 . S
C552 C550 1.391 . S
C552 C553 1.400 . S
C553 C547 1.491 . S
C553 C552 1.400 . S
C553 C554 1.398 . S
C554 H542 0.950 . S
C554 C553 1.398 . S
C554 C555 1.391 . S
C555 H543 0.950 . S
C555 C551 1.393 . S
C555 C554 1.391 . S
H556 C564 0.950 . S
H557 C569 0.950 . S
H558 C566 0.950 . S
H559 C568 0.950 . S
H560 C570 0.950 . S
H561 C572 0.950 . S
H562 C574 0.950 . S
H563 C575 0.950 . S
C564 H556 0.950 . S
C564 C565 1.386 . S
C564 C566 1.391 . S
C565 C564 1.386 . S
C565 C569 1.393 . S
C566 H558 0.950 . S
C566 C564 1.391 . S
C566 C567 1.400 . S
C567 C566 1.400 . S
C567 C568 1.398 . S
C567 C573 1.491 . S
C568 H559 0.950 . S
C568 C567 1.398 . S
C568 C569 1.391 . S
C569 H557 0.950 . S
C569 C565 1.393 . S
C569 C568 1.391 . S
C570 H560 0.950 . S
C570 C571 1.386 . S
C570 C572 1.391 . S
C571 C570 1.386 . S
C571 C575 1.393 . S
C572 H561 0.950 . S
C572 C570 1.391 . S
C572 C573 1.400 . S
C573 C567 1.491 . S
C573 C572 1.400 . S
C573 C574 1.398 . S
C574 H562 0.950 . S
C574 C573 1.398 . S
C574 C575 1.391 . S
C575 H563 0.950 . S
C575 C571 1.393 . S
C575 C574 1.391 . S
H576 C584 0.950 . S
H577 C589 0.950 . S
H578 C586 0.950 . S
H579 C588 0.950 . S
H580 C590 0.950 . S
H581 C592 0.950 . S
H582 C594 0.950 . S
H583 C595 0.950 . S
C584 H576 0.950 . S
C584 C585 1.386 . S
C584 C586 1.391 . S
C585 C584 1.386 . S
C585 C589 1.393 . S
C586 H578 0.950 . S
C586 C584 1.391 . S
C586 C587 1.400 . S
C587 C586 1.400 . S
C587 C588 1.398 . S
C587 C593 1.491 . S
C588 H579 0.950 . S
C588 C587 1.398 . S
C588 C589 1.391 . S
C589 H577 0.950 . S
C589 C585 1.393 . S
C589 C588 1.391 . S
C590 H580 0.950 . S
C590 C591 1.386 . S
C590 C592 1.391 . S
C591 C590 1.386 . S
C591 C595 1.393 . S
C592 H581 0.950 . S
C592 C590 1.391 . S
C592 C593 1.400 . S
C593 C587 1.491 . S
C593 C592 1.400 . S
C593 C594 1.398 . S
C594 H582 0.950 . S
C594 C593 1.398 . S
C594 C595 1.391 . S
C595 H583 0.950 . S
C595 C591 1.393 . S
C595 C594 1.391 . S
H596 C604 0.950 . S
H597 C609 0.950 . S
H598 C606 0.950 . S
H599 C608 0.950 . S
H600 C610 0.950 . S
H601 C612 0.950 . S
H602 C614 0.950 . S
H603 C615 0.950 . S
C604 H596 0.950 . S
C604 C605 1.386 . S
C604 C606 1.391 . S
C605 C604 1.386 . S
C605 C609 1.393 . S
C606 H598 0.950 . S
C606 C604 1.391 . S
C606 C607 1.400 . S
C607 C606 1.400 . S
C607 C608 1.398 . S
C607 C613 1.491 . S
C608 H599 0.950 . S
C608 C607 1.398 . S
C608 C609 1.391 . S
C609 H597 0.950 . S
C609 C605 1.393 . S
C609 C608 1.391 . S
C610 H600 0.950 . S
C610 C611 1.386 . S
C610 C612 1.391 . S
C611 C610 1.386 . S
C611 C615 1.393 . S
C612 H601 0.950 . S
C612 C610 1.391 . S
C612 C613 1.400 . S
C613 C607 1.491 . S
C613 C612 1.400 . S
C613 C614 1.398 . S
C614 H602 0.950 . S
C614 C613 1.398 . S
C614 C615 1.391 . S
C615 H603 0.950 . S
C615 C611 1.393 . S
C615 C614 1.391 . S
H616 C624 0.950 . S
H617 C629 0.950 . S
H618 C626 0.950 . S
H619 C628 0.950 . S
H620 C630 0.950 . S
H621 C632 0.950 . S
H622 C634 0.950 . S
H623 C635 0.950 . S
C624 H616 0.950 . S
C624 C625 1.386 . S
C624 C626 1.391 . S
C625 C624 1.386 . S
C625 C629 1.393 . S
C626 H618 0.950 . S
C626 C624 1.391 . S
C626 C627 1.400 . S
C627 C626 1.400 . S
C627 C628 1.398 . S
C627 C633 1.491 . S
C628 H619 0.950 . S
C628 C627 1.398 . S
C628 C629 1.391 . S
C629 H617 0.950 . S
C629 C625 1.393 . S
C629 C628 1.391 . S
C630 H620 0.950 . S
C630 C631 1.386 . S
C630 C632 1.391 . S
C631 C630 1.386 . S
C631 C635 1.393 . S
C632 H621 0.950 . S
C632 C630 1.391 . S
C632 C633 1.400 . S
C633 C627 1.491 . S
C633 C632 1.400 . S
C633 C634 1.398 . S
C634 H622 0.950 . S
C634 C633 1.398 . S
C634 C635 1.391 . S
C635 H623 0.950 . S
C635 C631 1.393 . S
C635 C634 1.391 . S
H636 C644 0.950 . S
H637 C649 0.950 . S
H638 C646 0.950 . S
H639 C648 0.950 . S
H640 C650 0.950 . S
H641 C652 0.950 . S
H642 C654 0.950 . S
H643 C655 0.950 . S
C644 H636 0.950 . S
C644 C645 1.386 . S
C644 C646 1.391 . S
C645 C644 1.386 . S
C645 C649 1.393 . S
C646 H638 0.950 . S
C646 C644 1.391 . S
C646 C647 1.400 . S
C647 C646 1.400 . S
C647 C648 1.398 . S
C647 C653 1.491 . S
C648 H639 0.950 . S
C648 C647 1.398 . S
C648 C649 1.391 . S
C649 H637 0.950 . S
C649 C645 1.393 . S
C649 C648 1.391 . S
C650 H640 0.950 . S
C650 C651 1.386 . S
C650 C652 1.391 . S
C651 C650 1.386 . S
C651 C655 1.393 . S
C652 H641 0.950 . S
C652 C650 1.391 . S
C652 C653 1.400 . S
C653 C647 1.491 . S
C653 C652 1.400 . S
C653 C654 1.398 . S
C654 H642 0.950 . S
C654 C653 1.398 . S
C654 C655 1.391 . S
C655 H643 0.950 . S
C655 C651 1.393 . S
C655 C654 1.391 . S
H656 C664 0.950 . S
H657 C669 0.950 . S
H658 C666 0.950 . S
H659 C668 0.950 . S
H660 C670 0.950 . S
H661 C672 0.950 . S
H662 C674 0.950 . S
H663 C675 0.950 . S
C664 H656 0.950 . S
C664 C665 1.386 . S
C664 C666 1.391 . S
C665 C664 1.386 . S
C665 C669 1.393 . S
C666 H658 0.950 . S
C666 C664 1.391 . S
C666 C667 1.400 . S
C667 C666 1.400 . S
C667 C668 1.398 . S
C667 C673 1.491 . S
C668 H659 0.950 . S
C668 C667 1.398 . S
C668 C669 1.391 . S
C669 H657 0.950 . S
C669 C665 1.393 . S
C669 C668 1.391 . S
C670 H660 0.950 . S
C670 C671 1.386 . S
C670 C672 1.391 . S
C671 C670 1.386 . S
C671 C675 1.393 . S
C672 H661 0.950 . S
C672 C670 1.391 . S
C672 C673 1.400 . S
C673 C667 1.491 . S
C673 C672 1.400 . S
C673 C674 1.398 . S
C674 H662 0.950 . S
C674 C673 1.398 . S
C674 C675 1.391 . S
C675 H663 0.950 . S
C675 C671 1.393 . S
C675 C674 1.391 . S
H676 C684 0.950 . S
H677 C689 0.950 . S
H678 C686 0.950 . S
H679 C688 0.950 . S
H680 C690 0.950 . S
H681 C692 0.950 . S
H682 C694 0.950 . S
H683 C695 0.950 . S
C684 H676 0.950 . S
C684 C685 1.386 . S
C684 C686 1.391 . S
C685 C684 1.386 . S
C685 C689 1.393 . S
C686 H678 0.950 . S
C686 C684 1.391 . S
C686 C687 1.400 . S
C687 C686 1.400 . S
C687 C688 1.398 . S
C687 C693 1.491 . S
C688 H679 0.950 . S
C688 C687 1.398 . S
C688 C689 1.391 . S
C689 H677 0.950 . S
C689 C685 1.393 . S
C689 C688 1.391 . S
C690 H680 0.950 . S
C690 C691 1.386 . S
C690 C692 1.391 . S
C691 C690 1.386 . S
C691 C695 1.393 . S
C692 H681 0.950 . S
C692 C690 1.391 . S
C692 C693 1.400 . S
C693 C687 1.491 . S
C693 C692 1.400 . S
C693 C694 1.398 . S
C694 H682 0.950 . S
C694 C693 1.398 . S
C694 C695 1.391 . S
C695 H683 0.950 . S
C695 C691 1.393 . S
C695 C694 1.391 . S
H696 C704 0.950 . S
H697 C709 0.950 . S
H698 C706 0.950 . S
H699 C708 0.950 . S
H700 C710 0.950 . S
H701 C712 0.950 . S
H702 C714 0.950 . S
H703 C715 0.950 . S
C704 H696 0.950 . S
C704 C705 1.386 . S
C704 C706 1.391 . S
C705 C704 1.386 . S
C705 C709 1.393 . S
C706 H698 0.950 . S
C706 C704 1.391 . S
C706 C707 1.400 . S
C707 C706 1.400 . S
C707 C708 1.398 . S
C707 C713 1.491 . S
C708 H699 0.950 . S
C708 C707 1.398 . S
C708 C709 1.391 . S
C709 H697 0.950 . S
C709 C705 1.393 . S
C709 C708 1.391 . S
C710 H700 0.950 . S
C710 C711 1.386 . S
C710 C712 1.391 . S
C711 C710 1.386 . S
C711 C715 1.393 . S
C712 H701 0.950 . S
C712 C710 1.391 . S
C712 C713 1.400 . S
C713 C707 1.491 . S
C713 C712 1.400 . S
C713 C714 1.398 . S
C714 H702 0.950 . S
C714 C713 1.398 . S
C714 C715 1.391 . S
C715 H703 0.950 . S
C715 C711 1.393 . S
C715 C714 1.391 . S
H716 C724 0.950 . S
H717 C729 0.950 . S
H718 C726 0.950 . S
H719 C728 0.950 . S
H720 C730 0.950 . S
H721 C732 0.950 . S
H722 C734 0.950 . S
H723 C735 0.950 . S
C724 H716 0.950 . S
C724 C725 1.386 . S
C724 C726 1.391 . S
C725 C724 1.386 . S
C725 C729 1.393 . S
C726 H718 0.950 . S
C726 C724 1.391 . S
C726 C727 1.400 . S
C727 C726 1.400 . S
C727 C728 1.398 . S
C727 C733 1.491 . S
C728 H719 0.950 . S
C728 C727 1.398 . S
C728 C729 1.391 . S
C729 H717 0.950 . S
C729 C725 1.393 . S
C729 C728 1.391 . S
C730 H720 0.950 . S
C730 C731 1.386 . S
C730 C732 1.391 . S
C731 C730 1.386 . S
C731 C735 1.393 . S
C732 H721 0.950 . S
C732 C730 1.391 . S
C732 C733 1.400 . S
C733 C727 1.491 . S
C733 C732 1.400 . S
C733 C734 1.398 . S
C734 H722 0.950 . S
C734 C733 1.398 . S
C734 C735 1.391 . S
C735 H723 0.950 . S
C735 C731 1.393 . S
C735 C734 1.391 . S
H736 C744 0.950 . S
H737 C749 0.950 . S
H738 C746 0.950 . S
H739 C748 0.950 . S
H740 C750 0.950 . S
H741 C752 0.950 . S
H742 C754 0.950 . S
H743 C755 0.950 . S
C744 H736 0.950 . S
C744 C745 1.386 . S
C744 C746 1.391 . S
C745 C744 1.386 . S
C745 C749 1.393 . S
C746 H738 0.950 . S
C746 C744 1.391 . S
C746 C747 1.400 . S
C747 C746 1.400 . S
C747 C748 1.398 . S
C747 C753 1.491 . S
C748 H739 0.950 . S
C748 C747 1.398 . S
C748 C749 1.391 . S
C749 H737 0.950 . S
C749 C745 1.393 . S
C749 C748 1.391 . S
C750 H740 0.950 . S
C750 C751 1.386 . S
C750 C752 1.391 . S
C751 C750 1.386 . S
C751 C755 1.393 . S
C752 H741 0.950 . S
C752 C750 1.391 . S
C752 C753 1.400 . S
C753 C747 1.491 . S
C753 C752 1.400 . S
C753 C754 1.398 . S
C754 H742 0.950 . S
C754 C753 1.398 . S
C754 C755 1.391 . S
C755 H743 0.950 . S
C755 C751 1.393 . S
C755 C754 1.391 . S
H756 C764 0.950 . S
H757 C769 0.950 . S
H758 C766 0.950 . S
H759 C768 0.950 . S
H760 C770 0.950 . S
H761 C772 0.950 . S
H762 C774 0.950 . S
H763 C775 0.950 . S
C764 H756 0.950 . S
C764 C765 1.386 . S
C764 C766 1.391 . S
C765 C764 1.386 . S
C765 C769 1.393 . S
C766 H758 0.950 . S
C766 C764 1.391 . S
C766 C767 1.400 . S
C767 C766 1.400 . S
C767 C768 1.398 . S
C767 C773 1.491 . S
C768 H759 0.950 . S
C768 C767 1.398 . S
C768 C769 1.391 . S
C769 H757 0.950 . S
C769 C765 1.393 . S
C769 C768 1.391 . S
C770 H760 0.950 . S
C770 C771 1.386 . S
C770 C772 1.391 . S
C771 C770 1.386 . S
C771 C775 1.393 . S
C772 H761 0.950 . S
C772 C770 1.391 . S
C772 C773 1.400 . S
C773 C767 1.491 . S
C773 C772 1.400 . S
C773 C774 1.398 . S
C774 H762 0.950 . S
C774 C773 1.398 . S
C774 C775 1.391 . S
C775 H763 0.950 . S
C775 C771 1.393 . S
C775 C774 1.391 . S
H776 C784 0.950 . S
H777 C789 0.950 . S
H778 C786 0.950 . S
H779 C788 0.950 . S
H780 C790 0.950 . S
H781 C792 0.950 . S
H782 C794 0.950 . S
H783 C795 0.950 . S
C784 H776 0.950 . S
C784 C785 1.386 . S
C784 C786 1.391 . S
C785 C784 1.386 . S
C785 C789 1.393 . S
C786 H778 0.950 . S
C786 C784 1.391 . S
C786 C787 1.400 . S
C787 C786 1.400 . S
C787 C788 1.398 . S
C787 C793 1.491 . S
C788 H779 0.950 . S
C788 C787 1.398 . S
C788 C789 1.391 . S
C789 H777 0.950 . S
C789 C785 1.393 . S
C789 C788 1.391 . S
C790 H780 0.950 . S
C790 C791 1.386 . S
C790 C792 1.391 . S
C791 C790 1.386 . S
C791 C795 1.393 . S
C792 H781 0.950 . S
C792 C790 1.391 . S
C792 C793 1.400 . S
C793 C787 1.491 . S
C793 C792 1.400 . S
C793 C794 1.398 . S
C794 H782 0.950 . S
C794 C793 1.398 . S
C794 C795 1.391 . S
C795 H783 0.950 . S
C795 C791 1.393 . S
C795 C794 1.391 . S
H796 C804 0.950 . S
H797 C809 0.950 . S
H798 C806 0.950 . S
H799 C808 0.950 . S
H800 C810 0.950 . S
H801 C812 0.950 . S
H802 C814 0.950 . S
H803 C815 0.950 . S
C804 H796 0.950 . S
C804 C805 1.386 . S
C804 C806 1.391 . S
C805 C804 1.386 . S
C805 C809 1.393 . S
C806 H798 0.950 . S
C806 C804 1.391 . S
C806 C807 1.400 . S
C807 C806 1.400 . S
C807 C808 1.398 . S
C807 C813 1.491 . S
C808 H799 0.950 . S
C808 C807 1.398 . S
C808 C809 1.391 . S
C809 H797 0.950 . S
C809 C805 1.393 . S
C809 C808 1.391 . S
C810 H800 0.950 . S
C810 C811 1.386 . S
C810 C812 1.391 . S
C811 C810 1.386 . S
C811 C815 1.393 . S
C812 H801 0.950 . S
C812 C810 1.391 . S
C812 C813 1.400 . S
C813 C807 1.491 . S
C813 C812 1.400 . S
C813 C814 1.398 . S
C814 H802 0.950 . S
C814 C813 1.398 . S
C814 C815 1.391 . S
C815 H803 0.950 . S
C815 C811 1.393 . S
C815 C814 1.391 . S
H816 C824 0.950 . S
H817 C829 0.950 . S
H818 C826 0.950 . S
H819 C828 0.950 . S
H820 C830 0.950 . S
H821 C832 0.950 . S
H822 C834 0.950 . S
H823 C835 0.950 . S
C824 H816 0.950 . S
C824 C825 1.386 . S
C824 C826 1.391 . S
C825 C824 1.386 . S
C825 C829 1.393 . S
C826 H818 0.950 . S
C826 C824 1.391 . S
C826 C827 1.400 . S
C827 C826 1.400 . S
C827 C828 1.398 . S
C827 C833 1.491 . S
C828 H819 0.950 . S
C828 C827 1.398 . S
C828 C829 1.391 . S
C829 H817 0.950 . S
C829 C825 1.393 . S
C829 C828 1.391 . S
C830 H820 0.950 . S
C830 C831 1.386 . S
C830 C832 1.391 . S
C831 C830 1.386 . S
C831 C835 1.393 . S
C832 H821 0.950 . S
C832 C830 1.391 . S
C832 C833 1.400 . S
C833 C827 1.491 . S
C833 C832 1.400 . S
C833 C834 1.398 . S
C834 H822 0.950 . S
C834 C833 1.398 . S
C834 C835 1.391 . S
C835 H823 0.950 . S
C835 C831 1.393 . S
C835 C834 1.391 . S
H836 C844 0.950 . S
H837 C849 0.950 . S
H838 C846 0.950 . S
H839 C848 0.950 . S
H840 C850 0.950 . S
H841 C852 0.950 . S
H842 C854 0.950 . S
H843 C855 0.950 . S
C844 H836 0.950 . S
C844 C845 1.386 . S
C844 C846 1.391 . S
C845 C844 1.386 . S
C845 C849 1.393 . S
C846 H838 0.950 . S
C846 C844 1.391 . S
C846 C847 1.400 . S
C847 C846 1.400 . S
C847 C848 1.398 . S
C847 C853 1.491 . S
C848 H839 0.950 . S
C848 C847 1.398 . S
C848 C849 1.391 . S
C849 H837 0.950 . S
C849 C845 1.393 . S
C849 C848 1.391 . S
C850 H840 0.950 . S
C850 C851 1.386 . S
C850 C852 1.391 . S
C851 C850 1.386 . S
C851 C855 1.393 . S
C852 H841 0.950 . S
C852 C850 1.391 . S
C852 C853 1.400 . S
C853 C847 1.491 . S
C853 C852 1.400 . S
C853 C854 1.398 . S
C854 H842 0.950 . S
C854 C853 1.398 . S
C854 C855 1.391 . S
C855 H843 0.950 . S
C855 C851 1.393 . S
C855 C854 1.391 . S
H856 C864 0.950 . S
H857 C869 0.950 . S
H858 C866 0.950 . S
H859 C868 0.950 . S
H860 C870 0.950 . S
H861 C872 0.950 . S
H862 C874 0.950 . S
H863 C875 0.950 . S
C864 H856 0.950 . S
C864 C865 1.386 . S
C864 C866 1.391 . S
C865 C864 1.386 . S
C865 C869 1.393 . S
C866 H858 0.950 . S
C866 C864 1.391 . S
C866 C867 1.400 . S
C867 C866 1.400 . S
C867 C868 1.398 . S
C867 C873 1.491 . S
C868 H859 0.950 . S
C868 C867 1.398 . S
C868 C869 1.391 . S
C869 H857 0.950 . S
C869 C865 1.393 . S
C869 C868 1.391 . S
C870 H860 0.950 . S
C870 C871 1.386 . S
C870 C872 1.391 . S
C871 C870 1.386 . S
C871 C875 1.393 . S
C872 H861 0.950 . S
C872 C870 1.391 . S
C872 C873 1.400 . S
C873 C867 1.491 . S
C873 C872 1.400 . S
C873 C874 1.398 . S
C874 H862 0.950 . S
C874 C873 1.398 . S
C874 C875 1.391 . S
C875 H863 0.950 . S
C875 C871 1.393 . S
C875 C874 1.391 . S
H876 C884 0.950 . S
H877 C889 0.950 . S
H878 C886 0.950 . S
H879 C888 0.950 . S
H880 C890 0.950 . S
H881 C892 0.950 . S
H882 C894 0.950 . S
H883 C895 0.950 . S
C884 H876 0.950 . S
C884 C885 1.386 . S
C884 C886 1.391 . S
C885 C884 1.386 . S
C885 C889 1.393 . S
C886 H878 0.950 . S
C886 C884 1.391 . S
C886 C887 1.400 . S
C887 C886 1.400 . S
C887 C888 1.398 . S
C887 C893 1.491 . S
C888 H879 0.950 . S
C888 C887 1.398 . S
C888 C889 1.391 . S
C889 H877 0.950 . S
C889 C885 1.393 . S
C889 C888 1.391 . S
C890 H880 0.950 . S
C890 C891 1.386 . S
C890 C892 1.391 . S
C891 C890 1.386 . S
C891 C895 1.393 . S
C892 H881 0.950 . S
C892 C890 1.391 . S
C892 C893 1.400 . S
C893 C887 1.491 . S
C893 C892 1.400 . S
C893 C894 1.398 . S
C894 H882 0.950 . S
C894 C893 1.398 . S
C894 C895 1.391 . S
C895 H883 0.950 . S
C895 C891 1.393 . S
C895 C894 1.391 . S
C425 C29 1.211 . S
C431 C263 1.213 . S
C445 C49 0.897 . S
C451 C312 0.917 . S
C471 C338 2.500 . S
C465 C93 2.498 . S
C485 C119 2.287 . S
C491 C386 2.286 . S
C511 C298 2.319 . S
C505 C17 2.293 . S
C531 C266 0.868 . S
C525 C61 0.884 . S
C551 C387 1.884 . S
C545 C81 1.917 . S
C571 C355 1.646 . S
C565 C125 1.643 . S
C585 C23 1.616 . S
C591 C383 1.620 . S
C611 C315 2.311 . S
C605 C87 2.338 . S
C625 C113 2.321 . S
C631 C267 2.366 . S
C645 C55 0.812 . S
C651 C352 0.845 . S
C671 C272 1.207 . S
C665 C157 1.078 . S
C685 C189 0.986 . S
C691 C303 0.987 . S
C705 C221 2.458 . S
C711 C347 2.461 . S
C725 C253 2.367 . S
C731 C395 2.383 . S
C745 C145 2.151 . S
C751 C307 2.400 . S
C771 C275 0.833 . S
C765 C183 0.834 . S
C791 C378 1.929 . S
C785 C209 1.921 . S
C811 C346 1.610 . S
C805 C247 1.596 . S
C825 C151 1.499 . S
C831 C392 1.636 . S
C851 C306 2.293 . S
C845 C215 2.327 . S
C871 C258 2.322 . S
C865 C241 2.274 . S
C885 C177 0.831 . S
C891 C343 0.832 . S
