# Generated by pormake.
# Topology ctn, (3,4)-cn, num edge types: 1
# Building blocks:
#     Node 0, Type 0, BuildingBlock: BETDIP_clean_linker_0, # of connection points: 3
#     Node 1, Type 0, BuildingBlock: BETDIP_clean_linker_0, # of connection points: 3
#     Node 2, Type 0, BuildingBlock: BETDIP_clean_linker_0, # of connection points: 3
#     Node 3, Type 0, BuildingBlock: BETDIP_clean_linker_0, # of connection points: 3
#     Node 4, Type 0, BuildingBlock: BETDIP_clean_linker_0, # of connection points: 3
#     Node 5, Type 0, BuildingBlock: BETDIP_clean_linker_0, # of connection points: 3
#     Node 6, Type 0, BuildingBlock: BETDIP_clean_linker_0, # of connection points: 3
#     Node 7, Type 0, BuildingBlock: BETDIP_clean_linker_0, # of connection points: 3
#     Node 8, Type 0, BuildingBlock: BETDIP_clean_linker_0, # of connection points: 3
#     Node 9, Type 0, BuildingBlock: BETDIP_clean_linker_0, # of connection points: 3
#     Node 10, Type 0, BuildingBlock: BETDIP_clean_linker_0, # of connection points: 3
#     Node 11, Type 0, BuildingBlock: BETDIP_clean_linker_0, # of connection points: 3
#     Node 12, Type 0, BuildingBlock: BETDIP_clean_linker_0, # of connection points: 3
#     Node 13, Type 0, BuildingBlock: BETDIP_clean_linker_0, # of connection points: 3
#     Node 14, Type 0, BuildingBlock: BETDIP_clean_linker_0, # of connection points: 3
#     Node 15, Type 0, BuildingBlock: BETDIP_clean_linker_0, # of connection points: 3
#     Node 16, Type 1, BuildingBlock: NAHDIM_clean_sbu_0, # of connection points: 4
#     Node 17, Type 1, BuildingBlock: NAHDIM_clean_sbu_0, # of connection points: 4
#     Node 18, Type 1, BuildingBlock: NAHDIM_clean_sbu_0, # of connection points: 4
#     Node 19, Type 1, BuildingBlock: NAHDIM_clean_sbu_0, # of connection points: 4
#     Node 20, Type 1, BuildingBlock: NAHDIM_clean_sbu_0, # of connection points: 4
#     Node 21, Type 1, BuildingBlock: NAHDIM_clean_sbu_0, # of connection points: 4
#     Node 22, Type 1, BuildingBlock: NAHDIM_clean_sbu_0, # of connection points: 4
#     Node 23, Type 1, BuildingBlock: NAHDIM_clean_sbu_0, # of connection points: 4
#     Node 24, Type 1, BuildingBlock: NAHDIM_clean_sbu_0, # of connection points: 4
#     Node 25, Type 1, BuildingBlock: NAHDIM_clean_sbu_0, # of connection points: 4
#     Node 26, Type 1, BuildingBlock: NAHDIM_clean_sbu_0, # of connection points: 4
#     Node 27, Type 1, BuildingBlock: NAHDIM_clean_sbu_0, # of connection points: 4
#     Edge 28, Type (0, 1), None
#     Edge 29, Type (0, 1), None
#     Edge 30, Type (0, 1), None
#     Edge 31, Type (0, 1), None
#     Edge 32, Type (0, 1), None
#     Edge 33, Type (0, 1), None
#     Edge 34, Type (0, 1), None
#     Edge 35, Type (0, 1), None
#     Edge 36, Type (0, 1), None
#     Edge 37, Type (0, 1), None
#     Edge 38, Type (0, 1), None
#     Edge 39, Type (0, 1), None
#     Edge 40, Type (0, 1), None
#     Edge 41, Type (0, 1), None
#     Edge 42, Type (0, 1), None
#     Edge 43, Type (0, 1), None
#     Edge 44, Type (0, 1), None
#     Edge 45, Type (0, 1), None
#     Edge 46, Type (0, 1), None
#     Edge 47, Type (0, 1), None
#     Edge 48, Type (0, 1), None
#     Edge 49, Type (0, 1), None
#     Edge 50, Type (0, 1), None
#     Edge 51, Type (0, 1), None
#     Edge 52, Type (0, 1), None
#     Edge 53, Type (0, 1), None
#     Edge 54, Type (0, 1), None
#     Edge 55, Type (0, 1), None
#     Edge 56, Type (0, 1), None
#     Edge 57, Type (0, 1), None
#     Edge 58, Type (0, 1), None
#     Edge 59, Type (0, 1), None
#     Edge 60, Type (0, 1), None
#     Edge 61, Type (0, 1), None
#     Edge 62, Type (0, 1), None
#     Edge 63, Type (0, 1), None
#     Edge 64, Type (0, 1), None
#     Edge 65, Type (0, 1), None
#     Edge 66, Type (0, 1), None
#     Edge 67, Type (0, 1), None
#     Edge 68, Type (0, 1), None
#     Edge 69, Type (0, 1), None
#     Edge 70, Type (0, 1), None
#     Edge 71, Type (0, 1), None
#     Edge 72, Type (0, 1), None
#     Edge 73, Type (0, 1), None
#     Edge 74, Type (0, 1), None
#     Edge 75, Type (0, 1), None
# Relax obj value: 0.083
# Max RMSD: 0.192
# Mean RMSD: 0.113
data_MOF--net-ctn--node1-NAHDIM_clean_sbu_0--node2-BETDIP_clean_linker_0--edge1-none
_symmetry_space_group_name_H-M    P1
_symmetry_Int_Tables_number       1
_symmetry_cell_setting            triclinic
loop_
_symmetry_equiv_pos_as_xyz
'x, y, z'
_cell_length_a     22.394523
_cell_length_b     22.698194
_cell_length_c     25.189574
_cell_angle_alpha  96.210769
_cell_angle_beta   95.067709
_cell_angle_gamma 97.141965
loop_
_atom_site_label
_atom_site_type_symbol
_atom_site_fract_x
_atom_site_fract_y
_atom_site_fract_z
_atom_type_partial_charge
H0 H 0.98696 0.08929 0.10621 0.0
H1 H 0.10514 0.01776 0.99754 0.0
H2 H 0.10075 0.96107 0.1544 0.0
H3 H 0.08243 0.08758 0.95089 0.0
C4 C 0.04762 0.11129 0.96696 0.0
C5 C 0.02018 0.05967 0.09748 0.0
C6 C 0.04044 0.02498 0.13639 0.0
C7 C 0.04374 0.05854 0.04779 0.0
C8 C 0.08674 0.01995 0.03579 0.0
C9 C 0.1078 0.98481 0.07417 0.0
C10 C 0.08474 0.98802 0.12457 0.0
N11 N 0.02501 0.0996 0.01295 0.0
H12 H 0.23814 0.66737 0.15674 0.0
H13 H 0.40304 0.76364 0.23891 0.0
H14 H 0.31423 0.60989 0.3017 0.0
H15 H 0.22993 0.75501 0.12937 0.0
C16 C 0.27536 0.77675 0.12657 0.0
C17 C 0.27278 0.674 0.19038 0.0
C18 C 0.26999 0.63394 0.22904 0.0
C19 C 0.31986 0.72192 0.195 0.0
C20 C 0.3662 0.72735 0.23673 0.0
C21 C 0.36512 0.68727 0.2755 0.0
C22 C 0.31589 0.64119 0.27212 0.0
N23 N 0.323 0.76479 0.15783 0.0
H24 H 0.92859 0.53966 0.96937 0.0
H25 H 0.05548 0.46615 0.07264 0.0
H26 H 0.9617 0.60782 0.1371 0.0
H27 H 0.01018 0.38243 0.01413 0.0
C28 C 0.0095 0.39986 0.97557 0.0
C29 C 0.95238 0.53995 0.00881 0.0
C30 C 0.94005 0.57911 0.05228 0.0
C31 C 0.99218 0.49795 0.01623 0.0
C32 C 0.02318 0.49732 0.06728 0.0
C33 C 0.01321 0.53732 0.11123 0.0
C34 C 0.97098 0.5777 0.10335 0.0
N35 N 0.99956 0.45647 0.97156 0.0
H36 H 0.71642 0.73714 0.13144 0.0
H37 H 0.7709 0.8796 0.26034 0.0
H38 H 0.88694 0.84935 0.13636 0.0
H39 H 0.70512 0.82607 0.30161 0.0
C40 C 0.67188 0.79814 0.27258 0.0
C41 C 0.74933 0.774 0.15075 0.0
C42 C 0.80305 0.78988 0.1276 0.0
C43 C 0.73771 0.80455 0.19935 0.0
C44 C 0.77967 0.85349 0.22405 0.0
C45 C 0.83384 0.86904 0.20164 0.0
C46 C 0.84541 0.83674 0.15389 0.0
N47 N 0.68341 0.78449 0.2215 0.0
H48 H 0.9838 0.93139 0.44189 0.0
H49 H 0.16616 0.00157 0.50544 0.0
H50 H 0.08381 0.07002 0.36864 0.0
H51 H 0.97957 0.91344 0.53293 0.0
C52 C 0.02304 0.89774 0.54083 0.0
C53 C 0.02444 0.96234 0.44086 0.0
C54 C 0.02763 1.00074 0.40063 0.0
C55 C 0.07468 0.96292 0.47875 0.0
C56 C 0.12769 0.00171 0.47615 0.0
C57 C 0.13108 0.04084 0.43679 0.0
C58 C 0.08114 0.03974 0.39906 0.0
N59 N 0.07484 0.92331 0.51857 0.0
H60 H 0.20989 0.79678 0.8358 0.0
H61 H 0.28939 0.66154 0.74552 0.0
H62 H 0.36205 0.72446 0.90855 0.0
H63 H 0.1799 0.81675 0.74739 0.0
C64 C 0.16651 0.77078 0.72928 0.0
C65 C 0.24469 0.7678 0.83303 0.0
C66 C 0.28621 0.76627 0.87801 0.0
C67 C 0.2466 0.73004 0.78528 0.0
C68 C 0.28982 0.69107 0.78243 0.0
C69 C 0.33193 0.68864 0.82638 0.0
C70 C 0.33005 0.72657 0.87418 0.0
N71 N 0.20257 0.72587 0.74065 0.0
H72 H 0.04192 0.63198 0.52149 0.0
H73 H 0.94331 0.47402 0.43006 0.0
H74 H 0.8743 0.55141 0.57132 0.0
H75 H 0.98434 0.52096 0.36483 0.0
C76 C 0.03035 0.53712 0.38236 0.0
C77 C 0.00333 0.5972 0.51607 0.0
C78 C 0.95899 0.59712 0.55223 0.0
C79 C 0.99729 0.55405 0.47139 0.0
C80 C 0.94739 0.50881 0.46366 0.0
C81 C 0.90296 0.50751 0.49951 0.0
C82 C 0.9093 0.55141 0.54422 0.0
N83 N 0.04212 0.557 0.43487 0.0
H84 H 0.71717 0.84201 0.72853 0.0
H85 H 0.80084 0.72343 0.82334 0.0
H86 H 0.67909 0.8358 0.89271 0.0
H87 H 0.87781 0.76087 0.77408 0.0
C88 C 0.8547 0.76074 0.73422 0.0
C89 C 0.7223 0.82334 0.76626 0.0
C90 C 0.69319 0.84465 0.80989 0.0
C91 C 0.76221 0.78153 0.7714 0.0
C92 C 0.77076 0.757 0.82002 0.0
C93 C 0.74023 0.77543 0.86407 0.0
C94 C 0.70164 0.81985 0.85873 0.0
N95 N 0.79653 0.7692 0.72789 0.0
H96 H 0.21719 0.34199 0.22851 0.0
H97 H 0.30084 0.22341 0.32333 0.0
H98 H 0.17905 0.33574 0.39268 0.0
H99 H 0.37783 0.26089 0.2741 0.0
C100 C 0.35474 0.26075 0.23424 0.0
C101 C 0.2223 0.32332 0.26624 0.0
C102 C 0.19317 0.34461 0.30986 0.0
C103 C 0.26222 0.28151 0.27139 0.0
C104 C 0.27076 0.25697 0.32 0.0
C105 C 0.2402 0.27539 0.36405 0.0
C106 C 0.20161 0.3198 0.3587 0.0
N107 N 0.29656 0.26919 0.22789 0.0
H108 H 0.42859 0.03964 0.46937 0.0
H109 H 0.55548 0.96615 0.57265 0.0
H110 H 0.46169 0.10782 0.6371 0.0
H111 H 0.51018 0.88242 0.51415 0.0
C112 C 0.50951 0.89985 0.47559 0.0
C113 C 0.45238 0.03993 0.50881 0.0
C114 C 0.44005 0.0791 0.55228 0.0
C115 C 0.49218 0.99794 0.51623 0.0
C116 C 0.52318 0.99732 0.56729 0.0
C117 C 0.51321 0.03732 0.61123 0.0
C118 C 0.47097 0.0777 0.60335 0.0
N119 N 0.49957 0.95646 0.47157 0.0
H120 H 0.21642 0.23712 0.63143 0.0
H121 H 0.27091 0.37957 0.76033 0.0
H122 H 0.38695 0.34931 0.63635 0.0
H123 H 0.20512 0.32606 0.8016 0.0
C124 C 0.17189 0.29812 0.77257 0.0
C125 C 0.24933 0.27397 0.65074 0.0
C126 C 0.30305 0.28985 0.62758 0.0
C127 C 0.23771 0.30452 0.69934 0.0
C128 C 0.27968 0.35345 0.72405 0.0
C129 C 0.33385 0.369 0.70163 0.0
C130 C 0.34542 0.33671 0.65388 0.0
N131 N 0.18342 0.28447 0.7215 0.0
H132 H 0.73814 0.16734 0.65672 0.0
H133 H 0.90302 0.26366 0.7389 0.0
H134 H 0.81425 0.10989 0.80169 0.0
H135 H 0.7299 0.25495 0.62933 0.0
C136 C 0.77532 0.27672 0.62655 0.0
C137 C 0.77278 0.17399 0.69037 0.0
C138 C 0.77 0.13394 0.72903 0.0
C139 C 0.81985 0.22192 0.69499 0.0
C140 C 0.86618 0.22737 0.73671 0.0
C141 C 0.86512 0.18729 0.77549 0.0
C142 C 0.8159 0.1412 0.77211 0.0
N143 N 0.82296 0.26479 0.65781 0.0
H144 H 0.48693 0.58929 0.60621 0.0
H145 H 0.60504 0.51769 0.49751 0.0
H146 H 0.60068 0.46103 0.65439 0.0
H147 H 0.58243 0.58757 0.45091 0.0
C148 C 0.5476 0.61127 0.46696 0.0
C149 C 0.52014 0.55965 0.59747 0.0
C150 C 0.54039 0.52496 0.63638 0.0
C151 C 0.54368 0.55851 0.54778 0.0
C152 C 0.58667 0.5199 0.53577 0.0
C153 C 0.60772 0.48475 0.57415 0.0
C154 C 0.58467 0.48798 0.62455 0.0
N155 N 0.52497 0.59957 0.51293 0.0
H156 H 0.4838 0.43142 0.94191 0.0
H157 H 0.66615 0.50163 0.00547 0.0
H158 H 0.58378 0.57006 0.86866 0.0
H159 H 0.47957 0.41347 0.03295 0.0
C160 C 0.52304 0.39778 0.04086 0.0
C161 C 0.52444 0.46238 0.94089 0.0
C162 C 0.52762 0.50077 0.90065 0.0
C163 C 0.57467 0.46297 0.97878 0.0
C164 C 0.62768 0.50177 0.97618 0.0
C165 C 0.63106 0.54089 0.93681 0.0
C166 C 0.58112 0.53978 0.89908 0.0
N167 N 0.57485 0.42336 0.0186 0.0
H168 H 0.71008 0.29698 0.33565 0.0
H169 H 0.78976 0.16191 0.24533 0.0
H170 H 0.86187 0.22429 0.4086 0.0
H171 H 0.67992 0.31704 0.24746 0.0
C172 C 0.66675 0.27111 0.22916 0.0
C173 C 0.74484 0.26797 0.3329 0.0
C174 C 0.78621 0.26628 0.37795 0.0
C175 C 0.74689 0.23034 0.2851 0.0
C176 C 0.79008 0.19134 0.28228 0.0
C177 C 0.83201 0.18872 0.32632 0.0
C178 C 0.83 0.22653 0.37416 0.0
N179 N 0.70302 0.22631 0.24037 0.0
H180 H 0.54201 0.13205 0.02153 0.0
H181 H 0.44337 0.9741 0.9301 0.0
H182 H 0.37441 0.05146 0.07138 0.0
H183 H 0.48438 0.02104 0.86486 0.0
C184 C 0.53039 0.0372 0.88239 0.0
C185 C 0.50341 0.09726 0.01612 0.0
C186 C 0.45909 0.09717 0.05229 0.0
C187 C 0.49736 0.05412 0.97142 0.0
C188 C 0.44746 0.00888 0.9637 0.0
C189 C 0.40304 0.00758 0.99956 0.0
C190 C 0.40939 0.05147 0.04427 0.0
N191 N 0.54218 0.05707 0.93489 0.0
C192 C 0.15587 0.94697 0.06303 0.0
O193 O 0.18695 0.92844 0.10318 0.0
O194 O 0.24213 0.83866 0.93443 0.0
Zn195 Zn 0.24132 0.88755 0.00769 0.0
O196 O 0.31718 0.94759 0.0252 0.0
C197 C 0.28292 0.81873 0.09086 0.0
O198 O 0.33659 0.84782 0.08706 0.0
O199 O 0.16963 0.93401 0.01544 0.0
C200 C 0.34884 0.96219 0.98806 0.0
O201 O 0.33201 0.93761 0.93853 0.0
C202 C 0.28293 0.80437 0.92931 0.0
O203 O 0.32258 0.8029 0.97063 0.0
O204 O 0.23724 0.82873 0.06146 0.0
C205 C 0.15852 0.39585 0.30465 0.0
O206 O 0.13449 0.41967 0.34612 0.0
O207 O 0.06367 0.51232 0.30094 0.0
Zn208 Zn 0.12476 0.49878 0.24945 0.0
O209 O 0.19627 0.56538 0.26269 0.0
C210 C 0.04603 0.5366 0.16527 0.0
O211 O 0.03957 0.57707 0.205 0.0
O212 O 0.1571 0.42054 0.26134 0.0
C213 C 0.2197 0.58404 0.22241 0.0
O214 O 0.1966 0.56045 0.17391 0.0
C215 C 0.07649 0.53542 0.34933 0.0
O216 O 0.1331 0.55382 0.3682 0.0
O217 O 0.08079 0.49737 0.17403 0.0
C218 C 0.89136 0.6175 0.04529 0.0
O219 O 0.86565 0.63747 0.08728 0.0
O220 O 0.78655 0.7112 0.9211 0.0
Zn221 Zn 0.79175 0.66399 0.98647 0.0
O222 O 0.72343 0.59678 0.97776 0.0
C223 C 0.81533 0.75738 0.07646 0.0
O224 O 0.86636 0.77096 0.05569 0.0
O225 O 0.86963 0.62602 0.99854 0.0
C226 C 0.68535 0.58484 0.93646 0.0
O227 O 0.69191 0.61556 0.8956 0.0
C228 C 0.74843 0.7481 0.91508 0.0
O229 O 0.71342 0.75874 0.95322 0.0
O230 O 0.77723 0.71449 0.05304 0.0
C231 C 0.87502 0.14407 0.32206 0.0
O232 O 0.90889 0.13412 0.36458 0.0
O233 O 0.98153 0.03636 0.32421 0.0
Zn234 Zn 0.92152 0.04176 0.26223 0.0
O235 O 0.86038 0.96748 0.24736 0.0
C236 C 0.01499 0.02699 0.18893 0.0
O237 O 0.0411 0.00312 0.22858 0.0
O238 O 0.87594 0.11213 0.27735 0.0
C239 C 0.87803 0.9203 0.22603 0.0
O240 O 0.9354 0.92066 0.21895 0.0
C241 C 0.97634 1.00051 0.35945 0.0
O242 O 0.92649 0.96286 0.35783 0.0
O243 O 0.96564 0.04839 0.19506 0.0
C244 C 0.39135 0.11748 0.54528 0.0
O245 O 0.36563 0.13744 0.58727 0.0
O246 O 0.28654 0.21117 0.42109 0.0
Zn247 Zn 0.29174 0.16396 0.48646 0.0
O248 O 0.22343 0.09675 0.47775 0.0
C249 C 0.31533 0.25735 0.57645 0.0
O250 O 0.36636 0.27092 0.55568 0.0
O251 O 0.36962 0.126 0.49853 0.0
C252 C 0.18537 0.08478 0.43644 0.0
O253 O 0.19196 0.11547 0.39556 0.0
C254 C 0.2484 0.24805 0.41505 0.0
O255 O 0.21337 0.25867 0.45318 0.0
O256 O 0.27722 0.21447 0.55302 0.0
C257 C 0.37501 0.64406 0.82208 0.0
O258 O 0.40902 0.63422 0.86456 0.0
O259 O 0.48152 0.53636 0.82421 0.0
Zn260 Zn 0.4215 0.54174 0.76224 0.0
O261 O 0.36039 0.46744 0.74736 0.0
C262 C 0.51495 0.52699 0.68893 0.0
O263 O 0.54107 0.50313 0.72858 0.0
O264 O 0.37586 0.61207 0.77739 0.0
C265 C 0.37804 0.42027 0.72602 0.0
O266 O 0.43541 0.42064 0.71893 0.0
C267 C 0.47633 0.50053 0.85947 0.0
O268 O 0.42648 0.46288 0.85786 0.0
O269 O 0.46561 0.54839 0.69506 0.0
C270 C 0.65577 0.4469 0.563 0.0
O271 O 0.68685 0.42835 0.60315 0.0
O272 O 0.74206 0.33862 0.43437 0.0
Zn273 Zn 0.74123 0.38749 0.50765 0.0
O274 O 0.81708 0.44755 0.52515 0.0
C275 C 0.78286 0.31871 0.59083 0.0
O276 O 0.83651 0.34783 0.58705 0.0
O277 O 0.66953 0.43394 0.51541 0.0
C278 C 0.84877 0.46212 0.48801 0.0
O279 O 0.83196 0.4375 0.43849 0.0
C280 C 0.78282 0.3043 0.42929 0.0
O281 O 0.82239 0.30275 0.47065 0.0
O282 O 0.73718 0.32867 0.56142 0.0
C283 C 0.65854 0.89589 0.80468 0.0
O284 O 0.63453 0.91973 0.84615 0.0
O285 O 0.56368 0.01237 0.80096 0.0
Zn286 Zn 0.62476 0.99881 0.74946 0.0
O287 O 0.69627 0.06539 0.76269 0.0
C288 C 0.54602 0.03661 0.66528 0.0
O289 O 0.53956 0.07708 0.705 0.0
O290 O 0.6571 0.92056 0.76135 0.0
C291 C 0.71972 0.08403 0.72241 0.0
O292 O 0.69663 0.06042 0.67391 0.0
C293 C 0.57652 0.03548 0.84934 0.0
O294 O 0.63314 0.05387 0.8682 0.0
O295 O 0.58078 0.99738 0.67404 0.0
C296 C 0.02983 0.15851 0.94157 0.0
O297 O 0.99058 0.19067 0.96193 0.0
O298 O 0.96157 0.23352 0.81816 0.0
Zn299 Zn 0.03596 0.24922 0.87208 0.0
O300 O 0.02307 0.30768 0.93472 0.0
C301 C 0.11812 0.27356 0.79025 0.0
O302 O 0.07741 0.23743 0.75727 0.0
O303 O 0.05447 0.17344 0.90065 0.0
C304 C 0.01638 0.36167 0.93018 0.0
O305 O 0.01619 0.38084 0.88278 0.0
C306 C 0.91609 0.19377 0.8184 0.0
O307 O 0.91534 0.1582 0.85618 0.0
O308 O 0.10928 0.28483 0.83922 0.0
C309 C 0.52982 0.65849 0.44157 0.0
O310 O 0.49055 0.69064 0.46192 0.0
O311 O 0.46157 0.7335 0.31818 0.0
Zn312 Zn 0.53596 0.74921 0.37209 0.0
O313 O 0.52308 0.80766 0.43474 0.0
C314 C 0.61812 0.77357 0.29026 0.0
O315 O 0.57741 0.73745 0.25728 0.0
O316 O 0.55448 0.67343 0.40066 0.0
C317 C 0.51638 0.86166 0.43019 0.0
O318 O 0.5162 0.88083 0.3828 0.0
C319 C 0.41609 0.69375 0.31841 0.0
O320 O 0.41534 0.65816 0.35618 0.0
O321 O 0.60928 0.78482 0.33923 0.0
C322 C 0.02894 0.85613 0.57378 0.0
O323 O 0.08128 0.83642 0.58235 0.0
O324 O 0.94526 0.7615 0.69928 0.0
Zn325 Zn 0.00225 0.77103 0.64353 0.0
O326 O 0.99976 0.69426 0.59476 0.0
C327 C 0.11581 0.75615 0.69628 0.0
O328 O 0.09777 0.70012 0.6766 0.0
O329 O 0.98446 0.83496 0.5971 0.0
C330 C 0.96242 0.64735 0.5954 0.0
O331 O 0.92356 0.64625 0.63149 0.0
C332 C 0.88866 0.76088 0.69089 0.0
O333 O 0.86386 0.76542 0.6425 0.0
O334 O 0.08326 0.79593 0.68549 0.0
C335 C 0.52896 0.35618 0.07381 0.0
O336 O 0.58131 0.33649 0.08239 0.0
O337 O 0.44531 0.26154 0.19931 0.0
Zn338 Zn 0.50231 0.2711 0.14358 0.0
O339 O 0.49986 0.19431 0.09482 0.0
C340 C 0.61608 0.25641 0.19613 0.0
O341 O 0.5983 0.20041 0.17622 0.0
O342 O 0.48448 0.33499 0.09713 0.0
C343 C 0.46253 0.14741 0.09547 0.0
O344 O 0.42367 0.1463 0.13155 0.0
C345 C 0.38871 0.26091 0.19092 0.0
O346 O 0.36392 0.26544 0.14251 0.0
O347 O 0.5833 0.29608 0.18555 0.0
loop_
_geom_bond_atom_site_label_1
_geom_bond_atom_site_label_2
_geom_bond_distance
_geom_bond_site_symmetry_2
_ccdc_geom_bond_type
H0 C5 0.930 1_655 S
H1 C8 0.930 1_556 S
H2 C10 0.930 . S
H3 C4 1.016 . S
C4 H3 1.016 . S
C4 N11 1.286 . S
C5 H0 0.930 1_455 S
C5 C6 1.397 . S
C5 C7 1.361 . S
C6 C5 1.397 . S
C6 C10 1.390 1_545 S
C7 C5 1.361 . S
C7 C8 1.393 . S
C7 N11 1.413 1_554 S
C8 H1 0.930 1_554 S
C8 C7 1.393 . S
C8 C9 1.399 1_545 S
C9 C8 1.399 1_565 S
C9 C10 1.381 . S
C10 H2 0.930 . S
C10 C6 1.390 1_565 S
C10 C9 1.381 . S
N11 C4 1.286 . S
N11 C7 1.413 1_556 S
H12 C17 0.930 . S
H13 C20 0.930 . S
H14 C22 0.930 . S
H15 C16 1.016 . S
C16 H15 1.016 . S
C16 N23 1.286 . S
C17 H12 0.930 . S
C17 C18 1.397 . S
C17 C19 1.361 . S
C18 C17 1.397 . S
C18 C22 1.390 . S
C19 C17 1.361 . S
C19 C20 1.393 . S
C19 N23 1.413 . S
C20 H13 0.930 . S
C20 C19 1.393 . S
C20 C21 1.399 . S
C21 C20 1.399 . S
C21 C22 1.381 . S
C22 H14 0.930 . S
C22 C18 1.390 . S
C22 C21 1.381 . S
N23 C16 1.286 . S
N23 C19 1.413 . S
H24 C29 0.930 1_556 S
H25 C32 0.920 1_455 S
H26 C34 0.930 . S
H27 C28 1.016 1_455 S
C28 H27 1.016 1_655 S
C28 N35 1.286 . S
C29 H24 0.930 1_554 S
C29 C30 1.397 . S
C29 C31 1.361 . S
C30 C29 1.397 . S
C30 C34 1.390 . S
C31 C29 1.361 . S
C31 C32 1.403 . S
C31 N35 1.413 1_554 S
C32 H25 0.920 1_655 S
C32 C31 1.403 . S
C32 C33 1.400 1_655 S
C33 C32 1.400 1_455 S
C33 C34 1.381 1_455 S
C34 H26 0.930 . S
C34 C30 1.390 . S
C34 C33 1.381 1_655 S
N35 C28 1.286 . S
N35 C31 1.413 1_556 S
H36 C41 0.930 . S
H37 C44 0.930 . S
H38 C46 0.930 . S
H39 C40 1.016 . S
C40 H39 1.016 . S
C40 N47 1.286 . S
C41 H36 0.930 . S
C41 C42 1.397 . S
C41 C43 1.361 . S
C42 C41 1.397 . S
C42 C46 1.390 . S
C43 C41 1.361 . S
C43 C44 1.393 . S
C43 N47 1.413 . S
C44 H37 0.930 . S
C44 C43 1.393 . S
C44 C45 1.399 . S
C45 C44 1.399 . S
C45 C46 1.381 . S
C46 H38 0.930 . S
C46 C42 1.390 . S
C46 C45 1.381 . S
N47 C40 1.286 . S
N47 C43 1.413 . S
H48 C53 0.930 1_655 S
H49 C56 0.930 . S
H50 C58 0.930 . S
H51 C52 1.016 . S
C52 H51 1.016 . S
C52 N59 1.286 . S
C53 H48 0.930 1_455 S
C53 C54 1.397 1_565 S
C53 C55 1.361 . S
C54 C53 1.397 1_545 S
C54 C58 1.390 . S
C55 C53 1.361 . S
C55 C56 1.393 1_565 S
C55 N59 1.413 . S
C56 H49 0.930 . S
C56 C55 1.393 1_545 S
C56 C57 1.399 . S
C57 C56 1.399 . S
C57 C58 1.381 . S
C58 H50 0.930 . S
C58 C54 1.390 . S
C58 C57 1.381 . S
N59 C52 1.286 . S
N59 C55 1.413 . S
H60 C65 0.930 . S
H61 C68 0.930 . S
H62 C70 0.930 . S
H63 C64 1.016 . S
C64 H63 1.016 . S
C64 N71 1.286 . S
C65 H60 0.930 . S
C65 C66 1.397 . S
C65 C67 1.361 . S
C66 C65 1.397 . S
C66 C70 1.390 . S
C67 C65 1.361 . S
C67 C68 1.393 . S
C67 N71 1.413 . S
C68 H61 0.930 . S
C68 C67 1.393 . S
C68 C69 1.399 . S
C69 C68 1.399 . S
C69 C70 1.381 . S
C70 H62 0.930 . S
C70 C66 1.390 . S
C70 C69 1.381 . S
N71 C64 1.286 . S
N71 C67 1.413 . S
H72 C77 0.930 1_455 S
H73 C80 0.930 . S
H74 C82 0.930 . S
H75 C76 1.016 . S
C76 H75 1.016 . S
C76 N83 1.286 . S
C77 H72 0.930 1_655 S
C77 C78 1.397 . S
C77 C79 1.361 . S
C78 C77 1.397 . S
C78 C82 1.390 . S
C79 C77 1.361 . S
C79 C80 1.393 . S
C79 N83 1.413 1_655 S
C80 H73 0.930 . S
C80 C79 1.393 . S
C80 C81 1.399 . S
C81 C80 1.399 . S
C81 C82 1.381 . S
C82 H74 0.930 . S
C82 C78 1.390 . S
C82 C81 1.381 . S
N83 C76 1.286 . S
N83 C79 1.413 1_455 S
H84 C89 0.930 . S
H85 C92 0.930 . S
H86 C94 0.930 . S
H87 C88 1.016 . S
C88 H87 1.016 . S
C88 N95 1.286 . S
C89 H84 0.930 . S
C89 C90 1.397 . S
C89 C91 1.361 . S
C90 C89 1.397 . S
C90 C94 1.390 . S
C91 C89 1.361 . S
C91 C92 1.393 . S
C91 N95 1.413 . S
C92 H85 0.930 . S
C92 C91 1.393 . S
C92 C93 1.399 . S
C93 C92 1.399 . S
C93 C94 1.381 . S
C94 H86 0.930 . S
C94 C90 1.390 . S
C94 C93 1.381 . S
N95 C88 1.286 . S
N95 C91 1.413 . S
H96 C101 0.930 . S
H97 C104 0.930 . S
H98 C106 0.930 . S
H99 C100 1.016 . S
C100 H99 1.016 . S
C100 N107 1.286 . S
C101 H96 0.930 . S
C101 C102 1.397 . S
C101 C103 1.361 . S
C102 C101 1.397 . S
C102 C106 1.390 . S
C103 C101 1.361 . S
C103 C104 1.393 . S
C103 N107 1.413 . S
C104 H97 0.930 . S
C104 C103 1.393 . S
C104 C105 1.399 . S
C105 C104 1.399 . S
C105 C106 1.381 . S
C106 H98 0.930 . S
C106 C102 1.390 . S
C106 C105 1.381 . S
N107 C100 1.286 . S
N107 C103 1.413 . S
H108 C113 0.930 1_565 S
H109 C116 0.930 . S
H110 C118 0.930 . S
H111 C112 1.016 . S
C112 H111 1.016 . S
C112 N119 1.286 . S
C113 H108 0.930 1_545 S
C113 C114 1.398 . S
C113 C115 1.360 1_545 S
C114 C113 1.398 . S
C114 C118 1.390 . S
C115 C113 1.360 1_565 S
C115 C116 1.393 . S
C115 N119 1.413 . S
C116 H109 0.930 . S
C116 C115 1.393 . S
C116 C117 1.399 1_565 S
C117 C116 1.399 1_545 S
C117 C118 1.381 . S
C118 H110 0.930 . S
C118 C114 1.390 . S
C118 C117 1.381 . S
N119 C112 1.286 . S
N119 C115 1.413 . S
H120 C125 0.930 . S
H121 C128 0.930 . S
H122 C130 0.930 . S
H123 C124 1.016 . S
C124 H123 1.016 . S
C124 N131 1.286 . S
C125 H120 0.930 . S
C125 C126 1.397 . S
C125 C127 1.361 . S
C126 C125 1.397 . S
C126 C130 1.390 . S
C127 C125 1.361 . S
C127 C128 1.393 . S
C127 N131 1.413 . S
C128 H121 0.930 . S
C128 C127 1.393 . S
C128 C129 1.399 . S
C129 C128 1.399 . S
C129 C130 1.381 . S
C130 H122 0.930 . S
C130 C126 1.390 . S
C130 C129 1.381 . S
N131 C124 1.286 . S
N131 C127 1.413 . S
H132 C137 0.930 . S
H133 C140 0.930 . S
H134 C142 0.930 . S
H135 C136 1.016 . S
C136 H135 1.016 . S
C136 N143 1.286 . S
C137 H132 0.930 . S
C137 C138 1.397 . S
C137 C139 1.361 . S
C138 C137 1.397 . S
C138 C142 1.390 . S
C139 C137 1.361 . S
C139 C140 1.393 . S
C139 N143 1.413 . S
C140 H133 0.930 . S
C140 C139 1.393 . S
C140 C141 1.399 . S
C141 C140 1.399 . S
C141 C142 1.381 . S
C142 H134 0.930 . S
C142 C138 1.390 . S
C142 C141 1.381 . S
N143 C136 1.286 . S
N143 C139 1.413 . S
H144 C149 0.930 . S
H145 C152 0.930 . S
H146 C154 0.930 . S
H147 C148 1.016 . S
C148 H147 1.016 . S
C148 N155 1.286 . S
C149 H144 0.930 . S
C149 C150 1.397 . S
C149 C151 1.361 . S
C150 C149 1.397 . S
C150 C154 1.390 . S
C151 C149 1.361 . S
C151 C152 1.393 . S
C151 N155 1.413 . S
C152 H145 0.930 . S
C152 C151 1.393 . S
C152 C153 1.399 . S
C153 C152 1.399 . S
C153 C154 1.381 . S
C154 H146 0.930 . S
C154 C150 1.390 . S
C154 C153 1.381 . S
N155 C148 1.286 . S
N155 C151 1.413 . S
H156 C161 0.930 . S
H157 C164 0.930 1_554 S
H158 C166 0.930 . S
H159 C160 1.016 . S
C160 H159 1.016 . S
C160 N167 1.286 . S
C161 H156 0.930 . S
C161 C162 1.397 . S
C161 C163 1.361 . S
C162 C161 1.397 . S
C162 C166 1.390 . S
C163 C161 1.361 . S
C163 C164 1.393 . S
C163 N167 1.413 1_556 S
C164 H157 0.930 1_556 S
C164 C163 1.393 . S
C164 C165 1.399 . S
C165 C164 1.399 . S
C165 C166 1.381 . S
C166 H158 0.930 . S
C166 C162 1.390 . S
C166 C165 1.381 . S
N167 C160 1.286 . S
N167 C163 1.413 1_554 S
H168 C173 0.930 . S
H169 C176 0.930 . S
H170 C178 0.930 . S
H171 C172 1.016 . S
C172 H171 1.016 . S
C172 N179 1.286 . S
C173 H168 0.930 . S
C173 C174 1.397 . S
C173 C175 1.361 . S
C174 C173 1.397 . S
C174 C178 1.390 . S
C175 C173 1.361 . S
C175 C176 1.393 . S
C175 N179 1.413 . S
C176 H169 0.930 . S
C176 C175 1.393 . S
C176 C177 1.399 . S
C177 C176 1.399 . S
C177 C178 1.381 . S
C178 H170 0.930 . S
C178 C174 1.390 . S
C178 C177 1.381 . S
N179 C172 1.286 . S
N179 C175 1.413 . S
H180 C185 0.930 . S
H181 C188 0.930 1_565 S
H182 C190 0.930 . S
H183 C184 1.016 1_565 S
C184 H183 1.016 1_545 S
C184 N191 1.286 . S
C185 H180 0.930 . S
C185 C186 1.397 1_556 S
C185 C187 1.361 . S
C186 C185 1.397 1_554 S
C186 C190 1.390 . S
C187 C185 1.361 . S
C187 C188 1.393 . S
C187 N191 1.413 . S
C188 H181 0.930 1_545 S
C188 C187 1.393 . S
C188 C189 1.399 . S
C189 C188 1.399 . S
C189 C190 1.381 1_556 S
C190 H182 0.930 . S
C190 C186 1.390 . S
C190 C189 1.381 1_554 S
N191 C184 1.286 . S
N191 C187 1.413 . S
C192 O193 1.160 1_554 S
C192 O199 1.185 . S
O193 C192 1.160 1_556 S
O194 Zn195 1.899 1_556 S
O194 C202 1.284 . S
Zn195 O194 1.899 1_554 S
Zn195 O196 2.032 . S
Zn195 O199 2.086 . S
Zn195 O204 1.977 . S
O196 Zn195 2.032 . S
O196 C200 1.278 . S
C197 O198 1.203 . S
C197 O204 1.267 . S
O198 C197 1.203 . S
O199 C192 1.185 . S
O199 Zn195 2.086 . S
C200 O196 1.278 . S
C200 O201 1.211 . S
O201 C200 1.211 . S
C202 O194 1.284 . S
C202 O203 1.273 . S
O203 C202 1.273 . S
O204 Zn195 1.977 . S
O204 C197 1.267 . S
C205 O206 1.160 . S
C205 O212 1.185 . S
O206 C205 1.160 . S
O207 Zn208 1.899 . S
O207 C215 1.284 . S
Zn208 O207 1.899 . S
Zn208 O209 2.032 . S
Zn208 O212 2.086 . S
Zn208 O217 1.977 . S
O209 Zn208 2.032 . S
O209 C213 1.278 . S
C210 O211 1.203 . S
C210 O217 1.267 . S
O211 C210 1.203 . S
O212 C205 1.185 . S
O212 Zn208 2.086 . S
C213 O209 1.278 . S
C213 O214 1.211 . S
O214 C213 1.211 . S
C215 O207 1.284 . S
C215 O216 1.273 . S
O216 C215 1.273 . S
O217 Zn208 1.977 . S
O217 C210 1.267 . S
C218 O219 1.160 1_554 S
C218 O225 1.185 . S
O219 C218 1.160 1_556 S
O220 Zn221 1.899 1_556 S
O220 C228 1.284 . S
Zn221 O220 1.899 1_554 S
Zn221 O222 2.032 1_554 S
Zn221 O225 2.086 . S
Zn221 O230 1.977 . S
O222 Zn221 2.032 1_556 S
O222 C226 1.278 . S
C223 O224 1.203 . S
C223 O230 1.267 . S
O224 C223 1.203 . S
O225 C218 1.185 . S
O225 Zn221 2.086 . S
C226 O222 1.278 . S
C226 O227 1.211 1_556 S
O227 C226 1.211 1_554 S
C228 O220 1.284 . S
C228 O229 1.273 . S
O229 C228 1.273 . S
O230 Zn221 1.977 . S
O230 C223 1.267 . S
C231 O232 1.160 . S
C231 O238 1.185 . S
O232 C231 1.160 . S
O233 Zn234 1.899 . S
O233 C241 1.284 1_655 S
Zn234 O233 1.899 . S
Zn234 O235 2.032 1_545 S
Zn234 O238 2.086 . S
Zn234 O243 1.977 . S
O235 Zn234 2.032 1_565 S
O235 C239 1.278 . S
C236 O237 1.203 . S
C236 O243 1.267 1_455 S
O237 C236 1.203 . S
O238 C231 1.185 . S
O238 Zn234 2.086 . S
C239 O235 1.278 . S
C239 O240 1.211 . S
O240 C239 1.211 . S
C241 O233 1.284 1_455 S
C241 O242 1.273 1_445 S
O242 C241 1.273 1_665 S
O243 Zn234 1.977 . S
O243 C236 1.267 1_655 S
C244 O245 1.160 . S
C244 O251 1.185 . S
O245 C244 1.160 . S
O246 Zn247 1.899 . S
O246 C254 1.284 . S
Zn247 O246 1.899 . S
Zn247 O248 2.032 . S
Zn247 O251 2.086 . S
Zn247 O256 1.977 . S
O248 Zn247 2.032 . S
O248 C252 1.278 . S
C249 O250 1.203 . S
C249 O256 1.267 . S
O250 C249 1.203 . S
O251 C244 1.185 . S
O251 Zn247 2.086 . S
C252 O248 1.278 . S
C252 O253 1.211 . S
O253 C252 1.211 . S
C254 O246 1.284 . S
C254 O255 1.273 . S
O255 C254 1.273 . S
O256 Zn247 1.977 . S
O256 C249 1.267 . S
C257 O258 1.160 . S
C257 O264 1.185 . S
O258 C257 1.160 . S
O259 Zn260 1.899 . S
O259 C267 1.284 . S
Zn260 O259 1.899 . S
Zn260 O261 2.032 . S
Zn260 O264 2.086 . S
Zn260 O269 1.977 . S
O261 Zn260 2.032 . S
O261 C265 1.278 . S
C262 O263 1.203 . S
C262 O269 1.267 . S
O263 C262 1.203 . S
O264 C257 1.185 . S
O264 Zn260 2.086 . S
C265 O261 1.278 . S
C265 O266 1.211 . S
O266 C265 1.211 . S
C267 O259 1.284 . S
C267 O268 1.273 . S
O268 C267 1.273 . S
O269 Zn260 1.977 . S
O269 C262 1.267 . S
C270 O271 1.160 . S
C270 O277 1.185 . S
O271 C270 1.160 . S
O272 Zn273 1.899 . S
O272 C280 1.284 . S
Zn273 O272 1.899 . S
Zn273 O274 2.032 . S
Zn273 O277 2.086 . S
Zn273 O282 1.977 . S
O274 Zn273 2.032 . S
O274 C278 1.278 . S
C275 O276 1.203 . S
C275 O282 1.267 . S
O276 C275 1.203 . S
O277 C270 1.185 . S
O277 Zn273 2.086 . S
C278 O274 1.278 . S
C278 O279 1.211 . S
O279 C278 1.211 . S
C280 O272 1.284 . S
C280 O281 1.273 . S
O281 C280 1.273 . S
O282 Zn273 1.977 . S
O282 C275 1.267 . S
C283 O284 1.160 . S
C283 O290 1.185 . S
O284 C283 1.160 . S
O285 Zn286 1.899 . S
O285 C293 1.284 1_565 S
Zn286 O285 1.899 . S
Zn286 O287 2.032 1_565 S
Zn286 O290 2.086 . S
Zn286 O295 1.977 . S
O287 Zn286 2.032 1_545 S
O287 C291 1.278 . S
C288 O289 1.203 1_565 S
C288 O295 1.267 . S
O289 C288 1.203 1_545 S
O290 C283 1.185 . S
O290 Zn286 2.086 . S
C291 O287 1.278 . S
C291 O292 1.211 . S
O292 C291 1.211 . S
C293 O285 1.284 1_545 S
C293 O294 1.273 . S
O294 C293 1.273 . S
O295 Zn286 1.977 . S
O295 C288 1.267 . S
C296 O297 1.160 1_455 S
C296 O303 1.185 . S
O297 C296 1.160 1_655 S
O298 Zn299 1.899 1_655 S
O298 C306 1.284 . S
Zn299 O298 1.899 1_455 S
Zn299 O300 2.032 1_455 S
Zn299 O303 2.086 . S
Zn299 O308 1.977 . S
O300 Zn299 2.032 1_655 S
O300 C304 1.278 1_655 S
C301 O302 1.203 . S
C301 O308 1.267 . S
O302 C301 1.203 . S
O303 C296 1.185 . S
O303 Zn299 2.086 . S
C304 O300 1.278 1_455 S
C304 O305 1.211 . S
O305 C304 1.211 . S
C306 O298 1.284 . S
C306 O307 1.273 . S
O307 C306 1.273 . S
O308 Zn299 1.977 . S
O308 C301 1.267 . S
C309 O310 1.160 . S
C309 O316 1.185 . S
O310 C309 1.160 . S
O311 Zn312 1.899 . S
O311 C319 1.284 . S
Zn312 O311 1.899 . S
Zn312 O313 2.032 . S
Zn312 O316 2.086 . S
Zn312 O321 1.977 . S
O313 Zn312 2.032 . S
O313 C317 1.278 . S
C314 O315 1.203 . S
C314 O321 1.267 . S
O315 C314 1.203 . S
O316 C309 1.185 . S
O316 Zn312 2.086 . S
C317 O313 1.278 . S
C317 O318 1.211 . S
O318 C317 1.211 . S
C319 O311 1.284 . S
C319 O320 1.273 . S
O320 C319 1.273 . S
O321 Zn312 1.977 . S
O321 C314 1.267 . S
C322 O323 1.160 1_455 S
C322 O329 1.185 . S
O323 C322 1.160 1_655 S
O324 Zn325 1.899 1_655 S
O324 C332 1.284 . S
Zn325 O324 1.899 1_455 S
Zn325 O326 2.032 1_455 S
Zn325 O329 2.086 . S
Zn325 O334 1.977 . S
O326 Zn325 2.032 1_655 S
O326 C330 1.278 . S
C327 O328 1.203 . S
C327 O334 1.267 . S
O328 C327 1.203 . S
O329 C322 1.185 . S
O329 Zn325 2.086 . S
C330 O326 1.278 . S
C330 O331 1.211 1_655 S
O331 C330 1.211 1_455 S
C332 O324 1.284 . S
C332 O333 1.273 . S
O333 C332 1.273 . S
O334 Zn325 1.977 . S
O334 C327 1.267 . S
C335 O336 1.160 . S
C335 O342 1.185 . S
O336 C335 1.160 . S
O337 Zn338 1.899 . S
O337 C345 1.284 . S
Zn338 O337 1.899 . S
Zn338 O339 2.032 . S
Zn338 O342 2.086 . S
Zn338 O347 1.977 . S
O339 Zn338 2.032 . S
O339 C343 1.278 . S
C340 O341 1.203 . S
C340 O347 1.267 . S
O341 C340 1.203 . S
O342 C335 1.185 . S
O342 Zn338 2.086 . S
C343 O339 1.278 . S
C343 O344 1.211 . S
O344 C343 1.211 . S
C345 O337 1.284 . S
C345 O346 1.273 . S
O346 C345 1.273 . S
O347 Zn338 1.977 . S
O347 C340 1.267 . S
C202 C66 1.849 . S
C215 C76 1.402 . S
C93 C228 1.953 . S
C241 C54 1.533 . S
C249 C126 1.579 . S
C262 C150 1.897 . S
C136 C275 1.235 . S
C288 C117 1.953 1_565 S
C141 C306 1.250 . S
C317 C112 1.320 . S
C124 C301 1.477 . S
C309 C148 1.357 . S
C88 C332 1.417 . S
C52 C322 1.602 . S
C64 C327 1.267 . S
C78 C330 1.267 . S
C45 C239 1.725 . S
C177 C231 1.870 . S
C200 C189 1.546 1_564 S
C205 C102 1.697 . S
C57 C252 1.805 . S
C291 C138 1.605 . S
C244 C114 2.050 . S
C270 C153 1.829 . S
C280 C174 1.849 . S
C184 C293 1.402 . S
C105 C254 1.953 . S
C267 C162 1.533 . S
C42 C223 1.579 . S
C236 C6 1.897 . S
C197 C16 1.235 . S
C210 C33 1.953 . S
C21 C319 1.250 . S
C28 C304 1.320 1_655 S
C40 C314 1.477 . S
C4 C296 1.357 . S
C345 C100 1.418 . S
C335 C160 1.603 . S
C340 C172 1.267 . S
C186 C343 1.267 . S
C129 C265 1.725 . S
C257 C69 1.870 . S
C278 C81 1.545 . S
C283 C90 1.697 . S
C165 C226 1.805 . S
C213 C18 1.605 . S
C30 C218 2.050 . S
C192 C9 1.829 . S
