# Generated by pormake.
# Topology ptr, (4,4)-cn, num edge types: 1
# Building blocks:
#     Node 0, Type 0, BuildingBlock: TATPOV_clean_sbu_0, # of connection points: 4
#     Node 1, Type 0, BuildingBlock: TATPOV_clean_sbu_0, # of connection points: 4
#     Node 2, Type 0, BuildingBlock: TATPOV_clean_sbu_0, # of connection points: 4
#     Node 3, Type 0, BuildingBlock: TATPOV_clean_sbu_0, # of connection points: 4
#     Node 4, Type 0, BuildingBlock: TATPOV_clean_sbu_0, # of connection points: 4
#     Node 5, Type 0, BuildingBlock: TATPOV_clean_sbu_0, # of connection points: 4
#     Node 6, Type 0, BuildingBlock: TATPOV_clean_sbu_0, # of connection points: 4
#     Node 7, Type 0, BuildingBlock: TATPOV_clean_sbu_0, # of connection points: 4
#     Node 8, Type 0, BuildingBlock: TATPOV_clean_sbu_0, # of connection points: 4
#     Node 9, Type 0, BuildingBlock: TATPOV_clean_sbu_0, # of connection points: 4
#     Node 10, Type 0, BuildingBlock: TATPOV_clean_sbu_0, # of connection points: 4
#     Node 11, Type 0, BuildingBlock: TATPOV_clean_sbu_0, # of connection points: 4
#     Node 12, Type 0, BuildingBlock: TATPOV_clean_sbu_0, # of connection points: 4
#     Node 13, Type 0, BuildingBlock: TATPOV_clean_sbu_0, # of connection points: 4
#     Node 14, Type 0, BuildingBlock: TATPOV_clean_sbu_0, # of connection points: 4
#     Node 15, Type 0, BuildingBlock: TATPOV_clean_sbu_0, # of connection points: 4
#     Node 16, Type 0, BuildingBlock: TATPOV_clean_sbu_0, # of connection points: 4
#     Node 17, Type 0, BuildingBlock: TATPOV_clean_sbu_0, # of connection points: 4
#     Node 18, Type 1, BuildingBlock: NAWXER_clean_linker_0, # of connection points: 4
#     Node 19, Type 1, BuildingBlock: NAWXER_clean_linker_0, # of connection points: 4
#     Node 20, Type 1, BuildingBlock: NAWXER_clean_linker_0, # of connection points: 4
#     Node 21, Type 1, BuildingBlock: NAWXER_clean_linker_0, # of connection points: 4
#     Node 22, Type 1, BuildingBlock: NAWXER_clean_linker_0, # of connection points: 4
#     Node 23, Type 1, BuildingBlock: NAWXER_clean_linker_0, # of connection points: 4
#     Node 24, Type 1, BuildingBlock: NAWXER_clean_linker_0, # of connection points: 4
#     Node 25, Type 1, BuildingBlock: NAWXER_clean_linker_0, # of connection points: 4
#     Node 26, Type 1, BuildingBlock: NAWXER_clean_linker_0, # of connection points: 4
#     Node 27, Type 1, BuildingBlock: NAWXER_clean_linker_0, # of connection points: 4
#     Node 28, Type 1, BuildingBlock: NAWXER_clean_linker_0, # of connection points: 4
#     Node 29, Type 1, BuildingBlock: NAWXER_clean_linker_0, # of connection points: 4
#     Node 30, Type 1, BuildingBlock: NAWXER_clean_linker_0, # of connection points: 4
#     Node 31, Type 1, BuildingBlock: NAWXER_clean_linker_0, # of connection points: 4
#     Node 32, Type 1, BuildingBlock: NAWXER_clean_linker_0, # of connection points: 4
#     Node 33, Type 1, BuildingBlock: NAWXER_clean_linker_0, # of connection points: 4
#     Node 34, Type 1, BuildingBlock: NAWXER_clean_linker_0, # of connection points: 4
#     Node 35, Type 1, BuildingBlock: NAWXER_clean_linker_0, # of connection points: 4
#     Edge 36, Type (0, 1), None
#     Edge 37, Type (0, 1), None
#     Edge 38, Type (0, 1), None
#     Edge 39, Type (0, 1), None
#     Edge 40, Type (0, 1), None
#     Edge 41, Type (0, 1), None
#     Edge 42, Type (0, 1), None
#     Edge 43, Type (0, 1), None
#     Edge 44, Type (0, 1), None
#     Edge 45, Type (0, 1), None
#     Edge 46, Type (0, 1), None
#     Edge 47, Type (0, 1), None
#     Edge 48, Type (0, 1), None
#     Edge 49, Type (0, 1), None
#     Edge 50, Type (0, 1), None
#     Edge 51, Type (0, 1), None
#     Edge 52, Type (0, 1), None
#     Edge 53, Type (0, 1), None
#     Edge 54, Type (0, 1), None
#     Edge 55, Type (0, 1), None
#     Edge 56, Type (0, 1), None
#     Edge 57, Type (0, 1), None
#     Edge 58, Type (0, 1), None
#     Edge 59, Type (0, 1), None
#     Edge 60, Type (0, 1), None
#     Edge 61, Type (0, 1), None
#     Edge 62, Type (0, 1), None
#     Edge 63, Type (0, 1), None
#     Edge 64, Type (0, 1), None
#     Edge 65, Type (0, 1), None
#     Edge 66, Type (0, 1), None
#     Edge 67, Type (0, 1), None
#     Edge 68, Type (0, 1), None
#     Edge 69, Type (0, 1), None
#     Edge 70, Type (0, 1), None
#     Edge 71, Type (0, 1), None
#     Edge 72, Type (0, 1), None
#     Edge 73, Type (0, 1), None
#     Edge 74, Type (0, 1), None
#     Edge 75, Type (0, 1), None
#     Edge 76, Type (0, 1), None
#     Edge 77, Type (0, 1), None
#     Edge 78, Type (0, 1), None
#     Edge 79, Type (0, 1), None
#     Edge 80, Type (0, 1), None
#     Edge 81, Type (0, 1), None
#     Edge 82, Type (0, 1), None
#     Edge 83, Type (0, 1), None
#     Edge 84, Type (0, 1), None
#     Edge 85, Type (0, 1), None
#     Edge 86, Type (0, 1), None
#     Edge 87, Type (0, 1), None
#     Edge 88, Type (0, 1), None
#     Edge 89, Type (0, 1), None
#     Edge 90, Type (0, 1), None
#     Edge 91, Type (0, 1), None
#     Edge 92, Type (0, 1), None
#     Edge 93, Type (0, 1), None
#     Edge 94, Type (0, 1), None
#     Edge 95, Type (0, 1), None
#     Edge 96, Type (0, 1), None
#     Edge 97, Type (0, 1), None
#     Edge 98, Type (0, 1), None
#     Edge 99, Type (0, 1), None
#     Edge 100, Type (0, 1), None
#     Edge 101, Type (0, 1), None
#     Edge 102, Type (0, 1), None
#     Edge 103, Type (0, 1), None
#     Edge 104, Type (0, 1), None
#     Edge 105, Type (0, 1), None
#     Edge 106, Type (0, 1), None
#     Edge 107, Type (0, 1), None
# Relax obj value: 0.067
# Max RMSD: 0.244
# Mean RMSD: 0.108
data_MOF--net-ptr--node1-TATPOV_clean_sbu_0--node2-NAWXER_clean_linker_0--edge1-none
_symmetry_space_group_name_H-M    P1
_symmetry_Int_Tables_number       1
_symmetry_cell_setting            triclinic
loop_
_symmetry_equiv_pos_as_xyz
'x, y, z'
_cell_length_a     47.290229
_cell_length_b     47.844733
_cell_length_c     33.79039
_cell_angle_alpha  89.745141
_cell_angle_beta   90.676746
_cell_angle_gamma 121.26132
loop_
_atom_site_label
_atom_site_type_symbol
_atom_site_fract_x
_atom_site_fract_y
_atom_site_fract_z
_atom_type_partial_charge
Zn0 Zn 0.94704 0.35075 0.00396 0.0
Zn1 Zn 0.00764 0.36257 1.00276 0.0
O2 O 0.97664 0.31458 0.9855 0.0
O3 O 0.92571 0.30366 0.99022 0.0
O4 O 0.04893 0.36253 0.01847 0.0
O5 O 0.94833 0.36531 0.05982 0.0
O6 O 0.00081 0.38122 0.05465 0.0
C7 C 0.94572 0.29461 0.98174 0.0
C8 C 0.99228 0.39771 0.94283 0.0
O9 O 0.01483 0.39288 0.95592 0.0
O10 O 0.96403 0.38354 0.95891 0.0
C11 C 0.0528 0.339 0.00912 0.0
O12 O 0.03499 0.31936 0.9801 0.0
C13 C 0.97734 0.38015 0.07411 0.0
Zn14 Zn 0.64686 0.58316 0.00767 0.0
Zn15 Zn 0.64346 0.63456 0.02756 0.0
O16 O 0.69102 0.65392 0.00518 0.0
O17 O 0.69412 0.61036 0.99346 0.0
O18 O 0.6425 0.67405 0.0471 0.0
O19 O 0.63548 0.56416 0.06192 0.0
O20 O 0.63181 0.60647 0.07899 0.0
C21 C 0.70736 0.64107 0.9937 0.0
C22 C 0.59891 0.59008 0.96125 0.0
O23 O 0.6074 0.6146 0.98372 0.0
O24 O 0.61217 0.57305 0.96567 0.0
C25 C 0.66255 0.7032 0.03592 0.0
O26 O 0.68464 0.70857 0.00902 0.0
C27 C 0.63012 0.57969 0.08797 0.0
Zn28 Zn 0.34212 0.93822 0.03306 0.0
Zn29 Zn 0.34981 -0.00382 0.02052 0.0
O30 O 0.3051 0.96793 0.04828 0.0
O31 O 0.29772 0.91901 0.05719 0.0
O32 O 0.34562 0.03436 0.00338 0.0
O33 O 0.34851 0.93105 0.97613 0.0
O34 O 0.36017 0.9815 0.96776 0.0
C35 C 0.28798 0.9389 0.06145 0.0
C36 C 0.39548 0.99314 0.07897 0.0
O37 O 0.38753 0.01176 0.06139 0.0
O38 O 0.38073 0.96293 0.07057 0.0
C39 C 0.31912 0.02522 0.98364 0.0
O40 O 0.29935 0.9939 0.97618 0.0
C41 C 0.35808 0.95569 0.95402 0.0
Zn42 Zn 0.07089 0.66699 0.0052 0.0
Zn43 Zn 0.00889 0.65321 0.00573 0.0
O44 O 0.03834 0.70049 0.02385 0.0
O45 O 0.09017 0.71482 0.01707 0.0
O46 O 0.96835 0.65468 0.99208 0.0
O47 O 0.06796 0.65055 0.94927 0.0
O48 O 0.01555 0.63504 0.95389 0.0
C49 C 0.06887 0.72202 0.02641 0.0
C50 C 0.02486 0.6196 0.0666 0.0
O51 O 0.00191 0.62317 0.05208 0.0
O52 O 0.05359 0.63469 0.05163 0.0
C53 C 0.97604 0.67684 0.96613 0.0
O54 O 0.0063 0.69252 0.9523 0.0
C55 C 0.03898 0.63585 0.93474 0.0
Zn56 Zn 0.35469 0.40124 0.05208 0.0
Zn57 Zn 0.346 0.3464 0.02824 0.0
O58 O 0.30172 0.3344 0.05551 0.0
O59 O 0.31289 0.38085 0.08243 0.0
O60 O 0.33708 0.30297 0.00725 0.0
O61 O 0.35694 0.41844 0.99768 0.0
O62 O 0.35961 0.37617 0.97795 0.0
C63 C 0.29319 0.35058 0.07709 0.0
C64 C 0.40383 0.38873 0.08253 0.0
O65 O 0.38531 0.36061 0.06712 0.0
O66 O 0.39685 0.41078 0.07844 0.0
C67 C 0.31043 0.28435 0.98824 0.0
O68 O 0.2892 0.29392 0.98247 0.0
C69 C 0.36167 0.40337 0.9704 0.0
Zn70 Zn 0.65384 0.06019 0.99246 0.0
Zn71 Zn 0.64608 0.00228 0.00492 0.0
O72 O 0.693 0.03015 0.98196 0.0
O73 O 0.70021 0.07915 0.97489 0.0
O74 O 0.64662 0.96235 0.02295 0.0
O75 O 0.64426 0.06648 0.04779 0.0
O76 O 0.63342 0.01636 0.05686 0.0
C77 C 0.71103 0.06001 0.97213 0.0
C78 C 0.60099 0.00648 0.94577 0.0
O79 O 0.60989 0.98816 0.96216 0.0
O80 O 0.61564 0.03667 0.95414 0.0
C81 C 0.67104 0.96854 0.04537 0.0
O82 O 0.6927 -0.00086 0.05443 0.0
C83 C 0.63409 0.04174 0.06982 0.0
Zn84 Zn 0.57927 0.66961 0.33979 0.0
Zn85 Zn 0.64048 0.68219 0.35405 0.0
O86 O 0.61307 0.63414 0.33736 0.0
O87 O 0.56165 0.62173 0.3302 0.0
O88 O 0.68185 0.68476 0.3736 0.0
O89 O 0.57695 0.68683 0.39348 0.0
O90 O 0.62778 0.69808 0.40345 0.0
C91 C 0.58303 0.61339 0.32907 0.0
C92 C 0.63132 0.71595 0.28498 0.0
O93 O 0.65161 0.71228 0.30625 0.0
O94 O 0.60084 0.70094 0.29364 0.0
C95 C 0.69095 0.66617 0.3594 0.0
O96 O 0.6766 0.64945 0.32703 0.0
C97 C 0.60255 0.69852 0.41531 0.0
Zn98 Zn 0.30559 0.9166 0.33417 0.0
Zn99 Zn 0.3115 0.97212 0.35212 0.0
O100 O 0.35717 0.98581 0.32787 0.0
O101 O 0.3502 0.93825 0.31068 0.0
O102 O 0.31636 0.01476 0.36904 0.0
O103 O 0.30076 0.90188 0.3899 0.0
O104 O 0.2988 0.94548 0.40508 0.0
C105 C 0.36818 0.96904 0.31248 0.0
C106 C 0.25734 0.92629 0.29459 0.0
O107 O 0.27357 0.9544 0.31076 0.0
O108 O 0.26536 0.90522 0.30119 0.0
C109 C 0.33876 0.03287 0.39395 0.0
O110 O 0.35884 0.02364 0.40741 0.0
C111 C 0.29687 0.91881 0.41536 0.0
Zn112 Zn 0.01397 0.27522 0.36544 0.0
Zn113 Zn 0.01519 0.32949 0.34891 0.0
O114 O 0.97086 0.30159 0.37747 0.0
O115 O 0.97245 0.25843 0.39672 0.0
O116 O 0.01405 0.36851 0.32837 0.0
O117 O 0.01378 0.26317 0.30827 0.0
O118 O 0.02395 0.31269 0.29663 0.0
C119 C 0.95841 0.27485 0.39659 0.0
C120 C 0.06861 0.33338 0.40203 0.0
O121 O 0.05426 0.3478 0.38841 0.0
O122 O 0.05747 0.30357 0.39397 0.0
C123 C 0.98928 0.3722 0.32924 0.0
O124 O 0.96222 0.35045 0.34732 0.0
C125 C 0.02151 0.28636 0.28427 0.0
Zn126 Zn 0.73453 0.9838 0.36478 0.0
Zn127 Zn 0.67737 0.97924 0.34704 0.0
O128 O 0.70834 0.02496 0.36828 0.0
O129 O 0.75789 0.03227 0.3754 0.0
O130 O 0.64211 0.98663 0.3276 0.0
O131 O 0.73528 0.96557 0.31098 0.0
O132 O 0.68828 0.96259 0.29721 0.0
C133 C 0.73866 0.0432 0.37753 0.0
C134 C 0.67694 0.94003 0.41517 0.0
O135 O 0.65944 0.94592 0.39164 0.0
O136 O 0.70785 0.95326 0.40992 0.0
C137 C 0.61724 0.9675 0.30643 0.0
O138 O 0.61078 0.93784 0.29878 0.0
C139 C 0.71151 0.95815 0.28715 0.0
Zn140 Zn 0.01055 0.74589 0.35474 0.0
Zn141 Zn 0.00856 0.69194 0.33416 0.0
O142 O 0.9618 0.67455 0.35779 0.0
O143 O 0.96472 0.7203 0.37537 0.0
O144 O 0.00792 0.65234 0.31225 0.0
O145 O 0.01694 0.763 0.29977 0.0
O146 O 0.0207 0.72068 0.28323 0.0
C147 C 0.94862 0.68945 0.37287 0.0
C148 C 0.06007 0.73749 0.39465 0.0
O149 O 0.04586 0.71008 0.37664 0.0
O150 O 0.05022 0.75732 0.38927 0.0
C151 C 0.98303 0.62334 0.31077 0.0
O152 O 0.9549 0.61697 0.3261 0.0
C153 C 0.02204 0.74722 0.27383 0.0
Zn154 Zn 0.31434 0.38941 0.32542 0.0
Zn155 Zn 0.30948 0.33464 0.34827 0.0
O156 O 0.35443 0.35993 0.32046 0.0
O157 O 0.35524 0.40264 0.29473 0.0
O158 O 0.30919 0.29571 0.37214 0.0
O159 O 0.31587 0.40519 0.38071 0.0
O160 O 0.30231 0.35545 0.39784 0.0
C161 C 0.36821 0.3854 0.29891 0.0
C162 C 0.25698 0.33113 0.29384 0.0
O163 O 0.27005 0.31602 0.30909 0.0
O164 O 0.27014 0.36164 0.29885 0.0
C165 C 0.32893 0.28635 0.36255 0.0
O166 O 0.34975 0.30112 0.33354 0.0
C167 C 0.30671 0.3833 0.40694 0.0
Zn168 Zn 0.24859 -0.00284 0.67397 0.0
Zn169 Zn 0.3089 0.00914 0.69142 0.0
O170 O 0.28142 0.96159 0.67181 0.0
O171 O 0.23002 0.9494 0.66529 0.0
O172 O 0.3504 0.01104 0.71021 0.0
O173 O 0.24513 0.01446 0.72666 0.0
O174 O 0.29467 0.0236 0.74118 0.0
C175 C 0.25131 0.94102 0.66348 0.0
C176 C 0.30173 0.04457 0.62251 0.0
O177 O 0.32133 0.0416 0.64593 0.0
O178 O 0.27073 0.02799 0.6278 0.0
C179 C 0.35946 0.99261 0.69519 0.0
O180 O 0.34402 0.97517 0.66365 0.0
C181 C 0.26926 0.02473 0.75067 0.0
Zn182 Zn 0.98184 0.25865 0.65796 0.0
Zn183 Zn 0.98669 0.31198 0.68234 0.0
O184 O 0.03161 0.32798 0.65417 0.0
O185 O 0.02357 0.28245 0.62765 0.0
O186 O 0.99061 0.35247 0.70693 0.0
O187 O 0.98033 0.24052 0.71164 0.0
O188 O 0.9744 0.28089 0.73119 0.0
C189 C 0.04136 0.31308 0.63208 0.0
C190 C 0.93067 0.26809 0.62686 0.0
O191 O 0.9477 0.29625 0.64272 0.0
O192 O 0.93912 0.24712 0.63125 0.0
C193 C 0.01066 0.38184 0.69647 0.0
O194 O 0.0311 0.38759 0.66731 0.0
C195 C 0.97396 0.25447 0.73877 0.0
Zn196 Zn 0.67816 0.61045 0.7042 0.0
Zn197 Zn 0.68072 0.666 0.69108 0.0
O198 O 0.63437 0.63445 0.71466 0.0
O199 O 0.63077 0.58678 0.71801 0.0
O200 O 0.67604 0.70405 0.67382 0.0
O201 O 0.69132 0.60672 0.64948 0.0
O202 O 0.6952 0.65399 0.63876 0.0
C203 C 0.61798 0.60405 0.72271 0.0
C204 C 0.7244 0.6651 0.75541 0.0
O205 O 0.7164 0.68246 0.73492 0.0
O206 O 0.71165 0.63495 0.74777 0.0
C207 C 0.65021 0.69624 0.65329 0.0
O208 O 0.62951 0.66521 0.64515 0.0
C209 C 0.69784 0.6302 0.62656 0.0
Zn210 Zn 0.37533 0.30339 0.70029 0.0
Zn211 Zn 0.31919 0.30112 0.68861 0.0
O212 O 0.3523 0.34543 0.7143 0.0
O213 O 0.40105 0.35032 0.71558 0.0
O214 O 0.28491 0.31115 0.66996 0.0
O215 O 0.37726 0.28905 0.6452 0.0
O216 O 0.32872 0.28417 0.6371 0.0
C217 C 0.38304 0.36206 0.72245 0.0
C218 C 0.31863 0.25871 0.7518 0.0
O219 O 0.30064 0.26624 0.73157 0.0
O220 O 0.34898 0.27098 0.74372 0.0
C221 C 0.29786 0.33704 0.64906 0.0
O222 O 0.32968 0.35216 0.6417 0.0
C223 C 0.3521 0.28113 0.62378 0.0
Zn224 Zn 0.68641 0.07942 0.70311 0.0
Zn225 Zn 0.6828 0.02522 0.68533 0.0
O226 O 0.63666 0.01117 0.70984 0.0
O227 O 0.64171 0.05813 0.72556 0.0
O228 O 0.6774 0.98193 0.6688 0.0
O229 O 0.69372 0.09536 0.64755 0.0
O230 O 0.69543 0.05166 0.63218 0.0
C231 C 0.62476 0.02728 0.72501 0.0
C232 C 0.73394 0.07107 0.74636 0.0
O233 O 0.72091 0.04414 0.72728 0.0
O234 O 0.72402 0.09072 0.74027 0.0
C235 C 0.65221 0.96307 0.64759 0.0
O236 O 0.63145 0.97254 0.63804 0.0
C237 C 0.6978 0.07856 0.62206 0.0
Zn238 Zn 0.97818 0.73203 0.65132 0.0
Zn239 Zn 0.9712 0.67538 0.67125 0.0
O240 O 0.01694 0.70268 0.64544 0.0
O241 O 0.02376 0.75076 0.63151 0.0
O242 O 0.97262 0.63664 0.69336 0.0
O243 O 0.96788 0.74116 0.70525 0.0
O244 O 0.9593 0.69272 0.72082 0.0
C245 C 0.03406 0.73112 0.63058 0.0
C246 C 0.92791 0.67573 0.60618 0.0
O247 O 0.935 0.65836 0.62803 0.0
O248 O 0.94225 0.70633 0.61147 0.0
C249 C 0.99205 0.62769 0.6809 0.0
O250 O 0.01041 0.64219 0.64986 0.0
C251 C 0.95912 0.71845 0.73024 0.0
C252 C 0.25451 0.35098 0.12616 0.0
C253 C 0.26019 0.33483 0.0954 0.0
C254 C 0.22296 0.33809 0.1416 0.0
C255 C 0.19645 0.30868 0.1268 0.0
C256 C 0.23375 0.30491 0.08122 0.0
C257 C 0.20197 0.29211 0.09655 0.0
C258 C 0.16264 0.29749 0.14003 0.0
C259 C 0.22282 0.29213 0.23948 0.0
C260 C 0.22675 0.31422 0.26939 0.0
C261 C 0.19756 0.28227 0.21095 0.0
C262 C 0.17608 0.29437 0.21241 0.0
C263 C 0.20374 0.32417 0.27235 0.0
C264 C 0.17854 0.31415 0.24439 0.0
C265 C 0.15283 0.28976 0.17985 0.0
C266 C 0.03006 0.25562 0.23061 0.0
C267 C 0.03356 0.28496 0.24438 0.0
C268 C 0.04958 0.25595 0.19964 0.0
C269 C 0.0728 0.28552 0.18175 0.0
C270 C 0.05392 0.31394 0.22329 0.0
C271 C 0.07365 0.31426 0.19251 0.0
C272 C 0.10247 0.28789 0.16446 0.0
C273 C 0.09034 0.35017 0.06743 0.0
C274 C 0.07011 0.32891 0.03714 0.0
C275 C 0.10354 0.33933 0.09663 0.0
C276 C 0.09608 0.30688 0.09668 0.0
C277 C 0.06367 0.29667 0.03651 0.0
C278 C 0.07661 0.28577 0.06607 0.0
C279 C 0.11292 0.29694 0.12514 0.0
H280 H 0.27435 0.37403 0.13785 0.0
H281 H 0.21907 0.3516 0.16434 0.0
H282 H 0.23737 0.29204 0.0574 0.0
H283 H 0.1816 0.26961 0.0844 0.0
H284 H 0.24043 0.28425 0.23666 0.0
H285 H 0.19572 0.26646 0.18695 0.0
H286 H 0.20619 0.34105 0.29534 0.0
H287 H 0.16226 0.32372 0.24644 0.0
H288 H 0.01439 0.2328 0.24593 0.0
H289 H 0.04895 0.23358 0.19243 0.0
H290 H 0.05724 0.337 0.23309 0.0
H291 H 0.09215 0.3376 0.18041 0.0
H292 H 0.09587 0.37514 0.06868 0.0
H293 H 0.11994 0.35643 0.11896 0.0
H294 H 0.04803 0.2796 0.01371 0.0
H295 H 0.07157 0.26096 0.06496 0.0
N296 N 0.14233 0.30085 0.11425 0.0
N297 N 0.1229 0.28475 0.19012 0.0
C298 C 0.64974 0.90909 0.05748 0.0
C299 C 0.6747 0.94204 0.06243 0.0
C300 C 0.65253 0.8844 0.07592 0.0
C301 C 0.68022 0.89219 0.09975 0.0
C302 C 0.70307 0.94966 0.08492 0.0
C303 C 0.7059 0.92495 0.10317 0.0
C304 C 0.68111 0.86589 0.12188 0.0
C305 C 0.73195 0.93165 0.24147 0.0
C306 C 0.70862 0.94054 0.24994 0.0
C307 C 0.72607 0.90967 0.21097 0.0
C308 C 0.6971 0.89658 0.18791 0.0
C309 C 0.68059 0.92903 0.22509 0.0
C310 C 0.67483 0.90711 0.19433 0.0
C311 C 0.68782 0.86783 0.16295 0.0
C312 C 0.67648 0.757 0.24057 0.0
C313 C 0.64277 0.73811 0.25037 0.0
C314 C 0.68684 0.77981 0.20968 0.0
C315 C 0.6636 0.78357 0.18789 0.0
C316 C 0.61964 0.74149 0.2276 0.0
C317 C 0.63002 0.76425 0.19711 0.0
C318 C 0.67404 0.81243 0.16285 0.0
C319 C 0.63707 0.72563 0.0808 0.0
C320 C 0.66278 0.73099 0.05542 0.0
C321 C 0.63857 0.7517 0.10135 0.0
C322 C 0.6661 0.78346 0.09754 0.0
C323 C 0.68947 0.7631 0.05009 0.0
C324 C 0.69109 0.78905 0.07098 0.0
C325 C 0.66995 0.81111 0.12138 0.0
H326 H 0.62769 0.9024 0.04015 0.0
H327 H 0.6325 0.85924 0.07262 0.0
H328 H 0.723 0.97477 0.08885 0.0
H329 H 0.72798 0.93154 0.12036 0.0
H330 H 0.75385 0.94012 0.25983 0.0
H331 H 0.7434 0.90159 0.20663 0.0
H332 H 0.66216 0.93545 0.23074 0.0
H333 H 0.65205 0.89685 0.17725 0.0
H334 H 0.69491 0.75503 0.2576 0.0
H335 H 0.71302 0.79543 0.2039 0.0
H336 H 0.5935 0.72747 0.23424 0.0
H337 H 0.61187 0.76791 0.18193 0.0
H338 H 0.61588 0.70126 0.08502 0.0
H339 H 0.61819 0.7469 0.12008 0.0
H340 H 0.70961 0.76814 0.03063 0.0
H341 H 0.7124 0.81344 0.06723 0.0
N342 N 0.67335 0.83785 0.10239 0.0
N343 N 0.68344 0.84084 0.18181 0.0
C344 C 0.11303 0.77741 0.04839 0.0
C345 C 0.07931 0.75395 0.04468 0.0
C346 C 0.12347 0.80524 0.07119 0.0
C347 C 0.10052 0.81042 0.09096 0.0
C348 C 0.05606 0.76002 0.06213 0.0
C349 C 0.06659 0.78814 0.08507 0.0
C350 C 0.11366 0.83811 0.11919 0.0
C351 C 0.02998 0.78847 0.22304 0.0
C352 C 0.03424 0.76264 0.23476 0.0
C353 C 0.04954 0.81001 0.1934 0.0
C354 C 0.07342 0.80591 0.17473 0.0
C355 C 0.05532 0.75625 0.21275 0.0
C356 C 0.075 0.77795 0.18303 0.0
C357 C 0.10254 0.83506 0.15844 0.0
C358 C 0.22862 0.93996 0.24152 0.0
C359 C 0.22893 0.91739 0.26807 0.0
C360 C 0.20351 0.92934 0.21261 0.0
C361 C 0.1783 0.89618 0.2105 0.0
C362 C 0.20278 0.88477 0.2671 0.0
C363 C 0.17766 0.87437 0.23894 0.0
C364 C 0.15423 0.88226 0.17716 0.0
C365 C 0.24873 0.90539 0.11408 0.0
C366 C 0.25797 0.92898 0.08426 0.0
C367 C 0.21943 0.89423 0.13449 0.0
C368 C 0.19873 0.90626 0.12521 0.0
C369 C 0.23827 0.94252 0.07656 0.0
C370 C 0.20843 0.93074 0.09649 0.0
C371 C 0.1641 0.88689 0.1373 0.0
H372 H 0.13156 0.77366 0.03512 0.0
H373 H 0.14987 0.82192 0.07493 0.0
H374 H 0.02978 0.74246 0.05943 0.0
H375 H 0.04832 0.79194 0.09891 0.0
H376 H 0.01361 0.79377 0.23913 0.0
H377 H 0.04829 0.83167 0.18784 0.0
H378 H 0.05912 0.73654 0.22108 0.0
H379 H 0.09381 0.77475 0.16954 0.0
H380 H 0.24859 0.96529 0.2418 0.0
H381 H 0.20436 0.9467 0.19125 0.0
H382 H 0.20224 0.86695 0.28749 0.0
H383 H 0.15867 0.84865 0.23808 0.0
H384 H 0.26377 0.89494 0.12098 0.0
H385 H 0.21183 0.87456 0.15564 0.0
H386 H 0.24506 0.96087 0.05379 0.0
H387 H 0.1922 0.93953 0.08819 0.0
N388 N 0.14335 0.86478 0.11016 0.0
N389 N 0.12332 0.85725 0.18566 0.0
C390 C 0.29783 0.05812 0.81152 0.0
C391 C 0.26932 0.04162 0.78738 0.0
C392 C 0.29979 0.07908 0.84164 0.0
C393 C 0.27319 0.08365 0.84822 0.0
C394 C 0.24199 0.04467 0.79594 0.0
C395 C 0.24405 0.06568 0.82583 0.0
C396 C 0.27741 0.11101 0.87285 0.0
C397 C 0.27933 0.03741 0.95035 0.0
C398 C 0.31037 0.04889 0.96852 0.0
C399 C 0.27132 0.05922 0.9338 0.0
C400 C 0.29434 0.09295 0.93461 0.0
C401 C 0.33277 0.08278 0.97115 0.0
C402 C 0.32475 0.10464 0.95437 0.0
C403 C 0.28764 0.11589 0.91299 0.0
C404 C 0.27552 0.23385 0.94786 0.0
C405 C 0.30381 0.25287 0.97151 0.0
C406 C 0.27002 0.20514 0.93007 0.0
C407 C 0.29271 0.1948 0.93539 0.0
C408 C 0.32585 0.2418 0.97817 0.0
C409 C 0.32021 0.21288 0.96044 0.0
C410 C 0.28847 0.16622 0.91301 0.0
C411 C 0.3265 0.24217 0.81839 0.0
C412 C 0.30544 0.23651 0.78588 0.0
C413 C 0.3171 0.21906 0.84826 0.0
C414 C 0.28638 0.18972 0.84632 0.0
C415 C 0.27378 0.20824 0.785 0.0
C416 C 0.26448 0.18471 0.81486 0.0
C417 C 0.28069 0.16232 0.87215 0.0
H418 H 0.31931 0.05632 0.80573 0.0
H419 H 0.32278 0.09322 0.85807 0.0
H420 H 0.21957 0.03222 0.77815 0.0
H421 H 0.22336 0.06907 0.83025 0.0
H422 H 0.26126 0.01148 0.94839 0.0
H423 H 0.24737 0.04966 0.91962 0.0
H424 H 0.35676 0.09237 0.98522 0.0
H425 H 0.3428 0.13063 0.95553 0.0
H426 H 0.25785 0.24141 0.9424 0.0
H427 H 0.24824 0.19127 0.91149 0.0
H428 H 0.34774 0.25574 0.99651 0.0
H429 H 0.33798 0.20533 0.96511 0.0
H430 H 0.351 0.26391 0.81982 0.0
H431 H 0.33497 0.22319 0.87133 0.0
H432 H 0.25723 0.20337 0.76008 0.0
H433 H 0.2409 0.16197 0.81246 0.0
N434 N 0.27477 0.13461 0.85399 0.0
N435 N 0.29242 0.1432 0.93185 0.0
C436 C 0.95431 0.25224 0.9489 0.0
C437 C 0.93301 0.2621 0.96372 0.0
C438 C 0.9414 0.22244 0.92856 0.0
C439 C 0.90713 0.20241 0.92289 0.0
C440 C 0.89883 0.24158 0.95821 0.0
C441 C 0.88616 0.21237 0.93786 0.0
C442 C 0.89118 0.17074 0.90204 0.0
C443 C 0.94266 0.24524 0.80176 0.0
C444 C 0.96055 0.23682 0.77656 0.0
C445 C 0.92308 0.22383 0.83173 0.0
C446 C 0.92155 0.19395 0.8374 0.0
C447 C 0.96076 0.20798 0.78427 0.0
C448 C 0.94125 0.18667 0.81419 0.0
C449 C 0.89502 0.16774 0.8613 0.0
C450 C 0.7629 0.10102 0.80759 0.0
C451 C 0.75971 0.0797 0.77709 0.0
C452 C 0.78852 0.11219 0.83517 0.0
C453 C 0.8116 0.10221 0.83328 0.0
C454 C 0.78217 0.06879 0.77563 0.0
C455 C 0.80835 0.08044 0.80329 0.0
C456 C 0.84136 0.11907 0.85896 0.0
C457 C 0.75295 0.05434 0.93354 0.0
C458 C 0.74471 0.07302 0.95747 0.0
C459 C 0.7841 0.06907 0.91565 0.0
C460 C 0.80725 0.10245 0.92203 0.0
C461 C 0.76844 0.10576 0.96523 0.0
C462 C 0.79933 0.12017 0.94806 0.0
C463 C 0.83892 0.12067 0.90046 0.0
H464 H 0.98084 0.26769 0.95238 0.0
H465 H 0.95798 0.21516 0.91726 0.0
H466 H 0.88166 0.24838 0.96874 0.0
H467 H 0.85966 0.19775 0.9331 0.0
H468 H 0.94175 0.26711 0.79649 0.0
H469 H 0.90738 0.22959 0.84851 0.0
H470 H 0.97434 0.20077 0.76554 0.0
H471 H 0.9401 0.16358 0.81774 0.0
H472 H 0.74594 0.10977 0.8097 0.0
H473 H 0.79109 0.12984 0.85712 0.0
H474 H 0.78035 0.05251 0.75225 0.0
H475 H 0.8264 0.07309 0.80078 0.0
H476 H 0.73489 0.02893 0.92726 0.0
H477 H 0.78974 0.05474 0.89617 0.0
H478 H 0.76284 0.12057 0.98394 0.0
H479 H 0.81646 0.14585 0.95388 0.0
N480 N 0.86416 0.14626 0.91999 0.0
N481 N 0.86988 0.14196 0.84133 0.0
C482 C 0.75068 0.68963 0.95602 0.0
C483 C 0.74101 0.661 0.9778 0.0
C484 C 0.78018 0.70437 0.93452 0.0
C485 C 0.80028 0.69065 0.93484 0.0
C486 C 0.76223 0.64873 0.98 0.0
C487 C 0.79158 0.66348 0.959 0.0
C488 C 0.82959 0.70284 0.9092 0.0
C489 C 0.74732 0.65854 0.81882 0.0
C490 C 0.74856 0.67924 0.7884 0.0
C491 C 0.77247 0.66973 0.84715 0.0
C492 C 0.79942 0.70201 0.84596 0.0
C493 C 0.7744 0.71212 0.78843 0.0
C494 C 0.79993 0.72331 0.81677 0.0
C495 C 0.82975 0.71053 0.8687 0.0
C496 C 0.93034 0.69346 0.79422 0.0
C497 C 0.94485 0.7203 0.76828 0.0
C498 C 0.91181 0.69315 0.82637 0.0
C499 C 0.90779 0.71981 0.8334 0.0
C500 C 0.94215 0.74762 0.77669 0.0
C501 C 0.92357 0.74723 0.80872 0.0
C502 C 0.88313 0.71712 0.86204 0.0
C503 C 0.96331 0.71449 0.9297 0.0
C504 C 0.95213 0.68558 0.9516 0.0
C505 C 0.94092 0.72256 0.91446 0.0
C506 C 0.90689 0.70152 0.92014 0.0
C507 C 0.91822 0.66529 0.95879 0.0
C508 C 0.8958 0.67319 0.94314 0.0
C509 C 0.88236 0.70814 0.90204 0.0
H510 H 0.73467 0.69952 0.95383 0.0
H511 H 0.78675 0.72578 0.91682 0.0
H512 H 0.75549 0.62683 0.99682 0.0
H513 H 0.80665 0.65248 0.96011 0.0
H514 H 0.72757 0.63311 0.81973 0.0
H515 H 0.77194 0.65234 0.86821 0.0
H516 H 0.77597 0.72854 0.76523 0.0
H517 H 0.82088 0.74809 0.81474 0.0
H518 H 0.93181 0.67199 0.78854 0.0
H519 H 0.89917 0.67135 0.84443 0.0
H520 H 0.95302 0.76874 0.75741 0.0
H521 H 0.92045 0.76786 0.81335 0.0
H522 H 0.98941 0.73095 0.92425 0.0
H523 H 0.95021 0.74507 0.89797 0.0
H524 H 0.90895 0.64298 0.97571 0.0
H525 H 0.86963 0.65664 0.94818 0.0
N526 N 0.85586 0.70184 0.92402 0.0
N527 N 0.85684 0.71803 0.84709 0.0
C528 C 0.71516 0.63157 0.3742 0.0
C529 C 0.71279 0.65896 0.38308 0.0
C530 C 0.73375 0.62326 0.39851 0.0
C531 C 0.75009 0.64202 0.43218 0.0
C532 C 0.72956 0.67796 0.41654 0.0
C533 C 0.74834 0.66976 0.44058 0.0
C534 C 0.77339 0.63587 0.45406 0.0
C535 C 0.73739 0.66102 0.5723 0.0
C536 C 0.71195 0.63124 0.58744 0.0
C537 C 0.75594 0.66129 0.54024 0.0
C538 C 0.74838 0.63196 0.52165 0.0
C539 C 0.70362 0.60197 0.56791 0.0
C540 C 0.72161 0.60237 0.53511 0.0
C541 C 0.77286 0.63167 0.49537 0.0
C542 C 0.907 0.68123 0.54102 0.0
C543 C 0.90361 0.66138 0.57355 0.0
C544 C 0.882 0.67066 0.51268 0.0
C545 C 0.85318 0.63981 0.51594 0.0
C546 C 0.87574 0.62969 0.57574 0.0
C547 C 0.85041 0.61912 0.54727 0.0
C548 C 0.8238 0.63281 0.49238 0.0
C549 C 0.90211 0.64303 0.41013 0.0
C550 C 0.91447 0.6717 0.38754 0.0
C551 C 0.87185 0.63028 0.42975 0.0
C552 C 0.85363 0.64594 0.42646 0.0
C553 C 0.89523 0.68599 0.38253 0.0
C554 C 0.86503 0.67308 0.40143 0.0
C555 C 0.82419 0.63663 0.45083 0.0
H556 H 0.7024 0.61634 0.34872 0.0
H557 H 0.73569 0.60235 0.39081 0.0
H558 H 0.72845 0.69937 0.42396 0.0
H559 H 0.76246 0.68588 0.46477 0.0
H560 H 0.74471 0.68384 0.58719 0.0
H561 H 0.77745 0.68424 0.53147 0.0
H562 H 0.68422 0.57865 0.57916 0.0
H563 H 0.71603 0.57943 0.52192 0.0
H564 H 0.92839 0.70571 0.53842 0.0
H565 H 0.88431 0.68763 0.48981 0.0
H566 H 0.87257 0.61401 0.60063 0.0
H567 H 0.82798 0.5955 0.55077 0.0
H568 H 0.91663 0.63166 0.41441 0.0
H569 H 0.86328 0.609 0.44846 0.0
H570 H 0.90412 0.70797 0.365 0.0
H571 H 0.85152 0.68561 0.39823 0.0
N572 N 0.7988 0.63782 0.43342 0.0
N573 N 0.79796 0.63011 0.51284 0.0
C574 C 0.30808 0.24518 0.41724 0.0
C575 C 0.33038 0.26102 0.38623 0.0
C576 C 0.31065 0.22273 0.44118 0.0
C577 C 0.33582 0.21599 0.435 0.0
C578 C 0.35488 0.25337 0.37918 0.0
C579 C 0.35747 0.23093 0.40328 0.0
C580 C 0.33858 0.19228 0.46041 0.0
C581 C 0.37606 0.26942 0.56514 0.0
C582 C 0.3481 0.26412 0.58591 0.0
C583 C 0.37276 0.24839 0.53444 0.0
C584 C 0.34157 0.22157 0.5245 0.0
C585 C 0.31661 0.23882 0.57365 0.0
C586 C 0.31345 0.21729 0.5437 0.0
C587 C 0.33945 0.19425 0.50208 0.0
C588 C 0.34437 0.09838 0.59406 0.0
C589 C 0.31456 0.0683 0.58983 0.0
C590 C 0.35335 0.12286 0.56566 0.0
C591 C 0.33317 0.11714 0.53219 0.0
C592 C 0.29512 0.06223 0.55552 0.0
C593 C 0.30445 0.08639 0.52683 0.0
C594 C 0.33904 0.14446 0.50629 0.0
C595 C 0.319 0.07252 0.39601 0.0
C596 C 0.34083 0.06276 0.40961 0.0
C597 C 0.31955 0.09945 0.41298 0.0
C598 C 0.34165 0.11682 0.44407 0.0
C599 C 0.36396 0.08119 0.43951 0.0
C600 C 0.36441 0.10798 0.45647 0.0
C601 C 0.34011 0.14326 0.46466 0.0
H602 H 0.28867 0.25017 0.4232 0.0
H603 H 0.29266 0.21038 0.46424 0.0
H604 H 0.37238 0.26505 0.35543 0.0
H605 H 0.37672 0.22563 0.39755 0.0
H606 H 0.40062 0.28872 0.57406 0.0
H607 H 0.39479 0.2516 0.52056 0.0
H608 H 0.29469 0.23395 0.58941 0.0
H609 H 0.28928 0.19617 0.53715 0.0
H610 H 0.35964 0.10367 0.62038 0.0
H611 H 0.37542 0.14663 0.57045 0.0
H612 H 0.27207 0.03916 0.55154 0.0
H613 H 0.2882 0.08168 0.50161 0.0
H614 H 0.30103 0.05899 0.37283 0.0
H615 H 0.30192 0.10597 0.40277 0.0
H616 H 0.38134 0.07459 0.45042 0.0
H617 H 0.38225 0.1215 0.47979 0.0
N618 N 0.33945 0.16705 0.44309 0.0
N619 N 0.33931 0.17014 0.52338 0.0
C620 C 0.78428 0.09729 0.4014 0.0
C621 C 0.75039 0.07564 0.39496 0.0
C622 C 0.79525 0.12614 0.42232 0.0
C623 C 0.77262 0.1339 0.43759 0.0
C624 C 0.72769 0.08407 0.40861 0.0
C625 C 0.73874 0.113 0.42993 0.0
C626 C 0.78571 0.1635 0.4623 0.0
C627 C 0.70428 0.11806 0.56957 0.0
C628 C 0.70939 0.09299 0.58237 0.0
C629 C 0.72288 0.13878 0.5388 0.0
C630 C 0.7467 0.13467 0.51999 0.0
C631 C 0.73056 0.08657 0.56062 0.0
C632 C 0.7493 0.10746 0.52973 0.0
C633 C 0.77458 0.16336 0.50084 0.0
C634 C 0.90044 0.2782 0.57241 0.0
C635 C 0.90069 0.25861 0.60336 0.0
C636 C 0.87445 0.26492 0.54445 0.0
C637 C 0.84868 0.23201 0.54739 0.0
C638 C 0.87347 0.22696 0.60821 0.0
C639 C 0.84769 0.2139 0.58079 0.0
C640 C 0.82477 0.21396 0.51474 0.0
C641 C 0.92203 0.24227 0.45219 0.0
C642 C 0.9282 0.26324 0.41992 0.0
C643 C 0.89247 0.22905 0.47276 0.0
C644 C 0.86852 0.23645 0.46133 0.0
C645 C 0.90497 0.27209 0.40987 0.0
C646 C 0.87503 0.25831 0.4301 0.0
C647 C 0.83454 0.21523 0.47513 0.0
H648 H 0.80233 0.09155 0.39121 0.0
H649 H 0.82158 0.14186 0.42784 0.0
H650 H 0.70133 0.06778 0.40408 0.0
H651 H 0.72091 0.11876 0.44086 0.0
H652 H 0.68785 0.12339 0.58547 0.0
H653 H 0.7208 0.15983 0.53215 0.0
H654 H 0.73507 0.0675 0.56986 0.0
H655 H 0.76812 0.10427 0.51626 0.0
H656 H 0.92129 0.30278 0.56827 0.0
H657 H 0.87539 0.27977 0.51965 0.0
H658 H 0.87302 0.21154 0.6321 0.0
H659 H 0.8282 0.18858 0.58432 0.0
H660 H 0.9397 0.23537 0.46092 0.0
H661 H 0.88747 0.21149 0.49608 0.0
H662 H 0.90919 0.28825 0.38516 0.0
H663 H 0.85635 0.26353 0.42025 0.0
N664 N 0.81464 0.18998 0.45077 0.0
N665 N 0.79455 0.18865 0.52528 0.0
C666 C 0.98834 0.58201 0.12069 0.0
C667 C 0.01861 0.59741 0.10045 0.0
C668 C 0.98252 0.55963 0.15109 0.0
C669 C 0.00685 0.55235 0.16136 0.0
C670 C 0.04324 0.5909 0.11222 0.0
C671 C 0.0373 0.56844 0.14207 0.0
C672 C -0.00046 0.52463 0.18726 0.0
C673 C 0.01366 0.60533 0.26801 0.0
C674 C 0.98541 0.59742 0.29006 0.0
C675 C 0.01556 0.58109 0.24745 0.0
C676 C 0.98926 0.54847 0.24849 0.0
C677 C 0.95927 0.56465 0.29144 0.0
C678 C 0.96133 0.54037 0.2711 0.0
C679 C 0.99132 0.5225 0.22763 0.0
C680 C 0.01592 0.41752 0.28009 0.0
C681 C 0.98985 0.39886 0.30624 0.0
C682 C 0.01556 0.44107 0.25609 0.0
C683 C 0.98918 0.44657 0.25771 0.0
C684 C 0.96379 0.40491 0.30856 0.0
C685 C 0.96364 0.42885 0.28471 0.0
C686 C 0.98932 0.47168 0.23204 0.0
C687 C 0.95929 0.39318 0.13714 0.0
C688 C 0.98455 0.40016 0.1102 0.0
C689 C 0.96409 0.41583 0.16644 0.0
C690 C 0.994 0.44599 0.1687 0.0
C691 C 0.01545 0.42911 0.11488 0.0
C692 C 0.01994 0.45208 0.14351 0.0
C693 C -0.00422 0.47318 0.19128 0.0
H694 H 0.96895 0.58667 0.11246 0.0
H695 H 0.95863 0.54698 0.16528 0.0
H696 H 0.06691 0.60235 0.09753 0.0
H697 H 0.05623 0.56287 0.14936 0.0
H698 H 0.03429 0.6303 0.26641 0.0
H699 H 0.03779 0.58782 0.23115 0.0
H700 H 0.93723 0.55771 0.30826 0.0
H701 H 0.94092 0.51527 0.27267 0.0
H702 H 0.03642 0.41359 0.2776 0.0
H703 H 0.03603 0.45512 0.23627 0.0
H704 H 0.94341 0.39101 0.32854 0.0
H705 H 0.94331 0.43308 0.28676 0.0
H706 H 0.93526 0.371 0.13425 0.0
H707 H 0.94361 0.41087 0.18527 0.0
H708 H 0.03533 0.43521 0.09446 0.0
H709 H 0.0431 0.47536 0.14463 0.0
N710 N 0.00108 0.49974 0.17064 0.0
N711 N 0.98678 0.49614 0.24873 0.0
C712 C 0.43344 0.37747 0.1366 0.0
C713 C 0.43391 0.39697 0.10511 0.0
C714 C 0.45946 0.39049 0.16451 0.0
C715 C 0.48578 0.42316 0.16119 0.0
C716 C 0.46207 0.42787 0.09929 0.0
C717 C 0.48781 0.44072 0.12679 0.0
C718 C 0.50824 0.44186 0.19482 0.0
C719 C 0.40815 0.41548 0.24523 0.0
C720 C 0.39936 0.3952 0.27864 0.0
C721 C 0.43906 0.42794 0.22825 0.0
C722 C 0.4617 0.42032 0.24433 0.0
C723 C 0.42131 0.38606 0.29341 0.0
C724 C 0.45258 0.399 0.27667 0.0
C725 C 0.49657 0.44076 0.2334 0.0
C726 C 0.54034 0.5572 0.30752 0.0
C727 C 0.57379 0.58091 0.31343 0.0
C728 C 0.53132 0.52846 0.28734 0.0
C729 C 0.55546 0.52268 0.27232 0.0
C730 C 0.59807 0.57446 0.30039 0.0
C731 C 0.58897 0.54554 0.27989 0.0
C732 C 0.54416 0.49313 0.24774 0.0
C733 C 0.62541 0.54033 0.13975 0.0
C734 C 0.61886 0.56453 0.12737 0.0
C735 C 0.6081 0.51966 0.17115 0.0
C736 C 0.58397 0.5228 0.19082 0.0
C737 C 0.59744 0.57009 0.14987 0.0
C738 C 0.57987 0.54914 0.18123 0.0
C739 C 0.55686 0.49351 0.21002 0.0
H740 H 0.41194 0.35341 0.14141 0.0
H741 H 0.45777 0.37593 0.19 0.0
H742 H 0.46313 0.44313 0.07485 0.0
H743 H 0.50783 0.46575 0.12274 0.0
H744 H 0.39156 0.42264 0.233 0.0
H745 H 0.44604 0.44512 0.20401 0.0
H746 H 0.41507 0.37045 0.31916 0.0
H747 H 0.47017 0.39363 0.29003 0.0
H748 H 0.52104 0.56129 0.3173 0.0
H749 H 0.50521 0.51129 0.28203 0.0
H750 H 0.62411 0.59226 0.30457 0.0
H751 H 0.60803 0.54139 0.26935 0.0
H752 H 0.64213 0.53575 0.12329 0.0
H753 H 0.6113 0.49925 0.17758 0.0
H754 H 0.5919 0.58853 0.14099 0.0
H755 H 0.56072 0.55153 0.19517 0.0
N756 N 0.5385 0.46767 0.18552 0.0
N757 N 0.51515 0.4662 0.25814 0.0
C758 C 0.41691 0.01507 0.27765 0.0
C759 C 0.40189 0.98458 0.29667 0.0
C760 C 0.44714 0.02698 0.25831 0.0
C761 C 0.46272 0.00868 0.25838 0.0
C762 C 0.41823 0.9671 0.29792 0.0
C763 C 0.44841 0.97914 0.27932 0.0
C764 C 0.49321 0.01891 0.23583 0.0
C765 C 0.417 0.98277 0.14068 0.0
C766 C 0.42012 0.00512 0.11147 0.0
C767 C 0.44122 0.99171 0.16964 0.0
C768 C 0.46914 0.02342 0.17062 0.0
C769 C 0.44732 0.03734 0.11304 0.0
C770 C 0.472 0.04631 0.14221 0.0
C771 C 0.49745 0.02963 0.19608 0.0
C772 C 0.59967 0.0113 0.12854 0.0
C773 C 0.61822 0.04081 0.10774 0.0
C774 C 0.57867 0.0088 0.15895 0.0
C775 C 0.57618 0.03585 0.16934 0.0
C776 C 0.61733 0.06839 0.12016 0.0
C777 C 0.59628 0.06582 0.15043 0.0
C778 C 0.54896 0.03172 0.19449 0.0
C779 C 0.6135 0.01402 0.27946 0.0
C780 C 0.59818 0.98031 0.28734 0.0
C781 C 0.59588 0.02652 0.2609 0.0
C782 C 0.5626 0.00555 0.25075 0.0
C783 C 0.56498 0.95932 0.27648 0.0
C784 C 0.54716 0.97197 0.25883 0.0
C785 C 0.54307 0.01817 0.23271 0.0
H786 H 0.40469 0.02893 0.2763 0.0
H787 H 0.458 0.05009 0.2428 0.0
H788 H 0.40731 0.94364 0.31268 0.0
H789 H 0.45989 0.96455 0.27993 0.0
H790 H 0.3962 0.95781 0.14048 0.0
H791 H 0.43892 0.97303 0.18986 0.0
H792 H 0.45028 0.05498 0.09075 0.0
H793 H 0.49379 0.07066 0.14179 0.0
H794 H 0.59966 0.98957 0.11964 0.0
H795 H 0.56274 0.98515 0.17238 0.0
H796 H 0.63137 0.09155 0.10493 0.0
H797 H 0.59451 0.08688 0.15777 0.0
H798 H 0.63924 0.0307 0.28725 0.0
H799 H 0.60804 0.05249 0.25499 0.0
H800 H 0.55269 0.93332 0.28223 0.0
H801 H 0.52136 0.9555 0.25109 0.0
N802 N 0.51589 0.01296 0.2522 0.0
N803 N 0.52569 0.0366 0.17742 0.0
C804 C 0.58448 0.02886 0.77 0.0
C805 C 0.59188 0.01084 0.74375 0.0
C806 C 0.5536 0.01473 0.78742 0.0
C807 C 0.52931 0.98227 0.77908 0.0
C808 C 0.56765 0.97804 0.73572 0.0
C809 C 0.53632 0.96391 0.75304 0.0
C810 C 0.49635 0.96897 0.79635 0.0
C811 C 0.5645 0.96807 0.89164 0.0
C812 C 0.57201 0.99305 0.9191 0.0
C813 C 0.53807 0.95802 0.86472 0.0
C814 C 0.51867 0.97244 0.86583 0.0
C815 C 0.55217 0.00689 0.92026 0.0
C816 C 0.52568 -0.00349 0.89421 0.0
C817 C 0.49142 0.9641 0.8375 0.0
C818 C 0.36663 0.92696 0.89778 0.0
C819 C 0.37197 0.95614 0.91482 0.0
C820 C 0.38622 0.92792 0.86649 0.0
C821 C 0.41135 0.95799 0.85175 0.0
C822 C 0.39518 0.98611 0.8976 0.0
C823 C 0.41511 0.98702 0.86685 0.0
C824 C 0.439 0.95943 0.83032 0.0
C825 C 0.40436 0.00922 0.74564 0.0
C826 C 0.38321 0.98684 0.71684 0.0
C827 C 0.42452 0.00226 0.76883 0.0
C828 C 0.42315 0.97244 0.76447 0.0
C829 C 0.38316 0.95769 0.71108 0.0
C830 C 0.40301 0.95053 0.73484 0.0
C831 C 0.44433 0.9654 0.78946 0.0
H832 H 0.6026 0.05409 0.77714 0.0
H833 H 0.54847 0.02935 0.80713 0.0
H834 H 0.57267 0.96364 0.71557 0.0
H835 H 0.51761 0.93884 0.74609 0.0
H836 H 0.57959 0.95714 0.89023 0.0
H837 H 0.53289 0.93927 0.84308 0.0
H838 H 0.55723 0.026 0.94133 0.0
H839 H 0.51115 0.00807 0.89554 0.0
H840 H 0.3489 0.90347 0.91038 0.0
H841 H 0.38354 0.90529 0.856 0.0
H842 H 0.40016 0.00902 0.91024 0.0
H843 H 0.43539 0.01053 0.85744 0.0
H844 H 0.40523 0.03204 0.75036 0.0
H845 H 0.44127 0.02025 0.79011 0.0
H846 H 0.36706 0.93995 0.6891 0.0
H847 H 0.4023 0.92775 0.73049 0.0
N848 N 0.47266 0.96961 0.7738 0.0
N849 N 0.46275 0.95909 0.85268 0.0
C850 C 0.97717 0.58844 0.73716 0.0
C851 C -0.0036 0.60357 0.70359 0.0
C852 C 0.98271 0.56743 0.76021 0.0
C853 C 0.0079 0.56139 0.75062 0.0
C854 C 0.02084 0.59657 0.69312 0.0
C855 C 0.02641 0.57551 0.71635 0.0
C856 C 0.01343 0.53898 0.77535 0.0
C857 C 0.05669 0.62085 0.87261 0.0
C858 C 0.03143 0.6157 0.89864 0.0
C859 C 0.05054 0.59798 0.84294 0.0
C860 C 0.01925 0.56948 0.83937 0.0
C861 C -0.00053 0.58837 0.89281 0.0
C862 C 0.99362 0.56516 0.86391 0.0
C863 C 0.0154 0.54138 0.81694 0.0
C864 C 0.02784 0.43555 0.88798 0.0
C865 C -0.00199 0.41993 0.90914 0.0
C866 C 0.03258 0.4575 0.85735 0.0
C867 C 0.00754 0.46396 0.8478 0.0
C868 C 0.97283 0.42594 0.89824 0.0
C869 C 0.97768 0.44785 0.86822 0.0
C870 C 0.01305 0.49062 0.82107 0.0
C871 C 0.98738 0.40301 0.74637 0.0
C872 C 0.01099 0.40926 0.71728 0.0
C873 C 0.9878 0.42877 0.76629 0.0
C874 C 0.01217 0.46135 0.75809 0.0
C875 C 0.03481 0.44192 0.70833 0.0
C876 C 0.0353 0.46769 0.72846 0.0
C877 C 0.01325 0.48894 0.77937 0.0
H878 H 0.9579 0.59293 0.74584 0.0
H879 H 0.96697 0.55563 0.78539 0.0
H880 H 0.03603 0.60773 0.66734 0.0
H881 H 0.04552 0.5707 0.70793 0.0
H882 H 0.08154 0.64171 0.87638 0.0
H883 H 0.07078 0.60136 0.82472 0.0
H884 H 0.97951 0.58359 0.91248 0.0
H885 H 0.96949 0.54298 0.86204 0.0
H886 H 0.04762 0.4313 0.89556 0.0
H887 H 0.05603 0.47024 0.84219 0.0
H888 H 0.94945 0.41436 0.91357 0.0
H889 H 0.95825 0.45284 0.8615 0.0
H890 H 0.96838 0.37819 0.75363 0.0
H891 H 0.96877 0.42313 0.78777 0.0
H892 H 0.05325 0.44762 0.68596 0.0
H893 H 0.05407 0.49262 0.72124 0.0
N894 N 0.01326 0.51321 0.75794 0.0
N895 N 0.01455 0.51692 0.8381 0.0
C896 C 0.57571 0.60579 0.76535 0.0
C897 C 0.58479 0.5886 0.73992 0.0
C898 C 0.54604 0.58902 0.78645 0.0
C899 C 0.52519 0.55502 0.78194 0.0
C900 C 0.56318 0.555 0.73431 0.0
C901 C 0.53376 0.53848 0.75486 0.0
C902 C 0.49471 0.53536 0.80519 0.0
C903 C 0.57393 0.56272 0.89706 0.0
C904 C 0.57385 0.58097 0.92944 0.0
C905 C 0.54872 0.55073 0.86871 0.0
C906 C 0.52281 0.5568 0.87183 0.0
C907 C 0.54871 0.5883 0.93189 0.0
C908 C 0.52305 0.57584 0.90354 0.0
C909 C 0.49297 0.53775 0.84668 0.0
C910 C 0.39224 0.4115 0.907 0.0
C911 C 0.37483 0.42046 0.93227 0.0
C912 C 0.41168 0.43254 0.87665 0.0
C913 C 0.41358 0.46258 0.87078 0.0
C914 C 0.37494 0.44943 0.9243 0.0
C915 C 0.39433 0.47037 0.89408 0.0
C916 C 0.43983 0.48837 0.84618 0.0
C917 C 0.37735 0.40505 0.75791 0.0
C918 C 0.39742 0.39397 0.74247 0.0
C919 C 0.39158 0.4345 0.7792 0.0
C920 C 0.42595 0.45301 0.78492 0.0
C921 C 0.43173 0.41279 0.74839 0.0
C922 C 0.44575 0.44189 0.76933 0.0
C923 C 0.44308 0.48471 0.80549 0.0
H924 H 0.59216 0.63178 0.77026 0.0
H925 H 0.53973 0.6024 0.80668 0.0
H926 H 0.56949 0.54118 0.71477 0.0
H927 H 0.5183 0.51229 0.75061 0.0
H928 H 0.59301 0.55676 0.89422 0.0
H929 H 0.54856 0.53506 0.84556 0.0
H930 H 0.54798 0.60219 0.95666 0.0
H931 H 0.50285 0.5801 0.90707 0.0
H932 H 0.39289 0.38951 0.9125 0.0
H933 H 0.42698 0.42636 0.85968 0.0
H934 H 0.36168 0.45702 0.94305 0.0
H935 H 0.3957 0.49354 0.8903 0.0
H936 H 0.35073 0.39083 0.754 0.0
H937 H 0.37598 0.44284 0.79086 0.0
H938 H 0.44789 0.40497 0.73713 0.0
H939 H 0.47236 0.45569 0.77369 0.0
N940 N 0.46962 0.50896 0.78665 0.0
N941 N 0.46499 0.51478 0.86523 0.0
C942 C 0.63352 0.73092 0.47579 0.0
C943 C 0.60453 0.7161 0.45225 0.0
C944 C 0.63766 0.75254 0.50624 0.0
C945 C 0.61284 0.75955 0.51363 0.0
C946 C 0.57884 0.72143 0.4618 0.0
C947 C 0.58311 0.74317 0.49194 0.0
C948 C 0.61995 0.78828 0.53748 0.0
C949 C 0.61378 0.71165 0.61722 0.0
C950 C 0.64377 0.72132 0.6372 0.0
C951 C 0.60825 0.73482 0.59945 0.0
C952 C 0.63274 0.76815 0.6008 0.0
C953 C 0.66758 0.75485 0.64034 0.0
C954 C 0.66205 0.77806 0.62236 0.0
C955 C 0.62885 0.79255 0.57809 0.0
C956 C 0.61969 0.91242 0.60692 0.0
C957 C 0.64679 0.93162 0.63218 0.0
C958 C 0.61523 0.88383 0.59009 0.0
C959 C 0.63777 0.87367 0.59793 0.0
C960 C 0.66868 0.92077 0.64138 0.0
C961 C 0.66406 0.89187 0.62456 0.0
C962 C 0.63432 0.84508 0.57634 0.0
C963 C 0.68118 0.9216 0.48257 0.0
C964 C 0.66185 0.91748 0.44875 0.0
C965 C 0.66914 0.89816 0.51237 0.0
C966 C 0.63757 0.86998 0.50886 0.0
C967 C 0.62944 0.89039 0.4463 0.0
C968 C 0.61755 0.86652 0.47596 0.0
C969 C 0.62874 0.84187 0.53507 0.0
H970 H 0.65375 0.72726 0.46933 0.0
H971 H 0.66103 0.76539 0.52219 0.0
H972 H 0.55614 0.71036 0.44447 0.0
H973 H 0.56382 0.74854 0.49696 0.0
H974 H 0.59467 0.68607 0.61475 0.0
H975 H 0.58503 0.72659 0.584 0.0
H976 H 0.69082 0.76312 0.65575 0.0
H977 H 0.68123 0.80368 0.62401 0.0
H978 H 0.60212 0.91974 0.59945 0.0
H979 H 0.59436 0.86989 0.57023 0.0
H980 H 0.68968 0.93489 0.66097 0.0
H981 H 0.68168 0.88443 0.63117 0.0
H982 H 0.70619 0.9424 0.48531 0.0
H983 H 0.6855 0.90104 0.53679 0.0
H984 H 0.6141 0.88667 0.42044 0.0
H985 H 0.59331 0.84471 0.4724 0.0
N986 N 0.62092 0.81335 0.51752 0.0
N987 N 0.63513 0.82067 0.59637 0.0
C988 C 0.09026 0.72505 0.44722 0.0
C989 C 0.08866 0.74733 0.42137 0.0
C990 C 0.11566 0.73624 0.47588 0.0
C991 C 0.13999 0.7697 0.47837 0.0
C992 C 0.11375 0.7804 0.42298 0.0
C993 C 0.13925 0.79137 0.4508 0.0
C994 C 0.1647 0.78378 0.51115 0.0
C995 C 0.07252 0.7621 0.57631 0.0
C996 C 0.06379 0.73993 0.60773 0.0
C997 C 0.10096 0.77163 0.55482 0.0
C998 C 0.12137 0.75932 0.56443 0.0
C999 C 0.0831 0.72607 0.61598 0.0
C1000 C 0.11213 0.73621 0.59486 0.0
C1001 C 0.1558 0.77799 0.55136 0.0
C1002 C 0.20817 0.88462 0.64446 0.0
C1003 C 0.24169 0.90894 0.64645 0.0
C1004 C 0.19769 0.85702 0.62127 0.0
C1005 C 0.22043 0.85297 0.59923 0.0
C1006 C 0.26494 0.90381 0.62729 0.0
C1007 C 0.25437 0.87593 0.60381 0.0
C1008 C 0.20682 0.82609 0.56971 0.0
C1009 C 0.2905 0.8794 0.46775 0.0
C1010 C 0.28508 0.90427 0.45487 0.0
C1011 C 0.27069 0.85746 0.49693 0.0
C1012 C 0.2455 0.86031 0.51403 0.0
C1013 C 0.26266 0.90956 0.47552 0.0
C1014 C 0.24277 0.88749 0.50485 0.0
C1015 C 0.21669 0.83064 0.52981 0.0
H1016 H 0.07112 0.6994 0.44651 0.0
H1017 H 0.11581 0.71901 0.49665 0.0
H1018 H 0.11327 0.79804 0.40319 0.0
H1019 H 0.1575 0.8173 0.45202 0.0
H1020 H 0.05772 0.7727 0.5688 0.0
H1021 H 0.10824 0.79047 0.53257 0.0
H1022 H 0.07663 0.70867 0.63987 0.0
H1023 H 0.12821 0.72731 0.60352 0.0
H1024 H 0.18972 0.88768 0.6592 0.0
H1025 H 0.1713 0.8398 0.61877 0.0
H1026 H 0.29106 0.92216 0.6285 0.0
H1027 H 0.27257 0.873 0.58831 0.0
H1028 H 0.3079 0.87497 0.45264 0.0
H1029 H 0.27286 0.83642 0.50325 0.0
H1030 H 0.25793 0.92846 0.46619 0.0
H1031 H 0.223 0.88971 0.51729 0.0
N1032 N 0.19526 0.80929 0.50231 0.0
N1033 N 0.17739 0.7991 0.57873 0.0
C1034 C 0.2962 0.41755 0.45306 0.0
C1035 C 0.29512 0.38811 0.44543 0.0
C1036 C 0.27691 0.41914 0.48287 0.0
C1037 C 0.25675 0.39161 0.50604 0.0
C1038 C 0.27753 0.36162 0.47134 0.0
C1039 C 0.25832 0.3633 0.50131 0.0
C1040 C 0.22843 0.38966 0.52655 0.0
C1041 C 0.24319 0.33093 0.63227 0.0
C1042 C 0.27787 0.34972 0.63187 0.0
C1043 C 0.22466 0.34192 0.61255 0.0
C1044 C 0.24046 0.37183 0.5921 0.0
C1045 C 0.29359 0.38052 0.61337 0.0
C1046 C 0.27505 0.39159 0.59392 0.0
C1047 C 0.22051 0.3804 0.56648 0.0
C1048 C 0.07853 0.3156 0.5788 0.0
C1049 C 0.07307 0.33088 0.61081 0.0
C1050 C 0.10892 0.3308 0.55984 0.0
C1051 C 0.13448 0.36165 0.57231 0.0
C1052 C 0.0984 0.36225 0.62263 0.0
C1053 C 0.12909 0.37735 0.60378 0.0
C1054 C 0.16785 0.37507 0.55615 0.0
C1055 C 0.10064 0.37232 0.45769 0.0
C1056 C 0.09792 0.35039 0.42814 0.0
C1057 C 0.1262 0.38389 0.48616 0.0
C1058 C 0.14939 0.37392 0.48481 0.0
C1059 C 0.12192 0.34168 0.42611 0.0
C1060 C 0.14746 0.35349 0.45386 0.0
C1061 C 0.1751 0.3825 0.51568 0.0
H1062 H 0.30972 0.43854 0.43392 0.0
H1063 H 0.27575 0.44107 0.48579 0.0
H1064 H 0.27625 0.33863 0.46641 0.0
H1065 H 0.24241 0.34151 0.5183 0.0
H1066 H 0.23039 0.30724 0.64652 0.0
H1067 H 0.19795 0.32626 0.6117 0.0
H1068 H 0.32031 0.39587 0.61319 0.0
H1069 H 0.28778 0.41513 0.57931 0.0
H1070 H 0.05947 0.29152 0.56877 0.0
H1071 H 0.11283 0.3179 0.5363 0.0
H1072 H 0.0949 0.37455 0.64723 0.0
H1073 H 0.14884 0.40096 0.61424 0.0
H1074 H 0.08221 0.37919 0.45991 0.0
H1075 H 0.12742 0.3999 0.50954 0.0
H1076 H 0.12046 0.32492 0.40356 0.0
H1077 H 0.16496 0.34537 0.45208 0.0
N1078 N 0.2054 0.39023 0.50294 0.0
N1079 N 0.19073 0.37406 0.57987 0.0
loop_
_geom_bond_atom_site_label_1
_geom_bond_atom_site_label_2
_geom_bond_distance
_geom_bond_site_symmetry_2
_ccdc_geom_bond_type
Zn0 O3 2.031 . S
Zn0 O5 2.049 1_556 S
Zn0 O10 2.067 . S
Zn1 O2 1.962 1_455 S
Zn1 O4 1.986 . S
Zn1 O6 1.996 1_455 S
Zn1 O9 1.943 1_554 S
O2 Zn1 1.962 1_655 S
O2 C7 1.254 1_554 S
O3 Zn0 2.031 . S
O3 C7 1.269 . S
O4 Zn1 1.986 . S
O4 C11 1.262 . S
O5 Zn0 2.049 1_554 S
O5 C13 1.260 . S
O6 Zn1 1.996 1_655 S
O6 C13 1.257 . S
C7 O2 1.254 1_556 S
C7 O3 1.269 . S
C8 O9 1.249 . S
C8 O10 1.270 1_455 S
O9 Zn1 1.943 1_556 S
O9 C8 1.249 . S
O10 Zn0 2.067 . S
O10 C8 1.270 1_655 S
C11 O4 1.262 . S
C11 O12 1.232 . S
O12 C11 1.232 . S
C13 O5 1.260 . S
C13 O6 1.257 . S
Zn14 O17 2.031 . S
Zn14 O19 2.049 1_556 S
Zn14 O24 2.067 . S
Zn15 O16 1.962 . S
Zn15 O18 1.986 . S
Zn15 O20 1.996 . S
Zn15 O23 1.943 1_554 S
O16 Zn15 1.962 . S
O16 C21 1.254 1_554 S
O17 Zn14 2.031 . S
O17 C21 1.269 . S
O18 Zn15 1.986 . S
O18 C25 1.262 . S
O19 Zn14 2.049 1_554 S
O19 C27 1.260 . S
O20 Zn15 1.996 . S
O20 C27 1.257 . S
C21 O16 1.254 1_556 S
C21 O17 1.269 . S
C22 O23 1.249 . S
C22 O24 1.270 . S
O23 Zn15 1.943 1_556 S
O23 C22 1.249 . S
O24 Zn14 2.067 . S
O24 C22 1.270 . S
C25 O18 1.262 . S
C25 O26 1.232 . S
O26 C25 1.232 . S
C27 O19 1.260 . S
C27 O20 1.257 . S
Zn28 O31 2.031 . S
Zn28 O33 2.049 1_554 S
Zn28 O38 2.067 . S
Zn29 O30 1.963 1_545 S
Zn29 O32 1.982 1_554 S
Zn29 O34 1.993 1_544 S
Zn29 O37 1.947 . S
O30 Zn29 1.963 1_565 S
O30 C35 1.254 . S
O31 Zn28 2.031 . S
O31 C35 1.269 . S
O32 Zn29 1.982 1_556 S
O32 C39 1.262 . S
O33 Zn28 2.049 1_556 S
O33 C41 1.260 . S
O34 Zn29 1.993 1_566 S
O34 C41 1.257 . S
C35 O30 1.254 . S
C35 O31 1.269 . S
C36 O37 1.249 . S
C36 O38 1.270 1_545 S
O37 Zn29 1.947 . S
O37 C36 1.249 . S
O38 Zn28 2.067 . S
O38 C36 1.270 1_565 S
C39 O32 1.262 . S
C39 O40 1.232 1_556 S
O40 C39 1.232 1_554 S
C41 O33 1.260 . S
C41 O34 1.257 . S
Zn42 O45 2.031 . S
Zn42 O47 2.049 1_554 S
Zn42 O52 2.067 . S
Zn43 O44 1.962 1_655 S
Zn43 O46 1.986 1_554 S
Zn43 O48 1.996 1_654 S
Zn43 O51 1.943 . S
O44 Zn43 1.962 1_455 S
O44 C49 1.254 . S
O45 Zn42 2.031 . S
O45 C49 1.269 . S
O46 Zn43 1.986 1_556 S
O46 C53 1.262 . S
O47 Zn42 2.049 1_556 S
O47 C55 1.260 . S
O48 Zn43 1.996 1_456 S
O48 C55 1.257 . S
C49 O44 1.254 . S
C49 O45 1.269 . S
C50 O51 1.249 . S
C50 O52 1.270 1_655 S
O51 Zn43 1.943 . S
O51 C50 1.249 . S
O52 Zn42 2.067 . S
O52 C50 1.270 1_455 S
C53 O46 1.262 . S
C53 O54 1.232 1_556 S
O54 C53 1.232 1_554 S
C55 O47 1.260 . S
C55 O48 1.257 . S
Zn56 O59 2.031 . S
Zn56 O61 2.049 1_554 S
Zn56 O66 2.067 . S
Zn57 O58 1.962 . S
Zn57 O60 1.986 1_554 S
Zn57 O62 1.996 1_554 S
Zn57 O65 1.943 . S
O58 Zn57 1.962 . S
O58 C63 1.254 . S
O59 Zn56 2.031 . S
O59 C63 1.269 . S
O60 Zn57 1.986 1_556 S
O60 C67 1.262 . S
O61 Zn56 2.049 1_556 S
O61 C69 1.260 . S
O62 Zn57 1.996 1_556 S
O62 C69 1.257 . S
C63 O58 1.254 . S
C63 O59 1.269 . S
C64 O65 1.249 . S
C64 O66 1.270 . S
O65 Zn57 1.943 . S
O65 C64 1.249 . S
O66 Zn56 2.067 . S
O66 C64 1.270 . S
C67 O60 1.262 . S
C67 O68 1.232 1_556 S
O68 C67 1.232 1_554 S
C69 O61 1.260 . S
C69 O62 1.257 . S
Zn70 O73 2.031 1_554 S
Zn70 O75 2.049 . S
Zn70 O80 2.067 1_554 S
Zn71 O72 1.962 1_565 S
Zn71 O74 1.986 . S
Zn71 O76 1.996 1_565 S
Zn71 O79 1.943 1_554 S
O72 Zn71 1.962 1_545 S
O72 C77 1.254 1_554 S
O73 Zn70 2.031 1_556 S
O73 C77 1.269 . S
O74 Zn71 1.986 . S
O74 C81 1.262 . S
O75 Zn70 2.049 . S
O75 C83 1.260 . S
O76 Zn71 1.996 1_545 S
O76 C83 1.257 . S
C77 O72 1.254 1_556 S
C77 O73 1.269 . S
C78 O79 1.249 . S
C78 O80 1.270 1_565 S
O79 Zn71 1.943 1_556 S
O79 C78 1.249 . S
O80 Zn70 2.067 1_556 S
O80 C78 1.270 1_545 S
C81 O74 1.262 . S
C81 O82 1.232 . S
O82 C81 1.232 . S
C83 O75 1.260 . S
C83 O76 1.257 . S
Zn84 O87 2.031 . S
Zn84 O89 2.049 . S
Zn84 O94 2.067 . S
Zn85 O86 1.962 . S
Zn85 O88 1.986 . S
Zn85 O90 1.996 . S
Zn85 O93 1.943 . S
O86 Zn85 1.962 . S
O86 C91 1.254 . S
O87 Zn84 2.031 . S
O87 C91 1.269 . S
O88 Zn85 1.986 . S
O88 C95 1.262 . S
O89 Zn84 2.049 . S
O89 C97 1.260 . S
O90 Zn85 1.996 . S
O90 C97 1.257 . S
C91 O86 1.254 . S
C91 O87 1.269 . S
C92 O93 1.249 . S
C92 O94 1.270 . S
O93 Zn85 1.943 . S
O93 C92 1.249 . S
O94 Zn84 2.067 . S
O94 C92 1.270 . S
C95 O88 1.262 . S
C95 O96 1.232 . S
O96 C95 1.232 . S
C97 O89 1.260 . S
C97 O90 1.257 . S
Zn98 O101 2.031 . S
Zn98 O103 2.049 . S
Zn98 O108 2.067 . S
Zn99 O100 1.962 1_565 S
Zn99 O102 1.986 1_565 S
Zn99 O104 1.996 . S
Zn99 O107 1.943 . S
O100 Zn99 1.962 1_545 S
O100 C105 1.254 1_545 S
O101 Zn98 2.031 . S
O101 C105 1.269 . S
O102 Zn99 1.986 1_545 S
O102 C109 1.262 . S
O103 Zn98 2.049 . S
O103 C111 1.260 . S
O104 Zn99 1.996 . S
O104 C111 1.257 . S
C105 O100 1.254 1_565 S
C105 O101 1.269 . S
C106 O107 1.249 . S
C106 O108 1.270 . S
O107 Zn99 1.943 . S
O107 C106 1.249 . S
O108 Zn98 2.067 . S
O108 C106 1.270 . S
C109 O102 1.262 . S
C109 O110 1.232 . S
O110 C109 1.232 . S
C111 O103 1.260 . S
C111 O104 1.257 . S
Zn112 O115 2.031 1_455 S
Zn112 O117 2.049 . S
Zn112 O122 2.067 . S
Zn113 O114 1.962 1_455 S
Zn113 O116 1.986 . S
Zn113 O118 1.996 . S
Zn113 O121 1.943 . S
O114 Zn113 1.962 1_655 S
O114 C119 1.254 . S
O115 Zn112 2.031 1_655 S
O115 C119 1.269 . S
O116 Zn113 1.986 . S
O116 C123 1.262 . S
O117 Zn112 2.049 . S
O117 C125 1.260 . S
O118 Zn113 1.996 . S
O118 C125 1.257 . S
C119 O114 1.254 . S
C119 O115 1.269 . S
C120 O121 1.249 . S
C120 O122 1.270 . S
O121 Zn113 1.943 . S
O121 C120 1.249 . S
O122 Zn112 2.067 . S
O122 C120 1.270 . S
C123 O116 1.262 . S
C123 O124 1.232 . S
O124 C123 1.232 . S
C125 O117 1.260 . S
C125 O118 1.257 . S
Zn126 O129 2.031 1_565 S
Zn126 O131 2.049 . S
Zn126 O136 2.067 . S
Zn127 O128 1.962 1_565 S
Zn127 O130 1.986 . S
Zn127 O132 1.996 . S
Zn127 O135 1.943 . S
O128 Zn127 1.962 1_545 S
O128 C133 1.254 . S
O129 Zn126 2.031 1_545 S
O129 C133 1.269 . S
O130 Zn127 1.986 . S
O130 C137 1.262 . S
O131 Zn126 2.049 . S
O131 C139 1.260 . S
O132 Zn127 1.996 . S
O132 C139 1.257 . S
C133 O128 1.254 . S
C133 O129 1.269 . S
C134 O135 1.249 . S
C134 O136 1.270 . S
O135 Zn127 1.943 . S
O135 C134 1.249 . S
O136 Zn126 2.067 . S
O136 C134 1.270 . S
C137 O130 1.262 . S
C137 O138 1.231 . S
O138 C137 1.231 . S
C139 O131 1.260 . S
C139 O132 1.257 . S
Zn140 O143 2.031 1_455 S
Zn140 O145 2.049 . S
Zn140 O150 2.067 . S
Zn141 O142 1.962 1_455 S
Zn141 O144 1.986 . S
Zn141 O146 1.996 . S
Zn141 O149 1.943 . S
O142 Zn141 1.962 1_655 S
O142 C147 1.254 . S
O143 Zn140 2.031 1_655 S
O143 C147 1.269 . S
O144 Zn141 1.986 . S
O144 C151 1.262 . S
O145 Zn140 2.049 . S
O145 C153 1.260 . S
O146 Zn141 1.996 . S
O146 C153 1.257 . S
C147 O142 1.254 . S
C147 O143 1.269 . S
C148 O149 1.249 . S
C148 O150 1.270 . S
O149 Zn141 1.943 . S
O149 C148 1.249 . S
O150 Zn140 2.067 . S
O150 C148 1.270 . S
C151 O144 1.262 . S
C151 O152 1.232 1_455 S
O152 C151 1.232 1_655 S
C153 O145 1.260 . S
C153 O146 1.257 . S
Zn154 O157 2.031 . S
Zn154 O159 2.049 . S
Zn154 O164 2.067 . S
Zn155 O156 1.962 . S
Zn155 O158 1.986 . S
Zn155 O160 1.996 . S
Zn155 O163 1.943 . S
O156 Zn155 1.962 . S
O156 C161 1.254 . S
O157 Zn154 2.031 . S
O157 C161 1.269 . S
O158 Zn155 1.986 . S
O158 C165 1.262 . S
O159 Zn154 2.049 . S
O159 C167 1.260 . S
O160 Zn155 1.996 . S
O160 C167 1.257 . S
C161 O156 1.254 . S
C161 O157 1.269 . S
C162 O163 1.249 . S
C162 O164 1.270 . S
O163 Zn155 1.943 . S
O163 C162 1.249 . S
O164 Zn154 2.067 . S
O164 C162 1.270 . S
C165 O158 1.262 . S
C165 O166 1.232 . S
O166 C165 1.232 . S
C167 O159 1.260 . S
C167 O160 1.257 . S
Zn168 O171 2.031 1_545 S
Zn168 O173 2.049 . S
Zn168 O178 2.067 . S
Zn169 O170 1.962 1_545 S
Zn169 O172 1.986 . S
Zn169 O174 1.996 . S
Zn169 O177 1.943 . S
O170 Zn169 1.962 1_565 S
O170 C175 1.254 . S
O171 Zn168 2.031 1_565 S
O171 C175 1.269 . S
O172 Zn169 1.986 . S
O172 C179 1.262 . S
O173 Zn168 2.049 . S
O173 C181 1.260 . S
O174 Zn169 1.996 . S
O174 C181 1.257 . S
C175 O170 1.254 . S
C175 O171 1.269 . S
C176 O177 1.249 . S
C176 O178 1.270 . S
O177 Zn169 1.943 . S
O177 C176 1.249 . S
O178 Zn168 2.067 . S
O178 C176 1.270 . S
C179 O172 1.262 . S
C179 O180 1.232 . S
O180 C179 1.232 . S
C181 O173 1.260 . S
C181 O174 1.257 . S
Zn182 O185 2.031 1_655 S
Zn182 O187 2.049 . S
Zn182 O192 2.067 . S
Zn183 O184 1.962 1_655 S
Zn183 O186 1.986 . S
Zn183 O188 1.996 . S
Zn183 O191 1.943 . S
O184 Zn183 1.962 1_455 S
O184 C189 1.254 . S
O185 Zn182 2.031 1_455 S
O185 C189 1.269 . S
O186 Zn183 1.986 . S
O186 C193 1.262 . S
O187 Zn182 2.049 . S
O187 C195 1.260 . S
O188 Zn183 1.996 . S
O188 C195 1.257 . S
C189 O184 1.254 . S
C189 O185 1.269 . S
C190 O191 1.249 . S
C190 O192 1.270 . S
O191 Zn183 1.943 . S
O191 C190 1.249 . S
O192 Zn182 2.067 . S
O192 C190 1.270 . S
C193 O186 1.262 . S
C193 O194 1.232 1_655 S
O194 C193 1.232 1_455 S
C195 O187 1.260 . S
C195 O188 1.257 . S
Zn196 O199 2.031 . S
Zn196 O201 2.049 . S
Zn196 O206 2.067 . S
Zn197 O198 1.962 . S
Zn197 O200 1.986 . S
Zn197 O202 1.996 . S
Zn197 O205 1.943 . S
O198 Zn197 1.962 . S
O198 C203 1.254 . S
O199 Zn196 2.031 . S
O199 C203 1.269 . S
O200 Zn197 1.986 . S
O200 C207 1.262 . S
O201 Zn196 2.049 . S
O201 C209 1.260 . S
O202 Zn197 1.996 . S
O202 C209 1.257 . S
C203 O198 1.254 . S
C203 O199 1.269 . S
C204 O205 1.249 . S
C204 O206 1.270 . S
O205 Zn197 1.943 . S
O205 C204 1.249 . S
O206 Zn196 2.067 . S
O206 C204 1.270 . S
C207 O200 1.262 . S
C207 O208 1.232 . S
O208 C207 1.232 . S
C209 O201 1.260 . S
C209 O202 1.257 . S
Zn210 O213 2.031 . S
Zn210 O215 2.049 . S
Zn210 O220 2.067 . S
Zn211 O212 1.962 . S
Zn211 O214 1.986 . S
Zn211 O216 1.996 . S
Zn211 O219 1.943 . S
O212 Zn211 1.962 . S
O212 C217 1.254 . S
O213 Zn210 2.031 . S
O213 C217 1.269 . S
O214 Zn211 1.986 . S
O214 C221 1.262 . S
O215 Zn210 2.049 . S
O215 C223 1.260 . S
O216 Zn211 1.996 . S
O216 C223 1.257 . S
C217 O212 1.254 . S
C217 O213 1.269 . S
C218 O219 1.249 . S
C218 O220 1.270 . S
O219 Zn211 1.943 . S
O219 C218 1.249 . S
O220 Zn210 2.067 . S
O220 C218 1.270 . S
C221 O214 1.262 . S
C221 O222 1.232 . S
O222 C221 1.232 . S
C223 O215 1.260 . S
C223 O216 1.257 . S
Zn224 O227 2.031 . S
Zn224 O229 2.049 . S
Zn224 O234 2.067 . S
Zn225 O226 1.961 1_545 S
Zn225 O228 1.986 1_545 S
Zn225 O230 1.996 . S
Zn225 O233 1.943 . S
O226 Zn225 1.961 1_565 S
O226 C231 1.256 1_565 S
O227 Zn224 2.031 . S
O227 C231 1.269 . S
O228 Zn225 1.986 1_565 S
O228 C235 1.262 . S
O229 Zn224 2.049 . S
O229 C237 1.260 . S
O230 Zn225 1.996 . S
O230 C237 1.257 . S
C231 O226 1.256 1_545 S
C231 O227 1.269 . S
C232 O233 1.249 . S
C232 O234 1.270 . S
O233 Zn225 1.943 . S
O233 C232 1.249 . S
O234 Zn224 2.067 . S
O234 C232 1.270 . S
C235 O228 1.262 . S
C235 O236 1.232 . S
O236 C235 1.232 . S
C237 O229 1.260 . S
C237 O230 1.257 . S
Zn238 O241 2.031 1_655 S
Zn238 O243 2.049 . S
Zn238 O248 2.067 . S
Zn239 O240 1.962 1_655 S
Zn239 O242 1.986 . S
Zn239 O244 1.996 . S
Zn239 O247 1.943 . S
O240 Zn239 1.962 1_455 S
O240 C245 1.254 . S
O241 Zn238 2.031 1_455 S
O241 C245 1.269 . S
O242 Zn239 1.986 . S
O242 C249 1.262 . S
O243 Zn238 2.049 . S
O243 C251 1.260 . S
O244 Zn239 1.996 . S
O244 C251 1.257 . S
C245 O240 1.254 . S
C245 O241 1.269 . S
C246 O247 1.249 . S
C246 O248 1.270 . S
O247 Zn239 1.943 . S
O247 C246 1.249 . S
O248 Zn238 2.067 . S
O248 C246 1.270 . S
C249 O242 1.262 . S
C249 O250 1.239 . S
O250 C249 1.239 . S
C251 O243 1.260 . S
C251 O244 1.257 . S
C252 C253 1.384 . S
C252 C254 1.384 . S
C252 H280 0.931 . S
C253 C252 1.384 . S
C253 C256 1.382 . S
C254 C252 1.384 . S
C254 C255 1.381 . S
C254 H281 0.930 . S
C255 C254 1.381 . S
C255 C257 1.381 . S
C255 C258 1.487 . S
C256 C253 1.382 . S
C256 C257 1.387 . S
C256 H282 0.930 . S
C257 C255 1.381 . S
C257 C256 1.387 . S
C257 H283 0.931 . S
C258 C255 1.487 . S
C258 C265 1.399 . S
C258 N296 1.343 . S
C259 C260 1.384 . S
C259 C261 1.384 . S
C259 H284 0.931 . S
C260 C259 1.384 . S
C260 C263 1.382 . S
C261 C259 1.384 . S
C261 C262 1.381 . S
C261 H285 0.930 . S
C262 C261 1.381 . S
C262 C264 1.381 . S
C262 C265 1.487 . S
C263 C260 1.382 . S
C263 C264 1.387 . S
C263 H286 0.930 . S
C264 C262 1.381 . S
C264 C263 1.387 . S
C264 H287 0.931 . S
C265 C258 1.399 . S
C265 C262 1.487 . S
C265 N297 1.343 . S
C266 C267 1.384 . S
C266 C268 1.384 . S
C266 H288 0.931 . S
C267 C266 1.384 . S
C267 C270 1.382 . S
C268 C266 1.384 . S
C268 C269 1.381 . S
C268 H289 0.930 . S
C269 C268 1.381 . S
C269 C271 1.381 . S
C269 C272 1.487 . S
C270 C267 1.382 . S
C270 C271 1.387 . S
C270 H290 0.930 . S
C271 C269 1.381 . S
C271 C270 1.387 . S
C271 H291 0.931 . S
C272 C269 1.487 . S
C272 C279 1.399 . S
C272 N297 1.343 . S
C273 C274 1.384 . S
C273 C275 1.384 . S
C273 H292 0.931 . S
C274 C273 1.384 . S
C274 C277 1.382 . S
C275 C273 1.384 . S
C275 C276 1.381 . S
C275 H293 0.930 . S
C276 C275 1.381 . S
C276 C278 1.381 . S
C276 C279 1.487 . S
C277 C274 1.382 . S
C277 C278 1.387 . S
C277 H294 0.930 . S
C278 C276 1.381 . S
C278 C277 1.387 . S
C278 H295 0.931 . S
C279 C272 1.399 . S
C279 C276 1.487 . S
C279 N296 1.343 . S
H280 C252 0.931 . S
H281 C254 0.930 . S
H282 C256 0.930 . S
H283 C257 0.931 . S
H284 C259 0.931 . S
H285 C261 0.930 . S
H286 C263 0.930 . S
H287 C264 0.931 . S
H288 C266 0.931 . S
H289 C268 0.930 . S
H290 C270 0.930 . S
H291 C271 0.931 . S
H292 C273 0.931 . S
H293 C275 0.930 . S
H294 C277 0.930 . S
H295 C278 0.931 . S
N296 C258 1.343 . S
N296 C279 1.343 . S
N297 C265 1.343 . S
N297 C272 1.343 . S
C298 C299 1.384 . S
C298 C300 1.384 . S
C298 H326 0.931 . S
C299 C298 1.384 . S
C299 C302 1.382 . S
C300 C298 1.384 . S
C300 C301 1.381 . S
C300 H327 0.930 . S
C301 C300 1.381 . S
C301 C303 1.381 . S
C301 C304 1.487 . S
C302 C299 1.382 . S
C302 C303 1.387 . S
C302 H328 0.930 . S
C303 C301 1.381 . S
C303 C302 1.387 . S
C303 H329 0.931 . S
C304 C301 1.487 . S
C304 C311 1.399 . S
C304 N342 1.343 . S
C305 C306 1.384 . S
C305 C307 1.384 . S
C305 H330 0.931 . S
C306 C305 1.384 . S
C306 C309 1.382 . S
C307 C305 1.384 . S
C307 C308 1.381 . S
C307 H331 0.930 . S
C308 C307 1.381 . S
C308 C310 1.381 . S
C308 C311 1.487 . S
C309 C306 1.382 . S
C309 C310 1.387 . S
C309 H332 0.930 . S
C310 C308 1.381 . S
C310 C309 1.387 . S
C310 H333 0.931 . S
C311 C304 1.399 . S
C311 C308 1.487 . S
C311 N343 1.343 . S
C312 C313 1.384 . S
C312 C314 1.384 . S
C312 H334 0.931 . S
C313 C312 1.384 . S
C313 C316 1.382 . S
C314 C312 1.384 . S
C314 C315 1.381 . S
C314 H335 0.930 . S
C315 C314 1.381 . S
C315 C317 1.381 . S
C315 C318 1.487 . S
C316 C313 1.382 . S
C316 C317 1.387 . S
C316 H336 0.930 . S
C317 C315 1.381 . S
C317 C316 1.387 . S
C317 H337 0.931 . S
C318 C315 1.487 . S
C318 C325 1.399 . S
C318 N343 1.343 . S
C319 C320 1.384 . S
C319 C321 1.384 . S
C319 H338 0.931 . S
C320 C319 1.384 . S
C320 C323 1.382 . S
C321 C319 1.384 . S
C321 C322 1.381 . S
C321 H339 0.930 . S
C322 C321 1.381 . S
C322 C324 1.381 . S
C322 C325 1.487 . S
C323 C320 1.382 . S
C323 C324 1.387 . S
C323 H340 0.930 . S
C324 C322 1.381 . S
C324 C323 1.387 . S
C324 H341 0.931 . S
C325 C318 1.399 . S
C325 C322 1.487 . S
C325 N342 1.343 . S
H326 C298 0.931 . S
H327 C300 0.930 . S
H328 C302 0.930 . S
H329 C303 0.931 . S
H330 C305 0.931 . S
H331 C307 0.930 . S
H332 C309 0.930 . S
H333 C310 0.931 . S
H334 C312 0.931 . S
H335 C314 0.930 . S
H336 C316 0.930 . S
H337 C317 0.931 . S
H338 C319 0.931 . S
H339 C321 0.930 . S
H340 C323 0.930 . S
H341 C324 0.931 . S
N342 C304 1.343 . S
N342 C325 1.343 . S
N343 C311 1.343 . S
N343 C318 1.343 . S
C344 C345 1.384 . S
C344 C346 1.384 . S
C344 H372 0.931 . S
C345 C344 1.384 . S
C345 C348 1.382 . S
C346 C344 1.384 . S
C346 C347 1.381 . S
C346 H373 0.930 . S
C347 C346 1.381 . S
C347 C349 1.381 . S
C347 C350 1.487 . S
C348 C345 1.382 . S
C348 C349 1.387 . S
C348 H374 0.930 . S
C349 C347 1.381 . S
C349 C348 1.387 . S
C349 H375 0.931 . S
C350 C347 1.487 . S
C350 C357 1.399 . S
C350 N388 1.343 . S
C351 C352 1.384 . S
C351 C353 1.384 . S
C351 H376 0.931 . S
C352 C351 1.384 . S
C352 C355 1.382 . S
C353 C351 1.384 . S
C353 C354 1.381 . S
C353 H377 0.930 . S
C354 C353 1.381 . S
C354 C356 1.381 . S
C354 C357 1.487 . S
C355 C352 1.382 . S
C355 C356 1.387 . S
C355 H378 0.930 . S
C356 C354 1.381 . S
C356 C355 1.387 . S
C356 H379 0.931 . S
C357 C350 1.399 . S
C357 C354 1.487 . S
C357 N389 1.343 . S
C358 C359 1.384 . S
C358 C360 1.384 . S
C358 H380 0.931 . S
C359 C358 1.384 . S
C359 C362 1.382 . S
C360 C358 1.384 . S
C360 C361 1.381 . S
C360 H381 0.930 . S
C361 C360 1.381 . S
C361 C363 1.381 . S
C361 C364 1.487 . S
C362 C359 1.382 . S
C362 C363 1.387 . S
C362 H382 0.930 . S
C363 C361 1.381 . S
C363 C362 1.387 . S
C363 H383 0.931 . S
C364 C361 1.487 . S
C364 C371 1.399 . S
C364 N389 1.343 . S
C365 C366 1.384 . S
C365 C367 1.384 . S
C365 H384 0.931 . S
C366 C365 1.384 . S
C366 C369 1.382 . S
C367 C365 1.384 . S
C367 C368 1.381 . S
C367 H385 0.930 . S
C368 C367 1.381 . S
C368 C370 1.381 . S
C368 C371 1.487 . S
C369 C366 1.382 . S
C369 C370 1.387 . S
C369 H386 0.930 . S
C370 C368 1.381 . S
C370 C369 1.387 . S
C370 H387 0.931 . S
C371 C364 1.399 . S
C371 C368 1.487 . S
C371 N388 1.343 . S
H372 C344 0.931 . S
H373 C346 0.930 . S
H374 C348 0.930 . S
H375 C349 0.931 . S
H376 C351 0.931 . S
H377 C353 0.930 . S
H378 C355 0.930 . S
H379 C356 0.931 . S
H380 C358 0.931 . S
H381 C360 0.930 . S
H382 C362 0.930 . S
H383 C363 0.931 . S
H384 C365 0.931 . S
H385 C367 0.930 . S
H386 C369 0.930 . S
H387 C370 0.931 . S
N388 C350 1.343 . S
N388 C371 1.343 . S
N389 C357 1.343 . S
N389 C364 1.343 . S
C390 C391 1.384 . S
C390 C392 1.384 . S
C390 H418 0.931 . S
C391 C390 1.384 . S
C391 C394 1.382 . S
C392 C390 1.384 . S
C392 C393 1.381 . S
C392 H419 0.930 . S
C393 C392 1.381 . S
C393 C395 1.381 . S
C393 C396 1.487 . S
C394 C391 1.382 . S
C394 C395 1.387 . S
C394 H420 0.930 . S
C395 C393 1.381 . S
C395 C394 1.387 . S
C395 H421 0.931 . S
C396 C393 1.487 . S
C396 C403 1.399 . S
C396 N434 1.343 . S
C397 C398 1.384 . S
C397 C399 1.384 . S
C397 H422 0.931 . S
C398 C397 1.384 . S
C398 C401 1.382 . S
C399 C397 1.384 . S
C399 C400 1.381 . S
C399 H423 0.930 . S
C400 C399 1.381 . S
C400 C402 1.381 . S
C400 C403 1.487 . S
C401 C398 1.382 . S
C401 C402 1.387 . S
C401 H424 0.930 . S
C402 C400 1.381 . S
C402 C401 1.387 . S
C402 H425 0.931 . S
C403 C396 1.399 . S
C403 C400 1.487 . S
C403 N435 1.343 . S
C404 C405 1.384 . S
C404 C406 1.384 . S
C404 H426 0.931 . S
C405 C404 1.384 . S
C405 C408 1.382 . S
C406 C404 1.384 . S
C406 C407 1.381 . S
C406 H427 0.930 . S
C407 C406 1.381 . S
C407 C409 1.381 . S
C407 C410 1.487 . S
C408 C405 1.382 . S
C408 C409 1.387 . S
C408 H428 0.930 . S
C409 C407 1.381 . S
C409 C408 1.387 . S
C409 H429 0.931 . S
C410 C407 1.487 . S
C410 C417 1.399 . S
C410 N435 1.343 . S
C411 C412 1.384 . S
C411 C413 1.384 . S
C411 H430 0.931 . S
C412 C411 1.384 . S
C412 C415 1.382 . S
C413 C411 1.384 . S
C413 C414 1.381 . S
C413 H431 0.930 . S
C414 C413 1.381 . S
C414 C416 1.381 . S
C414 C417 1.487 . S
C415 C412 1.382 . S
C415 C416 1.387 . S
C415 H432 0.930 . S
C416 C414 1.381 . S
C416 C415 1.387 . S
C416 H433 0.931 . S
C417 C410 1.399 . S
C417 C414 1.487 . S
C417 N434 1.343 . S
H418 C390 0.931 . S
H419 C392 0.930 . S
H420 C394 0.930 . S
H421 C395 0.931 . S
H422 C397 0.931 . S
H423 C399 0.930 . S
H424 C401 0.930 . S
H425 C402 0.931 . S
H426 C404 0.931 . S
H427 C406 0.930 . S
H428 C408 0.930 . S
H429 C409 0.931 . S
H430 C411 0.931 . S
H431 C413 0.930 . S
H432 C415 0.930 . S
H433 C416 0.931 . S
N434 C396 1.343 . S
N434 C417 1.343 . S
N435 C403 1.343 . S
N435 C410 1.343 . S
C436 C437 1.384 . S
C436 C438 1.384 . S
C436 H464 0.931 . S
C437 C436 1.384 . S
C437 C440 1.382 . S
C438 C436 1.384 . S
C438 C439 1.381 . S
C438 H465 0.930 . S
C439 C438 1.381 . S
C439 C441 1.381 . S
C439 C442 1.487 . S
C440 C437 1.382 . S
C440 C441 1.387 . S
C440 H466 0.930 . S
C441 C439 1.381 . S
C441 C440 1.387 . S
C441 H467 0.931 . S
C442 C439 1.487 . S
C442 C449 1.399 . S
C442 N480 1.343 . S
C443 C444 1.384 . S
C443 C445 1.384 . S
C443 H468 0.931 . S
C444 C443 1.384 . S
C444 C447 1.382 . S
C445 C443 1.384 . S
C445 C446 1.381 . S
C445 H469 0.930 . S
C446 C445 1.381 . S
C446 C448 1.381 . S
C446 C449 1.487 . S
C447 C444 1.382 . S
C447 C448 1.387 . S
C447 H470 0.930 . S
C448 C446 1.381 . S
C448 C447 1.387 . S
C448 H471 0.931 . S
C449 C442 1.399 . S
C449 C446 1.487 . S
C449 N481 1.343 . S
C450 C451 1.384 . S
C450 C452 1.384 . S
C450 H472 0.931 . S
C451 C450 1.384 . S
C451 C454 1.382 . S
C452 C450 1.384 . S
C452 C453 1.381 . S
C452 H473 0.930 . S
C453 C452 1.381 . S
C453 C455 1.381 . S
C453 C456 1.487 . S
C454 C451 1.382 . S
C454 C455 1.387 . S
C454 H474 0.930 . S
C455 C453 1.381 . S
C455 C454 1.387 . S
C455 H475 0.931 . S
C456 C453 1.487 . S
C456 C463 1.399 . S
C456 N481 1.343 . S
C457 C458 1.384 . S
C457 C459 1.384 . S
C457 H476 0.931 . S
C458 C457 1.384 . S
C458 C461 1.382 . S
C459 C457 1.384 . S
C459 C460 1.381 . S
C459 H477 0.930 . S
C460 C459 1.381 . S
C460 C462 1.381 . S
C460 C463 1.487 . S
C461 C458 1.382 . S
C461 C462 1.387 . S
C461 H478 0.930 . S
C462 C460 1.381 . S
C462 C461 1.387 . S
C462 H479 0.931 . S
C463 C456 1.399 . S
C463 C460 1.487 . S
C463 N480 1.343 . S
H464 C436 0.931 . S
H465 C438 0.930 . S
H466 C440 0.930 . S
H467 C441 0.931 . S
H468 C443 0.931 . S
H469 C445 0.930 . S
H470 C447 0.930 . S
H471 C448 0.931 . S
H472 C450 0.931 . S
H473 C452 0.930 . S
H474 C454 0.930 . S
H475 C455 0.931 . S
H476 C457 0.931 . S
H477 C459 0.930 . S
H478 C461 0.930 . S
H479 C462 0.931 . S
N480 C442 1.343 . S
N480 C463 1.343 . S
N481 C449 1.343 . S
N481 C456 1.343 . S
C482 C483 1.384 . S
C482 C484 1.384 . S
C482 H510 0.931 . S
C483 C482 1.384 . S
C483 C486 1.382 . S
C484 C482 1.384 . S
C484 C485 1.381 . S
C484 H511 0.930 . S
C485 C484 1.381 . S
C485 C487 1.381 . S
C485 C488 1.487 . S
C486 C483 1.382 . S
C486 C487 1.387 . S
C486 H512 0.930 . S
C487 C485 1.381 . S
C487 C486 1.387 . S
C487 H513 0.931 . S
C488 C485 1.487 . S
C488 C495 1.399 . S
C488 N526 1.343 . S
C489 C490 1.384 . S
C489 C491 1.384 . S
C489 H514 0.931 . S
C490 C489 1.384 . S
C490 C493 1.382 . S
C491 C489 1.384 . S
C491 C492 1.381 . S
C491 H515 0.930 . S
C492 C491 1.381 . S
C492 C494 1.381 . S
C492 C495 1.487 . S
C493 C490 1.382 . S
C493 C494 1.387 . S
C493 H516 0.930 . S
C494 C492 1.381 . S
C494 C493 1.387 . S
C494 H517 0.931 . S
C495 C488 1.399 . S
C495 C492 1.487 . S
C495 N527 1.343 . S
C496 C497 1.384 . S
C496 C498 1.384 . S
C496 H518 0.931 . S
C497 C496 1.384 . S
C497 C500 1.382 . S
C498 C496 1.384 . S
C498 C499 1.381 . S
C498 H519 0.930 . S
C499 C498 1.381 . S
C499 C501 1.381 . S
C499 C502 1.487 . S
C500 C497 1.382 . S
C500 C501 1.387 . S
C500 H520 0.930 . S
C501 C499 1.381 . S
C501 C500 1.387 . S
C501 H521 0.931 . S
C502 C499 1.487 . S
C502 C509 1.399 . S
C502 N527 1.343 . S
C503 C504 1.384 . S
C503 C505 1.384 . S
C503 H522 0.931 . S
C504 C503 1.384 . S
C504 C507 1.382 . S
C505 C503 1.384 . S
C505 C506 1.381 . S
C505 H523 0.930 . S
C506 C505 1.381 . S
C506 C508 1.381 . S
C506 C509 1.487 . S
C507 C504 1.382 . S
C507 C508 1.387 . S
C507 H524 0.930 . S
C508 C506 1.381 . S
C508 C507 1.387 . S
C508 H525 0.931 . S
C509 C502 1.399 . S
C509 C506 1.487 . S
C509 N526 1.343 . S
H510 C482 0.931 . S
H511 C484 0.930 . S
H512 C486 0.930 . S
H513 C487 0.931 . S
H514 C489 0.931 . S
H515 C491 0.930 . S
H516 C493 0.930 . S
H517 C494 0.931 . S
H518 C496 0.931 . S
H519 C498 0.930 . S
H520 C500 0.930 . S
H521 C501 0.931 . S
H522 C503 0.931 . S
H523 C505 0.930 . S
H524 C507 0.930 . S
H525 C508 0.931 . S
N526 C488 1.343 . S
N526 C509 1.343 . S
N527 C495 1.343 . S
N527 C502 1.343 . S
C528 C529 1.384 . S
C528 C530 1.384 . S
C528 H556 0.931 . S
C529 C528 1.384 . S
C529 C532 1.382 . S
C530 C528 1.384 . S
C530 C531 1.381 . S
C530 H557 0.930 . S
C531 C530 1.381 . S
C531 C533 1.381 . S
C531 C534 1.487 . S
C532 C529 1.382 . S
C532 C533 1.387 . S
C532 H558 0.930 . S
C533 C531 1.381 . S
C533 C532 1.387 . S
C533 H559 0.931 . S
C534 C531 1.487 . S
C534 C541 1.399 . S
C534 N572 1.343 . S
C535 C536 1.384 . S
C535 C537 1.384 . S
C535 H560 0.931 . S
C536 C535 1.384 . S
C536 C539 1.382 . S
C537 C535 1.384 . S
C537 C538 1.381 . S
C537 H561 0.930 . S
C538 C537 1.381 . S
C538 C540 1.381 . S
C538 C541 1.487 . S
C539 C536 1.382 . S
C539 C540 1.387 . S
C539 H562 0.930 . S
C540 C538 1.381 . S
C540 C539 1.387 . S
C540 H563 0.931 . S
C541 C534 1.399 . S
C541 C538 1.487 . S
C541 N573 1.343 . S
C542 C543 1.384 . S
C542 C544 1.384 . S
C542 H564 0.931 . S
C543 C542 1.384 . S
C543 C546 1.382 . S
C544 C542 1.384 . S
C544 C545 1.381 . S
C544 H565 0.930 . S
C545 C544 1.381 . S
C545 C547 1.381 . S
C545 C548 1.487 . S
C546 C543 1.382 . S
C546 C547 1.387 . S
C546 H566 0.930 . S
C547 C545 1.381 . S
C547 C546 1.387 . S
C547 H567 0.931 . S
C548 C545 1.487 . S
C548 C555 1.399 . S
C548 N573 1.343 . S
C549 C550 1.384 . S
C549 C551 1.384 . S
C549 H568 0.931 . S
C550 C549 1.384 . S
C550 C553 1.382 . S
C551 C549 1.384 . S
C551 C552 1.381 . S
C551 H569 0.930 . S
C552 C551 1.381 . S
C552 C554 1.381 . S
C552 C555 1.487 . S
C553 C550 1.382 . S
C553 C554 1.387 . S
C553 H570 0.930 . S
C554 C552 1.381 . S
C554 C553 1.387 . S
C554 H571 0.931 . S
C555 C548 1.399 . S
C555 C552 1.487 . S
C555 N572 1.343 . S
H556 C528 0.931 . S
H557 C530 0.930 . S
H558 C532 0.930 . S
H559 C533 0.931 . S
H560 C535 0.931 . S
H561 C537 0.930 . S
H562 C539 0.930 . S
H563 C540 0.931 . S
H564 C542 0.931 . S
H565 C544 0.930 . S
H566 C546 0.930 . S
H567 C547 0.931 . S
H568 C549 0.931 . S
H569 C551 0.930 . S
H570 C553 0.930 . S
H571 C554 0.931 . S
N572 C534 1.343 . S
N572 C555 1.343 . S
N573 C541 1.343 . S
N573 C548 1.343 . S
C574 C575 1.384 . S
C574 C576 1.384 . S
C574 H602 0.931 . S
C575 C574 1.384 . S
C575 C578 1.382 . S
C576 C574 1.384 . S
C576 C577 1.381 . S
C576 H603 0.930 . S
C577 C576 1.381 . S
C577 C579 1.381 . S
C577 C580 1.487 . S
C578 C575 1.382 . S
C578 C579 1.387 . S
C578 H604 0.930 . S
C579 C577 1.381 . S
C579 C578 1.387 . S
C579 H605 0.931 . S
C580 C577 1.487 . S
C580 C587 1.399 . S
C580 N618 1.343 . S
C581 C582 1.384 . S
C581 C583 1.384 . S
C581 H606 0.931 . S
C582 C581 1.384 . S
C582 C585 1.382 . S
C583 C581 1.384 . S
C583 C584 1.381 . S
C583 H607 0.930 . S
C584 C583 1.381 . S
C584 C586 1.381 . S
C584 C587 1.487 . S
C585 C582 1.382 . S
C585 C586 1.387 . S
C585 H608 0.930 . S
C586 C584 1.381 . S
C586 C585 1.387 . S
C586 H609 0.931 . S
C587 C580 1.399 . S
C587 C584 1.487 . S
C587 N619 1.343 . S
C588 C589 1.384 . S
C588 C590 1.384 . S
C588 H610 0.931 . S
C589 C588 1.384 . S
C589 C592 1.382 . S
C590 C588 1.384 . S
C590 C591 1.381 . S
C590 H611 0.930 . S
C591 C590 1.381 . S
C591 C593 1.381 . S
C591 C594 1.487 . S
C592 C589 1.382 . S
C592 C593 1.387 . S
C592 H612 0.930 . S
C593 C591 1.381 . S
C593 C592 1.387 . S
C593 H613 0.931 . S
C594 C591 1.487 . S
C594 C601 1.399 . S
C594 N619 1.343 . S
C595 C596 1.384 . S
C595 C597 1.384 . S
C595 H614 0.931 . S
C596 C595 1.384 . S
C596 C599 1.382 . S
C597 C595 1.384 . S
C597 C598 1.381 . S
C597 H615 0.930 . S
C598 C597 1.381 . S
C598 C600 1.381 . S
C598 C601 1.487 . S
C599 C596 1.382 . S
C599 C600 1.387 . S
C599 H616 0.930 . S
C600 C598 1.381 . S
C600 C599 1.387 . S
C600 H617 0.931 . S
C601 C594 1.399 . S
C601 C598 1.487 . S
C601 N618 1.343 . S
H602 C574 0.931 . S
H603 C576 0.930 . S
H604 C578 0.930 . S
H605 C579 0.931 . S
H606 C581 0.931 . S
H607 C583 0.930 . S
H608 C585 0.930 . S
H609 C586 0.931 . S
H610 C588 0.931 . S
H611 C590 0.930 . S
H612 C592 0.930 . S
H613 C593 0.931 . S
H614 C595 0.931 . S
H615 C597 0.930 . S
H616 C599 0.930 . S
H617 C600 0.931 . S
N618 C580 1.343 . S
N618 C601 1.343 . S
N619 C587 1.343 . S
N619 C594 1.343 . S
C620 C621 1.384 . S
C620 C622 1.384 . S
C620 H648 0.931 . S
C621 C620 1.384 . S
C621 C624 1.382 . S
C622 C620 1.384 . S
C622 C623 1.381 . S
C622 H649 0.930 . S
C623 C622 1.381 . S
C623 C625 1.381 . S
C623 C626 1.487 . S
C624 C621 1.382 . S
C624 C625 1.387 . S
C624 H650 0.930 . S
C625 C623 1.381 . S
C625 C624 1.387 . S
C625 H651 0.931 . S
C626 C623 1.487 . S
C626 C633 1.399 . S
C626 N664 1.343 . S
C627 C628 1.384 . S
C627 C629 1.384 . S
C627 H652 0.931 . S
C628 C627 1.384 . S
C628 C631 1.382 . S
C629 C627 1.384 . S
C629 C630 1.381 . S
C629 H653 0.930 . S
C630 C629 1.381 . S
C630 C632 1.381 . S
C630 C633 1.487 . S
C631 C628 1.382 . S
C631 C632 1.387 . S
C631 H654 0.930 . S
C632 C630 1.381 . S
C632 C631 1.387 . S
C632 H655 0.931 . S
C633 C626 1.399 . S
C633 C630 1.487 . S
C633 N665 1.343 . S
C634 C635 1.384 . S
C634 C636 1.384 . S
C634 H656 0.931 . S
C635 C634 1.384 . S
C635 C638 1.382 . S
C636 C634 1.384 . S
C636 C637 1.381 . S
C636 H657 0.930 . S
C637 C636 1.381 . S
C637 C639 1.381 . S
C637 C640 1.487 . S
C638 C635 1.382 . S
C638 C639 1.387 . S
C638 H658 0.930 . S
C639 C637 1.381 . S
C639 C638 1.387 . S
C639 H659 0.931 . S
C640 C637 1.487 . S
C640 C647 1.399 . S
C640 N665 1.343 . S
C641 C642 1.384 . S
C641 C643 1.384 . S
C641 H660 0.931 . S
C642 C641 1.384 . S
C642 C645 1.382 . S
C643 C641 1.384 . S
C643 C644 1.381 . S
C643 H661 0.930 . S
C644 C643 1.381 . S
C644 C646 1.381 . S
C644 C647 1.487 . S
C645 C642 1.382 . S
C645 C646 1.387 . S
C645 H662 0.930 . S
C646 C644 1.381 . S
C646 C645 1.387 . S
C646 H663 0.931 . S
C647 C640 1.399 . S
C647 C644 1.487 . S
C647 N664 1.343 . S
H648 C620 0.931 . S
H649 C622 0.930 . S
H650 C624 0.930 . S
H651 C625 0.931 . S
H652 C627 0.931 . S
H653 C629 0.930 . S
H654 C631 0.930 . S
H655 C632 0.931 . S
H656 C634 0.931 . S
H657 C636 0.930 . S
H658 C638 0.930 . S
H659 C639 0.931 . S
H660 C641 0.931 . S
H661 C643 0.930 . S
H662 C645 0.930 . S
H663 C646 0.931 . S
N664 C626 1.343 . S
N664 C647 1.343 . S
N665 C633 1.343 . S
N665 C640 1.343 . S
C666 C667 1.384 . S
C666 C668 1.384 . S
C666 H694 0.931 . S
C667 C666 1.384 . S
C667 C670 1.382 1_655 S
C668 C666 1.384 . S
C668 C669 1.420 . S
C668 H695 0.930 . S
C669 C668 1.420 . S
C669 C671 1.362 1_655 S
C669 C672 1.467 1_655 S
C670 C667 1.382 1_455 S
C670 C671 1.387 . S
C670 H696 0.930 . S
C671 C669 1.362 1_455 S
C671 C670 1.387 . S
C671 H697 0.931 . S
C672 C669 1.467 1_455 S
C672 C679 1.399 1_455 S
C672 N710 1.345 . S
C673 C674 1.384 . S
C673 C675 1.384 . S
C673 H698 0.931 . S
C674 C673 1.384 . S
C674 C677 1.382 1_455 S
C675 C673 1.384 . S
C675 C676 1.382 . S
C675 H699 0.930 . S
C676 C675 1.382 . S
C676 C678 1.378 1_455 S
C676 C679 1.497 1_455 S
C677 C674 1.382 1_655 S
C677 C678 1.387 . S
C677 H700 0.930 . S
C678 C676 1.378 1_655 S
C678 C677 1.387 . S
C678 H701 0.931 . S
C679 C672 1.399 1_655 S
C679 C676 1.497 1_655 S
C679 N711 1.336 . S
C680 C681 1.384 . S
C680 C682 1.384 . S
C680 H702 0.931 . S
C681 C680 1.384 . S
C681 C684 1.382 1_455 S
C682 C680 1.384 . S
C682 C683 1.381 . S
C682 H703 0.930 . S
C683 C682 1.381 . S
C683 C685 1.381 1_455 S
C683 C686 1.489 1_455 S
C684 C681 1.382 1_655 S
C684 C685 1.387 . S
C684 H704 0.930 . S
C685 C683 1.381 1_655 S
C685 C684 1.387 . S
C685 H705 0.931 . S
C686 C683 1.489 1_655 S
C686 C693 1.399 1_655 S
C686 N711 1.341 . S
C687 C688 1.384 . S
C687 C689 1.384 . S
C687 H706 0.931 . S
C688 C687 1.384 . S
C688 C691 1.382 1_655 S
C689 C687 1.384 . S
C689 C690 1.381 . S
C689 H707 0.930 . S
C690 C689 1.381 . S
C690 C692 1.383 1_655 S
C690 C693 1.497 1_655 S
C691 C688 1.382 1_455 S
C691 C692 1.387 . S
C691 H708 0.930 . S
C692 C690 1.383 1_455 S
C692 C691 1.387 . S
C692 H709 0.931 . S
C693 C686 1.399 1_455 S
C693 C690 1.497 1_455 S
C693 N710 1.332 . S
H694 C666 0.931 . S
H695 C668 0.930 . S
H696 C670 0.930 . S
H697 C671 0.931 . S
H698 C673 0.931 . S
H699 C675 0.930 . S
H700 C677 0.930 . S
H701 C678 0.931 . S
H702 C680 0.931 . S
H703 C682 0.930 . S
H704 C684 0.930 . S
H705 C685 0.931 . S
H706 C687 0.931 . S
H707 C689 0.930 . S
H708 C691 0.930 . S
H709 C692 0.931 . S
N710 C672 1.345 . S
N710 C693 1.332 . S
N711 C679 1.336 . S
N711 C686 1.341 . S
C712 C713 1.384 . S
C712 C714 1.384 . S
C712 H740 0.931 . S
C713 C712 1.384 . S
C713 C716 1.382 . S
C714 C712 1.384 . S
C714 C715 1.381 . S
C714 H741 0.930 . S
C715 C714 1.381 . S
C715 C717 1.381 . S
C715 C718 1.487 . S
C716 C713 1.382 . S
C716 C717 1.387 . S
C716 H742 0.930 . S
C717 C715 1.381 . S
C717 C716 1.387 . S
C717 H743 0.931 . S
C718 C715 1.487 . S
C718 C725 1.399 . S
C718 N756 1.343 . S
C719 C720 1.384 . S
C719 C721 1.384 . S
C719 H744 0.931 . S
C720 C719 1.384 . S
C720 C723 1.382 . S
C721 C719 1.384 . S
C721 C722 1.381 . S
C721 H745 0.930 . S
C722 C721 1.381 . S
C722 C724 1.381 . S
C722 C725 1.487 . S
C723 C720 1.382 . S
C723 C724 1.387 . S
C723 H746 0.930 . S
C724 C722 1.381 . S
C724 C723 1.387 . S
C724 H747 0.931 . S
C725 C718 1.399 . S
C725 C722 1.487 . S
C725 N757 1.343 . S
C726 C727 1.384 . S
C726 C728 1.384 . S
C726 H748 0.931 . S
C727 C726 1.384 . S
C727 C730 1.382 . S
C728 C726 1.384 . S
C728 C729 1.381 . S
C728 H749 0.930 . S
C729 C728 1.381 . S
C729 C731 1.381 . S
C729 C732 1.487 . S
C730 C727 1.382 . S
C730 C731 1.387 . S
C730 H750 0.930 . S
C731 C729 1.381 . S
C731 C730 1.387 . S
C731 H751 0.931 . S
C732 C729 1.487 . S
C732 C739 1.399 . S
C732 N757 1.343 . S
C733 C734 1.384 . S
C733 C735 1.384 . S
C733 H752 0.931 . S
C734 C733 1.384 . S
C734 C737 1.382 . S
C735 C733 1.384 . S
C735 C736 1.381 . S
C735 H753 0.930 . S
C736 C735 1.381 . S
C736 C738 1.381 . S
C736 C739 1.487 . S
C737 C734 1.382 . S
C737 C738 1.387 . S
C737 H754 0.930 . S
C738 C736 1.381 . S
C738 C737 1.387 . S
C738 H755 0.931 . S
C739 C732 1.399 . S
C739 C736 1.487 . S
C739 N756 1.343 . S
H740 C712 0.931 . S
H741 C714 0.930 . S
H742 C716 0.930 . S
H743 C717 0.931 . S
H744 C719 0.931 . S
H745 C721 0.930 . S
H746 C723 0.930 . S
H747 C724 0.931 . S
H748 C726 0.931 . S
H749 C728 0.930 . S
H750 C730 0.930 . S
H751 C731 0.931 . S
H752 C733 0.931 . S
H753 C735 0.930 . S
H754 C737 0.930 . S
H755 C738 0.931 . S
N756 C718 1.343 . S
N756 C739 1.343 . S
N757 C725 1.343 . S
N757 C732 1.343 . S
C758 C759 1.384 1_545 S
C758 C760 1.384 . S
C758 H786 0.931 . S
C759 C758 1.384 1_565 S
C759 C762 1.382 . S
C760 C758 1.384 . S
C760 C761 1.381 1_545 S
C760 H787 0.930 . S
C761 C760 1.381 1_565 S
C761 C763 1.381 . S
C761 C764 1.487 . S
C762 C759 1.382 . S
C762 C763 1.387 . S
C762 H788 0.930 . S
C763 C761 1.381 . S
C763 C762 1.387 . S
C763 H789 0.931 . S
C764 C761 1.487 . S
C764 C771 1.399 1_565 S
C764 N802 1.343 . S
C765 C766 1.384 1_565 S
C765 C767 1.384 . S
C765 H790 0.931 . S
C766 C765 1.384 1_545 S
C766 C769 1.382 . S
C767 C765 1.384 . S
C767 C768 1.381 1_565 S
C767 H791 0.930 . S
C768 C767 1.381 1_545 S
C768 C770 1.381 . S
C768 C771 1.487 . S
C769 C766 1.382 . S
C769 C770 1.387 . S
C769 H792 0.930 . S
C770 C768 1.381 . S
C770 C769 1.387 . S
C770 H793 0.931 . S
C771 C764 1.399 1_545 S
C771 C768 1.487 . S
C771 N803 1.343 . S
C772 C773 1.384 1_565 S
C772 C774 1.384 . S
C772 H794 0.931 . S
C773 C772 1.384 1_545 S
C773 C776 1.382 . S
C774 C772 1.384 . S
C774 C775 1.381 1_565 S
C774 H795 0.930 . S
C775 C774 1.381 1_545 S
C775 C777 1.381 . S
C775 C778 1.487 . S
C776 C773 1.382 . S
C776 C777 1.387 . S
C776 H796 0.930 . S
C777 C775 1.381 . S
C777 C776 1.387 . S
C777 H797 0.931 . S
C778 C775 1.487 . S
C778 C785 1.399 1_545 S
C778 N803 1.343 . S
C779 C780 1.384 1_545 S
C779 C781 1.384 . S
C779 H798 0.931 . S
C780 C779 1.384 1_565 S
C780 C783 1.382 . S
C781 C779 1.384 . S
C781 C782 1.381 1_545 S
C781 H799 0.930 . S
C782 C781 1.381 1_565 S
C782 C784 1.381 . S
C782 C785 1.487 . S
C783 C780 1.382 . S
C783 C784 1.387 . S
C783 H800 0.930 . S
C784 C782 1.381 . S
C784 C783 1.387 . S
C784 H801 0.931 . S
C785 C778 1.399 1_565 S
C785 C782 1.487 . S
C785 N802 1.343 . S
H786 C758 0.931 . S
H787 C760 0.930 . S
H788 C762 0.930 . S
H789 C763 0.931 . S
H790 C765 0.931 . S
H791 C767 0.930 . S
H792 C769 0.930 . S
H793 C770 0.931 . S
H794 C772 0.931 . S
H795 C774 0.930 . S
H796 C776 0.930 . S
H797 C777 0.931 . S
H798 C779 0.931 . S
H799 C781 0.930 . S
H800 C783 0.930 . S
H801 C784 0.931 . S
N802 C764 1.343 . S
N802 C785 1.343 . S
N803 C771 1.343 . S
N803 C778 1.343 . S
C804 C805 1.384 . S
C804 C806 1.384 . S
C804 H832 0.931 . S
C805 C804 1.384 . S
C805 C808 1.382 1_545 S
C806 C804 1.384 . S
C806 C807 1.380 1_545 S
C806 H833 0.930 . S
C807 C806 1.380 1_565 S
C807 C809 1.385 . S
C807 C810 1.496 . S
C808 C805 1.382 1_565 S
C808 C809 1.387 . S
C808 H834 0.930 . S
C809 C807 1.385 . S
C809 C808 1.387 . S
C809 H835 0.931 . S
C810 C807 1.496 . S
C810 C817 1.399 1_565 S
C810 N848 1.332 . S
C811 C812 1.384 . S
C811 C813 1.384 . S
C811 H836 0.931 . S
C812 C811 1.384 . S
C812 C815 1.382 1_565 S
C813 C811 1.384 . S
C813 C814 1.381 . S
C813 H837 0.930 . S
C814 C813 1.381 . S
C814 C816 1.381 1_565 S
C814 C817 1.487 1_565 S
C815 C812 1.382 1_545 S
C815 C816 1.387 . S
C815 H838 0.930 . S
C816 C814 1.381 1_545 S
C816 C815 1.387 . S
C816 H839 0.931 . S
C817 C810 1.399 1_545 S
C817 C814 1.487 1_545 S
C817 N849 1.343 . S
C818 C819 1.384 . S
C818 C820 1.384 . S
C818 H840 0.931 . S
C819 C818 1.384 . S
C819 C822 1.382 1_565 S
C820 C818 1.384 . S
C820 C821 1.379 1_565 S
C820 H841 0.930 . S
C821 C820 1.379 1_545 S
C821 C823 1.390 . S
C821 C824 1.496 . S
C822 C819 1.382 1_545 S
C822 C823 1.387 . S
C822 H842 0.930 . S
C823 C821 1.390 . S
C823 C822 1.387 . S
C823 H843 0.931 . S
C824 C821 1.496 . S
C824 C831 1.399 . S
C824 N849 1.328 . S
C825 C826 1.384 . S
C825 C827 1.384 . S
C825 H844 0.931 . S
C826 C825 1.384 . S
C826 C829 1.382 1_545 S
C827 C825 1.384 . S
C827 C828 1.381 . S
C827 H845 0.930 . S
C828 C827 1.381 . S
C828 C830 1.381 1_545 S
C828 C831 1.487 . S
C829 C826 1.382 1_565 S
C829 C830 1.387 . S
C829 H846 0.930 . S
C830 C828 1.381 1_565 S
C830 C829 1.387 . S
C830 H847 0.931 . S
C831 C824 1.399 . S
C831 C828 1.487 . S
C831 N848 1.343 1_545 S
H832 C804 0.931 . S
H833 C806 0.930 . S
H834 C808 0.930 . S
H835 C809 0.931 . S
H836 C811 0.931 . S
H837 C813 0.930 . S
H838 C815 0.930 . S
H839 C816 0.931 . S
H840 C818 0.931 . S
H841 C820 0.930 . S
H842 C822 0.930 . S
H843 C823 0.931 . S
H844 C825 0.931 . S
H845 C827 0.930 . S
H846 C829 0.930 . S
H847 C830 0.931 . S
N848 C810 1.332 . S
N848 C831 1.343 1_565 S
N849 C817 1.343 . S
N849 C824 1.328 . S
C850 C851 1.384 . S
C850 C852 1.384 . S
C850 H878 0.931 . S
C851 C850 1.384 . S
C851 C854 1.382 1_655 S
C852 C850 1.384 . S
C852 C853 1.381 . S
C852 H879 0.930 . S
C853 C852 1.381 . S
C853 C855 1.381 1_655 S
C853 C856 1.487 . S
C854 C851 1.382 1_455 S
C854 C855 1.387 . S
C854 H880 0.930 . S
C855 C853 1.381 1_455 S
C855 C854 1.387 . S
C855 H881 0.931 . S
C856 C853 1.487 . S
C856 C863 1.399 . S
C856 N894 1.343 1_655 S
C857 C858 1.384 . S
C857 C859 1.384 . S
C857 H882 0.931 . S
C858 C857 1.384 . S
C858 C861 1.382 1_455 S
C859 C857 1.384 . S
C859 C860 1.382 . S
C859 H883 0.930 . S
C860 C859 1.382 . S
C860 C862 1.378 1_455 S
C860 C863 1.499 1_455 S
C861 C858 1.382 1_655 S
C861 C862 1.387 . S
C861 H884 0.930 . S
C862 C860 1.378 1_655 S
C862 C861 1.387 . S
C862 H885 0.931 . S
C863 C856 1.399 . S
C863 C860 1.499 1_655 S
C863 N895 1.334 . S
C864 C865 1.384 . S
C864 C866 1.384 . S
C864 H886 0.931 . S
C865 C864 1.384 . S
C865 C868 1.382 1_455 S
C866 C864 1.384 . S
C866 C867 1.381 . S
C866 H887 0.930 . S
C867 C866 1.381 . S
C867 C869 1.381 1_455 S
C867 C870 1.487 1_455 S
C868 C865 1.382 1_655 S
C868 C869 1.387 . S
C868 H888 0.930 . S
C869 C867 1.381 1_655 S
C869 C868 1.387 . S
C869 H889 0.931 . S
C870 C867 1.487 1_655 S
C870 C877 1.399 1_655 S
C870 N895 1.343 . S
C871 C872 1.384 . S
C871 C873 1.384 . S
C871 H890 0.931 . S
C872 C871 1.384 . S
C872 C875 1.382 1_655 S
C873 C871 1.384 . S
C873 C874 1.384 . S
C873 H891 0.930 . S
C874 C873 1.384 . S
C874 C876 1.372 1_655 S
C874 C877 1.499 1_655 S
C875 C872 1.382 1_455 S
C875 C876 1.387 . S
C875 H892 0.930 . S
C876 C874 1.372 1_455 S
C876 C875 1.387 . S
C876 H893 0.931 . S
C877 C870 1.399 1_455 S
C877 C874 1.499 1_455 S
C877 N894 1.338 . S
H878 C850 0.931 . S
H879 C852 0.930 . S
H880 C854 0.930 . S
H881 C855 0.931 . S
H882 C857 0.931 . S
H883 C859 0.930 . S
H884 C861 0.930 . S
H885 C862 0.931 . S
H886 C864 0.931 . S
H887 C866 0.930 . S
H888 C868 0.930 . S
H889 C869 0.931 . S
H890 C871 0.931 . S
H891 C873 0.930 . S
H892 C875 0.930 . S
H893 C876 0.931 . S
N894 C856 1.343 1_455 S
N894 C877 1.338 . S
N895 C863 1.334 . S
N895 C870 1.343 . S
C896 C897 1.384 . S
C896 C898 1.384 . S
C896 H924 0.931 . S
C897 C896 1.384 . S
C897 C900 1.382 . S
C898 C896 1.384 . S
C898 C899 1.381 . S
C898 H925 0.930 . S
C899 C898 1.381 . S
C899 C901 1.381 . S
C899 C902 1.487 . S
C900 C897 1.382 . S
C900 C901 1.387 . S
C900 H926 0.930 . S
C901 C899 1.381 . S
C901 C900 1.387 . S
C901 H927 0.931 . S
C902 C899 1.487 . S
C902 C909 1.399 . S
C902 N940 1.343 . S
C903 C904 1.384 . S
C903 C905 1.384 . S
C903 H928 0.931 . S
C904 C903 1.384 . S
C904 C907 1.382 . S
C905 C903 1.384 . S
C905 C906 1.381 . S
C905 H929 0.930 . S
C906 C905 1.381 . S
C906 C908 1.381 . S
C906 C909 1.487 . S
C907 C904 1.382 . S
C907 C908 1.387 . S
C907 H930 0.930 . S
C908 C906 1.381 . S
C908 C907 1.387 . S
C908 H931 0.931 . S
C909 C902 1.399 . S
C909 C906 1.487 . S
C909 N941 1.343 . S
C910 C911 1.384 . S
C910 C912 1.384 . S
C910 H932 0.931 . S
C911 C910 1.384 . S
C911 C914 1.382 . S
C912 C910 1.384 . S
C912 C913 1.381 . S
C912 H933 0.930 . S
C913 C912 1.381 . S
C913 C915 1.381 . S
C913 C916 1.487 . S
C914 C911 1.382 . S
C914 C915 1.387 . S
C914 H934 0.930 . S
C915 C913 1.381 . S
C915 C914 1.387 . S
C915 H935 0.931 . S
C916 C913 1.487 . S
C916 C923 1.399 . S
C916 N941 1.343 . S
C917 C918 1.384 . S
C917 C919 1.384 . S
C917 H936 0.931 . S
C918 C917 1.384 . S
C918 C921 1.382 . S
C919 C917 1.384 . S
C919 C920 1.381 . S
C919 H937 0.930 . S
C920 C919 1.381 . S
C920 C922 1.381 . S
C920 C923 1.487 . S
C921 C918 1.382 . S
C921 C922 1.387 . S
C921 H938 0.930 . S
C922 C920 1.381 . S
C922 C921 1.387 . S
C922 H939 0.931 . S
C923 C916 1.399 . S
C923 C920 1.487 . S
C923 N940 1.343 . S
H924 C896 0.931 . S
H925 C898 0.930 . S
H926 C900 0.930 . S
H927 C901 0.931 . S
H928 C903 0.931 . S
H929 C905 0.930 . S
H930 C907 0.930 . S
H931 C908 0.931 . S
H932 C910 0.931 . S
H933 C912 0.930 . S
H934 C914 0.930 . S
H935 C915 0.931 . S
H936 C917 0.931 . S
H937 C919 0.930 . S
H938 C921 0.930 . S
H939 C922 0.931 . S
N940 C902 1.343 . S
N940 C923 1.343 . S
N941 C909 1.343 . S
N941 C916 1.343 . S
C942 C943 1.384 . S
C942 C944 1.384 . S
C942 H970 0.931 . S
C943 C942 1.384 . S
C943 C946 1.382 . S
C944 C942 1.384 . S
C944 C945 1.381 . S
C944 H971 0.930 . S
C945 C944 1.381 . S
C945 C947 1.381 . S
C945 C948 1.487 . S
C946 C943 1.382 . S
C946 C947 1.387 . S
C946 H972 0.930 . S
C947 C945 1.381 . S
C947 C946 1.387 . S
C947 H973 0.931 . S
C948 C945 1.487 . S
C948 C955 1.399 . S
C948 N986 1.343 . S
C949 C950 1.384 . S
C949 C951 1.384 . S
C949 H974 0.931 . S
C950 C949 1.384 . S
C950 C953 1.382 . S
C951 C949 1.384 . S
C951 C952 1.381 . S
C951 H975 0.930 . S
C952 C951 1.381 . S
C952 C954 1.381 . S
C952 C955 1.487 . S
C953 C950 1.382 . S
C953 C954 1.387 . S
C953 H976 0.930 . S
C954 C952 1.381 . S
C954 C953 1.387 . S
C954 H977 0.931 . S
C955 C948 1.399 . S
C955 C952 1.487 . S
C955 N987 1.343 . S
C956 C957 1.384 . S
C956 C958 1.384 . S
C956 H978 0.931 . S
C957 C956 1.384 . S
C957 C960 1.382 . S
C958 C956 1.384 . S
C958 C959 1.381 . S
C958 H979 0.930 . S
C959 C958 1.381 . S
C959 C961 1.381 . S
C959 C962 1.487 . S
C960 C957 1.382 . S
C960 C961 1.387 . S
C960 H980 0.930 . S
C961 C959 1.381 . S
C961 C960 1.387 . S
C961 H981 0.931 . S
C962 C959 1.487 . S
C962 C969 1.399 . S
C962 N987 1.343 . S
C963 C964 1.384 . S
C963 C965 1.384 . S
C963 H982 0.931 . S
C964 C963 1.384 . S
C964 C967 1.382 . S
C965 C963 1.384 . S
C965 C966 1.381 . S
C965 H983 0.930 . S
C966 C965 1.381 . S
C966 C968 1.381 . S
C966 C969 1.487 . S
C967 C964 1.382 . S
C967 C968 1.387 . S
C967 H984 0.930 . S
C968 C966 1.381 . S
C968 C967 1.387 . S
C968 H985 0.931 . S
C969 C962 1.399 . S
C969 C966 1.487 . S
C969 N986 1.343 . S
H970 C942 0.931 . S
H971 C944 0.930 . S
H972 C946 0.930 . S
H973 C947 0.931 . S
H974 C949 0.931 . S
H975 C951 0.930 . S
H976 C953 0.930 . S
H977 C954 0.931 . S
H978 C956 0.931 . S
H979 C958 0.930 . S
H980 C960 0.930 . S
H981 C961 0.931 . S
H982 C963 0.931 . S
H983 C965 0.930 . S
H984 C967 0.930 . S
H985 C968 0.931 . S
N986 C948 1.343 . S
N986 C969 1.343 . S
N987 C955 1.343 . S
N987 C962 1.343 . S
C988 C989 1.384 . S
C988 C990 1.384 . S
C988 H1016 0.931 . S
C989 C988 1.384 . S
C989 C992 1.382 . S
C990 C988 1.384 . S
C990 C991 1.381 . S
C990 H1017 0.930 . S
C991 C990 1.381 . S
C991 C993 1.381 . S
C991 C994 1.487 . S
C992 C989 1.382 . S
C992 C993 1.387 . S
C992 H1018 0.930 . S
C993 C991 1.381 . S
C993 C992 1.387 . S
C993 H1019 0.931 . S
C994 C991 1.487 . S
C994 C1001 1.399 . S
C994 N1032 1.343 . S
C995 C996 1.384 . S
C995 C997 1.384 . S
C995 H1020 0.931 . S
C996 C995 1.384 . S
C996 C999 1.382 . S
C997 C995 1.384 . S
C997 C998 1.381 . S
C997 H1021 0.930 . S
C998 C997 1.381 . S
C998 C1000 1.381 . S
C998 C1001 1.487 . S
C999 C996 1.382 . S
C999 C1000 1.387 . S
C999 H1022 0.930 . S
C1000 C998 1.381 . S
C1000 C999 1.387 . S
C1000 H1023 0.931 . S
C1001 C994 1.399 . S
C1001 C998 1.487 . S
C1001 N1033 1.343 . S
C1002 C1003 1.384 . S
C1002 C1004 1.384 . S
C1002 H1024 0.931 . S
C1003 C1002 1.384 . S
C1003 C1006 1.382 . S
C1004 C1002 1.384 . S
C1004 C1005 1.381 . S
C1004 H1025 0.930 . S
C1005 C1004 1.381 . S
C1005 C1007 1.381 . S
C1005 C1008 1.487 . S
C1006 C1003 1.382 . S
C1006 C1007 1.387 . S
C1006 H1026 0.930 . S
C1007 C1005 1.381 . S
C1007 C1006 1.387 . S
C1007 H1027 0.931 . S
C1008 C1005 1.487 . S
C1008 C1015 1.399 . S
C1008 N1033 1.343 . S
C1009 C1010 1.384 . S
C1009 C1011 1.384 . S
C1009 H1028 0.931 . S
C1010 C1009 1.384 . S
C1010 C1013 1.382 . S
C1011 C1009 1.384 . S
C1011 C1012 1.381 . S
C1011 H1029 0.930 . S
C1012 C1011 1.381 . S
C1012 C1014 1.381 . S
C1012 C1015 1.487 . S
C1013 C1010 1.382 . S
C1013 C1014 1.387 . S
C1013 H1030 0.930 . S
C1014 C1012 1.381 . S
C1014 C1013 1.387 . S
C1014 H1031 0.931 . S
C1015 C1008 1.399 . S
C1015 C1012 1.487 . S
C1015 N1032 1.343 . S
H1016 C988 0.931 . S
H1017 C990 0.930 . S
H1018 C992 0.930 . S
H1019 C993 0.931 . S
H1020 C995 0.931 . S
H1021 C997 0.930 . S
H1022 C999 0.930 . S
H1023 C1000 0.931 . S
H1024 C1002 0.931 . S
H1025 C1004 0.930 . S
H1026 C1006 0.930 . S
H1027 C1007 0.931 . S
H1028 C1009 0.931 . S
H1029 C1011 0.930 . S
H1030 C1013 0.930 . S
H1031 C1014 0.931 . S
N1032 C994 1.343 . S
N1032 C1015 1.343 . S
N1033 C1001 1.343 . S
N1033 C1008 1.343 . S
C1034 C1035 1.384 . S
C1034 C1036 1.384 . S
C1034 H1062 0.931 . S
C1035 C1034 1.384 . S
C1035 C1038 1.382 . S
C1036 C1034 1.384 . S
C1036 C1037 1.381 . S
C1036 H1063 0.930 . S
C1037 C1036 1.381 . S
C1037 C1039 1.381 . S
C1037 C1040 1.487 . S
C1038 C1035 1.382 . S
C1038 C1039 1.387 . S
C1038 H1064 0.930 . S
C1039 C1037 1.381 . S
C1039 C1038 1.387 . S
C1039 H1065 0.931 . S
C1040 C1037 1.487 . S
C1040 C1047 1.399 . S
C1040 N1078 1.343 . S
C1041 C1042 1.384 . S
C1041 C1043 1.384 . S
C1041 H1066 0.931 . S
C1042 C1041 1.384 . S
C1042 C1045 1.382 . S
C1043 C1041 1.384 . S
C1043 C1044 1.381 . S
C1043 H1067 0.930 . S
C1044 C1043 1.381 . S
C1044 C1046 1.381 . S
C1044 C1047 1.487 . S
C1045 C1042 1.382 . S
C1045 C1046 1.387 . S
C1045 H1068 0.930 . S
C1046 C1044 1.381 . S
C1046 C1045 1.387 . S
C1046 H1069 0.931 . S
C1047 C1040 1.399 . S
C1047 C1044 1.487 . S
C1047 N1079 1.343 . S
C1048 C1049 1.384 . S
C1048 C1050 1.384 . S
C1048 H1070 0.931 . S
C1049 C1048 1.384 . S
C1049 C1052 1.382 . S
C1050 C1048 1.384 . S
C1050 C1051 1.381 . S
C1050 H1071 0.930 . S
C1051 C1050 1.381 . S
C1051 C1053 1.381 . S
C1051 C1054 1.487 . S
C1052 C1049 1.382 . S
C1052 C1053 1.387 . S
C1052 H1072 0.930 . S
C1053 C1051 1.381 . S
C1053 C1052 1.387 . S
C1053 H1073 0.931 . S
C1054 C1051 1.487 . S
C1054 C1061 1.399 . S
C1054 N1079 1.343 . S
C1055 C1056 1.384 . S
C1055 C1057 1.384 . S
C1055 H1074 0.931 . S
C1056 C1055 1.384 . S
C1056 C1059 1.382 . S
C1057 C1055 1.384 . S
C1057 C1058 1.381 . S
C1057 H1075 0.930 . S
C1058 C1057 1.381 . S
C1058 C1060 1.381 . S
C1058 C1061 1.487 . S
C1059 C1056 1.382 . S
C1059 C1060 1.387 . S
C1059 H1076 0.930 . S
C1060 C1058 1.381 . S
C1060 C1059 1.387 . S
C1060 H1077 0.931 . S
C1061 C1054 1.399 . S
C1061 C1058 1.487 . S
C1061 N1078 1.343 . S
H1062 C1034 0.931 . S
H1063 C1036 0.930 . S
H1064 C1038 0.930 . S
H1065 C1039 0.931 . S
H1066 C1041 0.931 . S
H1067 C1043 0.930 . S
H1068 C1045 0.930 . S
H1069 C1046 0.931 . S
H1070 C1048 0.931 . S
H1071 C1050 0.930 . S
H1072 C1052 0.930 . S
H1073 C1053 0.931 . S
H1074 C1055 0.931 . S
H1075 C1057 0.930 . S
H1076 C1059 0.930 . S
H1077 C1060 0.931 . S
N1078 C1040 1.343 . S
N1078 C1061 1.343 . S
N1079 C1047 1.343 . S
N1079 C1054 1.343 . S
C13 C688 1.653 . S
C27 C734 1.408 . S
C766 C36 1.411 . S
C41 C819 1.581 . S
C8 C865 1.498 . S
C22 C904 1.596 . S
C55 C858 1.687 . S
C911 C69 1.404 . S
C812 C78 1.421 . S
C83 C773 1.623 . S
C667 C50 1.505 . S
C64 C713 1.558 . S
C97 C943 1.708 . S
C111 C1010 1.510 . S
C1056 C120 1.830 . S
C125 C267 1.524 . S
C92 C313 2.036 . S
C106 C359 1.749 . S
C139 C306 1.597 . S
C153 C352 1.505 . S
C260 C162 1.805 . S
C1035 C167 1.607 . S
C964 C134 2.110 . S
C989 C148 1.803 . S
C181 C391 1.624 . S
C195 C444 1.503 . S
C204 C490 1.847 . S
C209 C536 1.627 . S
C589 C176 2.073 . S
C635 C190 1.812 . S
C582 C223 1.689 . S
C628 C237 1.521 . S
C246 C543 1.875 . S
C497 C251 1.538 . S
C218 C412 2.075 . S
C451 C232 1.788 . S
C274 C11 1.933 . S
C25 C320 1.878 . S
C366 C35 2.046 . S
C398 C39 1.996 . S
C437 C7 2.122 . S
C483 C21 2.015 . S
C53 C504 1.876 . S
C67 C405 1.799 . S
C77 C458 1.999 . S
C81 C299 2.044 . S
C345 C49 2.202 . S
C63 C253 2.072 . S
C529 C95 1.763 . S
C109 C596 1.843 . S
C119 C642 1.961 . S
C681 C123 1.275 . S
C91 C727 1.962 . S
C105 C759 1.260 . S
C137 C780 1.310 . S
C151 C674 1.162 . S
C720 C161 1.815 . S
C165 C575 1.963 . S
C133 C621 2.093 . S
C550 C147 1.988 . S
C826 C179 1.341 . S
C193 C872 1.157 . S
C203 C897 1.765 . S
C950 C207 1.886 . S
C1003 C175 2.094 . S
C189 C1049 2.040 . S
C221 C1042 1.818 . S
C235 C957 1.787 . S
C996 C245 1.938 . S
C851 C249 1.257 . S
C918 C217 1.918 . S
C231 C805 1.345 . S
