# Generated by pormake.
# Topology eea, (3,6)-cn, num edge types: 1
# Building blocks:
#     Node 0, Type 0, BuildingBlock: BELTOD_clean_linker_0, # of connection points: 3
#     Node 1, Type 0, BuildingBlock: BELTOD_clean_linker_0, # of connection points: 3
#     Node 2, Type 0, BuildingBlock: BELTOD_clean_linker_0, # of connection points: 3
#     Node 3, Type 0, BuildingBlock: BELTOD_clean_linker_0, # of connection points: 3
#     Node 4, Type 0, BuildingBlock: BELTOD_clean_linker_0, # of connection points: 3
#     Node 5, Type 0, BuildingBlock: BELTOD_clean_linker_0, # of connection points: 3
#     Node 6, Type 0, BuildingBlock: BELTOD_clean_linker_0, # of connection points: 3
#     Node 7, Type 0, BuildingBlock: BELTOD_clean_linker_0, # of connection points: 3
#     Node 8, Type 0, BuildingBlock: BELTOD_clean_linker_0, # of connection points: 3
#     Node 9, Type 0, BuildingBlock: BELTOD_clean_linker_0, # of connection points: 3
#     Node 10, Type 0, BuildingBlock: BELTOD_clean_linker_0, # of connection points: 3
#     Node 11, Type 0, BuildingBlock: BELTOD_clean_linker_0, # of connection points: 3
#     Node 12, Type 0, BuildingBlock: BELTOD_clean_linker_0, # of connection points: 3
#     Node 13, Type 0, BuildingBlock: BELTOD_clean_linker_0, # of connection points: 3
#     Node 14, Type 0, BuildingBlock: BELTOD_clean_linker_0, # of connection points: 3
#     Node 15, Type 0, BuildingBlock: BELTOD_clean_linker_0, # of connection points: 3
#     Node 16, Type 0, BuildingBlock: BELTOD_clean_linker_0, # of connection points: 3
#     Node 17, Type 0, BuildingBlock: BELTOD_clean_linker_0, # of connection points: 3
#     Node 18, Type 1, BuildingBlock: KUMBOL_clean_sbu_0, # of connection points: 6
#     Node 19, Type 1, BuildingBlock: KUMBOL_clean_sbu_0, # of connection points: 6
#     Node 20, Type 1, BuildingBlock: KUMBOL_clean_sbu_0, # of connection points: 6
#     Node 21, Type 1, BuildingBlock: KUMBOL_clean_sbu_0, # of connection points: 6
#     Node 22, Type 1, BuildingBlock: KUMBOL_clean_sbu_0, # of connection points: 6
#     Node 23, Type 1, BuildingBlock: KUMBOL_clean_sbu_0, # of connection points: 6
#     Node 24, Type 1, BuildingBlock: KUMBOL_clean_sbu_0, # of connection points: 6
#     Node 25, Type 1, BuildingBlock: KUMBOL_clean_sbu_0, # of connection points: 6
#     Node 26, Type 1, BuildingBlock: KUMBOL_clean_sbu_0, # of connection points: 6
#     Edge 27, Type (0, 1), BuildingBlock: AJUNOK_clean_linker_0, # of connection points: 2
#     Edge 28, Type (0, 1), BuildingBlock: AJUNOK_clean_linker_0, # of connection points: 2
#     Edge 29, Type (0, 1), BuildingBlock: AJUNOK_clean_linker_0, # of connection points: 2
#     Edge 30, Type (0, 1), BuildingBlock: AJUNOK_clean_linker_0, # of connection points: 2
#     Edge 31, Type (0, 1), BuildingBlock: AJUNOK_clean_linker_0, # of connection points: 2
#     Edge 32, Type (0, 1), BuildingBlock: AJUNOK_clean_linker_0, # of connection points: 2
#     Edge 33, Type (0, 1), BuildingBlock: AJUNOK_clean_linker_0, # of connection points: 2
#     Edge 34, Type (0, 1), BuildingBlock: AJUNOK_clean_linker_0, # of connection points: 2
#     Edge 35, Type (0, 1), BuildingBlock: AJUNOK_clean_linker_0, # of connection points: 2
#     Edge 36, Type (0, 1), BuildingBlock: AJUNOK_clean_linker_0, # of connection points: 2
#     Edge 37, Type (0, 1), BuildingBlock: AJUNOK_clean_linker_0, # of connection points: 2
#     Edge 38, Type (0, 1), BuildingBlock: AJUNOK_clean_linker_0, # of connection points: 2
#     Edge 39, Type (0, 1), BuildingBlock: AJUNOK_clean_linker_0, # of connection points: 2
#     Edge 40, Type (0, 1), BuildingBlock: AJUNOK_clean_linker_0, # of connection points: 2
#     Edge 41, Type (0, 1), BuildingBlock: AJUNOK_clean_linker_0, # of connection points: 2
#     Edge 42, Type (0, 1), BuildingBlock: AJUNOK_clean_linker_0, # of connection points: 2
#     Edge 43, Type (0, 1), BuildingBlock: AJUNOK_clean_linker_0, # of connection points: 2
#     Edge 44, Type (0, 1), BuildingBlock: AJUNOK_clean_linker_0, # of connection points: 2
#     Edge 45, Type (0, 1), BuildingBlock: AJUNOK_clean_linker_0, # of connection points: 2
#     Edge 46, Type (0, 1), BuildingBlock: AJUNOK_clean_linker_0, # of connection points: 2
#     Edge 47, Type (0, 1), BuildingBlock: AJUNOK_clean_linker_0, # of connection points: 2
#     Edge 48, Type (0, 1), BuildingBlock: AJUNOK_clean_linker_0, # of connection points: 2
#     Edge 49, Type (0, 1), BuildingBlock: AJUNOK_clean_linker_0, # of connection points: 2
#     Edge 50, Type (0, 1), BuildingBlock: AJUNOK_clean_linker_0, # of connection points: 2
#     Edge 51, Type (0, 1), BuildingBlock: AJUNOK_clean_linker_0, # of connection points: 2
#     Edge 52, Type (0, 1), BuildingBlock: AJUNOK_clean_linker_0, # of connection points: 2
#     Edge 53, Type (0, 1), BuildingBlock: AJUNOK_clean_linker_0, # of connection points: 2
#     Edge 54, Type (0, 1), BuildingBlock: AJUNOK_clean_linker_0, # of connection points: 2
#     Edge 55, Type (0, 1), BuildingBlock: AJUNOK_clean_linker_0, # of connection points: 2
#     Edge 56, Type (0, 1), BuildingBlock: AJUNOK_clean_linker_0, # of connection points: 2
#     Edge 57, Type (0, 1), BuildingBlock: AJUNOK_clean_linker_0, # of connection points: 2
#     Edge 58, Type (0, 1), BuildingBlock: AJUNOK_clean_linker_0, # of connection points: 2
#     Edge 59, Type (0, 1), BuildingBlock: AJUNOK_clean_linker_0, # of connection points: 2
#     Edge 60, Type (0, 1), BuildingBlock: AJUNOK_clean_linker_0, # of connection points: 2
#     Edge 61, Type (0, 1), BuildingBlock: AJUNOK_clean_linker_0, # of connection points: 2
#     Edge 62, Type (0, 1), BuildingBlock: AJUNOK_clean_linker_0, # of connection points: 2
#     Edge 63, Type (0, 1), BuildingBlock: AJUNOK_clean_linker_0, # of connection points: 2
#     Edge 64, Type (0, 1), BuildingBlock: AJUNOK_clean_linker_0, # of connection points: 2
#     Edge 65, Type (0, 1), BuildingBlock: AJUNOK_clean_linker_0, # of connection points: 2
#     Edge 66, Type (0, 1), BuildingBlock: AJUNOK_clean_linker_0, # of connection points: 2
#     Edge 67, Type (0, 1), BuildingBlock: AJUNOK_clean_linker_0, # of connection points: 2
#     Edge 68, Type (0, 1), BuildingBlock: AJUNOK_clean_linker_0, # of connection points: 2
#     Edge 69, Type (0, 1), BuildingBlock: AJUNOK_clean_linker_0, # of connection points: 2
#     Edge 70, Type (0, 1), BuildingBlock: AJUNOK_clean_linker_0, # of connection points: 2
#     Edge 71, Type (0, 1), BuildingBlock: AJUNOK_clean_linker_0, # of connection points: 2
#     Edge 72, Type (0, 1), BuildingBlock: AJUNOK_clean_linker_0, # of connection points: 2
#     Edge 73, Type (0, 1), BuildingBlock: AJUNOK_clean_linker_0, # of connection points: 2
#     Edge 74, Type (0, 1), BuildingBlock: AJUNOK_clean_linker_0, # of connection points: 2
#     Edge 75, Type (0, 1), BuildingBlock: AJUNOK_clean_linker_0, # of connection points: 2
#     Edge 76, Type (0, 1), BuildingBlock: AJUNOK_clean_linker_0, # of connection points: 2
#     Edge 77, Type (0, 1), BuildingBlock: AJUNOK_clean_linker_0, # of connection points: 2
#     Edge 78, Type (0, 1), BuildingBlock: AJUNOK_clean_linker_0, # of connection points: 2
#     Edge 79, Type (0, 1), BuildingBlock: AJUNOK_clean_linker_0, # of connection points: 2
#     Edge 80, Type (0, 1), BuildingBlock: AJUNOK_clean_linker_0, # of connection points: 2
# Relax obj value: 0.007
# Max RMSD: 0.089
# Mean RMSD: 0.079
data_MOF--net-eea--node1-KUMBOL_clean_sbu_0--node2-BELTOD_clean_linker_0--edge1-AJUNOK_clean_linker_0
_symmetry_space_group_name_H-M    P1
_symmetry_Int_Tables_number       1
_symmetry_cell_setting            triclinic
loop_
_symmetry_equiv_pos_as_xyz
'x, y, z'
_cell_length_a     44.514431
_cell_length_b     45.528523
_cell_length_c     65.652972
_cell_angle_alpha  90.548337
_cell_angle_beta   89.919793
_cell_angle_gamma 120.02606
loop_
_atom_site_label
_atom_site_type_symbol
_atom_site_fract_x
_atom_site_fract_y
_atom_site_fract_z
_atom_type_partial_charge
P0 P 0.29734 0.14904 0.41083 0.0
H1 H 0.32308 0.11103 0.38772 0.0
H2 H 0.29492 0.05354 0.37374 0.0
H3 H 0.19609 0.03622 0.39601 0.0
H4 H 0.22467 0.09368 0.41058 0.0
H5 H 0.31685 0.20152 0.38027 0.0
H6 H 0.28895 0.23206 0.36762 0.0
H7 H 0.20299 0.17611 0.40849 0.0
H8 H 0.23247 0.1472 0.42217 0.0
H9 H 0.28292 0.0952 0.44033 0.0
H10 H 0.31798 0.20231 0.44138 0.0
O11 O 0.33845 0.16938 0.40292 0.0
H12 H 0.2947 0.09724 0.47679 0.0
H13 H 0.33102 0.20478 0.4777 0.0
C14 C 0.2759 0.10692 0.3999 0.0
C15 C 0.2953 0.09509 0.38945 0.0
C16 C 0.27912 0.06226 0.38129 0.0
C17 C 0.24315 0.04065 0.38336 0.0
C18 C 0.22379 0.05245 0.39403 0.0
C19 C 0.24007 0.08534 0.40225 0.0
C20 C 0.27666 0.17197 0.4021 0.0
C21 C 0.2921 0.19589 0.38663 0.0
C22 C 0.27581 0.213 0.37916 0.0
C23 C 0.24321 0.20581 0.38661 0.0
C24 C 0.22798 0.18206 0.40234 0.0
C25 C 0.24467 0.16537 0.41007 0.0
C26 C 0.29899 0.14853 0.4382 0.0
C27 C 0.29236 0.11901 0.44846 0.0
C28 C 0.29936 0.12025 0.4693 0.0
C29 C 0.31355 0.15111 0.4802 0.0
C30 C 0.31925 0.18043 0.46993 0.0
C31 C 0.31197 0.1791 0.44913 0.0
P32 P 0.9125 0.10655 0.43733 0.0
H33 H 0.90339 0.04154 0.42385 0.0
H34 H 0.85839 0.99414 0.40462 0.0
H35 H 0.80298 0.04875 0.39741 0.0
H36 H 0.84789 0.09611 0.41772 0.0
H37 H 0.98787 0.14651 0.43953 0.0
H38 H 0.0317 0.19183 0.41877 0.0
H39 H 0.95136 0.18751 0.37998 0.0
H40 H 0.90713 0.14155 0.40088 0.0
H41 H 0.89919 0.092 0.48056 0.0
H42 H 0.88689 0.15533 0.4368 0.0
O43 O 0.93368 0.09032 0.44959 0.0
H44 H 0.87942 0.11522 0.50765 0.0
H45 H 0.86636 0.17838 0.46411 0.0
C46 C 0.87899 0.07238 0.42237 0.0
C47 C 0.88162 0.04351 0.41823 0.0
C48 C 0.85597 0.01644 0.40697 0.0
C49 C 0.8274 0.01789 0.39909 0.0
C50 C 0.82472 0.04691 0.40324 0.0
C51 C 0.8504 0.07401 0.41476 0.0
C52 C 0.94416 0.14026 0.42164 0.0
C53 C 0.9795 0.15497 0.42649 0.0
C54 C 0.00462 0.18085 0.41456 0.0
C55 C 0.99497 0.19303 0.3977 0.0
C56 C 0.9595 0.1786 0.39293 0.0
C57 C 0.93425 0.15234 0.40483 0.0
C58 C 0.89507 0.1223 0.45666 0.0
C59 C 0.89216 0.11085 0.47672 0.0
C60 C 0.88085 0.12413 0.49224 0.0
C61 C 0.87158 0.14872 0.48799 0.0
C62 C 0.87328 0.15937 0.46776 0.0
C63 C 0.88507 0.1463 0.45219 0.0
P64 P 0.86855 0.73182 0.41314 0.0
H65 H 0.81967 0.71061 0.37902 0.0
H66 H 0.78005 0.72918 0.36692 0.0
H67 H 0.82099 0.80968 0.41199 0.0
H68 H 0.86123 0.79123 0.42388 0.0
H69 H 0.89995 0.71757 0.37813 0.0
H70 H 0.95967 0.74206 0.3661 0.0
H71 H 0.99409 0.81752 0.4141 0.0
H72 H 0.93392 0.79279 0.42614 0.0
H73 H 0.81802 0.72925 0.44309 0.0
H74 H 0.91205 0.72405 0.44366 0.0
O75 O 0.84997 0.69149 0.40525 0.0
H76 H 0.80891 0.71408 0.47901 0.0
H77 H 0.90234 0.70749 0.47943 0.0
C78 C 0.84301 0.74911 0.40266 0.0
C79 C 0.82047 0.73247 0.38623 0.0
C80 C 0.79769 0.74305 0.37932 0.0
C81 C 0.79712 0.77075 0.38855 0.0
C82 C 0.82095 0.78845 0.4044 0.0
C83 C 0.84386 0.77783 0.41129 0.0
C84 C 0.91247 0.75294 0.40329 0.0
C85 C 0.92023 0.7395 0.38605 0.0
C86 C 0.95442 0.75349 0.37917 0.0
C87 C 0.98166 0.78162 0.38917 0.0
C88 C 0.97365 0.79602 0.40594 0.0
C89 C 0.93931 0.78182 0.41292 0.0
C90 C 0.86648 0.72912 0.44071 0.0
C91 C 0.83743 0.72604 0.45106 0.0
C92 C 0.83195 0.71685 0.47162 0.0
C93 C 0.85501 0.70979 0.48228 0.0
C94 C 0.88454 0.71365 0.47198 0.0
C95 C 0.89013 0.72312 0.45143 0.0
P96 P 0.13813 0.26789 0.61514 0.0
H97 H 0.11231 0.27254 0.65524 0.0
H98 H 0.05381 0.24978 0.66924 0.0
H99 H 0.01039 0.19421 0.61318 0.0
H100 H 0.06905 0.21694 0.59928 0.0
H101 H 0.20736 0.28395 0.60306 0.0
H102 H 0.24774 0.26665 0.61529 0.0
H103 H 0.17136 0.19958 0.65838 0.0
H104 H 0.13008 0.21598 0.6453 0.0
H105 H 0.11886 0.3078 0.58949 0.0
H106 H 0.15533 0.23705 0.58011 0.0
O107 O 0.15783 0.3075 0.62434 0.0
H108 H 0.12667 0.32158 0.5532 0.0
H109 H 0.16397 0.2514 0.54386 0.0
C110 C 0.09506 0.24685 0.62609 0.0
C111 C 0.09022 0.25525 0.646 0.0
C112 C 0.05677 0.24241 0.65396 0.0
C113 C 0.02745 0.2207 0.64219 0.0
C114 C 0.03247 0.21097 0.62261 0.0
C115 C 0.06598 0.22397 0.61462 0.0
C116 C 0.16537 0.2508 0.6229 0.0
C117 C 0.19888 0.26494 0.61482 0.0
C118 C 0.22222 0.25542 0.62209 0.0
C119 C 0.21307 0.23225 0.63813 0.0
C120 C 0.17919 0.21749 0.64602 0.0
C121 C 0.15557 0.22684 0.63853 0.0
C122 C 0.1372 0.27195 0.58768 0.0
C123 C 0.128 0.29479 0.57958 0.0
C124 C 0.13236 0.30258 0.55879 0.0
C125 C 0.14611 0.2877 0.54567 0.0
C126 C 0.15357 0.26345 0.55363 0.0
C127 C 0.14872 0.25531 0.57439 0.0
P128 P 0.79247 0.89565 0.59467 0.0
H129 H 0.84636 0.94635 0.62077 0.0
H130 H 0.84908 0.99153 0.64252 0.0
H131 H 0.7408 0.9556 0.63046 0.0
H132 H 0.7381 0.91006 0.60872 0.0
H133 H 0.79415 0.83646 0.5793 0.0
H134 H 0.79642 0.78995 0.59632 0.0
H135 H 0.78497 0.82792 0.65459 0.0
H136 H 0.78237 0.87413 0.63758 0.0
H137 H 0.78679 0.9382 0.56429 0.0
H138 H 0.72947 0.83273 0.58099 0.0
O139 O 0.83134 0.91429 0.58356 0.0
H140 H 0.74839 0.92627 0.53498 0.0
H141 H 0.69096 0.82065 0.55159 0.0
C142 C 0.79234 0.92562 0.61268 0.0
C143 C 0.82308 0.94791 0.62299 0.0
C144 C 0.82455 0.9735 0.63551 0.0
C145 C 0.79517 0.97701 0.63809 0.0
C146 C 0.7637 0.95319 0.62887 0.0
C147 C 0.76227 0.9275 0.61626 0.0
C148 C 0.78785 0.8586 0.60713 0.0
C149 C 0.79129 0.83429 0.5957 0.0
C150 C 0.79254 0.80775 0.60541 0.0
C151 C 0.79072 0.80538 0.62673 0.0
C152 C 0.78642 0.82928 0.63812 0.0
C153 C 0.78484 0.85563 0.62838 0.0
C154 C 0.76119 0.88636 0.57469 0.0
C155 C 0.76566 0.91255 0.56177 0.0
C156 C 0.74361 0.90575 0.5451 0.0
C157 C 0.7166 0.87256 0.54109 0.0
C158 C 0.71167 0.84643 0.55433 0.0
C159 C 0.73368 0.85332 0.57112 0.0
P160 P 0.1355 0.85428 0.61776 0.0
H161 H 0.18648 0.88867 0.65001 0.0
H162 H 0.21925 0.94769 0.66137 0.0
H163 H 0.16613 0.97467 0.61682 0.0
H164 H 0.13277 0.91499 0.60563 0.0
H165 H 0.11341 0.82579 0.65794 0.0
H166 H 0.05637 0.79106 0.6734 0.0
H167 H 0.00758 0.80082 0.61912 0.0
H168 H 0.06502 0.83651 0.60387 0.0
H169 H 0.18235 0.89931 0.58643 0.0
H170 H 0.09133 0.79989 0.58895 0.0
O171 O 0.15739 0.83583 0.62611 0.0
H172 H 0.18999 0.88997 0.55062 0.0
H173 H 0.09825 0.79081 0.55286 0.0
C174 C 0.15783 0.89765 0.62664 0.0
C175 C 0.18175 0.90717 0.64267 0.0
C176 C 0.20046 0.94092 0.64919 0.0
C177 C 0.19538 0.96579 0.63992 0.0
C178 C 0.17036 0.95598 0.62436 0.0
C179 C 0.15154 0.92203 0.61784 0.0
C180 C 0.0933 0.83249 0.62945 0.0
C181 C 0.09047 0.8207 0.6494 0.0
C182 C 0.05792 0.80092 0.65824 0.0
C183 C 0.0276 0.79262 0.64726 0.0
C184 C 0.03058 0.80669 0.62786 0.0
C185 C 0.0633 0.82672 0.61905 0.0
C186 C 0.13559 0.85076 0.59032 0.0
C187 C 0.16318 0.87597 0.57913 0.0
C188 C 0.16765 0.87054 0.55861 0.0
C189 C 0.14493 0.83952 0.54892 0.0
C190 C 0.11652 0.81478 0.55995 0.0
C191 C 0.11219 0.82019 0.58053 0.0
P192 P 0.98233 0.48863 0.73897 0.0
H193 H 0.95025 0.45803 0.69999 0.0
H194 H 0.91991 0.39921 0.68733 0.0
H195 H 0.93491 0.3655 0.74573 0.0
H196 H 0.96447 0.42387 0.75837 0.0
H197 H 0.00508 0.55857 0.72848 0.0
H198 H 0.97393 0.58799 0.71919 0.0
H199 H 0.87628 0.49545 0.72745 0.0
H200 H 0.90776 0.46586 0.73652 0.0
H201 H 0.04304 0.4988 0.76171 0.0
H202 H 0.94134 0.48312 0.77547 0.0
O203 O 0.01985 0.50767 0.72638 0.0
H204 H 0.05569 0.50102 0.79804 0.0
H205 H 0.95367 0.48473 0.81205 0.0
C206 C 0.95896 0.44524 0.73022 0.0
C207 C 0.94662 0.43787 0.71011 0.0
C208 C 0.92952 0.40438 0.70286 0.0
C209 C 0.9246 0.3778 0.71565 0.0
C210 C 0.93756 0.3854 0.7357 0.0
C211 C 0.95458 0.41884 0.74292 0.0
C212 C 0.95874 0.50999 0.73291 0.0
C213 C 0.97699 0.54457 0.72829 0.0
C214 C 0.95915 0.56139 0.72311 0.0
C215 C 0.92268 0.54402 0.72273 0.0
C216 C 0.90439 0.50936 0.72753 0.0
C217 C 0.92233 0.49251 0.73274 0.0
C218 C 0.99157 0.49158 0.76589 0.0
C219 C 0.02352 0.49613 0.77256 0.0
C220 C 0.03062 0.49713 0.79334 0.0
C221 C 0.0058 0.49336 0.80792 0.0
C222 C 0.97357 0.48841 0.80119 0.0
C223 C 0.96648 0.48741 0.78032 0.0
P224 P 0.58456 0.43657 0.77148 0.0
H225 H 0.57386 0.37065 0.75807 0.0
H226 H 0.52665 0.32304 0.73979 0.0
H227 H 0.4749 0.38117 0.73245 0.0
H228 H 0.52171 0.42833 0.7516 0.0
H229 H 0.66004 0.47636 0.77342 0.0
H230 H 0.70363 0.52137 0.75231 0.0
H231 H 0.62273 0.51501 0.7131 0.0
H232 H 0.57895 0.47011 0.73457 0.0
H233 H 0.52389 0.4016 0.79724 0.0
H234 H 0.60433 0.50496 0.78714 0.0
O235 O 0.60465 0.42036 0.78481 0.0
H236 H 0.50045 0.42052 0.82476 0.0
H237 H 0.58054 0.52419 0.81457 0.0
C238 C 0.55103 0.40282 0.75642 0.0
C239 C 0.55235 0.37317 0.75258 0.0
C240 C 0.5254 0.34601 0.74203 0.0
C241 C 0.49674 0.34811 0.73493 0.0
C242 C 0.49613 0.3784 0.73819 0.0
C243 C 0.52303 0.40549 0.74893 0.0
C244 C 0.61623 0.46955 0.75545 0.0
C245 C 0.65158 0.48442 0.76023 0.0
C246 C 0.67653 0.51006 0.74808 0.0
C247 C 0.66662 0.52163 0.731 0.0
C248 C 0.63112 0.50676 0.72625 0.0
C249 C 0.6061 0.481 0.73845 0.0
C250 C 0.56533 0.45192 0.7898 0.0
C251 C 0.536 0.42849 0.80061 0.0
C252 C 0.52254 0.43935 0.81631 0.0
C253 C 0.53828 0.47393 0.82159 0.0
C254 C 0.56776 0.49741 0.81074 0.0
C255 C 0.58122 0.48647 0.79498 0.0
P256 P 0.53268 0.0662 0.74413 0.0
H257 H 0.48899 0.04747 0.70779 0.0
H258 H 0.45005 0.06579 0.69425 0.0
H259 H 0.48285 0.14213 0.74167 0.0
H260 H 0.52317 0.12454 0.7547 0.0
H261 H 0.5612 0.0585 0.70586 0.0
H262 H 0.62019 0.08381 0.69235 0.0
H263 H 0.65959 0.14577 0.74669 0.0
H264 H 0.60029 0.12068 0.76 0.0
H265 H 0.48428 0.06898 0.77394 0.0
H266 H 0.57208 0.0533 0.77502 0.0
O267 O 0.51432 0.02589 0.73625 0.0
H268 H 0.4738 0.05457 0.80978 0.0
H269 H 0.56019 0.03653 0.81078 0.0
C270 C 0.50792 0.08365 0.73282 0.0
C271 C 0.48804 0.06828 0.71527 0.0
C272 C 0.46561 0.07867 0.70757 0.0
C273 C 0.46235 0.10455 0.71734 0.0
C274 C 0.48439 0.12179 0.73396 0.0
C275 C 0.50726 0.11161 0.74151 0.0
C276 C 0.57638 0.08725 0.73411 0.0
C277 C 0.5825 0.07766 0.71485 0.0
C278 C 0.61624 0.09209 0.70713 0.0
C279 C 0.64462 0.11681 0.7184 0.0
C280 C 0.63827 0.12714 0.73748 0.0
C281 C 0.60441 0.11262 0.74521 0.0
C282 C 0.52982 0.06348 0.77173 0.0
C283 C 0.50205 0.06346 0.78194 0.0
C284 C 0.49551 0.05436 0.80247 0.0
C285 C 0.51564 0.04358 0.81315 0.0
C286 C 0.54424 0.04482 0.80313 0.0
C287 C 0.55113 0.05453 0.78263 0.0
P288 P 0.80648 0.60458 0.94981 0.0
H289 H 0.78188 0.60935 0.98998 0.0
H290 H 0.72407 0.58951 1.00415 0.0
H291 H 0.67801 0.53733 0.94754 0.0
H292 H 0.73606 0.55656 0.93361 0.0
H293 H 0.85351 0.6222 0.98453 0.0
H294 H 0.89159 0.60157 0.99618 0.0
H295 H 0.85077 0.52421 0.94912 0.0
H296 H 0.81151 0.54424 0.93804 0.0
H297 H 0.76732 0.62001 0.92008 0.0
H298 H 0.85279 0.60073 0.91898 0.0
O299 O 0.82667 0.64481 0.95799 0.0
H300 H 0.77779 0.63657 0.88426 0.0
H301 H 0.86227 0.6157 0.88315 0.0
C302 C 0.76334 0.58509 0.96058 0.0
C303 C 0.75934 0.59323 0.98069 0.0
C304 C 0.72629 0.58196 0.98878 0.0
C305 C 0.69641 0.56202 0.97696 0.0
C306 C 0.70045 0.55236 0.95714 0.0
C307 C 0.73366 0.56362 0.94906 0.0
C308 C 0.83041 0.58544 0.95998 0.0
C309 C 0.85237 0.60053 0.97683 0.0
C310 C 0.87424 0.58875 0.98348 0.0
C311 C 0.87462 0.56151 0.97345 0.0
C312 C 0.85099 0.54505 0.95733 0.0
C313 C 0.82874 0.55667 0.95084 0.0
C314 C 0.80835 0.60782 0.92224 0.0
C315 C 0.78739 0.61793 0.91198 0.0
C316 C 0.79351 0.62758 0.89148 0.0
C317 C 0.82114 0.62786 0.88087 0.0
C318 C 0.84115 0.61636 0.89094 0.0
C319 C 0.83522 0.60705 0.91145 0.0
P320 P 0.46667 0.23633 0.92625 0.0
H321 H 0.47695 0.25158 0.97017 0.0
H322 H 0.47605 0.29652 0.99067 0.0
H323 H 0.43652 0.32444 0.93887 0.0
H324 H 0.43802 0.28026 0.91843 0.0
H325 H 0.5221 0.22128 0.93386 0.0
H326 H 0.52404 0.17562 0.95175 0.0
H327 H 0.4153 0.131 0.96628 0.0
H328 H 0.41336 0.17693 0.94799 0.0
H329 H 0.47726 0.22939 0.88303 0.0
H330 H 0.39107 0.20702 0.92254 0.0
O331 O 0.50628 0.26224 0.91714 0.0
H332 H 0.43895 0.21332 0.85339 0.0
H333 H 0.35251 0.19128 0.89273 0.0
C334 C 0.45684 0.26205 0.94286 0.0
C335 C 0.46688 0.26655 0.96345 0.0
C336 C 0.46629 0.29215 0.97518 0.0
C337 C 0.45606 0.31376 0.96634 0.0
C338 C 0.44433 0.30796 0.94605 0.0
C339 C 0.445 0.28255 0.93439 0.0
C340 C 0.46751 0.20237 0.93951 0.0
C341 C 0.49858 0.20171 0.94082 0.0
C342 C 0.49974 0.17566 0.95113 0.0
C343 C 0.4698 0.1497 0.96032 0.0
C344 C 0.43863 0.15044 0.95907 0.0
C345 C 0.43752 0.17666 0.94872 0.0
C346 C 0.43714 0.22018 0.90493 0.0
C347 C 0.45006 0.22097 0.88534 0.0
C348 C 0.4282 0.21197 0.86839 0.0
C349 C 0.39298 0.20194 0.87074 0.0
C350 C 0.37963 0.19923 0.8905 0.0
C351 C 0.4016 0.20823 0.9075 0.0
P352 P 0.8018 0.18716 0.94754 0.0
H353 H 0.82173 0.22114 0.98697 0.0
H354 H 0.85418 0.28107 0.99722 0.0
H355 H 0.85785 0.31019 0.93452 0.0
H356 H 0.82472 0.2502 0.92432 0.0
H357 H 0.75112 0.11591 0.94209 0.0
H358 H 0.69411 0.079 0.95656 0.0
H359 H 0.69992 0.16425 0.98957 0.0
H360 H 0.75612 0.20168 0.97379 0.0
H361 H 0.86215 0.20669 0.92204 0.0
H362 H 0.7513 0.15698 0.91334 0.0
O363 O 0.82487 0.17252 0.95921 0.0
H364 H 0.86923 0.19508 0.88634 0.0
H365 H 0.75828 0.14449 0.87779 0.0
C366 C 0.82109 0.23121 0.95489 0.0
C367 C 0.82896 0.24041 0.97547 0.0
C368 C 0.84737 0.27457 0.98132 0.0
C369 C 0.85865 0.30008 0.96662 0.0
C370 C 0.8496 0.29088 0.94609 0.0
C371 C 0.83072 0.25664 0.94027 0.0
C372 C 0.75789 0.16163 0.95663 0.0
C373 C 0.73992 0.12685 0.95214 0.0
C374 C 0.70757 0.10563 0.96079 0.0
C375 C 0.69293 0.11847 0.9748 0.0
C376 C 0.71061 0.15353 0.97897 0.0
C377 C 0.74284 0.17495 0.96995 0.0
C378 C 0.80618 0.18209 0.92052 0.0
C379 C 0.83935 0.19345 0.91243 0.0
C380 C 0.84339 0.18688 0.89205 0.0
C381 C 0.81426 0.16846 0.87944 0.0
C382 C 0.78111 0.15828 0.88732 0.0
C383 C 0.77713 0.16536 0.90765 0.0
P384 P 0.64201 0.82166 0.07787 0.0
H385 H 0.65637 0.78607 0.04534 0.0
H386 H 0.62562 0.72717 0.03336 0.0
H387 H 0.54363 0.70457 0.07649 0.0
H388 H 0.57532 0.76313 0.08907 0.0
H389 H 0.66467 0.87897 0.05029 0.0
H390 H 0.63587 0.90865 0.03706 0.0
H391 H 0.54448 0.84347 0.07193 0.0
H392 H 0.57363 0.8142 0.08554 0.0
H393 H 0.64267 0.77357 0.10674 0.0
H394 H 0.6502 0.87178 0.109 0.0
O395 O 0.68255 0.8401 0.06906 0.0
H396 H 0.65373 0.77691 0.14332 0.0
H397 H 0.66153 0.87527 0.14579 0.0
C398 C 0.61832 0.77883 0.06826 0.0
C399 C 0.63184 0.76845 0.05227 0.0
C400 C 0.61413 0.73484 0.04533 0.0
C401 C 0.58247 0.71117 0.05419 0.0
C402 C 0.56837 0.72204 0.06971 0.0
C403 C 0.58626 0.75558 0.07675 0.0
C404 C 0.62125 0.84431 0.06887 0.0
C405 C 0.63851 0.87108 0.05518 0.0
C406 C 0.62205 0.88797 0.04758 0.0
C407 C 0.5879 0.87799 0.05332 0.0
C408 C 0.57063 0.85119 0.06704 0.0
C409 C 0.5873 0.83457 0.07485 0.0
C410 C 0.64475 0.82206 0.10522 0.0
C411 C 0.6458 0.79548 0.11518 0.0
C412 C 0.65221 0.79742 0.13609 0.0
C413 C 0.65848 0.82634 0.14734 0.0
C414 C 0.65692 0.85277 0.13742 0.0
C415 C 0.65021 0.85067 0.11647 0.0
P416 P 0.2486 0.77235 0.10027 0.0
H417 H 0.19433 0.76671 0.07241 0.0
H418 H 0.14692 0.71813 0.05431 0.0
H419 H 0.17832 0.65164 0.08144 0.0
H420 H 0.22535 0.69996 0.09945 0.0
H421 H 0.2681 0.77564 0.05752 0.0
H422 H 0.31067 0.82235 0.03665 0.0
H423 H 0.32793 0.89279 0.08578 0.0
H424 H 0.28535 0.84616 0.10655 0.0
H425 H 0.25409 0.76495 0.14408 0.0
H426 H 0.20508 0.80372 0.10448 0.0
O427 O 0.27632 0.76043 0.10848 0.0
H428 H 0.23071 0.77923 0.17378 0.0
H429 H 0.18074 0.81735 0.13427 0.0
C430 C 0.21355 0.73697 0.08707 0.0
C431 C 0.19087 0.74164 0.07449 0.0
C432 C 0.16377 0.71391 0.06425 0.0
C433 C 0.15901 0.68117 0.06651 0.0
C434 C 0.1816 0.67665 0.07931 0.0
C435 C 0.20847 0.70426 0.0896 0.0
C436 C 0.27301 0.80747 0.08346 0.0
C437 C 0.28023 0.80127 0.06358 0.0
C438 C 0.30473 0.8279 0.05171 0.0
C439 C 0.32267 0.86112 0.05965 0.0
C440 C 0.3142 0.86748 0.07921 0.0
C441 C 0.28981 0.84082 0.09109 0.0
C442 C 0.23163 0.78362 0.12206 0.0
C443 C 0.23836 0.77663 0.14175 0.0
C444 C 0.22481 0.78463 0.15874 0.0
C445 C 0.20413 0.79968 0.15639 0.0
C446 C 0.19717 0.8064 0.1366 0.0
C447 C 0.21083 0.79842 0.11957 0.0
P448 P 0.20256 0.40614 0.07866 0.0
H449 H 0.16924 0.39522 0.03892 0.0
H450 H 0.12951 0.41224 0.02461 0.0
H451 H 0.14335 0.4736 0.0781 0.0
H452 H 0.18331 0.45656 0.09241 0.0
H453 H 0.25825 0.39291 0.0887 0.0
H454 H 0.31736 0.41564 0.07657 0.0
H455 H 0.3037 0.48263 0.03632 0.0
H456 H 0.24511 0.46151 0.04987 0.0
H457 H 0.14017 0.37644 0.10331 0.0
H458 H 0.25048 0.42797 0.11453 0.0
O459 O 0.18444 0.36615 0.07022 0.0
H460 H 0.12945 0.36213 0.13946 0.0
H461 H 0.23972 0.41226 0.15048 0.0
C462 C 0.17858 0.42398 0.06694 0.0
C463 C 0.16408 0.41265 0.0475 0.0
C464 C 0.14135 0.42232 0.03934 0.0
C465 C 0.13287 0.4437 0.05043 0.0
C466 C 0.14935 0.45697 0.06928 0.0
C467 C 0.17206 0.44715 0.07749 0.0
C468 C 0.24744 0.42609 0.07069 0.0
C469 C 0.26819 0.4131 0.07764 0.0
C470 C 0.30183 0.42558 0.07026 0.0
C471 C 0.31513 0.45037 0.05499 0.0
C472 C 0.29433 0.46354 0.04806 0.0
C473 C 0.26078 0.45149 0.05584 0.0
C474 C 0.1961 0.40291 0.10602 0.0
C475 C 0.16211 0.38522 0.11357 0.0
C476 C 0.15597 0.37705 0.13424 0.0
C477 C 0.18376 0.38599 0.14773 0.0
C478 C 0.21784 0.40495 0.14036 0.0
C479 C 0.22397 0.41373 0.11973 0.0
P480 P 0.47079 0.93007 0.28174 0.0
H481 H 0.44541 0.94874 0.31774 0.0
H482 H 0.38737 0.93106 0.33073 0.0
H483 H 0.34262 0.85619 0.28253 0.0
H484 H 0.40114 0.87404 0.26952 0.0
H485 H 0.51313 0.94547 0.31837 0.0
H486 H 0.55214 0.92636 0.33078 0.0
H487 H 0.51848 0.85209 0.28215 0.0
H488 H 0.47871 0.87105 0.26987 0.0
H489 H 0.42802 0.93903 0.25117 0.0
H490 H 0.51966 0.92964 0.25165 0.0
O491 O 0.49284 0.97085 0.2888 0.0
H492 H 0.43777 0.95473 0.2153 0.0
H493 H 0.52863 0.94374 0.21563 0.0
C494 C 0.42766 0.91321 0.29238 0.0
C495 C 0.4232 0.92835 0.30999 0.0
C496 C 0.38998 0.91825 0.31743 0.0
C497 C 0.36037 0.89237 0.30763 0.0
C498 C 0.36493 0.87604 0.29053 0.0
C499 C 0.39833 0.88632 0.28301 0.0
C500 C 0.49385 0.91052 0.29275 0.0
C501 C 0.51373 0.9248 0.31045 0.0
C502 C 0.53614 0.91392 0.31753 0.0
C503 C 0.53911 0.88839 0.3071 0.0
C504 C 0.517 0.87207 0.29037 0.0
C505 C 0.49439 0.88297 0.2833 0.0
C506 C 0.47219 0.93164 0.2541 0.0
C507 C 0.44928 0.93868 0.24337 0.0
C508 C 0.45491 0.94771 0.22274 0.0
C509 C 0.48378 0.95011 0.21237 0.0
C510 C 0.50608 0.94206 0.22304 0.0
C511 C 0.5006 0.93337 0.24368 0.0
P512 P 0.13699 0.57228 0.25629 0.0
H513 H 0.13491 0.57621 0.30112 0.0
H514 H 0.13093 0.61669 0.32403 0.0
H515 H 0.11864 0.66758 0.27225 0.0
H516 H 0.12157 0.62637 0.24938 0.0
H517 H 0.19213 0.55742 0.26591 0.0
H518 H 0.19291 0.51201 0.28491 0.0
H519 H 0.08286 0.46655 0.29574 0.0
H520 H 0.08208 0.51179 0.27614 0.0
H521 H 0.14501 0.56106 0.21333 0.0
H522 H 0.06244 0.54886 0.25307 0.0
O523 O 0.17657 0.59746 0.24691 0.0
H524 H 0.10571 0.54426 0.18409 0.0
H525 H 0.02261 0.53123 0.22385 0.0
C526 C 0.12811 0.59801 0.2735 0.0
C527 C 0.13045 0.59548 0.29466 0.0
C528 C 0.12848 0.61883 0.30778 0.0
C529 C 0.12484 0.64549 0.29992 0.0
C530 C 0.12114 0.64712 0.27876 0.0
C531 C 0.12291 0.62366 0.26568 0.0
C532 C 0.13691 0.53766 0.26936 0.0
C533 C 0.16805 0.53752 0.27215 0.0
C534 C 0.16856 0.5117 0.28318 0.0
C535 C 0.13793 0.4856 0.29171 0.0
C536 C 0.10675 0.48594 0.289 0.0
C537 C 0.10625 0.51176 0.27785 0.0
C538 C 0.10681 0.55694 0.23527 0.0
C539 C 0.11835 0.55461 0.21577 0.0
C540 C 0.09581 0.54483 0.19908 0.0
C541 C 0.06123 0.537 0.2016 0.0
C542 C 0.04935 0.53796 0.22135 0.0
C543 C 0.07199 0.54781 0.23806 0.0
P544 P 0.46889 0.51737 0.28215 0.0
H545 H 0.527 0.5517 0.31066 0.0
H546 H 0.55979 0.60955 0.32361 0.0
H547 H 0.495 0.63647 0.28884 0.0
H548 H 0.46241 0.57797 0.27532 0.0
H549 H 0.41311 0.44981 0.27164 0.0
H550 H 0.35478 0.41399 0.28472 0.0
H551 H 0.36881 0.49436 0.32602 0.0
H552 H 0.42693 0.5309 0.31202 0.0
H553 H 0.53024 0.5383 0.25734 0.0
H554 H 0.42054 0.49556 0.24663 0.0
O555 O 0.48749 0.49662 0.29192 0.0
H556 H 0.53842 0.52909 0.22138 0.0
H557 H 0.42853 0.48521 0.21085 0.0
C558 C 0.49201 0.56035 0.29209 0.0
C559 C 0.51953 0.56981 0.30583 0.0
C560 C 0.53818 0.60298 0.31342 0.0
C561 C 0.52957 0.62751 0.30763 0.0
C562 C 0.50213 0.61809 0.29368 0.0
C563 C 0.48346 0.58472 0.286 0.0
C564 C 0.42406 0.49355 0.29022 0.0
C565 C 0.40333 0.46022 0.28304 0.0
C566 C 0.37009 0.43952 0.2908 0.0
C567 C 0.35694 0.45125 0.30642 0.0
C568 C 0.37775 0.48473 0.31369 0.0
C569 C 0.41107 0.50567 0.30568 0.0
C570 C 0.4747 0.51693 0.25486 0.0
C571 C 0.50798 0.52736 0.24722 0.0
C572 C 0.51265 0.52208 0.22668 0.0
C573 C 0.48402 0.50589 0.21345 0.0
C574 C 0.45095 0.49722 0.22084 0.0
C575 C 0.44638 0.50306 0.24133 0.0
Gd576 Gd 0.51638 0.02195 0.0372 0.0
Gd577 Gd 0.48649 0.97334 0.98823 0.0
C578 C 0.38324 0.87359 0.98448 0.0
C579 C 0.40187 0.83289 0.97663 0.0
C580 C 0.44433 0.89283 0.98044 0.0
C581 C 0.4182 0.89984 0.98459 0.0
C582 C 0.43645 0.85945 0.97572 0.0
C583 C 0.37529 0.83994 0.98107 0.0
C584 C 0.35733 0.88213 0.98706 0.0
C585 C 0.36658 0.91623 0.98872 0.0
N586 N 0.42688 0.93267 0.98748 0.0
C587 C 0.40165 0.94133 0.98854 0.0
H588 H 0.40843 0.96755 0.99 0.0
C589 C 0.50346 0.91425 0.97264 0.0
N590 N 0.4773 0.91914 0.97959 0.0
C591 C 0.49698 0.88162 0.96773 0.0
C592 C 0.46339 0.85401 0.96952 0.0
H593 H 0.5295 0.93547 0.97129 0.0
H594 H 0.34863 0.81936 0.98117 0.0
H595 H 0.59573 0.03113 0.04094 0.0
H596 H 0.33016 0.86273 0.98716 0.0
H597 H 0.34673 0.92321 0.99022 0.0
H598 H 0.39532 0.80698 0.97334 0.0
H599 H 0.46827 0.05803 0.04808 0.0
H600 H 0.67051 0.13684 0.04486 0.0
H601 H 0.65661 0.07702 0.04316 0.0
H602 H 0.60005 0.18879 0.05084 0.0
H603 H 0.51791 0.87778 0.96263 0.0
H604 H 0.45842 0.82875 0.9657 0.0
H605 H 0.64911 0.17845 0.04759 0.0
H606 H 0.47658 0.11516 0.05391 0.0
N607 N 0.57516 0.06428 0.04052 0.0
C608 C 0.64369 0.11671 0.04382 0.0
C609 C 0.63595 0.08301 0.04293 0.0
C610 C 0.61662 0.12394 0.04414 0.0
C611 C 0.58218 0.09676 0.04264 0.0
C612 C 0.60133 0.05698 0.04164 0.0
N613 N 0.52209 0.07548 0.04411 0.0
C614 C 0.55473 0.10256 0.0446 0.0
C615 C 0.4988 0.11199 0.05125 0.0
C616 C 0.53217 0.14024 0.05099 0.0
C617 C 0.49421 0.07959 0.048 0.0
C618 C 0.56071 0.13572 0.04791 0.0
H619 H 0.53566 0.1653 0.05356 0.0
O620 O 0.48905 0.01021 0.0661 0.0
O621 O 0.47493 0.97638 0.02098 0.0
O622 O 0.46967 0.01287 0.99257 0.0
O623 O 0.51123 0.05478 0.01369 0.0
O624 O 0.45888 0.00156 0.04038 0.0
O625 O 0.53666 0.00868 0.06356 0.0
O626 O 0.51315 0.98705 0.95906 0.0
O627 O 0.52833 0.01703 1.005 0.0
O628 O 0.53623 0.9849 0.03331 0.0
O629 O 0.5013 0.94332 1.00918 0.0
O630 O 0.54369 0.99385 0.98339 0.0
O631 O 0.46416 0.98536 0.96231 0.0
C632 C 0.4484 0.97544 0.02863 0.0
C633 C 0.59492 0.16309 0.04848 0.0
C634 C 0.62284 0.15721 0.0466 0.0
C635 C 0.51208 0.00579 0.07567 0.0
C636 C 0.5228 0.02207 0.09594 0.0
C637 C 0.54279 0.05746 0.09766 0.0
C638 C 0.51243 0.00223 0.11373 0.0
C639 C 0.52193 0.01778 0.13321 0.0
C640 C 0.5523 0.07298 0.11682 0.0
C641 C 0.54197 0.05341 0.13443 0.0
C642 C 0.48721 0.04471 0.99928 0.0
C643 C 0.55442 0.01799 0.9967 0.0
C644 C 0.48886 0.9898 0.94984 0.0
C645 C 0.47817 0.97309 0.92966 0.0
C646 C 0.45912 0.93761 0.92823 0.0
C647 C 0.48757 0.99248 0.91167 0.0
C648 C 0.4777 0.97633 0.89237 0.0
C649 C 0.4499 0.92153 0.90923 0.0
C650 C 0.45922 0.94064 0.89146 0.0
C651 C 0.52432 0.95476 0.02432 0.0
H652 H 0.55093 0.07308 0.08421 0.0
H653 H 0.49738 0.97484 0.11236 0.0
H654 H 0.56764 0.10034 0.11803 0.0
H655 H 0.54944 0.06625 0.14908 0.0
H656 H 0.45155 0.92231 0.94178 0.0
H657 H 0.50214 0.01993 0.9127 0.0
H658 H 0.43553 0.8941 0.90828 0.0
H659 H 0.45211 0.92741 0.87692 0.0
Gd660 Gd 0.97609 0.49158 0.03305 0.0
Gd661 Gd 0.03043 0.50844 0.98687 0.0
C662 C 0.12777 0.49885 0.98773 0.0
C663 C 0.17372 0.55773 0.98563 0.0
C664 C 0.11324 0.54331 0.98522 0.0
C665 C 0.10288 0.50936 0.98714 0.0
C666 C 0.14874 0.56785 0.984 0.0
C667 C 0.16325 0.52328 0.98748 0.0
C668 C 0.11625 0.46407 0.98791 0.0
C669 C 0.08076 0.44082 0.98678 0.0
N670 N 0.0684 0.48647 0.98716 0.0
C671 C 0.05709 0.45252 0.98619 0.0
H672 H 0.02978 0.43424 0.98568 0.0
C673 C 0.0972 0.58472 0.97903 0.0
N674 N 0.08842 0.55211 0.98346 0.0
C675 C 0.13208 0.61005 0.97786 0.0
C676 C 0.158 0.60166 0.98061 0.0
H677 H 0.07722 0.59133 0.97706 0.0
H678 H 0.18275 0.51571 0.98817 0.0
H679 H 0.97479 0.56463 0.03202 0.0
H680 H 0.13452 0.45494 0.98844 0.0
H681 H 0.07155 0.41386 0.98659 0.0
H682 H 0.20115 0.57624 0.98493 0.0
H683 H 0.9324 0.41046 0.0472 0.0
H684 H 0.86941 0.5421 0.03399 0.0
H685 H 0.93212 0.58395 0.03218 0.0
H686 H 0.80591 0.4218 0.04389 0.0
H687 H 0.13896 0.63601 0.97487 0.0
H688 H 0.185 0.6213 0.97961 0.0
H689 H 0.82235 0.48132 0.03801 0.0
H690 H 0.87192 0.36581 0.05358 0.0
N691 N 0.93692 0.51223 0.0333 0.0
C692 C 0.88809 0.53346 0.034 0.0
C693 C 0.92345 0.55715 0.03304 0.0
C694 C 0.87737 0.49899 0.03564 0.0
C695 C 0.90279 0.48912 0.03547 0.0
C696 C 0.94763 0.54605 0.033 0.0
N697 N 0.91911 0.44795 0.03978 0.0
C698 C 0.89356 0.45582 0.03877 0.0
C699 C 0.87761 0.39099 0.04933 0.0
C700 C 0.85079 0.39827 0.04731 0.0
C701 C 0.91186 0.41638 0.04573 0.0
C702 C 0.85864 0.43117 0.04231 0.0
H703 H 0.82429 0.3786 0.05016 0.0
O704 O 0.98358 0.47635 0.06302 0.0
O705 O 0.02171 0.49228 0.019 0.0
O706 O 0.98738 0.45315 0.98851 0.0
O707 O 0.94418 0.44989 0.0103 0.0
O708 O 0.99349 0.45341 0.03887 0.0
O709 O 0.99107 0.52667 0.05868 0.0
O710 O 0.02921 0.52781 0.9569 0.0
O711 O 0.9837 0.50648 1.00045 0.0
O712 O 0.0184 0.54717 0.03006 0.0
O713 O 0.0622 0.5459 0.01146 0.0
O714 O 0.0126 0.54636 0.9812 0.0
O715 O 0.0176 0.47588 0.96018 0.0
C716 C 0.02031 0.46675 0.02726 0.0
C717 C 0.83294 0.44043 0.04143 0.0
C718 C 0.8423 0.47431 0.03809 0.0
C719 C 0.99037 0.50488 0.07168 0.0
C720 C 0.97312 0.50238 0.09119 0.0
C721 C 0.93814 0.49364 0.09194 0.0
C722 C 0.99209 0.50886 0.10936 0.0
C723 C 0.97641 0.50692 0.1283 0.0
C724 C 0.92233 0.49143 0.1107 0.0
C725 C 0.94128 0.49801 0.1288 0.0
C726 C 0.95511 0.4373 0.99559 0.0
C727 C 0.98494 0.53191 0.99211 0.0
C728 C 0.02246 0.49977 0.94753 0.0
C729 C 0.04366 0.50337 0.92949 0.0
C730 C 0.0779 0.51024 0.93172 0.0
C731 C 0.02951 0.49963 0.90985 0.0
C732 C 0.04952 0.50265 0.8925 0.0
C733 C 0.09781 0.51326 0.91461 0.0
C734 C 0.08377 0.50944 0.89513 0.0
C735 C 0.05151 0.56046 0.02491 0.0
H736 H 0.92314 0.48855 0.07809 0.0
H737 H 0.01921 0.51584 0.10873 0.0
H738 H 0.89528 0.48455 0.11123 0.0
H739 H 0.92839 0.49581 0.14318 0.0
H740 H 0.0892 0.51314 0.94663 0.0
H741 H 1.0029 0.49391 0.9081 0.0
H742 H 0.12424 0.51857 0.91647 0.0
H743 H 0.09982 0.51211 0.88207 0.0
Gd744 Gd 0.49317 0.51536 0.98973 0.0
Gd745 Gd 0.51766 0.49755 0.03958 0.0
C746 C 0.63537 0.53841 0.04189 0.0
C747 C 0.63908 0.48886 0.03203 0.0
C748 C 0.58273 0.4849 0.03597 0.0
C749 C 0.59877 0.51899 0.04071 0.0
C750 C 0.60275 0.46915 0.03241 0.0
C751 C 0.65539 0.52349 0.03675 0.0
C752 C 0.65077 0.57194 0.04886 0.0
C753 C 0.62976 0.58459 0.05565 0.0
N754 N 0.5786 0.53264 0.04547 0.0
C755 C 0.59368 0.56425 0.05438 0.0
H756 H 0.57832 0.57417 0.06091 0.0
C757 C 0.53147 0.43188 0.03683 0.0
N758 N 0.5476 0.4666 0.03658 0.0
C759 C 0.54998 0.4151 0.03299 0.0
C760 C 0.58574 0.43389 0.0302 0.0
H761 H 0.50422 0.41666 0.04016 0.0
H762 H 0.68348 0.53823 0.03712 0.0
H763 H 0.42565 0.43606 0.9889 0.0
H764 H 0.67872 0.58768 0.04995 0.0
H765 H 0.64131 0.60989 0.06215 0.0
H766 H 0.6548 0.47732 0.02887 0.0
H767 H 0.51879 0.59391 0.97372 0.0
H768 H 0.33189 0.44043 0.98904 0.0
H769 H 0.36176 0.40693 0.98898 0.0
H770 H 0.37239 0.5591 0.98186 0.0
H771 H 0.53667 0.38766 0.03251 0.0
H772 H 0.60014 0.42086 0.02741 0.0
H773 H 0.33617 0.49755 0.98708 0.0
H774 H 0.49393 0.63136 0.96875 0.0
N775 N 0.43212 0.48558 0.98931 0.0
C776 C 0.35999 0.45334 0.98895 0.0
C777 C 0.37675 0.43436 0.98888 0.0
C778 C 0.3797 0.48875 0.98816 0.0
C779 C 0.4162 0.50427 0.98807 0.0
C780 C 0.41304 0.45099 0.98894 0.0
N781 N 0.47125 0.55213 0.9837 0.0
C782 C 0.4365 0.53879 0.98535 0.0
C783 C 0.47752 0.60549 0.97368 0.0
C784 C 0.44218 0.59291 0.97703 0.0
C785 C 0.49152 0.58434 0.97655 0.0
C786 C 0.42098 0.55889 0.98237 0.0
H787 H 0.43129 0.60921 0.97459 0.0
O788 O 0.51959 0.53663 0.96115 0.0
O789 O 0.53384 0.51114 1.00728 0.0
O790 O 0.53291 0.5529 0.03806 0.0
O791 O 0.50661 0.56114 1.00955 0.0
O792 O 0.55 0.55421 0.98972 0.0
O793 O 0.47645 0.48542 0.96175 0.0
O794 O 0.49029 0.45753 0.06173 0.0
O795 O 0.47336 0.49119 0.01996 0.0
O796 O 0.49304 0.46609 0.98896 0.0
O797 O 0.48419 0.4479 0.02238 0.0
O798 O 0.47775 0.5114 0.0489 0.0
O799 O 0.52123 0.50974 0.07185 0.0
C800 C 0.56023 0.53808 1.00127 0.0
C801 C 0.38477 0.54399 0.98379 0.0
C802 C 0.36414 0.50894 0.98671 0.0
C803 C 0.49932 0.50965 0.9505 0.0
C804 C 0.48723 0.51493 0.9308 0.0
C805 C 0.46404 0.52723 0.92966 0.0
C806 C 0.49915 0.50735 0.91279 0.0
C807 C 0.48805 0.51196 0.89363 0.0
C808 C 0.45325 0.5323 0.9107 0.0
C809 C 0.46521 0.52483 0.89278 0.0
C810 C 0.52425 0.57152 0.02683 0.0
C811 C 0.45908 0.50151 0.03266 0.0
C812 C 0.50131 0.47841 0.07726 0.0
C813 C 0.5107 0.46772 0.09617 0.0
C814 C 0.52568 0.44698 0.09585 0.0
C815 C 0.50345 0.47789 0.11501 0.0
C816 C 0.5102 0.4667 0.13343 0.0
C817 C 0.53275 0.43607 0.11413 0.0
C818 C 0.52487 0.44565 0.1328 0.0
C819 C 0.48476 0.44226 1.00261 0.0
H820 H 0.45431 0.5329 0.94335 0.0
H821 H 0.51672 0.49739 0.91373 0.0
H822 H 0.43555 0.54206 0.90989 0.0
H823 H 0.45679 0.52936 0.87826 0.0
H824 H 0.53168 0.43907 0.08155 0.0
H825 H 0.49181 0.4939 0.11534 0.0
H826 H 0.5442 0.41997 0.11382 0.0
H827 H 0.53045 0.43681 0.14678 0.0
Gd828 Gd 0.1812 0.35548 0.37022 0.0
Gd829 Gd 0.14789 0.30828 0.32123 0.0
C830 C 0.04215 0.21073 0.32047 0.0
C831 C 0.05758 0.16853 0.31028 0.0
C832 C 0.10194 0.22801 0.31319 0.0
C833 C 0.07739 0.23612 0.31929 0.0
C834 C 0.09221 0.19436 0.3078 0.0
C835 C 0.03256 0.17671 0.31667 0.0
C836 C 0.01749 0.22051 0.32443 0.0
C837 C 0.02809 0.25494 0.32597 0.0
N838 N 0.08761 0.26931 0.32227 0.0
C839 C 0.06336 0.27915 0.32447 0.0
H840 H 0.07108 0.30559 0.32591 0.0
C841 C 0.15848 0.24818 0.3006 0.0
N842 N 0.13484 0.25371 0.31059 0.0
C843 C 0.15023 0.21522 0.295 0.0
C844 C 0.11716 0.18805 0.29907 0.0
H845 H 0.18396 0.26918 0.29727 0.0
H846 H 0.0057 0.15677 0.31776 0.0
H847 H 0.25579 0.35334 0.37191 0.0
H848 H 0.99017 0.20181 0.32553 0.0
H849 H 0.00916 0.26289 0.32845 0.0
H850 H 0.04965 0.14242 0.30651 0.0
H851 H 0.14344 0.40029 0.38346 0.0
H852 H 0.3404 0.45536 0.37436 0.0
H853 H 0.31857 0.39361 0.37286 0.0
H854 H 0.28408 0.52107 0.38232 0.0
H855 H 0.16933 0.21083 0.28752 0.0
H856 H 0.11074 0.16258 0.29461 0.0
H857 H 0.32725 0.50287 0.37759 0.0
H858 H 0.16004 0.4603 0.38952 0.0
N859 N 0.24175 0.39174 0.37231 0.0
C860 C 0.3127 0.43776 0.37399 0.0
C861 C 0.30047 0.40293 0.3732 0.0
C862 C 0.289 0.44939 0.37504 0.0
C863 C 0.25323 0.42539 0.3744 0.0
C864 C 0.26472 0.38013 0.37266 0.0
N865 N 0.19506 0.41155 0.37747 0.0
C866 C 0.22907 0.43563 0.37708 0.0
C867 C 0.17971 0.45373 0.38595 0.0
C868 C 0.21452 0.47907 0.38457 0.0
C869 C 0.17042 0.41982 0.38261 0.0
C870 C 0.23979 0.47013 0.38041 0.0
H871 H 0.22168 0.50531 0.3872 0.0
O872 O 0.15716 0.35036 0.39989 0.0
O873 O 0.13831 0.31114 0.3543 0.0
O874 O 0.13225 0.34815 0.32687 0.0
O875 O 0.17471 0.38924 0.34782 0.0
O876 O 0.12419 0.33723 0.37425 0.0
O877 O 0.19717 0.33702 0.39603 0.0
O878 O 0.17474 0.32557 0.29226 0.0
O879 O 0.1917 0.35148 0.33755 0.0
O880 O 0.19503 0.31394 0.36656 0.0
O881 O 0.16267 0.276 0.34 0.0
O882 O 0.20447 0.32556 0.31637 0.0
O883 O 0.12396 0.31961 0.29589 0.0
C884 C 0.11256 0.31081 0.3626 0.0
C885 C 0.27531 0.49437 0.38002 0.0
C886 C 0.29989 0.48401 0.37733 0.0
C887 C 0.17634 0.34003 0.40879 0.0
C888 C 0.19112 0.35525 0.42883 0.0
C889 C 0.21961 0.38825 0.4302 0.0
C890 C 0.17724 0.33634 0.44676 0.0
C891 C 0.19215 0.35023 0.46594 0.0
C892 C 0.23436 0.40214 0.44913 0.0
C893 C 0.22091 0.38328 0.46686 0.0
C894 C 0.15057 0.37985 0.33354 0.0
C895 C 0.21687 0.35051 0.32924 0.0
C896 C 0.14936 0.32679 0.28337 0.0
C897 C 0.14002 0.31152 0.26282 0.0
C898 C 0.11996 0.27621 0.26032 0.0
C899 C 0.15232 0.33228 0.24549 0.0
C900 C 0.14521 0.31767 0.2258 0.0
C901 C 0.11286 0.26169 0.24085 0.0
C902 C 0.12557 0.28221 0.22369 0.0
C903 C 0.18358 0.2851 0.35614 0.0
H904 H 0.23059 0.40314 0.41663 0.0
H905 H 0.15537 0.31072 0.44574 0.0
H906 H 0.25642 0.42761 0.45007 0.0
H907 H 0.23281 0.39466 0.48136 0.0
H908 H 0.10997 0.25987 0.27341 0.0
H909 H 0.16786 0.35959 0.24731 0.0
H910 H 0.09754 0.23441 0.23904 0.0
H911 H 0.11978 0.27041 0.20872 0.0
Gd912 Gd 0.64469 0.82686 0.37074 0.0
Gd913 Gd 0.69368 0.83521 0.32347 0.0
C914 C 0.78926 0.82254 0.3217 0.0
C915 C 0.83418 0.87814 0.31061 0.0
C916 C 0.77499 0.8664 0.31527 0.0
C917 C 0.76496 0.83383 0.32133 0.0
C918 C 0.80941 0.88851 0.30908 0.0
C919 C 0.82415 0.84523 0.31702 0.0
C920 C 0.77745 0.78837 0.32571 0.0
C921 C 0.74198 0.76606 0.32807 0.0
N922 N 0.73084 0.8123 0.32503 0.0
C923 C 0.71885 0.7784 0.32726 0.0
H924 H 0.69153 0.76078 0.32909 0.0
C925 C 0.75788 0.90561 0.30521 0.0
N926 N 0.75038 0.87552 0.31386 0.0
C927 C 0.79157 0.9283 0.29868 0.0
C928 C 0.81756 0.91986 0.30079 0.0
H929 H 0.7379 0.91226 0.30349 0.0
H930 H 0.84326 0.83715 0.31748 0.0
H931 H 0.65337 0.90494 0.36782 0.0
H932 H 0.79528 0.77871 0.32624 0.0
H933 H 0.73241 0.73936 0.33055 0.0
H934 H 0.86089 0.89496 0.30625 0.0
H935 H 0.59398 0.7512 0.39107 0.0
H936 H 0.55244 0.89405 0.36591 0.0
H937 H 0.6163 0.93043 0.36553 0.0
H938 H 0.47705 0.77568 0.37817 0.0
H939 H 0.79749 0.95228 0.29206 0.0
H940 H 0.84364 0.93745 0.29572 0.0
H941 H 0.50045 0.8359 0.36993 0.0
H942 H 0.53142 0.71149 0.39685 0.0
N943 N 0.61122 0.85402 0.36901 0.0
C944 C 0.56864 0.8826 0.36695 0.0
C945 C 0.60465 0.9032 0.36682 0.0
C946 C 0.55401 0.84757 0.36925 0.0
C947 C 0.5763 0.83397 0.37049 0.0
C948 C 0.62566 0.88849 0.36812 0.0
N949 N 0.58592 0.78925 0.37815 0.0
C950 C 0.56316 0.80028 0.37504 0.0
C951 C 0.53991 0.73623 0.39044 0.0
C952 C 0.51575 0.74622 0.38576 0.0
C953 C 0.57519 0.75857 0.38702 0.0
C954 C 0.52737 0.77901 0.37855 0.0
H955 H 0.48847 0.72908 0.38866 0.0
O956 O 0.64879 0.81149 0.40138 0.0
O957 O 0.6895 0.8253 0.3568 0.0
O958 O 0.65044 0.78079 0.32783 0.0
O959 O 0.61058 0.78031 0.35142 0.0
O960 O 0.66107 0.78847 0.37801 0.0
O961 O 0.66259 0.86344 0.39568 0.0
O962 O 0.68467 0.84736 0.29294 0.0
O963 O 0.64857 0.83626 0.33745 0.0
O964 O 0.68981 0.88083 0.36634 0.0
O965 O 0.72955 0.87972 0.34351 0.0
O966 O 0.67736 0.87369 0.31665 0.0
O967 O 0.67872 0.79805 0.299 0.0
C968 C 0.68787 0.80053 0.36635 0.0
C969 C 0.5047 0.79174 0.37584 0.0
C970 C 0.51803 0.82603 0.37119 0.0
C971 C 0.65813 0.84111 0.40937 0.0
C972 C 0.63997 0.84126 0.42803 0.0
C973 C 0.60627 0.83635 0.42723 0.0
C974 C 0.65661 0.84638 0.44694 0.0
C975 C 0.63988 0.84686 0.46504 0.0
C976 C 0.58937 0.83643 0.44515 0.0
C977 C 0.60601 0.84163 0.46397 0.0
C978 C 0.61978 0.76592 0.3369 0.0
C979 C 0.65051 0.86141 0.32825 0.0
C980 C 0.67973 0.81887 0.28514 0.0
C981 C 0.69955 0.82177 0.26658 0.0
C982 C 0.73161 0.82292 0.26769 0.0
C983 C 0.68678 0.82442 0.24754 0.0
C984 C 0.70621 0.82878 0.22977 0.0
C985 C 0.75096 0.82725 0.25011 0.0
C986 C 0.73843 0.83023 0.23124 0.0
C987 C 0.72123 0.8947 0.35812 0.0
H988 H 0.59309 0.83249 0.41282 0.0
H989 H 0.68278 0.85045 0.44754 0.0
H990 H 0.5633 0.83245 0.44444 0.0
H991 H 0.59231 0.84129 0.4777 0.0
H992 H 0.74167 0.82037 0.28209 0.0
H993 H 0.66199 0.82346 0.24657 0.0
H994 H 0.77567 0.82813 0.25111 0.0
H995 H 0.75361 0.83309 0.21772 0.0
Gd996 Gd 0.152 0.8387 0.32417 0.0
Gd997 Gd 0.18979 0.83375 0.37346 0.0
C998 C 0.30203 0.85642 0.37273 0.0
C999 C 0.29521 0.80126 0.37989 0.0
C1000 C 0.24451 0.80834 0.37841 0.0
C1001 C 0.26568 0.84254 0.37398 0.0
C1002 C 0.25947 0.788 0.38257 0.0
C1003 C 0.31641 0.83533 0.37482 0.0
C1004 C 0.32316 0.8914 0.37034 0.0
C1005 C 0.30827 0.91195 0.37044 0.0
N1006 N 0.25125 0.86271 0.37248 0.0
C1007 C 0.27227 0.89728 0.37184 0.0
H1008 H 0.26209 0.91426 0.37217 0.0
C1009 C 0.18982 0.76499 0.38987 0.0
N1010 N 0.2099 0.79587 0.38081 0.0
C1011 C 0.20369 0.74432 0.39459 0.0
C1012 C 0.23848 0.75553 0.39045 0.0
H1013 H 0.16265 0.75576 0.39281 0.0
H1014 H 0.34415 0.84554 0.37353 0.0
H1015 H 0.07546 0.76739 0.33013 0.0
H1016 H 0.3511 0.90292 0.36925 0.0
H1017 H 0.32453 0.93921 0.36936 0.0
H1018 H 0.30694 0.78574 0.38255 0.0
H1019 H 0.18911 0.91391 0.30131 0.0
H1020 H 0.99459 0.79202 0.32819 0.0
H1021 H 0.0134 0.74961 0.33186 0.0
H1022 H 0.05486 0.90959 0.31023 0.0
H1023 H 0.18744 0.71961 0.40119 0.0
H1024 H 0.24914 0.73938 0.39403 0.0
H1025 H 0.01047 0.8522 0.32068 0.0
H1026 H 0.1752 0.95852 0.29265 0.0
N1027 N 0.09202 0.81956 0.32568 0.0
C1028 C 0.02191 0.79997 0.32728 0.0
C1029 C 0.03243 0.77595 0.32929 0.0
C1030 C 0.04672 0.83375 0.32341 0.0
C1031 C 0.08195 0.84272 0.32245 0.0
C1032 C 0.06774 0.78619 0.32828 0.0
N1033 N 0.13973 0.88128 0.31429 0.0
C1034 C 0.10673 0.87481 0.31664 0.0
C1035 C 0.15578 0.93526 0.29964 0.0
C1036 C 0.12259 0.93004 0.30348 0.0
C1037 C 0.16367 0.91008 0.30469 0.0
C1038 C 0.09726 0.89911 0.31155 0.0
H1039 H 0.11641 0.94941 0.29937 0.0
O1040 O 0.17736 0.84436 0.29487 0.0
O1041 O 0.19742 0.84032 0.33996 0.0
O1042 O 0.20383 0.88772 0.36714 0.0
O1043 O 0.16481 0.88601 0.34243 0.0
O1044 O 0.20823 0.87631 0.31788 0.0
O1045 O 0.12499 0.80389 0.29903 0.0
O1046 O 0.16275 0.80917 0.40136 0.0
O1047 O 0.14066 0.81979 0.35603 0.0
O1048 O 0.13658 0.78426 0.3301 0.0
O1049 O 0.1708 0.78333 0.35672 0.0
O1050 O 0.14631 0.84149 0.38446 0.0
O1051 O 0.20905 0.85951 0.40239 0.0
C1052 C 0.22182 0.86481 0.33054 0.0
C1053 C 0.0626 0.89113 0.31378 0.0
C1054 C 0.03733 0.85844 0.3197 0.0
C1055 C 0.15014 0.81975 0.28619 0.0
C1056 C 0.1409 0.82703 0.26609 0.0
C1057 C 0.11851 0.84021 0.2643 0.0
C1058 C 0.15513 0.82116 0.24846 0.0
C1059 C 0.14723 0.82853 0.22907 0.0
C1060 C 0.11047 0.84745 0.24513 0.0
C1061 C 0.12465 0.84164 0.2276 0.0
C1062 C 0.1885 0.90151 0.35688 0.0
C1063 C 0.12621 0.82932 0.36903 0.0
C1064 C 0.18486 0.83444 0.41286 0.0
C1065 C 0.19581 0.8261 0.43207 0.0
C1066 C 0.2232 0.81926 0.43256 0.0
C1067 C 0.17965 0.82673 0.45038 0.0
C1068 C 0.19057 0.82026 0.46911 0.0
C1069 C 0.2339 0.81247 0.45102 0.0
C1070 C 0.21784 0.81306 0.46918 0.0
C1071 C 0.14951 0.7689 0.34101 0.0
H1072 H 0.10717 0.84479 0.27768 0.0
H1073 H 0.17262 0.81118 0.24985 0.0
H1074 H 0.09306 0.85749 0.24383 0.0
H1075 H 0.1176 0.84695 0.21287 0.0
H1076 H 0.23673 0.81973 0.41882 0.0
H1077 H 0.15882 0.83254 0.45008 0.0
H1078 H 0.25515 0.80734 0.45129 0.0
H1079 H 0.22738 0.80876 0.48336 0.0
Gd1080 Gd 0.84975 0.6893 0.7052 0.0
Gd1081 Gd 0.82282 0.63782 0.6573 0.0
C1082 C 0.72154 0.53619 0.65375 0.0
C1083 C 0.74227 0.49662 0.64765 0.0
C1084 C 0.78311 0.55712 0.6507 0.0
C1085 C 0.75613 0.56321 0.65398 0.0
C1086 C 0.77652 0.52387 0.64692 0.0
C1087 C 0.7148 0.50277 0.6511 0.0
C1088 C 0.69476 0.54371 0.6555 0.0
C1089 C 0.70284 0.57753 0.65653 0.0
N1090 N 0.76365 0.59583 0.65614 0.0
C1091 C 0.73759 0.60341 0.65648 0.0
H1092 H 0.74341 0.62938 0.65748 0.0
C1093 C 0.8428 0.57989 0.64394 0.0
N1094 N 0.81572 0.58406 0.64989 0.0
C1095 C 0.83763 0.5474 0.64006 0.0
C1096 C 0.80442 0.51919 0.64187 0.0
H1097 H 0.86857 0.60154 0.64264 0.0
H1098 H 0.68842 0.48164 0.65107 0.0
H1099 H 0.92923 0.6987 0.70979 0.0
H1100 H 0.66783 0.5237 0.65548 0.0
H1101 H 0.68234 0.5837 0.65746 0.0
H1102 H 0.73668 0.47084 0.645 0.0
H1103 H 0.80128 0.72534 0.71397 0.0
H1104 H 1.0036 0.80462 0.71296 0.0
H1105 H 0.98993 0.74483 0.71238 0.0
H1106 H 0.93281 0.8565 0.71586 0.0
H1107 H 0.85928 0.54414 0.63577 0.0
H1108 H 0.80046 0.49406 0.63883 0.0
H1109 H 0.98201 0.84618 0.71402 0.0
H1110 H 0.80928 0.78273 0.71854 0.0
N1111 N 0.90846 0.73172 0.70841 0.0
C1112 C 0.97683 0.7844 0.71184 0.0
C1113 C 0.96921 0.75071 0.71161 0.0
C1114 C 0.9497 0.79154 0.71133 0.0
C1115 C 0.91533 0.76426 0.70976 0.0
C1116 C 0.93467 0.72455 0.7102 0.0
N1117 N 0.85516 0.74297 0.71036 0.0
C1118 C 0.88778 0.77008 0.71081 0.0
C1119 C 0.83159 0.77954 0.7163 0.0
C1120 C 0.86494 0.80784 0.71589 0.0
C1121 C 0.82715 0.74706 0.71376 0.0
C1122 C 0.89361 0.80331 0.71342 0.0
H1123 H 0.86831 0.83296 0.71792 0.0
O1124 O 0.82141 0.67961 0.73368 0.0
O1125 O 0.8101 0.6425 0.68944 0.0
O1126 O 0.80363 0.67574 0.65976 0.0
O1127 O 0.84317 0.71973 0.68062 0.0
O1128 O 0.79177 0.66717 0.70749 0.0
O1129 O 0.86954 0.67886 0.73279 0.0
O1130 O 0.85062 0.6508 0.6285 0.0
O1131 O 0.86333 0.68336 0.67352 0.0
O1132 O 0.86969 0.65203 0.70362 0.0
O1133 O 0.83589 0.60883 0.68015 0.0
O1134 O 0.88035 0.65879 0.65405 0.0
O1135 O 0.80109 0.64841 0.63055 0.0
C1136 C 0.78275 0.64061 0.69632 0.0
C1137 C 0.92778 0.83074 0.71405 0.0
C1138 C 0.95579 0.82487 0.71299 0.0
C1139 C 0.84445 0.6765 0.7442 0.0
C1140 C 0.85454 0.69452 0.76397 0.0
C1141 C 0.8724 0.73006 0.76471 0.0
C1142 C 0.84615 0.67613 0.78228 0.0
C1143 C 0.85591 0.69327 0.80125 0.0
C1144 C 0.88165 0.74713 0.78342 0.0
C1145 C 0.87343 0.72896 0.80155 0.0
C1146 C 0.81953 0.70788 0.66594 0.0
C1147 C 0.89006 0.68412 0.66639 0.0
C1148 C 0.82658 0.65318 0.61866 0.0
C1149 C 0.81719 0.63678 0.59838 0.0
C1150 C 0.79888 0.60133 0.59661 0.0
C1151 C 0.827 0.65667 0.58062 0.0
C1152 C 0.81863 0.64115 0.56112 0.0
C1153 C 0.79053 0.58583 0.57742 0.0
C1154 C 0.8003 0.60547 0.55983 0.0
C1155 C 0.85794 0.62114 0.69577 0.0
H1156 H 0.87907 0.74459 0.75085 0.0
H1157 H 0.8325 0.64863 0.78176 0.0
H1158 H 0.89521 0.77458 0.78387 0.0
H1159 H 0.88057 0.74287 0.81587 0.0
H1160 H 0.79109 0.58567 0.61004 0.0
H1161 H 0.84068 0.68409 0.58203 0.0
H1162 H 0.77648 0.55842 0.57616 0.0
H1163 H 0.79374 0.59268 0.54515 0.0
Gd1164 Gd 0.30885 0.15922 0.70255 0.0
Gd1165 Gd 0.36302 0.17522 0.65646 0.0
C1166 C 0.46098 0.16654 0.65497 0.0
C1167 C 0.50632 0.22533 0.65112 0.0
C1168 C 0.44576 0.21051 0.6525 0.0
C1169 C 0.43587 0.17681 0.65493 0.0
C1170 C 0.48103 0.23512 0.65011 0.0
C1171 C 0.49631 0.19108 0.65356 0.0
C1172 C 0.44974 0.13186 0.65577 0.0
C1173 C 0.41425 0.10841 0.65573 0.0
N1174 N 0.40151 0.15381 0.656 0.0
C1175 C 0.39039 0.11989 0.65553 0.0
H1176 H 0.3631 0.10149 0.65561 0.0
C1177 C 0.42877 0.25128 0.64661 0.0
N1178 N 0.4206 0.21895 0.65138 0.0
C1179 C 0.46341 0.27664 0.6442 0.0
C1180 C 0.48971 0.26862 0.6462 0.0
H1181 H 0.40864 0.25778 0.64518 0.0
H1182 H 0.516 0.18373 0.65379 0.0
H1183 H 0.31122 0.23409 0.7037 0.0
H1184 H 0.46818 0.12292 0.65593 0.0
H1185 H 0.40524 0.08149 0.65597 0.0
H1186 H 0.5336 0.2439 0.64952 0.0
H1187 H 0.26148 0.07674 0.71339 0.0
H1188 H 0.20707 0.21546 0.70337 0.0
H1189 H 0.27034 0.25564 0.70358 0.0
H1190 H 0.13884 0.09452 0.70919 0.0
H1191 H 0.46979 0.30235 0.64086 0.0
H1192 H 0.51652 0.28829 0.64428 0.0
H1193 H 0.15807 0.15512 0.70517 0.0
H1194 H 0.19978 0.03316 0.71751 0.0
N1195 N 0.27172 0.18213 0.70311 0.0
C1196 C 0.22494 0.20584 0.70349 0.0
C1197 C 0.26062 0.22858 0.70368 0.0
C1198 C 0.21279 0.17096 0.70412 0.0
C1199 C 0.23718 0.1598 0.70413 0.0
C1200 C 0.28376 0.21623 0.70378 0.0
N1201 N 0.25083 0.11648 0.7074 0.0
C1202 C 0.22637 0.12584 0.70638 0.0
C1203 C 0.20689 0.05912 0.71433 0.0
C1204 C 0.18126 0.06809 0.71243 0.0
C1205 C 0.24179 0.08386 0.71204 0.0
C1206 C 0.19087 0.10189 0.70868 0.0
H1207 H 0.15425 0.0489 0.71426 0.0
O1208 O 0.31324 0.14105 0.73221 0.0
O1209 O 0.35423 0.15915 0.68867 0.0
O1210 O 0.32038 0.12 0.65931 0.0
O1211 O 0.27645 0.12035 0.67856 0.0
O1212 O 0.32499 0.12004 0.70828 0.0
O1213 O 0.32309 0.19252 0.729 0.0
O1214 O 0.3573 0.19197 0.62661 0.0
O1215 O 0.31745 0.17518 0.67033 0.0
O1216 O 0.35313 0.21422 0.70049 0.0
O1217 O 0.39598 0.213 0.68064 0.0
O1218 O 0.34717 0.21467 0.65113 0.0
O1219 O 0.34895 0.14118 0.63034 0.0
C1220 C 0.35222 0.13336 0.69697 0.0
C1221 C 0.16628 0.11258 0.70769 0.0
C1222 C 0.17723 0.14708 0.70539 0.0
C1223 C 0.32081 0.16938 0.74147 0.0
C1224 C 0.3034 0.16642 0.76094 0.0
C1225 C 0.26781 0.15515 0.76191 0.0
C1226 C 0.32297 0.1746 0.77893 0.0
C1227 C 0.30734 0.1718 0.79797 0.0
C1228 C 0.25198 0.15197 0.78081 0.0
C1229 C 0.27156 0.16012 0.79878 0.0
C1230 C 0.28759 0.10583 0.66533 0.0
C1231 C 0.31992 0.20138 0.66239 0.0
C1232 C 0.35108 0.16389 0.61755 0.0
C1233 C 0.37054 0.16775 0.59875 0.0
C1234 C 0.40581 0.17756 0.59944 0.0
C1235 C 0.35378 0.16226 0.57984 0.0
C1236 C 0.37224 0.16698 0.56159 0.0
C1237 C 0.42421 0.18199 0.58144 0.0
C1238 C 0.40763 0.17681 0.56262 0.0
C1239 C 0.386 0.22734 0.69472 0.0
H1240 H 0.25234 0.1487 0.74814 0.0
H1241 H 0.35038 0.18276 0.77809 0.0
H1242 H 0.22447 0.14318 0.78153 0.0
H1243 H 0.25886 0.15769 0.81326 0.0
H1244 H 0.4191 0.18186 0.61385 0.0
H1245 H 0.32635 0.1541 0.57938 0.0
H1246 H 0.45147 0.18966 0.58206 0.0
H1247 H 0.42258 0.18085 0.54884 0.0
Gd1248 Gd 0.82492 0.17756 0.65426 0.0
Gd1249 Gd 0.84661 0.16279 0.70505 0.0
C1250 C 0.96391 0.20269 0.70878 0.0
C1251 C 0.96733 0.15218 0.70132 0.0
C1252 C 0.91107 0.149 0.70333 0.0
C1253 C 0.92732 0.18347 0.70721 0.0
C1254 C 0.93097 0.13281 0.70105 0.0
C1255 C 0.98378 0.18709 0.70517 0.0
C1256 C 0.97947 0.2369 0.71434 0.0
C1257 C 0.95864 0.25075 0.71915 0.0
N1258 N 0.90742 0.19799 0.71025 0.0
C1259 C 0.92259 0.23074 0.71741 0.0
H1260 H 0.90742 0.24187 0.72237 0.0
C1261 C 0.85945 0.09623 0.70402 0.0
N1262 N 0.87587 0.13097 0.70312 0.0
C1263 C 0.87788 0.07907 0.7014 0.0
C1264 C 0.91378 0.09748 0.69933 0.0
H1265 H 0.83202 0.08119 0.70707 0.0
H1266 H 0.01186 0.20162 0.70589 0.0
H1267 H 0.75909 0.09647 0.64483 0.0
H1268 H 0.00741 0.25249 0.71566 0.0
H1269 H 0.9703 0.27682 0.72436 0.0
H1270 H 0.98295 0.14024 0.69921 0.0
H1271 H 0.84521 0.26041 0.64952 0.0
H1272 H 0.66298 0.09469 0.64962 0.0
H1273 H 0.69604 0.06499 0.64439 0.0
H1274 H 0.69596 0.21128 0.6581 0.0
H1275 H 0.86438 0.05161 0.70138 0.0
H1276 H 0.92809 0.08414 0.69753 0.0
H1277 H 0.66323 0.14913 0.65514 0.0
H1278 H 0.81638 0.29385 0.65287 0.0
N1279 N 0.76351 0.1445 0.65191 0.0
C1280 C 0.69108 0.10893 0.65007 0.0
C1281 C 0.70964 0.09208 0.64724 0.0
C1282 C 0.70902 0.14409 0.65295 0.0
C1283 C 0.74572 0.16151 0.65347 0.0
C1284 C 0.74588 0.11031 0.64792 0.0
N1285 N 0.79938 0.21267 0.65503 0.0
C1286 C 0.76416 0.1965 0.65538 0.0
C1287 C 0.80137 0.26651 0.65405 0.0
C1288 C 0.76555 0.25032 0.65645 0.0
C1289 C 0.81775 0.24722 0.6527 0.0
C1290 C 0.74635 0.21491 0.65647 0.0
H1291 H 0.75285 0.26531 0.65732 0.0
O1292 O 0.85197 0.21258 0.6296 0.0
O1293 O 0.869 0.18521 0.67478 0.0
O1294 O 0.85587 0.21592 0.70469 0.0
O1295 O 0.85981 0.22817 0.67017 0.0
O1296 O 0.8656 0.16418 0.64619 0.0
O1297 O 0.81373 0.16015 0.62283 0.0
O1298 O 0.81731 0.12483 0.72795 0.0
O1299 O 0.80248 0.15508 0.68458 0.0
O1300 O 0.8171 0.12529 0.6539 0.0
O1301 O 0.81391 0.11226 0.68832 0.0
O1302 O 0.8075 0.1783 0.71272 0.0
O1303 O 0.85399 0.17634 0.7372 0.0
C1304 C 0.88369 0.17447 0.66265 0.0
C1305 C 0.70996 0.19754 0.65691 0.0
C1306 C 0.69133 0.16219 0.65516 0.0
C1307 C 0.83627 0.18948 0.61549 0.0
C1308 C 0.82772 0.19939 0.59606 0.0
C1309 C 0.81151 0.21893 0.59512 0.0
C1310 C 0.83669 0.18903 0.57795 0.0
C1311 C 0.83013 0.19838 0.55881 0.0
C1312 C 0.80482 0.22837 0.57619 0.0
C1313 C 0.81421 0.21837 0.55814 0.0
C1314 C 0.86259 0.23718 0.68961 0.0
C1315 C 0.78865 0.16697 0.69657 0.0
C1316 C 0.83156 0.14599 0.74316 0.0
C1317 C 0.8403 0.1338 0.76167 0.0
C1318 C 0.85526 0.11308 0.76068 0.0
C1319 C 0.83286 0.14286 0.78079 0.0
C1320 C 0.83949 0.13066 0.79883 0.0
C1321 C 0.86215 0.10109 0.77858 0.0
C1322 C 0.85418 0.10964 0.79755 0.0
C1323 C 0.81198 0.10414 0.66875 0.0
H1324 H 0.80423 0.22698 0.60893 0.0
H1325 H 0.84879 0.17348 0.57882 0.0
H1326 H 0.79256 0.24373 0.57548 0.0
H1327 H 0.80949 0.22674 0.54373 0.0
H1328 H 0.8615 0.10609 0.74617 0.0
H1329 H 0.82133 0.15894 0.78161 0.0
H1330 H 0.87365 0.08505 0.77775 0.0
H1331 H 0.85981 0.10015 0.81124 0.0
C1332 C 0.35572 0.92037 0.04613 0.0
C1333 C 0.35283 0.88845 0.04873 0.0
C1334 C 0.38624 0.94782 0.03849 0.0
C1335 C 0.41504 0.94443 0.03321 0.0
H1336 H 0.33458 0.92437 0.05056 0.0
H1337 H 0.38772 0.97223 0.03727 0.0
S1338 S 0.42084 0.86631 0.03794 0.0
N1339 N 0.3812 0.85494 0.04552 0.0
N1340 N 0.43881 0.90667 0.03173 0.0
C1341 C 0.41223 0.91247 0.03545 0.0
C1342 C 0.38101 0.88444 0.04301 0.0
C1343 C 0.11031 0.4828 0.04115 0.0
C1344 C 0.10471 0.44966 0.04319 0.0
C1345 C 0.08328 0.48844 0.03513 0.0
C1346 C 0.04975 0.46111 0.0311 0.0
H1347 H 0.13569 0.50445 0.04431 0.0
H1348 H 0.08846 0.51429 0.03414 0.0
S1349 S 0.02135 0.36975 0.03476 0.0
N1350 N 0.06293 0.38931 0.04092 0.0
N1351 N 0.01229 0.40001 0.02995 0.0
C1352 C 0.04382 0.42801 0.03327 0.0
C1353 C 0.0713 0.42225 0.0391 0.0
C1354 C 0.561 0.66668 0.02669 0.0
C1355 C 0.56494 0.67508 0.04758 0.0
C1356 C 0.54673 0.63294 0.02007 0.0
C1357 C 0.53593 0.60641 0.03407 0.0
H1358 H 0.56946 0.68639 0.01537 0.0
H1359 H 0.54545 0.62787 1.00388 0.0
S1360 S 0.53929 0.61466 0.09042 0.0
N1361 N 0.55638 0.65397 0.08224 0.0
N1362 N 0.52842 0.59051 0.06976 0.0
C1363 C 0.53878 0.61433 0.05499 0.0
C1364 C 0.55348 0.64867 0.06175 0.0
C1365 C 0.87263 0.3518 0.98754 0.0
C1366 C 0.88239 0.33591 0.97261 0.0
C1367 C 0.8959 0.38491 0.99436 0.0
C1368 C 0.93021 0.40305 0.987 0.0
H1369 H 0.84683 0.33849 0.99401 0.0
H1370 H 0.88683 0.39614 1.00559 0.0
S1371 S 0.96774 0.37234 0.94707 0.0
N1372 N 0.92776 0.34066 0.95007 0.0
N1373 N 0.9718 0.40237 0.963 0.0
C1374 C 0.93986 0.38741 0.97166 0.0
C1375 C 0.91592 0.35396 0.9645 0.0
C1376 C 0.65713 0.58028 0.99306 0.0
C1377 C 0.6616 0.55406 0.98474 0.0
C1378 C 0.62435 0.57445 0.99912 0.0
C1379 C 0.59486 0.54202 0.99761 0.0
H1380 H 0.67898 0.60587 0.99425 0.0
H1381 H 0.62195 0.59562 1.00478 0.0
S1382 S 0.59221 0.4645 0.97723 0.0
N1383 N 0.6335 0.49416 0.9757 0.0
N1384 N 0.57191 0.48334 0.98701 0.0
C1385 C 0.59888 0.51542 0.98962 0.0
C1386 C 0.63224 0.52139 0.98326 0.0
C1387 C 0.49852 0.13042 0.98528 0.0
C1388 C 0.47169 0.12219 0.97115 0.0
C1389 C 0.50273 0.10517 0.99456 0.0
C1390 C 0.4803 0.07052 0.99012 0.0
H1391 H 0.51672 0.15672 0.98902 0.0
H1392 H 0.52438 0.11312 1.00494 0.0
S1393 S 0.40538 0.03563 0.95431 0.0
N1394 N 0.4221 0.07714 0.95321 0.0
N1395 N 0.4295 0.02945 0.97085 0.0
C1396 C 0.45282 0.06192 0.97629 0.0
C1397 C 0.44859 0.08777 0.96681 0.0
C1398 C 0.63234 0.10313 0.98545 0.0
C1399 C 0.65908 0.09506 0.98461 0.0
C1400 C 0.59852 0.07888 0.99139 0.0
C1401 C 0.59052 0.04589 0.99659 0.0
H1402 H 0.637 0.12758 0.98029 0.0
H1403 H 0.57811 0.08522 0.99053 0.0
S1404 S 0.65206 0.01393 1.00081 0.0
N1405 N 0.67606 0.05337 0.99296 0.0
N1406 N 0.61224 0.00746 1.00278 0.0
C1407 C 0.61734 0.03827 0.99713 0.0
C1408 C 0.65174 0.063 0.9916 0.0
C1409 C 0.93646 0.57864 0.98109 0.0
C1410 C 0.90166 0.55258 0.97882 0.0
C1411 C 0.96288 0.57147 0.98561 0.0
C1412 C 0.95565 0.538 0.98844 0.0
H1413 H 0.9435 0.60488 0.97899 0.0
H1414 H 0.98927 0.59238 0.98703 0.0
S1415 S 0.86934 0.4603 0.98325 0.0
N1416 N 0.8616 0.49172 0.9794 0.0
N1417 N 0.91152 0.47831 0.98735 0.0
C1418 C 0.92116 0.51159 0.98588 0.0
C1419 C 0.89413 0.51887 0.98124 0.0
C1420 C 0.48379 0.37639 0.96681 0.0
C1421 C 0.46295 0.34556 0.97674 0.0
C1422 C 0.49073 0.40716 0.97557 0.0
C1423 C 0.47716 0.40862 0.9947 0.0
H1424 H 0.495 0.37675 0.95208 0.0
H1425 H 0.50703 0.43008 0.96714 0.0
S1426 S 0.42053 0.33481 0.02689 0.0
N1427 N 0.42872 0.31795 1.00673 0.0
N1428 N 0.44136 0.37623 0.02324 0.0
C1429 C 0.45645 0.37797 1.00496 0.0
C1430 C 0.44949 0.34636 0.99599 0.0
C1431 C 0.13928 0.6304 0.0438 0.0
C1432 C 0.1311 0.65162 0.05532 0.0
C1433 C 0.11342 0.60147 0.03379 0.0
C1434 C 0.07818 0.59235 0.03497 0.0
H1435 H 0.16596 0.63617 0.04257 0.0
H1436 H 0.12123 0.5858 0.02541 0.0
S1437 S 0.04326 0.63975 0.06331 0.0
N1438 N 0.08553 0.66184 0.0674 0.0
N1439 N 0.03674 0.60749 0.04856 0.0
C1440 C 0.06971 0.61361 0.04634 0.0
C1441 C 0.09619 0.64325 0.05646 0.0
C1442 C 0.37384 0.49769 0.04414 0.0
C1443 C 0.35078 0.46268 0.04669 0.0
C1444 C 0.4086 0.51005 0.03848 0.0
C1445 C 0.42138 0.48787 0.03476 0.0
H1446 H 0.36545 0.51583 0.04739 0.0
H1447 H 0.42585 0.53722 0.03752 0.0
S1448 S 0.37196 0.39417 0.03846 0.0
N1449 N 0.34326 0.40599 0.04379 0.0
N1450 N 0.40884 0.42954 0.03429 0.0
C1451 C 0.39868 0.45293 0.03693 0.0
C1452 C 0.36328 0.44026 0.04247 0.0
C1453 C 0.58709 0.93174 0.04857 0.0
C1454 C 0.57098 0.89655 0.04556 0.0
C1455 C 0.57165 0.95004 0.04166 0.0
C1456 C 0.53971 0.93406 0.03111 0.0
H1457 H 0.61166 0.9452 0.0566 0.0
H1458 H 0.58519 0.97703 0.0446 0.0
S1459 S 0.48755 0.84201 0.01894 0.0
N1460 N 0.52174 0.84608 0.03128 0.0
N1461 N 0.49284 0.88055 0.01784 0.0
C1462 C 0.52358 0.89878 0.02775 0.0
C1463 C 0.53914 0.88002 0.03512 0.0
C1464 C 0.05132 0.22013 0.37869 0.0
C1465 C 0.02227 0.22165 0.38584 0.0
C1466 C 0.0798 0.24854 0.37006 0.0
C1467 C 0.08031 0.27956 0.36839 0.0
H1468 H 0.05245 0.19704 0.38032 0.0
H1469 H 0.1021 0.24655 0.36547 0.0
S1470 S 0.01014 0.29641 0.38372 0.0
N1471 N 0.99521 0.25632 0.38974 0.0
N1472 N 0.04882 0.30974 0.37367 0.0
C1473 C 0.051 0.28108 0.37482 0.0
C1474 C 0.02188 0.25209 0.38341 0.0
C1475 C 0.73514 0.75376 0.38102 0.0
C1476 C 0.77021 0.77948 0.38239 0.0
C1477 C 0.70904 0.76104 0.37565 0.0
C1478 C 0.7169 0.79422 0.37092 0.0
H1479 H 0.72768 0.72777 0.38446 0.0
H1480 H 0.68241 0.74041 0.37502 0.0
S1481 S 0.80438 0.87095 0.37306 0.0
N1482 N 0.81126 0.83965 0.37897 0.0
N1483 N 0.76217 0.85338 0.36916 0.0
C1484 C 0.75176 0.82029 0.37248 0.0
C1485 C 0.77838 0.81289 0.3781 0.0
C1486 C 0.20494 0.97808 0.38816 0.0
C1487 C 0.22636 0.00528 0.37537 0.0
C1488 C 0.19173 0.94436 0.38173 0.0
C1489 C 0.1991 0.93674 0.36224 0.0
H1490 H 0.19947 0.98289 0.40353 0.0
H1491 H 0.17628 0.92409 0.39222 0.0
S1492 S 0.25274 0.99822 0.32273 0.0
N1493 N 0.25299 0.02204 0.34194 0.0
N1494 N 0.22894 0.95857 0.33025 0.0
C1495 C 0.21971 0.96346 0.34915 0.0
C1496 C 0.23315 0.99779 0.35563 0.0
C1497 C 0.56381 0.69065 0.3023 0.0
C1498 C 0.55009 0.66296 0.3157 0.0
C1499 C 0.58592 0.72397 0.30938 0.0
C1500 C 0.59468 0.73091 0.33014 0.0
H1501 H 0.55835 0.68643 0.28613 0.0
H1502 H 0.59652 0.74445 0.29849 0.0
S1503 S 0.56586 0.66777 0.37147 0.0
N1504 N 0.54643 0.6451 0.35086 0.0
N1505 N 0.58881 0.70743 0.36384 0.0
C1506 C 0.58091 0.70364 0.34369 0.0
C1507 C 0.55842 0.66976 0.33655 0.0
C1508 C 0.31734 0.91061 0.3169 0.0
C1509 C 0.32504 0.88431 0.31453 0.0
C1510 C 0.28408 0.90389 0.3226 0.0
C1511 C 0.25737 0.87075 0.32685 0.0
H1512 H 0.33699 0.93659 0.31383 0.0
H1513 H 0.27917 0.92489 0.3237 0.0
S1514 S 0.26369 0.79283 0.3223 0.0
N1515 N 0.30294 0.82371 0.31651 0.0
N1516 N 0.24042 0.81111 0.32734 0.0
C1517 C 0.26461 0.84417 0.32452 0.0
C1518 C 0.29843 0.85097 0.31841 0.0
C1519 C 0.16467 0.46618 0.31811 0.0
C1520 C 0.13885 0.45813 0.30326 0.0
C1521 C 0.16749 0.44073 0.32828 0.0
C1522 C 0.14466 0.40611 0.32401 0.0
H1523 H 0.18311 0.49244 0.32176 0.0
H1524 H 0.18838 0.44844 0.3392 0.0
S1525 S 0.07199 0.37169 0.28653 0.0
N1526 N 0.08987 0.41325 0.28482 0.0
N1527 N 0.09443 0.36534 0.30416 0.0
C1528 C 0.11812 0.39775 0.3095 0.0
C1529 C 0.11538 0.42374 0.2991 0.0
C1530 C 0.31296 0.39386 0.31924 0.0
C1531 C 0.32211 0.42768 0.31527 0.0
C1532 C 0.27917 0.36967 0.32489 0.0
C1533 C 0.25321 0.37834 0.32735 0.0
H1534 H 0.33186 0.38568 0.31738 0.0
H1535 H 0.27305 0.34364 0.3269 0.0
S1536 S 0.26337 0.46335 0.31938 0.0
N1537 N 0.30227 0.4687 0.31471 0.0
N1538 N 0.23876 0.42308 0.3255 0.0
C1539 C 0.2621 0.41224 0.32422 0.0
C1540 C 0.29661 0.43699 0.31829 0.0
C1541 C 0.56025 0.84798 0.31671 0.0
C1542 C 0.56732 0.88121 0.31269 0.0
C1543 C 0.587 0.84148 0.32227 0.0
C1544 C 0.62168 0.868 0.3239 0.0
H1545 H 0.53387 0.82697 0.3158 0.0
H1546 H 0.58055 0.81559 0.32517 0.0
S1547 S 0.65421 0.9589 0.31358 0.0
N1548 N 0.61192 0.94049 0.3098 0.0
N1549 N 0.66176 0.92823 0.32006 0.0
C1550 C 0.62909 0.90102 0.31933 0.0
C1551 C 0.60203 0.90767 0.3139 0.0
C1552 C 0.10505 0.68572 0.31145 0.0
C1553 C 0.12835 0.67355 0.31331 0.0
C1554 C 0.11098 0.71538 0.32162 0.0
C1555 C 0.14062 0.73429 0.33396 0.0
H1556 H 0.0826 0.67277 0.30155 0.0
H1557 H 0.09279 0.72423 0.31912 0.0
S1558 S 0.20902 0.71229 0.3442 0.0
N1559 N 0.18141 0.68172 0.32894 0.0
N1560 N 0.19294 0.73768 0.34774 0.0
C1561 C 0.1633 0.72148 0.3366 0.0
C1562 C 0.15709 0.69111 0.32634 0.0
C1563 C 0.76504 0.97474 0.39144 0.0
C1564 C 0.80045 0.98876 0.38692 0.0
C1565 C 0.73968 0.94506 0.38159 0.0
C1566 C 0.74859 0.92806 0.36675 0.0
H1567 H 0.75691 0.98608 0.40322 0.0
H1568 H 0.71292 0.93502 0.3861 0.0
S1569 S 0.83798 0.95665 0.34823 0.0
N1570 N 0.84305 0.98529 0.3655 0.0
N1571 N 0.79595 0.92923 0.34749 0.0
C1572 C 0.78397 0.94275 0.36161 0.0
C1573 C 0.80969 0.97307 0.37155 0.0
C1574 C 0.03088 0.77155 0.3806 0.0
C1575 C 0.01835 0.79439 0.38276 0.0
C1576 C 0.06556 0.78282 0.37525 0.0
C1577 C 0.08879 0.81723 0.37135 0.0
H1578 H 0.01395 0.74482 0.38356 0.0
H1579 H 0.07442 0.76459 0.37445 0.0
S1580 S 0.06943 0.88733 0.37464 0.0
N1581 N 0.03226 0.85313 0.38031 0.0
N1582 N 0.09741 0.87416 0.37048 0.0
C1583 C 0.0768 0.84033 0.37353 0.0
C1584 C 0.04155 0.82894 0.37903 0.0
C1585 C 0.21128 0.23777 0.3916 0.0
C1586 C 0.22567 0.2237 0.3783 0.0
C1587 C 0.19694 0.25689 0.38419 0.0
C1588 C 0.19616 0.26243 0.3632 0.0
H1589 H 0.21205 0.23488 0.40792 0.0
H1590 H 0.18673 0.26778 0.39501 0.0
S1591 S 0.23034 0.23126 0.32199 0.0
N1592 N 0.23713 0.21579 0.343 0.0
N1593 N 0.21187 0.25324 0.32935 0.0
C1594 C 0.21007 0.24828 0.34975 0.0
C1595 C 0.22443 0.22857 0.35723 0.0
C1596 C 0.7238 0.54987 0.71284 0.0
C1597 C 0.69361 0.5502 0.71895 0.0
C1598 C 0.75194 0.57856 0.70424 0.0
C1599 C 0.75088 0.60861 0.70142 0.0
H1600 H 0.72613 0.52762 0.71538 0.0
H1601 H 0.77521 0.57765 0.70069 0.0
S1602 S 0.67719 0.62198 0.71337 0.0
N1603 N 0.66378 0.58264 0.72048 0.0
N1604 N 0.71661 0.6364 0.70417 0.0
C1605 C 0.72031 0.60875 0.70654 0.0
C1606 C 0.69163 0.57955 0.71524 0.0
C1607 C 0.44168 0.14543 0.70833 0.0
C1608 C 0.4345 0.11184 0.71105 0.0
C1609 C 0.41526 0.15246 0.70305 0.0
C1610 C 0.38076 0.12613 0.70028 0.0
H1611 H 0.46788 0.16642 0.7103 0.0
H1612 H 0.42178 0.17865 0.70151 0.0
S1613 S 0.34787 0.03419 0.70632 0.0
N1614 N 0.38984 0.05219 0.71114 0.0
N1615 N 0.34068 0.06552 0.70105 0.0
C1616 C 0.37324 0.09262 0.70308 0.0
C1617 C 0.39997 0.08543 0.70838 0.0
C1618 C 0.91633 0.33338 0.68973 0.0
C1619 C 0.90641 0.34216 0.70816 0.0
C1620 C 0.90122 0.29936 0.68331 0.0
C1621 C 0.8759 0.27311 0.69521 0.0
H1622 H 0.93669 0.3528 0.68055 0.0
H1623 H 0.91027 0.29354 0.66936 0.0
S1624 S 0.83726 0.28318 0.74303 0.0
N1625 N 0.86696 0.3222 0.73693 0.0
N1626 N 0.83903 0.25842 0.72512 0.0
C1627 C 0.86466 0.28175 0.71314 0.0
C1628 C 0.87981 0.31623 0.71956 0.0
C1629 C 0.25403 0.01568 0.64663 0.0
C1630 C 0.21788 0.00199 0.64583 0.0
C1631 C 0.27621 0.04935 0.65264 0.0
C1632 C 0.26319 0.07076 0.65825 0.0
H1633 H 0.26535 0.0002 0.64254 0.0
H1634 H 0.30376 0.05837 0.65325 0.0
S1635 S 0.17051 0.04756 0.65824 0.0
N1636 N 0.16994 0.01248 0.65086 0.0
N1637 N 0.21175 0.07612 0.66199 0.0
C1638 C 0.22708 0.05756 0.6573 0.0
C1639 C 0.20441 0.02316 0.65107 0.0
C1640 C 0.96605 0.17458 0.64857 0.0
C1641 C 0.99167 0.20908 0.64991 0.0
C1642 C 0.93149 0.16347 0.65399 0.0
C1643 C 0.9212 0.18627 0.66124 0.0
H1644 H 0.97263 0.15609 0.6429 0.0
H1645 H 0.9124 0.13684 0.65206 0.0
S1646 S 0.97752 0.27942 0.66652 0.0
N1647 N 1.00397 0.26614 0.65854 0.0
N1648 N 0.93894 0.24509 0.66854 0.0
C1649 C 0.94647 0.22076 0.66281 0.0
C1650 C 0.98174 0.23215 0.65731 0.0
C1651 C 0.82249 0.79005 0.65182 0.0
C1652 C 0.79607 0.77965 0.63715 0.0
C1653 C 0.82969 0.76664 0.66103 0.0
C1654 C 0.81039 0.73175 0.6562 0.0
H1655 H 0.8384 0.81666 0.65581 0.0
H1656 H 0.85104 0.77625 0.67176 0.0
S1657 S 0.73704 0.69161 0.61928 0.0
N1658 N 0.74986 0.73245 0.61848 0.0
N1659 N 0.76271 0.68809 0.63599 0.0
C1660 C 0.78337 0.72101 0.64174 0.0
C1661 C 0.77637 0.74502 0.63219 0.0
C1662 C 0.96492 0.77207 0.65566 0.0
C1663 C 0.99323 0.76634 0.65498 0.0
C1664 C 0.93151 0.74593 0.66089 0.0
C1665 C 0.92549 0.71329 0.6654 0.0
H1666 H 0.9685 0.79664 0.65166 0.0
H1667 H 0.91008 0.75083 0.66046 0.0
S1668 S 0.99062 0.6854 0.66638 0.0
N1669 N 0.01287 0.72571 0.65989 0.0
N1670 N 0.95023 0.67684 0.66945 0.0
C1671 C 0.95362 0.70754 0.66525 0.0
C1672 C 0.9875 0.73404 0.66021 0.0
C1673 C 0.23146 0.19058 0.64946 0.0
C1674 C 0.23937 0.2244 0.64666 0.0
C1675 C 0.25721 0.18298 0.65546 0.0
C1676 C 0.29163 0.20897 0.65901 0.0
H1677 H 0.20556 0.16983 0.64626 0.0
H1678 H 0.25041 0.15666 0.65666 0.0
S1679 S 0.32477 0.30142 0.65656 0.0
N1680 N 0.28345 0.28395 0.65011 0.0
N1681 N 0.33164 0.26957 0.66075 0.0
C1682 C 0.29949 0.24272 0.65698 0.0
C1683 C 0.2734 0.25047 0.6511 0.0
C1684 C 0.82413 0.03968 0.63924 0.0
C1685 C 0.79919 0.00852 0.64741 0.0
C1686 C 0.82788 0.07018 0.64654 0.0
C1687 C 0.80716 0.07089 0.66248 0.0
H1688 H 0.84041 0.04046 0.62672 0.0
H1689 H 0.8473 0.09352 0.63957 0.0
S1690 S 0.73891 0.99646 0.6897 0.0
N1691 N 0.75377 0.98002 0.6726 0.0
N1692 N 0.76143 0.03803 0.6867 0.0
C1693 C 0.78264 0.04009 0.67122 0.0
C1694 C 0.7784 0.0087 0.66352 0.0
C1695 C 0.47498 0.30074 0.70927 0.0
C1696 C 0.46772 0.31853 0.72427 0.0
C1697 C 0.44841 0.27168 0.69977 0.0
C1698 C 0.41324 0.25923 0.70462 0.0
H1699 H 0.50155 0.30921 0.7049 0.0
H1700 H 0.4558 0.25863 0.68878 0.0
S1701 S 0.38041 0.29628 0.74337 0.0
N1702 N 0.42295 0.3212 0.74406 0.0
N1703 N 0.37281 0.26732 0.72571 0.0
C1704 C 0.40557 0.27705 0.7195 0.0
C1705 C 0.4328 0.30653 0.72936 0.0
C1706 C 0.69198 0.10814 0.70371 0.0
C1707 C 0.68077 0.13048 0.71069 0.0
C1708 C 0.72665 0.12013 0.69796 0.0
C1709 C 0.7512 0.15496 0.69863 0.0
H1710 H 0.67415 0.08103 0.70343 0.0
H1711 H 0.73457 0.10196 0.6937 0.0
S1712 S 0.73501 0.22423 0.71423 0.0
N1713 N 0.69693 0.18938 0.71667 0.0
N1714 N 0.76199 0.21165 0.70622 0.0
C1715 C 0.74022 0.17756 0.70509 0.0
C1716 C 0.70504 0.16544 0.71091 0.0
C1717 C 0.87846 0.5497 0.70202 0.0
C1718 C 0.90409 0.56233 0.71733 0.0
C1719 C 0.86285 0.5683 0.69561 0.0
C1720 C 0.87245 0.60038 0.70412 0.0
H1721 H 0.87109 0.5257 0.69456 0.0
H1722 H 0.84344 0.55751 0.68373 0.0
S1723 S 0.93446 0.64177 0.74721 0.0
N1724 N 0.93542 0.60659 0.74257 0.0
N1725 N 0.90667 0.64173 0.73062 0.0
C1726 C 0.89676 0.61225 0.72031 0.0
C1727 C 0.91248 0.59325 0.72682 0.0
C1728 C 0.52723 0.9898 0.18703 0.0
C1729 C 0.49288 0.96455 0.19134 0.0
C1730 C 0.53638 0.00591 0.16808 0.0
C1731 C 0.51167 0.99762 0.15245 0.0
H1732 H 0.54718 0.99804 0.19864 0.0
H1733 H 0.56311 0.02547 0.16574 0.0
S1734 S 0.41848 0.93187 0.15533 0.0
N1735 N 0.43433 0.93066 0.17785 0.0
N1736 N 0.45136 0.96155 0.1424 0.0
C1737 C 0.47739 0.97173 0.15628 0.0
C1738 C 0.46804 0.95521 0.17566 0.0
C1739 C 0.03668 0.5053 0.16874 0.0
C1740 C 0.03808 0.52856 0.18353 0.0
C1741 C 0.01648 0.49825 0.15104 0.0
C1742 C 0.99681 0.51412 0.14746 0.0
H1743 H 0.05135 0.49244 0.17085 0.0
H1744 H 0.01617 0.48015 0.14009 0.0
S1745 S 0.99306 0.57845 0.18078 0.0
N1746 N 0.01903 0.5684 0.19299 0.0
N1747 N 0.98091 0.55496 0.15981 0.0
C1748 C 0.99791 0.53737 0.16211 0.0
C1749 C 0.01855 0.54462 0.18012 0.0
C1750 C 0.51202 0.52033 0.17886 0.0
C1751 C 0.48854 0.49591 0.1925 0.0
C1752 C 0.51815 0.51085 0.1595 0.0
C1753 C 0.50164 0.47657 0.15332 0.0
H1754 H 0.52586 0.54689 0.18325 0.0
H1755 H 0.53661 0.53036 0.14951 0.0
S1756 S 0.43786 0.403 0.18326 0.0
N1757 N 0.44839 0.43609 0.19829 0.0
N1758 N 0.46046 0.41833 0.16217 0.0
C1759 C 0.47796 0.45203 0.16674 0.0
C1760 C 0.47126 0.46168 0.18625 0.0
C1761 C 0.02852 0.47503 0.83711 0.0
C1762 C 0.0138 0.49412 0.83 0.0
C1763 C 0.03899 0.47722 0.85745 0.0
C1764 C 0.03512 0.49855 0.87156 0.0
H1765 H 0.03235 0.45849 0.82678 0.0
H1766 H 0.05059 0.46236 0.86213 0.0
S1767 S 0.99819 0.55396 0.86075 0.0
N1768 N 0.99578 0.535 0.83874 0.0
N1769 N 0.01538 0.53903 0.87704 0.0
C1770 C 0.01967 0.51716 0.86482 0.0
C1771 C 0.00902 0.51497 0.84404 0.0
C1772 C 0.54804 0.50583 0.85456 0.0
C1773 C 0.52507 0.48505 0.83915 0.0
C1774 C 0.53591 0.51463 0.87201 0.0
C1775 C 0.50036 0.50323 0.87465 0.0
H1776 H 0.57554 0.51466 0.85338 0.0
H1777 H 0.55452 0.53044 0.88355 0.0
S1778 S 0.42965 0.44919 0.83843 0.0
N1779 N 0.46524 0.45432 0.82732 0.0
N1780 N 0.44237 0.47033 0.86023 0.0
C1781 C 0.47719 0.48295 0.85918 0.0
C1782 C 0.48954 0.47395 0.84143 0.0
C1783 C 0.5301 0.03688 0.84953 0.0
C1784 C 0.50519 0.02844 0.83395 0.0
C1785 C 0.52092 0.02111 0.86871 0.0
C1786 C 0.48651 0.99601 0.87302 0.0
H1787 H 0.55701 0.05558 0.84681 0.0
H1788 H 0.54111 0.02777 0.87999 0.0
S1789 S 0.41115 0.96541 0.83794 0.0
N1790 N 0.44437 0.99343 0.8245 0.0
N1791 N 0.42717 0.96484 0.86049 0.0
C1792 C 0.46125 0.9881 0.85781 0.0
C1793 C 0.47054 0.00401 0.83834 0.0
C1794 C 0.19015 0.31224 0.51773 0.0
C1795 C 0.15585 0.3 0.52435 0.0
C1796 C 0.20131 0.3275 0.49861 0.0
C1797 C 0.17851 0.3307 0.48516 0.0
H1798 H 0.20892 0.3112 0.52774 0.0
H1799 H 0.22822 0.33743 0.49445 0.0
S1800 S 0.08544 0.30068 0.49455 0.0
N1801 N 0.09871 0.29066 0.51549 0.0
N1802 N 0.1196 0.319 0.47948 0.0
C1803 C 0.1438 0.31737 0.49123 0.0
C1804 C 0.13253 0.30221 0.51084 0.0
C1805 C 0.69158 0.83958 0.50878 0.0
C1806 C 0.69497 0.86505 0.52247 0.0
C1807 C 0.67355 0.83373 0.49031 0.0
C1808 C 0.65791 0.85286 0.48496 0.0
H1809 H 0.70373 0.82466 0.51213 0.0
H1810 H 0.67189 0.81411 0.48012 0.0
S1811 S 0.6583 0.92173 0.51583 0.0
N1812 N 0.68036 0.90885 0.52971 0.0
N1813 N 0.64666 0.89801 0.49495 0.0
C1814 C 0.66055 0.87795 0.49869 0.0
C1815 C 0.67908 0.88404 0.51743 0.0
C1816 C 0.16209 0.85675 0.51253 0.0
C1817 C 0.15272 0.83238 0.52793 0.0
C1818 C 0.17288 0.852 0.49326 0.0
C1819 C 0.17507 0.82285 0.4887 0.0
H1820 H 0.16165 0.87997 0.51551 0.0
H1821 H 0.18084 0.87191 0.48211 0.0
S1822 S 0.15184 0.7506 0.52324 0.0
N1823 N 0.1454 0.77748 0.537 0.0
N1824 N 0.165 0.76837 0.50074 0.0
C1825 C 0.16468 0.79779 0.50371 0.0
C1826 C 0.15363 0.80257 0.5233 0.0
C1827 C 0.64902 0.80323 0.1827 0.0
C1828 C 0.669 0.8295 0.16903 0.0
C1829 C 0.6605 0.80393 0.20269 0.0
C1830 C 0.6926 0.83065 0.20955 0.0
H1831 H 0.62468 0.78166 0.17776 0.0
H1832 H 0.64483 0.78277 0.21257 0.0
S1833 S 0.75387 0.90624 0.1801 0.0
N1834 N 0.72177 0.88357 0.16403 0.0
N1835 N 0.74333 0.88479 0.20158 0.0
C1836 C 0.7123 0.85754 0.19626 0.0
C1837 C 0.70047 0.85702 0.17601 0.0
C1838 C 0.17332 0.78328 0.18997 0.0
C1839 C 0.18952 0.80768 0.17464 0.0
C1840 C 0.15988 0.79028 0.20751 0.0
C1841 C 0.16201 0.82193 0.21041 0.0
H1842 H 0.17073 0.75842 0.18831 0.0
H1843 H 0.14732 0.77059 0.21878 0.0
S1844 S 0.20412 0.89537 0.17564 0.0
N1845 N 0.20843 0.86535 0.16404 0.0
N1846 N 0.18301 0.87844 0.19695 0.0
C1847 C 0.1784 0.84666 0.19531 0.0
C1848 C 0.19215 0.83955 0.17745 0.0
C1849 C 0.18949 0.35089 0.17489 0.0
C1850 C 0.17699 0.37239 0.1688 0.0
C1851 C 0.17998 0.33415 0.19366 0.0
C1852 C 0.15819 0.33882 0.20723 0.0
H1853 H 0.20558 0.34585 0.16469 0.0
H1854 H 0.18913 0.31684 0.19743 0.0
S1855 S 0.12041 0.39418 0.19915 0.0
N1856 N 0.14284 0.39851 0.1782 0.0
N1857 N 0.12564 0.36765 0.21371 0.0
C1858 C 0.14671 0.36133 0.20173 0.0
C1859 C 0.15589 0.37792 0.18244 0.0
C1860 C 0.80529 0.63381 0.84478 0.0
C1861 C 0.83077 0.64274 0.86004 0.0
C1862 C 0.81374 0.64921 0.8255 0.0
C1863 C 0.8479 0.67446 0.82084 0.0
H1864 H 0.77856 0.61496 0.84782 0.0
H1865 H 0.79319 0.64208 0.8144 0.0
S1866 S 0.92438 0.70645 0.8551 0.0
N1867 N 0.89177 0.67831 0.86888 0.0
N1868 N 0.90756 0.70658 0.83274 0.0
C1869 C 0.87369 0.68303 0.83578 0.0
C1870 C 0.86517 0.66737 0.85531 0.0
C1871 C 0.33849 0.16506 0.85077 0.0
C1872 C 0.37062 0.19528 0.85253 0.0
C1873 C 0.31778 0.15788 0.83326 0.0
C1874 C 0.32848 0.1807 0.81691 0.0
H1875 H 0.32968 0.1465 0.86282 0.0
H1876 H 0.29365 0.13393 0.83228 0.0
S1877 S 0.40832 0.26516 0.81509 0.0
N1878 N 0.4107 0.24941 0.83719 0.0
N1879 N 0.37184 0.23595 0.80436 0.0
C1880 C 0.35996 0.2115 0.81881 0.0
C1881 C 0.38101 0.21878 0.83658 0.0
C1882 C 0.84062 0.18332 0.84453 0.0
C1883 C 0.81861 0.15854 0.85847 0.0
C1884 C 0.84654 0.17418 0.82505 0.0
C1885 C 0.83127 0.13992 0.81901 0.0
H1886 H 0.85344 0.20994 0.84876 0.0
H1887 H 0.86386 0.194 0.81482 0.0
S1888 S 0.77144 0.06544 0.84976 0.0
N1889 N 0.78114 0.09838 0.86475 0.0
N1890 N 0.79271 0.08123 0.82832 0.0
C1891 C 0.80904 0.11497 0.83274 0.0
C1892 C 0.80258 0.12427 0.85242 0.0
C1893 C 0.34591 0.13869 0.50669 0.0
C1894 C 0.32563 0.15336 0.50158 0.0
C1895 C 0.36026 0.14274 0.52619 0.0
C1896 C 0.35493 0.16158 0.54142 0.0
H1897 H 0.35163 0.12477 0.49534 0.0
H1898 H 0.37594 0.13121 0.52931 0.0
S1899 S 0.30255 0.20391 0.53616 0.0
N1900 N 0.29953 0.18612 0.51365 0.0
N1901 N 0.32734 0.19456 0.55018 0.0
C1902 C 0.33405 0.17576 0.53669 0.0
C1903 C 0.31932 0.17155 0.5168 0.0
C1904 C 0.88334 0.17781 0.52194 0.0
C1905 C 0.86127 0.16361 0.50497 0.0
C1906 C 0.87338 0.18974 0.53894 0.0
C1907 C 0.84074 0.18766 0.53981 0.0
H1908 H 0.90849 0.17947 0.52212 0.0
H1909 H 0.89139 0.20048 0.55159 0.0
S1910 S 0.77309 0.1519 0.49939 0.0
N1911 N 0.80545 0.14818 0.48993 0.0
N1912 N 0.78621 0.16985 0.52208 0.0
C1913 C 0.81858 0.17392 0.52277 0.0
C1914 C 0.82895 0.16206 0.50534 0.0
C1915 C 0.81231 0.66852 0.50731 0.0
C1916 C 0.84619 0.69498 0.50321 0.0
C1917 C 0.80359 0.65213 0.52619 0.0
C1918 C 0.82828 0.66139 0.54193 0.0
H1919 H 0.79247 0.65959 0.4956 0.0
H1920 H 0.77725 0.63163 0.52838 0.0
S1921 S 0.92023 0.73037 0.53957 0.0
N1922 N 0.9042 0.73093 0.517 0.0
N1923 N 0.88798 0.69961 0.55232 0.0
C1924 C 0.86204 0.68845 0.5383 0.0
C1925 C 0.87096 0.70522 0.519 0.0
loop_
_geom_bond_atom_site_label_1
_geom_bond_atom_site_label_2
_geom_bond_distance
_geom_bond_site_symmetry_2
_ccdc_geom_bond_type
P0 O11 1.490 . S
P0 C14 1.812 . S
P0 C20 1.803 . S
P0 C26 1.819 . S
H1 C15 0.941 . S
H2 C16 0.939 . S
H3 C18 0.940 . S
H4 C19 0.940 . S
H5 C21 0.939 . S
H6 C22 0.942 . S
H7 C24 0.940 . S
H8 C25 0.939 . S
H9 C27 0.941 . S
H10 C31 0.939 . S
O11 P0 1.490 . S
H12 C28 0.939 . S
H13 C30 0.940 . S
C14 P0 1.812 . S
C14 C15 1.389 . S
C14 C19 1.391 . S
C15 H1 0.941 . S
C15 C14 1.389 . S
C15 C16 1.397 . S
C16 H2 0.939 . S
C16 C15 1.397 . S
C16 C17 1.378 . S
C17 C16 1.378 . S
C17 C18 1.378 . S
C18 H3 0.940 . S
C18 C17 1.378 . S
C18 C19 1.396 . S
C19 H4 0.940 . S
C19 C14 1.391 . S
C19 C18 1.396 . S
C20 P0 1.803 . S
C20 C21 1.378 . S
C20 C25 1.400 . S
C21 H5 0.939 . S
C21 C20 1.378 . S
C21 C22 1.361 . S
C22 H6 0.942 . S
C22 C21 1.361 . S
C22 C23 1.369 . S
C23 C22 1.369 . S
C23 C24 1.404 . S
C24 H7 0.940 . S
C24 C23 1.404 . S
C24 C25 1.389 . S
C25 H8 0.939 . S
C25 C20 1.400 . S
C25 C24 1.389 . S
C26 P0 1.819 . S
C26 C27 1.391 . S
C26 C31 1.391 . S
C27 H9 0.941 . S
C27 C26 1.391 . S
C27 C28 1.396 . S
C28 H12 0.939 . S
C28 C27 1.396 . S
C28 C29 1.397 . S
C29 C28 1.397 . S
C29 C30 1.385 . S
C30 H13 0.940 . S
C30 C29 1.385 . S
C30 C31 1.388 . S
C31 H10 0.939 . S
C31 C26 1.391 . S
C31 C30 1.388 . S
P32 O43 1.490 . S
P32 C46 1.812 . S
P32 C52 1.803 . S
P32 C58 1.819 . S
H33 C47 0.941 . S
H34 C48 0.939 . S
H35 C50 0.940 . S
H36 C51 0.940 . S
H37 C53 0.939 . S
H38 C54 0.942 1_455 S
H39 C56 0.940 . S
H40 C57 0.939 . S
H41 C59 0.941 . S
H42 C63 0.939 . S
O43 P32 1.490 . S
H44 C60 0.939 . S
H45 C62 0.940 . S
C46 P32 1.812 . S
C46 C47 1.389 . S
C46 C51 1.391 . S
C47 H33 0.941 . S
C47 C46 1.389 . S
C47 C48 1.397 . S
C48 H34 0.939 . S
C48 C47 1.397 . S
C48 C49 1.378 . S
C49 C48 1.378 . S
C49 C50 1.378 . S
C50 H35 0.940 . S
C50 C49 1.378 . S
C50 C51 1.396 . S
C51 H36 0.940 . S
C51 C46 1.391 . S
C51 C50 1.396 . S
C52 P32 1.803 . S
C52 C53 1.378 . S
C52 C57 1.400 . S
C53 H37 0.939 . S
C53 C52 1.378 . S
C53 C54 1.361 . S
C54 H38 0.942 1_655 S
C54 C53 1.361 . S
C54 C55 1.369 . S
C55 C54 1.369 . S
C55 C56 1.404 . S
C56 H39 0.940 . S
C56 C55 1.404 . S
C56 C57 1.389 . S
C57 H40 0.939 . S
C57 C52 1.400 . S
C57 C56 1.389 . S
C58 P32 1.819 . S
C58 C59 1.391 . S
C58 C63 1.391 . S
C59 H41 0.941 . S
C59 C58 1.391 . S
C59 C60 1.396 . S
C60 H44 0.939 . S
C60 C59 1.396 . S
C60 C61 1.397 . S
C61 C60 1.397 . S
C61 C62 1.385 . S
C62 H45 0.940 . S
C62 C61 1.385 . S
C62 C63 1.388 . S
C63 H42 0.939 . S
C63 C58 1.391 . S
C63 C62 1.388 . S
P64 O75 1.490 . S
P64 C78 1.812 . S
P64 C84 1.803 . S
P64 C90 1.819 . S
H65 C79 0.941 . S
H66 C80 0.939 . S
H67 C82 0.940 . S
H68 C83 0.940 . S
H69 C85 0.939 . S
H70 C86 0.942 . S
H71 C88 0.940 . S
H72 C89 0.939 . S
H73 C91 0.941 . S
H74 C95 0.939 . S
O75 P64 1.490 . S
H76 C92 0.939 . S
H77 C94 0.940 . S
C78 P64 1.812 . S
C78 C79 1.389 . S
C78 C83 1.391 . S
C79 H65 0.941 . S
C79 C78 1.389 . S
C79 C80 1.397 . S
C80 H66 0.939 . S
C80 C79 1.397 . S
C80 C81 1.378 . S
C81 C80 1.378 . S
C81 C82 1.378 . S
C82 H67 0.940 . S
C82 C81 1.378 . S
C82 C83 1.396 . S
C83 H68 0.940 . S
C83 C78 1.391 . S
C83 C82 1.396 . S
C84 P64 1.803 . S
C84 C85 1.378 . S
C84 C89 1.400 . S
C85 H69 0.939 . S
C85 C84 1.378 . S
C85 C86 1.361 . S
C86 H70 0.942 . S
C86 C85 1.361 . S
C86 C87 1.369 . S
C87 C86 1.369 . S
C87 C88 1.404 . S
C88 H71 0.940 . S
C88 C87 1.404 . S
C88 C89 1.389 . S
C89 H72 0.939 . S
C89 C84 1.400 . S
C89 C88 1.389 . S
C90 P64 1.819 . S
C90 C91 1.391 . S
C90 C95 1.391 . S
C91 H73 0.941 . S
C91 C90 1.391 . S
C91 C92 1.396 . S
C92 H76 0.939 . S
C92 C91 1.396 . S
C92 C93 1.397 . S
C93 C92 1.397 . S
C93 C94 1.385 . S
C94 H77 0.940 . S
C94 C93 1.385 . S
C94 C95 1.388 . S
C95 H74 0.939 . S
C95 C90 1.391 . S
C95 C94 1.388 . S
P96 O107 1.490 . S
P96 C110 1.812 . S
P96 C116 1.803 . S
P96 C122 1.819 . S
H97 C111 0.941 . S
H98 C112 0.939 . S
H99 C114 0.940 . S
H100 C115 0.940 . S
H101 C117 0.939 . S
H102 C118 0.942 . S
H103 C120 0.940 . S
H104 C121 0.939 . S
H105 C123 0.941 . S
H106 C127 0.939 . S
O107 P96 1.490 . S
H108 C124 0.939 . S
H109 C126 0.940 . S
C110 P96 1.812 . S
C110 C111 1.389 . S
C110 C115 1.391 . S
C111 H97 0.941 . S
C111 C110 1.389 . S
C111 C112 1.397 . S
C112 H98 0.939 . S
C112 C111 1.397 . S
C112 C113 1.378 . S
C113 C112 1.378 . S
C113 C114 1.378 . S
C114 H99 0.940 . S
C114 C113 1.378 . S
C114 C115 1.396 . S
C115 H100 0.940 . S
C115 C110 1.391 . S
C115 C114 1.396 . S
C116 P96 1.803 . S
C116 C117 1.378 . S
C116 C121 1.400 . S
C117 H101 0.939 . S
C117 C116 1.378 . S
C117 C118 1.361 . S
C118 H102 0.942 . S
C118 C117 1.361 . S
C118 C119 1.369 . S
C119 C118 1.369 . S
C119 C120 1.404 . S
C120 H103 0.940 . S
C120 C119 1.404 . S
C120 C121 1.389 . S
C121 H104 0.939 . S
C121 C116 1.400 . S
C121 C120 1.389 . S
C122 P96 1.819 . S
C122 C123 1.391 . S
C122 C127 1.391 . S
C123 H105 0.941 . S
C123 C122 1.391 . S
C123 C124 1.396 . S
C124 H108 0.939 . S
C124 C123 1.396 . S
C124 C125 1.397 . S
C125 C124 1.397 . S
C125 C126 1.385 . S
C126 H109 0.940 . S
C126 C125 1.385 . S
C126 C127 1.388 . S
C127 H106 0.939 . S
C127 C122 1.391 . S
C127 C126 1.388 . S
P128 O139 1.490 . S
P128 C142 1.812 . S
P128 C148 1.803 . S
P128 C154 1.819 . S
H129 C143 0.941 . S
H130 C144 0.939 . S
H131 C146 0.940 . S
H132 C147 0.940 . S
H133 C149 0.939 . S
H134 C150 0.942 . S
H135 C152 0.940 . S
H136 C153 0.939 . S
H137 C155 0.941 . S
H138 C159 0.939 . S
O139 P128 1.490 . S
H140 C156 0.939 . S
H141 C158 0.940 . S
C142 P128 1.812 . S
C142 C143 1.389 . S
C142 C147 1.391 . S
C143 H129 0.941 . S
C143 C142 1.389 . S
C143 C144 1.397 . S
C144 H130 0.939 . S
C144 C143 1.397 . S
C144 C145 1.378 . S
C145 C144 1.378 . S
C145 C146 1.378 . S
C146 H131 0.940 . S
C146 C145 1.378 . S
C146 C147 1.396 . S
C147 H132 0.940 . S
C147 C142 1.391 . S
C147 C146 1.396 . S
C148 P128 1.803 . S
C148 C149 1.378 . S
C148 C153 1.400 . S
C149 H133 0.939 . S
C149 C148 1.378 . S
C149 C150 1.361 . S
C150 H134 0.942 . S
C150 C149 1.361 . S
C150 C151 1.369 . S
C151 C150 1.369 . S
C151 C152 1.404 . S
C152 H135 0.940 . S
C152 C151 1.404 . S
C152 C153 1.389 . S
C153 H136 0.939 . S
C153 C148 1.400 . S
C153 C152 1.389 . S
C154 P128 1.819 . S
C154 C155 1.391 . S
C154 C159 1.391 . S
C155 H137 0.941 . S
C155 C154 1.391 . S
C155 C156 1.396 . S
C156 H140 0.939 . S
C156 C155 1.396 . S
C156 C157 1.397 . S
C157 C156 1.397 . S
C157 C158 1.385 . S
C158 H141 0.940 . S
C158 C157 1.385 . S
C158 C159 1.388 . S
C159 H138 0.939 . S
C159 C154 1.391 . S
C159 C158 1.388 . S
P160 O171 1.490 . S
P160 C174 1.812 . S
P160 C180 1.803 . S
P160 C186 1.819 . S
H161 C175 0.941 . S
H162 C176 0.939 . S
H163 C178 0.940 . S
H164 C179 0.940 . S
H165 C181 0.939 . S
H166 C182 0.942 . S
H167 C184 0.940 . S
H168 C185 0.939 . S
H169 C187 0.941 . S
H170 C191 0.939 . S
O171 P160 1.490 . S
H172 C188 0.939 . S
H173 C190 0.940 . S
C174 P160 1.812 . S
C174 C175 1.389 . S
C174 C179 1.391 . S
C175 H161 0.941 . S
C175 C174 1.389 . S
C175 C176 1.397 . S
C176 H162 0.939 . S
C176 C175 1.397 . S
C176 C177 1.378 . S
C177 C176 1.378 . S
C177 C178 1.378 . S
C178 H163 0.940 . S
C178 C177 1.378 . S
C178 C179 1.396 . S
C179 H164 0.940 . S
C179 C174 1.391 . S
C179 C178 1.396 . S
C180 P160 1.803 . S
C180 C181 1.378 . S
C180 C185 1.400 . S
C181 H165 0.939 . S
C181 C180 1.378 . S
C181 C182 1.361 . S
C182 H166 0.942 . S
C182 C181 1.361 . S
C182 C183 1.369 . S
C183 C182 1.369 . S
C183 C184 1.404 . S
C184 H167 0.940 . S
C184 C183 1.404 . S
C184 C185 1.389 . S
C185 H168 0.939 . S
C185 C180 1.400 . S
C185 C184 1.389 . S
C186 P160 1.819 . S
C186 C187 1.391 . S
C186 C191 1.391 . S
C187 H169 0.941 . S
C187 C186 1.391 . S
C187 C188 1.396 . S
C188 H172 0.939 . S
C188 C187 1.396 . S
C188 C189 1.397 . S
C189 C188 1.397 . S
C189 C190 1.385 . S
C190 H173 0.940 . S
C190 C189 1.385 . S
C190 C191 1.388 . S
C191 H170 0.939 . S
C191 C186 1.391 . S
C191 C190 1.388 . S
P192 O203 1.490 . S
P192 C206 1.812 . S
P192 C212 1.803 . S
P192 C218 1.819 . S
H193 C207 0.941 . S
H194 C208 0.939 . S
H195 C210 0.940 . S
H196 C211 0.940 . S
H197 C213 0.939 . S
H198 C214 0.942 . S
H199 C216 0.940 . S
H200 C217 0.939 . S
H201 C219 0.941 . S
H202 C223 0.939 . S
O203 P192 1.490 . S
H204 C220 0.939 . S
H205 C222 0.940 . S
C206 P192 1.812 . S
C206 C207 1.389 . S
C206 C211 1.391 . S
C207 H193 0.941 . S
C207 C206 1.389 . S
C207 C208 1.397 . S
C208 H194 0.939 . S
C208 C207 1.397 . S
C208 C209 1.378 . S
C209 C208 1.378 . S
C209 C210 1.378 . S
C210 H195 0.940 . S
C210 C209 1.378 . S
C210 C211 1.396 . S
C211 H196 0.940 . S
C211 C206 1.391 . S
C211 C210 1.396 . S
C212 P192 1.803 . S
C212 C213 1.378 . S
C212 C217 1.400 . S
C213 H197 0.939 . S
C213 C212 1.378 . S
C213 C214 1.361 . S
C214 H198 0.942 . S
C214 C213 1.361 . S
C214 C215 1.369 . S
C215 C214 1.369 . S
C215 C216 1.404 . S
C216 H199 0.940 . S
C216 C215 1.404 . S
C216 C217 1.389 . S
C217 H200 0.939 . S
C217 C212 1.400 . S
C217 C216 1.389 . S
C218 P192 1.819 . S
C218 C219 1.391 . S
C218 C223 1.391 . S
C219 H201 0.941 . S
C219 C218 1.391 . S
C219 C220 1.396 . S
C220 H204 0.939 . S
C220 C219 1.396 . S
C220 C221 1.397 . S
C221 C220 1.397 . S
C221 C222 1.385 . S
C222 H205 0.940 . S
C222 C221 1.385 . S
C222 C223 1.388 . S
C223 H202 0.939 . S
C223 C218 1.391 . S
C223 C222 1.388 . S
P224 O235 1.490 . S
P224 C238 1.812 . S
P224 C244 1.803 . S
P224 C250 1.819 . S
H225 C239 0.941 . S
H226 C240 0.939 . S
H227 C242 0.940 . S
H228 C243 0.940 . S
H229 C245 0.939 . S
H230 C246 0.942 . S
H231 C248 0.940 . S
H232 C249 0.939 . S
H233 C251 0.941 . S
H234 C255 0.939 . S
O235 P224 1.490 . S
H236 C252 0.939 . S
H237 C254 0.940 . S
C238 P224 1.812 . S
C238 C239 1.389 . S
C238 C243 1.391 . S
C239 H225 0.941 . S
C239 C238 1.389 . S
C239 C240 1.397 . S
C240 H226 0.939 . S
C240 C239 1.397 . S
C240 C241 1.378 . S
C241 C240 1.378 . S
C241 C242 1.378 . S
C242 H227 0.940 . S
C242 C241 1.378 . S
C242 C243 1.396 . S
C243 H228 0.940 . S
C243 C238 1.391 . S
C243 C242 1.396 . S
C244 P224 1.803 . S
C244 C245 1.378 . S
C244 C249 1.400 . S
C245 H229 0.939 . S
C245 C244 1.378 . S
C245 C246 1.361 . S
C246 H230 0.942 . S
C246 C245 1.361 . S
C246 C247 1.369 . S
C247 C246 1.369 . S
C247 C248 1.404 . S
C248 H231 0.940 . S
C248 C247 1.404 . S
C248 C249 1.389 . S
C249 H232 0.939 . S
C249 C244 1.400 . S
C249 C248 1.389 . S
C250 P224 1.819 . S
C250 C251 1.391 . S
C250 C255 1.391 . S
C251 H233 0.941 . S
C251 C250 1.391 . S
C251 C252 1.396 . S
C252 H236 0.939 . S
C252 C251 1.396 . S
C252 C253 1.397 . S
C253 C252 1.397 . S
C253 C254 1.385 . S
C254 H237 0.940 . S
C254 C253 1.385 . S
C254 C255 1.388 . S
C255 H234 0.939 . S
C255 C250 1.391 . S
C255 C254 1.388 . S
P256 O267 1.490 . S
P256 C270 1.812 . S
P256 C276 1.803 . S
P256 C282 1.819 . S
H257 C271 0.941 . S
H258 C272 0.939 . S
H259 C274 0.940 . S
H260 C275 0.940 . S
H261 C277 0.939 . S
H262 C278 0.942 . S
H263 C280 0.940 . S
H264 C281 0.939 . S
H265 C283 0.941 . S
H266 C287 0.939 . S
O267 P256 1.490 . S
H268 C284 0.939 . S
H269 C286 0.940 . S
C270 P256 1.812 . S
C270 C271 1.389 . S
C270 C275 1.391 . S
C271 H257 0.941 . S
C271 C270 1.389 . S
C271 C272 1.397 . S
C272 H258 0.939 . S
C272 C271 1.397 . S
C272 C273 1.378 . S
C273 C272 1.378 . S
C273 C274 1.378 . S
C274 H259 0.940 . S
C274 C273 1.378 . S
C274 C275 1.396 . S
C275 H260 0.940 . S
C275 C270 1.391 . S
C275 C274 1.396 . S
C276 P256 1.803 . S
C276 C277 1.378 . S
C276 C281 1.400 . S
C277 H261 0.939 . S
C277 C276 1.378 . S
C277 C278 1.361 . S
C278 H262 0.942 . S
C278 C277 1.361 . S
C278 C279 1.369 . S
C279 C278 1.369 . S
C279 C280 1.404 . S
C280 H263 0.940 . S
C280 C279 1.404 . S
C280 C281 1.389 . S
C281 H264 0.939 . S
C281 C276 1.400 . S
C281 C280 1.389 . S
C282 P256 1.819 . S
C282 C283 1.391 . S
C282 C287 1.391 . S
C283 H265 0.941 . S
C283 C282 1.391 . S
C283 C284 1.396 . S
C284 H268 0.939 . S
C284 C283 1.396 . S
C284 C285 1.397 . S
C285 C284 1.397 . S
C285 C286 1.385 . S
C286 H269 0.940 . S
C286 C285 1.385 . S
C286 C287 1.388 . S
C287 H266 0.939 . S
C287 C282 1.391 . S
C287 C286 1.388 . S
P288 O299 1.490 . S
P288 C302 1.812 . S
P288 C308 1.803 . S
P288 C314 1.819 . S
H289 C303 0.941 . S
H290 C304 0.939 . S
H291 C306 0.940 . S
H292 C307 0.940 . S
H293 C309 0.939 . S
H294 C310 0.942 . S
H295 C312 0.940 . S
H296 C313 0.939 . S
H297 C315 0.941 . S
H298 C319 0.939 . S
O299 P288 1.490 . S
H300 C316 0.939 . S
H301 C318 0.940 . S
C302 P288 1.812 . S
C302 C303 1.389 . S
C302 C307 1.391 . S
C303 H289 0.941 . S
C303 C302 1.389 . S
C303 C304 1.397 . S
C304 H290 0.939 . S
C304 C303 1.397 . S
C304 C305 1.378 . S
C305 C304 1.378 . S
C305 C306 1.378 . S
C306 H291 0.940 . S
C306 C305 1.378 . S
C306 C307 1.396 . S
C307 H292 0.940 . S
C307 C302 1.391 . S
C307 C306 1.396 . S
C308 P288 1.803 . S
C308 C309 1.378 . S
C308 C313 1.400 . S
C309 H293 0.939 . S
C309 C308 1.378 . S
C309 C310 1.361 . S
C310 H294 0.942 . S
C310 C309 1.361 . S
C310 C311 1.369 . S
C311 C310 1.369 . S
C311 C312 1.404 . S
C312 H295 0.940 . S
C312 C311 1.404 . S
C312 C313 1.389 . S
C313 H296 0.939 . S
C313 C308 1.400 . S
C313 C312 1.389 . S
C314 P288 1.819 . S
C314 C315 1.391 . S
C314 C319 1.391 . S
C315 H297 0.941 . S
C315 C314 1.391 . S
C315 C316 1.396 . S
C316 H300 0.939 . S
C316 C315 1.396 . S
C316 C317 1.397 . S
C317 C316 1.397 . S
C317 C318 1.385 . S
C318 H301 0.940 . S
C318 C317 1.385 . S
C318 C319 1.388 . S
C319 H298 0.939 . S
C319 C314 1.391 . S
C319 C318 1.388 . S
P320 O331 1.490 . S
P320 C334 1.812 . S
P320 C340 1.803 . S
P320 C346 1.819 . S
H321 C335 0.941 . S
H322 C336 0.939 . S
H323 C338 0.940 . S
H324 C339 0.940 . S
H325 C341 0.939 . S
H326 C342 0.942 . S
H327 C344 0.940 . S
H328 C345 0.939 . S
H329 C347 0.941 . S
H330 C351 0.939 . S
O331 P320 1.490 . S
H332 C348 0.939 . S
H333 C350 0.940 . S
C334 P320 1.812 . S
C334 C335 1.389 . S
C334 C339 1.391 . S
C335 H321 0.941 . S
C335 C334 1.389 . S
C335 C336 1.397 . S
C336 H322 0.939 . S
C336 C335 1.397 . S
C336 C337 1.378 . S
C337 C336 1.378 . S
C337 C338 1.378 . S
C338 H323 0.940 . S
C338 C337 1.378 . S
C338 C339 1.396 . S
C339 H324 0.940 . S
C339 C334 1.391 . S
C339 C338 1.396 . S
C340 P320 1.803 . S
C340 C341 1.378 . S
C340 C345 1.400 . S
C341 H325 0.939 . S
C341 C340 1.378 . S
C341 C342 1.361 . S
C342 H326 0.942 . S
C342 C341 1.361 . S
C342 C343 1.369 . S
C343 C342 1.369 . S
C343 C344 1.404 . S
C344 H327 0.940 . S
C344 C343 1.404 . S
C344 C345 1.389 . S
C345 H328 0.939 . S
C345 C340 1.400 . S
C345 C344 1.389 . S
C346 P320 1.819 . S
C346 C347 1.391 . S
C346 C351 1.391 . S
C347 H329 0.941 . S
C347 C346 1.391 . S
C347 C348 1.396 . S
C348 H332 0.939 . S
C348 C347 1.396 . S
C348 C349 1.397 . S
C349 C348 1.397 . S
C349 C350 1.385 . S
C350 H333 0.940 . S
C350 C349 1.385 . S
C350 C351 1.388 . S
C351 H330 0.939 . S
C351 C346 1.391 . S
C351 C350 1.388 . S
P352 O363 1.490 . S
P352 C366 1.812 . S
P352 C372 1.803 . S
P352 C378 1.819 . S
H353 C367 0.941 . S
H354 C368 0.939 . S
H355 C370 0.940 . S
H356 C371 0.940 . S
H357 C373 0.939 . S
H358 C374 0.942 . S
H359 C376 0.940 . S
H360 C377 0.939 . S
H361 C379 0.941 . S
H362 C383 0.939 . S
O363 P352 1.490 . S
H364 C380 0.939 . S
H365 C382 0.940 . S
C366 P352 1.812 . S
C366 C367 1.389 . S
C366 C371 1.391 . S
C367 H353 0.941 . S
C367 C366 1.389 . S
C367 C368 1.397 . S
C368 H354 0.939 . S
C368 C367 1.397 . S
C368 C369 1.378 . S
C369 C368 1.378 . S
C369 C370 1.378 . S
C370 H355 0.940 . S
C370 C369 1.378 . S
C370 C371 1.396 . S
C371 H356 0.940 . S
C371 C366 1.391 . S
C371 C370 1.396 . S
C372 P352 1.803 . S
C372 C373 1.378 . S
C372 C377 1.400 . S
C373 H357 0.939 . S
C373 C372 1.378 . S
C373 C374 1.361 . S
C374 H358 0.942 . S
C374 C373 1.361 . S
C374 C375 1.369 . S
C375 C374 1.369 . S
C375 C376 1.404 . S
C376 H359 0.940 . S
C376 C375 1.404 . S
C376 C377 1.389 . S
C377 H360 0.939 . S
C377 C372 1.400 . S
C377 C376 1.389 . S
C378 P352 1.819 . S
C378 C379 1.391 . S
C378 C383 1.391 . S
C379 H361 0.941 . S
C379 C378 1.391 . S
C379 C380 1.396 . S
C380 H364 0.939 . S
C380 C379 1.396 . S
C380 C381 1.397 . S
C381 C380 1.397 . S
C381 C382 1.385 . S
C382 H365 0.940 . S
C382 C381 1.385 . S
C382 C383 1.388 . S
C383 H362 0.939 . S
C383 C378 1.391 . S
C383 C382 1.388 . S
P384 O395 1.490 . S
P384 C398 1.812 . S
P384 C404 1.803 . S
P384 C410 1.819 . S
H385 C399 0.941 . S
H386 C400 0.939 . S
H387 C402 0.940 . S
H388 C403 0.940 . S
H389 C405 0.939 . S
H390 C406 0.942 . S
H391 C408 0.940 . S
H392 C409 0.939 . S
H393 C411 0.941 . S
H394 C415 0.939 . S
O395 P384 1.490 . S
H396 C412 0.939 . S
H397 C414 0.940 . S
C398 P384 1.812 . S
C398 C399 1.389 . S
C398 C403 1.391 . S
C399 H385 0.941 . S
C399 C398 1.389 . S
C399 C400 1.397 . S
C400 H386 0.939 . S
C400 C399 1.397 . S
C400 C401 1.378 . S
C401 C400 1.378 . S
C401 C402 1.378 . S
C402 H387 0.940 . S
C402 C401 1.378 . S
C402 C403 1.396 . S
C403 H388 0.940 . S
C403 C398 1.391 . S
C403 C402 1.396 . S
C404 P384 1.803 . S
C404 C405 1.378 . S
C404 C409 1.400 . S
C405 H389 0.939 . S
C405 C404 1.378 . S
C405 C406 1.361 . S
C406 H390 0.942 . S
C406 C405 1.361 . S
C406 C407 1.369 . S
C407 C406 1.369 . S
C407 C408 1.404 . S
C408 H391 0.940 . S
C408 C407 1.404 . S
C408 C409 1.389 . S
C409 H392 0.939 . S
C409 C404 1.400 . S
C409 C408 1.389 . S
C410 P384 1.819 . S
C410 C411 1.391 . S
C410 C415 1.391 . S
C411 H393 0.941 . S
C411 C410 1.391 . S
C411 C412 1.396 . S
C412 H396 0.939 . S
C412 C411 1.396 . S
C412 C413 1.397 . S
C413 C412 1.397 . S
C413 C414 1.385 . S
C414 H397 0.940 . S
C414 C413 1.385 . S
C414 C415 1.388 . S
C415 H394 0.939 . S
C415 C410 1.391 . S
C415 C414 1.388 . S
P416 O427 1.490 . S
P416 C430 1.812 . S
P416 C436 1.803 . S
P416 C442 1.819 . S
H417 C431 0.941 . S
H418 C432 0.939 . S
H419 C434 0.940 . S
H420 C435 0.940 . S
H421 C437 0.939 . S
H422 C438 0.942 . S
H423 C440 0.940 . S
H424 C441 0.939 . S
H425 C443 0.941 . S
H426 C447 0.939 . S
O427 P416 1.490 . S
H428 C444 0.939 . S
H429 C446 0.940 . S
C430 P416 1.812 . S
C430 C431 1.389 . S
C430 C435 1.391 . S
C431 H417 0.941 . S
C431 C430 1.389 . S
C431 C432 1.397 . S
C432 H418 0.939 . S
C432 C431 1.397 . S
C432 C433 1.378 . S
C433 C432 1.378 . S
C433 C434 1.378 . S
C434 H419 0.940 . S
C434 C433 1.378 . S
C434 C435 1.396 . S
C435 H420 0.940 . S
C435 C430 1.391 . S
C435 C434 1.396 . S
C436 P416 1.803 . S
C436 C437 1.378 . S
C436 C441 1.400 . S
C437 H421 0.939 . S
C437 C436 1.378 . S
C437 C438 1.361 . S
C438 H422 0.942 . S
C438 C437 1.361 . S
C438 C439 1.369 . S
C439 C438 1.369 . S
C439 C440 1.404 . S
C440 H423 0.940 . S
C440 C439 1.404 . S
C440 C441 1.389 . S
C441 H424 0.939 . S
C441 C436 1.400 . S
C441 C440 1.389 . S
C442 P416 1.819 . S
C442 C443 1.391 . S
C442 C447 1.391 . S
C443 H425 0.941 . S
C443 C442 1.391 . S
C443 C444 1.396 . S
C444 H428 0.939 . S
C444 C443 1.396 . S
C444 C445 1.397 . S
C445 C444 1.397 . S
C445 C446 1.385 . S
C446 H429 0.940 . S
C446 C445 1.385 . S
C446 C447 1.388 . S
C447 H426 0.939 . S
C447 C442 1.391 . S
C447 C446 1.388 . S
P448 O459 1.490 . S
P448 C462 1.812 . S
P448 C468 1.803 . S
P448 C474 1.819 . S
H449 C463 0.941 . S
H450 C464 0.939 . S
H451 C466 0.940 . S
H452 C467 0.940 . S
H453 C469 0.939 . S
H454 C470 0.942 . S
H455 C472 0.940 . S
H456 C473 0.939 . S
H457 C475 0.941 . S
H458 C479 0.939 . S
O459 P448 1.490 . S
H460 C476 0.939 . S
H461 C478 0.940 . S
C462 P448 1.812 . S
C462 C463 1.389 . S
C462 C467 1.391 . S
C463 H449 0.941 . S
C463 C462 1.389 . S
C463 C464 1.397 . S
C464 H450 0.939 . S
C464 C463 1.397 . S
C464 C465 1.378 . S
C465 C464 1.378 . S
C465 C466 1.378 . S
C466 H451 0.940 . S
C466 C465 1.378 . S
C466 C467 1.396 . S
C467 H452 0.940 . S
C467 C462 1.391 . S
C467 C466 1.396 . S
C468 P448 1.803 . S
C468 C469 1.378 . S
C468 C473 1.400 . S
C469 H453 0.939 . S
C469 C468 1.378 . S
C469 C470 1.361 . S
C470 H454 0.942 . S
C470 C469 1.361 . S
C470 C471 1.369 . S
C471 C470 1.369 . S
C471 C472 1.404 . S
C472 H455 0.940 . S
C472 C471 1.404 . S
C472 C473 1.389 . S
C473 H456 0.939 . S
C473 C468 1.400 . S
C473 C472 1.389 . S
C474 P448 1.819 . S
C474 C475 1.391 . S
C474 C479 1.391 . S
C475 H457 0.941 . S
C475 C474 1.391 . S
C475 C476 1.396 . S
C476 H460 0.939 . S
C476 C475 1.396 . S
C476 C477 1.397 . S
C477 C476 1.397 . S
C477 C478 1.385 . S
C478 H461 0.940 . S
C478 C477 1.385 . S
C478 C479 1.388 . S
C479 H458 0.939 . S
C479 C474 1.391 . S
C479 C478 1.388 . S
P480 O491 1.490 . S
P480 C494 1.812 . S
P480 C500 1.803 . S
P480 C506 1.819 . S
H481 C495 0.941 . S
H482 C496 0.939 . S
H483 C498 0.940 . S
H484 C499 0.940 . S
H485 C501 0.939 . S
H486 C502 0.942 . S
H487 C504 0.940 . S
H488 C505 0.939 . S
H489 C507 0.941 . S
H490 C511 0.939 . S
O491 P480 1.490 . S
H492 C508 0.939 . S
H493 C510 0.940 . S
C494 P480 1.812 . S
C494 C495 1.389 . S
C494 C499 1.391 . S
C495 H481 0.941 . S
C495 C494 1.389 . S
C495 C496 1.397 . S
C496 H482 0.939 . S
C496 C495 1.397 . S
C496 C497 1.378 . S
C497 C496 1.378 . S
C497 C498 1.378 . S
C498 H483 0.940 . S
C498 C497 1.378 . S
C498 C499 1.396 . S
C499 H484 0.940 . S
C499 C494 1.391 . S
C499 C498 1.396 . S
C500 P480 1.803 . S
C500 C501 1.378 . S
C500 C505 1.400 . S
C501 H485 0.939 . S
C501 C500 1.378 . S
C501 C502 1.361 . S
C502 H486 0.942 . S
C502 C501 1.361 . S
C502 C503 1.369 . S
C503 C502 1.369 . S
C503 C504 1.404 . S
C504 H487 0.940 . S
C504 C503 1.404 . S
C504 C505 1.389 . S
C505 H488 0.939 . S
C505 C500 1.400 . S
C505 C504 1.389 . S
C506 P480 1.819 . S
C506 C507 1.391 . S
C506 C511 1.391 . S
C507 H489 0.941 . S
C507 C506 1.391 . S
C507 C508 1.396 . S
C508 H492 0.939 . S
C508 C507 1.396 . S
C508 C509 1.397 . S
C509 C508 1.397 . S
C509 C510 1.385 . S
C510 H493 0.940 . S
C510 C509 1.385 . S
C510 C511 1.388 . S
C511 H490 0.939 . S
C511 C506 1.391 . S
C511 C510 1.388 . S
P512 O523 1.490 . S
P512 C526 1.812 . S
P512 C532 1.803 . S
P512 C538 1.819 . S
H513 C527 0.941 . S
H514 C528 0.939 . S
H515 C530 0.940 . S
H516 C531 0.940 . S
H517 C533 0.939 . S
H518 C534 0.942 . S
H519 C536 0.940 . S
H520 C537 0.939 . S
H521 C539 0.941 . S
H522 C543 0.939 . S
O523 P512 1.490 . S
H524 C540 0.939 . S
H525 C542 0.940 . S
C526 P512 1.812 . S
C526 C527 1.389 . S
C526 C531 1.391 . S
C527 H513 0.941 . S
C527 C526 1.389 . S
C527 C528 1.397 . S
C528 H514 0.939 . S
C528 C527 1.397 . S
C528 C529 1.378 . S
C529 C528 1.378 . S
C529 C530 1.378 . S
C530 H515 0.940 . S
C530 C529 1.378 . S
C530 C531 1.396 . S
C531 H516 0.940 . S
C531 C526 1.391 . S
C531 C530 1.396 . S
C532 P512 1.803 . S
C532 C533 1.378 . S
C532 C537 1.400 . S
C533 H517 0.939 . S
C533 C532 1.378 . S
C533 C534 1.361 . S
C534 H518 0.942 . S
C534 C533 1.361 . S
C534 C535 1.369 . S
C535 C534 1.369 . S
C535 C536 1.404 . S
C536 H519 0.940 . S
C536 C535 1.404 . S
C536 C537 1.389 . S
C537 H520 0.939 . S
C537 C532 1.400 . S
C537 C536 1.389 . S
C538 P512 1.819 . S
C538 C539 1.391 . S
C538 C543 1.391 . S
C539 H521 0.941 . S
C539 C538 1.391 . S
C539 C540 1.396 . S
C540 H524 0.939 . S
C540 C539 1.396 . S
C540 C541 1.397 . S
C541 C540 1.397 . S
C541 C542 1.385 . S
C542 H525 0.940 . S
C542 C541 1.385 . S
C542 C543 1.388 . S
C543 H522 0.939 . S
C543 C538 1.391 . S
C543 C542 1.388 . S
P544 O555 1.490 . S
P544 C558 1.812 . S
P544 C564 1.803 . S
P544 C570 1.819 . S
H545 C559 0.941 . S
H546 C560 0.939 . S
H547 C562 0.940 . S
H548 C563 0.940 . S
H549 C565 0.939 . S
H550 C566 0.942 . S
H551 C568 0.940 . S
H552 C569 0.939 . S
H553 C571 0.941 . S
H554 C575 0.939 . S
O555 P544 1.490 . S
H556 C572 0.939 . S
H557 C574 0.940 . S
C558 P544 1.812 . S
C558 C559 1.389 . S
C558 C563 1.391 . S
C559 H545 0.941 . S
C559 C558 1.389 . S
C559 C560 1.397 . S
C560 H546 0.939 . S
C560 C559 1.397 . S
C560 C561 1.378 . S
C561 C560 1.378 . S
C561 C562 1.378 . S
C562 H547 0.940 . S
C562 C561 1.378 . S
C562 C563 1.396 . S
C563 H548 0.940 . S
C563 C558 1.391 . S
C563 C562 1.396 . S
C564 P544 1.803 . S
C564 C565 1.378 . S
C564 C569 1.400 . S
C565 H549 0.939 . S
C565 C564 1.378 . S
C565 C566 1.361 . S
C566 H550 0.942 . S
C566 C565 1.361 . S
C566 C567 1.369 . S
C567 C566 1.369 . S
C567 C568 1.404 . S
C568 H551 0.940 . S
C568 C567 1.404 . S
C568 C569 1.389 . S
C569 H552 0.939 . S
C569 C564 1.400 . S
C569 C568 1.389 . S
C570 P544 1.819 . S
C570 C571 1.391 . S
C570 C575 1.391 . S
C571 H553 0.941 . S
C571 C570 1.391 . S
C571 C572 1.396 . S
C572 H556 0.939 . S
C572 C571 1.396 . S
C572 C573 1.397 . S
C573 C572 1.397 . S
C573 C574 1.385 . S
C574 H557 0.940 . S
C574 C573 1.385 . S
C574 C575 1.388 . S
C575 H554 0.939 . S
C575 C570 1.391 . S
C575 C574 1.388 . S
Gd576 N607 2.661 . S
Gd576 N613 2.601 . S
Gd576 O620 2.545 . S
Gd576 O621 2.606 1_545 S
Gd576 O623 2.429 . S
Gd576 O624 2.545 1_545 S
Gd576 O625 2.412 . S
Gd576 O627 2.362 1_554 S
Gd576 O628 2.324 1_545 S
Gd576 C635 2.828 . S
Gd577 N586 2.661 . S
Gd577 N590 2.601 . S
Gd577 O621 2.362 1_556 S
Gd577 O622 2.324 1_565 S
Gd577 O626 2.545 . S
Gd577 O627 2.606 1_565 S
Gd577 O629 2.429 . S
Gd577 O630 2.545 1_565 S
Gd577 O631 2.412 . S
Gd577 C644 2.828 . S
C578 C581 1.417 . S
C578 C583 1.431 . S
C578 C584 1.412 . S
C579 C582 1.437 . S
C579 C583 1.317 . S
C579 H598 0.929 . S
C580 C581 1.426 . S
C580 C582 1.413 . S
C580 N590 1.359 . S
C581 C578 1.417 . S
C581 C580 1.426 . S
C581 N586 1.350 . S
C582 C579 1.437 . S
C582 C580 1.413 . S
C582 C592 1.391 . S
C583 C578 1.431 . S
C583 C579 1.317 . S
C583 H594 0.930 . S
C584 C578 1.412 . S
C584 C585 1.355 . S
C584 H596 0.930 . S
C585 C584 1.355 . S
C585 C587 1.402 . S
C585 H597 0.930 . S
N586 Gd577 2.661 . S
N586 C581 1.350 . S
N586 C587 1.307 . S
C587 C585 1.402 . S
C587 N586 1.307 . S
C587 H588 0.930 . S
H588 C587 0.930 . S
C589 N590 1.334 . S
C589 C591 1.394 . S
C589 H593 0.930 . S
N590 Gd577 2.601 . S
N590 C580 1.359 . S
N590 C589 1.334 . S
C591 C589 1.394 . S
C591 C592 1.359 . S
C591 H603 0.930 . S
C592 C582 1.391 . S
C592 C591 1.359 . S
C592 H604 0.929 . S
H593 C589 0.930 . S
H594 C583 0.930 . S
H595 C612 0.930 . S
H596 C584 0.930 . S
H597 C585 0.930 . S
H598 C579 0.929 . S
H599 C617 0.930 . S
H600 C608 0.930 . S
H601 C609 0.930 . S
H602 C633 0.929 . S
H603 C591 0.930 . S
H604 C592 0.929 . S
H605 C634 0.930 . S
H606 C615 0.930 . S
N607 Gd576 2.661 . S
N607 C611 1.350 . S
N607 C612 1.307 . S
C608 H600 0.930 . S
C608 C609 1.355 . S
C608 C610 1.412 . S
C609 H601 0.930 . S
C609 C608 1.355 . S
C609 C612 1.402 . S
C610 C608 1.412 . S
C610 C611 1.417 . S
C610 C634 1.431 . S
C611 N607 1.350 . S
C611 C610 1.417 . S
C611 C614 1.426 . S
C612 H595 0.930 . S
C612 N607 1.307 . S
C612 C609 1.402 . S
N613 Gd576 2.601 . S
N613 C614 1.359 . S
N613 C617 1.334 . S
C614 C611 1.426 . S
C614 N613 1.359 . S
C614 C618 1.413 . S
C615 H606 0.930 . S
C615 C616 1.359 . S
C615 C617 1.394 . S
C616 C615 1.359 . S
C616 C618 1.391 . S
C616 H619 0.929 . S
C617 H599 0.930 . S
C617 N613 1.334 . S
C617 C615 1.394 . S
C618 C614 1.413 . S
C618 C616 1.391 . S
C618 C633 1.437 . S
H619 C616 0.929 . S
O620 Gd576 2.545 . S
O620 C635 1.258 . S
O621 Gd576 2.606 1_565 S
O621 Gd577 2.362 1_554 S
O621 C632 1.284 . S
O622 Gd577 2.324 1_545 S
O622 C642 1.254 . S
O623 Gd576 2.429 . S
O623 C642 1.268 1_554 S
O624 Gd576 2.545 1_565 S
O624 C632 1.250 . S
O625 Gd576 2.412 . S
O625 C635 1.252 . S
O626 Gd577 2.545 . S
O626 C644 1.258 . S
O627 Gd576 2.362 1_556 S
O627 Gd577 2.606 1_545 S
O627 C643 1.284 . S
O628 Gd576 2.324 1_565 S
O628 C651 1.254 . S
O629 Gd577 2.429 . S
O629 C651 1.268 1_556 S
O630 Gd577 2.545 1_545 S
O630 C643 1.250 . S
O631 Gd577 2.412 . S
O631 C644 1.252 . S
C632 O621 1.284 . S
C632 O624 1.250 . S
C633 H602 0.929 . S
C633 C618 1.437 . S
C633 C634 1.317 . S
C634 H605 0.930 . S
C634 C610 1.431 . S
C634 C633 1.317 . S
C635 Gd576 2.828 . S
C635 O620 1.258 . S
C635 O625 1.252 . S
C635 C636 1.497 . S
C636 C635 1.497 . S
C636 C637 1.395 . S
C636 C638 1.380 1_545 S
C637 C636 1.395 . S
C637 C640 1.398 . S
C637 H652 0.930 . S
C638 C636 1.380 1_565 S
C638 C639 1.391 . S
C638 H653 0.930 . S
C639 C638 1.391 . S
C639 C641 1.387 1_565 S
C640 C637 1.398 . S
C640 C641 1.380 . S
C640 H654 0.930 . S
C641 C639 1.387 1_545 S
C641 C640 1.380 . S
C641 H655 0.930 . S
C642 O622 1.254 . S
C642 O623 1.268 1_556 S
C643 O627 1.284 . S
C643 O630 1.250 . S
C644 Gd577 2.828 . S
C644 O626 1.258 . S
C644 O631 1.252 . S
C644 C645 1.497 . S
C645 C644 1.497 . S
C645 C646 1.395 . S
C645 C647 1.380 1_565 S
C646 C645 1.395 . S
C646 C649 1.398 . S
C646 H656 0.930 . S
C647 C645 1.380 1_545 S
C647 C648 1.391 . S
C647 H657 0.930 . S
C648 C647 1.391 . S
C648 C650 1.387 1_545 S
C649 C646 1.398 . S
C649 C650 1.380 . S
C649 H658 0.930 . S
C650 C648 1.387 1_565 S
C650 C649 1.380 . S
C650 H659 0.930 . S
C651 O628 1.254 . S
C651 O629 1.268 1_554 S
H652 C637 0.930 . S
H653 C638 0.930 . S
H654 C640 0.930 . S
H655 C641 0.930 . S
H656 C646 0.930 . S
H657 C647 0.930 . S
H658 C649 0.930 . S
H659 C650 0.930 . S
Gd660 N691 2.661 . S
Gd660 N697 2.601 . S
Gd660 O704 2.545 . S
Gd660 O705 2.606 1_655 S
Gd660 O707 2.429 . S
Gd660 O708 2.545 1_655 S
Gd660 O709 2.412 . S
Gd660 O711 2.362 1_554 S
Gd660 O712 2.324 1_655 S
Gd660 C719 2.828 . S
Gd661 N670 2.661 . S
Gd661 N674 2.601 . S
Gd661 O705 2.362 1_556 S
Gd661 O706 2.324 1_455 S
Gd661 O710 2.545 . S
Gd661 O711 2.606 1_455 S
Gd661 O713 2.429 . S
Gd661 O714 2.545 1_455 S
Gd661 O715 2.412 . S
Gd661 C728 2.828 . S
C662 C665 1.417 . S
C662 C667 1.431 . S
C662 C668 1.412 . S
C663 C666 1.437 . S
C663 C667 1.317 . S
C663 H682 0.929 . S
C664 C665 1.426 . S
C664 C666 1.413 . S
C664 N674 1.359 . S
C665 C662 1.417 . S
C665 C664 1.426 . S
C665 N670 1.350 . S
C666 C663 1.437 . S
C666 C664 1.413 . S
C666 C676 1.391 . S
C667 C662 1.431 . S
C667 C663 1.317 . S
C667 H678 0.930 . S
C668 C662 1.412 . S
C668 C669 1.355 . S
C668 H680 0.930 . S
C669 C668 1.355 . S
C669 C671 1.402 . S
C669 H681 0.930 . S
N670 Gd661 2.661 . S
N670 C665 1.350 . S
N670 C671 1.307 . S
C671 C669 1.402 . S
C671 N670 1.307 . S
C671 H672 0.930 . S
H672 C671 0.930 . S
C673 N674 1.334 . S
C673 C675 1.394 . S
C673 H677 0.930 . S
N674 Gd661 2.601 . S
N674 C664 1.359 . S
N674 C673 1.334 . S
C675 C673 1.394 . S
C675 C676 1.359 . S
C675 H687 0.930 . S
C676 C666 1.391 . S
C676 C675 1.359 . S
C676 H688 0.929 . S
H677 C673 0.930 . S
H678 C667 0.930 . S
H679 C696 0.930 . S
H680 C668 0.930 . S
H681 C669 0.930 . S
H682 C663 0.929 . S
H683 C701 0.930 . S
H684 C692 0.930 . S
H685 C693 0.930 . S
H686 C717 0.929 . S
H687 C675 0.930 . S
H688 C676 0.929 . S
H689 C718 0.930 . S
H690 C699 0.930 . S
N691 Gd660 2.661 . S
N691 C695 1.350 . S
N691 C696 1.307 . S
C692 H684 0.930 . S
C692 C693 1.355 . S
C692 C694 1.412 . S
C693 H685 0.930 . S
C693 C692 1.355 . S
C693 C696 1.402 . S
C694 C692 1.412 . S
C694 C695 1.417 . S
C694 C718 1.431 . S
C695 N691 1.350 . S
C695 C694 1.417 . S
C695 C698 1.426 . S
C696 H679 0.930 . S
C696 N691 1.307 . S
C696 C693 1.402 . S
N697 Gd660 2.601 . S
N697 C698 1.359 . S
N697 C701 1.334 . S
C698 C695 1.426 . S
C698 N697 1.359 . S
C698 C702 1.413 . S
C699 H690 0.930 . S
C699 C700 1.359 . S
C699 C701 1.394 . S
C700 C699 1.359 . S
C700 C702 1.391 . S
C700 H703 0.929 . S
C701 H683 0.930 . S
C701 N697 1.334 . S
C701 C699 1.394 . S
C702 C698 1.413 . S
C702 C700 1.391 . S
C702 C717 1.437 . S
H703 C700 0.929 . S
O704 Gd660 2.545 . S
O704 C719 1.258 . S
O705 Gd660 2.606 1_455 S
O705 Gd661 2.362 1_554 S
O705 C716 1.284 . S
O706 Gd661 2.324 1_655 S
O706 C726 1.254 . S
O707 Gd660 2.429 . S
O707 C726 1.268 1_554 S
O708 Gd660 2.545 1_455 S
O708 C716 1.250 . S
O709 Gd660 2.412 . S
O709 C719 1.252 . S
O710 Gd661 2.545 . S
O710 C728 1.258 . S
O711 Gd660 2.362 1_556 S
O711 Gd661 2.606 1_655 S
O711 C727 1.284 . S
O712 Gd660 2.324 1_455 S
O712 C735 1.254 . S
O713 Gd661 2.429 . S
O713 C735 1.268 1_556 S
O714 Gd661 2.545 1_655 S
O714 C727 1.250 . S
O715 Gd661 2.412 . S
O715 C728 1.252 . S
C716 O705 1.284 . S
C716 O708 1.250 . S
C717 H686 0.929 . S
C717 C702 1.437 . S
C717 C718 1.317 . S
C718 H689 0.930 . S
C718 C694 1.431 . S
C718 C717 1.317 . S
C719 Gd660 2.828 . S
C719 O704 1.258 . S
C719 O709 1.252 . S
C719 C720 1.497 . S
C720 C719 1.497 . S
C720 C721 1.395 . S
C720 C722 1.380 1_655 S
C721 C720 1.395 . S
C721 C724 1.398 . S
C721 H736 0.930 . S
C722 C720 1.380 1_455 S
C722 C723 1.391 . S
C722 H737 0.930 . S
C723 C722 1.391 . S
C723 C725 1.387 1_455 S
C724 C721 1.398 . S
C724 C725 1.380 . S
C724 H738 0.930 . S
C725 C723 1.387 1_655 S
C725 C724 1.380 . S
C725 H739 0.930 . S
C726 O706 1.254 . S
C726 O707 1.268 1_556 S
C727 O711 1.284 . S
C727 O714 1.250 . S
C728 Gd661 2.828 . S
C728 O710 1.258 . S
C728 O715 1.252 . S
C728 C729 1.497 . S
C729 C728 1.497 . S
C729 C730 1.395 . S
C729 C731 1.380 1_455 S
C730 C729 1.395 . S
C730 C733 1.398 . S
C730 H740 0.930 . S
C731 C729 1.380 1_655 S
C731 C732 1.391 . S
C731 H741 0.930 . S
C732 C731 1.391 . S
C732 C734 1.387 1_655 S
C733 C730 1.398 . S
C733 C734 1.380 . S
C733 H742 0.930 . S
C734 C732 1.387 1_455 S
C734 C733 1.380 . S
C734 H743 0.930 . S
C735 O712 1.254 . S
C735 O713 1.268 1_554 S
H736 C721 0.930 . S
H737 C722 0.930 . S
H738 C724 0.930 . S
H739 C725 0.930 . S
H740 C730 0.930 . S
H741 C731 0.930 . S
H742 C733 0.930 . S
H743 C734 0.930 . S
Gd744 N775 2.661 . S
Gd744 N781 2.601 . S
Gd744 O788 2.545 . S
Gd744 O789 2.606 . S
Gd744 O791 2.429 . S
Gd744 O792 2.545 . S
Gd744 O793 2.412 . S
Gd744 O795 2.362 1_556 S
Gd744 O796 2.324 . S
Gd744 C803 2.828 . S
Gd745 N754 2.661 . S
Gd745 N758 2.601 . S
Gd745 O789 2.362 1_554 S
Gd745 O790 2.324 . S
Gd745 O794 2.545 . S
Gd745 O795 2.606 . S
Gd745 O797 2.429 . S
Gd745 O798 2.545 . S
Gd745 O799 2.412 . S
Gd745 C812 2.828 . S
C746 C749 1.417 . S
C746 C751 1.431 . S
C746 C752 1.412 . S
C747 C750 1.437 . S
C747 C751 1.317 . S
C747 H766 0.929 . S
C748 C749 1.426 . S
C748 C750 1.413 . S
C748 N758 1.359 . S
C749 C746 1.417 . S
C749 C748 1.426 . S
C749 N754 1.350 . S
C750 C747 1.437 . S
C750 C748 1.413 . S
C750 C760 1.391 . S
C751 C746 1.431 . S
C751 C747 1.317 . S
C751 H762 0.930 . S
C752 C746 1.412 . S
C752 C753 1.355 . S
C752 H764 0.930 . S
C753 C752 1.355 . S
C753 C755 1.402 . S
C753 H765 0.930 . S
N754 Gd745 2.661 . S
N754 C749 1.350 . S
N754 C755 1.307 . S
C755 C753 1.402 . S
C755 N754 1.307 . S
C755 H756 0.930 . S
H756 C755 0.930 . S
C757 N758 1.334 . S
C757 C759 1.394 . S
C757 H761 0.930 . S
N758 Gd745 2.601 . S
N758 C748 1.359 . S
N758 C757 1.334 . S
C759 C757 1.394 . S
C759 C760 1.359 . S
C759 H771 0.930 . S
C760 C750 1.391 . S
C760 C759 1.359 . S
C760 H772 0.929 . S
H761 C757 0.930 . S
H762 C751 0.930 . S
H763 C780 0.930 . S
H764 C752 0.930 . S
H765 C753 0.930 . S
H766 C747 0.929 . S
H767 C785 0.930 . S
H768 C776 0.930 . S
H769 C777 0.930 . S
H770 C801 0.929 . S
H771 C759 0.930 . S
H772 C760 0.929 . S
H773 C802 0.930 . S
H774 C783 0.930 . S
N775 Gd744 2.661 . S
N775 C779 1.350 . S
N775 C780 1.307 . S
C776 H768 0.930 . S
C776 C777 1.355 . S
C776 C778 1.412 . S
C777 H769 0.930 . S
C777 C776 1.355 . S
C777 C780 1.402 . S
C778 C776 1.412 . S
C778 C779 1.417 . S
C778 C802 1.431 . S
C779 N775 1.350 . S
C779 C778 1.417 . S
C779 C782 1.426 . S
C780 H763 0.930 . S
C780 N775 1.307 . S
C780 C777 1.402 . S
N781 Gd744 2.601 . S
N781 C782 1.359 . S
N781 C785 1.334 . S
C782 C779 1.426 . S
C782 N781 1.359 . S
C782 C786 1.413 . S
C783 H774 0.930 . S
C783 C784 1.359 . S
C783 C785 1.394 . S
C784 C783 1.359 . S
C784 C786 1.391 . S
C784 H787 0.929 . S
C785 H767 0.930 . S
C785 N781 1.334 . S
C785 C783 1.394 . S
C786 C782 1.413 . S
C786 C784 1.391 . S
C786 C801 1.437 . S
H787 C784 0.929 . S
O788 Gd744 2.545 . S
O788 C803 1.258 . S
O789 Gd744 2.606 . S
O789 Gd745 2.362 1_556 S
O789 C800 1.284 . S
O790 Gd745 2.324 . S
O790 C810 1.254 . S
O791 Gd744 2.429 . S
O791 C810 1.268 1_556 S
O792 Gd744 2.545 . S
O792 C800 1.250 . S
O793 Gd744 2.412 . S
O793 C803 1.252 . S
O794 Gd745 2.545 . S
O794 C812 1.258 . S
O795 Gd744 2.362 1_554 S
O795 Gd745 2.606 . S
O795 C811 1.284 . S
O796 Gd744 2.324 . S
O796 C819 1.254 . S
O797 Gd745 2.429 . S
O797 C819 1.268 1_554 S
O798 Gd745 2.545 . S
O798 C811 1.250 . S
O799 Gd745 2.412 . S
O799 C812 1.252 . S
C800 O789 1.284 . S
C800 O792 1.250 . S
C801 H770 0.929 . S
C801 C786 1.437 . S
C801 C802 1.317 . S
C802 H773 0.930 . S
C802 C778 1.431 . S
C802 C801 1.317 . S
C803 Gd744 2.828 . S
C803 O788 1.258 . S
C803 O793 1.252 . S
C803 C804 1.497 . S
C804 C803 1.497 . S
C804 C805 1.395 . S
C804 C806 1.380 . S
C805 C804 1.395 . S
C805 C808 1.398 . S
C805 H820 0.930 . S
C806 C804 1.380 . S
C806 C807 1.391 . S
C806 H821 0.930 . S
C807 C806 1.391 . S
C807 C809 1.387 . S
C808 C805 1.398 . S
C808 C809 1.380 . S
C808 H822 0.930 . S
C809 C807 1.387 . S
C809 C808 1.380 . S
C809 H823 0.930 . S
C810 O790 1.254 . S
C810 O791 1.268 1_554 S
C811 O795 1.284 . S
C811 O798 1.250 . S
C812 Gd745 2.828 . S
C812 O794 1.258 . S
C812 O799 1.252 . S
C812 C813 1.497 . S
C813 C812 1.497 . S
C813 C814 1.395 . S
C813 C815 1.380 . S
C814 C813 1.395 . S
C814 C817 1.398 . S
C814 H824 0.930 . S
C815 C813 1.380 . S
C815 C816 1.391 . S
C815 H825 0.930 . S
C816 C815 1.391 . S
C816 C818 1.387 . S
C817 C814 1.398 . S
C817 C818 1.380 . S
C817 H826 0.930 . S
C818 C816 1.387 . S
C818 C817 1.380 . S
C818 H827 0.930 . S
C819 O796 1.254 . S
C819 O797 1.268 1_556 S
H820 C805 0.930 . S
H821 C806 0.930 . S
H822 C808 0.930 . S
H823 C809 0.930 . S
H824 C814 0.930 . S
H825 C815 0.930 . S
H826 C817 0.930 . S
H827 C818 0.930 . S
Gd828 N859 2.661 . S
Gd828 N865 2.601 . S
Gd828 O872 2.545 . S
Gd828 O873 2.606 . S
Gd828 O875 2.429 . S
Gd828 O876 2.545 . S
Gd828 O877 2.412 . S
Gd828 O879 2.362 . S
Gd828 O880 2.324 . S
Gd828 C887 2.828 . S
Gd829 N838 2.661 . S
Gd829 N842 2.601 . S
Gd829 O873 2.362 . S
Gd829 O874 2.324 . S
Gd829 O878 2.545 . S
Gd829 O879 2.606 . S
Gd829 O881 2.429 . S
Gd829 O882 2.545 . S
Gd829 O883 2.412 . S
Gd829 C896 2.828 . S
C830 C833 1.417 . S
C830 C835 1.431 . S
C830 C836 1.412 . S
C831 C834 1.437 . S
C831 C835 1.317 . S
C831 H850 0.929 . S
C832 C833 1.426 . S
C832 C834 1.413 . S
C832 N842 1.359 . S
C833 C830 1.417 . S
C833 C832 1.426 . S
C833 N838 1.350 . S
C834 C831 1.437 . S
C834 C832 1.413 . S
C834 C844 1.391 . S
C835 C830 1.431 . S
C835 C831 1.317 . S
C835 H846 0.930 1_455 S
C836 C830 1.412 . S
C836 C837 1.355 . S
C836 H848 0.930 1_455 S
C837 C836 1.355 . S
C837 C839 1.402 . S
C837 H849 0.930 . S
N838 Gd829 2.661 . S
N838 C833 1.350 . S
N838 C839 1.307 . S
C839 C837 1.402 . S
C839 N838 1.307 . S
C839 H840 0.930 . S
H840 C839 0.930 . S
C841 N842 1.334 . S
C841 C843 1.394 . S
C841 H845 0.930 . S
N842 Gd829 2.601 . S
N842 C832 1.359 . S
N842 C841 1.334 . S
C843 C841 1.394 . S
C843 C844 1.359 . S
C843 H855 0.930 . S
C844 C834 1.391 . S
C844 C843 1.359 . S
C844 H856 0.929 . S
H845 C841 0.930 . S
H846 C835 0.930 1_655 S
H847 C864 0.930 . S
H848 C836 0.930 1_655 S
H849 C837 0.930 . S
H850 C831 0.929 . S
H851 C869 0.930 . S
H852 C860 0.930 . S
H853 C861 0.930 . S
H854 C885 0.929 . S
H855 C843 0.930 . S
H856 C844 0.929 . S
H857 C886 0.930 . S
H858 C867 0.930 . S
N859 Gd828 2.661 . S
N859 C863 1.350 . S
N859 C864 1.307 . S
C860 H852 0.930 . S
C860 C861 1.355 . S
C860 C862 1.412 . S
C861 H853 0.930 . S
C861 C860 1.355 . S
C861 C864 1.402 . S
C862 C860 1.412 . S
C862 C863 1.417 . S
C862 C886 1.431 . S
C863 N859 1.350 . S
C863 C862 1.417 . S
C863 C866 1.426 . S
C864 H847 0.930 . S
C864 N859 1.307 . S
C864 C861 1.402 . S
N865 Gd828 2.601 . S
N865 C866 1.359 . S
N865 C869 1.334 . S
C866 C863 1.426 . S
C866 N865 1.359 . S
C866 C870 1.413 . S
C867 H858 0.930 . S
C867 C868 1.359 . S
C867 C869 1.394 . S
C868 C867 1.359 . S
C868 C870 1.391 . S
C868 H871 0.929 . S
C869 H851 0.930 . S
C869 N865 1.334 . S
C869 C867 1.394 . S
C870 C866 1.413 . S
C870 C868 1.391 . S
C870 C885 1.437 . S
H871 C868 0.929 . S
O872 Gd828 2.545 . S
O872 C887 1.258 . S
O873 Gd828 2.606 . S
O873 Gd829 2.362 . S
O873 C884 1.284 . S
O874 Gd829 2.324 . S
O874 C894 1.254 . S
O875 Gd828 2.429 . S
O875 C894 1.268 . S
O876 Gd828 2.545 . S
O876 C884 1.250 . S
O877 Gd828 2.412 . S
O877 C887 1.252 . S
O878 Gd829 2.545 . S
O878 C896 1.258 . S
O879 Gd828 2.362 . S
O879 Gd829 2.606 . S
O879 C895 1.284 . S
O880 Gd828 2.324 . S
O880 C903 1.254 . S
O881 Gd829 2.429 . S
O881 C903 1.268 . S
O882 Gd829 2.545 . S
O882 C895 1.250 . S
O883 Gd829 2.412 . S
O883 C896 1.252 . S
C884 O873 1.284 . S
C884 O876 1.250 . S
C885 H854 0.929 . S
C885 C870 1.437 . S
C885 C886 1.317 . S
C886 H857 0.930 . S
C886 C862 1.431 . S
C886 C885 1.317 . S
C887 Gd828 2.828 . S
C887 O872 1.258 . S
C887 O877 1.252 . S
C887 C888 1.497 . S
C888 C887 1.497 . S
C888 C889 1.395 . S
C888 C890 1.380 . S
C889 C888 1.395 . S
C889 C892 1.398 . S
C889 H904 0.930 . S
C890 C888 1.380 . S
C890 C891 1.391 . S
C890 H905 0.930 . S
C891 C890 1.391 . S
C891 C893 1.387 . S
C892 C889 1.398 . S
C892 C893 1.380 . S
C892 H906 0.930 . S
C893 C891 1.387 . S
C893 C892 1.380 . S
C893 H907 0.930 . S
C894 O874 1.254 . S
C894 O875 1.268 . S
C895 O879 1.284 . S
C895 O882 1.250 . S
C896 Gd829 2.828 . S
C896 O878 1.258 . S
C896 O883 1.252 . S
C896 C897 1.497 . S
C897 C896 1.497 . S
C897 C898 1.395 . S
C897 C899 1.380 . S
C898 C897 1.395 . S
C898 C901 1.398 . S
C898 H908 0.930 . S
C899 C897 1.380 . S
C899 C900 1.391 . S
C899 H909 0.930 . S
C900 C899 1.391 . S
C900 C902 1.387 . S
C901 C898 1.398 . S
C901 C902 1.380 . S
C901 H910 0.930 . S
C902 C900 1.387 . S
C902 C901 1.380 . S
C902 H911 0.930 . S
C903 O880 1.254 . S
C903 O881 1.268 . S
H904 C889 0.930 . S
H905 C890 0.930 . S
H906 C892 0.930 . S
H907 C893 0.930 . S
H908 C898 0.930 . S
H909 C899 0.930 . S
H910 C901 0.930 . S
H911 C902 0.930 . S
Gd912 N943 2.661 . S
Gd912 N949 2.601 . S
Gd912 O956 2.545 . S
Gd912 O957 2.606 . S
Gd912 O959 2.429 . S
Gd912 O960 2.545 . S
Gd912 O961 2.412 . S
Gd912 O963 2.362 . S
Gd912 O964 2.324 . S
Gd912 C971 2.828 . S
Gd913 N922 2.661 . S
Gd913 N926 2.601 . S
Gd913 O957 2.362 . S
Gd913 O958 2.324 . S
Gd913 O962 2.545 . S
Gd913 O963 2.606 . S
Gd913 O965 2.429 . S
Gd913 O966 2.545 . S
Gd913 O967 2.412 . S
Gd913 C980 2.828 . S
C914 C917 1.417 . S
C914 C919 1.431 . S
C914 C920 1.412 . S
C915 C918 1.437 . S
C915 C919 1.317 . S
C915 H934 0.929 . S
C916 C917 1.426 . S
C916 C918 1.413 . S
C916 N926 1.359 . S
C917 C914 1.417 . S
C917 C916 1.426 . S
C917 N922 1.350 . S
C918 C915 1.437 . S
C918 C916 1.413 . S
C918 C928 1.391 . S
C919 C914 1.431 . S
C919 C915 1.317 . S
C919 H930 0.930 . S
C920 C914 1.412 . S
C920 C921 1.355 . S
C920 H932 0.930 . S
C921 C920 1.355 . S
C921 C923 1.402 . S
C921 H933 0.930 . S
N922 Gd913 2.661 . S
N922 C917 1.350 . S
N922 C923 1.307 . S
C923 C921 1.402 . S
C923 N922 1.307 . S
C923 H924 0.930 . S
H924 C923 0.930 . S
C925 N926 1.334 . S
C925 C927 1.394 . S
C925 H929 0.930 . S
N926 Gd913 2.601 . S
N926 C916 1.359 . S
N926 C925 1.334 . S
C927 C925 1.394 . S
C927 C928 1.359 . S
C927 H939 0.930 . S
C928 C918 1.391 . S
C928 C927 1.359 . S
C928 H940 0.929 . S
H929 C925 0.930 . S
H930 C919 0.930 . S
H931 C948 0.930 . S
H932 C920 0.930 . S
H933 C921 0.930 . S
H934 C915 0.929 . S
H935 C953 0.930 . S
H936 C944 0.930 . S
H937 C945 0.930 . S
H938 C969 0.929 . S
H939 C927 0.930 . S
H940 C928 0.929 . S
H941 C970 0.930 . S
H942 C951 0.930 . S
N943 Gd912 2.661 . S
N943 C947 1.350 . S
N943 C948 1.307 . S
C944 H936 0.930 . S
C944 C945 1.355 . S
C944 C946 1.412 . S
C945 H937 0.930 . S
C945 C944 1.355 . S
C945 C948 1.402 . S
C946 C944 1.412 . S
C946 C947 1.417 . S
C946 C970 1.431 . S
C947 N943 1.350 . S
C947 C946 1.417 . S
C947 C950 1.426 . S
C948 H931 0.930 . S
C948 N943 1.307 . S
C948 C945 1.402 . S
N949 Gd912 2.601 . S
N949 C950 1.359 . S
N949 C953 1.334 . S
C950 C947 1.426 . S
C950 N949 1.359 . S
C950 C954 1.413 . S
C951 H942 0.930 . S
C951 C952 1.359 . S
C951 C953 1.394 . S
C952 C951 1.359 . S
C952 C954 1.391 . S
C952 H955 0.929 . S
C953 H935 0.930 . S
C953 N949 1.334 . S
C953 C951 1.394 . S
C954 C950 1.413 . S
C954 C952 1.391 . S
C954 C969 1.437 . S
H955 C952 0.929 . S
O956 Gd912 2.545 . S
O956 C971 1.258 . S
O957 Gd912 2.606 . S
O957 Gd913 2.362 . S
O957 C968 1.284 . S
O958 Gd913 2.324 . S
O958 C978 1.254 . S
O959 Gd912 2.429 . S
O959 C978 1.268 . S
O960 Gd912 2.545 . S
O960 C968 1.250 . S
O961 Gd912 2.412 . S
O961 C971 1.252 . S
O962 Gd913 2.545 . S
O962 C980 1.258 . S
O963 Gd912 2.362 . S
O963 Gd913 2.606 . S
O963 C979 1.284 . S
O964 Gd912 2.324 . S
O964 C987 1.254 . S
O965 Gd913 2.429 . S
O965 C987 1.268 . S
O966 Gd913 2.545 . S
O966 C979 1.250 . S
O967 Gd913 2.412 . S
O967 C980 1.252 . S
C968 O957 1.284 . S
C968 O960 1.250 . S
C969 H938 0.929 . S
C969 C954 1.437 . S
C969 C970 1.317 . S
C970 H941 0.930 . S
C970 C946 1.431 . S
C970 C969 1.317 . S
C971 Gd912 2.828 . S
C971 O956 1.258 . S
C971 O961 1.252 . S
C971 C972 1.497 . S
C972 C971 1.497 . S
C972 C973 1.395 . S
C972 C974 1.380 . S
C973 C972 1.395 . S
C973 C976 1.398 . S
C973 H988 0.930 . S
C974 C972 1.380 . S
C974 C975 1.391 . S
C974 H989 0.930 . S
C975 C974 1.391 . S
C975 C977 1.387 . S
C976 C973 1.398 . S
C976 C977 1.380 . S
C976 H990 0.930 . S
C977 C975 1.387 . S
C977 C976 1.380 . S
C977 H991 0.930 . S
C978 O958 1.254 . S
C978 O959 1.268 . S
C979 O963 1.284 . S
C979 O966 1.250 . S
C980 Gd913 2.828 . S
C980 O962 1.258 . S
C980 O967 1.252 . S
C980 C981 1.497 . S
C981 C980 1.497 . S
C981 C982 1.395 . S
C981 C983 1.380 . S
C982 C981 1.395 . S
C982 C985 1.398 . S
C982 H992 0.930 . S
C983 C981 1.380 . S
C983 C984 1.391 . S
C983 H993 0.930 . S
C984 C983 1.391 . S
C984 C986 1.387 . S
C985 C982 1.398 . S
C985 C986 1.380 . S
C985 H994 0.930 . S
C986 C984 1.387 . S
C986 C985 1.380 . S
C986 H995 0.930 . S
C987 O964 1.254 . S
C987 O965 1.268 . S
H988 C973 0.930 . S
H989 C974 0.930 . S
H990 C976 0.930 . S
H991 C977 0.930 . S
H992 C982 0.930 . S
H993 C983 0.930 . S
H994 C985 0.930 . S
H995 C986 0.930 . S
Gd996 N1027 2.661 . S
Gd996 N1033 2.601 . S
Gd996 O1040 2.545 . S
Gd996 O1041 2.606 . S
Gd996 O1043 2.429 . S
Gd996 O1044 2.545 . S
Gd996 O1045 2.412 . S
Gd996 O1047 2.362 . S
Gd996 O1048 2.324 . S
Gd996 C1055 2.828 . S
Gd997 N1006 2.661 . S
Gd997 N1010 2.601 . S
Gd997 O1041 2.362 . S
Gd997 O1042 2.324 . S
Gd997 O1046 2.545 . S
Gd997 O1047 2.606 . S
Gd997 O1049 2.429 . S
Gd997 O1050 2.545 . S
Gd997 O1051 2.412 . S
Gd997 C1064 2.828 . S
C998 C1001 1.417 . S
C998 C1003 1.431 . S
C998 C1004 1.412 . S
C999 C1002 1.437 . S
C999 C1003 1.317 . S
C999 H1018 0.929 . S
C1000 C1001 1.426 . S
C1000 C1002 1.413 . S
C1000 N1010 1.359 . S
C1001 C998 1.417 . S
C1001 C1000 1.426 . S
C1001 N1006 1.350 . S
C1002 C999 1.437 . S
C1002 C1000 1.413 . S
C1002 C1012 1.391 . S
C1003 C998 1.431 . S
C1003 C999 1.317 . S
C1003 H1014 0.930 . S
C1004 C998 1.412 . S
C1004 C1005 1.355 . S
C1004 H1016 0.930 . S
C1005 C1004 1.355 . S
C1005 C1007 1.402 . S
C1005 H1017 0.930 . S
N1006 Gd997 2.661 . S
N1006 C1001 1.350 . S
N1006 C1007 1.307 . S
C1007 C1005 1.402 . S
C1007 N1006 1.307 . S
C1007 H1008 0.930 . S
H1008 C1007 0.930 . S
C1009 N1010 1.334 . S
C1009 C1011 1.394 . S
C1009 H1013 0.930 . S
N1010 Gd997 2.601 . S
N1010 C1000 1.359 . S
N1010 C1009 1.334 . S
C1011 C1009 1.394 . S
C1011 C1012 1.359 . S
C1011 H1023 0.930 . S
C1012 C1002 1.391 . S
C1012 C1011 1.359 . S
C1012 H1024 0.929 . S
H1013 C1009 0.930 . S
H1014 C1003 0.930 . S
H1015 C1032 0.930 . S
H1016 C1004 0.930 . S
H1017 C1005 0.930 . S
H1018 C999 0.929 . S
H1019 C1037 0.930 . S
H1020 C1028 0.930 1_655 S
H1021 C1029 0.930 . S
H1022 C1053 0.929 . S
H1023 C1011 0.930 . S
H1024 C1012 0.929 . S
H1025 C1054 0.930 1_655 S
H1026 C1035 0.930 . S
N1027 Gd996 2.661 . S
N1027 C1031 1.350 . S
N1027 C1032 1.307 . S
C1028 H1020 0.930 1_455 S
C1028 C1029 1.355 . S
C1028 C1030 1.412 . S
C1029 H1021 0.930 . S
C1029 C1028 1.355 . S
C1029 C1032 1.402 . S
C1030 C1028 1.412 . S
C1030 C1031 1.417 . S
C1030 C1054 1.431 . S
C1031 N1027 1.350 . S
C1031 C1030 1.417 . S
C1031 C1034 1.426 . S
C1032 H1015 0.930 . S
C1032 N1027 1.307 . S
C1032 C1029 1.402 . S
N1033 Gd996 2.601 . S
N1033 C1034 1.359 . S
N1033 C1037 1.334 . S
C1034 C1031 1.426 . S
C1034 N1033 1.359 . S
C1034 C1038 1.413 . S
C1035 H1026 0.930 . S
C1035 C1036 1.359 . S
C1035 C1037 1.394 . S
C1036 C1035 1.359 . S
C1036 C1038 1.391 . S
C1036 H1039 0.929 . S
C1037 H1019 0.930 . S
C1037 N1033 1.334 . S
C1037 C1035 1.394 . S
C1038 C1034 1.413 . S
C1038 C1036 1.391 . S
C1038 C1053 1.437 . S
H1039 C1036 0.929 . S
O1040 Gd996 2.545 . S
O1040 C1055 1.258 . S
O1041 Gd996 2.606 . S
O1041 Gd997 2.362 . S
O1041 C1052 1.284 . S
O1042 Gd997 2.324 . S
O1042 C1062 1.254 . S
O1043 Gd996 2.429 . S
O1043 C1062 1.268 . S
O1044 Gd996 2.545 . S
O1044 C1052 1.250 . S
O1045 Gd996 2.412 . S
O1045 C1055 1.252 . S
O1046 Gd997 2.545 . S
O1046 C1064 1.258 . S
O1047 Gd996 2.362 . S
O1047 Gd997 2.606 . S
O1047 C1063 1.284 . S
O1048 Gd996 2.324 . S
O1048 C1071 1.254 . S
O1049 Gd997 2.429 . S
O1049 C1071 1.268 . S
O1050 Gd997 2.545 . S
O1050 C1063 1.250 . S
O1051 Gd997 2.412 . S
O1051 C1064 1.252 . S
C1052 O1041 1.284 . S
C1052 O1044 1.250 . S
C1053 H1022 0.929 . S
C1053 C1038 1.437 . S
C1053 C1054 1.317 . S
C1054 H1025 0.930 1_455 S
C1054 C1030 1.431 . S
C1054 C1053 1.317 . S
C1055 Gd996 2.828 . S
C1055 O1040 1.258 . S
C1055 O1045 1.252 . S
C1055 C1056 1.497 . S
C1056 C1055 1.497 . S
C1056 C1057 1.395 . S
C1056 C1058 1.380 . S
C1057 C1056 1.395 . S
C1057 C1060 1.398 . S
C1057 H1072 0.930 . S
C1058 C1056 1.380 . S
C1058 C1059 1.391 . S
C1058 H1073 0.930 . S
C1059 C1058 1.391 . S
C1059 C1061 1.387 . S
C1060 C1057 1.398 . S
C1060 C1061 1.380 . S
C1060 H1074 0.930 . S
C1061 C1059 1.387 . S
C1061 C1060 1.380 . S
C1061 H1075 0.930 . S
C1062 O1042 1.254 . S
C1062 O1043 1.268 . S
C1063 O1047 1.284 . S
C1063 O1050 1.250 . S
C1064 Gd997 2.828 . S
C1064 O1046 1.258 . S
C1064 O1051 1.252 . S
C1064 C1065 1.497 . S
C1065 C1064 1.497 . S
C1065 C1066 1.395 . S
C1065 C1067 1.380 . S
C1066 C1065 1.395 . S
C1066 C1069 1.398 . S
C1066 H1076 0.930 . S
C1067 C1065 1.380 . S
C1067 C1068 1.391 . S
C1067 H1077 0.930 . S
C1068 C1067 1.391 . S
C1068 C1070 1.387 . S
C1069 C1066 1.398 . S
C1069 C1070 1.380 . S
C1069 H1078 0.930 . S
C1070 C1068 1.387 . S
C1070 C1069 1.380 . S
C1070 H1079 0.930 . S
C1071 O1048 1.254 . S
C1071 O1049 1.268 . S
H1072 C1057 0.930 . S
H1073 C1058 0.930 . S
H1074 C1060 0.930 . S
H1075 C1061 0.930 . S
H1076 C1066 0.930 . S
H1077 C1067 0.930 . S
H1078 C1069 0.930 . S
H1079 C1070 0.930 . S
Gd1080 N1111 2.661 . S
Gd1080 N1117 2.601 . S
Gd1080 O1124 2.545 . S
Gd1080 O1125 2.606 . S
Gd1080 O1127 2.429 . S
Gd1080 O1128 2.545 . S
Gd1080 O1129 2.412 . S
Gd1080 O1131 2.362 . S
Gd1080 O1132 2.324 . S
Gd1080 C1139 2.828 . S
Gd1081 N1090 2.661 . S
Gd1081 N1094 2.601 . S
Gd1081 O1125 2.362 . S
Gd1081 O1126 2.324 . S
Gd1081 O1130 2.545 . S
Gd1081 O1131 2.606 . S
Gd1081 O1133 2.429 . S
Gd1081 O1134 2.545 . S
Gd1081 O1135 2.412 . S
Gd1081 C1148 2.828 . S
C1082 C1085 1.417 . S
C1082 C1087 1.431 . S
C1082 C1088 1.412 . S
C1083 C1086 1.437 . S
C1083 C1087 1.317 . S
C1083 H1102 0.929 . S
C1084 C1085 1.426 . S
C1084 C1086 1.413 . S
C1084 N1094 1.359 . S
C1085 C1082 1.417 . S
C1085 C1084 1.426 . S
C1085 N1090 1.350 . S
C1086 C1083 1.437 . S
C1086 C1084 1.413 . S
C1086 C1096 1.391 . S
C1087 C1082 1.431 . S
C1087 C1083 1.317 . S
C1087 H1098 0.930 . S
C1088 C1082 1.412 . S
C1088 C1089 1.355 . S
C1088 H1100 0.930 . S
C1089 C1088 1.355 . S
C1089 C1091 1.402 . S
C1089 H1101 0.930 . S
N1090 Gd1081 2.661 . S
N1090 C1085 1.350 . S
N1090 C1091 1.307 . S
C1091 C1089 1.402 . S
C1091 N1090 1.307 . S
C1091 H1092 0.930 . S
H1092 C1091 0.930 . S
C1093 N1094 1.334 . S
C1093 C1095 1.394 . S
C1093 H1097 0.930 . S
N1094 Gd1081 2.601 . S
N1094 C1084 1.359 . S
N1094 C1093 1.334 . S
C1095 C1093 1.394 . S
C1095 C1096 1.359 . S
C1095 H1107 0.930 . S
C1096 C1086 1.391 . S
C1096 C1095 1.359 . S
C1096 H1108 0.929 . S
H1097 C1093 0.930 . S
H1098 C1087 0.930 . S
H1099 C1116 0.930 . S
H1100 C1088 0.930 . S
H1101 C1089 0.930 . S
H1102 C1083 0.929 . S
H1103 C1121 0.930 . S
H1104 C1112 0.930 1_455 S
H1105 C1113 0.930 . S
H1106 C1137 0.929 . S
H1107 C1095 0.930 . S
H1108 C1096 0.929 . S
H1109 C1138 0.930 1_455 S
H1110 C1119 0.930 . S
N1111 Gd1080 2.661 . S
N1111 C1115 1.350 . S
N1111 C1116 1.307 . S
C1112 H1104 0.930 1_655 S
C1112 C1113 1.355 . S
C1112 C1114 1.412 . S
C1113 H1105 0.930 . S
C1113 C1112 1.355 . S
C1113 C1116 1.402 . S
C1114 C1112 1.412 . S
C1114 C1115 1.417 . S
C1114 C1138 1.431 . S
C1115 N1111 1.350 . S
C1115 C1114 1.417 . S
C1115 C1118 1.426 . S
C1116 H1099 0.930 . S
C1116 N1111 1.307 . S
C1116 C1113 1.402 . S
N1117 Gd1080 2.601 . S
N1117 C1118 1.359 . S
N1117 C1121 1.334 . S
C1118 C1115 1.426 . S
C1118 N1117 1.359 . S
C1118 C1122 1.413 . S
C1119 H1110 0.930 . S
C1119 C1120 1.359 . S
C1119 C1121 1.394 . S
C1120 C1119 1.359 . S
C1120 C1122 1.391 . S
C1120 H1123 0.929 . S
C1121 H1103 0.930 . S
C1121 N1117 1.334 . S
C1121 C1119 1.394 . S
C1122 C1118 1.413 . S
C1122 C1120 1.391 . S
C1122 C1137 1.437 . S
H1123 C1120 0.929 . S
O1124 Gd1080 2.545 . S
O1124 C1139 1.258 . S
O1125 Gd1080 2.606 . S
O1125 Gd1081 2.362 . S
O1125 C1136 1.284 . S
O1126 Gd1081 2.324 . S
O1126 C1146 1.254 . S
O1127 Gd1080 2.429 . S
O1127 C1146 1.268 . S
O1128 Gd1080 2.545 . S
O1128 C1136 1.250 . S
O1129 Gd1080 2.412 . S
O1129 C1139 1.252 . S
O1130 Gd1081 2.545 . S
O1130 C1148 1.258 . S
O1131 Gd1080 2.362 . S
O1131 Gd1081 2.606 . S
O1131 C1147 1.284 . S
O1132 Gd1080 2.324 . S
O1132 C1155 1.254 . S
O1133 Gd1081 2.429 . S
O1133 C1155 1.268 . S
O1134 Gd1081 2.545 . S
O1134 C1147 1.250 . S
O1135 Gd1081 2.412 . S
O1135 C1148 1.252 . S
C1136 O1125 1.284 . S
C1136 O1128 1.250 . S
C1137 H1106 0.929 . S
C1137 C1122 1.437 . S
C1137 C1138 1.317 . S
C1138 H1109 0.930 1_655 S
C1138 C1114 1.431 . S
C1138 C1137 1.317 . S
C1139 Gd1080 2.828 . S
C1139 O1124 1.258 . S
C1139 O1129 1.252 . S
C1139 C1140 1.497 . S
C1140 C1139 1.497 . S
C1140 C1141 1.395 . S
C1140 C1142 1.380 . S
C1141 C1140 1.395 . S
C1141 C1144 1.398 . S
C1141 H1156 0.930 . S
C1142 C1140 1.380 . S
C1142 C1143 1.391 . S
C1142 H1157 0.930 . S
C1143 C1142 1.391 . S
C1143 C1145 1.387 . S
C1144 C1141 1.398 . S
C1144 C1145 1.380 . S
C1144 H1158 0.930 . S
C1145 C1143 1.387 . S
C1145 C1144 1.380 . S
C1145 H1159 0.930 . S
C1146 O1126 1.254 . S
C1146 O1127 1.268 . S
C1147 O1131 1.284 . S
C1147 O1134 1.250 . S
C1148 Gd1081 2.828 . S
C1148 O1130 1.258 . S
C1148 O1135 1.252 . S
C1148 C1149 1.497 . S
C1149 C1148 1.497 . S
C1149 C1150 1.395 . S
C1149 C1151 1.380 . S
C1150 C1149 1.395 . S
C1150 C1153 1.398 . S
C1150 H1160 0.930 . S
C1151 C1149 1.380 . S
C1151 C1152 1.391 . S
C1151 H1161 0.930 . S
C1152 C1151 1.391 . S
C1152 C1154 1.387 . S
C1153 C1150 1.398 . S
C1153 C1154 1.380 . S
C1153 H1162 0.930 . S
C1154 C1152 1.387 . S
C1154 C1153 1.380 . S
C1154 H1163 0.930 . S
C1155 O1132 1.254 . S
C1155 O1133 1.268 . S
H1156 C1141 0.930 . S
H1157 C1142 0.930 . S
H1158 C1144 0.930 . S
H1159 C1145 0.930 . S
H1160 C1150 0.930 . S
H1161 C1151 0.930 . S
H1162 C1153 0.930 . S
H1163 C1154 0.930 . S
Gd1164 N1195 2.661 . S
Gd1164 N1201 2.601 . S
Gd1164 O1208 2.545 . S
Gd1164 O1209 2.606 . S
Gd1164 O1211 2.429 . S
Gd1164 O1212 2.545 . S
Gd1164 O1213 2.412 . S
Gd1164 O1215 2.362 . S
Gd1164 O1216 2.324 . S
Gd1164 C1223 2.828 . S
Gd1165 N1174 2.661 . S
Gd1165 N1178 2.601 . S
Gd1165 O1209 2.362 . S
Gd1165 O1210 2.324 . S
Gd1165 O1214 2.545 . S
Gd1165 O1215 2.606 . S
Gd1165 O1217 2.429 . S
Gd1165 O1218 2.545 . S
Gd1165 O1219 2.412 . S
Gd1165 C1232 2.828 . S
C1166 C1169 1.417 . S
C1166 C1171 1.431 . S
C1166 C1172 1.412 . S
C1167 C1170 1.437 . S
C1167 C1171 1.317 . S
C1167 H1186 0.929 . S
C1168 C1169 1.426 . S
C1168 C1170 1.413 . S
C1168 N1178 1.359 . S
C1169 C1166 1.417 . S
C1169 C1168 1.426 . S
C1169 N1174 1.350 . S
C1170 C1167 1.437 . S
C1170 C1168 1.413 . S
C1170 C1180 1.391 . S
C1171 C1166 1.431 . S
C1171 C1167 1.317 . S
C1171 H1182 0.930 . S
C1172 C1166 1.412 . S
C1172 C1173 1.355 . S
C1172 H1184 0.930 . S
C1173 C1172 1.355 . S
C1173 C1175 1.402 . S
C1173 H1185 0.930 . S
N1174 Gd1165 2.661 . S
N1174 C1169 1.350 . S
N1174 C1175 1.307 . S
C1175 C1173 1.402 . S
C1175 N1174 1.307 . S
C1175 H1176 0.930 . S
H1176 C1175 0.930 . S
C1177 N1178 1.334 . S
C1177 C1179 1.394 . S
C1177 H1181 0.930 . S
N1178 Gd1165 2.601 . S
N1178 C1168 1.359 . S
N1178 C1177 1.334 . S
C1179 C1177 1.394 . S
C1179 C1180 1.359 . S
C1179 H1191 0.930 . S
C1180 C1170 1.391 . S
C1180 C1179 1.359 . S
C1180 H1192 0.929 . S
H1181 C1177 0.930 . S
H1182 C1171 0.930 . S
H1183 C1200 0.930 . S
H1184 C1172 0.930 . S
H1185 C1173 0.930 . S
H1186 C1167 0.929 . S
H1187 C1205 0.930 . S
H1188 C1196 0.930 . S
H1189 C1197 0.930 . S
H1190 C1221 0.929 . S
H1191 C1179 0.930 . S
H1192 C1180 0.929 . S
H1193 C1222 0.930 . S
H1194 C1203 0.930 . S
N1195 Gd1164 2.661 . S
N1195 C1199 1.350 . S
N1195 C1200 1.307 . S
C1196 H1188 0.930 . S
C1196 C1197 1.355 . S
C1196 C1198 1.412 . S
C1197 H1189 0.930 . S
C1197 C1196 1.355 . S
C1197 C1200 1.402 . S
C1198 C1196 1.412 . S
C1198 C1199 1.417 . S
C1198 C1222 1.431 . S
C1199 N1195 1.350 . S
C1199 C1198 1.417 . S
C1199 C1202 1.426 . S
C1200 H1183 0.930 . S
C1200 N1195 1.307 . S
C1200 C1197 1.402 . S
N1201 Gd1164 2.601 . S
N1201 C1202 1.359 . S
N1201 C1205 1.334 . S
C1202 C1199 1.426 . S
C1202 N1201 1.359 . S
C1202 C1206 1.413 . S
C1203 H1194 0.930 . S
C1203 C1204 1.359 . S
C1203 C1205 1.394 . S
C1204 C1203 1.359 . S
C1204 C1206 1.391 . S
C1204 H1207 0.929 . S
C1205 H1187 0.930 . S
C1205 N1201 1.334 . S
C1205 C1203 1.394 . S
C1206 C1202 1.413 . S
C1206 C1204 1.391 . S
C1206 C1221 1.437 . S
H1207 C1204 0.929 . S
O1208 Gd1164 2.545 . S
O1208 C1223 1.258 . S
O1209 Gd1164 2.606 . S
O1209 Gd1165 2.362 . S
O1209 C1220 1.284 . S
O1210 Gd1165 2.324 . S
O1210 C1230 1.254 . S
O1211 Gd1164 2.429 . S
O1211 C1230 1.268 . S
O1212 Gd1164 2.545 . S
O1212 C1220 1.250 . S
O1213 Gd1164 2.412 . S
O1213 C1223 1.252 . S
O1214 Gd1165 2.545 . S
O1214 C1232 1.258 . S
O1215 Gd1164 2.362 . S
O1215 Gd1165 2.606 . S
O1215 C1231 1.284 . S
O1216 Gd1164 2.324 . S
O1216 C1239 1.254 . S
O1217 Gd1165 2.429 . S
O1217 C1239 1.268 . S
O1218 Gd1165 2.545 . S
O1218 C1231 1.250 . S
O1219 Gd1165 2.412 . S
O1219 C1232 1.252 . S
C1220 O1209 1.284 . S
C1220 O1212 1.250 . S
C1221 H1190 0.929 . S
C1221 C1206 1.437 . S
C1221 C1222 1.317 . S
C1222 H1193 0.930 . S
C1222 C1198 1.431 . S
C1222 C1221 1.317 . S
C1223 Gd1164 2.828 . S
C1223 O1208 1.258 . S
C1223 O1213 1.252 . S
C1223 C1224 1.497 . S
C1224 C1223 1.497 . S
C1224 C1225 1.395 . S
C1224 C1226 1.380 . S
C1225 C1224 1.395 . S
C1225 C1228 1.398 . S
C1225 H1240 0.930 . S
C1226 C1224 1.380 . S
C1226 C1227 1.391 . S
C1226 H1241 0.930 . S
C1227 C1226 1.391 . S
C1227 C1229 1.387 . S
C1228 C1225 1.398 . S
C1228 C1229 1.380 . S
C1228 H1242 0.930 . S
C1229 C1227 1.387 . S
C1229 C1228 1.380 . S
C1229 H1243 0.930 . S
C1230 O1210 1.254 . S
C1230 O1211 1.268 . S
C1231 O1215 1.284 . S
C1231 O1218 1.250 . S
C1232 Gd1165 2.828 . S
C1232 O1214 1.258 . S
C1232 O1219 1.252 . S
C1232 C1233 1.497 . S
C1233 C1232 1.497 . S
C1233 C1234 1.395 . S
C1233 C1235 1.380 . S
C1234 C1233 1.395 . S
C1234 C1237 1.398 . S
C1234 H1244 0.930 . S
C1235 C1233 1.380 . S
C1235 C1236 1.391 . S
C1235 H1245 0.930 . S
C1236 C1235 1.391 . S
C1236 C1238 1.387 . S
C1237 C1234 1.398 . S
C1237 C1238 1.380 . S
C1237 H1246 0.930 . S
C1238 C1236 1.387 . S
C1238 C1237 1.380 . S
C1238 H1247 0.930 . S
C1239 O1216 1.254 . S
C1239 O1217 1.268 . S
H1240 C1225 0.930 . S
H1241 C1226 0.930 . S
H1242 C1228 0.930 . S
H1243 C1229 0.930 . S
H1244 C1234 0.930 . S
H1245 C1235 0.930 . S
H1246 C1237 0.930 . S
H1247 C1238 0.930 . S
Gd1248 N1279 2.661 . S
Gd1248 N1285 2.601 . S
Gd1248 O1292 2.545 . S
Gd1248 O1293 2.606 . S
Gd1248 O1295 2.429 . S
Gd1248 O1296 2.545 . S
Gd1248 O1297 2.412 . S
Gd1248 O1299 2.362 . S
Gd1248 O1300 2.324 . S
Gd1248 C1307 2.828 . S
Gd1249 N1258 2.661 . S
Gd1249 N1262 2.601 . S
Gd1249 O1293 2.362 . S
Gd1249 O1294 2.324 . S
Gd1249 O1298 2.545 . S
Gd1249 O1299 2.606 . S
Gd1249 O1301 2.429 . S
Gd1249 O1302 2.545 . S
Gd1249 O1303 2.412 . S
Gd1249 C1316 2.828 . S
C1250 C1253 1.417 . S
C1250 C1255 1.431 . S
C1250 C1256 1.412 . S
C1251 C1254 1.437 . S
C1251 C1255 1.317 . S
C1251 H1270 0.929 . S
C1252 C1253 1.426 . S
C1252 C1254 1.413 . S
C1252 N1262 1.359 . S
C1253 C1250 1.417 . S
C1253 C1252 1.426 . S
C1253 N1258 1.350 . S
C1254 C1251 1.437 . S
C1254 C1252 1.413 . S
C1254 C1264 1.391 . S
C1255 C1250 1.431 . S
C1255 C1251 1.317 . S
C1255 H1266 0.930 1_655 S
C1256 C1250 1.412 . S
C1256 C1257 1.355 . S
C1256 H1268 0.930 1_655 S
C1257 C1256 1.355 . S
C1257 C1259 1.402 . S
C1257 H1269 0.930 . S
N1258 Gd1249 2.661 . S
N1258 C1253 1.350 . S
N1258 C1259 1.307 . S
C1259 C1257 1.402 . S
C1259 N1258 1.307 . S
C1259 H1260 0.930 . S
H1260 C1259 0.930 . S
C1261 N1262 1.334 . S
C1261 C1263 1.394 . S
C1261 H1265 0.930 . S
N1262 Gd1249 2.601 . S
N1262 C1252 1.359 . S
N1262 C1261 1.334 . S
C1263 C1261 1.394 . S
C1263 C1264 1.359 . S
C1263 H1275 0.930 . S
C1264 C1254 1.391 . S
C1264 C1263 1.359 . S
C1264 H1276 0.929 . S
H1265 C1261 0.930 . S
H1266 C1255 0.930 1_455 S
H1267 C1284 0.930 . S
H1268 C1256 0.930 1_455 S
H1269 C1257 0.930 . S
H1270 C1251 0.929 . S
H1271 C1289 0.930 . S
H1272 C1280 0.930 . S
H1273 C1281 0.930 . S
H1274 C1305 0.929 . S
H1275 C1263 0.930 . S
H1276 C1264 0.929 . S
H1277 C1306 0.930 . S
H1278 C1287 0.930 . S
N1279 Gd1248 2.661 . S
N1279 C1283 1.350 . S
N1279 C1284 1.307 . S
C1280 H1272 0.930 . S
C1280 C1281 1.355 . S
C1280 C1282 1.412 . S
C1281 H1273 0.930 . S
C1281 C1280 1.355 . S
C1281 C1284 1.402 . S
C1282 C1280 1.412 . S
C1282 C1283 1.417 . S
C1282 C1306 1.431 . S
C1283 N1279 1.350 . S
C1283 C1282 1.417 . S
C1283 C1286 1.426 . S
C1284 H1267 0.930 . S
C1284 N1279 1.307 . S
C1284 C1281 1.402 . S
N1285 Gd1248 2.601 . S
N1285 C1286 1.359 . S
N1285 C1289 1.334 . S
C1286 C1283 1.426 . S
C1286 N1285 1.359 . S
C1286 C1290 1.413 . S
C1287 H1278 0.930 . S
C1287 C1288 1.359 . S
C1287 C1289 1.394 . S
C1288 C1287 1.359 . S
C1288 C1290 1.391 . S
C1288 H1291 0.929 . S
C1289 H1271 0.930 . S
C1289 N1285 1.334 . S
C1289 C1287 1.394 . S
C1290 C1286 1.413 . S
C1290 C1288 1.391 . S
C1290 C1305 1.437 . S
H1291 C1288 0.929 . S
O1292 Gd1248 2.545 . S
O1292 C1307 1.258 . S
O1293 Gd1248 2.606 . S
O1293 Gd1249 2.362 . S
O1293 C1304 1.284 . S
O1294 Gd1249 2.324 . S
O1294 C1314 1.254 . S
O1295 Gd1248 2.429 . S
O1295 C1314 1.268 . S
O1296 Gd1248 2.545 . S
O1296 C1304 1.250 . S
O1297 Gd1248 2.412 . S
O1297 C1307 1.252 . S
O1298 Gd1249 2.545 . S
O1298 C1316 1.258 . S
O1299 Gd1248 2.362 . S
O1299 Gd1249 2.606 . S
O1299 C1315 1.284 . S
O1300 Gd1248 2.324 . S
O1300 C1323 1.254 . S
O1301 Gd1249 2.429 . S
O1301 C1323 1.268 . S
O1302 Gd1249 2.545 . S
O1302 C1315 1.250 . S
O1303 Gd1249 2.412 . S
O1303 C1316 1.252 . S
C1304 O1293 1.284 . S
C1304 O1296 1.250 . S
C1305 H1274 0.929 . S
C1305 C1290 1.437 . S
C1305 C1306 1.317 . S
C1306 H1277 0.930 . S
C1306 C1282 1.431 . S
C1306 C1305 1.317 . S
C1307 Gd1248 2.828 . S
C1307 O1292 1.258 . S
C1307 O1297 1.252 . S
C1307 C1308 1.497 . S
C1308 C1307 1.497 . S
C1308 C1309 1.395 . S
C1308 C1310 1.380 . S
C1309 C1308 1.395 . S
C1309 C1312 1.398 . S
C1309 H1324 0.930 . S
C1310 C1308 1.380 . S
C1310 C1311 1.391 . S
C1310 H1325 0.930 . S
C1311 C1310 1.391 . S
C1311 C1313 1.387 . S
C1312 C1309 1.398 . S
C1312 C1313 1.380 . S
C1312 H1326 0.930 . S
C1313 C1311 1.387 . S
C1313 C1312 1.380 . S
C1313 H1327 0.930 . S
C1314 O1294 1.254 . S
C1314 O1295 1.268 . S
C1315 O1299 1.284 . S
C1315 O1302 1.250 . S
C1316 Gd1249 2.828 . S
C1316 O1298 1.258 . S
C1316 O1303 1.252 . S
C1316 C1317 1.497 . S
C1317 C1316 1.497 . S
C1317 C1318 1.395 . S
C1317 C1319 1.380 . S
C1318 C1317 1.395 . S
C1318 C1321 1.398 . S
C1318 H1328 0.930 . S
C1319 C1317 1.380 . S
C1319 C1320 1.391 . S
C1319 H1329 0.930 . S
C1320 C1319 1.391 . S
C1320 C1322 1.387 . S
C1321 C1318 1.398 . S
C1321 C1322 1.380 . S
C1321 H1330 0.930 . S
C1322 C1320 1.387 . S
C1322 C1321 1.380 . S
C1322 H1331 0.930 . S
C1323 O1300 1.254 . S
C1323 O1301 1.268 . S
H1324 C1309 0.930 . S
H1325 C1310 0.930 . S
H1326 C1312 0.930 . S
H1327 C1313 0.930 . S
H1328 C1318 0.930 . S
H1329 C1319 0.930 . S
H1330 C1321 0.930 . S
H1331 C1322 0.930 . S
C1332 C1333 1.369 . S
C1332 C1334 1.419 . S
C1332 H1336 0.930 . S
C1333 C1332 1.369 . S
C1333 C1342 1.429 . S
C1334 C1332 1.419 . S
C1334 C1335 1.363 . S
C1334 H1337 0.929 . S
C1335 C1334 1.363 . S
C1335 C1341 1.428 . S
H1336 C1332 0.930 . S
H1337 C1334 0.929 . S
S1338 N1339 1.613 . S
S1338 N1340 1.610 . S
N1339 S1338 1.613 . S
N1339 C1342 1.350 . S
N1340 S1338 1.610 . S
N1340 C1341 1.351 . S
C1341 C1335 1.428 . S
C1341 N1340 1.351 . S
C1341 C1342 1.434 . S
C1342 C1333 1.429 . S
C1342 N1339 1.350 . S
C1342 C1341 1.434 . S
C1343 C1344 1.369 . S
C1343 C1345 1.419 . S
C1343 H1347 0.930 . S
C1344 C1343 1.369 . S
C1344 C1353 1.429 . S
C1345 C1343 1.419 . S
C1345 C1346 1.363 . S
C1345 H1348 0.929 . S
C1346 C1345 1.363 . S
C1346 C1352 1.428 . S
H1347 C1343 0.930 . S
H1348 C1345 0.929 . S
S1349 N1350 1.613 . S
S1349 N1351 1.610 . S
N1350 S1349 1.613 . S
N1350 C1353 1.350 . S
N1351 S1349 1.610 . S
N1351 C1352 1.351 . S
C1352 C1346 1.428 . S
C1352 N1351 1.351 . S
C1352 C1353 1.434 . S
C1353 C1344 1.429 . S
C1353 N1350 1.350 . S
C1353 C1352 1.434 . S
C1354 C1355 1.369 . S
C1354 C1356 1.419 . S
C1354 H1358 0.930 . S
C1355 C1354 1.369 . S
C1355 C1364 1.429 . S
C1356 C1354 1.419 . S
C1356 C1357 1.363 . S
C1356 H1359 0.929 . S
C1357 C1356 1.363 . S
C1357 C1363 1.428 . S
H1358 C1354 0.930 . S
H1359 C1356 0.929 . S
S1360 N1361 1.613 . S
S1360 N1362 1.610 . S
N1361 S1360 1.613 . S
N1361 C1364 1.350 . S
N1362 S1360 1.610 . S
N1362 C1363 1.351 . S
C1363 C1357 1.428 . S
C1363 N1362 1.351 . S
C1363 C1364 1.434 . S
C1364 C1355 1.429 . S
C1364 N1361 1.350 . S
C1364 C1363 1.434 . S
C1365 C1366 1.369 . S
C1365 C1367 1.419 . S
C1365 H1369 0.930 . S
C1366 C1365 1.369 . S
C1366 C1375 1.429 . S
C1367 C1365 1.419 . S
C1367 C1368 1.363 . S
C1367 H1370 0.929 1_556 S
C1368 C1367 1.363 . S
C1368 C1374 1.428 . S
H1369 C1365 0.930 . S
H1370 C1367 0.929 1_554 S
S1371 N1372 1.613 . S
S1371 N1373 1.610 . S
N1372 S1371 1.613 . S
N1372 C1375 1.350 . S
N1373 S1371 1.610 . S
N1373 C1374 1.351 . S
C1374 C1368 1.428 . S
C1374 N1373 1.351 . S
C1374 C1375 1.434 . S
C1375 C1366 1.429 . S
C1375 N1372 1.350 . S
C1375 C1374 1.434 . S
C1376 C1377 1.369 . S
C1376 C1378 1.419 . S
C1376 H1380 0.930 . S
C1377 C1376 1.369 . S
C1377 C1386 1.429 . S
C1378 C1376 1.419 . S
C1378 C1379 1.363 . S
C1378 H1381 0.929 . S
C1379 C1378 1.363 . S
C1379 C1385 1.428 . S
H1380 C1376 0.930 . S
H1381 C1378 0.929 . S
S1382 N1383 1.613 . S
S1382 N1384 1.610 . S
N1383 S1382 1.613 . S
N1383 C1386 1.350 . S
N1384 S1382 1.610 . S
N1384 C1385 1.351 . S
C1385 C1379 1.428 . S
C1385 N1384 1.351 . S
C1385 C1386 1.434 . S
C1386 C1377 1.429 . S
C1386 N1383 1.350 . S
C1386 C1385 1.434 . S
C1387 C1388 1.369 . S
C1387 C1389 1.419 . S
C1387 H1391 0.930 . S
C1388 C1387 1.369 . S
C1388 C1397 1.429 . S
C1389 C1387 1.419 . S
C1389 C1390 1.363 . S
C1389 H1392 0.929 . S
C1390 C1389 1.363 . S
C1390 C1396 1.428 . S
H1391 C1387 0.930 . S
H1392 C1389 0.929 . S
S1393 N1394 1.613 . S
S1393 N1395 1.610 . S
N1394 S1393 1.613 . S
N1394 C1397 1.350 . S
N1395 S1393 1.610 . S
N1395 C1396 1.351 . S
C1396 C1390 1.428 . S
C1396 N1395 1.351 . S
C1396 C1397 1.434 . S
C1397 C1388 1.429 . S
C1397 N1394 1.350 . S
C1397 C1396 1.434 . S
C1398 C1399 1.369 . S
C1398 C1400 1.419 . S
C1398 H1402 0.930 . S
C1399 C1398 1.369 . S
C1399 C1408 1.429 . S
C1400 C1398 1.419 . S
C1400 C1401 1.363 . S
C1400 H1403 0.929 . S
C1401 C1400 1.363 . S
C1401 C1407 1.428 . S
H1402 C1398 0.930 . S
H1403 C1400 0.929 . S
S1404 N1405 1.613 1_554 S
S1404 N1406 1.610 . S
N1405 S1404 1.613 1_556 S
N1405 C1408 1.350 . S
N1406 S1404 1.610 . S
N1406 C1407 1.351 1_554 S
C1407 C1401 1.428 . S
C1407 N1406 1.351 1_556 S
C1407 C1408 1.434 . S
C1408 C1399 1.429 . S
C1408 N1405 1.350 . S
C1408 C1407 1.434 . S
C1409 C1410 1.369 . S
C1409 C1411 1.419 . S
C1409 H1413 0.930 . S
C1410 C1409 1.369 . S
C1410 C1419 1.429 . S
C1411 C1409 1.419 . S
C1411 C1412 1.363 . S
C1411 H1414 0.929 . S
C1412 C1411 1.363 . S
C1412 C1418 1.428 . S
H1413 C1409 0.930 . S
H1414 C1411 0.929 . S
S1415 N1416 1.613 . S
S1415 N1417 1.610 . S
N1416 S1415 1.613 . S
N1416 C1419 1.350 . S
N1417 S1415 1.610 . S
N1417 C1418 1.351 . S
C1418 C1412 1.428 . S
C1418 N1417 1.351 . S
C1418 C1419 1.434 . S
C1419 C1410 1.429 . S
C1419 N1416 1.350 . S
C1419 C1418 1.434 . S
C1420 C1421 1.369 . S
C1420 C1422 1.419 . S
C1420 H1424 0.930 . S
C1421 C1420 1.369 . S
C1421 C1430 1.429 . S
C1422 C1420 1.419 . S
C1422 C1423 1.363 . S
C1422 H1425 0.929 . S
C1423 C1422 1.363 . S
C1423 C1429 1.428 . S
H1424 C1420 0.930 . S
H1425 C1422 0.929 . S
S1426 N1427 1.613 . S
S1426 N1428 1.610 . S
N1427 S1426 1.613 . S
N1427 C1430 1.350 1_554 S
N1428 S1426 1.610 . S
N1428 C1429 1.351 1_554 S
C1429 C1423 1.428 . S
C1429 N1428 1.351 1_556 S
C1429 C1430 1.434 . S
C1430 C1421 1.429 . S
C1430 N1427 1.350 1_556 S
C1430 C1429 1.434 . S
C1431 C1432 1.369 . S
C1431 C1433 1.419 . S
C1431 H1435 0.930 . S
C1432 C1431 1.369 . S
C1432 C1441 1.429 . S
C1433 C1431 1.419 . S
C1433 C1434 1.363 . S
C1433 H1436 0.929 . S
C1434 C1433 1.363 . S
C1434 C1440 1.428 . S
H1435 C1431 0.930 . S
H1436 C1433 0.929 . S
S1437 N1438 1.613 1_556 S
S1437 N1439 1.609 . S
N1438 S1437 1.613 1_554 S
N1438 C1441 1.350 . S
N1439 S1437 1.609 . S
N1439 C1440 1.355 1_556 S
C1440 C1434 1.428 . S
C1440 N1439 1.355 1_554 S
C1440 C1441 1.434 . S
C1441 C1432 1.429 . S
C1441 N1438 1.350 . S
C1441 C1440 1.434 . S
C1442 C1443 1.369 . S
C1442 C1444 1.419 . S
C1442 H1446 0.930 . S
C1443 C1442 1.369 . S
C1443 C1452 1.429 . S
C1444 C1442 1.419 . S
C1444 C1445 1.363 . S
C1444 H1447 0.929 . S
C1445 C1444 1.363 . S
C1445 C1451 1.428 . S
H1446 C1442 0.930 . S
H1447 C1444 0.929 . S
S1448 N1449 1.613 . S
S1448 N1450 1.610 . S
N1449 S1448 1.613 . S
N1449 C1452 1.350 . S
N1450 S1448 1.610 . S
N1450 C1451 1.351 . S
C1451 C1445 1.428 . S
C1451 N1450 1.351 . S
C1451 C1452 1.434 . S
C1452 C1443 1.429 . S
C1452 N1449 1.350 . S
C1452 C1451 1.434 . S
C1453 C1454 1.369 . S
C1453 C1455 1.419 . S
C1453 H1457 0.930 . S
C1454 C1453 1.369 . S
C1454 C1463 1.429 . S
C1455 C1453 1.419 . S
C1455 C1456 1.363 . S
C1455 H1458 0.929 . S
C1456 C1455 1.363 . S
C1456 C1462 1.428 . S
H1457 C1453 0.930 . S
H1458 C1455 0.929 . S
S1459 N1460 1.613 1_556 S
S1459 N1461 1.610 . S
N1460 S1459 1.613 1_554 S
N1460 C1463 1.350 . S
N1461 S1459 1.610 . S
N1461 C1462 1.351 1_556 S
C1462 C1456 1.428 . S
C1462 N1461 1.351 1_554 S
C1462 C1463 1.434 . S
C1463 C1454 1.429 . S
C1463 N1460 1.350 . S
C1463 C1462 1.434 . S
C1464 C1465 1.369 . S
C1464 C1466 1.419 . S
C1464 H1468 0.930 . S
C1465 C1464 1.369 . S
C1465 C1474 1.429 . S
C1466 C1464 1.419 . S
C1466 C1467 1.363 . S
C1466 H1469 0.929 . S
C1467 C1466 1.363 . S
C1467 C1473 1.428 . S
H1468 C1464 0.930 . S
H1469 C1466 0.929 . S
S1470 N1471 1.613 1_455 S
S1470 N1472 1.610 . S
N1471 S1470 1.613 1_655 S
N1471 C1474 1.350 1_655 S
N1472 S1470 1.610 . S
N1472 C1473 1.351 . S
C1473 C1467 1.428 . S
C1473 N1472 1.351 . S
C1473 C1474 1.434 . S
C1474 C1465 1.429 . S
C1474 N1471 1.350 1_455 S
C1474 C1473 1.434 . S
C1475 C1476 1.369 . S
C1475 C1477 1.419 . S
C1475 H1479 0.930 . S
C1476 C1475 1.369 . S
C1476 C1485 1.429 . S
C1477 C1475 1.419 . S
C1477 C1478 1.363 . S
C1477 H1480 0.929 . S
C1478 C1477 1.363 . S
C1478 C1484 1.428 . S
H1479 C1475 0.930 . S
H1480 C1477 0.929 . S
S1481 N1482 1.613 . S
S1481 N1483 1.610 . S
N1482 S1481 1.613 . S
N1482 C1485 1.350 . S
N1483 S1481 1.610 . S
N1483 C1484 1.351 . S
C1484 C1478 1.428 . S
C1484 N1483 1.351 . S
C1484 C1485 1.434 . S
C1485 C1476 1.429 . S
C1485 N1482 1.350 . S
C1485 C1484 1.434 . S
C1486 C1487 1.367 1_565 S
C1486 C1488 1.419 . S
C1486 H1490 0.930 . S
C1487 C1486 1.367 1_545 S
C1487 C1496 1.427 1_545 S
C1488 C1486 1.419 . S
C1488 C1489 1.363 . S
C1488 H1491 0.929 . S
C1489 C1488 1.363 . S
C1489 C1495 1.428 . S
H1490 C1486 0.930 . S
H1491 C1488 0.929 . S
S1492 N1493 1.613 1_565 S
S1492 N1494 1.610 . S
N1493 S1492 1.613 1_545 S
N1493 C1496 1.350 1_545 S
N1494 S1492 1.610 . S
N1494 C1495 1.351 . S
C1495 C1489 1.428 . S
C1495 N1494 1.351 . S
C1495 C1496 1.434 . S
C1496 C1487 1.427 1_565 S
C1496 N1493 1.350 1_565 S
C1496 C1495 1.434 . S
C1497 C1498 1.369 . S
C1497 C1499 1.419 . S
C1497 H1501 0.930 . S
C1498 C1497 1.369 . S
C1498 C1507 1.429 . S
C1499 C1497 1.419 . S
C1499 C1500 1.363 . S
C1499 H1502 0.929 . S
C1500 C1499 1.363 . S
C1500 C1506 1.428 . S
H1501 C1497 0.930 . S
H1502 C1499 0.929 . S
S1503 N1504 1.613 . S
S1503 N1505 1.610 . S
N1504 S1503 1.613 . S
N1504 C1507 1.350 . S
N1505 S1503 1.610 . S
N1505 C1506 1.351 . S
C1506 C1500 1.428 . S
C1506 N1505 1.351 . S
C1506 C1507 1.434 . S
C1507 C1498 1.429 . S
C1507 N1504 1.350 . S
C1507 C1506 1.434 . S
C1508 C1509 1.369 . S
C1508 C1510 1.419 . S
C1508 H1512 0.930 . S
C1509 C1508 1.369 . S
C1509 C1518 1.429 . S
C1510 C1508 1.419 . S
C1510 C1511 1.363 . S
C1510 H1513 0.929 . S
C1511 C1510 1.363 . S
C1511 C1517 1.428 . S
H1512 C1508 0.930 . S
H1513 C1510 0.929 . S
S1514 N1515 1.613 . S
S1514 N1516 1.610 . S
N1515 S1514 1.613 . S
N1515 C1518 1.350 . S
N1516 S1514 1.610 . S
N1516 C1517 1.351 . S
C1517 C1511 1.428 . S
C1517 N1516 1.351 . S
C1517 C1518 1.434 . S
C1518 C1509 1.429 . S
C1518 N1515 1.350 . S
C1518 C1517 1.434 . S
C1519 C1520 1.369 . S
C1519 C1521 1.419 . S
C1519 H1523 0.930 . S
C1520 C1519 1.369 . S
C1520 C1529 1.429 . S
C1521 C1519 1.419 . S
C1521 C1522 1.363 . S
C1521 H1524 0.929 . S
C1522 C1521 1.363 . S
C1522 C1528 1.428 . S
H1523 C1519 0.930 . S
H1524 C1521 0.929 . S
S1525 N1526 1.613 . S
S1525 N1527 1.610 . S
N1526 S1525 1.613 . S
N1526 C1529 1.350 . S
N1527 S1525 1.610 . S
N1527 C1528 1.351 . S
C1528 C1522 1.428 . S
C1528 N1527 1.351 . S
C1528 C1529 1.434 . S
C1529 C1520 1.429 . S
C1529 N1526 1.350 . S
C1529 C1528 1.434 . S
C1530 C1531 1.369 . S
C1530 C1532 1.419 . S
C1530 H1534 0.930 . S
C1531 C1530 1.369 . S
C1531 C1540 1.429 . S
C1532 C1530 1.419 . S
C1532 C1533 1.363 . S
C1532 H1535 0.929 . S
C1533 C1532 1.363 . S
C1533 C1539 1.428 . S
H1534 C1530 0.930 . S
H1535 C1532 0.929 . S
S1536 N1537 1.613 . S
S1536 N1538 1.610 . S
N1537 S1536 1.613 . S
N1537 C1540 1.350 . S
N1538 S1536 1.610 . S
N1538 C1539 1.351 . S
C1539 C1533 1.428 . S
C1539 N1538 1.351 . S
C1539 C1540 1.434 . S
C1540 C1531 1.429 . S
C1540 N1537 1.350 . S
C1540 C1539 1.434 . S
C1541 C1542 1.369 . S
C1541 C1543 1.419 . S
C1541 H1545 0.930 . S
C1542 C1541 1.369 . S
C1542 C1551 1.429 . S
C1543 C1541 1.419 . S
C1543 C1544 1.363 . S
C1543 H1546 0.929 . S
C1544 C1543 1.363 . S
C1544 C1550 1.428 . S
H1545 C1541 0.930 . S
H1546 C1543 0.929 . S
S1547 N1548 1.613 . S
S1547 N1549 1.610 . S
N1548 S1547 1.613 . S
N1548 C1551 1.350 . S
N1549 S1547 1.610 . S
N1549 C1550 1.351 . S
C1550 C1544 1.428 . S
C1550 N1549 1.351 . S
C1550 C1551 1.434 . S
C1551 C1542 1.429 . S
C1551 N1548 1.350 . S
C1551 C1550 1.434 . S
C1552 C1553 1.369 . S
C1552 C1554 1.419 . S
C1552 H1556 0.930 . S
C1553 C1552 1.369 . S
C1553 C1562 1.429 . S
C1554 C1552 1.419 . S
C1554 C1555 1.363 . S
C1554 H1557 0.929 . S
C1555 C1554 1.363 . S
C1555 C1561 1.428 . S
H1556 C1552 0.930 . S
H1557 C1554 0.929 . S
S1558 N1559 1.613 . S
S1558 N1560 1.610 . S
N1559 S1558 1.613 . S
N1559 C1562 1.350 . S
N1560 S1558 1.610 . S
N1560 C1561 1.351 . S
C1561 C1555 1.428 . S
C1561 N1560 1.351 . S
C1561 C1562 1.434 . S
C1562 C1553 1.429 . S
C1562 N1559 1.350 . S
C1562 C1561 1.434 . S
C1563 C1564 1.369 . S
C1563 C1565 1.419 . S
C1563 H1567 0.930 . S
C1564 C1563 1.369 . S
C1564 C1573 1.429 . S
C1565 C1563 1.419 . S
C1565 C1566 1.363 . S
C1565 H1568 0.929 . S
C1566 C1565 1.363 . S
C1566 C1572 1.428 . S
H1567 C1563 0.930 . S
H1568 C1565 0.929 . S
S1569 N1570 1.613 . S
S1569 N1571 1.610 . S
N1570 S1569 1.613 . S
N1570 C1573 1.350 . S
N1571 S1569 1.610 . S
N1571 C1572 1.351 . S
C1572 C1566 1.428 . S
C1572 N1571 1.351 . S
C1572 C1573 1.434 . S
C1573 C1564 1.429 . S
C1573 N1570 1.350 . S
C1573 C1572 1.434 . S
C1574 C1575 1.369 . S
C1574 C1576 1.419 . S
C1574 H1578 0.930 . S
C1575 C1574 1.369 . S
C1575 C1584 1.429 . S
C1576 C1574 1.419 . S
C1576 C1577 1.363 . S
C1576 H1579 0.929 . S
C1577 C1576 1.363 . S
C1577 C1583 1.428 . S
H1578 C1574 0.930 . S
H1579 C1576 0.929 . S
S1580 N1581 1.613 . S
S1580 N1582 1.610 . S
N1581 S1580 1.613 . S
N1581 C1584 1.350 . S
N1582 S1580 1.610 . S
N1582 C1583 1.351 . S
C1583 C1577 1.428 . S
C1583 N1582 1.351 . S
C1583 C1584 1.434 . S
C1584 C1575 1.429 . S
C1584 N1581 1.350 . S
C1584 C1583 1.434 . S
C1585 C1586 1.369 . S
C1585 C1587 1.419 . S
C1585 H1589 0.930 . S
C1586 C1585 1.369 . S
C1586 C1595 1.429 . S
C1587 C1585 1.419 . S
C1587 C1588 1.363 . S
C1587 H1590 0.929 . S
C1588 C1587 1.363 . S
C1588 C1594 1.428 . S
H1589 C1585 0.930 . S
H1590 C1587 0.929 . S
S1591 N1592 1.613 . S
S1591 N1593 1.610 . S
N1592 S1591 1.613 . S
N1592 C1595 1.350 . S
N1593 S1591 1.610 . S
N1593 C1594 1.351 . S
C1594 C1588 1.428 . S
C1594 N1593 1.351 . S
C1594 C1595 1.434 . S
C1595 C1586 1.429 . S
C1595 N1592 1.350 . S
C1595 C1594 1.434 . S
C1596 C1597 1.369 . S
C1596 C1598 1.419 . S
C1596 H1600 0.930 . S
C1597 C1596 1.369 . S
C1597 C1606 1.429 . S
C1598 C1596 1.419 . S
C1598 C1599 1.363 . S
C1598 H1601 0.929 . S
C1599 C1598 1.363 . S
C1599 C1605 1.428 . S
H1600 C1596 0.930 . S
H1601 C1598 0.929 . S
S1602 N1603 1.613 . S
S1602 N1604 1.610 . S
N1603 S1602 1.613 . S
N1603 C1606 1.350 . S
N1604 S1602 1.610 . S
N1604 C1605 1.351 . S
C1605 C1599 1.428 . S
C1605 N1604 1.351 . S
C1605 C1606 1.434 . S
C1606 C1597 1.429 . S
C1606 N1603 1.350 . S
C1606 C1605 1.434 . S
C1607 C1608 1.369 . S
C1607 C1609 1.419 . S
C1607 H1611 0.930 . S
C1608 C1607 1.369 . S
C1608 C1617 1.429 . S
C1609 C1607 1.419 . S
C1609 C1610 1.363 . S
C1609 H1612 0.929 . S
C1610 C1609 1.363 . S
C1610 C1616 1.428 . S
H1611 C1607 0.930 . S
H1612 C1609 0.929 . S
S1613 N1614 1.613 . S
S1613 N1615 1.610 . S
N1614 S1613 1.613 . S
N1614 C1617 1.350 . S
N1615 S1613 1.610 . S
N1615 C1616 1.351 . S
C1616 C1610 1.428 . S
C1616 N1615 1.351 . S
C1616 C1617 1.434 . S
C1617 C1608 1.429 . S
C1617 N1614 1.350 . S
C1617 C1616 1.434 . S
C1618 C1619 1.369 . S
C1618 C1620 1.419 . S
C1618 H1622 0.930 . S
C1619 C1618 1.369 . S
C1619 C1628 1.429 . S
C1620 C1618 1.419 . S
C1620 C1621 1.363 . S
C1620 H1623 0.929 . S
C1621 C1620 1.363 . S
C1621 C1627 1.428 . S
H1622 C1618 0.930 . S
H1623 C1620 0.929 . S
S1624 N1625 1.613 . S
S1624 N1626 1.610 . S
N1625 S1624 1.613 . S
N1625 C1628 1.350 . S
N1626 S1624 1.610 . S
N1626 C1627 1.351 . S
C1627 C1621 1.428 . S
C1627 N1626 1.351 . S
C1627 C1628 1.434 . S
C1628 C1619 1.429 . S
C1628 N1625 1.350 . S
C1628 C1627 1.434 . S
C1629 C1630 1.369 . S
C1629 C1631 1.419 . S
C1629 H1633 0.930 . S
C1630 C1629 1.369 . S
C1630 C1639 1.429 . S
C1631 C1629 1.419 . S
C1631 C1632 1.363 . S
C1631 H1634 0.929 . S
C1632 C1631 1.363 . S
C1632 C1638 1.428 . S
H1633 C1629 0.930 . S
H1634 C1631 0.929 . S
S1635 N1636 1.613 . S
S1635 N1637 1.610 . S
N1636 S1635 1.613 . S
N1636 C1639 1.350 . S
N1637 S1635 1.610 . S
N1637 C1638 1.351 . S
C1638 C1632 1.428 . S
C1638 N1637 1.351 . S
C1638 C1639 1.434 . S
C1639 C1630 1.429 . S
C1639 N1636 1.350 . S
C1639 C1638 1.434 . S
C1640 C1641 1.369 . S
C1640 C1642 1.419 . S
C1640 H1644 0.930 . S
C1641 C1640 1.369 . S
C1641 C1650 1.429 . S
C1642 C1640 1.419 . S
C1642 C1643 1.363 . S
C1642 H1645 0.929 . S
C1643 C1642 1.363 . S
C1643 C1649 1.428 . S
H1644 C1640 0.930 . S
H1645 C1642 0.929 . S
S1646 N1647 1.613 . S
S1646 N1648 1.610 . S
N1647 S1646 1.613 . S
N1647 C1650 1.350 . S
N1648 S1646 1.610 . S
N1648 C1649 1.351 . S
C1649 C1643 1.428 . S
C1649 N1648 1.351 . S
C1649 C1650 1.434 . S
C1650 C1641 1.429 . S
C1650 N1647 1.350 . S
C1650 C1649 1.434 . S
C1651 C1652 1.369 . S
C1651 C1653 1.419 . S
C1651 H1655 0.930 . S
C1652 C1651 1.369 . S
C1652 C1661 1.429 . S
C1653 C1651 1.419 . S
C1653 C1654 1.363 . S
C1653 H1656 0.929 . S
C1654 C1653 1.363 . S
C1654 C1660 1.428 . S
H1655 C1651 0.930 . S
H1656 C1653 0.929 . S
S1657 N1658 1.613 . S
S1657 N1659 1.610 . S
N1658 S1657 1.613 . S
N1658 C1661 1.350 . S
N1659 S1657 1.610 . S
N1659 C1660 1.351 . S
C1660 C1654 1.428 . S
C1660 N1659 1.351 . S
C1660 C1661 1.434 . S
C1661 C1652 1.429 . S
C1661 N1658 1.350 . S
C1661 C1660 1.434 . S
C1662 C1663 1.369 . S
C1662 C1664 1.419 . S
C1662 H1666 0.930 1_655 S
C1663 C1662 1.369 . S
C1663 C1672 1.429 . S
C1664 C1662 1.419 . S
C1664 C1665 1.363 . S
C1664 H1667 0.929 . S
C1665 C1664 1.363 . S
C1665 C1671 1.428 . S
H1666 C1662 0.930 1_455 S
H1667 C1664 0.929 . S
S1668 N1669 1.613 . S
S1668 N1670 1.610 . S
N1669 S1668 1.613 . S
N1669 C1672 1.350 . S
N1670 S1668 1.610 . S
N1670 C1671 1.351 . S
C1671 C1665 1.428 . S
C1671 N1670 1.351 . S
C1671 C1672 1.434 . S
C1672 C1663 1.429 . S
C1672 N1669 1.350 . S
C1672 C1671 1.434 . S
C1673 C1674 1.369 . S
C1673 C1675 1.419 . S
C1673 H1677 0.930 . S
C1674 C1673 1.369 . S
C1674 C1683 1.429 . S
C1675 C1673 1.419 . S
C1675 C1676 1.363 . S
C1675 H1678 0.929 . S
C1676 C1675 1.363 . S
C1676 C1682 1.428 . S
H1677 C1673 0.930 . S
H1678 C1675 0.929 . S
S1679 N1680 1.613 . S
S1679 N1681 1.610 . S
N1680 S1679 1.613 . S
N1680 C1683 1.350 . S
N1681 S1679 1.610 . S
N1681 C1682 1.351 . S
C1682 C1676 1.428 . S
C1682 N1681 1.351 . S
C1682 C1683 1.434 . S
C1683 C1674 1.429 . S
C1683 N1680 1.350 . S
C1683 C1682 1.434 . S
C1684 C1685 1.369 . S
C1684 C1686 1.419 . S
C1684 H1688 0.930 . S
C1685 C1684 1.369 . S
C1685 C1694 1.429 . S
C1686 C1684 1.419 . S
C1686 C1687 1.363 . S
C1686 H1689 0.929 . S
C1687 C1686 1.363 . S
C1687 C1693 1.428 . S
H1688 C1684 0.930 . S
H1689 C1686 0.929 . S
S1690 N1691 1.613 1_545 S
S1690 N1692 1.610 . S
N1691 S1690 1.613 1_565 S
N1691 C1694 1.350 1_565 S
N1692 S1690 1.610 . S
N1692 C1693 1.351 . S
C1693 C1687 1.428 . S
C1693 N1692 1.351 . S
C1693 C1694 1.434 . S
C1694 C1685 1.429 . S
C1694 N1691 1.350 1_545 S
C1694 C1693 1.434 . S
C1695 C1696 1.369 . S
C1695 C1697 1.419 . S
C1695 H1699 0.930 . S
C1696 C1695 1.369 . S
C1696 C1705 1.429 . S
C1697 C1695 1.419 . S
C1697 C1698 1.363 . S
C1697 H1700 0.929 . S
C1698 C1697 1.363 . S
C1698 C1704 1.428 . S
H1699 C1695 0.930 . S
H1700 C1697 0.929 . S
S1701 N1702 1.613 . S
S1701 N1703 1.610 . S
N1702 S1701 1.613 . S
N1702 C1705 1.350 . S
N1703 S1701 1.610 . S
N1703 C1704 1.351 . S
C1704 C1698 1.428 . S
C1704 N1703 1.351 . S
C1704 C1705 1.434 . S
C1705 C1696 1.429 . S
C1705 N1702 1.350 . S
C1705 C1704 1.434 . S
C1706 C1707 1.369 . S
C1706 C1708 1.419 . S
C1706 H1710 0.930 . S
C1707 C1706 1.369 . S
C1707 C1716 1.429 . S
C1708 C1706 1.419 . S
C1708 C1709 1.363 . S
C1708 H1711 0.929 . S
C1709 C1708 1.363 . S
C1709 C1715 1.428 . S
H1710 C1706 0.930 . S
H1711 C1708 0.929 . S
S1712 N1713 1.613 . S
S1712 N1714 1.610 . S
N1713 S1712 1.613 . S
N1713 C1716 1.350 . S
N1714 S1712 1.610 . S
N1714 C1715 1.351 . S
C1715 C1709 1.428 . S
C1715 N1714 1.351 . S
C1715 C1716 1.434 . S
C1716 C1707 1.429 . S
C1716 N1713 1.350 . S
C1716 C1715 1.434 . S
C1717 C1718 1.369 . S
C1717 C1719 1.419 . S
C1717 H1721 0.930 . S
C1718 C1717 1.369 . S
C1718 C1727 1.429 . S
C1719 C1717 1.419 . S
C1719 C1720 1.363 . S
C1719 H1722 0.929 . S
C1720 C1719 1.363 . S
C1720 C1726 1.428 . S
H1721 C1717 0.930 . S
H1722 C1719 0.929 . S
S1723 N1724 1.613 . S
S1723 N1725 1.610 . S
N1724 S1723 1.613 . S
N1724 C1727 1.350 . S
N1725 S1723 1.610 . S
N1725 C1726 1.351 . S
C1726 C1720 1.428 . S
C1726 N1725 1.351 . S
C1726 C1727 1.434 . S
C1727 C1718 1.429 . S
C1727 N1724 1.350 . S
C1727 C1726 1.434 . S
C1728 C1729 1.369 . S
C1728 C1730 1.419 . S
C1728 H1732 0.930 . S
C1729 C1728 1.369 . S
C1729 C1738 1.429 . S
C1730 C1728 1.419 . S
C1730 C1731 1.363 . S
C1730 H1733 0.929 . S
C1731 C1730 1.363 . S
C1731 C1737 1.428 . S
H1732 C1728 0.930 . S
H1733 C1730 0.929 . S
S1734 N1735 1.613 . S
S1734 N1736 1.610 . S
N1735 S1734 1.613 . S
N1735 C1738 1.350 . S
N1736 S1734 1.610 . S
N1736 C1737 1.351 . S
C1737 C1731 1.428 . S
C1737 N1736 1.351 . S
C1737 C1738 1.434 . S
C1738 C1729 1.429 . S
C1738 N1735 1.350 . S
C1738 C1737 1.434 . S
C1739 C1740 1.369 . S
C1739 C1741 1.419 . S
C1739 H1743 0.930 . S
C1740 C1739 1.369 . S
C1740 C1749 1.429 . S
C1741 C1739 1.419 . S
C1741 C1742 1.363 . S
C1741 H1744 0.929 . S
C1742 C1741 1.363 . S
C1742 C1748 1.428 . S
H1743 C1739 0.930 . S
H1744 C1741 0.929 . S
S1745 N1746 1.613 . S
S1745 N1747 1.610 . S
N1746 S1745 1.613 . S
N1746 C1749 1.350 1_655 S
N1747 S1745 1.610 . S
N1747 C1748 1.351 1_655 S
C1748 C1742 1.428 . S
C1748 N1747 1.351 1_455 S
C1748 C1749 1.434 . S
C1749 C1740 1.429 . S
C1749 N1746 1.350 1_455 S
C1749 C1748 1.434 . S
C1750 C1751 1.369 . S
C1750 C1752 1.419 . S
C1750 H1754 0.930 . S
C1751 C1750 1.369 . S
C1751 C1760 1.429 . S
C1752 C1750 1.419 . S
C1752 C1753 1.363 . S
C1752 H1755 0.929 . S
C1753 C1752 1.363 . S
C1753 C1759 1.428 . S
H1754 C1750 0.930 . S
H1755 C1752 0.929 . S
S1756 N1757 1.613 . S
S1756 N1758 1.610 . S
N1757 S1756 1.613 . S
N1757 C1760 1.350 . S
N1758 S1756 1.610 . S
N1758 C1759 1.351 . S
C1759 C1753 1.428 . S
C1759 N1758 1.351 . S
C1759 C1760 1.434 . S
C1760 C1751 1.429 . S
C1760 N1757 1.350 . S
C1760 C1759 1.434 . S
C1761 C1762 1.369 . S
C1761 C1763 1.419 . S
C1761 H1765 0.930 . S
C1762 C1761 1.369 . S
C1762 C1771 1.429 . S
C1763 C1761 1.419 . S
C1763 C1764 1.363 . S
C1763 H1766 0.929 . S
C1764 C1763 1.363 . S
C1764 C1770 1.428 . S
H1765 C1761 0.930 . S
H1766 C1763 0.929 . S
S1767 N1768 1.613 1_455 S
S1767 N1769 1.610 . S
N1768 S1767 1.613 1_655 S
N1768 C1771 1.350 . S
N1769 S1767 1.610 . S
N1769 C1770 1.350 1_455 S
C1770 C1764 1.428 . S
C1770 N1769 1.350 1_655 S
C1770 C1771 1.434 . S
C1771 C1762 1.429 . S
C1771 N1768 1.350 . S
C1771 C1770 1.434 . S
C1772 C1773 1.369 . S
C1772 C1774 1.419 . S
C1772 H1776 0.930 . S
C1773 C1772 1.369 . S
C1773 C1782 1.429 . S
C1774 C1772 1.419 . S
C1774 C1775 1.363 . S
C1774 H1777 0.929 . S
C1775 C1774 1.363 . S
C1775 C1781 1.428 . S
H1776 C1772 0.930 . S
H1777 C1774 0.929 . S
S1778 N1779 1.613 . S
S1778 N1780 1.610 . S
N1779 S1778 1.613 . S
N1779 C1782 1.350 . S
N1780 S1778 1.610 . S
N1780 C1781 1.351 . S
C1781 C1775 1.428 . S
C1781 N1780 1.351 . S
C1781 C1782 1.434 . S
C1782 C1773 1.429 . S
C1782 N1779 1.350 . S
C1782 C1781 1.434 . S
C1783 C1784 1.369 . S
C1783 C1785 1.419 . S
C1783 H1787 0.930 . S
C1784 C1783 1.369 . S
C1784 C1793 1.429 . S
C1785 C1783 1.419 . S
C1785 C1786 1.363 . S
C1785 H1788 0.929 . S
C1786 C1785 1.363 . S
C1786 C1792 1.428 . S
H1787 C1783 0.930 . S
H1788 C1785 0.929 . S
S1789 N1790 1.613 1_565 S
S1789 N1791 1.610 . S
N1790 S1789 1.613 1_545 S
N1790 C1793 1.350 . S
N1791 S1789 1.610 . S
N1791 C1792 1.351 1_565 S
C1792 C1786 1.428 . S
C1792 N1791 1.351 1_545 S
C1792 C1793 1.434 . S
C1793 C1784 1.429 . S
C1793 N1790 1.350 . S
C1793 C1792 1.434 . S
C1794 C1795 1.369 . S
C1794 C1796 1.419 . S
C1794 H1798 0.930 . S
C1795 C1794 1.369 . S
C1795 C1804 1.429 . S
C1796 C1794 1.419 . S
C1796 C1797 1.363 . S
C1796 H1799 0.929 . S
C1797 C1796 1.363 . S
C1797 C1803 1.428 . S
H1798 C1794 0.930 . S
H1799 C1796 0.929 . S
S1800 N1801 1.613 . S
S1800 N1802 1.610 . S
N1801 S1800 1.613 . S
N1801 C1804 1.350 . S
N1802 S1800 1.610 . S
N1802 C1803 1.351 . S
C1803 C1797 1.428 . S
C1803 N1802 1.351 . S
C1803 C1804 1.434 . S
C1804 C1795 1.429 . S
C1804 N1801 1.350 . S
C1804 C1803 1.434 . S
C1805 C1806 1.369 . S
C1805 C1807 1.419 . S
C1805 H1809 0.930 . S
C1806 C1805 1.369 . S
C1806 C1815 1.429 . S
C1807 C1805 1.419 . S
C1807 C1808 1.363 . S
C1807 H1810 0.929 . S
C1808 C1807 1.363 . S
C1808 C1814 1.428 . S
H1809 C1805 0.930 . S
H1810 C1807 0.929 . S
S1811 N1812 1.613 . S
S1811 N1813 1.610 . S
N1812 S1811 1.613 . S
N1812 C1815 1.350 . S
N1813 S1811 1.610 . S
N1813 C1814 1.351 . S
C1814 C1808 1.428 . S
C1814 N1813 1.351 . S
C1814 C1815 1.434 . S
C1815 C1806 1.429 . S
C1815 N1812 1.350 . S
C1815 C1814 1.434 . S
C1816 C1817 1.369 . S
C1816 C1818 1.419 . S
C1816 H1820 0.930 . S
C1817 C1816 1.369 . S
C1817 C1826 1.429 . S
C1818 C1816 1.419 . S
C1818 C1819 1.363 . S
C1818 H1821 0.929 . S
C1819 C1818 1.363 . S
C1819 C1825 1.428 . S
H1820 C1816 0.930 . S
H1821 C1818 0.929 . S
S1822 N1823 1.613 . S
S1822 N1824 1.610 . S
N1823 S1822 1.613 . S
N1823 C1826 1.350 . S
N1824 S1822 1.610 . S
N1824 C1825 1.351 . S
C1825 C1819 1.428 . S
C1825 N1824 1.351 . S
C1825 C1826 1.434 . S
C1826 C1817 1.429 . S
C1826 N1823 1.350 . S
C1826 C1825 1.434 . S
C1827 C1828 1.369 . S
C1827 C1829 1.419 . S
C1827 H1831 0.930 . S
C1828 C1827 1.369 . S
C1828 C1837 1.429 . S
C1829 C1827 1.419 . S
C1829 C1830 1.363 . S
C1829 H1832 0.929 . S
C1830 C1829 1.363 . S
C1830 C1836 1.428 . S
H1831 C1827 0.930 . S
H1832 C1829 0.929 . S
S1833 N1834 1.613 . S
S1833 N1835 1.610 . S
N1834 S1833 1.613 . S
N1834 C1837 1.350 . S
N1835 S1833 1.610 . S
N1835 C1836 1.351 . S
C1836 C1830 1.428 . S
C1836 N1835 1.351 . S
C1836 C1837 1.434 . S
C1837 C1828 1.429 . S
C1837 N1834 1.350 . S
C1837 C1836 1.434 . S
C1838 C1839 1.369 . S
C1838 C1840 1.419 . S
C1838 H1842 0.930 . S
C1839 C1838 1.369 . S
C1839 C1848 1.429 . S
C1840 C1838 1.419 . S
C1840 C1841 1.363 . S
C1840 H1843 0.929 . S
C1841 C1840 1.363 . S
C1841 C1847 1.428 . S
H1842 C1838 0.930 . S
H1843 C1840 0.929 . S
S1844 N1845 1.613 . S
S1844 N1846 1.610 . S
N1845 S1844 1.613 . S
N1845 C1848 1.350 . S
N1846 S1844 1.610 . S
N1846 C1847 1.351 . S
C1847 C1841 1.428 . S
C1847 N1846 1.351 . S
C1847 C1848 1.434 . S
C1848 C1839 1.429 . S
C1848 N1845 1.350 . S
C1848 C1847 1.434 . S
C1849 C1850 1.369 . S
C1849 C1851 1.419 . S
C1849 H1853 0.930 . S
C1850 C1849 1.369 . S
C1850 C1859 1.429 . S
C1851 C1849 1.419 . S
C1851 C1852 1.363 . S
C1851 H1854 0.929 . S
C1852 C1851 1.363 . S
C1852 C1858 1.428 . S
H1853 C1849 0.930 . S
H1854 C1851 0.929 . S
S1855 N1856 1.613 . S
S1855 N1857 1.610 . S
N1856 S1855 1.613 . S
N1856 C1859 1.350 . S
N1857 S1855 1.610 . S
N1857 C1858 1.351 . S
C1858 C1852 1.428 . S
C1858 N1857 1.351 . S
C1858 C1859 1.434 . S
C1859 C1850 1.429 . S
C1859 N1856 1.350 . S
C1859 C1858 1.434 . S
C1860 C1861 1.369 . S
C1860 C1862 1.419 . S
C1860 H1864 0.930 . S
C1861 C1860 1.369 . S
C1861 C1870 1.429 . S
C1862 C1860 1.419 . S
C1862 C1863 1.363 . S
C1862 H1865 0.929 . S
C1863 C1862 1.363 . S
C1863 C1869 1.428 . S
H1864 C1860 0.930 . S
H1865 C1862 0.929 . S
S1866 N1867 1.613 . S
S1866 N1868 1.610 . S
N1867 S1866 1.613 . S
N1867 C1870 1.350 . S
N1868 S1866 1.610 . S
N1868 C1869 1.351 . S
C1869 C1863 1.428 . S
C1869 N1868 1.351 . S
C1869 C1870 1.434 . S
C1870 C1861 1.429 . S
C1870 N1867 1.350 . S
C1870 C1869 1.434 . S
C1871 C1872 1.369 . S
C1871 C1873 1.419 . S
C1871 H1875 0.930 . S
C1872 C1871 1.369 . S
C1872 C1881 1.429 . S
C1873 C1871 1.419 . S
C1873 C1874 1.363 . S
C1873 H1876 0.929 . S
C1874 C1873 1.363 . S
C1874 C1880 1.428 . S
H1875 C1871 0.930 . S
H1876 C1873 0.929 . S
S1877 N1878 1.613 . S
S1877 N1879 1.610 . S
N1878 S1877 1.613 . S
N1878 C1881 1.350 . S
N1879 S1877 1.610 . S
N1879 C1880 1.351 . S
C1880 C1874 1.428 . S
C1880 N1879 1.351 . S
C1880 C1881 1.434 . S
C1881 C1872 1.429 . S
C1881 N1878 1.350 . S
C1881 C1880 1.434 . S
C1882 C1883 1.369 . S
C1882 C1884 1.419 . S
C1882 H1886 0.930 . S
C1883 C1882 1.369 . S
C1883 C1892 1.429 . S
C1884 C1882 1.419 . S
C1884 C1885 1.363 . S
C1884 H1887 0.929 . S
C1885 C1884 1.363 . S
C1885 C1891 1.428 . S
H1886 C1882 0.930 . S
H1887 C1884 0.929 . S
S1888 N1889 1.613 . S
S1888 N1890 1.610 . S
N1889 S1888 1.613 . S
N1889 C1892 1.350 . S
N1890 S1888 1.610 . S
N1890 C1891 1.351 . S
C1891 C1885 1.428 . S
C1891 N1890 1.351 . S
C1891 C1892 1.434 . S
C1892 C1883 1.429 . S
C1892 N1889 1.350 . S
C1892 C1891 1.434 . S
C1893 C1894 1.369 . S
C1893 C1895 1.419 . S
C1893 H1897 0.930 . S
C1894 C1893 1.369 . S
C1894 C1903 1.429 . S
C1895 C1893 1.419 . S
C1895 C1896 1.363 . S
C1895 H1898 0.929 . S
C1896 C1895 1.363 . S
C1896 C1902 1.428 . S
H1897 C1893 0.930 . S
H1898 C1895 0.929 . S
S1899 N1900 1.613 . S
S1899 N1901 1.610 . S
N1900 S1899 1.613 . S
N1900 C1903 1.350 . S
N1901 S1899 1.610 . S
N1901 C1902 1.351 . S
C1902 C1896 1.428 . S
C1902 N1901 1.351 . S
C1902 C1903 1.434 . S
C1903 C1894 1.429 . S
C1903 N1900 1.350 . S
C1903 C1902 1.434 . S
C1904 C1905 1.369 . S
C1904 C1906 1.419 . S
C1904 H1908 0.930 . S
C1905 C1904 1.369 . S
C1905 C1914 1.429 . S
C1906 C1904 1.419 . S
C1906 C1907 1.363 . S
C1906 H1909 0.929 . S
C1907 C1906 1.363 . S
C1907 C1913 1.428 . S
H1908 C1904 0.930 . S
H1909 C1906 0.929 . S
S1910 N1911 1.613 . S
S1910 N1912 1.610 . S
N1911 S1910 1.613 . S
N1911 C1914 1.350 . S
N1912 S1910 1.610 . S
N1912 C1913 1.351 . S
C1913 C1907 1.428 . S
C1913 N1912 1.351 . S
C1913 C1914 1.434 . S
C1914 C1905 1.429 . S
C1914 N1911 1.350 . S
C1914 C1913 1.434 . S
C1915 C1916 1.369 . S
C1915 C1917 1.419 . S
C1915 H1919 0.930 . S
C1916 C1915 1.369 . S
C1916 C1925 1.429 . S
C1917 C1915 1.419 . S
C1917 C1918 1.363 . S
C1917 H1920 0.929 . S
C1918 C1917 1.363 . S
C1918 C1924 1.428 . S
H1919 C1915 0.930 . S
H1920 C1917 0.929 . S
S1921 N1922 1.613 . S
S1921 N1923 1.610 . S
N1922 S1921 1.613 . S
N1922 C1925 1.350 . S
N1923 S1921 1.610 . S
N1923 C1924 1.351 . S
C1924 C1918 1.428 . S
C1924 N1923 1.351 . S
C1924 C1925 1.434 . S
C1925 C1916 1.429 . S
C1925 N1922 1.350 . S
C1925 C1924 1.434 . S
C1333 C439 1.377 . S
C1335 C632 1.363 . S
C1344 C465 1.530 . S
C1346 C716 1.452 . S
C1355 C401 1.510 . S
C1357 C810 1.442 . S
C1366 C369 1.468 . S
C1368 C726 1.417 . S
C1379 C800 1.407 . S
C1377 C305 1.484 . S
C1388 C343 1.358 . S
C1390 C642 1.365 . S
C1401 C643 1.393 . S
C1399 C375 1.477 . S
C1412 C727 1.436 . S
C1410 C311 1.505 . S
C1421 C337 1.439 . S
C1423 C819 1.441 . S
C1432 C433 1.415 . S
C1434 C735 1.409 . S
C1443 C471 1.455 . S
C1445 C811 1.375 . S
C1456 C651 1.399 . S
C1454 C407 1.464 . S
C1467 C884 1.364 . S
C1465 C55 1.384 1_455 S
C1476 C81 1.532 . S
C1478 C968 1.457 . S
C1487 C17 1.513 . S
C1489 C1062 1.443 . S
C1498 C561 1.467 . S
C1500 C978 1.415 . S
C1509 C497 1.485 . S
C1511 C1052 1.401 . S
C1520 C535 1.357 . S
C1522 C894 1.366 . S
C1531 C567 1.478 . S
C1533 C895 1.393 . S
C1542 C503 1.503 . S
C1544 C979 1.428 . S
C1555 C1071 1.447 . S
C1553 C529 1.431 . S
C1564 C49 1.409 1_565 S
C1566 C987 1.415 . S
C1577 C1063 1.383 . S
C1575 C87 1.456 1_455 S
C1586 C23 1.464 . S
C1588 C903 1.396 . S
C1599 C1136 1.363 . S
C1597 C247 1.385 . S
C1608 C273 1.529 . S
C1610 C1220 1.453 . S
C1621 C1314 1.449 . S
C1619 C209 1.511 . S
C1632 C1230 1.419 . S
C1630 C177 1.468 1_545 S
C1643 C1304 1.400 . S
C1641 C113 1.482 1_655 S
C1652 C151 1.354 . S
C1654 C1146 1.367 . S
C1663 C183 1.478 1_655 S
C1665 C1147 1.392 . S
C1674 C119 1.502 . S
C1676 C1231 1.429 . S
C1687 C1323 1.441 . S
C1685 C145 1.440 1_545 S
C1696 C241 1.405 . S
C1698 C1239 1.417 . S
C1707 C279 1.457 . S
C1709 C1315 1.383 . S
C1718 C215 1.464 . S
C1720 C1155 1.396 . S
C1729 C509 1.466 . S
C1731 C639 1.397 . S
C1742 C723 1.351 . S
C1740 C541 1.460 . S
C1751 C573 1.464 . S
C1753 C816 1.363 . S
C1762 C221 1.492 . S
C1764 C732 1.366 . S
C1773 C253 1.452 . S
C1775 C807 1.349 . S
C1786 C648 1.393 . S
C1784 C285 1.458 . S
C1795 C125 1.467 . S
C1797 C891 1.398 . S
C1806 C157 1.460 . S
C1808 C975 1.353 . S
C1817 C189 1.467 . S
C1819 C1068 1.367 . S
C1828 C413 1.492 . S
C1830 C984 1.365 . S
C1841 C1059 1.349 . S
C1839 C445 1.449 . S
C1850 C477 1.465 . S
C1852 C900 1.401 . S
C1861 C317 1.459 . S
C1863 C1143 1.390 . S
C1872 C349 1.455 . S
C1874 C1227 1.361 . S
C1885 C1320 1.365 . S
C1883 C381 1.466 . S
C1894 C29 1.496 . S
C1896 C1236 1.372 . S
C1905 C61 1.452 . S
C1907 C1311 1.348 . S
C1916 C93 1.465 . S
C1918 C1152 1.400 . S
