# Generated by pormake.
# Topology pts, (4,4)-cn, num edge types: 1
# Building blocks:
#     Node 0, Type 0, BuildingBlock: NAHDIM_clean_linker_0, # of connection points: 4
#     Node 1, Type 0, BuildingBlock: NAHDIM_clean_linker_0, # of connection points: 4
#     Node 2, Type 1, BuildingBlock: AZAVOO_clean_sbu_0, # of connection points: 4
#     Node 3, Type 1, BuildingBlock: AZAVOO_clean_sbu_0, # of connection points: 4
#     Edge 4, Type (0, 1), BuildingBlock: KIFKEQ_clean_linker_1, # of connection points: 2
#     Edge 5, Type (0, 1), BuildingBlock: KIFKEQ_clean_linker_1, # of connection points: 2
#     Edge 6, Type (0, 1), BuildingBlock: KIFKEQ_clean_linker_1, # of connection points: 2
#     Edge 7, Type (0, 1), BuildingBlock: KIFKEQ_clean_linker_1, # of connection points: 2
#     Edge 8, Type (0, 1), BuildingBlock: KIFKEQ_clean_linker_1, # of connection points: 2
#     Edge 9, Type (0, 1), BuildingBlock: KIFKEQ_clean_linker_1, # of connection points: 2
#     Edge 10, Type (0, 1), BuildingBlock: KIFKEQ_clean_linker_1, # of connection points: 2
#     Edge 11, Type (0, 1), BuildingBlock: KIFKEQ_clean_linker_1, # of connection points: 2
# Relax obj value: 0.016
# Max RMSD: 0.067
# Mean RMSD: 0.062
data_MOF--net-pts--node1-AZAVOO_clean_sbu_0--node2-NAHDIM_clean_linker_0--edge1-KIFKEQ_clean_linker_1
_symmetry_space_group_name_H-M    P1
_symmetry_Int_Tables_number       1
_symmetry_cell_setting            triclinic
loop_
_symmetry_equiv_pos_as_xyz
'x, y, z'
_cell_length_a     32.088044
_cell_length_b     32.839066
_cell_length_c     53.507451
_cell_angle_alpha  90.32921
_cell_angle_beta   95.629754
_cell_angle_gamma 90.081216
loop_
_atom_site_label
_atom_site_type_symbol
_atom_site_fract_x
_atom_site_fract_y
_atom_site_fract_z
_atom_type_partial_charge
C0 C 0.79324 0.05705 0.09766 0.0
C1 C 0.77286 0.05779 0.12241 0.0
C2 C 0.70184 0.03318 0.10774 0.0
C3 C 0.67789 0.99775 0.10391 0.0
C4 C 0.63893 0.99805 0.08948 0.0
C5 C 0.62298 0.03511 0.07916 0.0
C6 C 0.64635 0.07148 0.08371 0.0
C7 C 0.6858 0.07007 0.09764 0.0
C8 C 0.61504 0.95862 0.08509 0.0
C9 C 0.62978 0.11184 0.07372 0.0
C10 C 0.30286 0.06992 0.08812 0.0
C11 C 0.32855 0.06197 0.11332 0.0
C12 C 0.39377 0.03368 0.09947 0.0
C13 C 0.41013 0.07063 0.09142 0.0
C14 C 0.44719 0.07137 0.07946 0.0
C15 C 0.46811 0.03446 0.07516 0.0
C16 C 0.45207 0.99733 0.08351 0.0
C17 C 0.41526 0.99752 0.09571 0.0
C18 C 0.46376 0.11161 0.07113 0.0
C19 C 0.47351 0.95739 0.07923 0.0
C20 C 0.37593 0.03791 0.91095 0.0
C21 C 0.39597 0.07499 0.91804 0.0
C22 C 0.43532 0.07555 0.93208 0.0
C23 C 0.45528 0.0384 0.93909 0.0
C24 C 0.43565 0.00108 0.93163 0.0
C25 C 0.39617 0.00138 0.91772 0.0
C26 C 0.45541 0.1159 0.93974 0.0
C27 C 0.45618 0.9609 0.93865 0.0
C28 C 0.78392 0.05244 0.93531 0.0
C29 C 0.75646 0.03777 0.91195 0.0
C30 C 0.68441 0.05533 0.91957 0.0
C31 C 0.66182 0.08959 0.9259 0.0
C32 C 0.62497 0.08575 0.93785 0.0
C33 C 0.60995 0.04652 0.94316 0.0
C34 C 0.63169 0.01164 0.9359 0.0
C35 C 0.66866 0.01635 0.92413 0.0
C36 C 0.60236 0.12362 0.94512 0.0
C37 C 0.61592 0.96938 0.94074 0.0
C38 C 0.58227 0.03561 0.06323 0.0
C39 C 0.54536 0.03492 0.07515 0.0
C40 C 0.50606 0.03463 0.06128 0.0
C41 C 0.50329 0.03503 0.03472 0.0
C42 C 0.46432 0.03419 0.02017 0.0
C43 C 0.46185 0.03521 0.99407 0.0
C44 C 0.49826 0.03708 0.98146 0.0
C45 C 0.49602 0.03863 0.95493 0.0
C46 C 0.53285 0.04128 0.94303 0.0
C47 C 0.57214 0.04208 0.95691 0.0
C48 C 0.57498 0.03967 0.98343 0.0
C49 C 0.61397 0.03938 0.99794 0.0
C50 C 0.61647 0.03735 0.02402 0.0
C51 C 0.58006 0.03646 0.03667 0.0
C52 C 0.54042 0.03634 0.0224 0.0
C53 C 0.53789 0.03758 0.99574 0.0
C54 C 0.28918 0.08601 0.91074 0.0
C55 C 0.31192 0.06796 0.8893 0.0
O56 O 0.73995 0.03014 0.12124 0.0
O57 O 0.72045 0.06125 0.90859 0.0
O58 O 0.33725 0.03579 0.89792 0.0
O59 O 0.35752 0.03127 0.1107 0.0
H60 H 0.76116 0.08895 0.1259 0.0
H61 H 0.77008 0.0656 0.08179 0.0
H62 H 0.80527 0.02609 0.09398 0.0
H63 H 0.81957 0.07916 0.09836 0.0
H64 H 0.69033 0.96949 0.11189 0.0
H65 H 0.7036 0.09794 0.10057 0.0
H66 H 0.58607 0.95994 0.09481 0.0
H67 H 0.63366 0.93185 0.09216 0.0
H68 H 0.60556 0.95422 0.06472 0.0
H69 H 0.64853 0.13792 0.08201 0.0
H70 H 0.5967 0.11589 0.07767 0.0
H71 H 0.6306 0.11247 0.05304 0.0
H72 H 0.34512 0.09037 0.11997 0.0
H73 H 0.27933 0.09415 0.09029 0.0
H74 H 0.28641 0.04173 0.08102 0.0
H75 H 0.32349 0.0802 0.07391 0.0
H76 H 0.39425 0.09904 0.09423 0.0
H77 H 0.40262 0.96918 0.10204 0.0
H78 H 0.4973 0.11505 0.07821 0.0
H79 H 0.44607 0.13792 0.0778 0.0
H80 H 0.46167 0.11238 0.0503 0.0
H81 H 0.45598 0.93095 0.08577 0.0
H82 H 0.50537 0.95769 0.08938 0.0
H83 H 0.47708 0.95334 0.05893 0.0
H84 H 0.33139 0.09226 0.88185 0.0
H85 H 0.38113 0.1037 0.91299 0.0
H86 H 0.38071 0.97291 0.91218 0.0
H87 H 0.4613 0.11763 0.96052 0.0
H88 H 0.43569 0.1422 0.93309 0.0
H89 H 0.48615 0.11842 0.93199 0.0
H90 H 0.43783 0.93455 0.93036 0.0
H91 H 0.4597 0.95777 0.9594 0.0
H92 H 0.48804 0.95996 0.93222 0.0
H93 H 0.74883 0.00541 0.91523 0.0
H94 H 0.81374 0.03506 0.93752 0.0
H95 H 0.76727 0.04746 0.95229 0.0
H96 H 0.79107 0.08543 0.93414 0.0
H97 H 0.67374 0.11952 0.92192 0.0
H98 H 0.68443 0.98944 0.91819 0.0
H99 H 0.60042 0.12406 0.96572 0.0
H100 H 0.56983 0.12335 0.93588 0.0
H101 H 0.61816 0.15194 0.93975 0.0
H102 H 0.63545 0.94527 0.93311 0.0
H103 H 0.58317 0.96593 0.93214 0.0
H104 H 0.61575 0.96477 0.96127 0.0
H105 H 0.54724 0.03461 0.0955 0.0
H106 H 0.43521 0.03281 0.0288 0.0
H107 H 0.43097 0.03468 0.98392 0.0
H108 H 0.5309 0.04304 0.92271 0.0
H109 H 0.64308 0.04056 0.98931 0.0
H110 H 0.64738 0.0369 0.03413 0.0
H111 H 0.26768 0.1107 0.90353 0.0
H112 H 0.31196 0.09922 0.92553 0.0
H113 H 0.27083 0.06226 0.91954 0.0
C114 C 0.14281 0.3866 0.6787 0.0
C115 C 0.11401 0.37196 0.65595 0.0
C116 C 0.11985 0.39444 0.61328 0.0
C117 C 0.07805 0.38984 0.60331 0.0
C118 C 0.06175 0.41318 0.58276 0.0
C119 C 0.08767 0.44215 0.57228 0.0
C120 C 0.13048 0.44519 0.58148 0.0
C121 C 0.14622 0.42059 0.60162 0.0
C122 C 0.01622 0.40838 0.5731 0.0
C123 C 0.15893 0.47613 0.57111 0.0
C124 C 0.99171 0.62695 0.662 0.0
C125 C 0.00514 0.65645 0.64221 0.0
C126 C 0.98881 0.62794 0.60062 0.0
C127 C 0.02714 0.63223 0.59041 0.0
C128 C 0.03917 0.60424 0.57259 0.0
C129 C 0.01213 0.57148 0.56484 0.0
C130 C 0.97204 0.56906 0.57365 0.0
C131 C 0.96069 0.59771 0.59135 0.0
C132 C 0.08178 0.60827 0.56317 0.0
C133 C 0.94227 0.53487 0.56548 0.0
C134 C 0.95923 0.61705 0.39813 0.0
C135 C 0.99765 0.62787 0.41126 0.0
C136 C 0.02112 0.5992 0.42604 0.0
C137 C 0.00498 0.55935 0.42837 0.0
C138 C 0.96665 0.54822 0.4146 0.0
C139 C 0.94466 0.57712 0.39926 0.0
C140 C 0.06291 0.61168 0.4393 0.0
C141 C 0.94849 0.50603 0.41643 0.0
C142 C 0.2289 0.30662 0.41618 0.0
C143 C 0.18191 0.3152 0.41476 0.0
C144 C 0.14837 0.38139 0.41474 0.0
C145 C 0.16143 0.42184 0.41743 0.0
C146 C 0.13704 0.45083 0.42867 0.0
C147 C 0.09782 0.43919 0.43647 0.0
C148 C 0.0833 0.39871 0.43233 0.0
C149 C 0.10913 0.37001 0.42192 0.0
C150 C 0.15358 0.49369 0.43259 0.0
C151 C 0.04075 0.38563 0.43911 0.0
C152 C 0.06834 0.47343 0.55489 0.0
C153 C 0.04855 0.50591 0.56577 0.0
C154 C 0.02868 0.53658 0.55117 0.0
C155 C 0.02733 0.5345 0.52474 0.0
C156 C 0.00569 0.56368 0.50942 0.0
C157 C 0.00494 0.56152 0.48339 0.0
C158 C 0.027 0.53088 0.47174 0.0
C159 C 0.02783 0.52937 0.44534 0.0
C160 C 0.05061 0.49882 0.43451 0.0
C161 C 0.07251 0.46933 0.44924 0.0
C162 C 0.07136 0.46984 0.47563 0.0
C163 C 0.09243 0.44028 0.49107 0.0
C164 C 0.09068 0.44078 0.51698 0.0
C165 C 0.06927 0.47181 0.52854 0.0
C166 C 0.04835 0.50234 0.51339 0.0
C167 C 0.0488 0.50094 0.48689 0.0
C168 C 0.88001 0.69141 0.38824 0.0
C169 C 0.92713 0.6836 0.39261 0.0
O170 O 0.13506 0.37515 0.63459 0.0
O171 O 0.17435 0.35397 0.40532 0.0
O172 O 0.93547 0.64463 0.38442 0.0
O173 O 0.97915 0.65158 0.62009 0.0
H174 H 0.08624 0.39252 0.65458 0.0
H175 H 0.15157 0.41893 0.67613 0.0
H176 H 0.17192 0.36815 0.68104 0.0
H177 H 0.12655 0.38441 0.69606 0.0
H178 H 0.05799 0.36862 0.61195 0.0
H179 H 0.17861 0.42346 0.60934 0.0
H180 H 0.99827 0.43464 0.57957 0.0
H181 H 1.00249 0.37996 0.57996 0.0
H182 H 0.0125 0.40819 0.55224 0.0
H183 H 0.19144 0.47463 0.58036 0.0
H184 H 0.14653 0.50725 0.57373 0.0
H185 H 0.15978 0.47109 0.55065 0.0
H186 H 0.03809 0.64856 0.63935 0.0
H187 H 0.01158 0.63122 0.68003 0.0
H188 H 0.99543 0.59508 0.65552 0.0
H189 H 0.95837 0.63164 0.66522 0.0
H190 H 0.04813 0.65675 0.59695 0.0
H191 H 0.93081 0.59519 0.59907 0.0
H192 H 0.07894 0.60636 0.54234 0.0
H193 H 0.102 0.58272 0.57046 0.0
H194 H 0.09742 0.63742 0.56916 0.0
H195 H 0.91049 0.54009 0.57144 0.0
H196 H 0.95463 0.50591 0.57383 0.0
H197 H 0.93985 0.53126 0.54474 0.0
H198 H 0.93551 0.68617 0.4133 0.0
H199 H 0.00937 0.65863 0.40981 0.0
H200 H 0.91515 0.56907 0.38878 0.0
H201 H 0.05991 0.6157 0.45964 0.0
H202 H 0.07436 0.64079 0.43195 0.0
H203 H 0.0867 0.58767 0.43723 0.0
H204 H 0.91642 0.50355 0.40662 0.0
H205 H 0.94741 0.49762 0.43643 0.0
H206 H 0.96889 0.48365 0.40792 0.0
H207 H 0.17313 0.31362 0.43441 0.0
H208 H 0.23577 0.27572 0.42388 0.0
H209 H 0.24618 0.32926 0.42878 0.0
H210 H 0.24038 0.30872 0.3973 0.0
H211 H 0.19161 0.4303 0.41153 0.0
H212 H 0.09857 0.33881 0.4192 0.0
H213 H 0.15202 0.50333 0.45241 0.0
H214 H 0.13377 0.51487 0.4205 0.0
H215 H 0.18644 0.49665 0.42795 0.0
H216 H 0.03122 0.35562 0.43071 0.0
H217 H 0.0167 0.4086 0.43273 0.0
H218 H 0.04141 0.38322 0.45982 0.0
H219 H 0.04906 0.50759 0.58607 0.0
H220 H 0.9888 0.58828 0.51743 0.0
H221 H 0.9873 0.58454 0.47253 0.0
H222 H 0.05155 0.49815 0.41429 0.0
H223 H 0.11028 0.41619 0.48331 0.0
H224 H 0.10693 0.41696 0.5279 0.0
H225 H 0.8687 0.68812 0.36802 0.0
H226 H 0.87258 0.72256 0.3947 0.0
H227 H 0.86299 0.66911 0.39904 0.0
Mg228 Mg 0.08779 0.98502 0.29191 0.0
O229 O 0.02689 0.99622 0.26631 0.0
O230 O 0.97419 0.99655 0.29074 0.0
Mg231 Mg 1.00086 0.98705 0.33147 0.0
C232 C 0.98794 -0.00075 0.26921 0.0
C233 C 0.12463 0.98641 0.23911 0.0
O234 O 0.09664 0.95755 0.23399 0.0
O235 O 0.0869 0.05046 0.30634 0.0
O236 O 0.0355 0.04861 0.33164 0.0
O237 O 0.07895 0.91715 0.28862 0.0
O238 O 0.05464 0.95534 0.31793 0.0
C239 C 0.06476 0.06758 0.32197 0.0
C240 C 0.0577 0.9199 0.30793 0.0
O241 O 0.12751 0.00339 0.26062 0.0
Mg242 Mg 0.98798 0.01472 0.72781 0.0
O243 O 0.05058 0.00787 0.75251 0.0
O244 O 0.09898 0.99159 0.72682 0.0
Mg245 Mg 0.06762 0.98484 0.68672 0.0
C246 C 0.08847 -7e-05 0.74869 0.0
C247 C 0.91829 0.03295 0.75909 0.0
O248 O 0.90249 0.01165 0.73953 0.0
O249 O 0.01117 0.07546 0.71351 0.0
O250 O 0.05591 0.05394 0.68673 0.0
O251 O 0.97278 0.94909 0.73187 0.0
O252 O 0.00755 0.97331 0.70162 0.0
C253 C 0.03652 0.08254 0.69703 0.0
C254 C 0.99261 0.94226 0.71236 0.0
O255 O 0.95665 0.04335 0.76018 0.0
H256 H 0.29529 0.98622 0.12198 0.0
H257 H 0.29411 0.11124 0.14718 0.0
H258 H 0.24629 0.96808 0.15229 0.0
H259 H 0.24417 0.09356 0.17694 0.0
H260 H 0.19005 0.04013 0.24532 0.0
H261 H 0.23953 0.05742 0.21536 0.0
H262 H 0.17444 0.97681 0.16052 0.0
H263 H 0.12552 0.95864 0.19078 0.0
C264 C 0.28478 0.00973 0.13417 0.0
C265 C 0.29942 0.04995 0.1327 0.0
C266 C 0.25631 -0.00052 0.15132 0.0
C267 C 0.24138 0.02931 0.16719 0.0
C268 C 0.25563 0.06963 0.16542 0.0
C269 C 0.28418 0.07982 0.14835 0.0
C270 C 0.18619 0.02612 0.22685 0.0
C271 C 0.1538 0.99795 0.22047 0.0
C272 C 0.21449 0.03621 0.20961 0.0
C273 C 0.21105 0.01854 0.18549 0.0
C274 C 0.17844 0.99056 0.17905 0.0
C275 C 0.15018 0.98035 0.19635 0.0
H276 H 0.16015 0.30183 0.65349 0.0
H277 H 0.03757 0.34462 0.66771 0.0
H278 H 0.13978 0.23239 0.66291 0.0
H279 H 0.01655 0.27502 0.67646 0.0
H280 H 0.01262 0.15349 0.71907 0.0
H281 H 0.02994 0.2231 0.70802 0.0
H282 H 0.09566 0.1773 0.647 0.0
H283 H 0.07942 0.10804 0.65837 0.0
C284 C 0.12862 0.29617 0.65824 0.0
C285 C 0.10031 0.32848 0.65964 0.0
C286 C 0.11683 0.25642 0.66357 0.0
C287 C 0.07645 0.24806 0.67041 0.0
C288 C 0.04803 0.28042 0.67155 0.0
C289 C 0.0599 0.3202 0.66631 0.0
C290 C 0.03061 0.15831 0.70324 0.0
C291 C 0.04485 0.1251 0.68975 0.0
C292 C 0.04038 0.19823 0.69681 0.0
C293 C 0.06443 0.20582 0.67669 0.0
C294 C 0.0778 0.1726 0.6629 0.0
C295 C 0.06825 0.1328 0.66938 0.0
H296 H 0.83237 0.10812 0.14583 0.0
H297 H 0.78799 0.98394 0.14704 0.0
H298 H 0.88596 0.09283 0.18029 0.0
H299 H 0.84071 0.96917 0.18187 0.0
H300 H 0.90416 0.98291 0.2645 0.0
H301 H 0.85335 0.99564 0.22838 0.0
H302 H 0.9515 0.04461 0.18768 0.0
H303 H 1.00278 0.03128 0.22372 0.0
C304 C 0.83391 0.0777 0.15358 0.0
C305 C 0.8053 0.04761 0.14406 0.0
C306 C 0.86466 0.06891 0.17315 0.0
C307 C 0.86722 0.02991 0.18379 0.0
C308 C 0.83904 -0.00038 0.17416 0.0
C309 C 0.80876 0.00818 0.15427 0.0
C310 C 0.915 0.99629 0.24784 0.0
C311 C 0.9575 0.00618 0.24699 0.0
C312 C 0.88592 0.00334 0.22714 0.0
C313 C 0.89855 0.02112 0.2053 0.0
C314 C 0.94098 0.03105 0.20437 0.0
C315 C 0.97028 0.02326 0.22493 0.0
H316 H 0.07058 0.70976 0.65266 0.0
H317 H 0.93624 0.70118 0.65233 0.0
H318 H 0.06877 0.77899 0.66956 0.0
H319 H 0.93448 0.77032 0.66952 0.0
H320 H 0.95783 0.8727 0.72864 0.0
H321 H 0.96105 0.80429 0.71093 0.0
H322 H 0.03999 0.8486 0.65611 0.0
H323 H 0.03653 0.91719 0.6736 0.0
C324 C 0.04066 0.72278 0.6561 0.0
C325 C 0.00356 0.70004 0.65133 0.0
C326 C 0.03964 0.76238 0.66571 0.0
C327 C 1.00154 0.77985 0.671 0.0
C328 C 0.96435 0.75735 0.66592 0.0
C329 C 0.96531 0.71793 0.65602 0.0
C330 C 0.97612 0.86787 0.71291 0.0
C331 C 0.99708 0.90041 0.7026 0.0
C332 C 0.97768 0.82875 0.70268 0.0
C333 C 1.00059 0.82124 0.68208 0.0
C334 C 0.0223 0.85353 0.67209 0.0
C335 C 0.02033 0.8928 0.68214 0.0
H336 H 0.25385 0.00587 0.88984 0.0
H337 H 0.29886 0.09702 0.84115 0.0
H338 H 0.20017 0.98538 0.85632 0.0
H339 H 0.24592 0.07609 0.80766 0.0
H340 H 0.17311 0.00138 0.74615 0.0
H341 H 0.22793 0.01388 0.78013 0.0
H342 H 0.13505 0.01957 0.83316 0.0
H343 H 0.07976 0.00723 0.79911 0.0
C344 C 0.25237 0.02135 0.87196 0.0
C345 C 0.28042 0.05322 0.86818 0.0
C346 C 0.22166 0.0097 0.85284 0.0
C347 C 0.2189 0.02916 0.82942 0.0
C348 C 0.24756 0.0603 0.82545 0.0
C349 C 0.2778 0.07235 0.84465 0.0
C350 C 0.16424 0.00482 0.76506 0.0
C351 C 0.1219 0.00352 0.76984 0.0
C352 C 0.19572 0.0122 0.7845 0.0
C353 C 0.18573 0.01795 0.80924 0.0
C354 C 0.14365 0.01504 0.81427 0.0
C355 C 0.112 0.00816 0.79474 0.0
H356 H 0.17481 0.30709 0.36315 0.0
H357 H 0.13622 0.25129 0.42999 0.0
H358 H 0.14129 0.25174 0.33759 0.0
H359 H 0.10325 0.19598 0.40472 0.0
H360 H 0.02279 0.11516 0.3533 0.0
H361 H 0.04579 0.17932 0.37306 0.0
H362 H 0.15484 0.17869 0.33173 0.0
H363 H 0.13156 0.11475 0.31156 0.0
C364 C 0.15865 0.28325 0.37228 0.0
C365 C 0.1578 0.28356 0.3985 0.0
C366 C 0.13972 0.25149 0.35772 0.0
C367 C 0.11952 0.21951 0.36911 0.0
C368 C 0.11789 0.22048 0.39528 0.0
C369 C 0.13694 0.25204 0.4098 0.0
C370 C 0.05138 0.12891 0.3481 0.0
C371 C 0.07561 0.10941 0.33106 0.0
C372 C 0.06463 0.16565 0.35954 0.0
C373 C 0.10243 0.18381 0.35425 0.0
C374 C 0.12544 0.16561 0.33613 0.0
C375 C 0.11216 0.12881 0.32464 0.0
H376 H 0.79044 0.10535 0.89074 0.0
H377 H 0.77439 0.97555 0.88039 0.0
H378 H 0.82931 0.10801 0.85352 0.0
H379 H 0.81237 0.97839 0.84314 0.0
H380 H 0.83921 0.00588 0.76341 0.0
H381 H 0.79962 0.01002 0.7998 0.0
H382 H 0.89963 0.07919 0.83985 0.0
H383 H 0.9399 0.07488 0.80323 0.0
C384 C 0.79536 0.07743 0.88059 0.0
C385 C 0.77979 0.04014 0.88868 0.0
C386 C 0.81758 0.07897 0.85935 0.0
C387 C 0.82382 0.04342 0.84548 0.0
C388 C 0.80774 0.00633 0.85336 0.0
C389 C 0.78612 0.00469 0.87473 0.0
C390 C 0.85279 0.02234 0.77983 0.0
C391 C 0.89295 0.03978 0.78045 0.0
C392 C 0.83009 0.02452 0.80073 0.0
C393 C 0.84673 0.04454 0.82272 0.0
C394 C 0.88606 0.06363 0.82308 0.0
C395 C 0.9091 0.06108 0.80216 0.0
H396 H 0.93161 0.69237 0.34166 0.0
H397 H 0.97567 0.74607 0.41321 0.0
H398 H 0.96357 0.74819 0.32006 0.0
H399 H 0.00866 0.80093 0.39186 0.0
H400 H 0.0137 0.91776 0.34891 0.0
H401 H 0.98417 0.85912 0.36802 0.0
H402 H 0.02917 0.78095 0.31129 0.0
H403 H 0.05777 0.84046 0.29146 0.0
C404 C 0.94875 0.71578 0.35272 0.0
C405 C 0.95104 0.71503 0.37909 0.0
C406 C 0.96717 0.74764 0.34039 0.0
C407 C 0.98823 0.77934 0.35422 0.0
C408 C 0.99188 0.77753 0.38061 0.0
C409 C 0.97331 0.74591 0.39288 0.0
C410 C 0.01692 0.88826 0.34022 0.0
C411 C 0.03795 0.88393 0.31854 0.0
C412 C 1.00041 0.85443 0.35142 0.0
C413 C 0.00478 0.81519 0.34142 0.0
C414 C 0.02511 0.81078 0.31942 0.0
C415 C 0.04159 0.84485 0.3081 0.0
loop_
_geom_bond_atom_site_label_1
_geom_bond_atom_site_label_2
_geom_bond_distance
_geom_bond_site_symmetry_2
_ccdc_geom_bond_type
C0 C1 1.560 . S
C0 H61 0.959 . S
C0 H62 0.959 . S
C0 H63 0.960 . S
C1 C0 1.560 . S
C1 O56 1.426 . S
C1 H60 0.980 . S
C2 C3 1.407 1_545 S
C2 C7 1.418 . S
C2 O56 1.334 . S
C3 C2 1.407 1_565 S
C3 C4 1.360 . S
C3 H64 0.929 . S
C4 C3 1.360 . S
C4 C5 1.401 1_565 S
C4 C8 1.527 . S
C5 C4 1.401 1_545 S
C5 C6 1.405 . S
C5 C38 1.587 1_545 S
C6 C5 1.405 . S
C6 C7 1.332 . S
C6 C9 1.496 . S
C7 C2 1.418 . S
C7 C6 1.332 . S
C7 H65 0.929 . S
C8 C4 1.527 . S
C8 H66 0.959 . S
C8 H67 0.961 . S
C8 H68 0.961 . S
C9 C6 1.496 . S
C9 H69 0.960 . S
C9 H70 0.960 . S
C9 H71 0.961 . S
C10 C11 1.517 . S
C10 H73 0.946 1_565 S
C10 H74 0.960 . S
C10 H75 0.959 . S
C11 C10 1.517 . S
C11 O59 1.468 . S
C11 H72 0.980 1_565 S
C12 C13 1.340 1_565 S
C12 C17 1.367 . S
C12 O59 1.408 . S
C13 C12 1.340 1_545 S
C13 C14 1.409 . S
C13 H76 0.938 . S
C14 C13 1.409 . S
C14 C15 1.449 1_545 S
C14 C18 1.535 . S
C15 C14 1.449 1_565 S
C15 C16 1.384 . S
C15 C40 1.553 . S
C16 C15 1.384 . S
C16 C17 1.364 . S
C16 C19 1.450 . S
C17 C12 1.367 . S
C17 C16 1.364 . S
C17 H77 0.931 . S
C18 C14 1.535 . S
C18 H78 0.959 . S
C18 H79 0.961 . S
C18 H80 0.959 . S
C19 C16 1.450 . S
C19 H81 0.960 . S
C19 H82 0.960 . S
C19 H83 0.960 . S
C20 C21 1.309 1_565 S
C20 C25 1.304 . S
C20 O58 1.435 . S
C21 C20 1.309 1_545 S
C21 C22 1.476 . S
C21 H85 0.930 . S
C22 C21 1.476 . S
C22 C23 1.400 1_545 S
C22 C26 1.567 . S
C23 C22 1.400 1_565 S
C23 C24 1.373 . S
C23 C45 1.432 . S
C24 C23 1.373 . S
C24 C25 1.339 . S
C24 C27 1.530 . S
C25 C20 1.304 . S
C25 C24 1.339 . S
C25 H86 0.930 . S
C26 C22 1.567 . S
C26 H87 0.961 . S
C26 H88 0.960 . S
C26 H89 0.958 . S
C27 C24 1.530 . S
C27 H90 0.961 . S
C27 H91 0.960 . S
C27 H92 0.960 . S
C28 C29 1.530 . S
C28 H94 0.961 . S
C28 H95 0.961 . S
C28 H96 0.959 . S
C29 C28 1.530 . S
C29 O57 1.412 . S
C29 H93 0.980 . S
C30 C31 1.288 . S
C30 C35 1.377 1_545 S
C30 O57 1.393 . S
C31 C30 1.288 . S
C31 C32 1.369 . S
C31 H97 0.932 . S
C32 C31 1.369 . S
C32 C33 1.398 . S
C32 C36 1.527 . S
C33 C32 1.398 . S
C33 C34 1.380 1_545 S
C33 C47 1.497 . S
C34 C33 1.380 1_565 S
C34 C35 1.383 . S
C34 C37 1.603 . S
C35 C30 1.377 1_565 S
C35 C34 1.383 . S
C35 H98 0.929 . S
C36 C32 1.527 . S
C36 H99 0.961 . S
C36 H100 0.959 . S
C36 H101 0.959 . S
C37 C34 1.603 . S
C37 H102 0.960 . S
C37 H103 0.962 . S
C37 H104 0.961 . S
C38 C5 1.587 1_565 S
C38 C39 1.360 . S
C38 C51 1.412 . S
C39 C38 1.360 . S
C39 C40 1.365 . S
C39 H105 0.929 . S
C40 C15 1.553 . S
C40 C39 1.365 . S
C40 C41 1.404 . S
C41 C40 1.404 . S
C41 C42 1.395 . S
C41 C52 1.451 . S
C42 C41 1.395 . S
C42 C43 1.322 1_554 S
C42 H106 0.930 . S
C43 C42 1.322 1_556 S
C43 C44 1.459 . S
C43 H107 0.929 . S
C44 C43 1.459 . S
C44 C45 1.445 . S
C44 C53 1.395 . S
C45 C23 1.432 . S
C45 C44 1.445 . S
C45 C46 1.370 . S
C46 C45 1.370 . S
C46 C47 1.438 1_565 S
C46 H108 0.930 . S
C47 C33 1.497 . S
C47 C46 1.438 1_545 S
C47 C48 1.360 1_545 S
C48 C47 1.360 1_565 S
C48 C49 1.401 1_565 S
C48 C53 1.446 . S
C49 C48 1.401 1_545 S
C49 C50 1.347 1_556 S
C49 H109 0.929 . S
C50 C49 1.347 1_554 S
C50 C51 1.455 1_545 S
C50 H110 0.930 . S
C51 C38 1.412 . S
C51 C50 1.455 1_565 S
C51 C52 1.331 . S
C52 C41 1.451 . S
C52 C51 1.331 . S
C52 C53 1.497 1_554 S
C53 C44 1.395 . S
C53 C48 1.446 . S
C53 C52 1.497 1_556 S
C54 C55 1.578 1_565 S
C54 H111 0.962 . S
C54 H112 0.959 . S
C54 H113 0.958 . S
C55 C54 1.578 1_545 S
C55 O58 1.452 1_545 S
C55 H84 0.982 . S
O56 C1 1.426 . S
O56 C2 1.334 . S
O57 C29 1.412 . S
O57 C30 1.393 . S
O58 C20 1.435 . S
O58 C55 1.452 1_565 S
O59 C11 1.468 . S
O59 C12 1.408 . S
H60 C1 0.980 . S
H61 C0 0.959 . S
H62 C0 0.959 . S
H63 C0 0.960 . S
H64 C3 0.929 . S
H65 C7 0.929 . S
H66 C8 0.959 . S
H67 C8 0.961 . S
H68 C8 0.961 . S
H69 C9 0.960 . S
H70 C9 0.960 . S
H71 C9 0.961 . S
H72 C11 0.980 1_545 S
H73 C10 0.946 1_545 S
H74 C10 0.960 . S
H75 C10 0.959 . S
H76 C13 0.938 . S
H77 C17 0.931 . S
H78 C18 0.959 . S
H79 C18 0.961 . S
H80 C18 0.959 . S
H81 C19 0.960 . S
H82 C19 0.960 . S
H83 C19 0.960 . S
H84 C55 0.982 . S
H85 C21 0.930 . S
H86 C25 0.930 . S
H87 C26 0.961 . S
H88 C26 0.960 . S
H89 C26 0.958 . S
H90 C27 0.961 . S
H91 C27 0.960 . S
H92 C27 0.960 . S
H93 C29 0.980 . S
H94 C28 0.961 . S
H95 C28 0.961 . S
H96 C28 0.959 . S
H97 C31 0.932 . S
H98 C35 0.929 . S
H99 C36 0.961 . S
H100 C36 0.959 . S
H101 C36 0.959 . S
H102 C37 0.960 . S
H103 C37 0.962 . S
H104 C37 0.961 . S
H105 C39 0.929 . S
H106 C42 0.930 . S
H107 C43 0.929 . S
H108 C46 0.930 . S
H109 C49 0.929 . S
H110 C50 0.930 . S
H111 C54 0.962 . S
H112 C54 0.959 . S
H113 C54 0.958 . S
C114 C115 1.560 . S
C114 H175 0.959 . S
C114 H176 0.959 . S
C114 H177 0.960 . S
C115 C114 1.560 . S
C115 O170 1.426 . S
C115 H174 0.980 . S
C116 C117 1.407 . S
C116 C121 1.418 . S
C116 O170 1.334 . S
C117 C116 1.407 . S
C117 C118 1.360 . S
C117 H178 0.929 1_455 S
C118 C117 1.360 . S
C118 C119 1.401 . S
C118 C122 1.527 1_455 S
C119 C118 1.401 . S
C119 C120 1.405 . S
C119 C152 1.587 . S
C120 C119 1.405 . S
C120 C121 1.332 . S
C120 C123 1.496 . S
C121 C116 1.418 . S
C121 C120 1.332 . S
C121 H179 0.929 . S
C122 C118 1.527 1_655 S
C122 H180 0.959 . S
C122 H181 0.961 . S
C122 H182 0.961 . S
C123 C120 1.496 . S
C123 H183 0.960 . S
C123 H184 0.960 . S
C123 H185 0.961 . S
C124 C125 1.517 1_655 S
C124 H187 0.961 1_655 S
C124 H188 0.960 . S
C124 H189 0.959 . S
C125 C124 1.517 1_455 S
C125 O173 1.468 1_455 S
C125 H186 0.980 . S
C126 C127 1.349 1_655 S
C126 C131 1.367 . S
C126 O173 1.408 . S
C127 C126 1.349 1_455 S
C127 C128 1.407 . S
C127 H190 0.930 . S
C128 C127 1.407 . S
C128 C129 1.449 1_455 S
C128 C132 1.535 . S
C129 C128 1.449 1_655 S
C129 C130 1.384 . S
C129 C154 1.553 1_655 S
C130 C129 1.384 . S
C130 C131 1.364 . S
C130 C133 1.450 . S
C131 C126 1.367 . S
C131 C130 1.364 . S
C131 H191 0.931 . S
C132 C128 1.535 . S
C132 H192 0.959 . S
C132 H193 0.961 . S
C132 H194 0.959 . S
C133 C130 1.450 . S
C133 H195 0.960 . S
C133 H196 0.960 . S
C133 H197 0.960 . S
C134 C135 1.309 . S
C134 C139 1.304 1_455 S
C134 O172 1.435 . S
C135 C134 1.309 . S
C135 C136 1.476 . S
C135 H199 0.930 . S
C136 C135 1.476 . S
C136 C137 1.400 . S
C136 C140 1.567 . S
C137 C136 1.400 . S
C137 C138 1.373 1_455 S
C137 C159 1.432 . S
C138 C137 1.373 1_655 S
C138 C139 1.339 . S
C138 C141 1.530 . S
C139 C134 1.304 1_655 S
C139 C138 1.339 . S
C139 H200 0.930 . S
C140 C136 1.567 . S
C140 H201 0.961 . S
C140 H202 0.960 . S
C140 H203 0.958 . S
C141 C138 1.530 . S
C141 H204 0.961 . S
C141 H205 0.960 . S
C141 H206 0.960 . S
C142 C143 1.530 . S
C142 H208 0.961 . S
C142 H209 0.961 . S
C142 H210 0.959 . S
C143 C142 1.530 . S
C143 O171 1.412 . S
C143 H207 0.980 . S
C144 C145 1.288 . S
C144 C149 1.377 . S
C144 O171 1.393 . S
C145 C144 1.288 . S
C145 C146 1.369 . S
C145 H211 0.932 . S
C146 C145 1.369 . S
C146 C147 1.398 . S
C146 C150 1.527 . S
C147 C146 1.398 . S
C147 C148 1.380 . S
C147 C161 1.497 . S
C148 C147 1.380 . S
C148 C149 1.383 . S
C148 C151 1.603 1_455 S
C149 C144 1.377 . S
C149 C148 1.383 . S
C149 H212 0.929 . S
C150 C146 1.527 . S
C150 H213 0.961 . S
C150 H214 0.959 . S
C150 H215 0.959 . S
C151 C148 1.603 1_655 S
C151 H216 0.960 . S
C151 H217 0.962 . S
C151 H218 0.961 . S
C152 C119 1.587 . S
C152 C153 1.360 . S
C152 C165 1.412 . S
C153 C152 1.360 . S
C153 C154 1.365 . S
C153 H219 0.929 . S
C154 C129 1.553 1_455 S
C154 C153 1.365 . S
C154 C155 1.404 . S
C155 C154 1.404 . S
C155 C156 1.395 . S
C155 C166 1.451 . S
C156 C155 1.395 . S
C156 C157 1.322 . S
C156 H220 0.930 . S
C157 C156 1.322 . S
C157 C158 1.459 . S
C157 H221 0.929 . S
C158 C157 1.459 . S
C158 C159 1.445 . S
C158 C167 1.395 . S
C159 C137 1.432 . S
C159 C158 1.445 . S
C159 C160 1.370 . S
C160 C159 1.370 . S
C160 C161 1.438 . S
C160 H222 0.930 . S
C161 C147 1.497 . S
C161 C160 1.438 . S
C161 C162 1.360 . S
C162 C161 1.360 . S
C162 C163 1.401 . S
C162 C167 1.446 . S
C163 C162 1.401 . S
C163 C164 1.347 . S
C163 H223 0.929 . S
C164 C163 1.347 . S
C164 C165 1.455 . S
C164 H224 0.930 . S
C165 C152 1.412 . S
C165 C164 1.455 . S
C165 C166 1.331 . S
C166 C155 1.451 . S
C166 C165 1.331 . S
C166 C167 1.497 . S
C167 C158 1.395 . S
C167 C162 1.446 . S
C167 C166 1.497 . S
C168 C169 1.582 . S
C168 H225 0.962 . S
C168 H226 0.959 . S
C168 H227 0.958 . S
C169 C168 1.582 . S
C169 O172 1.458 . S
C169 H198 0.980 . S
O170 C115 1.426 . S
O170 C116 1.334 . S
O171 C143 1.412 . S
O171 C144 1.393 . S
O172 C134 1.435 . S
O172 C169 1.458 . S
O173 C125 1.468 1_655 S
O173 C126 1.408 . S
H174 C115 0.980 . S
H175 C114 0.959 . S
H176 C114 0.959 . S
H177 C114 0.960 . S
H178 C117 0.929 1_655 S
H179 C121 0.929 . S
H180 C122 0.959 . S
H181 C122 0.961 . S
H182 C122 0.961 . S
H183 C123 0.960 . S
H184 C123 0.960 . S
H185 C123 0.961 . S
H186 C125 0.980 . S
H187 C124 0.961 1_455 S
H188 C124 0.960 . S
H189 C124 0.959 . S
H190 C127 0.930 . S
H191 C131 0.931 . S
H192 C132 0.959 . S
H193 C132 0.961 . S
H194 C132 0.959 . S
H195 C133 0.960 . S
H196 C133 0.960 . S
H197 C133 0.960 . S
H198 C169 0.980 . S
H199 C135 0.930 . S
H200 C139 0.930 . S
H201 C140 0.961 . S
H202 C140 0.960 . S
H203 C140 0.958 . S
H204 C141 0.961 . S
H205 C141 0.960 . S
H206 C141 0.960 . S
H207 C143 0.980 . S
H208 C142 0.961 . S
H209 C142 0.961 . S
H210 C142 0.959 . S
H211 C145 0.932 . S
H212 C149 0.929 . S
H213 C150 0.961 . S
H214 C150 0.959 . S
H215 C150 0.959 . S
H216 C151 0.960 . S
H217 C151 0.962 . S
H218 C151 0.961 . S
H219 C153 0.929 . S
H220 C156 0.930 . S
H221 C157 0.929 . S
H222 C160 0.930 . S
H223 C163 0.929 . S
H224 C164 0.930 . S
H225 C168 0.962 . S
H226 C168 0.959 . S
H227 C168 0.958 . S
Mg228 O229 2.028 . S
Mg228 O235 1.986 . S
Mg228 O237 2.114 1_545 S
Mg228 O238 2.251 1_545 S
Mg228 O241 2.010 . S
O229 Mg228 2.028 . S
O229 C232 1.250 . S
O230 Mg231 2.028 . S
O230 C232 1.248 1_655 S
Mg231 O230 2.028 . S
Mg231 O236 2.031 1_655 S
Mg231 O238 2.077 1_645 S
C232 O229 1.250 . S
C232 O230 1.248 1_455 S
C233 O234 1.264 . S
C233 O241 1.249 . S
O234 C233 1.264 . S
O235 Mg228 1.986 . S
O235 C239 1.246 . S
O236 Mg231 2.031 1_455 S
O236 C239 1.259 . S
O237 Mg228 2.114 1_565 S
O237 C240 1.252 . S
O238 Mg228 2.251 1_565 S
O238 Mg231 2.077 1_465 S
O238 C240 1.273 . S
C239 O235 1.246 . S
C239 O236 1.259 . S
C240 O237 1.252 . S
C240 O238 1.273 . S
O241 Mg228 2.010 . S
O241 C233 1.249 . S
Mg242 O243 2.028 1_655 S
Mg242 O249 1.986 . S
Mg242 O251 2.114 1_545 S
Mg242 O252 2.251 1_645 S
Mg242 O255 2.010 . S
O243 Mg242 2.028 1_455 S
O243 C246 1.250 . S
O244 Mg245 2.028 . S
O244 C246 1.248 . S
Mg245 O244 2.028 . S
Mg245 O250 2.032 . S
Mg245 O252 2.079 1_545 S
C246 O243 1.250 . S
C246 O244 1.248 . S
C247 O248 1.264 . S
C247 O255 1.249 . S
O248 C247 1.264 . S
O249 Mg242 1.986 . S
O249 C253 1.246 1_655 S
O250 Mg245 2.032 . S
O250 C253 1.259 . S
O251 Mg242 2.114 1_565 S
O251 C254 1.252 1_655 S
O252 Mg242 2.251 1_465 S
O252 Mg245 2.079 1_565 S
O252 C254 1.273 . S
C253 O249 1.246 1_455 S
C253 O250 1.259 . S
C254 O251 1.252 1_455 S
C254 O252 1.273 . S
O255 Mg242 2.010 . S
O255 C247 1.249 . S
H256 C264 0.950 . S
H257 C269 0.950 . S
H258 C266 0.950 . S
H259 C268 0.950 . S
H260 C270 0.950 . S
H261 C272 0.950 . S
H262 C274 0.950 . S
H263 C275 0.950 . S
C264 H256 0.950 . S
C264 C265 1.386 1_565 S
C264 C266 1.391 . S
C265 C264 1.386 1_545 S
C265 C269 1.393 . S
C266 H258 0.950 . S
C266 C264 1.391 . S
C266 C267 1.400 1_565 S
C267 C266 1.400 1_545 S
C267 C268 1.398 . S
C267 C273 1.491 . S
C268 H259 0.950 . S
C268 C267 1.398 . S
C268 C269 1.391 . S
C269 H257 0.950 . S
C269 C265 1.393 . S
C269 C268 1.391 . S
C270 H260 0.950 . S
C270 C271 1.386 . S
C270 C272 1.391 . S
C271 C270 1.386 . S
C271 C275 1.393 1_545 S
C272 H261 0.950 . S
C272 C270 1.391 . S
C272 C273 1.400 . S
C273 C267 1.491 . S
C273 C272 1.400 . S
C273 C274 1.398 1_545 S
C274 H262 0.950 . S
C274 C273 1.398 1_565 S
C274 C275 1.391 . S
C275 H263 0.950 . S
C275 C271 1.393 1_565 S
C275 C274 1.391 . S
H276 C284 0.950 . S
H277 C289 0.957 . S
H278 C286 0.950 . S
H279 C288 0.950 1_655 S
H280 C290 0.950 . S
H281 C292 0.943 1_655 S
H282 C294 0.950 . S
H283 C295 0.950 . S
C284 H276 0.950 . S
C284 C285 1.386 . S
C284 C286 1.391 . S
C285 C284 1.386 . S
C285 C289 1.393 . S
C286 H278 0.950 . S
C286 C284 1.391 . S
C286 C287 1.400 . S
C287 C286 1.400 . S
C287 C288 1.398 . S
C287 C293 1.491 . S
C288 H279 0.950 1_455 S
C288 C287 1.398 . S
C288 C289 1.391 . S
C289 H277 0.957 . S
C289 C285 1.393 . S
C289 C288 1.391 . S
C290 H280 0.950 . S
C290 C291 1.386 1_655 S
C290 C292 1.389 1_655 S
C291 C290 1.386 1_455 S
C291 C295 1.393 . S
C292 H281 0.943 1_455 S
C292 C290 1.389 1_455 S
C292 C293 1.409 . S
C293 C287 1.491 . S
C293 C292 1.409 . S
C293 C294 1.398 . S
C294 H282 0.950 . S
C294 C293 1.398 . S
C294 C295 1.391 . S
C295 H283 0.950 . S
C295 C291 1.393 . S
C295 C294 1.391 . S
H296 C304 0.950 1_565 S
H297 C309 0.950 . S
H298 C306 0.950 1_565 S
H299 C308 0.950 . S
H300 C310 0.950 . S
H301 C312 0.950 . S
H302 C314 0.950 1_565 S
H303 C315 0.950 1_465 S
C304 H296 0.950 1_545 S
C304 C305 1.386 . S
C304 C306 1.391 . S
C305 C304 1.386 . S
C305 C309 1.393 . S
C306 H298 0.950 1_545 S
C306 C304 1.391 . S
C306 C307 1.400 . S
C307 C306 1.400 . S
C307 C308 1.398 . S
C307 C313 1.491 . S
C308 H299 0.950 . S
C308 C307 1.398 . S
C308 C309 1.391 . S
C309 H297 0.950 . S
C309 C305 1.393 . S
C309 C308 1.391 . S
C310 H300 0.950 . S
C310 C311 1.386 . S
C310 C312 1.391 . S
C311 C310 1.386 . S
C311 C315 1.393 . S
C312 H301 0.950 . S
C312 C310 1.391 . S
C312 C313 1.400 . S
C313 C307 1.491 . S
C313 C312 1.400 . S
C313 C314 1.398 . S
C314 H302 0.950 1_545 S
C314 C313 1.398 . S
C314 C315 1.391 . S
C315 H303 0.950 1_645 S
C315 C311 1.393 . S
C315 C314 1.391 . S
H316 C324 0.950 . S
H317 C329 0.950 . S
H318 C326 0.950 . S
H319 C328 0.950 . S
H320 C330 0.950 . S
H321 C332 0.950 . S
H322 C334 0.950 . S
H323 C335 0.950 . S
C324 H316 0.950 . S
C324 C325 1.386 . S
C324 C326 1.391 . S
C325 C324 1.386 . S
C325 C329 1.393 1_455 S
C326 H318 0.950 . S
C326 C324 1.391 . S
C326 C327 1.400 . S
C327 C326 1.400 . S
C327 C328 1.398 1_455 S
C327 C333 1.491 . S
C328 H319 0.950 . S
C328 C327 1.398 1_655 S
C328 C329 1.391 . S
C329 H317 0.950 . S
C329 C325 1.393 1_655 S
C329 C328 1.391 . S
C330 H320 0.950 . S
C330 C331 1.386 1_655 S
C330 C332 1.391 . S
C331 C330 1.386 1_455 S
C331 C335 1.393 . S
C332 H321 0.950 . S
C332 C330 1.391 . S
C332 C333 1.400 1_655 S
C333 C327 1.491 . S
C333 C332 1.400 1_455 S
C333 C334 1.398 . S
C334 H322 0.950 . S
C334 C333 1.398 . S
C334 C335 1.391 . S
C335 H323 0.950 . S
C335 C331 1.393 . S
C335 C334 1.391 . S
H336 C344 0.950 . S
H337 C349 0.950 . S
H338 C346 0.950 . S
H339 C348 0.950 . S
H340 C350 0.950 . S
H341 C352 0.950 . S
H342 C354 0.950 . S
H343 C355 0.950 . S
C344 H336 0.950 . S
C344 C345 1.386 1_565 S
C344 C346 1.391 . S
C345 C344 1.386 1_545 S
C345 C349 1.393 . S
C346 H338 0.950 . S
C346 C344 1.391 . S
C346 C347 1.400 1_565 S
C347 C346 1.400 1_545 S
C347 C348 1.398 . S
C347 C353 1.491 . S
C348 H339 0.950 . S
C348 C347 1.398 . S
C348 C349 1.391 . S
C349 H337 0.950 . S
C349 C345 1.393 . S
C349 C348 1.391 . S
C350 H340 0.950 . S
C350 C351 1.386 . S
C350 C352 1.391 . S
C351 C350 1.386 . S
C351 C355 1.393 1_545 S
C352 H341 0.950 . S
C352 C350 1.391 . S
C352 C353 1.400 . S
C353 C347 1.491 . S
C353 C352 1.400 . S
C353 C354 1.398 1_545 S
C354 H342 0.950 . S
C354 C353 1.398 1_565 S
C354 C355 1.391 . S
C355 H343 0.950 . S
C355 C351 1.393 1_565 S
C355 C354 1.391 . S
H356 C364 0.950 . S
H357 C369 0.950 . S
H358 C366 0.950 . S
H359 C368 0.950 . S
H360 C370 0.950 . S
H361 C372 0.950 . S
H362 C374 0.950 . S
H363 C375 0.950 . S
C364 H356 0.950 . S
C364 C365 1.386 . S
C364 C366 1.391 . S
C365 C364 1.386 . S
C365 C369 1.393 . S
C366 H358 0.950 . S
C366 C364 1.391 . S
C366 C367 1.400 . S
C367 C366 1.400 . S
C367 C368 1.398 . S
C367 C373 1.491 . S
C368 H359 0.950 . S
C368 C367 1.398 . S
C368 C369 1.391 . S
C369 H357 0.950 . S
C369 C365 1.393 . S
C369 C368 1.391 . S
C370 H360 0.950 . S
C370 C371 1.386 . S
C370 C372 1.391 . S
C371 C370 1.386 . S
C371 C375 1.393 . S
C372 H361 0.950 . S
C372 C370 1.391 . S
C372 C373 1.400 . S
C373 C367 1.491 . S
C373 C372 1.400 . S
C373 C374 1.398 . S
C374 H362 0.950 . S
C374 C373 1.398 . S
C374 C375 1.391 . S
C375 H363 0.950 . S
C375 C371 1.393 . S
C375 C374 1.391 . S
H376 C384 0.950 . S
H377 C389 0.950 . S
H378 C386 0.950 . S
H379 C388 0.950 . S
H380 C390 0.950 . S
H381 C392 0.950 . S
H382 C394 0.950 . S
H383 C395 0.950 . S
C384 H376 0.950 . S
C384 C385 1.386 . S
C384 C386 1.391 . S
C385 C384 1.386 . S
C385 C389 1.393 1_545 S
C386 H378 0.950 . S
C386 C384 1.391 . S
C386 C387 1.400 . S
C387 C386 1.400 . S
C387 C388 1.398 1_545 S
C387 C393 1.491 . S
C388 H379 0.950 . S
C388 C387 1.398 1_565 S
C388 C389 1.391 . S
C389 H377 0.950 . S
C389 C385 1.393 1_565 S
C389 C388 1.391 . S
C390 H380 0.950 . S
C390 C391 1.386 1_565 S
C390 C392 1.391 . S
C391 C390 1.386 1_545 S
C391 C395 1.393 . S
C392 H381 0.950 . S
C392 C390 1.391 . S
C392 C393 1.400 1_565 S
C393 C387 1.491 . S
C393 C392 1.400 1_545 S
C393 C394 1.398 . S
C394 H382 0.950 . S
C394 C393 1.398 . S
C394 C395 1.391 . S
C395 H383 0.950 . S
C395 C391 1.393 . S
C395 C394 1.391 . S
H396 C404 0.950 . S
H397 C409 0.950 . S
H398 C406 0.950 . S
H399 C408 0.950 . S
H400 C410 0.950 . S
H401 C412 0.950 . S
H402 C414 0.950 . S
H403 C415 0.950 . S
C404 H396 0.950 . S
C404 C405 1.386 . S
C404 C406 1.391 . S
C405 C404 1.386 . S
C405 C409 1.393 . S
C406 H398 0.950 . S
C406 C404 1.391 . S
C406 C407 1.400 . S
C407 C406 1.400 . S
C407 C408 1.398 . S
C407 C413 1.491 . S
C408 H399 0.950 . S
C408 C407 1.398 . S
C408 C409 1.391 . S
C409 H397 0.950 . S
C409 C405 1.393 . S
C409 C408 1.391 . S
C410 H400 0.950 . S
C410 C411 1.386 . S
C410 C412 1.391 . S
C411 C410 1.386 . S
C411 C415 1.393 . S
C412 H401 0.950 . S
C412 C410 1.391 . S
C412 C413 1.400 . S
C413 C407 1.491 . S
C413 C412 1.400 . S
C413 C414 1.398 . S
C414 H402 0.950 . S
C414 C413 1.398 . S
C414 C415 1.391 . S
C415 H403 0.950 . S
C415 C411 1.393 . S
C415 C414 1.391 . S
C271 C233 1.296 . S
C265 C11 0.941 1_545 S
C291 C253 1.314 . S
C285 C115 1.052 . S
C311 C232 1.310 1_655 S
C305 C1 1.067 . S
C331 C254 1.498 . S
C325 C125 0.965 . S
C351 C246 1.540 . S
C345 C55 1.158 . S
C371 C239 1.410 . S
C365 C143 1.121 . S
C391 C247 1.174 . S
C385 C29 1.088 . S
C405 C169 1.127 . S
C411 C240 1.585 . S
