# Generated by pormake.
# Topology anh, (6,3)-cn, num edge types: 1
# Building blocks:
#     Node 0, Type 0, BuildingBlock: GEDQOX_clean_sbu_0, # of connection points: 6
#     Node 1, Type 0, BuildingBlock: GEDQOX_clean_sbu_0, # of connection points: 6
#     Node 2, Type 0, BuildingBlock: GEDQOX_clean_sbu_0, # of connection points: 6
#     Node 3, Type 1, BuildingBlock: VETTIZ_charged_linker_0, # of connection points: 3
#     Node 4, Type 1, BuildingBlock: VETTIZ_charged_linker_0, # of connection points: 3
#     Node 5, Type 1, BuildingBlock: VETTIZ_charged_linker_0, # of connection points: 3
#     Node 6, Type 1, BuildingBlock: VETTIZ_charged_linker_0, # of connection points: 3
#     Node 7, Type 1, BuildingBlock: VETTIZ_charged_linker_0, # of connection points: 3
#     Node 8, Type 1, BuildingBlock: VETTIZ_charged_linker_0, # of connection points: 3
#     Edge 9, Type (0, 1), BuildingBlock: CIFDUS_clean_linker_0, # of connection points: 2
#     Edge 10, Type (0, 1), BuildingBlock: CIFDUS_clean_linker_0, # of connection points: 2
#     Edge 11, Type (0, 1), BuildingBlock: CIFDUS_clean_linker_0, # of connection points: 2
#     Edge 12, Type (0, 1), BuildingBlock: CIFDUS_clean_linker_0, # of connection points: 2
#     Edge 13, Type (0, 1), BuildingBlock: CIFDUS_clean_linker_0, # of connection points: 2
#     Edge 14, Type (0, 1), BuildingBlock: CIFDUS_clean_linker_0, # of connection points: 2
#     Edge 15, Type (0, 1), BuildingBlock: CIFDUS_clean_linker_0, # of connection points: 2
#     Edge 16, Type (0, 1), BuildingBlock: CIFDUS_clean_linker_0, # of connection points: 2
#     Edge 17, Type (0, 1), BuildingBlock: CIFDUS_clean_linker_0, # of connection points: 2
#     Edge 18, Type (0, 1), BuildingBlock: CIFDUS_clean_linker_0, # of connection points: 2
#     Edge 19, Type (0, 1), BuildingBlock: CIFDUS_clean_linker_0, # of connection points: 2
#     Edge 20, Type (0, 1), BuildingBlock: CIFDUS_clean_linker_0, # of connection points: 2
#     Edge 21, Type (0, 1), BuildingBlock: CIFDUS_clean_linker_0, # of connection points: 2
#     Edge 22, Type (0, 1), BuildingBlock: CIFDUS_clean_linker_0, # of connection points: 2
#     Edge 23, Type (0, 1), BuildingBlock: CIFDUS_clean_linker_0, # of connection points: 2
#     Edge 24, Type (0, 1), BuildingBlock: CIFDUS_clean_linker_0, # of connection points: 2
#     Edge 25, Type (0, 1), BuildingBlock: CIFDUS_clean_linker_0, # of connection points: 2
#     Edge 26, Type (0, 1), BuildingBlock: CIFDUS_clean_linker_0, # of connection points: 2
# Relax obj value: 0.194
# Max RMSD: 0.218
# Mean RMSD: 0.163
data_MOF--net-anh--node1-GEDQOX_clean_sbu_0--node2-VETTIZ_charged_linker_0--edge1-CIFDUS_clean_linker_0
_symmetry_space_group_name_H-M    P1
_symmetry_Int_Tables_number       1
_symmetry_cell_setting            triclinic
loop_
_symmetry_equiv_pos_as_xyz
'x, y, z'
_cell_length_a     31.912081
_cell_length_b     31.156441
_cell_length_c     60.313517
_cell_angle_alpha  92.745587
_cell_angle_beta   90.538195
_cell_angle_gamma 101.89531
loop_
_atom_site_label
_atom_site_type_symbol
_atom_site_fract_x
_atom_site_fract_y
_atom_site_fract_z
_atom_type_partial_charge
Nd0 Nd 0.10644 0.5712 0.15427 0.0
Nd1 Nd 1.08697 0.47226 0.15764 0.0
C2 C 0.13744 0.65282 0.14358 0.0
C3 C 0.17522 0.68756 0.14974 0.0
C4 C 0.20006 0.70986 0.13311 0.0
C5 C 0.23555 0.74342 0.13875 0.0
C6 C 0.24642 0.75549 0.16114 0.0
C7 C 0.2219 0.7326 0.17774 0.0
C8 C 0.18681 0.69886 0.17211 0.0
C9 C 0.09392 0.54433 0.19662 0.0
C10 C 0.18799 0.51726 0.1571 0.0
C11 C 1.05659 0.39064 0.16864 0.0
C12 C 1.01545 0.36378 0.17581 0.0
C13 C 1.00472 0.36326 0.19836 0.0
C14 C 0.96616 0.33773 0.20514 0.0
C15 C 0.93736 0.3119 0.18959 0.0
C16 C 0.94828 0.31198 0.16706 0.0
C17 C 0.98693 0.33757 0.16025 0.0
C18 C 0.10291 0.50111 0.11589 0.0
C19 C 1.00583 0.52376 0.15299 0.0
O20 O 0.14464 0.61855 0.13202 0.0
O21 O 0.10882 0.64246 0.15888 0.0
O22 O 1.08104 0.57802 0.18939 0.0
O23 O 0.11485 0.52769 0.18216 0.0
O24 O 0.17543 0.55468 0.15374 0.0
O25 O 0.15983 0.4809 0.16081 0.0
O26 O 1.07665 0.42164 0.18269 0.0
O27 O 1.05848 0.40264 0.14811 0.0
O28 O 0.11613 0.46743 0.12308 0.0
O29 O 1.08022 0.51619 0.13 0.0
O30 O 1.0198 0.49005 0.16078 0.0
O31 O 1.03339 0.55828 0.14617 0.0
H32 H 0.1918 0.70151 0.11574 0.0
H33 H 0.25386 0.7606 0.12564 0.0
H34 H 0.22998 0.74075 0.19513 0.0
H35 H 0.16865 0.68182 0.18531 0.0
H36 H 1.02617 0.38248 0.21085 0.0
H37 H 0.95919 0.33778 0.22268 0.0
H38 H 0.92673 0.29268 0.15463 0.0
H39 H 0.99442 0.33685 0.14277 0.0
Nd40 Nd 0.54472 0.97848 0.52088 0.0
Nd41 Nd 0.63749 1.00878 0.50939 0.0
C42 C 0.47132 0.93849 0.53719 0.0
C43 C 0.44375 0.89552 0.53151 0.0
C44 C 0.41015 0.87786 0.54528 0.0
C45 C 0.38356 0.83717 0.53943 0.0
C46 C 0.39019 0.81369 0.51967 0.0
C47 C 0.42448 0.83151 0.50614 0.0
C48 C 0.45109 0.87191 0.51207 0.0
C49 C 0.55814 0.98961 0.47657 0.0
C50 C 0.60521 0.90458 0.51129 0.0
C51 C 0.71103 0.04776 0.49273 0.0
C52 C 0.73231 0.09247 0.48704 0.0
C53 C 0.73997 0.10156 0.4647 0.0
C54 C 0.76118 0.14321 0.45895 0.0
C55 C 0.77552 0.17653 0.47546 0.0
C56 C 0.76745 0.16764 0.49781 0.0
C57 C 0.74592 0.12604 0.50356 0.0
C58 C 0.62335 0.99558 0.55354 0.0
C59 C 0.57769 0.08182 0.51916 0.0
O60 O 0.50852 0.93743 0.54622 0.0
O61 O 0.47404 0.96705 0.52178 0.0
O62 O 0.52532 0.99886 0.4868 0.0
O63 O 0.58082 0.97245 0.48927 0.0
O64 O 0.56952 0.91367 0.51944 0.0
O65 O 0.63595 0.93546 0.50401 0.0
O66 O 0.67781 0.02871 0.48041 0.0
O67 O 0.706 0.04025 0.51379 0.0
O68 O 0.65518 0.98478 0.54295 0.0
O69 O 0.60141 0.01429 0.54114 0.0
O70 O 0.60972 0.07177 0.50766 0.0
O71 O 0.55148 0.05154 0.52975 0.0
H72 H 0.40435 0.89558 0.56045 0.0
H73 H 0.35787 0.82413 0.55039 0.0
H74 H 0.43021 0.81483 0.49065 0.0
H75 H 0.47711 0.88507 0.5013 0.0
H76 H 0.73001 0.07622 0.45167 0.0
H77 H 0.76751 0.14894 0.44161 0.0
H78 H 0.77796 0.19283 0.51084 0.0
H79 H 0.74037 0.12015 0.52094 0.0
Nd80 Nd 0.53887 0.5224 0.82568 0.0
Nd81 Nd 0.62759 0.53623 0.84706 0.0
C82 C 0.47733 0.5321 0.79803 0.0
C83 C 0.46047 0.57104 0.79278 0.0
C84 C 0.41622 0.56755 0.79032 0.0
C85 C 0.39915 0.60539 0.79045 0.0
C86 C 0.42614 0.64715 0.79338 0.0
C87 C 0.47064 0.65064 0.79385 0.0
C88 C 0.48772 0.61282 0.79333 0.0
C89 C 0.53823 0.5146 0.87057 0.0
C90 C 0.58961 0.62288 0.84267 0.0
C91 C 0.698 0.52882 0.8682 0.0
C92 C 0.73119 0.50591 0.8604 0.0
C93 C 0.76284 0.49831 0.875 0.0
C94 C 0.79668 0.48042 0.86682 0.0
C95 C 0.79936 0.47037 0.84393 0.0
C96 C 0.7663 0.47586 0.82956 0.0
C97 C 0.73223 0.49317 0.83778 0.0
C98 C 0.6266 0.53966 0.80172 0.0
C99 C 0.57271 0.4345 0.83346 0.0
O100 O 0.51649 0.53215 0.79182 0.0
O101 O 0.46994 0.51861 0.81814 0.0
O102 O 0.50833 0.49246 0.85725 0.0
O103 O 0.56422 0.543 0.86059 0.0
O104 O 0.56126 0.59761 0.82907 0.0
O105 O 0.61666 0.60625 0.85467 0.0
O106 O 0.66079 0.50365 0.87172 0.0
O107 O 0.69495 0.56324 0.8572 0.0
O108 O 0.65553 0.56465 0.81435 0.0
O109 O 0.60195 0.51283 0.81297 0.0
O110 O 0.60375 0.46005 0.84565 0.0
O111 O 0.5454 0.4512 0.82174 0.0
H112 H 0.39472 0.53567 0.78984 0.0
H113 H 0.36465 0.60185 0.79037 0.0
H114 H 0.49198 0.68248 0.79617 0.0
H115 H 0.52209 0.61644 0.79479 0.0
H116 H 0.76224 0.5077 0.89251 0.0
H117 H 0.82217 0.4771 0.8782 0.0
H118 H 0.76775 0.46845 0.81188 0.0
H119 H 0.70757 0.49834 0.82633 0.0
C120 C 0.702 0.10499 0.2129 0.0
C121 C 0.7346 0.13372 0.22537 0.0
C122 C 0.73275 0.13505 0.24873 0.0
C123 C 0.66622 0.08105 0.24692 0.0
C124 C 0.66806 0.07917 0.224 0.0
C125 C 0.62992 0.04775 0.21348 0.0
H126 H 0.44012 0.90672 0.22757 0.0
C127 C 0.62648 0.05134 0.25338 0.0
C128 C 0.60481 0.03173 0.23386 0.0
H129 H 0.5013 0.94102 0.1654 0.0
H130 H 0.56101 0.98867 0.18535 0.0
H131 H 0.52496 0.897 0.2539 0.0
H132 H 0.45554 1.00042 0.24872 0.0
H133 H 0.47582 1.00591 0.27605 0.0
H134 H 0.43885 0.95614 0.2667 0.0
H135 H 0.47369 0.89586 0.2661 0.0
H136 H 0.52281 0.92047 0.28082 0.0
C137 C 0.6462 1.01028 0.20076 0.0
C138 C 0.60526 0.07395 0.19878 0.0
C139 C 0.59049 0.03712 0.33522 0.0
C140 C 0.55425 0.01454 0.34598 0.0
C141 C 0.51999 0.9892 0.33325 0.0
C142 C 0.52177 0.986 0.3101 0.0
C143 C 0.55806 1.00876 0.29946 0.0
C144 C 0.59147 0.03415 0.31195 0.0
C145 C 0.62632 0.05771 0.29759 0.0
C146 C 0.60858 0.0415 0.27449 0.0
C147 C 0.56887 1.01262 0.2758 0.0
C148 C 0.66798 0.04173 0.30292 0.0
C149 C 0.62963 0.10786 0.30171 0.0
C150 C 0.46605 0.92482 0.21813 0.0
C151 C 0.46563 0.92054 0.19486 0.0
C152 C 0.50081 0.94378 0.18336 0.0
C153 C 0.53532 0.97152 0.19497 0.0
C154 C 0.53469 0.9759 0.21832 0.0
C155 C 0.50039 0.95244 0.22939 0.0
C156 C 0.50443 0.96048 0.25408 0.0
C157 C 0.54696 0.99266 0.2562 0.0
C158 C 0.56477 1.00184 0.23529 0.0
C159 C 0.50631 0.9163 0.26446 0.0
C160 C 0.46671 0.98154 0.26198 0.0
H161 H 0.69947 0.11164 0.27731 0.0
H162 H 0.70243 0.10333 0.19493 0.0
H163 H 0.60391 0.10626 0.20712 0.0
H164 H 0.57158 0.0574 0.19561 0.0
H165 H 0.6212 0.08029 0.18262 0.0
H166 H 0.67269 1.00073 0.2102 0.0
H167 H 0.65859 0.02064 0.18428 0.0
H168 H 0.6214 0.97992 0.19844 0.0
H169 H 0.61702 0.05726 0.34468 0.0
H170 H 0.49192 0.97139 0.34129 0.0
H171 H 0.49472 0.9659 0.30142 0.0
H172 H 0.66092 1.00576 0.30528 0.0
H173 H 0.68368 0.05844 0.31843 0.0
H174 H 0.69124 0.04654 0.28938 0.0
H175 H 0.59826 0.11538 0.30657 0.0
H176 H 0.63818 0.12638 0.28665 0.0
H177 H 0.65317 0.12149 0.31523 0.0
H178 H 0.75781 0.15621 0.25873 0.0
C179 C 0.6989 0.10894 0.25952 0.0
C180 C 0.59505 0.61677 0.52878 0.0
C181 C 0.59866 0.65883 0.53924 0.0
C182 C 0.60534 0.66443 0.56234 0.0
C183 C 0.60247 0.58665 0.56473 0.0
C184 C 0.59761 0.58108 0.54189 0.0
C185 C 0.59605 0.53391 0.53399 0.0
H186 H 0.58935 0.32318 0.56265 0.0
C187 C 0.602 0.5435 0.57382 0.0
C188 C 0.59865 0.51214 0.55594 0.0
H189 H 0.59175 0.36851 0.49607 0.0
H190 H 0.59507 0.44344 0.51095 0.0
H191 H 0.66144 0.39845 0.58198 0.0
H192 H 0.52437 0.37751 0.58159 0.0
H193 H 0.54097 0.40257 0.60771 0.0
H194 H 0.55364 0.35014 0.59986 0.0
H195 H 0.62901 0.361 0.5997 0.0
H196 H 0.64833 0.41806 0.6082 0.0
C197 C 0.63568 0.53266 0.51963 0.0
C198 C 0.55297 0.51606 0.52159 0.0
C199 C 0.60103 0.52982 0.65764 0.0
C200 C 0.59778 0.49345 0.67095 0.0
C201 C 0.59601 0.45152 0.66073 0.0
C202 C 0.59689 0.44567 0.63764 0.0
C203 C 0.59944 0.4821 0.6245 0.0
C204 C 0.60162 0.52331 0.6345 0.0
C205 C 0.60367 0.55794 0.61775 0.0
C206 C 0.60223 0.53052 0.59607 0.0
C207 C 0.59973 0.48632 0.60022 0.0
C208 C 0.64683 0.59138 0.62125 0.0
C209 C 0.56332 0.57802 0.62051 0.0
C210 C 0.59011 0.34904 0.55117 0.0
C211 C 0.58957 0.33986 0.52821 0.0
C212 C 0.59194 0.37482 0.51389 0.0
C213 C 0.59388 0.41817 0.52256 0.0
C214 C 0.59408 0.42656 0.54575 0.0
C215 C 0.59249 0.39198 0.55948 0.0
C216 C 0.594 0.40581 0.58358 0.0
C217 C 0.59709 0.45465 0.58237 0.0
C218 C 0.5968 0.46713 0.56025 0.0
C219 C 0.63504 0.39514 0.59411 0.0
C220 C 0.55133 0.38278 0.59392 0.0
H221 H 0.61187 0.63522 0.59266 0.0
H222 H 0.59038 0.61191 0.51096 0.0
H223 H 0.52606 0.52453 0.53129 0.0
H224 H 0.54584 0.47999 0.5191 0.0
H225 H 0.55263 0.5305 0.50511 0.0
H226 H 0.66443 0.5557 0.52686 0.0
H227 H 0.63049 0.54242 0.5025 0.0
H228 H 0.64432 0.50014 0.51879 0.0
H229 H 0.60224 0.56243 0.66505 0.0
H230 H 0.59423 0.42312 0.67064 0.0
H231 H 0.59537 0.41285 0.63099 0.0
H232 H 0.67175 0.57604 0.62879 0.0
H233 H 0.64323 0.61971 0.63244 0.0
H234 H 0.66073 0.60366 0.60544 0.0
H235 H 0.53463 0.552 0.62348 0.0
H236 H 0.555 0.59394 0.60562 0.0
H237 H 0.56728 0.60227 0.63489 0.0
H238 H 0.60823 0.69662 0.5706 0.0
C239 C 0.60723 0.62869 0.57511 0.0
C240 C 0.24769 0.69403 0.86234 0.0
C241 C 0.28062 0.72642 0.87235 0.0
C242 C 0.27782 0.73797 0.89514 0.0
C243 C 0.21337 0.68138 0.89774 0.0
C244 C 0.21491 0.672 0.8752 0.0
C245 C 0.18065 0.63377 0.86709 0.0
H246 H 1.01137 0.47507 0.88985 0.0
C247 C 0.17741 0.64921 0.90649 0.0
C248 C 0.15815 0.62145 0.88849 0.0
H249 H 1.06576 0.50486 0.82561 0.0
H250 H 0.12115 0.56182 0.84297 0.0
H251 H 0.1056 0.48849 0.91816 0.0
H252 H 1.01033 0.56349 0.90483 0.0
H253 H 1.03224 0.58443 0.93087 0.0
H254 H 1.00495 0.52753 0.92742 0.0
H255 H 1.05176 0.47648 0.92806 0.0
H256 H 0.09378 0.51361 0.94341 0.0
C257 C 0.20245 0.59696 0.85745 0.0
C258 C 0.15132 0.6505 0.85036 0.0
C259 C 0.15274 0.64001 0.98976 0.0
C260 C 0.12121 0.61264 0.00169 0.0
C261 C 1.08672 0.58476 0.99033 0.0
C262 C 1.08471 0.58194 0.96723 0.0
C263 C 0.11763 0.6072 0.95534 0.0
C264 C 0.14989 0.63719 0.96645 0.0
C265 C 0.18023 0.6631 0.95054 0.0
C266 C 0.16204 0.64168 0.9283 0.0
C267 C 0.12606 0.60831 0.93145 0.0
C268 C 0.2258 0.65549 0.95524 0.0
C269 C 0.17632 0.71178 0.95312 0.0
C270 C 1.03615 0.49244 0.87949 0.0
C271 C 1.03446 0.48492 0.85631 0.0
C272 C 1.0665 0.50984 0.84351 0.0
C273 C 0.09828 0.54321 0.85363 0.0
C274 C 0.09777 0.55191 0.87674 0.0
C275 C 1.06743 0.5261 0.88923 0.0
C276 C 1.06993 0.54094 0.91331 0.0
C277 C 0.10698 0.58015 0.91335 0.0
C278 C 0.12317 0.58642 0.89198 0.0
C279 C 1.08059 0.50307 0.92662 0.0
C280 C 1.0272 0.55458 0.91962 0.0
H281 H 0.2446 0.72482 0.92527 0.0
H282 H 0.24893 0.68306 0.8451 0.0
H283 H 0.14692 0.68398 0.85565 0.0
H284 H 0.11861 0.63012 0.84918 0.0
H285 H 0.16537 0.65232 0.83357 0.0
H286 H 0.18287 0.56366 0.85903 0.0
H287 H 0.23279 0.59677 0.86666 0.0
H288 H 0.21037 0.60162 0.83972 0.0
H289 H 0.17936 0.6619 -0.00167 0.0
H290 H 1.06222 0.56362 -0.00058 0.0
H291 H 1.05825 0.55909 0.95959 0.0
H292 H 0.2249 0.62005 0.95743 0.0
H293 H 0.23981 0.67408 0.97066 0.0
H294 H 0.24796 0.66479 0.94156 0.0
H295 H 0.14313 0.71456 0.95745 0.0
H296 H 0.18269 0.72908 0.93755 0.0
H297 H 0.19818 0.72974 0.96647 0.0
H298 H 0.30255 0.76289 0.90332 0.0
C299 C 0.24428 0.71567 0.90788 0.0
C300 C 0.98578 0.41131 0.45633 0.0
C301 C 0.95642 0.37865 0.44406 0.0
C302 C 0.95982 0.37534 0.42076 0.0
C303 C 1.0217 0.43519 0.4224 0.0
C304 C 1.01814 0.43904 0.44518 0.0
C305 C 1.05286 0.47465 0.45563 0.0
H306 H 0.23319 0.62959 0.4435 0.0
C307 C 1.05993 0.46716 0.41603 0.0
C308 C 1.07859 0.49025 0.4354 0.0
H309 H 0.16158 0.59977 0.50324 0.0
H310 H 0.11096 0.54254 0.48293 0.0
H311 H 0.22658 0.52982 0.42434 0.0
H312 H 0.15023 0.62582 0.41253 0.0
H313 H 0.15904 0.60061 0.3868 0.0
H314 H 0.20408 0.631 0.40298 0.0
H315 H 0.24509 0.57588 0.40766 0.0
H316 H 0.21289 0.52519 0.39591 0.0
C317 C 1.07909 0.45345 0.47208 0.0
C318 C 1.03156 0.51082 0.46635 0.0
C319 C 0.09725 0.47956 0.33476 0.0
C320 C 0.13139 0.50498 0.32371 0.0
C321 C 0.16543 0.53147 0.33618 0.0
C322 C 0.16446 0.53413 0.35945 0.0
C323 C 0.12914 0.50988 0.37029 0.0
C324 C 0.09695 0.48223 0.35796 0.0
C325 C 1.063 0.4573 0.37225 0.0
C326 C 1.07906 0.47606 0.39517 0.0
C327 C 0.11753 0.50712 0.39393 0.0
C328 C 1.0636 0.40768 0.36908 0.0
C329 C 1.0197 0.46926 0.36608 0.0
C330 C 0.20693 0.61021 0.45223 0.0
C331 C 0.20143 0.61873 0.47499 0.0
C332 C 0.16632 0.59367 0.4857 0.0
C333 C 0.13705 0.56053 0.47388 0.0
C334 C 0.14269 0.55272 0.45105 0.0
C335 C 0.1771 0.57752 0.44059 0.0
C336 C 0.17669 0.56642 0.41604 0.0
C337 C 0.13645 0.53073 0.41348 0.0
C338 C 0.11686 0.52261 0.43406 0.0
C339 C 0.21748 0.54865 0.4105 0.0
C340 C 0.17258 0.60799 0.40377 0.0
H341 H 0.9931 0.39885 0.39221 0.0
H342 H 0.98386 0.41499 0.47421 0.0
H343 H 1.00139 0.51257 0.45736 0.0
H344 H 1.05174 0.5441 0.46555 0.0
H345 H 1.02343 0.50436 0.48391 0.0
H346 H 1.08496 0.42176 0.46482 0.0
H347 H 1.06168 0.4466 0.4878 0.0
H348 H 0.11112 0.47375 0.47605 0.0
H349 H 1.07103 0.45845 0.32549 0.0
H350 H 0.19201 0.55132 0.32788 0.0
H351 H 0.19082 0.55557 0.36807 0.0
H352 H 0.09554 0.40241 0.36378 0.0
H353 H 1.03976 0.39112 0.35624 0.0
H354 H 1.05774 0.39031 0.38469 0.0
H355 H 1.02413 0.50496 0.36331 0.0
H356 H 0.99589 0.46307 0.37932 0.0
H357 H 1.00569 0.45098 0.35058 0.0
H358 H 0.93824 0.35005 0.4109 0.0
C359 C 0.99213 0.40341 0.40991 0.0
C360 C 0.62009 0.91349 0.82629 0.0
C361 C 0.62082 0.87179 0.81625 0.0
C362 C 0.61772 0.86577 0.79302 0.0
C363 C 0.61179 0.94143 0.78983 0.0
C364 C 0.61557 0.948 0.81268 0.0
C365 C 0.61358 0.99477 0.81998 0.0
H366 H 0.58401 0.19529 0.78922 0.0
C367 C 0.60575 0.98256 0.78031 0.0
C368 C 0.6066 0.01431 0.79783 0.0
H369 H 0.61039 0.16069 0.85563 0.0
H370 H 0.61343 0.08661 0.84168 0.0
H371 H 0.65265 0.15248 0.76648 0.0
H372 H 0.5177 0.10783 0.77524 0.0
H373 H 0.52798 0.08909 0.74835 0.0
H374 H 0.539 0.14734 0.75542 0.0
H375 H 0.61327 0.17141 0.75031 0.0
H376 H 0.63332 0.1233 0.74166 0.0
C377 C 0.65704 0.01687 0.83101 0.0
C378 C 0.57508 0.99366 0.83541 0.0
C379 C 0.58656 0.9873 0.69654 0.0
C380 C 0.57914 0.02037 0.6828 0.0
C381 C 0.57439 0.06096 0.69267 0.0
C382 C 0.57768 0.06884 0.71571 0.0
C383 C 0.58586 0.03583 0.72921 0.0
C384 C 0.58966 0.99572 0.71962 0.0
C385 C 0.59752 0.9644 0.73667 0.0
C386 C 0.59875 0.99276 0.75803 0.0
C387 C 0.59208 0.03446 0.75348 0.0
C388 C 0.64148 0.95234 0.73197 0.0
C389 C 0.55893 0.92477 0.73569 0.0
C390 C 0.58984 0.17175 0.80092 0.0
C391 C 0.59623 0.18375 0.82359 0.0
C392 C 0.60519 0.15224 0.83805 0.0
C393 C 0.60689 0.1093 0.82992 0.0
C394 C 0.60008 0.09792 0.80706 0.0
C395 C 0.59198 0.12938 0.79312 0.0
C396 C 0.58685 0.11323 0.7693 0.0
C397 C 0.59305 0.0667 0.77096 0.0
C398 C 0.60055 0.0572 0.79308 0.0
C399 C 0.62304 0.14153 0.75606 0.0
C400 C 0.54069 0.1146 0.76145 0.0
H401 H 0.61076 0.89307 0.76223 0.0
H402 H 0.62235 0.91879 0.84417 0.0
H403 H 0.54619 0.97085 0.82818 0.0
H404 H 0.56621 0.02592 0.83777 0.0
H405 H 0.58192 0.98215 0.85195 0.0
H406 H 0.68395 1.00796 0.82147 0.0
H407 H 0.65941 1.00616 0.8482 0.0
H408 H 0.66272 0.05303 0.83144 0.0
H409 H 0.58989 0.95557 0.68949 0.0
H410 H 0.56922 0.0872 0.6825 0.0
H411 H 0.57422 0.10063 0.72206 0.0
H412 H 0.66473 0.98112 0.72615 0.0
H413 H 0.63845 0.92549 0.71889 0.0
H414 H 0.6569 0.94277 0.7469 0.0
H415 H 0.52898 0.93469 0.73032 0.0
H416 H 0.55137 0.91096 0.75207 0.0
H417 H 0.56444 0.89833 0.72375 0.0
H418 H 0.61815 0.83391 0.78507 0.0
C419 C 0.61327 0.90018 0.7798 0.0
C420 C 0.72177 0.54086 0.14051 0.0
C421 C 0.75945 0.53571 0.12903 0.0
C422 C 0.75626 0.52638 0.10601 0.0
C423 C 0.68031 0.52727 0.10574 0.0
C424 C 0.68213 0.53587 0.12847 0.0
C425 C 0.63774 0.53899 0.13706 0.0
H426 H 0.42088 0.51065 0.10994 0.0
C427 C 0.63562 0.52336 0.09764 0.0
C428 C 0.60943 0.52907 0.11587 0.0
H429 H 0.47732 0.55558 0.17424 0.0
H430 H 0.54854 0.55086 0.16026 0.0
H431 H 0.48486 0.57449 0.08559 0.0
H432 H 0.47608 0.43866 0.09759 0.0
H433 H 0.49269 0.44459 0.07004 0.0
H434 H 0.44217 0.45763 0.07804 0.0
H435 H 0.45038 0.53167 0.06926 0.0
H436 H 0.50487 0.55319 0.06155 0.0
C437 C 0.63967 0.58604 0.14668 0.0
C438 C 0.62409 0.50417 0.15429 0.0
C439 C 0.60472 0.50452 0.01423 0.0
C440 C 0.56648 0.49702 0.00138 0.0
C441 C 0.52712 0.48996 0.01251 0.0
C442 C 0.52586 0.49272 0.0357 0.0
C443 C 0.56431 0.50219 0.04822 0.0
C444 C 0.60277 0.50641 0.0375 0.0
C445 C 0.64007 0.51255 0.05362 0.0
C446 C 0.61776 0.51489 0.07578 0.0
C447 C 0.57356 0.50916 0.0724 0.0
C448 C 0.67085 0.55651 0.0491 0.0
C449 C 0.66039 0.47136 0.05095 0.0
C450 C 0.44825 0.5188 0.12127 0.0
C451 C 0.44297 0.53261 0.1433 0.0
C452 C 0.4802 0.54447 0.15715 0.0
C453 C 0.52149 0.54178 0.14903 0.0
C454 C 0.52597 0.52815 0.12665 0.0
C455 C 0.4892 0.51763 0.11334 0.0
C456 C 0.49843 0.50812 0.08964 0.0
C457 C 0.5466 0.51361 0.09052 0.0
C458 C 0.56374 0.52453 0.11226 0.0
C459 C 0.48376 0.54326 0.07562 0.0
C460 C 0.47605 0.45991 0.08328 0.0
H461 H 0.71822 0.51612 0.07688 0.0
H462 H 0.72316 0.54821 0.15826 0.0
H463 H 0.62606 0.47105 0.14719 0.0
H464 H 0.59077 0.50264 0.15952 0.0
H465 H 0.64531 0.51145 0.1693 0.0
H466 H 0.65421 0.61042 0.1346 0.0
H467 H 0.65943 0.5924 0.16222 0.0
H468 H 0.60757 0.59224 0.15032 0.0
H469 H 0.63567 0.50968 0.00647 0.0
H470 H 0.49698 0.48224 0.00332 0.0
H471 H 0.49479 0.48773 0.04293 0.0
H472 H 0.65248 0.58257 0.04634 0.0
H473 H 0.68995 0.55305 0.03407 0.0
H474 H 0.69306 0.56933 0.06314 0.0
H475 H 0.63832 0.44303 0.04232 0.0
H476 H 0.66767 0.45899 0.06718 0.0
H477 H 0.6901 0.47817 0.04114 0.0
H478 H 0.7844 0.52268 0.09678 0.0
C479 C 0.71746 0.52243 0.09442 0.0
H480 H 0.26229 0.58177 0.16544 0.0
H481 H 0.21882 0.44537 0.14431 0.0
H482 H 0.29251 0.43753 0.13947 0.0
H483 H 0.36977 0.46926 0.13965 0.0
H484 H 0.41565 0.60393 0.16251 0.0
H485 H 0.34157 0.61227 0.16858 0.0
C486 C 0.26898 0.55033 0.15986 0.0
C487 C 0.23441 0.51426 0.15518 0.0
C488 C 0.31225 0.54555 0.15752 0.0
C489 C 0.24422 0.47374 0.14816 0.0
C490 C 0.28661 0.46915 0.14533 0.0
C491 C 0.36365 0.50031 0.14628 0.0
C492 C 0.39858 0.53587 0.15065 0.0
C493 C 0.32092 0.50476 0.14981 0.0
C494 C 0.38972 0.5758 0.15924 0.0
C495 C 0.34716 0.58068 0.16251 0.0
H496 H 0.84985 0.2215 0.49464 0.0
H497 H 0.75852 0.22733 0.44226 0.0
H498 H 0.80481 0.29363 0.42931 0.0
H499 H 0.87361 0.34611 0.43109 0.0
H500 H 0.96668 0.33767 0.48223 0.0
H501 H 0.91665 0.27723 0.49796 0.0
C502 C 0.83973 0.23781 0.48067 0.0
C503 C 0.80103 0.21946 0.46931 0.0
C504 C 0.86679 0.27543 0.47311 0.0
C505 C 0.78848 0.2406 0.45107 0.0
C506 C 0.81485 0.2785 0.4437 0.0
C507 C 0.88293 0.33111 0.44571 0.0
C508 C 0.92401 0.34612 0.4553 0.0
C509 C 0.85453 0.29554 0.45427 0.0
C510 C 0.93518 0.32703 0.47458 0.0
C511 C 0.90673 0.29216 0.48347 0.0
H512 H 0.65768 0.69338 0.84709 0.0
H513 H 0.51994 0.65901 0.84064 0.0
H514 H 0.51724 0.73555 0.83566 0.0
H515 H 0.554 0.80994 0.82764 0.0
H516 H 0.69152 0.84513 0.8316 0.0
H517 H 0.69449 0.77135 0.84335 0.0
C518 C 0.62711 0.70295 0.84517 0.0
C519 C 0.58911 0.67047 0.84407 0.0
C520 C 0.62574 0.74724 0.84169 0.0
C521 C 0.54969 0.68328 0.84132 0.0
C522 C 0.54803 0.72704 0.83845 0.0
C523 C 0.58446 0.80178 0.83187 0.0
C524 C 0.62242 0.83289 0.82917 0.0
C525 C 0.58584 0.75901 0.83783 0.0
C526 C 0.66188 0.82182 0.83404 0.0
C527 C 0.66354 0.77949 0.8405 0.0
H528 H 0.95861 0.58984 0.15246 0.0
H529 H 0.94459 0.44894 0.1482 0.0
H530 H 0.86747 0.43995 0.14285 0.0
H531 H 0.80356 0.47157 0.13683 0.0
H532 H 0.8153 0.61169 0.14259 0.0
H533 H 0.89256 0.62141 0.15025 0.0
C534 C 0.93866 0.55718 0.15045 0.0
C535 C 0.95807 0.52015 0.15056 0.0
C536 C 0.89341 0.552 0.14784 0.0
C537 C 0.93115 0.47816 0.1482 0.0
C538 C 0.88673 0.47288 0.14512 0.0
C539 C 0.8228 0.50417 0.14049 0.0
C540 C 0.80319 0.5408 0.13964 0.0
C541 C 0.86742 0.50946 0.14471 0.0
C542 C 0.82908 0.58286 0.14376 0.0
C543 C 0.87353 0.58842 0.14782 0.0
H544 H 0.30339 0.79263 0.52371 0.0
H545 H 0.41051 0.74016 0.49953 0.0
H546 H 0.36155 0.67464 0.48415 0.0
H547 H 0.28812 0.63394 0.47582 0.0
H548 H 0.18127 0.68493 0.50114 0.0
H549 H 0.23042 0.74885 0.51837 0.0
C550 C 0.31618 0.76653 0.5155 0.0
C551 C 0.36062 0.77173 0.51255 0.0
C552 C 0.28788 0.72865 0.50688 0.0
C553 C 0.37642 0.73759 0.5016 0.0
C554 C 0.34847 0.69995 0.4929 0.0
C555 C 0.27574 0.659 0.48524 0.0
C556 C 0.23128 0.65504 0.48714 0.0
C557 C 0.30413 0.69551 0.49509 0.0
C558 C 0.21545 0.68728 0.49959 0.0
C559 C 0.2435 0.72389 0.50932 0.0
H560 H 0.626 0.38627 0.85211 0.0
H561 H 0.51097 0.37307 0.81178 0.0
H562 H 0.50609 0.29429 0.80724 0.0
H563 H 0.53627 0.22956 0.81256 0.0
H564 H 0.65208 0.24097 0.8517 0.0
H565 H 0.65414 0.31949 0.85936 0.0
C566 C 0.5997 0.36613 0.84246 0.0
C567 C 0.56914 0.38599 0.83214 0.0
C568 C 0.59706 0.32035 0.83976 0.0
C569 C 0.53521 0.35911 0.81979 0.0
C570 C 0.53228 0.31385 0.81718 0.0
C571 C 0.56188 0.24916 0.82289 0.0
C572 C 0.59422 0.22947 0.83135 0.0
C573 C 0.56332 0.29424 0.82677 0.0
C574 C 0.62668 0.25519 0.84506 0.0
C575 C 0.62807 0.30021 0.84925 0.0
H576 H 0.5439 0.82946 0.51031 0.0
H577 H 0.68083 0.87713 0.51321 0.0
H578 H 0.69141 0.80304 0.51921 0.0
H579 H 0.6612 0.72653 0.52826 0.0
H580 H 0.52469 0.67849 0.5247 0.0
H581 H 0.51431 0.75056 0.51396 0.0
C582 C 0.57607 0.82348 0.51195 0.0
C583 C 0.61152 0.85883 0.51162 0.0
C584 C 0.58192 0.78069 0.51526 0.0
C585 C 0.65302 0.85051 0.51344 0.0
C586 C 0.65909 0.80816 0.51696 0.0
C587 C 0.62938 0.73165 0.52438 0.0
C588 C 0.59374 0.69747 0.52701 0.0
C589 C 0.62376 0.77325 0.51848 0.0
C590 C 0.55251 0.70431 0.52239 0.0
C591 C 0.54661 0.7456 0.51651 0.0
H592 H 0.84377 0.40979 0.85677 0.0
H593 H 0.84615 0.51306 0.81142 0.0
H594 H 0.92232 0.5174 0.80561 0.0
H595 H 0.98949 0.50675 0.82189 0.0
H596 H 0.98819 0.40525 0.86819 0.0
H597 H 0.91033 0.38413 0.86455 0.0
C598 C 0.8608 0.43205 0.84502 0.0
C599 C 0.83993 0.46182 0.83499 0.0
C600 C 0.90486 0.43512 0.84218 0.0
C601 C 0.86177 0.49005 0.81947 0.0
C602 C 0.90542 0.4928 0.81627 0.0
C603 C 0.97253 0.47851 0.83031 0.0
C604 C 0.99425 0.45884 0.84603 0.0
C605 C 0.92773 0.46765 0.82873 0.0
C606 C 0.97183 0.42182 0.85651 0.0
C607 C 0.92727 0.41 0.85461 0.0
H608 H 0.32784 0.77084 0.14529 0.0
H609 H 0.24575 0.823 0.19115 0.0
H610 H 0.30565 0.88122 0.20395 0.0
H611 H 0.38176 0.91458 0.2038 0.0
H612 H 0.46578 0.86117 0.15966 0.0
H613 H 0.40455 0.80713 0.14392 0.0
C614 C 0.32309 0.79533 0.15788 0.0
C615 C 0.28257 0.79241 0.16743 0.0
C616 C 0.35793 0.82852 0.1654 0.0
C617 C 0.2768 0.82418 0.18381 0.0
C618 C 0.31097 0.85757 0.19107 0.0
C619 C 0.38674 0.89111 0.19073 0.0
C620 C 0.42836 0.89152 0.18313 0.0
C621 C 0.35177 0.85954 0.18228 0.0
C622 C 0.43407 0.86166 0.16577 0.0
C623 C 0.39912 0.83051 0.15691 0.0
H624 H 0.62336 0.15314 0.49879 0.0
H625 H 0.51803 0.11425 0.543 0.0
H626 H 0.50939 0.18994 0.54736 0.0
H627 H 0.5345 0.26772 0.54086 0.0
H628 H 0.64073 0.30846 0.49777 0.0
H629 H 0.64545 0.23148 0.49019 0.0
C630 C 0.59837 0.16117 0.50929 0.0
C631 C 0.57169 0.12789 0.52073 0.0
C632 C 0.59353 0.2051 0.5118 0.0
C633 C 0.53926 0.139 0.5341 0.0
C634 C 0.53419 0.18237 0.5366 0.0
C635 C 0.55839 0.25968 0.5296 0.0
C636 C 0.58745 0.29368 0.52002 0.0
C637 C 0.56151 0.2157 0.52582 0.0
C638 C 0.61784 0.28284 0.50523 0.0
C639 C 0.62082 0.23887 0.50111 0.0
H640 H 0.4443 0.69318 0.83199 0.0
H641 H 0.36426 0.68177 0.77324 0.0
H642 H 0.31699 0.7233 0.79253 0.0
H643 H 0.28916 0.74335 0.82837 0.0
H644 H 0.36334 0.73965 0.88821 0.0
H645 H 0.42358 0.72757 0.86624 0.0
C646 C 0.41778 0.70185 0.8231 0.0
C647 C 0.40748 0.68449 0.80134 0.0
C648 C 0.38939 0.72295 0.83474 0.0
C649 C 0.37251 0.69482 0.79005 0.0
C650 C 0.34542 0.71826 0.80114 0.0
C651 C 0.31892 0.74095 0.83658 0.0
C652 C 0.32084 0.74019 0.85992 0.0
C653 C 0.35194 0.72954 0.82391 0.0
C654 C 0.36033 0.73951 0.87032 0.0
C655 C 0.39474 0.73178 0.85772 0.0
H656 H 0.89906 0.22803 0.17553 0.0
H657 H 0.88301 0.33544 0.22036 0.0
H658 H 0.81814 0.29041 0.23459 0.0
H659 H 0.76744 0.21992 0.23538 0.0
H660 H 0.7826 0.1121 0.19074 0.0
H661 H 0.84559 0.15829 0.17489 0.0
C662 C 0.88105 0.24179 0.18819 0.0
C663 C 0.89627 0.28497 0.19703 0.0
C664 C 0.84355 0.21568 0.1963 0.0
C665 C 0.87262 0.30207 0.21357 0.0
C666 C 0.83534 0.27643 0.22164 0.0
C667 C 0.78457 0.2065 0.22219 0.0
C668 C 0.77063 0.16252 0.21441 0.0
C669 C 0.82086 0.23304 0.21336 0.0
C670 C 0.79259 0.1459 0.19698 0.0
C671 C 0.82875 0.17222 0.18801 0.0
H672 H 1.08027 0.57312 0.10009 0.0
H673 H 0.15492 0.47512 0.08482 0.0
H674 H 0.17397 0.50712 0.04913 0.0
H675 H 0.163 0.55802 0.0208 0.0
H676 H 1.08535 0.65328 0.03512 0.0
H677 H 1.07492 0.62849 0.07307 0.0
C678 C 0.101 0.55904 0.08901 0.0
C679 C 0.11576 0.52154 0.09485 0.0
C680 C 0.11166 0.57753 0.06855 0.0
C681 C 0.1428 0.50371 0.08049 0.0
C682 C 0.15384 0.52209 0.06016 0.0
C683 C 0.14513 0.57424 0.03259 0.0
C684 C 0.12557 0.60778 0.02561 0.0
C685 C 0.13778 0.55844 0.05386 0.0
C686 C 0.10135 0.62801 0.04053 0.0
C687 C 0.09493 0.61339 0.06202 0.0
H688 H 0.50815 0.01963 0.44714 0.0
H689 H 0.62419 0.96994 0.45241 0.0
H690 H 0.63542 0.97704 0.41256 0.0
H691 H 0.61013 0.99409 0.37582 0.0
H692 H 0.49173 0.03928 0.37053 0.0
H693 H 0.48346 0.03744 0.41078 0.0
C694 C 0.53595 1.01048 0.43956 0.0
C695 C 0.56536 0.99442 0.45263 0.0
C696 C 0.54169 0.01383 0.41664 0.0
C697 C 0.60122 0.9826 0.44265 0.0
C698 C 0.6076 0.98657 0.41988 0.0
C699 C 0.58289 1.00403 0.38361 0.0
C700 C 0.5516 0.0169 0.37041 0.0
C701 C 0.57784 1.00179 0.40667 0.0
C702 C 0.51608 0.02918 0.38049 0.0
C703 C 0.51134 0.02807 0.40343 0.0
H704 H 0.57351 0.48217 0.77411 0.0
H705 H 0.67782 0.59499 0.77479 0.0
H706 H 0.67702 0.59197 0.73412 0.0
H707 H 0.64795 0.55545 0.69842 0.0
H708 H 0.54341 0.44278 0.69827 0.0
H709 H 0.54284 0.44766 0.73876 0.0
C710 C 0.59588 0.50628 0.76534 0.0
C711 C 0.62568 0.53873 0.77731 0.0
C712 C 0.5952 0.5043 0.7421 0.0
C713 C 0.65464 0.56964 0.76583 0.0
C714 C 0.65416 0.56795 0.74262 0.0
C715 C 0.62475 0.53236 0.70728 0.0
C716 C 0.59598 0.49863 0.69542 0.0
C717 C 0.62472 0.53523 0.73059 0.0
C718 C 0.5663 0.46863 0.70708 0.0
C719 C 0.56585 0.47147 0.7302 0.0
H720 H 0.56228 0.02238 0.57849 0.0
H721 H 0.67237 0.96255 0.58272 0.0
H722 H 0.66662 0.96214 0.62308 0.0
H723 H 0.63314 0.98312 0.65731 0.0
H724 H 0.52332 0.04339 0.65317 0.0
H725 H 0.52615 0.03937 0.61267 0.0
C726 C 0.58483 1.00904 0.58827 0.0
C727 C 0.61793 0.9929 0.57772 0.0
C728 C 0.58151 1.00918 0.61148 0.0
C729 C 0.64677 0.97543 0.59051 0.0
C730 C 0.64351 0.97519 0.61358 0.0
C731 C 0.60937 0.99465 0.64753 0.0
C732 C 0.57824 0.01376 0.65824 0.0
C733 C 0.61138 0.99253 0.62427 0.0
C734 C 0.54798 0.02908 0.64533 0.0
C735 C 0.5495 0.0267 0.62218 0.0
H736 H 0.59513 0.48866 0.89741 0.0
H737 H 0.47807 0.53683 0.89762 0.0
H738 H 0.47708 0.5369 0.9383 0.0
H739 H 0.51057 0.52488 0.97348 0.0
H740 H 0.62425 0.46966 0.97309 0.0
H741 H 0.62632 0.47203 0.93279 0.0
C742 C 0.56965 0.49931 0.90647 0.0
C743 C 0.53699 0.51318 0.89483 0.0
C744 C 0.56892 0.49833 0.92973 0.0
C745 C 0.50348 0.52609 0.90646 0.0
C746 C 0.50302 0.5262 0.92963 0.0
C747 C 0.53542 0.51245 0.9647 0.0
C748 C 0.56726 0.49721 0.9766 0.0
C749 C 0.53563 0.51244 0.94143 0.0
C750 C 0.59973 0.48245 0.96464 0.0
C751 C 0.60077 0.48338 0.94149 0.0
H752 H 0.15281 0.51233 0.21991 0.0
H753 H 1.03274 0.55446 0.22583 0.0
H754 H 1.03231 0.54275 0.26565 0.0
H755 H 1.06811 0.52471 0.29902 0.0
H756 H 0.19139 0.48933 0.29408 0.0
H757 H 0.18895 0.49438 0.25361 0.0
C758 C 0.12642 0.51843 0.22996 0.0
C759 C 0.09274 0.53403 0.22014 0.0
C760 C 0.12726 0.51322 0.25295 0.0
C761 C 1.05896 0.54249 0.2332 0.0
C762 C 1.05874 0.53586 0.2559 0.0
C763 C 0.09418 0.5177 0.28899 0.0
C764 C 0.12973 0.50641 0.2993 0.0
C765 C 0.09301 0.52188 0.26599 0.0
C766 C 0.16377 0.49811 0.28635 0.0
C767 C 0.16231 0.50093 0.26329 0.0
loop_
_geom_bond_atom_site_label_1
_geom_bond_atom_site_label_2
_geom_bond_distance
_geom_bond_site_symmetry_2
_ccdc_geom_bond_type
Nd0 C2 2.836 . S
Nd0 O20 2.500 . S
Nd0 O21 2.492 . S
Nd0 O22 2.487 . S
Nd0 O23 2.682 . S
Nd0 O24 2.410 . S
Nd0 O29 2.414 . S
Nd0 O31 2.424 1_455 S
Nd1 C11 2.836 . S
Nd1 O23 2.414 1_655 S
Nd1 O25 2.424 1_655 S
Nd1 O26 2.500 . S
Nd1 O27 2.492 . S
Nd1 O28 2.487 . S
Nd1 O29 2.682 1_655 S
Nd1 O30 2.410 . S
C2 Nd0 2.836 . S
C2 C3 1.498 . S
C2 O20 1.258 . S
C2 O21 1.239 . S
C3 C2 1.498 . S
C3 C4 1.366 . S
C3 C8 1.407 . S
C4 C3 1.366 . S
C4 C5 1.392 . S
C4 H32 0.930 . S
C5 C4 1.392 . S
C5 C6 1.398 . S
C5 H33 0.929 . S
C6 C5 1.398 . S
C6 C7 1.352 . S
C7 C6 1.352 . S
C7 C8 1.384 . S
C7 H34 0.930 . S
C8 C3 1.407 . S
C8 C7 1.384 . S
C8 H35 0.929 . S
C9 O22 1.241 . S
C9 O23 1.273 . S
C10 O24 1.251 . S
C10 O25 1.268 . S
C11 Nd1 2.836 . S
C11 C12 1.498 . S
C11 O26 1.258 . S
C11 O27 1.239 . S
C12 C11 1.498 . S
C12 C13 1.366 . S
C12 C17 1.407 . S
C13 C12 1.366 . S
C13 C14 1.392 . S
C13 H36 0.930 . S
C14 C13 1.392 . S
C14 C15 1.398 . S
C14 H37 0.929 . S
C15 C14 1.398 . S
C15 C16 1.352 . S
C16 C15 1.352 . S
C16 C17 1.384 . S
C16 H38 0.930 . S
C17 C12 1.407 . S
C17 C16 1.384 . S
C17 H39 0.929 . S
C18 O28 1.238 1_455 S
C18 O29 1.273 . S
C19 O30 1.251 . S
C19 O31 1.268 . S
O20 Nd0 2.500 . S
O20 C2 1.258 . S
O21 Nd0 2.492 . S
O21 C2 1.239 . S
O22 Nd0 2.487 . S
O22 C9 1.241 . S
O23 Nd0 2.682 . S
O23 Nd1 2.414 1_455 S
O23 C9 1.273 . S
O24 Nd0 2.410 . S
O24 C10 1.251 . S
O25 Nd1 2.424 1_455 S
O25 C10 1.268 . S
O26 Nd1 2.500 . S
O26 C11 1.258 . S
O27 Nd1 2.492 . S
O27 C11 1.239 . S
O28 Nd1 2.487 . S
O28 C18 1.238 1_655 S
O29 Nd0 2.414 . S
O29 Nd1 2.682 1_455 S
O29 C18 1.273 . S
O30 Nd1 2.410 . S
O30 C19 1.251 . S
O31 Nd0 2.424 1_655 S
O31 C19 1.268 . S
H32 C4 0.930 . S
H33 C5 0.929 . S
H34 C7 0.930 . S
H35 C8 0.929 . S
H36 C13 0.930 . S
H37 C14 0.929 . S
H38 C16 0.930 . S
H39 C17 0.929 . S
Nd40 C42 2.838 . S
Nd40 O60 2.502 . S
Nd40 O61 2.494 . S
Nd40 O62 2.487 . S
Nd40 O63 2.682 1_565 S
Nd40 O64 2.413 . S
Nd40 O69 2.415 1_565 S
Nd40 O71 2.421 1_565 S
Nd41 C51 2.836 . S
Nd41 O63 2.414 . S
Nd41 O65 2.424 1_545 S
Nd41 O66 2.500 . S
Nd41 O67 2.492 . S
Nd41 O68 2.487 . S
Nd41 O69 2.682 . S
Nd41 O70 2.410 . S
C42 Nd40 2.838 . S
C42 C43 1.498 . S
C42 O60 1.258 . S
C42 O61 1.239 . S
C43 C42 1.498 . S
C43 C44 1.366 . S
C43 C48 1.407 . S
C44 C43 1.366 . S
C44 C45 1.392 . S
C44 H72 0.930 . S
C45 C44 1.392 . S
C45 C46 1.398 . S
C45 H73 0.929 . S
C46 C45 1.398 . S
C46 C47 1.352 . S
C47 C46 1.352 . S
C47 C48 1.384 . S
C47 H74 0.930 . S
C48 C43 1.407 . S
C48 C47 1.384 . S
C48 H75 0.929 . S
C49 O62 1.241 1_545 S
C49 O63 1.273 . S
C50 O64 1.251 . S
C50 O65 1.268 . S
C51 Nd41 2.836 . S
C51 C52 1.498 . S
C51 O66 1.258 . S
C51 O67 1.239 . S
C52 C51 1.498 . S
C52 C53 1.366 . S
C52 C57 1.407 . S
C53 C52 1.366 . S
C53 C54 1.392 . S
C53 H76 0.930 . S
C54 C53 1.392 . S
C54 C55 1.398 . S
C54 H77 0.929 . S
C55 C54 1.398 . S
C55 C56 1.352 . S
C56 C55 1.352 . S
C56 C57 1.384 . S
C56 H78 0.930 . S
C57 C52 1.407 . S
C57 C56 1.384 . S
C57 H79 0.929 . S
C58 O68 1.241 . S
C58 O69 1.273 . S
C59 O70 1.251 . S
C59 O71 1.268 . S
O60 Nd40 2.502 . S
O60 C42 1.258 . S
O61 Nd40 2.494 . S
O61 C42 1.239 . S
O62 Nd40 2.487 . S
O62 C49 1.241 1_565 S
O63 Nd40 2.682 1_545 S
O63 Nd41 2.414 . S
O63 C49 1.273 . S
O64 Nd40 2.413 . S
O64 C50 1.251 . S
O65 Nd41 2.424 1_565 S
O65 C50 1.268 . S
O66 Nd41 2.500 . S
O66 C51 1.258 . S
O67 Nd41 2.492 . S
O67 C51 1.239 . S
O68 Nd41 2.487 . S
O68 C58 1.241 . S
O69 Nd40 2.415 1_545 S
O69 Nd41 2.682 . S
O69 C58 1.273 . S
O70 Nd41 2.410 . S
O70 C59 1.251 . S
O71 Nd40 2.421 1_545 S
O71 C59 1.268 . S
H72 C44 0.930 . S
H73 C45 0.929 . S
H74 C47 0.930 . S
H75 C48 0.929 . S
H76 C53 0.930 . S
H77 C54 0.929 . S
H78 C56 0.930 . S
H79 C57 0.929 . S
Nd80 C82 2.836 . S
Nd80 O100 2.500 . S
Nd80 O101 2.492 . S
Nd80 O102 2.487 . S
Nd80 O103 2.682 . S
Nd80 O104 2.410 . S
Nd80 O109 2.414 . S
Nd80 O111 2.424 . S
Nd81 C91 2.836 . S
Nd81 O103 2.414 . S
Nd81 O105 2.424 . S
Nd81 O106 2.500 . S
Nd81 O107 2.492 . S
Nd81 O108 2.487 . S
Nd81 O109 2.682 . S
Nd81 O110 2.410 . S
C82 Nd80 2.836 . S
C82 C83 1.498 . S
C82 O100 1.258 . S
C82 O101 1.239 . S
C83 C82 1.498 . S
C83 C84 1.366 . S
C83 C88 1.407 . S
C84 C83 1.366 . S
C84 C85 1.392 . S
C84 H112 0.930 . S
C85 C84 1.392 . S
C85 C86 1.398 . S
C85 H113 0.929 . S
C86 C85 1.398 . S
C86 C87 1.352 . S
C87 C86 1.352 . S
C87 C88 1.384 . S
C87 H114 0.930 . S
C88 C83 1.407 . S
C88 C87 1.384 . S
C88 H115 0.929 . S
C89 O102 1.241 . S
C89 O103 1.273 . S
C90 O104 1.251 . S
C90 O105 1.268 . S
C91 Nd81 2.836 . S
C91 C92 1.498 . S
C91 O106 1.258 . S
C91 O107 1.239 . S
C92 C91 1.498 . S
C92 C93 1.366 . S
C92 C97 1.407 . S
C93 C92 1.366 . S
C93 C94 1.392 . S
C93 H116 0.930 . S
C94 C93 1.392 . S
C94 C95 1.398 . S
C94 H117 0.929 . S
C95 C94 1.398 . S
C95 C96 1.352 . S
C96 C95 1.352 . S
C96 C97 1.384 . S
C96 H118 0.930 . S
C97 C92 1.407 . S
C97 C96 1.384 . S
C97 H119 0.929 . S
C98 O108 1.241 . S
C98 O109 1.273 . S
C99 O110 1.251 . S
C99 O111 1.268 . S
O100 Nd80 2.500 . S
O100 C82 1.258 . S
O101 Nd80 2.492 . S
O101 C82 1.239 . S
O102 Nd80 2.487 . S
O102 C89 1.241 . S
O103 Nd80 2.682 . S
O103 Nd81 2.414 . S
O103 C89 1.273 . S
O104 Nd80 2.410 . S
O104 C90 1.251 . S
O105 Nd81 2.424 . S
O105 C90 1.268 . S
O106 Nd81 2.500 . S
O106 C91 1.258 . S
O107 Nd81 2.492 . S
O107 C91 1.239 . S
O108 Nd81 2.487 . S
O108 C98 1.241 . S
O109 Nd80 2.414 . S
O109 Nd81 2.682 . S
O109 C98 1.273 . S
O110 Nd81 2.410 . S
O110 C99 1.251 . S
O111 Nd80 2.424 . S
O111 C99 1.268 . S
H112 C84 0.930 . S
H113 C85 0.929 . S
H114 C87 0.930 . S
H115 C88 0.929 . S
H116 C93 0.930 . S
H117 C94 0.929 . S
H118 C96 0.930 . S
H119 C97 0.929 . S
C120 C121 1.391 . S
C120 C124 1.391 . S
C120 H162 0.948 . S
C121 C120 1.391 . S
C121 C122 1.391 . S
C122 C121 1.391 . S
C122 H178 0.947 . S
C122 C179 1.392 . S
C123 C124 1.391 . S
C123 C127 1.397 . S
C123 C179 1.419 . S
C124 C120 1.391 . S
C124 C123 1.391 . S
C124 C125 1.399 . S
C125 C124 1.399 . S
C125 C128 1.396 . S
C125 C137 1.453 . S
C125 C138 1.684 . S
H126 C150 0.948 . S
C127 C123 1.397 . S
C127 C128 1.394 . S
C127 C146 1.723 . S
C128 C125 1.396 . S
C128 C127 1.394 . S
C128 C158 1.723 1_545 S
H129 C152 0.947 . S
H130 C153 0.948 . S
H131 C159 0.982 . S
H132 C160 0.979 . S
H133 C160 0.980 . S
H134 C160 0.983 . S
H135 C159 0.979 . S
H136 C159 0.977 . S
C137 C125 1.453 . S
C137 H166 0.982 . S
C137 H167 0.979 . S
C137 H168 0.977 1_545 S
C138 C125 1.684 . S
C138 H163 0.979 . S
C138 H164 0.980 . S
C138 H165 0.983 . S
C139 C140 1.391 . S
C139 C144 1.391 . S
C139 H169 0.948 . S
C140 C139 1.391 . S
C140 C141 1.391 . S
C141 C140 1.391 . S
C141 C142 1.392 1_545 S
C141 H170 0.947 1_545 S
C142 C141 1.392 1_565 S
C142 C143 1.419 1_565 S
C142 H171 0.948 . S
C143 C142 1.419 1_545 S
C143 C144 1.391 . S
C143 C147 1.397 . S
C144 C139 1.391 . S
C144 C143 1.391 . S
C144 C145 1.399 . S
C145 C144 1.399 . S
C145 C146 1.396 . S
C145 C148 1.453 . S
C145 C149 1.684 . S
C146 C127 1.723 . S
C146 C145 1.396 . S
C146 C147 1.394 . S
C147 C143 1.397 . S
C147 C146 1.394 . S
C147 C157 1.723 1_545 S
C148 C145 1.453 . S
C148 H172 0.982 . S
C148 H173 0.979 . S
C148 H174 0.977 . S
C149 C145 1.684 . S
C149 H175 0.979 . S
C149 H176 0.980 . S
C149 H177 0.983 . S
C150 H126 0.948 . S
C150 C151 1.391 . S
C150 C155 1.391 . S
C151 C150 1.391 . S
C151 C152 1.391 . S
C152 H129 0.947 . S
C152 C151 1.391 . S
C152 C153 1.392 . S
C153 H130 0.948 . S
C153 C152 1.392 . S
C153 C154 1.419 . S
C154 C153 1.419 . S
C154 C155 1.391 . S
C154 C158 1.397 . S
C155 C150 1.391 . S
C155 C154 1.391 . S
C155 C156 1.399 . S
C156 C155 1.399 . S
C156 C157 1.396 . S
C156 C159 1.453 . S
C156 C160 1.684 . S
C157 C147 1.723 1_565 S
C157 C156 1.396 . S
C157 C158 1.394 . S
C158 C128 1.723 1_565 S
C158 C154 1.397 . S
C158 C157 1.394 . S
C159 H131 0.982 . S
C159 H135 0.979 . S
C159 H136 0.977 . S
C159 C156 1.453 . S
C160 H132 0.979 . S
C160 H133 0.980 . S
C160 H134 0.983 . S
C160 C156 1.684 . S
H161 C179 0.948 . S
H162 C120 0.948 . S
H163 C138 0.979 . S
H164 C138 0.980 . S
H165 C138 0.983 . S
H166 C137 0.982 . S
H167 C137 0.979 . S
H168 C137 0.977 1_565 S
H169 C139 0.948 . S
H170 C141 0.947 1_565 S
H171 C142 0.948 . S
H172 C148 0.982 . S
H173 C148 0.979 . S
H174 C148 0.977 . S
H175 C149 0.979 . S
H176 C149 0.980 . S
H177 C149 0.983 . S
H178 C122 0.947 . S
C179 C122 1.392 . S
C179 C123 1.419 . S
C179 H161 0.948 . S
C180 C181 1.391 . S
C180 C184 1.391 . S
C180 H222 0.948 . S
C181 C180 1.391 . S
C181 C182 1.391 . S
C182 C181 1.391 . S
C182 H238 0.947 . S
C182 C239 1.392 . S
C183 C184 1.391 . S
C183 C187 1.397 . S
C183 C239 1.419 . S
C184 C180 1.391 . S
C184 C183 1.391 . S
C184 C185 1.399 . S
C185 C184 1.399 . S
C185 C188 1.396 . S
C185 C197 1.453 . S
C185 C198 1.684 . S
H186 C210 0.948 . S
C187 C183 1.397 . S
C187 C188 1.394 . S
C187 C206 1.723 . S
C188 C185 1.396 . S
C188 C187 1.394 . S
C188 C218 1.723 . S
H189 C212 0.947 . S
H190 C213 0.948 . S
H191 C219 0.982 . S
H192 C220 0.979 . S
H193 C220 0.980 . S
H194 C220 0.983 . S
H195 C219 0.979 . S
H196 C219 0.977 . S
C197 C185 1.453 . S
C197 H226 0.982 . S
C197 H227 0.979 . S
C197 H228 0.977 . S
C198 C185 1.684 . S
C198 H223 0.979 . S
C198 H224 0.980 . S
C198 H225 0.983 . S
C199 C200 1.391 . S
C199 C204 1.391 . S
C199 H229 0.948 . S
C200 C199 1.391 . S
C200 C201 1.391 . S
C201 C200 1.391 . S
C201 C202 1.392 . S
C201 H230 0.947 . S
C202 C201 1.392 . S
C202 C203 1.419 . S
C202 H231 0.948 . S
C203 C202 1.419 . S
C203 C204 1.391 . S
C203 C207 1.397 . S
C204 C199 1.391 . S
C204 C203 1.391 . S
C204 C205 1.399 . S
C205 C204 1.399 . S
C205 C206 1.396 . S
C205 C208 1.453 . S
C205 C209 1.684 . S
C206 C187 1.723 . S
C206 C205 1.396 . S
C206 C207 1.394 . S
C207 C203 1.397 . S
C207 C206 1.394 . S
C207 C217 1.723 . S
C208 C205 1.453 . S
C208 H232 0.982 . S
C208 H233 0.979 . S
C208 H234 0.977 . S
C209 C205 1.684 . S
C209 H235 0.979 . S
C209 H236 0.980 . S
C209 H237 0.983 . S
C210 H186 0.948 . S
C210 C211 1.391 . S
C210 C215 1.391 . S
C211 C210 1.391 . S
C211 C212 1.391 . S
C212 H189 0.947 . S
C212 C211 1.391 . S
C212 C213 1.392 . S
C213 H190 0.948 . S
C213 C212 1.392 . S
C213 C214 1.419 . S
C214 C213 1.419 . S
C214 C215 1.391 . S
C214 C218 1.397 . S
C215 C210 1.391 . S
C215 C214 1.391 . S
C215 C216 1.399 . S
C216 C215 1.399 . S
C216 C217 1.396 . S
C216 C219 1.453 . S
C216 C220 1.684 . S
C217 C207 1.723 . S
C217 C216 1.396 . S
C217 C218 1.394 . S
C218 C188 1.723 . S
C218 C214 1.397 . S
C218 C217 1.394 . S
C219 H191 0.982 . S
C219 H195 0.979 . S
C219 H196 0.977 . S
C219 C216 1.453 . S
C220 H192 0.979 . S
C220 H193 0.980 . S
C220 H194 0.983 . S
C220 C216 1.684 . S
H221 C239 0.948 . S
H222 C180 0.948 . S
H223 C198 0.979 . S
H224 C198 0.980 . S
H225 C198 0.983 . S
H226 C197 0.982 . S
H227 C197 0.979 . S
H228 C197 0.977 . S
H229 C199 0.948 . S
H230 C201 0.947 . S
H231 C202 0.948 . S
H232 C208 0.982 . S
H233 C208 0.979 . S
H234 C208 0.977 . S
H235 C209 0.979 . S
H236 C209 0.980 . S
H237 C209 0.983 . S
H238 C182 0.947 . S
C239 C182 1.392 . S
C239 C183 1.419 . S
C239 H221 0.948 . S
C240 C241 1.391 . S
C240 C244 1.391 . S
C240 H282 0.948 . S
C241 C240 1.391 . S
C241 C242 1.391 . S
C242 C241 1.391 . S
C242 H298 0.947 . S
C242 C299 1.392 . S
C243 C244 1.391 . S
C243 C247 1.397 . S
C243 C299 1.419 . S
C244 C240 1.391 . S
C244 C243 1.391 . S
C244 C245 1.399 . S
C245 C244 1.399 . S
C245 C248 1.396 . S
C245 C257 1.453 . S
C245 C258 1.684 . S
H246 C270 0.948 . S
C247 C243 1.397 . S
C247 C248 1.394 . S
C247 C266 1.723 . S
C248 C245 1.396 . S
C248 C247 1.394 . S
C248 C278 1.723 . S
H249 C272 0.947 . S
H250 C273 0.948 . S
H251 C279 0.982 . S
H252 C280 0.979 . S
H253 C280 0.980 . S
H254 C280 0.983 . S
H255 C279 0.979 . S
H256 C279 0.977 . S
C257 C245 1.453 . S
C257 H286 0.982 . S
C257 H287 0.979 . S
C257 H288 0.977 . S
C258 C245 1.684 . S
C258 H283 0.979 . S
C258 H284 0.980 . S
C258 H285 0.983 . S
C259 C260 1.391 1_556 S
C259 C264 1.391 . S
C259 H289 0.957 . S
C260 C259 1.391 1_554 S
C260 C261 1.391 1_454 S
C261 C260 1.391 1_656 S
C261 C262 1.392 . S
C261 H290 0.947 1_556 S
C262 C261 1.392 . S
C262 C263 1.419 1_655 S
C262 H291 0.948 . S
C263 C262 1.419 1_455 S
C263 C264 1.391 . S
C263 C267 1.397 . S
C264 C259 1.391 . S
C264 C263 1.391 . S
C264 C265 1.399 . S
C265 C264 1.399 . S
C265 C266 1.396 . S
C265 C268 1.453 . S
C265 C269 1.684 . S
C266 C247 1.723 . S
C266 C265 1.396 . S
C266 C267 1.394 . S
C267 C263 1.397 . S
C267 C266 1.394 . S
C267 C277 1.723 1_455 S
C268 C265 1.453 . S
C268 H292 0.982 . S
C268 H293 0.979 . S
C268 H294 0.977 . S
C269 C265 1.684 . S
C269 H295 0.979 . S
C269 H296 0.980 . S
C269 H297 0.983 . S
C270 H246 0.948 . S
C270 C271 1.391 . S
C270 C275 1.391 . S
C271 C270 1.391 . S
C271 C272 1.391 . S
C272 H249 0.947 . S
C272 C271 1.391 . S
C272 C273 1.392 . S
C273 H250 0.948 . S
C273 C272 1.392 . S
C273 C274 1.419 . S
C274 C273 1.419 . S
C274 C275 1.391 . S
C274 C278 1.397 1_655 S
C275 C270 1.391 . S
C275 C274 1.391 . S
C275 C276 1.399 . S
C276 C275 1.399 . S
C276 C277 1.396 . S
C276 C279 1.453 . S
C276 C280 1.684 . S
C277 C267 1.723 1_655 S
C277 C276 1.396 . S
C277 C278 1.394 1_655 S
C278 C248 1.723 . S
C278 C274 1.397 1_455 S
C278 C277 1.394 1_455 S
C279 H251 0.982 . S
C279 H255 0.979 . S
C279 H256 0.977 . S
C279 C276 1.453 . S
C280 H252 0.979 . S
C280 H253 0.980 . S
C280 H254 0.983 . S
C280 C276 1.684 . S
H281 C299 0.948 . S
H282 C240 0.948 . S
H283 C258 0.979 . S
H284 C258 0.980 . S
H285 C258 0.983 . S
H286 C257 0.982 . S
H287 C257 0.979 . S
H288 C257 0.977 . S
H289 C259 0.957 . S
H290 C261 0.947 1_554 S
H291 C262 0.948 . S
H292 C268 0.982 . S
H293 C268 0.979 . S
H294 C268 0.977 . S
H295 C269 0.979 . S
H296 C269 0.980 . S
H297 C269 0.983 . S
H298 C242 0.947 . S
C299 C242 1.392 . S
C299 C243 1.419 . S
C299 H281 0.948 . S
C300 C301 1.391 . S
C300 C304 1.391 . S
C300 H342 0.948 . S
C301 C300 1.391 . S
C301 C302 1.391 . S
C302 C301 1.391 . S
C302 H358 0.947 . S
C302 C359 1.392 . S
C303 C304 1.391 . S
C303 C307 1.397 . S
C303 C359 1.419 . S
C304 C300 1.391 . S
C304 C303 1.391 . S
C304 C305 1.399 . S
C305 C304 1.399 . S
C305 C308 1.396 . S
C305 C317 1.453 . S
C305 C318 1.684 . S
H306 C330 0.948 . S
C307 C303 1.397 . S
C307 C308 1.394 . S
C307 C326 1.723 . S
C308 C305 1.396 . S
C308 C307 1.394 . S
C308 C338 1.723 1_655 S
H309 C332 0.947 . S
H310 C333 0.948 . S
H311 C339 0.982 . S
H312 C340 0.979 . S
H313 C340 0.980 . S
H314 C340 0.983 . S
H315 C339 0.979 . S
H316 C339 0.977 . S
C317 C305 1.453 . S
C317 H346 0.982 1_655 S
C317 H347 0.979 . S
C317 H348 0.977 1_655 S
C318 C305 1.684 . S
C318 H343 0.979 . S
C318 H344 0.980 . S
C318 H345 0.983 . S
C319 C320 1.391 1_655 S
C319 C324 1.391 . S
C319 H349 0.948 . S
C320 C319 1.391 1_455 S
C320 C321 1.391 . S
C321 C320 1.391 . S
C321 C322 1.392 . S
C321 H350 0.947 . S
C322 C321 1.392 . S
C322 C323 1.419 . S
C322 H351 0.948 . S
C323 C322 1.419 . S
C323 C324 1.391 1_455 S
C323 C327 1.397 . S
C324 C319 1.391 . S
C324 C323 1.391 1_655 S
C324 C325 1.399 . S
C325 C324 1.399 . S
C325 C326 1.396 . S
C325 C328 1.453 . S
C325 C329 1.684 . S
C326 C307 1.723 . S
C326 C325 1.396 . S
C326 C327 1.394 1_655 S
C327 C323 1.397 . S
C327 C326 1.394 1_455 S
C327 C337 1.723 . S
C328 C325 1.453 . S
C328 H352 0.982 . S
C328 H353 0.979 . S
C328 H354 0.977 . S
C329 C325 1.684 . S
C329 H355 0.979 . S
C329 H356 0.980 . S
C329 H357 0.983 . S
C330 H306 0.948 . S
C330 C331 1.391 . S
C330 C335 1.391 . S
C331 C330 1.391 . S
C331 C332 1.391 . S
C332 H309 0.947 . S
C332 C331 1.391 . S
C332 C333 1.392 . S
C333 H310 0.948 . S
C333 C332 1.392 . S
C333 C334 1.419 . S
C334 C333 1.419 . S
C334 C335 1.391 . S
C334 C338 1.397 . S
C335 C330 1.391 . S
C335 C334 1.391 . S
C335 C336 1.399 . S
C336 C335 1.399 . S
C336 C337 1.396 . S
C336 C339 1.453 . S
C336 C340 1.684 . S
C337 C327 1.723 . S
C337 C336 1.396 . S
C337 C338 1.394 . S
C338 C308 1.723 1_455 S
C338 C334 1.397 . S
C338 C337 1.394 . S
C339 H311 0.982 . S
C339 H315 0.979 . S
C339 H316 0.977 . S
C339 C336 1.453 . S
C340 H312 0.979 . S
C340 H313 0.980 . S
C340 H314 0.983 . S
C340 C336 1.684 . S
H341 C359 0.948 . S
H342 C300 0.948 . S
H343 C318 0.979 . S
H344 C318 0.980 . S
H345 C318 0.983 . S
H346 C317 0.982 1_455 S
H347 C317 0.979 . S
H348 C317 0.977 1_455 S
H349 C319 0.948 . S
H350 C321 0.947 . S
H351 C322 0.948 . S
H352 C328 0.982 . S
H353 C328 0.979 . S
H354 C328 0.977 . S
H355 C329 0.979 . S
H356 C329 0.980 . S
H357 C329 0.983 . S
H358 C302 0.947 . S
C359 C302 1.392 . S
C359 C303 1.419 . S
C359 H341 0.948 . S
C360 C361 1.391 . S
C360 C364 1.391 . S
C360 H402 0.948 . S
C361 C360 1.391 . S
C361 C362 1.391 . S
C362 C361 1.391 . S
C362 H418 0.947 . S
C362 C419 1.392 . S
C363 C364 1.391 . S
C363 C367 1.397 . S
C363 C419 1.419 . S
C364 C360 1.391 . S
C364 C363 1.391 . S
C364 C365 1.399 . S
C365 C364 1.399 . S
C365 C368 1.396 . S
C365 C377 1.453 . S
C365 C378 1.684 . S
H366 C390 0.948 . S
C367 C363 1.397 . S
C367 C368 1.394 . S
C367 C386 1.723 . S
C368 C365 1.396 . S
C368 C367 1.394 . S
C368 C398 1.723 1_565 S
H369 C392 0.947 . S
H370 C393 0.948 . S
H371 C399 0.982 . S
H372 C400 0.979 . S
H373 C400 0.980 . S
H374 C400 0.983 . S
H375 C399 0.979 . S
H376 C399 0.977 . S
C377 C365 1.453 . S
C377 H406 0.987 1_565 S
C377 H407 0.979 . S
C377 H408 0.977 1_565 S
C378 C365 1.684 . S
C378 H403 0.979 . S
C378 H404 0.980 1_565 S
C378 H405 0.983 . S
C379 C380 1.391 1_565 S
C379 C384 1.391 . S
C379 H409 0.948 . S
C380 C379 1.391 1_545 S
C380 C381 1.391 . S
C381 C380 1.391 . S
C381 C382 1.392 . S
C381 H410 0.947 . S
C382 C381 1.392 . S
C382 C383 1.419 . S
C382 H411 0.948 . S
C383 C382 1.419 . S
C383 C384 1.391 1_545 S
C383 C387 1.397 . S
C384 C379 1.391 . S
C384 C383 1.391 1_565 S
C384 C385 1.399 . S
C385 C384 1.399 . S
C385 C386 1.396 . S
C385 C388 1.453 . S
C385 C389 1.684 . S
C386 C367 1.723 . S
C386 C385 1.396 . S
C386 C387 1.394 1_565 S
C387 C383 1.397 . S
C387 C386 1.394 1_545 S
C387 C397 1.723 . S
C388 C385 1.453 . S
C388 H412 0.982 . S
C388 H413 0.979 . S
C388 H414 0.977 . S
C389 C385 1.684 . S
C389 H415 0.979 . S
C389 H416 0.980 . S
C389 H417 0.983 . S
C390 H366 0.948 . S
C390 C391 1.391 . S
C390 C395 1.391 . S
C391 C390 1.391 . S
C391 C392 1.391 . S
C392 H369 0.947 . S
C392 C391 1.391 . S
C392 C393 1.392 . S
C393 H370 0.948 . S
C393 C392 1.392 . S
C393 C394 1.419 . S
C394 C393 1.419 . S
C394 C395 1.391 . S
C394 C398 1.397 . S
C395 C390 1.391 . S
C395 C394 1.391 . S
C395 C396 1.399 . S
C396 C395 1.399 . S
C396 C397 1.396 . S
C396 C399 1.453 . S
C396 C400 1.684 . S
C397 C387 1.723 . S
C397 C396 1.396 . S
C397 C398 1.394 . S
C398 C368 1.723 1_545 S
C398 C394 1.397 . S
C398 C397 1.394 . S
C399 H371 0.982 . S
C399 H375 0.979 . S
C399 H376 0.977 . S
C399 C396 1.453 . S
C400 H372 0.979 . S
C400 H373 0.980 . S
C400 H374 0.983 . S
C400 C396 1.684 . S
H401 C419 0.948 . S
H402 C360 0.948 . S
H403 C378 0.979 . S
H404 C378 0.980 1_545 S
H405 C378 0.983 . S
H406 C377 0.987 1_545 S
H407 C377 0.979 . S
H408 C377 0.977 1_545 S
H409 C379 0.948 . S
H410 C381 0.947 . S
H411 C382 0.948 . S
H412 C388 0.982 . S
H413 C388 0.979 . S
H414 C388 0.977 . S
H415 C389 0.979 . S
H416 C389 0.980 . S
H417 C389 0.983 . S
H418 C362 0.947 . S
C419 C362 1.392 . S
C419 C363 1.419 . S
C419 H401 0.948 . S
C420 C421 1.391 . S
C420 C424 1.391 . S
C420 H462 0.948 . S
C421 C420 1.391 . S
C421 C422 1.391 . S
C422 C421 1.391 . S
C422 H478 0.947 . S
C422 C479 1.392 . S
C423 C424 1.391 . S
C423 C427 1.397 . S
C423 C479 1.419 . S
C424 C420 1.391 . S
C424 C423 1.391 . S
C424 C425 1.399 . S
C425 C424 1.399 . S
C425 C428 1.396 . S
C425 C437 1.453 . S
C425 C438 1.684 . S
H426 C450 0.948 . S
C427 C423 1.397 . S
C427 C428 1.394 . S
C427 C446 1.723 . S
C428 C425 1.396 . S
C428 C427 1.394 . S
C428 C458 1.723 . S
H429 C452 0.947 . S
H430 C453 0.948 . S
H431 C459 0.982 . S
H432 C460 0.979 . S
H433 C460 0.980 . S
H434 C460 0.983 . S
H435 C459 0.979 . S
H436 C459 0.977 . S
C437 C425 1.453 . S
C437 H466 0.982 . S
C437 H467 0.979 . S
C437 H468 0.977 . S
C438 C425 1.684 . S
C438 H463 0.979 . S
C438 H464 0.980 . S
C438 H465 0.983 . S
C439 C440 1.391 . S
C439 C444 1.391 . S
C439 H469 0.948 . S
C440 C439 1.391 . S
C440 C441 1.391 . S
C441 C440 1.391 . S
C441 C442 1.392 . S
C441 H470 0.947 . S
C442 C441 1.392 . S
C442 C443 1.419 . S
C442 H471 0.948 . S
C443 C442 1.419 . S
C443 C444 1.391 . S
C443 C447 1.397 . S
C444 C439 1.391 . S
C444 C443 1.391 . S
C444 C445 1.399 . S
C445 C444 1.399 . S
C445 C446 1.396 . S
C445 C448 1.453 . S
C445 C449 1.684 . S
C446 C427 1.723 . S
C446 C445 1.396 . S
C446 C447 1.394 . S
C447 C443 1.397 . S
C447 C446 1.394 . S
C447 C457 1.723 . S
C448 C445 1.453 . S
C448 H472 0.982 . S
C448 H473 0.979 . S
C448 H474 0.977 . S
C449 C445 1.684 . S
C449 H475 0.979 . S
C449 H476 0.980 . S
C449 H477 0.983 . S
C450 H426 0.948 . S
C450 C451 1.391 . S
C450 C455 1.391 . S
C451 C450 1.391 . S
C451 C452 1.391 . S
C452 H429 0.947 . S
C452 C451 1.391 . S
C452 C453 1.392 . S
C453 H430 0.948 . S
C453 C452 1.392 . S
C453 C454 1.419 . S
C454 C453 1.419 . S
C454 C455 1.391 . S
C454 C458 1.397 . S
C455 C450 1.391 . S
C455 C454 1.391 . S
C455 C456 1.399 . S
C456 C455 1.399 . S
C456 C457 1.396 . S
C456 C459 1.453 . S
C456 C460 1.684 . S
C457 C447 1.723 . S
C457 C456 1.396 . S
C457 C458 1.394 . S
C458 C428 1.723 . S
C458 C454 1.397 . S
C458 C457 1.394 . S
C459 H431 0.982 . S
C459 H435 0.979 . S
C459 H436 0.977 . S
C459 C456 1.453 . S
C460 H432 0.979 . S
C460 H433 0.980 . S
C460 H434 0.983 . S
C460 C456 1.684 . S
H461 C479 0.948 . S
H462 C420 0.948 . S
H463 C438 0.979 . S
H464 C438 0.980 . S
H465 C438 0.983 . S
H466 C437 0.982 . S
H467 C437 0.979 . S
H468 C437 0.977 . S
H469 C439 0.948 . S
H470 C441 0.947 . S
H471 C442 0.948 . S
H472 C448 0.982 . S
H473 C448 0.979 . S
H474 C448 0.977 . S
H475 C449 0.979 . S
H476 C449 0.980 . S
H477 C449 0.983 . S
H478 C422 0.947 . S
C479 C422 1.392 . S
C479 C423 1.419 . S
C479 H461 0.948 . S
H480 C486 0.930 . S
H481 C489 0.930 . S
H482 C490 0.930 . S
H483 C491 0.930 . S
H484 C494 0.930 . S
H485 C495 0.930 . S
C486 H480 0.930 . S
C486 C487 1.355 . S
C486 C488 1.415 . S
C487 C486 1.355 . S
C487 C489 1.419 . S
C488 C486 1.415 . S
C488 C493 1.425 . S
C488 C495 1.409 . S
C489 H481 0.930 . S
C489 C487 1.419 . S
C489 C490 1.362 . S
C490 H482 0.930 . S
C490 C489 1.362 . S
C490 C493 1.409 . S
C491 H483 0.930 . S
C491 C492 1.355 . S
C491 C493 1.415 . S
C492 C491 1.355 . S
C492 C494 1.419 . S
C493 C488 1.425 . S
C493 C490 1.409 . S
C493 C491 1.415 . S
C494 H484 0.930 . S
C494 C492 1.419 . S
C494 C495 1.362 . S
C495 H485 0.930 . S
C495 C488 1.409 . S
C495 C494 1.362 . S
H496 C502 0.930 . S
H497 C505 0.930 . S
H498 C506 0.930 . S
H499 C507 0.930 . S
H500 C510 0.930 . S
H501 C511 0.930 . S
C502 H496 0.930 . S
C502 C503 1.355 . S
C502 C504 1.415 . S
C503 C502 1.355 . S
C503 C505 1.419 . S
C504 C502 1.415 . S
C504 C509 1.425 . S
C504 C511 1.409 . S
C505 H497 0.930 . S
C505 C503 1.419 . S
C505 C506 1.362 . S
C506 H498 0.930 . S
C506 C505 1.362 . S
C506 C509 1.409 . S
C507 H499 0.930 . S
C507 C508 1.355 . S
C507 C509 1.415 . S
C508 C507 1.355 . S
C508 C510 1.419 . S
C509 C504 1.425 . S
C509 C506 1.409 . S
C509 C507 1.415 . S
C510 H500 0.930 . S
C510 C508 1.419 . S
C510 C511 1.362 . S
C511 H501 0.930 . S
C511 C504 1.409 . S
C511 C510 1.362 . S
H512 C518 0.930 . S
H513 C521 0.930 . S
H514 C522 0.930 . S
H515 C523 0.930 . S
H516 C526 0.930 . S
H517 C527 0.930 . S
C518 H512 0.930 . S
C518 C519 1.355 . S
C518 C520 1.415 . S
C519 C518 1.355 . S
C519 C521 1.419 . S
C520 C518 1.415 . S
C520 C525 1.425 . S
C520 C527 1.409 . S
C521 H513 0.930 . S
C521 C519 1.419 . S
C521 C522 1.362 . S
C522 H514 0.930 . S
C522 C521 1.362 . S
C522 C525 1.409 . S
C523 H515 0.930 . S
C523 C524 1.355 . S
C523 C525 1.415 . S
C524 C523 1.355 . S
C524 C526 1.419 . S
C525 C520 1.425 . S
C525 C522 1.409 . S
C525 C523 1.415 . S
C526 H516 0.930 . S
C526 C524 1.419 . S
C526 C527 1.362 . S
C527 H517 0.930 . S
C527 C520 1.409 . S
C527 C526 1.362 . S
H528 C534 0.930 . S
H529 C537 0.930 . S
H530 C538 0.930 . S
H531 C539 0.930 . S
H532 C542 0.930 . S
H533 C543 0.930 . S
C534 H528 0.930 . S
C534 C535 1.355 . S
C534 C536 1.415 . S
C535 C534 1.355 . S
C535 C537 1.419 . S
C536 C534 1.415 . S
C536 C541 1.425 . S
C536 C543 1.409 . S
C537 H529 0.930 . S
C537 C535 1.419 . S
C537 C538 1.362 . S
C538 H530 0.930 . S
C538 C537 1.362 . S
C538 C541 1.409 . S
C539 H531 0.930 . S
C539 C540 1.355 . S
C539 C541 1.415 . S
C540 C539 1.355 . S
C540 C542 1.419 . S
C541 C536 1.425 . S
C541 C538 1.409 . S
C541 C539 1.415 . S
C542 H532 0.930 . S
C542 C540 1.419 . S
C542 C543 1.362 . S
C543 H533 0.930 . S
C543 C536 1.409 . S
C543 C542 1.362 . S
H544 C550 0.930 . S
H545 C553 0.930 . S
H546 C554 0.930 . S
H547 C555 0.930 . S
H548 C558 0.930 . S
H549 C559 0.930 . S
C550 H544 0.930 . S
C550 C551 1.355 . S
C550 C552 1.415 . S
C551 C550 1.355 . S
C551 C553 1.419 . S
C552 C550 1.415 . S
C552 C557 1.425 . S
C552 C559 1.409 . S
C553 H545 0.930 . S
C553 C551 1.419 . S
C553 C554 1.362 . S
C554 H546 0.930 . S
C554 C553 1.362 . S
C554 C557 1.409 . S
C555 H547 0.930 . S
C555 C556 1.355 . S
C555 C557 1.415 . S
C556 C555 1.355 . S
C556 C558 1.419 . S
C557 C552 1.425 . S
C557 C554 1.409 . S
C557 C555 1.415 . S
C558 H548 0.930 . S
C558 C556 1.419 . S
C558 C559 1.362 . S
C559 H549 0.930 . S
C559 C552 1.409 . S
C559 C558 1.362 . S
H560 C566 0.930 . S
H561 C569 0.930 . S
H562 C570 0.930 . S
H563 C571 0.930 . S
H564 C574 0.930 . S
H565 C575 0.930 . S
C566 H560 0.930 . S
C566 C567 1.355 . S
C566 C568 1.415 . S
C567 C566 1.355 . S
C567 C569 1.419 . S
C568 C566 1.415 . S
C568 C573 1.425 . S
C568 C575 1.409 . S
C569 H561 0.930 . S
C569 C567 1.419 . S
C569 C570 1.362 . S
C570 H562 0.930 . S
C570 C569 1.362 . S
C570 C573 1.409 . S
C571 H563 0.930 . S
C571 C572 1.355 . S
C571 C573 1.415 . S
C572 C571 1.355 . S
C572 C574 1.419 . S
C573 C568 1.425 . S
C573 C570 1.409 . S
C573 C571 1.415 . S
C574 H564 0.930 . S
C574 C572 1.419 . S
C574 C575 1.362 . S
C575 H565 0.930 . S
C575 C568 1.409 . S
C575 C574 1.362 . S
H576 C582 0.930 . S
H577 C585 0.930 . S
H578 C586 0.930 . S
H579 C587 0.930 . S
H580 C590 0.930 . S
H581 C591 0.930 . S
C582 H576 0.930 . S
C582 C583 1.355 . S
C582 C584 1.415 . S
C583 C582 1.355 . S
C583 C585 1.419 . S
C584 C582 1.415 . S
C584 C589 1.425 . S
C584 C591 1.409 . S
C585 H577 0.930 . S
C585 C583 1.419 . S
C585 C586 1.362 . S
C586 H578 0.930 . S
C586 C585 1.362 . S
C586 C589 1.409 . S
C587 H579 0.930 . S
C587 C588 1.355 . S
C587 C589 1.415 . S
C588 C587 1.355 . S
C588 C590 1.419 . S
C589 C584 1.425 . S
C589 C586 1.409 . S
C589 C587 1.415 . S
C590 H580 0.930 . S
C590 C588 1.419 . S
C590 C591 1.362 . S
C591 H581 0.930 . S
C591 C584 1.409 . S
C591 C590 1.362 . S
H592 C598 0.930 . S
H593 C601 0.930 . S
H594 C602 0.930 . S
H595 C603 0.930 . S
H596 C606 0.930 . S
H597 C607 0.930 . S
C598 H592 0.930 . S
C598 C599 1.355 . S
C598 C600 1.415 . S
C599 C598 1.355 . S
C599 C601 1.419 . S
C600 C598 1.415 . S
C600 C605 1.425 . S
C600 C607 1.409 . S
C601 H593 0.930 . S
C601 C599 1.419 . S
C601 C602 1.362 . S
C602 H594 0.930 . S
C602 C601 1.362 . S
C602 C605 1.409 . S
C603 H595 0.930 . S
C603 C604 1.355 . S
C603 C605 1.415 . S
C604 C603 1.355 . S
C604 C606 1.419 . S
C605 C600 1.425 . S
C605 C602 1.409 . S
C605 C603 1.415 . S
C606 H596 0.930 . S
C606 C604 1.419 . S
C606 C607 1.362 . S
C607 H597 0.930 . S
C607 C600 1.409 . S
C607 C606 1.362 . S
H608 C614 0.930 . S
H609 C617 0.930 . S
H610 C618 0.930 . S
H611 C619 0.930 . S
H612 C622 0.930 . S
H613 C623 0.930 . S
C614 H608 0.930 . S
C614 C615 1.355 . S
C614 C616 1.415 . S
C615 C614 1.355 . S
C615 C617 1.419 . S
C616 C614 1.415 . S
C616 C621 1.425 . S
C616 C623 1.409 . S
C617 H609 0.930 . S
C617 C615 1.419 . S
C617 C618 1.362 . S
C618 H610 0.930 . S
C618 C617 1.362 . S
C618 C621 1.409 . S
C619 H611 0.930 . S
C619 C620 1.355 . S
C619 C621 1.415 . S
C620 C619 1.355 . S
C620 C622 1.419 . S
C621 C616 1.425 . S
C621 C618 1.409 . S
C621 C619 1.415 . S
C622 H612 0.930 . S
C622 C620 1.419 . S
C622 C623 1.362 . S
C623 H613 0.930 . S
C623 C616 1.409 . S
C623 C622 1.362 . S
H624 C630 0.930 . S
H625 C633 0.930 . S
H626 C634 0.930 . S
H627 C635 0.930 . S
H628 C638 0.930 . S
H629 C639 0.930 . S
C630 H624 0.930 . S
C630 C631 1.355 . S
C630 C632 1.415 . S
C631 C630 1.355 . S
C631 C633 1.419 . S
C632 C630 1.415 . S
C632 C637 1.425 . S
C632 C639 1.409 . S
C633 H625 0.930 . S
C633 C631 1.419 . S
C633 C634 1.362 . S
C634 H626 0.930 . S
C634 C633 1.362 . S
C634 C637 1.409 . S
C635 H627 0.930 . S
C635 C636 1.355 . S
C635 C637 1.415 . S
C636 C635 1.355 . S
C636 C638 1.419 . S
C637 C632 1.425 . S
C637 C634 1.409 . S
C637 C635 1.415 . S
C638 H628 0.930 . S
C638 C636 1.419 . S
C638 C639 1.362 . S
C639 H629 0.930 . S
C639 C632 1.409 . S
C639 C638 1.362 . S
H640 C646 0.930 . S
H641 C649 0.930 . S
H642 C650 0.930 . S
H643 C651 0.930 . S
H644 C654 0.930 . S
H645 C655 0.930 . S
C646 H640 0.930 . S
C646 C647 1.355 . S
C646 C648 1.415 . S
C647 C646 1.355 . S
C647 C649 1.419 . S
C648 C646 1.415 . S
C648 C653 1.425 . S
C648 C655 1.409 . S
C649 H641 0.930 . S
C649 C647 1.419 . S
C649 C650 1.362 . S
C650 H642 0.930 . S
C650 C649 1.362 . S
C650 C653 1.409 . S
C651 H643 0.930 . S
C651 C652 1.355 . S
C651 C653 1.415 . S
C652 C651 1.355 . S
C652 C654 1.419 . S
C653 C648 1.425 . S
C653 C650 1.409 . S
C653 C651 1.415 . S
C654 H644 0.930 . S
C654 C652 1.419 . S
C654 C655 1.362 . S
C655 H645 0.930 . S
C655 C648 1.409 . S
C655 C654 1.362 . S
H656 C662 0.930 . S
H657 C665 0.930 . S
H658 C666 0.930 . S
H659 C667 0.930 . S
H660 C670 0.930 . S
H661 C671 0.930 . S
C662 H656 0.930 . S
C662 C663 1.355 . S
C662 C664 1.415 . S
C663 C662 1.355 . S
C663 C665 1.419 . S
C664 C662 1.415 . S
C664 C669 1.425 . S
C664 C671 1.409 . S
C665 H657 0.930 . S
C665 C663 1.419 . S
C665 C666 1.362 . S
C666 H658 0.930 . S
C666 C665 1.362 . S
C666 C669 1.409 . S
C667 H659 0.930 . S
C667 C668 1.355 . S
C667 C669 1.415 . S
C668 C667 1.355 . S
C668 C670 1.419 . S
C669 C664 1.425 . S
C669 C666 1.409 . S
C669 C667 1.415 . S
C670 H660 0.930 . S
C670 C668 1.419 . S
C670 C671 1.362 . S
C671 H661 0.930 . S
C671 C664 1.409 . S
C671 C670 1.362 . S
H672 C678 0.930 1_655 S
H673 C681 0.930 . S
H674 C682 0.930 . S
H675 C683 0.930 . S
H676 C686 0.930 . S
H677 C687 0.930 . S
C678 H672 0.930 1_455 S
C678 C679 1.355 . S
C678 C680 1.415 . S
C679 C678 1.355 . S
C679 C681 1.419 . S
C680 C678 1.415 . S
C680 C685 1.425 . S
C680 C687 1.409 1_455 S
C681 H673 0.930 . S
C681 C679 1.419 . S
C681 C682 1.362 . S
C682 H674 0.930 . S
C682 C681 1.362 . S
C682 C685 1.409 . S
C683 H675 0.930 . S
C683 C684 1.355 . S
C683 C685 1.415 . S
C684 C683 1.355 . S
C684 C686 1.419 1_455 S
C685 C680 1.425 . S
C685 C682 1.409 . S
C685 C683 1.415 . S
C686 H676 0.930 . S
C686 C684 1.419 1_655 S
C686 C687 1.362 . S
C687 H677 0.930 . S
C687 C680 1.409 1_655 S
C687 C686 1.362 . S
H688 C694 0.930 . S
H689 C697 0.930 . S
H690 C698 0.930 . S
H691 C699 0.930 1_565 S
H692 C702 0.930 . S
H693 C703 0.930 . S
C694 H688 0.930 . S
C694 C695 1.355 . S
C694 C696 1.415 . S
C695 C694 1.355 . S
C695 C697 1.419 1_545 S
C696 C694 1.415 . S
C696 C701 1.425 . S
C696 C703 1.409 . S
C697 H689 0.930 . S
C697 C695 1.419 1_565 S
C697 C698 1.362 . S
C698 H690 0.930 . S
C698 C697 1.362 . S
C698 C701 1.409 1_565 S
C699 H691 0.930 1_545 S
C699 C700 1.355 . S
C699 C701 1.415 . S
C700 C699 1.355 . S
C700 C702 1.419 . S
C701 C696 1.425 . S
C701 C698 1.409 1_545 S
C701 C699 1.415 . S
C702 H692 0.930 . S
C702 C700 1.419 . S
C702 C703 1.362 . S
C703 H693 0.930 . S
C703 C696 1.409 . S
C703 C702 1.362 . S
H704 C710 0.930 . S
H705 C713 0.930 . S
H706 C714 0.930 . S
H707 C715 0.930 . S
H708 C718 0.930 . S
H709 C719 0.930 . S
C710 H704 0.930 . S
C710 C711 1.355 . S
C710 C712 1.415 . S
C711 C710 1.355 . S
C711 C713 1.419 . S
C712 C710 1.415 . S
C712 C717 1.425 . S
C712 C719 1.409 . S
C713 H705 0.930 . S
C713 C711 1.419 . S
C713 C714 1.362 . S
C714 H706 0.930 . S
C714 C713 1.362 . S
C714 C717 1.409 . S
C715 H707 0.930 . S
C715 C716 1.355 . S
C715 C717 1.415 . S
C716 C715 1.355 . S
C716 C718 1.419 . S
C717 C712 1.425 . S
C717 C714 1.409 . S
C717 C715 1.415 . S
C718 H708 0.930 . S
C718 C716 1.419 . S
C718 C719 1.362 . S
C719 H709 0.930 . S
C719 C712 1.409 . S
C719 C718 1.362 . S
H720 C726 0.930 . S
H721 C729 0.930 . S
H722 C730 0.930 . S
H723 C731 0.930 . S
H724 C734 0.930 . S
H725 C735 0.930 . S
C726 H720 0.930 . S
C726 C727 1.355 . S
C726 C728 1.415 . S
C727 C726 1.355 . S
C727 C729 1.419 1_545 S
C728 C726 1.415 . S
C728 C733 1.425 1_545 S
C728 C735 1.409 . S
C729 H721 0.930 . S
C729 C727 1.419 1_565 S
C729 C730 1.362 . S
C730 H722 0.930 . S
C730 C729 1.362 . S
C730 C733 1.409 . S
C731 H723 0.930 . S
C731 C732 1.355 1_565 S
C731 C733 1.415 . S
C732 C731 1.355 1_545 S
C732 C734 1.419 . S
C733 C728 1.425 1_565 S
C733 C730 1.409 . S
C733 C731 1.415 . S
C734 H724 0.930 . S
C734 C732 1.419 . S
C734 C735 1.362 . S
C735 H725 0.930 . S
C735 C728 1.409 . S
C735 C734 1.362 . S
H736 C742 0.930 . S
H737 C745 0.930 . S
H738 C746 0.930 . S
H739 C747 0.930 . S
H740 C750 0.930 . S
H741 C751 0.930 . S
C742 H736 0.930 . S
C742 C743 1.355 . S
C742 C744 1.415 . S
C743 C742 1.355 . S
C743 C745 1.419 . S
C744 C742 1.415 . S
C744 C749 1.425 . S
C744 C751 1.409 . S
C745 H737 0.930 . S
C745 C743 1.419 . S
C745 C746 1.362 . S
C746 H738 0.930 . S
C746 C745 1.362 . S
C746 C749 1.409 . S
C747 H739 0.930 . S
C747 C748 1.355 . S
C747 C749 1.415 . S
C748 C747 1.355 . S
C748 C750 1.419 . S
C749 C744 1.425 . S
C749 C746 1.409 . S
C749 C747 1.415 . S
C750 H740 0.930 . S
C750 C748 1.419 . S
C750 C751 1.362 . S
C751 H741 0.930 . S
C751 C744 1.409 . S
C751 C750 1.362 . S
H752 C758 0.930 . S
H753 C761 0.930 . S
H754 C762 0.930 . S
H755 C763 0.930 . S
H756 C766 0.930 . S
H757 C767 0.930 . S
C758 H752 0.930 . S
C758 C759 1.355 . S
C758 C760 1.415 . S
C759 C758 1.355 . S
C759 C761 1.419 1_455 S
C760 C758 1.415 . S
C760 C765 1.425 1_455 S
C760 C767 1.409 . S
C761 H753 0.930 . S
C761 C759 1.419 1_655 S
C761 C762 1.362 . S
C762 H754 0.930 . S
C762 C761 1.362 . S
C762 C765 1.409 . S
C763 H755 0.930 . S
C763 C764 1.355 1_655 S
C763 C765 1.415 . S
C764 C763 1.355 1_455 S
C764 C766 1.419 . S
C765 C760 1.425 1_655 S
C765 C762 1.409 . S
C765 C763 1.415 . S
C766 H756 0.930 . S
C766 C764 1.419 . S
C766 C767 1.362 . S
C767 H757 0.930 . S
C767 C760 1.409 . S
C767 C766 1.362 . S
C487 C10 3.140 . S
C492 C451 3.142 . S
C503 C55 1.241 . S
C508 C301 1.261 . S
C519 C90 1.961 . S
C524 C361 1.834 . S
C535 C19 3.046 . S
C540 C421 2.857 . S
C556 C331 1.337 . S
C551 C46 1.321 . S
C572 C391 2.124 . S
C567 C99 2.118 . S
C583 C50 1.944 . S
C588 C181 1.797 . S
C599 C95 0.636 . S
C604 C271 0.680 . S
C615 C6 1.320 . S
C620 C151 1.366 . S
C636 C211 2.098 . S
C631 C59 2.081 . S
C652 C241 0.499 . S
C647 C86 0.624 . S
C663 C15 1.299 . S
C668 C121 1.320 . S
C684 C260 1.069 . S
C679 C18 1.091 . S
C695 C49 1.418 . S
C700 C140 1.491 . S
C711 C98 1.298 . S
C716 C200 1.307 . S
C732 C380 1.311 . S
C727 C58 1.305 . S
C748 C440 1.771 1_556 S
C743 C89 1.678 . S
C759 C9 1.434 . S
C764 C320 1.481 . S
