# Generated by pormake.
# Topology ssa, (4,4)-cn, num edge types: 1
# Building blocks:
#     Node 0, Type 0, BuildingBlock: KOZSID_clean_sbu_0, # of connection points: 4
#     Node 1, Type 0, BuildingBlock: KOZSID_clean_sbu_0, # of connection points: 4
#     Node 2, Type 0, BuildingBlock: KOZSID_clean_sbu_0, # of connection points: 4
#     Node 3, Type 0, BuildingBlock: KOZSID_clean_sbu_0, # of connection points: 4
#     Node 4, Type 0, BuildingBlock: KOZSID_clean_sbu_0, # of connection points: 4
#     Node 5, Type 0, BuildingBlock: KOZSID_clean_sbu_0, # of connection points: 4
#     Node 6, Type 1, BuildingBlock: KUFVIS_clean_linker_0, # of connection points: 4
#     Node 7, Type 1, BuildingBlock: KUFVIS_clean_linker_0, # of connection points: 4
#     Node 8, Type 1, BuildingBlock: KUFVIS_clean_linker_0, # of connection points: 4
#     Node 9, Type 1, BuildingBlock: KUFVIS_clean_linker_0, # of connection points: 4
#     Node 10, Type 1, BuildingBlock: KUFVIS_clean_linker_0, # of connection points: 4
#     Node 11, Type 1, BuildingBlock: KUFVIS_clean_linker_0, # of connection points: 4
#     Edge 12, Type (0, 1), BuildingBlock: ZUJKAS_clean_linker_0, # of connection points: 2
#     Edge 13, Type (0, 1), BuildingBlock: ZUJKAS_clean_linker_0, # of connection points: 2
#     Edge 14, Type (0, 1), BuildingBlock: ZUJKAS_clean_linker_0, # of connection points: 2
#     Edge 15, Type (0, 1), BuildingBlock: ZUJKAS_clean_linker_0, # of connection points: 2
#     Edge 16, Type (0, 1), BuildingBlock: ZUJKAS_clean_linker_0, # of connection points: 2
#     Edge 17, Type (0, 1), BuildingBlock: ZUJKAS_clean_linker_0, # of connection points: 2
#     Edge 18, Type (0, 1), BuildingBlock: ZUJKAS_clean_linker_0, # of connection points: 2
#     Edge 19, Type (0, 1), BuildingBlock: ZUJKAS_clean_linker_0, # of connection points: 2
#     Edge 20, Type (0, 1), BuildingBlock: ZUJKAS_clean_linker_0, # of connection points: 2
#     Edge 21, Type (0, 1), BuildingBlock: ZUJKAS_clean_linker_0, # of connection points: 2
#     Edge 22, Type (0, 1), BuildingBlock: ZUJKAS_clean_linker_0, # of connection points: 2
#     Edge 23, Type (0, 1), BuildingBlock: ZUJKAS_clean_linker_0, # of connection points: 2
#     Edge 24, Type (0, 1), BuildingBlock: ZUJKAS_clean_linker_0, # of connection points: 2
#     Edge 25, Type (0, 1), BuildingBlock: ZUJKAS_clean_linker_0, # of connection points: 2
#     Edge 26, Type (0, 1), BuildingBlock: ZUJKAS_clean_linker_0, # of connection points: 2
#     Edge 27, Type (0, 1), BuildingBlock: ZUJKAS_clean_linker_0, # of connection points: 2
#     Edge 28, Type (0, 1), BuildingBlock: ZUJKAS_clean_linker_0, # of connection points: 2
#     Edge 29, Type (0, 1), BuildingBlock: ZUJKAS_clean_linker_0, # of connection points: 2
#     Edge 30, Type (0, 1), BuildingBlock: ZUJKAS_clean_linker_0, # of connection points: 2
#     Edge 31, Type (0, 1), BuildingBlock: ZUJKAS_clean_linker_0, # of connection points: 2
#     Edge 32, Type (0, 1), BuildingBlock: ZUJKAS_clean_linker_0, # of connection points: 2
#     Edge 33, Type (0, 1), BuildingBlock: ZUJKAS_clean_linker_0, # of connection points: 2
#     Edge 34, Type (0, 1), BuildingBlock: ZUJKAS_clean_linker_0, # of connection points: 2
#     Edge 35, Type (0, 1), BuildingBlock: ZUJKAS_clean_linker_0, # of connection points: 2
# Relax obj value: 0.003
# Max RMSD: 0.053
# Mean RMSD: 0.030
data_MOF--net-ssa--node1-KOZSID_clean_sbu_0--node2-KUFVIS_clean_linker_0--edge1-ZUJKAS_clean_linker_0
_symmetry_space_group_name_H-M    P1
_symmetry_Int_Tables_number       1
_symmetry_cell_setting            triclinic
loop_
_symmetry_equiv_pos_as_xyz
'x, y, z'
_cell_length_a     73.776976
_cell_length_b     75.132848
_cell_length_c     41.316616
_cell_angle_alpha  87.608806
_cell_angle_beta   89.950892
_cell_angle_gamma 121.77594
loop_
_atom_site_label
_atom_site_type_symbol
_atom_site_fract_x
_atom_site_fract_y
_atom_site_fract_z
_atom_type_partial_charge
C0 C 0.96865 0.51437 0.01864 0.0
C1 C 0.95325 0.5097 0.0424 0.0
C2 C 0.95761 0.50092 0.06843 0.0
C3 C 0.97529 0.50066 0.05912 0.0
N4 N 0.98279 0.50913 0.0289 0.0
Co5 Co 0.00719 0.51047 0.00484 0.0
N6 N 0.0122 0.49554 0.04183 0.0
C7 C 1.00092 0.48812 0.07019 0.0
C8 C 0.0086 0.47928 0.09138 0.0
C9 C 0.02609 0.48153 0.07592 0.0
C10 C 0.02811 0.49173 0.04612 0.0
N11 N 0.03151 0.51169 0.98068 0.0
C12 C 0.04553 0.50624 0.99078 0.0
C13 C 0.06073 0.51067 0.96682 0.0
C14 C 0.05635 0.51945 0.94081 0.0
C15 C 0.03883 0.51996 0.95032 0.0
N16 N 1.00228 0.52553 0.96792 0.0
C17 C 0.01373 0.53319 0.93974 0.0
C18 C 0.00609 0.54211 0.91861 0.0
C19 C 0.98848 0.53968 0.93394 0.0
C20 C 0.98635 0.52929 0.9636 0.0
N21 N 0.02762 0.53777 0.02376 0.0
C22 C 0.05782 0.57575 0.05149 0.0
C23 C 0.05881 0.57296 0.01845 0.0
C24 C 0.04365 0.55407 0.0052 0.0
C25 C 0.04125 0.55927 0.07028 0.0
C26 C 0.0265 0.54063 0.05608 0.0
N27 N 0.98665 0.48323 0.98588 0.0
C28 C 0.97067 0.46308 0.93864 0.0
C29 C 0.95395 0.44683 0.95754 0.0
C30 C 0.95454 0.44867 0.99111 0.0
C31 C 0.97092 0.4668 0.00464 0.0
C32 C 0.98676 0.48088 0.95317 0.0
H33 H 0.97019 0.46736 0.03027 0.0
H34 H 0.99885 0.49275 0.93732 0.0
H35 H 0.04536 0.553 0.97991 0.0
H36 H 0.01449 0.52865 0.07189 0.0
C37 C 0.98413 0.49103 0.07708 0.0
C38 C 0.96831 0.52234 0.98599 0.0
C39 C 0.04595 0.49831 0.02344 0.0
C40 C 0.03025 0.52994 0.93262 0.0
H41 H 0.93982 0.51176 0.04074 0.0
H42 H 0.94845 0.49468 0.09097 0.0
H43 H 1.00261 0.47261 0.11559 0.0
H44 H 0.03652 0.4767 0.08576 0.0
H45 H 0.07407 0.50847 0.96831 0.0
H46 H 0.06542 0.52559 0.91819 0.0
H47 H 0.01211 0.54884 0.89443 0.0
H48 H 0.97799 0.54443 0.92406 0.0
H49 H 0.07117 0.58534 0.00274 0.0
H50 H 0.03989 0.5605 0.09609 0.0
H51 H 0.97131 0.46218 0.9126 0.0
H52 H 0.94202 0.43651 0.00688 0.0
C53 C 0.5454 0.02926 0.54973 0.0
C54 C 0.54943 0.02743 0.58211 0.0
C55 C 0.53126 0.01054 0.59549 0.0
C56 C 0.51725 1.00305 0.57061 0.0
N57 N 0.52552 0.01381 0.54193 0.0
Co58 Co 0.5102 0.00929 0.5001 0.0
N59 N 0.48272 0.98586 0.52056 0.0
C60 C 0.47947 0.97822 0.55167 0.0
C61 C 0.45919 0.9616 0.55841 0.0
C62 C 0.44893 0.95814 0.52978 0.0
C63 C 0.46364 0.97289 0.50711 0.0
N64 N 0.49474 0.00517 0.45848 0.0
C65 C 0.47438 0.99064 0.45104 0.0
C66 C 0.47033 0.99306 0.41885 0.0
C67 C 0.48875 0.00961 0.40548 0.0
C68 C 0.50299 0.01632 0.43006 0.0
N69 N 0.53783 0.03238 0.47949 0.0
C70 C 0.5414 0.03923 0.44798 0.0
C71 C 0.56169 0.05583 0.44122 0.0
C72 C 0.5716 0.06009 0.47023 0.0
C73 C 0.55672 0.04575 0.49311 0.0
N74 N 0.51746 0.98828 0.48808 0.0
C75 C 0.5249 0.95671 0.46991 0.0
C76 C 0.52744 0.97237 0.44749 0.0
C77 C 0.52366 0.98782 0.45698 0.0
C78 C 0.51906 0.95745 0.50178 0.0
C79 C 0.51559 0.97328 0.51029 0.0
N80 N 0.50303 0.03031 0.51219 0.0
C81 C 0.50601 0.06376 0.50187 0.0
C82 C 0.49738 0.06264 0.53263 0.0
C83 C 0.49073 0.04448 0.55225 0.0
C84 C 0.49376 0.02876 0.54176 0.0
C85 C 0.50842 0.04748 0.4921 0.0
H86 H 0.48881 0.01567 0.5583 0.0
H87 H 0.51515 0.04938 0.46844 0.0
H88 H 0.52555 0.99903 0.43854 0.0
H89 H 0.5112 0.9729 0.53495 0.0
C90 C 0.49591 0.98677 0.57382 0.0
C91 C 0.56064 0.04648 0.52777 0.0
C92 C 0.45881 0.97357 0.47299 0.0
C93 C 0.52466 0.0316 0.42637 0.0
H94 H 0.56385 0.03759 0.59487 0.0
H95 H 0.52837 0.00483 0.62059 0.0
H96 H 0.45274 0.95284 0.5813 0.0
H97 H 0.43255 0.94596 0.5259 0.0
H98 H 0.45578 0.9835 0.40601 0.0
H99 H 0.49165 0.01553 0.38047 0.0
H100 H 0.56815 0.06451 0.41827 0.0
H101 H 0.58768 0.07286 0.47423 0.0
H102 H 0.53178 0.97243 0.42242 0.0
H103 H 0.51723 0.94589 0.52021 0.0
H104 H 0.5115 0.07739 0.48556 0.0
H105 H 0.48329 0.04234 0.57587 0.0
C106 C 0.55019 0.52964 0.95822 0.0
C107 C 0.55705 0.53823 0.92691 0.0
C108 C 0.54049 0.53846 0.91272 0.0
C109 C 0.52446 0.5299 0.93589 0.0
N110 N 0.52987 0.52454 0.96433 0.0
Co111 Co 0.5106 0.50969 0.00333 0.0
N112 N 0.48559 0.50806 0.98114 0.0
C113 C 0.48536 0.51532 0.95072 0.0
C114 C 0.46616 0.51279 0.94262 0.0
C115 C 0.45341 0.5037 0.9697 0.0
C116 C 0.46566 0.50126 0.99283 0.0
N117 N 0.49126 0.49453 0.04214 0.0
C118 C 0.47066 0.48867 0.04783 0.0
C119 C 0.46344 0.47911 0.07852 0.0
C120 C 0.4801 0.47912 0.09285 0.0
C121 C 0.49649 0.48866 0.07026 0.0
N122 N 0.53567 0.51162 0.02571 0.0
C123 C 0.53609 0.50509 0.05656 0.0
C124 C 0.55547 0.50815 0.06496 0.0
C125 C 0.5681 0.51681 0.03767 0.0
C126 C 0.55559 0.51841 0.01406 0.0
N127 N 0.51787 0.53703 0.02051 0.0
C128 C 0.52583 0.57487 0.0457 0.0
C129 C 0.52559 0.55927 0.06571 0.0
C130 C 0.52164 0.5407 0.05275 0.0
C131 C 0.52238 0.5713 0.0127 0.0
C132 C 0.51855 0.5525 0.00072 0.0
N133 N 0.50345 0.48242 0.98613 0.0
C134 C 0.50326 0.45011 0.99211 0.0
C135 C 0.49858 0.44616 0.95948 0.0
C136 C 0.49543 0.46021 0.94082 0.0
C137 C 0.49788 0.47804 0.9545 0.0
C138 C 0.50542 0.46806 0.00489 0.0
H139 H 0.49571 0.48831 0.93876 0.0
H140 H 0.50911 0.47019 0.02987 0.0
H141 H 0.52142 0.52943 0.06947 0.0
H142 H 0.51601 0.55079 0.9754 0.0
C143 C 0.50373 0.52528 0.93086 0.0
C144 C 0.56301 0.52539 0.98052 0.0
C145 C 0.45785 0.49307 0.02586 0.0
C146 C 0.51748 0.49422 0.0759 0.0
H147 H 0.57216 0.54321 0.91504 0.0
H148 H 0.53993 0.54349 0.88801 0.0
H149 H 0.46207 0.51746 0.92001 0.0
H150 H 0.43706 0.49968 0.97237 0.0
H151 H 0.44796 0.47333 0.08982 0.0
H152 H 0.48047 0.4736 0.11732 0.0
H153 H 0.55966 0.50382 0.08778 0.0
H154 H 0.58448 0.52091 0.0351 0.0
H155 H 0.52792 0.56111 0.09151 0.0
H156 H 0.52271 0.58301 0.99607 0.0
H157 H 0.50539 0.43945 0.00778 0.0
H158 H 0.49181 0.4579 0.91537 0.0
C159 C 0.96792 0.45913 0.49138 0.0
C160 C 0.95221 0.44833 0.469 0.0
C161 C 0.95701 0.46167 0.44257 0.0
C162 C 0.97517 0.47987 0.45029 0.0
N163 N 0.98246 0.47895 0.47998 0.0
Co164 Co 0.00726 0.50264 0.50188 0.0
N165 N 0.01358 0.52258 0.46353 0.0
C166 C 1.00284 0.51826 0.43557 0.0
C167 C 0.01167 0.53461 0.41283 0.0
C168 C 0.02934 0.55024 0.42683 0.0
C169 C 0.03021 0.54252 0.45754 0.0
N170 N 0.03183 0.52636 0.52399 0.0
C171 C 0.04647 0.54605 0.51248 0.0
C172 C 0.06112 0.55753 0.53574 0.0
C173 C 0.05589 0.54447 0.56269 0.0
C174 C 0.03834 0.52589 0.55444 0.0
N175 N 1.00128 0.48267 0.53996 0.0
C176 C 0.01245 0.48687 0.5675 0.0
C177 C 1.00496 0.46993 0.58897 0.0
C178 C 0.9878 0.45399 0.57451 0.0
C179 C 0.98564 0.46223 0.54505 0.0
N180 N 0.02701 0.49511 0.48286 0.0
C181 C 0.05692 0.48732 0.45454 0.0
C182 C 0.05794 0.49193 0.48716 0.0
C183 C 0.04294 0.49567 0.50071 0.0
C184 C 0.04029 0.48616 0.4366 0.0
C185 C 0.02565 0.49003 0.4511 0.0
N186 N 0.98748 0.51019 0.52092 0.0
C187 C 0.97253 0.51701 0.56762 0.0
C188 C 0.95758 0.5183 0.54854 0.0
C189 C 0.9582 0.51592 0.51528 0.0
C190 C 0.97318 0.51202 0.5021 0.0
C191 C 0.98717 0.51297 0.55347 0.0
H192 H 0.97272 0.51038 0.47664 0.0
H193 H 0.99786 0.51186 0.56948 0.0
H194 H 0.04474 0.49923 0.52561 0.0
H195 H 0.01356 0.48917 0.43597 0.0
C196 C 0.98522 0.49833 0.43074 0.0
C197 C 0.96789 0.45024 0.52359 0.0
C198 C 0.04776 0.55424 0.47938 0.0
C199 C 0.02913 0.50716 0.5733 0.0
H200 H 0.93838 0.4326 0.47162 0.0
H201 H 0.94801 0.45865 0.42065 0.0
H202 H 0.00628 0.5349 0.38857 0.0
H203 H 0.0406 0.56539 0.41532 0.0
H204 H 0.07457 0.57351 0.53315 0.0
H205 H 0.06438 0.54786 0.58516 0.0
H206 H 0.01099 0.46936 0.61262 0.0
H207 H 0.97773 0.43818 0.5848 0.0
H208 H 0.07026 0.49265 0.50231 0.0
H209 H 0.03885 0.48283 0.41116 0.0
H210 H 0.97264 0.51858 0.59357 0.0
H211 H 0.94721 0.51713 0.49935 0.0
C212 C 0.4692 0.98465 0.05183 0.0
C213 C 0.46411 0.98615 0.08354 0.0
C214 C 0.48174 1.00312 0.09533 0.0
C215 C 0.4965 0.01098 0.07023 0.0
N216 N 0.48921 1.00035 0.04286 0.0
Co217 Co 0.50572 0.00544 0.00133 0.0
N218 N 0.53252 0.02879 0.01989 0.0
C219 C 0.53484 0.03609 0.04996 0.0
C220 C 0.55482 0.05287 0.05526 0.0
C221 C 0.56589 0.05677 0.02673 0.0
C222 C 0.55196 0.04203 0.00562 0.0
N223 N 0.52231 0.01025 0.96 0.0
C224 C 0.54278 0.0251 0.95157 0.0
C225 C 0.54799 0.02303 0.92025 0.0
C226 C 0.53005 0.00652 0.90821 0.0
C227 C 0.515 0.99942 0.9328 0.0
N228 N 0.47883 0.9823 0.98266 0.0
C229 C 0.47619 0.97571 0.95208 0.0
C230 C 0.45619 0.95891 0.94683 0.0
C231 C 0.44551 0.95424 0.97594 0.0
C232 C 0.45969 0.96853 0.99732 0.0
N233 N 0.49843 0.02629 0.98542 0.0
C234 C 0.49066 0.05747 0.96165 0.0
C235 C 0.48897 0.04213 0.94166 0.0
C236 C 0.49285 0.02685 0.95391 0.0
C237 C 0.49587 0.05663 0.99395 0.0
C238 C 0.49958 0.04103 0.00523 0.0
N239 N 0.51292 0.98461 0.01725 0.0
C240 C 0.51207 0.95225 0.01109 0.0
C241 C 0.51927 0.95286 0.04252 0.0
C242 C 0.52387 0.96997 0.06067 0.0
C243 C 0.5206 0.9855 0.04771 0.0
C244 C 0.50921 0.96825 0.99893 0.0
H245 H 0.52398 0.99785 0.06309 0.0
H246 H 0.50366 0.96687 0.97484 0.0
H247 H 0.49155 0.01585 0.93724 0.0
H248 H 0.50354 0.04139 0.03002 0.0
C249 C 0.51772 0.02733 0.0723 0.0
C250 C 0.45489 0.96742 0.03183 0.0
C251 C 0.55756 0.04199 0.97177 0.0
C252 C 0.4935 0.98386 0.93018 0.0
H253 H 0.44936 0.97569 0.09699 0.0
H254 H 0.48382 0.00861 0.11964 0.0
H255 H 0.56051 0.06156 0.07703 0.0
H256 H 0.58222 0.06937 0.02181 0.0
H257 H 0.56308 0.03277 0.90723 0.0
H258 H 0.52803 1.00078 0.88406 0.0
H259 H 0.45041 0.9504 0.92492 0.0
H260 H 0.4294 0.94126 0.98114 0.0
H261 H 0.48518 0.04217 0.91635 0.0
H262 H 0.49704 0.06792 0.01061 0.0
H263 H 0.50862 0.93948 0.99589 0.0
H264 H 0.52936 0.9711 0.08524 0.0
C265 C 0.51121 0.5469 0.51842 0.0
C266 C 0.50808 0.55739 0.54256 0.0
C267 C 0.49886 0.54342 0.56845 0.0
C268 C 0.49684 0.52526 0.55869 0.0
N269 N 0.50463 0.5269 0.52833 0.0
Co270 Co 0.50361 0.50392 0.50369 0.0
N271 N 0.48691 0.48254 0.53968 0.0
C272 C 0.47968 0.4857 0.56764 0.0
C273 C 0.46883 0.46808 0.5878 0.0
C274 C 0.46951 0.45283 0.57207 0.0
C275 C 0.48095 0.46213 0.54323 0.0
N276 N 0.50287 0.48098 0.47925 0.0
C277 C 0.49606 0.46088 0.48905 0.0
C278 C 0.50017 0.45074 0.46544 0.0
C279 C 0.51004 0.46493 0.43998 0.0
C280 C 0.51155 0.4829 0.44946 0.0
N281 N 0.51998 0.52526 0.46746 0.0
C282 C 0.52687 0.52209 0.43919 0.0
C283 C 0.53652 0.53942 0.41826 0.0
C284 C 0.53526 0.55444 0.43373 0.0
C285 C 0.52482 0.54531 0.46327 0.0
N286 N 0.53066 0.50965 0.52361 0.0
C287 C 0.56723 0.51347 0.55236 0.0
C288 C 0.56542 0.51375 0.51872 0.0
C289 C 0.54719 0.51184 0.505 0.0
C290 C 0.55077 0.51206 0.57129 0.0
C291 C 0.53288 0.51033 0.55655 0.0
N292 N 0.47664 0.49823 0.48377 0.0
C293 C 0.45627 0.49439 0.43586 0.0
C294 C 0.4409 0.49548 0.45393 0.0
C295 C 0.44321 0.49698 0.48744 0.0
C296 C 0.46104 0.49831 0.50173 0.0
C297 C 0.47376 0.49562 0.45115 0.0
H298 H 0.46211 0.49993 0.52724 0.0
H299 H 0.48496 0.49486 0.43597 0.0
H300 H 0.5467 0.51175 0.4793 0.0
H301 H 0.52091 0.50922 0.5724 0.0
C302 C 0.4851 0.5058 0.57556 0.0
C303 C 0.51873 0.55591 0.48563 0.0
C304 C 0.48698 0.45129 0.52117 0.0
C305 C 0.52249 0.50221 0.43202 0.0
H306 H 0.51126 0.5732 0.54118 0.0
H307 H 0.49317 0.54585 0.591 0.0
H308 H 0.46197 0.46669 0.61163 0.0
H309 H 0.46296 0.43683 0.58126 0.0
H310 H 0.49707 0.43497 0.46674 0.0
H311 H 0.51618 0.46265 0.41775 0.0
H312 H 0.54294 0.54073 0.3941 0.0
H313 H 0.54075 0.57013 0.424 0.0
H314 H 0.57771 0.51477 0.50297 0.0
H315 H 0.55162 0.51225 0.59746 0.0
H316 H 0.45492 0.49273 0.40991 0.0
H317 H 0.43172 0.49786 0.50251 0.0
H318 H 0.3143 0.49651 0.21667 0.0
H319 H 0.26297 0.495 0.2675 0.0
H320 H 0.25727 0.47971 0.1663 0.0
H321 H 0.23425 0.49037 0.16551 0.0
H322 H 0.17715 0.47361 0.21841 0.0
H323 H 0.22844 0.47526 0.26912 0.0
C324 C 0.2985 0.49425 0.21673 0.0
C325 C 0.28705 0.48881 0.18822 0.0
C326 C 0.28964 0.49591 0.24548 0.0
C327 C 0.26907 0.49267 0.24532 0.0
C328 C 0.25684 0.48693 0.21686 0.0
C329 C 0.26612 0.48471 0.18836 0.0
C330 C 0.23457 0.48311 0.21716 0.0
C331 C 0.22533 0.48533 0.18831 0.0
C332 C 0.20439 0.48119 0.18873 0.0
C333 C 0.1929 0.47577 0.21809 0.0
C334 C 0.20176 0.47425 0.24715 0.0
C335 C 0.22233 0.47746 0.24652 0.0
H336 H 0.69404 0.18281 0.74297 0.0
H337 H 0.74931 0.22681 0.79325 0.0
H338 H 0.74655 0.23374 0.68878 0.0
H339 H 0.78184 0.25212 0.6914 0.0
H340 H 0.8265 0.30738 0.7397 0.0
H341 H 0.76912 0.2613 0.79004 0.0
C342 C 0.7098 0.19696 0.74237 0.0
C343 C 0.71936 0.20723 0.71261 0.0
C344 C 0.72041 0.20415 0.77135 0.0
C345 C 0.74115 0.22193 0.77059 0.0
C346 C 0.751 0.23338 0.741 0.0
C347 C 0.73983 0.22552 0.71193 0.0
C348 C 0.77238 0.25369 0.74073 0.0
C349 C 0.78605 0.26125 0.71272 0.0
C350 C 0.80563 0.28057 0.71226 0.0
C351 C 0.81159 0.29233 0.73993 0.0
C352 C 0.79872 0.28523 0.76798 0.0
C353 C 0.77915 0.26604 0.76839 0.0
H354 H 0.52778 0.69959 0.27603 0.0
H355 H 0.54165 0.75581 0.22361 0.0
H356 H 0.52239 0.74555 0.32543 0.0
H357 H 0.5392 0.77988 0.32505 0.0
H358 H 0.5407 0.83002 0.2695 0.0
H359 H 0.52804 0.77552 0.22159 0.0
C360 C 0.52901 0.71465 0.27552 0.0
C361 C 0.52487 0.72149 0.30392 0.0
C362 C 0.53479 0.72684 0.24656 0.0
C363 C 0.53638 0.74633 0.24603 0.0
C364 C 0.53198 0.7537 0.27429 0.0
C365 C 0.52624 0.74089 0.30333 0.0
C366 C 0.53371 0.77469 0.27338 0.0
C367 C 0.53755 0.78604 0.30187 0.0
C368 C 0.53995 0.80593 0.30054 0.0
C369 C 0.53905 0.81477 0.27063 0.0
C370 C 0.53518 0.80403 0.24224 0.0
C371 C 0.53188 0.78383 0.24374 0.0
H372 H 0.83207 0.52696 0.7793 0.0
H373 H 0.7782 0.5193 0.83151 0.0
H374 H 0.78665 0.53567 0.7282 0.0
H375 H 0.75146 0.51908 0.72962 0.0
H376 H 0.70507 0.5258 0.78072 0.0
H377 H 0.75972 0.53477 0.83075 0.0
C378 C 0.81752 0.52725 0.77939 0.0
C379 C 0.81051 0.53159 0.75043 0.0
C380 C 0.8061 0.52314 0.80853 0.0
C381 C 0.78709 0.52319 0.80881 0.0
C382 C 0.77939 0.52746 0.77987 0.0
C383 C 0.79152 0.53175 0.7507 0.0
C384 C 0.75876 0.52718 0.78005 0.0
C385 C 0.74652 0.52278 0.75169 0.0
C386 C 0.7272 0.52229 0.75186 0.0
C387 C 0.71995 0.52612 0.78043 0.0
C388 C 0.73144 0.53026 0.80879 0.0
C389 C 0.75086 0.53098 0.80864 0.0
H390 H 0.18454 0.71043 0.27914 0.0
H391 H 0.23218 0.76457 0.22391 0.0
H392 H 0.24085 0.75558 0.3261 0.0
H393 H 0.26058 0.78983 0.32521 0.0
H394 H 0.31177 0.84049 0.26906 0.0
H395 H 0.26677 0.7852 0.2217 0.0
C396 C 0.19979 0.72518 0.27789 0.0
C397 C 0.21167 0.73217 0.30581 0.0
C398 C 0.20742 0.73655 0.24829 0.0
C399 C 0.22716 0.75566 0.24683 0.0
C400 C 0.23966 0.76333 0.27486 0.0
C401 C 0.23172 0.75091 0.30427 0.0
C402 C 0.26039 0.78438 0.27357 0.0
C403 C 0.26866 0.79592 0.30189 0.0
C404 C 0.28728 0.81599 0.30021 0.0
C405 C 0.29744 0.82495 0.27026 0.0
C406 C 0.28988 0.81402 0.242 0.0
C407 C 0.27182 0.79358 0.24377 0.0
H408 H 0.48802 0.31421 0.73747 0.0
H409 H 0.4929 0.26607 0.78724 0.0
H410 H 0.47128 0.25867 0.68817 0.0
H411 H 0.4842 0.23785 0.68596 0.0
H412 H 0.47236 0.18268 0.73988 0.0
H413 H 0.47385 0.23184 0.79037 0.0
C414 C 0.48628 0.29894 0.73734 0.0
C415 C 0.47937 0.28742 0.70945 0.0
C416 C 0.49066 0.29105 0.76538 0.0
C417 C 0.48875 0.27146 0.76545 0.0
C418 C 0.48197 0.25932 0.73758 0.0
C419 C 0.47726 0.26766 0.70959 0.0
C420 C 0.47935 0.23797 0.73804 0.0
C421 C 0.48065 0.22916 0.70901 0.0
C422 C 0.47734 0.20889 0.7095 0.0
C423 C 0.47378 0.19782 0.73925 0.0
C424 C 0.47296 0.20621 0.76834 0.0
C425 C 0.47542 0.22607 0.76766 0.0
H426 H 0.07516 0.52394 0.06602 0.0
H427 H 0.10583 0.52295 0.08676 0.0
H428 H 0.08989 0.47099 0.02737 0.0
H429 H 0.05927 0.47211 0.00652 0.0
H430 H 0.10392 0.48957 0.12066 0.0
H431 H 0.15424 0.51027 0.00894 0.0
H432 H 0.13268 0.51496 0.01215 0.0
H433 H 0.12711 0.48912 0.0051 0.0
C434 C 0.07843 0.5125 0.0572 0.0
C435 C 0.0651 0.49822 0.03456 0.0
C436 C 0.0959 0.51194 0.06899 0.0
C437 C 0.10039 0.49713 0.05823 0.0
C438 C 0.08707 0.48288 0.03543 0.0
H439 H 0.16921 0.45025 0.16112 0.0
H440 H 0.14552 0.45467 0.12476 0.0
C441 C 0.06955 0.48343 0.02368 0.0
C442 C 0.11802 0.49563 0.07273 0.0
H443 H 0.16442 0.4976 0.05504 0.0
C444 C 0.11719 0.49145 0.1063 0.0
C445 C 0.13543 0.49821 0.05402 0.0
C446 C 0.13761 0.50358 0.01809 0.0
C447 C 0.133 0.48936 0.12156 0.0
C448 C 0.15005 0.49132 0.10277 0.0
C449 C 0.15121 0.49594 0.0693 0.0
C450 C 0.16648 0.48828 0.11804 0.0
C451 C 0.13136 0.48501 0.15779 0.0
C452 C 0.18662 0.5056 0.12486 0.0
C453 C 0.2003 0.50306 0.14546 0.0
C454 C 0.19394 0.48317 0.15939 0.0
C455 C 0.17455 0.46569 0.15035 0.0
C456 C 0.16097 0.46822 0.12977 0.0
H457 H 0.11948 0.48768 0.16948 0.0
H458 H 0.12642 0.46842 0.16304 0.0
H459 H 0.14707 0.49508 0.1689 0.0
H460 H 0.1911 0.52123 0.11612 0.0
H461 H 0.21498 0.5168 0.15257 0.0
H462 H 0.56018 0.07611 0.56254 0.0
H463 H 0.59058 0.10691 0.58574 0.0
H464 H 0.63326 0.08991 0.5462 0.0
H465 H 0.6027 0.05882 0.52355 0.0
H466 H 0.64092 0.09976 0.60946 0.0
H467 H 0.63589 0.1619 0.54114 0.0
H468 H 0.61121 0.14293 0.56152 0.0
H469 H 0.62167 0.135 0.52958 0.0
C470 C 0.57611 0.07911 0.55871 0.0
C471 C 0.57926 0.06535 0.5411 0.0
C472 C 0.59347 0.09677 0.57168 0.0
C473 C 0.6143 0.10103 0.56709 0.0
C474 C 0.61739 0.08709 0.54973 0.0
H475 H 0.7321 0.19425 0.66121 0.0
H476 H 0.70889 0.17043 0.6201 0.0
C477 C 0.6 0.0694 0.5368 0.0
C478 C 0.63264 0.11935 0.58204 0.0
H479 H 0.6573 0.17235 0.5885 0.0
C480 C 0.64474 0.11568 0.60448 0.0
C481 C 0.63765 0.14014 0.57551 0.0
C482 C 0.62606 0.14529 0.55038 0.0
C483 C 0.66097 0.13204 0.62171 0.0
C484 C 0.66552 0.15273 0.61596 0.0
C485 C 0.65386 0.15651 0.59281 0.0
C486 C 0.68077 0.17012 0.63613 0.0
C487 C 0.67241 0.12686 0.64712 0.0
C488 C 0.67302 0.17884 0.65736 0.0
C489 C 0.68625 0.1925 0.68053 0.0
C490 C 0.70754 0.19784 0.68279 0.0
C491 C 0.71581 0.19052 0.6598 0.0
C492 C 0.7025 0.17672 0.63661 0.0
H493 H 0.66439 0.10971 0.65265 0.0
H494 H 0.68891 0.1327 0.63829 0.0
H495 H 0.67341 0.13461 0.66993 0.0
H496 H 0.65637 0.17407 0.65734 0.0
H497 H 0.67949 0.19793 0.69801 0.0
H498 H 0.50528 0.59561 0.03043 0.0
H499 H 0.50954 0.62664 0.05503 0.0
H500 H 0.5574 0.6288 0.11746 0.0
H501 H 0.55374 0.59825 0.09234 0.0
H502 H 0.50202 0.62969 0.11881 0.0
H503 H 0.5858 0.68963 0.08477 0.0
H504 H 0.57105 0.66501 0.06527 0.0
H505 H 0.58305 0.66639 0.10374 0.0
C506 C 0.51705 0.60295 0.0489 0.0
C507 C 0.52919 0.59442 0.05937 0.0
C508 C 0.51938 0.62063 0.06306 0.0
C509 C 0.53402 0.63027 0.08775 0.0
C510 C 0.54633 0.62195 0.09797 0.0
H511 H 0.56065 0.71141 0.24027 0.0
H512 H 0.56107 0.69065 0.19662 0.0
C513 C 0.54401 0.60428 0.08387 0.0
C514 C 0.53528 0.64797 0.10466 0.0
H515 H 0.57025 0.6974 0.12901 0.0
C516 C 0.51684 0.64464 0.12055 0.0
C517 C 0.55463 0.66749 0.10691 0.0
C518 C 0.57471 0.67245 0.08898 0.0
C519 C 0.51747 0.65983 0.14006 0.0
C520 C 0.537 0.67905 0.1433 0.0
C521 C 0.55528 0.68269 0.12645 0.0
C522 C 0.53916 0.69447 0.16677 0.0
C523 C 0.49746 0.6547 0.15846 0.0
C524 C 0.52746 0.70435 0.16383 0.0
C525 C 0.52721 0.71629 0.18885 0.0
C526 C 0.53864 0.71846 0.21713 0.0
C527 C 0.55153 0.70982 0.21886 0.0
C528 C 0.55182 0.69799 0.19392 0.0
H529 H 0.48481 0.63783 0.15785 0.0
H530 H 0.50096 0.65882 0.18416 0.0
H531 H 0.49112 0.664 0.14747 0.0
H532 H 0.51786 0.70212 0.1428 0.0
H533 H 0.51711 0.72273 0.18693 0.0
H534 H 0.91515 0.49903 0.53482 0.0
H535 H 0.88808 0.50373 0.56036 0.0
H536 H 0.93567 0.54931 0.62184 0.0
H537 H 0.96291 0.54501 0.59602 0.0
H538 H 0.8763 0.4965 0.62645 0.0
H539 H 0.90547 0.57882 0.58667 0.0
H540 H 0.9141 0.56332 0.56725 0.0
H541 H 0.92552 0.57521 0.60475 0.0
C542 C 0.91994 0.51032 0.55339 0.0
C543 C 0.94124 0.52169 0.5633 0.0
C544 C 0.90442 0.51292 0.56806 0.0
C545 C 0.90989 0.52709 0.59267 0.0
C546 C 0.93114 0.53857 0.60247 0.0
H547 H 0.85317 0.55849 0.74009 0.0
H548 H 0.87535 0.55787 0.69679 0.0
C549 C 0.94666 0.53591 0.58794 0.0
C550 C 0.89318 0.52891 0.60963 0.0
H551 H 0.8796 0.56406 0.63032 0.0
C552 C 0.8768 0.51118 0.62691 0.0
C553 C 0.89388 0.54807 0.61019 0.0
C554 C 0.91057 0.56741 0.59098 0.0
C555 C 0.86173 0.51233 0.64609 0.0
C556 C 0.86275 0.53165 0.64739 0.0
C557 C 0.87874 0.54923 0.62921 0.0
C558 C 0.84883 0.53439 0.67014 0.0
C559 C 0.8456 0.4931 0.66618 0.0
C560 C 0.82645 0.52223 0.66872 0.0
C561 C 0.81369 0.52253 0.69364 0.0
C562 C 0.82315 0.53506 0.72022 0.0
C563 C 0.84546 0.54853 0.72004 0.0
C564 C 0.85816 0.5482 0.69528 0.0
H565 H 0.84977 0.48088 0.66754 0.0
H566 H 0.84426 0.4972 0.69121 0.0
H567 H 0.82973 0.48624 0.65509 0.0
H568 H 0.81889 0.51181 0.64914 0.0
H569 H 0.79655 0.51197 0.69319 0.0
H570 H 0.45564 0.93739 0.0694 0.0
H571 H 0.42549 0.90673 0.09813 0.0
H572 H 0.38265 0.92433 0.05868 0.0
H573 H 0.41284 0.95484 0.02966 0.0
H574 H 0.40013 0.90816 0.1444 0.0
H575 H 0.35053 0.86172 0.04356 0.0
H576 H 0.37808 0.88264 0.03769 0.0
H577 H 0.35748 0.88852 0.04089 0.0
C578 C 0.43969 0.93443 0.06659 0.0
C579 C 0.43636 0.9482 0.04728 0.0
C580 C 0.42252 0.91698 0.08291 0.0
C581 C 0.40174 0.91301 0.08013 0.0
C582 C 0.39842 0.92674 0.06052 0.0
H583 H 0.29721 0.85087 0.21567 0.0
H584 H 0.3232 0.87281 0.17256 0.0
C585 C 0.41562 0.9442 0.04416 0.0
C586 C 0.38392 0.89566 0.10004 0.0
H587 H 0.33368 0.8522 0.09646 0.0
C588 C 0.38573 0.8958 0.13385 0.0
C589 C 0.36514 0.87944 0.08627 0.0
C590 C 0.36271 0.87789 0.05009 0.0
C591 C 0.36906 0.88064 0.15427 0.0
C592 C 0.34999 0.86497 0.1406 0.0
C593 C 0.34831 0.86434 0.10681 0.0
C594 C 0.33141 0.84998 0.16161 0.0
C595 C 0.37177 0.88164 0.19049 0.0
C596 C 0.3268 0.82953 0.16867 0.0
C597 C 0.31182 0.81688 0.19328 0.0
C598 C 0.30143 0.82465 0.21106 0.0
C599 C 0.30503 0.84455 0.20227 0.0
C600 C 0.31986 0.85709 0.17773 0.0
H601 H 0.38865 0.89236 0.19699 0.0
H602 H 0.36206 0.8874 0.20104 0.0
H603 H 0.36603 0.8658 0.2017 0.0
H604 H 0.33566 0.82385 0.1565 0.0
H605 H 0.30945 0.80168 0.19987 0.0
H606 H 0.50847 0.44645 0.57057 0.0
H607 H 0.505 0.41402 0.59253 0.0
H608 H 0.45923 0.37934 0.51977 0.0
H609 H 0.46183 0.41176 0.49905 0.0
H610 H 0.44555 0.35866 0.57445 0.0
H611 H 0.52958 0.38175 0.562 0.0
H612 H 0.52785 0.40041 0.58525 0.0
H613 H 0.51991 0.39727 0.54355 0.0
C614 C 0.49781 0.43189 0.55918 0.0
C615 C 0.48565 0.43158 0.53286 0.0
C616 C 0.496 0.41339 0.57147 0.0
C617 C 0.48233 0.39421 0.55726 0.0
C618 C 0.4701 0.39392 0.53094 0.0
H619 H 0.49335 0.29179 0.64624 0.0
H620 H 0.49121 0.31373 0.6024 0.0
C621 C 0.47166 0.41242 0.51898 0.0
C622 C 0.47984 0.37441 0.57136 0.0
H623 H 0.50824 0.35391 0.6026 0.0
C624 C 0.45927 0.3575 0.58003 0.0
C625 C 0.49757 0.37242 0.57788 0.0
C626 C 0.51991 0.38887 0.56629 0.0
C627 C 0.4561 0.33941 0.59694 0.0
C628 C 0.47401 0.33844 0.60654 0.0
C629 C 0.49446 0.35468 0.59586 0.0
C630 C 0.47219 0.3221 0.63046 0.0
C631 C 0.43353 0.32164 0.60456 0.0
C632 C 0.46174 0.31896 0.66048 0.0
C633 C 0.46266 0.30623 0.68514 0.0
C634 C 0.47447 0.29667 0.68076 0.0
C635 C 0.484 0.29883 0.65022 0.0
C636 C 0.48293 0.31151 0.62528 0.0
H637 H 0.42268 0.32069 0.58516 0.0
H638 H 0.4324 0.30632 0.60738 0.0
H639 H 0.4278 0.32456 0.6274 0.0
H640 H 0.45384 0.32728 0.66562 0.0
H641 H 0.45505 0.30477 0.70838 0.0
H642 H 0.50026 0.91478 0.48721 0.0
H643 H 0.5042 0.88638 0.46881 0.0
H644 H 0.5596 0.93115 0.41086 0.0
H645 H 0.55602 0.95965 0.42957 0.0
H646 H 0.50311 0.87589 0.40407 0.0
H647 H 0.57972 0.89569 0.45873 0.0
H648 H 0.56414 0.90626 0.47232 0.0
H649 H 0.5808 0.91724 0.4363 0.0
C650 C 0.51352 0.91864 0.47101 0.0
C651 C 0.52786 0.93953 0.45992 0.0
C652 C 0.51569 0.90237 0.46041 0.0
C653 C 0.53237 0.90665 0.43883 0.0
C654 C 0.54684 0.92749 0.42799 0.0
H655 H 0.57039 0.84641 0.31108 0.0
H656 H 0.56836 0.86866 0.35054 0.0
C657 C 0.54462 0.94375 0.43842 0.0
C658 C 0.5338 0.88926 0.42577 0.0
H659 H 0.56737 0.87123 0.41669 0.0
C660 C 0.51699 0.87463 0.40724 0.0
C661 C 0.55195 0.88768 0.42991 0.0
C662 C 0.57011 0.90243 0.45064 0.0
C663 C 0.51828 0.85913 0.39135 0.0
C664 C 0.5367 0.85786 0.39476 0.0
C665 C 0.55322 0.87209 0.41421 0.0
C666 C 0.54002 0.84345 0.37546 0.0
C667 C 0.50042 0.84504 0.36956 0.0
C668 C 0.52552 0.82163 0.37751 0.0
C669 C 0.52665 0.80884 0.35481 0.0
C670 C 0.54236 0.8177 0.3299 0.0
C671 C 0.55803 0.83919 0.32993 0.0
C672 C 0.55687 0.85193 0.35246 0.0
H673 H 0.48965 0.85092 0.36436 0.0
H674 H 0.50684 0.84357 0.34619 0.0
H675 H 0.49074 0.82918 0.38158 0.0
H676 H 0.51267 0.81466 0.39556 0.0
H677 H 0.51433 0.79234 0.35529 0.0
H678 H 0.60091 0.5601 0.95949 0.0
H679 H 0.63241 0.56132 0.93701 0.0
H680 H 0.60122 0.49438 0.95472 0.0
H681 H 0.56942 0.49311 0.97572 0.0
H682 H 0.65996 0.55115 0.96058 0.0
H683 H 0.61628 0.49982 0.86017 0.0
H684 H 0.60463 0.51036 0.88553 0.0
H685 H 0.60514 0.48757 0.8993 0.0
C686 C 0.60082 0.54569 0.95829 0.0
C687 C 0.58266 0.52646 0.96858 0.0
C688 C 0.61882 0.54638 0.94567 0.0
C689 C 0.61905 0.52787 0.94342 0.0
C690 C 0.60124 0.50879 0.95525 0.0
H691 H 0.70942 0.50104 0.85725 0.0
H692 H 0.68391 0.501 0.89556 0.0
C693 C 0.58315 0.50807 0.96746 0.0
C694 C 0.63769 0.5285 0.92811 0.0
H695 H 0.65183 0.50846 0.86703 0.0
C696 C 0.65817 0.54181 0.94012 0.0
C697 C 0.63544 0.51643 0.90122 0.0
C698 C 0.61423 0.50291 0.88557 0.0
C699 C 0.67633 0.54323 0.92616 0.0
C700 C 0.67396 0.531 0.89958 0.0
C701 C 0.65354 0.51761 0.88773 0.0
C702 C 0.69246 0.53268 0.88215 0.0
C703 C 0.69793 0.55769 0.9399 0.0
C704 C 0.70617 0.55073 0.86269 0.0
C705 C 0.72069 0.55073 0.84083 0.0
C706 C 0.72186 0.53277 0.83835 0.0
C707 C 0.70919 0.51524 0.85938 0.0
C708 C 0.69451 0.51515 0.88101 0.0
H709 H 0.69666 0.56283 0.96419 0.0
H710 H 0.70719 0.54989 0.94182 0.0
H711 H 0.70697 0.57182 0.92337 0.0
H712 H 0.70459 0.56427 0.86272 0.0
H713 H 0.7299 0.5642 0.82422 0.0
H714 H 0.05311 0.59258 0.46518 0.0
H715 H 0.08544 0.6245 0.44332 0.0
H716 H 0.11919 0.5919 0.44624 0.0
H717 H 0.08673 0.5599 0.46747 0.0
H718 H 0.12694 0.6484 0.46754 0.0
H719 H 0.127 0.61345 0.35161 0.0
H720 H 0.1043 0.60139 0.37939 0.0
H721 H 0.12691 0.59905 0.38746 0.0
C722 C 0.06748 0.59233 0.46106 0.0
C723 C 0.0675 0.57385 0.46744 0.0
C724 C 0.08592 0.61052 0.44875 0.0
C725 C 0.10465 0.6105 0.44267 0.0
C726 C 0.10483 0.59217 0.45014 0.0
H727 H 0.22021 0.70407 0.33393 0.0
H728 H 0.197 0.67545 0.37342 0.0
C729 C 0.08637 0.57397 0.46235 0.0
C730 C 0.12374 0.62946 0.42766 0.0
H731 H 0.15556 0.64776 0.35922 0.0
C732 C 0.13328 0.64826 0.44393 0.0
C733 C 0.13204 0.62925 0.39688 0.0
C734 C 0.12197 0.60978 0.37761 0.0
C735 C 0.15081 0.66687 0.43013 0.0
C736 C 0.15881 0.66675 0.39905 0.0
C737 C 0.14957 0.64783 0.38317 0.0
C738 C 0.17536 0.68624 0.38105 0.0
C739 C 0.16061 0.68647 0.44898 0.0
C740 C 0.17134 0.70218 0.37302 0.0
C741 C 0.18465 0.71853 0.35075 0.0
C742 C 0.20223 0.71926 0.33613 0.0
C743 C 0.20705 0.70409 0.34556 0.0
C744 C 0.19369 0.68767 0.36784 0.0
H745 H 0.15766 0.68267 0.47547 0.0
H746 H 0.17807 0.69649 0.4441 0.0
H747 H 0.15325 0.69561 0.44171 0.0
H748 H 0.15706 0.70119 0.38215 0.0
H749 H 0.18033 0.72976 0.34313 0.0
H750 H 0.46061 0.05426 0.9192 0.0
H751 H 0.45687 0.08252 0.89549 0.0
H752 H 0.50926 0.12723 0.95156 0.0
H753 H 0.51354 0.09918 0.97471 0.0
H754 H 0.44974 0.11213 0.92542 0.0
H755 H 0.52745 0.15067 0.85736 0.0
H756 H 0.5149 0.12431 0.87499 0.0
H757 H 0.52844 0.14631 0.90024 0.0
C758 C 0.47143 0.07011 0.92638 0.0
C759 C 0.4875 0.07444 0.94867 0.0
C760 C 0.46914 0.08622 0.91301 0.0
C761 C 0.48294 0.10701 0.92147 0.0
C762 C 0.49862 0.11134 0.94437 0.0
H763 H 0.49856 0.21953 0.82086 0.0
H764 H 0.49997 0.19725 0.86477 0.0
C765 C 0.5009 0.09523 0.9578 0.0
C766 C 0.48128 0.12415 0.90543 0.0
H767 H 0.50724 0.16641 0.85181 0.0
C768 C 0.46237 0.12411 0.90952 0.0
C769 C 0.49783 0.13985 0.88485 0.0
C770 C 0.51826 0.14032 0.87879 0.0
C771 C 0.45941 0.13915 0.89313 0.0
C772 C 0.47564 0.15438 0.87161 0.0
C773 C 0.49484 0.15483 0.86843 0.0
C774 C 0.47236 0.16854 0.84953 0.0
C775 C 0.43888 0.13851 0.89893 0.0
C776 C 0.45601 0.15995 0.827 0.0
C777 C 0.45514 0.17263 0.80214 0.0
C778 C 0.4707 0.19416 0.7991 0.0
C779 C 0.48623 0.20304 0.82286 0.0
C780 C 0.48714 0.19029 0.84778 0.0
H781 H 0.43187 0.13145 0.92337 0.0
H782 H 0.44136 0.15442 0.89657 0.0
H783 H 0.42715 0.12863 0.8808 0.0
H784 H 0.44469 0.1432 0.82732 0.0
H785 H 0.44302 0.16538 0.78409 0.0
H786 H 0.39871 0.47464 0.47345 0.0
H787 H 0.3695 0.4755 0.44657 0.0
H788 H 0.41344 0.51775 0.37129 0.0
H789 H 0.44271 0.51723 0.39814 0.0
H790 H 0.38414 0.52912 0.3992 0.0
H791 H 0.3435 0.44719 0.35902 0.0
H792 H 0.35018 0.4513 0.40105 0.0
H793 H 0.37106 0.46129 0.37062 0.0
C794 C 0.40215 0.48419 0.45125 0.0
C795 C 0.42301 0.49574 0.43778 0.0
C796 C 0.38544 0.48457 0.43586 0.0
C797 C 0.38931 0.49656 0.40683 0.0
C798 C 0.41012 0.50834 0.39362 0.0
H799 H 0.3314 0.52557 0.25449 0.0
H800 H 0.35343 0.5265 0.29914 0.0
C801 C 0.42679 0.50788 0.40884 0.0
C802 C 0.37173 0.49676 0.38978 0.0
H803 H 0.32886 0.46721 0.34299 0.0
C804 C 0.3719 0.51553 0.38716 0.0
C805 C 0.35569 0.47897 0.37441 0.0
C806 C 0.35501 0.45852 0.37612 0.0
C807 C 0.35673 0.51713 0.36886 0.0
C808 C 0.34131 0.49964 0.35209 0.0
C809 C 0.34063 0.48062 0.35586 0.0
C810 C 0.32725 0.50121 0.32786 0.0
C811 C 0.35748 0.53761 0.36752 0.0
C812 C 0.3051 0.48682 0.3291 0.0
C813 C 0.29245 0.48615 0.30332 0.0
C814 C 0.30181 0.49972 0.27572 0.0
C815 C 0.32376 0.51489 0.27542 0.0
C816 C 0.33635 0.51555 0.3011 0.0
H817 H 0.36431 0.54623 0.38989 0.0
H818 H 0.36791 0.54766 0.34675 0.0
H819 H 0.34137 0.53512 0.36436 0.0
H820 H 0.29774 0.47552 0.34941 0.0
H821 H 0.27562 0.47415 0.30407 0.0
H822 H 0.9337 0.44701 0.90225 0.0
H823 H 0.90407 0.41718 0.87664 0.0
H824 H 0.90304 0.37536 0.95234 0.0
H825 H 0.93283 0.4052 0.97815 0.0
H826 H 0.90338 0.38298 0.85329 0.0
H827 H 0.84019 0.35743 0.94879 0.0
H828 H 0.86476 0.38269 0.94811 0.0
H829 H 0.8644 0.35955 0.96215 0.0
C830 C 0.92728 0.43147 0.91342 0.0
C831 C 0.93575 0.42852 0.94222 0.0
C832 C 0.91022 0.41443 0.89885 0.0
C833 C 0.90112 0.39404 0.91277 0.0
C834 C 0.90947 0.39099 0.94154 0.0
H835 H 0.80942 0.27565 0.82656 0.0
H836 H 0.8326 0.30105 0.86612 0.0
C837 C 0.92656 0.40807 0.95621 0.0
C838 C 0.88363 0.37604 0.89604 0.0
H839 H 0.8312 0.33631 0.90332 0.0
C840 C 0.88763 0.37279 0.86429 0.0
C841 C 0.86308 0.36265 0.91047 0.0
C842 C 0.8577 0.36577 0.94416 0.0
C843 C 0.87165 0.35668 0.84649 0.0
C844 C 0.85102 0.34358 0.86062 0.0
C845 C 0.84704 0.34644 0.8926 0.0
C846 C 0.83341 0.32746 0.84155 0.0
C847 C 0.87692 0.35383 0.81252 0.0
C848 C 0.8254 0.33375 0.8157 0.0
C849 C 0.81221 0.31935 0.79331 0.0
C850 C 0.80669 0.29837 0.79649 0.0
C851 C 0.81321 0.29167 0.8239 0.0
C852 C 0.82653 0.30617 0.84633 0.0
H853 H 0.8944 0.36236 0.80756 0.0
H854 H 0.86999 0.33696 0.80837 0.0
H855 H 0.86991 0.35993 0.79487 0.0
H856 H 0.83047 0.35009 0.81169 0.0
H857 H 0.80751 0.32489 0.77224 0.0
H858 H 0.93922 0.49549 0.94447 0.0
H859 H 0.90792 0.49521 0.92347 0.0
H860 H 0.92271 0.5477 0.98085 0.0
H861 H 0.95422 0.54813 0.00146 0.0
H862 H 0.87198 0.49088 0.95671 0.0
H863 H 0.91911 0.56792 0.88851 0.0
H864 H 0.93104 0.55375 0.90415 0.0
H865 H 0.92449 0.56791 0.93091 0.0
C866 C 0.93567 0.5069 0.95255 0.0
C867 C 0.94896 0.52183 0.97447 0.0
C868 C 0.91782 0.50671 0.94069 0.0
C869 C 0.91308 0.52155 0.95036 0.0
C870 C 0.92622 0.53629 0.97272 0.0
H871 H 0.81993 0.5465 0.86203 0.0
H872 H 0.84327 0.54535 0.90345 0.0
C873 C 0.9441 0.53648 0.98459 0.0
C874 C 0.89465 0.52177 0.93636 0.0
H875 H 0.8818 0.55047 0.88597 0.0
C876 C 0.87409 0.50398 0.94145 0.0
C877 C 0.8974 0.53891 0.9166 0.0
C878 C 0.91918 0.55817 0.90941 0.0
C879 C 0.85626 0.50271 0.92682 0.0
C880 C 0.85913 0.51953 0.90613 0.0
C881 C 0.87958 0.53762 0.902 0.0
C882 C 0.84178 0.51792 0.88568 0.0
C883 C 0.83456 0.48328 0.93346 0.0
C884 C 0.83272 0.50256 0.86257 0.0
C885 C 0.81943 0.5032 0.83911 0.0
C886 C 0.81494 0.51921 0.83825 0.0
C887 C 0.82286 0.5338 0.86257 0.0
C888 C 0.83632 0.53324 0.88602 0.0
H889 H 0.83383 0.47548 0.9573 0.0
H890 H 0.82184 0.48699 0.9331 0.0
H891 H 0.83127 0.47199 0.91451 0.0
H892 H 0.83703 0.49088 0.86129 0.0
H893 H 0.81373 0.49196 0.82032 0.0
H894 H 0.44753 0.93322 0.46528 0.0
H895 H 0.41455 0.9049 0.44249 0.0
H896 H 0.39144 0.9468 0.42988 0.0
H897 H 0.42441 0.97508 0.4527 0.0
H898 H 0.36981 0.88719 0.46193 0.0
H899 H 0.39031 0.92544 0.33806 0.0
H900 H 0.40984 0.93295 0.36922 0.0
H901 H 0.39122 0.94147 0.36989 0.0
C902 C 0.43531 0.93626 0.45773 0.0
C903 C 0.43847 0.95628 0.4603 0.0
C904 C 0.41651 0.92013 0.44485 0.0
C905 C 0.40065 0.92381 0.43417 0.0
C906 C 0.40358 0.94369 0.43758 0.0
H907 H 0.28998 0.85187 0.3166 0.0
H908 H 0.31502 0.87711 0.35434 0.0
C909 C 0.42235 0.9598 0.45058 0.0
C910 C 0.38142 0.90711 0.41838 0.0
H911 H 0.35675 0.89436 0.34577 0.0
C912 C 0.36687 0.88873 0.43655 0.0
C913 C 0.37766 0.90915 0.38529 0.0
C914 C 0.39312 0.92821 0.36429 0.0
C915 C 0.34849 0.87243 0.42255 0.0
C916 C 0.34482 0.8744 0.38932 0.0
C917 C 0.3594 0.89286 0.37129 0.0
C918 C 0.32654 0.85739 0.37207 0.0
C919 C 0.33305 0.85344 0.44361 0.0
C920 C 0.32397 0.83753 0.37037 0.0
C921 C 0.30933 0.82294 0.34923 0.0
C922 C 0.29721 0.82808 0.32922 0.0
C923 C 0.29887 0.84742 0.33227 0.0
C924 C 0.31332 0.8619 0.35359 0.0
H925 H 0.33436 0.85713 0.46959 0.0
H926 H 0.31633 0.84712 0.43632 0.0
H927 H 0.33676 0.84103 0.44116 0.0
H928 H 0.33429 0.8338 0.38368 0.0
H929 H 0.30871 0.80834 0.34664 0.0
H930 H 0.52554 0.43178 0.96904 0.0
H931 H 0.5258 0.40364 0.94162 0.0
H932 H 0.47022 0.39138 0.88904 0.0
H933 H 0.46988 0.41952 0.91625 0.0
H934 H 0.49604 0.36083 0.93731 0.0
H935 H 0.51336 0.40283 0.81696 0.0
H936 H 0.51539 0.41537 0.85423 0.0
H937 H 0.48978 0.39891 0.83675 0.0
C938 C 0.5132 0.42291 0.95195 0.0
C939 C 0.49779 0.42803 0.94463 0.0
C940 C 0.51341 0.40687 0.93623 0.0
C941 C 0.49827 0.39564 0.91286 0.0
C942 C 0.48237 0.40015 0.90644 0.0
H943 H 0.46596 0.28182 0.8197 0.0
H944 H 0.46968 0.30673 0.85958 0.0
C945 C 0.48219 0.41625 0.92201 0.0
C946 C 0.49951 0.37974 0.89436 0.0
H947 H 0.5044 0.36752 0.81752 0.0
C948 C 0.49799 0.36231 0.91113 0.0
C949 C 0.50246 0.38188 0.86026 0.0
C950 C 0.50556 0.40085 0.84097 0.0
C951 C 0.49876 0.3467 0.89459 0.0
C952 C 0.5008 0.34842 0.86035 0.0
C953 C 0.50278 0.3661 0.84375 0.0
C954 C 0.50042 0.33203 0.84076 0.0
C955 C 0.49764 0.32868 0.91398 0.0
C956 C 0.51659 0.33771 0.81726 0.0
C957 C 0.51434 0.32356 0.79432 0.0
C958 C 0.49597 0.30338 0.79467 0.0
C959 C 0.48049 0.29714 0.81949 0.0
C960 C 0.48262 0.3114 0.84226 0.0
H961 H 0.50296 0.33295 0.93916 0.0
H962 H 0.48088 0.31527 0.91536 0.0
H963 H 0.50761 0.3235 0.90252 0.0
H964 H 0.53044 0.35352 0.81552 0.0
H965 H 0.52629 0.3288 0.77505 0.0
H966 H 0.10006 0.50908 0.464 0.0
H967 H 0.1271 0.50499 0.43709 0.0
H968 H 0.07828 0.45517 0.38253 0.0
H969 H 0.05102 0.45866 0.41009 0.0
H970 H 0.10906 0.44675 0.40729 0.0
H971 H 0.147 0.52507 0.34264 0.0
H972 H 0.14482 0.52511 0.38594 0.0
H973 H 0.1211 0.5128 0.36252 0.0
C974 C 0.095 0.49704 0.44663 0.0
C975 C 0.07332 0.48428 0.4391 0.0
C976 C 0.11053 0.49487 0.43102 0.0
C977 C 0.10475 0.47999 0.40745 0.0
C978 C 0.08311 0.46684 0.40052 0.0
H979 H 0.16003 0.44478 0.26173 0.0
H980 H 0.13815 0.44508 0.3058 0.0
C981 C 0.06756 0.46899 0.4161 0.0
C982 C 0.12124 0.47847 0.38928 0.0
H983 H 0.16272 0.50528 0.33448 0.0
C984 C 0.12088 0.45958 0.3915 0.0
C985 C 0.13671 0.49525 0.36879 0.0
C986 C 0.13743 0.51566 0.36451 0.0
C987 C 0.13545 0.45695 0.37355 0.0
C988 C 0.15054 0.47354 0.35239 0.0
C989 C 0.15125 0.49261 0.35086 0.0
C990 C 0.16445 0.471 0.32935 0.0
C991 C 0.13453 0.43644 0.37741 0.0
C992 C 0.18663 0.48525 0.32808 0.0
C993 C 0.1992 0.48516 0.3027 0.0
C994 C 0.18973 0.47098 0.27797 0.0
C995 C 0.16775 0.4559 0.28045 0.0
C996 C 0.15524 0.45597 0.30578 0.0
H997 H 0.1276 0.4285 0.40148 0.0
H998 H 0.12417 0.42586 0.35862 0.0
H999 H 0.15061 0.43876 0.37454 0.0
H1000 H 0.19407 0.49707 0.34589 0.0
H1001 H 0.21604 0.49711 0.30122 0.0
H1002 H 0.56097 0.07329 0.93204 0.0
H1003 H 0.59349 0.10312 0.90641 0.0
H1004 H 0.63112 0.08128 0.95278 0.0
H1005 H 0.59846 0.05129 0.97822 0.0
H1006 H 0.63128 0.13501 0.93653 0.0
H1007 H 0.64771 0.08748 0.85538 0.0
H1008 H 0.62211 0.07714 0.87547 0.0
H1009 H 0.64424 0.08001 0.8979 0.0
C1010 C 0.57623 0.07495 0.93667 0.0
C1011 C 0.57739 0.06015 0.95691 0.0
C1012 C 0.59475 0.09195 0.92217 0.0
C1013 C 0.61469 0.09432 0.92749 0.0
C1014 C 0.61587 0.0796 0.94804 0.0
H1015 H 0.73234 0.18491 0.81688 0.0
H1016 H 0.70969 0.16005 0.86129 0.0
C1017 C 0.59731 0.06259 0.96261 0.0
C1018 C 0.63408 0.11211 0.91105 0.0
H1019 H 0.67098 0.124 0.85073 0.0
C1020 C 0.64012 0.13262 0.918 0.0
C1021 C 0.6457 0.10896 0.88712 0.0
C1022 C 0.63963 0.08724 0.87823 0.0
C1023 C 0.65708 0.15007 0.90097 0.0
C1024 C 0.66802 0.14691 0.87591 0.0
C1025 C 0.66262 0.12642 0.87001 0.0
C1026 C 0.68317 0.16423 0.85292 0.0
C1027 C 0.66292 0.17174 0.90968 0.0
C1028 C 0.67593 0.17507 0.83391 0.0
C1029 C 0.68876 0.18914 0.80878 0.0
C1030 C 0.70909 0.19266 0.80201 0.0
C1031 C 0.71683 0.18265 0.82194 0.0
C1032 C 0.70387 0.16839 0.84711 0.0
H1033 H 0.65869 0.1719 0.93544 0.0
H1034 H 0.68022 0.1833 0.90548 0.0
H1035 H 0.65386 0.17676 0.89444 0.0
H1036 H 0.65989 0.17181 0.83737 0.0
H1037 H 0.6824 0.19657 0.79357 0.0
H1038 H 0.49135 0.55743 0.44349 0.0
H1039 H 0.49172 0.58855 0.42169 0.0
H1040 H 0.54588 0.62777 0.47979 0.0
H1041 H 0.54572 0.59662 0.50108 0.0
H1042 H 0.48824 0.61928 0.45286 0.0
H1043 H 0.56665 0.65377 0.38817 0.0
H1044 H 0.55191 0.62701 0.40432 0.0
H1045 H 0.56665 0.64812 0.43084 0.0
C1046 C 0.50326 0.57274 0.45158 0.0
C1047 C 0.51849 0.57477 0.47389 0.0
C1048 C 0.50344 0.59046 0.43925 0.0
C1049 C 0.51896 0.61053 0.44885 0.0
C1050 C 0.53396 0.6125 0.47166 0.0
H1051 H 0.5478 0.73091 0.3591 0.0
H1052 H 0.54543 0.70558 0.40118 0.0
C1053 C 0.5338 0.59476 0.48395 0.0
C1054 C 0.51964 0.62931 0.43423 0.0
H1055 H 0.54979 0.67296 0.38453 0.0
C1056 C 0.50176 0.63111 0.43811 0.0
C1057 C 0.53732 0.6448 0.4151 0.0
C1058 C 0.55668 0.64335 0.40904 0.0
C1059 C 0.50095 0.64779 0.42296 0.0
C1060 C 0.51835 0.6629 0.40299 0.0
C1061 C 0.53651 0.66147 0.40002 0.0
C1062 C 0.5173 0.67896 0.38216 0.0
C1063 C 0.4814 0.64899 0.4283 0.0
C1064 C 0.50192 0.67257 0.35814 0.0
C1065 C 0.50324 0.68698 0.33431 0.0
C1066 C 0.51998 0.70808 0.33396 0.0
C1067 C 0.53454 0.71481 0.35921 0.0
C1068 C 0.53329 0.70032 0.38303 0.0
H1069 H 0.47319 0.64107 0.45179 0.0
H1070 H 0.48551 0.6655 0.42784 0.0
H1071 H 0.47003 0.64091 0.40874 0.0
H1072 H 0.48972 0.65616 0.35645 0.0
H1073 H 0.492 0.68138 0.31482 0.0
H1074 H 0.50191 0.07581 0.59477 0.0
H1075 H 0.49873 0.10406 0.61469 0.0
H1076 H 0.48842 0.11964 0.51759 0.0
H1077 H 0.48988 0.09026 0.49768 0.0
H1078 H 0.52179 0.14458 0.60333 0.0
H1079 H 0.43961 0.11705 0.56369 0.0
H1080 H 0.45103 0.10099 0.56198 0.0
H1081 H 0.45788 0.1214 0.53124 0.0
C1082 C 0.49843 0.08483 0.57761 0.0
C1083 C 0.49583 0.08036 0.54456 0.0
C1084 C 0.49691 0.10125 0.58905 0.0
C1085 C 0.49299 0.11387 0.56781 0.0
C1086 C 0.49092 0.10986 0.53468 0.0
H1087 H 0.50782 0.22515 0.66012 0.0
H1088 H 0.51228 0.20525 0.61839 0.0
C1089 C 0.4921 0.09318 0.52323 0.0
C1090 C 0.49135 0.13124 0.58075 0.0
H1091 H 0.45769 0.14925 0.58904 0.0
C1092 C 0.50782 0.14568 0.60004 0.0
C1093 C 0.4731 0.13269 0.57652 0.0
C1094 C 0.45431 0.11712 0.55749 0.0
C1095 C 0.50619 0.16084 0.61638 0.0
C1096 C 0.48787 0.16221 0.61236 0.0
C1097 C 0.47182 0.14837 0.59189 0.0
C1098 C 0.48364 0.17566 0.6327 0.0
C1099 C 0.52353 0.17431 0.63936 0.0
C1100 C 0.46525 0.16614 0.6528 0.0
C1101 C 0.46243 0.17756 0.67587 0.0
C1102 C 0.47803 0.19876 0.67971 0.0
C1103 C 0.49558 0.20882 0.65781 0.0
C1104 C 0.49829 0.19736 0.63431 0.0
H1105 H 0.53402 0.16814 0.64489 0.0
H1106 H 0.53364 0.19036 0.62816 0.0
H1107 H 0.5166 0.17537 0.66253 0.0
H1108 H 0.45357 0.14951 0.65193 0.0
H1109 H 0.44856 0.16945 0.69207 0.0
H1110 H 0.45077 0.52392 0.04012 0.0
H1111 H 0.41755 0.52014 0.0605 0.0
H1112 H 0.38597 0.45291 0.05742 0.0
H1113 H 0.41934 0.45676 0.03742 0.0
H1114 H 0.37694 0.50147 0.03381 0.0
H1115 H 0.37455 0.46091 0.15085 0.0
H1116 H 0.39801 0.47418 0.12459 0.0
H1117 H 0.37605 0.44871 0.11532 0.0
C1118 C 0.43669 0.50838 0.04389 0.0
C1119 C 0.43753 0.49061 0.03767 0.0
C1120 C 0.41774 0.50621 0.0554 0.0
C1121 C 0.39932 0.48623 0.06094 0.0
C1122 C 0.40007 0.46846 0.05395 0.0
H1123 H 0.27991 0.45329 0.16103 0.0
H1124 H 0.30458 0.45079 0.12415 0.0
C1125 C 0.41904 0.47064 0.04247 0.0
C1126 C 0.37952 0.48411 0.07446 0.0
H1127 H 0.3459 0.46561 0.14097 0.0
C1128 C 0.37008 0.49352 0.05716 0.0
C1129 C 0.3705 0.47367 0.10488 0.0
C1130 C 0.38034 0.46393 0.1252 0.0
C1131 C 0.35202 0.49298 0.0696 0.0
C1132 C 0.34334 0.48303 0.1004 0.0
C1133 C 0.35244 0.47311 0.11726 0.0
C1134 C 0.32621 0.48434 0.11711 0.0
C1135 C 0.34242 0.5031 0.04965 0.0
C1136 C 0.32978 0.50398 0.12464 0.0
C1137 C 0.31567 0.50538 0.14544 0.0
C1138 C 0.29768 0.48718 0.15908 0.0
C1139 C 0.29337 0.46752 0.15013 0.0
C1140 C 0.30758 0.46611 0.12936 0.0
H1141 H 0.34605 0.50366 0.02339 0.0
H1142 H 0.32485 0.49459 0.05351 0.0
H1143 H 0.34933 0.51946 0.05688 0.0
H1144 H 0.34424 0.51826 0.11624 0.0
H1145 H 0.31959 0.52068 0.1527 0.0
H1146 H 0.94133 0.44303 0.57473 0.0
H1147 H 0.91198 0.40937 0.59725 0.0
H1148 H 0.92209 0.3777 0.52096 0.0
H1149 H 0.95259 0.41133 0.5 0.0
H1150 H 0.87563 0.38156 0.57626 0.0
H1151 H 0.92189 0.3432 0.59569 0.0
H1152 H 0.93448 0.37059 0.58377 0.0
H1153 H 0.92178 0.35099 0.55414 0.0
C1154 C 0.93732 0.42882 0.56298 0.0
C1155 C 0.94919 0.42971 0.53574 0.0
C1156 C 0.92049 0.40959 0.57571 0.0
C1157 C 0.91493 0.39081 0.56121 0.0
C1158 C 0.92638 0.39179 0.53325 0.0
H1159 H 0.79536 0.28376 0.6491 0.0
H1160 H 0.82029 0.30654 0.6051 0.0
C1161 C 0.9436 0.41103 0.52099 0.0
C1162 C 0.89719 0.37043 0.57576 0.0
H1163 H 0.88513 0.32274 0.6084 0.0
C1164 C 0.87769 0.36866 0.58319 0.0
C1165 C 0.89982 0.35354 0.58485 0.0
C1166 C 0.92067 0.35469 0.57951 0.0
C1167 C 0.86127 0.35112 0.60088 0.0
C1168 C 0.86391 0.33424 0.6101 0.0
C1169 C 0.88298 0.33554 0.60114 0.0
C1170 C 0.84868 0.31676 0.63309 0.0
C1171 C 0.84191 0.35162 0.61128 0.0
C1172 C 0.85634 0.31325 0.66223 0.0
C1173 C 0.84222 0.2997 0.68676 0.0
C1174 C 0.82005 0.28961 0.68305 0.0
C1175 C 0.81235 0.29146 0.65277 0.0
C1176 C 0.8266 0.30479 0.62783 0.0
H1177 H 0.84466 0.36765 0.60852 0.0
H1178 H 0.8283 0.34129 0.596 0.0
H1179 H 0.83737 0.34599 0.63699 0.0
H1180 H 0.87326 0.32197 0.6669 0.0
H1181 H 0.84867 0.29823 0.70956 0.0
H1182 H 0.49157 0.91052 0.03861 0.0
H1183 H 0.49367 0.88215 0.06625 0.0
H1184 H 0.5538 0.92766 0.10613 0.0
H1185 H 0.55177 0.95604 0.07878 0.0
H1186 H 0.52412 0.8701 0.06561 0.0
H1187 H 0.51664 0.89541 0.18645 0.0
H1188 H 0.51122 0.9052 0.14944 0.0
H1189 H 0.53825 0.91592 0.16196 0.0
C1190 C 0.50538 0.91446 0.05292 0.0
C1191 C 0.52139 0.93555 0.05681 0.0
C1192 C 0.50652 0.89824 0.06875 0.0
C1193 C 0.52368 0.90281 0.08874 0.0
C1194 C 0.54016 0.92379 0.09142 0.0
H1195 H 0.56653 0.8414 0.21606 0.0
H1196 H 0.56297 0.8632 0.17406 0.0
C1197 C 0.53898 0.93999 0.07579 0.0
C1198 C 0.52403 0.88584 0.10796 0.0
H1199 H 0.52678 0.87015 0.18558 0.0
C1200 C 0.52451 0.86997 0.09185 0.0
C1201 C 0.52425 0.88554 0.14223 0.0
C1202 C 0.52234 0.9013 0.16109 0.0
C1203 C 0.52613 0.85433 0.10917 0.0
C1204 C 0.52724 0.85463 0.14327 0.0
C1205 C 0.52612 0.87011 0.15935 0.0
C1206 C 0.53049 0.83971 0.16312 0.0
C1207 C 0.52734 0.83797 0.09106 0.0
C1208 C 0.51362 0.81899 0.17004 0.0
C1209 C 0.51567 0.80643 0.19408 0.0
C1210 C 0.53455 0.81457 0.21151 0.0
C1211 C 0.55184 0.83478 0.20288 0.0
C1212 C 0.54981 0.84724 0.17897 0.0
H1213 H 0.52796 0.84084 0.06437 0.0
H1214 H 0.54168 0.83767 0.09825 0.0
H1215 H 0.51315 0.82227 0.0976 0.0
H1216 H 0.4985 0.813 0.15831 0.0
H1217 H 0.50205 0.791 0.20062 0.0
H1218 H 0.60954 0.53796 0.53383 0.0
H1219 H 0.63993 0.53845 0.55887 0.0
H1220 H 0.59742 0.4912 0.63053 0.0
H1221 H 0.56699 0.49031 0.60536 0.0
H1222 H 0.65323 0.54765 0.62339 0.0
H1223 H 0.63266 0.46755 0.59664 0.0
H1224 H 0.62096 0.48056 0.57575 0.0
H1225 H 0.6111 0.46826 0.61543 0.0
C1226 C 0.60665 0.52751 0.55471 0.0
C1227 C 0.58583 0.51408 0.56759 0.0
C1228 C 0.62403 0.52787 0.56904 0.0
C1229 C 0.6209 0.51462 0.59623 0.0
C1230 C 0.60017 0.50127 0.60919 0.0
H1231 H 0.68499 0.49341 0.7468 0.0
H1232 H 0.66162 0.49163 0.70357 0.0
C1233 C 0.58282 0.50098 0.59502 0.0
C1234 C 0.63931 0.51536 0.61217 0.0
H1235 H 0.65836 0.48456 0.63774 0.0
C1236 C 0.65462 0.53399 0.62608 0.0
C1237 C 0.64108 0.49753 0.61552 0.0
C1238 C 0.6257 0.47739 0.59978 0.0
C1239 C 0.67092 0.53491 0.64493 0.0
C1240 C 0.6722 0.51681 0.64937 0.0
C1241 C 0.65741 0.49844 0.63427 0.0
C1242 C 0.68709 0.51594 0.67268 0.0
C1243 C 0.68585 0.55489 0.66147 0.0
C1244 C 0.70933 0.5295 0.66903 0.0
C1245 C 0.72278 0.53054 0.69386 0.0
C1246 C 0.71412 0.51801 0.72259 0.0
C1247 C 0.69205 0.50336 0.725 0.0
C1248 C 0.67869 0.50232 0.70031 0.0
H1249 H 0.68023 0.56602 0.66039 0.0
H1250 H 0.68759 0.55146 0.68729 0.0
H1251 H 0.70183 0.56275 0.64936 0.0
H1252 H 0.7162 0.53985 0.6476 0.0
H1253 H 0.73973 0.54198 0.69145 0.0
H1254 H 0.05142 0.59722 0.09758 0.0
H1255 H 0.07831 0.62833 0.12454 0.0
H1256 H 0.1279 0.63002 0.06667 0.0
H1257 H 0.10109 0.59884 0.03962 0.0
H1258 H 0.11092 0.63102 0.16075 0.0
H1259 H 0.14402 0.69113 0.05893 0.0
H1260 H 0.11903 0.66645 0.05663 0.0
H1261 H 0.14385 0.66764 0.05164 0.0
C1262 C 0.06804 0.60423 0.0905 0.0
C1263 C 0.07408 0.59547 0.06646 0.0
C1264 C 0.08339 0.6221 0.1058 0.0
C1265 C 0.10511 0.6317 0.09736 0.0
C1266 C 0.11121 0.62321 0.07306 0.0
H1267 H 0.2191 0.72612 0.19285 0.0
H1268 H 0.19479 0.70231 0.15261 0.0
C1269 C 0.09585 0.60533 0.05766 0.0
C1270 C 0.12137 0.64955 0.11581 0.0
H1271 H 0.16208 0.70098 0.1088 0.0
C1272 C 0.12202 0.64633 0.14937 0.0
C1273 C 0.13601 0.66949 0.1009 0.0
C1274 C 0.13566 0.67403 0.06508 0.0
C1275 C 0.13689 0.6624 0.16844 0.0
C1276 C 0.15131 0.68242 0.15368 0.0
C1277 C 0.15093 0.68565 0.12004 0.0
C1278 C 0.16665 0.70003 0.17332 0.0
C1279 C 0.13722 0.65771 0.20426 0.0
C1280 C 0.15906 0.70749 0.1971 0.0
C1281 C 0.17284 0.72099 0.21996 0.0
C1282 C 0.19452 0.72745 0.21924 0.0
C1283 C 0.2025 0.7215 0.19371 0.0
C1284 C 0.18862 0.70784 0.17087 0.0
H1285 H 0.12882 0.64059 0.2103 0.0
H1286 H 0.15385 0.66519 0.21269 0.0
H1287 H 0.1291 0.6641 0.21787 0.0
H1288 H 0.14222 0.70189 0.19913 0.0
H1289 H 0.16633 0.72537 0.23942 0.0
loop_
_geom_bond_atom_site_label_1
_geom_bond_atom_site_label_2
_geom_bond_distance
_geom_bond_site_symmetry_2
_ccdc_geom_bond_type
C0 C1 1.443 1_556 S
C0 N4 1.376 1_556 S
C0 C38 1.389 . S
C1 C0 1.443 1_554 S
C1 C2 1.340 . S
C1 H41 0.951 . S
C2 C1 1.340 . S
C2 C3 1.439 . S
C2 H42 0.950 . S
C3 C2 1.439 . S
C3 N4 1.374 . S
C3 C37 1.395 . S
N4 C0 1.376 1_554 S
N4 C3 1.374 . S
N4 Co5 2.008 1_655 S
Co5 N4 2.008 1_455 S
Co5 N6 1.995 . S
Co5 N11 2.008 1_554 S
Co5 N16 1.995 1_554 S
Co5 N21 2.282 . S
Co5 N27 2.282 1_454 S
N6 Co5 1.995 . S
N6 C7 1.376 1_455 S
N6 C10 1.383 . S
C7 N6 1.376 1_655 S
C7 C8 1.446 . S
C7 C37 1.391 . S
C8 C7 1.446 . S
C8 C9 1.339 1_655 S
C8 H43 0.949 . S
C9 C8 1.339 1_455 S
C9 C10 1.439 . S
C9 H44 0.950 . S
C10 N6 1.383 . S
C10 C9 1.439 . S
C10 C39 1.392 . S
N11 Co5 2.008 1_556 S
N11 C12 1.376 1_556 S
N11 C15 1.374 . S
C12 N11 1.376 1_554 S
C12 C13 1.443 1_554 S
C12 C39 1.389 . S
C13 C12 1.443 1_556 S
C13 C14 1.340 . S
C13 H45 0.951 . S
C14 C13 1.340 . S
C14 C15 1.439 . S
C14 H46 0.950 . S
C15 N11 1.374 . S
C15 C14 1.439 . S
C15 C40 1.395 . S
N16 Co5 1.995 1_556 S
N16 C17 1.376 . S
N16 C20 1.383 1_455 S
C17 N16 1.376 . S
C17 C18 1.446 . S
C17 C40 1.391 . S
C18 C17 1.446 . S
C18 C19 1.339 1_455 S
C18 H47 0.949 . S
C19 C18 1.339 1_655 S
C19 C20 1.439 . S
C19 H48 0.950 . S
C20 N16 1.383 1_655 S
C20 C19 1.439 . S
C20 C38 1.392 . S
N21 Co5 2.282 . S
N21 C24 1.332 . S
N21 C26 1.332 . S
C22 C23 1.386 . S
C22 C25 1.388 . S
C23 C22 1.386 . S
C23 C24 1.382 . S
C23 H49 0.950 . S
C24 N21 1.332 . S
C24 C23 1.382 . S
C24 H35 0.952 1_554 S
C25 C22 1.388 . S
C25 C26 1.382 . S
C25 H50 0.950 . S
C26 N21 1.332 . S
C26 C25 1.382 . S
C26 H36 0.948 . S
N27 Co5 2.282 1_656 S
N27 C31 1.332 . S
N27 C32 1.332 . S
C28 C29 1.388 . S
C28 C32 1.382 . S
C28 H51 0.950 . S
C29 C28 1.388 . S
C29 C30 1.386 . S
C30 C29 1.386 . S
C30 C31 1.382 . S
C30 H52 0.950 . S
C31 N27 1.332 . S
C31 C30 1.382 . S
C31 H33 0.952 1_556 S
C32 N27 1.332 . S
C32 C28 1.382 . S
C32 H34 0.948 . S
H33 C31 0.952 1_554 S
H34 C32 0.948 . S
H35 C24 0.952 1_556 S
H36 C26 0.948 . S
C37 C3 1.395 . S
C37 C7 1.391 . S
C38 C0 1.389 . S
C38 C20 1.392 . S
C39 C10 1.392 . S
C39 C12 1.389 . S
C40 C15 1.395 . S
C40 C17 1.391 . S
H41 C1 0.951 . S
H42 C2 0.950 . S
H43 C8 0.949 . S
H44 C9 0.950 . S
H45 C13 0.951 . S
H46 C14 0.950 . S
H47 C18 0.949 . S
H48 C19 0.950 . S
H49 C23 0.950 . S
H50 C25 0.950 . S
H51 C28 0.950 . S
H52 C30 0.950 . S
C53 C54 1.443 . S
C53 N57 1.376 . S
C53 C91 1.389 . S
C54 C53 1.443 . S
C54 C55 1.333 1_545 S
C54 H94 0.951 . S
C55 C54 1.333 1_565 S
C55 C56 1.441 . S
C55 H95 0.954 . S
C56 C55 1.441 . S
C56 N57 1.374 1_565 S
C56 C90 1.395 . S
N57 C53 1.376 . S
N57 C56 1.374 1_545 S
N57 Co58 2.008 . S
Co58 N57 2.008 . S
Co58 N59 1.995 1_545 S
Co58 N64 2.008 . S
Co58 N69 1.995 . S
Co58 N74 2.282 1_545 S
Co58 N80 2.282 . S
N59 Co58 1.995 1_565 S
N59 C60 1.376 . S
N59 C63 1.383 . S
C60 N59 1.376 . S
C60 C61 1.446 . S
C60 C90 1.391 . S
C61 C60 1.446 . S
C61 C62 1.339 . S
C61 H96 0.949 . S
C62 C61 1.339 . S
C62 C63 1.439 . S
C62 H97 0.950 . S
C63 N59 1.383 . S
C63 C62 1.439 . S
C63 C92 1.392 . S
N64 Co58 2.008 . S
N64 C65 1.376 1_545 S
N64 C68 1.374 . S
C65 N64 1.376 1_565 S
C65 C66 1.443 . S
C65 C92 1.389 . S
C66 C65 1.443 . S
C66 C67 1.340 1_565 S
C66 H98 0.951 . S
C67 C66 1.340 1_545 S
C67 C68 1.439 . S
C67 H99 0.950 . S
C68 N64 1.374 . S
C68 C67 1.439 . S
C68 C93 1.395 . S
N69 Co58 1.995 . S
N69 C70 1.376 . S
N69 C73 1.383 . S
C70 N69 1.376 . S
C70 C71 1.446 . S
C70 C93 1.391 . S
C71 C70 1.446 . S
C71 C72 1.339 . S
C71 H100 0.949 . S
C72 C71 1.339 . S
C72 C73 1.439 . S
C72 H101 0.950 . S
C73 N69 1.383 . S
C73 C72 1.439 . S
C73 C91 1.392 . S
N74 Co58 2.282 1_565 S
N74 C77 1.332 . S
N74 C79 1.332 . S
C75 C76 1.386 . S
C75 C78 1.388 . S
C76 C75 1.386 . S
C76 C77 1.382 . S
C76 H102 0.950 . S
C77 N74 1.332 . S
C77 C76 1.382 . S
C77 H88 0.952 1_565 S
C78 C75 1.388 . S
C78 C79 1.382 . S
C78 H103 0.950 . S
C79 N74 1.332 . S
C79 C78 1.382 . S
C79 H89 0.948 . S
N80 Co58 2.282 . S
N80 C84 1.332 . S
N80 C85 1.332 . S
C81 C82 1.388 . S
C81 C85 1.382 . S
C81 H104 0.950 . S
C82 C81 1.388 . S
C82 C83 1.386 . S
C83 C82 1.386 . S
C83 C84 1.382 . S
C83 H105 0.950 . S
C84 N80 1.332 . S
C84 C83 1.382 . S
C84 H86 0.952 . S
C85 N80 1.332 . S
C85 C81 1.382 . S
C85 H87 0.948 . S
H86 C84 0.952 . S
H87 C85 0.948 . S
H88 C77 0.952 1_545 S
H89 C79 0.948 . S
C90 C56 1.395 . S
C90 C60 1.391 . S
C91 C53 1.389 . S
C91 C73 1.392 . S
C92 C63 1.392 . S
C92 C65 1.389 . S
C93 C68 1.395 . S
C93 C70 1.391 . S
H94 C54 0.951 . S
H95 C55 0.954 . S
H96 C61 0.949 . S
H97 C62 0.950 . S
H98 C66 0.951 . S
H99 C67 0.950 . S
H100 C71 0.949 . S
H101 C72 0.950 . S
H102 C76 0.950 . S
H103 C78 0.950 . S
H104 C81 0.950 . S
H105 C83 0.950 . S
C106 C107 1.443 . S
C106 N110 1.376 . S
C106 C144 1.389 . S
C107 C106 1.443 . S
C107 C108 1.340 . S
C107 H147 0.951 . S
C108 C107 1.340 . S
C108 C109 1.439 . S
C108 H148 0.950 . S
C109 C108 1.439 . S
C109 N110 1.374 . S
C109 C143 1.395 . S
N110 C106 1.376 . S
N110 C109 1.374 . S
N110 Co111 2.008 1_556 S
Co111 N110 2.008 1_554 S
Co111 N112 1.995 1_554 S
Co111 N117 2.008 . S
Co111 N122 1.995 . S
Co111 N127 2.282 . S
Co111 N133 2.282 1_554 S
N112 Co111 1.995 1_556 S
N112 C113 1.376 . S
N112 C116 1.383 1_556 S
C113 N112 1.376 . S
C113 C114 1.446 . S
C113 C143 1.391 . S
C114 C113 1.446 . S
C114 C115 1.339 . S
C114 H149 0.949 . S
C115 C114 1.339 . S
C115 C116 1.439 1_556 S
C115 H150 0.950 . S
C116 N112 1.383 1_554 S
C116 C115 1.439 1_554 S
C116 C145 1.392 . S
N117 Co111 2.008 . S
N117 C118 1.376 . S
N117 C121 1.374 . S
C118 N117 1.376 . S
C118 C119 1.443 . S
C118 C145 1.389 . S
C119 C118 1.443 . S
C119 C120 1.340 . S
C119 H151 0.951 . S
C120 C119 1.340 . S
C120 C121 1.439 . S
C120 H152 0.950 . S
C121 N117 1.374 . S
C121 C120 1.439 . S
C121 C146 1.395 . S
N122 Co111 1.995 . S
N122 C123 1.376 . S
N122 C126 1.383 1_554 S
C123 N122 1.376 . S
C123 C124 1.446 . S
C123 C146 1.391 . S
C124 C123 1.446 . S
C124 C125 1.339 . S
C124 H153 0.949 . S
C125 C124 1.339 . S
C125 C126 1.439 1_554 S
C125 H154 0.950 . S
C126 N122 1.383 1_556 S
C126 C125 1.439 1_556 S
C126 C144 1.392 . S
N127 Co111 2.282 . S
N127 C130 1.332 . S
N127 C132 1.332 . S
C128 C129 1.386 . S
C128 C131 1.388 . S
C129 C128 1.386 . S
C129 C130 1.382 . S
C129 H155 0.950 . S
C130 N127 1.332 . S
C130 C129 1.382 . S
C130 H141 0.952 . S
C131 C128 1.388 . S
C131 C132 1.382 . S
C131 H156 0.950 . S
C132 N127 1.332 . S
C132 C131 1.382 . S
C132 H142 0.948 1_554 S
N133 Co111 2.282 1_556 S
N133 C137 1.332 . S
N133 C138 1.332 . S
C134 C135 1.388 . S
C134 C138 1.382 . S
C134 H157 0.950 . S
C135 C134 1.388 . S
C135 C136 1.386 . S
C136 C135 1.386 . S
C136 C137 1.382 . S
C136 H158 0.950 . S
C137 N133 1.332 . S
C137 C136 1.382 . S
C137 H139 0.952 . S
C138 N133 1.332 . S
C138 C134 1.382 . S
C138 H140 0.948 1_556 S
H139 C137 0.952 . S
H140 C138 0.948 1_554 S
H141 C130 0.952 . S
H142 C132 0.948 1_556 S
C143 C109 1.395 . S
C143 C113 1.391 . S
C144 C106 1.389 . S
C144 C126 1.392 . S
C145 C116 1.392 . S
C145 C118 1.389 . S
C146 C121 1.395 . S
C146 C123 1.391 . S
H147 C107 0.951 . S
H148 C108 0.950 . S
H149 C114 0.949 . S
H150 C115 0.950 . S
H151 C119 0.951 . S
H152 C120 0.950 . S
H153 C124 0.949 . S
H154 C125 0.950 . S
H155 C129 0.950 . S
H156 C131 0.950 . S
H157 C134 0.950 . S
H158 C136 0.950 . S
C159 C160 1.443 . S
C159 N163 1.376 . S
C159 C197 1.389 . S
C160 C159 1.443 . S
C160 C161 1.340 . S
C160 H200 0.951 . S
C161 C160 1.340 . S
C161 C162 1.439 . S
C161 H201 0.950 . S
C162 C161 1.439 . S
C162 N163 1.374 . S
C162 C196 1.395 . S
N163 C159 1.376 . S
N163 C162 1.374 . S
N163 Co164 2.008 1_655 S
Co164 N163 2.008 1_455 S
Co164 N165 1.995 . S
Co164 N170 2.008 . S
Co164 N175 1.995 . S
Co164 N180 2.282 . S
Co164 N186 2.282 1_455 S
N165 Co164 1.995 . S
N165 C166 1.376 1_455 S
N165 C169 1.383 . S
C166 N165 1.376 1_655 S
C166 C167 1.446 . S
C166 C196 1.391 . S
C167 C166 1.446 . S
C167 C168 1.339 1_655 S
C167 H202 0.949 . S
C168 C167 1.339 1_455 S
C168 C169 1.439 . S
C168 H203 0.950 . S
C169 N165 1.383 . S
C169 C168 1.439 . S
C169 C198 1.392 . S
N170 Co164 2.008 . S
N170 C171 1.376 . S
N170 C174 1.374 . S
C171 N170 1.376 . S
C171 C172 1.443 . S
C171 C198 1.389 . S
C172 C171 1.443 . S
C172 C173 1.340 . S
C172 H204 0.951 . S
C173 C172 1.340 . S
C173 C174 1.439 . S
C173 H205 0.950 . S
C174 N170 1.374 . S
C174 C173 1.439 . S
C174 C199 1.395 . S
N175 Co164 1.995 . S
N175 C176 1.376 . S
N175 C179 1.383 1_455 S
C176 N175 1.376 . S
C176 C177 1.446 . S
C176 C199 1.391 . S
C177 C176 1.446 . S
C177 C178 1.339 1_455 S
C177 H206 0.949 . S
C178 C177 1.339 1_655 S
C178 C179 1.439 . S
C178 H207 0.950 . S
C179 N175 1.383 1_655 S
C179 C178 1.439 . S
C179 C197 1.392 . S
N180 Co164 2.282 . S
N180 C183 1.332 . S
N180 C185 1.332 . S
C181 C182 1.386 . S
C181 C184 1.388 . S
C182 C181 1.386 . S
C182 C183 1.382 . S
C182 H208 0.950 . S
C183 N180 1.332 . S
C183 C182 1.382 . S
C183 H194 0.952 . S
C184 C181 1.388 . S
C184 C185 1.382 . S
C184 H209 0.950 . S
C185 N180 1.332 . S
C185 C184 1.382 . S
C185 H195 0.948 . S
N186 Co164 2.282 1_655 S
N186 C190 1.332 . S
N186 C191 1.332 . S
C187 C188 1.388 . S
C187 C191 1.382 . S
C187 H210 0.950 . S
C188 C187 1.388 . S
C188 C189 1.386 . S
C189 C188 1.386 . S
C189 C190 1.382 . S
C189 H211 0.950 . S
C190 N186 1.332 . S
C190 C189 1.382 . S
C190 H192 0.952 . S
C191 N186 1.332 . S
C191 C187 1.382 . S
C191 H193 0.948 . S
H192 C190 0.952 . S
H193 C191 0.948 . S
H194 C183 0.952 . S
H195 C185 0.948 . S
C196 C162 1.395 . S
C196 C166 1.391 . S
C197 C159 1.389 . S
C197 C179 1.392 . S
C198 C169 1.392 . S
C198 C171 1.389 . S
C199 C174 1.395 . S
C199 C176 1.391 . S
H200 C160 0.951 . S
H201 C161 0.950 . S
H202 C167 0.949 . S
H203 C168 0.950 . S
H204 C172 0.951 . S
H205 C173 0.950 . S
H206 C177 0.949 . S
H207 C178 0.950 . S
H208 C182 0.950 . S
H209 C184 0.950 . S
H210 C187 0.950 . S
H211 C189 0.950 . S
C212 C213 1.443 . S
C212 N216 1.376 1_565 S
C212 C250 1.389 . S
C213 C212 1.443 . S
C213 C214 1.340 1_565 S
C213 H253 0.951 . S
C214 C213 1.340 1_545 S
C214 C215 1.439 . S
C214 H254 0.950 . S
C215 C214 1.439 . S
C215 N216 1.374 . S
C215 C249 1.395 . S
N216 C212 1.376 1_545 S
N216 C215 1.374 . S
N216 Co217 2.008 . S
Co217 N216 2.008 . S
Co217 N218 1.995 . S
Co217 N223 2.008 1_554 S
Co217 N228 1.995 1_544 S
Co217 N233 2.282 1_554 S
Co217 N239 2.282 1_545 S
N218 Co217 1.995 . S
N218 C219 1.376 . S
N218 C222 1.383 1_554 S
C219 N218 1.376 . S
C219 C220 1.446 . S
C219 C249 1.391 . S
C220 C219 1.446 . S
C220 C221 1.339 . S
C220 H255 0.949 . S
C221 C220 1.339 . S
C221 C222 1.439 1_554 S
C221 H256 0.948 . S
C222 N218 1.383 1_556 S
C222 C221 1.439 1_556 S
C222 C251 1.392 . S
N223 Co217 2.008 1_556 S
N223 C224 1.376 . S
N223 C227 1.374 1_545 S
C224 N223 1.376 . S
C224 C225 1.443 . S
C224 C251 1.389 . S
C225 C224 1.443 . S
C225 C226 1.340 . S
C225 H257 0.951 . S
C226 C225 1.340 . S
C226 C227 1.439 1_545 S
C226 H258 0.950 1_545 S
C227 N223 1.374 1_565 S
C227 C226 1.439 1_565 S
C227 C252 1.395 . S
N228 Co217 1.995 1_566 S
N228 C229 1.376 . S
N228 C232 1.383 1_556 S
C229 N228 1.376 . S
C229 C230 1.446 . S
C229 C252 1.391 . S
C230 C229 1.446 . S
C230 C231 1.339 . S
C230 H259 0.949 . S
C231 C230 1.339 . S
C231 C232 1.439 1_556 S
C231 H260 0.950 1_556 S
C232 N228 1.383 1_554 S
C232 C231 1.439 1_554 S
C232 C250 1.392 . S
N233 Co217 2.282 1_556 S
N233 C236 1.332 . S
N233 C238 1.332 . S
C234 C235 1.386 . S
C234 C237 1.388 . S
C235 C234 1.386 . S
C235 C236 1.382 . S
C235 H261 0.950 . S
C236 N233 1.332 . S
C236 C235 1.382 . S
C236 H247 0.952 . S
C237 C234 1.388 . S
C237 C238 1.382 . S
C237 H262 0.950 . S
C238 N233 1.332 . S
C238 C237 1.382 . S
C238 H248 0.948 1_556 S
N239 Co217 2.282 1_565 S
N239 C243 1.332 . S
N239 C244 1.332 . S
C240 C241 1.388 . S
C240 C244 1.382 . S
C240 H263 0.950 . S
C241 C240 1.388 . S
C241 C242 1.386 . S
C242 C241 1.386 . S
C242 C243 1.382 . S
C242 H264 0.950 . S
C243 N239 1.332 . S
C243 C242 1.382 . S
C243 H245 0.952 1_565 S
C244 N239 1.332 . S
C244 C240 1.382 . S
C244 H246 0.948 1_554 S
H245 C243 0.952 1_545 S
H246 C244 0.948 1_556 S
H247 C236 0.952 . S
H248 C238 0.948 1_554 S
C249 C215 1.395 . S
C249 C219 1.391 . S
C250 C212 1.389 . S
C250 C232 1.392 . S
C251 C222 1.392 . S
C251 C224 1.389 . S
C252 C227 1.395 . S
C252 C229 1.391 . S
H253 C213 0.951 . S
H254 C214 0.950 . S
H255 C220 0.949 . S
H256 C221 0.948 . S
H257 C225 0.951 . S
H258 C226 0.950 1_565 S
H259 C230 0.949 . S
H260 C231 0.950 1_554 S
H261 C235 0.950 . S
H262 C237 0.950 . S
H263 C240 0.950 . S
H264 C242 0.950 . S
C265 C266 1.443 . S
C265 N269 1.376 . S
C265 C303 1.389 . S
C266 C265 1.443 . S
C266 C267 1.340 . S
C266 H306 0.951 . S
C267 C266 1.340 . S
C267 C268 1.439 . S
C267 H307 0.950 . S
C268 C267 1.439 . S
C268 N269 1.374 . S
C268 C302 1.395 . S
N269 C265 1.376 . S
N269 C268 1.374 . S
N269 Co270 2.008 . S
Co270 N269 2.008 . S
Co270 N271 1.995 . S
Co270 N276 2.008 . S
Co270 N281 1.995 . S
Co270 N286 2.282 . S
Co270 N292 2.282 . S
N271 Co270 1.995 . S
N271 C272 1.376 . S
N271 C275 1.383 . S
C272 N271 1.376 . S
C272 C273 1.446 . S
C272 C302 1.391 . S
C273 C272 1.446 . S
C273 C274 1.339 . S
C273 H308 0.949 . S
C274 C273 1.339 . S
C274 C275 1.439 . S
C274 H309 0.950 . S
C275 N271 1.383 . S
C275 C274 1.439 . S
C275 C304 1.392 . S
N276 Co270 2.008 . S
N276 C277 1.376 . S
N276 C280 1.374 . S
C277 N276 1.376 . S
C277 C278 1.443 . S
C277 C304 1.389 . S
C278 C277 1.443 . S
C278 C279 1.340 . S
C278 H310 0.951 . S
C279 C278 1.340 . S
C279 C280 1.439 . S
C279 H311 0.950 . S
C280 N276 1.374 . S
C280 C279 1.439 . S
C280 C305 1.395 . S
N281 Co270 1.995 . S
N281 C282 1.376 . S
N281 C285 1.383 . S
C282 N281 1.376 . S
C282 C283 1.446 . S
C282 C305 1.391 . S
C283 C282 1.446 . S
C283 C284 1.339 . S
C283 H312 0.949 . S
C284 C283 1.339 . S
C284 C285 1.439 . S
C284 H313 0.950 . S
C285 N281 1.383 . S
C285 C284 1.439 . S
C285 C303 1.392 . S
N286 Co270 2.282 . S
N286 C289 1.332 . S
N286 C291 1.332 . S
C287 C288 1.386 . S
C287 C290 1.388 . S
C288 C287 1.386 . S
C288 C289 1.382 . S
C288 H314 0.950 . S
C289 N286 1.332 . S
C289 C288 1.382 . S
C289 H300 0.952 . S
C290 C287 1.388 . S
C290 C291 1.382 . S
C290 H315 0.950 . S
C291 N286 1.332 . S
C291 C290 1.382 . S
C291 H301 0.948 . S
N292 Co270 2.282 . S
N292 C296 1.332 . S
N292 C297 1.332 . S
C293 C294 1.388 . S
C293 C297 1.382 . S
C293 H316 0.950 . S
C294 C293 1.388 . S
C294 C295 1.386 . S
C295 C294 1.386 . S
C295 C296 1.382 . S
C295 H317 0.950 . S
C296 N292 1.332 . S
C296 C295 1.382 . S
C296 H298 0.952 . S
C297 N292 1.332 . S
C297 C293 1.382 . S
C297 H299 0.948 . S
H298 C296 0.952 . S
H299 C297 0.948 . S
H300 C289 0.952 . S
H301 C291 0.948 . S
C302 C268 1.395 . S
C302 C272 1.391 . S
C303 C265 1.389 . S
C303 C285 1.392 . S
C304 C275 1.392 . S
C304 C277 1.389 . S
C305 C280 1.395 . S
C305 C282 1.391 . S
H306 C266 0.951 . S
H307 C267 0.950 . S
H308 C273 0.949 . S
H309 C274 0.950 . S
H310 C278 0.951 . S
H311 C279 0.950 . S
H312 C283 0.949 . S
H313 C284 0.950 . S
H314 C288 0.950 . S
H315 C290 0.950 . S
H316 C293 0.950 . S
H317 C295 0.950 . S
H318 C324 0.930 . S
H319 C327 0.931 . S
H320 C329 0.931 . S
H321 C331 0.930 . S
H322 C333 0.930 . S
H323 C335 0.931 . S
C324 H318 0.930 . S
C324 C325 1.380 . S
C324 C326 1.394 . S
C325 C324 1.380 . S
C325 C329 1.382 . S
C326 C324 1.394 . S
C326 C327 1.400 . S
C327 H319 0.931 . S
C327 C326 1.400 . S
C327 C328 1.375 . S
C328 C327 1.375 . S
C328 C329 1.415 . S
C328 C330 1.501 . S
C329 H320 0.931 . S
C329 C325 1.382 . S
C329 C328 1.415 . S
C330 C328 1.501 . S
C330 C331 1.384 . S
C330 C335 1.408 . S
C331 H321 0.930 . S
C331 C330 1.384 . S
C331 C332 1.389 . S
C332 C331 1.389 . S
C332 C333 1.405 . S
C333 H322 0.930 . S
C333 C332 1.405 . S
C333 C334 1.364 . S
C334 C333 1.364 . S
C334 C335 1.400 . S
C335 H323 0.931 . S
C335 C330 1.408 . S
C335 C334 1.400 . S
H336 C342 0.930 . S
H337 C345 0.931 . S
H338 C347 0.931 . S
H339 C349 0.930 . S
H340 C351 0.930 . S
H341 C353 0.931 . S
C342 H336 0.930 . S
C342 C343 1.380 . S
C342 C344 1.394 . S
C343 C342 1.380 . S
C343 C347 1.382 . S
C344 C342 1.394 . S
C344 C345 1.400 . S
C345 H337 0.931 . S
C345 C344 1.400 . S
C345 C346 1.375 . S
C346 C345 1.375 . S
C346 C347 1.415 . S
C346 C348 1.501 . S
C347 H338 0.931 . S
C347 C343 1.382 . S
C347 C346 1.415 . S
C348 C346 1.501 . S
C348 C349 1.384 . S
C348 C353 1.408 . S
C349 H339 0.930 . S
C349 C348 1.384 . S
C349 C350 1.389 . S
C350 C349 1.389 . S
C350 C351 1.405 . S
C351 H340 0.930 . S
C351 C350 1.405 . S
C351 C352 1.364 . S
C352 C351 1.364 . S
C352 C353 1.400 . S
C353 H341 0.931 . S
C353 C348 1.408 . S
C353 C352 1.400 . S
H354 C360 0.930 . S
H355 C363 0.931 . S
H356 C365 0.931 . S
H357 C367 0.930 . S
H358 C369 0.930 . S
H359 C371 0.931 . S
C360 H354 0.930 . S
C360 C361 1.380 . S
C360 C362 1.394 . S
C361 C360 1.380 . S
C361 C365 1.382 . S
C362 C360 1.394 . S
C362 C363 1.400 . S
C363 H355 0.931 . S
C363 C362 1.400 . S
C363 C364 1.375 . S
C364 C363 1.375 . S
C364 C365 1.415 . S
C364 C366 1.501 . S
C365 H356 0.931 . S
C365 C361 1.382 . S
C365 C364 1.415 . S
C366 C364 1.501 . S
C366 C367 1.384 . S
C366 C371 1.408 . S
C367 H357 0.930 . S
C367 C366 1.384 . S
C367 C368 1.389 . S
C368 C367 1.389 . S
C368 C369 1.405 . S
C369 H358 0.930 . S
C369 C368 1.405 . S
C369 C370 1.364 . S
C370 C369 1.364 . S
C370 C371 1.400 . S
C371 H359 0.931 . S
C371 C366 1.408 . S
C371 C370 1.400 . S
H372 C378 0.930 . S
H373 C381 0.931 . S
H374 C383 0.931 . S
H375 C385 0.930 . S
H376 C387 0.930 . S
H377 C389 0.931 . S
C378 H372 0.930 . S
C378 C379 1.380 . S
C378 C380 1.394 . S
C379 C378 1.380 . S
C379 C383 1.382 . S
C380 C378 1.394 . S
C380 C381 1.400 . S
C381 H373 0.931 . S
C381 C380 1.400 . S
C381 C382 1.375 . S
C382 C381 1.375 . S
C382 C383 1.415 . S
C382 C384 1.501 . S
C383 H374 0.931 . S
C383 C379 1.382 . S
C383 C382 1.415 . S
C384 C382 1.501 . S
C384 C385 1.384 . S
C384 C389 1.408 . S
C385 H375 0.930 . S
C385 C384 1.384 . S
C385 C386 1.389 . S
C386 C385 1.389 . S
C386 C387 1.405 . S
C387 H376 0.930 . S
C387 C386 1.405 . S
C387 C388 1.364 . S
C388 C387 1.364 . S
C388 C389 1.400 . S
C389 H377 0.931 . S
C389 C384 1.408 . S
C389 C388 1.400 . S
H390 C396 0.930 . S
H391 C399 0.931 . S
H392 C401 0.931 . S
H393 C403 0.930 . S
H394 C405 0.930 . S
H395 C407 0.931 . S
C396 H390 0.930 . S
C396 C397 1.380 . S
C396 C398 1.394 . S
C397 C396 1.380 . S
C397 C401 1.382 . S
C398 C396 1.394 . S
C398 C399 1.400 . S
C399 H391 0.931 . S
C399 C398 1.400 . S
C399 C400 1.375 . S
C400 C399 1.375 . S
C400 C401 1.415 . S
C400 C402 1.501 . S
C401 H392 0.931 . S
C401 C397 1.382 . S
C401 C400 1.415 . S
C402 C400 1.501 . S
C402 C403 1.384 . S
C402 C407 1.408 . S
C403 H393 0.930 . S
C403 C402 1.384 . S
C403 C404 1.389 . S
C404 C403 1.389 . S
C404 C405 1.405 . S
C405 H394 0.930 . S
C405 C404 1.405 . S
C405 C406 1.364 . S
C406 C405 1.364 . S
C406 C407 1.400 . S
C407 H395 0.931 . S
C407 C402 1.408 . S
C407 C406 1.400 . S
H408 C414 0.930 . S
H409 C417 0.931 . S
H410 C419 0.931 . S
H411 C421 0.930 . S
H412 C423 0.930 . S
H413 C425 0.931 . S
C414 H408 0.930 . S
C414 C415 1.380 . S
C414 C416 1.394 . S
C415 C414 1.380 . S
C415 C419 1.382 . S
C416 C414 1.394 . S
C416 C417 1.400 . S
C417 H409 0.931 . S
C417 C416 1.400 . S
C417 C418 1.375 . S
C418 C417 1.375 . S
C418 C419 1.415 . S
C418 C420 1.501 . S
C419 H410 0.931 . S
C419 C415 1.382 . S
C419 C418 1.415 . S
C420 C418 1.501 . S
C420 C421 1.384 . S
C420 C425 1.408 . S
C421 H411 0.930 . S
C421 C420 1.384 . S
C421 C422 1.389 . S
C422 C421 1.389 . S
C422 C423 1.405 . S
C423 H412 0.930 . S
C423 C422 1.405 . S
C423 C424 1.364 . S
C424 C423 1.364 . S
C424 C425 1.400 . S
C425 H413 0.931 . S
C425 C420 1.408 . S
C425 C424 1.400 . S
H426 C434 0.929 . S
H427 C436 0.930 . S
H428 C438 0.930 . S
H429 C441 0.929 . S
H430 C444 0.930 . S
H431 C446 0.960 . S
H432 C446 0.960 . S
H433 C446 0.960 . S
C434 H426 0.929 . S
C434 C435 1.377 . S
C434 C436 1.384 . S
C435 C434 1.377 . S
C435 C441 1.390 . S
C436 H427 0.930 . S
C436 C434 1.384 . S
C436 C437 1.372 . S
C437 C436 1.372 . S
C437 C438 1.400 . S
C437 C442 1.490 . S
C438 H428 0.930 . S
C438 C437 1.400 . S
C438 C441 1.386 . S
H439 C455 0.930 . S
H440 C456 0.931 . S
C441 H429 0.929 . S
C441 C435 1.390 . S
C441 C438 1.386 . S
C442 C437 1.490 . S
C442 C444 1.395 . S
C442 C445 1.403 . S
H443 C449 0.930 . S
C444 H430 0.930 . S
C444 C442 1.395 . S
C444 C447 1.403 . S
C445 C442 1.403 . S
C445 C446 1.524 . S
C445 C449 1.400 . S
C446 H431 0.960 . S
C446 H432 0.960 . S
C446 H433 0.960 . S
C446 C445 1.524 . S
C447 C444 1.403 . S
C447 C448 1.392 . S
C447 C451 1.495 . S
C448 C447 1.392 . S
C448 C449 1.385 . S
C448 C450 1.478 . S
C449 H443 0.930 . S
C449 C445 1.400 . S
C449 C448 1.385 . S
C450 C448 1.478 . S
C450 C452 1.381 . S
C450 C456 1.383 . S
C451 C447 1.495 . S
C451 H457 0.959 . S
C451 H458 0.961 . S
C451 H459 0.960 . S
C452 C450 1.381 . S
C452 C453 1.394 . S
C452 H460 0.930 . S
C453 C452 1.394 . S
C453 C454 1.383 . S
C453 H461 0.929 . S
C454 C453 1.383 . S
C454 C455 1.377 . S
C455 H439 0.930 . S
C455 C454 1.377 . S
C455 C456 1.379 . S
C456 H440 0.931 . S
C456 C450 1.383 . S
C456 C455 1.379 . S
H457 C451 0.959 . S
H458 C451 0.961 . S
H459 C451 0.960 . S
H460 C452 0.930 . S
H461 C453 0.929 . S
H462 C470 0.929 . S
H463 C472 0.930 . S
H464 C474 0.930 . S
H465 C477 0.929 . S
H466 C480 0.930 . S
H467 C482 0.960 . S
H468 C482 0.960 . S
H469 C482 0.960 . S
C470 H462 0.929 . S
C470 C471 1.377 . S
C470 C472 1.384 . S
C471 C470 1.377 . S
C471 C477 1.390 . S
C472 H463 0.930 . S
C472 C470 1.384 . S
C472 C473 1.372 . S
C473 C472 1.372 . S
C473 C474 1.400 . S
C473 C478 1.490 . S
C474 H464 0.930 . S
C474 C473 1.400 . S
C474 C477 1.386 . S
H475 C491 0.930 . S
H476 C492 0.931 . S
C477 H465 0.929 . S
C477 C471 1.390 . S
C477 C474 1.386 . S
C478 C473 1.490 . S
C478 C480 1.395 . S
C478 C481 1.403 . S
H479 C485 0.930 . S
C480 H466 0.930 . S
C480 C478 1.395 . S
C480 C483 1.403 . S
C481 C478 1.403 . S
C481 C482 1.524 . S
C481 C485 1.400 . S
C482 H467 0.960 . S
C482 H468 0.960 . S
C482 H469 0.960 . S
C482 C481 1.524 . S
C483 C480 1.403 . S
C483 C484 1.392 . S
C483 C487 1.495 . S
C484 C483 1.392 . S
C484 C485 1.385 . S
C484 C486 1.478 . S
C485 H479 0.930 . S
C485 C481 1.400 . S
C485 C484 1.385 . S
C486 C484 1.478 . S
C486 C488 1.381 . S
C486 C492 1.383 . S
C487 C483 1.495 . S
C487 H493 0.959 . S
C487 H494 0.961 . S
C487 H495 0.960 . S
C488 C486 1.381 . S
C488 C489 1.394 . S
C488 H496 0.930 . S
C489 C488 1.394 . S
C489 C490 1.383 . S
C489 H497 0.929 . S
C490 C489 1.383 . S
C490 C491 1.377 . S
C491 H475 0.930 . S
C491 C490 1.377 . S
C491 C492 1.379 . S
C492 H476 0.931 . S
C492 C486 1.383 . S
C492 C491 1.379 . S
H493 C487 0.959 . S
H494 C487 0.961 . S
H495 C487 0.960 . S
H496 C488 0.930 . S
H497 C489 0.929 . S
H498 C506 0.929 . S
H499 C508 0.930 . S
H500 C510 0.930 . S
H501 C513 0.929 . S
H502 C516 0.930 . S
H503 C518 0.960 . S
H504 C518 0.960 . S
H505 C518 0.960 . S
C506 H498 0.929 . S
C506 C507 1.377 . S
C506 C508 1.384 . S
C507 C506 1.377 . S
C507 C513 1.390 . S
C508 H499 0.930 . S
C508 C506 1.384 . S
C508 C509 1.372 . S
C509 C508 1.372 . S
C509 C510 1.400 . S
C509 C514 1.490 . S
C510 H500 0.930 . S
C510 C509 1.400 . S
C510 C513 1.386 . S
H511 C527 0.930 . S
H512 C528 0.931 . S
C513 H501 0.929 . S
C513 C507 1.390 . S
C513 C510 1.386 . S
C514 C509 1.490 . S
C514 C516 1.395 . S
C514 C517 1.403 . S
H515 C521 0.930 . S
C516 H502 0.930 . S
C516 C514 1.395 . S
C516 C519 1.403 . S
C517 C514 1.403 . S
C517 C518 1.524 . S
C517 C521 1.400 . S
C518 H503 0.960 . S
C518 H504 0.960 . S
C518 H505 0.960 . S
C518 C517 1.524 . S
C519 C516 1.403 . S
C519 C520 1.392 . S
C519 C523 1.495 . S
C520 C519 1.392 . S
C520 C521 1.385 . S
C520 C522 1.478 . S
C521 H515 0.930 . S
C521 C517 1.400 . S
C521 C520 1.385 . S
C522 C520 1.478 . S
C522 C524 1.381 . S
C522 C528 1.383 . S
C523 C519 1.495 . S
C523 H529 0.959 . S
C523 H530 0.961 . S
C523 H531 0.960 . S
C524 C522 1.381 . S
C524 C525 1.394 . S
C524 H532 0.930 . S
C525 C524 1.394 . S
C525 C526 1.383 . S
C525 H533 0.929 . S
C526 C525 1.383 . S
C526 C527 1.377 . S
C527 H511 0.930 . S
C527 C526 1.377 . S
C527 C528 1.379 . S
C528 H512 0.931 . S
C528 C522 1.383 . S
C528 C527 1.379 . S
H529 C523 0.959 . S
H530 C523 0.961 . S
H531 C523 0.960 . S
H532 C524 0.930 . S
H533 C525 0.929 . S
H534 C542 0.929 . S
H535 C544 0.930 . S
H536 C546 0.930 . S
H537 C549 0.929 . S
H538 C552 0.930 . S
H539 C554 0.960 . S
H540 C554 0.960 . S
H541 C554 0.960 . S
C542 H534 0.929 . S
C542 C543 1.377 . S
C542 C544 1.384 . S
C543 C542 1.377 . S
C543 C549 1.390 . S
C544 H535 0.930 . S
C544 C542 1.384 . S
C544 C545 1.372 . S
C545 C544 1.372 . S
C545 C546 1.400 . S
C545 C550 1.490 . S
C546 H536 0.930 . S
C546 C545 1.400 . S
C546 C549 1.386 . S
H547 C563 0.930 . S
H548 C564 0.931 . S
C549 H537 0.929 . S
C549 C543 1.390 . S
C549 C546 1.386 . S
C550 C545 1.490 . S
C550 C552 1.395 . S
C550 C553 1.403 . S
H551 C557 0.930 . S
C552 H538 0.930 . S
C552 C550 1.395 . S
C552 C555 1.403 . S
C553 C550 1.403 . S
C553 C554 1.524 . S
C553 C557 1.400 . S
C554 H539 0.960 . S
C554 H540 0.960 . S
C554 H541 0.960 . S
C554 C553 1.524 . S
C555 C552 1.403 . S
C555 C556 1.392 . S
C555 C559 1.495 . S
C556 C555 1.392 . S
C556 C557 1.385 . S
C556 C558 1.478 . S
C557 H551 0.930 . S
C557 C553 1.400 . S
C557 C556 1.385 . S
C558 C556 1.478 . S
C558 C560 1.381 . S
C558 C564 1.383 . S
C559 C555 1.495 . S
C559 H565 0.959 . S
C559 H566 0.961 . S
C559 H567 0.960 . S
C560 C558 1.381 . S
C560 C561 1.394 . S
C560 H568 0.930 . S
C561 C560 1.394 . S
C561 C562 1.383 . S
C561 H569 0.929 . S
C562 C561 1.383 . S
C562 C563 1.377 . S
C563 H547 0.930 . S
C563 C562 1.377 . S
C563 C564 1.379 . S
C564 H548 0.931 . S
C564 C558 1.383 . S
C564 C563 1.379 . S
H565 C559 0.959 . S
H566 C559 0.961 . S
H567 C559 0.960 . S
H568 C560 0.930 . S
H569 C561 0.929 . S
H570 C578 0.929 . S
H571 C580 0.930 . S
H572 C582 0.930 . S
H573 C585 0.929 . S
H574 C588 0.930 . S
H575 C590 0.960 . S
H576 C590 0.960 . S
H577 C590 0.960 . S
C578 H570 0.929 . S
C578 C579 1.377 . S
C578 C580 1.384 . S
C579 C578 1.377 . S
C579 C585 1.390 . S
C580 H571 0.930 . S
C580 C578 1.384 . S
C580 C581 1.372 . S
C581 C580 1.372 . S
C581 C582 1.400 . S
C581 C586 1.490 . S
C582 H572 0.930 . S
C582 C581 1.400 . S
C582 C585 1.386 . S
H583 C599 0.930 . S
H584 C600 0.931 . S
C585 H573 0.929 . S
C585 C579 1.390 . S
C585 C582 1.386 . S
C586 C581 1.490 . S
C586 C588 1.395 . S
C586 C589 1.403 . S
H587 C593 0.930 . S
C588 H574 0.930 . S
C588 C586 1.395 . S
C588 C591 1.403 . S
C589 C586 1.403 . S
C589 C590 1.524 . S
C589 C593 1.400 . S
C590 H575 0.960 . S
C590 H576 0.960 . S
C590 H577 0.960 . S
C590 C589 1.524 . S
C591 C588 1.403 . S
C591 C592 1.392 . S
C591 C595 1.495 . S
C592 C591 1.392 . S
C592 C593 1.385 . S
C592 C594 1.478 . S
C593 H587 0.930 . S
C593 C589 1.400 . S
C593 C592 1.385 . S
C594 C592 1.478 . S
C594 C596 1.381 . S
C594 C600 1.383 . S
C595 C591 1.495 . S
C595 H601 0.959 . S
C595 H602 0.961 . S
C595 H603 0.960 . S
C596 C594 1.381 . S
C596 C597 1.394 . S
C596 H604 0.930 . S
C597 C596 1.394 . S
C597 C598 1.383 . S
C597 H605 0.929 . S
C598 C597 1.383 . S
C598 C599 1.377 . S
C599 H583 0.930 . S
C599 C598 1.377 . S
C599 C600 1.379 . S
C600 H584 0.931 . S
C600 C594 1.383 . S
C600 C599 1.379 . S
H601 C595 0.959 . S
H602 C595 0.961 . S
H603 C595 0.960 . S
H604 C596 0.930 . S
H605 C597 0.929 . S
H606 C614 0.929 . S
H607 C616 0.930 . S
H608 C618 0.930 . S
H609 C621 0.929 . S
H610 C624 0.930 . S
H611 C626 0.960 . S
H612 C626 0.960 . S
H613 C626 0.960 . S
C614 H606 0.929 . S
C614 C615 1.377 . S
C614 C616 1.384 . S
C615 C614 1.377 . S
C615 C621 1.390 . S
C616 H607 0.930 . S
C616 C614 1.384 . S
C616 C617 1.372 . S
C617 C616 1.372 . S
C617 C618 1.400 . S
C617 C622 1.490 . S
C618 H608 0.930 . S
C618 C617 1.400 . S
C618 C621 1.386 . S
H619 C635 0.930 . S
H620 C636 0.931 . S
C621 H609 0.929 . S
C621 C615 1.390 . S
C621 C618 1.386 . S
C622 C617 1.490 . S
C622 C624 1.395 . S
C622 C625 1.403 . S
H623 C629 0.930 . S
C624 H610 0.930 . S
C624 C622 1.395 . S
C624 C627 1.403 . S
C625 C622 1.403 . S
C625 C626 1.524 . S
C625 C629 1.400 . S
C626 H611 0.960 . S
C626 H612 0.960 . S
C626 H613 0.960 . S
C626 C625 1.524 . S
C627 C624 1.403 . S
C627 C628 1.392 . S
C627 C631 1.495 . S
C628 C627 1.392 . S
C628 C629 1.385 . S
C628 C630 1.478 . S
C629 H623 0.930 . S
C629 C625 1.400 . S
C629 C628 1.385 . S
C630 C628 1.478 . S
C630 C632 1.381 . S
C630 C636 1.383 . S
C631 C627 1.495 . S
C631 H637 0.959 . S
C631 H638 0.961 . S
C631 H639 0.960 . S
C632 C630 1.381 . S
C632 C633 1.394 . S
C632 H640 0.930 . S
C633 C632 1.394 . S
C633 C634 1.383 . S
C633 H641 0.929 . S
C634 C633 1.383 . S
C634 C635 1.377 . S
C635 H619 0.930 . S
C635 C634 1.377 . S
C635 C636 1.379 . S
C636 H620 0.931 . S
C636 C630 1.383 . S
C636 C635 1.379 . S
H637 C631 0.959 . S
H638 C631 0.961 . S
H639 C631 0.960 . S
H640 C632 0.930 . S
H641 C633 0.929 . S
H642 C650 0.929 . S
H643 C652 0.930 . S
H644 C654 0.930 . S
H645 C657 0.929 . S
H646 C660 0.930 . S
H647 C662 0.960 . S
H648 C662 0.960 . S
H649 C662 0.960 . S
C650 H642 0.929 . S
C650 C651 1.377 . S
C650 C652 1.384 . S
C651 C650 1.377 . S
C651 C657 1.390 . S
C652 H643 0.930 . S
C652 C650 1.384 . S
C652 C653 1.372 . S
C653 C652 1.372 . S
C653 C654 1.400 . S
C653 C658 1.490 . S
C654 H644 0.930 . S
C654 C653 1.400 . S
C654 C657 1.386 . S
H655 C671 0.930 . S
H656 C672 0.931 . S
C657 H645 0.929 . S
C657 C651 1.390 . S
C657 C654 1.386 . S
C658 C653 1.490 . S
C658 C660 1.395 . S
C658 C661 1.403 . S
H659 C665 0.930 . S
C660 H646 0.930 . S
C660 C658 1.395 . S
C660 C663 1.403 . S
C661 C658 1.403 . S
C661 C662 1.524 . S
C661 C665 1.400 . S
C662 H647 0.960 . S
C662 H648 0.960 . S
C662 H649 0.960 . S
C662 C661 1.524 . S
C663 C660 1.403 . S
C663 C664 1.392 . S
C663 C667 1.495 . S
C664 C663 1.392 . S
C664 C665 1.385 . S
C664 C666 1.478 . S
C665 H659 0.930 . S
C665 C661 1.400 . S
C665 C664 1.385 . S
C666 C664 1.478 . S
C666 C668 1.381 . S
C666 C672 1.383 . S
C667 C663 1.495 . S
C667 H673 0.959 . S
C667 H674 0.961 . S
C667 H675 0.960 . S
C668 C666 1.381 . S
C668 C669 1.394 . S
C668 H676 0.930 . S
C669 C668 1.394 . S
C669 C670 1.383 . S
C669 H677 0.929 . S
C670 C669 1.383 . S
C670 C671 1.377 . S
C671 H655 0.930 . S
C671 C670 1.377 . S
C671 C672 1.379 . S
C672 H656 0.931 . S
C672 C666 1.383 . S
C672 C671 1.379 . S
H673 C667 0.959 . S
H674 C667 0.961 . S
H675 C667 0.960 . S
H676 C668 0.930 . S
H677 C669 0.929 . S
H678 C686 0.929 . S
H679 C688 0.930 . S
H680 C690 0.930 . S
H681 C693 0.929 . S
H682 C696 0.930 . S
H683 C698 0.960 . S
H684 C698 0.960 . S
H685 C698 0.960 . S
C686 H678 0.929 . S
C686 C687 1.377 . S
C686 C688 1.384 . S
C687 C686 1.377 . S
C687 C693 1.390 . S
C688 H679 0.930 . S
C688 C686 1.384 . S
C688 C689 1.372 . S
C689 C688 1.372 . S
C689 C690 1.400 . S
C689 C694 1.490 . S
C690 H680 0.930 . S
C690 C689 1.400 . S
C690 C693 1.386 . S
H691 C707 0.930 . S
H692 C708 0.931 . S
C693 H681 0.929 . S
C693 C687 1.390 . S
C693 C690 1.386 . S
C694 C689 1.490 . S
C694 C696 1.395 . S
C694 C697 1.403 . S
H695 C701 0.930 . S
C696 H682 0.930 . S
C696 C694 1.395 . S
C696 C699 1.403 . S
C697 C694 1.403 . S
C697 C698 1.524 . S
C697 C701 1.400 . S
C698 H683 0.960 . S
C698 H684 0.960 . S
C698 H685 0.960 . S
C698 C697 1.524 . S
C699 C696 1.403 . S
C699 C700 1.392 . S
C699 C703 1.495 . S
C700 C699 1.392 . S
C700 C701 1.385 . S
C700 C702 1.478 . S
C701 H695 0.930 . S
C701 C697 1.400 . S
C701 C700 1.385 . S
C702 C700 1.478 . S
C702 C704 1.381 . S
C702 C708 1.383 . S
C703 C699 1.495 . S
C703 H709 0.959 . S
C703 H710 0.961 . S
C703 H711 0.960 . S
C704 C702 1.381 . S
C704 C705 1.394 . S
C704 H712 0.930 . S
C705 C704 1.394 . S
C705 C706 1.383 . S
C705 H713 0.929 . S
C706 C705 1.383 . S
C706 C707 1.377 . S
C707 H691 0.930 . S
C707 C706 1.377 . S
C707 C708 1.379 . S
C708 H692 0.931 . S
C708 C702 1.383 . S
C708 C707 1.379 . S
H709 C703 0.959 . S
H710 C703 0.961 . S
H711 C703 0.960 . S
H712 C704 0.930 . S
H713 C705 0.929 . S
H714 C722 0.929 . S
H715 C724 0.930 . S
H716 C726 0.930 . S
H717 C729 0.929 . S
H718 C732 0.930 . S
H719 C734 0.960 . S
H720 C734 0.960 . S
H721 C734 0.960 . S
C722 H714 0.929 . S
C722 C723 1.377 . S
C722 C724 1.384 . S
C723 C722 1.377 . S
C723 C729 1.390 . S
C724 H715 0.930 . S
C724 C722 1.384 . S
C724 C725 1.372 . S
C725 C724 1.372 . S
C725 C726 1.400 . S
C725 C730 1.490 . S
C726 H716 0.930 . S
C726 C725 1.400 . S
C726 C729 1.386 . S
H727 C743 0.930 . S
H728 C744 0.931 . S
C729 H717 0.929 . S
C729 C723 1.390 . S
C729 C726 1.386 . S
C730 C725 1.490 . S
C730 C732 1.395 . S
C730 C733 1.403 . S
H731 C737 0.930 . S
C732 H718 0.930 . S
C732 C730 1.395 . S
C732 C735 1.403 . S
C733 C730 1.403 . S
C733 C734 1.524 . S
C733 C737 1.400 . S
C734 H719 0.960 . S
C734 H720 0.960 . S
C734 H721 0.960 . S
C734 C733 1.524 . S
C735 C732 1.403 . S
C735 C736 1.392 . S
C735 C739 1.495 . S
C736 C735 1.392 . S
C736 C737 1.385 . S
C736 C738 1.478 . S
C737 H731 0.930 . S
C737 C733 1.400 . S
C737 C736 1.385 . S
C738 C736 1.478 . S
C738 C740 1.381 . S
C738 C744 1.383 . S
C739 C735 1.495 . S
C739 H745 0.959 . S
C739 H746 0.961 . S
C739 H747 0.960 . S
C740 C738 1.381 . S
C740 C741 1.394 . S
C740 H748 0.930 . S
C741 C740 1.394 . S
C741 C742 1.383 . S
C741 H749 0.929 . S
C742 C741 1.383 . S
C742 C743 1.377 . S
C743 H727 0.930 . S
C743 C742 1.377 . S
C743 C744 1.379 . S
C744 H728 0.931 . S
C744 C738 1.383 . S
C744 C743 1.379 . S
H745 C739 0.959 . S
H746 C739 0.961 . S
H747 C739 0.960 . S
H748 C740 0.930 . S
H749 C741 0.929 . S
H750 C758 0.929 . S
H751 C760 0.930 . S
H752 C762 0.930 . S
H753 C765 0.929 . S
H754 C768 0.930 . S
H755 C770 0.960 . S
H756 C770 0.960 . S
H757 C770 0.960 . S
C758 H750 0.929 . S
C758 C759 1.377 . S
C758 C760 1.384 . S
C759 C758 1.377 . S
C759 C765 1.390 . S
C760 H751 0.930 . S
C760 C758 1.384 . S
C760 C761 1.372 . S
C761 C760 1.372 . S
C761 C762 1.400 . S
C761 C766 1.490 . S
C762 H752 0.930 . S
C762 C761 1.400 . S
C762 C765 1.386 . S
H763 C779 0.930 . S
H764 C780 0.931 . S
C765 H753 0.929 . S
C765 C759 1.390 . S
C765 C762 1.386 . S
C766 C761 1.490 . S
C766 C768 1.395 . S
C766 C769 1.403 . S
H767 C773 0.930 . S
C768 H754 0.930 . S
C768 C766 1.395 . S
C768 C771 1.403 . S
C769 C766 1.403 . S
C769 C770 1.524 . S
C769 C773 1.400 . S
C770 H755 0.960 . S
C770 H756 0.960 . S
C770 H757 0.960 . S
C770 C769 1.524 . S
C771 C768 1.403 . S
C771 C772 1.392 . S
C771 C775 1.495 . S
C772 C771 1.392 . S
C772 C773 1.385 . S
C772 C774 1.478 . S
C773 H767 0.930 . S
C773 C769 1.400 . S
C773 C772 1.385 . S
C774 C772 1.478 . S
C774 C776 1.381 . S
C774 C780 1.383 . S
C775 C771 1.495 . S
C775 H781 0.959 . S
C775 H782 0.961 . S
C775 H783 0.960 . S
C776 C774 1.381 . S
C776 C777 1.394 . S
C776 H784 0.930 . S
C777 C776 1.394 . S
C777 C778 1.383 . S
C777 H785 0.929 . S
C778 C777 1.383 . S
C778 C779 1.377 . S
C779 H763 0.930 . S
C779 C778 1.377 . S
C779 C780 1.379 . S
C780 H764 0.931 . S
C780 C774 1.383 . S
C780 C779 1.379 . S
H781 C775 0.959 . S
H782 C775 0.961 . S
H783 C775 0.960 . S
H784 C776 0.930 . S
H785 C777 0.929 . S
H786 C794 0.929 . S
H787 C796 0.930 . S
H788 C798 0.930 . S
H789 C801 0.929 . S
H790 C804 0.930 . S
H791 C806 0.960 . S
H792 C806 0.960 . S
H793 C806 0.960 . S
C794 H786 0.929 . S
C794 C795 1.377 . S
C794 C796 1.384 . S
C795 C794 1.377 . S
C795 C801 1.390 . S
C796 H787 0.930 . S
C796 C794 1.384 . S
C796 C797 1.372 . S
C797 C796 1.372 . S
C797 C798 1.400 . S
C797 C802 1.490 . S
C798 H788 0.930 . S
C798 C797 1.400 . S
C798 C801 1.386 . S
H799 C815 0.930 . S
H800 C816 0.931 . S
C801 H789 0.929 . S
C801 C795 1.390 . S
C801 C798 1.386 . S
C802 C797 1.490 . S
C802 C804 1.395 . S
C802 C805 1.403 . S
H803 C809 0.930 . S
C804 H790 0.930 . S
C804 C802 1.395 . S
C804 C807 1.403 . S
C805 C802 1.403 . S
C805 C806 1.524 . S
C805 C809 1.400 . S
C806 H791 0.960 . S
C806 H792 0.960 . S
C806 H793 0.960 . S
C806 C805 1.524 . S
C807 C804 1.403 . S
C807 C808 1.392 . S
C807 C811 1.495 . S
C808 C807 1.392 . S
C808 C809 1.385 . S
C808 C810 1.478 . S
C809 H803 0.930 . S
C809 C805 1.400 . S
C809 C808 1.385 . S
C810 C808 1.478 . S
C810 C812 1.381 . S
C810 C816 1.383 . S
C811 C807 1.495 . S
C811 H817 0.959 . S
C811 H818 0.961 . S
C811 H819 0.960 . S
C812 C810 1.381 . S
C812 C813 1.394 . S
C812 H820 0.930 . S
C813 C812 1.394 . S
C813 C814 1.383 . S
C813 H821 0.929 . S
C814 C813 1.383 . S
C814 C815 1.377 . S
C815 H799 0.930 . S
C815 C814 1.377 . S
C815 C816 1.379 . S
C816 H800 0.931 . S
C816 C810 1.383 . S
C816 C815 1.379 . S
H817 C811 0.959 . S
H818 C811 0.961 . S
H819 C811 0.960 . S
H820 C812 0.930 . S
H821 C813 0.929 . S
H822 C830 0.929 . S
H823 C832 0.930 . S
H824 C834 0.930 . S
H825 C837 0.929 . S
H826 C840 0.930 . S
H827 C842 0.960 . S
H828 C842 0.960 . S
H829 C842 0.960 . S
C830 H822 0.929 . S
C830 C831 1.377 . S
C830 C832 1.384 . S
C831 C830 1.377 . S
C831 C837 1.390 . S
C832 H823 0.930 . S
C832 C830 1.384 . S
C832 C833 1.372 . S
C833 C832 1.372 . S
C833 C834 1.400 . S
C833 C838 1.490 . S
C834 H824 0.930 . S
C834 C833 1.400 . S
C834 C837 1.386 . S
H835 C851 0.930 . S
H836 C852 0.931 . S
C837 H825 0.929 . S
C837 C831 1.390 . S
C837 C834 1.386 . S
C838 C833 1.490 . S
C838 C840 1.395 . S
C838 C841 1.403 . S
H839 C845 0.930 . S
C840 H826 0.930 . S
C840 C838 1.395 . S
C840 C843 1.403 . S
C841 C838 1.403 . S
C841 C842 1.524 . S
C841 C845 1.400 . S
C842 H827 0.960 . S
C842 H828 0.960 . S
C842 H829 0.960 . S
C842 C841 1.524 . S
C843 C840 1.403 . S
C843 C844 1.392 . S
C843 C847 1.495 . S
C844 C843 1.392 . S
C844 C845 1.385 . S
C844 C846 1.478 . S
C845 H839 0.930 . S
C845 C841 1.400 . S
C845 C844 1.385 . S
C846 C844 1.478 . S
C846 C848 1.381 . S
C846 C852 1.383 . S
C847 C843 1.495 . S
C847 H853 0.959 . S
C847 H854 0.961 . S
C847 H855 0.960 . S
C848 C846 1.381 . S
C848 C849 1.394 . S
C848 H856 0.930 . S
C849 C848 1.394 . S
C849 C850 1.383 . S
C849 H857 0.929 . S
C850 C849 1.383 . S
C850 C851 1.377 . S
C851 H835 0.930 . S
C851 C850 1.377 . S
C851 C852 1.379 . S
C852 H836 0.931 . S
C852 C846 1.383 . S
C852 C851 1.379 . S
H853 C847 0.959 . S
H854 C847 0.961 . S
H855 C847 0.960 . S
H856 C848 0.930 . S
H857 C849 0.929 . S
H858 C866 0.929 . S
H859 C868 0.930 . S
H860 C870 0.930 . S
H861 C873 0.929 . S
H862 C876 0.930 . S
H863 C878 0.960 . S
H864 C878 0.960 . S
H865 C878 0.960 . S
C866 H858 0.929 . S
C866 C867 1.377 . S
C866 C868 1.384 . S
C867 C866 1.377 . S
C867 C873 1.390 . S
C868 H859 0.930 . S
C868 C866 1.384 . S
C868 C869 1.372 . S
C869 C868 1.372 . S
C869 C870 1.400 . S
C869 C874 1.490 . S
C870 H860 0.930 . S
C870 C869 1.400 . S
C870 C873 1.386 . S
H871 C887 0.930 . S
H872 C888 0.931 . S
C873 H861 0.929 . S
C873 C867 1.390 . S
C873 C870 1.386 . S
C874 C869 1.490 . S
C874 C876 1.395 . S
C874 C877 1.403 . S
H875 C881 0.930 . S
C876 H862 0.930 . S
C876 C874 1.395 . S
C876 C879 1.403 . S
C877 C874 1.403 . S
C877 C878 1.524 . S
C877 C881 1.400 . S
C878 H863 0.960 . S
C878 H864 0.960 . S
C878 H865 0.960 . S
C878 C877 1.524 . S
C879 C876 1.403 . S
C879 C880 1.392 . S
C879 C883 1.495 . S
C880 C879 1.392 . S
C880 C881 1.385 . S
C880 C882 1.478 . S
C881 H875 0.930 . S
C881 C877 1.400 . S
C881 C880 1.385 . S
C882 C880 1.478 . S
C882 C884 1.381 . S
C882 C888 1.383 . S
C883 C879 1.495 . S
C883 H889 0.959 . S
C883 H890 0.961 . S
C883 H891 0.960 . S
C884 C882 1.381 . S
C884 C885 1.394 . S
C884 H892 0.930 . S
C885 C884 1.394 . S
C885 C886 1.383 . S
C885 H893 0.929 . S
C886 C885 1.383 . S
C886 C887 1.377 . S
C887 H871 0.930 . S
C887 C886 1.377 . S
C887 C888 1.379 . S
C888 H872 0.931 . S
C888 C882 1.383 . S
C888 C887 1.379 . S
H889 C883 0.959 . S
H890 C883 0.961 . S
H891 C883 0.960 . S
H892 C884 0.930 . S
H893 C885 0.929 . S
H894 C902 0.929 . S
H895 C904 0.930 . S
H896 C906 0.930 . S
H897 C909 0.929 . S
H898 C912 0.930 . S
H899 C914 0.960 . S
H900 C914 0.960 . S
H901 C914 0.960 . S
C902 H894 0.929 . S
C902 C903 1.377 . S
C902 C904 1.384 . S
C903 C902 1.377 . S
C903 C909 1.390 . S
C904 H895 0.930 . S
C904 C902 1.384 . S
C904 C905 1.372 . S
C905 C904 1.372 . S
C905 C906 1.400 . S
C905 C910 1.490 . S
C906 H896 0.930 . S
C906 C905 1.400 . S
C906 C909 1.386 . S
H907 C923 0.930 . S
H908 C924 0.931 . S
C909 H897 0.929 . S
C909 C903 1.390 . S
C909 C906 1.386 . S
C910 C905 1.490 . S
C910 C912 1.395 . S
C910 C913 1.403 . S
H911 C917 0.930 . S
C912 H898 0.930 . S
C912 C910 1.395 . S
C912 C915 1.403 . S
C913 C910 1.403 . S
C913 C914 1.524 . S
C913 C917 1.400 . S
C914 H899 0.960 . S
C914 H900 0.960 . S
C914 H901 0.960 . S
C914 C913 1.524 . S
C915 C912 1.403 . S
C915 C916 1.392 . S
C915 C919 1.495 . S
C916 C915 1.392 . S
C916 C917 1.385 . S
C916 C918 1.478 . S
C917 H911 0.930 . S
C917 C913 1.400 . S
C917 C916 1.385 . S
C918 C916 1.478 . S
C918 C920 1.381 . S
C918 C924 1.383 . S
C919 C915 1.495 . S
C919 H925 0.959 . S
C919 H926 0.961 . S
C919 H927 0.960 . S
C920 C918 1.381 . S
C920 C921 1.394 . S
C920 H928 0.930 . S
C921 C920 1.394 . S
C921 C922 1.383 . S
C921 H929 0.929 . S
C922 C921 1.383 . S
C922 C923 1.377 . S
C923 H907 0.930 . S
C923 C922 1.377 . S
C923 C924 1.379 . S
C924 H908 0.931 . S
C924 C918 1.383 . S
C924 C923 1.379 . S
H925 C919 0.959 . S
H926 C919 0.961 . S
H927 C919 0.960 . S
H928 C920 0.930 . S
H929 C921 0.929 . S
H930 C938 0.929 . S
H931 C940 0.930 . S
H932 C942 0.930 . S
H933 C945 0.929 . S
H934 C948 0.930 . S
H935 C950 0.960 . S
H936 C950 0.960 . S
H937 C950 0.960 . S
C938 H930 0.929 . S
C938 C939 1.377 . S
C938 C940 1.384 . S
C939 C938 1.377 . S
C939 C945 1.390 . S
C940 H931 0.930 . S
C940 C938 1.384 . S
C940 C941 1.372 . S
C941 C940 1.372 . S
C941 C942 1.400 . S
C941 C946 1.490 . S
C942 H932 0.930 . S
C942 C941 1.400 . S
C942 C945 1.386 . S
H943 C959 0.930 . S
H944 C960 0.931 . S
C945 H933 0.929 . S
C945 C939 1.390 . S
C945 C942 1.386 . S
C946 C941 1.490 . S
C946 C948 1.395 . S
C946 C949 1.403 . S
H947 C953 0.930 . S
C948 H934 0.930 . S
C948 C946 1.395 . S
C948 C951 1.403 . S
C949 C946 1.403 . S
C949 C950 1.524 . S
C949 C953 1.400 . S
C950 H935 0.960 . S
C950 H936 0.960 . S
C950 H937 0.960 . S
C950 C949 1.524 . S
C951 C948 1.403 . S
C951 C952 1.392 . S
C951 C955 1.495 . S
C952 C951 1.392 . S
C952 C953 1.385 . S
C952 C954 1.478 . S
C953 H947 0.930 . S
C953 C949 1.400 . S
C953 C952 1.385 . S
C954 C952 1.478 . S
C954 C956 1.381 . S
C954 C960 1.383 . S
C955 C951 1.495 . S
C955 H961 0.959 . S
C955 H962 0.961 . S
C955 H963 0.960 . S
C956 C954 1.381 . S
C956 C957 1.394 . S
C956 H964 0.930 . S
C957 C956 1.394 . S
C957 C958 1.383 . S
C957 H965 0.929 . S
C958 C957 1.383 . S
C958 C959 1.377 . S
C959 H943 0.930 . S
C959 C958 1.377 . S
C959 C960 1.379 . S
C960 H944 0.931 . S
C960 C954 1.383 . S
C960 C959 1.379 . S
H961 C955 0.959 . S
H962 C955 0.961 . S
H963 C955 0.960 . S
H964 C956 0.930 . S
H965 C957 0.929 . S
H966 C974 0.929 . S
H967 C976 0.930 . S
H968 C978 0.930 . S
H969 C981 0.929 . S
H970 C984 0.930 . S
H971 C986 0.960 . S
H972 C986 0.960 . S
H973 C986 0.960 . S
C974 H966 0.929 . S
C974 C975 1.377 . S
C974 C976 1.384 . S
C975 C974 1.377 . S
C975 C981 1.390 . S
C976 H967 0.930 . S
C976 C974 1.384 . S
C976 C977 1.372 . S
C977 C976 1.372 . S
C977 C978 1.400 . S
C977 C982 1.490 . S
C978 H968 0.930 . S
C978 C977 1.400 . S
C978 C981 1.386 . S
H979 C995 0.930 . S
H980 C996 0.931 . S
C981 H969 0.929 . S
C981 C975 1.390 . S
C981 C978 1.386 . S
C982 C977 1.490 . S
C982 C984 1.395 . S
C982 C985 1.403 . S
H983 C989 0.930 . S
C984 H970 0.930 . S
C984 C982 1.395 . S
C984 C987 1.403 . S
C985 C982 1.403 . S
C985 C986 1.524 . S
C985 C989 1.400 . S
C986 H971 0.960 . S
C986 H972 0.960 . S
C986 H973 0.960 . S
C986 C985 1.524 . S
C987 C984 1.403 . S
C987 C988 1.392 . S
C987 C991 1.495 . S
C988 C987 1.392 . S
C988 C989 1.385 . S
C988 C990 1.478 . S
C989 H983 0.930 . S
C989 C985 1.400 . S
C989 C988 1.385 . S
C990 C988 1.478 . S
C990 C992 1.381 . S
C990 C996 1.383 . S
C991 C987 1.495 . S
C991 H997 0.959 . S
C991 H998 0.961 . S
C991 H999 0.960 . S
C992 C990 1.381 . S
C992 C993 1.394 . S
C992 H1000 0.930 . S
C993 C992 1.394 . S
C993 C994 1.383 . S
C993 H1001 0.929 . S
C994 C993 1.383 . S
C994 C995 1.377 . S
C995 H979 0.930 . S
C995 C994 1.377 . S
C995 C996 1.379 . S
C996 H980 0.931 . S
C996 C990 1.383 . S
C996 C995 1.379 . S
H997 C991 0.959 . S
H998 C991 0.961 . S
H999 C991 0.960 . S
H1000 C992 0.930 . S
H1001 C993 0.929 . S
H1002 C1010 0.929 . S
H1003 C1012 0.930 . S
H1004 C1014 0.930 . S
H1005 C1017 0.929 . S
H1006 C1020 0.930 . S
H1007 C1022 0.960 . S
H1008 C1022 0.960 . S
H1009 C1022 0.960 . S
C1010 H1002 0.929 . S
C1010 C1011 1.377 . S
C1010 C1012 1.384 . S
C1011 C1010 1.377 . S
C1011 C1017 1.390 . S
C1012 H1003 0.930 . S
C1012 C1010 1.384 . S
C1012 C1013 1.372 . S
C1013 C1012 1.372 . S
C1013 C1014 1.400 . S
C1013 C1018 1.490 . S
C1014 H1004 0.930 . S
C1014 C1013 1.400 . S
C1014 C1017 1.386 . S
H1015 C1031 0.930 . S
H1016 C1032 0.931 . S
C1017 H1005 0.929 . S
C1017 C1011 1.390 . S
C1017 C1014 1.386 . S
C1018 C1013 1.490 . S
C1018 C1020 1.395 . S
C1018 C1021 1.403 . S
H1019 C1025 0.930 . S
C1020 H1006 0.930 . S
C1020 C1018 1.395 . S
C1020 C1023 1.403 . S
C1021 C1018 1.403 . S
C1021 C1022 1.524 . S
C1021 C1025 1.400 . S
C1022 H1007 0.960 . S
C1022 H1008 0.960 . S
C1022 H1009 0.960 . S
C1022 C1021 1.524 . S
C1023 C1020 1.403 . S
C1023 C1024 1.392 . S
C1023 C1027 1.495 . S
C1024 C1023 1.392 . S
C1024 C1025 1.385 . S
C1024 C1026 1.478 . S
C1025 H1019 0.930 . S
C1025 C1021 1.400 . S
C1025 C1024 1.385 . S
C1026 C1024 1.478 . S
C1026 C1028 1.381 . S
C1026 C1032 1.383 . S
C1027 C1023 1.495 . S
C1027 H1033 0.959 . S
C1027 H1034 0.961 . S
C1027 H1035 0.960 . S
C1028 C1026 1.381 . S
C1028 C1029 1.394 . S
C1028 H1036 0.930 . S
C1029 C1028 1.394 . S
C1029 C1030 1.383 . S
C1029 H1037 0.929 . S
C1030 C1029 1.383 . S
C1030 C1031 1.377 . S
C1031 H1015 0.930 . S
C1031 C1030 1.377 . S
C1031 C1032 1.379 . S
C1032 H1016 0.931 . S
C1032 C1026 1.383 . S
C1032 C1031 1.379 . S
H1033 C1027 0.959 . S
H1034 C1027 0.961 . S
H1035 C1027 0.960 . S
H1036 C1028 0.930 . S
H1037 C1029 0.929 . S
H1038 C1046 0.929 . S
H1039 C1048 0.930 . S
H1040 C1050 0.930 . S
H1041 C1053 0.929 . S
H1042 C1056 0.930 . S
H1043 C1058 0.960 . S
H1044 C1058 0.960 . S
H1045 C1058 0.960 . S
C1046 H1038 0.929 . S
C1046 C1047 1.377 . S
C1046 C1048 1.384 . S
C1047 C1046 1.377 . S
C1047 C1053 1.390 . S
C1048 H1039 0.930 . S
C1048 C1046 1.384 . S
C1048 C1049 1.372 . S
C1049 C1048 1.372 . S
C1049 C1050 1.400 . S
C1049 C1054 1.490 . S
C1050 H1040 0.930 . S
C1050 C1049 1.400 . S
C1050 C1053 1.386 . S
H1051 C1067 0.930 . S
H1052 C1068 0.931 . S
C1053 H1041 0.929 . S
C1053 C1047 1.390 . S
C1053 C1050 1.386 . S
C1054 C1049 1.490 . S
C1054 C1056 1.395 . S
C1054 C1057 1.403 . S
H1055 C1061 0.930 . S
C1056 H1042 0.930 . S
C1056 C1054 1.395 . S
C1056 C1059 1.403 . S
C1057 C1054 1.403 . S
C1057 C1058 1.524 . S
C1057 C1061 1.400 . S
C1058 H1043 0.960 . S
C1058 H1044 0.960 . S
C1058 H1045 0.960 . S
C1058 C1057 1.524 . S
C1059 C1056 1.403 . S
C1059 C1060 1.392 . S
C1059 C1063 1.495 . S
C1060 C1059 1.392 . S
C1060 C1061 1.385 . S
C1060 C1062 1.478 . S
C1061 H1055 0.930 . S
C1061 C1057 1.400 . S
C1061 C1060 1.385 . S
C1062 C1060 1.478 . S
C1062 C1064 1.381 . S
C1062 C1068 1.383 . S
C1063 C1059 1.495 . S
C1063 H1069 0.959 . S
C1063 H1070 0.961 . S
C1063 H1071 0.960 . S
C1064 C1062 1.381 . S
C1064 C1065 1.394 . S
C1064 H1072 0.930 . S
C1065 C1064 1.394 . S
C1065 C1066 1.383 . S
C1065 H1073 0.929 . S
C1066 C1065 1.383 . S
C1066 C1067 1.377 . S
C1067 H1051 0.930 . S
C1067 C1066 1.377 . S
C1067 C1068 1.379 . S
C1068 H1052 0.931 . S
C1068 C1062 1.383 . S
C1068 C1067 1.379 . S
H1069 C1063 0.959 . S
H1070 C1063 0.961 . S
H1071 C1063 0.960 . S
H1072 C1064 0.930 . S
H1073 C1065 0.929 . S
H1074 C1082 0.929 . S
H1075 C1084 0.930 . S
H1076 C1086 0.930 . S
H1077 C1089 0.929 . S
H1078 C1092 0.930 . S
H1079 C1094 0.960 . S
H1080 C1094 0.960 . S
H1081 C1094 0.960 . S
C1082 H1074 0.929 . S
C1082 C1083 1.377 . S
C1082 C1084 1.384 . S
C1083 C1082 1.377 . S
C1083 C1089 1.390 . S
C1084 H1075 0.930 . S
C1084 C1082 1.384 . S
C1084 C1085 1.372 . S
C1085 C1084 1.372 . S
C1085 C1086 1.400 . S
C1085 C1090 1.490 . S
C1086 H1076 0.930 . S
C1086 C1085 1.400 . S
C1086 C1089 1.386 . S
H1087 C1103 0.930 . S
H1088 C1104 0.931 . S
C1089 H1077 0.929 . S
C1089 C1083 1.390 . S
C1089 C1086 1.386 . S
C1090 C1085 1.490 . S
C1090 C1092 1.395 . S
C1090 C1093 1.403 . S
H1091 C1097 0.930 . S
C1092 H1078 0.930 . S
C1092 C1090 1.395 . S
C1092 C1095 1.403 . S
C1093 C1090 1.403 . S
C1093 C1094 1.524 . S
C1093 C1097 1.400 . S
C1094 H1079 0.960 . S
C1094 H1080 0.960 . S
C1094 H1081 0.960 . S
C1094 C1093 1.524 . S
C1095 C1092 1.403 . S
C1095 C1096 1.392 . S
C1095 C1099 1.495 . S
C1096 C1095 1.392 . S
C1096 C1097 1.385 . S
C1096 C1098 1.478 . S
C1097 H1091 0.930 . S
C1097 C1093 1.400 . S
C1097 C1096 1.385 . S
C1098 C1096 1.478 . S
C1098 C1100 1.381 . S
C1098 C1104 1.383 . S
C1099 C1095 1.495 . S
C1099 H1105 0.959 . S
C1099 H1106 0.961 . S
C1099 H1107 0.960 . S
C1100 C1098 1.381 . S
C1100 C1101 1.394 . S
C1100 H1108 0.930 . S
C1101 C1100 1.394 . S
C1101 C1102 1.383 . S
C1101 H1109 0.929 . S
C1102 C1101 1.383 . S
C1102 C1103 1.377 . S
C1103 H1087 0.930 . S
C1103 C1102 1.377 . S
C1103 C1104 1.379 . S
C1104 H1088 0.931 . S
C1104 C1098 1.383 . S
C1104 C1103 1.379 . S
H1105 C1099 0.959 . S
H1106 C1099 0.961 . S
H1107 C1099 0.960 . S
H1108 C1100 0.930 . S
H1109 C1101 0.929 . S
H1110 C1118 0.929 . S
H1111 C1120 0.930 . S
H1112 C1122 0.930 . S
H1113 C1125 0.929 . S
H1114 C1128 0.930 . S
H1115 C1130 0.960 . S
H1116 C1130 0.960 . S
H1117 C1130 0.960 . S
C1118 H1110 0.929 . S
C1118 C1119 1.377 . S
C1118 C1120 1.384 . S
C1119 C1118 1.377 . S
C1119 C1125 1.390 . S
C1120 H1111 0.930 . S
C1120 C1118 1.384 . S
C1120 C1121 1.372 . S
C1121 C1120 1.372 . S
C1121 C1122 1.400 . S
C1121 C1126 1.490 . S
C1122 H1112 0.930 . S
C1122 C1121 1.400 . S
C1122 C1125 1.386 . S
H1123 C1139 0.930 . S
H1124 C1140 0.931 . S
C1125 H1113 0.929 . S
C1125 C1119 1.390 . S
C1125 C1122 1.386 . S
C1126 C1121 1.490 . S
C1126 C1128 1.395 . S
C1126 C1129 1.403 . S
H1127 C1133 0.930 . S
C1128 H1114 0.930 . S
C1128 C1126 1.395 . S
C1128 C1131 1.403 . S
C1129 C1126 1.403 . S
C1129 C1130 1.524 . S
C1129 C1133 1.400 . S
C1130 H1115 0.960 . S
C1130 H1116 0.960 . S
C1130 H1117 0.960 . S
C1130 C1129 1.524 . S
C1131 C1128 1.403 . S
C1131 C1132 1.392 . S
C1131 C1135 1.495 . S
C1132 C1131 1.392 . S
C1132 C1133 1.385 . S
C1132 C1134 1.478 . S
C1133 H1127 0.930 . S
C1133 C1129 1.400 . S
C1133 C1132 1.385 . S
C1134 C1132 1.478 . S
C1134 C1136 1.381 . S
C1134 C1140 1.383 . S
C1135 C1131 1.495 . S
C1135 H1141 0.959 . S
C1135 H1142 0.961 . S
C1135 H1143 0.960 . S
C1136 C1134 1.381 . S
C1136 C1137 1.394 . S
C1136 H1144 0.930 . S
C1137 C1136 1.394 . S
C1137 C1138 1.383 . S
C1137 H1145 0.929 . S
C1138 C1137 1.383 . S
C1138 C1139 1.377 . S
C1139 H1123 0.930 . S
C1139 C1138 1.377 . S
C1139 C1140 1.379 . S
C1140 H1124 0.931 . S
C1140 C1134 1.383 . S
C1140 C1139 1.379 . S
H1141 C1135 0.959 . S
H1142 C1135 0.961 . S
H1143 C1135 0.960 . S
H1144 C1136 0.930 . S
H1145 C1137 0.929 . S
H1146 C1154 0.929 . S
H1147 C1156 0.930 . S
H1148 C1158 0.930 . S
H1149 C1161 0.929 . S
H1150 C1164 0.930 . S
H1151 C1166 0.960 . S
H1152 C1166 0.960 . S
H1153 C1166 0.960 . S
C1154 H1146 0.929 . S
C1154 C1155 1.377 . S
C1154 C1156 1.384 . S
C1155 C1154 1.377 . S
C1155 C1161 1.390 . S
C1156 H1147 0.930 . S
C1156 C1154 1.384 . S
C1156 C1157 1.372 . S
C1157 C1156 1.372 . S
C1157 C1158 1.400 . S
C1157 C1162 1.490 . S
C1158 H1148 0.930 . S
C1158 C1157 1.400 . S
C1158 C1161 1.386 . S
H1159 C1175 0.930 . S
H1160 C1176 0.931 . S
C1161 H1149 0.929 . S
C1161 C1155 1.390 . S
C1161 C1158 1.386 . S
C1162 C1157 1.490 . S
C1162 C1164 1.395 . S
C1162 C1165 1.403 . S
H1163 C1169 0.930 . S
C1164 H1150 0.930 . S
C1164 C1162 1.395 . S
C1164 C1167 1.403 . S
C1165 C1162 1.403 . S
C1165 C1166 1.524 . S
C1165 C1169 1.400 . S
C1166 H1151 0.960 . S
C1166 H1152 0.960 . S
C1166 H1153 0.960 . S
C1166 C1165 1.524 . S
C1167 C1164 1.403 . S
C1167 C1168 1.392 . S
C1167 C1171 1.495 . S
C1168 C1167 1.392 . S
C1168 C1169 1.385 . S
C1168 C1170 1.478 . S
C1169 H1163 0.930 . S
C1169 C1165 1.400 . S
C1169 C1168 1.385 . S
C1170 C1168 1.478 . S
C1170 C1172 1.381 . S
C1170 C1176 1.383 . S
C1171 C1167 1.495 . S
C1171 H1177 0.959 . S
C1171 H1178 0.961 . S
C1171 H1179 0.960 . S
C1172 C1170 1.381 . S
C1172 C1173 1.394 . S
C1172 H1180 0.930 . S
C1173 C1172 1.394 . S
C1173 C1174 1.383 . S
C1173 H1181 0.929 . S
C1174 C1173 1.383 . S
C1174 C1175 1.377 . S
C1175 H1159 0.930 . S
C1175 C1174 1.377 . S
C1175 C1176 1.379 . S
C1176 H1160 0.931 . S
C1176 C1170 1.383 . S
C1176 C1175 1.379 . S
H1177 C1171 0.959 . S
H1178 C1171 0.961 . S
H1179 C1171 0.960 . S
H1180 C1172 0.930 . S
H1181 C1173 0.929 . S
H1182 C1190 0.929 . S
H1183 C1192 0.930 . S
H1184 C1194 0.930 . S
H1185 C1197 0.929 . S
H1186 C1200 0.930 . S
H1187 C1202 0.960 . S
H1188 C1202 0.960 . S
H1189 C1202 0.960 . S
C1190 H1182 0.929 . S
C1190 C1191 1.377 . S
C1190 C1192 1.384 . S
C1191 C1190 1.377 . S
C1191 C1197 1.390 . S
C1192 H1183 0.930 . S
C1192 C1190 1.384 . S
C1192 C1193 1.372 . S
C1193 C1192 1.372 . S
C1193 C1194 1.400 . S
C1193 C1198 1.490 . S
C1194 H1184 0.930 . S
C1194 C1193 1.400 . S
C1194 C1197 1.386 . S
H1195 C1211 0.930 . S
H1196 C1212 0.931 . S
C1197 H1185 0.929 . S
C1197 C1191 1.390 . S
C1197 C1194 1.386 . S
C1198 C1193 1.490 . S
C1198 C1200 1.395 . S
C1198 C1201 1.403 . S
H1199 C1205 0.930 . S
C1200 H1186 0.930 . S
C1200 C1198 1.395 . S
C1200 C1203 1.403 . S
C1201 C1198 1.403 . S
C1201 C1202 1.524 . S
C1201 C1205 1.400 . S
C1202 H1187 0.960 . S
C1202 H1188 0.960 . S
C1202 H1189 0.960 . S
C1202 C1201 1.524 . S
C1203 C1200 1.403 . S
C1203 C1204 1.392 . S
C1203 C1207 1.495 . S
C1204 C1203 1.392 . S
C1204 C1205 1.385 . S
C1204 C1206 1.478 . S
C1205 H1199 0.930 . S
C1205 C1201 1.400 . S
C1205 C1204 1.385 . S
C1206 C1204 1.478 . S
C1206 C1208 1.381 . S
C1206 C1212 1.383 . S
C1207 C1203 1.495 . S
C1207 H1213 0.959 . S
C1207 H1214 0.961 . S
C1207 H1215 0.960 . S
C1208 C1206 1.381 . S
C1208 C1209 1.394 . S
C1208 H1216 0.930 . S
C1209 C1208 1.394 . S
C1209 C1210 1.383 . S
C1209 H1217 0.929 . S
C1210 C1209 1.383 . S
C1210 C1211 1.377 . S
C1211 H1195 0.930 . S
C1211 C1210 1.377 . S
C1211 C1212 1.379 . S
C1212 H1196 0.931 . S
C1212 C1206 1.383 . S
C1212 C1211 1.379 . S
H1213 C1207 0.959 . S
H1214 C1207 0.961 . S
H1215 C1207 0.960 . S
H1216 C1208 0.930 . S
H1217 C1209 0.929 . S
H1218 C1226 0.929 . S
H1219 C1228 0.930 . S
H1220 C1230 0.930 . S
H1221 C1233 0.929 . S
H1222 C1236 0.930 . S
H1223 C1238 0.960 . S
H1224 C1238 0.960 . S
H1225 C1238 0.960 . S
C1226 H1218 0.929 . S
C1226 C1227 1.377 . S
C1226 C1228 1.384 . S
C1227 C1226 1.377 . S
C1227 C1233 1.390 . S
C1228 H1219 0.930 . S
C1228 C1226 1.384 . S
C1228 C1229 1.372 . S
C1229 C1228 1.372 . S
C1229 C1230 1.400 . S
C1229 C1234 1.490 . S
C1230 H1220 0.930 . S
C1230 C1229 1.400 . S
C1230 C1233 1.386 . S
H1231 C1247 0.930 . S
H1232 C1248 0.931 . S
C1233 H1221 0.929 . S
C1233 C1227 1.390 . S
C1233 C1230 1.386 . S
C1234 C1229 1.490 . S
C1234 C1236 1.395 . S
C1234 C1237 1.403 . S
H1235 C1241 0.930 . S
C1236 H1222 0.930 . S
C1236 C1234 1.395 . S
C1236 C1239 1.403 . S
C1237 C1234 1.403 . S
C1237 C1238 1.524 . S
C1237 C1241 1.400 . S
C1238 H1223 0.960 . S
C1238 H1224 0.960 . S
C1238 H1225 0.960 . S
C1238 C1237 1.524 . S
C1239 C1236 1.403 . S
C1239 C1240 1.392 . S
C1239 C1243 1.495 . S
C1240 C1239 1.392 . S
C1240 C1241 1.385 . S
C1240 C1242 1.478 . S
C1241 H1235 0.930 . S
C1241 C1237 1.400 . S
C1241 C1240 1.385 . S
C1242 C1240 1.478 . S
C1242 C1244 1.381 . S
C1242 C1248 1.383 . S
C1243 C1239 1.495 . S
C1243 H1249 0.959 . S
C1243 H1250 0.961 . S
C1243 H1251 0.960 . S
C1244 C1242 1.381 . S
C1244 C1245 1.394 . S
C1244 H1252 0.930 . S
C1245 C1244 1.394 . S
C1245 C1246 1.383 . S
C1245 H1253 0.929 . S
C1246 C1245 1.383 . S
C1246 C1247 1.377 . S
C1247 H1231 0.930 . S
C1247 C1246 1.377 . S
C1247 C1248 1.379 . S
C1248 H1232 0.931 . S
C1248 C1242 1.383 . S
C1248 C1247 1.379 . S
H1249 C1243 0.959 . S
H1250 C1243 0.961 . S
H1251 C1243 0.960 . S
H1252 C1244 0.930 . S
H1253 C1245 0.929 . S
H1254 C1262 0.929 . S
H1255 C1264 0.930 . S
H1256 C1266 0.930 . S
H1257 C1269 0.929 . S
H1258 C1272 0.930 . S
H1259 C1274 0.960 . S
H1260 C1274 0.960 . S
H1261 C1274 0.960 . S
C1262 H1254 0.929 . S
C1262 C1263 1.377 . S
C1262 C1264 1.384 . S
C1263 C1262 1.377 . S
C1263 C1269 1.390 . S
C1264 H1255 0.930 . S
C1264 C1262 1.384 . S
C1264 C1265 1.372 . S
C1265 C1264 1.372 . S
C1265 C1266 1.400 . S
C1265 C1270 1.490 . S
C1266 H1256 0.930 . S
C1266 C1265 1.400 . S
C1266 C1269 1.386 . S
H1267 C1283 0.930 . S
H1268 C1284 0.931 . S
C1269 H1257 0.929 . S
C1269 C1263 1.390 . S
C1269 C1266 1.386 . S
C1270 C1265 1.490 . S
C1270 C1272 1.395 . S
C1270 C1273 1.403 . S
H1271 C1277 0.930 . S
C1272 H1258 0.930 . S
C1272 C1270 1.395 . S
C1272 C1275 1.403 . S
C1273 C1270 1.403 . S
C1273 C1274 1.524 . S
C1273 C1277 1.400 . S
C1274 H1259 0.960 . S
C1274 H1260 0.960 . S
C1274 H1261 0.960 . S
C1274 C1273 1.524 . S
C1275 C1272 1.403 . S
C1275 C1276 1.392 . S
C1275 C1279 1.495 . S
C1276 C1275 1.392 . S
C1276 C1277 1.385 . S
C1276 C1278 1.478 . S
C1277 H1271 0.930 . S
C1277 C1273 1.400 . S
C1277 C1276 1.385 . S
C1278 C1276 1.478 . S
C1278 C1280 1.381 . S
C1278 C1284 1.383 . S
C1279 C1275 1.495 . S
C1279 H1285 0.959 . S
C1279 H1286 0.961 . S
C1279 H1287 0.960 . S
C1280 C1278 1.381 . S
C1280 C1281 1.394 . S
C1280 H1288 0.930 . S
C1281 C1280 1.394 . S
C1281 C1282 1.383 . S
C1281 H1289 0.929 . S
C1282 C1281 1.383 . S
C1282 C1283 1.377 . S
C1283 H1267 0.930 . S
C1283 C1282 1.377 . S
C1283 C1284 1.379 . S
C1284 H1268 0.931 . S
C1284 C1278 1.383 . S
C1284 C1283 1.379 . S
H1285 C1279 0.959 . S
H1286 C1279 0.961 . S
H1287 C1279 0.960 . S
H1288 C1280 0.930 . S
H1289 C1281 0.929 . S
C435 C39 1.680 . S
C454 C332 1.573 . S
C471 C91 1.641 . S
C490 C343 1.562 . S
C526 C362 1.419 . S
C507 C128 1.489 . S
C562 C379 1.385 . S
C543 C188 1.454 . S
C598 C406 1.470 . S
C579 C250 1.540 . S
C634 C415 1.565 . S
C615 C304 1.637 . S
C651 C75 1.572 . S
C670 C368 1.463 . S
C687 C144 1.675 . S
C706 C388 1.620 . S
C742 C397 1.569 . S
C723 C198 1.619 . S
C778 C424 1.451 . S
C759 C234 1.479 . S
C795 C294 1.438 . S
C814 C326 1.394 . S
C850 C352 1.408 . S
C831 C29 1.486 . S
C886 C380 1.633 . S
C867 C38 1.717 . S
C903 C92 1.680 . S
C922 C404 1.621 . S
C958 C416 1.492 . S
C939 C135 1.531 . S
C975 C181 1.497 . S
C994 C334 1.453 . S
C1011 C251 1.577 . S
C1030 C344 1.513 . S
C1047 C303 1.683 . S
C1066 C361 1.578 . S
C1083 C82 1.615 . S
C1102 C422 1.503 . S
C1138 C325 1.623 . S
C1119 C145 1.715 . S
C1155 C197 1.661 . S
C1174 C350 1.558 . S
C1191 C241 1.523 . S
C1210 C370 1.466 . S
C1227 C287 1.479 . S
C1246 C386 1.417 . S
C1263 C22 1.518 . S
C1282 C398 1.430 . S
