# Generated by pormake.
# Topology the, (3,8)-cn, num edge types: 1
# Building blocks:
#     Node 0, Type 0, BuildingBlock: CUQRIR_clean_linker_1, # of connection points: 3
#     Node 1, Type 0, BuildingBlock: CUQRIR_clean_linker_1, # of connection points: 3
#     Node 2, Type 0, BuildingBlock: CUQRIR_clean_linker_1, # of connection points: 3
#     Node 3, Type 0, BuildingBlock: CUQRIR_clean_linker_1, # of connection points: 3
#     Node 4, Type 0, BuildingBlock: CUQRIR_clean_linker_1, # of connection points: 3
#     Node 5, Type 0, BuildingBlock: CUQRIR_clean_linker_1, # of connection points: 3
#     Node 6, Type 0, BuildingBlock: CUQRIR_clean_linker_1, # of connection points: 3
#     Node 7, Type 0, BuildingBlock: CUQRIR_clean_linker_1, # of connection points: 3
#     Node 8, Type 1, BuildingBlock: GIZVER_clean_sbu_0, # of connection points: 8
#     Node 9, Type 1, BuildingBlock: GIZVER_clean_sbu_0, # of connection points: 8
#     Node 10, Type 1, BuildingBlock: GIZVER_clean_sbu_0, # of connection points: 8
#     Edge 11, Type (0, 1), BuildingBlock: CIFDUS_clean_linker_0, # of connection points: 2
#     Edge 12, Type (0, 1), BuildingBlock: CIFDUS_clean_linker_0, # of connection points: 2
#     Edge 13, Type (0, 1), BuildingBlock: CIFDUS_clean_linker_0, # of connection points: 2
#     Edge 14, Type (0, 1), BuildingBlock: CIFDUS_clean_linker_0, # of connection points: 2
#     Edge 15, Type (0, 1), BuildingBlock: CIFDUS_clean_linker_0, # of connection points: 2
#     Edge 16, Type (0, 1), BuildingBlock: CIFDUS_clean_linker_0, # of connection points: 2
#     Edge 17, Type (0, 1), BuildingBlock: CIFDUS_clean_linker_0, # of connection points: 2
#     Edge 18, Type (0, 1), BuildingBlock: CIFDUS_clean_linker_0, # of connection points: 2
#     Edge 19, Type (0, 1), BuildingBlock: CIFDUS_clean_linker_0, # of connection points: 2
#     Edge 20, Type (0, 1), BuildingBlock: CIFDUS_clean_linker_0, # of connection points: 2
#     Edge 21, Type (0, 1), BuildingBlock: CIFDUS_clean_linker_0, # of connection points: 2
#     Edge 22, Type (0, 1), BuildingBlock: CIFDUS_clean_linker_0, # of connection points: 2
#     Edge 23, Type (0, 1), BuildingBlock: CIFDUS_clean_linker_0, # of connection points: 2
#     Edge 24, Type (0, 1), BuildingBlock: CIFDUS_clean_linker_0, # of connection points: 2
#     Edge 25, Type (0, 1), BuildingBlock: CIFDUS_clean_linker_0, # of connection points: 2
#     Edge 26, Type (0, 1), BuildingBlock: CIFDUS_clean_linker_0, # of connection points: 2
#     Edge 27, Type (0, 1), BuildingBlock: CIFDUS_clean_linker_0, # of connection points: 2
#     Edge 28, Type (0, 1), BuildingBlock: CIFDUS_clean_linker_0, # of connection points: 2
#     Edge 29, Type (0, 1), BuildingBlock: CIFDUS_clean_linker_0, # of connection points: 2
#     Edge 30, Type (0, 1), BuildingBlock: CIFDUS_clean_linker_0, # of connection points: 2
#     Edge 31, Type (0, 1), BuildingBlock: CIFDUS_clean_linker_0, # of connection points: 2
#     Edge 32, Type (0, 1), BuildingBlock: CIFDUS_clean_linker_0, # of connection points: 2
#     Edge 33, Type (0, 1), BuildingBlock: CIFDUS_clean_linker_0, # of connection points: 2
#     Edge 34, Type (0, 1), BuildingBlock: CIFDUS_clean_linker_0, # of connection points: 2
# Relax obj value: 0.077
# Max RMSD: 0.234
# Mean RMSD: 0.151
data_MOF--net-the--node1-GIZVER_clean_sbu_0--node2-CUQRIR_clean_linker_1--edge1-CIFDUS_clean_linker_0
_symmetry_space_group_name_H-M    P1
_symmetry_Int_Tables_number       1
_symmetry_cell_setting            triclinic
loop_
_symmetry_equiv_pos_as_xyz
'x, y, z'
_cell_length_a     33.489472
_cell_length_b     31.535622
_cell_length_c     28.208616
_cell_angle_alpha  84.337925
_cell_angle_beta   98.457575
_cell_angle_gamma 110.30375
loop_
_atom_site_label
_atom_site_type_symbol
_atom_site_fract_x
_atom_site_fract_y
_atom_site_fract_z
_atom_type_partial_charge
C0 C 0.3842 0.32585 0.45431 0.0
N1 N 0.41378 0.33313 0.42371 0.0
N2 N 0.36515 0.35774 0.44647 0.0
C3 C 0.37362 0.28742 0.49162 0.0
C4 C 0.38412 0.38466 0.40991 0.0
N5 N 0.41367 0.3697 0.39594 0.0
C6 C 0.37085 0.42317 0.38519 0.0
H7 H 0.34998 0.25696 0.47463 0.0
H8 H 0.35946 0.29591 0.52103 0.0
H9 H 0.40278 0.27922 0.50666 0.0
H10 H 0.3724 0.44744 0.41181 0.0
H11 H 0.33712 0.40967 0.36834 0.0
H12 H 0.39165 0.44199 0.35753 0.0
C13 C 0.7261 0.30995 0.25258 0.0
N14 N 0.75666 0.29857 0.2829 0.0
N15 N 0.73863 0.35511 0.24244 0.0
C16 C 0.68186 0.27751 0.23697 0.0
C17 C 0.7778 0.37118 0.268 0.0
N18 N 0.78892 0.33699 0.2927 0.0
C19 C 0.8034 0.42057 0.2726 0.0
H20 H 0.68441 0.25303 0.21294 0.0
H21 H 0.66034 0.29493 0.21721 0.0
H22 H 0.66714 0.25813 0.26874 0.0
H23 H 0.80284 0.43023 0.30921 0.0
H24 H 0.79032 0.44206 0.24579 0.0
H25 H 0.83734 0.42676 0.26799 0.0
C26 C 0.80195 0.75132 0.38386 0.0
N27 N 0.80179 0.72052 0.35359 0.0
N28 N 0.77468 0.77344 0.36509 0.0
C29 C 0.82347 0.75475 0.43473 0.0
C30 C 0.758 0.75492 0.32211 0.0
N31 N 0.77436 0.72268 0.31487 0.0
C32 C 0.72067 0.76323 0.29082 0.0
H33 H 0.82637 0.78717 0.4495 0.0
H34 H 0.85577 0.75187 0.43665 0.0
H35 H 0.80403 0.72634 0.45717 0.0
H36 H 0.71547 0.79395 0.3007 0.0
H37 H 0.69125 0.73351 0.2947 0.0
H38 H 0.72632 0.7673 0.25261 0.0
C39 C 0.35899 0.65953 0.32795 0.0
N40 N 0.39597 0.69428 0.32265 0.0
N41 N 0.32703 0.67463 0.33415 0.0
C42 C 0.35481 0.61041 0.32766 0.0
C43 C 0.3462 0.72023 0.33327 0.0
N44 N 0.38865 0.73257 0.32777 0.0
C45 C 0.32172 0.75273 0.32941 0.0
H46 H 0.34328 0.59861 0.29074 0.0
H47 H 0.3317 0.58922 0.35217 0.0
H48 H 0.38634 0.6059 0.33878 0.0
H49 H 0.31488 0.75741 0.36544 0.0
H50 H 0.29044 0.73877 0.30696 0.0
H51 H 0.34015 0.78613 0.31337 0.0
C52 C 0.36364 0.69809 0.77754 0.0
N53 N 0.40343 0.72989 0.78095 0.0
N54 N 0.33528 0.71313 0.74771 0.0
C55 C 0.35351 0.65063 0.79957 0.0
C56 C 0.35931 0.75542 0.73342 0.0
N57 N 0.40108 0.76568 0.75266 0.0
C58 C 0.34098 0.78724 0.70182 0.0
H59 H 0.35892 0.62901 0.77417 0.0
H60 H 0.31965 0.63615 0.80674 0.0
H61 H 0.37458 0.6498 0.83364 0.0
H62 H 0.36069 0.82305 0.70821 0.0
H63 H 0.3076 0.78111 0.70879 0.0
H64 H 0.33987 0.78097 0.66358 0.0
C65 C 0.35349 0.27035 0.68606 0.0
N66 N 0.35457 0.30509 0.71171 0.0
N67 N 0.39182 0.26375 0.69316 0.0
C68 C 0.317 0.24701 0.64917 0.0
C69 C 0.4164 0.29594 0.72368 0.0
N70 N 0.39396 0.32114 0.73504 0.0
C71 C 0.46308 0.30423 0.74058 0.0
H72 H 0.2912 0.22174 0.66779 0.0
H73 H 0.32721 0.22933 0.62366 0.0
H74 H 0.30349 0.27182 0.62863 0.0
H75 H 0.48271 0.33083 0.71655 0.0
H76 H 0.47103 0.27299 0.73964 0.0
H77 H 0.47143 0.3164 0.77755 0.0
C78 C 0.75172 0.29434 0.77487 0.0
N79 N 0.77966 0.28605 0.74989 0.0
N80 N 0.76808 0.33649 0.79184 0.0
C81 C 0.70644 0.26305 0.77812 0.0
C82 C 0.80726 0.35358 0.77639 0.0
N83 N 0.81426 0.32319 0.75072 0.0
C84 C 0.83615 0.40209 0.7807 0.0
H85 H 0.68679 0.26437 0.74307 0.0
H86 H 0.69205 0.27274 0.80651 0.0
H87 H 0.70582 0.22768 0.78592 0.0
H88 H 0.83489 0.41481 0.81549 0.0
H89 H 0.82506 0.42321 0.75155 0.0
H90 H 0.86985 0.40589 0.77742 0.0
C91 C 0.7992 0.74908 0.6784 0.0
N92 N 0.81937 0.71837 0.68839 0.0
N93 N 0.80852 0.77162 0.63598 0.0
C94 C 0.76954 0.75651 0.70951 0.0
C95 C 0.83502 0.7536 0.62029 0.0
N96 N 0.84125 0.72078 0.65209 0.0
C97 C 0.8545 0.76761 0.57407 0.0
H98 H 0.73623 0.7347 0.69774 0.0
H99 H 0.77073 0.79227 0.7059 0.0
H100 H 0.77769 0.74741 0.74779 0.0
H101 H 0.88927 0.7725 0.58067 0.0
H102 H 0.84975 0.79912 0.55732 0.0
H103 H 0.83932 0.74012 0.54873 0.0
Co104 Co 0.15306 0.46695 0.57127 0.0
Co105 Co 0.11067 0.43972 0.48585 0.0
Co106 Co 0.06551 0.49686 0.5329 0.0
O107 O 0.09238 0.44793 0.54404 0.0
H108 H 0.07448 0.42007 0.5585 0.0
O109 O 0.04293 0.54803 0.52245 0.0
Co110 Co 0.98715 0.54201 0.49299 0.0
Co111 Co 0.02632 0.55618 0.57952 0.0
H112 H 0.06403 0.57583 0.51206 0.0
O113 O 0.13139 0.39196 0.47805 0.0
O114 O 0.16851 0.45848 0.50967 0.0
O115 O 0.10912 0.48419 0.43329 0.0
O116 O 0.10457 0.53198 0.48327 0.0
O117 O 1.02024 0.46094 0.48157 0.0
O118 O 0.93628 0.54119 0.46334 0.0
O119 O 0.99754 0.60075 0.47313 0.0
O120 O 0.96997 0.4797 0.50816 0.0
O121 O 1.0242 0.461 0.58078 0.0
O122 O 1.0219 0.50975 0.63052 0.0
O123 O 0.97103 0.55282 0.55492 0.0
O124 O 1.02291 0.61029 0.59316 0.0
C125 C 0.19516 0.43707 0.60807 0.0
C126 C 0.14807 0.54765 0.57903 0.0
C127 C 0.11621 0.52435 0.44466 0.0
C128 C 0.16773 0.42055 0.4952 0.0
C129 C 0.95714 0.58409 0.4559 0.0
C130 C 0.98039 0.45422 0.48375 0.0
C131 C 1.01179 0.46939 0.6185 0.0
C132 C 0.98305 0.5909 0.57618 0.0
O133 O 0.20656 0.48014 0.59703 0.0
O134 O 0.15542 0.41139 0.5956 0.0
O135 O 0.10851 0.53349 0.58488 0.0
O136 O 0.16067 0.52684 0.55171 0.0
Co137 Co 0.63002 0.95201 0.49903 0.0
Co138 Co 0.64449 0.98377 0.58624 0.0
Co139 Co 0.58699 0.03158 0.51683 0.0
O140 O 0.63566 1.00833 0.52409 0.0
H141 H 0.66199 0.03175 0.517 0.0
O142 O 0.5384 0.05595 0.50823 0.0
Co143 Co 0.54731 0.11542 0.52881 0.0
Co144 Co 0.5329 0.08001 0.44432 0.0
H145 H 0.5118 0.03354 0.51616 0.0
O146 O 0.69539 0.97179 0.60969 0.0
O147 O 0.63769 0.92765 0.56512 0.0
O148 O 0.59984 0.97308 0.62655 0.0
O149 O 0.55378 0.98429 0.56507 0.0
O150 O 0.61967 0.07552 0.56858 0.0
O151 O 0.55152 0.16845 0.54832 0.0
O152 O 0.49206 0.10693 0.53786 0.0
O153 O 0.60598 0.13186 0.52494 0.0
O154 O 0.6213 0.07756 0.46981 0.0
O155 O 0.57947 0.09003 0.40542 0.0
O156 O 0.53741 0.13717 0.46112 0.0
O157 O 0.48199 0.08889 0.41702 0.0
C158 C 0.67108 0.9249 0.47673 0.0
C159 C 0.54782 0.9463 0.468 0.0
C160 C 0.56175 0.96717 0.60728 0.0
C161 C 0.67508 0.93389 0.58918 0.0
C162 C 0.51074 0.1487 0.55072 0.0
C163 C 0.62847 0.11818 0.55917 0.0
C164 C 0.61645 0.09402 0.42709 0.0
C165 C 0.50028 0.12828 0.43514 0.0
O166 O 0.63038 0.90203 0.47606 0.0
O167 O 0.68634 0.96564 0.4928 0.0
O168 O 0.55434 0.98885 0.46415 0.0
O169 O 0.57036 0.93043 0.49992 0.0
Co170 Co 0.53528 0.56904 0.10836 0.0
Co171 Co 0.50888 0.48796 0.08271 0.0
Co172 Co 0.57645 0.54909 1.01154 0.0
O173 O 0.52634 0.5426 0.04708 0.0
H174 H 0.50253 0.54719 0.026 0.0
O175 O 0.62715 0.55442 0.97894 0.0
Co176 Co 0.62259 0.51701 0.92796 0.0
Co177 Co 0.64563 0.60217 0.93651 0.0
H178 H 0.65141 0.55475 1.00238 0.0
O179 O 0.45399 0.4617 0.09872 0.0
O180 O 0.51169 0.50863 0.14248 0.0
O181 O 0.54643 0.45279 0.09213 0.0
O182 O 0.59764 0.50447 0.05499 0.0
O183 O 0.53684 0.4986 0.96998 0.0
O184 O 0.62303 0.48095 0.88326 0.0
O185 O 0.67342 0.50822 0.94524 0.0
O186 O 0.56818 0.52069 0.90384 0.0
O187 O 0.55594 0.59425 0.96512 0.0
O188 O 0.60496 0.63178 0.91554 0.0
O189 O 0.64907 0.5706 0.88615 0.0
O190 O 0.7027 0.62553 0.92497 0.0
C191 C 0.50202 0.59721 0.14508 0.0
C192 C 0.62052 0.59167 0.09979 0.0
C193 C 0.5844 0.46833 0.08132 0.0
C194 C 0.4734 0.47814 0.13968 0.0
C195 C 0.6597 0.48324 0.90799 0.0
C196 C 0.53556 0.49783 0.92447 0.0
C197 C 0.56883 0.62338 0.93031 0.0
C198 C 0.68867 0.59785 0.89029 0.0
O199 O 0.53967 0.59593 0.16315 0.0
O200 O 0.48451 0.57869 0.10415 0.0
O201 O 0.61607 0.59859 0.05411 0.0
O202 O 0.5899 0.5637 0.12025 0.0
H203 H 0.35623 0.42368 0.49163 0.0
H204 H 0.28841 0.29129 0.43868 0.0
H205 H 0.22006 0.29675 0.45373 0.0
H206 H 0.1793 0.34351 0.4728 0.0
H207 H 0.24825 0.47933 0.51809 0.0
H208 H 0.31616 0.46861 0.51491 0.0
C209 C 0.32637 0.39603 0.48394 0.0
C210 C 0.32685 0.35743 0.4638 0.0
C211 C 0.2874 0.40039 0.49063 0.0
C212 C 0.28843 0.3212 0.45453 0.0
C213 C 0.24947 0.32459 0.4626 0.0
C214 C 0.20919 0.37059 0.48227 0.0
C215 C 0.20856 0.41211 0.49565 0.0
C216 C 0.24844 0.3647 0.47913 0.0
C217 C 0.24764 0.4469 0.50783 0.0
C218 C 0.28664 0.44091 0.50596 0.0
H219 H 0.75203 0.2792 0.37719 0.0
H220 H 0.73951 0.21886 0.24339 0.0
H221 H 0.69392 0.14619 0.2762 0.0
H222 H 0.64709 0.1049 0.33933 0.0
H223 H 0.67098 0.16365 0.4766 0.0
H224 H 0.72373 0.23178 0.44681 0.0
C225 C 0.74218 0.24974 0.35618 0.0
C226 C 0.74895 0.25472 0.30778 0.0
C227 C 0.71674 0.20806 0.37562 0.0
C228 C 0.73438 0.21584 0.28077 0.0
C229 C 0.7078 0.17447 0.29931 0.0
C230 C 0.6646 0.13227 0.36282 0.0
C231 C 0.65404 0.12995 0.40969 0.0
C232 C 0.69682 0.17091 0.34601 0.0
C233 C 0.67772 0.16509 0.44016 0.0
C234 C 0.70811 0.2041 0.42317 0.0
H235 H 0.88359 0.73202 0.34698 0.0
H236 H 0.76803 0.63774 0.39536 0.0
H237 H 0.80507 0.58454 0.42588 0.0
H238 H 0.87158 0.5675 0.4446 0.0
H239 H 0.99079 0.66722 0.41008 0.0
H240 H 0.95179 0.71605 0.36903 0.0
C241 C 0.86659 0.69914 0.36294 0.0
C242 C 0.82242 0.68707 0.36557 0.0
C243 C 0.88916 0.67038 0.38399 0.0
C244 C 0.80097 0.64589 0.38912 0.0
C245 C 0.82254 0.61609 0.40784 0.0
C246 C 0.88911 0.59981 0.42789 0.0
C247 C 0.93402 0.61366 0.43028 0.0
C248 C 0.86673 0.62824 0.40603 0.0
C249 C 0.95621 0.65585 0.40887 0.0
C250 C 0.93391 0.6837 0.38531 0.0
H251 H 0.38602 0.78408 0.39809 0.0
H252 H 0.4673 0.77725 0.29572 0.0
H253 H 0.52401 0.84333 0.32958 0.0
H254 H 0.55142 0.90211 0.39113 0.0
H255 H 0.4637 0.91621 0.48088 0.0
H256 H 0.4074 0.84978 0.44693 0.0
C257 C 0.41505 0.79782 0.38108 0.0
C258 C 0.42146 0.77481 0.34374 0.0
C259 C 0.44644 0.8377 0.39844 0.0
C260 C 0.46107 0.79273 0.32501 0.0
C261 C 0.49354 0.8312 0.34402 0.0
C262 C 0.51956 0.89128 0.40217 0.0
C263 C 0.51175 0.91379 0.43886 0.0
C264 C 0.48672 0.8538 0.38109 0.0
C265 C 0.47056 0.8993 0.45312 0.0
C266 C 0.43842 0.86123 0.43373 0.0
H267 H 0.3187 0.69761 0.65471 0.0
H268 H 0.26137 0.66728 0.78614 0.0
H269 H 0.19476 0.61594 0.74457 0.0
H270 H 0.1551 0.57526 0.67082 0.0
H271 H 0.21577 0.60721 0.54088 0.0
H272 H 0.27782 0.66337 0.581 0.0
C273 C 0.29124 0.6804 0.67392 0.0
C274 C 0.2948 0.68581 0.72327 0.0
C275 C 0.25346 0.65141 0.64979 0.0
C276 C 0.25935 0.663 0.74815 0.0
C277 C 0.22132 0.63388 0.72432 0.0
C278 C 0.18147 0.59542 0.65119 0.0
C279 C 0.18062 0.58718 0.60278 0.0
C280 C 0.21818 0.62719 0.67512 0.0
C281 C 0.21542 0.613 0.57799 0.0
C282 C 0.25119 0.64497 0.60101 0.0
H283 H 0.45011 0.29236 0.63147 0.0
H284 H 0.3637 0.17261 0.69507 0.0
H285 H 0.38942 0.1247 0.65216 0.0
H286 H 0.44071 0.11771 0.6005 0.0
H287 H 0.52849 0.23915 0.53981 0.0
H288 H 0.49764 0.28551 0.57632 0.0
C289 C 0.43712 0.25576 0.63575 0.0
C290 C 0.40578 0.23573 0.66673 0.0
C291 C 0.45216 0.22883 0.61117 0.0
C292 C 0.38824 0.18839 0.67161 0.0
C293 C 0.40291 0.16119 0.64707 0.0
C294 C 0.45248 0.15424 0.59473 0.0
C295 C 0.48694 0.17493 0.56764 0.0
C296 C 0.43538 0.18104 0.61722 0.0
C297 C 0.50216 0.22237 0.56073 0.0
C298 C 0.48467 0.24901 0.58177 0.0
H299 H 0.82355 0.37207 0.66838 0.0
H300 H 0.88532 0.30039 0.77424 0.0
H301 H 0.95362 0.3366 0.74035 0.0
H302 H 0.99771 0.39718 0.68622 0.0
H303 H 0.93375 0.47111 0.58468 0.0
H304 H 0.86494 0.42597 0.61035 0.0
C305 C 0.8517 0.36324 0.68261 0.0
C306 C 0.84957 0.33322 0.72296 0.0
C307 C 0.89084 0.38554 0.66414 0.0
C308 C 0.8863 0.32277 0.74242 0.0
C309 C 0.9254 0.34403 0.72347 0.0
C310 C 0.96854 0.40271 0.66943 0.0
C311 C 0.97087 0.43744 0.63338 0.0
C312 C 0.92848 0.37681 0.68528 0.0
C313 C 0.93289 0.44455 0.61218 0.0
C314 C 0.89336 0.41873 0.62694 0.0
H315 H 0.72894 0.76132 0.59792 0.0
H316 H 0.85407 0.86004 0.62938 0.0
H317 H 0.82372 0.92144 0.61459 0.0
H318 H 0.75993 0.94497 0.60366 0.0
H319 H 0.6343 0.84473 0.5747 0.0
H320 H 0.66612 0.7856 0.57762 0.0
C321 C 0.74938 0.79651 0.59983 0.0
C322 C 0.79329 0.80685 0.61435 0.0
C323 C 0.73144 0.83089 0.59309 0.0
C324 C 0.82013 0.85204 0.61761 0.0
C325 C 0.8027 0.88679 0.60987 0.0
C326 C 0.73965 0.91016 0.59809 0.0
C327 C 0.69491 0.8989 0.59018 0.0
C328 C 0.75815 0.87636 0.59962 0.0
C329 C 0.66886 0.85397 0.58165 0.0
C330 C 0.68698 0.82021 0.58307 0.0
H331 H 0.38128 0.24866 0.39508 0.0
H332 H 0.49868 0.35166 0.44579 0.0
H333 H 0.53718 0.29726 0.45258 0.0
H334 H 0.53562 0.21874 0.44947 0.0
H335 H 0.41696 0.11546 0.3999 0.0
H336 H 0.38055 0.17128 0.38741 0.0
C337 C 0.41549 0.25908 0.40658 0.0
C338 C 0.43753 0.30385 0.41928 0.0
C339 C 0.43685 0.22741 0.4113 0.0
C340 C 0.4816 0.31745 0.43485 0.0
C341 C 0.50333 0.28625 0.43927 0.0
C342 C 0.50184 0.2085 0.43574 0.0
C343 C 0.479 0.16289 0.42595 0.0
C344 C 0.48106 0.24087 0.42849 0.0
C345 C 0.43532 0.15028 0.4078 0.0
C346 C 0.41443 0.18218 0.40064 0.0
H347 H 0.79821 0.34862 0.38673 0.0
H348 H 0.86704 0.34615 0.27081 0.0
H349 H 0.93562 0.37821 0.32158 0.0
H350 H 0.9752 0.41676 0.39673 0.0
H351 H 0.90307 0.41136 0.51341 0.0
H352 H 0.83693 0.37008 0.46593 0.0
C353 C 0.82801 0.35192 0.37366 0.0
C354 C 0.82749 0.34304 0.32581 0.0
C355 C 0.86696 0.36962 0.40326 0.0
C356 C 0.86677 0.35137 0.30811 0.0
C357 C 0.90592 0.37015 0.33702 0.0
C358 C 0.94522 0.40513 0.41223 0.0
C359 C 0.94424 0.41816 0.45836 0.0
C360 C 0.90649 0.38077 0.38444 0.0
C361 C 0.9049 0.40272 0.47776 0.0
C362 C 0.8668 0.37912 0.45055 0.0
H363 H 0.80171 0.86087 0.38671 0.0
H364 H 0.70194 0.7324 0.40346 0.0
H365 H 0.66211 0.76783 0.44314 0.0
H366 H 0.65332 0.83584 0.46707 0.0
H367 H 0.75247 0.96554 0.45136 0.0
H368 H 0.79543 0.92939 0.41775 0.0
C369 C 0.77147 0.84098 0.39965 0.0
C370 C 0.75418 0.79445 0.3921 0.0
C371 C 0.74875 0.86179 0.42215 0.0
C372 C 0.71524 0.76838 0.40893 0.0
C373 C 0.69262 0.78861 0.43142 0.0
C374 C 0.68439 0.85631 0.45643 0.0
C375 C 0.69934 0.90342 0.46078 0.0
C376 C 0.70863 0.83539 0.43723 0.0
C377 C 0.74011 0.92923 0.44794 0.0
C378 C 0.7646 0.90859 0.42863 0.0
H379 H 0.28247 0.68489 0.40176 0.0
H380 H 0.27259 0.60449 0.28297 0.0
H381 H 0.20374 0.55164 0.30399 0.0
H382 H 0.15002 0.52448 0.3615 0.0
H383 H 0.15651 0.61027 0.47469 0.0
H384 H 0.22181 0.66566 0.44921 0.0
C385 C 0.26465 0.65666 0.37955 0.0
C386 C 0.28328 0.64798 0.34167 0.0
C387 C 0.22434 0.62729 0.39087 0.0
C388 C 0.25974 0.61096 0.31344 0.0
C389 C 0.22017 0.58095 0.3252 0.0
C390 C 0.1651 0.55575 0.37993 0.0
C391 C 0.14869 0.56238 0.4208 0.0
C392 C 0.20269 0.58807 0.36473 0.0
C393 C 0.1685 0.60362 0.44359 0.0
C394 C 0.20614 0.63543 0.42919 0.0
H395 H 0.41241 0.79006 0.66058 0.0
H396 H 0.46977 0.8249 0.80458 0.0
H397 H 0.52537 0.89096 0.77288 0.0
H398 H 0.55595 0.94065 0.70297 0.0
H399 H 0.48972 0.91007 0.56084 0.0
H400 H 0.43764 0.84234 0.59296 0.0
C401 C 0.43654 0.81254 0.6852 0.0
C402 C 0.43659 0.80246 0.735 0.0
C403 C 0.46617 0.85206 0.66686 0.0
C404 C 0.46921 0.83115 0.76619 0.0
C405 C 0.50061 0.86944 0.74797 0.0
C406 C 0.52965 0.91954 0.67921 0.0
C407 C 0.5266 0.93086 0.62932 0.0
C408 C 0.49906 0.88063 0.69828 0.0
C409 C 0.49243 0.90289 0.59918 0.0
C410 C 0.46293 0.8637 0.61753 0.0
H411 H 0.36292 0.38955 0.67777 0.0
H412 H 0.27234 0.26581 0.7287 0.0
H413 H 0.2132 0.29485 0.701 0.0
H414 H 0.18712 0.35427 0.65628 0.0
H415 H 0.28069 0.4795 0.61067 0.0
H416 H 0.33844 0.45142 0.64241 0.0
C417 C 0.33053 0.3698 0.68464 0.0
C418 C 0.32198 0.32602 0.70585 0.0
C419 C 0.29698 0.3867 0.66856 0.0
C420 C 0.27951 0.29989 0.71277 0.0
C421 C 0.24575 0.31634 0.69656 0.0
C422 C 0.22015 0.37538 0.65364 0.0
C423 C 0.22921 0.41871 0.63048 0.0
C424 C 0.25396 0.35942 0.67328 0.0
C425 C 0.27239 0.44589 0.628 0.0
C426 C 0.30574 0.42995 0.64624 0.0
H427 H 0.75519 0.29465 0.65667 0.0
H428 H 0.7717 0.1983 0.76949 0.0
H429 H 0.72894 0.13541 0.71835 0.0
H430 H 0.67807 0.10848 0.64482 0.0
H431 H 0.6593 0.20805 0.53531 0.0
H432 H 0.71148 0.26828 0.58097 0.0
C433 C 0.75084 0.25985 0.66904 0.0
C434 C 0.76706 0.25089 0.71616 0.0
C435 C 0.72476 0.22422 0.6402 0.0
C436 C 0.76014 0.20574 0.73281 0.0
C437 C 0.73515 0.1699 0.70381 0.0
C438 C 0.68593 0.14325 0.63069 0.0
C439 C 0.66427 0.15323 0.58656 0.0
C440 C 0.71582 0.17869 0.65795 0.0
C441 C 0.67501 0.1988 0.56906 0.0
C442 C 0.70503 0.23366 0.59522 0.0
H443 H 0.82837 0.65801 0.58959 0.0
H444 H 0.91564 0.72894 0.70628 0.0
H445 H 0.96855 0.69497 0.69273 0.0
H446 H 0.99086 0.64869 0.64441 0.0
H447 H 0.90151 0.57312 0.53102 0.0
H448 H 0.84839 0.60584 0.54553 0.0
C449 C 0.8588 0.66516 0.61227 0.0
C450 C 0.86869 0.69547 0.64879 0.0
C451 C 0.88866 0.64555 0.6041 0.0
C452 C 0.90781 0.70513 0.67835 0.0
C453 C 0.93796 0.68612 0.67027 0.0
C454 C 0.95983 0.63949 0.62276 0.0
C455 C 0.95057 0.60973 0.58558 0.0
C456 C 0.92899 0.65697 0.63265 0.0
C457 C 0.90978 0.59701 0.55884 0.0
C458 C 0.87928 0.61535 0.56745 0.0
H459 H 0.37402 0.35857 0.30691 0.0
H460 H 0.49666 0.41779 0.38903 0.0
H461 H 0.52658 0.45818 0.31625 0.0
H462 H 0.51583 0.48032 0.23021 0.0
H463 H 0.39151 0.42272 0.14902 0.0
H464 H 0.36369 0.37897 0.22059 0.0
C465 C 0.40757 0.37947 0.30824 0.0
C466 C 0.43353 0.38479 0.35262 0.0
C467 C 0.42368 0.40388 0.26682 0.0
C468 C 0.47664 0.41255 0.35484 0.0
C469 C 0.49337 0.43615 0.31346 0.0
C470 C 0.48254 0.45854 0.22823 0.0
C471 C 0.45569 0.45517 0.18428 0.0
C472 C 0.46686 0.43292 0.26945 0.0
C473 C 0.41281 0.4262 0.18234 0.0
C474 C 0.39694 0.4009 0.22319 0.0
H475 H 0.44593 0.67712 0.76184 0.0
H476 H 0.44044 0.7646 0.8662 0.0
H477 H 0.49122 0.73933 0.92379 0.0
H478 H 0.53382 0.68755 0.94624 0.0
H479 H 0.53602 0.59815 0.84131 0.0
H480 H 0.48959 0.62774 0.78278 0.0
C481 C 0.45713 0.69159 0.79668 0.0
C482 C 0.44088 0.72389 0.80924 0.0
C483 C 0.48475 0.67531 0.83008 0.0
C484 C 0.45401 0.74111 0.85517 0.0
C485 C 0.48234 0.72594 0.88836 0.0
C486 C 0.52373 0.67446 0.91069 0.0
C487 C 0.5378 0.64029 0.89822 0.0
C488 C 0.49724 0.6922 0.87667 0.0
C489 C 0.52518 0.62413 0.85177 0.0
C490 C 0.49888 0.64124 0.81816 0.0
H491 H 0.39066 0.32925 0.82843 0.0
H492 H 0.44174 0.4023 0.70161 0.0
H493 H 0.48703 0.46653 0.74898 0.0
H494 H 0.51823 0.49778 0.82733 0.0
H495 H 0.47046 0.42403 0.95603 0.0
H496 H 0.41748 0.36466 0.90752 0.0
C497 C 0.41072 0.35997 0.8113 0.0
C498 C 0.41223 0.36178 0.7615 0.0
C499 C 0.43777 0.39623 0.8393 0.0
C500 C 0.43936 0.40094 0.73964 0.0
C501 C 0.46556 0.43732 0.76684 0.0
C502 C 0.49591 0.46903 0.84491 0.0
C503 C 0.49883 0.46526 0.89546 0.0
C504 C 0.466 0.43478 0.81686 0.0
C505 C 0.46916 0.42791 0.91731 0.0
C506 C 0.43893 0.39377 0.88953 0.0
H507 H 0.78325 0.3778 0.8751 0.0
H508 H 0.70017 0.35315 0.74165 0.0
H509 H 0.65902 0.39645 0.76581 0.0
H510 H 0.64674 0.44121 0.82475 0.0
H511 H 0.73095 0.46868 0.95778 0.0
H512 H 0.772 0.42514 0.93387 0.0
C513 C 0.7562 0.38222 0.85151 0.0
C514 C 0.74431 0.3621 0.80695 0.0
C515 C 0.73311 0.40779 0.86548 0.0
C516 C 0.7093 0.36787 0.77639 0.0
C517 C 0.68601 0.39277 0.7901 0.0
C518 C 0.67405 0.43771 0.84862 0.0
C519 C 0.68557 0.45806 0.89313 0.0
C520 C 0.69756 0.41281 0.83458 0.0
C521 C 0.72135 0.45344 0.92331 0.0
C522 C 0.7448 0.42843 0.9097 0.0
H523 H 0.75795 0.63821 0.69182 0.0
H524 H 0.86547 0.72962 0.77495 0.0
H525 H 0.83684 0.6933 0.84948 0.0
H526 H 0.77306 0.64807 0.88813 0.0
H527 H 0.66356 0.55865 0.80379 0.0
H528 H 0.70105 0.58079 0.73271 0.0
C529 C 0.77598 0.64827 0.72649 0.0
C530 C 0.81357 0.68616 0.7285 0.0
C531 C 0.75815 0.62856 0.76873 0.0
C532 C 0.83673 0.7 0.77312 0.0
C533 C 0.8199 0.67979 0.81551 0.0
C534 C 0.75775 0.63269 0.85445 0.0
C535 C 0.71502 0.60302 0.85091 0.0
C536 C 0.77929 0.64602 0.81348 0.0
C537 C 0.69606 0.58243 0.80732 0.0
C538 C 0.71748 0.59507 0.76655 0.0
H539 H 0.77699 0.73219 0.21933 0.0
H540 H 0.72096 0.63905 0.33273 0.0
H541 H 0.67408 0.58622 0.27478 0.0
H542 H 0.64128 0.57179 0.1931 0.0
H543 H 0.68788 0.66863 0.07753 0.0
H544 H 0.74588 0.71485 0.13439 0.0
C545 C 0.7555 0.69951 0.23091 0.0
C546 C 0.75428 0.68826 0.28046 0.0
C547 C 0.72598 0.67073 0.19684 0.0
C548 C 0.72499 0.6469 0.2953 0.0
C549 C 0.69715 0.61729 0.26192 0.0
C550 C 0.66427 0.6028 0.17993 0.0
C551 C 0.65972 0.61706 0.13111 0.0
C552 C 0.69637 0.62957 0.2128 0.0
C553 C 0.6904 0.65697 0.11491 0.0
C554 C 0.72346 0.68346 0.14749 0.0
H555 H 0.38295 0.68265 0.22888 0.0
H556 H 0.47516 0.69051 0.35378 0.0
H557 H 0.51801 0.66274 0.30875 0.0
H558 H 0.52502 0.62927 0.2357 0.0
H559 H 0.42844 0.61589 0.11314 0.0
H560 H 0.39115 0.65202 0.15529 0.0
C561 C 0.41321 0.67958 0.24555 0.0
C562 C 0.42659 0.68964 0.29412 0.0
C563 C 0.43613 0.66137 0.22014 0.0
C564 C 0.46495 0.68408 0.31615 0.0
C565 C 0.48896 0.66756 0.29054 0.0
C566 C 0.49591 0.63442 0.21806 0.0
C567 C 0.47954 0.61951 0.17115 0.0
C568 C 0.47421 0.65488 0.24286 0.0
C569 C 0.44171 0.62655 0.14914 0.0
C570 C 0.42043 0.64747 0.1732 0.0
H571 H 0.73525 0.39113 0.15249 0.0
H572 H 0.67978 0.37238 0.28434 0.0
H573 H 0.62507 0.40405 0.24534 0.0
H574 H 0.59168 0.43445 0.17273 0.0
H575 H 0.64928 0.45747 0.04138 0.0
H576 H 0.70429 0.42641 0.0805 0.0
C577 C 0.71153 0.39491 0.1725 0.0
C578 C 0.71127 0.37999 0.22099 0.0
C579 C 0.68026 0.41302 0.14966 0.0
C580 C 0.68041 0.3843 0.24702 0.0
C581 C 0.64908 0.40193 0.22463 0.0
C582 C 0.61604 0.43215 0.15263 0.0
C583 C 0.61602 0.44723 0.10407 0.0
C584 C 0.64827 0.41573 0.17578 0.0
C585 C 0.64846 0.44547 0.07869 0.0
C586 C 0.67998 0.42796 0.10109 0.0
loop_
_geom_bond_atom_site_label_1
_geom_bond_atom_site_label_2
_geom_bond_distance
_geom_bond_site_symmetry_2
_ccdc_geom_bond_type
C0 N1 1.317 . S
C0 N2 1.348 . S
C0 C3 1.485 . S
N1 C0 1.317 . S
N1 N5 1.370 . S
N2 C0 1.348 . S
N2 C4 1.346 . S
C3 C0 1.485 . S
C3 H7 0.960 . S
C3 H8 0.961 . S
C3 H9 0.960 . S
C4 N2 1.346 . S
C4 N5 1.307 . S
C4 C6 1.486 . S
N5 N1 1.370 . S
N5 C4 1.307 . S
C6 C4 1.486 . S
C6 H10 0.960 . S
C6 H11 0.960 . S
C6 H12 0.959 . S
H7 C3 0.960 . S
H8 C3 0.961 . S
H9 C3 0.960 . S
H10 C6 0.960 . S
H11 C6 0.960 . S
H12 C6 0.959 . S
C13 N14 1.317 . S
C13 N15 1.348 . S
C13 C16 1.485 . S
N14 C13 1.317 . S
N14 N18 1.370 . S
N15 C13 1.348 . S
N15 C17 1.346 . S
C16 C13 1.485 . S
C16 H20 0.960 . S
C16 H21 0.961 . S
C16 H22 0.960 . S
C17 N15 1.346 . S
C17 N18 1.307 . S
C17 C19 1.486 . S
N18 N14 1.370 . S
N18 C17 1.307 . S
C19 C17 1.486 . S
C19 H23 0.960 . S
C19 H24 0.960 . S
C19 H25 0.959 . S
H20 C16 0.960 . S
H21 C16 0.961 . S
H22 C16 0.960 . S
H23 C19 0.960 . S
H24 C19 0.960 . S
H25 C19 0.959 . S
C26 N27 1.317 . S
C26 N28 1.348 . S
C26 C29 1.485 . S
N27 C26 1.317 . S
N27 N31 1.370 . S
N28 C26 1.348 . S
N28 C30 1.346 . S
C29 C26 1.485 . S
C29 H33 0.960 . S
C29 H34 0.961 . S
C29 H35 0.960 . S
C30 N28 1.346 . S
C30 N31 1.307 . S
C30 C32 1.486 . S
N31 N27 1.370 . S
N31 C30 1.307 . S
C32 C30 1.486 . S
C32 H36 0.960 . S
C32 H37 0.960 . S
C32 H38 0.959 . S
H33 C29 0.960 . S
H34 C29 0.961 . S
H35 C29 0.960 . S
H36 C32 0.960 . S
H37 C32 0.960 . S
H38 C32 0.959 . S
C39 N40 1.317 . S
C39 N41 1.348 . S
C39 C42 1.485 . S
N40 C39 1.317 . S
N40 N44 1.370 . S
N41 C39 1.348 . S
N41 C43 1.346 . S
C42 C39 1.485 . S
C42 H46 0.960 . S
C42 H47 0.961 . S
C42 H48 0.960 . S
C43 N41 1.346 . S
C43 N44 1.307 . S
C43 C45 1.486 . S
N44 N40 1.370 . S
N44 C43 1.307 . S
C45 C43 1.486 . S
C45 H49 0.960 . S
C45 H50 0.960 . S
C45 H51 0.959 . S
H46 C42 0.960 . S
H47 C42 0.961 . S
H48 C42 0.960 . S
H49 C45 0.960 . S
H50 C45 0.960 . S
H51 C45 0.959 . S
C52 N53 1.317 . S
C52 N54 1.348 . S
C52 C55 1.485 . S
N53 C52 1.317 . S
N53 N57 1.370 . S
N54 C52 1.348 . S
N54 C56 1.346 . S
C55 C52 1.485 . S
C55 H59 0.960 . S
C55 H60 0.961 . S
C55 H61 0.960 . S
C56 N54 1.346 . S
C56 N57 1.307 . S
C56 C58 1.486 . S
N57 N53 1.370 . S
N57 C56 1.307 . S
C58 C56 1.486 . S
C58 H62 0.960 . S
C58 H63 0.960 . S
C58 H64 0.959 . S
H59 C55 0.960 . S
H60 C55 0.961 . S
H61 C55 0.960 . S
H62 C58 0.960 . S
H63 C58 0.960 . S
H64 C58 0.959 . S
C65 N66 1.317 . S
C65 N67 1.348 . S
C65 C68 1.485 . S
N66 C65 1.317 . S
N66 N70 1.370 . S
N67 C65 1.348 . S
N67 C69 1.346 . S
C68 C65 1.485 . S
C68 H72 0.960 . S
C68 H73 0.961 . S
C68 H74 0.960 . S
C69 N67 1.346 . S
C69 N70 1.307 . S
C69 C71 1.486 . S
N70 N66 1.370 . S
N70 C69 1.307 . S
C71 C69 1.486 . S
C71 H75 0.960 . S
C71 H76 0.960 . S
C71 H77 0.959 . S
H72 C68 0.960 . S
H73 C68 0.961 . S
H74 C68 0.960 . S
H75 C71 0.960 . S
H76 C71 0.960 . S
H77 C71 0.959 . S
C78 N79 1.317 . S
C78 N80 1.348 . S
C78 C81 1.485 . S
N79 C78 1.317 . S
N79 N83 1.370 . S
N80 C78 1.348 . S
N80 C82 1.346 . S
C81 C78 1.485 . S
C81 H85 0.960 . S
C81 H86 0.961 . S
C81 H87 0.960 . S
C82 N80 1.346 . S
C82 N83 1.307 . S
C82 C84 1.486 . S
N83 N79 1.370 . S
N83 C82 1.307 . S
C84 C82 1.486 . S
C84 H88 0.960 . S
C84 H89 0.960 . S
C84 H90 0.959 . S
H85 C81 0.960 . S
H86 C81 0.961 . S
H87 C81 0.960 . S
H88 C84 0.960 . S
H89 C84 0.960 . S
H90 C84 0.959 . S
C91 N92 1.317 . S
C91 N93 1.348 . S
C91 C94 1.485 . S
N92 C91 1.317 . S
N92 N96 1.370 . S
N93 C91 1.348 . S
N93 C95 1.346 . S
C94 C91 1.485 . S
C94 H98 0.960 . S
C94 H99 0.961 . S
C94 H100 0.960 . S
C95 N93 1.346 . S
C95 N96 1.307 . S
C95 C97 1.486 . S
N96 N92 1.370 . S
N96 C95 1.307 . S
C97 C95 1.486 . S
C97 H101 0.960 . S
C97 H102 0.960 . S
C97 H103 0.959 . S
H98 C94 0.960 . S
H99 C94 0.961 . S
H100 C94 0.960 . S
H101 C97 0.960 . S
H102 C97 0.960 . S
H103 C97 0.959 . S
Co104 O107 2.042 . S
Co104 O114 2.264 . S
Co104 O133 2.286 . S
Co104 O134 2.069 . S
Co104 O136 2.015 . S
Co105 O107 2.122 . S
Co105 O113 2.073 . S
Co105 O114 2.327 . S
Co105 O115 1.976 . S
Co106 O107 2.087 . S
Co106 O109 2.087 . S
Co106 O116 2.111 . S
Co106 O117 2.143 1_455 S
Co106 O121 2.111 . S
Co106 O135 2.143 . S
O107 Co104 2.042 . S
O107 Co105 2.122 . S
O107 Co106 2.087 . S
O107 H108 0.980 . S
H108 O107 0.980 . S
O109 Co106 2.087 . S
O109 Co110 2.042 1_455 S
O109 Co111 2.122 1_455 S
O109 H112 0.980 . S
Co110 O109 2.042 1_655 S
Co110 O118 2.286 . S
Co110 O119 2.069 . S
Co110 O120 2.015 . S
Co110 O123 2.264 . S
Co111 O109 2.122 1_655 S
Co111 O122 1.976 . S
Co111 O123 2.327 . S
Co111 O124 2.073 . S
H112 O109 0.980 . S
O113 Co105 2.073 . S
O113 C128 1.245 . S
O114 Co104 2.264 . S
O114 Co105 2.327 . S
O114 C128 1.257 . S
O115 Co105 1.976 . S
O115 C127 1.251 . S
O116 Co106 2.111 . S
O116 C127 1.274 . S
O117 Co106 2.143 1_655 S
O117 C130 1.246 . S
O118 Co110 2.286 . S
O118 C129 1.259 . S
O119 Co110 2.069 . S
O119 C129 1.289 . S
O120 Co110 2.015 . S
O120 C130 1.257 . S
O121 Co106 2.111 . S
O121 C131 1.274 1_455 S
O122 Co111 1.976 . S
O122 C131 1.251 . S
O123 Co110 2.264 . S
O123 Co111 2.327 . S
O123 C132 1.257 . S
O124 Co111 2.073 . S
O124 C132 1.245 . S
C125 O133 1.259 . S
C125 O134 1.289 . S
C126 O135 1.246 . S
C126 O136 1.257 . S
C127 O115 1.251 . S
C127 O116 1.274 . S
C128 O113 1.245 . S
C128 O114 1.257 . S
C129 O118 1.259 . S
C129 O119 1.289 . S
C130 O117 1.246 . S
C130 O120 1.257 . S
C131 O121 1.274 1_655 S
C131 O122 1.251 . S
C132 O123 1.257 . S
C132 O124 1.245 . S
O133 Co104 2.286 . S
O133 C125 1.259 . S
O134 Co104 2.069 . S
O134 C125 1.289 . S
O135 Co106 2.143 . S
O135 C126 1.246 . S
O136 Co104 2.015 . S
O136 C126 1.257 . S
Co137 O140 2.042 . S
Co137 O147 2.264 . S
Co137 O166 2.286 . S
Co137 O167 2.069 . S
Co137 O169 2.015 . S
Co138 O140 2.122 . S
Co138 O146 2.073 . S
Co138 O147 2.327 . S
Co138 O148 1.976 . S
Co139 O140 2.087 1_545 S
Co139 O142 2.087 . S
Co139 O149 2.111 1_545 S
Co139 O150 2.143 . S
Co139 O154 2.111 . S
Co139 O168 2.143 1_545 S
O140 Co137 2.042 . S
O140 Co138 2.122 . S
O140 Co139 2.087 1_565 S
O140 H141 0.980 1_565 S
H141 O140 0.980 1_545 S
O142 Co139 2.087 . S
O142 Co143 2.042 . S
O142 Co144 2.122 . S
O142 H145 0.980 . S
Co143 O142 2.042 . S
Co143 O151 2.286 . S
Co143 O152 2.069 . S
Co143 O153 2.015 . S
Co143 O156 2.264 . S
Co144 O142 2.122 . S
Co144 O155 1.976 . S
Co144 O156 2.327 . S
Co144 O157 2.073 . S
H145 O142 0.980 . S
O146 Co138 2.073 . S
O146 C161 1.245 . S
O147 Co137 2.264 . S
O147 Co138 2.327 . S
O147 C161 1.257 . S
O148 Co138 1.976 . S
O148 C160 1.251 . S
O149 Co139 2.111 1_565 S
O149 C160 1.274 . S
O150 Co139 2.143 . S
O150 C163 1.246 . S
O151 Co143 2.286 . S
O151 C162 1.259 . S
O152 Co143 2.069 . S
O152 C162 1.289 . S
O153 Co143 2.015 . S
O153 C163 1.257 . S
O154 Co139 2.111 . S
O154 C164 1.274 . S
O155 Co144 1.976 . S
O155 C164 1.251 . S
O156 Co143 2.264 . S
O156 Co144 2.327 . S
O156 C165 1.257 . S
O157 Co144 2.073 . S
O157 C165 1.245 . S
C158 O166 1.259 . S
C158 O167 1.289 . S
C159 O168 1.246 . S
C159 O169 1.257 . S
C160 O148 1.251 . S
C160 O149 1.274 . S
C161 O146 1.245 . S
C161 O147 1.257 . S
C162 O151 1.259 . S
C162 O152 1.289 . S
C163 O150 1.246 . S
C163 O153 1.257 . S
C164 O154 1.274 . S
C164 O155 1.251 . S
C165 O156 1.257 . S
C165 O157 1.245 . S
O166 Co137 2.286 . S
O166 C158 1.259 . S
O167 Co137 2.069 . S
O167 C158 1.289 . S
O168 Co139 2.143 1_565 S
O168 C159 1.246 . S
O169 Co137 2.015 . S
O169 C159 1.257 . S
Co170 O173 2.042 . S
Co170 O180 2.264 . S
Co170 O199 2.286 . S
Co170 O200 2.069 . S
Co170 O202 2.015 . S
Co171 O173 2.122 . S
Co171 O179 2.073 . S
Co171 O180 2.327 . S
Co171 O181 1.976 . S
Co172 O173 2.087 . S
Co172 O175 2.087 1_554 S
Co172 O182 2.111 . S
Co172 O183 2.143 1_554 S
Co172 O187 2.111 1_554 S
Co172 O201 2.143 . S
O173 Co170 2.042 . S
O173 Co171 2.122 . S
O173 Co172 2.087 . S
O173 H174 0.980 . S
H174 O173 0.980 . S
O175 Co172 2.087 1_556 S
O175 Co176 2.042 . S
O175 Co177 2.122 . S
O175 H178 0.980 . S
Co176 O175 2.042 . S
Co176 O184 2.286 . S
Co176 O185 2.069 . S
Co176 O186 2.015 . S
Co176 O189 2.264 . S
Co177 O175 2.122 . S
Co177 O188 1.976 . S
Co177 O189 2.327 . S
Co177 O190 2.073 . S
H178 O175 0.980 . S
O179 Co171 2.073 . S
O179 C194 1.245 . S
O180 Co170 2.264 . S
O180 Co171 2.327 . S
O180 C194 1.257 . S
O181 Co171 1.976 . S
O181 C193 1.251 . S
O182 Co172 2.111 . S
O182 C193 1.274 . S
O183 Co172 2.143 1_556 S
O183 C196 1.246 . S
O184 Co176 2.286 . S
O184 C195 1.259 . S
O185 Co176 2.069 . S
O185 C195 1.289 . S
O186 Co176 2.015 . S
O186 C196 1.257 . S
O187 Co172 2.111 1_556 S
O187 C197 1.274 . S
O188 Co177 1.976 . S
O188 C197 1.251 . S
O189 Co176 2.264 . S
O189 Co177 2.327 . S
O189 C198 1.257 . S
O190 Co177 2.073 . S
O190 C198 1.245 . S
C191 O199 1.259 . S
C191 O200 1.289 . S
C192 O201 1.246 . S
C192 O202 1.257 . S
C193 O181 1.251 . S
C193 O182 1.274 . S
C194 O179 1.245 . S
C194 O180 1.257 . S
C195 O184 1.259 . S
C195 O185 1.289 . S
C196 O183 1.246 . S
C196 O186 1.257 . S
C197 O187 1.274 . S
C197 O188 1.251 . S
C198 O189 1.257 . S
C198 O190 1.245 . S
O199 Co170 2.286 . S
O199 C191 1.259 . S
O200 Co170 2.069 . S
O200 C191 1.289 . S
O201 Co172 2.143 . S
O201 C192 1.246 . S
O202 Co170 2.015 . S
O202 C192 1.257 . S
H203 C209 0.930 . S
H204 C212 0.930 . S
H205 C213 0.930 . S
H206 C214 0.930 . S
H207 C217 0.930 . S
H208 C218 0.930 . S
C209 H203 0.930 . S
C209 C210 1.355 . S
C209 C211 1.415 . S
C210 C209 1.355 . S
C210 C212 1.419 . S
C211 C209 1.415 . S
C211 C216 1.425 . S
C211 C218 1.409 . S
C212 H204 0.930 . S
C212 C210 1.419 . S
C212 C213 1.362 . S
C213 H205 0.930 . S
C213 C212 1.362 . S
C213 C216 1.409 . S
C214 H206 0.930 . S
C214 C215 1.355 . S
C214 C216 1.415 . S
C215 C214 1.355 . S
C215 C217 1.419 . S
C216 C211 1.425 . S
C216 C213 1.409 . S
C216 C214 1.415 . S
C217 H207 0.930 . S
C217 C215 1.419 . S
C217 C218 1.362 . S
C218 H208 0.930 . S
C218 C211 1.409 . S
C218 C217 1.362 . S
H219 C225 0.930 . S
H220 C228 0.930 . S
H221 C229 0.930 . S
H222 C230 0.930 . S
H223 C233 0.930 . S
H224 C234 0.930 . S
C225 H219 0.930 . S
C225 C226 1.355 . S
C225 C227 1.415 . S
C226 C225 1.355 . S
C226 C228 1.419 . S
C227 C225 1.415 . S
C227 C232 1.425 . S
C227 C234 1.409 . S
C228 H220 0.930 . S
C228 C226 1.419 . S
C228 C229 1.362 . S
C229 H221 0.930 . S
C229 C228 1.362 . S
C229 C232 1.409 . S
C230 H222 0.930 . S
C230 C231 1.355 . S
C230 C232 1.415 . S
C231 C230 1.355 . S
C231 C233 1.419 . S
C232 C227 1.425 . S
C232 C229 1.409 . S
C232 C230 1.415 . S
C233 H223 0.930 . S
C233 C231 1.419 . S
C233 C234 1.362 . S
C234 H224 0.930 . S
C234 C227 1.409 . S
C234 C233 1.362 . S
H235 C241 0.930 . S
H236 C244 0.930 . S
H237 C245 0.930 . S
H238 C246 0.930 . S
H239 C249 0.930 . S
H240 C250 0.930 . S
C241 H235 0.930 . S
C241 C242 1.355 . S
C241 C243 1.415 . S
C242 C241 1.355 . S
C242 C244 1.419 . S
C243 C241 1.415 . S
C243 C248 1.425 . S
C243 C250 1.409 . S
C244 H236 0.930 . S
C244 C242 1.419 . S
C244 C245 1.362 . S
C245 H237 0.930 . S
C245 C244 1.362 . S
C245 C248 1.409 . S
C246 H238 0.930 . S
C246 C247 1.355 . S
C246 C248 1.415 . S
C247 C246 1.355 . S
C247 C249 1.419 . S
C248 C243 1.425 . S
C248 C245 1.409 . S
C248 C246 1.415 . S
C249 H239 0.930 . S
C249 C247 1.419 . S
C249 C250 1.362 . S
C250 H240 0.930 . S
C250 C243 1.409 . S
C250 C249 1.362 . S
H251 C257 0.930 . S
H252 C260 0.930 . S
H253 C261 0.930 . S
H254 C262 0.930 . S
H255 C265 0.930 . S
H256 C266 0.930 . S
C257 H251 0.930 . S
C257 C258 1.355 . S
C257 C259 1.415 . S
C258 C257 1.355 . S
C258 C260 1.419 . S
C259 C257 1.415 . S
C259 C264 1.425 . S
C259 C266 1.409 . S
C260 H252 0.930 . S
C260 C258 1.419 . S
C260 C261 1.362 . S
C261 H253 0.930 . S
C261 C260 1.362 . S
C261 C264 1.409 . S
C262 H254 0.930 . S
C262 C263 1.355 . S
C262 C264 1.415 . S
C263 C262 1.355 . S
C263 C265 1.419 . S
C264 C259 1.425 . S
C264 C261 1.409 . S
C264 C262 1.415 . S
C265 H255 0.930 . S
C265 C263 1.419 . S
C265 C266 1.362 . S
C266 H256 0.930 . S
C266 C259 1.409 . S
C266 C265 1.362 . S
H267 C273 0.930 . S
H268 C276 0.930 . S
H269 C277 0.930 . S
H270 C278 0.930 . S
H271 C281 0.930 . S
H272 C282 0.930 . S
C273 H267 0.930 . S
C273 C274 1.355 . S
C273 C275 1.415 . S
C274 C273 1.355 . S
C274 C276 1.419 . S
C275 C273 1.415 . S
C275 C280 1.425 . S
C275 C282 1.409 . S
C276 H268 0.930 . S
C276 C274 1.419 . S
C276 C277 1.362 . S
C277 H269 0.930 . S
C277 C276 1.362 . S
C277 C280 1.409 . S
C278 H270 0.930 . S
C278 C279 1.355 . S
C278 C280 1.415 . S
C279 C278 1.355 . S
C279 C281 1.419 . S
C280 C275 1.425 . S
C280 C277 1.409 . S
C280 C278 1.415 . S
C281 H271 0.930 . S
C281 C279 1.419 . S
C281 C282 1.362 . S
C282 H272 0.930 . S
C282 C275 1.409 . S
C282 C281 1.362 . S
H283 C289 0.930 . S
H284 C292 0.930 . S
H285 C293 0.930 . S
H286 C294 0.930 . S
H287 C297 0.930 . S
H288 C298 0.930 . S
C289 H283 0.930 . S
C289 C290 1.355 . S
C289 C291 1.415 . S
C290 C289 1.355 . S
C290 C292 1.419 . S
C291 C289 1.415 . S
C291 C296 1.425 . S
C291 C298 1.409 . S
C292 H284 0.930 . S
C292 C290 1.419 . S
C292 C293 1.362 . S
C293 H285 0.930 . S
C293 C292 1.362 . S
C293 C296 1.409 . S
C294 H286 0.930 . S
C294 C295 1.355 . S
C294 C296 1.415 . S
C295 C294 1.355 . S
C295 C297 1.419 . S
C296 C291 1.425 . S
C296 C293 1.409 . S
C296 C294 1.415 . S
C297 H287 0.930 . S
C297 C295 1.419 . S
C297 C298 1.362 . S
C298 H288 0.930 . S
C298 C291 1.409 . S
C298 C297 1.362 . S
H299 C305 0.930 . S
H300 C308 0.930 . S
H301 C309 0.930 . S
H302 C310 0.930 . S
H303 C313 0.930 . S
H304 C314 0.930 . S
C305 H299 0.930 . S
C305 C306 1.355 . S
C305 C307 1.415 . S
C306 C305 1.355 . S
C306 C308 1.419 . S
C307 C305 1.415 . S
C307 C312 1.425 . S
C307 C314 1.409 . S
C308 H300 0.930 . S
C308 C306 1.419 . S
C308 C309 1.362 . S
C309 H301 0.930 . S
C309 C308 1.362 . S
C309 C312 1.409 . S
C310 H302 0.930 . S
C310 C311 1.355 . S
C310 C312 1.415 . S
C311 C310 1.355 . S
C311 C313 1.419 . S
C312 C307 1.425 . S
C312 C309 1.409 . S
C312 C310 1.415 . S
C313 H303 0.930 . S
C313 C311 1.419 . S
C313 C314 1.362 . S
C314 H304 0.930 . S
C314 C307 1.409 . S
C314 C313 1.362 . S
H315 C321 0.930 . S
H316 C324 0.930 . S
H317 C325 0.930 . S
H318 C326 0.930 . S
H319 C329 0.930 . S
H320 C330 0.930 . S
C321 H315 0.930 . S
C321 C322 1.355 . S
C321 C323 1.415 . S
C322 C321 1.355 . S
C322 C324 1.419 . S
C323 C321 1.415 . S
C323 C328 1.425 . S
C323 C330 1.409 . S
C324 H316 0.930 . S
C324 C322 1.419 . S
C324 C325 1.362 . S
C325 H317 0.930 . S
C325 C324 1.362 . S
C325 C328 1.409 . S
C326 H318 0.930 . S
C326 C327 1.355 . S
C326 C328 1.415 . S
C327 C326 1.355 . S
C327 C329 1.419 . S
C328 C323 1.425 . S
C328 C325 1.409 . S
C328 C326 1.415 . S
C329 H319 0.930 . S
C329 C327 1.419 . S
C329 C330 1.362 . S
C330 H320 0.930 . S
C330 C323 1.409 . S
C330 C329 1.362 . S
H331 C337 0.930 . S
H332 C340 0.930 . S
H333 C341 0.930 . S
H334 C342 0.930 . S
H335 C345 0.930 . S
H336 C346 0.930 . S
C337 H331 0.930 . S
C337 C338 1.355 . S
C337 C339 1.415 . S
C338 C337 1.355 . S
C338 C340 1.419 . S
C339 C337 1.415 . S
C339 C344 1.425 . S
C339 C346 1.409 . S
C340 H332 0.930 . S
C340 C338 1.419 . S
C340 C341 1.362 . S
C341 H333 0.930 . S
C341 C340 1.362 . S
C341 C344 1.409 . S
C342 H334 0.930 . S
C342 C343 1.355 . S
C342 C344 1.415 . S
C343 C342 1.355 . S
C343 C345 1.419 . S
C344 C339 1.425 . S
C344 C341 1.409 . S
C344 C342 1.415 . S
C345 H335 0.930 . S
C345 C343 1.419 . S
C345 C346 1.362 . S
C346 H336 0.930 . S
C346 C339 1.409 . S
C346 C345 1.362 . S
H347 C353 0.930 . S
H348 C356 0.930 . S
H349 C357 0.930 . S
H350 C358 0.930 . S
H351 C361 0.930 . S
H352 C362 0.930 . S
C353 H347 0.930 . S
C353 C354 1.355 . S
C353 C355 1.415 . S
C354 C353 1.355 . S
C354 C356 1.419 . S
C355 C353 1.415 . S
C355 C360 1.425 . S
C355 C362 1.409 . S
C356 H348 0.930 . S
C356 C354 1.419 . S
C356 C357 1.362 . S
C357 H349 0.930 . S
C357 C356 1.362 . S
C357 C360 1.409 . S
C358 H350 0.930 . S
C358 C359 1.355 . S
C358 C360 1.415 . S
C359 C358 1.355 . S
C359 C361 1.419 . S
C360 C355 1.425 . S
C360 C357 1.409 . S
C360 C358 1.415 . S
C361 H351 0.930 . S
C361 C359 1.419 . S
C361 C362 1.362 . S
C362 H352 0.930 . S
C362 C355 1.409 . S
C362 C361 1.362 . S
H363 C369 0.930 . S
H364 C372 0.930 . S
H365 C373 0.930 . S
H366 C374 0.930 . S
H367 C377 0.930 . S
H368 C378 0.930 . S
C369 H363 0.930 . S
C369 C370 1.355 . S
C369 C371 1.415 . S
C370 C369 1.355 . S
C370 C372 1.419 . S
C371 C369 1.415 . S
C371 C376 1.425 . S
C371 C378 1.409 . S
C372 H364 0.930 . S
C372 C370 1.419 . S
C372 C373 1.362 . S
C373 H365 0.930 . S
C373 C372 1.362 . S
C373 C376 1.409 . S
C374 H366 0.930 . S
C374 C375 1.355 . S
C374 C376 1.415 . S
C375 C374 1.355 . S
C375 C377 1.419 . S
C376 C371 1.425 . S
C376 C373 1.409 . S
C376 C374 1.415 . S
C377 H367 0.930 . S
C377 C375 1.419 . S
C377 C378 1.362 . S
C378 H368 0.930 . S
C378 C371 1.409 . S
C378 C377 1.362 . S
H379 C385 0.930 . S
H380 C388 0.930 . S
H381 C389 0.930 . S
H382 C390 0.930 . S
H383 C393 0.930 . S
H384 C394 0.930 . S
C385 H379 0.930 . S
C385 C386 1.355 . S
C385 C387 1.415 . S
C386 C385 1.355 . S
C386 C388 1.419 . S
C387 C385 1.415 . S
C387 C392 1.425 . S
C387 C394 1.409 . S
C388 H380 0.930 . S
C388 C386 1.419 . S
C388 C389 1.362 . S
C389 H381 0.930 . S
C389 C388 1.362 . S
C389 C392 1.409 . S
C390 H382 0.930 . S
C390 C391 1.355 . S
C390 C392 1.415 . S
C391 C390 1.355 . S
C391 C393 1.419 . S
C392 C387 1.425 . S
C392 C389 1.409 . S
C392 C390 1.415 . S
C393 H383 0.930 . S
C393 C391 1.419 . S
C393 C394 1.362 . S
C394 H384 0.930 . S
C394 C387 1.409 . S
C394 C393 1.362 . S
H395 C401 0.930 . S
H396 C404 0.930 . S
H397 C405 0.930 . S
H398 C406 0.930 . S
H399 C409 0.930 . S
H400 C410 0.930 . S
C401 H395 0.930 . S
C401 C402 1.355 . S
C401 C403 1.415 . S
C402 C401 1.355 . S
C402 C404 1.419 . S
C403 C401 1.415 . S
C403 C408 1.425 . S
C403 C410 1.409 . S
C404 H396 0.930 . S
C404 C402 1.419 . S
C404 C405 1.362 . S
C405 H397 0.930 . S
C405 C404 1.362 . S
C405 C408 1.409 . S
C406 H398 0.930 . S
C406 C407 1.355 . S
C406 C408 1.415 . S
C407 C406 1.355 . S
C407 C409 1.419 . S
C408 C403 1.425 . S
C408 C405 1.409 . S
C408 C406 1.415 . S
C409 H399 0.930 . S
C409 C407 1.419 . S
C409 C410 1.362 . S
C410 H400 0.930 . S
C410 C403 1.409 . S
C410 C409 1.362 . S
H411 C417 0.930 . S
H412 C420 0.930 . S
H413 C421 0.930 . S
H414 C422 0.930 . S
H415 C425 0.930 . S
H416 C426 0.930 . S
C417 H411 0.930 . S
C417 C418 1.355 . S
C417 C419 1.415 . S
C418 C417 1.355 . S
C418 C420 1.419 . S
C419 C417 1.415 . S
C419 C424 1.425 . S
C419 C426 1.409 . S
C420 H412 0.930 . S
C420 C418 1.419 . S
C420 C421 1.362 . S
C421 H413 0.930 . S
C421 C420 1.362 . S
C421 C424 1.409 . S
C422 H414 0.930 . S
C422 C423 1.355 . S
C422 C424 1.415 . S
C423 C422 1.355 . S
C423 C425 1.419 . S
C424 C419 1.425 . S
C424 C421 1.409 . S
C424 C422 1.415 . S
C425 H415 0.930 . S
C425 C423 1.419 . S
C425 C426 1.362 . S
C426 H416 0.930 . S
C426 C419 1.409 . S
C426 C425 1.362 . S
H427 C433 0.930 . S
H428 C436 0.930 . S
H429 C437 0.930 . S
H430 C438 0.930 . S
H431 C441 0.930 . S
H432 C442 0.930 . S
C433 H427 0.930 . S
C433 C434 1.355 . S
C433 C435 1.415 . S
C434 C433 1.355 . S
C434 C436 1.419 . S
C435 C433 1.415 . S
C435 C440 1.425 . S
C435 C442 1.409 . S
C436 H428 0.930 . S
C436 C434 1.419 . S
C436 C437 1.362 . S
C437 H429 0.930 . S
C437 C436 1.362 . S
C437 C440 1.409 . S
C438 H430 0.930 . S
C438 C439 1.355 . S
C438 C440 1.415 . S
C439 C438 1.355 . S
C439 C441 1.419 . S
C440 C435 1.425 . S
C440 C437 1.409 . S
C440 C438 1.415 . S
C441 H431 0.930 . S
C441 C439 1.419 . S
C441 C442 1.362 . S
C442 H432 0.930 . S
C442 C435 1.409 . S
C442 C441 1.362 . S
H443 C449 0.930 . S
H444 C452 0.930 . S
H445 C453 0.930 . S
H446 C454 0.930 . S
H447 C457 0.930 . S
H448 C458 0.930 . S
C449 H443 0.930 . S
C449 C450 1.355 . S
C449 C451 1.415 . S
C450 C449 1.355 . S
C450 C452 1.419 . S
C451 C449 1.415 . S
C451 C456 1.425 . S
C451 C458 1.409 . S
C452 H444 0.930 . S
C452 C450 1.419 . S
C452 C453 1.362 . S
C453 H445 0.930 . S
C453 C452 1.362 . S
C453 C456 1.409 . S
C454 H446 0.930 . S
C454 C455 1.355 . S
C454 C456 1.415 . S
C455 C454 1.355 . S
C455 C457 1.419 . S
C456 C451 1.425 . S
C456 C453 1.409 . S
C456 C454 1.415 . S
C457 H447 0.930 . S
C457 C455 1.419 . S
C457 C458 1.362 . S
C458 H448 0.930 . S
C458 C451 1.409 . S
C458 C457 1.362 . S
H459 C465 0.930 . S
H460 C468 0.930 . S
H461 C469 0.930 . S
H462 C470 0.930 . S
H463 C473 0.930 . S
H464 C474 0.930 . S
C465 H459 0.930 . S
C465 C466 1.355 . S
C465 C467 1.415 . S
C466 C465 1.355 . S
C466 C468 1.419 . S
C467 C465 1.415 . S
C467 C472 1.425 . S
C467 C474 1.409 . S
C468 H460 0.930 . S
C468 C466 1.419 . S
C468 C469 1.362 . S
C469 H461 0.930 . S
C469 C468 1.362 . S
C469 C472 1.409 . S
C470 H462 0.930 . S
C470 C471 1.355 . S
C470 C472 1.415 . S
C471 C470 1.355 . S
C471 C473 1.419 . S
C472 C467 1.425 . S
C472 C469 1.409 . S
C472 C470 1.415 . S
C473 H463 0.930 . S
C473 C471 1.419 . S
C473 C474 1.362 . S
C474 H464 0.930 . S
C474 C467 1.409 . S
C474 C473 1.362 . S
H475 C481 0.930 . S
H476 C484 0.930 . S
H477 C485 0.930 . S
H478 C486 0.930 . S
H479 C489 0.930 . S
H480 C490 0.930 . S
C481 H475 0.930 . S
C481 C482 1.355 . S
C481 C483 1.415 . S
C482 C481 1.355 . S
C482 C484 1.419 . S
C483 C481 1.415 . S
C483 C488 1.425 . S
C483 C490 1.409 . S
C484 H476 0.930 . S
C484 C482 1.419 . S
C484 C485 1.362 . S
C485 H477 0.930 . S
C485 C484 1.362 . S
C485 C488 1.409 . S
C486 H478 0.930 . S
C486 C487 1.355 . S
C486 C488 1.415 . S
C487 C486 1.355 . S
C487 C489 1.419 . S
C488 C483 1.425 . S
C488 C485 1.409 . S
C488 C486 1.415 . S
C489 H479 0.930 . S
C489 C487 1.419 . S
C489 C490 1.362 . S
C490 H480 0.930 . S
C490 C483 1.409 . S
C490 C489 1.362 . S
H491 C497 0.930 . S
H492 C500 0.930 . S
H493 C501 0.930 . S
H494 C502 0.930 . S
H495 C505 0.930 . S
H496 C506 0.930 . S
C497 H491 0.930 . S
C497 C498 1.355 . S
C497 C499 1.415 . S
C498 C497 1.355 . S
C498 C500 1.419 . S
C499 C497 1.415 . S
C499 C504 1.425 . S
C499 C506 1.409 . S
C500 H492 0.930 . S
C500 C498 1.419 . S
C500 C501 1.362 . S
C501 H493 0.930 . S
C501 C500 1.362 . S
C501 C504 1.409 . S
C502 H494 0.930 . S
C502 C503 1.355 . S
C502 C504 1.415 . S
C503 C502 1.355 . S
C503 C505 1.419 . S
C504 C499 1.425 . S
C504 C501 1.409 . S
C504 C502 1.415 . S
C505 H495 0.930 . S
C505 C503 1.419 . S
C505 C506 1.362 . S
C506 H496 0.930 . S
C506 C499 1.409 . S
C506 C505 1.362 . S
H507 C513 0.930 . S
H508 C516 0.930 . S
H509 C517 0.930 . S
H510 C518 0.930 . S
H511 C521 0.930 . S
H512 C522 0.930 . S
C513 H507 0.930 . S
C513 C514 1.355 . S
C513 C515 1.415 . S
C514 C513 1.355 . S
C514 C516 1.419 . S
C515 C513 1.415 . S
C515 C520 1.425 . S
C515 C522 1.409 . S
C516 H508 0.930 . S
C516 C514 1.419 . S
C516 C517 1.362 . S
C517 H509 0.930 . S
C517 C516 1.362 . S
C517 C520 1.409 . S
C518 H510 0.930 . S
C518 C519 1.355 . S
C518 C520 1.415 . S
C519 C518 1.355 . S
C519 C521 1.419 . S
C520 C515 1.425 . S
C520 C517 1.409 . S
C520 C518 1.415 . S
C521 H511 0.930 . S
C521 C519 1.419 . S
C521 C522 1.362 . S
C522 H512 0.930 . S
C522 C515 1.409 . S
C522 C521 1.362 . S
H523 C529 0.930 . S
H524 C532 0.930 . S
H525 C533 0.930 . S
H526 C534 0.930 . S
H527 C537 0.930 . S
H528 C538 0.930 . S
C529 H523 0.930 . S
C529 C530 1.355 . S
C529 C531 1.415 . S
C530 C529 1.355 . S
C530 C532 1.419 . S
C531 C529 1.415 . S
C531 C536 1.425 . S
C531 C538 1.409 . S
C532 H524 0.930 . S
C532 C530 1.419 . S
C532 C533 1.362 . S
C533 H525 0.930 . S
C533 C532 1.362 . S
C533 C536 1.409 . S
C534 H526 0.930 . S
C534 C535 1.355 . S
C534 C536 1.415 . S
C535 C534 1.355 . S
C535 C537 1.419 . S
C536 C531 1.425 . S
C536 C533 1.409 . S
C536 C534 1.415 . S
C537 H527 0.930 . S
C537 C535 1.419 . S
C537 C538 1.362 . S
C538 H528 0.930 . S
C538 C531 1.409 . S
C538 C537 1.362 . S
H539 C545 0.930 . S
H540 C548 0.930 . S
H541 C549 0.930 . S
H542 C550 0.930 . S
H543 C553 0.930 . S
H544 C554 0.930 . S
C545 H539 0.930 . S
C545 C546 1.355 . S
C545 C547 1.415 . S
C546 C545 1.355 . S
C546 C548 1.419 . S
C547 C545 1.415 . S
C547 C552 1.425 . S
C547 C554 1.409 . S
C548 H540 0.930 . S
C548 C546 1.419 . S
C548 C549 1.362 . S
C549 H541 0.930 . S
C549 C548 1.362 . S
C549 C552 1.409 . S
C550 H542 0.930 . S
C550 C551 1.355 . S
C550 C552 1.415 . S
C551 C550 1.355 . S
C551 C553 1.419 . S
C552 C547 1.425 . S
C552 C549 1.409 . S
C552 C550 1.415 . S
C553 H543 0.930 . S
C553 C551 1.419 . S
C553 C554 1.362 . S
C554 H544 0.930 . S
C554 C547 1.409 . S
C554 C553 1.362 . S
H555 C561 0.930 . S
H556 C564 0.930 . S
H557 C565 0.930 . S
H558 C566 0.930 . S
H559 C569 0.930 . S
H560 C570 0.930 . S
C561 H555 0.930 . S
C561 C562 1.355 . S
C561 C563 1.415 . S
C562 C561 1.355 . S
C562 C564 1.419 . S
C563 C561 1.415 . S
C563 C568 1.425 . S
C563 C570 1.409 . S
C564 H556 0.930 . S
C564 C562 1.419 . S
C564 C565 1.362 . S
C565 H557 0.930 . S
C565 C564 1.362 . S
C565 C568 1.409 . S
C566 H558 0.930 . S
C566 C567 1.355 . S
C566 C568 1.415 . S
C567 C566 1.355 . S
C567 C569 1.419 . S
C568 C563 1.425 . S
C568 C565 1.409 . S
C568 C566 1.415 . S
C569 H559 0.930 . S
C569 C567 1.419 . S
C569 C570 1.362 . S
C570 H560 0.930 . S
C570 C563 1.409 . S
C570 C569 1.362 . S
H571 C577 0.930 . S
H572 C580 0.930 . S
H573 C581 0.930 . S
H574 C582 0.930 . S
H575 C585 0.930 . S
H576 C586 0.930 . S
C577 H571 0.930 . S
C577 C578 1.355 . S
C577 C579 1.415 . S
C578 C577 1.355 . S
C578 C580 1.419 . S
C579 C577 1.415 . S
C579 C584 1.425 . S
C579 C586 1.409 . S
C580 H572 0.930 . S
C580 C578 1.419 . S
C580 C581 1.362 . S
C581 H573 0.930 . S
C581 C580 1.362 . S
C581 C584 1.409 . S
C582 H574 0.930 . S
C582 C583 1.355 . S
C582 C584 1.415 . S
C583 C582 1.355 . S
C583 C585 1.419 . S
C584 C579 1.425 . S
C584 C581 1.409 . S
C584 C582 1.415 . S
C585 H575 0.930 . S
C585 C583 1.419 . S
C585 C586 1.362 . S
C586 H576 0.930 . S
C586 C579 1.409 . S
C586 C585 1.362 . S
C215 C128 1.222 . S
C210 N2 1.391 . S
C231 C164 1.302 . S
C226 N14 1.311 . S
C247 C129 1.536 . S
C242 N27 1.510 . S
C263 C159 1.698 . S
C258 N44 1.753 . S
C279 C126 1.141 . S
C274 N54 1.228 . S
C290 N67 1.590 . S
C295 C162 1.572 . S
C306 N83 0.958 . S
C311 C131 0.852 . S
C327 C161 1.191 . S
C322 N93 1.298 . S
C343 C165 1.644 . S
C338 N1 1.661 . S
C359 C130 1.105 . S
C354 N18 1.221 . S
C375 C158 1.347 . S
C370 N28 1.317 . S
C391 C127 1.276 . S
C386 N41 1.379 . S
C407 C160 1.725 . S
C402 N57 1.840 . S
C418 N66 1.524 . S
C423 C125 1.457 . S
C434 N79 1.498 . S
C439 C163 1.436 . S
C455 C132 1.464 . S
C450 N96 1.515 . S
C471 C194 1.744 . S
C466 N5 1.840 . S
C482 N53 1.911 . S
C487 C197 1.780 . S
C503 C196 1.862 . S
C498 N70 1.843 . S
C514 N80 1.666 . S
C519 C195 1.623 . S
C535 C198 1.707 . S
C530 N92 1.748 . S
C546 N31 1.603 . S
C551 C192 1.633 . S
C567 C191 2.124 . S
C562 N40 2.080 . S
C578 N15 1.324 . S
C583 C193 1.241 . S
