# Generated by pormake.
# Topology tsx, (6,3)-cn, num edge types: 1
# Building blocks:
#     Node 0, Type 0, BuildingBlock: CIFDUS_clean_sbu_1, # of connection points: 6
#     Node 1, Type 0, BuildingBlock: CIFDUS_clean_sbu_1, # of connection points: 6
#     Node 2, Type 1, BuildingBlock: ESEHIV_clean_linker_0, # of connection points: 3
#     Node 3, Type 1, BuildingBlock: ESEHIV_clean_linker_0, # of connection points: 3
#     Node 4, Type 1, BuildingBlock: ESEHIV_clean_linker_0, # of connection points: 3
#     Node 5, Type 1, BuildingBlock: ESEHIV_clean_linker_0, # of connection points: 3
#     Edge 6, Type (0, 1), BuildingBlock: XUDNAN_clean_linker_2, # of connection points: 2
#     Edge 7, Type (0, 1), BuildingBlock: XUDNAN_clean_linker_2, # of connection points: 2
#     Edge 8, Type (0, 1), BuildingBlock: XUDNAN_clean_linker_2, # of connection points: 2
#     Edge 9, Type (0, 1), BuildingBlock: XUDNAN_clean_linker_2, # of connection points: 2
#     Edge 10, Type (0, 1), BuildingBlock: XUDNAN_clean_linker_2, # of connection points: 2
#     Edge 11, Type (0, 1), BuildingBlock: XUDNAN_clean_linker_2, # of connection points: 2
#     Edge 12, Type (0, 1), BuildingBlock: XUDNAN_clean_linker_2, # of connection points: 2
#     Edge 13, Type (0, 1), BuildingBlock: XUDNAN_clean_linker_2, # of connection points: 2
#     Edge 14, Type (0, 1), BuildingBlock: XUDNAN_clean_linker_2, # of connection points: 2
#     Edge 15, Type (0, 1), BuildingBlock: XUDNAN_clean_linker_2, # of connection points: 2
#     Edge 16, Type (0, 1), BuildingBlock: XUDNAN_clean_linker_2, # of connection points: 2
#     Edge 17, Type (0, 1), BuildingBlock: XUDNAN_clean_linker_2, # of connection points: 2
# Relax obj value: 0.128
# Max RMSD: 0.156
# Mean RMSD: 0.118
data_MOF--net-tsx--node1-CIFDUS_clean_sbu_1--node2-ESEHIV_clean_linker_0--edge1-XUDNAN_clean_linker_2
_symmetry_space_group_name_H-M    P1
_symmetry_Int_Tables_number       1
_symmetry_cell_setting            triclinic
loop_
_symmetry_equiv_pos_as_xyz
'x, y, z'
_cell_length_a     16.904496
_cell_length_b     20.210829
_cell_length_c     35.434287
_cell_angle_alpha  96.741787
_cell_angle_beta   95.88578
_cell_angle_gamma 91.572629
loop_
_atom_site_label
_atom_site_type_symbol
_atom_site_fract_x
_atom_site_fract_y
_atom_site_fract_z
_atom_type_partial_charge
O0 O 0.99764 0.16781 0.0033 0.0
Mn1 Mn 0.04931 0.07327 -0.00213 0.0
O2 O 0.87615 0.15468 0.97037 0.0
Mn3 Mn 0.89147 0.07044 0.94759 0.0
O4 O 0.10122 0.97909 0.99146 0.0
O5 O 0.15631 0.1217 0.01412 0.0
Mn6 Mn 0.20989 0.07469 0.0463 0.0
O7 O 0.03196 0.06347 0.05502 0.0
O8 O 0.22559 0.99272 0.02064 0.0
O9 O 0.0684 0.08163 0.94079 0.0
O10 O 0.94896 0.06668 0.90628 0.0
O11 O 0.2768 0.14528 0.04247 0.0
O12 O 0.15343 0.07389 0.08803 0.0
C13 C 0.87804 0.98584 0.97659 0.0
C14 C 0.9299 0.19023 0.99172 0.0
C15 C 0.17073 0.95698 0.00011 0.0
C16 C 0.21815 0.16264 0.0197 0.0
C17 C 0.07811 0.06612 0.08651 0.0
C18 C 0.0241 0.07564 0.90871 0.0
O19 O 0.94162 0.02507 0.98183 0.0
O20 O 0.82214 1.00235 0.95198 0.0
O21 O 0.4817 0.63597 0.50138 0.0
Mn22 Mn 0.53813 0.54376 0.49746 0.0
O23 O 0.36616 0.6183 0.46335 0.0
Mn24 Mn 0.38584 0.533 0.44274 0.0
O25 O 0.59431 0.4515 0.49207 0.0
O26 O 0.64178 0.59496 0.51497 0.0
Mn27 Mn 0.70023 0.55 0.54625 0.0
O28 O 0.51954 0.53294 0.55419 0.0
O29 O 0.71973 0.46957 0.51944 0.0
O30 O 0.56111 0.55455 0.44162 0.0
O31 O 0.44892 0.52584 0.40314 0.0
O32 O 0.76001 0.6259 0.54266 0.0
O33 O 0.6417 0.54414 0.587 0.0
C34 C 0.37106 0.45112 0.4739 0.0
C35 C 0.41477 0.65583 0.48681 0.0
C36 C 0.66517 0.43163 0.50008 0.0
C37 C 0.6988 0.64015 0.52045 0.0
C38 C 0.56636 0.53503 0.58547 0.0
C39 C 0.52284 0.5415 0.40831 0.0
O40 O 0.4332 0.49197 0.4798 0.0
O41 O 0.31728 0.46438 0.44735 0.0
H42 H 0.88717 0.05315 0.3547 0.0
H43 H 0.11382 0.96201 0.35705 0.0
H44 H 0.01291 0.02007 0.4622 0.0
C45 C 0.9371 0.03281 0.37064 0.0
C46 C 0.94191 0.03908 0.41066 0.0
C47 C 0.99888 1.00573 0.35108 0.0
C48 C 0.06612 0.98358 0.37205 0.0
C49 C 0.07146 0.98766 0.41216 0.0
C50 C 1.00888 0.01552 0.43133 0.0
H51 H 0.97968 0.98873 0.63111 0.0
H52 H 0.20211 0.09774 0.63501 0.0
H53 H 0.05926 0.04391 0.52726 0.0
C54 C 0.02383 0.01239 0.6164 0.0
C55 C 0.01102 0.01247 0.57661 0.0
C56 C 0.09344 0.04183 0.6374 0.0
C57 C 0.15071 0.0718 0.61836 0.0
C58 C 0.13878 0.07387 0.57871 0.0
C59 C 0.0692 0.04278 0.55782 0.0
H60 H 0.38124 0.55504 0.85187 0.0
H61 H 0.59434 0.44604 0.86085 0.0
H62 H 0.51522 0.55651 0.96128 0.0
C63 C 0.43036 0.53702 0.8695 0.0
C64 C 0.4395 0.55703 0.90894 0.0
C65 C 0.48742 0.499 0.85205 0.0
C66 C 0.55288 0.47792 0.87474 0.0
C67 C 0.56446 0.49753 0.91456 0.0
C68 C 0.50732 0.53836 0.93115 0.0
H69 H 0.48089 0.52834 0.1362 0.0
H70 H 0.70346 0.64 0.14255 0.0
H71 H 0.56726 0.58167 0.03381 0.0
C72 C 0.52655 0.55222 0.12254 0.0
C73 C 0.51743 0.55018 0.08268 0.0
C74 C 0.59424 0.58364 0.14453 0.0
C75 C 0.65163 0.61499 0.12592 0.0
C76 C 0.64192 0.61612 0.08618 0.0
C77 C 0.57502 0.58239 0.06457 0.0
H78 H 0.34013 0.20653 0.98651 0.0
H79 H 0.11686 0.266 0.02645 0.0
H80 H 0.16294 0.38428 0.03241 0.0
H81 H 0.45087 0.29311 0.05239 0.0
H82 H 0.5306 0.31773 0.02621 0.0
H83 H 0.47068 0.24418 0.00866 0.0
H84 H 0.43346 0.28998 0.94393 0.0
H85 H 0.49632 0.36295 0.96126 0.0
H86 H 0.39388 0.37188 0.94361 0.0
H87 H 0.2474 0.48965 0.05284 0.0
H88 H 0.35717 0.56927 0.08226 0.0
H89 H 0.52823 0.43503 0.03751 0.0
C90 C 0.29904 0.24503 -0.00621 0.0
C91 C 0.22456 0.22765 0.00519 0.0
C92 C 0.17303 0.27849 0.0163 0.0
C93 C 0.1994 0.34591 0.02017 0.0
C94 C 0.277 0.36121 0.0125 0.0
C95 C 0.32554 0.31188 -0.00136 0.0
C96 C 0.41105 0.33764 0.00034 0.0
C97 C 0.46903 0.29572 0.0233 0.0
C98 C 0.43505 0.34083 0.95988 0.0
C99 C 0.40488 0.40687 0.02081 0.0
C100 C 0.3268 0.42107 0.02599 0.0
C101 C 0.30822 0.47979 0.04771 0.0
C102 C 0.37076 0.5245 0.06455 0.0
C103 C 0.4508 0.5095 0.0602 0.0
C104 C 0.46751 0.44998 0.0383 0.0
H105 H 0.31547 0.90195 0.00961 0.0
H106 H 0.07227 0.85517 0.95923 0.0
H107 H 0.11141 0.74127 0.93579 0.0
H108 H 0.40543 0.82401 0.93488 0.0
H109 H 0.48784 0.79357 0.96313 0.0
H110 H 0.44129 0.86813 0.98094 0.0
H111 H 0.41361 0.8192 0.04207 0.0
H112 H 0.45989 0.74281 0.02659 0.0
H113 H 0.35937 0.74033 0.03899 0.0
H114 H 0.18195 0.63432 0.91466 0.0
H115 H 0.27633 0.54864 0.89499 0.0
H116 H 0.47148 0.67009 0.95932 0.0
C117 C 0.26954 0.86788 -0.00587 0.0
C118 C 0.19048 0.88773 0.98637 0.0
C119 C 0.13318 0.84123 0.96553 0.0
C120 C 0.15484 0.77637 0.95233 0.0
C121 C 0.23376 0.75895 0.96044 0.0
C122 C 0.28996 0.80369 0.98091 0.0
C123 C 0.37201 0.77561 0.98359 0.0
C124 C 0.43003 0.81786 0.96454 0.0
C125 C 0.40304 0.76917 0.02529 0.0
C126 C 0.35407 0.708 0.96096 0.0
C127 C 0.27397 0.69873 0.9481 0.0
C128 C 0.24455 0.6411 0.92486 0.0
C129 C 0.29864 0.59283 0.91377 0.0
C130 C 0.38132 0.60267 0.92569 0.0
C131 C 0.40863 0.66039 0.95034 0.0
H132 H 0.74106 0.91324 0.97159 0.0
H133 H 0.98398 0.92356 0.02573 0.0
H134 H 0.95457 0.82127 0.0556 0.0
H135 H 0.65391 0.86902 0.04976 0.0
H136 H 0.57653 0.81533 0.02275 0.0
H137 H 0.61709 0.88415 0.00208 0.0
H138 H 0.65328 0.80664 0.94429 0.0
H139 H 0.61331 0.73488 0.96276 0.0
H140 H 0.71461 0.73662 0.95137 0.0
H141 H 0.89288 0.71728 0.08032 0.0
H142 H 0.80567 0.63185 0.10174 0.0
H143 H 0.60455 0.69742 0.03138 0.0
C144 C 0.78897 0.89405 0.98937 0.0
C145 C 0.86525 0.92607 -0.00401 0.0
C146 C 0.92528 0.89957 0.02006 0.0
C147 C 0.90904 0.84139 0.03693 0.0
C148 C 0.8327 0.81091 0.02933 0.0
C149 C 0.77383 0.83707 0.00623 0.0
C150 C 0.69503 0.79925 0.00424 0.0
C151 C 0.63195 0.84463 0.02065 0.0
C152 C 0.66744 0.76752 0.96323 0.0
C153 C 0.7179 0.74693 0.02979 0.0
C154 C 0.79753 0.75371 0.0439 0.0
C155 C 0.83061 0.71185 0.06934 0.0
C156 C 0.78047 0.66357 0.0814 0.0
C157 C 0.69794 0.658 0.06834 0.0
C158 C 0.66736 0.69931 0.04143 0.0
H159 H 0.93989 0.27992 0.94247 0.0
H160 H 0.86847 0.25371 0.05352 0.0
H161 H 0.78371 0.35116 0.0508 0.0
H162 H 0.91682 0.47298 0.94886 0.0
H163 H 0.87821 0.46386 0.8991 0.0
H164 H 0.95361 0.4095 0.91575 0.0
H165 H 0.86219 0.30764 0.88665 0.0
H166 H 0.78555 0.36097 0.87108 0.0
H167 H 0.76405 0.29908 0.90171 0.0
H168 H 0.68107 0.42799 0.02843 0.0
H169 H 0.57644 0.48049 0.99062 0.0
H170 H 0.71327 0.45936 0.89338 0.0
C171 C 0.91104 0.29816 0.96737 0.0
C172 C 0.91289 0.26125 -0.00113 0.0
C173 C 0.87037 0.28318 0.02997 0.0
C174 C 0.82143 0.33813 0.02838 0.0
C175 C 0.81606 0.37057 -0.00448 0.0
C176 C 0.8613 0.35234 0.96584 0.0
C177 C 0.83458 0.38654 0.93102 0.0
C178 C 0.89968 0.43619 0.92324 0.0
C179 C 0.81014 0.3355 0.89558 0.0
C180 C 0.7634 0.42259 0.94459 0.0
C181 C 0.75497 0.41419 0.98214 0.0
C182 C 0.68858 0.43635 -0.00063 0.0
C183 C 0.62888 0.46633 0.97754 0.0
C184 C 0.63435 0.47382 0.93863 0.0
C185 C 0.70475 0.45359 0.92265 0.0
H186 H 0.80035 0.68732 0.47647 0.0
H187 H 0.60214 0.74156 0.53964 0.0
H188 H 0.64782 0.85986 0.54636 0.0
H189 H 0.925 0.76401 0.53546 0.0
H190 H 0.99603 0.79635 0.50756 0.0
H191 H 0.93588 0.72383 0.48809 0.0
H192 H 0.87431 0.77486 0.42958 0.0
H193 H 0.94118 0.84637 0.44397 0.0
H194 H 0.83584 0.85736 0.43527 0.0
H195 H 0.73863 0.95998 0.56604 0.0
H196 H 0.85698 0.03233 0.59136 0.0
H197 H 0.99949 0.91481 0.51636 0.0
C198 C 0.76318 0.72508 0.48884 0.0
C199 C 0.6969 0.70595 0.50665 0.0
C200 C 0.65162 0.7556 0.52468 0.0
C201 C 0.67791 0.82301 0.52895 0.0
C202 C 0.74898 0.83968 0.5146 0.0
C203 C 0.78973 0.79209 0.49376 0.0
C204 C 0.87279 0.81782 0.48912 0.0
C205 C 0.93599 0.77277 0.506 0.0
C206 C 0.88155 0.82451 0.44699 0.0
C207 C 0.87496 0.88551 0.51259 0.0
C208 C 0.80249 0.89795 0.52648 0.0
C209 C 0.79448 0.95186 0.55412 0.0
C210 C 0.86216 0.99256 0.56854 0.0
C211 C 0.93717 0.9793 0.5554 0.0
C212 C 0.94249 0.92688 0.52597 0.0
H213 H 0.80936 0.37655 0.51306 0.0
H214 H 0.56922 0.32871 0.45882 0.0
H215 H 0.60938 0.21426 0.43747 0.0
H216 H 0.90174 0.29816 0.44066 0.0
H217 H 0.98342 0.26728 0.46897 0.0
H218 H 0.93722 0.34193 0.48687 0.0
H219 H 0.90651 0.29434 0.54761 0.0
H220 H 0.95322 0.21758 0.53322 0.0
H221 H 0.85196 0.21563 0.54457 0.0
H222 H 0.68185 0.10809 0.41699 0.0
H223 H 0.77911 0.02531 0.39656 0.0
H224 H 0.96918 0.14498 0.46576 0.0
C225 C 0.76428 0.34206 0.49723 0.0
C226 C 0.68588 0.36193 0.48769 0.0
C227 C 0.62966 0.31485 0.46649 0.0
C228 C 0.65186 0.24958 0.45449 0.0
C229 C 0.73014 0.23212 0.46429 0.0
C230 C 0.78517 0.2773 0.48529 0.0
C231 C 0.86729 0.24951 0.48911 0.0
C232 C 0.92585 0.29176 0.47035 0.0
C233 C 0.89649 0.24402 0.53113 0.0
C234 C 0.8508 0.18145 0.46674 0.0
C235 C 0.77128 0.17184 0.45277 0.0
C236 C 0.74381 0.11484 0.42837 0.0
C237 C 0.79939 0.06802 0.417 0.0
C238 C 0.88149 0.07848 0.42998 0.0
C239 C 0.90664 0.13478 0.45623 0.0
H240 H 0.23167 0.38408 0.47321 0.0
H241 H 0.47887 0.38563 0.52051 0.0
H242 H 0.45024 0.28131 0.54868 0.0
H243 H 0.15259 0.33264 0.55237 0.0
H244 H 0.07219 0.28157 0.52613 0.0
H245 H 0.11005 0.35279 0.50655 0.0
H246 H 0.13863 0.28203 0.44529 0.0
H247 H 0.10181 0.20685 0.46145 0.0
H248 H 0.20097 0.21133 0.4476 0.0
H249 H 0.38921 0.17433 0.57123 0.0
H250 H 0.30297 0.08633 0.59105 0.0
H251 H 0.09818 0.16132 0.52779 0.0
C252 C 0.28048 0.36272 0.48931 0.0
C253 C 0.35785 0.39261 0.49429 0.0
C254 C 0.4192 0.36341 0.51623 0.0
C255 C 0.40343 0.30399 0.53205 0.0
C256 C 0.32618 0.27509 0.52561 0.0
C257 C 0.26592 0.30438 0.50501 0.0
C258 C 0.187 0.26701 0.50337 0.0
C259 C 0.12691 0.31112 0.52322 0.0
C260 C 0.15521 0.24032 0.46198 0.0
C261 C 0.21137 0.21102 0.52596 0.0
C262 C 0.29181 0.21588 0.53859 0.0
C263 C 0.32633 0.1704 0.56136 0.0
C264 C 0.27685 0.12055 0.57243 0.0
C265 C 0.19366 0.11676 0.56087 0.0
C266 C 0.16153 0.16169 0.53648 0.0
H267 H 0.27715 0.70053 0.5101 0.0
H268 H 0.49899 0.76635 0.47318 0.0
H269 H 0.43991 0.87336 0.46031 0.0
H270 H 0.16577 0.74498 0.44155 0.0
H271 H 0.08084 0.77691 0.46265 0.0
H272 H 0.139 0.71629 0.48501 0.0
H273 H 0.17287 0.78747 0.5484 0.0
H274 H 0.11186 0.85312 0.53309 0.0
H275 H 0.21424 0.87117 0.5506 0.0
H276 H 0.34518 0.95803 0.43551 0.0
H277 H 0.22984 0.01587 0.40766 0.0
H278 H 0.07104 0.89565 0.46237 0.0
C279 C 0.31475 0.73932 0.50168 0.0
C280 C 0.39313 0.72614 0.49363 0.0
C281 C 0.43972 0.77652 0.48082 0.0
C282 C 0.40618 0.8372 0.47306 0.0
C283 C 0.32655 0.84697 0.47897 0.0
C284 C 0.28229 0.79991 0.49407 0.0
C285 C 0.19558 0.81701 0.49282 0.0
C286 C 0.14215 0.76052 0.46925 0.0
C287 C 0.17215 0.83301 0.53359 0.0
C288 C 0.19632 0.87887 0.47265 0.0
C289 C 0.27248 0.8961 0.46521 0.0
C290 C 0.28588 0.94619 0.44234 0.0
C291 C 0.22001 0.97853 0.42643 0.0
C292 C 0.14161 0.96084 0.43346 0.0
C293 C 0.13034 0.9116 0.45765 0.0
H294 H 0.15675 0.08859 0.15804 0.0
H295 H 0.92697 0.02079 0.09763 0.0
H296 H 0.88063 0.99613 0.15896 0.0
H297 H 0.17112 0.96459 0.22038 0.0
H298 H 0.21936 0.0196 0.26033 0.0
H299 H 0.23198 0.03515 0.21228 0.0
H300 H 0.18086 0.15446 0.22606 0.0
H301 H 0.1691 0.13965 0.27433 0.0
H302 H 0.08581 0.16551 0.24434 0.0
H303 H 0.8624 0.97646 0.22793 0.0
H304 H 0.87204 0.96724 0.29734 0.0
H305 H 0.1158 0.04593 0.31003 0.0
C306 C 0.0963 0.06899 0.15744 0.0
C307 C 0.04542 0.05673 0.12289 0.0
C308 C 0.96683 0.03115 0.12374 0.0
C309 C 0.94025 0.01666 0.15841 0.0
C310 C 0.99303 0.02812 0.19177 0.0
C311 C 0.06927 0.05409 0.1914 0.0
C312 C 0.11553 0.06101 0.2306 0.0
C313 C 0.18881 0.01748 0.23089 0.0
C314 C 0.13917 0.13452 0.24465 0.0
C315 C 0.05364 0.03464 0.2534 0.0
C316 C 0.98321 0.01598 0.23068 0.0
C317 C 0.91728 0.99099 0.24586 0.0
C318 C 0.92331 0.98594 0.28527 0.0
C319 C 0.99487 1.00549 0.30899 0.0
C320 C 0.06084 0.02948 0.29257 0.0
H321 H 0.94854 0.10866 0.84304 0.0
H322 H 0.17678 0.04702 0.89176 0.0
H323 H 0.22419 0.0368 0.82724 0.0
H324 H 0.93089 0.99605 0.76144 0.0
H325 H 0.88374 0.0518 0.73072 0.0
H326 H 0.87254 0.06253 0.78096 0.0
H327 H 0.92781 0.18472 0.78683 0.0
H328 H 0.93796 0.1748 0.73638 0.0
H329 H 0.02275 0.20192 0.7703 0.0
H330 H 0.2403 0.02429 0.75522 0.0
H331 H 0.22522 0.01417 0.68432 0.0
H332 H 0.98414 0.08148 0.68558 0.0
C333 C 1.00906 0.09391 0.84043 0.0
C334 C 0.05898 0.07832 0.87233 0.0
C335 C 0.1378 0.05962 0.86766 0.0
C336 C 0.16495 0.05346 0.83115 0.0
C337 C 0.11263 0.06689 0.80002 0.0
C338 C 0.0366 0.08746 0.8046 0.0
C339 C 0.98966 0.09546 0.76693 0.0
C340 C 0.91483 0.04865 0.75961 0.0
C341 C 0.96833 0.16857 0.765 0.0
C342 C 0.05018 0.07439 0.73998 0.0
C343 C 0.12119 0.05878 0.75937 0.0
C344 C 0.18511 0.03688 0.73991 0.0
C345 C 0.17603 0.03118 0.69974 0.0
C346 C 0.10325 0.04648 0.67964 0.0
C347 C 0.03999 0.06849 0.70019 0.0
H348 H 0.64852 0.5503 0.65615 0.0
H349 H 0.41333 0.49519 0.59765 0.0
H350 H 0.36714 0.47288 0.6595 0.0
H351 H 0.65455 0.42625 0.71983 0.0
H352 H 0.70774 0.4805 0.75876 0.0
H353 H 0.72064 0.49225 0.71013 0.0
H354 H 0.67998 0.61514 0.72245 0.0
H355 H 0.66811 0.60406 0.77122 0.0
H356 H 0.58678 0.63309 0.74131 0.0
H357 H 0.34832 0.45922 0.72964 0.0
H358 H 0.35741 0.45917 0.79996 0.0
H359 H 0.60714 0.52019 0.8089 0.0
C360 C 0.58708 0.5335 0.65594 0.0
C361 C 0.53451 0.52455 0.62188 0.0
C362 C 0.45461 0.50281 0.62339 0.0
C363 C 0.42809 0.48965 0.65833 0.0
C364 C 0.4824 0.49825 0.69122 0.0
C365 C 0.56017 0.51988 0.69007 0.0
C366 C 0.60745 0.52632 0.72893 0.0
C367 C 0.67666 0.47846 0.72942 0.0
C368 C 0.63728 0.59895 0.74172 0.0
C369 C 0.5442 0.50526 0.75259 0.0
C370 C 0.47232 0.48916 0.73057 0.0
C371 C 0.40452 0.47126 0.74696 0.0
C372 C 0.41022 0.47131 0.78685 0.0
C373 C 0.48328 0.48886 0.80974 0.0
C374 C 0.55108 0.50484 0.7921 0.0
H375 H 0.50387 0.4619 0.34081 0.0
H376 H 0.62867 0.6412 0.39911 0.0
H377 H 0.67297 0.66704 0.33774 0.0
H378 H 0.65317 0.42283 0.26966 0.0
H379 H 0.57513 0.39155 0.23284 0.0
H380 H 0.56447 0.38283 0.28214 0.0
H381 H 0.43083 0.44252 0.27617 0.0
H382 H 0.44172 0.45276 0.22726 0.0
H383 H 0.42875 0.52461 0.26099 0.0
H384 H 0.67868 0.68391 0.26885 0.0
H385 H 0.66301 0.68327 0.19906 0.0
H386 H 0.54748 0.48587 0.18655 0.0
C387 C 0.5427 0.50543 0.34074 0.0
C388 C 0.56316 0.54967 0.37433 0.0
C389 C 0.61335 0.60648 0.37352 0.0
C390 C 0.6384 0.62157 0.33885 0.0
C391 C 0.61438 0.57822 0.30577 0.0
C392 C 0.56959 0.52025 0.30667 0.0
C393 C 0.54785 0.48387 0.26702 0.0
C394 C 0.58756 0.41627 0.26266 0.0
C395 C 0.45692 0.47551 0.25732 0.0
C396 C 0.58363 0.5322 0.24344 0.0
C397 C 0.62183 0.58623 0.26624 0.0
C398 C 0.65158 0.64071 0.2507 0.0
C399 C 0.64257 0.63966 0.21086 0.0
C400 C 0.60496 0.58404 0.18684 0.0
C401 C 0.57618 0.52943 0.20371 0.0
loop_
_geom_bond_atom_site_label_1
_geom_bond_atom_site_label_2
_geom_bond_distance
_geom_bond_site_symmetry_2
_ccdc_geom_bond_type
O0 Mn1 2.163 1_654 S
O0 C14 1.244 1_554 S
Mn1 O0 2.163 1_456 S
Mn1 O4 2.160 1_545 S
Mn1 O5 2.221 1_556 S
Mn1 O7 2.163 1_556 S
Mn1 O9 2.160 . S
Mn1 O19 2.221 1_445 S
O2 Mn3 2.087 . S
O2 C14 1.256 . S
Mn3 O2 2.087 . S
Mn3 O10 2.089 . S
Mn3 O19 2.290 1_545 S
Mn3 O20 2.251 1_545 S
O4 Mn1 2.160 1_565 S
O4 C15 1.239 1_556 S
O5 Mn1 2.221 1_554 S
O5 Mn6 2.290 . S
O5 C16 1.278 . S
Mn6 O5 2.290 . S
Mn6 O8 2.089 1_545 S
Mn6 O11 2.251 . S
Mn6 O12 2.087 . S
O7 Mn1 2.163 1_554 S
O7 C17 1.244 . S
O8 Mn6 2.089 1_565 S
O8 C15 1.256 . S
O9 Mn1 2.160 . S
O9 C18 1.239 . S
O10 Mn3 2.089 . S
O10 C18 1.256 1_655 S
O11 Mn6 2.251 . S
O11 C16 1.241 . S
O12 Mn6 2.087 . S
O12 C17 1.256 . S
C13 O19 1.268 1_554 S
C13 O20 1.236 1_554 S
C14 O0 1.244 1_556 S
C14 O2 1.256 . S
C15 O4 1.239 1_554 S
C15 O8 1.256 . S
C16 O5 1.278 . S
C16 O11 1.241 . S
C17 O7 1.244 . S
C17 O12 1.256 . S
C18 O9 1.239 . S
C18 O10 1.256 1_455 S
O19 Mn1 2.221 1_665 S
O19 Mn3 2.290 1_565 S
O19 C13 1.268 1_556 S
O20 Mn3 2.251 1_565 S
O20 C13 1.236 1_556 S
O21 Mn22 2.163 . S
O21 C35 1.244 . S
Mn22 O21 2.163 . S
Mn22 O25 2.160 . S
Mn22 O26 2.221 . S
Mn22 O28 2.163 . S
Mn22 O30 2.160 . S
Mn22 O40 2.221 . S
O23 Mn24 2.087 . S
O23 C35 1.256 . S
Mn24 O23 2.087 . S
Mn24 O31 2.089 . S
Mn24 O40 2.290 . S
Mn24 O41 2.251 . S
O25 Mn22 2.160 . S
O25 C36 1.239 . S
O26 Mn22 2.221 . S
O26 Mn27 2.290 . S
O26 C37 1.278 . S
Mn27 O26 2.290 . S
Mn27 O29 2.089 . S
Mn27 O32 2.251 . S
Mn27 O33 2.087 . S
O28 Mn22 2.163 . S
O28 C38 1.244 . S
O29 Mn27 2.089 . S
O29 C36 1.256 . S
O30 Mn22 2.160 . S
O30 C39 1.239 . S
O31 Mn24 2.089 . S
O31 C39 1.256 . S
O32 Mn27 2.251 . S
O32 C37 1.241 . S
O33 Mn27 2.087 . S
O33 C38 1.256 . S
C34 O40 1.278 . S
C34 O41 1.241 . S
C35 O21 1.244 . S
C35 O23 1.256 . S
C36 O25 1.239 . S
C36 O29 1.256 . S
C37 O26 1.278 . S
C37 O32 1.241 . S
C38 O28 1.244 . S
C38 O33 1.256 . S
C39 O30 1.239 . S
C39 O31 1.256 . S
O40 Mn22 2.221 . S
O40 Mn24 2.290 . S
O40 C34 1.278 . S
O41 Mn24 2.251 . S
O41 C34 1.241 . S
H42 C45 0.928 1_655 S
H43 C48 0.928 . S
H44 C50 0.930 . S
C45 H42 0.928 1_455 S
C45 C46 1.413 1_455 S
C45 C47 1.358 1_545 S
C46 C45 1.413 1_655 S
C46 C50 1.429 1_655 S
C47 C45 1.358 1_565 S
C47 C48 1.377 . S
C48 H43 0.928 . S
C48 C47 1.377 . S
C48 C49 1.404 . S
C49 C48 1.404 . S
C49 C50 1.391 1_565 S
C50 H44 0.930 . S
C50 C46 1.429 1_455 S
C50 C49 1.391 1_545 S
H51 C54 0.931 . S
H52 C57 0.928 . S
H53 C59 0.930 . S
C54 H51 0.931 . S
C54 C55 1.413 . S
C54 C56 1.360 1_655 S
C55 C54 1.413 . S
C55 C59 1.429 . S
C56 C54 1.360 1_455 S
C56 C57 1.372 . S
C57 H52 0.928 . S
C57 C56 1.372 . S
C57 C58 1.404 . S
C58 C57 1.404 . S
C58 C59 1.391 1_455 S
C59 H53 0.930 . S
C59 C55 1.429 . S
C59 C58 1.391 1_655 S
H60 C63 0.931 . S
H61 C66 0.928 . S
H62 C68 0.930 . S
C63 H60 0.931 . S
C63 C64 1.413 . S
C63 C65 1.360 . S
C64 C63 1.413 . S
C64 C68 1.429 . S
C65 C63 1.360 . S
C65 C66 1.372 . S
C66 H61 0.928 . S
C66 C65 1.372 . S
C66 C67 1.404 . S
C67 C66 1.404 . S
C67 C68 1.391 . S
C68 H62 0.930 . S
C68 C64 1.429 . S
C68 C67 1.391 . S
H69 C72 0.931 . S
H70 C75 0.928 . S
H71 C77 0.930 . S
C72 H69 0.931 . S
C72 C73 1.413 . S
C72 C74 1.360 . S
C73 C72 1.413 . S
C73 C77 1.429 . S
C74 C72 1.360 . S
C74 C75 1.372 . S
C75 H70 0.928 . S
C75 C74 1.372 . S
C75 C76 1.404 . S
C76 C75 1.404 . S
C76 C77 1.391 . S
C77 H71 0.930 . S
C77 C73 1.429 . S
C77 C76 1.391 . S
H78 C90 0.930 . S
H79 C92 0.930 . S
H80 C93 0.930 . S
H81 C97 0.959 1_554 S
H82 C97 0.959 . S
H83 C97 0.961 . S
H84 C98 0.960 . S
H85 C98 0.961 . S
H86 C98 0.959 . S
H87 C101 0.929 . S
H88 C102 0.931 . S
H89 C104 0.930 . S
C90 H78 0.930 . S
C90 C91 1.399 1_556 S
C90 C95 1.399 1_556 S
C91 C90 1.399 1_554 S
C91 C92 1.376 . S
C92 H79 0.930 . S
C92 C91 1.376 . S
C92 C93 1.388 . S
C93 H80 0.930 . S
C93 C92 1.388 . S
C93 C94 1.390 . S
C94 C93 1.390 . S
C94 C95 1.394 . S
C94 C100 1.465 . S
C95 C90 1.399 1_554 S
C95 C94 1.394 . S
C95 C96 1.516 1_554 S
C96 C95 1.516 1_556 S
C96 C97 1.502 . S
C96 C98 1.561 . S
C96 C99 1.526 1_556 S
C97 H81 0.959 1_556 S
C97 H82 0.959 . S
C97 H83 0.961 . S
C97 C96 1.502 . S
C98 H84 0.960 . S
C98 H85 0.961 . S
C98 H86 0.959 . S
C98 C96 1.561 . S
C99 C96 1.526 1_554 S
C99 C100 1.396 . S
C99 C104 1.390 . S
C100 C94 1.465 . S
C100 C99 1.396 . S
C100 C101 1.399 . S
C101 H87 0.929 . S
C101 C100 1.399 . S
C101 C102 1.385 . S
C102 H88 0.931 . S
C102 C101 1.385 . S
C102 C103 1.389 . S
C103 C102 1.389 . S
C103 C104 1.387 . S
C104 H89 0.930 . S
C104 C99 1.390 . S
C104 C103 1.387 . S
H105 C117 0.930 1_554 S
H106 C119 0.930 . S
H107 C120 0.930 . S
H108 C124 0.959 . S
H109 C124 0.959 . S
H110 C124 0.961 . S
H111 C125 0.960 . S
H112 C125 0.961 . S
H113 C125 0.959 . S
H114 C128 0.929 . S
H115 C129 0.931 . S
H116 C131 0.930 . S
C117 H105 0.930 1_556 S
C117 C118 1.399 . S
C117 C122 1.399 . S
C118 C117 1.399 . S
C118 C119 1.381 . S
C119 H106 0.930 . S
C119 C118 1.381 . S
C119 C120 1.388 . S
C120 H107 0.930 . S
C120 C119 1.388 . S
C120 C121 1.390 . S
C121 C120 1.390 . S
C121 C122 1.394 . S
C121 C127 1.465 . S
C122 C117 1.399 . S
C122 C121 1.394 . S
C122 C123 1.516 . S
C123 C122 1.516 . S
C123 C124 1.502 . S
C123 C125 1.561 1_556 S
C123 C126 1.526 . S
C124 H108 0.959 . S
C124 H109 0.959 . S
C124 H110 0.961 . S
C124 C123 1.502 . S
C125 H111 0.960 . S
C125 H112 0.961 . S
C125 H113 0.959 . S
C125 C123 1.561 1_554 S
C126 C123 1.526 . S
C126 C127 1.396 . S
C126 C131 1.390 . S
C127 C121 1.465 . S
C127 C126 1.396 . S
C127 C128 1.399 . S
C128 H114 0.929 . S
C128 C127 1.399 . S
C128 C129 1.385 . S
C129 H115 0.931 . S
C129 C128 1.385 . S
C129 C130 1.389 . S
C130 C129 1.389 . S
C130 C131 1.387 . S
C131 H116 0.930 . S
C131 C126 1.390 . S
C131 C130 1.387 . S
H132 C144 0.930 1_556 S
H133 C146 0.930 . S
H134 C147 0.930 . S
H135 C151 0.959 . S
H136 C151 0.959 . S
H137 C151 0.961 . S
H138 C152 0.960 . S
H139 C152 0.961 . S
H140 C152 0.959 . S
H141 C155 0.929 . S
H142 C156 0.931 . S
H143 C158 0.930 . S
C144 H132 0.930 1_554 S
C144 C145 1.399 . S
C144 C149 1.399 . S
C145 C144 1.399 . S
C145 C146 1.376 . S
C146 H133 0.930 . S
C146 C145 1.376 . S
C146 C147 1.388 . S
C147 H134 0.930 . S
C147 C146 1.388 . S
C147 C148 1.390 . S
C148 C147 1.390 . S
C148 C149 1.394 . S
C148 C154 1.465 . S
C149 C144 1.399 . S
C149 C148 1.394 . S
C149 C150 1.516 . S
C150 C149 1.516 . S
C150 C151 1.502 . S
C150 C152 1.561 1_554 S
C150 C153 1.526 . S
C151 H135 0.959 . S
C151 H136 0.959 . S
C151 H137 0.961 . S
C151 C150 1.502 . S
C152 H138 0.960 . S
C152 H139 0.961 . S
C152 H140 0.959 . S
C152 C150 1.561 1_556 S
C153 C150 1.526 . S
C153 C154 1.396 . S
C153 C158 1.390 . S
C154 C148 1.465 . S
C154 C153 1.396 . S
C154 C155 1.399 . S
C155 H141 0.929 . S
C155 C154 1.399 . S
C155 C156 1.385 . S
C156 H142 0.931 . S
C156 C155 1.385 . S
C156 C157 1.389 . S
C157 C156 1.389 . S
C157 C158 1.387 . S
C158 H143 0.930 . S
C158 C153 1.390 . S
C158 C157 1.387 . S
H159 C171 0.930 . S
H160 C173 0.930 . S
H161 C174 0.930 . S
H162 C178 0.959 . S
H163 C178 0.959 . S
H164 C178 0.961 . S
H165 C179 0.960 . S
H166 C179 0.961 . S
H167 C179 0.959 . S
H168 C182 0.929 . S
H169 C183 0.929 1_554 S
H170 C185 0.930 . S
C171 H159 0.930 . S
C171 C172 1.399 . S
C171 C176 1.399 . S
C172 C171 1.399 . S
C172 C173 1.376 1_556 S
C173 H160 0.930 . S
C173 C172 1.376 1_554 S
C173 C174 1.388 . S
C174 H161 0.930 . S
C174 C173 1.388 . S
C174 C175 1.390 1_554 S
C175 C174 1.390 1_556 S
C175 C176 1.394 . S
C175 C181 1.465 . S
C176 C171 1.399 . S
C176 C175 1.394 . S
C176 C177 1.516 . S
C177 C176 1.516 . S
C177 C178 1.502 . S
C177 C179 1.561 . S
C177 C180 1.526 . S
C178 H162 0.959 . S
C178 H163 0.959 . S
C178 H164 0.961 . S
C178 C177 1.502 . S
C179 H165 0.960 . S
C179 H166 0.961 . S
C179 H167 0.959 . S
C179 C177 1.561 . S
C180 C177 1.526 . S
C180 C181 1.396 . S
C180 C185 1.390 . S
C181 C175 1.465 . S
C181 C180 1.396 . S
C181 C182 1.399 1_556 S
C182 H168 0.929 . S
C182 C181 1.399 1_554 S
C182 C183 1.385 1_554 S
C183 H169 0.929 1_556 S
C183 C182 1.385 1_556 S
C183 C184 1.389 . S
C184 C183 1.389 . S
C184 C185 1.387 . S
C185 H170 0.930 . S
C185 C180 1.390 . S
C185 C184 1.387 . S
H186 C198 0.930 . S
H187 C200 0.930 . S
H188 C201 0.930 . S
H189 C205 0.959 . S
H190 C205 0.959 . S
H191 C205 0.961 . S
H192 C206 0.960 . S
H193 C206 0.961 . S
H194 C206 0.959 . S
H195 C209 0.929 . S
H196 C210 0.931 1_545 S
H197 C212 0.930 . S
C198 H186 0.930 . S
C198 C199 1.399 . S
C198 C203 1.399 . S
C199 C198 1.399 . S
C199 C200 1.376 . S
C200 H187 0.930 . S
C200 C199 1.376 . S
C200 C201 1.388 . S
C201 H188 0.930 . S
C201 C200 1.388 . S
C201 C202 1.390 . S
C202 C201 1.390 . S
C202 C203 1.394 . S
C202 C208 1.465 . S
C203 C198 1.399 . S
C203 C202 1.394 . S
C203 C204 1.516 . S
C204 C203 1.516 . S
C204 C205 1.502 . S
C204 C206 1.561 . S
C204 C207 1.526 . S
C205 H189 0.959 . S
C205 H190 0.959 . S
C205 H191 0.961 . S
C205 C204 1.502 . S
C206 H192 0.960 . S
C206 H193 0.961 . S
C206 H194 0.959 . S
C206 C204 1.561 . S
C207 C204 1.526 . S
C207 C208 1.396 . S
C207 C212 1.390 . S
C208 C202 1.465 . S
C208 C207 1.396 . S
C208 C209 1.399 . S
C209 H195 0.929 . S
C209 C208 1.399 . S
C209 C210 1.385 . S
C210 H196 0.931 1_565 S
C210 C209 1.385 . S
C210 C211 1.389 . S
C211 C210 1.389 . S
C211 C212 1.387 . S
C212 H197 0.930 . S
C212 C207 1.390 . S
C212 C211 1.387 . S
H213 C225 0.930 . S
H214 C227 0.930 . S
H215 C228 0.930 . S
H216 C232 0.959 . S
H217 C232 0.959 . S
H218 C232 0.961 . S
H219 C233 0.960 . S
H220 C233 0.961 . S
H221 C233 0.959 . S
H222 C236 0.929 . S
H223 C237 0.931 . S
H224 C239 0.930 . S
C225 H213 0.930 . S
C225 C226 1.399 . S
C225 C230 1.399 . S
C226 C225 1.399 . S
C226 C227 1.376 . S
C227 H214 0.930 . S
C227 C226 1.376 . S
C227 C228 1.388 . S
C228 H215 0.930 . S
C228 C227 1.388 . S
C228 C229 1.390 . S
C229 C228 1.390 . S
C229 C230 1.394 . S
C229 C235 1.465 . S
C230 C225 1.399 . S
C230 C229 1.394 . S
C230 C231 1.516 . S
C231 C230 1.516 . S
C231 C232 1.502 . S
C231 C233 1.561 . S
C231 C234 1.526 . S
C232 H216 0.959 . S
C232 H217 0.959 . S
C232 H218 0.961 . S
C232 C231 1.502 . S
C233 H219 0.960 . S
C233 H220 0.961 . S
C233 H221 0.959 . S
C233 C231 1.561 . S
C234 C231 1.526 . S
C234 C235 1.396 . S
C234 C239 1.390 . S
C235 C229 1.465 . S
C235 C234 1.396 . S
C235 C236 1.399 . S
C236 H222 0.929 . S
C236 C235 1.399 . S
C236 C237 1.385 . S
C237 H223 0.931 . S
C237 C236 1.385 . S
C237 C238 1.389 . S
C238 C237 1.389 . S
C238 C239 1.387 . S
C239 H224 0.930 . S
C239 C234 1.390 . S
C239 C238 1.387 . S
H240 C252 0.930 . S
H241 C254 0.930 . S
H242 C255 0.930 . S
H243 C259 0.959 . S
H244 C259 0.959 . S
H245 C259 0.961 . S
H246 C260 0.960 . S
H247 C260 0.961 . S
H248 C260 0.959 . S
H249 C263 0.929 . S
H250 C264 0.931 . S
H251 C266 0.930 . S
C252 H240 0.930 . S
C252 C253 1.399 . S
C252 C257 1.399 . S
C253 C252 1.399 . S
C253 C254 1.376 . S
C254 H241 0.930 . S
C254 C253 1.376 . S
C254 C255 1.388 . S
C255 H242 0.930 . S
C255 C254 1.388 . S
C255 C256 1.390 . S
C256 C255 1.390 . S
C256 C257 1.394 . S
C256 C262 1.465 . S
C257 C252 1.399 . S
C257 C256 1.394 . S
C257 C258 1.516 . S
C258 C257 1.516 . S
C258 C259 1.502 . S
C258 C260 1.561 . S
C258 C261 1.526 . S
C259 H243 0.959 . S
C259 H244 0.959 . S
C259 H245 0.961 . S
C259 C258 1.502 . S
C260 H246 0.960 . S
C260 H247 0.961 . S
C260 H248 0.959 . S
C260 C258 1.561 . S
C261 C258 1.526 . S
C261 C262 1.396 . S
C261 C266 1.390 . S
C262 C256 1.465 . S
C262 C261 1.396 . S
C262 C263 1.399 . S
C263 H249 0.929 . S
C263 C262 1.399 . S
C263 C264 1.385 . S
C264 H250 0.931 . S
C264 C263 1.385 . S
C264 C265 1.389 . S
C265 C264 1.389 . S
C265 C266 1.387 . S
C266 H251 0.930 . S
C266 C261 1.390 . S
C266 C265 1.387 . S
H267 C279 0.930 . S
H268 C281 0.930 . S
H269 C282 0.930 . S
H270 C286 0.959 . S
H271 C286 0.959 . S
H272 C286 0.961 . S
H273 C287 0.960 . S
H274 C287 0.961 . S
H275 C287 0.959 . S
H276 C290 0.929 . S
H277 C291 0.931 . S
H278 C293 0.930 . S
C279 H267 0.930 . S
C279 C280 1.399 . S
C279 C284 1.399 . S
C280 C279 1.399 . S
C280 C281 1.376 . S
C281 H268 0.930 . S
C281 C280 1.376 . S
C281 C282 1.388 . S
C282 H269 0.930 . S
C282 C281 1.388 . S
C282 C283 1.390 . S
C283 C282 1.390 . S
C283 C284 1.394 . S
C283 C289 1.465 . S
C284 C279 1.399 . S
C284 C283 1.394 . S
C284 C285 1.516 . S
C285 C284 1.516 . S
C285 C286 1.502 . S
C285 C287 1.561 . S
C285 C288 1.526 . S
C286 H270 0.959 . S
C286 H271 0.959 . S
C286 H272 0.961 . S
C286 C285 1.502 . S
C287 H273 0.960 . S
C287 H274 0.961 . S
C287 H275 0.959 . S
C287 C285 1.561 . S
C288 C285 1.526 . S
C288 C289 1.396 . S
C288 C293 1.390 . S
C289 C283 1.465 . S
C289 C288 1.396 . S
C289 C290 1.399 . S
C290 H276 0.929 . S
C290 C289 1.399 . S
C290 C291 1.385 . S
C291 H277 0.931 . S
C291 C290 1.385 . S
C291 C292 1.389 . S
C292 C291 1.389 . S
C292 C293 1.387 . S
C293 H278 0.930 . S
C293 C288 1.390 . S
C293 C292 1.387 . S
H294 C306 0.930 . S
H295 C308 0.930 1_655 S
H296 C309 0.930 . S
H297 C313 0.959 . S
H298 C313 0.959 . S
H299 C313 0.961 . S
H300 C314 0.960 . S
H301 C314 0.961 . S
H302 C314 0.959 1_655 S
H303 C317 0.929 . S
H304 C318 0.931 1_655 S
H305 C320 0.930 . S
C306 H294 0.930 . S
C306 C307 1.399 . S
C306 C311 1.399 . S
C307 C306 1.399 . S
C307 C308 1.376 1_545 S
C308 H295 0.930 1_455 S
C308 C307 1.376 1_565 S
C308 C309 1.388 1_455 S
C309 H296 0.930 . S
C309 C308 1.388 1_655 S
C309 C310 1.390 1_655 S
C310 C309 1.390 1_455 S
C310 C311 1.394 1_565 S
C310 C316 1.465 . S
C311 C306 1.399 . S
C311 C310 1.394 1_545 S
C311 C312 1.516 . S
C312 C311 1.516 . S
C312 C313 1.502 . S
C312 C314 1.561 . S
C312 C315 1.526 . S
C313 H297 0.959 . S
C313 H298 0.959 . S
C313 H299 0.961 . S
C313 C312 1.502 . S
C314 H300 0.960 . S
C314 H301 0.961 . S
C314 H302 0.959 1_455 S
C314 C312 1.561 . S
C315 C312 1.526 . S
C315 C316 1.396 1_545 S
C315 C320 1.390 . S
C316 C310 1.465 . S
C316 C315 1.396 1_565 S
C316 C317 1.399 1_455 S
C317 H303 0.929 . S
C317 C316 1.399 1_655 S
C317 C318 1.385 1_655 S
C318 H304 0.931 1_455 S
C318 C317 1.385 1_455 S
C318 C319 1.389 . S
C319 C318 1.389 . S
C319 C320 1.387 1_565 S
C320 H305 0.930 . S
C320 C315 1.390 . S
C320 C319 1.387 1_545 S
H321 C333 0.930 . S
H322 C335 0.930 . S
H323 C336 0.930 . S
H324 C340 0.959 . S
H325 C340 0.959 . S
H326 C340 0.961 . S
H327 C341 0.960 . S
H328 C341 0.961 . S
H329 C341 0.959 . S
H330 C344 0.929 . S
H331 C345 0.931 1_565 S
H332 C347 0.930 . S
C333 H321 0.930 . S
C333 C334 1.399 . S
C333 C338 1.399 . S
C334 C333 1.399 . S
C334 C335 1.376 1_545 S
C335 H322 0.930 . S
C335 C334 1.376 1_565 S
C335 C336 1.388 . S
C336 H323 0.930 . S
C336 C335 1.388 . S
C336 C337 1.390 1_565 S
C337 C336 1.390 1_545 S
C337 C338 1.394 . S
C337 C343 1.465 . S
C338 C333 1.399 . S
C338 C337 1.394 . S
C338 C339 1.516 . S
C339 C338 1.516 . S
C339 C340 1.502 1_455 S
C339 C341 1.561 . S
C339 C342 1.526 . S
C340 H324 0.959 . S
C340 H325 0.959 . S
C340 H326 0.961 . S
C340 C339 1.502 1_655 S
C341 H327 0.960 . S
C341 H328 0.961 . S
C341 H329 0.959 . S
C341 C339 1.561 . S
C342 C339 1.526 . S
C342 C343 1.396 . S
C342 C347 1.390 1_455 S
C343 C337 1.465 . S
C343 C342 1.396 . S
C343 C344 1.399 1_545 S
C344 H330 0.929 . S
C344 C343 1.399 1_565 S
C344 C345 1.385 1_565 S
C345 H331 0.931 1_545 S
C345 C344 1.385 1_545 S
C345 C346 1.389 . S
C346 C345 1.389 . S
C346 C347 1.387 1_455 S
C347 H332 0.930 . S
C347 C342 1.390 1_655 S
C347 C346 1.387 1_655 S
H348 C360 0.930 . S
H349 C362 0.930 . S
H350 C363 0.930 . S
H351 C367 0.959 . S
H352 C367 0.959 . S
H353 C367 0.961 . S
H354 C368 0.960 . S
H355 C368 0.961 . S
H356 C368 0.959 . S
H357 C371 0.929 . S
H358 C372 0.931 . S
H359 C374 0.930 . S
C360 H348 0.930 . S
C360 C361 1.399 . S
C360 C365 1.399 . S
C361 C360 1.399 . S
C361 C362 1.376 . S
C362 H349 0.930 . S
C362 C361 1.376 . S
C362 C363 1.388 . S
C363 H350 0.930 . S
C363 C362 1.388 . S
C363 C364 1.390 . S
C364 C363 1.390 . S
C364 C365 1.394 . S
C364 C370 1.465 . S
C365 C360 1.399 . S
C365 C364 1.394 . S
C365 C366 1.516 . S
C366 C365 1.516 . S
C366 C367 1.502 . S
C366 C368 1.561 . S
C366 C369 1.526 . S
C367 H351 0.959 . S
C367 H352 0.959 . S
C367 H353 0.961 . S
C367 C366 1.502 . S
C368 H354 0.960 . S
C368 H355 0.961 . S
C368 H356 0.959 . S
C368 C366 1.561 . S
C369 C366 1.526 . S
C369 C370 1.396 . S
C369 C374 1.390 . S
C370 C364 1.465 . S
C370 C369 1.396 . S
C370 C371 1.399 . S
C371 H357 0.929 . S
C371 C370 1.399 . S
C371 C372 1.385 . S
C372 H358 0.931 . S
C372 C371 1.385 . S
C372 C373 1.389 . S
C373 C372 1.389 . S
C373 C374 1.387 . S
C374 H359 0.930 . S
C374 C369 1.390 . S
C374 C373 1.387 . S
H375 C387 0.930 . S
H376 C389 0.930 . S
H377 C390 0.930 . S
H378 C394 0.959 . S
H379 C394 0.959 . S
H380 C394 0.961 . S
H381 C395 0.960 . S
H382 C395 0.961 . S
H383 C395 0.959 . S
H384 C398 0.929 . S
H385 C399 0.931 . S
H386 C401 0.930 . S
C387 H375 0.930 . S
C387 C388 1.399 . S
C387 C392 1.399 . S
C388 C387 1.399 . S
C388 C389 1.376 . S
C389 H376 0.930 . S
C389 C388 1.376 . S
C389 C390 1.388 . S
C390 H377 0.930 . S
C390 C389 1.388 . S
C390 C391 1.390 . S
C391 C390 1.390 . S
C391 C392 1.394 . S
C391 C397 1.465 . S
C392 C387 1.399 . S
C392 C391 1.394 . S
C392 C393 1.516 . S
C393 C392 1.516 . S
C393 C394 1.502 . S
C393 C395 1.561 . S
C393 C396 1.526 . S
C394 H378 0.959 . S
C394 H379 0.959 . S
C394 H380 0.961 . S
C394 C393 1.502 . S
C395 H381 0.960 . S
C395 H382 0.961 . S
C395 H383 0.959 . S
C395 C393 1.561 . S
C396 C393 1.526 . S
C396 C397 1.396 . S
C396 C401 1.390 . S
C397 C391 1.465 . S
C397 C396 1.396 . S
C397 C398 1.399 . S
C398 H384 0.929 . S
C398 C397 1.399 . S
C398 C399 1.385 . S
C399 H385 0.931 . S
C399 C398 1.385 . S
C399 C400 1.389 . S
C400 C399 1.389 . S
C400 C401 1.387 . S
C401 H386 0.930 . S
C401 C396 1.390 . S
C401 C400 1.387 . S
C103 C73 1.358 . S
C91 C16 1.199 . S
C118 C15 1.445 1_556 S
C130 C64 1.431 . S
C145 C13 1.333 . S
C157 C76 1.394 . S
C172 C14 1.285 . S
C184 C67 1.370 . S
C199 C37 1.190 . S
C211 C55 1.356 1_565 S
C226 C36 1.444 . S
C238 C46 1.411 . S
C265 C58 1.387 . S
C253 C34 1.325 . S
C292 C49 1.330 . S
C280 C35 1.286 . S
C307 C17 1.532 . S
C319 C47 1.545 . S
C334 C18 1.394 . S
C346 C56 1.410 . S
C373 C65 1.545 . S
C361 C38 1.532 . S
C388 C39 1.342 . S
C400 C74 1.429 . S
