# Generated by pormake.
# Topology tsx, (6,3)-cn, num edge types: 1
# Building blocks:
#     Node 0, Type 0, BuildingBlock: LEVNOQ01_clean_sbu_1, # of connection points: 6
#     Node 1, Type 0, BuildingBlock: LEVNOQ01_clean_sbu_1, # of connection points: 6
#     Node 2, Type 1, BuildingBlock: ESEHIV_clean_linker_0, # of connection points: 3
#     Node 3, Type 1, BuildingBlock: ESEHIV_clean_linker_0, # of connection points: 3
#     Node 4, Type 1, BuildingBlock: ESEHIV_clean_linker_0, # of connection points: 3
#     Node 5, Type 1, BuildingBlock: ESEHIV_clean_linker_0, # of connection points: 3
#     Edge 6, Type (0, 1), BuildingBlock: XIVTED_clean_linker_0, # of connection points: 2
#     Edge 7, Type (0, 1), BuildingBlock: XIVTED_clean_linker_0, # of connection points: 2
#     Edge 8, Type (0, 1), BuildingBlock: XIVTED_clean_linker_0, # of connection points: 2
#     Edge 9, Type (0, 1), BuildingBlock: XIVTED_clean_linker_0, # of connection points: 2
#     Edge 10, Type (0, 1), BuildingBlock: XIVTED_clean_linker_0, # of connection points: 2
#     Edge 11, Type (0, 1), BuildingBlock: XIVTED_clean_linker_0, # of connection points: 2
#     Edge 12, Type (0, 1), BuildingBlock: XIVTED_clean_linker_0, # of connection points: 2
#     Edge 13, Type (0, 1), BuildingBlock: XIVTED_clean_linker_0, # of connection points: 2
#     Edge 14, Type (0, 1), BuildingBlock: XIVTED_clean_linker_0, # of connection points: 2
#     Edge 15, Type (0, 1), BuildingBlock: XIVTED_clean_linker_0, # of connection points: 2
#     Edge 16, Type (0, 1), BuildingBlock: XIVTED_clean_linker_0, # of connection points: 2
#     Edge 17, Type (0, 1), BuildingBlock: XIVTED_clean_linker_0, # of connection points: 2
# Relax obj value: 0.131
# Max RMSD: 0.158
# Mean RMSD: 0.120
data_MOF--net-tsx--node1-LEVNOQ01_clean_sbu_1--node2-ESEHIV_clean_linker_0--edge1-XIVTED_clean_linker_0
_symmetry_space_group_name_H-M    P1
_symmetry_Int_Tables_number       1
_symmetry_cell_setting            triclinic
loop_
_symmetry_equiv_pos_as_xyz
'x, y, z'
_cell_length_a     17.314131
_cell_length_b     21.114548
_cell_length_c     35.303549
_cell_angle_alpha  97.61981
_cell_angle_beta   90.924903
_cell_angle_gamma 91.19054
loop_
_atom_site_label
_atom_site_type_symbol
_atom_site_fract_x
_atom_site_fract_y
_atom_site_fract_z
_atom_type_partial_charge
O0 O 0.17147 0.02266 0.0815 0.0
Mg1 Mg 0.22272 0.03742 0.0295 0.0
O2 O 0.05187 0.01073 0.05755 0.0
Mg3 Mg 0.05875 0.01427 -0.0077 0.0
O4 O 0.15634 0.09096 -0.00138 0.0
O5 O 0.274 0.12222 0.02174 0.0
O6 O 0.0662 0.01591 0.92722 0.0
O7 O 0.98435 0.10876 -0.00059 0.0
Mg8 Mg 0.91186 0.01167 0.96868 0.0
O9 O 0.96062 0.93345 0.98681 0.0
O10 O 0.94706 0.04507 0.91754 0.0
O11 O 0.86775 0.07812 0.012 0.0
O12 O 0.84504 0.93244 0.95638 0.0
C13 C 0.21112 0.91246 0.98424 0.0
C14 C 0.09981 0.01249 0.0855 0.0
C15 C 0.21249 0.13308 0.00272 0.0
C16 C 0.01487 0.03551 0.90569 0.0
C17 C 0.91634 0.12292 0.01057 0.0
C18 C 0.8963 0.90402 0.97451 0.0
O19 O 0.25985 0.95618 -0.00375 0.0
O20 O 0.13873 0.92361 0.9841 0.0
O21 O 0.67378 0.56454 0.58674 0.0
Mg22 Mg 0.729 0.55665 0.53359 0.0
O23 O 0.55896 0.53264 0.56125 0.0
Mg24 Mg 0.55998 0.53139 0.49529 0.0
O25 O 0.66343 0.60029 0.49712 0.0
O26 O 0.78244 0.63438 0.51511 0.0
O27 O 0.5595 0.52896 0.42996 0.0
O28 O 0.49478 0.63261 0.50195 0.0
Mg29 Mg 0.41965 0.54004 0.48149 0.0
O30 O 0.45673 0.45356 0.49304 0.0
O31 O 0.44578 0.57271 0.42857 0.0
O32 O 0.38662 0.60819 0.5273 0.0
O33 O 0.33831 0.47171 0.46988 0.0
C34 C 0.70571 0.42278 0.4932 0.0
C35 C 0.60378 0.5477 0.59026 0.0
C36 C 0.71902 0.64205 0.49675 0.0
C37 C 0.50749 0.55525 0.41201 0.0
C38 C 0.43188 0.65074 0.51801 0.0
C39 C 0.38706 0.43359 0.48225 0.0
O40 O 0.75422 0.46435 0.5088 0.0
O41 O 0.63521 0.43724 0.48757 0.0
H42 H 0.89127 0.0119 0.36249 0.0
H43 H 0.09795 0.90243 0.3543 0.0
H44 H 0.0156 0.98293 0.46386 0.0
C45 C 0.93828 -0.0104 0.37597 0.0
C46 C 0.9482 0.00203 0.4156 0.0
C47 C 0.99294 0.95489 0.35343 0.0
C48 C 0.05374 0.92658 0.37162 0.0
C49 C 0.06105 0.93306 0.41184 0.0
C50 C 0.00883 0.97299 0.43337 0.0
H51 H 0.92609 -0.00884 0.61831 0.0
H52 H 0.12457 0.11852 0.6266 0.0
H53 H 0.01835 0.05403 0.5171 0.0
C54 C 0.96793 0.01932 0.60475 0.0
C55 C 0.96502 0.01902 0.56503 0.0
C56 C 0.02567 0.05505 0.6269 0.0
C57 C 0.08047 0.09051 0.6093 0.0
C58 C 0.07831 0.09027 0.56963 0.0
C59 C 0.02024 0.05451 0.54769 0.0
H60 H 0.41198 0.51986 0.86367 0.0
H61 H 0.61091 0.40256 0.8557 0.0
H62 H 0.51576 0.46979 0.96562 0.0
C63 C 0.45346 0.49197 0.87738 0.0
C64 C 0.45621 0.49625 0.91711 0.0
C65 C 0.50977 0.45901 0.85542 0.0
C66 C 0.56598 0.42548 0.87316 0.0
C67 C 0.56802 0.42654 0.91329 0.0
C68 C 0.51332 0.4638 0.93493 0.0
H69 H 0.38874 0.50629 0.12093 0.0
H70 H 0.59104 0.62765 0.13424 0.0
H71 H 0.50211 0.55631 0.02158 0.0
C72 C 0.43331 0.53306 0.10823 0.0
C73 C 0.43857 0.52818 0.06841 0.0
C74 C 0.48798 0.56964 0.13173 0.0
C75 C 0.54739 0.60216 0.11545 0.0
C76 C 0.55328 0.5988 0.07558 0.0
C77 C 0.49848 0.56098 0.05227 0.0
H78 H 0.29879 0.17613 0.94832 0.0
H79 H 0.27987 0.5217 0.06571 0.0
H80 H 0.12105 0.23181 0.02909 0.0
H81 H 0.48199 0.42804 0.01856 0.0
H82 H 0.19884 0.43394 0.0319 0.0
H83 H 0.33716 0.2883 0.94953 0.0
C84 C 0.26529 0.21247 0.9648 0.0
C85 C 0.20743 0.19522 -0.01106 0.0
C86 C 0.26073 0.43404 0.0279 0.0
C87 C 0.25343 0.3227 -0.00784 0.0
C88 C 0.30678 0.48368 0.04724 0.0
C89 C 0.38743 0.4824 0.04405 0.0
C90 C 0.296 0.38321 0.00538 0.0
C91 C 0.41993 0.43205 0.02031 0.0
C92 C 0.2878 0.27637 0.96591 0.0
C93 C 0.16621 0.24367 0.01017 0.0
N94 N 0.37423 0.38434 0.00206 0.0
N95 N 0.19162 0.30548 0.01228 0.0
H96 H 0.35993 0.88053 0.97167 0.0
H97 H 0.29874 0.50847 0.91922 0.0
H98 H 0.13092 0.79617 0.97443 0.0
H99 H 0.51345 0.60112 0.96076 0.0
H100 H 0.23145 0.60882 0.93898 0.0
H101 H 0.41355 0.77512 0.96357 0.0
C102 C 0.3206 0.83968 0.97041 0.0
C103 C 0.24067 0.84739 0.97406 0.0
C104 C 0.29285 0.60643 0.94478 0.0
C105 C 0.30255 0.72538 0.96496 0.0
C106 C 0.33098 0.54931 0.93382 0.0
C107 C 0.41139 0.54678 0.93888 0.0
C108 C 0.33621 0.6611 0.95996 0.0
C109 C 0.45122 0.6009 0.95709 0.0
C110 C 0.35154 0.77927 0.96611 0.0
C111 C 0.19288 0.79232 0.97166 0.0
N112 N 0.4134 0.65605 0.9665 0.0
N113 N 0.22465 0.73325 0.96721 0.0
H114 H 0.92607 0.86126 0.04251 0.0
H115 H 0.62772 0.56687 0.0068 0.0
H116 H 0.81499 0.80696 0.93242 0.0
H117 H 0.6266 0.71165 0.1058 0.0
H118 H 0.7309 0.62747 0.9803 0.0
H119 H 0.85563 0.77356 0.06699 0.0
C120 C 0.88928 0.82929 0.02314 0.0
C121 C 0.87523 0.84146 0.98563 0.0
C122 C 0.7085 0.64482 0.00814 0.0
C123 C 0.79539 0.74205 0.01321 0.0
C124 C 0.64882 0.61086 0.02318 0.0
C125 C 0.61759 0.63364 0.05888 0.0
C126 C 0.73853 0.70094 0.02934 0.0
C127 C 0.64938 0.69066 0.07879 0.0
C128 C 0.84874 0.77985 0.03717 0.0
C129 C 0.82644 0.79923 0.96169 0.0
N130 N 0.70811 0.72208 0.06382 0.0
N131 N 0.78738 0.75158 0.97601 0.0
H132 H 0.96286 0.2048 0.96173 0.0
H133 H 0.63083 0.45264 0.98739 0.0
H134 H 0.79769 0.18346 0.04965 0.0
H135 H 0.64682 0.31918 0.88359 0.0
H136 H 0.72636 0.39135 0.01753 0.0
H137 H 0.88514 0.29021 0.94115 0.0
C138 C 0.9122 0.21998 0.97783 0.0
C139 C 0.88625 0.18686 0.00733 0.0
C140 C 0.70911 0.37659 0.98799 0.0
C141 C 0.79831 0.28432 0.98408 0.0
C142 C 0.65362 0.41096 0.97061 0.0
C143 C 0.6292 0.39172 0.93236 0.0
C144 C 0.74254 0.324 0.96674 0.0
C145 C 0.66413 0.33771 0.91255 0.0
C146 C 0.8677 0.26814 0.96578 0.0
C147 C 0.81937 0.20782 0.02673 0.0
N148 N 0.71921 0.30616 0.92988 0.0
N149 N 0.77702 0.25502 0.01452 0.0
H150 H 0.62054 0.73636 0.5206 0.0
H151 H 0.80687 0.02432 0.56452 0.0
H152 H 0.80278 0.68651 0.44153 0.0
H153 H 0.99634 0.91811 0.5128 0.0
H154 H 0.71589 0.94613 0.52931 0.0
H155 H 0.66121 0.84809 0.52528 0.0
C156 C 0.66604 0.74964 0.50224 0.0
C157 C 0.70978 0.70251 0.48138 0.0
C158 C 0.77721 0.94012 0.52529 0.0
C159 C 0.75848 0.82976 0.48717 0.0
C160 C 0.82894 0.98478 0.54533 0.0
C161 C 0.90876 0.97713 0.54139 0.0
C162 C 0.80619 0.88712 0.5018 0.0
C163 C 0.93507 0.92587 0.51616 0.0
C164 C 0.6902 0.81375 0.50525 0.0
C165 C 0.76852 0.72176 0.45841 0.0
N166 N 0.88399 0.88264 0.49756 0.0
N167 N 0.79287 0.78378 0.46284 0.0
H168 H 0.62337 0.31043 0.46626 0.0
H169 H 0.01033 0.10696 0.45722 0.0
H170 H 0.8536 0.38414 0.49746 0.0
H171 H 0.79087 0.02174 0.41734 0.0
H172 H 0.94646 0.20628 0.47912 0.0
H173 H 0.67673 0.20232 0.4527 0.0
C174 C 0.68477 0.30411 0.47014 0.0
C175 C 0.73385 0.35675 0.48298 0.0
C176 C 0.91152 0.16564 0.46642 0.0
C177 C 0.79471 0.23383 0.46812 0.0
C178 C 0.94803 0.10856 0.45454 0.0
C179 C 0.90571 0.05582 0.43631 0.0
C180 C 0.83177 0.17068 0.45971 0.0
C181 C 0.82537 0.06141 0.43168 0.0
C182 C 0.71507 0.24247 0.46261 0.0
C183 C 0.81295 0.34554 0.48773 0.0
N184 N 0.79087 0.11812 0.44306 0.0
N185 N 0.84046 0.28579 0.48036 0.0
H186 H 0.27363 0.36539 0.44072 0.0
H187 H 0.23555 0.10196 0.58203 0.0
H188 H 0.43799 0.35408 0.53265 0.0
H189 H 0.0489 0.16892 0.51685 0.0
H190 H 0.32531 0.17347 0.55366 0.0
H191 H 0.20903 0.26865 0.45572 0.0
C192 C 0.29679 0.34187 0.46377 0.0
C193 C 0.35995 0.3684 0.48614 0.0
C194 C 0.26484 0.17145 0.54514 0.0
C195 C 0.28559 0.25833 0.5038 0.0
C196 C 0.21369 0.13113 0.56139 0.0
C197 C 0.13479 0.12926 0.55129 0.0
C198 C 0.2366 0.20951 0.51855 0.0
C199 C 0.10942 0.1675 0.52436 0.0
C200 C 0.25981 0.28676 0.47234 0.0
C201 C 0.38877 0.33533 0.51506 0.0
N202 N 0.16004 0.20614 0.50899 0.0
N203 N 0.35028 0.28235 0.52365 0.0
H204 H 0.32248 0.7196 0.55997 0.0
H205 H 0.13347 0.82132 0.38442 0.0
H206 H 0.45962 0.7186 0.45898 0.0
H207 H 0.13489 0.96695 0.48318 0.0
H208 H 0.23792 0.76918 0.41386 0.0
H209 H 0.2397 0.80043 0.53688 0.0
C210 C 0.33675 0.73796 0.53365 0.0
C211 C 0.39812 0.71237 0.51141 0.0
C212 C 0.21537 0.81288 0.4288 0.0
C213 C 0.30203 0.80207 0.48431 0.0
C214 C 0.1558 0.84336 0.41192 0.0
C215 C 0.12467 0.90002 0.43064 0.0
C216 C 0.24285 0.83728 0.4654 0.0
C217 C 0.15512 0.92327 0.46739 0.0
C218 C 0.28936 0.78372 0.52048 0.0
C219 C 0.41336 0.7372 0.47721 0.0
N220 N 0.21173 0.89131 0.48378 0.0
N221 N 0.3642 0.77918 0.46413 0.0
H222 H 0.17548 0.94273 0.13253 0.0
H223 H 0.94675 0.05112 0.31319 0.0
H224 H 0.96461 0.04478 0.12182 0.0
H225 H 0.03887 0.86068 0.29686 0.0
H226 H 0.95756 0.05561 0.2452 0.0
H227 H 0.13493 0.91832 0.19511 0.0
C228 C 0.12059 0.96001 0.14348 0.0
C229 C 0.07359 -0.00348 0.12247 0.0
C230 C 0.97402 0.01248 0.25651 0.0
C231 C 0.02749 0.96915 0.19374 0.0
C232 C 0.96746 0.00942 0.29544 0.0
C233 C 0.99191 0.9552 0.31125 0.0
C234 C 0.00753 0.96202 0.23329 0.0
C235 C 0.02086 0.90402 0.28635 0.0
C236 C 0.09723 0.94545 0.17886 0.0
C237 C 0.00248 0.01685 0.13744 0.0
N238 N 0.0293 0.90918 0.24868 0.0
N239 N 0.98209 0.00395 0.17271 0.0
H240 H 0.10661 0.96318 0.85559 0.0
H241 H 0.01984 0.1576 0.68188 0.0
H242 H 0.95904 0.12648 0.86606 0.0
H243 H 0.04285 0.95292 0.66564 0.0
H244 H 0.02894 0.15715 0.75133 0.0
H245 H 0.11694 0.96996 0.78678 0.0
C246 C 0.0778 0.00113 0.84348 0.0
C247 C 0.03155 0.04412 0.86611 0.0
C248 C 0.03222 0.11246 0.73248 0.0
C249 C 0.04346 0.05231 0.78846 0.0
C250 C 0.02697 0.1127 0.69311 0.0
C251 C 0.02988 0.05513 0.66849 0.0
C252 C 0.04207 0.05442 0.74701 0.0
C253 C 0.03948 -0.00194 0.68403 0.0
C254 C 0.08316 0.00462 0.8044 0.0
C255 C 0.9947 0.09217 0.84929 0.0
N256 N 0.0456 -0.00092 0.7225 0.0
N257 N 0.00148 0.09506 0.81137 0.0
H258 H 0.64359 0.62133 0.6568 0.0
H259 H 0.50756 0.37115 0.7905 0.0
H260 H 0.50636 0.45519 0.61074 0.0
H261 H 0.52989 0.57293 0.83013 0.0
H262 H 0.52017 0.39477 0.72419 0.0
H263 H 0.61428 0.59946 0.72134 0.0
C264 C 0.60641 0.58072 0.6604 0.0
C265 C 0.57697 0.54013 0.62866 0.0
C266 C 0.52162 0.43367 0.74752 0.0
C267 C 0.54515 0.51381 0.70206 0.0
C268 C 0.51507 0.4202 0.7851 0.0
C269 C 0.51752 0.47029 0.81539 0.0
C270 C 0.53242 0.49736 0.74077 0.0
C271 C 0.52726 0.53315 0.80733 0.0
C272 C 0.5898 0.56822 0.69711 0.0
C273 C 0.52938 0.48791 0.63467 0.0
N274 N 0.53497 0.54489 0.7708 0.0
N275 N 0.51579 0.47553 0.67084 0.0
H276 H 0.58546 0.47872 0.35774 0.0
H277 H 0.47898 0.67248 0.18662 0.0
H278 H 0.44541 0.64651 0.37428 0.0
H279 H 0.50044 0.46767 0.17061 0.0
H280 H 0.4905 0.67241 0.2561 0.0
H281 H 0.58211 0.48362 0.28861 0.0
C282 C 0.55519 0.5171 0.34683 0.0
C283 C 0.5152 0.56203 0.37142 0.0
C284 C 0.4923 0.62756 0.2373 0.0
C285 C 0.51135 0.56792 0.29318 0.0
C286 C 0.48552 0.62759 0.19793 0.0
C287 C 0.48796 0.56991 0.17335 0.0
C288 C 0.50349 0.56963 0.25181 0.0
C289 C 0.49729 0.51289 0.18895 0.0
C290 C 0.5527 0.51952 0.30755 0.0
C291 C 0.47635 0.61067 0.35604 0.0
N292 N 0.50539 0.51416 0.22734 0.0
N293 N 0.47542 0.61242 0.31778 0.0
loop_
_geom_bond_atom_site_label_1
_geom_bond_atom_site_label_2
_geom_bond_distance
_geom_bond_site_symmetry_2
_ccdc_geom_bond_type
O0 Mg1 1.990 . S
O0 C14 1.253 . S
Mg1 O0 1.990 . S
Mg1 O4 2.180 . S
Mg1 O5 2.117 . S
Mg1 O19 2.030 1_545 S
O2 Mg3 2.072 1_554 S
O2 C14 1.260 . S
Mg3 O2 2.072 1_556 S
Mg3 O4 2.099 1_556 S
Mg3 O6 2.079 . S
Mg3 O7 2.072 1_456 S
Mg3 O9 2.099 1_445 S
Mg3 O20 2.079 1_545 S
O4 Mg1 2.180 . S
O4 Mg3 2.099 1_554 S
O4 C15 1.279 . S
O5 Mg1 2.117 . S
O5 C15 1.250 . S
O6 Mg3 2.079 . S
O6 C16 1.264 . S
O7 Mg3 2.072 1_654 S
O7 C17 1.260 1_554 S
Mg8 O9 2.180 1_545 S
Mg8 O10 2.030 . S
Mg8 O11 1.990 . S
Mg8 O12 2.117 1_545 S
O9 Mg3 2.099 1_665 S
O9 Mg8 2.180 1_565 S
O9 C18 1.283 . S
O10 Mg8 2.030 . S
O10 C16 1.248 1_655 S
O11 Mg8 1.990 . S
O11 C17 1.253 . S
O12 Mg8 2.117 1_565 S
O12 C18 1.253 . S
C13 O19 1.248 . S
C13 O20 1.264 1_554 S
C14 O0 1.253 . S
C14 O2 1.260 . S
C15 O4 1.279 . S
C15 O5 1.250 . S
C16 O6 1.264 . S
C16 O10 1.248 1_455 S
C17 O7 1.260 1_556 S
C17 O11 1.253 . S
C18 O9 1.283 . S
C18 O12 1.253 . S
O19 Mg1 2.030 1_565 S
O19 C13 1.248 . S
O20 Mg3 2.079 1_565 S
O20 C13 1.264 1_556 S
O21 Mg22 1.990 . S
O21 C35 1.253 . S
Mg22 O21 1.990 . S
Mg22 O25 2.180 . S
Mg22 O26 2.117 . S
Mg22 O40 2.030 . S
O23 Mg24 2.072 . S
O23 C35 1.260 . S
Mg24 O23 2.072 . S
Mg24 O25 2.099 . S
Mg24 O27 2.079 . S
Mg24 O28 2.072 . S
Mg24 O30 2.099 . S
Mg24 O41 2.079 . S
O25 Mg22 2.180 . S
O25 Mg24 2.099 . S
O25 C36 1.279 . S
O26 Mg22 2.117 . S
O26 C36 1.250 . S
O27 Mg24 2.079 . S
O27 C37 1.264 . S
O28 Mg24 2.072 . S
O28 C38 1.260 . S
Mg29 O30 2.180 . S
Mg29 O31 2.030 . S
Mg29 O32 1.990 . S
Mg29 O33 2.117 . S
O30 Mg24 2.099 . S
O30 Mg29 2.180 . S
O30 C39 1.279 . S
O31 Mg29 2.030 . S
O31 C37 1.248 . S
O32 Mg29 1.990 . S
O32 C38 1.253 . S
O33 Mg29 2.117 . S
O33 C39 1.250 . S
C34 O40 1.248 . S
C34 O41 1.264 . S
C35 O21 1.253 . S
C35 O23 1.260 . S
C36 O25 1.279 . S
C36 O26 1.250 . S
C37 O27 1.264 . S
C37 O31 1.248 . S
C38 O28 1.260 . S
C38 O32 1.253 . S
C39 O30 1.279 . S
C39 O33 1.250 . S
O40 Mg22 2.030 . S
O40 C34 1.248 . S
O41 Mg24 2.079 . S
O41 C34 1.264 . S
H42 C45 0.931 1_655 S
H43 C48 0.928 . S
H44 C50 0.930 . S
C45 H42 0.931 1_455 S
C45 C46 1.414 . S
C45 C47 1.360 1_545 S
C46 C45 1.414 . S
C46 C50 1.435 . S
C47 C45 1.360 1_565 S
C47 C48 1.372 . S
C48 H43 0.928 . S
C48 C47 1.372 . S
C48 C49 1.404 . S
C49 C48 1.404 . S
C49 C50 1.391 1_565 S
C50 H44 0.930 . S
C50 C46 1.435 . S
C50 C49 1.391 1_545 S
H51 C54 0.931 . S
H52 C57 0.928 . S
H53 C59 0.930 . S
C54 H51 0.931 . S
C54 C55 1.413 . S
C54 C56 1.360 1_655 S
C55 C54 1.413 . S
C55 C59 1.429 . S
C56 C54 1.360 1_455 S
C56 C57 1.372 . S
C57 H52 0.928 . S
C57 C56 1.372 . S
C57 C58 1.404 . S
C58 C57 1.404 . S
C58 C59 1.391 1_455 S
C59 H53 0.930 . S
C59 C55 1.429 . S
C59 C58 1.391 1_655 S
H60 C63 0.931 . S
H61 C66 0.928 . S
H62 C68 0.930 . S
C63 H60 0.931 . S
C63 C64 1.413 . S
C63 C65 1.360 . S
C64 C63 1.413 . S
C64 C68 1.429 . S
C65 C63 1.360 . S
C65 C66 1.372 . S
C66 H61 0.928 . S
C66 C65 1.372 . S
C66 C67 1.404 . S
C67 C66 1.404 . S
C67 C68 1.391 . S
C68 H62 0.930 . S
C68 C64 1.429 . S
C68 C67 1.391 . S
H69 C72 0.931 . S
H70 C75 0.928 . S
H71 C77 0.930 . S
C72 H69 0.931 . S
C72 C73 1.413 . S
C72 C74 1.360 . S
C73 C72 1.413 . S
C73 C77 1.429 . S
C74 C72 1.360 . S
C74 C75 1.372 . S
C75 H70 0.928 . S
C75 C74 1.372 . S
C75 C76 1.404 . S
C76 C75 1.404 . S
C76 C77 1.391 . S
C77 H71 0.930 . S
C77 C73 1.429 . S
C77 C76 1.391 . S
H78 C84 0.930 . S
H79 C88 0.930 . S
H80 C93 0.929 . S
H81 C91 0.929 . S
H82 C86 0.929 1_556 S
H83 C92 0.929 . S
C84 H78 0.930 . S
C84 C85 1.367 . S
C84 C92 1.378 . S
C85 C84 1.367 . S
C85 C93 1.433 1_554 S
C86 H82 0.929 1_554 S
C86 C88 1.378 . S
C86 C90 1.350 . S
C87 C90 1.463 . S
C87 C92 1.350 . S
C87 N95 1.415 1_554 S
C88 H79 0.930 . S
C88 C86 1.378 . S
C88 C89 1.367 . S
C89 C88 1.367 . S
C89 C91 1.433 . S
C90 C86 1.350 . S
C90 C87 1.463 . S
C90 N94 1.427 . S
C91 H81 0.929 . S
C91 C89 1.433 . S
C91 N94 1.384 . S
C92 H83 0.929 . S
C92 C84 1.378 . S
C92 C87 1.350 . S
C93 H80 0.929 . S
C93 C85 1.433 1_556 S
C93 N95 1.386 . S
N94 C90 1.427 . S
N94 C91 1.384 . S
N95 C87 1.415 1_556 S
N95 C93 1.386 . S
H96 C102 0.930 . S
H97 C106 0.930 . S
H98 C111 0.929 . S
H99 C109 0.929 . S
H100 C104 0.929 . S
H101 C110 0.929 . S
C102 H96 0.930 . S
C102 C103 1.376 . S
C102 C110 1.378 . S
C103 C102 1.376 . S
C103 C111 1.427 1_556 S
C104 H100 0.929 . S
C104 C106 1.378 . S
C104 C108 1.350 . S
C105 C108 1.463 . S
C105 C110 1.350 . S
C105 N113 1.427 . S
C106 H97 0.930 . S
C106 C104 1.378 . S
C106 C107 1.367 . S
C107 C106 1.367 . S
C107 C109 1.433 . S
C108 C104 1.350 . S
C108 C105 1.463 . S
C108 N112 1.427 . S
C109 H99 0.929 . S
C109 C107 1.433 . S
C109 N112 1.384 . S
C110 H101 0.929 . S
C110 C102 1.378 . S
C110 C105 1.350 . S
C111 H98 0.929 . S
C111 C103 1.427 1_554 S
C111 N113 1.384 1_554 S
N112 C108 1.427 . S
N112 C109 1.384 . S
N113 C105 1.427 . S
N113 C111 1.384 1_556 S
H114 C120 0.930 . S
H115 C124 0.930 . S
H116 C129 0.929 . S
H117 C127 0.929 . S
H118 C122 0.929 1_556 S
H119 C128 0.929 . S
C120 H114 0.930 . S
C120 C121 1.367 . S
C120 C128 1.378 . S
C121 C120 1.367 . S
C121 C129 1.433 1_554 S
C122 H118 0.929 1_554 S
C122 C124 1.378 . S
C122 C126 1.350 . S
C123 C126 1.463 . S
C123 C128 1.350 . S
C123 N131 1.427 1_554 S
C124 H115 0.930 . S
C124 C122 1.378 . S
C124 C125 1.367 . S
C125 C124 1.367 . S
C125 C127 1.433 . S
C126 C122 1.350 . S
C126 C123 1.463 . S
C126 N130 1.427 . S
C127 H117 0.929 . S
C127 C125 1.433 . S
C127 N130 1.384 . S
C128 H119 0.929 . S
C128 C120 1.378 . S
C128 C123 1.350 . S
C129 H116 0.929 . S
C129 C121 1.433 1_556 S
C129 N131 1.384 . S
N130 C126 1.427 . S
N130 C127 1.384 . S
N131 C123 1.427 1_556 S
N131 C129 1.384 . S
H132 C138 0.930 . S
H133 C142 0.930 . S
H134 C147 0.929 . S
H135 C145 0.929 . S
H136 C140 0.929 1_554 S
H137 C146 0.929 . S
C138 H132 0.930 . S
C138 C139 1.367 . S
C138 C146 1.378 . S
C139 C138 1.367 . S
C139 C147 1.433 1_556 S
C140 H136 0.929 1_556 S
C140 C142 1.378 . S
C140 C144 1.350 . S
C141 C144 1.463 . S
C141 C146 1.350 . S
C141 N149 1.427 1_556 S
C142 H133 0.930 . S
C142 C140 1.378 . S
C142 C143 1.367 . S
C143 C142 1.367 . S
C143 C145 1.433 . S
C144 C140 1.350 . S
C144 C141 1.463 . S
C144 N148 1.427 . S
C145 H135 0.929 . S
C145 C143 1.433 . S
C145 N148 1.384 . S
C146 H137 0.929 . S
C146 C138 1.378 . S
C146 C141 1.350 . S
C147 H134 0.929 . S
C147 C139 1.433 1_554 S
C147 N149 1.384 . S
N148 C144 1.427 . S
N148 C145 1.384 . S
N149 C141 1.427 1_554 S
N149 C147 1.384 . S
H150 C156 0.930 . S
H151 C160 0.930 1_545 S
H152 C165 0.929 . S
H153 C163 0.929 . S
H154 C158 0.929 . S
H155 C164 0.929 . S
C156 H150 0.930 . S
C156 C157 1.367 . S
C156 C164 1.378 . S
C157 C156 1.367 . S
C157 C165 1.433 . S
C158 H154 0.929 . S
C158 C160 1.378 . S
C158 C162 1.350 . S
C159 C162 1.463 . S
C159 C164 1.350 . S
C159 N167 1.427 . S
C160 H151 0.930 1_565 S
C160 C158 1.378 . S
C160 C161 1.367 . S
C161 C160 1.367 . S
C161 C163 1.433 . S
C162 C158 1.350 . S
C162 C159 1.463 . S
C162 N166 1.427 . S
C163 H153 0.929 . S
C163 C161 1.433 . S
C163 N166 1.384 . S
C164 H155 0.929 . S
C164 C156 1.378 . S
C164 C159 1.350 . S
C165 H152 0.929 . S
C165 C157 1.433 . S
C165 N167 1.384 . S
N166 C162 1.427 . S
N166 C163 1.384 . S
N167 C159 1.427 . S
N167 C165 1.384 . S
H168 C174 0.930 . S
H169 C178 0.930 1_455 S
H170 C183 0.929 . S
H171 C181 0.929 . S
H172 C176 0.929 . S
H173 C182 0.929 . S
C174 H168 0.930 . S
C174 C175 1.367 . S
C174 C182 1.378 . S
C175 C174 1.367 . S
C175 C183 1.433 . S
C176 H172 0.929 . S
C176 C178 1.378 . S
C176 C180 1.350 . S
C177 C180 1.463 . S
C177 C182 1.350 . S
C177 N185 1.427 . S
C178 H169 0.930 1_655 S
C178 C176 1.378 . S
C178 C179 1.367 . S
C179 C178 1.367 . S
C179 C181 1.433 . S
C180 C176 1.350 . S
C180 C177 1.463 . S
C180 N184 1.427 . S
C181 H171 0.929 . S
C181 C179 1.433 . S
C181 N184 1.384 . S
C182 H173 0.929 . S
C182 C174 1.378 . S
C182 C177 1.350 . S
C183 H170 0.929 . S
C183 C175 1.433 . S
C183 N185 1.384 . S
N184 C180 1.427 . S
N184 C181 1.384 . S
N185 C177 1.427 . S
N185 C183 1.384 . S
H186 C192 0.930 . S
H187 C196 0.930 . S
H188 C201 0.929 . S
H189 C199 0.929 . S
H190 C194 0.929 . S
H191 C200 0.929 . S
C192 H186 0.930 . S
C192 C193 1.367 . S
C192 C200 1.378 . S
C193 C192 1.367 . S
C193 C201 1.433 . S
C194 H190 0.929 . S
C194 C196 1.378 . S
C194 C198 1.350 . S
C195 C198 1.463 . S
C195 C200 1.350 . S
C195 N203 1.427 . S
C196 H187 0.930 . S
C196 C194 1.378 . S
C196 C197 1.367 . S
C197 C196 1.367 . S
C197 C199 1.433 . S
C198 C194 1.350 . S
C198 C195 1.463 . S
C198 N202 1.427 . S
C199 H189 0.929 . S
C199 C197 1.433 . S
C199 N202 1.384 . S
C200 H191 0.929 . S
C200 C192 1.378 . S
C200 C195 1.350 . S
C201 H188 0.929 . S
C201 C193 1.433 . S
C201 N203 1.384 . S
N202 C198 1.427 . S
N202 C199 1.384 . S
N203 C195 1.427 . S
N203 C201 1.384 . S
H204 C210 0.930 . S
H205 C214 0.930 . S
H206 C219 0.929 . S
H207 C217 0.929 . S
H208 C212 0.929 . S
H209 C218 0.929 . S
C210 H204 0.930 . S
C210 C211 1.367 . S
C210 C218 1.378 . S
C211 C210 1.367 . S
C211 C219 1.433 . S
C212 H208 0.929 . S
C212 C214 1.378 . S
C212 C216 1.350 . S
C213 C216 1.463 . S
C213 C218 1.350 . S
C213 N221 1.427 . S
C214 H205 0.930 . S
C214 C212 1.378 . S
C214 C215 1.367 . S
C215 C214 1.367 . S
C215 C217 1.433 . S
C216 C212 1.350 . S
C216 C213 1.463 . S
C216 N220 1.427 . S
C217 H207 0.929 . S
C217 C215 1.433 . S
C217 N220 1.384 . S
C218 H209 0.929 . S
C218 C210 1.378 . S
C218 C213 1.350 . S
C219 H206 0.929 . S
C219 C211 1.433 . S
C219 N221 1.384 . S
N220 C216 1.427 . S
N220 C217 1.384 . S
N221 C213 1.427 . S
N221 C219 1.384 . S
H222 C228 0.930 . S
H223 C232 0.930 . S
H224 C237 0.929 . S
H225 C235 0.929 . S
H226 C230 0.929 . S
H227 C236 0.929 . S
C228 H222 0.930 . S
C228 C229 1.367 1_565 S
C228 C236 1.378 . S
C229 C228 1.367 1_545 S
C229 C237 1.433 . S
C230 H226 0.929 . S
C230 C232 1.378 . S
C230 C234 1.350 . S
C231 C234 1.463 . S
C231 C236 1.350 1_545 S
C231 N239 1.427 . S
C232 H223 0.930 . S
C232 C230 1.378 . S
C232 C233 1.383 . S
C233 C232 1.383 . S
C233 C235 1.419 1_545 S
C234 C230 1.350 . S
C234 C231 1.463 . S
C234 N238 1.427 1_545 S
C235 H225 0.929 . S
C235 C233 1.419 1_565 S
C235 N238 1.384 . S
C236 H227 0.929 . S
C236 C228 1.378 . S
C236 C231 1.350 1_565 S
C237 H224 0.929 . S
C237 C229 1.433 . S
C237 N239 1.384 . S
N238 C234 1.427 1_565 S
N238 C235 1.384 . S
N239 C231 1.427 . S
N239 C237 1.384 . S
H240 C246 0.930 1_565 S
H241 C250 0.930 . S
H242 C255 0.929 . S
H243 C253 0.929 . S
H244 C248 0.929 . S
H245 C254 0.929 1_565 S
C246 H240 0.930 1_545 S
C246 C247 1.367 1_655 S
C246 C254 1.378 . S
C247 C246 1.367 1_455 S
C247 C255 1.433 . S
C248 H244 0.929 . S
C248 C250 1.378 . S
C248 C252 1.350 . S
C249 C252 1.463 . S
C249 C254 1.350 1_455 S
C249 N257 1.427 . S
C250 H241 0.930 . S
C250 C248 1.378 . S
C250 C251 1.367 . S
C251 C250 1.367 . S
C251 C253 1.433 1_455 S
C252 C248 1.350 . S
C252 C249 1.463 . S
C252 N256 1.427 1_455 S
C253 H243 0.929 . S
C253 C251 1.433 1_655 S
C253 N256 1.384 . S
C254 H245 0.929 1_545 S
C254 C246 1.378 . S
C254 C249 1.350 1_655 S
C255 H242 0.929 . S
C255 C247 1.433 . S
C255 N257 1.384 . S
N256 C252 1.427 1_655 S
N256 C253 1.384 . S
N257 C249 1.427 . S
N257 C255 1.384 . S
H258 C264 0.930 . S
H259 C268 0.930 . S
H260 C273 0.929 . S
H261 C271 0.929 . S
H262 C266 0.929 . S
H263 C272 0.929 . S
C264 H258 0.930 . S
C264 C265 1.367 . S
C264 C272 1.378 . S
C265 C264 1.367 . S
C265 C273 1.433 . S
C266 H262 0.929 . S
C266 C268 1.378 . S
C266 C270 1.350 . S
C267 C270 1.463 . S
C267 C272 1.350 . S
C267 N275 1.427 . S
C268 H259 0.930 . S
C268 C266 1.378 . S
C268 C269 1.367 . S
C269 C268 1.367 . S
C269 C271 1.433 . S
C270 C266 1.350 . S
C270 C267 1.463 . S
C270 N274 1.427 . S
C271 H261 0.929 . S
C271 C269 1.433 . S
C271 N274 1.384 . S
C272 H263 0.929 . S
C272 C264 1.378 . S
C272 C267 1.350 . S
C273 H260 0.929 . S
C273 C265 1.433 . S
C273 N275 1.384 . S
N274 C270 1.427 . S
N274 C271 1.384 . S
N275 C267 1.427 . S
N275 C273 1.384 . S
H276 C282 0.930 . S
H277 C286 0.930 . S
H278 C291 0.929 . S
H279 C289 0.929 . S
H280 C284 0.929 . S
H281 C290 0.929 . S
C282 H276 0.930 . S
C282 C283 1.367 . S
C282 C290 1.378 . S
C283 C282 1.367 . S
C283 C291 1.433 . S
C284 H280 0.929 . S
C284 C286 1.378 . S
C284 C288 1.350 . S
C285 C288 1.463 . S
C285 C290 1.350 . S
C285 N293 1.427 . S
C286 H277 0.930 . S
C286 C284 1.378 . S
C286 C287 1.367 . S
C287 C286 1.367 . S
C287 C289 1.433 . S
C288 C284 1.350 . S
C288 C285 1.463 . S
C288 N292 1.427 . S
C289 H279 0.929 . S
C289 C287 1.433 . S
C289 N292 1.384 . S
C290 H281 0.929 . S
C290 C282 1.378 . S
C290 C285 1.350 . S
C291 H278 0.929 . S
C291 C283 1.433 . S
C291 N293 1.384 . S
N292 C288 1.427 . S
N292 C289 1.384 . S
N293 C285 1.427 . S
N293 C291 1.384 . S
C89 C73 1.377 . S
C85 C15 1.165 . S
C103 C13 1.414 1_556 S
C107 C64 1.427 . S
C121 C18 1.263 1_554 S
C125 C76 1.421 . S
C139 C17 1.290 . S
C143 C67 1.364 . S
C157 C36 1.166 . S
C161 C55 1.378 1_565 S
C175 C34 1.426 . S
C179 C46 1.418 1_655 S
C197 C58 1.414 . S
C193 C39 1.250 . S
C215 C49 1.359 . S
C211 C38 1.309 . S
C229 C14 1.501 . S
C233 C47 1.548 1_545 S
C247 C16 1.367 . S
C251 C56 1.426 . S
C269 C65 1.552 . S
C265 C35 1.496 . S
C283 C37 1.374 . S
C287 C74 1.427 . S
