# Generated by pormake.
# Topology zzz, (3,6)-cn, num edge types: 1
# Building blocks:
#     Node 0, Type 0, BuildingBlock: PAMTOO_clean_linker_0, # of connection points: 3
#     Node 1, Type 0, BuildingBlock: PAMTOO_clean_linker_0, # of connection points: 3
#     Node 2, Type 0, BuildingBlock: PAMTOO_clean_linker_0, # of connection points: 3
#     Node 3, Type 0, BuildingBlock: PAMTOO_clean_linker_0, # of connection points: 3
#     Node 4, Type 0, BuildingBlock: PAMTOO_clean_linker_0, # of connection points: 3
#     Node 5, Type 0, BuildingBlock: PAMTOO_clean_linker_0, # of connection points: 3
#     Node 6, Type 0, BuildingBlock: PAMTOO_clean_linker_0, # of connection points: 3
#     Node 7, Type 0, BuildingBlock: PAMTOO_clean_linker_0, # of connection points: 3
#     Node 8, Type 1, BuildingBlock: BETFEN_clean_sbu_0, # of connection points: 6
#     Node 9, Type 1, BuildingBlock: BETFEN_clean_sbu_0, # of connection points: 6
#     Node 10, Type 1, BuildingBlock: BETFEN_clean_sbu_0, # of connection points: 6
#     Node 11, Type 1, BuildingBlock: BETFEN_clean_sbu_0, # of connection points: 6
#     Edge 12, Type (0, 1), BuildingBlock: AJUNOK_clean_linker_0, # of connection points: 2
#     Edge 13, Type (0, 1), BuildingBlock: AJUNOK_clean_linker_0, # of connection points: 2
#     Edge 14, Type (0, 1), BuildingBlock: AJUNOK_clean_linker_0, # of connection points: 2
#     Edge 15, Type (0, 1), BuildingBlock: AJUNOK_clean_linker_0, # of connection points: 2
#     Edge 16, Type (0, 1), BuildingBlock: AJUNOK_clean_linker_0, # of connection points: 2
#     Edge 17, Type (0, 1), BuildingBlock: AJUNOK_clean_linker_0, # of connection points: 2
#     Edge 18, Type (0, 1), BuildingBlock: AJUNOK_clean_linker_0, # of connection points: 2
#     Edge 19, Type (0, 1), BuildingBlock: AJUNOK_clean_linker_0, # of connection points: 2
#     Edge 20, Type (0, 1), BuildingBlock: AJUNOK_clean_linker_0, # of connection points: 2
#     Edge 21, Type (0, 1), BuildingBlock: AJUNOK_clean_linker_0, # of connection points: 2
#     Edge 22, Type (0, 1), BuildingBlock: AJUNOK_clean_linker_0, # of connection points: 2
#     Edge 23, Type (0, 1), BuildingBlock: AJUNOK_clean_linker_0, # of connection points: 2
#     Edge 24, Type (0, 1), BuildingBlock: AJUNOK_clean_linker_0, # of connection points: 2
#     Edge 25, Type (0, 1), BuildingBlock: AJUNOK_clean_linker_0, # of connection points: 2
#     Edge 26, Type (0, 1), BuildingBlock: AJUNOK_clean_linker_0, # of connection points: 2
#     Edge 27, Type (0, 1), BuildingBlock: AJUNOK_clean_linker_0, # of connection points: 2
#     Edge 28, Type (0, 1), BuildingBlock: AJUNOK_clean_linker_0, # of connection points: 2
#     Edge 29, Type (0, 1), BuildingBlock: AJUNOK_clean_linker_0, # of connection points: 2
#     Edge 30, Type (0, 1), BuildingBlock: AJUNOK_clean_linker_0, # of connection points: 2
#     Edge 31, Type (0, 1), BuildingBlock: AJUNOK_clean_linker_0, # of connection points: 2
#     Edge 32, Type (0, 1), BuildingBlock: AJUNOK_clean_linker_0, # of connection points: 2
#     Edge 33, Type (0, 1), BuildingBlock: AJUNOK_clean_linker_0, # of connection points: 2
#     Edge 34, Type (0, 1), BuildingBlock: AJUNOK_clean_linker_0, # of connection points: 2
#     Edge 35, Type (0, 1), BuildingBlock: AJUNOK_clean_linker_0, # of connection points: 2
# Relax obj value: 0.366
# Max RMSD: 0.214
# Mean RMSD: 0.160
data_MOF--net-zzz--node1-BETFEN_clean_sbu_0--node2-PAMTOO_clean_linker_0--edge1-AJUNOK_clean_linker_0
_symmetry_space_group_name_H-M    P1
_symmetry_Int_Tables_number       1
_symmetry_cell_setting            triclinic
loop_
_symmetry_equiv_pos_as_xyz
'x, y, z'
_cell_length_a     37.325228
_cell_length_b     37.00512
_cell_length_c     10.357491
_cell_angle_alpha  89.637826
_cell_angle_beta   90.515528
_cell_angle_gamma 89.626303
loop_
_atom_site_label
_atom_site_type_symbol
_atom_site_fract_x
_atom_site_fract_y
_atom_site_fract_z
_atom_type_partial_charge
H0 H 0.85265 0.48635 0.36891 0.0
H1 H 0.74864 0.51232 0.21958 0.0
H2 H 0.79486 0.57709 0.52322 0.0
H3 H 0.69837 0.58419 0.47273 0.0
C4 C 0.70523 0.5638 0.39855 0.0
O5 O 0.73976 0.57039 0.35545 0.0
H6 H 0.70374 0.53701 0.44799 0.0
C7 C 0.8282 0.50208 0.37779 0.0
C8 C 0.82706 0.53081 0.46503 0.0
C9 C 0.79957 0.49412 0.29484 0.0
C10 C 0.7698 0.51704 0.28967 0.0
C11 C 0.7678 0.54699 0.37148 0.0
C12 C 0.79632 0.55379 0.46073 0.0
H13 H 0.10857 0.85331 0.46267 0.0
H14 H 0.09227 0.75035 0.28028 0.0
H15 H 1.00904 0.79785 0.5095 0.0
H16 H 1.00239 0.70406 0.45744 0.0
C17 C 1.02684 0.70817 0.39892 0.0
O18 O 1.02661 0.74342 0.35224 0.0
H19 H 0.04991 0.70345 0.46558 0.0
C20 C 0.09286 0.82907 0.44893 0.0
C21 C 0.05863 0.82815 0.50302 0.0
C22 C 0.10512 0.80194 0.36495 0.0
C23 C 0.08342 0.77169 0.34372 0.0
C24 C 0.04885 0.76996 0.39475 0.0
C25 C 1.03627 0.79838 0.47432 0.0
H26 H 0.73301 0.10943 0.35418 0.0
H27 H 0.83602 0.08342 0.20396 0.0
H28 H 0.78898 1.01496 0.49504 0.0
H29 H 0.88729 1.00633 0.43465 0.0
C30 C 0.87921 1.02864 0.36808 0.0
O31 O 0.84389 1.02317 0.32912 0.0
H32 H 0.88161 0.05396 0.42515 0.0
C33 C 0.75721 0.0932 0.36186 0.0
C34 C 0.75776 0.063 0.4442 0.0
C35 C 0.78574 0.10165 0.28029 0.0
C36 C 0.81505 0.07826 0.2733 0.0
C37 C 0.81657 0.04702 0.34999 0.0
C38 C 0.78802 1.03938 0.43703 0.0
H39 H 0.4757 0.74423 0.39428 0.0
H40 H 0.49784 0.84958 0.2425 0.0
H41 H 0.5721 0.79848 0.50791 0.0
H42 H 0.58073 0.89539 0.45124 0.0
C43 C 0.55837 0.88951 0.38325 0.0
O44 O 0.56135 0.85387 0.34338 0.0
H45 H 0.53324 0.89381 0.4385 0.0
C46 C 0.49159 0.76861 0.39693 0.0
C47 C 0.52315 0.76856 0.47138 0.0
C48 C 0.48135 0.79797 0.31795 0.0
C49 C 0.50452 0.82735 0.30682 0.0
C50 C 0.53744 0.8275 0.3728 0.0
C51 C 0.5466 0.79837 0.45732 0.0
H52 H 0.23428 0.61348 0.16816 0.0
H53 H 0.33931 0.60278 0.34081 0.0
H54 H 0.29359 0.51483 0.12683 0.0
H55 H 0.3865 0.56087 0.16328 0.0
C56 C 0.38297 0.53711 0.228 0.0
O57 O 0.34839 0.53599 0.27586 0.0
H58 H 0.38745 0.51284 0.1675 0.0
C59 C 0.25925 0.5987 0.18137 0.0
C60 C 0.26114 0.56363 0.13236 0.0
C61 C 0.28669 0.61315 0.25928 0.0
C62 C 0.3179 0.59249 0.28047 0.0
C63 C 0.32075 0.5572 0.23288 0.0
C64 C 0.2923 0.54269 0.15793 0.0
H65 H 0.97352 0.24148 0.19862 0.0
H66 H 0.98736 0.34843 0.34495 0.0
H67 H 0.06545 0.30305 0.08513 0.0
H68 H 0.10015 0.36202 0.28513 0.0
C69 C 0.07327 0.36525 0.32885 0.0
O70 O 0.04802 0.36056 0.23104 0.0
H71 H 0.07075 0.34379 0.40407 0.0
C72 C 0.98829 0.26663 0.19791 0.0
C73 C 1.01975 0.26878 0.12598 0.0
C74 C 0.97584 0.29537 0.27289 0.0
C75 C 0.99624 0.32671 0.28314 0.0
C76 C 1.02874 0.32965 0.21705 0.0
C77 C 1.0406 0.30064 0.1375 0.0
H78 H 0.34702 0.97518 0.15388 0.0
H79 H 0.24839 0.99564 0.35177 0.0
H80 H 0.29404 0.07803 0.10957 0.0
H81 H 0.20066 1.0398 0.16292 0.0
C82 C 0.20584 0.06264 0.22938 0.0
O83 O 0.24107 0.06183 0.27419 0.0
H84 H 0.20184 0.0876 0.17071 0.0
C85 C 0.32376 0.99228 0.16938 0.0
C86 C 0.32345 1.02706 0.11502 0.0
C87 C 0.29729 0.98074 0.25584 0.0
C88 C 0.26848 1.00384 0.28284 0.0
C89 C 0.26688 1.03878 0.23038 0.0
C90 C 0.29456 0.0506 0.14651 0.0
H91 H 0.59611 0.35467 0.23388 0.0
H92 H 0.56375 0.25474 0.40461 0.0
H93 H 0.50428 0.29868 0.08147 0.0
H94 H 0.54562 0.20833 0.14974 0.0
C95 C 0.51962 0.20827 0.20182 0.0
O96 O 0.511 0.24259 0.24637 0.0
H97 H 0.4991 0.20025 0.12932 0.0
C98 C 0.57911 0.33099 0.23065 0.0
C99 C 0.54983 0.33058 0.14508 0.0
C100 C 0.58468 0.30347 0.32229 0.0
C101 C 0.56111 0.27445 0.3276 0.0
C102 C 0.53319 0.27151 0.23748 0.0
C103 C 0.52702 0.29997 0.14688 0.0
Pr104 Pr 0.0685 1.04393 0.87766 0.0
Pr105 Pr 1.01315 0.05655 0.70852 0.0
C106 C 0.11798 1.01482 0.03864 0.0
C107 C 0.13009 0.97709 0.05501 0.0
C108 C 0.16678 0.96805 0.05433 0.0
C109 C 0.17793 0.93207 0.07203 0.0
C110 C 0.15237 0.90469 0.08478 0.0
C111 C 0.11575 0.9138 0.08007 0.0
C112 C 0.10475 0.94949 0.06551 0.0
C113 C 0.09593 0.06531 0.63757 0.0
C114 C 1.03735 0.97341 0.70947 0.0
C115 C 0.96716 0.08335 0.52929 0.0
C116 C 0.94711 0.11727 0.50739 0.0
C117 C 0.95217 0.13591 0.39112 0.0
C118 C 0.93727 0.17007 0.37229 0.0
C119 C 0.91775 0.18685 0.47094 0.0
C120 C 0.91119 0.16768 0.58547 0.0
C121 C 0.92565 0.13293 0.60352 0.0
C122 C 0.98485 1.03325 0.94527 0.0
C123 C 0.04229 0.1268 0.8875 0.0
O124 O 0.08521 1.02221 0.07405 0.0
O125 O 0.12619 1.02993 0.92915 0.0
O126 O 0.07168 1.04191 0.65387 0.0
O127 O 0.10306 0.0816 0.74518 0.0
O128 O 1.02318 0.99816 0.63316 0.0
O129 O 0.05231 0.98367 0.81937 0.0
O130 O 1.00195 0.08567 0.51981 0.0
O131 O 0.95714 0.06254 0.62436 0.0
O132 O 1.00924 0.05686 0.93323 0.0
O133 O 0.97675 1.01926 0.83442 0.0
O134 O 0.06114 0.10291 0.95392 0.0
O135 O 1.02448 0.11633 0.78337 0.0
H136 H 0.18677 0.98881 0.04261 0.0
H137 H 0.20627 0.92571 0.07752 0.0
H138 H 0.09539 0.89338 0.09311 0.0
H139 H 0.07629 0.95538 0.06389 0.0
H140 H 0.96895 0.12461 0.31646 0.0
H141 H 0.94351 0.18455 0.28411 0.0
H142 H 0.8965 0.18029 0.66294 0.0
H143 H 0.92157 0.1192 0.69483 0.0
Pr144 Pr 0.54644 0.07555 0.86669 0.0
Pr145 Pr 0.53459 1.01767 0.70373 0.0
C146 C 0.57229 0.12382 0.03657 0.0
C147 C 0.60667 0.14246 0.05365 0.0
C148 C 0.62279 0.16177 0.9522 0.0
C149 C 0.65857 0.17262 0.96309 0.0
C150 C 0.67837 0.16426 0.07506 0.0
C151 C 0.6612 0.14775 0.17988 0.0
C152 C 0.62582 0.13663 0.16862 0.0
C153 C 0.52253 0.10088 0.62458 0.0
C154 C 0.61646 1.04576 0.69011 0.0
C155 C 0.50857 0.9691 0.53481 0.0
C156 C 0.47459 0.9499 0.51381 0.0
C157 C 0.45793 0.92996 0.61255 0.0
C158 C 0.42342 0.9161 0.59356 0.0
C159 C 0.40545 0.92169 0.4753 0.0
C160 C 0.42318 0.93987 0.37502 0.0
C161 C 0.4571 0.95418 0.39475 0.0
C162 C 0.55802 0.99269 0.94688 0.0
C163 C 0.46468 0.04845 0.87912 0.0
O164 O 0.57341 0.0889 0.05623 0.0
O165 O 0.55249 0.13307 0.9371 0.0
O166 O 0.54651 0.07687 0.64249 0.0
O167 O 0.50846 0.11034 0.73336 0.0
O168 O 0.5929 1.02621 0.62705 0.0
O169 O 0.60606 0.06448 0.79192 0.0
O170 O 0.50754 1.00397 0.51422 0.0
O171 O 0.52782 0.96003 0.63579 0.0
O172 O 0.53395 1.01649 0.92764 0.0
O173 O 0.57254 0.98324 0.83886 0.0
O174 O 0.4888 0.06651 0.94474 0.0
O175 O 0.47476 1.03019 0.77568 0.0
H176 H 0.60864 0.16645 0.86181 0.0
H177 H 0.67142 0.18542 0.8817 0.0
H178 H 0.67612 0.14044 0.26656 0.0
H179 H 0.61412 0.12125 0.24681 0.0
H180 H 0.47076 0.92656 0.70608 0.0
H181 H 0.41011 0.9027 0.67288 0.0
H182 H 0.4097 0.94559 0.28397 0.0
H183 H 0.46903 0.97005 0.31833 0.0
Pr184 Pr 0.51384 0.55813 0.89425 0.0
Pr185 Pr 0.57183 0.54456 0.74014 0.0
C186 C 0.46345 0.58941 0.04139 0.0
C187 C 0.45141 0.62742 0.04608 0.0
C188 C 0.41475 0.63654 0.04328 0.0
C189 C 0.40381 0.67288 0.04732 0.0
C190 C 0.42948 0.70047 0.04984 0.0
C191 C 0.46606 0.69104 0.04894 0.0
C192 C 0.47685 0.65509 0.04714 0.0
C193 C 0.48995 0.53534 0.65086 0.0
C194 C 0.54651 0.62702 0.71982 0.0
C195 C 0.62114 0.51536 0.58363 0.0
C196 C 0.63783 0.47938 0.57962 0.0
C197 C 0.64574 0.45998 0.69384 0.0
C198 C 0.6529 0.42283 0.68906 0.0
C199 C 0.65227 0.40485 0.57008 0.0
C200 C 0.64751 0.42514 0.45578 0.0
C201 C 0.63984 0.46189 0.46084 0.0
C202 C 0.59616 0.56826 0.98211 0.0
C203 C 0.53756 0.47504 0.91256 0.0
O204 O 0.49602 0.58264 0.08299 0.0
O205 O 0.45581 0.57245 0.93499 0.0
O206 O 0.51414 0.55866 0.67007 0.0
O207 O 0.48059 0.52025 0.75865 0.0
O208 O 0.56355 0.60243 0.65305 0.0
O209 O 0.52988 0.61736 0.82646 0.0
O210 O 0.58692 0.51598 0.55618 0.0
O211 O 0.62954 0.53581 0.6813 0.0
O212 O 0.57203 0.54466 0.96468 0.0
O213 O 0.60551 0.58262 0.87309 0.0
O214 O 0.51886 0.49944 0.97457 0.0
O215 O 0.55741 0.48499 0.81338 0.0
H216 H 0.39465 0.61561 0.04029 0.0
H217 H 0.37552 0.67942 0.05105 0.0
H218 H 0.48661 0.71151 0.05525 0.0
H219 H 0.50529 0.64907 0.04793 0.0
H220 H 0.64369 0.47285 0.78717 0.0
H221 H 0.65609 0.40773 0.77843 0.0
H222 H 0.64584 0.41196 0.36278 0.0
H223 H 0.63222 0.47585 0.37267 0.0
Pr224 Pr 1.03575 0.51634 0.91121 0.0
Pr225 Pr 0.04911 0.57291 0.74601 0.0
C226 C 1.01002 0.46844 0.08403 0.0
C227 C 0.97713 0.44707 0.09482 0.0
C228 C 0.95898 0.44698 0.21243 0.0
C229 C 0.92342 0.43592 0.21748 0.0
C230 C 0.9054 0.42505 0.10448 0.0
C231 C 0.92492 0.42081 0.9905 0.0
C232 C 0.96058 0.43214 0.98507 0.0
C233 C 0.0612 0.48896 0.6769 0.0
C234 C 0.96714 0.54688 0.72432 0.0
C235 C 0.07765 0.62409 0.59231 0.0
C236 C 0.11455 0.63684 0.57338 0.0
C237 C 0.12249 0.67398 0.57713 0.0
C238 C 0.15749 0.68599 0.55519 0.0
C239 C 0.18503 0.66082 0.53423 0.0
C240 C 0.17709 0.62375 0.53447 0.0
C241 C 0.14235 0.61187 0.55422 0.0
C242 C 1.02595 0.59903 0.98552 0.0
C243 C 0.11754 0.54108 0.92214 0.0
O244 O 1.00542 0.50335 0.09343 0.0
O245 O 1.03241 0.45954 0.99338 0.0
O246 O 1.03727 0.51338 0.68574 0.0
O247 O 0.07432 0.4806 0.78954 0.0
O248 O 0.99102 0.56636 0.66335 0.0
O249 O 0.9769 0.52782 0.82749 0.0
O250 O 0.07029 0.59146 0.55261 0.0
O251 O 0.06384 0.63117 0.70427 0.0
O252 O 0.04963 0.57485 0.96984 0.0
O253 O 1.01041 0.60697 0.87646 0.0
O254 O 0.09217 0.52897 0.99746 0.0
O255 O 0.10843 0.55424 0.80747 0.0
H256 H 0.97118 0.45858 0.29783 0.0
H257 H 0.90898 0.43975 0.30676 0.0
H258 H 0.91165 0.41177 0.90344 0.0
H259 H 0.97415 0.43182 0.89307 0.0
H260 H 0.10155 0.69367 0.5944 0.0
H261 H 0.16295 0.7147 0.55283 0.0
H262 H 0.19767 0.60388 0.51389 0.0
H263 H 0.13724 0.58309 0.5523 0.0
C264 C 0.16874 0.09462 0.40115 0.0
C265 C 0.17875 0.06223 0.33979 0.0
C266 C 0.1417 0.09542 0.49572 0.0
C267 C 0.12292 0.064 0.53134 0.0
H268 H 0.18169 0.11967 0.37476 0.0
H269 H 0.13521 0.12097 0.54062 0.0
S270 S 0.14128 0.97154 0.41032 0.0
N271 N 0.16979 0.99733 0.33148 0.0
N272 N 0.11812 0.99906 0.50332 0.0
C273 C 0.13311 1.03132 0.47255 0.0
C274 C 0.16126 1.03037 0.37884 0.0
C275 C 0.48979 0.16161 0.34754 0.0
C276 C 0.52089 0.18053 0.31169 0.0
C277 C 0.49058 0.1353 0.4469 0.0
C278 C 0.52257 0.12664 0.5135 0.0
H279 H 0.46464 0.16721 0.29824 0.0
H280 H 0.46597 0.12167 0.47191 0.0
S281 S 0.61014 0.1715 0.46942 0.0
N282 N 0.58396 0.19024 0.35815 0.0
N283 N 0.58522 0.14148 0.54497 0.0
C284 C 0.55357 0.14589 0.48084 0.0
C285 C 0.55277 0.17267 0.38023 0.0
C286 C 0.42014 0.50526 0.40263 0.0
C287 C 0.41065 0.53753 0.33755 0.0
C288 C 0.44634 0.50469 0.50163 0.0
C289 C 0.46473 0.53621 0.53805 0.0
H290 H 0.40711 0.48022 0.37676 0.0
H291 H 0.45227 0.4793 0.55019 0.0
S292 S 0.44803 0.62831 0.40545 0.0
N293 N 0.42004 0.60236 0.32424 0.0
N294 N 0.47026 0.60101 0.50481 0.0
C295 C 0.45538 0.56871 0.47432 0.0
C296 C 0.42806 0.56945 0.37594 0.0
C297 C 1.0372 0.41886 0.42044 0.0
C298 C 0.07048 0.40185 0.39687 0.0
C299 C 1.03442 0.44912 0.50299 0.0
C300 C 0.06472 0.46299 0.56772 0.0
H301 H 1.01294 0.40788 0.37902 0.0
H302 H 1.0081 0.46022 0.52255 0.0
S303 S 0.15805 0.42952 0.53677 0.0
N304 N 0.13444 0.40261 0.44259 0.0
N305 N 0.12903 0.4584 0.59817 0.0
C306 C 0.0981 0.44697 0.54196 0.0
C307 C 0.10101 0.41669 0.45709 0.0
C308 C 0.92153 0.06207 0.21613 0.0
C309 C 0.90503 1.02954 0.25368 0.0
C310 C 0.94841 0.063 0.12081 0.0
C311 C 0.959 1.03151 0.05515 0.0
H312 H 0.91349 0.08703 0.26122 0.0
H313 H 0.96018 0.08876 0.09573 0.0
S314 S 0.92175 0.93987 0.10735 0.0
N315 N 0.90037 0.96527 0.21277 0.0
N316 N 0.94912 0.96716 0.02955 0.0
C317 C 0.94163 0.99905 0.08794 0.0
C318 C 0.91504 0.99802 0.18745 0.0
C319 C 0.527 0.92695 0.20791 0.0
C320 C 0.55914 0.91561 0.26836 0.0
C321 C 0.52667 0.95302 0.10798 0.0
C322 C 0.55869 0.96776 0.06061 0.0
H323 H 0.50183 0.91563 0.23869 0.0
H324 H 0.5012 0.96092 0.06506 0.0
S325 S 0.65036 0.94513 0.17725 0.0
N326 N 0.62401 0.92038 0.26931 0.0
N327 N 0.62356 0.96773 0.0773 0.0
C328 C 0.59111 0.95562 0.1164 0.0
C329 C 0.59135 0.92986 0.22064 0.0
C330 C 0.66417 0.53378 0.23301 0.0
C331 C 0.67772 0.56567 0.28822 0.0
C332 C 0.63645 0.53465 0.13929 0.0
C333 C 0.6221 0.56762 0.09291 0.0
H334 H 0.67518 0.5079 0.26277 0.0
H335 H 0.62706 0.50935 0.09974 0.0
S336 S 0.65036 0.65895 0.19627 0.0
N337 N 0.67544 0.63123 0.28496 0.0
N338 N 0.62509 0.633 0.10406 0.0
C339 C 0.63642 0.59972 0.14332 0.0
C340 C 0.66386 0.59876 0.24142 0.0
C341 C 0.99548 0.67057 0.22652 0.0
C342 C 1.02752 0.68074 0.28914 0.0
C343 C 0.99513 0.64383 0.12994 0.0
C344 C 1.02668 0.62558 0.09365 0.0
H345 H 0.97041 0.68329 0.25306 0.0
H346 H 0.96987 0.6372 0.08382 0.0
S347 S 0.11823 0.64462 0.21771 0.0
N348 N 0.09212 0.67259 0.29824 0.0
N349 N 0.09128 0.62138 0.12254 0.0
C350 C 0.05898 0.63589 0.15394 0.0
C351 C 0.05945 0.66375 0.24969 0.0
C352 C 0.95225 0.27844 0.48306 0.0
C353 C 0.94448 0.28839 0.35487 0.0
C354 C 0.9368 0.24741 0.53611 0.0
C355 C 0.91293 0.22644 0.46261 0.0
H356 H 0.97525 0.28989 0.53222 0.0
H357 H 0.94871 0.23649 0.62342 0.0
S358 S 0.87219 0.25193 0.14834 0.0
N359 N 0.90239 0.28347 0.17614 0.0
N360 N 0.87322 0.22496 0.27611 0.0
C361 C 0.89836 0.24178 0.34949 0.0
C362 C 0.91402 0.2734 0.29581 0.0
C363 C 0.32286 0.91904 0.28439 0.0
C364 C 0.30611 0.94929 0.34033 0.0
C365 C 0.35293 0.90311 0.34425 0.0
C366 C 0.36625 0.9169 0.46147 0.0
H367 H 0.31716 0.9123 0.18467 0.0
H368 H 0.36921 0.88468 0.28842 0.0
S369 S 0.31989 0.98188 0.67377 0.0
N370 N 0.29586 0.9819 0.53951 0.0
N371 N 0.35227 0.95197 0.65224 0.0
C372 C 0.34378 0.93984 0.53232 0.0
C373 C 0.3133 0.95607 0.47127 0.0
C374 C 0.64574 0.31927 0.39552 0.0
C375 C 0.61035 0.31047 0.42774 0.0
C376 C 0.66394 0.34629 0.46313 0.0
C377 C 0.64669 0.36538 0.5622 0.0
H378 H 0.65708 0.3095 0.30624 0.0
H379 H 0.6888 0.35633 0.42381 0.0
S380 S 0.5593 0.34276 0.70832 0.0
N381 N 0.56326 0.31468 0.58629 0.0
N382 N 0.59668 0.36638 0.71094 0.0
C383 C 0.61468 0.35121 0.61147 0.0
C384 C 0.59653 0.32331 0.54403 0.0
C385 C 0.25351 0.67106 0.2903 0.0
C386 C 0.27761 0.64495 0.34114 0.0
C387 C 0.22487 0.68356 0.36496 0.0
C388 C 0.22118 0.6716 0.49302 0.0
H389 H 0.25255 0.67622 0.1872 0.0
H390 H 0.2028 0.6973 0.31635 0.0
S391 S 0.28945 0.62304 0.68922 0.0
N392 N 0.30457 0.62122 0.54005 0.0
N393 N 0.25177 0.64661 0.68095 0.0
C394 C 0.25085 0.65499 0.55303 0.0
C395 C 0.2793 0.64126 0.47657 0.0
C396 C 0.16292 0.83345 0.32538 0.0
C397 C 0.13556 0.81081 0.27791 0.0
C398 C 0.17546 0.86217 0.24962 0.0
C399 C 0.16212 0.8674 0.12365 0.0
H400 H 0.16946 0.83335 0.42754 0.0
H401 H 0.19055 0.88333 0.29674 0.0
S402 S 0.10811 0.80312 0.93368 0.0
N403 N 0.10791 0.78674 0.08226 0.0
N404 N 0.13362 0.83937 0.93906 0.0
C405 C 0.14388 0.83874 0.0653 0.0
C406 C 0.13 0.81034 0.14308 0.0
C407 C 0.76735 0.16402 0.22938 0.0
C408 C 0.77932 0.13035 0.18336 0.0
C409 C 0.73641 0.18017 0.17664 0.0
C410 C 0.71785 0.16339 0.07496 0.0
H411 H 0.77731 0.17391 0.32111 0.0
H412 H 0.724 0.20227 0.22824 0.0
S413 S 0.74765 0.08303 0.89231 0.0
N414 N 0.7781 0.08776 0.00718 0.0
N415 N 0.71936 0.11705 0.91035 0.0
C416 C 0.73473 0.13467 0.01086 0.0
C417 C 0.76636 0.11867 0.06369 0.0
C418 C 0.42073 0.77315 0.2768 0.0
C419 C 0.44998 0.79323 0.23027 0.0
C420 C 0.40628 0.74528 0.20198 0.0
C421 C 0.41996 0.73849 0.07851 0.0
H422 H 0.41436 0.77371 0.37866 0.0
H423 H 0.3898 0.72532 0.2497 0.0
S424 S 0.47792 0.79913 0.88855 0.0
N425 N 0.47935 0.8154 0.03654 0.0
N426 N 0.44985 0.76488 0.89393 0.0
C427 C 0.43968 0.76611 0.01925 0.0
C428 C 0.45553 0.79346 0.09636 0.0
C429 C 0.81565 0.43114 0.24896 0.0
C430 C 0.80565 0.46534 0.19971 0.0
C431 C 0.84587 0.41321 0.20085 0.0
C432 C 0.86591 0.42883 0.10095 0.0
H433 H 0.80466 0.42181 0.33965 0.0
H434 H 0.85664 0.39035 0.25472 0.0
S435 S 0.84103 0.5104 0.90969 0.0
N436 N 0.81021 0.50779 0.02237 0.0
N437 N 0.86726 0.47479 0.93213 0.0
C438 C 0.85085 0.4584 0.03305 0.0
C439 C 0.82003 0.47635 0.08181 0.0
C440 C 0.06131 0.21704 0.06016 0.0
C441 C 1.02892 0.23647 0.04353 0.0
C442 C 0.066 0.18202 0.0072 0.0
C443 C 1.03864 0.16508 0.93455 0.0
H444 H 0.08238 0.22804 0.12044 0.0
H445 H 0.09096 0.16777 0.02592 0.0
S446 S 0.94828 0.20359 0.86886 0.0
N447 N 0.96928 0.23579 0.94772 0.0
N448 N 0.97766 0.17046 0.85361 0.0
C449 C 1.00662 0.18468 0.91487 0.0
C450 C 1.00195 0.22014 0.96749 0.0
C451 C 0.36983 1.01384 0.9447 0.0
C452 C 0.35599 1.03783 0.03787 0.0
C453 C 0.40392 1.01846 0.88929 0.0
C454 C 0.4266 0.04686 0.92687 0.0
H455 H 0.35479 0.99001 0.91921 0.0
H456 H 0.41322 0.99844 0.82125 0.0
S457 S 0.40349 0.11802 0.16507 0.0
N458 N 0.36777 0.09191 0.16184 0.0
N459 N 0.43182 0.10048 0.0607 0.0
C460 C 0.41279 0.07176 0.01734 0.0
C461 C 0.37766 0.06733 0.0719 0.0
C462 C 0.57197 0.38046 0.99997 0.0
C463 C 0.54315 0.36421 0.06553 0.0
C464 C 0.56933 0.41548 0.94645 0.0
C465 C 0.53803 0.43651 0.95865 0.0
H466 H 0.59733 0.36623 0.99303 0.0
H467 H 0.59265 0.42673 0.89995 0.0
S468 S 0.45457 0.40725 0.12053 0.0
N469 N 0.48188 0.37216 0.13723 0.0
N470 N 0.47708 0.43811 0.03933 0.0
C471 C 0.50871 0.42053 0.02192 0.0
C472 C 0.51119 0.38445 0.07432 0.0
C473 C 0.19751 0.54401 0.15522 0.0
C474 C 0.2273 0.54896 0.07449 0.0
C475 C 0.16261 0.54017 0.10464 0.0
C476 C 0.15563 0.54165 0.97061 0.0
H477 H 0.20098 0.54509 0.25913 0.0
H478 H 0.14072 0.53773 0.17202 0.0
S479 S 0.22476 0.55 0.71674 0.0
N480 N 0.24783 0.55225 0.8534 0.0
N481 N 0.18238 0.54506 0.75769 0.0
C482 C 0.18541 0.54484 0.88841 0.0
C483 C 0.22112 0.54847 0.94037 0.0
C484 C 0.06716 0.87448 0.67798 0.0
C485 C 0.04655 0.86146 0.57342 0.0
C486 C 0.0628 0.9099 0.72547 0.0
C487 C 1.03813 0.9344 0.66868 0.0
H488 H 0.08823 0.85768 0.71911 0.0
H489 H 0.0803 0.91866 0.80296 0.0
S490 S 0.97629 0.91338 0.39622 0.0
N491 N 0.99936 0.87558 0.41859 0.0
N492 N 0.99121 0.94195 0.50579 0.0
C493 C 1.01633 0.92124 0.56724 0.0
C494 C 1.02049 0.88494 0.52028 0.0
C495 C 0.7071 1.02318 0.53011 0.0
C496 C 0.72481 0.0568 0.52683 0.0
C497 C 0.67251 1.01947 0.58484 0.0
C498 C 0.65422 0.04905 0.64063 0.0
H499 H 0.71919 0.99995 0.48421 0.0
H500 H 0.65971 0.99331 0.58144 0.0
S501 S 0.6875 0.14322 0.65154 0.0
N502 N 0.72061 0.12024 0.58637 0.0
N503 N 0.65624 0.11325 0.68407 0.0
C504 C 0.6719 0.08247 0.64031 0.0
C505 C 0.70687 0.0863 0.58517 0.0
C506 C 0.56464 0.71741 0.54708 0.0
C507 C 0.5312 0.73538 0.55306 0.0
C508 C 0.56992 0.68267 0.60285 0.0
C509 C 0.54217 0.66474 0.66864 0.0
H510 H 0.58634 0.7294 0.49337 0.0
H511 H 0.59573 0.66951 0.5925 0.0
S512 S 0.4492 0.69848 0.70666 0.0
N513 N 0.46994 0.73169 0.63174 0.0
N514 N 0.47986 0.66689 0.7313 0.0
C515 C 0.50901 0.6826 0.67741 0.0
C516 C 0.50357 0.71771 0.62143 0.0
C517 C 0.87641 0.57023 0.56199 0.0
C518 C 0.8597 0.53625 0.55093 0.0
C519 C 0.91082 0.57382 0.61987 0.0
C520 C 0.92979 0.54369 0.67069 0.0
H521 H 0.86368 0.59395 0.51992 0.0
H522 H 0.92292 0.60033 0.62296 0.0
S523 S 0.89918 0.44864 0.66205 0.0
N524 N 0.86539 0.47191 0.59945 0.0
N525 N 0.92977 0.47874 0.70104 0.0
C526 C 0.91318 0.50985 0.66243 0.0
C527 C 0.87832 0.50615 0.60484 0.0
loop_
_geom_bond_atom_site_label_1
_geom_bond_atom_site_label_2
_geom_bond_distance
_geom_bond_site_symmetry_2
_ccdc_geom_bond_type
H0 C7 0.929 . S
H1 C10 0.930 . S
H2 C12 0.929 . S
H3 C4 0.969 . S
C4 H3 0.969 . S
C4 O5 1.550 . S
C4 H6 0.973 . S
O5 C4 1.550 . S
O5 C11 1.412 . S
H6 C4 0.973 . S
C7 H0 0.929 . S
C7 C8 1.400 . S
C7 C9 1.364 . S
C8 C7 1.400 . S
C8 C12 1.377 . S
C9 C7 1.364 . S
C9 C10 1.374 . S
C10 H1 0.930 . S
C10 C9 1.374 . S
C10 C11 1.383 . S
C11 O5 1.412 . S
C11 C10 1.383 . S
C11 C12 1.394 . S
C12 H2 0.929 . S
C12 C8 1.377 . S
C12 C11 1.394 . S
H13 C20 0.928 1_655 S
H14 C23 0.931 . S
H15 C25 0.928 1_655 S
H16 C17 0.969 . S
C17 H16 0.969 . S
C17 O18 1.550 1_455 S
C17 H19 0.973 1_455 S
O18 C17 1.550 1_655 S
O18 C24 1.404 1_655 S
H19 C17 0.973 1_655 S
C20 H13 0.928 1_455 S
C20 C21 1.399 . S
C20 C22 1.364 . S
C21 C20 1.399 . S
C21 C25 1.377 . S
C22 C20 1.364 . S
C22 C23 1.374 1_455 S
C23 H14 0.931 . S
C23 C22 1.374 1_655 S
C23 C24 1.382 1_655 S
C24 O18 1.404 1_455 S
C24 C23 1.382 1_455 S
C24 C25 1.394 . S
C25 H15 0.928 1_455 S
C25 C21 1.377 . S
C25 C24 1.394 . S
H26 C33 0.928 1_565 S
H27 C36 0.931 . S
H28 C38 0.929 1_565 S
H29 C30 0.969 . S
C30 H29 0.969 . S
C30 O31 1.550 1_545 S
C30 H32 0.973 1_545 S
O31 C30 1.550 1_565 S
O31 C37 1.404 1_565 S
H32 C30 0.973 1_565 S
C33 H26 0.928 1_545 S
C33 C34 1.399 . S
C33 C35 1.364 . S
C34 C33 1.399 . S
C34 C38 1.377 . S
C35 C33 1.364 . S
C35 C36 1.374 1_545 S
C36 H27 0.931 . S
C36 C35 1.374 1_565 S
C36 C37 1.382 1_565 S
C37 O31 1.404 1_545 S
C37 C36 1.382 1_545 S
C37 C38 1.394 . S
C38 H28 0.929 1_545 S
C38 C34 1.377 . S
C38 C37 1.394 . S
H39 C46 0.929 . S
H40 C49 0.930 . S
H41 C51 0.929 . S
H42 C43 0.969 . S
C43 H42 0.969 . S
C43 O44 1.550 . S
C43 H45 0.973 . S
O44 C43 1.550 . S
O44 C50 1.412 . S
H45 C43 0.973 . S
C46 H39 0.929 . S
C46 C47 1.400 . S
C46 C48 1.364 . S
C47 C46 1.400 . S
C47 C51 1.377 . S
C48 C46 1.364 . S
C48 C49 1.374 . S
C49 H40 0.930 . S
C49 C48 1.374 . S
C49 C50 1.383 . S
C50 O44 1.412 . S
C50 C49 1.383 . S
C50 C51 1.394 . S
C51 H41 0.929 . S
C51 C47 1.377 . S
C51 C50 1.394 . S
H52 C59 0.929 . S
H53 C62 0.930 . S
H54 C64 0.929 . S
H55 C56 0.969 . S
C56 H55 0.969 . S
C56 O57 1.550 . S
C56 H58 0.973 . S
O57 C56 1.550 . S
O57 C63 1.412 . S
H58 C56 0.973 . S
C59 H52 0.929 . S
C59 C60 1.400 1_554 S
C59 C61 1.364 . S
C60 C59 1.400 1_556 S
C60 C64 1.377 . S
C61 C59 1.364 . S
C61 C62 1.374 . S
C62 H53 0.930 . S
C62 C61 1.374 . S
C62 C63 1.383 . S
C63 O57 1.412 . S
C63 C62 1.383 . S
C63 C64 1.394 1_554 S
C64 H54 0.929 . S
C64 C60 1.377 . S
C64 C63 1.394 1_556 S
H65 C72 0.928 1_655 S
H66 C75 0.930 . S
H67 C77 0.928 1_655 S
H68 C69 0.969 . S
C69 H68 0.969 . S
C69 O70 1.550 1_455 S
C69 H71 0.973 1_455 S
O70 C69 1.550 1_655 S
O70 C76 1.412 1_655 S
H71 C69 0.973 1_655 S
C72 H65 0.928 1_455 S
C72 C73 1.400 1_554 S
C72 C74 1.364 . S
C73 C72 1.400 1_556 S
C73 C77 1.377 . S
C74 C72 1.364 . S
C74 C75 1.374 1_455 S
C75 H66 0.930 . S
C75 C74 1.374 1_655 S
C75 C76 1.383 1_655 S
C76 O70 1.412 1_455 S
C76 C75 1.383 1_455 S
C76 C77 1.395 1_554 S
C77 H67 0.928 1_455 S
C77 C73 1.377 . S
C77 C76 1.395 1_556 S
H78 C85 0.928 1_565 S
H79 C88 0.930 . S
H80 C90 0.928 1_565 S
H81 C82 0.969 . S
C82 H81 0.969 . S
C82 O83 1.550 1_545 S
C82 H84 0.973 1_545 S
O83 C82 1.550 1_565 S
O83 C89 1.412 1_565 S
H84 C82 0.973 1_565 S
C85 H78 0.928 1_545 S
C85 C86 1.400 1_554 S
C85 C87 1.364 . S
C86 C85 1.400 1_556 S
C86 C90 1.377 . S
C87 C85 1.364 . S
C87 C88 1.374 1_545 S
C88 H79 0.930 . S
C88 C87 1.374 1_565 S
C88 C89 1.383 1_565 S
C89 O83 1.412 1_545 S
C89 C88 1.383 1_545 S
C89 C90 1.395 1_554 S
C90 H80 0.928 1_545 S
C90 C86 1.377 . S
C90 C89 1.395 1_556 S
H91 C98 0.929 . S
H92 C101 0.930 . S
H93 C103 0.929 . S
H94 C95 0.969 . S
C95 H94 0.969 . S
C95 O96 1.550 . S
C95 H97 0.973 . S
O96 C95 1.550 . S
O96 C102 1.412 . S
H97 C95 0.973 . S
C98 H91 0.929 . S
C98 C99 1.400 1_554 S
C98 C100 1.364 . S
C99 C98 1.400 1_556 S
C99 C103 1.377 . S
C100 C98 1.364 . S
C100 C101 1.374 . S
C101 H92 0.930 . S
C101 C100 1.374 . S
C101 C102 1.383 . S
C102 O96 1.412 . S
C102 C101 1.383 . S
C102 C103 1.394 1_554 S
C103 H93 0.929 . S
C103 C99 1.377 . S
C103 C102 1.394 1_556 S
Pr104 C106 2.880 1_556 S
Pr104 O124 2.562 1_556 S
Pr104 O125 2.490 1_556 S
Pr104 O126 2.695 1_565 S
Pr104 O127 2.512 . S
Pr104 O129 2.437 . S
Pr104 O132 2.436 1_455 S
Pr104 O134 2.438 1_565 S
Pr105 C115 2.880 . S
Pr105 O126 2.436 1_655 S
Pr105 O128 2.438 1_545 S
Pr105 O130 2.562 . S
Pr105 O131 2.490 . S
Pr105 O132 2.695 1_545 S
Pr105 O133 2.512 . S
Pr105 O135 2.437 . S
C106 Pr104 2.880 1_554 S
C106 C107 1.491 . S
C106 O124 1.254 . S
C106 O125 1.225 . S
C107 C106 1.491 . S
C107 C108 1.392 . S
C107 C112 1.356 . S
C108 C107 1.392 . S
C108 C109 1.368 . S
C108 H136 0.929 . S
C109 C108 1.368 . S
C109 C110 1.386 . S
C109 H137 0.929 . S
C110 C109 1.386 . S
C110 C111 1.373 . S
C111 C110 1.373 . S
C111 C112 1.409 . S
C111 H138 0.931 . S
C112 C107 1.356 . S
C112 C111 1.409 . S
C112 H139 0.930 1_455 S
C113 O126 1.270 1_565 S
C113 O127 1.248 . S
C114 O128 1.267 . S
C114 O129 1.278 1_655 S
C115 Pr105 2.880 . S
C115 C116 1.491 . S
C115 O130 1.254 . S
C115 O131 1.225 . S
C116 C115 1.491 . S
C116 C117 1.392 . S
C116 C121 1.356 . S
C117 C116 1.392 . S
C117 C118 1.368 . S
C117 H140 0.929 . S
C118 C117 1.368 . S
C118 C119 1.386 . S
C118 H141 0.929 . S
C119 C118 1.386 . S
C119 C120 1.373 . S
C120 C119 1.373 . S
C120 C121 1.409 . S
C120 H142 0.931 . S
C121 C116 1.356 . S
C121 C120 1.409 . S
C121 H143 0.930 1_655 S
C122 O132 1.270 1_545 S
C122 O133 1.248 . S
C123 O134 1.267 . S
C123 O135 1.278 1_455 S
O124 Pr104 2.562 1_554 S
O124 C106 1.254 . S
O125 Pr104 2.490 1_554 S
O125 C106 1.225 . S
O126 Pr104 2.695 1_545 S
O126 Pr105 2.436 1_455 S
O126 C113 1.270 1_545 S
O127 Pr104 2.512 . S
O127 C113 1.248 . S
O128 Pr105 2.438 1_565 S
O128 C114 1.267 . S
O129 Pr104 2.437 . S
O129 C114 1.278 1_455 S
O130 Pr105 2.562 . S
O130 C115 1.254 . S
O131 Pr105 2.490 . S
O131 C115 1.225 . S
O132 Pr104 2.436 1_655 S
O132 Pr105 2.695 1_565 S
O132 C122 1.270 1_565 S
O133 Pr105 2.512 . S
O133 C122 1.248 . S
O134 Pr104 2.438 1_545 S
O134 C123 1.267 . S
O135 Pr105 2.437 . S
O135 C123 1.278 1_655 S
H136 C108 0.929 . S
H137 C109 0.929 . S
H138 C111 0.931 . S
H139 C112 0.930 1_655 S
H140 C117 0.929 . S
H141 C118 0.929 . S
H142 C120 0.931 . S
H143 C121 0.930 1_455 S
Pr144 C146 2.880 1_556 S
Pr144 O164 2.562 1_556 S
Pr144 O165 2.490 1_556 S
Pr144 O166 2.695 . S
Pr144 O167 2.512 . S
Pr144 O169 2.437 . S
Pr144 O172 2.436 1_545 S
Pr144 O174 2.438 . S
Pr145 C155 2.880 . S
Pr145 O166 2.436 1_565 S
Pr145 O168 2.438 . S
Pr145 O170 2.562 . S
Pr145 O171 2.490 . S
Pr145 O172 2.695 . S
Pr145 O173 2.512 . S
Pr145 O175 2.437 . S
C146 Pr144 2.880 1_554 S
C146 C147 1.491 . S
C146 O164 1.254 . S
C146 O165 1.225 . S
C147 C146 1.491 . S
C147 C148 1.392 . S
C147 C152 1.356 . S
C148 C147 1.392 . S
C148 C149 1.368 . S
C148 H176 0.929 . S
C149 C148 1.368 . S
C149 C150 1.386 . S
C149 H177 0.929 . S
C150 C149 1.386 . S
C150 C151 1.373 . S
C151 C150 1.373 . S
C151 C152 1.409 . S
C151 H178 0.926 1_545 S
C152 C147 1.356 . S
C152 C151 1.409 . S
C152 H179 0.930 1_545 S
C153 O166 1.270 . S
C153 O167 1.248 . S
C154 O168 1.267 . S
C154 O169 1.278 1_565 S
C155 Pr145 2.880 . S
C155 C156 1.491 . S
C155 O170 1.254 . S
C155 O171 1.225 . S
C156 C155 1.491 . S
C156 C157 1.392 . S
C156 C161 1.356 . S
C157 C156 1.392 . S
C157 C158 1.368 . S
C157 H180 0.929 . S
C158 C157 1.368 . S
C158 C159 1.386 . S
C158 H181 0.929 . S
C159 C158 1.386 . S
C159 C160 1.373 . S
C160 C159 1.373 . S
C160 C161 1.409 . S
C160 H182 0.920 1_565 S
C161 C156 1.356 . S
C161 C160 1.409 . S
C161 H183 0.930 1_565 S
C162 O172 1.270 . S
C162 O173 1.248 . S
C163 O174 1.267 . S
C163 O175 1.278 1_545 S
O164 Pr144 2.562 1_554 S
O164 C146 1.254 . S
O165 Pr144 2.490 1_554 S
O165 C146 1.225 . S
O166 Pr144 2.695 . S
O166 Pr145 2.436 1_545 S
O166 C153 1.270 . S
O167 Pr144 2.512 . S
O167 C153 1.248 . S
O168 Pr145 2.438 . S
O168 C154 1.267 . S
O169 Pr144 2.437 . S
O169 C154 1.278 1_545 S
O170 Pr145 2.562 . S
O170 C155 1.254 . S
O171 Pr145 2.490 . S
O171 C155 1.225 . S
O172 Pr144 2.436 1_565 S
O172 Pr145 2.695 . S
O172 C162 1.270 . S
O173 Pr145 2.512 . S
O173 C162 1.248 . S
O174 Pr144 2.438 . S
O174 C163 1.267 . S
O175 Pr145 2.437 . S
O175 C163 1.278 1_565 S
H176 C148 0.929 . S
H177 C149 0.929 . S
H178 C151 0.926 1_565 S
H179 C152 0.930 1_565 S
H180 C157 0.929 . S
H181 C158 0.929 . S
H182 C160 0.920 1_545 S
H183 C161 0.930 1_545 S
Pr184 C186 2.880 1_556 S
Pr184 O204 2.562 1_556 S
Pr184 O205 2.490 1_556 S
Pr184 O206 2.695 . S
Pr184 O207 2.512 . S
Pr184 O209 2.437 . S
Pr184 O212 2.436 . S
Pr184 O214 2.438 . S
Pr185 C195 2.880 . S
Pr185 O206 2.436 . S
Pr185 O208 2.438 . S
Pr185 O210 2.562 . S
Pr185 O211 2.490 . S
Pr185 O212 2.695 . S
Pr185 O213 2.512 . S
Pr185 O215 2.437 . S
C186 Pr184 2.880 1_554 S
C186 C187 1.491 . S
C186 O204 1.254 . S
C186 O205 1.225 . S
C187 C186 1.491 . S
C187 C188 1.392 . S
C187 C192 1.356 . S
C188 C187 1.392 . S
C188 C189 1.368 . S
C188 H216 0.929 . S
C189 C188 1.368 . S
C189 C190 1.386 . S
C189 H217 0.929 . S
C190 C189 1.386 . S
C190 C191 1.373 . S
C191 C190 1.373 . S
C191 C192 1.409 . S
C191 H218 0.931 . S
C192 C187 1.356 . S
C192 C191 1.409 . S
C192 H219 0.930 . S
C193 O206 1.270 . S
C193 O207 1.248 . S
C194 O208 1.267 . S
C194 O209 1.278 . S
C195 Pr185 2.880 . S
C195 C196 1.491 . S
C195 O210 1.254 . S
C195 O211 1.225 . S
C196 C195 1.491 . S
C196 C197 1.392 . S
C196 C201 1.356 . S
C197 C196 1.392 . S
C197 C198 1.368 . S
C197 H220 0.929 . S
C198 C197 1.368 . S
C198 C199 1.386 . S
C198 H221 0.929 . S
C199 C198 1.386 . S
C199 C200 1.373 . S
C200 C199 1.373 . S
C200 C201 1.409 . S
C200 H222 0.931 . S
C201 C196 1.356 . S
C201 C200 1.409 . S
C201 H223 0.930 . S
C202 O212 1.270 . S
C202 O213 1.248 . S
C203 O214 1.267 . S
C203 O215 1.278 . S
O204 Pr184 2.562 1_554 S
O204 C186 1.254 . S
O205 Pr184 2.490 1_554 S
O205 C186 1.225 . S
O206 Pr184 2.695 . S
O206 Pr185 2.436 . S
O206 C193 1.270 . S
O207 Pr184 2.512 . S
O207 C193 1.248 . S
O208 Pr185 2.438 . S
O208 C194 1.267 . S
O209 Pr184 2.437 . S
O209 C194 1.278 . S
O210 Pr185 2.562 . S
O210 C195 1.254 . S
O211 Pr185 2.490 . S
O211 C195 1.225 . S
O212 Pr184 2.436 . S
O212 Pr185 2.695 . S
O212 C202 1.270 . S
O213 Pr185 2.512 . S
O213 C202 1.248 . S
O214 Pr184 2.438 . S
O214 C203 1.267 . S
O215 Pr185 2.437 . S
O215 C203 1.278 . S
H216 C188 0.929 . S
H217 C189 0.929 . S
H218 C191 0.931 . S
H219 C192 0.930 . S
H220 C197 0.929 . S
H221 C198 0.929 . S
H222 C200 0.931 . S
H223 C201 0.930 . S
Pr224 C226 2.880 1_556 S
Pr224 O244 2.562 1_556 S
Pr224 O245 2.490 1_556 S
Pr224 O246 2.695 1_655 S
Pr224 O247 2.512 . S
Pr224 O249 2.437 . S
Pr224 O252 2.436 . S
Pr224 O254 2.438 1_655 S
Pr225 C235 2.880 . S
Pr225 O246 2.436 . S
Pr225 O248 2.438 1_455 S
Pr225 O250 2.562 . S
Pr225 O251 2.490 . S
Pr225 O252 2.695 1_455 S
Pr225 O253 2.512 . S
Pr225 O255 2.437 . S
C226 Pr224 2.880 1_554 S
C226 C227 1.491 . S
C226 O244 1.254 . S
C226 O245 1.225 . S
C227 C226 1.491 . S
C227 C228 1.392 . S
C227 C232 1.356 . S
C228 C227 1.392 . S
C228 C229 1.368 . S
C228 H256 0.929 . S
C229 C228 1.368 . S
C229 C230 1.386 . S
C229 H257 0.929 . S
C230 C229 1.386 . S
C230 C231 1.373 . S
C231 C230 1.373 . S
C231 C232 1.409 . S
C231 H258 0.931 . S
C232 C227 1.356 . S
C232 C231 1.409 . S
C232 H259 0.930 . S
C233 O246 1.264 1_655 S
C233 O247 1.258 . S
C234 O248 1.267 . S
C234 O249 1.278 . S
C235 Pr225 2.880 . S
C235 C236 1.491 . S
C235 O250 1.254 . S
C235 O251 1.225 . S
C236 C235 1.491 . S
C236 C237 1.392 . S
C236 C241 1.356 . S
C237 C236 1.392 . S
C237 C238 1.368 . S
C237 H260 0.929 . S
C238 C237 1.368 . S
C238 C239 1.386 . S
C238 H261 0.929 . S
C239 C238 1.386 . S
C239 C240 1.373 . S
C240 C239 1.373 . S
C240 C241 1.409 . S
C240 H262 0.931 . S
C241 C236 1.356 . S
C241 C240 1.409 . S
C241 H263 0.930 . S
C242 O252 1.262 1_455 S
C242 O253 1.262 . S
C243 O254 1.267 . S
C243 O255 1.278 . S
O244 Pr224 2.562 1_554 S
O244 C226 1.254 . S
O245 Pr224 2.490 1_554 S
O245 C226 1.225 . S
O246 Pr224 2.695 1_455 S
O246 Pr225 2.436 . S
O246 C233 1.264 1_455 S
O247 Pr224 2.512 . S
O247 C233 1.258 . S
O248 Pr225 2.438 1_655 S
O248 C234 1.267 . S
O249 Pr224 2.437 . S
O249 C234 1.278 . S
O250 Pr225 2.562 . S
O250 C235 1.254 . S
O251 Pr225 2.490 . S
O251 C235 1.225 . S
O252 Pr224 2.436 . S
O252 Pr225 2.695 1_655 S
O252 C242 1.262 1_655 S
O253 Pr225 2.512 . S
O253 C242 1.262 . S
O254 Pr224 2.438 1_455 S
O254 C243 1.267 . S
O255 Pr225 2.437 . S
O255 C243 1.278 . S
H256 C228 0.929 . S
H257 C229 0.929 . S
H258 C231 0.931 . S
H259 C232 0.930 . S
H260 C237 0.929 . S
H261 C238 0.929 . S
H262 C240 0.931 . S
H263 C241 0.930 . S
C264 C265 1.368 . S
C264 C266 1.419 . S
C264 H268 0.930 . S
C265 C264 1.368 . S
C265 C274 1.429 1_545 S
C266 C264 1.419 . S
C266 C267 1.365 . S
C266 H269 0.929 . S
C267 C266 1.365 . S
C267 C273 1.426 1_545 S
H268 C264 0.930 . S
H269 C266 0.929 . S
S270 N271 1.613 . S
S270 N272 1.610 . S
N271 S270 1.613 . S
N271 C274 1.350 . S
N272 S270 1.610 . S
N272 C273 1.351 . S
C273 C267 1.426 1_565 S
C273 N272 1.351 . S
C273 C274 1.434 . S
C274 C265 1.429 1_565 S
C274 N271 1.350 . S
C274 C273 1.434 . S
C275 C276 1.369 . S
C275 C277 1.419 . S
C275 H279 0.930 . S
C276 C275 1.369 . S
C276 C285 1.429 . S
C277 C275 1.419 . S
C277 C278 1.363 . S
C277 H280 0.929 . S
C278 C277 1.363 . S
C278 C284 1.428 . S
H279 C275 0.930 . S
H280 C277 0.929 . S
S281 N282 1.613 . S
S281 N283 1.610 . S
N282 S281 1.613 . S
N282 C285 1.350 . S
N283 S281 1.610 . S
N283 C284 1.351 . S
C284 C278 1.428 . S
C284 N283 1.351 . S
C284 C285 1.434 . S
C285 C276 1.429 . S
C285 N282 1.350 . S
C285 C284 1.434 . S
C286 C287 1.369 . S
C286 C288 1.419 . S
C286 H290 0.930 . S
C287 C286 1.369 . S
C287 C296 1.429 . S
C288 C286 1.419 . S
C288 C289 1.363 . S
C288 H291 0.929 . S
C289 C288 1.363 . S
C289 C295 1.428 . S
H290 C286 0.930 . S
H291 C288 0.929 . S
S292 N293 1.613 . S
S292 N294 1.610 . S
N293 S292 1.613 . S
N293 C296 1.350 . S
N294 S292 1.610 . S
N294 C295 1.351 . S
C295 C289 1.428 . S
C295 N294 1.351 . S
C295 C296 1.434 . S
C296 C287 1.429 . S
C296 N293 1.350 . S
C296 C295 1.434 . S
C297 C298 1.364 1_655 S
C297 C299 1.419 . S
C297 H301 0.930 . S
C298 C297 1.364 1_455 S
C298 C307 1.436 . S
C299 C297 1.419 . S
C299 C300 1.363 1_655 S
C299 H302 0.929 . S
C300 C299 1.363 1_455 S
C300 C306 1.428 . S
H301 C297 0.930 . S
H302 C299 0.929 . S
S303 N304 1.613 . S
S303 N305 1.610 . S
N304 S303 1.613 . S
N304 C307 1.350 . S
N305 S303 1.610 . S
N305 C306 1.351 . S
C306 C300 1.428 . S
C306 N305 1.351 . S
C306 C307 1.434 . S
C307 C298 1.436 . S
C307 N304 1.350 . S
C307 C306 1.434 . S
C308 C309 1.370 1_545 S
C308 C310 1.419 . S
C308 H312 0.930 . S
C309 C308 1.370 1_565 S
C309 C318 1.428 . S
C310 C308 1.419 . S
C310 C311 1.360 1_545 S
C310 H313 0.929 . S
C311 C310 1.360 1_565 S
C311 C317 1.431 . S
H312 C308 0.930 . S
H313 C310 0.929 . S
S314 N315 1.613 . S
S314 N316 1.610 . S
N315 S314 1.613 . S
N315 C318 1.350 . S
N316 S314 1.610 . S
N316 C317 1.351 . S
C317 C311 1.431 . S
C317 N316 1.351 . S
C317 C318 1.434 . S
C318 C309 1.428 . S
C318 N315 1.350 . S
C318 C317 1.434 . S
C319 C320 1.369 . S
C319 C321 1.419 . S
C319 H323 0.930 . S
C320 C319 1.369 . S
C320 C329 1.429 . S
C321 C319 1.419 . S
C321 C322 1.363 . S
C321 H324 0.929 . S
C322 C321 1.363 . S
C322 C328 1.428 . S
H323 C319 0.930 . S
H324 C321 0.929 . S
S325 N326 1.613 . S
S325 N327 1.610 . S
N326 S325 1.613 . S
N326 C329 1.350 . S
N327 S325 1.610 . S
N327 C328 1.351 . S
C328 C322 1.428 . S
C328 N327 1.351 . S
C328 C329 1.434 . S
C329 C320 1.429 . S
C329 N326 1.350 . S
C329 C328 1.434 . S
C330 C331 1.369 . S
C330 C332 1.419 . S
C330 H334 0.930 . S
C331 C330 1.369 . S
C331 C340 1.429 . S
C332 C330 1.419 . S
C332 C333 1.363 . S
C332 H335 0.929 . S
C333 C332 1.363 . S
C333 C339 1.428 . S
H334 C330 0.930 . S
H335 C332 0.929 . S
S336 N337 1.613 . S
S336 N338 1.610 . S
N337 S336 1.613 . S
N337 C340 1.350 . S
N338 S336 1.610 . S
N338 C339 1.351 . S
C339 C333 1.428 . S
C339 N338 1.351 . S
C339 C340 1.434 . S
C340 C331 1.429 . S
C340 N337 1.350 . S
C340 C339 1.434 . S
C341 C342 1.380 . S
C341 C343 1.419 . S
C341 H345 0.930 . S
C342 C341 1.380 . S
C342 C351 1.418 1_655 S
C343 C341 1.419 . S
C343 C344 1.363 . S
C343 H346 0.929 . S
C344 C343 1.363 . S
C344 C350 1.428 1_655 S
H345 C341 0.930 . S
H346 C343 0.929 . S
S347 N348 1.613 . S
S347 N349 1.610 . S
N348 S347 1.613 . S
N348 C351 1.350 . S
N349 S347 1.610 . S
N349 C350 1.351 . S
C350 C344 1.428 1_455 S
C350 N349 1.351 . S
C350 C351 1.434 . S
C351 C342 1.418 1_455 S
C351 N348 1.350 . S
C351 C350 1.434 . S
C352 C353 1.369 1_455 S
C352 C354 1.419 1_455 S
C352 H356 0.930 . S
C353 C352 1.369 1_655 S
C353 C362 1.429 . S
C354 C352 1.419 1_655 S
C354 C355 1.363 . S
C354 H357 0.929 . S
C355 C354 1.363 . S
C355 C361 1.428 . S
H356 C352 0.930 . S
H357 C354 0.929 . S
S358 N359 1.613 . S
S358 N360 1.610 . S
N359 S358 1.613 . S
N359 C362 1.350 . S
N360 S358 1.610 . S
N360 C361 1.351 . S
C361 C355 1.428 . S
C361 N360 1.351 . S
C361 C362 1.434 . S
C362 C353 1.429 . S
C362 N359 1.350 . S
C362 C361 1.434 . S
C363 C364 1.369 . S
C363 C365 1.419 . S
C363 H367 0.930 . S
C364 C363 1.369 . S
C364 C373 1.429 1_565 S
C365 C363 1.419 . S
C365 C366 1.363 . S
C365 H368 0.929 . S
C366 C365 1.363 . S
C366 C372 1.428 . S
H367 C363 0.930 . S
H368 C365 0.929 . S
S369 N370 1.613 . S
S369 N371 1.610 1_545 S
N370 S369 1.613 . S
N370 C373 1.350 . S
N371 S369 1.610 1_565 S
N371 C372 1.351 . S
C372 C366 1.428 . S
C372 N371 1.351 . S
C372 C373 1.434 1_565 S
C373 C364 1.429 1_545 S
C373 N370 1.350 . S
C373 C372 1.434 1_545 S
C374 C375 1.369 . S
C374 C376 1.419 . S
C374 H378 0.930 . S
C375 C374 1.369 . S
C375 C384 1.429 . S
C376 C374 1.419 . S
C376 C377 1.363 . S
C376 H379 0.929 . S
C377 C376 1.363 . S
C377 C383 1.428 . S
H378 C374 0.930 . S
H379 C376 0.929 . S
S380 N381 1.613 . S
S380 N382 1.610 . S
N381 S380 1.613 . S
N381 C384 1.350 . S
N382 S380 1.610 . S
N382 C383 1.351 . S
C383 C377 1.428 . S
C383 N382 1.351 . S
C383 C384 1.434 . S
C384 C375 1.429 . S
C384 N381 1.350 . S
C384 C383 1.434 . S
C385 C386 1.369 . S
C385 C387 1.419 . S
C385 H389 0.930 . S
C386 C385 1.369 . S
C386 C395 1.429 . S
C387 C385 1.419 . S
C387 C388 1.363 . S
C387 H390 0.929 . S
C388 C387 1.363 . S
C388 C394 1.428 . S
H389 C385 0.930 . S
H390 C387 0.929 . S
S391 N392 1.613 . S
S391 N393 1.610 . S
N392 S391 1.613 . S
N392 C395 1.350 . S
N393 S391 1.610 . S
N393 C394 1.351 . S
C394 C388 1.428 . S
C394 N393 1.351 . S
C394 C395 1.434 . S
C395 C386 1.429 . S
C395 N392 1.350 . S
C395 C394 1.434 . S
C396 C397 1.369 . S
C396 C398 1.419 . S
C396 H400 0.930 . S
C397 C396 1.369 . S
C397 C406 1.429 1_455 S
C398 C396 1.419 . S
C398 C399 1.363 . S
C398 H401 0.929 . S
C399 C398 1.363 . S
C399 C405 1.428 . S
H400 C396 0.930 . S
H401 C398 0.929 . S
S402 N403 1.613 . S
S402 N404 1.610 1_655 S
N403 S402 1.613 . S
N403 C406 1.350 . S
N404 S402 1.610 1_455 S
N404 C405 1.351 . S
C405 C399 1.428 . S
C405 N404 1.351 . S
C405 C406 1.434 1_455 S
C406 C397 1.429 1_655 S
C406 N403 1.350 . S
C406 C405 1.434 1_655 S
C407 C408 1.369 . S
C407 C409 1.419 . S
C407 H411 0.930 . S
C408 C407 1.369 . S
C408 C417 1.429 1_545 S
C409 C407 1.419 . S
C409 C410 1.363 . S
C409 H412 0.929 . S
C410 C409 1.363 . S
C410 C416 1.428 . S
H411 C407 0.930 . S
H412 C409 0.929 . S
S413 N414 1.613 . S
S413 N415 1.610 1_565 S
N414 S413 1.613 . S
N414 C417 1.350 . S
N415 S413 1.610 1_545 S
N415 C416 1.351 . S
C416 C410 1.428 . S
C416 N415 1.351 . S
C416 C417 1.434 1_545 S
C417 C408 1.429 1_565 S
C417 N414 1.350 . S
C417 C416 1.434 1_565 S
C418 C419 1.369 . S
C418 C420 1.419 . S
C418 H422 0.930 . S
C419 C418 1.369 . S
C419 C428 1.429 . S
C420 C418 1.419 . S
C420 C421 1.363 . S
C420 H423 0.929 . S
C421 C420 1.363 . S
C421 C427 1.428 . S
H422 C418 0.930 . S
H423 C420 0.929 . S
S424 N425 1.613 . S
S424 N426 1.610 . S
N425 S424 1.613 . S
N425 C428 1.350 . S
N426 S424 1.610 . S
N426 C427 1.351 . S
C427 C421 1.428 . S
C427 N426 1.351 . S
C427 C428 1.434 . S
C428 C419 1.429 . S
C428 N425 1.350 . S
C428 C427 1.434 . S
C429 C430 1.369 . S
C429 C431 1.419 . S
C429 H433 0.930 . S
C430 C429 1.369 . S
C430 C439 1.429 . S
C431 C429 1.419 . S
C431 C432 1.363 . S
C431 H434 0.929 . S
C432 C431 1.363 . S
C432 C438 1.428 . S
H433 C429 0.930 . S
H434 C431 0.929 . S
S435 N436 1.613 . S
S435 N437 1.610 . S
N436 S435 1.613 . S
N436 C439 1.350 . S
N437 S435 1.610 . S
N437 C438 1.351 . S
C438 C432 1.428 . S
C438 N437 1.351 . S
C438 C439 1.434 . S
C439 C430 1.429 . S
C439 N436 1.350 . S
C439 C438 1.434 . S
C440 C441 1.369 . S
C440 C442 1.419 . S
C440 H444 0.930 . S
C441 C440 1.369 . S
C441 C450 1.429 1_455 S
C442 C440 1.419 . S
C442 C443 1.363 . S
C442 H445 0.929 . S
C443 C442 1.363 . S
C443 C449 1.428 1_455 S
H444 C440 0.930 . S
H445 C442 0.929 . S
S446 N447 1.613 . S
S446 N448 1.610 . S
N447 S446 1.613 . S
N447 C450 1.350 . S
N448 S446 1.610 . S
N448 C449 1.351 . S
C449 C443 1.428 1_655 S
C449 N448 1.351 . S
C449 C450 1.434 . S
C450 C441 1.429 1_655 S
C450 N447 1.350 . S
C450 C449 1.434 . S
C451 C452 1.369 1_565 S
C451 C453 1.419 . S
C451 H455 0.930 . S
C452 C451 1.369 1_545 S
C452 C461 1.429 . S
C453 C451 1.419 . S
C453 C454 1.363 1_565 S
C453 H456 0.929 . S
C454 C453 1.363 1_545 S
C454 C460 1.428 . S
H455 C451 0.930 . S
H456 C453 0.929 . S
S457 N458 1.613 . S
S457 N459 1.610 . S
N458 S457 1.613 . S
N458 C461 1.350 1_554 S
N459 S457 1.610 . S
N459 C460 1.351 1_554 S
C460 C454 1.428 . S
C460 N459 1.351 1_556 S
C460 C461 1.434 . S
C461 C452 1.429 . S
C461 N458 1.350 1_556 S
C461 C460 1.434 . S
C462 C463 1.369 . S
C462 C464 1.419 . S
C462 H466 0.930 1_556 S
C463 C462 1.369 . S
C463 C472 1.429 . S
C464 C462 1.419 . S
C464 C465 1.363 . S
C464 H467 0.929 1_556 S
C465 C464 1.363 . S
C465 C471 1.428 . S
H466 C462 0.930 1_554 S
H467 C464 0.929 1_554 S
S468 N469 1.613 . S
S468 N470 1.610 . S
N469 S468 1.613 . S
N469 C472 1.350 . S
N470 S468 1.610 . S
N470 C471 1.351 . S
C471 C465 1.428 . S
C471 N470 1.351 . S
C471 C472 1.434 . S
C472 C463 1.429 . S
C472 N469 1.350 . S
C472 C471 1.434 . S
C473 C474 1.369 . S
C473 C475 1.419 . S
C473 H477 0.930 1_556 S
C474 C473 1.369 . S
C474 C483 1.429 . S
C475 C473 1.419 . S
C475 C476 1.363 . S
C475 H478 0.929 1_556 S
C476 C475 1.363 . S
C476 C482 1.428 . S
H477 C473 0.930 1_554 S
H478 C475 0.929 1_554 S
S479 N480 1.613 . S
S479 N481 1.610 . S
N480 S479 1.613 . S
N480 C483 1.350 . S
N481 S479 1.610 . S
N481 C482 1.351 . S
C482 C476 1.428 . S
C482 N481 1.351 . S
C482 C483 1.434 . S
C483 C474 1.429 . S
C483 N480 1.350 . S
C483 C482 1.434 . S
C484 C485 1.369 1_455 S
C484 C486 1.419 . S
C484 H488 0.930 . S
C485 C484 1.369 1_655 S
C485 C494 1.429 . S
C486 C484 1.419 . S
C486 C487 1.363 1_455 S
C486 H489 0.929 . S
C487 C486 1.363 1_655 S
C487 C493 1.428 . S
H488 C484 0.930 . S
H489 C486 0.929 . S
S490 N491 1.613 . S
S490 N492 1.610 . S
N491 S490 1.613 . S
N491 C494 1.350 . S
N492 S490 1.610 . S
N492 C493 1.351 . S
C493 C487 1.428 . S
C493 N492 1.351 . S
C493 C494 1.434 . S
C494 C485 1.429 . S
C494 N491 1.350 . S
C494 C493 1.434 . S
C495 C496 1.369 . S
C495 C497 1.419 . S
C495 H499 0.930 . S
C496 C495 1.369 . S
C496 C505 1.429 1_565 S
C497 C495 1.419 . S
C497 C498 1.363 . S
C497 H500 0.929 . S
C498 C497 1.363 . S
C498 C504 1.428 1_565 S
H499 C495 0.930 . S
H500 C497 0.929 . S
S501 N502 1.613 . S
S501 N503 1.610 . S
N502 S501 1.613 . S
N502 C505 1.350 . S
N503 S501 1.610 . S
N503 C504 1.351 . S
C504 C498 1.428 1_545 S
C504 N503 1.351 . S
C504 C505 1.434 . S
C505 C496 1.429 1_545 S
C505 N502 1.350 . S
C505 C504 1.434 . S
C506 C507 1.369 . S
C506 C508 1.419 . S
C506 H510 0.930 . S
C507 C506 1.369 . S
C507 C516 1.429 . S
C508 C506 1.419 . S
C508 C509 1.363 . S
C508 H511 0.929 . S
C509 C508 1.363 . S
C509 C515 1.428 . S
H510 C506 0.930 . S
H511 C508 0.929 . S
S512 N513 1.613 . S
S512 N514 1.610 . S
N513 S512 1.613 . S
N513 C516 1.350 . S
N514 S512 1.610 . S
N514 C515 1.351 . S
C515 C509 1.428 . S
C515 N514 1.351 . S
C515 C516 1.434 . S
C516 C507 1.429 . S
C516 N513 1.350 . S
C516 C515 1.434 . S
C517 C518 1.369 . S
C517 C519 1.419 . S
C517 H521 0.930 . S
C518 C517 1.369 . S
C518 C527 1.429 . S
C519 C517 1.419 . S
C519 C520 1.363 . S
C519 H522 0.929 . S
C520 C519 1.363 . S
C520 C526 1.428 . S
H521 C517 0.930 . S
H522 C519 0.929 . S
S523 N524 1.613 . S
S523 N525 1.610 . S
N524 S523 1.613 . S
N524 C527 1.350 . S
N525 S523 1.610 . S
N525 C526 1.351 . S
C526 C520 1.428 . S
C526 N525 1.351 . S
C526 C527 1.434 . S
C527 C518 1.429 . S
C527 N524 1.350 . S
C527 C526 1.434 . S
C265 C82 1.746 . S
C267 C113 2.179 1_545 S
C278 C153 2.198 . S
C276 C95 1.758 . S
C289 C193 2.209 . S
C287 C56 1.765 . S
C300 C233 2.191 1_455 S
C298 C69 1.771 . S
C311 C122 2.181 1_564 S
C309 C30 1.762 1_565 S
C320 C43 1.788 . S
C322 C162 2.201 1_554 S
C331 C4 1.799 . S
C333 C202 2.209 1_554 S
C342 C17 1.760 1_655 S
C344 C242 2.191 1_654 S
C355 C119 0.833 . S
C353 C74 0.834 1_655 S
C366 C159 0.820 . S
C364 C87 0.833 1_565 S
C377 C199 0.816 . S
C375 C100 0.818 . S
C386 C61 0.825 . S
C388 C239 0.808 . S
C397 C22 0.846 . S
C399 C110 0.820 . S
C410 C150 0.817 . S
C408 C35 0.844 . S
C421 C190 0.821 . S
C419 C48 0.823 . S
C430 C9 0.833 . S
C432 C230 0.810 . S
C441 C73 2.243 . S
C443 C123 2.558 . S
C452 C86 2.204 . S
C454 C163 2.524 . S
C465 C203 2.509 . S
C463 C99 2.197 . S
C476 C243 2.550 . S
C474 C60 2.233 . S
C485 C21 2.244 1_655 S
C487 C114 2.569 . S
C498 C154 2.521 . S
C496 C34 2.209 1_565 S
C509 C194 2.508 . S
C507 C47 2.194 . S
C518 C8 2.237 . S
C520 C234 2.552 . S
