# Generated by pormake.
# Topology hwx, (6,3)-cn, num edge types: 1
# Building blocks:
#     Node 0, Type 0, BuildingBlock: OJICUG_clean_sbu_0, # of connection points: 6
#     Node 1, Type 0, BuildingBlock: OJICUG_clean_sbu_0, # of connection points: 6
#     Node 2, Type 0, BuildingBlock: OJICUG_clean_sbu_0, # of connection points: 6
#     Node 3, Type 0, BuildingBlock: OJICUG_clean_sbu_0, # of connection points: 6
#     Node 4, Type 1, BuildingBlock: INOVEN_clean_linker_0, # of connection points: 3
#     Node 5, Type 1, BuildingBlock: INOVEN_clean_linker_0, # of connection points: 3
#     Node 6, Type 1, BuildingBlock: INOVEN_clean_linker_0, # of connection points: 3
#     Node 7, Type 1, BuildingBlock: INOVEN_clean_linker_0, # of connection points: 3
#     Node 8, Type 1, BuildingBlock: INOVEN_clean_linker_0, # of connection points: 3
#     Node 9, Type 1, BuildingBlock: INOVEN_clean_linker_0, # of connection points: 3
#     Node 10, Type 1, BuildingBlock: INOVEN_clean_linker_0, # of connection points: 3
#     Node 11, Type 1, BuildingBlock: INOVEN_clean_linker_0, # of connection points: 3
#     Edge 12, Type (0, 1), BuildingBlock: XIVTED_clean_linker_0, # of connection points: 2
#     Edge 13, Type (0, 1), BuildingBlock: XIVTED_clean_linker_0, # of connection points: 2
#     Edge 14, Type (0, 1), BuildingBlock: XIVTED_clean_linker_0, # of connection points: 2
#     Edge 15, Type (0, 1), BuildingBlock: XIVTED_clean_linker_0, # of connection points: 2
#     Edge 16, Type (0, 1), BuildingBlock: XIVTED_clean_linker_0, # of connection points: 2
#     Edge 17, Type (0, 1), BuildingBlock: XIVTED_clean_linker_0, # of connection points: 2
#     Edge 18, Type (0, 1), BuildingBlock: XIVTED_clean_linker_0, # of connection points: 2
#     Edge 19, Type (0, 1), BuildingBlock: XIVTED_clean_linker_0, # of connection points: 2
#     Edge 20, Type (0, 1), BuildingBlock: XIVTED_clean_linker_0, # of connection points: 2
#     Edge 21, Type (0, 1), BuildingBlock: XIVTED_clean_linker_0, # of connection points: 2
#     Edge 22, Type (0, 1), BuildingBlock: XIVTED_clean_linker_0, # of connection points: 2
#     Edge 23, Type (0, 1), BuildingBlock: XIVTED_clean_linker_0, # of connection points: 2
#     Edge 24, Type (0, 1), BuildingBlock: XIVTED_clean_linker_0, # of connection points: 2
#     Edge 25, Type (0, 1), BuildingBlock: XIVTED_clean_linker_0, # of connection points: 2
#     Edge 26, Type (0, 1), BuildingBlock: XIVTED_clean_linker_0, # of connection points: 2
#     Edge 27, Type (0, 1), BuildingBlock: XIVTED_clean_linker_0, # of connection points: 2
#     Edge 28, Type (0, 1), BuildingBlock: XIVTED_clean_linker_0, # of connection points: 2
#     Edge 29, Type (0, 1), BuildingBlock: XIVTED_clean_linker_0, # of connection points: 2
#     Edge 30, Type (0, 1), BuildingBlock: XIVTED_clean_linker_0, # of connection points: 2
#     Edge 31, Type (0, 1), BuildingBlock: XIVTED_clean_linker_0, # of connection points: 2
#     Edge 32, Type (0, 1), BuildingBlock: XIVTED_clean_linker_0, # of connection points: 2
#     Edge 33, Type (0, 1), BuildingBlock: XIVTED_clean_linker_0, # of connection points: 2
#     Edge 34, Type (0, 1), BuildingBlock: XIVTED_clean_linker_0, # of connection points: 2
#     Edge 35, Type (0, 1), BuildingBlock: XIVTED_clean_linker_0, # of connection points: 2
# Relax obj value: 0.009
# Max RMSD: 0.044
# Mean RMSD: 0.042
data_MOF--net-hwx--node1-OJICUG_clean_sbu_0--node2-INOVEN_clean_linker_0--edge1-XIVTED_clean_linker_0
_symmetry_space_group_name_H-M    P1
_symmetry_Int_Tables_number       1
_symmetry_cell_setting            triclinic
loop_
_symmetry_equiv_pos_as_xyz
'x, y, z'
_cell_length_a     53.19821
_cell_length_b     53.186521
_cell_length_c     20.495984
_cell_angle_alpha  92.281159
_cell_angle_beta   92.128529
_cell_angle_gamma 89.989361
loop_
_atom_site_label
_atom_site_type_symbol
_atom_site_fract_x
_atom_site_fract_y
_atom_site_fract_z
_atom_type_partial_charge
Sc0 Sc 0.21975 0.21639 0.09946 0.0
Sc1 Sc 0.17537 0.17854 0.00859 0.0
Sc2 Sc 0.21623 0.21843 0.92858 0.0
O3 O 0.20378 0.20441 0.01218 0.0
C4 C 0.21758 0.26736 0.02463 0.0
C5 C 0.16156 0.21334 0.13215 0.0
C6 C 0.15687 0.21777 0.9027 0.0
C7 C 0.21346 0.15748 0.11729 0.0
C8 C 0.26757 0.21131 0.00964 0.0
C9 C 0.20626 0.16077 0.88549 0.0
O10 O 0.21743 0.25545 0.07709 0.0
O11 O 0.15555 0.19799 0.08509 0.0
O12 O 0.1787 0.22656 0.89473 0.0
O13 O 0.22402 0.17859 0.13034 0.0
O14 O 0.2551 0.21188 0.95557 0.0
O15 O 0.19195 0.15617 0.93175 0.0
O16 O 0.25735 0.21349 0.06468 0.0
O17 O 0.19501 0.15463 0.07636 0.0
O18 O 0.21561 0.18235 0.87741 0.0
O19 O 0.18397 0.22094 0.14391 0.0
O20 O 0.21804 0.25639 0.9685 0.0
O21 O 0.15275 0.19971 0.93989 0.0
Sc22 Sc 0.27492 0.71773 0.44681 0.0
Sc23 Sc 0.31297 0.67633 0.53746 0.0
Sc24 Sc 0.26922 0.71597 0.61641 0.0
O25 O 0.28571 0.7033 0.53356 0.0
C26 C 0.27409 0.76676 0.54228 0.0
C27 C 0.33441 0.71488 0.43736 0.0
C28 C 0.32674 0.71068 0.66477 0.0
C29 C 0.28303 0.65975 0.40595 0.0
C30 C 0.22243 0.71242 0.51359 0.0
C31 C 0.27286 0.65687 0.63597 0.0
O32 O 0.2739 0.7557 0.48622 0.0
O33 O 0.33727 0.69653 0.47501 0.0
O34 O 0.30457 0.71921 0.67038 0.0
O35 O 0.27485 0.68172 0.3956 0.0
O36 O 0.23204 0.71439 0.57133 0.0
O37 O 0.29152 0.6533 0.5997 0.0
O38 O 0.23555 0.71242 0.46298 0.0
O39 O 0.29641 0.65451 0.45615 0.0
O40 O 0.26309 0.67839 0.64637 0.0
O41 O 0.31313 0.72459 0.42378 0.0
O42 O 0.27329 0.75496 0.59479 0.0
O43 O 0.33264 0.69505 0.61938 0.0
Sc44 Sc 0.76802 0.77299 0.9094 0.0
Sc45 Sc 0.81134 0.81322 -0.00346 0.0
Sc46 Sc 0.7733 0.77178 0.08026 0.0
O47 O 0.78424 0.78603 -0.00458 0.0
C48 C 0.72098 0.77654 0.00218 0.0
C49 C 0.7714 0.83199 0.88913 0.0
C50 C 0.78082 0.83004 0.12103 0.0
C51 C 0.82567 0.77847 0.8732 0.0
C52 C 0.77291 0.72245 0.98568 0.0
C53 C 0.83271 0.77533 0.10256 0.0
O54 O 0.73068 0.77451 0.94643 0.0
O55 O 0.78996 0.83587 0.92917 0.0
O56 O 0.77279 0.80804 0.13045 0.0
O57 O 0.80356 0.76977 0.86311 0.0
O58 O 0.77259 0.73358 0.04163 0.0
O59 O 0.83555 0.79348 0.06477 0.0
O60 O 0.77219 0.73419 0.93293 0.0
O61 O 0.83137 0.79435 0.91936 0.0
O62 O 0.81146 0.76546 0.11185 0.0
O63 O 0.76181 0.81036 0.8772 0.0
O64 O 0.73401 0.77666 0.05547 0.0
O65 O 0.79435 0.83516 0.07361 0.0
Sc66 Sc 0.71651 0.26936 0.57247 0.0
Sc67 Sc 0.6768 0.31034 0.48469 0.0
Sc68 Sc 0.71959 0.27058 0.40215 0.0
O69 O 0.70427 0.28345 0.48642 0.0
C70 C 0.76792 0.27385 0.49882 0.0
C71 C 0.71071 0.32792 0.60987 0.0
C72 C 0.71464 0.32945 0.38003 0.0
C73 C 0.65731 0.27345 0.59093 0.0
C74 C 0.71493 0.22 0.4788 0.0
C75 C 0.66127 0.27493 0.3605 0.0
O76 O 0.75551 0.27258 0.55034 0.0
O77 O 0.69473 0.33238 0.56409 0.0
O78 O 0.72431 0.30793 0.36912 0.0
O79 O 0.67894 0.2644 0.60384 0.0
O80 O 0.71672 0.23176 0.42645 0.0
O81 O 0.65598 0.29116 0.40512 0.0
O82 O 0.71473 0.23105 0.5349 0.0
O83 O 0.65354 0.29054 0.55004 0.0
O84 O 0.68333 0.26634 0.35338 0.0
O85 O 0.71972 0.30615 0.61888 0.0
O86 O 0.75755 0.27322 0.44192 0.0
O87 O 0.69691 0.33322 0.4192 0.0
H88 H 0.21355 0.49385 0.89495 0.0
H89 H 0.22967 0.56541 0.9911 0.0
H90 H 0.23194 0.49831 0.10156 0.0
N91 N 0.21854 0.46672 -0.00128 0.0
N92 N 0.2211 0.4546 0.04935 0.0
C93 C 0.21801 0.50502 0.93927 0.0
C94 C 0.22091 0.53107 0.93659 0.0
C95 C 0.22124 0.4932 -0.00116 0.0
C96 C 0.22831 0.50752 0.05598 0.0
C97 C 0.2319 0.53362 0.05327 0.0
C98 C 0.22723 0.54524 0.99377 0.0
H99 H 0.98971 0.72318 0.60906 0.0
H100 H 0.92278 0.72834 0.4859 0.0
H101 H 0.99466 0.7208 0.3994 0.0
N102 N 0.02168 0.7186 0.5141 0.0
N103 N 0.03564 0.71618 0.46671 0.0
C104 C 0.98061 0.72335 0.56088 0.0
C105 C 0.95437 0.72566 0.55426 0.0
C106 C 0.99526 0.72119 0.50541 0.0
C107 C 0.98356 0.72194 0.44269 0.0
C108 C 0.95739 0.72413 0.4358 0.0
C109 C 0.94296 0.72576 0.49152 0.0
H110 H 0.76565 0.49405 0.11992 0.0
H111 H 0.76083 0.4232 0.01192 0.0
H112 H 0.76451 0.49185 0.90935 0.0
N113 N 0.76766 0.52262 0.01851 0.0
N114 N 0.76874 0.53517 0.96859 0.0
C115 C 0.76505 0.48337 0.07372 0.0
C116 C 0.76363 0.45707 0.0728 0.0
C117 C 0.76578 0.49603 0.01517 0.0
C118 C 0.76442 0.48224 0.95496 0.0
C119 C 0.76296 0.4559 0.95373 0.0
C120 C 0.76283 0.44351 0.01276 0.0
H121 H 0.00073 0.27482 0.39762 0.0
H122 H 0.06798 0.26996 0.5195 0.0
H123 H -0.00384 0.27598 0.6072 0.0
N124 N 0.96887 0.27776 0.49286 0.0
N125 N 0.9549 0.27913 0.54038 0.0
C126 C 0.00995 0.27471 0.44567 0.0
C127 C 0.03622 0.27275 0.45189 0.0
C128 C 0.99539 0.27624 0.5013 0.0
C129 C 0.00723 0.27539 0.56384 0.0
C130 C 0.03346 0.27352 0.57046 0.0
C131 C 0.04777 0.27249 0.51443 0.0
H132 H 0.70744 0.99375 0.61882 0.0
H133 H 0.72604 0.92256 0.52765 0.0
H134 H 0.72647 0.98938 0.41616 0.0
N135 N 0.71192 0.02079 0.51564 0.0
N136 N 0.71468 0.03292 0.46562 0.0
C137 C 0.71232 0.98263 0.57564 0.0
C138 C 0.71606 0.95672 0.57949 0.0
C139 C 0.71532 0.9944 0.51651 0.0
C140 C 0.72299 0.98017 0.46116 0.0
C141 C 0.7274 0.95423 0.46523 0.0
C142 C 0.72295 0.94262 0.52398 0.0
H143 H 0.49461 0.21692 0.85239 0.0
H144 H 0.56566 0.22397 0.95806 0.0
H145 H 0.49767 0.21819 0.06303 0.0
N146 N 0.46652 0.21408 0.95503 0.0
N147 N 0.45445 0.21207 0.00554 0.0
C148 C 0.50543 0.21785 0.8983 0.0
C149 C 0.53166 0.22004 0.89847 0.0
C150 C 0.49306 0.2167 0.9573 0.0
C151 C 0.50707 0.21855 0.01709 0.0
C152 C 0.53334 0.22092 0.01754 0.0
C153 C 0.54544 0.22135 0.95805 0.0
H154 H 0.26644 0.99136 0.38732 0.0
H155 H 0.24902 0.06293 0.47811 0.0
H156 H 0.25086 -0.00324 0.59226 0.0
N157 N 0.26442 0.96498 0.49268 0.0
N158 N 0.26321 0.95331 0.54401 0.0
C159 C 0.26191 0.00263 0.43054 0.0
C160 C 0.25805 0.02851 0.42626 0.0
C161 C 0.26003 0.9912 0.49057 0.0
C162 C 0.25324 0.00569 0.54632 0.0
C163 C 0.2487 0.0316 0.54191 0.0
C164 C 0.25194 0.04286 0.48206 0.0
H165 H 0.49699 0.76871 0.17019 0.0
H166 H 0.4243 0.76028 0.07362 0.0
H167 H 0.49002 0.76686 0.95985 0.0
N168 N 0.52302 0.77145 0.06395 0.0
N169 N 0.53417 0.7732 0.01188 0.0
C170 C 0.48536 0.76748 0.12562 0.0
C171 C 0.45925 0.76494 0.12879 0.0
C172 C 0.49656 0.76859 0.065 0.0
C173 C 0.48149 0.76643 0.00698 0.0
C174 C 0.45532 0.76364 0.00981 0.0
C175 C 0.44441 0.7632 0.07093 0.0
H176 H 0.11159 0.19994 0.13047 0.0
H177 H 0.08039 0.29591 0.42678 0.0
H178 H 0.16568 0.2505 0.22821 0.0
H179 H 0.0279 0.23995 0.34695 0.0
H180 H 0.10977 0.28349 0.34272 0.0
H181 H 0.07899 0.21762 0.19969 0.0
C182 C 0.11665 0.21473 0.1664 0.0
C183 C 0.14152 0.22356 0.17386 0.0
C184 C 0.09173 0.27408 0.34304 0.0
C185 C 0.10422 0.24401 0.25268 0.0
C186 C 0.07495 0.28122 0.39088 0.0
C187 C 0.05184 0.26873 0.39415 0.0
C188 C 0.08544 0.2542 0.29827 0.0
C189 C 0.04553 0.25007 0.346 0.0
C190 C 0.09799 0.22486 0.20575 0.0
C191 C 0.14687 0.24288 0.22101 0.0
N192 N 0.06239 0.24313 0.30043 0.0
N193 N 0.1284 0.25239 0.25862 0.0
H194 H 0.28973 0.60793 0.63686 0.0
H195 H 0.19203 0.57074 0.9006 0.0
H196 H 0.22991 0.65607 0.70493 0.0
H197 H 0.25029 0.52094 0.83298 0.0
H198 H 0.20051 0.59876 0.81247 0.0
H199 H 0.27153 0.57311 0.69381 0.0
C200 C 0.27273 0.61118 0.66344 0.0
C201 C 0.26164 0.63513 0.66716 0.0
C202 C 0.21113 0.58146 0.81584 0.0
C203 C 0.24063 0.59534 0.73184 0.0
C204 C 0.20612 0.56542 0.86581 0.0
C205 C 0.22063 0.54373 0.87395 0.0
C206 C 0.23114 0.57597 0.7747 0.0
C207 C 0.23872 0.53756 0.82799 0.0
C208 C 0.26229 0.59125 0.69567 0.0
C209 C 0.23944 0.63811 0.70162 0.0
N210 N 0.24386 0.55391 0.78096 0.0
N211 N 0.22983 0.61853 0.73302 0.0
H212 H 0.88002 0.79612 0.12186 0.0
H213 H 0.91967 0.69485 0.38237 0.0
H214 H 0.83598 0.73089 0.16392 0.0
H215 H 0.96559 0.75903 0.34474 0.0
H216 H 0.89259 0.7041 0.28767 0.0
H217 H 0.91483 0.77983 0.18968 0.0
C218 C 0.87774 0.7783 0.14476 0.0
C219 C 0.85486 0.76511 0.13824 0.0
C220 C 0.9088 0.71599 0.29923 0.0
C221 C 0.89453 0.74637 0.21533 0.0
C222 C 0.92427 0.71061 0.35307 0.0
C223 C 0.94464 0.72633 0.37122 0.0
C224 C 0.91347 0.73756 0.26407 0.0
C225 C 0.94998 0.7465 0.33194 0.0
C226 C 0.89761 0.769 0.18337 0.0
C227 C 0.85304 0.74201 0.16857 0.0
N228 N 0.93417 0.75185 0.28068 0.0
N229 N 0.87249 0.73353 0.20611 0.0
H230 H 0.69328 0.3767 0.61893 0.0
H231 H 0.7895 0.41448 0.91572 0.0
H232 H 0.74967 0.32727 0.70036 0.0
H233 H 0.72899 0.46275 0.85238 0.0
H234 H 0.77898 0.38509 0.82442 0.0
H235 H 0.70916 0.41072 0.69348 0.0
C236 C 0.70899 0.37298 0.65228 0.0
C237 C 0.71995 0.34896 0.65381 0.0
C238 C 0.76813 0.40223 0.82984 0.0
C239 C 0.73832 0.38783 0.73852 0.0
C240 C 0.77422 0.41903 0.88179 0.0
C241 C 0.75991 0.44087 0.89175 0.0
C242 C 0.74742 0.40717 0.78781 0.0
C243 C 0.74046 0.44607 0.84618 0.0
C244 C 0.71807 0.39243 0.69466 0.0
C245 C 0.74037 0.34532 0.6978 0.0
N246 N 0.73452 0.42913 0.79654 0.0
N247 N 0.7488 0.36449 0.73838 0.0
H248 H 0.6637 0.23543 0.27163 0.0
H249 H 0.52478 0.25379 0.12066 0.0
H250 H 0.61218 0.29112 0.34776 0.0
H251 H 0.5767 0.19702 0.05333 0.0
H252 H 0.55437 0.265 0.21183 0.0
H253 H 0.63042 0.21909 0.19752 0.0
C254 C 0.64539 0.2443 0.27276 0.0
C255 C 0.64087 0.26491 0.31566 0.0
C256 C 0.55911 0.24986 0.17761 0.0
C257 C 0.60242 0.24608 0.23053 0.0
C258 C 0.54216 0.24333 0.12598 0.0
C259 C 0.54849 0.22465 0.07918 0.0
C260 C 0.58249 0.23761 0.18214 0.0
C261 C 0.5713 0.2118 0.08788 0.0
C262 C 0.62629 0.23483 0.23052 0.0
C263 C 0.61659 0.27532 0.31526 0.0
N264 N 0.58757 0.21869 0.13789 0.0
N265 N 0.5983 0.2659 0.27297 0.0
H266 H 0.2129 0.16502 0.75588 0.0
H267 H 0.26367 0.03023 0.67234 0.0
H268 H 0.212 0.11042 0.906 0.0
H269 H 0.21309 0.06849 0.53971 0.0
H270 H 0.25173 0.06018 0.76056 0.0
H271 H 0.22136 0.1312 0.67546 0.0
C272 C 0.21462 0.14591 0.77188 0.0
C273 C 0.2117 0.1404 0.83741 0.0
C274 C 0.24321 0.06171 0.71206 0.0
C275 C 0.22165 0.10186 0.74613 0.0
C276 C 0.2499 0.04466 0.66188 0.0
C277 C 0.23984 0.04723 0.59812 0.0
C278 C 0.22676 0.08152 0.6977 0.0
C279 C 0.22206 0.06631 0.58742 0.0
C280 C 0.21928 0.12666 0.72604 0.0
C281 C 0.21398 0.1153 0.85566 0.0
N282 N 0.21644 0.08297 0.63635 0.0
N283 N 0.21911 0.09684 0.81019 0.0
H284 H 0.33835 0.76096 0.38553 0.0
H285 H 0.46914 0.73074 0.22238 0.0
H286 H 0.38106 0.6935 0.42102 0.0
H287 H 0.42097 0.79318 0.17577 0.0
H288 H 0.44214 0.72136 0.31304 0.0
H289 H 0.37315 0.77721 0.32636 0.0
C290 C 0.35512 0.74955 0.38103 0.0
C291 C 0.35658 0.72557 0.40705 0.0
C292 C 0.43779 0.73741 0.28378 0.0
C293 C 0.39663 0.74414 0.33887 0.0
C294 C 0.45327 0.74286 0.23254 0.0
C295 C 0.447 0.76258 0.19159 0.0
C296 C 0.41605 0.75188 0.29376 0.0
C297 C 0.42621 0.77766 0.20606 0.0
C298 C 0.37507 0.75892 0.3474 0.0
C299 C 0.37904 0.71195 0.40103 0.0
N300 N 0.41132 0.77182 0.25552 0.0
N301 N 0.3981 0.72128 0.36664 0.0
H302 H 0.78778 0.88115 0.89028 0.0
H303 H 0.68784 0.91674 0.61137 0.0
H304 H 0.72824 0.83207 0.81272 0.0
H305 H 0.74583 0.96751 0.68761 0.0
H306 H 0.69732 0.88888 0.70089 0.0
H307 H 0.76881 0.91567 0.83022 0.0
C308 C 0.7707 0.87763 0.86093 0.0
C309 C 0.7599 0.85351 0.85556 0.0
C310 C 0.70766 0.90636 0.69909 0.0
C311 C 0.73799 0.89295 0.7874 0.0
C312 C 0.70206 0.92231 0.64834 0.0
C313 C 0.7162 0.94423 0.64233 0.0
C314 C 0.72789 0.91217 0.74317 0.0
C315 C 0.73452 0.95071 0.69098 0.0
C316 C 0.75981 0.89738 0.82694 0.0
C317 C 0.73757 0.85017 0.81746 0.0
N318 N 0.74025 0.93445 0.73879 0.0
N319 N 0.72751 0.86958 0.78452 0.0
H320 H 0.82233 0.74076 0.77853 0.0
H321 H 0.96242 0.7581 0.66027 0.0
H322 H 0.87493 0.79416 0.87102 0.0
H323 H 0.91004 0.70254 0.57784 0.0
H324 H 0.93231 0.76929 0.74431 0.0
H325 H 0.85541 0.72501 0.7092 0.0
C326 C 0.84082 0.74926 0.78425 0.0
C327 C 0.84573 0.769 0.83046 0.0
C328 C 0.92754 0.75444 0.70829 0.0
C329 C 0.88392 0.75085 0.751 0.0
C330 C 0.9448 0.74791 0.66072 0.0
C331 C 0.93856 0.72957 0.61173 0.0
C332 C 0.90393 0.74253 0.70659 0.0
C333 C 0.91541 0.71709 0.61415 0.0
C334 C 0.85979 0.74013 0.74475 0.0
C335 C 0.87021 0.77901 0.83587 0.0
N336 N 0.89885 0.72397 0.66033 0.0
N337 N 0.88836 0.76991 0.79634 0.0
H338 H 0.75809 0.33097 0.31377 0.0
H339 H 0.73041 0.46566 0.1699 0.0
H340 H 0.69485 0.37703 0.36903 0.0
H341 H 0.79093 0.41675 0.11176 0.0
H342 H 0.72114 0.43712 0.25708 0.0
H343 H 0.77391 0.36541 0.25264 0.0
C344 C 0.74749 0.34835 0.31308 0.0
C345 C 0.72484 0.35092 0.34569 0.0
C346 C 0.73672 0.43287 0.22595 0.0
C347 C 0.74298 0.39063 0.27547 0.0
C348 C 0.74212 0.44924 0.17665 0.0
C349 C 0.76125 0.44329 0.13339 0.0
C350 C 0.7506 0.41053 0.23167 0.0
C351 C 0.7758 0.42176 0.14369 0.0
C352 C 0.75663 0.3681 0.27834 0.0
C353 C 0.71225 0.37412 0.34405 0.0
N354 N 0.76999 0.40601 0.1913 0.0
N355 N 0.72135 0.39302 0.30881 0.0
H356 H 0.15619 0.26298 0.84468 0.0
H357 H 0.02275 0.23977 0.66277 0.0
H358 H 0.10888 0.19921 0.87892 0.0
H359 H 0.07381 0.29968 0.62267 0.0
H360 H 0.0499 0.22906 0.757 0.0
H361 H 0.12248 0.28062 0.77783 0.0
C362 C 0.13866 0.25266 0.83825 0.0
C363 C 0.13556 0.2293 0.86645 0.0
C364 C 0.05491 0.24483 0.72829 0.0
C365 C 0.09669 0.24952 0.7895 0.0
C366 C 0.03933 0.25107 0.67495 0.0
C367 C 0.04629 0.27044 0.63478 0.0
C368 C 0.07748 0.25813 0.7412 0.0
C369 C 0.06801 0.2844 0.65211 0.0
C370 C 0.11933 0.26284 0.8002 0.0
C371 C 0.11218 0.21714 0.85751 0.0
N372 N 0.08298 0.27779 0.70357 0.0
N373 N 0.09371 0.22724 0.81902 0.0
H374 H 0.27715 0.66457 0.27513 0.0
H375 H 0.21993 0.53141 0.18306 0.0
H376 H 0.27513 0.60952 0.424 0.0
H377 H 0.26741 0.57052 0.05385 0.0
H378 H 0.23438 0.5605 0.27328 0.0
H379 H 0.26666 0.63158 0.19244 0.0
C380 C 0.27444 0.64551 0.29035 0.0
C381 C 0.27704 0.63968 0.35628 0.0
C382 C 0.24167 0.56243 0.22508 0.0
C383 C 0.26477 0.602 0.26218 0.0
C384 C 0.23351 0.54588 0.17377 0.0
C385 C 0.24197 0.54895 0.11044 0.0
C386 C 0.25803 0.5822 0.21233 0.0
C387 C 0.25964 0.56799 0.10122 0.0
C388 C 0.26861 0.62671 0.2432 0.0
C389 C 0.27344 0.61465 0.37343 0.0
N390 N 0.26675 0.5841 0.15126 0.0
N391 N 0.26718 0.59665 0.32656 0.0
H392 H 0.32272 0.7473 0.76144 0.0
H393 H 0.46348 0.73199 0.90388 0.0
H394 H 0.37624 0.69586 0.6756 0.0
H395 H 0.41014 0.78559 0.98043 0.0
H396 H 0.43326 0.7207 0.81436 0.0
H397 H 0.35554 0.76296 0.83819 0.0
C398 C 0.34136 0.73922 0.75872 0.0
C399 C 0.34661 0.72006 0.71212 0.0
C400 C 0.42829 0.73513 0.85036 0.0
C401 C 0.38449 0.73812 0.80015 0.0
C402 C 0.4456 0.74172 0.90109 0.0
C403 C 0.43916 0.75956 0.94992 0.0
C404 C 0.40442 0.74646 0.84868 0.0
C405 C 0.41568 0.77143 0.94435 0.0
C406 C 0.36017 0.74829 0.8025 0.0
C407 C 0.37125 0.71055 0.71084 0.0
N408 N 0.39909 0.76451 0.89507 0.0
N409 N 0.38925 0.7196 0.75443 0.0
H410 H 0.77218 0.87988 0.09848 0.0
H411 H 0.7643 0.91888 0.47361 0.0
H412 H 0.77486 0.82624 0.25112 0.0
H413 H 0.71585 0.9554 0.33266 0.0
H414 H 0.77852 0.89022 0.38717 0.0
H415 H 0.7606 0.91293 0.17972 0.0
C416 C 0.77049 0.87514 0.14905 0.0
C417 C 0.7744 0.85036 0.16838 0.0
C418 C 0.76485 0.90459 0.37519 0.0
C419 C 0.7618 0.88779 0.26051 0.0
C420 C 0.75659 0.92087 0.42444 0.0
C421 C 0.73822 0.93908 0.41073 0.0
C422 C 0.75514 0.90674 0.3113 0.0
C423 C 0.72983 0.94147 0.34544 0.0
C424 C 0.76379 0.89389 0.19497 0.0
C425 C 0.77185 0.84507 0.23421 0.0
N426 N 0.73826 0.92529 0.29787 0.0
N427 N 0.76592 0.86369 0.27802 0.0
H428 H 0.60903 0.29203 0.59696 0.0
H429 H 0.57092 0.192 0.85621 0.0
H430 H 0.6563 0.23113 0.66163 0.0
H431 H 0.52365 0.2545 0.80451 0.0
H432 H 0.59892 0.20206 0.76931 0.0
H433 H 0.57463 0.2753 0.65886 0.0
C434 C 0.61215 0.2751 0.62376 0.0
C435 C 0.63574 0.26322 0.62495 0.0
C436 C 0.58225 0.21341 0.77611 0.0
C437 C 0.59649 0.24392 0.69516 0.0
C438 C 0.56624 0.20757 0.82546 0.0
C439 C 0.54518 0.2226 0.83754 0.0
C440 C 0.57737 0.2347 0.73921 0.0
C441 C 0.53977 0.24249 0.79643 0.0
C442 C 0.5925 0.26554 0.65894 0.0
C443 C 0.63862 0.24122 0.66011 0.0
N444 N 0.55604 0.24827 0.7496 0.0
N445 N 0.61932 0.23241 0.69399 0.0
H446 H 0.25785 0.15411 0.18735 0.0
H447 H 0.22765 0.01888 0.31834 0.0
H448 H 0.19274 0.11015 0.12206 0.0
H449 H 0.2877 0.06728 0.39414 0.0
H450 H 0.22002 0.04749 0.22864 0.0
H451 H 0.27374 0.11848 0.24679 0.0
C452 C 0.24684 0.13694 0.18549 0.0
C453 C 0.22362 0.13533 0.15072 0.0
C454 C 0.23525 0.05153 0.264 0.0
C455 C 0.24188 0.09425 0.21887 0.0
C456 C 0.23976 0.03509 0.31462 0.0
C457 C 0.2582 0.04097 0.36343 0.0
C458 C 0.24931 0.07387 0.26274 0.0
C459 C 0.27323 0.06228 0.35735 0.0
C460 C 0.25604 0.11651 0.21921 0.0
C461 C 0.21056 0.11235 0.14894 0.0
N462 N 0.26824 0.07816 0.30841 0.0
N463 N 0.21972 0.09277 0.18331 0.0
H464 H 0.21276 0.29941 0.9239 0.0
H465 H 0.22587 0.42502 0.15076 0.0
H466 H 0.221 0.29879 0.13438 0.0
H467 H 0.21147 0.42371 0.94227 0.0
H468 H 0.22393 0.37877 0.1472 0.0
H469 H 0.21225 0.34513 0.93077 0.0
C470 C 0.2145 0.30886 0.97165 0.0
C471 C 0.21704 0.29517 0.02865 0.0
C472 C 0.2211 0.38865 0.10233 0.0
C473 C 0.21642 0.34773 0.03683 0.0
C474 C 0.22219 0.41491 0.10448 0.0
C475 C 0.2189 0.42802 0.04703 0.0
C476 C 0.21676 0.37556 0.04202 0.0
C477 C 0.21418 0.41431 0.98786 0.0
C478 C 0.21413 0.33503 0.97554 0.0
C479 C 0.21904 0.30855 0.08913 0.0
N480 N 0.21334 0.38883 0.98695 0.0
N481 N 0.21877 0.33412 0.09162 0.0
H482 H 0.19371 0.70952 0.39926 0.0
H483 H 0.0632 0.71464 0.58137 0.0
H484 H 0.18783 0.71133 0.60912 0.0
H485 H 0.06813 0.71217 0.37179 0.0
H486 H 0.10896 0.71165 0.59209 0.0
H487 H 0.14786 0.7086 0.38762 0.0
C488 C 0.18283 0.70963 0.44291 0.0
C489 C 0.19472 0.71068 0.5053 0.0
C490 C 0.1001 0.71168 0.54367 0.0
C491 C 0.1422 0.70966 0.49221 0.0
C492 C 0.07398 0.71341 0.53757 0.0
C493 C 0.06207 0.71376 0.47533 0.0
C494 C 0.11436 0.71037 0.48727 0.0
C495 C 0.07684 0.71201 0.42036 0.0
C496 C 0.15663 0.70911 0.43618 0.0
C497 C 0.17957 0.71068 0.56001 0.0
N498 N 0.10228 0.71049 0.42748 0.0
N499 N 0.15414 0.71029 0.55215 0.0
H500 H 0.77319 0.69103 0.87606 0.0
H501 H 0.77154 0.5656 0.07878 0.0
H502 H 0.77463 0.69033 0.08693 0.0
H503 H 0.7702 0.5652 0.86832 0.0
H504 H 0.77393 0.61143 0.08228 0.0
H505 H 0.7734 0.64509 0.87169 0.0
C506 C 0.7736 0.68126 0.92146 0.0
C507 C 0.77377 0.69463 0.98198 0.0
C508 C 0.77316 0.60139 0.03523 0.0
C509 C 0.77399 0.64201 0.97719 0.0
C510 C 0.77178 0.57522 0.03323 0.0
C511 C 0.77058 0.56177 0.97285 0.0
C512 C 0.7733 0.61418 0.97658 0.0
C513 C 0.77104 0.5751 0.91553 0.0
C514 C 0.77372 0.65501 0.91888 0.0
C515 C 0.77439 0.68089 0.03913 0.0
N516 N 0.7723 0.60065 0.91865 0.0
N517 N 0.77441 0.65537 0.03528 0.0
H518 H 0.79735 0.27693 0.61157 0.0
H519 H 0.92697 0.27929 0.42599 0.0
H520 H 0.80181 0.2759 0.40139 0.0
H521 H 0.92255 0.28118 0.63566 0.0
H522 H 0.88104 0.27944 0.41594 0.0
H523 H 0.84307 0.27979 0.62141 0.0
C524 C 0.8079 0.27732 0.56742 0.0
C525 C 0.79564 0.27604 0.50549 0.0
C526 C 0.89006 0.2799 0.46421 0.0
C527 C 0.84811 0.27933 0.51658 0.0
C528 C 0.91627 0.27982 0.46994 0.0
C529 C 0.92837 0.28014 0.53204 0.0
C530 C 0.87595 0.28024 0.52084 0.0
C531 C 0.91371 0.28088 0.58721 0.0
C532 C 0.83404 0.27898 0.57314 0.0
C533 C 0.81039 0.27674 0.45015 0.0
N534 N 0.88822 0.28082 0.58044 0.0
N535 N 0.83584 0.27827 0.45702 0.0
H536 H 0.71851 0.18854 0.36999 0.0
H537 H 0.70215 0.06361 0.5689 0.0
H538 H 0.70692 0.18805 0.5775 0.0
H539 H 0.72103 0.0626 0.36606 0.0
H540 H 0.70023 0.10939 0.56996 0.0
H541 H 0.71619 0.14264 0.36485 0.0
C542 C 0.71543 0.17883 0.41446 0.0
C543 C 0.71308 0.19223 0.47439 0.0
C544 C 0.70472 0.09923 0.52505 0.0
C545 C 0.71034 0.13969 0.46866 0.0
C546 C 0.70578 0.07308 0.52439 0.0
C547 C 0.71192 0.05945 0.46708 0.0
C548 C 0.70986 0.11186 0.46816 0.0
C549 C 0.71632 0.07262 0.41096 0.0
C550 C 0.71412 0.15261 0.41143 0.0
C551 C 0.70903 0.17858 0.53029 0.0
N552 N 0.71532 0.09818 0.41284 0.0
N553 N 0.70784 0.15309 0.52603 0.0
H554 H 0.3008 0.20717 0.11407 0.0
H555 H 0.42272 0.21048 0.89771 0.0
H556 H 0.29761 0.20951 0.90342 0.0
H557 H 0.42582 0.20829 0.10783 0.0
H558 H 0.37686 0.20788 0.89825 0.0
H559 H 0.34652 0.20519 0.11224 0.0
C560 C 0.30967 0.20719 0.06734 0.0
C561 C 0.29526 0.20872 0.0088 0.0
C562 C 0.38752 0.20787 0.94429 0.0
C563 C 0.34775 0.20648 0.0065 0.0
C564 C 0.41369 0.20937 0.94399 0.0
C565 C 0.42789 0.20972 0.00318 0.0
C566 C 0.37554 0.20677 0.00407 0.0
C567 C 0.41534 0.20814 0.06152 0.0
C568 C 0.33582 0.20605 0.06639 0.0
C569 C 0.30789 0.20848 0.94981 0.0
N570 N 0.38983 0.20684 0.06065 0.0
N571 N 0.33341 0.20753 0.95022 0.0
H572 H 0.26916 0.79863 0.65008 0.0
H573 H 0.27647 0.92235 0.44206 0.0
H574 H 0.28098 0.79837 0.4426 0.0
H575 H 0.25953 0.92439 0.64628 0.0
H576 H 0.28151 0.87691 0.44442 0.0
H577 H 0.2688 0.84466 0.65271 0.0
C578 C 0.27179 0.8082 0.60517 0.0
C579 C 0.2749 0.79457 0.54591 0.0
C580 C 0.27675 0.88721 0.48891 0.0
C581 C 0.27451 0.84716 0.5487 0.0
C582 C 0.27388 0.91318 0.48756 0.0
C583 C 0.26739 0.92699 0.54427 0.0
C584 C 0.27307 0.87492 0.5472 0.0
C585 C 0.26444 0.91421 0.60179 0.0
C586 C 0.27155 0.83448 0.60673 0.0
C587 C 0.27829 0.80801 0.48933 0.0
N588 N 0.26717 0.88879 0.60186 0.0
N589 N 0.27793 0.83351 0.49215 0.0
H590 H 0.69235 0.77983 0.11086 0.0
H591 H 0.56108 0.77638 0.90619 0.0
H592 H 0.68632 0.77735 0.89985 0.0
H593 H 0.56748 0.77586 0.11635 0.0
H594 H 0.60706 0.77933 0.90274 0.0
H595 H 0.64658 0.78101 0.11393 0.0
C596 C 0.68145 0.7796 0.06514 0.0
C597 C 0.69327 0.77831 0.00498 0.0
C598 C 0.59841 0.77865 0.94964 0.0
C599 C 0.64078 0.77964 0.00826 0.0
C600 C 0.57228 0.77698 0.95145 0.0
C601 C 0.56067 0.77576 0.01125 0.0
C602 C 0.61296 0.77908 0.00836 0.0
C603 C 0.57575 0.77665 0.06903 0.0
C604 C 0.65528 0.78028 0.06697 0.0
C605 C 0.67809 0.77819 0.9474 0.0
N606 N 0.60115 0.77818 0.06607 0.0
N607 N 0.65264 0.77875 0.95049 0.0
loop_
_geom_bond_atom_site_label_1
_geom_bond_atom_site_label_2
_geom_bond_distance
_geom_bond_site_symmetry_2
_ccdc_geom_bond_type
Sc0 O3 2.025 . S
Sc0 O10 2.105 . S
Sc0 O13 2.105 . S
Sc0 O16 2.105 . S
Sc0 O19 2.105 . S
Sc1 O3 2.025 . S
Sc1 O11 2.105 . S
Sc1 O15 2.105 1_554 S
Sc1 O17 2.105 . S
Sc1 O21 2.105 1_554 S
Sc2 O3 2.025 1_556 S
Sc2 O12 2.105 . S
Sc2 O14 2.105 . S
Sc2 O18 2.105 . S
Sc2 O20 2.105 . S
O3 Sc0 2.025 . S
O3 Sc1 2.025 . S
O3 Sc2 2.025 1_554 S
C4 O10 1.268 . S
C4 O20 1.268 1_554 S
C5 O11 1.268 . S
C5 O19 1.268 . S
C6 O12 1.268 . S
C6 O21 1.268 . S
C7 O13 1.268 . S
C7 O17 1.268 . S
C8 O14 1.268 1_554 S
C8 O16 1.268 . S
C9 O15 1.268 . S
C9 O18 1.268 . S
O10 Sc0 2.105 . S
O10 C4 1.268 . S
O11 Sc1 2.105 . S
O11 C5 1.268 . S
O12 Sc2 2.105 . S
O12 C6 1.268 . S
O13 Sc0 2.105 . S
O13 C7 1.268 . S
O14 Sc2 2.105 . S
O14 C8 1.268 1_556 S
O15 Sc1 2.105 1_556 S
O15 C9 1.268 . S
O16 Sc0 2.105 . S
O16 C8 1.268 . S
O17 Sc1 2.105 . S
O17 C7 1.268 . S
O18 Sc2 2.105 . S
O18 C9 1.268 . S
O19 Sc0 2.105 . S
O19 C5 1.268 . S
O20 Sc2 2.105 . S
O20 C4 1.268 1_556 S
O21 Sc1 2.105 1_556 S
O21 C6 1.268 . S
Sc22 O25 2.025 . S
Sc22 O32 2.105 . S
Sc22 O35 2.105 . S
Sc22 O38 2.105 . S
Sc22 O41 2.105 . S
Sc23 O25 2.025 . S
Sc23 O33 2.105 . S
Sc23 O37 2.105 . S
Sc23 O39 2.105 . S
Sc23 O43 2.105 . S
Sc24 O25 2.025 . S
Sc24 O34 2.105 . S
Sc24 O36 2.105 . S
Sc24 O40 2.105 . S
Sc24 O42 2.105 . S
O25 Sc22 2.025 . S
O25 Sc23 2.025 . S
O25 Sc24 2.025 . S
C26 O32 1.268 . S
C26 O42 1.268 . S
C27 O33 1.268 . S
C27 O41 1.268 . S
C28 O34 1.268 . S
C28 O43 1.268 . S
C29 O35 1.268 . S
C29 O39 1.268 . S
C30 O36 1.268 . S
C30 O38 1.268 . S
C31 O37 1.268 . S
C31 O40 1.268 . S
O32 Sc22 2.105 . S
O32 C26 1.268 . S
O33 Sc23 2.105 . S
O33 C27 1.268 . S
O34 Sc24 2.105 . S
O34 C28 1.268 . S
O35 Sc22 2.105 . S
O35 C29 1.268 . S
O36 Sc24 2.105 . S
O36 C30 1.268 . S
O37 Sc23 2.105 . S
O37 C31 1.268 . S
O38 Sc22 2.105 . S
O38 C30 1.268 . S
O39 Sc23 2.105 . S
O39 C29 1.268 . S
O40 Sc24 2.105 . S
O40 C31 1.268 . S
O41 Sc22 2.105 . S
O41 C27 1.268 . S
O42 Sc24 2.105 . S
O42 C26 1.268 . S
O43 Sc23 2.105 . S
O43 C28 1.268 . S
Sc44 O47 2.025 1_556 S
Sc44 O54 2.105 . S
Sc44 O57 2.105 . S
Sc44 O60 2.105 . S
Sc44 O63 2.105 . S
Sc45 O47 2.025 . S
Sc45 O55 2.105 1_554 S
Sc45 O59 2.105 . S
Sc45 O61 2.105 1_554 S
Sc45 O65 2.105 . S
Sc46 O47 2.025 . S
Sc46 O56 2.105 . S
Sc46 O58 2.105 . S
Sc46 O62 2.105 . S
Sc46 O64 2.105 . S
O47 Sc44 2.025 1_554 S
O47 Sc45 2.025 . S
O47 Sc46 2.025 . S
C48 O54 1.268 1_554 S
C48 O64 1.268 . S
C49 O55 1.268 . S
C49 O63 1.268 . S
C50 O56 1.268 . S
C50 O65 1.268 . S
C51 O57 1.268 . S
C51 O61 1.268 . S
C52 O58 1.268 . S
C52 O60 1.268 1_554 S
C53 O59 1.268 . S
C53 O62 1.268 . S
O54 Sc44 2.105 . S
O54 C48 1.268 1_556 S
O55 Sc45 2.105 1_556 S
O55 C49 1.268 . S
O56 Sc46 2.105 . S
O56 C50 1.268 . S
O57 Sc44 2.105 . S
O57 C51 1.268 . S
O58 Sc46 2.105 . S
O58 C52 1.268 . S
O59 Sc45 2.105 . S
O59 C53 1.268 . S
O60 Sc44 2.105 . S
O60 C52 1.268 1_556 S
O61 Sc45 2.105 1_556 S
O61 C51 1.268 . S
O62 Sc46 2.105 . S
O62 C53 1.268 . S
O63 Sc44 2.105 . S
O63 C49 1.268 . S
O64 Sc46 2.105 . S
O64 C48 1.268 . S
O65 Sc45 2.105 . S
O65 C50 1.268 . S
Sc66 O69 2.025 . S
Sc66 O76 2.105 . S
Sc66 O79 2.105 . S
Sc66 O82 2.105 . S
Sc66 O85 2.105 . S
Sc67 O69 2.025 . S
Sc67 O77 2.105 . S
Sc67 O81 2.105 . S
Sc67 O83 2.105 . S
Sc67 O87 2.105 . S
Sc68 O69 2.025 . S
Sc68 O78 2.105 . S
Sc68 O80 2.105 . S
Sc68 O84 2.105 . S
Sc68 O86 2.105 . S
O69 Sc66 2.025 . S
O69 Sc67 2.025 . S
O69 Sc68 2.025 . S
C70 O76 1.268 . S
C70 O86 1.268 . S
C71 O77 1.268 . S
C71 O85 1.268 . S
C72 O78 1.268 . S
C72 O87 1.268 . S
C73 O79 1.268 . S
C73 O83 1.268 . S
C74 O80 1.268 . S
C74 O82 1.268 . S
C75 O81 1.268 . S
C75 O84 1.268 . S
O76 Sc66 2.105 . S
O76 C70 1.268 . S
O77 Sc67 2.105 . S
O77 C71 1.268 . S
O78 Sc68 2.105 . S
O78 C72 1.268 . S
O79 Sc66 2.105 . S
O79 C73 1.268 . S
O80 Sc68 2.105 . S
O80 C74 1.268 . S
O81 Sc67 2.105 . S
O81 C75 1.268 . S
O82 Sc66 2.105 . S
O82 C74 1.268 . S
O83 Sc67 2.105 . S
O83 C73 1.268 . S
O84 Sc68 2.105 . S
O84 C75 1.268 . S
O85 Sc66 2.105 . S
O85 C71 1.268 . S
O86 Sc68 2.105 . S
O86 C70 1.268 . S
O87 Sc67 2.105 . S
O87 C72 1.268 . S
H88 C93 0.929 . S
H89 C98 0.931 . S
H90 C96 0.930 . S
N91 N92 1.234 1_556 S
N91 C95 1.453 . S
N92 N91 1.234 1_554 S
C93 H88 0.929 . S
C93 C94 1.373 . S
C93 C95 1.368 . S
C94 C93 1.373 . S
C94 C98 1.397 1_556 S
C95 N91 1.453 . S
C95 C93 1.368 . S
C95 C96 1.373 1_556 S
C96 H90 0.930 . S
C96 C95 1.373 1_554 S
C96 C97 1.371 . S
C97 C96 1.371 . S
C97 C98 1.383 . S
C98 H89 0.931 . S
C98 C94 1.397 1_554 S
C98 C97 1.383 . S
H99 C104 0.929 . S
H100 C109 0.931 . S
H101 C107 0.930 . S
N102 N103 1.234 . S
N102 C106 1.453 1_455 S
N103 N102 1.234 . S
C104 H99 0.929 . S
C104 C105 1.373 . S
C104 C106 1.368 . S
C105 C104 1.373 . S
C105 C109 1.397 . S
C106 N102 1.453 1_655 S
C106 C104 1.368 . S
C106 C107 1.373 . S
C107 H101 0.930 . S
C107 C106 1.373 . S
C107 C108 1.371 . S
C108 C107 1.371 . S
C108 C109 1.383 . S
C109 H100 0.931 . S
C109 C105 1.397 . S
C109 C108 1.383 . S
H110 C115 0.929 . S
H111 C120 0.931 . S
H112 C118 0.930 . S
N113 N114 1.234 . S
N113 C117 1.453 . S
N114 N113 1.234 . S
C115 H110 0.929 . S
C115 C116 1.373 . S
C115 C117 1.368 . S
C116 C115 1.373 . S
C116 C120 1.397 . S
C117 N113 1.453 . S
C117 C115 1.368 . S
C117 C118 1.373 1_554 S
C118 H112 0.930 . S
C118 C117 1.373 1_556 S
C118 C119 1.371 . S
C119 C118 1.371 . S
C119 C120 1.383 1_556 S
C120 H111 0.931 . S
C120 C116 1.397 . S
C120 C119 1.383 1_554 S
H121 C126 0.929 . S
H122 C131 0.931 . S
H123 C129 0.930 . S
N124 N125 1.234 . S
N124 C128 1.453 1_655 S
N125 N124 1.234 . S
C126 H121 0.929 . S
C126 C127 1.373 . S
C126 C128 1.368 . S
C127 C126 1.373 . S
C127 C131 1.397 . S
C128 N124 1.453 1_455 S
C128 C126 1.368 . S
C128 C129 1.373 . S
C129 H123 0.930 . S
C129 C128 1.373 . S
C129 C130 1.371 . S
C130 C129 1.371 . S
C130 C131 1.383 . S
C131 H122 0.931 . S
C131 C127 1.397 . S
C131 C130 1.383 . S
H132 C137 0.929 . S
H133 C142 0.931 . S
H134 C140 0.930 . S
N135 N136 1.234 . S
N135 C139 1.453 1_545 S
N136 N135 1.234 . S
C137 H132 0.929 . S
C137 C138 1.373 . S
C137 C139 1.368 . S
C138 C137 1.373 . S
C138 C142 1.397 . S
C139 N135 1.453 1_565 S
C139 C137 1.368 . S
C139 C140 1.373 . S
C140 H134 0.930 . S
C140 C139 1.373 . S
C140 C141 1.371 . S
C141 C140 1.371 . S
C141 C142 1.383 . S
C142 H133 0.931 . S
C142 C138 1.397 . S
C142 C141 1.383 . S
H143 C148 0.929 . S
H144 C153 0.932 . S
H145 C151 0.930 . S
N146 N147 1.234 1_556 S
N146 C150 1.453 . S
N147 N146 1.234 1_554 S
C148 H143 0.929 . S
C148 C149 1.373 . S
C148 C150 1.368 . S
C149 C148 1.373 . S
C149 C153 1.383 1_556 S
C150 N146 1.453 . S
C150 C148 1.368 . S
C150 C151 1.373 1_556 S
C151 H145 0.930 . S
C151 C150 1.373 1_554 S
C151 C152 1.371 . S
C152 C151 1.371 . S
C152 C153 1.396 . S
C153 H144 0.932 . S
C153 C149 1.383 1_554 S
C153 C152 1.396 . S
H154 C159 0.929 . S
H155 C164 0.931 . S
H156 C162 0.938 . S
N157 N158 1.234 . S
N157 C161 1.466 . S
N158 N157 1.234 . S
C159 H154 0.929 . S
C159 C160 1.373 . S
C159 C161 1.360 1_545 S
C160 C159 1.373 . S
C160 C164 1.397 . S
C161 N157 1.466 . S
C161 C159 1.360 1_565 S
C161 C162 1.368 1_565 S
C162 H156 0.938 . S
C162 C161 1.368 1_545 S
C162 C163 1.371 . S
C163 C162 1.371 . S
C163 C164 1.383 . S
C164 H155 0.931 . S
C164 C160 1.397 . S
C164 C163 1.383 . S
H165 C170 0.929 . S
H166 C175 0.931 . S
H167 C173 0.930 . S
N168 N169 1.234 . S
N168 C172 1.453 . S
N169 N168 1.234 . S
C170 H165 0.929 . S
C170 C171 1.373 . S
C170 C172 1.368 . S
C171 C170 1.373 . S
C171 C175 1.397 . S
C172 N168 1.453 . S
C172 C170 1.368 . S
C172 C173 1.373 1_554 S
C173 H167 0.930 . S
C173 C172 1.373 1_556 S
C173 C174 1.371 . S
C174 C173 1.371 . S
C174 C175 1.383 1_556 S
C175 H166 0.931 . S
C175 C171 1.397 . S
C175 C174 1.383 1_554 S
H176 C182 0.930 . S
H177 C186 0.930 . S
H178 C191 0.929 . S
H179 C189 0.929 . S
H180 C184 0.929 . S
H181 C190 0.929 . S
C182 H176 0.930 . S
C182 C183 1.367 . S
C182 C190 1.378 . S
C183 C182 1.367 . S
C183 C191 1.433 . S
C184 H180 0.929 . S
C184 C186 1.378 . S
C184 C188 1.350 . S
C185 C188 1.463 . S
C185 C190 1.350 . S
C185 N193 1.427 . S
C186 H177 0.930 . S
C186 C184 1.378 . S
C186 C187 1.367 . S
C187 C186 1.367 . S
C187 C189 1.433 . S
C188 C184 1.350 . S
C188 C185 1.463 . S
C188 N192 1.427 . S
C189 H179 0.929 . S
C189 C187 1.433 . S
C189 N192 1.384 . S
C190 H181 0.929 . S
C190 C182 1.378 . S
C190 C185 1.350 . S
C191 H178 0.929 . S
C191 C183 1.433 . S
C191 N193 1.384 . S
N192 C188 1.427 . S
N192 C189 1.384 . S
N193 C185 1.427 . S
N193 C191 1.384 . S
H194 C200 0.930 . S
H195 C204 0.930 . S
H196 C209 0.929 . S
H197 C207 0.929 . S
H198 C202 0.929 . S
H199 C208 0.929 . S
C200 H194 0.930 . S
C200 C201 1.367 . S
C200 C208 1.378 . S
C201 C200 1.367 . S
C201 C209 1.433 . S
C202 H198 0.929 . S
C202 C204 1.378 . S
C202 C206 1.350 . S
C203 C206 1.463 . S
C203 C208 1.350 . S
C203 N211 1.427 . S
C204 H195 0.930 . S
C204 C202 1.378 . S
C204 C205 1.367 . S
C205 C204 1.367 . S
C205 C207 1.433 . S
C206 C202 1.350 . S
C206 C203 1.463 . S
C206 N210 1.427 . S
C207 H197 0.929 . S
C207 C205 1.433 . S
C207 N210 1.384 . S
C208 H199 0.929 . S
C208 C200 1.378 . S
C208 C203 1.350 . S
C209 H196 0.929 . S
C209 C201 1.433 . S
C209 N211 1.384 . S
N210 C206 1.427 . S
N210 C207 1.384 . S
N211 C203 1.427 . S
N211 C209 1.384 . S
H212 C218 0.930 . S
H213 C222 0.930 . S
H214 C227 0.929 . S
H215 C225 0.929 . S
H216 C220 0.929 . S
H217 C226 0.929 . S
C218 H212 0.930 . S
C218 C219 1.367 . S
C218 C226 1.378 . S
C219 C218 1.367 . S
C219 C227 1.433 . S
C220 H216 0.929 . S
C220 C222 1.378 . S
C220 C224 1.350 . S
C221 C224 1.463 . S
C221 C226 1.350 . S
C221 N229 1.427 . S
C222 H213 0.930 . S
C222 C220 1.378 . S
C222 C223 1.367 . S
C223 C222 1.367 . S
C223 C225 1.433 . S
C224 C220 1.350 . S
C224 C221 1.463 . S
C224 N228 1.427 . S
C225 H215 0.929 . S
C225 C223 1.433 . S
C225 N228 1.384 . S
C226 H217 0.929 . S
C226 C218 1.378 . S
C226 C221 1.350 . S
C227 H214 0.929 . S
C227 C219 1.433 . S
C227 N229 1.384 . S
N228 C224 1.427 . S
N228 C225 1.384 . S
N229 C221 1.427 . S
N229 C227 1.384 . S
H230 C236 0.930 . S
H231 C240 0.930 . S
H232 C245 0.929 . S
H233 C243 0.929 . S
H234 C238 0.929 . S
H235 C244 0.929 . S
C236 H230 0.930 . S
C236 C237 1.367 . S
C236 C244 1.378 . S
C237 C236 1.367 . S
C237 C245 1.433 . S
C238 H234 0.929 . S
C238 C240 1.378 . S
C238 C242 1.350 . S
C239 C242 1.463 . S
C239 C244 1.350 . S
C239 N247 1.427 . S
C240 H231 0.930 . S
C240 C238 1.378 . S
C240 C241 1.367 . S
C241 C240 1.367 . S
C241 C243 1.433 . S
C242 C238 1.350 . S
C242 C239 1.463 . S
C242 N246 1.427 . S
C243 H233 0.929 . S
C243 C241 1.433 . S
C243 N246 1.384 . S
C244 H235 0.929 . S
C244 C236 1.378 . S
C244 C239 1.350 . S
C245 H232 0.929 . S
C245 C237 1.433 . S
C245 N247 1.384 . S
N246 C242 1.427 . S
N246 C243 1.384 . S
N247 C239 1.427 . S
N247 C245 1.384 . S
H248 C254 0.930 . S
H249 C258 0.930 . S
H250 C263 0.929 . S
H251 C261 0.929 . S
H252 C256 0.929 . S
H253 C262 0.929 . S
C254 H248 0.930 . S
C254 C255 1.367 . S
C254 C262 1.378 . S
C255 C254 1.367 . S
C255 C263 1.433 . S
C256 H252 0.929 . S
C256 C258 1.378 . S
C256 C260 1.350 . S
C257 C260 1.463 . S
C257 C262 1.350 . S
C257 N265 1.427 . S
C258 H249 0.930 . S
C258 C256 1.378 . S
C258 C259 1.367 . S
C259 C258 1.367 . S
C259 C261 1.433 . S
C260 C256 1.350 . S
C260 C257 1.463 . S
C260 N264 1.427 . S
C261 H251 0.929 . S
C261 C259 1.433 . S
C261 N264 1.384 . S
C262 H253 0.929 . S
C262 C254 1.378 . S
C262 C257 1.350 . S
C263 H250 0.929 . S
C263 C255 1.433 . S
C263 N265 1.384 . S
N264 C260 1.427 . S
N264 C261 1.384 . S
N265 C257 1.427 . S
N265 C263 1.384 . S
H266 C272 0.930 . S
H267 C276 0.930 . S
H268 C281 0.929 . S
H269 C279 0.929 . S
H270 C274 0.929 . S
H271 C280 0.929 . S
C272 H266 0.930 . S
C272 C273 1.367 . S
C272 C280 1.378 . S
C273 C272 1.367 . S
C273 C281 1.433 . S
C274 H270 0.929 . S
C274 C276 1.378 . S
C274 C278 1.350 . S
C275 C278 1.463 . S
C275 C280 1.350 . S
C275 N283 1.427 . S
C276 H267 0.930 . S
C276 C274 1.378 . S
C276 C277 1.367 . S
C277 C276 1.367 . S
C277 C279 1.433 . S
C278 C274 1.350 . S
C278 C275 1.463 . S
C278 N282 1.427 . S
C279 H269 0.929 . S
C279 C277 1.433 . S
C279 N282 1.384 . S
C280 H271 0.929 . S
C280 C272 1.378 . S
C280 C275 1.350 . S
C281 H268 0.929 . S
C281 C273 1.433 . S
C281 N283 1.384 . S
N282 C278 1.427 . S
N282 C279 1.384 . S
N283 C275 1.427 . S
N283 C281 1.384 . S
H284 C290 0.930 . S
H285 C294 0.930 . S
H286 C299 0.929 . S
H287 C297 0.929 . S
H288 C292 0.929 . S
H289 C298 0.929 . S
C290 H284 0.930 . S
C290 C291 1.367 . S
C290 C298 1.378 . S
C291 C290 1.367 . S
C291 C299 1.433 . S
C292 H288 0.929 . S
C292 C294 1.378 . S
C292 C296 1.350 . S
C293 C296 1.463 . S
C293 C298 1.350 . S
C293 N301 1.427 . S
C294 H285 0.930 . S
C294 C292 1.378 . S
C294 C295 1.367 . S
C295 C294 1.367 . S
C295 C297 1.433 . S
C296 C292 1.350 . S
C296 C293 1.463 . S
C296 N300 1.427 . S
C297 H287 0.929 . S
C297 C295 1.433 . S
C297 N300 1.384 . S
C298 H289 0.929 . S
C298 C290 1.378 . S
C298 C293 1.350 . S
C299 H286 0.929 . S
C299 C291 1.433 . S
C299 N301 1.384 . S
N300 C296 1.427 . S
N300 C297 1.384 . S
N301 C293 1.427 . S
N301 C299 1.384 . S
H302 C308 0.930 . S
H303 C312 0.930 . S
H304 C317 0.929 . S
H305 C315 0.929 . S
H306 C310 0.929 . S
H307 C316 0.929 . S
C308 H302 0.930 . S
C308 C309 1.367 . S
C308 C316 1.378 . S
C309 C308 1.367 . S
C309 C317 1.433 . S
C310 H306 0.929 . S
C310 C312 1.378 . S
C310 C314 1.350 . S
C311 C314 1.463 . S
C311 C316 1.350 . S
C311 N319 1.427 . S
C312 H303 0.930 . S
C312 C310 1.378 . S
C312 C313 1.367 . S
C313 C312 1.367 . S
C313 C315 1.433 . S
C314 C310 1.350 . S
C314 C311 1.463 . S
C314 N318 1.427 . S
C315 H305 0.929 . S
C315 C313 1.433 . S
C315 N318 1.384 . S
C316 H307 0.929 . S
C316 C308 1.378 . S
C316 C311 1.350 . S
C317 H304 0.929 . S
C317 C309 1.433 . S
C317 N319 1.384 . S
N318 C314 1.427 . S
N318 C315 1.384 . S
N319 C311 1.427 . S
N319 C317 1.384 . S
H320 C326 0.930 . S
H321 C330 0.930 . S
H322 C335 0.929 . S
H323 C333 0.929 . S
H324 C328 0.929 . S
H325 C334 0.929 . S
C326 H320 0.930 . S
C326 C327 1.367 . S
C326 C334 1.378 . S
C327 C326 1.367 . S
C327 C335 1.433 . S
C328 H324 0.929 . S
C328 C330 1.378 . S
C328 C332 1.350 . S
C329 C332 1.463 . S
C329 C334 1.350 . S
C329 N337 1.427 . S
C330 H321 0.930 . S
C330 C328 1.378 . S
C330 C331 1.367 . S
C331 C330 1.367 . S
C331 C333 1.433 . S
C332 C328 1.350 . S
C332 C329 1.463 . S
C332 N336 1.427 . S
C333 H323 0.929 . S
C333 C331 1.433 . S
C333 N336 1.384 . S
C334 H325 0.929 . S
C334 C326 1.378 . S
C334 C329 1.350 . S
C335 H322 0.929 . S
C335 C327 1.433 . S
C335 N337 1.384 . S
N336 C332 1.427 . S
N336 C333 1.384 . S
N337 C329 1.427 . S
N337 C335 1.384 . S
H338 C344 0.930 . S
H339 C348 0.930 . S
H340 C353 0.929 . S
H341 C351 0.929 . S
H342 C346 0.929 . S
H343 C352 0.929 . S
C344 H338 0.930 . S
C344 C345 1.367 . S
C344 C352 1.378 . S
C345 C344 1.367 . S
C345 C353 1.433 . S
C346 H342 0.929 . S
C346 C348 1.378 . S
C346 C350 1.350 . S
C347 C350 1.463 . S
C347 C352 1.350 . S
C347 N355 1.427 . S
C348 H339 0.930 . S
C348 C346 1.378 . S
C348 C349 1.367 . S
C349 C348 1.367 . S
C349 C351 1.433 . S
C350 C346 1.350 . S
C350 C347 1.463 . S
C350 N354 1.427 . S
C351 H341 0.929 . S
C351 C349 1.433 . S
C351 N354 1.384 . S
C352 H343 0.929 . S
C352 C344 1.378 . S
C352 C347 1.350 . S
C353 H340 0.929 . S
C353 C345 1.433 . S
C353 N355 1.384 . S
N354 C350 1.427 . S
N354 C351 1.384 . S
N355 C347 1.427 . S
N355 C353 1.384 . S
H356 C362 0.930 . S
H357 C366 0.930 . S
H358 C371 0.929 . S
H359 C369 0.929 . S
H360 C364 0.929 . S
H361 C370 0.929 . S
C362 H356 0.930 . S
C362 C363 1.367 . S
C362 C370 1.378 . S
C363 C362 1.367 . S
C363 C371 1.433 . S
C364 H360 0.929 . S
C364 C366 1.378 . S
C364 C368 1.350 . S
C365 C368 1.463 . S
C365 C370 1.350 . S
C365 N373 1.427 . S
C366 H357 0.930 . S
C366 C364 1.378 . S
C366 C367 1.367 . S
C367 C366 1.367 . S
C367 C369 1.433 . S
C368 C364 1.350 . S
C368 C365 1.463 . S
C368 N372 1.427 . S
C369 H359 0.929 . S
C369 C367 1.433 . S
C369 N372 1.384 . S
C370 H361 0.929 . S
C370 C362 1.378 . S
C370 C365 1.350 . S
C371 H358 0.929 . S
C371 C363 1.433 . S
C371 N373 1.384 . S
N372 C368 1.427 . S
N372 C369 1.384 . S
N373 C365 1.427 . S
N373 C371 1.384 . S
H374 C380 0.930 . S
H375 C384 0.930 . S
H376 C389 0.929 . S
H377 C387 0.929 . S
H378 C382 0.929 . S
H379 C388 0.929 . S
C380 H374 0.930 . S
C380 C381 1.367 . S
C380 C388 1.378 . S
C381 C380 1.367 . S
C381 C389 1.433 . S
C382 H378 0.929 . S
C382 C384 1.378 . S
C382 C386 1.350 . S
C383 C386 1.463 . S
C383 C388 1.350 . S
C383 N391 1.427 . S
C384 H375 0.930 . S
C384 C382 1.378 . S
C384 C385 1.367 . S
C385 C384 1.367 . S
C385 C387 1.433 . S
C386 C382 1.350 . S
C386 C383 1.463 . S
C386 N390 1.427 . S
C387 H377 0.929 . S
C387 C385 1.433 . S
C387 N390 1.384 . S
C388 H379 0.929 . S
C388 C380 1.378 . S
C388 C383 1.350 . S
C389 H376 0.929 . S
C389 C381 1.433 . S
C389 N391 1.384 . S
N390 C386 1.427 . S
N390 C387 1.384 . S
N391 C383 1.427 . S
N391 C389 1.384 . S
H392 C398 0.930 . S
H393 C402 0.930 . S
H394 C407 0.929 . S
H395 C405 0.929 . S
H396 C400 0.929 . S
H397 C406 0.929 . S
C398 H392 0.930 . S
C398 C399 1.367 . S
C398 C406 1.378 . S
C399 C398 1.367 . S
C399 C407 1.433 . S
C400 H396 0.929 . S
C400 C402 1.378 . S
C400 C404 1.350 . S
C401 C404 1.463 . S
C401 C406 1.350 . S
C401 N409 1.427 . S
C402 H393 0.930 . S
C402 C400 1.378 . S
C402 C403 1.367 . S
C403 C402 1.367 . S
C403 C405 1.433 . S
C404 C400 1.350 . S
C404 C401 1.463 . S
C404 N408 1.427 . S
C405 H395 0.929 . S
C405 C403 1.433 . S
C405 N408 1.384 . S
C406 H397 0.929 . S
C406 C398 1.378 . S
C406 C401 1.350 . S
C407 H394 0.929 . S
C407 C399 1.433 . S
C407 N409 1.384 . S
N408 C404 1.427 . S
N408 C405 1.384 . S
N409 C401 1.427 . S
N409 C407 1.384 . S
H410 C416 0.930 . S
H411 C420 0.930 . S
H412 C425 0.929 . S
H413 C423 0.929 . S
H414 C418 0.929 . S
H415 C424 0.929 . S
C416 H410 0.930 . S
C416 C417 1.367 . S
C416 C424 1.378 . S
C417 C416 1.367 . S
C417 C425 1.433 . S
C418 H414 0.929 . S
C418 C420 1.378 . S
C418 C422 1.350 . S
C419 C422 1.463 . S
C419 C424 1.350 . S
C419 N427 1.427 . S
C420 H411 0.930 . S
C420 C418 1.378 . S
C420 C421 1.367 . S
C421 C420 1.367 . S
C421 C423 1.433 . S
C422 C418 1.350 . S
C422 C419 1.463 . S
C422 N426 1.427 . S
C423 H413 0.929 . S
C423 C421 1.433 . S
C423 N426 1.384 . S
C424 H415 0.929 . S
C424 C416 1.378 . S
C424 C419 1.350 . S
C425 H412 0.929 . S
C425 C417 1.433 . S
C425 N427 1.384 . S
N426 C422 1.427 . S
N426 C423 1.384 . S
N427 C419 1.427 . S
N427 C425 1.384 . S
H428 C434 0.930 . S
H429 C438 0.930 . S
H430 C443 0.929 . S
H431 C441 0.929 . S
H432 C436 0.929 . S
H433 C442 0.929 . S
C434 H428 0.930 . S
C434 C435 1.367 . S
C434 C442 1.378 . S
C435 C434 1.367 . S
C435 C443 1.433 . S
C436 H432 0.929 . S
C436 C438 1.378 . S
C436 C440 1.350 . S
C437 C440 1.463 . S
C437 C442 1.350 . S
C437 N445 1.427 . S
C438 H429 0.930 . S
C438 C436 1.378 . S
C438 C439 1.367 . S
C439 C438 1.367 . S
C439 C441 1.433 . S
C440 C436 1.350 . S
C440 C437 1.463 . S
C440 N444 1.427 . S
C441 H431 0.929 . S
C441 C439 1.433 . S
C441 N444 1.384 . S
C442 H433 0.929 . S
C442 C434 1.378 . S
C442 C437 1.350 . S
C443 H430 0.929 . S
C443 C435 1.433 . S
C443 N445 1.384 . S
N444 C440 1.427 . S
N444 C441 1.384 . S
N445 C437 1.427 . S
N445 C443 1.384 . S
H446 C452 0.930 . S
H447 C456 0.930 . S
H448 C461 0.929 . S
H449 C459 0.929 . S
H450 C454 0.929 . S
H451 C460 0.929 . S
C452 H446 0.930 . S
C452 C453 1.367 . S
C452 C460 1.378 . S
C453 C452 1.367 . S
C453 C461 1.433 . S
C454 H450 0.929 . S
C454 C456 1.378 . S
C454 C458 1.350 . S
C455 C458 1.463 . S
C455 C460 1.350 . S
C455 N463 1.427 . S
C456 H447 0.930 . S
C456 C454 1.378 . S
C456 C457 1.367 . S
C457 C456 1.367 . S
C457 C459 1.433 . S
C458 C454 1.350 . S
C458 C455 1.463 . S
C458 N462 1.427 . S
C459 H449 0.929 . S
C459 C457 1.433 . S
C459 N462 1.384 . S
C460 H451 0.929 . S
C460 C452 1.378 . S
C460 C455 1.350 . S
C461 H448 0.929 . S
C461 C453 1.433 . S
C461 N463 1.384 . S
N462 C458 1.427 . S
N462 C459 1.384 . S
N463 C455 1.427 . S
N463 C461 1.384 . S
H464 C470 0.930 . S
H465 C474 0.930 . S
H466 C479 0.929 . S
H467 C477 0.929 . S
H468 C472 0.929 . S
H469 C478 0.929 . S
C470 H464 0.930 . S
C470 C471 1.367 1_556 S
C470 C478 1.378 . S
C471 C470 1.367 1_554 S
C471 C479 1.433 . S
C472 H468 0.929 . S
C472 C474 1.378 . S
C472 C476 1.350 . S
C473 C476 1.463 . S
C473 C478 1.350 1_554 S
C473 N481 1.427 . S
C474 H465 0.930 . S
C474 C472 1.378 . S
C474 C475 1.367 . S
C475 C474 1.367 . S
C475 C477 1.433 1_554 S
C476 C472 1.350 . S
C476 C473 1.463 . S
C476 N480 1.427 1_554 S
C477 H467 0.929 . S
C477 C475 1.433 1_556 S
C477 N480 1.384 . S
C478 H469 0.929 . S
C478 C470 1.378 . S
C478 C473 1.350 1_556 S
C479 H466 0.929 . S
C479 C471 1.433 . S
C479 N481 1.384 . S
N480 C476 1.427 1_556 S
N480 C477 1.384 . S
N481 C473 1.427 . S
N481 C479 1.384 . S
H482 C488 0.930 . S
H483 C492 0.930 . S
H484 C497 0.929 . S
H485 C495 0.929 . S
H486 C490 0.929 . S
H487 C496 0.929 . S
C488 H482 0.930 . S
C488 C489 1.367 . S
C488 C496 1.378 . S
C489 C488 1.367 . S
C489 C497 1.433 . S
C490 H486 0.929 . S
C490 C492 1.378 . S
C490 C494 1.350 . S
C491 C494 1.463 . S
C491 C496 1.350 . S
C491 N499 1.427 . S
C492 H483 0.930 . S
C492 C490 1.378 . S
C492 C493 1.367 . S
C493 C492 1.367 . S
C493 C495 1.433 . S
C494 C490 1.350 . S
C494 C491 1.463 . S
C494 N498 1.427 . S
C495 H485 0.929 . S
C495 C493 1.433 . S
C495 N498 1.384 . S
C496 H487 0.929 . S
C496 C488 1.378 . S
C496 C491 1.350 . S
C497 H484 0.929 . S
C497 C489 1.433 . S
C497 N499 1.384 . S
N498 C494 1.427 . S
N498 C495 1.384 . S
N499 C491 1.427 . S
N499 C497 1.384 . S
H500 C506 0.930 . S
H501 C510 0.930 . S
H502 C515 0.929 . S
H503 C513 0.929 . S
H504 C508 0.929 . S
H505 C514 0.929 . S
C506 H500 0.930 . S
C506 C507 1.367 1_556 S
C506 C514 1.378 . S
C507 C506 1.367 1_554 S
C507 C515 1.433 . S
C508 H504 0.929 . S
C508 C510 1.378 . S
C508 C512 1.350 . S
C509 C512 1.463 . S
C509 C514 1.350 1_554 S
C509 N517 1.427 . S
C510 H501 0.930 . S
C510 C508 1.378 . S
C510 C511 1.367 . S
C511 C510 1.367 . S
C511 C513 1.433 1_554 S
C512 C508 1.350 . S
C512 C509 1.463 . S
C512 N516 1.427 1_554 S
C513 H503 0.929 . S
C513 C511 1.433 1_556 S
C513 N516 1.384 . S
C514 H505 0.929 . S
C514 C506 1.378 . S
C514 C509 1.350 1_556 S
C515 H502 0.929 . S
C515 C507 1.433 . S
C515 N517 1.384 . S
N516 C512 1.427 1_556 S
N516 C513 1.384 . S
N517 C509 1.427 . S
N517 C515 1.384 . S
H518 C524 0.930 . S
H519 C528 0.930 . S
H520 C533 0.929 . S
H521 C531 0.929 . S
H522 C526 0.929 . S
H523 C532 0.929 . S
C524 H518 0.930 . S
C524 C525 1.367 . S
C524 C532 1.378 . S
C525 C524 1.367 . S
C525 C533 1.433 . S
C526 H522 0.929 . S
C526 C528 1.378 . S
C526 C530 1.350 . S
C527 C530 1.463 . S
C527 C532 1.350 . S
C527 N535 1.427 . S
C528 H519 0.930 . S
C528 C526 1.378 . S
C528 C529 1.367 . S
C529 C528 1.367 . S
C529 C531 1.433 . S
C530 C526 1.350 . S
C530 C527 1.463 . S
C530 N534 1.427 . S
C531 H521 0.929 . S
C531 C529 1.433 . S
C531 N534 1.384 . S
C532 H523 0.929 . S
C532 C524 1.378 . S
C532 C527 1.350 . S
C533 H520 0.929 . S
C533 C525 1.433 . S
C533 N535 1.384 . S
N534 C530 1.427 . S
N534 C531 1.384 . S
N535 C527 1.427 . S
N535 C533 1.384 . S
H536 C542 0.930 . S
H537 C546 0.930 . S
H538 C551 0.929 . S
H539 C549 0.929 . S
H540 C544 0.929 . S
H541 C550 0.929 . S
C542 H536 0.930 . S
C542 C543 1.367 . S
C542 C550 1.378 . S
C543 C542 1.367 . S
C543 C551 1.433 . S
C544 H540 0.929 . S
C544 C546 1.378 . S
C544 C548 1.350 . S
C545 C548 1.463 . S
C545 C550 1.350 . S
C545 N553 1.427 . S
C546 H537 0.930 . S
C546 C544 1.378 . S
C546 C547 1.367 . S
C547 C546 1.367 . S
C547 C549 1.433 . S
C548 C544 1.350 . S
C548 C545 1.463 . S
C548 N552 1.427 . S
C549 H539 0.929 . S
C549 C547 1.433 . S
C549 N552 1.384 . S
C550 H541 0.929 . S
C550 C542 1.378 . S
C550 C545 1.350 . S
C551 H538 0.929 . S
C551 C543 1.433 . S
C551 N553 1.384 . S
N552 C548 1.427 . S
N552 C549 1.384 . S
N553 C545 1.427 . S
N553 C551 1.384 . S
H554 C560 0.930 . S
H555 C564 0.930 . S
H556 C569 0.929 . S
H557 C567 0.929 . S
H558 C562 0.929 . S
H559 C568 0.929 . S
C560 H554 0.930 . S
C560 C561 1.367 . S
C560 C568 1.378 . S
C561 C560 1.367 . S
C561 C569 1.433 1_554 S
C562 H558 0.929 . S
C562 C564 1.378 . S
C562 C566 1.350 1_556 S
C563 C566 1.463 . S
C563 C568 1.350 . S
C563 N571 1.427 1_554 S
C564 H555 0.930 . S
C564 C562 1.378 . S
C564 C565 1.367 1_556 S
C565 C564 1.367 1_554 S
C565 C567 1.433 . S
C566 C562 1.350 1_554 S
C566 C563 1.463 . S
C566 N570 1.427 . S
C567 H557 0.929 . S
C567 C565 1.433 . S
C567 N570 1.384 . S
C568 H559 0.929 . S
C568 C560 1.378 . S
C568 C563 1.350 . S
C569 H556 0.929 . S
C569 C561 1.433 1_556 S
C569 N571 1.384 . S
N570 C566 1.427 . S
N570 C567 1.384 . S
N571 C563 1.427 1_556 S
N571 C569 1.384 . S
H572 C578 0.930 . S
H573 C582 0.930 . S
H574 C587 0.929 . S
H575 C585 0.929 . S
H576 C580 0.929 . S
H577 C586 0.929 . S
C578 H572 0.930 . S
C578 C579 1.367 . S
C578 C586 1.378 . S
C579 C578 1.367 . S
C579 C587 1.433 . S
C580 H576 0.929 . S
C580 C582 1.378 . S
C580 C584 1.350 . S
C581 C584 1.463 . S
C581 C586 1.350 . S
C581 N589 1.427 . S
C582 H573 0.930 . S
C582 C580 1.378 . S
C582 C583 1.367 . S
C583 C582 1.367 . S
C583 C585 1.433 . S
C584 C580 1.350 . S
C584 C581 1.463 . S
C584 N588 1.427 . S
C585 H575 0.929 . S
C585 C583 1.433 . S
C585 N588 1.384 . S
C586 H577 0.929 . S
C586 C578 1.378 . S
C586 C581 1.350 . S
C587 H574 0.929 . S
C587 C579 1.433 . S
C587 N589 1.384 . S
N588 C584 1.427 . S
N588 C585 1.384 . S
N589 C581 1.427 . S
N589 C587 1.384 . S
H590 C596 0.930 . S
H591 C600 0.930 . S
H592 C605 0.929 . S
H593 C603 0.929 . S
H594 C598 0.929 . S
H595 C604 0.929 . S
C596 H590 0.930 . S
C596 C597 1.367 . S
C596 C604 1.378 . S
C597 C596 1.367 . S
C597 C605 1.433 1_554 S
C598 H594 0.929 . S
C598 C600 1.378 . S
C598 C602 1.350 1_556 S
C599 C602 1.463 . S
C599 C604 1.350 . S
C599 N607 1.427 1_554 S
C600 H591 0.930 . S
C600 C598 1.378 . S
C600 C601 1.367 1_556 S
C601 C600 1.367 1_554 S
C601 C603 1.433 . S
C602 C598 1.350 1_554 S
C602 C599 1.463 . S
C602 N606 1.427 . S
C603 H593 0.929 . S
C603 C601 1.433 . S
C603 N606 1.384 . S
C604 H595 0.929 . S
C604 C596 1.378 . S
C604 C599 1.350 . S
C605 H592 0.929 . S
C605 C597 1.433 1_556 S
C605 N607 1.384 . S
N606 C602 1.427 . S
N606 C603 1.384 . S
N607 C599 1.427 1_556 S
N607 C605 1.384 . S
C183 C5 1.444 . S
C187 C127 1.454 . S
C201 C31 1.457 . S
C205 C94 1.471 . S
C223 C108 1.471 . S
C219 C53 1.481 . S
C237 C71 1.467 . S
C241 C119 1.454 . S
C259 C152 1.454 . S
C255 C75 1.469 . S
C277 C163 1.473 . S
C273 C9 1.482 . S
C295 C171 1.470 . S
C291 C27 1.461 . S
C313 C138 1.454 . S
C309 C49 1.444 . S
C327 C51 1.444 . S
C331 C105 1.446 . S
C345 C72 1.459 . S
C349 C116 1.461 . S
C363 C6 1.486 . S
C367 C130 1.472 . S
C385 C97 1.464 . S
C381 C29 1.463 . S
C399 C28 1.471 . S
C403 C174 1.457 . S
C421 C141 1.466 . S
C417 C50 1.489 . S
C439 C149 1.466 . S
C435 C73 1.456 . S
C453 C7 1.446 . S
C457 C160 1.445 . S
C475 N92 1.502 . S
C471 C4 1.505 . S
C493 N103 1.512 . S
C489 C30 1.499 . S
C507 C52 1.505 . S
C511 N114 1.509 . S
C525 C70 1.498 . S
C529 N125 1.508 . S
C547 N136 1.508 . S
C543 C74 1.501 . S
C561 C8 1.503 . S
C565 N147 1.512 . S
C579 C26 1.503 . S
C583 N158 1.511 . S
C597 C48 1.500 . S
C601 N169 1.504 . S
