# Generated by pormake.
# Topology zzz, (3,6)-cn, num edge types: 1
# Building blocks:
#     Node 0, Type 0, BuildingBlock: BETDAH_clean_linker_0, # of connection points: 3
#     Node 1, Type 0, BuildingBlock: BETDAH_clean_linker_0, # of connection points: 3
#     Node 2, Type 0, BuildingBlock: BETDAH_clean_linker_0, # of connection points: 3
#     Node 3, Type 0, BuildingBlock: BETDAH_clean_linker_0, # of connection points: 3
#     Node 4, Type 0, BuildingBlock: BETDAH_clean_linker_0, # of connection points: 3
#     Node 5, Type 0, BuildingBlock: BETDAH_clean_linker_0, # of connection points: 3
#     Node 6, Type 0, BuildingBlock: BETDAH_clean_linker_0, # of connection points: 3
#     Node 7, Type 0, BuildingBlock: BETDAH_clean_linker_0, # of connection points: 3
#     Node 8, Type 1, BuildingBlock: KUMBOL_clean_sbu_1, # of connection points: 6
#     Node 9, Type 1, BuildingBlock: KUMBOL_clean_sbu_1, # of connection points: 6
#     Node 10, Type 1, BuildingBlock: KUMBOL_clean_sbu_1, # of connection points: 6
#     Node 11, Type 1, BuildingBlock: KUMBOL_clean_sbu_1, # of connection points: 6
#     Edge 12, Type (0, 1), BuildingBlock: CIFDUS_clean_linker_0, # of connection points: 2
#     Edge 13, Type (0, 1), BuildingBlock: CIFDUS_clean_linker_0, # of connection points: 2
#     Edge 14, Type (0, 1), BuildingBlock: CIFDUS_clean_linker_0, # of connection points: 2
#     Edge 15, Type (0, 1), BuildingBlock: CIFDUS_clean_linker_0, # of connection points: 2
#     Edge 16, Type (0, 1), BuildingBlock: CIFDUS_clean_linker_0, # of connection points: 2
#     Edge 17, Type (0, 1), BuildingBlock: CIFDUS_clean_linker_0, # of connection points: 2
#     Edge 18, Type (0, 1), BuildingBlock: CIFDUS_clean_linker_0, # of connection points: 2
#     Edge 19, Type (0, 1), BuildingBlock: CIFDUS_clean_linker_0, # of connection points: 2
#     Edge 20, Type (0, 1), BuildingBlock: CIFDUS_clean_linker_0, # of connection points: 2
#     Edge 21, Type (0, 1), BuildingBlock: CIFDUS_clean_linker_0, # of connection points: 2
#     Edge 22, Type (0, 1), BuildingBlock: CIFDUS_clean_linker_0, # of connection points: 2
#     Edge 23, Type (0, 1), BuildingBlock: CIFDUS_clean_linker_0, # of connection points: 2
#     Edge 24, Type (0, 1), BuildingBlock: CIFDUS_clean_linker_0, # of connection points: 2
#     Edge 25, Type (0, 1), BuildingBlock: CIFDUS_clean_linker_0, # of connection points: 2
#     Edge 26, Type (0, 1), BuildingBlock: CIFDUS_clean_linker_0, # of connection points: 2
#     Edge 27, Type (0, 1), BuildingBlock: CIFDUS_clean_linker_0, # of connection points: 2
#     Edge 28, Type (0, 1), BuildingBlock: CIFDUS_clean_linker_0, # of connection points: 2
#     Edge 29, Type (0, 1), BuildingBlock: CIFDUS_clean_linker_0, # of connection points: 2
#     Edge 30, Type (0, 1), BuildingBlock: CIFDUS_clean_linker_0, # of connection points: 2
#     Edge 31, Type (0, 1), BuildingBlock: CIFDUS_clean_linker_0, # of connection points: 2
#     Edge 32, Type (0, 1), BuildingBlock: CIFDUS_clean_linker_0, # of connection points: 2
#     Edge 33, Type (0, 1), BuildingBlock: CIFDUS_clean_linker_0, # of connection points: 2
#     Edge 34, Type (0, 1), BuildingBlock: CIFDUS_clean_linker_0, # of connection points: 2
#     Edge 35, Type (0, 1), BuildingBlock: CIFDUS_clean_linker_0, # of connection points: 2
# Relax obj value: 0.204
# Max RMSD: 0.114
# Mean RMSD: 0.084
data_MOF--net-zzz--node1-KUMBOL_clean_sbu_1--node2-BETDAH_clean_linker_0--edge1-CIFDUS_clean_linker_0
_symmetry_space_group_name_H-M    P1
_symmetry_Int_Tables_number       1
_symmetry_cell_setting            triclinic
loop_
_symmetry_equiv_pos_as_xyz
'x, y, z'
_cell_length_a     43.467698
_cell_length_b     43.627446
_cell_length_c     13.847152
_cell_angle_alpha  89.949669
_cell_angle_beta   89.907035
_cell_angle_gamma 90.259817
loop_
_atom_site_label
_atom_site_type_symbol
_atom_site_fract_x
_atom_site_fract_y
_atom_site_fract_z
_atom_type_partial_charge
H0 H 0.82472 0.60115 0.37278 0.0
H1 H 0.73504 0.5904 0.24903 0.0
H2 H 0.77162 0.52053 0.43723 0.0
C3 C 0.80308 0.58878 0.3699 0.0
C4 C 0.80104 0.56042 0.4173 0.0
C5 C 0.77966 0.59966 0.30875 0.0
C6 C 0.75265 0.58233 0.29795 0.0
C7 C 0.74937 0.55374 0.34381 0.0
C8 C 0.77376 0.54282 0.40337 0.0
N9 N 0.7226 0.53508 0.3274 0.0
C10 C 0.69916 0.54122 0.25984 0.0
H11 H 0.02734 0.85911 0.2526 0.0
H12 H 1.02034 0.76733 0.14601 0.0
H13 H 1.01025 0.78496 0.45184 0.0
C14 C 0.02347 0.83495 0.26718 0.0
C15 C 1.01907 0.82506 0.36254 0.0
C16 C 0.02372 0.8142 0.19012 0.0
C17 C 1.01943 0.78294 0.20674 0.0
C18 C 1.01422 0.77189 0.30062 0.0
C19 C 1.01387 0.79321 0.37891 0.0
N20 N 1.00992 0.73967 0.3172 0.0
C21 C 1.00923 0.71721 0.24398 0.0
H22 H 0.72294 0.98514 0.34046 0.0
H23 H 0.81009 0.99095 0.19313 0.0
H24 H 0.78545 0.05756 0.41041 0.0
C25 C 0.74568 0.99518 0.33284 0.0
C26 C 0.75172 1.02174 0.38539 0.0
C27 C 0.76596 0.98435 0.26114 0.0
C28 C 0.79461 0.99895 0.24897 0.0
C29 C 0.80244 0.02485 0.30466 0.0
C30 C 0.78051 0.03654 0.37179 0.0
N31 N 0.8313 0.04038 0.2913 0.0
C32 C 0.85241 0.03554 0.21551 0.0
H33 H 0.55795 0.70285 0.20502 0.0
H34 H 0.55391 0.79613 0.1106 0.0
H35 H 0.54477 0.77486 0.41381 0.0
C36 C 0.55574 0.72691 0.22278 0.0
C37 C 0.5512 0.73558 0.3195 0.0
C38 C 0.55623 0.74849 0.14764 0.0
C39 C 0.55345 0.77968 0.16917 0.0
C40 C 0.54942 0.78964 0.26468 0.0
C41 C 0.54844 0.76741 0.34012 0.0
N42 N 0.54537 0.8216 0.28521 0.0
C43 C 0.54538 0.84493 0.21475 0.0
H44 H 0.21094 0.52894 0.1844 0.0
H45 H 0.30284 0.51904 0.28822 0.0
H46 H 0.28059 0.49183 0.99617 0.0
C47 C 0.23439 0.52152 0.17148 0.0
C48 C 0.24247 0.50971 0.08098 0.0
C49 C 0.25629 0.52527 0.24443 0.0
C50 C 0.28664 0.51633 0.22962 0.0
C51 C 0.29596 0.50377 0.14123 0.0
C52 C 0.27372 0.50097 0.06556 0.0
N53 N 0.32727 0.49406 0.12841 0.0
C54 C 0.35028 0.49643 0.20013 0.0
H55 H 0.99162 0.22499 0.13598 0.0
H56 H 1.00757 0.30964 0.28291 0.0
H57 H 0.06484 0.2847 0.04035 0.0
C58 C 1.00393 0.24662 0.13948 0.0
C59 C 0.02829 0.25223 0.07501 0.0
C60 C 0.99642 0.26719 0.2135 0.0
C61 C 1.01337 0.29426 0.22442 0.0
C62 C 0.03809 0.30104 0.16256 0.0
C63 C 0.04565 0.27975 0.0879 0.0
N64 N 0.05585 0.32855 0.17602 0.0
C65 C 0.04954 0.35133 0.24558 0.0
H66 H 0.34641 0.05111 0.091 0.0
H67 H 0.25795 0.05775 0.22665 0.0
H68 H 0.26619 0.06299 0.91474 0.0
C69 C 0.32164 0.05365 0.08436 0.0
C70 C 0.30903 0.05684 0.99266 0.0
C71 C 0.30357 0.05485 0.16806 0.0
C72 C 0.2716 0.05739 0.16118 0.0
C73 C 0.25757 0.05997 0.06983 0.0
C74 C 0.27657 0.06005 0.98515 0.0
N75 N 0.22481 0.06307 0.06157 0.0
C76 C 0.2037 0.06402 0.13905 0.0
H77 H 0.5059 0.34512 0.19472 0.0
H78 H 0.50414 0.25206 0.28903 0.0
H79 H 0.5155 0.27233 0.98605 0.0
C80 C 0.50546 0.32098 0.17627 0.0
C81 C 0.50877 0.31203 0.07913 0.0
C82 C 0.5044 0.29939 0.25129 0.0
C83 C 0.50553 0.26823 0.22999 0.0
C84 C 0.51042 0.25797 0.13556 0.0
C85 C 0.51183 0.28004 0.05946 0.0
N86 N 0.5153 0.22592 0.11799 0.0
C87 C 0.51821 0.20386 0.19212 0.0
C88 C 0.1083 0.08952 0.88998 0.0
C89 C 0.08391 0.1038 0.0412 0.0
C90 C 0.08518 0.08495 0.95839 0.0
C91 C 0.1057 0.12731 0.05349 0.0
C92 C 0.13038 0.11298 0.90278 0.0
C93 C 0.12895 0.13177 0.98483 0.0
N94 N 0.10864 0.07166 0.80944 0.0
C95 C 0.13087 0.07542 0.74063 0.0
C96 C 0.15299 0.11719 0.83187 0.0
C97 C 0.15328 0.09828 0.75063 0.0
Gd98 Gd 1.00468 0.04541 0.61044 0.0
Gd99 Gd 0.0709 0.03318 0.80206 0.0
N100 N 0.0641 0.06213 0.94438 0.0
C101 C 0.06093 0.09833 0.10989 0.0
C102 C 0.04313 0.05544 0.01493 0.0
C103 C 0.04063 0.07389 0.09698 0.0
H104 H 0.02885 0.03542 1.01083 0.0
H105 H 0.02342 0.0688 0.15133 0.0
H106 H 0.04272 0.06051 0.39931 0.0
H107 H 0.13188 0.06036 0.6791 0.0
H108 H 0.05725 0.03255 0.25244 0.0
H109 H 0.05918 0.11232 0.17428 0.0
H110 H 0.10492 0.14205 0.11638 0.0
H111 H 0.94551 1.00686 0.70838 0.0
H112 H 0.17034 0.13495 0.8392 0.0
H113 H 0.17087 0.10116 0.69592 0.0
H114 H 0.99693 0.9406 0.26643 0.0
H115 H 0.14564 0.14997 0.99563 0.0
H116 H 0.92583 0.92935 0.52865 0.0
H117 H 0.91483 0.96018 0.67444 0.0
N118 N 0.97363 1.00209 0.58355 0.0
C119 C 0.97941 0.98607 0.50129 0.0
C120 C 0.95037 0.99349 0.64457 0.0
C121 C 0.93922 0.94985 0.5429 0.0
C122 C 0.93298 0.96716 0.62543 0.0
C123 C 0.96252 0.95928 0.47937 0.0
H124 H 0.95706 0.92182 0.37807 0.0
N125 N 1.01729 0.02324 0.45988 0.0
C126 C 1.00228 0.99658 0.43892 0.0
C127 C 0.0293 0.99317 0.2865 0.0
C128 C 1.00826 0.98062 0.35221 0.0
C129 C 0.03473 0.03727 0.39034 0.0
C130 C 0.04213 1.02192 0.30489 0.0
O131 O 0.0602 0.08282 0.76004 0.0
O132 O 1.00869 0.08079 0.73003 0.0
O133 O 0.9931 0.08674 0.53006 0.0
O134 O 0.95765 0.05411 0.56673 0.0
O135 O 0.02243 1.01799 0.85176 0.0
O136 O 0.98747 0.04687 0.76472 0.0
O137 O 1.01346 0.9969 0.66688 0.0
O138 O 0.06523 0.99676 0.68556 0.0
O139 O 0.07803 0.99524 0.90131 0.0
O140 O 0.11707 1.01916 0.84052 0.0
O141 O 0.0537 0.06134 0.56597 0.0
O142 O 0.08507 0.02783 0.64659 0.0
C143 C 0.03299 0.09582 0.76125 0.0
C144 C 0.99469 0.03012 0.84064 0.0
C145 C 0.94566 0.10637 0.58523 0.0
C146 C 0.93402 0.16067 0.59904 0.0
C147 C 0.91358 0.12507 0.71699 0.0
C148 C 0.92789 0.10081 0.66871 0.0
C149 C 0.91687 0.15508 0.68287 0.0
C150 C 0.94822 0.13633 0.55039 0.0
C151 C 0.96363 0.08182 0.53856 0.0
C152 C 0.99231 0.9533 0.33205 0.0
C153 C 0.96947 0.9427 0.39533 0.0
H154 H 0.03462 0.98159 0.21936 0.0
C155 C 0.03976 0.98249 0.6608 0.0
C156 C 0.07979 0.0459 0.57254 0.0
C157 C 0.11939 0.96524 0.8429 0.0
C158 C 0.11346 0.90992 0.82458 0.0
C159 C 0.15123 0.93726 0.72824 0.0
C160 C 0.14262 0.96485 0.7718 0.0
C161 C 0.13672 0.90983 0.75435 0.0
C162 C 0.10538 0.9376 0.86955 0.0
C163 C 0.10749 0.99435 0.88281 0.0
H164 H 0.90029 0.12063 0.78171 0.0
H165 H 0.92548 0.07789 0.69774 0.0
H166 H 0.9061 0.17378 0.7214 0.0
H167 H 0.96205 0.14091 0.48662 0.0
H168 H 0.16902 0.93721 0.67345 0.0
H169 H 0.15383 0.98583 0.74863 0.0
H170 H 0.1435 0.88867 0.71957 0.0
H171 H 0.08789 0.93768 0.92552 0.0
C172 C 0.56086 0.92934 0.6598 0.0
C173 C 0.52334 0.89556 0.73557 0.0
C174 C 0.53101 0.92391 0.69227 0.0
C175 C 0.54586 0.87281 0.74512 0.0
C176 C 0.58335 0.90621 0.66763 0.0
C177 C 0.57574 0.87809 0.71104 0.0
N178 N 0.56791 0.95715 0.62067 0.0
C179 C 0.59597 0.96187 0.57842 0.0
C180 C 0.61279 0.9119 0.63066 0.0
C181 C 0.61896 0.93968 0.58446 0.0
Gd182 Gd 0.5373 0.05535 0.81842 0.0
Gd183 Gd 0.52743 0.99287 0.6143 0.0
N184 N 0.50976 0.94664 0.68419 0.0
C185 C 0.49332 0.89103 0.76929 0.0
C186 C 0.48034 0.94198 0.71537 0.0
C187 C 0.47171 0.9143 0.75874 0.0
H188 H 0.4634 0.95944 0.70748 0.0
H189 H 0.44837 0.91096 0.7841 0.0
H190 H 0.59741 0.09516 0.73105 0.0
H191 H 0.60064 0.98227 0.53709 0.0
H192 H 0.61316 0.14925 0.71096 0.0
H193 H 0.4866 0.86965 0.8034 0.0
H194 H 0.54039 0.85101 0.77873 0.0
H195 H 0.47692 0.0557 0.96681 0.0
H196 H 0.63065 0.89471 0.63506 0.0
H197 H 0.64128 0.94385 0.55214 0.0
H198 H 0.53213 0.20613 0.8633 0.0
H199 H 0.5928 0.8602 0.71829 0.0
H200 H 0.45268 0.14904 0.02474 0.0
H201 H 0.443 0.09349 0.04673 0.0
N202 N 0.50443 0.08964 0.89766 0.0
C203 C 0.51075 0.1199 0.8873 0.0
C204 C 0.48092 0.07995 0.95591 0.0
C205 C 0.46734 0.13257 0.98879 0.0
C206 C 0.46183 0.10124 1.00151 0.0
C207 C 0.4923 0.14227 0.93216 0.0
H208 H 0.48587 0.19099 0.95474 0.0
N209 N 0.55505 0.10597 0.79979 0.0
C210 C 0.53689 0.12835 0.83654 0.0
C211 C 0.57267 0.16705 0.78074 0.0
C212 C 0.54517 0.15953 0.82809 0.0
C213 C 0.5826 0.11307 0.7576 0.0
C214 C 0.59159 0.14369 0.74612 0.0
O215 O 0.54582 0.98263 0.76488 0.0
O216 O 0.51269 1.01088 0.85051 0.0
O217 O 0.57155 0.02875 0.89396 0.0
O218 O 0.54669 0.06524 0.97043 0.0
O219 O 0.47952 1.00953 0.66447 0.0
O220 O 0.48672 0.04636 0.78495 0.0
O221 O 0.53967 0.07562 0.6666 0.0
O222 O 0.51033 0.04108 0.57984 0.0
O223 O 0.49978 0.96731 0.51163 0.0
O224 O 0.54259 0.988 0.46579 0.0
O225 O 0.58179 0.03927 0.74581 0.0
O226 O 0.56892 0.02392 0.59156 0.0
C227 C 0.5281 0.98541 0.84109 0.0
C228 C 0.46873 0.02967 0.72834 0.0
C229 C 0.58223 0.03401 0.06466 0.0
C230 C 0.61702 0.99929 0.14834 0.0
C231 C 0.58766 0.037 0.23886 0.0
C232 C 0.57456 0.04767 0.15324 0.0
C233 C 0.60875 1.01295 0.23669 0.0
C234 C 0.60339 1.0098 0.06289 0.0
C235 C 0.56562 0.0422 0.97598 0.0
C236 C 0.52623 0.18205 0.86934 0.0
C237 C 0.49988 0.17343 0.92142 0.0
H238 H 0.57981 0.19073 0.77246 0.0
C239 C 0.52399 0.06809 0.58849 0.0
C240 C 0.58936 0.03294 0.65564 0.0
C241 C 0.50186 0.98988 0.35689 0.0
C242 C 0.46136 0.02318 0.29746 0.0
C243 C 0.50466 1.0104 0.19419 0.0
C244 C 0.51711 0.99244 0.2678 0.0
C245 C 0.47703 0.02592 0.20898 0.0
C246 C 0.47372 1.00491 0.37067 0.0
C247 C 0.51714 0.97491 0.43859 0.0
H248 H 0.58149 0.04744 0.30707 0.0
H249 H 0.55781 0.06595 0.15671 0.0
H250 H 0.61934 1.00577 0.30373 0.0
H251 H 0.60924 0.9989 0.99498 0.0
H252 H 0.51656 1.01256 0.12585 0.0
H253 H 0.539 0.98122 0.25616 0.0
H254 H 0.46768 0.03969 0.151 0.0
H255 H 0.46199 1.00359 0.43974 0.0
C256 C 0.473 0.53667 0.98177 0.0
C257 C 0.4997 0.56777 0.10001 0.0
C258 C 0.49539 0.55804 1.00392 0.0
C259 C 0.4818 0.55462 0.17398 0.0
C260 C 0.45352 0.52493 0.05446 0.0
C261 C 0.45859 0.5334 0.15111 0.0
N262 N 0.4687 0.52927 0.88776 0.0
C263 C 0.4437 0.51248 0.85979 0.0
C264 C 0.42884 0.5061 0.02709 0.0
C265 C 0.42357 0.50033 0.92913 0.0
Gd266 Gd 0.56665 0.50623 0.61917 0.0
Gd267 Gd 0.50403 0.54941 0.77635 0.0
N268 N 0.51137 0.57096 0.93022 0.0
C269 C 0.52104 0.59121 0.1181 0.0
C270 C 0.53056 0.59529 0.94647 0.0
C271 C 0.53614 0.60539 0.04075 0.0
H272 H 0.54217 0.60639 0.88668 0.0
H273 H 0.55204 0.62411 0.05367 0.0
H274 H 0.54176 0.50275 0.39137 0.0
H275 H 0.43982 0.50789 0.78403 0.0
H276 H 0.5498 0.53052 0.23746 0.0
H277 H 0.52531 0.59912 0.19095 0.0
H278 H 0.48496 0.56154 0.24849 0.0
H279 H 0.62492 0.53045 0.76655 0.0
H280 H 0.41322 0.49671 0.08053 0.0
H281 H 0.40413 0.48643 0.90708 0.0
H282 H 0.62579 0.60684 0.31345 0.0
H283 H 0.44409 0.52447 0.20821 0.0
H284 H 0.66882 0.60678 0.63139 0.0
H285 H 0.66247 0.57246 0.77223 0.0
N286 N 0.60578 0.54385 0.63158 0.0
C287 C 0.61108 0.56046 0.54961 0.0
C288 C 0.6253 0.54673 0.70829 0.0
C289 C 0.65128 0.58905 0.63016 0.0
C290 C 0.6476 0.56991 0.7101 0.0
C291 C 0.63357 0.5839 0.54748 0.0
H292 H 0.65536 0.61903 0.45978 0.0
N293 N 0.57355 0.53034 0.46946 0.0
C294 C 0.5948 0.55327 0.46607 0.0
C295 C 0.58342 0.56156 0.29713 0.0
C296 C 0.60003 0.56976 0.37986 0.0
C297 C 0.55792 0.52161 0.38853 0.0
C298 C 0.56247 0.53723 0.30134 0.0
O299 O 0.50384 0.49792 0.80784 0.0
O300 O 0.54308 0.47301 0.7237 0.0
O301 O 0.57349 0.4654 0.5327 0.0
O302 O 0.61205 0.48616 0.60578 0.0
O303 O 0.55438 0.55287 0.82072 0.0
O304 O 0.57382 0.50629 0.78132 0.0
O305 O 0.54031 0.54871 0.57237 0.0
O306 O 0.54249 0.5766 0.70766 0.0
O307 O 0.47239 0.58701 0.79995 0.0
O308 O 0.47956 0.56941 0.65529 0.0
O309 O 0.51982 0.49427 0.55812 0.0
O310 O 0.48417 0.52081 0.65277 0.0
C311 C 0.51993 0.47306 0.78606 0.0
C312 C 0.57078 0.52875 0.84358 0.0
C313 C 0.60816 0.43228 0.61218 0.0
C314 C 0.59274 0.37934 0.6429 0.0
C315 C 0.63331 0.4026 0.7382 0.0
C316 C 0.63001 0.43004 0.68679 0.0
C317 C 0.6147 0.37728 0.71664 0.0
C318 C 0.59031 0.4066 0.58962 0.0
C319 C 0.60157 0.46172 0.56348 0.0
C320 C 0.62161 0.59379 0.37881 0.0
C321 C 0.63834 0.60081 0.46232 0.0
H322 H 0.58678 0.57368 0.22957 0.0
C323 C 0.5439 0.57559 0.61357 0.0
C324 C 0.49148 0.50326 0.57811 0.0
C325 C 0.47095 0.62225 0.66895 0.0
C326 C 0.49144 0.6742 0.68218 0.0
C327 C 0.462 0.65926 0.54094 0.0
C328 C 0.45822 0.62977 0.57896 0.0
C329 C 0.47838 0.68151 0.59247 0.0
C330 C 0.48765 0.64449 0.7197 0.0
C331 C 0.46748 0.59099 0.70772 0.0
H332 H 0.6501 0.40107 0.79561 0.0
H333 H 0.6442 0.44952 0.70644 0.0
H334 H 0.61729 0.3563 0.75765 0.0
H335 H 0.57412 0.40795 0.53027 0.0
H336 H 0.45223 0.66488 0.47133 0.0
H337 H 0.44553 0.61278 0.53796 0.0
H338 H 0.48103 0.70427 0.56214 0.0
H339 H 0.49727 0.63884 0.78961 0.0
C340 C 1.00077 0.43334 0.8732 0.0
C341 C 0.02708 0.42623 0.02526 0.0
C342 C 1.01589 0.44547 0.95162 0.0
C343 C 0.0242 0.3943 0.0154 0.0
C344 C 0.99638 0.40141 0.86497 0.0
C345 C 1.00889 0.38188 0.9353 0.0
N346 N 0.98839 0.45302 0.80855 0.0
C347 C 0.96946 0.44243 0.73723 0.0
C348 C 0.97865 0.39026 0.78825 0.0
C349 C 0.96478 0.41092 0.72483 0.0
Gd350 Gd 0.04187 0.56641 0.66289 0.0
Gd351 Gd 0.99997 0.50547 0.8278 0.0
N352 N 1.01768 0.47633 0.95903 0.0
C353 C 0.03981 0.43975 0.10782 0.0
C354 C 0.02858 0.48971 0.04137 0.0
C355 C 0.04011 0.47167 0.11658 0.0
H356 H 0.02889 0.51438 0.04825 0.0
H357 H 0.04922 0.48235 0.18104 0.0
H358 H 0.1024 0.53389 0.55119 0.0
H359 H 0.95834 0.45828 0.68865 0.0
H360 H 0.11717 0.51771 0.38655 0.0
H361 H 0.04868 0.42581 0.16608 0.0
H362 H 0.03294 0.37909 0.07041 0.0
H363 H 0.99271 0.62411 0.63255 0.0
H364 H 0.97477 0.36588 0.77913 0.0
H365 H 0.95037 0.40261 0.6667 0.0
H366 H 0.03597 0.55625 0.1863 0.0
H367 H 1.00605 0.35725 0.92996 0.0
H368 H 0.96649 0.62742 0.3341 0.0
H369 H 0.96139 0.64685 0.50143 0.0
N370 N 1.01389 0.5914 0.54074 0.0
C371 C 1.01834 0.58178 0.44893 0.0
C372 C 0.99487 0.61552 0.55958 0.0
C373 C 0.98 0.61727 0.39145 0.0
C374 C 0.97716 0.62838 0.48569 0.0
C375 C 1.00136 0.59419 0.37169 0.0
H376 H 0.99434 0.59321 0.2169 0.0
N377 N 0.05997 0.55343 0.50713 0.0
C378 C 0.0422 0.56188 0.43152 0.0
C379 C 0.07645 0.53632 0.32046 0.0
C380 C 0.04966 0.55329 0.33622 0.0
C381 C 0.0875 0.53924 0.49119 0.0
C382 C 0.09585 0.52991 0.39814 0.0
O383 O 0.05139 0.50939 0.86139 0.0
O384 O 0.07722 0.53646 0.74042 0.0
O385 O 0.06829 0.60627 0.61607 0.0
O386 O 0.06667 0.59426 0.76675 0.0
O387 O 0.02438 0.54659 0.89395 0.0
O388 O 1.01012 0.58169 0.78386 0.0
O389 O 0.9894 0.56456 0.67053 0.0
O390 O 0.97844 0.51387 0.67973 0.0
O391 O 0.96435 0.53961 0.84268 0.0
O392 O 0.96116 0.49733 0.92406 0.0
O393 O 0.05294 0.51569 0.63269 0.0
O394 O 1.01022 0.48771 0.67729 0.0
C395 C 0.07705 0.51942 0.81969 0.0
C396 C 1.01663 0.57489 0.87378 0.0
C397 C 0.1124 0.61546 0.71144 0.0
C398 C 0.16366 0.59675 0.67395 0.0
C399 C 0.15675 0.6362 0.79558 0.0
C400 C 0.12492 0.63536 0.78058 0.0
C401 C 0.17613 0.61695 0.74263 0.0
C402 C 0.13184 0.59657 0.65808 0.0
C403 C 0.079 0.61194 0.70208 0.0
C404 C 0.03112 0.56332 0.25964 0.0
C405 C 1.00729 0.58415 0.27718 0.0
H406 H 0.08304 0.5293 0.24831 0.0
C407 C 0.97119 0.54136 0.64864 0.0
C408 C 0.035 0.49132 0.62387 0.0
C409 C 0.94075 0.54293 0.99274 0.0
C410 C 0.90749 0.58284 0.05721 0.0
C411 C 0.9432 0.55576 0.16246 0.0
C412 C 0.95337 0.53823 0.08463 0.0
C413 C 0.92045 0.57789 0.14925 0.0
C414 C 0.91863 0.56575 0.97894 0.0
C415 C 0.94977 0.52454 0.90914 0.0
H416 H 0.16636 0.65153 0.84915 0.0
H417 H 0.11009 0.64981 0.82378 0.0
H418 H 0.20066 0.61757 0.75606 0.0
H419 H 0.12207 0.58153 0.60415 0.0
H420 H 0.95223 0.55151 0.23397 0.0
H421 H 0.97063 0.52085 0.09655 0.0
H422 H 0.91189 0.58979 0.21232 0.0
H423 H 0.90922 0.56929 0.90732 0.0
H424 H 0.19143 0.0229 0.28164 0.0
H425 H 0.16121 0.10868 0.16268 0.0
H426 H 0.11935 0.11104 0.28213 0.0
H427 H 0.09146 0.08874 0.42468 0.0
H428 H 0.12364 1.00295 0.54206 0.0
H429 H 0.16396 1.00085 0.42153 0.0
C430 C 0.17572 0.04215 0.28217 0.0
C431 C 0.17947 0.0656 0.21325 0.0
C432 C 0.15177 0.04341 0.35172 0.0
C433 C 0.15882 0.09032 0.21484 0.0
C434 C 0.13485 0.09166 0.28338 0.0
C435 C 0.10706 0.06945 0.42331 0.0
C436 C 0.10379 0.0459 0.49319 0.0
C437 C 0.13099 0.06832 0.35273 0.0
C438 C 0.12497 1.02145 0.49007 0.0
C439 C 0.14835 1.02015 0.42067 0.0
H440 H 0.50851 0.14203 0.19307 0.0
H441 H 0.53585 0.21744 0.37477 0.0
H442 H 0.5399 0.18286 0.51348 0.0
H443 H 0.53518 0.13077 0.58519 0.0
H444 H 0.51026 0.0552 0.40102 0.0
H445 H 0.50618 0.08964 0.26302 0.0
C446 C 0.51538 0.15084 0.26308 0.0
C447 C 0.52146 0.18244 0.27355 0.0
C448 C 0.51802 0.13061 0.34296 0.0
C449 C 0.53059 0.19338 0.36465 0.0
C450 C 0.53302 0.17352 0.44426 0.0
C451 C 0.52874 0.12182 0.51502 0.0
C452 C 0.52216 0.0902 0.50497 0.0
C453 C 0.52665 0.14203 0.43472 0.0
C454 C 0.51432 0.07932 0.41245 0.0
C455 C 0.51224 0.0991 0.33283 0.0
H456 H 0.40155 0.46172 0.23564 0.0
H457 H 0.35154 0.54051 0.33665 0.0
H458 H 0.38916 0.54818 0.46565 0.0
H459 H 0.43703 0.53353 0.54855 0.0
H460 H 0.48965 0.45705 0.4422 0.0
H461 H 0.45062 0.4475 0.31808 0.0
C462 C 0.39888 0.48048 0.28625 0.0
C463 C 0.37345 0.50037 0.27675 0.0
C464 C 0.42116 0.48513 0.36004 0.0
C465 C 0.37058 0.52469 0.34247 0.0
C466 C 0.39221 0.52913 0.41641 0.0
C467 C 0.43989 0.51445 0.49928 0.0
C468 C 0.46636 0.49579 0.50665 0.0
C469 C 0.41765 0.50956 0.42604 0.0
C470 C 0.46961 0.4717 0.43969 0.0
C471 C 0.44723 0.46625 0.36817 0.0
H472 H 0.08901 0.39279 0.32687 0.0
H473 H 0.99383 0.36502 0.32042 0.0
H474 H 0.98087 0.40549 0.4361 0.0
H475 H 0.99639 0.44916 0.53925 0.0
H476 H 0.09168 0.4768 0.54785 0.0
H477 H 0.10458 0.43684 0.43098 0.0
C478 C 0.06546 0.3956 0.35113 0.0
C479 C 0.04242 0.37567 0.31549 0.0
C480 C 0.05811 0.41925 0.41769 0.0
C481 C 1.01201 0.37981 0.34706 0.0
C482 C 1.00458 0.40306 0.41318 0.0
C483 C 1.02005 0.44641 0.51614 0.0
C484 C 0.04292 0.46654 0.55232 0.0
C485 C 0.02741 0.42294 0.44925 0.0
C486 C 0.07337 0.46242 0.5202 0.0
C487 C 0.08085 0.43924 0.45371 0.0
H488 H 0.90561 1.00207 0.20022 0.0
H489 H 0.85074 0.06987 0.05474 0.0
H490 H 0.88943 0.07401 0.92658 0.0
H491 H 0.9395 0.05979 0.85786 0.0
H492 H 0.99442 0.99081 0.99817 0.0
H493 H 0.95558 0.98598 0.12584 0.0
C494 C 0.90205 1.0175 0.13984 0.0
C495 C 0.87513 0.03555 0.13675 0.0
C496 C 0.92464 1.01977 0.06568 0.0
C497 C 0.87105 0.0556 0.05855 0.0
C498 C 0.89328 0.05804 0.98531 0.0
C499 C 0.94302 0.04342 0.91557 0.0
C500 C 0.97036 0.02593 0.91771 0.0
C501 C 0.92026 0.04042 0.98826 0.0
C502 C 0.97405 1.00495 0.99429 0.0
C503 C 0.95166 1.00208 0.06752 0.0
H504 H 0.50616 0.89299 0.19254 0.0
H505 H 0.58674 0.85093 0.07036 0.0
H506 H 0.58917 0.89079 0.94538 0.0
H507 H 0.5685 0.9379 0.8706 0.0
H508 H 0.48685 0.97916 0.98937 0.0
H509 H 0.48508 0.94005 0.11602 0.0
C510 C 0.52422 0.89262 0.13844 0.0
C511 C 0.54629 0.86901 0.14071 0.0
C512 C 0.52538 0.91568 0.06623 0.0
C513 C 0.56954 0.86883 0.07022 0.0
C514 C 0.57093 0.89166 0.99873 0.0
C515 C 0.55013 0.93823 0.92359 0.0
C516 C 0.52769 0.96154 0.91936 0.0
C517 C 0.54898 0.91524 0.99581 0.0
C518 C 0.50446 0.96167 0.99026 0.0
C519 C 0.50335 0.93915 0.06278 0.0
H520 H 0.66436 0.49648 0.18027 0.0
H521 H 0.67759 0.59426 0.18122 0.0
H522 H 0.63709 0.60002 0.05871 0.0
H523 H 0.59954 0.57655 0.94281 0.0
H524 H 0.5882 0.47829 0.94203 0.0
H525 H 0.6256 0.47352 0.07203 0.0
C526 C 0.65827 0.51906 0.15384 0.0
C527 C 0.67417 0.54488 0.18933 0.0
C528 C 0.63506 0.52212 0.08281 0.0
C529 C 0.6659 0.57399 0.15465 0.0
C530 C 0.64267 0.57727 0.0845 0.0
C531 C 0.60485 0.55419 0.97235 0.0
C532 C 0.59083 0.52779 0.932 0.0
C533 C 0.62723 0.55144 0.04689 0.0
C534 C 0.59855 0.499 0.97082 0.0
C535 C 0.62009 0.4962 0.04535 0.0
H536 H 0.04387 0.66561 0.22491 0.0
H537 H 0.97026 0.71605 0.0922 0.0
H538 H 0.96601 0.67709 0.96505 0.0
H539 H 0.98315 0.62808 0.89092 0.0
H540 H 0.05643 0.57747 0.02543 0.0
H541 H 0.06145 0.61705 0.14961 0.0
C542 C 0.027 0.66809 0.16784 0.0
C543 C 1.00742 0.69379 0.16794 0.0
C544 C 0.02476 0.64549 0.09446 0.0
C545 C 0.9856 0.69655 0.09376 0.0
C546 C 0.98319 0.67423 0.02092 0.0
C547 C 1.00021 0.62574 0.94748 0.0
C548 C 1.01927 0.59958 0.94879 0.0
C549 C 1.00261 0.64851 0.02035 0.0
C550 C 0.0412 0.59705 0.02291 0.0
C551 C 0.04416 0.61981 0.094 0.0
H552 H 1.00316 0.26696 0.40756 0.0
H553 H 0.93846 0.24554 0.18147 0.0
H554 H 0.90765 0.21524 0.29453 0.0
H555 H 0.90682 0.1853 0.44445 0.0
H556 H 0.9736 0.20361 0.66638 0.0
H557 H 0.99552 0.24545 0.56984 0.0
C558 C 0.98165 0.25669 0.3842 0.0
C559 C 0.97332 0.25782 0.28628 0.0
C560 C 0.96471 0.23847 0.44877 0.0
C561 C 0.94548 0.24442 0.25644 0.0
C562 C 0.92796 0.22704 0.32087 0.0
C563 C 0.92525 0.19949 0.473 0.0
C564 C 0.93878 0.19173 0.56137 0.0
C565 C 0.93843 0.22242 0.41539 0.0
C566 C 0.96285 0.20964 0.59843 0.0
C567 C 0.97557 0.23322 0.54275 0.0
H568 H 0.34181 0.09697 0.24043 0.0
H569 H 0.30385 1.00755 0.29641 0.0
H570 H 0.35241 0.99131 0.36857 0.0
H571 H 0.4086 0.99725 0.36028 0.0
H572 H 0.4478 0.08335 0.26751 0.0
H573 H 0.39663 0.10618 0.26217 0.0
C574 C 0.34382 0.07454 0.27383 0.0
C575 C 0.32001 0.05308 0.26065 0.0
C576 C 0.37283 0.06431 0.30272 0.0
C577 C 0.32219 0.02424 0.30474 0.0
C578 C 0.35025 1.01474 0.34341 0.0
C579 C 0.40588 1.02127 0.34184 0.0
C580 C 0.4316 0.03853 0.31239 0.0
C581 C 0.37632 0.03364 0.33387 0.0
C582 C 0.4281 0.06957 0.28849 0.0
C583 C 0.39891 0.08262 0.28595 0.0
H584 H 0.54621 0.27847 0.37742 0.0
H585 H 0.47237 0.34357 0.3491 0.0
H586 H 0.4891 0.3692 0.49733 0.0
H587 H 0.53171 0.38002 0.60727 0.0
H588 H 0.61022 0.32001 0.61365 0.0
H589 H 0.58371 0.28402 0.50708 0.0
C590 C 0.53304 0.29752 0.4058 0.0
C591 C 0.50841 0.30951 0.35221 0.0
C592 C 0.5438 0.31298 0.48739 0.0
C593 C 0.49167 0.33434 0.38889 0.0
C594 C 0.50126 0.34894 0.47335 0.0
C595 C 0.5426 0.35861 0.5871 0.0
C596 C 0.57322 0.3531 0.61454 0.0
C597 C 0.52841 0.33959 0.51925 0.0
C598 C 0.58682 0.32492 0.59189 0.0
C599 C 0.57184 0.3046 0.5298 0.0
H600 H 0.21408 0.50427 0.3697 0.0
H601 H 0.27866 0.5779 0.32203 0.0
H602 H 0.25833 0.60536 0.46261 0.0
H603 H 0.21743 0.61106 0.58431 0.0
H604 H 0.15335 0.53661 0.63091 0.0
H605 H 0.17843 0.50657 0.50637 0.0
C606 C 0.22389 0.52612 0.39145 0.0
C607 C 0.24729 0.53947 0.33607 0.0
C608 C 0.21211 0.5416 0.4715 0.0
C609 C 0.2604 0.5675 0.36435 0.0
C610 C 0.24877 0.58315 0.44419 0.0
C611 C 0.20958 0.58793 0.56913 0.0
C612 C 0.18322 0.57635 0.61526 0.0
C613 C 0.22397 0.57081 0.49649 0.0
C614 C 0.17323 0.54632 0.59495 0.0
C615 C 0.18753 0.52908 0.52365 0.0
H616 H 0.0752 0.80263 0.0897 0.0
H617 H 0.98978 0.85214 0.07826 0.0
H618 H 1.00839 0.88156 0.93917 0.0
H619 H 0.05259 0.90034 0.84716 0.0
H620 H 0.14053 0.85604 0.87631 0.0
H621 H 0.11724 0.81643 0.97834 0.0
C622 C 0.06043 0.81915 0.05418 0.0
C623 C 0.03138 0.82556 0.09322 0.0
C624 C 0.07194 0.83699 0.97803 0.0
C625 C 1.01227 0.84711 0.04854 0.0
C626 C 0.02297 0.86394 0.96967 0.0
C627 C 0.06641 0.88153 0.87417 0.0
C628 C 0.09826 0.8814 0.85698 0.0
C629 C 0.05333 0.86021 0.93758 0.0
C630 C 0.11597 0.85665 0.88952 0.0
C631 C 0.10273 0.83426 0.94878 0.0
H632 H 0.73169 0.9316 0.28076 0.0
H633 H 0.76916 0.99159 0.06417 0.0
H634 H 0.71952 0.99413 0.9846 0.0
H635 H 0.66476 0.99909 0.02334 0.0
H636 H 0.62662 0.94947 0.26534 0.0
H637 H 0.67601 0.92426 0.29152 0.0
C638 C 0.72919 0.94382 0.21292 0.0
C639 C 0.75272 0.96427 0.18466 0.0
C640 C 0.69947 0.94894 0.17697 0.0
C641 C 0.75058 0.97756 0.09235 0.0
C642 C 0.72181 0.97978 0.0481 0.0
C643 C 0.66684 0.98173 0.07906 0.0
C644 C 0.6425 0.97687 0.14446 0.0
C645 C 0.69571 0.96885 0.09718 0.0
C646 C 0.64544 0.95423 0.21608 0.0
C647 C 0.67364 0.93973 0.23073 0.0
H648 H 0.51964 0.76897 1.00335 0.0
H649 H 0.59112 0.70345 0.06477 0.0
H650 H 0.5807 0.67736 0.91225 0.0
H651 H 0.54528 0.66822 0.77812 0.0
H652 H 0.47224 0.73228 0.72131 0.0
H653 H 0.49029 0.76491 0.85306 0.0
C654 C 0.53372 0.74968 0.98189 0.0
C655 C 0.55568 0.73775 0.04612 0.0
C656 C 0.52724 0.73452 0.8951 0.0
C657 C 0.5736 0.7126 0.01741 0.0
C658 C 0.56769 0.69773 0.93026 0.0
C659 C 0.53378 0.68969 0.79326 0.0
C660 C 0.50714 0.69758 0.74172 0.0
C661 C 0.54358 0.70765 0.87105 0.0
C662 C 0.49275 0.72571 0.76036 0.0
C663 C 0.50287 0.74419 0.83631 0.0
H664 H 0.77269 0.59727 0.11481 0.0
H665 H 0.80664 0.65681 0.33774 0.0
H666 H 0.8541 0.66513 0.24733 0.0
H667 H 0.89158 0.63627 0.14868 0.0
H668 H 0.85772 0.56989 0.9427 0.0
H669 H 0.8054 0.58399 0.97919 0.0
C670 C 0.78967 0.61357 0.14098 0.0
C671 C 0.78808 0.62368 0.23707 0.0
C672 C 0.81793 0.61569 0.09275 0.0
C673 C 0.80856 0.647 0.26614 0.0
C674 C 0.83614 0.65112 0.2155 0.0
C675 C 0.87275 0.62564 0.10955 0.0
C676 C 0.87865 0.60081 0.04745 0.0
C677 C 0.84232 0.6324 0.13549 0.0
C678 C 0.85415 0.58849 0.99308 0.0
C679 C 0.82391 0.59637 1.01448 0.0
H680 H 0.98761 0.21713 0.97074 0.0
H681 H 0.08503 0.23113 1.01041 0.0
H682 H 0.09545 0.1858 0.91071 0.0
H683 H 0.07646 0.1392 0.82261 0.0
H684 H 0.97858 0.12402 0.80038 0.0
H685 H 0.96902 0.17231 0.88187 0.0
C686 C 1.01126 0.21035 0.95843 0.0
C687 C 0.03543 0.22772 1.00042 0.0
C688 C 1.01704 0.18346 0.9046 0.0
C689 C 0.06581 0.21867 0.97967 0.0
C690 C 0.07178 0.19234 0.92341 0.0
C691 C 0.05308 0.14607 0.83721 0.0
C692 C 0.02839 0.12698 0.80683 0.0
C693 C 0.04755 0.17397 0.88761 0.0
C694 C 0.99823 0.13756 0.82285 0.0
C695 C 0.99264 0.16536 0.8701 0.0
H696 H 0.32967 1.0127 0.86443 0.0
H697 H 0.34314 0.10673 0.94928 0.0
H698 H 0.39349 0.10741 0.8708 0.0
H699 H 0.43679 0.07922 0.79748 0.0
H700 H 0.42196 0.98696 0.69665 0.0
H701 H 0.36956 0.9878 0.75978 0.0
C702 C 0.34292 0.03379 0.86151 0.0
C703 C 0.33203 0.05987 0.91168 0.0
C704 C 0.37229 0.03406 0.81563 0.0
C705 C 0.35031 0.08662 0.90941 0.0
C706 C 0.37949 0.08685 0.86578 0.0
C707 C 0.42211 0.05929 0.78834 0.0
C708 C 0.43446 0.0324 0.74637 0.0
C709 C 0.39126 0.06036 0.82183 0.0
C710 C 0.41421 1.00751 0.73204 0.0
C711 C 0.38383 1.00807 0.76778 0.0
H712 H 0.47652 0.36587 0.06855 0.0
H713 H 0.5472 0.3157 0.91869 0.0
H714 H 0.55618 0.35994 0.81299 0.0
H715 H 0.54633 0.41491 0.76902 0.0
H716 H 0.47802 0.46463 0.93142 0.0
H717 H 0.46629 0.41918 0.02505 0.0
C718 C 0.49397 0.36438 1.01272 0.0
C719 C 0.51129 0.33709 1.00324 0.0
C720 C 0.49964 0.39029 0.95369 0.0
C721 C 0.5332 0.33593 0.92824 0.0
C722 C 0.53858 0.36154 0.8679 0.0
C723 C 0.52868 0.41582 0.82428 0.0
C724 C 0.51274 0.44375 0.84075 0.0
C725 C 0.52234 0.38916 0.88083 0.0
C726 C 0.49027 0.44393 0.91416 0.0
C727 C 0.48363 0.41771 0.9689 0.0
H728 H 0.18858 0.47744 0.08711 0.0
H729 H 0.23855 0.54194 0.91071 0.0
H730 H 0.19232 0.55059 0.81286 0.0
H731 H 0.13559 0.54361 0.788 0.0
H732 H 0.08732 0.47664 0.9608 0.0
H733 H 0.13421 0.46584 0.04976 0.0
C734 C 0.18964 0.49269 0.02527 0.0
C735 C 0.21741 0.50861 1.00573 0.0
C736 C 0.16276 0.49777 0.9698 0.0
C737 C 0.21794 0.52878 0.92639 0.0
C738 C 0.19123 0.53407 0.87111 0.0
C739 C 0.13546 0.52609 0.84321 0.0
C740 C 0.10732 0.51127 0.86715 0.0
C741 C 0.1632 0.51925 0.89342 0.0
C742 C 0.10797 0.48906 0.9411 0.0
C743 C 0.13507 0.48259 0.99196 0.0
H744 H 0.06511 0.86618 0.39706 0.0
H745 H 0.97555 0.83931 0.50084 0.0
H746 H 0.97411 0.8849 0.60526 0.0
H747 H 0.99707 0.93495 0.65829 0.0
H748 H 0.08693 0.96046 0.55251 0.0
H749 H 0.08959 0.91318 0.45929 0.0
C750 C 0.04547 0.86995 0.44392 0.0
C751 C 1.0205 0.84904 0.441 0.0
C752 C 0.04473 0.89638 0.50299 0.0
C753 C 0.99527 0.85455 0.50226 0.0
C754 C 0.99435 0.88089 0.56136 0.0
C755 C 1.01723 0.93009 0.6149 0.0
C756 C 0.04155 0.95183 0.61141 0.0
C757 C 1.01869 0.90239 0.56093 0.0
C758 C 0.06777 0.94458 0.55652 0.0
C759 C 0.06929 0.91743 0.50271 0.0
H760 H 0.73202 1.01251 0.57307 0.0
H761 H 0.70817 0.05796 0.30773 0.0
H762 H 0.65568 0.0657 0.3663 0.0
H763 H 0.61469 0.0549 0.48687 0.0
H764 H 0.63903 1.01293 0.75768 0.0
H765 H 0.69264 1.0087 0.70428 0.0
C766 C 0.71573 0.02536 0.53001 0.0
C767 C 0.72455 0.03543 0.43681 0.0
C768 C 0.68524 0.02979 0.56462 0.0
C769 C 0.70252 0.05092 0.38072 0.0
C770 C 0.67223 0.05489 0.41369 0.0
C771 C 0.63185 0.0453 0.53481 0.0
C772 C 0.62265 0.03414 0.62629 0.0
C773 C 0.66302 0.04372 0.5045 0.0
C774 C 0.64534 1.02187 0.68733 0.0
C775 C 0.67609 1.01934 0.65653 0.0
H776 H 0.52184 0.68018 0.30441 0.0
H777 H 0.5752 0.73379 0.5055 0.0
H778 H 0.57703 0.68973 0.61619 0.0
H779 H 0.56616 0.63409 0.65094 0.0
H780 H 0.5155 0.58139 0.44045 0.0
H781 H 0.5107 0.6265 0.33836 0.0
C782 C 0.53418 0.6824 0.37203 0.0
C783 C 0.54888 0.71049 0.39491 0.0
C784 C 0.53604 0.6567 0.43355 0.0
C785 C 0.56363 0.71274 0.48516 0.0
C786 C 0.56495 0.68732 0.54822 0.0
C787 C 0.55393 0.63263 0.58297 0.0
C788 C 0.54108 0.60419 0.55411 0.0
C789 C 0.5517 0.65891 0.52252 0.0
C790 C 0.52574 0.6027 0.46488 0.0
C791 C 0.52296 0.62858 0.40608 0.0
H792 H 0.84001 0.59378 0.53279 0.0
H793 H 0.82705 0.50229 0.42242 0.0
H794 H 0.87763 0.48765 0.48625 0.0
H795 H 0.92803 0.50221 0.56357 0.0
H796 H 0.94013 0.5952 0.66333 0.0
H797 H 0.8884 0.6078 0.61112 0.0
C798 C 0.84805 0.57052 0.52238 0.0
C799 C 0.82932 0.54935 0.47145 0.0
C800 C 0.87769 0.56261 0.55597 0.0
C801 C 0.84039 0.51918 0.46162 0.0
C802 C 0.86968 0.51089 0.49723 0.0
C803 C 0.91931 0.52521 0.57399 0.0
C804 C 0.93867 0.54781 0.61631 0.0
C805 C 0.88895 0.5326 0.54285 0.0
C806 C 0.92654 0.5774 0.62929 0.0
C807 C 0.89662 0.58465 0.60008 0.0
loop_
_geom_bond_atom_site_label_1
_geom_bond_atom_site_label_2
_geom_bond_distance
_geom_bond_site_symmetry_2
_ccdc_geom_bond_type
H0 C3 0.929 . S
H1 C6 0.929 . S
H2 C8 0.930 . S
C3 H0 0.929 . S
C3 C4 1.398 . S
C3 C5 1.396 . S
C4 C3 1.398 . S
C4 C8 1.407 . S
C5 C3 1.396 . S
C5 C6 1.394 . S
C6 H1 0.929 . S
C6 C5 1.394 . S
C6 C7 1.382 . S
C7 C6 1.382 . S
C7 C8 1.392 . S
C7 N9 1.420 . S
C8 H2 0.930 . S
C8 C4 1.407 . S
C8 C7 1.392 . S
N9 C7 1.420 . S
N9 C10 1.244 . S
C10 N9 1.244 . S
H11 C14 0.929 . S
H12 C17 0.929 . S
H13 C19 0.930 . S
C14 H11 0.929 . S
C14 C15 1.398 . S
C14 C16 1.396 . S
C15 C14 1.398 . S
C15 C19 1.407 . S
C16 C14 1.396 . S
C16 C17 1.394 . S
C17 H12 0.929 . S
C17 C16 1.394 . S
C17 C18 1.382 . S
C18 C17 1.382 . S
C18 C19 1.392 . S
C18 N20 1.420 . S
C19 H13 0.930 . S
C19 C15 1.407 . S
C19 C18 1.392 . S
N20 C18 1.420 . S
N20 C21 1.244 . S
C21 N20 1.244 . S
H22 C25 0.929 . S
H23 C28 0.929 . S
H24 C30 0.930 . S
C25 H22 0.929 . S
C25 C26 1.398 . S
C25 C27 1.396 . S
C26 C25 1.398 . S
C26 C30 1.407 . S
C27 C25 1.396 . S
C27 C28 1.394 . S
C28 H23 0.929 . S
C28 C27 1.394 . S
C28 C29 1.382 . S
C29 C28 1.382 . S
C29 C30 1.392 . S
C29 N31 1.420 . S
C30 H24 0.930 . S
C30 C26 1.407 . S
C30 C29 1.392 . S
N31 C29 1.420 . S
N31 C32 1.244 . S
C32 N31 1.244 . S
H33 C36 0.929 . S
H34 C39 0.929 . S
H35 C41 0.930 . S
C36 H33 0.929 . S
C36 C37 1.398 . S
C36 C38 1.396 . S
C37 C36 1.398 . S
C37 C41 1.407 . S
C38 C36 1.396 . S
C38 C39 1.394 . S
C39 H34 0.929 . S
C39 C38 1.394 . S
C39 C40 1.382 . S
C40 C39 1.382 . S
C40 C41 1.392 . S
C40 N42 1.420 . S
C41 H35 0.930 . S
C41 C37 1.407 . S
C41 C40 1.392 . S
N42 C40 1.420 . S
N42 C43 1.244 . S
C43 N42 1.244 . S
H44 C47 0.929 . S
H45 C50 0.929 . S
H46 C52 0.930 . S
C47 H44 0.929 . S
C47 C48 1.398 1_554 S
C47 C49 1.396 . S
C48 C47 1.398 1_556 S
C48 C52 1.407 . S
C49 C47 1.396 . S
C49 C50 1.394 . S
C50 H45 0.929 . S
C50 C49 1.394 . S
C50 C51 1.382 . S
C51 C50 1.382 . S
C51 C52 1.392 1_554 S
C51 N53 1.420 . S
C52 H46 0.930 . S
C52 C48 1.407 . S
C52 C51 1.392 1_556 S
N53 C51 1.420 . S
N53 C54 1.244 . S
C54 N53 1.244 . S
H55 C58 0.929 . S
H56 C61 0.929 . S
H57 C63 0.930 . S
C58 H55 0.929 . S
C58 C59 1.398 1_554 S
C58 C60 1.396 . S
C59 C58 1.398 1_556 S
C59 C63 1.407 . S
C60 C58 1.396 . S
C60 C61 1.394 . S
C61 H56 0.929 . S
C61 C60 1.394 . S
C61 C62 1.382 . S
C62 C61 1.382 . S
C62 C63 1.392 1_554 S
C62 N64 1.420 . S
C63 H57 0.930 . S
C63 C59 1.407 . S
C63 C62 1.392 1_556 S
N64 C62 1.420 . S
N64 C65 1.244 . S
C65 N64 1.244 . S
H66 C69 0.929 . S
H67 C72 0.929 . S
H68 C74 0.930 . S
C69 H66 0.929 . S
C69 C70 1.398 1_554 S
C69 C71 1.396 . S
C70 C69 1.398 1_556 S
C70 C74 1.407 . S
C71 C69 1.396 . S
C71 C72 1.394 . S
C72 H67 0.929 . S
C72 C71 1.394 . S
C72 C73 1.382 . S
C73 C72 1.382 . S
C73 C74 1.392 1_554 S
C73 N75 1.420 . S
C74 H68 0.930 . S
C74 C70 1.407 . S
C74 C73 1.392 1_556 S
N75 C73 1.420 . S
N75 C76 1.244 . S
C76 N75 1.244 . S
H77 C80 0.929 . S
H78 C83 0.929 . S
H79 C85 0.930 . S
C80 H77 0.929 . S
C80 C81 1.398 1_554 S
C80 C82 1.396 . S
C81 C80 1.398 1_556 S
C81 C85 1.407 . S
C82 C80 1.396 . S
C82 C83 1.394 . S
C83 H78 0.929 . S
C83 C82 1.394 . S
C83 C84 1.382 . S
C84 C83 1.382 . S
C84 C85 1.392 1_554 S
C84 N86 1.420 . S
C85 H79 0.930 . S
C85 C81 1.407 . S
C85 C84 1.392 1_556 S
N86 C84 1.420 . S
N86 C87 1.244 . S
C87 N86 1.244 . S
C88 C90 1.422 1_556 S
C88 C92 1.415 . S
C88 N94 1.369 . S
C89 C90 1.421 . S
C89 C91 1.417 . S
C89 C101 1.422 . S
C90 C88 1.422 1_554 S
C90 C89 1.421 . S
C90 N100 1.359 1_554 S
C91 C89 1.417 . S
C91 C93 1.329 . S
C91 H110 0.930 . S
C92 C88 1.415 . S
C92 C93 1.437 1_556 S
C92 C96 1.413 . S
C93 C91 1.329 . S
C93 C92 1.437 1_554 S
C93 H115 0.929 . S
N94 C88 1.369 . S
N94 C95 1.338 . S
N94 Gd99 2.622 1_545 S
C95 N94 1.338 . S
C95 C97 1.378 . S
C95 H107 0.929 1_545 S
C96 C92 1.413 . S
C96 C97 1.348 . S
C96 H112 0.931 . S
C97 C95 1.378 . S
C97 C96 1.348 . S
C97 H113 0.930 . S
Gd98 N118 2.622 . S
Gd98 N125 2.570 . S
Gd98 O132 2.353 1_655 S
Gd98 O133 2.468 . S
Gd98 O134 2.427 . S
Gd98 O136 2.388 . S
Gd98 O137 2.386 1_545 S
Gd98 O141 2.307 1_655 S
Gd98 C151 2.805 . S
Gd99 N94 2.622 1_565 S
Gd99 N100 2.570 1_565 S
Gd99 O131 2.386 1_565 S
Gd99 O135 2.307 1_465 S
Gd99 O138 2.353 . S
Gd99 O139 2.468 . S
Gd99 O140 2.427 . S
Gd99 O142 2.388 . S
Gd99 C163 2.805 . S
N100 C90 1.359 1_556 S
N100 Gd99 2.570 1_545 S
N100 C102 1.343 1_556 S
C101 C89 1.422 . S
C101 C103 1.321 . S
C101 H109 0.931 . S
C102 N100 1.343 1_554 S
C102 C103 1.390 . S
C102 H104 0.931 1_455 S
C103 C101 1.321 . S
C103 C102 1.390 . S
C103 H105 0.951 . S
H104 C102 0.931 1_655 S
H105 C103 0.951 . S
H106 C129 0.936 . S
H107 C95 0.929 1_565 S
H108 C130 0.900 1_455 S
H109 C101 0.931 . S
H110 C91 0.930 . S
H111 C120 0.929 . S
H112 C96 0.931 . S
H113 C97 0.930 . S
H114 C152 0.930 . S
H115 C93 0.929 . S
H116 C121 0.931 . S
H117 C122 0.930 . S
N118 Gd98 2.622 . S
N118 C119 1.369 . S
N118 C120 1.338 . S
C119 N118 1.369 . S
C119 C123 1.415 1_545 S
C119 C126 1.422 1_545 S
C120 H111 0.929 . S
C120 N118 1.338 . S
C120 C122 1.378 . S
C121 H116 0.931 . S
C121 C122 1.348 1_565 S
C121 C123 1.413 . S
C122 H117 0.930 . S
C122 C120 1.378 . S
C122 C121 1.348 1_545 S
C123 C119 1.415 1_565 S
C123 C121 1.413 . S
C123 C153 1.437 . S
H124 C153 0.929 . S
N125 Gd98 2.570 . S
N125 C126 1.359 1_545 S
N125 C129 1.338 1_655 S
C126 C119 1.422 1_565 S
C126 N125 1.359 1_565 S
C126 C128 1.421 . S
C127 C128 1.422 . S
C127 C130 1.352 . S
C127 H154 0.931 . S
C128 C126 1.421 . S
C128 C127 1.422 . S
C128 C152 1.417 . S
C129 H106 0.936 . S
C129 N125 1.338 1_455 S
C129 C130 1.389 1_445 S
C130 H108 0.900 1_655 S
C130 C127 1.352 . S
C130 C129 1.389 1_665 S
O131 Gd99 2.386 1_545 S
O131 C143 1.265 . S
O132 Gd98 2.353 1_455 S
O132 C143 1.242 . S
O133 Gd98 2.468 . S
O133 C151 1.263 . S
O134 Gd98 2.427 . S
O134 C151 1.252 . S
O135 Gd99 2.307 1_645 S
O135 C144 1.261 . S
O136 Gd98 2.388 . S
O136 C144 1.252 . S
O137 Gd98 2.386 1_565 S
O137 C155 1.265 . S
O138 Gd99 2.353 . S
O138 C155 1.242 1_455 S
O139 Gd99 2.468 . S
O139 C163 1.263 . S
O140 Gd99 2.427 . S
O140 C163 1.252 . S
O141 Gd98 2.307 1_455 S
O141 C156 1.261 . S
O142 Gd99 2.388 . S
O142 C156 1.252 1_565 S
C143 O131 1.265 . S
C143 O132 1.242 . S
C144 O135 1.261 . S
C144 O136 1.252 . S
C145 C148 1.394 . S
C145 C150 1.370 . S
C145 C151 1.500 . S
C146 C149 1.383 . S
C146 C150 1.395 . S
C147 C148 1.396 . S
C147 C149 1.365 . S
C147 H164 0.929 . S
C148 C145 1.394 . S
C148 C147 1.396 . S
C148 H165 0.930 . S
C149 C146 1.383 . S
C149 C147 1.365 . S
C149 H166 0.931 . S
C150 C145 1.370 . S
C150 C146 1.395 . S
C150 H167 0.930 1_655 S
C151 Gd98 2.805 . S
C151 O133 1.263 . S
C151 O134 1.252 . S
C151 C145 1.500 . S
C152 H114 0.930 . S
C152 C128 1.417 . S
C152 C153 1.329 . S
C153 C123 1.437 . S
C153 H124 0.929 . S
C153 C152 1.329 . S
H154 C127 0.931 . S
C155 O137 1.265 . S
C155 O138 1.242 1_655 S
C156 O141 1.261 . S
C156 O142 1.252 1_545 S
C157 C160 1.394 . S
C157 C162 1.370 1_556 S
C157 C163 1.500 . S
C158 C161 1.383 . S
C158 C162 1.395 . S
C159 C160 1.396 . S
C159 C161 1.365 1_556 S
C159 H168 0.929 . S
C160 C157 1.394 . S
C160 C159 1.396 . S
C160 H169 0.930 . S
C161 C158 1.383 . S
C161 C159 1.365 1_554 S
C161 H170 0.931 . S
C162 C157 1.370 1_554 S
C162 C158 1.395 . S
C162 H171 0.930 . S
C163 Gd99 2.805 . S
C163 O139 1.263 . S
C163 O140 1.252 . S
C163 C157 1.500 . S
H164 C147 0.929 . S
H165 C148 0.930 . S
H166 C149 0.931 . S
H167 C150 0.930 1_455 S
H168 C159 0.929 . S
H169 C160 0.930 . S
H170 C161 0.931 . S
H171 C162 0.930 . S
C172 C174 1.422 . S
C172 C176 1.415 . S
C172 N178 1.369 . S
C173 C174 1.421 . S
C173 C175 1.417 . S
C173 C185 1.422 . S
C174 C172 1.422 . S
C174 C173 1.421 . S
C174 N184 1.359 . S
C175 C173 1.417 . S
C175 C177 1.329 . S
C175 H194 0.930 . S
C176 C172 1.415 . S
C176 C177 1.437 . S
C176 C180 1.413 . S
C177 C175 1.329 . S
C177 C176 1.437 . S
C177 H199 0.929 . S
N178 C172 1.369 . S
N178 C179 1.338 . S
N178 Gd183 2.622 . S
C179 N178 1.338 . S
C179 C181 1.378 . S
C179 H191 0.929 . S
C180 C176 1.413 . S
C180 C181 1.348 . S
C180 H196 0.931 . S
C181 C179 1.378 . S
C181 C180 1.348 . S
C181 H197 0.930 . S
Gd182 N202 2.622 . S
Gd182 N209 2.570 . S
Gd182 O216 2.353 1_545 S
Gd182 O217 2.468 . S
Gd182 O218 2.427 . S
Gd182 O220 2.388 . S
Gd182 O221 2.386 . S
Gd182 O225 2.307 . S
Gd182 C235 2.805 . S
Gd183 N178 2.622 . S
Gd183 N184 2.570 . S
Gd183 O215 2.386 . S
Gd183 O219 2.307 1_565 S
Gd183 O222 2.353 1_565 S
Gd183 O223 2.468 . S
Gd183 O224 2.427 . S
Gd183 O226 2.388 . S
Gd183 C247 2.805 . S
N184 C174 1.359 . S
N184 Gd183 2.570 . S
N184 C186 1.343 . S
C185 C173 1.422 . S
C185 C187 1.321 . S
C185 H193 0.931 . S
C186 N184 1.343 . S
C186 C187 1.390 . S
C186 H188 0.931 . S
C187 C185 1.321 . S
C187 C186 1.390 . S
C187 H189 0.930 . S
H188 C186 0.931 . S
H189 C187 0.930 . S
H190 C213 0.931 . S
H191 C179 0.929 . S
H192 C214 0.930 . S
H193 C185 0.931 . S
H194 C175 0.930 . S
H195 C204 0.929 . S
H196 C180 0.931 . S
H197 C181 0.930 . S
H198 C236 0.930 . S
H199 C177 0.929 . S
H200 C205 0.931 . S
H201 C206 0.930 1_554 S
N202 Gd182 2.622 . S
N202 C203 1.369 . S
N202 C204 1.338 . S
C203 N202 1.369 . S
C203 C207 1.415 . S
C203 C210 1.422 . S
C204 H195 0.929 . S
C204 N202 1.338 . S
C204 C206 1.378 . S
C205 H200 0.931 . S
C205 C206 1.348 . S
C205 C207 1.413 . S
C206 H201 0.930 1_556 S
C206 C204 1.378 . S
C206 C205 1.348 . S
C207 C203 1.415 . S
C207 C205 1.413 . S
C207 C237 1.437 . S
H208 C237 0.929 . S
N209 Gd182 2.570 . S
N209 C210 1.359 . S
N209 C213 1.343 . S
C210 C203 1.422 . S
C210 N209 1.359 . S
C210 C212 1.421 . S
C211 C212 1.422 . S
C211 C214 1.321 . S
C211 H238 0.931 . S
C212 C210 1.421 . S
C212 C211 1.422 . S
C212 C236 1.417 . S
C213 H190 0.931 . S
C213 N209 1.343 . S
C213 C214 1.390 . S
C214 H192 0.930 . S
C214 C211 1.321 . S
C214 C213 1.390 . S
O215 Gd183 2.386 . S
O215 C227 1.265 . S
O216 Gd182 2.353 1_565 S
O216 C227 1.242 . S
O217 Gd182 2.468 . S
O217 C235 1.263 . S
O218 Gd182 2.427 . S
O218 C235 1.252 . S
O219 Gd183 2.307 1_545 S
O219 C228 1.261 . S
O220 Gd182 2.388 . S
O220 C228 1.252 . S
O221 Gd182 2.386 . S
O221 C239 1.265 . S
O222 Gd183 2.353 1_545 S
O222 C239 1.242 . S
O223 Gd183 2.468 . S
O223 C247 1.263 . S
O224 Gd183 2.427 . S
O224 C247 1.252 . S
O225 Gd182 2.307 . S
O225 C240 1.261 . S
O226 Gd183 2.388 . S
O226 C240 1.252 1_565 S
C227 O215 1.265 . S
C227 O216 1.242 . S
C228 O219 1.261 . S
C228 O220 1.252 . S
C229 C232 1.394 . S
C229 C234 1.370 . S
C229 C235 1.500 1_554 S
C230 C233 1.383 . S
C230 C234 1.395 . S
C231 C232 1.396 . S
C231 C233 1.365 . S
C231 H248 0.929 . S
C232 C229 1.394 . S
C232 C231 1.396 . S
C232 H249 0.930 . S
C233 C230 1.383 . S
C233 C231 1.365 . S
C233 H250 0.931 . S
C234 C229 1.370 . S
C234 C230 1.395 . S
C234 H251 0.930 1_554 S
C235 Gd182 2.805 . S
C235 O217 1.263 . S
C235 O218 1.252 . S
C235 C229 1.500 1_556 S
C236 H198 0.930 . S
C236 C212 1.417 . S
C236 C237 1.329 . S
C237 C207 1.437 . S
C237 H208 0.929 . S
C237 C236 1.329 . S
H238 C211 0.931 . S
C239 O221 1.265 . S
C239 O222 1.242 . S
C240 O225 1.261 . S
C240 O226 1.252 1_545 S
C241 C244 1.394 . S
C241 C246 1.370 1_565 S
C241 C247 1.500 . S
C242 C245 1.383 1_545 S
C242 C246 1.395 . S
C243 C244 1.396 . S
C243 C245 1.365 . S
C243 H252 0.929 . S
C244 C241 1.394 . S
C244 C243 1.396 . S
C244 H253 0.930 . S
C245 C242 1.383 1_565 S
C245 C243 1.365 . S
C245 H254 0.931 . S
C246 C241 1.370 1_545 S
C246 C242 1.395 . S
C246 H255 0.930 . S
C247 Gd183 2.805 . S
C247 O223 1.263 . S
C247 O224 1.252 . S
C247 C241 1.500 . S
H248 C231 0.929 . S
H249 C232 0.930 . S
H250 C233 0.931 . S
H251 C234 0.930 1_556 S
H252 C243 0.929 . S
H253 C244 0.930 . S
H254 C245 0.931 . S
H255 C246 0.930 . S
C256 C258 1.422 1_556 S
C256 C260 1.415 . S
C256 N262 1.369 . S
C257 C258 1.421 . S
C257 C259 1.417 . S
C257 C269 1.422 . S
C258 C256 1.422 1_554 S
C258 C257 1.421 . S
C258 N268 1.359 1_554 S
C259 C257 1.417 . S
C259 C261 1.329 . S
C259 H278 0.930 . S
C260 C256 1.415 . S
C260 C261 1.437 1_556 S
C260 C264 1.413 . S
C261 C259 1.329 . S
C261 C260 1.437 1_554 S
C261 H283 0.929 . S
N262 C256 1.369 . S
N262 C263 1.338 . S
N262 Gd267 2.622 . S
C263 N262 1.338 . S
C263 C265 1.378 . S
C263 H275 0.929 . S
C264 C260 1.413 . S
C264 C265 1.348 . S
C264 H280 0.931 . S
C265 C263 1.378 . S
C265 C264 1.348 . S
C265 H281 0.930 . S
Gd266 N286 2.622 . S
Gd266 N293 2.570 . S
Gd266 O300 2.353 . S
Gd266 O301 2.468 . S
Gd266 O302 2.427 . S
Gd266 O304 2.388 . S
Gd266 O305 2.386 . S
Gd266 O309 2.307 . S
Gd266 C319 2.805 . S
Gd267 N262 2.622 . S
Gd267 N268 2.570 . S
Gd267 O299 2.386 . S
Gd267 O303 2.307 . S
Gd267 O306 2.353 . S
Gd267 O307 2.468 . S
Gd267 O308 2.427 . S
Gd267 O310 2.388 . S
Gd267 C331 2.805 . S
N268 C258 1.359 1_556 S
N268 Gd267 2.570 . S
N268 C270 1.343 1_556 S
C269 C257 1.422 . S
C269 C271 1.321 . S
C269 H277 0.931 . S
C270 N268 1.343 1_554 S
C270 C271 1.390 . S
C270 H272 0.931 . S
C271 C269 1.321 . S
C271 C270 1.390 . S
C271 H273 0.930 . S
H272 C270 0.931 . S
H273 C271 0.930 . S
H274 C297 0.931 . S
H275 C263 0.929 . S
H276 C298 0.930 . S
H277 C269 0.931 . S
H278 C259 0.930 . S
H279 C288 0.929 . S
H280 C264 0.931 . S
H281 C265 0.930 . S
H282 C320 0.930 . S
H283 C261 0.929 . S
H284 C289 0.931 . S
H285 C290 0.930 . S
N286 Gd266 2.622 . S
N286 C287 1.369 . S
N286 C288 1.338 . S
C287 N286 1.369 . S
C287 C291 1.415 . S
C287 C294 1.422 . S
C288 H279 0.929 . S
C288 N286 1.338 . S
C288 C290 1.378 . S
C289 H284 0.931 . S
C289 C290 1.348 . S
C289 C291 1.413 . S
C290 H285 0.930 . S
C290 C288 1.378 . S
C290 C289 1.348 . S
C291 C287 1.415 . S
C291 C289 1.413 . S
C291 C321 1.437 . S
H292 C321 0.929 . S
N293 Gd266 2.570 . S
N293 C294 1.359 . S
N293 C297 1.343 . S
C294 C287 1.422 . S
C294 N293 1.359 . S
C294 C296 1.421 . S
C295 C296 1.422 . S
C295 C298 1.321 . S
C295 H322 0.931 . S
C296 C294 1.421 . S
C296 C295 1.422 . S
C296 C320 1.417 . S
C297 H274 0.931 . S
C297 N293 1.343 . S
C297 C298 1.390 . S
C298 H276 0.930 . S
C298 C295 1.321 . S
C298 C297 1.390 . S
O299 Gd267 2.386 . S
O299 C311 1.265 . S
O300 Gd266 2.353 . S
O300 C311 1.242 . S
O301 Gd266 2.468 . S
O301 C319 1.263 . S
O302 Gd266 2.427 . S
O302 C319 1.252 . S
O303 Gd267 2.307 . S
O303 C312 1.261 . S
O304 Gd266 2.388 . S
O304 C312 1.252 . S
O305 Gd266 2.386 . S
O305 C323 1.265 . S
O306 Gd267 2.353 . S
O306 C323 1.242 . S
O307 Gd267 2.468 . S
O307 C331 1.263 . S
O308 Gd267 2.427 . S
O308 C331 1.252 . S
O309 Gd266 2.307 . S
O309 C324 1.261 . S
O310 Gd267 2.388 . S
O310 C324 1.252 . S
C311 O299 1.265 . S
C311 O300 1.242 . S
C312 O303 1.261 . S
C312 O304 1.252 . S
C313 C316 1.394 . S
C313 C318 1.370 . S
C313 C319 1.500 . S
C314 C317 1.383 . S
C314 C318 1.395 . S
C315 C316 1.396 . S
C315 C317 1.365 . S
C315 H332 0.929 . S
C316 C313 1.394 . S
C316 C315 1.396 . S
C316 H333 0.930 . S
C317 C314 1.383 . S
C317 C315 1.365 . S
C317 H334 0.931 . S
C318 C313 1.370 . S
C318 C314 1.395 . S
C318 H335 0.930 . S
C319 Gd266 2.805 . S
C319 O301 1.263 . S
C319 O302 1.252 . S
C319 C313 1.500 . S
C320 H282 0.930 . S
C320 C296 1.417 . S
C320 C321 1.329 . S
C321 C291 1.437 . S
C321 H292 0.929 . S
C321 C320 1.329 . S
H322 C295 0.931 . S
C323 O305 1.265 . S
C323 O306 1.242 . S
C324 O309 1.261 . S
C324 O310 1.252 . S
C325 C328 1.394 . S
C325 C330 1.370 1_556 S
C325 C331 1.500 . S
C326 C329 1.383 . S
C326 C330 1.395 . S
C327 C328 1.402 . S
C327 C329 1.358 1_556 S
C327 H336 0.930 . S
C328 C325 1.394 . S
C328 C327 1.402 . S
C328 H337 0.930 . S
C329 C326 1.383 . S
C329 C327 1.358 1_554 S
C329 H338 0.931 . S
C330 C325 1.370 1_554 S
C330 C326 1.395 . S
C330 H339 0.930 . S
C331 Gd267 2.805 . S
C331 O307 1.263 . S
C331 O308 1.252 . S
C331 C325 1.500 . S
H332 C315 0.929 . S
H333 C316 0.930 . S
H334 C317 0.931 . S
H335 C318 0.930 . S
H336 C327 0.930 . S
H337 C328 0.930 . S
H338 C329 0.931 . S
H339 C330 0.930 . S
C340 C342 1.422 1_556 S
C340 C344 1.415 . S
C340 N346 1.369 . S
C341 C342 1.421 . S
C341 C343 1.417 . S
C341 C353 1.422 . S
C342 C340 1.422 1_554 S
C342 C341 1.421 . S
C342 N352 1.359 1_554 S
C343 C341 1.417 . S
C343 C345 1.329 . S
C343 H362 0.930 . S
C344 C340 1.415 . S
C344 C345 1.437 1_556 S
C344 C348 1.413 . S
C345 C343 1.329 . S
C345 C344 1.437 1_554 S
C345 H367 0.929 . S
N346 C340 1.369 . S
N346 C347 1.335 1_455 S
N346 Gd351 2.622 1_455 S
C347 N346 1.335 1_655 S
C347 C349 1.367 1_655 S
C347 H359 0.945 . S
C348 C344 1.413 . S
C348 C349 1.348 . S
C348 H364 0.931 . S
C349 C347 1.367 1_455 S
C349 C348 1.348 . S
C349 H365 0.930 . S
Gd350 N370 2.622 . S
Gd350 N377 2.570 . S
Gd350 O384 2.353 . S
Gd350 O385 2.468 . S
Gd350 O386 2.427 . S
Gd350 O388 2.388 . S
Gd350 O389 2.386 1_455 S
Gd350 O393 2.307 . S
Gd350 C403 2.805 . S
Gd351 N346 2.622 1_655 S
Gd351 N352 2.570 1_655 S
Gd351 O383 2.386 1_655 S
Gd351 O387 2.307 1_655 S
Gd351 O390 2.353 . S
Gd351 O391 2.468 . S
Gd351 O392 2.427 . S
Gd351 O394 2.388 . S
Gd351 C415 2.805 . S
N352 C342 1.359 1_556 S
N352 Gd351 2.570 1_455 S
N352 C354 1.343 1_556 S
C353 C341 1.422 . S
C353 C355 1.321 . S
C353 H361 0.931 . S
C354 N352 1.343 1_554 S
C354 C355 1.390 . S
C354 H356 0.931 . S
C355 C353 1.321 . S
C355 C354 1.390 . S
C355 H357 0.930 . S
H356 C354 0.931 . S
H357 C355 0.930 . S
H358 C381 0.931 . S
H359 C347 0.945 . S
H360 C382 0.930 . S
H361 C353 0.931 . S
H362 C343 0.930 . S
H363 C372 0.929 . S
H364 C348 0.931 . S
H365 C349 0.930 . S
H366 C404 0.930 . S
H367 C345 0.929 . S
H368 C373 0.931 . S
H369 C374 0.930 . S
N370 Gd350 2.622 . S
N370 C371 1.376 . S
N370 C372 1.338 . S
C371 N370 1.376 . S
C371 C375 1.409 1_455 S
C371 C378 1.421 1_455 S
C372 H363 0.929 . S
C372 N370 1.338 . S
C372 C374 1.378 . S
C373 H368 0.931 . S
C373 C374 1.348 1_655 S
C373 C375 1.413 . S
C374 H369 0.930 . S
C374 C372 1.378 . S
C374 C373 1.348 1_455 S
C375 C371 1.409 1_655 S
C375 C373 1.413 . S
C375 C405 1.437 . S
H376 C405 0.929 . S
N377 Gd350 2.570 . S
N377 C378 1.359 1_455 S
N377 C381 1.343 . S
C378 C371 1.421 1_655 S
C378 N377 1.359 1_655 S
C378 C380 1.421 . S
C379 C380 1.422 . S
C379 C382 1.321 . S
C379 H406 0.931 . S
C380 C378 1.421 . S
C380 C379 1.422 . S
C380 C404 1.417 . S
C381 H358 0.931 . S
C381 N377 1.343 . S
C381 C382 1.390 1_455 S
C382 H360 0.930 . S
C382 C379 1.321 . S
C382 C381 1.390 1_655 S
O383 Gd351 2.386 1_455 S
O383 C395 1.265 . S
O384 Gd350 2.353 . S
O384 C395 1.242 . S
O385 Gd350 2.468 . S
O385 C403 1.263 . S
O386 Gd350 2.427 . S
O386 C403 1.252 . S
O387 Gd351 2.307 1_455 S
O387 C396 1.261 . S
O388 Gd350 2.388 . S
O388 C396 1.252 . S
O389 Gd350 2.386 1_655 S
O389 C407 1.265 . S
O390 Gd351 2.353 . S
O390 C407 1.242 . S
O391 Gd351 2.468 . S
O391 C415 1.263 . S
O392 Gd351 2.427 . S
O392 C415 1.252 . S
O393 Gd350 2.307 . S
O393 C408 1.261 . S
O394 Gd351 2.388 . S
O394 C408 1.252 1_655 S
C395 O383 1.265 . S
C395 O384 1.242 . S
C396 O387 1.261 . S
C396 O388 1.252 . S
C397 C400 1.394 . S
C397 C402 1.370 . S
C397 C403 1.500 . S
C398 C401 1.383 . S
C398 C402 1.395 . S
C399 C400 1.396 . S
C399 C401 1.365 . S
C399 H416 0.929 . S
C400 C397 1.394 . S
C400 C399 1.396 . S
C400 H417 0.930 . S
C401 C398 1.383 . S
C401 C399 1.365 . S
C401 H418 0.931 . S
C402 C397 1.370 . S
C402 C398 1.395 . S
C402 H419 0.930 . S
C403 Gd350 2.805 . S
C403 O385 1.263 . S
C403 O386 1.252 . S
C403 C397 1.500 . S
C404 H366 0.930 . S
C404 C380 1.417 . S
C404 C405 1.329 . S
C405 C375 1.437 . S
C405 H376 0.929 . S
C405 C404 1.329 . S
H406 C379 0.931 . S
C407 O389 1.265 . S
C407 O390 1.242 . S
C408 O393 1.261 . S
C408 O394 1.252 1_455 S
C409 C412 1.394 . S
C409 C414 1.370 1_556 S
C409 C415 1.500 . S
C410 C413 1.383 . S
C410 C414 1.395 . S
C411 C412 1.396 . S
C411 C413 1.365 1_556 S
C411 H420 0.929 . S
C412 C409 1.394 . S
C412 C411 1.396 . S
C412 H421 0.930 . S
C413 C410 1.383 . S
C413 C411 1.365 1_554 S
C413 H422 0.931 . S
C414 C409 1.370 1_554 S
C414 C410 1.395 . S
C414 H423 0.930 . S
C415 Gd351 2.805 . S
C415 O391 1.263 . S
C415 O392 1.252 . S
C415 C409 1.500 . S
H416 C399 0.929 . S
H417 C400 0.930 . S
H418 C401 0.931 . S
H419 C402 0.930 . S
H420 C411 0.929 . S
H421 C412 0.930 . S
H422 C413 0.931 . S
H423 C414 0.930 . S
H424 C430 0.922 1_565 S
H425 C433 0.930 . S
H426 C434 0.930 . S
H427 C435 0.930 . S
H428 C438 0.930 . S
H429 C439 0.930 . S
C430 H424 0.922 1_545 S
C430 C431 1.355 . S
C430 C432 1.415 . S
C431 C430 1.355 . S
C431 C433 1.419 . S
C432 C430 1.415 . S
C432 C437 1.425 . S
C432 C439 1.409 1_545 S
C433 H425 0.930 . S
C433 C431 1.419 . S
C433 C434 1.362 . S
C434 H426 0.930 . S
C434 C433 1.362 . S
C434 C437 1.409 . S
C435 H427 0.930 . S
C435 C436 1.355 . S
C435 C437 1.415 . S
C436 C435 1.355 . S
C436 C438 1.419 1_545 S
C437 C432 1.425 . S
C437 C434 1.409 . S
C437 C435 1.415 . S
C438 H428 0.930 . S
C438 C436 1.419 1_565 S
C438 C439 1.362 . S
C439 H429 0.930 . S
C439 C432 1.409 1_565 S
C439 C438 1.362 . S
H440 C446 0.930 . S
H441 C449 0.930 . S
H442 C450 0.930 . S
H443 C451 0.930 . S
H444 C454 0.930 . S
H445 C455 0.930 . S
C446 H440 0.930 . S
C446 C447 1.355 . S
C446 C448 1.415 . S
C447 C446 1.355 . S
C447 C449 1.419 . S
C448 C446 1.415 . S
C448 C453 1.425 . S
C448 C455 1.409 . S
C449 H441 0.930 . S
C449 C447 1.419 . S
C449 C450 1.362 . S
C450 H442 0.930 . S
C450 C449 1.362 . S
C450 C453 1.409 . S
C451 H443 0.930 . S
C451 C452 1.355 . S
C451 C453 1.415 . S
C452 C451 1.355 . S
C452 C454 1.419 . S
C453 C448 1.425 . S
C453 C450 1.409 . S
C453 C451 1.415 . S
C454 H444 0.930 . S
C454 C452 1.419 . S
C454 C455 1.362 . S
C455 H445 0.930 . S
C455 C448 1.409 . S
C455 C454 1.362 . S
H456 C462 0.930 . S
H457 C465 0.930 . S
H458 C466 0.930 . S
H459 C467 0.930 . S
H460 C470 0.930 . S
H461 C471 0.930 . S
C462 H456 0.930 . S
C462 C463 1.355 . S
C462 C464 1.415 . S
C463 C462 1.355 . S
C463 C465 1.419 . S
C464 C462 1.415 . S
C464 C469 1.425 . S
C464 C471 1.409 . S
C465 H457 0.930 . S
C465 C463 1.419 . S
C465 C466 1.362 . S
C466 H458 0.930 . S
C466 C465 1.362 . S
C466 C469 1.409 . S
C467 H459 0.930 . S
C467 C468 1.355 . S
C467 C469 1.415 . S
C468 C467 1.355 . S
C468 C470 1.419 . S
C469 C464 1.425 . S
C469 C466 1.409 . S
C469 C467 1.415 . S
C470 H460 0.930 . S
C470 C468 1.419 . S
C470 C471 1.362 . S
C471 H461 0.930 . S
C471 C464 1.409 . S
C471 C470 1.362 . S
H472 C478 0.930 . S
H473 C481 0.930 . S
H474 C482 0.930 . S
H475 C483 0.930 1_655 S
H476 C486 0.930 . S
H477 C487 0.930 . S
C478 H472 0.930 . S
C478 C479 1.355 . S
C478 C480 1.415 . S
C479 C478 1.355 . S
C479 C481 1.419 1_455 S
C480 C478 1.415 . S
C480 C485 1.425 . S
C480 C487 1.409 . S
C481 H473 0.930 . S
C481 C479 1.419 1_655 S
C481 C482 1.362 . S
C482 H474 0.930 . S
C482 C481 1.362 . S
C482 C485 1.409 1_655 S
C483 H475 0.930 1_455 S
C483 C484 1.355 . S
C483 C485 1.415 . S
C484 C483 1.355 . S
C484 C486 1.419 . S
C485 C480 1.425 . S
C485 C482 1.409 1_455 S
C485 C483 1.415 . S
C486 H476 0.930 . S
C486 C484 1.419 . S
C486 C487 1.362 . S
C487 H477 0.930 . S
C487 C480 1.409 . S
C487 C486 1.362 . S
H488 C494 0.930 . S
H489 C497 0.930 . S
H490 C498 0.930 . S
H491 C499 0.930 . S
H492 C502 0.930 . S
H493 C503 0.930 . S
C494 H488 0.930 . S
C494 C495 1.355 . S
C494 C496 1.415 . S
C495 C494 1.355 . S
C495 C497 1.419 1_565 S
C496 C494 1.415 . S
C496 C501 1.425 1_565 S
C496 C503 1.409 1_554 S
C497 H489 0.930 . S
C497 C495 1.419 1_545 S
C497 C498 1.362 . S
C498 H490 0.930 . S
C498 C497 1.362 . S
C498 C501 1.409 . S
C499 H491 0.930 . S
C499 C500 1.355 1_544 S
C499 C501 1.415 . S
C500 C499 1.355 1_566 S
C500 C502 1.419 . S
C501 C496 1.425 1_545 S
C501 C498 1.409 . S
C501 C499 1.415 . S
C502 H492 0.930 . S
C502 C500 1.419 . S
C502 C503 1.362 . S
C503 H493 0.930 . S
C503 C496 1.409 1_556 S
C503 C502 1.362 . S
H504 C510 0.930 . S
H505 C513 0.930 . S
H506 C514 0.930 1_556 S
H507 C515 0.930 . S
H508 C518 0.930 . S
H509 C519 0.930 . S
C510 H504 0.930 . S
C510 C511 1.355 . S
C510 C512 1.415 . S
C511 C510 1.355 . S
C511 C513 1.419 . S
C512 C510 1.415 . S
C512 C517 1.425 . S
C512 C519 1.409 . S
C513 H505 0.930 . S
C513 C511 1.419 . S
C513 C514 1.362 . S
C514 H506 0.930 1_554 S
C514 C513 1.362 . S
C514 C517 1.409 . S
C515 H507 0.930 . S
C515 C516 1.355 . S
C515 C517 1.415 1_556 S
C516 C515 1.355 . S
C516 C518 1.419 1_556 S
C517 C512 1.425 . S
C517 C514 1.409 . S
C517 C515 1.415 1_554 S
C518 H508 0.930 . S
C518 C516 1.419 1_554 S
C518 C519 1.362 . S
C519 H509 0.930 . S
C519 C512 1.409 . S
C519 C518 1.362 . S
H520 C526 0.930 . S
H521 C529 0.930 . S
H522 C530 0.930 . S
H523 C531 0.930 . S
H524 C534 0.930 . S
H525 C535 0.930 . S
C526 H520 0.930 . S
C526 C527 1.355 . S
C526 C528 1.415 . S
C527 C526 1.355 . S
C527 C529 1.419 . S
C528 C526 1.415 . S
C528 C533 1.425 . S
C528 C535 1.409 . S
C529 H521 0.930 . S
C529 C527 1.419 . S
C529 C530 1.362 . S
C530 H522 0.930 . S
C530 C529 1.362 . S
C530 C533 1.409 . S
C531 H523 0.930 . S
C531 C532 1.355 . S
C531 C533 1.415 1_556 S
C532 C531 1.355 . S
C532 C534 1.419 . S
C533 C528 1.425 . S
C533 C530 1.409 . S
C533 C531 1.415 1_554 S
C534 H524 0.930 . S
C534 C532 1.419 . S
C534 C535 1.362 1_556 S
C535 H525 0.930 . S
C535 C528 1.409 . S
C535 C534 1.362 1_554 S
H536 C542 0.930 . S
H537 C545 0.937 . S
H538 C546 0.930 . S
H539 C547 0.930 . S
H540 C550 0.930 . S
H541 C551 0.930 . S
C542 H536 0.930 . S
C542 C543 1.355 . S
C542 C544 1.415 . S
C543 C542 1.355 . S
C543 C545 1.408 1_655 S
C544 C542 1.415 . S
C544 C549 1.425 . S
C544 C551 1.409 1_554 S
C545 H537 0.937 . S
C545 C543 1.408 1_455 S
C545 C546 1.367 . S
C546 H538 0.930 . S
C546 C545 1.367 . S
C546 C549 1.409 1_455 S
C547 H539 0.930 . S
C547 C548 1.355 1_454 S
C547 C549 1.415 1_455 S
C548 C547 1.355 1_656 S
C548 C550 1.419 . S
C549 C544 1.425 . S
C549 C546 1.409 1_655 S
C549 C547 1.415 1_655 S
C550 H540 0.930 . S
C550 C548 1.419 . S
C550 C551 1.362 . S
C551 H541 0.930 . S
C551 C544 1.409 1_556 S
C551 C550 1.362 . S
H552 C558 0.930 . S
H553 C561 0.932 . S
H554 C562 0.930 . S
H555 C563 0.930 . S
H556 C566 0.930 . S
H557 C567 0.930 . S
C558 H552 0.930 . S
C558 C559 1.355 . S
C558 C560 1.415 . S
C559 C558 1.355 . S
C559 C561 1.419 . S
C560 C558 1.415 . S
C560 C565 1.425 . S
C560 C567 1.409 . S
C561 H553 0.932 . S
C561 C559 1.419 . S
C561 C562 1.362 1_455 S
C562 H554 0.930 . S
C562 C561 1.362 1_655 S
C562 C565 1.409 1_655 S
C563 H555 0.930 . S
C563 C564 1.355 1_655 S
C563 C565 1.415 1_655 S
C564 C563 1.355 1_455 S
C564 C566 1.419 . S
C565 C560 1.425 . S
C565 C562 1.409 1_455 S
C565 C563 1.415 1_455 S
C566 H556 0.930 . S
C566 C564 1.419 . S
C566 C567 1.362 . S
C567 H557 0.930 . S
C567 C560 1.409 . S
C567 C566 1.362 . S
H568 C574 0.930 . S
H569 C577 0.930 . S
H570 C578 0.930 1_565 S
H571 C579 0.928 1_565 S
H572 C582 0.930 . S
H573 C583 0.930 . S
C574 H568 0.930 . S
C574 C575 1.355 . S
C574 C576 1.415 . S
C575 C574 1.355 . S
C575 C577 1.419 . S
C576 C574 1.415 . S
C576 C581 1.425 . S
C576 C583 1.409 . S
C577 H569 0.930 . S
C577 C575 1.419 . S
C577 C578 1.362 . S
C578 H570 0.930 1_545 S
C578 C577 1.362 . S
C578 C581 1.409 . S
C579 H571 0.928 1_545 S
C579 C580 1.355 . S
C579 C581 1.416 . S
C580 C579 1.355 . S
C580 C582 1.419 . S
C581 C576 1.425 . S
C581 C578 1.409 . S
C581 C579 1.416 . S
C582 H572 0.930 . S
C582 C580 1.419 . S
C582 C583 1.362 . S
C583 H573 0.930 . S
C583 C576 1.409 . S
C583 C582 1.362 . S
H584 C590 0.930 . S
H585 C593 0.930 . S
H586 C594 0.930 . S
H587 C595 0.930 . S
H588 C598 0.930 . S
H589 C599 0.930 . S
C590 H584 0.930 . S
C590 C591 1.355 . S
C590 C592 1.415 . S
C591 C590 1.355 . S
C591 C593 1.419 . S
C592 C590 1.415 . S
C592 C597 1.425 . S
C592 C599 1.409 . S
C593 H585 0.930 . S
C593 C591 1.419 . S
C593 C594 1.362 . S
C594 H586 0.930 . S
C594 C593 1.362 . S
C594 C597 1.409 . S
C595 H587 0.930 . S
C595 C596 1.355 . S
C595 C597 1.415 . S
C596 C595 1.355 . S
C596 C598 1.419 . S
C597 C592 1.425 . S
C597 C594 1.409 . S
C597 C595 1.415 . S
C598 H588 0.930 . S
C598 C596 1.419 . S
C598 C599 1.362 . S
C599 H589 0.930 . S
C599 C592 1.409 . S
C599 C598 1.362 . S
H600 C606 0.930 . S
H601 C609 0.930 . S
H602 C610 0.930 . S
H603 C611 0.930 . S
H604 C614 0.930 . S
H605 C615 0.930 . S
C606 H600 0.930 . S
C606 C607 1.355 . S
C606 C608 1.415 . S
C607 C606 1.355 . S
C607 C609 1.419 . S
C608 C606 1.415 . S
C608 C613 1.425 . S
C608 C615 1.409 . S
C609 H601 0.930 . S
C609 C607 1.419 . S
C609 C610 1.362 . S
C610 H602 0.930 . S
C610 C609 1.362 . S
C610 C613 1.409 . S
C611 H603 0.930 . S
C611 C612 1.355 . S
C611 C613 1.415 . S
C612 C611 1.355 . S
C612 C614 1.419 . S
C613 C608 1.425 . S
C613 C610 1.409 . S
C613 C611 1.415 . S
C614 H604 0.930 . S
C614 C612 1.419 . S
C614 C615 1.362 . S
C615 H605 0.930 . S
C615 C608 1.409 . S
C615 C614 1.362 . S
H616 C622 0.930 . S
H617 C625 0.930 . S
H618 C626 0.930 . S
H619 C627 0.930 . S
H620 C630 0.930 . S
H621 C631 0.930 . S
C622 H616 0.930 . S
C622 C623 1.355 1_455 S
C622 C624 1.415 . S
C623 C622 1.355 1_655 S
C623 C625 1.419 . S
C624 C622 1.415 . S
C624 C629 1.425 1_455 S
C624 C631 1.409 . S
C625 H617 0.930 . S
C625 C623 1.419 . S
C625 C626 1.362 . S
C626 H618 0.930 . S
C626 C625 1.362 . S
C626 C629 1.409 . S
C627 H619 0.930 . S
C627 C628 1.355 1_655 S
C627 C629 1.415 . S
C628 C627 1.355 1_455 S
C628 C630 1.419 . S
C629 C624 1.425 1_655 S
C629 C626 1.409 . S
C629 C627 1.415 . S
C630 H620 0.930 . S
C630 C628 1.419 . S
C630 C631 1.362 . S
C631 H621 0.930 . S
C631 C624 1.409 . S
C631 C630 1.362 . S
H632 C638 0.930 . S
H633 C641 0.929 1_545 S
H634 C642 0.930 . S
H635 C643 0.930 . S
H636 C646 0.931 . S
H637 C647 0.930 . S
C638 H632 0.930 . S
C638 C639 1.355 . S
C638 C640 1.415 . S
C639 C638 1.355 . S
C639 C641 1.422 . S
C640 C638 1.415 . S
C640 C645 1.425 1_565 S
C640 C647 1.409 . S
C641 H633 0.929 1_565 S
C641 C639 1.422 . S
C641 C642 1.360 1_565 S
C642 H634 0.930 . S
C642 C641 1.360 1_545 S
C642 C645 1.409 . S
C643 H635 0.930 . S
C643 C644 1.355 . S
C643 C645 1.415 . S
C644 C643 1.355 . S
C644 C646 1.416 1_545 S
C645 C640 1.425 1_545 S
C645 C642 1.409 . S
C645 C643 1.415 . S
C646 H636 0.931 . S
C646 C644 1.416 1_565 S
C646 C647 1.364 . S
C647 H637 0.930 . S
C647 C640 1.409 . S
C647 C646 1.364 . S
H648 C654 0.930 . S
H649 C657 0.930 . S
H650 C658 0.930 . S
H651 C659 0.930 . S
H652 C662 0.930 1_556 S
H653 C663 0.930 . S
C654 H648 0.930 . S
C654 C655 1.355 . S
C654 C656 1.415 . S
C655 C654 1.355 . S
C655 C657 1.419 . S
C656 C654 1.415 . S
C656 C661 1.425 . S
C656 C663 1.409 . S
C657 H649 0.930 . S
C657 C655 1.419 . S
C657 C658 1.362 . S
C658 H650 0.930 . S
C658 C657 1.362 . S
C658 C661 1.409 . S
C659 H651 0.930 . S
C659 C660 1.355 . S
C659 C661 1.415 . S
C660 C659 1.355 . S
C660 C662 1.419 . S
C661 C656 1.425 . S
C661 C658 1.409 . S
C661 C659 1.415 . S
C662 H652 0.930 1_554 S
C662 C660 1.419 . S
C662 C663 1.362 . S
C663 H653 0.930 . S
C663 C656 1.409 . S
C663 C662 1.362 . S
H664 C670 0.930 . S
H665 C673 0.930 . S
H666 C674 0.930 . S
H667 C675 0.930 . S
H668 C678 0.930 . S
H669 C679 0.930 . S
C670 H664 0.930 . S
C670 C671 1.355 . S
C670 C672 1.415 . S
C671 C670 1.355 . S
C671 C673 1.419 . S
C672 C670 1.415 . S
C672 C677 1.425 . S
C672 C679 1.409 . S
C673 H665 0.930 . S
C673 C671 1.419 . S
C673 C674 1.362 . S
C674 H666 0.930 . S
C674 C673 1.362 . S
C674 C677 1.409 . S
C675 H667 0.930 . S
C675 C676 1.355 . S
C675 C677 1.415 . S
C676 C675 1.355 . S
C676 C678 1.419 . S
C677 C672 1.425 . S
C677 C674 1.409 . S
C677 C675 1.415 . S
C678 H668 0.930 . S
C678 C676 1.419 . S
C678 C679 1.362 . S
C679 H669 0.930 . S
C679 C672 1.409 . S
C679 C678 1.362 . S
H680 C686 0.930 1_655 S
H681 C689 0.930 . S
H682 C690 0.930 . S
H683 C691 0.930 . S
H684 C694 0.930 . S
H685 C695 0.930 . S
C686 H680 0.930 1_455 S
C686 C687 1.355 . S
C686 C688 1.415 . S
C687 C686 1.355 . S
C687 C689 1.419 . S
C688 C686 1.415 . S
C688 C693 1.425 . S
C688 C695 1.409 1_455 S
C689 H681 0.930 . S
C689 C687 1.419 . S
C689 C690 1.362 . S
C690 H682 0.930 . S
C690 C689 1.362 . S
C690 C693 1.409 . S
C691 H683 0.930 . S
C691 C692 1.355 . S
C691 C693 1.415 . S
C692 C691 1.355 . S
C692 C694 1.419 1_455 S
C693 C688 1.425 . S
C693 C690 1.409 . S
C693 C691 1.415 . S
C694 H684 0.930 . S
C694 C692 1.419 1_655 S
C694 C695 1.362 . S
C695 H685 0.930 . S
C695 C688 1.409 1_655 S
C695 C694 1.362 . S
H696 C702 0.930 . S
H697 C705 0.927 1_554 S
H698 C706 0.930 . S
H699 C707 0.930 . S
H700 C710 0.932 . S
H701 C711 0.910 1_565 S
C702 H696 0.930 . S
C702 C703 1.355 . S
C702 C704 1.415 . S
C703 C702 1.355 . S
C703 C705 1.419 . S
C704 C702 1.415 . S
C704 C709 1.425 . S
C704 C711 1.409 . S
C705 H697 0.927 1_556 S
C705 C703 1.419 . S
C705 C706 1.362 . S
C706 H698 0.930 . S
C706 C705 1.362 . S
C706 C709 1.409 . S
C707 H699 0.930 . S
C707 C708 1.355 . S
C707 C709 1.415 . S
C708 C707 1.355 . S
C708 C710 1.419 . S
C709 C704 1.425 . S
C709 C706 1.409 . S
C709 C707 1.415 . S
C710 H700 0.932 . S
C710 C708 1.419 . S
C710 C711 1.362 . S
C711 H701 0.910 1_545 S
C711 C704 1.409 . S
C711 C710 1.362 . S
H712 C718 0.930 . S
H713 C721 0.930 1_554 S
H714 C722 0.930 1_554 S
H715 C723 0.930 . S
H716 C726 0.930 . S
H717 C727 0.930 . S
C718 H712 0.930 . S
C718 C719 1.355 . S
C718 C720 1.415 . S
C719 C718 1.355 . S
C719 C721 1.419 . S
C720 C718 1.415 . S
C720 C725 1.425 . S
C720 C727 1.409 . S
C721 H713 0.930 1_556 S
C721 C719 1.419 . S
C721 C722 1.362 . S
C722 H714 0.930 1_556 S
C722 C721 1.362 . S
C722 C725 1.409 . S
C723 H715 0.930 . S
C723 C724 1.355 . S
C723 C725 1.415 . S
C724 C723 1.355 . S
C724 C726 1.419 . S
C725 C720 1.425 . S
C725 C722 1.409 . S
C725 C723 1.415 . S
C726 H716 0.930 . S
C726 C724 1.419 . S
C726 C727 1.362 . S
C727 H717 0.930 . S
C727 C720 1.409 . S
C727 C726 1.362 . S
H728 C734 0.930 . S
H729 C737 0.930 . S
H730 C738 0.930 . S
H731 C739 0.930 . S
H732 C742 0.930 . S
H733 C743 0.930 1_554 S
C734 H728 0.930 . S
C734 C735 1.355 . S
C734 C736 1.415 . S
C735 C734 1.355 . S
C735 C737 1.419 . S
C736 C734 1.415 . S
C736 C741 1.425 . S
C736 C743 1.409 . S
C737 H729 0.930 . S
C737 C735 1.419 . S
C737 C738 1.362 . S
C738 H730 0.930 . S
C738 C737 1.362 . S
C738 C741 1.409 . S
C739 H731 0.930 . S
C739 C740 1.355 . S
C739 C741 1.415 . S
C740 C739 1.355 . S
C740 C742 1.419 . S
C741 C736 1.425 . S
C741 C738 1.409 . S
C741 C739 1.415 . S
C742 H732 0.930 . S
C742 C740 1.419 . S
C742 C743 1.362 . S
C743 H733 0.930 1_556 S
C743 C736 1.409 . S
C743 C742 1.362 . S
H744 C750 0.941 . S
H745 C753 0.930 . S
H746 C754 0.930 . S
H747 C755 0.930 . S
H748 C758 0.930 . S
H749 C759 0.930 . S
C750 H744 0.941 . S
C750 C751 1.345 1_455 S
C750 C752 1.414 1_455 S
C751 C750 1.345 1_655 S
C751 C753 1.419 . S
C752 C750 1.414 1_655 S
C752 C757 1.425 . S
C752 C759 1.409 1_655 S
C753 H745 0.930 . S
C753 C751 1.419 . S
C753 C754 1.362 . S
C754 H746 0.930 . S
C754 C753 1.362 . S
C754 C757 1.409 . S
C755 H747 0.930 . S
C755 C756 1.355 . S
C755 C757 1.415 . S
C756 C755 1.355 . S
C756 C758 1.419 1_655 S
C757 C752 1.425 . S
C757 C754 1.409 . S
C757 C755 1.415 . S
C758 H748 0.930 . S
C758 C756 1.419 1_455 S
C758 C759 1.362 . S
C759 H749 0.930 . S
C759 C752 1.409 1_455 S
C759 C758 1.362 . S
H760 C766 0.930 . S
H761 C769 0.926 1_545 S
H762 C770 0.930 . S
H763 C771 0.930 . S
H764 C774 0.930 . S
H765 C775 0.930 . S
C766 H760 0.930 . S
C766 C767 1.355 . S
C766 C768 1.415 . S
C767 C766 1.355 . S
C767 C769 1.426 . S
C768 C766 1.415 . S
C768 C773 1.425 . S
C768 C775 1.409 . S
C769 H761 0.926 1_565 S
C769 C767 1.426 . S
C769 C770 1.360 1_565 S
C770 H762 0.930 . S
C770 C769 1.360 1_545 S
C770 C773 1.409 1_545 S
C771 H763 0.930 . S
C771 C772 1.355 1_545 S
C771 C773 1.415 1_545 S
C772 C771 1.355 1_565 S
C772 C774 1.419 . S
C773 C768 1.425 . S
C773 C770 1.409 1_565 S
C773 C771 1.415 1_565 S
C774 H764 0.930 . S
C774 C772 1.419 . S
C774 C775 1.362 . S
C775 H765 0.930 . S
C775 C768 1.409 . S
C775 C774 1.362 . S
H776 C782 0.930 . S
H777 C785 0.930 . S
H778 C786 0.930 . S
H779 C787 0.930 . S
H780 C790 0.930 . S
H781 C791 0.930 . S
C782 H776 0.930 . S
C782 C783 1.355 . S
C782 C784 1.415 . S
C783 C782 1.355 . S
C783 C785 1.419 . S
C784 C782 1.415 . S
C784 C789 1.425 . S
C784 C791 1.409 . S
C785 H777 0.930 . S
C785 C783 1.419 . S
C785 C786 1.362 . S
C786 H778 0.930 . S
C786 C785 1.362 . S
C786 C789 1.409 . S
C787 H779 0.930 . S
C787 C788 1.355 . S
C787 C789 1.415 . S
C788 C787 1.355 . S
C788 C790 1.419 . S
C789 C784 1.425 . S
C789 C786 1.409 . S
C789 C787 1.415 . S
C790 H780 0.930 . S
C790 C788 1.419 . S
C790 C791 1.362 . S
C791 H781 0.930 . S
C791 C784 1.409 . S
C791 C790 1.362 . S
H792 C798 0.930 . S
H793 C801 0.930 . S
H794 C802 0.930 . S
H795 C803 0.930 . S
H796 C806 0.930 . S
H797 C807 0.930 . S
C798 H792 0.930 . S
C798 C799 1.355 . S
C798 C800 1.415 . S
C799 C798 1.355 . S
C799 C801 1.419 . S
C800 C798 1.415 . S
C800 C805 1.425 . S
C800 C807 1.409 . S
C801 H793 0.930 . S
C801 C799 1.419 . S
C801 C802 1.362 . S
C802 H794 0.930 . S
C802 C801 1.362 . S
C802 C805 1.409 . S
C803 H795 0.930 . S
C803 C804 1.355 . S
C803 C805 1.415 . S
C804 C803 1.355 . S
C804 C806 1.419 . S
C805 C800 1.425 . S
C805 C802 1.409 . S
C805 C803 1.415 . S
C806 H796 0.930 . S
C806 C804 1.419 . S
C806 C807 1.362 . S
C807 H797 0.930 . S
C807 C800 1.409 . S
C807 C806 1.362 . S
C431 C76 1.950 . S
C436 C156 2.066 . S
C452 C239 2.065 . S
C447 C87 1.885 . S
C468 C324 2.072 . S
C463 C54 1.886 . S
C484 C408 2.064 . S
C479 C65 1.886 . S
C500 C144 2.083 1_565 S
C495 C32 1.959 . S
C511 C43 1.882 . S
C516 C227 2.066 . S
C527 C10 1.892 . S
C532 C312 2.045 . S
C543 C21 1.946 . S
C548 C396 2.066 1_655 S
C564 C146 0.748 1_455 S
C559 C60 0.638 . S
C580 C242 0.610 . S
C575 C71 0.634 . S
C596 C314 0.627 . S
C591 C82 0.724 . S
C607 C49 0.627 . S
C612 C398 0.736 . S
C623 C16 0.718 . S
C628 C158 0.598 . S
C644 C230 0.556 . S
C639 C27 0.692 . S
C660 C326 0.618 . S
C655 C38 0.617 . S
C671 C5 0.627 . S
C676 C410 0.574 . S
C687 C59 1.942 . S
C692 C143 2.171 . S
C703 C70 1.917 . S
C708 C228 2.200 . S
C724 C311 2.181 . S
C719 C81 1.936 . S
C740 C395 2.211 . S
C735 C48 2.015 . S
C751 C15 1.995 . S
C756 C155 2.190 . S
C772 C240 2.203 1_565 S
C767 C26 1.909 . S
C788 C323 2.208 . S
C783 C37 2.008 . S
C799 C4 1.930 . S
C804 C407 2.184 . S
