# Generated by pormake.
# Topology sqc, (4,8)-cn, num edge types: 1
# Building blocks:
#     Node 0, Type 0, BuildingBlock: NAWXER_clean_linker_0, # of connection points: 4
#     Node 1, Type 0, BuildingBlock: NAWXER_clean_linker_0, # of connection points: 4
#     Node 2, Type 0, BuildingBlock: NAWXER_clean_linker_0, # of connection points: 4
#     Node 3, Type 0, BuildingBlock: NAWXER_clean_linker_0, # of connection points: 4
#     Node 4, Type 0, BuildingBlock: NAWXER_clean_linker_0, # of connection points: 4
#     Node 5, Type 0, BuildingBlock: NAWXER_clean_linker_0, # of connection points: 4
#     Node 6, Type 0, BuildingBlock: NAWXER_clean_linker_0, # of connection points: 4
#     Node 7, Type 0, BuildingBlock: NAWXER_clean_linker_0, # of connection points: 4
#     Node 8, Type 1, BuildingBlock: TAGTUT_clean_sbu_3, # of connection points: 8
#     Node 9, Type 1, BuildingBlock: TAGTUT_clean_sbu_3, # of connection points: 8
#     Node 10, Type 1, BuildingBlock: TAGTUT_clean_sbu_3, # of connection points: 8
#     Node 11, Type 1, BuildingBlock: TAGTUT_clean_sbu_3, # of connection points: 8
#     Edge 12, Type (0, 1), BuildingBlock: ZUJKAS_clean_linker_0, # of connection points: 2
#     Edge 13, Type (0, 1), BuildingBlock: ZUJKAS_clean_linker_0, # of connection points: 2
#     Edge 14, Type (0, 1), BuildingBlock: ZUJKAS_clean_linker_0, # of connection points: 2
#     Edge 15, Type (0, 1), BuildingBlock: ZUJKAS_clean_linker_0, # of connection points: 2
#     Edge 16, Type (0, 1), BuildingBlock: ZUJKAS_clean_linker_0, # of connection points: 2
#     Edge 17, Type (0, 1), BuildingBlock: ZUJKAS_clean_linker_0, # of connection points: 2
#     Edge 18, Type (0, 1), BuildingBlock: ZUJKAS_clean_linker_0, # of connection points: 2
#     Edge 19, Type (0, 1), BuildingBlock: ZUJKAS_clean_linker_0, # of connection points: 2
#     Edge 20, Type (0, 1), BuildingBlock: ZUJKAS_clean_linker_0, # of connection points: 2
#     Edge 21, Type (0, 1), BuildingBlock: ZUJKAS_clean_linker_0, # of connection points: 2
#     Edge 22, Type (0, 1), BuildingBlock: ZUJKAS_clean_linker_0, # of connection points: 2
#     Edge 23, Type (0, 1), BuildingBlock: ZUJKAS_clean_linker_0, # of connection points: 2
#     Edge 24, Type (0, 1), BuildingBlock: ZUJKAS_clean_linker_0, # of connection points: 2
#     Edge 25, Type (0, 1), BuildingBlock: ZUJKAS_clean_linker_0, # of connection points: 2
#     Edge 26, Type (0, 1), BuildingBlock: ZUJKAS_clean_linker_0, # of connection points: 2
#     Edge 27, Type (0, 1), BuildingBlock: ZUJKAS_clean_linker_0, # of connection points: 2
#     Edge 28, Type (0, 1), BuildingBlock: ZUJKAS_clean_linker_0, # of connection points: 2
#     Edge 29, Type (0, 1), BuildingBlock: ZUJKAS_clean_linker_0, # of connection points: 2
#     Edge 30, Type (0, 1), BuildingBlock: ZUJKAS_clean_linker_0, # of connection points: 2
#     Edge 31, Type (0, 1), BuildingBlock: ZUJKAS_clean_linker_0, # of connection points: 2
#     Edge 32, Type (0, 1), BuildingBlock: ZUJKAS_clean_linker_0, # of connection points: 2
#     Edge 33, Type (0, 1), BuildingBlock: ZUJKAS_clean_linker_0, # of connection points: 2
#     Edge 34, Type (0, 1), BuildingBlock: ZUJKAS_clean_linker_0, # of connection points: 2
#     Edge 35, Type (0, 1), BuildingBlock: ZUJKAS_clean_linker_0, # of connection points: 2
#     Edge 36, Type (0, 1), BuildingBlock: ZUJKAS_clean_linker_0, # of connection points: 2
#     Edge 37, Type (0, 1), BuildingBlock: ZUJKAS_clean_linker_0, # of connection points: 2
#     Edge 38, Type (0, 1), BuildingBlock: ZUJKAS_clean_linker_0, # of connection points: 2
#     Edge 39, Type (0, 1), BuildingBlock: ZUJKAS_clean_linker_0, # of connection points: 2
#     Edge 40, Type (0, 1), BuildingBlock: ZUJKAS_clean_linker_0, # of connection points: 2
#     Edge 41, Type (0, 1), BuildingBlock: ZUJKAS_clean_linker_0, # of connection points: 2
#     Edge 42, Type (0, 1), BuildingBlock: ZUJKAS_clean_linker_0, # of connection points: 2
#     Edge 43, Type (0, 1), BuildingBlock: ZUJKAS_clean_linker_0, # of connection points: 2
# Relax obj value: 0.136
# Max RMSD: 0.257
# Mean RMSD: 0.160
data_MOF--net-sqc--node1-TAGTUT_clean_sbu_3--node2-NAWXER_clean_linker_0--edge1-ZUJKAS_clean_linker_0
_symmetry_space_group_name_H-M    P1
_symmetry_Int_Tables_number       1
_symmetry_cell_setting            triclinic
loop_
_symmetry_equiv_pos_as_xyz
'x, y, z'
_cell_length_a     34.500613
_cell_length_b     34.494262
_cell_length_c     106.56112
_cell_angle_alpha  90.927741
_cell_angle_beta   90.069382
_cell_angle_gamma 90.062101
loop_
_atom_site_label
_atom_site_type_symbol
_atom_site_fract_x
_atom_site_fract_y
_atom_site_fract_z
_atom_type_partial_charge
C0 C 0.1774 0.99063 0.47502 0.0
C1 C 0.18092 0.95061 0.47255 0.0
C2 C 0.14376 0.00567 0.48055 0.0
C3 C 0.11325 0.98089 0.48389 0.0
C4 C 0.14988 0.92606 0.47561 0.0
C5 C 0.11635 0.94109 0.48118 0.0
C6 C 0.07808 0.9959 0.49025 0.0
C7 C 0.17908 0.01847 0.51635 0.0
C8 C 0.18579 0.05835 0.51837 0.0
C9 C 0.14448 0.00551 0.51086 0.0
C10 C 0.11611 0.03221 0.5072 0.0
C11 C 0.15704 0.08489 0.51479 0.0
C12 C 0.12246 0.0719 0.50935 0.0
C13 C 0.07948 0.01928 0.50127 0.0
C14 C 0.91492 0.00885 0.5191 0.0
C15 C 0.90798 0.04698 0.52337 0.0
C16 C 0.9484 -8e-05 0.5123 0.0
C17 C 0.97547 0.029 0.50953 0.0
C18 C 0.93556 0.07589 0.52078 0.0
C19 C 0.96912 0.06689 0.514 0.0
C20 C 0.01048 0.01975 0.50206 0.0
C21 C 0.90841 0.01126 0.47674 0.0
C22 C 0.90123 0.97438 0.4714 0.0
C23 C 0.94362 0.01939 0.48269 0.0
C24 C 0.97206 0.99051 0.48386 0.0
C25 C 0.93045 0.94597 0.47214 0.0
C26 C 0.96543 0.95396 0.47831 0.0
C27 C 0.00897 -0.00134 0.49059 0.0
H28 H 0.20044 0.01041 0.47253 0.0
H29 H 0.14161 0.03665 0.48222 0.0
H30 H 0.15175 0.89509 0.47389 0.0
H31 H 0.0931 0.92147 0.48362 0.0
H32 H 0.20026 0.99721 0.51921 0.0
H33 H 0.1398 0.97467 0.50952 0.0
H34 H 0.1614 0.1158 0.51605 0.0
H35 H 0.10087 0.09295 0.50662 0.0
H36 H 0.89477 0.98573 0.52116 0.0
H37 H 0.95319 0.97024 0.50921 0.0
H38 H 0.93098 0.10562 0.52383 0.0
H39 H 0.98974 0.0897 0.51202 0.0
H40 H 0.88674 0.03389 0.47644 0.0
H41 H 0.94847 0.04838 0.48642 0.0
H42 H 0.92656 0.91758 0.46784 0.0
H43 H 0.98717 0.9314 0.47886 0.0
N44 N 0.04284 0.98672 0.48527 0.0
N45 N 0.04563 0.03007 0.50681 0.0
C46 C 0.39883 0.59645 0.73818 0.0
C47 C 0.38615 0.5837 0.72628 0.0
C48 C 0.38053 0.62766 0.74421 0.0
C49 C 0.34954 0.64665 0.73838 0.0
C50 C 0.35489 0.60255 0.72054 0.0
C51 C 0.33699 0.63402 0.72649 0.0
C52 C 0.33169 0.68125 0.74423 0.0
C53 C 0.29224 0.57929 0.76564 0.0
C54 C 0.30737 0.57755 0.77787 0.0
C55 C 0.29498 0.61331 0.7588 0.0
C56 C 0.31322 0.64628 0.76398 0.0
C57 C 0.32507 0.61085 0.78313 0.0
C58 C 0.32778 0.64499 0.77626 0.0
C59 C 0.31687 0.68193 0.75655 0.0
C60 C 0.24315 0.84037 0.75946 0.0
C61 C 0.2583 0.85485 0.77085 0.0
C62 C 0.25689 0.80553 0.7543 0.0
C63 C 0.28609 0.78467 0.76041 0.0
C64 C 0.28663 0.83322 0.77715 0.0
C65 C 0.3002 0.79829 0.77201 0.0
C66 C 0.3027 0.74923 0.75463 0.0
C67 C 0.34311 0.84784 0.73029 0.0
C68 C 0.33283 0.84404 0.71756 0.0
C69 C 0.33706 0.8172 0.73848 0.0
C70 C 0.31987 0.78256 0.73413 0.0
C71 C 0.3151 0.80962 0.71328 0.0
C72 C 0.30875 0.77917 0.72149 0.0
C73 C 0.31711 0.74823 0.74221 0.0
H74 H 0.42289 0.58233 0.74277 0.0
H75 H 0.39108 0.63749 0.7533 0.0
H76 H 0.34493 0.59357 0.71129 0.0
H77 H 0.31336 0.64859 0.72181 0.0
H78 H 0.27748 0.55459 0.76142 0.0
H79 H 0.28255 0.61394 0.74947 0.0
H80 H 0.33711 0.61043 0.79251 0.0
H81 H 0.3418 0.67017 0.78045 0.0
H82 H 0.22132 0.85639 0.7544 0.0
H83 H 0.24509 0.79514 0.74543 0.0
H84 H 0.29832 0.84332 0.78606 0.0
H85 H 0.32248 0.78243 0.77693 0.0
H86 H 0.3574 0.87384 0.73378 0.0
H87 H 0.34714 0.82011 0.74808 0.0
H88 H 0.30664 0.80605 0.70354 0.0
H89 H 0.29573 0.75262 0.7179 0.0
N90 N 0.33096 0.71423 0.73751 0.0
N91 N 0.30321 0.71603 0.76138 0.0
C92 C 0.49141 0.01896 0.97211 0.0
C93 C 0.48905 0.0585 0.96934 0.0
C94 C 0.51946 0.00578 0.98045 0.0
C95 C 0.54583 0.03194 0.98599 0.0
C96 C 0.51382 0.08498 0.97546 0.0
C97 C 0.5424 0.07169 0.98363 0.0
C98 C 0.58055 0.01715 0.99238 0.0
C99 C 0.49132 -0.00141 0.02225 0.0
C100 C 0.48327 0.95975 0.02498 0.0
C101 C 0.521 0.00778 0.01393 0.0
C102 C 0.54332 0.97824 0.00831 0.0
C103 C 0.50436 0.93015 0.01891 0.0
C104 C 0.5345 0.93937 0.01074 0.0
C105 C 0.57904 0.98806 0.00148 0.0
C106 C 0.74436 0.96444 0.01628 0.0
C107 C 0.74431 0.92381 0.01717 0.0
C108 C 0.7135 0.98352 0.0106 0.0
C109 C 0.68233 0.96225 0.00555 0.0
C110 C 0.71333 0.90257 0.01196 0.0
C111 C 0.68255 0.92166 0.00623 0.0
C112 C 0.64775 0.98196 0.00061 0.0
C113 C 0.74357 0.01689 0.97402 0.0
C114 C 0.75076 0.05703 0.97411 0.0
C115 C 0.71122 0.00203 0.98018 0.0
C116 C 0.68564 0.02712 0.98652 0.0
C117 C 0.72553 0.08192 0.9807 0.0
C118 C 0.69307 0.0671 0.98676 0.0
C119 C 0.64938 0.01261 0.99202 0.0
H120 H 0.4725 0.99814 0.96746 0.0
H121 H 0.52211 0.97489 0.98191 0.0
H122 H 0.51255 0.11558 0.97336 0.0
H123 H 0.56278 0.09223 0.98771 0.0
H124 H 0.47532 0.02184 0.02682 0.0
H125 H 0.52783 0.03801 0.01243 0.0
H126 H 0.49877 0.89999 0.02096 0.0
H127 H 0.55168 0.9162 0.00661 0.0
H128 H 0.76745 0.98162 0.02046 0.0
H129 H 0.71339 0.01491 0.01059 0.0
H130 H 0.71265 0.87124 0.01246 0.0
H131 H 0.6586 0.90474 0.00248 0.0
H132 H 0.76266 0.99709 0.96902 0.0
H133 H 0.70559 0.97114 0.97969 0.0
H134 H 0.73011 0.113 0.98079 0.0
H135 H 0.67342 0.08692 0.99151 0.0
N136 N 0.61567 0.02872 0.98812 0.0
N137 N 0.61264 0.97118 0.00513 0.0
C138 C 0.28676 0.15016 0.22897 0.0
C139 C 0.24611 0.14985 0.22793 0.0
C140 C 0.30621 0.18325 0.23335 0.0
C141 C 0.28542 0.21664 0.23691 0.0
C142 C 0.22538 0.18335 0.23149 0.0
C143 C 0.24488 0.21646 0.23587 0.0
C144 C 0.30581 0.2523 0.24118 0.0
C145 C 0.33186 0.1677 0.27235 0.0
C146 C 0.37154 0.15977 0.27397 0.0
C147 C 0.31984 0.19649 0.26412 0.0
C148 C 0.3473 0.21766 0.25734 0.0
C149 C 0.39877 0.1801 0.26679 0.0
C150 C 0.38677 0.20896 0.25865 0.0
C151 C 0.33584 0.25212 0.25022 0.0
C152 C 0.35638 0.41908 0.26342 0.0
C153 C 0.39658 0.4201 0.26556 0.0
C154 C 0.33931 0.38717 0.2574 0.0
C155 C 0.36214 0.35588 0.25322 0.0
C156 C 0.41948 0.38898 0.26123 0.0
C157 C 0.40236 0.35708 0.25515 0.0
C158 C 0.34381 0.32025 0.24808 0.0
C159 C 0.32308 0.41309 0.22061 0.0
C160 C 0.28482 0.42695 0.22094 0.0
C161 C 0.33249 0.37801 0.2262 0.0
C162 C 0.30381 0.35609 0.23217 0.0
C163 C 0.25597 0.40456 0.2267 0.0
C164 C 0.26535 0.36918 0.23216 0.0
C165 C 0.31437 0.32049 0.23888 0.0
H166 H 0.30371 0.12522 0.22602 0.0
H167 H 0.33759 0.18299 0.23368 0.0
H168 H 0.19405 0.18401 0.23088 0.0
H169 H 0.22824 0.24194 0.2385 0.0
H170 H 0.31017 0.15292 0.27784 0.0
H171 H 0.28929 0.2034 0.26351 0.0
H172 H 0.42949 0.17422 0.26765 0.0
H173 H 0.40842 0.22513 0.25355 0.0
H174 H 0.33784 0.44217 0.2669 0.0
H175 H 0.30806 0.38636 0.25647 0.0
H176 H 0.45055 0.38905 0.26269 0.0
H177 H 0.42047 0.33306 0.25213 0.0
H178 H 0.34586 0.42977 0.21625 0.0
H179 H 0.36231 0.36818 0.22599 0.0
H180 H 0.22615 0.41435 0.22692 0.0
H181 H 0.24282 0.3526 0.2367 0.0
N182 N 0.29615 0.2866 0.23584 0.0
N183 N 0.35359 0.28606 0.25329 0.0
C184 C 0.90087 0.09327 0.23826 0.0
C185 C 0.89846 0.08744 0.22521 0.0
C186 C 0.88073 0.12385 0.24405 0.0
C187 C 0.85695 0.14823 0.23691 0.0
C188 C 0.87528 0.11223 0.21808 0.0
C189 C 0.85472 0.14225 0.22387 0.0
C190 C 0.83626 0.18167 0.24264 0.0
C191 C 0.787 0.07681 0.26037 0.0
C192 C 0.79268 0.07435 0.2734 0.0
C193 C 0.79433 0.11136 0.25418 0.0
C194 C 0.80849 0.14398 0.2608 0.0
C195 C 0.80617 0.10731 0.28005 0.0
C196 C 0.81389 0.14181 0.27381 0.0
C197 C 0.81632 0.18059 0.25421 0.0
C198 C 0.74053 0.33792 0.25679 0.0
C199 C 0.75322 0.35211 0.26853 0.0
C200 C 0.75605 0.30375 0.2517 0.0
C201 C 0.78448 0.28315 0.25826 0.0
C202 C 0.78106 0.33093 0.2752 0.0
C203 C 0.79632 0.29657 0.27015 0.0
C204 C 0.80261 0.2482 0.25266 0.0
C205 C 0.85023 0.34659 0.22885 0.0
C206 C 0.83938 0.34305 0.21614 0.0
C207 C 0.84231 0.31669 0.23718 0.0
C208 C 0.82334 0.283 0.2329 0.0
C209 C 0.81858 0.31008 0.21212 0.0
C210 C 0.81095 0.28022 0.2204 0.0
C211 C 0.82055 0.2485 0.2408 0.0
H212 H 0.91883 0.07464 0.24391 0.0
H213 H 0.88416 0.12864 0.25405 0.0
H214 H 0.87261 0.10802 0.20802 0.0
H215 H 0.83688 0.16078 0.21813 0.0
H216 H 0.77683 0.05204 0.25493 0.0
H217 H 0.78874 0.11258 0.24419 0.0
H218 H 0.81002 0.10673 0.29014 0.0
H219 H 0.8242 0.16678 0.27914 0.0
H220 H 0.71915 0.35365 0.25144 0.0
H221 H 0.74606 0.29354 0.24259 0.0
H222 H 0.79092 0.34086 0.28436 0.0
H223 H 0.81805 0.28094 0.27539 0.0
H224 H 0.86662 0.37148 0.23221 0.0
H225 H 0.85269 0.31905 0.24676 0.0
H226 H 0.80917 0.30684 0.20245 0.0
H227 H 0.79628 0.25437 0.21694 0.0
N228 N 0.83693 0.21544 0.23633 0.0
N229 N 0.80092 0.21415 0.25894 0.0
C230 C 0.76325 0.92504 0.73363 0.0
C231 C 0.77845 0.92734 0.72143 0.0
C232 C 0.76504 0.89039 0.74019 0.0
C233 C 0.78216 0.85738 0.73469 0.0
C234 C 0.79507 0.89395 0.71589 0.0
C235 C 0.79663 0.85921 0.72244 0.0
C236 C 0.78595 0.82129 0.74183 0.0
C237 C 0.86901 0.90772 0.75976 0.0
C238 C 0.86107 0.91585 0.77248 0.0
C239 C 0.85016 0.87715 0.75348 0.0
C240 C 0.82277 0.85443 0.75979 0.0
C241 C 0.83373 0.8929 0.77874 0.0
C242 C 0.81492 0.86249 0.77247 0.0
C243 C 0.80421 0.82039 0.75366 0.0
C244 C 0.81944 0.65128 0.76424 0.0
C245 C 0.81536 0.65346 0.77738 0.0
C246 C 0.81076 0.68323 0.75685 0.0
C247 C 0.79653 0.71754 0.76241 0.0
C248 C 0.80119 0.68797 0.78288 0.0
C249 C 0.79176 0.71951 0.77547 0.0
C250 C 0.79028 0.75292 0.75504 0.0
C251 C 0.71387 0.66005 0.73951 0.0
C252 C 0.71974 0.65081 0.72673 0.0
C253 C 0.72883 0.6943 0.74477 0.0
C254 C 0.7515 0.71942 0.73755 0.0
C255 C 0.73984 0.6777 0.71931 0.0
C256 C 0.7557 0.71141 0.72468 0.0
C257 C 0.77109 0.75379 0.74328 0.0
H258 H 0.74941 0.94986 0.73807 0.0
H259 H 0.7531 0.88935 0.74958 0.0
H260 H 0.80735 0.89476 0.70655 0.0
H261 H 0.80999 0.83402 0.71805 0.0
H262 H 0.88986 0.92491 0.75468 0.0
H263 H 0.85756 0.87082 0.74379 0.0
H264 H 0.82751 0.89781 0.78859 0.0
H265 H 0.79433 0.845 0.77757 0.0
H266 H 0.8299 0.62511 0.75964 0.0
H267 H 0.81595 0.68131 0.74684 0.0
H268 H 0.79856 0.69129 0.79296 0.0
H269 H 0.78147 0.74589 0.78001 0.0
H270 H 0.69868 0.64041 0.74561 0.0
H271 H 0.72346 0.70057 0.75461 0.0
H272 H 0.74377 0.67266 0.70935 0.0
H273 H 0.77214 0.73078 0.71879 0.0
N274 N 0.77014 0.78798 0.73705 0.0
N275 N 0.80559 0.78631 0.75976 0.0
C276 C 0.67987 0.47822 0.9785 0.0
C277 C 0.68643 0.43816 0.97691 0.0
C278 C 0.64557 0.49179 0.98399 0.0
C279 C 0.61732 0.46553 0.98805 0.0
C280 C 0.65769 0.41207 0.98085 0.0
C281 C 0.62338 0.42566 0.98627 0.0
C282 C 0.58137 0.47911 0.9942 0.0
C283 C 0.68257 0.50745 0.01919 0.0
C284 C 0.68625 0.54733 0.022 0.0
C285 C 0.64821 0.49252 0.01407 0.0
C286 C 0.61708 0.51724 0.01135 0.0
C287 C 0.65437 0.57168 0.01972 0.0
C288 C 0.62021 0.55678 0.01447 0.0
C289 C 0.58119 0.50251 0.00523 0.0
C290 C 0.41239 0.48936 0.01995 0.0
C291 C 0.40648 0.52605 0.02557 0.0
C292 C 0.44685 0.4809 0.01364 0.0
C293 C 0.47575 0.50933 0.01236 0.0
C294 C 0.43618 0.55398 0.0247 0.0
C295 C 0.47036 0.54572 0.01815 0.0
C296 C 0.512 0.50074 0.00535 0.0
C297 C 0.41606 0.49239 0.97732 0.0
C298 C 0.40738 0.45415 0.97354 0.0
C299 C 0.45033 0.50072 0.98383 0.0
C300 C 0.47658 0.47099 0.98666 0.0
C301 C 0.43401 0.42453 0.9762 0.0
C302 C 0.46851 0.43296 0.98259 0.0
C303 C 0.51233 0.47965 0.99387 0.0
H304 H 0.701 0.49915 0.97535 0.0
H305 H 0.6411 0.52274 0.98508 0.0
H306 H 0.6619 0.38105 0.97992 0.0
H307 H 0.60185 0.40496 0.98933 0.0
H308 H 0.70643 0.48775 0.02076 0.0
H309 H 0.64617 0.46167 0.01214 0.0
H310 H 0.65565 0.60232 0.02206 0.0
H311 H 0.59639 0.57635 0.01264 0.0
H312 H 0.39033 0.46708 0.02032 0.0
H313 H 0.4508 0.45197 0.00977 0.0
H314 H 0.43332 0.58219 0.0292 0.0
H315 H 0.49251 0.5679 0.01753 0.0
H316 H 0.39608 0.51577 0.97541 0.0
H317 H 0.45629 0.53041 0.98669 0.0
H318 H 0.42833 0.39489 0.97321 0.0
H319 H 0.48852 0.40967 0.98459 0.0
N320 N 0.54695 0.46882 0.98889 0.0
N321 N 0.54645 0.51217 0.01044 0.0
C322 C 0.98693 0.44494 0.51642 0.0
C323 C 0.98814 0.40695 0.52096 0.0
C324 C 0.015 0.45769 0.50801 0.0
C325 C 0.0444 0.43246 0.50384 0.0
C326 C 0.01673 0.38137 0.51645 0.0
C327 C 0.04464 0.39405 0.50798 0.0
C328 C 0.07804 0.44727 0.4968 0.0
C329 C 0.97952 0.46334 0.46965 0.0
C330 C 0.97283 0.50174 0.46598 0.0
C331 C 0.01206 0.4542 0.47683 0.0
C332 C 0.03831 0.48336 0.48056 0.0
C333 C -0.00124 0.53093 0.46994 0.0
C334 C 0.03123 0.52178 0.47711 0.0
C335 C 0.07514 0.47368 0.48687 0.0
C336 C 0.24073 0.4965 0.47094 0.0
C337 C 0.23996 0.53673 0.46898 0.0
C338 C 0.20975 0.47813 0.47681 0.0
C339 C 0.17775 0.49975 0.48103 0.0
C340 C 0.2078 0.55824 0.47319 0.0
C341 C 0.17696 0.53988 0.47912 0.0
C342 C 0.14394 0.48075 0.48679 0.0
C343 C 0.24243 0.45871 0.51377 0.0
C344 C 0.25086 0.41916 0.51529 0.0
C345 C 0.20911 0.47003 0.50735 0.0
C346 C 0.18384 0.44201 0.50225 0.0
C347 C 0.22576 0.39124 0.50998 0.0
C348 C 0.19243 0.40259 0.50361 0.0
C349 C 0.14689 0.45326 0.49639 0.0
H350 H 0.96557 0.46544 0.51989 0.0
H351 H 0.01486 0.48784 0.50533 0.0
H352 H 0.01809 0.35183 0.51972 0.0
H353 H 0.06721 0.37417 0.50498 0.0
H354 H 0.95994 0.44027 0.46679 0.0
H355 H 0.01735 0.42417 0.47909 0.0
H356 H 0.99478 0.56068 0.46711 0.0
H357 H 0.0513 0.54469 0.47976 0.0
H358 H 0.26519 0.47914 0.46788 0.0
H359 H 0.21058 0.44696 0.47784 0.0
H360 H 0.20599 0.58913 0.47163 0.0
H361 H 0.15232 0.55704 0.48217 0.0
H362 H 0.26082 0.48091 0.51794 0.0
H363 H 0.20251 0.50062 0.50669 0.0
H364 H 0.23169 0.36058 0.51085 0.0
H365 H 0.17315 0.38054 0.49979 0.0
N366 N 0.11385 0.43777 0.50105 0.0
N367 N 0.10819 0.4897 0.48236 0.0
C368 C 0.12685 0.68929 0.14029 0.0
C369 C 0.99083 0.62492 0.13224 0.0
C370 C 0.99661 0.68434 0.09704 0.0
Mg371 Mg 0.1619 0.76937 0.13008 0.0
Mg372 Mg 0.10825 0.84029 0.11911 0.0
O373 O 0.11918 0.78738 0.11879 0.0
Mg374 Mg 0.07919 0.74779 0.12279 0.0
O375 O 0.04277 0.70504 0.1269 0.0
Mg376 Mg 0.06877 0.66134 0.11745 0.0
Mg377 Mg 0.98959 0.71135 0.12432 0.0
C378 C 0.03587 0.80927 0.10369 0.0
O379 O 0.04487 0.78684 0.13641 0.0
O380 O 0.20136 0.81418 0.12002 0.0
O381 O 0.98326 0.76458 0.13539 0.0
O382 O 0.14781 0.81556 0.14579 0.0
O383 O 0.16242 0.8592 0.11164 0.0
O384 O 0.10494 0.85779 0.13832 0.0
O385 O 0.11084 0.70661 0.1092 0.0
O386 O 0.17136 0.72392 0.11455 0.0
C387 C 0.14775 0.70269 0.10812 0.0
C388 C 0.19607 0.84461 0.11341 0.0
O389 O 0.0404 0.77441 0.10753 0.0
O390 O 0.02478 0.62099 0.12741 0.0
O391 O 0.05701 0.83788 0.10741 0.0
O392 O 0.02616 0.66461 0.10044 0.0
O393 O 0.97228 0.65707 0.13211 0.0
O394 O 0.97995 0.70842 0.10446 0.0
O395 O 0.1188 0.7249 0.13814 0.0
O396 O 0.11059 0.66138 0.13414 0.0
C397 C 0.12558 0.84506 0.14729 0.0
C398 C 0.00889 0.78876 0.13945 0.0
C399 C 0.64486 0.79366 0.38984 0.0
C400 C 0.69009 0.64972 0.38156 0.0
C401 C 0.63131 0.66291 0.34611 0.0
Mg402 Mg 0.5689 0.83853 0.37939 0.0
Mg403 Mg 0.49106 0.79201 0.36911 0.0
O404 O 0.54487 0.79713 0.3684 0.0
Mg405 Mg 0.57943 0.75285 0.37247 0.0
O406 O 0.61745 0.71139 0.37643 0.0
Mg407 Mg 0.66335 0.73142 0.36692 0.0
Mg408 Mg 0.60418 0.65957 0.37328 0.0
C409 C 0.51126 0.71571 0.35368 0.0
O410 O 0.53765 0.72421 0.38633 0.0
O411 O 0.52831 0.882 0.36905 0.0
O412 O 0.54955 0.66028 0.38343 0.0
O413 O 0.52196 0.83193 0.39511 0.0
O414 O 0.4773 0.84767 0.36176 0.0
O415 O 0.4753 0.79171 0.38842 0.0
O416 O 0.62313 0.77833 0.3587 0.0
O417 O 0.61469 0.84104 0.36397 0.0
C418 C 0.63211 0.81427 0.35765 0.0
C419 C 0.49612 0.87955 0.36296 0.0
O420 O 0.54676 0.71652 0.3574 0.0
O421 O 0.69813 0.68277 0.37676 0.0
O422 O 0.48568 0.74024 0.35745 0.0
O423 O 0.65435 0.69004 0.34967 0.0
O424 O 0.65579 0.63535 0.38135 0.0
O425 O 0.60581 0.64918 0.35345 0.0
O426 O 0.60834 0.79087 0.38761 0.0
O427 O 0.66949 0.77283 0.38374 0.0
C428 C 0.49057 0.81294 0.397 0.0
C429 C 0.52994 0.68835 0.38833 0.0
C430 C 0.6152 0.1817 0.64143 0.0
C431 C 0.47419 0.13563 0.63516 0.0
C432 C 0.48335 0.18936 0.59886 0.0
Mg433 Mg 0.66078 0.25511 0.63114 0.0
Mg434 Mg 0.61984 0.33169 0.61851 0.0
O435 O 0.62249 0.27775 0.6191 0.0
Mg436 Mg 0.57681 0.24485 0.62319 0.0
O437 O 0.5345 0.20832 0.62751 0.0
Mg438 Mg 0.55437 0.16055 0.61879 0.0
Mg439 Mg 0.48184 0.22031 0.62615 0.0
C440 C 0.54499 0.31029 0.60269 0.0
O441 O 0.54858 0.28843 0.63668 0.0
O442 O 0.70743 0.29246 0.62121 0.0
O443 O 0.48413 0.27673 0.63583 0.0
O444 O 0.65043 0.30477 0.6463 0.0
O445 O 0.6774 0.34218 0.61191 0.0
O446 O 0.61555 0.35142 0.63735 0.0
O447 O 0.60274 0.1988 0.61003 0.0
O448 O 0.66481 0.20716 0.61601 0.0
C449 C 0.63882 0.18954 0.60938 0.0
C450 C 0.70803 0.32275 0.61434 0.0
O451 O 0.54339 0.27598 0.60729 0.0
O452 O 0.50567 0.12721 0.62926 0.0
O453 O 0.57032 0.33558 0.60615 0.0
O454 O 0.51285 0.16881 0.60179 0.0
O455 O 0.46036 0.1701 0.6356 0.0
O456 O 0.46789 0.2131 0.60668 0.0
O457 O 0.61176 0.21774 0.6389 0.0
O458 O 0.59533 0.15576 0.63554 0.0
C459 C 0.63221 0.33723 0.64691 0.0
C460 C 0.5135 0.29657 0.63972 0.0
C461 C 0.13893 0.31317 0.8863 0.0
C462 C 0.20306 0.17671 0.88171 0.0
C463 C 0.13612 0.16876 0.84736 0.0
Mg464 Mg 0.0561 0.34385 0.87591 0.0
Mg465 Mg 0.98437 0.28447 0.86812 0.0
O466 O 0.03678 0.297 0.86644 0.0
Mg467 Mg 0.07767 0.25958 0.87113 0.0
O468 O 0.12152 0.22542 0.87576 0.0
Mg469 Mg 0.16279 0.24809 0.86477 0.0
Mg470 Mg 0.11553 0.17167 0.8752 0.0
C471 C 0.01392 0.20804 0.85444 0.0
O472 O 0.04151 0.22956 0.88641 0.0
O473 O 0.00834 0.37795 0.86514 0.0
O474 O 0.0632 0.16787 0.88634 0.0
O475 O 0.01311 0.3353 0.8925 0.0
O476 O 0.96299 0.33469 0.85887 0.0
O477 O 0.96998 0.28928 0.88753 0.0
O478 O 0.11591 0.28698 0.85618 0.0
O479 O 0.09908 0.34885 0.85972 0.0
C480 C 0.11985 0.32327 0.85401 0.0
C481 C 0.97693 0.36913 0.85921 0.0
O482 O 0.04948 0.21583 0.85713 0.0
O483 O 0.20578 0.20789 0.8753 0.0
O484 O 0.98542 0.22852 0.85854 0.0
O485 O 0.15533 0.20022 0.84915 0.0
O486 O 0.17099 0.15848 0.88305 0.0
O487 O 0.11532 0.15425 0.85598 0.0
O488 O 0.10288 0.30451 0.88495 0.0
O489 O 0.1656 0.29508 0.88018 0.0
C490 C 0.98414 0.31388 0.89534 0.0
C491 C 0.03978 0.19439 0.8902 0.0
H492 H 0.18594 0.89569 0.45385 0.0
H493 H 0.24447 0.86986 0.44389 0.0
H494 H 0.31503 0.94393 0.46758 0.0
H495 H 0.25654 0.96939 0.47782 0.0
H496 H 0.29994 0.91498 0.43103 0.0
H497 H 0.36596 0.83536 0.4707 0.0
H498 H 0.3155 0.84931 0.4705 0.0
H499 H 0.35224 0.88485 0.47389 0.0
C500 C 0.21391 0.90608 0.45708 0.0
C501 C 0.21659 0.93454 0.46664 0.0
C502 C 0.24731 0.8914 0.45135 0.0
C503 C 0.28406 0.90464 0.45511 0.0
C504 C 0.28696 0.93288 0.46468 0.0
H505 H 0.50224 0.86925 0.41513 0.0
H506 H 0.45543 0.89052 0.4311 0.0
C507 C 0.25351 0.94771 0.47041 0.0
C508 C 0.31901 0.89042 0.44842 0.0
H509 H 0.40197 0.83735 0.45179 0.0
C510 C 0.3223 0.89815 0.43558 0.0
C511 C 0.34814 0.86852 0.45441 0.0
C512 C 0.34537 0.85867 0.46812 0.0
C513 C 0.35379 0.88431 0.42854 0.0
C514 C 0.38259 0.86197 0.43447 0.0
C515 C 0.37979 0.85464 0.44734 0.0
C516 C 0.41444 0.84456 0.42706 0.0
C517 C 0.35596 0.89312 0.41473 0.0
C518 C 0.40739 0.81084 0.41992 0.0
C519 C 0.43386 0.79865 0.4108 0.0
C520 C 0.46789 0.8201 0.40862 0.0
C521 C 0.47635 0.85208 0.41654 0.0
C522 C 0.44967 0.86431 0.42567 0.0
H523 H 0.33331 0.91401 0.41182 0.0
H524 H 0.38488 0.90521 0.41242 0.0
H525 H 0.35222 0.86587 0.40917 0.0
H526 H 0.38022 0.79539 0.42087 0.0
H527 H 0.42645 0.77377 0.40494 0.0
H528 H 0.36719 0.83511 0.69472 0.0
H529 H 0.38698 0.88581 0.68031 0.0
H530 H 0.34062 0.97291 0.70561 0.0
H531 H 0.32138 0.9222 0.72022 0.0
H532 H 0.34608 0.94025 0.6679 0.0
H533 H 0.45039 0.01073 0.70081 0.0
H534 H 0.42892 0.96409 0.7038 0.0
H535 H 0.40199 0.00785 0.70687 0.0
C536 C 0.36094 0.86506 0.69717 0.0
C537 C 0.34288 0.8748 0.7086 0.0
C538 C 0.37235 0.89397 0.68894 0.0
C539 C 0.36585 0.93314 0.69199 0.0
C540 C 0.34678 0.94291 0.70323 0.0
H541 H 0.41506 0.14452 0.65203 0.0
H542 H 0.38629 0.09491 0.66523 0.0
C543 C 0.33569 0.91399 0.71154 0.0
C544 C 0.37944 0.96357 0.68339 0.0
H545 H 0.43886 0.04252 0.68161 0.0
C546 C 0.36639 0.96259 0.67089 0.0
C547 C 0.40617 0.99251 0.68731 0.0
C548 C 0.42301 0.99375 0.70039 0.0
C549 C 0.37917 0.99 0.66223 0.0
C550 C 0.40552 0.01899 0.66621 0.0
C551 C 0.41841 0.02022 0.67868 0.0
C552 C 0.42076 0.04805 0.6575 0.0
C553 C 0.36444 0.98809 0.64891 0.0
C554 C 0.44946 0.03781 0.64877 0.0
C555 C 0.46624 0.06609 0.64125 0.0
C556 C 0.45442 0.10503 0.64234 0.0
C557 C 0.42481 0.11483 0.6509 0.0
C558 C 0.40833 0.0866 0.65847 0.0
H559 H 0.34045 0.96683 0.64771 0.0
H560 H 0.35413 0.01708 0.646 0.0
H561 H 0.3885 0.9795 0.64255 0.0
H562 H 0.45953 0.00813 0.64799 0.0
H563 H 0.4889 0.05752 0.63475 0.0
H564 H 0.48961 0.03337 0.94519 0.0
H565 H 0.44864 0.05529 0.92796 0.0
H566 H 0.38924 0.13335 0.95351 0.0
H567 H 0.43175 0.11278 0.97063 0.0
H568 H 0.37561 0.04843 0.92459 0.0
H569 H 0.40872 0.20506 0.92545 0.0
H570 H 0.43665 0.17073 0.93429 0.0
H571 H 0.39192 0.19 0.94051 0.0
C572 C 0.46788 0.05537 0.94706 0.0
C573 C 0.46357 0.07147 0.95915 0.0
C574 C 0.44462 0.06795 0.93724 0.0
C575 C 0.41633 0.09651 0.93937 0.0
C576 C 0.4117 0.11224 0.95154 0.0
H577 H 0.20431 0.12449 0.90055 0.0
H578 H 0.25953 0.10436 0.91297 0.0
C579 C 0.43559 0.10023 0.96133 0.0
C580 C 0.39012 0.10793 0.92905 0.0
H581 H 0.34936 0.18613 0.91498 0.0
C582 C 0.37036 0.07856 0.92237 0.0
C583 C 0.38392 0.14715 0.92589 0.0
C584 C 0.40681 0.17995 0.93183 0.0
C585 C 0.34323 0.08736 0.91307 0.0
C586 C 0.33449 0.12664 0.91073 0.0
C587 C 0.35563 0.156 0.91692 0.0
C588 C 0.30158 0.13783 0.90265 0.0
C589 C 0.3242 0.05439 0.90589 0.0
C590 C 0.3066 0.16435 0.89292 0.0
C591 C 0.27473 0.17664 0.8859 0.0
C592 C 0.23741 0.16244 0.8885 0.0
C593 C 0.23269 0.13559 0.89817 0.0
C594 C 0.26434 0.1238 0.90525 0.0
H595 H 0.34366 0.02879 0.90526 0.0
H596 H 0.29761 0.04535 0.91091 0.0
H597 H 0.3161 0.06294 0.89623 0.0
H598 H 0.33509 0.17579 0.89083 0.0
H599 H 0.27927 0.19742 0.87853 0.0
H600 H 0.18587 0.14882 0.21122 0.0
H601 H 0.15645 0.0925 0.20079 0.0
H602 H 0.23192 0.01673 0.22134 0.0
H603 H 0.26075 0.07293 0.23214 0.0
H604 H 0.19942 0.04278 0.18575 0.0
H605 H 0.12639 0.96142 0.22354 0.0
H606 H 0.14019 0.01176 0.22531 0.0
H607 H 0.17594 0.97428 0.22681 0.0
C608 C 0.19552 0.12016 0.21379 0.0
C609 C 0.22576 0.11541 0.2225 0.0
C610 C 0.17877 0.088 0.20778 0.0
C611 C 0.1917 0.05042 0.21038 0.0
C612 C 0.22099 0.04541 0.21935 0.0
H613 H 0.17375 0.83543 0.16761 0.0
H614 H 0.18595 0.88285 0.18456 0.0
C615 C 0.2378 0.0776 0.22539 0.0
C616 C 0.17777 0.01714 0.20264 0.0
H617 H 0.13274 0.92885 0.20372 0.0
C618 C 0.18462 0.01802 0.18968 0.0
C619 C 0.1587 0.98475 0.20781 0.0
C620 C 0.14951 0.98296 0.22162 0.0
C621 C 0.17333 0.98728 0.18175 0.0
C622 C 0.15426 0.95492 0.18689 0.0
C623 C 0.14742 0.95377 0.19985 0.0
C624 C 0.14122 0.92251 0.17868 0.0
C625 C 0.18227 0.98941 0.16791 0.0
C626 C 0.11101 0.92851 0.17015 0.0
C627 C 0.10426 0.90185 0.16042 0.0
C628 C 0.12737 0.86842 0.15909 0.0
C629 C 0.15548 0.86088 0.16832 0.0
C630 C 0.16243 0.88786 0.17804 0.0
H631 H 0.20335 0.01281 0.16583 0.0
H632 H 0.19415 0.9614 0.16437 0.0
H633 H 0.15513 0.99529 0.16268 0.0
H634 H 0.09426 0.95507 0.17055 0.0
H635 H 0.08253 0.90879 0.15349 0.0
H636 H 0.25982 0.03123 0.51467 0.0
H637 H 0.31946 0.05382 0.52497 0.0
H638 H 0.25422 0.13994 0.54568 0.0
H639 H 0.19446 0.11711 0.53572 0.0
H640 H 0.32736 0.16611 0.53317 0.0
H641 H 0.34347 0.03665 0.56339 0.0
H642 H 0.33566 0.02873 0.54684 0.0
H643 H 0.29772 0.04928 0.5563 0.0
C644 C 0.2581 0.05476 0.52149 0.0
C645 C 0.22229 0.07229 0.52438 0.0
C646 C 0.29222 0.06773 0.52731 0.0
C647 C 0.2911 0.09843 0.53609 0.0
C648 C 0.25562 0.11632 0.53887 0.0
H649 H 0.41968 0.22642 0.58958 0.0
H650 H 0.37942 0.20582 0.57196 0.0
C651 C 0.22153 0.1033 0.53312 0.0
C652 C 0.32658 0.11156 0.54269 0.0
H653 H 0.38805 0.08726 0.56637 0.0
C654 C 0.34099 0.14877 0.54034 0.0
C655 C 0.34441 0.08865 0.55193 0.0
C656 C 0.3296 0.04865 0.55488 0.0
C657 C 0.37226 0.16415 0.54725 0.0
C658 C 0.3888 0.14207 0.55696 0.0
C659 C 0.3754 0.10418 0.55892 0.0
C660 C 0.41706 0.15878 0.56606 0.0
C661 C 0.38718 0.20391 0.54412 0.0
C662 C 0.45205 0.13961 0.56855 0.0
C663 C 0.4752 0.15124 0.57873 0.0
C664 C 0.46352 0.18203 0.58668 0.0
C665 C 0.42966 0.20263 0.58367 0.0
C666 C 0.40662 0.19102 0.57351 0.0
H667 H 0.38094 0.21117 0.5342 0.0
H668 H 0.37255 0.22586 0.55018 0.0
H669 H 0.41892 0.20595 0.54572 0.0
H670 H 0.46059 0.11457 0.56295 0.0
H671 H 0.50111 0.13476 0.58074 0.0
H672 H 0.18385 0.88155 0.7728 0.0
H673 H 0.1619 0.94242 0.78252 0.0
H674 H 0.28052 0.97411 0.79046 0.0
H675 H 0.30261 0.91321 0.78084 0.0
H676 H 0.23482 0.97969 0.81093 0.0
H677 H 0.16442 0.05445 0.77129 0.0
H678 H 0.14675 0.00607 0.77349 0.0
H679 H 0.19644 0.01353 0.76902 0.0
C680 C 0.20525 0.90181 0.77643 0.0
C681 C 0.24493 0.89256 0.77612 0.0
C682 C 0.19269 0.93667 0.78192 0.0
C683 C 0.21961 0.96308 0.78704 0.0
C684 C 0.25928 0.95421 0.78651 0.0
H685 H 0.18811 0.18134 0.82833 0.0
H686 H 0.20678 0.13479 0.81179 0.0
C687 C 0.27182 0.91932 0.7811 0.0
C688 C 0.20636 0.99806 0.79404 0.0
H689 H 0.15096 0.07988 0.79194 0.0
C690 C 0.21691 0.00181 0.80672 0.0
C691 C 0.183 0.02693 0.78852 0.0
C692 C 0.17227 0.02533 0.7748 0.0
C693 C 0.20391 0.03304 0.81412 0.0
C694 C 0.17954 0.06111 0.80873 0.0
C695 C 0.16958 0.05808 0.796 0.0
C696 C 0.16308 0.09259 0.81657 0.0
C697 C 0.21562 0.03555 0.82777 0.0
C698 C 0.13152 0.08462 0.82435 0.0
C699 C 0.12104 0.1108 0.83385 0.0
C700 C 0.14184 0.14557 0.83569 0.0
C701 C 0.17151 0.15484 0.82719 0.0
C702 C 0.18218 0.12837 0.81771 0.0
H703 H 0.23801 0.01376 0.83017 0.0
H704 H 0.22701 0.06493 0.83008 0.0
H705 H 0.1898 0.03065 0.83375 0.0
H706 H 0.11656 0.05704 0.82359 0.0
H707 H 0.09795 0.1027 0.84017 0.0
H708 H 0.42235 0.90951 0.02333 0.0
H709 H 0.37635 0.89319 0.03997 0.0
H710 H 0.43676 0.97031 0.06563 0.0
H711 H 0.48162 0.98783 0.04889 0.0
H712 H 0.38745 0.8597 0.06175 0.0
H713 H 0.32815 0.00691 0.07059 0.0
H714 H 0.35862 0.99566 0.0573 0.0
H715 H 0.37973 0.00479 0.07253 0.0
C716 C 0.42543 0.92316 0.03251 0.0
C717 C 0.45502 0.95026 0.03484 0.0
C718 C 0.3993 0.91383 0.04199 0.0
C719 C 0.40268 0.93109 0.05398 0.0
C720 C 0.43282 0.95756 0.05637 0.0
H721 H 0.27376 0.83069 0.1168 0.0
H722 H 0.32729 0.8537 0.10378 0.0
C723 C 0.45848 0.96743 0.04683 0.0
C724 C 0.37519 0.9206 0.06404 0.0
H725 H 0.30997 0.95835 0.08493 0.0
C726 C 0.37044 0.88124 0.06681 0.0
C727 C 0.3529 0.94878 0.07058 0.0
C728 C 0.35477 0.99133 0.06752 0.0
C729 C 0.34351 0.86916 0.07579 0.0
C730 C 0.32175 0.89739 0.0825 0.0
C731 C 0.32704 0.9368 0.07989 0.0
C732 C 0.29063 0.88657 0.09134 0.0
C733 C 0.33749 0.82622 0.07756 0.0
C734 C 0.25268 0.89922 0.08911 0.0
C735 C 0.22232 0.88693 0.09667 0.0
C736 C 0.22919 0.86137 0.10657 0.0
C737 C 0.26748 0.85002 0.10915 0.0
C738 C 0.29804 0.86288 0.10167 0.0
H739 H 0.34923 0.80884 0.06956 0.0
H740 H 0.35279 0.81712 0.08618 0.0
H741 H 0.30624 0.81925 0.07859 0.0
H742 H 0.24629 0.91764 0.08123 0.0
H743 H 0.19322 0.89631 0.0944 0.0
H744 H 0.43296 0.16751 0.29004 0.0
H745 H 0.45479 0.12198 0.30586 0.0
H746 H 0.36056 0.04494 0.29608 0.0
H747 H 0.33943 0.08957 0.27983 0.0
H748 H 0.41618 0.09493 0.32659 0.0
H749 H 0.45443 0.97384 0.29403 0.0
H750 H 0.44543 0.02239 0.28869 0.0
H751 H 0.40559 0.99067 0.29219 0.0
C752 C 0.41726 0.14055 0.29108 0.0
C753 C 0.38471 0.13194 0.28356 0.0
C754 C 0.42957 0.11477 0.30022 0.0
C755 C 0.40963 0.07989 0.30201 0.0
C756 C 0.37679 0.07141 0.29467 0.0
H757 H 0.42647 0.88666 0.35109 0.0
H758 H 0.40578 0.93838 0.33732 0.0
C759 C 0.36452 0.09711 0.28548 0.0
C760 C 0.42298 0.0526 0.31167 0.0
H761 H 0.45325 0.95956 0.31579 0.0
C762 C 0.42454 0.0654 0.32424 0.0
C763 C 0.43414 0.01422 0.30853 0.0
C764 C 0.43522 -0.00049 0.29512 0.0
C765 C 0.43592 0.04036 0.33383 0.0
C766 C 0.44613 0.0018 0.3307 0.0
C767 C 0.44512 0.98919 0.31812 0.0
C768 C 0.45703 0.97343 0.3403 0.0
C769 C 0.43605 0.05487 0.34726 0.0
C770 C 0.49245 0.97653 0.34673 0.0
C771 C 0.50455 0.94687 0.35464 0.0
C772 C 0.48143 0.91363 0.35615 0.0
C773 C 0.44518 0.91166 0.35009 0.0
C774 C 0.43322 0.94119 0.34222 0.0
H775 H 0.42153 0.08347 0.34831 0.0
H776 H 0.42135 0.03375 0.35341 0.0
H777 H 0.46645 0.05793 0.35055 0.0
H778 H 0.51137 0.0011 0.34524 0.0
H779 H 0.53265 0.94927 0.35913 0.0
H780 H 0.90138 0.0953 0.54386 0.0
H781 H 0.84305 0.1107 0.55589 0.0
H782 H 0.77579 0.03503 0.53173 0.0
H783 H 0.83397 0.02 0.5194 0.0
H784 H 0.76969 0.14197 0.5459 0.0
H785 H 0.75521 -0.00143 0.56885 0.0
H786 H 0.80047 0.01455 0.56216 0.0
H787 H 0.76142 -0.00037 0.55207 0.0
C788 C 0.87416 0.08224 0.54098 0.0
C789 C 0.87239 0.05642 0.53065 0.0
C790 C 0.84091 0.0909 0.54791 0.0
C791 C 0.80529 0.07377 0.54473 0.0
C792 C 0.80317 0.04815 0.53441 0.0
H793 H 0.60604 0.1708 0.58659 0.0
H794 H 0.63795 0.13555 0.56923 0.0
C795 C 0.83646 0.03954 0.52741 0.0
C796 C 0.77061 0.08319 0.55231 0.0
H797 H 0.71342 0.0483 0.57569 0.0
C798 C 0.75673 0.12136 0.55224 0.0
C799 C 0.75403 0.0561 0.56055 0.0
C800 C 0.76846 0.01489 0.56104 0.0
C801 C 0.72795 0.13378 0.56067 0.0
C802 C 0.71247 0.10713 0.56929 0.0
C803 C 0.72505 0.06844 0.56895 0.0
C804 C 0.68879 0.12071 0.58005 0.0
C805 C 0.71624 0.17596 0.56087 0.0
C806 C 0.70591 0.1221 0.59198 0.0
C807 C 0.68796 0.14214 0.60181 0.0
C808 C 0.65238 0.16095 0.59992 0.0
C809 C 0.63348 0.15658 0.58829 0.0
C810 C 0.65174 0.13668 0.57836 0.0
H811 H 0.73408 0.19362 0.55443 0.0
H812 H 0.68544 0.17847 0.55799 0.0
H813 H 0.719 0.18835 0.57052 0.0
H814 H 0.73444 0.10986 0.59347 0.0
H815 H 0.70298 0.14469 0.61073 0.0
H816 H 0.73147 0.02535 0.26896 0.0
H817 H 0.71239 0.96893 0.281 0.0
H818 H 0.81104 0.98568 0.30537 0.0
H819 H 0.83154 0.04126 0.293 0.0
H820 H 0.79292 0.90524 0.29957 0.0
H821 H 0.66565 0.99117 0.31592 0.0
H822 H 0.67006 0.98575 0.29919 0.0
H823 H 0.70596 0.01286 0.30787 0.0
C824 C 0.74975 0.01656 0.27667 0.0
C825 C 0.78286 0.03817 0.2801 0.0
C826 C 0.73861 0.98441 0.28359 0.0
C827 C 0.76002 0.97354 0.29415 0.0
C828 C 0.79409 0.99374 0.29725 0.0
H829 H 0.6832 0.87271 0.36103 0.0
H830 H 0.72072 0.90465 0.34479 0.0
C831 C 0.80545 0.02578 0.29028 0.0
C832 C 0.74475 0.94389 0.30271 0.0
H833 H 0.67086 0.92747 0.32316 0.0
C834 C 0.76611 0.90985 0.30468 0.0
C835 C 0.70996 0.95032 0.30943 0.0
C836 C 0.68666 0.9871 0.30811 0.0
C837 C 0.75352 0.8821 0.31332 0.0
C838 C 0.71893 0.88883 0.32005 0.0
C839 C 0.69735 0.92249 0.3179 0.0
C840 C 0.70546 0.86331 0.33013 0.0
C841 C 0.77758 0.84644 0.31554 0.0
C842 C 0.68598 0.82845 0.32734 0.0
C843 C 0.66464 0.80986 0.33668 0.0
C844 C 0.66219 0.8265 0.34878 0.0
C845 C 0.68438 0.85955 0.35173 0.0
C846 C 0.7059 0.87773 0.34249 0.0
H847 H 0.8049 0.84645 0.31002 0.0
H848 H 0.78481 0.84446 0.32567 0.0
H849 H 0.76056 0.82021 0.31291 0.0
H850 H 0.68502 0.81721 0.31779 0.0
H851 H 0.64758 0.78448 0.33419 0.0
H852 H 0.82232 0.93699 0.01631 0.0
H853 H 0.8719 0.91048 0.03018 0.0
H854 H 0.78523 0.8406 0.04825 0.0
H855 H 0.73553 0.86696 0.03444 0.0
H856 H 0.86719 0.92115 0.05618 0.0
H857 H 0.87563 0.76436 0.04349 0.0
H858 H 0.85452 0.7997 0.03318 0.0
H859 H 0.82769 0.7826 0.04643 0.0
C860 C 0.81397 0.91557 0.02313 0.0
C861 C 0.77509 0.90413 0.02434 0.0
C862 C 0.84229 0.90034 0.03098 0.0
C863 C 0.83221 0.87336 0.04014 0.0
C864 C 0.7937 0.86075 0.04105 0.0
H865 H 0.96178 0.78199 0.10342 0.0
H866 H 0.9108 0.79674 0.08811 0.0
C867 C 0.76536 0.8759 0.03317 0.0
C868 C 0.86106 0.86206 0.04963 0.0
H869 H 0.90982 0.78521 0.06172 0.0
C870 C 0.87669 0.89145 0.05735 0.0
C871 C 0.87271 0.82319 0.05125 0.0
C872 C 0.85704 0.79061 0.0431 0.0
C873 C 0.90388 0.88308 0.06666 0.0
C874 C 0.91635 0.8444 0.06808 0.0
C875 C 0.90021 0.81482 0.06053 0.0
C876 C 0.94708 0.83443 0.07709 0.0
C877 C 0.91864 0.91568 0.07501 0.0
C878 C 0.98424 0.85039 0.07581 0.0
C879 C 0.01311 0.8421 0.08451 0.0
C880 C 0.00545 0.81709 0.09445 0.0
C881 C 0.96845 0.80067 0.09565 0.0
C882 C 0.93937 0.80929 0.087 0.0
H883 H 0.89846 0.94077 0.07514 0.0
H884 H 0.92287 0.90585 0.08479 0.0
H885 H 0.94697 0.92587 0.07141 0.0
H886 H 0.99085 0.86936 0.0681 0.0
H887 H 0.04154 0.85497 0.08341 0.0
H888 H 0.83109 0.96756 0.78955 0.0
H889 H 0.86628 0.01513 0.80244 0.0
H890 H 0.97303 0.98342 0.784 0.0
H891 H 0.93821 0.93489 0.77122 0.0
H892 H 0.93707 0.9917 0.81827 0.0
H893 H 0.96202 0.1081 0.78344 0.0
H894 H 0.92193 0.07459 0.78187 0.0
H895 H 0.97038 0.05817 0.77894 0.0
C896 C 0.86206 0.97062 0.78822 0.0
C897 C 0.88189 0.94723 0.77942 0.0
C898 C 0.88204 0.99793 0.79555 0.0
C899 C 0.92211 0.00267 0.79413 0.0
C900 C 0.94199 0.98028 0.78513 0.0
H901 H 0.05943 0.17672 0.8359 0.0
H902 H 0.04273 0.12351 0.82128 0.0
C903 C 0.92202 0.95274 0.77781 0.0
C904 C 0.94304 0.02977 0.80258 0.0
H905 H 0.98118 0.12097 0.8043 0.0
C906 C 0.94714 0.01982 0.81521 0.0
C907 C 0.95649 0.06608 0.79848 0.0
C908 C 0.95255 0.07773 0.78496 0.0
C909 C 0.96326 0.04589 0.82399 0.0
C910 C 0.97464 0.08316 0.82005 0.0
C911 C 0.97223 0.09242 0.80729 0.0
C912 C 0.98589 0.11392 0.82919 0.0
C913 C 0.96756 0.03345 0.83743 0.0
C914 C 0.95929 0.12632 0.83835 0.0
C915 C 0.96876 0.15645 0.84668 0.0
C916 C 0.00505 0.17479 0.84601 0.0
C917 C 0.03169 0.16239 0.83683 0.0
C918 C 0.02208 0.1323 0.82842 0.0
H919 H 0.96953 0.00139 0.83809 0.0
H920 H 0.99371 0.04657 0.84187 0.0
H921 H 0.94174 0.04302 0.84285 0.0
H922 H 0.93083 0.11316 0.83891 0.0
H923 H 0.94754 0.16554 0.85361 0.0
H924 H 0.85666 0.0233 0.4572 0.0
H925 H 0.79686 0.00823 0.44596 0.0
H926 H 0.80277 0.89025 0.45865 0.0
H927 H 0.86062 0.90583 0.47076 0.0
H928 H 0.78932 0.96344 0.42715 0.0
H929 H 0.69024 0.90649 0.4627 0.0
H930 H 0.73401 0.93224 0.46699 0.0
H931 H 0.73508 0.8807 0.46374 0.0
C932 C 0.84463 0.99445 0.45797 0.0
C933 C 0.86376 0.96579 0.46492 0.0
C934 C 0.81044 0.98581 0.45144 0.0
C935 C 0.79471 0.94826 0.45161 0.0
C936 C 0.81344 0.91977 0.45866 0.0
H937 H 0.7203 0.80524 0.39594 0.0
H938 H 0.74761 0.85109 0.41087 0.0
C939 C 0.84722 0.92853 0.46537 0.0
C940 C 0.76198 0.93736 0.44316 0.0
H941 H 0.68246 0.87843 0.44133 0.0
C942 C 0.76533 0.94586 0.43036 0.0
C943 C 0.72987 0.91525 0.44725 0.0
C944 C 0.72191 0.90862 0.46096 0.0
C945 C 0.7399 0.92962 0.42147 0.0
C946 C 0.7111 0.90334 0.42542 0.0
C947 C 0.7051 0.89799 0.43828 0.0
C948 C 0.69261 0.87614 0.41634 0.0
C949 C 0.74557 0.93897 0.40781 0.0
C950 C 0.65222 0.87406 0.41473 0.0
C951 C 0.63611 0.84733 0.4061 0.0
C952 C 0.6603 0.82218 0.39912 0.0
C953 C 0.70062 0.82422 0.40102 0.0
C954 C 0.71646 0.85068 0.40953 0.0
H955 H 0.75767 0.9686 0.40675 0.0
H956 H 0.76656 0.91819 0.40359 0.0
H957 H 0.71791 0.93683 0.4025 0.0
H958 H 0.63332 0.89322 0.42005 0.0
H959 H 0.60494 0.84635 0.40489 0.0
H960 H 0.89736 0.0111 0.23138 0.0
H961 H 0.92274 0.95647 0.21884 0.0
H962 H 0.97024 0.03644 0.19221 0.0
H963 H 0.9449 0.09101 0.20466 0.0
H964 H 0.8968 0.94929 0.19265 0.0
H965 H 0.05729 0.95276 0.19732 0.0
H966 H 0.02534 0.97364 0.20904 0.0
H967 H 0.03437 -0.00128 0.19471 0.0
C968 C 0.91415 0.01694 0.22304 0.0
C969 C 0.91905 0.05509 0.21891 0.0
C970 C 0.92854 0.98583 0.21589 0.0
C971 C 0.94857 0.99259 0.20469 0.0
C972 C 0.95535 0.03075 0.20094 0.0
H973 H 0.02842 0.86508 0.13983 0.0
H974 H 0.01196 0.91367 0.15604 0.0
C975 C 0.94062 0.06179 0.20798 0.0
C976 C 0.95741 0.96016 0.19598 0.0
H977 H 0.03125 0.91377 0.18076 0.0
C978 C 0.92617 0.94108 0.19014 0.0
C979 C 0.99576 0.95018 0.19265 0.0
C980 C 0.03022 0.96964 0.19881 0.0
C981 C 0.93219 0.91301 0.1807 0.0
C982 C 0.97057 0.903 0.17732 0.0
C983 C 0.00187 0.92159 0.18336 0.0
C984 C 0.97893 0.87392 0.16734 0.0
C985 C 0.89737 0.89561 0.1741 0.0
C986 C 0.9652 0.83576 0.16825 0.0
C987 C 0.97375 0.80837 0.15887 0.0
C988 C 0.99708 0.81852 0.14866 0.0
C989 C 0.01079 0.85663 0.14773 0.0
C990 C 0.00149 0.88424 0.15696 0.0
H991 H 0.87124 0.91412 0.17527 0.0
H992 H 0.90296 0.89135 0.16391 0.0
H993 H 0.89081 0.86696 0.17818 0.0
H994 H 0.94841 0.82697 0.1763 0.0
H995 H 0.9633 0.77894 0.15983 0.0
H996 H 0.80326 0.11238 0.98145 0.0
H997 H 0.85395 0.14198 0.96856 0.0
H998 H 0.82089 0.06841 0.93724 0.0
H999 H 0.77024 0.0388 0.95 0.0
H1000 H 0.91687 0.09664 0.95366 0.0
H1001 H 0.81695 0.18812 0.9258 0.0
H1002 H 0.80499 0.1711 0.94128 0.0
H1003 H 0.80241 0.13854 0.92801 0.0
C1004 C 0.80692 0.10254 0.97182 0.0
C1005 C 0.78294 0.07329 0.96671 0.0
C1006 C 0.8358 0.11938 0.96451 0.0
C1007 C 0.84067 0.10751 0.95197 0.0
C1008 C 0.81721 0.07801 0.9469 0.0
H1009 H 0.01276 0.12218 0.89549 0.0
H1010 H 0.96563 0.1046 0.91152 0.0
C1011 C 0.7886 0.06095 0.95421 0.0
C1012 C 0.87046 0.1256 0.9441 0.0
H1013 H 0.88165 0.18222 0.91841 0.0
C1014 C 0.90935 0.1157 0.94604 0.0
C1015 C 0.86034 0.15077 0.93431 0.0
C1016 C 0.81895 0.16313 0.93222 0.0
C1017 C 0.93841 0.12902 0.93799 0.0
C1018 C 0.92801 0.15246 0.92776 0.0
C1019 C 0.88935 0.16391 0.92621 0.0
C1020 C 0.95652 0.16349 0.91816 0.0
C1021 C 0.97991 0.11751 0.94037 0.0
C1022 C 0.96628 0.20249 0.91647 0.0
C1023 C 0.99322 0.21264 0.90731 0.0
C1024 C 0.01039 0.18398 0.89962 0.0
C1025 C 0.00016 0.14494 0.90129 0.0
C1026 C 0.97337 0.13482 0.91046 0.0
H1027 H 0.98435 0.10826 0.95021 0.0
H1028 H 0.98762 0.09281 0.93406 0.0
H1029 H -3e-05 0.14186 0.9384 0.0
H1030 H 0.95349 0.22495 0.92236 0.0
H1031 H 0.00132 0.24275 0.90646 0.0
H1032 H 0.76167 0.93587 0.69656 0.0
H1033 H 0.75283 0.99589 0.68522 0.0
H1034 H 0.77842 0.06225 0.71886 0.0
H1035 H 0.7883 0.00199 0.73032 0.0
H1036 H 0.70916 0.08281 0.70732 0.0
H1037 H 0.82723 0.07882 0.67248 0.0
H1038 H 0.80262 0.03306 0.67302 0.0
H1039 H 0.82848 0.05075 0.68666 0.0
C1040 C 0.76651 0.96313 0.70151 0.0
C1041 C 0.77573 0.96404 0.71436 0.0
C1042 C 0.7615 0.99748 0.69499 0.0
C1043 C 0.76569 0.03351 0.70115 0.0
C1044 C 0.77545 0.03471 0.71392 0.0
H1045 H 0.65373 0.22476 0.65958 0.0
H1046 H 0.69909 0.20014 0.67547 0.0
C1047 C 0.78071 0.00025 0.72046 0.0
C1048 C 0.75536 0.06924 0.69442 0.0
H1049 H 0.76749 0.11113 0.66595 0.0
C1050 C 0.72267 0.0901 0.69848 0.0
C1051 C 0.77338 0.07896 0.68299 0.0
C1052 C 0.81015 0.05944 0.67861 0.0
C1053 C 0.70487 0.11727 0.69069 0.0
C1054 C 0.72047 0.12372 0.67864 0.0
C1055 C 0.75549 0.10593 0.67518 0.0
C1056 C 0.69651 0.14074 0.66865 0.0
C1057 C 0.66741 0.13599 0.69484 0.0
C1058 C 0.68084 0.11561 0.65953 0.0
C1059 C 0.65507 0.12932 0.65062 0.0
C1060 C 0.64446 0.16865 0.65057 0.0
C1061 C 0.66127 0.19428 0.65944 0.0
C1062 C 0.68707 0.18032 0.6685 0.0
H1063 H 0.65894 0.12754 0.70447 0.0
H1064 H 0.6704 0.168 0.69463 0.0
H1065 H 0.64373 0.12762 0.68826 0.0
H1066 H 0.68774 0.08496 0.65953 0.0
H1067 H 0.64311 0.10882 0.64385 0.0
H1068 H 0.69486 0.37727 0.96033 0.0
H1069 H 0.75431 0.35388 0.95043 0.0
H1070 H 0.81977 0.44299 0.96981 0.0
H1071 H 0.76045 0.46614 0.98007 0.0
H1072 H 0.83108 0.43805 0.94323 0.0
H1073 H 0.84775 0.2949 0.96552 0.0
H1074 H 0.80002 0.30388 0.95948 0.0
H1075 H 0.81837 0.33328 0.97225 0.0
C1076 C 0.72196 0.39147 0.96272 0.0
C1077 C 0.72282 0.42355 0.97104 0.0
C1078 C 0.75593 0.37801 0.95704 0.0
C1079 C 0.79147 0.3963 0.95956 0.0
C1080 C 0.7926 0.42831 0.96784 0.0
H1081 H 0.00278 0.36536 0.91437 0.0
H1082 H 0.96192 0.38434 0.9322 0.0
C1083 C 0.75863 0.44169 0.97359 0.0
C1084 C 0.82673 0.38371 0.95274 0.0
H1085 H 0.88373 0.30483 0.94664 0.0
C1086 C 0.84315 0.40919 0.94412 0.0
C1087 C 0.84218 0.34601 0.95393 0.0
C1088 C 0.82643 0.31799 0.96338 0.0
C1089 C 0.87321 0.39725 0.93609 0.0
C1090 C 0.88794 0.35906 0.93699 0.0
C1091 C 0.87254 0.3341 0.946 0.0
C1092 C 0.9162 0.34334 0.92775 0.0
C1093 C 0.88719 0.4249 0.92622 0.0
C1094 C 0.90529 0.31221 0.91989 0.0
C1095 C 0.92872 0.30097 0.90981 0.0
C1096 C 0.96354 0.32074 0.90737 0.0
C1097 C 0.97589 0.3499 0.91586 0.0
C1098 C 0.95246 0.36096 0.92601 0.0
H1099 H 0.8672 0.44983 0.92509 0.0
H1100 H 0.91598 0.43656 0.929 0.0
H1101 H 0.89026 0.40983 0.91699 0.0
H1102 H 0.87762 0.29789 0.92113 0.0
H1103 H 0.91848 0.27803 0.90359 0.0
H1104 H 0.8681 0.32864 0.19273 0.0
H1105 H 0.89207 0.37536 0.17765 0.0
H1106 H 0.86555 0.46906 0.2035 0.0
H1107 H 0.84087 0.42237 0.21867 0.0
H1108 H 0.85309 0.43935 0.16672 0.0
H1109 H 0.98209 0.48321 0.19492 0.0
H1110 H 0.95442 0.44001 0.1981 0.0
H1111 H 0.93638 0.48672 0.20294 0.0
C1112 C 0.86676 0.35922 0.19516 0.0
C1113 C 0.85244 0.37185 0.20689 0.0
C1114 C 0.8807 0.38581 0.18655 0.0
C1115 C 0.88089 0.42548 0.18954 0.0
C1116 C 0.86613 0.43841 0.20114 0.0
H1117 H 0.91716 0.61981 0.14142 0.0
H1118 H 0.89025 0.56893 0.15441 0.0
C1119 C 0.85209 0.41177 0.20977 0.0
C1120 C 0.89694 0.45312 0.18049 0.0
H1121 H 0.97046 0.51773 0.17627 0.0
C1122 C 0.87876 0.45651 0.16878 0.0
C1123 C 0.93078 0.47484 0.18318 0.0
C1124 C 0.95236 0.47091 0.19542 0.0
C1125 C 0.89319 0.48174 0.15972 0.0
C1126 C 0.92638 0.50428 0.16254 0.0
C1127 C 0.94494 0.50039 0.17417 0.0
C1128 C 0.94167 0.53314 0.15376 0.0
C1129 C 0.87309 0.48383 0.14717 0.0
C1130 C 0.97955 0.52979 0.14911 0.0
C1131 C 0.99517 0.55891 0.14168 0.0
C1132 C 0.97323 0.59205 0.13892 0.0
C1133 C 0.93491 0.59472 0.14336 0.0
C1134 C 0.91934 0.56557 0.15074 0.0
H1135 H 0.85474 0.45788 0.14529 0.0
H1136 H 0.85407 0.50975 0.14709 0.0
H1137 H 0.89446 0.48654 0.13944 0.0
H1138 H 0.99723 0.50496 0.15141 0.0
H1139 H 0.02479 0.55599 0.13844 0.0
H1140 H 0.9244 0.56443 0.46722 0.0
H1141 H 0.87499 0.58289 0.45199 0.0
H1142 H 0.89812 0.47889 0.43027 0.0
H1143 H 0.94854 0.46083 0.44524 0.0
H1144 H 0.89733 0.54504 0.41599 0.0
H1145 H 0.76682 0.53828 0.44615 0.0
H1146 H 0.80483 0.56762 0.45282 0.0
H1147 H 0.81236 0.51642 0.45047 0.0
C1148 C 0.91887 0.54541 0.45922 0.0
C1149 C 0.94034 0.51115 0.45744 0.0
C1150 C 0.89037 0.5558 0.45061 0.0
C1151 C 0.8826 0.53198 0.44011 0.0
C1152 C 0.90354 0.49749 0.43838 0.0
H1153 H 0.68617 0.57675 0.39114 0.0
H1154 H 0.73424 0.54454 0.40416 0.0
C1155 C 0.93209 0.48708 0.44699 0.0
C1156 C 0.85416 0.54426 0.43058 0.0
H1157 H 0.76008 0.57192 0.42683 0.0
C1158 C 0.8672 0.55054 0.4183 0.0
C1159 C 0.81483 0.55091 0.4336 0.0
C1160 C 0.79873 0.5426 0.44644 0.0
C1161 C 0.84217 0.56462 0.40905 0.0
C1162 C 0.80334 0.5732 0.41226 0.0
C1163 C 0.79 0.56564 0.42442 0.0
C1164 C 0.77618 0.59108 0.40331 0.0
C1165 C 0.8575 0.57013 0.39595 0.0
C1166 C 0.78406 0.62776 0.3984 0.0
C1167 C 0.75672 0.64625 0.39091 0.0
C1168 C 0.72079 0.62854 0.38831 0.0
C1169 C 0.71346 0.59131 0.39298 0.0
C1170 C 0.74088 0.57282 0.40043 0.0
H1171 H 0.88341 0.5518 0.39411 0.0
H1172 H 0.83506 0.56307 0.38879 0.0
H1173 H 0.8662 0.60086 0.39484 0.0
H1174 H 0.81081 0.6427 0.40073 0.0
H1175 H 0.76324 0.67498 0.38753 0.0
H1176 H 0.65548 0.60734 0.73321 0.0
H1177 H 0.63594 0.54409 0.72485 0.0
H1178 H 0.73095 0.54672 0.6986 0.0
H1179 H 0.75312 0.60751 0.70773 0.0
H1180 H 0.61003 0.52093 0.70411 0.0
H1181 H 0.74571 0.44068 0.71016 0.0
H1182 H 0.73869 0.48804 0.7172 0.0
H1183 H 0.75663 0.48295 0.70133 0.0
C1184 C 0.67297 0.59408 0.72589 0.0
C1185 C 0.70622 0.61288 0.72127 0.0
C1186 C 0.66144 0.55791 0.72102 0.0
C1187 C 0.68252 0.53985 0.7113 0.0
C1188 C 0.71495 0.55907 0.70642 0.0
H1189 H 0.60732 0.41157 0.64981 0.0
H1190 H 0.61378 0.45388 0.66795 0.0
C1191 C 0.72707 0.59464 0.71148 0.0
C1192 C 0.66953 0.50225 0.70562 0.0
H1193 H 0.70491 0.41862 0.69254 0.0
C1194 C 0.63067 0.49819 0.70184 0.0
C1195 C 0.69567 0.47143 0.70309 0.0
C1196 C 0.73632 0.47088 0.70833 0.0
C1197 C 0.6183 0.46606 0.69463 0.0
C1198 C 0.6459 0.43822 0.69054 0.0
C1199 C 0.6838 0.44037 0.69532 0.0
C1200 C 0.63772 0.41015 0.6801 0.0
C1201 C 0.57588 0.46284 0.69132 0.0
C1202 C 0.6498 0.37122 0.68063 0.0
C1203 C 0.64716 0.34683 0.66999 0.0
C1204 C 0.63226 0.36096 0.65866 0.0
C1205 C 0.61892 0.39948 0.65835 0.0
C1206 C 0.62206 0.42379 0.66885 0.0
H1207 H 0.55759 0.47366 0.69921 0.0
H1208 H 0.56965 0.48129 0.68313 0.0
H1209 H 0.5673 0.43251 0.68904 0.0
H1210 H 0.66223 0.36 0.68917 0.0
H1211 H 0.65752 0.31728 0.67056 0.0
H1212 H 0.72064 0.61747 0.01716 0.0
H1213 H 0.77948 0.64479 0.02663 0.0
H1214 H 0.79488 0.54099 0.04801 0.0
H1215 H 0.73535 0.51393 0.03903 0.0
H1216 H 0.79125 0.65213 0.05477 0.0
H1217 H 0.9027 0.5642 0.02974 0.0
H1218 H 0.8549 0.57252 0.02335 0.0
H1219 H 0.86144 0.53833 0.03568 0.0
C1220 C 0.73629 0.60048 0.02395 0.0
C1221 C 0.723 0.56344 0.02734 0.0
C1222 C 0.77013 0.61604 0.02925 0.0
C1223 C 0.79167 0.59468 0.03788 0.0
C1224 C 0.77893 0.55762 0.04119 0.0
H1225 H 0.98373 0.61216 0.08755 0.0
H1226 H 0.9366 0.59388 0.07137 0.0
C1227 C 0.74491 0.54217 0.036 0.0
C1228 C 0.82612 0.61195 0.04411 0.0
H1229 H 0.92395 0.60153 0.04734 0.0
C1230 C 0.8204 0.64153 0.05307 0.0
C1231 C 0.8639 0.59783 0.04184 0.0
C1232 C 0.87141 0.56664 0.03207 0.0
C1233 C 0.85127 0.65609 0.06034 0.0
C1234 C 0.88923 0.64149 0.05827 0.0
C1235 C 0.89501 0.61281 0.04893 0.0
C1236 C 0.92245 0.65292 0.06647 0.0
C1237 C 0.84227 0.68533 0.07064 0.0
C1238 C 0.93196 0.69209 0.06863 0.0
C1239 C 0.95826 0.70257 0.07809 0.0
C1240 C 0.97658 0.674 0.08521 0.0
C1241 C 0.97013 0.63478 0.08216 0.0
C1242 C 0.94306 0.62433 0.07293 0.0
H1243 H 0.81094 0.68565 0.07304 0.0
H1244 H 0.85893 0.67914 0.0793 0.0
H1245 H 0.85014 0.71477 0.06745 0.0
H1246 H 0.91772 0.71462 0.06339 0.0
H1247 H 0.96333 0.73293 0.08013 0.0
H1248 H 0.67754 0.37539 0.26957 0.0
H1249 H 0.65169 0.43506 0.27917 0.0
H1250 H 0.76756 0.47118 0.2891 0.0
H1251 H 0.79363 0.4118 0.27946 0.0
H1252 H 0.66526 0.45555 0.30532 0.0
H1253 H 0.71713 0.56891 0.27294 0.0
H1254 H 0.71241 0.51851 0.26826 0.0
H1255 H 0.75296 0.53418 0.27763 0.0
C1256 C 0.69752 0.39636 0.27363 0.0
C1257 C 0.73758 0.38892 0.27381 0.0
C1258 C 0.68273 0.43034 0.2791 0.0
C1259 C 0.70779 0.45769 0.28467 0.0
C1260 C 0.74783 0.45071 0.28466 0.0
H1261 H 0.69941 0.65683 0.3332 0.0
H1262 H 0.71443 0.60956 0.31657 0.0
C1263 C 0.76261 0.41661 0.27929 0.0
C1264 C 0.69199 0.49172 0.29155 0.0
H1265 H 0.69289 0.59069 0.29276 0.0
C1266 C 0.67078 0.48514 0.30251 0.0
C1267 C 0.69963 0.53014 0.28786 0.0
C1268 C 0.72152 0.53856 0.27597 0.0
C1269 C 0.65832 0.51597 0.31022 0.0
C1270 C 0.66622 0.55459 0.30663 0.0
C1271 C 0.68669 0.56115 0.29547 0.0
C1272 C 0.65563 0.58815 0.3148 0.0
C1273 C 0.63859 0.50661 0.32246 0.0
C1274 C 0.61725 0.59346 0.31879 0.0
C1275 C 0.60874 0.61998 0.32843 0.0
C1276 C 0.63827 0.64239 0.33403 0.0
C1277 C 0.67599 0.63997 0.32909 0.0
C1278 C 0.68464 0.61287 0.3196 0.0
H1279 H 0.64405 0.47623 0.32528 0.0
H1280 H 0.64861 0.52627 0.33015 0.0
H1281 H 0.60681 0.51017 0.32136 0.0
H1282 H 0.59426 0.5755 0.31494 0.0
H1283 H 0.57942 0.62158 0.33192 0.0
H1284 H 0.91005 0.41934 0.52267 0.0
H1285 H 0.86739 0.40334 0.54025 0.0
H1286 H 0.96388 0.35242 0.55973 0.0
H1287 H 0.00676 0.36856 0.54228 0.0
H1288 H 0.85692 0.32395 0.55156 0.0
H1289 H 0.91432 0.43853 0.58406 0.0
H1290 H 0.91934 0.44127 0.56722 0.0
H1291 H 0.94889 0.40833 0.57587 0.0
C1292 C 0.9221 0.40469 0.5307 0.0
C1293 C 0.96165 0.39513 0.53112 0.0
C1294 C 0.89777 0.39551 0.54068 0.0
C1295 C 0.91274 0.37706 0.55127 0.0
C1296 C 0.95201 0.36691 0.55165 0.0
H1297 H 0.77309 0.27832 0.61112 0.0
H1298 H 0.82726 0.29105 0.59694 0.0
C1299 C 0.9763 0.37583 0.54164 0.0
C1300 C 0.88719 0.3686 0.56194 0.0
H1301 H 0.86528 0.39779 0.59186 0.0
C1302 C 0.85884 0.33981 0.56041 0.0
C1303 C 0.88992 0.38964 0.5734 0.0
C1304 C 0.91956 0.42138 0.57531 0.0
C1305 C 0.83271 0.33165 0.57007 0.0
C1306 C 0.83531 0.35279 0.58152 0.0
C1307 C 0.86382 0.38144 0.58309 0.0
C1308 C 0.80646 0.34749 0.59154 0.0
C1309 C 0.80175 0.30133 0.56787 0.0
C1310 C 0.77796 0.3758 0.59352 0.0
C1311 C 0.74699 0.36866 0.60156 0.0
C1312 C 0.74421 0.33314 0.60779 0.0
C1313 C 0.77435 0.30595 0.60645 0.0
C1314 C 0.80522 0.31305 0.59832 0.0
H1315 H 0.80043 0.29145 0.5579 0.0
H1316 H 0.80787 0.2758 0.57376 0.0
H1317 H 0.7729 0.31286 0.57063 0.0
H1318 H 0.77865 0.40261 0.58836 0.0
H1319 H 0.72443 0.39033 0.60247 0.0
H1320 H 0.87661 0.60386 0.77367 0.0
H1321 H 0.89965 0.55356 0.78756 0.0
H1322 H 0.80875 0.58185 0.81392 0.0
H1323 H 0.78325 0.6297 0.79957 0.0
H1324 H 0.92885 0.56172 0.80974 0.0
H1325 H 0.79971 0.46753 0.81365 0.0
H1326 H 0.80293 0.5053 0.80221 0.0
H1327 H 0.789 0.51662 0.81815 0.0
C1328 C 0.86062 0.5986 0.78221 0.0
C1329 C 0.82792 0.62096 0.78544 0.0
C1330 C 0.8742 0.57009 0.79024 0.0
C1331 C 0.85574 0.5636 0.80174 0.0
C1332 C 0.82298 0.58562 0.80497 0.0
H1333 H 0.97858 0.44804 0.86266 0.0
H1334 H 0.94767 0.49674 0.84948 0.0
C1335 C 0.80884 0.61355 0.79683 0.0
C1336 C 0.87223 0.53545 0.81064 0.0
H1337 H 0.8498 0.45797 0.82875 0.0
C1338 C 0.91162 0.53882 0.81382 0.0
C1339 C 0.84984 0.5054 0.81589 0.0
C1340 C 0.80816 0.49822 0.81219 0.0
C1341 C 0.92933 0.51292 0.82204 0.0
C1342 C 0.90656 0.48386 0.82769 0.0
C1343 C 0.86712 0.48059 0.82455 0.0
C1344 C 0.92349 0.45492 0.83623 0.0
C1345 C 0.97248 0.51624 0.8242 0.0
C1346 C 0.91857 0.41529 0.83353 0.0
C1347 C 0.93513 0.38757 0.84123 0.0
C1348 C 0.95745 0.3989 0.8517 0.0
C1349 C 0.96188 0.43855 0.85456 0.0
C1350 C 0.9445 0.46636 0.84698 0.0
H1351 H 0.98699 0.53203 0.81651 0.0
H1352 H 0.97786 0.53272 0.83306 0.0
H1353 H 0.98611 0.48723 0.82497 0.0
H1354 H 0.90246 0.40574 0.82531 0.0
H1355 H 0.93136 0.35722 0.83874 0.0
H1356 H 0.36207 0.47681 0.03972 0.0
H1357 H 0.3033 0.49192 0.05142 0.0
H1358 H 0.31099 0.61101 0.03989 0.0
H1359 H 0.36762 0.59546 0.02726 0.0
H1360 H 0.29648 0.53456 0.07065 0.0
H1361 H 0.19834 0.5969 0.03575 0.0
H1362 H 0.24173 0.57113 0.03119 0.0
H1363 H 0.24354 0.62226 0.03507 0.0
C1364 C 0.35064 0.50597 0.0393 0.0
C1365 C 0.36986 0.53488 0.03248 0.0
C1366 C 0.31706 0.51463 0.04611 0.0
C1367 C 0.30209 0.55246 0.04639 0.0
C1368 C 0.32104 0.58129 0.03954 0.0
H1369 H 0.22401 0.68635 0.10486 0.0
H1370 H 0.25337 0.64165 0.09001 0.0
C1371 C 0.35416 0.57251 0.03253 0.0
C1372 C 0.26966 0.56298 0.05497 0.0
H1373 H 0.19052 0.62198 0.0574 0.0
C1374 C 0.27274 0.5528 0.06764 0.0
C1375 C 0.2378 0.58582 0.05111 0.0
C1376 C 0.22997 0.59418 0.03749 0.0
C1377 C 0.24716 0.56781 0.07668 0.0
C1378 C 0.2186 0.59478 0.07304 0.0
C1379 C 0.21301 0.60199 0.06024 0.0
C1380 C 0.19909 0.6202 0.08242 0.0
C1381 C 0.25209 0.55585 0.09014 0.0
C1382 C 0.15854 0.62398 0.08287 0.0
C1383 C 0.14132 0.65024 0.09139 0.0
C1384 C 0.16454 0.67327 0.09943 0.0
C1385 C 0.20505 0.66907 0.09889 0.0
C1386 C 0.22203 0.64314 0.09045 0.0
H1387 H 0.26284 0.52556 0.09065 0.0
H1388 H 0.27399 0.57487 0.09477 0.0
H1389 H 0.22447 0.55815 0.09544 0.0
H1390 H 0.14034 0.60686 0.07662 0.0
H1391 H 0.11005 0.65291 0.09154 0.0
H1392 H 0.28802 0.57157 0.80262 0.0
H1393 H 0.27403 0.51277 0.81415 0.0
H1394 H 0.30123 0.44318 0.78135 0.0
H1395 H 0.31579 0.50213 0.76972 0.0
H1396 H 0.23028 0.42624 0.79115 0.0
H1397 H 0.33901 0.42702 0.82911 0.0
H1398 H 0.31602 0.47344 0.82804 0.0
H1399 H 0.34472 0.45532 0.8151 0.0
C1400 C 0.29212 0.54378 0.79794 0.0
C1401 C 0.30294 0.54159 0.78523 0.0
C1402 C 0.28421 0.51011 0.80456 0.0
C1403 C 0.2872 0.47353 0.79867 0.0
C1404 C 0.29903 0.4711 0.78609 0.0
H1405 H 0.16222 0.28182 0.83638 0.0
H1406 H 0.21099 0.3079 0.82187 0.0
C1407 C 0.30704 0.50482 0.77945 0.0
C1408 C 0.27339 0.4387 0.80529 0.0
H1409 H 0.27698 0.39617 0.83393 0.0
C1410 C 0.24124 0.41866 0.80033 0.0
C1411 C 0.28801 0.42856 0.81719 0.0
C1412 C 0.32413 0.44698 0.8226 0.0
C1413 C 0.22085 0.39171 0.80753 0.0
C1414 C 0.23323 0.38459 0.81993 0.0
C1415 C 0.26749 0.40185 0.82442 0.0
C1416 C 0.20684 0.36675 0.8291 0.0
C1417 C 0.18424 0.37373 0.8023 0.0
C1418 C 0.1891 0.39108 0.83801 0.0
C1419 C 0.1614 0.37655 0.84614 0.0
C1420 C 0.15086 0.33716 0.84562 0.0
C1421 C 0.16962 0.31232 0.83696 0.0
C1422 C 0.19738 0.32712 0.82868 0.0
H1423 H 0.17813 0.38304 0.79257 0.0
H1424 H 0.18683 0.34167 0.8023 0.0
H1425 H 0.1592 0.38178 0.80834 0.0
H1426 H 0.19597 0.42174 0.83846 0.0
H1427 H 0.14799 0.39648 0.85278 0.0
H1428 H 0.25359 0.36092 0.53232 0.0
H1429 H 0.30792 0.34276 0.54569 0.0
H1430 H 0.3782 0.43211 0.52931 0.0
H1431 H 0.32408 0.45018 0.5157 0.0
H1432 H 0.38619 0.31999 0.53877 0.0
H1433 H 0.37959 0.45548 0.56783 0.0
H1434 H 0.34017 0.43995 0.55778 0.0
H1435 H 0.38269 0.46143 0.55112 0.0
C1436 C 0.28077 0.37635 0.5314 0.0
C1437 C 0.28451 0.40706 0.52296 0.0
C1438 C 0.31168 0.36604 0.53909 0.0
C1439 C 0.34678 0.3864 0.53855 0.0
C1440 C 0.35105 0.41648 0.52997 0.0
H1441 H 0.55204 0.36854 0.58579 0.0
H1442 H 0.50578 0.38683 0.56952 0.0
C1443 C 0.32012 0.4268 0.52223 0.0
C1444 C 0.37847 0.37655 0.54724 0.0
H1445 H 0.42828 0.41046 0.57283 0.0
C1446 C 0.39557 0.33977 0.54619 0.0
C1447 C 0.39052 0.40255 0.55687 0.0
C1448 C 0.3722 0.44199 0.55859 0.0
C1449 C 0.42453 0.32824 0.55458 0.0
C1450 C 0.4359 0.35388 0.56438 0.0
C1451 C 0.41934 0.39092 0.56529 0.0
C1452 C 0.4641 0.34233 0.57405 0.0
C1453 C 0.44303 0.28893 0.55283 0.0
C1454 C 0.45559 0.31167 0.58208 0.0
C1455 C 0.48189 0.30122 0.59138 0.0
C1456 C 0.51703 0.32129 0.59286 0.0
C1457 C 0.5252 0.3524 0.58489 0.0
C1458 C 0.4989 0.36285 0.57558 0.0
H1459 H 0.4385 0.27721 0.54317 0.0
H1460 H 0.47465 0.29032 0.55474 0.0
H1461 H 0.42993 0.26844 0.55953 0.0
H1462 H 0.42834 0.29621 0.58125 0.0
H1463 H 0.47432 0.27807 0.59759 0.0
H1464 H 0.38127 0.49769 0.26406 0.0
H1465 H 0.40406 0.54946 0.27823 0.0
H1466 H 0.4728 0.46671 0.29842 0.0
H1467 H 0.45007 0.41485 0.28436 0.0
H1468 H 0.3909 0.5503 0.30395 0.0
H1469 H 0.5486 0.5566 0.29382 0.0
H1470 H 0.51444 0.53287 0.28337 0.0
H1471 H 0.53102 0.50893 0.29724 0.0
C1472 C 0.40156 0.49063 0.27144 0.0
C1473 C 0.41385 0.45221 0.27311 0.0
C1474 C 0.41464 0.52021 0.27948 0.0
C1475 C 0.44039 0.51193 0.28928 0.0
C1476 C 0.4536 0.47384 0.29075 0.0
H1477 H 0.53036 0.63927 0.35363 0.0
H1478 H 0.51132 0.58943 0.33811 0.0
C1479 C 0.44058 0.44424 0.2827 0.0
C1480 C 0.45062 0.5424 0.29862 0.0
H1481 H 0.52667 0.59105 0.31199 0.0
C1482 C 0.42057 0.55942 0.30566 0.0
C1483 C 0.48939 0.55391 0.30088 0.0
C1484 C 0.52272 0.53741 0.29336 0.0
C1485 C 0.4283 0.58723 0.31507 0.0
C1486 C 0.46703 0.59873 0.31732 0.0
C1487 C 0.49707 0.58187 0.31025 0.0
C1488 C 0.47706 0.62844 0.32692 0.0
C1489 C 0.39508 0.6034 0.32272 0.0
C1490 C 0.46384 0.66666 0.32576 0.0
C1491 C 0.47453 0.69496 0.33461 0.0
C1492 C 0.49923 0.68558 0.34459 0.0
C1493 C 0.51211 0.64729 0.34582 0.0
C1494 C 0.501 0.61886 0.33705 0.0
H1495 H 0.36889 0.58472 0.32199 0.0
H1496 H 0.40327 0.60659 0.33276 0.0
H1497 H 0.38738 0.6325 0.3192 0.0
H1498 H 0.44575 0.6747 0.31791 0.0
H1499 H 0.46425 0.72438 0.3335 0.0
H1500 H 0.37643 0.49274 0.95373 0.0
H1501 H 0.31852 0.47569 0.9416 0.0
H1502 H 0.29779 0.37877 0.9658 0.0
H1503 H 0.35628 0.39526 0.9778 0.0
H1504 H 0.29524 0.35671 0.94219 0.0
H1505 H 0.20438 0.48781 0.94723 0.0
H1506 H 0.25191 0.49964 0.9417 0.0
H1507 H 0.24609 0.47946 0.95708 0.0
C1508 C 0.35913 0.46819 0.95659 0.0
C1509 C 0.3709 0.44525 0.96668 0.0
C1510 C 0.32583 0.45865 0.94971 0.0
C1511 C 0.30326 0.42639 0.95293 0.0
C1512 C 0.31457 0.40394 0.96319 0.0
H1513 H 0.10842 0.32567 0.90975 0.0
H1514 H 0.14202 0.35794 0.92745 0.0
C1515 C 0.34809 0.41323 0.96998 0.0
C1516 C 0.27054 0.41365 0.94477 0.0
H1517 H 0.18984 0.4456 0.92938 0.0
C1518 C 0.27177 0.37594 0.93964 0.0
C1519 C 0.23971 0.43862 0.94144 0.0
C1520 C 0.23519 0.47848 0.94727 0.0
C1521 C 0.24429 0.36325 0.9308 0.0
C1522 C 0.21504 0.389 0.92688 0.0
C1523 C 0.21254 0.42609 0.93238 0.0
C1524 C 0.18971 0.37845 0.91618 0.0
C1525 C 0.2476 0.32282 0.92526 0.0
C1526 C 0.20468 0.38097 0.90402 0.0
C1527 C 0.1859 0.36244 0.89401 0.0
C1528 C 0.15166 0.34135 0.896 0.0
C1529 C 0.13464 0.342 0.90797 0.0
C1530 C 0.1538 0.36028 0.91807 0.0
H1531 H 0.26847 0.30469 0.93051 0.0
H1532 H 0.21887 0.30828 0.92521 0.0
H1533 H 0.25754 0.32455 0.91538 0.0
H1534 H 0.2324 0.39484 0.90242 0.0
H1535 H 0.19951 0.36249 0.88485 0.0
H1536 H 0.35324 0.52071 0.7149 0.0
H1537 H 0.38551 0.47113 0.70198 0.0
H1538 H 0.49605 0.52543 0.70936 0.0
H1539 H 0.46383 0.57527 0.72236 0.0
H1540 H 0.47448 0.51146 0.68279 0.0
H1541 H 0.46097 0.38125 0.71243 0.0
H1542 H 0.41748 0.40963 0.71119 0.0
H1543 H 0.45941 0.43013 0.7188 0.0
C1544 C 0.38446 0.52178 0.71388 0.0
C1545 C 0.40611 0.55172 0.71958 0.0
C1546 C 0.40284 0.4934 0.70659 0.0
C1547 C 0.44309 0.49462 0.70485 0.0
C1548 C 0.46497 0.524 0.71072 0.0
H1549 H 0.55982 0.3168 0.65927 0.0
H1550 H 0.5485 0.36743 0.67523 0.0
C1551 C 0.44661 0.55223 0.71814 0.0
C1552 C 0.46143 0.46685 0.69606 0.0
H1553 H 0.47405 0.37003 0.69063 0.0
C1554 C 0.47495 0.48057 0.68454 0.0
C1555 C 0.46236 0.42675 0.6985 0.0
C1556 C 0.44961 0.41095 0.71094 0.0
C1557 C 0.4874 0.4548 0.67508 0.0
C1558 C 0.48597 0.41459 0.67725 0.0
C1559 C 0.47457 0.40099 0.68901 0.0
C1560 C 0.49418 0.38607 0.6672 0.0
C1561 C 0.50158 0.47044 0.66278 0.0
C1562 C 0.4672 0.37996 0.6575 0.0
C1563 C 0.47353 0.35104 0.64841 0.0
C1564 C 0.50717 0.3283 0.64886 0.0
C1565 C 0.53424 0.33477 0.65854 0.0
C1566 C 0.5277 0.36335 0.66769 0.0
H1567 H 0.5073 0.50212 0.66337 0.0
H1568 H 0.52857 0.45534 0.65982 0.0
H1569 H 0.47932 0.46499 0.65543 0.0
H1570 H 0.44091 0.39705 0.65713 0.0
H1571 H 0.45216 0.34639 0.64108 0.0
H1572 H 0.2781 0.50966 0.44821 0.0
H1573 H 0.32944 0.5417 0.43654 0.0
H1574 H 0.3243 0.63981 0.46206 0.0
H1575 H 0.27329 0.60755 0.47404 0.0
H1576 H 0.32246 0.6573 0.43534 0.0
H1577 H 0.44334 0.55985 0.44831 0.0
H1578 H 0.40049 0.53482 0.44302 0.0
H1579 H 0.39904 0.56334 0.45728 0.0
C1580 C 0.28832 0.53773 0.4515 0.0
C1581 C 0.2718 0.55593 0.46211 0.0
C1582 C 0.31754 0.55603 0.44479 0.0
C1583 C 0.33083 0.59283 0.44856 0.0
C1584 C 0.3144 0.61131 0.45907 0.0
H1585 H 0.49945 0.73359 0.40717 0.0
H1586 H 0.45064 0.71481 0.42262 0.0
C1587 C 0.2852 0.59292 0.46585 0.0
C1588 C 0.36117 0.61212 0.44119 0.0
H1589 H 0.45338 0.59967 0.43047 0.0
C1590 C 0.35133 0.64519 0.43439 0.0
C1591 C 0.39872 0.59622 0.44008 0.0
C1592 C 0.41126 0.56181 0.44765 0.0
C1593 C 0.37752 0.66148 0.42588 0.0
C1594 C 0.41447 0.64439 0.42435 0.0
C1595 C 0.42485 0.61244 0.43161 0.0
C1596 C 0.44203 0.65728 0.41468 0.0
C1597 C 0.36491 0.69561 0.41821 0.0
C1598 C 0.45336 0.6311 0.40517 0.0
C1599 C 0.48125 0.64163 0.39643 0.0
C1600 C 0.49826 0.67862 0.397 0.0
C1601 C 0.4863 0.70515 0.40637 0.0
C1602 C 0.45849 0.69447 0.4152 0.0
H1603 H 0.33314 0.70057 0.41878 0.0
H1604 H 0.37977 0.72211 0.42178 0.0
H1605 H 0.37308 0.69134 0.40821 0.0
H1606 H 0.44092 0.60226 0.40463 0.0
H1607 H 0.48976 0.62062 0.38928 0.0
H1608 H 0.30566 0.4523 0.19784 0.0
H1609 H 0.28732 0.51287 0.18793 0.0
H1610 H 0.22417 0.54739 0.22121 0.0
H1611 H 0.24169 0.48608 0.23105 0.0
H1612 H 0.18149 0.55681 0.20137 0.0
H1613 H 0.32352 0.62219 0.19131 0.0
H1614 H 0.32208 0.57366 0.18511 0.0
H1615 H 0.31831 0.58198 0.20182 0.0
C1616 C 0.28838 0.47309 0.20311 0.0
C1617 C 0.27507 0.46453 0.2152 0.0
C1618 C 0.27821 0.5079 0.19749 0.0
C1619 C 0.25518 0.53524 0.20393 0.0
C1620 C 0.24228 0.52694 0.2161 0.0
H1621 H 0.13799 0.72441 0.16327 0.0
H1622 H 0.17395 0.69695 0.18104 0.0
C1623 C 0.25207 0.49186 0.22168 0.0
C1624 C 0.24119 0.57021 0.19737 0.0
H1625 H 0.2705 0.64037 0.1772 0.0
C1626 C 0.20101 0.57588 0.19641 0.0
C1627 C 0.26661 0.59541 0.19099 0.0
C1628 C 0.31002 0.59322 0.19249 0.0
C1629 C 0.18558 0.60373 0.18838 0.0
C1630 C 0.211 0.6264 0.18114 0.0
C1631 C 0.25114 0.62279 0.18276 0.0
C1632 C 0.19623 0.64808 0.17031 0.0
C1633 C 0.14216 0.60673 0.18693 0.0
C1634 C 0.19823 0.63037 0.15842 0.0
C1635 C 0.17753 0.64554 0.14842 0.0
C1636 C 0.15486 0.67899 0.1501 0.0
C1637 C 0.15542 0.69865 0.16176 0.0
C1638 C 0.17579 0.68301 0.17188 0.0
H1639 H 0.12638 0.5867 0.19319 0.0
H1640 H 0.13271 0.63683 0.18911 0.0
H1641 H 0.13382 0.6 0.17706 0.0
H1642 H 0.21381 0.60336 0.15706 0.0
H1643 H 0.17778 0.63004 0.13949 0.0
loop_
_geom_bond_atom_site_label_1
_geom_bond_atom_site_label_2
_geom_bond_distance
_geom_bond_site_symmetry_2
_ccdc_geom_bond_type
C0 C1 1.384 . S
C0 C2 1.384 . S
C0 H28 0.931 1_565 S
C1 C0 1.384 . S
C1 C4 1.382 . S
C2 C0 1.384 . S
C2 C3 1.381 . S
C2 H29 0.930 1_565 S
C3 C2 1.381 . S
C3 C5 1.381 . S
C3 C6 1.487 . S
C4 C1 1.382 . S
C4 C5 1.387 . S
C4 H30 0.930 . S
C5 C3 1.381 . S
C5 C4 1.387 . S
C5 H31 0.931 . S
C6 C3 1.487 . S
C6 C13 1.399 1_565 S
C6 N44 1.343 . S
C7 C8 1.384 . S
C7 C9 1.384 . S
C7 H32 0.931 1_545 S
C8 C7 1.384 . S
C8 C11 1.382 . S
C9 C7 1.384 . S
C9 C10 1.381 . S
C9 H33 0.930 1_545 S
C10 C9 1.381 . S
C10 C12 1.381 . S
C10 C13 1.487 . S
C11 C8 1.382 . S
C11 C12 1.387 . S
C11 H34 0.930 . S
C12 C10 1.381 . S
C12 C11 1.387 . S
C12 H35 0.931 . S
C13 C6 1.399 1_545 S
C13 C10 1.487 . S
C13 N45 1.343 . S
C14 C15 1.384 . S
C14 C16 1.384 . S
C14 H36 0.931 1_545 S
C15 C14 1.384 . S
C15 C18 1.382 . S
C16 C14 1.384 . S
C16 C17 1.381 . S
C16 H37 0.930 1_545 S
C17 C16 1.381 . S
C17 C19 1.381 . S
C17 C20 1.487 . S
C18 C15 1.382 . S
C18 C19 1.387 . S
C18 H38 0.930 . S
C19 C17 1.381 . S
C19 C18 1.387 . S
C19 H39 0.931 . S
C20 C17 1.487 . S
C20 C27 1.399 1_545 S
C20 N45 1.343 1_655 S
C21 C22 1.384 . S
C21 C23 1.384 . S
C21 H40 0.931 1_565 S
C22 C21 1.384 . S
C22 C25 1.382 . S
C23 C21 1.384 . S
C23 C24 1.381 . S
C23 H41 0.930 1_565 S
C24 C23 1.381 . S
C24 C26 1.381 . S
C24 C27 1.487 . S
C25 C22 1.382 . S
C25 C26 1.387 . S
C25 H42 0.930 . S
C26 C24 1.381 . S
C26 C25 1.387 . S
C26 H43 0.931 . S
C27 C20 1.399 1_565 S
C27 C24 1.487 . S
C27 N44 1.343 1_655 S
H28 C0 0.931 1_545 S
H29 C2 0.930 1_545 S
H30 C4 0.930 . S
H31 C5 0.931 . S
H32 C7 0.931 1_565 S
H33 C9 0.930 1_565 S
H34 C11 0.930 . S
H35 C12 0.931 . S
H36 C14 0.931 1_565 S
H37 C16 0.930 1_565 S
H38 C18 0.930 . S
H39 C19 0.931 . S
H40 C21 0.931 1_545 S
H41 C23 0.930 1_545 S
H42 C25 0.930 . S
H43 C26 0.931 . S
N44 C6 1.343 . S
N44 C27 1.343 1_455 S
N45 C13 1.343 . S
N45 C20 1.343 1_455 S
C46 C47 1.384 . S
C46 C48 1.384 . S
C46 H74 0.931 . S
C47 C46 1.384 . S
C47 C50 1.382 . S
C48 C46 1.384 . S
C48 C49 1.381 . S
C48 H75 0.930 . S
C49 C48 1.381 . S
C49 C51 1.381 . S
C49 C52 1.487 . S
C50 C47 1.382 . S
C50 C51 1.387 . S
C50 H76 0.930 . S
C51 C49 1.381 . S
C51 C50 1.387 . S
C51 H77 0.931 . S
C52 C49 1.487 . S
C52 C59 1.399 . S
C52 N90 1.343 . S
C53 C54 1.384 . S
C53 C55 1.384 . S
C53 H78 0.931 . S
C54 C53 1.384 . S
C54 C57 1.382 . S
C55 C53 1.384 . S
C55 C56 1.381 . S
C55 H79 0.930 . S
C56 C55 1.381 . S
C56 C58 1.381 . S
C56 C59 1.487 . S
C57 C54 1.382 . S
C57 C58 1.387 . S
C57 H80 0.930 . S
C58 C56 1.381 . S
C58 C57 1.387 . S
C58 H81 0.931 . S
C59 C52 1.399 . S
C59 C56 1.487 . S
C59 N91 1.343 . S
C60 C61 1.384 . S
C60 C62 1.384 . S
C60 H82 0.931 . S
C61 C60 1.384 . S
C61 C64 1.382 . S
C62 C60 1.384 . S
C62 C63 1.381 . S
C62 H83 0.930 . S
C63 C62 1.381 . S
C63 C65 1.381 . S
C63 C66 1.487 . S
C64 C61 1.382 . S
C64 C65 1.387 . S
C64 H84 0.930 . S
C65 C63 1.381 . S
C65 C64 1.387 . S
C65 H85 0.931 . S
C66 C63 1.487 . S
C66 C73 1.399 . S
C66 N91 1.343 . S
C67 C68 1.384 . S
C67 C69 1.384 . S
C67 H86 0.931 . S
C68 C67 1.384 . S
C68 C71 1.382 . S
C69 C67 1.384 . S
C69 C70 1.381 . S
C69 H87 0.930 . S
C70 C69 1.381 . S
C70 C72 1.381 . S
C70 C73 1.487 . S
C71 C68 1.382 . S
C71 C72 1.387 . S
C71 H88 0.930 . S
C72 C70 1.381 . S
C72 C71 1.387 . S
C72 H89 0.931 . S
C73 C66 1.399 . S
C73 C70 1.487 . S
C73 N90 1.343 . S
H74 C46 0.931 . S
H75 C48 0.930 . S
H76 C50 0.930 . S
H77 C51 0.931 . S
H78 C53 0.931 . S
H79 C55 0.930 . S
H80 C57 0.930 . S
H81 C58 0.931 . S
H82 C60 0.931 . S
H83 C62 0.930 . S
H84 C64 0.930 . S
H85 C65 0.931 . S
H86 C67 0.931 . S
H87 C69 0.930 . S
H88 C71 0.930 . S
H89 C72 0.931 . S
N90 C52 1.343 . S
N90 C73 1.343 . S
N91 C59 1.343 . S
N91 C66 1.343 . S
C92 C93 1.384 . S
C92 C94 1.384 . S
C92 H120 0.931 1_545 S
C93 C92 1.384 . S
C93 C96 1.382 . S
C94 C92 1.384 . S
C94 C95 1.381 . S
C94 H121 0.930 1_545 S
C95 C94 1.381 . S
C95 C97 1.381 . S
C95 C98 1.487 . S
C96 C93 1.382 . S
C96 C97 1.387 . S
C96 H122 0.930 . S
C97 C95 1.381 . S
C97 C96 1.387 . S
C97 H123 0.931 . S
C98 C95 1.487 . S
C98 C105 1.399 1_546 S
C98 N136 1.343 . S
C99 C100 1.384 . S
C99 C101 1.394 . S
C99 H124 0.931 1_565 S
C100 C99 1.384 . S
C100 C103 1.382 . S
C101 C99 1.394 . S
C101 C102 1.399 . S
C101 H125 0.903 1_565 S
C102 C101 1.399 . S
C102 C104 1.381 . S
C102 C105 1.487 . S
C103 C100 1.382 . S
C103 C104 1.387 . S
C103 H126 0.930 . S
C104 C102 1.381 . S
C104 C103 1.387 . S
C104 H127 0.931 . S
C105 C98 1.399 1_564 S
C105 C102 1.487 . S
C105 N137 1.343 . S
C106 C107 1.384 . S
C106 C108 1.394 . S
C106 H128 0.931 1_565 S
C107 C106 1.384 . S
C107 C110 1.382 . S
C108 C106 1.394 . S
C108 C109 1.399 . S
C108 H129 0.903 1_565 S
C109 C108 1.399 . S
C109 C111 1.381 . S
C109 C112 1.487 . S
C110 C107 1.382 . S
C110 C111 1.387 . S
C110 H130 0.930 . S
C111 C109 1.381 . S
C111 C110 1.387 . S
C111 H131 0.931 . S
C112 C109 1.487 . S
C112 C119 1.399 1_564 S
C112 N137 1.343 . S
C113 C114 1.384 . S
C113 C115 1.384 . S
C113 H132 0.931 1_545 S
C114 C113 1.384 . S
C114 C117 1.382 . S
C115 C113 1.384 . S
C115 C116 1.381 . S
C115 H133 0.930 1_545 S
C116 C115 1.381 . S
C116 C118 1.381 . S
C116 C119 1.487 . S
C117 C114 1.382 . S
C117 C118 1.387 . S
C117 H134 0.930 . S
C118 C116 1.381 . S
C118 C117 1.387 . S
C118 H135 0.931 . S
C119 C112 1.399 1_546 S
C119 C116 1.487 . S
C119 N136 1.343 . S
H120 C92 0.931 1_565 S
H121 C94 0.930 1_565 S
H122 C96 0.930 . S
H123 C97 0.931 . S
H124 C99 0.931 1_545 S
H125 C101 0.903 1_545 S
H126 C103 0.930 . S
H127 C104 0.931 . S
H128 C106 0.931 1_545 S
H129 C108 0.903 1_545 S
H130 C110 0.930 . S
H131 C111 0.931 . S
H132 C113 0.931 1_565 S
H133 C115 0.930 1_565 S
H134 C117 0.930 . S
H135 C118 0.931 . S
N136 C98 1.343 . S
N136 C119 1.343 . S
N137 C105 1.343 . S
N137 C112 1.343 . S
C138 C139 1.384 . S
C138 C140 1.384 . S
C138 H166 0.931 . S
C139 C138 1.384 . S
C139 C142 1.382 . S
C140 C138 1.384 . S
C140 C141 1.381 . S
C140 H167 0.930 . S
C141 C140 1.381 . S
C141 C143 1.381 . S
C141 C144 1.487 . S
C142 C139 1.382 . S
C142 C143 1.387 . S
C142 H168 0.930 . S
C143 C141 1.381 . S
C143 C142 1.387 . S
C143 H169 0.931 . S
C144 C141 1.487 . S
C144 C151 1.399 . S
C144 N182 1.343 . S
C145 C146 1.384 . S
C145 C147 1.384 . S
C145 H170 0.931 . S
C146 C145 1.384 . S
C146 C149 1.382 . S
C147 C145 1.384 . S
C147 C148 1.381 . S
C147 H171 0.930 . S
C148 C147 1.381 . S
C148 C150 1.381 . S
C148 C151 1.487 . S
C149 C146 1.382 . S
C149 C150 1.387 . S
C149 H172 0.930 . S
C150 C148 1.381 . S
C150 C149 1.387 . S
C150 H173 0.931 . S
C151 C144 1.399 . S
C151 C148 1.487 . S
C151 N183 1.343 . S
C152 C153 1.384 . S
C152 C154 1.384 . S
C152 H174 0.931 . S
C153 C152 1.384 . S
C153 C156 1.382 . S
C154 C152 1.384 . S
C154 C155 1.381 . S
C154 H175 0.930 . S
C155 C154 1.381 . S
C155 C157 1.381 . S
C155 C158 1.487 . S
C156 C153 1.382 . S
C156 C157 1.387 . S
C156 H176 0.930 . S
C157 C155 1.381 . S
C157 C156 1.387 . S
C157 H177 0.931 . S
C158 C155 1.487 . S
C158 C165 1.399 . S
C158 N183 1.343 . S
C159 C160 1.384 . S
C159 C161 1.384 . S
C159 H178 0.931 . S
C160 C159 1.384 . S
C160 C163 1.382 . S
C161 C159 1.384 . S
C161 C162 1.381 . S
C161 H179 0.930 . S
C162 C161 1.381 . S
C162 C164 1.381 . S
C162 C165 1.487 . S
C163 C160 1.382 . S
C163 C164 1.387 . S
C163 H180 0.930 . S
C164 C162 1.381 . S
C164 C163 1.387 . S
C164 H181 0.931 . S
C165 C158 1.399 . S
C165 C162 1.487 . S
C165 N182 1.343 . S
H166 C138 0.931 . S
H167 C140 0.930 . S
H168 C142 0.930 . S
H169 C143 0.931 . S
H170 C145 0.931 . S
H171 C147 0.930 . S
H172 C149 0.930 . S
H173 C150 0.931 . S
H174 C152 0.931 . S
H175 C154 0.930 . S
H176 C156 0.930 . S
H177 C157 0.931 . S
H178 C159 0.931 . S
H179 C161 0.930 . S
H180 C163 0.930 . S
H181 C164 0.931 . S
N182 C144 1.343 . S
N182 C165 1.343 . S
N183 C151 1.343 . S
N183 C158 1.343 . S
C184 C185 1.384 . S
C184 C186 1.384 . S
C184 H212 0.931 . S
C185 C184 1.384 . S
C185 C188 1.382 . S
C186 C184 1.384 . S
C186 C187 1.381 . S
C186 H213 0.930 . S
C187 C186 1.381 . S
C187 C189 1.381 . S
C187 C190 1.487 . S
C188 C185 1.382 . S
C188 C189 1.387 . S
C188 H214 0.930 . S
C189 C187 1.381 . S
C189 C188 1.387 . S
C189 H215 0.931 . S
C190 C187 1.487 . S
C190 C197 1.399 . S
C190 N228 1.343 . S
C191 C192 1.384 . S
C191 C193 1.384 . S
C191 H216 0.931 . S
C192 C191 1.384 . S
C192 C195 1.382 . S
C193 C191 1.384 . S
C193 C194 1.381 . S
C193 H217 0.930 . S
C194 C193 1.381 . S
C194 C196 1.381 . S
C194 C197 1.487 . S
C195 C192 1.382 . S
C195 C196 1.387 . S
C195 H218 0.930 . S
C196 C194 1.381 . S
C196 C195 1.387 . S
C196 H219 0.931 . S
C197 C190 1.399 . S
C197 C194 1.487 . S
C197 N229 1.343 . S
C198 C199 1.384 . S
C198 C200 1.384 . S
C198 H220 0.931 . S
C199 C198 1.384 . S
C199 C202 1.382 . S
C200 C198 1.384 . S
C200 C201 1.381 . S
C200 H221 0.930 . S
C201 C200 1.381 . S
C201 C203 1.381 . S
C201 C204 1.487 . S
C202 C199 1.382 . S
C202 C203 1.387 . S
C202 H222 0.930 . S
C203 C201 1.381 . S
C203 C202 1.387 . S
C203 H223 0.931 . S
C204 C201 1.487 . S
C204 C211 1.399 . S
C204 N229 1.343 . S
C205 C206 1.384 . S
C205 C207 1.384 . S
C205 H224 0.931 . S
C206 C205 1.384 . S
C206 C209 1.382 . S
C207 C205 1.384 . S
C207 C208 1.381 . S
C207 H225 0.930 . S
C208 C207 1.381 . S
C208 C210 1.381 . S
C208 C211 1.487 . S
C209 C206 1.382 . S
C209 C210 1.387 . S
C209 H226 0.930 . S
C210 C208 1.381 . S
C210 C209 1.387 . S
C210 H227 0.931 . S
C211 C204 1.399 . S
C211 C208 1.487 . S
C211 N228 1.343 . S
H212 C184 0.931 . S
H213 C186 0.930 . S
H214 C188 0.930 . S
H215 C189 0.931 . S
H216 C191 0.931 . S
H217 C193 0.930 . S
H218 C195 0.930 . S
H219 C196 0.931 . S
H220 C198 0.931 . S
H221 C200 0.930 . S
H222 C202 0.930 . S
H223 C203 0.931 . S
H224 C205 0.931 . S
H225 C207 0.930 . S
H226 C209 0.930 . S
H227 C210 0.931 . S
N228 C190 1.343 . S
N228 C211 1.343 . S
N229 C197 1.343 . S
N229 C204 1.343 . S
C230 C231 1.384 . S
C230 C232 1.384 . S
C230 H258 0.931 . S
C231 C230 1.384 . S
C231 C234 1.382 . S
C232 C230 1.384 . S
C232 C233 1.381 . S
C232 H259 0.930 . S
C233 C232 1.381 . S
C233 C235 1.381 . S
C233 C236 1.487 . S
C234 C231 1.382 . S
C234 C235 1.387 . S
C234 H260 0.930 . S
C235 C233 1.381 . S
C235 C234 1.387 . S
C235 H261 0.931 . S
C236 C233 1.487 . S
C236 C243 1.399 . S
C236 N274 1.343 . S
C237 C238 1.384 . S
C237 C239 1.384 . S
C237 H262 0.931 . S
C238 C237 1.384 . S
C238 C241 1.382 . S
C239 C237 1.384 . S
C239 C240 1.381 . S
C239 H263 0.930 . S
C240 C239 1.381 . S
C240 C242 1.381 . S
C240 C243 1.487 . S
C241 C238 1.382 . S
C241 C242 1.387 . S
C241 H264 0.930 . S
C242 C240 1.381 . S
C242 C241 1.387 . S
C242 H265 0.931 . S
C243 C236 1.399 . S
C243 C240 1.487 . S
C243 N275 1.343 . S
C244 C245 1.384 . S
C244 C246 1.384 . S
C244 H266 0.931 . S
C245 C244 1.384 . S
C245 C248 1.382 . S
C246 C244 1.384 . S
C246 C247 1.381 . S
C246 H267 0.930 . S
C247 C246 1.381 . S
C247 C249 1.381 . S
C247 C250 1.487 . S
C248 C245 1.382 . S
C248 C249 1.387 . S
C248 H268 0.930 . S
C249 C247 1.381 . S
C249 C248 1.387 . S
C249 H269 0.931 . S
C250 C247 1.487 . S
C250 C257 1.399 . S
C250 N275 1.343 . S
C251 C252 1.384 . S
C251 C253 1.384 . S
C251 H270 0.931 . S
C252 C251 1.384 . S
C252 C255 1.382 . S
C253 C251 1.384 . S
C253 C254 1.381 . S
C253 H271 0.930 . S
C254 C253 1.381 . S
C254 C256 1.381 . S
C254 C257 1.487 . S
C255 C252 1.382 . S
C255 C256 1.387 . S
C255 H272 0.930 . S
C256 C254 1.381 . S
C256 C255 1.387 . S
C256 H273 0.931 . S
C257 C250 1.399 . S
C257 C254 1.487 . S
C257 N274 1.343 . S
H258 C230 0.931 . S
H259 C232 0.930 . S
H260 C234 0.930 . S
H261 C235 0.931 . S
H262 C237 0.931 . S
H263 C239 0.930 . S
H264 C241 0.930 . S
H265 C242 0.931 . S
H266 C244 0.931 . S
H267 C246 0.930 . S
H268 C248 0.930 . S
H269 C249 0.931 . S
H270 C251 0.931 . S
H271 C253 0.930 . S
H272 C255 0.930 . S
H273 C256 0.931 . S
N274 C236 1.343 . S
N274 C257 1.343 . S
N275 C243 1.343 . S
N275 C250 1.343 . S
C276 C277 1.384 . S
C276 C278 1.384 . S
C276 H304 0.931 . S
C277 C276 1.384 . S
C277 C280 1.382 . S
C278 C276 1.384 . S
C278 C279 1.381 . S
C278 H305 0.930 . S
C279 C278 1.381 . S
C279 C281 1.381 . S
C279 C282 1.487 . S
C280 C277 1.382 . S
C280 C281 1.387 . S
C280 H306 0.930 . S
C281 C279 1.381 . S
C281 C280 1.387 . S
C281 H307 0.931 . S
C282 C279 1.487 . S
C282 C289 1.399 1_556 S
C282 N320 1.343 . S
C283 C284 1.384 . S
C283 C285 1.384 . S
C283 H308 0.931 . S
C284 C283 1.384 . S
C284 C287 1.382 . S
C285 C283 1.384 . S
C285 C286 1.381 . S
C285 H309 0.930 . S
C286 C285 1.381 . S
C286 C288 1.381 . S
C286 C289 1.487 . S
C287 C284 1.382 . S
C287 C288 1.387 . S
C287 H310 0.930 . S
C288 C286 1.381 . S
C288 C287 1.387 . S
C288 H311 0.931 . S
C289 C282 1.399 1_554 S
C289 C286 1.487 . S
C289 N321 1.343 . S
C290 C291 1.384 . S
C290 C292 1.384 . S
C290 H312 0.931 . S
C291 C290 1.384 . S
C291 C294 1.382 . S
C292 C290 1.384 . S
C292 C293 1.381 . S
C292 H313 0.930 . S
C293 C292 1.381 . S
C293 C295 1.381 . S
C293 C296 1.487 . S
C294 C291 1.382 . S
C294 C295 1.387 . S
C294 H314 0.930 . S
C295 C293 1.381 . S
C295 C294 1.387 . S
C295 H315 0.931 . S
C296 C293 1.487 . S
C296 C303 1.399 1_554 S
C296 N321 1.343 . S
C297 C298 1.384 . S
C297 C299 1.384 . S
C297 H316 0.931 . S
C298 C297 1.384 . S
C298 C301 1.382 . S
C299 C297 1.384 . S
C299 C300 1.381 . S
C299 H317 0.930 . S
C300 C299 1.381 . S
C300 C302 1.381 . S
C300 C303 1.487 . S
C301 C298 1.382 . S
C301 C302 1.387 . S
C301 H318 0.930 . S
C302 C300 1.381 . S
C302 C301 1.387 . S
C302 H319 0.931 . S
C303 C296 1.399 1_556 S
C303 C300 1.487 . S
C303 N320 1.343 . S
H304 C276 0.931 . S
H305 C278 0.930 . S
H306 C280 0.930 . S
H307 C281 0.931 . S
H308 C283 0.931 . S
H309 C285 0.930 . S
H310 C287 0.930 . S
H311 C288 0.931 . S
H312 C290 0.931 . S
H313 C292 0.930 . S
H314 C294 0.930 . S
H315 C295 0.931 . S
H316 C297 0.931 . S
H317 C299 0.930 . S
H318 C301 0.930 . S
H319 C302 0.931 . S
N320 C282 1.343 . S
N320 C303 1.343 . S
N321 C289 1.343 . S
N321 C296 1.343 . S
C322 C323 1.384 . S
C322 C324 1.384 . S
C322 H350 0.931 1_455 S
C323 C322 1.384 . S
C323 C326 1.382 . S
C324 C322 1.384 . S
C324 C325 1.381 . S
C324 H351 0.930 . S
C325 C324 1.381 . S
C325 C327 1.381 . S
C325 C328 1.487 . S
C326 C323 1.382 . S
C326 C327 1.387 . S
C326 H352 0.930 . S
C327 C325 1.381 . S
C327 C326 1.387 . S
C327 H353 0.931 . S
C328 C325 1.487 . S
C328 C335 1.399 . S
C328 N366 1.343 . S
C329 C330 1.384 . S
C329 C331 1.384 . S
C329 H354 0.931 1_455 S
C330 C329 1.384 . S
C330 C333 1.382 . S
C331 C329 1.384 . S
C331 C332 1.381 . S
C331 H355 0.930 . S
C332 C331 1.381 . S
C332 C334 1.381 . S
C332 C335 1.487 . S
C333 C330 1.382 . S
C333 C334 1.387 . S
C333 H356 0.930 . S
C334 C332 1.381 . S
C334 C333 1.387 . S
C334 H357 0.931 . S
C335 C328 1.399 . S
C335 C332 1.487 . S
C335 N367 1.343 . S
C336 C337 1.384 . S
C336 C338 1.384 . S
C336 H358 0.931 . S
C337 C336 1.384 . S
C337 C340 1.382 . S
C338 C336 1.384 . S
C338 C339 1.381 . S
C338 H359 0.930 . S
C339 C338 1.381 . S
C339 C341 1.381 . S
C339 C342 1.487 . S
C340 C337 1.382 . S
C340 C341 1.387 . S
C340 H360 0.930 . S
C341 C339 1.381 . S
C341 C340 1.387 . S
C341 H361 0.931 . S
C342 C339 1.487 . S
C342 C349 1.399 . S
C342 N367 1.343 . S
C343 C344 1.384 . S
C343 C345 1.384 . S
C343 H362 0.931 . S
C344 C343 1.384 . S
C344 C347 1.382 . S
C345 C343 1.384 . S
C345 C346 1.381 . S
C345 H363 0.930 . S
C346 C345 1.381 . S
C346 C348 1.381 . S
C346 C349 1.487 . S
C347 C344 1.382 . S
C347 C348 1.387 . S
C347 H364 0.930 . S
C348 C346 1.381 . S
C348 C347 1.387 . S
C348 H365 0.931 . S
C349 C342 1.399 . S
C349 C346 1.487 . S
C349 N366 1.343 . S
H350 C322 0.931 1_655 S
H351 C324 0.930 . S
H352 C326 0.930 . S
H353 C327 0.931 . S
H354 C329 0.931 1_655 S
H355 C331 0.930 . S
H356 C333 0.930 . S
H357 C334 0.931 . S
H358 C336 0.931 . S
H359 C338 0.930 . S
H360 C340 0.930 . S
H361 C341 0.931 . S
H362 C343 0.931 . S
H363 C345 0.930 . S
H364 C347 0.930 . S
H365 C348 0.931 . S
N366 C328 1.343 . S
N366 C349 1.343 . S
N367 C335 1.343 . S
N367 C342 1.343 . S
C368 O395 1.312 . S
C368 O396 1.208 . S
C369 O390 1.331 1_655 S
C369 O393 1.244 . S
C370 O392 1.264 1_655 S
C370 O394 1.273 . S
Mg371 O373 1.936 . S
Mg371 O380 2.081 . S
Mg371 O382 2.023 . S
Mg371 O386 2.031 . S
Mg371 O395 2.291 . S
Mg372 O373 1.963 . S
Mg372 O383 1.942 . S
Mg372 O384 1.955 . S
Mg372 O391 1.986 . S
O373 Mg371 1.936 . S
O373 Mg372 1.963 . S
O373 Mg374 1.915 . S
Mg374 O373 1.915 . S
Mg374 O375 1.915 . S
Mg374 O379 2.013 . S
Mg374 O385 2.114 . S
Mg374 O389 2.013 . S
Mg374 O395 2.114 . S
O375 Mg374 1.915 . S
O375 Mg376 1.936 . S
O375 Mg377 1.963 1_455 S
Mg376 O375 1.936 . S
Mg376 O385 2.291 . S
Mg376 O390 2.081 . S
Mg376 O392 2.023 . S
Mg376 O396 2.031 . S
Mg377 O375 1.963 1_655 S
Mg377 O381 1.986 . S
Mg377 O393 1.942 . S
Mg377 O394 1.955 . S
C378 O389 1.191 . S
C378 O391 1.307 . S
O379 Mg374 2.013 . S
O379 C398 1.191 . S
O380 Mg371 2.081 . S
O380 C388 1.331 . S
O381 Mg377 1.986 . S
O381 C398 1.307 1_655 S
O382 Mg371 2.023 . S
O382 C397 1.264 . S
O383 Mg372 1.942 . S
O383 C388 1.244 . S
O384 Mg372 1.955 . S
O384 C397 1.273 . S
O385 Mg374 2.114 . S
O385 Mg376 2.291 . S
O385 C387 1.312 . S
O386 Mg371 2.031 . S
O386 C387 1.208 . S
C387 O385 1.312 . S
C387 O386 1.208 . S
C388 O380 1.331 . S
C388 O383 1.244 . S
O389 Mg374 2.013 . S
O389 C378 1.191 . S
O390 C369 1.331 1_455 S
O390 Mg376 2.081 . S
O391 Mg372 1.986 . S
O391 C378 1.307 . S
O392 C370 1.264 1_455 S
O392 Mg376 2.023 . S
O393 C369 1.244 . S
O393 Mg377 1.942 . S
O394 C370 1.273 . S
O394 Mg377 1.955 . S
O395 C368 1.312 . S
O395 Mg371 2.291 . S
O395 Mg374 2.114 . S
O396 C368 1.208 . S
O396 Mg376 2.031 . S
C397 O382 1.264 . S
C397 O384 1.273 . S
C398 O379 1.191 . S
C398 O381 1.307 1_455 S
C399 O426 1.312 . S
C399 O427 1.208 . S
C400 O421 1.331 . S
C400 O424 1.244 . S
C401 O423 1.264 . S
C401 O425 1.273 . S
Mg402 O404 1.936 . S
Mg402 O411 2.081 . S
Mg402 O413 2.023 . S
Mg402 O417 2.031 . S
Mg402 O426 2.291 . S
Mg403 O404 1.963 . S
Mg403 O414 1.942 . S
Mg403 O415 1.955 . S
Mg403 O422 1.986 . S
O404 Mg402 1.936 . S
O404 Mg403 1.963 . S
O404 Mg405 1.915 . S
Mg405 O404 1.915 . S
Mg405 O406 1.915 . S
Mg405 O410 2.013 . S
Mg405 O416 2.114 . S
Mg405 O420 2.013 . S
Mg405 O426 2.114 . S
O406 Mg405 1.915 . S
O406 Mg407 1.936 . S
O406 Mg408 1.963 . S
Mg407 O406 1.936 . S
Mg407 O416 2.291 . S
Mg407 O421 2.081 . S
Mg407 O423 2.023 . S
Mg407 O427 2.031 . S
Mg408 O406 1.963 . S
Mg408 O412 1.986 . S
Mg408 O424 1.942 . S
Mg408 O425 1.955 . S
C409 O420 1.191 . S
C409 O422 1.307 . S
O410 Mg405 2.013 . S
O410 C429 1.191 . S
O411 Mg402 2.081 . S
O411 C419 1.331 . S
O412 Mg408 1.986 . S
O412 C429 1.307 . S
O413 Mg402 2.023 . S
O413 C428 1.264 . S
O414 Mg403 1.942 . S
O414 C419 1.244 . S
O415 Mg403 1.955 . S
O415 C428 1.273 . S
O416 Mg405 2.114 . S
O416 Mg407 2.291 . S
O416 C418 1.312 . S
O417 Mg402 2.031 . S
O417 C418 1.208 . S
C418 O416 1.312 . S
C418 O417 1.208 . S
C419 O411 1.331 . S
C419 O414 1.244 . S
O420 Mg405 2.013 . S
O420 C409 1.191 . S
O421 C400 1.331 . S
O421 Mg407 2.081 . S
O422 Mg403 1.986 . S
O422 C409 1.307 . S
O423 C401 1.264 . S
O423 Mg407 2.023 . S
O424 C400 1.244 . S
O424 Mg408 1.942 . S
O425 C401 1.273 . S
O425 Mg408 1.955 . S
O426 C399 1.312 . S
O426 Mg402 2.291 . S
O426 Mg405 2.114 . S
O427 C399 1.208 . S
O427 Mg407 2.031 . S
C428 O413 1.264 . S
C428 O415 1.273 . S
C429 O410 1.191 . S
C429 O412 1.307 . S
C430 O457 1.312 . S
C430 O458 1.208 . S
C431 O452 1.331 . S
C431 O455 1.244 . S
C432 O454 1.264 . S
C432 O456 1.273 . S
Mg433 O435 1.936 . S
Mg433 O442 2.081 . S
Mg433 O444 2.023 . S
Mg433 O448 2.031 . S
Mg433 O457 2.291 . S
Mg434 O435 1.963 . S
Mg434 O445 1.942 . S
Mg434 O446 1.955 . S
Mg434 O453 1.986 . S
O435 Mg433 1.936 . S
O435 Mg434 1.963 . S
O435 Mg436 1.915 . S
Mg436 O435 1.915 . S
Mg436 O437 1.915 . S
Mg436 O441 2.013 . S
Mg436 O447 2.114 . S
Mg436 O451 2.013 . S
Mg436 O457 2.114 . S
O437 Mg436 1.915 . S
O437 Mg438 1.936 . S
O437 Mg439 1.963 . S
Mg438 O437 1.936 . S
Mg438 O447 2.291 . S
Mg438 O452 2.081 . S
Mg438 O454 2.023 . S
Mg438 O458 2.031 . S
Mg439 O437 1.963 . S
Mg439 O443 1.986 . S
Mg439 O455 1.942 . S
Mg439 O456 1.955 . S
C440 O451 1.191 . S
C440 O453 1.307 . S
O441 Mg436 2.013 . S
O441 C460 1.191 . S
O442 Mg433 2.081 . S
O442 C450 1.331 . S
O443 Mg439 1.986 . S
O443 C460 1.307 . S
O444 Mg433 2.023 . S
O444 C459 1.264 . S
O445 Mg434 1.942 . S
O445 C450 1.244 . S
O446 Mg434 1.955 . S
O446 C459 1.273 . S
O447 Mg436 2.114 . S
O447 Mg438 2.291 . S
O447 C449 1.312 . S
O448 Mg433 2.031 . S
O448 C449 1.208 . S
C449 O447 1.312 . S
C449 O448 1.208 . S
C450 O442 1.331 . S
C450 O445 1.244 . S
O451 Mg436 2.013 . S
O451 C440 1.191 . S
O452 C431 1.331 . S
O452 Mg438 2.081 . S
O453 Mg434 1.986 . S
O453 C440 1.307 . S
O454 C432 1.264 . S
O454 Mg438 2.023 . S
O455 C431 1.244 . S
O455 Mg439 1.942 . S
O456 C432 1.273 . S
O456 Mg439 1.955 . S
O457 C430 1.312 . S
O457 Mg433 2.291 . S
O457 Mg436 2.114 . S
O458 C430 1.208 . S
O458 Mg438 2.031 . S
C459 O444 1.264 . S
C459 O446 1.273 . S
C460 O441 1.191 . S
C460 O443 1.307 . S
C461 O488 1.312 . S
C461 O489 1.208 . S
C462 O483 1.331 . S
C462 O486 1.244 . S
C463 O485 1.264 . S
C463 O487 1.273 . S
Mg464 O466 1.936 . S
Mg464 O473 2.081 . S
Mg464 O475 2.023 . S
Mg464 O479 2.031 . S
Mg464 O488 2.291 . S
Mg465 O466 1.963 1_655 S
Mg465 O476 1.942 . S
Mg465 O477 1.955 . S
Mg465 O484 1.986 . S
O466 Mg464 1.936 . S
O466 Mg465 1.963 1_455 S
O466 Mg467 1.915 . S
Mg467 O466 1.915 . S
Mg467 O468 1.915 . S
Mg467 O472 2.013 . S
Mg467 O478 2.114 . S
Mg467 O482 2.013 . S
Mg467 O488 2.114 . S
O468 Mg467 1.915 . S
O468 Mg469 1.936 . S
O468 Mg470 1.963 . S
Mg469 O468 1.936 . S
Mg469 O478 2.291 . S
Mg469 O483 2.081 . S
Mg469 O485 2.023 . S
Mg469 O489 2.031 . S
Mg470 O468 1.963 . S
Mg470 O474 1.986 . S
Mg470 O486 1.942 . S
Mg470 O487 1.955 . S
C471 O482 1.191 . S
C471 O484 1.307 1_455 S
O472 Mg467 2.013 . S
O472 C491 1.191 . S
O473 Mg464 2.081 . S
O473 C481 1.331 1_455 S
O474 Mg470 1.986 . S
O474 C491 1.307 . S
O475 Mg464 2.023 . S
O475 C490 1.264 1_455 S
O476 Mg465 1.942 . S
O476 C481 1.244 . S
O477 Mg465 1.955 . S
O477 C490 1.273 . S
O478 Mg467 2.114 . S
O478 Mg469 2.291 . S
O478 C480 1.312 . S
O479 Mg464 2.031 . S
O479 C480 1.208 . S
C480 O478 1.312 . S
C480 O479 1.208 . S
C481 O473 1.331 1_655 S
C481 O476 1.244 . S
O482 Mg467 2.013 . S
O482 C471 1.191 . S
O483 C462 1.331 . S
O483 Mg469 2.081 . S
O484 Mg465 1.986 . S
O484 C471 1.307 1_655 S
O485 C463 1.264 . S
O485 Mg469 2.023 . S
O486 C462 1.244 . S
O486 Mg470 1.942 . S
O487 C463 1.273 . S
O487 Mg470 1.955 . S
O488 C461 1.312 . S
O488 Mg464 2.291 . S
O488 Mg467 2.114 . S
O489 C461 1.208 . S
O489 Mg469 2.031 . S
C490 O475 1.264 1_655 S
C490 O477 1.273 . S
C491 O472 1.191 . S
C491 O474 1.307 . S
H492 C500 0.929 . S
H493 C502 0.930 . S
H494 C504 0.930 . S
H495 C507 0.929 . S
H496 C510 0.930 . S
H497 C512 0.960 . S
H498 C512 0.960 . S
H499 C512 0.960 . S
C500 H492 0.929 . S
C500 C501 1.377 . S
C500 C502 1.384 . S
C501 C500 1.377 . S
C501 C507 1.390 . S
C502 H493 0.930 . S
C502 C500 1.384 . S
C502 C503 1.372 . S
C503 C502 1.372 . S
C503 C504 1.400 . S
C503 C508 1.490 . S
C504 H494 0.930 . S
C504 C503 1.400 . S
C504 C507 1.386 . S
H505 C521 0.930 . S
H506 C522 0.931 . S
C507 H495 0.929 . S
C507 C501 1.390 . S
C507 C504 1.386 . S
C508 C503 1.490 . S
C508 C510 1.395 . S
C508 C511 1.403 . S
H509 C515 0.930 . S
C510 H496 0.930 . S
C510 C508 1.395 . S
C510 C513 1.403 . S
C511 C508 1.403 . S
C511 C512 1.524 . S
C511 C515 1.400 . S
C512 H497 0.960 . S
C512 H498 0.960 . S
C512 H499 0.960 . S
C512 C511 1.524 . S
C513 C510 1.403 . S
C513 C514 1.392 . S
C513 C517 1.495 . S
C514 C513 1.392 . S
C514 C515 1.385 . S
C514 C516 1.478 . S
C515 H509 0.930 . S
C515 C511 1.400 . S
C515 C514 1.385 . S
C516 C514 1.478 . S
C516 C518 1.381 . S
C516 C522 1.383 . S
C517 C513 1.495 . S
C517 H523 0.959 . S
C517 H524 0.961 . S
C517 H525 0.960 . S
C518 C516 1.381 . S
C518 C519 1.394 . S
C518 H526 0.930 . S
C519 C518 1.394 . S
C519 C520 1.383 . S
C519 H527 0.929 . S
C520 C519 1.383 . S
C520 C521 1.377 . S
C521 H505 0.930 . S
C521 C520 1.377 . S
C521 C522 1.379 . S
C522 H506 0.931 . S
C522 C516 1.383 . S
C522 C521 1.379 . S
H523 C517 0.959 . S
H524 C517 0.961 . S
H525 C517 0.960 . S
H526 C518 0.930 . S
H527 C519 0.929 . S
H528 C536 0.929 . S
H529 C538 0.930 . S
H530 C540 0.930 . S
H531 C543 0.929 . S
H532 C546 0.930 . S
H533 C548 0.960 . S
H534 C548 0.960 1_565 S
H535 C548 0.960 1_565 S
C536 H528 0.929 . S
C536 C537 1.377 . S
C536 C538 1.384 . S
C537 C536 1.377 . S
C537 C543 1.390 . S
C538 H529 0.930 . S
C538 C536 1.384 . S
C538 C539 1.372 . S
C539 C538 1.372 . S
C539 C540 1.400 . S
C539 C544 1.490 . S
C540 H530 0.930 . S
C540 C539 1.400 . S
C540 C543 1.386 . S
H541 C557 0.930 . S
H542 C558 0.931 . S
C543 H531 0.929 . S
C543 C537 1.390 . S
C543 C540 1.386 . S
C544 C539 1.490 . S
C544 C546 1.395 . S
C544 C547 1.403 . S
H545 C551 0.930 . S
C546 H532 0.930 . S
C546 C544 1.395 . S
C546 C549 1.403 . S
C547 C544 1.403 . S
C547 C548 1.524 1_565 S
C547 C551 1.400 1_565 S
C548 H533 0.960 . S
C548 H534 0.960 1_545 S
C548 H535 0.960 1_545 S
C548 C547 1.524 1_545 S
C549 C546 1.403 . S
C549 C550 1.392 1_565 S
C549 C553 1.495 . S
C550 C549 1.392 1_545 S
C550 C551 1.385 . S
C550 C552 1.478 . S
C551 H545 0.930 . S
C551 C547 1.400 1_545 S
C551 C550 1.385 . S
C552 C550 1.478 . S
C552 C554 1.381 . S
C552 C558 1.383 . S
C553 C549 1.495 . S
C553 H559 0.959 . S
C553 H560 0.961 . S
C553 H561 0.960 . S
C554 C552 1.381 . S
C554 C555 1.394 . S
C554 H562 0.930 . S
C555 C554 1.394 . S
C555 C556 1.383 . S
C555 H563 0.929 . S
C556 C555 1.383 . S
C556 C557 1.377 . S
C557 H541 0.930 . S
C557 C556 1.377 . S
C557 C558 1.379 . S
C558 H542 0.931 . S
C558 C552 1.383 . S
C558 C557 1.379 . S
H559 C553 0.959 . S
H560 C553 0.961 . S
H561 C553 0.960 . S
H562 C554 0.930 . S
H563 C555 0.929 . S
H564 C572 0.929 . S
H565 C574 0.930 . S
H566 C576 0.930 . S
H567 C579 0.929 . S
H568 C582 0.930 . S
H569 C584 0.960 . S
H570 C584 0.960 . S
H571 C584 0.960 . S
C572 H564 0.929 . S
C572 C573 1.377 . S
C572 C574 1.384 . S
C573 C572 1.377 . S
C573 C579 1.390 . S
C574 H565 0.930 . S
C574 C572 1.384 . S
C574 C575 1.372 . S
C575 C574 1.372 . S
C575 C576 1.400 . S
C575 C580 1.490 . S
C576 H566 0.930 . S
C576 C575 1.400 . S
C576 C579 1.386 . S
H577 C593 0.930 . S
H578 C594 0.931 . S
C579 H567 0.929 . S
C579 C573 1.390 . S
C579 C576 1.386 . S
C580 C575 1.490 . S
C580 C582 1.395 . S
C580 C583 1.403 . S
H581 C587 0.930 . S
C582 H568 0.930 . S
C582 C580 1.395 . S
C582 C585 1.403 . S
C583 C580 1.403 . S
C583 C584 1.524 . S
C583 C587 1.400 . S
C584 H569 0.960 . S
C584 H570 0.960 . S
C584 H571 0.960 . S
C584 C583 1.524 . S
C585 C582 1.403 . S
C585 C586 1.392 . S
C585 C589 1.495 . S
C586 C585 1.392 . S
C586 C587 1.385 . S
C586 C588 1.478 . S
C587 H581 0.930 . S
C587 C583 1.400 . S
C587 C586 1.385 . S
C588 C586 1.478 . S
C588 C590 1.381 . S
C588 C594 1.383 . S
C589 C585 1.495 . S
C589 H595 0.959 . S
C589 H596 0.961 . S
C589 H597 0.960 . S
C590 C588 1.381 . S
C590 C591 1.394 . S
C590 H598 0.930 . S
C591 C590 1.394 . S
C591 C592 1.383 . S
C591 H599 0.929 . S
C592 C591 1.383 . S
C592 C593 1.377 . S
C593 H577 0.930 . S
C593 C592 1.377 . S
C593 C594 1.379 . S
C594 H578 0.931 . S
C594 C588 1.383 . S
C594 C593 1.379 . S
H595 C589 0.959 . S
H596 C589 0.961 . S
H597 C589 0.960 . S
H598 C590 0.930 . S
H599 C591 0.929 . S
H600 C608 0.929 . S
H601 C610 0.930 . S
H602 C612 0.930 . S
H603 C615 0.929 . S
H604 C618 0.930 . S
H605 C620 0.960 . S
H606 C620 0.965 . S
H607 C620 0.960 . S
C608 H600 0.929 . S
C608 C609 1.377 . S
C608 C610 1.384 . S
C609 C608 1.377 . S
C609 C615 1.390 . S
C610 H601 0.930 . S
C610 C608 1.384 . S
C610 C611 1.372 . S
C611 C610 1.372 . S
C611 C612 1.400 . S
C611 C616 1.490 . S
C612 H602 0.930 . S
C612 C611 1.400 . S
C612 C615 1.386 . S
H613 C629 0.930 . S
H614 C630 0.931 . S
C615 H603 0.929 . S
C615 C609 1.390 . S
C615 C612 1.386 . S
C616 C611 1.490 . S
C616 C618 1.395 . S
C616 C619 1.403 1_545 S
H617 C623 0.930 . S
C618 H604 0.930 . S
C618 C616 1.395 . S
C618 C621 1.403 . S
C619 C616 1.403 1_565 S
C619 C620 1.524 . S
C619 C623 1.400 . S
C620 H605 0.960 . S
C620 H606 0.965 . S
C620 H607 0.960 . S
C620 C619 1.524 . S
C621 C618 1.403 . S
C621 C622 1.392 1_545 S
C621 C625 1.495 . S
C622 C621 1.392 1_565 S
C622 C623 1.385 . S
C622 C624 1.478 . S
C623 H617 0.930 . S
C623 C619 1.400 . S
C623 C622 1.385 . S
C624 C622 1.478 . S
C624 C626 1.381 . S
C624 C630 1.383 . S
C625 C621 1.495 . S
C625 H631 0.959 . S
C625 H632 0.961 . S
C625 H633 0.960 . S
C626 C624 1.381 . S
C626 C627 1.394 . S
C626 H634 0.930 . S
C627 C626 1.394 . S
C627 C628 1.383 . S
C627 H635 0.929 . S
C628 C627 1.383 . S
C628 C629 1.377 . S
C629 H613 0.930 . S
C629 C628 1.377 . S
C629 C630 1.379 . S
C630 H614 0.931 . S
C630 C624 1.383 . S
C630 C629 1.379 . S
H631 C625 0.959 . S
H632 C625 0.961 . S
H633 C625 0.960 . S
H634 C626 0.930 . S
H635 C627 0.929 . S
H636 C644 0.929 . S
H637 C646 0.930 . S
H638 C648 0.930 . S
H639 C651 0.929 . S
H640 C654 0.930 . S
H641 C656 0.960 . S
H642 C656 0.960 . S
H643 C656 0.960 . S
C644 H636 0.929 . S
C644 C645 1.377 . S
C644 C646 1.384 . S
C645 C644 1.377 . S
C645 C651 1.390 . S
C646 H637 0.930 . S
C646 C644 1.384 . S
C646 C647 1.372 . S
C647 C646 1.372 . S
C647 C648 1.400 . S
C647 C652 1.490 . S
C648 H638 0.930 . S
C648 C647 1.400 . S
C648 C651 1.386 . S
H649 C665 0.930 . S
H650 C666 0.931 . S
C651 H639 0.929 . S
C651 C645 1.390 . S
C651 C648 1.386 . S
C652 C647 1.490 . S
C652 C654 1.395 . S
C652 C655 1.403 . S
H653 C659 0.930 . S
C654 H640 0.930 . S
C654 C652 1.395 . S
C654 C657 1.403 . S
C655 C652 1.403 . S
C655 C656 1.524 . S
C655 C659 1.400 . S
C656 H641 0.960 . S
C656 H642 0.960 . S
C656 H643 0.960 . S
C656 C655 1.524 . S
C657 C654 1.403 . S
C657 C658 1.392 . S
C657 C661 1.495 . S
C658 C657 1.392 . S
C658 C659 1.385 . S
C658 C660 1.478 . S
C659 H653 0.930 . S
C659 C655 1.400 . S
C659 C658 1.385 . S
C660 C658 1.478 . S
C660 C662 1.381 . S
C660 C666 1.383 . S
C661 C657 1.495 . S
C661 H667 0.959 . S
C661 H668 0.961 . S
C661 H669 0.960 . S
C662 C660 1.381 . S
C662 C663 1.394 . S
C662 H670 0.930 . S
C663 C662 1.394 . S
C663 C664 1.383 . S
C663 H671 0.929 . S
C664 C663 1.383 . S
C664 C665 1.377 . S
C665 H649 0.930 . S
C665 C664 1.377 . S
C665 C666 1.379 . S
C666 H650 0.931 . S
C666 C660 1.383 . S
C666 C665 1.379 . S
H667 C661 0.959 . S
H668 C661 0.961 . S
H669 C661 0.960 . S
H670 C662 0.930 . S
H671 C663 0.929 . S
H672 C680 0.929 . S
H673 C682 0.930 . S
H674 C684 0.930 . S
H675 C687 0.929 . S
H676 C690 0.930 . S
H677 C692 0.960 . S
H678 C692 0.960 . S
H679 C692 0.960 . S
C680 H672 0.929 . S
C680 C681 1.377 . S
C680 C682 1.384 . S
C681 C680 1.377 . S
C681 C687 1.390 . S
C682 H673 0.930 . S
C682 C680 1.384 . S
C682 C683 1.372 . S
C683 C682 1.372 . S
C683 C684 1.400 . S
C683 C688 1.490 . S
C684 H674 0.930 . S
C684 C683 1.400 . S
C684 C687 1.386 . S
H685 C701 0.930 . S
H686 C702 0.931 . S
C687 H675 0.929 . S
C687 C681 1.390 . S
C687 C684 1.386 . S
C688 C683 1.490 . S
C688 C690 1.395 . S
C688 C691 1.403 1_565 S
H689 C695 0.930 . S
C690 H676 0.930 . S
C690 C688 1.395 . S
C690 C693 1.403 . S
C691 C688 1.403 1_545 S
C691 C692 1.524 . S
C691 C695 1.400 . S
C692 H677 0.960 . S
C692 H678 0.960 . S
C692 H679 0.960 . S
C692 C691 1.524 . S
C693 C690 1.403 . S
C693 C694 1.392 1_565 S
C693 C697 1.495 . S
C694 C693 1.392 1_545 S
C694 C695 1.385 . S
C694 C696 1.478 . S
C695 H689 0.930 . S
C695 C691 1.400 . S
C695 C694 1.385 . S
C696 C694 1.478 . S
C696 C698 1.381 . S
C696 C702 1.383 . S
C697 C693 1.495 . S
C697 H703 0.959 . S
C697 H704 0.961 . S
C697 H705 0.960 . S
C698 C696 1.381 . S
C698 C699 1.394 . S
C698 H706 0.930 . S
C699 C698 1.394 . S
C699 C700 1.383 . S
C699 H707 0.929 . S
C700 C699 1.383 . S
C700 C701 1.377 . S
C701 H685 0.930 . S
C701 C700 1.377 . S
C701 C702 1.379 . S
C702 H686 0.931 . S
C702 C696 1.383 . S
C702 C701 1.379 . S
H703 C697 0.959 . S
H704 C697 0.961 . S
H705 C697 0.960 . S
H706 C698 0.930 . S
H707 C699 0.929 . S
H708 C716 0.929 . S
H709 C718 0.930 . S
H710 C720 0.930 . S
H711 C723 0.929 . S
H712 C726 0.930 . S
H713 C728 0.960 . S
H714 C728 0.960 . S
H715 C728 0.960 . S
C716 H708 0.929 . S
C716 C717 1.377 . S
C716 C718 1.384 . S
C717 C716 1.377 . S
C717 C723 1.390 . S
C718 H709 0.930 . S
C718 C716 1.384 . S
C718 C719 1.372 . S
C719 C718 1.372 . S
C719 C720 1.400 . S
C719 C724 1.490 . S
C720 H710 0.930 . S
C720 C719 1.400 . S
C720 C723 1.386 . S
H721 C737 0.930 . S
H722 C738 0.931 . S
C723 H711 0.929 . S
C723 C717 1.390 . S
C723 C720 1.386 . S
C724 C719 1.490 . S
C724 C726 1.395 . S
C724 C727 1.403 . S
H725 C731 0.930 . S
C726 H712 0.930 . S
C726 C724 1.395 . S
C726 C729 1.403 . S
C727 C724 1.403 . S
C727 C728 1.524 . S
C727 C731 1.400 . S
C728 H713 0.960 . S
C728 H714 0.960 . S
C728 H715 0.960 . S
C728 C727 1.524 . S
C729 C726 1.403 . S
C729 C730 1.392 . S
C729 C733 1.495 . S
C730 C729 1.392 . S
C730 C731 1.385 . S
C730 C732 1.478 . S
C731 H725 0.930 . S
C731 C727 1.400 . S
C731 C730 1.385 . S
C732 C730 1.478 . S
C732 C734 1.381 . S
C732 C738 1.383 . S
C733 C729 1.495 . S
C733 H739 0.959 . S
C733 H740 0.961 . S
C733 H741 0.960 . S
C734 C732 1.381 . S
C734 C735 1.394 . S
C734 H742 0.930 . S
C735 C734 1.394 . S
C735 C736 1.383 . S
C735 H743 0.929 . S
C736 C735 1.383 . S
C736 C737 1.377 . S
C737 H721 0.930 . S
C737 C736 1.377 . S
C737 C738 1.379 . S
C738 H722 0.931 . S
C738 C732 1.383 . S
C738 C737 1.379 . S
H739 C733 0.959 . S
H740 C733 0.961 . S
H741 C733 0.960 . S
H742 C734 0.930 . S
H743 C735 0.929 . S
H744 C752 0.929 . S
H745 C754 0.930 . S
H746 C756 0.930 . S
H747 C759 0.929 . S
H748 C762 0.930 . S
H749 C764 0.960 1_565 S
H750 C764 0.960 . S
H751 C764 0.960 . S
C752 H744 0.929 . S
C752 C753 1.377 . S
C752 C754 1.384 . S
C753 C752 1.377 . S
C753 C759 1.390 . S
C754 H745 0.930 . S
C754 C752 1.384 . S
C754 C755 1.372 . S
C755 C754 1.372 . S
C755 C756 1.400 . S
C755 C760 1.490 . S
C756 H746 0.930 . S
C756 C755 1.400 . S
C756 C759 1.386 . S
H757 C773 0.930 . S
H758 C774 0.931 . S
C759 H747 0.929 . S
C759 C753 1.390 . S
C759 C756 1.386 . S
C760 C755 1.490 . S
C760 C762 1.395 . S
C760 C763 1.403 . S
H761 C767 0.930 . S
C762 H748 0.930 . S
C762 C760 1.395 . S
C762 C765 1.403 . S
C763 C760 1.403 . S
C763 C764 1.524 . S
C763 C767 1.400 1_545 S
C764 H749 0.960 1_545 S
C764 H750 0.960 . S
C764 H751 0.960 . S
C764 C763 1.524 . S
C765 C762 1.403 . S
C765 C766 1.392 1_545 S
C765 C769 1.495 . S
C766 C765 1.392 1_565 S
C766 C767 1.385 . S
C766 C768 1.478 . S
C767 H761 0.930 . S
C767 C763 1.400 1_565 S
C767 C766 1.385 . S
C768 C766 1.478 . S
C768 C770 1.381 . S
C768 C774 1.383 . S
C769 C765 1.495 . S
C769 H775 0.959 . S
C769 H776 0.961 1_545 S
C769 H777 0.960 . S
C770 C768 1.381 . S
C770 C771 1.394 . S
C770 H778 0.930 . S
C771 C770 1.394 . S
C771 C772 1.383 . S
C771 H779 0.929 . S
C772 C771 1.383 . S
C772 C773 1.377 . S
C773 H757 0.930 . S
C773 C772 1.377 . S
C773 C774 1.379 . S
C774 H758 0.931 . S
C774 C768 1.383 . S
C774 C773 1.379 . S
H775 C769 0.959 . S
H776 C769 0.961 1_565 S
H777 C769 0.960 . S
H778 C770 0.930 . S
H779 C771 0.929 . S
H780 C788 0.929 . S
H781 C790 0.930 . S
H782 C792 0.930 . S
H783 C795 0.929 . S
H784 C798 0.930 . S
H785 C800 0.960 . S
H786 C800 0.960 . S
H787 C800 0.960 . S
C788 H780 0.929 . S
C788 C789 1.377 . S
C788 C790 1.384 . S
C789 C788 1.377 . S
C789 C795 1.390 . S
C790 H781 0.930 . S
C790 C788 1.384 . S
C790 C791 1.372 . S
C791 C790 1.372 . S
C791 C792 1.400 . S
C791 C796 1.490 . S
C792 H782 0.930 . S
C792 C791 1.400 . S
C792 C795 1.386 . S
H793 C809 0.930 . S
H794 C810 0.931 . S
C795 H783 0.929 . S
C795 C789 1.390 . S
C795 C792 1.386 . S
C796 C791 1.490 . S
C796 C798 1.395 . S
C796 C799 1.403 . S
H797 C803 0.930 . S
C798 H784 0.930 . S
C798 C796 1.395 . S
C798 C801 1.403 . S
C799 C796 1.403 . S
C799 C800 1.524 . S
C799 C803 1.400 . S
C800 H785 0.960 . S
C800 H786 0.960 . S
C800 H787 0.960 . S
C800 C799 1.524 . S
C801 C798 1.403 . S
C801 C802 1.392 . S
C801 C805 1.495 . S
C802 C801 1.392 . S
C802 C803 1.385 . S
C802 C804 1.478 . S
C803 H797 0.930 . S
C803 C799 1.400 . S
C803 C802 1.385 . S
C804 C802 1.478 . S
C804 C806 1.381 . S
C804 C810 1.383 . S
C805 C801 1.495 . S
C805 H811 0.959 . S
C805 H812 0.961 . S
C805 H813 0.960 . S
C806 C804 1.381 . S
C806 C807 1.394 . S
C806 H814 0.930 . S
C807 C806 1.394 . S
C807 C808 1.383 . S
C807 H815 0.929 . S
C808 C807 1.383 . S
C808 C809 1.377 . S
C809 H793 0.930 . S
C809 C808 1.377 . S
C809 C810 1.379 . S
C810 H794 0.931 . S
C810 C804 1.383 . S
C810 C809 1.379 . S
H811 C805 0.959 . S
H812 C805 0.961 . S
H813 C805 0.960 . S
H814 C806 0.930 . S
H815 C807 0.929 . S
H816 C824 0.929 . S
H817 C826 0.930 . S
H818 C828 0.932 . S
H819 C831 0.929 . S
H820 C834 0.930 . S
H821 C836 0.960 . S
H822 C836 0.960 1_545 S
H823 C836 0.960 1_545 S
C824 H816 0.929 . S
C824 C825 1.377 . S
C824 C826 1.384 1_545 S
C825 C824 1.377 . S
C825 C831 1.390 . S
C826 H817 0.930 . S
C826 C824 1.384 1_565 S
C826 C827 1.372 . S
C827 C826 1.372 . S
C827 C828 1.400 1_565 S
C827 C832 1.490 . S
C828 H818 0.932 . S
C828 C827 1.400 1_545 S
C828 C831 1.386 . S
H829 C845 0.930 . S
H830 C846 0.931 . S
C831 H819 0.929 . S
C831 C825 1.390 . S
C831 C828 1.386 . S
C832 C827 1.490 . S
C832 C834 1.395 . S
C832 C835 1.403 . S
H833 C839 0.930 . S
C834 H820 0.930 . S
C834 C832 1.395 . S
C834 C837 1.403 . S
C835 C832 1.403 . S
C835 C836 1.524 . S
C835 C839 1.400 . S
C836 H821 0.960 . S
C836 H822 0.960 1_565 S
C836 H823 0.960 1_565 S
C836 C835 1.524 . S
C837 C834 1.403 . S
C837 C838 1.392 . S
C837 C841 1.495 . S
C838 C837 1.392 . S
C838 C839 1.385 . S
C838 C840 1.478 . S
C839 H833 0.930 . S
C839 C835 1.400 . S
C839 C838 1.385 . S
C840 C838 1.478 . S
C840 C842 1.381 . S
C840 C846 1.383 . S
C841 C837 1.495 . S
C841 H847 0.959 . S
C841 H848 0.961 . S
C841 H849 0.960 . S
C842 C840 1.381 . S
C842 C843 1.394 . S
C842 H850 0.930 . S
C843 C842 1.394 . S
C843 C844 1.383 . S
C843 H851 0.929 . S
C844 C843 1.383 . S
C844 C845 1.377 . S
C845 H829 0.930 . S
C845 C844 1.377 . S
C845 C846 1.379 . S
C846 H830 0.931 . S
C846 C840 1.383 . S
C846 C845 1.379 . S
H847 C841 0.959 . S
H848 C841 0.961 . S
H849 C841 0.960 . S
H850 C842 0.930 . S
H851 C843 0.929 . S
H852 C860 0.929 . S
H853 C862 0.930 . S
H854 C864 0.930 . S
H855 C867 0.929 . S
H856 C870 0.930 . S
H857 C872 0.960 . S
H858 C872 0.960 . S
H859 C872 0.960 . S
C860 H852 0.929 . S
C860 C861 1.377 . S
C860 C862 1.384 . S
C861 C860 1.377 . S
C861 C867 1.390 . S
C862 H853 0.930 . S
C862 C860 1.384 . S
C862 C863 1.372 . S
C863 C862 1.372 . S
C863 C864 1.400 . S
C863 C868 1.490 . S
C864 H854 0.930 . S
C864 C863 1.400 . S
C864 C867 1.386 . S
H865 C881 0.930 . S
H866 C882 0.931 . S
C867 H855 0.929 . S
C867 C861 1.390 . S
C867 C864 1.386 . S
C868 C863 1.490 . S
C868 C870 1.395 . S
C868 C871 1.403 . S
H869 C875 0.930 . S
C870 H856 0.930 . S
C870 C868 1.395 . S
C870 C873 1.403 . S
C871 C868 1.403 . S
C871 C872 1.524 . S
C871 C875 1.400 . S
C872 H857 0.960 . S
C872 H858 0.960 . S
C872 H859 0.960 . S
C872 C871 1.524 . S
C873 C870 1.403 . S
C873 C874 1.392 . S
C873 C877 1.495 . S
C874 C873 1.392 . S
C874 C875 1.385 . S
C874 C876 1.478 . S
C875 H869 0.930 . S
C875 C871 1.400 . S
C875 C874 1.385 . S
C876 C874 1.478 . S
C876 C878 1.381 1_655 S
C876 C882 1.383 . S
C877 C873 1.495 . S
C877 H883 0.959 . S
C877 H884 0.961 . S
C877 H885 0.960 . S
C878 C876 1.381 1_455 S
C878 C879 1.394 . S
C878 H886 0.930 . S
C879 C878 1.394 . S
C879 C880 1.383 . S
C879 H887 0.929 . S
C880 C879 1.383 . S
C880 C881 1.377 1_455 S
C881 H865 0.930 . S
C881 C880 1.377 1_655 S
C881 C882 1.379 . S
C882 H866 0.931 . S
C882 C876 1.383 . S
C882 C881 1.379 . S
H883 C877 0.959 . S
H884 C877 0.961 . S
H885 C877 0.960 . S
H886 C878 0.930 . S
H887 C879 0.929 . S
H888 C896 0.929 . S
H889 C898 0.930 . S
H890 C900 0.929 1_545 S
H891 C903 0.929 . S
H892 C906 0.930 . S
H893 C908 0.960 . S
H894 C908 0.960 . S
H895 C908 0.960 . S
C896 H888 0.929 . S
C896 C897 1.377 . S
C896 C898 1.384 1_565 S
C897 C896 1.377 . S
C897 C903 1.390 . S
C898 H889 0.930 . S
C898 C896 1.384 1_545 S
C898 C899 1.372 . S
C899 C898 1.372 . S
C899 C900 1.395 1_545 S
C899 C904 1.490 . S
C900 H890 0.929 1_565 S
C900 C899 1.395 1_565 S
C900 C903 1.391 . S
H901 C917 0.930 . S
H902 C918 0.931 . S
C903 H891 0.929 . S
C903 C897 1.390 . S
C903 C900 1.391 . S
C904 C899 1.490 . S
C904 C906 1.395 . S
C904 C907 1.403 . S
H905 C911 0.930 . S
C906 H892 0.930 . S
C906 C904 1.395 . S
C906 C909 1.403 . S
C907 C904 1.403 . S
C907 C908 1.524 . S
C907 C911 1.400 . S
C908 H893 0.960 . S
C908 H894 0.960 . S
C908 H895 0.960 . S
C908 C907 1.524 . S
C909 C906 1.403 . S
C909 C910 1.392 . S
C909 C913 1.495 . S
C910 C909 1.392 . S
C910 C911 1.385 . S
C910 C912 1.478 . S
C911 H905 0.930 . S
C911 C907 1.400 . S
C911 C910 1.385 . S
C912 C910 1.478 . S
C912 C914 1.381 . S
C912 C918 1.383 1_655 S
C913 C909 1.495 . S
C913 H919 0.959 . S
C913 H920 0.961 . S
C913 H921 0.960 . S
C914 C912 1.381 . S
C914 C915 1.394 . S
C914 H922 0.930 . S
C915 C914 1.394 . S
C915 C916 1.383 1_655 S
C915 H923 0.929 . S
C916 C915 1.383 1_455 S
C916 C917 1.377 . S
C917 H901 0.930 . S
C917 C916 1.377 . S
C917 C918 1.379 . S
C918 H902 0.931 . S
C918 C912 1.383 1_455 S
C918 C917 1.379 . S
H919 C913 0.959 . S
H920 C913 0.961 . S
H921 C913 0.960 . S
H922 C914 0.930 . S
H923 C915 0.929 . S
H924 C932 0.929 . S
H925 C934 0.930 . S
H926 C936 0.930 . S
H927 C939 0.929 . S
H928 C942 0.930 . S
H929 C944 0.960 . S
H930 C944 0.960 . S
H931 C944 0.960 . S
C932 H924 0.929 . S
C932 C933 1.377 . S
C932 C934 1.384 . S
C933 C932 1.377 . S
C933 C939 1.390 . S
C934 H925 0.930 . S
C934 C932 1.384 . S
C934 C935 1.372 . S
C935 C934 1.372 . S
C935 C936 1.400 . S
C935 C940 1.490 . S
C936 H926 0.930 . S
C936 C935 1.400 . S
C936 C939 1.386 . S
H937 C953 0.930 . S
H938 C954 0.931 . S
C939 H927 0.929 . S
C939 C933 1.390 . S
C939 C936 1.386 . S
C940 C935 1.490 . S
C940 C942 1.395 . S
C940 C943 1.403 . S
H941 C947 0.930 . S
C942 H928 0.930 . S
C942 C940 1.395 . S
C942 C945 1.403 . S
C943 C940 1.403 . S
C943 C944 1.524 . S
C943 C947 1.400 . S
C944 H929 0.960 . S
C944 H930 0.960 . S
C944 H931 0.960 . S
C944 C943 1.524 . S
C945 C942 1.403 . S
C945 C946 1.392 . S
C945 C949 1.495 . S
C946 C945 1.392 . S
C946 C947 1.385 . S
C946 C948 1.478 . S
C947 H941 0.930 . S
C947 C943 1.400 . S
C947 C946 1.385 . S
C948 C946 1.478 . S
C948 C950 1.381 . S
C948 C954 1.383 . S
C949 C945 1.495 . S
C949 H955 0.959 . S
C949 H956 0.961 . S
C949 H957 0.960 . S
C950 C948 1.381 . S
C950 C951 1.394 . S
C950 H958 0.930 . S
C951 C950 1.394 . S
C951 C952 1.383 . S
C951 H959 0.929 . S
C952 C951 1.383 . S
C952 C953 1.377 . S
C953 H937 0.930 . S
C953 C952 1.377 . S
C953 C954 1.379 . S
C954 H938 0.931 . S
C954 C948 1.383 . S
C954 C953 1.379 . S
H955 C949 0.959 . S
H956 C949 0.961 . S
H957 C949 0.960 . S
H958 C950 0.930 . S
H959 C951 0.929 . S
H960 C968 0.929 . S
H961 C970 0.930 . S
H962 C972 0.930 . S
H963 C975 0.929 . S
H964 C978 0.930 . S
H965 C980 0.960 . S
H966 C980 0.960 . S
H967 C980 0.960 . S
C968 H960 0.929 . S
C968 C969 1.377 1_565 S
C968 C970 1.384 . S
C969 C968 1.377 1_545 S
C969 C975 1.390 . S
C970 H961 0.930 . S
C970 C968 1.384 . S
C970 C971 1.372 . S
C971 C970 1.372 . S
C971 C972 1.400 1_565 S
C971 C976 1.490 . S
C972 H962 0.930 . S
C972 C971 1.400 1_545 S
C972 C975 1.386 . S
H973 C989 0.930 . S
H974 C990 0.931 . S
C975 H963 0.929 . S
C975 C969 1.390 . S
C975 C972 1.386 . S
C976 C971 1.490 . S
C976 C978 1.395 . S
C976 C979 1.403 . S
H977 C983 0.930 1_455 S
C978 H964 0.930 . S
C978 C976 1.395 . S
C978 C981 1.403 . S
C979 C976 1.403 . S
C979 C980 1.524 1_655 S
C979 C983 1.400 . S
C980 H965 0.960 . S
C980 H966 0.960 . S
C980 H967 0.960 . S
C980 C979 1.524 1_455 S
C981 C978 1.403 . S
C981 C982 1.392 . S
C981 C985 1.495 . S
C982 C981 1.392 . S
C982 C983 1.385 . S
C982 C984 1.478 . S
C983 H977 0.930 1_655 S
C983 C979 1.400 . S
C983 C982 1.385 . S
C984 C982 1.478 . S
C984 C986 1.381 . S
C984 C990 1.383 1_655 S
C985 C981 1.495 . S
C985 H991 0.959 . S
C985 H992 0.961 . S
C985 H993 0.960 . S
C986 C984 1.381 . S
C986 C987 1.394 . S
C986 H994 0.930 . S
C987 C986 1.394 . S
C987 C988 1.383 1_655 S
C987 H995 0.929 . S
C988 C987 1.383 1_455 S
C988 C989 1.377 . S
C989 H973 0.930 . S
C989 C988 1.377 . S
C989 C990 1.379 . S
C990 H974 0.931 . S
C990 C984 1.383 1_455 S
C990 C989 1.379 . S
H991 C985 0.959 . S
H992 C985 0.961 . S
H993 C985 0.960 . S
H994 C986 0.930 . S
H995 C987 0.929 . S
H996 C1004 0.929 . S
H997 C1006 0.930 . S
H998 C1008 0.930 . S
H999 C1011 0.929 . S
H1000 C1014 0.930 . S
H1001 C1016 0.960 . S
H1002 C1016 0.960 . S
H1003 C1016 0.960 . S
C1004 H996 0.929 . S
C1004 C1005 1.377 . S
C1004 C1006 1.384 . S
C1005 C1004 1.377 . S
C1005 C1011 1.390 . S
C1006 H997 0.930 . S
C1006 C1004 1.384 . S
C1006 C1007 1.372 . S
C1007 C1006 1.372 . S
C1007 C1008 1.400 . S
C1007 C1012 1.490 . S
C1008 H998 0.930 . S
C1008 C1007 1.400 . S
C1008 C1011 1.386 . S
H1009 C1025 0.930 . S
H1010 C1026 0.931 . S
C1011 H999 0.929 . S
C1011 C1005 1.390 . S
C1011 C1008 1.386 . S
C1012 C1007 1.490 . S
C1012 C1014 1.395 . S
C1012 C1015 1.403 . S
H1013 C1019 0.930 . S
C1014 H1000 0.930 . S
C1014 C1012 1.395 . S
C1014 C1017 1.403 . S
C1015 C1012 1.403 . S
C1015 C1016 1.524 . S
C1015 C1019 1.400 . S
C1016 H1001 0.960 . S
C1016 H1002 0.960 . S
C1016 H1003 0.960 . S
C1016 C1015 1.524 . S
C1017 C1014 1.403 . S
C1017 C1018 1.392 . S
C1017 C1021 1.495 . S
C1018 C1017 1.392 . S
C1018 C1019 1.385 . S
C1018 C1020 1.478 . S
C1019 H1013 0.930 . S
C1019 C1015 1.400 . S
C1019 C1018 1.385 . S
C1020 C1018 1.478 . S
C1020 C1022 1.381 . S
C1020 C1026 1.383 . S
C1021 C1017 1.495 . S
C1021 H1027 0.959 . S
C1021 H1028 0.961 1_655 S
C1021 H1029 0.960 1_655 S
C1022 C1020 1.381 . S
C1022 C1023 1.394 1_655 S
C1022 H1030 0.930 . S
C1023 C1022 1.394 1_455 S
C1023 C1024 1.383 . S
C1023 H1031 0.929 . S
C1024 C1023 1.383 . S
C1024 C1025 1.377 1_455 S
C1025 H1009 0.930 . S
C1025 C1024 1.377 1_655 S
C1025 C1026 1.379 . S
C1026 H1010 0.931 . S
C1026 C1020 1.383 . S
C1026 C1025 1.379 . S
H1027 C1021 0.959 . S
H1028 C1021 0.961 1_455 S
H1029 C1021 0.960 1_455 S
H1030 C1022 0.930 . S
H1031 C1023 0.929 . S
H1032 C1040 0.929 . S
H1033 C1042 0.930 . S
H1034 C1044 0.930 . S
H1035 C1047 0.929 . S
H1036 C1050 0.930 . S
H1037 C1052 0.960 . S
H1038 C1052 0.960 . S
H1039 C1052 0.960 . S
C1040 H1032 0.929 . S
C1040 C1041 1.377 . S
C1040 C1042 1.384 . S
C1041 C1040 1.377 . S
C1041 C1047 1.390 1_565 S
C1042 H1033 0.930 . S
C1042 C1040 1.384 . S
C1042 C1043 1.372 1_565 S
C1043 C1042 1.372 1_545 S
C1043 C1044 1.400 . S
C1043 C1048 1.490 . S
C1044 H1034 0.930 . S
C1044 C1043 1.400 . S
C1044 C1047 1.386 . S
H1045 C1061 0.930 . S
H1046 C1062 0.931 . S
C1047 H1035 0.929 . S
C1047 C1041 1.390 1_545 S
C1047 C1044 1.386 . S
C1048 C1043 1.490 . S
C1048 C1050 1.395 . S
C1048 C1051 1.403 . S
H1049 C1055 0.930 . S
C1050 H1036 0.930 . S
C1050 C1048 1.395 . S
C1050 C1053 1.403 . S
C1051 C1048 1.403 . S
C1051 C1052 1.524 . S
C1051 C1055 1.400 . S
C1052 H1037 0.960 . S
C1052 H1038 0.960 . S
C1052 H1039 0.960 . S
C1052 C1051 1.524 . S
C1053 C1050 1.403 . S
C1053 C1054 1.392 . S
C1053 C1057 1.495 . S
C1054 C1053 1.392 . S
C1054 C1055 1.385 . S
C1054 C1056 1.478 . S
C1055 H1049 0.930 . S
C1055 C1051 1.400 . S
C1055 C1054 1.385 . S
C1056 C1054 1.478 . S
C1056 C1058 1.381 . S
C1056 C1062 1.383 . S
C1057 C1053 1.495 . S
C1057 H1063 0.959 . S
C1057 H1064 0.961 . S
C1057 H1065 0.960 . S
C1058 C1056 1.381 . S
C1058 C1059 1.394 . S
C1058 H1066 0.930 . S
C1059 C1058 1.394 . S
C1059 C1060 1.383 . S
C1059 H1067 0.929 . S
C1060 C1059 1.383 . S
C1060 C1061 1.377 . S
C1061 H1045 0.930 . S
C1061 C1060 1.377 . S
C1061 C1062 1.379 . S
C1062 H1046 0.931 . S
C1062 C1056 1.383 . S
C1062 C1061 1.379 . S
H1063 C1057 0.959 . S
H1064 C1057 0.961 . S
H1065 C1057 0.960 . S
H1066 C1058 0.930 . S
H1067 C1059 0.929 . S
H1068 C1076 0.929 . S
H1069 C1078 0.930 . S
H1070 C1080 0.930 . S
H1071 C1083 0.929 . S
H1072 C1086 0.930 . S
H1073 C1088 0.960 . S
H1074 C1088 0.960 . S
H1075 C1088 0.960 . S
C1076 H1068 0.929 . S
C1076 C1077 1.377 . S
C1076 C1078 1.384 . S
C1077 C1076 1.377 . S
C1077 C1083 1.390 . S
C1078 H1069 0.930 . S
C1078 C1076 1.384 . S
C1078 C1079 1.372 . S
C1079 C1078 1.372 . S
C1079 C1080 1.400 . S
C1079 C1084 1.490 . S
C1080 H1070 0.930 . S
C1080 C1079 1.400 . S
C1080 C1083 1.386 . S
H1081 C1097 0.930 . S
H1082 C1098 0.931 . S
C1083 H1071 0.929 . S
C1083 C1077 1.390 . S
C1083 C1080 1.386 . S
C1084 C1079 1.490 . S
C1084 C1086 1.395 . S
C1084 C1087 1.403 . S
H1085 C1091 0.930 . S
C1086 H1072 0.930 . S
C1086 C1084 1.395 . S
C1086 C1089 1.403 . S
C1087 C1084 1.403 . S
C1087 C1088 1.524 . S
C1087 C1091 1.400 . S
C1088 H1073 0.960 . S
C1088 H1074 0.960 . S
C1088 H1075 0.960 . S
C1088 C1087 1.524 . S
C1089 C1086 1.403 . S
C1089 C1090 1.392 . S
C1089 C1093 1.495 . S
C1090 C1089 1.392 . S
C1090 C1091 1.385 . S
C1090 C1092 1.478 . S
C1091 H1085 0.930 . S
C1091 C1087 1.400 . S
C1091 C1090 1.385 . S
C1092 C1090 1.478 . S
C1092 C1094 1.381 . S
C1092 C1098 1.383 . S
C1093 C1089 1.495 . S
C1093 H1099 0.959 . S
C1093 H1100 0.961 . S
C1093 H1101 0.960 . S
C1094 C1092 1.381 . S
C1094 C1095 1.394 . S
C1094 H1102 0.930 . S
C1095 C1094 1.394 . S
C1095 C1096 1.383 . S
C1095 H1103 0.929 . S
C1096 C1095 1.383 . S
C1096 C1097 1.377 . S
C1097 H1081 0.930 . S
C1097 C1096 1.377 . S
C1097 C1098 1.379 . S
C1098 H1082 0.931 . S
C1098 C1092 1.383 . S
C1098 C1097 1.379 . S
H1099 C1093 0.959 . S
H1100 C1093 0.961 . S
H1101 C1093 0.960 . S
H1102 C1094 0.930 . S
H1103 C1095 0.929 . S
H1104 C1112 0.929 . S
H1105 C1114 0.930 . S
H1106 C1116 0.930 . S
H1107 C1119 0.929 . S
H1108 C1122 0.930 . S
H1109 C1124 0.960 . S
H1110 C1124 0.960 . S
H1111 C1124 0.960 . S
C1112 H1104 0.929 . S
C1112 C1113 1.377 . S
C1112 C1114 1.384 . S
C1113 C1112 1.377 . S
C1113 C1119 1.390 . S
C1114 H1105 0.930 . S
C1114 C1112 1.384 . S
C1114 C1115 1.372 . S
C1115 C1114 1.372 . S
C1115 C1116 1.400 . S
C1115 C1120 1.490 . S
C1116 H1106 0.930 . S
C1116 C1115 1.400 . S
C1116 C1119 1.386 . S
H1117 C1133 0.930 . S
H1118 C1134 0.931 . S
C1119 H1107 0.929 . S
C1119 C1113 1.390 . S
C1119 C1116 1.386 . S
C1120 C1115 1.490 . S
C1120 C1122 1.395 . S
C1120 C1123 1.403 . S
H1121 C1127 0.930 . S
C1122 H1108 0.930 . S
C1122 C1120 1.395 . S
C1122 C1125 1.403 . S
C1123 C1120 1.403 . S
C1123 C1124 1.524 . S
C1123 C1127 1.400 . S
C1124 H1109 0.960 . S
C1124 H1110 0.960 . S
C1124 H1111 0.960 . S
C1124 C1123 1.524 . S
C1125 C1122 1.403 . S
C1125 C1126 1.392 . S
C1125 C1129 1.495 . S
C1126 C1125 1.392 . S
C1126 C1127 1.385 . S
C1126 C1128 1.478 . S
C1127 H1121 0.930 . S
C1127 C1123 1.400 . S
C1127 C1126 1.385 . S
C1128 C1126 1.478 . S
C1128 C1130 1.381 . S
C1128 C1134 1.383 . S
C1129 C1125 1.495 . S
C1129 H1135 0.959 . S
C1129 H1136 0.961 . S
C1129 H1137 0.960 . S
C1130 C1128 1.381 . S
C1130 C1131 1.394 . S
C1130 H1138 0.930 . S
C1131 C1130 1.394 . S
C1131 C1132 1.383 . S
C1131 H1139 0.929 1_655 S
C1132 C1131 1.383 . S
C1132 C1133 1.377 . S
C1133 H1117 0.930 . S
C1133 C1132 1.377 . S
C1133 C1134 1.379 . S
C1134 H1118 0.931 . S
C1134 C1128 1.383 . S
C1134 C1133 1.379 . S
H1135 C1129 0.959 . S
H1136 C1129 0.961 . S
H1137 C1129 0.960 . S
H1138 C1130 0.930 . S
H1139 C1131 0.929 1_455 S
H1140 C1148 0.929 . S
H1141 C1150 0.930 . S
H1142 C1152 0.930 . S
H1143 C1155 0.929 . S
H1144 C1158 0.930 . S
H1145 C1160 0.960 . S
H1146 C1160 0.960 . S
H1147 C1160 0.960 . S
C1148 H1140 0.929 . S
C1148 C1149 1.377 . S
C1148 C1150 1.384 . S
C1149 C1148 1.377 . S
C1149 C1155 1.390 . S
C1150 H1141 0.930 . S
C1150 C1148 1.384 . S
C1150 C1151 1.372 . S
C1151 C1150 1.372 . S
C1151 C1152 1.400 . S
C1151 C1156 1.490 . S
C1152 H1142 0.930 . S
C1152 C1151 1.400 . S
C1152 C1155 1.386 . S
H1153 C1169 0.930 . S
H1154 C1170 0.931 . S
C1155 H1143 0.929 . S
C1155 C1149 1.390 . S
C1155 C1152 1.386 . S
C1156 C1151 1.490 . S
C1156 C1158 1.395 . S
C1156 C1159 1.403 . S
H1157 C1163 0.930 . S
C1158 H1144 0.930 . S
C1158 C1156 1.395 . S
C1158 C1161 1.403 . S
C1159 C1156 1.403 . S
C1159 C1160 1.524 . S
C1159 C1163 1.400 . S
C1160 H1145 0.960 . S
C1160 H1146 0.960 . S
C1160 H1147 0.960 . S
C1160 C1159 1.524 . S
C1161 C1158 1.403 . S
C1161 C1162 1.392 . S
C1161 C1165 1.495 . S
C1162 C1161 1.392 . S
C1162 C1163 1.385 . S
C1162 C1164 1.478 . S
C1163 H1157 0.930 . S
C1163 C1159 1.400 . S
C1163 C1162 1.385 . S
C1164 C1162 1.478 . S
C1164 C1166 1.381 . S
C1164 C1170 1.383 . S
C1165 C1161 1.495 . S
C1165 H1171 0.959 . S
C1165 H1172 0.961 . S
C1165 H1173 0.960 . S
C1166 C1164 1.381 . S
C1166 C1167 1.394 . S
C1166 H1174 0.930 . S
C1167 C1166 1.394 . S
C1167 C1168 1.383 . S
C1167 H1175 0.929 . S
C1168 C1167 1.383 . S
C1168 C1169 1.377 . S
C1169 H1153 0.930 . S
C1169 C1168 1.377 . S
C1169 C1170 1.379 . S
C1170 H1154 0.931 . S
C1170 C1164 1.383 . S
C1170 C1169 1.379 . S
H1171 C1165 0.959 . S
H1172 C1165 0.961 . S
H1173 C1165 0.960 . S
H1174 C1166 0.930 . S
H1175 C1167 0.929 . S
H1176 C1184 0.929 . S
H1177 C1186 0.930 . S
H1178 C1188 0.930 . S
H1179 C1191 0.929 . S
H1180 C1194 0.930 . S
H1181 C1196 0.960 . S
H1182 C1196 0.960 . S
H1183 C1196 0.960 . S
C1184 H1176 0.929 . S
C1184 C1185 1.377 . S
C1184 C1186 1.384 . S
C1185 C1184 1.377 . S
C1185 C1191 1.390 . S
C1186 H1177 0.930 . S
C1186 C1184 1.384 . S
C1186 C1187 1.372 . S
C1187 C1186 1.372 . S
C1187 C1188 1.400 . S
C1187 C1192 1.490 . S
C1188 H1178 0.930 . S
C1188 C1187 1.400 . S
C1188 C1191 1.386 . S
H1189 C1205 0.930 . S
H1190 C1206 0.931 . S
C1191 H1179 0.929 . S
C1191 C1185 1.390 . S
C1191 C1188 1.386 . S
C1192 C1187 1.490 . S
C1192 C1194 1.395 . S
C1192 C1195 1.403 . S
H1193 C1199 0.930 . S
C1194 H1180 0.930 . S
C1194 C1192 1.395 . S
C1194 C1197 1.403 . S
C1195 C1192 1.403 . S
C1195 C1196 1.524 . S
C1195 C1199 1.400 . S
C1196 H1181 0.960 . S
C1196 H1182 0.960 . S
C1196 H1183 0.960 . S
C1196 C1195 1.524 . S
C1197 C1194 1.403 . S
C1197 C1198 1.392 . S
C1197 C1201 1.495 . S
C1198 C1197 1.392 . S
C1198 C1199 1.385 . S
C1198 C1200 1.478 . S
C1199 H1193 0.930 . S
C1199 C1195 1.400 . S
C1199 C1198 1.385 . S
C1200 C1198 1.478 . S
C1200 C1202 1.381 . S
C1200 C1206 1.383 . S
C1201 C1197 1.495 . S
C1201 H1207 0.959 . S
C1201 H1208 0.961 . S
C1201 H1209 0.960 . S
C1202 C1200 1.381 . S
C1202 C1203 1.394 . S
C1202 H1210 0.930 . S
C1203 C1202 1.394 . S
C1203 C1204 1.383 . S
C1203 H1211 0.929 . S
C1204 C1203 1.383 . S
C1204 C1205 1.377 . S
C1205 H1189 0.930 . S
C1205 C1204 1.377 . S
C1205 C1206 1.379 . S
C1206 H1190 0.931 . S
C1206 C1200 1.383 . S
C1206 C1205 1.379 . S
H1207 C1201 0.959 . S
H1208 C1201 0.961 . S
H1209 C1201 0.960 . S
H1210 C1202 0.930 . S
H1211 C1203 0.929 . S
H1212 C1220 0.929 . S
H1213 C1222 0.930 . S
H1214 C1224 0.930 . S
H1215 C1227 0.929 . S
H1216 C1230 0.930 . S
H1217 C1232 0.960 . S
H1218 C1232 0.960 . S
H1219 C1232 0.960 . S
C1220 H1212 0.929 . S
C1220 C1221 1.377 . S
C1220 C1222 1.384 . S
C1221 C1220 1.377 . S
C1221 C1227 1.390 . S
C1222 H1213 0.930 . S
C1222 C1220 1.384 . S
C1222 C1223 1.372 . S
C1223 C1222 1.372 . S
C1223 C1224 1.400 . S
C1223 C1228 1.490 . S
C1224 H1214 0.930 . S
C1224 C1223 1.400 . S
C1224 C1227 1.386 . S
H1225 C1241 0.930 . S
H1226 C1242 0.931 . S
C1227 H1215 0.929 . S
C1227 C1221 1.390 . S
C1227 C1224 1.386 . S
C1228 C1223 1.490 . S
C1228 C1230 1.395 . S
C1228 C1231 1.403 . S
H1229 C1235 0.930 . S
C1230 H1216 0.930 . S
C1230 C1228 1.395 . S
C1230 C1233 1.403 . S
C1231 C1228 1.403 . S
C1231 C1232 1.524 . S
C1231 C1235 1.400 . S
C1232 H1217 0.960 . S
C1232 H1218 0.960 . S
C1232 H1219 0.960 . S
C1232 C1231 1.524 . S
C1233 C1230 1.403 . S
C1233 C1234 1.392 . S
C1233 C1237 1.495 . S
C1234 C1233 1.392 . S
C1234 C1235 1.385 . S
C1234 C1236 1.478 . S
C1235 H1229 0.930 . S
C1235 C1231 1.400 . S
C1235 C1234 1.385 . S
C1236 C1234 1.478 . S
C1236 C1238 1.381 . S
C1236 C1242 1.383 . S
C1237 C1233 1.495 . S
C1237 H1243 0.959 . S
C1237 H1244 0.961 . S
C1237 H1245 0.960 . S
C1238 C1236 1.381 . S
C1238 C1239 1.394 . S
C1238 H1246 0.930 . S
C1239 C1238 1.394 . S
C1239 C1240 1.383 . S
C1239 H1247 0.929 . S
C1240 C1239 1.383 . S
C1240 C1241 1.377 . S
C1241 H1225 0.930 . S
C1241 C1240 1.377 . S
C1241 C1242 1.379 . S
C1242 H1226 0.931 . S
C1242 C1236 1.383 . S
C1242 C1241 1.379 . S
H1243 C1237 0.959 . S
H1244 C1237 0.961 . S
H1245 C1237 0.960 . S
H1246 C1238 0.930 . S
H1247 C1239 0.929 . S
H1248 C1256 0.929 . S
H1249 C1258 0.930 . S
H1250 C1260 0.930 . S
H1251 C1263 0.929 . S
H1252 C1266 0.930 . S
H1253 C1268 0.960 . S
H1254 C1268 0.960 . S
H1255 C1268 0.960 . S
C1256 H1248 0.929 . S
C1256 C1257 1.377 . S
C1256 C1258 1.384 . S
C1257 C1256 1.377 . S
C1257 C1263 1.390 . S
C1258 H1249 0.930 . S
C1258 C1256 1.384 . S
C1258 C1259 1.372 . S
C1259 C1258 1.372 . S
C1259 C1260 1.400 . S
C1259 C1264 1.490 . S
C1260 H1250 0.930 . S
C1260 C1259 1.400 . S
C1260 C1263 1.386 . S
H1261 C1277 0.930 . S
H1262 C1278 0.931 . S
C1263 H1251 0.929 . S
C1263 C1257 1.390 . S
C1263 C1260 1.386 . S
C1264 C1259 1.490 . S
C1264 C1266 1.395 . S
C1264 C1267 1.403 . S
H1265 C1271 0.930 . S
C1266 H1252 0.930 . S
C1266 C1264 1.395 . S
C1266 C1269 1.403 . S
C1267 C1264 1.403 . S
C1267 C1268 1.524 . S
C1267 C1271 1.400 . S
C1268 H1253 0.960 . S
C1268 H1254 0.960 . S
C1268 H1255 0.960 . S
C1268 C1267 1.524 . S
C1269 C1266 1.403 . S
C1269 C1270 1.392 . S
C1269 C1273 1.495 . S
C1270 C1269 1.392 . S
C1270 C1271 1.385 . S
C1270 C1272 1.478 . S
C1271 H1265 0.930 . S
C1271 C1267 1.400 . S
C1271 C1270 1.385 . S
C1272 C1270 1.478 . S
C1272 C1274 1.381 . S
C1272 C1278 1.383 . S
C1273 C1269 1.495 . S
C1273 H1279 0.959 . S
C1273 H1280 0.961 . S
C1273 H1281 0.960 . S
C1274 C1272 1.381 . S
C1274 C1275 1.394 . S
C1274 H1282 0.930 . S
C1275 C1274 1.394 . S
C1275 C1276 1.383 . S
C1275 H1283 0.929 . S
C1276 C1275 1.383 . S
C1276 C1277 1.377 . S
C1277 H1261 0.930 . S
C1277 C1276 1.377 . S
C1277 C1278 1.379 . S
C1278 H1262 0.931 . S
C1278 C1272 1.383 . S
C1278 C1277 1.379 . S
H1279 C1273 0.959 . S
H1280 C1273 0.961 . S
H1281 C1273 0.960 . S
H1282 C1274 0.930 . S
H1283 C1275 0.929 . S
H1284 C1292 0.929 . S
H1285 C1294 0.930 . S
H1286 C1296 0.930 . S
H1287 C1299 0.929 . S
H1288 C1302 0.930 . S
H1289 C1304 0.960 . S
H1290 C1304 0.960 . S
H1291 C1304 0.960 . S
C1292 H1284 0.929 . S
C1292 C1293 1.377 . S
C1292 C1294 1.384 . S
C1293 C1292 1.377 . S
C1293 C1299 1.390 . S
C1294 H1285 0.930 . S
C1294 C1292 1.384 . S
C1294 C1295 1.372 . S
C1295 C1294 1.372 . S
C1295 C1296 1.400 . S
C1295 C1300 1.490 . S
C1296 H1286 0.930 . S
C1296 C1295 1.400 . S
C1296 C1299 1.386 . S
H1297 C1313 0.930 . S
H1298 C1314 0.931 . S
C1299 H1287 0.929 . S
C1299 C1293 1.390 . S
C1299 C1296 1.386 . S
C1300 C1295 1.490 . S
C1300 C1302 1.395 . S
C1300 C1303 1.403 . S
H1301 C1307 0.930 . S
C1302 H1288 0.930 . S
C1302 C1300 1.395 . S
C1302 C1305 1.403 . S
C1303 C1300 1.403 . S
C1303 C1304 1.524 . S
C1303 C1307 1.400 . S
C1304 H1289 0.960 . S
C1304 H1290 0.960 . S
C1304 H1291 0.960 . S
C1304 C1303 1.524 . S
C1305 C1302 1.403 . S
C1305 C1306 1.392 . S
C1305 C1309 1.495 . S
C1306 C1305 1.392 . S
C1306 C1307 1.385 . S
C1306 C1308 1.478 . S
C1307 H1301 0.930 . S
C1307 C1303 1.400 . S
C1307 C1306 1.385 . S
C1308 C1306 1.478 . S
C1308 C1310 1.381 . S
C1308 C1314 1.383 . S
C1309 C1305 1.495 . S
C1309 H1315 0.959 . S
C1309 H1316 0.961 . S
C1309 H1317 0.960 . S
C1310 C1308 1.381 . S
C1310 C1311 1.394 . S
C1310 H1318 0.930 . S
C1311 C1310 1.394 . S
C1311 C1312 1.383 . S
C1311 H1319 0.929 . S
C1312 C1311 1.383 . S
C1312 C1313 1.377 . S
C1313 H1297 0.930 . S
C1313 C1312 1.377 . S
C1313 C1314 1.379 . S
C1314 H1298 0.931 . S
C1314 C1308 1.383 . S
C1314 C1313 1.379 . S
H1315 C1309 0.959 . S
H1316 C1309 0.961 . S
H1317 C1309 0.960 . S
H1318 C1310 0.930 . S
H1319 C1311 0.929 . S
H1320 C1328 0.929 . S
H1321 C1330 0.930 . S
H1322 C1332 0.930 . S
H1323 C1335 0.929 . S
H1324 C1338 0.930 . S
H1325 C1340 0.960 . S
H1326 C1340 0.960 . S
H1327 C1340 0.960 . S
C1328 H1320 0.929 . S
C1328 C1329 1.377 . S
C1328 C1330 1.384 . S
C1329 C1328 1.377 . S
C1329 C1335 1.390 . S
C1330 H1321 0.930 . S
C1330 C1328 1.384 . S
C1330 C1331 1.372 . S
C1331 C1330 1.372 . S
C1331 C1332 1.400 . S
C1331 C1336 1.490 . S
C1332 H1322 0.930 . S
C1332 C1331 1.400 . S
C1332 C1335 1.386 . S
H1333 C1349 0.930 . S
H1334 C1350 0.931 . S
C1335 H1323 0.929 . S
C1335 C1329 1.390 . S
C1335 C1332 1.386 . S
C1336 C1331 1.490 . S
C1336 C1338 1.395 . S
C1336 C1339 1.403 . S
H1337 C1343 0.930 . S
C1338 H1324 0.930 . S
C1338 C1336 1.395 . S
C1338 C1341 1.403 . S
C1339 C1336 1.403 . S
C1339 C1340 1.524 . S
C1339 C1343 1.400 . S
C1340 H1325 0.960 . S
C1340 H1326 0.960 . S
C1340 H1327 0.960 . S
C1340 C1339 1.524 . S
C1341 C1338 1.403 . S
C1341 C1342 1.392 . S
C1341 C1345 1.495 1_655 S
C1342 C1341 1.392 . S
C1342 C1343 1.385 . S
C1342 C1344 1.478 . S
C1343 H1337 0.930 . S
C1343 C1339 1.400 . S
C1343 C1342 1.385 . S
C1344 C1342 1.478 . S
C1344 C1346 1.381 . S
C1344 C1350 1.383 . S
C1345 C1341 1.495 1_455 S
C1345 H1351 0.959 . S
C1345 H1352 0.961 . S
C1345 H1353 0.960 . S
C1346 C1344 1.381 . S
C1346 C1347 1.394 . S
C1346 H1354 0.930 . S
C1347 C1346 1.394 . S
C1347 C1348 1.383 . S
C1347 H1355 0.929 1_655 S
C1348 C1347 1.383 . S
C1348 C1349 1.377 . S
C1349 H1333 0.930 . S
C1349 C1348 1.377 . S
C1349 C1350 1.379 . S
C1350 H1334 0.931 . S
C1350 C1344 1.383 . S
C1350 C1349 1.379 . S
H1351 C1345 0.959 . S
H1352 C1345 0.961 . S
H1353 C1345 0.960 . S
H1354 C1346 0.930 . S
H1355 C1347 0.929 1_455 S
H1356 C1364 0.929 . S
H1357 C1366 0.930 . S
H1358 C1368 0.930 . S
H1359 C1371 0.929 . S
H1360 C1374 0.930 . S
H1361 C1376 0.960 . S
H1362 C1376 0.960 . S
H1363 C1376 0.960 . S
C1364 H1356 0.929 . S
C1364 C1365 1.377 . S
C1364 C1366 1.384 . S
C1365 C1364 1.377 . S
C1365 C1371 1.390 . S
C1366 H1357 0.930 . S
C1366 C1364 1.384 . S
C1366 C1367 1.372 . S
C1367 C1366 1.372 . S
C1367 C1368 1.400 . S
C1367 C1372 1.490 . S
C1368 H1358 0.930 . S
C1368 C1367 1.400 . S
C1368 C1371 1.386 . S
H1369 C1385 0.930 . S
H1370 C1386 0.931 . S
C1371 H1359 0.929 . S
C1371 C1365 1.390 . S
C1371 C1368 1.386 . S
C1372 C1367 1.490 . S
C1372 C1374 1.395 . S
C1372 C1375 1.403 . S
H1373 C1379 0.930 . S
C1374 H1360 0.930 . S
C1374 C1372 1.395 . S
C1374 C1377 1.403 . S
C1375 C1372 1.403 . S
C1375 C1376 1.524 . S
C1375 C1379 1.400 . S
C1376 H1361 0.960 . S
C1376 H1362 0.960 . S
C1376 H1363 0.960 . S
C1376 C1375 1.524 . S
C1377 C1374 1.403 . S
C1377 C1378 1.392 . S
C1377 C1381 1.495 . S
C1378 C1377 1.392 . S
C1378 C1379 1.385 . S
C1378 C1380 1.478 . S
C1379 H1373 0.930 . S
C1379 C1375 1.400 . S
C1379 C1378 1.385 . S
C1380 C1378 1.478 . S
C1380 C1382 1.381 . S
C1380 C1386 1.383 . S
C1381 C1377 1.495 . S
C1381 H1387 0.959 . S
C1381 H1388 0.961 . S
C1381 H1389 0.960 . S
C1382 C1380 1.381 . S
C1382 C1383 1.394 . S
C1382 H1390 0.930 . S
C1383 C1382 1.394 . S
C1383 C1384 1.383 . S
C1383 H1391 0.929 . S
C1384 C1383 1.383 . S
C1384 C1385 1.377 . S
C1385 H1369 0.930 . S
C1385 C1384 1.377 . S
C1385 C1386 1.379 . S
C1386 H1370 0.931 . S
C1386 C1380 1.383 . S
C1386 C1385 1.379 . S
H1387 C1381 0.959 . S
H1388 C1381 0.961 . S
H1389 C1381 0.960 . S
H1390 C1382 0.930 . S
H1391 C1383 0.929 . S
H1392 C1400 0.929 . S
H1393 C1402 0.930 . S
H1394 C1404 0.930 . S
H1395 C1407 0.929 . S
H1396 C1410 0.930 . S
H1397 C1412 0.960 . S
H1398 C1412 0.960 . S
H1399 C1412 0.960 . S
C1400 H1392 0.929 . S
C1400 C1401 1.377 . S
C1400 C1402 1.384 . S
C1401 C1400 1.377 . S
C1401 C1407 1.390 . S
C1402 H1393 0.930 . S
C1402 C1400 1.384 . S
C1402 C1403 1.372 . S
C1403 C1402 1.372 . S
C1403 C1404 1.400 . S
C1403 C1408 1.490 . S
C1404 H1394 0.930 . S
C1404 C1403 1.400 . S
C1404 C1407 1.386 . S
H1405 C1421 0.930 . S
H1406 C1422 0.931 . S
C1407 H1395 0.929 . S
C1407 C1401 1.390 . S
C1407 C1404 1.386 . S
C1408 C1403 1.490 . S
C1408 C1410 1.395 . S
C1408 C1411 1.403 . S
H1409 C1415 0.930 . S
C1410 H1396 0.930 . S
C1410 C1408 1.395 . S
C1410 C1413 1.403 . S
C1411 C1408 1.403 . S
C1411 C1412 1.524 . S
C1411 C1415 1.400 . S
C1412 H1397 0.960 . S
C1412 H1398 0.960 . S
C1412 H1399 0.960 . S
C1412 C1411 1.524 . S
C1413 C1410 1.403 . S
C1413 C1414 1.392 . S
C1413 C1417 1.495 . S
C1414 C1413 1.392 . S
C1414 C1415 1.385 . S
C1414 C1416 1.478 . S
C1415 H1409 0.930 . S
C1415 C1411 1.400 . S
C1415 C1414 1.385 . S
C1416 C1414 1.478 . S
C1416 C1418 1.381 . S
C1416 C1422 1.383 . S
C1417 C1413 1.495 . S
C1417 H1423 0.959 . S
C1417 H1424 0.961 . S
C1417 H1425 0.960 . S
C1418 C1416 1.381 . S
C1418 C1419 1.394 . S
C1418 H1426 0.930 . S
C1419 C1418 1.394 . S
C1419 C1420 1.383 . S
C1419 H1427 0.929 . S
C1420 C1419 1.383 . S
C1420 C1421 1.377 . S
C1421 H1405 0.930 . S
C1421 C1420 1.377 . S
C1421 C1422 1.379 . S
C1422 H1406 0.931 . S
C1422 C1416 1.383 . S
C1422 C1421 1.379 . S
H1423 C1417 0.959 . S
H1424 C1417 0.961 . S
H1425 C1417 0.960 . S
H1426 C1418 0.930 . S
H1427 C1419 0.929 . S
H1428 C1436 0.929 . S
H1429 C1438 0.930 . S
H1430 C1440 0.930 . S
H1431 C1443 0.929 . S
H1432 C1446 0.930 . S
H1433 C1448 0.960 . S
H1434 C1448 0.960 . S
H1435 C1448 0.960 . S
C1436 H1428 0.929 . S
C1436 C1437 1.377 . S
C1436 C1438 1.384 . S
C1437 C1436 1.377 . S
C1437 C1443 1.390 . S
C1438 H1429 0.930 . S
C1438 C1436 1.384 . S
C1438 C1439 1.372 . S
C1439 C1438 1.372 . S
C1439 C1440 1.400 . S
C1439 C1444 1.490 . S
C1440 H1430 0.930 . S
C1440 C1439 1.400 . S
C1440 C1443 1.386 . S
H1441 C1457 0.930 . S
H1442 C1458 0.931 . S
C1443 H1431 0.929 . S
C1443 C1437 1.390 . S
C1443 C1440 1.386 . S
C1444 C1439 1.490 . S
C1444 C1446 1.395 . S
C1444 C1447 1.403 . S
H1445 C1451 0.930 . S
C1446 H1432 0.930 . S
C1446 C1444 1.395 . S
C1446 C1449 1.403 . S
C1447 C1444 1.403 . S
C1447 C1448 1.524 . S
C1447 C1451 1.400 . S
C1448 H1433 0.960 . S
C1448 H1434 0.960 . S
C1448 H1435 0.960 . S
C1448 C1447 1.524 . S
C1449 C1446 1.403 . S
C1449 C1450 1.392 . S
C1449 C1453 1.495 . S
C1450 C1449 1.392 . S
C1450 C1451 1.385 . S
C1450 C1452 1.478 . S
C1451 H1445 0.930 . S
C1451 C1447 1.400 . S
C1451 C1450 1.385 . S
C1452 C1450 1.478 . S
C1452 C1454 1.381 . S
C1452 C1458 1.383 . S
C1453 C1449 1.495 . S
C1453 H1459 0.959 . S
C1453 H1460 0.961 . S
C1453 H1461 0.960 . S
C1454 C1452 1.381 . S
C1454 C1455 1.394 . S
C1454 H1462 0.930 . S
C1455 C1454 1.394 . S
C1455 C1456 1.383 . S
C1455 H1463 0.929 . S
C1456 C1455 1.383 . S
C1456 C1457 1.377 . S
C1457 H1441 0.930 . S
C1457 C1456 1.377 . S
C1457 C1458 1.379 . S
C1458 H1442 0.931 . S
C1458 C1452 1.383 . S
C1458 C1457 1.379 . S
H1459 C1453 0.959 . S
H1460 C1453 0.961 . S
H1461 C1453 0.960 . S
H1462 C1454 0.930 . S
H1463 C1455 0.929 . S
H1464 C1472 0.929 . S
H1465 C1474 0.930 . S
H1466 C1476 0.930 . S
H1467 C1479 0.929 . S
H1468 C1482 0.930 . S
H1469 C1484 0.960 . S
H1470 C1484 0.960 . S
H1471 C1484 0.960 . S
C1472 H1464 0.929 . S
C1472 C1473 1.377 . S
C1472 C1474 1.384 . S
C1473 C1472 1.377 . S
C1473 C1479 1.390 . S
C1474 H1465 0.930 . S
C1474 C1472 1.384 . S
C1474 C1475 1.372 . S
C1475 C1474 1.372 . S
C1475 C1476 1.400 . S
C1475 C1480 1.490 . S
C1476 H1466 0.930 . S
C1476 C1475 1.400 . S
C1476 C1479 1.386 . S
H1477 C1493 0.930 . S
H1478 C1494 0.931 . S
C1479 H1467 0.929 . S
C1479 C1473 1.390 . S
C1479 C1476 1.386 . S
C1480 C1475 1.490 . S
C1480 C1482 1.395 . S
C1480 C1483 1.403 . S
H1481 C1487 0.930 . S
C1482 H1468 0.930 . S
C1482 C1480 1.395 . S
C1482 C1485 1.403 . S
C1483 C1480 1.403 . S
C1483 C1484 1.524 . S
C1483 C1487 1.400 . S
C1484 H1469 0.960 . S
C1484 H1470 0.960 . S
C1484 H1471 0.960 . S
C1484 C1483 1.524 . S
C1485 C1482 1.403 . S
C1485 C1486 1.392 . S
C1485 C1489 1.495 . S
C1486 C1485 1.392 . S
C1486 C1487 1.385 . S
C1486 C1488 1.478 . S
C1487 H1481 0.930 . S
C1487 C1483 1.400 . S
C1487 C1486 1.385 . S
C1488 C1486 1.478 . S
C1488 C1490 1.381 . S
C1488 C1494 1.383 . S
C1489 C1485 1.495 . S
C1489 H1495 0.959 . S
C1489 H1496 0.961 . S
C1489 H1497 0.960 . S
C1490 C1488 1.381 . S
C1490 C1491 1.394 . S
C1490 H1498 0.930 . S
C1491 C1490 1.394 . S
C1491 C1492 1.383 . S
C1491 H1499 0.929 . S
C1492 C1491 1.383 . S
C1492 C1493 1.377 . S
C1493 H1477 0.930 . S
C1493 C1492 1.377 . S
C1493 C1494 1.379 . S
C1494 H1478 0.931 . S
C1494 C1488 1.383 . S
C1494 C1493 1.379 . S
H1495 C1489 0.959 . S
H1496 C1489 0.961 . S
H1497 C1489 0.960 . S
H1498 C1490 0.930 . S
H1499 C1491 0.929 . S
H1500 C1508 0.929 . S
H1501 C1510 0.930 . S
H1502 C1512 0.930 . S
H1503 C1515 0.929 . S
H1504 C1518 0.930 . S
H1505 C1520 0.960 . S
H1506 C1520 0.960 . S
H1507 C1520 0.960 . S
C1508 H1500 0.929 . S
C1508 C1509 1.377 . S
C1508 C1510 1.384 . S
C1509 C1508 1.377 . S
C1509 C1515 1.390 . S
C1510 H1501 0.930 . S
C1510 C1508 1.384 . S
C1510 C1511 1.372 . S
C1511 C1510 1.372 . S
C1511 C1512 1.400 . S
C1511 C1516 1.490 . S
C1512 H1502 0.930 . S
C1512 C1511 1.400 . S
C1512 C1515 1.386 . S
H1513 C1529 0.930 . S
H1514 C1530 0.931 . S
C1515 H1503 0.929 . S
C1515 C1509 1.390 . S
C1515 C1512 1.386 . S
C1516 C1511 1.490 . S
C1516 C1518 1.395 . S
C1516 C1519 1.403 . S
H1517 C1523 0.930 . S
C1518 H1504 0.930 . S
C1518 C1516 1.395 . S
C1518 C1521 1.403 . S
C1519 C1516 1.403 . S
C1519 C1520 1.524 . S
C1519 C1523 1.400 . S
C1520 H1505 0.960 . S
C1520 H1506 0.960 . S
C1520 H1507 0.960 . S
C1520 C1519 1.524 . S
C1521 C1518 1.403 . S
C1521 C1522 1.392 . S
C1521 C1525 1.495 . S
C1522 C1521 1.392 . S
C1522 C1523 1.385 . S
C1522 C1524 1.478 . S
C1523 H1517 0.930 . S
C1523 C1519 1.400 . S
C1523 C1522 1.385 . S
C1524 C1522 1.478 . S
C1524 C1526 1.381 . S
C1524 C1530 1.383 . S
C1525 C1521 1.495 . S
C1525 H1531 0.959 . S
C1525 H1532 0.961 . S
C1525 H1533 0.960 . S
C1526 C1524 1.381 . S
C1526 C1527 1.394 . S
C1526 H1534 0.930 . S
C1527 C1526 1.394 . S
C1527 C1528 1.383 . S
C1527 H1535 0.929 . S
C1528 C1527 1.383 . S
C1528 C1529 1.377 . S
C1529 H1513 0.930 . S
C1529 C1528 1.377 . S
C1529 C1530 1.379 . S
C1530 H1514 0.931 . S
C1530 C1524 1.383 . S
C1530 C1529 1.379 . S
H1531 C1525 0.959 . S
H1532 C1525 0.961 . S
H1533 C1525 0.960 . S
H1534 C1526 0.930 . S
H1535 C1527 0.929 . S
H1536 C1544 0.929 . S
H1537 C1546 0.930 . S
H1538 C1548 0.930 . S
H1539 C1551 0.929 . S
H1540 C1554 0.930 . S
H1541 C1556 0.960 . S
H1542 C1556 0.960 . S
H1543 C1556 0.960 . S
C1544 H1536 0.929 . S
C1544 C1545 1.377 . S
C1544 C1546 1.384 . S
C1545 C1544 1.377 . S
C1545 C1551 1.390 . S
C1546 H1537 0.930 . S
C1546 C1544 1.384 . S
C1546 C1547 1.372 . S
C1547 C1546 1.372 . S
C1547 C1548 1.400 . S
C1547 C1552 1.490 . S
C1548 H1538 0.930 . S
C1548 C1547 1.400 . S
C1548 C1551 1.386 . S
H1549 C1565 0.930 . S
H1550 C1566 0.931 . S
C1551 H1539 0.929 . S
C1551 C1545 1.390 . S
C1551 C1548 1.386 . S
C1552 C1547 1.490 . S
C1552 C1554 1.395 . S
C1552 C1555 1.403 . S
H1553 C1559 0.930 . S
C1554 H1540 0.930 . S
C1554 C1552 1.395 . S
C1554 C1557 1.403 . S
C1555 C1552 1.403 . S
C1555 C1556 1.524 . S
C1555 C1559 1.400 . S
C1556 H1541 0.960 . S
C1556 H1542 0.960 . S
C1556 H1543 0.960 . S
C1556 C1555 1.524 . S
C1557 C1554 1.403 . S
C1557 C1558 1.392 . S
C1557 C1561 1.495 . S
C1558 C1557 1.392 . S
C1558 C1559 1.385 . S
C1558 C1560 1.478 . S
C1559 H1553 0.930 . S
C1559 C1555 1.400 . S
C1559 C1558 1.385 . S
C1560 C1558 1.478 . S
C1560 C1562 1.381 . S
C1560 C1566 1.383 . S
C1561 C1557 1.495 . S
C1561 H1567 0.959 . S
C1561 H1568 0.961 . S
C1561 H1569 0.960 . S
C1562 C1560 1.381 . S
C1562 C1563 1.394 . S
C1562 H1570 0.930 . S
C1563 C1562 1.394 . S
C1563 C1564 1.383 . S
C1563 H1571 0.929 . S
C1564 C1563 1.383 . S
C1564 C1565 1.377 . S
C1565 H1549 0.930 . S
C1565 C1564 1.377 . S
C1565 C1566 1.379 . S
C1566 H1550 0.931 . S
C1566 C1560 1.383 . S
C1566 C1565 1.379 . S
H1567 C1561 0.959 . S
H1568 C1561 0.961 . S
H1569 C1561 0.960 . S
H1570 C1562 0.930 . S
H1571 C1563 0.929 . S
H1572 C1580 0.929 . S
H1573 C1582 0.930 . S
H1574 C1584 0.930 . S
H1575 C1587 0.929 . S
H1576 C1590 0.930 . S
H1577 C1592 0.960 . S
H1578 C1592 0.960 . S
H1579 C1592 0.960 . S
C1580 H1572 0.929 . S
C1580 C1581 1.377 . S
C1580 C1582 1.384 . S
C1581 C1580 1.377 . S
C1581 C1587 1.390 . S
C1582 H1573 0.930 . S
C1582 C1580 1.384 . S
C1582 C1583 1.372 . S
C1583 C1582 1.372 . S
C1583 C1584 1.400 . S
C1583 C1588 1.490 . S
C1584 H1574 0.930 . S
C1584 C1583 1.400 . S
C1584 C1587 1.386 . S
H1585 C1601 0.930 . S
H1586 C1602 0.931 . S
C1587 H1575 0.929 . S
C1587 C1581 1.390 . S
C1587 C1584 1.386 . S
C1588 C1583 1.490 . S
C1588 C1590 1.395 . S
C1588 C1591 1.403 . S
H1589 C1595 0.930 . S
C1590 H1576 0.930 . S
C1590 C1588 1.395 . S
C1590 C1593 1.403 . S
C1591 C1588 1.403 . S
C1591 C1592 1.524 . S
C1591 C1595 1.400 . S
C1592 H1577 0.960 . S
C1592 H1578 0.960 . S
C1592 H1579 0.960 . S
C1592 C1591 1.524 . S
C1593 C1590 1.403 . S
C1593 C1594 1.392 . S
C1593 C1597 1.495 . S
C1594 C1593 1.392 . S
C1594 C1595 1.385 . S
C1594 C1596 1.478 . S
C1595 H1589 0.930 . S
C1595 C1591 1.400 . S
C1595 C1594 1.385 . S
C1596 C1594 1.478 . S
C1596 C1598 1.381 . S
C1596 C1602 1.383 . S
C1597 C1593 1.495 . S
C1597 H1603 0.959 . S
C1597 H1604 0.961 . S
C1597 H1605 0.960 . S
C1598 C1596 1.381 . S
C1598 C1599 1.394 . S
C1598 H1606 0.930 . S
C1599 C1598 1.394 . S
C1599 C1600 1.383 . S
C1599 H1607 0.929 . S
C1600 C1599 1.383 . S
C1600 C1601 1.377 . S
C1601 H1585 0.930 . S
C1601 C1600 1.377 . S
C1601 C1602 1.379 . S
C1602 H1586 0.931 . S
C1602 C1596 1.383 . S
C1602 C1601 1.379 . S
H1603 C1597 0.959 . S
H1604 C1597 0.961 . S
H1605 C1597 0.960 . S
H1606 C1598 0.930 . S
H1607 C1599 0.929 . S
H1608 C1616 0.929 . S
H1609 C1618 0.930 . S
H1610 C1620 0.930 . S
H1611 C1623 0.929 . S
H1612 C1626 0.930 . S
H1613 C1628 0.960 . S
H1614 C1628 0.960 . S
H1615 C1628 0.960 . S
C1616 H1608 0.929 . S
C1616 C1617 1.377 . S
C1616 C1618 1.384 . S
C1617 C1616 1.377 . S
C1617 C1623 1.390 . S
C1618 H1609 0.930 . S
C1618 C1616 1.384 . S
C1618 C1619 1.372 . S
C1619 C1618 1.372 . S
C1619 C1620 1.400 . S
C1619 C1624 1.490 . S
C1620 H1610 0.930 . S
C1620 C1619 1.400 . S
C1620 C1623 1.386 . S
H1621 C1637 0.930 . S
H1622 C1638 0.931 . S
C1623 H1611 0.929 . S
C1623 C1617 1.390 . S
C1623 C1620 1.386 . S
C1624 C1619 1.490 . S
C1624 C1626 1.395 . S
C1624 C1627 1.403 . S
H1625 C1631 0.930 . S
C1626 H1612 0.930 . S
C1626 C1624 1.395 . S
C1626 C1629 1.403 . S
C1627 C1624 1.403 . S
C1627 C1628 1.524 . S
C1627 C1631 1.400 . S
C1628 H1613 0.960 . S
C1628 H1614 0.960 . S
C1628 H1615 0.960 . S
C1628 C1627 1.524 . S
C1629 C1626 1.403 . S
C1629 C1630 1.392 . S
C1629 C1633 1.495 . S
C1630 C1629 1.392 . S
C1630 C1631 1.385 . S
C1630 C1632 1.478 . S
C1631 H1625 0.930 . S
C1631 C1627 1.400 . S
C1631 C1630 1.385 . S
C1632 C1630 1.478 . S
C1632 C1634 1.381 . S
C1632 C1638 1.383 . S
C1633 C1629 1.495 . S
C1633 H1639 0.959 . S
C1633 H1640 0.961 . S
C1633 H1641 0.960 . S
C1634 C1632 1.381 . S
C1634 C1635 1.394 . S
C1634 H1642 0.930 . S
C1635 C1634 1.394 . S
C1635 C1636 1.383 . S
C1635 H1643 0.929 . S
C1636 C1635 1.383 . S
C1636 C1637 1.377 . S
C1637 H1621 0.930 . S
C1637 C1636 1.377 . S
C1637 C1638 1.379 . S
C1638 H1622 0.931 . S
C1638 C1632 1.383 . S
C1638 C1637 1.379 . S
H1639 C1633 0.959 . S
H1640 C1633 0.961 . S
H1641 C1633 0.960 . S
H1642 C1634 0.930 . S
H1643 C1635 0.929 . S
C520 C428 1.798 . S
C501 C1 1.877 . S
C537 C68 1.795 . S
C556 C431 1.738 . S
C573 C93 1.772 . S
C592 C462 1.736 . S
C628 C397 1.768 . S
C609 C139 1.850 . S
C664 C432 1.836 . S
C645 C8 1.875 . S
C700 C463 1.768 . S
C681 C61 1.847 . S
C736 C388 1.725 . S
C717 C100 1.769 . S
C772 C419 1.741 . S
C753 C146 1.798 . S
C789 C15 1.199 . S
C808 C449 1.122 . S
C825 C192 1.185 . S
C844 C418 1.158 . S
C861 C107 1.111 . S
C880 C378 1.073 . S
C916 C471 1.093 . S
C897 C238 1.127 . S
C952 C399 1.084 . S
C933 C22 1.203 . S
C969 C185 1.127 . S
C988 C398 1.092 . S
C1005 C114 1.109 . S
C1024 C491 1.100 . S
C1060 C430 1.081 . S
C1041 C231 1.184 . S
C1077 C277 1.876 . S
C1096 C490 1.803 . S
C1113 C206 1.795 . S
C1132 C369 1.740 . S
C1149 C330 1.771 1_655 S
C1168 C400 1.718 . S
C1185 C252 1.846 . S
C1204 C459 1.783 . S
C1240 C370 1.803 . S
C1221 C284 1.873 . S
C1257 C199 1.846 . S
C1276 C401 1.774 . S
C1293 C323 1.770 1_655 S
C1312 C450 1.745 . S
C1348 C481 1.749 . S
C1329 C245 1.794 . S
C1365 C291 1.202 . S
C1384 C387 1.085 . S
C1401 C54 1.184 . S
C1420 C480 1.088 . S
C1437 C344 1.109 . S
C1456 C440 1.118 . S
C1492 C409 1.093 . S
C1473 C153 1.126 . S
C1528 C461 1.081 . S
C1509 C298 1.204 . S
C1564 C460 1.089 . S
C1545 C47 1.127 . S
C1600 C429 1.104 . S
C1581 C337 1.111 . S
C1636 C368 1.068 . S
C1617 C160 1.187 . S
