# Generated by pormake.
# Topology anh, (6,3)-cn, num edge types: 1
# Building blocks:
#     Node 0, Type 0, BuildingBlock: PAMTOO_clean_sbu_0, # of connection points: 6
#     Node 1, Type 0, BuildingBlock: PAMTOO_clean_sbu_0, # of connection points: 6
#     Node 2, Type 0, BuildingBlock: PAMTOO_clean_sbu_0, # of connection points: 6
#     Node 3, Type 1, BuildingBlock: BETDIP_clean_linker_0, # of connection points: 3
#     Node 4, Type 1, BuildingBlock: BETDIP_clean_linker_0, # of connection points: 3
#     Node 5, Type 1, BuildingBlock: BETDIP_clean_linker_0, # of connection points: 3
#     Node 6, Type 1, BuildingBlock: BETDIP_clean_linker_0, # of connection points: 3
#     Node 7, Type 1, BuildingBlock: BETDIP_clean_linker_0, # of connection points: 3
#     Node 8, Type 1, BuildingBlock: BETDIP_clean_linker_0, # of connection points: 3
#     Edge 9, Type (0, 1), BuildingBlock: ZUJKAS_clean_linker_0, # of connection points: 2
#     Edge 10, Type (0, 1), BuildingBlock: ZUJKAS_clean_linker_0, # of connection points: 2
#     Edge 11, Type (0, 1), BuildingBlock: ZUJKAS_clean_linker_0, # of connection points: 2
#     Edge 12, Type (0, 1), BuildingBlock: ZUJKAS_clean_linker_0, # of connection points: 2
#     Edge 13, Type (0, 1), BuildingBlock: ZUJKAS_clean_linker_0, # of connection points: 2
#     Edge 14, Type (0, 1), BuildingBlock: ZUJKAS_clean_linker_0, # of connection points: 2
#     Edge 15, Type (0, 1), BuildingBlock: ZUJKAS_clean_linker_0, # of connection points: 2
#     Edge 16, Type (0, 1), BuildingBlock: ZUJKAS_clean_linker_0, # of connection points: 2
#     Edge 17, Type (0, 1), BuildingBlock: ZUJKAS_clean_linker_0, # of connection points: 2
#     Edge 18, Type (0, 1), BuildingBlock: ZUJKAS_clean_linker_0, # of connection points: 2
#     Edge 19, Type (0, 1), BuildingBlock: ZUJKAS_clean_linker_0, # of connection points: 2
#     Edge 20, Type (0, 1), BuildingBlock: ZUJKAS_clean_linker_0, # of connection points: 2
#     Edge 21, Type (0, 1), BuildingBlock: ZUJKAS_clean_linker_0, # of connection points: 2
#     Edge 22, Type (0, 1), BuildingBlock: ZUJKAS_clean_linker_0, # of connection points: 2
#     Edge 23, Type (0, 1), BuildingBlock: ZUJKAS_clean_linker_0, # of connection points: 2
#     Edge 24, Type (0, 1), BuildingBlock: ZUJKAS_clean_linker_0, # of connection points: 2
#     Edge 25, Type (0, 1), BuildingBlock: ZUJKAS_clean_linker_0, # of connection points: 2
#     Edge 26, Type (0, 1), BuildingBlock: ZUJKAS_clean_linker_0, # of connection points: 2
# Relax obj value: 0.126
# Max RMSD: 0.204
# Mean RMSD: 0.122
data_MOF--net-anh--node1-PAMTOO_clean_sbu_0--node2-BETDIP_clean_linker_0--edge1-ZUJKAS_clean_linker_0
_symmetry_space_group_name_H-M    P1
_symmetry_Int_Tables_number       1
_symmetry_cell_setting            triclinic
loop_
_symmetry_equiv_pos_as_xyz
'x, y, z'
_cell_length_a     40.18029
_cell_length_b     38.559276
_cell_length_c     64.49254
_cell_angle_alpha  93.90636
_cell_angle_beta   95.683413
_cell_angle_gamma 106.90541
loop_
_atom_site_label
_atom_site_type_symbol
_atom_site_fract_x
_atom_site_fract_y
_atom_site_fract_z
_atom_type_partial_charge
Dy0 Dy 0.08573 0.62008 0.14469 0.0
Dy1 Dy 0.06092 0.53189 0.1374 0.0
C2 C 0.06927 0.5791 0.10009 0.0
O3 O 1.02808 0.60628 0.14916 0.0
O4 O 1.00959 0.54673 0.13462 0.0
O5 O 0.10566 0.66956 0.13027 0.0
O6 O 0.09452 0.67223 0.16247 0.0
O7 O 0.05574 0.54586 0.17078 0.0
O8 O 0.0968 0.60192 0.17604 0.0
O9 O 0.12017 0.54525 0.14424 0.0
O10 O 0.13642 0.60644 0.14021 0.0
O11 O 0.06114 0.47904 0.14629 0.0
O12 O 1.03039 0.48344 0.11749 0.0
C13 C 1.00241 0.57627 0.14211 0.0
O14 O 0.05888 0.60136 0.11219 0.0
O15 O 0.08026 0.55372 0.10821 0.0
C16 C 0.14235 0.71856 0.15308 0.0
C17 C 0.20916 0.77074 0.16088 0.0
C18 C 0.18333 0.77506 0.14574 0.0
C19 C 0.15025 0.74926 0.14193 0.0
C20 C 0.16786 0.71408 0.16829 0.0
C21 C 0.2009 0.74006 0.17224 0.0
C22 C 0.10834 0.69045 0.1475 0.0
C23 C 0.07691 0.57319 0.18337 0.0
C24 C 0.14476 0.57599 0.14253 0.0
C25 C 1.00613 0.4346 0.13673 0.0
C26 C 0.94461 0.38428 0.14659 0.0
C27 C 0.96363 0.41423 0.16101 0.0
C28 C 0.99392 0.43925 0.15607 0.0
C29 C 0.98759 0.40461 0.1224 0.0
C30 C 0.95707 0.37969 0.12725 0.0
C31 C 1.03702 0.46177 0.13094 0.0
H32 H 0.18888 0.79792 0.13642 0.0
H33 H 0.13102 0.75289 0.12994 0.0
H34 H 0.1624 0.69032 0.17692 0.0
H35 H 0.21994 0.73608 0.18421 0.0
H36 H 0.95519 0.41835 0.17617 0.0
H37 H 1.00764 0.4624 0.16734 0.0
H38 H 0.99641 0.40079 0.10731 0.0
H39 H 0.94286 0.35729 0.11565 0.0
Dy40 Dy 0.54297 0.0267 0.5061 0.0
Dy41 Dy 0.62891 0.05504 0.51803 0.0
C42 C 0.5791 0.03338 0.55342 0.0
O43 O 0.55891 0.08595 0.50159 0.0
O44 O 0.61006 0.1037 0.52403 0.0
O45 O 0.49079 0.02475 0.51282 0.0
O46 O 0.49813 0.99808 0.48376 0.0
O47 O 0.61749 0.06747 0.48535 0.0
O48 O 0.56727 0.02043 0.47698 0.0
O49 O 0.61469 0.99445 0.50952 0.0
O50 O 0.55666 0.97724 0.51496 0.0
O51 O 0.68018 0.0563 0.5102 0.0
O52 O 0.67512 0.08692 0.53857 0.0
C53 C 0.58441 0.11153 0.51294 0.0
O54 O 0.55334 0.03844 0.54098 0.0
O55 O 0.60856 0.03231 0.54664 0.0
C56 C 0.44684 0.9706 0.49821 0.0
C57 C 0.39357 0.90501 0.49992 0.0
C58 C 0.421 0.91806 0.51647 0.0
C59 C 0.44765 0.95055 0.51555 0.0
C60 C 0.41904 0.95809 0.482 0.0
C61 C 0.39268 0.92557 0.48281 0.0
C62 C 0.47565 0.00323 0.49591 0.0
C63 C 0.59393 0.04504 0.47131 0.0
C64 C 0.5857 0.96924 0.51229 0.0
C65 C 0.72149 0.11411 0.51981 0.0
C66 C 0.76828 0.17924 0.50982 0.0
C67 C 0.73774 0.1609 0.49612 0.0
C68 C 0.7145 0.12881 0.50113 0.0
C69 C 0.75195 0.13204 0.53346 0.0
C70 C 0.77515 0.16434 0.52854 0.0
C71 C 0.69631 0.08119 0.52557 0.0
H72 H 0.42239 0.9026 0.52976 0.0
H73 H 0.46915 0.9596 0.52813 0.0
H74 H 0.41808 0.97316 0.46848 0.0
H75 H 0.37163 0.91635 0.46997 0.0
H76 H 0.73184 0.17119 0.48144 0.0
H77 H 0.69094 0.11559 0.49043 0.0
H78 H 0.75756 0.1213 0.54806 0.0
H79 H 0.79811 0.17798 0.53959 0.0
Dy80 Dy 0.57011 0.48982 0.83938 0.0
Dy81 Dy 0.48493 0.45962 0.82774 0.0
C82 C 0.53443 0.47374 0.79195 0.0
O83 O 0.55125 0.53823 0.8463 0.0
O84 O 0.4997 0.51937 0.82425 0.0
O85 O 0.61852 0.53344 0.84243 0.0
O86 O 0.6189 0.47988 0.85042 0.0
O87 O 0.49525 0.48411 0.86102 0.0
O88 O 0.54849 0.47498 0.86916 0.0
O89 O 0.50219 0.41164 0.83603 0.0
O90 O 0.55759 0.43116 0.82693 0.0
O91 O 0.43481 0.42711 0.83513 0.0
O92 O 0.43763 0.45642 0.80758 0.0
C93 C 0.52499 0.54542 0.83546 0.0
O94 O 0.55908 0.49602 0.80557 0.0
O95 O 0.50686 0.45071 0.79798 0.0
C96 C 0.6678 0.51519 0.83592 0.0
C97 C 0.72829 0.5284 0.81545 0.0
C98 C 0.69588 0.52689 0.80436 0.0
C99 C 0.66578 0.52015 0.8145 0.0
C100 C 0.69966 0.51501 0.84675 0.0
C101 C 0.72965 0.52148 0.83662 0.0
C102 C 0.63768 0.51254 0.84752 0.0
C103 C 0.52017 0.48117 0.87492 0.0
C104 C 0.53084 0.40487 0.83127 0.0
C105 C 0.39187 0.45618 0.82734 0.0
C106 C 0.347 0.49663 0.83826 0.0
C107 C 0.37858 0.5006 0.85101 0.0
C108 C 0.40087 0.48069 0.84555 0.0
C109 C 0.35992 0.45122 0.81488 0.0
C110 C 0.3376 0.47134 0.82029 0.0
C111 C 0.41738 0.43876 0.82042 0.0
H112 H 0.69403 0.5319 0.78802 0.0
H113 H 0.64123 0.52002 0.80582 0.0
H114 H 0.70164 0.51119 0.86327 0.0
H115 H 0.7543 0.52301 0.84569 0.0
H116 H 0.38688 0.52031 0.86472 0.0
H117 H 0.4257 0.48535 0.85521 0.0
H118 H 0.35275 0.43263 0.80068 0.0
H119 H 0.31333 0.46764 0.81024 0.0
H120 H 0.56182 0.05807 0.18922 0.0
H121 H 0.62641 0.10839 0.24687 0.0
H122 H 0.53745 0.01431 0.24741 0.0
H123 H 0.6282 0.16013 0.22789 0.0
C124 C 0.63581 0.14885 0.21384 0.0
C125 C 0.56761 0.05886 0.20605 0.0
C126 C 0.54637 0.03253 0.21702 0.0
C127 C 0.5961 0.08664 0.21675 0.0
C128 C 0.60381 0.08766 0.23858 0.0
C129 C 0.58306 0.0613 0.24972 0.0
C130 C 0.5544 0.0339 0.2388 0.0
N131 N 0.61731 0.11267 0.20521 0.0
H132 H 0.58538 0.5105 0.51584 0.0
H133 H 0.56293 0.56306 0.5717 0.0
H134 H 0.57447 0.45592 0.57194 0.0
H135 H 0.52896 0.58201 0.54402 0.0
C136 C 0.55157 0.59331 0.53593 0.0
C137 C 0.5805 0.51019 0.53206 0.0
C138 C 0.58085 0.47959 0.54276 0.0
C139 C 0.57366 0.54037 0.54235 0.0
C140 C 0.56761 0.53979 0.5635 0.0
C141 C 0.56757 0.50928 0.57417 0.0
C142 C 0.57427 0.47948 0.5637 0.0
N143 N 0.57363 0.57142 0.53153 0.0
H144 H 0.09659 0.74496 0.84279 0.0
H145 H 0.1545 0.74269 0.90193 0.0
H146 H 0.05089 0.66799 0.88487 0.0
H147 H 0.20937 0.8092 0.87697 0.0
C148 C 0.19157 0.78187 0.87291 0.0
C149 C 0.09799 0.73327 0.85754 0.0
C150 C 0.07062 0.70342 0.86167 0.0
C151 C 0.1281 0.74737 0.87201 0.0
C152 C 0.13089 0.73181 0.89096 0.0
C153 C 0.10322 0.70277 0.89582 0.0
C154 C 0.07313 0.68915 0.88106 0.0
N155 N 0.15537 0.77751 0.86729 0.0
H156 H 0.08778 0.56451 0.46693 0.0
H157 H 1.03078 0.52186 0.40614 0.0
H158 H 0.12709 0.60936 0.41175 0.0
H159 H 0.98445 0.50876 0.42575 0.0
C160 C 0.9958 0.49822 0.439 0.0
C161 C 0.08519 0.56521 0.45009 0.0
C162 C 0.1109 0.59022 0.44086 0.0
C163 C 0.05604 0.54086 0.43774 0.0
C164 C 0.05289 0.54103 0.41582 0.0
C165 C 0.07848 0.56569 0.40627 0.0
C166 C 0.10728 0.59021 0.41896 0.0
N167 N 1.03113 0.51554 0.44777 0.0
H168 H 0.53601 0.00811 0.83095 0.0
H169 H 0.53185 0.94447 0.77259 0.0
H170 H 0.54911 0.05981 0.77399 0.0
H171 H 0.48852 0.9039 0.79024 0.0
C172 C 0.50706 0.90537 0.804 0.0
C173 C 0.53736 0.00642 0.81423 0.0
C174 C 0.54314 0.03817 0.80374 0.0
C175 C 0.53307 0.97236 0.80305 0.0
C176 C 0.53481 0.97043 0.7813 0.0
C177 C 0.5403 1.00181 0.77068 0.0
C178 C 0.54467 0.03542 0.78208 0.0
N179 N 0.5277 0.94035 0.81376 0.0
H180 H 0.54541 0.58079 0.15745 0.0
H181 H 0.58555 0.55948 0.09972 0.0
H182 H 0.47906 0.56079 0.09826 0.0
H183 H 0.61163 0.52616 0.12313 0.0
C184 C 0.62579 0.55088 0.13321 0.0
C185 C 0.54168 0.57481 0.14059 0.0
C186 C 0.50801 0.57107 0.12906 0.0
C187 C 0.57024 0.56994 0.13003 0.0
C188 C 0.56438 0.56261 0.10811 0.0
C189 C 0.53182 0.55921 0.0967 0.0
C190 C 0.50409 0.56326 0.10723 0.0
N191 N 0.60475 0.57282 0.14075 0.0
H192 H 0.20439 0.63362 0.13941 0.0
H193 H 0.26543 0.63331 0.13939 0.0
H194 H 0.23417 0.51872 0.14704 0.0
H195 H 0.17319 0.51874 0.14667 0.0
H196 H 0.31392 0.62029 0.16669 0.0
H197 H 0.28962 0.51555 0.09953 0.0
H198 H 0.25649 0.5358 0.10637 0.0
H199 H 0.26431 0.49931 0.12019 0.0
C200 C 0.21029 0.60818 0.14099 0.0
C201 C 0.18298 0.57613 0.14286 0.0
C202 C 0.24562 0.60805 0.14102 0.0
C203 C 0.25534 0.57583 0.14275 0.0
C204 C 0.22815 0.54396 0.14502 0.0
H205 H 0.45371 0.51692 0.14076 0.0
H206 H 0.39425 0.51886 0.14537 0.0
C207 C 0.19285 0.54407 0.14499 0.0
C208 C 0.29355 0.57569 0.14248 0.0
H209 H 0.34617 0.53235 0.11903 0.0
C210 C 0.32076 0.60106 0.15613 0.0
C211 C 0.30359 0.55085 0.12886 0.0
C212 C 0.27706 0.52409 0.11276 0.0
C213 C 0.35656 0.60173 0.15689 0.0
C214 C 0.36658 0.57682 0.14331 0.0
C215 C 0.33935 0.5515 0.12965 0.0
C216 C 0.40472 0.57662 0.14275 0.0
C217 C 0.38319 0.62866 0.17286 0.0
C218 C 0.43185 0.6083 0.14006 0.0
C219 C 0.46634 0.60723 0.13776 0.0
C220 C 0.47543 0.57452 0.1382 0.0
C221 C 0.44853 0.54299 0.14127 0.0
C222 C 0.41403 0.54402 0.14354 0.0
H223 H 0.37076 0.63707 0.18619 0.0
H224 H 0.40402 0.61716 0.17911 0.0
H225 H 0.3956 0.65347 0.16536 0.0
H226 H 0.42604 0.6338 0.13864 0.0
H227 H 0.48551 0.63177 0.1344 0.0
H228 H 0.84023 0.20189 0.51642 0.0
H229 H 0.88005 0.25837 0.50737 0.0
H230 H 0.79166 0.29022 0.48121 0.0
H231 H 0.75166 0.23491 0.49119 0.0
H232 H 0.88882 0.28096 0.46928 0.0
H233 H 0.84728 0.38191 0.51725 0.0
H234 H 0.83416 0.33405 0.52089 0.0
H235 H 0.81136 0.35086 0.50031 0.0
C236 C 0.8292 0.22124 0.50913 0.0
C237 C 0.79267 0.21381 0.50459 0.0
C238 C 0.85203 0.2534 0.50383 0.0
C239 C 0.83885 0.27883 0.49391 0.0
C240 C 0.80245 0.27146 0.48929 0.0
H241 H 0.92608 0.46595 0.42871 0.0
H242 H 0.88868 0.41301 0.44304 0.0
C243 C 0.77961 0.23946 0.49472 0.0
C244 C 0.86316 0.31213 0.48742 0.0
H245 H 0.88274 0.40488 0.49055 0.0
C246 C 0.88773 0.30806 0.47413 0.0
C247 C 0.86177 0.34752 0.49378 0.0
C248 C 0.83746 0.35393 0.50901 0.0
C249 C 0.91027 0.33834 0.46659 0.0
C250 C 0.90819 0.3735 0.47252 0.0
C251 C 0.88402 0.37774 0.48599 0.0
C252 C 0.93061 0.40614 0.46452 0.0
C253 C 0.93566 0.33262 0.45194 0.0
C254 C 0.96636 0.41985 0.4721 0.0
C255 C 0.98768 0.45015 0.46406 0.0
C256 C 0.97349 0.46702 0.44826 0.0
C257 C 0.9376 0.45339 0.44087 0.0
C258 C 0.91627 0.42328 0.44903 0.0
H259 H 0.93111 0.30332 0.44686 0.0
H260 H 0.9335 0.34724 0.43785 0.0
H261 H 0.96285 0.34405 0.45995 0.0
H262 H 0.97777 0.40697 0.48413 0.0
H263 H 1.01527 0.45999 0.47004 0.0
H264 H 0.57193 0.60747 0.85674 0.0
H265 H 0.57027 0.67043 0.856 0.0
H266 H 0.47461 0.63325 0.81326 0.0
H267 H 0.47563 0.57046 0.81421 0.0
H268 H 0.57246 0.71149 0.8232 0.0
H269 H 0.44804 0.69773 0.85639 0.0
H270 H 0.4703 0.66332 0.85765 0.0
H271 H 0.44273 0.66509 0.83422 0.0
C272 C 0.55033 0.61263 0.84734 0.0
C273 C 0.52382 0.58372 0.83562 0.0
C274 C 0.54946 0.6487 0.84691 0.0
C275 C 0.52197 0.65667 0.83488 0.0
C276 C 0.49561 0.62786 0.82311 0.0
H277 H 0.46679 0.83767 0.78903 0.0
H278 H 0.47232 0.77926 0.79882 0.0
C279 C 0.4964 0.59186 0.82356 0.0
C280 C 0.52154 0.69509 0.83378 0.0
H281 H 0.46944 0.75065 0.83833 0.0
C282 C 0.55017 0.72021 0.82682 0.0
C283 C 0.49251 0.70663 0.83856 0.0
C284 C 0.46183 0.68187 0.84733 0.0
C285 C 0.54982 0.75586 0.82355 0.0
C286 C 0.52023 0.76691 0.82759 0.0
C287 C 0.49209 0.74217 0.83517 0.0
C288 C 0.51674 0.80294 0.82252 0.0
C289 C 0.58043 0.78092 0.8149 0.0
C290 C 0.53954 0.83587 0.83283 0.0
C291 C 0.53631 0.86949 0.82728 0.0
C292 C 0.5102 0.87062 0.81134 0.0
C293 C 0.48714 0.83764 0.80138 0.0
C294 C 0.49026 0.80422 0.80696 0.0
H295 H 0.59825 0.76621 0.8091 0.0
H296 H 0.57111 0.79451 0.80187 0.0
H297 H 0.59575 0.80242 0.82741 0.0
H298 H 0.55988 0.83557 0.8451 0.0
H299 H 0.55448 0.89445 0.83524 0.0
H300 H 0.94094 0.51993 0.12885 0.0
H301 H 0.87981 0.51954 0.12911 0.0
H302 H 0.91487 0.6308 0.15689 0.0
H303 H 0.97595 0.63154 0.15628 0.0
H304 H 0.83996 0.52591 0.1585 0.0
H305 H 0.84456 0.64238 0.11223 0.0
H306 H 0.8799 0.62232 0.11471 0.0
H307 H 0.87594 0.6543 0.1353 0.0
C308 C 0.93586 0.54453 0.13492 0.0
C309 C 0.96421 0.57587 0.14238 0.0
C310 C 0.90046 0.54426 0.1351 0.0
C311 C 0.89164 0.57537 0.1426 0.0
C312 C 0.91999 0.60654 0.15035 0.0
H313 H 0.6811 0.61237 0.15314 0.0
H314 H 0.74493 0.61982 0.15676 0.0
C315 C 0.95538 0.60683 0.15017 0.0
C316 C 0.85318 0.57466 0.14281 0.0
H317 H 0.79259 0.61885 0.12781 0.0
C318 C 0.82988 0.54634 0.15169 0.0
C319 C 0.83892 0.60117 0.13418 0.0
C320 C 0.86099 0.63156 0.12338 0.0
C321 C 0.79393 0.54388 0.15229 0.0
C322 C 0.77953 0.57001 0.14338 0.0
C323 C 0.80288 0.5987 0.13479 0.0
C324 C 0.74021 0.56637 0.1416 0.0
C325 C 0.77181 0.5133 0.16295 0.0
C326 C 0.71536 0.53432 0.13168 0.0
C327 C 0.67909 0.53012 0.12967 0.0
C328 C 0.66544 0.55771 0.13735 0.0
C329 C 0.69009 0.59018 0.14721 0.0
C330 C 0.72687 0.59448 0.14918 0.0
H331 H 0.78812 0.5038 0.17489 0.0
H332 H 0.75152 0.52174 0.17069 0.0
H333 H 0.75851 0.48984 0.1511 0.0
H334 H 0.72403 0.51235 0.12507 0.0
H335 H 0.66144 0.50484 0.12172 0.0
H336 H 0.37066 0.85037 0.46822 0.0
H337 H 0.32329 0.79333 0.46707 0.0
H338 H 0.30773 0.82216 0.53037 0.0
H339 H 0.35542 0.87964 0.53167 0.0
H340 H 0.3146 0.73574 0.50159 0.0
H341 H 0.2114 0.80456 0.48647 0.0
H342 H 0.25471 0.82372 0.47913 0.0
H343 H 0.24845 0.82443 0.50625 0.0
C344 C 0.35722 0.84454 0.48192 0.0
C345 C 0.36644 0.86953 0.49997 0.0
C346 C 0.33039 0.8119 0.48129 0.0
C347 C 0.31213 0.80376 0.49861 0.0
C348 C 0.32169 0.82811 0.51688 0.0
H349 H 0.11105 0.63092 0.47744 0.0
H350 H 0.16024 0.67947 0.49675 0.0
C351 C 0.34887 0.86077 0.5176 0.0
C352 C 0.28186 0.77055 0.49679 0.0
H353 H 0.1938 0.74069 0.48135 0.0
C354 C 0.28804 0.73669 0.49757 0.0
C355 C 0.24736 0.77208 0.49175 0.0
C356 C 0.23973 0.80804 0.49079 0.0
C357 C 0.26059 0.70407 0.49249 0.0
C358 C 0.22641 0.70557 0.48587 0.0
C359 C 0.22 0.73952 0.48634 0.0
C360 C 0.19788 0.67293 0.47618 0.0
C361 C 0.26866 0.6684 0.49386 0.0
C362 C 0.20276 0.6529 0.45834 0.0
C363 C 0.17487 0.62505 0.44742 0.0
C364 C 0.1413 0.61695 0.45391 0.0
C365 C 0.13666 0.63627 0.47216 0.0
C366 C 0.16469 0.66412 0.48314 0.0
H367 H 0.29098 0.67121 0.50615 0.0
H368 H 0.24561 0.64654 0.49737 0.0
H369 H 0.27632 0.66001 0.47869 0.0
H370 H 0.22785 0.65972 0.45233 0.0
H371 H 0.17942 0.61039 0.43358 0.0
H372 H 0.48154 0.34436 0.84088 0.0
H373 H 0.48518 0.28224 0.84111 0.0
H374 H 0.58801 0.31671 0.82115 0.0
H375 H 0.58489 0.37917 0.82123 0.0
H376 H 0.49192 0.23645 0.80899 0.0
H377 H 0.6052 0.26148 0.87043 0.0
H378 H 0.58217 0.29465 0.86603 0.0
H379 H 0.61429 0.28972 0.84943 0.0
C380 C 0.50505 0.33887 0.83661 0.0
C381 C 0.53298 0.36694 0.83109 0.0
C382 C 0.50708 0.30325 0.83678 0.0
C383 C 0.53711 0.29479 0.83153 0.0
C384 C 0.56491 0.32265 0.82579 0.0
H385 H 0.5952 0.10154 0.8032 0.0
H386 H 0.59332 0.16331 0.81297 0.0
C387 C 0.56295 0.35836 0.82566 0.0
C388 C 0.53857 0.25655 0.83116 0.0
H389 H 0.5871 0.2034 0.85024 0.0
C390 C 0.51251 0.22917 0.8182 0.0
C391 C 0.56542 0.24697 0.84319 0.0
C392 C 0.59318 0.27467 0.85821 0.0
C393 C 0.5132 0.19284 0.81638 0.0
C394 C 0.54038 0.18337 0.82813 0.0
C395 C 0.56618 0.21061 0.84133 0.0
C396 C 0.54385 0.14594 0.82555 0.0
C397 C 0.48558 0.16517 0.80124 0.0
C398 C 0.51753 0.11554 0.83033 0.0
C399 C 0.51866 0.08007 0.82484 0.0
C400 C 0.54613 0.07453 0.81447 0.0
C401 C 0.57368 0.10504 0.81114 0.0
C402 C 0.5726 0.14035 0.81668 0.0
H403 H 0.47087 0.17825 0.79038 0.0
H404 H 0.49758 0.14791 0.79183 0.0
H405 H 0.46656 0.14712 0.81015 0.0
H406 H 0.49537 0.11922 0.8375 0.0
H407 H 0.49698 0.05708 0.82745 0.0
H408 H 0.5319 0.91094 0.51977 0.0
H409 H 0.53141 0.84774 0.52096 0.0
H410 H 0.63794 0.87594 0.50654 0.0
H411 H 0.63896 0.93969 0.50568 0.0
H412 H 0.54038 0.79956 0.49036 0.0
H413 H 0.64385 0.82179 0.55806 0.0
H414 H 0.62371 0.85635 0.55132 0.0
H415 H 0.65678 0.84791 0.53661 0.0
C416 C 0.55536 0.90389 0.5169 0.0
C417 C 0.58557 0.93063 0.51273 0.0
C418 C 0.55499 0.86761 0.51757 0.0
C419 C 0.58477 0.85704 0.51413 0.0
C420 C 0.61486 0.8835 0.50969 0.0
H421 H 0.6092 0.63695 0.52009 0.0
H422 H 0.61935 0.70075 0.51263 0.0
C423 C 0.61533 0.91995 0.50908 0.0
C424 C 0.58372 0.8182 0.51497 0.0
H425 H 0.61941 0.76159 0.54204 0.0
C426 C 0.55782 0.79133 0.50159 0.0
C427 C 0.60657 0.80734 0.52955 0.0
C428 C 0.63414 0.83475 0.54484 0.0
C429 C 0.55372 0.75405 0.50264 0.0
C430 C 0.57584 0.74318 0.51763 0.0
C431 C 0.60254 0.76998 0.53052 0.0
C432 C 0.56969 0.70426 0.52133 0.0
C433 C 0.5255 0.72652 0.4878 0.0
C434 C 0.53859 0.68519 0.52881 0.0
C435 C 0.53287 0.64905 0.53315 0.0
C436 C 0.55805 0.63107 0.53006 0.0
C437 C 0.58918 0.65 0.52245 0.0
C438 C 0.59505 0.68645 0.51825 0.0
H439 H 0.51763 0.73876 0.47373 0.0
H440 H 0.53435 0.70293 0.48267 0.0
H441 H 0.50199 0.71625 0.49592 0.0
H442 H 0.51893 0.69851 0.53167 0.0
H443 H 0.50877 0.63522 0.53915 0.0
H444 H 0.7474 0.58574 0.7921 0.0
H445 H 0.80662 0.61664 0.78466 0.0
H446 H 0.84358 0.53296 0.8113 0.0
H447 H 0.78431 0.50146 0.81828 0.0
H448 H 0.85445 0.64152 0.81926 0.0
H449 H 0.90526 0.55852 0.76472 0.0
H450 H 0.85888 0.55122 0.76553 0.0
H451 H 0.88348 0.53227 0.78405 0.0
C452 C 0.76781 0.57303 0.7955 0.0
C453 C 0.76136 0.54144 0.80605 0.0
C454 C 0.80166 0.59078 0.79127 0.0
C455 C 0.82949 0.57707 0.79735 0.0
C456 C 0.82245 0.54374 0.80611 0.0
H457 H 1.03424 0.63134 0.85229 0.0
H458 H 0.97749 0.60519 0.83124 0.0
C459 C 0.78864 0.526 0.81037 0.0
C460 C 0.86612 0.60092 0.79911 0.0
H461 H 0.94863 0.60065 0.79097 0.0
C462 C 0.87503 0.63323 0.81259 0.0
C463 C 0.89281 0.58984 0.79049 0.0
C464 C 0.88457 0.55622 0.77522 0.0
C465 C 0.91007 0.65308 0.81921 0.0
C466 C 0.937 0.64088 0.81155 0.0
C467 C 0.928 0.60998 0.79684 0.0
C468 C 0.97399 0.65649 0.82104 0.0
C469 C 0.91775 0.68506 0.83572 0.0
C470 C 0.99162 0.69385 0.82165 0.0
C471 C 1.02371 0.70916 0.83427 0.0
C472 C 1.03898 0.68715 0.84614 0.0
C473 C 1.02266 0.64927 0.84394 0.0
C474 C 0.99042 0.63416 0.83163 0.0
H475 H 0.89398 0.6863 0.84283 0.0
H476 H 0.93791 0.68367 0.84845 0.0
H477 H 0.92786 0.71076 0.8285 0.0
H478 H 0.9798 0.71144 0.81315 0.0
H479 H 1.03562 0.73838 0.83547 0.0
H480 H 0.22618 0.84501 0.16097 0.0
H481 H 0.2845 0.88924 0.16602 0.0
H482 H 0.33079 0.80277 0.17541 0.0
H483 H 0.27274 0.75807 0.16915 0.0
H484 H 0.33198 0.90615 0.19979 0.0
H485 H 0.38949 0.85571 0.13376 0.0
H486 H 0.34318 0.84015 0.13595 0.0
H487 H 0.37299 0.82115 0.15057 0.0
C488 C 0.24877 0.83524 0.1637 0.0
C489 C 0.24467 0.79786 0.16451 0.0
C490 C 0.2821 0.86063 0.16673 0.0
C491 C 0.31208 0.84928 0.17069 0.0
C492 C 0.30813 0.8121 0.17183 0.0
H493 H 0.52548 0.95962 0.22099 0.0
H494 H 0.46882 0.91537 0.20734 0.0
C495 C 0.2748 0.78662 0.16861 0.0
C496 C 0.34729 0.87658 0.17473 0.0
H497 H 0.42969 0.89894 0.15993 0.0
C498 C 0.35319 0.90478 0.1909 0.0
C499 C 0.37497 0.87484 0.16308 0.0
C500 C 0.36979 0.84655 0.14474 0.0
C501 C 0.38622 0.93066 0.19609 0.0
C502 C 0.414 0.92827 0.18484 0.0
C503 C 0.40818 0.90049 0.16851 0.0
C504 C 0.4496 0.95376 0.19059 0.0
C505 C 0.39157 0.95998 0.21391 0.0
C506 C 0.45766 0.98961 0.18514 0.0
C507 C 0.49001 0.01489 0.19285 0.0
C508 C 0.51455 0.00467 0.20624 0.0
C509 C 0.5069 0.96826 0.21084 0.0
C510 C 0.4747 0.94298 0.20302 0.0
H511 H 0.36804 0.95624 0.22223 0.0
H512 H 0.41422 0.9602 0.22533 0.0
H513 H 0.39767 0.98701 0.20773 0.0
H514 H 0.43846 0.99829 0.17556 0.0
H515 H 0.49511 0.04283 0.1892 0.0
H516 H 0.63111 0.17195 0.5356 0.0
H517 H 0.63099 0.23535 0.53569 0.0
H518 H 0.53893 0.20251 0.48997 0.0
H519 H 0.53838 0.13897 0.49007 0.0
H520 H 0.63599 0.28034 0.50386 0.0
H521 H 0.50871 0.26068 0.5353 0.0
H522 H 0.53135 0.22656 0.53556 0.0
H523 H 0.50645 0.23175 0.51186 0.0
C524 C 0.6107 0.17811 0.52562 0.0
C525 C 0.58454 0.15017 0.51298 0.0
C526 C 0.61075 0.21445 0.52564 0.0
C527 C 0.58464 0.22372 0.51308 0.0
C528 C 0.55889 0.19601 0.50016 0.0
H529 H 0.54238 0.43452 0.50871 0.0
H530 H 0.54463 0.37296 0.49764 0.0
C531 C 0.55872 0.15964 0.50017 0.0
C532 C 0.58448 0.26236 0.51358 0.0
H533 H 0.53609 0.31904 0.52552 0.0
C534 C 0.61409 0.28877 0.50854 0.0
C535 C 0.55585 0.27343 0.5196 0.0
C536 C 0.5239 0.24674 0.52607 0.0
C537 C 0.61596 0.32586 0.5095 0.0
C538 C 0.58763 0.33697 0.5159 0.0
C539 C 0.55768 0.31049 0.52044 0.0
C540 C 0.58964 0.37604 0.51992 0.0
C541 C 0.64826 0.35287 0.50367 0.0
C542 C 0.61461 0.39848 0.53575 0.0
C543 C 0.61331 0.43342 0.54203 0.0
C544 C 0.58706 0.44672 0.5326 0.0
C545 C 0.56322 0.42512 0.51597 0.0
C546 C 0.56433 0.38991 0.50978 0.0
H547 H 0.66226 0.3395 0.4932 0.0
H548 H 0.64154 0.37509 0.49577 0.0
H549 H 0.66649 0.36522 0.5181 0.0
H550 H 0.63392 0.38823 0.5441 0.0
H551 H 0.63173 0.44941 0.55506 0.0
H552 H 0.31725 0.53297 0.81071 0.0
H553 H 0.28865 0.57932 0.81892 0.0
H554 H 0.30134 0.56328 0.88441 0.0
H555 H 0.32938 0.51626 0.87629 0.0
H556 H 0.23381 0.57084 0.86828 0.0
H557 H 0.34773 0.68072 0.84955 0.0
H558 H 0.33016 0.64351 0.82934 0.0
H559 H 0.35012 0.63575 0.85406 0.0
C560 C 0.31327 0.53871 0.8268 0.0
C561 C 0.32573 0.52114 0.84289 0.0
C562 C 0.29727 0.56544 0.83148 0.0
C563 C 0.29353 0.57505 0.85229 0.0
C564 C 0.30431 0.55636 0.86827 0.0
H565 H 0.25145 0.77688 0.89405 0.0
H566 H 0.27648 0.72591 0.8913 0.0
C567 C 0.3204 0.52967 0.86362 0.0
C568 C 0.27967 0.60566 0.85742 0.0
H569 H 0.29661 0.69723 0.85531 0.0
C570 C 0.24755 0.59852 0.86558 0.0
C571 C 0.2981 0.64177 0.85422 0.0
C572 C 0.3336 0.65111 0.84649 0.0
C573 C 0.2327 0.62654 0.86994 0.0
C574 C 0.25036 0.66237 0.8658 0.0
C575 C 0.28306 0.66966 0.85833 0.0
C576 C 0.23469 0.69243 0.86822 0.0
C577 C 0.1983 0.61761 0.87895 0.0
C578 C 0.20338 0.69061 0.85588 0.0
C579 C 0.18924 0.71957 0.85736 0.0
C580 C 0.20611 0.75079 0.87133 0.0
C581 C 0.23778 0.75287 0.88339 0.0
C582 C 0.252 0.72386 0.88187 0.0
H583 H 0.19329 0.59193 0.8866 0.0
H584 H 0.19771 0.63997 0.89058 0.0
H585 H 0.17664 0.61402 0.86613 0.0
H586 H 0.19026 0.66709 0.84475 0.0
H587 H 0.16557 0.71773 0.8472 0.0
H588 H 0.89349 0.39977 0.1673 0.0
H589 H 0.84046 0.35712 0.17657 0.0
H590 H 0.86657 0.26773 0.1454 0.0
H591 H 0.92077 0.30996 0.13708 0.0
H592 H 0.78441 0.31135 0.15214 0.0
H593 H 0.84967 0.23209 0.20188 0.0
H594 H 0.87345 0.27468 0.1931 0.0
H595 H 0.86129 0.23328 0.17573 0.0
C596 C 0.88835 0.37098 0.16272 0.0
C597 C 0.91172 0.35831 0.15165 0.0
C598 C 0.8578 0.34666 0.16785 0.0
C599 C 0.84983 0.30917 0.16199 0.0
C600 C 0.87258 0.29645 0.15051 0.0
H601 H 0.66903 0.12855 0.18193 0.0
H602 H 0.71994 0.16687 0.16761 0.0
C603 C 0.90334 0.32073 0.14551 0.0
C604 C 0.81752 0.28362 0.16783 0.0
H605 H 0.78772 0.21027 0.19518 0.0
C606 C 0.78516 0.28924 0.16154 0.0
C607 C 0.81854 0.25479 0.18012 0.0
C608 C 0.8526 0.24847 0.18829 0.0
C609 C 0.75383 0.2669 0.16728 0.0
C610 C 0.75495 0.23829 0.17961 0.0
C611 C 0.7871 0.23218 0.1856 0.0
C612 C 0.72324 0.21561 0.18742 0.0
C613 C 0.71969 0.27398 0.16022 0.0
C614 C 0.70848 0.23046 0.20329 0.0
C615 C 0.6797 0.20866 0.2116 0.0
C616 C 0.6651 0.17175 0.20406 0.0
C617 C 0.67961 0.15699 0.18794 0.0
C618 C 0.70867 0.17877 0.17978 0.0
H619 H 0.72237 0.29269 0.14771 0.0
H620 H 0.69911 0.24802 0.15437 0.0
H621 H 0.71074 0.28656 0.17376 0.0
H622 H 0.71967 0.25877 0.20952 0.0
H623 H 0.66904 0.22058 0.22407 0.0
H624 H 1.02304 0.5987 0.07334 0.0
H625 H 1.02937 0.614 0.03746 0.0
H626 H 0.12965 0.59306 0.04224 0.0
H627 H 0.12183 0.57494 0.07749 0.0
H628 H 0.07188 0.66638 0.02463 0.0
H629 H 0.09351 0.5439 0.98598 0.0
H630 H 0.07971 0.54465 0.0117 0.0
H631 H 0.12546 0.56226 0.0084 0.0
C632 C 1.046 0.59657 0.06646 0.0
C633 C 0.07177 0.58532 0.07797 0.0
C634 C 0.04973 0.60546 0.04601 0.0
C635 C 0.07981 0.60428 0.03687 0.0
C636 C 0.10562 0.59299 0.04849 0.0
H637 H 0.13612 0.73823 0.93436 0.0
H638 H 0.1345 0.71383 0.96817 0.0
C639 C 0.10129 0.5829 0.06871 0.0
C640 C 0.08515 0.61753 0.01591 0.0
H641 H 0.10944 0.59788 0.96828 0.0
C642 C 0.0797 0.6511 0.01226 0.0
C643 C 0.09506 0.59763 -0.00043 0.0
C644 C 0.09837 0.55995 0.00154 0.0
C645 C 0.08363 0.6652 0.99287 0.0
C646 C 0.09549 0.64634 0.97693 0.0
C647 C 0.10096 0.61275 0.98055 0.0
C648 C 0.1006 0.66005 0.95608 0.0
C649 C 0.07361 0.69944 0.98955 0.0
C650 C 0.08462 0.6372 0.93772 0.0
C651 C 0.08701 0.65056 0.91815 0.0
C652 C 0.10471 0.68743 0.91646 0.0
C653 C 0.12219 0.70975 0.93484 0.0
C654 C 0.12068 0.69601 0.95435 0.0
H655 H 0.05469 0.70329 0.00028 0.0
H656 H 0.09737 0.72341 0.99293 0.0
H657 H 0.06165 0.69888 0.97321 0.0
H658 H 0.06946 0.60915 0.93851 0.0
H659 H 0.07434 0.63198 0.9044 0.0
H660 H 0.54815 0.00534 0.43806 0.0
H661 H 0.55186 0.01154 0.40087 0.0
H662 H 0.64924 0.09795 0.41616 0.0
H663 H 0.64598 0.09186 0.4535 0.0
H664 H 0.55544 0.07583 0.38067 0.0
H665 H 0.67077 0.02617 0.37213 0.0
H666 H 0.64588 0.01745 0.39406 0.0
H667 H 0.67631 0.0616 0.39297 0.0
C668 C 0.57052 0.02552 0.43357 0.0
C669 C 0.59682 0.04805 0.44877 0.0
C670 C 0.57254 0.02905 0.4123 0.0
C671 C 0.60096 0.05495 0.40581 0.0
C672 C 0.62736 0.07742 0.42088 0.0
H673 H 0.59982 0.12105 0.2786 0.0
H674 H 0.60753 0.12231 0.31685 0.0
C675 C 0.62535 0.07398 0.4422 0.0
C676 C 0.60216 0.05902 0.38324 0.0
H677 H 0.64681 0.04713 0.34228 0.0
C678 C 0.5755 0.06977 0.37227 0.0
C679 C 0.62827 0.05083 0.37239 0.0
C680 C 0.65685 0.03809 0.38338 0.0
C681 C 0.57404 0.07224 0.35063 0.0
C682 C 0.6002 0.06414 0.33977 0.0
C683 C 0.62702 0.05363 0.35075 0.0
C684 C 0.59876 0.06422 0.31678 0.0
C685 C 0.54393 0.08238 0.33942 0.0
C686 C 0.59244 0.03133 0.30417 0.0
C687 C 0.58822 0.03055 0.28238 0.0
C688 C 0.59044 0.06271 0.27282 0.0
C689 C 0.59812 0.09587 0.28551 0.0
C690 C 0.60225 0.0966 0.30733 0.0
H691 H 0.52253 0.08089 0.34931 0.0
H692 H 0.55353 0.1107 0.33522 0.0
H693 H 0.53298 0.06416 0.32472 0.0
H694 H 0.58983 0.00609 0.3112 0.0
H695 H 0.58284 0.00469 0.273 0.0
H696 H 0.58443 0.52258 0.77417 0.0
H697 H 0.58756 0.52929 0.73706 0.0
H698 H 0.49491 0.43704 0.72124 0.0
H699 H 0.49095 0.43064 0.7585 0.0
H700 H 0.59525 0.4833 0.70581 0.0
H701 H 0.46894 0.51323 0.68848 0.0
H702 H 0.48863 0.5132 0.71487 0.0
H703 H 0.46464 0.47094 0.69957 0.0
C704 C 0.56463 0.50365 0.76285 0.0
C705 C 0.53725 0.47619 0.76934 0.0
C706 C 0.56649 0.50757 0.74161 0.0
C707 C 0.54109 0.48414 0.72639 0.0
C708 C 0.51426 0.45604 0.73274 0.0
H709 H 0.52283 0.45449 0.59133 0.0
H710 H 0.51582 0.44997 0.62845 0.0
C711 C 0.51221 0.45222 0.75405 0.0
C712 C 0.54328 0.48895 0.70389 0.0
H713 H 0.49837 0.50407 0.65929 0.0
C714 C 0.57414 0.48803 0.69568 0.0
C715 C 0.51574 0.4953 0.69071 0.0
C716 C 0.48275 0.4986 0.69887 0.0
C717 C 0.57799 0.49271 0.67458 0.0
C718 C 0.55034 0.49861 0.66141 0.0
C719 C 0.51948 0.49955 0.66953 0.0
C720 C 0.5528 0.50284 0.63897 0.0
C721 C 0.61134 0.49073 0.66636 0.0
C722 C 0.57533 0.53446 0.63267 0.0
C723 C 0.57929 0.53719 0.61148 0.0
C724 C 0.56093 0.50819 0.59635 0.0
C725 C 0.53757 0.47706 0.60271 0.0
C726 C 0.53344 0.47449 0.62384 0.0
H727 H 0.62806 0.48072 0.67778 0.0
H728 H 0.6052 0.47249 0.65151 0.0
H729 H 0.62657 0.51828 0.66296 0.0
H730 H 0.59031 0.55669 0.64419 0.0
H731 H 0.59757 0.56138 0.60701 0.0
H732 H 0.62895 0.03123 0.58499 0.0
H733 H 0.62139 0.02169 0.62153 0.0
H734 H 0.51193 0.01376 0.60872 0.0
H735 H 0.5191 0.02325 0.57208 0.0
H736 H 0.59553 0.06595 0.65021 0.0
H737 H 0.51398 0.92073 0.63821 0.0
H738 H 0.54041 0.94239 0.61889 0.0
H739 H 0.49947 0.95091 0.62193 0.0
C740 C 0.60321 0.02735 0.58988 0.0
C741 C 0.57461 0.028 0.5756 0.0
C742 C 0.59897 0.0219 0.61077 0.0
C743 C 0.56604 0.01658 0.6177 0.0
C744 C 0.53744 0.01728 0.60355 0.0
H745 H 0.50986 0.03627 0.74224 0.0
H746 H 0.51643 0.03822 0.70504 0.0
C747 C 0.54168 0.02297 0.58267 0.0
C748 C 0.56194 0.01166 0.63994 0.0
H749 H 0.5212 0.95097 0.67244 0.0
C750 C 0.5794 0.04079 0.6551 0.0
C751 C 0.54112 0.97866 0.6462 0.0
C752 C 0.52283 0.9462 0.63052 0.0
C753 C 0.57595 0.03807 0.6764 0.0
C754 C 0.55439 0.00544 0.68261 0.0
C755 C 0.53754 0.97599 0.66753 0.0
C756 C 0.5486 1.00199 0.70473 0.0
C757 C 0.59532 0.07009 0.69216 0.0
C758 C 0.56383 0.98021 0.71667 0.0
C759 C 0.56042 0.97927 0.73803 0.0
C760 C 0.54158 1.00002 0.7477 0.0
C761 C 0.52518 0.02061 0.73538 0.0
C762 C 0.52874 0.02163 0.71412 0.0
H763 H 0.61583 0.09055 0.68537 0.0
H764 H 0.57643 0.0836 0.69768 0.0
H765 H 0.6078 0.06084 0.706 0.0
H766 H 0.57921 0.96482 0.7096 0.0
H767 H 0.57351 0.96333 0.7471 0.0
H768 H 0.46678 0.497 0.89317 0.0
H769 H 0.46366 0.50876 0.93061 0.0
H770 H 0.56389 0.49044 0.94517 0.0
H771 H 0.56712 0.47821 0.90792 0.0
H772 H 0.51329 0.45565 0.97004 0.0
H773 H 0.52243 0.60199 0.96753 0.0
H774 H 0.48782 0.57058 0.94975 0.0
H775 H 0.53271 0.57547 0.9463 0.0
C776 C 0.48812 0.49535 0.90433 0.0
C777 C 0.5173 0.48685 0.89753 0.0
C778 C 0.48636 0.50228 0.92571 0.0
C779 C 0.51378 0.50098 0.9406 0.0
C780 C 0.54251 0.49171 0.93389 0.0
H781 H 0.57589 0.59037 0.06893 0.0
H782 H 0.56895 0.5752 0.03098 0.0
C783 C 0.54432 0.48478 0.91257 0.0
C784 C 0.5129 0.50943 0.96325 0.0
H785 H 0.51525 0.57823 0.00014 0.0
C786 C 0.5135 0.48237 0.97664 0.0
C787 C 0.51359 0.54445 0.97177 0.0
C788 C 0.5144 0.57497 0.95817 0.0
C789 C 0.51504 0.48946 -0.0016 0.0
C790 C 0.51548 0.52441 0.00691 0.0
C791 C 0.51462 0.5514 0.99351 0.0
C792 C 0.51876 0.53406 0.02979 0.0
C793 C 0.51736 0.4599 0.01216 0.0
C794 C 0.49258 0.5163 0.04161 0.0
C795 C 0.49659 0.52473 0.06332 0.0
C796 C 0.52682 0.55117 0.07355 0.0
C797 C 0.55259 0.56947 0.06155 0.0
C798 C 0.54855 0.56104 0.03987 0.0
H799 H 0.52435 0.43752 0.00361 0.0
H800 H 0.53713 0.47115 0.02611 0.0
H801 H 0.49156 0.44812 0.01772 0.0
H802 H 0.46915 0.49578 0.03406 0.0
H803 H 0.47636 0.51006 0.07215 0.0
H804 H 1.0465 0.51502 0.20424 0.0
H805 H 1.04593 0.51343 0.24207 0.0
H806 H 0.10752 0.62649 0.25225 0.0
H807 H 0.10848 0.62845 0.21443 0.0
H808 H 0.11015 0.53573 0.27497 0.0
H809 H 1.01548 0.61508 0.28253 0.0
H810 H 1.01825 0.59108 0.258 0.0
H811 H 0.05132 0.63296 0.26774 0.0
C812 C 0.05999 0.53958 0.21449 0.0
C813 C 0.07747 0.57191 0.2063 0.0
C814 C 0.05964 0.53856 0.23609 0.0
C815 C 0.07639 0.56991 0.24984 0.0
C816 C 0.09417 0.60212 0.2418 0.0
H817 H 0.09328 0.62453 0.38346 0.0
H818 H 0.09286 0.6244 0.34557 0.0
C819 C 0.0948 0.60312 0.22021 0.0
C820 C 0.07541 0.56886 0.27265 0.0
H821 H 1.04035 0.59906 0.31375 0.0
C822 C 0.09484 0.54944 0.28351 0.0
C823 C 0.0555 0.58694 0.28361 0.0
C824 C 1.03371 0.60757 0.27245 0.0
C825 C 0.09545 0.54818 0.30524 0.0
C826 C 0.07524 0.56599 0.31625 0.0
C827 C 0.05571 0.58533 0.3053 0.0
C828 C 0.07467 0.56567 0.33921 0.0
C829 C 0.11856 0.52872 0.31627 0.0
C830 C 0.0639 0.5327 0.34823 0.0
C831 C 0.06464 0.53265 0.36995 0.0
C832 C 0.07574 0.56562 0.38307 0.0
C833 C 0.08531 0.59862 0.37388 0.0
C834 C 0.08481 0.59862 0.3522 0.0
H835 H 0.13937 0.52561 0.30681 0.0
H836 H 0.1312 0.54353 0.33174 0.0
H837 H 0.10236 0.50105 0.31884 0.0
H838 H 0.05514 0.50697 0.33847 0.0
H839 H 0.05726 0.50675 0.37647 0.0
loop_
_geom_bond_atom_site_label_1
_geom_bond_atom_site_label_2
_geom_bond_distance
_geom_bond_site_symmetry_2
_ccdc_geom_bond_type
Dy0 O3 2.327 . S
Dy0 O5 2.395 . S
Dy0 O6 2.379 . S
Dy0 O8 2.339 . S
Dy0 O10 2.298 . S
Dy0 O14 2.275 . S
Dy0 C22 2.738 . S
Dy1 O4 2.298 1_455 S
Dy1 O7 2.275 . S
Dy1 O9 2.307 . S
Dy1 O11 2.395 1_455 S
Dy1 O12 2.379 1_455 S
Dy1 O15 2.339 . S
Dy1 C31 2.738 1_455 S
C2 O14 1.254 . S
C2 O15 1.257 . S
O3 Dy0 2.327 . S
O3 C13 1.255 1_455 S
O4 Dy1 2.298 1_655 S
O4 C13 1.236 . S
O5 Dy0 2.395 . S
O5 C22 1.255 . S
O6 Dy0 2.379 . S
O6 C22 1.249 . S
O7 Dy1 2.275 . S
O7 C23 1.254 . S
O8 Dy0 2.339 . S
O8 C23 1.257 . S
O9 Dy1 2.307 . S
O9 C24 1.266 . S
O10 Dy0 2.298 . S
O10 C24 1.236 . S
O11 Dy1 2.395 1_655 S
O11 C31 1.255 . S
O12 Dy1 2.379 1_655 S
O12 C31 1.249 . S
C13 O3 1.255 1_655 S
C13 O4 1.236 . S
O14 Dy0 2.275 . S
O14 C2 1.254 . S
O15 Dy1 2.339 . S
O15 C2 1.257 . S
C16 C19 1.344 . S
C16 C20 1.328 . S
C16 C22 1.516 . S
C17 C18 1.304 . S
C17 C21 1.323 . S
C18 C17 1.304 . S
C18 C19 1.371 . S
C18 H32 0.930 . S
C19 C16 1.344 . S
C19 C18 1.371 . S
C19 H33 0.931 . S
C20 C16 1.328 . S
C20 C21 1.433 . S
C20 H34 0.931 . S
C21 C17 1.323 . S
C21 C20 1.433 . S
C21 H35 0.933 . S
C22 Dy0 2.738 . S
C22 O5 1.255 . S
C22 O6 1.249 . S
C22 C16 1.516 . S
C23 O7 1.254 . S
C23 O8 1.257 . S
C24 O9 1.266 . S
C24 O10 1.236 . S
C25 C28 1.344 . S
C25 C29 1.328 . S
C25 C31 1.516 . S
C26 C27 1.304 . S
C26 C30 1.323 . S
C27 C26 1.304 . S
C27 C28 1.371 . S
C27 H36 0.930 . S
C28 C25 1.344 . S
C28 C27 1.371 . S
C28 H37 0.931 . S
C29 C25 1.328 . S
C29 C30 1.433 . S
C29 H38 0.931 . S
C30 C26 1.323 . S
C30 C29 1.433 . S
C30 H39 0.933 . S
C31 Dy1 2.738 1_655 S
C31 O11 1.255 . S
C31 O12 1.249 . S
C31 C25 1.516 . S
H32 C18 0.930 . S
H33 C19 0.931 . S
H34 C20 0.931 . S
H35 C21 0.933 . S
H36 C27 0.930 . S
H37 C28 0.931 . S
H38 C29 0.931 . S
H39 C30 0.933 . S
Dy40 O43 2.307 . S
Dy40 O45 2.395 1_545 S
Dy40 O46 2.379 1_545 S
Dy40 O48 2.339 . S
Dy40 O50 2.298 1_545 S
Dy40 O54 2.275 . S
Dy40 C62 2.738 1_545 S
Dy41 O44 2.298 . S
Dy41 O47 2.275 . S
Dy41 O49 2.307 . S
Dy41 O51 2.395 . S
Dy41 O52 2.379 . S
Dy41 O55 2.339 . S
Dy41 C71 2.738 . S
C42 O54 1.254 . S
C42 O55 1.257 . S
O43 Dy40 2.307 . S
O43 C53 1.266 . S
O44 Dy41 2.298 . S
O44 C53 1.236 . S
O45 Dy40 2.395 1_565 S
O45 C62 1.255 . S
O46 Dy40 2.379 1_565 S
O46 C62 1.249 . S
O47 Dy41 2.275 . S
O47 C63 1.254 . S
O48 Dy40 2.339 . S
O48 C63 1.257 . S
O49 Dy41 2.307 . S
O49 C64 1.266 1_545 S
O50 Dy40 2.298 1_565 S
O50 C64 1.236 . S
O51 Dy41 2.395 . S
O51 C71 1.255 . S
O52 Dy41 2.379 . S
O52 C71 1.249 . S
C53 O43 1.266 . S
C53 O44 1.236 . S
O54 Dy40 2.275 . S
O54 C42 1.254 . S
O55 Dy41 2.339 . S
O55 C42 1.257 . S
C56 C59 1.344 . S
C56 C60 1.328 . S
C56 C62 1.516 . S
C57 C58 1.304 . S
C57 C61 1.323 . S
C58 C57 1.304 . S
C58 C59 1.371 . S
C58 H72 0.930 . S
C59 C56 1.344 . S
C59 C58 1.371 . S
C59 H73 0.931 . S
C60 C56 1.328 . S
C60 C61 1.433 . S
C60 H74 0.931 . S
C61 C57 1.323 . S
C61 C60 1.433 . S
C61 H75 0.933 . S
C62 Dy40 2.738 1_565 S
C62 O45 1.255 . S
C62 O46 1.249 . S
C62 C56 1.516 . S
C63 O47 1.254 . S
C63 O48 1.257 . S
C64 O49 1.266 1_565 S
C64 O50 1.236 . S
C65 C68 1.344 . S
C65 C69 1.328 . S
C65 C71 1.516 . S
C66 C67 1.304 . S
C66 C70 1.323 . S
C67 C66 1.304 . S
C67 C68 1.371 . S
C67 H76 0.930 . S
C68 C65 1.344 . S
C68 C67 1.371 . S
C68 H77 0.931 . S
C69 C65 1.328 . S
C69 C70 1.433 . S
C69 H78 0.931 . S
C70 C66 1.323 . S
C70 C69 1.433 . S
C70 H79 0.933 . S
C71 Dy41 2.738 . S
C71 O51 1.255 . S
C71 O52 1.249 . S
C71 C65 1.516 . S
H72 C58 0.930 . S
H73 C59 0.931 . S
H74 C60 0.931 . S
H75 C61 0.933 . S
H76 C67 0.930 . S
H77 C68 0.931 . S
H78 C69 0.931 . S
H79 C70 0.933 . S
Dy80 O83 2.307 . S
Dy80 O85 2.395 . S
Dy80 O86 2.379 . S
Dy80 O88 2.339 . S
Dy80 O90 2.298 . S
Dy80 O94 2.275 . S
Dy80 C102 2.738 . S
Dy81 O84 2.298 . S
Dy81 O87 2.275 . S
Dy81 O89 2.307 . S
Dy81 O91 2.395 . S
Dy81 O92 2.379 . S
Dy81 O95 2.339 . S
Dy81 C111 2.738 . S
C82 O94 1.254 . S
C82 O95 1.257 . S
O83 Dy80 2.307 . S
O83 C93 1.266 . S
O84 Dy81 2.298 . S
O84 C93 1.236 . S
O85 Dy80 2.395 . S
O85 C102 1.255 . S
O86 Dy80 2.379 . S
O86 C102 1.249 . S
O87 Dy81 2.275 . S
O87 C103 1.254 . S
O88 Dy80 2.339 . S
O88 C103 1.257 . S
O89 Dy81 2.307 . S
O89 C104 1.266 . S
O90 Dy80 2.298 . S
O90 C104 1.236 . S
O91 Dy81 2.395 . S
O91 C111 1.255 . S
O92 Dy81 2.379 . S
O92 C111 1.249 . S
C93 O83 1.266 . S
C93 O84 1.236 . S
O94 Dy80 2.275 . S
O94 C82 1.254 . S
O95 Dy81 2.339 . S
O95 C82 1.257 . S
C96 C99 1.344 . S
C96 C100 1.328 . S
C96 C102 1.516 . S
C97 C98 1.304 . S
C97 C101 1.323 . S
C98 C97 1.304 . S
C98 C99 1.371 . S
C98 H112 0.930 . S
C99 C96 1.344 . S
C99 C98 1.371 . S
C99 H113 0.931 . S
C100 C96 1.328 . S
C100 C101 1.433 . S
C100 H114 0.931 . S
C101 C97 1.323 . S
C101 C100 1.433 . S
C101 H115 0.933 . S
C102 Dy80 2.738 . S
C102 O85 1.255 . S
C102 O86 1.249 . S
C102 C96 1.516 . S
C103 O87 1.254 . S
C103 O88 1.257 . S
C104 O89 1.266 . S
C104 O90 1.236 . S
C105 C108 1.344 . S
C105 C109 1.328 . S
C105 C111 1.516 . S
C106 C107 1.304 . S
C106 C110 1.323 . S
C107 C106 1.304 . S
C107 C108 1.371 . S
C107 H116 0.930 . S
C108 C105 1.344 . S
C108 C107 1.371 . S
C108 H117 0.931 . S
C109 C105 1.328 . S
C109 C110 1.433 . S
C109 H118 0.931 . S
C110 C106 1.323 . S
C110 C109 1.433 . S
C110 H119 0.933 . S
C111 Dy81 2.738 . S
C111 O91 1.255 . S
C111 O92 1.249 . S
C111 C105 1.516 . S
H112 C98 0.930 . S
H113 C99 0.931 . S
H114 C100 0.931 . S
H115 C101 0.933 . S
H116 C107 0.930 . S
H117 C108 0.931 . S
H118 C109 0.931 . S
H119 C110 0.933 . S
H120 C125 0.930 . S
H121 C128 0.930 . S
H122 C130 0.930 . S
H123 C124 1.016 . S
C124 H123 1.016 . S
C124 N131 1.286 . S
C125 H120 0.930 . S
C125 C126 1.397 . S
C125 C127 1.361 . S
C126 C125 1.397 . S
C126 C130 1.390 . S
C127 C125 1.361 . S
C127 C128 1.393 . S
C127 N131 1.413 . S
C128 H121 0.930 . S
C128 C127 1.393 . S
C128 C129 1.399 . S
C129 C128 1.399 . S
C129 C130 1.381 . S
C130 H122 0.930 . S
C130 C126 1.390 . S
C130 C129 1.381 . S
N131 C124 1.286 . S
N131 C127 1.413 . S
H132 C137 0.930 . S
H133 C140 0.930 . S
H134 C142 0.930 . S
H135 C136 1.016 . S
C136 H135 1.016 . S
C136 N143 1.286 . S
C137 H132 0.930 . S
C137 C138 1.397 . S
C137 C139 1.361 . S
C138 C137 1.397 . S
C138 C142 1.390 . S
C139 C137 1.361 . S
C139 C140 1.393 . S
C139 N143 1.413 . S
C140 H133 0.930 . S
C140 C139 1.393 . S
C140 C141 1.399 . S
C141 C140 1.399 . S
C141 C142 1.381 . S
C142 H134 0.930 . S
C142 C138 1.390 . S
C142 C141 1.381 . S
N143 C136 1.286 . S
N143 C139 1.413 . S
H144 C149 0.930 . S
H145 C152 0.930 . S
H146 C154 0.930 . S
H147 C148 1.016 . S
C148 H147 1.016 . S
C148 N155 1.286 . S
C149 H144 0.930 . S
C149 C150 1.397 1_455 S
C149 C151 1.361 . S
C150 C149 1.397 1_655 S
C150 C154 1.390 . S
C151 C149 1.361 . S
C151 C152 1.393 . S
C151 N155 1.413 . S
C152 H145 0.930 . S
C152 C151 1.393 . S
C152 C153 1.399 . S
C153 C152 1.399 . S
C153 C154 1.381 1_455 S
C154 H146 0.930 . S
C154 C150 1.390 . S
C154 C153 1.381 1_655 S
N155 C148 1.286 . S
N155 C151 1.413 . S
H156 C161 0.930 . S
H157 C164 0.930 . S
H158 C166 0.930 . S
H159 C160 1.016 . S
C160 H159 1.016 . S
C160 N167 1.286 . S
C161 H156 0.930 . S
C161 C162 1.397 . S
C161 C163 1.361 . S
C162 C161 1.397 . S
C162 C166 1.390 . S
C163 C161 1.361 . S
C163 C164 1.393 1_455 S
C163 N167 1.413 1_455 S
C164 H157 0.930 . S
C164 C163 1.393 1_655 S
C164 C165 1.399 1_655 S
C165 C164 1.399 1_455 S
C165 C166 1.381 . S
C166 H158 0.930 . S
C166 C162 1.390 . S
C166 C165 1.381 . S
N167 C160 1.286 . S
N167 C163 1.413 1_655 S
H168 C173 0.930 . S
H169 C176 0.930 . S
H170 C178 0.930 . S
H171 C172 1.016 . S
C172 H171 1.016 . S
C172 N179 1.286 . S
C173 H168 0.930 . S
C173 C174 1.397 . S
C173 C175 1.361 1_545 S
C174 C173 1.397 . S
C174 C178 1.390 . S
C175 C173 1.361 1_565 S
C175 C176 1.393 . S
C175 N179 1.413 . S
C176 H169 0.930 . S
C176 C175 1.393 . S
C176 C177 1.399 1_565 S
C177 C176 1.399 1_545 S
C177 C178 1.381 . S
C178 H170 0.930 . S
C178 C174 1.390 . S
C178 C177 1.381 . S
N179 C172 1.286 . S
N179 C175 1.413 . S
H180 C185 0.930 . S
H181 C188 0.930 . S
H182 C190 0.930 . S
H183 C184 1.016 . S
C184 H183 1.016 . S
C184 N191 1.286 . S
C185 H180 0.930 . S
C185 C186 1.397 . S
C185 C187 1.361 . S
C186 C185 1.397 . S
C186 C190 1.390 . S
C187 C185 1.361 . S
C187 C188 1.393 . S
C187 N191 1.413 . S
C188 H181 0.930 . S
C188 C187 1.393 . S
C188 C189 1.399 . S
C189 C188 1.399 . S
C189 C190 1.381 . S
C190 H182 0.930 . S
C190 C186 1.390 . S
C190 C189 1.381 . S
N191 C184 1.286 . S
N191 C187 1.413 . S
H192 C200 0.929 . S
H193 C202 0.930 . S
H194 C204 0.930 . S
H195 C207 0.929 . S
H196 C210 0.930 . S
H197 C212 0.960 . S
H198 C212 0.960 . S
H199 C212 0.960 . S
C200 H192 0.929 . S
C200 C201 1.377 . S
C200 C202 1.384 . S
C201 C200 1.377 . S
C201 C207 1.390 . S
C202 H193 0.930 . S
C202 C200 1.384 . S
C202 C203 1.372 . S
C203 C202 1.372 . S
C203 C204 1.400 . S
C203 C208 1.490 . S
C204 H194 0.930 . S
C204 C203 1.400 . S
C204 C207 1.386 . S
H205 C221 0.930 . S
H206 C222 0.931 . S
C207 H195 0.929 . S
C207 C201 1.390 . S
C207 C204 1.386 . S
C208 C203 1.490 . S
C208 C210 1.395 . S
C208 C211 1.403 . S
H209 C215 0.930 . S
C210 H196 0.930 . S
C210 C208 1.395 . S
C210 C213 1.403 . S
C211 C208 1.403 . S
C211 C212 1.524 . S
C211 C215 1.400 . S
C212 H197 0.960 . S
C212 H198 0.960 . S
C212 H199 0.960 . S
C212 C211 1.524 . S
C213 C210 1.403 . S
C213 C214 1.392 . S
C213 C217 1.495 . S
C214 C213 1.392 . S
C214 C215 1.385 . S
C214 C216 1.478 . S
C215 H209 0.930 . S
C215 C211 1.400 . S
C215 C214 1.385 . S
C216 C214 1.478 . S
C216 C218 1.381 . S
C216 C222 1.383 . S
C217 C213 1.495 . S
C217 H223 0.959 . S
C217 H224 0.961 . S
C217 H225 0.960 . S
C218 C216 1.381 . S
C218 C219 1.394 . S
C218 H226 0.930 . S
C219 C218 1.394 . S
C219 C220 1.383 . S
C219 H227 0.929 . S
C220 C219 1.383 . S
C220 C221 1.377 . S
C221 H205 0.930 . S
C221 C220 1.377 . S
C221 C222 1.379 . S
C222 H206 0.931 . S
C222 C216 1.383 . S
C222 C221 1.379 . S
H223 C217 0.959 . S
H224 C217 0.961 . S
H225 C217 0.960 . S
H226 C218 0.930 . S
H227 C219 0.929 . S
H228 C236 0.929 . S
H229 C238 0.930 . S
H230 C240 0.930 . S
H231 C243 0.929 . S
H232 C246 0.930 . S
H233 C248 0.960 . S
H234 C248 0.960 . S
H235 C248 0.960 . S
C236 H228 0.929 . S
C236 C237 1.377 . S
C236 C238 1.384 . S
C237 C236 1.377 . S
C237 C243 1.390 . S
C238 H229 0.930 . S
C238 C236 1.384 . S
C238 C239 1.372 . S
C239 C238 1.372 . S
C239 C240 1.400 . S
C239 C244 1.490 . S
C240 H230 0.930 . S
C240 C239 1.400 . S
C240 C243 1.386 . S
H241 C257 0.930 . S
H242 C258 0.931 . S
C243 H231 0.929 . S
C243 C237 1.390 . S
C243 C240 1.386 . S
C244 C239 1.490 . S
C244 C246 1.395 . S
C244 C247 1.403 . S
H245 C251 0.930 . S
C246 H232 0.930 . S
C246 C244 1.395 . S
C246 C249 1.403 . S
C247 C244 1.403 . S
C247 C248 1.524 . S
C247 C251 1.400 . S
C248 H233 0.960 . S
C248 H234 0.960 . S
C248 H235 0.960 . S
C248 C247 1.524 . S
C249 C246 1.403 . S
C249 C250 1.392 . S
C249 C253 1.495 . S
C250 C249 1.392 . S
C250 C251 1.385 . S
C250 C252 1.478 . S
C251 H245 0.930 . S
C251 C247 1.400 . S
C251 C250 1.385 . S
C252 C250 1.478 . S
C252 C254 1.381 . S
C252 C258 1.383 . S
C253 C249 1.495 . S
C253 H259 0.959 . S
C253 H260 0.961 . S
C253 H261 0.960 . S
C254 C252 1.381 . S
C254 C255 1.394 . S
C254 H262 0.930 . S
C255 C254 1.394 . S
C255 C256 1.383 . S
C255 H263 0.929 . S
C256 C255 1.383 . S
C256 C257 1.377 . S
C257 H241 0.930 . S
C257 C256 1.377 . S
C257 C258 1.379 . S
C258 H242 0.931 . S
C258 C252 1.383 . S
C258 C257 1.379 . S
H259 C253 0.959 . S
H260 C253 0.961 . S
H261 C253 0.960 . S
H262 C254 0.930 . S
H263 C255 0.929 . S
H264 C272 0.929 . S
H265 C274 0.930 . S
H266 C276 0.930 . S
H267 C279 0.929 . S
H268 C282 0.930 . S
H269 C284 0.960 . S
H270 C284 0.960 . S
H271 C284 0.960 . S
C272 H264 0.929 . S
C272 C273 1.377 . S
C272 C274 1.384 . S
C273 C272 1.377 . S
C273 C279 1.390 . S
C274 H265 0.930 . S
C274 C272 1.384 . S
C274 C275 1.372 . S
C275 C274 1.372 . S
C275 C276 1.400 . S
C275 C280 1.490 . S
C276 H266 0.930 . S
C276 C275 1.400 . S
C276 C279 1.386 . S
H277 C293 0.930 . S
H278 C294 0.931 . S
C279 H267 0.929 . S
C279 C273 1.390 . S
C279 C276 1.386 . S
C280 C275 1.490 . S
C280 C282 1.395 . S
C280 C283 1.403 . S
H281 C287 0.930 . S
C282 H268 0.930 . S
C282 C280 1.395 . S
C282 C285 1.403 . S
C283 C280 1.403 . S
C283 C284 1.524 . S
C283 C287 1.400 . S
C284 H269 0.960 . S
C284 H270 0.960 . S
C284 H271 0.960 . S
C284 C283 1.524 . S
C285 C282 1.403 . S
C285 C286 1.392 . S
C285 C289 1.495 . S
C286 C285 1.392 . S
C286 C287 1.385 . S
C286 C288 1.478 . S
C287 H281 0.930 . S
C287 C283 1.400 . S
C287 C286 1.385 . S
C288 C286 1.478 . S
C288 C290 1.381 . S
C288 C294 1.383 . S
C289 C285 1.495 . S
C289 H295 0.959 . S
C289 H296 0.961 . S
C289 H297 0.960 . S
C290 C288 1.381 . S
C290 C291 1.394 . S
C290 H298 0.930 . S
C291 C290 1.394 . S
C291 C292 1.383 . S
C291 H299 0.929 . S
C292 C291 1.383 . S
C292 C293 1.377 . S
C293 H277 0.930 . S
C293 C292 1.377 . S
C293 C294 1.379 . S
C294 H278 0.931 . S
C294 C288 1.383 . S
C294 C293 1.379 . S
H295 C289 0.959 . S
H296 C289 0.961 . S
H297 C289 0.960 . S
H298 C290 0.930 . S
H299 C291 0.929 . S
H300 C308 0.929 . S
H301 C310 0.930 . S
H302 C312 0.930 . S
H303 C315 0.929 . S
H304 C318 0.930 . S
H305 C320 0.960 . S
H306 C320 0.960 . S
H307 C320 0.960 . S
C308 H300 0.929 . S
C308 C309 1.377 . S
C308 C310 1.384 . S
C309 C308 1.377 . S
C309 C315 1.390 . S
C310 H301 0.930 . S
C310 C308 1.384 . S
C310 C311 1.372 . S
C311 C310 1.372 . S
C311 C312 1.400 . S
C311 C316 1.490 . S
C312 H302 0.930 . S
C312 C311 1.400 . S
C312 C315 1.386 . S
H313 C329 0.930 . S
H314 C330 0.931 . S
C315 H303 0.929 . S
C315 C309 1.390 . S
C315 C312 1.386 . S
C316 C311 1.490 . S
C316 C318 1.395 . S
C316 C319 1.403 . S
H317 C323 0.930 . S
C318 H304 0.930 . S
C318 C316 1.395 . S
C318 C321 1.403 . S
C319 C316 1.403 . S
C319 C320 1.524 . S
C319 C323 1.400 . S
C320 H305 0.960 . S
C320 H306 0.960 . S
C320 H307 0.960 . S
C320 C319 1.524 . S
C321 C318 1.403 . S
C321 C322 1.392 . S
C321 C325 1.495 . S
C322 C321 1.392 . S
C322 C323 1.385 . S
C322 C324 1.478 . S
C323 H317 0.930 . S
C323 C319 1.400 . S
C323 C322 1.385 . S
C324 C322 1.478 . S
C324 C326 1.381 . S
C324 C330 1.383 . S
C325 C321 1.495 . S
C325 H331 0.959 . S
C325 H332 0.961 . S
C325 H333 0.960 . S
C326 C324 1.381 . S
C326 C327 1.394 . S
C326 H334 0.930 . S
C327 C326 1.394 . S
C327 C328 1.383 . S
C327 H335 0.929 . S
C328 C327 1.383 . S
C328 C329 1.377 . S
C329 H313 0.930 . S
C329 C328 1.377 . S
C329 C330 1.379 . S
C330 H314 0.931 . S
C330 C324 1.383 . S
C330 C329 1.379 . S
H331 C325 0.959 . S
H332 C325 0.961 . S
H333 C325 0.960 . S
H334 C326 0.930 . S
H335 C327 0.929 . S
H336 C344 0.929 . S
H337 C346 0.930 . S
H338 C348 0.930 . S
H339 C351 0.929 . S
H340 C354 0.930 . S
H341 C356 0.960 . S
H342 C356 0.960 . S
H343 C356 0.960 . S
C344 H336 0.929 . S
C344 C345 1.377 . S
C344 C346 1.384 . S
C345 C344 1.377 . S
C345 C351 1.390 . S
C346 H337 0.930 . S
C346 C344 1.384 . S
C346 C347 1.372 . S
C347 C346 1.372 . S
C347 C348 1.400 . S
C347 C352 1.490 . S
C348 H338 0.930 . S
C348 C347 1.400 . S
C348 C351 1.386 . S
H349 C365 0.930 . S
H350 C366 0.931 . S
C351 H339 0.929 . S
C351 C345 1.390 . S
C351 C348 1.386 . S
C352 C347 1.490 . S
C352 C354 1.395 . S
C352 C355 1.403 . S
H353 C359 0.930 . S
C354 H340 0.930 . S
C354 C352 1.395 . S
C354 C357 1.403 . S
C355 C352 1.403 . S
C355 C356 1.524 . S
C355 C359 1.400 . S
C356 H341 0.960 . S
C356 H342 0.960 . S
C356 H343 0.960 . S
C356 C355 1.524 . S
C357 C354 1.403 . S
C357 C358 1.392 . S
C357 C361 1.495 . S
C358 C357 1.392 . S
C358 C359 1.385 . S
C358 C360 1.478 . S
C359 H353 0.930 . S
C359 C355 1.400 . S
C359 C358 1.385 . S
C360 C358 1.478 . S
C360 C362 1.381 . S
C360 C366 1.383 . S
C361 C357 1.495 . S
C361 H367 0.959 . S
C361 H368 0.961 . S
C361 H369 0.960 . S
C362 C360 1.381 . S
C362 C363 1.394 . S
C362 H370 0.930 . S
C363 C362 1.394 . S
C363 C364 1.383 . S
C363 H371 0.929 . S
C364 C363 1.383 . S
C364 C365 1.377 . S
C365 H349 0.930 . S
C365 C364 1.377 . S
C365 C366 1.379 . S
C366 H350 0.931 . S
C366 C360 1.383 . S
C366 C365 1.379 . S
H367 C361 0.959 . S
H368 C361 0.961 . S
H369 C361 0.960 . S
H370 C362 0.930 . S
H371 C363 0.929 . S
H372 C380 0.929 . S
H373 C382 0.930 . S
H374 C384 0.930 . S
H375 C387 0.929 . S
H376 C390 0.930 . S
H377 C392 0.960 . S
H378 C392 0.960 . S
H379 C392 0.960 . S
C380 H372 0.929 . S
C380 C381 1.377 . S
C380 C382 1.384 . S
C381 C380 1.377 . S
C381 C387 1.390 . S
C382 H373 0.930 . S
C382 C380 1.384 . S
C382 C383 1.372 . S
C383 C382 1.372 . S
C383 C384 1.400 . S
C383 C388 1.490 . S
C384 H374 0.930 . S
C384 C383 1.400 . S
C384 C387 1.386 . S
H385 C401 0.930 . S
H386 C402 0.931 . S
C387 H375 0.929 . S
C387 C381 1.390 . S
C387 C384 1.386 . S
C388 C383 1.490 . S
C388 C390 1.395 . S
C388 C391 1.403 . S
H389 C395 0.930 . S
C390 H376 0.930 . S
C390 C388 1.395 . S
C390 C393 1.403 . S
C391 C388 1.403 . S
C391 C392 1.524 . S
C391 C395 1.400 . S
C392 H377 0.960 . S
C392 H378 0.960 . S
C392 H379 0.960 . S
C392 C391 1.524 . S
C393 C390 1.403 . S
C393 C394 1.392 . S
C393 C397 1.495 . S
C394 C393 1.392 . S
C394 C395 1.385 . S
C394 C396 1.478 . S
C395 H389 0.930 . S
C395 C391 1.400 . S
C395 C394 1.385 . S
C396 C394 1.478 . S
C396 C398 1.381 . S
C396 C402 1.383 . S
C397 C393 1.495 . S
C397 H403 0.959 . S
C397 H404 0.961 . S
C397 H405 0.960 . S
C398 C396 1.381 . S
C398 C399 1.394 . S
C398 H406 0.930 . S
C399 C398 1.394 . S
C399 C400 1.383 . S
C399 H407 0.929 . S
C400 C399 1.383 . S
C400 C401 1.377 . S
C401 H385 0.930 . S
C401 C400 1.377 . S
C401 C402 1.379 . S
C402 H386 0.931 . S
C402 C396 1.383 . S
C402 C401 1.379 . S
H403 C397 0.959 . S
H404 C397 0.961 . S
H405 C397 0.960 . S
H406 C398 0.930 . S
H407 C399 0.929 . S
H408 C416 0.929 . S
H409 C418 0.930 . S
H410 C420 0.930 . S
H411 C423 0.929 . S
H412 C426 0.930 . S
H413 C428 0.960 . S
H414 C428 0.960 . S
H415 C428 0.960 . S
C416 H408 0.929 . S
C416 C417 1.377 . S
C416 C418 1.384 . S
C417 C416 1.377 . S
C417 C423 1.390 . S
C418 H409 0.930 . S
C418 C416 1.384 . S
C418 C419 1.372 . S
C419 C418 1.372 . S
C419 C420 1.400 . S
C419 C424 1.490 . S
C420 H410 0.930 . S
C420 C419 1.400 . S
C420 C423 1.386 . S
H421 C437 0.930 . S
H422 C438 0.931 . S
C423 H411 0.929 . S
C423 C417 1.390 . S
C423 C420 1.386 . S
C424 C419 1.490 . S
C424 C426 1.395 . S
C424 C427 1.403 . S
H425 C431 0.930 . S
C426 H412 0.930 . S
C426 C424 1.395 . S
C426 C429 1.403 . S
C427 C424 1.403 . S
C427 C428 1.524 . S
C427 C431 1.400 . S
C428 H413 0.960 . S
C428 H414 0.960 . S
C428 H415 0.960 . S
C428 C427 1.524 . S
C429 C426 1.403 . S
C429 C430 1.392 . S
C429 C433 1.495 . S
C430 C429 1.392 . S
C430 C431 1.385 . S
C430 C432 1.478 . S
C431 H425 0.930 . S
C431 C427 1.400 . S
C431 C430 1.385 . S
C432 C430 1.478 . S
C432 C434 1.381 . S
C432 C438 1.383 . S
C433 C429 1.495 . S
C433 H439 0.959 . S
C433 H440 0.961 . S
C433 H441 0.960 . S
C434 C432 1.381 . S
C434 C435 1.394 . S
C434 H442 0.930 . S
C435 C434 1.394 . S
C435 C436 1.383 . S
C435 H443 0.929 . S
C436 C435 1.383 . S
C436 C437 1.377 . S
C437 H421 0.930 . S
C437 C436 1.377 . S
C437 C438 1.379 . S
C438 H422 0.931 . S
C438 C432 1.383 . S
C438 C437 1.379 . S
H439 C433 0.959 . S
H440 C433 0.961 . S
H441 C433 0.960 . S
H442 C434 0.930 . S
H443 C435 0.929 . S
H444 C452 0.929 . S
H445 C454 0.930 . S
H446 C456 0.930 . S
H447 C459 0.929 . S
H448 C462 0.930 . S
H449 C464 0.960 . S
H450 C464 0.960 . S
H451 C464 0.960 . S
C452 H444 0.929 . S
C452 C453 1.377 . S
C452 C454 1.384 . S
C453 C452 1.377 . S
C453 C459 1.390 . S
C454 H445 0.930 . S
C454 C452 1.384 . S
C454 C455 1.372 . S
C455 C454 1.372 . S
C455 C456 1.400 . S
C455 C460 1.490 . S
C456 H446 0.930 . S
C456 C455 1.400 . S
C456 C459 1.386 . S
H457 C473 0.930 . S
H458 C474 0.931 . S
C459 H447 0.929 . S
C459 C453 1.390 . S
C459 C456 1.386 . S
C460 C455 1.490 . S
C460 C462 1.395 . S
C460 C463 1.403 . S
H461 C467 0.930 . S
C462 H448 0.930 . S
C462 C460 1.395 . S
C462 C465 1.403 . S
C463 C460 1.403 . S
C463 C464 1.524 . S
C463 C467 1.400 . S
C464 H449 0.960 . S
C464 H450 0.960 . S
C464 H451 0.960 . S
C464 C463 1.524 . S
C465 C462 1.403 . S
C465 C466 1.392 . S
C465 C469 1.495 . S
C466 C465 1.392 . S
C466 C467 1.385 . S
C466 C468 1.478 . S
C467 H461 0.930 . S
C467 C463 1.400 . S
C467 C466 1.385 . S
C468 C466 1.478 . S
C468 C470 1.381 . S
C468 C474 1.383 . S
C469 C465 1.495 . S
C469 H475 0.959 . S
C469 H476 0.961 . S
C469 H477 0.960 . S
C470 C468 1.381 . S
C470 C471 1.394 . S
C470 H478 0.930 . S
C471 C470 1.394 . S
C471 C472 1.383 . S
C471 H479 0.929 . S
C472 C471 1.383 . S
C472 C473 1.377 . S
C473 H457 0.930 . S
C473 C472 1.377 . S
C473 C474 1.379 . S
C474 H458 0.931 . S
C474 C468 1.383 . S
C474 C473 1.379 . S
H475 C469 0.959 . S
H476 C469 0.961 . S
H477 C469 0.960 . S
H478 C470 0.930 . S
H479 C471 0.929 . S
H480 C488 0.929 . S
H481 C490 0.930 . S
H482 C492 0.930 . S
H483 C495 0.929 . S
H484 C498 0.930 . S
H485 C500 0.960 . S
H486 C500 0.960 . S
H487 C500 0.960 . S
C488 H480 0.929 . S
C488 C489 1.377 . S
C488 C490 1.384 . S
C489 C488 1.377 . S
C489 C495 1.390 . S
C490 H481 0.930 . S
C490 C488 1.384 . S
C490 C491 1.372 . S
C491 C490 1.372 . S
C491 C492 1.400 . S
C491 C496 1.490 . S
C492 H482 0.930 . S
C492 C491 1.400 . S
C492 C495 1.386 . S
H493 C509 0.939 . S
H494 C510 0.931 . S
C495 H483 0.929 . S
C495 C489 1.390 . S
C495 C492 1.386 . S
C496 C491 1.490 . S
C496 C498 1.395 . S
C496 C499 1.403 . S
H497 C503 0.930 . S
C498 H484 0.930 . S
C498 C496 1.395 . S
C498 C501 1.403 . S
C499 C496 1.403 . S
C499 C500 1.524 . S
C499 C503 1.400 . S
C500 H485 0.960 . S
C500 H486 0.960 . S
C500 H487 0.960 . S
C500 C499 1.524 . S
C501 C498 1.403 . S
C501 C502 1.392 . S
C501 C505 1.495 . S
C502 C501 1.392 . S
C502 C503 1.385 . S
C502 C504 1.478 . S
C503 H497 0.930 . S
C503 C499 1.400 . S
C503 C502 1.385 . S
C504 C502 1.478 . S
C504 C506 1.381 1_565 S
C504 C510 1.383 . S
C505 C501 1.495 . S
C505 H511 0.959 . S
C505 H512 0.961 1_565 S
C505 H513 0.960 1_565 S
C506 C504 1.381 1_545 S
C506 C507 1.394 . S
C506 H514 0.930 . S
C507 C506 1.394 . S
C507 C508 1.383 . S
C507 H515 0.929 . S
C508 C507 1.383 . S
C508 C509 1.377 . S
C509 H493 0.939 . S
C509 C508 1.377 . S
C509 C510 1.379 1_545 S
C510 H494 0.931 . S
C510 C504 1.383 . S
C510 C509 1.379 1_565 S
H511 C505 0.959 . S
H512 C505 0.961 1_545 S
H513 C505 0.960 1_545 S
H514 C506 0.930 . S
H515 C507 0.929 . S
H516 C524 0.929 . S
H517 C526 0.930 . S
H518 C528 0.930 . S
H519 C531 0.929 . S
H520 C534 0.930 . S
H521 C536 0.960 . S
H522 C536 0.960 . S
H523 C536 0.960 . S
C524 H516 0.929 . S
C524 C525 1.377 . S
C524 C526 1.384 . S
C525 C524 1.377 . S
C525 C531 1.390 . S
C526 H517 0.930 . S
C526 C524 1.384 . S
C526 C527 1.372 . S
C527 C526 1.372 . S
C527 C528 1.400 . S
C527 C532 1.490 . S
C528 H518 0.930 . S
C528 C527 1.400 . S
C528 C531 1.386 . S
H529 C545 0.930 . S
H530 C546 0.931 . S
C531 H519 0.929 . S
C531 C525 1.390 . S
C531 C528 1.386 . S
C532 C527 1.490 . S
C532 C534 1.395 . S
C532 C535 1.403 . S
H533 C539 0.930 . S
C534 H520 0.930 . S
C534 C532 1.395 . S
C534 C537 1.403 . S
C535 C532 1.403 . S
C535 C536 1.524 . S
C535 C539 1.400 . S
C536 H521 0.960 . S
C536 H522 0.960 . S
C536 H523 0.960 . S
C536 C535 1.524 . S
C537 C534 1.403 . S
C537 C538 1.392 . S
C537 C541 1.495 . S
C538 C537 1.392 . S
C538 C539 1.385 . S
C538 C540 1.478 . S
C539 H533 0.930 . S
C539 C535 1.400 . S
C539 C538 1.385 . S
C540 C538 1.478 . S
C540 C542 1.381 . S
C540 C546 1.383 . S
C541 C537 1.495 . S
C541 H547 0.959 . S
C541 H548 0.961 . S
C541 H549 0.960 . S
C542 C540 1.381 . S
C542 C543 1.394 . S
C542 H550 0.930 . S
C543 C542 1.394 . S
C543 C544 1.383 . S
C543 H551 0.929 . S
C544 C543 1.383 . S
C544 C545 1.377 . S
C545 H529 0.930 . S
C545 C544 1.377 . S
C545 C546 1.379 . S
C546 H530 0.931 . S
C546 C540 1.383 . S
C546 C545 1.379 . S
H547 C541 0.959 . S
H548 C541 0.961 . S
H549 C541 0.960 . S
H550 C542 0.930 . S
H551 C543 0.929 . S
H552 C560 0.929 . S
H553 C562 0.930 . S
H554 C564 0.930 . S
H555 C567 0.929 . S
H556 C570 0.930 . S
H557 C572 0.960 . S
H558 C572 0.960 . S
H559 C572 0.960 . S
C560 H552 0.929 . S
C560 C561 1.377 . S
C560 C562 1.384 . S
C561 C560 1.377 . S
C561 C567 1.390 . S
C562 H553 0.930 . S
C562 C560 1.384 . S
C562 C563 1.372 . S
C563 C562 1.372 . S
C563 C564 1.400 . S
C563 C568 1.490 . S
C564 H554 0.930 . S
C564 C563 1.400 . S
C564 C567 1.386 . S
H565 C581 0.930 . S
H566 C582 0.931 . S
C567 H555 0.929 . S
C567 C561 1.390 . S
C567 C564 1.386 . S
C568 C563 1.490 . S
C568 C570 1.395 . S
C568 C571 1.403 . S
H569 C575 0.930 . S
C570 H556 0.930 . S
C570 C568 1.395 . S
C570 C573 1.403 . S
C571 C568 1.403 . S
C571 C572 1.524 . S
C571 C575 1.400 . S
C572 H557 0.960 . S
C572 H558 0.960 . S
C572 H559 0.960 . S
C572 C571 1.524 . S
C573 C570 1.403 . S
C573 C574 1.392 . S
C573 C577 1.495 . S
C574 C573 1.392 . S
C574 C575 1.385 . S
C574 C576 1.478 . S
C575 H569 0.930 . S
C575 C571 1.400 . S
C575 C574 1.385 . S
C576 C574 1.478 . S
C576 C578 1.381 . S
C576 C582 1.383 . S
C577 C573 1.495 . S
C577 H583 0.959 . S
C577 H584 0.961 . S
C577 H585 0.960 . S
C578 C576 1.381 . S
C578 C579 1.394 . S
C578 H586 0.930 . S
C579 C578 1.394 . S
C579 C580 1.383 . S
C579 H587 0.929 . S
C580 C579 1.383 . S
C580 C581 1.377 . S
C581 H565 0.930 . S
C581 C580 1.377 . S
C581 C582 1.379 . S
C582 H566 0.931 . S
C582 C576 1.383 . S
C582 C581 1.379 . S
H583 C577 0.959 . S
H584 C577 0.961 . S
H585 C577 0.960 . S
H586 C578 0.930 . S
H587 C579 0.929 . S
H588 C596 0.929 . S
H589 C598 0.930 . S
H590 C600 0.930 . S
H591 C603 0.929 . S
H592 C606 0.930 . S
H593 C608 0.960 . S
H594 C608 0.960 . S
H595 C608 0.960 . S
C596 H588 0.929 . S
C596 C597 1.377 . S
C596 C598 1.384 . S
C597 C596 1.377 . S
C597 C603 1.390 . S
C598 H589 0.930 . S
C598 C596 1.384 . S
C598 C599 1.372 . S
C599 C598 1.372 . S
C599 C600 1.400 . S
C599 C604 1.490 . S
C600 H590 0.930 . S
C600 C599 1.400 . S
C600 C603 1.386 . S
H601 C617 0.930 . S
H602 C618 0.931 . S
C603 H591 0.929 . S
C603 C597 1.390 . S
C603 C600 1.386 . S
C604 C599 1.490 . S
C604 C606 1.395 . S
C604 C607 1.403 . S
H605 C611 0.930 . S
C606 H592 0.930 . S
C606 C604 1.395 . S
C606 C609 1.403 . S
C607 C604 1.403 . S
C607 C608 1.524 . S
C607 C611 1.400 . S
C608 H593 0.960 . S
C608 H594 0.960 . S
C608 H595 0.960 . S
C608 C607 1.524 . S
C609 C606 1.403 . S
C609 C610 1.392 . S
C609 C613 1.495 . S
C610 C609 1.392 . S
C610 C611 1.385 . S
C610 C612 1.478 . S
C611 H605 0.930 . S
C611 C607 1.400 . S
C611 C610 1.385 . S
C612 C610 1.478 . S
C612 C614 1.381 . S
C612 C618 1.383 . S
C613 C609 1.495 . S
C613 H619 0.959 . S
C613 H620 0.961 . S
C613 H621 0.960 . S
C614 C612 1.381 . S
C614 C615 1.394 . S
C614 H622 0.930 . S
C615 C614 1.394 . S
C615 C616 1.383 . S
C615 H623 0.929 . S
C616 C615 1.383 . S
C616 C617 1.377 . S
C617 H601 0.930 . S
C617 C616 1.377 . S
C617 C618 1.379 . S
C618 H602 0.931 . S
C618 C612 1.383 . S
C618 C617 1.379 . S
H619 C613 0.959 . S
H620 C613 0.961 . S
H621 C613 0.960 . S
H622 C614 0.930 . S
H623 C615 0.929 . S
H624 C632 0.929 1_655 S
H625 C634 0.930 1_655 S
H626 C636 0.930 . S
H627 C639 0.929 . S
H628 C642 0.930 . S
H629 C644 0.960 . S
H630 C644 0.929 1_655 S
H631 C644 0.960 . S
C632 H624 0.929 1_455 S
C632 C633 1.377 . S
C632 C634 1.384 . S
C633 C632 1.377 . S
C633 C639 1.390 . S
C634 H625 0.930 1_455 S
C634 C632 1.384 . S
C634 C635 1.372 . S
C635 C634 1.372 . S
C635 C636 1.400 . S
C635 C640 1.490 . S
C636 H626 0.930 . S
C636 C635 1.400 . S
C636 C639 1.386 . S
H637 C653 0.930 . S
H638 C654 0.931 . S
C639 H627 0.929 . S
C639 C633 1.390 . S
C639 C636 1.386 . S
C640 C635 1.490 . S
C640 C642 1.395 . S
C640 C643 1.403 . S
H641 C647 0.930 1_556 S
C642 H628 0.930 . S
C642 C640 1.395 . S
C642 C645 1.403 . S
C643 C640 1.403 . S
C643 C644 1.524 . S
C643 C647 1.400 . S
C644 H629 0.960 . S
C644 H630 0.929 1_455 S
C644 H631 0.960 . S
C644 C643 1.524 . S
C645 C642 1.403 . S
C645 C646 1.392 1_554 S
C645 C649 1.492 1_554 S
C646 C645 1.392 1_556 S
C646 C647 1.385 1_556 S
C646 C648 1.478 . S
C647 H641 0.930 1_554 S
C647 C643 1.400 . S
C647 C646 1.385 1_554 S
C648 C646 1.478 . S
C648 C650 1.381 . S
C648 C654 1.383 . S
C649 C645 1.492 1_556 S
C649 H655 0.955 1_556 S
C649 H656 0.965 . S
C649 H657 0.963 . S
C650 C648 1.381 . S
C650 C651 1.394 . S
C650 H658 0.930 1_455 S
C651 C650 1.394 . S
C651 C652 1.383 . S
C651 H659 0.929 1_455 S
C652 C651 1.383 . S
C652 C653 1.377 . S
C653 H637 0.930 . S
C653 C652 1.377 . S
C653 C654 1.379 . S
C654 H638 0.931 . S
C654 C648 1.383 . S
C654 C653 1.379 . S
H655 C649 0.955 1_554 S
H656 C649 0.965 . S
H657 C649 0.963 . S
H658 C650 0.930 1_655 S
H659 C651 0.929 1_655 S
H660 C668 0.920 1_565 S
H661 C670 0.930 . S
H662 C672 0.930 . S
H663 C675 0.929 . S
H664 C678 0.930 . S
H665 C680 0.960 . S
H666 C680 0.960 . S
H667 C680 0.960 . S
C668 H660 0.920 1_545 S
C668 C669 1.377 . S
C668 C670 1.384 . S
C669 C668 1.377 . S
C669 C675 1.390 . S
C670 H661 0.930 . S
C670 C668 1.384 . S
C670 C671 1.372 . S
C671 C670 1.372 . S
C671 C672 1.400 . S
C671 C676 1.490 . S
C672 H662 0.930 . S
C672 C671 1.400 . S
C672 C675 1.386 . S
H673 C689 0.930 . S
H674 C690 0.931 . S
C675 H663 0.929 . S
C675 C669 1.390 . S
C675 C672 1.386 . S
C676 C671 1.490 . S
C676 C678 1.395 . S
C676 C679 1.403 . S
H677 C683 0.930 . S
C678 H664 0.930 . S
C678 C676 1.395 . S
C678 C681 1.403 . S
C679 C676 1.403 . S
C679 C680 1.524 . S
C679 C683 1.400 . S
C680 H665 0.960 . S
C680 H666 0.960 . S
C680 H667 0.960 . S
C680 C679 1.524 . S
C681 C678 1.403 . S
C681 C682 1.392 . S
C681 C685 1.495 . S
C682 C681 1.392 . S
C682 C683 1.385 . S
C682 C684 1.478 . S
C683 H677 0.930 . S
C683 C679 1.400 . S
C683 C682 1.385 . S
C684 C682 1.478 . S
C684 C686 1.381 . S
C684 C690 1.383 . S
C685 C681 1.495 . S
C685 H691 0.959 . S
C685 H692 0.961 . S
C685 H693 0.960 . S
C686 C684 1.381 . S
C686 C687 1.394 . S
C686 H694 0.930 . S
C687 C686 1.394 . S
C687 C688 1.383 . S
C687 H695 0.929 . S
C688 C687 1.383 . S
C688 C689 1.377 . S
C689 H673 0.930 . S
C689 C688 1.377 . S
C689 C690 1.379 . S
C690 H674 0.931 . S
C690 C684 1.383 . S
C690 C689 1.379 . S
H691 C685 0.959 . S
H692 C685 0.961 . S
H693 C685 0.960 . S
H694 C686 0.930 . S
H695 C687 0.929 . S
H696 C704 0.929 . S
H697 C706 0.930 . S
H698 C708 0.930 . S
H699 C711 0.929 . S
H700 C714 0.930 . S
H701 C716 0.960 . S
H702 C716 0.960 . S
H703 C716 0.960 . S
C704 H696 0.929 . S
C704 C705 1.377 . S
C704 C706 1.384 . S
C705 C704 1.377 . S
C705 C711 1.390 . S
C706 H697 0.930 . S
C706 C704 1.384 . S
C706 C707 1.372 . S
C707 C706 1.372 . S
C707 C708 1.400 . S
C707 C712 1.490 . S
C708 H698 0.930 . S
C708 C707 1.400 . S
C708 C711 1.386 . S
H709 C725 0.930 . S
H710 C726 0.931 . S
C711 H699 0.929 . S
C711 C705 1.390 . S
C711 C708 1.386 . S
C712 C707 1.490 . S
C712 C714 1.395 . S
C712 C715 1.403 . S
H713 C719 0.930 . S
C714 H700 0.930 . S
C714 C712 1.395 . S
C714 C717 1.403 . S
C715 C712 1.403 . S
C715 C716 1.524 . S
C715 C719 1.400 . S
C716 H701 0.960 . S
C716 H702 0.960 . S
C716 H703 0.960 . S
C716 C715 1.524 . S
C717 C714 1.403 . S
C717 C718 1.392 . S
C717 C721 1.495 . S
C718 C717 1.392 . S
C718 C719 1.385 . S
C718 C720 1.478 . S
C719 H713 0.930 . S
C719 C715 1.400 . S
C719 C718 1.385 . S
C720 C718 1.478 . S
C720 C722 1.381 . S
C720 C726 1.383 . S
C721 C717 1.495 . S
C721 H727 0.959 . S
C721 H728 0.961 . S
C721 H729 0.960 . S
C722 C720 1.381 . S
C722 C723 1.394 . S
C722 H730 0.930 . S
C723 C722 1.394 . S
C723 C724 1.383 . S
C723 H731 0.929 . S
C724 C723 1.383 . S
C724 C725 1.377 . S
C725 H709 0.930 . S
C725 C724 1.377 . S
C725 C726 1.379 . S
C726 H710 0.931 . S
C726 C720 1.383 . S
C726 C725 1.379 . S
H727 C721 0.959 . S
H728 C721 0.961 . S
H729 C721 0.960 . S
H730 C722 0.930 . S
H731 C723 0.929 . S
H732 C740 0.929 . S
H733 C742 0.930 . S
H734 C744 0.930 . S
H735 C747 0.929 . S
H736 C750 0.930 . S
H737 C752 0.960 . S
H738 C752 0.960 . S
H739 C752 0.960 . S
C740 H732 0.929 . S
C740 C741 1.377 . S
C740 C742 1.384 . S
C741 C740 1.377 . S
C741 C747 1.390 . S
C742 H733 0.930 . S
C742 C740 1.384 . S
C742 C743 1.372 . S
C743 C742 1.372 . S
C743 C744 1.400 . S
C743 C748 1.490 . S
C744 H734 0.930 . S
C744 C743 1.400 . S
C744 C747 1.386 . S
H745 C761 0.930 . S
H746 C762 0.931 . S
C747 H735 0.929 . S
C747 C741 1.390 . S
C747 C744 1.386 . S
C748 C743 1.490 . S
C748 C750 1.395 . S
C748 C751 1.401 . S
H749 C755 0.930 1_565 S
C750 H736 0.930 . S
C750 C748 1.395 . S
C750 C753 1.403 . S
C751 C748 1.401 . S
C751 C752 1.526 1_545 S
C751 C755 1.400 . S
C752 H737 0.960 . S
C752 H738 0.960 . S
C752 H739 0.960 . S
C752 C751 1.526 1_565 S
C753 C750 1.403 . S
C753 C754 1.392 . S
C753 C757 1.495 . S
C754 C753 1.392 . S
C754 C755 1.385 . S
C754 C756 1.478 . S
C755 H749 0.930 1_545 S
C755 C751 1.400 . S
C755 C754 1.385 . S
C756 C754 1.478 . S
C756 C758 1.381 . S
C756 C762 1.383 . S
C757 C753 1.495 . S
C757 H763 0.959 . S
C757 H764 0.961 . S
C757 H765 0.960 . S
C758 C756 1.381 . S
C758 C759 1.394 . S
C758 H766 0.930 . S
C759 C758 1.394 . S
C759 C760 1.383 . S
C759 H767 0.929 . S
C760 C759 1.383 . S
C760 C761 1.377 . S
C761 H745 0.930 . S
C761 C760 1.377 . S
C761 C762 1.379 . S
C762 H746 0.931 . S
C762 C756 1.383 . S
C762 C761 1.379 . S
H763 C757 0.959 . S
H764 C757 0.961 . S
H765 C757 0.960 . S
H766 C758 0.930 . S
H767 C759 0.929 . S
H768 C776 0.929 . S
H769 C778 0.930 . S
H770 C780 0.930 . S
H771 C783 0.929 . S
H772 C786 0.930 . S
H773 C788 0.960 . S
H774 C788 0.960 . S
H775 C788 0.960 . S
C776 H768 0.929 . S
C776 C777 1.377 . S
C776 C778 1.384 . S
C777 C776 1.377 . S
C777 C783 1.390 . S
C778 H769 0.930 . S
C778 C776 1.384 . S
C778 C779 1.372 . S
C779 C778 1.372 . S
C779 C780 1.400 . S
C779 C784 1.490 . S
C780 H770 0.930 . S
C780 C779 1.400 . S
C780 C783 1.386 . S
H781 C797 0.930 . S
H782 C798 0.931 . S
C783 H771 0.929 . S
C783 C777 1.390 . S
C783 C780 1.386 . S
C784 C779 1.490 . S
C784 C786 1.395 . S
C784 C787 1.403 . S
H785 C791 0.918 1_554 S
C786 H772 0.930 . S
C786 C784 1.395 . S
C786 C789 1.403 . S
C787 C784 1.403 . S
C787 C788 1.524 . S
C787 C791 1.400 . S
C788 H773 0.960 . S
C788 H774 0.960 . S
C788 H775 0.960 . S
C788 C787 1.524 . S
C789 C786 1.403 . S
C789 C790 1.392 1_556 S
C789 C793 1.495 1_556 S
C790 C789 1.392 1_554 S
C790 C791 1.385 1_554 S
C790 C792 1.478 . S
C791 H785 0.918 1_556 S
C791 C787 1.400 . S
C791 C790 1.385 1_556 S
C792 C790 1.478 . S
C792 C794 1.381 . S
C792 C798 1.383 . S
C793 C789 1.495 1_554 S
C793 H799 0.959 1_554 S
C793 H800 0.961 . S
C793 H801 0.960 . S
C794 C792 1.381 . S
C794 C795 1.394 . S
C794 H802 0.930 . S
C795 C794 1.394 . S
C795 C796 1.383 . S
C795 H803 0.929 . S
C796 C795 1.383 . S
C796 C797 1.377 . S
C797 H781 0.930 . S
C797 C796 1.377 . S
C797 C798 1.379 . S
C798 H782 0.931 . S
C798 C792 1.383 . S
C798 C797 1.379 . S
H799 C793 0.959 1_556 S
H800 C793 0.961 . S
H801 C793 0.960 . S
H802 C794 0.930 . S
H803 C795 0.929 . S
H804 C812 0.929 . S
H805 C814 0.930 . S
H806 C816 0.930 . S
H807 C819 0.929 . S
H808 C822 0.930 . S
H809 C824 0.960 . S
H810 C824 0.960 . S
H811 C824 0.960 . S
C812 H804 0.929 . S
C812 C813 1.377 . S
C812 C814 1.384 . S
C813 C812 1.377 . S
C813 C819 1.390 . S
C814 H805 0.930 . S
C814 C812 1.384 . S
C814 C815 1.372 . S
C815 C814 1.372 . S
C815 C816 1.400 . S
C815 C820 1.490 . S
C816 H806 0.930 . S
C816 C815 1.400 . S
C816 C819 1.386 . S
H817 C833 0.930 . S
H818 C834 0.931 . S
C819 H807 0.929 . S
C819 C813 1.390 . S
C819 C816 1.386 . S
C820 C815 1.490 . S
C820 C822 1.395 . S
C820 C823 1.403 1_455 S
H821 C827 0.954 . S
C822 H808 0.930 . S
C822 C820 1.395 . S
C822 C825 1.403 . S
C823 C820 1.403 1_655 S
C823 C824 1.524 . S
C823 C827 1.400 . S
C824 H809 0.960 . S
C824 H810 0.960 . S
C824 H811 0.960 . S
C824 C823 1.524 . S
C825 C822 1.403 . S
C825 C826 1.392 . S
C825 C829 1.495 . S
C826 C825 1.392 . S
C826 C827 1.363 1_455 S
C826 C828 1.478 . S
C827 H821 0.954 . S
C827 C823 1.400 . S
C827 C826 1.363 1_655 S
C828 C826 1.478 . S
C828 C830 1.381 . S
C828 C834 1.383 . S
C829 C825 1.495 . S
C829 H835 0.959 . S
C829 H836 0.961 . S
C829 H837 0.960 . S
C830 C828 1.381 . S
C830 C831 1.394 . S
C830 H838 0.930 . S
C831 C830 1.394 . S
C831 C832 1.383 . S
C831 H839 0.929 . S
C832 C831 1.383 . S
C832 C833 1.377 . S
C833 H817 0.930 . S
C833 C832 1.377 . S
C833 C834 1.379 . S
C834 H818 0.931 . S
C834 C828 1.383 . S
C834 C833 1.379 . S
H835 C829 0.959 . S
H836 C829 0.961 . S
H837 C829 0.960 . S
H838 C830 0.930 . S
H839 C831 0.929 . S
C201 C24 3.234 . S
C220 C186 3.209 . S
C237 C66 1.139 . S
C256 C160 1.127 . S
C273 C93 1.789 . S
C292 C172 1.732 . S
C309 C13 2.733 . S
C328 C184 2.629 . S
C364 C162 1.043 . S
C345 C57 1.038 . S
C400 C174 1.767 . S
C381 C104 1.814 . S
C417 C64 1.983 . S
C436 C136 1.904 . S
C453 C97 0.622 . S
C472 C150 0.645 . S
C489 C17 1.091 . S
C508 C126 1.083 . S
C544 C138 1.610 . S
C525 C53 1.641 . S
C580 C148 0.480 . S
C561 C106 0.347 . S
C597 C26 1.145 . S
C616 C124 1.153 . S
C652 C153 1.257 . S
C633 C2 1.215 . S
C669 C63 1.491 . S
C688 C129 1.489 . S
C705 C82 1.468 . S
C724 C141 1.487 . S
C760 C177 1.455 . S
C741 C42 1.439 . S
C796 C189 1.794 . S
C777 C103 1.755 . S
C813 C23 1.526 . S
C832 C165 1.517 . S
