# Generated by pormake.
# Topology nom, (4,4)-cn, num edge types: 1
# Building blocks:
#     Node 0, Type 0, BuildingBlock: GIZVER_clean_linker_0, # of connection points: 4
#     Node 1, Type 0, BuildingBlock: GIZVER_clean_linker_0, # of connection points: 4
#     Node 2, Type 0, BuildingBlock: GIZVER_clean_linker_0, # of connection points: 4
#     Node 3, Type 0, BuildingBlock: GIZVER_clean_linker_0, # of connection points: 4
#     Node 4, Type 0, BuildingBlock: GIZVER_clean_linker_0, # of connection points: 4
#     Node 5, Type 0, BuildingBlock: GIZVER_clean_linker_0, # of connection points: 4
#     Node 6, Type 1, BuildingBlock: CEKHIL_clean_sbu_0, # of connection points: 4
#     Node 7, Type 1, BuildingBlock: CEKHIL_clean_sbu_0, # of connection points: 4
#     Node 8, Type 1, BuildingBlock: CEKHIL_clean_sbu_0, # of connection points: 4
#     Node 9, Type 1, BuildingBlock: CEKHIL_clean_sbu_0, # of connection points: 4
#     Node 10, Type 1, BuildingBlock: CEKHIL_clean_sbu_0, # of connection points: 4
#     Node 11, Type 1, BuildingBlock: CEKHIL_clean_sbu_0, # of connection points: 4
#     Edge 12, Type (0, 1), BuildingBlock: MIFKUJ_clean_linker_0, # of connection points: 2
#     Edge 13, Type (0, 1), BuildingBlock: MIFKUJ_clean_linker_0, # of connection points: 2
#     Edge 14, Type (0, 1), BuildingBlock: MIFKUJ_clean_linker_0, # of connection points: 2
#     Edge 15, Type (0, 1), BuildingBlock: MIFKUJ_clean_linker_0, # of connection points: 2
#     Edge 16, Type (0, 1), BuildingBlock: MIFKUJ_clean_linker_0, # of connection points: 2
#     Edge 17, Type (0, 1), BuildingBlock: MIFKUJ_clean_linker_0, # of connection points: 2
#     Edge 18, Type (0, 1), BuildingBlock: MIFKUJ_clean_linker_0, # of connection points: 2
#     Edge 19, Type (0, 1), BuildingBlock: MIFKUJ_clean_linker_0, # of connection points: 2
#     Edge 20, Type (0, 1), BuildingBlock: MIFKUJ_clean_linker_0, # of connection points: 2
#     Edge 21, Type (0, 1), BuildingBlock: MIFKUJ_clean_linker_0, # of connection points: 2
#     Edge 22, Type (0, 1), BuildingBlock: MIFKUJ_clean_linker_0, # of connection points: 2
#     Edge 23, Type (0, 1), BuildingBlock: MIFKUJ_clean_linker_0, # of connection points: 2
#     Edge 24, Type (0, 1), BuildingBlock: MIFKUJ_clean_linker_0, # of connection points: 2
#     Edge 25, Type (0, 1), BuildingBlock: MIFKUJ_clean_linker_0, # of connection points: 2
#     Edge 26, Type (0, 1), BuildingBlock: MIFKUJ_clean_linker_0, # of connection points: 2
#     Edge 27, Type (0, 1), BuildingBlock: MIFKUJ_clean_linker_0, # of connection points: 2
#     Edge 28, Type (0, 1), BuildingBlock: MIFKUJ_clean_linker_0, # of connection points: 2
#     Edge 29, Type (0, 1), BuildingBlock: MIFKUJ_clean_linker_0, # of connection points: 2
#     Edge 30, Type (0, 1), BuildingBlock: MIFKUJ_clean_linker_0, # of connection points: 2
#     Edge 31, Type (0, 1), BuildingBlock: MIFKUJ_clean_linker_0, # of connection points: 2
#     Edge 32, Type (0, 1), BuildingBlock: MIFKUJ_clean_linker_0, # of connection points: 2
#     Edge 33, Type (0, 1), BuildingBlock: MIFKUJ_clean_linker_0, # of connection points: 2
#     Edge 34, Type (0, 1), BuildingBlock: MIFKUJ_clean_linker_0, # of connection points: 2
#     Edge 35, Type (0, 1), BuildingBlock: MIFKUJ_clean_linker_0, # of connection points: 2
# Relax obj value: 0.005
# Max RMSD: 0.070
# Mean RMSD: 0.052
data_MOF--net-nom--node1-CEKHIL_clean_sbu_0--node2-GIZVER_clean_linker_0--edge1-MIFKUJ_clean_linker_0
_symmetry_space_group_name_H-M    P1
_symmetry_Int_Tables_number       1
_symmetry_cell_setting            triclinic
loop_
_symmetry_equiv_pos_as_xyz
'x, y, z'
_cell_length_a     60.658334
_cell_length_b     60.136383
_cell_length_c     59.444672
_cell_angle_alpha  89.942967
_cell_angle_beta   90.048253
_cell_angle_gamma 120.96598
loop_
_atom_site_label
_atom_site_type_symbol
_atom_site_fract_x
_atom_site_fract_y
_atom_site_fract_z
_atom_type_partial_charge
H0 H 0.97292 0.54485 0.34788 0.0
H1 H 0.00811 0.55009 0.28351 0.0
H2 H 0.92907 0.4919 0.29483 0.0
H3 H 0.01368 0.58255 0.33915 0.0
H4 H 0.0243 0.58837 0.31073 0.0
H5 H 0.02977 0.56278 0.36585 0.0
H6 H 0.10121 0.56899 0.34826 0.0
H7 H 0.05675 0.57902 0.29729 0.0
C8 C 0.97195 0.53731 0.33112 0.0
C9 C 0.94853 0.51636 0.32326 0.0
C10 C 0.99385 0.54922 0.31707 0.0
C11 C 0.99189 0.5402 0.29486 0.0
C12 C 0.96864 0.5192 0.28696 0.0
C13 C 0.94735 0.50721 0.30137 0.0
C14 C 0.01792 0.57382 0.32452 0.0
C15 C 0.03985 0.56967 0.33055 0.0
C16 C 0.04338 0.56473 0.35306 0.0
C17 C 0.06535 0.56403 0.35931 0.0
C18 C 0.08354 0.56787 0.34296 0.0
C19 C 0.08092 0.57359 0.3206 0.0
C20 C 0.05873 0.57403 0.31439 0.0
H21 H 0.44521 0.96651 0.51593 0.0
H22 H 0.45866 0.99125 0.44665 0.0
H23 H 0.45407 0.9203 0.46565 0.0
H24 H 0.43405 0.99781 0.50156 0.0
H25 H 0.44003 0.00823 0.47305 0.0
H26 H 0.47225 0.01475 0.52901 0.0
H27 H 0.52727 0.09529 0.51785 0.0
H28 H 0.47598 0.04983 0.4646 0.0
C29 C 0.44976 0.96404 0.49884 0.0
C30 C 0.45015 0.94154 0.49304 0.0
C31 C 0.4535 0.98252 0.4823 0.0
C32 C 0.45751 0.97815 0.45977 0.0
C33 C 0.45822 0.95592 0.45395 0.0
C34 C 0.45517 0.9382 0.47067 0.0
C35 C 0.44859 0.00415 0.4879 0.0
C36 C 0.47253 0.02885 0.49537 0.0
C37 C 0.48157 0.03114 0.51763 0.0
C38 C 0.50164 0.05504 0.52557 0.0
C39 C 0.51254 0.0766 0.51132 0.0
C40 C 0.50316 0.07505 0.48953 0.0
C41 C 0.48368 0.05095 0.48129 0.0
H42 H 0.43778 0.46826 0.62456 0.0
H43 H 0.45652 0.45926 0.69273 0.0
H44 H 0.44156 0.51975 0.67648 0.0
H45 H 0.43702 0.42931 0.63521 0.0
H46 H 0.43742 0.42243 0.66424 0.0
H47 H 0.47749 0.45105 0.61306 0.0
H48 H 0.53625 0.43764 0.63757 0.0
H49 H 0.47589 0.42747 0.68186 0.0
C50 C 0.44226 0.47516 0.64175 0.0
C51 C 0.43978 0.49622 0.64846 0.0
C52 C 0.44921 0.46217 0.6575 0.0
C53 C 0.45299 0.47015 0.68018 0.0
C54 C 0.45048 0.49111 0.68687 0.0
C55 C 0.44464 0.50437 0.6709 0.0
C56 C 0.44817 0.43728 0.65104 0.0
C57 C 0.47448 0.44043 0.64816 0.0
C58 C 0.48646 0.44686 0.62688 0.0
C59 C 0.50895 0.44611 0.62302 0.0
C60 C 0.51983 0.43976 0.64085 0.0
C61 C 0.50817 0.433 0.66209 0.0
C62 C 0.48552 0.43354 0.66573 0.0
H63 H 0.97472 0.44264 0.7968 0.0
H64 H 0.99989 0.45986 0.86574 0.0
H65 H 0.9283 0.45219 0.8458 0.0
H66 H 0.00679 0.43375 0.81096 0.0
H67 H 0.0144 0.43701 0.84006 0.0
H68 H 0.03096 0.4704 0.78468 0.0
H69 H 0.10729 0.52678 0.8063 0.0
H70 H 0.0518 0.47588 0.85482 0.0
C71 C 0.97223 0.4478 0.81368 0.0
C72 C 0.94975 0.44803 0.81908 0.0
C73 C 0.99073 0.45254 0.83036 0.0
C74 C 0.98648 0.45759 0.85261 0.0
C75 C 0.96411 0.4579 0.8582 0.0
C76 C 0.94631 0.45367 0.84122 0.0
C77 C 0.01214 0.44728 0.82546 0.0
C78 C 0.03779 0.47152 0.82056 0.0
C79 C 0.04465 0.48022 0.79816 0.0
C80 C 0.06991 0.49983 0.79295 0.0
C81 C 0.0877 0.51188 0.81039 0.0
C82 C 0.08147 0.50344 0.83266 0.0
C83 C 0.05643 0.48322 0.83775 0.0
H84 H 0.58145 0.04997 0.01786 0.0
H85 H 0.56429 0.02773 0.94823 0.0
H86 H 0.57606 0.10098 0.97075 0.0
H87 H 0.58849 0.0165 0.00157 0.0
H88 H 0.58116 0.00733 0.97283 0.0
H89 H 0.5488 0.00352 0.02859 0.0
H90 H 0.48968 0.92438 0.01785 0.0
H91 H 0.54661 0.96506 0.96671 0.0
C92 C 0.57682 0.05348 0.00111 0.0
C93 C 0.57803 0.07699 0.99646 0.0
C94 C 0.57116 0.03518 0.9839 0.0
C95 C 0.56727 0.04105 0.96178 0.0
C96 C 0.56884 0.06476 0.95688 0.0
C97 C 0.57347 0.08212 0.9745 0.0
C98 C 0.5738 0.01178 0.98828 0.0
C99 C 0.549 0.98789 0.99579 0.0
C100 C 0.53919 0.98688 0.01753 0.0
C101 C 0.51773 0.96391 0.02542 0.0
C102 C 0.50612 0.94206 0.01151 0.0
C103 C 0.51694 0.94171 0.9908 0.0
C104 C 0.53788 0.96504 0.98261 0.0
H105 H 0.59283 0.55038 0.1229 0.0
H106 H 0.5672 0.54895 0.19091 0.0
H107 H 0.59452 0.49857 0.17146 0.0
H108 H 0.58919 0.58588 0.13672 0.0
H109 H 0.58461 0.58819 0.16587 0.0
H110 H 0.55056 0.56086 0.1112 0.0
H111 H 0.48865 0.57205 0.12974 0.0
H112 H 0.54489 0.58246 0.17914 0.0
C113 C 0.58776 0.54152 0.13942 0.0
C114 C 0.59408 0.52278 0.14519 0.0
C115 C 0.5773 0.55067 0.15573 0.0
C116 C 0.57328 0.54068 0.17786 0.0
C117 C 0.57988 0.52216 0.18364 0.0
C118 C 0.58902 0.51256 0.16694 0.0
C119 C 0.57642 0.57503 0.15112 0.0
C120 C 0.54978 0.57029 0.14618 0.0
C121 C 0.53994 0.56418 0.1241 0.0
C122 C 0.51759 0.56441 0.11822 0.0
C123 C 0.50483 0.57019 0.13473 0.0
C124 C 0.51447 0.57695 0.1567 0.0
C125 C 0.53681 0.57653 0.16243 0.0
Co126 Co 0.64257 0.37984 0.40047 0.0
O127 O 0.66879 0.38131 0.38122 0.0
O128 O 0.6755 0.41094 0.40667 0.0
C129 C 0.62539 0.33769 0.41035 0.0
O130 O 0.62068 0.38433 0.42403 0.0
Co131 Co 0.58465 0.34262 0.38947 0.0
O132 O 0.57908 0.35364 0.41934 0.0
C133 C 0.61474 0.39087 0.3635 0.0
C134 C 0.68495 0.40266 0.39141 0.0
C135 C 0.59693 0.37276 0.43016 0.0
O136 O 0.63369 0.39884 0.37736 0.0
O137 O 0.5948 0.36806 0.36406 0.0
O138 O 0.64571 0.35574 0.42056 0.0
O139 O 0.61756 0.34544 0.39357 0.0
Co140 Co 0.2764 0.63634 0.57382 0.0
O141 O 0.3012 0.6352 0.59337 0.0
O142 O 0.27723 0.60489 0.56854 0.0
C143 C 0.30256 0.67821 0.5633 0.0
O144 O 0.24984 0.63127 0.55001 0.0
Co145 Co 0.25669 0.67413 0.58285 0.0
O146 O 0.24158 0.66362 0.5523 0.0
C147 C 0.2374 0.62676 0.61033 0.0
C148 C 0.29529 0.6135 0.58367 0.0
C149 C 0.23909 0.64356 0.54257 0.0
O150 O 0.24825 0.61824 0.5971 0.0
O151 O 0.24064 0.6495 0.60879 0.0
O152 O 0.30431 0.65984 0.55357 0.0
O153 O 0.28664 0.67095 0.57989 0.0
Co154 Co 0.64817 0.27067 0.73442 0.0
O155 O 0.64592 0.29512 0.71488 0.0
O156 O 0.61658 0.27055 0.74006 0.0
C157 C 0.68969 0.29802 0.74461 0.0
O158 O 0.64395 0.24416 0.75829 0.0
Co159 Co 0.6867 0.25215 0.72547 0.0
O160 O 0.6755 0.23519 0.75525 0.0
C161 C 0.63838 0.22973 0.69916 0.0
C162 C 0.62436 0.28858 0.72481 0.0
C163 C 0.65573 0.23265 0.76517 0.0
O164 O 0.63044 0.24204 0.71127 0.0
O165 O 0.66086 0.23293 0.70117 0.0
O166 O 0.67121 0.29919 0.75447 0.0
O167 O 0.68274 0.2819 0.72808 0.0
Co168 Co 0.38708 0.63801 0.89911 0.0
O169 O 0.35993 0.63666 0.88116 0.0
O170 O 0.35464 0.60645 0.9055 0.0
C171 C 0.40372 0.67984 0.90977 0.0
O172 O 0.40973 0.63303 0.92161 0.0
Co173 Co 0.44473 0.67627 0.88876 0.0
O174 O 0.45081 0.66543 0.91847 0.0
C175 C 0.41573 0.62773 0.86231 0.0
C176 C 0.34439 0.61498 0.89127 0.0
C177 C 0.4333 0.64518 0.92833 0.0
O178 O 0.39559 0.62006 0.87468 0.0
O179 O 0.43616 0.65003 0.86443 0.0
O180 O 0.38418 0.66126 0.92038 0.0
O181 O 0.4115 0.67282 0.89249 0.0
Co182 Co 0.75656 0.38178 0.07567 0.0
O183 O 0.7324 0.38504 0.09453 0.0
O184 O 0.7571 0.41356 0.06878 0.0
C185 C 0.72925 0.33978 0.06602 0.0
O186 O 0.78293 0.38517 0.05236 0.0
Co187 Co 0.77423 0.34263 0.08617 0.0
O188 O 0.792 0.3536 0.05676 0.0
C189 C 0.7955 0.39129 0.11242 0.0
C190 C 0.73914 0.40645 0.08382 0.0
C191 C 0.79456 0.37327 0.04624 0.0
O192 O 0.78472 0.39988 0.0991 0.0
O193 O 0.79159 0.36827 0.11111 0.0
O194 O 0.72834 0.35831 0.05564 0.0
O195 O 0.74501 0.34695 0.08274 0.0
Co196 Co 0.38318 0.74699 0.23529 0.0
O197 O 0.38432 0.72368 0.21355 0.0
O198 O 0.41422 0.74568 0.23913 0.0
C199 C 0.34164 0.71964 0.24542 0.0
O200 O 0.38881 0.77174 0.26118 0.0
Co201 Co 0.34587 0.76779 0.23209 0.0
O202 O 0.35549 0.77803 0.26388 0.0
C203 C 0.39435 0.79292 0.20551 0.0
C204 C 0.40576 0.72874 0.22295 0.0
C205 C 0.37633 0.78068 0.27151 0.0
O206 O 0.40108 0.77741 0.21374 0.0
O207 O 0.37294 0.79132 0.21005 0.0
O208 O 0.35995 0.71717 0.25405 0.0
O209 O 0.3487 0.7373 0.23015 0.0
H210 H 0.11201 0.55347 0.31464 0.0
H211 H 0.15546 0.57605 0.29892 0.0
H212 H 0.14519 0.63846 0.27694 0.0
H213 H 0.10194 0.61637 0.29323 0.0
H214 H 0.17362 0.62526 0.24612 0.0
H215 H 0.17168 0.64477 0.32473 0.0
H216 H 0.16143 0.63425 0.36491 0.0
H217 H 0.20632 0.59767 0.36621 0.0
H218 H 0.2164 0.60747 0.32591 0.0
H219 H 0.30217 0.72732 0.23552 0.0
H220 H 0.25697 0.70015 0.24578 0.0
H221 H 0.2739 0.64772 0.28071 0.0
H222 H 0.31951 0.67551 0.27114 0.0
H223 H 0.24154 0.65378 0.30442 0.0
H224 H 0.24451 0.63389 0.22718 0.0
H225 H 0.25499 0.64293 0.18689 0.0
H226 H 0.20859 0.67774 0.18255 0.0
H227 H 0.19809 0.66923 0.2229 0.0
C228 C 0.11878 0.57175 0.30603 0.0
C229 C 0.10361 0.58327 0.30546 0.0
C230 C 0.14363 0.58464 0.29711 0.0
C231 C 0.1537 0.60915 0.28719 0.0
C232 C 0.13779 0.6196 0.28465 0.0
C233 C 0.11297 0.60682 0.2938 0.0
C234 C 0.18141 0.62484 0.28136 0.0
C235 C 0.18851 0.63173 0.25885 0.0
C236 C 0.20079 0.63265 0.29797 0.0
C237 C 0.19454 0.62658 0.3222 0.0
C238 C 0.17912 0.63421 0.3335 0.0
C239 C 0.17338 0.62842 0.35632 0.0
C240 C 0.18318 0.61526 0.36809 0.0
C241 C 0.19871 0.60783 0.35706 0.0
C242 C 0.20443 0.61348 0.33423 0.0
C243 C 0.29631 0.71005 0.24545 0.0
C244 C 0.31441 0.7035 0.25244 0.0
C245 C 0.27038 0.69439 0.25118 0.0
C246 C 0.2618 0.67149 0.26361 0.0
C247 C 0.27996 0.66519 0.271 0.0
C248 C 0.30602 0.68107 0.26552 0.0
C249 C 0.23397 0.65437 0.26906 0.0
C250 C 0.22677 0.64721 0.29158 0.0
C251 C 0.21451 0.64604 0.25242 0.0
C252 C 0.2207 0.65112 0.22812 0.0
C253 C 0.23668 0.64364 0.21767 0.0
C254 C 0.24261 0.64864 0.19481 0.0
C255 C 0.23251 0.66096 0.18218 0.0
C256 C 0.21641 0.66823 0.19236 0.0
C257 C 0.21045 0.6633 0.21522 0.0
H258 H 0.23712 0.66481 0.16449 0.0
H259 H 0.17881 0.61088 0.38576 0.0
H260 H 0.52568 0.09009 0.44774 0.0
H261 H 0.54455 0.13361 0.43088 0.0
H262 H 0.51873 0.15863 0.48786 0.0
H263 H 0.49943 0.11537 0.50416 0.0
H264 H 0.51333 0.17966 0.4522 0.0
H265 H 0.58063 0.17007 0.48417 0.0
H266 H 0.6069 0.14994 0.48929 0.0
H267 H 0.63011 0.16487 0.42003 0.0
H268 H 0.60366 0.18478 0.41442 0.0
H269 H 0.63784 0.31603 0.44494 0.0
H270 H 0.61563 0.27025 0.45603 0.0
H271 H 0.56109 0.25135 0.40216 0.0
H272 H 0.58292 0.29699 0.39123 0.0
H273 H 0.60669 0.22704 0.43512 0.0
H274 H 0.50232 0.20342 0.41919 0.0
H275 H 0.47765 0.22566 0.42027 0.0
H276 H 0.53127 0.28068 0.46782 0.0
H277 H 0.55604 0.25859 0.46723 0.0
C278 C 0.52366 0.10482 0.45631 0.0
C279 C 0.51143 0.09959 0.47731 0.0
C280 C 0.53459 0.12969 0.44683 0.0
C281 C 0.53344 0.14957 0.4583 0.0
C282 C 0.51996 0.14375 0.47868 0.0
C283 C 0.50906 0.11906 0.48805 0.0
C284 C 0.54726 0.17682 0.45 0.0
C285 C 0.53369 0.1899 0.44823 0.0
C286 C 0.57401 0.19053 0.44548 0.0
C287 C 0.58994 0.17862 0.4488 0.0
C288 C 0.59118 0.16887 0.46999 0.0
C289 C 0.60612 0.15753 0.47299 0.0
C290 C 0.62011 0.15605 0.45498 0.0
C291 C 0.61923 0.16598 0.43395 0.0
C292 C 0.60427 0.17729 0.43085 0.0
C293 C 0.62108 0.30211 0.43551 0.0
C294 C 0.61204 0.31013 0.4173 0.0
C295 C 0.60849 0.27594 0.44178 0.0
C296 C 0.58658 0.25737 0.43003 0.0
C297 C 0.57774 0.26535 0.41167 0.0
C298 C 0.59028 0.29146 0.40542 0.0
C299 C 0.57268 0.22972 0.43716 0.0
C300 C 0.58625 0.21664 0.43874 0.0
C301 C 0.54611 0.21624 0.44233 0.0
C302 C 0.53118 0.22951 0.44294 0.0
C303 C 0.50879 0.22022 0.42991 0.0
C304 C 0.4948 0.23281 0.43044 0.0
C305 C 0.50294 0.25463 0.44404 0.0
C306 C 0.52504 0.26385 0.45721 0.0
C307 C 0.53909 0.25133 0.45676 0.0
H308 H 0.49209 0.26435 0.44441 0.0
H309 H 0.63168 0.14728 0.45734 0.0
H310 H 0.39417 0.47088 0.62585 0.0
H311 H 0.3701 0.49014 0.61084 0.0
H312 H 0.43492 0.56661 0.62407 0.0
H313 H 0.45872 0.54734 0.63948 0.0
H314 H 0.39349 0.56132 0.64274 0.0
H315 H 0.41323 0.54251 0.56925 0.0
H316 H 0.41483 0.51454 0.53978 0.0
H317 H 0.33258 0.46594 0.54171 0.0
H318 H 0.33052 0.49345 0.5714 0.0
H319 H 0.34396 0.63561 0.59982 0.0
H320 H 0.36907 0.61517 0.6069 0.0
H321 H 0.30454 0.54118 0.58671 0.0
H322 H 0.27984 0.56214 0.57816 0.0
H323 H 0.34492 0.54386 0.5714 0.0
H324 H 0.32428 0.56089 0.64486 0.0
H325 H 0.32163 0.58707 0.67547 0.0
H326 H 0.40382 0.63642 0.67533 0.0
H327 H 0.40695 0.61073 0.64452 0.0
C328 C 0.4036 0.4918 0.62472 0.0
C329 C 0.42836 0.50763 0.6337 0.0
C330 C 0.38978 0.50283 0.61624 0.0
C331 C 0.40063 0.52989 0.61632 0.0
C332 C 0.42604 0.5457 0.6239 0.0
C333 C 0.43973 0.5347 0.63252 0.0
C334 C 0.38482 0.54168 0.61083 0.0
C335 C 0.38317 0.55778 0.62698 0.0
C336 C 0.37052 0.53634 0.59066 0.0
C337 C 0.37175 0.51992 0.57269 0.0
C338 C 0.3955 0.52576 0.5635 0.0
C339 C 0.39649 0.51 0.54674 0.0
C340 C 0.37383 0.48844 0.53892 0.0
C341 C 0.35012 0.48264 0.5478 0.0
C342 C 0.34903 0.49832 0.56457 0.0
C343 C 0.33505 0.61495 0.59699 0.0
C344 C 0.30981 0.60041 0.58867 0.0
C345 C 0.34941 0.6032 0.60117 0.0
C346 C 0.3386 0.57639 0.59797 0.0
C347 C 0.31338 0.56185 0.58946 0.0
C348 C 0.2992 0.57379 0.58468 0.0
C349 C 0.35376 0.56375 0.60327 0.0
C350 C 0.3552 0.5474 0.58717 0.0
C351 C 0.36768 0.56858 0.62366 0.0
C352 C 0.36582 0.58402 0.64223 0.0
C353 C 0.34177 0.57742 0.65125 0.0
C354 C 0.34019 0.59216 0.66866 0.0
C355 C 0.36253 0.61343 0.6773 0.0
C356 C 0.38652 0.61996 0.6686 0.0
C357 C 0.38821 0.60531 0.65118 0.0
H358 H 0.36126 0.62481 0.69077 0.0
H359 H 0.37463 0.47626 0.52594 0.0
H360 H 0.9296 0.40504 0.79201 0.0
H361 H 0.88692 0.38285 0.7746 0.0
H362 H 0.87604 0.44548 0.79448 0.0
H363 H 0.91893 0.46811 0.81135 0.0
H364 H 0.83861 0.39653 0.81131 0.0
H365 H 0.87854 0.43574 0.7409 0.0
H366 H 0.90937 0.44707 0.70977 0.0
H367 H 0.87822 0.36629 0.69562 0.0
H368 H 0.84743 0.35445 0.72689 0.0
H369 H 0.71184 0.3428 0.76917 0.0
H370 H 0.75744 0.37121 0.77808 0.0
H371 H 0.77466 0.31832 0.74444 0.0
H372 H 0.72932 0.29066 0.73454 0.0
H373 H 0.80961 0.36406 0.73384 0.0
H374 H 0.77242 0.32369 0.80447 0.0
H375 H 0.74246 0.31028 0.83654 0.0
H376 H 0.76935 0.39004 0.85171 0.0
H377 H 0.79925 0.40393 0.81953 0.0
C378 C 0.91859 0.41462 0.79185 0.0
C379 C 0.92759 0.43825 0.80326 0.0
C380 C 0.89409 0.4018 0.78204 0.0
C381 C 0.87819 0.41238 0.78349 0.0
C382 C 0.88791 0.43687 0.79333 0.0
C383 C 0.91244 0.44979 0.80292 0.0
C384 C 0.85058 0.3967 0.7772 0.0
C385 C 0.83221 0.38977 0.79429 0.0
C386 C 0.84234 0.38714 0.7552 0.0
C387 C 0.86084 0.39421 0.73639 0.0
C388 C 0.87842 0.42038 0.73129 0.0
C389 C 0.89585 0.4269 0.71358 0.0
C390 C 0.8958 0.40741 0.70076 0.0
C391 C 0.87826 0.38136 0.70558 0.0
C392 C 0.86079 0.37474 0.72328 0.0
C393 C 0.72536 0.33719 0.76381 0.0
C394 C 0.71699 0.31444 0.75127 0.0
C395 C 0.75145 0.35341 0.76897 0.0
C396 C 0.76963 0.34682 0.76226 0.0
C397 C 0.76116 0.32396 0.74981 0.0
C398 C 0.73518 0.30805 0.74425 0.0
C399 C 0.79744 0.36374 0.768 0.0
C400 C 0.8159 0.37086 0.75087 0.0
C401 C 0.80586 0.37312 0.7901 0.0
C402 C 0.78787 0.36483 0.80945 0.0
C403 C 0.7718 0.33836 0.81454 0.0
C404 C 0.75486 0.33068 0.83275 0.0
C405 C 0.75395 0.34929 0.84611 0.0
C406 C 0.77004 0.37564 0.84132 0.0
C407 C 0.787 0.38343 0.82311 0.0
H408 H 0.74082 0.34331 0.86021 0.0
H409 H 0.90931 0.41249 0.68706 0.0
H410 H 0.51143 0.92948 0.9453 0.0
H411 H 0.49535 0.88655 0.92843 0.0
H412 H 0.48518 0.85327 0.99474 0.0
H413 H 0.50326 0.89577 0.01129 0.0
H414 H 0.50091 0.83089 0.97119 0.0
H415 H 0.43409 0.85052 0.95981 0.0
H416 H 0.41494 0.87558 0.94603 0.0
H417 H 0.4329 0.86657 0.87803 0.0
H418 H 0.45243 0.84171 0.89144 0.0
H419 H 0.40069 0.69943 0.95045 0.0
H420 H 0.42211 0.74528 0.96151 0.0
H421 H 0.4557 0.76802 0.89544 0.0
H422 H 0.43496 0.72233 0.88446 0.0
H423 H 0.43016 0.79595 0.91525 0.0
H424 H 0.49387 0.77167 0.93025 0.0
H425 H 0.50748 0.7431 0.94702 0.0
H426 H 0.48899 0.75802 0.01287 0.0
H427 H 0.47489 0.78639 0.99643 0.0
C428 C 0.50607 0.91303 0.95621 0.0
C429 C 0.50801 0.91613 0.97972 0.0
C430 C 0.49655 0.88839 0.94657 0.0
C431 C 0.48839 0.86635 0.96028 0.0
C432 C 0.49112 0.86972 0.98366 0.0
C433 C 0.5011 0.89418 0.99318 0.0
C434 C 0.47681 0.83963 0.95079 0.0
C435 C 0.48532 0.82336 0.95907 0.0
C436 C 0.45661 0.82953 0.93474 0.0
C437 C 0.44501 0.84456 0.92665 0.0
C438 C 0.43413 0.85407 0.94193 0.0
C439 C 0.42318 0.8682 0.93419 0.0
C440 C 0.42279 0.87274 0.91117 0.0
C441 C 0.43328 0.86309 0.89585 0.0
C442 C 0.44428 0.84898 0.90351 0.0
C443 C 0.41263 0.71422 0.93831 0.0
C444 C 0.41626 0.70734 0.91664 0.0
C445 C 0.42481 0.74034 0.94462 0.0
C446 C 0.44041 0.75995 0.92924 0.0
C447 C 0.44366 0.75314 0.90749 0.0
C448 C 0.43192 0.72705 0.90132 0.0
C449 C 0.45398 0.78756 0.9361 0.0
C450 C 0.44588 0.80381 0.92725 0.0
C451 C 0.474 0.79746 0.95213 0.0
C452 C 0.48314 0.78098 0.96208 0.0
C453 C 0.49256 0.76873 0.94829 0.0
C454 C 0.50038 0.75259 0.95774 0.0
C455 C 0.49906 0.74871 0.98099 0.0
C456 C 0.49 0.76104 0.99486 0.0
C457 C 0.48212 0.77718 0.98548 0.0
H458 H 0.5051 0.73619 0.98826 0.0
H459 H 0.41429 0.88367 0.90521 0.0
H460 H 0.58178 0.49355 0.10645 0.0
H461 H 0.60731 0.47677 0.08926 0.0
H462 H 0.66835 0.52095 0.13686 0.0
H463 H 0.64352 0.53839 0.15305 0.0
H464 H 0.68952 0.51973 0.10098 0.0
H465 H 0.61809 0.45435 0.14468 0.0
H466 H 0.5723 0.42565 0.15428 0.0
H467 H 0.558 0.39029 0.089 0.0
H468 H 0.60368 0.41902 0.07893 0.0
H469 H 0.7058 0.39978 0.11764 0.0
H470 H 0.68208 0.42216 0.12287 0.0
H471 H 0.71707 0.46719 0.0629 0.0
H472 H 0.74156 0.44549 0.0581 0.0
H473 H 0.64698 0.42387 0.10031 0.0
H474 H 0.72142 0.52565 0.06621 0.0
H475 H 0.76848 0.5544 0.06314 0.0
H476 H 0.77904 0.51688 0.12011 0.0
H477 H 0.73207 0.48815 0.12368 0.0
C478 C 0.60103 0.50031 0.11256 0.0
C479 C 0.61079 0.51731 0.13096 0.0
C480 C 0.61549 0.49047 0.103 0.0
C481 C 0.63964 0.49708 0.11205 0.0
C482 C 0.64989 0.51544 0.12946 0.0
C483 C 0.63569 0.52546 0.13874 0.0
C484 C 0.65358 0.4837 0.10504 0.0
C485 C 0.6801 0.49875 0.1006 0.0
C486 C 0.64161 0.4563 0.10493 0.0
C487 C 0.61419 0.43902 0.11096 0.0
C488 C 0.60513 0.44056 0.13233 0.0
C489 C 0.57922 0.42428 0.13786 0.0
C490 C 0.56224 0.40621 0.12224 0.0
C491 C 0.57116 0.40434 0.10107 0.0
C492 C 0.59705 0.42061 0.09544 0.0
C493 C 0.70864 0.41463 0.10569 0.0
C494 C 0.72574 0.42099 0.08756 0.0
C495 C 0.69491 0.42731 0.1086 0.0
C496 C 0.69779 0.44655 0.09338 0.0
C497 C 0.71477 0.4528 0.07515 0.0
C498 C 0.72878 0.44034 0.0724 0.0
C499 C 0.68299 0.45992 0.09671 0.0
C500 C 0.65632 0.44485 0.10034 0.0
C501 C 0.695 0.48731 0.09695 0.0
C502 C 0.72326 0.50455 0.095 0.0
C503 C 0.7338 0.52358 0.07809 0.0
C504 C 0.76045 0.53986 0.07627 0.0
C505 C 0.77674 0.53739 0.09137 0.0
C506 C 0.76641 0.51869 0.10837 0.0
C507 C 0.73978 0.50238 0.11028 0.0
H508 H 0.79737 0.55001 0.08992 0.0
H509 H 0.54218 0.39362 0.12655 0.0
H510 H 0.40856 0.92153 0.52125 0.0
H511 H 0.38653 0.87826 0.53814 0.0
H512 H 0.44729 0.86648 0.51557 0.0
H513 H 0.46982 0.90997 0.49924 0.0
H514 H 0.39816 0.83047 0.49879 0.0
H515 H 0.4383 0.86782 0.56995 0.0
H516 H 0.44973 0.89779 0.602 0.0
H517 H 0.36973 0.86606 0.61679 0.0
H518 H 0.35781 0.83612 0.58461 0.0
H519 H 0.34632 0.7012 0.53781 0.0
H520 H 0.37394 0.7474 0.52928 0.0
H521 H 0.32162 0.76348 0.56481 0.0
H522 H 0.29468 0.71756 0.5742 0.0
H523 H 0.36718 0.79814 0.57585 0.0
H524 H 0.3264 0.76238 0.50508 0.0
H525 H 0.31318 0.73427 0.47157 0.0
H526 H 0.39234 0.76467 0.45416 0.0
H527 H 0.40604 0.79261 0.4878 0.0
C528 C 0.41783 0.91022 0.52075 0.0
C529 C 0.44084 0.91913 0.5087 0.0
C530 C 0.4051 0.88538 0.53029 0.0
C531 C 0.41517 0.86908 0.5279 0.0
C532 C 0.43914 0.87871 0.51749 0.0
C533 C 0.45198 0.90358 0.50818 0.0
C534 C 0.39928 0.84109 0.53344 0.0
C535 C 0.39191 0.82329 0.51571 0.0
C536 C 0.39001 0.83196 0.55534 0.0
C537 C 0.39716 0.84988 0.57474 0.0
C538 C 0.42314 0.86738 0.57991 0.0
C539 C 0.42971 0.88433 0.59813 0.0
C540 C 0.41047 0.88387 0.61139 0.0
C541 C 0.38462 0.86641 0.60649 0.0
C542 C 0.37794 0.84943 0.58828 0.0
C543 C 0.34065 0.7146 0.54364 0.0
C544 C 0.31831 0.70577 0.55662 0.0
C545 C 0.3564 0.74102 0.53871 0.0
C546 C 0.34979 0.75904 0.54618 0.0
C547 C 0.32726 0.75008 0.55891 0.0
C548 C 0.31178 0.72378 0.56417 0.0
C549 C 0.36648 0.78724 0.54115 0.0
C550 C 0.37378 0.80516 0.55892 0.0
C551 C 0.3755 0.79658 0.51915 0.0
C552 C 0.36724 0.77933 0.49917 0.0
C553 C 0.34099 0.76284 0.49427 0.0
C554 C 0.33341 0.74697 0.47521 0.0
C555 C 0.3519 0.7476 0.4608 0.0
C556 C 0.37802 0.76413 0.46538 0.0
C557 C 0.38571 0.77996 0.48445 0.0
H558 H 0.34599 0.73534 0.44603 0.0
H559 H 0.4156 0.89701 0.62549 0.0
H560 H 0.55771 0.45247 0.67573 0.0
H561 H 0.57546 0.42752 0.69176 0.0
H562 H 0.49886 0.36193 0.70078 0.0
H563 H 0.48094 0.38672 0.68435 0.0
H564 H 0.5391 0.37006 0.73588 0.0
H565 H 0.52223 0.36187 0.65538 0.0
H566 H 0.52525 0.38122 0.61806 0.0
H567 H 0.60764 0.42143 0.62158 0.0
H568 H 0.60511 0.4028 0.65919 0.0
H569 H 0.57499 0.27432 0.7365 0.0
H570 H 0.553 0.29828 0.72951 0.0
H571 H 0.62085 0.35861 0.69629 0.0
H572 H 0.6423 0.33418 0.70228 0.0
H573 H 0.58262 0.35208 0.67397 0.0
H574 H 0.60194 0.36298 0.75286 0.0
H575 H 0.60194 0.34921 0.79195 0.0
H576 H 0.51944 0.30886 0.7932 0.0
H577 H 0.51895 0.32213 0.75399 0.0
C578 C 0.54461 0.43305 0.68188 0.0
C579 C 0.51795 0.42145 0.67855 0.0
C580 C 0.55478 0.41881 0.691 0.0
C581 C 0.53848 0.39276 0.69709 0.0
C582 C 0.51175 0.38202 0.69616 0.0
C583 C 0.50152 0.39626 0.68688 0.0
C584 C 0.54941 0.37593 0.70088 0.0
C585 C 0.54832 0.36576 0.72235 0.0
C586 C 0.56194 0.3709 0.68327 0.0
C587 C 0.56347 0.3811 0.66019 0.0
C588 C 0.54099 0.37494 0.64825 0.0
C589 C 0.54261 0.38579 0.62705 0.0
C590 C 0.56662 0.40259 0.61747 0.0
C591 C 0.58905 0.40844 0.62903 0.0
C592 C 0.58754 0.39774 0.65029 0.0
C593 C 0.58512 0.29262 0.72759 0.0
C594 C 0.61039 0.30233 0.71995 0.0
C595 C 0.57261 0.30645 0.72375 0.0
C596 C 0.58534 0.33062 0.71271 0.0
C597 C 0.61048 0.34008 0.70483 0.0
C598 C 0.62279 0.32606 0.70829 0.0
C599 C 0.57268 0.34612 0.70922 0.0
C600 C 0.57336 0.3561 0.68764 0.0
C601 C 0.56017 0.35132 0.72686 0.0
C602 C 0.5604 0.3433 0.75041 0.0
C603 C 0.5838 0.351 0.76141 0.0
C604 C 0.58388 0.34332 0.7836 0.0
C605 C 0.5607 0.3281 0.79503 0.0
C606 C 0.53738 0.3206 0.78431 0.0
C607 C 0.53719 0.32821 0.76211 0.0
H608 H 0.56081 0.32218 0.81221 0.0
H609 H 0.56783 0.41102 0.60108 0.0
H610 H 0.09875 0.4761 0.85557 0.0
H611 H 0.14197 0.49396 0.8714 0.0
H612 H 0.15675 0.57146 0.86092 0.0
H613 H 0.11374 0.55361 0.84486 0.0
H614 H 0.19087 0.56354 0.83922 0.0
H615 H 0.1552 0.54746 0.91408 0.0
H616 H 0.12595 0.52051 0.94447 0.0
H617 H 0.15674 0.47031 0.94154 0.0
H618 H 0.18596 0.49678 0.91091 0.0
H619 H 0.31762 0.63712 0.87702 0.0
H620 H 0.27133 0.61696 0.87242 0.0
H621 H 0.2609 0.54316 0.89258 0.0
H622 H 0.30749 0.56387 0.89858 0.0
H623 H 0.22393 0.54686 0.90961 0.0
H624 H 0.25813 0.5603 0.83512 0.0
H625 H 0.28655 0.58473 0.80338 0.0
H626 H 0.2573 0.63632 0.80357 0.0
H627 H 0.22893 0.6124 0.83549 0.0
C628 C 0.11081 0.4969 0.85765 0.0
C629 C 0.10291 0.5135 0.84909 0.0
C630 C 0.1356 0.50712 0.86656 0.0
C631 C 0.15274 0.53409 0.8672 0.0
C632 C 0.14395 0.55061 0.8605 0.0
C633 C 0.1193 0.54042 0.85152 0.0
C634 C 0.18064 0.5451 0.87171 0.0
C635 C 0.19811 0.56025 0.8548 0.0
C636 C 0.19005 0.53978 0.89154 0.0
C637 C 0.17261 0.52398 0.91006 0.0
C638 C 0.1556 0.53056 0.91979 0.0
C639 C 0.13905 0.51539 0.93709 0.0
C640 C 0.13944 0.49367 0.94489 0.0
C641 C 0.15644 0.48712 0.93546 0.0
C642 C 0.17302 0.50222 0.91816 0.0
C643 C 0.3055 0.61656 0.88038 0.0
C644 C 0.31623 0.60199 0.88786 0.0
C645 C 0.27896 0.60498 0.87766 0.0
C646 C 0.26247 0.5783 0.88153 0.0
C647 C 0.27313 0.56372 0.88933 0.0
C648 C 0.29976 0.57552 0.89263 0.0
C649 C 0.23425 0.56585 0.87729 0.0
C650 C 0.21671 0.55024 0.89408 0.0
C651 C 0.22461 0.57034 0.85713 0.0
C652 C 0.24155 0.58467 0.83782 0.0
C653 C 0.25787 0.57695 0.82848 0.0
C654 C 0.27396 0.59069 0.81044 0.0
C655 C 0.27377 0.61209 0.8015 0.0
C656 C 0.25744 0.61975 0.81053 0.0
C657 C 0.24133 0.60609 0.82857 0.0
H658 H 0.28625 0.62271 0.78754 0.0
H659 H 0.1266 0.48195 0.95828 0.0
H660 H 0.55633 0.10466 0.01038 0.0
H661 H 0.57885 0.14756 0.0281 0.0
H662 H 0.64663 0.14203 0.03543 0.0
H663 H 0.62388 0.09884 0.01834 0.0
H664 H 0.64222 0.17019 0.06977 0.0
H665 H 0.63361 0.1648 0.98839 0.0
H666 H 0.60659 0.14974 0.9544 0.0
H667 H 0.57388 0.19599 0.97162 0.0
H668 H 0.59939 0.20997 0.0066 0.0
H669 H 0.74051 0.30159 0.06991 0.0
H670 H 0.71275 0.25557 0.0613 0.0
H671 H 0.65236 0.26934 0.0411 0.0
H672 H 0.68098 0.31578 0.04813 0.0
H673 H 0.65034 0.23624 0.01489 0.0
H674 H 0.65533 0.24115 0.09524 0.0
H675 H 0.67654 0.25317 0.13234 0.0
H676 H 0.71223 0.20869 0.11897 0.0
H677 H 0.69147 0.19666 0.08167 0.0
C678 C 0.57569 0.11222 0.01662 0.0
C679 C 0.58842 0.09854 0.01296 0.0
C680 C 0.5886 0.13677 0.02659 0.0
C681 C 0.61466 0.14831 0.03251 0.0
C682 C 0.62659 0.1336 0.03087 0.0
C683 C 0.61355 0.10887 0.02119 0.0
C684 C 0.6304 0.17655 0.03749 0.0
C685 C 0.64414 0.18468 0.05776 0.0
C686 C 0.63241 0.19547 0.02201 0.0
C687 C 0.61825 0.18824 0.00028 0.0
C688 C 0.62058 0.17168 0.98502 0.0
C689 C 0.6055 0.1633 0.96557 0.0
C690 C 0.58873 0.17209 0.96071 0.0
C691 C 0.58689 0.18919 0.97539 0.0
C692 C 0.60152 0.19721 0.99512 0.0
C693 C 0.72136 0.29477 0.06349 0.0
C694 C 0.71283 0.31218 0.05977 0.0
C695 C 0.70535 0.26837 0.05879 0.0
C696 C 0.68001 0.25858 0.05118 0.0
C697 C 0.6717 0.27618 0.04705 0.0
C698 C 0.68805 0.30275 0.05107 0.0
C699 C 0.66232 0.23015 0.04734 0.0
C700 C 0.64832 0.22191 0.02713 0.0
C701 C 0.65965 0.21114 0.0631 0.0
C702 C 0.672 0.21818 0.08559 0.0
C703 C 0.66781 0.23405 0.10017 0.0
C704 C 0.67974 0.24086 0.12123 0.0
C705 C 0.69577 0.23175 0.12799 0.0
C706 C 0.69983 0.21575 0.11371 0.0
C707 C 0.68796 0.2089 0.09262 0.0
H708 H 0.705 0.23705 0.1443 0.0
H709 H 0.57712 0.16558 0.9456 0.0
H710 H 0.53995 0.62096 0.18257 0.0
H711 H 0.52183 0.64573 0.1985 0.0
H712 H 0.44586 0.58519 0.17905 0.0
H713 H 0.4636 0.55985 0.16396 0.0
H714 H 0.46473 0.63724 0.15988 0.0
H715 H 0.45423 0.59326 0.23039 0.0
H716 H 0.46892 0.579 0.26303 0.0
H717 H 0.52215 0.65834 0.28064 0.0
H718 H 0.50802 0.67309 0.24788 0.0
H719 H 0.38713 0.68589 0.19624 0.0
H720 H 0.40651 0.65985 0.18847 0.0
H721 H 0.47303 0.71258 0.22774 0.0
H722 H 0.45316 0.73823 0.23631 0.0
H723 H 0.46118 0.66575 0.23735 0.0
H724 H 0.47334 0.7108 0.16822 0.0
H725 H 0.46161 0.72695 0.13489 0.0
H726 H 0.40956 0.64873 0.11348 0.0
H727 H 0.42071 0.63209 0.14686 0.0
C728 C 0.51928 0.61239 0.18254 0.0
C729 C 0.50327 0.58851 0.17173 0.0
C730 C 0.50898 0.62671 0.19148 0.0
C731 C 0.48255 0.61744 0.18966 0.0
C732 C 0.46633 0.59278 0.18045 0.0
C733 C 0.47652 0.57833 0.17185 0.0
C734 C 0.4722 0.63452 0.19484 0.0
C735 C 0.46361 0.64322 0.17685 0.0
C736 C 0.47173 0.6431 0.21686 0.0
C737 C 0.48029 0.63427 0.23652 0.0
C738 C 0.46927 0.60767 0.24107 0.0
C739 C 0.47744 0.5995 0.25964 0.0
C740 C 0.49651 0.61775 0.27386 0.0
C741 C 0.50741 0.64422 0.26959 0.0
C742 C 0.49931 0.6525 0.25103 0.0
C743 C 0.406 0.69213 0.20306 0.0
C744 C 0.41867 0.71427 0.21677 0.0
C745 C 0.41714 0.67722 0.19854 0.0
C746 C 0.44149 0.68436 0.2072 0.0
C747 C 0.45426 0.7066 0.22082 0.0
C748 C 0.44295 0.72136 0.22559 0.0
C749 C 0.45329 0.66832 0.20235 0.0
C750 C 0.46229 0.65988 0.22034 0.0
C751 C 0.45456 0.66028 0.18022 0.0
C752 C 0.44769 0.6702 0.16017 0.0
C753 C 0.45923 0.69704 0.15651 0.0
C754 C 0.45272 0.70628 0.13758 0.0
C755 C 0.43481 0.68888 0.1221 0.0
C756 C 0.42341 0.66219 0.1255 0.0
C757 C 0.42983 0.65284 0.14441 0.0
H758 H 0.4298 0.69607 0.10746 0.0
H759 H 0.50281 0.61138 0.28824 0.0
H760 H 0.91282 0.46541 0.33073 0.0
H761 H 0.86925 0.44747 0.34553 0.0
H762 H 0.88491 0.52469 0.35898 0.0
H763 H 0.92879 0.54283 0.34436 0.0
H764 H 0.85491 0.48347 0.39408 0.0
H765 H 0.83369 0.49718 0.31063 0.0
H766 H 0.83875 0.49357 0.2698 0.0
H767 H 0.83585 0.42144 0.28031 0.0
H768 H 0.82975 0.42422 0.32108 0.0
H769 H 0.72351 0.45125 0.40459 0.0
H770 H 0.7696 0.47213 0.3962 0.0
H771 H 0.75541 0.40387 0.35986 0.0
H772 H 0.70962 0.38357 0.36737 0.0
H773 H 0.78589 0.44299 0.33666 0.0
H774 H 0.78379 0.42127 0.41467 0.0
H775 H 0.77443 0.42098 0.45507 0.0
H776 H 0.8223 0.50396 0.45717 0.0
H777 H 0.83169 0.50477 0.4167 0.0
C778 C 0.90713 0.47856 0.3372 0.0
C779 C 0.92421 0.50554 0.33633 0.0
C780 C 0.88216 0.46829 0.34546 0.0
C781 C 0.87364 0.48477 0.35281 0.0
C782 C 0.89107 0.51165 0.35323 0.0
C783 C 0.91618 0.52197 0.34505 0.0
C784 C 0.84626 0.47388 0.35907 0.0
C785 C 0.83975 0.47478 0.38157 0.0
C786 C 0.82648 0.46214 0.34288 0.0
C787 C 0.83186 0.4612 0.31881 0.0
C788 C 0.83436 0.4807 0.30419 0.0
C789 C 0.83714 0.47866 0.28107 0.0
C790 C 0.83779 0.45737 0.27248 0.0
C791 C 0.83547 0.43798 0.28699 0.0
C792 C 0.83223 0.43971 0.31008 0.0
C793 C 0.73029 0.44079 0.39477 0.0
C794 C 0.71288 0.41582 0.38654 0.0
C795 C 0.75668 0.45264 0.39013 0.0
C796 C 0.76618 0.43952 0.37756 0.0
C797 C 0.7487 0.41453 0.3695 0.0
C798 C 0.72243 0.4029 0.37382 0.0
C799 C 0.79406 0.45184 0.37194 0.0
C800 C 0.80081 0.45154 0.3494 0.0
C801 C 0.81388 0.46352 0.3883 0.0
C802 C 0.80819 0.4631 0.4126 0.0
C803 C 0.79214 0.43947 0.42371 0.0
C804 C 0.78687 0.43921 0.44663 0.0
C805 C 0.7977 0.46245 0.45867 0.0
C806 C 0.81389 0.48599 0.44782 0.0
C807 C 0.8192 0.48635 0.42489 0.0
H808 H 0.7936 0.4622 0.47641 0.0
H809 H 0.84001 0.45586 0.25458 0.0
H810 H 0.07563 0.53031 0.38085 0.0
H811 H 0.10143 0.53959 0.41521 0.0
H812 H 0.10054 0.61024 0.42426 0.0
H813 H 0.07425 0.60069 0.39028 0.0
H814 H 0.15123 0.61346 0.41702 0.0
H815 H 0.07415 0.57154 0.46219 0.0
H816 H 0.03166 0.53513 0.47344 0.0
H817 H 0.06458 0.48793 0.48614 0.0
H818 H 0.10723 0.52397 0.47462 0.0
H819 H 0.22234 0.66907 0.51608 0.0
H820 H 0.19067 0.65127 0.48585 0.0
H821 H 0.18404 0.57681 0.49415 0.0
H822 H 0.21591 0.59454 0.52456 0.0
H823 H 0.13691 0.57222 0.49211 0.0
H824 H 0.21288 0.61134 0.44888 0.0
H825 H 0.25576 0.64462 0.43525 0.0
H826 H 0.22627 0.69319 0.41579 0.0
H827 H 0.18327 0.6604 0.42968 0.0
C828 C 0.07991 0.54714 0.39083 0.0
C829 C 0.07275 0.56465 0.38313 0.0
C830 C 0.09476 0.55251 0.41032 0.0
C831 C 0.10295 0.57565 0.42215 0.0
C832 C 0.09429 0.59223 0.41537 0.0
C833 C 0.07906 0.58663 0.39612 0.0
C834 C 0.12345 0.58439 0.43933 0.0
C835 C 0.14809 0.60475 0.43359 0.0
C836 C 0.11947 0.57205 0.46043 0.0
C837 C 0.09383 0.55035 0.46727 0.0
C838 C 0.07228 0.5533 0.46712 0.0
C839 C 0.04818 0.53276 0.47362 0.0
C840 C 0.04541 0.5092 0.48043 0.0
C841 C 0.06675 0.50617 0.48082 0.0
C842 C 0.0909 0.52666 0.47432 0.0
C843 C 0.21437 0.64895 0.51138 0.0
C844 C 0.22168 0.63324 0.5228 0.0
C845 C 0.1963 0.63882 0.49401 0.0
C846 C 0.18501 0.61272 0.48767 0.0
C847 C 0.19249 0.59701 0.49877 0.0
C848 C 0.21083 0.60723 0.51605 0.0
C849 C 0.16472 0.60185 0.47003 0.0
C850 C 0.14017 0.58098 0.47556 0.0
C851 C 0.16888 0.61336 0.44847 0.0
C852 C 0.19488 0.63352 0.44063 0.0
C853 C 0.21559 0.62927 0.44199 0.0
C854 C 0.23991 0.64801 0.43414 0.0
C855 C 0.24376 0.67105 0.42474 0.0
C856 C 0.22328 0.67536 0.42314 0.0
C857 C 0.19892 0.6567 0.431 0.0
H858 H 0.2626 0.68552 0.41863 0.0
H859 H 0.02673 0.49332 0.48547 0.0
H860 H 0.47364 0.05803 0.55942 0.0
H861 H 0.49119 0.08186 0.59469 0.0
H862 H 0.56415 0.08892 0.58013 0.0
H863 H 0.54677 0.06563 0.54459 0.0
H864 H 0.54916 0.08297 0.62869 0.0
H865 H 0.56055 0.13476 0.56184 0.0
H866 H 0.5451 0.14639 0.52802 0.0
H867 H 0.49288 0.15741 0.56852 0.0
H868 H 0.508 0.14571 0.60261 0.0
H869 H 0.64842 0.19954 0.67185 0.0
H870 H 0.61892 0.16431 0.6475 0.0
H871 H 0.55807 0.17816 0.66515 0.0
H872 H 0.58772 0.21388 0.6899 0.0
H873 H 0.56039 0.1703 0.61917 0.0
H874 H 0.55671 0.12719 0.68736 0.0
H875 H 0.57399 0.11685 0.72069 0.0
H876 H 0.61206 0.08936 0.67804 0.0
H877 H 0.59533 0.09991 0.64442 0.0
C878 C 0.493 0.06354 0.56435 0.0
C879 C 0.50881 0.05977 0.54955 0.0
C880 C 0.50307 0.07733 0.58436 0.0
C881 C 0.52899 0.08728 0.58988 0.0
C882 C 0.54405 0.08125 0.57621 0.0
C883 C 0.53411 0.06783 0.55602 0.0
C884 C 0.54148 0.10729 0.60761 0.0
C885 C 0.55165 0.10206 0.62668 0.0
C886 C 0.54426 0.13202 0.60511 0.0
C887 C 0.53516 0.13907 0.5847 0.0
C888 C 0.54562 0.13945 0.5635 0.0
C889 C 0.53697 0.14611 0.54429 0.0
C890 C 0.51792 0.15252 0.5461 0.0
C891 C 0.50758 0.15239 0.56714 0.0
C892 C 0.51622 0.14579 0.58641 0.0
C893 C 0.62883 0.19532 0.67063 0.0
C894 C 0.62049 0.2096 0.68303 0.0
C895 C 0.6119 0.17497 0.65673 0.0
C896 C 0.58618 0.16827 0.65485 0.0
C897 C 0.57783 0.18289 0.66655 0.0
C898 C 0.59481 0.20332 0.68064 0.0
C899 C 0.56845 0.14617 0.64026 0.0
C900 C 0.5574 0.15105 0.62159 0.0
C901 C 0.56493 0.12114 0.64318 0.0
C902 C 0.57487 0.1145 0.66335 0.0
C903 C 0.56891 0.1191 0.68507 0.0
C904 C 0.57859 0.11318 0.70402 0.0
C905 C 0.59414 0.10249 0.70148 0.0
C906 C 0.6 0.09764 0.67998 0.0
C907 C 0.59039 0.10356 0.66097 0.0
H908 H 0.60163 0.09792 0.71617 0.0
H909 H 0.51123 0.15767 0.53122 0.0
H910 H 0.40919 0.46601 0.71384 0.0
H911 H 0.40105 0.48372 0.74785 0.0
H912 H 0.47929 0.54798 0.74659 0.0
H913 H 0.48721 0.53063 0.7121 0.0
H914 H 0.45512 0.52585 0.7925 0.0
H915 H 0.44399 0.56034 0.72242 0.0
H916 H 0.42646 0.55605 0.68417 0.0
H917 H 0.34964 0.51385 0.71047 0.0
H918 H 0.36674 0.5174 0.74885 0.0
H919 H 0.45798 0.63292 0.84131 0.0
H920 H 0.46055 0.60329 0.81524 0.0
H921 H 0.37841 0.55188 0.81902 0.0
H922 H 0.37553 0.58163 0.84566 0.0
H923 H 0.39988 0.56205 0.77395 0.0
H924 H 0.41161 0.53302 0.84502 0.0
H925 H 0.42959 0.53739 0.88306 0.0
H926 H 0.50525 0.56942 0.85515 0.0
H927 H 0.48778 0.56563 0.81693 0.0
C928 C 0.42493 0.48327 0.72145 0.0
C929 C 0.44893 0.4968 0.71071 0.0
C930 C 0.42021 0.49347 0.74071 0.0
C931 C 0.43953 0.51719 0.74958 0.0
C932 C 0.46421 0.52956 0.74002 0.0
C933 C 0.46879 0.5196 0.72047 0.0
C934 C 0.43306 0.53074 0.76674 0.0
C935 C 0.44315 0.53387 0.78849 0.0
C936 C 0.41695 0.54066 0.7615 0.0
C937 C 0.40664 0.53879 0.73847 0.0
C938 C 0.42336 0.54988 0.72002 0.0
C939 C 0.41351 0.54764 0.69832 0.0
C940 C 0.38695 0.5346 0.69488 0.0
C941 C 0.37021 0.52388 0.71315 0.0
C942 C 0.37997 0.52599 0.73488 0.0
C943 C 0.44031 0.61542 0.83662 0.0
C944 C 0.41649 0.60972 0.84564 0.0
C945 C 0.4419 0.59841 0.82176 0.0
C946 C 0.41974 0.57529 0.81539 0.0
C947 C 0.39576 0.56962 0.82385 0.0
C948 C 0.39416 0.5866 0.83907 0.0
C949 C 0.42216 0.55744 0.79976 0.0
C950 C 0.41145 0.55363 0.77818 0.0
C951 C 0.43774 0.54694 0.80515 0.0
C952 C 0.44839 0.54922 0.8281 0.0
C953 C 0.43211 0.5412 0.84699 0.0
C954 C 0.44221 0.54354 0.86859 0.0
C955 C 0.46856 0.55372 0.87153 0.0
C956 C 0.48485 0.56154 0.85285 0.0
C957 C 0.47485 0.55928 0.83121 0.0
H958 H 0.47634 0.5555 0.88826 0.0
H959 H 0.37934 0.53285 0.67808 0.0
H960 H 0.94363 0.4851 0.87641 0.0
H961 H 0.91901 0.47484 0.9113 0.0
H962 H 0.94143 0.4195 0.92844 0.0
H963 H 0.96542 0.42912 0.89318 0.0
H964 H 0.8907 0.39733 0.92814 0.0
H965 H 0.96032 0.47543 0.96009 0.0
H966 H 0.99244 0.52222 0.96158 0.0
H967 H 0.93213 0.53965 0.96018 0.0
H968 H 0.89964 0.49296 0.95836 0.0
H969 H 0.82706 0.35727 0.0321 0.0
H970 H 0.85913 0.37561 0.00241 0.0
H971 H 0.83654 0.43123 0.98714 0.0
H972 H 0.8046 0.41334 0.01743 0.0
H973 H 0.88767 0.45428 0.9868 0.0
H974 H 0.81852 0.37813 0.95316 0.0
H975 H 0.78526 0.3318 0.95015 0.0
H976 H 0.84342 0.31138 0.95276 0.0
H977 H 0.87703 0.35759 0.95608 0.0
C978 C 0.94394 0.47131 0.88795 0.0
C979 C 0.95632 0.45779 0.88195 0.0
C980 C 0.9299 0.46551 0.90795 0.0
C981 C 0.92822 0.44628 0.9225 0.0
C982 C 0.94237 0.43434 0.91744 0.0
C983 C 0.95635 0.44008 0.89739 0.0
C984 C 0.9092 0.43625 0.94122 0.0
C985 C 0.8904 0.40974 0.94123 0.0
C986 C 0.90802 0.45259 0.95771 0.0
C987 C 0.92755 0.48068 0.9589 0.0
C988 C 0.95391 0.48924 0.95992 0.0
C989 C 0.97218 0.51575 0.96086 0.0
C990 C 0.96434 0.5339 0.96093 0.0
C991 C 0.93818 0.52557 0.96011 0.0
C992 C 0.91983 0.49909 0.95916 0.0
C993 C 0.82867 0.37329 0.02239 0.0
C994 C 0.81301 0.38367 0.02714 0.0
C995 C 0.84708 0.38376 0.00533 0.0
C996 C 0.85009 0.40461 0.99229 0.0
C997 C 0.83457 0.41512 0.99695 0.0
C998 C 0.8162 0.40475 0.0142 0.0
C999 C 0.86949 0.41531 0.97387 0.0
C1000 C 0.88816 0.4419 0.9738 0.0
C1001 C 0.87044 0.39913 0.95709 0.0
C1002 C 0.85027 0.37131 0.95508 0.0
C1003 C 0.82421 0.36375 0.95327 0.0
C1004 C 0.80529 0.33751 0.95147 0.0
C1005 C 0.81222 0.31866 0.95132 0.0
C1006 C 0.83808 0.32601 0.95291 0.0
C1007 C 0.85708 0.35222 0.95472 0.0
H1008 H 0.79754 0.29836 0.94993 0.0
H1009 H 0.97852 0.55441 0.96166 0.0
H1010 H 0.47047 0.94925 0.04218 0.0
H1011 H 0.45312 0.92622 0.07771 0.0
H1012 H 0.52886 0.9435 0.09719 0.0
H1013 H 0.54626 0.96686 0.06174 0.0
H1014 H 0.4541 0.8829 0.08511 0.0
H1015 H 0.52911 0.93535 0.1553 0.0
H1016 H 0.56085 0.97989 0.16733 0.0
H1017 H 0.51616 0.00815 0.13595 0.0
H1018 H 0.484 0.96375 0.124 0.0
H1019 H 0.42945 0.7943 0.17529 0.0
H1020 H 0.45543 0.82908 0.14815 0.0
H1021 H 0.42552 0.8748 0.17526 0.0
H1022 H 0.39942 0.84026 0.20194 0.0
H1023 H 0.47898 0.90449 0.16518 0.0
H1024 H 0.39752 0.84089 0.1315 0.0
H1025 H 0.36452 0.79679 0.11957 0.0
H1026 H 0.41984 0.79246 0.07769 0.0
H1027 H 0.45329 0.83644 0.08965 0.0
C1028 C 0.48358 0.94925 0.05457 0.0
C1029 C 0.5097 0.95993 0.04931 0.0
C1030 C 0.47363 0.93581 0.07473 0.0
C1031 C 0.4896 0.93281 0.09 0.0
C1032 C 0.51616 0.94567 0.08577 0.0
C1033 C 0.52616 0.95924 0.06558 0.0
C1034 C 0.47795 0.9134 0.10845 0.0
C1035 C 0.4596 0.88773 0.1026 0.0
C1036 C 0.48526 0.91949 0.13127 0.0
C1037 C 0.50429 0.94625 0.13856 0.0
C1038 C 0.52602 0.95106 0.15104 0.0
C1039 C 0.54409 0.97628 0.15783 0.0
C1040 C 0.54057 0.99685 0.15234 0.0
C1041 C 0.51892 0.99222 0.14011 0.0
C1042 C 0.50079 0.96703 0.13329 0.0
C1043 C 0.42873 0.81192 0.1756 0.0
C1044 C 0.41216 0.81442 0.19051 0.0
C1045 C 0.44354 0.83174 0.16014 0.0
C1046 C 0.44232 0.85448 0.15969 0.0
C1047 C 0.42682 0.85749 0.17536 0.0
C1048 C 0.41174 0.8376 0.19046 0.0
C1049 C 0.4552 0.87422 0.14172 0.0
C1050 C 0.47375 0.8998 0.14763 0.0
C1051 C 0.44804 0.86817 0.11891 0.0
C1052 C 0.42796 0.84179 0.11168 0.0
C1053 C 0.4027 0.83043 0.11991 0.0
C1054 C 0.3839 0.80548 0.11311 0.0
C1055 C 0.3901 0.79179 0.09794 0.0
C1056 C 0.41509 0.80306 0.08948 0.0
C1057 C 0.43397 0.828 0.09626 0.0
H1058 H 0.37552 0.77248 0.09269 0.0
H1059 H 0.55458 0.01636 0.15761 0.0
H1060 H 0.54257 0.5016 0.21671 0.0
H1061 H 0.54622 0.48537 0.25383 0.0
H1062 H 0.62566 0.51104 0.23976 0.0
H1063 H 0.62235 0.52807 0.20378 0.0
H1064 H 0.55339 0.44829 0.26317 0.0
H1065 H 0.66219 0.52323 0.28314 0.0
H1066 H 0.6917 0.57059 0.2817 0.0
H1067 H 0.62752 0.58212 0.28392 0.0
H1068 H 0.59761 0.53486 0.28572 0.0
H1069 H 0.60311 0.38287 0.31908 0.0
H1070 H 0.59597 0.41035 0.29345 0.0
H1071 H 0.61525 0.46631 0.34665 0.0
H1072 H 0.62429 0.43958 0.37177 0.0
H1073 H 0.63104 0.49166 0.31156 0.0
H1074 H 0.55006 0.41998 0.32976 0.0
H1075 H 0.51663 0.37412 0.33552 0.0
H1076 H 0.51793 0.35923 0.26505 0.0
H1077 H 0.55164 0.40492 0.25891 0.0
C1078 C 0.56092 0.50437 0.22199 0.0
C1079 C 0.58211 0.51587 0.20737 0.0
C1080 C 0.56298 0.49496 0.24307 0.0
C1081 C 0.58631 0.49713 0.24981 0.0
C1082 C 0.60762 0.50961 0.23542 0.0
C1083 C 0.60564 0.51911 0.21466 0.0
C1084 C 0.58823 0.48428 0.27058 0.0
C1085 C 0.5702 0.45788 0.27392 0.0
C1086 C 0.60964 0.4969 0.28528 0.0
C1087 C 0.62762 0.52542 0.28447 0.0
C1088 C 0.65435 0.53585 0.28349 0.0
C1089 C 0.67116 0.56269 0.28257 0.0
C1090 C 0.66149 0.57935 0.28268 0.0
C1091 C 0.63498 0.5692 0.28377 0.0
C1092 C 0.61809 0.54237 0.28472 0.0
C1093 C 0.60633 0.40132 0.32509 0.0
C1094 C 0.61433 0.40922 0.34729 0.0
C1095 C 0.60185 0.41685 0.31057 0.0
C1096 C 0.60411 0.44006 0.31826 0.0
C1097 C 0.61314 0.44846 0.34026 0.0
C1098 C 0.61843 0.43326 0.3546 0.0
C1099 C 0.59695 0.45533 0.30329 0.0
C1100 C 0.61397 0.48217 0.30111 0.0
C1101 C 0.57398 0.44337 0.29039 0.0
C1102 C 0.55349 0.41588 0.2939 0.0
C1103 C 0.5433 0.4069 0.31551 0.0
C1104 C 0.5243 0.38093 0.31884 0.0
C1105 C 0.51519 0.36376 0.30067 0.0
C1106 C 0.52501 0.37255 0.27911 0.0
C1107 C 0.54404 0.3985 0.27569 0.0
H1108 H 0.50048 0.34366 0.30329 0.0
H1109 H 0.67453 0.60012 0.28195 0.0
H1110 H 0.41651 0.93625 0.42723 0.0
H1111 H 0.40846 0.90894 0.39404 0.0
H1112 H 0.48724 0.92762 0.39511 0.0
H1113 H 0.49504 0.9541 0.42906 0.0
H1114 H 0.4505 0.92183 0.34749 0.0
H1115 H 0.47007 0.88253 0.41018 0.0
H1116 H 0.46841 0.87026 0.44997 0.0
H1117 H 0.38595 0.82594 0.44725 0.0
H1118 H 0.38714 0.8387 0.40749 0.0
H1119 H 0.42735 0.81156 0.28146 0.0
H1120 H 0.44644 0.84407 0.31147 0.0
H1121 H 0.37077 0.82016 0.3366 0.0
H1122 H 0.35151 0.78811 0.30632 0.0
H1123 H 0.41119 0.82971 0.37078 0.0
H1124 H 0.39331 0.8682 0.3065 0.0
H1125 H 0.39652 0.88009 0.26642 0.0
H1126 H 0.47879 0.92542 0.2718 0.0
H1127 H 0.47607 0.91342 0.31187 0.0
C1128 C 0.43235 0.93535 0.41981 0.0
C1129 C 0.45648 0.94751 0.43038 0.0
C1130 C 0.42769 0.91961 0.40102 0.0
C1131 C 0.44719 0.91611 0.39235 0.0
C1132 C 0.47196 0.93006 0.40166 0.0
C1133 C 0.47647 0.94535 0.42084 0.0
C1134 C 0.44056 0.89558 0.37544 0.0
C1135 C 0.44241 0.90175 0.35252 0.0
C1136 C 0.42969 0.86939 0.38208 0.0
C1137 C 0.4287 0.86203 0.40603 0.0
C1138 C 0.45157 0.87062 0.41818 0.0
C1139 C 0.45073 0.86351 0.44069 0.0
C1140 C 0.4271 0.84745 0.45114 0.0
C1141 C 0.40424 0.83851 0.43913 0.0
C1142 C 0.40498 0.84573 0.41662 0.0
C1143 C 0.4148 0.81289 0.29364 0.0
C1144 C 0.38793 0.79733 0.29153 0.0
C1145 C 0.42574 0.83154 0.31068 0.0
C1146 C 0.40998 0.83455 0.32613 0.0
C1147 C 0.38322 0.81809 0.32482 0.0
C1148 C 0.37227 0.79985 0.30751 0.0
C1149 C 0.42119 0.85592 0.34277 0.0
C1150 C 0.4198 0.84983 0.36569 0.0
C1151 C 0.43288 0.8822 0.33607 0.0
C1152 C 0.4345 0.88965 0.31208 0.0
C1153 C 0.4121 0.8805 0.29908 0.0
C1154 C 0.41382 0.8873 0.27638 0.0
C1155 C 0.43785 0.90343 0.26655 0.0
C1156 C 0.4602 0.91288 0.27943 0.0
C1157 C 0.45857 0.90609 0.30213 0.0
H1158 H 0.43915 0.90867 0.24897 0.0
H1159 H 0.4266 0.8418 0.46848 0.0
H1160 H 0.55908 0.47221 0.60894 0.0
H1161 H 0.57584 0.46414 0.57446 0.0
H1162 H 0.49838 0.41353 0.55081 0.0
H1163 H 0.48151 0.42108 0.58547 0.0
H1164 H 0.52626 0.38975 0.55183 0.0
H1165 H 0.53879 0.47118 0.5247 0.0
H1166 H 0.55533 0.51815 0.5264 0.0
H1167 H 0.63273 0.53365 0.52941 0.0
H1168 H 0.61663 0.48673 0.52803 0.0
H1169 H 0.54846 0.3577 0.44462 0.0
H1170 H 0.53598 0.37447 0.4762 0.0
H1171 H 0.61577 0.42677 0.4926 0.0
H1172 H 0.6286 0.41049 0.46043 0.0
H1173 H 0.58941 0.45103 0.49634 0.0
H1174 H 0.57889 0.37174 0.52364 0.0
H1175 H 0.56428 0.32517 0.52286 0.0
H1176 H 0.48564 0.30601 0.52174 0.0
H1177 H 0.49978 0.35251 0.52218 0.0
C1178 C 0.54564 0.45994 0.59609 0.0
C1179 C 0.51896 0.44722 0.59996 0.0
C1180 C 0.55525 0.45537 0.57638 0.0
C1181 C 0.53837 0.43814 0.56008 0.0
C1182 C 0.51175 0.42686 0.5632 0.0
C1183 C 0.50213 0.43144 0.5829 0.0
C1184 C 0.54823 0.42961 0.54113 0.0
C1185 C 0.53973 0.40311 0.53947 0.0
C1186 C 0.56679 0.4472 0.52568 0.0
C1187 C 0.57648 0.47541 0.52648 0.0
C1188 C 0.55932 0.48458 0.52592 0.0
C1189 C 0.56863 0.51121 0.52678 0.0
C1190 C 0.59506 0.52887 0.52807 0.0
C1191 C 0.61226 0.51995 0.52844 0.0
C1192 C 0.60305 0.49334 0.52759 0.0
C1193 C 0.56347 0.37269 0.45493 0.0
C1194 C 0.58959 0.38258 0.44999 0.0
C1195 C 0.55625 0.38224 0.47307 0.0
C1196 C 0.5749 0.40162 0.48703 0.0
C1197 C 0.60103 0.41177 0.4821 0.0
C1198 C 0.60832 0.40234 0.46376 0.0
C1199 C 0.56686 0.41106 0.5067 0.0
C1200 C 0.57588 0.43768 0.50866 0.0
C1201 C 0.54903 0.39365 0.52271 0.0
C1202 C 0.54041 0.36564 0.52275 0.0
C1203 C 0.55848 0.35761 0.52309 0.0
C1204 C 0.55029 0.33122 0.52272 0.0
C1205 C 0.52405 0.31264 0.52219 0.0
C1206 C 0.50595 0.32043 0.52212 0.0
C1207 C 0.51405 0.3468 0.52246 0.0
H1208 H 0.51774 0.29222 0.52187 0.0
H1209 H 0.60222 0.54947 0.52873 0.0
H1210 H 0.05188 0.51522 0.75716 0.0
H1211 H 0.07276 0.53051 0.72017 0.0
H1212 H 0.13126 0.51385 0.74002 0.0
H1213 H 0.11019 0.49798 0.7761 0.0
H1214 H 0.11745 0.57025 0.711 0.0
H1215 H 0.15755 0.50059 0.69844 0.0
H1216 H 0.14217 0.45409 0.70302 0.0
H1217 H 0.06397 0.43589 0.69831 0.0
H1218 H 0.07885 0.48222 0.69336 0.0
H1219 H 0.23331 0.63774 0.65382 0.0
H1220 H 0.19905 0.6109 0.68038 0.0
H1221 H 0.1633 0.55038 0.63042 0.0
H1222 H 0.19877 0.57664 0.60442 0.0
H1223 H 0.15568 0.5282 0.66717 0.0
H1224 H 0.14171 0.59499 0.64361 0.0
H1225 H 0.15223 0.63959 0.63529 0.0
H1226 H 0.16878 0.65969 0.70508 0.0
H1227 H 0.1587 0.61532 0.71379 0.0
C1228 C 0.06881 0.51427 0.75325 0.0
C1229 C 0.07955 0.50562 0.76948 0.0
C1230 C 0.08082 0.52313 0.73224 0.0
C1231 C 0.10353 0.52317 0.72715 0.0
C1232 C 0.11354 0.51357 0.74318 0.0
C1233 C 0.1016 0.50472 0.76395 0.0
C1234 C 0.11841 0.53528 0.7062 0.0
C1235 C 0.12556 0.56095 0.70124 0.0
C1236 C 0.1284 0.52294 0.6929 0.0
C1237 C 0.11935 0.49496 0.69564 0.0
C1238 C 0.13708 0.48667 0.69822 0.0
C1239 C 0.12844 0.46033 0.70092 0.0
C1240 C 0.10211 0.44206 0.70099 0.0
C1241 C 0.08436 0.45008 0.69832 0.0
C1242 C 0.09289 0.47638 0.6956 0.0
C1243 C 0.21835 0.61851 0.64872 0.0
C1244 C 0.21864 0.60919 0.62716 0.0
C1245 C 0.19854 0.60329 0.66376 0.0
C1246 C 0.17795 0.57888 0.65723 0.0
C1247 C 0.17877 0.56918 0.6359 0.0
C1248 C 0.19908 0.58412 0.62107 0.0
C1249 C 0.15576 0.56365 0.67272 0.0
C1250 C 0.14724 0.5374 0.67662 0.0
C1251 C 0.14372 0.57514 0.68441 0.0
C1252 C 0.14956 0.60183 0.67933 0.0
C1253 C 0.1477 0.60895 0.65717 0.0
C1254 C 0.15359 0.63419 0.65238 0.0
C1255 C 0.1612 0.65247 0.66964 0.0
C1256 C 0.16288 0.64552 0.69173 0.0
C1257 C 0.15704 0.6203 0.69661 0.0
H1258 H 0.16576 0.67201 0.6659 0.0
H1259 H 0.09547 0.42168 0.7031 0.0
H1260 H 0.59598 0.06157 0.92157 0.0
H1261 H 0.60659 0.08583 0.88624 0.0
H1262 H 0.55689 0.11459 0.90415 0.0
H1263 H 0.5457 0.08986 0.93929 0.0
H1264 H 0.55644 0.10566 0.85782 0.0
H1265 H 0.61927 0.15108 0.91674 0.0
H1266 H 0.64975 0.15475 0.94628 0.0
H1267 H 0.6926 0.14009 0.89719 0.0
H1268 H 0.66218 0.13601 0.86755 0.0
H1269 H 0.61478 0.222 0.7926 0.0
H1270 H 0.59653 0.19005 0.82305 0.0
H1271 H 0.65361 0.16901 0.81114 0.0
H1272 H 0.67231 0.20116 0.78131 0.0
H1273 H 0.64924 0.17257 0.85377 0.0
H1274 H 0.58957 0.1304 0.79378 0.0
H1275 H 0.55932 0.1256 0.76379 0.0
H1276 H 0.51085 0.1323 0.81253 0.0
H1277 H 0.54101 0.13751 0.8428 0.0
C1278 C 0.58654 0.07225 0.91763 0.0
C1279 C 0.57011 0.0739 0.93334 0.0
C1280 C 0.59285 0.08636 0.89752 0.0
C1281 C 0.58293 0.10244 0.89275 0.0
C1282 C 0.56487 0.10242 0.9075 0.0
C1283 C 0.55855 0.08833 0.92761 0.0
C1284 C 0.59337 0.12126 0.87378 0.0
C1285 C 0.57668 0.12043 0.85697 0.0
C1286 C 0.61986 0.14023 0.87242 0.0
C1287 C 0.63832 0.14293 0.8901 0.0
C1288 C 0.63509 0.14843 0.91239 0.0
C1289 C 0.65234 0.15062 0.9291 0.0
C1290 C 0.67302 0.14755 0.92362 0.0
C1291 C 0.67654 0.1424 0.90142 0.0
C1292 C 0.65932 0.14017 0.88466 0.0
C1293 C 0.62353 0.21067 0.79654 0.0
C1294 C 0.64507 0.21427 0.78444 0.0
C1295 C 0.61292 0.19222 0.81385 0.0
C1296 C 0.62343 0.17678 0.81923 0.0
C1297 C 0.6451 0.18061 0.80736 0.0
C1298 C 0.6558 0.1991 0.79024 0.0
C1299 C 0.61241 0.15702 0.83753 0.0
C1300 C 0.629 0.15773 0.85437 0.0
C1301 C 0.58591 0.1378 0.83867 0.0
C1302 C 0.56769 0.13462 0.82053 0.0
C1303 C 0.57256 0.13106 0.79809 0.0
C1304 C 0.55542 0.12823 0.78104 0.0
C1305 C 0.53321 0.12872 0.78624 0.0
C1306 C 0.52808 0.13197 0.80852 0.0
C1307 C 0.54518 0.13484 0.82564 0.0
H1308 H 0.51996 0.12652 0.77302 0.0
H1309 H 0.68635 0.14924 0.93657 0.0
H1310 H 0.46959 0.53556 0.09992 0.0
H1311 H 0.45484 0.54485 0.06474 0.0
H1312 H 0.53304 0.60279 0.04822 0.0
H1313 H 0.54782 0.59367 0.08345 0.0
H1314 H 0.50084 0.62224 0.0498 0.0
H1315 H 0.49997 0.54889 0.01624 0.0
H1316 H 0.48811 0.50313 0.01359 0.0
H1317 H 0.40813 0.47924 0.01187 0.0
H1318 H 0.41949 0.52485 0.01483 0.0
H1319 H 0.48158 0.66367 0.94534 0.0
H1320 H 0.49463 0.64573 0.97565 0.0
H1321 H 0.41575 0.58497 0.98557 0.0
H1322 H 0.40244 0.60253 0.95469 0.0
H1323 H 0.44657 0.56548 0.98761 0.0
H1324 H 0.44503 0.63591 0.02204 0.0
H1325 H 0.45423 0.68067 0.02638 0.0
H1326 H 0.53515 0.70884 0.02916 0.0
H1327 H 0.52647 0.66427 0.0245 0.0
C1328 C 0.48371 0.54959 0.08835 0.0
C1329 C 0.50986 0.56389 0.09442 0.0
C1330 C 0.47526 0.55492 0.06828 0.0
C1331 C 0.49281 0.57465 0.0539 0.0
C1332 C 0.51916 0.58752 0.05909 0.0
C1333 C 0.52763 0.58208 0.07911 0.0
C1334 C 0.48348 0.58412 0.03518 0.0
C1335 C 0.48939 0.60995 0.03597 0.0
C1336 C 0.46744 0.56773 0.01777 0.0
C1337 C 0.46059 0.54029 0.01597 0.0
C1338 C 0.47984 0.53387 0.0155 0.0
C1339 C 0.47321 0.50795 0.0139 0.0
C1340 C 0.44738 0.48828 0.01262 0.0
C1341 C 0.42813 0.49449 0.01289 0.0
C1342 C 0.43466 0.52038 0.0145 0.0
C1343 C 0.46687 0.64655 0.95395 0.0
C1344 C 0.44087 0.63466 0.94756 0.0
C1345 C 0.47441 0.63632 0.97139 0.0
C1346 C 0.45616 0.61416 0.98313 0.0
C1347 C 0.43019 0.6021 0.97678 0.0
C1348 C 0.4226 0.61227 0.95919 0.0
C1349 C 0.46443 0.60378 0.00199 0.0
C1350 C 0.45815 0.57779 0.00137 0.0
C1351 C 0.47976 0.61987 0.01987 0.0
C1352 C 0.4851 0.64675 0.02272 0.0
C1353 C 0.4648 0.65166 0.0234 0.0
C1354 C 0.46992 0.677 0.02595 0.0
C1355 C 0.49525 0.69759 0.02801 0.0
C1356 C 0.51553 0.69287 0.02755 0.0
C1357 C 0.51052 0.66757 0.02498 0.0
H1358 H 0.49917 0.71718 0.03001 0.0
H1359 H 0.44229 0.46823 0.01138 0.0
H1360 H 0.97461 0.54986 0.25104 0.0
H1361 H 0.95308 0.53451 0.21458 0.0
H1362 H 0.92997 0.45605 0.2329 0.0
H1363 H 0.95141 0.47134 0.26927 0.0
H1364 H 0.93761 0.46561 0.18588 0.0
H1365 H 0.89656 0.48033 0.24947 0.0
H1366 H 0.89614 0.50918 0.2786 0.0
H1367 H 0.89182 0.55737 0.22753 0.0
H1368 H 0.89374 0.52958 0.19801 0.0
H1369 H 0.81564 0.37773 0.14707 0.0
H1370 H 0.8512 0.40602 0.17159 0.0
H1371 H 0.8555 0.4731 0.14085 0.0
H1372 H 0.81949 0.44465 0.11587 0.0
H1373 H 0.86201 0.4768 0.18861 0.0
H1374 H 0.89788 0.45901 0.12482 0.0
H1375 H 0.9013 0.4317 0.09577 0.0
H1376 H 0.91475 0.38949 0.14683 0.0
H1377 H 0.911 0.41627 0.17623 0.0
C1378 C 0.96605 0.52954 0.24679 0.0
C1379 C 0.96447 0.51171 0.26294 0.0
C1380 C 0.95363 0.52077 0.22602 0.0
C1381 C 0.93951 0.49409 0.22125 0.0
C1382 C 0.94068 0.4767 0.23626 0.0
C1383 C 0.95292 0.48543 0.25704 0.0
C1384 C 0.91979 0.48369 0.2032 0.0
C1385 C 0.92114 0.46812 0.18639 0.0
C1386 C 0.89846 0.48733 0.20372 0.0
C1387 C 0.89574 0.50311 0.22149 0.0
C1388 C 0.89586 0.49726 0.24441 0.0
C1389 C 0.89551 0.51351 0.261 0.0
C1390 C 0.89402 0.53514 0.25492 0.0
C1391 C 0.89303 0.54063 0.23222 0.0
C1392 C 0.89394 0.52474 0.21553 0.0
C1393 C 0.82389 0.39848 0.1455 0.0
C1394 C 0.81482 0.40887 0.12921 0.0
C1395 C 0.84433 0.41464 0.15957 0.0
C1396 C 0.85636 0.44166 0.15773 0.0
C1397 C 0.84659 0.45226 0.1424 0.0
C1398 C 0.82599 0.43599 0.12818 0.0
C1399 C 0.87963 0.45834 0.17147 0.0
C1400 C 0.8788 0.47486 0.18765 0.0
C1401 C 0.90146 0.45559 0.17038 0.0
C1402 C 0.90402 0.43958 0.15275 0.0
C1403 C 0.9014 0.44379 0.12987 0.0
C1404 C 0.90342 0.42842 0.11333 0.0
C1405 C 0.90821 0.40885 0.11945 0.0
C1406 C 0.91104 0.40466 0.14212 0.0
C1407 C 0.90901 0.41995 0.15873 0.0
H1408 H 0.90975 0.39696 0.10662 0.0
H1409 H 0.89351 0.54757 0.2678 0.0
loop_
_geom_bond_atom_site_label_1
_geom_bond_atom_site_label_2
_geom_bond_distance
_geom_bond_site_symmetry_2
_ccdc_geom_bond_type
H0 C8 0.930 . S
H1 C11 0.930 . S
H2 C13 0.930 . S
H3 C14 0.970 . S
H4 C14 0.970 . S
H5 C16 0.930 . S
H6 C18 0.930 . S
H7 C20 0.930 . S
C8 H0 0.930 . S
C8 C9 1.382 . S
C8 C10 1.426 . S
C9 C8 1.382 . S
C9 C13 1.389 . S
C10 C8 1.426 . S
C10 C11 1.375 . S
C10 C14 1.532 1_655 S
C11 H1 0.930 . S
C11 C10 1.375 . S
C11 C12 1.416 . S
C12 C11 1.416 . S
C12 C13 1.371 . S
C13 H2 0.930 . S
C13 C9 1.389 . S
C13 C12 1.371 . S
C14 H3 0.970 . S
C14 H4 0.970 . S
C14 C10 1.532 1_455 S
C14 C15 1.499 . S
C15 C14 1.499 . S
C15 C16 1.370 . S
C15 C20 1.415 . S
C16 H5 0.930 . S
C16 C15 1.370 . S
C16 C17 1.407 . S
C17 C16 1.407 . S
C17 C18 1.365 . S
C18 H6 0.930 . S
C18 C17 1.365 . S
C18 C19 1.393 . S
C19 C18 1.393 . S
C19 C20 1.387 . S
C20 H7 0.930 . S
C20 C15 1.415 . S
C20 C19 1.387 . S
H21 C29 0.930 . S
H22 C32 0.930 . S
H23 C34 0.930 . S
H24 C35 0.970 . S
H25 C35 0.970 . S
H26 C37 0.930 . S
H27 C39 0.930 . S
H28 C41 0.930 . S
C29 H21 0.930 . S
C29 C30 1.382 . S
C29 C31 1.426 . S
C30 C29 1.382 . S
C30 C34 1.389 . S
C31 C29 1.426 . S
C31 C32 1.375 . S
C31 C35 1.532 1_565 S
C32 H22 0.930 . S
C32 C31 1.375 . S
C32 C33 1.416 . S
C33 C32 1.416 . S
C33 C34 1.371 . S
C34 H23 0.930 . S
C34 C30 1.389 . S
C34 C33 1.371 . S
C35 H24 0.970 . S
C35 H25 0.970 . S
C35 C31 1.532 1_545 S
C35 C36 1.499 . S
C36 C35 1.499 . S
C36 C37 1.370 . S
C36 C41 1.415 . S
C37 H26 0.930 . S
C37 C36 1.370 . S
C37 C38 1.407 . S
C38 C37 1.407 . S
C38 C39 1.365 . S
C39 H27 0.930 . S
C39 C38 1.365 . S
C39 C40 1.393 . S
C40 C39 1.393 . S
C40 C41 1.387 . S
C41 H28 0.930 . S
C41 C36 1.415 . S
C41 C40 1.387 . S
H42 C50 0.930 . S
H43 C53 0.930 . S
H44 C55 0.930 . S
H45 C56 0.970 . S
H46 C56 0.970 . S
H47 C58 0.930 . S
H48 C60 0.930 . S
H49 C62 0.930 . S
C50 H42 0.930 . S
C50 C51 1.382 . S
C50 C52 1.426 . S
C51 C50 1.382 . S
C51 C55 1.389 . S
C52 C50 1.426 . S
C52 C53 1.375 . S
C52 C56 1.532 . S
C53 H43 0.930 . S
C53 C52 1.375 . S
C53 C54 1.416 . S
C54 C53 1.416 . S
C54 C55 1.371 . S
C55 H44 0.930 . S
C55 C51 1.389 . S
C55 C54 1.371 . S
C56 H45 0.970 . S
C56 H46 0.970 . S
C56 C52 1.532 . S
C56 C57 1.499 . S
C57 C56 1.499 . S
C57 C58 1.370 . S
C57 C62 1.415 . S
C58 H47 0.930 . S
C58 C57 1.370 . S
C58 C59 1.407 . S
C59 C58 1.407 . S
C59 C60 1.365 . S
C60 H48 0.930 . S
C60 C59 1.365 . S
C60 C61 1.393 . S
C61 C60 1.393 . S
C61 C62 1.387 . S
C62 H49 0.930 . S
C62 C57 1.415 . S
C62 C61 1.387 . S
H63 C71 0.930 . S
H64 C74 0.930 . S
H65 C76 0.930 . S
H66 C77 0.970 . S
H67 C77 0.970 . S
H68 C79 0.930 . S
H69 C81 0.930 . S
H70 C83 0.930 . S
C71 H63 0.930 . S
C71 C72 1.382 . S
C71 C73 1.426 . S
C72 C71 1.382 . S
C72 C76 1.389 . S
C73 C71 1.426 . S
C73 C74 1.375 . S
C73 C77 1.532 1_655 S
C74 H64 0.930 . S
C74 C73 1.375 . S
C74 C75 1.416 . S
C75 C74 1.416 . S
C75 C76 1.371 . S
C76 H65 0.930 . S
C76 C72 1.389 . S
C76 C75 1.371 . S
C77 H66 0.970 . S
C77 H67 0.970 . S
C77 C73 1.532 1_455 S
C77 C78 1.499 . S
C78 C77 1.499 . S
C78 C79 1.370 . S
C78 C83 1.415 . S
C79 H68 0.930 . S
C79 C78 1.370 . S
C79 C80 1.407 . S
C80 C79 1.407 . S
C80 C81 1.365 . S
C81 H69 0.930 . S
C81 C80 1.365 . S
C81 C82 1.393 . S
C82 C81 1.393 . S
C82 C83 1.387 . S
C83 H70 0.930 . S
C83 C78 1.415 . S
C83 C82 1.387 . S
H84 C92 0.930 . S
H85 C95 0.930 . S
H86 C97 0.930 . S
H87 C98 0.970 1_554 S
H88 C98 0.973 . S
H89 C100 0.930 . S
H90 C102 0.930 . S
H91 C104 0.930 . S
C92 H84 0.930 . S
C92 C93 1.382 1_554 S
C92 C94 1.426 1_554 S
C93 C92 1.382 1_556 S
C93 C97 1.389 . S
C94 C92 1.426 1_556 S
C94 C95 1.375 . S
C94 C98 1.532 . S
C95 H85 0.930 . S
C95 C94 1.375 . S
C95 C96 1.416 . S
C96 C95 1.416 . S
C96 C97 1.371 . S
C97 H86 0.930 . S
C97 C93 1.389 . S
C97 C96 1.371 . S
C98 H87 0.970 1_556 S
C98 H88 0.973 . S
C98 C94 1.532 . S
C98 C99 1.499 1_545 S
C99 C98 1.499 1_565 S
C99 C100 1.370 1_556 S
C99 C104 1.415 . S
C100 H89 0.930 . S
C100 C99 1.370 1_554 S
C100 C101 1.407 . S
C101 C100 1.407 . S
C101 C102 1.365 . S
C102 H90 0.930 . S
C102 C101 1.365 . S
C102 C103 1.393 1_554 S
C103 C102 1.393 1_556 S
C103 C104 1.387 . S
C104 H91 0.930 . S
C104 C99 1.415 . S
C104 C103 1.387 . S
H105 C113 0.930 . S
H106 C116 0.930 . S
H107 C118 0.930 . S
H108 C119 0.970 . S
H109 C119 0.970 . S
H110 C121 0.930 . S
H111 C123 0.930 . S
H112 C125 0.930 . S
C113 H105 0.930 . S
C113 C114 1.382 . S
C113 C115 1.426 . S
C114 C113 1.382 . S
C114 C118 1.389 . S
C115 C113 1.426 . S
C115 C116 1.375 . S
C115 C119 1.532 . S
C116 H106 0.930 . S
C116 C115 1.375 . S
C116 C117 1.416 . S
C117 C116 1.416 . S
C117 C118 1.371 . S
C118 H107 0.930 . S
C118 C114 1.389 . S
C118 C117 1.371 . S
C119 H108 0.970 . S
C119 H109 0.970 . S
C119 C115 1.532 . S
C119 C120 1.499 . S
C120 C119 1.499 . S
C120 C121 1.370 . S
C120 C125 1.415 . S
C121 H110 0.930 . S
C121 C120 1.370 . S
C121 C122 1.407 . S
C122 C121 1.407 . S
C122 C123 1.365 . S
C123 H111 0.930 . S
C123 C122 1.365 . S
C123 C124 1.393 . S
C124 C123 1.393 . S
C124 C125 1.387 . S
C125 H112 0.930 . S
C125 C120 1.415 . S
C125 C124 1.387 . S
Co126 O127 2.216 . S
Co126 O128 2.091 . S
Co126 O130 2.004 . S
Co126 O136 2.021 . S
Co126 O138 2.137 . S
Co126 O139 2.244 . S
O127 Co126 2.216 . S
O127 C134 1.247 . S
O128 Co126 2.091 . S
O128 C134 1.261 . S
C129 O138 1.247 . S
C129 O139 1.272 . S
O130 Co126 2.004 . S
O130 C135 1.259 . S
Co131 O132 2.061 . S
Co131 O137 2.052 . S
Co131 O139 2.135 . S
O132 Co131 2.061 . S
O132 C135 1.235 . S
C133 O136 1.238 . S
C133 O137 1.241 . S
C134 O127 1.247 . S
C134 O128 1.261 . S
C135 O130 1.259 . S
C135 O132 1.235 . S
O136 Co126 2.021 . S
O136 C133 1.238 . S
O137 Co131 2.052 . S
O137 C133 1.241 . S
O138 Co126 2.137 . S
O138 C129 1.247 . S
O139 Co126 2.244 . S
O139 C129 1.272 . S
O139 Co131 2.135 . S
Co140 O141 2.216 . S
Co140 O142 2.091 . S
Co140 O144 2.004 . S
Co140 O150 2.021 . S
Co140 O152 2.137 . S
Co140 O153 2.244 . S
O141 Co140 2.216 . S
O141 C148 1.247 . S
O142 Co140 2.091 . S
O142 C148 1.261 . S
C143 O152 1.247 . S
C143 O153 1.272 . S
O144 Co140 2.004 . S
O144 C149 1.259 . S
Co145 O146 2.061 . S
Co145 O151 2.052 . S
Co145 O153 2.135 . S
O146 Co145 2.061 . S
O146 C149 1.235 . S
C147 O150 1.238 . S
C147 O151 1.241 . S
C148 O141 1.247 . S
C148 O142 1.261 . S
C149 O144 1.259 . S
C149 O146 1.235 . S
O150 Co140 2.021 . S
O150 C147 1.238 . S
O151 Co145 2.052 . S
O151 C147 1.241 . S
O152 Co140 2.137 . S
O152 C143 1.247 . S
O153 Co140 2.244 . S
O153 C143 1.272 . S
O153 Co145 2.135 . S
Co154 O155 2.216 . S
Co154 O156 2.091 . S
Co154 O158 2.004 . S
Co154 O164 2.021 . S
Co154 O166 2.137 . S
Co154 O167 2.244 . S
O155 Co154 2.216 . S
O155 C162 1.247 . S
O156 Co154 2.091 . S
O156 C162 1.261 . S
C157 O166 1.247 . S
C157 O167 1.272 . S
O158 Co154 2.004 . S
O158 C163 1.259 . S
Co159 O160 2.061 . S
Co159 O165 2.052 . S
Co159 O167 2.135 . S
O160 Co159 2.061 . S
O160 C163 1.235 . S
C161 O164 1.238 . S
C161 O165 1.241 . S
C162 O155 1.247 . S
C162 O156 1.261 . S
C163 O158 1.259 . S
C163 O160 1.235 . S
O164 Co154 2.021 . S
O164 C161 1.238 . S
O165 Co159 2.052 . S
O165 C161 1.241 . S
O166 Co154 2.137 . S
O166 C157 1.247 . S
O167 Co154 2.244 . S
O167 C157 1.272 . S
O167 Co159 2.135 . S
Co168 O169 2.216 . S
Co168 O170 2.091 . S
Co168 O172 2.004 . S
Co168 O178 2.021 . S
Co168 O180 2.137 . S
Co168 O181 2.244 . S
O169 Co168 2.216 . S
O169 C176 1.247 . S
O170 Co168 2.091 . S
O170 C176 1.261 . S
C171 O180 1.247 . S
C171 O181 1.272 . S
O172 Co168 2.004 . S
O172 C177 1.259 . S
Co173 O174 2.061 . S
Co173 O179 2.052 . S
Co173 O181 2.135 . S
O174 Co173 2.061 . S
O174 C177 1.235 . S
C175 O178 1.238 . S
C175 O179 1.241 . S
C176 O169 1.247 . S
C176 O170 1.261 . S
C177 O172 1.259 . S
C177 O174 1.235 . S
O178 Co168 2.021 . S
O178 C175 1.238 . S
O179 Co173 2.052 . S
O179 C175 1.241 . S
O180 Co168 2.137 . S
O180 C171 1.247 . S
O181 Co168 2.244 . S
O181 C171 1.272 . S
O181 Co173 2.135 . S
Co182 O183 2.216 . S
Co182 O184 2.091 . S
Co182 O186 2.004 . S
Co182 O192 2.021 . S
Co182 O194 2.137 . S
Co182 O195 2.244 . S
O183 Co182 2.216 . S
O183 C190 1.247 . S
O184 Co182 2.091 . S
O184 C190 1.261 . S
C185 O194 1.247 . S
C185 O195 1.272 . S
O186 Co182 2.004 . S
O186 C191 1.259 . S
Co187 O188 2.061 . S
Co187 O193 2.052 . S
Co187 O195 2.135 . S
O188 Co187 2.061 . S
O188 C191 1.235 . S
C189 O192 1.238 . S
C189 O193 1.241 . S
C190 O183 1.247 . S
C190 O184 1.261 . S
C191 O186 1.259 . S
C191 O188 1.235 . S
O192 Co182 2.021 . S
O192 C189 1.238 . S
O193 Co187 2.052 . S
O193 C189 1.241 . S
O194 Co182 2.137 . S
O194 C185 1.247 . S
O195 Co182 2.244 . S
O195 C185 1.272 . S
O195 Co187 2.135 . S
Co196 O197 2.216 . S
Co196 O198 2.091 . S
Co196 O200 2.004 . S
Co196 O206 2.021 . S
Co196 O208 2.137 . S
Co196 O209 2.244 . S
O197 Co196 2.216 . S
O197 C204 1.247 . S
O198 Co196 2.091 . S
O198 C204 1.261 . S
C199 O208 1.247 . S
C199 O209 1.272 . S
O200 Co196 2.004 . S
O200 C205 1.259 . S
Co201 O202 2.061 . S
Co201 O207 2.052 . S
Co201 O209 2.135 . S
O202 Co201 2.061 . S
O202 C205 1.235 . S
C203 O206 1.238 . S
C203 O207 1.241 . S
C204 O197 1.247 . S
C204 O198 1.261 . S
C205 O200 1.259 . S
C205 O202 1.235 . S
O206 Co196 2.021 . S
O206 C203 1.238 . S
O207 Co201 2.052 . S
O207 C203 1.241 . S
O208 Co196 2.137 . S
O208 C199 1.247 . S
O209 Co196 2.244 . S
O209 C199 1.272 . S
O209 Co201 2.135 . S
H210 C228 0.951 . S
H211 C230 0.951 . S
H212 C232 0.950 . S
H213 C233 0.950 . S
H214 C235 0.950 . S
H215 C238 0.950 . S
H216 C239 0.950 . S
H217 C241 0.950 . S
H218 C242 0.950 . S
H219 C243 0.951 . S
H220 C245 0.951 . S
H221 C247 0.950 . S
H222 C248 0.950 . S
H223 C250 0.950 . S
H224 C253 0.950 . S
H225 C254 0.950 . S
H226 C256 0.950 . S
H227 C257 0.950 . S
C228 H210 0.951 . S
C228 C229 1.366 . S
C228 C230 1.388 . S
C229 C228 1.366 . S
C229 C233 1.385 . S
C230 H211 0.951 . S
C230 C228 1.388 . S
C230 C231 1.366 . S
C231 C230 1.366 . S
C231 C232 1.414 . S
C231 C234 1.499 . S
C232 H212 0.950 . S
C232 C231 1.414 . S
C232 C233 1.374 . S
C233 H213 0.950 . S
C233 C229 1.385 . S
C233 C232 1.374 . S
C234 C231 1.499 . S
C234 C235 1.373 . S
C234 C236 1.389 . S
C235 H214 0.950 . S
C235 C234 1.373 . S
C235 C251 1.377 . S
C236 C234 1.389 . S
C236 C237 1.524 . S
C236 C250 1.377 . S
C237 C236 1.524 . S
C237 C238 1.397 . S
C237 C242 1.363 . S
C238 H215 0.950 . S
C238 C237 1.397 . S
C238 C239 1.334 . S
C239 H216 0.950 . S
C239 C238 1.334 . S
C239 C240 1.287 . S
C240 C239 1.287 . S
C240 C241 1.524 . S
C240 H259 0.913 . S
C241 H217 0.950 . S
C241 C240 1.524 . S
C241 C242 1.415 . S
C242 H218 0.950 . S
C242 C237 1.363 . S
C242 C241 1.415 . S
C243 H219 0.951 . S
C243 C244 1.366 . S
C243 C245 1.388 . S
C244 C243 1.366 . S
C244 C248 1.385 . S
C245 H220 0.951 . S
C245 C243 1.388 . S
C245 C246 1.366 . S
C246 C245 1.366 . S
C246 C247 1.414 . S
C246 C249 1.499 . S
C247 H221 0.950 . S
C247 C246 1.414 . S
C247 C248 1.374 . S
C248 H222 0.950 . S
C248 C244 1.385 . S
C248 C247 1.374 . S
C249 C246 1.499 . S
C249 C250 1.373 . S
C249 C251 1.389 . S
C250 H223 0.950 . S
C250 C236 1.377 . S
C250 C249 1.373 . S
C251 C235 1.377 . S
C251 C249 1.389 . S
C251 C252 1.524 . S
C252 C251 1.524 . S
C252 C253 1.397 . S
C252 C257 1.363 . S
C253 H224 0.950 . S
C253 C252 1.397 . S
C253 C254 1.334 . S
C254 H225 0.950 . S
C254 C253 1.334 . S
C254 C255 1.287 . S
C255 C254 1.287 . S
C255 C256 1.524 . S
C255 H258 0.999 . S
C256 H226 0.950 . S
C256 C255 1.524 . S
C256 C257 1.415 . S
C257 H227 0.950 . S
C257 C252 1.363 . S
C257 C256 1.415 . S
H258 C255 0.999 . S
H259 C240 0.913 . S
H260 C278 0.951 . S
H261 C280 0.951 . S
H262 C282 0.950 . S
H263 C283 0.950 . S
H264 C285 0.950 . S
H265 C288 0.950 . S
H266 C289 0.950 . S
H267 C291 0.950 . S
H268 C292 0.950 . S
H269 C293 0.951 . S
H270 C295 0.951 . S
H271 C297 0.950 . S
H272 C298 0.950 . S
H273 C300 0.950 . S
H274 C303 0.950 . S
H275 C304 0.950 . S
H276 C306 0.950 . S
H277 C307 0.950 . S
C278 H260 0.951 . S
C278 C279 1.366 . S
C278 C280 1.388 . S
C279 C278 1.366 . S
C279 C283 1.385 . S
C280 H261 0.951 . S
C280 C278 1.388 . S
C280 C281 1.366 . S
C281 C280 1.366 . S
C281 C282 1.414 . S
C281 C284 1.499 . S
C282 H262 0.950 . S
C282 C281 1.414 . S
C282 C283 1.374 . S
C283 H263 0.950 . S
C283 C279 1.385 . S
C283 C282 1.374 . S
C284 C281 1.499 . S
C284 C285 1.373 . S
C284 C286 1.389 . S
C285 H264 0.950 . S
C285 C284 1.373 . S
C285 C301 1.377 . S
C286 C284 1.389 . S
C286 C287 1.524 . S
C286 C300 1.377 . S
C287 C286 1.524 . S
C287 C288 1.397 . S
C287 C292 1.363 . S
C288 H265 0.950 . S
C288 C287 1.397 . S
C288 C289 1.334 . S
C289 H266 0.950 . S
C289 C288 1.334 . S
C289 C290 1.287 . S
C290 C289 1.287 . S
C290 C291 1.524 . S
C290 H309 0.913 . S
C291 H267 0.950 . S
C291 C290 1.524 . S
C291 C292 1.415 . S
C292 H268 0.950 . S
C292 C287 1.363 . S
C292 C291 1.415 . S
C293 H269 0.951 . S
C293 C294 1.366 . S
C293 C295 1.388 . S
C294 C293 1.366 . S
C294 C298 1.385 . S
C295 H270 0.951 . S
C295 C293 1.388 . S
C295 C296 1.366 . S
C296 C295 1.366 . S
C296 C297 1.414 . S
C296 C299 1.499 . S
C297 H271 0.950 . S
C297 C296 1.414 . S
C297 C298 1.374 . S
C298 H272 0.950 . S
C298 C294 1.385 . S
C298 C297 1.374 . S
C299 C296 1.499 . S
C299 C300 1.373 . S
C299 C301 1.389 . S
C300 H273 0.950 . S
C300 C286 1.377 . S
C300 C299 1.373 . S
C301 C285 1.377 . S
C301 C299 1.389 . S
C301 C302 1.524 . S
C302 C301 1.524 . S
C302 C303 1.397 . S
C302 C307 1.363 . S
C303 H274 0.950 . S
C303 C302 1.397 . S
C303 C304 1.334 . S
C304 H275 0.950 . S
C304 C303 1.334 . S
C304 C305 1.287 . S
C305 C304 1.287 . S
C305 C306 1.524 . S
C305 H308 0.999 . S
C306 H276 0.950 . S
C306 C305 1.524 . S
C306 C307 1.415 . S
C307 H277 0.950 . S
C307 C302 1.363 . S
C307 C306 1.415 . S
H308 C305 0.999 . S
H309 C290 0.913 . S
H310 C328 0.951 . S
H311 C330 0.951 . S
H312 C332 0.950 . S
H313 C333 0.950 . S
H314 C335 0.950 . S
H315 C338 0.950 . S
H316 C339 0.950 . S
H317 C341 0.950 . S
H318 C342 0.950 . S
H319 C343 0.951 . S
H320 C345 0.951 . S
H321 C347 0.950 . S
H322 C348 0.950 . S
H323 C350 0.950 . S
H324 C353 0.950 . S
H325 C354 0.950 . S
H326 C356 0.950 . S
H327 C357 0.950 . S
C328 H310 0.951 . S
C328 C329 1.366 . S
C328 C330 1.388 . S
C329 C328 1.366 . S
C329 C333 1.385 . S
C330 H311 0.951 . S
C330 C328 1.388 . S
C330 C331 1.366 . S
C331 C330 1.366 . S
C331 C332 1.414 . S
C331 C334 1.499 . S
C332 H312 0.950 . S
C332 C331 1.414 . S
C332 C333 1.374 . S
C333 H313 0.950 . S
C333 C329 1.385 . S
C333 C332 1.374 . S
C334 C331 1.499 . S
C334 C335 1.373 . S
C334 C336 1.389 . S
C335 H314 0.950 . S
C335 C334 1.373 . S
C335 C351 1.377 . S
C336 C334 1.389 . S
C336 C337 1.524 . S
C336 C350 1.377 . S
C337 C336 1.524 . S
C337 C338 1.397 . S
C337 C342 1.363 . S
C338 H315 0.950 . S
C338 C337 1.397 . S
C338 C339 1.334 . S
C339 H316 0.950 . S
C339 C338 1.334 . S
C339 C340 1.287 . S
C340 C339 1.287 . S
C340 C341 1.524 . S
C340 H359 0.913 . S
C341 H317 0.950 . S
C341 C340 1.524 . S
C341 C342 1.415 . S
C342 H318 0.950 . S
C342 C337 1.363 . S
C342 C341 1.415 . S
C343 H319 0.951 . S
C343 C344 1.366 . S
C343 C345 1.388 . S
C344 C343 1.366 . S
C344 C348 1.385 . S
C345 H320 0.951 . S
C345 C343 1.388 . S
C345 C346 1.366 . S
C346 C345 1.366 . S
C346 C347 1.414 . S
C346 C349 1.499 . S
C347 H321 0.950 . S
C347 C346 1.414 . S
C347 C348 1.374 . S
C348 H322 0.950 . S
C348 C344 1.385 . S
C348 C347 1.374 . S
C349 C346 1.499 . S
C349 C350 1.373 . S
C349 C351 1.389 . S
C350 H323 0.950 . S
C350 C336 1.377 . S
C350 C349 1.373 . S
C351 C335 1.377 . S
C351 C349 1.389 . S
C351 C352 1.524 . S
C352 C351 1.524 . S
C352 C353 1.397 . S
C352 C357 1.363 . S
C353 H324 0.950 . S
C353 C352 1.397 . S
C353 C354 1.334 . S
C354 H325 0.950 . S
C354 C353 1.334 . S
C354 C355 1.287 . S
C355 C354 1.287 . S
C355 C356 1.524 . S
C355 H358 0.999 . S
C356 H326 0.950 . S
C356 C355 1.524 . S
C356 C357 1.415 . S
C357 H327 0.950 . S
C357 C352 1.363 . S
C357 C356 1.415 . S
H358 C355 0.999 . S
H359 C340 0.913 . S
H360 C378 0.951 . S
H361 C380 0.951 . S
H362 C382 0.950 . S
H363 C383 0.950 . S
H364 C385 0.950 . S
H365 C388 0.950 . S
H366 C389 0.950 . S
H367 C391 0.950 . S
H368 C392 0.950 . S
H369 C393 0.951 . S
H370 C395 0.951 . S
H371 C397 0.950 . S
H372 C398 0.950 . S
H373 C400 0.950 . S
H374 C403 0.950 . S
H375 C404 0.950 . S
H376 C406 0.950 . S
H377 C407 0.950 . S
C378 H360 0.951 . S
C378 C379 1.366 . S
C378 C380 1.388 . S
C379 C378 1.366 . S
C379 C383 1.385 . S
C380 H361 0.951 . S
C380 C378 1.388 . S
C380 C381 1.366 . S
C381 C380 1.366 . S
C381 C382 1.414 . S
C381 C384 1.499 . S
C382 H362 0.950 . S
C382 C381 1.414 . S
C382 C383 1.374 . S
C383 H363 0.950 . S
C383 C379 1.385 . S
C383 C382 1.374 . S
C384 C381 1.499 . S
C384 C385 1.373 . S
C384 C386 1.389 . S
C385 H364 0.950 . S
C385 C384 1.373 . S
C385 C401 1.377 . S
C386 C384 1.389 . S
C386 C387 1.524 . S
C386 C400 1.377 . S
C387 C386 1.524 . S
C387 C388 1.397 . S
C387 C392 1.363 . S
C388 H365 0.950 . S
C388 C387 1.397 . S
C388 C389 1.334 . S
C389 H366 0.950 . S
C389 C388 1.334 . S
C389 C390 1.287 . S
C390 C389 1.287 . S
C390 C391 1.524 . S
C390 H409 0.913 . S
C391 H367 0.950 . S
C391 C390 1.524 . S
C391 C392 1.415 . S
C392 H368 0.950 . S
C392 C387 1.363 . S
C392 C391 1.415 . S
C393 H369 0.951 . S
C393 C394 1.366 . S
C393 C395 1.388 . S
C394 C393 1.366 . S
C394 C398 1.385 . S
C395 H370 0.951 . S
C395 C393 1.388 . S
C395 C396 1.366 . S
C396 C395 1.366 . S
C396 C397 1.414 . S
C396 C399 1.499 . S
C397 H371 0.950 . S
C397 C396 1.414 . S
C397 C398 1.374 . S
C398 H372 0.950 . S
C398 C394 1.385 . S
C398 C397 1.374 . S
C399 C396 1.499 . S
C399 C400 1.373 . S
C399 C401 1.389 . S
C400 H373 0.950 . S
C400 C386 1.377 . S
C400 C399 1.373 . S
C401 C385 1.377 . S
C401 C399 1.389 . S
C401 C402 1.524 . S
C402 C401 1.524 . S
C402 C403 1.397 . S
C402 C407 1.363 . S
C403 H374 0.950 . S
C403 C402 1.397 . S
C403 C404 1.334 . S
C404 H375 0.950 . S
C404 C403 1.334 . S
C404 C405 1.287 . S
C405 C404 1.287 . S
C405 C406 1.524 . S
C405 H408 0.999 . S
C406 H376 0.950 . S
C406 C405 1.524 . S
C406 C407 1.415 . S
C407 H377 0.950 . S
C407 C402 1.363 . S
C407 C406 1.415 . S
H408 C405 0.999 . S
H409 C390 0.913 . S
H410 C428 0.951 . S
H411 C430 0.951 . S
H412 C432 0.950 . S
H413 C433 0.950 1_554 S
H414 C435 0.950 . S
H415 C438 0.950 . S
H416 C439 0.950 . S
H417 C441 0.950 . S
H418 C442 0.950 . S
H419 C443 0.951 . S
H420 C445 0.951 . S
H421 C447 0.950 . S
H422 C448 0.950 . S
H423 C450 0.950 . S
H424 C453 0.950 . S
H425 C454 0.950 . S
H426 C456 0.950 . S
H427 C457 0.950 1_554 S
C428 H410 0.951 . S
C428 C429 1.366 . S
C428 C430 1.388 . S
C429 C428 1.366 . S
C429 C433 1.385 . S
C430 H411 0.951 . S
C430 C428 1.388 . S
C430 C431 1.366 . S
C431 C430 1.366 . S
C431 C432 1.414 . S
C431 C434 1.499 . S
C432 H412 0.950 . S
C432 C431 1.414 . S
C432 C433 1.374 . S
C433 H413 0.950 1_556 S
C433 C429 1.385 . S
C433 C432 1.374 . S
C434 C431 1.499 . S
C434 C435 1.373 . S
C434 C436 1.389 . S
C435 H414 0.950 . S
C435 C434 1.373 . S
C435 C451 1.377 . S
C436 C434 1.389 . S
C436 C437 1.524 . S
C436 C450 1.377 . S
C437 C436 1.524 . S
C437 C438 1.397 . S
C437 C442 1.363 . S
C438 H415 0.950 . S
C438 C437 1.397 . S
C438 C439 1.334 . S
C439 H416 0.950 . S
C439 C438 1.334 . S
C439 C440 1.287 . S
C440 C439 1.287 . S
C440 C441 1.524 . S
C440 H459 0.913 . S
C441 H417 0.950 . S
C441 C440 1.524 . S
C441 C442 1.415 . S
C442 H418 0.950 . S
C442 C437 1.363 . S
C442 C441 1.415 . S
C443 H419 0.951 . S
C443 C444 1.366 . S
C443 C445 1.388 . S
C444 C443 1.366 . S
C444 C448 1.385 . S
C445 H420 0.951 . S
C445 C443 1.388 . S
C445 C446 1.366 . S
C446 C445 1.366 . S
C446 C447 1.414 . S
C446 C449 1.499 . S
C447 H421 0.950 . S
C447 C446 1.414 . S
C447 C448 1.374 . S
C448 H422 0.950 . S
C448 C444 1.385 . S
C448 C447 1.374 . S
C449 C446 1.499 . S
C449 C450 1.373 . S
C449 C451 1.389 . S
C450 H423 0.950 . S
C450 C436 1.377 . S
C450 C449 1.373 . S
C451 C435 1.377 . S
C451 C449 1.389 . S
C451 C452 1.524 . S
C452 C451 1.524 . S
C452 C453 1.397 . S
C452 C457 1.363 . S
C453 H424 0.950 . S
C453 C452 1.397 . S
C453 C454 1.334 . S
C454 H425 0.950 . S
C454 C453 1.334 . S
C454 C455 1.287 . S
C455 C454 1.287 . S
C455 C456 1.524 1_556 S
C455 H458 0.999 1_556 S
C456 H426 0.950 . S
C456 C455 1.524 1_554 S
C456 C457 1.415 1_554 S
C457 H427 0.950 1_556 S
C457 C452 1.363 . S
C457 C456 1.415 1_556 S
H458 C455 0.999 1_554 S
H459 C440 0.913 . S
H460 C478 0.951 . S
H461 C480 0.951 . S
H462 C482 0.950 . S
H463 C483 0.950 . S
H464 C485 0.950 . S
H465 C488 0.950 . S
H466 C489 0.950 . S
H467 C491 0.950 . S
H468 C492 0.950 . S
H469 C493 0.951 . S
H470 C495 0.951 . S
H471 C497 0.950 . S
H472 C498 0.950 . S
H473 C500 0.950 . S
H474 C503 0.950 . S
H475 C504 0.950 . S
H476 C506 0.950 . S
H477 C507 0.950 . S
C478 H460 0.951 . S
C478 C479 1.366 . S
C478 C480 1.388 . S
C479 C478 1.366 . S
C479 C483 1.385 . S
C480 H461 0.951 . S
C480 C478 1.388 . S
C480 C481 1.366 . S
C481 C480 1.366 . S
C481 C482 1.414 . S
C481 C484 1.499 . S
C482 H462 0.950 . S
C482 C481 1.414 . S
C482 C483 1.374 . S
C483 H463 0.950 . S
C483 C479 1.385 . S
C483 C482 1.374 . S
C484 C481 1.499 . S
C484 C485 1.373 . S
C484 C486 1.389 . S
C485 H464 0.950 . S
C485 C484 1.373 . S
C485 C501 1.377 . S
C486 C484 1.389 . S
C486 C487 1.524 . S
C486 C500 1.377 . S
C487 C486 1.524 . S
C487 C488 1.397 . S
C487 C492 1.363 . S
C488 H465 0.950 . S
C488 C487 1.397 . S
C488 C489 1.334 . S
C489 H466 0.950 . S
C489 C488 1.334 . S
C489 C490 1.287 . S
C490 C489 1.287 . S
C490 C491 1.524 . S
C490 H509 0.913 . S
C491 H467 0.950 . S
C491 C490 1.524 . S
C491 C492 1.415 . S
C492 H468 0.950 . S
C492 C487 1.363 . S
C492 C491 1.415 . S
C493 H469 0.951 . S
C493 C494 1.366 . S
C493 C495 1.388 . S
C494 C493 1.366 . S
C494 C498 1.385 . S
C495 H470 0.951 . S
C495 C493 1.388 . S
C495 C496 1.366 . S
C496 C495 1.366 . S
C496 C497 1.414 . S
C496 C499 1.499 . S
C497 H471 0.950 . S
C497 C496 1.414 . S
C497 C498 1.374 . S
C498 H472 0.950 . S
C498 C494 1.385 . S
C498 C497 1.374 . S
C499 C496 1.499 . S
C499 C500 1.373 . S
C499 C501 1.389 . S
C500 H473 0.950 . S
C500 C486 1.377 . S
C500 C499 1.373 . S
C501 C485 1.377 . S
C501 C499 1.389 . S
C501 C502 1.524 . S
C502 C501 1.524 . S
C502 C503 1.397 . S
C502 C507 1.363 . S
C503 H474 0.950 . S
C503 C502 1.397 . S
C503 C504 1.334 . S
C504 H475 0.950 . S
C504 C503 1.334 . S
C504 C505 1.287 . S
C505 C504 1.287 . S
C505 C506 1.524 . S
C505 H508 0.999 . S
C506 H476 0.950 . S
C506 C505 1.524 . S
C506 C507 1.415 . S
C507 H477 0.950 . S
C507 C502 1.363 . S
C507 C506 1.415 . S
H508 C505 0.999 . S
H509 C490 0.913 . S
H510 C528 0.951 . S
H511 C530 0.951 . S
H512 C532 0.950 . S
H513 C533 0.950 . S
H514 C535 0.950 . S
H515 C538 0.950 . S
H516 C539 0.950 . S
H517 C541 0.950 . S
H518 C542 0.950 . S
H519 C543 0.951 . S
H520 C545 0.951 . S
H521 C547 0.950 . S
H522 C548 0.950 . S
H523 C550 0.950 . S
H524 C553 0.950 . S
H525 C554 0.950 . S
H526 C556 0.950 . S
H527 C557 0.950 . S
C528 H510 0.951 . S
C528 C529 1.366 . S
C528 C530 1.388 . S
C529 C528 1.366 . S
C529 C533 1.385 . S
C530 H511 0.951 . S
C530 C528 1.388 . S
C530 C531 1.366 . S
C531 C530 1.366 . S
C531 C532 1.414 . S
C531 C534 1.499 . S
C532 H512 0.950 . S
C532 C531 1.414 . S
C532 C533 1.374 . S
C533 H513 0.950 . S
C533 C529 1.385 . S
C533 C532 1.374 . S
C534 C531 1.499 . S
C534 C535 1.373 . S
C534 C536 1.389 . S
C535 H514 0.950 . S
C535 C534 1.373 . S
C535 C551 1.377 . S
C536 C534 1.389 . S
C536 C537 1.524 . S
C536 C550 1.377 . S
C537 C536 1.524 . S
C537 C538 1.397 . S
C537 C542 1.363 . S
C538 H515 0.950 . S
C538 C537 1.397 . S
C538 C539 1.334 . S
C539 H516 0.950 . S
C539 C538 1.334 . S
C539 C540 1.287 . S
C540 C539 1.287 . S
C540 C541 1.524 . S
C540 H559 0.913 . S
C541 H517 0.950 . S
C541 C540 1.524 . S
C541 C542 1.415 . S
C542 H518 0.950 . S
C542 C537 1.363 . S
C542 C541 1.415 . S
C543 H519 0.951 . S
C543 C544 1.366 . S
C543 C545 1.388 . S
C544 C543 1.366 . S
C544 C548 1.385 . S
C545 H520 0.951 . S
C545 C543 1.388 . S
C545 C546 1.366 . S
C546 C545 1.366 . S
C546 C547 1.414 . S
C546 C549 1.499 . S
C547 H521 0.950 . S
C547 C546 1.414 . S
C547 C548 1.374 . S
C548 H522 0.950 . S
C548 C544 1.385 . S
C548 C547 1.374 . S
C549 C546 1.499 . S
C549 C550 1.373 . S
C549 C551 1.389 . S
C550 H523 0.950 . S
C550 C536 1.377 . S
C550 C549 1.373 . S
C551 C535 1.377 . S
C551 C549 1.389 . S
C551 C552 1.524 . S
C552 C551 1.524 . S
C552 C553 1.397 . S
C552 C557 1.363 . S
C553 H524 0.950 . S
C553 C552 1.397 . S
C553 C554 1.334 . S
C554 H525 0.950 . S
C554 C553 1.334 . S
C554 C555 1.287 . S
C555 C554 1.287 . S
C555 C556 1.524 . S
C555 H558 0.999 . S
C556 H526 0.950 . S
C556 C555 1.524 . S
C556 C557 1.415 . S
C557 H527 0.950 . S
C557 C552 1.363 . S
C557 C556 1.415 . S
H558 C555 0.999 . S
H559 C540 0.913 . S
H560 C578 0.951 . S
H561 C580 0.951 . S
H562 C582 0.950 . S
H563 C583 0.950 . S
H564 C585 0.950 . S
H565 C588 0.950 . S
H566 C589 0.950 . S
H567 C591 0.950 . S
H568 C592 0.950 . S
H569 C593 0.951 . S
H570 C595 0.951 . S
H571 C597 0.950 . S
H572 C598 0.950 . S
H573 C600 0.950 . S
H574 C603 0.950 . S
H575 C604 0.950 . S
H576 C606 0.950 . S
H577 C607 0.950 . S
C578 H560 0.951 . S
C578 C579 1.366 . S
C578 C580 1.388 . S
C579 C578 1.366 . S
C579 C583 1.385 . S
C580 H561 0.951 . S
C580 C578 1.388 . S
C580 C581 1.366 . S
C581 C580 1.366 . S
C581 C582 1.414 . S
C581 C584 1.499 . S
C582 H562 0.950 . S
C582 C581 1.414 . S
C582 C583 1.374 . S
C583 H563 0.950 . S
C583 C579 1.385 . S
C583 C582 1.374 . S
C584 C581 1.499 . S
C584 C585 1.373 . S
C584 C586 1.389 . S
C585 H564 0.950 . S
C585 C584 1.373 . S
C585 C601 1.377 . S
C586 C584 1.389 . S
C586 C587 1.524 . S
C586 C600 1.377 . S
C587 C586 1.524 . S
C587 C588 1.397 . S
C587 C592 1.363 . S
C588 H565 0.950 . S
C588 C587 1.397 . S
C588 C589 1.334 . S
C589 H566 0.950 . S
C589 C588 1.334 . S
C589 C590 1.287 . S
C590 C589 1.287 . S
C590 C591 1.524 . S
C590 H609 0.913 . S
C591 H567 0.950 . S
C591 C590 1.524 . S
C591 C592 1.415 . S
C592 H568 0.950 . S
C592 C587 1.363 . S
C592 C591 1.415 . S
C593 H569 0.951 . S
C593 C594 1.366 . S
C593 C595 1.388 . S
C594 C593 1.366 . S
C594 C598 1.385 . S
C595 H570 0.951 . S
C595 C593 1.388 . S
C595 C596 1.366 . S
C596 C595 1.366 . S
C596 C597 1.414 . S
C596 C599 1.499 . S
C597 H571 0.950 . S
C597 C596 1.414 . S
C597 C598 1.374 . S
C598 H572 0.950 . S
C598 C594 1.385 . S
C598 C597 1.374 . S
C599 C596 1.499 . S
C599 C600 1.373 . S
C599 C601 1.389 . S
C600 H573 0.950 . S
C600 C586 1.377 . S
C600 C599 1.373 . S
C601 C585 1.377 . S
C601 C599 1.389 . S
C601 C602 1.524 . S
C602 C601 1.524 . S
C602 C603 1.397 . S
C602 C607 1.363 . S
C603 H574 0.950 . S
C603 C602 1.397 . S
C603 C604 1.334 . S
C604 H575 0.950 . S
C604 C603 1.334 . S
C604 C605 1.287 . S
C605 C604 1.287 . S
C605 C606 1.524 . S
C605 H608 0.999 . S
C606 H576 0.950 . S
C606 C605 1.524 . S
C606 C607 1.415 . S
C607 H577 0.950 . S
C607 C602 1.363 . S
C607 C606 1.415 . S
H608 C605 0.999 . S
H609 C590 0.913 . S
H610 C628 0.951 . S
H611 C630 0.951 . S
H612 C632 0.950 . S
H613 C633 0.950 . S
H614 C635 0.950 . S
H615 C638 0.950 . S
H616 C639 0.950 . S
H617 C641 0.950 . S
H618 C642 0.950 . S
H619 C643 0.951 . S
H620 C645 0.951 . S
H621 C647 0.950 . S
H622 C648 0.950 . S
H623 C650 0.950 . S
H624 C653 0.950 . S
H625 C654 0.950 . S
H626 C656 0.950 . S
H627 C657 0.950 . S
C628 H610 0.951 . S
C628 C629 1.366 . S
C628 C630 1.388 . S
C629 C628 1.366 . S
C629 C633 1.385 . S
C630 H611 0.951 . S
C630 C628 1.388 . S
C630 C631 1.366 . S
C631 C630 1.366 . S
C631 C632 1.414 . S
C631 C634 1.499 . S
C632 H612 0.950 . S
C632 C631 1.414 . S
C632 C633 1.374 . S
C633 H613 0.950 . S
C633 C629 1.385 . S
C633 C632 1.374 . S
C634 C631 1.499 . S
C634 C635 1.373 . S
C634 C636 1.389 . S
C635 H614 0.950 . S
C635 C634 1.373 . S
C635 C651 1.377 . S
C636 C634 1.389 . S
C636 C637 1.524 . S
C636 C650 1.377 . S
C637 C636 1.524 . S
C637 C638 1.397 . S
C637 C642 1.363 . S
C638 H615 0.950 . S
C638 C637 1.397 . S
C638 C639 1.334 . S
C639 H616 0.950 . S
C639 C638 1.334 . S
C639 C640 1.287 . S
C640 C639 1.287 . S
C640 C641 1.524 . S
C640 H659 0.913 . S
C641 H617 0.950 . S
C641 C640 1.524 . S
C641 C642 1.415 . S
C642 H618 0.950 . S
C642 C637 1.363 . S
C642 C641 1.415 . S
C643 H619 0.951 . S
C643 C644 1.366 . S
C643 C645 1.388 . S
C644 C643 1.366 . S
C644 C648 1.385 . S
C645 H620 0.951 . S
C645 C643 1.388 . S
C645 C646 1.366 . S
C646 C645 1.366 . S
C646 C647 1.414 . S
C646 C649 1.499 . S
C647 H621 0.950 . S
C647 C646 1.414 . S
C647 C648 1.374 . S
C648 H622 0.950 . S
C648 C644 1.385 . S
C648 C647 1.374 . S
C649 C646 1.499 . S
C649 C650 1.373 . S
C649 C651 1.389 . S
C650 H623 0.950 . S
C650 C636 1.377 . S
C650 C649 1.373 . S
C651 C635 1.377 . S
C651 C649 1.389 . S
C651 C652 1.524 . S
C652 C651 1.524 . S
C652 C653 1.397 . S
C652 C657 1.363 . S
C653 H624 0.950 . S
C653 C652 1.397 . S
C653 C654 1.334 . S
C654 H625 0.950 . S
C654 C653 1.334 . S
C654 C655 1.287 . S
C655 C654 1.287 . S
C655 C656 1.524 . S
C655 H658 0.999 . S
C656 H626 0.950 . S
C656 C655 1.524 . S
C656 C657 1.415 . S
C657 H627 0.950 . S
C657 C652 1.363 . S
C657 C656 1.415 . S
H658 C655 0.999 . S
H659 C640 0.913 . S
H660 C678 0.951 . S
H661 C680 0.951 . S
H662 C682 0.950 . S
H663 C683 0.950 . S
H664 C685 0.950 . S
H665 C688 0.950 . S
H666 C689 0.950 . S
H667 C691 0.950 . S
H668 C692 0.950 . S
H669 C693 0.951 . S
H670 C695 0.951 . S
H671 C697 0.950 . S
H672 C698 0.950 . S
H673 C700 0.950 . S
H674 C703 0.950 . S
H675 C704 0.950 . S
H676 C706 0.950 . S
H677 C707 0.950 . S
C678 H660 0.951 . S
C678 C679 1.366 . S
C678 C680 1.388 . S
C679 C678 1.366 . S
C679 C683 1.385 . S
C680 H661 0.951 . S
C680 C678 1.388 . S
C680 C681 1.366 . S
C681 C680 1.366 . S
C681 C682 1.414 . S
C681 C684 1.499 . S
C682 H662 0.950 . S
C682 C681 1.414 . S
C682 C683 1.374 . S
C683 H663 0.950 . S
C683 C679 1.385 . S
C683 C682 1.374 . S
C684 C681 1.499 . S
C684 C685 1.373 . S
C684 C686 1.389 . S
C685 H664 0.950 . S
C685 C684 1.373 . S
C685 C701 1.377 . S
C686 C684 1.389 . S
C686 C687 1.498 1_554 S
C686 C700 1.377 . S
C687 C686 1.498 1_556 S
C687 C688 1.430 . S
C687 C692 1.358 1_556 S
C688 H665 0.950 . S
C688 C687 1.430 . S
C688 C689 1.334 . S
C689 H666 0.950 . S
C689 C688 1.334 . S
C689 C690 1.287 . S
C690 C689 1.287 . S
C690 C691 1.524 . S
C690 H709 0.913 . S
C691 H667 0.950 . S
C691 C690 1.524 . S
C691 C692 1.415 1_556 S
C692 H668 0.950 . S
C692 C687 1.358 1_554 S
C692 C691 1.415 1_554 S
C693 H669 0.951 . S
C693 C694 1.366 . S
C693 C695 1.388 . S
C694 C693 1.366 . S
C694 C698 1.385 . S
C695 H670 0.951 . S
C695 C693 1.388 . S
C695 C696 1.366 . S
C696 C695 1.366 . S
C696 C697 1.414 . S
C696 C699 1.499 . S
C697 H671 0.950 . S
C697 C696 1.414 . S
C697 C698 1.374 . S
C698 H672 0.950 . S
C698 C694 1.385 . S
C698 C697 1.374 . S
C699 C696 1.499 . S
C699 C700 1.373 . S
C699 C701 1.389 . S
C700 H673 0.950 . S
C700 C686 1.377 . S
C700 C699 1.373 . S
C701 C685 1.377 . S
C701 C699 1.389 . S
C701 C702 1.524 . S
C702 C701 1.524 . S
C702 C703 1.397 . S
C702 C707 1.363 . S
C703 H674 0.950 . S
C703 C702 1.397 . S
C703 C704 1.334 . S
C704 H675 0.950 . S
C704 C703 1.334 . S
C704 C705 1.287 . S
C705 C704 1.287 . S
C705 C706 1.524 . S
C705 H708 0.999 . S
C706 H676 0.950 . S
C706 C705 1.524 . S
C706 C707 1.415 . S
C707 H677 0.950 . S
C707 C702 1.363 . S
C707 C706 1.415 . S
H708 C705 0.999 . S
H709 C690 0.913 . S
H710 C728 0.951 . S
H711 C730 0.951 . S
H712 C732 0.950 . S
H713 C733 0.950 . S
H714 C735 0.950 . S
H715 C738 0.950 . S
H716 C739 0.950 . S
H717 C741 0.950 . S
H718 C742 0.950 . S
H719 C743 0.951 . S
H720 C745 0.951 . S
H721 C747 0.950 . S
H722 C748 0.950 . S
H723 C750 0.950 . S
H724 C753 0.950 . S
H725 C754 0.950 . S
H726 C756 0.950 . S
H727 C757 0.950 . S
C728 H710 0.951 . S
C728 C729 1.366 . S
C728 C730 1.388 . S
C729 C728 1.366 . S
C729 C733 1.385 . S
C730 H711 0.951 . S
C730 C728 1.388 . S
C730 C731 1.366 . S
C731 C730 1.366 . S
C731 C732 1.414 . S
C731 C734 1.499 . S
C732 H712 0.950 . S
C732 C731 1.414 . S
C732 C733 1.374 . S
C733 H713 0.950 . S
C733 C729 1.385 . S
C733 C732 1.374 . S
C734 C731 1.499 . S
C734 C735 1.373 . S
C734 C736 1.389 . S
C735 H714 0.950 . S
C735 C734 1.373 . S
C735 C751 1.377 . S
C736 C734 1.389 . S
C736 C737 1.524 . S
C736 C750 1.377 . S
C737 C736 1.524 . S
C737 C738 1.397 . S
C737 C742 1.363 . S
C738 H715 0.950 . S
C738 C737 1.397 . S
C738 C739 1.334 . S
C739 H716 0.950 . S
C739 C738 1.334 . S
C739 C740 1.287 . S
C740 C739 1.287 . S
C740 C741 1.524 . S
C740 H759 0.913 . S
C741 H717 0.950 . S
C741 C740 1.524 . S
C741 C742 1.415 . S
C742 H718 0.950 . S
C742 C737 1.363 . S
C742 C741 1.415 . S
C743 H719 0.951 . S
C743 C744 1.366 . S
C743 C745 1.388 . S
C744 C743 1.366 . S
C744 C748 1.385 . S
C745 H720 0.951 . S
C745 C743 1.388 . S
C745 C746 1.366 . S
C746 C745 1.366 . S
C746 C747 1.414 . S
C746 C749 1.499 . S
C747 H721 0.950 . S
C747 C746 1.414 . S
C747 C748 1.374 . S
C748 H722 0.950 . S
C748 C744 1.385 . S
C748 C747 1.374 . S
C749 C746 1.499 . S
C749 C750 1.373 . S
C749 C751 1.389 . S
C750 H723 0.950 . S
C750 C736 1.377 . S
C750 C749 1.373 . S
C751 C735 1.377 . S
C751 C749 1.389 . S
C751 C752 1.524 . S
C752 C751 1.524 . S
C752 C753 1.397 . S
C752 C757 1.363 . S
C753 H724 0.950 . S
C753 C752 1.397 . S
C753 C754 1.334 . S
C754 H725 0.950 . S
C754 C753 1.334 . S
C754 C755 1.287 . S
C755 C754 1.287 . S
C755 C756 1.524 . S
C755 H758 0.999 . S
C756 H726 0.950 . S
C756 C755 1.524 . S
C756 C757 1.415 . S
C757 H727 0.950 . S
C757 C752 1.363 . S
C757 C756 1.415 . S
H758 C755 0.999 . S
H759 C740 0.913 . S
H760 C778 0.951 . S
H761 C780 0.951 . S
H762 C782 0.950 . S
H763 C783 0.950 . S
H764 C785 0.950 . S
H765 C788 0.950 . S
H766 C789 0.950 . S
H767 C791 0.950 . S
H768 C792 0.950 . S
H769 C793 0.951 . S
H770 C795 0.951 . S
H771 C797 0.950 . S
H772 C798 0.950 . S
H773 C800 0.950 . S
H774 C803 0.950 . S
H775 C804 0.950 . S
H776 C806 0.950 . S
H777 C807 0.950 . S
C778 H760 0.951 . S
C778 C779 1.366 . S
C778 C780 1.388 . S
C779 C778 1.366 . S
C779 C783 1.385 . S
C780 H761 0.951 . S
C780 C778 1.388 . S
C780 C781 1.366 . S
C781 C780 1.366 . S
C781 C782 1.414 . S
C781 C784 1.499 . S
C782 H762 0.950 . S
C782 C781 1.414 . S
C782 C783 1.374 . S
C783 H763 0.950 . S
C783 C779 1.385 . S
C783 C782 1.374 . S
C784 C781 1.499 . S
C784 C785 1.373 . S
C784 C786 1.389 . S
C785 H764 0.950 . S
C785 C784 1.373 . S
C785 C801 1.377 . S
C786 C784 1.389 . S
C786 C787 1.524 . S
C786 C800 1.377 . S
C787 C786 1.524 . S
C787 C788 1.397 . S
C787 C792 1.363 . S
C788 H765 0.950 . S
C788 C787 1.397 . S
C788 C789 1.334 . S
C789 H766 0.950 . S
C789 C788 1.334 . S
C789 C790 1.287 . S
C790 C789 1.287 . S
C790 C791 1.524 . S
C790 H809 0.913 . S
C791 H767 0.950 . S
C791 C790 1.524 . S
C791 C792 1.415 . S
C792 H768 0.950 . S
C792 C787 1.363 . S
C792 C791 1.415 . S
C793 H769 0.951 . S
C793 C794 1.366 . S
C793 C795 1.388 . S
C794 C793 1.366 . S
C794 C798 1.385 . S
C795 H770 0.951 . S
C795 C793 1.388 . S
C795 C796 1.366 . S
C796 C795 1.366 . S
C796 C797 1.414 . S
C796 C799 1.499 . S
C797 H771 0.950 . S
C797 C796 1.414 . S
C797 C798 1.374 . S
C798 H772 0.950 . S
C798 C794 1.385 . S
C798 C797 1.374 . S
C799 C796 1.499 . S
C799 C800 1.373 . S
C799 C801 1.389 . S
C800 H773 0.950 . S
C800 C786 1.377 . S
C800 C799 1.373 . S
C801 C785 1.377 . S
C801 C799 1.389 . S
C801 C802 1.524 . S
C802 C801 1.524 . S
C802 C803 1.397 . S
C802 C807 1.363 . S
C803 H774 0.950 . S
C803 C802 1.397 . S
C803 C804 1.334 . S
C804 H775 0.950 . S
C804 C803 1.334 . S
C804 C805 1.287 . S
C805 C804 1.287 . S
C805 C806 1.524 . S
C805 H808 0.999 . S
C806 H776 0.950 . S
C806 C805 1.524 . S
C806 C807 1.415 . S
C807 H777 0.950 . S
C807 C802 1.363 . S
C807 C806 1.415 . S
H808 C805 0.999 . S
H809 C790 0.913 . S
H810 C828 0.951 . S
H811 C830 0.951 . S
H812 C832 0.950 . S
H813 C833 0.950 . S
H814 C835 0.950 . S
H815 C838 0.950 . S
H816 C839 0.950 . S
H817 C841 0.950 . S
H818 C842 0.950 . S
H819 C843 0.951 . S
H820 C845 0.951 . S
H821 C847 0.950 . S
H822 C848 0.950 . S
H823 C850 0.950 . S
H824 C853 0.950 . S
H825 C854 0.950 . S
H826 C856 0.950 . S
H827 C857 0.950 . S
C828 H810 0.951 . S
C828 C829 1.366 . S
C828 C830 1.388 . S
C829 C828 1.366 . S
C829 C833 1.385 . S
C830 H811 0.951 . S
C830 C828 1.388 . S
C830 C831 1.366 . S
C831 C830 1.366 . S
C831 C832 1.414 . S
C831 C834 1.499 . S
C832 H812 0.950 . S
C832 C831 1.414 . S
C832 C833 1.374 . S
C833 H813 0.950 . S
C833 C829 1.385 . S
C833 C832 1.374 . S
C834 C831 1.499 . S
C834 C835 1.373 . S
C834 C836 1.389 . S
C835 H814 0.950 . S
C835 C834 1.373 . S
C835 C851 1.377 . S
C836 C834 1.389 . S
C836 C837 1.524 . S
C836 C850 1.377 . S
C837 C836 1.524 . S
C837 C838 1.397 . S
C837 C842 1.363 . S
C838 H815 0.950 . S
C838 C837 1.397 . S
C838 C839 1.334 . S
C839 H816 0.950 . S
C839 C838 1.334 . S
C839 C840 1.287 . S
C840 C839 1.287 . S
C840 C841 1.524 . S
C840 H859 0.913 . S
C841 H817 0.950 . S
C841 C840 1.524 . S
C841 C842 1.415 . S
C842 H818 0.950 . S
C842 C837 1.363 . S
C842 C841 1.415 . S
C843 H819 0.951 . S
C843 C844 1.366 . S
C843 C845 1.388 . S
C844 C843 1.366 . S
C844 C848 1.385 . S
C845 H820 0.951 . S
C845 C843 1.388 . S
C845 C846 1.366 . S
C846 C845 1.366 . S
C846 C847 1.414 . S
C846 C849 1.499 . S
C847 H821 0.950 . S
C847 C846 1.414 . S
C847 C848 1.374 . S
C848 H822 0.950 . S
C848 C844 1.385 . S
C848 C847 1.374 . S
C849 C846 1.499 . S
C849 C850 1.373 . S
C849 C851 1.389 . S
C850 H823 0.950 . S
C850 C836 1.377 . S
C850 C849 1.373 . S
C851 C835 1.377 . S
C851 C849 1.389 . S
C851 C852 1.524 . S
C852 C851 1.524 . S
C852 C853 1.397 . S
C852 C857 1.363 . S
C853 H824 0.950 . S
C853 C852 1.397 . S
C853 C854 1.334 . S
C854 H825 0.950 . S
C854 C853 1.334 . S
C854 C855 1.287 . S
C855 C854 1.287 . S
C855 C856 1.524 . S
C855 H858 0.999 . S
C856 H826 0.950 . S
C856 C855 1.524 . S
C856 C857 1.415 . S
C857 H827 0.950 . S
C857 C852 1.363 . S
C857 C856 1.415 . S
H858 C855 0.999 . S
H859 C840 0.913 . S
H860 C878 0.951 . S
H861 C880 0.951 . S
H862 C882 0.950 . S
H863 C883 0.950 . S
H864 C885 0.950 . S
H865 C888 0.950 . S
H866 C889 0.950 . S
H867 C891 0.950 . S
H868 C892 0.950 . S
H869 C893 0.951 . S
H870 C895 0.951 . S
H871 C897 0.950 . S
H872 C898 0.950 . S
H873 C900 0.950 . S
H874 C903 0.950 . S
H875 C904 0.950 . S
H876 C906 0.950 . S
H877 C907 0.950 . S
C878 H860 0.951 . S
C878 C879 1.366 . S
C878 C880 1.388 . S
C879 C878 1.366 . S
C879 C883 1.385 . S
C880 H861 0.951 . S
C880 C878 1.388 . S
C880 C881 1.366 . S
C881 C880 1.366 . S
C881 C882 1.414 . S
C881 C884 1.499 . S
C882 H862 0.950 . S
C882 C881 1.414 . S
C882 C883 1.374 . S
C883 H863 0.950 . S
C883 C879 1.385 . S
C883 C882 1.374 . S
C884 C881 1.499 . S
C884 C885 1.373 . S
C884 C886 1.389 . S
C885 H864 0.950 . S
C885 C884 1.373 . S
C885 C901 1.377 . S
C886 C884 1.389 . S
C886 C887 1.524 . S
C886 C900 1.377 . S
C887 C886 1.524 . S
C887 C888 1.397 . S
C887 C892 1.363 . S
C888 H865 0.950 . S
C888 C887 1.397 . S
C888 C889 1.334 . S
C889 H866 0.950 . S
C889 C888 1.334 . S
C889 C890 1.287 . S
C890 C889 1.287 . S
C890 C891 1.524 . S
C890 H909 0.913 . S
C891 H867 0.950 . S
C891 C890 1.524 . S
C891 C892 1.415 . S
C892 H868 0.950 . S
C892 C887 1.363 . S
C892 C891 1.415 . S
C893 H869 0.951 . S
C893 C894 1.366 . S
C893 C895 1.388 . S
C894 C893 1.366 . S
C894 C898 1.385 . S
C895 H870 0.951 . S
C895 C893 1.388 . S
C895 C896 1.366 . S
C896 C895 1.366 . S
C896 C897 1.414 . S
C896 C899 1.499 . S
C897 H871 0.950 . S
C897 C896 1.414 . S
C897 C898 1.374 . S
C898 H872 0.950 . S
C898 C894 1.385 . S
C898 C897 1.374 . S
C899 C896 1.499 . S
C899 C900 1.373 . S
C899 C901 1.389 . S
C900 H873 0.950 . S
C900 C886 1.377 . S
C900 C899 1.373 . S
C901 C885 1.377 . S
C901 C899 1.389 . S
C901 C902 1.524 . S
C902 C901 1.524 . S
C902 C903 1.397 . S
C902 C907 1.363 . S
C903 H874 0.950 . S
C903 C902 1.397 . S
C903 C904 1.334 . S
C904 H875 0.950 . S
C904 C903 1.334 . S
C904 C905 1.287 . S
C905 C904 1.287 . S
C905 C906 1.524 . S
C905 H908 0.999 . S
C906 H876 0.950 . S
C906 C905 1.524 . S
C906 C907 1.415 . S
C907 H877 0.950 . S
C907 C902 1.363 . S
C907 C906 1.415 . S
H908 C905 0.999 . S
H909 C890 0.913 . S
H910 C928 0.951 . S
H911 C930 0.951 . S
H912 C932 0.950 . S
H913 C933 0.950 . S
H914 C935 0.950 . S
H915 C938 0.950 . S
H916 C939 0.950 . S
H917 C941 0.950 . S
H918 C942 0.950 . S
H919 C943 0.951 . S
H920 C945 0.951 . S
H921 C947 0.950 . S
H922 C948 0.950 . S
H923 C950 0.950 . S
H924 C953 0.950 . S
H925 C954 0.950 . S
H926 C956 0.950 . S
H927 C957 0.950 . S
C928 H910 0.951 . S
C928 C929 1.366 . S
C928 C930 1.388 . S
C929 C928 1.366 . S
C929 C933 1.385 . S
C930 H911 0.951 . S
C930 C928 1.388 . S
C930 C931 1.366 . S
C931 C930 1.366 . S
C931 C932 1.414 . S
C931 C934 1.499 . S
C932 H912 0.950 . S
C932 C931 1.414 . S
C932 C933 1.374 . S
C933 H913 0.950 . S
C933 C929 1.385 . S
C933 C932 1.374 . S
C934 C931 1.499 . S
C934 C935 1.373 . S
C934 C936 1.389 . S
C935 H914 0.950 . S
C935 C934 1.373 . S
C935 C951 1.377 . S
C936 C934 1.389 . S
C936 C937 1.524 . S
C936 C950 1.377 . S
C937 C936 1.524 . S
C937 C938 1.397 . S
C937 C942 1.363 . S
C938 H915 0.950 . S
C938 C937 1.397 . S
C938 C939 1.334 . S
C939 H916 0.950 . S
C939 C938 1.334 . S
C939 C940 1.287 . S
C940 C939 1.287 . S
C940 C941 1.524 . S
C940 H959 0.913 . S
C941 H917 0.950 . S
C941 C940 1.524 . S
C941 C942 1.415 . S
C942 H918 0.950 . S
C942 C937 1.363 . S
C942 C941 1.415 . S
C943 H919 0.951 . S
C943 C944 1.366 . S
C943 C945 1.388 . S
C944 C943 1.366 . S
C944 C948 1.385 . S
C945 H920 0.951 . S
C945 C943 1.388 . S
C945 C946 1.366 . S
C946 C945 1.366 . S
C946 C947 1.414 . S
C946 C949 1.499 . S
C947 H921 0.950 . S
C947 C946 1.414 . S
C947 C948 1.374 . S
C948 H922 0.950 . S
C948 C944 1.385 . S
C948 C947 1.374 . S
C949 C946 1.499 . S
C949 C950 1.373 . S
C949 C951 1.389 . S
C950 H923 0.950 . S
C950 C936 1.377 . S
C950 C949 1.373 . S
C951 C935 1.377 . S
C951 C949 1.389 . S
C951 C952 1.524 . S
C952 C951 1.524 . S
C952 C953 1.397 . S
C952 C957 1.363 . S
C953 H924 0.950 . S
C953 C952 1.397 . S
C953 C954 1.334 . S
C954 H925 0.950 . S
C954 C953 1.334 . S
C954 C955 1.287 . S
C955 C954 1.287 . S
C955 C956 1.524 . S
C955 H958 0.999 . S
C956 H926 0.950 . S
C956 C955 1.524 . S
C956 C957 1.415 . S
C957 H927 0.950 . S
C957 C952 1.363 . S
C957 C956 1.415 . S
H958 C955 0.999 . S
H959 C940 0.913 . S
H960 C978 0.951 . S
H961 C980 0.951 . S
H962 C982 0.950 . S
H963 C983 0.950 . S
H964 C985 0.950 . S
H965 C988 0.950 . S
H966 C989 0.950 . S
H967 C991 0.950 . S
H968 C992 0.950 . S
H969 C993 0.951 . S
H970 C995 0.951 . S
H971 C997 0.950 . S
H972 C998 0.950 . S
H973 C1000 0.950 . S
H974 C1003 0.950 . S
H975 C1004 0.950 . S
H976 C1006 0.950 . S
H977 C1007 0.950 . S
C978 H960 0.951 . S
C978 C979 1.366 . S
C978 C980 1.388 . S
C979 C978 1.366 . S
C979 C983 1.385 . S
C980 H961 0.951 . S
C980 C978 1.388 . S
C980 C981 1.366 . S
C981 C980 1.366 . S
C981 C982 1.414 . S
C981 C984 1.499 . S
C982 H962 0.950 . S
C982 C981 1.414 . S
C982 C983 1.374 . S
C983 H963 0.950 . S
C983 C979 1.385 . S
C983 C982 1.374 . S
C984 C981 1.499 . S
C984 C985 1.373 . S
C984 C986 1.389 . S
C985 H964 0.950 . S
C985 C984 1.373 . S
C985 C1001 1.377 . S
C986 C984 1.389 . S
C986 C987 1.524 . S
C986 C1000 1.377 . S
C987 C986 1.524 . S
C987 C988 1.397 . S
C987 C992 1.363 . S
C988 H965 0.950 . S
C988 C987 1.397 . S
C988 C989 1.334 . S
C989 H966 0.950 . S
C989 C988 1.334 . S
C989 C990 1.287 . S
C990 C989 1.287 . S
C990 C991 1.524 . S
C990 H1009 0.913 . S
C991 H967 0.950 . S
C991 C990 1.524 . S
C991 C992 1.415 . S
C992 H968 0.950 . S
C992 C987 1.363 . S
C992 C991 1.415 . S
C993 H969 0.951 . S
C993 C994 1.366 . S
C993 C995 1.367 1_554 S
C994 C993 1.366 . S
C994 C998 1.360 1_554 S
C995 H970 0.951 . S
C995 C993 1.367 1_556 S
C995 C996 1.388 . S
C996 C995 1.388 . S
C996 C997 1.414 . S
C996 C999 1.499 . S
C997 H971 0.950 . S
C997 C996 1.414 . S
C997 C998 1.398 . S
C998 H972 0.950 . S
C998 C994 1.360 1_556 S
C998 C997 1.398 . S
C999 C996 1.499 . S
C999 C1000 1.373 . S
C999 C1001 1.389 . S
C1000 H973 0.950 . S
C1000 C986 1.377 . S
C1000 C999 1.373 . S
C1001 C985 1.377 . S
C1001 C999 1.389 . S
C1001 C1002 1.524 . S
C1002 C1001 1.524 . S
C1002 C1003 1.397 . S
C1002 C1007 1.363 . S
C1003 H974 0.950 . S
C1003 C1002 1.397 . S
C1003 C1004 1.334 . S
C1004 H975 0.950 . S
C1004 C1003 1.334 . S
C1004 C1005 1.287 . S
C1005 C1004 1.287 . S
C1005 C1006 1.524 . S
C1005 H1008 0.999 . S
C1006 H976 0.950 . S
C1006 C1005 1.524 . S
C1006 C1007 1.415 . S
C1007 H977 0.950 . S
C1007 C1002 1.363 . S
C1007 C1006 1.415 . S
H1008 C1005 0.999 . S
H1009 C990 0.913 . S
H1010 C1028 0.951 . S
H1011 C1030 0.951 . S
H1012 C1032 0.950 . S
H1013 C1033 0.950 . S
H1014 C1035 0.950 . S
H1015 C1038 0.950 . S
H1016 C1039 0.950 . S
H1017 C1041 0.950 . S
H1018 C1042 0.950 . S
H1019 C1043 0.951 . S
H1020 C1045 0.951 . S
H1021 C1047 0.950 . S
H1022 C1048 0.950 . S
H1023 C1050 0.950 . S
H1024 C1053 0.950 . S
H1025 C1054 0.950 . S
H1026 C1056 0.950 . S
H1027 C1057 0.950 . S
C1028 H1010 0.951 . S
C1028 C1029 1.366 . S
C1028 C1030 1.388 . S
C1029 C1028 1.366 . S
C1029 C1033 1.385 . S
C1030 H1011 0.951 . S
C1030 C1028 1.388 . S
C1030 C1031 1.366 . S
C1031 C1030 1.366 . S
C1031 C1032 1.414 . S
C1031 C1034 1.499 . S
C1032 H1012 0.950 . S
C1032 C1031 1.414 . S
C1032 C1033 1.374 . S
C1033 H1013 0.950 . S
C1033 C1029 1.385 . S
C1033 C1032 1.374 . S
C1034 C1031 1.499 . S
C1034 C1035 1.373 . S
C1034 C1036 1.389 . S
C1035 H1014 0.950 . S
C1035 C1034 1.373 . S
C1035 C1051 1.377 . S
C1036 C1034 1.389 . S
C1036 C1037 1.524 . S
C1036 C1050 1.377 . S
C1037 C1036 1.524 . S
C1037 C1038 1.397 . S
C1037 C1042 1.363 . S
C1038 H1015 0.950 . S
C1038 C1037 1.397 . S
C1038 C1039 1.334 . S
C1039 H1016 0.950 . S
C1039 C1038 1.334 . S
C1039 C1040 1.287 . S
C1040 C1039 1.287 . S
C1040 C1041 1.524 . S
C1040 H1059 0.913 . S
C1041 H1017 0.950 . S
C1041 C1040 1.524 . S
C1041 C1042 1.415 . S
C1042 H1018 0.950 . S
C1042 C1037 1.363 . S
C1042 C1041 1.415 . S
C1043 H1019 0.951 . S
C1043 C1044 1.366 . S
C1043 C1045 1.388 . S
C1044 C1043 1.366 . S
C1044 C1048 1.385 . S
C1045 H1020 0.951 . S
C1045 C1043 1.388 . S
C1045 C1046 1.366 . S
C1046 C1045 1.366 . S
C1046 C1047 1.414 . S
C1046 C1049 1.499 . S
C1047 H1021 0.950 . S
C1047 C1046 1.414 . S
C1047 C1048 1.374 . S
C1048 H1022 0.950 . S
C1048 C1044 1.385 . S
C1048 C1047 1.374 . S
C1049 C1046 1.499 . S
C1049 C1050 1.373 . S
C1049 C1051 1.389 . S
C1050 H1023 0.950 . S
C1050 C1036 1.377 . S
C1050 C1049 1.373 . S
C1051 C1035 1.377 . S
C1051 C1049 1.389 . S
C1051 C1052 1.524 . S
C1052 C1051 1.524 . S
C1052 C1053 1.397 . S
C1052 C1057 1.363 . S
C1053 H1024 0.950 . S
C1053 C1052 1.397 . S
C1053 C1054 1.334 . S
C1054 H1025 0.950 . S
C1054 C1053 1.334 . S
C1054 C1055 1.287 . S
C1055 C1054 1.287 . S
C1055 C1056 1.524 . S
C1055 H1058 0.999 . S
C1056 H1026 0.950 . S
C1056 C1055 1.524 . S
C1056 C1057 1.415 . S
C1057 H1027 0.950 . S
C1057 C1052 1.363 . S
C1057 C1056 1.415 . S
H1058 C1055 0.999 . S
H1059 C1040 0.913 . S
H1060 C1078 0.951 . S
H1061 C1080 0.951 . S
H1062 C1082 0.950 . S
H1063 C1083 0.950 . S
H1064 C1085 0.950 . S
H1065 C1088 0.950 . S
H1066 C1089 0.950 . S
H1067 C1091 0.950 . S
H1068 C1092 0.950 . S
H1069 C1093 0.951 . S
H1070 C1095 0.951 . S
H1071 C1097 0.950 . S
H1072 C1098 0.950 . S
H1073 C1100 0.950 . S
H1074 C1103 0.950 . S
H1075 C1104 0.950 . S
H1076 C1106 0.950 . S
H1077 C1107 0.950 . S
C1078 H1060 0.951 . S
C1078 C1079 1.366 . S
C1078 C1080 1.388 . S
C1079 C1078 1.366 . S
C1079 C1083 1.385 . S
C1080 H1061 0.951 . S
C1080 C1078 1.388 . S
C1080 C1081 1.366 . S
C1081 C1080 1.366 . S
C1081 C1082 1.414 . S
C1081 C1084 1.499 . S
C1082 H1062 0.950 . S
C1082 C1081 1.414 . S
C1082 C1083 1.374 . S
C1083 H1063 0.950 . S
C1083 C1079 1.385 . S
C1083 C1082 1.374 . S
C1084 C1081 1.499 . S
C1084 C1085 1.373 . S
C1084 C1086 1.389 . S
C1085 H1064 0.950 . S
C1085 C1084 1.373 . S
C1085 C1101 1.377 . S
C1086 C1084 1.389 . S
C1086 C1087 1.524 . S
C1086 C1100 1.377 . S
C1087 C1086 1.524 . S
C1087 C1088 1.397 . S
C1087 C1092 1.363 . S
C1088 H1065 0.950 . S
C1088 C1087 1.397 . S
C1088 C1089 1.334 . S
C1089 H1066 0.950 . S
C1089 C1088 1.334 . S
C1089 C1090 1.287 . S
C1090 C1089 1.287 . S
C1090 C1091 1.524 . S
C1090 H1109 0.913 . S
C1091 H1067 0.950 . S
C1091 C1090 1.524 . S
C1091 C1092 1.415 . S
C1092 H1068 0.950 . S
C1092 C1087 1.363 . S
C1092 C1091 1.415 . S
C1093 H1069 0.951 . S
C1093 C1094 1.366 . S
C1093 C1095 1.388 . S
C1094 C1093 1.366 . S
C1094 C1098 1.385 . S
C1095 H1070 0.951 . S
C1095 C1093 1.388 . S
C1095 C1096 1.366 . S
C1096 C1095 1.366 . S
C1096 C1097 1.414 . S
C1096 C1099 1.499 . S
C1097 H1071 0.950 . S
C1097 C1096 1.414 . S
C1097 C1098 1.374 . S
C1098 H1072 0.950 . S
C1098 C1094 1.385 . S
C1098 C1097 1.374 . S
C1099 C1096 1.499 . S
C1099 C1100 1.373 . S
C1099 C1101 1.389 . S
C1100 H1073 0.950 . S
C1100 C1086 1.377 . S
C1100 C1099 1.373 . S
C1101 C1085 1.377 . S
C1101 C1099 1.389 . S
C1101 C1102 1.524 . S
C1102 C1101 1.524 . S
C1102 C1103 1.397 . S
C1102 C1107 1.363 . S
C1103 H1074 0.950 . S
C1103 C1102 1.397 . S
C1103 C1104 1.334 . S
C1104 H1075 0.950 . S
C1104 C1103 1.334 . S
C1104 C1105 1.287 . S
C1105 C1104 1.287 . S
C1105 C1106 1.524 . S
C1105 H1108 0.999 . S
C1106 H1076 0.950 . S
C1106 C1105 1.524 . S
C1106 C1107 1.415 . S
C1107 H1077 0.950 . S
C1107 C1102 1.363 . S
C1107 C1106 1.415 . S
H1108 C1105 0.999 . S
H1109 C1090 0.913 . S
H1110 C1128 0.951 . S
H1111 C1130 0.951 . S
H1112 C1132 0.950 . S
H1113 C1133 0.950 . S
H1114 C1135 0.950 . S
H1115 C1138 0.950 . S
H1116 C1139 0.950 . S
H1117 C1141 0.950 . S
H1118 C1142 0.950 . S
H1119 C1143 0.951 . S
H1120 C1145 0.951 . S
H1121 C1147 0.950 . S
H1122 C1148 0.950 . S
H1123 C1150 0.950 . S
H1124 C1153 0.950 . S
H1125 C1154 0.950 . S
H1126 C1156 0.950 . S
H1127 C1157 0.950 . S
C1128 H1110 0.951 . S
C1128 C1129 1.366 . S
C1128 C1130 1.388 . S
C1129 C1128 1.366 . S
C1129 C1133 1.385 . S
C1130 H1111 0.951 . S
C1130 C1128 1.388 . S
C1130 C1131 1.366 . S
C1131 C1130 1.366 . S
C1131 C1132 1.414 . S
C1131 C1134 1.499 . S
C1132 H1112 0.950 . S
C1132 C1131 1.414 . S
C1132 C1133 1.374 . S
C1133 H1113 0.950 . S
C1133 C1129 1.385 . S
C1133 C1132 1.374 . S
C1134 C1131 1.499 . S
C1134 C1135 1.373 . S
C1134 C1136 1.389 . S
C1135 H1114 0.950 . S
C1135 C1134 1.373 . S
C1135 C1151 1.377 . S
C1136 C1134 1.389 . S
C1136 C1137 1.524 . S
C1136 C1150 1.377 . S
C1137 C1136 1.524 . S
C1137 C1138 1.397 . S
C1137 C1142 1.363 . S
C1138 H1115 0.950 . S
C1138 C1137 1.397 . S
C1138 C1139 1.334 . S
C1139 H1116 0.950 . S
C1139 C1138 1.334 . S
C1139 C1140 1.287 . S
C1140 C1139 1.287 . S
C1140 C1141 1.524 . S
C1140 H1159 0.913 . S
C1141 H1117 0.950 . S
C1141 C1140 1.524 . S
C1141 C1142 1.415 . S
C1142 H1118 0.950 . S
C1142 C1137 1.363 . S
C1142 C1141 1.415 . S
C1143 H1119 0.951 . S
C1143 C1144 1.366 . S
C1143 C1145 1.388 . S
C1144 C1143 1.366 . S
C1144 C1148 1.385 . S
C1145 H1120 0.951 . S
C1145 C1143 1.388 . S
C1145 C1146 1.366 . S
C1146 C1145 1.366 . S
C1146 C1147 1.414 . S
C1146 C1149 1.499 . S
C1147 H1121 0.950 . S
C1147 C1146 1.414 . S
C1147 C1148 1.374 . S
C1148 H1122 0.950 . S
C1148 C1144 1.385 . S
C1148 C1147 1.374 . S
C1149 C1146 1.499 . S
C1149 C1150 1.373 . S
C1149 C1151 1.389 . S
C1150 H1123 0.950 . S
C1150 C1136 1.377 . S
C1150 C1149 1.373 . S
C1151 C1135 1.377 . S
C1151 C1149 1.389 . S
C1151 C1152 1.524 . S
C1152 C1151 1.524 . S
C1152 C1153 1.397 . S
C1152 C1157 1.363 . S
C1153 H1124 0.950 . S
C1153 C1152 1.397 . S
C1153 C1154 1.334 . S
C1154 H1125 0.950 . S
C1154 C1153 1.334 . S
C1154 C1155 1.287 . S
C1155 C1154 1.287 . S
C1155 C1156 1.524 . S
C1155 H1158 0.999 . S
C1156 H1126 0.950 . S
C1156 C1155 1.524 . S
C1156 C1157 1.415 . S
C1157 H1127 0.950 . S
C1157 C1152 1.363 . S
C1157 C1156 1.415 . S
H1158 C1155 0.999 . S
H1159 C1140 0.913 . S
H1160 C1178 0.951 . S
H1161 C1180 0.951 . S
H1162 C1182 0.950 . S
H1163 C1183 0.950 . S
H1164 C1185 0.950 . S
H1165 C1188 0.950 . S
H1166 C1189 0.950 . S
H1167 C1191 0.950 . S
H1168 C1192 0.950 . S
H1169 C1193 0.951 . S
H1170 C1195 0.951 . S
H1171 C1197 0.950 . S
H1172 C1198 0.950 . S
H1173 C1200 0.950 . S
H1174 C1203 0.950 . S
H1175 C1204 0.950 . S
H1176 C1206 0.950 . S
H1177 C1207 0.950 . S
C1178 H1160 0.951 . S
C1178 C1179 1.366 . S
C1178 C1180 1.388 . S
C1179 C1178 1.366 . S
C1179 C1183 1.385 . S
C1180 H1161 0.951 . S
C1180 C1178 1.388 . S
C1180 C1181 1.366 . S
C1181 C1180 1.366 . S
C1181 C1182 1.414 . S
C1181 C1184 1.499 . S
C1182 H1162 0.950 . S
C1182 C1181 1.414 . S
C1182 C1183 1.374 . S
C1183 H1163 0.950 . S
C1183 C1179 1.385 . S
C1183 C1182 1.374 . S
C1184 C1181 1.499 . S
C1184 C1185 1.373 . S
C1184 C1186 1.389 . S
C1185 H1164 0.950 . S
C1185 C1184 1.373 . S
C1185 C1201 1.377 . S
C1186 C1184 1.389 . S
C1186 C1187 1.524 . S
C1186 C1200 1.377 . S
C1187 C1186 1.524 . S
C1187 C1188 1.397 . S
C1187 C1192 1.363 . S
C1188 H1165 0.950 . S
C1188 C1187 1.397 . S
C1188 C1189 1.334 . S
C1189 H1166 0.950 . S
C1189 C1188 1.334 . S
C1189 C1190 1.287 . S
C1190 C1189 1.287 . S
C1190 C1191 1.524 . S
C1190 H1209 0.913 . S
C1191 H1167 0.950 . S
C1191 C1190 1.524 . S
C1191 C1192 1.415 . S
C1192 H1168 0.950 . S
C1192 C1187 1.363 . S
C1192 C1191 1.415 . S
C1193 H1169 0.951 . S
C1193 C1194 1.366 . S
C1193 C1195 1.388 . S
C1194 C1193 1.366 . S
C1194 C1198 1.385 . S
C1195 H1170 0.951 . S
C1195 C1193 1.388 . S
C1195 C1196 1.366 . S
C1196 C1195 1.366 . S
C1196 C1197 1.414 . S
C1196 C1199 1.499 . S
C1197 H1171 0.950 . S
C1197 C1196 1.414 . S
C1197 C1198 1.374 . S
C1198 H1172 0.950 . S
C1198 C1194 1.385 . S
C1198 C1197 1.374 . S
C1199 C1196 1.499 . S
C1199 C1200 1.373 . S
C1199 C1201 1.389 . S
C1200 H1173 0.950 . S
C1200 C1186 1.377 . S
C1200 C1199 1.373 . S
C1201 C1185 1.377 . S
C1201 C1199 1.389 . S
C1201 C1202 1.524 . S
C1202 C1201 1.524 . S
C1202 C1203 1.397 . S
C1202 C1207 1.363 . S
C1203 H1174 0.950 . S
C1203 C1202 1.397 . S
C1203 C1204 1.334 . S
C1204 H1175 0.950 . S
C1204 C1203 1.334 . S
C1204 C1205 1.287 . S
C1205 C1204 1.287 . S
C1205 C1206 1.524 . S
C1205 H1208 0.999 . S
C1206 H1176 0.950 . S
C1206 C1205 1.524 . S
C1206 C1207 1.415 . S
C1207 H1177 0.950 . S
C1207 C1202 1.363 . S
C1207 C1206 1.415 . S
H1208 C1205 0.999 . S
H1209 C1190 0.913 . S
H1210 C1228 0.951 . S
H1211 C1230 0.951 . S
H1212 C1232 0.950 . S
H1213 C1233 0.950 . S
H1214 C1235 0.950 . S
H1215 C1238 0.950 . S
H1216 C1239 0.950 . S
H1217 C1241 0.950 . S
H1218 C1242 0.950 . S
H1219 C1243 0.951 . S
H1220 C1245 0.951 . S
H1221 C1247 0.950 . S
H1222 C1248 0.950 . S
H1223 C1250 0.950 . S
H1224 C1253 0.950 . S
H1225 C1254 0.950 . S
H1226 C1256 0.950 . S
H1227 C1257 0.950 . S
C1228 H1210 0.951 . S
C1228 C1229 1.366 . S
C1228 C1230 1.388 . S
C1229 C1228 1.366 . S
C1229 C1233 1.385 . S
C1230 H1211 0.951 . S
C1230 C1228 1.388 . S
C1230 C1231 1.366 . S
C1231 C1230 1.366 . S
C1231 C1232 1.414 . S
C1231 C1234 1.499 . S
C1232 H1212 0.950 . S
C1232 C1231 1.414 . S
C1232 C1233 1.374 . S
C1233 H1213 0.950 . S
C1233 C1229 1.385 . S
C1233 C1232 1.374 . S
C1234 C1231 1.499 . S
C1234 C1235 1.373 . S
C1234 C1236 1.389 . S
C1235 H1214 0.950 . S
C1235 C1234 1.373 . S
C1235 C1251 1.377 . S
C1236 C1234 1.389 . S
C1236 C1237 1.524 . S
C1236 C1250 1.377 . S
C1237 C1236 1.524 . S
C1237 C1238 1.397 . S
C1237 C1242 1.363 . S
C1238 H1215 0.950 . S
C1238 C1237 1.397 . S
C1238 C1239 1.334 . S
C1239 H1216 0.950 . S
C1239 C1238 1.334 . S
C1239 C1240 1.287 . S
C1240 C1239 1.287 . S
C1240 C1241 1.524 . S
C1240 H1259 0.913 . S
C1241 H1217 0.950 . S
C1241 C1240 1.524 . S
C1241 C1242 1.415 . S
C1242 H1218 0.950 . S
C1242 C1237 1.363 . S
C1242 C1241 1.415 . S
C1243 H1219 0.951 . S
C1243 C1244 1.366 . S
C1243 C1245 1.388 . S
C1244 C1243 1.366 . S
C1244 C1248 1.385 . S
C1245 H1220 0.951 . S
C1245 C1243 1.388 . S
C1245 C1246 1.366 . S
C1246 C1245 1.366 . S
C1246 C1247 1.414 . S
C1246 C1249 1.499 . S
C1247 H1221 0.950 . S
C1247 C1246 1.414 . S
C1247 C1248 1.374 . S
C1248 H1222 0.950 . S
C1248 C1244 1.385 . S
C1248 C1247 1.374 . S
C1249 C1246 1.499 . S
C1249 C1250 1.373 . S
C1249 C1251 1.389 . S
C1250 H1223 0.950 . S
C1250 C1236 1.377 . S
C1250 C1249 1.373 . S
C1251 C1235 1.377 . S
C1251 C1249 1.389 . S
C1251 C1252 1.524 . S
C1252 C1251 1.524 . S
C1252 C1253 1.397 . S
C1252 C1257 1.363 . S
C1253 H1224 0.950 . S
C1253 C1252 1.397 . S
C1253 C1254 1.334 . S
C1254 H1225 0.950 . S
C1254 C1253 1.334 . S
C1254 C1255 1.287 . S
C1255 C1254 1.287 . S
C1255 C1256 1.524 . S
C1255 H1258 0.999 . S
C1256 H1226 0.950 . S
C1256 C1255 1.524 . S
C1256 C1257 1.415 . S
C1257 H1227 0.950 . S
C1257 C1252 1.363 . S
C1257 C1256 1.415 . S
H1258 C1255 0.999 . S
H1259 C1240 0.913 . S
H1260 C1278 0.951 . S
H1261 C1280 0.951 . S
H1262 C1282 0.950 . S
H1263 C1283 0.950 . S
H1264 C1285 0.950 . S
H1265 C1288 0.950 . S
H1266 C1289 0.950 . S
H1267 C1291 0.950 . S
H1268 C1292 0.950 . S
H1269 C1293 0.951 . S
H1270 C1295 0.951 . S
H1271 C1297 0.950 . S
H1272 C1298 0.950 . S
H1273 C1300 0.950 . S
H1274 C1303 0.950 . S
H1275 C1304 0.950 . S
H1276 C1306 0.950 . S
H1277 C1307 0.950 . S
C1278 H1260 0.951 . S
C1278 C1279 1.366 . S
C1278 C1280 1.388 . S
C1279 C1278 1.366 . S
C1279 C1283 1.385 . S
C1280 H1261 0.951 . S
C1280 C1278 1.388 . S
C1280 C1281 1.366 . S
C1281 C1280 1.366 . S
C1281 C1282 1.414 . S
C1281 C1284 1.499 . S
C1282 H1262 0.950 . S
C1282 C1281 1.414 . S
C1282 C1283 1.374 . S
C1283 H1263 0.950 . S
C1283 C1279 1.385 . S
C1283 C1282 1.374 . S
C1284 C1281 1.499 . S
C1284 C1285 1.373 . S
C1284 C1286 1.389 . S
C1285 H1264 0.950 . S
C1285 C1284 1.373 . S
C1285 C1301 1.377 . S
C1286 C1284 1.389 . S
C1286 C1287 1.524 . S
C1286 C1300 1.377 . S
C1287 C1286 1.524 . S
C1287 C1288 1.397 . S
C1287 C1292 1.363 . S
C1288 H1265 0.950 . S
C1288 C1287 1.397 . S
C1288 C1289 1.334 . S
C1289 H1266 0.950 . S
C1289 C1288 1.334 . S
C1289 C1290 1.287 . S
C1290 C1289 1.287 . S
C1290 C1291 1.524 . S
C1290 H1309 0.913 . S
C1291 H1267 0.950 . S
C1291 C1290 1.524 . S
C1291 C1292 1.415 . S
C1292 H1268 0.950 . S
C1292 C1287 1.363 . S
C1292 C1291 1.415 . S
C1293 H1269 0.951 . S
C1293 C1294 1.366 . S
C1293 C1295 1.388 . S
C1294 C1293 1.366 . S
C1294 C1298 1.385 . S
C1295 H1270 0.951 . S
C1295 C1293 1.388 . S
C1295 C1296 1.366 . S
C1296 C1295 1.366 . S
C1296 C1297 1.414 . S
C1296 C1299 1.499 . S
C1297 H1271 0.950 . S
C1297 C1296 1.414 . S
C1297 C1298 1.374 . S
C1298 H1272 0.950 . S
C1298 C1294 1.385 . S
C1298 C1297 1.374 . S
C1299 C1296 1.499 . S
C1299 C1300 1.373 . S
C1299 C1301 1.389 . S
C1300 H1273 0.950 . S
C1300 C1286 1.377 . S
C1300 C1299 1.373 . S
C1301 C1285 1.377 . S
C1301 C1299 1.389 . S
C1301 C1302 1.524 . S
C1302 C1301 1.524 . S
C1302 C1303 1.397 . S
C1302 C1307 1.363 . S
C1303 H1274 0.950 . S
C1303 C1302 1.397 . S
C1303 C1304 1.334 . S
C1304 H1275 0.950 . S
C1304 C1303 1.334 . S
C1304 C1305 1.287 . S
C1305 C1304 1.287 . S
C1305 C1306 1.524 . S
C1305 H1308 0.999 . S
C1306 H1276 0.950 . S
C1306 C1305 1.524 . S
C1306 C1307 1.415 . S
C1307 H1277 0.950 . S
C1307 C1302 1.363 . S
C1307 C1306 1.415 . S
H1308 C1305 0.999 . S
H1309 C1290 0.913 . S
H1310 C1328 0.951 . S
H1311 C1330 0.951 . S
H1312 C1332 0.950 . S
H1313 C1333 0.950 . S
H1314 C1335 0.950 . S
H1315 C1338 0.950 . S
H1316 C1339 0.950 . S
H1317 C1341 0.950 . S
H1318 C1342 0.950 . S
H1319 C1343 0.951 . S
H1320 C1345 0.951 . S
H1321 C1347 0.932 1_554 S
H1322 C1348 0.950 . S
H1323 C1350 0.950 . S
H1324 C1353 0.950 . S
H1325 C1354 0.950 . S
H1326 C1356 0.950 . S
H1327 C1357 0.950 . S
C1328 H1310 0.951 . S
C1328 C1329 1.366 . S
C1328 C1330 1.388 . S
C1329 C1328 1.366 . S
C1329 C1333 1.385 . S
C1330 H1311 0.951 . S
C1330 C1328 1.388 . S
C1330 C1331 1.366 . S
C1331 C1330 1.366 . S
C1331 C1332 1.414 . S
C1331 C1334 1.499 . S
C1332 H1312 0.950 . S
C1332 C1331 1.414 . S
C1332 C1333 1.374 . S
C1333 H1313 0.950 . S
C1333 C1329 1.385 . S
C1333 C1332 1.374 . S
C1334 C1331 1.499 . S
C1334 C1335 1.373 . S
C1334 C1336 1.389 . S
C1335 H1314 0.950 . S
C1335 C1334 1.373 . S
C1335 C1351 1.377 . S
C1336 C1334 1.389 . S
C1336 C1337 1.524 . S
C1336 C1350 1.377 . S
C1337 C1336 1.524 . S
C1337 C1338 1.397 . S
C1337 C1342 1.363 . S
C1338 H1315 0.950 . S
C1338 C1337 1.397 . S
C1338 C1339 1.334 . S
C1339 H1316 0.950 . S
C1339 C1338 1.334 . S
C1339 C1340 1.287 . S
C1340 C1339 1.287 . S
C1340 C1341 1.524 . S
C1340 H1359 0.913 . S
C1341 H1317 0.950 . S
C1341 C1340 1.524 . S
C1341 C1342 1.415 . S
C1342 H1318 0.950 . S
C1342 C1337 1.363 . S
C1342 C1341 1.415 . S
C1343 H1319 0.951 . S
C1343 C1344 1.366 . S
C1343 C1345 1.388 . S
C1344 C1343 1.366 . S
C1344 C1348 1.385 . S
C1345 H1320 0.951 . S
C1345 C1343 1.388 . S
C1345 C1346 1.366 . S
C1346 C1345 1.366 . S
C1346 C1347 1.414 . S
C1346 C1349 1.499 1_556 S
C1347 H1321 0.932 1_556 S
C1347 C1346 1.414 . S
C1347 C1348 1.374 . S
C1348 H1322 0.950 . S
C1348 C1344 1.385 . S
C1348 C1347 1.374 . S
C1349 C1346 1.499 1_554 S
C1349 C1350 1.373 . S
C1349 C1351 1.389 . S
C1350 H1323 0.950 . S
C1350 C1336 1.377 . S
C1350 C1349 1.373 . S
C1351 C1335 1.377 . S
C1351 C1349 1.389 . S
C1351 C1352 1.524 . S
C1352 C1351 1.524 . S
C1352 C1353 1.397 . S
C1352 C1357 1.363 . S
C1353 H1324 0.950 . S
C1353 C1352 1.397 . S
C1353 C1354 1.334 . S
C1354 H1325 0.950 . S
C1354 C1353 1.334 . S
C1354 C1355 1.287 . S
C1355 C1354 1.287 . S
C1355 C1356 1.524 . S
C1355 H1358 0.999 . S
C1356 H1326 0.950 . S
C1356 C1355 1.524 . S
C1356 C1357 1.415 . S
C1357 H1327 0.950 . S
C1357 C1352 1.363 . S
C1357 C1356 1.415 . S
H1358 C1355 0.999 . S
H1359 C1340 0.913 . S
H1360 C1378 0.951 . S
H1361 C1380 0.951 . S
H1362 C1382 0.950 . S
H1363 C1383 0.950 . S
H1364 C1385 0.950 . S
H1365 C1388 0.950 . S
H1366 C1389 0.950 . S
H1367 C1391 0.950 . S
H1368 C1392 0.950 . S
H1369 C1393 0.951 . S
H1370 C1395 0.951 . S
H1371 C1397 0.950 . S
H1372 C1398 0.950 . S
H1373 C1400 0.950 . S
H1374 C1403 0.950 . S
H1375 C1404 0.950 . S
H1376 C1406 0.950 . S
H1377 C1407 0.950 . S
C1378 H1360 0.951 . S
C1378 C1379 1.366 . S
C1378 C1380 1.388 . S
C1379 C1378 1.366 . S
C1379 C1383 1.385 . S
C1380 H1361 0.951 . S
C1380 C1378 1.388 . S
C1380 C1381 1.366 . S
C1381 C1380 1.366 . S
C1381 C1382 1.414 . S
C1381 C1384 1.499 . S
C1382 H1362 0.950 . S
C1382 C1381 1.414 . S
C1382 C1383 1.374 . S
C1383 H1363 0.950 . S
C1383 C1379 1.385 . S
C1383 C1382 1.374 . S
C1384 C1381 1.499 . S
C1384 C1385 1.373 . S
C1384 C1386 1.389 . S
C1385 H1364 0.950 . S
C1385 C1384 1.373 . S
C1385 C1401 1.377 . S
C1386 C1384 1.389 . S
C1386 C1387 1.524 . S
C1386 C1400 1.377 . S
C1387 C1386 1.524 . S
C1387 C1388 1.397 . S
C1387 C1392 1.363 . S
C1388 H1365 0.950 . S
C1388 C1387 1.397 . S
C1388 C1389 1.334 . S
C1389 H1366 0.950 . S
C1389 C1388 1.334 . S
C1389 C1390 1.287 . S
C1390 C1389 1.287 . S
C1390 C1391 1.524 . S
C1390 H1409 0.913 . S
C1391 H1367 0.950 . S
C1391 C1390 1.524 . S
C1391 C1392 1.415 . S
C1392 H1368 0.950 . S
C1392 C1387 1.363 . S
C1392 C1391 1.415 . S
C1393 H1369 0.951 . S
C1393 C1394 1.366 . S
C1393 C1395 1.388 . S
C1394 C1393 1.366 . S
C1394 C1398 1.385 . S
C1395 H1370 0.951 . S
C1395 C1393 1.388 . S
C1395 C1396 1.366 . S
C1396 C1395 1.366 . S
C1396 C1397 1.414 . S
C1396 C1399 1.499 . S
C1397 H1371 0.950 . S
C1397 C1396 1.414 . S
C1397 C1398 1.374 . S
C1398 H1372 0.950 . S
C1398 C1394 1.385 . S
C1398 C1397 1.374 . S
C1399 C1396 1.499 . S
C1399 C1400 1.373 . S
C1399 C1401 1.389 . S
C1400 H1373 0.950 . S
C1400 C1386 1.377 . S
C1400 C1399 1.373 . S
C1401 C1385 1.377 . S
C1401 C1399 1.389 . S
C1401 C1402 1.524 . S
C1402 C1401 1.524 . S
C1402 C1403 1.397 . S
C1402 C1407 1.363 . S
C1403 H1374 0.950 . S
C1403 C1402 1.397 . S
C1403 C1404 1.334 . S
C1404 H1375 0.950 . S
C1404 C1403 1.334 . S
C1404 C1405 1.287 . S
C1405 C1404 1.287 . S
C1405 C1406 1.524 . S
C1405 H1408 0.999 . S
C1406 H1376 0.950 . S
C1406 C1405 1.524 . S
C1406 C1407 1.415 . S
C1407 H1377 0.950 . S
C1407 C1402 1.363 . S
C1407 C1406 1.415 . S
H1408 C1405 0.999 . S
H1409 C1390 0.913 . S
C244 C199 1.623 . S
C229 C19 1.530 . S
C279 C40 1.540 . S
C294 C129 1.627 . S
C329 C51 1.539 . S
C344 C148 1.648 . S
C379 C72 1.517 . S
C394 C157 1.629 . S
C444 C171 1.625 . S
C429 C103 1.538 . S
C479 C114 1.531 . S
C494 C190 1.640 . S
C529 C30 1.518 . S
C544 C143 1.624 . S
C579 C61 1.527 . S
C594 C162 1.621 . S
C629 C82 1.532 . S
C644 C176 1.618 . S
C694 C185 1.615 . S
C679 C93 1.511 1_554 S
C744 C204 1.619 . S
C729 C124 1.524 . S
C794 C134 1.624 . S
C779 C9 1.522 . S
C829 C17 1.446 . S
C844 C149 1.520 . S
C879 C38 1.444 . S
C894 C161 1.497 . S
C944 C175 1.497 . S
C929 C54 1.435 . S
C979 C75 1.438 . S
C994 C191 1.520 . S
C1044 C203 1.495 . S
C1029 C101 1.442 . S
C1094 C133 1.498 . S
C1079 C117 1.436 . S
C1144 C205 1.524 . S
C1129 C33 1.443 . S
C1179 C59 1.454 . S
C1194 C135 1.537 . S
C1244 C147 1.513 . S
C1229 C80 1.457 . S
C1279 C96 1.445 . S
C1294 C163 1.525 . S
C1329 C122 1.453 . S
C1344 C177 1.535 . S
C1379 C12 1.450 . S
C1394 C189 1.512 . S
