# Generated by pormake.
# Topology dag, (6,3)-cn, num edge types: 1
# Building blocks:
#     Node 0, Type 0, BuildingBlock: OJICUG_clean_sbu_0, # of connection points: 6
#     Node 1, Type 0, BuildingBlock: OJICUG_clean_sbu_0, # of connection points: 6
#     Node 2, Type 0, BuildingBlock: OJICUG_clean_sbu_0, # of connection points: 6
#     Node 3, Type 0, BuildingBlock: OJICUG_clean_sbu_0, # of connection points: 6
#     Node 4, Type 1, BuildingBlock: BETDAH_clean_linker_0, # of connection points: 3
#     Node 5, Type 1, BuildingBlock: BETDAH_clean_linker_0, # of connection points: 3
#     Node 6, Type 1, BuildingBlock: BETDAH_clean_linker_0, # of connection points: 3
#     Node 7, Type 1, BuildingBlock: BETDAH_clean_linker_0, # of connection points: 3
#     Node 8, Type 1, BuildingBlock: BETDAH_clean_linker_0, # of connection points: 3
#     Node 9, Type 1, BuildingBlock: BETDAH_clean_linker_0, # of connection points: 3
#     Node 10, Type 1, BuildingBlock: BETDAH_clean_linker_0, # of connection points: 3
#     Node 11, Type 1, BuildingBlock: BETDAH_clean_linker_0, # of connection points: 3
#     Edge 12, Type (0, 1), BuildingBlock: CIFDUS_clean_linker_0, # of connection points: 2
#     Edge 13, Type (0, 1), BuildingBlock: CIFDUS_clean_linker_0, # of connection points: 2
#     Edge 14, Type (0, 1), BuildingBlock: CIFDUS_clean_linker_0, # of connection points: 2
#     Edge 15, Type (0, 1), BuildingBlock: CIFDUS_clean_linker_0, # of connection points: 2
#     Edge 16, Type (0, 1), BuildingBlock: CIFDUS_clean_linker_0, # of connection points: 2
#     Edge 17, Type (0, 1), BuildingBlock: CIFDUS_clean_linker_0, # of connection points: 2
#     Edge 18, Type (0, 1), BuildingBlock: CIFDUS_clean_linker_0, # of connection points: 2
#     Edge 19, Type (0, 1), BuildingBlock: CIFDUS_clean_linker_0, # of connection points: 2
#     Edge 20, Type (0, 1), BuildingBlock: CIFDUS_clean_linker_0, # of connection points: 2
#     Edge 21, Type (0, 1), BuildingBlock: CIFDUS_clean_linker_0, # of connection points: 2
#     Edge 22, Type (0, 1), BuildingBlock: CIFDUS_clean_linker_0, # of connection points: 2
#     Edge 23, Type (0, 1), BuildingBlock: CIFDUS_clean_linker_0, # of connection points: 2
#     Edge 24, Type (0, 1), BuildingBlock: CIFDUS_clean_linker_0, # of connection points: 2
#     Edge 25, Type (0, 1), BuildingBlock: CIFDUS_clean_linker_0, # of connection points: 2
#     Edge 26, Type (0, 1), BuildingBlock: CIFDUS_clean_linker_0, # of connection points: 2
#     Edge 27, Type (0, 1), BuildingBlock: CIFDUS_clean_linker_0, # of connection points: 2
#     Edge 28, Type (0, 1), BuildingBlock: CIFDUS_clean_linker_0, # of connection points: 2
#     Edge 29, Type (0, 1), BuildingBlock: CIFDUS_clean_linker_0, # of connection points: 2
#     Edge 30, Type (0, 1), BuildingBlock: CIFDUS_clean_linker_0, # of connection points: 2
#     Edge 31, Type (0, 1), BuildingBlock: CIFDUS_clean_linker_0, # of connection points: 2
#     Edge 32, Type (0, 1), BuildingBlock: CIFDUS_clean_linker_0, # of connection points: 2
#     Edge 33, Type (0, 1), BuildingBlock: CIFDUS_clean_linker_0, # of connection points: 2
#     Edge 34, Type (0, 1), BuildingBlock: CIFDUS_clean_linker_0, # of connection points: 2
#     Edge 35, Type (0, 1), BuildingBlock: CIFDUS_clean_linker_0, # of connection points: 2
# Relax obj value: 0.095
# Max RMSD: 0.113
# Mean RMSD: 0.096
data_MOF--net-dag--node1-OJICUG_clean_sbu_0--node2-BETDAH_clean_linker_0--edge1-CIFDUS_clean_linker_0
_symmetry_space_group_name_H-M    P1
_symmetry_Int_Tables_number       1
_symmetry_cell_setting            triclinic
loop_
_symmetry_equiv_pos_as_xyz
'x, y, z'
_cell_length_a     32.084464
_cell_length_b     34.40477
_cell_length_c     34.170801
_cell_angle_alpha  94.256446
_cell_angle_beta   89.953234
_cell_angle_gamma 89.880359
loop_
_atom_site_label
_atom_site_type_symbol
_atom_site_fract_x
_atom_site_fract_y
_atom_site_fract_z
_atom_type_partial_charge
Sc0 Sc 0.0984 0.87921 0.0629 0.0
Sc1 Sc 0.12018 0.77935 0.04491 0.0
Sc2 Sc 0.19684 0.84447 0.08767 0.0
O3 O 0.13854 0.83422 0.06513 0.0
C4 C 0.18427 0.91717 0.03705 0.0
C5 C 0.08024 0.83141 0.98111 0.0
C6 C 0.21476 0.78114 0.01549 0.0
C7 C 0.03774 0.81197 0.08818 0.0
C8 C 0.14184 0.90157 0.145 0.0
C9 C 0.17061 0.76522 0.1239 0.0
O10 O 0.14474 0.91575 0.039 0.0
O11 O 0.09271 0.79846 0.9913 0.0
O12 O 0.22583 0.80753 0.04146 0.0
O13 O 0.04795 0.84743 0.0864 0.0
O14 O 0.1758 0.88362 0.13674 0.0
O15 O 0.145 0.75464 0.09664 0.0
O16 O 0.11117 0.90137 0.12166 0.0
O17 O 0.06006 0.78371 0.07404 0.0
O18 O 0.191 0.79694 0.1246 0.0
O19 O 0.08096 0.86221 0.00389 0.0
O20 O 0.20804 0.89328 0.05294 0.0
O21 O 0.17759 0.76842 0.01273 0.0
Sc22 Sc 0.71347 0.64571 0.44609 0.0
Sc23 Sc 0.63541 0.71608 0.47407 0.0
Sc24 Sc 0.61156 0.61663 0.46636 0.0
O25 O 0.65365 0.65955 0.46222 0.0
C26 C 0.66474 0.5818 0.39245 0.0
C27 C 0.69229 0.71913 0.3974 0.0
C28 C 0.55663 0.67885 0.42698 0.0
C29 C 0.72736 0.71678 0.51061 0.0
C30 C 0.69177 0.58217 0.50631 0.0
C31 C 0.58481 0.6762 0.53906 0.0
O32 O 0.69662 0.60307 0.39902 0.0
O33 O 0.66262 0.73191 0.41966 0.0
O34 O 0.56805 0.64381 0.42971 0.0
O35 O 0.73883 0.6857 0.49114 0.0
O36 O 0.65246 0.58614 0.5034 0.0
O37 O 0.6062 0.70503 0.52933 0.0
O38 O 0.7179 0.60041 0.48646 0.0
O39 O 0.69145 0.73177 0.50682 0.0
O40 O 0.58279 0.64415 0.51815 0.0
O41 O 0.71402 0.68931 0.40403 0.0
O42 O 0.63301 0.58337 0.41464 0.0
O43 O 0.57594 0.70787 0.44369 0.0
Sc44 Sc 0.89203 0.23458 0.99378 0.0
Sc45 Sc 0.81089 0.1675 0.96649 0.0
Sc46 Sc 0.91357 0.13505 0.97817 0.0
O47 O 0.87194 0.1791 0.9796 0.0
C48 C 0.966 0.19885 0.93904 0.0
C49 C 0.83173 0.24233 0.92005 0.0
C50 C 0.85462 0.10402 0.90747 0.0
C51 C 0.80237 0.23657 0.03455 0.0
C52 C 0.9462 0.18932 0.0521 0.0
C53 C 0.83577 0.10155 0.02296 0.0
O54 O 0.94881 0.22716 0.95913 0.0
O55 O 0.81044 0.21185 0.92512 0.0
O56 O 0.88838 0.10489 0.9266 0.0
O57 O 0.83916 0.24932 0.03089 0.0
O58 O 0.94662 0.1587 0.02903 0.0
O59 O 0.80827 0.12172 0.00663 0.0
O60 O 0.92468 0.21928 0.0459 0.0
O61 O 0.78818 0.20773 0.01328 0.0
O62 O 0.87468 0.1037 0.01606 0.0
O63 O 0.86127 0.25436 0.94275 0.0
O64 O 0.9544 0.16372 0.94033 0.0
O65 O 0.82331 0.12494 0.91776 0.0
Sc66 Sc 0.397 0.36479 0.56569 0.0
Sc67 Sc 0.29816 0.33932 0.59879 0.0
Sc68 Sc 0.36905 0.26598 0.56049 0.0
O69 O 0.35462 0.32327 0.57489 0.0
C70 C 0.41008 0.30665 0.48927 0.0
C71 C 0.31223 0.40257 0.53695 0.0
C72 C 0.27354 0.26915 0.53562 0.0
C73 C 0.35774 0.40001 0.64639 0.0
C74 C 0.45399 0.29847 0.59822 0.0
C75 C 0.32287 0.26468 0.64367 0.0
O76 O 0.41212 0.33977 0.50814 0.0
O77 O 0.28762 0.38293 0.55708 0.0
O78 O 0.31004 0.25493 0.53155 0.0
O79 O 0.38744 0.39508 0.62203 0.0
O80 O 0.4301 0.27018 0.58762 0.0
O81 O 0.30473 0.29753 0.64242 0.0
O82 O 0.44585 0.33367 0.59234 0.0
O83 O 0.32275 0.38316 0.64149 0.0
O84 O 0.34494 0.24927 0.61565 0.0
O85 O 0.35167 0.39941 0.53817 0.0
O86 O 0.39565 0.27656 0.50397 0.0
O87 O 0.26517 0.29823 0.55953 0.0
H88 H 0.08212 0.09734 0.2112 0.0
H89 H 0.12583 0.09979 0.33017 0.0
H90 H 0.04048 0.18787 0.29599 0.0
C91 C 0.08306 0.11162 0.24058 0.0
C92 C 0.05919 0.14534 0.24959 0.0
C93 C 0.10691 0.09503 0.26939 0.0
C94 C 0.10784 0.1128 0.30769 0.0
C95 C 0.08365 0.1464 0.31717 0.0
C96 C 0.05901 0.16204 0.28831 0.0
N97 N 0.08186 0.16417 0.35585 0.0
C98 C 0.11629 0.16867 0.3803 0.0
H99 H 0.41628 0.58958 0.69402 0.0
H100 H 0.42563 0.70911 0.73897 0.0
H101 H 0.35191 0.62793 0.80022 0.0
C102 C 0.40867 0.61267 0.71627 0.0
C103 C 0.38302 0.6043 0.74774 0.0
C104 C 0.42358 0.65036 0.71226 0.0
C105 C 0.41417 0.6798 0.74154 0.0
C106 C 0.38842 0.67212 0.77341 0.0
C107 C 0.37222 0.63424 0.77618 0.0
N108 N 0.37938 0.70348 0.80157 0.0
C109 C 0.35099 0.70243 0.83227 0.0
H110 H 0.83824 0.90708 0.12192 0.0
H111 H 0.77543 0.81347 0.17352 0.0
H112 H 0.70435 0.90675 0.12837 0.0
C113 C 0.80942 0.89381 0.1308 0.0
C114 C 0.77121 0.91176 0.12362 0.0
C115 C 0.81121 0.85855 0.14864 0.0
C116 C 0.77417 0.84074 0.15962 0.0
C117 C 0.73548 0.85834 0.15223 0.0
C118 C 0.7342 0.89327 0.13357 0.0
N119 N 0.69737 0.84192 0.16373 0.0
C120 C 0.6933 0.8241 0.19861 0.0
H121 H 0.64454 0.40378 0.64506 0.0
H122 H 0.71157 0.30663 0.68564 0.0
H123 H 0.77863 0.40503 0.64641 0.0
C124 C 0.67401 0.39037 0.65197 0.0
C125 C 0.71146 0.40941 0.64459 0.0
C126 C 0.67383 0.35346 0.66661 0.0
C127 C 0.71167 0.33526 0.67438 0.0
C128 C 0.74961 0.35416 0.66733 0.0
C129 C 0.74933 0.3907 0.65168 0.0
N130 N 0.78836 0.3374 0.67663 0.0
C131 C 0.79269 0.31589 0.70911 0.0
H132 H 0.54227 0.4116 0.32005 0.0
H133 H 0.63122 0.37226 0.2317 0.0
H134 H 0.54274 0.29164 0.27501 0.0
C135 C 0.55419 0.38848 0.29975 0.0
C136 C 0.5376 0.35087 0.30019 0.0
C137 C 0.58757 0.39656 0.2751 0.0
C138 C 0.60497 0.36632 0.25029 0.0
C139 C 0.58839 0.32833 0.25022 0.0
C140 C 0.55509 0.32095 0.27526 0.0
N141 N 0.60475 0.29625 0.22653 0.0
C142 C 0.63144 0.29835 0.19471 0.0
H143 H 0.1616 0.12232 0.93052 0.0
H144 H 0.24117 0.2109 0.89011 0.0
H145 H 0.29306 0.10017 0.91689 0.0
C146 C 0.19248 0.13171 0.92239 0.0
C147 C 0.22649 0.1064 0.92485 0.0
C148 C 0.19762 0.16928 0.91008 0.0
C149 C 0.2373 0.18191 0.89997 0.0
C150 C 0.27187 0.15679 0.90227 0.0
C151 C 0.26647 0.11951 0.91564 0.0
N152 N 0.31182 0.16771 0.88932 0.0
C153 C 0.31604 0.18996 0.85733 0.0
H154 H 0.36099 0.57147 0.39084 0.0
H155 H 0.29838 0.66613 0.3405 0.0
H156 H 0.22711 0.57338 0.38632 0.0
C157 C 0.33222 0.58517 0.38233 0.0
C158 C 0.29396 0.56782 0.39027 0.0
C159 C 0.33405 0.62056 0.36466 0.0
C160 C 0.29697 0.63878 0.35424 0.0
C161 C 0.25819 0.62143 0.36175 0.0
C162 C 0.25694 0.58656 0.38058 0.0
N163 N 0.21999 0.63799 0.35027 0.0
C164 C 0.21704 0.66209 0.31957 0.0
H165 H 0.90238 0.89952 0.84788 0.0
H166 H 0.94073 0.81274 0.75827 0.0
H167 H 0.85016 0.8996 0.73185 0.0
C168 C 0.89929 0.88608 0.81827 0.0
C169 C 0.87253 0.90275 0.79169 0.0
C170 C 0.92367 0.85349 0.80653 0.0
C171 C 0.92095 0.8372 0.7679 0.0
C172 C 0.89396 0.85314 0.74106 0.0
C173 C 0.86959 0.88607 0.75294 0.0
N174 N 0.89573 0.83803 0.70142 0.0
C175 C 0.86114 0.83093 0.67759 0.0
H176 H 0.19514 0.9581 0.17293 0.0
H177 H 0.07794 0.9035 0.1965 0.0
H178 H 0.0604 0.95683 0.24491 0.0
H179 H 0.07225 0.02444 0.27022 0.0
H180 H 0.18579 0.08245 0.24191 0.0
H181 H 0.21149 0.02256 0.20628 0.0
C182 C 0.16659 0.9573 0.18988 0.0
C183 C 0.13788 0.92702 0.18143 0.0
C184 C 0.15584 0.98909 0.21634 0.0
C185 C 0.10049 0.92654 0.20277 0.0
C186 C 0.09033 0.95715 0.23019 0.0
C187 C 0.10327 0.02331 0.25749 0.0
C188 C 0.12743 0.0573 0.25885 0.0
C189 C 0.11684 0.98941 0.23579 0.0
C190 C 0.16712 0.05623 0.24157 0.0
C191 C 0.18153 0.02215 0.22091 0.0
H192 H 0.50782 0.6481 0.54625 0.0
H193 H 0.60272 0.71341 0.61127 0.0
H194 H 0.55983 0.71383 0.67106 0.0
H195 H 0.49687 0.69084 0.70549 0.0
H196 H 0.40212 0.6277 0.63755 0.0
H197 H 0.44328 0.63144 0.5782 0.0
C198 C 0.51909 0.66254 0.57351 0.0
C199 C 0.55854 0.68009 0.57467 0.0
C200 C 0.49427 0.66295 0.60723 0.0
C201 C 0.57244 0.69953 0.60984 0.0
C202 C 0.54797 0.69966 0.64396 0.0
C203 C 0.48507 0.67852 0.67755 0.0
C204 C 0.4469 0.65825 0.6761 0.0
C205 C 0.50903 0.68086 0.64315 0.0
C206 C 0.43185 0.6426 0.63964 0.0
C207 C 0.45529 0.64478 0.60563 0.0
H208 H 0.769 0.05308 0.01645 0.0
H209 H 0.87377 0.08612 0.09055 0.0
H210 H 0.85884 0.03292 0.13183 0.0
H211 H 0.82108 0.97338 0.14253 0.0
H212 H 0.72067 0.93553 0.06505 0.0
H213 H 0.72786 0.99479 0.03006 0.0
C214 C 0.78792 0.04896 0.04212 0.0
C215 C 0.82248 0.07316 0.05052 0.0
C216 C 0.78007 0.01738 0.06488 0.0
C217 C 0.84719 0.06752 0.0835 0.0
C218 C 0.8387 0.03716 0.10704 0.0
C219 C 0.8007 0.9781 0.11799 0.0
C220 C 0.77096 0.94981 0.10588 0.0
C221 C 0.80609 0.01125 0.09725 0.0
C222 C 0.74389 0.95687 0.07487 0.0
C223 C 0.74821 0.99059 0.05469 0.0
H224 H 0.48362 0.33404 0.66472 0.0
H225 H 0.51473 0.24769 0.57154 0.0
H226 H 0.58829 0.25078 0.59107 0.0
H227 H 0.6444 0.28907 0.62545 0.0
H228 H 0.6121 0.37735 0.7165 0.0
H229 H 0.53827 0.36181 0.70809 0.0
C230 C 0.50642 0.31497 0.64964 0.0
C231 C 0.49431 0.29105 0.6166 0.0
C232 C 0.54842 0.31756 0.66055 0.0
C233 C 0.52365 0.26624 0.59716 0.0
C234 C 0.56568 0.26831 0.60811 0.0
C235 C 0.62119 0.30355 0.64453 0.0
C236 C 0.63324 0.33439 0.67137 0.0
C237 C 0.57866 0.29537 0.63847 0.0
C238 C 0.60319 0.35348 0.69573 0.0
C239 C 0.56105 0.34489 0.69062 0.0
H240 H 0.60536 0.56837 0.33758 0.0
H241 H 0.72376 0.52604 0.37593 0.0
H242 H 0.71418 0.46519 0.33483 0.0
H243 H 0.6651 0.41969 0.29899 0.0
H244 H 0.54664 0.46296 0.26159 0.0
H245 H 0.56364 0.52814 0.29008 0.0
C246 C 0.62963 0.54628 0.33581 0.0
C247 C 0.66497 0.55127 0.35982 0.0
C248 C 0.62369 0.51145 0.31245 0.0
C249 C 0.69637 0.52272 0.35746 0.0
C250 C 0.6907 0.48783 0.33424 0.0
C251 C 0.64395 0.44385 0.29561 0.0
C252 C 0.60457 0.43665 0.27858 0.0
C253 C 0.65355 0.48116 0.31305 0.0
C254 C 0.5771 0.46799 0.27465 0.0
C255 C 0.58662 0.50513 0.29131 0.0
H256 H 0.03114 0.24434 0.96335 0.0
H257 H 0.98849 0.16533 0.86801 0.0
H258 H 0.05973 0.15703 0.84374 0.0
H259 H 0.13404 0.15924 0.8597 0.0
H260 H 0.17746 0.2327 0.95863 0.0
H261 H 0.10646 0.25707 0.97112 0.0
C262 C 0.03737 0.2267 0.93632 0.0
C263 C 0.00494 0.2051 0.91765 0.0
C264 C 0.07874 0.22054 0.92371 0.0
C265 C 0.01321 0.18195 0.88292 0.0
C266 C 0.05393 0.17699 0.86923 0.0
C267 C 0.12801 0.18187 0.88287 0.0
C268 C 0.16039 0.19418 0.90836 0.0
C269 C 0.08705 0.19418 0.89082 0.0
C270 C 0.15274 0.22315 0.93859 0.0
C271 C 0.11212 0.23664 0.94598 0.0
H272 H 0.33936 0.41241 0.4644 0.0
H273 H 0.24808 0.45487 0.54979 0.0
H274 H 0.23034 0.50851 0.50906 0.0
H275 H 0.24802 0.54767 0.45311 0.0
H276 H 0.33981 0.50358 0.36863 0.0
H277 H 0.35 0.44596 0.4049 0.0
C278 C 0.31511 0.43311 0.47377 0.0
C279 C 0.29541 0.43026 0.51011 0.0
C280 C 0.30553 0.46369 0.45053 0.0
C281 C 0.2636 0.45668 0.52182 0.0
C282 C 0.25373 0.48742 0.49868 0.0
C283 C 0.26948 0.52497 0.44227 0.0
C284 C 0.29377 0.53017 0.40872 0.0
C285 C 0.27547 0.4919 0.46354 0.0
C286 C 0.32145 0.50055 0.39486 0.0
C287 C 0.32726 0.46761 0.41552 0.0
H288 H 0.02771 0.78112 0.93978 0.0
H289 H 0.09121 0.89114 0.93549 0.0
H290 H 0.05041 0.9061 0.8784 0.0
H291 H 0.99078 0.89198 0.8352 0.0
H292 H 0.92542 0.78321 0.83889 0.0
H293 H 0.9726 0.76347 0.89056 0.0
C294 C 0.03329 0.80779 0.92557 0.0
C295 C 0.06215 0.83513 0.94187 0.0
C296 C 0.00882 0.81674 0.89318 0.0
C297 C 0.06889 0.86982 0.92355 0.0
C298 C 0.04546 0.8785 0.89104 0.0
C299 C 0.98737 0.86376 0.84707 0.0
C300 C 0.95472 0.83918 0.83391 0.0
C301 C 0.01435 0.85288 0.87657 0.0
C302 C 0.95047 0.80252 0.84892 0.0
C303 C 0.97734 0.79135 0.87843 0.0
H304 H 0.80157 0.04305 0.89708 0.0
H305 H 0.90442 0.09953 0.84361 0.0
H306 H 0.91328 0.04335 0.79612 0.0
H307 H 0.90016 0.97402 0.77814 0.0
H308 H 0.80305 0.91459 0.83664 0.0
H309 H 0.78282 0.97572 0.87332 0.0
C310 C 0.82483 0.04344 0.87404 0.0
C311 C 0.85206 0.07532 0.87337 0.0
C312 C 0.83104 0.01016 0.8481 0.0
C313 C 0.88293 0.07531 0.84425 0.0
C314 C 0.88818 0.04311 0.81734 0.0
C315 C 0.87354 0.97498 0.7978 0.0
C316 C 0.85259 0.9403 0.80437 0.0
C317 C 0.86361 0.00975 0.82007 0.0
C318 C 0.81899 0.94127 0.83075 0.0
C319 C 0.8078 0.9761 0.85198 0.0
H320 H 0.40344 0.35867 0.43447 0.0
H321 H 0.45821 0.24771 0.45571 0.0
H322 H 0.50024 0.24949 0.39591 0.0
H323 H 0.52812 0.28731 0.34319 0.0
H324 H 0.47049 0.39707 0.32089 0.0
H325 H 0.42287 0.39103 0.37562 0.0
C326 C 0.424 0.33453 0.4255 0.0
C327 C 0.42823 0.30334 0.44951 0.0
C328 C 0.44799 0.33585 0.39133 0.0
C329 C 0.45447 0.27198 0.43753 0.0
C330 C 0.47872 0.27317 0.40356 0.0
C331 C 0.50446 0.30942 0.34955 0.0
C332 C 0.50378 0.34315 0.32852 0.0
C333 C 0.47674 0.30562 0.38096 0.0
C334 C 0.47272 0.37143 0.33734 0.0
C335 C 0.44527 0.36793 0.36853 0.0
H336 H 0.1527 0.94852 0.97364 0.0
H337 H 0.25732 0.9562 0.0529 0.0
H338 H 0.28255 0.01406 0.0224 0.0
H339 H 0.2702 0.06636 0.97762 0.0
H340 H 0.16587 0.0565 0.89786 0.0
H341 H 0.14531 0.99544 0.92398 0.0
C342 C 0.18123 0.9627 0.98401 0.0
C343 C 0.20278 0.94868 0.0158 0.0
C344 C 0.19542 0.99566 0.96641 0.0
C345 C 0.24016 0.96668 0.02849 0.0
C346 C 0.25445 -0.00019 0.01118 0.0
C347 C 0.24352 0.05037 0.96547 0.0
C348 C 0.21904 0.06633 0.9365 0.0
C349 C 0.23174 0.01513 0.98073 0.0
C350 C 0.1846 0.04526 0.92088 0.0
C351 C 0.17285 0.01032 0.93571 0.0
H352 H 0.52548 0.63732 0.36372 0.0
H353 H 0.4962 0.73222 0.4488 0.0
H354 H 0.4225 0.72775 0.43045 0.0
H355 H 0.36546 0.68727 0.4003 0.0
H356 H 0.39576 0.59051 0.31785 0.0
H357 H 0.4699 0.60564 0.32426 0.0
C358 C 0.50309 0.6578 0.37735 0.0
C359 C 0.51599 0.68462 0.40794 0.0
C360 C 0.46083 0.65436 0.36735 0.0
C361 C 0.48695 0.71132 0.42515 0.0
C362 C 0.44473 0.70847 0.41494 0.0
C363 C 0.38832 0.67065 0.38261 0.0
C364 C 0.37551 0.63778 0.35878 0.0
C365 C 0.43107 0.67878 0.38752 0.0
C366 C 0.40518 0.61596 0.33629 0.0
C367 C 0.44752 0.6244 0.34024 0.0
H368 H 0.30132 0.45235 0.67898 0.0
H369 H 0.42881 0.41391 0.6876 0.0
H370 H 0.44533 0.47164 0.73045 0.0
H371 H 0.42742 0.5387 0.75286 0.0
H372 H 0.30229 0.58072 0.73899 0.0
H373 H 0.28039 0.51587 0.71219 0.0
C374 C 0.3323 0.45609 0.69135 0.0
C375 C 0.36398 0.42927 0.67976 0.0
C376 C 0.34202 0.49027 0.71483 0.0
C377 C 0.40409 0.43447 0.69574 0.0
C378 C 0.41357 0.4675 0.72019 0.0
C379 C 0.39497 0.53306 0.74553 0.0
C380 C 0.36649 0.56419 0.74768 0.0
C381 C 0.38337 0.49648 0.72819 0.0
C382 C 0.32461 0.55698 0.73786 0.0
C383 C 0.3123 0.52006 0.72193 0.0
H384 H 0.00268 0.84835 0.15251 0.0
H385 H 0.97963 0.75953 0.05949 0.0
H386 H 0.90526 0.76006 0.07605 0.0
H387 H 0.84584 0.79577 0.10837 0.0
H388 H 0.86992 0.88577 0.19991 0.0
H389 H 0.94485 0.87418 0.19353 0.0
C390 C 0.98147 0.82833 0.13666 0.0
C391 C 0.99624 0.80437 0.10454 0.0
C392 C 0.93891 0.82921 0.14604 0.0
C393 C 0.96881 0.77823 0.08436 0.0
C394 C 0.92627 0.77877 0.09363 0.0
C395 C 0.86755 0.81147 0.12803 0.0
C396 C 0.85274 0.8415 0.15459 0.0
C397 C 0.91072 0.80547 0.12323 0.0
C398 C 0.8809 0.86232 0.17953 0.0
C399 C 0.92369 0.85602 0.17553 0.0
H400 H 0.65931 0.56615 0.57598 0.0
H401 H 0.7587 0.53359 0.49506 0.0
H402 H 0.7771 0.47875 0.53356 0.0
H403 H 0.75879 0.43569 0.58561 0.0
H404 H 0.66061 0.47034 0.66744 0.0
H405 H 0.64803 0.52894 0.63332 0.0
C406 C 0.68536 0.5473 0.56713 0.0
C407 C 0.70724 0.55334 0.53257 0.0
C408 C 0.6957 0.51609 0.58934 0.0
C409 C 0.74139 0.52932 0.52163 0.0
C410 C 0.75175 0.4979 0.54349 0.0
C411 C 0.73538 0.45656 0.59654 0.0
C412 C 0.70997 0.4482 0.62839 0.0
C413 C 0.7283 0.49035 0.57678 0.0
C414 C 0.67981 0.4756 0.64228 0.0
C415 C 0.67264 0.50916 0.62289 0.0
H416 H 0.92507 0.1996 0.12939 0.0
H417 H 0.02889 0.17786 0.05064 0.0
H418 H 0.07447 0.16637 0.10583 0.0
H419 H 0.08304 0.15586 0.17517 0.0
H420 H 0.97862 0.17242 0.25423 0.0
H421 H 0.93523 0.19324 0.20066 0.0
C422 C 0.95791 0.19326 0.12469 0.0
C423 C 0.9739 0.18969 0.08632 0.0
C424 C 0.98363 0.18532 0.15652 0.0
C425 C 0.0162 0.18079 0.08013 0.0
C426 C 0.04215 0.17406 0.11158 0.0
C427 C 0.05079 0.1641 0.18071 0.0
C428 C 0.03395 0.16208 0.21847 0.0
C429 C 0.0259 0.17507 0.1497 0.0
C430 C 0.9924 0.17377 0.22542 0.0
C431 C 0.96749 0.18545 0.19474 0.0
H432 H 0.2186 0.78004 0.18896 0.0
H433 H 0.13471 0.69434 0.13408 0.0
H434 H 0.14197 0.65474 0.19009 0.0
H435 H 0.1714 0.64485 0.25533 0.0
H436 H 0.25468 0.73052 0.31002 0.0
H437 H 0.24841 0.76996 0.25334 0.0
C438 C 0.20196 0.75264 0.18902 0.0
C439 C 0.17612 0.74029 0.15718 0.0
C440 C 0.20608 0.73013 0.22138 0.0
C441 C 0.15482 0.70466 0.15807 0.0
C442 C 0.1589 0.68198 0.19013 0.0
C443 C 0.18806 0.67221 0.2546 0.0
C444 C 0.21329 0.6852 0.28637 0.0
C445 C 0.18425 0.69451 0.22201 0.0
C446 C 0.235 0.72037 0.28562 0.0
C447 C 0.23144 0.74276 0.2533 0.0
H448 H 0.71406 0.77941 0.56395 0.0
H449 H 0.80837 0.69651 0.52201 0.0
H450 H 0.85758 0.72524 0.56968 0.0
H451 H 0.87417 0.77293 0.62402 0.0
H452 H 0.78146 0.85586 0.66747 0.0
H453 H 0.73126 0.82828 0.61851 0.0
C454 C 0.74541 0.76773 0.56511 0.0
C455 C 0.75726 0.7357 0.53927 0.0
C456 C 0.77385 0.78437 0.59292 0.0
C457 C 0.79811 0.72099 0.54142 0.0
C458 C 0.82644 0.73741 0.56872 0.0
C459 C 0.84293 0.78493 0.62257 0.0
C460 C 0.83114 0.81613 0.64889 0.0
C461 C 0.81462 0.76889 0.59467 0.0
C462 C 0.79087 0.83172 0.6472 0.0
C463 C 0.76233 0.81595 0.6193 0.0
H464 H 0.71776 0.23413 0.03938 0.0
H465 H 0.8264 0.28105 0.10032 0.0
H466 H 0.78258 0.30751 0.15447 0.0
H467 H 0.71352 0.31309 0.18691 0.0
H468 H 0.60536 0.26664 0.12544 0.0
H469 H 0.64859 0.24461 0.069 0.0
C470 C 0.73186 0.25031 0.0644 0.0
C471 C 0.77536 0.25519 0.06591 0.0
C472 C 0.70647 0.26562 0.09536 0.0
C473 C 0.793 0.27677 0.09835 0.0
C474 C 0.76798 0.29186 0.12943 0.0
C475 C 0.69956 0.29883 0.16075 0.0
C476 C 0.65657 0.29153 0.15986 0.0
C477 C 0.72473 0.28596 0.12856 0.0
C478 C 0.6385 0.27273 0.1263 0.0
C479 C 0.6632 0.25993 0.09422 0.0
H480 H 0.30135 0.29558 0.71657 0.0
H481 H 0.34077 0.18841 0.6533 0.0
H482 H 0.34294 0.1561 0.7144 0.0
H483 H 0.33487 0.15844 0.78609 0.0
H484 H 0.29628 0.26516 0.8497 0.0
H485 H 0.29277 0.29778 0.78823 0.0
C486 C 0.30998 0.26505 0.71607 0.0
C487 C 0.32077 0.24446 0.68035 0.0
C488 C 0.31179 0.24676 0.75141 0.0
C489 C 0.33236 0.205 0.68035 0.0
C490 C 0.33372 0.18648 0.71529 0.0
C491 C 0.32603 0.18892 0.78627 0.0
C492 C 0.31634 0.20981 0.82182 0.0
C493 C 0.3239 0.20716 0.75098 0.0
C494 C 0.30434 0.24898 0.82231 0.0
C495 C 0.30214 0.26744 0.78728 0.0
H496 H 0.64217 0.77025 0.36259 0.0
H497 H 0.76041 0.71045 0.34934 0.0
H498 H 0.77141 0.73804 0.28642 0.0
H499 H 0.7464 0.77771 0.23392 0.0
H500 H 0.62788 0.83629 0.24667 0.0
H501 H 0.61785 0.81059 0.31103 0.0
C502 C 0.67056 0.76353 0.34618 0.0
C503 C 0.70038 0.73829 0.36075 0.0
C504 C 0.67644 0.77902 0.30976 0.0
C505 C 0.73683 0.72968 0.33883 0.0
C506 C 0.74317 0.7454 0.30278 0.0
C507 C 0.71845 0.78466 0.25096 0.0
C508 C 0.68771 0.80841 0.23605 0.0
C509 C 0.71299 0.76974 0.28776 0.0
C510 C 0.65168 0.81771 0.25794 0.0
C511 C 0.64604 0.80315 0.29463 0.0
H512 H 0.79082 0.21509 0.854 0.0
H513 H 0.85673 0.3157 0.90532 0.0
H514 H 0.85023 0.34736 0.84403 0.0
H515 H 0.82795 0.34561 0.77505 0.0
H516 H 0.76339 0.24497 0.72326 0.0
H517 H 0.76735 0.21386 0.78557 0.0
C518 C 0.80331 0.24415 0.852 0.0
C519 C 0.82418 0.263 0.88427 0.0
C520 C 0.80013 0.26191 0.81647 0.0
C521 C 0.84059 0.30049 0.88093 0.0
C522 C 0.83699 0.3186 0.84588 0.0
C523 C 0.81493 0.31681 0.77763 0.0
C524 C 0.79582 0.29714 0.74513 0.0
C525 C 0.81733 0.29938 0.81336 0.0
C526 C 0.77858 0.26016 0.74823 0.0
C527 C 0.78071 0.24257 0.78375 0.0
H528 H 0.27837 0.21091 0.47651 0.0
H529 H 0.191 0.28848 0.53928 0.0
H530 H 0.13459 0.26253 0.49773 0.0
H531 H 0.11003 0.21976 0.44197 0.0
H532 H 0.19622 0.14297 0.37789 0.0
H533 H 0.25316 0.16638 0.42163 0.0
C534 C 0.24698 0.22202 0.48128 0.0
C535 C 0.23919 0.2518 0.51102 0.0
C536 C 0.21446 0.20709 0.45703 0.0
C537 C 0.19817 0.26575 0.51662 0.0
C538 C 0.16575 0.25091 0.49286 0.0
C539 C 0.1413 0.20799 0.43798 0.0
C540 C 0.14936 0.17977 0.40727 0.0
C541 C 0.17357 0.22189 0.46283 0.0
C542 C 0.18968 0.16467 0.40174 0.0
C543 C 0.22208 0.17813 0.4266 0.0
H544 H 0.20327 0.7293 0.95149 0.0
H545 H 0.29774 0.79883 0.01342 0.0
H546 H 0.34879 0.7781 0.96341 0.0
H547 H 0.36599 0.7436 0.89986 0.0
H548 H 0.2722 0.67521 0.83677 0.0
H549 H 0.22161 0.69175 0.88948 0.0
C550 C 0.23508 0.73969 0.95429 0.0
C551 C 0.24634 0.7659 0.98625 0.0
C552 C 0.26446 0.72786 0.92512 0.0
C553 C 0.28788 0.77889 0.9892 0.0
C554 C 0.31725 0.76705 0.96055 0.0
C555 C 0.33458 0.73194 0.8981 0.0
C556 C 0.32255 0.70819 0.86496 0.0
C557 C 0.30577 0.74204 0.92814 0.0
C558 C 0.28192 0.69339 0.86238 0.0
C559 C 0.25306 0.70299 0.89237 0.0
loop_
_geom_bond_atom_site_label_1
_geom_bond_atom_site_label_2
_geom_bond_distance
_geom_bond_site_symmetry_2
_ccdc_geom_bond_type
Sc0 O3 2.025 . S
Sc0 O10 2.108 . S
Sc0 O13 2.105 . S
Sc0 O16 2.105 . S
Sc0 O19 2.105 1_554 S
Sc1 O3 2.025 . S
Sc1 O11 2.105 1_554 S
Sc1 O15 2.105 . S
Sc1 O17 2.105 . S
Sc1 O21 2.105 1_554 S
Sc2 O3 2.025 . S
Sc2 O12 2.105 . S
Sc2 O14 2.105 . S
Sc2 O18 2.105 . S
Sc2 O20 2.105 . S
O3 Sc0 2.025 . S
O3 Sc1 2.025 . S
O3 Sc2 2.025 . S
C4 O10 1.267 1_556 S
C4 O20 1.268 1_556 S
C5 O11 1.268 . S
C5 O19 1.268 . S
C6 O12 1.268 1_556 S
C6 O21 1.268 . S
C7 O13 1.268 . S
C7 O17 1.268 . S
C8 O14 1.268 . S
C8 O16 1.268 . S
C9 O15 1.268 . S
C9 O18 1.268 . S
O10 Sc0 2.108 . S
O10 C4 1.267 1_554 S
O11 Sc1 2.105 1_556 S
O11 C5 1.268 . S
O12 Sc2 2.105 . S
O12 C6 1.268 1_554 S
O13 Sc0 2.105 . S
O13 C7 1.268 . S
O14 Sc2 2.105 . S
O14 C8 1.268 . S
O15 Sc1 2.105 . S
O15 C9 1.268 . S
O16 Sc0 2.105 . S
O16 C8 1.268 . S
O17 Sc1 2.105 . S
O17 C7 1.268 . S
O18 Sc2 2.105 . S
O18 C9 1.268 . S
O19 Sc0 2.105 1_556 S
O19 C5 1.268 . S
O20 Sc2 2.105 . S
O20 C4 1.268 1_554 S
O21 Sc1 2.105 1_556 S
O21 C6 1.268 . S
Sc22 O25 2.025 . S
Sc22 O32 2.105 . S
Sc22 O35 2.105 . S
Sc22 O38 2.105 . S
Sc22 O41 2.105 . S
Sc23 O25 2.025 . S
Sc23 O33 2.105 . S
Sc23 O37 2.105 . S
Sc23 O39 2.105 . S
Sc23 O43 2.105 . S
Sc24 O25 2.025 . S
Sc24 O34 2.105 . S
Sc24 O36 2.105 . S
Sc24 O40 2.105 . S
Sc24 O42 2.105 . S
O25 Sc22 2.025 . S
O25 Sc23 2.025 . S
O25 Sc24 2.025 . S
C26 O32 1.268 . S
C26 O42 1.268 . S
C27 O33 1.268 . S
C27 O41 1.268 . S
C28 O34 1.268 . S
C28 O43 1.268 . S
C29 O35 1.268 . S
C29 O39 1.268 . S
C30 O36 1.268 . S
C30 O38 1.268 . S
C31 O37 1.268 . S
C31 O40 1.268 . S
O32 Sc22 2.105 . S
O32 C26 1.268 . S
O33 Sc23 2.105 . S
O33 C27 1.268 . S
O34 Sc24 2.105 . S
O34 C28 1.268 . S
O35 Sc22 2.105 . S
O35 C29 1.268 . S
O36 Sc24 2.105 . S
O36 C30 1.268 . S
O37 Sc23 2.105 . S
O37 C31 1.268 . S
O38 Sc22 2.105 . S
O38 C30 1.268 . S
O39 Sc23 2.105 . S
O39 C29 1.268 . S
O40 Sc24 2.105 . S
O40 C31 1.268 . S
O41 Sc22 2.105 . S
O41 C27 1.268 . S
O42 Sc24 2.105 . S
O42 C26 1.268 . S
O43 Sc23 2.105 . S
O43 C28 1.268 . S
Sc44 O47 2.025 . S
Sc44 O54 2.105 1_554 S
Sc44 O57 2.105 . S
Sc44 O60 2.105 . S
Sc44 O63 2.105 1_554 S
Sc45 O47 2.025 1_556 S
Sc45 O55 2.105 . S
Sc45 O59 2.105 1_556 S
Sc45 O61 2.105 1_556 S
Sc45 O65 2.105 . S
Sc46 O47 2.025 . S
Sc46 O56 2.105 1_554 S
Sc46 O58 2.105 . S
Sc46 O62 2.105 . S
Sc46 O64 2.105 1_554 S
O47 Sc44 2.025 . S
O47 Sc45 2.025 1_554 S
O47 Sc46 2.025 . S
C48 O54 1.268 . S
C48 O64 1.268 . S
C49 O55 1.268 . S
C49 O63 1.268 . S
C50 O56 1.268 . S
C50 O65 1.268 . S
C51 O57 1.268 . S
C51 O61 1.268 . S
C52 O58 1.268 . S
C52 O60 1.268 . S
C53 O59 1.268 . S
C53 O62 1.268 . S
O54 Sc44 2.105 1_556 S
O54 C48 1.268 . S
O55 Sc45 2.105 . S
O55 C49 1.268 . S
O56 Sc46 2.105 1_556 S
O56 C50 1.268 . S
O57 Sc44 2.105 . S
O57 C51 1.268 . S
O58 Sc46 2.105 . S
O58 C52 1.268 . S
O59 Sc45 2.105 1_554 S
O59 C53 1.268 . S
O60 Sc44 2.105 . S
O60 C52 1.268 . S
O61 Sc45 2.105 1_554 S
O61 C51 1.268 . S
O62 Sc46 2.105 . S
O62 C53 1.268 . S
O63 Sc44 2.105 1_556 S
O63 C49 1.268 . S
O64 Sc46 2.105 1_556 S
O64 C48 1.268 . S
O65 Sc45 2.105 . S
O65 C50 1.268 . S
Sc66 O69 2.025 . S
Sc66 O76 2.105 . S
Sc66 O79 2.105 . S
Sc66 O82 2.105 . S
Sc66 O85 2.105 . S
Sc67 O69 2.025 . S
Sc67 O77 2.105 . S
Sc67 O81 2.105 . S
Sc67 O83 2.105 . S
Sc67 O87 2.105 . S
Sc68 O69 2.025 . S
Sc68 O78 2.105 . S
Sc68 O80 2.105 . S
Sc68 O84 2.105 . S
Sc68 O86 2.105 . S
O69 Sc66 2.025 . S
O69 Sc67 2.025 . S
O69 Sc68 2.025 . S
C70 O76 1.268 . S
C70 O86 1.268 . S
C71 O77 1.268 . S
C71 O85 1.268 . S
C72 O78 1.268 . S
C72 O87 1.268 . S
C73 O79 1.268 . S
C73 O83 1.268 . S
C74 O80 1.268 . S
C74 O82 1.268 . S
C75 O81 1.268 . S
C75 O84 1.268 . S
O76 Sc66 2.105 . S
O76 C70 1.268 . S
O77 Sc67 2.105 . S
O77 C71 1.268 . S
O78 Sc68 2.105 . S
O78 C72 1.268 . S
O79 Sc66 2.105 . S
O79 C73 1.268 . S
O80 Sc68 2.105 . S
O80 C74 1.268 . S
O81 Sc67 2.105 . S
O81 C75 1.268 . S
O82 Sc66 2.105 . S
O82 C74 1.268 . S
O83 Sc67 2.105 . S
O83 C73 1.268 . S
O84 Sc68 2.105 . S
O84 C75 1.268 . S
O85 Sc66 2.105 . S
O85 C71 1.268 . S
O86 Sc68 2.105 . S
O86 C70 1.268 . S
O87 Sc67 2.105 . S
O87 C72 1.268 . S
H88 C91 0.929 . S
H89 C94 0.929 . S
H90 C96 0.930 . S
C91 H88 0.929 . S
C91 C92 1.398 . S
C91 C93 1.396 . S
C92 C91 1.398 . S
C92 C96 1.407 . S
C93 C91 1.396 . S
C93 C94 1.394 . S
C94 H89 0.929 . S
C94 C93 1.394 . S
C94 C95 1.382 . S
C95 C94 1.382 . S
C95 C96 1.392 . S
C95 N97 1.420 . S
C96 H90 0.930 . S
C96 C92 1.407 . S
C96 C95 1.392 . S
N97 C95 1.420 . S
N97 C98 1.244 . S
C98 N97 1.244 . S
H99 C102 0.929 . S
H100 C105 0.929 . S
H101 C107 0.930 . S
C102 H99 0.929 . S
C102 C103 1.398 . S
C102 C104 1.396 . S
C103 C102 1.398 . S
C103 C107 1.407 . S
C104 C102 1.396 . S
C104 C105 1.394 . S
C105 H100 0.929 . S
C105 C104 1.394 . S
C105 C106 1.382 . S
C106 C105 1.382 . S
C106 C107 1.392 . S
C106 N108 1.420 . S
C107 H101 0.930 . S
C107 C103 1.407 . S
C107 C106 1.392 . S
N108 C106 1.420 . S
N108 C109 1.244 . S
C109 N108 1.244 . S
H110 C113 0.929 . S
H111 C116 0.929 . S
H112 C118 0.930 . S
C113 H110 0.929 . S
C113 C114 1.398 . S
C113 C115 1.396 . S
C114 C113 1.398 . S
C114 C118 1.407 . S
C115 C113 1.396 . S
C115 C116 1.394 . S
C116 H111 0.929 . S
C116 C115 1.394 . S
C116 C117 1.382 . S
C117 C116 1.382 . S
C117 C118 1.392 . S
C117 N119 1.420 . S
C118 H112 0.930 . S
C118 C114 1.407 . S
C118 C117 1.392 . S
N119 C117 1.420 . S
N119 C120 1.244 . S
C120 N119 1.244 . S
H121 C124 0.929 . S
H122 C127 0.929 . S
H123 C129 0.930 . S
C124 H121 0.929 . S
C124 C125 1.398 . S
C124 C126 1.396 . S
C125 C124 1.398 . S
C125 C129 1.407 . S
C126 C124 1.396 . S
C126 C127 1.394 . S
C127 H122 0.929 . S
C127 C126 1.394 . S
C127 C128 1.382 . S
C128 C127 1.382 . S
C128 C129 1.392 . S
C128 N130 1.420 . S
C129 H123 0.930 . S
C129 C125 1.407 . S
C129 C128 1.392 . S
N130 C128 1.420 . S
N130 C131 1.244 . S
C131 N130 1.244 . S
H132 C135 0.929 . S
H133 C138 0.929 . S
H134 C140 0.930 . S
C135 H132 0.929 . S
C135 C136 1.398 . S
C135 C137 1.396 . S
C136 C135 1.398 . S
C136 C140 1.407 . S
C137 C135 1.396 . S
C137 C138 1.394 . S
C138 H133 0.929 . S
C138 C137 1.394 . S
C138 C139 1.382 . S
C139 C138 1.382 . S
C139 C140 1.392 . S
C139 N141 1.420 . S
C140 H134 0.930 . S
C140 C136 1.407 . S
C140 C139 1.392 . S
N141 C139 1.420 . S
N141 C142 1.244 . S
C142 N141 1.244 . S
H143 C146 0.929 . S
H144 C149 0.929 . S
H145 C151 0.930 . S
C146 H143 0.929 . S
C146 C147 1.398 . S
C146 C148 1.396 . S
C147 C146 1.398 . S
C147 C151 1.407 . S
C148 C146 1.396 . S
C148 C149 1.394 . S
C149 H144 0.929 . S
C149 C148 1.394 . S
C149 C150 1.382 . S
C150 C149 1.382 . S
C150 C151 1.392 . S
C150 N152 1.420 . S
C151 H145 0.930 . S
C151 C147 1.407 . S
C151 C150 1.392 . S
N152 C150 1.420 . S
N152 C153 1.244 . S
C153 N152 1.244 . S
H154 C157 0.929 . S
H155 C160 0.929 . S
H156 C162 0.930 . S
C157 H154 0.929 . S
C157 C158 1.398 . S
C157 C159 1.396 . S
C158 C157 1.398 . S
C158 C162 1.407 . S
C159 C157 1.396 . S
C159 C160 1.394 . S
C160 H155 0.929 . S
C160 C159 1.394 . S
C160 C161 1.382 . S
C161 C160 1.382 . S
C161 C162 1.392 . S
C161 N163 1.420 . S
C162 H156 0.930 . S
C162 C158 1.407 . S
C162 C161 1.392 . S
N163 C161 1.420 . S
N163 C164 1.244 . S
C164 N163 1.244 . S
H165 C168 0.929 . S
H166 C171 0.929 . S
H167 C173 0.930 . S
C168 H165 0.929 . S
C168 C169 1.398 . S
C168 C170 1.396 . S
C169 C168 1.398 . S
C169 C173 1.407 . S
C170 C168 1.396 . S
C170 C171 1.394 . S
C171 H166 0.929 . S
C171 C170 1.394 . S
C171 C172 1.382 . S
C172 C171 1.382 . S
C172 C173 1.392 . S
C172 N174 1.420 . S
C173 H167 0.930 . S
C173 C169 1.407 . S
C173 C172 1.392 . S
N174 C172 1.420 . S
N174 C175 1.244 . S
C175 N174 1.244 . S
H176 C182 0.930 . S
H177 C185 0.930 . S
H178 C186 0.930 . S
H179 C187 0.930 . S
H180 C190 0.930 . S
H181 C191 0.930 . S
C182 H176 0.930 . S
C182 C183 1.355 . S
C182 C184 1.415 1_565 S
C183 C182 1.355 . S
C183 C185 1.419 . S
C184 C182 1.415 1_545 S
C184 C189 1.425 . S
C184 C191 1.409 . S
C185 H177 0.930 . S
C185 C183 1.419 . S
C185 C186 1.362 . S
C186 H178 0.930 . S
C186 C185 1.362 . S
C186 C189 1.409 1_565 S
C187 H179 0.930 . S
C187 C188 1.355 . S
C187 C189 1.415 . S
C188 C187 1.355 . S
C188 C190 1.419 . S
C189 C184 1.425 . S
C189 C186 1.409 1_545 S
C189 C187 1.415 . S
C190 H180 0.930 . S
C190 C188 1.419 . S
C190 C191 1.362 . S
C191 H181 0.930 . S
C191 C184 1.409 . S
C191 C190 1.362 . S
H192 C198 0.930 . S
H193 C201 0.930 . S
H194 C202 0.930 . S
H195 C203 0.930 . S
H196 C206 0.930 . S
H197 C207 0.930 . S
C198 H192 0.930 . S
C198 C199 1.355 . S
C198 C200 1.415 . S
C199 C198 1.355 . S
C199 C201 1.419 . S
C200 C198 1.415 . S
C200 C205 1.425 . S
C200 C207 1.409 . S
C201 H193 0.930 . S
C201 C199 1.419 . S
C201 C202 1.362 . S
C202 H194 0.930 . S
C202 C201 1.362 . S
C202 C205 1.409 . S
C203 H195 0.930 . S
C203 C204 1.355 . S
C203 C205 1.415 . S
C204 C203 1.355 . S
C204 C206 1.419 . S
C205 C200 1.425 . S
C205 C202 1.409 . S
C205 C203 1.415 . S
C206 H196 0.930 . S
C206 C204 1.419 . S
C206 C207 1.362 . S
C207 H197 0.930 . S
C207 C200 1.409 . S
C207 C206 1.362 . S
H208 C214 0.930 . S
H209 C217 0.930 . S
H210 C218 0.930 . S
H211 C219 0.930 . S
H212 C222 0.930 . S
H213 C223 0.930 1_545 S
C214 H208 0.930 . S
C214 C215 1.355 . S
C214 C216 1.415 . S
C215 C214 1.355 . S
C215 C217 1.419 . S
C216 C214 1.415 . S
C216 C221 1.425 1_545 S
C216 C223 1.409 1_545 S
C217 H209 0.930 . S
C217 C215 1.419 . S
C217 C218 1.362 1_545 S
C218 H210 0.930 . S
C218 C217 1.362 1_565 S
C218 C221 1.409 . S
C219 H211 0.930 . S
C219 C220 1.355 . S
C219 C221 1.415 . S
C220 C219 1.355 . S
C220 C222 1.419 . S
C221 C216 1.425 1_565 S
C221 C218 1.409 . S
C221 C219 1.415 . S
C222 H212 0.930 . S
C222 C220 1.419 . S
C222 C223 1.362 . S
C223 H213 0.930 1_565 S
C223 C216 1.409 1_565 S
C223 C222 1.362 . S
H224 C230 0.930 . S
H225 C233 0.930 . S
H226 C234 0.930 . S
H227 C235 0.930 . S
H228 C238 0.930 . S
H229 C239 0.930 . S
C230 H224 0.930 . S
C230 C231 1.355 . S
C230 C232 1.415 . S
C231 C230 1.355 . S
C231 C233 1.419 . S
C232 C230 1.415 . S
C232 C237 1.425 . S
C232 C239 1.409 . S
C233 H225 0.930 . S
C233 C231 1.419 . S
C233 C234 1.362 . S
C234 H226 0.930 . S
C234 C233 1.362 . S
C234 C237 1.409 . S
C235 H227 0.930 . S
C235 C236 1.355 . S
C235 C237 1.415 . S
C236 C235 1.355 . S
C236 C238 1.419 . S
C237 C232 1.425 . S
C237 C234 1.409 . S
C237 C235 1.415 . S
C238 H228 0.930 . S
C238 C236 1.419 . S
C238 C239 1.362 . S
C239 H229 0.930 . S
C239 C232 1.409 . S
C239 C238 1.362 . S
H240 C246 0.930 . S
H241 C249 0.930 . S
H242 C250 0.930 . S
H243 C251 0.930 . S
H244 C254 0.930 . S
H245 C255 0.930 . S
C246 H240 0.930 . S
C246 C247 1.355 . S
C246 C248 1.415 . S
C247 C246 1.355 . S
C247 C249 1.419 . S
C248 C246 1.415 . S
C248 C253 1.425 . S
C248 C255 1.409 . S
C249 H241 0.930 . S
C249 C247 1.419 . S
C249 C250 1.362 . S
C250 H242 0.930 . S
C250 C249 1.362 . S
C250 C253 1.409 . S
C251 H243 0.930 . S
C251 C252 1.355 . S
C251 C253 1.415 . S
C252 C251 1.355 . S
C252 C254 1.419 . S
C253 C248 1.425 . S
C253 C250 1.409 . S
C253 C251 1.415 . S
C254 H244 0.930 . S
C254 C252 1.419 . S
C254 C255 1.362 . S
C255 H245 0.930 . S
C255 C248 1.409 . S
C255 C254 1.362 . S
H256 C262 0.930 . S
H257 C265 0.930 1_655 S
H258 C266 0.930 . S
H259 C267 0.930 . S
H260 C270 0.930 . S
H261 C271 0.930 . S
C262 H256 0.930 . S
C262 C263 1.355 1_455 S
C262 C264 1.415 . S
C263 C262 1.355 1_655 S
C263 C265 1.419 1_655 S
C264 C262 1.415 . S
C264 C269 1.425 . S
C264 C271 1.409 . S
C265 H257 0.930 1_455 S
C265 C263 1.419 1_455 S
C265 C266 1.362 . S
C266 H258 0.930 . S
C266 C265 1.362 . S
C266 C269 1.409 . S
C267 H259 0.930 . S
C267 C268 1.355 . S
C267 C269 1.415 . S
C268 C267 1.355 . S
C268 C270 1.419 . S
C269 C264 1.425 . S
C269 C266 1.409 . S
C269 C267 1.415 . S
C270 H260 0.930 . S
C270 C268 1.419 . S
C270 C271 1.362 . S
C271 H261 0.930 . S
C271 C264 1.409 . S
C271 C270 1.362 . S
H272 C278 0.930 . S
H273 C281 0.930 . S
H274 C282 0.930 . S
H275 C283 0.930 . S
H276 C286 0.930 . S
H277 C287 0.930 . S
C278 H272 0.930 . S
C278 C279 1.355 . S
C278 C280 1.415 . S
C279 C278 1.355 . S
C279 C281 1.419 . S
C280 C278 1.415 . S
C280 C285 1.425 . S
C280 C287 1.409 . S
C281 H273 0.930 . S
C281 C279 1.419 . S
C281 C282 1.362 . S
C282 H274 0.930 . S
C282 C281 1.362 . S
C282 C285 1.409 . S
C283 H275 0.930 . S
C283 C284 1.355 . S
C283 C285 1.415 . S
C284 C283 1.355 . S
C284 C286 1.419 . S
C285 C280 1.425 . S
C285 C282 1.409 . S
C285 C283 1.415 . S
C286 H276 0.930 . S
C286 C284 1.419 . S
C286 C287 1.362 . S
C287 H277 0.930 . S
C287 C280 1.409 . S
C287 C286 1.362 . S
H288 C294 0.930 1_655 S
H289 C297 0.930 . S
H290 C298 0.930 . S
H291 C299 0.930 . S
H292 C302 0.930 . S
H293 C303 0.930 . S
C294 H288 0.930 1_455 S
C294 C295 1.355 . S
C294 C296 1.415 1_455 S
C295 C294 1.355 . S
C295 C297 1.419 . S
C296 C294 1.415 1_655 S
C296 C301 1.425 1_655 S
C296 C303 1.409 . S
C297 H289 0.930 . S
C297 C295 1.419 . S
C297 C298 1.362 . S
C298 H290 0.930 . S
C298 C297 1.362 . S
C298 C301 1.409 . S
C299 H291 0.930 . S
C299 C300 1.355 1_455 S
C299 C301 1.415 . S
C300 C299 1.355 1_655 S
C300 C302 1.419 . S
C301 C296 1.425 1_455 S
C301 C298 1.409 . S
C301 C299 1.415 . S
C302 H292 0.930 . S
C302 C300 1.419 . S
C302 C303 1.362 . S
C303 H293 0.930 . S
C303 C296 1.409 . S
C303 C302 1.362 . S
H304 C310 0.930 . S
H305 C313 0.930 . S
H306 C314 0.930 1_565 S
H307 C315 0.930 . S
H308 C318 0.930 . S
H309 C319 0.930 1_545 S
C310 H304 0.930 . S
C310 C311 1.355 . S
C310 C312 1.415 . S
C311 C310 1.355 . S
C311 C313 1.419 . S
C312 C310 1.415 . S
C312 C317 1.425 1_545 S
C312 C319 1.409 1_545 S
C313 H305 0.930 . S
C313 C311 1.419 . S
C313 C314 1.362 . S
C314 H306 0.930 1_545 S
C314 C313 1.362 . S
C314 C317 1.409 1_545 S
C315 H307 0.930 . S
C315 C316 1.355 . S
C315 C317 1.415 . S
C316 C315 1.355 . S
C316 C318 1.419 . S
C317 C312 1.425 1_565 S
C317 C314 1.409 1_565 S
C317 C315 1.415 . S
C318 H308 0.930 . S
C318 C316 1.419 . S
C318 C319 1.362 . S
C319 H309 0.930 1_565 S
C319 C312 1.409 1_565 S
C319 C318 1.362 . S
H320 C326 0.930 . S
H321 C329 0.930 . S
H322 C330 0.930 . S
H323 C331 0.930 . S
H324 C334 0.930 . S
H325 C335 0.930 . S
C326 H320 0.930 . S
C326 C327 1.355 . S
C326 C328 1.415 . S
C327 C326 1.355 . S
C327 C329 1.419 . S
C328 C326 1.415 . S
C328 C333 1.425 . S
C328 C335 1.409 . S
C329 H321 0.930 . S
C329 C327 1.419 . S
C329 C330 1.362 . S
C330 H322 0.930 . S
C330 C329 1.362 . S
C330 C333 1.409 . S
C331 H323 0.930 . S
C331 C332 1.355 . S
C331 C333 1.415 . S
C332 C331 1.355 . S
C332 C334 1.419 . S
C333 C328 1.425 . S
C333 C330 1.409 . S
C333 C331 1.415 . S
C334 H324 0.930 . S
C334 C332 1.419 . S
C334 C335 1.362 . S
C335 H325 0.930 . S
C335 C328 1.409 . S
C335 C334 1.362 . S
H336 C342 0.930 . S
H337 C345 0.960 . S
H338 C346 0.930 1_554 S
H339 C347 0.930 . S
H340 C350 0.930 . S
H341 C351 0.930 1_565 S
C342 H336 0.930 . S
C342 C343 1.355 . S
C342 C344 1.415 1_565 S
C343 C342 1.355 . S
C343 C345 1.400 1_556 S
C344 C342 1.415 1_545 S
C344 C349 1.425 . S
C344 C351 1.409 . S
C345 H337 0.960 . S
C345 C343 1.400 1_554 S
C345 C346 1.352 1_564 S
C346 H338 0.930 1_556 S
C346 C345 1.352 1_546 S
C346 C349 1.409 . S
C347 H339 0.930 . S
C347 C348 1.355 . S
C347 C349 1.415 . S
C348 C347 1.355 . S
C348 C350 1.419 . S
C349 C344 1.425 . S
C349 C346 1.409 . S
C349 C347 1.415 . S
C350 H340 0.930 . S
C350 C348 1.419 . S
C350 C351 1.362 . S
C351 H341 0.930 1_545 S
C351 C344 1.409 . S
C351 C350 1.362 . S
H352 C358 0.930 . S
H353 C361 0.930 . S
H354 C362 0.930 . S
H355 C363 0.930 . S
H356 C366 0.930 . S
H357 C367 0.930 . S
C358 H352 0.930 . S
C358 C359 1.355 . S
C358 C360 1.415 . S
C359 C358 1.355 . S
C359 C361 1.419 . S
C360 C358 1.415 . S
C360 C365 1.425 . S
C360 C367 1.409 . S
C361 H353 0.930 . S
C361 C359 1.419 . S
C361 C362 1.362 . S
C362 H354 0.930 . S
C362 C361 1.362 . S
C362 C365 1.409 . S
C363 H355 0.930 . S
C363 C364 1.355 . S
C363 C365 1.415 . S
C364 C363 1.355 . S
C364 C366 1.419 . S
C365 C360 1.425 . S
C365 C362 1.409 . S
C365 C363 1.415 . S
C366 H356 0.930 . S
C366 C364 1.419 . S
C366 C367 1.362 . S
C367 H357 0.930 . S
C367 C360 1.409 . S
C367 C366 1.362 . S
H368 C374 0.930 . S
H369 C377 0.930 . S
H370 C378 0.930 . S
H371 C379 0.930 . S
H372 C382 0.930 . S
H373 C383 0.930 . S
C374 H368 0.930 . S
C374 C375 1.355 . S
C374 C376 1.415 . S
C375 C374 1.355 . S
C375 C377 1.419 . S
C376 C374 1.415 . S
C376 C381 1.425 . S
C376 C383 1.409 . S
C377 H369 0.930 . S
C377 C375 1.419 . S
C377 C378 1.362 . S
C378 H370 0.930 . S
C378 C377 1.362 . S
C378 C381 1.409 . S
C379 H371 0.930 . S
C379 C380 1.355 . S
C379 C381 1.415 . S
C380 C379 1.355 . S
C380 C382 1.419 . S
C381 C376 1.425 . S
C381 C378 1.409 . S
C381 C379 1.415 . S
C382 H372 0.930 . S
C382 C380 1.419 . S
C382 C383 1.362 . S
C383 H373 0.930 . S
C383 C376 1.409 . S
C383 C382 1.362 . S
H384 C390 0.930 1_455 S
H385 C393 0.930 . S
H386 C394 0.930 . S
H387 C395 0.930 . S
H388 C398 0.930 . S
H389 C399 0.930 . S
C390 H384 0.930 1_655 S
C390 C391 1.355 . S
C390 C392 1.415 . S
C391 C390 1.355 . S
C391 C393 1.419 . S
C392 C390 1.415 . S
C392 C397 1.425 . S
C392 C399 1.409 . S
C393 H385 0.930 . S
C393 C391 1.419 . S
C393 C394 1.362 . S
C394 H386 0.930 . S
C394 C393 1.362 . S
C394 C397 1.409 . S
C395 H387 0.930 . S
C395 C396 1.355 . S
C395 C397 1.415 . S
C396 C395 1.355 . S
C396 C398 1.419 . S
C397 C392 1.425 . S
C397 C394 1.409 . S
C397 C395 1.415 . S
C398 H388 0.930 . S
C398 C396 1.419 . S
C398 C399 1.362 . S
C399 H389 0.930 . S
C399 C392 1.409 . S
C399 C398 1.362 . S
H400 C406 0.930 . S
H401 C409 0.930 . S
H402 C410 0.930 . S
H403 C411 0.930 . S
H404 C414 0.930 . S
H405 C415 0.930 . S
C406 H400 0.930 . S
C406 C407 1.355 . S
C406 C408 1.415 . S
C407 C406 1.355 . S
C407 C409 1.419 . S
C408 C406 1.415 . S
C408 C413 1.425 . S
C408 C415 1.409 . S
C409 H401 0.930 . S
C409 C407 1.419 . S
C409 C410 1.362 . S
C410 H402 0.930 . S
C410 C409 1.362 . S
C410 C413 1.409 . S
C411 H403 0.930 . S
C411 C412 1.355 . S
C411 C413 1.415 . S
C412 C411 1.355 . S
C412 C414 1.419 . S
C413 C408 1.425 . S
C413 C410 1.409 . S
C413 C411 1.415 . S
C414 H404 0.930 . S
C414 C412 1.419 . S
C414 C415 1.362 . S
C415 H405 0.930 . S
C415 C408 1.409 . S
C415 C414 1.362 . S
H416 C422 0.930 . S
H417 C425 0.930 . S
H418 C426 0.930 . S
H419 C427 0.930 . S
H420 C430 0.930 . S
H421 C431 0.930 . S
C422 H416 0.930 . S
C422 C423 1.355 . S
C422 C424 1.415 . S
C423 C422 1.355 . S
C423 C425 1.419 . S
C424 C422 1.415 . S
C424 C429 1.425 1_655 S
C424 C431 1.409 . S
C425 H417 0.930 . S
C425 C423 1.419 . S
C425 C426 1.362 1_655 S
C426 H418 0.930 . S
C426 C425 1.362 1_455 S
C426 C429 1.409 . S
C427 H419 0.930 . S
C427 C428 1.355 . S
C427 C429 1.415 . S
C428 C427 1.355 . S
C428 C430 1.419 1_455 S
C429 C424 1.425 1_455 S
C429 C426 1.409 . S
C429 C427 1.415 . S
C430 H420 0.930 . S
C430 C428 1.419 1_655 S
C430 C431 1.362 . S
C431 H421 0.930 . S
C431 C424 1.409 . S
C431 C430 1.362 . S
H432 C438 0.930 . S
H433 C441 0.930 . S
H434 C442 0.930 . S
H435 C443 0.930 . S
H436 C446 0.930 . S
H437 C447 0.930 . S
C438 H432 0.930 . S
C438 C439 1.355 . S
C438 C440 1.415 . S
C439 C438 1.355 . S
C439 C441 1.419 . S
C440 C438 1.415 . S
C440 C445 1.425 . S
C440 C447 1.409 . S
C441 H433 0.930 . S
C441 C439 1.419 . S
C441 C442 1.362 . S
C442 H434 0.930 . S
C442 C441 1.362 . S
C442 C445 1.409 . S
C443 H435 0.930 . S
C443 C444 1.355 . S
C443 C445 1.415 . S
C444 C443 1.355 . S
C444 C446 1.419 . S
C445 C440 1.425 . S
C445 C442 1.409 . S
C445 C443 1.415 . S
C446 H436 0.930 . S
C446 C444 1.419 . S
C446 C447 1.362 . S
C447 H437 0.930 . S
C447 C440 1.409 . S
C447 C446 1.362 . S
H448 C454 0.930 . S
H449 C457 0.930 . S
H450 C458 0.930 . S
H451 C459 0.930 . S
H452 C462 0.930 . S
H453 C463 0.930 . S
C454 H448 0.930 . S
C454 C455 1.355 . S
C454 C456 1.415 . S
C455 C454 1.355 . S
C455 C457 1.419 . S
C456 C454 1.415 . S
C456 C461 1.425 . S
C456 C463 1.409 . S
C457 H449 0.930 . S
C457 C455 1.419 . S
C457 C458 1.362 . S
C458 H450 0.930 . S
C458 C457 1.362 . S
C458 C461 1.409 . S
C459 H451 0.930 . S
C459 C460 1.355 . S
C459 C461 1.415 . S
C460 C459 1.355 . S
C460 C462 1.419 . S
C461 C456 1.425 . S
C461 C458 1.409 . S
C461 C459 1.415 . S
C462 H452 0.930 . S
C462 C460 1.419 . S
C462 C463 1.362 . S
C463 H453 0.930 . S
C463 C456 1.409 . S
C463 C462 1.362 . S
H464 C470 0.930 . S
H465 C473 0.930 . S
H466 C474 0.930 . S
H467 C475 0.930 . S
H468 C478 0.930 . S
H469 C479 0.930 . S
C470 H464 0.930 . S
C470 C471 1.355 . S
C470 C472 1.415 . S
C471 C470 1.355 . S
C471 C473 1.419 . S
C472 C470 1.415 . S
C472 C477 1.425 . S
C472 C479 1.409 . S
C473 H465 0.930 . S
C473 C471 1.419 . S
C473 C474 1.362 . S
C474 H466 0.930 . S
C474 C473 1.362 . S
C474 C477 1.409 . S
C475 H467 0.930 . S
C475 C476 1.355 . S
C475 C477 1.415 . S
C476 C475 1.355 . S
C476 C478 1.419 . S
C477 C472 1.425 . S
C477 C474 1.409 . S
C477 C475 1.415 . S
C478 H468 0.930 . S
C478 C476 1.419 . S
C478 C479 1.362 . S
C479 H469 0.930 . S
C479 C472 1.409 . S
C479 C478 1.362 . S
H480 C486 0.930 . S
H481 C489 0.930 . S
H482 C490 0.930 . S
H483 C491 0.930 . S
H484 C494 0.930 . S
H485 C495 0.930 . S
C486 H480 0.930 . S
C486 C487 1.355 . S
C486 C488 1.415 . S
C487 C486 1.355 . S
C487 C489 1.419 . S
C488 C486 1.415 . S
C488 C493 1.425 . S
C488 C495 1.409 . S
C489 H481 0.930 . S
C489 C487 1.419 . S
C489 C490 1.362 . S
C490 H482 0.930 . S
C490 C489 1.362 . S
C490 C493 1.409 . S
C491 H483 0.930 . S
C491 C492 1.355 . S
C491 C493 1.415 . S
C492 C491 1.355 . S
C492 C494 1.419 . S
C493 C488 1.425 . S
C493 C490 1.409 . S
C493 C491 1.415 . S
C494 H484 0.930 . S
C494 C492 1.419 . S
C494 C495 1.362 . S
C495 H485 0.930 . S
C495 C488 1.409 . S
C495 C494 1.362 . S
H496 C502 0.930 . S
H497 C505 0.930 . S
H498 C506 0.930 . S
H499 C507 0.930 . S
H500 C510 0.930 . S
H501 C511 0.930 . S
C502 H496 0.930 . S
C502 C503 1.355 . S
C502 C504 1.415 . S
C503 C502 1.355 . S
C503 C505 1.419 . S
C504 C502 1.415 . S
C504 C509 1.425 . S
C504 C511 1.409 . S
C505 H497 0.930 . S
C505 C503 1.419 . S
C505 C506 1.362 . S
C506 H498 0.930 . S
C506 C505 1.362 . S
C506 C509 1.409 . S
C507 H499 0.930 . S
C507 C508 1.355 . S
C507 C509 1.415 . S
C508 C507 1.355 . S
C508 C510 1.419 . S
C509 C504 1.425 . S
C509 C506 1.409 . S
C509 C507 1.415 . S
C510 H500 0.930 . S
C510 C508 1.419 . S
C510 C511 1.362 . S
C511 H501 0.930 . S
C511 C504 1.409 . S
C511 C510 1.362 . S
H512 C518 0.930 . S
H513 C521 0.930 . S
H514 C522 0.930 . S
H515 C523 0.930 . S
H516 C526 0.930 . S
H517 C527 0.930 . S
C518 H512 0.930 . S
C518 C519 1.355 . S
C518 C520 1.415 . S
C519 C518 1.355 . S
C519 C521 1.419 . S
C520 C518 1.415 . S
C520 C525 1.425 . S
C520 C527 1.409 . S
C521 H513 0.930 . S
C521 C519 1.419 . S
C521 C522 1.362 . S
C522 H514 0.930 . S
C522 C521 1.362 . S
C522 C525 1.409 . S
C523 H515 0.930 . S
C523 C524 1.355 . S
C523 C525 1.415 . S
C524 C523 1.355 . S
C524 C526 1.419 . S
C525 C520 1.425 . S
C525 C522 1.409 . S
C525 C523 1.415 . S
C526 H516 0.930 . S
C526 C524 1.419 . S
C526 C527 1.362 . S
C527 H517 0.930 . S
C527 C520 1.409 . S
C527 C526 1.362 . S
H528 C534 0.930 . S
H529 C537 0.930 . S
H530 C538 0.930 . S
H531 C539 0.930 . S
H532 C542 0.930 . S
H533 C543 0.930 . S
C534 H528 0.930 . S
C534 C535 1.355 . S
C534 C536 1.415 . S
C535 C534 1.355 . S
C535 C537 1.419 . S
C536 C534 1.415 . S
C536 C541 1.425 . S
C536 C543 1.409 . S
C537 H529 0.930 . S
C537 C535 1.419 . S
C537 C538 1.362 . S
C538 H530 0.930 . S
C538 C537 1.362 . S
C538 C541 1.409 . S
C539 H531 0.930 . S
C539 C540 1.355 . S
C539 C541 1.415 . S
C540 C539 1.355 . S
C540 C542 1.419 . S
C541 C536 1.425 . S
C541 C538 1.409 . S
C541 C539 1.415 . S
C542 H532 0.930 . S
C542 C540 1.419 . S
C542 C543 1.362 . S
C543 H533 0.930 . S
C543 C536 1.409 . S
C543 C542 1.362 . S
H544 C550 0.930 . S
H545 C553 0.930 . S
H546 C554 0.930 . S
H547 C555 0.930 . S
H548 C558 0.930 . S
H549 C559 0.930 . S
C550 H544 0.930 . S
C550 C551 1.355 . S
C550 C552 1.415 . S
C551 C550 1.355 . S
C551 C553 1.419 . S
C552 C550 1.415 . S
C552 C557 1.425 . S
C552 C559 1.409 . S
C553 H545 0.930 . S
C553 C551 1.419 . S
C553 C554 1.362 . S
C554 H546 0.930 . S
C554 C553 1.362 . S
C554 C557 1.409 . S
C555 H547 0.930 . S
C555 C556 1.355 . S
C555 C557 1.415 . S
C556 C555 1.355 . S
C556 C558 1.419 . S
C557 C552 1.425 . S
C557 C554 1.409 . S
C557 C555 1.415 . S
C558 H548 0.930 . S
C558 C556 1.419 . S
C558 C559 1.362 . S
C559 H549 0.930 . S
C559 C552 1.409 . S
C559 C558 1.362 . S
C183 C8 1.465 . S
C188 C93 1.400 . S
C199 C31 1.423 . S
C204 C104 1.297 . S
C215 C53 1.382 . S
C220 C114 1.391 . S
C236 C126 1.397 . S
C231 C74 1.348 . S
C252 C137 1.387 . S
C247 C26 1.458 . S
C263 C48 1.397 . S
C268 C148 1.391 . S
C279 C71 1.399 . S
C284 C158 1.300 . S
C295 C5 1.435 . S
C300 C170 1.287 . S
C311 C50 1.306 . S
C316 C169 1.333 . S
C332 C136 1.244 . S
C327 C70 1.226 . S
C348 C147 1.307 . S
C343 C4 1.339 . S
C359 C28 1.367 . S
C364 C159 1.364 . S
C380 C103 1.311 . S
C375 C73 1.320 . S
C391 C7 1.370 1_655 S
C396 C115 1.360 . S
C412 C125 1.297 . S
C407 C30 1.346 . S
C428 C92 1.250 . S
C423 C52 1.221 . S
C444 C164 1.450 . S
C439 C9 1.454 . S
C460 C175 1.425 . S
C455 C29 1.407 . S
C471 C51 1.392 . S
C476 C142 1.409 . S
C492 C153 1.375 . S
C487 C75 1.434 . S
C508 C120 1.439 . S
C503 C27 1.470 . S
C519 C49 1.425 . S
C524 C131 1.388 . S
C540 C98 1.371 . S
C535 C72 1.375 . S
C556 C109 1.455 . S
C551 C6 1.452 . S
