# Generated by pormake.
# Topology ctn, (3,4)-cn, num edge types: 1
# Building blocks:
#     Node 0, Type 0, BuildingBlock: BETDAH_clean_linker_0, # of connection points: 3
#     Node 1, Type 0, BuildingBlock: BETDAH_clean_linker_0, # of connection points: 3
#     Node 2, Type 0, BuildingBlock: BETDAH_clean_linker_0, # of connection points: 3
#     Node 3, Type 0, BuildingBlock: BETDAH_clean_linker_0, # of connection points: 3
#     Node 4, Type 0, BuildingBlock: BETDAH_clean_linker_0, # of connection points: 3
#     Node 5, Type 0, BuildingBlock: BETDAH_clean_linker_0, # of connection points: 3
#     Node 6, Type 0, BuildingBlock: BETDAH_clean_linker_0, # of connection points: 3
#     Node 7, Type 0, BuildingBlock: BETDAH_clean_linker_0, # of connection points: 3
#     Node 8, Type 0, BuildingBlock: BETDAH_clean_linker_0, # of connection points: 3
#     Node 9, Type 0, BuildingBlock: BETDAH_clean_linker_0, # of connection points: 3
#     Node 10, Type 0, BuildingBlock: BETDAH_clean_linker_0, # of connection points: 3
#     Node 11, Type 0, BuildingBlock: BETDAH_clean_linker_0, # of connection points: 3
#     Node 12, Type 0, BuildingBlock: BETDAH_clean_linker_0, # of connection points: 3
#     Node 13, Type 0, BuildingBlock: BETDAH_clean_linker_0, # of connection points: 3
#     Node 14, Type 0, BuildingBlock: BETDAH_clean_linker_0, # of connection points: 3
#     Node 15, Type 0, BuildingBlock: BETDAH_clean_linker_0, # of connection points: 3
#     Node 16, Type 1, BuildingBlock: AZAVOO_clean_sbu_0, # of connection points: 4
#     Node 17, Type 1, BuildingBlock: AZAVOO_clean_sbu_0, # of connection points: 4
#     Node 18, Type 1, BuildingBlock: AZAVOO_clean_sbu_0, # of connection points: 4
#     Node 19, Type 1, BuildingBlock: AZAVOO_clean_sbu_0, # of connection points: 4
#     Node 20, Type 1, BuildingBlock: AZAVOO_clean_sbu_0, # of connection points: 4
#     Node 21, Type 1, BuildingBlock: AZAVOO_clean_sbu_0, # of connection points: 4
#     Node 22, Type 1, BuildingBlock: AZAVOO_clean_sbu_0, # of connection points: 4
#     Node 23, Type 1, BuildingBlock: AZAVOO_clean_sbu_0, # of connection points: 4
#     Node 24, Type 1, BuildingBlock: AZAVOO_clean_sbu_0, # of connection points: 4
#     Node 25, Type 1, BuildingBlock: AZAVOO_clean_sbu_0, # of connection points: 4
#     Node 26, Type 1, BuildingBlock: AZAVOO_clean_sbu_0, # of connection points: 4
#     Node 27, Type 1, BuildingBlock: AZAVOO_clean_sbu_0, # of connection points: 4
#     Edge 28, Type (0, 1), BuildingBlock: KIFKEQ_clean_linker_1, # of connection points: 2
#     Edge 29, Type (0, 1), BuildingBlock: KIFKEQ_clean_linker_1, # of connection points: 2
#     Edge 30, Type (0, 1), BuildingBlock: KIFKEQ_clean_linker_1, # of connection points: 2
#     Edge 31, Type (0, 1), BuildingBlock: KIFKEQ_clean_linker_1, # of connection points: 2
#     Edge 32, Type (0, 1), BuildingBlock: KIFKEQ_clean_linker_1, # of connection points: 2
#     Edge 33, Type (0, 1), BuildingBlock: KIFKEQ_clean_linker_1, # of connection points: 2
#     Edge 34, Type (0, 1), BuildingBlock: KIFKEQ_clean_linker_1, # of connection points: 2
#     Edge 35, Type (0, 1), BuildingBlock: KIFKEQ_clean_linker_1, # of connection points: 2
#     Edge 36, Type (0, 1), BuildingBlock: KIFKEQ_clean_linker_1, # of connection points: 2
#     Edge 37, Type (0, 1), BuildingBlock: KIFKEQ_clean_linker_1, # of connection points: 2
#     Edge 38, Type (0, 1), BuildingBlock: KIFKEQ_clean_linker_1, # of connection points: 2
#     Edge 39, Type (0, 1), BuildingBlock: KIFKEQ_clean_linker_1, # of connection points: 2
#     Edge 40, Type (0, 1), BuildingBlock: KIFKEQ_clean_linker_1, # of connection points: 2
#     Edge 41, Type (0, 1), BuildingBlock: KIFKEQ_clean_linker_1, # of connection points: 2
#     Edge 42, Type (0, 1), BuildingBlock: KIFKEQ_clean_linker_1, # of connection points: 2
#     Edge 43, Type (0, 1), BuildingBlock: KIFKEQ_clean_linker_1, # of connection points: 2
#     Edge 44, Type (0, 1), BuildingBlock: KIFKEQ_clean_linker_1, # of connection points: 2
#     Edge 45, Type (0, 1), BuildingBlock: KIFKEQ_clean_linker_1, # of connection points: 2
#     Edge 46, Type (0, 1), BuildingBlock: KIFKEQ_clean_linker_1, # of connection points: 2
#     Edge 47, Type (0, 1), BuildingBlock: KIFKEQ_clean_linker_1, # of connection points: 2
#     Edge 48, Type (0, 1), BuildingBlock: KIFKEQ_clean_linker_1, # of connection points: 2
#     Edge 49, Type (0, 1), BuildingBlock: KIFKEQ_clean_linker_1, # of connection points: 2
#     Edge 50, Type (0, 1), BuildingBlock: KIFKEQ_clean_linker_1, # of connection points: 2
#     Edge 51, Type (0, 1), BuildingBlock: KIFKEQ_clean_linker_1, # of connection points: 2
#     Edge 52, Type (0, 1), BuildingBlock: KIFKEQ_clean_linker_1, # of connection points: 2
#     Edge 53, Type (0, 1), BuildingBlock: KIFKEQ_clean_linker_1, # of connection points: 2
#     Edge 54, Type (0, 1), BuildingBlock: KIFKEQ_clean_linker_1, # of connection points: 2
#     Edge 55, Type (0, 1), BuildingBlock: KIFKEQ_clean_linker_1, # of connection points: 2
#     Edge 56, Type (0, 1), BuildingBlock: KIFKEQ_clean_linker_1, # of connection points: 2
#     Edge 57, Type (0, 1), BuildingBlock: KIFKEQ_clean_linker_1, # of connection points: 2
#     Edge 58, Type (0, 1), BuildingBlock: KIFKEQ_clean_linker_1, # of connection points: 2
#     Edge 59, Type (0, 1), BuildingBlock: KIFKEQ_clean_linker_1, # of connection points: 2
#     Edge 60, Type (0, 1), BuildingBlock: KIFKEQ_clean_linker_1, # of connection points: 2
#     Edge 61, Type (0, 1), BuildingBlock: KIFKEQ_clean_linker_1, # of connection points: 2
#     Edge 62, Type (0, 1), BuildingBlock: KIFKEQ_clean_linker_1, # of connection points: 2
#     Edge 63, Type (0, 1), BuildingBlock: KIFKEQ_clean_linker_1, # of connection points: 2
#     Edge 64, Type (0, 1), BuildingBlock: KIFKEQ_clean_linker_1, # of connection points: 2
#     Edge 65, Type (0, 1), BuildingBlock: KIFKEQ_clean_linker_1, # of connection points: 2
#     Edge 66, Type (0, 1), BuildingBlock: KIFKEQ_clean_linker_1, # of connection points: 2
#     Edge 67, Type (0, 1), BuildingBlock: KIFKEQ_clean_linker_1, # of connection points: 2
#     Edge 68, Type (0, 1), BuildingBlock: KIFKEQ_clean_linker_1, # of connection points: 2
#     Edge 69, Type (0, 1), BuildingBlock: KIFKEQ_clean_linker_1, # of connection points: 2
#     Edge 70, Type (0, 1), BuildingBlock: KIFKEQ_clean_linker_1, # of connection points: 2
#     Edge 71, Type (0, 1), BuildingBlock: KIFKEQ_clean_linker_1, # of connection points: 2
#     Edge 72, Type (0, 1), BuildingBlock: KIFKEQ_clean_linker_1, # of connection points: 2
#     Edge 73, Type (0, 1), BuildingBlock: KIFKEQ_clean_linker_1, # of connection points: 2
#     Edge 74, Type (0, 1), BuildingBlock: KIFKEQ_clean_linker_1, # of connection points: 2
#     Edge 75, Type (0, 1), BuildingBlock: KIFKEQ_clean_linker_1, # of connection points: 2
# Relax obj value: 0.051
# Max RMSD: 0.174
# Mean RMSD: 0.105
data_MOF--net-ctn--node1-AZAVOO_clean_sbu_0--node2-BETDAH_clean_linker_0--edge1-KIFKEQ_clean_linker_1
_symmetry_space_group_name_H-M    P1
_symmetry_Int_Tables_number       1
_symmetry_cell_setting            triclinic
loop_
_symmetry_equiv_pos_as_xyz
'x, y, z'
_cell_length_a     54.045755
_cell_length_b     54.934059
_cell_length_c     55.48362
_cell_angle_alpha  98.551996
_cell_angle_beta   92.93111
_cell_angle_gamma 97.680038
loop_
_atom_site_label
_atom_site_type_symbol
_atom_site_fract_x
_atom_site_fract_y
_atom_site_fract_z
_atom_type_partial_charge
H0 H 0.072 0.9974 0.07758 0.0
H1 H 0.06602 1.0002 1.00036 0.0
H2 H 0.00908 0.02477 0.04506 0.0
C3 C 0.06223 1.00232 0.06185 0.0
C4 C 0.03934 0.01175 0.06442 0.0
C5 C 0.07192 0.9979 0.03877 0.0
C6 C 0.05883 0.00353 0.01826 0.0
C7 C 0.03634 0.01333 0.02068 0.0
C8 C 0.02658 0.01725 0.04358 0.0
N9 N 0.02282 0.01819 0.99987 0.0
C10 C 0.02882 0.04025 0.99075 0.0
H11 H 0.33877 0.70096 0.27472 0.0
H12 H 0.37622 0.77053 0.25935 0.0
H13 H 0.30808 0.7359 0.21787 0.0
C14 C 0.34013 0.71594 0.26395 0.0
C15 C 0.32146 0.71572 0.24527 0.0
C16 C 0.36004 0.73557 0.26935 0.0
C17 C 0.36085 0.75534 0.2559 0.0
C18 C 0.34224 0.75576 0.23757 0.0
C19 C 0.32245 0.73587 0.23219 0.0
N20 N 0.34427 0.77664 0.22514 0.0
C21 C 0.32923 0.77891 0.20479 0.0
H22 H 0.03837 0.45286 0.06119 0.0
H23 H 0.00834 0.52237 0.06811 0.0
H24 H 1.00011 0.4734 0.99931 0.0
C25 C 0.02802 0.4658 0.05347 0.0
C26 C 0.01906 0.46011 0.02884 0.0
C27 C 0.02431 0.48814 0.06801 0.0
C28 C 0.01107 0.50488 0.05743 0.0
C29 C 1.0023 0.4994 0.03259 0.0
C30 C 0.00648 0.47719 0.01853 0.0
N31 N 0.99148 0.51679 0.02047 0.0
C32 C 0.97287 0.53016 0.02928 0.0
H33 H 0.77962 0.83169 0.19925 0.0
H34 H 0.7254 0.7912 0.23872 0.0
H35 H 0.77416 0.85544 0.27568 0.0
C36 C 0.77012 0.82968 0.21572 0.0
C37 C 0.77842 0.84639 0.2371 0.0
C38 C 0.75121 0.80938 0.21599 0.0
C39 C 0.73984 0.80674 0.23801 0.0
C40 C 0.74817 0.82352 0.25949 0.0
C41 C 0.76756 0.84291 0.25891 0.0
N42 N 0.73938 0.82024 0.28257 0.0
C43 C 0.7148 0.81218 0.28693 0.0
H44 H 0.0741 0.03171 0.46167 0.0
H45 H 0.08772 0.01794 0.53519 0.0
H46 H 0.01848 0.98591 0.4942 0.0
C47 C 0.06819 0.02291 0.47706 0.0
C48 C 0.04436 0.00871 0.47538 0.0
C49 C 0.08415 0.02641 0.49845 0.0
C50 C 0.07623 0.01465 0.51812 0.0
C51 C 0.05292 0.99952 0.51642 0.0
C52 C 0.03702 0.99645 0.49497 0.0
N53 N 0.04414 0.99104 0.53777 0.0
C54 C 0.04015 0.96609 0.54051 0.0
H55 H 0.26974 0.70442 0.81986 0.0
H56 H 0.20259 0.72266 0.78605 0.0
H57 H 0.24372 0.66955 0.74683 0.0
C58 C 0.2562 0.70196 0.80428 0.0
C59 C 0.2594 0.68541 0.78324 0.0
C60 C 0.23574 0.71537 0.80557 0.0
C61 C 0.21839 0.71242 0.78518 0.0
C62 C 0.22119 0.6956 0.76403 0.0
C63 C 0.24156 0.68217 0.76331 0.0
N64 N 0.20395 0.69133 0.74312 0.0
C65 C 0.18437 0.70472 0.73934 0.0
H66 H 0.937 0.5268 0.51005 0.0
H67 H 0.98551 0.55116 0.45624 0.0
H68 H 0.93937 0.48007 0.44112 0.0
C69 C 0.94424 0.52366 0.49217 0.0
C70 C 0.93604 0.50111 0.47664 0.0
C71 C 0.96176 0.54216 0.48498 0.0
C72 C 0.97224 0.53715 0.46227 0.0
C73 C 0.96423 0.51451 0.44662 0.0
C74 C 0.94595 0.497 0.45374 0.0
N75 N 0.97266 0.50918 0.42285 0.0
C76 C 0.99605 0.51785 0.41562 0.0
H77 H 0.84811 0.7469 0.81348 0.0
H78 H 0.81222 0.79632 0.77384 0.0
H79 H 0.77585 0.76554 0.83155 0.0
C80 C 0.83266 0.75708 0.81052 0.0
C81 C 0.81211 0.75462 0.82494 0.0
C82 C 0.83287 0.77186 0.79168 0.0
C83 C 0.81271 0.78531 0.78846 0.0
C84 C 0.79216 0.7829 0.80293 0.0
C85 C 0.79193 0.76739 0.8207 0.0
N86 N 0.77037 0.79402 0.79897 0.0
C87 C 0.76976 0.81682 0.79112 0.0
H88 H 0.34594 0.25482 0.30323 0.0
H89 H 0.31066 0.30471 0.2637 0.0
H90 H 0.27156 0.26955 0.31743 0.0
C91 C 0.33036 0.26469 0.29987 0.0
C92 C 0.30893 0.26064 0.31286 0.0
C93 C 0.33126 0.28034 0.28177 0.0
C94 C 0.31041 0.29257 0.2774 0.0
C95 C 0.28885 0.28844 0.29027 0.0
C96 C 0.28826 0.2724 0.30759 0.0
N97 N 0.26668 0.29866 0.28542 0.0
C98 C 0.26537 0.32149 0.27784 0.0
H99 H 0.53233 0.9587 0.57925 0.0
H100 H 0.52472 0.03628 0.59339 0.0
H101 H 0.48226 0.98887 0.53243 0.0
C102 C 0.52339 0.97421 0.57492 0.0
C103 C 0.5063 0.97083 0.55429 0.0
C104 C 0.53025 0.99772 0.58913 0.0
C105 C 0.51958 0.01796 0.58265 0.0
C106 C 0.50195 0.01486 0.56265 0.0
C107 C 0.49536 0.99125 0.54833 0.0
N108 N 0.49228 0.03627 0.55699 0.0
C109 C 0.46931 0.03629 0.5445 0.0
H110 H 0.29536 0.33433 0.69389 0.0
H111 H 0.21998 0.30754 0.70911 0.0
H112 H 0.25284 0.38244 0.73778 0.0
C113 C 0.2785 0.33713 0.70309 0.0
C114 C 0.27689 0.36048 0.7167 0.0
C115 C 0.258 0.31796 0.6999 0.0
C116 C 0.23598 0.32207 0.71144 0.0
C117 C 0.23426 0.34537 0.72517 0.0
C118 C 0.25448 0.3645 0.72731 0.0
N119 N 0.2119 0.35064 0.73577 0.0
C120 C 0.19808 0.33485 0.74906 0.0
H121 H 0.84967 0.19919 0.77747 0.0
H122 H 0.90078 0.2479 0.74329 0.0
H123 H 0.826 0.22327 0.71069 0.0
C124 C 0.85345 0.21028 0.7631 0.0
C125 C 0.83488 0.20981 0.74429 0.0
C126 C 0.87733 0.22377 0.76283 0.0
C127 C 0.88246 0.23722 0.74365 0.0
C128 C 0.86404 0.23757 0.7251 0.0
C129 C 0.84021 0.22363 0.72529 0.0
N130 N 0.8705 0.25182 0.70644 0.0
C131 C 0.85343 0.25881 0.69015 0.0
H132 H 0.57488 0.50003 0.5756 0.0
H133 H 0.5776 0.49891 0.49807 0.0
H134 H 0.52579 0.53947 0.53726 0.0
C135 C 0.56852 0.50605 0.55891 0.0
C136 C 0.54902 0.52072 0.55924 0.0
C137 C 0.57905 0.49806 0.53695 0.0
C138 C 0.56974 0.50482 0.51519 0.0
C139 C 0.55095 0.52 0.5153 0.0
C140 C 0.54062 0.52801 0.53732 0.0
N141 N 0.54227 0.5262 0.49278 0.0
C142 C 0.53607 0.54946 0.4903 0.0
H143 H 0.5761 0.53 0.95828 0.0
H144 H 0.57893 0.49987 0.02579 0.0
H145 H 0.50972 0.49098 0.98171 0.0
C146 C 0.56711 0.51958 0.97133 0.0
C147 C 0.54153 0.51027 0.96701 0.0
C148 C 0.581 0.51604 0.99243 0.0
C149 C 0.56878 0.50259 0.00929 0.0
C150 C 0.54305 0.49356 0.00531 0.0
C151 C 0.52964 0.49758 0.98434 0.0
N152 N 0.52949 0.48267 0.02318 0.0
C153 C 0.53658 0.4637 0.03483 0.0
H154 H 0.76976 0.19589 0.32024 0.0
H155 H 0.70377 0.2169 0.28656 0.0
H156 H 0.73698 0.1555 0.25125 0.0
C157 C 0.7554 0.19315 0.30536 0.0
C158 C 0.75596 0.17409 0.28558 0.0
C159 C 0.73673 0.20886 0.30596 0.0
C160 C 0.71811 0.20489 0.28648 0.0
C161 C 0.71818 0.18552 0.26679 0.0
C162 C 0.73707 0.17034 0.26652 0.0
N163 N 0.69963 0.18051 0.24691 0.0
C164 C 0.68155 0.19542 0.24244 0.0
H165 H 0.44162 0.0315 0.01488 0.0
H166 H 0.49412 0.04853 0.96165 0.0
H167 H 0.44435 0.97941 0.94941 0.0
C168 C 0.44971 0.02633 0.99771 0.0
C169 C 0.44079 0.00325 0.98332 0.0
C170 C 0.46889 0.04288 0.99007 0.0
C171 C 0.47933 0.03599 0.96768 0.0
C172 C 0.47054 0.01285 0.95318 0.0
C173 C 0.45128 0.99691 0.96103 0.0
N174 N 0.48001 0.00476 0.93038 0.0
C175 C 0.50125 0.01574 0.92086 0.0
Mg176 Mg 0.24069 0.85345 0.01974 0.0
O177 O 0.27892 0.87812 0.01936 0.0
O178 O 0.30833 0.85324 0.02075 0.0
Mg179 Mg 0.28989 0.81342 0.02098 0.0
C180 C 0.30188 0.87465 0.01995 0.0
C181 C 0.21909 0.90281 0.02937 0.0
O182 O 0.2333 0.90335 0.04941 0.0
O183 O 0.24227 0.83759 0.97909 0.0
O184 O 0.2715 0.81285 0.98271 0.0
O185 O 0.24393 0.85787 0.06083 0.0
O186 O 0.25758 0.82771 0.03679 0.0
C187 C 0.25567 0.82161 0.9697 0.0
C188 C 0.25523 0.83844 0.05857 0.0
O189 O 0.21924 0.88505 0.01181 0.0
Mg190 Mg 0.17513 0.52853 0.26764 0.0
O191 O 0.14817 0.5205 0.23269 0.0
O192 O 0.17228 0.51685 0.2011 0.0
Mg193 Mg 0.21357 0.5253 0.21494 0.0
C194 C 0.1508 0.51637 0.20973 0.0
C195 C 0.14096 0.53636 0.30988 0.0
O196 O 0.15766 0.55649 0.31363 0.0
O197 O 0.18467 0.48832 0.26233 0.0
O198 O 0.21021 0.48953 0.23193 0.0
O199 O 0.17752 0.56961 0.26747 0.0
O200 O 0.20306 0.5462 0.24887 0.0
C201 C 0.19956 0.47821 0.24799 0.0
C202 C 0.19615 0.5678 0.25389 0.0
O203 O 0.14266 0.51973 0.29165 0.0
Mg204 Mg 0.79433 0.66805 0.0319 0.0
O205 O 0.75772 0.63987 0.02373 0.0
O206 O 0.72715 0.6627 0.01808 0.0
Mg207 Mg 0.74275 0.70405 0.025 0.0
C208 C 0.73473 0.64175 0.0187 0.0
C209 C 0.84073 0.6432 0.03707 0.0
O210 O 0.84653 0.66571 0.04956 0.0
O211 O 0.79453 0.67456 0.99173 0.0
O212 O 0.76417 0.69836 0.99032 0.0
O213 O 0.78928 0.67222 0.07197 0.0
O214 O 0.77414 0.69566 0.04753 0.0
C215 C 0.7815 0.68766 0.98032 0.0
C216 C 0.77629 0.68988 0.06913 0.0
O217 O 0.81909 0.63719 0.02594 0.0
Mg218 Mg 0.94292 0.04528 0.2678 0.0
O219 O 0.91887 0.00712 0.25556 0.0
O220 O 0.94493 0.9793 0.24626 0.0
Mg221 Mg 0.98514 0.99915 0.25202 0.0
C222 C 0.92287 0.98486 0.24841 0.0
C223 C 0.9072 0.08342 0.27449 0.0
O224 O 0.92573 0.09312 0.26288 0.0
O225 O 0.95323 0.03337 0.30476 0.0
O226 O 0.97973 0.00657 0.2932 0.0
O227 O 0.94313 0.05207 0.22907 0.0
O228 O 0.9717 0.03401 0.24659 0.0
C229 C 0.96821 0.01829 0.30974 0.0
C230 C 0.96275 0.04096 0.22718 0.0
O231 O 0.90841 0.06233 0.28104 0.0
Mg232 Mg 0.30251 0.17066 0.51817 0.0
O233 O 0.26265 0.14792 0.51403 0.0
O234 O 0.23627 0.17609 0.51503 0.0
Mg235 Mg 0.25763 0.21522 0.51863 0.0
C236 C 0.24042 0.15359 0.51362 0.0
C237 C 0.32108 0.11999 0.52279 0.0
O238 O 0.30819 0.123 0.54219 0.0
O239 O 0.2993 0.17758 0.47828 0.0
O240 O 0.27275 0.20562 0.48093 0.0
O241 O 0.30203 0.1754 0.55908 0.0
O242 O 0.28887 0.20164 0.53667 0.0
C243 C 0.2869 0.19239 0.46863 0.0
C244 C 0.29173 0.19517 0.55788 0.0
O245 O 0.32102 0.13564 0.50803 0.0
Mg246 Mg 0.44675 0.55771 0.75905 0.0
O247 O 0.42189 0.51994 0.74735 0.0
O248 O 0.44662 0.4912 0.73674 0.0
Mg249 Mg 0.48722 0.51016 0.74259 0.0
C250 C 0.42494 0.49751 0.73963 0.0
C251 C 0.41215 0.59707 0.76838 0.0
O252 O 0.43123 0.60793 0.75829 0.0
O253 O 0.45737 0.54601 0.79594 0.0
O254 O 0.4825 0.51796 0.78391 0.0
O255 O 0.44685 0.56445 0.72024 0.0
O256 O 0.47499 0.54573 0.73758 0.0
C257 C 0.4718 0.53038 0.80067 0.0
C258 C 0.46626 0.55302 0.71826 0.0
O259 O 0.41271 0.57505 0.77275 0.0
Mg260 Mg 0.74469 0.34453 0.52256 0.0
O261 O 0.78182 0.36932 0.51798 0.0
O262 O 0.81138 0.34442 0.51413 0.0
Mg263 Mg 0.79378 0.30439 0.51462 0.0
C264 C 0.80455 0.36591 0.5153 0.0
C265 C 0.7118 0.38496 0.53736 0.0
O266 O 0.7157 0.37588 0.55759 0.0
O267 O 0.74083 0.32976 0.48147 0.0
O268 O 0.77086 0.30516 0.47869 0.0
O269 O 0.75389 0.34832 0.56292 0.0
O270 O 0.76426 0.31837 0.53604 0.0
C271 C 0.75314 0.31459 0.46909 0.0
C272 C 0.76495 0.32885 0.55844 0.0
O273 O 0.72191 0.37628 0.51831 0.0
Mg274 Mg 0.68866 0.02826 0.78235 0.0
O275 O 0.6645 0.02061 0.74566 0.0
O276 O 0.69114 0.02005 0.71612 0.0
Mg277 Mg 0.73138 0.02681 0.73286 0.0
C278 C 0.66889 0.01839 0.72305 0.0
C279 C 0.63875 0.03443 0.80651 0.0
O280 O 0.64222 0.05405 0.79547 0.0
O281 O 0.69798 0.98813 0.77693 0.0
O282 O 0.72533 0.98998 0.74812 0.0
O283 O 0.69128 0.06945 0.78268 0.0
O284 O 0.7183 0.04662 0.76599 0.0
C285 C 0.71335 0.97817 0.76309 0.0
C286 C 0.71083 0.06802 0.77034 0.0
O287 O 0.65415 0.01876 0.80375 0.0
Mg288 Mg 0.07107 0.24703 0.9182 0.0
O289 O 0.03352 0.23687 0.89536 0.0
O290 O 1.0037 0.22506 0.91938 0.0
Mg291 Mg 0.02206 0.22886 0.95805 0.0
C292 C 0.01075 0.22915 0.89855 0.0
C293 C 0.1078 0.25585 0.87799 0.0
O294 O 0.11728 0.23847 0.88779 0.0
O295 O 0.05897 0.28396 0.93452 0.0
O296 O 0.02973 0.27123 0.95882 0.0
O297 O 0.07751 0.20721 0.91198 0.0
O298 O 0.05827 0.22403 0.94302 0.0
C299 C 0.04272 0.28852 0.94991 0.0
C300 C 0.06549 0.20454 0.93122 0.0
O301 O 0.08849 0.2638 0.88657 0.0
Mg302 Mg 0.5472 0.7624 0.43309 0.0
O303 O 0.51163 0.7511 0.40747 0.0
O304 O 0.48049 0.73611 0.42854 0.0
Mg305 Mg 0.49587 0.73933 0.46825 0.0
C306 C 0.48891 0.74167 0.40868 0.0
C307 C 0.56948 0.76671 0.38346 0.0
O308 O 0.55878 0.74342 0.38022 0.0
O309 O 0.53192 0.79777 0.44914 0.0
O310 O 0.50178 0.78211 0.47102 0.0
O311 O 0.55637 0.72373 0.42639 0.0
O312 O 0.53366 0.73739 0.45607 0.0
C313 C 0.51446 0.8006 0.46359 0.0
C314 C 0.54296 0.71915 0.44428 0.0
O315 O 0.56711 0.78065 0.40346 0.0
Mg316 Mg 0.98791 0.75234 0.61801 0.0
O317 O 0.02525 0.74993 0.63952 0.0
O318 O 0.05269 0.74283 0.61137 0.0
Mg319 Mg 0.03383 0.73941 0.57296 0.0
C320 C 0.04725 0.74642 0.63364 0.0
C321 C 0.94772 0.75627 0.65347 0.0
O322 O 0.93846 0.73986 0.63437 0.0
O323 O 1.003 0.79126 0.60921 0.0
O324 O 0.0286 0.78061 0.58025 0.0
O325 O 0.97695 0.71111 0.61487 0.0
O326 O 0.99772 0.72882 0.58749 0.0
C327 C 0.018 0.79697 0.5931 0.0
C328 C 0.98806 0.7087 0.59473 0.0
O329 O 0.96998 0.7673 0.65317 0.0
Mg330 Mg 0.49344 0.25557 0.11832 0.0
O331 O 0.52947 0.25132 0.14109 0.0
O332 O 0.55763 0.24387 0.11373 0.0
Mg333 Mg 0.54036 0.24145 0.07483 0.0
C334 C 0.55149 0.24722 0.13579 0.0
C335 C 0.47081 0.26025 0.1698 0.0
O336 O 0.47998 0.23926 0.16968 0.0
O337 O 0.51102 0.29395 0.11055 0.0
O338 O 0.53697 0.28323 0.08199 0.0
O339 O 0.48024 0.21463 0.11455 0.0
O340 O 0.5035 0.2317 0.08838 0.0
C341 C 0.52665 0.2997 0.09502 0.0
C342 C 0.4924 0.21183 0.09506 0.0
O343 O 0.47479 0.27234 0.15216 0.0
H344 H 0.23937 0.70479 0.85173 0.0
H345 H 0.22607 0.76382 0.81142 0.0
H346 H 0.24246 0.73369 0.88988 0.0
H347 H 0.22883 0.79293 0.85011 0.0
H348 H 0.21587 0.82301 0.93677 0.0
H349 H 0.20755 0.79886 0.89537 0.0
H350 H 0.27864 0.77207 0.90222 0.0
H351 H 0.28711 0.79595 0.94291 0.0
C352 C 0.23681 0.72391 0.85106 0.0
C353 C 0.23299 0.73217 0.82857 0.0
C354 C 0.23853 0.74042 0.8729 0.0
C355 C 0.23631 0.76557 0.87284 0.0
C356 C 0.23065 0.7736 0.85056 0.0
C357 C 0.22904 0.75697 0.82851 0.0
C358 C 0.22991 0.81238 0.92918 0.0
C359 C 0.25196 0.81107 0.94333 0.0
C360 C 0.22512 0.79858 0.90556 0.0
C361 C 0.24226 0.78328 0.89592 0.0
C362 C 0.26492 0.78335 0.90944 0.0
C363 C 0.26974 0.79709 0.93277 0.0
H364 H 0.02748 0.48476 0.40455 0.0
H365 H 0.01562 0.55988 0.39926 0.0
H366 H 0.06354 0.48924 0.37979 0.0
H367 H 0.0516 0.5645 0.37422 0.0
H368 H 0.13101 0.57035 0.34798 0.0
H369 H 0.09737 0.5665 0.37534 0.0
H370 H 0.07051 0.49264 0.33693 0.0
H371 H 0.10442 0.49636 0.30961 0.0
C372 C 0.03293 0.50237 0.39834 0.0
C373 C 0.01914 0.52208 0.40389 0.0
C374 C 0.05336 0.50486 0.38396 0.0
C375 C 0.06036 0.52715 0.37485 0.0
C376 C 0.04686 0.54716 0.38111 0.0
C377 C 0.02632 0.54458 0.39544 0.0
C378 C 0.11799 0.55323 0.34535 0.0
C379 C 0.12045 0.53364 0.32655 0.0
C380 C 0.0986 0.5511 0.361 0.0
C381 C 0.08122 0.52928 0.35836 0.0
C382 C 0.08375 0.5096 0.33966 0.0
C383 C 0.1031 0.51178 0.32389 0.0
H384 H 0.77427 0.71867 0.83107 0.0
H385 H 0.84694 0.75465 0.86275 0.0
H386 H 0.76835 0.69762 0.86647 0.0
H387 H 0.8409 0.73382 0.89863 0.0
H388 H 0.82476 0.6828 0.95673 0.0
H389 H 0.83438 0.69446 0.91681 0.0
H390 H 0.76019 0.71435 0.90777 0.0
H391 H 0.75061 0.70264 0.94703 0.0
C392 C 0.78913 0.72181 0.84553 0.0
C393 C 0.8109 0.73858 0.84434 0.0
C394 C 0.78572 0.70982 0.86586 0.0
C395 C 0.80393 0.71439 0.88564 0.0
C396 C 0.82652 0.72982 0.8837 0.0
C397 C 0.83 0.74177 0.86319 0.0
C398 C 0.81042 0.68928 0.94598 0.0
C399 C 0.78694 0.69185 0.95514 0.0
C400 C 0.816 0.69613 0.92322 0.0
C401 C 0.79805 0.7053 0.90904 0.0
C402 C 0.77436 0.70703 0.91795 0.0
C403 C 0.76892 0.70046 0.94064 0.0
H404 H 0.03303 0.04879 0.45611 0.0
H405 H 0.01663 0.96872 0.44578 0.0
H406 H 0.00963 0.04936 0.41762 0.0
H407 H 0.99259 0.96922 0.40712 0.0
H408 H 0.99187 0.9821 0.32558 0.0
H409 H 0.00487 0.97831 0.36721 0.0
H410 H 0.96922 0.0418 0.39416 0.0
H411 H 0.95641 0.04589 0.35217 0.0
C412 C 0.02406 0.03129 0.44569 0.0
C413 C 0.02697 0.00867 0.45373 0.0
C414 C 0.0104 0.03164 0.42374 0.0
C415 C 0.99932 0.00934 0.40915 0.0
C416 C 1.00115 0.98672 0.4178 0.0
C417 C 0.01474 0.9864 0.43997 0.0
C418 C 0.98653 0.99516 0.34034 0.0
C419 C 0.97337 0.01455 0.33543 0.0
C420 C 0.9938 0.99279 0.3643 0.0
C421 C 0.98821 0.00979 0.38408 0.0
C422 C 0.97407 0.02855 0.37931 0.0
C423 C 0.96664 0.03084 0.35525 0.0
H424 H 0.29583 0.28938 0.69656 0.0
H425 H 0.2231 0.29485 0.66354 0.0
H426 H 0.30107 0.25632 0.66335 0.0
H427 H 0.22818 0.26154 0.63051 0.0
H428 H 0.29667 0.18712 0.60539 0.0
H429 H 0.28533 0.21295 0.6419 0.0
H430 H 0.25682 0.26192 0.59664 0.0
H431 H 0.26829 0.23651 0.56044 0.0
C432 C 0.28076 0.28315 0.68246 0.0
C433 C 0.25914 0.29484 0.68255 0.0
C434 C 0.28369 0.26411 0.66353 0.0
C435 C 0.26514 0.25651 0.64419 0.0
C436 C 0.24291 0.26721 0.64503 0.0
C437 C 0.23989 0.28611 0.66407 0.0
C438 C 0.28774 0.20326 0.60323 0.0
C439 C 0.2833 0.20966 0.57992 0.0
C440 C 0.28131 0.21806 0.62414 0.0
C441 C 0.27005 0.23939 0.62213 0.0
C442 C 0.26505 0.24537 0.59878 0.0
C443 C 0.27171 0.23078 0.57797 0.0
H444 H 0.49892 0.51883 0.56535 0.0
H445 H 0.57137 0.53721 0.60524 0.0
H446 H 0.47866 0.5268 0.60344 0.0
H447 H 0.55118 0.54551 0.64333 0.0
H448 H 0.50767 0.53046 0.70888 0.0
H449 H 0.52717 0.52335 0.6704 0.0
H450 H 0.47125 0.5587 0.6358 0.0
H451 H 0.45121 0.56506 0.67421 0.0
C452 C 0.51053 0.52497 0.58222 0.0
C453 C 0.53677 0.52732 0.58227 0.0
C454 C 0.49891 0.52953 0.60409 0.0
C455 C 0.51325 0.53664 0.62653 0.0
C456 C 0.53951 0.53955 0.62647 0.0
C457 C 0.55112 0.53489 0.60463 0.0
C458 C 0.49935 0.5365 0.69304 0.0
C459 C 0.47775 0.54816 0.69463 0.0
C460 C 0.51073 0.53268 0.67098 0.0
C461 C 0.5009 0.54056 0.64996 0.0
C462 C 0.47919 0.55213 0.65153 0.0
C463 C 0.46775 0.55587 0.6736 0.0
H464 H 0.82069 0.23279 0.65401 0.0
H465 H 0.85331 0.30692 0.687 0.0
H466 H 0.79807 0.24989 0.62246 0.0
H467 H 0.83132 0.32418 0.65536 0.0
H468 H 0.77084 0.34793 0.60711 0.0
H469 H 0.79039 0.33053 0.63999 0.0
H470 H 0.80787 0.27007 0.58742 0.0
H471 H 0.78774 0.28706 0.5547 0.0
C472 C 0.82279 0.25276 0.65451 0.0
C473 C 0.83848 0.26867 0.67275 0.0
C474 C 0.81008 0.26256 0.63642 0.0
C475 C 0.81298 0.28843 0.6363 0.0
C476 C 0.8284 0.30424 0.65504 0.0
C477 C 0.84105 0.29441 0.67309 0.0
C478 C 0.77893 0.33097 0.60257 0.0
C479 C 0.77789 0.31899 0.57825 0.0
C480 C 0.79019 0.32102 0.62141 0.0
C481 C 0.80065 0.29886 0.61636 0.0
C482 C 0.79967 0.28696 0.59201 0.0
C483 C 0.78839 0.29688 0.57319 0.0
H484 H 0.57022 0.03448 0.6002 0.0
H485 H 0.53367 0.9689 0.62511 0.0
H486 H 0.60272 0.03952 0.63346 0.0
H487 H 0.56647 0.97379 0.65831 0.0
H488 H 0.61839 0.00813 0.7286 0.0
H489 H 0.58394 0.00336 0.69702 0.0
H490 H 0.63722 0.01567 0.64318 0.0
H491 H 0.67147 0.02043 0.67439 0.0
C492 C 0.56901 0.02128 0.61293 0.0
C493 C 0.54941 1.00128 0.61002 0.0
C494 C 0.58774 0.02404 0.63184 0.0
C495 C 0.58721 0.00697 0.64842 0.0
C496 C 0.5673 0.98729 0.64589 0.0
C497 C 0.54866 0.98439 0.62679 0.0
C498 C 0.62274 0.00976 0.71001 0.0
C499 C 0.64774 0.0147 0.70409 0.0
C500 C 0.60302 0.00694 0.69194 0.0
C501 C 0.6079 0.00932 0.66768 0.0
C502 C 0.63285 0.01408 0.66177 0.0
C503 C 0.6525 0.01664 0.6797 0.0
H504 H 0.92594 0.21668 0.75762 0.0
H505 H 0.87303 0.23006 0.81208 0.0
H506 H 0.95829 0.216 0.78974 0.0
H507 H 0.90543 0.23005 0.84429 0.0
H508 H 0.96208 0.20672 0.89571 0.0
H509 H 0.93013 0.20391 0.86247 0.0
H510 H 0.98401 0.24292 0.82153 0.0
H511 H 0.01613 0.24495 0.85438 0.0
C512 C 0.92133 0.2197 0.77651 0.0
C513 C 0.89701 0.22347 0.78238 0.0
C514 C 0.93985 0.21936 0.79492 0.0
C515 C 0.93452 0.22299 0.81965 0.0
C516 C 0.91012 0.22673 0.82546 0.0
C517 C 0.89156 0.22685 0.80702 0.0
C518 C 0.96716 0.21454 0.87954 0.0
C519 C 0.99167 0.22611 0.87776 0.0
C520 C 0.94877 0.21308 0.86053 0.0
C521 C 0.95439 0.22335 0.83935 0.0
C522 C 0.97905 0.23451 0.8374 0.0
C523 C 0.99748 0.23578 0.85632 0.0
H524 H 0.50789 0.96054 0.50463 0.0
H525 H 0.49478 0.9255 0.56836 0.0
H526 H 0.50639 0.91955 0.47965 0.0
H527 H 0.49373 0.88477 0.5437 0.0
H528 H 0.47686 0.8134 0.49191 0.0
H529 H 0.47057 0.8547 0.51095 0.0
H530 H 0.53412 0.88693 0.47646 0.0
H531 H 0.54028 0.84551 0.45699 0.0
C532 C 0.50418 0.94405 0.51317 0.0
C533 C 0.50151 0.94617 0.53843 0.0
C534 C 0.50361 0.92063 0.49895 0.0
C535 C 0.5001 0.8989 0.50969 0.0
C536 C 0.49623 0.90107 0.53475 0.0
C537 C 0.49698 0.92441 0.54894 0.0
C538 C 0.48941 0.82925 0.48814 0.0
C539 C 0.50931 0.82603 0.47313 0.0
C540 C 0.4858 0.85296 0.49914 0.0
C541 C 0.50198 0.8741 0.49545 0.0
C542 C 0.52119 0.87105 0.47954 0.0
C543 C 0.52482 0.84727 0.4685 0.0
H544 H 0.1714 0.35583 0.78344 0.0
H545 H 0.19235 0.28559 0.75208 0.0
H546 H 0.14837 0.33571 0.81356 0.0
H547 H 0.16873 0.26497 0.78189 0.0
H548 H 0.15091 0.24507 0.8578 0.0
H549 H 0.17143 0.26306 0.82517 0.0
H550 H 0.11187 0.3074 0.81856 0.0
H551 H 0.09166 0.28987 0.85167 0.0
C552 C 0.17073 0.33594 0.78291 0.0
C553 C 0.18345 0.32212 0.76563 0.0
C554 C 0.15744 0.32437 0.80003 0.0
C555 C 0.15661 0.29868 0.80016 0.0
C556 C 0.1692 0.28482 0.78249 0.0
C557 C 0.18256 0.2965 0.76534 0.0
C558 C 0.14213 0.25861 0.84935 0.0
C559 C 0.11972 0.26617 0.85749 0.0
C560 C 0.15383 0.26879 0.83048 0.0
C561 C 0.14337 0.28674 0.81923 0.0
C562 C 0.12067 0.29392 0.82706 0.0
C563 C 0.10901 0.28379 0.84599 0.0
H564 H 0.54487 0.59329 0.52085 0.0
H565 H 0.51915 0.55944 0.44715 0.0
H566 H 0.54344 0.63466 0.5096 0.0
H567 H 0.51737 0.60059 0.43578 0.0
H568 H 0.55479 0.67631 0.41895 0.0
H569 H 0.5497 0.63503 0.43065 0.0
H570 H 0.51555 0.66323 0.49581 0.0
H571 H 0.5209 0.70474 0.48422 0.0
C572 C 0.53842 0.59481 0.50239 0.0
C573 C 0.53204 0.57349 0.4848 0.0
C574 C 0.53753 0.61838 0.49593 0.0
C575 C 0.53044 0.62088 0.47174 0.0
C576 C 0.52321 0.59929 0.45446 0.0
C577 C 0.52403 0.57579 0.46096 0.0
C578 C 0.54602 0.6737 0.43568 0.0
C579 C 0.53826 0.6938 0.45065 0.0
C580 C 0.54295 0.64999 0.44231 0.0
C581 C 0.53218 0.64585 0.46415 0.0
C582 C 0.52408 0.66588 0.47897 0.0
C583 C 0.527 0.68961 0.47224 0.0
H584 H 0.85738 0.81067 0.77174 0.0
H585 H 0.85306 0.73147 0.77095 0.0
H586 H 0.88696 0.80827 0.73963 0.0
H587 H 0.88271 0.72924 0.73943 0.0
H588 H 0.90366 0.72934 0.66081 0.0
H589 H 0.87832 0.73449 0.69552 0.0
H590 H 0.93121 0.79751 0.72991 0.0
H591 H 0.95705 0.79228 0.69473 0.0
C592 C 0.86291 0.79283 0.76492 0.0
C593 C 0.85277 0.77126 0.77394 0.0
C594 C 0.88 0.7915 0.74668 0.0
C595 C 0.88704 0.76854 0.73687 0.0
C596 C 0.87748 0.74718 0.74643 0.0
C597 C 0.86064 0.74852 0.76472 0.0
C598 C 0.91004 0.74436 0.67568 0.0
C599 C 0.93251 0.76036 0.67494 0.0
C600 C 0.89551 0.7472 0.69571 0.0
C601 C 0.90284 0.76625 0.7156 0.0
C602 C 0.92507 0.78265 0.71482 0.0
C603 C 0.93989 0.77961 0.69475 0.0
H604 H 0.99661 0.93749 0.54574 0.0
H605 H 0.07675 0.94002 0.55137 0.0
H606 H 0.9916 0.89708 0.56009 0.0
H607 H 0.07205 0.9 0.56619 0.0
H608 H 0.05284 0.81617 0.56455 0.0
H609 H 0.05787 0.85678 0.55188 0.0
H610 H 0.99851 0.87771 0.59636 0.0
H611 H 0.99301 0.83646 0.60877 0.0
C612 C 0.01311 0.92921 0.54991 0.0
C613 C 0.03702 0.94147 0.54718 0.0
C614 C 0.01031 0.90627 0.55841 0.0
C615 C 0.03142 0.89524 0.56437 0.0
C616 C 0.05536 0.90771 0.56148 0.0
C617 C 0.0581 0.9306 0.55299 0.0
C618 C 0.04089 0.82939 0.57184 0.0
C619 C 0.02242 0.82289 0.58768 0.0
C620 C 0.04391 0.85284 0.56462 0.0
C621 C 0.02858 0.87059 0.573 0.0
C622 C 0.01043 0.86437 0.58928 0.0
C623 C 0.00743 0.84081 0.5966 0.0
H624 H 0.1352 0.68748 0.73848 0.0
H625 H 0.18752 0.74671 0.71944 0.0
H626 H 0.10109 0.70184 0.71614 0.0
H627 H 0.1535 0.76146 0.69735 0.0
H628 H 0.0975 0.74949 0.62909 0.0
H629 H 0.12979 0.74355 0.65879 0.0
H630 H 0.07471 0.73481 0.71173 0.0
H631 H 0.04202 0.74058 0.68168 0.0
C632 C 0.13917 0.70405 0.7301 0.0
C633 C 0.16378 0.71612 0.73064 0.0
C634 C 0.11969 0.71231 0.71735 0.0
C635 C 0.12459 0.73268 0.70475 0.0
C636 C 0.14914 0.74553 0.70657 0.0
C637 C 0.16857 0.73727 0.71936 0.0
C638 C 0.0922 0.74655 0.64712 0.0
C639 C 0.06707 0.74534 0.65289 0.0
C640 C 0.11083 0.74336 0.66427 0.0
C641 C 0.10489 0.73872 0.68769 0.0
C642 C 0.07987 0.73819 0.69379 0.0
C643 C 0.06117 0.74163 0.67661 0.0
H644 H 0.00732 0.57268 0.49459 0.0
H645 H 0.9297 0.5682 0.51111 0.0
H646 H 0.01655 0.61276 0.52185 0.0
H647 H 0.93908 0.60748 0.53854 0.0
H648 H 0.96738 0.66363 0.6049 0.0
H649 H 0.96342 0.62336 0.57872 0.0
H650 H 0.0053 0.65701 0.52501 0.0
H651 H 0.00927 0.69748 0.55122 0.0
C652 C 0.99224 0.58019 0.50392 0.0
C653 C 0.96783 0.56692 0.5009 0.0
C654 C 0.99756 0.6031 0.51958 0.0
C655 C 0.97862 0.61305 0.53266 0.0
C656 C 0.95422 0.60002 0.52924 0.0
C657 C 0.94887 0.5774 0.5135 0.0
C658 C 0.97604 0.66246 0.58767 0.0
C659 C 0.98851 0.68386 0.58012 0.0
C660 C 0.97367 0.63938 0.57261 0.0
C661 C 0.98381 0.63706 0.54968 0.0
C662 C 0.99737 0.65819 0.54262 0.0
C663 C 0.99959 0.68139 0.55763 0.0
H664 H 0.8207 0.8569 0.26764 0.0
H665 H 0.78367 0.88122 0.20658 0.0
H666 H 0.85544 0.89042 0.26832 0.0
H667 H 0.81854 0.91504 0.20735 0.0
H668 H 0.87277 0.9886 0.24302 0.0
H669 H 0.83758 0.95479 0.2384 0.0
H670 H 0.8893 0.90144 0.23923 0.0
H671 H 0.92441 0.93493 0.24363 0.0
C672 C 0.82001 0.8695 0.25442 0.0
C673 C 0.79953 0.86658 0.23711 0.0
C674 C 0.83993 0.88854 0.25469 0.0
C675 C 0.83965 0.90526 0.23786 0.0
C676 C 0.81912 0.90244 0.22058 0.0
C677 C 0.79932 0.88308 0.22005 0.0
C678 C 0.87664 0.96964 0.242 0.0
C679 C 0.90142 0.9645 0.24382 0.0
C680 C 0.8565 0.95032 0.23924 0.0
C681 C 0.86079 0.92557 0.23862 0.0
C682 C 0.88551 0.92039 0.23989 0.0
C683 C 0.90559 0.9396 0.2423 0.0
H684 H 0.78248 0.16104 0.24628 0.0
H685 H 0.7769 0.1529 0.32212 0.0
H686 H 0.81813 0.13811 0.24449 0.0
H687 H 0.81304 0.13026 0.32043 0.0
H688 H 0.86472 0.06954 0.29762 0.0
H689 H 0.82724 0.09029 0.30079 0.0
H690 H 0.86189 0.14703 0.26221 0.0
H691 H 0.89896 0.12654 0.25899 0.0
C692 C 0.78871 0.15413 0.26252 0.0
C693 C 0.77685 0.15886 0.28435 0.0
C694 C 0.80931 0.1412 0.26157 0.0
C695 C 0.81856 0.13253 0.28238 0.0
C696 C 0.80631 0.13662 0.30407 0.0
C697 C 0.78577 0.14976 0.30508 0.0
C698 C 0.86434 0.08651 0.28995 0.0
C699 C 0.88483 0.09628 0.27796 0.0
C700 C 0.84291 0.09842 0.29181 0.0
C701 C 0.84149 0.12016 0.2815 0.0
C702 C 0.86217 0.13008 0.26995 0.0
C703 C 0.88354 0.11836 0.26826 0.0
H704 H 0.39791 0.01367 0.00501 0.0
H705 H 0.43792 0.95281 0.9798 0.0
H706 H 0.36444 0.98424 0.01693 0.0
H707 H 0.40417 0.92349 0.99055 0.0
H708 H 0.35204 0.877 0.03066 0.0
H709 H 0.3854 0.90932 0.02466 0.0
H710 H 0.3307 0.95199 0.99903 0.0
H711 H 0.29708 0.91981 0.00579 0.0
C712 C 0.39964 0.99405 1.00212 0.0
C713 C 0.4206 0.98562 0.99136 0.0
C714 C 0.38031 0.97715 0.00869 0.0
C715 C 0.38155 0.95145 0.00474 0.0
C716 C 0.40267 0.94314 0.99423 0.0
C717 C 0.42193 0.95997 0.98773 0.0
C718 C 0.34704 0.89335 0.02393 0.0
C719 C 0.32185 0.89565 0.01845 0.0
C720 C 0.36624 0.91187 0.02035 0.0
C721 C 0.36083 0.93312 0.01096 0.0
C722 C 0.33558 0.93595 0.00642 0.0
C723 C 0.31628 0.91745 0.0102 0.0
H724 H 0.24795 0.33068 0.23412 0.0
H725 H 0.26561 0.36362 0.30952 0.0
H726 H 0.23013 0.3677 0.22619 0.0
H727 H 0.24821 0.4009 0.30175 0.0
H728 H 0.19116 0.45186 0.28606 0.0
H729 H 0.20758 0.41378 0.29265 0.0
H730 H 0.24156 0.41132 0.22371 0.0
H731 H 0.22488 0.44884 0.21691 0.0
C732 C 0.24849 0.34616 0.24882 0.0
C733 C 0.25843 0.34466 0.27228 0.0
C734 C 0.23822 0.36731 0.24437 0.0
C735 C 0.23755 0.38727 0.26338 0.0
C736 C 0.24803 0.38576 0.28679 0.0
C737 C 0.25833 0.36463 0.29118 0.0
C738 C 0.2018 0.44298 0.27215 0.0
C739 C 0.20672 0.45354 0.251 0.0
C740 C 0.21147 0.4213 0.27604 0.0
C741 C 0.22613 0.40959 0.25881 0.0
C742 C 0.23024 0.41969 0.2373 0.0
C743 C 0.22071 0.44134 0.23346 0.0
H744 H 0.13007 0.02183 0.52005 0.0
H745 H 0.0922 0.0711 0.48213 0.0
H746 H 0.16864 0.05166 0.52424 0.0
H747 H 0.13063 0.09995 0.48518 0.0
H748 H 0.19186 0.15993 0.51936 0.0
H749 H 0.15546 0.12857 0.51649 0.0
H750 H 0.20197 0.0708 0.50115 0.0
H751 H 0.23902 0.10255 0.5047 0.0
C752 C 0.12997 0.03892 0.51254 0.0
C753 C 0.108 0.04398 0.50069 0.0
C754 C 0.15214 0.05588 0.51469 0.0
C755 C 0.15273 0.07828 0.50516 0.0
C756 C 0.13082 0.08309 0.49309 0.0
C757 C 0.10878 0.0663 0.49102 0.0
C758 C 0.19451 0.14059 0.51533 0.0
C759 C 0.21846 0.13384 0.512 0.0
C760 C 0.1735 0.12253 0.51357 0.0
C761 C 0.17567 0.09713 0.50824 0.0
C762 C 0.19965 0.09022 0.50538 0.0
C763 C 0.22086 0.10841 0.50727 0.0
H764 H 0.80426 0.20662 0.78156 0.0
H765 H 0.81177 0.17515 0.70671 0.0
H766 H 0.7698 0.17374 0.78408 0.0
H767 H 0.77705 0.14226 0.7091 0.0
H768 H 0.70127 0.11614 0.77917 0.0
H769 H 0.72654 0.15313 0.76905 0.0
H770 H 0.77632 0.10683 0.73266 0.0
H771 H 0.75141 0.07012 0.74285 0.0
C772 C 0.79809 0.19298 0.76547 0.0
C773 C 0.8108 0.19327 0.74402 0.0
C774 C 0.77826 0.17424 0.76684 0.0
C775 C 0.77088 0.15527 0.74686 0.0
C776 C 0.78252 0.1565 0.72487 0.0
C777 C 0.80223 0.17542 0.72343 0.0
C778 C 0.71739 0.11384 0.76869 0.0
C779 C 0.72433 0.09013 0.76187 0.0
C780 C 0.73186 0.13502 0.76294 0.0
C781 C 0.75339 0.13289 0.75003 0.0
C782 C 0.75963 0.10909 0.74229 0.0
C783 C 0.74536 0.08799 0.74824 0.0
H784 H 0.42261 0.01359 0.54944 0.0
H785 H 0.46378 0.07239 0.51808 0.0
H786 H 0.38329 0.02856 0.53896 0.0
H787 H 0.42494 0.088 0.50825 0.0
H788 H 0.35209 0.10966 0.48606 0.0
H789 H 0.38552 0.08386 0.48592 0.0
H790 H 0.36413 0.06339 0.555 0.0
H791 H 0.33036 0.08837 0.55469 0.0
C792 C 0.42308 0.02939 0.53979 0.0
C793 C 0.44597 0.04183 0.53436 0.0
C794 C 0.40066 0.03815 0.534 0.0
C795 C 0.40085 0.05968 0.52293 0.0
C796 C 0.42388 0.07121 0.51642 0.0
C797 C 0.4462 0.06236 0.52211 0.0
C798 C 0.35423 0.09924 0.50096 0.0
C799 C 0.33872 0.10137 0.52054 0.0
C800 C 0.37351 0.08455 0.50097 0.0
C801 C 0.37784 0.07174 0.52061 0.0
C802 C 0.36132 0.07272 0.53942 0.0
C803 C 0.34198 0.08726 0.53934 0.0
H804 H 0.6201 0.5038 0.56935 0.0
H805 H 0.58467 0.45737 0.50371 0.0
H806 H 0.65394 0.47847 0.56875 0.0
H807 H 0.61843 0.43201 0.50313 0.0
H808 H 0.69376 0.40361 0.49767 0.0
H809 H 0.66301 0.43247 0.49713 0.0
H810 H 0.6598 0.43699 0.57528 0.0
H811 H 0.69064 0.40872 0.57591 0.0
C812 C 0.61945 0.48808 0.55489 0.0
C813 C 0.59965 0.48257 0.53663 0.0
C814 C 0.63887 0.4736 0.5545 0.0
C815 C 0.63893 0.45321 0.53586 0.0
C816 C 0.61921 0.44783 0.5175 0.0
C817 C 0.59981 0.46232 0.51788 0.0
C818 C 0.68665 0.41098 0.51474 0.0
C819 C 0.69457 0.40376 0.5368 0.0
C820 C 0.66892 0.42738 0.51442 0.0
C821 C 0.65886 0.43697 0.53616 0.0
C822 C 0.66733 0.43021 0.55825 0.0
C823 C 0.68493 0.41382 0.55856 0.0
H824 H 0.69659 0.22504 0.32898 0.0
H825 H 0.77731 0.23903 0.33085 0.0
H826 H 0.69746 0.25599 0.36547 0.0
H827 H 0.77836 0.26821 0.36817 0.0
H828 H 0.77842 0.32708 0.43079 0.0
H829 H 0.77171 0.3063 0.38842 0.0
H830 H 0.7069 0.25961 0.40742 0.0
H831 H 0.71296 0.28171 0.44925 0.0
C832 C 0.71452 0.23481 0.33703 0.0
C833 C 0.7369 0.22918 0.32709 0.0
C834 C 0.71505 0.25237 0.3582 0.0
C835 C 0.73798 0.26458 0.37012 0.0
C836 C 0.76026 0.25959 0.35955 0.0
C837 C 0.7597 0.24236 0.33826 0.0
C838 C 0.76229 0.31294 0.42553 0.0
C839 C 0.74606 0.30604 0.443 0.0
C840 C 0.75859 0.30073 0.40137 0.0
C841 C 0.73903 0.28081 0.39441 0.0
C842 C 0.722 0.27496 0.41182 0.0
C843 C 0.72544 0.28756 0.43586 0.0
H844 H 0.49998 0.03651 0.88003 0.0
H845 H 0.54906 0.00826 0.92937 0.0
H846 H 0.53342 0.04126 0.85232 0.0
H847 H 0.58297 0.01348 0.90204 0.0
H848 H 0.62647 0.99719 0.83373 0.0
H849 H 0.59389 0.9945 0.86256 0.0
H850 H 0.5731 0.06411 0.84697 0.0
H851 H 0.60507 0.06646 0.81783 0.0
C852 C 0.51822 0.03195 0.88517 0.0
C853 C 0.52222 0.02238 0.90684 0.0
C854 C 0.53739 0.03461 0.86933 0.0
C855 C 0.56094 0.02764 0.87484 0.0
C856 C 0.565 0.01868 0.89701 0.0
C857 C 0.54576 0.01601 0.91283 0.0
C858 C 0.61484 0.01183 0.83637 0.0
C859 C 0.61838 0.03198 0.82337 0.0
C860 C 0.5963 0.01043 0.85309 0.0
C861 C 0.58087 0.02916 0.85723 0.0
C862 C 0.58438 0.0492 0.84409 0.0
C863 C 0.60283 0.05057 0.82739 0.0
H864 H 0.27035 0.22562 0.32035 0.0
H865 H 0.34484 0.25912 0.34922 0.0
H866 H 0.26561 0.20404 0.35554 0.0
H867 H 0.34011 0.23738 0.38452 0.0
H868 H 0.32675 0.18461 0.4409 0.0
H869 H 0.3335 0.19643 0.40051 0.0
H870 H 0.26077 0.22073 0.39848 0.0
H871 H 0.25408 0.20902 0.43841 0.0
C872 C 0.28582 0.2282 0.33412 0.0
C873 C 0.3078 0.24446 0.33221 0.0
C874 C 0.28311 0.21579 0.35426 0.0
C875 C 0.30234 0.21926 0.37301 0.0
C876 C 0.32499 0.2342 0.37033 0.0
C877 C 0.3277 0.24668 0.35012 0.0
C878 C 0.31205 0.19203 0.43156 0.0
C879 C 0.28992 0.19597 0.4429 0.0
C880 C 0.316 0.19897 0.40855 0.0
C881 C 0.2977 0.20956 0.39629 0.0
C882 C 0.27515 0.21239 0.40723 0.0
C883 C 0.27137 0.2058 0.43024 0.0
H884 H 0.54256 0.55266 0.94628 0.0
H885 H 0.50848 0.47582 0.93651 0.0
H886 H 0.52202 0.55735 0.9073 0.0
H887 H 0.48758 0.48063 0.89775 0.0
H888 H 0.48983 0.49097 0.81617 0.0
H889 H 0.50326 0.48647 0.85755 0.0
H890 H 0.48031 0.55714 0.8849 0.0
H891 H 0.46679 0.56177 0.84314 0.0
C892 C 0.53054 0.53683 0.93588 0.0
C893 C 0.52735 0.51379 0.94437 0.0
C894 C 0.51855 0.53959 0.91369 0.0
C895 C 0.50324 0.51934 0.89939 0.0
C896 C 0.49943 0.49653 0.90825 0.0
C897 C 0.51126 0.49382 0.93053 0.0
C898 C 0.48738 0.5055 0.83098 0.0
C899 C 0.47737 0.52683 0.82629 0.0
C900 C 0.49494 0.5028 0.85476 0.0
C901 C 0.49291 0.52146 0.87452 0.0
C902 C 0.48228 0.54253 0.87 0.0
C903 C 0.4744 0.54511 0.84613 0.0
H904 H 0.74314 0.75867 0.21399 0.0
H905 H 0.74764 0.81569 0.16789 0.0
H906 H 0.7424 0.72706 0.1781 0.0
H907 H 0.74873 0.78445 0.13231 0.0
H908 H 0.74406 0.72447 0.06865 0.0
H909 H 0.73067 0.75052 0.10359 0.0
H910 H 0.7725 0.71376 0.15228 0.0
H911 H 0.78472 0.68699 0.1174 0.0
C912 C 0.74349 0.76446 0.19618 0.0
C913 C 0.74584 0.78982 0.19393 0.0
C914 C 0.74349 0.74633 0.17557 0.0
C915 C 0.74607 0.75311 0.15222 0.0
C916 C 0.74662 0.77833 0.14984 0.0
C917 C 0.74631 0.79638 0.17038 0.0
C918 C 0.74998 0.72162 0.08681 0.0
C919 C 0.76559 0.70372 0.09019 0.0
C920 C 0.74245 0.73673 0.10692 0.0
C921 C 0.75068 0.73457 0.13092 0.0
C922 C 0.76541 0.71587 0.13421 0.0
C923 C 0.77263 0.70056 0.11412 0.0
H924 H 0.06348 0.03019 0.10951 0.0
H925 H 0.99026 1.001 0.0741 0.0
H926 H 0.0451 0.03652 0.14888 0.0
H927 H 0.97195 0.00745 0.11332 0.0
H928 H 0.94488 0.0491 0.18258 0.0
H929 H 0.96366 0.04174 0.14363 0.0
H930 H 0.02458 0.01361 0.1789 0.0
H931 H 0.00602 0.02142 0.218 0.0
C932 C 0.04351 0.02493 0.11013 0.0
C933 C 0.02835 0.01524 0.08858 0.0
C934 C 0.03297 0.02855 0.1327 0.0
C935 C 0.00702 0.0226 0.13425 0.0
C936 C 0.99193 0.01266 0.11274 0.0
C937 C 1.00245 0.00899 0.09022 0.0
C938 C 0.96224 0.04128 0.18204 0.0
C939 C 0.97387 0.03574 0.2034 0.0
C940 C 0.97295 0.03694 0.15966 0.0
C941 C 0.99561 0.02702 0.15811 0.0
C942 C 0.00725 0.02148 0.17949 0.0
C943 C 0.99648 0.02575 0.20188 0.0
H944 H 0.34485 0.77359 0.15953 0.0
H945 H 0.28555 0.7974 0.20224 0.0
H946 H 0.32625 0.78761 0.12387 0.0
H947 H 0.26635 0.81103 0.16645 0.0
H948 H 0.2585 0.86004 0.10662 0.0
H949 H 0.27509 0.84396 0.14192 0.0
H950 H 0.29077 0.77899 0.09429 0.0
H951 H 0.27468 0.79522 0.05912 0.0
C952 C 0.3275 0.7814 0.16102 0.0
C953 C 0.31639 0.78433 0.1833 0.0
C954 C 0.31681 0.7894 0.14067 0.0
C955 C 0.29483 0.80052 0.14231 0.0
C956 C 0.28346 0.80286 0.16466 0.0
C957 C 0.29422 0.79486 0.18503 0.0
C958 C 0.26556 0.84236 0.10372 0.0
C959 C 0.26553 0.82905 0.08005 0.0
C960 C 0.27487 0.83304 0.12395 0.0
C961 C 0.28427 0.81017 0.12094 0.0
C962 C 0.28404 0.79683 0.09725 0.0
C963 C 0.2748 0.80616 0.07706 0.0
H964 H 0.04916 0.53303 0.09157 0.0
H965 H 0.02712 0.45693 0.10198 0.0
H966 H 0.07618 0.54028 0.12955 0.0
H967 H 0.05504 0.46406 0.13913 0.0
H968 H 0.1448 0.48663 0.16556 0.0
H969 H 0.10953 0.48091 0.1349 0.0
H970 H 0.07157 0.53056 0.18272 0.0
H971 H 0.10669 0.53576 0.21403 0.0
C972 C 0.04948 0.51807 0.10223 0.0
C973 C 0.03627 0.49426 0.09344 0.0
C974 C 0.06503 0.52223 0.1239 0.0
C975 C 0.06772 0.50265 0.13701 0.0
C976 C 0.05328 0.47939 0.12922 0.0
C977 C 0.03747 0.47533 0.10785 0.0
C978 C 0.12883 0.49611 0.16969 0.0
C979 C 0.12847 0.5116 0.19219 0.0
C980 C 0.10869 0.49281 0.15218 0.0
C981 C 0.088 0.50534 0.15655 0.0
C982 C 0.08739 0.52072 0.17905 0.0
C983 C 0.10736 0.52356 0.19691 0.0
H984 H 0.38035 0.69558 0.28227 0.0
H985 H 0.38473 0.77542 0.30137 0.0
H986 H 0.41207 0.69561 0.31524 0.0
H987 H 0.41734 0.77534 0.3333 0.0
H988 H 0.49399 0.76538 0.36896 0.0
H989 H 0.4634 0.76297 0.33438 0.0
H990 H 0.4138 0.70844 0.36396 0.0
H991 H 0.44413 0.71109 0.39888 0.0
C992 C 0.38793 0.71311 0.29346 0.0
C993 C 0.37984 0.73551 0.28907 0.0
C994 C 0.40622 0.71309 0.3122 0.0
C995 C 0.41716 0.73548 0.32662 0.0
C996 C 0.40939 0.75787 0.32216 0.0
C997 C 0.39078 0.75787 0.30376 0.0
C998 C 0.47667 0.75269 0.368 0.0
C999 C 0.4714 0.73851 0.38671 0.0
C1000 C 0.45917 0.75143 0.34828 0.0
C1001 C 0.4363 0.73561 0.34665 0.0
C1002 C 0.43137 0.72072 0.36482 0.0
C1003 C 0.44867 0.72233 0.38481 0.0
H1004 H 0.98478 0.42734 0.99813 0.0
H1005 H 0.06223 0.43924 0.02599 0.0
H1006 H 0.99043 0.38681 0.97586 0.0
H1007 H 0.06779 0.39858 0.00401 0.0
H1008 H 0.07327 0.33155 0.9454 0.0
H1009 H 0.06764 0.37425 0.96166 0.0
H1010 H 0.99784 0.34688 0.98949 0.0
H1011 H 1.00333 0.30446 0.97335 0.0
C1012 C 1.00307 0.4214 0.99925 0.0
C1013 C 0.023 0.43635 0.01394 0.0
C1014 C 0.00626 0.39816 0.98665 0.0
C1015 C 0.02952 0.38949 0.98829 0.0
C1016 C 0.0497 0.40483 1.00226 0.0
C1017 C 0.04645 0.42798 0.01504 0.0
C1018 C 0.05662 0.33469 0.9548 0.0
C1019 C 0.03884 0.31457 0.95821 0.0
C1020 C 0.05347 0.35911 0.96419 0.0
C1021 C 0.03231 0.36389 0.97685 0.0
C1022 C 0.01421 0.34383 0.97961 0.0
C1023 C 0.01749 0.31948 0.9705 0.0
H1024 H 0.7062 0.8289 0.33263 0.0
H1025 H 0.67133 0.7841 0.26613 0.0
H1026 H 0.66833 0.81961 0.35344 0.0
H1027 H 0.63265 0.7751 0.28673 0.0
H1028 H 0.58469 0.73902 0.34333 0.0
H1029 H 0.61765 0.7515 0.31756 0.0
H1030 H 0.62611 0.82655 0.35682 0.0
H1031 H 0.59369 0.81381 0.38322 0.0
C1032 C 0.69014 0.81728 0.32244 0.0
C1033 C 0.69146 0.80714 0.29795 0.0
C1034 C 0.66834 0.81212 0.33426 0.0
C1035 C 0.64727 0.79673 0.32177 0.0
C1036 C 0.64857 0.78687 0.29696 0.0
C1037 C 0.67057 0.79205 0.28512 0.0
C1038 C 0.59335 0.75828 0.34629 0.0
C1039 C 0.5868 0.77534 0.3656 0.0
C1040 C 0.61219 0.76548 0.33136 0.0
C1041 C 0.62483 0.78997 0.33526 0.0
C1042 C 0.61719 0.80739 0.35364 0.0
C1043 C 0.59848 0.80014 0.36871 0.0
H1044 H 0.07022 0.05686 0.96945 0.0
H1045 H 0.99878 0.07542 0.99129 0.0
H1046 H 0.07895 0.0966 0.95418 0.0
H1047 H 0.00707 0.11492 0.97575 0.0
H1048 H 0.04353 0.1943 0.97246 0.0
H1049 H 0.03458 0.15426 0.9862 0.0
H1050 H 0.06519 0.11888 0.92185 0.0
H1051 H 0.07442 0.1592 0.90813 0.0
C1052 C 0.05639 0.06949 0.97082 0.0
C1053 C 0.03393 0.06341 0.98149 0.0
C1054 C 0.06126 0.0921 0.96198 0.0
C1055 C 0.04371 0.10895 0.96377 0.0
C1056 C 0.02112 0.10254 0.97438 0.0
C1057 C 0.01629 0.07995 0.98317 0.0
C1058 C 0.04815 0.17799 0.96108 0.0
C1059 C 0.05952 0.17994 0.93909 0.0
C1060 C 0.04297 0.15499 0.96896 0.0
C1061 C 0.04908 0.13333 0.95509 0.0
C1062 C 0.06047 0.13525 0.93308 0.0
C1063 C 0.06562 0.15832 0.92515 0.0
H1064 H 0.38109 0.28307 0.29648 0.0
H1065 H 0.33165 0.28211 0.23253 0.0
H1066 H 0.41644 0.28154 0.27094 0.0
H1067 H 0.36711 0.28107 0.20714 0.0
H1068 H 0.43954 0.29578 0.16969 0.0
H1069 H 0.40726 0.30432 0.19783 0.0
H1070 H 0.42965 0.24975 0.23983 0.0
H1071 H 0.46188 0.24129 0.21186 0.0
C1072 C 0.37772 0.28264 0.27701 0.0
C1073 C 0.35335 0.28247 0.26662 0.0
C1074 C 0.39804 0.28181 0.26237 0.0
C1075 C 0.39462 0.28101 0.23695 0.0
C1076 C 0.37048 0.28194 0.22668 0.0
C1077 C 0.35011 0.28259 0.2413 0.0
C1078 C 0.43783 0.28587 0.18513 0.0
C1079 C 0.45328 0.26776 0.18843 0.0
C1080 C 0.41919 0.29064 0.20116 0.0
C1081 C 0.41575 0.27763 0.22103 0.0
C1082 C 0.43189 0.26028 0.22487 0.0
C1083 C 0.45033 0.25534 0.20873 0.0
H1084 H 0.4986 0.43851 0.05361 0.0
H1085 H 0.57723 0.44073 0.04292 0.0
H1086 H 0.4986 0.40053 0.07142 0.0
H1087 H 0.57768 0.40283 0.06146 0.0
H1088 H 0.55793 0.31822 0.06275 0.0
H1089 H 0.56245 0.35937 0.05117 0.0
H1090 H 0.51201 0.38223 0.10532 0.0
H1091 H 0.50684 0.3406 0.11648 0.0
C1092 C 0.516 0.43095 0.05549 0.0
C1093 C 0.53789 0.44233 0.04697 0.0
C1094 C 0.51609 0.40929 0.06587 0.0
C1095 C 0.53815 0.39852 0.068 0.0
C1096 C 0.56028 0.41041 0.05989 0.0
C1097 C 0.56013 0.43214 0.04941 0.0
C1098 C 0.54795 0.33203 0.07243 0.0
C1099 C 0.53175 0.32588 0.0904 0.0
C1100 C 0.55072 0.3558 0.06587 0.0
C1101 C 0.53746 0.37419 0.07712 0.0
C1102 C 0.52217 0.36841 0.09591 0.0
C1103 C 0.51932 0.34456 0.10245 0.0
H1104 H 0.63181 0.18065 0.23995 0.0
H1105 H 0.68794 0.23822 0.22378 0.0
H1106 H 0.59962 0.19764 0.21759 0.0
H1107 H 0.65582 0.25565 0.20171 0.0
H1108 H 0.6018 0.24882 0.13266 0.0
H1109 H 0.63254 0.2405 0.16262 0.0
H1110 H 0.57541 0.23207 0.21361 0.0
H1111 H 0.54425 0.24018 0.18324 0.0
C1112 C 0.63705 0.19741 0.23217 0.0
C1113 C 0.66216 0.20825 0.23352 0.0
C1114 C 0.61865 0.20719 0.21943 0.0
C1115 C 0.62514 0.2279 0.20765 0.0
C1116 C 0.65023 0.23949 0.21027 0.0
C1117 C 0.66858 0.22969 0.22304 0.0
C1118 C 0.59573 0.24547 0.15033 0.0
C1119 C 0.57045 0.24497 0.15541 0.0
C1120 C 0.61348 0.2409 0.16765 0.0
C1121 C 0.6065 0.2356 0.19058 0.0
C1122 C 0.58137 0.2359 0.19605 0.0
C1123 C 0.56355 0.24069 0.1787 0.0
H1124 H 0.47587 0.08864 0.97548 0.0
H1125 H 0.48043 0.0528 0.03938 0.0
H1126 H 0.48448 0.12929 1.00136 0.0
H1127 H 0.48958 0.09331 0.06526 0.0
H1128 H 0.46991 0.16708 0.10456 0.0
H1129 H 0.46735 0.12651 0.07938 0.0
H1130 H 0.5138 0.15913 0.02802 0.0
H1131 H 0.51563 0.19995 0.0529 0.0
C1132 C 0.47924 0.08947 0.99502 0.0
C1133 C 0.47723 0.06753 0.00541 0.0
C1134 C 0.48422 0.11278 0.0099 0.0
C1135 C 0.48747 0.11469 0.0355 0.0
C1136 C 0.4866 0.09264 0.04571 0.0
C1137 C 0.48145 0.06939 0.03087 0.0
C1138 C 0.47978 0.1656 0.08802 0.0
C1139 C 0.49297 0.18682 0.08079 0.0
C1140 C 0.47845 0.14224 0.07359 0.0
C1141 C 0.49036 0.13942 0.05157 0.0
C1142 C 0.5041 0.16059 0.04466 0.0
C1143 C 0.50535 0.184 0.05907 0.0
H1144 H 0.32609 0.35759 0.72781 0.0
H1145 H 0.27626 0.40916 0.71159 0.0
H1146 H 0.36145 0.39091 0.73264 0.0
H1147 H 0.31166 0.44246 0.71588 0.0
H1148 H 0.37681 0.50107 0.75157 0.0
H1149 H 0.34109 0.46815 0.74573 0.0
H1150 H 0.38695 0.41688 0.71019 0.0
H1151 H 0.42283 0.44953 0.71673 0.0
C1152 C 0.32276 0.37603 0.72503 0.0
C1153 C 0.29841 0.38078 0.71937 0.0
C1154 C 0.34303 0.39513 0.72772 0.0
C1155 C 0.33947 0.41942 0.7246 0.0
C1156 C 0.31508 0.4241 0.71881 0.0
C1157 C 0.29478 0.40502 0.7163 0.0
C1158 C 0.37926 0.48281 0.7424 0.0
C1159 C 0.40276 0.47795 0.73473 0.0
C1160 C 0.35871 0.46393 0.73895 0.0
C1161 C 0.36111 0.43977 0.72759 0.0
C1162 C 0.3845 0.4351 0.71945 0.0
C1163 C 0.40507 0.45391 0.72306 0.0
H1164 H 0.3079 0.70387 0.79936 0.0
H1165 H 0.26129 0.63649 0.76459 0.0
H1166 H 0.34431 0.68214 0.79794 0.0
H1167 H 0.29805 0.61488 0.76238 0.0
H1168 H 0.36654 0.57839 0.78316 0.0
H1169 H 0.3294 0.59932 0.78783 0.0
H1170 H 0.37024 0.66528 0.76725 0.0
H1171 H 0.40719 0.64468 0.76299 0.0
C1172 C 0.30539 0.68437 0.79149 0.0
C1173 C 0.28162 0.67194 0.78211 0.0
C1174 C 0.32634 0.67195 0.79045 0.0
C1175 C 0.32416 0.64676 0.77997 0.0
C1176 C 0.30037 0.63422 0.77078 0.0
C1177 C 0.27935 0.64668 0.77177 0.0
C1178 C 0.36761 0.59743 0.77985 0.0
C1179 C 0.38987 0.60985 0.77273 0.0
C1180 C 0.34628 0.60936 0.78234 0.0
C1181 C 0.34682 0.634 0.77791 0.0
C1182 C 0.36921 0.64644 0.77114 0.0
C1183 C 0.39042 0.63454 0.76857 0.0
H1184 H 0.93441 0.45051 0.46857 0.0
H1185 H 0.89415 0.5083 0.50143 0.0
H1186 H 0.90245 0.41912 0.479 0.0
H1187 H 0.86278 0.47681 0.51314 0.0
H1188 H 0.79719 0.41174 0.50439 0.0
H1189 H 0.82895 0.44498 0.49627 0.0
H1190 H 0.88693 0.40158 0.51263 0.0
H1191 H 0.85532 0.36821 0.51989 0.0
C1192 C 0.91876 0.45655 0.47808 0.0
C1193 C 0.91688 0.48199 0.48405 0.0
C1194 C 0.90055 0.43851 0.4844 0.0
C1195 C 0.88001 0.44536 0.49706 0.0
C1196 C 0.87819 0.47081 0.50321 0.0
C1197 C 0.89638 0.4889 0.49676 0.0
C1198 C 0.81674 0.4094 0.50642 0.0
C1199 C 0.82367 0.38719 0.51253 0.0
C1200 C 0.83498 0.42851 0.50185 0.0
C1201 C 0.86056 0.42589 0.50349 0.0
C1202 C 0.86743 0.40404 0.51056 0.0
C1203 C 0.84925 0.38492 0.51488 0.0
H1204 H 0.75559 0.8279 0.74706 0.0
H1205 H 0.76974 0.85823 0.82349 0.0
H1206 H 0.74016 0.86622 0.73927 0.0
H1207 H 0.75467 0.89668 0.8159 0.0
H1208 H 0.70089 0.95011 0.799 0.0
H1209 H 0.71497 0.9108 0.80495 0.0
H1210 H 0.75415 0.91032 0.739 0.0
H1211 H 0.73985 0.9492 0.73283 0.0
C1212 C 0.75585 0.84305 0.76205 0.0
C1213 C 0.7641 0.84047 0.78576 0.0
C1214 C 0.74695 0.86492 0.75767 0.0
C1215 C 0.74597 0.88447 0.77701 0.0
C1216 C 0.75477 0.88187 0.80067 0.0
C1217 C 0.76372 0.86005 0.80499 0.0
C1218 C 0.71221 0.94145 0.7856 0.0
C1219 C 0.7193 0.95295 0.76551 0.0
C1220 C 0.7205 0.91904 0.78913 0.0
C1221 C 0.73593 0.90753 0.77258 0.0
C1222 C 0.74221 0.91857 0.75204 0.0
C1223 C 0.73405 0.94097 0.74857 0.0
H1224 H 0.61701 0.52043 0.95957 0.0
H1225 H 0.60537 0.53961 0.03618 0.0
H1226 H 0.65704 0.54774 0.96565 0.0
H1227 H 0.64612 0.56601 0.04229 0.0
H1228 H 0.73154 0.60018 0.04104 0.0
H1229 H 0.69696 0.56526 0.03546 0.0
H1230 H 0.66099 0.59784 0.97944 0.0
H1231 H 0.69482 0.63286 0.98549 0.0
C1232 C 0.62311 0.53012 0.97779 0.0
C1233 C 0.60759 0.5282 0.99727 0.0
C1234 C 0.64614 0.5456 0.98125 0.0
C1235 C 0.65451 0.55907 0.00438 0.0
C1236 C 0.6401 0.55567 0.0243 0.0
C1237 C 0.61679 0.54047 0.02077 0.0
C1238 C 0.71637 0.59962 0.02734 0.0
C1239 C 0.7158 0.61919 0.0137 0.0
C1240 C 0.69661 0.57978 0.02426 0.0
C1241 C 0.67642 0.57889 0.00698 0.0
C1242 C 0.67643 0.59799 0.99274 0.0
C1243 C 0.69573 0.61805 0.99626 0.0
H1244 H 0.27084 0.71637 0.23845 0.0
H1245 H 0.3261 0.66662 0.24035 0.0
H1246 H 0.23742 0.68088 0.23476 0.0
H1247 H 0.29311 0.63154 0.23761 0.0
H1248 H 0.23236 0.56904 0.22121 0.0
H1249 H 0.25988 0.60516 0.21313 0.0
H1250 H 0.22038 0.65294 0.26164 0.0
H1251 H 0.19213 0.61673 0.26894 0.0
C1252 C 0.27582 0.69783 0.23771 0.0
C1253 C 0.30106 0.69428 0.23995 0.0
C1254 C 0.25671 0.67754 0.23583 0.0
C1255 C 0.26252 0.65333 0.236 0.0
C1256 C 0.28783 0.6498 0.23709 0.0
C1257 C 0.30681 0.66998 0.23897 0.0
C1258 C 0.22914 0.58724 0.22974 0.0
C1259 C 0.21019 0.58992 0.24593 0.0
C1260 C 0.24508 0.608 0.22524 0.0
C1261 C 0.24269 0.63197 0.23708 0.0
C1262 C 0.22271 0.63481 0.25207 0.0
C1263 C 0.20657 0.614 0.25637 0.0
H1264 H 0.93444 0.52883 0.99675 0.0
H1265 H 0.96524 0.56323 0.06882 0.0
H1266 H 0.90139 0.55514 0.99941 0.0
H1267 H 0.93167 0.5893 0.07208 0.0
H1268 H 0.88935 0.6526 0.05554 0.0
H1269 H 0.91991 0.62393 0.05517 0.0
H1270 H 0.86433 0.5644 0.01818 0.0
H1271 H 0.83382 0.59345 0.01793 0.0
C1272 C 0.93375 0.5418 0.01337 0.0
C1273 C 0.95215 0.54411 0.03261 0.0
C1274 C 0.91477 0.5568 0.01498 0.0
C1275 C 0.9138 0.57446 0.03594 0.0
C1276 C 0.93202 0.57619 0.05552 0.0
C1277 C 0.9511 0.56117 0.05381 0.0
C1278 C 0.88358 0.63339 0.04732 0.0
C1279 C 0.85912 0.62536 0.03667 0.0
C1280 C 0.90111 0.61685 0.04732 0.0
C1281 C 0.89465 0.59175 0.03677 0.0
C1282 C 0.87009 0.58365 0.02623 0.0
C1283 C 0.85255 0.60028 0.02613 0.0
H1284 H 0.07854 0.95718 0.00663 0.0
H1285 H 0.11729 0.01244 0.0644 0.0
H1286 H 0.11564 0.93655 0.00309 0.0
H1287 H 0.15505 0.99271 0.06016 0.0
H1288 H 0.20564 0.93368 0.06799 0.0
H1289 H 0.17146 0.95804 0.0691 0.0
H1290 H 0.15627 0.93665 0.99096 0.0
H1291 H 0.18987 0.911 0.99019 0.0
C1292 C 0.09523 0.96513 0.01828 0.0
C1293 C 0.09505 0.9863 0.03587 0.0
C1294 C 0.11663 0.95343 0.01616 0.0
C1295 C 0.13854 0.96285 0.03133 0.0
C1296 C 0.13846 0.98453 0.04848 0.0
C1297 C 0.11689 0.99595 0.05088 0.0
C1298 C 0.19521 0.93435 0.05096 0.0
C1299 C 0.20039 0.92022 0.02902 0.0
C1300 C 0.17559 0.94853 0.05157 0.0
C1301 C 0.16082 0.94935 0.03015 0.0
C1302 C 0.16679 0.93608 0.00795 0.0
C1303 C 0.18623 0.92153 0.00743 0.0
loop_
_geom_bond_atom_site_label_1
_geom_bond_atom_site_label_2
_geom_bond_distance
_geom_bond_site_symmetry_2
_ccdc_geom_bond_type
H0 C3 0.929 . S
H1 C6 0.929 . S
H2 C8 0.930 . S
C3 H0 0.929 . S
C3 C4 1.398 . S
C3 C5 1.396 . S
C4 C3 1.398 . S
C4 C8 1.407 . S
C5 C3 1.396 . S
C5 C6 1.394 . S
C6 H1 0.929 . S
C6 C5 1.394 . S
C6 C7 1.382 . S
C7 C6 1.382 . S
C7 C8 1.392 . S
C7 N9 1.420 . S
C8 H2 0.930 . S
C8 C4 1.407 . S
C8 C7 1.392 . S
N9 C7 1.420 . S
N9 C10 1.244 . S
C10 N9 1.244 . S
H11 C14 0.929 . S
H12 C17 0.929 . S
H13 C19 0.930 . S
C14 H11 0.929 . S
C14 C15 1.398 . S
C14 C16 1.396 . S
C15 C14 1.398 . S
C15 C19 1.407 . S
C16 C14 1.396 . S
C16 C17 1.394 . S
C17 H12 0.929 . S
C17 C16 1.394 . S
C17 C18 1.382 . S
C18 C17 1.382 . S
C18 C19 1.392 . S
C18 N20 1.420 . S
C19 H13 0.930 . S
C19 C15 1.407 . S
C19 C18 1.392 . S
N20 C18 1.420 . S
N20 C21 1.244 . S
C21 N20 1.244 . S
H22 C25 0.929 . S
H23 C28 0.934 . S
H24 C30 0.930 . S
C25 H22 0.929 . S
C25 C26 1.398 . S
C25 C27 1.396 . S
C26 C25 1.398 . S
C26 C30 1.407 1_455 S
C27 C25 1.396 . S
C27 C28 1.379 1_455 S
C28 H23 0.934 . S
C28 C27 1.379 1_655 S
C28 C29 1.392 . S
C29 C28 1.392 . S
C29 C30 1.392 . S
C29 N31 1.420 . S
C30 H24 0.930 . S
C30 C26 1.407 1_655 S
C30 C29 1.392 . S
N31 C29 1.420 . S
N31 C32 1.244 . S
C32 N31 1.244 . S
H33 C36 0.929 . S
H34 C39 0.929 . S
H35 C41 0.930 . S
C36 H33 0.929 . S
C36 C37 1.398 . S
C36 C38 1.396 . S
C37 C36 1.398 . S
C37 C41 1.407 . S
C38 C36 1.396 . S
C38 C39 1.394 . S
C39 H34 0.929 . S
C39 C38 1.394 . S
C39 C40 1.382 . S
C40 C39 1.382 . S
C40 C41 1.392 . S
C40 N42 1.420 . S
C41 H35 0.930 . S
C41 C37 1.407 . S
C41 C40 1.392 . S
N42 C40 1.420 . S
N42 C43 1.244 . S
C43 N42 1.244 . S
H44 C47 0.931 1_545 S
H45 C50 0.929 . S
H46 C52 0.930 . S
C47 H44 0.931 1_565 S
C47 C48 1.398 . S
C47 C49 1.395 . S
C48 C47 1.398 . S
C48 C52 1.407 . S
C49 C47 1.395 . S
C49 C50 1.394 . S
C50 H45 0.929 . S
C50 C49 1.394 . S
C50 C51 1.382 . S
C51 C50 1.382 . S
C51 C52 1.392 . S
C51 N53 1.420 . S
C52 H46 0.930 . S
C52 C48 1.407 . S
C52 C51 1.392 . S
N53 C51 1.420 . S
N53 C54 1.244 . S
C54 N53 1.244 . S
H55 C58 0.929 . S
H56 C61 0.929 . S
H57 C63 0.930 . S
C58 H55 0.929 . S
C58 C59 1.398 . S
C58 C60 1.396 . S
C59 C58 1.398 . S
C59 C63 1.407 . S
C60 C58 1.396 . S
C60 C61 1.394 . S
C61 H56 0.929 . S
C61 C60 1.394 . S
C61 C62 1.382 . S
C62 C61 1.382 . S
C62 C63 1.392 . S
C62 N64 1.420 . S
C63 H57 0.930 . S
C63 C59 1.407 . S
C63 C62 1.392 . S
N64 C62 1.420 . S
N64 C65 1.244 . S
C65 N64 1.244 . S
H66 C69 0.929 . S
H67 C72 0.929 1_455 S
H68 C74 0.930 . S
C69 H66 0.929 . S
C69 C70 1.398 . S
C69 C71 1.396 . S
C70 C69 1.398 . S
C70 C74 1.407 . S
C71 C69 1.396 . S
C71 C72 1.394 . S
C72 H67 0.929 1_655 S
C72 C71 1.394 . S
C72 C73 1.382 . S
C73 C72 1.382 . S
C73 C74 1.392 . S
C73 N75 1.420 1_655 S
C74 H68 0.930 . S
C74 C70 1.407 . S
C74 C73 1.392 . S
N75 C73 1.420 1_455 S
N75 C76 1.244 . S
C76 N75 1.244 . S
H77 C80 0.929 . S
H78 C83 0.929 . S
H79 C85 0.930 . S
C80 H77 0.929 . S
C80 C81 1.398 . S
C80 C82 1.396 . S
C81 C80 1.398 . S
C81 C85 1.407 . S
C82 C80 1.396 . S
C82 C83 1.394 . S
C83 H78 0.929 . S
C83 C82 1.394 . S
C83 C84 1.382 . S
C84 C83 1.382 . S
C84 C85 1.392 . S
C84 N86 1.420 . S
C85 H79 0.930 . S
C85 C81 1.407 . S
C85 C84 1.392 . S
N86 C84 1.420 . S
N86 C87 1.244 . S
C87 N86 1.244 . S
H88 C91 0.929 . S
H89 C94 0.929 . S
H90 C96 0.930 . S
C91 H88 0.929 . S
C91 C92 1.398 . S
C91 C93 1.396 . S
C92 C91 1.398 . S
C92 C96 1.407 . S
C93 C91 1.396 . S
C93 C94 1.394 . S
C94 H89 0.929 . S
C94 C93 1.394 . S
C94 C95 1.382 . S
C95 C94 1.382 . S
C95 C96 1.392 . S
C95 N97 1.420 . S
C96 H90 0.930 . S
C96 C92 1.407 . S
C96 C95 1.392 . S
N97 C95 1.420 . S
N97 C98 1.244 . S
C98 N97 1.244 . S
H99 C102 0.929 . S
H100 C105 0.929 1_545 S
H101 C107 0.930 . S
C102 H99 0.929 . S
C102 C103 1.398 . S
C102 C104 1.396 . S
C103 C102 1.398 . S
C103 C107 1.407 . S
C104 C102 1.396 . S
C104 C105 1.394 . S
C105 H100 0.929 1_565 S
C105 C104 1.394 . S
C105 C106 1.382 . S
C106 C105 1.382 . S
C106 C107 1.392 . S
C106 N108 1.420 1_565 S
C107 H101 0.930 . S
C107 C103 1.407 . S
C107 C106 1.392 . S
N108 C106 1.420 1_545 S
N108 C109 1.244 . S
C109 N108 1.244 . S
H110 C113 0.929 . S
H111 C116 0.929 . S
H112 C118 0.930 . S
C113 H110 0.929 . S
C113 C114 1.398 . S
C113 C115 1.396 . S
C114 C113 1.398 . S
C114 C118 1.407 . S
C115 C113 1.396 . S
C115 C116 1.394 . S
C116 H111 0.929 . S
C116 C115 1.394 . S
C116 C117 1.382 . S
C117 C116 1.382 . S
C117 C118 1.392 . S
C117 N119 1.420 . S
C118 H112 0.930 . S
C118 C114 1.407 . S
C118 C117 1.392 . S
N119 C117 1.420 . S
N119 C120 1.244 . S
C120 N119 1.244 . S
H121 C124 0.929 . S
H122 C127 0.929 . S
H123 C129 0.930 . S
C124 H121 0.929 . S
C124 C125 1.398 . S
C124 C126 1.396 . S
C125 C124 1.398 . S
C125 C129 1.407 . S
C126 C124 1.396 . S
C126 C127 1.394 . S
C127 H122 0.929 . S
C127 C126 1.394 . S
C127 C128 1.382 . S
C128 C127 1.382 . S
C128 C129 1.392 . S
C128 N130 1.420 . S
C129 H123 0.930 . S
C129 C125 1.407 . S
C129 C128 1.392 . S
N130 C128 1.420 . S
N130 C131 1.244 . S
C131 N130 1.244 . S
H132 C135 0.929 . S
H133 C138 0.929 . S
H134 C140 0.930 . S
C135 H132 0.929 . S
C135 C136 1.398 . S
C135 C137 1.396 . S
C136 C135 1.398 . S
C136 C140 1.407 . S
C137 C135 1.396 . S
C137 C138 1.394 . S
C138 H133 0.929 . S
C138 C137 1.394 . S
C138 C139 1.382 . S
C139 C138 1.382 . S
C139 C140 1.392 . S
C139 N141 1.420 . S
C140 H134 0.930 . S
C140 C136 1.407 . S
C140 C139 1.392 . S
N141 C139 1.420 . S
N141 C142 1.244 . S
C142 N141 1.244 . S
H143 C146 0.929 . S
H144 C149 0.929 . S
H145 C151 0.930 . S
C146 H143 0.929 . S
C146 C147 1.398 . S
C146 C148 1.396 . S
C147 C146 1.398 . S
C147 C151 1.407 . S
C148 C146 1.396 . S
C148 C149 1.394 1_556 S
C149 H144 0.929 . S
C149 C148 1.394 1_554 S
C149 C150 1.382 1_554 S
C150 C149 1.382 1_556 S
C150 C151 1.392 . S
C150 N152 1.420 1_556 S
C151 H145 0.930 . S
C151 C147 1.407 . S
C151 C150 1.392 . S
N152 C150 1.420 1_554 S
N152 C153 1.244 . S
C153 N152 1.244 . S
H154 C157 0.929 . S
H155 C160 0.929 . S
H156 C162 0.930 . S
C157 H154 0.929 . S
C157 C158 1.398 . S
C157 C159 1.396 . S
C158 C157 1.398 . S
C158 C162 1.407 . S
C159 C157 1.396 . S
C159 C160 1.394 . S
C160 H155 0.929 . S
C160 C159 1.394 . S
C160 C161 1.382 . S
C161 C160 1.382 . S
C161 C162 1.392 . S
C161 N163 1.420 . S
C162 H156 0.930 . S
C162 C158 1.407 . S
C162 C161 1.392 . S
N163 C161 1.420 . S
N163 C164 1.244 . S
C164 N163 1.244 . S
H165 C168 0.929 1_554 S
H166 C171 0.929 . S
H167 C173 0.930 1_565 S
C168 H165 0.929 1_556 S
C168 C169 1.398 . S
C168 C170 1.396 . S
C169 C168 1.398 . S
C169 C173 1.407 . S
C170 C168 1.396 . S
C170 C171 1.394 . S
C171 H166 0.929 . S
C171 C170 1.394 . S
C171 C172 1.382 . S
C172 C171 1.382 . S
C172 C173 1.392 . S
C172 N174 1.420 . S
C173 H167 0.930 1_545 S
C173 C169 1.407 . S
C173 C172 1.392 . S
N174 C172 1.420 . S
N174 C175 1.244 . S
C175 N174 1.244 . S
Mg176 O177 2.028 . S
Mg176 O183 1.962 1_554 S
Mg176 O185 2.114 . S
Mg176 O186 2.251 . S
Mg176 O189 2.010 . S
O177 Mg176 2.028 . S
O177 C180 1.250 . S
O178 Mg179 2.028 . S
O178 C180 1.248 . S
Mg179 O178 2.028 . S
Mg179 O184 2.032 1_554 S
Mg179 O186 2.079 . S
C180 O177 1.250 . S
C180 O178 1.248 . S
C181 O182 1.264 . S
C181 O189 1.249 . S
O182 C181 1.264 . S
O183 Mg176 1.962 1_556 S
O183 C187 1.259 . S
O184 Mg179 2.032 1_556 S
O184 C187 1.259 . S
O185 Mg176 2.114 . S
O185 C188 1.252 . S
O186 Mg176 2.251 . S
O186 Mg179 2.079 . S
O186 C188 1.273 . S
C187 O183 1.259 . S
C187 O184 1.259 . S
C188 O185 1.252 . S
C188 O186 1.273 . S
O189 Mg176 2.010 . S
O189 C181 1.249 . S
Mg190 O191 2.028 . S
Mg190 O197 1.986 . S
Mg190 O199 2.114 . S
Mg190 O200 2.251 . S
Mg190 O203 2.010 . S
O191 Mg190 2.028 . S
O191 C194 1.250 . S
O192 Mg193 2.028 . S
O192 C194 1.248 . S
Mg193 O192 2.028 . S
Mg193 O198 2.032 . S
Mg193 O200 2.079 . S
C194 O191 1.250 . S
C194 O192 1.248 . S
C195 O196 1.264 . S
C195 O203 1.249 . S
O196 C195 1.264 . S
O197 Mg190 1.986 . S
O197 C201 1.246 . S
O198 Mg193 2.032 . S
O198 C201 1.259 . S
O199 Mg190 2.114 . S
O199 C202 1.252 . S
O200 Mg190 2.251 . S
O200 Mg193 2.079 . S
O200 C202 1.273 . S
C201 O197 1.246 . S
C201 O198 1.259 . S
C202 O199 1.252 . S
C202 O200 1.273 . S
O203 Mg190 2.010 . S
O203 C195 1.249 . S
Mg204 O205 2.029 1_554 S
Mg204 O211 1.986 1_554 S
Mg204 O213 2.114 . S
Mg204 O214 2.251 . S
Mg204 O217 2.010 . S
O205 Mg204 2.029 1_556 S
O205 C208 1.252 . S
O206 Mg207 2.028 . S
O206 C208 1.248 . S
Mg207 O206 2.028 . S
Mg207 O212 2.032 . S
Mg207 O214 2.079 1_556 S
C208 O205 1.252 . S
C208 O206 1.248 . S
C209 O210 1.264 . S
C209 O217 1.249 . S
O210 C209 1.264 . S
O211 Mg204 1.986 1_556 S
O211 C215 1.246 . S
O212 Mg207 2.032 . S
O212 C215 1.259 . S
O213 Mg204 2.114 . S
O213 C216 1.252 . S
O214 Mg204 2.251 . S
O214 Mg207 2.079 1_554 S
O214 C216 1.273 . S
C215 O211 1.246 . S
C215 O212 1.259 . S
C216 O213 1.252 . S
C216 O214 1.273 . S
O217 Mg204 2.010 . S
O217 C209 1.249 . S
Mg218 O219 2.028 . S
Mg218 O225 1.986 . S
Mg218 O227 2.114 . S
Mg218 O228 2.251 . S
Mg218 O231 2.010 . S
O219 Mg218 2.028 . S
O219 C222 1.250 1_545 S
O220 Mg221 2.028 . S
O220 C222 1.248 . S
Mg221 O220 2.028 . S
Mg221 O226 2.032 1_565 S
Mg221 O228 2.079 1_565 S
C222 O219 1.250 1_565 S
C222 O220 1.248 . S
C223 O224 1.264 . S
C223 O231 1.249 . S
O224 C223 1.264 . S
O225 Mg218 1.986 . S
O225 C229 1.246 . S
O226 Mg221 2.032 1_545 S
O226 C229 1.259 . S
O227 Mg218 2.114 . S
O227 C230 1.252 . S
O228 Mg218 2.251 . S
O228 Mg221 2.079 1_545 S
O228 C230 1.273 . S
C229 O225 1.246 . S
C229 O226 1.259 . S
C230 O227 1.252 . S
C230 O228 1.273 . S
O231 Mg218 2.010 . S
O231 C223 1.249 . S
Mg232 O233 2.028 . S
Mg232 O239 1.986 . S
Mg232 O241 2.114 . S
Mg232 O242 2.251 . S
Mg232 O245 2.010 . S
O233 Mg232 2.028 . S
O233 C236 1.250 . S
O234 Mg235 2.028 . S
O234 C236 1.248 . S
Mg235 O234 2.028 . S
Mg235 O240 2.032 . S
Mg235 O242 2.079 . S
C236 O233 1.250 . S
C236 O234 1.248 . S
C237 O238 1.264 . S
C237 O245 1.249 . S
O238 C237 1.264 . S
O239 Mg232 1.986 . S
O239 C243 1.246 . S
O240 Mg235 2.032 . S
O240 C243 1.259 . S
O241 Mg232 2.114 . S
O241 C244 1.252 . S
O242 Mg232 2.251 . S
O242 Mg235 2.079 . S
O242 C244 1.273 . S
C243 O239 1.246 . S
C243 O240 1.259 . S
C244 O241 1.252 . S
C244 O242 1.273 . S
O245 Mg232 2.010 . S
O245 C237 1.249 . S
Mg246 O247 2.028 . S
Mg246 O253 1.986 . S
Mg246 O255 2.114 . S
Mg246 O256 2.251 . S
Mg246 O259 2.010 . S
O247 Mg246 2.028 . S
O247 C250 1.250 . S
O248 Mg249 2.028 . S
O248 C250 1.248 . S
Mg249 O248 2.028 . S
Mg249 O254 2.032 . S
Mg249 O256 2.079 . S
C250 O247 1.250 . S
C250 O248 1.248 . S
C251 O252 1.264 . S
C251 O259 1.249 . S
O252 C251 1.264 . S
O253 Mg246 1.986 . S
O253 C257 1.246 . S
O254 Mg249 2.032 . S
O254 C257 1.259 . S
O255 Mg246 2.114 . S
O255 C258 1.252 . S
O256 Mg246 2.251 . S
O256 Mg249 2.079 . S
O256 C258 1.273 . S
C257 O253 1.246 . S
C257 O254 1.259 . S
C258 O255 1.252 . S
C258 O256 1.273 . S
O259 Mg246 2.010 . S
O259 C251 1.249 . S
Mg260 O261 2.028 . S
Mg260 O267 1.986 . S
Mg260 O269 2.114 . S
Mg260 O270 2.251 . S
Mg260 O273 2.010 . S
O261 Mg260 2.028 . S
O261 C264 1.250 . S
O262 Mg263 2.028 . S
O262 C264 1.248 . S
Mg263 O262 2.028 . S
Mg263 O268 2.032 . S
Mg263 O270 2.079 . S
C264 O261 1.250 . S
C264 O262 1.248 . S
C265 O266 1.264 . S
C265 O273 1.249 . S
O266 C265 1.264 . S
O267 Mg260 1.986 . S
O267 C271 1.246 . S
O268 Mg263 2.032 . S
O268 C271 1.259 . S
O269 Mg260 2.114 . S
O269 C272 1.252 . S
O270 Mg260 2.251 . S
O270 Mg263 2.079 . S
O270 C272 1.273 . S
C271 O267 1.246 . S
C271 O268 1.259 . S
C272 O269 1.252 . S
C272 O270 1.273 . S
O273 Mg260 2.010 . S
O273 C265 1.249 . S
Mg274 O275 2.028 1_545 S
Mg274 O281 1.986 1_545 S
Mg274 O283 2.114 . S
Mg274 O284 2.251 . S
Mg274 O287 2.010 . S
O275 Mg274 2.028 1_565 S
O275 C278 1.250 . S
O276 Mg277 2.028 . S
O276 C278 1.248 . S
Mg277 O276 2.028 . S
Mg277 O282 2.032 . S
Mg277 O284 2.079 1_565 S
C278 O275 1.250 . S
C278 O276 1.248 . S
C279 O280 1.264 . S
C279 O287 1.249 . S
O280 C279 1.264 . S
O281 Mg274 1.986 1_565 S
O281 C285 1.246 . S
O282 Mg277 2.032 . S
O282 C285 1.259 . S
O283 Mg274 2.114 . S
O283 C286 1.252 . S
O284 Mg274 2.251 . S
O284 Mg277 2.079 1_545 S
O284 C286 1.273 . S
C285 O281 1.246 . S
C285 O282 1.259 . S
C286 O283 1.252 . S
C286 O284 1.273 . S
O287 Mg274 2.010 . S
O287 C279 1.249 . S
Mg288 O289 2.028 . S
Mg288 O295 1.986 . S
Mg288 O297 2.114 . S
Mg288 O298 2.251 . S
Mg288 O301 2.010 . S
O289 Mg288 2.028 . S
O289 C292 1.250 1_455 S
O290 Mg291 2.028 . S
O290 C292 1.248 . S
Mg291 O290 2.028 . S
Mg291 O296 2.032 . S
Mg291 O298 2.079 1_655 S
C292 O289 1.250 1_655 S
C292 O290 1.248 . S
C293 O294 1.264 . S
C293 O301 1.249 . S
O294 C293 1.264 . S
O295 Mg288 1.986 . S
O295 C299 1.246 . S
O296 Mg291 2.032 . S
O296 C299 1.259 1_655 S
O297 Mg288 2.114 . S
O297 C300 1.252 . S
O298 Mg288 2.251 . S
O298 Mg291 2.079 1_455 S
O298 C300 1.273 . S
C299 O295 1.246 . S
C299 O296 1.259 1_455 S
C300 O297 1.252 . S
C300 O298 1.273 . S
O301 Mg288 2.010 . S
O301 C293 1.249 . S
Mg302 O303 2.028 . S
Mg302 O309 1.986 . S
Mg302 O311 2.114 . S
Mg302 O312 2.251 . S
Mg302 O315 2.010 . S
O303 Mg302 2.028 . S
O303 C306 1.250 . S
O304 Mg305 2.028 . S
O304 C306 1.248 . S
Mg305 O304 2.028 . S
Mg305 O310 2.032 . S
Mg305 O312 2.079 . S
C306 O303 1.250 . S
C306 O304 1.248 . S
C307 O308 1.264 . S
C307 O315 1.249 . S
O308 C307 1.264 . S
O309 Mg302 1.986 . S
O309 C313 1.246 . S
O310 Mg305 2.032 . S
O310 C313 1.259 . S
O311 Mg302 2.114 . S
O311 C314 1.252 . S
O312 Mg302 2.251 . S
O312 Mg305 2.079 . S
O312 C314 1.273 . S
C313 O309 1.246 . S
C313 O310 1.259 . S
C314 O311 1.252 . S
C314 O312 1.273 . S
O315 Mg302 2.010 . S
O315 C307 1.249 . S
Mg316 O317 2.028 1_655 S
Mg316 O323 1.986 1_655 S
Mg316 O325 2.114 . S
Mg316 O326 2.251 1_655 S
Mg316 O329 2.010 . S
O317 Mg316 2.028 1_455 S
O317 C320 1.250 . S
O318 Mg319 2.028 . S
O318 C320 1.248 . S
Mg319 O318 2.028 . S
Mg319 O324 2.032 . S
Mg319 O326 2.079 . S
C320 O317 1.250 . S
C320 O318 1.248 . S
C321 O322 1.264 . S
C321 O329 1.249 . S
O322 C321 1.264 . S
O323 Mg316 1.986 1_455 S
O323 C327 1.246 . S
O324 Mg319 2.032 . S
O324 C327 1.259 . S
O325 Mg316 2.114 . S
O325 C328 1.252 . S
O326 Mg316 2.251 1_455 S
O326 Mg319 2.079 . S
O326 C328 1.273 1_455 S
C327 O323 1.246 . S
C327 O324 1.259 . S
C328 O325 1.252 . S
C328 O326 1.273 1_655 S
O329 Mg316 2.010 . S
O329 C321 1.249 . S
Mg330 O331 2.028 . S
Mg330 O337 1.986 . S
Mg330 O339 2.114 . S
Mg330 O340 2.251 . S
Mg330 O343 2.010 . S
O331 Mg330 2.028 . S
O331 C334 1.250 . S
O332 Mg333 2.028 . S
O332 C334 1.248 . S
Mg333 O332 2.028 . S
Mg333 O338 2.032 . S
Mg333 O340 2.079 . S
C334 O331 1.250 . S
C334 O332 1.248 . S
C335 O336 1.264 . S
C335 O343 1.249 . S
O336 C335 1.264 . S
O337 Mg330 1.986 . S
O337 C341 1.246 . S
O338 Mg333 2.032 . S
O338 C341 1.259 . S
O339 Mg330 2.114 . S
O339 C342 1.252 . S
O340 Mg330 2.251 . S
O340 Mg333 2.079 . S
O340 C342 1.273 . S
C341 O337 1.246 . S
C341 O338 1.259 . S
C342 O339 1.252 . S
C342 O340 1.273 . S
O343 Mg330 2.010 . S
O343 C335 1.249 . S
H344 C352 0.950 . S
H345 C357 0.950 . S
H346 C354 0.950 . S
H347 C356 0.950 . S
H348 C358 0.950 . S
H349 C360 0.950 . S
H350 C362 0.950 . S
H351 C363 0.950 . S
C352 H344 0.950 . S
C352 C353 1.386 . S
C352 C354 1.391 . S
C353 C352 1.386 . S
C353 C357 1.393 . S
C354 H346 0.950 . S
C354 C352 1.391 . S
C354 C355 1.400 . S
C355 C354 1.400 . S
C355 C356 1.398 . S
C355 C361 1.491 . S
C356 H347 0.950 . S
C356 C355 1.398 . S
C356 C357 1.391 . S
C357 H345 0.950 . S
C357 C353 1.393 . S
C357 C356 1.391 . S
C358 H348 0.950 . S
C358 C359 1.386 . S
C358 C360 1.391 . S
C359 C358 1.386 . S
C359 C363 1.393 . S
C360 H349 0.950 . S
C360 C358 1.391 . S
C360 C361 1.400 . S
C361 C355 1.491 . S
C361 C360 1.400 . S
C361 C362 1.398 . S
C362 H350 0.950 . S
C362 C361 1.398 . S
C362 C363 1.391 . S
C363 H351 0.950 . S
C363 C359 1.393 . S
C363 C362 1.391 . S
H364 C372 0.950 . S
H365 C377 0.950 . S
H366 C374 0.950 . S
H367 C376 0.950 . S
H368 C378 0.950 . S
H369 C380 0.950 . S
H370 C382 0.950 . S
H371 C383 0.950 . S
C372 H364 0.950 . S
C372 C373 1.386 . S
C372 C374 1.391 . S
C373 C372 1.386 . S
C373 C377 1.393 . S
C374 H366 0.950 . S
C374 C372 1.391 . S
C374 C375 1.400 . S
C375 C374 1.400 . S
C375 C376 1.398 . S
C375 C381 1.491 . S
C376 H367 0.950 . S
C376 C375 1.398 . S
C376 C377 1.391 . S
C377 H365 0.950 . S
C377 C373 1.393 . S
C377 C376 1.391 . S
C378 H368 0.950 . S
C378 C379 1.386 . S
C378 C380 1.391 . S
C379 C378 1.386 . S
C379 C383 1.393 . S
C380 H369 0.950 . S
C380 C378 1.391 . S
C380 C381 1.400 . S
C381 C375 1.491 . S
C381 C380 1.400 . S
C381 C382 1.398 . S
C382 H370 0.950 . S
C382 C381 1.398 . S
C382 C383 1.391 . S
C383 H371 0.950 . S
C383 C379 1.393 . S
C383 C382 1.391 . S
H384 C392 0.950 . S
H385 C397 0.950 . S
H386 C394 0.950 . S
H387 C396 0.950 . S
H388 C398 0.950 . S
H389 C400 0.950 . S
H390 C402 0.950 . S
H391 C403 0.950 . S
C392 H384 0.950 . S
C392 C393 1.386 . S
C392 C394 1.391 . S
C393 C392 1.386 . S
C393 C397 1.393 . S
C394 H386 0.950 . S
C394 C392 1.391 . S
C394 C395 1.400 . S
C395 C394 1.400 . S
C395 C396 1.398 . S
C395 C401 1.491 . S
C396 H387 0.950 . S
C396 C395 1.398 . S
C396 C397 1.391 . S
C397 H385 0.950 . S
C397 C393 1.393 . S
C397 C396 1.391 . S
C398 H388 0.950 . S
C398 C399 1.386 . S
C398 C400 1.391 . S
C399 C398 1.386 . S
C399 C403 1.393 . S
C400 H389 0.950 . S
C400 C398 1.391 . S
C400 C401 1.400 . S
C401 C395 1.491 . S
C401 C400 1.400 . S
C401 C402 1.398 . S
C402 H390 0.950 . S
C402 C401 1.398 . S
C402 C403 1.391 . S
C403 H391 0.950 . S
C403 C399 1.393 . S
C403 C402 1.391 . S
H404 C412 0.950 . S
H405 C417 0.950 . S
H406 C414 0.950 1_655 S
H407 C416 0.950 . S
H408 C418 0.970 . S
H409 C420 0.950 . S
H410 C422 0.950 . S
H411 C423 0.950 . S
C412 H404 0.950 . S
C412 C413 1.386 . S
C412 C414 1.391 . S
C413 C412 1.386 . S
C413 C417 1.393 1_565 S
C414 H406 0.950 1_455 S
C414 C412 1.391 . S
C414 C415 1.400 1_565 S
C415 C414 1.400 1_545 S
C415 C416 1.398 . S
C415 C421 1.491 . S
C416 H407 0.950 . S
C416 C415 1.398 . S
C416 C417 1.391 . S
C417 H405 0.950 . S
C417 C413 1.393 1_545 S
C417 C416 1.391 . S
C418 H408 0.970 . S
C418 C419 1.347 1_455 S
C418 C420 1.410 . S
C419 C418 1.347 1_655 S
C419 C423 1.393 . S
C420 H409 0.950 . S
C420 C418 1.410 . S
C420 C421 1.400 . S
C421 C415 1.491 . S
C421 C420 1.400 . S
C421 C422 1.398 1_455 S
C422 H410 0.950 . S
C422 C421 1.398 1_655 S
C422 C423 1.391 . S
C423 H411 0.950 . S
C423 C419 1.393 . S
C423 C422 1.391 . S
H424 C432 0.950 . S
H425 C437 0.950 . S
H426 C434 0.950 . S
H427 C436 0.950 . S
H428 C438 0.950 . S
H429 C440 0.950 . S
H430 C442 0.950 . S
H431 C443 0.950 . S
C432 H424 0.950 . S
C432 C433 1.386 . S
C432 C434 1.391 . S
C433 C432 1.386 . S
C433 C437 1.393 . S
C434 H426 0.950 . S
C434 C432 1.391 . S
C434 C435 1.400 . S
C435 C434 1.400 . S
C435 C436 1.398 . S
C435 C441 1.491 . S
C436 H427 0.950 . S
C436 C435 1.398 . S
C436 C437 1.391 . S
C437 H425 0.950 . S
C437 C433 1.393 . S
C437 C436 1.391 . S
C438 H428 0.950 . S
C438 C439 1.386 . S
C438 C440 1.391 . S
C439 C438 1.386 . S
C439 C443 1.393 . S
C440 H429 0.950 . S
C440 C438 1.391 . S
C440 C441 1.400 . S
C441 C435 1.491 . S
C441 C440 1.400 . S
C441 C442 1.398 . S
C442 H430 0.950 . S
C442 C441 1.398 . S
C442 C443 1.391 . S
C443 H431 0.950 . S
C443 C439 1.393 . S
C443 C442 1.391 . S
H444 C452 0.950 . S
H445 C457 0.950 . S
H446 C454 0.950 . S
H447 C456 0.950 . S
H448 C458 0.950 . S
H449 C460 0.950 . S
H450 C462 0.950 . S
H451 C463 0.950 . S
C452 H444 0.950 . S
C452 C453 1.386 . S
C452 C454 1.391 . S
C453 C452 1.386 . S
C453 C457 1.393 . S
C454 H446 0.950 . S
C454 C452 1.391 . S
C454 C455 1.400 . S
C455 C454 1.400 . S
C455 C456 1.398 . S
C455 C461 1.491 . S
C456 H447 0.950 . S
C456 C455 1.398 . S
C456 C457 1.391 . S
C457 H445 0.950 . S
C457 C453 1.393 . S
C457 C456 1.391 . S
C458 H448 0.950 . S
C458 C459 1.386 . S
C458 C460 1.391 . S
C459 C458 1.386 . S
C459 C463 1.393 . S
C460 H449 0.950 . S
C460 C458 1.391 . S
C460 C461 1.400 . S
C461 C455 1.491 . S
C461 C460 1.400 . S
C461 C462 1.398 . S
C462 H450 0.950 . S
C462 C461 1.398 . S
C462 C463 1.391 . S
C463 H451 0.950 . S
C463 C459 1.393 . S
C463 C462 1.391 . S
H464 C472 0.950 . S
H465 C477 0.950 . S
H466 C474 0.950 . S
H467 C476 0.950 . S
H468 C478 0.950 . S
H469 C480 0.950 . S
H470 C482 0.950 . S
H471 C483 0.950 . S
C472 H464 0.950 . S
C472 C473 1.386 . S
C472 C474 1.391 . S
C473 C472 1.386 . S
C473 C477 1.393 . S
C474 H466 0.950 . S
C474 C472 1.391 . S
C474 C475 1.400 . S
C475 C474 1.400 . S
C475 C476 1.398 . S
C475 C481 1.491 . S
C476 H467 0.950 . S
C476 C475 1.398 . S
C476 C477 1.391 . S
C477 H465 0.950 . S
C477 C473 1.393 . S
C477 C476 1.391 . S
C478 H468 0.950 . S
C478 C479 1.386 . S
C478 C480 1.391 . S
C479 C478 1.386 . S
C479 C483 1.393 . S
C480 H469 0.950 . S
C480 C478 1.391 . S
C480 C481 1.400 . S
C481 C475 1.491 . S
C481 C480 1.400 . S
C481 C482 1.398 . S
C482 H470 0.950 . S
C482 C481 1.398 . S
C482 C483 1.391 . S
C483 H471 0.950 . S
C483 C479 1.393 . S
C483 C482 1.391 . S
H484 C492 0.950 . S
H485 C497 0.950 . S
H486 C494 0.950 . S
H487 C496 0.950 . S
H488 C498 0.950 . S
H489 C500 0.950 . S
H490 C502 0.950 . S
H491 C503 0.952 . S
C492 H484 0.950 . S
C492 C493 1.386 . S
C492 C494 1.391 . S
C493 C492 1.386 . S
C493 C497 1.393 . S
C494 H486 0.950 . S
C494 C492 1.391 . S
C494 C495 1.400 . S
C495 C494 1.400 . S
C495 C496 1.398 . S
C495 C501 1.491 . S
C496 H487 0.950 . S
C496 C495 1.398 . S
C496 C497 1.391 . S
C497 H485 0.950 . S
C497 C493 1.393 . S
C497 C496 1.391 . S
C498 H488 0.950 . S
C498 C499 1.386 . S
C498 C500 1.391 . S
C499 C498 1.386 . S
C499 C503 1.393 . S
C500 H489 0.950 . S
C500 C498 1.391 . S
C500 C501 1.400 . S
C501 C495 1.491 . S
C501 C500 1.400 . S
C501 C502 1.398 . S
C502 H490 0.950 . S
C502 C501 1.398 . S
C502 C503 1.391 . S
C503 H491 0.952 . S
C503 C499 1.393 . S
C503 C502 1.391 . S
H504 C512 0.950 . S
H505 C517 0.950 . S
H506 C514 0.950 . S
H507 C516 0.950 . S
H508 C518 0.950 . S
H509 C520 0.950 . S
H510 C522 0.950 . S
H511 C523 0.950 . S
C512 H504 0.950 . S
C512 C513 1.386 . S
C512 C514 1.391 . S
C513 C512 1.386 . S
C513 C517 1.393 . S
C514 H506 0.950 . S
C514 C512 1.391 . S
C514 C515 1.400 . S
C515 C514 1.400 . S
C515 C516 1.398 . S
C515 C521 1.491 . S
C516 H507 0.950 . S
C516 C515 1.398 . S
C516 C517 1.391 . S
C517 H505 0.950 . S
C517 C513 1.393 . S
C517 C516 1.391 . S
C518 H508 0.950 . S
C518 C519 1.386 . S
C518 C520 1.391 . S
C519 C518 1.386 . S
C519 C523 1.393 . S
C520 H509 0.950 . S
C520 C518 1.391 . S
C520 C521 1.400 . S
C521 C515 1.491 . S
C521 C520 1.400 . S
C521 C522 1.398 . S
C522 H510 0.950 . S
C522 C521 1.398 . S
C522 C523 1.391 . S
C523 H511 0.950 . S
C523 C519 1.393 . S
C523 C522 1.391 . S
H524 C532 0.950 . S
H525 C537 0.950 . S
H526 C534 0.950 . S
H527 C536 0.950 . S
H528 C538 0.950 . S
H529 C540 0.950 . S
H530 C542 0.950 . S
H531 C543 0.950 . S
C532 H524 0.950 . S
C532 C533 1.386 . S
C532 C534 1.391 . S
C533 C532 1.386 . S
C533 C537 1.393 . S
C534 H526 0.950 . S
C534 C532 1.391 . S
C534 C535 1.400 . S
C535 C534 1.400 . S
C535 C536 1.398 . S
C535 C541 1.491 . S
C536 H527 0.950 . S
C536 C535 1.398 . S
C536 C537 1.391 . S
C537 H525 0.950 . S
C537 C533 1.393 . S
C537 C536 1.391 . S
C538 H528 0.950 . S
C538 C539 1.386 . S
C538 C540 1.391 . S
C539 C538 1.386 . S
C539 C543 1.393 . S
C540 H529 0.950 . S
C540 C538 1.391 . S
C540 C541 1.400 . S
C541 C535 1.491 . S
C541 C540 1.400 . S
C541 C542 1.398 . S
C542 H530 0.950 . S
C542 C541 1.398 . S
C542 C543 1.391 . S
C543 H531 0.950 . S
C543 C539 1.393 . S
C543 C542 1.391 . S
H544 C552 0.950 . S
H545 C557 0.950 . S
H546 C554 0.950 . S
H547 C556 0.950 . S
H548 C558 0.950 . S
H549 C560 0.950 . S
H550 C562 0.950 . S
H551 C563 0.950 . S
C552 H544 0.950 . S
C552 C553 1.386 . S
C552 C554 1.391 . S
C553 C552 1.386 . S
C553 C557 1.393 . S
C554 H546 0.950 . S
C554 C552 1.391 . S
C554 C555 1.400 . S
C555 C554 1.400 . S
C555 C556 1.398 . S
C555 C561 1.491 . S
C556 H547 0.950 . S
C556 C555 1.398 . S
C556 C557 1.391 . S
C557 H545 0.950 . S
C557 C553 1.393 . S
C557 C556 1.391 . S
C558 H548 0.950 . S
C558 C559 1.386 . S
C558 C560 1.391 . S
C559 C558 1.386 . S
C559 C563 1.393 . S
C560 H549 0.950 . S
C560 C558 1.391 . S
C560 C561 1.400 . S
C561 C555 1.491 . S
C561 C560 1.400 . S
C561 C562 1.398 . S
C562 H550 0.950 . S
C562 C561 1.398 . S
C562 C563 1.391 . S
C563 H551 0.950 . S
C563 C559 1.393 . S
C563 C562 1.391 . S
H564 C572 0.950 . S
H565 C577 0.950 . S
H566 C574 0.950 . S
H567 C576 0.950 . S
H568 C578 0.950 . S
H569 C580 0.950 . S
H570 C582 0.950 . S
H571 C583 0.950 . S
C572 H564 0.950 . S
C572 C573 1.386 . S
C572 C574 1.391 . S
C573 C572 1.386 . S
C573 C577 1.393 . S
C574 H566 0.950 . S
C574 C572 1.391 . S
C574 C575 1.400 . S
C575 C574 1.400 . S
C575 C576 1.398 . S
C575 C581 1.491 . S
C576 H567 0.950 . S
C576 C575 1.398 . S
C576 C577 1.391 . S
C577 H565 0.950 . S
C577 C573 1.393 . S
C577 C576 1.391 . S
C578 H568 0.950 . S
C578 C579 1.386 . S
C578 C580 1.391 . S
C579 C578 1.386 . S
C579 C583 1.393 . S
C580 H569 0.950 . S
C580 C578 1.391 . S
C580 C581 1.400 . S
C581 C575 1.491 . S
C581 C580 1.400 . S
C581 C582 1.398 . S
C582 H570 0.950 . S
C582 C581 1.398 . S
C582 C583 1.391 . S
C583 H571 0.950 . S
C583 C579 1.393 . S
C583 C582 1.391 . S
H584 C592 0.950 . S
H585 C597 0.950 . S
H586 C594 0.950 . S
H587 C596 0.950 . S
H588 C598 0.950 . S
H589 C600 0.950 . S
H590 C602 0.950 . S
H591 C603 0.950 . S
C592 H584 0.950 . S
C592 C593 1.386 . S
C592 C594 1.391 . S
C593 C592 1.386 . S
C593 C597 1.393 . S
C594 H586 0.950 . S
C594 C592 1.391 . S
C594 C595 1.400 . S
C595 C594 1.400 . S
C595 C596 1.398 . S
C595 C601 1.491 . S
C596 H587 0.950 . S
C596 C595 1.398 . S
C596 C597 1.391 . S
C597 H585 0.950 . S
C597 C593 1.393 . S
C597 C596 1.391 . S
C598 H588 0.950 . S
C598 C599 1.386 . S
C598 C600 1.391 . S
C599 C598 1.386 . S
C599 C603 1.393 . S
C600 H589 0.950 . S
C600 C598 1.391 . S
C600 C601 1.400 . S
C601 C595 1.491 . S
C601 C600 1.400 . S
C601 C602 1.398 . S
C602 H590 0.950 . S
C602 C601 1.398 . S
C602 C603 1.391 . S
C603 H591 0.950 . S
C603 C599 1.393 . S
C603 C602 1.391 . S
H604 C612 0.950 . S
H605 C617 0.950 . S
H606 C614 0.950 . S
H607 C616 0.950 . S
H608 C618 0.950 . S
H609 C620 0.950 . S
H610 C622 0.950 . S
H611 C623 0.950 1_655 S
C612 H604 0.950 . S
C612 C613 1.386 . S
C612 C614 1.391 . S
C613 C612 1.386 . S
C613 C617 1.393 . S
C614 H606 0.950 . S
C614 C612 1.391 . S
C614 C615 1.400 . S
C615 C614 1.400 . S
C615 C616 1.398 . S
C615 C621 1.491 . S
C616 H607 0.950 . S
C616 C615 1.398 . S
C616 C617 1.391 . S
C617 H605 0.950 . S
C617 C613 1.393 . S
C617 C616 1.391 . S
C618 H608 0.950 . S
C618 C619 1.386 . S
C618 C620 1.391 . S
C619 C618 1.386 . S
C619 C623 1.393 . S
C620 H609 0.950 . S
C620 C618 1.391 . S
C620 C621 1.400 . S
C621 C615 1.491 . S
C621 C620 1.400 . S
C621 C622 1.398 . S
C622 H610 0.950 . S
C622 C621 1.398 . S
C622 C623 1.391 . S
C623 H611 0.950 1_455 S
C623 C619 1.393 . S
C623 C622 1.391 . S
H624 C632 0.950 . S
H625 C637 0.950 . S
H626 C634 0.950 . S
H627 C636 0.950 . S
H628 C638 0.950 . S
H629 C640 0.950 . S
H630 C642 0.950 . S
H631 C643 0.950 . S
C632 H624 0.950 . S
C632 C633 1.386 . S
C632 C634 1.391 . S
C633 C632 1.386 . S
C633 C637 1.393 . S
C634 H626 0.950 . S
C634 C632 1.391 . S
C634 C635 1.400 . S
C635 C634 1.400 . S
C635 C636 1.398 . S
C635 C641 1.491 . S
C636 H627 0.950 . S
C636 C635 1.398 . S
C636 C637 1.391 . S
C637 H625 0.950 . S
C637 C633 1.393 . S
C637 C636 1.391 . S
C638 H628 0.950 . S
C638 C639 1.386 . S
C638 C640 1.391 . S
C639 C638 1.386 . S
C639 C643 1.393 . S
C640 H629 0.950 . S
C640 C638 1.391 . S
C640 C641 1.400 . S
C641 C635 1.491 . S
C641 C640 1.400 . S
C641 C642 1.398 . S
C642 H630 0.950 . S
C642 C641 1.398 . S
C642 C643 1.391 . S
C643 H631 0.950 . S
C643 C639 1.393 . S
C643 C642 1.391 . S
H644 C652 0.950 . S
H645 C657 0.950 . S
H646 C654 0.950 . S
H647 C656 0.950 . S
H648 C658 0.950 . S
H649 C660 0.950 . S
H650 C662 0.950 . S
H651 C663 0.950 . S
C652 H644 0.950 . S
C652 C653 1.386 1_455 S
C652 C654 1.391 . S
C653 C652 1.386 1_655 S
C653 C657 1.393 . S
C654 H646 0.950 . S
C654 C652 1.391 . S
C654 C655 1.400 1_455 S
C655 C654 1.400 1_655 S
C655 C656 1.398 . S
C655 C661 1.491 . S
C656 H647 0.950 . S
C656 C655 1.398 . S
C656 C657 1.391 . S
C657 H645 0.950 . S
C657 C653 1.393 . S
C657 C656 1.391 . S
C658 H648 0.950 . S
C658 C659 1.386 . S
C658 C660 1.391 . S
C659 C658 1.386 . S
C659 C663 1.393 1_655 S
C660 H649 0.950 . S
C660 C658 1.391 . S
C660 C661 1.400 . S
C661 C655 1.491 . S
C661 C660 1.400 . S
C661 C662 1.398 1_655 S
C662 H650 0.950 . S
C662 C661 1.398 1_455 S
C662 C663 1.391 . S
C663 H651 0.950 . S
C663 C659 1.393 1_455 S
C663 C662 1.391 . S
H664 C672 0.950 . S
H665 C677 0.950 . S
H666 C674 0.950 . S
H667 C676 0.950 . S
H668 C678 0.950 . S
H669 C680 0.950 . S
H670 C682 0.950 . S
H671 C683 0.950 . S
C672 H664 0.950 . S
C672 C673 1.386 . S
C672 C674 1.391 . S
C673 C672 1.386 . S
C673 C677 1.393 . S
C674 H666 0.950 . S
C674 C672 1.391 . S
C674 C675 1.400 . S
C675 C674 1.400 . S
C675 C676 1.398 . S
C675 C681 1.491 . S
C676 H667 0.950 . S
C676 C675 1.398 . S
C676 C677 1.391 . S
C677 H665 0.950 . S
C677 C673 1.393 . S
C677 C676 1.391 . S
C678 H668 0.950 . S
C678 C679 1.386 . S
C678 C680 1.391 . S
C679 C678 1.386 . S
C679 C683 1.393 . S
C680 H669 0.950 . S
C680 C678 1.391 . S
C680 C681 1.400 . S
C681 C675 1.491 . S
C681 C680 1.400 . S
C681 C682 1.398 . S
C682 H670 0.950 . S
C682 C681 1.398 . S
C682 C683 1.391 . S
C683 H671 0.950 . S
C683 C679 1.393 . S
C683 C682 1.391 . S
H684 C692 0.950 . S
H685 C697 0.950 . S
H686 C694 0.950 . S
H687 C696 0.950 . S
H688 C698 0.950 . S
H689 C700 0.950 . S
H690 C702 0.950 . S
H691 C703 0.950 . S
C692 H684 0.950 . S
C692 C693 1.386 . S
C692 C694 1.391 . S
C693 C692 1.386 . S
C693 C697 1.393 . S
C694 H686 0.950 . S
C694 C692 1.391 . S
C694 C695 1.400 . S
C695 C694 1.400 . S
C695 C696 1.398 . S
C695 C701 1.491 . S
C696 H687 0.950 . S
C696 C695 1.398 . S
C696 C697 1.391 . S
C697 H685 0.950 . S
C697 C693 1.393 . S
C697 C696 1.391 . S
C698 H688 0.950 . S
C698 C699 1.386 . S
C698 C700 1.391 . S
C699 C698 1.386 . S
C699 C703 1.393 . S
C700 H689 0.950 . S
C700 C698 1.391 . S
C700 C701 1.400 . S
C701 C695 1.491 . S
C701 C700 1.400 . S
C701 C702 1.398 . S
C702 H690 0.950 . S
C702 C701 1.398 . S
C702 C703 1.391 . S
C703 H691 0.950 . S
C703 C699 1.393 . S
C703 C702 1.391 . S
H704 C712 0.950 . S
H705 C717 0.950 . S
H706 C714 0.972 . S
H707 C716 0.950 . S
H708 C718 0.950 . S
H709 C720 0.950 . S
H710 C722 0.950 . S
H711 C723 0.950 . S
C712 H704 0.950 . S
C712 C713 1.386 1_545 S
C712 C714 1.391 1_545 S
C713 C712 1.386 1_565 S
C713 C717 1.393 . S
C714 H706 0.972 . S
C714 C712 1.391 1_565 S
C714 C715 1.400 1_556 S
C715 C714 1.400 1_554 S
C715 C716 1.398 . S
C715 C721 1.491 . S
C716 H707 0.950 . S
C716 C715 1.398 . S
C716 C717 1.391 1_554 S
C717 H705 0.950 . S
C717 C713 1.393 . S
C717 C716 1.391 1_556 S
C718 H708 0.950 . S
C718 C719 1.386 . S
C718 C720 1.391 . S
C719 C718 1.386 . S
C719 C723 1.393 . S
C720 H709 0.950 . S
C720 C718 1.391 . S
C720 C721 1.400 . S
C721 C715 1.491 . S
C721 C720 1.400 . S
C721 C722 1.398 . S
C722 H710 0.950 . S
C722 C721 1.398 . S
C722 C723 1.391 . S
C723 H711 0.950 . S
C723 C719 1.393 . S
C723 C722 1.391 . S
H724 C732 0.950 . S
H725 C737 0.950 . S
H726 C734 0.950 . S
H727 C736 0.950 . S
H728 C738 0.950 . S
H729 C740 0.950 . S
H730 C742 0.950 . S
H731 C743 0.950 . S
C732 H724 0.950 . S
C732 C733 1.386 . S
C732 C734 1.391 . S
C733 C732 1.386 . S
C733 C737 1.393 . S
C734 H726 0.950 . S
C734 C732 1.391 . S
C734 C735 1.400 . S
C735 C734 1.400 . S
C735 C736 1.398 . S
C735 C741 1.491 . S
C736 H727 0.950 . S
C736 C735 1.398 . S
C736 C737 1.391 . S
C737 H725 0.950 . S
C737 C733 1.393 . S
C737 C736 1.391 . S
C738 H728 0.950 . S
C738 C739 1.386 . S
C738 C740 1.391 . S
C739 C738 1.386 . S
C739 C743 1.393 . S
C740 H729 0.950 . S
C740 C738 1.391 . S
C740 C741 1.400 . S
C741 C735 1.491 . S
C741 C740 1.400 . S
C741 C742 1.398 . S
C742 H730 0.950 . S
C742 C741 1.398 . S
C742 C743 1.391 . S
C743 H731 0.950 . S
C743 C739 1.393 . S
C743 C742 1.391 . S
H744 C752 0.950 1_565 S
H745 C757 0.950 . S
H746 C754 0.950 . S
H747 C756 0.950 . S
H748 C758 0.950 . S
H749 C760 0.950 . S
H750 C762 0.950 . S
H751 C763 0.950 . S
C752 H744 0.950 1_545 S
C752 C753 1.386 . S
C752 C754 1.391 . S
C753 C752 1.386 . S
C753 C757 1.393 . S
C754 H746 0.950 . S
C754 C752 1.391 . S
C754 C755 1.400 . S
C755 C754 1.400 . S
C755 C756 1.398 . S
C755 C761 1.491 . S
C756 H747 0.950 . S
C756 C755 1.398 . S
C756 C757 1.391 . S
C757 H745 0.950 . S
C757 C753 1.393 . S
C757 C756 1.391 . S
C758 H748 0.950 . S
C758 C759 1.386 . S
C758 C760 1.391 . S
C759 C758 1.386 . S
C759 C763 1.393 . S
C760 H749 0.950 . S
C760 C758 1.391 . S
C760 C761 1.400 . S
C761 C755 1.491 . S
C761 C760 1.400 . S
C761 C762 1.398 . S
C762 H750 0.950 . S
C762 C761 1.398 . S
C762 C763 1.391 . S
C763 H751 0.950 . S
C763 C759 1.393 . S
C763 C762 1.391 . S
H764 C772 0.950 . S
H765 C777 0.950 . S
H766 C774 0.950 . S
H767 C776 0.950 . S
H768 C778 0.950 . S
H769 C780 0.950 . S
H770 C782 0.950 . S
H771 C783 0.950 . S
C772 H764 0.950 . S
C772 C773 1.386 . S
C772 C774 1.391 . S
C773 C772 1.386 . S
C773 C777 1.393 . S
C774 H766 0.950 . S
C774 C772 1.391 . S
C774 C775 1.400 . S
C775 C774 1.400 . S
C775 C776 1.398 . S
C775 C781 1.491 . S
C776 H767 0.950 . S
C776 C775 1.398 . S
C776 C777 1.391 . S
C777 H765 0.950 . S
C777 C773 1.393 . S
C777 C776 1.391 . S
C778 H768 0.950 . S
C778 C779 1.386 . S
C778 C780 1.391 . S
C779 C778 1.386 . S
C779 C783 1.393 . S
C780 H769 0.950 . S
C780 C778 1.391 . S
C780 C781 1.400 . S
C781 C775 1.491 . S
C781 C780 1.400 . S
C781 C782 1.398 . S
C782 H770 0.950 . S
C782 C781 1.398 . S
C782 C783 1.391 . S
C783 H771 0.950 . S
C783 C779 1.393 . S
C783 C782 1.391 . S
H784 C792 0.950 . S
H785 C797 0.950 . S
H786 C794 0.950 . S
H787 C796 0.950 . S
H788 C798 0.950 . S
H789 C800 0.950 . S
H790 C802 0.950 . S
H791 C803 0.950 . S
C792 H784 0.950 . S
C792 C793 1.386 . S
C792 C794 1.391 . S
C793 C792 1.386 . S
C793 C797 1.393 . S
C794 H786 0.950 . S
C794 C792 1.391 . S
C794 C795 1.400 . S
C795 C794 1.400 . S
C795 C796 1.398 . S
C795 C801 1.491 . S
C796 H787 0.950 . S
C796 C795 1.398 . S
C796 C797 1.391 . S
C797 H785 0.950 . S
C797 C793 1.393 . S
C797 C796 1.391 . S
C798 H788 0.950 . S
C798 C799 1.386 . S
C798 C800 1.391 . S
C799 C798 1.386 . S
C799 C803 1.393 . S
C800 H789 0.950 . S
C800 C798 1.391 . S
C800 C801 1.400 . S
C801 C795 1.491 . S
C801 C800 1.400 . S
C801 C802 1.398 . S
C802 H790 0.950 . S
C802 C801 1.398 . S
C802 C803 1.391 . S
C803 H791 0.950 . S
C803 C799 1.393 . S
C803 C802 1.391 . S
H804 C812 0.950 . S
H805 C817 0.950 . S
H806 C814 0.950 . S
H807 C816 0.950 . S
H808 C818 0.950 . S
H809 C820 0.950 . S
H810 C822 0.950 . S
H811 C823 0.950 . S
C812 H804 0.950 . S
C812 C813 1.386 . S
C812 C814 1.391 . S
C813 C812 1.386 . S
C813 C817 1.393 . S
C814 H806 0.950 . S
C814 C812 1.391 . S
C814 C815 1.400 . S
C815 C814 1.400 . S
C815 C816 1.398 . S
C815 C821 1.491 . S
C816 H807 0.950 . S
C816 C815 1.398 . S
C816 C817 1.391 . S
C817 H805 0.950 . S
C817 C813 1.393 . S
C817 C816 1.391 . S
C818 H808 0.950 . S
C818 C819 1.386 . S
C818 C820 1.391 . S
C819 C818 1.386 . S
C819 C823 1.393 . S
C820 H809 0.950 . S
C820 C818 1.391 . S
C820 C821 1.400 . S
C821 C815 1.491 . S
C821 C820 1.400 . S
C821 C822 1.398 . S
C822 H810 0.950 . S
C822 C821 1.398 . S
C822 C823 1.391 . S
C823 H811 0.950 . S
C823 C819 1.393 . S
C823 C822 1.391 . S
H824 C832 0.950 . S
H825 C837 0.950 . S
H826 C834 0.950 . S
H827 C836 0.950 . S
H828 C838 0.950 . S
H829 C840 0.950 . S
H830 C842 0.950 . S
H831 C843 0.950 . S
C832 H824 0.950 . S
C832 C833 1.386 . S
C832 C834 1.391 . S
C833 C832 1.386 . S
C833 C837 1.393 . S
C834 H826 0.950 . S
C834 C832 1.391 . S
C834 C835 1.400 . S
C835 C834 1.400 . S
C835 C836 1.398 . S
C835 C841 1.491 . S
C836 H827 0.950 . S
C836 C835 1.398 . S
C836 C837 1.391 . S
C837 H825 0.950 . S
C837 C833 1.393 . S
C837 C836 1.391 . S
C838 H828 0.950 . S
C838 C839 1.386 . S
C838 C840 1.391 . S
C839 C838 1.386 . S
C839 C843 1.393 . S
C840 H829 0.950 . S
C840 C838 1.391 . S
C840 C841 1.400 . S
C841 C835 1.491 . S
C841 C840 1.400 . S
C841 C842 1.398 . S
C842 H830 0.950 . S
C842 C841 1.398 . S
C842 C843 1.391 . S
C843 H831 0.950 . S
C843 C839 1.393 . S
C843 C842 1.391 . S
H844 C852 0.950 . S
H845 C857 0.950 1_565 S
H846 C854 0.950 . S
H847 C856 0.950 1_565 S
H848 C858 0.950 . S
H849 C860 0.950 . S
H850 C862 0.950 . S
H851 C863 0.950 . S
C852 H844 0.950 . S
C852 C853 1.386 . S
C852 C854 1.391 . S
C853 C852 1.386 . S
C853 C857 1.393 . S
C854 H846 0.950 . S
C854 C852 1.391 . S
C854 C855 1.400 . S
C855 C854 1.400 . S
C855 C856 1.398 . S
C855 C861 1.491 . S
C856 H847 0.950 1_545 S
C856 C855 1.398 . S
C856 C857 1.391 . S
C857 H845 0.950 1_545 S
C857 C853 1.393 . S
C857 C856 1.391 . S
C858 H848 0.950 . S
C858 C859 1.386 1_565 S
C858 C860 1.391 . S
C859 C858 1.386 1_545 S
C859 C863 1.393 . S
C860 H849 0.950 . S
C860 C858 1.391 . S
C860 C861 1.400 1_565 S
C861 C855 1.491 . S
C861 C860 1.400 1_545 S
C861 C862 1.398 . S
C862 H850 0.950 . S
C862 C861 1.398 . S
C862 C863 1.391 . S
C863 H851 0.950 . S
C863 C859 1.393 . S
C863 C862 1.391 . S
H864 C872 0.950 . S
H865 C877 0.950 . S
H866 C874 0.950 . S
H867 C876 0.950 . S
H868 C878 0.950 . S
H869 C880 0.950 . S
H870 C882 0.950 . S
H871 C883 0.950 . S
C872 H864 0.950 . S
C872 C873 1.386 . S
C872 C874 1.391 . S
C873 C872 1.386 . S
C873 C877 1.393 . S
C874 H866 0.950 . S
C874 C872 1.391 . S
C874 C875 1.400 . S
C875 C874 1.400 . S
C875 C876 1.398 . S
C875 C881 1.491 . S
C876 H867 0.950 . S
C876 C875 1.398 . S
C876 C877 1.391 . S
C877 H865 0.950 . S
C877 C873 1.393 . S
C877 C876 1.391 . S
C878 H868 0.950 . S
C878 C879 1.386 . S
C878 C880 1.391 . S
C879 C878 1.386 . S
C879 C883 1.393 . S
C880 H869 0.950 . S
C880 C878 1.391 . S
C880 C881 1.400 . S
C881 C875 1.491 . S
C881 C880 1.400 . S
C881 C882 1.398 . S
C882 H870 0.950 . S
C882 C881 1.398 . S
C882 C883 1.391 . S
C883 H871 0.950 . S
C883 C879 1.393 . S
C883 C882 1.391 . S
H884 C892 0.950 . S
H885 C897 0.950 . S
H886 C894 0.950 . S
H887 C896 0.950 . S
H888 C898 0.950 . S
H889 C900 0.950 . S
H890 C902 0.950 . S
H891 C903 0.950 . S
C892 H884 0.950 . S
C892 C893 1.386 . S
C892 C894 1.391 . S
C893 C892 1.386 . S
C893 C897 1.393 . S
C894 H886 0.950 . S
C894 C892 1.391 . S
C894 C895 1.400 . S
C895 C894 1.400 . S
C895 C896 1.398 . S
C895 C901 1.491 . S
C896 H887 0.950 . S
C896 C895 1.398 . S
C896 C897 1.391 . S
C897 H885 0.950 . S
C897 C893 1.393 . S
C897 C896 1.391 . S
C898 H888 0.950 . S
C898 C899 1.386 . S
C898 C900 1.391 . S
C899 C898 1.386 . S
C899 C903 1.393 . S
C900 H889 0.950 . S
C900 C898 1.391 . S
C900 C901 1.400 . S
C901 C895 1.491 . S
C901 C900 1.400 . S
C901 C902 1.398 . S
C902 H890 0.950 . S
C902 C901 1.398 . S
C902 C903 1.391 . S
C903 H891 0.950 . S
C903 C899 1.393 . S
C903 C902 1.391 . S
H904 C912 0.950 . S
H905 C917 0.950 . S
H906 C914 0.950 . S
H907 C916 0.950 . S
H908 C918 0.950 . S
H909 C920 0.950 . S
H910 C922 0.950 . S
H911 C923 0.950 . S
C912 H904 0.950 . S
C912 C913 1.386 . S
C912 C914 1.391 . S
C913 C912 1.386 . S
C913 C917 1.393 . S
C914 H906 0.950 . S
C914 C912 1.391 . S
C914 C915 1.400 . S
C915 C914 1.400 . S
C915 C916 1.398 . S
C915 C921 1.491 . S
C916 H907 0.950 . S
C916 C915 1.398 . S
C916 C917 1.391 . S
C917 H905 0.950 . S
C917 C913 1.393 . S
C917 C916 1.391 . S
C918 H908 0.950 . S
C918 C919 1.386 . S
C918 C920 1.391 . S
C919 C918 1.386 . S
C919 C923 1.393 . S
C920 H909 0.950 . S
C920 C918 1.391 . S
C920 C921 1.400 . S
C921 C915 1.491 . S
C921 C920 1.400 . S
C921 C922 1.398 . S
C922 H910 0.950 . S
C922 C921 1.398 . S
C922 C923 1.391 . S
C923 H911 0.950 . S
C923 C919 1.393 . S
C923 C922 1.391 . S
H924 C932 0.950 . S
H925 C937 0.950 1_655 S
H926 C934 0.950 . S
H927 C936 0.950 . S
H928 C938 0.950 . S
H929 C940 0.950 . S
H930 C942 0.950 . S
H931 C943 0.950 1_455 S
C932 H924 0.950 . S
C932 C933 1.386 . S
C932 C934 1.391 . S
C933 C932 1.386 . S
C933 C937 1.393 . S
C934 H926 0.950 . S
C934 C932 1.391 . S
C934 C935 1.400 . S
C935 C934 1.400 . S
C935 C936 1.398 1_455 S
C935 C941 1.491 1_455 S
C936 H927 0.950 . S
C936 C935 1.398 1_655 S
C936 C937 1.391 1_655 S
C937 H925 0.950 1_455 S
C937 C933 1.393 . S
C937 C936 1.391 1_455 S
C938 H928 0.950 . S
C938 C939 1.386 . S
C938 C940 1.391 . S
C939 C938 1.386 . S
C939 C943 1.393 . S
C940 H929 0.950 . S
C940 C938 1.391 . S
C940 C941 1.400 . S
C941 C935 1.491 1_655 S
C941 C940 1.400 . S
C941 C942 1.398 1_655 S
C942 H930 0.950 . S
C942 C941 1.398 1_455 S
C942 C943 1.391 1_455 S
C943 H931 0.950 1_655 S
C943 C939 1.393 . S
C943 C942 1.391 1_655 S
H944 C952 0.950 . S
H945 C957 0.950 . S
H946 C954 0.950 . S
H947 C956 0.950 . S
H948 C958 0.950 . S
H949 C960 0.950 . S
H950 C962 0.950 . S
H951 C963 0.950 . S
C952 H944 0.950 . S
C952 C953 1.386 . S
C952 C954 1.391 . S
C953 C952 1.386 . S
C953 C957 1.393 . S
C954 H946 0.950 . S
C954 C952 1.391 . S
C954 C955 1.400 . S
C955 C954 1.400 . S
C955 C956 1.398 . S
C955 C961 1.491 . S
C956 H947 0.950 . S
C956 C955 1.398 . S
C956 C957 1.391 . S
C957 H945 0.950 . S
C957 C953 1.393 . S
C957 C956 1.391 . S
C958 H948 0.950 . S
C958 C959 1.386 . S
C958 C960 1.391 . S
C959 C958 1.386 . S
C959 C963 1.393 . S
C960 H949 0.950 . S
C960 C958 1.391 . S
C960 C961 1.400 . S
C961 C955 1.491 . S
C961 C960 1.400 . S
C961 C962 1.398 . S
C962 H950 0.950 . S
C962 C961 1.398 . S
C962 C963 1.391 . S
C963 H951 0.950 . S
C963 C959 1.393 . S
C963 C962 1.391 . S
H964 C972 0.950 . S
H965 C977 0.950 . S
H966 C974 0.950 . S
H967 C976 0.950 . S
H968 C978 0.950 . S
H969 C980 0.950 . S
H970 C982 0.950 . S
H971 C983 0.950 . S
C972 H964 0.950 . S
C972 C973 1.386 . S
C972 C974 1.391 . S
C973 C972 1.386 . S
C973 C977 1.393 . S
C974 H966 0.950 . S
C974 C972 1.391 . S
C974 C975 1.400 . S
C975 C974 1.400 . S
C975 C976 1.398 . S
C975 C981 1.491 . S
C976 H967 0.950 . S
C976 C975 1.398 . S
C976 C977 1.391 . S
C977 H965 0.950 . S
C977 C973 1.393 . S
C977 C976 1.391 . S
C978 H968 0.950 . S
C978 C979 1.386 . S
C978 C980 1.391 . S
C979 C978 1.386 . S
C979 C983 1.393 . S
C980 H969 0.950 . S
C980 C978 1.391 . S
C980 C981 1.400 . S
C981 C975 1.491 . S
C981 C980 1.400 . S
C981 C982 1.398 . S
C982 H970 0.950 . S
C982 C981 1.398 . S
C982 C983 1.391 . S
C983 H971 0.950 . S
C983 C979 1.393 . S
C983 C982 1.391 . S
H984 C992 0.950 . S
H985 C997 0.950 . S
H986 C994 0.950 . S
H987 C996 0.950 . S
H988 C998 0.950 . S
H989 C1000 0.950 . S
H990 C1002 0.950 . S
H991 C1003 0.950 . S
C992 H984 0.950 . S
C992 C993 1.386 . S
C992 C994 1.391 . S
C993 C992 1.386 . S
C993 C997 1.393 . S
C994 H986 0.950 . S
C994 C992 1.391 . S
C994 C995 1.400 . S
C995 C994 1.400 . S
C995 C996 1.398 . S
C995 C1001 1.491 . S
C996 H987 0.950 . S
C996 C995 1.398 . S
C996 C997 1.391 . S
C997 H985 0.950 . S
C997 C993 1.393 . S
C997 C996 1.391 . S
C998 H988 0.950 . S
C998 C999 1.386 . S
C998 C1000 1.391 . S
C999 C998 1.386 . S
C999 C1003 1.393 . S
C1000 H989 0.950 . S
C1000 C998 1.391 . S
C1000 C1001 1.400 . S
C1001 C995 1.491 . S
C1001 C1000 1.400 . S
C1001 C1002 1.398 . S
C1002 H990 0.950 . S
C1002 C1001 1.398 . S
C1002 C1003 1.391 . S
C1003 H991 0.950 . S
C1003 C999 1.393 . S
C1003 C1002 1.391 . S
H1004 C1012 0.950 . S
H1005 C1017 0.950 . S
H1006 C1014 0.941 1_554 S
H1007 C1016 0.950 . S
H1008 C1018 0.950 . S
H1009 C1020 0.950 . S
H1010 C1022 0.950 1_655 S
H1011 C1023 0.950 1_655 S
C1012 H1004 0.950 . S
C1012 C1013 1.386 1_655 S
C1012 C1014 1.378 1_554 S
C1013 C1012 1.386 1_455 S
C1013 C1017 1.393 1_554 S
C1014 H1006 0.941 1_556 S
C1014 C1012 1.378 1_556 S
C1014 C1015 1.423 1_655 S
C1015 C1014 1.423 1_455 S
C1015 C1016 1.398 . S
C1015 C1021 1.491 . S
C1016 H1007 0.950 . S
C1016 C1015 1.398 . S
C1016 C1017 1.391 . S
C1017 H1005 0.950 . S
C1017 C1013 1.393 1_556 S
C1017 C1016 1.391 . S
C1018 H1008 0.950 . S
C1018 C1019 1.386 . S
C1018 C1020 1.391 . S
C1019 C1018 1.386 . S
C1019 C1023 1.393 . S
C1020 H1009 0.950 . S
C1020 C1018 1.391 . S
C1020 C1021 1.400 . S
C1021 C1015 1.491 . S
C1021 C1020 1.400 . S
C1021 C1022 1.398 . S
C1022 H1010 0.950 1_455 S
C1022 C1021 1.398 . S
C1022 C1023 1.391 . S
C1023 H1011 0.950 1_455 S
C1023 C1019 1.393 . S
C1023 C1022 1.391 . S
H1024 C1032 0.950 . S
H1025 C1037 0.950 . S
H1026 C1034 0.950 . S
H1027 C1036 0.950 . S
H1028 C1038 0.950 . S
H1029 C1040 0.950 . S
H1030 C1042 0.950 . S
H1031 C1043 0.950 . S
C1032 H1024 0.950 . S
C1032 C1033 1.386 . S
C1032 C1034 1.391 . S
C1033 C1032 1.386 . S
C1033 C1037 1.393 . S
C1034 H1026 0.950 . S
C1034 C1032 1.391 . S
C1034 C1035 1.400 . S
C1035 C1034 1.400 . S
C1035 C1036 1.398 . S
C1035 C1041 1.491 . S
C1036 H1027 0.950 . S
C1036 C1035 1.398 . S
C1036 C1037 1.391 . S
C1037 H1025 0.950 . S
C1037 C1033 1.393 . S
C1037 C1036 1.391 . S
C1038 H1028 0.950 . S
C1038 C1039 1.386 . S
C1038 C1040 1.391 . S
C1039 C1038 1.386 . S
C1039 C1043 1.393 . S
C1040 H1029 0.950 . S
C1040 C1038 1.391 . S
C1040 C1041 1.400 . S
C1041 C1035 1.491 . S
C1041 C1040 1.400 . S
C1041 C1042 1.398 . S
C1042 H1030 0.950 . S
C1042 C1041 1.398 . S
C1042 C1043 1.391 . S
C1043 H1031 0.950 . S
C1043 C1039 1.393 . S
C1043 C1042 1.391 . S
H1044 C1052 0.950 1_554 S
H1045 C1057 0.950 . S
H1046 C1054 0.950 . S
H1047 C1056 0.950 . S
H1048 C1058 0.929 1_655 S
H1049 C1060 0.950 . S
H1050 C1062 0.950 . S
H1051 C1063 0.950 . S
C1052 H1044 0.950 1_556 S
C1052 C1053 1.386 . S
C1052 C1054 1.391 . S
C1053 C1052 1.386 . S
C1053 C1057 1.393 . S
C1054 H1046 0.950 . S
C1054 C1052 1.391 . S
C1054 C1055 1.400 . S
C1055 C1054 1.400 . S
C1055 C1056 1.398 . S
C1055 C1061 1.491 . S
C1056 H1047 0.950 . S
C1056 C1055 1.398 . S
C1056 C1057 1.391 . S
C1057 H1045 0.950 . S
C1057 C1053 1.393 . S
C1057 C1056 1.391 . S
C1058 H1048 0.929 1_455 S
C1058 C1059 1.386 . S
C1058 C1060 1.391 . S
C1059 C1058 1.386 . S
C1059 C1063 1.393 . S
C1060 H1049 0.950 . S
C1060 C1058 1.391 . S
C1060 C1061 1.400 . S
C1061 C1055 1.491 . S
C1061 C1060 1.400 . S
C1061 C1062 1.398 . S
C1062 H1050 0.950 . S
C1062 C1061 1.398 . S
C1062 C1063 1.391 . S
C1063 H1051 0.950 . S
C1063 C1059 1.393 . S
C1063 C1062 1.391 . S
H1064 C1072 0.950 . S
H1065 C1077 0.950 . S
H1066 C1074 0.950 . S
H1067 C1076 0.950 . S
H1068 C1078 0.950 . S
H1069 C1080 0.950 . S
H1070 C1082 0.950 . S
H1071 C1083 0.950 . S
C1072 H1064 0.950 . S
C1072 C1073 1.386 . S
C1072 C1074 1.391 . S
C1073 C1072 1.386 . S
C1073 C1077 1.393 . S
C1074 H1066 0.950 . S
C1074 C1072 1.391 . S
C1074 C1075 1.400 . S
C1075 C1074 1.400 . S
C1075 C1076 1.398 . S
C1075 C1081 1.491 . S
C1076 H1067 0.950 . S
C1076 C1075 1.398 . S
C1076 C1077 1.391 . S
C1077 H1065 0.950 . S
C1077 C1073 1.393 . S
C1077 C1076 1.391 . S
C1078 H1068 0.950 . S
C1078 C1079 1.386 . S
C1078 C1080 1.391 . S
C1079 C1078 1.386 . S
C1079 C1083 1.393 . S
C1080 H1069 0.950 . S
C1080 C1078 1.391 . S
C1080 C1081 1.400 . S
C1081 C1075 1.491 . S
C1081 C1080 1.400 . S
C1081 C1082 1.398 . S
C1082 H1070 0.950 . S
C1082 C1081 1.398 . S
C1082 C1083 1.391 . S
C1083 H1071 0.950 . S
C1083 C1079 1.393 . S
C1083 C1082 1.391 . S
H1084 C1092 0.950 . S
H1085 C1097 0.950 . S
H1086 C1094 0.950 . S
H1087 C1096 0.950 . S
H1088 C1098 0.950 . S
H1089 C1100 0.950 . S
H1090 C1102 0.950 . S
H1091 C1103 0.950 . S
C1092 H1084 0.950 . S
C1092 C1093 1.386 . S
C1092 C1094 1.391 . S
C1093 C1092 1.386 . S
C1093 C1097 1.393 . S
C1094 H1086 0.950 . S
C1094 C1092 1.391 . S
C1094 C1095 1.400 . S
C1095 C1094 1.400 . S
C1095 C1096 1.398 . S
C1095 C1101 1.491 . S
C1096 H1087 0.950 . S
C1096 C1095 1.398 . S
C1096 C1097 1.391 . S
C1097 H1085 0.950 . S
C1097 C1093 1.393 . S
C1097 C1096 1.391 . S
C1098 H1088 0.950 . S
C1098 C1099 1.386 . S
C1098 C1100 1.391 . S
C1099 C1098 1.386 . S
C1099 C1103 1.393 . S
C1100 H1089 0.950 . S
C1100 C1098 1.391 . S
C1100 C1101 1.400 . S
C1101 C1095 1.491 . S
C1101 C1100 1.400 . S
C1101 C1102 1.398 . S
C1102 H1090 0.950 . S
C1102 C1101 1.398 . S
C1102 C1103 1.391 . S
C1103 H1091 0.950 . S
C1103 C1099 1.393 . S
C1103 C1102 1.391 . S
H1104 C1112 0.950 . S
H1105 C1117 0.950 . S
H1106 C1114 0.950 . S
H1107 C1116 0.950 . S
H1108 C1118 0.950 . S
H1109 C1120 0.950 . S
H1110 C1122 0.950 . S
H1111 C1123 0.950 . S
C1112 H1104 0.950 . S
C1112 C1113 1.386 . S
C1112 C1114 1.391 . S
C1113 C1112 1.386 . S
C1113 C1117 1.393 . S
C1114 H1106 0.950 . S
C1114 C1112 1.391 . S
C1114 C1115 1.400 . S
C1115 C1114 1.400 . S
C1115 C1116 1.398 . S
C1115 C1121 1.491 . S
C1116 H1107 0.950 . S
C1116 C1115 1.398 . S
C1116 C1117 1.391 . S
C1117 H1105 0.950 . S
C1117 C1113 1.393 . S
C1117 C1116 1.391 . S
C1118 H1108 0.950 . S
C1118 C1119 1.386 . S
C1118 C1120 1.391 . S
C1119 C1118 1.386 . S
C1119 C1123 1.393 . S
C1120 H1109 0.950 . S
C1120 C1118 1.391 . S
C1120 C1121 1.400 . S
C1121 C1115 1.491 . S
C1121 C1120 1.400 . S
C1121 C1122 1.398 . S
C1122 H1110 0.950 . S
C1122 C1121 1.398 . S
C1122 C1123 1.391 . S
C1123 H1111 0.950 . S
C1123 C1119 1.393 . S
C1123 C1122 1.391 . S
H1124 C1132 0.972 . S
H1125 C1137 0.950 . S
H1126 C1134 0.950 . S
H1127 C1136 0.950 . S
H1128 C1138 0.950 . S
H1129 C1140 0.950 . S
H1130 C1142 0.950 . S
H1131 C1143 0.950 . S
C1132 H1124 0.972 . S
C1132 C1133 1.376 1_556 S
C1132 C1134 1.379 1_556 S
C1133 C1132 1.376 1_554 S
C1133 C1137 1.393 . S
C1134 H1126 0.950 . S
C1134 C1132 1.379 1_554 S
C1134 C1135 1.400 . S
C1135 C1134 1.400 . S
C1135 C1136 1.398 . S
C1135 C1141 1.491 . S
C1136 H1127 0.950 . S
C1136 C1135 1.398 . S
C1136 C1137 1.391 . S
C1137 H1125 0.950 . S
C1137 C1133 1.393 . S
C1137 C1136 1.391 . S
C1138 H1128 0.950 . S
C1138 C1139 1.386 . S
C1138 C1140 1.391 . S
C1139 C1138 1.386 . S
C1139 C1143 1.393 . S
C1140 H1129 0.950 . S
C1140 C1138 1.391 . S
C1140 C1141 1.400 . S
C1141 C1135 1.491 . S
C1141 C1140 1.400 . S
C1141 C1142 1.398 . S
C1142 H1130 0.950 . S
C1142 C1141 1.398 . S
C1142 C1143 1.391 . S
C1143 H1131 0.950 . S
C1143 C1139 1.393 . S
C1143 C1142 1.391 . S
H1144 C1152 0.950 . S
H1145 C1157 0.950 . S
H1146 C1154 0.950 . S
H1147 C1156 0.950 . S
H1148 C1158 0.950 . S
H1149 C1160 0.950 . S
H1150 C1162 0.950 . S
H1151 C1163 0.950 . S
C1152 H1144 0.950 . S
C1152 C1153 1.386 . S
C1152 C1154 1.391 . S
C1153 C1152 1.386 . S
C1153 C1157 1.393 . S
C1154 H1146 0.950 . S
C1154 C1152 1.391 . S
C1154 C1155 1.400 . S
C1155 C1154 1.400 . S
C1155 C1156 1.398 . S
C1155 C1161 1.491 . S
C1156 H1147 0.950 . S
C1156 C1155 1.398 . S
C1156 C1157 1.391 . S
C1157 H1145 0.950 . S
C1157 C1153 1.393 . S
C1157 C1156 1.391 . S
C1158 H1148 0.950 . S
C1158 C1159 1.386 . S
C1158 C1160 1.391 . S
C1159 C1158 1.386 . S
C1159 C1163 1.393 . S
C1160 H1149 0.950 . S
C1160 C1158 1.391 . S
C1160 C1161 1.400 . S
C1161 C1155 1.491 . S
C1161 C1160 1.400 . S
C1161 C1162 1.398 . S
C1162 H1150 0.950 . S
C1162 C1161 1.398 . S
C1162 C1163 1.391 . S
C1163 H1151 0.950 . S
C1163 C1159 1.393 . S
C1163 C1162 1.391 . S
H1164 C1172 0.950 . S
H1165 C1177 0.950 . S
H1166 C1174 0.950 . S
H1167 C1176 0.950 . S
H1168 C1178 0.950 . S
H1169 C1180 0.950 . S
H1170 C1182 0.950 . S
H1171 C1183 0.950 . S
C1172 H1164 0.950 . S
C1172 C1173 1.386 . S
C1172 C1174 1.391 . S
C1173 C1172 1.386 . S
C1173 C1177 1.393 . S
C1174 H1166 0.950 . S
C1174 C1172 1.391 . S
C1174 C1175 1.400 . S
C1175 C1174 1.400 . S
C1175 C1176 1.398 . S
C1175 C1181 1.491 . S
C1176 H1167 0.950 . S
C1176 C1175 1.398 . S
C1176 C1177 1.391 . S
C1177 H1165 0.950 . S
C1177 C1173 1.393 . S
C1177 C1176 1.391 . S
C1178 H1168 0.950 . S
C1178 C1179 1.386 . S
C1178 C1180 1.391 . S
C1179 C1178 1.386 . S
C1179 C1183 1.393 . S
C1180 H1169 0.950 . S
C1180 C1178 1.391 . S
C1180 C1181 1.400 . S
C1181 C1175 1.491 . S
C1181 C1180 1.400 . S
C1181 C1182 1.398 . S
C1182 H1170 0.950 . S
C1182 C1181 1.398 . S
C1182 C1183 1.391 . S
C1183 H1171 0.950 . S
C1183 C1179 1.393 . S
C1183 C1182 1.391 . S
H1184 C1192 0.950 . S
H1185 C1197 0.950 . S
H1186 C1194 0.950 . S
H1187 C1196 0.950 . S
H1188 C1198 0.950 . S
H1189 C1200 0.950 . S
H1190 C1202 0.950 . S
H1191 C1203 0.950 . S
C1192 H1184 0.950 . S
C1192 C1193 1.386 . S
C1192 C1194 1.391 . S
C1193 C1192 1.386 . S
C1193 C1197 1.393 . S
C1194 H1186 0.950 . S
C1194 C1192 1.391 . S
C1194 C1195 1.400 . S
C1195 C1194 1.400 . S
C1195 C1196 1.398 . S
C1195 C1201 1.491 . S
C1196 H1187 0.950 . S
C1196 C1195 1.398 . S
C1196 C1197 1.391 . S
C1197 H1185 0.950 . S
C1197 C1193 1.393 . S
C1197 C1196 1.391 . S
C1198 H1188 0.950 . S
C1198 C1199 1.386 . S
C1198 C1200 1.391 . S
C1199 C1198 1.386 . S
C1199 C1203 1.393 . S
C1200 H1189 0.950 . S
C1200 C1198 1.391 . S
C1200 C1201 1.400 . S
C1201 C1195 1.491 . S
C1201 C1200 1.400 . S
C1201 C1202 1.398 . S
C1202 H1190 0.950 . S
C1202 C1201 1.398 . S
C1202 C1203 1.391 . S
C1203 H1191 0.950 . S
C1203 C1199 1.393 . S
C1203 C1202 1.391 . S
H1204 C1212 0.950 . S
H1205 C1217 0.950 . S
H1206 C1214 0.950 . S
H1207 C1216 0.950 . S
H1208 C1218 0.950 . S
H1209 C1220 0.950 . S
H1210 C1222 0.950 . S
H1211 C1223 0.950 . S
C1212 H1204 0.950 . S
C1212 C1213 1.386 . S
C1212 C1214 1.391 . S
C1213 C1212 1.386 . S
C1213 C1217 1.393 . S
C1214 H1206 0.950 . S
C1214 C1212 1.391 . S
C1214 C1215 1.400 . S
C1215 C1214 1.400 . S
C1215 C1216 1.398 . S
C1215 C1221 1.491 . S
C1216 H1207 0.950 . S
C1216 C1215 1.398 . S
C1216 C1217 1.391 . S
C1217 H1205 0.950 . S
C1217 C1213 1.393 . S
C1217 C1216 1.391 . S
C1218 H1208 0.950 . S
C1218 C1219 1.386 . S
C1218 C1220 1.391 . S
C1219 C1218 1.386 . S
C1219 C1223 1.393 . S
C1220 H1209 0.950 . S
C1220 C1218 1.391 . S
C1220 C1221 1.400 . S
C1221 C1215 1.491 . S
C1221 C1220 1.400 . S
C1221 C1222 1.398 . S
C1222 H1210 0.950 . S
C1222 C1221 1.398 . S
C1222 C1223 1.391 . S
C1223 H1211 0.950 . S
C1223 C1219 1.393 . S
C1223 C1222 1.391 . S
H1224 C1232 0.950 . S
H1225 C1237 0.950 . S
H1226 C1234 0.950 . S
H1227 C1236 0.950 . S
H1228 C1238 0.950 . S
H1229 C1240 0.950 . S
H1230 C1242 0.950 . S
H1231 C1243 0.950 . S
C1232 H1224 0.950 . S
C1232 C1233 1.386 . S
C1232 C1234 1.391 . S
C1233 C1232 1.386 . S
C1233 C1237 1.393 1_556 S
C1234 H1226 0.950 . S
C1234 C1232 1.391 . S
C1234 C1235 1.400 . S
C1235 C1234 1.400 . S
C1235 C1236 1.398 1_556 S
C1235 C1241 1.491 . S
C1236 H1227 0.950 . S
C1236 C1235 1.398 1_554 S
C1236 C1237 1.391 . S
C1237 H1225 0.950 . S
C1237 C1233 1.393 1_554 S
C1237 C1236 1.391 . S
C1238 H1228 0.950 . S
C1238 C1239 1.386 1_554 S
C1238 C1240 1.391 . S
C1239 C1238 1.386 1_556 S
C1239 C1243 1.393 . S
C1240 H1229 0.950 . S
C1240 C1238 1.391 . S
C1240 C1241 1.400 1_554 S
C1241 C1235 1.491 . S
C1241 C1240 1.400 1_556 S
C1241 C1242 1.398 . S
C1242 H1230 0.950 . S
C1242 C1241 1.398 . S
C1242 C1243 1.391 . S
C1243 H1231 0.950 . S
C1243 C1239 1.393 . S
C1243 C1242 1.391 . S
H1244 C1252 0.950 . S
H1245 C1257 0.950 . S
H1246 C1254 0.950 . S
H1247 C1256 0.950 . S
H1248 C1258 0.950 . S
H1249 C1260 0.950 . S
H1250 C1262 0.950 . S
H1251 C1263 0.950 . S
C1252 H1244 0.950 . S
C1252 C1253 1.386 . S
C1252 C1254 1.391 . S
C1253 C1252 1.386 . S
C1253 C1257 1.393 . S
C1254 H1246 0.950 . S
C1254 C1252 1.391 . S
C1254 C1255 1.400 . S
C1255 C1254 1.400 . S
C1255 C1256 1.398 . S
C1255 C1261 1.491 . S
C1256 H1247 0.950 . S
C1256 C1255 1.398 . S
C1256 C1257 1.391 . S
C1257 H1245 0.950 . S
C1257 C1253 1.393 . S
C1257 C1256 1.391 . S
C1258 H1248 0.950 . S
C1258 C1259 1.386 . S
C1258 C1260 1.391 . S
C1259 C1258 1.386 . S
C1259 C1263 1.393 . S
C1260 H1249 0.950 . S
C1260 C1258 1.391 . S
C1260 C1261 1.400 . S
C1261 C1255 1.491 . S
C1261 C1260 1.400 . S
C1261 C1262 1.398 . S
C1262 H1250 0.950 . S
C1262 C1261 1.398 . S
C1262 C1263 1.391 . S
C1263 H1251 0.950 . S
C1263 C1259 1.393 . S
C1263 C1262 1.391 . S
H1264 C1272 0.950 . S
H1265 C1277 0.950 . S
H1266 C1274 0.950 . S
H1267 C1276 0.950 . S
H1268 C1278 0.950 . S
H1269 C1280 0.950 . S
H1270 C1282 0.950 . S
H1271 C1283 0.950 . S
C1272 H1264 0.950 . S
C1272 C1273 1.386 . S
C1272 C1274 1.391 . S
C1273 C1272 1.386 . S
C1273 C1277 1.393 . S
C1274 H1266 0.950 . S
C1274 C1272 1.391 . S
C1274 C1275 1.400 . S
C1275 C1274 1.400 . S
C1275 C1276 1.398 . S
C1275 C1281 1.491 . S
C1276 H1267 0.950 . S
C1276 C1275 1.398 . S
C1276 C1277 1.391 . S
C1277 H1265 0.950 . S
C1277 C1273 1.393 . S
C1277 C1276 1.391 . S
C1278 H1268 0.950 . S
C1278 C1279 1.386 . S
C1278 C1280 1.391 . S
C1279 C1278 1.386 . S
C1279 C1283 1.393 . S
C1280 H1269 0.950 . S
C1280 C1278 1.391 . S
C1280 C1281 1.400 . S
C1281 C1275 1.491 . S
C1281 C1280 1.400 . S
C1281 C1282 1.398 . S
C1282 H1270 0.950 . S
C1282 C1281 1.398 . S
C1282 C1283 1.391 . S
C1283 H1271 0.950 . S
C1283 C1279 1.393 . S
C1283 C1282 1.391 . S
H1284 C1292 0.950 . S
H1285 C1297 0.950 . S
H1286 C1294 0.950 . S
H1287 C1296 0.950 . S
H1288 C1298 0.950 . S
H1289 C1300 0.950 . S
H1290 C1302 0.950 . S
H1291 C1303 0.950 . S
C1292 H1284 0.950 . S
C1292 C1293 1.386 1_565 S
C1292 C1294 1.391 . S
C1293 C1292 1.386 1_545 S
C1293 C1297 1.393 . S
C1294 H1286 0.950 . S
C1294 C1292 1.391 . S
C1294 C1295 1.400 . S
C1295 C1294 1.400 . S
C1295 C1296 1.398 1_565 S
C1295 C1301 1.491 . S
C1296 H1287 0.950 . S
C1296 C1295 1.398 1_545 S
C1296 C1297 1.391 . S
C1297 H1285 0.950 . S
C1297 C1293 1.393 . S
C1297 C1296 1.391 . S
C1298 H1288 0.950 . S
C1298 C1299 1.386 . S
C1298 C1300 1.391 . S
C1299 C1298 1.386 . S
C1299 C1303 1.393 . S
C1300 H1289 0.950 . S
C1300 C1298 1.391 . S
C1300 C1301 1.400 . S
C1301 C1295 1.491 . S
C1301 C1300 1.400 . S
C1301 C1302 1.398 . S
C1302 H1290 0.950 . S
C1302 C1301 1.398 . S
C1302 C1303 1.391 . S
C1303 H1291 0.950 . S
C1303 C1299 1.393 . S
C1303 C1302 1.391 . S
C359 C187 1.521 . S
C353 C60 1.551 . S
C379 C195 1.098 . S
C373 C76 1.344 . S
C393 C81 1.637 . S
C399 C215 1.608 . S
C419 C229 1.549 . S
C413 C48 1.596 . S
C439 C244 1.532 . S
C433 C115 1.527 . S
C459 C258 1.611 . S
C453 C136 1.614 . S
C473 C131 1.406 . S
C479 C272 1.404 . S
C499 C278 1.487 . S
C493 C104 1.525 . S
C513 C126 1.532 . S
C519 C292 1.513 . S
C539 C313 1.436 . S
C533 C103 1.450 . S
C553 C120 1.387 . S
C559 C293 1.148 . S
C579 C314 1.439 . S
C573 C142 1.435 . S
C593 C82 1.471 . S
C599 C321 1.188 . S
C613 C54 1.791 . S
C619 C327 1.777 . S
C633 C65 1.407 . S
C639 C320 1.358 . S
C653 C71 1.244 . S
C659 C328 1.248 . S
C673 C37 1.577 . S
C679 C222 1.549 . S
C693 C158 1.939 . S
C699 C223 1.744 . S
C719 C180 1.382 . S
C713 C169 1.422 1_565 S
C739 C201 1.244 . S
C733 C98 1.240 . S
C753 C49 1.702 1_545 S
C759 C236 1.692 . S
C779 C286 1.452 . S
C773 C125 1.447 . S
C799 C237 1.186 . S
C793 C109 1.337 . S
C819 C265 1.525 . S
C813 C137 1.803 . S
C839 C271 1.521 . S
C833 C159 1.552 . S
C853 C175 1.341 . S
C859 C279 1.153 . S
C873 C92 1.637 . S
C879 C243 1.608 . S
C899 C257 1.561 . S
C893 C147 1.596 . S
C913 C38 1.529 . S
C919 C216 1.531 . S
C939 C230 1.613 . S
C933 C4 1.612 . S
C959 C188 1.409 . S
C953 C21 1.409 . S
C979 C194 1.479 . S
C973 C27 1.521 . S
C993 C16 1.528 . S
C999 C306 1.493 . S
C1013 C26 1.451 . S
C1019 C299 1.436 . S
C1033 C43 1.389 . S
C1039 C307 1.162 . S
C1053 C10 1.437 1_556 S
C1059 C300 1.436 . S
C1079 C335 1.235 . S
C1073 C93 1.480 . S
C1099 C341 1.765 . S
C1093 C153 1.796 . S
C1119 C334 1.372 . S
C1113 C164 1.408 . S
C1133 C170 1.235 1_554 S
C1139 C342 1.248 . S
C1153 C114 1.577 . S
C1159 C250 1.536 . S
C1179 C251 1.726 . S
C1173 C59 1.941 . S
C1199 C264 1.362 . S
C1193 C70 1.415 . S
C1219 C285 1.245 . S
C1213 C87 1.244 . S
C1233 C148 1.704 . S
C1239 C208 1.696 . S
C1259 C202 1.450 . S
C1253 C15 1.448 . S
C1273 C32 1.337 . S
C1279 C209 1.178 . S
C1299 C181 1.484 . S
C1293 C5 1.806 . S
