# Generated by pormake.
# Topology csq, (4,8)-cn, num edge types: 1
# Building blocks:
#     Node 0, Type 0, BuildingBlock: NAWXER_clean_linker_0, # of connection points: 4
#     Node 1, Type 0, BuildingBlock: NAWXER_clean_linker_0, # of connection points: 4
#     Node 2, Type 0, BuildingBlock: NAWXER_clean_linker_0, # of connection points: 4
#     Node 3, Type 0, BuildingBlock: NAWXER_clean_linker_0, # of connection points: 4
#     Node 4, Type 0, BuildingBlock: NAWXER_clean_linker_0, # of connection points: 4
#     Node 5, Type 0, BuildingBlock: NAWXER_clean_linker_0, # of connection points: 4
#     Node 6, Type 1, BuildingBlock: TAGTUT_clean_sbu_3, # of connection points: 8
#     Node 7, Type 1, BuildingBlock: TAGTUT_clean_sbu_3, # of connection points: 8
#     Node 8, Type 1, BuildingBlock: TAGTUT_clean_sbu_3, # of connection points: 8
#     Edge 9, Type (0, 1), BuildingBlock: XIVTED_clean_linker_0, # of connection points: 2
#     Edge 10, Type (0, 1), BuildingBlock: XIVTED_clean_linker_0, # of connection points: 2
#     Edge 11, Type (0, 1), BuildingBlock: XIVTED_clean_linker_0, # of connection points: 2
#     Edge 12, Type (0, 1), BuildingBlock: XIVTED_clean_linker_0, # of connection points: 2
#     Edge 13, Type (0, 1), BuildingBlock: XIVTED_clean_linker_0, # of connection points: 2
#     Edge 14, Type (0, 1), BuildingBlock: XIVTED_clean_linker_0, # of connection points: 2
#     Edge 15, Type (0, 1), BuildingBlock: XIVTED_clean_linker_0, # of connection points: 2
#     Edge 16, Type (0, 1), BuildingBlock: XIVTED_clean_linker_0, # of connection points: 2
#     Edge 17, Type (0, 1), BuildingBlock: XIVTED_clean_linker_0, # of connection points: 2
#     Edge 18, Type (0, 1), BuildingBlock: XIVTED_clean_linker_0, # of connection points: 2
#     Edge 19, Type (0, 1), BuildingBlock: XIVTED_clean_linker_0, # of connection points: 2
#     Edge 20, Type (0, 1), BuildingBlock: XIVTED_clean_linker_0, # of connection points: 2
#     Edge 21, Type (0, 1), BuildingBlock: XIVTED_clean_linker_0, # of connection points: 2
#     Edge 22, Type (0, 1), BuildingBlock: XIVTED_clean_linker_0, # of connection points: 2
#     Edge 23, Type (0, 1), BuildingBlock: XIVTED_clean_linker_0, # of connection points: 2
#     Edge 24, Type (0, 1), BuildingBlock: XIVTED_clean_linker_0, # of connection points: 2
#     Edge 25, Type (0, 1), BuildingBlock: XIVTED_clean_linker_0, # of connection points: 2
#     Edge 26, Type (0, 1), BuildingBlock: XIVTED_clean_linker_0, # of connection points: 2
#     Edge 27, Type (0, 1), BuildingBlock: XIVTED_clean_linker_0, # of connection points: 2
#     Edge 28, Type (0, 1), BuildingBlock: XIVTED_clean_linker_0, # of connection points: 2
#     Edge 29, Type (0, 1), BuildingBlock: XIVTED_clean_linker_0, # of connection points: 2
#     Edge 30, Type (0, 1), BuildingBlock: XIVTED_clean_linker_0, # of connection points: 2
#     Edge 31, Type (0, 1), BuildingBlock: XIVTED_clean_linker_0, # of connection points: 2
#     Edge 32, Type (0, 1), BuildingBlock: XIVTED_clean_linker_0, # of connection points: 2
# Relax obj value: 0.028
# Max RMSD: 0.110
# Mean RMSD: 0.041
data_MOF--net-csq--node1-TAGTUT_clean_sbu_3--node2-NAWXER_clean_linker_0--edge1-XIVTED_clean_linker_0
_symmetry_space_group_name_H-M    P1
_symmetry_Int_Tables_number       1
_symmetry_cell_setting            triclinic
loop_
_symmetry_equiv_pos_as_xyz
'x, y, z'
_cell_length_a     62.460973
_cell_length_b     61.514919
_cell_length_c     21.893281
_cell_angle_alpha  92.083567
_cell_angle_beta   92.125581
_cell_angle_gamma 120.15186
loop_
_atom_site_label
_atom_site_type_symbol
_atom_site_fract_x
_atom_site_fract_y
_atom_site_fract_z
_atom_type_partial_charge
C0 C 0.34212 0.54039 0.07547 0.0
C1 C 0.33696 0.51952 0.03612 0.0
C2 C 0.32286 0.54186 0.10214 0.0
C3 C 0.29815 0.52231 0.09073 0.0
C4 C 0.31203 0.50108 0.02088 0.0
C5 C 0.2928 0.50249 0.04787 0.0
C6 C 0.27826 0.52089 0.12818 0.0
C7 C 0.32951 0.50836 0.2493 0.0
C8 C 0.34182 0.52694 0.29718 0.0
C9 C 0.30951 0.50696 0.2155 0.0
C10 C 0.302 0.5246 0.22784 0.0
C11 C 0.33407 0.54436 0.31022 0.0
C12 C 0.31425 0.54319 0.27568 0.0
C13 C 0.2806 0.52287 0.19278 0.0
C14 C 0.17648 0.4902 0.2618 0.0
C15 C 0.182 0.50755 0.31169 0.0
C16 C 0.19525 0.49249 0.22503 0.0
C17 C 0.21964 0.51285 0.23593 0.0
C18 C 0.20654 0.52709 0.32462 0.0
C19 C 0.22518 0.52978 0.28691 0.0
C20 C 0.23974 0.51628 0.19627 0.0
C21 C 0.18011 0.51654 0.0802 0.0
C22 C 0.16947 0.49729 0.03292 0.0
C23 C 0.20272 0.52289 0.11032 0.0
C24 C 0.21461 0.50935 0.09593 0.0
C25 C 0.18227 0.48481 0.01622 0.0
C26 C 0.20456 0.49071 0.04763 0.0
C27 C 0.23728 0.51413 0.13135 0.0
H28 H 0.36106 0.55496 0.0881 0.0
H29 H 0.32737 0.55762 0.13421 0.0
H30 H 0.30736 0.48513 0.98933 0.0
H31 H 0.27387 0.48735 0.03786 0.0
H32 H 0.33474 0.49432 0.23953 0.0
H33 H 0.29971 0.49188 0.18027 0.0
H34 H 0.34323 0.55872 0.34734 0.0
H35 H 0.30845 0.55672 0.2863 0.0
H36 H 0.1577 0.47475 0.2517 0.0
H37 H 0.19064 0.47847 0.18782 0.0
H38 H 0.21117 0.54062 0.36307 0.0
H39 H 0.2439 0.54535 0.29702 0.0
H40 H 0.17083 0.52648 0.09503 0.0
H41 H 0.21055 0.53796 0.14604 0.0
H42 H 0.17513 0.47045 0.97889 0.0
H43 H 0.2137 0.48034 0.03497 0.0
N44 N 0.25657 0.51631 0.09982 0.0
N45 N 0.26143 0.52076 0.22429 0.0
C46 C 0.68312 0.17145 0.19413 0.0
C47 C 0.69048 0.1555 0.22043 0.0
C48 C 0.70052 0.19388 0.17016 0.0
C49 C 0.72568 0.2009 0.17195 0.0
C50 C 0.7159 0.16311 0.22414 0.0
C51 C 0.73335 0.1857 0.20051 0.0
C52 C 0.74354 0.22308 0.14007 0.0
C53 C 0.69708 0.16128 0.00105 0.0
C54 C 0.68092 0.1656 0.96389 0.0
C55 C 0.71642 0.18095 0.03693 0.0
C56 C 0.71961 0.20522 0.03788 0.0
C57 C 0.68453 0.19009 0.96367 0.0
C58 C 0.70381 0.20978 1.0003 0.0
C59 C 0.73963 0.22577 0.0777 0.0
C60 C 0.83387 0.31916 0.01855 0.0
C61 C 0.82314 0.32703 0.97342 0.0
C62 C 0.81888 0.29977 0.05561 0.0
C63 C 0.79288 0.28855 0.04973 0.0
C64 C 0.79727 0.31577 0.96705 0.0
C65 C 0.78232 0.29688 0.00506 0.0
C66 C 0.77618 0.26636 0.08406 0.0
C67 C 0.8252 0.324 0.23737 0.0
C68 C 0.84069 0.31699 0.2685 0.0
C69 C 0.80587 0.30675 0.19631 0.0
C70 C 0.80172 0.28224 0.18621 0.0
C71 C 0.83651 0.29248 0.25802 0.0
C72 C 0.81702 0.27518 0.21771 0.0
C73 C 0.78052 0.26324 0.14634 0.0
H74 H 0.66387 0.16663 0.19194 0.0
H75 H 0.69427 0.20556 0.14909 0.0
H76 H 0.72227 0.15127 0.24366 0.0
H77 H 0.75268 0.19077 0.2022 0.0
H78 H 0.69472 0.14264 0.00282 0.0
H79 H 0.72886 0.17715 0.06418 0.0
H80 H 0.67266 0.1941 0.93469 0.0
H81 H 0.70622 0.22849 0.99985 0.0
H82 H 0.85382 0.32735 0.02353 0.0
H83 H 0.82771 0.29306 0.08705 0.0
H84 H 0.78861 0.32156 0.9325 0.0
H85 H 0.76237 0.28845 0.99877 0.0
H86 H 0.82817 0.34286 0.24445 0.0
H87 H 0.79398 0.3124 0.17316 0.0
H88 H 0.84808 0.28658 0.2818 0.0
H89 H 0.81389 0.25623 0.21094 0.0
N90 N 0.76401 0.24173 0.1719 0.0
N91 N 0.75584 0.24733 0.05232 0.0
C92 C 0.5882 0.72498 0.94509 0.0
C93 C 0.5724 0.71222 0.89263 0.0
C94 C 0.58243 0.73872 0.98667 0.0
C95 C 0.56092 0.74018 0.97621 0.0
C96 C 0.55109 0.71418 0.88194 0.0
C97 C 0.54557 0.72826 0.92304 0.0
C98 C 0.5553 0.75556 0.01835 0.0
C99 C 0.53484 0.68796 0.13094 0.0
C100 C 0.54925 0.69308 0.18634 0.0
C101 C 0.53803 0.7075 0.09458 0.0
C102 C 0.5556 0.73262 0.1129 0.0
C103 C 0.56772 0.7182 0.2027 0.0
C104 C 0.57062 0.73774 0.1668 0.0
C105 C 0.55536 0.75359 0.08231 0.0
C106 C 0.51247 0.80993 0.1868 0.0
C107 C 0.53007 0.82448 0.23516 0.0
C108 C 0.51892 0.79953 0.13806 0.0
C109 C 0.54294 0.80325 0.13724 0.0
C110 C 0.55444 0.829 0.23238 0.0
C111 C 0.56068 0.81816 0.18435 0.0
C112 C 0.54834 0.78813 0.09395 0.0
C113 C 0.55334 0.85143 0.98572 0.0
C114 C 0.53705 0.84374 0.93293 0.0
C115 C 0.55636 0.83388 0.01819 0.0
C116 C 0.54308 0.80821 0.99878 0.0
C117 C 0.52385 0.81802 0.91355 0.0
C118 C 0.52695 0.80051 0.94592 0.0
C119 C 0.54733 0.78954 0.02981 0.0
H120 H 0.60502 0.72433 0.95422 0.0
H121 H 0.59494 0.74847 0.02656 0.0
H122 H 0.53821 0.70425 0.84279 0.0
H123 H 0.52902 0.72943 0.91393 0.0
H124 H 0.52021 0.669 0.11699 0.0
H125 H 0.52572 0.70309 0.05408 0.0
H126 H 0.57964 0.72293 0.24406 0.0
H127 H 0.58418 0.75699 0.18208 0.0
H128 H 0.49346 0.80574 0.18756 0.0
H129 H 0.50483 0.78751 0.10271 0.0
H130 H 0.5687 0.84065 0.26767 0.0
H131 H 0.57926 0.82096 0.18461 0.0
H132 H 0.56422 0.87113 0.00132 0.0
H133 H 0.56964 0.84053 0.05739 0.0
H134 H 0.51091 0.81134 0.87367 0.0
H135 H 0.51665 0.78084 0.92967 0.0
N136 N 0.55103 0.77324 0.99448 0.0
N137 N 0.55214 0.77017 0.11758 0.0
C138 C 0.82837 0.52531 0.91055 0.0
C139 C 0.82244 0.50536 0.86725 0.0
C140 C 0.81199 0.52266 0.95504 0.0
C141 C 0.78949 0.49995 0.95744 0.0
C142 C 0.79933 0.48306 0.86791 0.0
C143 C 0.78288 0.48045 0.91249 0.0
C144 C 0.77341 0.49639 0.00828 0.0
C145 C 0.8391 0.49375 0.07765 0.0
C146 C 0.85566 0.51459 0.11686 0.0
C147 C 0.81503 0.4888 0.06424 0.0
C148 C 0.80722 0.50495 0.08844 0.0
C149 C 0.84748 0.53024 0.14273 0.0
C150 C 0.82344 0.52543 0.12866 0.0
C151 C 0.78241 0.50084 0.07015 0.0
C152 C 0.69037 0.48047 0.19924 0.0
C153 C 0.70015 0.50258 0.23792 0.0
C154 C 0.70495 0.47753 0.15671 0.0
C155 C 0.72941 0.49688 0.1508 0.0
C156 C 0.72521 0.52119 0.23463 0.0
C157 C 0.7397 0.51834 0.19147 0.0
C158 C 0.74398 0.49557 0.10056 0.0
C159 C 0.67996 0.49848 0.00286 0.0
C160 C 0.66574 0.47797 0.96038 0.0
C161 C 0.70191 0.50181 0.03104 0.0
C162 C 0.70965 0.48441 0.01787 0.0
C163 C 0.6729 0.45995 0.94971 0.0
C164 C 0.69474 0.46321 0.97807 0.0
C165 C 0.73456 0.48965 0.03873 0.0
H166 H 0.84608 0.54265 0.91157 0.0
H167 H 0.8172 0.53812 0.98871 0.0
H168 H 0.79414 0.46752 0.83454 0.0
H169 H 0.76544 0.4629 0.9133 0.0
H170 H 0.84475 0.48133 0.05688 0.0
H171 H 0.80258 0.47248 0.03427 0.0
H172 H 0.85953 0.54606 0.17446 0.0
H173 H 0.81768 0.53796 0.14827 0.0
H174 H 0.67115 0.46576 0.19995 0.0
H175 H 0.69682 0.46046 0.127 0.0
H176 H 0.73353 0.53817 0.26462 0.0
H177 H 0.75868 0.53336 0.18831 0.0
H178 H 0.67504 0.51285 0.01108 0.0
H179 H 0.71345 0.51863 0.06049 0.0
H180 H 0.66218 0.44393 0.9173 0.0
H181 H 0.70049 0.44965 0.96718 0.0
N182 N 0.7497 0.49048 0.99489 0.0
N183 N 0.76759 0.50082 0.1141 0.0
C184 C 0.26947 0.88571 0.01044 0.0
C185 C 0.27597 0.88203 0.95171 0.0
C186 C 0.25385 0.86511 0.04331 0.0
C187 C 0.24455 0.84046 0.01814 0.0
C188 C 0.26552 0.85731 0.9255 0.0
C189 C 0.24986 0.83676 0.95829 0.0
C190 C 0.22963 0.81841 0.0539 0.0
C191 C 0.30585 0.85453 0.15663 0.0
C192 C 0.30586 0.86169 0.21836 0.0
C193 C 0.28348 0.84103 0.12088 0.0
C194 C 0.26089 0.83474 0.14629 0.0
C195 C 0.28331 0.85648 0.2424 0.0
C196 C 0.26106 0.84298 0.20688 0.0
C197 C 0.23697 0.81634 0.11408 0.0
C198 C 0.18661 0.72739 0.23283 0.0
C199 C 0.16123 0.71791 0.23975 0.0
C200 C 0.19905 0.74536 0.19059 0.0
C201 C 0.18638 0.75407 0.15382 0.0
C202 C 0.14837 0.72615 0.20181 0.0
C203 C 0.16084 0.74408 0.15917 0.0
C204 C 0.20082 0.77578 0.11648 0.0
C205 C 0.13915 0.74036 0.9416 0.0
C206 C 0.13919 0.71763 0.93347 0.0
C207 C 0.15644 0.7595 0.98319 0.0
C208 C 0.17355 0.75594 0.01838 0.0
C209 C 0.15607 0.71395 0.96944 0.0
C210 C 0.17305 0.73292 0.0117 0.0
C211 C 0.19398 0.77734 0.05532 0.0
H212 H 0.27681 0.90452 0.03147 0.0
H213 H 0.24935 0.86844 0.08873 0.0
H214 H 0.27034 0.85373 0.88072 0.0
H215 H 0.24273 0.81789 0.9378 0.0
H216 H 0.32291 0.85818 0.13695 0.0
H217 H 0.28372 0.83436 0.07459 0.0
H218 H 0.28277 0.86225 0.28939 0.0
H219 H 0.24383 0.83822 0.22739 0.0
H220 H 0.19712 0.72164 0.26168 0.0
H221 H 0.21881 0.75294 0.18767 0.0
H222 H 0.12873 0.71899 0.20568 0.0
H223 H 0.15073 0.75086 0.1323 0.0
H224 H 0.12635 0.74363 0.91423 0.0
H225 H 0.15679 0.77729 0.9871 0.0
H226 H 0.15631 0.6965 0.96431 0.0
H227 H 0.18647 0.72997 0.03728 0.0
N228 N 0.20855 0.79868 0.02655 0.0
N229 N 0.22211 0.79531 0.14313 0.0
C230 C 0.49315 0.18462 0.05751 0.0
C231 C 0.48065 0.17384 1.00004 0.0
C232 C 0.48404 0.1956 0.09818 0.0
C233 C 0.46216 0.19585 0.08234 0.0
C234 C 0.4586 0.17389 0.98474 0.0
C235 C 0.44958 0.18496 0.02528 0.0
C236 C 0.45399 0.21003 0.12151 0.0
C237 C 0.44369 0.14578 0.23299 0.0
C238 C 0.45893 0.15321 0.28765 0.0
C239 C 0.44173 0.16356 0.19903 0.0
C240 C 0.45493 0.18913 0.21904 0.0
C241 C 0.47188 0.17883 0.30787 0.0
C242 C 0.46975 0.19656 0.2741 0.0
C243 C 0.45224 0.20806 0.18521 0.0
C244 C 0.42522 0.28742 0.26175 0.0
C245 C 0.43686 0.29261 0.32118 0.0
C246 C 0.42698 0.27078 0.21961 0.0
C247 C 0.44144 0.25989 0.23491 0.0
C248 C 0.44969 0.28014 0.33749 0.0
C249 C 0.45232 0.26448 0.29484 0.0
C250 C 0.44468 0.24255 0.19201 0.0
C251 C 0.46319 0.30706 0.06579 0.0
C252 C 0.44788 0.29952 0.01124 0.0
C253 C 0.46169 0.2892 0.10591 0.0
C254 C 0.44464 0.26351 0.09253 0.0
C255 C 0.43033 0.27385 0.99913 0.0
C256 C 0.42884 0.25606 0.03918 0.0
C257 C 0.44579 0.24403 0.1276 0.0
H258 H 0.51035 0.18522 0.07042 0.0
H259 H 0.49456 0.20465 0.14108 0.0
H260 H 0.44823 0.16533 0.9414 0.0
H261 H 0.43282 0.18519 0.01188 0.0
H262 H 0.43301 0.12614 0.21672 0.0
H263 H 0.42957 0.15725 0.15771 0.0
H264 H 0.484 0.18529 0.34924 0.0
H265 H 0.47995 0.2162 0.29066 0.0
H266 H 0.41507 0.29649 0.247 0.0
H267 H 0.41695 0.26654 0.17545 0.0
H268 H 0.45802 0.28252 0.38326 0.0
H269 H 0.46312 0.25601 0.30917 0.0
H270 H 0.47673 0.32672 0.07685 0.0
H271 H 0.47448 0.29534 0.14604 0.0
H272 H 0.41849 0.26731 0.95726 0.0
H273 H 0.41587 0.23628 0.02741 0.0
N274 N 0.45036 0.22766 0.0953 0.0
N275 N 0.44776 0.2244 0.21758 0.0
C276 C 0.04549 0.49574 0.56025 0.0
C277 C 0.02228 0.47148 0.78607 0.0
C278 C 0.9498 0.45587 0.72432 0.0
Mg279 Mg 0.02312 0.51924 0.46585 0.0
Mg280 Mg 0.00045 0.55423 0.51677 0.0
O281 O -0.00167 0.52268 0.51517 0.0
Mg282 Mg 0.00462 0.51129 0.59438 0.0
O283 O 0.01134 0.49826 0.67003 0.0
Mg284 Mg -0.00218 0.46203 0.64169 0.0
Mg285 Mg -0.0003 0.50381 0.74288 0.0
C286 C 0.96349 0.52838 0.62142 0.0
O287 O 0.0273 0.55138 0.6421 0.0
O288 O 0.00483 0.52751 0.38245 0.0
O289 O 0.01475 0.54401 0.73851 0.0
O290 O 0.05215 0.56171 0.47732 0.0
O291 O 0.99039 0.55189 0.42104 0.0
O292 O 0.03851 0.58376 0.52882 0.0
O293 O 0.9818 0.47072 0.55406 0.0
O294 O -0.00585 0.47714 0.45841 0.0
C295 C 0.98118 0.46241 0.4991 0.0
C296 C -0.00607 0.54039 0.37597 0.0
O297 O 0.9709 0.51247 0.62803 0.0
O298 O 0.0163 0.45927 0.73335 0.0
O299 O 0.97363 0.54671 0.58601 0.0
O300 O 0.96054 0.44751 0.68977 0.0
O301 O 0.01766 0.48917 0.79873 0.0
O302 O 0.96086 0.47876 0.74514 0.0
O303 O 0.03777 0.51136 0.55516 0.0
O304 O 0.03447 0.4767 0.59295 0.0
C305 C 0.05567 0.58252 0.50189 0.0
C306 C 0.02619 0.55908 0.69675 0.0
C307 C 0.49143 0.02912 0.49374 0.0
C308 C 0.56136 0.01087 0.42979 0.0
C309 C 0.51567 0.93978 0.51469 0.0
Mg310 Mg 0.45876 0.01238 0.6128 0.0
Mg311 Mg 0.47968 -0.00021 0.73746 0.0
O312 O 0.47102 0.99151 0.65388 0.0
Mg313 Mg 0.49804 0.9967 0.59961 0.0
O314 O 0.52353 0.00211 0.54071 0.0
Mg315 Mg 0.50144 0.98296 0.46616 0.0
Mg316 Mg 0.54805 0.99409 0.56243 0.0
C317 C 0.50329 0.96521 0.71338 0.0
O318 O 0.53004 0.02566 0.66574 0.0
O319 O 0.42696 0.99625 0.68056 0.0
O320 O 0.55983 0.01581 0.6499 0.0
O321 O 0.48113 0.04757 0.68015 0.0
O322 O 0.44316 0.98838 0.76485 0.0
O323 O 0.50115 0.03959 0.7541 0.0
O324 O 0.46836 0.96817 0.5293 0.0
O325 O 0.43861 0.97765 0.54561 0.0
C326 C 0.44655 0.96469 0.51738 0.0
C327 C 0.42523 0.98867 0.73517 0.0
O328 O 0.50298 0.96733 0.65493 0.0
O329 O 0.53817 0.00174 0.41414 0.0
O330 O 0.4969 0.97726 0.75059 0.0
O331 O 0.50491 0.94833 0.48079 0.0
O332 O 0.56901 0.00969 0.48405 0.0
O333 O 0.53263 0.95389 0.55551 0.0
O334 O 0.49176 0.02579 0.5512 0.0
O335 O 0.49649 0.01654 0.45502 0.0
C336 C 0.49628 0.05479 0.72748 0.0
C337 C 0.55132 0.02797 0.67959 0.0
C338 C 0.53556 0.55464 0.70154 0.0
C339 C 0.45699 0.48965 0.82009 0.0
C340 C 0.47297 0.43546 0.73842 0.0
Mg341 Mg 0.55511 0.54479 0.57451 0.0
Mg342 Mg 0.51652 0.50219 0.46853 0.0
O343 O 0.52847 0.5092 0.55051 0.0
Mg344 Mg 0.50584 0.50236 0.61826 0.0
O345 O 0.48533 0.49713 0.69029 0.0
Mg346 Mg 0.50915 0.49919 0.75748 0.0
Mg347 Mg 0.45389 0.46783 0.68699 0.0
C348 C 0.47728 0.45144 0.52578 0.0
O349 O 0.47591 0.50512 0.56169 0.0
O350 O 0.57806 0.53925 0.49986 0.0
O351 O 0.44081 0.47562 0.60175 0.0
O352 O 0.54031 0.56215 0.50346 0.0
O353 O 0.55042 0.50719 0.43494 0.0
O354 O 0.51159 0.53222 0.43793 0.0
O355 O 0.53316 0.49832 0.68076 0.0
O356 O 0.56883 0.52709 0.64501 0.0
C357 C 0.55683 0.51003 0.68213 0.0
C358 C 0.57279 0.52344 0.4537 0.0
O359 O 0.48445 0.46074 0.58132 0.0
O360 O 0.48077 0.49959 0.82453 0.0
O361 O 0.48536 0.4646 0.47885 0.0
O362 O 0.49072 0.45635 0.76212 0.0
O363 O 0.44352 0.47678 0.77216 0.0
O364 O 0.45668 0.43471 0.70015 0.0
O365 O 0.52863 0.54433 0.64717 0.0
O366 O 0.52896 0.54164 0.74883 0.0
C367 C 0.52452 0.55527 0.45752 0.0
C368 C 0.45213 0.492 0.56223 0.0
H369 H 0.17843 0.50175 0.43453 0.0
H370 H 0.06416 0.52331 0.4598 0.0
H371 H 0.1408 0.50921 0.27466 0.0
H372 H 0.07462 0.4748 0.57984 0.0
H373 H 0.09747 0.52606 0.3994 0.0
H374 H 0.14532 0.49917 0.49683 0.0
C375 C 0.16317 0.50286 0.41276 0.0
C376 C 0.16212 0.50557 0.34962 0.0
C377 C 0.0924 0.51482 0.43898 0.0
C378 C 0.12479 0.50319 0.42016 0.0
C379 C 0.07345 0.51329 0.47366 0.0
C380 C 0.06636 0.49858 0.52469 0.0
C381 C 0.10479 0.50208 0.45631 0.0
C382 C 0.0793 0.48616 0.54053 0.0
C383 C 0.14435 0.50132 0.44809 0.0
C384 C 0.14207 0.50694 0.32324 0.0
N385 N 0.09801 0.48831 0.50666 0.0
N386 N 0.12426 0.50596 0.35876 0.0
H387 H 0.64315 0.12239 0.17177 0.0
H388 H 0.61132 0.02903 0.4423 0.0
H389 H 0.6948 0.13263 0.32209 0.0
H390 H 0.55509 0.02889 0.32112 0.0
H391 H 0.64322 0.06149 0.38459 0.0
H392 H 0.61188 0.08361 0.21406 0.0
C393 C 0.64796 0.11658 0.2137 0.0
C394 C 0.67167 0.1311 0.24374 0.0
C395 C 0.62391 0.05418 0.37017 0.0
C396 C 0.63601 0.0863 0.29147 0.0
C397 C 0.60562 0.03551 0.40294 0.0
C398 C 0.58039 0.02642 0.38721 0.0
C399 C 0.61704 0.06393 0.32114 0.0
C400 C 0.57426 0.03541 0.33521 0.0
C401 C 0.63012 0.0943 0.23748 0.0
C402 C 0.67693 0.1221 0.29695 0.0
N403 N 0.59248 0.05391 0.30445 0.0
N404 N 0.65924 0.10038 0.31918 0.0
H405 H 0.55246 0.69602 0.31255 0.0
H406 H 0.50197 0.54937 0.34333 0.0
H407 H 0.53394 0.6431 0.15683 0.0
H408 H 0.54555 0.60589 0.48853 0.0
H409 H 0.50635 0.58265 0.27828 0.0
H410 H 0.54397 0.66242 0.3805 0.0
C411 C 0.54685 0.67746 0.29237 0.0
C412 C 0.54421 0.67263 0.22838 0.0
C413 C 0.51478 0.58772 0.32454 0.0
C414 C 0.53361 0.63376 0.30667 0.0
C415 C 0.51215 0.56872 0.36197 0.0
C416 C 0.52362 0.57481 0.42146 0.0
C417 C 0.52873 0.61301 0.34685 0.0
C418 C 0.53655 0.60029 0.44288 0.0
C419 C 0.54177 0.65821 0.33143 0.0
C420 C 0.53604 0.64783 0.20559 0.0
N421 N 0.53883 0.61845 0.40554 0.0
N422 N 0.53102 0.62937 0.24464 0.0
H423 H 0.87003 0.47989 0.1374 0.0
H424 H 0.98915 0.57805 0.32876 0.0
H425 H 0.89906 0.56003 0.1335 0.0
H426 H 0.97217 0.50172 0.28786 0.0
H427 H 0.96067 0.57347 0.24352 0.0
H428 H 0.91041 0.4882 0.17782 0.0
C429 C 0.88501 0.49926 0.14379 0.0
C430 C 0.88095 0.51932 0.1333 0.0
C431 C 0.96357 0.55788 0.25203 0.0
C432 C 0.92718 0.52894 0.18092 0.0
C433 C 0.97982 0.56051 0.30071 0.0
C434 C 0.98252 0.54004 0.31584 0.0
C435 C 0.94944 0.53439 0.21954 0.0
C436 C 0.97036 0.51785 0.27784 0.0
C437 C 0.90812 0.50399 0.16703 0.0
C438 C 0.90111 0.54399 0.14289 0.0
N439 N 0.95376 0.51535 0.23227 0.0
N440 N 0.92323 0.54812 0.16724 0.0
H441 H 0.311 0.85018 0.33488 0.0
H442 H 0.45334 0.95753 0.39686 0.0
H443 H 0.35317 0.89861 0.19457 0.0
H444 H 0.40032 0.92779 0.53535 0.0
H445 H 0.42058 0.9287 0.31915 0.0
H446 H 0.34765 0.8712 0.4055 0.0
C447 C 0.32799 0.86531 0.31893 0.0
C448 C 0.32885 0.87312 0.25922 0.0
C449 C 0.41635 0.92825 0.36677 0.0
C450 C 0.37108 0.89701 0.33978 0.0
C451 C 0.43499 0.94445 0.41091 0.0
C452 C 0.42928 0.94485 0.47209 0.0
C453 C 0.39221 0.91227 0.38475 0.0
C454 C 0.40529 0.92797 0.48841 0.0
C455 C 0.34896 0.87716 0.35917 0.0
C456 C 0.35167 0.89217 0.24042 0.0
N457 N 0.38762 0.9124 0.44499 0.0
N458 N 0.37189 0.90372 0.28088 0.0
H459 H 0.47281 0.32294 0.41105 0.0
H460 H 0.44145 0.42653 0.43395 0.0
H461 H 0.40143 0.30697 0.33205 0.0
H462 H 0.47814 0.41437 0.58854 0.0
H463 H 0.4245 0.38257 0.39703 0.0
H464 H 0.47427 0.35592 0.47744 0.0
C465 C 0.45707 0.32577 0.40824 0.0
C466 C 0.4369 0.3118 0.36511 0.0
C467 C 0.43562 0.38931 0.44 0.0
C468 C 0.43924 0.3508 0.44034 0.0
C469 C 0.44533 0.41435 0.46098 0.0
C470 C 0.46151 0.42405 0.5137 0.0
C471 C 0.44284 0.37425 0.47103 0.0
C472 C 0.46587 0.40758 0.54741 0.0
C473 C 0.45805 0.34485 0.4464 0.0
C474 C 0.41768 0.31749 0.36312 0.0
N475 N 0.45719 0.38359 0.52447 0.0
N476 N 0.41958 0.33692 0.39927 0.0
H477 H 0.53518 0.8846 0.97983 0.0
H478 H 0.5071 0.92615 0.65742 0.0
H479 H 0.53101 0.84556 0.80792 0.0
H480 H 0.51713 0.96572 0.83267 0.0
H481 H 0.51691 0.89695 0.70876 0.0
H482 H 0.52942 0.91492 0.92413 0.0
C483 C 0.53328 0.88249 0.93027 0.0
C484 C 0.53366 0.86244 0.89872 0.0
C485 C 0.51706 0.91214 0.73568 0.0
C486 C 0.52659 0.89713 0.83406 0.0
C487 C 0.51156 0.92886 0.70637 0.0
C488 C 0.51102 0.94829 0.74076 0.0
C489 C 0.52206 0.915 0.79964 0.0
C490 C 0.51692 0.95086 0.80416 0.0
C491 C 0.52983 0.89979 0.89833 0.0
C492 C 0.53053 0.86051 0.83432 0.0
N493 N 0.52204 0.93441 0.83133 0.0
N494 N 0.52708 0.87759 0.8041 0.0
H495 H 0.65971 0.47082 0.83671 0.0
H496 H 0.54273 0.48833 0.79203 0.0
H497 H 0.62746 0.485 0.99329 0.0
H498 H 0.60238 0.51578 0.66978 0.0
H499 H 0.56676 0.47688 0.86176 0.0
H500 H 0.6307 0.47577 0.7693 0.0
C501 C 0.64614 0.47443 0.8569 0.0
C502 C 0.64592 0.47752 0.92058 0.0
C503 C 0.57443 0.48541 0.81958 0.0
C504 C 0.61299 0.48348 0.84376 0.0
C505 C 0.5608 0.49188 0.77985 0.0
C506 C 0.57071 0.50316 0.72536 0.0
C507 C 0.59771 0.4897 0.80358 0.0
C508 C 0.59418 0.50737 0.71163 0.0
C509 C 0.62979 0.47749 0.81843 0.0
C510 C 0.62823 0.48264 0.94433 0.0
N511 N 0.60681 0.50048 0.75033 0.0
N512 N 0.61239 0.48553 0.90575 0.0
H513 H 0.15068 0.69346 0.84516 0.0
H514 H 0.01331 0.58411 0.77841 0.0
H515 H 0.08899 0.6972 0.91566 0.0
H516 H 0.07078 0.59536 0.65839 0.0
H517 H 0.04007 0.62655 0.82523 0.0
H518 H 0.1218 0.65846 0.7735 0.0
C519 C 0.13103 0.68694 0.84519 0.0
C520 C 0.12209 0.69791 0.88676 0.0
C521 C 0.0467 0.61998 0.78787 0.0
C522 C 0.08902 0.65798 0.80527 0.0
C523 C 0.03145 0.59576 0.76121 0.0
C524 C 0.04004 0.58619 0.71514 0.0
C525 C 0.07094 0.6345 0.76936 0.0
C526 C 0.06355 0.60206 0.69404 0.0
C527 C 0.1146 0.66715 0.80401 0.0
C528 C 0.09656 0.68913 0.88442 0.0
N529 N 0.07846 0.62532 0.72231 0.0
N530 N 0.08084 0.66938 0.84501 0.0
H531 H 0.48128 0.17616 0.87506 0.0
H532 H 0.52471 0.07506 0.83523 0.0
H533 H 0.50244 0.14563 0.02483 0.0
H534 H 0.4865 0.0914 0.69171 0.0
H535 H 0.52804 0.11013 0.89892 0.0
H536 H 0.49332 0.15355 0.80303 0.0
C537 C 0.48852 0.16477 0.89288 0.0
C538 C 0.49035 0.16239 0.95617 0.0
C539 C 0.51931 0.10629 0.85308 0.0
C540 C 0.50464 0.13689 0.87386 0.0
C541 C 0.5175 0.08634 0.81647 0.0
C542 C 0.50463 0.07977 0.75862 0.0
C543 C 0.50824 0.11979 0.83167 0.0
C544 C 0.49611 0.09541 0.73649 0.0
C545 C 0.4956 0.15206 0.8517 0.0
C546 C 0.50065 0.14803 0.97655 0.0
N547 N 0.49765 0.11442 0.7735 0.0
N548 N 0.50715 0.1356 0.93549 0.0
H549 H 0.38222 0.55549 0.99781 0.0
H550 H 0.41522 0.45466 0.86832 0.0
H551 H 0.33861 0.47598 0.02489 0.0
H552 H 0.46845 0.53422 0.88112 0.0
H553 H 0.38817 0.46242 0.93169 0.0
H554 H 0.41497 0.54882 0.95946 0.0
C555 C 0.37957 0.53668 0.99612 0.0
C556 C 0.35739 0.5162 0.01368 0.0
C557 C 0.40594 0.47821 0.9218 0.0
C558 C 0.39476 0.50846 0.9697 0.0
C559 C 0.42142 0.47374 0.88589 0.0
C560 C 0.44402 0.49384 0.8698 0.0
C561 C 0.41281 0.50307 0.94047 0.0
C562 C 0.4512 0.51823 0.89316 0.0
C563 C 0.3983 0.5329 0.97427 0.0
C564 C 0.35503 0.49224 0.01025 0.0
N565 N 0.43539 0.52227 0.9265 0.0
N566 N 0.37334 0.48903 0.98826 0.0
H567 H 0.82217 0.32221 0.84881 0.0
H568 H 0.92632 0.46526 0.81595 0.0
H569 H 0.85966 0.37551 0.00332 0.0
H570 H 0.9191 0.40527 0.69229 0.0
H571 H 0.89272 0.43411 0.87284 0.0
H572 H 0.84955 0.35418 0.78033 0.0
C573 C 0.83604 0.34074 0.86809 0.0
C574 C 0.83886 0.34634 0.93159 0.0
C575 C 0.89831 0.42786 0.83276 0.0
C576 C 0.86963 0.38286 0.85399 0.0
C577 C 0.91738 0.44561 0.79985 0.0
C578 C 0.92593 0.43787 0.7497 0.0
C579 C 0.88735 0.40218 0.81494 0.0
C580 C 0.91336 0.41209 0.73103 0.0
C581 C 0.85161 0.35886 0.82917 0.0
C582 C 0.85709 0.3705 0.95459 0.0
N583 N 0.8948 0.39511 0.76395 0.0
N584 N 0.87173 0.38795 0.91576 0.0
H585 H 0.83468 0.46978 0.83528 0.0
H586 H 0.94843 0.56267 0.64307 0.0
H587 H 0.85291 0.5458 0.80252 0.0
H588 H 0.92922 0.48625 0.6743 0.0
H589 H 0.91261 0.55643 0.69804 0.0
H590 H 0.86803 0.47482 0.77195 0.0
C591 C 0.84546 0.48741 0.81399 0.0
C592 C 0.84105 0.50743 0.82429 0.0
C593 C 0.91628 0.54104 0.69295 0.0
C594 C 0.87955 0.5135 0.75264 0.0
C595 C 0.93672 0.5446 0.66158 0.0
C596 C 0.94204 0.52506 0.65483 0.0
C597 C 0.901 0.51776 0.71755 0.0
C598 C 0.92618 0.50202 0.67963 0.0
C599 C 0.86465 0.49036 0.77825 0.0
C600 C 0.85589 0.53 0.79641 0.0
N601 N 0.90642 0.49902 0.70996 0.0
N602 N 0.87455 0.53246 0.76205 0.0
H603 H 0.31878 0.92233 0.00294 0.0
H604 H 0.37784 0.96721 0.68183 0.0
H605 H 0.2777 0.89049 0.82874 0.0
H606 H 0.41908 0.98812 0.8573 0.0
H607 H 0.3391 0.94601 0.73462 0.0
H608 H 0.35333 0.95384 0.94989 0.0
C609 C 0.31678 0.92225 0.95358 0.0
C610 C 0.29536 0.90349 0.92026 0.0
C611 C 0.35665 0.95556 0.76144 0.0
C612 C 0.33529 0.93925 0.85891 0.0
C613 C 0.37872 0.96772 0.7314 0.0
C614 C 0.40166 0.97904 0.76526 0.0
C615 C 0.35769 0.95501 0.82561 0.0
C616 C 0.40179 0.9792 0.82936 0.0
C617 C 0.33666 0.94015 0.9232 0.0
C618 C 0.29407 0.90425 0.85618 0.0
N619 N 0.38018 0.9672 0.85735 0.0
N620 N 0.3139 0.92165 0.82748 0.0
H621 H 0.41195 0.30214 0.94051 0.0
H622 H 0.50893 0.4285 0.7919 0.0
H623 H 0.49135 0.33884 0.97605 0.0
H624 H 0.43027 0.38967 0.74324 0.0
H625 H 0.5029 0.39359 0.85229 0.0
H626 H 0.41814 0.33221 0.86328 0.0
C627 C 0.43069 0.31645 0.93198 0.0
C628 C 0.45115 0.31805 0.96533 0.0
C629 C 0.48695 0.39247 0.82785 0.0
C630 C 0.45835 0.35257 0.87693 0.0
C631 C 0.4904 0.41238 0.79306 0.0
C632 C 0.47002 0.41209 0.76293 0.0
C633 C 0.46287 0.37219 0.83334 0.0
C634 C 0.44648 0.39065 0.76574 0.0
C635 C 0.43419 0.33361 0.88785 0.0
C636 C 0.47498 0.33715 0.95255 0.0
N637 N 0.44348 0.3717 0.80121 0.0
N638 N 0.47789 0.35365 0.90959 0.0
H639 H 0.15098 0.52839 0.00818 0.0
H640 H 0.04343 0.44165 0.77384 0.0
H641 H 0.13256 0.45064 0.98407 0.0
H642 H 0.03743 0.4932 0.90197 0.0
H643 H 0.07704 0.44426 0.84135 0.0
H644 H 0.11108 0.51691 0.95815 0.0
C645 C 0.13853 0.50884 0.99322 0.0
C646 C 0.14526 0.49047 0.00114 0.0
C647 C 0.06789 0.4545 0.85492 0.0
C648 C 0.09975 0.47747 0.94163 0.0
C649 C 0.04874 0.45303 0.81661 0.0
C650 C 0.03801 0.46772 0.83151 0.0
C651 C 0.07643 0.47104 0.90744 0.0
C652 C 0.04551 0.48199 0.88777 0.0
C653 C 0.11576 0.50236 0.96438 0.0
C654 C 0.12845 0.46559 0.97828 0.0
N655 N 0.06465 0.48375 0.92298 0.0
N656 N 0.10652 0.45983 0.94885 0.0
H657 H 0.6828 0.1278 0.89943 0.0
H658 H 0.5489 0.06803 0.73092 0.0
H659 H 0.63321 0.15558 0.93871 0.0
H660 H 0.59133 0.03026 0.74012 0.0
H661 H 0.57905 0.10072 0.80555 0.0
H662 H 0.64948 0.09277 0.83735 0.0
C663 C 0.66482 0.12642 0.8955 0.0
C664 C 0.66077 0.14459 0.92478 0.0
C665 C 0.58153 0.08509 0.79171 0.0
C666 C 0.62254 0.10463 0.85254 0.0
C667 C 0.56422 0.06631 0.74956 0.0
C668 C 0.56759 0.04638 0.72931 0.0
C669 C 0.60244 0.08399 0.81292 0.0
C670 C 0.58812 0.04542 0.75391 0.0
C671 C 0.64579 0.10642 0.85982 0.0
C672 C 0.63722 0.14214 0.91647 0.0
N673 N 0.60487 0.06408 0.79398 0.0
N674 N 0.61896 0.12252 0.88087 0.0
H675 H 0.56347 0.70289 0.76726 0.0
H676 H 0.573 0.57982 0.78824 0.0
H677 H 0.59136 0.6824 0.92532 0.0
H678 H 0.53364 0.59147 0.63892 0.0
H679 H 0.59189 0.62409 0.82241 0.0
H680 H 0.56343 0.66875 0.70618 0.0
C681 C 0.56988 0.69148 0.78902 0.0
C682 C 0.57683 0.69518 0.85206 0.0
C683 C 0.57948 0.61717 0.78152 0.0
C684 C 0.5773 0.65654 0.7821 0.0
C685 C 0.56874 0.59193 0.76201 0.0
C686 C 0.55133 0.58204 0.71178 0.0
C687 C 0.57224 0.63245 0.7515 0.0
C688 C 0.54677 0.59847 0.67846 0.0
C689 C 0.57004 0.67215 0.75394 0.0
C690 C 0.58578 0.68037 0.87712 0.0
N691 N 0.55669 0.62288 0.69991 0.0
N692 N 0.58541 0.66152 0.84228 0.0
H693 H 0.46311 0.1507 0.41301 0.0
H694 H 0.47297 0.02644 0.37841 0.0
H695 H 0.46164 0.11286 0.24148 0.0
H696 H 0.4908 0.06975 0.55137 0.0
H697 H 0.46308 0.05558 0.33187 0.0
H698 H 0.46889 0.11972 0.46775 0.0
C699 C 0.46402 0.13596 0.38681 0.0
C700 C 0.4618 0.13439 0.32235 0.0
C701 C 0.46915 0.05886 0.38001 0.0
C702 C 0.468 0.09878 0.38478 0.0
C703 C 0.47483 0.04217 0.40681 0.0
C704 C 0.4832 0.04592 0.46875 0.0
C705 C 0.47187 0.07973 0.41498 0.0
C706 C 0.4846 0.06632 0.50334 0.0
C707 C 0.46719 0.11824 0.41817 0.0
C708 C 0.46277 0.11465 0.29101 0.0
N709 N 0.47921 0.08271 0.47575 0.0
N710 N 0.46579 0.09772 0.32249 0.0
H711 H 0.34494 0.52808 0.42132 0.0
H712 H 0.46435 0.51354 0.45187 0.0
H713 H 0.38194 0.52405 0.26238 0.0
H714 H 0.40574 0.48379 0.57704 0.0
H715 H 0.4396 0.52555 0.38674 0.0
H716 H 0.37361 0.52136 0.48581 0.0
C717 C 0.35943 0.52625 0.40025 0.0
C718 C 0.36112 0.52647 0.33668 0.0
C719 C 0.43226 0.51632 0.42844 0.0
C720 C 0.3936 0.51852 0.40963 0.0
C721 C 0.44631 0.5095 0.46549 0.0
C722 C 0.43704 0.49763 0.51972 0.0
C723 C 0.4091 0.51162 0.44671 0.0
C724 C 0.41351 0.49269 0.53532 0.0
C725 C 0.37557 0.52218 0.43685 0.0
C726 C 0.38001 0.52374 0.31134 0.0
N727 N 0.40042 0.49989 0.49918 0.0
N728 N 0.39557 0.51978 0.348 0.0
H729 H 0.83922 0.34717 0.36105 0.0
H730 H 0.98395 0.43334 0.40672 0.0
H731 H 0.88889 0.32812 0.27349 0.0
H732 H 0.9356 0.43274 0.54319 0.0
H733 H 0.94966 0.3942 0.35852 0.0
H734 H 0.87416 0.37871 0.42853 0.0
C735 C 0.85749 0.34962 0.35626 0.0
C736 C 0.8613 0.33524 0.31147 0.0
C737 C 0.94665 0.40234 0.39968 0.0
C738 C 0.90118 0.37112 0.38813 0.0
C739 C 0.9662 0.42465 0.4272 0.0
C740 C 0.96247 0.43633 0.47858 0.0
C741 C 0.92308 0.392 0.42288 0.0
C742 C 0.93919 0.4243 0.50353 0.0
C743 C 0.87733 0.3674 0.39507 0.0
C744 C 0.88522 0.33884 0.30755 0.0
N745 N 0.92016 0.40301 0.47461 0.0
N746 N 0.90435 0.35667 0.34486 0.0
H747 H 0.54717 0.83105 0.35622 0.0
H748 H 0.47498 0.90168 0.45128 0.0
H749 H 0.49685 0.8414 0.23633 0.0
H750 H 0.54573 0.91994 0.53801 0.0
H751 H 0.47356 0.86618 0.39414 0.0
H752 H 0.53844 0.852 0.44062 0.0
C753 C 0.53426 0.83762 0.34744 0.0
C754 C 0.52315 0.83488 0.28837 0.0
C755 C 0.48911 0.87761 0.42675 0.0
C756 C 0.51239 0.85783 0.38559 0.0
C757 C 0.48991 0.8978 0.45962 0.0
C758 C 0.5109 0.91423 0.49793 0.0
C759 C 0.50944 0.87388 0.43225 0.0
C760 C 0.52942 0.90798 0.50807 0.0
C761 C 0.52909 0.84927 0.39593 0.0
C762 C 0.50584 0.84292 0.28075 0.0
N763 N 0.52856 0.88855 0.47415 0.0
N764 N 0.50115 0.85417 0.32866 0.0
H765 H 0.66206 0.4677 0.30173 0.0
H766 H 0.62171 0.56067 0.44978 0.0
H767 H 0.70071 0.5468 0.26719 0.0
H768 H 0.56999 0.48294 0.39183 0.0
H769 H 0.65488 0.55659 0.40289 0.0
H770 H 0.63217 0.47378 0.35741 0.0
C771 C 0.66435 0.48635 0.30586 0.0
C772 C 0.68377 0.50666 0.27866 0.0
C773 C 0.63621 0.54053 0.40059 0.0
C774 C 0.64987 0.51377 0.34368 0.0
C775 C 0.61735 0.54282 0.4272 0.0
C776 C 0.59305 0.52217 0.4242 0.0
C777 C 0.63073 0.51728 0.37243 0.0
C778 C 0.58837 0.49944 0.39461 0.0
C779 C 0.64733 0.4898 0.33788 0.0
C780 C 0.68617 0.53059 0.28754 0.0
N781 N 0.60706 0.49756 0.3703 0.0
N782 N 0.66933 0.53348 0.31913 0.0
H783 H 0.12818 0.71806 0.31847 0.0
H784 H 0.09783 0.58797 0.45389 0.0
H785 H 0.1658 0.67764 0.27153 0.0
H786 H 0.06345 0.6306 0.51051 0.0
H787 H 0.12727 0.62367 0.39907 0.0
H788 H 0.10742 0.68854 0.39719 0.0
C789 C 0.13199 0.70291 0.32456 0.0
C790 C 0.14855 0.70016 0.28788 0.0
C791 C 0.11357 0.62542 0.42436 0.0
C792 C 0.12513 0.6665 0.37861 0.0
C793 C 0.09684 0.60507 0.45612 0.0
C794 C 0.07778 0.60606 0.48586 0.0
C795 C 0.11111 0.64684 0.42182 0.0
C796 C 0.07763 0.62883 0.48767 0.0
C797 C 0.12035 0.68623 0.36999 0.0
C798 C 0.15323 0.68052 0.29882 0.0
N799 N 0.09369 0.64813 0.45494 0.0
N800 N 0.14144 0.66435 0.34281 0.0
loop_
_geom_bond_atom_site_label_1
_geom_bond_atom_site_label_2
_geom_bond_distance
_geom_bond_site_symmetry_2
_ccdc_geom_bond_type
C0 C1 1.384 . S
C0 C2 1.384 . S
C0 H28 0.931 . S
C1 C0 1.384 . S
C1 C4 1.382 . S
C2 C0 1.384 . S
C2 C3 1.381 . S
C2 H29 0.930 . S
C3 C2 1.381 . S
C3 C5 1.381 . S
C3 C6 1.487 . S
C4 C1 1.382 . S
C4 C5 1.387 . S
C4 H30 0.930 1_554 S
C5 C3 1.381 . S
C5 C4 1.387 . S
C5 H31 0.931 . S
C6 C3 1.487 . S
C6 C13 1.399 . S
C6 N44 1.343 . S
C7 C8 1.384 . S
C7 C9 1.384 . S
C7 H32 0.931 . S
C8 C7 1.384 . S
C8 C11 1.382 . S
C9 C7 1.384 . S
C9 C10 1.381 . S
C9 H33 0.930 . S
C10 C9 1.381 . S
C10 C12 1.381 . S
C10 C13 1.487 . S
C11 C8 1.382 . S
C11 C12 1.387 . S
C11 H34 0.930 . S
C12 C10 1.381 . S
C12 C11 1.387 . S
C12 H35 0.931 . S
C13 C6 1.399 . S
C13 C10 1.487 . S
C13 N45 1.343 . S
C14 C15 1.384 . S
C14 C16 1.384 . S
C14 H36 0.931 . S
C15 C14 1.384 . S
C15 C18 1.382 . S
C16 C14 1.384 . S
C16 C17 1.381 . S
C16 H37 0.930 . S
C17 C16 1.381 . S
C17 C19 1.381 . S
C17 C20 1.487 . S
C18 C15 1.382 . S
C18 C19 1.387 . S
C18 H38 0.930 . S
C19 C17 1.381 . S
C19 C18 1.387 . S
C19 H39 0.931 . S
C20 C17 1.487 . S
C20 C27 1.399 . S
C20 N45 1.343 . S
C21 C22 1.384 . S
C21 C23 1.384 . S
C21 H40 0.931 . S
C22 C21 1.384 . S
C22 C25 1.382 . S
C23 C21 1.384 . S
C23 C24 1.381 . S
C23 H41 0.930 . S
C24 C23 1.381 . S
C24 C26 1.381 . S
C24 C27 1.487 . S
C25 C22 1.382 . S
C25 C26 1.387 . S
C25 H42 0.930 1_554 S
C26 C24 1.381 . S
C26 C25 1.387 . S
C26 H43 0.931 . S
C27 C20 1.399 . S
C27 C24 1.487 . S
C27 N44 1.343 . S
H28 C0 0.931 . S
H29 C2 0.930 . S
H30 C4 0.930 1_556 S
H31 C5 0.931 . S
H32 C7 0.931 . S
H33 C9 0.930 . S
H34 C11 0.930 . S
H35 C12 0.931 . S
H36 C14 0.931 . S
H37 C16 0.930 . S
H38 C18 0.930 . S
H39 C19 0.931 . S
H40 C21 0.931 . S
H41 C23 0.930 . S
H42 C25 0.930 1_556 S
H43 C26 0.931 . S
N44 C6 1.343 . S
N44 C27 1.343 . S
N45 C13 1.343 . S
N45 C20 1.343 . S
C46 C47 1.384 . S
C46 C48 1.384 . S
C46 H74 0.931 . S
C47 C46 1.384 . S
C47 C50 1.382 . S
C48 C46 1.384 . S
C48 C49 1.381 . S
C48 H75 0.930 . S
C49 C48 1.381 . S
C49 C51 1.381 . S
C49 C52 1.487 . S
C50 C47 1.382 . S
C50 C51 1.387 . S
C50 H76 0.930 . S
C51 C49 1.381 . S
C51 C50 1.387 . S
C51 H77 0.931 . S
C52 C49 1.487 . S
C52 C59 1.399 . S
C52 N90 1.343 . S
C53 C54 1.384 . S
C53 C55 1.384 1_556 S
C53 H78 0.931 . S
C54 C53 1.384 . S
C54 C57 1.382 . S
C55 C53 1.384 1_554 S
C55 C56 1.381 . S
C55 H79 0.930 . S
C56 C55 1.381 . S
C56 C58 1.381 1_554 S
C56 C59 1.487 . S
C57 C54 1.382 . S
C57 C58 1.387 . S
C57 H80 0.930 . S
C58 C56 1.381 1_556 S
C58 C57 1.387 . S
C58 H81 0.931 . S
C59 C52 1.399 . S
C59 C56 1.487 . S
C59 N91 1.343 . S
C60 C61 1.384 1_554 S
C60 C62 1.384 . S
C60 H82 0.931 . S
C61 C60 1.384 1_556 S
C61 C64 1.382 . S
C62 C60 1.384 . S
C62 C63 1.381 . S
C62 H83 0.930 . S
C63 C62 1.381 . S
C63 C65 1.381 1_554 S
C63 C66 1.487 . S
C64 C61 1.382 . S
C64 C65 1.387 . S
C64 H84 0.930 . S
C65 C63 1.381 1_556 S
C65 C64 1.387 . S
C65 H85 0.931 . S
C66 C63 1.487 . S
C66 C73 1.399 . S
C66 N91 1.343 . S
C67 C68 1.384 . S
C67 C69 1.384 . S
C67 H86 0.931 . S
C68 C67 1.384 . S
C68 C71 1.382 . S
C69 C67 1.384 . S
C69 C70 1.381 . S
C69 H87 0.930 . S
C70 C69 1.381 . S
C70 C72 1.381 . S
C70 C73 1.487 . S
C71 C68 1.382 . S
C71 C72 1.387 . S
C71 H88 0.930 . S
C72 C70 1.381 . S
C72 C71 1.387 . S
C72 H89 0.931 . S
C73 C66 1.399 . S
C73 C70 1.487 . S
C73 N90 1.343 . S
H74 C46 0.931 . S
H75 C48 0.930 . S
H76 C50 0.930 . S
H77 C51 0.931 . S
H78 C53 0.931 . S
H79 C55 0.930 . S
H80 C57 0.930 . S
H81 C58 0.931 . S
H82 C60 0.931 . S
H83 C62 0.930 . S
H84 C64 0.930 . S
H85 C65 0.931 . S
H86 C67 0.931 . S
H87 C69 0.930 . S
H88 C71 0.930 . S
H89 C72 0.931 . S
N90 C52 1.343 . S
N90 C73 1.343 . S
N91 C59 1.343 . S
N91 C66 1.343 . S
C92 C93 1.384 . S
C92 C94 1.384 . S
C92 H120 0.931 . S
C93 C92 1.384 . S
C93 C96 1.382 . S
C94 C92 1.384 . S
C94 C95 1.381 . S
C94 H121 0.930 1_556 S
C95 C94 1.381 . S
C95 C97 1.381 . S
C95 C98 1.487 1_556 S
C96 C93 1.382 . S
C96 C97 1.387 . S
C96 H122 0.930 . S
C97 C95 1.381 . S
C97 C96 1.387 . S
C97 H123 0.931 . S
C98 C95 1.487 1_554 S
C98 C105 1.399 . S
C98 N136 1.343 1_554 S
C99 C100 1.384 . S
C99 C101 1.384 . S
C99 H124 0.931 . S
C100 C99 1.384 . S
C100 C103 1.382 . S
C101 C99 1.384 . S
C101 C102 1.381 . S
C101 H125 0.930 . S
C102 C101 1.381 . S
C102 C104 1.381 . S
C102 C105 1.487 . S
C103 C100 1.382 . S
C103 C104 1.387 . S
C103 H126 0.930 . S
C104 C102 1.381 . S
C104 C103 1.387 . S
C104 H127 0.931 . S
C105 C98 1.399 . S
C105 C102 1.487 . S
C105 N137 1.343 . S
C106 C107 1.384 . S
C106 C108 1.384 . S
C106 H128 0.931 . S
C107 C106 1.384 . S
C107 C110 1.382 . S
C108 C106 1.384 . S
C108 C109 1.381 . S
C108 H129 0.930 . S
C109 C108 1.381 . S
C109 C111 1.381 . S
C109 C112 1.487 . S
C110 C107 1.382 . S
C110 C111 1.387 . S
C110 H130 0.930 . S
C111 C109 1.381 . S
C111 C110 1.387 . S
C111 H131 0.931 . S
C112 C109 1.487 . S
C112 C119 1.399 . S
C112 N137 1.343 . S
C113 C114 1.384 . S
C113 C115 1.384 . S
C113 H132 0.931 . S
C114 C113 1.384 . S
C114 C117 1.382 . S
C115 C113 1.384 . S
C115 C116 1.381 . S
C115 H133 0.930 1_556 S
C116 C115 1.381 . S
C116 C118 1.381 . S
C116 C119 1.487 1_556 S
C117 C114 1.382 . S
C117 C118 1.387 . S
C117 H134 0.930 . S
C118 C116 1.381 . S
C118 C117 1.387 . S
C118 H135 0.931 . S
C119 C112 1.399 . S
C119 C116 1.487 1_554 S
C119 N136 1.343 1_554 S
H120 C92 0.931 . S
H121 C94 0.930 1_554 S
H122 C96 0.930 . S
H123 C97 0.931 . S
H124 C99 0.931 . S
H125 C101 0.930 . S
H126 C103 0.930 . S
H127 C104 0.931 . S
H128 C106 0.931 . S
H129 C108 0.930 . S
H130 C110 0.930 . S
H131 C111 0.931 . S
H132 C113 0.931 . S
H133 C115 0.930 1_554 S
H134 C117 0.930 . S
H135 C118 0.931 . S
N136 C98 1.343 1_556 S
N136 C119 1.343 1_556 S
N137 C105 1.343 . S
N137 C112 1.343 . S
C138 C139 1.384 . S
C138 C140 1.384 . S
C138 H166 0.931 . S
C139 C138 1.384 . S
C139 C142 1.382 . S
C140 C138 1.384 . S
C140 C141 1.381 . S
C140 H167 0.943 . S
C141 C140 1.381 . S
C141 C143 1.381 . S
C141 C144 1.487 . S
C142 C139 1.382 . S
C142 C143 1.387 . S
C142 H168 0.930 . S
C143 C141 1.381 . S
C143 C142 1.387 . S
C143 H169 0.931 . S
C144 C141 1.487 . S
C144 C151 1.399 1_556 S
C144 N182 1.343 . S
C145 C146 1.384 . S
C145 C147 1.384 . S
C145 H170 0.931 . S
C146 C145 1.384 . S
C146 C149 1.382 . S
C147 C145 1.384 . S
C147 C148 1.381 . S
C147 H171 0.930 . S
C148 C147 1.381 . S
C148 C150 1.381 . S
C148 C151 1.487 . S
C149 C146 1.382 . S
C149 C150 1.387 . S
C149 H172 0.930 . S
C150 C148 1.381 . S
C150 C149 1.387 . S
C150 H173 0.931 . S
C151 C144 1.399 1_554 S
C151 C148 1.487 . S
C151 N183 1.343 . S
C152 C153 1.384 . S
C152 C154 1.384 . S
C152 H174 0.931 . S
C153 C152 1.384 . S
C153 C156 1.382 . S
C154 C152 1.384 . S
C154 C155 1.381 . S
C154 H175 0.930 . S
C155 C154 1.381 . S
C155 C157 1.381 . S
C155 C158 1.487 . S
C156 C153 1.382 . S
C156 C157 1.387 . S
C156 H176 0.930 . S
C157 C155 1.381 . S
C157 C156 1.387 . S
C157 H177 0.931 . S
C158 C155 1.487 . S
C158 C165 1.399 1_554 S
C158 N183 1.343 . S
C159 C160 1.384 . S
C159 C161 1.384 . S
C159 H178 0.931 . S
C160 C159 1.384 . S
C160 C163 1.382 . S
C161 C159 1.384 . S
C161 C162 1.381 . S
C161 H179 0.930 . S
C162 C161 1.381 . S
C162 C164 1.381 . S
C162 C165 1.487 . S
C163 C160 1.382 . S
C163 C164 1.387 . S
C163 H180 0.930 . S
C164 C162 1.381 . S
C164 C163 1.387 . S
C164 H181 0.931 . S
C165 C158 1.399 1_556 S
C165 C162 1.487 . S
C165 N182 1.343 . S
H166 C138 0.931 . S
H167 C140 0.943 . S
H168 C142 0.930 . S
H169 C143 0.931 . S
H170 C145 0.931 . S
H171 C147 0.930 . S
H172 C149 0.930 . S
H173 C150 0.931 . S
H174 C152 0.931 . S
H175 C154 0.930 . S
H176 C156 0.930 . S
H177 C157 0.931 . S
H178 C159 0.931 . S
H179 C161 0.930 . S
H180 C163 0.930 . S
H181 C164 0.931 . S
N182 C144 1.343 . S
N182 C165 1.343 . S
N183 C151 1.343 . S
N183 C158 1.343 . S
C184 C185 1.384 1_554 S
C184 C186 1.384 . S
C184 H212 0.931 . S
C185 C184 1.384 1_556 S
C185 C188 1.382 . S
C186 C184 1.384 . S
C186 C187 1.381 . S
C186 H213 0.930 . S
C187 C186 1.381 . S
C187 C189 1.381 1_554 S
C187 C190 1.487 . S
C188 C185 1.382 . S
C188 C189 1.387 . S
C188 H214 0.930 . S
C189 C187 1.381 1_556 S
C189 C188 1.387 . S
C189 H215 0.931 . S
C190 C187 1.487 . S
C190 C197 1.399 . S
C190 N228 1.343 . S
C191 C192 1.384 . S
C191 C193 1.384 . S
C191 H216 0.931 . S
C192 C191 1.384 . S
C192 C195 1.382 . S
C193 C191 1.384 . S
C193 C194 1.381 . S
C193 H217 0.930 . S
C194 C193 1.381 . S
C194 C196 1.381 . S
C194 C197 1.487 . S
C195 C192 1.382 . S
C195 C196 1.387 . S
C195 H218 0.930 . S
C196 C194 1.381 . S
C196 C195 1.387 . S
C196 H219 0.931 . S
C197 C190 1.399 . S
C197 C194 1.487 . S
C197 N229 1.343 . S
C198 C199 1.384 . S
C198 C200 1.384 . S
C198 H220 0.931 . S
C199 C198 1.384 . S
C199 C202 1.382 . S
C200 C198 1.384 . S
C200 C201 1.381 . S
C200 H221 0.930 . S
C201 C200 1.381 . S
C201 C203 1.381 . S
C201 C204 1.487 . S
C202 C199 1.382 . S
C202 C203 1.387 . S
C202 H222 0.930 . S
C203 C201 1.381 . S
C203 C202 1.387 . S
C203 H223 0.931 . S
C204 C201 1.487 . S
C204 C211 1.399 . S
C204 N229 1.343 . S
C205 C206 1.384 1_554 S
C205 C207 1.384 . S
C205 H224 0.931 . S
C206 C205 1.384 1_556 S
C206 C209 1.382 . S
C207 C205 1.384 . S
C207 C208 1.381 . S
C207 H225 0.930 . S
C208 C207 1.381 . S
C208 C210 1.381 1_554 S
C208 C211 1.487 . S
C209 C206 1.382 . S
C209 C210 1.387 . S
C209 H226 0.930 . S
C210 C208 1.381 1_556 S
C210 C209 1.387 . S
C210 H227 0.931 . S
C211 C204 1.399 . S
C211 C208 1.487 . S
C211 N228 1.343 . S
H212 C184 0.931 . S
H213 C186 0.930 . S
H214 C188 0.930 . S
H215 C189 0.931 . S
H216 C191 0.931 . S
H217 C193 0.930 . S
H218 C195 0.930 . S
H219 C196 0.931 . S
H220 C198 0.931 . S
H221 C200 0.930 . S
H222 C202 0.930 . S
H223 C203 0.931 . S
H224 C205 0.931 . S
H225 C207 0.930 . S
H226 C209 0.930 . S
H227 C210 0.931 . S
N228 C190 1.343 . S
N228 C211 1.343 . S
N229 C197 1.343 . S
N229 C204 1.343 . S
C230 C231 1.384 . S
C230 C232 1.384 . S
C230 H258 0.931 . S
C231 C230 1.384 . S
C231 C234 1.382 . S
C232 C230 1.384 . S
C232 C233 1.381 . S
C232 H259 0.930 . S
C233 C232 1.381 . S
C233 C235 1.381 . S
C233 C236 1.487 . S
C234 C231 1.382 . S
C234 C235 1.387 . S
C234 H260 0.930 1_554 S
C235 C233 1.381 . S
C235 C234 1.387 . S
C235 H261 0.931 . S
C236 C233 1.487 . S
C236 C243 1.399 . S
C236 N274 1.343 . S
C237 C238 1.384 . S
C237 C239 1.384 . S
C237 H262 0.931 . S
C238 C237 1.384 . S
C238 C241 1.382 . S
C239 C237 1.384 . S
C239 C240 1.381 . S
C239 H263 0.930 . S
C240 C239 1.381 . S
C240 C242 1.381 . S
C240 C243 1.487 . S
C241 C238 1.382 . S
C241 C242 1.387 . S
C241 H264 0.930 . S
C242 C240 1.381 . S
C242 C241 1.387 . S
C242 H265 0.931 . S
C243 C236 1.399 . S
C243 C240 1.487 . S
C243 N275 1.343 . S
C244 C245 1.384 . S
C244 C246 1.384 . S
C244 H266 0.931 . S
C245 C244 1.384 . S
C245 C248 1.382 . S
C246 C244 1.384 . S
C246 C247 1.381 . S
C246 H267 0.930 . S
C247 C246 1.381 . S
C247 C249 1.381 . S
C247 C250 1.487 . S
C248 C245 1.382 . S
C248 C249 1.387 . S
C248 H268 0.930 . S
C249 C247 1.381 . S
C249 C248 1.387 . S
C249 H269 0.931 . S
C250 C247 1.487 . S
C250 C257 1.399 . S
C250 N275 1.343 . S
C251 C252 1.384 . S
C251 C253 1.384 . S
C251 H270 0.931 . S
C252 C251 1.384 . S
C252 C255 1.382 . S
C253 C251 1.384 . S
C253 C254 1.381 . S
C253 H271 0.930 . S
C254 C253 1.381 . S
C254 C256 1.381 . S
C254 C257 1.487 . S
C255 C252 1.382 . S
C255 C256 1.387 . S
C255 H272 0.930 1_554 S
C256 C254 1.381 . S
C256 C255 1.387 . S
C256 H273 0.931 . S
C257 C250 1.399 . S
C257 C254 1.487 . S
C257 N274 1.343 . S
H258 C230 0.931 . S
H259 C232 0.930 . S
H260 C234 0.930 1_556 S
H261 C235 0.931 . S
H262 C237 0.931 . S
H263 C239 0.930 . S
H264 C241 0.930 . S
H265 C242 0.931 . S
H266 C244 0.931 . S
H267 C246 0.930 . S
H268 C248 0.930 . S
H269 C249 0.931 . S
H270 C251 0.931 . S
H271 C253 0.930 . S
H272 C255 0.930 1_556 S
H273 C256 0.931 . S
N274 C236 1.343 . S
N274 C257 1.343 . S
N275 C243 1.343 . S
N275 C250 1.343 . S
C276 O303 1.312 . S
C276 O304 1.208 . S
C277 O298 1.331 . S
C277 O301 1.244 . S
C278 O300 1.264 . S
C278 O302 1.273 . S
Mg279 O281 1.936 1_455 S
Mg279 O288 2.081 1_455 S
Mg279 O290 2.023 . S
Mg279 O294 2.031 1_455 S
Mg279 O303 2.291 . S
Mg280 O281 1.963 . S
Mg280 O291 1.942 . S
Mg280 O292 1.955 1_655 S
Mg280 O299 1.986 . S
O281 Mg279 1.936 1_655 S
O281 Mg280 1.963 . S
O281 Mg282 1.915 1_655 S
Mg282 O281 1.915 1_455 S
Mg282 O283 1.915 . S
Mg282 O287 2.013 . S
Mg282 O293 2.114 1_455 S
Mg282 O297 2.013 1_455 S
Mg282 O303 2.114 . S
O283 Mg282 1.915 . S
O283 Mg284 1.936 . S
O283 Mg285 1.963 . S
Mg284 O283 1.936 . S
Mg284 O293 2.291 1_455 S
Mg284 O298 2.081 . S
Mg284 O300 2.023 1_455 S
Mg284 O304 2.031 . S
Mg285 O283 1.963 . S
Mg285 O289 1.986 . S
Mg285 O301 1.942 . S
Mg285 O302 1.955 1_455 S
C286 O297 1.191 . S
C286 O299 1.307 . S
O287 Mg282 2.013 . S
O287 C306 1.191 . S
O288 Mg279 2.081 1_655 S
O288 C296 1.331 . S
O289 Mg285 1.986 . S
O289 C306 1.307 . S
O290 Mg279 2.023 . S
O290 C305 1.264 . S
O291 Mg280 1.942 . S
O291 C296 1.244 . S
O292 Mg280 1.955 1_455 S
O292 C305 1.273 . S
O293 Mg282 2.114 1_655 S
O293 Mg284 2.291 1_655 S
O293 C295 1.312 . S
O294 Mg279 2.031 1_655 S
O294 C295 1.208 . S
C295 O293 1.312 . S
C295 O294 1.208 . S
C296 O288 1.331 . S
C296 O291 1.244 . S
O297 Mg282 2.013 1_655 S
O297 C286 1.191 . S
O298 C277 1.331 . S
O298 Mg284 2.081 . S
O299 Mg280 1.986 . S
O299 C286 1.307 . S
O300 C278 1.264 . S
O300 Mg284 2.023 1_655 S
O301 C277 1.244 . S
O301 Mg285 1.942 . S
O302 C278 1.273 . S
O302 Mg285 1.955 1_655 S
O303 C276 1.312 . S
O303 Mg279 2.291 . S
O303 Mg282 2.114 . S
O304 C276 1.208 . S
O304 Mg284 2.031 . S
C305 O290 1.264 . S
C305 O292 1.273 . S
C306 O287 1.191 . S
C306 O289 1.307 . S
C307 O334 1.312 . S
C307 O335 1.208 . S
C308 O329 1.331 . S
C308 O332 1.244 . S
C309 O331 1.264 . S
C309 O333 1.273 . S
Mg310 O312 1.936 1_545 S
Mg310 O319 2.081 1_545 S
Mg310 O321 2.023 . S
Mg310 O325 2.031 1_545 S
Mg310 O334 2.291 . S
Mg311 O312 1.963 1_545 S
Mg311 O322 1.943 1_545 S
Mg311 O323 1.952 . S
Mg311 O330 1.988 1_545 S
O312 Mg310 1.936 1_565 S
O312 Mg311 1.963 1_565 S
O312 Mg313 1.915 1_565 S
Mg313 O312 1.915 1_545 S
Mg313 O314 1.915 . S
Mg313 O318 2.013 . S
Mg313 O324 2.114 1_545 S
Mg313 O328 2.013 1_545 S
Mg313 O334 2.114 . S
O314 Mg313 1.915 . S
O314 Mg315 1.936 . S
O314 Mg316 1.963 . S
Mg315 O314 1.936 . S
Mg315 O324 2.291 1_545 S
Mg315 O329 2.081 . S
Mg315 O331 2.023 1_545 S
Mg315 O335 2.031 . S
Mg316 O314 1.963 . S
Mg316 O320 1.986 . S
Mg316 O332 1.942 . S
Mg316 O333 1.955 1_545 S
C317 O328 1.191 . S
C317 O330 1.307 . S
O318 Mg313 2.013 . S
O318 C337 1.191 . S
O319 Mg310 2.081 1_565 S
O319 C327 1.331 . S
O320 Mg316 1.986 . S
O320 C337 1.307 . S
O321 Mg310 2.023 . S
O321 C336 1.264 . S
O322 Mg311 1.943 1_565 S
O322 C327 1.244 . S
O323 Mg311 1.952 . S
O323 C336 1.273 . S
O324 Mg313 2.114 1_565 S
O324 Mg315 2.291 1_565 S
O324 C326 1.312 . S
O325 Mg310 2.031 1_565 S
O325 C326 1.208 . S
C326 O324 1.312 . S
C326 O325 1.208 . S
C327 O319 1.331 . S
C327 O322 1.244 . S
O328 Mg313 2.013 1_565 S
O328 C317 1.191 . S
O329 C308 1.331 . S
O329 Mg315 2.081 . S
O330 Mg311 1.988 1_565 S
O330 C317 1.307 . S
O331 C309 1.264 . S
O331 Mg315 2.023 1_565 S
O332 C308 1.244 . S
O332 Mg316 1.942 . S
O333 C309 1.273 . S
O333 Mg316 1.955 1_565 S
O334 C307 1.312 . S
O334 Mg310 2.291 . S
O334 Mg313 2.114 . S
O335 C307 1.208 . S
O335 Mg315 2.031 . S
C336 O321 1.264 . S
C336 O323 1.273 . S
C337 O318 1.191 . S
C337 O320 1.307 . S
C338 O365 1.312 . S
C338 O366 1.208 . S
C339 O360 1.331 . S
C339 O363 1.244 . S
C340 O362 1.264 . S
C340 O364 1.273 . S
Mg341 O343 1.936 . S
Mg341 O350 2.081 . S
Mg341 O352 2.023 . S
Mg341 O356 2.031 . S
Mg341 O365 2.291 . S
Mg342 O343 1.963 . S
Mg342 O353 1.942 . S
Mg342 O354 1.955 . S
Mg342 O361 1.986 . S
O343 Mg341 1.936 . S
O343 Mg342 1.963 . S
O343 Mg344 1.915 . S
Mg344 O343 1.915 . S
Mg344 O345 1.915 . S
Mg344 O349 2.013 . S
Mg344 O355 2.114 . S
Mg344 O359 2.013 . S
Mg344 O365 2.114 . S
O345 Mg344 1.915 . S
O345 Mg346 1.936 . S
O345 Mg347 1.963 . S
Mg346 O345 1.936 . S
Mg346 O355 2.291 . S
Mg346 O360 2.081 . S
Mg346 O362 2.023 . S
Mg346 O366 2.031 . S
Mg347 O345 1.963 . S
Mg347 O351 1.986 . S
Mg347 O363 1.942 . S
Mg347 O364 1.955 . S
C348 O359 1.191 . S
C348 O361 1.307 . S
O349 Mg344 2.013 . S
O349 C368 1.191 . S
O350 Mg341 2.081 . S
O350 C358 1.331 . S
O351 Mg347 1.986 . S
O351 C368 1.307 . S
O352 Mg341 2.023 . S
O352 C367 1.264 . S
O353 Mg342 1.942 . S
O353 C358 1.244 . S
O354 Mg342 1.955 . S
O354 C367 1.273 . S
O355 Mg344 2.114 . S
O355 Mg346 2.291 . S
O355 C357 1.312 . S
O356 Mg341 2.031 . S
O356 C357 1.208 . S
C357 O355 1.312 . S
C357 O356 1.208 . S
C358 O350 1.331 . S
C358 O353 1.244 . S
O359 Mg344 2.013 . S
O359 C348 1.191 . S
O360 C339 1.331 . S
O360 Mg346 2.081 . S
O361 Mg342 1.986 . S
O361 C348 1.307 . S
O362 C340 1.264 . S
O362 Mg346 2.023 . S
O363 C339 1.244 . S
O363 Mg347 1.942 . S
O364 C340 1.273 . S
O364 Mg347 1.955 . S
O365 C338 1.312 . S
O365 Mg341 2.291 . S
O365 Mg344 2.114 . S
O366 C338 1.208 . S
O366 Mg346 2.031 . S
C367 O352 1.264 . S
C367 O354 1.273 . S
C368 O349 1.191 . S
C368 O351 1.307 . S
H369 C375 0.930 . S
H370 C379 0.930 . S
H371 C384 0.929 . S
H372 C382 0.929 . S
H373 C377 0.929 . S
H374 C383 0.929 . S
C375 H369 0.930 . S
C375 C376 1.367 . S
C375 C383 1.378 . S
C376 C375 1.367 . S
C376 C384 1.433 . S
C377 H373 0.929 . S
C377 C379 1.378 . S
C377 C381 1.350 . S
C378 C381 1.463 . S
C378 C383 1.350 . S
C378 N386 1.427 . S
C379 H370 0.930 . S
C379 C377 1.378 . S
C379 C380 1.367 . S
C380 C379 1.367 . S
C380 C382 1.433 . S
C381 C377 1.350 . S
C381 C378 1.463 . S
C381 N385 1.427 . S
C382 H372 0.929 . S
C382 C380 1.433 . S
C382 N385 1.384 . S
C383 H374 0.929 . S
C383 C375 1.378 . S
C383 C378 1.350 . S
C384 H371 0.929 . S
C384 C376 1.433 . S
C384 N386 1.384 . S
N385 C381 1.427 . S
N385 C382 1.384 . S
N386 C378 1.427 . S
N386 C384 1.384 . S
H387 C393 0.930 . S
H388 C397 0.930 . S
H389 C402 0.929 . S
H390 C400 0.929 . S
H391 C395 0.929 . S
H392 C401 0.929 . S
C393 H387 0.930 . S
C393 C394 1.367 . S
C393 C401 1.378 . S
C394 C393 1.367 . S
C394 C402 1.433 . S
C395 H391 0.929 . S
C395 C397 1.378 . S
C395 C399 1.350 . S
C396 C399 1.463 . S
C396 C401 1.350 . S
C396 N404 1.427 . S
C397 H388 0.930 . S
C397 C395 1.378 . S
C397 C398 1.367 . S
C398 C397 1.367 . S
C398 C400 1.433 . S
C399 C395 1.350 . S
C399 C396 1.463 . S
C399 N403 1.427 . S
C400 H390 0.929 . S
C400 C398 1.433 . S
C400 N403 1.384 . S
C401 H392 0.929 . S
C401 C393 1.378 . S
C401 C396 1.350 . S
C402 H389 0.929 . S
C402 C394 1.433 . S
C402 N404 1.384 . S
N403 C399 1.427 . S
N403 C400 1.384 . S
N404 C396 1.427 . S
N404 C402 1.384 . S
H405 C411 0.930 . S
H406 C415 0.930 . S
H407 C420 0.929 . S
H408 C418 0.929 . S
H409 C413 0.929 . S
H410 C419 0.929 . S
C411 H405 0.930 . S
C411 C412 1.367 . S
C411 C419 1.378 . S
C412 C411 1.367 . S
C412 C420 1.433 . S
C413 H409 0.929 . S
C413 C415 1.378 . S
C413 C417 1.350 . S
C414 C417 1.463 . S
C414 C419 1.350 . S
C414 N422 1.427 . S
C415 H406 0.930 . S
C415 C413 1.378 . S
C415 C416 1.367 . S
C416 C415 1.367 . S
C416 C418 1.433 . S
C417 C413 1.350 . S
C417 C414 1.463 . S
C417 N421 1.427 . S
C418 H408 0.929 . S
C418 C416 1.433 . S
C418 N421 1.384 . S
C419 H410 0.929 . S
C419 C411 1.378 . S
C419 C414 1.350 . S
C420 H407 0.929 . S
C420 C412 1.433 . S
C420 N422 1.384 . S
N421 C417 1.427 . S
N421 C418 1.384 . S
N422 C414 1.427 . S
N422 C420 1.384 . S
H423 C429 0.930 . S
H424 C433 0.930 . S
H425 C438 0.929 . S
H426 C436 0.929 . S
H427 C431 0.929 . S
H428 C437 0.929 . S
C429 H423 0.930 . S
C429 C430 1.367 . S
C429 C437 1.378 . S
C430 C429 1.367 . S
C430 C438 1.433 . S
C431 H427 0.929 . S
C431 C433 1.378 . S
C431 C435 1.350 . S
C432 C435 1.463 . S
C432 C437 1.350 . S
C432 N440 1.427 . S
C433 H424 0.930 . S
C433 C431 1.378 . S
C433 C434 1.367 . S
C434 C433 1.367 . S
C434 C436 1.433 . S
C435 C431 1.350 . S
C435 C432 1.463 . S
C435 N439 1.427 . S
C436 H426 0.929 . S
C436 C434 1.433 . S
C436 N439 1.384 . S
C437 H428 0.929 . S
C437 C429 1.378 . S
C437 C432 1.350 . S
C438 H425 0.929 . S
C438 C430 1.433 . S
C438 N440 1.384 . S
N439 C435 1.427 . S
N439 C436 1.384 . S
N440 C432 1.427 . S
N440 C438 1.384 . S
H441 C447 0.930 . S
H442 C451 0.930 . S
H443 C456 0.929 . S
H444 C454 0.929 . S
H445 C449 0.929 . S
H446 C455 0.929 . S
C447 H441 0.930 . S
C447 C448 1.367 . S
C447 C455 1.378 . S
C448 C447 1.367 . S
C448 C456 1.433 . S
C449 H445 0.929 . S
C449 C451 1.378 . S
C449 C453 1.350 . S
C450 C453 1.463 . S
C450 C455 1.350 . S
C450 N458 1.427 . S
C451 H442 0.930 . S
C451 C449 1.378 . S
C451 C452 1.367 . S
C452 C451 1.367 . S
C452 C454 1.433 . S
C453 C449 1.350 . S
C453 C450 1.463 . S
C453 N457 1.427 . S
C454 H444 0.929 . S
C454 C452 1.433 . S
C454 N457 1.384 . S
C455 H446 0.929 . S
C455 C447 1.378 . S
C455 C450 1.350 . S
C456 H443 0.929 . S
C456 C448 1.433 . S
C456 N458 1.384 . S
N457 C453 1.427 . S
N457 C454 1.384 . S
N458 C450 1.427 . S
N458 C456 1.384 . S
H459 C465 0.930 . S
H460 C469 0.930 . S
H461 C474 0.929 . S
H462 C472 0.929 . S
H463 C467 0.929 . S
H464 C473 0.929 . S
C465 H459 0.930 . S
C465 C466 1.367 . S
C465 C473 1.378 . S
C466 C465 1.367 . S
C466 C474 1.433 . S
C467 H463 0.929 . S
C467 C469 1.378 . S
C467 C471 1.350 . S
C468 C471 1.463 . S
C468 C473 1.350 . S
C468 N476 1.427 . S
C469 H460 0.930 . S
C469 C467 1.378 . S
C469 C470 1.367 . S
C470 C469 1.367 . S
C470 C472 1.433 . S
C471 C467 1.350 . S
C471 C468 1.463 . S
C471 N475 1.427 . S
C472 H462 0.929 . S
C472 C470 1.433 . S
C472 N475 1.384 . S
C473 H464 0.929 . S
C473 C465 1.378 . S
C473 C468 1.350 . S
C474 H461 0.929 . S
C474 C466 1.433 . S
C474 N476 1.384 . S
N475 C471 1.427 . S
N475 C472 1.384 . S
N476 C468 1.427 . S
N476 C474 1.384 . S
H477 C483 0.930 . S
H478 C487 0.930 . S
H479 C492 0.929 . S
H480 C490 0.929 . S
H481 C485 0.929 . S
H482 C491 0.929 . S
C483 H477 0.930 . S
C483 C484 1.367 . S
C483 C491 1.378 . S
C484 C483 1.367 . S
C484 C492 1.433 . S
C485 H481 0.929 . S
C485 C487 1.378 . S
C485 C489 1.350 . S
C486 C489 1.463 . S
C486 C491 1.350 . S
C486 N494 1.427 . S
C487 H478 0.930 . S
C487 C485 1.378 . S
C487 C488 1.367 . S
C488 C487 1.367 . S
C488 C490 1.433 . S
C489 C485 1.350 . S
C489 C486 1.463 . S
C489 N493 1.427 . S
C490 H480 0.929 . S
C490 C488 1.433 . S
C490 N493 1.384 . S
C491 H482 0.929 . S
C491 C483 1.378 . S
C491 C486 1.350 . S
C492 H479 0.929 . S
C492 C484 1.433 . S
C492 N494 1.384 . S
N493 C489 1.427 . S
N493 C490 1.384 . S
N494 C486 1.427 . S
N494 C492 1.384 . S
H495 C501 0.930 . S
H496 C505 0.930 . S
H497 C510 0.929 . S
H498 C508 0.929 . S
H499 C503 0.929 . S
H500 C509 0.929 . S
C501 H495 0.930 . S
C501 C502 1.367 . S
C501 C509 1.378 . S
C502 C501 1.367 . S
C502 C510 1.433 . S
C503 H499 0.929 . S
C503 C505 1.378 . S
C503 C507 1.350 . S
C504 C507 1.463 . S
C504 C509 1.350 . S
C504 N512 1.427 . S
C505 H496 0.930 . S
C505 C503 1.378 . S
C505 C506 1.367 . S
C506 C505 1.367 . S
C506 C508 1.433 . S
C507 C503 1.350 . S
C507 C504 1.463 . S
C507 N511 1.427 . S
C508 H498 0.929 . S
C508 C506 1.433 . S
C508 N511 1.384 . S
C509 H500 0.929 . S
C509 C501 1.378 . S
C509 C504 1.350 . S
C510 H497 0.929 . S
C510 C502 1.433 . S
C510 N512 1.384 . S
N511 C507 1.427 . S
N511 C508 1.384 . S
N512 C504 1.427 . S
N512 C510 1.384 . S
H513 C519 0.930 . S
H514 C523 0.930 . S
H515 C528 0.929 . S
H516 C526 0.929 . S
H517 C521 0.929 . S
H518 C527 0.929 . S
C519 H513 0.930 . S
C519 C520 1.367 . S
C519 C527 1.378 . S
C520 C519 1.367 . S
C520 C528 1.433 . S
C521 H517 0.929 . S
C521 C523 1.378 . S
C521 C525 1.350 . S
C522 C525 1.463 . S
C522 C527 1.350 . S
C522 N530 1.427 . S
C523 H514 0.930 . S
C523 C521 1.378 . S
C523 C524 1.367 . S
C524 C523 1.367 . S
C524 C526 1.433 . S
C525 C521 1.350 . S
C525 C522 1.463 . S
C525 N529 1.427 . S
C526 H516 0.929 . S
C526 C524 1.433 . S
C526 N529 1.384 . S
C527 H518 0.929 . S
C527 C519 1.378 . S
C527 C522 1.350 . S
C528 H515 0.929 . S
C528 C520 1.433 . S
C528 N530 1.384 . S
N529 C525 1.427 . S
N529 C526 1.384 . S
N530 C522 1.427 . S
N530 C528 1.384 . S
H531 C537 0.930 . S
H532 C541 0.930 . S
H533 C546 0.929 . S
H534 C544 0.929 . S
H535 C539 0.929 . S
H536 C545 0.929 . S
C537 H531 0.930 . S
C537 C538 1.367 . S
C537 C545 1.378 . S
C538 C537 1.367 . S
C538 C546 1.433 . S
C539 H535 0.929 . S
C539 C541 1.378 . S
C539 C543 1.350 . S
C540 C543 1.463 . S
C540 C545 1.350 . S
C540 N548 1.427 . S
C541 H532 0.930 . S
C541 C539 1.378 . S
C541 C542 1.367 . S
C542 C541 1.367 . S
C542 C544 1.433 . S
C543 C539 1.350 . S
C543 C540 1.463 . S
C543 N547 1.427 . S
C544 H534 0.929 . S
C544 C542 1.433 . S
C544 N547 1.384 . S
C545 H536 0.929 . S
C545 C537 1.378 . S
C545 C540 1.350 . S
C546 H533 0.929 . S
C546 C538 1.433 . S
C546 N548 1.384 . S
N547 C543 1.427 . S
N547 C544 1.384 . S
N548 C540 1.427 . S
N548 C546 1.384 . S
H549 C555 0.932 . S
H550 C559 0.930 . S
H551 C564 0.929 . S
H552 C562 0.929 . S
H553 C557 0.929 . S
H554 C563 0.929 . S
C555 H549 0.932 . S
C555 C556 1.367 . S
C555 C563 1.378 . S
C556 C555 1.367 . S
C556 C564 1.433 . S
C557 H553 0.929 . S
C557 C559 1.378 . S
C557 C561 1.350 . S
C558 C561 1.463 . S
C558 C563 1.350 . S
C558 N566 1.427 . S
C559 H550 0.930 . S
C559 C557 1.378 . S
C559 C560 1.367 . S
C560 C559 1.367 . S
C560 C562 1.433 . S
C561 C557 1.350 . S
C561 C558 1.463 . S
C561 N565 1.427 . S
C562 H552 0.929 . S
C562 C560 1.433 . S
C562 N565 1.384 . S
C563 H554 0.929 . S
C563 C555 1.378 . S
C563 C558 1.350 . S
C564 H551 0.929 . S
C564 C556 1.433 . S
C564 N566 1.384 . S
N565 C561 1.427 . S
N565 C562 1.384 . S
N566 C558 1.427 . S
N566 C564 1.384 . S
H567 C573 0.930 . S
H568 C577 0.930 . S
H569 C582 0.929 . S
H570 C580 0.929 . S
H571 C575 0.929 . S
H572 C581 0.929 . S
C573 H567 0.930 . S
C573 C574 1.367 . S
C573 C581 1.378 . S
C574 C573 1.367 . S
C574 C582 1.433 . S
C575 H571 0.929 . S
C575 C577 1.378 . S
C575 C579 1.350 . S
C576 C579 1.463 . S
C576 C581 1.350 . S
C576 N584 1.427 . S
C577 H568 0.930 . S
C577 C575 1.378 . S
C577 C578 1.367 . S
C578 C577 1.367 . S
C578 C580 1.433 . S
C579 C575 1.350 . S
C579 C576 1.463 . S
C579 N583 1.427 . S
C580 H570 0.929 . S
C580 C578 1.433 . S
C580 N583 1.384 . S
C581 H572 0.929 . S
C581 C573 1.378 . S
C581 C576 1.350 . S
C582 H569 0.929 . S
C582 C574 1.433 . S
C582 N584 1.384 . S
N583 C579 1.427 . S
N583 C580 1.384 . S
N584 C576 1.427 . S
N584 C582 1.384 . S
H585 C591 0.930 . S
H586 C595 0.930 . S
H587 C600 0.929 . S
H588 C598 0.929 . S
H589 C593 0.929 . S
H590 C599 0.929 . S
C591 H585 0.930 . S
C591 C592 1.367 . S
C591 C599 1.378 . S
C592 C591 1.367 . S
C592 C600 1.433 . S
C593 H589 0.929 . S
C593 C595 1.378 . S
C593 C597 1.350 . S
C594 C597 1.463 . S
C594 C599 1.350 . S
C594 N602 1.427 . S
C595 H586 0.930 . S
C595 C593 1.378 . S
C595 C596 1.367 . S
C596 C595 1.367 . S
C596 C598 1.433 . S
C597 C593 1.350 . S
C597 C594 1.463 . S
C597 N601 1.427 . S
C598 H588 0.929 . S
C598 C596 1.433 . S
C598 N601 1.384 . S
C599 H590 0.929 . S
C599 C591 1.378 . S
C599 C594 1.350 . S
C600 H587 0.929 . S
C600 C592 1.433 . S
C600 N602 1.384 . S
N601 C597 1.427 . S
N601 C598 1.384 . S
N602 C594 1.427 . S
N602 C600 1.384 . S
H603 C609 0.930 . S
H604 C613 0.930 . S
H605 C618 0.929 . S
H606 C616 0.929 . S
H607 C611 0.929 . S
H608 C617 0.929 . S
C609 H603 0.930 . S
C609 C610 1.367 . S
C609 C617 1.378 . S
C610 C609 1.367 . S
C610 C618 1.433 . S
C611 H607 0.929 . S
C611 C613 1.378 . S
C611 C615 1.350 . S
C612 C615 1.463 . S
C612 C617 1.350 . S
C612 N620 1.427 . S
C613 H604 0.930 . S
C613 C611 1.378 . S
C613 C614 1.367 . S
C614 C613 1.367 . S
C614 C616 1.433 . S
C615 C611 1.350 . S
C615 C612 1.463 . S
C615 N619 1.427 . S
C616 H606 0.929 . S
C616 C614 1.433 . S
C616 N619 1.384 . S
C617 H608 0.929 . S
C617 C609 1.378 . S
C617 C612 1.350 . S
C618 H605 0.929 . S
C618 C610 1.433 . S
C618 N620 1.384 . S
N619 C615 1.427 . S
N619 C616 1.384 . S
N620 C612 1.427 . S
N620 C618 1.384 . S
H621 C627 0.930 1_554 S
H622 C631 0.930 . S
H623 C636 0.929 . S
H624 C634 0.929 . S
H625 C629 0.929 . S
H626 C635 0.929 . S
C627 H621 0.930 1_556 S
C627 C628 1.367 . S
C627 C635 1.378 . S
C628 C627 1.367 . S
C628 C636 1.433 . S
C629 H625 0.929 . S
C629 C631 1.378 . S
C629 C633 1.350 . S
C630 C633 1.463 . S
C630 C635 1.350 . S
C630 N638 1.427 . S
C631 H622 0.930 . S
C631 C629 1.378 . S
C631 C632 1.367 . S
C632 C631 1.367 . S
C632 C634 1.433 . S
C633 C629 1.350 . S
C633 C630 1.463 . S
C633 N637 1.427 . S
C634 H624 0.929 . S
C634 C632 1.433 . S
C634 N637 1.384 . S
C635 H626 0.929 . S
C635 C627 1.378 . S
C635 C630 1.350 . S
C636 H623 0.929 . S
C636 C628 1.433 . S
C636 N638 1.384 . S
N637 C633 1.427 . S
N637 C634 1.384 . S
N638 C630 1.427 . S
N638 C636 1.384 . S
H639 C645 0.930 . S
H640 C649 0.930 . S
H641 C654 0.929 . S
H642 C652 0.929 . S
H643 C647 0.929 . S
H644 C653 0.929 . S
C645 H639 0.930 . S
C645 C646 1.367 . S
C645 C653 1.378 . S
C646 C645 1.367 . S
C646 C654 1.433 . S
C647 H643 0.929 . S
C647 C649 1.378 . S
C647 C651 1.350 . S
C648 C651 1.463 . S
C648 C653 1.350 . S
C648 N656 1.427 . S
C649 H640 0.930 . S
C649 C647 1.378 . S
C649 C650 1.367 . S
C650 C649 1.367 . S
C650 C652 1.433 . S
C651 C647 1.350 . S
C651 C648 1.463 . S
C651 N655 1.427 . S
C652 H642 0.929 . S
C652 C650 1.433 . S
C652 N655 1.384 . S
C653 H644 0.929 . S
C653 C645 1.378 . S
C653 C648 1.350 . S
C654 H641 0.929 . S
C654 C646 1.433 . S
C654 N656 1.384 . S
N655 C651 1.427 . S
N655 C652 1.384 . S
N656 C648 1.427 . S
N656 C654 1.384 . S
H657 C663 0.930 . S
H658 C667 0.930 . S
H659 C672 0.929 . S
H660 C670 0.929 . S
H661 C665 0.929 . S
H662 C671 0.929 . S
C663 H657 0.930 . S
C663 C664 1.367 . S
C663 C671 1.378 . S
C664 C663 1.367 . S
C664 C672 1.433 . S
C665 H661 0.929 . S
C665 C667 1.378 . S
C665 C669 1.350 . S
C666 C669 1.463 . S
C666 C671 1.350 . S
C666 N674 1.427 . S
C667 H658 0.930 . S
C667 C665 1.378 . S
C667 C668 1.367 . S
C668 C667 1.367 . S
C668 C670 1.433 . S
C669 C665 1.350 . S
C669 C666 1.463 . S
C669 N673 1.427 . S
C670 H660 0.929 . S
C670 C668 1.433 . S
C670 N673 1.384 . S
C671 H662 0.929 . S
C671 C663 1.378 . S
C671 C666 1.350 . S
C672 H659 0.929 . S
C672 C664 1.433 . S
C672 N674 1.384 . S
N673 C669 1.427 . S
N673 C670 1.384 . S
N674 C666 1.427 . S
N674 C672 1.384 . S
H675 C681 0.930 . S
H676 C685 0.930 . S
H677 C690 0.929 . S
H678 C688 0.929 . S
H679 C683 0.929 . S
H680 C689 0.929 . S
C681 H675 0.930 . S
C681 C682 1.367 . S
C681 C689 1.378 . S
C682 C681 1.367 . S
C682 C690 1.433 . S
C683 H679 0.929 . S
C683 C685 1.378 . S
C683 C687 1.350 . S
C684 C687 1.463 . S
C684 C689 1.350 . S
C684 N692 1.427 . S
C685 H676 0.930 . S
C685 C683 1.378 . S
C685 C686 1.367 . S
C686 C685 1.367 . S
C686 C688 1.433 . S
C687 C683 1.350 . S
C687 C684 1.463 . S
C687 N691 1.427 . S
C688 H678 0.929 . S
C688 C686 1.433 . S
C688 N691 1.384 . S
C689 H680 0.929 . S
C689 C681 1.378 . S
C689 C684 1.350 . S
C690 H677 0.929 . S
C690 C682 1.433 . S
C690 N692 1.384 . S
N691 C687 1.427 . S
N691 C688 1.384 . S
N692 C684 1.427 . S
N692 C690 1.384 . S
H693 C699 0.930 . S
H694 C703 0.930 . S
H695 C708 0.929 . S
H696 C706 0.929 . S
H697 C701 0.929 . S
H698 C707 0.929 . S
C699 H693 0.930 . S
C699 C700 1.367 . S
C699 C707 1.378 . S
C700 C699 1.367 . S
C700 C708 1.433 . S
C701 H697 0.929 . S
C701 C703 1.378 . S
C701 C705 1.350 . S
C702 C705 1.463 . S
C702 C707 1.350 . S
C702 N710 1.427 . S
C703 H694 0.930 . S
C703 C701 1.378 . S
C703 C704 1.367 . S
C704 C703 1.367 . S
C704 C706 1.433 . S
C705 C701 1.350 . S
C705 C702 1.463 . S
C705 N709 1.427 . S
C706 H696 0.929 . S
C706 C704 1.433 . S
C706 N709 1.384 . S
C707 H698 0.929 . S
C707 C699 1.378 . S
C707 C702 1.350 . S
C708 H695 0.929 . S
C708 C700 1.433 . S
C708 N710 1.384 . S
N709 C705 1.427 . S
N709 C706 1.384 . S
N710 C702 1.427 . S
N710 C708 1.384 . S
H711 C717 0.930 . S
H712 C721 0.930 . S
H713 C726 0.929 . S
H714 C724 0.929 . S
H715 C719 0.929 . S
H716 C725 0.929 . S
C717 H711 0.930 . S
C717 C718 1.367 . S
C717 C725 1.378 . S
C718 C717 1.367 . S
C718 C726 1.433 . S
C719 H715 0.929 . S
C719 C721 1.378 . S
C719 C723 1.350 . S
C720 C723 1.463 . S
C720 C725 1.350 . S
C720 N728 1.427 . S
C721 H712 0.930 . S
C721 C719 1.378 . S
C721 C722 1.367 . S
C722 C721 1.367 . S
C722 C724 1.433 . S
C723 C719 1.350 . S
C723 C720 1.463 . S
C723 N727 1.427 . S
C724 H714 0.929 . S
C724 C722 1.433 . S
C724 N727 1.384 . S
C725 H716 0.929 . S
C725 C717 1.378 . S
C725 C720 1.350 . S
C726 H713 0.929 . S
C726 C718 1.433 . S
C726 N728 1.384 . S
N727 C723 1.427 . S
N727 C724 1.384 . S
N728 C720 1.427 . S
N728 C726 1.384 . S
H729 C735 0.930 . S
H730 C739 0.930 . S
H731 C744 0.929 . S
H732 C742 0.929 . S
H733 C737 0.929 . S
H734 C743 0.929 . S
C735 H729 0.930 . S
C735 C736 1.367 . S
C735 C743 1.378 . S
C736 C735 1.367 . S
C736 C744 1.433 . S
C737 H733 0.929 . S
C737 C739 1.378 . S
C737 C741 1.350 . S
C738 C741 1.463 . S
C738 C743 1.350 . S
C738 N746 1.427 . S
C739 H730 0.930 . S
C739 C737 1.378 . S
C739 C740 1.367 . S
C740 C739 1.367 . S
C740 C742 1.433 . S
C741 C737 1.350 . S
C741 C738 1.463 . S
C741 N745 1.427 . S
C742 H732 0.929 . S
C742 C740 1.433 . S
C742 N745 1.384 . S
C743 H734 0.929 . S
C743 C735 1.378 . S
C743 C738 1.350 . S
C744 H731 0.929 . S
C744 C736 1.433 . S
C744 N746 1.384 . S
N745 C741 1.427 . S
N745 C742 1.384 . S
N746 C738 1.427 . S
N746 C744 1.384 . S
H747 C753 0.930 . S
H748 C757 0.930 . S
H749 C762 0.929 . S
H750 C760 0.929 . S
H751 C755 0.929 . S
H752 C761 0.929 . S
C753 H747 0.930 . S
C753 C754 1.367 . S
C753 C761 1.378 . S
C754 C753 1.367 . S
C754 C762 1.433 . S
C755 H751 0.929 . S
C755 C757 1.378 . S
C755 C759 1.350 . S
C756 C759 1.463 . S
C756 C761 1.350 . S
C756 N764 1.427 . S
C757 H748 0.930 . S
C757 C755 1.378 . S
C757 C758 1.367 . S
C758 C757 1.367 . S
C758 C760 1.433 . S
C759 C755 1.350 . S
C759 C756 1.463 . S
C759 N763 1.427 . S
C760 H750 0.929 . S
C760 C758 1.433 . S
C760 N763 1.384 . S
C761 H752 0.929 . S
C761 C753 1.378 . S
C761 C756 1.350 . S
C762 H749 0.929 . S
C762 C754 1.433 . S
C762 N764 1.384 . S
N763 C759 1.427 . S
N763 C760 1.384 . S
N764 C756 1.427 . S
N764 C762 1.384 . S
H765 C771 0.930 . S
H766 C775 0.930 . S
H767 C780 0.929 . S
H768 C778 0.929 . S
H769 C773 0.929 . S
H770 C779 0.929 . S
C771 H765 0.930 . S
C771 C772 1.367 . S
C771 C779 1.378 . S
C772 C771 1.367 . S
C772 C780 1.433 . S
C773 H769 0.929 . S
C773 C775 1.378 . S
C773 C777 1.350 . S
C774 C777 1.463 . S
C774 C779 1.350 . S
C774 N782 1.427 . S
C775 H766 0.930 . S
C775 C773 1.378 . S
C775 C776 1.367 . S
C776 C775 1.367 . S
C776 C778 1.433 . S
C777 C773 1.350 . S
C777 C774 1.463 . S
C777 N781 1.427 . S
C778 H768 0.929 . S
C778 C776 1.433 . S
C778 N781 1.384 . S
C779 H770 0.929 . S
C779 C771 1.378 . S
C779 C774 1.350 . S
C780 H767 0.929 . S
C780 C772 1.433 . S
C780 N782 1.384 . S
N781 C777 1.427 . S
N781 C778 1.384 . S
N782 C774 1.427 . S
N782 C780 1.384 . S
H783 C789 0.930 . S
H784 C793 0.930 . S
H785 C798 0.929 . S
H786 C796 0.929 . S
H787 C791 0.929 . S
H788 C797 0.929 . S
C789 H783 0.930 . S
C789 C790 1.367 . S
C789 C797 1.378 . S
C790 C789 1.367 . S
C790 C798 1.433 . S
C791 H787 0.929 . S
C791 C793 1.378 . S
C791 C795 1.350 . S
C792 C795 1.463 . S
C792 C797 1.350 . S
C792 N800 1.427 . S
C793 H784 0.930 . S
C793 C791 1.378 . S
C793 C794 1.367 . S
C794 C793 1.367 . S
C794 C796 1.433 . S
C795 C791 1.350 . S
C795 C792 1.463 . S
C795 N799 1.427 . S
C796 H786 0.929 . S
C796 C794 1.433 . S
C796 N799 1.384 . S
C797 H788 0.929 . S
C797 C789 1.378 . S
C797 C792 1.350 . S
C798 H785 0.929 . S
C798 C790 1.433 . S
C798 N800 1.384 . S
N799 C795 1.427 . S
N799 C796 1.384 . S
N800 C792 1.427 . S
N800 C798 1.384 . S
C376 C15 1.767 . S
C380 C276 1.690 . S
C394 C47 1.577 . S
C398 C308 1.551 . S
C416 C367 1.895 . S
C412 C100 1.954 . S
C434 C296 1.437 . S
C430 C146 1.479 . S
C448 C192 1.684 . S
C452 C326 1.579 . S
C470 C348 1.229 . S
C466 C245 1.230 . S
C488 C317 1.686 . S
C484 C114 1.689 . S
C502 C160 1.314 . S
C506 C357 1.259 . S
C524 C306 1.579 . S
C520 C206 1.606 . S
C538 C231 1.544 1_556 S
C542 C336 1.498 . S
C556 C1 1.879 1_556 S
C560 C339 1.824 . S
C578 C278 1.612 . S
C574 C61 1.636 . S
C596 C286 1.623 . S
C592 C139 1.665 . S
C614 C327 1.537 . S
C610 C185 1.552 . S
C632 C340 1.923 . S
C628 C252 1.974 1_556 S
C650 C277 1.462 . S
C646 C22 1.503 1_556 S
C668 C337 1.549 . S
C664 C54 1.589 . S
C682 C93 1.254 . S
C686 C338 1.219 . S
C704 C307 1.620 . S
C700 C238 1.678 . S
C722 C368 1.243 . S
C718 C8 1.265 . S
C740 C295 1.542 . S
C736 C68 1.621 . S
C758 C309 1.543 . S
C754 C107 1.588 . S
C772 C153 1.883 . S
C776 C358 1.829 . S
C790 C199 1.662 . S
C794 C305 1.624 . S
