# Generated by pormake.
# Topology anh, (6,3)-cn, num edge types: 1
# Building blocks:
#     Node 0, Type 0, BuildingBlock: GEDQOX_clean_sbu_0, # of connection points: 6
#     Node 1, Type 0, BuildingBlock: GEDQOX_clean_sbu_0, # of connection points: 6
#     Node 2, Type 0, BuildingBlock: GEDQOX_clean_sbu_0, # of connection points: 6
#     Node 3, Type 1, BuildingBlock: KAKCAD_clean_linker_0, # of connection points: 3
#     Node 4, Type 1, BuildingBlock: KAKCAD_clean_linker_0, # of connection points: 3
#     Node 5, Type 1, BuildingBlock: KAKCAD_clean_linker_0, # of connection points: 3
#     Node 6, Type 1, BuildingBlock: KAKCAD_clean_linker_0, # of connection points: 3
#     Node 7, Type 1, BuildingBlock: KAKCAD_clean_linker_0, # of connection points: 3
#     Node 8, Type 1, BuildingBlock: KAKCAD_clean_linker_0, # of connection points: 3
#     Edge 9, Type (0, 1), BuildingBlock: XIVTED_clean_linker_0, # of connection points: 2
#     Edge 10, Type (0, 1), BuildingBlock: XIVTED_clean_linker_0, # of connection points: 2
#     Edge 11, Type (0, 1), BuildingBlock: XIVTED_clean_linker_0, # of connection points: 2
#     Edge 12, Type (0, 1), BuildingBlock: XIVTED_clean_linker_0, # of connection points: 2
#     Edge 13, Type (0, 1), BuildingBlock: XIVTED_clean_linker_0, # of connection points: 2
#     Edge 14, Type (0, 1), BuildingBlock: XIVTED_clean_linker_0, # of connection points: 2
#     Edge 15, Type (0, 1), BuildingBlock: XIVTED_clean_linker_0, # of connection points: 2
#     Edge 16, Type (0, 1), BuildingBlock: XIVTED_clean_linker_0, # of connection points: 2
#     Edge 17, Type (0, 1), BuildingBlock: XIVTED_clean_linker_0, # of connection points: 2
#     Edge 18, Type (0, 1), BuildingBlock: XIVTED_clean_linker_0, # of connection points: 2
#     Edge 19, Type (0, 1), BuildingBlock: XIVTED_clean_linker_0, # of connection points: 2
#     Edge 20, Type (0, 1), BuildingBlock: XIVTED_clean_linker_0, # of connection points: 2
#     Edge 21, Type (0, 1), BuildingBlock: XIVTED_clean_linker_0, # of connection points: 2
#     Edge 22, Type (0, 1), BuildingBlock: XIVTED_clean_linker_0, # of connection points: 2
#     Edge 23, Type (0, 1), BuildingBlock: XIVTED_clean_linker_0, # of connection points: 2
#     Edge 24, Type (0, 1), BuildingBlock: XIVTED_clean_linker_0, # of connection points: 2
#     Edge 25, Type (0, 1), BuildingBlock: XIVTED_clean_linker_0, # of connection points: 2
#     Edge 26, Type (0, 1), BuildingBlock: XIVTED_clean_linker_0, # of connection points: 2
# Relax obj value: 0.178
# Max RMSD: 0.210
# Mean RMSD: 0.157
data_MOF--net-anh--node1-GEDQOX_clean_sbu_0--node2-KAKCAD_clean_linker_0--edge1-XIVTED_clean_linker_0
_symmetry_space_group_name_H-M    P1
_symmetry_Int_Tables_number       1
_symmetry_cell_setting            triclinic
loop_
_symmetry_equiv_pos_as_xyz
'x, y, z'
_cell_length_a     36.588835
_cell_length_b     35.7635
_cell_length_c     67.080901
_cell_angle_alpha  94.132721
_cell_angle_beta   89.605342
_cell_angle_gamma 104.95788
loop_
_atom_site_label
_atom_site_type_symbol
_atom_site_fract_x
_atom_site_fract_y
_atom_site_fract_z
_atom_type_partial_charge
Nd0 Nd 0.09279 0.54889 0.14316 0.0
Nd1 Nd 0.07156 0.46176 0.14666 0.0
C2 C 0.12406 0.62095 0.13411 0.0
C3 C 0.16011 0.64949 0.13915 0.0
C4 C 0.16839 0.68597 0.13133 0.0
C5 C 0.2025 0.7134 0.13632 0.0
C6 C 0.22893 0.70475 0.14922 0.0
C7 C 0.22049 0.66788 0.15687 0.0
C8 C 0.18639 0.64053 0.15188 0.0
C9 C 0.07666 0.52735 0.18125 0.0
C10 C 0.16106 0.50291 0.14791 0.0
C11 C 1.04168 0.38923 0.15533 0.0
C12 C 1.00465 0.36422 0.16047 0.0
C13 C 0.97773 0.37939 0.17097 0.0
C14 C 0.94296 0.35485 0.17595 0.0
C15 C 0.93441 0.31481 0.17035 0.0
C16 C 0.96132 0.29996 0.15958 0.0
C17 C 0.99611 0.32444 0.15473 0.0
C18 C 0.08994 0.48565 0.10903 0.0
C19 C 1.00417 0.5068 0.14108 0.0
O20 O 0.12642 0.59038 0.12277 0.0
O21 O 0.10068 0.6123 0.14892 0.0
O22 O 0.06732 0.55627 0.174 0.0
O23 O 0.09566 0.51206 0.16891 0.0
O24 O 0.15132 0.53428 0.14292 0.0
O25 O 0.13522 0.47133 0.15229 0.0
O26 O 1.05782 0.41706 0.16866 0.0
O27 O 1.0452 0.40001 0.13706 0.0
O28 O 0.10072 0.45739 0.11621 0.0
O29 O 0.06939 0.4988 0.1213 0.0
O30 O 1.0141 0.47854 0.14963 0.0
O31 O 1.03016 0.53533 0.13377 0.0
H32 H 0.14845 0.69326 0.12141 0.0
H33 H 0.20829 0.74129 0.12996 0.0
H34 H 0.23989 0.66038 0.16704 0.0
H35 H 0.18038 0.61248 0.1581 0.0
H36 H 0.98362 0.41012 0.17538 0.0
H37 H 0.92265 0.36723 0.18405 0.0
H38 H 0.9558 0.26923 0.15524 0.0
H39 H 1.01653 0.31224 0.14659 0.0
Nd40 Nd 0.52289 0.97583 0.51945 0.0
Nd41 Nd 0.60539 0.99818 0.50886 0.0
C42 C 0.45472 0.94412 0.53293 0.0
C43 C 0.42467 0.90952 0.52611 0.0
C44 C 0.40405 0.88522 0.54004 0.0
C45 C 0.37685 0.85123 0.53357 0.0
C46 C 0.36977 0.84099 0.51302 0.0
C47 C 0.39027 0.86582 0.49916 0.0
C48 C 0.41757 0.89951 0.50562 0.0
C49 C 0.53607 0.98384 0.47947 0.0
C50 C 0.56867 0.90722 0.51108 0.0
C51 C 0.67273 0.02842 0.49383 0.0
C52 C 0.69715 0.06698 0.49027 0.0
C53 C 0.68207 0.09663 0.48403 0.0
C54 C 0.706 0.13291 0.48059 0.0
C55 C 0.74533 0.14023 0.48352 0.0
C56 C 0.76016 0.11059 0.49005 0.0
C57 C 0.73627 0.07429 0.49334 0.0
C58 C 0.59173 0.98827 0.54868 0.0
C59 C 0.56149 0.06632 0.51954 0.0
O60 O 0.48546 0.93746 0.54002 0.0
O61 O 0.46181 0.97281 0.52123 0.0
O62 O 0.50905 0.99446 0.48893 0.0
O63 O 0.55367 0.96766 0.49074 0.0
O64 O 0.53954 0.91761 0.51937 0.0
O65 O 0.59675 0.93276 0.50329 0.0
O66 O 0.64187 0.01602 0.48293 0.0
O67 O 0.66761 0.0205 0.51251 0.0
O68 O 0.6185 0.97739 0.53901 0.0
O69 O 0.5745 0.00539 0.5377 0.0
O70 O 0.58727 0.05561 0.50822 0.0
O71 O 0.53658 0.04058 0.52919 0.0
H72 H 0.40939 0.89225 0.55591 0.0
H73 H 0.36198 0.8326 0.54466 0.0
H74 H 0.38517 0.85936 0.48325 0.0
H75 H 0.43333 0.9176 0.49454 0.0
H76 H 0.65187 0.09175 0.48177 0.0
H77 H 0.69373 0.15532 0.47577 0.0
H78 H 0.79035 0.11518 0.49221 0.0
H79 H 0.74839 0.05179 0.4982 0.0
Nd80 Nd 0.49123 0.47987 0.82889 0.0
Nd81 Nd 0.57238 0.51214 0.85139 0.0
C82 C 0.43121 0.47078 0.80582 0.0
C83 C 0.42051 0.49799 0.79302 0.0
C84 C 0.44861 0.52693 0.7846 0.0
C85 C 0.43974 0.55947 0.7777 0.0
C86 C 0.40276 0.56392 0.77946 0.0
C87 C 0.37399 0.53282 0.78583 0.0
C88 C 0.38287 0.50014 0.7926 0.0
C89 C 0.49396 0.47725 0.86976 0.0
C90 C 0.52884 0.57401 0.83787 0.0
C91 C 0.62654 0.53184 0.8787 0.0
C92 C 0.6676 0.53706 0.87882 0.0
C93 C 0.68587 0.53076 0.89606 0.0
C94 C 0.72528 0.53824 0.8967 0.0
C95 C 0.74681 0.55246 0.88014 0.0
C96 C 0.72829 0.55755 0.86267 0.0
C97 C 0.68896 0.54966 0.86197 0.0
C98 C 0.58078 0.50914 0.81037 0.0
C99 C 0.53933 0.41888 0.83663 0.0
O100 O 0.46053 0.45804 0.80026 0.0
O101 O 0.4316 0.48106 0.82499 0.0
O102 O 0.47154 0.45012 0.85832 0.0
O103 O 0.51184 0.504 0.85965 0.0
O104 O 0.50762 0.54597 0.8258 0.0
O105 O 0.55132 0.56712 0.85169 0.0
O106 O 0.60562 0.49617 0.87545 0.0
O107 O 0.61451 0.5571 0.8691 0.0
O108 O 0.60939 0.52141 0.82266 0.0
O109 O 0.55128 0.49945 0.82036 0.0
O110 O 0.55946 0.44485 0.85021 0.0
O111 O 0.51458 0.42699 0.82448 0.0
H112 H 0.47795 0.52608 0.78486 0.0
H113 H 0.46242 0.58266 0.77263 0.0
H114 H 0.34525 0.53531 0.78755 0.0
H115 H 0.36085 0.47823 0.79914 0.0
H116 H 0.66973 0.52089 0.90915 0.0
H117 H 0.73898 0.53431 0.91037 0.0
H118 H 0.74429 0.56806 0.84965 0.0
H119 H 0.6753 0.55427 0.84842 0.0
C120 C 0.58122 0.03673 0.32313 0.0
C121 C 0.57566 1.00118 0.3319 0.0
C122 C 0.58353 0.03819 0.30239 0.0
C123 C 0.5801 0.00409 0.28994 0.0
C124 C 0.57489 0.96859 0.29871 0.0
C125 C 0.57281 0.96716 0.31947 0.0
C126 C 0.58137 0.0055 0.26786 0.0
C127 C 0.60845 0.03459 0.25897 0.0
C128 C 0.60968 0.0363 0.23811 0.0
C129 C 0.58322 0.00846 0.22605 0.0
C130 C 0.55571 0.97922 0.23473 0.0
C131 C 0.55516 0.97798 0.25563 0.0
C132 C 0.52664 0.9505 0.22224 0.0
C133 C 0.50731 0.96241 0.20685 0.0
C134 C 0.51645 0.91123 0.22644 0.0
C135 C 0.48683 0.88472 0.21597 0.0
C136 C 0.46659 0.89682 0.20103 0.0
C137 C 0.63914 0.06701 0.22913 0.0
C138 C 0.64693 0.10561 0.23724 0.0
C139 C 0.66094 0.05773 0.21312 0.0
C140 C 0.69084 0.08622 0.20587 0.0
C141 C 0.69939 0.1247 0.21437 0.0
C142 C 0.67656 0.13412 0.2299 0.0
C143 C 0.47752 0.93588 0.1964 0.0
H144 H 0.58387 0.06349 0.33232 0.0
H145 H 0.58728 0.06594 0.29606 0.0
H146 H 0.5725 0.94188 0.28951 0.0
H147 H 0.56819 0.93928 0.32576 0.0
H148 H 0.62926 0.05545 0.26832 0.0
H149 H 0.53344 0.95621 0.26247 0.0
H150 H 0.58395 0.00965 0.20995 0.0
H151 H 0.51434 0.99251 0.20334 0.0
H152 H 0.53107 0.90107 0.23807 0.0
H153 H 0.47899 0.85497 0.22005 0.0
H154 H 0.63019 0.11372 0.24939 0.0
H155 H 0.65578 0.02814 0.2067 0.0
H156 H 0.4628 0.94604 0.18483 0.0
H157 H 0.68167 0.16356 0.23651 0.0
H158 H 0.70802 0.07774 0.19405 0.0
C159 C 0.56951 0.53552 0.65073 0.0
C160 C 0.59395 0.51935 0.66137 0.0
C161 C 0.56958 0.53338 0.62983 0.0
C162 C 0.59382 0.51469 0.61916 0.0
C163 C 0.61868 0.49912 0.62981 0.0
C164 C 0.61882 0.50152 0.65067 0.0
C165 C 0.59236 0.51006 0.597 0.0
C166 C 0.59184 0.54134 0.58569 0.0
C167 C 0.59049 0.53687 0.56468 0.0
C168 C 0.58931 0.50025 0.55494 0.0
C169 C 0.59048 0.46867 0.56615 0.0
C170 C 0.59147 0.47398 0.58714 0.0
C171 C 0.59074 0.4298 0.55656 0.0
C172 C 0.56634 0.41236 0.54046 0.0
C173 C 0.6134 0.40832 0.56484 0.0
C174 C 0.60971 0.36962 0.55831 0.0
C175 C 0.58386 0.35153 0.54304 0.0
C176 C 0.5908 0.57111 0.55333 0.0
C177 C 0.56261 0.56982 0.53899 0.0
C178 C 0.61763 0.6065 0.55817 0.0
C179 C 0.61554 0.64022 0.54946 0.0
C180 C 0.58636 0.63949 0.5358 0.0
C181 C 0.56025 0.60377 0.53041 0.0
C182 C 0.56306 0.37351 0.53368 0.0
H183 H 0.55027 0.54975 0.65858 0.0
H184 H 0.54999 0.54545 0.622 0.0
H185 H 0.63793 0.48487 0.62197 0.0
H186 H 0.63775 0.4885 0.65842 0.0
H187 H 0.59264 0.56936 0.59327 0.0
H188 H 0.5908 0.44958 0.59596 0.0
H189 H 0.58872 0.49675 0.53875 0.0
H190 H 0.54849 0.42805 0.53377 0.0
H191 H 0.63328 0.42112 0.57688 0.0
H192 H 0.62654 0.35348 0.56552 0.0
H193 H 0.54149 0.54294 0.53507 0.0
H194 H 0.63977 0.60828 0.56911 0.0
H195 H 0.54296 0.36011 0.52183 0.0
H196 H 0.53763 0.6022 0.5198 0.0
H197 H 0.6359 0.66722 0.55411 0.0
C198 C 0.20379 0.67817 0.99312 0.0
C199 C 0.20324 0.6388 0.99401 0.0
C200 C 0.20664 0.69478 0.97477 0.0
C201 C 0.20987 0.67262 0.95707 0.0
C202 C 0.21359 0.63474 0.95811 0.0
C203 C 0.21025 0.6179 0.97644 0.0
C204 C 0.19843 0.68424 0.93794 0.0
C205 C 0.22385 0.6939 0.92221 0.0
C206 C 0.21041 0.69958 0.90333 0.0
C207 C 0.17142 0.69495 0.9004 0.0
C208 C 0.14578 0.68417 0.91587 0.0
C209 C 0.15978 0.68021 0.93476 0.0
C210 C 0.10441 0.67271 0.91173 0.0
C211 C 0.08795 0.69266 0.89853 0.0
C212 C 0.08138 0.63995 0.92011 0.0
C213 C 1.04295 0.62737 0.91539 0.0
C214 C 1.02656 0.6468 0.90191 0.0
C215 C 0.23594 0.70623 0.88595 0.0
C216 C 0.27128 0.7336 0.8873 0.0
C217 C 0.22469 0.68461 0.86771 0.0
C218 C 0.24823 0.68986 0.85123 0.0
C219 C 0.28381 0.71688 0.85247 0.0
C220 C 0.29501 0.73896 0.87068 0.0
C221 C 1.04947 0.67975 0.89361 0.0
H222 H 0.19941 0.69541 0.00643 0.0
H223 H 0.20331 0.72393 0.97422 0.0
H224 H 0.21537 0.61695 0.94454 0.0
H225 H 0.20981 0.58752 0.9765 0.0
H226 H 0.25352 0.69544 0.92446 0.0
H227 H 0.14031 0.67198 0.94691 0.0
H228 H 0.16088 0.69787 0.88569 0.0
H229 H 0.10481 0.71813 0.89191 0.0
H230 H 0.09315 0.62332 0.93 0.0
H231 H 1.0261 0.60234 0.92238 0.0
H232 H 0.28051 0.75082 0.90117 0.0
H233 H 0.19801 0.66265 0.8663 0.0
H234 H 1.03789 0.69524 0.88303 0.0
H235 H 0.32225 0.75999 0.87215 0.0
H236 H 0.23907 0.67132 0.83775 0.0
C237 C 1.02777 0.4871 0.33855 0.0
C238 C 1.06166 0.49007 0.32805 0.0
C239 C 1.02727 0.48647 0.35934 0.0
C240 C 1.06067 0.48882 0.37015 0.0
C241 C 0.0945 0.4913 0.35964 0.0
C242 C 0.09498 0.49185 0.33882 0.0
C243 C 1.06018 0.48923 0.39232 0.0
C244 C 1.0304 0.46443 0.40199 0.0
C245 C 1.02915 0.46518 0.42295 0.0
C246 C 1.05808 0.49131 0.43434 0.0
C247 C 0.08809 0.51635 0.42488 0.0
C248 C 0.08904 0.51494 0.4039 0.0
C249 C 0.11804 0.54501 0.4367 0.0
C250 C 0.10857 0.57038 0.45161 0.0
C251 C 0.15629 0.54875 0.43225 0.0
C252 C 0.18452 0.57801 0.44211 0.0
C253 C 0.17513 0.60466 0.45643 0.0
C254 C 0.99781 0.4379 0.43267 0.0
C255 C 0.96025 0.43321 0.42642 0.0
C256 C 1.00536 0.41459 0.44727 0.0
C257 C 0.97606 0.38587 0.4548 0.0
C258 C 0.93854 0.38015 0.448 0.0
C259 C 0.93094 0.40484 0.43407 0.0
C260 C 0.13679 0.60004 0.4613 0.0
H261 H 1.00153 0.48526 0.33069 0.0
H262 H 1.00081 0.48489 0.36699 0.0
H263 H 0.12062 0.49274 0.36752 0.0
H264 H 0.12162 0.49451 0.33119 0.0
H265 H 1.00849 0.44378 0.39318 0.0
H266 H 0.11166 0.53492 0.39659 0.0
H267 H 1.05721 0.49222 0.45052 0.0
H268 H 0.07922 0.56828 0.45519 0.0
H269 H 0.16434 0.52922 0.42098 0.0
H270 H 0.21372 0.57993 0.43831 0.0
H271 H 0.95362 0.45123 0.41538 0.0
H272 H 1.03413 0.41743 0.45223 0.0
H273 H 0.12834 0.62019 0.47206 0.0
H274 H 0.90234 0.40197 0.42886 0.0
H275 H 0.9831 0.36718 0.46533 0.0
C276 C 0.53409 0.96455 0.70674 0.0
C277 C 0.56565 0.98772 0.69749 0.0
C278 C 0.53143 0.96627 0.72758 0.0
C279 C 0.56002 0.9916 0.73953 0.0
C280 C 0.5914 0.01497 0.73026 0.0
C281 C 0.59429 0.0129 0.70946 0.0
C282 C 0.55731 0.9937 0.76162 0.0
C283 C 0.54807 0.95978 0.77183 0.0
C284 C 0.54666 0.96158 0.79281 0.0
C285 C 0.55411 0.99801 0.80367 0.0
C286 C 0.56287 0.03237 0.79355 0.0
C287 C 0.56452 0.02975 0.77255 0.0
C288 C 0.56893 0.07132 0.80434 0.0
C289 C 0.54328 0.07878 0.81886 0.0
C290 C 0.5978 0.10251 0.79828 0.0
C291 C 0.59905 0.14055 0.8052 0.0
C292 C 0.57168 0.14831 0.81849 0.0
C293 C 0.5387 0.92488 0.80293 0.0
C294 C 0.50758 0.89419 0.79672 0.0
C295 C 0.56451 0.91851 0.81686 0.0
C296 C 0.56066 0.88133 0.82339 0.0
C297 C 0.53077 0.84997 0.81617 0.0
C298 C 0.50352 0.85725 0.80335 0.0
C299 C 0.5447 0.11703 0.82591 0.0
H300 H 0.51172 0.94473 0.69786 0.0
H301 H 0.50683 0.94811 0.73435 0.0
H302 H 0.61397 0.03455 0.73912 0.0
H303 H 0.61877 0.03132 0.70272 0.0
H304 H 0.54319 0.93183 0.76344 0.0
H305 H 0.57043 0.05592 0.76457 0.0
H306 H 0.55301 0.99957 0.81985 0.0
H307 H 0.52066 0.05536 0.82376 0.0
H308 H 0.61845 0.09762 0.78742 0.0
H309 H 0.62056 0.16409 0.7995 0.0
H310 H 0.48707 0.8985 0.78612 0.0
H311 H 0.5889 0.94167 0.82176 0.0
H312 H 0.52321 0.12224 0.83613 0.0
H313 H 0.47958 0.83408 0.79791 0.0
H314 H 0.58225 0.87678 0.8332 0.0
C315 C 0.56484 0.4546 0.02472 0.0
C316 C 0.54631 0.48006 0.01666 0.0
C317 C 0.5725 0.45713 0.04527 0.0
C318 C 0.56132 0.48481 0.05815 0.0
C319 C 0.5428 0.51023 0.05007 0.0
C320 C 0.53554 0.50801 0.02954 0.0
C321 C 0.56776 0.48643 0.08006 0.0
C322 C 0.60311 0.48622 0.08788 0.0
C323 C 0.60945 0.48698 0.10867 0.0
C324 C 0.57906 0.48889 0.12174 0.0
C325 C 0.54319 0.48899 0.11387 0.0
C326 C 0.53817 0.48781 0.09314 0.0
C327 C 0.50934 0.48927 0.12632 0.0
C328 C 0.47918 0.45564 0.12593 0.0
C329 C 0.5027 0.52462 0.13378 0.0
C330 C 0.46627 0.52658 0.13979 0.0
C331 C 0.43542 0.49325 0.13834 0.0
C332 C 0.64805 0.48574 0.11593 0.0
C333 C 0.66895 0.46381 0.10459 0.0
C334 C 0.66578 0.50837 0.13298 0.0
C335 C 0.7038 0.51048 0.13783 0.0
C336 C 0.72508 0.4904 0.12562 0.0
C337 C 0.70685 0.46651 0.10919 0.0
C338 C 0.44283 0.45753 0.13192 0.0
H339 H 0.57374 0.43299 0.01512 0.0
H340 H 0.58656 0.43698 0.05113 0.0
H341 H 0.53403 0.53197 0.05964 0.0
H342 H 0.521 0.52785 0.02378 0.0
H343 H 0.62606 0.48628 0.07757 0.0
H344 H 0.51062 0.48744 0.08711 0.0
H345 H 0.58291 0.48933 0.13776 0.0
H346 H 0.48318 0.42821 0.11968 0.0
H347 H 0.52514 0.55117 0.13375 0.0
H348 H 0.46206 0.55454 0.14493 0.0
H349 H 0.65624 0.44494 0.09176 0.0
H350 H 0.65085 0.5257 0.1421 0.0
H351 H 0.42008 0.43123 0.13027 0.0
H352 H 0.72211 0.45003 0.09972 0.0
H353 H 0.71703 0.52906 0.15065 0.0
H354 H 0.22256 0.56123 0.1382 0.0
H355 H 0.3759 0.4403 0.15478 0.0
H356 H 0.19359 0.44501 0.1578 0.0
H357 H 0.40275 0.55207 0.12995 0.0
H358 H 0.31002 0.44319 0.15801 0.0
H359 H 0.28912 0.56007 0.13723 0.0
C360 C 0.23009 0.53546 0.14239 0.0
C361 C 0.20206 0.50311 0.14806 0.0
C362 C 0.33036 0.46718 0.15193 0.0
C363 C 0.27889 0.50164 0.14694 0.0
C364 C 0.36814 0.46551 0.15 0.0
C365 C 0.39543 0.49592 0.142 0.0
C366 C 0.31934 0.49952 0.14586 0.0
C367 C 0.38324 0.52807 0.13645 0.0
C368 C 0.26826 0.53483 0.14179 0.0
C369 C 0.21396 0.47065 0.1533 0.0
N370 N 0.3463 0.52892 0.13841 0.0
N371 N 0.25129 0.47074 0.15259 0.0
H372 H 0.74332 0.18288 0.45145 0.0
H373 H 0.92785 0.35102 0.48518 0.0
H374 H 0.80602 0.18389 0.50582 0.0
H375 H 0.87925 0.33382 0.42566 0.0
H376 H 0.87909 0.29453 0.49472 0.0
H377 H 0.7881 0.24355 0.44371 0.0
C378 C 0.76629 0.19609 0.46187 0.0
C379 C 0.77105 0.17821 0.47926 0.0
C380 C 0.87906 0.3033 0.47961 0.0
C381 C 0.8226 0.2475 0.47043 0.0
C382 C 0.907 0.33546 0.4741 0.0
C383 C 0.90785 0.34731 0.45454 0.0
C384 C 0.85162 0.28289 0.46549 0.0
C385 C 0.87954 0.3263 0.44099 0.0
C386 C 0.792 0.23058 0.45738 0.0
C387 C 0.8016 0.19643 0.49211 0.0
N388 N 0.85271 0.29515 0.4467 0.0
N389 N 0.82625 0.23004 0.48743 0.0
H390 H 0.51037 0.60333 0.80411 0.0
H391 H 0.54813 0.82249 0.85145 0.0
H392 H 0.54762 0.63729 0.86516 0.0
H393 H 0.51152 0.78472 0.79057 0.0
H394 H 0.54815 0.75553 0.85726 0.0
H395 H 0.51178 0.67056 0.7992 0.0
C396 C 0.5183 0.62486 0.81659 0.0
C397 C 0.52855 0.61462 0.83513 0.0
C398 C 0.53998 0.76198 0.84267 0.0
C399 C 0.52933 0.69175 0.82973 0.0
C400 C 0.54007 0.80022 0.83932 0.0
C401 C 0.52957 0.80938 0.82052 0.0
C402 C 0.52948 0.73272 0.82708 0.0
C403 C 0.5191 0.77913 0.80543 0.0
C404 C 0.51909 0.6633 0.81378 0.0
C405 C 0.5394 0.64396 0.85063 0.0
N406 N 0.51938 0.74236 0.80904 0.0
N407 N 0.53926 0.6812 0.84764 0.0
H408 H 0.97053 0.54494 0.11551 0.0
H409 H 0.76172 0.48127 0.16014 0.0
H410 H 0.94409 0.46695 0.16276 0.0
H411 H 0.78281 0.50999 0.09911 0.0
H412 H 0.82969 0.48585 0.16457 0.0
H413 H 0.90315 0.54238 0.11244 0.0
C414 C 0.95064 0.52743 0.12533 0.0
C415 C 0.9632 0.50604 0.13938 0.0
C416 C 0.81938 0.49124 0.15024 0.0
C417 C 0.8857 0.50344 0.1361 0.0
C418 C 0.78067 0.48887 0.14775 0.0
C419 C 0.76648 0.49512 0.1292 0.0
C420 C 0.8443 0.50085 0.13422 0.0
C421 C 0.7924 0.50467 0.11362 0.0
C422 C 0.91211 0.52589 0.12351 0.0
C423 C 0.93583 0.48377 0.15163 0.0
N424 N 0.82989 0.50746 0.1165 0.0
N425 N 0.89851 0.48325 0.14981 0.0
H426 H 0.30085 0.80701 0.52935 0.0
H427 H 0.23851 0.64713 0.43854 0.0
H428 H 0.37424 0.79132 0.4805 0.0
H429 H 0.17991 0.63934 0.49484 0.0
H430 H 0.28651 0.70253 0.45309 0.0
H431 H 0.25431 0.74803 0.51652 0.0
C432 C 0.30738 0.79109 0.51604 0.0
C433 C 0.34152 0.80449 0.50592 0.0
C434 C 0.26327 0.68858 0.46231 0.0
C435 C 0.28802 0.73731 0.49101 0.0
C436 C 0.23587 0.65666 0.45405 0.0
C437 C 0.20502 0.63812 0.46547 0.0
C438 C 0.25979 0.70263 0.48212 0.0
C439 C 0.20284 0.65284 0.48534 0.0
C440 C 0.28069 0.75751 0.50868 0.0
C441 C 0.34805 0.78278 0.48858 0.0
N442 N 0.22976 0.68431 0.49301 0.0
N443 N 0.32152 0.75049 0.48164 0.0
H444 H 0.52315 0.36703 0.80419 0.0
H445 H 0.56392 0.18729 0.85468 0.0
H446 H 0.56749 0.38014 0.86449 0.0
H447 H 0.57182 0.20093 0.79131 0.0
H448 H 0.55697 0.25409 0.86003 0.0
H449 H 0.53182 0.30162 0.80063 0.0
C450 C 0.53461 0.3561 0.81674 0.0
C451 C 0.54467 0.37914 0.83467 0.0
C452 C 0.5605 0.24238 0.84501 0.0
C453 C 0.55447 0.30393 0.83067 0.0
C454 C 0.5643 0.20437 0.84195 0.0
C455 C 0.56875 0.18877 0.82254 0.0
C456 C 0.56023 0.26432 0.82848 0.0
C457 C 0.569 0.21201 0.80653 0.0
C458 C 0.53972 0.31879 0.81464 0.0
C459 C 0.55959 0.3634 0.85037 0.0
N460 N 0.56451 0.24841 0.80984 0.0
N461 N 0.56383 0.32656 0.84806 0.0
H462 H 0.62833 0.8761 0.50146 0.0
H463 H 0.5213 0.66318 0.5322 0.0
H464 H 0.51276 0.8447 0.52152 0.0
H465 H 0.64167 0.70035 0.52289 0.0
H466 H 0.51567 0.72672 0.52344 0.0
H467 H 0.63166 0.8093 0.50461 0.0
C468 C 0.60353 0.85514 0.50635 0.0
C469 C 0.57029 0.8662 0.51136 0.0
C470 C 0.54329 0.72089 0.52317 0.0
C471 C 0.57395 0.78957 0.515 0.0
C472 C 0.54648 0.68447 0.528 0.0
C473 C 0.58205 0.67642 0.52838 0.0
C474 C 0.57587 0.74952 0.51856 0.0
C475 C 0.61375 0.70543 0.52306 0.0
C476 C 0.60551 0.817 0.5082 0.0
C477 C 0.53909 0.83766 0.51763 0.0
N478 N 0.60994 0.74067 0.51844 0.0
N479 N 0.54173 0.80077 0.51932 0.0
H480 H 0.79422 0.51166 0.89374 0.0
H481 H 0.97613 0.68983 0.89528 0.0
H482 H 0.79382 0.62035 0.86983 0.0
H483 H 0.98367 0.57141 0.89654 0.0
H484 H 0.90854 0.66579 0.888 0.0
H485 H 0.86327 0.53384 0.89737 0.0
C486 C 0.80876 0.54011 0.88921 0.0
C487 C 0.78851 0.56426 0.88148 0.0
C488 C 0.92511 0.64512 0.88977 0.0
C489 C 0.86694 0.58984 0.88571 0.0
C490 C 0.96375 0.65879 0.89384 0.0
C491 C 0.98572 0.63266 0.89667 0.0
C492 C 0.90817 0.60506 0.88878 0.0
C493 C 0.9678 0.59272 0.89494 0.0
C494 C 0.84804 0.55266 0.89118 0.0
C495 C 0.80853 0.60077 0.8757 0.0
N496 N 0.93001 0.58015 0.89127 0.0
N497 N 0.84666 0.61262 0.8781 0.0
H498 H 0.23966 0.78303 0.15809 0.0
H499 H 0.45842 0.82047 0.18795 0.0
H500 H 0.29998 0.69379 0.15372 0.0
H501 H 0.39825 0.90981 0.19165 0.0
H502 H 0.40149 0.77428 0.17397 0.0
H503 H 0.29829 0.83053 0.16873 0.0
C504 C 0.26529 0.77344 0.15917 0.0
C505 C 0.26477 0.73424 0.15504 0.0
C506 C 0.40078 0.80404 0.17773 0.0
C507 C 0.33208 0.78856 0.1675 0.0
C508 C 0.43326 0.83041 0.18579 0.0
C509 C 0.43314 0.8691 0.19108 0.0
C510 C 0.36778 0.81632 0.17497 0.0
C511 C 0.39984 0.88042 0.18763 0.0
C512 C 0.29876 0.80059 0.16537 0.0
C513 C 0.29884 0.72353 0.15703 0.0
N514 N 0.36849 0.85413 0.17991 0.0
N515 N 0.33103 0.75049 0.16316 0.0
H516 H 0.52683 0.10227 0.54852 0.0
H517 H 0.58867 0.31293 0.50653 0.0
H518 H 0.5967 0.12515 0.49641 0.0
H519 H 0.564 0.29422 0.56849 0.0
H520 H 0.58106 0.24262 0.49975 0.0
H521 H 0.52945 0.17138 0.55324 0.0
C522 C 0.54253 0.12176 0.53799 0.0
C523 C 0.56174 0.1079 0.5221 0.0
C524 C 0.5772 0.25401 0.51479 0.0
C525 C 0.56456 0.18703 0.52734 0.0
C526 C 0.58132 0.29394 0.51862 0.0
C527 C 0.57716 0.30922 0.5381 0.0
C528 C 0.56808 0.22933 0.5305 0.0
C529 C 0.56776 0.28353 0.5533 0.0
C530 C 0.54411 0.16122 0.54074 0.0
C531 C 0.58169 0.13461 0.50894 0.0
N532 N 0.56342 0.24488 0.54917 0.0
N533 N 0.58251 0.1729 0.51182 0.0
H534 H 0.44801 0.632 0.79536 0.0
H535 H 0.26806 0.71098 0.8121 0.0
H536 H 0.34101 0.5849 0.76485 0.0
H537 H 0.36028 0.72411 0.85403 0.0
H538 H 0.30647 0.68981 0.78583 0.0
H539 H 0.42807 0.68986 0.80622 0.0
C540 C 0.42097 0.63451 0.79015 0.0
C541 C 0.39585 0.60308 0.77959 0.0
C542 C 0.31863 0.69854 0.80065 0.0
C543 C 0.37223 0.66879 0.79259 0.0
C544 C 0.29671 0.7104 0.8157 0.0
C545 C 0.31034 0.71765 0.83553 0.0
C546 C 0.35447 0.69426 0.80548 0.0
C547 C 0.3482 0.71807 0.8391 0.0
C548 C 0.4094 0.66748 0.79657 0.0
C549 C 0.36086 0.60796 0.7735 0.0
N550 N 0.36864 0.70556 0.82431 0.0
N551 N 0.34964 0.63978 0.78054 0.0
H552 H 0.88764 0.25509 0.14742 0.0
H553 H 0.74865 0.18259 0.23724 0.0
H554 H 0.89833 0.31412 0.20633 0.0
H555 H 0.72682 0.13487 0.1762 0.0
H556 H 0.8039 0.23039 0.2262 0.0
H557 H 0.82941 0.20993 0.15771 0.0
C558 C 0.87773 0.25854 0.16252 0.0
C559 C 0.89798 0.28838 0.17605 0.0
C560 C 0.78695 0.20959 0.21519 0.0
C561 C 0.83127 0.2368 0.18792 0.0
C562 C 0.75515 0.18234 0.22146 0.0
C563 C 0.73277 0.15455 0.20764 0.0
C564 C 0.79682 0.20904 0.19494 0.0
C565 C 0.74339 0.15531 0.18746 0.0
C566 C 0.84439 0.23288 0.16835 0.0
C567 C 0.8835 0.29179 0.19535 0.0
N568 N 0.77467 0.182 0.18174 0.0
N569 N 0.8512 0.2662 0.20073 0.0
H570 H 0.14935 0.47433 0.08635 0.0
H571 H 0.14691 0.64951 0.01892 0.0
H572 H 0.0687 0.54355 0.09206 0.0
H573 H 0.2272 0.58013 0.01032 0.0
H574 H 0.12023 0.61218 0.04674 0.0
H575 H 0.17922 0.51247 0.05882 0.0
C576 C 0.13777 0.49732 0.08168 0.0
C577 C 0.10657 0.5059 0.09145 0.0
C578 C 0.14384 0.60516 0.03889 0.0
C579 C 0.14068 0.54975 0.06026 0.0
C580 C 0.15951 0.62689 0.02309 0.0
C581 C 0.18969 0.6183 0.01227 0.0
C582 C 0.15815 0.57425 0.044 0.0
C583 C 0.20383 0.58769 0.01813 0.0
C584 C 0.15492 0.51919 0.06606 0.0
C585 C 0.09275 0.53605 0.08493 0.0
N586 N 0.18788 0.56669 0.03358 0.0
N587 N 0.10995 0.55693 0.06981 0.0
H588 H 0.50235 0.02099 0.45409 0.0
H589 H 0.60676 0.95946 0.35668 0.0
H590 H 0.58563 0.95512 0.456 0.0
H591 H 0.53557 0.03874 0.35719 0.0
H592 H 0.59835 0.95581 0.3928 0.0
H593 H 0.51321 0.02633 0.41833 0.0
C594 C 0.52295 0.00765 0.44694 0.0
C595 C 0.54304 0.98748 0.45795 0.0
C596 C 0.58471 0.97412 0.38501 0.0
C597 C 0.55563 0.99338 0.41701 0.0
C598 C 0.58933 0.97605 0.36439 0.0
C599 C 0.57183 0.99944 0.3539 0.0
C600 C 0.56218 0.99548 0.39521 0.0
C601 C 0.54993 0.02068 0.36469 0.0
C602 C 0.52921 0.01076 0.42653 0.0
C603 C 0.56952 0.97088 0.448 0.0
N604 N 0.5456 0.01806 0.38471 0.0
N605 N 0.57496 0.97406 0.42804 0.0
H606 H 0.5226 0.48574 0.78345 0.0
H607 H 0.65356 0.53539 0.68791 0.0
H608 H 0.64316 0.53411 0.78754 0.0
H609 H 0.53154 0.5039 0.68518 0.0
H610 H 0.65072 0.53275 0.72425 0.0
H611 H 0.52548 0.48955 0.74722 0.0
C612 C 0.54963 0.4972 0.77668 0.0
C613 C 0.58254 0.50984 0.78845 0.0
C614 C 0.62457 0.52657 0.71571 0.0
C615 C 0.58642 0.51407 0.74701 0.0
C616 C 0.62617 0.52792 0.69497 0.0
C617 C 0.59273 0.51982 0.6835 0.0
C618 C 0.58926 0.51675 0.72506 0.0
C619 C 0.55802 0.51076 0.69345 0.0
C620 C 0.55135 0.4994 0.75601 0.0
C621 C 0.61708 0.52409 0.77895 0.0
N622 N 0.55719 0.50928 0.71364 0.0
N623 N 0.61814 0.52581 0.75876 0.0
H624 H 0.53467 0.00563 0.57094 0.0
H625 H 0.62714 0.98233 0.67523 0.0
H626 H 0.63588 0.96603 0.57565 0.0
H627 H 0.51155 0.98865 0.66962 0.0
H628 H 0.6326 0.9808 0.63884 0.0
H629 H 0.52706 0.00371 0.60723 0.0
C630 C 0.55523 0.99649 0.57963 0.0
C631 C 0.58603 0.98613 0.57037 0.0
C632 C 0.60598 0.98235 0.64555 0.0
C633 C 0.5777 0.9841 0.61175 0.0
C634 C 0.60293 0.98346 0.66631 0.0
C635 C 0.56887 0.9857 0.67542 0.0
C636 C 0.57488 0.98398 0.6338 0.0
C637 C 0.53823 0.98663 0.66316 0.0
C638 C 0.55084 0.9953 0.6003 0.0
C639 C 0.61178 0.97432 0.58225 0.0
N640 N 0.54203 0.98604 0.64296 0.0
N641 N 0.60718 0.97388 0.60235 0.0
H642 H 0.53666 0.53534 0.89419 0.0
H643 H 0.517 0.41536 0.99139 0.0
H644 H 0.46772 0.41762 0.89436 0.0
H645 H 0.55781 0.53993 0.99233 0.0
H646 H 0.50358 0.41324 0.95542 0.0
H647 H 0.54958 0.53512 0.92969 0.0
C648 C 0.52413 0.50939 0.90175 0.0
C649 C 0.50091 0.47648 0.89136 0.0
C650 C 0.5154 0.44098 0.96355 0.0
C651 C 0.51578 0.47598 0.93216 0.0
C652 C 0.52329 0.44221 0.984 0.0
C653 C 0.53847 0.47791 0.99485 0.0
C654 C 0.52323 0.47567 0.95387 0.0
C655 C 0.54575 0.51184 0.98461 0.0
C656 C 0.53149 0.50932 0.92206 0.0
C657 C 0.4856 0.44364 0.90189 0.0
N658 N 0.5382 0.50985 0.96472 0.0
N659 N 0.4934 0.44415 0.92178 0.0
H660 H 1.03665 0.55832 0.20911 0.0
H661 H 0.09966 0.45488 0.30007 0.0
H662 H 0.10539 0.47694 0.20142 0.0
H663 H 1.02555 0.53129 0.30586 0.0
H664 H 0.10163 0.46133 0.26395 0.0
H665 H 1.03117 0.54704 0.24456 0.0
C666 C 1.05049 0.53794 0.21491 0.0
C667 C 0.0717 0.51871 0.2024 0.0
C668 C 0.08481 0.47652 0.27313 0.0
C669 C 0.06572 0.50571 0.24302 0.0
C670 C 0.08384 0.47303 0.29376 0.0
C671 C 1.06241 0.49258 0.30603 0.0
C672 C 1.06436 0.49989 0.26473 0.0
C673 C 1.04207 0.51529 0.29699 0.0
C674 C 1.04736 0.53148 0.23516 0.0
C675 C 0.08887 0.49243 0.21063 0.0
N676 N 1.04367 0.51842 0.27694 0.0
N677 N 0.0857 0.48685 0.23049 0.0
loop_
_geom_bond_atom_site_label_1
_geom_bond_atom_site_label_2
_geom_bond_distance
_geom_bond_site_symmetry_2
_ccdc_geom_bond_type
Nd0 C2 2.836 . S
Nd0 O20 2.500 . S
Nd0 O21 2.492 . S
Nd0 O22 2.487 . S
Nd0 O23 2.682 . S
Nd0 O24 2.410 . S
Nd0 O29 2.414 . S
Nd0 O31 2.424 1_455 S
Nd1 C11 2.839 1_455 S
Nd1 O23 2.414 . S
Nd1 O25 2.420 . S
Nd1 O26 2.503 1_455 S
Nd1 O27 2.494 1_455 S
Nd1 O28 2.487 . S
Nd1 O29 2.681 . S
Nd1 O30 2.413 1_455 S
C2 Nd0 2.836 . S
C2 C3 1.498 . S
C2 O20 1.258 . S
C2 O21 1.239 . S
C3 C2 1.498 . S
C3 C4 1.366 . S
C3 C8 1.407 . S
C4 C3 1.366 . S
C4 C5 1.392 . S
C4 H32 0.930 . S
C5 C4 1.392 . S
C5 C6 1.398 . S
C5 H33 0.929 . S
C6 C5 1.398 . S
C6 C7 1.352 . S
C7 C6 1.352 . S
C7 C8 1.384 . S
C7 H34 0.930 . S
C8 C3 1.407 . S
C8 C7 1.384 . S
C8 H35 0.929 . S
C9 O22 1.241 . S
C9 O23 1.273 . S
C10 O24 1.251 . S
C10 O25 1.268 . S
C11 Nd1 2.839 1_655 S
C11 C12 1.498 . S
C11 O26 1.258 . S
C11 O27 1.239 . S
C12 C11 1.498 . S
C12 C13 1.366 . S
C12 C17 1.407 . S
C13 C12 1.366 . S
C13 C14 1.392 . S
C13 H36 0.930 . S
C14 C13 1.392 . S
C14 C15 1.398 . S
C14 H37 0.929 . S
C15 C14 1.398 . S
C15 C16 1.352 . S
C16 C15 1.352 . S
C16 C17 1.384 . S
C16 H38 0.930 . S
C17 C12 1.407 . S
C17 C16 1.384 . S
C17 H39 0.929 . S
C18 O28 1.241 . S
C18 O29 1.273 . S
C19 O30 1.251 . S
C19 O31 1.268 . S
O20 Nd0 2.500 . S
O20 C2 1.258 . S
O21 Nd0 2.492 . S
O21 C2 1.239 . S
O22 Nd0 2.487 . S
O22 C9 1.241 . S
O23 Nd0 2.682 . S
O23 Nd1 2.414 . S
O23 C9 1.273 . S
O24 Nd0 2.410 . S
O24 C10 1.251 . S
O25 Nd1 2.420 . S
O25 C10 1.268 . S
O26 Nd1 2.503 1_655 S
O26 C11 1.258 . S
O27 Nd1 2.494 1_655 S
O27 C11 1.239 . S
O28 Nd1 2.487 . S
O28 C18 1.241 . S
O29 Nd0 2.414 . S
O29 Nd1 2.681 . S
O29 C18 1.273 . S
O30 Nd1 2.413 1_655 S
O30 C19 1.251 . S
O31 Nd0 2.424 1_655 S
O31 C19 1.268 . S
H32 C4 0.930 . S
H33 C5 0.929 . S
H34 C7 0.930 . S
H35 C8 0.929 . S
H36 C13 0.930 . S
H37 C14 0.929 . S
H38 C16 0.930 . S
H39 C17 0.929 . S
Nd40 C42 2.836 1_545 S
Nd40 O60 2.500 1_545 S
Nd40 O61 2.492 1_545 S
Nd40 O62 2.488 . S
Nd40 O63 2.682 . S
Nd40 O64 2.410 1_545 S
Nd40 O69 2.414 . S
Nd40 O71 2.424 . S
Nd41 C51 2.836 . S
Nd41 O63 2.414 . S
Nd41 O65 2.424 1_545 S
Nd41 O66 2.500 . S
Nd41 O67 2.492 . S
Nd41 O68 2.487 . S
Nd41 O69 2.682 . S
Nd41 O70 2.410 . S
C42 Nd40 2.836 1_565 S
C42 C43 1.498 . S
C42 O60 1.258 . S
C42 O61 1.239 . S
C43 C42 1.498 . S
C43 C44 1.366 . S
C43 C48 1.407 . S
C44 C43 1.366 . S
C44 C45 1.392 . S
C44 H72 0.930 . S
C45 C44 1.392 . S
C45 C46 1.398 . S
C45 H73 0.929 . S
C46 C45 1.398 . S
C46 C47 1.352 . S
C47 C46 1.352 . S
C47 C48 1.384 . S
C47 H74 0.930 . S
C48 C43 1.407 . S
C48 C47 1.384 . S
C48 H75 0.929 . S
C49 O62 1.247 . S
C49 O63 1.273 . S
C50 O64 1.251 . S
C50 O65 1.268 . S
C51 Nd41 2.836 . S
C51 C52 1.498 . S
C51 O66 1.258 . S
C51 O67 1.239 . S
C52 C51 1.498 . S
C52 C53 1.366 . S
C52 C57 1.407 . S
C53 C52 1.366 . S
C53 C54 1.392 . S
C53 H76 0.930 . S
C54 C53 1.392 . S
C54 C55 1.398 . S
C54 H77 0.929 . S
C55 C54 1.398 . S
C55 C56 1.352 . S
C56 C55 1.352 . S
C56 C57 1.384 . S
C56 H78 0.930 . S
C57 C52 1.407 . S
C57 C56 1.384 . S
C57 H79 0.929 . S
C58 O68 1.241 . S
C58 O69 1.273 . S
C59 O70 1.251 . S
C59 O71 1.268 . S
O60 Nd40 2.500 1_565 S
O60 C42 1.258 . S
O61 Nd40 2.492 1_565 S
O61 C42 1.239 . S
O62 Nd40 2.488 . S
O62 C49 1.247 . S
O63 Nd40 2.682 . S
O63 Nd41 2.414 . S
O63 C49 1.273 . S
O64 Nd40 2.410 1_565 S
O64 C50 1.251 . S
O65 Nd41 2.424 1_565 S
O65 C50 1.268 . S
O66 Nd41 2.500 . S
O66 C51 1.258 . S
O67 Nd41 2.492 . S
O67 C51 1.239 . S
O68 Nd41 2.487 . S
O68 C58 1.241 . S
O69 Nd40 2.414 . S
O69 Nd41 2.682 . S
O69 C58 1.273 . S
O70 Nd41 2.410 . S
O70 C59 1.251 . S
O71 Nd40 2.424 . S
O71 C59 1.268 . S
H72 C44 0.930 . S
H73 C45 0.929 . S
H74 C47 0.930 . S
H75 C48 0.929 . S
H76 C53 0.930 . S
H77 C54 0.929 . S
H78 C56 0.930 . S
H79 C57 0.929 . S
Nd80 C82 2.836 . S
Nd80 O100 2.500 . S
Nd80 O101 2.492 . S
Nd80 O102 2.487 . S
Nd80 O103 2.682 . S
Nd80 O104 2.410 . S
Nd80 O109 2.414 . S
Nd80 O111 2.424 . S
Nd81 C91 2.836 . S
Nd81 O103 2.414 . S
Nd81 O105 2.424 . S
Nd81 O106 2.500 . S
Nd81 O107 2.492 . S
Nd81 O108 2.487 . S
Nd81 O109 2.682 . S
Nd81 O110 2.410 . S
C82 Nd80 2.836 . S
C82 C83 1.498 . S
C82 O100 1.258 . S
C82 O101 1.239 . S
C83 C82 1.498 . S
C83 C84 1.366 . S
C83 C88 1.407 . S
C84 C83 1.366 . S
C84 C85 1.392 . S
C84 H112 0.930 . S
C85 C84 1.392 . S
C85 C86 1.398 . S
C85 H113 0.929 . S
C86 C85 1.398 . S
C86 C87 1.352 . S
C87 C86 1.352 . S
C87 C88 1.384 . S
C87 H114 0.930 . S
C88 C83 1.407 . S
C88 C87 1.384 . S
C88 H115 0.929 . S
C89 O102 1.241 . S
C89 O103 1.273 . S
C90 O104 1.251 . S
C90 O105 1.268 . S
C91 Nd81 2.836 . S
C91 C92 1.498 . S
C91 O106 1.258 . S
C91 O107 1.239 . S
C92 C91 1.498 . S
C92 C93 1.366 . S
C92 C97 1.407 . S
C93 C92 1.366 . S
C93 C94 1.392 . S
C93 H116 0.930 . S
C94 C93 1.392 . S
C94 C95 1.398 . S
C94 H117 0.929 . S
C95 C94 1.398 . S
C95 C96 1.352 . S
C96 C95 1.352 . S
C96 C97 1.384 . S
C96 H118 0.930 . S
C97 C92 1.407 . S
C97 C96 1.384 . S
C97 H119 0.929 . S
C98 O108 1.241 . S
C98 O109 1.273 . S
C99 O110 1.251 . S
C99 O111 1.268 . S
O100 Nd80 2.500 . S
O100 C82 1.258 . S
O101 Nd80 2.492 . S
O101 C82 1.239 . S
O102 Nd80 2.487 . S
O102 C89 1.241 . S
O103 Nd80 2.682 . S
O103 Nd81 2.414 . S
O103 C89 1.273 . S
O104 Nd80 2.410 . S
O104 C90 1.251 . S
O105 Nd81 2.424 . S
O105 C90 1.268 . S
O106 Nd81 2.500 . S
O106 C91 1.258 . S
O107 Nd81 2.492 . S
O107 C91 1.239 . S
O108 Nd81 2.487 . S
O108 C98 1.241 . S
O109 Nd80 2.414 . S
O109 Nd81 2.682 . S
O109 C98 1.273 . S
O110 Nd81 2.410 . S
O110 C99 1.251 . S
O111 Nd80 2.424 . S
O111 C99 1.268 . S
H112 C84 0.930 . S
H113 C85 0.929 . S
H114 C87 0.930 . S
H115 C88 0.929 . S
H116 C93 0.930 . S
H117 C94 0.929 . S
H118 C96 0.930 . S
H119 C97 0.929 . S
C120 C121 1.386 . S
C120 C122 1.397 . S
C120 H144 0.931 . S
C121 C120 1.386 . S
C121 C125 1.421 . S
C122 C120 1.397 . S
C122 C123 1.384 . S
C122 H145 0.930 . S
C123 C122 1.384 . S
C123 C124 1.364 1_545 S
C123 C126 1.481 . S
C124 C123 1.364 1_565 S
C124 C125 1.390 1_565 S
C124 H146 0.942 . S
C125 C121 1.421 . S
C125 C124 1.390 1_545 S
C125 H147 0.906 1_545 S
C126 C123 1.481 . S
C126 C127 1.387 . S
C126 C131 1.390 . S
C127 C126 1.387 . S
C127 C128 1.401 . S
C127 H148 0.930 . S
C128 C127 1.401 . S
C128 C129 1.376 . S
C128 C137 1.511 . S
C129 C128 1.376 . S
C129 C130 1.378 1_545 S
C129 H150 0.931 . S
C130 C129 1.378 1_565 S
C130 C131 1.361 1_565 S
C130 C132 1.515 . S
C131 C126 1.390 . S
C131 C130 1.361 1_545 S
C131 H149 0.931 1_545 S
C132 C130 1.515 . S
C132 C133 1.371 . S
C132 C134 1.365 . S
C133 C132 1.371 . S
C133 C143 1.386 . S
C133 H151 0.931 . S
C134 C132 1.365 . S
C134 C135 1.409 . S
C134 H152 0.929 . S
C135 C134 1.409 . S
C135 C136 1.380 . S
C135 H153 0.930 . S
C136 C135 1.380 . S
C136 C143 1.357 . S
C137 C128 1.511 . S
C137 C138 1.341 . S
C137 C139 1.371 . S
C138 C137 1.341 . S
C138 C142 1.394 . S
C138 H154 0.930 . S
C139 C137 1.371 . S
C139 C140 1.392 . S
C139 H155 0.931 . S
C140 C139 1.392 . S
C140 C141 1.331 . S
C140 H158 0.932 . S
C141 C140 1.331 . S
C141 C142 1.336 . S
C142 C138 1.394 . S
C142 C141 1.336 . S
C142 H157 0.929 . S
C143 C133 1.386 . S
C143 C136 1.357 . S
C143 H156 0.928 . S
H144 C120 0.931 . S
H145 C122 0.930 . S
H146 C124 0.942 . S
H147 C125 0.906 1_565 S
H148 C127 0.930 . S
H149 C131 0.931 1_565 S
H150 C129 0.931 . S
H151 C133 0.931 . S
H152 C134 0.929 . S
H153 C135 0.930 . S
H154 C138 0.930 . S
H155 C139 0.931 . S
H156 C143 0.928 . S
H157 C142 0.929 . S
H158 C140 0.932 . S
C159 C160 1.386 . S
C159 C161 1.397 . S
C159 H183 0.931 . S
C160 C159 1.386 . S
C160 C164 1.397 . S
C161 C159 1.397 . S
C161 C162 1.384 . S
C161 H184 0.930 . S
C162 C161 1.384 . S
C162 C163 1.377 . S
C162 C165 1.481 . S
C163 C162 1.377 . S
C163 C164 1.389 . S
C163 H185 0.929 . S
C164 C160 1.397 . S
C164 C163 1.389 . S
C164 H186 0.931 . S
C165 C162 1.481 . S
C165 C166 1.387 . S
C165 C170 1.390 . S
C166 C165 1.387 . S
C166 C167 1.401 . S
C166 H187 0.930 . S
C167 C166 1.401 . S
C167 C168 1.376 . S
C167 C176 1.511 . S
C168 C167 1.376 . S
C168 C169 1.392 . S
C168 H189 0.931 . S
C169 C168 1.392 . S
C169 C170 1.361 . S
C169 C171 1.500 . S
C170 C165 1.390 . S
C170 C169 1.361 . S
C170 H188 0.931 . S
C171 C169 1.500 . S
C171 C172 1.371 . S
C171 C173 1.365 . S
C172 C171 1.371 . S
C172 C182 1.386 . S
C172 H190 0.931 . S
C173 C171 1.365 . S
C173 C174 1.409 . S
C173 H191 0.929 . S
C174 C173 1.409 . S
C174 C175 1.380 . S
C174 H192 0.930 . S
C175 C174 1.380 . S
C175 C182 1.357 . S
C176 C167 1.511 . S
C176 C177 1.341 . S
C176 C178 1.371 . S
C177 C176 1.341 . S
C177 C181 1.394 . S
C177 H193 0.930 . S
C178 C176 1.371 . S
C178 C179 1.392 . S
C178 H194 0.931 . S
C179 C178 1.392 . S
C179 C180 1.331 . S
C179 H197 0.932 . S
C180 C179 1.331 . S
C180 C181 1.336 . S
C181 C177 1.394 . S
C181 C180 1.336 . S
C181 H196 0.929 . S
C182 C172 1.386 . S
C182 C175 1.357 . S
C182 H195 0.928 . S
H183 C159 0.931 . S
H184 C161 0.930 . S
H185 C163 0.929 . S
H186 C164 0.931 . S
H187 C166 0.930 . S
H188 C170 0.931 . S
H189 C168 0.931 . S
H190 C172 0.931 . S
H191 C173 0.929 . S
H192 C174 0.930 . S
H193 C177 0.930 . S
H194 C178 0.931 . S
H195 C182 0.928 . S
H196 C181 0.929 . S
H197 C179 0.932 . S
C198 C199 1.386 . S
C198 C200 1.397 . S
C198 H222 0.931 . S
C199 C198 1.386 . S
C199 C203 1.397 . S
C200 C198 1.397 . S
C200 C201 1.384 . S
C200 H223 0.930 . S
C201 C200 1.384 . S
C201 C202 1.377 . S
C201 C204 1.481 . S
C202 C201 1.377 . S
C202 C203 1.389 . S
C202 H224 0.929 1_455 S
C203 C199 1.397 . S
C203 C202 1.389 . S
C203 H225 0.931 1_455 S
C204 C201 1.481 . S
C204 C205 1.387 . S
C204 C209 1.390 . S
C205 C204 1.387 . S
C205 C206 1.401 . S
C205 H226 0.930 . S
C206 C205 1.401 . S
C206 C207 1.376 . S
C206 C215 1.511 . S
C207 C206 1.376 . S
C207 C208 1.392 . S
C207 H228 0.931 . S
C208 C207 1.392 . S
C208 C209 1.361 . S
C208 C210 1.500 1_455 S
C209 C204 1.390 . S
C209 C208 1.361 . S
C209 H227 0.931 1_455 S
C210 C208 1.500 1_655 S
C210 C211 1.371 . S
C210 C212 1.365 . S
C211 C210 1.371 . S
C211 C221 1.386 . S
C211 H229 0.931 . S
C212 C210 1.365 . S
C212 C213 1.409 . S
C212 H230 0.929 . S
C213 C212 1.409 . S
C213 C214 1.380 . S
C213 H231 0.930 . S
C214 C213 1.380 . S
C214 C221 1.357 . S
C215 C206 1.511 . S
C215 C216 1.341 . S
C215 C217 1.371 . S
C216 C215 1.341 . S
C216 C220 1.394 . S
C216 H232 0.930 . S
C217 C215 1.371 . S
C217 C218 1.392 . S
C217 H233 0.931 . S
C218 C217 1.392 . S
C218 C219 1.331 . S
C218 H236 0.932 . S
C219 C218 1.331 . S
C219 C220 1.336 . S
C220 C216 1.394 . S
C220 C219 1.336 . S
C220 H235 0.929 . S
C221 C211 1.386 . S
C221 C214 1.357 . S
C221 H234 0.928 . S
H222 C198 0.931 . S
H223 C200 0.930 . S
H224 C202 0.929 1_655 S
H225 C203 0.931 1_655 S
H226 C205 0.930 . S
H227 C209 0.931 1_655 S
H228 C207 0.931 . S
H229 C211 0.931 . S
H230 C212 0.929 . S
H231 C213 0.930 . S
H232 C216 0.930 . S
H233 C217 0.931 . S
H234 C221 0.928 . S
H235 C220 0.929 . S
H236 C218 0.932 . S
C237 C238 1.361 1_655 S
C237 C239 1.397 . S
C237 H261 0.931 . S
C238 C237 1.361 1_455 S
C238 C242 1.421 . S
C239 C237 1.397 . S
C239 C240 1.409 . S
C239 H262 0.930 . S
C240 C239 1.409 . S
C240 C241 1.351 1_655 S
C240 C243 1.482 . S
C241 C240 1.351 1_455 S
C241 C242 1.389 . S
C241 H263 0.929 . S
C242 C238 1.421 . S
C242 C241 1.389 . S
C242 H264 0.931 . S
C243 C240 1.482 . S
C243 C244 1.387 . S
C243 C248 1.390 1_655 S
C244 C243 1.387 . S
C244 C245 1.401 . S
C244 H265 0.930 . S
C245 C244 1.401 . S
C245 C246 1.376 . S
C245 C254 1.511 . S
C246 C245 1.376 . S
C246 C247 1.392 1_655 S
C246 H267 0.931 . S
C247 C246 1.392 1_455 S
C247 C248 1.361 . S
C247 C249 1.500 . S
C248 C243 1.390 1_455 S
C248 C247 1.361 . S
C248 H266 0.931 . S
C249 C247 1.500 . S
C249 C250 1.371 . S
C249 C251 1.365 . S
C250 C249 1.371 . S
C250 C260 1.386 . S
C250 H268 0.931 . S
C251 C249 1.365 . S
C251 C252 1.409 . S
C251 H269 0.929 . S
C252 C251 1.409 . S
C252 C253 1.380 . S
C252 H270 0.930 . S
C253 C252 1.380 . S
C253 C260 1.357 . S
C254 C245 1.511 . S
C254 C255 1.341 . S
C254 C256 1.371 . S
C255 C254 1.341 . S
C255 C259 1.394 . S
C255 H271 0.930 . S
C256 C254 1.371 . S
C256 C257 1.392 . S
C256 H272 0.931 . S
C257 C256 1.392 . S
C257 C258 1.331 . S
C257 H275 0.932 . S
C258 C257 1.331 . S
C258 C259 1.336 . S
C259 C255 1.394 . S
C259 C258 1.336 . S
C259 H274 0.929 . S
C260 C250 1.386 . S
C260 C253 1.357 . S
C260 H273 0.928 . S
H261 C237 0.931 . S
H262 C239 0.930 . S
H263 C241 0.929 . S
H264 C242 0.931 . S
H265 C244 0.930 . S
H266 C248 0.931 . S
H267 C246 0.931 . S
H268 C250 0.931 . S
H269 C251 0.929 . S
H270 C252 0.930 . S
H271 C255 0.930 . S
H272 C256 0.931 . S
H273 C260 0.928 . S
H274 C259 0.929 . S
H275 C257 0.932 . S
C276 C277 1.386 1_565 S
C276 C278 1.397 . S
C276 H300 0.931 . S
C277 C276 1.386 1_545 S
C277 C281 1.397 . S
C278 C276 1.397 . S
C278 C279 1.384 1_565 S
C278 H301 0.930 . S
C279 C278 1.384 1_545 S
C279 C280 1.377 . S
C279 C282 1.481 . S
C280 C279 1.377 . S
C280 C281 1.389 . S
C280 H302 0.929 . S
C281 C277 1.397 . S
C281 C280 1.389 . S
C281 H303 0.931 . S
C282 C279 1.481 . S
C282 C283 1.387 1_545 S
C282 C287 1.390 . S
C283 C282 1.387 1_565 S
C283 C284 1.401 . S
C283 H304 0.930 . S
C284 C283 1.401 . S
C284 C285 1.376 1_565 S
C284 C293 1.511 . S
C285 C284 1.376 1_545 S
C285 C286 1.392 . S
C285 H306 0.931 . S
C286 C285 1.392 . S
C286 C287 1.361 . S
C286 C288 1.500 . S
C287 C282 1.390 . S
C287 C286 1.361 . S
C287 H305 0.931 . S
C288 C286 1.500 . S
C288 C289 1.371 . S
C288 C290 1.365 . S
C289 C288 1.371 . S
C289 C299 1.386 . S
C289 H307 0.931 . S
C290 C288 1.365 . S
C290 C291 1.409 . S
C290 H308 0.929 . S
C291 C290 1.409 . S
C291 C292 1.380 . S
C291 H309 0.930 . S
C292 C291 1.380 . S
C292 C299 1.357 . S
C293 C284 1.511 . S
C293 C294 1.341 . S
C293 C295 1.371 . S
C294 C293 1.341 . S
C294 C298 1.394 . S
C294 H310 0.930 . S
C295 C293 1.371 . S
C295 C296 1.392 . S
C295 H311 0.931 . S
C296 C295 1.392 . S
C296 C297 1.331 . S
C296 H314 0.932 . S
C297 C296 1.331 . S
C297 C298 1.336 . S
C298 C294 1.394 . S
C298 C297 1.336 . S
C298 H313 0.929 . S
C299 C289 1.386 . S
C299 C292 1.357 . S
C299 H312 0.928 . S
H300 C276 0.931 . S
H301 C278 0.930 . S
H302 C280 0.929 . S
H303 C281 0.931 . S
H304 C283 0.930 . S
H305 C287 0.931 . S
H306 C285 0.931 . S
H307 C289 0.931 . S
H308 C290 0.929 . S
H309 C291 0.930 . S
H310 C294 0.930 . S
H311 C295 0.931 . S
H312 C299 0.928 . S
H313 C298 0.929 . S
H314 C296 0.932 . S
C315 C316 1.386 . S
C315 C317 1.397 . S
C315 H339 0.931 . S
C316 C315 1.386 . S
C316 C320 1.397 . S
C317 C315 1.397 . S
C317 C318 1.384 . S
C317 H340 0.930 . S
C318 C317 1.384 . S
C318 C319 1.377 . S
C318 C321 1.481 . S
C319 C318 1.377 . S
C319 C320 1.389 . S
C319 H341 0.929 . S
C320 C316 1.397 . S
C320 C319 1.389 . S
C320 H342 0.931 . S
C321 C318 1.481 . S
C321 C322 1.387 . S
C321 C326 1.390 . S
C322 C321 1.387 . S
C322 C323 1.401 . S
C322 H343 0.930 . S
C323 C322 1.401 . S
C323 C324 1.376 . S
C323 C332 1.511 . S
C324 C323 1.376 . S
C324 C325 1.392 . S
C324 H345 0.931 . S
C325 C324 1.392 . S
C325 C326 1.361 . S
C325 C327 1.500 . S
C326 C321 1.390 . S
C326 C325 1.361 . S
C326 H344 0.931 . S
C327 C325 1.500 . S
C327 C328 1.371 . S
C327 C329 1.365 . S
C328 C327 1.371 . S
C328 C338 1.386 . S
C328 H346 0.931 . S
C329 C327 1.365 . S
C329 C330 1.409 . S
C329 H347 0.929 . S
C330 C329 1.409 . S
C330 C331 1.380 . S
C330 H348 0.930 . S
C331 C330 1.380 . S
C331 C338 1.357 . S
C332 C323 1.511 . S
C332 C333 1.341 . S
C332 C334 1.371 . S
C333 C332 1.341 . S
C333 C337 1.394 . S
C333 H349 0.930 . S
C334 C332 1.371 . S
C334 C335 1.392 . S
C334 H350 0.931 . S
C335 C334 1.392 . S
C335 C336 1.331 . S
C335 H353 0.932 . S
C336 C335 1.331 . S
C336 C337 1.336 . S
C337 C333 1.394 . S
C337 C336 1.336 . S
C337 H352 0.929 . S
C338 C328 1.386 . S
C338 C331 1.357 . S
C338 H351 0.928 . S
H339 C315 0.931 . S
H340 C317 0.930 . S
H341 C319 0.929 . S
H342 C320 0.931 . S
H343 C322 0.930 . S
H344 C326 0.931 . S
H345 C324 0.931 . S
H346 C328 0.931 . S
H347 C329 0.929 . S
H348 C330 0.930 . S
H349 C333 0.930 . S
H350 C334 0.931 . S
H351 C338 0.928 . S
H352 C337 0.929 . S
H353 C335 0.932 . S
H354 C360 0.930 . S
H355 C364 0.930 . S
H356 C369 0.929 . S
H357 C367 0.929 . S
H358 C362 0.929 . S
H359 C368 0.929 . S
C360 H354 0.930 . S
C360 C361 1.367 . S
C360 C368 1.378 . S
C361 C360 1.367 . S
C361 C369 1.433 . S
C362 H358 0.929 . S
C362 C364 1.378 . S
C362 C366 1.350 . S
C363 C366 1.463 . S
C363 C368 1.350 . S
C363 N371 1.427 . S
C364 H355 0.930 . S
C364 C362 1.378 . S
C364 C365 1.367 . S
C365 C364 1.367 . S
C365 C367 1.433 . S
C366 C362 1.350 . S
C366 C363 1.463 . S
C366 N370 1.427 . S
C367 H357 0.929 . S
C367 C365 1.433 . S
C367 N370 1.384 . S
C368 H359 0.929 . S
C368 C360 1.378 . S
C368 C363 1.350 . S
C369 H356 0.929 . S
C369 C361 1.433 . S
C369 N371 1.384 . S
N370 C366 1.427 . S
N370 C367 1.384 . S
N371 C363 1.427 . S
N371 C369 1.384 . S
H372 C378 0.930 . S
H373 C382 0.930 . S
H374 C387 0.929 . S
H375 C385 0.929 . S
H376 C380 0.929 . S
H377 C386 0.929 . S
C378 H372 0.930 . S
C378 C379 1.367 . S
C378 C386 1.378 . S
C379 C378 1.367 . S
C379 C387 1.433 . S
C380 H376 0.929 . S
C380 C382 1.378 . S
C380 C384 1.350 . S
C381 C384 1.463 . S
C381 C386 1.350 . S
C381 N389 1.427 . S
C382 H373 0.930 . S
C382 C380 1.378 . S
C382 C383 1.367 . S
C383 C382 1.367 . S
C383 C385 1.433 . S
C384 C380 1.350 . S
C384 C381 1.463 . S
C384 N388 1.427 . S
C385 H375 0.929 . S
C385 C383 1.433 . S
C385 N388 1.384 . S
C386 H377 0.929 . S
C386 C378 1.378 . S
C386 C381 1.350 . S
C387 H374 0.929 . S
C387 C379 1.433 . S
C387 N389 1.384 . S
N388 C384 1.427 . S
N388 C385 1.384 . S
N389 C381 1.427 . S
N389 C387 1.384 . S
H390 C396 0.930 . S
H391 C400 0.930 . S
H392 C405 0.929 . S
H393 C403 0.929 . S
H394 C398 0.929 . S
H395 C404 0.929 . S
C396 H390 0.930 . S
C396 C397 1.367 . S
C396 C404 1.378 . S
C397 C396 1.367 . S
C397 C405 1.433 . S
C398 H394 0.929 . S
C398 C400 1.378 . S
C398 C402 1.350 . S
C399 C402 1.463 . S
C399 C404 1.350 . S
C399 N407 1.427 . S
C400 H391 0.930 . S
C400 C398 1.378 . S
C400 C401 1.367 . S
C401 C400 1.367 . S
C401 C403 1.433 . S
C402 C398 1.350 . S
C402 C399 1.463 . S
C402 N406 1.427 . S
C403 H393 0.929 . S
C403 C401 1.433 . S
C403 N406 1.384 . S
C404 H395 0.929 . S
C404 C396 1.378 . S
C404 C399 1.350 . S
C405 H392 0.929 . S
C405 C397 1.433 . S
C405 N407 1.384 . S
N406 C402 1.427 . S
N406 C403 1.384 . S
N407 C399 1.427 . S
N407 C405 1.384 . S
H408 C414 0.930 . S
H409 C418 0.930 . S
H410 C423 0.929 . S
H411 C421 0.929 . S
H412 C416 0.929 . S
H413 C422 0.929 . S
C414 H408 0.930 . S
C414 C415 1.367 . S
C414 C422 1.378 . S
C415 C414 1.367 . S
C415 C423 1.433 . S
C416 H412 0.929 . S
C416 C418 1.378 . S
C416 C420 1.350 . S
C417 C420 1.463 . S
C417 C422 1.350 . S
C417 N425 1.427 . S
C418 H409 0.930 . S
C418 C416 1.378 . S
C418 C419 1.367 . S
C419 C418 1.367 . S
C419 C421 1.433 . S
C420 C416 1.350 . S
C420 C417 1.463 . S
C420 N424 1.427 . S
C421 H411 0.929 . S
C421 C419 1.433 . S
C421 N424 1.384 . S
C422 H413 0.929 . S
C422 C414 1.378 . S
C422 C417 1.350 . S
C423 H410 0.929 . S
C423 C415 1.433 . S
C423 N425 1.384 . S
N424 C420 1.427 . S
N424 C421 1.384 . S
N425 C417 1.427 . S
N425 C423 1.384 . S
H426 C432 0.930 . S
H427 C436 0.930 . S
H428 C441 0.929 . S
H429 C439 0.929 . S
H430 C434 0.929 . S
H431 C440 0.929 . S
C432 H426 0.930 . S
C432 C433 1.367 . S
C432 C440 1.378 . S
C433 C432 1.367 . S
C433 C441 1.433 . S
C434 H430 0.929 . S
C434 C436 1.378 . S
C434 C438 1.350 . S
C435 C438 1.463 . S
C435 C440 1.350 . S
C435 N443 1.427 . S
C436 H427 0.930 . S
C436 C434 1.378 . S
C436 C437 1.367 . S
C437 C436 1.367 . S
C437 C439 1.433 . S
C438 C434 1.350 . S
C438 C435 1.463 . S
C438 N442 1.427 . S
C439 H429 0.929 . S
C439 C437 1.433 . S
C439 N442 1.384 . S
C440 H431 0.929 . S
C440 C432 1.378 . S
C440 C435 1.350 . S
C441 H428 0.929 . S
C441 C433 1.433 . S
C441 N443 1.384 . S
N442 C438 1.427 . S
N442 C439 1.384 . S
N443 C435 1.427 . S
N443 C441 1.384 . S
H444 C450 0.930 . S
H445 C454 0.930 . S
H446 C459 0.929 . S
H447 C457 0.929 . S
H448 C452 0.929 . S
H449 C458 0.929 . S
C450 H444 0.930 . S
C450 C451 1.367 . S
C450 C458 1.378 . S
C451 C450 1.367 . S
C451 C459 1.433 . S
C452 H448 0.929 . S
C452 C454 1.378 . S
C452 C456 1.350 . S
C453 C456 1.463 . S
C453 C458 1.350 . S
C453 N461 1.427 . S
C454 H445 0.930 . S
C454 C452 1.378 . S
C454 C455 1.367 . S
C455 C454 1.367 . S
C455 C457 1.433 . S
C456 C452 1.350 . S
C456 C453 1.463 . S
C456 N460 1.427 . S
C457 H447 0.929 . S
C457 C455 1.433 . S
C457 N460 1.384 . S
C458 H449 0.929 . S
C458 C450 1.378 . S
C458 C453 1.350 . S
C459 H446 0.929 . S
C459 C451 1.433 . S
C459 N461 1.384 . S
N460 C456 1.427 . S
N460 C457 1.384 . S
N461 C453 1.427 . S
N461 C459 1.384 . S
H462 C468 0.930 . S
H463 C472 0.930 . S
H464 C477 0.929 . S
H465 C475 0.929 . S
H466 C470 0.929 . S
H467 C476 0.929 . S
C468 H462 0.930 . S
C468 C469 1.367 . S
C468 C476 1.378 . S
C469 C468 1.367 . S
C469 C477 1.433 . S
C470 H466 0.929 . S
C470 C472 1.378 . S
C470 C474 1.350 . S
C471 C474 1.463 . S
C471 C476 1.350 . S
C471 N479 1.427 . S
C472 H463 0.930 . S
C472 C470 1.378 . S
C472 C473 1.367 . S
C473 C472 1.367 . S
C473 C475 1.433 . S
C474 C470 1.350 . S
C474 C471 1.463 . S
C474 N478 1.427 . S
C475 H465 0.929 . S
C475 C473 1.433 . S
C475 N478 1.384 . S
C476 H467 0.929 . S
C476 C468 1.378 . S
C476 C471 1.350 . S
C477 H464 0.929 . S
C477 C469 1.433 . S
C477 N479 1.384 . S
N478 C474 1.427 . S
N478 C475 1.384 . S
N479 C471 1.427 . S
N479 C477 1.384 . S
H480 C486 0.930 . S
H481 C490 0.930 . S
H482 C495 0.929 . S
H483 C493 0.929 . S
H484 C488 0.929 . S
H485 C494 0.929 . S
C486 H480 0.930 . S
C486 C487 1.367 . S
C486 C494 1.378 . S
C487 C486 1.367 . S
C487 C495 1.433 . S
C488 H484 0.929 . S
C488 C490 1.378 . S
C488 C492 1.350 . S
C489 C492 1.463 . S
C489 C494 1.350 . S
C489 N497 1.427 . S
C490 H481 0.930 . S
C490 C488 1.378 . S
C490 C491 1.367 . S
C491 C490 1.367 . S
C491 C493 1.433 . S
C492 C488 1.350 . S
C492 C489 1.463 . S
C492 N496 1.427 . S
C493 H483 0.929 . S
C493 C491 1.433 . S
C493 N496 1.384 . S
C494 H485 0.929 . S
C494 C486 1.378 . S
C494 C489 1.350 . S
C495 H482 0.929 . S
C495 C487 1.433 . S
C495 N497 1.384 . S
N496 C492 1.427 . S
N496 C493 1.384 . S
N497 C489 1.427 . S
N497 C495 1.384 . S
H498 C504 0.930 . S
H499 C508 0.930 . S
H500 C513 0.929 . S
H501 C511 0.929 . S
H502 C506 0.929 . S
H503 C512 0.929 . S
C504 H498 0.930 . S
C504 C505 1.367 . S
C504 C512 1.378 . S
C505 C504 1.367 . S
C505 C513 1.433 . S
C506 H502 0.929 . S
C506 C508 1.378 . S
C506 C510 1.350 . S
C507 C510 1.463 . S
C507 C512 1.350 . S
C507 N515 1.427 . S
C508 H499 0.930 . S
C508 C506 1.378 . S
C508 C509 1.367 . S
C509 C508 1.367 . S
C509 C511 1.433 . S
C510 C506 1.350 . S
C510 C507 1.463 . S
C510 N514 1.427 . S
C511 H501 0.929 . S
C511 C509 1.433 . S
C511 N514 1.384 . S
C512 H503 0.929 . S
C512 C504 1.378 . S
C512 C507 1.350 . S
C513 H500 0.929 . S
C513 C505 1.433 . S
C513 N515 1.384 . S
N514 C510 1.427 . S
N514 C511 1.384 . S
N515 C507 1.427 . S
N515 C513 1.384 . S
H516 C522 0.930 . S
H517 C526 0.930 . S
H518 C531 0.929 . S
H519 C529 0.929 . S
H520 C524 0.929 . S
H521 C530 0.929 . S
C522 H516 0.930 . S
C522 C523 1.367 . S
C522 C530 1.378 . S
C523 C522 1.367 . S
C523 C531 1.433 . S
C524 H520 0.929 . S
C524 C526 1.378 . S
C524 C528 1.350 . S
C525 C528 1.463 . S
C525 C530 1.350 . S
C525 N533 1.427 . S
C526 H517 0.930 . S
C526 C524 1.378 . S
C526 C527 1.367 . S
C527 C526 1.367 . S
C527 C529 1.433 . S
C528 C524 1.350 . S
C528 C525 1.463 . S
C528 N532 1.427 . S
C529 H519 0.929 . S
C529 C527 1.433 . S
C529 N532 1.384 . S
C530 H521 0.929 . S
C530 C522 1.378 . S
C530 C525 1.350 . S
C531 H518 0.929 . S
C531 C523 1.433 . S
C531 N533 1.384 . S
N532 C528 1.427 . S
N532 C529 1.384 . S
N533 C525 1.427 . S
N533 C531 1.384 . S
H534 C540 0.930 . S
H535 C544 0.930 . S
H536 C549 0.929 . S
H537 C547 0.929 . S
H538 C542 0.929 . S
H539 C548 0.929 . S
C540 H534 0.930 . S
C540 C541 1.367 . S
C540 C548 1.378 . S
C541 C540 1.367 . S
C541 C549 1.433 . S
C542 H538 0.929 . S
C542 C544 1.378 . S
C542 C546 1.350 . S
C543 C546 1.463 . S
C543 C548 1.350 . S
C543 N551 1.427 . S
C544 H535 0.930 . S
C544 C542 1.378 . S
C544 C545 1.367 . S
C545 C544 1.367 . S
C545 C547 1.433 . S
C546 C542 1.350 . S
C546 C543 1.463 . S
C546 N550 1.427 . S
C547 H537 0.929 . S
C547 C545 1.433 . S
C547 N550 1.384 . S
C548 H539 0.929 . S
C548 C540 1.378 . S
C548 C543 1.350 . S
C549 H536 0.929 . S
C549 C541 1.433 . S
C549 N551 1.384 . S
N550 C546 1.427 . S
N550 C547 1.384 . S
N551 C543 1.427 . S
N551 C549 1.384 . S
H552 C558 0.930 . S
H553 C562 0.930 . S
H554 C567 0.929 . S
H555 C565 0.929 . S
H556 C560 0.929 . S
H557 C566 0.929 . S
C558 H552 0.930 . S
C558 C559 1.367 . S
C558 C566 1.378 . S
C559 C558 1.367 . S
C559 C567 1.433 . S
C560 H556 0.929 . S
C560 C562 1.378 . S
C560 C564 1.350 . S
C561 C564 1.463 . S
C561 C566 1.350 . S
C561 N569 1.427 . S
C562 H553 0.930 . S
C562 C560 1.378 . S
C562 C563 1.367 . S
C563 C562 1.367 . S
C563 C565 1.433 . S
C564 C560 1.350 . S
C564 C561 1.463 . S
C564 N568 1.427 . S
C565 H555 0.929 . S
C565 C563 1.433 . S
C565 N568 1.384 . S
C566 H557 0.929 . S
C566 C558 1.378 . S
C566 C561 1.350 . S
C567 H554 0.929 . S
C567 C559 1.433 . S
C567 N569 1.384 . S
N568 C564 1.427 . S
N568 C565 1.384 . S
N569 C561 1.427 . S
N569 C567 1.384 . S
H570 C576 0.930 1_655 S
H571 C580 0.930 . S
H572 C585 0.929 . S
H573 C583 0.934 . S
H574 C578 0.929 . S
H575 C584 0.929 1_655 S
C576 H570 0.930 1_455 S
C576 C577 1.367 . S
C576 C584 1.378 . S
C577 C576 1.367 . S
C577 C585 1.433 . S
C578 H574 0.929 . S
C578 C580 1.378 . S
C578 C582 1.350 . S
C579 C582 1.463 . S
C579 C584 1.350 . S
C579 N587 1.427 . S
C580 H571 0.930 . S
C580 C578 1.378 . S
C580 C581 1.367 . S
C581 C580 1.367 . S
C581 C583 1.433 . S
C582 C578 1.350 . S
C582 C579 1.463 . S
C582 N586 1.427 . S
C583 H573 0.934 . S
C583 C581 1.433 . S
C583 N586 1.384 . S
C584 H575 0.929 1_455 S
C584 C576 1.378 . S
C584 C579 1.350 . S
C585 H572 0.929 . S
C585 C577 1.433 . S
C585 N587 1.384 . S
N586 C582 1.427 . S
N586 C583 1.384 . S
N587 C579 1.427 . S
N587 C585 1.384 . S
H588 C594 0.930 . S
H589 C598 0.930 1_565 S
H590 C603 0.929 . S
H591 C601 0.929 . S
H592 C596 0.929 1_565 S
H593 C602 0.929 . S
C594 H588 0.930 . S
C594 C595 1.367 . S
C594 C602 1.378 . S
C595 C594 1.367 . S
C595 C603 1.433 1_545 S
C596 H592 0.929 1_545 S
C596 C598 1.378 . S
C596 C600 1.350 . S
C597 C600 1.463 . S
C597 C602 1.350 . S
C597 N605 1.427 1_545 S
C598 H589 0.930 1_545 S
C598 C596 1.378 . S
C598 C599 1.367 . S
C599 C598 1.367 . S
C599 C601 1.433 . S
C600 C596 1.350 . S
C600 C597 1.463 . S
C600 N604 1.427 . S
C601 H591 0.929 . S
C601 C599 1.433 . S
C601 N604 1.384 . S
C602 H593 0.929 . S
C602 C594 1.378 . S
C602 C597 1.350 . S
C603 H590 0.929 . S
C603 C595 1.433 1_565 S
C603 N605 1.384 . S
N604 C600 1.427 . S
N604 C601 1.384 . S
N605 C597 1.427 1_565 S
N605 C603 1.384 . S
H606 C612 0.930 . S
H607 C616 0.930 . S
H608 C621 0.929 . S
H609 C619 0.929 . S
H610 C614 0.929 . S
H611 C620 0.929 . S
C612 H606 0.930 . S
C612 C613 1.367 . S
C612 C620 1.378 . S
C613 C612 1.367 . S
C613 C621 1.433 . S
C614 H610 0.929 . S
C614 C616 1.378 . S
C614 C618 1.350 . S
C615 C618 1.463 . S
C615 C620 1.350 . S
C615 N623 1.427 . S
C616 H607 0.930 . S
C616 C614 1.378 . S
C616 C617 1.367 . S
C617 C616 1.367 . S
C617 C619 1.433 . S
C618 C614 1.350 . S
C618 C615 1.463 . S
C618 N622 1.427 . S
C619 H609 0.929 . S
C619 C617 1.433 . S
C619 N622 1.384 . S
C620 H611 0.929 . S
C620 C612 1.378 . S
C620 C615 1.350 . S
C621 H608 0.929 . S
C621 C613 1.433 . S
C621 N623 1.384 . S
N622 C618 1.427 . S
N622 C619 1.384 . S
N623 C615 1.427 . S
N623 C621 1.384 . S
H624 C630 0.930 . S
H625 C634 0.930 . S
H626 C639 0.929 . S
H627 C637 0.929 . S
H628 C632 0.929 . S
H629 C638 0.929 . S
C630 H624 0.930 . S
C630 C631 1.367 1_565 S
C630 C638 1.378 . S
C631 C630 1.367 1_545 S
C631 C639 1.433 . S
C632 H628 0.929 . S
C632 C634 1.378 . S
C632 C636 1.350 . S
C633 C636 1.463 . S
C633 C638 1.350 1_545 S
C633 N641 1.427 . S
C634 H625 0.930 . S
C634 C632 1.378 . S
C634 C635 1.367 . S
C635 C634 1.367 . S
C635 C637 1.433 1_545 S
C636 C632 1.350 . S
C636 C633 1.463 . S
C636 N640 1.427 1_545 S
C637 H627 0.929 . S
C637 C635 1.433 1_565 S
C637 N640 1.384 . S
C638 H629 0.929 . S
C638 C630 1.378 . S
C638 C633 1.350 1_565 S
C639 H626 0.929 . S
C639 C631 1.433 . S
C639 N641 1.384 . S
N640 C636 1.427 1_565 S
N640 C637 1.384 . S
N641 C633 1.427 . S
N641 C639 1.384 . S
H642 C648 0.930 . S
H643 C652 0.930 . S
H644 C657 0.929 . S
H645 C655 0.929 . S
H646 C650 0.929 . S
H647 C656 0.929 . S
C648 H642 0.930 . S
C648 C649 1.367 . S
C648 C656 1.378 . S
C649 C648 1.367 . S
C649 C657 1.433 . S
C650 H646 0.929 . S
C650 C652 1.378 . S
C650 C654 1.350 . S
C651 C654 1.463 . S
C651 C656 1.350 . S
C651 N659 1.427 . S
C652 H643 0.930 . S
C652 C650 1.378 . S
C652 C653 1.367 . S
C653 C652 1.367 . S
C653 C655 1.433 . S
C654 C650 1.350 . S
C654 C651 1.463 . S
C654 N658 1.427 . S
C655 H645 0.929 . S
C655 C653 1.433 . S
C655 N658 1.384 . S
C656 H647 0.929 . S
C656 C648 1.378 . S
C656 C651 1.350 . S
C657 H644 0.929 . S
C657 C649 1.433 . S
C657 N659 1.384 . S
N658 C654 1.427 . S
N658 C655 1.384 . S
N659 C651 1.427 . S
N659 C657 1.384 . S
H660 C666 0.930 . S
H661 C670 0.930 . S
H662 C675 0.929 . S
H663 C673 0.929 . S
H664 C668 0.929 . S
H665 C674 0.929 . S
C666 H660 0.930 . S
C666 C667 1.367 1_655 S
C666 C674 1.378 . S
C667 C666 1.367 1_455 S
C667 C675 1.433 . S
C668 H664 0.929 . S
C668 C670 1.378 . S
C668 C672 1.350 . S
C669 C672 1.463 . S
C669 C674 1.350 1_455 S
C669 N677 1.427 . S
C670 H661 0.930 . S
C670 C668 1.378 . S
C670 C671 1.367 . S
C671 C670 1.367 . S
C671 C673 1.433 1_455 S
C672 C668 1.350 . S
C672 C669 1.463 . S
C672 N676 1.427 1_455 S
C673 H663 0.929 . S
C673 C671 1.433 1_655 S
C673 N676 1.384 . S
C674 H665 0.929 . S
C674 C666 1.378 . S
C674 C669 1.350 1_655 S
C675 H662 0.929 . S
C675 C667 1.433 . S
C675 N677 1.384 . S
N676 C672 1.427 1_655 S
N676 C673 1.384 . S
N677 C669 1.427 . S
N677 C675 1.384 . S
C361 C10 3.138 . S
C365 C331 3.089 . S
C379 C55 1.214 . S
C383 C258 1.231 . S
C397 C90 1.925 . S
C401 C297 1.903 . S
C415 C19 2.997 . S
C419 C336 2.969 . S
C437 C253 1.306 . S
C433 C46 1.299 . S
C455 C292 2.047 . S
C451 C99 2.080 . S
C469 C50 1.929 . S
C473 C180 1.891 . S
C487 C95 0.638 . S
C491 C214 0.627 . S
C505 C6 1.325 . S
C509 C136 1.323 . S
C527 C175 2.005 . S
C523 C59 2.050 . S
C545 C219 0.323 . S
C541 C86 0.410 . S
C559 C15 1.268 . S
C563 C141 1.271 . S
C581 C199 1.115 1_554 S
C577 C18 1.090 . S
C595 C49 1.453 . S
C599 C121 1.496 . S
C613 C98 1.342 . S
C617 C160 1.373 . S
C635 C277 1.381 . S
C631 C58 1.342 . S
C653 C316 1.777 1_556 S
C649 C89 1.704 . S
C667 C9 1.450 . S
C671 C238 1.513 . S
