# Generated by pormake.
# Topology eea, (3,6)-cn, num edge types: 1
# Building blocks:
#     Node 0, Type 0, BuildingBlock: MIDCAF_clean_linker_0, # of connection points: 3
#     Node 1, Type 0, BuildingBlock: MIDCAF_clean_linker_0, # of connection points: 3
#     Node 2, Type 0, BuildingBlock: MIDCAF_clean_linker_0, # of connection points: 3
#     Node 3, Type 0, BuildingBlock: MIDCAF_clean_linker_0, # of connection points: 3
#     Node 4, Type 0, BuildingBlock: MIDCAF_clean_linker_0, # of connection points: 3
#     Node 5, Type 0, BuildingBlock: MIDCAF_clean_linker_0, # of connection points: 3
#     Node 6, Type 0, BuildingBlock: MIDCAF_clean_linker_0, # of connection points: 3
#     Node 7, Type 0, BuildingBlock: MIDCAF_clean_linker_0, # of connection points: 3
#     Node 8, Type 0, BuildingBlock: MIDCAF_clean_linker_0, # of connection points: 3
#     Node 9, Type 0, BuildingBlock: MIDCAF_clean_linker_0, # of connection points: 3
#     Node 10, Type 0, BuildingBlock: MIDCAF_clean_linker_0, # of connection points: 3
#     Node 11, Type 0, BuildingBlock: MIDCAF_clean_linker_0, # of connection points: 3
#     Node 12, Type 0, BuildingBlock: MIDCAF_clean_linker_0, # of connection points: 3
#     Node 13, Type 0, BuildingBlock: MIDCAF_clean_linker_0, # of connection points: 3
#     Node 14, Type 0, BuildingBlock: MIDCAF_clean_linker_0, # of connection points: 3
#     Node 15, Type 0, BuildingBlock: MIDCAF_clean_linker_0, # of connection points: 3
#     Node 16, Type 0, BuildingBlock: MIDCAF_clean_linker_0, # of connection points: 3
#     Node 17, Type 0, BuildingBlock: MIDCAF_clean_linker_0, # of connection points: 3
#     Node 18, Type 1, BuildingBlock: CUKXOW_clean_sbu_0, # of connection points: 6
#     Node 19, Type 1, BuildingBlock: CUKXOW_clean_sbu_0, # of connection points: 6
#     Node 20, Type 1, BuildingBlock: CUKXOW_clean_sbu_0, # of connection points: 6
#     Node 21, Type 1, BuildingBlock: CUKXOW_clean_sbu_0, # of connection points: 6
#     Node 22, Type 1, BuildingBlock: CUKXOW_clean_sbu_0, # of connection points: 6
#     Node 23, Type 1, BuildingBlock: CUKXOW_clean_sbu_0, # of connection points: 6
#     Node 24, Type 1, BuildingBlock: CUKXOW_clean_sbu_0, # of connection points: 6
#     Node 25, Type 1, BuildingBlock: CUKXOW_clean_sbu_0, # of connection points: 6
#     Node 26, Type 1, BuildingBlock: CUKXOW_clean_sbu_0, # of connection points: 6
#     Edge 27, Type (0, 1), BuildingBlock: MIFKUJ_clean_linker_0, # of connection points: 2
#     Edge 28, Type (0, 1), BuildingBlock: MIFKUJ_clean_linker_0, # of connection points: 2
#     Edge 29, Type (0, 1), BuildingBlock: MIFKUJ_clean_linker_0, # of connection points: 2
#     Edge 30, Type (0, 1), BuildingBlock: MIFKUJ_clean_linker_0, # of connection points: 2
#     Edge 31, Type (0, 1), BuildingBlock: MIFKUJ_clean_linker_0, # of connection points: 2
#     Edge 32, Type (0, 1), BuildingBlock: MIFKUJ_clean_linker_0, # of connection points: 2
#     Edge 33, Type (0, 1), BuildingBlock: MIFKUJ_clean_linker_0, # of connection points: 2
#     Edge 34, Type (0, 1), BuildingBlock: MIFKUJ_clean_linker_0, # of connection points: 2
#     Edge 35, Type (0, 1), BuildingBlock: MIFKUJ_clean_linker_0, # of connection points: 2
#     Edge 36, Type (0, 1), BuildingBlock: MIFKUJ_clean_linker_0, # of connection points: 2
#     Edge 37, Type (0, 1), BuildingBlock: MIFKUJ_clean_linker_0, # of connection points: 2
#     Edge 38, Type (0, 1), BuildingBlock: MIFKUJ_clean_linker_0, # of connection points: 2
#     Edge 39, Type (0, 1), BuildingBlock: MIFKUJ_clean_linker_0, # of connection points: 2
#     Edge 40, Type (0, 1), BuildingBlock: MIFKUJ_clean_linker_0, # of connection points: 2
#     Edge 41, Type (0, 1), BuildingBlock: MIFKUJ_clean_linker_0, # of connection points: 2
#     Edge 42, Type (0, 1), BuildingBlock: MIFKUJ_clean_linker_0, # of connection points: 2
#     Edge 43, Type (0, 1), BuildingBlock: MIFKUJ_clean_linker_0, # of connection points: 2
#     Edge 44, Type (0, 1), BuildingBlock: MIFKUJ_clean_linker_0, # of connection points: 2
#     Edge 45, Type (0, 1), BuildingBlock: MIFKUJ_clean_linker_0, # of connection points: 2
#     Edge 46, Type (0, 1), BuildingBlock: MIFKUJ_clean_linker_0, # of connection points: 2
#     Edge 47, Type (0, 1), BuildingBlock: MIFKUJ_clean_linker_0, # of connection points: 2
#     Edge 48, Type (0, 1), BuildingBlock: MIFKUJ_clean_linker_0, # of connection points: 2
#     Edge 49, Type (0, 1), BuildingBlock: MIFKUJ_clean_linker_0, # of connection points: 2
#     Edge 50, Type (0, 1), BuildingBlock: MIFKUJ_clean_linker_0, # of connection points: 2
#     Edge 51, Type (0, 1), BuildingBlock: MIFKUJ_clean_linker_0, # of connection points: 2
#     Edge 52, Type (0, 1), BuildingBlock: MIFKUJ_clean_linker_0, # of connection points: 2
#     Edge 53, Type (0, 1), BuildingBlock: MIFKUJ_clean_linker_0, # of connection points: 2
#     Edge 54, Type (0, 1), BuildingBlock: MIFKUJ_clean_linker_0, # of connection points: 2
#     Edge 55, Type (0, 1), BuildingBlock: MIFKUJ_clean_linker_0, # of connection points: 2
#     Edge 56, Type (0, 1), BuildingBlock: MIFKUJ_clean_linker_0, # of connection points: 2
#     Edge 57, Type (0, 1), BuildingBlock: MIFKUJ_clean_linker_0, # of connection points: 2
#     Edge 58, Type (0, 1), BuildingBlock: MIFKUJ_clean_linker_0, # of connection points: 2
#     Edge 59, Type (0, 1), BuildingBlock: MIFKUJ_clean_linker_0, # of connection points: 2
#     Edge 60, Type (0, 1), BuildingBlock: MIFKUJ_clean_linker_0, # of connection points: 2
#     Edge 61, Type (0, 1), BuildingBlock: MIFKUJ_clean_linker_0, # of connection points: 2
#     Edge 62, Type (0, 1), BuildingBlock: MIFKUJ_clean_linker_0, # of connection points: 2
#     Edge 63, Type (0, 1), BuildingBlock: MIFKUJ_clean_linker_0, # of connection points: 2
#     Edge 64, Type (0, 1), BuildingBlock: MIFKUJ_clean_linker_0, # of connection points: 2
#     Edge 65, Type (0, 1), BuildingBlock: MIFKUJ_clean_linker_0, # of connection points: 2
#     Edge 66, Type (0, 1), BuildingBlock: MIFKUJ_clean_linker_0, # of connection points: 2
#     Edge 67, Type (0, 1), BuildingBlock: MIFKUJ_clean_linker_0, # of connection points: 2
#     Edge 68, Type (0, 1), BuildingBlock: MIFKUJ_clean_linker_0, # of connection points: 2
#     Edge 69, Type (0, 1), BuildingBlock: MIFKUJ_clean_linker_0, # of connection points: 2
#     Edge 70, Type (0, 1), BuildingBlock: MIFKUJ_clean_linker_0, # of connection points: 2
#     Edge 71, Type (0, 1), BuildingBlock: MIFKUJ_clean_linker_0, # of connection points: 2
#     Edge 72, Type (0, 1), BuildingBlock: MIFKUJ_clean_linker_0, # of connection points: 2
#     Edge 73, Type (0, 1), BuildingBlock: MIFKUJ_clean_linker_0, # of connection points: 2
#     Edge 74, Type (0, 1), BuildingBlock: MIFKUJ_clean_linker_0, # of connection points: 2
#     Edge 75, Type (0, 1), BuildingBlock: MIFKUJ_clean_linker_0, # of connection points: 2
#     Edge 76, Type (0, 1), BuildingBlock: MIFKUJ_clean_linker_0, # of connection points: 2
#     Edge 77, Type (0, 1), BuildingBlock: MIFKUJ_clean_linker_0, # of connection points: 2
#     Edge 78, Type (0, 1), BuildingBlock: MIFKUJ_clean_linker_0, # of connection points: 2
#     Edge 79, Type (0, 1), BuildingBlock: MIFKUJ_clean_linker_0, # of connection points: 2
#     Edge 80, Type (0, 1), BuildingBlock: MIFKUJ_clean_linker_0, # of connection points: 2
# Relax obj value: 0.017
# Max RMSD: 0.127
# Mean RMSD: 0.053
data_MOF--net-eea--node1-CUKXOW_clean_sbu_0--node2-MIDCAF_clean_linker_0--edge1-MIFKUJ_clean_linker_0
_symmetry_space_group_name_H-M    P1
_symmetry_Int_Tables_number       1
_symmetry_cell_setting            triclinic
loop_
_symmetry_equiv_pos_as_xyz
'x, y, z'
_cell_length_a     82.495233
_cell_length_b     79.72136
_cell_length_c     91.611247
_cell_angle_alpha  92.971345
_cell_angle_beta   92.919023
_cell_angle_gamma 119.87539
loop_
_atom_site_label
_atom_site_type_symbol
_atom_site_fract_x
_atom_site_fract_y
_atom_site_fract_z
_atom_type_partial_charge
C0 C 0.23844 0.06314 0.42483 0.0
C1 C 0.23637 0.06083 0.40943 0.0
C2 C 0.23968 0.07678 0.40162 0.0
C3 C 0.24462 0.09464 0.4091 0.0
H4 H 0.24546 0.14639 0.40358 0.0
H5 H 0.23804 0.16872 0.39171 0.0
H6 H 0.24881 0.20198 0.43336 0.0
H7 H 0.2561 0.17969 0.44532 0.0
H8 H 0.27948 0.17023 0.47183 0.0
H9 H 0.28887 0.17527 0.49804 0.0
H10 H 0.26216 0.11312 0.50011 0.0
H11 H 0.25359 0.10818 0.47384 0.0
H12 H 0.24491 0.08221 0.44418 0.0
H13 H 0.23616 0.05112 0.43111 0.0
H14 H 0.23808 0.07533 0.38974 0.0
H15 H 0.24688 0.10662 0.40277 0.0
N16 N 0.2501 0.1296 0.4255 0.0
N17 N 0.25924 0.14952 0.44759 0.0
N18 N 0.25648 0.11879 0.4472 0.0
C19 C 0.25396 0.14656 0.43295 0.0
C20 C 0.26055 0.13571 0.45477 0.0
C21 C 0.25136 0.11566 0.43255 0.0
C22 C 0.25121 0.1611 0.42545 0.0
C23 C 0.24641 0.15855 0.41021 0.0
C24 C 0.24225 0.17139 0.40338 0.0
C25 C 0.2427 0.18698 0.41164 0.0
C26 C 0.24809 0.18992 0.42676 0.0
C27 C 0.25236 0.17717 0.43359 0.0
C28 C 0.2659 0.13882 0.47074 0.0
C29 C 0.27562 0.15766 0.4779 0.0
C30 C 0.28089 0.16053 0.49296 0.0
C31 C 0.27632 0.14461 0.50125 0.0
C32 C 0.2663 0.12576 0.49407 0.0
C33 C 0.26129 0.12291 0.47899 0.0
C34 C 0.24655 0.09693 0.42453 0.0
C35 C 0.24356 0.08101 0.4323 0.0
C36 C 0.9344 0.18855 0.42806 0.0
C37 C 0.93689 0.18611 0.41321 0.0
C38 C 0.92144 0.17268 0.40364 0.0
C39 C 0.90391 0.1615 0.40889 0.0
H40 H 0.86001 0.10449 0.40323 0.0
H41 H 0.83895 0.07233 0.39087 0.0
H42 H 0.79648 0.06446 0.41983 0.0
H43 H 0.81746 0.09667 0.43225 0.0
H44 H 0.83073 0.12339 0.46223 0.0
H45 H 0.82512 0.12994 0.48712 0.0
H46 H 0.88042 0.18087 0.49321 0.0
H47 H 0.88599 0.17459 0.4682 0.0
H48 H 0.9154 0.17959 0.44485 0.0
H49 H 0.94609 0.19894 0.43564 0.0
H50 H 0.92302 0.17044 0.39215 0.0
H51 H 0.89234 0.15103 0.40127 0.0
N52 N 0.87032 0.13424 0.42166 0.0
N53 N 0.85004 0.12695 0.44032 0.0
N54 N 0.87926 0.15568 0.44287 0.0
C55 C 0.85376 0.12209 0.42699 0.0
C56 C 0.8627 0.14373 0.44833 0.0
C57 C 0.88311 0.15108 0.4295 0.0
C58 C 0.84047 0.10316 0.4188 0.0
C59 C 0.84613 0.09602 0.40691 0.0
C60 C 0.83414 0.07755 0.39987 0.0
C61 C 0.81616 0.0659 0.40446 0.0
C62 C 0.81024 0.07321 0.41602 0.0
C63 C 0.82231 0.09162 0.42317 0.0
C64 C 0.85887 0.14838 0.46319 0.0
C65 C 0.84169 0.13606 0.46881 0.0
C66 C 0.83849 0.13975 0.48312 0.0
C67 C 0.85238 0.15583 0.49218 0.0
C68 C 0.86937 0.16845 0.48647 0.0
C69 C 0.87259 0.16477 0.47214 0.0
C70 C 0.90143 0.1637 0.42381 0.0
C71 C 0.91681 0.17755 0.4333 0.0
C72 C 0.83541 0.77525 0.44744 0.0
C73 C 0.83492 0.778 0.43244 0.0
C74 C 0.84852 0.77754 0.42408 0.0
C75 C 0.86239 0.77445 0.43058 0.0
H76 H 0.91338 0.77873 0.4237 0.0
H77 H 0.94128 0.78583 0.4114 0.0
H78 H 0.96544 0.77555 0.4505 0.0
H79 H 0.93737 0.76793 0.46268 0.0
H80 H 0.90836 0.74227 0.48538 0.0
H81 H 0.90313 0.72711 0.50842 0.0
H82 H 0.85656 0.73662 0.51385 0.0
H83 H 0.86177 0.75191 0.49087 0.0
H84 H 0.84906 0.76977 0.4655 0.0
H85 H 0.82501 0.77542 0.45411 0.0
H86 H 0.84856 0.7798 0.41251 0.0
H87 H 0.87266 0.77417 0.42382 0.0
N88 N 0.89278 0.77169 0.44547 0.0
N89 N 0.90364 0.76086 0.46493 0.0
N90 N 0.87513 0.76052 0.46569 0.0
C91 C 0.90607 0.76832 0.4517 0.0
C92 C 0.88821 0.7569 0.47199 0.0
C93 C 0.87729 0.76788 0.45243 0.0
C94 C 0.92308 0.77273 0.44419 0.0
C95 C 0.92463 0.77798 0.42969 0.0
C96 C 0.94069 0.78217 0.42266 0.0
C97 C 0.95563 0.78131 0.42997 0.0
C98 C 0.95409 0.77609 0.44447 0.0
C99 C 0.938 0.7718 0.45148 0.0
C100 C 0.88546 0.74828 0.48623 0.0
C101 C 0.89706 0.74124 0.4915 0.0
C102 C 0.89402 0.73246 0.50465 0.0
C103 C 0.87943 0.73067 0.51289 0.0
C104 C 0.86802 0.73797 0.50778 0.0
C105 C 0.87095 0.74662 0.49456 0.0
C106 C 0.8628 0.77151 0.44557 0.0
C107 C 0.84913 0.77192 0.45392 0.0
C108 C 0.07368 0.27209 0.58076 0.0
C109 C 0.0692 0.2616 0.59325 0.0
C110 C 0.08104 0.25489 0.59852 0.0
C111 C 0.09689 0.25844 0.59144 0.0
H112 H 0.1407 0.24842 0.59417 0.0
H113 H 0.15912 0.23406 0.60258 0.0
H114 H 0.18986 0.2504 0.56407 0.0
H115 H 0.17183 0.26524 0.55582 0.0
H116 H 0.17166 0.3009 0.54046 0.0
H117 H 0.17981 0.31667 0.51786 0.0
H118 H 0.12465 0.31024 0.51165 0.0
H119 H 0.11661 0.29487 0.53462 0.0
H120 H 0.09259 0.28376 0.56406 0.0
H121 H 0.06492 0.27761 0.57651 0.0
H122 H 0.07785 0.2465 0.60796 0.0
H123 H 0.10555 0.25287 0.59581 0.0
N124 N 0.12853 0.26436 0.5761 0.0
N125 N 0.14839 0.2775 0.55743 0.0
N126 N 0.12285 0.28255 0.55935 0.0
C127 C 0.14369 0.26694 0.56922 0.0
C128 C 0.13812 0.28539 0.55243 0.0
C129 C 0.11803 0.2721 0.57128 0.0
C130 C 0.1548 0.25806 0.57433 0.0
C131 C 0.15137 0.24895 0.58747 0.0
C132 C 0.16185 0.24058 0.59225 0.0
C133 C 0.17593 0.24102 0.58398 0.0
C134 C 0.17929 0.25002 0.5708 0.0
C135 C 0.16888 0.25848 0.56605 0.0
C136 C 0.14338 0.2964 0.53927 0.0
C137 C 0.16126 0.30293 0.53435 0.0
C138 C 0.16593 0.31193 0.52134 0.0
C139 C 0.1528 0.31448 0.51282 0.0
C140 C 0.13514 0.30862 0.518 0.0
C141 C 0.1305 0.29973 0.53113 0.0
C142 C 0.10135 0.26881 0.57889 0.0
C143 C 0.0896 0.27569 0.57367 0.0
C144 C 0.73705 0.8022 0.58736 0.0
C145 C 0.75044 0.80852 0.5995 0.0
C146 C 0.75839 0.82769 0.60582 0.0
C147 C 0.75332 0.84042 0.59997 0.0
H148 H 0.74754 0.88978 0.61078 0.0
H149 H 0.75849 0.92183 0.62341 0.0
H150 H 0.7534 0.94344 0.5822 0.0
H151 H 0.74242 0.91151 0.56952 0.0
H152 H 0.71914 0.88107 0.54261 0.0
H153 H 0.70766 0.87484 0.51684 0.0
H154 H 0.70114 0.81757 0.51608 0.0
H155 H 0.71301 0.82387 0.54184 0.0
H156 H 0.72204 0.80978 0.57185 0.0
H157 H 0.73079 0.78752 0.58223 0.0
H158 H 0.76863 0.83285 0.61527 0.0
H159 H 0.75993 0.85519 0.60498 0.0
N160 N 0.74111 0.86564 0.5879 0.0
N161 N 0.7302 0.87459 0.56727 0.0
N162 N 0.72809 0.84414 0.56662 0.0
C163 C 0.73813 0.87887 0.58131 0.0
C164 C 0.72507 0.85723 0.55986 0.0
C165 C 0.7361 0.84823 0.58062 0.0
C166 C 0.74415 0.89807 0.58912 0.0
C167 C 0.7487 0.90134 0.6044 0.0
C168 C 0.75487 0.91964 0.61166 0.0
C169 C 0.75686 0.93509 0.60375 0.0
C170 C 0.75217 0.93181 0.58852 0.0
C171 C 0.74578 0.91348 0.5813 0.0
C172 C 0.7171 0.85301 0.54434 0.0
C173 C 0.7152 0.86709 0.53702 0.0
C174 C 0.7085 0.86349 0.52222 0.0
C175 C 0.7035 0.84571 0.51439 0.0
C176 C 0.70512 0.83151 0.52175 0.0
C177 C 0.71183 0.83511 0.53656 0.0
C178 C 0.74035 0.83431 0.58753 0.0
C179 C 0.73214 0.815 0.58139 0.0
C180 C 0.18265 0.93279 0.58054 0.0
C181 C 0.17752 0.941 0.59205 0.0
C182 C 0.1591 0.93084 0.5962 0.0
C183 C 0.14603 0.91281 0.58893 0.0
H184 H 0.09631 0.86262 0.59358 0.0
H185 H 0.06662 0.84206 0.60355 0.0
H186 H 0.04846 0.80177 0.56478 0.0
H187 H 0.07835 0.82214 0.55484 0.0
H188 H 0.10993 0.82845 0.53175 0.0
H189 H 0.11659 0.82064 0.50746 0.0
H190 H 0.16035 0.88044 0.50656 0.0
H191 H 0.15423 0.88801 0.53087 0.0
H192 H 0.17394 0.90908 0.56423 0.0
H193 H 0.19672 0.94039 0.57704 0.0
H194 H 0.15484 0.93679 0.60513 0.0
H195 H 0.13192 0.90538 0.59235 0.0
N196 N 0.12069 0.87401 0.57472 0.0
N197 N 0.11144 0.8519 0.55383 0.0
N198 N 0.1405 0.88078 0.55578 0.0
C199 C 0.10779 0.85691 0.56718 0.0
C200 C 0.12778 0.86382 0.54805 0.0
C201 C 0.13711 0.88598 0.56911 0.0
C202 C 0.08978 0.84411 0.57336 0.0
C203 C 0.08605 0.84937 0.58715 0.0
C204 C 0.06895 0.83763 0.59285 0.0
C205 C 0.05512 0.82033 0.58493 0.0
C206 C 0.05889 0.81492 0.57122 0.0
C207 C 0.07601 0.82668 0.56549 0.0
C208 C 0.1316 0.85882 0.53331 0.0
C209 C 0.12101 0.83989 0.52637 0.0
C210 C 0.12478 0.83544 0.51241 0.0
C211 C 0.1391 0.84987 0.50505 0.0
C212 C 0.14953 0.86882 0.512 0.0
C213 C 0.14592 0.8732 0.52596 0.0
C214 C 0.15107 0.90472 0.57723 0.0
C215 C 0.16955 0.9149 0.57315 0.0
C216 C 0.9296 0.41127 0.74424 0.0
C217 C 0.91928 0.40608 0.73047 0.0
C218 C 0.91397 0.41883 0.72477 0.0
C219 C 0.91852 0.43621 0.73281 0.0
H220 H 0.90731 0.48118 0.73346 0.0
H221 H 0.89788 0.50325 0.72368 0.0
H222 H 0.93235 0.54699 0.75881 0.0
H223 H 0.94177 0.52497 0.76871 0.0
H224 H 0.93974 0.5022 0.79972 0.0
H225 H 0.94892 0.50588 0.82579 0.0
H226 H 0.96831 0.46493 0.81898 0.0
H227 H 0.95839 0.46065 0.79291 0.0
H228 H 0.94172 0.43195 0.76304 0.0
H229 H 0.93372 0.40164 0.74898 0.0
H230 H 0.90617 0.4153 0.71411 0.0
H231 H 0.91395 0.44553 0.72815 0.0
N232 N 0.92769 0.4717 0.74994 0.0
N233 N 0.93735 0.49076 0.77243 0.0
N234 N 0.93905 0.46227 0.77002 0.0
C235 C 0.93042 0.48769 0.75818 0.0
C236 C 0.94169 0.47812 0.77844 0.0
C237 C 0.93206 0.45896 0.75574 0.0
C238 C 0.92525 0.5013 0.75189 0.0
C239 C 0.91297 0.49553 0.73907 0.0
C240 C 0.90748 0.5081 0.7335 0.0
C241 C 0.91438 0.52677 0.74052 0.0
C242 C 0.92694 0.5327 0.75315 0.0
C243 C 0.93223 0.52005 0.75885 0.0
C244 C 0.94828 0.48109 0.7942 0.0
C245 C 0.94605 0.49404 0.80374 0.0
C246 C 0.95142 0.49623 0.81873 0.0
C247 C 0.95937 0.48571 0.82455 0.0
C248 C 0.96192 0.47301 0.81495 0.0
C249 C 0.95634 0.47065 0.79996 0.0
C250 C 0.92837 0.44117 0.7468 0.0
C251 C 0.93406 0.4286 0.75234 0.0
C252 C 0.61454 0.51865 0.77336 0.0
C253 C 0.61673 0.51565 0.7585 0.0
C254 C 0.60138 0.50074 0.74957 0.0
C255 C 0.58437 0.48894 0.7554 0.0
H256 H 0.53278 0.43753 0.74625 0.0
H257 H 0.5097 0.40615 0.73349 0.0
H258 H 0.48284 0.38817 0.77353 0.0
H259 H 0.50578 0.41934 0.78633 0.0
H260 H 0.52153 0.44784 0.81515 0.0
H261 H 0.51612 0.4564 0.83951 0.0
H262 H 0.55597 0.51685 0.83539 0.0
H263 H 0.562 0.50809 0.81122 0.0
H264 H 0.59642 0.5096 0.79069 0.0
H265 H 0.62612 0.52978 0.78062 0.0
H266 H 0.60244 0.49825 0.73801 0.0
H267 H 0.57288 0.47755 0.74821 0.0
N268 N 0.5513 0.46199 0.76918 0.0
N269 N 0.53255 0.45488 0.7889 0.0
N270 N 0.56134 0.48396 0.79021 0.0
C271 C 0.53532 0.44981 0.77527 0.0
C272 C 0.54542 0.47195 0.7964 0.0
C273 C 0.56443 0.47906 0.77663 0.0
C274 C 0.5212 0.43097 0.76733 0.0
C275 C 0.52196 0.4269 0.75234 0.0
C276 C 0.50869 0.40898 0.745 0.0
C277 C 0.49455 0.39472 0.75254 0.0
C278 C 0.49373 0.39882 0.76749 0.0
C279 C 0.50683 0.41675 0.77478 0.0
C280 C 0.54217 0.47729 0.81123 0.0
C281 C 0.52915 0.46296 0.81943 0.0
C282 C 0.52596 0.46791 0.83339 0.0
C283 C 0.53549 0.48736 0.83943 0.0
C284 C 0.54856 0.50169 0.83121 0.0
C285 C 0.55195 0.49669 0.8173 0.0
C286 C 0.58224 0.49189 0.77028 0.0
C287 C 0.59749 0.50698 0.77915 0.0
C288 C 0.48788 0.07465 0.76261 0.0
C289 C 0.48941 0.08155 0.74865 0.0
C290 C 0.50388 0.08291 0.74041 0.0
C291 C 0.51685 0.07805 0.74619 0.0
H292 H 0.56382 0.07066 0.73719 0.0
H293 H 0.59267 0.08022 0.72517 0.0
H294 H 0.62359 0.09211 0.76745 0.0
H295 H 0.59478 0.08217 0.77952 0.0
H296 H 0.56947 0.06007 0.80625 0.0
H297 H 0.56583 0.04812 0.83059 0.0
H298 H 0.50659 0.0285 0.8252 0.0
H299 H 0.51009 0.04036 0.80094 0.0
H300 H 0.49937 0.06486 0.77929 0.0
H301 H 0.47705 0.07364 0.76933 0.0
H302 H 0.50526 0.08786 0.72952 0.0
H303 H 0.52799 0.07957 0.73962 0.0
N304 N 0.54587 0.07239 0.76009 0.0
N305 N 0.55792 0.06346 0.7801 0.0
N306 N 0.52842 0.06099 0.78036 0.0
C307 C 0.55979 0.0702 0.76661 0.0
C308 C 0.54217 0.05865 0.78698 0.0
C309 C 0.53017 0.06792 0.76695 0.0
C310 C 0.57706 0.07567 0.75929 0.0
C311 C 0.57676 0.07527 0.74391 0.0
C312 C 0.59319 0.08064 0.73704 0.0
C313 C 0.61023 0.08691 0.74544 0.0
C314 C 0.61058 0.08739 0.76079 0.0
C315 C 0.5941 0.08162 0.76765 0.0
C316 C 0.54007 0.05119 0.80164 0.0
C317 C 0.55565 0.05314 0.81022 0.0
C318 C 0.55361 0.0464 0.82418 0.0
C319 C 0.53593 0.03736 0.82973 0.0
C320 C 0.52035 0.03524 0.82111 0.0
C321 C 0.5224 0.04216 0.80725 0.0
C322 C 0.51561 0.07164 0.76032 0.0
C323 C 0.50079 0.06971 0.76836 0.0
C324 C 0.71388 0.56283 0.89584 0.0
C325 C 0.71093 0.55467 0.90937 0.0
C326 C 0.72479 0.55149 0.91601 0.0
C327 C 0.74118 0.55627 0.90926 0.0
H328 H 0.784 0.54267 0.90765 0.0
H329 H 0.80645 0.5344 0.91829 0.0
H330 H 0.84888 0.57516 0.89251 0.0
H331 H 0.82621 0.58284 0.88146 0.0
H332 H 0.80201 0.58291 0.84781 0.0
H333 H 0.80803 0.59954 0.82556 0.0
H334 H 0.77527 0.62548 0.83892 0.0
H335 H 0.76839 0.60785 0.86083 0.0
H336 H 0.73203 0.57387 0.87865 0.0
H337 H 0.70338 0.56522 0.89031 0.0
H338 H 0.72311 0.54551 0.92655 0.0
H339 H 0.75156 0.55365 0.91472 0.0
N340 N 0.77383 0.5643 0.89403 0.0
N341 N 0.79316 0.57843 0.87515 0.0
N342 N 0.76521 0.57923 0.87627 0.0
C343 C 0.78972 0.56877 0.88743 0.0
C344 C 0.78096 0.5837 0.86951 0.0
C345 C 0.7615 0.56947 0.88851 0.0
C346 C 0.80329 0.56345 0.89371 0.0
C347 C 0.7981 0.54982 0.90421 0.0
C348 C 0.81104 0.54515 0.91038 0.0
C349 C 0.82956 0.55416 0.90634 0.0
C350 C 0.83468 0.56767 0.89574 0.0
C351 C 0.82169 0.57218 0.88945 0.0
C352 C 0.78477 0.5941 0.85608 0.0
C353 C 0.7961 0.59217 0.84599 0.0
C354 C 0.79965 0.60185 0.83325 0.0
C355 C 0.7923 0.61408 0.83042 0.0
C356 C 0.78095 0.616 0.84057 0.0
C357 C 0.7771 0.60598 0.85319 0.0
C358 C 0.74414 0.56444 0.89572 0.0
C359 C 0.7303 0.5677 0.88911 0.0
C360 C 0.41835 0.1396 0.92002 0.0
C361 C 0.42895 0.14532 0.9337 0.0
C362 C 0.43262 0.16272 0.94144 0.0
C363 C 0.42592 0.17419 0.93559 0.0
H364 H 0.43054 0.22856 0.94084 0.0
H365 H 0.4389 0.26035 0.95259 0.0
H366 H 0.39685 0.26189 0.92357 0.0
H367 H 0.38843 0.23013 0.91177 0.0
H368 H 0.37015 0.1985 0.883 0.0
H369 H 0.35741 0.19217 0.85749 0.0
H370 H 0.38468 0.1589 0.84835 0.0
H371 H 0.39661 0.16445 0.87399 0.0
H372 H 0.40356 0.14614 0.9036 0.0
H373 H 0.41501 0.12612 0.91389 0.0
H374 H 0.44092 0.16763 0.95193 0.0
H375 H 0.42912 0.18757 0.94181 0.0
N376 N 0.41123 0.19715 0.92316 0.0
N377 N 0.39585 0.20312 0.90361 0.0
N378 N 0.39953 0.1758 0.90175 0.0
C379 C 0.40491 0.20839 0.9173 0.0
C380 C 0.39316 0.18689 0.89576 0.0
C381 C 0.40845 0.18074 0.91549 0.0
C382 C 0.40889 0.22684 0.92529 0.0
C383 C 0.42292 0.23555 0.93706 0.0
C384 C 0.4278 0.2538 0.94373 0.0
C385 C 0.41859 0.26359 0.93892 0.0
C386 C 0.4041 0.2546 0.92755 0.0
C387 C 0.39937 0.23647 0.92074 0.0
C388 C 0.38445 0.18204 0.8805 0.0
C389 C 0.37328 0.1897 0.87556 0.0
C390 C 0.36609 0.18617 0.86089 0.0
C391 C 0.37015 0.17518 0.85076 0.0
C392 C 0.381 0.16719 0.85582 0.0
C393 C 0.38795 0.17045 0.87054 0.0
C394 C 0.41541 0.16853 0.92185 0.0
C395 C 0.41169 0.15107 0.91416 0.0
C396 C 0.85609 0.2651 0.91495 0.0
C397 C 0.84993 0.27295 0.92596 0.0
C398 C 0.83174 0.26158 0.9303 0.0
C399 C 0.81994 0.24277 0.92373 0.0
H400 H 0.7694 0.19503 0.92623 0.0
H401 H 0.73882 0.17548 0.93512 0.0
H402 H 0.72572 0.12954 0.90144 0.0
H403 H 0.7566 0.14902 0.89256 0.0
H404 H 0.78556 0.1578 0.86754 0.0
H405 H 0.79357 0.14992 0.84382 0.0
H406 H 0.84795 0.20198 0.85061 0.0
H407 H 0.84006 0.21 0.87414 0.0
H408 H 0.84946 0.24081 0.89979 0.0
H409 H 0.86998 0.27358 0.91129 0.0
H410 H 0.82669 0.26717 0.93889 0.0
H411 H 0.80599 0.23445 0.92733 0.0
N412 N 0.79625 0.20368 0.91015 0.0
N413 N 0.7895 0.17951 0.89125 0.0
N414 N 0.81834 0.20869 0.89336 0.0
C415 C 0.78428 0.1858 0.90325 0.0
C416 C 0.80659 0.1909 0.88626 0.0
C417 C 0.81331 0.2152 0.9053 0.0
C418 C 0.76555 0.17365 0.90864 0.0
C419 C 0.76008 0.18077 0.92066 0.0
C420 C 0.74244 0.16961 0.92573 0.0
C421 C 0.72979 0.15101 0.91894 0.0
C422 C 0.73522 0.14378 0.90697 0.0
C423 C 0.7529 0.15499 0.90185 0.0
C424 C 0.81203 0.18471 0.87269 0.0
C425 C 0.79932 0.16745 0.86408 0.0
C426 C 0.80393 0.16286 0.85052 0.0
C427 C 0.8213 0.17545 0.8453 0.0
C428 C 0.83434 0.19216 0.85424 0.0
C429 C 0.82978 0.19672 0.86777 0.0
C430 C 0.82602 0.23494 0.9126 0.0
C431 C 0.84427 0.24633 0.90832 0.0
C432 C 0.60265 0.74327 0.08225 0.0
C433 C 0.59243 0.73727 0.06841 0.0
C434 C 0.58799 0.75003 0.06158 0.0
C435 C 0.59306 0.76812 0.06868 0.0
H436 H 0.59446 0.82019 0.06318 0.0
H437 H 0.58515 0.84139 0.05181 0.0
H438 H 0.59127 0.87108 0.09431 0.0
H439 H 0.60107 0.85031 0.10565 0.0
H440 H 0.61105 0.83543 0.13404 0.0
H441 H 0.61907 0.83923 0.16038 0.0
H442 H 0.64063 0.79995 0.15499 0.0
H443 H 0.63195 0.79556 0.12873 0.0
H444 H 0.61507 0.76521 0.10021 0.0
H445 H 0.60614 0.7337 0.08786 0.0
H446 H 0.58033 0.74589 0.05083 0.0
H447 H 0.589 0.77739 0.06324 0.0
N448 N 0.60179 0.80437 0.08457 0.0
N449 N 0.61014 0.82386 0.10679 0.0
N450 N 0.61261 0.7958 0.10545 0.0
C451 C 0.60383 0.82038 0.09235 0.0
C452 C 0.61465 0.81169 0.1134 0.0
C453 C 0.60616 0.792 0.09103 0.0
C454 C 0.59852 0.83351 0.08535 0.0
C455 C 0.59388 0.83127 0.07011 0.0
C456 C 0.58844 0.84336 0.06359 0.0
C457 C 0.58742 0.85791 0.07215 0.0
C458 C 0.59217 0.86022 0.08736 0.0
C459 C 0.59771 0.84821 0.09387 0.0
C460 C 0.62074 0.81509 0.12927 0.0
C461 C 0.6176 0.82768 0.13845 0.0
C462 C 0.62229 0.82994 0.15358 0.0
C463 C 0.63041 0.81982 0.15986 0.0
C464 C 0.63402 0.80765 0.15059 0.0
C465 C 0.62915 0.80522 0.1355 0.0
C466 C 0.60259 0.7738 0.08281 0.0
C467 C 0.60765 0.76131 0.08938 0.0
C468 C 0.28053 0.85913 0.09802 0.0
C469 C 0.28307 0.85668 0.08318 0.0
C470 C 0.26809 0.84186 0.07394 0.0
C471 C 0.25101 0.82958 0.07945 0.0
H472 H 0.19999 0.77828 0.06846 0.0
H473 H 0.17814 0.74692 0.05499 0.0
H474 H 0.1509 0.72606 0.09447 0.0
H475 H 0.17253 0.75721 0.10794 0.0
H476 H 0.17772 0.79003 0.13225 0.0
H477 H 0.17101 0.79607 0.1568 0.0
H478 H 0.22715 0.84534 0.16515 0.0
H479 H 0.23385 0.83958 0.14031 0.0
H480 H 0.26191 0.84917 0.11503 0.0
H481 H 0.29181 0.87052 0.10536 0.0
H482 H 0.26972 0.83949 0.06248 0.0
H483 H 0.23984 0.81821 0.07203 0.0
N484 N 0.21778 0.80169 0.09221 0.0
N485 N 0.19803 0.79329 0.11129 0.0
N486 N 0.22677 0.82251 0.11384 0.0
C487 C 0.20154 0.78899 0.09771 0.0
C488 C 0.21049 0.81002 0.11941 0.0
C489 C 0.23049 0.81848 0.10022 0.0
C490 C 0.18805 0.77028 0.0893 0.0
C491 C 0.18932 0.76702 0.07426 0.0
C492 C 0.17677 0.74912 0.06653 0.0
C493 C 0.16292 0.73407 0.07372 0.0
C494 C 0.16158 0.73735 0.0887 0.0
C495 C 0.17392 0.75527 0.09638 0.0
C496 C 0.20639 0.81424 0.13429 0.0
C497 C 0.18869 0.80219 0.13925 0.0
C498 C 0.18485 0.80559 0.15339 0.0
C499 C 0.19861 0.82106 0.16299 0.0
C500 C 0.21621 0.83337 0.15797 0.0
C501 C 0.22006 0.83001 0.14376 0.0
C502 C 0.24845 0.83193 0.09432 0.0
C503 C 0.26337 0.84696 0.10352 0.0
C504 C 0.16075 0.42594 0.10493 0.0
C505 C 0.1643 0.43412 0.09142 0.0
C506 C 0.1801 0.43645 0.08459 0.0
C507 C 0.19205 0.43074 0.09113 0.0
H508 H 0.24334 0.43467 0.08829 0.0
H509 H 0.27321 0.44337 0.07865 0.0
H510 H 0.28645 0.41695 0.11382 0.0
H511 H 0.25671 0.40848 0.12369 0.0
H512 H 0.22945 0.39238 0.14881 0.0
H513 H 0.22098 0.37616 0.17135 0.0
H514 H 0.16609 0.37033 0.16531 0.0
H515 H 0.17437 0.38632 0.14274 0.0
H516 H 0.16945 0.41398 0.12189 0.0
H517 H 0.14889 0.42422 0.11062 0.0
H518 H 0.1831 0.44245 0.07407 0.0
H519 H 0.20405 0.43269 0.08553 0.0
N520 N 0.21764 0.42094 0.10618 0.0
N521 N 0.22444 0.40589 0.12496 0.0
N522 N 0.19636 0.40661 0.12384 0.0
C523 C 0.22941 0.41572 0.11276 0.0
C524 C 0.20791 0.40124 0.13054 0.0
C525 C 0.2011 0.41647 0.11167 0.0
C526 C 0.24755 0.42085 0.10679 0.0
C527 C 0.25258 0.43069 0.09401 0.0
C528 C 0.26968 0.4356 0.08841 0.0
C529 C 0.28218 0.43082 0.09545 0.0
C530 C 0.27721 0.42102 0.10824 0.0
C531 C 0.26008 0.41607 0.11383 0.0
C532 C 0.20263 0.39075 0.14396 0.0
C533 C 0.21553 0.38755 0.15222 0.0
C534 C 0.21072 0.37833 0.16517 0.0
C535 C 0.19289 0.372 0.17009 0.0
C536 C 0.17987 0.37486 0.16171 0.0
C537 C 0.1847 0.38417 0.14881 0.0
C538 C 0.18844 0.42249 0.10463 0.0
C539 C 0.17263 0.42015 0.11144 0.0
C540 C 0.38308 0.89628 0.22979 0.0
C541 C 0.38115 0.89119 0.24431 0.0
C542 C 0.39676 0.89311 0.25276 0.0
C543 C 0.41397 0.89993 0.24679 0.0
H544 H 0.46069 0.8935 0.24932 0.0
H545 H 0.4838 0.88652 0.26037 0.0
H546 H 0.5245 0.92428 0.23208 0.0
H547 H 0.50115 0.93085 0.22065 0.0
H548 H 0.48661 0.94449 0.1936 0.0
H549 H 0.49169 0.959 0.17034 0.0
H550 H 0.43518 0.94927 0.16731 0.0
H551 H 0.42989 0.93444 0.19047 0.0
H552 H 0.40139 0.9072 0.21265 0.0
H553 H 0.37128 0.89509 0.22308 0.0
H554 H 0.39561 0.88917 0.26395 0.0
H555 H 0.42572 0.90121 0.25361 0.0
N556 N 0.44782 0.90985 0.23265 0.0
N557 N 0.46778 0.92562 0.2145 0.0
N558 N 0.43762 0.92172 0.21352 0.0
C559 C 0.4646 0.91633 0.22696 0.0
C560 C 0.45437 0.9284 0.20771 0.0
C561 C 0.43427 0.9125 0.22602 0.0
C562 C 0.47901 0.91273 0.23405 0.0
C563 C 0.47457 0.90041 0.24546 0.0
C564 C 0.48789 0.89647 0.25188 0.0
C565 C 0.50604 0.90486 0.24715 0.0
C566 C 0.51057 0.91735 0.23585 0.0
C567 C 0.49719 0.9212 0.22935 0.0
C568 C 0.45779 0.93814 0.19391 0.0
C569 C 0.47526 0.94549 0.18804 0.0
C570 C 0.47824 0.95396 0.17474 0.0
C571 C 0.46383 0.95527 0.16698 0.0
C572 C 0.44648 0.94827 0.17295 0.0
C573 C 0.4435 0.93983 0.18628 0.0
C574 C 0.41599 0.9052 0.23229 0.0
C575 C 0.40035 0.90334 0.22387 0.0
C576 C 0.08002 0.46879 0.24884 0.0
C577 C 0.09421 0.47546 0.2604 0.0
C578 C 0.1031 0.49499 0.26605 0.0
C579 C 0.09793 0.50766 0.26024 0.0
H580 H 0.10433 0.5621 0.26832 0.0
H581 H 0.11372 0.59345 0.2815 0.0
H582 H 0.07684 0.60131 0.25106 0.0
H583 H 0.0674 0.57006 0.23787 0.0
H584 H 0.06535 0.54933 0.20434 0.0
H585 H 0.05282 0.54339 0.17893 0.0
H586 H 0.03374 0.48222 0.18021 0.0
H587 H 0.04711 0.48837 0.2056 0.0
H588 H 0.06413 0.47602 0.23386 0.0
H589 H 0.073 0.45379 0.24427 0.0
H590 H 0.11397 0.50043 0.27506 0.0
H591 H 0.10513 0.52265 0.26482 0.0
N592 N 0.08385 0.53197 0.24966 0.0
N593 N 0.07086 0.54043 0.23004 0.0
N594 N 0.06995 0.51052 0.22839 0.0
C595 C 0.07971 0.54481 0.24375 0.0
C596 C 0.06596 0.52336 0.22227 0.0
C597 C 0.07893 0.51476 0.24208 0.0
C598 C 0.08513 0.56357 0.25201 0.0
C599 C 0.09814 0.57045 0.26447 0.0
C600 C 0.10361 0.58843 0.27198 0.0
C601 C 0.09598 0.59976 0.2673 0.0
C602 C 0.0828 0.59278 0.25499 0.0
C603 C 0.07749 0.57493 0.24739 0.0
C604 C 0.05727 0.51933 0.20702 0.0
C605 C 0.05839 0.53458 0.19926 0.0
C606 C 0.05108 0.53113 0.18466 0.0
C607 C 0.04218 0.5123 0.17746 0.0
C608 C 0.04076 0.49697 0.18531 0.0
C609 C 0.04832 0.50047 0.1999 0.0
C610 C 0.08393 0.50111 0.2485 0.0
C611 C 0.07502 0.48154 0.24286 0.0
C612 C 0.50996 0.59786 0.24767 0.0
C613 C 0.51101 0.60081 0.26301 0.0
C614 C 0.49948 0.58522 0.27098 0.0
C615 C 0.48683 0.56706 0.26371 0.0
H616 H 0.43715 0.51679 0.26869 0.0
H617 H 0.40862 0.49584 0.27997 0.0
H618 H 0.38389 0.46148 0.23848 0.0
H619 H 0.41262 0.48209 0.22725 0.0
H620 H 0.44236 0.4882 0.20254 0.0
H621 H 0.44758 0.48054 0.17771 0.0
H622 H 0.49147 0.54016 0.1764 0.0
H623 H 0.48668 0.5477 0.20124 0.0
H624 H 0.49699 0.57787 0.22856 0.0
H625 H 0.51881 0.60964 0.24129 0.0
H626 H 0.49998 0.58719 0.28282 0.0
H627 H 0.47797 0.55535 0.27014 0.0
N628 N 0.457 0.53205 0.24719 0.0
N629 N 0.44647 0.51042 0.22594 0.0
N630 N 0.47418 0.54052 0.22656 0.0
C631 C 0.4441 0.51475 0.23994 0.0
C632 C 0.46153 0.52322 0.2192 0.0
C633 C 0.47206 0.54501 0.24056 0.0
C634 C 0.42718 0.50123 0.24702 0.0
C635 C 0.4257 0.5047 0.26196 0.0
C636 C 0.40928 0.49274 0.26843 0.0
C637 C 0.3939 0.47708 0.26011 0.0
C638 C 0.39554 0.47329 0.24526 0.0
C639 C 0.41201 0.4852 0.2388 0.0
C640 C 0.46418 0.51854 0.20395 0.0
C641 C 0.45312 0.49968 0.19695 0.0
C642 C 0.45604 0.4953 0.18268 0.0
C643 C 0.47002 0.5097 0.17509 0.0
C644 C 0.48085 0.52861 0.18202 0.0
C645 C 0.47802 0.53296 0.19628 0.0
C646 C 0.48571 0.56409 0.24834 0.0
C647 C 0.49754 0.57964 0.24041 0.0
Tb648 Tb 0.52641 0.01459 0.99759 0.0
C649 C 0.51939 0.97554 0.0101 0.0
Tb650 Tb 0.48548 0.98281 0.00206 0.0
O651 O 0.53345 0.0217 0.02142 0.0
O652 O 0.506 0.01014 0.01237 0.0
O653 O 0.53115 0.99135 0.00389 0.0
C654 C 0.45389 0.95938 0.01383 0.0
O655 O 0.50148 0.97014 0.01125 0.0
C656 C 0.49529 0.98192 0.97539 0.0
C657 C 0.49261 0.02118 0.9896 0.0
O658 O 0.4707 0.96484 0.01948 0.0
O659 O 0.45485 0.96694 0.00148 0.0
O660 O 0.47793 0.97335 0.97849 0.0
O661 O 0.50562 0.98751 0.98721 0.0
O662 O 0.48284 0.00825 0.99886 0.0
O663 O 0.50897 0.0239 0.98567 0.0
C664 C 0.55865 0.03768 0.98631 0.0
O665 O 0.54854 0.04355 0.99289 0.0
O666 O 0.55065 0.01896 0.98617 0.0
C667 C 0.51604 0.0145 0.02426 0.0
Tb668 Tb 0.98906 0.51076 0.99655 0.0
C669 C 0.02866 0.5419 0.0106 0.0
Tb670 Tb 0.01659 0.49709 0.00634 0.0
O671 O 0.98771 0.51914 0.01941 0.0
O672 O 0.9926 0.49632 0.01409 0.0
O673 O 0.01441 0.5388 0.00125 0.0
C674 C 0.0401 0.4889 0.02112 0.0
O675 O 0.03066 0.52751 0.01542 0.0
C676 C 0.01347 0.5005 0.9783 0.0
C677 C 0.97663 0.46573 0.99247 0.0
O678 O 0.04441 0.50029 0.0106 0.0
O679 O 0.02259 0.48212 0.02328 0.0
O680 O 0.01804 0.48849 0.98361 0.0
O681 O 0.01282 0.5111 0.98865 0.0
O682 O 0.99171 0.46888 0.00078 0.0
O683 O 0.97363 0.4799 0.98868 0.0
C684 C 0.96532 0.51852 0.98157 0.0
O685 O 0.96358 0.51283 0.9947 0.0
O686 O 0.9805 0.51996 0.97689 0.0
C687 C 0.99178 0.50666 0.02454 0.0
Tb688 Tb 0.48083 0.49343 0.01104 0.0
C689 C 0.4845 0.46091 0.99388 0.0
Tb690 Tb 0.51985 0.50292 0.0019 0.0
O691 O 0.47079 0.49275 0.98826 0.0
O692 O 0.49908 0.50986 0.99558 0.0
O693 O 0.47558 0.4645 0.00416 0.0
C694 C 0.54865 0.5095 0.98638 0.0
O695 O 0.50081 0.47463 0.98987 0.0
C696 C 0.51308 0.49259 0.02851 0.0
C697 C 0.51637 0.53607 0.01914 0.0
O698 O 0.54258 0.49755 0.99651 0.0
O699 O 0.53868 0.51786 0.98514 0.0
O700 O 0.52987 0.50394 0.02469 0.0
O701 O 0.50151 0.48634 0.01734 0.0
O702 O 0.52726 0.53164 0.01155 0.0
O703 O 0.49841 0.52349 0.02062 0.0
C704 C 0.45162 0.4863 0.02621 0.0
O705 O 0.45101 0.48353 0.01207 0.0
O706 O 0.46873 0.49327 0.03183 0.0
C707 C 0.48757 0.50379 0.9844 0.0
Tb708 Tb 0.18669 0.34479 0.33467 0.0
C709 C 0.17794 0.30646 0.34819 0.0
Tb710 Tb 0.14654 0.31788 0.34301 0.0
O711 O 0.19793 0.35054 0.35763 0.0
O712 O 0.17043 0.34416 0.35215 0.0
O713 O 0.18829 0.31916 0.33903 0.0
C714 C 0.11528 0.29578 0.35569 0.0
O715 O 0.16246 0.3054 0.35277 0.0
C716 C 0.15071 0.31559 0.31496 0.0
C717 C 0.15498 0.35595 0.32902 0.0
O718 O 0.12319 0.28942 0.34684 0.0
O719 O 0.12513 0.31461 0.35762 0.0
O720 O 0.13468 0.31052 0.32005 0.0
O721 O 0.16265 0.31904 0.3255 0.0
O722 O 0.14407 0.34276 0.33768 0.0
O723 O 0.17111 0.3578 0.32524 0.0
C724 C 0.21799 0.36593 0.32159 0.0
O725 O 0.21069 0.37283 0.33063 0.0
O726 O 0.20776 0.34715 0.31998 0.0
C727 C 0.18219 0.34689 0.36265 0.0
Tb728 Tb 0.6503 0.83792 0.33255 0.0
C729 C 0.69104 0.86947 0.34495 0.0
Tb730 Tb 0.67739 0.82403 0.34252 0.0
O731 O 0.64916 0.84687 0.35525 0.0
O732 O 0.65369 0.82369 0.35042 0.0
O733 O 0.67552 0.86604 0.33713 0.0
C734 C 0.70071 0.81597 0.35778 0.0
O735 O 0.69427 0.8554 0.34867 0.0
C736 C 0.6751 0.82797 0.31447 0.0
C737 C 0.63666 0.79299 0.33054 0.0
O738 O 0.69543 0.82801 0.36233 0.0
O739 O 0.69292 0.80852 0.34465 0.0
O740 O 0.67981 0.81613 0.31982 0.0
O741 O 0.67416 0.83834 0.32481 0.0
O742 O 0.65082 0.79669 0.34024 0.0
O743 O 0.63491 0.80707 0.32488 0.0
C744 C 0.62734 0.8465 0.31734 0.0
O745 O 0.62546 0.84116 0.33058 0.0
O746 O 0.64208 0.84692 0.31264 0.0
C747 C 0.65324 0.83456 0.36067 0.0
Tb748 Tb 0.14505 0.82558 0.33757 0.0
C749 C 0.15404 0.79387 0.32549 0.0
Tb750 Tb 0.18488 0.83932 0.32849 0.0
O751 O 0.13387 0.81718 0.31455 0.0
O752 O 0.16104 0.84036 0.32038 0.0
O753 O 0.14215 0.79729 0.33253 0.0
C754 C 0.21377 0.84722 0.31265 0.0
O755 O 0.17084 0.8079 0.32247 0.0
C756 C 0.18086 0.83471 0.35644 0.0
C757 C 0.17614 0.87018 0.34171 0.0
O758 O 0.19625 0.83797 0.3076 0.0
O759 O 0.215 0.852 0.32659 0.0
O760 O 0.19674 0.84652 0.35146 0.0
O761 O 0.16904 0.82486 0.34579 0.0
O762 O 0.18572 0.86693 0.33183 0.0
O763 O 0.16133 0.85578 0.34699 0.0
C764 C 0.11496 0.81821 0.35155 0.0
O765 O 0.12082 0.82919 0.34081 0.0
O766 O 0.12595 0.8113 0.35432 0.0
C767 C 0.1495 0.82993 0.30977 0.0
Tb768 Tb 0.85365 0.68359 0.66573 0.0
C769 C 0.84914 0.649 0.68318 0.0
Tb770 Tb 0.81385 0.65379 0.67386 0.0
O771 O 0.86312 0.69376 0.68892 0.0
O772 O 0.8351 0.68237 0.68115 0.0
O773 O 0.85983 0.66246 0.67458 0.0
C774 C 0.78408 0.63218 0.68824 0.0
O775 O 0.83173 0.64474 0.68542 0.0
C776 C 0.82129 0.64908 0.64707 0.0
C777 C 0.81821 0.68813 0.65635 0.0
O778 O 0.78943 0.62576 0.67726 0.0
O779 O 0.79536 0.65069 0.69099 0.0
O780 O 0.80445 0.64383 0.65062 0.0
O781 O 0.8324 0.65501 0.6585 0.0
O782 O 0.80778 0.67507 0.66529 0.0
O783 O 0.83545 0.69206 0.65381 0.0
C784 C 0.88347 0.70506 0.65122 0.0
O785 O 0.87663 0.71187 0.66079 0.0
O786 O 0.87369 0.68626 0.65001 0.0
C787 C 0.84627 0.68833 0.69255 0.0
Tb788 Tb 0.3194 0.17435 0.6697 0.0
C789 C 0.358 0.20487 0.68603 0.0
Tb790 Tb 0.34695 0.16067 0.67948 0.0
O791 O 0.31604 0.18076 0.69244 0.0
O792 O 0.32237 0.15903 0.68686 0.0
O793 O 0.34418 0.20233 0.67642 0.0
C794 C 0.36972 0.15108 0.6937 0.0
O795 O 0.36016 0.19027 0.69009 0.0
C796 C 0.34573 0.1667 0.65168 0.0
C797 C 0.30857 0.13017 0.6629 0.0
O798 O 0.37456 0.16352 0.68389 0.0
O799 O 0.3521 0.14415 0.69557 0.0
O800 O 0.35031 0.1545 0.65658 0.0
O801 O 0.34392 0.17593 0.66241 0.0
O802 O 0.32253 0.13268 0.67231 0.0
O803 O 0.30616 0.14472 0.65916 0.0
C804 C 0.29584 0.18244 0.65495 0.0
O805 O 0.29134 0.17021 0.66488 0.0
O806 O 0.31363 0.19028 0.65344 0.0
C807 C 0.3206 0.16858 0.69743 0.0
Tb808 Tb 0.81876 0.16521 0.67241 0.0
C809 C 0.82744 0.13171 0.66215 0.0
Tb810 Tb 0.86001 0.17484 0.66675 0.0
O811 O 0.809 0.16516 0.6494 0.0
O812 O 0.83535 0.16993 0.65522 0.0
O813 O 0.81655 0.13663 0.66932 0.0
C814 C 0.89392 0.18907 0.65692 0.0
O815 O 0.84428 0.14456 0.65839 0.0
C816 C 0.8486 0.16445 0.69279 0.0
C817 C 0.85151 0.2089 0.67531 0.0
O818 O 0.89063 0.18907 0.67064 0.0
O819 O 0.87811 0.18087 0.64879 0.0
O820 O 0.86081 0.1611 0.6868 0.0
O821 O 0.84467 0.17441 0.68471 0.0
O822 O 0.86288 0.20366 0.66932 0.0
O823 O 0.83449 0.19627 0.67896 0.0
C824 C 0.78709 0.15365 0.68516 0.0
O825 O 0.79525 0.169 0.67799 0.0
O826 O 0.79695 0.14506 0.6854 0.0
C827 C 0.82474 0.1686 0.64442 0.0
H828 H 0.28936 0.8744 0.05772 0.0
H829 H 0.31925 0.89256 0.04702 0.0
H830 H 0.34798 0.88503 0.08458 0.0
H831 H 0.31807 0.86702 0.09544 0.0
H832 H 0.36856 0.92099 0.07549 0.0
H833 H 0.33666 0.85555 0.05343 0.0
H834 H 0.31005 0.82565 0.04081 0.0
H835 H 0.31051 0.85664 0.00372 0.0
H836 H 0.33696 0.8868 0.01622 0.0
H837 H 0.45081 0.94433 0.03998 0.0
H838 H 0.42222 0.92624 0.05251 0.0
H839 H 0.38975 0.93141 0.01639 0.0
H840 H 0.41822 0.9488 0.00367 0.0
H841 H 0.37186 0.89586 0.02566 0.0
H842 H 0.40395 0.96177 0.04845 0.0
H843 H 0.43199 0.99072 0.0607 0.0
H844 H 0.43221 0.95805 0.09639 0.0
H845 H 0.40439 0.92876 0.08425 0.0
C846 C 0.30207 0.87669 0.06372 0.0
C847 C 0.30138 0.86912 0.07733 0.0
C848 C 0.31912 0.88707 0.05761 0.0
C849 C 0.33579 0.88983 0.06488 0.0
C850 C 0.33528 0.88303 0.07877 0.0
C851 C 0.3182 0.87276 0.08496 0.0
C852 C 0.35349 0.89889 0.05759 0.0
C853 C 0.36936 0.91538 0.06467 0.0
C854 C 0.3545 0.89163 0.04343 0.0
C855 C 0.33869 0.87347 0.03582 0.0
C856 C 0.33101 0.85602 0.04263 0.0
C857 C 0.31596 0.83902 0.03549 0.0
C858 C 0.30857 0.83925 0.02149 0.0
C859 C 0.31624 0.85648 0.01458 0.0
C860 C 0.33127 0.87353 0.02168 0.0
C861 C 0.43749 0.9413 0.0347 0.0
C862 C 0.4366 0.94781 0.02093 0.0
C863 C 0.42124 0.93116 0.04187 0.0
C864 C 0.40391 0.92775 0.03547 0.0
C865 C 0.40298 0.93391 0.02153 0.0
C866 C 0.41922 0.94387 0.0143 0.0
C867 C 0.38679 0.91815 0.0434 0.0
C868 C 0.37105 0.90149 0.03647 0.0
C869 C 0.38599 0.9252 0.0577 0.0
C870 C 0.40213 0.94304 0.0654 0.0
C871 C 0.40999 0.96074 0.05891 0.0
C872 C 0.42588 0.9772 0.06582 0.0
C873 C 0.43391 0.9762 0.07931 0.0
C874 C 0.42599 0.95878 0.08595 0.0
C875 C 0.41015 0.94225 0.07906 0.0
H876 H 0.44624 0.98893 0.08463 0.0
H877 H 0.29692 0.82608 0.01598 0.0
H878 H 0.12593 0.41533 0.09029 0.0
H879 H 0.10499 0.4254 0.07918 0.0
H880 H 0.15256 0.47609 0.06523 0.0
H881 H 0.17372 0.46658 0.07692 0.0
H882 H 0.12831 0.48535 0.07591 0.0
H883 H 0.12451 0.43623 0.04111 0.0
H884 H 0.11974 0.4041 0.03261 0.0
H885 H 0.06331 0.37677 0.04514 0.0
H886 H 0.06783 0.40874 0.05391 0.0
H887 H 0.07792 0.50572 0.02016 0.0
H888 H 0.09904 0.49701 0.03319 0.0
H889 H 0.05211 0.45221 0.0529 0.0
H890 H 0.031 0.46107 0.0401 0.0
H891 H 0.07573 0.4401 0.03953 0.0
H892 H 0.07965 0.49029 0.07321 0.0
H893 H 0.0848 0.52285 0.08068 0.0
H894 H 0.14169 0.54872 0.06936 0.0
H895 H 0.13676 0.51634 0.06145 0.0
C896 C 0.13199 0.42875 0.08501 0.0
C897 C 0.15153 0.44013 0.08448 0.0
C898 C 0.11997 0.43438 0.07853 0.0
C899 C 0.12719 0.45136 0.07121 0.0
C900 C 0.14668 0.46288 0.07078 0.0
C901 C 0.15874 0.45732 0.07734 0.0
C902 C 0.11438 0.45704 0.06394 0.0
C903 C 0.11696 0.47555 0.06782 0.0
C904 C 0.09935 0.44411 0.05359 0.0
C905 C 0.09658 0.42487 0.0483 0.0
C906 C 0.11114 0.42336 0.04216 0.0
C907 C 0.10847 0.40518 0.03728 0.0
C908 C 0.09125 0.3884 0.03837 0.0
C909 C 0.07665 0.38978 0.04432 0.0
C910 C 0.07925 0.40792 0.04924 0.0
C911 C 0.07216 0.49408 0.02733 0.0
C912 C 0.05288 0.48402 0.02914 0.0
C913 C 0.08421 0.48916 0.03477 0.0
C914 C 0.07709 0.47401 0.044 0.0
C915 C 0.05782 0.46394 0.0458 0.0
C916 C 0.04582 0.46903 0.03853 0.0
C917 C 0.0897 0.46835 0.0515 0.0
C918 C 0.08707 0.44986 0.04765 0.0
C919 C 0.10475 0.48136 0.06177 0.0
C920 C 0.10777 0.50087 0.06658 0.0
C921 C 0.09321 0.50292 0.07215 0.0
C922 C 0.09609 0.52135 0.07649 0.0
C923 C 0.11356 0.53784 0.07549 0.0
C924 C 0.12817 0.53593 0.07012 0.0
C925 C 0.12533 0.51754 0.0657 0.0
H926 H 0.11578 0.55209 0.07889 0.0
H927 H 0.08921 0.37434 0.03458 0.0
H928 H 0.61125 0.71709 0.0667 0.0
H929 H 0.59842 0.68302 0.05769 0.0
H930 H 0.54489 0.67824 0.04587 0.0
H931 H 0.55748 0.71212 0.05515 0.0
H932 H 0.54141 0.64915 0.06181 0.0
H933 H 0.57223 0.67883 0.01961 0.0
H934 H 0.59871 0.70117 0.0062 0.0
H935 H 0.62997 0.67405 0.02003 0.0
H936 H 0.60377 0.65171 0.03371 0.0
H937 H 0.49736 0.55535 0.02389 0.0
H938 H 0.51036 0.58948 0.0322 0.0
H939 H 0.56587 0.59666 0.03715 0.0
H940 H 0.55295 0.56266 0.02797 0.0
H941 H 0.56828 0.625 0.0246 0.0
H942 H 0.54034 0.60026 0.07068 0.0
H943 H 0.5147 0.57924 0.08549 0.0
H944 H 0.47883 0.59738 0.06478 0.0
H945 H 0.50434 0.6187 0.05006 0.0
C946 C 0.59677 0.70879 0.06211 0.0
C947 C 0.58537 0.71727 0.06164 0.0
C948 C 0.58951 0.68939 0.05687 0.0
C949 C 0.57073 0.67815 0.05105 0.0
C950 C 0.55943 0.68669 0.0503 0.0
C951 C 0.56669 0.70609 0.05548 0.0
C952 C 0.56255 0.6572 0.04654 0.0
C953 C 0.54714 0.64386 0.05354 0.0
C954 C 0.57032 0.65031 0.03603 0.0
C955 C 0.5861 0.66372 0.0278 0.0
C956 C 0.58481 0.67774 0.0199 0.0
C957 C 0.59976 0.69038 0.01223 0.0
C958 C 0.61603 0.68907 0.01229 0.0
C959 C 0.61737 0.67507 0.02 0.0
C960 C 0.60246 0.6624 0.02771 0.0
C961 C 0.51231 0.56416 0.0269 0.0
C962 C 0.52415 0.55636 0.02529 0.0
C963 C 0.51974 0.58368 0.03182 0.0
C964 C 0.5391 0.59569 0.03565 0.0
C965 C 0.55089 0.58776 0.03429 0.0
C966 C 0.54351 0.56832 0.02905 0.0
C967 C 0.54722 0.61678 0.04003 0.0
C968 C 0.56259 0.63021 0.03295 0.0
C969 C 0.5395 0.6238 0.05054 0.0
C970 C 0.52408 0.61073 0.05912 0.0
C971 C 0.5269 0.59957 0.06921 0.0
C972 C 0.51245 0.5877 0.07763 0.0
C973 C 0.4951 0.58681 0.07596 0.0
C974 C 0.49224 0.59799 0.06601 0.0
C975 C 0.50671 0.61004 0.05769 0.0
H976 H 0.48392 0.57756 0.08245 0.0
H977 H 0.62759 0.69887 0.00634 0.0
H978 H 0.88711 0.28988 0.93539 0.0
H979 H 0.9077 0.32278 0.947 0.0
H980 H 0.86166 0.334 0.94404 0.0
H981 H 0.84103 0.30118 0.93217 0.0
H982 H 0.89464 0.36453 0.93587 0.0
H983 H 0.87417 0.32442 0.97598 0.0
H984 H 0.86864 0.29668 0.98992 0.0
H985 H 0.92772 0.31674 0.99381 0.0
H986 H 0.93357 0.34447 0.97969 0.0
H987 H 0.9399 0.45142 0.98282 0.0
H988 H 0.9173 0.41847 0.97242 0.0
H989 H 0.95951 0.4019 0.97843 0.0
H990 H 0.98195 0.43463 0.9894 0.0
H991 H 0.92721 0.37398 0.98524 0.0
H992 H 0.94778 0.41349 0.94447 0.0
H993 H 0.95371 0.44218 0.93162 0.0
H994 H 0.89499 0.42368 0.92909 0.0
H995 H 0.88872 0.39496 0.94211 0.0
C996 C 0.88141 0.29941 0.9371 0.0
C997 C 0.86244 0.29294 0.93292 0.0
C998 C 0.89315 0.31814 0.94381 0.0
C999 C 0.88614 0.33073 0.94649 0.0
C1000 C 0.86731 0.32446 0.9421 0.0
C1001 C 0.85552 0.30569 0.93545 0.0
C1002 C 0.89846 0.35036 0.95404 0.0
C1003 C 0.90159 0.36663 0.94674 0.0
C1004 C 0.90775 0.35304 0.96811 0.0
C1005 C 0.90428 0.33642 0.97666 0.0
C1006 C 0.88596 0.32284 0.9797 0.0
C1007 C 0.88278 0.30713 0.98765 0.0
C1008 C 0.89782 0.30492 0.99272 0.0
C1009 C 0.91608 0.31846 0.98986 0.0
C1010 C 0.91935 0.33418 0.9819 0.0
C1011 C 0.94433 0.44072 0.98199 0.0
C1012 C 0.96271 0.44561 0.98685 0.0
C1013 C 0.93142 0.42192 0.97599 0.0
C1014 C 0.93682 0.40781 0.97436 0.0
C1015 C 0.95505 0.41256 0.97954 0.0
C1016 C 0.96786 0.43127 0.98579 0.0
C1017 C 0.92362 0.38821 0.96702 0.0
C1018 C 0.92028 0.37193 0.97437 0.0
C1019 C 0.91423 0.38554 0.95297 0.0
C1020 C 0.91781 0.40218 0.94439 0.0
C1021 C 0.93613 0.41554 0.94118 0.0
C1022 C 0.93956 0.43183 0.9339 0.0
C1023 C 0.92475 0.43482 0.92964 0.0
C1024 C 0.90644 0.42137 0.93245 0.0
C1025 C 0.90294 0.40507 0.93976 0.0
H1026 H 0.92746 0.44754 0.92417 0.0
H1027 H 0.89532 0.29275 0.99887 0.0
H1028 H 0.69002 0.52264 0.92405 0.0
H1029 H 0.66172 0.51457 0.93624 0.0
H1030 H 0.66349 0.56642 0.92263 0.0
H1031 H 0.69232 0.57508 0.911 0.0
H1032 H 0.65613 0.56276 0.95003 0.0
H1033 H 0.63209 0.52134 0.90594 0.0
H1034 H 0.62852 0.49692 0.88648 0.0
H1035 H 0.61235 0.45408 0.91761 0.0
H1036 H 0.61612 0.47834 0.93734 0.0
H1037 H 0.56301 0.53541 0.96588 0.0
H1038 H 0.58978 0.54222 0.95179 0.0
H1039 H 0.59606 0.49827 0.97266 0.0
H1040 H 0.56936 0.49149 0.9869 0.0
H1041 H 0.59863 0.49791 0.94114 0.0
H1042 H 0.62419 0.54184 0.9853 0.0
H1043 H 0.62615 0.56691 0.00342 0.0
H1044 H 0.63765 0.60593 0.96976 0.0
H1045 H 0.63548 0.58097 0.95139 0.0
C1046 C 0.6845 0.53243 0.92376 0.0
C1047 C 0.69346 0.54951 0.91654 0.0
C1048 C 0.66818 0.52767 0.93059 0.0
C1049 C 0.66033 0.53975 0.93019 0.0
C1050 C 0.66925 0.55684 0.92303 0.0
C1051 C 0.68564 0.56167 0.91627 0.0
C1052 C 0.64308 0.53481 0.93756 0.0
C1053 C 0.64348 0.54867 0.94789 0.0
C1054 C 0.62663 0.51634 0.93494 0.0
C1055 C 0.62463 0.50175 0.92317 0.0
C1056 C 0.62802 0.50679 0.90869 0.0
C1057 C 0.6259 0.49295 0.8976 0.0
C1058 C 0.62028 0.47398 0.90082 0.0
C1059 C 0.61674 0.46879 0.91514 0.0
C1060 C 0.61885 0.48258 0.92628 0.0
C1061 C 0.57011 0.5272 0.96745 0.0
C1062 C 0.56432 0.51308 0.97757 0.0
C1063 C 0.58534 0.53109 0.9594 0.0
C1064 C 0.59494 0.52085 0.96132 0.0
C1065 C 0.58881 0.50632 0.97108 0.0
C1066 C 0.57366 0.50253 0.97923 0.0
C1067 C 0.61181 0.52583 0.95353 0.0
C1068 C 0.61133 0.51196 0.9432 0.0
C1069 C 0.62806 0.54442 0.9559 0.0
C1070 C 0.62947 0.55947 0.96695 0.0
C1071 C 0.62697 0.55571 0.98174 0.0
C1072 C 0.62815 0.56991 0.99206 0.0
C1073 C 0.63197 0.58798 0.98774 0.0
C1074 C 0.63466 0.59191 0.97309 0.0
C1075 C 0.63347 0.57775 0.96272 0.0
H1076 H 0.63288 0.59896 0.99574 0.0
H1077 H 0.61861 0.46328 0.89221 0.0
H1078 H 0.42982 0.13647 0.96213 0.0
H1079 H 0.44099 0.11574 0.97198 0.0
H1080 H 0.45514 0.10561 0.92899 0.0
H1081 H 0.44422 0.12648 0.91908 0.0
H1082 H 0.43574 0.07212 0.94195 0.0
H1083 H 0.48912 0.13568 0.95515 0.0
H1084 H 0.5056 0.16947 0.96634 0.0
H1085 H 0.4895 0.1493 0.00868 0.0
H1086 H 0.47269 0.11538 0.99771 0.0
H1087 H 0.49712 0.03592 0.963 0.0
H1088 H 0.48532 0.05657 0.95378 0.0
H1089 H 0.46078 0.05518 0.99447 0.0
H1090 H 0.47199 0.03402 0.00358 0.0
H1091 H 0.48514 0.09425 0.98328 0.0
H1092 H 0.43143 0.03158 0.97074 0.0
H1093 H 0.41279 0.99765 0.96005 0.0
H1094 H 0.42827 0.01593 0.91717 0.0
H1095 H 0.44731 0.05001 0.92766 0.0
C1096 C 0.43554 0.13004 0.95481 0.0
C1097 C 0.43611 0.13311 0.93982 0.0
C1098 C 0.44187 0.11817 0.96045 0.0
C1099 C 0.449 0.10925 0.95122 0.0
C1100 C 0.44963 0.11232 0.93628 0.0
C1101 C 0.44332 0.12419 0.93063 0.0
C1102 C 0.45538 0.09632 0.95705 0.0
C1103 C 0.44675 0.07705 0.95083 0.0
C1104 C 0.46933 0.10261 0.96895 0.0
C1105 C 0.47949 0.123 0.97558 0.0
C1106 C 0.48896 0.13845 0.96683 0.0
C1107 C 0.49839 0.15763 0.97314 0.0
C1108 C 0.49855 0.16153 0.98821 0.0
C1109 C 0.48933 0.14626 0.99701 0.0
C1110 C 0.47987 0.12705 0.99075 0.0
C1111 C 0.48919 0.04003 0.96995 0.0
C1112 C 0.48548 0.03347 0.984 0.0
C1113 C 0.48243 0.05172 0.96467 0.0
C1114 C 0.47224 0.05735 0.97348 0.0
C1115 C 0.46864 0.05095 0.98755 0.0
C1116 C 0.47498 0.03885 0.99269 0.0
C1117 C 0.4656 0.07019 0.96806 0.0
C1118 C 0.47419 0.0894 0.97436 0.0
C1119 C 0.45156 0.06385 0.95629 0.0
C1120 C 0.44099 0.04332 0.95001 0.0
C1121 C 0.43114 0.02835 0.95907 0.0
C1122 C 0.42042 0.0091 0.95304 0.0
C1123 C 0.41931 0.00465 0.93794 0.0
C1124 C 0.4291 0.01942 0.92886 0.0
C1125 C 0.43989 0.0387 0.93485 0.0
H1126 H 0.4108 0.98976 0.93329 0.0
H1127 H 0.50586 0.17639 0.99307 0.0
H1128 H 0.71159 0.11225 0.92304 0.0
H1129 H 0.68157 0.09336 0.93343 0.0
H1130 H 0.67579 0.14423 0.93794 0.0
H1131 H 0.70578 0.16318 0.92754 0.0
H1132 H 0.66878 0.1261 0.96271 0.0
H1133 H 0.64824 0.10692 0.91124 0.0
H1134 H 0.64942 0.09452 0.88632 0.0
H1135 H 0.64059 0.04129 0.90257 0.0
H1136 H 0.63943 0.05343 0.92761 0.0
H1137 H 0.57473 0.07636 0.98251 0.0
H1138 H 0.60302 0.09611 0.97008 0.0
H1139 H 0.60975 0.04617 0.96208 0.0
H1140 H 0.58127 0.02636 0.97408 0.0
H1141 H 0.61577 0.06462 0.93845 0.0
H1142 H 0.63687 0.08318 0.98965 0.0
H1143 H 0.63662 0.09519 0.01494 0.0
H1144 H 0.64569 0.14909 -0.00011 0.0
H1145 H 0.64575 0.13729 0.97446 0.0
C1146 C 0.70379 0.11934 0.92604 0.0
C1147 C 0.71108 0.13922 0.92449 0.0
C1148 C 0.68664 0.10853 0.93199 0.0
C1149 C 0.67636 0.11735 0.93636 0.0
C1150 C 0.6835 0.13714 0.93467 0.0
C1151 C 0.70066 0.14796 0.92877 0.0
C1152 C 0.65853 0.10615 0.94324 0.0
C1153 C 0.65706 0.11282 0.95732 0.0
C1154 C 0.64345 0.08856 0.93636 0.0
C1155 C 0.64389 0.08114 0.9213 0.0
C1156 C 0.64664 0.09261 0.9095 0.0
C1157 C 0.64728 0.08562 0.89536 0.0
C1158 C 0.64516 0.06717 0.89288 0.0
C1159 C 0.6423 0.05562 0.90452 0.0
C1160 C 0.64158 0.06251 0.91868 0.0
C1161 C 0.58233 0.06968 0.97813 0.0
C1162 C 0.57594 0.04991 0.97931 0.0
C1163 C 0.59849 0.08095 0.97107 0.0
C1164 C 0.60865 0.07267 0.96528 0.0
C1165 C 0.60216 0.05288 0.96643 0.0
C1166 C 0.58595 0.0416 0.97336 0.0
C1167 C 0.62603 0.08452 0.95799 0.0
C1168 C 0.62743 0.07797 0.94383 0.0
C1169 C 0.64112 0.10213 0.96486 0.0
C1170 C 0.64111 0.10927 0.98014 0.0
C1171 C 0.63866 0.09753 0.99172 0.0
C1172 C 0.63858 0.10431 0.00608 0.0
C1173 C 0.64108 0.12287 0.00902 0.0
C1174 C 0.64372 0.1347 0.9976 0.0
C1175 C 0.64379 0.12798 0.98321 0.0
H1176 H 0.64101 0.12809 0.02014 0.0
H1177 H 0.64566 0.06178 0.88192 0.0
H1178 H 0.83336 0.54741 0.93502 0.0
H1179 H 0.8566 0.5409 0.94669 0.0
H1180 H 0.88161 0.54578 0.90576 0.0
H1181 H 0.85763 0.55109 0.89372 0.0
H1182 H 0.88095 0.51705 0.91881 0.0
H1183 H 0.90123 0.58328 0.93373 0.0
H1184 H 0.89846 0.6109 0.94392 0.0
H1185 H 0.88657 0.58631 0.98534 0.0
H1186 H 0.889 0.55839 0.97533 0.0
H1187 H 0.96621 0.528 0.95332 0.0
H1188 H 0.94363 0.53409 0.93956 0.0
H1189 H 0.91175 0.52355 0.97733 0.0
H1190 H 0.9343 0.51757 0.99112 0.0
H1191 H 0.91743 0.55631 0.96487 0.0
H1192 H 0.89761 0.48952 0.94871 0.0
H1193 H 0.9022 0.46339 0.9378 0.0
H1194 H 0.91544 0.49114 0.89768 0.0
H1195 H 0.91133 0.51759 0.90844 0.0
C1196 C 0.84357 0.54677 0.92839 0.0
C1197 C 0.8436 0.54986 0.9134 0.0
C1198 C 0.85705 0.54331 0.93515 0.0
C1199 C 0.87111 0.54324 0.92718 0.0
C1200 C 0.87099 0.54591 0.91216 0.0
C1201 C 0.85737 0.54916 0.90533 0.0
C1202 C 0.88599 0.54053 0.93459 0.0
C1203 C 0.8891 0.52582 0.92877 0.0
C1204 C 0.89656 0.55186 0.94765 0.0
C1205 C 0.89513 0.56865 0.95373 0.0
C1206 C 0.89788 0.58369 0.94498 0.0
C1207 C 0.8964 0.59941 0.95073 0.0
C1208 C 0.8923 0.60033 0.96526 0.0
C1209 C 0.88972 0.58556 0.97408 0.0
C1210 C 0.89117 0.56979 0.96838 0.0
C1211 C 0.95438 0.52702 0.95866 0.0
C1212 C 0.95194 0.52234 0.97325 0.0
C1213 C 0.94147 0.53041 0.95078 0.0
C1214 C 0.92595 0.52912 0.9574 0.0
C1215 C 0.92364 0.52461 0.97203 0.0
C1216 C 0.93648 0.52116 0.97987 0.0
C1217 C 0.91215 0.53268 0.94922 0.0
C1218 C 0.90929 0.54759 0.95489 0.0
C1219 C 0.90203 0.52172 0.93593 0.0
C1220 C 0.90435 0.50565 0.92944 0.0
C1221 C 0.90167 0.49013 0.93761 0.0
C1222 C 0.90418 0.47525 0.93144 0.0
C1223 C 0.90918 0.47563 0.91707 0.0
C1224 C 0.91164 0.49086 0.90882 0.0
C1225 C 0.90922 0.5058 0.91495 0.0
H1226 H 0.91108 0.46408 0.91231 0.0
H1227 H 0.89116 0.61252 0.96969 0.0
H1228 H 0.45426 0.29417 0.94347 0.0
H1229 H 0.46441 0.32741 0.95301 0.0
H1230 H 0.40686 0.31123 0.95828 0.0
H1231 H 0.3966 0.27799 0.94832 0.0
H1232 H 0.42354 0.34447 0.94697 0.0
H1233 H 0.43867 0.31883 0.98805 0.0
H1234 H 0.45244 0.30216 0.00139 0.0
H1235 H 0.50759 0.34561 0.99204 0.0
H1236 H 0.49413 0.36241 0.97846 0.0
H1237 H 0.44883 0.43038 0.99435 0.0
H1238 H 0.43669 0.3966 0.98479 0.0
H1239 H 0.49069 0.41196 0.96979 0.0
H1240 H 0.50289 0.44577 0.97912 0.0
H1241 H 0.47478 0.379 0.98691 0.0
H1242 H 0.45835 0.40403 0.94534 0.0
H1243 H 0.44376 0.42062 0.93299 0.0
H1244 H 0.38968 0.37779 0.94484 0.0
H1245 H 0.40401 0.36111 0.95747 0.0
C1246 C 0.4438 0.29767 0.94682 0.0
C1247 C 0.42467 0.2835 0.94527 0.0
C1248 C 0.44961 0.31666 0.95228 0.0
C1249 C 0.43643 0.32177 0.9566 0.0
C1250 C 0.41728 0.30763 0.95504 0.0
C1251 C 0.41144 0.28866 0.94938 0.0
C1252 C 0.44266 0.34198 0.96245 0.0
C1253 C 0.43453 0.35189 0.95586 0.0
C1254 C 0.4572 0.3518 0.97392 0.0
C1255 C 0.46537 0.34178 0.98213 0.0
C1256 C 0.45373 0.32475 0.98874 0.0
C1257 C 0.46148 0.3153 0.99637 0.0
C1258 C 0.48087 0.3228 0.99753 0.0
C1259 C 0.49257 0.33981 0.99111 0.0
C1260 C 0.48489 0.34931 0.98347 0.0
C1261 C 0.45809 0.42659 0.98894 0.0
C1262 C 0.47682 0.44073 0.9875 0.0
C1263 C 0.45112 0.40732 0.98347 0.0
C1264 C 0.46282 0.40187 0.97661 0.0
C1265 C 0.48148 0.41594 0.97508 0.0
C1266 C 0.48838 0.43525 0.98035 0.0
C1267 C 0.45576 0.38138 0.97134 0.0
C1268 C 0.46373 0.37146 0.97806 0.0
C1269 C 0.44093 0.3715 0.96015 0.0
C1270 C 0.43228 0.38144 0.95248 0.0
C1271 C 0.44337 0.39825 0.94543 0.0
C1272 C 0.43514 0.40765 0.93836 0.0
C1273 C 0.41581 0.40029 0.93817 0.0
C1274 C 0.40466 0.38349 0.94502 0.0
C1275 C 0.41283 0.37405 0.95212 0.0
H1276 H 0.40947 0.40759 0.93269 0.0
H1277 H 0.48685 0.31545 0.00344 0.0
H1278 H 0.15406 0.69854 0.08235 0.0
H1279 H 0.13194 0.66667 0.06971 0.0
H1280 H 0.12038 0.69424 0.03459 0.0
H1281 H 0.14258 0.72628 0.04723 0.0
H1282 H 0.08788 0.66396 0.04546 0.0
H1283 H 0.14588 0.67484 0.028 0.0
H1284 H 0.17903 0.68319 0.03041 0.0
H1285 H 0.16494 0.63484 0.05595 0.0
H1286 H 0.13173 0.62636 0.05389 0.0
H1287 H 0.0335 0.57556 0.00021 0.0
H1288 H 0.05694 0.60886 0.0093 0.0
H1289 H 0.07896 0.58727 0.04253 0.0
H1290 H 0.05592 0.55398 0.03328 0.0
H1291 H 0.10673 0.61575 0.03082 0.0
H1292 H 0.05001 0.60595 0.0503 0.0
H1293 H 0.01681 0.59738 0.04925 0.0
H1294 H 0.02823 0.64323 0.02159 0.0
H1295 H 0.06148 0.65191 0.02232 0.0
C1296 C 0.1468 0.6978 0.07194 0.0
C1297 C 0.14998 0.71484 0.06576 0.0
C1298 C 0.13427 0.67961 0.0647 0.0
C1299 C 0.12463 0.67814 0.0512 0.0
C1300 C 0.12774 0.69512 0.04499 0.0
C1301 C 0.14047 0.71336 0.05216 0.0
C1302 C 0.11099 0.65878 0.0438 0.0
C1303 C 0.092 0.65351 0.042 0.0
C1304 C 0.11638 0.64505 0.03968 0.0
C1305 C 0.13634 0.65006 0.04089 0.0
C1306 C 0.14987 0.66608 0.03424 0.0
C1307 C 0.16867 0.67082 0.03552 0.0
C1308 C 0.17409 0.65958 0.04336 0.0
C1309 C 0.16072 0.64354 0.0499 0.0
C1310 C 0.1419 0.63875 0.04866 0.0
C1311 C 0.04332 0.57789 0.00946 0.0
C1312 C 0.0428 0.5621 0.01604 0.0
C1313 C 0.05668 0.59695 0.01467 0.0
C1314 C 0.06958 0.60058 0.02671 0.0
C1315 C 0.06918 0.58483 0.03321 0.0
C1316 C 0.05595 0.56579 0.02792 0.0
C1317 C 0.08351 0.62076 0.0326 0.0
C1318 C 0.10257 0.62622 0.03415 0.0
C1319 C 0.07815 0.63459 0.03665 0.0
C1320 C 0.05818 0.62944 0.03623 0.0
C1321 C 0.04541 0.61411 0.0439 0.0
C1322 C 0.02659 0.60925 0.04338 0.0
C1323 C 0.0204 0.61972 0.03532 0.0
C1324 C 0.03304 0.63511 0.02781 0.0
C1325 C 0.05187 0.64002 0.02828 0.0
H1326 H 0.00583 0.61594 0.03493 0.0
H1327 H 0.18865 0.66327 0.04433 0.0
H1328 H 0.31674 0.44565 0.11055 0.0
H1329 H 0.34663 0.45454 0.10047 0.0
H1330 H 0.31859 0.43709 0.05674 0.0
H1331 H 0.28862 0.42765 0.06675 0.0
H1332 H 0.34298 0.42412 0.06088 0.0
H1333 H 0.34361 0.48473 0.06974 0.0
H1334 H 0.34179 0.51018 0.08482 0.0
H1335 H 0.38904 0.51947 0.1133 0.0
H1336 H 0.39099 0.49387 0.09849 0.0
H1337 H 0.41546 0.47114 0.0152 0.0
H1338 H 0.38791 0.46138 0.02888 0.0
H1339 H 0.42313 0.47992 0.06965 0.0
H1340 H 0.45087 0.48983 0.05593 0.0
H1341 H 0.39673 0.49156 0.06935 0.0
H1342 H 0.39779 0.43286 0.05936 0.0
H1343 H 0.3999 0.40772 0.04414 0.0
H1344 H 0.34973 0.39476 0.01793 0.0
H1345 H 0.34746 0.42005 0.03286 0.0
C1346 C 0.31692 0.44352 0.0988 0.0
C1347 C 0.30033 0.43602 0.08944 0.0
C1348 C 0.33403 0.44876 0.09306 0.0
C1349 C 0.33486 0.44666 0.07785 0.0
C1350 C 0.31827 0.43888 0.06851 0.0
C1351 C 0.30119 0.43365 0.07423 0.0
C1352 C 0.35298 0.45269 0.07156 0.0
C1353 C 0.35468 0.43891 0.06263 0.0
C1354 C 0.36844 0.47183 0.07423 0.0
C1355 C 0.36731 0.48724 0.08311 0.0
C1356 C 0.35352 0.49209 0.07929 0.0
C1357 C 0.35248 0.50656 0.08777 0.0
C1358 C 0.36526 0.5164 0.10004 0.0
C1359 C 0.37913 0.51182 0.10381 0.0
C1360 C 0.38021 0.49734 0.09538 0.0
C1361 C 0.41733 0.47319 0.02707 0.0
C1362 C 0.43523 0.4812 0.03454 0.0
C1363 C 0.40159 0.46754 0.03487 0.0
C1364 C 0.40346 0.4697 0.05027 0.0
C1365 C 0.4214 0.47809 0.05777 0.0
C1366 C 0.43719 0.48373 0.04994 0.0
C1367 C 0.38656 0.46309 0.05843 0.0
C1368 C 0.3851 0.47673 0.06772 0.0
C1369 C 0.37132 0.44381 0.05612 0.0
C1370 C 0.37254 0.42847 0.04717 0.0
C1371 C 0.38728 0.42476 0.05029 0.0
C1372 C 0.38849 0.41046 0.04172 0.0
C1373 C 0.37498 0.39968 0.03006 0.0
C1374 C 0.36019 0.40314 0.02696 0.0
C1375 C 0.35892 0.41744 0.03548 0.0
H1376 H 0.37594 0.38861 0.02343 0.0
H1377 H 0.36444 0.5276 0.10659 0.0
H1378 H 0.55924 0.84733 0.05034 0.0
H1379 H 0.54871 0.86796 0.03937 0.0
H1380 H 0.59046 0.9173 0.06769 0.0
H1381 H 0.60138 0.8969 0.07851 0.0
H1382 H 0.55588 0.91427 0.06712 0.0
H1383 H 0.59754 0.91356 0.03273 0.0
H1384 H 0.60987 0.89842 0.01583 0.0
H1385 H 0.55721 0.86999 0.98936 0.0
H1386 H 0.54447 0.88476 0.00623 0.0
H1387 H 0.55485 0.98106 0.00945 0.0
H1388 H 0.56701 0.96149 0.01986 0.0
H1389 H 0.51274 0.92296 0.03441 0.0
H1390 H 0.50031 0.94228 0.0239 0.0
H1391 H 0.55519 0.92211 0.01374 0.0
H1392 H 0.52261 0.91151 0.06954 0.0
H1393 H 0.51345 0.92865 0.08757 0.0
H1394 H 0.55194 0.98323 0.07189 0.0
H1395 H 0.56159 0.96648 0.05396 0.0
C1396 C 0.56637 0.86263 0.0541 0.0
C1397 C 0.58118 0.87047 0.0653 0.0
C1398 C 0.56028 0.87437 0.04786 0.0
C1399 C 0.56887 0.89415 0.05269 0.0
C1400 C 0.5836 0.90203 0.06387 0.0
C1401 C 0.58977 0.89033 0.07007 0.0
C1402 C 0.56235 0.9066 0.0462 0.0
C1403 C 0.55567 0.91595 0.05544 0.0
C1404 C 0.56235 0.90897 0.03101 0.0
C1405 C 0.57 0.90012 0.02082 0.0
C1406 C 0.58854 0.90396 0.02338 0.0
C1407 C 0.59561 0.89546 0.01379 0.0
C1408 C 0.58432 0.88321 0.00155 0.0
C1409 C 0.56594 0.87947 0.99886 0.0
C1410 C 0.55879 0.88791 0.00842 0.0
C1411 C 0.54543 0.96839 0.01481 0.0
C1412 C 0.52662 0.96333 0.01593 0.0
C1413 C 0.55242 0.95722 0.02073 0.0
C1414 C 0.54081 0.94094 0.02801 0.0
C1415 C 0.52196 0.93563 0.02896 0.0
C1416 C 0.5149 0.94668 0.02293 0.0
C1417 C 0.54845 0.92952 0.03463 0.0
C1418 C 0.55529 0.92033 0.0254 0.0
C1419 C 0.5488 0.92749 0.04987 0.0
C1420 C 0.54268 0.93769 0.0603 0.0
C1421 C 0.52913 0.92717 0.06995 0.0
C1422 C 0.52392 0.93682 0.08019 0.0
C1423 C 0.5322 0.95702 0.08093 0.0
C1424 C 0.54558 0.96759 0.07133 0.0
C1425 C 0.55089 0.95801 0.06109 0.0
H1426 H 0.52816 0.96446 0.08888 0.0
H1427 H 0.58982 0.87665 0.99414 0.0
H1428 H 0.94622 0.20611 0.38883 0.0
H1429 H 0.97722 0.22353 0.37957 0.0
H1430 H 0.00069 0.20762 0.41587 0.0
H1431 H 0.96982 0.19068 0.42535 0.0
H1432 H 0.02338 0.2432 0.41188 0.0
H1433 H 0.99132 0.18443 0.38053 0.0
H1434 H 0.96566 0.15878 0.36365 0.0
H1435 H 0.97422 0.20037 0.33259 0.0
H1436 H -0.00022 0.22633 0.34938 0.0
H1437 H 0.09788 0.25678 0.35771 0.0
H1438 H 0.06826 0.23648 0.36846 0.0
H1439 H 0.06293 0.28689 0.37837 0.0
H1440 H 0.09237 0.30718 0.36742 0.0
H1441 H 0.0325 0.23137 0.36003 0.0
H1442 H 0.04668 0.2813 0.41363 0.0
H1443 H 0.07226 0.30161 0.43284 0.0
H1444 H 0.10082 0.27079 0.42144 0.0
H1445 H 0.07542 0.2503 0.4022 0.0
C1446 C 0.95803 0.20635 0.3948 0.0
C1447 C 0.95568 0.19706 0.40778 0.0
C1448 C 0.9757 0.21622 0.38948 0.0
C1449 C 0.99124 0.21662 0.3969 0.0
C1450 C 0.98892 0.20752 0.40997 0.0
C1451 C 0.97131 0.19788 0.41539 0.0
C1452 C 0.00996 0.22672 0.39113 0.0
C1453 C 0.02534 0.24062 0.40053 0.0
C1454 C 0.01267 0.22294 0.37644 0.0
C1455 C 0.99736 0.20735 0.36628 0.0
C1456 C 0.98765 0.18813 0.37015 0.0
C1457 C 0.97313 0.17353 0.36059 0.0
C1458 C 0.96829 0.17795 0.34707 0.0
C1459 C 0.97798 0.19697 0.34307 0.0
C1460 C 0.99249 0.21163 0.3526 0.0
C1461 C 0.09035 0.26349 0.36219 0.0
C1462 C 0.09746 0.28354 0.36198 0.0
C1463 C 0.07352 0.25192 0.36834 0.0
C1464 C 0.06366 0.2603 0.37443 0.0
C1465 C 0.07057 0.28027 0.37397 0.0
C1466 C 0.0873 0.2918 0.3677 0.0
C1467 C 0.04569 0.24813 0.3807 0.0
C1468 C 0.03047 0.23391 0.37137 0.0
C1469 C 0.04325 0.25117 0.39557 0.0
C1470 C 0.05923 0.2644 0.40637 0.0
C1471 C 0.05847 0.27893 0.41518 0.0
C1472 C 0.07289 0.29041 0.42612 0.0
C1473 C 0.0881 0.28742 0.42841 0.0
C1474 C 0.089 0.27305 0.41968 0.0
C1475 C 0.07467 0.26161 0.40868 0.0
H1476 H 0.09927 0.29633 0.43687 0.0
H1477 H 0.95705 0.16663 0.33969 0.0
H1478 H 0.81306 0.76027 0.40687 0.0
H1479 H 0.78948 0.76636 0.39504 0.0
H1480 H 0.8004 0.80957 0.43042 0.0
H1481 H 0.8237 0.80313 0.44246 0.0
H1482 H 0.76413 0.78896 0.42289 0.0
H1483 H 0.81877 0.82229 0.39697 0.0
H1484 H 0.84521 0.82602 0.38332 0.0
H1485 H 0.8066 0.78351 0.34939 0.0
H1486 H 0.77992 0.77931 0.36295 0.0
H1487 H 0.72013 0.8331 0.3842 0.0
H1488 H 0.74263 0.82657 0.39761 0.0
H1489 H 0.73252 0.78219 0.36356 0.0
H1490 H 0.71057 0.78915 0.34991 0.0
H1491 H 0.76875 0.80441 0.37096 0.0
H1492 H 0.71372 0.77215 0.39791 0.0
H1493 H 0.68833 0.77116 0.41163 0.0
H1494 H 0.72906 0.81463 0.44404 0.0
H1495 H 0.7547 0.81614 0.43037 0.0
C1496 C 0.81043 0.77108 0.41209 0.0
C1497 C 0.82029 0.78135 0.42551 0.0
C1498 C 0.79698 0.77457 0.40534 0.0
C1499 C 0.7934 0.78869 0.41171 0.0
C1500 C 0.80294 0.79864 0.42528 0.0
C1501 C 0.81624 0.79497 0.43215 0.0
C1502 C 0.77997 0.79327 0.40406 0.0
C1503 C 0.76525 0.79255 0.41159 0.0
C1504 C 0.78133 0.79781 0.38927 0.0
C1505 C 0.79735 0.80036 0.38105 0.0
C1506 C 0.81592 0.81363 0.38665 0.0
C1507 C 0.83095 0.81585 0.37892 0.0
C1508 C 0.82759 0.80497 0.36552 0.0
C1509 C 0.80918 0.7919 0.35979 0.0
C1510 C 0.7941 0.78961 0.36749 0.0
C1511 C 0.72276 0.82196 0.37964 0.0
C1512 C 0.71372 0.81164 0.36607 0.0
C1513 C 0.73548 0.81817 0.38732 0.0
C1514 C 0.73907 0.80374 0.38169 0.0
C1515 C 0.72995 0.79338 0.36812 0.0
C1516 C 0.7174 0.79731 0.36036 0.0
C1517 C 0.75272 0.79977 0.38969 0.0
C1518 C 0.76756 0.80072 0.38225 0.0
C1519 C 0.75157 0.79571 0.4046 0.0
C1520 C 0.73614 0.79435 0.41305 0.0
C1521 C 0.71726 0.78155 0.40793 0.0
C1522 C 0.70283 0.78091 0.41569 0.0
C1523 C 0.70709 0.79286 0.42868 0.0
C1524 C 0.72579 0.80538 0.43398 0.0
C1525 C 0.74028 0.80614 0.42623 0.0
H1526 H 0.6959 0.7924 0.43465 0.0
H1527 H 0.83925 0.80671 0.35955 0.0
H1528 H 0.25181 0.0529 0.38625 0.0
H1529 H 0.24231 0.02103 0.37377 0.0
H1530 H 0.19792 0.99389 0.40239 0.0
H1531 H 0.20766 0.02562 0.41507 0.0
H1532 H 0.21499 0.97399 0.39992 0.0
H1533 H 0.1898 0.00098 0.36597 0.0
H1534 H 0.19084 0.02542 0.35001 0.0
H1535 H 0.2301 0.01919 0.32452 0.0
H1536 H 0.22948 0.99489 0.34046 0.0
H1537 H 0.15961 0.88233 0.36142 0.0
H1538 H 0.17051 0.91543 0.37161 0.0
H1539 H 0.21735 0.93689 0.34501 0.0
H1540 H 0.20642 0.90373 0.33454 0.0
H1541 H 0.20067 0.9599 0.34593 0.0
H1542 H 0.22482 0.93197 0.38016 0.0
H1543 H 0.22162 0.90613 0.39552 0.0
H1544 H 0.18202 0.91315 0.41997 0.0
H1545 H 0.18494 0.93896 0.40475 0.0
C1546 C 0.23996 0.04011 0.38978 0.0
C1547 C 0.23046 0.04168 0.40161 0.0
C1548 C 0.23452 0.02193 0.38265 0.0
C1549 C 0.21927 0.00507 0.38704 0.0
C1550 C 0.20976 0.00667 0.39884 0.0
C1551 C 0.21533 0.02479 0.40607 0.0
C1552 C 0.21331 0.98568 0.37955 0.0
C1553 C 0.21169 0.97091 0.38813 0.0
C1554 C 0.20938 0.9817 0.36412 0.0
C1555 C 0.20974 0.99628 0.3545 0.0
C1556 C 0.19876 0.00494 0.35703 0.0
C1557 C 0.19926 0.01874 0.34798 0.0
C1558 C 0.21057 0.0239 0.33629 0.0
C1559 C 0.22137 0.01521 0.3336 0.0
C1560 C 0.22094 0.00141 0.34263 0.0
C1561 C 0.17217 0.89406 0.35764 0.0
C1562 C 0.18223 0.89036 0.34724 0.0
C1563 C 0.1784 0.91297 0.36351 0.0
C1564 C 0.19487 0.92853 0.35921 0.0
C1565 C 0.20463 0.92503 0.34849 0.0
C1566 C 0.19839 0.90608 0.34257 0.0
C1567 C 0.20218 0.94833 0.36634 0.0
C1568 C 0.2041 0.96312 0.3577 0.0
C1569 C 0.20625 0.95232 0.38172 0.0
C1570 C 0.20506 0.93735 0.39129 0.0
C1571 C 0.21544 0.928 0.38883 0.0
C1572 C 0.21369 0.91337 0.39752 0.0
C1573 C 0.20169 0.90805 0.40876 0.0
C1574 C 0.19142 0.91736 0.41134 0.0
C1575 C 0.19315 0.93203 0.40271 0.0
H1576 H 0.20036 0.89672 0.41545 0.0
H1577 H 0.21093 0.03459 0.32929 0.0
H1578 H 0.53634 0.60998 0.28665 0.0
H1579 H 0.55778 0.64225 0.29906 0.0
H1580 H 0.53557 0.66748 0.26914 0.0
H1581 H 0.51464 0.63534 0.25643 0.0
H1582 H 0.57146 0.68913 0.27259 0.0
H1583 H 0.52354 0.65994 0.30563 0.0
H1584 H 0.50301 0.63493 0.32129 0.0
H1585 H 0.55131 0.64323 0.34781 0.0
H1586 H 0.57215 0.66812 0.33218 0.0
H1587 H 0.60535 0.78005 0.3116 0.0
H1588 H 0.58373 0.7468 0.30148 0.0
H1589 H 0.61436 0.72651 0.32763 0.0
H1590 H 0.6361 0.75984 0.338 0.0
H1591 H 0.57524 0.70242 0.32655 0.0
H1592 H 0.62284 0.73345 0.29295 0.0
H1593 H 0.64183 0.75995 0.27775 0.0
H1594 H 0.59184 0.74909 0.25234 0.0
H1595 H 0.57253 0.72275 0.26753 0.0
C1596 C 0.53605 0.62245 0.28279 0.0
C1597 C 0.52387 0.62024 0.27062 0.0
C1598 C 0.54823 0.64086 0.2899 0.0
C1599 C 0.54811 0.65729 0.28518 0.0
C1600 C 0.53595 0.65505 0.27298 0.0
C1601 C 0.52401 0.63671 0.26573 0.0
C1602 C 0.56077 0.67689 0.29279 0.0
C1603 C 0.5721 0.69203 0.28436 0.0
C1604 C 0.5619 0.68068 0.30821 0.0
C1605 C 0.5494 0.66575 0.31764 0.0
C1606 C 0.52979 0.65632 0.31473 0.0
C1607 C 0.5181 0.64219 0.32361 0.0
C1608 C 0.52585 0.63745 0.33551 0.0
C1609 C 0.54532 0.64689 0.33858 0.0
C1610 C 0.55708 0.66102 0.32972 0.0
C1611 C 0.60744 0.76854 0.31535 0.0
C1612 C 0.62257 0.77263 0.32552 0.0
C1613 C 0.59507 0.74954 0.30951 0.0
C1614 C 0.59766 0.73429 0.31364 0.0
C1615 C 0.61221 0.73814 0.32427 0.0
C1616 C 0.62463 0.75719 0.33015 0.0
C1617 C 0.58567 0.7145 0.30631 0.0
C1618 C 0.57457 0.69939 0.31478 0.0
C1619 C 0.58453 0.71078 0.29091 0.0
C1620 C 0.59622 0.7262 0.28145 0.0
C1621 C 0.61589 0.73676 0.28415 0.0
C1622 C 0.62672 0.75176 0.27554 0.0
C1623 C 0.61805 0.75621 0.26409 0.0
C1624 C 0.59855 0.74563 0.2612 0.0
C1625 C 0.58765 0.73065 0.2698 0.0
H1626 H 0.62645 0.76783 0.25745 0.0
H1627 H 0.51678 0.62651 0.34238 0.0
H1628 H 0.34641 0.86323 0.23229 0.0
H1629 H 0.31633 0.85207 0.24274 0.0
H1630 H 0.34483 0.89245 0.28098 0.0
H1631 H 0.37497 0.90322 0.27077 0.0
H1632 H 0.31779 0.85713 0.28821 0.0
H1633 H 0.31899 0.90477 0.25383 0.0
H1634 H 0.32447 0.9161 0.22899 0.0
H1635 H 0.28477 0.8585 0.20999 0.0
H1636 H 0.2789 0.84698 0.23475 0.0
H1637 H 0.25074 0.87001 0.32156 0.0
H1638 H 0.27744 0.8749 0.30827 0.0
H1639 H 0.23966 0.8372 0.27151 0.0
H1640 H 0.2128 0.83291 0.28464 0.0
H1641 H 0.269 0.86601 0.26161 0.0
H1642 H 0.26092 0.82094 0.29635 0.0
H1643 H 0.25635 0.80756 0.32044 0.0
H1644 H 0.30948 0.85573 0.33808 0.0
H1645 H 0.31426 0.86955 0.31414 0.0
C1646 C 0.34621 0.86972 0.24291 0.0
C1647 C 0.36297 0.88416 0.25069 0.0
C1648 C 0.32903 0.86339 0.24885 0.0
C1649 C 0.3283 0.8717 0.26252 0.0
C1650 C 0.34507 0.88586 0.27041 0.0
C1651 C 0.36226 0.892 0.26458 0.0
C1652 C 0.31009 0.86605 0.26854 0.0
C1653 C 0.30716 0.85919 0.28248 0.0
C1654 C 0.29591 0.86794 0.26078 0.0
C1655 C 0.29841 0.87509 0.24605 0.0
C1656 C 0.3113 0.89462 0.24433 0.0
C1657 C 0.3145 0.90105 0.23029 0.0
C1658 C 0.30496 0.88803 0.21792 0.0
C1659 C 0.29213 0.86857 0.21957 0.0
C1660 C 0.28875 0.86212 0.2336 0.0
C1661 C 0.24814 0.86286 0.31061 0.0
C1662 C 0.22976 0.85091 0.30418 0.0
C1663 C 0.26339 0.86555 0.30305 0.0
C1664 C 0.26058 0.85597 0.28904 0.0
C1665 C 0.24219 0.84458 0.28236 0.0
C1666 C 0.22688 0.8421 0.28987 0.0
C1667 C 0.27691 0.8577 0.28165 0.0
C1668 C 0.27947 0.86375 0.26739 0.0
C1669 C 0.29063 0.85465 0.28904 0.0
C1670 C 0.28788 0.84635 0.30346 0.0
C1671 C 0.27158 0.82875 0.30539 0.0
C1672 C 0.26895 0.82108 0.31901 0.0
C1673 C 0.2826 0.83081 0.33079 0.0
C1674 C 0.29892 0.84821 0.32895 0.0
C1675 C 0.3016 0.85596 0.31535 0.0
H1676 H 0.28054 0.82485 0.34133 0.0
H1677 H 0.30751 0.89301 0.20706 0.0
H1678 H 0.0715 0.43954 0.26939 0.0
H1679 H 0.0811 0.41822 0.28067 0.0
H1680 H 0.13913 0.4601 0.27652 0.0
H1681 H 0.12963 0.48151 0.26534 0.0
H1682 H 0.12827 0.42031 0.26784 0.0
H1683 H 0.12437 0.45974 0.30803 0.0
H1684 H 0.10842 0.47325 0.32246 0.0
H1685 H 0.06571 0.41567 0.33006 0.0
H1686 H 0.08128 0.4018 0.31548 0.0
H1687 H 0.17543 0.38867 0.31509 0.0
H1688 H 0.16426 0.40823 0.3033 0.0
H1689 H 0.10867 0.3708 0.31622 0.0
H1690 H 0.11986 0.35149 0.32844 0.0
H1691 H 0.11678 0.40701 0.31977 0.0
H1692 H 0.12061 0.367 0.2813 0.0
H1693 H 0.13577 0.35242 0.26713 0.0
H1694 H 0.1764 0.40868 0.25526 0.0
H1695 H 0.16178 0.42372 0.26975 0.0
C1696 C 0.08627 0.44408 0.27078 0.0
C1697 C 0.09985 0.46216 0.26658 0.0
C1698 C 0.09173 0.43196 0.27725 0.0
C1699 C 0.11081 0.43768 0.27946 0.0
C1700 C 0.12435 0.45548 0.27489 0.0
C1701 C 0.11892 0.46771 0.26861 0.0
C1702 C 0.11676 0.42543 0.287 0.0
C1703 C 0.12595 0.41752 0.27923 0.0
C1704 C 0.11319 0.4214 0.30171 0.0
C1705 C 0.10387 0.42973 0.31053 0.0
C1706 C 0.11149 0.44995 0.31267 0.0
C1707 C 0.10253 0.45768 0.32089 0.0
C1708 C 0.08603 0.44532 0.32714 0.0
C1709 C 0.07847 0.42522 0.3252 0.0
C1710 C 0.08736 0.41742 0.31696 0.0
C1711 C 0.16084 0.38465 0.3155 0.0
C1712 C 0.14851 0.36847 0.32265 0.0
C1713 C 0.15446 0.39579 0.30868 0.0
C1714 C 0.13554 0.39075 0.30862 0.0
C1715 C 0.12331 0.37492 0.31608 0.0
C1716 C 0.12974 0.36389 0.32306 0.0
C1717 C 0.1285 0.40192 0.30068 0.0
C1718 C 0.11906 0.40965 0.30835 0.0
C1719 C 0.13163 0.40554 0.2858 0.0
C1720 C 0.14021 0.39652 0.27676 0.0
C1721 C 0.13286 0.3763 0.27576 0.0
C1722 C 0.14136 0.36795 0.26766 0.0
C1723 C 0.15707 0.37962 0.26031 0.0
C1724 C 0.16425 0.39967 0.26099 0.0
C1725 C 0.15587 0.40812 0.26916 0.0
H1726 H 0.16372 0.37317 0.25411 0.0
H1727 H 0.07912 0.45133 0.33351 0.0
H1728 H 0.37693 0.48963 0.27921 0.0
H1729 H 0.34714 0.47027 0.28967 0.0
H1730 H 0.34012 0.41842 0.26624 0.0
H1731 H 0.37016 0.43764 0.25591 0.0
H1732 H 0.3084 0.4219 0.26334 0.0
H1733 H 0.35209 0.42629 0.30232 0.0
H1734 H 0.37979 0.44335 0.32033 0.0
H1735 H 0.35586 0.47475 0.34064 0.0
H1736 H 0.32813 0.45807 0.32262 0.0
H1737 H 0.23267 0.35306 0.30083 0.0
H1738 H 0.26218 0.37213 0.28969 0.0
H1739 H 0.27164 0.4239 0.31499 0.0
H1740 H 0.24219 0.40485 0.32619 0.0
H1741 H 0.3023 0.42034 0.31691 0.0
H1742 H 0.25966 0.41784 0.27879 0.0
H1743 H 0.23307 0.40452 0.25975 0.0
H1744 H 0.255 0.37244 0.23746 0.0
H1745 H 0.2816 0.38533 0.25649 0.0
C1746 C 0.36924 0.47406 0.27646 0.0
C1747 C 0.37599 0.46517 0.26676 0.0
C1748 C 0.35217 0.46304 0.28241 0.0
C1749 C 0.34152 0.44291 0.27881 0.0
C1750 C 0.34815 0.43396 0.26913 0.0
C1751 C 0.36528 0.44497 0.26321 0.0
C1752 C 0.32321 0.4313 0.28486 0.0
C1753 C 0.30705 0.42122 0.27505 0.0
C1754 C 0.32148 0.43109 0.30014 0.0
C1755 C 0.33811 0.44105 0.31104 0.0
C1756 C 0.3528 0.43694 0.31056 0.0
C1757 C 0.3685 0.44652 0.32078 0.0
C1758 C 0.36961 0.46016 0.3316 0.0
C1759 C 0.355 0.4642 0.33225 0.0
C1760 C 0.33927 0.45467 0.32204 0.0
C1761 C 0.24102 0.36853 0.30394 0.0
C1762 C 0.23528 0.37752 0.31441 0.0
C1763 C 0.25779 0.37941 0.29751 0.0
C1764 C 0.26905 0.39944 0.30146 0.0
C1765 C 0.26317 0.40845 0.3118 0.0
C1766 C 0.24636 0.39759 0.31817 0.0
C1767 C 0.2874 0.41082 0.29538 0.0
C1768 C 0.30359 0.42087 0.30519 0.0
C1769 C 0.28913 0.41119 0.28009 0.0
C1770 C 0.27255 0.40243 0.26914 0.0
C1771 C 0.25868 0.40773 0.26994 0.0
C1772 C 0.24368 0.40036 0.25911 0.0
C1773 C 0.24246 0.3878 0.24735 0.0
C1774 C 0.25607 0.38231 0.24652 0.0
C1775 C 0.27109 0.38961 0.25734 0.0
H1776 H 0.23088 0.38216 0.23895 0.0
H1777 H 0.38177 0.46756 0.33951 0.0
H1778 H 0.53166 0.89865 0.23347 0.0
H1779 H 0.5539 0.89014 0.2445 0.0
H1780 H 0.53374 0.89133 0.28687 0.0
H1781 H 0.51219 0.90083 0.27608 0.0
H1782 H 0.57041 0.90771 0.28963 0.0
H1783 H 0.51956 0.84827 0.26532 0.0
H1784 H 0.49767 0.82683 0.24442 0.0
H1785 H 0.54406 0.83342 0.22108 0.0
H1786 H 0.56625 0.85513 0.24177 0.0
H1787 H 0.59913 0.85069 0.32762 0.0
H1788 H 0.57997 0.86171 0.3146 0.0
H1789 H 0.60914 0.86628 0.27591 0.0
H1790 H 0.62846 0.85533 0.28894 0.0
H1791 H 0.56989 0.84816 0.27016 0.0
H1792 H 0.62053 0.90626 0.29568 0.0
H1793 H 0.64177 0.92673 0.31718 0.0
H1794 H 0.59479 0.92162 0.33889 0.0
H1795 H 0.57323 0.90087 0.31759 0.0
C1796 C 0.53216 0.8974 0.24517 0.0
C1797 C 0.52004 0.90031 0.25387 0.0
C1798 C 0.54473 0.89231 0.25144 0.0
C1799 C 0.54526 0.88976 0.26647 0.0
C1800 C 0.53351 0.8931 0.27523 0.0
C1801 C 0.52105 0.89834 0.26901 0.0
C1802 C 0.55789 0.88344 0.27312 0.0
C1803 C 0.57015 0.89459 0.28545 0.0
C1804 C 0.55789 0.86655 0.26747 0.0
C1805 C 0.54457 0.8535 0.25502 0.0
C1806 C 0.5251 0.84527 0.25568 0.0
C1807 C 0.51264 0.83305 0.24388 0.0
C1808 C 0.51947 0.82881 0.23141 0.0
C1809 C 0.53878 0.83675 0.23073 0.0
C1810 C 0.55131 0.849 0.24249 0.0
C1811 C 0.6014 0.85398 0.31632 0.0
C1812 C 0.61527 0.85225 0.30927 0.0
C1813 C 0.59051 0.86032 0.30892 0.0
C1814 C 0.5933 0.86499 0.29436 0.0
C1815 C 0.60684 0.8628 0.28716 0.0
C1816 C 0.61785 0.8566 0.29461 0.0
C1817 C 0.58212 0.8723 0.28673 0.0
C1818 C 0.5702 0.86135 0.27425 0.0
C1819 C 0.58231 0.88928 0.29229 0.0
C1820 C 0.59525 0.90187 0.30508 0.0
C1821 C 0.61471 0.90937 0.30508 0.0
C1822 C 0.62681 0.92105 0.31723 0.0
C1823 C 0.61963 0.92544 0.32941 0.0
C1824 C 0.60033 0.9182 0.32945 0.0
C1825 C 0.58817 0.90649 0.31734 0.0
H1826 H 0.62902 0.93448 0.3388 0.0
H1827 H 0.5098 0.81934 0.22229 0.0
H1828 H 0.07384 0.61415 0.27606 0.0
H1829 H 0.08392 0.64669 0.28737 0.0
H1830 H 0.14182 0.66149 0.28685 0.0
H1831 H 0.13177 0.62878 0.27582 0.0
H1832 H 0.13698 0.67614 0.31166 0.0
H1833 H 0.12077 0.67572 0.26066 0.0
H1834 H 0.10069 0.66385 0.23732 0.0
H1835 H 0.05951 0.67355 0.25687 0.0
H1836 H 0.07923 0.68523 0.28041 0.0
H1837 H 0.17632 0.77949 0.31667 0.0
H1838 H 0.16646 0.74586 0.30827 0.0
H1839 H 0.10912 0.72872 0.31515 0.0
H1840 H 0.1188 0.76221 0.32366 0.0
H1841 H 0.11395 0.71551 0.2874 0.0
H1842 H 0.13161 0.71688 0.33852 0.0
H1843 H 0.15289 0.72966 0.36124 0.0
H1844 H 0.193 0.71937 0.34045 0.0
H1845 H 0.17207 0.70679 0.31751 0.0
C1846 C 0.08871 0.62435 0.2784 0.0
C1847 C 0.10204 0.61903 0.27497 0.0
C1848 C 0.09446 0.64293 0.28483 0.0
C1849 C 0.11364 0.65665 0.2877 0.0
C1850 C 0.12696 0.65116 0.28471 0.0
C1851 C 0.12121 0.63249 0.27842 0.0
C1852 C 0.1198 0.67686 0.29344 0.0
C1853 C 0.13212 0.68482 0.30625 0.0
C1854 C 0.11327 0.68812 0.2865 0.0
C1855 C 0.1014 0.68116 0.27234 0.0
C1856 C 0.10737 0.67519 0.26002 0.0
C1857 C 0.09606 0.66851 0.24675 0.0
C1858 C 0.07881 0.6679 0.24563 0.0
C1859 C 0.07286 0.674 0.25777 0.0
C1860 C 0.0841 0.68067 0.27107 0.0
C1861 C 0.16162 0.76856 0.31646 0.0
C1862 C 0.14834 0.77351 0.32086 0.0
C1863 C 0.15604 0.74936 0.31171 0.0
C1864 C 0.1371 0.73486 0.31117 0.0
C1865 C 0.12382 0.73974 0.31553 0.0
C1866 C 0.1294 0.75887 0.32044 0.0
C1867 C 0.13101 0.71468 0.30561 0.0
C1868 C 0.11875 0.70677 0.2928 0.0
C1869 C 0.13778 0.7036 0.31245 0.0
C1870 C 0.15035 0.71108 0.32625 0.0
C1871 C 0.14504 0.71751 0.33875 0.0
C1872 C 0.15703 0.72468 0.35167 0.0
C1873 C 0.17431 0.72538 0.35227 0.0
C1874 C 0.17962 0.71885 0.33996 0.0
C1875 C 0.16769 0.71168 0.327 0.0
H1876 H 0.18357 0.73094 0.36229 0.0
H1877 H 0.07008 0.66273 0.23534 0.0
H1878 H 0.82558 0.03815 0.39854 0.0
H1879 H 0.80511 0.00481 0.3878 0.0
H1880 H 0.75857 0.01525 0.3839 0.0
H1881 H 0.77896 0.04853 0.39496 0.0
H1882 H 0.7477 0.98181 0.39429 0.0
H1883 H 0.78184 0.01287 0.35378 0.0
H1884 H 0.80986 0.03245 0.34076 0.0
H1885 H 0.82846 0.99159 0.34749 0.0
H1886 H 0.80067 0.97189 0.36073 0.0
H1887 H 0.687 0.90134 0.34401 0.0
H1888 H 0.70943 0.93462 0.35372 0.0
H1889 H 0.74935 0.91718 0.36699 0.0
H1890 H 0.72689 0.88364 0.35744 0.0
H1891 H 0.76392 0.95344 0.35187 0.0
H1892 H 0.72863 0.92245 0.39241 0.0
H1893 H 0.69941 0.90277 0.40408 0.0
H1894 H 0.68195 0.94415 0.39575 0.0
H1895 H 0.71094 0.96393 0.38381 0.0
C1896 C 0.81102 0.03337 0.39525 0.0
C1897 C 0.80384 0.04592 0.39751 0.0
C1898 C 0.79934 0.01433 0.3891 0.0
C1899 C 0.78036 0.00759 0.38485 0.0
C1900 C 0.77318 0.02013 0.3871 0.0
C1901 C 0.7848 0.03911 0.39341 0.0
C1902 C 0.76786 0.98732 0.37843 0.0
C1903 C 0.75118 0.97573 0.3849 0.0
C1904 C 0.77254 0.97921 0.36635 0.0
C1905 C 0.78926 0.99101 0.35838 0.0
C1906 C 0.79198 0.00814 0.35259 0.0
C1907 C 0.80781 0.01924 0.34515 0.0
C1908 C 0.82096 0.01329 0.34334 0.0
C1909 C 0.81828 0.99619 0.34893 0.0
C1910 C 0.80248 0.98505 0.35639 0.0
C1911 C 0.70059 0.90455 0.34886 0.0
C1912 C 0.70515 0.88982 0.34995 0.0
C1913 C 0.71336 0.92357 0.35443 0.0
C1914 C 0.73094 0.92825 0.36108 0.0
C1915 C 0.73582 0.91377 0.36184 0.0
C1916 C 0.72295 0.89464 0.35642 0.0
C1917 C 0.7439 0.94818 0.36771 0.0
C1918 C 0.7606 0.95963 0.36128 0.0
C1919 C 0.73916 0.95625 0.3797 0.0
C1920 C 0.72186 0.94456 0.38709 0.0
C1921 C 0.71848 0.92726 0.39296 0.0
C1922 C 0.70198 0.9161 0.39963 0.0
C1923 C 0.68881 0.92217 0.40062 0.0
C1924 C 0.69215 0.93945 0.39496 0.0
C1925 C 0.70862 0.95065 0.38825 0.0
H1926 H 0.67604 0.9135 0.40579 0.0
H1927 H 0.8332 0.02191 0.33758 0.0
H1928 H 0.97395 0.80998 0.41176 0.0
H1929 H 0.00146 0.8166 0.39886 0.0
H1930 H 0.00383 0.76981 0.41855 0.0
H1931 H 0.97607 0.76278 0.43128 0.0
H1932 H 0.03895 0.8033 0.41899 0.0
H1933 H 0.98581 0.76223 0.38442 0.0
H1934 H 0.95596 0.75253 0.36996 0.0
H1935 H 0.98246 0.80547 0.34881 0.0
H1936 H 0.01243 0.81562 0.3633 0.0
H1937 H 0.10009 0.79321 0.37254 0.0
H1938 H 0.07327 0.78732 0.38617 0.0
H1939 H 0.06696 0.82965 0.36276 0.0
H1940 H 0.09341 0.83507 0.34875 0.0
H1941 H 0.03397 0.79876 0.36454 0.0
H1942 H 0.08724 0.84 0.3987 0.0
H1943 H 0.11743 0.84962 0.41263 0.0
H1944 H 0.09125 0.79718 0.43439 0.0
H1945 H 0.06093 0.78711 0.42047 0.0
C1946 C 0.98021 0.80097 0.41327 0.0
C1947 C 0.97272 0.78576 0.42248 0.0
C1948 C 0.99599 0.80486 0.40595 0.0
C1949 C 0.00456 0.7936 0.40769 0.0
C1950 C 0.99742 0.7787 0.41712 0.0
C1951 C 0.98159 0.77474 0.4244 0.0
C1952 C 0.02068 0.79704 0.39934 0.0
C1953 C 0.03785 0.80212 0.40708 0.0
C1954 C 0.01929 0.79589 0.38383 0.0
C1955 C 0.00131 0.78977 0.37505 0.0
C1956 C 0.98523 0.77187 0.37677 0.0
C1957 C 0.9683 0.76628 0.36856 0.0
C1958 C 0.9673 0.7784 0.3585 0.0
C1959 C 0.98325 0.79611 0.35661 0.0
C1960 C 0.00021 0.80179 0.36482 0.0
C1961 C 0.09292 0.8012 0.37029 0.0
C1962 C 0.09875 0.81459 0.35963 0.0
C1963 C 0.07769 0.79793 0.37814 0.0
C1964 C 0.0683 0.80828 0.37565 0.0
C1965 C 0.07404 0.82154 0.36488 0.0
C1966 C 0.08914 0.82465 0.35691 0.0
C1967 C 0.05234 0.80512 0.38415 0.0
C1968 C 0.03516 0.80006 0.37645 0.0
C1969 C 0.05378 0.80641 0.39969 0.0
C1970 C 0.07184 0.81273 0.40845 0.0
C1971 C 0.08793 0.83049 0.40642 0.0
C1972 C 0.10505 0.83601 0.4143 0.0
C1973 C 0.10623 0.82397 0.42433 0.0
C1974 C 0.09028 0.80646 0.4266 0.0
C1975 C 0.07312 0.80085 0.41873 0.0
H1976 H 0.11949 0.82821 0.43034 0.0
H1977 H 0.95418 0.77404 0.35215 0.0
H1978 H 0.25228 0.20334 0.3856 0.0
H1979 H 0.24142 0.22342 0.37395 0.0
H1980 H 0.20861 0.21895 0.41028 0.0
H1981 H 0.21921 0.19874 0.42188 0.0
H1982 H 0.18875 0.21199 0.38326 0.0
H1983 H 0.24872 0.25968 0.40801 0.0
H1984 H 0.2829 0.27511 0.414 0.0
H1985 H 0.292 0.28535 0.36879 0.0
H1986 H 0.25783 0.26972 0.36249 0.0
H1987 H 0.16661 0.28548 0.37199 0.0
H1988 H 0.17781 0.26484 0.38183 0.0
H1989 H 0.21455 0.27723 0.34707 0.0
H1990 H 0.20378 0.29835 0.3374 0.0
H1991 H 0.23259 0.27944 0.37207 0.0
H1992 H 0.17327 0.23297 0.34705 0.0
H1993 H 0.13918 0.21731 0.3405 0.0
H1994 H 0.12877 0.20407 0.38508 0.0
H1995 H 0.16282 0.21989 0.39196 0.0
C1996 C 0.24273 0.20663 0.39107 0.0
C1997 C 0.23666 0.19957 0.40467 0.0
C1998 C 0.23662 0.21816 0.38445 0.0
C1999 C 0.2243 0.22273 0.39131 0.0
C2000 C 0.21814 0.2156 0.40483 0.0
C2001 C 0.22433 0.20421 0.41149 0.0
C2002 C 0.21764 0.23481 0.38437 0.0
C2003 C 0.19829 0.22681 0.38094 0.0
C2004 C 0.23017 0.25391 0.38098 0.0
C2005 C 0.25071 0.26334 0.38476 0.0
C2006 C 0.258 0.26506 0.39932 0.0
C2007 C 0.27737 0.27388 0.40278 0.0
C2008 C 0.28961 0.28115 0.39178 0.0
C2009 C 0.2825 0.27967 0.3773 0.0
C2010 C 0.26314 0.27085 0.37378 0.0
C2011 C 0.17697 0.2837 0.36638 0.0
C2012 C 0.18424 0.29346 0.35387 0.0
C2013 C 0.18333 0.27185 0.37199 0.0
C2014 C 0.19682 0.26925 0.36506 0.0
C2015 C 0.20411 0.27901 0.35259 0.0
C2016 C 0.19791 0.29103 0.34705 0.0
C2017 C 0.20362 0.2567 0.37104 0.0
C2018 C 0.223 0.26458 0.37429 0.0
C2019 C 0.19111 0.23741 0.37415 0.0
C2020 C 0.17061 0.22777 0.37004 0.0
C2021 C 0.16372 0.22684 0.35548 0.0
C2022 C 0.1444 0.21792 0.35171 0.0
C2023 C 0.13182 0.20974 0.36237 0.0
C2024 C 0.13853 0.21043 0.37683 0.0
C2025 C 0.15784 0.21935 0.38067 0.0
H2026 H 0.11687 0.20284 0.35943 0.0
H2027 H 0.3046 0.28797 0.39448 0.0
H2028 H 0.64114 0.55472 0.76483 0.0
H2029 H 0.67108 0.57478 0.7548 0.0
H2030 H 0.66326 0.5249 0.72778 0.0
H2031 H 0.63383 0.50448 0.7384 0.0
H2032 H 0.69852 0.54579 0.7386 0.0
H2033 H 0.6539 0.55922 0.71401 0.0
H2034 H 0.62979 0.56888 0.7122 0.0
H2035 H 0.66871 0.6246 0.73464 0.0
H2036 H 0.69299 0.61516 0.73676 0.0
H2037 H 0.75882 0.59354 0.68302 0.0
H2038 H 0.73161 0.57413 0.6966 0.0
H2039 H 0.74588 0.62489 0.72557 0.0
H2040 H 0.77302 0.64436 0.71197 0.0
H2041 H 0.70873 0.60473 0.71536 0.0
H2042 H 0.75548 0.59138 0.73461 0.0
H2043 H 0.77839 0.58029 0.73494 0.0
H2044 H 0.73476 0.52247 0.7198 0.0
H2045 H 0.71147 0.53322 0.71926 0.0
C2046 C 0.64589 0.54792 0.75692 0.0
C2047 C 0.63498 0.52796 0.75237 0.0
C2048 C 0.66294 0.55947 0.75108 0.0
C2049 C 0.66929 0.55141 0.74038 0.0
C2050 C 0.65862 0.53146 0.736 0.0
C2051 C 0.64166 0.51985 0.74194 0.0
C2052 C 0.68679 0.56382 0.73344 0.0
C2053 C 0.70069 0.55854 0.73333 0.0
C2054 C 0.68977 0.58072 0.7269 0.0
C2055 C 0.67518 0.5864 0.72569 0.0
C2056 C 0.65726 0.57347 0.71867 0.0
C2057 C 0.64358 0.57892 0.71757 0.0
C2058 C 0.64769 0.59732 0.72334 0.0
C2059 C 0.66553 0.61033 0.7302 0.0
C2060 C 0.67926 0.60495 0.73135 0.0
C2061 C 0.75614 0.6005 0.6923 0.0
C2062 C 0.7679 0.62039 0.69645 0.0
C2063 C 0.74067 0.58942 0.70006 0.0
C2064 C 0.73685 0.59808 0.71213 0.0
C2065 C 0.74862 0.61797 0.71628 0.0
C2066 C 0.76408 0.62904 0.70853 0.0
C2067 C 0.72031 0.58648 0.72023 0.0
C2068 C 0.70662 0.59199 0.72063 0.0
C2069 C 0.71743 0.56959 0.72674 0.0
C2070 C 0.7316 0.56317 0.72691 0.0
C2071 C 0.75067 0.57631 0.73129 0.0
C2072 C 0.76378 0.57007 0.73152 0.0
C2073 C 0.75805 0.55068 0.72739 0.0
C2074 C 0.73918 0.53749 0.72302 0.0
C2075 C 0.726 0.54366 0.72279 0.0
H2076 H 0.76822 0.54587 0.72757 0.0
H2077 H 0.63708 0.60151 0.72247 0.0
H2078 H 0.49792 0.1133 0.73363 0.0
H2079 H 0.47686 0.12467 0.72512 0.0
H2080 H 0.4307 0.07657 0.74297 0.0
H2081 H 0.45153 0.06459 0.75095 0.0
H2082 H 0.41992 0.08204 0.71674 0.0
H2083 H 0.45266 0.12231 0.76082 0.0
H2084 H 0.48021 0.14443 0.77789 0.0
H2085 H 0.49992 0.18666 0.74621 0.0
H2086 H 0.47261 0.16466 0.72886 0.0
H2087 H 0.35981 0.12217 0.71183 0.0
H2088 H 0.37967 0.11016 0.72221 0.0
H2089 H 0.42677 0.15347 0.70165 0.0
H2090 H 0.40694 0.16548 0.69121 0.0
H2091 H 0.43599 0.14996 0.73051 0.0
H2092 H 0.40346 0.10841 0.68612 0.0
H2093 H 0.37541 0.08617 0.66954 0.0
H2094 H 0.35473 0.04618 0.70274 0.0
H2095 H 0.38256 0.06833 0.7196 0.0
C2096 C 0.48323 0.10495 0.73555 0.0
C2097 C 0.47642 0.08805 0.74301 0.0
C2098 C 0.47126 0.11162 0.73085 0.0
C2099 C 0.45228 0.10167 0.73365 0.0
C2100 C 0.44533 0.08456 0.74079 0.0
C2101 C 0.45728 0.07781 0.74544 0.0
C2102 C 0.43971 0.10911 0.72906 0.0
C2103 C 0.4233 0.0968 0.71994 0.0
C2104 C 0.44425 0.12846 0.73307 0.0
C2105 C 0.46067 0.14175 0.74349 0.0
C2106 C 0.46294 0.13625 0.75745 0.0
C2107 C 0.47851 0.14878 0.76718 0.0
C2108 C 0.49183 0.16692 0.76312 0.0
C2109 C 0.4896 0.17259 0.74933 0.0
C2110 C 0.47407 0.1601 0.73955 0.0
C2111 C 0.37442 0.12915 0.70959 0.0
C2112 C 0.38188 0.14465 0.70068 0.0
C2113 C 0.38571 0.12226 0.71547 0.0
C2114 C 0.40461 0.13082 0.71256 0.0
C2115 C 0.4122 0.14667 0.704 0.0
C2116 C 0.40088 0.15347 0.69803 0.0
C2117 C 0.41641 0.12296 0.7181 0.0
C2118 C 0.43263 0.13518 0.7274 0.0
C2119 C 0.41164 0.10351 0.71434 0.0
C2120 C 0.39499 0.09011 0.70417 0.0
C2121 C 0.39286 0.09494 0.68993 0.0
C2122 C 0.37701 0.08234 0.68047 0.0
C2123 C 0.36327 0.0648 0.6851 0.0
C2124 C 0.36537 0.05979 0.69918 0.0
C2125 C 0.38119 0.07235 0.70868 0.0
H2126 H 0.35101 0.05506 0.67776 0.0
H2127 H 0.50387 0.1766 0.77067 0.0
H2128 H 0.88462 0.38041 0.717 0.0
H2129 H 0.8738 0.34782 0.70544 0.0
H2130 H 0.92908 0.35567 0.71455 0.0
H2131 H 0.94011 0.38848 0.72602 0.0
H2132 H 0.91164 0.33683 0.68618 0.0
H2133 H 0.89818 0.332 0.7369 0.0
H2134 H 0.8851 0.33777 0.75897 0.0
H2135 H 0.82981 0.30758 0.73646 0.0
H2136 H 0.84262 0.30188 0.71417 0.0
H2137 H 0.88804 0.23801 0.67958 0.0
H2138 H 0.89988 0.27221 0.68711 0.0
H2139 H 0.84307 0.26138 0.68633 0.0
H2140 H 0.83113 0.22692 0.67945 0.0
H2141 H 0.86157 0.28242 0.70987 0.0
H2142 H 0.87434 0.28611 0.65924 0.0
H2143 H 0.88707 0.27996 0.63711 0.0
H2144 H 0.94284 0.31191 0.65867 0.0
H2145 H 0.93041 0.31806 0.68101 0.0
C2146 C 0.89457 0.37534 0.71631 0.0
C2147 C 0.9132 0.38695 0.72246 0.0
C2148 C 0.88834 0.3567 0.70978 0.0
C2149 C 0.90062 0.34933 0.70927 0.0
C2150 C 0.91941 0.36113 0.71486 0.0
C2151 C 0.92563 0.37977 0.7215 0.0
C2152 C 0.89349 0.32888 0.70373 0.0
C2153 C 0.90081 0.32488 0.6914 0.0
C2154 C 0.87912 0.31339 0.71041 0.0
C2155 C 0.87138 0.3167 0.72383 0.0
C2156 C 0.88325 0.32673 0.73662 0.0
C2157 C 0.87589 0.32997 0.74917 0.0
C2158 C 0.85665 0.32309 0.7491 0.0
C2159 C 0.84472 0.31292 0.73649 0.0
C2160 C 0.85202 0.30968 0.7239 0.0
C2161 C 0.87807 0.24295 0.68088 0.0
C2162 C 0.85865 0.2298 0.67892 0.0
C2163 C 0.88486 0.26255 0.68511 0.0
C2164 C 0.87239 0.26949 0.68707 0.0
C2165 C 0.85298 0.25639 0.68489 0.0
C2166 C 0.84617 0.23671 0.68094 0.0
C2167 C 0.87951 0.29017 0.69213 0.0
C2168 C 0.87227 0.29428 0.70449 0.0
C2169 C 0.89385 0.30571 0.68538 0.0
C2170 C 0.90142 0.30242 0.67185 0.0
C2171 C 0.88931 0.29175 0.65929 0.0
C2172 C 0.89647 0.28827 0.6467 0.0
C2173 C 0.91575 0.2955 0.6465 0.0
C2174 C 0.92791 0.30631 0.65885 0.0
C2175 C 0.92082 0.30983 0.67147 0.0
H2176 H 0.92126 0.29276 0.63676 0.0
H2177 H 0.85097 0.32561 0.75883 0.0
H2178 H 0.17242 0.97178 0.59844 0.0
H2179 H 0.19546 0.00388 0.61033 0.0
H2180 H 0.23672 0.98582 0.61436 0.0
H2181 H 0.21372 0.95366 0.60248 0.0
H2182 H 0.2346 0.00501 0.6402 0.0
H2183 H 0.24016 0.0142 0.58881 0.0
H2184 H 0.22899 0.01348 0.56318 0.0
H2185 H 0.20861 0.05151 0.57661 0.0
H2186 H 0.21947 0.05229 0.60235 0.0
H2187 H 0.3133 0.09854 0.66114 0.0
H2188 H 0.29163 0.06625 0.64903 0.0
H2189 H 0.25209 0.08485 0.63722 0.0
H2190 H 0.27396 0.11732 0.64882 0.0
H2191 H 0.25398 0.06492 0.61498 0.0
H2192 H 0.24674 0.05522 0.66607 0.0
H2193 H 0.25735 0.05639 0.69196 0.0
H2194 H 0.27949 0.01954 0.67971 0.0
H2195 H 0.26921 0.01835 0.65371 0.0
C2196 C 0.18637 0.97464 0.60195 0.0
C2197 C 0.19131 0.96027 0.59954 0.0
C2198 C 0.19953 0.99299 0.60863 0.0
C2199 C 0.21781 0.99723 0.6131 0.0
C2200 C 0.2227 0.98282 0.61093 0.0
C2201 C 0.2096 0.96453 0.6041 0.0
C2202 C 0.23176 0.01667 0.62017 0.0
C2203 C 0.23906 0.01812 0.63465 0.0
C2204 C 0.23715 0.03374 0.61301 0.0
C2205 C 0.23044 0.03312 0.59754 0.0
C2206 C 0.23312 0.02225 0.58632 0.0
C2207 C 0.2269 0.02187 0.57176 0.0
C2208 C 0.21805 0.0324 0.56827 0.0
C2209 C 0.21544 0.04334 0.57933 0.0
C2210 C 0.22165 0.04377 0.5939 0.0
C2211 C 0.29995 0.09572 0.65603 0.0
C2212 C 0.2953 0.11045 0.656 0.0
C2213 C 0.28754 0.07722 0.64915 0.0
C2214 C 0.27009 0.07301 0.64239 0.0
C2215 C 0.26546 0.08774 0.64235 0.0
C2216 C 0.27797 0.10629 0.64902 0.0
C2217 C 0.25673 0.05338 0.63513 0.0
C2218 C 0.24956 0.05185 0.62059 0.0
C2219 C 0.25127 0.03626 0.6423 0.0
C2220 C 0.25737 0.03686 0.65793 0.0
C2221 C 0.25398 0.04748 0.66889 0.0
C2222 C 0.25992 0.04813 0.68358 0.0
C2223 C 0.26913 0.03809 0.68747 0.0
C2224 C 0.27237 0.02733 0.67667 0.0
C2225 C 0.26648 0.02665 0.66196 0.0
H2226 H 0.27372 0.03861 0.69885 0.0
H2227 H 0.21328 0.03213 0.55699 0.0
H2228 H 0.06536 0.26296 0.62272 0.0
H2229 H 0.03653 0.2531 0.63473 0.0
H2230 H 0.00537 0.24034 0.59247 0.0
H2231 H 0.03413 0.25006 0.58036 0.0
H2232 H 0.99457 0.25872 0.6123 0.0
H2233 H 0.00496 0.20431 0.61048 0.0
H2234 H 0.02313 0.18786 0.61486 0.0
H2235 H 0.02709 0.20183 0.66129 0.0
H2236 H 0.00916 0.21861 0.65715 0.0
H2237 H 0.90196 0.19174 0.62846 0.0
H2238 H 0.93308 0.20715 0.61917 0.0
H2239 H 0.95908 0.22167 0.66346 0.0
H2240 H 0.92797 0.20631 0.67288 0.0
H2241 H 0.9736 0.20461 0.64437 0.0
H2242 H 0.96017 0.25607 0.64625 0.0
H2243 H 0.94287 0.2734 0.64185 0.0
H2244 H 0.94493 0.2657 0.59538 0.0
H2245 H 0.96179 0.24784 0.59947 0.0
C2246 C 0.05236 0.25804 0.61598 0.0
C2247 C 0.052 0.25713 0.60058 0.0
C2248 C 0.03592 0.25245 0.62286 0.0
C2249 C 0.01877 0.24573 0.61448 0.0
C2250 C 0.01846 0.24548 0.59914 0.0
C2251 C 0.03492 0.25109 0.59224 0.0
C2252 C 0.00103 0.23831 0.62167 0.0
C2253 C 0.98984 0.24675 0.61918 0.0
C2254 C 0.99519 0.22306 0.63099 0.0
C2255 C 0.0059 0.2129 0.63349 0.0
C2256 C 0.00984 0.20401 0.62161 0.0
C2257 C 0.02007 0.1946 0.62405 0.0
C2258 C 0.02631 0.19385 0.63834 0.0
C2259 C 0.02228 0.20245 0.65022 0.0
C2260 C 0.01207 0.21191 0.64784 0.0
C2261 C 0.91431 0.19827 0.63621 0.0
C2262 C 0.91262 0.19792 0.65137 0.0
C2263 C 0.93202 0.20716 0.63089 0.0
C2264 C 0.9483 0.2158 0.64062 0.0
C2265 C 0.94665 0.21519 0.65578 0.0
C2266 C 0.92892 0.20642 0.66113 0.0
C2267 C 0.96698 0.22484 0.63484 0.0
C2268 C 0.97834 0.21667 0.63757 0.0
C2269 C 0.97292 0.24031 0.62571 0.0
C2270 C 0.96211 0.2504 0.62317 0.0
C2271 C 0.95669 0.25779 0.63508 0.0
C2272 C 0.94701 0.26779 0.63264 0.0
C2273 C 0.94283 0.27068 0.61835 0.0
C2274 C 0.94824 0.26351 0.60645 0.0
C2275 C 0.95781 0.25339 0.60882 0.0
H2276 H 0.93536 0.27844 0.61649 0.0
H2277 H 0.03423 0.18655 0.64021 0.0
H2278 H 0.7863 0.81641 0.60578 0.0
H2279 H 0.79664 0.79449 0.61461 0.0
H2280 H 0.73895 0.7491 0.6148 0.0
H2281 H 0.72849 0.77099 0.60592 0.0
H2282 H 0.76238 0.75444 0.64077 0.0
H2283 H 0.76151 0.74577 0.58834 0.0
H2284 H 0.76928 0.75668 0.56365 0.0
H2285 H 0.82802 0.78232 0.57707 0.0
H2286 H 0.82061 0.77182 0.60192 0.0
H2287 H 0.7816 0.67918 0.65312 0.0
H2288 H 0.76908 0.69829 0.64246 0.0
H2289 H 0.82483 0.74146 0.6333 0.0
H2290 H 0.83736 0.72207 0.64347 0.0
H2291 H 0.80109 0.73632 0.61133 0.0
H2292 H 0.80325 0.74724 0.66355 0.0
H2293 H 0.79679 0.73798 0.68878 0.0
H2294 H 0.73754 0.71035 0.67669 0.0
H2295 H 0.74365 0.71922 0.65132 0.0
C2296 C 0.77583 0.8018 0.60781 0.0
C2297 C 0.7566 0.79537 0.60519 0.0
C2298 C 0.78174 0.78928 0.61275 0.0
C2299 C 0.76854 0.77018 0.61524 0.0
C2300 C 0.74932 0.7638 0.61289 0.0
C2301 C 0.74339 0.77625 0.60777 0.0
C2302 C 0.77487 0.75692 0.62036 0.0
C2303 C 0.77059 0.7502 0.63427 0.0
C2304 C 0.78601 0.7519 0.61199 0.0
C2305 C 0.7905 0.75816 0.59704 0.0
C2306 C 0.77609 0.75388 0.58607 0.0
C2307 C 0.78043 0.75997 0.57204 0.0
C2308 C 0.79914 0.77023 0.56881 0.0
C2309 C 0.81354 0.77439 0.57959 0.0
C2310 C 0.80927 0.76836 0.59365 0.0
C2311 C 0.79119 0.69271 0.64879 0.0
C2312 C 0.8105 0.69921 0.64926 0.0
C2313 C 0.78402 0.70366 0.64275 0.0
C2314 C 0.79607 0.72152 0.63736 0.0
C2315 C 0.81528 0.72776 0.63744 0.0
C2316 C 0.82242 0.71668 0.64329 0.0
C2317 C 0.78872 0.73386 0.63185 0.0
C2318 C 0.79281 0.74045 0.61785 0.0
C2319 C 0.77762 0.73899 0.64024 0.0
C2320 C 0.7739 0.73372 0.6555 0.0
C2321 C 0.78884 0.73907 0.66625 0.0
C2322 C 0.78524 0.7339 0.68057 0.0
C2323 C 0.76676 0.72353 0.68432 0.0
C2324 C 0.75184 0.71835 0.67376 0.0
C2325 C 0.75536 0.72346 0.65941 0.0
H2326 H 0.76401 0.71955 0.69542 0.0
H2327 H 0.80247 0.77492 0.55793 0.0
H2328 H 0.03506 0.78064 0.58454 0.0
H2329 H 0.0051 0.76072 0.59477 0.0
H2330 H 0.0039 0.81244 0.60919 0.0
H2331 H 0.03375 0.83241 0.59893 0.0
H2332 H 0.99562 0.78813 0.63054 0.0
H2333 H 0.97674 0.78315 0.57934 0.0
H2334 H 0.9767 0.77604 0.55282 0.0
H2335 H 0.95856 0.71649 0.5593 0.0
H2336 H 0.95885 0.72332 0.58591 0.0
H2337 H 0.90316 0.74443 0.65086 0.0
H2338 H 0.93132 0.76369 0.63825 0.0
H2339 H 0.92924 0.71111 0.62113 0.0
H2340 H 0.90065 0.69181 0.63324 0.0
H2341 H 0.93943 0.73526 0.6011 0.0
H2342 H 0.95927 0.73985 0.65172 0.0
H2343 H 0.95975 0.74616 0.67842 0.0
H2344 H 0.97642 0.80566 0.67313 0.0
H2345 H 0.97578 0.79965 0.64636 0.0
C2346 C 0.02831 0.78775 0.58975 0.0
C2347 C 0.0368 0.80812 0.59093 0.0
C2348 C 0.01121 0.77636 0.5956 0.0
C2349 C 0.0022 0.7851 0.60265 0.0
C2350 C 0.01064 0.8054 0.60384 0.0
C2351 C 0.02773 0.81679 0.59802 0.0
C2352 C 0.98415 0.77316 0.60905 0.0
C2353 C 0.98322 0.7768 0.62404 0.0
C2354 C 0.96819 0.75794 0.60067 0.0
C2355 C 0.96808 0.75382 0.58466 0.0
C2356 C 0.97298 0.7686 0.57514 0.0
C2357 C 0.97288 0.76461 0.56009 0.0
C2358 C 0.96772 0.74585 0.55439 0.0
C2359 C 0.96261 0.73103 0.56374 0.0
C2360 C 0.96275 0.73495 0.57881 0.0
C2361 C 0.90869 0.73702 0.64434 0.0
C2362 C 0.89996 0.71669 0.64318 0.0
C2363 C 0.92481 0.74802 0.63719 0.0
C2364 C 0.93269 0.73888 0.62903 0.0
C2365 C 0.92353 0.7185 0.62744 0.0
C2366 C 0.90726 0.7075 0.63443 0.0
C2367 C 0.95074 0.75055 0.62251 0.0
C2368 C 0.95175 0.74674 0.60755 0.0
C2369 C 0.96684 0.76556 0.63092 0.0
C2370 C 0.9673 0.76925 0.64702 0.0
C2371 C 0.9629 0.75425 0.65624 0.0
C2372 C 0.96323 0.75777 0.67139 0.0
C2373 C 0.96807 0.77628 0.67747 0.0
C2374 C 0.97264 0.79132 0.66841 0.0
C2375 C 0.97232 0.78787 0.65325 0.0
H2376 H 0.96831 0.77899 0.6892 0.0
H2377 H 0.9676 0.74278 0.54273 0.0
H2378 H 0.16401 0.20713 0.59705 0.0
H2379 H 0.18324 0.19446 0.60739 0.0
H2380 H 0.23273 0.24256 0.59297 0.0
H2381 H 0.2137 0.25558 0.58287 0.0
H2382 H 0.23169 0.20667 0.58854 0.0
H2383 H 0.22369 0.24526 0.62702 0.0
H2384 H 0.20509 0.25442 0.64233 0.0
H2385 H 0.17736 0.19742 0.65752 0.0
H2386 H 0.19562 0.18784 0.64212 0.0
H2387 H 0.30417 0.20904 0.63499 0.0
H2388 H 0.28241 0.21624 0.62135 0.0
H2389 H 0.23621 0.17181 0.64202 0.0
H2390 H 0.25805 0.16498 0.656 0.0
H2391 H 0.23395 0.20347 0.64252 0.0
H2392 H 0.2431 0.16504 0.60581 0.0
H2393 H 0.26175 0.15545 0.59092 0.0
H2394 H 0.28657 0.21037 0.57243 0.0
H2395 H 0.26828 0.22043 0.58735 0.0
C2396 C 0.17899 0.21504 0.5961 0.0
C2397 C 0.18734 0.23248 0.58927 0.0
C2398 C 0.18992 0.2077 0.60192 0.0
C2399 C 0.2094 0.21766 0.60102 0.0
C2400 C 0.21769 0.23463 0.59371 0.0
C2401 C 0.20678 0.24203 0.58793 0.0
C2402 C 0.22129 0.21116 0.6086 0.0
C2403 C 0.23232 0.20607 0.60035 0.0
C2404 C 0.22172 0.20997 0.62395 0.0
C2405 C 0.21086 0.21578 0.63331 0.0
C2406 C 0.21352 0.23464 0.63354 0.0
C2407 C 0.20306 0.23991 0.64225 0.0
C2408 C 0.19002 0.22649 0.65086 0.0
C2409 C 0.18745 0.20779 0.65083 0.0
C2410 C 0.19785 0.20243 0.64212 0.0
C2411 C 0.28937 0.20082 0.63659 0.0
C2412 C 0.28273 0.18652 0.64654 0.0
C2413 C 0.27693 0.20483 0.62872 0.0
C2414 C 0.25764 0.19438 0.63052 0.0
C2415 C 0.25103 0.18002 0.64045 0.0
C2416 C 0.26348 0.17612 0.6484 0.0
C2417 C 0.24448 0.19899 0.62251 0.0
C2418 C 0.23322 0.2038 0.63069 0.0
C2419 C 0.24375 0.19974 0.60709 0.0
C2420 C 0.25441 0.19355 0.59779 0.0
C2421 C 0.2526 0.17512 0.59862 0.0
C2422 C 0.2631 0.1696 0.59017 0.0
C2423 C 0.27536 0.18233 0.58078 0.0
C2424 C 0.27707 0.20055 0.57973 0.0
C2425 C 0.26662 0.20616 0.58816 0.0
H2426 H 0.2835 0.17807 0.57431 0.0
H2427 H 0.18193 0.2306 0.6576 0.0
H2428 H 0.74576 0.94494 0.62884 0.0
H2429 H 0.7576 0.97765 0.64091 0.0
H2430 H 0.79626 0.00201 0.60774 0.0
H2431 H 0.78447 0.96944 0.59564 0.0
H2432 H 0.81247 0.01694 0.63691 0.0
H2433 H 0.75815 0.00443 0.60506 0.0
H2434 H 0.72476 0.98578 0.59571 0.0
H2435 H 0.70878 0.99249 0.63856 0.0
H2436 H 0.7421 0.01095 0.64821 0.0
H2437 H 0.84088 0.11609 0.64225 0.0
H2438 H 0.82865 0.08189 0.63464 0.0
H2439 H 0.78589 0.06587 0.66488 0.0
H2440 H 0.79775 0.10022 0.67228 0.0
H2441 H 0.77097 0.04527 0.63983 0.0
H2442 H 0.8245 0.05977 0.67168 0.0
H2443 H 0.85759 0.07796 0.68184 0.0
H2444 H 0.87485 0.06681 0.64077 0.0
H2445 H 0.84188 0.04878 0.63029 0.0
C2446 C 0.75685 0.95729 0.6242 0.0
C2447 C 0.76415 0.95472 0.61128 0.0
C2448 C 0.76354 0.97592 0.63105 0.0
C2449 C 0.77774 0.99219 0.62516 0.0
C2450 C 0.78529 0.98961 0.61244 0.0
C2451 C 0.77847 0.97105 0.6055 0.0
C2452 C 0.78457 0.01203 0.63205 0.0
C2453 C 0.80348 0.02324 0.63748 0.0
C2454 C 0.77262 0.01991 0.63319 0.0
C2455 C 0.7526 0.00887 0.62739 0.0
C2456 C 0.74751 0.00177 0.61252 0.0
C2457 C 0.7286 0.99127 0.60716 0.0
C2458 C 0.71465 0.9879 0.61655 0.0
C2459 C 0.71959 0.99508 0.63131 0.0
C2460 C 0.73849 0.00557 0.63672 0.0
C2461 C 0.82896 0.10532 0.64739 0.0
C2462 C 0.82034 0.1109 0.65793 0.0
C2463 C 0.82202 0.08573 0.64306 0.0
C2464 C 0.80654 0.07126 0.64936 0.0
C2465 C 0.79789 0.07677 0.65989 0.0
C2466 C 0.8047 0.09641 0.66412 0.0
C2467 C 0.79906 0.05045 0.64453 0.0
C2468 C 0.78 0.039 0.63947 0.0
C2469 C 0.81084 0.04226 0.64389 0.0
C2470 C 0.83071 0.05304 0.65017 0.0
C2471 C 0.83536 0.06131 0.66478 0.0
C2472 C 0.8541 0.07158 0.67061 0.0
C2473 C 0.86832 0.07357 0.66195 0.0
C2474 C 0.86382 0.06526 0.64746 0.0
C2475 C 0.84511 0.055 0.64158 0.0
H2476 H 0.88282 0.08153 0.66648 0.0
H2477 H 0.70002 0.97977 0.61238 0.0
H2478 H 0.47465 0.38696 0.72583 0.0
H2479 H 0.45139 0.35505 0.71367 0.0
H2480 H 0.46015 0.32733 0.75002 0.0
H2481 H 0.48344 0.35911 0.76216 0.0
H2482 H 0.45964 0.30978 0.72279 0.0
H2483 H 0.42263 0.33194 0.74765 0.0
H2484 H 0.41164 0.35488 0.75378 0.0
H2485 H 0.39236 0.35065 0.70858 0.0
H2486 H 0.4035 0.32788 0.70215 0.0
H2487 H 0.38198 0.21521 0.71074 0.0
H2488 H 0.405 0.24792 0.72122 0.0
H2489 H 0.38822 0.27213 0.68648 0.0
H2490 H 0.36471 0.23938 0.67614 0.0
H2491 H 0.3933 0.29229 0.71157 0.0
H2492 H 0.42912 0.26969 0.68642 0.0
H2493 H 0.44008 0.24686 0.67978 0.0
H2494 H 0.46196 0.25233 0.7244 0.0
H2495 H 0.45091 0.27501 0.73136 0.0
C2496 C 0.47168 0.37404 0.73116 0.0
C2497 C 0.48077 0.37549 0.74496 0.0
C2498 C 0.45834 0.35586 0.72426 0.0
C2499 C 0.45398 0.33887 0.73101 0.0
C2500 C 0.4633 0.34028 0.74465 0.0
C2501 C 0.47649 0.35843 0.75161 0.0
C2502 C 0.43964 0.31957 0.72394 0.0
C2503 C 0.44509 0.30586 0.72045 0.0
C2504 C 0.42081 0.31472 0.72054 0.0
C2505 C 0.41409 0.32839 0.7244 0.0
C2506 C 0.41621 0.33604 0.739 0.0
C2507 C 0.40992 0.34898 0.74253 0.0
C2508 C 0.40136 0.35427 0.73157 0.0
C2509 C 0.39903 0.34658 0.71706 0.0
C2510 C 0.40531 0.33364 0.71346 0.0
C2511 C 0.38319 0.22749 0.7053 0.0
C2512 C 0.37164 0.22471 0.69253 0.0
C2513 C 0.39641 0.24619 0.71129 0.0
C2514 C 0.39861 0.26249 0.70447 0.0
C2515 C 0.38682 0.25977 0.69189 0.0
C2516 C 0.37341 0.24105 0.68599 0.0
C2517 C 0.41322 0.28235 0.7105 0.0
C2518 C 0.40786 0.2962 0.7138 0.0
C2519 C 0.43219 0.2874 0.71361 0.0
C2520 C 0.43905 0.27393 0.70943 0.0
C2521 C 0.43617 0.26594 0.69484 0.0
C2522 C 0.44241 0.25303 0.69101 0.0
C2523 C 0.45167 0.24812 0.70167 0.0
C2524 C 0.45477 0.25614 0.71616 0.0
C2525 C 0.44854 0.26904 0.72005 0.0
H2526 H 0.45648 0.23811 0.69869 0.0
H2527 H 0.39649 0.36428 0.73433 0.0
H2528 H 0.64253 0.12168 0.75014 0.0
H2529 H 0.67184 0.13198 0.7385 0.0
H2530 H 0.64674 0.07628 0.71342 0.0
H2531 H 0.61716 0.06611 0.7247 0.0
H2532 H 0.68728 0.09632 0.73392 0.0
H2533 H 0.64999 0.10099 0.6927 0.0
H2534 H 0.62932 0.11205 0.68189 0.0
H2535 H 0.67102 0.17131 0.69529 0.0
H2536 H 0.69181 0.16055 0.7064 0.0
H2537 H 0.76296 0.11668 0.69106 0.0
H2538 H 0.73227 0.10433 0.70058 0.0
H2539 H 0.73984 0.1621 0.70294 0.0
H2540 H 0.77002 0.17415 0.69251 0.0
H2541 H 0.70671 0.13949 0.69341 0.0
H2542 H 0.74161 0.13772 0.73724 0.0
H2543 H 0.76219 0.12959 0.75209 0.0
H2544 H 0.7272 0.06935 0.73687 0.0
H2545 H 0.7061 0.07706 0.72231 0.0
C2546 C 0.64329 0.11172 0.74209 0.0
C2547 C 0.62771 0.09315 0.73826 0.0
C2548 C 0.65994 0.1176 0.73546 0.0
C2549 C 0.6613 0.10487 0.72511 0.0
C2550 C 0.64582 0.08627 0.72134 0.0
C2551 C 0.62901 0.08052 0.72774 0.0
C2552 C 0.67918 0.11095 0.71862 0.0
C2553 C 0.69149 0.10549 0.72489 0.0
C2554 C 0.68478 0.12348 0.70727 0.0
C2555 C 0.67234 0.12995 0.70053 0.0
C2556 C 0.65466 0.11636 0.69349 0.0
C2557 C 0.64294 0.12257 0.68727 0.0
C2558 C 0.64882 0.14236 0.68795 0.0
C2559 C 0.66646 0.15598 0.6948 0.0
C2560 C 0.67822 0.14983 0.70105 0.0
C2561 C 0.75802 0.1267 0.69364 0.0
C2562 C 0.76882 0.14637 0.69118 0.0
C2563 C 0.74057 0.11969 0.69925 0.0
C2564 C 0.73383 0.13234 0.70286 0.0
C2565 C 0.74466 0.15201 0.70028 0.0
C2566 C 0.76191 0.15892 0.69435 0.0
C2567 C 0.71518 0.12496 0.70871 0.0
C2568 C 0.70264 0.13021 0.70237 0.0
C2569 C 0.70953 0.1126 0.72027 0.0
C2570 C 0.72249 0.108 0.72855 0.0
C2571 C 0.73842 0.12277 0.73699 0.0
C2572 C 0.75011 0.11823 0.7454 0.0
C2573 C 0.74615 0.09902 0.74527 0.0
C2574 C 0.73032 0.08425 0.7369 0.0
C2575 C 0.71841 0.08867 0.72865 0.0
H2576 H 0.75527 0.09557 0.75174 0.0
H2577 H 0.63974 0.14715 0.68312 0.0
H2578 H 0.93619 0.56475 0.73529 0.0
H2579 H 0.92581 0.58639 0.72597 0.0
H2580 H 0.86815 0.54007 0.72412 0.0
H2581 H 0.87857 0.51827 0.73299 0.0
H2582 H 0.87302 0.55771 0.70061 0.0
H2583 H 0.88859 0.57887 0.75182 0.0
H2584 H 0.90849 0.59043 0.77525 0.0
H2585 H 0.94873 0.64155 0.75642 0.0
H2586 H 0.92918 0.63016 0.7328 0.0
H2587 H 0.82951 0.6149 0.6957 0.0
H2588 H 0.84159 0.59518 0.70597 0.0
H2589 H 0.89762 0.63762 0.69698 0.0
H2590 H 0.88567 0.65744 0.68651 0.0
H2591 H 0.89411 0.6228 0.7258 0.0
H2592 H 0.87685 0.60042 0.67436 0.0
H2593 H 0.85529 0.58844 0.65178 0.0
H2594 H 0.81608 0.5387 0.67255 0.0
H2595 H 0.83729 0.55056 0.69534 0.0
C2596 C 0.92131 0.55926 0.73292 0.0
C2597 C 0.90816 0.53988 0.73485 0.0
C2598 C 0.91538 0.57163 0.72766 0.0
C2599 C 0.89616 0.56496 0.72455 0.0
C2600 C 0.88304 0.54555 0.72643 0.0
C2601 C 0.88899 0.53311 0.73147 0.0
C2602 C 0.8897 0.57806 0.71912 0.0
C2603 C 0.87747 0.57183 0.70626 0.0
C2604 C 0.89574 0.59666 0.72631 0.0
C2605 C 0.90751 0.60356 0.7405 0.0
C2606 C 0.90175 0.59251 0.75264 0.0
C2607 C 0.91296 0.59904 0.76596 0.0
C2608 C 0.92989 0.61669 0.76731 0.0
C2609 C 0.93562 0.62787 0.75535 0.0
C2610 C 0.92448 0.62139 0.742 0.0
C2611 C 0.84443 0.62015 0.69598 0.0
C2612 C 0.85663 0.63768 0.69019 0.0
C2613 C 0.85128 0.60884 0.70184 0.0
C2614 C 0.87044 0.61493 0.70211 0.0
C2615 C 0.88277 0.63271 0.69682 0.0
C2616 C 0.8759 0.64394 0.69079 0.0
C2617 C 0.87744 0.60232 0.70744 0.0
C2618 C 0.88974 0.60867 0.72023 0.0
C2619 C 0.87126 0.58371 0.70033 0.0
C2620 C 0.85858 0.57647 0.6866 0.0
C2621 C 0.86356 0.58701 0.67415 0.0
C2622 C 0.85142 0.58023 0.66131 0.0
C2623 C 0.8343 0.56285 0.66074 0.0
C2624 C 0.82933 0.55218 0.67301 0.0
C2625 C 0.84141 0.55891 0.68589 0.0
H2626 H 0.82492 0.55762 0.65079 0.0
H2627 H 0.93854 0.62172 0.77763 0.0
H2628 H 0.4947 0.9873 0.15868 0.0
H2629 H 0.50024 0.99848 0.13412 0.0
H2630 H 0.44491 0.95224 0.11783 0.0
H2631 H 0.43949 0.94075 0.14223 0.0
H2632 H 0.46932 0.95341 0.10059 0.0
H2633 H 0.45579 0.00053 0.12072 0.0
H2634 H 0.45776 0.02565 0.13878 0.0
H2635 H 0.51608 0.0622 0.13263 0.0
H2636 H 0.51453 0.03718 0.11468 0.0
H2637 H 0.47983 0.99888 0.03127 0.0
H2638 H 0.46793 0.98855 0.05517 0.0
H2639 H 0.52464 0.01206 0.07441 0.0
H2640 H 0.53649 0.02103 0.05034 0.0
H2641 H 0.49568 0.02182 0.08906 0.0
H2642 H 0.50802 0.97224 0.0693 0.0
H2643 H 0.50502 0.94569 0.05249 0.0
H2644 H 0.44632 0.91207 0.05842 0.0
H2645 H 0.44887 0.93878 0.07505 0.0
C2646 C 0.48368 0.9796 0.14987 0.0
C2647 C 0.46666 0.96314 0.1524 0.0
C2648 C 0.48677 0.98614 0.13586 0.0
C2649 C 0.47287 0.97642 0.12413 0.0
C2650 C 0.45577 0.96016 0.1267 0.0
C2651 C 0.45265 0.95364 0.1407 0.0
C2652 C 0.47681 0.98231 0.10901 0.0
C2653 C 0.47468 0.96829 0.09799 0.0
C2654 C 0.48404 0.00178 0.10566 0.0
C2655 C 0.48508 0.0169 0.11644 0.0
C2656 C 0.46907 0.01386 0.12331 0.0
C2657 C 0.47011 0.0281 0.13351 0.0
C2658 C 0.48704 0.04549 0.13688 0.0
C2659 C 0.50297 0.04871 0.13002 0.0
C2660 C 0.50202 0.03452 0.11982 0.0
C2661 C 0.48971 0.0015 0.04055 0.0
C2662 C 0.50902 0.0102 0.03889 0.0
C2663 C 0.48291 0.99577 0.05419 0.0
C2664 C 0.49543 0.99935 0.06645 0.0
C2665 C 0.51479 0.00905 0.065 0.0
C2666 C 0.52153 0.01418 0.05128 0.0
C2667 C 0.48843 0.99295 0.08083 0.0
C2668 C 0.48998 0.00689 0.09165 0.0
C2669 C 0.48038 0.97332 0.08393 0.0
C2670 C 0.47855 0.95782 0.07312 0.0
C2671 C 0.49434 0.95949 0.06669 0.0
C2672 C 0.49273 0.94433 0.05723 0.0
C2673 C 0.47544 0.92727 0.0542 0.0
C2674 C 0.45971 0.92532 0.06071 0.0
C2675 C 0.46121 0.94052 0.07011 0.0
H2676 H 0.47428 0.91552 0.04692 0.0
H2677 H 0.48781 0.0565 0.14478 0.0
H2678 H 0.04241 0.48705 0.15596 0.0
H2679 H 0.03157 0.48263 0.13003 0.0
H2680 H 0.01578 0.52631 0.13719 0.0
H2681 H 0.02521 0.52974 0.16328 0.0
H2682 H 0.99063 0.49887 0.11929 0.0
H2683 H 0.05848 0.53553 0.12187 0.0
H2684 H 0.09054 0.54183 0.12835 0.0
H2685 H 0.07774 0.48916 0.10306 0.0
H2686 H 0.0456 0.48258 0.09641 0.0
H2687 H 0.99587 0.53158 0.04775 0.0
H2688 H 0.00232 0.52917 0.07376 0.0
H2689 H 0.00196 0.47577 0.06251 0.0
H2690 H 0.99462 0.47764 0.03659 0.0
H2691 H 0.0341 0.50491 0.08176 0.0
H2692 H 0.96683 0.47073 0.07728 0.0
H2693 H 0.93552 0.46614 0.07034 0.0
H2694 H 0.9481 0.51608 0.09921 0.0
H2695 H 0.97962 0.52115 0.10616 0.0
C2696 C 0.03629 0.49546 0.1521 0.0
C2697 C 0.03487 0.5089 0.16175 0.0
C2698 C 0.03036 0.49312 0.13719 0.0
C2699 C 0.02326 0.50447 0.13156 0.0
C2700 C 0.02134 0.51749 0.14123 0.0
C2701 C 0.02697 0.5196 0.15615 0.0
C2702 C 0.01796 0.50302 0.11561 0.0
C2703 C 0.00024 0.50039 0.11113 0.0
C2704 C 0.03027 0.5045 0.10486 0.0
C2705 C 0.04959 0.50846 0.10879 0.0
C2706 C 0.06248 0.52525 0.11776 0.0
C2707 C 0.08068 0.52889 0.12142 0.0
C2708 C 0.08616 0.51587 0.11615 0.0
C2709 C 0.07346 0.49921 0.10716 0.0
C2710 C 0.05528 0.49555 0.10339 0.0
C2711 C 0.99705 0.51928 0.05086 0.0
C2712 C 0.99515 0.50499 0.04018 0.0
C2713 C 0.00074 0.51793 0.06567 0.0
C2714 C 0.00268 0.50233 0.06998 0.0
C2715 C 0.00067 0.48799 0.05934 0.0
C2716 C 0.99667 0.48917 0.04457 0.0
C2717 C 0.00703 0.50119 0.08561 0.0
C2718 C 0.02452 0.50328 0.08998 0.0
C2719 C 0.99462 0.49945 0.09626 0.0
C2720 C 0.97566 0.49643 0.09213 0.0
C2721 C 0.96299 0.48085 0.08205 0.0
C2722 C 0.94519 0.47813 0.07813 0.0
C2723 C 0.93984 0.49084 0.0843 0.0
C2724 C 0.95227 0.50626 0.09443 0.0
C2725 C 0.9701 0.50905 0.09837 0.0
H2726 H 0.92604 0.48871 0.08126 0.0
H2727 H 0.10025 0.51872 0.11898 0.0
H2728 H 0.44412 0.48635 0.15237 0.0
H2729 H 0.45015 0.47969 0.12744 0.0
H2730 H 0.50967 0.51628 0.13878 0.0
H2731 H 0.50385 0.52266 0.16374 0.0
H2732 H 0.49748 0.52461 0.11288 0.0
H2733 H 0.49064 0.46823 0.13572 0.0
H2734 H 0.47406 0.43911 0.14917 0.0
H2735 H 0.42859 0.41372 0.11522 0.0
H2736 H 0.44479 0.44282 0.10166 0.0
H2737 H 0.5366 0.50844 0.05336 0.0
H2738 H 0.52797 0.50616 0.07859 0.0
H2739 H 0.46998 0.46684 0.06313 0.0
H2740 H 0.47885 0.46794 0.03789 0.0
H2741 H 0.479 0.45882 0.09037 0.0
H2742 H 0.48393 0.51418 0.06797 0.0
H2743 H 0.50084 0.54095 0.05247 0.0
H2744 H 0.54847 0.56721 0.08453 0.0
H2745 H 0.53181 0.54046 0.10022 0.0
C2746 C 0.4585 0.49276 0.14961 0.0
C2747 C 0.4735 0.50512 0.16004 0.0
C2748 C 0.46191 0.48899 0.13536 0.0
C2749 C 0.48035 0.49749 0.1313 0.0
C2750 C 0.49533 0.50969 0.14168 0.0
C2751 C 0.49196 0.51338 0.15593 0.0
C2752 C 0.48417 0.49412 0.11614 0.0
C2753 C 0.49356 0.51024 0.10804 0.0
C2754 C 0.47854 0.4753 0.10964 0.0
C2755 C 0.46883 0.45779 0.11776 0.0
C2756 C 0.47703 0.45651 0.13119 0.0
C2757 C 0.46772 0.43999 0.13882 0.0
C2758 C 0.45026 0.4246 0.13307 0.0
C2759 C 0.4421 0.42567 0.11966 0.0
C2760 C 0.45135 0.44216 0.112 0.0
C2761 C 0.52209 0.49898 0.05537 0.0
C2762 C 0.50824 0.48896 0.0437 0.0
C2763 C 0.51716 0.49769 0.06977 0.0
C2764 C 0.49825 0.48682 0.07266 0.0
C2765 C 0.48462 0.47549 0.06112 0.0
C2766 C 0.48965 0.47638 0.04671 0.0
C2767 C 0.49264 0.48933 0.08735 0.0
C2768 C 0.4828 0.47313 0.09526 0.0
C2769 C 0.49754 0.50801 0.09365 0.0
C2770 C 0.50668 0.5253 0.08521 0.0
C2771 C 0.49795 0.52576 0.07176 0.0
C2772 C 0.50753 0.54085 0.0629 0.0
C2773 C 0.52583 0.55561 0.06742 0.0
C2774 C 0.53436 0.55564 0.081 0.0
C2775 C 0.52482 0.54058 0.08992 0.0
H2776 H 0.53334 0.56712 0.06045 0.0
H2777 H 0.44307 0.41182 0.13899 0.0
H2778 H 0.95595 0.45736 0.84201 0.0
H2779 H 0.96463 0.46081 0.86828 0.0
H2780 H 0.9824 0.52181 0.86995 0.0
H2781 H 0.97491 0.51876 0.8435 0.0
H2782 H 0.00669 0.51731 0.88565 0.0
H2783 H 0.93975 0.48687 0.88209 0.0
H2784 H 0.90699 0.46236 0.87377 0.0
H2785 H 0.9147 0.41805 0.89206 0.0
H2786 H 0.94764 0.44222 0.90019 0.0
H2787 H 0.0125 0.52918 0.96399 0.0
H2788 H 0.00206 0.52743 0.93808 0.0
H2789 H 0.99054 0.46834 0.93194 0.0
H2790 H 0.00071 0.46997 0.95781 0.0
H2791 H 0.96214 0.47329 0.91907 0.0
H2792 H 0.02973 0.50361 0.92099 0.0
H2793 H 0.06219 0.52842 0.92988 0.0
H2794 H 0.05258 0.5732 0.91503 0.0
H2795 H 0.01996 0.54865 0.90622 0.0
C2796 C 0.96196 0.47159 0.8479 0.0
C2797 C 0.96468 0.48777 0.84059 0.0
C2798 C 0.96665 0.47347 0.86299 0.0
C2799 C 0.97383 0.4915 0.87117 0.0
C2800 C 0.97675 0.50772 0.8639 0.0
C2801 C 0.97228 0.5059 0.84878 0.0
C2802 C 0.97869 0.49353 0.88724 0.0
C2803 C 0.99682 0.50785 0.89297 0.0
C2804 C 0.96594 0.481 0.89679 0.0
C2805 C 0.94621 0.46636 0.89168 0.0
C2806 C 0.93453 0.47187 0.88419 0.0
C2807 C 0.91592 0.45803 0.87951 0.0
C2808 C 0.90878 0.43865 0.88235 0.0
C2809 C 0.92026 0.43306 0.88983 0.0
C2810 C 0.9389 0.44682 0.89447 0.0
C2811 C 0.00758 0.51581 0.95709 0.0
C2812 C 0.00735 0.4997 0.96281 0.0
C2813 C 0.00173 0.51485 0.94233 0.0
C2814 C 0.99562 0.49778 0.93311 0.0
C2815 C 0.99517 0.48162 0.93889 0.0
C2816 C 0.00111 0.48262 0.95361 0.0
C2817 C 0.99012 0.49681 0.91733 0.0
C2818 C 0.9719 0.48274 0.9117 0.0
C2819 C 0.00273 0.50958 0.90786 0.0
C2820 C 0.02236 0.52432 0.91309 0.0
C2821 C 0.0345 0.51876 0.91973 0.0
C2822 C 0.05293 0.53277 0.92473 0.0
C2823 C 0.05943 0.55238 0.92306 0.0
C2824 C 0.04752 0.55801 0.91634 0.0
C2825 C 0.02906 0.54405 0.91133 0.0
H2826 H 0.07371 0.5632 0.92694 0.0
H2827 H 0.89434 0.42798 0.87879 0.0
H2828 H 0.56042 0.51512 0.86082 0.0
H2829 H 0.55391 0.52321 0.88508 0.0
H2830 H 0.49572 0.47878 0.87607 0.0
H2831 H 0.50179 0.4716 0.85149 0.0
H2832 H 0.49739 0.50878 0.88953 0.0
H2833 H 0.52954 0.47261 0.89772 0.0
H2834 H 0.55569 0.46603 0.89644 0.0
H2835 H 0.59332 0.52153 0.91977 0.0
H2836 H 0.56737 0.52836 0.92128 0.0
H2837 H 0.46689 0.48128 0.95975 0.0
H2838 H 0.47666 0.48397 0.93477 0.0
H2839 H 0.52946 0.53507 0.94996 0.0
H2840 H 0.51944 0.53272 0.97491 0.0
H2841 H 0.53361 0.50728 0.93388 0.0
H2842 H 0.49925 0.54047 0.92884 0.0
H2843 H 0.47223 0.54548 0.93078 0.0
H2844 H 0.43781 0.49413 0.90169 0.0
H2845 H 0.46456 0.48865 0.89974 0.0
C2846 C 0.54617 0.50728 0.86389 0.0
C2847 C 0.53167 0.49257 0.85419 0.0
C2848 C 0.54252 0.51176 0.87787 0.0
C2849 C 0.52439 0.50137 0.88253 0.0
C2850 C 0.50985 0.48695 0.87277 0.0
C2851 C 0.51341 0.48268 0.85875 0.0
C2852 C 0.52041 0.50519 0.89758 0.0
C2853 C 0.50523 0.50829 0.89922 0.0
C2854 C 0.531 0.50522 0.91026 0.0
C2855 C 0.54659 0.50109 0.90944 0.0
C2856 C 0.54342 0.48343 0.90252 0.0
C2857 C 0.55818 0.47962 0.90181 0.0
C2858 C 0.57615 0.49333 0.90804 0.0
C2859 C 0.57939 0.51087 0.91502 0.0
C2860 C 0.56465 0.51471 0.91583 0.0
C2861 C 0.48044 0.49326 0.95768 0.0
C2862 C 0.49263 0.50656 0.96922 0.0
C2863 C 0.486 0.49479 0.94345 0.0
C2864 C 0.50379 0.50972 0.94055 0.0
C2865 C 0.51573 0.5234 0.95201 0.0
C2866 C 0.51008 0.52196 0.96622 0.0
C2867 C 0.51026 0.5102 0.92574 0.0
C2868 C 0.52593 0.508 0.92417 0.0
C2869 C 0.50001 0.5108 0.91314 0.0
C2870 C 0.48389 0.51408 0.91423 0.0
C2871 C 0.48588 0.53016 0.92294 0.0
C2872 C 0.47062 0.5331 0.92403 0.0
C2873 C 0.45331 0.52011 0.91638 0.0
C2874 C 0.45123 0.50418 0.90761 0.0
C2875 C 0.46645 0.50116 0.9065 0.0
H2876 H 0.44151 0.52242 0.91724 0.0
H2877 H 0.58752 0.49032 0.90745 0.0
H2878 H 0.55737 0.05679 0.85522 0.0
H2879 H 0.55215 0.04612 0.87998 0.0
H2880 H 0.50427 0.99153 0.86239 0.0
H2881 H 0.50923 0.00233 0.83767 0.0
H2882 H 0.4956 0.00629 0.88487 0.0
H2883 H 0.54721 0.99584 0.8756 0.0
H2884 H 0.57906 0.00552 0.86879 0.0
H2885 H 0.60284 0.04994 0.90475 0.0
H2886 H 0.57116 0.04058 0.91171 0.0
H2887 H 0.47761 0.95958 0.95002 0.0
H2888 H 0.48634 0.96731 0.92505 0.0
H2889 H 0.53463 0.02172 0.94241 0.0
H2890 H 0.52605 0.01369 0.96722 0.0
H2891 H 0.54361 0.00682 0.92008 0.0
H2892 H 0.49292 0.01858 0.92906 0.0
H2893 H 0.46139 0.00946 0.93638 0.0
H2894 H 0.43634 0.96414 0.90109 0.0
H2895 H 0.46773 0.97282 0.89368 0.0
C2896 C 0.5459 0.04241 0.85664 0.0
C2897 C 0.53367 0.03039 0.84456 0.0
C2898 C 0.54295 0.03631 0.87078 0.0
C2899 C 0.52791 0.01794 0.87303 0.0
C2900 C 0.51594 0.00577 0.86092 0.0
C2901 C 0.51876 0.01195 0.84682 0.0
C2902 C 0.52395 0.01178 0.88806 0.0
C2903 C 0.50602 0.00611 0.89247 0.0
C2904 C 0.53773 0.01216 0.89816 0.0
C2905 C 0.5568 0.01761 0.8941 0.0
C2906 C 0.55923 0.00772 0.88201 0.0
C2907 C 0.57726 0.01313 0.87814 0.0
C2908 C 0.59297 0.02834 0.88632 0.0
C2909 C 0.59069 0.03813 0.89843 0.0
C2910 C 0.5727 0.03276 0.90236 0.0
C2911 C 0.49023 0.97304 0.94846 0.0
C2912 C 0.50139 0.98595 0.96054 0.0
C2913 C 0.49516 0.97749 0.93422 0.0
C2914 C 0.51101 0.99523 0.93184 0.0
C2915 C 0.52241 0.0079 0.94396 0.0
C2916 C 0.51762 0.00325 0.95817 0.0
C2917 C 0.5152 0.00109 0.91677 0.0
C2918 C 0.53317 0.00686 0.9124 0.0
C2919 C 0.50154 0.00101 0.90672 0.0
C2920 C 0.48267 0.99623 0.91091 0.0
C2921 C 0.48069 0.00663 0.9229 0.0
C2922 C 0.46285 0.00154 0.92706 0.0
C2923 C 0.4469 0.98617 0.91923 0.0
C2924 C 0.44873 0.976 0.90715 0.0
C2925 C 0.46652 0.98101 0.90296 0.0
H2926 H 0.4331 0.98208 0.92251 0.0
H2927 H 0.60689 0.03251 0.88327 0.0
H2928 H 0.17123 0.30617 0.49232 0.0
H2929 H 0.17783 0.31778 0.46809 0.0
H2930 H 0.15051 0.35123 0.47554 0.0
H2931 H 0.14404 0.33982 0.50008 0.0
H2932 H 0.1386 0.33025 0.44928 0.0
H2933 H 0.19766 0.37446 0.47465 0.0
H2934 H 0.22614 0.38502 0.49127 0.0
H2935 H 0.24186 0.35126 0.46366 0.0
H2936 H 0.21334 0.34024 0.44698 0.0
H2937 H 0.16141 0.3593 0.37705 0.0
H2938 H 0.15813 0.36023 0.40349 0.0
H2939 H 0.19145 0.33264 0.40945 0.0
H2940 H 0.19603 0.33338 0.38332 0.0
H2941 H 0.20141 0.35792 0.43049 0.0
H2942 H 0.13867 0.30868 0.40852 0.0
H2943 H 0.1098 0.29757 0.3925 0.0
H2944 H 0.10104 0.34116 0.41415 0.0
H2945 H 0.12999 0.35247 0.43043 0.0
C2946 C 0.16695 0.31632 0.48898 0.0
C2947 C 0.15723 0.32218 0.49822 0.0
C2948 C 0.17073 0.32294 0.47509 0.0
C2949 C 0.16494 0.33562 0.47009 0.0
C2950 C 0.1552 0.34153 0.47923 0.0
C2951 C 0.15143 0.33492 0.4932 0.0
C2952 C 0.16807 0.34154 0.45494 0.0
C2953 C 0.15239 0.33667 0.44522 0.0
C2954 C 0.18603 0.34978 0.44963 0.0
C2955 C 0.20328 0.35644 0.45959 0.0
C2956 C 0.20712 0.36917 0.47217 0.0
C2957 C 0.22329 0.37526 0.4816 0.0
C2958 C 0.23579 0.3688 0.47854 0.0
C2959 C 0.23217 0.35626 0.46602 0.0
C2960 C 0.21601 0.35011 0.45656 0.0
C2961 C 0.16796 0.35344 0.38409 0.0
C2962 C 0.17892 0.34624 0.37827 0.0
C2963 C 0.16602 0.35386 0.39918 0.0
C2964 C 0.17426 0.34619 0.40857 0.0
C2965 C 0.18503 0.33877 0.40257 0.0
C2966 C 0.18755 0.33906 0.38762 0.0
C2967 C 0.17178 0.34564 0.4246 0.0
C2968 C 0.18763 0.3517 0.43454 0.0
C2969 C 0.15398 0.33847 0.43014 0.0
C2970 C 0.13657 0.33157 0.42049 0.0
C2971 C 0.13067 0.316 0.40975 0.0
C2972 C 0.11433 0.30975 0.40057 0.0
C2973 C 0.1037 0.31889 0.40209 0.0
C2974 C 0.10936 0.33421 0.41289 0.0
C2975 C 0.1257 0.34051 0.42213 0.0
H2976 H 0.09092 0.31395 0.39512 0.0
H2977 H 0.24829 0.37352 0.48585 0.0
H2978 H 0.6796 0.85538 0.50038 0.0
H2979 H 0.6704 0.85129 0.47411 0.0
H2980 H 0.70318 0.82372 0.46623 0.0
H2981 H 0.71301 0.82841 0.49248 0.0
H2982 H 0.70956 0.85031 0.44737 0.0
H2983 H 0.65529 0.79708 0.46403 0.0
H2984 H 0.62909 0.78086 0.47953 0.0
H2985 H 0.60619 0.81571 0.4649 0.0
H2986 H 0.63241 0.83233 0.44945 0.0
H2987 H 0.66349 0.81061 0.37342 0.0
H2988 H 0.67256 0.81154 0.39953 0.0
H2989 H 0.6593 0.85655 0.40956 0.0
H2990 H 0.65157 0.85671 0.38341 0.0
H2991 H 0.64319 0.81941 0.42687 0.0
H2992 H 0.69779 0.87219 0.40968 0.0
H2993 H 0.72437 0.88847 0.39465 0.0
H2994 H 0.7482 0.85552 0.41153 0.0
H2995 H 0.72095 0.83788 0.42577 0.0
C2996 C 0.68491 0.8485 0.49306 0.0
C2997 C 0.69705 0.84224 0.49852 0.0
C2998 C 0.67948 0.84599 0.47806 0.0
C2999 C 0.68594 0.837 0.46823 0.0
C3000 C 0.69797 0.83062 0.47364 0.0
C3001 C 0.70344 0.83316 0.48865 0.0
C3002 C 0.68068 0.83496 0.45225 0.0
C3003 C 0.69505 0.84323 0.44282 0.0
C3004 C 0.66173 0.82607 0.44643 0.0
C3005 C 0.64591 0.81606 0.45568 0.0
C3006 C 0.64475 0.80139 0.4642 0.0
C3007 C 0.62988 0.79211 0.47297 0.0
C3008 C 0.61601 0.79728 0.47323 0.0
C3009 C 0.61696 0.81172 0.4647 0.0
C3010 C 0.63181 0.82107 0.45592 0.0
C3011 C 0.66287 0.82094 0.38117 0.0
C3012 C 0.65731 0.83393 0.3764 0.0
C3013 C 0.6679 0.82135 0.39605 0.0
C3014 C 0.66677 0.83427 0.40635 0.0
C3015 C 0.66037 0.8466 0.40169 0.0
C3016 C 0.65596 0.84666 0.38679 0.0
C3017 C 0.67207 0.83483 0.42206 0.0
C3018 C 0.65769 0.82628 0.4314 0.0
C3019 C 0.69103 0.8434 0.42777 0.0
C3020 C 0.70694 0.85326 0.41851 0.0
C3021 C 0.70829 0.86786 0.4098 0.0
C3022 C 0.72354 0.87739 0.40142 0.0
C3023 C 0.73786 0.87286 0.40199 0.0
C3024 C 0.73693 0.85877 0.41091 0.0
C3025 C 0.72149 0.84887 0.41902 0.0
H3026 H 0.74975 0.88039 0.39562 0.0
H3027 H 0.60451 0.79008 0.48002 0.0
H3028 H 0.17331 0.86412 0.49395 0.0
H3029 H 0.17962 0.85949 0.46878 0.0
H3030 H 0.12057 0.82045 0.45715 0.0
H3031 H 0.11392 0.82563 0.4822 0.0
H3032 H 0.14719 0.80849 0.44587 0.0
H3033 H 0.13388 0.86173 0.44631 0.0
H3034 H 0.13799 0.89286 0.45685 0.0
H3035 H 0.19726 0.92051 0.45272 0.0
H3036 H 0.19347 0.88947 0.44225 0.0
H3037 H 0.15036 0.80741 0.36865 0.0
H3038 H 0.14219 0.8086 0.39379 0.0
H3039 H 0.19527 0.86145 0.40472 0.0
H3040 H 0.20256 0.86118 0.37919 0.0
H3041 H 0.17028 0.86553 0.41665 0.0
H3042 H 0.1847 0.81398 0.41496 0.0
H3043 H 0.18204 0.78316 0.40532 0.0
H3044 H 0.12376 0.75245 0.4132 0.0
H3045 H 0.12602 0.78315 0.42272 0.0
C3046 C 0.1616 0.85464 0.48606 0.0
C3047 C 0.14306 0.84547 0.49009 0.0
C3048 C 0.16528 0.85189 0.47171 0.0
C3049 C 0.15054 0.83976 0.46114 0.0
C3050 C 0.13211 0.82986 0.4652 0.0
C3051 C 0.12837 0.83279 0.47954 0.0
C3052 C 0.15441 0.83837 0.44569 0.0
C3053 C 0.15209 0.82085 0.43938 0.0
C3054 C 0.16115 0.85465 0.43743 0.0
C3055 C 0.1634 0.87333 0.44352 0.0
C3056 C 0.14778 0.87445 0.44768 0.0
C3057 C 0.15005 0.89207 0.45364 0.0
C3058 C 0.16787 0.90865 0.45546 0.0
C3059 C 0.18346 0.90765 0.45131 0.0
C3060 C 0.18126 0.89007 0.44533 0.0
C3061 C 0.16004 0.81948 0.37636 0.0
C3062 C 0.17683 0.83443 0.37193 0.0
C3063 C 0.15558 0.81995 0.39082 0.0
C3064 C 0.16821 0.83498 0.40128 0.0
C3065 C 0.18525 0.84971 0.39689 0.0
C3066 C 0.18948 0.84947 0.38233 0.0
C3067 C 0.16356 0.83568 0.4167 0.0
C3068 C 0.16557 0.85311 0.42305 0.0
C3069 C 0.15686 0.81936 0.42506 0.0
C3070 C 0.1555 0.80088 0.41943 0.0
C3071 C 0.17129 0.80067 0.41455 0.0
C3072 C 0.16986 0.78322 0.40912 0.0
C3073 C 0.15273 0.76586 0.40862 0.0
C3074 C 0.13701 0.76591 0.41359 0.0
C3075 C 0.13837 0.78332 0.41901 0.0
H3076 H 0.15164 0.75237 0.4044 0.0
H3077 H 0.1696 0.92228 0.46007 0.0
H3078 H 0.6263 0.79117 0.17716 0.0
H3079 H 0.63349 0.79396 0.20357 0.0
H3080 H 0.65018 0.85471 0.20587 0.0
H3081 H 0.64413 0.85234 0.17924 0.0
H3082 H 0.67409 0.8502 0.22238 0.0
H3083 H 0.60724 0.81982 0.21765 0.0
H3084 H 0.57483 0.79578 0.20797 0.0
H3085 H 0.58197 0.74982 0.22363 0.0
H3086 H 0.61452 0.77357 0.23321 0.0
H3087 H 0.67466 0.85728 0.30071 0.0
H3088 H 0.66612 0.85695 0.27458 0.0
H3089 H 0.65667 0.79877 0.267 0.0
H3090 H 0.66486 0.79892 0.29309 0.0
H3091 H 0.62809 0.80356 0.25372 0.0
H3092 H 0.69584 0.83515 0.25778 0.0
H3093 H 0.72778 0.86 0.26786 0.0
H3094 H 0.71804 0.90501 0.25374 0.0
H3095 H 0.68593 0.88041 0.24375 0.0
C3096 C 0.63175 0.80521 0.18321 0.0
C3097 C 0.63465 0.82154 0.17602 0.0
C3098 C 0.63557 0.80671 0.19838 0.0
C3099 C 0.64203 0.82446 0.20677 0.0
C3100 C 0.64508 0.84083 0.19964 0.0
C3101 C 0.64144 0.8394 0.18443 0.0
C3102 C 0.64607 0.82598 0.2229 0.0
C3103 C 0.66389 0.84022 0.22926 0.0
C3104 C 0.63288 0.8128 0.23188 0.0
C3105 C 0.61333 0.79846 0.2261 0.0
C3106 C 0.60193 0.80457 0.21895 0.0
C3107 C 0.58354 0.791 0.21349 0.0
C3108 C 0.57635 0.77128 0.21518 0.0
C3109 C 0.58755 0.7651 0.22234 0.0
C3110 C 0.60596 0.77861 0.22781 0.0
C3111 C 0.67059 0.8444 0.29345 0.0
C3112 C 0.67028 0.82809 0.29883 0.0
C3113 C 0.66584 0.84426 0.27856 0.0
C3114 C 0.6608 0.82783 0.26889 0.0
C3115 C 0.66042 0.81152 0.27431 0.0
C3116 C 0.66524 0.81169 0.28916 0.0
C3117 C 0.6561 0.82763 0.25307 0.0
C3118 C 0.63817 0.81363 0.24681 0.0
C3119 C 0.6691 0.84118 0.24422 0.0
C3120 C 0.68842 0.85596 0.25016 0.0
C3121 C 0.70046 0.85035 0.25693 0.0
C3122 C 0.7186 0.86439 0.26261 0.0
C3123 C 0.72492 0.88407 0.26148 0.0
C3124 C 0.71312 0.88976 0.25463 0.0
C3125 C 0.69495 0.87577 0.24895 0.0
H3126 H 0.73897 0.89492 0.26587 0.0
H3127 H 0.56211 0.7608 0.21095 0.0
H3128 H 0.2081 0.85534 0.17893 0.0
H3129 H 0.20034 0.85955 0.20384 0.0
H3130 H 0.17214 0.79755 0.20624 0.0
H3131 H 0.18004 0.79324 0.18157 0.0
H3132 H 0.15091 0.814 0.21464 0.0
H3133 H 0.2159 0.82805 0.22294 0.0
H3134 H 0.2497 0.84705 0.21984 0.0
H3135 H 0.25169 0.89877 0.23823 0.0
H3136 H 0.21777 0.88016 0.24107 0.0
H3137 H 0.13532 0.79985 0.2887 0.0
H3138 H 0.14408 0.80062 0.26356 0.0
H3139 H 0.18182 0.86258 0.27119 0.0
H3140 H 0.17405 0.86144 0.29669 0.0
H3141 H 0.19823 0.84953 0.25695 0.0
H3142 H 0.13684 0.84004 0.24944 0.0
H3143 H 0.10288 0.82524 0.2518 0.0
H3144 H 0.09348 0.77108 0.23132 0.0
H3145 H 0.12741 0.78548 0.22902 0.0
C3146 C 0.20044 0.84264 0.18484 0.0
C3147 C 0.19458 0.82394 0.17823 0.0
C3148 C 0.19598 0.84507 0.19904 0.0
C3149 C 0.18568 0.82885 0.20686 0.0
C3150 C 0.17999 0.81023 0.20034 0.0
C3151 C 0.18446 0.8078 0.18622 0.0
C3152 C 0.18037 0.83096 0.22174 0.0
C3153 C 0.16122 0.82165 0.22395 0.0
C3154 C 0.19383 0.84174 0.23369 0.0
C3155 C 0.21424 0.85276 0.23203 0.0
C3156 C 0.2235 0.8435 0.22619 0.0
C3157 C 0.24271 0.85422 0.2245 0.0
C3158 C 0.25283 0.87414 0.22881 0.0
C3159 C 0.24381 0.88336 0.23486 0.0
C3160 C 0.2246 0.87275 0.23648 0.0
C3161 C 0.14537 0.81361 0.28491 0.0
C3162 C 0.15393 0.83062 0.29446 0.0
C3163 C 0.15029 0.8141 0.27053 0.0
C3164 C 0.16329 0.83175 0.26529 0.0
C3165 C 0.17173 0.84879 0.2749 0.0
C3166 C 0.16724 0.84817 0.28942 0.0
C3167 C 0.16865 0.83228 0.25 0.0
C3168 C 0.1878 0.84205 0.24768 0.0
C3169 C 0.15515 0.82255 0.23784 0.0
C3170 C 0.1347 0.81381 0.23916 0.0
C3171 C 0.12754 0.82494 0.24553 0.0
C3172 C 0.1083 0.81663 0.24684 0.0
C3173 C 0.09604 0.79723 0.24174 0.0
C3174 C 0.10299 0.78611 0.23528 0.0
C3175 C 0.12223 0.79434 0.23395 0.0
H3176 H 0.08114 0.79082 0.24277 0.0
H3177 H 0.26766 0.88249 0.22747 0.0
H3178 H 0.16027 0.33994 0.1759 0.0
H3179 H 0.1518 0.32647 0.19958 0.0
H3180 H 0.20593 0.37074 0.21978 0.0
H3181 H 0.21455 0.38412 0.19617 0.0
H3182 H 0.19678 0.33673 0.2298 0.0
H3183 H 0.16704 0.37466 0.22331 0.0
H3184 H 0.14691 0.38538 0.21102 0.0
H3185 H 0.09894 0.32843 0.21177 0.0
H3186 H 0.11885 0.31731 0.22394 0.0
H3187 H 0.18197 0.34317 0.30393 0.0
H3188 H 0.18774 0.34821 0.27832 0.0
H3189 H 0.13227 0.29991 0.26512 0.0
H3190 H 0.12664 0.29489 0.29105 0.0
H3191 H 0.13983 0.33079 0.25034 0.0
H3192 H 0.1712 0.2951 0.26025 0.0
H3193 H 0.19244 0.28764 0.27482 0.0
H3194 H 0.23886 0.34429 0.26974 0.0
H3195 H 0.21775 0.35207 0.25536 0.0
C3196 C 0.17036 0.34676 0.18541 0.0
C3197 C 0.18806 0.36311 0.1842 0.0
C3198 C 0.16552 0.33906 0.19891 0.0
C3199 C 0.17819 0.34772 0.21148 0.0
C3200 C 0.196 0.36376 0.21022 0.0
C3201 C 0.20091 0.37139 0.19672 0.0
C3202 C 0.17279 0.34045 0.22605 0.0
C3203 C 0.1844 0.33557 0.23433 0.0
C3204 C 0.15644 0.33856 0.23186 0.0
C3205 C 0.14448 0.34508 0.22431 0.0
C3206 C 0.15224 0.36436 0.22069 0.0
C3207 C 0.14086 0.37053 0.2138 0.0
C3208 C 0.12167 0.35757 0.21056 0.0
C3209 C 0.11381 0.33843 0.21425 0.0
C3210 C 0.12514 0.33219 0.22115 0.0
C3211 C 0.17136 0.3332 0.29562 0.0
C3212 C 0.15426 0.3182 0.29944 0.0
C3213 C 0.17453 0.33619 0.28094 0.0
C3214 C 0.16063 0.32407 0.26978 0.0
C3215 C 0.14329 0.30925 0.27357 0.0
C3216 C 0.14011 0.30638 0.28833 0.0
C3217 C 0.16408 0.32764 0.25424 0.0
C3218 C 0.15207 0.33173 0.24573 0.0
C3219 C 0.18022 0.32914 0.24835 0.0
C3220 C 0.19295 0.32419 0.25668 0.0
C3221 C 0.18593 0.30596 0.26226 0.0
C3222 C 0.19793 0.30167 0.27051 0.0
C3223 C 0.217 0.31547 0.27321 0.0
C3224 C 0.22411 0.33357 0.26762 0.0
C3225 C 0.21215 0.33791 0.25939 0.0
H3226 H 0.22625 0.31215 0.27962 0.0
H3227 H 0.11287 0.36237 0.20523 0.0
H3228 H 0.76955 0.6231 0.81344 0.0
H3229 H 0.77682 0.64022 0.79122 0.0
H3230 H 0.83145 0.64521 0.79414 0.0
H3231 H 0.82501 0.62976 0.81693 0.0
H3232 H 0.83467 0.67724 0.78644 0.0
H3233 H 0.78968 0.60836 0.77139 0.0
H3234 H 0.75867 0.57892 0.77178 0.0
H3235 H 0.73181 0.60894 0.75459 0.0
H3236 H 0.76265 0.63868 0.75438 0.0
H3237 H 0.86402 0.68224 0.71567 0.0
H3238 H 0.85277 0.67352 0.73985 0.0
H3239 H 0.80407 0.67814 0.72733 0.0
H3240 H 0.81544 0.68699 0.70307 0.0
H3241 H 0.79417 0.64517 0.74014 0.0
H3242 H 0.83791 0.71203 0.75181 0.0
H3243 H 0.86797 0.74275 0.75223 0.0
H3244 H 0.89606 0.71799 0.77585 0.0
H3245 H 0.86622 0.68702 0.77539 0.0
C3246 C 0.78326 0.62816 0.80953 0.0
C3247 C 0.7966 0.62478 0.81697 0.0
C3248 C 0.78729 0.63773 0.79667 0.0
C3249 C 0.80453 0.64365 0.79079 0.0
C3250 C 0.81798 0.64067 0.79837 0.0
C3251 C 0.81414 0.63153 0.81134 0.0
C3252 C 0.80881 0.65271 0.77667 0.0
C3253 C 0.82587 0.67013 0.77631 0.0
C3254 C 0.79688 0.64398 0.76353 0.0
C3255 C 0.77845 0.62584 0.76311 0.0
C3256 C 0.77715 0.60872 0.7678 0.0
C3257 C 0.7596 0.59201 0.76805 0.0
C3258 C 0.74326 0.59215 0.76342 0.0
C3259 C 0.74446 0.60893 0.75836 0.0
C3260 C 0.76197 0.62571 0.75816 0.0
C3261 C 0.85108 0.6817 0.71818 0.0
C3262 C 0.84046 0.68508 0.70754 0.0
C3263 C 0.84464 0.6767 0.73197 0.0
C3264 C 0.82761 0.67527 0.73542 0.0
C3265 C 0.81721 0.6791 0.72488 0.0
C3266 C 0.82368 0.68412 0.71107 0.0
C3267 C 0.82051 0.66908 0.74988 0.0
C3268 C 0.80288 0.65236 0.7503 0.0
C3269 C 0.83181 0.67851 0.76312 0.0
C3270 C 0.84982 0.69715 0.76349 0.0
C3271 C 0.85052 0.71309 0.75701 0.0
C3272 C 0.86752 0.73056 0.75727 0.0
C3273 C 0.88391 0.73231 0.76404 0.0
C3274 C 0.88334 0.71661 0.7706 0.0
C3275 C 0.86638 0.6991 0.77037 0.0
H3276 H 0.89706 0.74585 0.76423 0.0
H3277 H 0.7297 0.57918 0.76355 0.0
H3278 H 0.36758 0.20171 0.83437 0.0
H3279 H 0.35756 0.19793 0.80833 0.0
H3280 H 0.34931 0.14001 0.80479 0.0
H3281 H 0.35844 0.14321 0.83107 0.0
H3282 H 0.37138 0.16576 0.78279 0.0
H3283 H 0.31236 0.14194 0.80397 0.0
H3284 H 0.291 0.14356 0.82113 0.0
H3285 H 0.29823 0.19558 0.80367 0.0
H3286 H 0.31986 0.19444 0.78655 0.0
H3287 H 0.32474 0.14052 0.71009 0.0
H3288 H 0.33315 0.14011 0.7361 0.0
H3289 H 0.33397 0.19408 0.74588 0.0
H3290 H 0.32599 0.19471 0.71993 0.0
H3291 H 0.31476 0.16796 0.76485 0.0
H3292 H 0.3734 0.19336 0.74431 0.0
H3293 H 0.39735 0.19529 0.7284 0.0
H3294 H 0.39381 0.14444 0.74529 0.0
H3295 H 0.36932 0.14177 0.76095 0.0
C3296 C 0.36328 0.18798 0.82819 0.0
C3297 C 0.36374 0.17272 0.83491 0.0
C3298 C 0.35772 0.18594 0.81326 0.0
C3299 C 0.35269 0.16869 0.80471 0.0
C3300 C 0.35323 0.15346 0.81126 0.0
C3301 C 0.35854 0.15538 0.82626 0.0
C3302 C 0.34702 0.16676 0.78889 0.0
C3303 C 0.35881 0.16582 0.77878 0.0
C3304 C 0.33096 0.16753 0.78384 0.0
C3305 C 0.31787 0.16819 0.79406 0.0
C3306 C 0.30953 0.15382 0.80387 0.0
C3307 C 0.29734 0.15463 0.81358 0.0
C3308 C 0.29329 0.16969 0.81351 0.0
C3309 C 0.30139 0.18394 0.80372 0.0
C3310 C 0.3136 0.1832 0.794 0.0
C3311 C 0.32704 0.15241 0.71779 0.0
C3312 C 0.32503 0.16779 0.71304 0.0
C3313 C 0.33172 0.15212 0.73261 0.0
C3314 C 0.33433 0.16715 0.74288 0.0
C3315 C 0.33202 0.18235 0.73814 0.0
C3316 C 0.32745 0.18268 0.72333 0.0
C3317 C 0.33914 0.16698 0.75863 0.0
C3318 C 0.32721 0.1676 0.76876 0.0
C3319 C 0.35526 0.16623 0.76368 0.0
C3320 C 0.36929 0.16721 0.75369 0.0
C3321 C 0.37743 0.18235 0.74444 0.0
C3322 C 0.39115 0.18362 0.73549 0.0
C3323 C 0.3971 0.17 0.73584 0.0
C3324 C 0.38916 0.15496 0.74501 0.0
C3325 C 0.37531 0.15352 0.75389 0.0
H3326 H 0.40791 0.17117 0.72906 0.0
H3327 H 0.28386 0.17029 0.82103 0.0
H3328 H 0.81548 0.14154 0.83081 0.0
H3329 H 0.82025 0.13644 0.80502 0.0
H3330 H 0.8403 0.19693 0.79983 0.0
H3331 H 0.83559 0.20211 0.82537 0.0
H3332 H 0.81063 0.17025 0.77905 0.0
H3333 H 0.87069 0.18269 0.80122 0.0
H3334 H 0.89099 0.17619 0.81784 0.0
H3335 H 0.86743 0.11878 0.79629 0.0
H3336 H 0.84679 0.12485 0.77965 0.0
H3337 H 0.84499 0.19015 0.71064 0.0
H3338 H 0.8405 0.18918 0.73667 0.0
H3339 H 0.83865 0.13403 0.73611 0.0
H3340 H 0.84484 0.13593 0.71008 0.0
H3341 H 0.85609 0.15288 0.76004 0.0
H3342 H 0.79742 0.14029 0.73695 0.0
H3343 H 0.7751 0.14492 0.72137 0.0
H3344 H 0.79366 0.20029 0.74485 0.0
H3345 H 0.81615 0.19599 0.76072 0.0
C3346 C 0.82103 0.15374 0.82416 0.0
C3347 C 0.82522 0.17224 0.8301 0.0
C3348 C 0.82384 0.15083 0.8095 0.0
C3349 C 0.83068 0.16634 0.80059 0.0
C3350 C 0.83508 0.18482 0.80657 0.0
C3351 C 0.83248 0.18776 0.82118 0.0
C3352 C 0.83208 0.16333 0.78473 0.0
C3353 C 0.82066 0.16659 0.77485 0.0
C3354 C 0.84461 0.15776 0.77933 0.0
C3355 C 0.85703 0.15414 0.78932 0.0
C3356 C 0.8697 0.16861 0.80012 0.0
C3357 C 0.8813 0.16502 0.80952 0.0
C3358 C 0.88046 0.14706 0.80816 0.0
C3359 C 0.86804 0.13267 0.79735 0.0
C3360 C 0.8564 0.13618 0.78793 0.0
C3361 C 0.84356 0.17778 0.71606 0.0
C3362 C 0.84506 0.16301 0.70838 0.0
C3363 C 0.84082 0.17713 0.73095 0.0
C3364 C 0.83857 0.1612 0.73837 0.0
C3365 C 0.84018 0.14641 0.73067 0.0
C3366 C 0.84363 0.14743 0.71581 0.0
C3367 C 0.83495 0.16038 0.75418 0.0
C3368 C 0.84587 0.15631 0.76411 0.0
C3369 C 0.82175 0.165 0.75968 0.0
C3370 C 0.80856 0.16786 0.74995 0.0
C3371 C 0.79692 0.15357 0.73869 0.0
C3372 C 0.78425 0.15616 0.72977 0.0
C3373 C 0.78305 0.17297 0.73199 0.0
C3374 C 0.79459 0.18728 0.74314 0.0
C3375 C 0.80727 0.18475 0.75213 0.0
H3376 H 0.7731 0.17487 0.72517 0.0
H3377 H 0.88945 0.14431 0.81544 0.0
H3378 H 0.28819 0.12398 0.51723 0.0
H3379 H 0.29781 0.12886 0.54342 0.0
H3380 H 0.28855 0.17749 0.54768 0.0
H3381 H 0.278 0.17219 0.52158 0.0
H3382 H 0.32348 0.18512 0.56083 0.0
H3383 H 0.25849 0.13822 0.56097 0.0
H3384 H 0.22892 0.10779 0.55335 0.0
H3385 H 0.25395 0.07463 0.56746 0.0
H3386 H 0.28378 0.10487 0.57493 0.0
H3387 H 0.34042 0.19394 0.63898 0.0
H3388 H 0.32655 0.1914 0.61408 0.0
H3389 H 0.32419 0.13655 0.60465 0.0
H3390 H 0.33679 0.13848 0.62979 0.0
H3391 H 0.2926 0.13383 0.59476 0.0
H3392 H 0.3585 0.18068 0.59218 0.0
H3393 H 0.38817 0.21111 0.59967 0.0
H3394 H 0.36141 0.24422 0.59019 0.0
H3395 H 0.33151 0.21395 0.58281 0.0
C3396 C 0.28779 0.13548 0.52374 0.0
C3397 C 0.2822 0.14762 0.51724 0.0
C3398 C 0.29341 0.1383 0.53871 0.0
C3399 C 0.29373 0.15341 0.54748 0.0
C3400 C 0.28835 0.1657 0.54108 0.0
C3401 C 0.28247 0.16273 0.52613 0.0
C3402 C 0.30026 0.15663 0.56323 0.0
C3403 C 0.31659 0.17405 0.56833 0.0
C3404 C 0.29134 0.14206 0.57291 0.0
C3405 C 0.27345 0.12383 0.56835 0.0
C3406 C 0.25776 0.12444 0.5623 0.0
C3407 C 0.24093 0.10722 0.55804 0.0
C3408 C 0.23958 0.08928 0.55987 0.0
C3409 C 0.25503 0.08853 0.56601 0.0
C3410 C 0.27189 0.10571 0.57027 0.0
C3411 C 0.33661 0.18123 0.63162 0.0
C3412 C 0.33925 0.16623 0.63633 0.0
C3413 C 0.32898 0.17991 0.61735 0.0
C3414 C 0.32441 0.16381 0.60745 0.0
C3415 C 0.32751 0.14905 0.6121 0.0
C3416 C 0.33486 0.15025 0.62642 0.0
C3417 C 0.31622 0.16208 0.59228 0.0
C3418 C 0.29947 0.14497 0.5873 0.0
C3419 C 0.32479 0.1769 0.5827 0.0
C3420 C 0.34276 0.19507 0.58709 0.0
C3421 C 0.35893 0.19445 0.59179 0.0
C3422 C 0.37578 0.21166 0.596 0.0
C3423 C 0.37667 0.22958 0.59544 0.0
C3424 C 0.3607 0.23033 0.59063 0.0
C3425 C 0.34381 0.21316 0.58643 0.0
H3426 H 0.38973 0.24289 0.5987 0.0
H3427 H 0.22654 0.07597 0.55654 0.0
H3428 H 0.83668 0.12865 0.51179 0.0
H3429 H 0.83196 0.13374 0.53736 0.0
H3430 H 0.85686 0.19522 0.53339 0.0
H3431 H 0.86156 0.19022 0.50768 0.0
H3432 H 0.87021 0.18832 0.5584 0.0
H3433 H 0.81002 0.16764 0.534 0.0
H3434 H 0.78164 0.14665 0.51734 0.0
H3435 H 0.76866 0.09868 0.54306 0.0
H3436 H 0.79713 0.11931 0.55977 0.0
H3437 H 0.80777 0.17794 0.62295 0.0
H3438 H 0.81293 0.179 0.59685 0.0
H3439 H 0.8549 0.16249 0.60481 0.0
H3440 H 0.84963 0.16136 0.63091 0.0
H3441 H 0.80764 0.15091 0.57724 0.0
H3442 H 0.88866 0.18369 0.57973 0.0
H3443 H 0.91652 0.20562 0.59648 0.0
H3444 H 0.88725 0.23258 0.61465 0.0
H3445 H 0.85943 0.21139 0.59752 0.0
C3446 C 0.84094 0.14323 0.51629 0.0
C3447 C 0.84937 0.15902 0.50768 0.0
C3448 C 0.83827 0.14612 0.53091 0.0
C3449 C 0.84386 0.16483 0.53721 0.0
C3450 C 0.85245 0.18067 0.52872 0.0
C3451 C 0.85515 0.17779 0.51406 0.0
C3452 C 0.84091 0.16775 0.55274 0.0
C3453 C 0.85654 0.18023 0.56254 0.0
C3454 C 0.82299 0.15744 0.55805 0.0
C3455 C 0.80579 0.145 0.54808 0.0
C3456 C 0.80119 0.15258 0.53605 0.0
C3457 C 0.78507 0.14075 0.52661 0.0
C3458 C 0.77337 0.12133 0.52913 0.0
C3459 C 0.77774 0.11372 0.54112 0.0
C3460 C 0.79386 0.12548 0.55059 0.0
C3461 C 0.81823 0.17474 0.61912 0.0
C3462 C 0.8287 0.17008 0.62894 0.0
C3463 C 0.82113 0.17529 0.60423 0.0
C3464 C 0.83448 0.17108 0.59891 0.0
C3465 C 0.84485 0.16625 0.60873 0.0
C3466 C 0.84199 0.16579 0.62365 0.0
C3467 C 0.83704 0.17107 0.58302 0.0
C3468 C 0.82132 0.15913 0.57313 0.0
C3469 C 0.85483 0.18213 0.57763 0.0
C3470 C 0.87181 0.19568 0.58748 0.0
C3471 C 0.88819 0.19441 0.58719 0.0
C3472 C 0.904 0.20673 0.59676 0.0
C3473 C 0.90355 0.22029 0.60677 0.0
C3474 C 0.88749 0.22194 0.60697 0.0
C3475 C 0.87172 0.20982 0.59729 0.0
H3476 H 0.91561 0.22944 0.61442 0.0
H3477 H 0.7609 0.1122 0.52181 0.0
H3478 H 0.87252 0.7426 0.53914 0.0
H3479 H 0.86524 0.72558 0.56148 0.0
H3480 H 0.8709 0.67957 0.53995 0.0
H3481 H 0.87799 0.69643 0.51751 0.0
H3482 H 0.83883 0.66589 0.554 0.0
H3483 H 0.90363 0.71136 0.56379 0.0
H3484 H 0.93193 0.74364 0.5658 0.0
H3485 H 0.91154 0.7621 0.60184 0.0
H3486 H 0.88244 0.7303 0.59943 0.0
H3487 H 0.85266 0.65134 0.63711 0.0
H3488 H 0.86497 0.66168 0.61336 0.0
H3489 H 0.81529 0.66395 0.59973 0.0
H3490 H 0.80322 0.65408 0.62355 0.0
H3491 H 0.87339 0.69606 0.60276 0.0
H3492 H 0.80555 0.65249 0.56304 0.0
H3493 H 0.77697 0.62017 0.56036 0.0
H3494 H 0.80596 0.59689 0.58468 0.0
H3495 H 0.83479 0.62899 0.58732 0.0
C3496 C 0.87221 0.72886 0.53919 0.0
C3497 C 0.87581 0.72082 0.52661 0.0
C3498 C 0.86819 0.71923 0.55196 0.0
C3499 C 0.86768 0.70141 0.55237 0.0
C3500 C 0.8713 0.69336 0.53985 0.0
C3501 C 0.87546 0.70305 0.52709 0.0
C3502 C 0.86265 0.69085 0.56572 0.0
C3503 C 0.84643 0.67245 0.56465 0.0
C3504 C 0.87288 0.6993 0.57955 0.0
C3505 C 0.8906 0.71842 0.58125 0.0
C3506 C 0.90497 0.72236 0.57199 0.0
C3507 C 0.92118 0.74064 0.57319 0.0
C3508 C 0.92354 0.75497 0.5839 0.0
C3509 C 0.90965 0.75104 0.59346 0.0
C3510 C 0.89321 0.7329 0.59212 0.0
C3511 C 0.84442 0.65404 0.62898 0.0
C3512 C 0.82724 0.65234 0.63216 0.0
C3513 C 0.85139 0.65982 0.61545 0.0
C3514 C 0.84103 0.66356 0.60482 0.0
C3515 C 0.8234 0.66093 0.60774 0.0
C3516 C 0.81651 0.65528 0.62131 0.0
C3517 C 0.84913 0.67157 0.59107 0.0
C3518 C 0.86594 0.68947 0.59206 0.0
C3519 C 0.83954 0.66265 0.57717 0.0
C3520 C 0.82231 0.64321 0.57546 0.0
C3521 C 0.80587 0.64046 0.56775 0.0
C3522 C 0.78961 0.62218 0.56625 0.0
C3523 C 0.78963 0.6065 0.57238 0.0
C3524 C 0.80594 0.60906 0.57998 0.0
C3525 C 0.82223 0.6273 0.5815 0.0
H3526 H 0.77703 0.59236 0.57121 0.0
H3527 H 0.93619 0.76906 0.58488 0.0
loop_
_geom_bond_atom_site_label_1
_geom_bond_atom_site_label_2
_geom_bond_distance
_geom_bond_site_symmetry_2
_ccdc_geom_bond_type
C0 C1 1.384 . S
C0 H13 0.947 . S
C0 C35 1.382 . S
C1 C0 1.384 . S
C1 C2 1.378 . S
C2 C1 1.378 . S
C2 C3 1.378 . S
C2 H14 0.952 . S
C3 C2 1.378 . S
C3 H15 0.950 . S
C3 C34 1.383 . S
H4 C23 0.947 . S
H5 C24 0.946 . S
H6 C26 0.953 . S
H7 C27 0.945 . S
H8 C29 0.952 . S
H9 C30 0.949 . S
H10 C32 0.950 . S
H11 C33 0.948 . S
H12 C35 0.951 . S
H13 C0 0.947 . S
H14 C2 0.952 . S
H15 C3 0.950 . S
N16 C19 1.382 . S
N16 C21 1.363 . S
N17 C19 1.371 . S
N17 C20 1.372 . S
N18 C20 1.361 . S
N18 C21 1.377 . S
C19 N16 1.382 . S
C19 N17 1.371 . S
C19 C22 1.480 . S
C20 N17 1.372 . S
C20 N18 1.361 . S
C20 C28 1.457 . S
C21 N16 1.363 . S
C21 N18 1.377 . S
C21 C34 1.479 . S
C22 C19 1.480 . S
C22 C23 1.383 . S
C22 C27 1.385 . S
C23 H4 0.947 . S
C23 C22 1.383 . S
C23 C24 1.388 . S
C24 H5 0.946 . S
C24 C23 1.388 . S
C24 C25 1.384 . S
C25 C24 1.384 . S
C25 C26 1.377 . S
C26 H6 0.953 . S
C26 C25 1.377 . S
C26 C27 1.369 . S
C27 H7 0.945 . S
C27 C22 1.385 . S
C27 C26 1.369 . S
C28 C20 1.457 . S
C28 C29 1.372 . S
C28 C33 1.364 . S
C29 H8 0.952 . S
C29 C28 1.372 . S
C29 C30 1.389 . S
C30 H9 0.949 . S
C30 C29 1.389 . S
C30 C31 1.387 . S
C31 C30 1.387 . S
C31 C32 1.372 . S
C32 H10 0.950 . S
C32 C31 1.372 . S
C32 C33 1.379 . S
C33 H11 0.948 . S
C33 C28 1.364 . S
C33 C32 1.379 . S
C34 C3 1.383 . S
C34 C21 1.479 . S
C34 C35 1.398 . S
C35 C0 1.382 . S
C35 H12 0.951 . S
C35 C34 1.398 . S
C36 C37 1.384 . S
C36 H49 0.947 . S
C36 C71 1.382 . S
C37 C36 1.384 . S
C37 C38 1.378 . S
C38 C37 1.378 . S
C38 C39 1.378 . S
C38 H50 0.952 . S
C39 C38 1.378 . S
C39 H51 0.950 . S
C39 C70 1.383 . S
H40 C59 0.947 . S
H41 C60 0.946 . S
H42 C62 0.953 . S
H43 C63 0.945 . S
H44 C65 0.952 . S
H45 C66 0.949 . S
H46 C68 0.950 . S
H47 C69 0.948 . S
H48 C71 0.951 . S
H49 C36 0.947 . S
H50 C38 0.952 . S
H51 C39 0.950 . S
N52 C55 1.382 . S
N52 C57 1.363 . S
N53 C55 1.371 . S
N53 C56 1.372 . S
N54 C56 1.361 . S
N54 C57 1.377 . S
C55 N52 1.382 . S
C55 N53 1.371 . S
C55 C58 1.480 . S
C56 N53 1.372 . S
C56 N54 1.361 . S
C56 C64 1.457 . S
C57 N52 1.363 . S
C57 N54 1.377 . S
C57 C70 1.479 . S
C58 C55 1.480 . S
C58 C59 1.383 . S
C58 C63 1.385 . S
C59 H40 0.947 . S
C59 C58 1.383 . S
C59 C60 1.388 . S
C60 H41 0.946 . S
C60 C59 1.388 . S
C60 C61 1.384 . S
C61 C60 1.384 . S
C61 C62 1.377 . S
C62 H42 0.953 . S
C62 C61 1.377 . S
C62 C63 1.369 . S
C63 H43 0.945 . S
C63 C58 1.385 . S
C63 C62 1.369 . S
C64 C56 1.457 . S
C64 C65 1.372 . S
C64 C69 1.364 . S
C65 H44 0.952 . S
C65 C64 1.372 . S
C65 C66 1.389 . S
C66 H45 0.949 . S
C66 C65 1.389 . S
C66 C67 1.387 . S
C67 C66 1.387 . S
C67 C68 1.372 . S
C68 H46 0.950 . S
C68 C67 1.372 . S
C68 C69 1.379 . S
C69 H47 0.948 . S
C69 C64 1.364 . S
C69 C68 1.379 . S
C70 C39 1.383 . S
C70 C57 1.479 . S
C70 C71 1.398 . S
C71 C36 1.382 . S
C71 H48 0.951 . S
C71 C70 1.398 . S
C72 C73 1.384 . S
C72 H85 0.947 . S
C72 C107 1.382 . S
C73 C72 1.384 . S
C73 C74 1.378 . S
C74 C73 1.378 . S
C74 C75 1.378 . S
C74 H86 0.952 . S
C75 C74 1.378 . S
C75 H87 0.950 . S
C75 C106 1.383 . S
H76 C95 0.947 . S
H77 C96 0.946 . S
H78 C98 0.953 . S
H79 C99 0.945 . S
H80 C101 0.952 . S
H81 C102 0.949 . S
H82 C104 0.950 . S
H83 C105 0.948 . S
H84 C107 0.951 . S
H85 C72 0.947 . S
H86 C74 0.952 . S
H87 C75 0.950 . S
N88 C91 1.382 . S
N88 C93 1.363 . S
N89 C91 1.371 . S
N89 C92 1.372 . S
N90 C92 1.361 . S
N90 C93 1.377 . S
C91 N88 1.382 . S
C91 N89 1.371 . S
C91 C94 1.480 . S
C92 N89 1.372 . S
C92 N90 1.361 . S
C92 C100 1.457 . S
C93 N88 1.363 . S
C93 N90 1.377 . S
C93 C106 1.479 . S
C94 C91 1.480 . S
C94 C95 1.383 . S
C94 C99 1.385 . S
C95 H76 0.947 . S
C95 C94 1.383 . S
C95 C96 1.388 . S
C96 H77 0.946 . S
C96 C95 1.388 . S
C96 C97 1.384 . S
C97 C96 1.384 . S
C97 C98 1.377 . S
C98 H78 0.953 . S
C98 C97 1.377 . S
C98 C99 1.369 . S
C99 H79 0.945 . S
C99 C94 1.385 . S
C99 C98 1.369 . S
C100 C92 1.457 . S
C100 C101 1.372 . S
C100 C105 1.364 . S
C101 H80 0.952 . S
C101 C100 1.372 . S
C101 C102 1.389 . S
C102 H81 0.949 . S
C102 C101 1.389 . S
C102 C103 1.387 . S
C103 C102 1.387 . S
C103 C104 1.372 . S
C104 H82 0.950 . S
C104 C103 1.372 . S
C104 C105 1.379 . S
C105 H83 0.948 . S
C105 C100 1.364 . S
C105 C104 1.379 . S
C106 C75 1.383 . S
C106 C93 1.479 . S
C106 C107 1.398 . S
C107 C72 1.382 . S
C107 H84 0.951 . S
C107 C106 1.398 . S
C108 C109 1.384 . S
C108 H121 0.947 . S
C108 C143 1.382 . S
C109 C108 1.384 . S
C109 C110 1.378 . S
C110 C109 1.378 . S
C110 C111 1.378 . S
C110 H122 0.952 . S
C111 C110 1.378 . S
C111 H123 0.950 . S
C111 C142 1.383 . S
H112 C131 0.947 . S
H113 C132 0.946 . S
H114 C134 0.953 . S
H115 C135 0.945 . S
H116 C137 0.952 . S
H117 C138 0.949 . S
H118 C140 0.950 . S
H119 C141 0.948 . S
H120 C143 0.951 . S
H121 C108 0.947 . S
H122 C110 0.952 . S
H123 C111 0.950 . S
N124 C127 1.382 . S
N124 C129 1.363 . S
N125 C127 1.371 . S
N125 C128 1.372 . S
N126 C128 1.361 . S
N126 C129 1.377 . S
C127 N124 1.382 . S
C127 N125 1.371 . S
C127 C130 1.480 . S
C128 N125 1.372 . S
C128 N126 1.361 . S
C128 C136 1.457 . S
C129 N124 1.363 . S
C129 N126 1.377 . S
C129 C142 1.479 . S
C130 C127 1.480 . S
C130 C131 1.383 . S
C130 C135 1.385 . S
C131 H112 0.947 . S
C131 C130 1.383 . S
C131 C132 1.388 . S
C132 H113 0.946 . S
C132 C131 1.388 . S
C132 C133 1.384 . S
C133 C132 1.384 . S
C133 C134 1.377 . S
C134 H114 0.953 . S
C134 C133 1.377 . S
C134 C135 1.369 . S
C135 H115 0.945 . S
C135 C130 1.385 . S
C135 C134 1.369 . S
C136 C128 1.457 . S
C136 C137 1.372 . S
C136 C141 1.364 . S
C137 H116 0.952 . S
C137 C136 1.372 . S
C137 C138 1.389 . S
C138 H117 0.949 . S
C138 C137 1.389 . S
C138 C139 1.387 . S
C139 C138 1.387 . S
C139 C140 1.372 . S
C140 H118 0.950 . S
C140 C139 1.372 . S
C140 C141 1.379 . S
C141 H119 0.948 . S
C141 C136 1.364 . S
C141 C140 1.379 . S
C142 C111 1.383 . S
C142 C129 1.479 . S
C142 C143 1.398 . S
C143 C108 1.382 . S
C143 H120 0.951 . S
C143 C142 1.398 . S
C144 C145 1.384 . S
C144 H157 0.947 . S
C144 C179 1.382 . S
C145 C144 1.384 . S
C145 C146 1.378 . S
C146 C145 1.378 . S
C146 C147 1.378 . S
C146 H158 0.952 . S
C147 C146 1.378 . S
C147 H159 0.950 . S
C147 C178 1.383 . S
H148 C167 0.947 . S
H149 C168 0.946 . S
H150 C170 0.953 . S
H151 C171 0.945 . S
H152 C173 0.952 . S
H153 C174 0.949 . S
H154 C176 0.950 . S
H155 C177 0.948 . S
H156 C179 0.951 . S
H157 C144 0.947 . S
H158 C146 0.952 . S
H159 C147 0.950 . S
N160 C163 1.382 . S
N160 C165 1.363 . S
N161 C163 1.371 . S
N161 C164 1.372 . S
N162 C164 1.361 . S
N162 C165 1.377 . S
C163 N160 1.382 . S
C163 N161 1.371 . S
C163 C166 1.480 . S
C164 N161 1.372 . S
C164 N162 1.361 . S
C164 C172 1.457 . S
C165 N160 1.363 . S
C165 N162 1.377 . S
C165 C178 1.479 . S
C166 C163 1.480 . S
C166 C167 1.383 . S
C166 C171 1.385 . S
C167 H148 0.947 . S
C167 C166 1.383 . S
C167 C168 1.388 . S
C168 H149 0.946 . S
C168 C167 1.388 . S
C168 C169 1.384 . S
C169 C168 1.384 . S
C169 C170 1.377 . S
C170 H150 0.953 . S
C170 C169 1.377 . S
C170 C171 1.369 . S
C171 H151 0.945 . S
C171 C166 1.385 . S
C171 C170 1.369 . S
C172 C164 1.457 . S
C172 C173 1.372 . S
C172 C177 1.364 . S
C173 H152 0.952 . S
C173 C172 1.372 . S
C173 C174 1.389 . S
C174 H153 0.949 . S
C174 C173 1.389 . S
C174 C175 1.387 . S
C175 C174 1.387 . S
C175 C176 1.372 . S
C176 H154 0.950 . S
C176 C175 1.372 . S
C176 C177 1.379 . S
C177 H155 0.948 . S
C177 C172 1.364 . S
C177 C176 1.379 . S
C178 C147 1.383 . S
C178 C165 1.479 . S
C178 C179 1.398 . S
C179 C144 1.382 . S
C179 H156 0.951 . S
C179 C178 1.398 . S
C180 C181 1.384 . S
C180 H193 0.947 . S
C180 C215 1.382 . S
C181 C180 1.384 . S
C181 C182 1.378 . S
C182 C181 1.378 . S
C182 C183 1.378 . S
C182 H194 0.952 . S
C183 C182 1.378 . S
C183 H195 0.950 . S
C183 C214 1.383 . S
H184 C203 0.947 . S
H185 C204 0.946 . S
H186 C206 0.953 . S
H187 C207 0.945 . S
H188 C209 0.952 . S
H189 C210 0.949 . S
H190 C212 0.950 . S
H191 C213 0.948 . S
H192 C215 0.951 . S
H193 C180 0.947 . S
H194 C182 0.952 . S
H195 C183 0.950 . S
N196 C199 1.382 . S
N196 C201 1.363 . S
N197 C199 1.371 . S
N197 C200 1.372 . S
N198 C200 1.361 . S
N198 C201 1.377 . S
C199 N196 1.382 . S
C199 N197 1.371 . S
C199 C202 1.480 . S
C200 N197 1.372 . S
C200 N198 1.361 . S
C200 C208 1.457 . S
C201 N196 1.363 . S
C201 N198 1.377 . S
C201 C214 1.479 . S
C202 C199 1.480 . S
C202 C203 1.383 . S
C202 C207 1.385 . S
C203 H184 0.947 . S
C203 C202 1.383 . S
C203 C204 1.388 . S
C204 H185 0.946 . S
C204 C203 1.388 . S
C204 C205 1.384 . S
C205 C204 1.384 . S
C205 C206 1.377 . S
C206 H186 0.953 . S
C206 C205 1.377 . S
C206 C207 1.369 . S
C207 H187 0.945 . S
C207 C202 1.385 . S
C207 C206 1.369 . S
C208 C200 1.457 . S
C208 C209 1.372 . S
C208 C213 1.364 . S
C209 H188 0.952 . S
C209 C208 1.372 . S
C209 C210 1.389 . S
C210 H189 0.949 . S
C210 C209 1.389 . S
C210 C211 1.387 . S
C211 C210 1.387 . S
C211 C212 1.372 . S
C212 H190 0.950 . S
C212 C211 1.372 . S
C212 C213 1.379 . S
C213 H191 0.948 . S
C213 C208 1.364 . S
C213 C212 1.379 . S
C214 C183 1.383 . S
C214 C201 1.479 . S
C214 C215 1.398 . S
C215 C180 1.382 . S
C215 H192 0.951 . S
C215 C214 1.398 . S
C216 C217 1.384 . S
C216 H229 0.947 . S
C216 C251 1.382 . S
C217 C216 1.384 . S
C217 C218 1.378 . S
C218 C217 1.378 . S
C218 C219 1.378 . S
C218 H230 0.952 . S
C219 C218 1.378 . S
C219 H231 0.950 . S
C219 C250 1.383 . S
H220 C239 0.947 . S
H221 C240 0.946 . S
H222 C242 0.953 . S
H223 C243 0.945 . S
H224 C245 0.952 . S
H225 C246 0.949 . S
H226 C248 0.950 . S
H227 C249 0.948 . S
H228 C251 0.951 . S
H229 C216 0.947 . S
H230 C218 0.952 . S
H231 C219 0.950 . S
N232 C235 1.382 . S
N232 C237 1.363 . S
N233 C235 1.371 . S
N233 C236 1.372 . S
N234 C236 1.361 . S
N234 C237 1.377 . S
C235 N232 1.382 . S
C235 N233 1.371 . S
C235 C238 1.480 . S
C236 N233 1.372 . S
C236 N234 1.361 . S
C236 C244 1.457 . S
C237 N232 1.363 . S
C237 N234 1.377 . S
C237 C250 1.479 . S
C238 C235 1.480 . S
C238 C239 1.383 . S
C238 C243 1.385 . S
C239 H220 0.947 . S
C239 C238 1.383 . S
C239 C240 1.388 . S
C240 H221 0.946 . S
C240 C239 1.388 . S
C240 C241 1.384 . S
C241 C240 1.384 . S
C241 C242 1.377 . S
C242 H222 0.953 . S
C242 C241 1.377 . S
C242 C243 1.369 . S
C243 H223 0.945 . S
C243 C238 1.385 . S
C243 C242 1.369 . S
C244 C236 1.457 . S
C244 C245 1.372 . S
C244 C249 1.364 . S
C245 H224 0.952 . S
C245 C244 1.372 . S
C245 C246 1.389 . S
C246 H225 0.949 . S
C246 C245 1.389 . S
C246 C247 1.387 . S
C247 C246 1.387 . S
C247 C248 1.372 . S
C248 H226 0.950 . S
C248 C247 1.372 . S
C248 C249 1.379 . S
C249 H227 0.948 . S
C249 C244 1.364 . S
C249 C248 1.379 . S
C250 C219 1.383 . S
C250 C237 1.479 . S
C250 C251 1.398 . S
C251 C216 1.382 . S
C251 H228 0.951 . S
C251 C250 1.398 . S
C252 C253 1.384 . S
C252 H265 0.947 . S
C252 C287 1.382 . S
C253 C252 1.384 . S
C253 C254 1.378 . S
C254 C253 1.378 . S
C254 C255 1.378 . S
C254 H266 0.952 . S
C255 C254 1.378 . S
C255 H267 0.950 . S
C255 C286 1.383 . S
H256 C275 0.947 . S
H257 C276 0.946 . S
H258 C278 0.953 . S
H259 C279 0.945 . S
H260 C281 0.952 . S
H261 C282 0.949 . S
H262 C284 0.950 . S
H263 C285 0.948 . S
H264 C287 0.951 . S
H265 C252 0.947 . S
H266 C254 0.952 . S
H267 C255 0.950 . S
N268 C271 1.382 . S
N268 C273 1.363 . S
N269 C271 1.371 . S
N269 C272 1.372 . S
N270 C272 1.361 . S
N270 C273 1.377 . S
C271 N268 1.382 . S
C271 N269 1.371 . S
C271 C274 1.480 . S
C272 N269 1.372 . S
C272 N270 1.361 . S
C272 C280 1.457 . S
C273 N268 1.363 . S
C273 N270 1.377 . S
C273 C286 1.479 . S
C274 C271 1.480 . S
C274 C275 1.383 . S
C274 C279 1.385 . S
C275 H256 0.947 . S
C275 C274 1.383 . S
C275 C276 1.388 . S
C276 H257 0.946 . S
C276 C275 1.388 . S
C276 C277 1.384 . S
C277 C276 1.384 . S
C277 C278 1.377 . S
C278 H258 0.953 . S
C278 C277 1.377 . S
C278 C279 1.369 . S
C279 H259 0.945 . S
C279 C274 1.385 . S
C279 C278 1.369 . S
C280 C272 1.457 . S
C280 C281 1.372 . S
C280 C285 1.364 . S
C281 H260 0.952 . S
C281 C280 1.372 . S
C281 C282 1.389 . S
C282 H261 0.949 . S
C282 C281 1.389 . S
C282 C283 1.387 . S
C283 C282 1.387 . S
C283 C284 1.372 . S
C284 H262 0.950 . S
C284 C283 1.372 . S
C284 C285 1.379 . S
C285 H263 0.948 . S
C285 C280 1.364 . S
C285 C284 1.379 . S
C286 C255 1.383 . S
C286 C273 1.479 . S
C286 C287 1.398 . S
C287 C252 1.382 . S
C287 H264 0.951 . S
C287 C286 1.398 . S
C288 C289 1.384 . S
C288 H301 0.947 . S
C288 C323 1.382 . S
C289 C288 1.384 . S
C289 C290 1.378 . S
C290 C289 1.378 . S
C290 C291 1.378 . S
C290 H302 0.952 . S
C291 C290 1.378 . S
C291 H303 0.950 . S
C291 C322 1.383 . S
H292 C311 0.947 . S
H293 C312 0.946 . S
H294 C314 0.953 . S
H295 C315 0.945 . S
H296 C317 0.952 . S
H297 C318 0.949 . S
H298 C320 0.950 . S
H299 C321 0.948 . S
H300 C323 0.951 . S
H301 C288 0.947 . S
H302 C290 0.952 . S
H303 C291 0.950 . S
N304 C307 1.382 . S
N304 C309 1.363 . S
N305 C307 1.371 . S
N305 C308 1.372 . S
N306 C308 1.361 . S
N306 C309 1.377 . S
C307 N304 1.382 . S
C307 N305 1.371 . S
C307 C310 1.480 . S
C308 N305 1.372 . S
C308 N306 1.361 . S
C308 C316 1.457 . S
C309 N304 1.363 . S
C309 N306 1.377 . S
C309 C322 1.479 . S
C310 C307 1.480 . S
C310 C311 1.383 . S
C310 C315 1.385 . S
C311 H292 0.947 . S
C311 C310 1.383 . S
C311 C312 1.388 . S
C312 H293 0.946 . S
C312 C311 1.388 . S
C312 C313 1.384 . S
C313 C312 1.384 . S
C313 C314 1.377 . S
C314 H294 0.953 . S
C314 C313 1.377 . S
C314 C315 1.369 . S
C315 H295 0.945 . S
C315 C310 1.385 . S
C315 C314 1.369 . S
C316 C308 1.457 . S
C316 C317 1.372 . S
C316 C321 1.364 . S
C317 H296 0.952 . S
C317 C316 1.372 . S
C317 C318 1.389 . S
C318 H297 0.949 . S
C318 C317 1.389 . S
C318 C319 1.387 . S
C319 C318 1.387 . S
C319 C320 1.372 . S
C320 H298 0.950 . S
C320 C319 1.372 . S
C320 C321 1.379 . S
C321 H299 0.948 . S
C321 C316 1.364 . S
C321 C320 1.379 . S
C322 C291 1.383 . S
C322 C309 1.479 . S
C322 C323 1.398 . S
C323 C288 1.382 . S
C323 H300 0.951 . S
C323 C322 1.398 . S
C324 C325 1.384 . S
C324 H337 0.947 . S
C324 C359 1.382 . S
C325 C324 1.384 . S
C325 C326 1.378 . S
C326 C325 1.378 . S
C326 C327 1.378 . S
C326 H338 0.952 . S
C327 C326 1.378 . S
C327 H339 0.950 . S
C327 C358 1.383 . S
H328 C347 0.947 . S
H329 C348 0.946 . S
H330 C350 0.953 . S
H331 C351 0.945 . S
H332 C353 0.952 . S
H333 C354 0.949 . S
H334 C356 0.950 . S
H335 C357 0.948 . S
H336 C359 0.951 . S
H337 C324 0.947 . S
H338 C326 0.952 . S
H339 C327 0.950 . S
N340 C343 1.382 . S
N340 C345 1.363 . S
N341 C343 1.371 . S
N341 C344 1.372 . S
N342 C344 1.361 . S
N342 C345 1.377 . S
C343 N340 1.382 . S
C343 N341 1.371 . S
C343 C346 1.480 . S
C344 N341 1.372 . S
C344 N342 1.361 . S
C344 C352 1.457 . S
C345 N340 1.363 . S
C345 N342 1.377 . S
C345 C358 1.479 . S
C346 C343 1.480 . S
C346 C347 1.383 . S
C346 C351 1.385 . S
C347 H328 0.947 . S
C347 C346 1.383 . S
C347 C348 1.388 . S
C348 H329 0.946 . S
C348 C347 1.388 . S
C348 C349 1.384 . S
C349 C348 1.384 . S
C349 C350 1.377 . S
C350 H330 0.953 . S
C350 C349 1.377 . S
C350 C351 1.369 . S
C351 H331 0.945 . S
C351 C346 1.385 . S
C351 C350 1.369 . S
C352 C344 1.457 . S
C352 C353 1.372 . S
C352 C357 1.364 . S
C353 H332 0.952 . S
C353 C352 1.372 . S
C353 C354 1.389 . S
C354 H333 0.949 . S
C354 C353 1.389 . S
C354 C355 1.387 . S
C355 C354 1.387 . S
C355 C356 1.372 . S
C356 H334 0.950 . S
C356 C355 1.372 . S
C356 C357 1.379 . S
C357 H335 0.948 . S
C357 C352 1.364 . S
C357 C356 1.379 . S
C358 C327 1.383 . S
C358 C345 1.479 . S
C358 C359 1.398 . S
C359 C324 1.382 . S
C359 H336 0.951 . S
C359 C358 1.398 . S
C360 C361 1.384 . S
C360 H373 0.947 . S
C360 C395 1.382 . S
C361 C360 1.384 . S
C361 C362 1.378 . S
C362 C361 1.378 . S
C362 C363 1.378 . S
C362 H374 0.952 . S
C363 C362 1.378 . S
C363 H375 0.950 . S
C363 C394 1.383 . S
H364 C383 0.947 . S
H365 C384 0.946 . S
H366 C386 0.953 . S
H367 C387 0.945 . S
H368 C389 0.952 . S
H369 C390 0.949 . S
H370 C392 0.950 . S
H371 C393 0.948 . S
H372 C395 0.951 . S
H373 C360 0.947 . S
H374 C362 0.952 . S
H375 C363 0.950 . S
N376 C379 1.382 . S
N376 C381 1.363 . S
N377 C379 1.371 . S
N377 C380 1.372 . S
N378 C380 1.361 . S
N378 C381 1.377 . S
C379 N376 1.382 . S
C379 N377 1.371 . S
C379 C382 1.480 . S
C380 N377 1.372 . S
C380 N378 1.361 . S
C380 C388 1.457 . S
C381 N376 1.363 . S
C381 N378 1.377 . S
C381 C394 1.479 . S
C382 C379 1.480 . S
C382 C383 1.383 . S
C382 C387 1.385 . S
C383 H364 0.947 . S
C383 C382 1.383 . S
C383 C384 1.388 . S
C384 H365 0.946 . S
C384 C383 1.388 . S
C384 C385 1.384 . S
C385 C384 1.384 . S
C385 C386 1.377 . S
C386 H366 0.953 . S
C386 C385 1.377 . S
C386 C387 1.369 . S
C387 H367 0.945 . S
C387 C382 1.385 . S
C387 C386 1.369 . S
C388 C380 1.457 . S
C388 C389 1.372 . S
C388 C393 1.364 . S
C389 H368 0.952 . S
C389 C388 1.372 . S
C389 C390 1.389 . S
C390 H369 0.949 . S
C390 C389 1.389 . S
C390 C391 1.387 . S
C391 C390 1.387 . S
C391 C392 1.372 . S
C392 H370 0.950 . S
C392 C391 1.372 . S
C392 C393 1.379 . S
C393 H371 0.948 . S
C393 C388 1.364 . S
C393 C392 1.379 . S
C394 C363 1.383 . S
C394 C381 1.479 . S
C394 C395 1.398 . S
C395 C360 1.382 . S
C395 H372 0.951 . S
C395 C394 1.398 . S
C396 C397 1.384 . S
C396 H409 0.947 . S
C396 C431 1.382 . S
C397 C396 1.384 . S
C397 C398 1.378 . S
C398 C397 1.378 . S
C398 C399 1.378 . S
C398 H410 0.952 . S
C399 C398 1.378 . S
C399 H411 0.950 . S
C399 C430 1.383 . S
H400 C419 0.947 . S
H401 C420 0.946 . S
H402 C422 0.953 . S
H403 C423 0.945 . S
H404 C425 0.952 . S
H405 C426 0.949 . S
H406 C428 0.950 . S
H407 C429 0.948 . S
H408 C431 0.951 . S
H409 C396 0.947 . S
H410 C398 0.952 . S
H411 C399 0.950 . S
N412 C415 1.382 . S
N412 C417 1.363 . S
N413 C415 1.371 . S
N413 C416 1.372 . S
N414 C416 1.361 . S
N414 C417 1.377 . S
C415 N412 1.382 . S
C415 N413 1.371 . S
C415 C418 1.480 . S
C416 N413 1.372 . S
C416 N414 1.361 . S
C416 C424 1.457 . S
C417 N412 1.363 . S
C417 N414 1.377 . S
C417 C430 1.479 . S
C418 C415 1.480 . S
C418 C419 1.383 . S
C418 C423 1.385 . S
C419 H400 0.947 . S
C419 C418 1.383 . S
C419 C420 1.388 . S
C420 H401 0.946 . S
C420 C419 1.388 . S
C420 C421 1.384 . S
C421 C420 1.384 . S
C421 C422 1.377 . S
C422 H402 0.953 . S
C422 C421 1.377 . S
C422 C423 1.369 . S
C423 H403 0.945 . S
C423 C418 1.385 . S
C423 C422 1.369 . S
C424 C416 1.457 . S
C424 C425 1.372 . S
C424 C429 1.364 . S
C425 H404 0.952 . S
C425 C424 1.372 . S
C425 C426 1.389 . S
C426 H405 0.949 . S
C426 C425 1.389 . S
C426 C427 1.387 . S
C427 C426 1.387 . S
C427 C428 1.372 . S
C428 H406 0.950 . S
C428 C427 1.372 . S
C428 C429 1.379 . S
C429 H407 0.948 . S
C429 C424 1.364 . S
C429 C428 1.379 . S
C430 C399 1.383 . S
C430 C417 1.479 . S
C430 C431 1.398 . S
C431 C396 1.382 . S
C431 H408 0.951 . S
C431 C430 1.398 . S
C432 C433 1.384 . S
C432 H445 0.947 . S
C432 C467 1.382 . S
C433 C432 1.384 . S
C433 C434 1.378 . S
C434 C433 1.378 . S
C434 C435 1.378 . S
C434 H446 0.952 . S
C435 C434 1.378 . S
C435 H447 0.950 . S
C435 C466 1.383 . S
H436 C455 0.947 . S
H437 C456 0.946 . S
H438 C458 0.953 . S
H439 C459 0.945 . S
H440 C461 0.952 . S
H441 C462 0.949 . S
H442 C464 0.950 . S
H443 C465 0.948 . S
H444 C467 0.951 . S
H445 C432 0.947 . S
H446 C434 0.952 . S
H447 C435 0.950 . S
N448 C451 1.382 . S
N448 C453 1.363 . S
N449 C451 1.371 . S
N449 C452 1.372 . S
N450 C452 1.361 . S
N450 C453 1.377 . S
C451 N448 1.382 . S
C451 N449 1.371 . S
C451 C454 1.480 . S
C452 N449 1.372 . S
C452 N450 1.361 . S
C452 C460 1.457 . S
C453 N448 1.363 . S
C453 N450 1.377 . S
C453 C466 1.479 . S
C454 C451 1.480 . S
C454 C455 1.383 . S
C454 C459 1.385 . S
C455 H436 0.947 . S
C455 C454 1.383 . S
C455 C456 1.388 . S
C456 H437 0.946 . S
C456 C455 1.388 . S
C456 C457 1.384 . S
C457 C456 1.384 . S
C457 C458 1.377 . S
C458 H438 0.953 . S
C458 C457 1.377 . S
C458 C459 1.369 . S
C459 H439 0.945 . S
C459 C454 1.385 . S
C459 C458 1.369 . S
C460 C452 1.457 . S
C460 C461 1.372 . S
C460 C465 1.364 . S
C461 H440 0.952 . S
C461 C460 1.372 . S
C461 C462 1.389 . S
C462 H441 0.949 . S
C462 C461 1.389 . S
C462 C463 1.387 . S
C463 C462 1.387 . S
C463 C464 1.372 . S
C464 H442 0.950 . S
C464 C463 1.372 . S
C464 C465 1.379 . S
C465 H443 0.948 . S
C465 C460 1.364 . S
C465 C464 1.379 . S
C466 C435 1.383 . S
C466 C453 1.479 . S
C466 C467 1.398 . S
C467 C432 1.382 . S
C467 H444 0.951 . S
C467 C466 1.398 . S
C468 C469 1.384 . S
C468 H481 0.947 . S
C468 C503 1.382 . S
C469 C468 1.384 . S
C469 C470 1.378 . S
C470 C469 1.378 . S
C470 C471 1.378 . S
C470 H482 0.952 . S
C471 C470 1.378 . S
C471 H483 0.950 . S
C471 C502 1.383 . S
H472 C491 0.947 . S
H473 C492 0.946 . S
H474 C494 0.953 . S
H475 C495 0.945 . S
H476 C497 0.952 . S
H477 C498 0.949 . S
H478 C500 0.950 . S
H479 C501 0.948 . S
H480 C503 0.951 . S
H481 C468 0.947 . S
H482 C470 0.952 . S
H483 C471 0.950 . S
N484 C487 1.382 . S
N484 C489 1.363 . S
N485 C487 1.371 . S
N485 C488 1.372 . S
N486 C488 1.361 . S
N486 C489 1.377 . S
C487 N484 1.382 . S
C487 N485 1.371 . S
C487 C490 1.480 . S
C488 N485 1.372 . S
C488 N486 1.361 . S
C488 C496 1.457 . S
C489 N484 1.363 . S
C489 N486 1.377 . S
C489 C502 1.479 . S
C490 C487 1.480 . S
C490 C491 1.383 . S
C490 C495 1.385 . S
C491 H472 0.947 . S
C491 C490 1.383 . S
C491 C492 1.388 . S
C492 H473 0.946 . S
C492 C491 1.388 . S
C492 C493 1.384 . S
C493 C492 1.384 . S
C493 C494 1.377 . S
C494 H474 0.953 . S
C494 C493 1.377 . S
C494 C495 1.369 . S
C495 H475 0.945 . S
C495 C490 1.385 . S
C495 C494 1.369 . S
C496 C488 1.457 . S
C496 C497 1.372 . S
C496 C501 1.364 . S
C497 H476 0.952 . S
C497 C496 1.372 . S
C497 C498 1.389 . S
C498 H477 0.949 . S
C498 C497 1.389 . S
C498 C499 1.387 . S
C499 C498 1.387 . S
C499 C500 1.372 . S
C500 H478 0.950 . S
C500 C499 1.372 . S
C500 C501 1.379 . S
C501 H479 0.948 . S
C501 C496 1.364 . S
C501 C500 1.379 . S
C502 C471 1.383 . S
C502 C489 1.479 . S
C502 C503 1.398 . S
C503 C468 1.382 . S
C503 H480 0.951 . S
C503 C502 1.398 . S
C504 C505 1.384 . S
C504 H517 0.947 . S
C504 C539 1.382 . S
C505 C504 1.384 . S
C505 C506 1.378 . S
C506 C505 1.378 . S
C506 C507 1.378 . S
C506 H518 0.952 . S
C507 C506 1.378 . S
C507 H519 0.950 . S
C507 C538 1.383 . S
H508 C527 0.947 . S
H509 C528 0.946 . S
H510 C530 0.953 . S
H511 C531 0.945 . S
H512 C533 0.952 . S
H513 C534 0.949 . S
H514 C536 0.950 . S
H515 C537 0.948 . S
H516 C539 0.951 . S
H517 C504 0.947 . S
H518 C506 0.952 . S
H519 C507 0.950 . S
N520 C523 1.382 . S
N520 C525 1.363 . S
N521 C523 1.371 . S
N521 C524 1.372 . S
N522 C524 1.361 . S
N522 C525 1.377 . S
C523 N520 1.382 . S
C523 N521 1.371 . S
C523 C526 1.480 . S
C524 N521 1.372 . S
C524 N522 1.361 . S
C524 C532 1.457 . S
C525 N520 1.363 . S
C525 N522 1.377 . S
C525 C538 1.479 . S
C526 C523 1.480 . S
C526 C527 1.383 . S
C526 C531 1.385 . S
C527 H508 0.947 . S
C527 C526 1.383 . S
C527 C528 1.388 . S
C528 H509 0.946 . S
C528 C527 1.388 . S
C528 C529 1.384 . S
C529 C528 1.384 . S
C529 C530 1.377 . S
C530 H510 0.953 . S
C530 C529 1.377 . S
C530 C531 1.369 . S
C531 H511 0.945 . S
C531 C526 1.385 . S
C531 C530 1.369 . S
C532 C524 1.457 . S
C532 C533 1.372 . S
C532 C537 1.364 . S
C533 H512 0.952 . S
C533 C532 1.372 . S
C533 C534 1.389 . S
C534 H513 0.949 . S
C534 C533 1.389 . S
C534 C535 1.387 . S
C535 C534 1.387 . S
C535 C536 1.372 . S
C536 H514 0.950 . S
C536 C535 1.372 . S
C536 C537 1.379 . S
C537 H515 0.948 . S
C537 C532 1.364 . S
C537 C536 1.379 . S
C538 C507 1.383 . S
C538 C525 1.479 . S
C538 C539 1.398 . S
C539 C504 1.382 . S
C539 H516 0.951 . S
C539 C538 1.398 . S
C540 C541 1.384 . S
C540 H553 0.947 . S
C540 C575 1.382 . S
C541 C540 1.384 . S
C541 C542 1.378 . S
C542 C541 1.378 . S
C542 C543 1.378 . S
C542 H554 0.952 . S
C543 C542 1.378 . S
C543 H555 0.950 . S
C543 C574 1.383 . S
H544 C563 0.947 . S
H545 C564 0.946 . S
H546 C566 0.953 . S
H547 C567 0.945 . S
H548 C569 0.952 . S
H549 C570 0.949 . S
H550 C572 0.950 . S
H551 C573 0.948 . S
H552 C575 0.951 . S
H553 C540 0.947 . S
H554 C542 0.952 . S
H555 C543 0.950 . S
N556 C559 1.382 . S
N556 C561 1.363 . S
N557 C559 1.371 . S
N557 C560 1.372 . S
N558 C560 1.361 . S
N558 C561 1.377 . S
C559 N556 1.382 . S
C559 N557 1.371 . S
C559 C562 1.480 . S
C560 N557 1.372 . S
C560 N558 1.361 . S
C560 C568 1.457 . S
C561 N556 1.363 . S
C561 N558 1.377 . S
C561 C574 1.479 . S
C562 C559 1.480 . S
C562 C563 1.383 . S
C562 C567 1.385 . S
C563 H544 0.947 . S
C563 C562 1.383 . S
C563 C564 1.388 . S
C564 H545 0.946 . S
C564 C563 1.388 . S
C564 C565 1.384 . S
C565 C564 1.384 . S
C565 C566 1.377 . S
C566 H546 0.953 . S
C566 C565 1.377 . S
C566 C567 1.369 . S
C567 H547 0.945 . S
C567 C562 1.385 . S
C567 C566 1.369 . S
C568 C560 1.457 . S
C568 C569 1.372 . S
C568 C573 1.364 . S
C569 H548 0.952 . S
C569 C568 1.372 . S
C569 C570 1.389 . S
C570 H549 0.949 . S
C570 C569 1.389 . S
C570 C571 1.387 . S
C571 C570 1.387 . S
C571 C572 1.372 . S
C572 H550 0.950 . S
C572 C571 1.372 . S
C572 C573 1.379 . S
C573 H551 0.948 . S
C573 C568 1.364 . S
C573 C572 1.379 . S
C574 C543 1.383 . S
C574 C561 1.479 . S
C574 C575 1.398 . S
C575 C540 1.382 . S
C575 H552 0.951 . S
C575 C574 1.398 . S
C576 C577 1.384 . S
C576 H589 0.947 . S
C576 C611 1.382 . S
C577 C576 1.384 . S
C577 C578 1.378 . S
C578 C577 1.378 . S
C578 C579 1.378 . S
C578 H590 0.952 . S
C579 C578 1.378 . S
C579 H591 0.950 . S
C579 C610 1.383 . S
H580 C599 0.947 . S
H581 C600 0.946 . S
H582 C602 0.953 . S
H583 C603 0.945 . S
H584 C605 0.952 . S
H585 C606 0.949 . S
H586 C608 0.950 . S
H587 C609 0.948 . S
H588 C611 0.951 . S
H589 C576 0.947 . S
H590 C578 0.952 . S
H591 C579 0.950 . S
N592 C595 1.382 . S
N592 C597 1.363 . S
N593 C595 1.371 . S
N593 C596 1.372 . S
N594 C596 1.361 . S
N594 C597 1.377 . S
C595 N592 1.382 . S
C595 N593 1.371 . S
C595 C598 1.480 . S
C596 N593 1.372 . S
C596 N594 1.361 . S
C596 C604 1.457 . S
C597 N592 1.363 . S
C597 N594 1.377 . S
C597 C610 1.479 . S
C598 C595 1.480 . S
C598 C599 1.383 . S
C598 C603 1.385 . S
C599 H580 0.947 . S
C599 C598 1.383 . S
C599 C600 1.388 . S
C600 H581 0.946 . S
C600 C599 1.388 . S
C600 C601 1.384 . S
C601 C600 1.384 . S
C601 C602 1.377 . S
C602 H582 0.953 . S
C602 C601 1.377 . S
C602 C603 1.369 . S
C603 H583 0.945 . S
C603 C598 1.385 . S
C603 C602 1.369 . S
C604 C596 1.457 . S
C604 C605 1.372 . S
C604 C609 1.364 . S
C605 H584 0.952 . S
C605 C604 1.372 . S
C605 C606 1.389 . S
C606 H585 0.949 . S
C606 C605 1.389 . S
C606 C607 1.387 . S
C607 C606 1.387 . S
C607 C608 1.372 . S
C608 H586 0.950 . S
C608 C607 1.372 . S
C608 C609 1.379 . S
C609 H587 0.948 . S
C609 C604 1.364 . S
C609 C608 1.379 . S
C610 C579 1.383 . S
C610 C597 1.479 . S
C610 C611 1.398 . S
C611 C576 1.382 . S
C611 H588 0.951 . S
C611 C610 1.398 . S
C612 C613 1.384 . S
C612 H625 0.947 . S
C612 C647 1.382 . S
C613 C612 1.384 . S
C613 C614 1.378 . S
C614 C613 1.378 . S
C614 C615 1.378 . S
C614 H626 0.952 . S
C615 C614 1.378 . S
C615 H627 0.950 . S
C615 C646 1.383 . S
H616 C635 0.947 . S
H617 C636 0.946 . S
H618 C638 0.953 . S
H619 C639 0.945 . S
H620 C641 0.952 . S
H621 C642 0.949 . S
H622 C644 0.950 . S
H623 C645 0.948 . S
H624 C647 0.951 . S
H625 C612 0.947 . S
H626 C614 0.952 . S
H627 C615 0.950 . S
N628 C631 1.382 . S
N628 C633 1.363 . S
N629 C631 1.371 . S
N629 C632 1.372 . S
N630 C632 1.361 . S
N630 C633 1.377 . S
C631 N628 1.382 . S
C631 N629 1.371 . S
C631 C634 1.480 . S
C632 N629 1.372 . S
C632 N630 1.361 . S
C632 C640 1.457 . S
C633 N628 1.363 . S
C633 N630 1.377 . S
C633 C646 1.479 . S
C634 C631 1.480 . S
C634 C635 1.383 . S
C634 C639 1.385 . S
C635 H616 0.947 . S
C635 C634 1.383 . S
C635 C636 1.388 . S
C636 H617 0.946 . S
C636 C635 1.388 . S
C636 C637 1.384 . S
C637 C636 1.384 . S
C637 C638 1.377 . S
C638 H618 0.953 . S
C638 C637 1.377 . S
C638 C639 1.369 . S
C639 H619 0.945 . S
C639 C634 1.385 . S
C639 C638 1.369 . S
C640 C632 1.457 . S
C640 C641 1.372 . S
C640 C645 1.364 . S
C641 H620 0.952 . S
C641 C640 1.372 . S
C641 C642 1.389 . S
C642 H621 0.949 . S
C642 C641 1.389 . S
C642 C643 1.387 . S
C643 C642 1.387 . S
C643 C644 1.372 . S
C644 H622 0.950 . S
C644 C643 1.372 . S
C644 C645 1.379 . S
C645 H623 0.948 . S
C645 C640 1.364 . S
C645 C644 1.379 . S
C646 C615 1.383 . S
C646 C633 1.479 . S
C646 C647 1.398 . S
C647 C612 1.382 . S
C647 H624 0.951 . S
C647 C646 1.398 . S
Tb648 O651 2.453 . S
Tb648 O652 2.596 1_545 S
Tb648 O653 2.374 1_545 S
Tb648 O661 2.343 1_554 S
Tb648 O663 2.353 . S
Tb648 O665 2.427 1_554 S
Tb648 O666 2.513 1_554 S
C649 O653 1.251 . S
C649 O655 1.263 . S
Tb650 O652 2.343 1_556 S
Tb650 O655 2.353 1_556 S
Tb650 O658 2.427 1_556 S
Tb650 O659 2.513 1_556 S
Tb650 O660 2.453 . S
Tb650 O661 2.596 1_565 S
Tb650 O662 2.374 1_565 S
O651 Tb648 2.453 . S
O651 C667 1.245 . S
O652 Tb648 2.596 1_565 S
O652 Tb650 2.343 1_554 S
O652 C667 1.259 1_565 S
O653 Tb648 2.374 1_565 S
O653 C649 1.251 . S
C654 O658 1.275 . S
C654 O659 1.246 . S
O655 C649 1.263 . S
O655 Tb650 2.353 1_554 S
C656 O660 1.253 . S
C656 O661 1.258 1_565 S
C657 O662 1.250 . S
C657 O663 1.263 1_556 S
O658 Tb650 2.427 1_554 S
O658 C654 1.275 . S
O659 Tb650 2.513 1_554 S
O659 C654 1.246 . S
O660 Tb650 2.453 . S
O660 C656 1.253 . S
O661 Tb648 2.343 1_556 S
O661 Tb650 2.596 1_545 S
O661 C656 1.258 1_545 S
O662 Tb650 2.374 1_545 S
O662 C657 1.250 . S
O663 Tb648 2.353 . S
O663 C657 1.263 1_554 S
C664 O665 1.275 . S
C664 O666 1.246 . S
O665 Tb648 2.427 1_556 S
O665 C664 1.275 . S
O666 Tb648 2.513 1_556 S
O666 C664 1.246 . S
C667 O651 1.245 . S
C667 O652 1.259 1_545 S
Tb668 O671 2.453 . S
Tb668 O672 2.596 1_655 S
Tb668 O673 2.374 1_655 S
Tb668 O681 2.343 1_554 S
Tb668 O683 2.353 . S
Tb668 O685 2.427 1_554 S
Tb668 O686 2.513 1_554 S
C669 O673 1.251 . S
C669 O675 1.263 . S
Tb670 O672 2.343 1_556 S
Tb670 O675 2.353 1_556 S
Tb670 O678 2.427 1_556 S
Tb670 O679 2.513 1_556 S
Tb670 O680 2.453 . S
Tb670 O681 2.596 1_455 S
Tb670 O682 2.374 1_455 S
O671 Tb668 2.453 . S
O671 C687 1.245 1_655 S
O672 Tb668 2.596 1_455 S
O672 Tb670 2.343 1_554 S
O672 C687 1.259 . S
O673 Tb668 2.374 1_455 S
O673 C669 1.251 . S
C674 O678 1.275 . S
C674 O679 1.246 . S
O675 C669 1.263 . S
O675 Tb670 2.353 1_554 S
C676 O680 1.245 . S
C676 O681 1.259 1_455 S
C677 O682 1.250 . S
C677 O683 1.263 1_556 S
O678 Tb670 2.427 1_554 S
O678 C674 1.275 . S
O679 Tb670 2.513 1_554 S
O679 C674 1.246 . S
O680 Tb670 2.453 . S
O680 C676 1.245 . S
O681 Tb668 2.343 1_556 S
O681 Tb670 2.596 1_655 S
O681 C676 1.259 1_655 S
O682 Tb670 2.374 1_655 S
O682 C677 1.250 . S
O683 Tb668 2.353 . S
O683 C677 1.263 1_554 S
C684 O685 1.275 . S
C684 O686 1.246 . S
O685 Tb668 2.427 1_556 S
O685 C684 1.275 . S
O686 Tb668 2.513 1_556 S
O686 C684 1.246 . S
C687 O671 1.245 1_455 S
C687 O672 1.259 . S
Tb688 O691 2.453 . S
Tb688 O692 2.596 . S
Tb688 O693 2.374 . S
Tb688 O701 2.343 1_556 S
Tb688 O703 2.353 1_556 S
Tb688 O705 2.427 1_556 S
Tb688 O706 2.513 1_556 S
C689 O693 1.251 . S
C689 O695 1.263 1_556 S
Tb690 O692 2.343 1_554 S
Tb690 O695 2.353 . S
Tb690 O698 2.427 1_554 S
Tb690 O699 2.513 1_554 S
Tb690 O700 2.453 . S
Tb690 O701 2.596 . S
Tb690 O702 2.374 . S
O691 Tb688 2.453 . S
O691 C707 1.245 . S
O692 Tb688 2.596 . S
O692 Tb690 2.343 1_556 S
O692 C707 1.259 . S
O693 Tb688 2.374 . S
O693 C689 1.251 . S
C694 O698 1.275 . S
C694 O699 1.246 . S
O695 C689 1.263 1_554 S
O695 Tb690 2.353 . S
C696 O700 1.245 . S
C696 O701 1.259 . S
C697 O702 1.250 . S
C697 O703 1.263 . S
O698 Tb690 2.427 1_556 S
O698 C694 1.275 . S
O699 Tb690 2.513 1_556 S
O699 C694 1.246 . S
O700 Tb690 2.453 . S
O700 C696 1.245 . S
O701 Tb688 2.343 1_554 S
O701 Tb690 2.596 . S
O701 C696 1.259 . S
O702 Tb690 2.374 . S
O702 C697 1.250 . S
O703 Tb688 2.353 1_554 S
O703 C697 1.263 . S
C704 O705 1.275 . S
C704 O706 1.246 . S
O705 Tb688 2.427 1_554 S
O705 C704 1.275 . S
O706 Tb688 2.513 1_554 S
O706 C704 1.246 . S
C707 O691 1.245 . S
C707 O692 1.259 . S
Tb708 O711 2.453 . S
Tb708 O712 2.596 . S
Tb708 O713 2.374 . S
Tb708 O721 2.343 . S
Tb708 O723 2.353 . S
Tb708 O725 2.427 . S
Tb708 O726 2.513 . S
C709 O713 1.251 . S
C709 O715 1.263 . S
Tb710 O712 2.343 . S
Tb710 O715 2.353 . S
Tb710 O718 2.427 . S
Tb710 O719 2.513 . S
Tb710 O720 2.453 . S
Tb710 O721 2.596 . S
Tb710 O722 2.374 . S
O711 Tb708 2.453 . S
O711 C727 1.245 . S
O712 Tb708 2.596 . S
O712 Tb710 2.343 . S
O712 C727 1.259 . S
O713 Tb708 2.374 . S
O713 C709 1.251 . S
C714 O718 1.275 . S
C714 O719 1.246 . S
O715 C709 1.263 . S
O715 Tb710 2.353 . S
C716 O720 1.245 . S
C716 O721 1.259 . S
C717 O722 1.250 . S
C717 O723 1.263 . S
O718 Tb710 2.427 . S
O718 C714 1.275 . S
O719 Tb710 2.513 . S
O719 C714 1.246 . S
O720 Tb710 2.453 . S
O720 C716 1.245 . S
O721 Tb708 2.343 . S
O721 Tb710 2.596 . S
O721 C716 1.259 . S
O722 Tb710 2.374 . S
O722 C717 1.250 . S
O723 Tb708 2.353 . S
O723 C717 1.263 . S
C724 O725 1.275 . S
C724 O726 1.246 . S
O725 Tb708 2.427 . S
O725 C724 1.275 . S
O726 Tb708 2.513 . S
O726 C724 1.246 . S
C727 O711 1.245 . S
C727 O712 1.259 . S
Tb728 O731 2.453 . S
Tb728 O732 2.596 . S
Tb728 O733 2.374 . S
Tb728 O741 2.343 . S
Tb728 O743 2.353 . S
Tb728 O745 2.427 . S
Tb728 O746 2.513 . S
C729 O733 1.251 . S
C729 O735 1.263 . S
Tb730 O732 2.343 . S
Tb730 O735 2.353 . S
Tb730 O738 2.427 . S
Tb730 O739 2.513 . S
Tb730 O740 2.453 . S
Tb730 O741 2.596 . S
Tb730 O742 2.374 . S
O731 Tb728 2.453 . S
O731 C747 1.245 . S
O732 Tb728 2.596 . S
O732 Tb730 2.343 . S
O732 C747 1.259 . S
O733 Tb728 2.374 . S
O733 C729 1.251 . S
C734 O738 1.275 . S
C734 O739 1.246 . S
O735 C729 1.263 . S
O735 Tb730 2.353 . S
C736 O740 1.245 . S
C736 O741 1.259 . S
C737 O742 1.250 . S
C737 O743 1.263 . S
O738 Tb730 2.427 . S
O738 C734 1.275 . S
O739 Tb730 2.513 . S
O739 C734 1.246 . S
O740 Tb730 2.453 . S
O740 C736 1.245 . S
O741 Tb728 2.343 . S
O741 Tb730 2.596 . S
O741 C736 1.259 . S
O742 Tb730 2.374 . S
O742 C737 1.250 . S
O743 Tb728 2.353 . S
O743 C737 1.263 . S
C744 O745 1.275 . S
C744 O746 1.246 . S
O745 Tb728 2.427 . S
O745 C744 1.275 . S
O746 Tb728 2.513 . S
O746 C744 1.246 . S
C747 O731 1.245 . S
C747 O732 1.259 . S
Tb748 O751 2.453 . S
Tb748 O752 2.596 . S
Tb748 O753 2.374 . S
Tb748 O761 2.343 . S
Tb748 O763 2.353 . S
Tb748 O765 2.427 . S
Tb748 O766 2.513 . S
C749 O753 1.251 . S
C749 O755 1.263 . S
Tb750 O752 2.343 . S
Tb750 O755 2.353 . S
Tb750 O758 2.427 . S
Tb750 O759 2.513 . S
Tb750 O760 2.453 . S
Tb750 O761 2.596 . S
Tb750 O762 2.374 . S
O751 Tb748 2.453 . S
O751 C767 1.245 . S
O752 Tb748 2.596 . S
O752 Tb750 2.343 . S
O752 C767 1.259 . S
O753 Tb748 2.374 . S
O753 C749 1.251 . S
C754 O758 1.275 . S
C754 O759 1.246 . S
O755 C749 1.263 . S
O755 Tb750 2.353 . S
C756 O760 1.245 . S
C756 O761 1.259 . S
C757 O762 1.250 . S
C757 O763 1.263 . S
O758 Tb750 2.427 . S
O758 C754 1.275 . S
O759 Tb750 2.513 . S
O759 C754 1.246 . S
O760 Tb750 2.453 . S
O760 C756 1.245 . S
O761 Tb748 2.343 . S
O761 Tb750 2.596 . S
O761 C756 1.259 . S
O762 Tb750 2.374 . S
O762 C757 1.250 . S
O763 Tb748 2.353 . S
O763 C757 1.263 . S
C764 O765 1.275 . S
C764 O766 1.246 . S
O765 Tb748 2.427 . S
O765 C764 1.275 . S
O766 Tb748 2.513 . S
O766 C764 1.246 . S
C767 O751 1.245 . S
C767 O752 1.259 . S
Tb768 O771 2.453 . S
Tb768 O772 2.596 . S
Tb768 O773 2.374 . S
Tb768 O781 2.343 . S
Tb768 O783 2.353 . S
Tb768 O785 2.427 . S
Tb768 O786 2.513 . S
C769 O773 1.251 . S
C769 O775 1.263 . S
Tb770 O772 2.343 . S
Tb770 O775 2.353 . S
Tb770 O778 2.427 . S
Tb770 O779 2.513 . S
Tb770 O780 2.453 . S
Tb770 O781 2.596 . S
Tb770 O782 2.374 . S
O771 Tb768 2.453 . S
O771 C787 1.245 . S
O772 Tb768 2.596 . S
O772 Tb770 2.343 . S
O772 C787 1.259 . S
O773 Tb768 2.374 . S
O773 C769 1.251 . S
C774 O778 1.275 . S
C774 O779 1.246 . S
O775 C769 1.263 . S
O775 Tb770 2.353 . S
C776 O780 1.245 . S
C776 O781 1.259 . S
C777 O782 1.250 . S
C777 O783 1.263 . S
O778 Tb770 2.427 . S
O778 C774 1.275 . S
O779 Tb770 2.513 . S
O779 C774 1.246 . S
O780 Tb770 2.453 . S
O780 C776 1.245 . S
O781 Tb768 2.343 . S
O781 Tb770 2.596 . S
O781 C776 1.259 . S
O782 Tb770 2.374 . S
O782 C777 1.250 . S
O783 Tb768 2.353 . S
O783 C777 1.263 . S
C784 O785 1.275 . S
C784 O786 1.246 . S
O785 Tb768 2.427 . S
O785 C784 1.275 . S
O786 Tb768 2.513 . S
O786 C784 1.246 . S
C787 O771 1.245 . S
C787 O772 1.259 . S
Tb788 O791 2.453 . S
Tb788 O792 2.596 . S
Tb788 O793 2.374 . S
Tb788 O801 2.343 . S
Tb788 O803 2.353 . S
Tb788 O805 2.427 . S
Tb788 O806 2.513 . S
C789 O793 1.251 . S
C789 O795 1.263 . S
Tb790 O792 2.343 . S
Tb790 O795 2.353 . S
Tb790 O798 2.427 . S
Tb790 O799 2.513 . S
Tb790 O800 2.453 . S
Tb790 O801 2.596 . S
Tb790 O802 2.374 . S
O791 Tb788 2.453 . S
O791 C807 1.245 . S
O792 Tb788 2.596 . S
O792 Tb790 2.343 . S
O792 C807 1.259 . S
O793 Tb788 2.374 . S
O793 C789 1.251 . S
C794 O798 1.275 . S
C794 O799 1.246 . S
O795 C789 1.263 . S
O795 Tb790 2.353 . S
C796 O800 1.245 . S
C796 O801 1.259 . S
C797 O802 1.250 . S
C797 O803 1.263 . S
O798 Tb790 2.427 . S
O798 C794 1.275 . S
O799 Tb790 2.513 . S
O799 C794 1.246 . S
O800 Tb790 2.453 . S
O800 C796 1.245 . S
O801 Tb788 2.343 . S
O801 Tb790 2.596 . S
O801 C796 1.259 . S
O802 Tb790 2.374 . S
O802 C797 1.250 . S
O803 Tb788 2.353 . S
O803 C797 1.263 . S
C804 O805 1.275 . S
C804 O806 1.246 . S
O805 Tb788 2.427 . S
O805 C804 1.275 . S
O806 Tb788 2.513 . S
O806 C804 1.246 . S
C807 O791 1.245 . S
C807 O792 1.259 . S
Tb808 O811 2.453 . S
Tb808 O812 2.596 . S
Tb808 O813 2.374 . S
Tb808 O821 2.343 . S
Tb808 O823 2.353 . S
Tb808 O825 2.427 . S
Tb808 O826 2.513 . S
C809 O813 1.251 . S
C809 O815 1.263 . S
Tb810 O812 2.343 . S
Tb810 O815 2.353 . S
Tb810 O818 2.427 . S
Tb810 O819 2.513 . S
Tb810 O820 2.453 . S
Tb810 O821 2.596 . S
Tb810 O822 2.374 . S
O811 Tb808 2.453 . S
O811 C827 1.245 . S
O812 Tb808 2.596 . S
O812 Tb810 2.343 . S
O812 C827 1.259 . S
O813 Tb808 2.374 . S
O813 C809 1.251 . S
C814 O818 1.275 . S
C814 O819 1.246 . S
O815 C809 1.263 . S
O815 Tb810 2.353 . S
C816 O820 1.245 . S
C816 O821 1.259 . S
C817 O822 1.250 . S
C817 O823 1.263 . S
O818 Tb810 2.427 . S
O818 C814 1.275 . S
O819 Tb810 2.513 . S
O819 C814 1.246 . S
O820 Tb810 2.453 . S
O820 C816 1.245 . S
O821 Tb808 2.343 . S
O821 Tb810 2.596 . S
O821 C816 1.259 . S
O822 Tb810 2.374 . S
O822 C817 1.250 . S
O823 Tb808 2.353 . S
O823 C817 1.263 . S
C824 O825 1.275 . S
C824 O826 1.246 . S
O825 Tb808 2.427 . S
O825 C824 1.275 . S
O826 Tb808 2.513 . S
O826 C824 1.246 . S
C827 O811 1.245 . S
C827 O812 1.259 . S
H828 C846 0.951 . S
H829 C848 0.951 . S
H830 C850 0.950 . S
H831 C851 0.950 . S
H832 C853 0.950 . S
H833 C856 0.950 . S
H834 C857 0.950 . S
H835 C859 0.950 1_556 S
H836 C860 0.950 . S
H837 C861 0.951 . S
H838 C863 0.951 . S
H839 C865 0.950 . S
H840 C866 0.950 . S
H841 C868 0.950 . S
H842 C871 0.950 . S
H843 C872 0.950 . S
H844 C874 0.950 . S
H845 C875 0.950 . S
C846 H828 0.951 . S
C846 C847 1.366 . S
C846 C848 1.388 . S
C847 C846 1.366 . S
C847 C851 1.385 . S
C848 H829 0.951 . S
C848 C846 1.388 . S
C848 C849 1.366 . S
C849 C848 1.366 . S
C849 C850 1.414 . S
C849 C852 1.499 . S
C850 H830 0.950 . S
C850 C849 1.414 . S
C850 C851 1.374 . S
C851 H831 0.950 . S
C851 C847 1.385 . S
C851 C850 1.374 . S
C852 C849 1.499 . S
C852 C853 1.373 . S
C852 C854 1.389 . S
C853 H832 0.950 . S
C853 C852 1.373 . S
C853 C869 1.377 . S
C854 C852 1.389 . S
C854 C855 1.524 . S
C854 C868 1.377 . S
C855 C854 1.524 . S
C855 C856 1.397 . S
C855 C860 1.363 . S
C856 H833 0.950 . S
C856 C855 1.397 . S
C856 C857 1.334 . S
C857 H834 0.950 . S
C857 C856 1.334 . S
C857 C858 1.287 . S
C858 C857 1.287 . S
C858 C859 1.524 . S
C858 H877 0.913 . S
C859 H835 0.950 1_554 S
C859 C858 1.524 . S
C859 C860 1.415 . S
C860 H836 0.950 . S
C860 C855 1.363 . S
C860 C859 1.415 . S
C861 H837 0.951 . S
C861 C862 1.366 . S
C861 C863 1.388 . S
C862 C861 1.366 . S
C862 C866 1.385 . S
C863 H838 0.951 . S
C863 C861 1.388 . S
C863 C864 1.366 . S
C864 C863 1.366 . S
C864 C865 1.414 . S
C864 C867 1.499 . S
C865 H839 0.950 . S
C865 C864 1.414 . S
C865 C866 1.374 . S
C866 H840 0.950 . S
C866 C862 1.385 . S
C866 C865 1.374 . S
C867 C864 1.499 . S
C867 C868 1.373 . S
C867 C869 1.389 . S
C868 H841 0.950 . S
C868 C854 1.377 . S
C868 C867 1.373 . S
C869 C853 1.377 . S
C869 C867 1.389 . S
C869 C870 1.524 . S
C870 C869 1.524 . S
C870 C871 1.397 . S
C870 C875 1.363 . S
C871 H842 0.950 . S
C871 C870 1.397 . S
C871 C872 1.334 . S
C872 H843 0.950 . S
C872 C871 1.334 . S
C872 C873 1.287 . S
C873 C872 1.287 . S
C873 C874 1.524 . S
C873 H876 0.999 . S
C874 H844 0.950 . S
C874 C873 1.524 . S
C874 C875 1.415 . S
C875 H845 0.950 . S
C875 C870 1.363 . S
C875 C874 1.415 . S
H876 C873 0.999 . S
H877 C858 0.913 . S
H878 C896 0.951 . S
H879 C898 0.951 . S
H880 C900 0.950 . S
H881 C901 0.950 . S
H882 C903 0.950 . S
H883 C906 0.950 . S
H884 C907 0.950 . S
H885 C909 0.950 . S
H886 C910 0.950 . S
H887 C911 0.951 . S
H888 C913 0.951 . S
H889 C915 0.950 . S
H890 C916 0.950 . S
H891 C918 0.950 . S
H892 C921 0.950 . S
H893 C922 0.950 . S
H894 C924 0.950 . S
H895 C925 0.950 . S
C896 H878 0.951 . S
C896 C897 1.366 . S
C896 C898 1.388 . S
C897 C896 1.366 . S
C897 C901 1.385 . S
C898 H879 0.951 . S
C898 C896 1.388 . S
C898 C899 1.366 . S
C899 C898 1.366 . S
C899 C900 1.414 . S
C899 C902 1.499 . S
C900 H880 0.950 . S
C900 C899 1.414 . S
C900 C901 1.374 . S
C901 H881 0.950 . S
C901 C897 1.385 . S
C901 C900 1.374 . S
C902 C899 1.499 . S
C902 C903 1.373 . S
C902 C904 1.389 . S
C903 H882 0.950 . S
C903 C902 1.373 . S
C903 C919 1.377 . S
C904 C902 1.389 . S
C904 C905 1.524 . S
C904 C918 1.377 . S
C905 C904 1.524 . S
C905 C906 1.397 . S
C905 C910 1.363 . S
C906 H883 0.950 . S
C906 C905 1.397 . S
C906 C907 1.334 . S
C907 H884 0.950 . S
C907 C906 1.334 . S
C907 C908 1.287 . S
C908 C907 1.287 . S
C908 C909 1.524 . S
C908 H927 0.913 . S
C909 H885 0.950 . S
C909 C908 1.524 . S
C909 C910 1.415 . S
C910 H886 0.950 . S
C910 C905 1.363 . S
C910 C909 1.415 . S
C911 H887 0.951 . S
C911 C912 1.366 . S
C911 C913 1.388 . S
C912 C911 1.366 . S
C912 C916 1.385 . S
C913 H888 0.951 . S
C913 C911 1.388 . S
C913 C914 1.366 . S
C914 C913 1.366 . S
C914 C915 1.414 . S
C914 C917 1.499 . S
C915 H889 0.950 . S
C915 C914 1.414 . S
C915 C916 1.374 . S
C916 H890 0.950 . S
C916 C912 1.385 . S
C916 C915 1.374 . S
C917 C914 1.499 . S
C917 C918 1.373 . S
C917 C919 1.389 . S
C918 H891 0.950 . S
C918 C904 1.377 . S
C918 C917 1.373 . S
C919 C903 1.377 . S
C919 C917 1.389 . S
C919 C920 1.524 . S
C920 C919 1.524 . S
C920 C921 1.397 . S
C920 C925 1.363 . S
C921 H892 0.950 . S
C921 C920 1.397 . S
C921 C922 1.334 . S
C922 H893 0.950 . S
C922 C921 1.334 . S
C922 C923 1.287 . S
C923 C922 1.287 . S
C923 C924 1.524 . S
C923 H926 0.999 . S
C924 H894 0.950 . S
C924 C923 1.524 . S
C924 C925 1.415 . S
C925 H895 0.950 . S
C925 C920 1.363 . S
C925 C924 1.415 . S
H926 C923 0.999 . S
H927 C908 0.913 . S
H928 C946 0.951 . S
H929 C948 0.951 . S
H930 C950 0.950 . S
H931 C951 0.950 . S
H932 C953 0.950 . S
H933 C956 0.950 . S
H934 C957 0.950 . S
H935 C959 0.950 . S
H936 C960 0.950 . S
H937 C961 0.951 . S
H938 C963 0.951 . S
H939 C965 0.950 . S
H940 C966 0.950 . S
H941 C968 0.950 . S
H942 C971 0.950 . S
H943 C972 0.950 . S
H944 C974 0.950 . S
H945 C975 0.950 . S
C946 H928 0.951 . S
C946 C947 1.366 . S
C946 C948 1.388 . S
C947 C946 1.366 . S
C947 C951 1.385 . S
C948 H929 0.951 . S
C948 C946 1.388 . S
C948 C949 1.366 . S
C949 C948 1.366 . S
C949 C950 1.414 . S
C949 C952 1.499 . S
C950 H930 0.950 . S
C950 C949 1.414 . S
C950 C951 1.374 . S
C951 H931 0.950 . S
C951 C947 1.385 . S
C951 C950 1.374 . S
C952 C949 1.499 . S
C952 C953 1.373 . S
C952 C954 1.389 . S
C953 H932 0.950 . S
C953 C952 1.373 . S
C953 C969 1.377 . S
C954 C952 1.389 . S
C954 C955 1.524 . S
C954 C968 1.377 . S
C955 C954 1.524 . S
C955 C956 1.397 . S
C955 C960 1.363 . S
C956 H933 0.950 . S
C956 C955 1.397 . S
C956 C957 1.334 . S
C957 H934 0.950 . S
C957 C956 1.334 . S
C957 C958 1.287 . S
C958 C957 1.287 . S
C958 C959 1.524 . S
C958 H977 0.913 . S
C959 H935 0.950 . S
C959 C958 1.524 . S
C959 C960 1.415 . S
C960 H936 0.950 . S
C960 C955 1.363 . S
C960 C959 1.415 . S
C961 H937 0.951 . S
C961 C962 1.366 . S
C961 C963 1.388 . S
C962 C961 1.366 . S
C962 C966 1.385 . S
C963 H938 0.951 . S
C963 C961 1.388 . S
C963 C964 1.366 . S
C964 C963 1.366 . S
C964 C965 1.414 . S
C964 C967 1.499 . S
C965 H939 0.950 . S
C965 C964 1.414 . S
C965 C966 1.374 . S
C966 H940 0.950 . S
C966 C962 1.385 . S
C966 C965 1.374 . S
C967 C964 1.499 . S
C967 C968 1.373 . S
C967 C969 1.389 . S
C968 H941 0.950 . S
C968 C954 1.377 . S
C968 C967 1.373 . S
C969 C953 1.377 . S
C969 C967 1.389 . S
C969 C970 1.524 . S
C970 C969 1.524 . S
C970 C971 1.397 . S
C970 C975 1.363 . S
C971 H942 0.950 . S
C971 C970 1.397 . S
C971 C972 1.334 . S
C972 H943 0.950 . S
C972 C971 1.334 . S
C972 C973 1.287 . S
C973 C972 1.287 . S
C973 C974 1.524 . S
C973 H976 0.999 . S
C974 H944 0.950 . S
C974 C973 1.524 . S
C974 C975 1.415 . S
C975 H945 0.950 . S
C975 C970 1.363 . S
C975 C974 1.415 . S
H976 C973 0.999 . S
H977 C958 0.913 . S
H978 C996 0.951 . S
H979 C998 0.951 . S
H980 C1000 0.950 . S
H981 C1001 0.950 . S
H982 C1003 0.950 . S
H983 C1006 0.950 . S
H984 C1007 0.950 . S
H985 C1009 0.950 . S
H986 C1010 0.950 . S
H987 C1011 0.951 . S
H988 C1013 0.951 . S
H989 C1015 0.950 . S
H990 C1016 0.950 . S
H991 C1018 0.950 . S
H992 C1021 0.950 . S
H993 C1022 0.950 . S
H994 C1024 0.950 . S
H995 C1025 0.950 . S
C996 H978 0.951 . S
C996 C997 1.366 . S
C996 C998 1.388 . S
C997 C996 1.366 . S
C997 C1001 1.385 . S
C998 H979 0.951 . S
C998 C996 1.388 . S
C998 C999 1.366 . S
C999 C998 1.366 . S
C999 C1000 1.414 . S
C999 C1002 1.499 . S
C1000 H980 0.950 . S
C1000 C999 1.414 . S
C1000 C1001 1.374 . S
C1001 H981 0.950 . S
C1001 C997 1.385 . S
C1001 C1000 1.374 . S
C1002 C999 1.499 . S
C1002 C1003 1.373 . S
C1002 C1004 1.389 . S
C1003 H982 0.950 . S
C1003 C1002 1.373 . S
C1003 C1019 1.377 . S
C1004 C1002 1.389 . S
C1004 C1005 1.524 . S
C1004 C1018 1.377 . S
C1005 C1004 1.524 . S
C1005 C1006 1.397 . S
C1005 C1010 1.363 . S
C1006 H983 0.950 . S
C1006 C1005 1.397 . S
C1006 C1007 1.334 . S
C1007 H984 0.950 . S
C1007 C1006 1.334 . S
C1007 C1008 1.287 . S
C1008 C1007 1.287 . S
C1008 C1009 1.524 . S
C1008 H1027 0.918 . S
C1009 H985 0.950 . S
C1009 C1008 1.524 . S
C1009 C1010 1.415 . S
C1010 H986 0.950 . S
C1010 C1005 1.363 . S
C1010 C1009 1.415 . S
C1011 H987 0.951 . S
C1011 C1012 1.366 . S
C1011 C1013 1.388 . S
C1012 C1011 1.366 . S
C1012 C1016 1.385 . S
C1013 H988 0.951 . S
C1013 C1011 1.388 . S
C1013 C1014 1.366 . S
C1014 C1013 1.366 . S
C1014 C1015 1.414 . S
C1014 C1017 1.499 . S
C1015 H989 0.950 . S
C1015 C1014 1.414 . S
C1015 C1016 1.374 . S
C1016 H990 0.950 . S
C1016 C1012 1.385 . S
C1016 C1015 1.374 . S
C1017 C1014 1.499 . S
C1017 C1018 1.373 . S
C1017 C1019 1.389 . S
C1018 H991 0.950 . S
C1018 C1004 1.377 . S
C1018 C1017 1.373 . S
C1019 C1003 1.377 . S
C1019 C1017 1.389 . S
C1019 C1020 1.524 . S
C1020 C1019 1.524 . S
C1020 C1021 1.397 . S
C1020 C1025 1.363 . S
C1021 H992 0.950 . S
C1021 C1020 1.397 . S
C1021 C1022 1.334 . S
C1022 H993 0.950 . S
C1022 C1021 1.334 . S
C1022 C1023 1.287 . S
C1023 C1022 1.287 . S
C1023 C1024 1.524 . S
C1023 H1026 0.999 . S
C1024 H994 0.950 . S
C1024 C1023 1.524 . S
C1024 C1025 1.415 . S
C1025 H995 0.950 . S
C1025 C1020 1.363 . S
C1025 C1024 1.415 . S
H1026 C1023 0.999 . S
H1027 C1008 0.918 . S
H1028 C1046 0.951 . S
H1029 C1048 0.951 . S
H1030 C1050 0.950 . S
H1031 C1051 0.950 . S
H1032 C1053 0.950 . S
H1033 C1056 0.950 . S
H1034 C1057 0.950 . S
H1035 C1059 0.950 . S
H1036 C1060 0.950 . S
H1037 C1061 0.951 . S
H1038 C1063 0.951 . S
H1039 C1065 0.950 . S
H1040 C1066 0.950 . S
H1041 C1068 0.950 . S
H1042 C1071 0.950 . S
H1043 C1072 0.950 . S
H1044 C1074 0.950 . S
H1045 C1075 0.950 . S
C1046 H1028 0.951 . S
C1046 C1047 1.366 . S
C1046 C1048 1.388 . S
C1047 C1046 1.366 . S
C1047 C1051 1.385 . S
C1048 H1029 0.951 . S
C1048 C1046 1.388 . S
C1048 C1049 1.366 . S
C1049 C1048 1.366 . S
C1049 C1050 1.414 . S
C1049 C1052 1.499 . S
C1050 H1030 0.950 . S
C1050 C1049 1.414 . S
C1050 C1051 1.374 . S
C1051 H1031 0.950 . S
C1051 C1047 1.385 . S
C1051 C1050 1.374 . S
C1052 C1049 1.499 . S
C1052 C1053 1.373 . S
C1052 C1054 1.389 . S
C1053 H1032 0.950 . S
C1053 C1052 1.373 . S
C1053 C1069 1.377 . S
C1054 C1052 1.389 . S
C1054 C1055 1.524 . S
C1054 C1068 1.377 . S
C1055 C1054 1.524 . S
C1055 C1056 1.397 . S
C1055 C1060 1.363 . S
C1056 H1033 0.950 . S
C1056 C1055 1.397 . S
C1056 C1057 1.334 . S
C1057 H1034 0.950 . S
C1057 C1056 1.334 . S
C1057 C1058 1.287 . S
C1058 C1057 1.287 . S
C1058 C1059 1.524 . S
C1058 H1077 0.913 . S
C1059 H1035 0.950 . S
C1059 C1058 1.524 . S
C1059 C1060 1.415 . S
C1060 H1036 0.950 . S
C1060 C1055 1.363 . S
C1060 C1059 1.415 . S
C1061 H1037 0.951 . S
C1061 C1062 1.366 . S
C1061 C1063 1.388 . S
C1062 C1061 1.366 . S
C1062 C1066 1.385 . S
C1063 H1038 0.951 . S
C1063 C1061 1.388 . S
C1063 C1064 1.366 . S
C1064 C1063 1.366 . S
C1064 C1065 1.414 . S
C1064 C1067 1.499 . S
C1065 H1039 0.950 . S
C1065 C1064 1.414 . S
C1065 C1066 1.374 . S
C1066 H1040 0.950 . S
C1066 C1062 1.385 . S
C1066 C1065 1.374 . S
C1067 C1064 1.499 . S
C1067 C1068 1.373 . S
C1067 C1069 1.389 . S
C1068 H1041 0.950 . S
C1068 C1054 1.377 . S
C1068 C1067 1.373 . S
C1069 C1053 1.377 . S
C1069 C1067 1.389 . S
C1069 C1070 1.524 . S
C1070 C1069 1.524 . S
C1070 C1071 1.397 . S
C1070 C1075 1.363 . S
C1071 H1042 0.950 . S
C1071 C1070 1.397 . S
C1071 C1072 1.334 1_556 S
C1072 H1043 0.950 . S
C1072 C1071 1.334 1_554 S
C1072 C1073 1.287 . S
C1073 C1072 1.287 . S
C1073 C1074 1.524 . S
C1073 H1076 0.999 . S
C1074 H1044 0.950 . S
C1074 C1073 1.524 . S
C1074 C1075 1.415 1_554 S
C1075 H1045 0.950 . S
C1075 C1070 1.363 . S
C1075 C1074 1.415 1_556 S
H1076 C1073 0.999 . S
H1077 C1058 0.913 . S
H1078 C1096 0.951 . S
H1079 C1098 0.951 . S
H1080 C1100 0.950 . S
H1081 C1101 0.950 . S
H1082 C1103 0.950 . S
H1083 C1106 0.950 . S
H1084 C1107 0.950 . S
H1085 C1109 0.956 . S
H1086 C1110 0.950 . S
H1087 C1111 0.951 . S
H1088 C1113 0.951 . S
H1089 C1115 0.950 1_554 S
H1090 C1116 0.950 . S
H1091 C1118 0.950 . S
H1092 C1121 0.950 . S
H1093 C1122 0.950 . S
H1094 C1124 0.950 . S
H1095 C1125 0.950 . S
C1096 H1078 0.951 . S
C1096 C1097 1.366 . S
C1096 C1098 1.388 . S
C1097 C1096 1.366 . S
C1097 C1101 1.385 . S
C1098 H1079 0.951 . S
C1098 C1096 1.388 . S
C1098 C1099 1.366 . S
C1099 C1098 1.366 . S
C1099 C1100 1.414 . S
C1099 C1102 1.499 . S
C1100 H1080 0.950 . S
C1100 C1099 1.414 . S
C1100 C1101 1.374 . S
C1101 H1081 0.950 . S
C1101 C1097 1.385 . S
C1101 C1100 1.374 . S
C1102 C1099 1.499 . S
C1102 C1103 1.373 . S
C1102 C1104 1.389 . S
C1103 H1082 0.950 . S
C1103 C1102 1.373 . S
C1103 C1119 1.377 . S
C1104 C1102 1.389 . S
C1104 C1105 1.524 . S
C1104 C1118 1.377 . S
C1105 C1104 1.524 . S
C1105 C1106 1.397 . S
C1105 C1110 1.363 . S
C1106 H1083 0.950 . S
C1106 C1105 1.397 . S
C1106 C1107 1.334 . S
C1107 H1084 0.950 . S
C1107 C1106 1.334 . S
C1107 C1108 1.287 . S
C1108 C1107 1.287 . S
C1108 C1109 1.524 . S
C1108 H1127 0.913 . S
C1109 H1085 0.956 . S
C1109 C1108 1.524 . S
C1109 C1110 1.415 . S
C1110 H1086 0.950 . S
C1110 C1105 1.363 . S
C1110 C1109 1.415 . S
C1111 H1087 0.951 . S
C1111 C1112 1.366 . S
C1111 C1113 1.388 . S
C1112 C1111 1.366 . S
C1112 C1116 1.385 1_556 S
C1113 H1088 0.951 . S
C1113 C1111 1.388 . S
C1113 C1114 1.366 . S
C1114 C1113 1.366 . S
C1114 C1115 1.414 . S
C1114 C1117 1.499 . S
C1115 H1089 0.950 1_556 S
C1115 C1114 1.414 . S
C1115 C1116 1.374 1_556 S
C1116 H1090 0.950 . S
C1116 C1112 1.385 1_554 S
C1116 C1115 1.374 1_554 S
C1117 C1114 1.499 . S
C1117 C1118 1.373 . S
C1117 C1119 1.389 . S
C1118 H1091 0.950 . S
C1118 C1104 1.377 . S
C1118 C1117 1.373 . S
C1119 C1103 1.377 . S
C1119 C1117 1.389 . S
C1119 C1120 1.524 . S
C1120 C1119 1.524 . S
C1120 C1121 1.397 . S
C1120 C1125 1.363 . S
C1121 H1092 0.950 . S
C1121 C1120 1.397 . S
C1121 C1122 1.334 . S
C1122 H1093 0.950 . S
C1122 C1121 1.334 . S
C1122 C1123 1.287 . S
C1123 C1122 1.287 . S
C1123 C1124 1.524 . S
C1123 H1126 0.999 1_545 S
C1124 H1094 0.950 . S
C1124 C1123 1.524 . S
C1124 C1125 1.415 . S
C1125 H1095 0.950 . S
C1125 C1120 1.363 . S
C1125 C1124 1.415 . S
H1126 C1123 0.999 1_565 S
H1127 C1108 0.913 . S
H1128 C1146 0.951 . S
H1129 C1148 0.951 . S
H1130 C1150 0.950 . S
H1131 C1151 0.950 . S
H1132 C1153 0.950 . S
H1133 C1156 0.950 . S
H1134 C1157 0.950 . S
H1135 C1159 0.950 . S
H1136 C1160 0.950 . S
H1137 C1161 0.951 . S
H1138 C1163 0.951 . S
H1139 C1165 0.950 . S
H1140 C1166 0.950 . S
H1141 C1168 0.950 . S
H1142 C1171 0.949 1_556 S
H1143 C1172 0.950 . S
H1144 C1174 0.950 . S
H1145 C1175 0.950 . S
C1146 H1128 0.951 . S
C1146 C1147 1.366 . S
C1146 C1148 1.388 . S
C1147 C1146 1.366 . S
C1147 C1151 1.385 . S
C1148 H1129 0.951 . S
C1148 C1146 1.388 . S
C1148 C1149 1.366 . S
C1149 C1148 1.366 . S
C1149 C1150 1.414 . S
C1149 C1152 1.499 . S
C1150 H1130 0.950 . S
C1150 C1149 1.414 . S
C1150 C1151 1.374 . S
C1151 H1131 0.950 . S
C1151 C1147 1.385 . S
C1151 C1150 1.374 . S
C1152 C1149 1.499 . S
C1152 C1153 1.373 . S
C1152 C1154 1.389 . S
C1153 H1132 0.950 . S
C1153 C1152 1.373 . S
C1153 C1169 1.377 . S
C1154 C1152 1.389 . S
C1154 C1155 1.524 . S
C1154 C1168 1.377 . S
C1155 C1154 1.524 . S
C1155 C1156 1.397 . S
C1155 C1160 1.363 . S
C1156 H1133 0.950 . S
C1156 C1155 1.397 . S
C1156 C1157 1.334 . S
C1157 H1134 0.950 . S
C1157 C1156 1.334 . S
C1157 C1158 1.287 . S
C1158 C1157 1.287 . S
C1158 C1159 1.524 . S
C1158 H1177 0.913 . S
C1159 H1135 0.950 . S
C1159 C1158 1.524 . S
C1159 C1160 1.415 . S
C1160 H1136 0.950 . S
C1160 C1155 1.363 . S
C1160 C1159 1.415 . S
C1161 H1137 0.951 . S
C1161 C1162 1.366 . S
C1161 C1163 1.388 . S
C1162 C1161 1.366 . S
C1162 C1166 1.385 . S
C1163 H1138 0.951 . S
C1163 C1161 1.388 . S
C1163 C1164 1.366 . S
C1164 C1163 1.366 . S
C1164 C1165 1.414 . S
C1164 C1167 1.499 . S
C1165 H1139 0.950 . S
C1165 C1164 1.414 . S
C1165 C1166 1.374 . S
C1166 H1140 0.950 . S
C1166 C1162 1.385 . S
C1166 C1165 1.374 . S
C1167 C1164 1.499 . S
C1167 C1168 1.373 . S
C1167 C1169 1.389 . S
C1168 H1141 0.950 . S
C1168 C1154 1.377 . S
C1168 C1167 1.373 . S
C1169 C1153 1.377 . S
C1169 C1167 1.389 . S
C1169 C1170 1.524 . S
C1170 C1169 1.524 . S
C1170 C1171 1.392 1_556 S
C1170 C1175 1.363 . S
C1171 H1142 0.949 1_554 S
C1171 C1170 1.392 1_554 S
C1171 C1172 1.339 . S
C1172 H1143 0.950 . S
C1172 C1171 1.339 . S
C1172 C1173 1.287 . S
C1173 C1172 1.287 . S
C1173 C1174 1.524 . S
C1173 H1176 0.999 . S
C1174 H1144 0.950 . S
C1174 C1173 1.524 . S
C1174 C1175 1.415 1_554 S
C1175 H1145 0.950 . S
C1175 C1170 1.363 . S
C1175 C1174 1.415 1_556 S
H1176 C1173 0.999 . S
H1177 C1158 0.913 . S
H1178 C1196 0.951 . S
H1179 C1198 0.951 . S
H1180 C1200 0.950 . S
H1181 C1201 0.950 . S
H1182 C1203 0.950 . S
H1183 C1206 0.950 . S
H1184 C1207 0.950 . S
H1185 C1209 0.950 1_554 S
H1186 C1210 0.950 . S
H1187 C1211 0.951 . S
H1188 C1213 0.951 . S
H1189 C1215 0.950 . S
H1190 C1216 0.950 . S
H1191 C1218 0.950 . S
H1192 C1221 0.950 . S
H1193 C1222 0.950 . S
H1194 C1224 0.950 . S
H1195 C1225 0.950 . S
C1196 H1178 0.951 . S
C1196 C1197 1.366 . S
C1196 C1198 1.388 . S
C1197 C1196 1.366 . S
C1197 C1201 1.385 . S
C1198 H1179 0.951 . S
C1198 C1196 1.388 . S
C1198 C1199 1.366 . S
C1199 C1198 1.366 . S
C1199 C1200 1.414 . S
C1199 C1202 1.499 . S
C1200 H1180 0.950 . S
C1200 C1199 1.414 . S
C1200 C1201 1.374 . S
C1201 H1181 0.950 . S
C1201 C1197 1.385 . S
C1201 C1200 1.374 . S
C1202 C1199 1.499 . S
C1202 C1203 1.373 . S
C1202 C1204 1.389 . S
C1203 H1182 0.950 . S
C1203 C1202 1.373 . S
C1203 C1219 1.377 . S
C1204 C1202 1.389 . S
C1204 C1205 1.524 . S
C1204 C1218 1.377 . S
C1205 C1204 1.524 . S
C1205 C1206 1.397 . S
C1205 C1210 1.363 . S
C1206 H1183 0.950 . S
C1206 C1205 1.397 . S
C1206 C1207 1.334 . S
C1207 H1184 0.950 . S
C1207 C1206 1.334 . S
C1207 C1208 1.287 . S
C1208 C1207 1.287 . S
C1208 C1209 1.524 . S
C1208 H1227 0.913 . S
C1209 H1185 0.950 1_556 S
C1209 C1208 1.524 . S
C1209 C1210 1.415 . S
C1210 H1186 0.950 . S
C1210 C1205 1.363 . S
C1210 C1209 1.415 . S
C1211 H1187 0.951 . S
C1211 C1212 1.366 . S
C1211 C1213 1.388 . S
C1212 C1211 1.366 . S
C1212 C1216 1.385 . S
C1213 H1188 0.951 . S
C1213 C1211 1.388 . S
C1213 C1214 1.366 . S
C1214 C1213 1.366 . S
C1214 C1215 1.414 . S
C1214 C1217 1.499 . S
C1215 H1189 0.950 . S
C1215 C1214 1.414 . S
C1215 C1216 1.374 . S
C1216 H1190 0.950 . S
C1216 C1212 1.385 . S
C1216 C1215 1.374 . S
C1217 C1214 1.499 . S
C1217 C1218 1.373 . S
C1217 C1219 1.389 . S
C1218 H1191 0.950 . S
C1218 C1204 1.377 . S
C1218 C1217 1.373 . S
C1219 C1203 1.377 . S
C1219 C1217 1.389 . S
C1219 C1220 1.524 . S
C1220 C1219 1.524 . S
C1220 C1221 1.397 . S
C1220 C1225 1.363 . S
C1221 H1192 0.950 . S
C1221 C1220 1.397 . S
C1221 C1222 1.334 . S
C1222 H1193 0.950 . S
C1222 C1221 1.334 . S
C1222 C1223 1.287 . S
C1223 C1222 1.287 . S
C1223 C1224 1.524 . S
C1223 H1226 0.999 . S
C1224 H1194 0.950 . S
C1224 C1223 1.524 . S
C1224 C1225 1.415 . S
C1225 H1195 0.950 . S
C1225 C1220 1.363 . S
C1225 C1224 1.415 . S
H1226 C1223 0.999 . S
H1227 C1208 0.913 . S
H1228 C1246 0.951 . S
H1229 C1248 0.951 . S
H1230 C1250 0.950 . S
H1231 C1251 0.950 . S
H1232 C1253 0.950 . S
H1233 C1256 0.950 . S
H1234 C1257 0.950 1_554 S
H1235 C1259 0.950 . S
H1236 C1260 0.950 . S
H1237 C1261 0.951 . S
H1238 C1263 0.951 . S
H1239 C1265 0.950 . S
H1240 C1266 0.950 . S
H1241 C1268 0.950 . S
H1242 C1271 0.950 . S
H1243 C1272 0.950 . S
H1244 C1274 0.950 . S
H1245 C1275 0.950 . S
C1246 H1228 0.951 . S
C1246 C1247 1.366 . S
C1246 C1248 1.388 . S
C1247 C1246 1.366 . S
C1247 C1251 1.385 . S
C1248 H1229 0.951 . S
C1248 C1246 1.388 . S
C1248 C1249 1.366 . S
C1249 C1248 1.366 . S
C1249 C1250 1.414 . S
C1249 C1252 1.499 . S
C1250 H1230 0.950 . S
C1250 C1249 1.414 . S
C1250 C1251 1.374 . S
C1251 H1231 0.950 . S
C1251 C1247 1.385 . S
C1251 C1250 1.374 . S
C1252 C1249 1.499 . S
C1252 C1253 1.373 . S
C1252 C1254 1.389 . S
C1253 H1232 0.950 . S
C1253 C1252 1.373 . S
C1253 C1269 1.377 . S
C1254 C1252 1.389 . S
C1254 C1255 1.524 . S
C1254 C1268 1.377 . S
C1255 C1254 1.524 . S
C1255 C1256 1.397 . S
C1255 C1260 1.363 . S
C1256 H1233 0.950 . S
C1256 C1255 1.397 . S
C1256 C1257 1.334 . S
C1257 H1234 0.950 1_556 S
C1257 C1256 1.334 . S
C1257 C1258 1.287 . S
C1258 C1257 1.287 . S
C1258 C1259 1.524 . S
C1258 H1277 0.913 . S
C1259 H1235 0.950 . S
C1259 C1258 1.524 . S
C1259 C1260 1.415 . S
C1260 H1236 0.950 . S
C1260 C1255 1.363 . S
C1260 C1259 1.415 . S
C1261 H1237 0.951 . S
C1261 C1262 1.366 . S
C1261 C1263 1.388 . S
C1262 C1261 1.366 . S
C1262 C1266 1.385 . S
C1263 H1238 0.951 . S
C1263 C1261 1.388 . S
C1263 C1264 1.366 . S
C1264 C1263 1.366 . S
C1264 C1265 1.414 . S
C1264 C1267 1.499 . S
C1265 H1239 0.950 . S
C1265 C1264 1.414 . S
C1265 C1266 1.374 . S
C1266 H1240 0.950 . S
C1266 C1262 1.385 . S
C1266 C1265 1.374 . S
C1267 C1264 1.499 . S
C1267 C1268 1.373 . S
C1267 C1269 1.389 . S
C1268 H1241 0.950 . S
C1268 C1254 1.377 . S
C1268 C1267 1.373 . S
C1269 C1253 1.377 . S
C1269 C1267 1.389 . S
C1269 C1270 1.524 . S
C1270 C1269 1.524 . S
C1270 C1271 1.397 . S
C1270 C1275 1.363 . S
C1271 H1242 0.950 . S
C1271 C1270 1.397 . S
C1271 C1272 1.334 . S
C1272 H1243 0.950 . S
C1272 C1271 1.334 . S
C1272 C1273 1.287 . S
C1273 C1272 1.287 . S
C1273 C1274 1.524 . S
C1273 H1276 0.999 . S
C1274 H1244 0.950 . S
C1274 C1273 1.524 . S
C1274 C1275 1.415 . S
C1275 H1245 0.950 . S
C1275 C1270 1.363 . S
C1275 C1274 1.415 . S
H1276 C1273 0.999 . S
H1277 C1258 0.913 . S
H1278 C1296 0.951 . S
H1279 C1298 0.951 . S
H1280 C1300 0.950 . S
H1281 C1301 0.950 . S
H1282 C1303 0.950 . S
H1283 C1306 0.950 . S
H1284 C1307 0.950 . S
H1285 C1309 0.950 . S
H1286 C1310 0.950 . S
H1287 C1311 0.951 . S
H1288 C1313 0.951 . S
H1289 C1315 0.950 . S
H1290 C1316 0.950 . S
H1291 C1318 0.950 . S
H1292 C1321 0.950 . S
H1293 C1322 0.950 . S
H1294 C1324 0.950 . S
H1295 C1325 0.950 . S
C1296 H1278 0.951 . S
C1296 C1297 1.366 . S
C1296 C1298 1.388 . S
C1297 C1296 1.366 . S
C1297 C1301 1.385 . S
C1298 H1279 0.951 . S
C1298 C1296 1.388 . S
C1298 C1299 1.366 . S
C1299 C1298 1.366 . S
C1299 C1300 1.414 . S
C1299 C1302 1.499 . S
C1300 H1280 0.950 . S
C1300 C1299 1.414 . S
C1300 C1301 1.374 . S
C1301 H1281 0.950 . S
C1301 C1297 1.385 . S
C1301 C1300 1.374 . S
C1302 C1299 1.499 . S
C1302 C1303 1.373 . S
C1302 C1304 1.389 . S
C1303 H1282 0.950 . S
C1303 C1302 1.373 . S
C1303 C1319 1.377 . S
C1304 C1302 1.389 . S
C1304 C1305 1.524 . S
C1304 C1318 1.377 . S
C1305 C1304 1.524 . S
C1305 C1306 1.397 . S
C1305 C1310 1.363 . S
C1306 H1283 0.950 . S
C1306 C1305 1.397 . S
C1306 C1307 1.334 . S
C1307 H1284 0.950 . S
C1307 C1306 1.334 . S
C1307 C1308 1.287 . S
C1308 C1307 1.287 . S
C1308 C1309 1.524 . S
C1308 H1327 0.913 . S
C1309 H1285 0.950 . S
C1309 C1308 1.524 . S
C1309 C1310 1.415 . S
C1310 H1286 0.950 . S
C1310 C1305 1.363 . S
C1310 C1309 1.415 . S
C1311 H1287 0.951 . S
C1311 C1312 1.366 . S
C1311 C1313 1.388 . S
C1312 C1311 1.366 . S
C1312 C1316 1.385 . S
C1313 H1288 0.951 . S
C1313 C1311 1.388 . S
C1313 C1314 1.366 . S
C1314 C1313 1.366 . S
C1314 C1315 1.414 . S
C1314 C1317 1.499 . S
C1315 H1289 0.950 . S
C1315 C1314 1.414 . S
C1315 C1316 1.374 . S
C1316 H1290 0.950 . S
C1316 C1312 1.385 . S
C1316 C1315 1.374 . S
C1317 C1314 1.499 . S
C1317 C1318 1.373 . S
C1317 C1319 1.389 . S
C1318 H1291 0.950 . S
C1318 C1304 1.377 . S
C1318 C1317 1.373 . S
C1319 C1303 1.377 . S
C1319 C1317 1.389 . S
C1319 C1320 1.524 . S
C1320 C1319 1.524 . S
C1320 C1321 1.397 . S
C1320 C1325 1.363 . S
C1321 H1292 0.950 . S
C1321 C1320 1.397 . S
C1321 C1322 1.334 . S
C1322 H1293 0.950 . S
C1322 C1321 1.334 . S
C1322 C1323 1.287 . S
C1323 C1322 1.287 . S
C1323 C1324 1.524 . S
C1323 H1326 1.015 . S
C1324 H1294 0.950 . S
C1324 C1323 1.524 . S
C1324 C1325 1.415 . S
C1325 H1295 0.950 . S
C1325 C1320 1.363 . S
C1325 C1324 1.415 . S
H1326 C1323 1.015 . S
H1327 C1308 0.913 . S
H1328 C1346 0.951 . S
H1329 C1348 0.951 . S
H1330 C1350 0.950 . S
H1331 C1351 0.950 . S
H1332 C1353 0.950 . S
H1333 C1356 0.950 . S
H1334 C1357 0.950 . S
H1335 C1359 0.950 . S
H1336 C1360 0.950 . S
H1337 C1361 0.951 . S
H1338 C1363 0.951 . S
H1339 C1365 0.950 . S
H1340 C1366 0.950 . S
H1341 C1368 0.950 . S
H1342 C1371 0.950 . S
H1343 C1372 0.950 . S
H1344 C1374 0.964 . S
H1345 C1375 0.950 . S
C1346 H1328 0.951 . S
C1346 C1347 1.366 . S
C1346 C1348 1.388 . S
C1347 C1346 1.366 . S
C1347 C1351 1.385 . S
C1348 H1329 0.951 . S
C1348 C1346 1.388 . S
C1348 C1349 1.366 . S
C1349 C1348 1.366 . S
C1349 C1350 1.414 . S
C1349 C1352 1.499 . S
C1350 H1330 0.950 . S
C1350 C1349 1.414 . S
C1350 C1351 1.374 . S
C1351 H1331 0.950 . S
C1351 C1347 1.385 . S
C1351 C1350 1.374 . S
C1352 C1349 1.499 . S
C1352 C1353 1.373 . S
C1352 C1354 1.389 . S
C1353 H1332 0.950 . S
C1353 C1352 1.373 . S
C1353 C1369 1.377 . S
C1354 C1352 1.389 . S
C1354 C1355 1.524 . S
C1354 C1368 1.377 . S
C1355 C1354 1.524 . S
C1355 C1356 1.397 . S
C1355 C1360 1.363 . S
C1356 H1333 0.950 . S
C1356 C1355 1.397 . S
C1356 C1357 1.334 . S
C1357 H1334 0.950 . S
C1357 C1356 1.334 . S
C1357 C1358 1.287 . S
C1358 C1357 1.287 . S
C1358 C1359 1.524 . S
C1358 H1377 0.913 . S
C1359 H1335 0.950 . S
C1359 C1358 1.524 . S
C1359 C1360 1.415 . S
C1360 H1336 0.950 . S
C1360 C1355 1.363 . S
C1360 C1359 1.415 . S
C1361 H1337 0.951 . S
C1361 C1362 1.366 . S
C1361 C1363 1.388 . S
C1362 C1361 1.366 . S
C1362 C1366 1.385 . S
C1363 H1338 0.951 . S
C1363 C1361 1.388 . S
C1363 C1364 1.366 . S
C1364 C1363 1.366 . S
C1364 C1365 1.414 . S
C1364 C1367 1.499 . S
C1365 H1339 0.950 . S
C1365 C1364 1.414 . S
C1365 C1366 1.374 . S
C1366 H1340 0.950 . S
C1366 C1362 1.385 . S
C1366 C1365 1.374 . S
C1367 C1364 1.499 . S
C1367 C1368 1.373 . S
C1367 C1369 1.389 . S
C1368 H1341 0.950 . S
C1368 C1354 1.377 . S
C1368 C1367 1.373 . S
C1369 C1353 1.377 . S
C1369 C1367 1.389 . S
C1369 C1370 1.524 . S
C1370 C1369 1.524 . S
C1370 C1371 1.397 . S
C1370 C1375 1.363 . S
C1371 H1342 0.950 . S
C1371 C1370 1.397 . S
C1371 C1372 1.334 . S
C1372 H1343 0.950 . S
C1372 C1371 1.334 . S
C1372 C1373 1.287 . S
C1373 C1372 1.287 . S
C1373 C1374 1.524 . S
C1373 H1376 0.999 . S
C1374 H1344 0.964 . S
C1374 C1373 1.524 . S
C1374 C1375 1.415 . S
C1375 H1345 0.950 . S
C1375 C1370 1.363 . S
C1375 C1374 1.415 . S
H1376 C1373 0.999 . S
H1377 C1358 0.913 . S
H1378 C1396 0.951 . S
H1379 C1398 0.951 . S
H1380 C1400 0.950 . S
H1381 C1401 0.950 . S
H1382 C1403 0.950 . S
H1383 C1406 0.950 . S
H1384 C1407 0.950 . S
H1385 C1409 0.950 . S
H1386 C1410 0.959 . S
H1387 C1411 0.951 . S
H1388 C1413 0.951 . S
H1389 C1415 0.950 . S
H1390 C1416 0.950 . S
H1391 C1418 0.950 . S
H1392 C1421 0.950 . S
H1393 C1422 0.950 . S
H1394 C1424 0.950 . S
H1395 C1425 0.950 . S
C1396 H1378 0.951 . S
C1396 C1397 1.366 . S
C1396 C1398 1.388 . S
C1397 C1396 1.366 . S
C1397 C1401 1.385 . S
C1398 H1379 0.951 . S
C1398 C1396 1.388 . S
C1398 C1399 1.366 . S
C1399 C1398 1.366 . S
C1399 C1400 1.414 . S
C1399 C1402 1.499 . S
C1400 H1380 0.950 . S
C1400 C1399 1.414 . S
C1400 C1401 1.374 . S
C1401 H1381 0.950 . S
C1401 C1397 1.385 . S
C1401 C1400 1.374 . S
C1402 C1399 1.499 . S
C1402 C1403 1.373 . S
C1402 C1404 1.389 . S
C1403 H1382 0.950 . S
C1403 C1402 1.373 . S
C1403 C1419 1.377 . S
C1404 C1402 1.389 . S
C1404 C1405 1.524 . S
C1404 C1418 1.377 . S
C1405 C1404 1.524 . S
C1405 C1406 1.397 . S
C1405 C1410 1.363 . S
C1406 H1383 0.950 . S
C1406 C1405 1.397 . S
C1406 C1407 1.334 . S
C1407 H1384 0.950 . S
C1407 C1406 1.334 . S
C1407 C1408 1.287 1_554 S
C1408 C1407 1.287 1_556 S
C1408 C1409 1.524 . S
C1408 H1427 0.913 . S
C1409 H1385 0.950 . S
C1409 C1408 1.524 . S
C1409 C1410 1.415 1_556 S
C1410 H1386 0.959 . S
C1410 C1405 1.363 . S
C1410 C1409 1.415 1_554 S
C1411 H1387 0.951 . S
C1411 C1412 1.366 . S
C1411 C1413 1.388 . S
C1412 C1411 1.366 . S
C1412 C1416 1.385 . S
C1413 H1388 0.951 . S
C1413 C1411 1.388 . S
C1413 C1414 1.366 . S
C1414 C1413 1.366 . S
C1414 C1415 1.414 . S
C1414 C1417 1.499 . S
C1415 H1389 0.950 . S
C1415 C1414 1.414 . S
C1415 C1416 1.374 . S
C1416 H1390 0.950 . S
C1416 C1412 1.385 . S
C1416 C1415 1.374 . S
C1417 C1414 1.499 . S
C1417 C1418 1.373 . S
C1417 C1419 1.389 . S
C1418 H1391 0.950 . S
C1418 C1404 1.377 . S
C1418 C1417 1.373 . S
C1419 C1403 1.377 . S
C1419 C1417 1.389 . S
C1419 C1420 1.524 . S
C1420 C1419 1.524 . S
C1420 C1421 1.397 . S
C1420 C1425 1.363 . S
C1421 H1392 0.950 . S
C1421 C1420 1.397 . S
C1421 C1422 1.334 . S
C1422 H1393 0.950 . S
C1422 C1421 1.334 . S
C1422 C1423 1.287 . S
C1423 C1422 1.287 . S
C1423 C1424 1.524 . S
C1423 H1426 0.999 . S
C1424 H1394 0.950 . S
C1424 C1423 1.524 . S
C1424 C1425 1.415 . S
C1425 H1395 0.950 . S
C1425 C1420 1.363 . S
C1425 C1424 1.415 . S
H1426 C1423 0.999 . S
H1427 C1408 0.913 . S
H1428 C1446 0.951 . S
H1429 C1448 0.951 . S
H1430 C1450 0.950 . S
H1431 C1451 0.950 . S
H1432 C1453 0.950 . S
H1433 C1456 0.950 . S
H1434 C1457 0.950 . S
H1435 C1459 0.950 . S
H1436 C1460 0.950 . S
H1437 C1461 0.951 . S
H1438 C1463 0.951 . S
H1439 C1465 0.950 . S
H1440 C1466 0.950 . S
H1441 C1468 0.950 . S
H1442 C1471 0.950 . S
H1443 C1472 0.950 . S
H1444 C1474 0.950 . S
H1445 C1475 0.950 . S
C1446 H1428 0.951 . S
C1446 C1447 1.366 . S
C1446 C1448 1.388 . S
C1447 C1446 1.366 . S
C1447 C1451 1.385 . S
C1448 H1429 0.951 . S
C1448 C1446 1.388 . S
C1448 C1449 1.366 . S
C1449 C1448 1.366 . S
C1449 C1450 1.414 . S
C1449 C1452 1.499 1_655 S
C1450 H1430 0.950 . S
C1450 C1449 1.414 . S
C1450 C1451 1.374 . S
C1451 H1431 0.950 . S
C1451 C1447 1.385 . S
C1451 C1450 1.374 . S
C1452 C1449 1.499 1_455 S
C1452 C1453 1.373 . S
C1452 C1454 1.389 . S
C1453 H1432 0.950 . S
C1453 C1452 1.373 . S
C1453 C1469 1.377 . S
C1454 C1452 1.389 . S
C1454 C1455 1.524 1_455 S
C1454 C1468 1.377 . S
C1455 C1454 1.524 1_655 S
C1455 C1456 1.397 . S
C1455 C1460 1.363 . S
C1456 H1433 0.950 . S
C1456 C1455 1.397 . S
C1456 C1457 1.334 . S
C1457 H1434 0.950 . S
C1457 C1456 1.334 . S
C1457 C1458 1.287 . S
C1458 C1457 1.287 . S
C1458 C1459 1.524 . S
C1458 H1477 0.913 . S
C1459 H1435 0.950 . S
C1459 C1458 1.524 . S
C1459 C1460 1.415 . S
C1460 H1436 0.950 . S
C1460 C1455 1.363 . S
C1460 C1459 1.415 . S
C1461 H1437 0.951 . S
C1461 C1462 1.366 . S
C1461 C1463 1.388 . S
C1462 C1461 1.366 . S
C1462 C1466 1.385 . S
C1463 H1438 0.951 . S
C1463 C1461 1.388 . S
C1463 C1464 1.366 . S
C1464 C1463 1.366 . S
C1464 C1465 1.414 . S
C1464 C1467 1.499 . S
C1465 H1439 0.950 . S
C1465 C1464 1.414 . S
C1465 C1466 1.374 . S
C1466 H1440 0.950 . S
C1466 C1462 1.385 . S
C1466 C1465 1.374 . S
C1467 C1464 1.499 . S
C1467 C1468 1.373 . S
C1467 C1469 1.389 . S
C1468 H1441 0.950 . S
C1468 C1454 1.377 . S
C1468 C1467 1.373 . S
C1469 C1453 1.377 . S
C1469 C1467 1.389 . S
C1469 C1470 1.524 . S
C1470 C1469 1.524 . S
C1470 C1471 1.397 . S
C1470 C1475 1.363 . S
C1471 H1442 0.950 . S
C1471 C1470 1.397 . S
C1471 C1472 1.334 . S
C1472 H1443 0.950 . S
C1472 C1471 1.334 . S
C1472 C1473 1.287 . S
C1473 C1472 1.287 . S
C1473 C1474 1.524 . S
C1473 H1476 0.999 . S
C1474 H1444 0.950 . S
C1474 C1473 1.524 . S
C1474 C1475 1.415 . S
C1475 H1445 0.950 . S
C1475 C1470 1.363 . S
C1475 C1474 1.415 . S
H1476 C1473 0.999 . S
H1477 C1458 0.913 . S
H1478 C1496 0.951 . S
H1479 C1498 0.951 . S
H1480 C1500 0.950 . S
H1481 C1501 0.950 . S
H1482 C1503 0.950 . S
H1483 C1506 0.950 . S
H1484 C1507 0.950 . S
H1485 C1509 0.950 . S
H1486 C1510 0.950 . S
H1487 C1511 0.951 . S
H1488 C1513 0.951 . S
H1489 C1515 0.950 . S
H1490 C1516 0.950 . S
H1491 C1518 0.950 . S
H1492 C1521 0.950 . S
H1493 C1522 0.950 . S
H1494 C1524 0.950 . S
H1495 C1525 0.950 . S
C1496 H1478 0.951 . S
C1496 C1497 1.366 . S
C1496 C1498 1.388 . S
C1497 C1496 1.366 . S
C1497 C1501 1.385 . S
C1498 H1479 0.951 . S
C1498 C1496 1.388 . S
C1498 C1499 1.366 . S
C1499 C1498 1.366 . S
C1499 C1500 1.414 . S
C1499 C1502 1.499 . S
C1500 H1480 0.950 . S
C1500 C1499 1.414 . S
C1500 C1501 1.374 . S
C1501 H1481 0.950 . S
C1501 C1497 1.385 . S
C1501 C1500 1.374 . S
C1502 C1499 1.499 . S
C1502 C1503 1.373 . S
C1502 C1504 1.389 . S
C1503 H1482 0.950 . S
C1503 C1502 1.373 . S
C1503 C1519 1.377 . S
C1504 C1502 1.389 . S
C1504 C1505 1.524 . S
C1504 C1518 1.377 . S
C1505 C1504 1.524 . S
C1505 C1506 1.397 . S
C1505 C1510 1.363 . S
C1506 H1483 0.950 . S
C1506 C1505 1.397 . S
C1506 C1507 1.334 . S
C1507 H1484 0.950 . S
C1507 C1506 1.334 . S
C1507 C1508 1.287 . S
C1508 C1507 1.287 . S
C1508 C1509 1.524 . S
C1508 H1527 0.913 . S
C1509 H1485 0.950 . S
C1509 C1508 1.524 . S
C1509 C1510 1.415 . S
C1510 H1486 0.950 . S
C1510 C1505 1.363 . S
C1510 C1509 1.415 . S
C1511 H1487 0.951 . S
C1511 C1512 1.366 . S
C1511 C1513 1.388 . S
C1512 C1511 1.366 . S
C1512 C1516 1.385 . S
C1513 H1488 0.951 . S
C1513 C1511 1.388 . S
C1513 C1514 1.366 . S
C1514 C1513 1.366 . S
C1514 C1515 1.414 . S
C1514 C1517 1.499 . S
C1515 H1489 0.950 . S
C1515 C1514 1.414 . S
C1515 C1516 1.374 . S
C1516 H1490 0.950 . S
C1516 C1512 1.385 . S
C1516 C1515 1.374 . S
C1517 C1514 1.499 . S
C1517 C1518 1.373 . S
C1517 C1519 1.389 . S
C1518 H1491 0.950 . S
C1518 C1504 1.377 . S
C1518 C1517 1.373 . S
C1519 C1503 1.377 . S
C1519 C1517 1.389 . S
C1519 C1520 1.524 . S
C1520 C1519 1.524 . S
C1520 C1521 1.397 . S
C1520 C1525 1.363 . S
C1521 H1492 0.950 . S
C1521 C1520 1.397 . S
C1521 C1522 1.334 . S
C1522 H1493 0.950 . S
C1522 C1521 1.334 . S
C1522 C1523 1.287 . S
C1523 C1522 1.287 . S
C1523 C1524 1.524 . S
C1523 H1526 0.999 . S
C1524 H1494 0.950 . S
C1524 C1523 1.524 . S
C1524 C1525 1.415 . S
C1525 H1495 0.950 . S
C1525 C1520 1.363 . S
C1525 C1524 1.415 . S
H1526 C1523 0.999 . S
H1527 C1508 0.913 . S
H1528 C1546 0.951 . S
H1529 C1548 0.951 . S
H1530 C1550 0.950 . S
H1531 C1551 0.950 . S
H1532 C1553 0.950 . S
H1533 C1556 0.950 . S
H1534 C1557 0.950 . S
H1535 C1559 0.950 . S
H1536 C1560 0.950 . S
H1537 C1561 0.951 . S
H1538 C1563 0.951 . S
H1539 C1565 0.950 . S
H1540 C1566 0.950 . S
H1541 C1568 0.950 . S
H1542 C1571 0.950 . S
H1543 C1572 0.950 . S
H1544 C1574 0.950 . S
H1545 C1575 0.950 . S
C1546 H1528 0.951 . S
C1546 C1547 1.366 . S
C1546 C1548 1.388 . S
C1547 C1546 1.366 . S
C1547 C1551 1.385 . S
C1548 H1529 0.951 . S
C1548 C1546 1.388 . S
C1548 C1549 1.366 . S
C1549 C1548 1.366 . S
C1549 C1550 1.414 . S
C1549 C1552 1.499 1_545 S
C1550 H1530 0.950 . S
C1550 C1549 1.414 . S
C1550 C1551 1.374 . S
C1551 H1531 0.950 . S
C1551 C1547 1.385 . S
C1551 C1550 1.374 . S
C1552 C1549 1.499 1_565 S
C1552 C1553 1.373 . S
C1552 C1554 1.389 . S
C1553 H1532 0.950 . S
C1553 C1552 1.373 . S
C1553 C1569 1.377 . S
C1554 C1552 1.389 . S
C1554 C1555 1.524 . S
C1554 C1568 1.377 . S
C1555 C1554 1.524 . S
C1555 C1556 1.397 1_565 S
C1555 C1560 1.363 . S
C1556 H1533 0.950 . S
C1556 C1555 1.397 1_545 S
C1556 C1557 1.334 . S
C1557 H1534 0.950 . S
C1557 C1556 1.334 . S
C1557 C1558 1.287 . S
C1558 C1557 1.287 . S
C1558 C1559 1.524 . S
C1558 H1577 0.913 . S
C1559 H1535 0.950 . S
C1559 C1558 1.524 . S
C1559 C1560 1.415 1_545 S
C1560 H1536 0.950 . S
C1560 C1555 1.363 . S
C1560 C1559 1.415 1_565 S
C1561 H1537 0.951 . S
C1561 C1562 1.366 . S
C1561 C1563 1.388 . S
C1562 C1561 1.366 . S
C1562 C1566 1.385 . S
C1563 H1538 0.951 . S
C1563 C1561 1.388 . S
C1563 C1564 1.366 . S
C1564 C1563 1.366 . S
C1564 C1565 1.414 . S
C1564 C1567 1.499 . S
C1565 H1539 0.950 . S
C1565 C1564 1.414 . S
C1565 C1566 1.374 . S
C1566 H1540 0.950 . S
C1566 C1562 1.385 . S
C1566 C1565 1.374 . S
C1567 C1564 1.499 . S
C1567 C1568 1.373 . S
C1567 C1569 1.389 . S
C1568 H1541 0.950 . S
C1568 C1554 1.377 . S
C1568 C1567 1.373 . S
C1569 C1553 1.377 . S
C1569 C1567 1.389 . S
C1569 C1570 1.524 . S
C1570 C1569 1.524 . S
C1570 C1571 1.397 . S
C1570 C1575 1.363 . S
C1571 H1542 0.950 . S
C1571 C1570 1.397 . S
C1571 C1572 1.334 . S
C1572 H1543 0.950 . S
C1572 C1571 1.334 . S
C1572 C1573 1.287 . S
C1573 C1572 1.287 . S
C1573 C1574 1.524 . S
C1573 H1576 0.999 . S
C1574 H1544 0.950 . S
C1574 C1573 1.524 . S
C1574 C1575 1.415 . S
C1575 H1545 0.950 . S
C1575 C1570 1.363 . S
C1575 C1574 1.415 . S
H1576 C1573 0.999 . S
H1577 C1558 0.913 . S
H1578 C1596 0.951 . S
H1579 C1598 0.951 . S
H1580 C1600 0.950 . S
H1581 C1601 0.950 . S
H1582 C1603 0.950 . S
H1583 C1606 0.950 . S
H1584 C1607 0.950 . S
H1585 C1609 0.950 . S
H1586 C1610 0.950 . S
H1587 C1611 0.951 . S
H1588 C1613 0.951 . S
H1589 C1615 0.950 . S
H1590 C1616 0.950 . S
H1591 C1618 0.950 . S
H1592 C1621 0.950 . S
H1593 C1622 0.950 . S
H1594 C1624 0.950 . S
H1595 C1625 0.950 . S
C1596 H1578 0.951 . S
C1596 C1597 1.366 . S
C1596 C1598 1.388 . S
C1597 C1596 1.366 . S
C1597 C1601 1.385 . S
C1598 H1579 0.951 . S
C1598 C1596 1.388 . S
C1598 C1599 1.366 . S
C1599 C1598 1.366 . S
C1599 C1600 1.414 . S
C1599 C1602 1.499 . S
C1600 H1580 0.950 . S
C1600 C1599 1.414 . S
C1600 C1601 1.374 . S
C1601 H1581 0.950 . S
C1601 C1597 1.385 . S
C1601 C1600 1.374 . S
C1602 C1599 1.499 . S
C1602 C1603 1.373 . S
C1602 C1604 1.389 . S
C1603 H1582 0.950 . S
C1603 C1602 1.373 . S
C1603 C1619 1.377 . S
C1604 C1602 1.389 . S
C1604 C1605 1.524 . S
C1604 C1618 1.377 . S
C1605 C1604 1.524 . S
C1605 C1606 1.397 . S
C1605 C1610 1.363 . S
C1606 H1583 0.950 . S
C1606 C1605 1.397 . S
C1606 C1607 1.334 . S
C1607 H1584 0.950 . S
C1607 C1606 1.334 . S
C1607 C1608 1.287 . S
C1608 C1607 1.287 . S
C1608 C1609 1.524 . S
C1608 H1627 0.913 . S
C1609 H1585 0.950 . S
C1609 C1608 1.524 . S
C1609 C1610 1.415 . S
C1610 H1586 0.950 . S
C1610 C1605 1.363 . S
C1610 C1609 1.415 . S
C1611 H1587 0.951 . S
C1611 C1612 1.366 . S
C1611 C1613 1.388 . S
C1612 C1611 1.366 . S
C1612 C1616 1.385 . S
C1613 H1588 0.951 . S
C1613 C1611 1.388 . S
C1613 C1614 1.366 . S
C1614 C1613 1.366 . S
C1614 C1615 1.414 . S
C1614 C1617 1.499 . S
C1615 H1589 0.950 . S
C1615 C1614 1.414 . S
C1615 C1616 1.374 . S
C1616 H1590 0.950 . S
C1616 C1612 1.385 . S
C1616 C1615 1.374 . S
C1617 C1614 1.499 . S
C1617 C1618 1.373 . S
C1617 C1619 1.389 . S
C1618 H1591 0.950 . S
C1618 C1604 1.377 . S
C1618 C1617 1.373 . S
C1619 C1603 1.377 . S
C1619 C1617 1.389 . S
C1619 C1620 1.524 . S
C1620 C1619 1.524 . S
C1620 C1621 1.397 . S
C1620 C1625 1.363 . S
C1621 H1592 0.950 . S
C1621 C1620 1.397 . S
C1621 C1622 1.334 . S
C1622 H1593 0.950 . S
C1622 C1621 1.334 . S
C1622 C1623 1.287 . S
C1623 C1622 1.287 . S
C1623 C1624 1.524 . S
C1623 H1626 0.999 . S
C1624 H1594 0.950 . S
C1624 C1623 1.524 . S
C1624 C1625 1.415 . S
C1625 H1595 0.950 . S
C1625 C1620 1.363 . S
C1625 C1624 1.415 . S
H1626 C1623 0.999 . S
H1627 C1608 0.913 . S
H1628 C1646 0.951 . S
H1629 C1648 0.951 . S
H1630 C1650 0.950 . S
H1631 C1651 0.950 . S
H1632 C1653 0.950 . S
H1633 C1656 0.950 . S
H1634 C1657 0.950 . S
H1635 C1659 0.950 . S
H1636 C1660 0.950 . S
H1637 C1661 0.951 . S
H1638 C1663 0.951 . S
H1639 C1665 0.950 . S
H1640 C1666 0.950 . S
H1641 C1668 0.950 . S
H1642 C1671 0.950 . S
H1643 C1672 0.950 . S
H1644 C1674 0.950 . S
H1645 C1675 0.950 . S
C1646 H1628 0.951 . S
C1646 C1647 1.366 . S
C1646 C1648 1.388 . S
C1647 C1646 1.366 . S
C1647 C1651 1.385 . S
C1648 H1629 0.951 . S
C1648 C1646 1.388 . S
C1648 C1649 1.366 . S
C1649 C1648 1.366 . S
C1649 C1650 1.414 . S
C1649 C1652 1.499 . S
C1650 H1630 0.950 . S
C1650 C1649 1.414 . S
C1650 C1651 1.374 . S
C1651 H1631 0.950 . S
C1651 C1647 1.385 . S
C1651 C1650 1.374 . S
C1652 C1649 1.499 . S
C1652 C1653 1.373 . S
C1652 C1654 1.389 . S
C1653 H1632 0.950 . S
C1653 C1652 1.373 . S
C1653 C1669 1.377 . S
C1654 C1652 1.389 . S
C1654 C1655 1.524 . S
C1654 C1668 1.377 . S
C1655 C1654 1.524 . S
C1655 C1656 1.397 . S
C1655 C1660 1.363 . S
C1656 H1633 0.950 . S
C1656 C1655 1.397 . S
C1656 C1657 1.334 . S
C1657 H1634 0.950 . S
C1657 C1656 1.334 . S
C1657 C1658 1.287 . S
C1658 C1657 1.287 . S
C1658 C1659 1.524 . S
C1658 H1677 0.913 . S
C1659 H1635 0.950 . S
C1659 C1658 1.524 . S
C1659 C1660 1.415 . S
C1660 H1636 0.950 . S
C1660 C1655 1.363 . S
C1660 C1659 1.415 . S
C1661 H1637 0.951 . S
C1661 C1662 1.366 . S
C1661 C1663 1.388 . S
C1662 C1661 1.366 . S
C1662 C1666 1.385 . S
C1663 H1638 0.951 . S
C1663 C1661 1.388 . S
C1663 C1664 1.366 . S
C1664 C1663 1.366 . S
C1664 C1665 1.414 . S
C1664 C1667 1.499 . S
C1665 H1639 0.950 . S
C1665 C1664 1.414 . S
C1665 C1666 1.374 . S
C1666 H1640 0.950 . S
C1666 C1662 1.385 . S
C1666 C1665 1.374 . S
C1667 C1664 1.499 . S
C1667 C1668 1.373 . S
C1667 C1669 1.389 . S
C1668 H1641 0.950 . S
C1668 C1654 1.377 . S
C1668 C1667 1.373 . S
C1669 C1653 1.377 . S
C1669 C1667 1.389 . S
C1669 C1670 1.524 . S
C1670 C1669 1.524 . S
C1670 C1671 1.397 . S
C1670 C1675 1.363 . S
C1671 H1642 0.950 . S
C1671 C1670 1.397 . S
C1671 C1672 1.334 . S
C1672 H1643 0.950 . S
C1672 C1671 1.334 . S
C1672 C1673 1.287 . S
C1673 C1672 1.287 . S
C1673 C1674 1.524 . S
C1673 H1676 0.999 . S
C1674 H1644 0.950 . S
C1674 C1673 1.524 . S
C1674 C1675 1.415 . S
C1675 H1645 0.950 . S
C1675 C1670 1.363 . S
C1675 C1674 1.415 . S
H1676 C1673 0.999 . S
H1677 C1658 0.913 . S
H1678 C1696 0.951 . S
H1679 C1698 0.951 . S
H1680 C1700 0.950 . S
H1681 C1701 0.950 . S
H1682 C1703 0.950 . S
H1683 C1706 0.950 . S
H1684 C1707 0.950 . S
H1685 C1709 0.950 . S
H1686 C1710 0.950 . S
H1687 C1711 0.951 . S
H1688 C1713 0.951 . S
H1689 C1715 0.950 . S
H1690 C1716 0.950 . S
H1691 C1718 0.950 . S
H1692 C1721 0.950 . S
H1693 C1722 0.950 . S
H1694 C1724 0.950 . S
H1695 C1725 0.950 . S
C1696 H1678 0.951 . S
C1696 C1697 1.366 . S
C1696 C1698 1.388 . S
C1697 C1696 1.366 . S
C1697 C1701 1.385 . S
C1698 H1679 0.951 . S
C1698 C1696 1.388 . S
C1698 C1699 1.366 . S
C1699 C1698 1.366 . S
C1699 C1700 1.414 . S
C1699 C1702 1.499 . S
C1700 H1680 0.950 . S
C1700 C1699 1.414 . S
C1700 C1701 1.374 . S
C1701 H1681 0.950 . S
C1701 C1697 1.385 . S
C1701 C1700 1.374 . S
C1702 C1699 1.499 . S
C1702 C1703 1.373 . S
C1702 C1704 1.389 . S
C1703 H1682 0.950 . S
C1703 C1702 1.373 . S
C1703 C1719 1.377 . S
C1704 C1702 1.389 . S
C1704 C1705 1.524 . S
C1704 C1718 1.377 . S
C1705 C1704 1.524 . S
C1705 C1706 1.397 . S
C1705 C1710 1.363 . S
C1706 H1683 0.950 . S
C1706 C1705 1.397 . S
C1706 C1707 1.334 . S
C1707 H1684 0.950 . S
C1707 C1706 1.334 . S
C1707 C1708 1.287 . S
C1708 C1707 1.287 . S
C1708 C1709 1.524 . S
C1708 H1727 0.913 . S
C1709 H1685 0.950 . S
C1709 C1708 1.524 . S
C1709 C1710 1.415 . S
C1710 H1686 0.950 . S
C1710 C1705 1.363 . S
C1710 C1709 1.415 . S
C1711 H1687 0.951 . S
C1711 C1712 1.366 . S
C1711 C1713 1.388 . S
C1712 C1711 1.366 . S
C1712 C1716 1.385 . S
C1713 H1688 0.951 . S
C1713 C1711 1.388 . S
C1713 C1714 1.366 . S
C1714 C1713 1.366 . S
C1714 C1715 1.414 . S
C1714 C1717 1.499 . S
C1715 H1689 0.950 . S
C1715 C1714 1.414 . S
C1715 C1716 1.374 . S
C1716 H1690 0.950 . S
C1716 C1712 1.385 . S
C1716 C1715 1.374 . S
C1717 C1714 1.499 . S
C1717 C1718 1.373 . S
C1717 C1719 1.389 . S
C1718 H1691 0.950 . S
C1718 C1704 1.377 . S
C1718 C1717 1.373 . S
C1719 C1703 1.377 . S
C1719 C1717 1.389 . S
C1719 C1720 1.524 . S
C1720 C1719 1.524 . S
C1720 C1721 1.397 . S
C1720 C1725 1.363 . S
C1721 H1692 0.950 . S
C1721 C1720 1.397 . S
C1721 C1722 1.334 . S
C1722 H1693 0.950 . S
C1722 C1721 1.334 . S
C1722 C1723 1.287 . S
C1723 C1722 1.287 . S
C1723 C1724 1.524 . S
C1723 H1726 0.999 . S
C1724 H1694 0.950 . S
C1724 C1723 1.524 . S
C1724 C1725 1.415 . S
C1725 H1695 0.950 . S
C1725 C1720 1.363 . S
C1725 C1724 1.415 . S
H1726 C1723 0.999 . S
H1727 C1708 0.913 . S
H1728 C1746 0.951 . S
H1729 C1748 0.951 . S
H1730 C1750 0.950 . S
H1731 C1751 0.950 . S
H1732 C1753 0.950 . S
H1733 C1756 0.950 . S
H1734 C1757 0.950 . S
H1735 C1759 0.950 . S
H1736 C1760 0.950 . S
H1737 C1761 0.951 . S
H1738 C1763 0.951 . S
H1739 C1765 0.950 . S
H1740 C1766 0.950 . S
H1741 C1768 0.950 . S
H1742 C1771 0.950 . S
H1743 C1772 0.950 . S
H1744 C1774 0.950 . S
H1745 C1775 0.950 . S
C1746 H1728 0.951 . S
C1746 C1747 1.366 . S
C1746 C1748 1.388 . S
C1747 C1746 1.366 . S
C1747 C1751 1.385 . S
C1748 H1729 0.951 . S
C1748 C1746 1.388 . S
C1748 C1749 1.366 . S
C1749 C1748 1.366 . S
C1749 C1750 1.414 . S
C1749 C1752 1.499 . S
C1750 H1730 0.950 . S
C1750 C1749 1.414 . S
C1750 C1751 1.374 . S
C1751 H1731 0.950 . S
C1751 C1747 1.385 . S
C1751 C1750 1.374 . S
C1752 C1749 1.499 . S
C1752 C1753 1.373 . S
C1752 C1754 1.389 . S
C1753 H1732 0.950 . S
C1753 C1752 1.373 . S
C1753 C1769 1.377 . S
C1754 C1752 1.389 . S
C1754 C1755 1.524 . S
C1754 C1768 1.377 . S
C1755 C1754 1.524 . S
C1755 C1756 1.397 . S
C1755 C1760 1.363 . S
C1756 H1733 0.950 . S
C1756 C1755 1.397 . S
C1756 C1757 1.334 . S
C1757 H1734 0.950 . S
C1757 C1756 1.334 . S
C1757 C1758 1.287 . S
C1758 C1757 1.287 . S
C1758 C1759 1.524 . S
C1758 H1777 0.913 . S
C1759 H1735 0.950 . S
C1759 C1758 1.524 . S
C1759 C1760 1.415 . S
C1760 H1736 0.950 . S
C1760 C1755 1.363 . S
C1760 C1759 1.415 . S
C1761 H1737 0.951 . S
C1761 C1762 1.366 . S
C1761 C1763 1.388 . S
C1762 C1761 1.366 . S
C1762 C1766 1.385 . S
C1763 H1738 0.951 . S
C1763 C1761 1.388 . S
C1763 C1764 1.366 . S
C1764 C1763 1.366 . S
C1764 C1765 1.414 . S
C1764 C1767 1.499 . S
C1765 H1739 0.950 . S
C1765 C1764 1.414 . S
C1765 C1766 1.374 . S
C1766 H1740 0.950 . S
C1766 C1762 1.385 . S
C1766 C1765 1.374 . S
C1767 C1764 1.499 . S
C1767 C1768 1.373 . S
C1767 C1769 1.389 . S
C1768 H1741 0.950 . S
C1768 C1754 1.377 . S
C1768 C1767 1.373 . S
C1769 C1753 1.377 . S
C1769 C1767 1.389 . S
C1769 C1770 1.524 . S
C1770 C1769 1.524 . S
C1770 C1771 1.397 . S
C1770 C1775 1.363 . S
C1771 H1742 0.950 . S
C1771 C1770 1.397 . S
C1771 C1772 1.334 . S
C1772 H1743 0.950 . S
C1772 C1771 1.334 . S
C1772 C1773 1.287 . S
C1773 C1772 1.287 . S
C1773 C1774 1.524 . S
C1773 H1776 0.999 . S
C1774 H1744 0.950 . S
C1774 C1773 1.524 . S
C1774 C1775 1.415 . S
C1775 H1745 0.950 . S
C1775 C1770 1.363 . S
C1775 C1774 1.415 . S
H1776 C1773 0.999 . S
H1777 C1758 0.913 . S
H1778 C1796 0.951 . S
H1779 C1798 0.951 . S
H1780 C1800 0.950 . S
H1781 C1801 0.950 . S
H1782 C1803 0.950 . S
H1783 C1806 0.950 . S
H1784 C1807 0.950 . S
H1785 C1809 0.950 . S
H1786 C1810 0.950 . S
H1787 C1811 0.951 . S
H1788 C1813 0.951 . S
H1789 C1815 0.950 . S
H1790 C1816 0.950 . S
H1791 C1818 0.950 . S
H1792 C1821 0.950 . S
H1793 C1822 0.950 . S
H1794 C1824 0.950 . S
H1795 C1825 0.950 . S
C1796 H1778 0.951 . S
C1796 C1797 1.366 . S
C1796 C1798 1.388 . S
C1797 C1796 1.366 . S
C1797 C1801 1.385 . S
C1798 H1779 0.951 . S
C1798 C1796 1.388 . S
C1798 C1799 1.366 . S
C1799 C1798 1.366 . S
C1799 C1800 1.414 . S
C1799 C1802 1.499 . S
C1800 H1780 0.950 . S
C1800 C1799 1.414 . S
C1800 C1801 1.374 . S
C1801 H1781 0.950 . S
C1801 C1797 1.385 . S
C1801 C1800 1.374 . S
C1802 C1799 1.499 . S
C1802 C1803 1.373 . S
C1802 C1804 1.389 . S
C1803 H1782 0.950 . S
C1803 C1802 1.373 . S
C1803 C1819 1.377 . S
C1804 C1802 1.389 . S
C1804 C1805 1.524 . S
C1804 C1818 1.377 . S
C1805 C1804 1.524 . S
C1805 C1806 1.397 . S
C1805 C1810 1.363 . S
C1806 H1783 0.950 . S
C1806 C1805 1.397 . S
C1806 C1807 1.334 . S
C1807 H1784 0.950 . S
C1807 C1806 1.334 . S
C1807 C1808 1.287 . S
C1808 C1807 1.287 . S
C1808 C1809 1.524 . S
C1808 H1827 0.913 . S
C1809 H1785 0.950 . S
C1809 C1808 1.524 . S
C1809 C1810 1.415 . S
C1810 H1786 0.950 . S
C1810 C1805 1.363 . S
C1810 C1809 1.415 . S
C1811 H1787 0.951 . S
C1811 C1812 1.366 . S
C1811 C1813 1.388 . S
C1812 C1811 1.366 . S
C1812 C1816 1.385 . S
C1813 H1788 0.951 . S
C1813 C1811 1.388 . S
C1813 C1814 1.366 . S
C1814 C1813 1.366 . S
C1814 C1815 1.414 . S
C1814 C1817 1.499 . S
C1815 H1789 0.950 . S
C1815 C1814 1.414 . S
C1815 C1816 1.374 . S
C1816 H1790 0.950 . S
C1816 C1812 1.385 . S
C1816 C1815 1.374 . S
C1817 C1814 1.499 . S
C1817 C1818 1.373 . S
C1817 C1819 1.389 . S
C1818 H1791 0.950 . S
C1818 C1804 1.377 . S
C1818 C1817 1.373 . S
C1819 C1803 1.377 . S
C1819 C1817 1.389 . S
C1819 C1820 1.524 . S
C1820 C1819 1.524 . S
C1820 C1821 1.397 . S
C1820 C1825 1.363 . S
C1821 H1792 0.950 . S
C1821 C1820 1.397 . S
C1821 C1822 1.334 . S
C1822 H1793 0.950 . S
C1822 C1821 1.334 . S
C1822 C1823 1.287 . S
C1823 C1822 1.287 . S
C1823 C1824 1.524 . S
C1823 H1826 0.999 . S
C1824 H1794 0.950 . S
C1824 C1823 1.524 . S
C1824 C1825 1.415 . S
C1825 H1795 0.950 . S
C1825 C1820 1.363 . S
C1825 C1824 1.415 . S
H1826 C1823 0.999 . S
H1827 C1808 0.913 . S
H1828 C1846 0.951 . S
H1829 C1848 0.951 . S
H1830 C1850 0.950 . S
H1831 C1851 0.950 . S
H1832 C1853 0.950 . S
H1833 C1856 0.950 . S
H1834 C1857 0.950 . S
H1835 C1859 0.950 . S
H1836 C1860 0.950 . S
H1837 C1861 0.951 . S
H1838 C1863 0.951 . S
H1839 C1865 0.950 . S
H1840 C1866 0.950 . S
H1841 C1868 0.950 . S
H1842 C1871 0.950 . S
H1843 C1872 0.950 . S
H1844 C1874 0.950 . S
H1845 C1875 0.950 . S
C1846 H1828 0.951 . S
C1846 C1847 1.366 . S
C1846 C1848 1.388 . S
C1847 C1846 1.366 . S
C1847 C1851 1.385 . S
C1848 H1829 0.951 . S
C1848 C1846 1.388 . S
C1848 C1849 1.366 . S
C1849 C1848 1.366 . S
C1849 C1850 1.414 . S
C1849 C1852 1.499 . S
C1850 H1830 0.950 . S
C1850 C1849 1.414 . S
C1850 C1851 1.374 . S
C1851 H1831 0.950 . S
C1851 C1847 1.385 . S
C1851 C1850 1.374 . S
C1852 C1849 1.499 . S
C1852 C1853 1.373 . S
C1852 C1854 1.389 . S
C1853 H1832 0.950 . S
C1853 C1852 1.373 . S
C1853 C1869 1.377 . S
C1854 C1852 1.389 . S
C1854 C1855 1.524 . S
C1854 C1868 1.377 . S
C1855 C1854 1.524 . S
C1855 C1856 1.397 . S
C1855 C1860 1.363 . S
C1856 H1833 0.950 . S
C1856 C1855 1.397 . S
C1856 C1857 1.334 . S
C1857 H1834 0.950 . S
C1857 C1856 1.334 . S
C1857 C1858 1.287 . S
C1858 C1857 1.287 . S
C1858 C1859 1.524 . S
C1858 H1877 0.913 . S
C1859 H1835 0.950 . S
C1859 C1858 1.524 . S
C1859 C1860 1.415 . S
C1860 H1836 0.950 . S
C1860 C1855 1.363 . S
C1860 C1859 1.415 . S
C1861 H1837 0.951 . S
C1861 C1862 1.366 . S
C1861 C1863 1.388 . S
C1862 C1861 1.366 . S
C1862 C1866 1.385 . S
C1863 H1838 0.951 . S
C1863 C1861 1.388 . S
C1863 C1864 1.366 . S
C1864 C1863 1.366 . S
C1864 C1865 1.414 . S
C1864 C1867 1.499 . S
C1865 H1839 0.950 . S
C1865 C1864 1.414 . S
C1865 C1866 1.374 . S
C1866 H1840 0.950 . S
C1866 C1862 1.385 . S
C1866 C1865 1.374 . S
C1867 C1864 1.499 . S
C1867 C1868 1.373 . S
C1867 C1869 1.389 . S
C1868 H1841 0.950 . S
C1868 C1854 1.377 . S
C1868 C1867 1.373 . S
C1869 C1853 1.377 . S
C1869 C1867 1.389 . S
C1869 C1870 1.524 . S
C1870 C1869 1.524 . S
C1870 C1871 1.397 . S
C1870 C1875 1.363 . S
C1871 H1842 0.950 . S
C1871 C1870 1.397 . S
C1871 C1872 1.334 . S
C1872 H1843 0.950 . S
C1872 C1871 1.334 . S
C1872 C1873 1.287 . S
C1873 C1872 1.287 . S
C1873 C1874 1.524 . S
C1873 H1876 0.999 . S
C1874 H1844 0.950 . S
C1874 C1873 1.524 . S
C1874 C1875 1.415 . S
C1875 H1845 0.950 . S
C1875 C1870 1.363 . S
C1875 C1874 1.415 . S
H1876 C1873 0.999 . S
H1877 C1858 0.913 . S
H1878 C1896 0.951 . S
H1879 C1898 0.951 . S
H1880 C1900 0.950 . S
H1881 C1901 0.950 . S
H1882 C1903 0.950 . S
H1883 C1906 0.950 . S
H1884 C1907 0.950 . S
H1885 C1909 0.950 . S
H1886 C1910 0.950 . S
H1887 C1911 0.951 . S
H1888 C1913 0.951 . S
H1889 C1915 0.950 . S
H1890 C1916 0.950 . S
H1891 C1918 0.950 . S
H1892 C1921 0.950 . S
H1893 C1922 0.950 . S
H1894 C1924 0.950 . S
H1895 C1925 0.950 . S
C1896 H1878 0.951 . S
C1896 C1897 1.366 . S
C1896 C1898 1.388 . S
C1897 C1896 1.366 . S
C1897 C1901 1.385 . S
C1898 H1879 0.951 . S
C1898 C1896 1.388 . S
C1898 C1899 1.366 . S
C1899 C1898 1.366 . S
C1899 C1900 1.414 . S
C1899 C1902 1.499 1_545 S
C1900 H1880 0.950 . S
C1900 C1899 1.414 . S
C1900 C1901 1.374 . S
C1901 H1881 0.950 . S
C1901 C1897 1.385 . S
C1901 C1900 1.374 . S
C1902 C1899 1.499 1_565 S
C1902 C1903 1.373 . S
C1902 C1904 1.389 . S
C1903 H1882 0.950 . S
C1903 C1902 1.373 . S
C1903 C1919 1.377 . S
C1904 C1902 1.389 . S
C1904 C1905 1.524 . S
C1904 C1918 1.377 . S
C1905 C1904 1.524 . S
C1905 C1906 1.397 1_565 S
C1905 C1910 1.363 . S
C1906 H1883 0.950 . S
C1906 C1905 1.397 1_545 S
C1906 C1907 1.334 . S
C1907 H1884 0.950 . S
C1907 C1906 1.334 . S
C1907 C1908 1.287 . S
C1908 C1907 1.287 . S
C1908 C1909 1.524 1_545 S
C1908 H1927 0.913 . S
C1909 H1885 0.950 . S
C1909 C1908 1.524 1_565 S
C1909 C1910 1.415 . S
C1910 H1886 0.950 . S
C1910 C1905 1.363 . S
C1910 C1909 1.415 . S
C1911 H1887 0.951 . S
C1911 C1912 1.366 . S
C1911 C1913 1.388 . S
C1912 C1911 1.366 . S
C1912 C1916 1.385 . S
C1913 H1888 0.951 . S
C1913 C1911 1.388 . S
C1913 C1914 1.366 . S
C1914 C1913 1.366 . S
C1914 C1915 1.414 . S
C1914 C1917 1.499 . S
C1915 H1889 0.950 . S
C1915 C1914 1.414 . S
C1915 C1916 1.374 . S
C1916 H1890 0.950 . S
C1916 C1912 1.385 . S
C1916 C1915 1.374 . S
C1917 C1914 1.499 . S
C1917 C1918 1.373 . S
C1917 C1919 1.389 . S
C1918 H1891 0.950 . S
C1918 C1904 1.377 . S
C1918 C1917 1.373 . S
C1919 C1903 1.377 . S
C1919 C1917 1.389 . S
C1919 C1920 1.524 . S
C1920 C1919 1.524 . S
C1920 C1921 1.397 . S
C1920 C1925 1.363 . S
C1921 H1892 0.950 . S
C1921 C1920 1.397 . S
C1921 C1922 1.334 . S
C1922 H1893 0.950 . S
C1922 C1921 1.334 . S
C1922 C1923 1.287 . S
C1923 C1922 1.287 . S
C1923 C1924 1.524 . S
C1923 H1926 0.999 . S
C1924 H1894 0.950 . S
C1924 C1923 1.524 . S
C1924 C1925 1.415 . S
C1925 H1895 0.950 . S
C1925 C1920 1.363 . S
C1925 C1924 1.415 . S
H1926 C1923 0.999 . S
H1927 C1908 0.913 . S
H1928 C1946 0.951 . S
H1929 C1948 0.951 1_455 S
H1930 C1950 0.950 . S
H1931 C1951 0.950 . S
H1932 C1953 0.950 . S
H1933 C1956 0.950 . S
H1934 C1957 0.950 . S
H1935 C1959 0.950 . S
H1936 C1960 0.950 . S
H1937 C1961 0.951 . S
H1938 C1963 0.951 . S
H1939 C1965 0.950 . S
H1940 C1966 0.950 . S
H1941 C1968 0.950 . S
H1942 C1971 0.950 . S
H1943 C1972 0.950 . S
H1944 C1974 0.950 . S
H1945 C1975 0.950 . S
C1946 H1928 0.951 . S
C1946 C1947 1.366 . S
C1946 C1948 1.388 . S
C1947 C1946 1.366 . S
C1947 C1951 1.385 . S
C1948 H1929 0.951 1_655 S
C1948 C1946 1.388 . S
C1948 C1949 1.366 . S
C1949 C1948 1.366 . S
C1949 C1950 1.414 . S
C1949 C1952 1.499 1_655 S
C1950 H1930 0.950 . S
C1950 C1949 1.414 . S
C1950 C1951 1.374 . S
C1951 H1931 0.950 . S
C1951 C1947 1.385 . S
C1951 C1950 1.374 . S
C1952 C1949 1.499 1_455 S
C1952 C1953 1.373 . S
C1952 C1954 1.389 . S
C1953 H1932 0.950 . S
C1953 C1952 1.373 . S
C1953 C1969 1.377 . S
C1954 C1952 1.389 . S
C1954 C1955 1.524 . S
C1954 C1968 1.377 . S
C1955 C1954 1.524 . S
C1955 C1956 1.397 1_455 S
C1955 C1960 1.363 . S
C1956 H1933 0.950 . S
C1956 C1955 1.397 1_655 S
C1956 C1957 1.334 . S
C1957 H1934 0.950 . S
C1957 C1956 1.334 . S
C1957 C1958 1.287 . S
C1958 C1957 1.287 . S
C1958 C1959 1.524 1_655 S
C1958 H1977 0.913 . S
C1959 H1935 0.950 . S
C1959 C1958 1.524 1_455 S
C1959 C1960 1.415 . S
C1960 H1936 0.950 . S
C1960 C1955 1.363 . S
C1960 C1959 1.415 . S
C1961 H1937 0.951 . S
C1961 C1962 1.366 . S
C1961 C1963 1.388 . S
C1962 C1961 1.366 . S
C1962 C1966 1.385 . S
C1963 H1938 0.951 . S
C1963 C1961 1.388 . S
C1963 C1964 1.366 . S
C1964 C1963 1.366 . S
C1964 C1965 1.414 . S
C1964 C1967 1.499 . S
C1965 H1939 0.950 . S
C1965 C1964 1.414 . S
C1965 C1966 1.374 . S
C1966 H1940 0.950 . S
C1966 C1962 1.385 . S
C1966 C1965 1.374 . S
C1967 C1964 1.499 . S
C1967 C1968 1.373 . S
C1967 C1969 1.389 . S
C1968 H1941 0.950 . S
C1968 C1954 1.377 . S
C1968 C1967 1.373 . S
C1969 C1953 1.377 . S
C1969 C1967 1.389 . S
C1969 C1970 1.524 . S
C1970 C1969 1.524 . S
C1970 C1971 1.397 . S
C1970 C1975 1.363 . S
C1971 H1942 0.950 . S
C1971 C1970 1.397 . S
C1971 C1972 1.334 . S
C1972 H1943 0.950 . S
C1972 C1971 1.334 . S
C1972 C1973 1.287 . S
C1973 C1972 1.287 . S
C1973 C1974 1.524 . S
C1973 H1976 0.999 . S
C1974 H1944 0.950 . S
C1974 C1973 1.524 . S
C1974 C1975 1.415 . S
C1975 H1945 0.950 . S
C1975 C1970 1.363 . S
C1975 C1974 1.415 . S
H1976 C1973 0.999 . S
H1977 C1958 0.913 . S
H1978 C1996 0.951 . S
H1979 C1998 0.951 . S
H1980 C2000 0.950 . S
H1981 C2001 0.950 . S
H1982 C2003 0.950 . S
H1983 C2006 0.950 . S
H1984 C2007 0.950 . S
H1985 C2009 0.950 . S
H1986 C2010 0.950 . S
H1987 C2011 0.951 . S
H1988 C2013 0.951 . S
H1989 C2015 0.950 . S
H1990 C2016 0.950 . S
H1991 C2018 0.950 . S
H1992 C2021 0.950 . S
H1993 C2022 0.950 . S
H1994 C2024 0.950 . S
H1995 C2025 0.950 . S
C1996 H1978 0.951 . S
C1996 C1997 1.366 . S
C1996 C1998 1.388 . S
C1997 C1996 1.366 . S
C1997 C2001 1.385 . S
C1998 H1979 0.951 . S
C1998 C1996 1.388 . S
C1998 C1999 1.366 . S
C1999 C1998 1.366 . S
C1999 C2000 1.414 . S
C1999 C2002 1.499 . S
C2000 H1980 0.950 . S
C2000 C1999 1.414 . S
C2000 C2001 1.374 . S
C2001 H1981 0.950 . S
C2001 C1997 1.385 . S
C2001 C2000 1.374 . S
C2002 C1999 1.499 . S
C2002 C2003 1.373 . S
C2002 C2004 1.389 . S
C2003 H1982 0.950 . S
C2003 C2002 1.373 . S
C2003 C2019 1.377 . S
C2004 C2002 1.389 . S
C2004 C2005 1.524 . S
C2004 C2018 1.377 . S
C2005 C2004 1.524 . S
C2005 C2006 1.397 . S
C2005 C2010 1.363 . S
C2006 H1983 0.950 . S
C2006 C2005 1.397 . S
C2006 C2007 1.334 . S
C2007 H1984 0.950 . S
C2007 C2006 1.334 . S
C2007 C2008 1.287 . S
C2008 C2007 1.287 . S
C2008 C2009 1.524 . S
C2008 H2027 0.913 . S
C2009 H1985 0.950 . S
C2009 C2008 1.524 . S
C2009 C2010 1.415 . S
C2010 H1986 0.950 . S
C2010 C2005 1.363 . S
C2010 C2009 1.415 . S
C2011 H1987 0.951 . S
C2011 C2012 1.366 . S
C2011 C2013 1.388 . S
C2012 C2011 1.366 . S
C2012 C2016 1.385 . S
C2013 H1988 0.951 . S
C2013 C2011 1.388 . S
C2013 C2014 1.366 . S
C2014 C2013 1.366 . S
C2014 C2015 1.414 . S
C2014 C2017 1.499 . S
C2015 H1989 0.950 . S
C2015 C2014 1.414 . S
C2015 C2016 1.374 . S
C2016 H1990 0.950 . S
C2016 C2012 1.385 . S
C2016 C2015 1.374 . S
C2017 C2014 1.499 . S
C2017 C2018 1.373 . S
C2017 C2019 1.389 . S
C2018 H1991 0.950 . S
C2018 C2004 1.377 . S
C2018 C2017 1.373 . S
C2019 C2003 1.377 . S
C2019 C2017 1.389 . S
C2019 C2020 1.524 . S
C2020 C2019 1.524 . S
C2020 C2021 1.397 . S
C2020 C2025 1.363 . S
C2021 H1992 0.950 . S
C2021 C2020 1.397 . S
C2021 C2022 1.334 . S
C2022 H1993 0.950 . S
C2022 C2021 1.334 . S
C2022 C2023 1.287 . S
C2023 C2022 1.287 . S
C2023 C2024 1.524 . S
C2023 H2026 0.999 . S
C2024 H1994 0.950 . S
C2024 C2023 1.524 . S
C2024 C2025 1.415 . S
C2025 H1995 0.950 . S
C2025 C2020 1.363 . S
C2025 C2024 1.415 . S
H2026 C2023 0.999 . S
H2027 C2008 0.913 . S
H2028 C2046 0.951 . S
H2029 C2048 0.951 . S
H2030 C2050 0.950 . S
H2031 C2051 0.950 . S
H2032 C2053 0.950 . S
H2033 C2056 0.950 . S
H2034 C2057 0.950 . S
H2035 C2059 0.950 . S
H2036 C2060 0.950 . S
H2037 C2061 0.951 . S
H2038 C2063 0.951 . S
H2039 C2065 0.950 . S
H2040 C2066 0.950 . S
H2041 C2068 0.950 . S
H2042 C2071 0.950 . S
H2043 C2072 0.950 . S
H2044 C2074 0.950 . S
H2045 C2075 0.950 . S
C2046 H2028 0.951 . S
C2046 C2047 1.366 . S
C2046 C2048 1.388 . S
C2047 C2046 1.366 . S
C2047 C2051 1.385 . S
C2048 H2029 0.951 . S
C2048 C2046 1.388 . S
C2048 C2049 1.366 . S
C2049 C2048 1.366 . S
C2049 C2050 1.414 . S
C2049 C2052 1.499 . S
C2050 H2030 0.950 . S
C2050 C2049 1.414 . S
C2050 C2051 1.374 . S
C2051 H2031 0.950 . S
C2051 C2047 1.385 . S
C2051 C2050 1.374 . S
C2052 C2049 1.499 . S
C2052 C2053 1.373 . S
C2052 C2054 1.389 . S
C2053 H2032 0.950 . S
C2053 C2052 1.373 . S
C2053 C2069 1.377 . S
C2054 C2052 1.389 . S
C2054 C2055 1.524 . S
C2054 C2068 1.377 . S
C2055 C2054 1.524 . S
C2055 C2056 1.397 . S
C2055 C2060 1.363 . S
C2056 H2033 0.950 . S
C2056 C2055 1.397 . S
C2056 C2057 1.334 . S
C2057 H2034 0.950 . S
C2057 C2056 1.334 . S
C2057 C2058 1.287 . S
C2058 C2057 1.287 . S
C2058 C2059 1.524 . S
C2058 H2077 0.913 . S
C2059 H2035 0.950 . S
C2059 C2058 1.524 . S
C2059 C2060 1.415 . S
C2060 H2036 0.950 . S
C2060 C2055 1.363 . S
C2060 C2059 1.415 . S
C2061 H2037 0.951 . S
C2061 C2062 1.366 . S
C2061 C2063 1.388 . S
C2062 C2061 1.366 . S
C2062 C2066 1.385 . S
C2063 H2038 0.951 . S
C2063 C2061 1.388 . S
C2063 C2064 1.366 . S
C2064 C2063 1.366 . S
C2064 C2065 1.414 . S
C2064 C2067 1.499 . S
C2065 H2039 0.950 . S
C2065 C2064 1.414 . S
C2065 C2066 1.374 . S
C2066 H2040 0.950 . S
C2066 C2062 1.385 . S
C2066 C2065 1.374 . S
C2067 C2064 1.499 . S
C2067 C2068 1.373 . S
C2067 C2069 1.389 . S
C2068 H2041 0.950 . S
C2068 C2054 1.377 . S
C2068 C2067 1.373 . S
C2069 C2053 1.377 . S
C2069 C2067 1.389 . S
C2069 C2070 1.524 . S
C2070 C2069 1.524 . S
C2070 C2071 1.397 . S
C2070 C2075 1.363 . S
C2071 H2042 0.950 . S
C2071 C2070 1.397 . S
C2071 C2072 1.334 . S
C2072 H2043 0.950 . S
C2072 C2071 1.334 . S
C2072 C2073 1.287 . S
C2073 C2072 1.287 . S
C2073 C2074 1.524 . S
C2073 H2076 0.999 . S
C2074 H2044 0.950 . S
C2074 C2073 1.524 . S
C2074 C2075 1.415 . S
C2075 H2045 0.950 . S
C2075 C2070 1.363 . S
C2075 C2074 1.415 . S
H2076 C2073 0.999 . S
H2077 C2058 0.913 . S
H2078 C2096 0.951 . S
H2079 C2098 0.951 . S
H2080 C2100 0.950 . S
H2081 C2101 0.950 . S
H2082 C2103 0.950 . S
H2083 C2106 0.950 . S
H2084 C2107 0.950 . S
H2085 C2109 0.950 . S
H2086 C2110 0.950 . S
H2087 C2111 0.951 . S
H2088 C2113 0.951 . S
H2089 C2115 0.950 . S
H2090 C2116 0.950 . S
H2091 C2118 0.950 . S
H2092 C2121 0.950 . S
H2093 C2122 0.950 . S
H2094 C2124 0.950 . S
H2095 C2125 0.950 . S
C2096 H2078 0.951 . S
C2096 C2097 1.366 . S
C2096 C2098 1.388 . S
C2097 C2096 1.366 . S
C2097 C2101 1.385 . S
C2098 H2079 0.951 . S
C2098 C2096 1.388 . S
C2098 C2099 1.366 . S
C2099 C2098 1.366 . S
C2099 C2100 1.414 . S
C2099 C2102 1.499 . S
C2100 H2080 0.950 . S
C2100 C2099 1.414 . S
C2100 C2101 1.374 . S
C2101 H2081 0.950 . S
C2101 C2097 1.385 . S
C2101 C2100 1.374 . S
C2102 C2099 1.499 . S
C2102 C2103 1.373 . S
C2102 C2104 1.389 . S
C2103 H2082 0.950 . S
C2103 C2102 1.373 . S
C2103 C2119 1.377 . S
C2104 C2102 1.389 . S
C2104 C2105 1.524 . S
C2104 C2118 1.377 . S
C2105 C2104 1.524 . S
C2105 C2106 1.397 . S
C2105 C2110 1.363 . S
C2106 H2083 0.950 . S
C2106 C2105 1.397 . S
C2106 C2107 1.334 . S
C2107 H2084 0.950 . S
C2107 C2106 1.334 . S
C2107 C2108 1.287 . S
C2108 C2107 1.287 . S
C2108 C2109 1.524 . S
C2108 H2127 0.913 . S
C2109 H2085 0.950 . S
C2109 C2108 1.524 . S
C2109 C2110 1.415 . S
C2110 H2086 0.950 . S
C2110 C2105 1.363 . S
C2110 C2109 1.415 . S
C2111 H2087 0.951 . S
C2111 C2112 1.366 . S
C2111 C2113 1.388 . S
C2112 C2111 1.366 . S
C2112 C2116 1.385 . S
C2113 H2088 0.951 . S
C2113 C2111 1.388 . S
C2113 C2114 1.366 . S
C2114 C2113 1.366 . S
C2114 C2115 1.414 . S
C2114 C2117 1.499 . S
C2115 H2089 0.950 . S
C2115 C2114 1.414 . S
C2115 C2116 1.374 . S
C2116 H2090 0.950 . S
C2116 C2112 1.385 . S
C2116 C2115 1.374 . S
C2117 C2114 1.499 . S
C2117 C2118 1.373 . S
C2117 C2119 1.389 . S
C2118 H2091 0.950 . S
C2118 C2104 1.377 . S
C2118 C2117 1.373 . S
C2119 C2103 1.377 . S
C2119 C2117 1.389 . S
C2119 C2120 1.524 . S
C2120 C2119 1.524 . S
C2120 C2121 1.397 . S
C2120 C2125 1.363 . S
C2121 H2092 0.950 . S
C2121 C2120 1.397 . S
C2121 C2122 1.334 . S
C2122 H2093 0.950 . S
C2122 C2121 1.334 . S
C2122 C2123 1.287 . S
C2123 C2122 1.287 . S
C2123 C2124 1.524 . S
C2123 H2126 0.999 . S
C2124 H2094 0.950 . S
C2124 C2123 1.524 . S
C2124 C2125 1.415 . S
C2125 H2095 0.950 . S
C2125 C2120 1.363 . S
C2125 C2124 1.415 . S
H2126 C2123 0.999 . S
H2127 C2108 0.913 . S
H2128 C2146 0.951 . S
H2129 C2148 0.951 . S
H2130 C2150 0.950 . S
H2131 C2151 0.950 . S
H2132 C2153 0.950 . S
H2133 C2156 0.950 . S
H2134 C2157 0.950 . S
H2135 C2159 0.950 . S
H2136 C2160 0.950 . S
H2137 C2161 0.951 . S
H2138 C2163 0.951 . S
H2139 C2165 0.950 . S
H2140 C2166 0.950 . S
H2141 C2168 0.950 . S
H2142 C2171 0.950 . S
H2143 C2172 0.950 . S
H2144 C2174 0.950 . S
H2145 C2175 0.950 . S
C2146 H2128 0.951 . S
C2146 C2147 1.366 . S
C2146 C2148 1.388 . S
C2147 C2146 1.366 . S
C2147 C2151 1.385 . S
C2148 H2129 0.951 . S
C2148 C2146 1.388 . S
C2148 C2149 1.366 . S
C2149 C2148 1.366 . S
C2149 C2150 1.414 . S
C2149 C2152 1.499 . S
C2150 H2130 0.950 . S
C2150 C2149 1.414 . S
C2150 C2151 1.374 . S
C2151 H2131 0.950 . S
C2151 C2147 1.385 . S
C2151 C2150 1.374 . S
C2152 C2149 1.499 . S
C2152 C2153 1.373 . S
C2152 C2154 1.389 . S
C2153 H2132 0.950 . S
C2153 C2152 1.373 . S
C2153 C2169 1.377 . S
C2154 C2152 1.389 . S
C2154 C2155 1.524 . S
C2154 C2168 1.377 . S
C2155 C2154 1.524 . S
C2155 C2156 1.397 . S
C2155 C2160 1.363 . S
C2156 H2133 0.950 . S
C2156 C2155 1.397 . S
C2156 C2157 1.334 . S
C2157 H2134 0.950 . S
C2157 C2156 1.334 . S
C2157 C2158 1.287 . S
C2158 C2157 1.287 . S
C2158 C2159 1.524 . S
C2158 H2177 0.913 . S
C2159 H2135 0.950 . S
C2159 C2158 1.524 . S
C2159 C2160 1.415 . S
C2160 H2136 0.950 . S
C2160 C2155 1.363 . S
C2160 C2159 1.415 . S
C2161 H2137 0.951 . S
C2161 C2162 1.366 . S
C2161 C2163 1.388 . S
C2162 C2161 1.366 . S
C2162 C2166 1.385 . S
C2163 H2138 0.951 . S
C2163 C2161 1.388 . S
C2163 C2164 1.366 . S
C2164 C2163 1.366 . S
C2164 C2165 1.414 . S
C2164 C2167 1.499 . S
C2165 H2139 0.950 . S
C2165 C2164 1.414 . S
C2165 C2166 1.374 . S
C2166 H2140 0.950 . S
C2166 C2162 1.385 . S
C2166 C2165 1.374 . S
C2167 C2164 1.499 . S
C2167 C2168 1.373 . S
C2167 C2169 1.389 . S
C2168 H2141 0.950 . S
C2168 C2154 1.377 . S
C2168 C2167 1.373 . S
C2169 C2153 1.377 . S
C2169 C2167 1.389 . S
C2169 C2170 1.524 . S
C2170 C2169 1.524 . S
C2170 C2171 1.397 . S
C2170 C2175 1.363 . S
C2171 H2142 0.950 . S
C2171 C2170 1.397 . S
C2171 C2172 1.334 . S
C2172 H2143 0.950 . S
C2172 C2171 1.334 . S
C2172 C2173 1.287 . S
C2173 C2172 1.287 . S
C2173 C2174 1.524 . S
C2173 H2176 0.999 . S
C2174 H2144 0.950 . S
C2174 C2173 1.524 . S
C2174 C2175 1.415 . S
C2175 H2145 0.950 . S
C2175 C2170 1.363 . S
C2175 C2174 1.415 . S
H2176 C2173 0.999 . S
H2177 C2158 0.913 . S
H2178 C2196 0.951 . S
H2179 C2198 0.951 . S
H2180 C2200 0.950 . S
H2181 C2201 0.950 . S
H2182 C2203 0.950 . S
H2183 C2206 0.950 . S
H2184 C2207 0.950 . S
H2185 C2209 0.950 . S
H2186 C2210 0.950 . S
H2187 C2211 0.951 . S
H2188 C2213 0.951 . S
H2189 C2215 0.950 . S
H2190 C2216 0.950 . S
H2191 C2218 0.950 . S
H2192 C2221 0.950 . S
H2193 C2222 0.950 . S
H2194 C2224 0.950 . S
H2195 C2225 0.950 . S
C2196 H2178 0.951 . S
C2196 C2197 1.366 . S
C2196 C2198 1.388 . S
C2197 C2196 1.366 . S
C2197 C2201 1.385 . S
C2198 H2179 0.951 . S
C2198 C2196 1.388 . S
C2198 C2199 1.366 . S
C2199 C2198 1.366 . S
C2199 C2200 1.414 . S
C2199 C2202 1.499 1_565 S
C2200 H2180 0.950 . S
C2200 C2199 1.414 . S
C2200 C2201 1.374 . S
C2201 H2181 0.950 . S
C2201 C2197 1.385 . S
C2201 C2200 1.374 . S
C2202 C2199 1.499 1_545 S
C2202 C2203 1.373 . S
C2202 C2204 1.389 . S
C2203 H2182 0.950 . S
C2203 C2202 1.373 . S
C2203 C2219 1.377 . S
C2204 C2202 1.389 . S
C2204 C2205 1.524 . S
C2204 C2218 1.377 . S
C2205 C2204 1.524 . S
C2205 C2206 1.397 . S
C2205 C2210 1.363 . S
C2206 H2183 0.950 . S
C2206 C2205 1.397 . S
C2206 C2207 1.334 . S
C2207 H2184 0.950 . S
C2207 C2206 1.334 . S
C2207 C2208 1.287 . S
C2208 C2207 1.287 . S
C2208 C2209 1.524 . S
C2208 H2227 0.913 . S
C2209 H2185 0.950 . S
C2209 C2208 1.524 . S
C2209 C2210 1.415 . S
C2210 H2186 0.950 . S
C2210 C2205 1.363 . S
C2210 C2209 1.415 . S
C2211 H2187 0.951 . S
C2211 C2212 1.366 . S
C2211 C2213 1.388 . S
C2212 C2211 1.366 . S
C2212 C2216 1.385 . S
C2213 H2188 0.951 . S
C2213 C2211 1.388 . S
C2213 C2214 1.366 . S
C2214 C2213 1.366 . S
C2214 C2215 1.414 . S
C2214 C2217 1.499 . S
C2215 H2189 0.950 . S
C2215 C2214 1.414 . S
C2215 C2216 1.374 . S
C2216 H2190 0.950 . S
C2216 C2212 1.385 . S
C2216 C2215 1.374 . S
C2217 C2214 1.499 . S
C2217 C2218 1.373 . S
C2217 C2219 1.389 . S
C2218 H2191 0.950 . S
C2218 C2204 1.377 . S
C2218 C2217 1.373 . S
C2219 C2203 1.377 . S
C2219 C2217 1.389 . S
C2219 C2220 1.524 . S
C2220 C2219 1.524 . S
C2220 C2221 1.397 . S
C2220 C2225 1.363 . S
C2221 H2192 0.950 . S
C2221 C2220 1.397 . S
C2221 C2222 1.334 . S
C2222 H2193 0.950 . S
C2222 C2221 1.334 . S
C2222 C2223 1.287 . S
C2223 C2222 1.287 . S
C2223 C2224 1.524 . S
C2223 H2226 0.999 . S
C2224 H2194 0.950 . S
C2224 C2223 1.524 . S
C2224 C2225 1.415 . S
C2225 H2195 0.950 . S
C2225 C2220 1.363 . S
C2225 C2224 1.415 . S
H2226 C2223 0.999 . S
H2227 C2208 0.913 . S
H2228 C2246 0.951 . S
H2229 C2248 0.951 . S
H2230 C2250 0.950 1_655 S
H2231 C2251 0.950 . S
H2232 C2253 0.950 . S
H2233 C2256 0.950 . S
H2234 C2257 0.950 . S
H2235 C2259 0.950 . S
H2236 C2260 0.950 . S
H2237 C2261 0.951 . S
H2238 C2263 0.951 . S
H2239 C2265 0.950 . S
H2240 C2266 0.950 . S
H2241 C2268 0.950 . S
H2242 C2271 0.950 . S
H2243 C2272 0.950 . S
H2244 C2274 0.950 . S
H2245 C2275 0.950 . S
C2246 H2228 0.951 . S
C2246 C2247 1.366 . S
C2246 C2248 1.388 . S
C2247 C2246 1.366 . S
C2247 C2251 1.385 . S
C2248 H2229 0.951 . S
C2248 C2246 1.388 . S
C2248 C2249 1.366 . S
C2249 C2248 1.366 . S
C2249 C2250 1.414 . S
C2249 C2252 1.499 1_455 S
C2250 H2230 0.950 1_455 S
C2250 C2249 1.414 . S
C2250 C2251 1.374 . S
C2251 H2231 0.950 . S
C2251 C2247 1.385 . S
C2251 C2250 1.374 . S
C2252 C2249 1.499 1_655 S
C2252 C2253 1.373 . S
C2252 C2254 1.389 . S
C2253 H2232 0.950 . S
C2253 C2252 1.373 . S
C2253 C2269 1.377 . S
C2254 C2252 1.389 . S
C2254 C2255 1.524 . S
C2254 C2268 1.377 . S
C2255 C2254 1.524 . S
C2255 C2256 1.397 . S
C2255 C2260 1.363 . S
C2256 H2233 0.950 . S
C2256 C2255 1.397 . S
C2256 C2257 1.334 1_655 S
C2257 H2234 0.950 . S
C2257 C2256 1.334 1_455 S
C2257 C2258 1.287 . S
C2258 C2257 1.287 . S
C2258 C2259 1.524 . S
C2258 H2277 0.913 . S
C2259 H2235 0.950 . S
C2259 C2258 1.524 . S
C2259 C2260 1.415 1_455 S
C2260 H2236 0.950 . S
C2260 C2255 1.363 . S
C2260 C2259 1.415 1_655 S
C2261 H2237 0.951 . S
C2261 C2262 1.366 . S
C2261 C2263 1.388 . S
C2262 C2261 1.366 . S
C2262 C2266 1.385 . S
C2263 H2238 0.951 . S
C2263 C2261 1.388 . S
C2263 C2264 1.366 . S
C2264 C2263 1.366 . S
C2264 C2265 1.414 . S
C2264 C2267 1.499 . S
C2265 H2239 0.950 . S
C2265 C2264 1.414 . S
C2265 C2266 1.374 . S
C2266 H2240 0.950 . S
C2266 C2262 1.385 . S
C2266 C2265 1.374 . S
C2267 C2264 1.499 . S
C2267 C2268 1.373 . S
C2267 C2269 1.389 . S
C2268 H2241 0.950 . S
C2268 C2254 1.377 . S
C2268 C2267 1.373 . S
C2269 C2253 1.377 . S
C2269 C2267 1.389 . S
C2269 C2270 1.524 . S
C2270 C2269 1.524 . S
C2270 C2271 1.397 . S
C2270 C2275 1.363 . S
C2271 H2242 0.950 . S
C2271 C2270 1.397 . S
C2271 C2272 1.334 . S
C2272 H2243 0.950 . S
C2272 C2271 1.334 . S
C2272 C2273 1.287 . S
C2273 C2272 1.287 . S
C2273 C2274 1.524 . S
C2273 H2276 0.999 . S
C2274 H2244 0.950 . S
C2274 C2273 1.524 . S
C2274 C2275 1.415 . S
C2275 H2245 0.950 . S
C2275 C2270 1.363 . S
C2275 C2274 1.415 . S
H2276 C2273 0.999 . S
H2277 C2258 0.913 . S
H2278 C2296 0.951 . S
H2279 C2298 0.951 . S
H2280 C2300 0.950 . S
H2281 C2301 0.950 . S
H2282 C2303 0.950 . S
H2283 C2306 0.950 . S
H2284 C2307 0.950 . S
H2285 C2309 0.950 . S
H2286 C2310 0.950 . S
H2287 C2311 0.951 . S
H2288 C2313 0.951 . S
H2289 C2315 0.950 . S
H2290 C2316 0.950 . S
H2291 C2318 0.950 . S
H2292 C2321 0.950 . S
H2293 C2322 0.950 . S
H2294 C2324 0.950 . S
H2295 C2325 0.950 . S
C2296 H2278 0.951 . S
C2296 C2297 1.366 . S
C2296 C2298 1.388 . S
C2297 C2296 1.366 . S
C2297 C2301 1.385 . S
C2298 H2279 0.951 . S
C2298 C2296 1.388 . S
C2298 C2299 1.366 . S
C2299 C2298 1.366 . S
C2299 C2300 1.414 . S
C2299 C2302 1.499 . S
C2300 H2280 0.950 . S
C2300 C2299 1.414 . S
C2300 C2301 1.374 . S
C2301 H2281 0.950 . S
C2301 C2297 1.385 . S
C2301 C2300 1.374 . S
C2302 C2299 1.499 . S
C2302 C2303 1.373 . S
C2302 C2304 1.389 . S
C2303 H2282 0.950 . S
C2303 C2302 1.373 . S
C2303 C2319 1.377 . S
C2304 C2302 1.389 . S
C2304 C2305 1.524 . S
C2304 C2318 1.377 . S
C2305 C2304 1.524 . S
C2305 C2306 1.397 . S
C2305 C2310 1.363 . S
C2306 H2283 0.950 . S
C2306 C2305 1.397 . S
C2306 C2307 1.334 . S
C2307 H2284 0.950 . S
C2307 C2306 1.334 . S
C2307 C2308 1.287 . S
C2308 C2307 1.287 . S
C2308 C2309 1.524 . S
C2308 H2327 0.913 . S
C2309 H2285 0.950 . S
C2309 C2308 1.524 . S
C2309 C2310 1.415 . S
C2310 H2286 0.950 . S
C2310 C2305 1.363 . S
C2310 C2309 1.415 . S
C2311 H2287 0.951 . S
C2311 C2312 1.366 . S
C2311 C2313 1.388 . S
C2312 C2311 1.366 . S
C2312 C2316 1.385 . S
C2313 H2288 0.951 . S
C2313 C2311 1.388 . S
C2313 C2314 1.366 . S
C2314 C2313 1.366 . S
C2314 C2315 1.414 . S
C2314 C2317 1.499 . S
C2315 H2289 0.950 . S
C2315 C2314 1.414 . S
C2315 C2316 1.374 . S
C2316 H2290 0.950 . S
C2316 C2312 1.385 . S
C2316 C2315 1.374 . S
C2317 C2314 1.499 . S
C2317 C2318 1.373 . S
C2317 C2319 1.389 . S
C2318 H2291 0.950 . S
C2318 C2304 1.377 . S
C2318 C2317 1.373 . S
C2319 C2303 1.377 . S
C2319 C2317 1.389 . S
C2319 C2320 1.524 . S
C2320 C2319 1.524 . S
C2320 C2321 1.397 . S
C2320 C2325 1.363 . S
C2321 H2292 0.950 . S
C2321 C2320 1.397 . S
C2321 C2322 1.334 . S
C2322 H2293 0.950 . S
C2322 C2321 1.334 . S
C2322 C2323 1.287 . S
C2323 C2322 1.287 . S
C2323 C2324 1.524 . S
C2323 H2326 0.999 . S
C2324 H2294 0.950 . S
C2324 C2323 1.524 . S
C2324 C2325 1.415 . S
C2325 H2295 0.950 . S
C2325 C2320 1.363 . S
C2325 C2324 1.415 . S
H2326 C2323 0.999 . S
H2327 C2308 0.913 . S
H2328 C2346 0.951 . S
H2329 C2348 0.951 . S
H2330 C2350 0.950 . S
H2331 C2351 0.950 . S
H2332 C2353 0.950 1_455 S
H2333 C2356 0.950 . S
H2334 C2357 0.950 . S
H2335 C2359 0.950 . S
H2336 C2360 0.950 . S
H2337 C2361 0.951 . S
H2338 C2363 0.951 . S
H2339 C2365 0.950 . S
H2340 C2366 0.950 . S
H2341 C2368 0.950 . S
H2342 C2371 0.950 . S
H2343 C2372 0.950 . S
H2344 C2374 0.950 . S
H2345 C2375 0.950 . S
C2346 H2328 0.951 . S
C2346 C2347 1.366 . S
C2346 C2348 1.388 . S
C2347 C2346 1.366 . S
C2347 C2351 1.385 . S
C2348 H2329 0.951 . S
C2348 C2346 1.388 . S
C2348 C2349 1.366 . S
C2349 C2348 1.366 . S
C2349 C2350 1.414 . S
C2349 C2352 1.499 1_455 S
C2350 H2330 0.950 . S
C2350 C2349 1.414 . S
C2350 C2351 1.374 . S
C2351 H2331 0.950 . S
C2351 C2347 1.385 . S
C2351 C2350 1.374 . S
C2352 C2349 1.499 1_655 S
C2352 C2353 1.373 . S
C2352 C2354 1.389 . S
C2353 H2332 0.950 1_655 S
C2353 C2352 1.373 . S
C2353 C2369 1.377 . S
C2354 C2352 1.389 . S
C2354 C2355 1.524 . S
C2354 C2368 1.377 . S
C2355 C2354 1.524 . S
C2355 C2356 1.397 . S
C2355 C2360 1.363 . S
C2356 H2333 0.950 . S
C2356 C2355 1.397 . S
C2356 C2357 1.334 . S
C2357 H2334 0.950 . S
C2357 C2356 1.334 . S
C2357 C2358 1.287 . S
C2358 C2357 1.287 . S
C2358 C2359 1.524 . S
C2358 H2377 0.913 . S
C2359 H2335 0.950 . S
C2359 C2358 1.524 . S
C2359 C2360 1.415 . S
C2360 H2336 0.950 . S
C2360 C2355 1.363 . S
C2360 C2359 1.415 . S
C2361 H2337 0.951 . S
C2361 C2362 1.366 . S
C2361 C2363 1.388 . S
C2362 C2361 1.366 . S
C2362 C2366 1.385 . S
C2363 H2338 0.951 . S
C2363 C2361 1.388 . S
C2363 C2364 1.366 . S
C2364 C2363 1.366 . S
C2364 C2365 1.414 . S
C2364 C2367 1.499 . S
C2365 H2339 0.950 . S
C2365 C2364 1.414 . S
C2365 C2366 1.374 . S
C2366 H2340 0.950 . S
C2366 C2362 1.385 . S
C2366 C2365 1.374 . S
C2367 C2364 1.499 . S
C2367 C2368 1.373 . S
C2367 C2369 1.389 . S
C2368 H2341 0.950 . S
C2368 C2354 1.377 . S
C2368 C2367 1.373 . S
C2369 C2353 1.377 . S
C2369 C2367 1.389 . S
C2369 C2370 1.524 . S
C2370 C2369 1.524 . S
C2370 C2371 1.397 . S
C2370 C2375 1.363 . S
C2371 H2342 0.950 . S
C2371 C2370 1.397 . S
C2371 C2372 1.334 . S
C2372 H2343 0.950 . S
C2372 C2371 1.334 . S
C2372 C2373 1.287 . S
C2373 C2372 1.287 . S
C2373 C2374 1.524 . S
C2373 H2376 0.999 . S
C2374 H2344 0.950 . S
C2374 C2373 1.524 . S
C2374 C2375 1.415 . S
C2375 H2345 0.950 . S
C2375 C2370 1.363 . S
C2375 C2374 1.415 . S
H2376 C2373 0.999 . S
H2377 C2358 0.913 . S
H2378 C2396 0.951 . S
H2379 C2398 0.951 . S
H2380 C2400 0.950 . S
H2381 C2401 0.950 . S
H2382 C2403 0.950 . S
H2383 C2406 0.950 . S
H2384 C2407 0.950 . S
H2385 C2409 0.950 . S
H2386 C2410 0.950 . S
H2387 C2411 0.951 . S
H2388 C2413 0.951 . S
H2389 C2415 0.950 . S
H2390 C2416 0.950 . S
H2391 C2418 0.950 . S
H2392 C2421 0.950 . S
H2393 C2422 0.950 . S
H2394 C2424 0.950 . S
H2395 C2425 0.950 . S
C2396 H2378 0.951 . S
C2396 C2397 1.366 . S
C2396 C2398 1.388 . S
C2397 C2396 1.366 . S
C2397 C2401 1.385 . S
C2398 H2379 0.951 . S
C2398 C2396 1.388 . S
C2398 C2399 1.366 . S
C2399 C2398 1.366 . S
C2399 C2400 1.414 . S
C2399 C2402 1.499 . S
C2400 H2380 0.950 . S
C2400 C2399 1.414 . S
C2400 C2401 1.374 . S
C2401 H2381 0.950 . S
C2401 C2397 1.385 . S
C2401 C2400 1.374 . S
C2402 C2399 1.499 . S
C2402 C2403 1.373 . S
C2402 C2404 1.389 . S
C2403 H2382 0.950 . S
C2403 C2402 1.373 . S
C2403 C2419 1.377 . S
C2404 C2402 1.389 . S
C2404 C2405 1.524 . S
C2404 C2418 1.377 . S
C2405 C2404 1.524 . S
C2405 C2406 1.397 . S
C2405 C2410 1.363 . S
C2406 H2383 0.950 . S
C2406 C2405 1.397 . S
C2406 C2407 1.334 . S
C2407 H2384 0.950 . S
C2407 C2406 1.334 . S
C2407 C2408 1.287 . S
C2408 C2407 1.287 . S
C2408 C2409 1.524 . S
C2408 H2427 0.913 . S
C2409 H2385 0.950 . S
C2409 C2408 1.524 . S
C2409 C2410 1.415 . S
C2410 H2386 0.950 . S
C2410 C2405 1.363 . S
C2410 C2409 1.415 . S
C2411 H2387 0.951 . S
C2411 C2412 1.366 . S
C2411 C2413 1.388 . S
C2412 C2411 1.366 . S
C2412 C2416 1.385 . S
C2413 H2388 0.951 . S
C2413 C2411 1.388 . S
C2413 C2414 1.366 . S
C2414 C2413 1.366 . S
C2414 C2415 1.414 . S
C2414 C2417 1.499 . S
C2415 H2389 0.950 . S
C2415 C2414 1.414 . S
C2415 C2416 1.374 . S
C2416 H2390 0.950 . S
C2416 C2412 1.385 . S
C2416 C2415 1.374 . S
C2417 C2414 1.499 . S
C2417 C2418 1.373 . S
C2417 C2419 1.389 . S
C2418 H2391 0.950 . S
C2418 C2404 1.377 . S
C2418 C2417 1.373 . S
C2419 C2403 1.377 . S
C2419 C2417 1.389 . S
C2419 C2420 1.524 . S
C2420 C2419 1.524 . S
C2420 C2421 1.397 . S
C2420 C2425 1.363 . S
C2421 H2392 0.950 . S
C2421 C2420 1.397 . S
C2421 C2422 1.334 . S
C2422 H2393 0.950 . S
C2422 C2421 1.334 . S
C2422 C2423 1.287 . S
C2423 C2422 1.287 . S
C2423 C2424 1.524 . S
C2423 H2426 0.999 . S
C2424 H2394 0.950 . S
C2424 C2423 1.524 . S
C2424 C2425 1.415 . S
C2425 H2395 0.950 . S
C2425 C2420 1.363 . S
C2425 C2424 1.415 . S
H2426 C2423 0.999 . S
H2427 C2408 0.913 . S
H2428 C2446 0.951 . S
H2429 C2448 0.951 . S
H2430 C2450 0.950 . S
H2431 C2451 0.950 . S
H2432 C2453 0.950 . S
H2433 C2456 0.970 . S
H2434 C2457 0.950 . S
H2435 C2459 0.931 . S
H2436 C2460 0.950 . S
H2437 C2461 0.951 . S
H2438 C2463 0.951 . S
H2439 C2465 0.950 . S
H2440 C2466 0.950 . S
H2441 C2468 0.950 . S
H2442 C2471 0.950 . S
H2443 C2472 0.950 . S
H2444 C2474 0.950 . S
H2445 C2475 0.950 . S
C2446 H2428 0.951 . S
C2446 C2447 1.366 . S
C2446 C2448 1.388 . S
C2447 C2446 1.366 . S
C2447 C2451 1.385 . S
C2448 H2429 0.951 . S
C2448 C2446 1.388 . S
C2448 C2449 1.366 . S
C2449 C2448 1.366 . S
C2449 C2450 1.414 . S
C2449 C2452 1.499 1_565 S
C2450 H2430 0.950 . S
C2450 C2449 1.414 . S
C2450 C2451 1.374 . S
C2451 H2431 0.950 . S
C2451 C2447 1.385 . S
C2451 C2450 1.374 . S
C2452 C2449 1.499 1_545 S
C2452 C2453 1.373 . S
C2452 C2454 1.389 . S
C2453 H2432 0.950 . S
C2453 C2452 1.373 . S
C2453 C2469 1.377 . S
C2454 C2452 1.389 . S
C2454 C2455 1.524 . S
C2454 C2468 1.377 . S
C2455 C2454 1.524 . S
C2455 C2456 1.381 1_545 S
C2455 C2460 1.363 . S
C2456 H2433 0.970 . S
C2456 C2455 1.381 1_565 S
C2456 C2457 1.333 . S
C2457 H2434 0.950 . S
C2457 C2456 1.333 . S
C2457 C2458 1.287 . S
C2458 C2457 1.287 . S
C2458 C2459 1.543 . S
C2458 H2477 0.913 . S
C2459 H2435 0.931 . S
C2459 C2458 1.543 . S
C2459 C2460 1.421 1_565 S
C2460 H2436 0.950 . S
C2460 C2455 1.363 . S
C2460 C2459 1.421 1_545 S
C2461 H2437 0.951 . S
C2461 C2462 1.366 . S
C2461 C2463 1.388 . S
C2462 C2461 1.366 . S
C2462 C2466 1.385 . S
C2463 H2438 0.951 . S
C2463 C2461 1.388 . S
C2463 C2464 1.366 . S
C2464 C2463 1.366 . S
C2464 C2465 1.414 . S
C2464 C2467 1.499 . S
C2465 H2439 0.950 . S
C2465 C2464 1.414 . S
C2465 C2466 1.374 . S
C2466 H2440 0.950 . S
C2466 C2462 1.385 . S
C2466 C2465 1.374 . S
C2467 C2464 1.499 . S
C2467 C2468 1.373 . S
C2467 C2469 1.389 . S
C2468 H2441 0.950 . S
C2468 C2454 1.377 . S
C2468 C2467 1.373 . S
C2469 C2453 1.377 . S
C2469 C2467 1.389 . S
C2469 C2470 1.524 . S
C2470 C2469 1.524 . S
C2470 C2471 1.397 . S
C2470 C2475 1.363 . S
C2471 H2442 0.950 . S
C2471 C2470 1.397 . S
C2471 C2472 1.334 . S
C2472 H2443 0.950 . S
C2472 C2471 1.334 . S
C2472 C2473 1.287 . S
C2473 C2472 1.287 . S
C2473 C2474 1.524 . S
C2473 H2476 0.999 . S
C2474 H2444 0.950 . S
C2474 C2473 1.524 . S
C2474 C2475 1.415 . S
C2475 H2445 0.950 . S
C2475 C2470 1.363 . S
C2475 C2474 1.415 . S
H2476 C2473 0.999 . S
H2477 C2458 0.913 . S
H2478 C2496 0.951 . S
H2479 C2498 0.951 . S
H2480 C2500 0.950 . S
H2481 C2501 0.950 . S
H2482 C2503 0.950 . S
H2483 C2506 0.950 . S
H2484 C2507 0.950 . S
H2485 C2509 0.950 . S
H2486 C2510 0.950 . S
H2487 C2511 0.951 . S
H2488 C2513 0.951 . S
H2489 C2515 0.950 . S
H2490 C2516 0.950 . S
H2491 C2518 0.950 . S
H2492 C2521 0.950 . S
H2493 C2522 0.950 . S
H2494 C2524 0.950 . S
H2495 C2525 0.950 . S
C2496 H2478 0.951 . S
C2496 C2497 1.366 . S
C2496 C2498 1.388 . S
C2497 C2496 1.366 . S
C2497 C2501 1.385 . S
C2498 H2479 0.951 . S
C2498 C2496 1.388 . S
C2498 C2499 1.366 . S
C2499 C2498 1.366 . S
C2499 C2500 1.414 . S
C2499 C2502 1.499 . S
C2500 H2480 0.950 . S
C2500 C2499 1.414 . S
C2500 C2501 1.374 . S
C2501 H2481 0.950 . S
C2501 C2497 1.385 . S
C2501 C2500 1.374 . S
C2502 C2499 1.499 . S
C2502 C2503 1.373 . S
C2502 C2504 1.389 . S
C2503 H2482 0.950 . S
C2503 C2502 1.373 . S
C2503 C2519 1.377 . S
C2504 C2502 1.389 . S
C2504 C2505 1.524 . S
C2504 C2518 1.377 . S
C2505 C2504 1.524 . S
C2505 C2506 1.397 . S
C2505 C2510 1.363 . S
C2506 H2483 0.950 . S
C2506 C2505 1.397 . S
C2506 C2507 1.334 . S
C2507 H2484 0.950 . S
C2507 C2506 1.334 . S
C2507 C2508 1.287 . S
C2508 C2507 1.287 . S
C2508 C2509 1.524 . S
C2508 H2527 0.913 . S
C2509 H2485 0.950 . S
C2509 C2508 1.524 . S
C2509 C2510 1.415 . S
C2510 H2486 0.950 . S
C2510 C2505 1.363 . S
C2510 C2509 1.415 . S
C2511 H2487 0.951 . S
C2511 C2512 1.366 . S
C2511 C2513 1.388 . S
C2512 C2511 1.366 . S
C2512 C2516 1.385 . S
C2513 H2488 0.951 . S
C2513 C2511 1.388 . S
C2513 C2514 1.366 . S
C2514 C2513 1.366 . S
C2514 C2515 1.414 . S
C2514 C2517 1.499 . S
C2515 H2489 0.950 . S
C2515 C2514 1.414 . S
C2515 C2516 1.374 . S
C2516 H2490 0.950 . S
C2516 C2512 1.385 . S
C2516 C2515 1.374 . S
C2517 C2514 1.499 . S
C2517 C2518 1.373 . S
C2517 C2519 1.389 . S
C2518 H2491 0.950 . S
C2518 C2504 1.377 . S
C2518 C2517 1.373 . S
C2519 C2503 1.377 . S
C2519 C2517 1.389 . S
C2519 C2520 1.524 . S
C2520 C2519 1.524 . S
C2520 C2521 1.397 . S
C2520 C2525 1.363 . S
C2521 H2492 0.950 . S
C2521 C2520 1.397 . S
C2521 C2522 1.334 . S
C2522 H2493 0.950 . S
C2522 C2521 1.334 . S
C2522 C2523 1.287 . S
C2523 C2522 1.287 . S
C2523 C2524 1.524 . S
C2523 H2526 0.999 . S
C2524 H2494 0.950 . S
C2524 C2523 1.524 . S
C2524 C2525 1.415 . S
C2525 H2495 0.950 . S
C2525 C2520 1.363 . S
C2525 C2524 1.415 . S
H2526 C2523 0.999 . S
H2527 C2508 0.913 . S
H2528 C2546 0.951 . S
H2529 C2548 0.951 . S
H2530 C2550 0.950 . S
H2531 C2551 0.950 . S
H2532 C2553 0.950 . S
H2533 C2556 0.950 . S
H2534 C2557 0.950 . S
H2535 C2559 0.950 . S
H2536 C2560 0.950 . S
H2537 C2561 0.951 . S
H2538 C2563 0.951 . S
H2539 C2565 0.950 . S
H2540 C2566 0.950 . S
H2541 C2568 0.950 . S
H2542 C2571 0.950 . S
H2543 C2572 0.950 . S
H2544 C2574 0.950 . S
H2545 C2575 0.950 . S
C2546 H2528 0.951 . S
C2546 C2547 1.366 . S
C2546 C2548 1.388 . S
C2547 C2546 1.366 . S
C2547 C2551 1.385 . S
C2548 H2529 0.951 . S
C2548 C2546 1.388 . S
C2548 C2549 1.366 . S
C2549 C2548 1.366 . S
C2549 C2550 1.414 . S
C2549 C2552 1.499 . S
C2550 H2530 0.950 . S
C2550 C2549 1.414 . S
C2550 C2551 1.374 . S
C2551 H2531 0.950 . S
C2551 C2547 1.385 . S
C2551 C2550 1.374 . S
C2552 C2549 1.499 . S
C2552 C2553 1.373 . S
C2552 C2554 1.389 . S
C2553 H2532 0.950 . S
C2553 C2552 1.373 . S
C2553 C2569 1.377 . S
C2554 C2552 1.389 . S
C2554 C2555 1.524 . S
C2554 C2568 1.377 . S
C2555 C2554 1.524 . S
C2555 C2556 1.397 . S
C2555 C2560 1.363 . S
C2556 H2533 0.950 . S
C2556 C2555 1.397 . S
C2556 C2557 1.334 . S
C2557 H2534 0.950 . S
C2557 C2556 1.334 . S
C2557 C2558 1.287 . S
C2558 C2557 1.287 . S
C2558 C2559 1.524 . S
C2558 H2577 0.913 . S
C2559 H2535 0.950 . S
C2559 C2558 1.524 . S
C2559 C2560 1.415 . S
C2560 H2536 0.950 . S
C2560 C2555 1.363 . S
C2560 C2559 1.415 . S
C2561 H2537 0.951 . S
C2561 C2562 1.366 . S
C2561 C2563 1.388 . S
C2562 C2561 1.366 . S
C2562 C2566 1.385 . S
C2563 H2538 0.951 . S
C2563 C2561 1.388 . S
C2563 C2564 1.366 . S
C2564 C2563 1.366 . S
C2564 C2565 1.414 . S
C2564 C2567 1.499 . S
C2565 H2539 0.950 . S
C2565 C2564 1.414 . S
C2565 C2566 1.374 . S
C2566 H2540 0.950 . S
C2566 C2562 1.385 . S
C2566 C2565 1.374 . S
C2567 C2564 1.499 . S
C2567 C2568 1.373 . S
C2567 C2569 1.389 . S
C2568 H2541 0.950 . S
C2568 C2554 1.377 . S
C2568 C2567 1.373 . S
C2569 C2553 1.377 . S
C2569 C2567 1.389 . S
C2569 C2570 1.524 . S
C2570 C2569 1.524 . S
C2570 C2571 1.397 . S
C2570 C2575 1.363 . S
C2571 H2542 0.950 . S
C2571 C2570 1.397 . S
C2571 C2572 1.334 . S
C2572 H2543 0.950 . S
C2572 C2571 1.334 . S
C2572 C2573 1.287 . S
C2573 C2572 1.287 . S
C2573 C2574 1.524 . S
C2573 H2576 0.999 . S
C2574 H2544 0.950 . S
C2574 C2573 1.524 . S
C2574 C2575 1.415 . S
C2575 H2545 0.950 . S
C2575 C2570 1.363 . S
C2575 C2574 1.415 . S
H2576 C2573 0.999 . S
H2577 C2558 0.913 . S
H2578 C2596 0.951 . S
H2579 C2598 0.951 . S
H2580 C2600 0.950 . S
H2581 C2601 0.950 . S
H2582 C2603 0.950 . S
H2583 C2606 0.950 . S
H2584 C2607 0.950 . S
H2585 C2609 0.950 . S
H2586 C2610 0.950 . S
H2587 C2611 0.951 . S
H2588 C2613 0.951 . S
H2589 C2615 0.950 . S
H2590 C2616 0.950 . S
H2591 C2618 0.950 . S
H2592 C2621 0.950 . S
H2593 C2622 0.950 . S
H2594 C2624 0.950 . S
H2595 C2625 0.950 . S
C2596 H2578 0.951 . S
C2596 C2597 1.366 . S
C2596 C2598 1.388 . S
C2597 C2596 1.366 . S
C2597 C2601 1.385 . S
C2598 H2579 0.951 . S
C2598 C2596 1.388 . S
C2598 C2599 1.366 . S
C2599 C2598 1.366 . S
C2599 C2600 1.414 . S
C2599 C2602 1.499 . S
C2600 H2580 0.950 . S
C2600 C2599 1.414 . S
C2600 C2601 1.374 . S
C2601 H2581 0.950 . S
C2601 C2597 1.385 . S
C2601 C2600 1.374 . S
C2602 C2599 1.499 . S
C2602 C2603 1.373 . S
C2602 C2604 1.389 . S
C2603 H2582 0.950 . S
C2603 C2602 1.373 . S
C2603 C2619 1.377 . S
C2604 C2602 1.389 . S
C2604 C2605 1.524 . S
C2604 C2618 1.377 . S
C2605 C2604 1.524 . S
C2605 C2606 1.397 . S
C2605 C2610 1.363 . S
C2606 H2583 0.950 . S
C2606 C2605 1.397 . S
C2606 C2607 1.334 . S
C2607 H2584 0.950 . S
C2607 C2606 1.334 . S
C2607 C2608 1.287 . S
C2608 C2607 1.287 . S
C2608 C2609 1.524 . S
C2608 H2627 0.913 . S
C2609 H2585 0.950 . S
C2609 C2608 1.524 . S
C2609 C2610 1.415 . S
C2610 H2586 0.950 . S
C2610 C2605 1.363 . S
C2610 C2609 1.415 . S
C2611 H2587 0.951 . S
C2611 C2612 1.366 . S
C2611 C2613 1.388 . S
C2612 C2611 1.366 . S
C2612 C2616 1.385 . S
C2613 H2588 0.951 . S
C2613 C2611 1.388 . S
C2613 C2614 1.366 . S
C2614 C2613 1.366 . S
C2614 C2615 1.414 . S
C2614 C2617 1.499 . S
C2615 H2589 0.950 . S
C2615 C2614 1.414 . S
C2615 C2616 1.374 . S
C2616 H2590 0.950 . S
C2616 C2612 1.385 . S
C2616 C2615 1.374 . S
C2617 C2614 1.499 . S
C2617 C2618 1.373 . S
C2617 C2619 1.389 . S
C2618 H2591 0.950 . S
C2618 C2604 1.377 . S
C2618 C2617 1.373 . S
C2619 C2603 1.377 . S
C2619 C2617 1.389 . S
C2619 C2620 1.524 . S
C2620 C2619 1.524 . S
C2620 C2621 1.397 . S
C2620 C2625 1.363 . S
C2621 H2592 0.950 . S
C2621 C2620 1.397 . S
C2621 C2622 1.334 . S
C2622 H2593 0.950 . S
C2622 C2621 1.334 . S
C2622 C2623 1.287 . S
C2623 C2622 1.287 . S
C2623 C2624 1.524 . S
C2623 H2626 0.999 . S
C2624 H2594 0.950 . S
C2624 C2623 1.524 . S
C2624 C2625 1.415 . S
C2625 H2595 0.950 . S
C2625 C2620 1.363 . S
C2625 C2624 1.415 . S
H2626 C2623 0.999 . S
H2627 C2608 0.913 . S
H2628 C2646 0.951 . S
H2629 C2648 0.951 . S
H2630 C2650 0.950 . S
H2631 C2651 0.950 . S
H2632 C2653 0.950 . S
H2633 C2656 0.950 . S
H2634 C2657 0.950 . S
H2635 C2659 0.950 . S
H2636 C2660 0.950 . S
H2637 C2661 0.951 . S
H2638 C2663 0.951 . S
H2639 C2665 0.950 . S
H2640 C2666 0.950 . S
H2641 C2668 0.950 . S
H2642 C2671 0.950 . S
H2643 C2672 0.950 . S
H2644 C2674 0.950 . S
H2645 C2675 0.950 . S
C2646 H2628 0.951 . S
C2646 C2647 1.366 . S
C2646 C2648 1.388 . S
C2647 C2646 1.366 . S
C2647 C2651 1.385 . S
C2648 H2629 0.951 . S
C2648 C2646 1.388 . S
C2648 C2649 1.366 . S
C2649 C2648 1.366 . S
C2649 C2650 1.414 . S
C2649 C2652 1.499 . S
C2650 H2630 0.950 . S
C2650 C2649 1.414 . S
C2650 C2651 1.374 . S
C2651 H2631 0.950 . S
C2651 C2647 1.385 . S
C2651 C2650 1.374 . S
C2652 C2649 1.499 . S
C2652 C2653 1.373 . S
C2652 C2654 1.389 . S
C2653 H2632 0.950 . S
C2653 C2652 1.373 . S
C2653 C2669 1.377 . S
C2654 C2652 1.389 . S
C2654 C2655 1.524 . S
C2654 C2668 1.377 . S
C2655 C2654 1.524 . S
C2655 C2656 1.397 . S
C2655 C2660 1.363 1_565 S
C2656 H2633 0.950 . S
C2656 C2655 1.397 . S
C2656 C2657 1.334 . S
C2657 H2634 0.950 . S
C2657 C2656 1.334 . S
C2657 C2658 1.287 1_565 S
C2658 C2657 1.287 1_545 S
C2658 C2659 1.524 . S
C2658 H2677 0.913 . S
C2659 H2635 0.950 . S
C2659 C2658 1.524 . S
C2659 C2660 1.415 . S
C2660 H2636 0.950 . S
C2660 C2655 1.363 1_545 S
C2660 C2659 1.415 . S
C2661 H2637 0.951 . S
C2661 C2662 1.366 . S
C2661 C2663 1.388 . S
C2662 C2661 1.366 . S
C2662 C2666 1.385 1_565 S
C2663 H2638 0.951 . S
C2663 C2661 1.388 . S
C2663 C2664 1.366 . S
C2664 C2663 1.366 . S
C2664 C2665 1.414 1_565 S
C2664 C2667 1.499 . S
C2665 H2639 0.950 . S
C2665 C2664 1.414 1_545 S
C2665 C2666 1.374 . S
C2666 H2640 0.950 . S
C2666 C2662 1.385 1_545 S
C2666 C2665 1.374 . S
C2667 C2664 1.499 . S
C2667 C2668 1.373 . S
C2667 C2669 1.389 . S
C2668 H2641 0.950 . S
C2668 C2654 1.377 . S
C2668 C2667 1.373 . S
C2669 C2653 1.377 . S
C2669 C2667 1.389 . S
C2669 C2670 1.524 . S
C2670 C2669 1.524 . S
C2670 C2671 1.397 . S
C2670 C2675 1.363 . S
C2671 H2642 0.950 . S
C2671 C2670 1.397 . S
C2671 C2672 1.334 . S
C2672 H2643 0.950 . S
C2672 C2671 1.334 . S
C2672 C2673 1.287 . S
C2673 C2672 1.287 . S
C2673 C2674 1.524 . S
C2673 H2676 0.999 . S
C2674 H2644 0.950 . S
C2674 C2673 1.524 . S
C2674 C2675 1.415 . S
C2675 H2645 0.950 . S
C2675 C2670 1.363 . S
C2675 C2674 1.415 . S
H2676 C2673 0.999 . S
H2677 C2658 0.913 . S
H2678 C2696 0.951 . S
H2679 C2698 0.951 . S
H2680 C2700 0.950 . S
H2681 C2701 0.950 . S
H2682 C2703 0.950 1_655 S
H2683 C2706 0.950 . S
H2684 C2707 0.950 . S
H2685 C2709 0.950 . S
H2686 C2710 0.950 . S
H2687 C2711 0.951 . S
H2688 C2713 0.951 1_655 S
H2689 C2715 0.950 . S
H2690 C2716 0.950 . S
H2691 C2718 0.950 . S
H2692 C2721 0.950 . S
H2693 C2722 0.950 . S
H2694 C2724 0.950 . S
H2695 C2725 0.950 . S
C2696 H2678 0.951 . S
C2696 C2697 1.366 . S
C2696 C2698 1.388 . S
C2697 C2696 1.366 . S
C2697 C2701 1.385 . S
C2698 H2679 0.951 . S
C2698 C2696 1.388 . S
C2698 C2699 1.366 . S
C2699 C2698 1.366 . S
C2699 C2700 1.414 . S
C2699 C2702 1.499 . S
C2700 H2680 0.950 . S
C2700 C2699 1.414 . S
C2700 C2701 1.374 . S
C2701 H2681 0.950 . S
C2701 C2697 1.385 . S
C2701 C2700 1.374 . S
C2702 C2699 1.499 . S
C2702 C2703 1.373 . S
C2702 C2704 1.389 . S
C2703 H2682 0.950 1_455 S
C2703 C2702 1.373 . S
C2703 C2719 1.377 . S
C2704 C2702 1.389 . S
C2704 C2705 1.524 . S
C2704 C2718 1.377 . S
C2705 C2704 1.524 . S
C2705 C2706 1.397 . S
C2705 C2710 1.363 . S
C2706 H2683 0.950 . S
C2706 C2705 1.397 . S
C2706 C2707 1.334 . S
C2707 H2684 0.950 . S
C2707 C2706 1.334 . S
C2707 C2708 1.287 . S
C2708 C2707 1.287 . S
C2708 C2709 1.524 . S
C2708 H2727 0.913 . S
C2709 H2685 0.950 . S
C2709 C2708 1.524 . S
C2709 C2710 1.415 . S
C2710 H2686 0.950 . S
C2710 C2705 1.363 . S
C2710 C2709 1.415 . S
C2711 H2687 0.951 . S
C2711 C2712 1.366 1_655 S
C2711 C2713 1.388 1_655 S
C2712 C2711 1.366 1_455 S
C2712 C2716 1.385 . S
C2713 H2688 0.951 1_455 S
C2713 C2711 1.388 1_455 S
C2713 C2714 1.366 . S
C2714 C2713 1.366 . S
C2714 C2715 1.414 . S
C2714 C2717 1.499 . S
C2715 H2689 0.950 . S
C2715 C2714 1.414 . S
C2715 C2716 1.374 . S
C2716 H2690 0.950 . S
C2716 C2712 1.385 . S
C2716 C2715 1.374 . S
C2717 C2714 1.499 . S
C2717 C2718 1.373 . S
C2717 C2719 1.389 . S
C2718 H2691 0.950 . S
C2718 C2704 1.377 . S
C2718 C2717 1.373 . S
C2719 C2703 1.377 . S
C2719 C2717 1.389 . S
C2719 C2720 1.524 1_455 S
C2720 C2719 1.524 1_655 S
C2720 C2721 1.397 . S
C2720 C2725 1.363 . S
C2721 H2692 0.950 . S
C2721 C2720 1.397 . S
C2721 C2722 1.334 . S
C2722 H2693 0.950 . S
C2722 C2721 1.334 . S
C2722 C2723 1.287 . S
C2723 C2722 1.287 . S
C2723 C2724 1.524 . S
C2723 H2726 0.999 . S
C2724 H2694 0.950 . S
C2724 C2723 1.524 . S
C2724 C2725 1.415 . S
C2725 H2695 0.950 . S
C2725 C2720 1.363 . S
C2725 C2724 1.415 . S
H2726 C2723 0.999 . S
H2727 C2708 0.913 . S
H2728 C2746 0.951 . S
H2729 C2748 0.951 . S
H2730 C2750 0.950 . S
H2731 C2751 0.950 . S
H2732 C2753 0.950 . S
H2733 C2756 0.950 . S
H2734 C2757 0.950 . S
H2735 C2759 0.950 . S
H2736 C2760 0.950 . S
H2737 C2761 0.951 . S
H2738 C2763 0.951 . S
H2739 C2765 0.950 . S
H2740 C2766 0.950 . S
H2741 C2768 0.950 . S
H2742 C2771 0.950 . S
H2743 C2772 0.950 . S
H2744 C2774 0.950 . S
H2745 C2775 0.950 . S
C2746 H2728 0.951 . S
C2746 C2747 1.366 . S
C2746 C2748 1.388 . S
C2747 C2746 1.366 . S
C2747 C2751 1.385 . S
C2748 H2729 0.951 . S
C2748 C2746 1.388 . S
C2748 C2749 1.366 . S
C2749 C2748 1.366 . S
C2749 C2750 1.414 . S
C2749 C2752 1.499 . S
C2750 H2730 0.950 . S
C2750 C2749 1.414 . S
C2750 C2751 1.374 . S
C2751 H2731 0.950 . S
C2751 C2747 1.385 . S
C2751 C2750 1.374 . S
C2752 C2749 1.499 . S
C2752 C2753 1.373 . S
C2752 C2754 1.389 . S
C2753 H2732 0.950 . S
C2753 C2752 1.373 . S
C2753 C2769 1.377 . S
C2754 C2752 1.389 . S
C2754 C2755 1.524 . S
C2754 C2768 1.377 . S
C2755 C2754 1.524 . S
C2755 C2756 1.397 . S
C2755 C2760 1.363 . S
C2756 H2733 0.950 . S
C2756 C2755 1.397 . S
C2756 C2757 1.334 . S
C2757 H2734 0.950 . S
C2757 C2756 1.334 . S
C2757 C2758 1.287 . S
C2758 C2757 1.287 . S
C2758 C2759 1.524 . S
C2758 H2777 0.913 . S
C2759 H2735 0.950 . S
C2759 C2758 1.524 . S
C2759 C2760 1.415 . S
C2760 H2736 0.950 . S
C2760 C2755 1.363 . S
C2760 C2759 1.415 . S
C2761 H2737 0.951 . S
C2761 C2762 1.366 . S
C2761 C2763 1.388 . S
C2762 C2761 1.366 . S
C2762 C2766 1.385 . S
C2763 H2738 0.951 . S
C2763 C2761 1.388 . S
C2763 C2764 1.366 . S
C2764 C2763 1.366 . S
C2764 C2765 1.414 . S
C2764 C2767 1.499 . S
C2765 H2739 0.950 . S
C2765 C2764 1.414 . S
C2765 C2766 1.374 . S
C2766 H2740 0.950 . S
C2766 C2762 1.385 . S
C2766 C2765 1.374 . S
C2767 C2764 1.499 . S
C2767 C2768 1.373 . S
C2767 C2769 1.389 . S
C2768 H2741 0.950 . S
C2768 C2754 1.377 . S
C2768 C2767 1.373 . S
C2769 C2753 1.377 . S
C2769 C2767 1.389 . S
C2769 C2770 1.524 . S
C2770 C2769 1.524 . S
C2770 C2771 1.397 . S
C2770 C2775 1.363 . S
C2771 H2742 0.950 . S
C2771 C2770 1.397 . S
C2771 C2772 1.334 . S
C2772 H2743 0.950 . S
C2772 C2771 1.334 . S
C2772 C2773 1.287 . S
C2773 C2772 1.287 . S
C2773 C2774 1.524 . S
C2773 H2776 0.999 . S
C2774 H2744 0.950 . S
C2774 C2773 1.524 . S
C2774 C2775 1.415 . S
C2775 H2745 0.950 . S
C2775 C2770 1.363 . S
C2775 C2774 1.415 . S
H2776 C2773 0.999 . S
H2777 C2758 0.913 . S
H2778 C2796 0.951 . S
H2779 C2798 0.951 . S
H2780 C2800 0.950 . S
H2781 C2801 0.950 . S
H2782 C2803 0.950 1_455 S
H2783 C2806 0.950 . S
H2784 C2807 0.950 . S
H2785 C2809 0.950 . S
H2786 C2810 0.950 . S
H2787 C2811 0.951 . S
H2788 C2813 0.952 . S
H2789 C2815 0.950 . S
H2790 C2816 0.950 . S
H2791 C2818 0.950 . S
H2792 C2821 0.950 . S
H2793 C2822 0.950 . S
H2794 C2824 0.950 . S
H2795 C2825 0.950 . S
C2796 H2778 0.951 . S
C2796 C2797 1.366 . S
C2796 C2798 1.388 . S
C2797 C2796 1.366 . S
C2797 C2801 1.385 . S
C2798 H2779 0.951 . S
C2798 C2796 1.388 . S
C2798 C2799 1.366 . S
C2799 C2798 1.366 . S
C2799 C2800 1.414 . S
C2799 C2802 1.499 . S
C2800 H2780 0.950 . S
C2800 C2799 1.414 . S
C2800 C2801 1.374 . S
C2801 H2781 0.950 . S
C2801 C2797 1.385 . S
C2801 C2800 1.374 . S
C2802 C2799 1.499 . S
C2802 C2803 1.373 . S
C2802 C2804 1.389 . S
C2803 H2782 0.950 1_655 S
C2803 C2802 1.373 . S
C2803 C2819 1.370 1_655 S
C2804 C2802 1.389 . S
C2804 C2805 1.524 . S
C2804 C2818 1.377 . S
C2805 C2804 1.524 . S
C2805 C2806 1.397 . S
C2805 C2810 1.363 . S
C2806 H2783 0.950 . S
C2806 C2805 1.397 . S
C2806 C2807 1.334 . S
C2807 H2784 0.950 . S
C2807 C2806 1.334 . S
C2807 C2808 1.287 . S
C2808 C2807 1.287 . S
C2808 C2809 1.524 . S
C2808 H2827 0.913 . S
C2809 H2785 0.950 . S
C2809 C2808 1.524 . S
C2809 C2810 1.415 . S
C2810 H2786 0.950 . S
C2810 C2805 1.363 . S
C2810 C2809 1.415 . S
C2811 H2787 0.951 . S
C2811 C2812 1.366 1_455 S
C2811 C2813 1.389 . S
C2812 C2811 1.366 1_655 S
C2812 C2816 1.385 . S
C2813 H2788 0.952 . S
C2813 C2811 1.389 . S
C2813 C2814 1.363 1_455 S
C2814 C2813 1.363 1_655 S
C2814 C2815 1.414 . S
C2814 C2817 1.499 . S
C2815 H2789 0.950 . S
C2815 C2814 1.414 . S
C2815 C2816 1.374 . S
C2816 H2790 0.950 . S
C2816 C2812 1.385 . S
C2816 C2815 1.374 . S
C2817 C2814 1.499 . S
C2817 C2818 1.373 . S
C2817 C2819 1.355 1_655 S
C2818 H2791 0.950 . S
C2818 C2804 1.377 . S
C2818 C2817 1.373 . S
C2819 C2803 1.370 1_455 S
C2819 C2817 1.355 1_455 S
C2819 C2820 1.570 . S
C2820 C2819 1.570 . S
C2820 C2821 1.397 . S
C2820 C2825 1.363 . S
C2821 H2792 0.950 . S
C2821 C2820 1.397 . S
C2821 C2822 1.334 . S
C2822 H2793 0.950 . S
C2822 C2821 1.334 . S
C2822 C2823 1.287 . S
C2823 C2822 1.287 . S
C2823 C2824 1.524 . S
C2823 H2826 0.999 . S
C2824 H2794 0.950 . S
C2824 C2823 1.524 . S
C2824 C2825 1.415 . S
C2825 H2795 0.950 . S
C2825 C2820 1.363 . S
C2825 C2824 1.415 . S
H2826 C2823 0.999 . S
H2827 C2808 0.913 . S
H2828 C2846 0.951 . S
H2829 C2848 0.951 . S
H2830 C2850 0.950 . S
H2831 C2851 0.950 . S
H2832 C2853 0.950 . S
H2833 C2856 0.950 . S
H2834 C2857 0.950 . S
H2835 C2859 0.950 . S
H2836 C2860 0.950 . S
H2837 C2861 0.951 . S
H2838 C2863 0.951 . S
H2839 C2865 0.950 . S
H2840 C2866 0.950 . S
H2841 C2868 0.950 . S
H2842 C2871 0.950 . S
H2843 C2872 0.950 . S
H2844 C2874 0.950 . S
H2845 C2875 0.950 . S
C2846 H2828 0.951 . S
C2846 C2847 1.366 . S
C2846 C2848 1.388 . S
C2847 C2846 1.366 . S
C2847 C2851 1.385 . S
C2848 H2829 0.951 . S
C2848 C2846 1.388 . S
C2848 C2849 1.366 . S
C2849 C2848 1.366 . S
C2849 C2850 1.414 . S
C2849 C2852 1.499 . S
C2850 H2830 0.950 . S
C2850 C2849 1.414 . S
C2850 C2851 1.374 . S
C2851 H2831 0.950 . S
C2851 C2847 1.385 . S
C2851 C2850 1.374 . S
C2852 C2849 1.499 . S
C2852 C2853 1.373 . S
C2852 C2854 1.389 . S
C2853 H2832 0.950 . S
C2853 C2852 1.373 . S
C2853 C2869 1.377 . S
C2854 C2852 1.389 . S
C2854 C2855 1.524 . S
C2854 C2868 1.377 . S
C2855 C2854 1.524 . S
C2855 C2856 1.397 . S
C2855 C2860 1.363 . S
C2856 H2833 0.950 . S
C2856 C2855 1.397 . S
C2856 C2857 1.334 . S
C2857 H2834 0.950 . S
C2857 C2856 1.334 . S
C2857 C2858 1.287 . S
C2858 C2857 1.287 . S
C2858 C2859 1.524 . S
C2858 H2877 0.913 . S
C2859 H2835 0.950 . S
C2859 C2858 1.524 . S
C2859 C2860 1.415 . S
C2860 H2836 0.950 . S
C2860 C2855 1.363 . S
C2860 C2859 1.415 . S
C2861 H2837 0.951 . S
C2861 C2862 1.366 . S
C2861 C2863 1.388 . S
C2862 C2861 1.366 . S
C2862 C2866 1.385 . S
C2863 H2838 0.951 . S
C2863 C2861 1.388 . S
C2863 C2864 1.366 . S
C2864 C2863 1.366 . S
C2864 C2865 1.414 . S
C2864 C2867 1.499 . S
C2865 H2839 0.950 . S
C2865 C2864 1.414 . S
C2865 C2866 1.374 . S
C2866 H2840 0.950 . S
C2866 C2862 1.385 . S
C2866 C2865 1.374 . S
C2867 C2864 1.499 . S
C2867 C2868 1.373 . S
C2867 C2869 1.389 . S
C2868 H2841 0.950 . S
C2868 C2854 1.377 . S
C2868 C2867 1.373 . S
C2869 C2853 1.377 . S
C2869 C2867 1.389 . S
C2869 C2870 1.524 . S
C2870 C2869 1.524 . S
C2870 C2871 1.397 . S
C2870 C2875 1.363 . S
C2871 H2842 0.950 . S
C2871 C2870 1.397 . S
C2871 C2872 1.334 . S
C2872 H2843 0.950 . S
C2872 C2871 1.334 . S
C2872 C2873 1.287 . S
C2873 C2872 1.287 . S
C2873 C2874 1.524 . S
C2873 H2876 0.999 . S
C2874 H2844 0.950 . S
C2874 C2873 1.524 . S
C2874 C2875 1.415 . S
C2875 H2845 0.950 . S
C2875 C2870 1.363 . S
C2875 C2874 1.415 . S
H2876 C2873 0.999 . S
H2877 C2858 0.913 . S
H2878 C2896 0.951 . S
H2879 C2898 0.951 . S
H2880 C2900 0.950 . S
H2881 C2901 0.950 . S
H2882 C2903 0.950 . S
H2883 C2906 0.950 . S
H2884 C2907 0.950 . S
H2885 C2909 0.950 . S
H2886 C2910 0.950 . S
H2887 C2911 0.951 . S
H2888 C2913 0.943 1_565 S
H2889 C2915 0.950 . S
H2890 C2916 0.950 . S
H2891 C2918 0.950 . S
H2892 C2921 0.950 . S
H2893 C2922 0.950 . S
H2894 C2924 0.973 . S
H2895 C2925 0.950 1_565 S
C2896 H2878 0.951 . S
C2896 C2897 1.366 . S
C2896 C2898 1.388 . S
C2897 C2896 1.366 . S
C2897 C2901 1.385 . S
C2898 H2879 0.951 . S
C2898 C2896 1.388 . S
C2898 C2899 1.366 . S
C2899 C2898 1.366 . S
C2899 C2900 1.414 . S
C2899 C2902 1.499 . S
C2900 H2880 0.950 . S
C2900 C2899 1.414 . S
C2900 C2901 1.374 . S
C2901 H2881 0.950 . S
C2901 C2897 1.385 . S
C2901 C2900 1.374 . S
C2902 C2899 1.499 . S
C2902 C2903 1.373 . S
C2902 C2904 1.389 . S
C2903 H2882 0.950 . S
C2903 C2902 1.373 . S
C2903 C2919 1.377 . S
C2904 C2902 1.389 . S
C2904 C2905 1.524 . S
C2904 C2918 1.377 . S
C2905 C2904 1.524 . S
C2905 C2906 1.397 . S
C2905 C2910 1.363 . S
C2906 H2883 0.950 . S
C2906 C2905 1.397 . S
C2906 C2907 1.334 . S
C2907 H2884 0.950 . S
C2907 C2906 1.334 . S
C2907 C2908 1.287 . S
C2908 C2907 1.287 . S
C2908 C2909 1.524 . S
C2908 H2927 0.913 . S
C2909 H2885 0.950 . S
C2909 C2908 1.524 . S
C2909 C2910 1.415 . S
C2910 H2886 0.950 . S
C2910 C2905 1.363 . S
C2910 C2909 1.415 . S
C2911 H2887 0.951 . S
C2911 C2912 1.366 1_565 S
C2911 C2913 1.382 1_565 S
C2912 C2911 1.366 1_545 S
C2912 C2916 1.385 . S
C2913 H2888 0.943 1_545 S
C2913 C2911 1.382 1_545 S
C2913 C2914 1.380 . S
C2914 C2913 1.380 . S
C2914 C2915 1.414 . S
C2914 C2917 1.499 . S
C2915 H2889 0.950 . S
C2915 C2914 1.414 . S
C2915 C2916 1.374 . S
C2916 H2890 0.950 . S
C2916 C2912 1.385 . S
C2916 C2915 1.374 . S
C2917 C2914 1.499 . S
C2917 C2918 1.373 . S
C2917 C2919 1.389 . S
C2918 H2891 0.950 . S
C2918 C2904 1.377 . S
C2918 C2917 1.373 . S
C2919 C2903 1.377 . S
C2919 C2917 1.389 . S
C2919 C2920 1.524 . S
C2920 C2919 1.524 . S
C2920 C2921 1.397 . S
C2920 C2925 1.363 . S
C2921 H2892 0.950 . S
C2921 C2920 1.397 . S
C2921 C2922 1.334 . S
C2922 H2893 0.950 . S
C2922 C2921 1.334 . S
C2922 C2923 1.287 . S
C2923 C2922 1.287 . S
C2923 C2924 1.481 1_545 S
C2923 H2926 0.999 . S
C2924 H2894 0.973 . S
C2924 C2923 1.481 1_565 S
C2924 C2925 1.437 1_565 S
C2925 H2895 0.950 1_545 S
C2925 C2920 1.363 . S
C2925 C2924 1.437 1_545 S
H2926 C2923 0.999 . S
H2927 C2908 0.913 . S
H2928 C2946 0.951 . S
H2929 C2948 0.951 . S
H2930 C2950 0.950 . S
H2931 C2951 0.950 . S
H2932 C2953 0.950 . S
H2933 C2956 0.950 . S
H2934 C2957 0.950 . S
H2935 C2959 0.950 . S
H2936 C2960 0.950 . S
H2937 C2961 0.951 . S
H2938 C2963 0.951 . S
H2939 C2965 0.950 . S
H2940 C2966 0.950 . S
H2941 C2968 0.950 . S
H2942 C2971 0.950 . S
H2943 C2972 0.950 . S
H2944 C2974 0.950 . S
H2945 C2975 0.950 . S
C2946 H2928 0.951 . S
C2946 C2947 1.366 . S
C2946 C2948 1.388 . S
C2947 C2946 1.366 . S
C2947 C2951 1.385 . S
C2948 H2929 0.951 . S
C2948 C2946 1.388 . S
C2948 C2949 1.366 . S
C2949 C2948 1.366 . S
C2949 C2950 1.414 . S
C2949 C2952 1.499 . S
C2950 H2930 0.950 . S
C2950 C2949 1.414 . S
C2950 C2951 1.374 . S
C2951 H2931 0.950 . S
C2951 C2947 1.385 . S
C2951 C2950 1.374 . S
C2952 C2949 1.499 . S
C2952 C2953 1.373 . S
C2952 C2954 1.389 . S
C2953 H2932 0.950 . S
C2953 C2952 1.373 . S
C2953 C2969 1.377 . S
C2954 C2952 1.389 . S
C2954 C2955 1.524 . S
C2954 C2968 1.377 . S
C2955 C2954 1.524 . S
C2955 C2956 1.397 . S
C2955 C2960 1.363 . S
C2956 H2933 0.950 . S
C2956 C2955 1.397 . S
C2956 C2957 1.334 . S
C2957 H2934 0.950 . S
C2957 C2956 1.334 . S
C2957 C2958 1.287 . S
C2958 C2957 1.287 . S
C2958 C2959 1.524 . S
C2958 H2977 0.913 . S
C2959 H2935 0.950 . S
C2959 C2958 1.524 . S
C2959 C2960 1.415 . S
C2960 H2936 0.950 . S
C2960 C2955 1.363 . S
C2960 C2959 1.415 . S
C2961 H2937 0.951 . S
C2961 C2962 1.366 . S
C2961 C2963 1.388 . S
C2962 C2961 1.366 . S
C2962 C2966 1.385 . S
C2963 H2938 0.951 . S
C2963 C2961 1.388 . S
C2963 C2964 1.366 . S
C2964 C2963 1.366 . S
C2964 C2965 1.414 . S
C2964 C2967 1.499 . S
C2965 H2939 0.950 . S
C2965 C2964 1.414 . S
C2965 C2966 1.374 . S
C2966 H2940 0.950 . S
C2966 C2962 1.385 . S
C2966 C2965 1.374 . S
C2967 C2964 1.499 . S
C2967 C2968 1.373 . S
C2967 C2969 1.389 . S
C2968 H2941 0.950 . S
C2968 C2954 1.377 . S
C2968 C2967 1.373 . S
C2969 C2953 1.377 . S
C2969 C2967 1.389 . S
C2969 C2970 1.524 . S
C2970 C2969 1.524 . S
C2970 C2971 1.397 . S
C2970 C2975 1.363 . S
C2971 H2942 0.950 . S
C2971 C2970 1.397 . S
C2971 C2972 1.334 . S
C2972 H2943 0.950 . S
C2972 C2971 1.334 . S
C2972 C2973 1.287 . S
C2973 C2972 1.287 . S
C2973 C2974 1.524 . S
C2973 H2976 0.999 . S
C2974 H2944 0.950 . S
C2974 C2973 1.524 . S
C2974 C2975 1.415 . S
C2975 H2945 0.950 . S
C2975 C2970 1.363 . S
C2975 C2974 1.415 . S
H2976 C2973 0.999 . S
H2977 C2958 0.913 . S
H2978 C2996 0.951 . S
H2979 C2998 0.951 . S
H2980 C3000 0.950 . S
H2981 C3001 0.950 . S
H2982 C3003 0.950 . S
H2983 C3006 0.950 . S
H2984 C3007 0.950 . S
H2985 C3009 0.950 . S
H2986 C3010 0.950 . S
H2987 C3011 0.951 . S
H2988 C3013 0.951 . S
H2989 C3015 0.950 . S
H2990 C3016 0.950 . S
H2991 C3018 0.950 . S
H2992 C3021 0.950 . S
H2993 C3022 0.950 . S
H2994 C3024 0.950 . S
H2995 C3025 0.950 . S
C2996 H2978 0.951 . S
C2996 C2997 1.366 . S
C2996 C2998 1.388 . S
C2997 C2996 1.366 . S
C2997 C3001 1.385 . S
C2998 H2979 0.951 . S
C2998 C2996 1.388 . S
C2998 C2999 1.366 . S
C2999 C2998 1.366 . S
C2999 C3000 1.414 . S
C2999 C3002 1.499 . S
C3000 H2980 0.950 . S
C3000 C2999 1.414 . S
C3000 C3001 1.374 . S
C3001 H2981 0.950 . S
C3001 C2997 1.385 . S
C3001 C3000 1.374 . S
C3002 C2999 1.499 . S
C3002 C3003 1.373 . S
C3002 C3004 1.389 . S
C3003 H2982 0.950 . S
C3003 C3002 1.373 . S
C3003 C3019 1.377 . S
C3004 C3002 1.389 . S
C3004 C3005 1.524 . S
C3004 C3018 1.377 . S
C3005 C3004 1.524 . S
C3005 C3006 1.397 . S
C3005 C3010 1.363 . S
C3006 H2983 0.950 . S
C3006 C3005 1.397 . S
C3006 C3007 1.334 . S
C3007 H2984 0.950 . S
C3007 C3006 1.334 . S
C3007 C3008 1.287 . S
C3008 C3007 1.287 . S
C3008 C3009 1.524 . S
C3008 H3027 0.913 . S
C3009 H2985 0.950 . S
C3009 C3008 1.524 . S
C3009 C3010 1.415 . S
C3010 H2986 0.950 . S
C3010 C3005 1.363 . S
C3010 C3009 1.415 . S
C3011 H2987 0.951 . S
C3011 C3012 1.366 . S
C3011 C3013 1.388 . S
C3012 C3011 1.366 . S
C3012 C3016 1.385 . S
C3013 H2988 0.951 . S
C3013 C3011 1.388 . S
C3013 C3014 1.366 . S
C3014 C3013 1.366 . S
C3014 C3015 1.414 . S
C3014 C3017 1.499 . S
C3015 H2989 0.950 . S
C3015 C3014 1.414 . S
C3015 C3016 1.374 . S
C3016 H2990 0.950 . S
C3016 C3012 1.385 . S
C3016 C3015 1.374 . S
C3017 C3014 1.499 . S
C3017 C3018 1.373 . S
C3017 C3019 1.389 . S
C3018 H2991 0.950 . S
C3018 C3004 1.377 . S
C3018 C3017 1.373 . S
C3019 C3003 1.377 . S
C3019 C3017 1.389 . S
C3019 C3020 1.524 . S
C3020 C3019 1.524 . S
C3020 C3021 1.397 . S
C3020 C3025 1.363 . S
C3021 H2992 0.950 . S
C3021 C3020 1.397 . S
C3021 C3022 1.334 . S
C3022 H2993 0.950 . S
C3022 C3021 1.334 . S
C3022 C3023 1.287 . S
C3023 C3022 1.287 . S
C3023 C3024 1.524 . S
C3023 H3026 0.999 . S
C3024 H2994 0.950 . S
C3024 C3023 1.524 . S
C3024 C3025 1.415 . S
C3025 H2995 0.950 . S
C3025 C3020 1.363 . S
C3025 C3024 1.415 . S
H3026 C3023 0.999 . S
H3027 C3008 0.913 . S
H3028 C3046 0.951 . S
H3029 C3048 0.951 . S
H3030 C3050 0.950 . S
H3031 C3051 0.950 . S
H3032 C3053 0.950 . S
H3033 C3056 0.950 . S
H3034 C3057 0.950 . S
H3035 C3059 0.950 . S
H3036 C3060 0.950 . S
H3037 C3061 0.951 . S
H3038 C3063 0.951 . S
H3039 C3065 0.950 . S
H3040 C3066 0.950 . S
H3041 C3068 0.950 . S
H3042 C3071 0.950 . S
H3043 C3072 0.950 . S
H3044 C3074 0.950 . S
H3045 C3075 0.950 . S
C3046 H3028 0.951 . S
C3046 C3047 1.366 . S
C3046 C3048 1.388 . S
C3047 C3046 1.366 . S
C3047 C3051 1.385 . S
C3048 H3029 0.951 . S
C3048 C3046 1.388 . S
C3048 C3049 1.366 . S
C3049 C3048 1.366 . S
C3049 C3050 1.414 . S
C3049 C3052 1.499 . S
C3050 H3030 0.950 . S
C3050 C3049 1.414 . S
C3050 C3051 1.374 . S
C3051 H3031 0.950 . S
C3051 C3047 1.385 . S
C3051 C3050 1.374 . S
C3052 C3049 1.499 . S
C3052 C3053 1.373 . S
C3052 C3054 1.389 . S
C3053 H3032 0.950 . S
C3053 C3052 1.373 . S
C3053 C3069 1.377 . S
C3054 C3052 1.389 . S
C3054 C3055 1.524 . S
C3054 C3068 1.377 . S
C3055 C3054 1.524 . S
C3055 C3056 1.397 . S
C3055 C3060 1.363 . S
C3056 H3033 0.950 . S
C3056 C3055 1.397 . S
C3056 C3057 1.334 . S
C3057 H3034 0.950 . S
C3057 C3056 1.334 . S
C3057 C3058 1.287 . S
C3058 C3057 1.287 . S
C3058 C3059 1.524 . S
C3058 H3077 0.913 . S
C3059 H3035 0.950 . S
C3059 C3058 1.524 . S
C3059 C3060 1.415 . S
C3060 H3036 0.950 . S
C3060 C3055 1.363 . S
C3060 C3059 1.415 . S
C3061 H3037 0.951 . S
C3061 C3062 1.366 . S
C3061 C3063 1.388 . S
C3062 C3061 1.366 . S
C3062 C3066 1.385 . S
C3063 H3038 0.951 . S
C3063 C3061 1.388 . S
C3063 C3064 1.366 . S
C3064 C3063 1.366 . S
C3064 C3065 1.414 . S
C3064 C3067 1.499 . S
C3065 H3039 0.950 . S
C3065 C3064 1.414 . S
C3065 C3066 1.374 . S
C3066 H3040 0.950 . S
C3066 C3062 1.385 . S
C3066 C3065 1.374 . S
C3067 C3064 1.499 . S
C3067 C3068 1.373 . S
C3067 C3069 1.389 . S
C3068 H3041 0.950 . S
C3068 C3054 1.377 . S
C3068 C3067 1.373 . S
C3069 C3053 1.377 . S
C3069 C3067 1.389 . S
C3069 C3070 1.524 . S
C3070 C3069 1.524 . S
C3070 C3071 1.397 . S
C3070 C3075 1.363 . S
C3071 H3042 0.950 . S
C3071 C3070 1.397 . S
C3071 C3072 1.334 . S
C3072 H3043 0.950 . S
C3072 C3071 1.334 . S
C3072 C3073 1.287 . S
C3073 C3072 1.287 . S
C3073 C3074 1.524 . S
C3073 H3076 0.999 . S
C3074 H3044 0.950 . S
C3074 C3073 1.524 . S
C3074 C3075 1.415 . S
C3075 H3045 0.950 . S
C3075 C3070 1.363 . S
C3075 C3074 1.415 . S
H3076 C3073 0.999 . S
H3077 C3058 0.913 . S
H3078 C3096 0.951 . S
H3079 C3098 0.951 . S
H3080 C3100 0.950 . S
H3081 C3101 0.950 . S
H3082 C3103 0.950 . S
H3083 C3106 0.950 . S
H3084 C3107 0.950 . S
H3085 C3109 0.950 . S
H3086 C3110 0.950 . S
H3087 C3111 0.951 . S
H3088 C3113 0.951 . S
H3089 C3115 0.950 . S
H3090 C3116 0.950 . S
H3091 C3118 0.950 . S
H3092 C3121 0.950 . S
H3093 C3122 0.950 . S
H3094 C3124 0.950 . S
H3095 C3125 0.950 . S
C3096 H3078 0.951 . S
C3096 C3097 1.366 . S
C3096 C3098 1.388 . S
C3097 C3096 1.366 . S
C3097 C3101 1.385 . S
C3098 H3079 0.951 . S
C3098 C3096 1.388 . S
C3098 C3099 1.366 . S
C3099 C3098 1.366 . S
C3099 C3100 1.414 . S
C3099 C3102 1.499 . S
C3100 H3080 0.950 . S
C3100 C3099 1.414 . S
C3100 C3101 1.374 . S
C3101 H3081 0.950 . S
C3101 C3097 1.385 . S
C3101 C3100 1.374 . S
C3102 C3099 1.499 . S
C3102 C3103 1.373 . S
C3102 C3104 1.389 . S
C3103 H3082 0.950 . S
C3103 C3102 1.373 . S
C3103 C3119 1.377 . S
C3104 C3102 1.389 . S
C3104 C3105 1.524 . S
C3104 C3118 1.377 . S
C3105 C3104 1.524 . S
C3105 C3106 1.397 . S
C3105 C3110 1.363 . S
C3106 H3083 0.950 . S
C3106 C3105 1.397 . S
C3106 C3107 1.334 . S
C3107 H3084 0.950 . S
C3107 C3106 1.334 . S
C3107 C3108 1.287 . S
C3108 C3107 1.287 . S
C3108 C3109 1.524 . S
C3108 H3127 0.913 . S
C3109 H3085 0.950 . S
C3109 C3108 1.524 . S
C3109 C3110 1.415 . S
C3110 H3086 0.950 . S
C3110 C3105 1.363 . S
C3110 C3109 1.415 . S
C3111 H3087 0.951 . S
C3111 C3112 1.366 . S
C3111 C3113 1.388 . S
C3112 C3111 1.366 . S
C3112 C3116 1.385 . S
C3113 H3088 0.951 . S
C3113 C3111 1.388 . S
C3113 C3114 1.366 . S
C3114 C3113 1.366 . S
C3114 C3115 1.414 . S
C3114 C3117 1.499 . S
C3115 H3089 0.950 . S
C3115 C3114 1.414 . S
C3115 C3116 1.374 . S
C3116 H3090 0.950 . S
C3116 C3112 1.385 . S
C3116 C3115 1.374 . S
C3117 C3114 1.499 . S
C3117 C3118 1.373 . S
C3117 C3119 1.389 . S
C3118 H3091 0.950 . S
C3118 C3104 1.377 . S
C3118 C3117 1.373 . S
C3119 C3103 1.377 . S
C3119 C3117 1.389 . S
C3119 C3120 1.524 . S
C3120 C3119 1.524 . S
C3120 C3121 1.397 . S
C3120 C3125 1.363 . S
C3121 H3092 0.950 . S
C3121 C3120 1.397 . S
C3121 C3122 1.334 . S
C3122 H3093 0.950 . S
C3122 C3121 1.334 . S
C3122 C3123 1.287 . S
C3123 C3122 1.287 . S
C3123 C3124 1.524 . S
C3123 H3126 0.999 . S
C3124 H3094 0.950 . S
C3124 C3123 1.524 . S
C3124 C3125 1.415 . S
C3125 H3095 0.950 . S
C3125 C3120 1.363 . S
C3125 C3124 1.415 . S
H3126 C3123 0.999 . S
H3127 C3108 0.913 . S
H3128 C3146 0.951 . S
H3129 C3148 0.951 . S
H3130 C3150 0.950 . S
H3131 C3151 0.950 . S
H3132 C3153 0.950 . S
H3133 C3156 0.950 . S
H3134 C3157 0.950 . S
H3135 C3159 0.950 . S
H3136 C3160 0.950 . S
H3137 C3161 0.951 . S
H3138 C3163 0.951 . S
H3139 C3165 0.950 . S
H3140 C3166 0.950 . S
H3141 C3168 0.950 . S
H3142 C3171 0.950 . S
H3143 C3172 0.950 . S
H3144 C3174 0.950 . S
H3145 C3175 0.950 . S
C3146 H3128 0.951 . S
C3146 C3147 1.366 . S
C3146 C3148 1.388 . S
C3147 C3146 1.366 . S
C3147 C3151 1.385 . S
C3148 H3129 0.951 . S
C3148 C3146 1.388 . S
C3148 C3149 1.366 . S
C3149 C3148 1.366 . S
C3149 C3150 1.414 . S
C3149 C3152 1.499 . S
C3150 H3130 0.950 . S
C3150 C3149 1.414 . S
C3150 C3151 1.374 . S
C3151 H3131 0.950 . S
C3151 C3147 1.385 . S
C3151 C3150 1.374 . S
C3152 C3149 1.499 . S
C3152 C3153 1.373 . S
C3152 C3154 1.389 . S
C3153 H3132 0.950 . S
C3153 C3152 1.373 . S
C3153 C3169 1.377 . S
C3154 C3152 1.389 . S
C3154 C3155 1.524 . S
C3154 C3168 1.377 . S
C3155 C3154 1.524 . S
C3155 C3156 1.397 . S
C3155 C3160 1.363 . S
C3156 H3133 0.950 . S
C3156 C3155 1.397 . S
C3156 C3157 1.334 . S
C3157 H3134 0.950 . S
C3157 C3156 1.334 . S
C3157 C3158 1.287 . S
C3158 C3157 1.287 . S
C3158 C3159 1.524 . S
C3158 H3177 0.913 . S
C3159 H3135 0.950 . S
C3159 C3158 1.524 . S
C3159 C3160 1.415 . S
C3160 H3136 0.950 . S
C3160 C3155 1.363 . S
C3160 C3159 1.415 . S
C3161 H3137 0.951 . S
C3161 C3162 1.366 . S
C3161 C3163 1.388 . S
C3162 C3161 1.366 . S
C3162 C3166 1.385 . S
C3163 H3138 0.951 . S
C3163 C3161 1.388 . S
C3163 C3164 1.366 . S
C3164 C3163 1.366 . S
C3164 C3165 1.414 . S
C3164 C3167 1.499 . S
C3165 H3139 0.950 . S
C3165 C3164 1.414 . S
C3165 C3166 1.374 . S
C3166 H3140 0.950 . S
C3166 C3162 1.385 . S
C3166 C3165 1.374 . S
C3167 C3164 1.499 . S
C3167 C3168 1.373 . S
C3167 C3169 1.389 . S
C3168 H3141 0.950 . S
C3168 C3154 1.377 . S
C3168 C3167 1.373 . S
C3169 C3153 1.377 . S
C3169 C3167 1.389 . S
C3169 C3170 1.524 . S
C3170 C3169 1.524 . S
C3170 C3171 1.397 . S
C3170 C3175 1.363 . S
C3171 H3142 0.950 . S
C3171 C3170 1.397 . S
C3171 C3172 1.334 . S
C3172 H3143 0.950 . S
C3172 C3171 1.334 . S
C3172 C3173 1.287 . S
C3173 C3172 1.287 . S
C3173 C3174 1.524 . S
C3173 H3176 0.999 . S
C3174 H3144 0.950 . S
C3174 C3173 1.524 . S
C3174 C3175 1.415 . S
C3175 H3145 0.950 . S
C3175 C3170 1.363 . S
C3175 C3174 1.415 . S
H3176 C3173 0.999 . S
H3177 C3158 0.913 . S
H3178 C3196 0.951 . S
H3179 C3198 0.951 . S
H3180 C3200 0.950 . S
H3181 C3201 0.950 . S
H3182 C3203 0.950 . S
H3183 C3206 0.950 . S
H3184 C3207 0.950 . S
H3185 C3209 0.950 . S
H3186 C3210 0.950 . S
H3187 C3211 0.951 . S
H3188 C3213 0.951 . S
H3189 C3215 0.950 . S
H3190 C3216 0.950 . S
H3191 C3218 0.950 . S
H3192 C3221 0.950 . S
H3193 C3222 0.950 . S
H3194 C3224 0.950 . S
H3195 C3225 0.950 . S
C3196 H3178 0.951 . S
C3196 C3197 1.366 . S
C3196 C3198 1.388 . S
C3197 C3196 1.366 . S
C3197 C3201 1.385 . S
C3198 H3179 0.951 . S
C3198 C3196 1.388 . S
C3198 C3199 1.366 . S
C3199 C3198 1.366 . S
C3199 C3200 1.414 . S
C3199 C3202 1.499 . S
C3200 H3180 0.950 . S
C3200 C3199 1.414 . S
C3200 C3201 1.374 . S
C3201 H3181 0.950 . S
C3201 C3197 1.385 . S
C3201 C3200 1.374 . S
C3202 C3199 1.499 . S
C3202 C3203 1.373 . S
C3202 C3204 1.389 . S
C3203 H3182 0.950 . S
C3203 C3202 1.373 . S
C3203 C3219 1.377 . S
C3204 C3202 1.389 . S
C3204 C3205 1.524 . S
C3204 C3218 1.377 . S
C3205 C3204 1.524 . S
C3205 C3206 1.397 . S
C3205 C3210 1.363 . S
C3206 H3183 0.950 . S
C3206 C3205 1.397 . S
C3206 C3207 1.334 . S
C3207 H3184 0.950 . S
C3207 C3206 1.334 . S
C3207 C3208 1.287 . S
C3208 C3207 1.287 . S
C3208 C3209 1.524 . S
C3208 H3227 0.913 . S
C3209 H3185 0.950 . S
C3209 C3208 1.524 . S
C3209 C3210 1.415 . S
C3210 H3186 0.950 . S
C3210 C3205 1.363 . S
C3210 C3209 1.415 . S
C3211 H3187 0.951 . S
C3211 C3212 1.366 . S
C3211 C3213 1.388 . S
C3212 C3211 1.366 . S
C3212 C3216 1.385 . S
C3213 H3188 0.951 . S
C3213 C3211 1.388 . S
C3213 C3214 1.366 . S
C3214 C3213 1.366 . S
C3214 C3215 1.414 . S
C3214 C3217 1.499 . S
C3215 H3189 0.950 . S
C3215 C3214 1.414 . S
C3215 C3216 1.374 . S
C3216 H3190 0.950 . S
C3216 C3212 1.385 . S
C3216 C3215 1.374 . S
C3217 C3214 1.499 . S
C3217 C3218 1.373 . S
C3217 C3219 1.389 . S
C3218 H3191 0.950 . S
C3218 C3204 1.377 . S
C3218 C3217 1.373 . S
C3219 C3203 1.377 . S
C3219 C3217 1.389 . S
C3219 C3220 1.524 . S
C3220 C3219 1.524 . S
C3220 C3221 1.397 . S
C3220 C3225 1.363 . S
C3221 H3192 0.950 . S
C3221 C3220 1.397 . S
C3221 C3222 1.334 . S
C3222 H3193 0.950 . S
C3222 C3221 1.334 . S
C3222 C3223 1.287 . S
C3223 C3222 1.287 . S
C3223 C3224 1.524 . S
C3223 H3226 0.999 . S
C3224 H3194 0.950 . S
C3224 C3223 1.524 . S
C3224 C3225 1.415 . S
C3225 H3195 0.950 . S
C3225 C3220 1.363 . S
C3225 C3224 1.415 . S
H3226 C3223 0.999 . S
H3227 C3208 0.913 . S
H3228 C3246 0.951 . S
H3229 C3248 0.951 . S
H3230 C3250 0.950 . S
H3231 C3251 0.950 . S
H3232 C3253 0.950 . S
H3233 C3256 0.950 . S
H3234 C3257 0.950 . S
H3235 C3259 0.950 . S
H3236 C3260 0.950 . S
H3237 C3261 0.951 . S
H3238 C3263 0.951 . S
H3239 C3265 0.950 . S
H3240 C3266 0.950 . S
H3241 C3268 0.950 . S
H3242 C3271 0.950 . S
H3243 C3272 0.950 . S
H3244 C3274 0.950 . S
H3245 C3275 0.950 . S
C3246 H3228 0.951 . S
C3246 C3247 1.366 . S
C3246 C3248 1.388 . S
C3247 C3246 1.366 . S
C3247 C3251 1.385 . S
C3248 H3229 0.951 . S
C3248 C3246 1.388 . S
C3248 C3249 1.366 . S
C3249 C3248 1.366 . S
C3249 C3250 1.414 . S
C3249 C3252 1.499 . S
C3250 H3230 0.950 . S
C3250 C3249 1.414 . S
C3250 C3251 1.374 . S
C3251 H3231 0.950 . S
C3251 C3247 1.385 . S
C3251 C3250 1.374 . S
C3252 C3249 1.499 . S
C3252 C3253 1.373 . S
C3252 C3254 1.389 . S
C3253 H3232 0.950 . S
C3253 C3252 1.373 . S
C3253 C3269 1.377 . S
C3254 C3252 1.389 . S
C3254 C3255 1.524 . S
C3254 C3268 1.377 . S
C3255 C3254 1.524 . S
C3255 C3256 1.397 . S
C3255 C3260 1.363 . S
C3256 H3233 0.950 . S
C3256 C3255 1.397 . S
C3256 C3257 1.334 . S
C3257 H3234 0.950 . S
C3257 C3256 1.334 . S
C3257 C3258 1.287 . S
C3258 C3257 1.287 . S
C3258 C3259 1.524 . S
C3258 H3277 0.913 . S
C3259 H3235 0.950 . S
C3259 C3258 1.524 . S
C3259 C3260 1.415 . S
C3260 H3236 0.950 . S
C3260 C3255 1.363 . S
C3260 C3259 1.415 . S
C3261 H3237 0.951 . S
C3261 C3262 1.366 . S
C3261 C3263 1.388 . S
C3262 C3261 1.366 . S
C3262 C3266 1.385 . S
C3263 H3238 0.951 . S
C3263 C3261 1.388 . S
C3263 C3264 1.366 . S
C3264 C3263 1.366 . S
C3264 C3265 1.414 . S
C3264 C3267 1.499 . S
C3265 H3239 0.950 . S
C3265 C3264 1.414 . S
C3265 C3266 1.374 . S
C3266 H3240 0.950 . S
C3266 C3262 1.385 . S
C3266 C3265 1.374 . S
C3267 C3264 1.499 . S
C3267 C3268 1.373 . S
C3267 C3269 1.389 . S
C3268 H3241 0.950 . S
C3268 C3254 1.377 . S
C3268 C3267 1.373 . S
C3269 C3253 1.377 . S
C3269 C3267 1.389 . S
C3269 C3270 1.524 . S
C3270 C3269 1.524 . S
C3270 C3271 1.397 . S
C3270 C3275 1.363 . S
C3271 H3242 0.950 . S
C3271 C3270 1.397 . S
C3271 C3272 1.334 . S
C3272 H3243 0.950 . S
C3272 C3271 1.334 . S
C3272 C3273 1.287 . S
C3273 C3272 1.287 . S
C3273 C3274 1.524 . S
C3273 H3276 0.999 . S
C3274 H3244 0.950 . S
C3274 C3273 1.524 . S
C3274 C3275 1.415 . S
C3275 H3245 0.950 . S
C3275 C3270 1.363 . S
C3275 C3274 1.415 . S
H3276 C3273 0.999 . S
H3277 C3258 0.913 . S
H3278 C3296 0.951 . S
H3279 C3298 0.951 . S
H3280 C3300 0.950 . S
H3281 C3301 0.950 . S
H3282 C3303 0.950 . S
H3283 C3306 0.950 . S
H3284 C3307 0.950 . S
H3285 C3309 0.950 . S
H3286 C3310 0.950 . S
H3287 C3311 0.951 . S
H3288 C3313 0.951 . S
H3289 C3315 0.950 . S
H3290 C3316 0.950 . S
H3291 C3318 0.950 . S
H3292 C3321 0.950 . S
H3293 C3322 0.950 . S
H3294 C3324 0.950 . S
H3295 C3325 0.950 . S
C3296 H3278 0.951 . S
C3296 C3297 1.366 . S
C3296 C3298 1.388 . S
C3297 C3296 1.366 . S
C3297 C3301 1.385 . S
C3298 H3279 0.951 . S
C3298 C3296 1.388 . S
C3298 C3299 1.366 . S
C3299 C3298 1.366 . S
C3299 C3300 1.414 . S
C3299 C3302 1.499 . S
C3300 H3280 0.950 . S
C3300 C3299 1.414 . S
C3300 C3301 1.374 . S
C3301 H3281 0.950 . S
C3301 C3297 1.385 . S
C3301 C3300 1.374 . S
C3302 C3299 1.499 . S
C3302 C3303 1.373 . S
C3302 C3304 1.389 . S
C3303 H3282 0.950 . S
C3303 C3302 1.373 . S
C3303 C3319 1.377 . S
C3304 C3302 1.389 . S
C3304 C3305 1.524 . S
C3304 C3318 1.377 . S
C3305 C3304 1.524 . S
C3305 C3306 1.397 . S
C3305 C3310 1.363 . S
C3306 H3283 0.950 . S
C3306 C3305 1.397 . S
C3306 C3307 1.334 . S
C3307 H3284 0.950 . S
C3307 C3306 1.334 . S
C3307 C3308 1.287 . S
C3308 C3307 1.287 . S
C3308 C3309 1.524 . S
C3308 H3327 0.913 . S
C3309 H3285 0.950 . S
C3309 C3308 1.524 . S
C3309 C3310 1.415 . S
C3310 H3286 0.950 . S
C3310 C3305 1.363 . S
C3310 C3309 1.415 . S
C3311 H3287 0.951 . S
C3311 C3312 1.366 . S
C3311 C3313 1.388 . S
C3312 C3311 1.366 . S
C3312 C3316 1.385 . S
C3313 H3288 0.951 . S
C3313 C3311 1.388 . S
C3313 C3314 1.366 . S
C3314 C3313 1.366 . S
C3314 C3315 1.414 . S
C3314 C3317 1.499 . S
C3315 H3289 0.950 . S
C3315 C3314 1.414 . S
C3315 C3316 1.374 . S
C3316 H3290 0.950 . S
C3316 C3312 1.385 . S
C3316 C3315 1.374 . S
C3317 C3314 1.499 . S
C3317 C3318 1.373 . S
C3317 C3319 1.389 . S
C3318 H3291 0.950 . S
C3318 C3304 1.377 . S
C3318 C3317 1.373 . S
C3319 C3303 1.377 . S
C3319 C3317 1.389 . S
C3319 C3320 1.524 . S
C3320 C3319 1.524 . S
C3320 C3321 1.397 . S
C3320 C3325 1.363 . S
C3321 H3292 0.950 . S
C3321 C3320 1.397 . S
C3321 C3322 1.334 . S
C3322 H3293 0.950 . S
C3322 C3321 1.334 . S
C3322 C3323 1.287 . S
C3323 C3322 1.287 . S
C3323 C3324 1.524 . S
C3323 H3326 0.999 . S
C3324 H3294 0.950 . S
C3324 C3323 1.524 . S
C3324 C3325 1.415 . S
C3325 H3295 0.950 . S
C3325 C3320 1.363 . S
C3325 C3324 1.415 . S
H3326 C3323 0.999 . S
H3327 C3308 0.913 . S
H3328 C3346 0.951 . S
H3329 C3348 0.951 . S
H3330 C3350 0.950 . S
H3331 C3351 0.950 . S
H3332 C3353 0.950 . S
H3333 C3356 0.950 . S
H3334 C3357 0.950 . S
H3335 C3359 0.950 . S
H3336 C3360 0.950 . S
H3337 C3361 0.951 . S
H3338 C3363 0.951 . S
H3339 C3365 0.950 . S
H3340 C3366 0.950 . S
H3341 C3368 0.950 . S
H3342 C3371 0.950 . S
H3343 C3372 0.950 . S
H3344 C3374 0.950 . S
H3345 C3375 0.950 . S
C3346 H3328 0.951 . S
C3346 C3347 1.366 . S
C3346 C3348 1.388 . S
C3347 C3346 1.366 . S
C3347 C3351 1.385 . S
C3348 H3329 0.951 . S
C3348 C3346 1.388 . S
C3348 C3349 1.366 . S
C3349 C3348 1.366 . S
C3349 C3350 1.414 . S
C3349 C3352 1.499 . S
C3350 H3330 0.950 . S
C3350 C3349 1.414 . S
C3350 C3351 1.374 . S
C3351 H3331 0.950 . S
C3351 C3347 1.385 . S
C3351 C3350 1.374 . S
C3352 C3349 1.499 . S
C3352 C3353 1.373 . S
C3352 C3354 1.389 . S
C3353 H3332 0.950 . S
C3353 C3352 1.373 . S
C3353 C3369 1.377 . S
C3354 C3352 1.389 . S
C3354 C3355 1.524 . S
C3354 C3368 1.377 . S
C3355 C3354 1.524 . S
C3355 C3356 1.397 . S
C3355 C3360 1.363 . S
C3356 H3333 0.950 . S
C3356 C3355 1.397 . S
C3356 C3357 1.334 . S
C3357 H3334 0.950 . S
C3357 C3356 1.334 . S
C3357 C3358 1.287 . S
C3358 C3357 1.287 . S
C3358 C3359 1.524 . S
C3358 H3377 0.913 . S
C3359 H3335 0.950 . S
C3359 C3358 1.524 . S
C3359 C3360 1.415 . S
C3360 H3336 0.950 . S
C3360 C3355 1.363 . S
C3360 C3359 1.415 . S
C3361 H3337 0.951 . S
C3361 C3362 1.366 . S
C3361 C3363 1.388 . S
C3362 C3361 1.366 . S
C3362 C3366 1.385 . S
C3363 H3338 0.951 . S
C3363 C3361 1.388 . S
C3363 C3364 1.366 . S
C3364 C3363 1.366 . S
C3364 C3365 1.414 . S
C3364 C3367 1.499 . S
C3365 H3339 0.950 . S
C3365 C3364 1.414 . S
C3365 C3366 1.374 . S
C3366 H3340 0.950 . S
C3366 C3362 1.385 . S
C3366 C3365 1.374 . S
C3367 C3364 1.499 . S
C3367 C3368 1.373 . S
C3367 C3369 1.389 . S
C3368 H3341 0.950 . S
C3368 C3354 1.377 . S
C3368 C3367 1.373 . S
C3369 C3353 1.377 . S
C3369 C3367 1.389 . S
C3369 C3370 1.524 . S
C3370 C3369 1.524 . S
C3370 C3371 1.397 . S
C3370 C3375 1.363 . S
C3371 H3342 0.950 . S
C3371 C3370 1.397 . S
C3371 C3372 1.334 . S
C3372 H3343 0.950 . S
C3372 C3371 1.334 . S
C3372 C3373 1.287 . S
C3373 C3372 1.287 . S
C3373 C3374 1.524 . S
C3373 H3376 0.999 . S
C3374 H3344 0.950 . S
C3374 C3373 1.524 . S
C3374 C3375 1.415 . S
C3375 H3345 0.950 . S
C3375 C3370 1.363 . S
C3375 C3374 1.415 . S
H3376 C3373 0.999 . S
H3377 C3358 0.913 . S
H3378 C3396 0.951 . S
H3379 C3398 0.951 . S
H3380 C3400 0.950 . S
H3381 C3401 0.950 . S
H3382 C3403 0.950 . S
H3383 C3406 0.950 . S
H3384 C3407 0.950 . S
H3385 C3409 0.950 . S
H3386 C3410 0.950 . S
H3387 C3411 0.951 . S
H3388 C3413 0.951 . S
H3389 C3415 0.950 . S
H3390 C3416 0.950 . S
H3391 C3418 0.950 . S
H3392 C3421 0.950 . S
H3393 C3422 0.950 . S
H3394 C3424 0.950 . S
H3395 C3425 0.950 . S
C3396 H3378 0.951 . S
C3396 C3397 1.366 . S
C3396 C3398 1.388 . S
C3397 C3396 1.366 . S
C3397 C3401 1.385 . S
C3398 H3379 0.951 . S
C3398 C3396 1.388 . S
C3398 C3399 1.366 . S
C3399 C3398 1.366 . S
C3399 C3400 1.414 . S
C3399 C3402 1.499 . S
C3400 H3380 0.950 . S
C3400 C3399 1.414 . S
C3400 C3401 1.374 . S
C3401 H3381 0.950 . S
C3401 C3397 1.385 . S
C3401 C3400 1.374 . S
C3402 C3399 1.499 . S
C3402 C3403 1.373 . S
C3402 C3404 1.389 . S
C3403 H3382 0.950 . S
C3403 C3402 1.373 . S
C3403 C3419 1.377 . S
C3404 C3402 1.389 . S
C3404 C3405 1.524 . S
C3404 C3418 1.377 . S
C3405 C3404 1.524 . S
C3405 C3406 1.397 . S
C3405 C3410 1.363 . S
C3406 H3383 0.950 . S
C3406 C3405 1.397 . S
C3406 C3407 1.334 . S
C3407 H3384 0.950 . S
C3407 C3406 1.334 . S
C3407 C3408 1.287 . S
C3408 C3407 1.287 . S
C3408 C3409 1.524 . S
C3408 H3427 0.913 . S
C3409 H3385 0.950 . S
C3409 C3408 1.524 . S
C3409 C3410 1.415 . S
C3410 H3386 0.950 . S
C3410 C3405 1.363 . S
C3410 C3409 1.415 . S
C3411 H3387 0.951 . S
C3411 C3412 1.366 . S
C3411 C3413 1.388 . S
C3412 C3411 1.366 . S
C3412 C3416 1.385 . S
C3413 H3388 0.951 . S
C3413 C3411 1.388 . S
C3413 C3414 1.366 . S
C3414 C3413 1.366 . S
C3414 C3415 1.414 . S
C3414 C3417 1.499 . S
C3415 H3389 0.950 . S
C3415 C3414 1.414 . S
C3415 C3416 1.374 . S
C3416 H3390 0.950 . S
C3416 C3412 1.385 . S
C3416 C3415 1.374 . S
C3417 C3414 1.499 . S
C3417 C3418 1.373 . S
C3417 C3419 1.389 . S
C3418 H3391 0.950 . S
C3418 C3404 1.377 . S
C3418 C3417 1.373 . S
C3419 C3403 1.377 . S
C3419 C3417 1.389 . S
C3419 C3420 1.524 . S
C3420 C3419 1.524 . S
C3420 C3421 1.397 . S
C3420 C3425 1.363 . S
C3421 H3392 0.950 . S
C3421 C3420 1.397 . S
C3421 C3422 1.334 . S
C3422 H3393 0.950 . S
C3422 C3421 1.334 . S
C3422 C3423 1.287 . S
C3423 C3422 1.287 . S
C3423 C3424 1.524 . S
C3423 H3426 0.999 . S
C3424 H3394 0.950 . S
C3424 C3423 1.524 . S
C3424 C3425 1.415 . S
C3425 H3395 0.950 . S
C3425 C3420 1.363 . S
C3425 C3424 1.415 . S
H3426 C3423 0.999 . S
H3427 C3408 0.913 . S
H3428 C3446 0.951 . S
H3429 C3448 0.951 . S
H3430 C3450 0.950 . S
H3431 C3451 0.950 . S
H3432 C3453 0.950 . S
H3433 C3456 0.950 . S
H3434 C3457 0.950 . S
H3435 C3459 0.950 . S
H3436 C3460 0.950 . S
H3437 C3461 0.951 . S
H3438 C3463 0.951 . S
H3439 C3465 0.950 . S
H3440 C3466 0.950 . S
H3441 C3468 0.950 . S
H3442 C3471 0.950 . S
H3443 C3472 0.950 . S
H3444 C3474 0.950 . S
H3445 C3475 0.950 . S
C3446 H3428 0.951 . S
C3446 C3447 1.366 . S
C3446 C3448 1.388 . S
C3447 C3446 1.366 . S
C3447 C3451 1.385 . S
C3448 H3429 0.951 . S
C3448 C3446 1.388 . S
C3448 C3449 1.366 . S
C3449 C3448 1.366 . S
C3449 C3450 1.414 . S
C3449 C3452 1.499 . S
C3450 H3430 0.950 . S
C3450 C3449 1.414 . S
C3450 C3451 1.374 . S
C3451 H3431 0.950 . S
C3451 C3447 1.385 . S
C3451 C3450 1.374 . S
C3452 C3449 1.499 . S
C3452 C3453 1.373 . S
C3452 C3454 1.389 . S
C3453 H3432 0.950 . S
C3453 C3452 1.373 . S
C3453 C3469 1.377 . S
C3454 C3452 1.389 . S
C3454 C3455 1.524 . S
C3454 C3468 1.377 . S
C3455 C3454 1.524 . S
C3455 C3456 1.397 . S
C3455 C3460 1.363 . S
C3456 H3433 0.950 . S
C3456 C3455 1.397 . S
C3456 C3457 1.334 . S
C3457 H3434 0.950 . S
C3457 C3456 1.334 . S
C3457 C3458 1.287 . S
C3458 C3457 1.287 . S
C3458 C3459 1.524 . S
C3458 H3477 0.913 . S
C3459 H3435 0.950 . S
C3459 C3458 1.524 . S
C3459 C3460 1.415 . S
C3460 H3436 0.950 . S
C3460 C3455 1.363 . S
C3460 C3459 1.415 . S
C3461 H3437 0.951 . S
C3461 C3462 1.366 . S
C3461 C3463 1.388 . S
C3462 C3461 1.366 . S
C3462 C3466 1.385 . S
C3463 H3438 0.951 . S
C3463 C3461 1.388 . S
C3463 C3464 1.366 . S
C3464 C3463 1.366 . S
C3464 C3465 1.414 . S
C3464 C3467 1.499 . S
C3465 H3439 0.950 . S
C3465 C3464 1.414 . S
C3465 C3466 1.374 . S
C3466 H3440 0.950 . S
C3466 C3462 1.385 . S
C3466 C3465 1.374 . S
C3467 C3464 1.499 . S
C3467 C3468 1.373 . S
C3467 C3469 1.389 . S
C3468 H3441 0.950 . S
C3468 C3454 1.377 . S
C3468 C3467 1.373 . S
C3469 C3453 1.377 . S
C3469 C3467 1.389 . S
C3469 C3470 1.524 . S
C3470 C3469 1.524 . S
C3470 C3471 1.397 . S
C3470 C3475 1.363 . S
C3471 H3442 0.950 . S
C3471 C3470 1.397 . S
C3471 C3472 1.334 . S
C3472 H3443 0.950 . S
C3472 C3471 1.334 . S
C3472 C3473 1.287 . S
C3473 C3472 1.287 . S
C3473 C3474 1.524 . S
C3473 H3476 0.999 . S
C3474 H3444 0.950 . S
C3474 C3473 1.524 . S
C3474 C3475 1.415 . S
C3475 H3445 0.950 . S
C3475 C3470 1.363 . S
C3475 C3474 1.415 . S
H3476 C3473 0.999 . S
H3477 C3458 0.913 . S
H3478 C3496 0.951 . S
H3479 C3498 0.951 . S
H3480 C3500 0.950 . S
H3481 C3501 0.950 . S
H3482 C3503 0.950 . S
H3483 C3506 0.950 . S
H3484 C3507 0.950 . S
H3485 C3509 0.950 . S
H3486 C3510 0.950 . S
H3487 C3511 0.951 . S
H3488 C3513 0.951 . S
H3489 C3515 0.950 . S
H3490 C3516 0.950 . S
H3491 C3518 0.950 . S
H3492 C3521 0.950 . S
H3493 C3522 0.950 . S
H3494 C3524 0.950 . S
H3495 C3525 0.950 . S
C3496 H3478 0.951 . S
C3496 C3497 1.366 . S
C3496 C3498 1.388 . S
C3497 C3496 1.366 . S
C3497 C3501 1.385 . S
C3498 H3479 0.951 . S
C3498 C3496 1.388 . S
C3498 C3499 1.366 . S
C3499 C3498 1.366 . S
C3499 C3500 1.414 . S
C3499 C3502 1.499 . S
C3500 H3480 0.950 . S
C3500 C3499 1.414 . S
C3500 C3501 1.374 . S
C3501 H3481 0.950 . S
C3501 C3497 1.385 . S
C3501 C3500 1.374 . S
C3502 C3499 1.499 . S
C3502 C3503 1.373 . S
C3502 C3504 1.389 . S
C3503 H3482 0.950 . S
C3503 C3502 1.373 . S
C3503 C3519 1.377 . S
C3504 C3502 1.389 . S
C3504 C3505 1.524 . S
C3504 C3518 1.377 . S
C3505 C3504 1.524 . S
C3505 C3506 1.397 . S
C3505 C3510 1.363 . S
C3506 H3483 0.950 . S
C3506 C3505 1.397 . S
C3506 C3507 1.334 . S
C3507 H3484 0.950 . S
C3507 C3506 1.334 . S
C3507 C3508 1.287 . S
C3508 C3507 1.287 . S
C3508 C3509 1.524 . S
C3508 H3527 0.913 . S
C3509 H3485 0.950 . S
C3509 C3508 1.524 . S
C3509 C3510 1.415 . S
C3510 H3486 0.950 . S
C3510 C3505 1.363 . S
C3510 C3509 1.415 . S
C3511 H3487 0.951 . S
C3511 C3512 1.366 . S
C3511 C3513 1.388 . S
C3512 C3511 1.366 . S
C3512 C3516 1.385 . S
C3513 H3488 0.951 . S
C3513 C3511 1.388 . S
C3513 C3514 1.366 . S
C3514 C3513 1.366 . S
C3514 C3515 1.414 . S
C3514 C3517 1.499 . S
C3515 H3489 0.950 . S
C3515 C3514 1.414 . S
C3515 C3516 1.374 . S
C3516 H3490 0.950 . S
C3516 C3512 1.385 . S
C3516 C3515 1.374 . S
C3517 C3514 1.499 . S
C3517 C3518 1.373 . S
C3517 C3519 1.389 . S
C3518 H3491 0.950 . S
C3518 C3504 1.377 . S
C3518 C3517 1.373 . S
C3519 C3503 1.377 . S
C3519 C3517 1.389 . S
C3519 C3520 1.524 . S
C3520 C3519 1.524 . S
C3520 C3521 1.397 . S
C3520 C3525 1.363 . S
C3521 H3492 0.950 . S
C3521 C3520 1.397 . S
C3521 C3522 1.334 . S
C3522 H3493 0.950 . S
C3522 C3521 1.334 . S
C3522 C3523 1.287 . S
C3523 C3522 1.287 . S
C3523 C3524 1.524 . S
C3523 H3526 0.999 . S
C3524 H3494 0.950 . S
C3524 C3523 1.524 . S
C3524 C3525 1.415 . S
C3525 H3495 0.950 . S
C3525 C3520 1.363 . S
C3525 C3524 1.415 . S
H3526 C3523 0.999 . S
H3527 C3508 0.913 . S
C847 C469 1.555 . S
C862 C654 1.531 . S
C897 C505 1.540 . S
C912 C674 1.507 . S
C947 C433 1.572 . S
C962 C697 1.559 . S
C997 C397 1.451 . S
C1012 C677 1.440 . S
C1062 C694 1.392 . S
C1047 C325 1.408 . S
C1097 C361 1.434 . S
C1112 C657 1.424 . S
C1162 C664 1.531 . S
C1147 C421 1.558 . S
C1212 C684 1.506 . S
C1197 C349 1.538 . S
C1247 C385 1.568 . S
C1262 C689 1.560 . S
C1297 C493 1.448 . S
C1312 C669 1.440 . S
C1347 C529 1.412 . S
C1362 C704 1.392 . S
C1412 C649 1.424 . S
C1397 C457 1.435 . S
C1462 C714 1.531 . S
C1447 C37 1.555 . S
C1497 C73 1.540 . S
C1512 C734 1.507 . S
C1547 C1 1.573 . S
C1562 C757 1.559 . S
C1597 C613 1.451 . S
C1612 C737 1.440 . S
C1647 C541 1.408 . S
C1662 C754 1.392 . S
C1697 C577 1.434 . S
C1712 C717 1.424 . S
C1747 C637 1.558 . S
C1762 C724 1.531 . S
C1797 C565 1.538 . S
C1812 C744 1.507 . S
C1862 C749 1.560 . S
C1847 C601 1.568 . S
C1897 C61 1.449 . S
C1912 C729 1.440 . S
C1962 C764 1.391 . S
C1947 C97 1.412 . S
C1997 C25 1.435 . S
C2012 C709 1.425 . S
C2062 C774 1.530 . S
C2047 C253 1.555 . S
C2097 C289 1.540 . S
C2112 C794 1.508 . S
C2162 C817 1.560 . S
C2147 C217 1.573 . S
C2212 C797 1.440 . S
C2197 C181 1.451 . S
C2262 C814 1.392 . S
C2247 C109 1.408 . S
C2297 C145 1.434 . S
C2312 C777 1.424 . S
C2347 C205 1.558 . S
C2362 C784 1.531 . S
C2397 C133 1.538 . S
C2412 C804 1.506 . S
C2462 C809 1.560 . S
C2447 C169 1.568 . S
C2497 C277 1.449 . S
C2512 C789 1.440 . S
C2547 C313 1.412 . S
C2562 C824 1.391 . S
C2597 C241 1.435 . S
C2612 C769 1.425 . S
C2647 C571 1.217 . S
C2662 C667 1.187 1_565 S
C2712 C687 1.648 . S
C2697 C607 1.719 . S
C2747 C643 1.491 . S
C2762 C696 1.445 . S
C2797 C247 1.715 . S
C2812 C676 1.648 1_655 S
C2847 C283 1.495 . S
C2862 C707 1.446 . S
C2912 C656 1.182 1_545 S
C2897 C319 1.215 . S
C2947 C139 1.217 . S
C2962 C727 1.187 . S
C2997 C175 1.718 . S
C3012 C747 1.647 . S
C3047 C211 1.491 . S
C3062 C756 1.446 . S
C3097 C463 1.715 . S
C3112 C736 1.648 . S
C3162 C767 1.446 . S
C3147 C499 1.495 . S
C3197 C535 1.215 . S
C3212 C716 1.187 . S
C3247 C355 1.217 . S
C3262 C787 1.188 . S
C3297 C391 1.718 . S
C3312 C807 1.647 . S
C3362 C816 1.445 . S
C3347 C427 1.492 . S
C3397 C31 1.715 . S
C3412 C796 1.648 . S
C3447 C67 1.495 . S
C3462 C827 1.446 . S
C3497 C103 1.215 . S
C3512 C776 1.188 . S
