# Generated by pormake.
# Topology ftw, (4,12)-cn, num edge types: 1
# Building blocks:
#     Node 0, Type 0, BuildingBlock: GIZVER_clean_linker_0, # of connection points: 4
#     Node 1, Type 0, BuildingBlock: GIZVER_clean_linker_0, # of connection points: 4
#     Node 2, Type 0, BuildingBlock: GIZVER_clean_linker_0, # of connection points: 4
#     Node 3, Type 1, BuildingBlock: EZIPEK_clean_sbu_0, # of connection points: 12
#     Edge 4, Type (0, 1), BuildingBlock: EZIPEK_clean_linker_0, # of connection points: 2
#     Edge 5, Type (0, 1), BuildingBlock: EZIPEK_clean_linker_0, # of connection points: 2
#     Edge 6, Type (0, 1), BuildingBlock: EZIPEK_clean_linker_0, # of connection points: 2
#     Edge 7, Type (0, 1), BuildingBlock: EZIPEK_clean_linker_0, # of connection points: 2
#     Edge 8, Type (0, 1), BuildingBlock: EZIPEK_clean_linker_0, # of connection points: 2
#     Edge 9, Type (0, 1), BuildingBlock: EZIPEK_clean_linker_0, # of connection points: 2
#     Edge 10, Type (0, 1), BuildingBlock: EZIPEK_clean_linker_0, # of connection points: 2
#     Edge 11, Type (0, 1), BuildingBlock: EZIPEK_clean_linker_0, # of connection points: 2
#     Edge 12, Type (0, 1), BuildingBlock: EZIPEK_clean_linker_0, # of connection points: 2
#     Edge 13, Type (0, 1), BuildingBlock: EZIPEK_clean_linker_0, # of connection points: 2
#     Edge 14, Type (0, 1), BuildingBlock: EZIPEK_clean_linker_0, # of connection points: 2
#     Edge 15, Type (0, 1), BuildingBlock: EZIPEK_clean_linker_0, # of connection points: 2
# Relax obj value: 0.085
# Max RMSD: 0.239
# Mean RMSD: 0.181
data_MOF--net-ftw--node1-EZIPEK_clean_sbu_0--node2-GIZVER_clean_linker_0--edge1-EZIPEK_clean_linker_0
_symmetry_space_group_name_H-M    P1
_symmetry_Int_Tables_number       1
_symmetry_cell_setting            triclinic
loop_
_symmetry_equiv_pos_as_xyz
'x, y, z'
_cell_length_a     19.682067
_cell_length_b     18.495575
_cell_length_c     18.096046
_cell_angle_alpha  90.266381
_cell_angle_beta   89.651467
_cell_angle_gamma 90.269525
loop_
_atom_site_label
_atom_site_type_symbol
_atom_site_fract_x
_atom_site_fract_y
_atom_site_fract_z
_atom_type_partial_charge
H0 H 0.93444 0.48385 0.3712 0.0
H1 H 0.90366 0.43255 0.6006 0.0
H2 H 1.00031 0.27911 0.45665 0.0
H3 H 0.84064 0.54418 0.4493 0.0
H4 H 0.84174 0.53225 0.54756 0.0
H5 H 0.92024 0.62366 0.38974 0.0
H6 H 0.05991 0.74643 0.51907 0.0
H7 H 0.93901 0.57647 0.61881 0.0
C8 C 0.93822 0.44567 0.41621 0.0
C9 C 0.96772 0.37763 0.40382 0.0
C10 C 0.91128 0.46376 0.48598 0.0
C11 C 0.92132 0.41732 0.54586 0.0
C12 C 0.95612 0.35224 0.53574 0.0
C13 C 0.97622 0.33123 0.46444 0.0
C14 C 0.87442 0.53391 0.49718 0.0
C15 C 0.92595 0.59357 0.50436 0.0
C16 C 0.94491 0.63344 0.44231 0.0
C17 C 0.99359 0.68793 0.44826 0.0
C18 C 1.0258 0.70059 0.51607 0.0
C19 C 1.01121 0.65771 0.5791 0.0
C20 C 0.95809 0.60635 0.57221 0.0
H21 H 0.45992 0.10003 0.37047 0.0
H22 H 0.46012 0.08771 0.60815 0.0
H23 H 0.28495 1.01764 0.48633 0.0
H24 H 0.53512 0.17731 0.44335 0.0
H25 H 0.53267 0.17548 0.54161 0.0
H26 H 0.60209 0.08689 0.37283 0.0
H27 H 0.77798 1.01443 0.49089 0.0
H28 H 0.60363 0.09189 0.61067 0.0
C29 C 0.43585 0.08337 0.42173 0.0
C30 C 0.36958 0.05512 0.42048 0.0
C31 C 0.46868 0.09582 0.48937 0.0
C32 C 0.43606 0.07628 0.55561 0.0
C33 C 0.36995 0.04784 0.55446 0.0
C34 C 0.33707 0.03696 0.48694 0.0
C35 C 0.53283 0.14021 0.49158 0.0
C36 C 0.59543 0.09378 0.49169 0.0
C37 C 0.62684 0.07459 0.42461 0.0
C38 C 0.69307 0.04652 0.42388 0.0
C39 C 0.72607 0.03388 0.49099 0.0
C40 C 0.69327 0.04847 0.55827 0.0
C41 C 0.62751 0.07735 0.55857 0.0
H42 H 0.60306 0.39947 0.03567 0.0
H43 H 0.60476 0.63222 0.03613 0.0
H44 H 0.78391 0.51474 0.97141 0.0
H45 H 0.52806 0.46628 0.11746 0.0
H46 H 0.53197 0.56179 0.12253 0.0
H47 H 0.45918 0.40491 0.01878 0.0
H48 H 0.27623 0.5242 0.97563 0.0
H49 H 0.45443 0.63507 0.0536 0.0
C50 C 0.6282 0.45015 0.02258 0.0
C51 C 0.69622 0.44937 -0.00124 0.0
C52 C 0.59481 0.51585 0.03683 0.0
C53 C 0.6293 0.58137 0.02298 0.0
C54 C 0.69759 0.58157 -0.00079 0.0
C55 C 0.73061 0.51519 -0.01312 0.0
C56 C 0.53024 0.51576 0.0827 0.0
C57 C 0.46525 0.51984 0.03855 0.0
C58 C 0.43286 0.45606 0.01433 0.0
C59 C 0.36406 0.45663 -0.00727 0.0
C60 C 0.3295 0.52307 -0.00955 0.0
C61 C 0.36257 0.58771 0.01067 0.0
C62 C 0.43034 0.58574 0.03418 0.0
C63 C 1.02063 0.16907 0.78748 0.0
C64 C 0.02897 0.21565 0.14515 0.0
C65 C 0.04063 0.82479 0.83103 0.0
C66 C 0.02781 0.86994 0.18799 0.0
C67 C 0.19771 0.84687 0.01151 0.0
C68 C 0.19632 0.19746 0.96588 0.0
C69 C 0.86875 0.83877 -0.00898 0.0
C70 C 0.86427 0.19336 0.98435 0.0
C71 C 0.86422 0.02392 0.16543 0.0
C72 C 0.19366 0.04456 0.16661 0.0
C73 C 0.86708 1.01188 0.81003 0.0
C74 C 0.19567 1.00833 0.80854 0.0
Eu75 Eu 0.02959 0.15674 0.97145 0.0
O76 O 0.09067 0.09269 0.04487 0.0
O77 O 0.97042 0.07439 0.91641 0.0
Eu78 Eu 0.16065 0.02189 -0.01204 0.0
Eu79 Eu 0.90114 1.01688 -0.01213 0.0
O80 O 0.09125 0.07702 0.91597 0.0
O81 O 0.96944 0.08996 0.04454 0.0
Eu82 Eu 0.03182 1.00316 0.85031 0.0
Eu83 Eu 0.03012 0.03655 0.12573 0.0
O84 O 0.09267 0.94905 0.9311 0.0
O85 O 0.09144 0.96469 0.0598 0.0
O86 O 0.97045 0.96255 0.06044 0.0
O87 O 0.97089 0.94629 0.93037 0.0
Eu88 Eu 0.03192 0.88311 0.0044 0.0
O89 O 1.00957 0.1981 0.85441 0.0
O90 O 0.03449 0.22991 0.07305 0.0
O91 O 0.04534 0.8111 0.9032 0.0
O92 O 1.01389 0.84114 0.1218 0.0
O93 O 0.21784 0.91555 0.00248 0.0
O94 O 0.21672 0.1292 0.97443 0.0
O95 O 0.84637 0.90697 -0.01346 0.0
O96 O 0.84367 0.12436 -0.01076 0.0
O97 O 0.92842 0.03442 0.18687 0.0
O98 O 0.12886 0.04887 0.18805 0.0
O99 O 0.93152 1.00306 0.78855 0.0
O100 O 0.13124 1.00134 0.7873 0.0
O101 O 0.93353 0.81886 -0.00222 0.0
O102 O 0.13294 0.82487 0.01685 0.0
O103 O 0.92865 0.21598 0.97796 0.0
O104 O 0.13114 0.21812 0.96052 0.0
O105 O 1.02361 0.1496 0.17433 0.0
O106 O 0.04567 0.93866 0.19811 0.0
O107 O 0.03975 0.10111 0.77659 0.0
O108 O 0.03188 0.89011 0.80143 0.0
O109 O 0.21742 1.01537 0.87803 0.0
O110 O 0.21607 0.03441 0.0975 0.0
O111 O 0.84498 1.0187 0.87939 0.0
O112 O 0.84337 1.01462 0.09615 0.0
C113 C 0.05726 0.32081 0.32338 0.0
C114 C 0.99265 0.35413 0.32908 0.0
C115 C 0.97786 0.33043 0.19674 0.0
C116 C 0.02886 0.27686 0.19941 0.0
N117 N 0.12052 0.22338 0.268 0.0
N118 N 0.88801 0.38509 0.26384 0.0
C119 C 0.07023 0.27338 0.26334 0.0
C120 C 0.95249 0.35902 0.26394 0.0
N121 N 0.10624 0.33501 0.37463 0.0
N122 N 0.95094 0.35226 0.13142 0.0
H123 H 0.86058 0.3998 0.31093 0.0
H124 H 0.86058 0.3998 0.31093 0.0
H125 H 0.96902 0.33484 0.08025 0.0
H126 H 0.91387 0.39243 0.12922 0.0
H127 H 0.15578 0.31576 0.36975 0.0
H128 H 0.09924 0.37278 0.41702 0.0
H129 H 0.14697 0.21326 0.3166 0.0
H130 H 0.13247 0.18937 0.22406 0.0
C131 C 0.75788 0.96859 0.33305 0.0
C132 C 0.73089 0.03719 0.35304 0.0
C133 C 0.77268 0.08669 0.23646 0.0
C134 C 0.81158 0.02378 0.22431 0.0
N135 N 0.84072 0.90248 0.25958 0.0
N136 N 0.72587 0.16593 0.32917 0.0
C137 C 0.80401 0.96377 0.27223 0.0
C138 C 0.74146 0.0975 0.30605 0.0
N139 N 0.73811 0.90821 0.37094 0.0
N140 N 0.76391 0.13544 0.18119 0.0
H141 H 0.7073 0.17772 0.3819 0.0
H142 H 0.73881 0.21175 0.29868 0.0
H143 H 0.78332 0.12725 0.12816 0.0
H144 H 0.73051 0.17886 0.18584 0.0
H145 H 0.75133 0.85591 0.3552 0.0
H146 H 0.70302 0.90985 0.41435 0.0
H147 H 0.8418 0.85892 0.29577 0.0
H148 H 0.87382 0.8971 0.21468 0.0
C149 C 0.97834 0.80546 0.38324 0.0
C150 C 1.0065 0.73556 0.38396 0.0
C151 C 0.04446 0.74985 0.25547 0.0
C152 C 1.02135 0.82333 0.25593 0.0
N153 N 0.97579 0.92342 0.33031 0.0
N154 N 0.07769 0.64555 0.32758 0.0
C155 C 0.99202 0.85201 0.32288 0.0
C156 C 0.04272 0.70903 0.32201 0.0
N157 N 0.93455 0.8264 0.43837 0.0
N158 N 0.06788 0.71776 0.19215 0.0
H159 H 0.07731 0.61416 0.37536 0.0
H160 H 0.11211 0.62743 0.28773 0.0
H161 H 0.07916 0.74482 0.14357 0.0
H162 H 0.07413 0.66207 0.18685 0.0
H163 H 0.90481 0.87278 0.4355 0.0
H164 H 0.9228 0.79434 0.48399 0.0
H165 H 0.96778 0.94788 0.38165 0.0
H166 H 0.96979 0.95906 0.28709 0.0
C167 C 0.31133 0.98439 0.32042 0.0
C168 C 0.33052 0.05226 0.35064 0.0
C169 C 0.27083 0.11408 0.25097 0.0
C170 C 0.24471 0.04681 0.22635 0.0
N171 N 0.23159 0.91846 0.24381 0.0
N172 N 0.3185 0.18226 0.35276 0.0
C173 C 0.26284 0.98194 0.26261 0.0
C174 C 0.30799 0.11743 0.31785 0.0
N175 N 0.34016 0.92247 0.34635 0.0
N176 N 0.2601 0.17484 0.21043 0.0
H177 H 0.34432 0.1873 0.40266 0.0
H178 H 0.29622 0.23036 0.33592 0.0
H179 H 0.23131 0.17435 0.16226 0.0
H180 H 0.28295 0.22444 0.22197 0.0
H181 H 0.33317 0.872 0.32171 0.0
H182 H 0.37602 0.92254 0.38859 0.0
H183 H 0.23708 0.87071 0.27342 0.0
H184 H 0.19551 0.91522 0.20203 0.0
C185 C 0.098 0.72515 0.65776 0.0
C186 C 0.04452 0.67442 0.65287 0.0
C187 C 1.01417 0.6983 0.78151 0.0
C188 C 0.05153 0.76437 0.77746 0.0
N189 N 0.14329 0.83079 0.71921 0.0
N190 N 1.00603 0.57752 0.73058 0.0
C191 C 0.09874 0.77419 0.71822 0.0
C192 C 1.01755 0.64953 0.72079 0.0
N193 N 0.1508 0.72117 0.60877 0.0
N194 N 0.97393 0.68244 0.84091 0.0
H195 H 1.0203 0.53994 0.69019 0.0
H196 H 0.99221 0.55515 0.78129 0.0
H197 H 0.97036 0.71495 0.88774 0.0
H198 H 0.94086 0.63821 0.84141 0.0
H199 H 0.19475 0.75249 0.61274 0.0
H200 H 0.15277 0.6804 0.56864 0.0
H201 H 0.17223 0.84634 0.67353 0.0
H202 H 0.14992 0.86284 0.76601 0.0
C203 C 0.2944 0.09837 0.65308 0.0
C204 C 0.331 0.03864 0.62408 0.0
C205 C 0.28704 0.96123 0.72327 0.0
C206 C 0.24585 1.01921 0.74829 0.0
N207 N 0.2047 0.14097 0.73411 0.0
N208 N 0.36001 0.91239 0.62649 0.0
C209 C 0.2483 0.08738 0.71259 0.0
C210 C 0.3271 0.96982 0.65808 0.0
N211 N 0.30433 0.16585 0.62409 0.0
N212 N 0.2876 0.89807 0.7619 0.0
H213 H 0.39166 0.91755 0.58033 0.0
H214 H 0.35339 0.85904 0.64311 0.0
H215 H 0.25626 0.8895 0.80757 0.0
H216 H 0.32097 0.85574 0.75142 0.0
H217 H 0.28561 0.21297 0.64821 0.0
H218 H 0.33552 0.17585 0.57845 0.0
H219 H 0.19689 0.18811 0.70419 0.0
H220 H 0.17292 0.13663 0.78015 0.0
C221 C 0.94766 0.23482 0.60324 0.0
C222 C 0.97306 0.30607 0.59997 0.0
C223 C 0.02912 0.28938 0.71926 0.0
C224 C 1.0087 0.21495 0.72005 0.0
N225 N 0.96348 0.114 0.64562 0.0
N226 N 0.05303 0.39487 0.64449 0.0
C227 C 0.9735 0.18645 0.65665 0.0
C228 C 1.01793 0.33171 0.65508 0.0
N229 N 0.89644 0.21366 0.55699 0.0
N230 N 0.06003 0.32055 0.77885 0.0
H231 H 0.04788 0.42665 0.59742 0.0
H232 H 0.09238 0.41205 0.67872 0.0
H233 H 0.07801 0.29206 0.82381 0.0
H234 H 0.06564 0.37635 0.78479 0.0
H235 H 0.87131 0.16416 0.56152 0.0
H236 H 0.87406 0.24831 0.51899 0.0
H237 H 0.94734 0.09283 0.59515 0.0
H238 H 0.97469 0.07333 0.68231 0.0
C239 C 0.76183 0.10181 0.66135 0.0
C240 C 0.73123 0.0401 0.62816 0.0
C241 C 0.77897 0.96235 0.72392 0.0
C242 C 0.81654 0.02218 0.75097 0.0
N243 N 0.84475 0.14893 0.74804 0.0
N244 N 0.71128 0.91141 0.62471 0.0
C245 C 0.8077 0.09216 0.72082 0.0
C246 C 0.73973 0.97024 0.65879 0.0
N247 N 0.74742 0.16941 0.63542 0.0
N248 N 0.77938 0.89876 0.76197 0.0
H249 H 0.67925 0.91559 0.57921 0.0
H250 H 0.72209 0.85823 0.63889 0.0
H251 H 0.80627 0.89278 0.81093 0.0
H252 H 0.74856 0.85457 0.74936 0.0
H253 H 0.76147 0.21718 0.66182 0.0
H254 H 0.71812 0.17856 0.58865 0.0
H255 H 0.84479 0.20074 0.72605 0.0
H256 H 0.87794 0.14397 0.79238 0.0
C257 C 0.32466 0.33407 0.03739 0.0
C258 C 0.32614 0.38685 0.98081 0.0
C259 C 0.25012 0.3092 0.90681 0.0
C260 C 0.25004 0.25617 0.96366 0.0
N261 N 0.31839 0.20702 0.06262 0.0
N262 N 0.30427 0.41579 0.85349 0.0
C263 C 0.2969 0.26471 0.02257 0.0
C264 C 0.29285 0.37187 0.91287 0.0
N265 N 0.34652 0.35066 0.10699 0.0
N266 N 0.21113 0.29826 0.8458 0.0
H267 H 0.33681 0.46041 0.85564 0.0
H268 H 0.28668 0.40473 0.80051 0.0
H269 H 0.18613 0.24944 0.83623 0.0
H270 H 0.20253 0.3375 0.80594 0.0
H271 H 0.34137 0.31501 0.15112 0.0
H272 H 0.36238 0.40232 0.12267 0.0
H273 H 0.35801 0.21128 0.10046 0.0
H274 H 0.30347 0.15399 0.05268 0.0
C275 C 0.28088 0.6721 0.07476 0.0
C276 C 0.32473 0.65737 0.01404 0.0
C277 C 0.30147 0.77774 0.96333 0.0
C278 C 0.2505 0.78867 0.01843 0.0
N279 N 0.21126 0.75921 0.14052 0.0
N280 N 0.37247 0.69235 0.89668 0.0
C281 C 0.24556 0.73914 0.07804 0.0
C282 C 0.33436 0.70945 0.9577 0.0
N283 N 0.27123 0.62086 0.12814 0.0
N284 N 0.32202 0.83339 0.91919 0.0
H285 H 0.39803 0.64335 0.89078 0.0
H286 H 0.37407 0.72397 0.84921 0.0
H287 H 0.30282 0.88538 0.92314 0.0
H288 H 0.36442 0.83058 0.88462 0.0
H289 H 0.23326 0.62362 0.16833 0.0
H290 H 0.29894 0.57299 0.1301 0.0
H291 H 0.21266 0.73087 0.19003 0.0
H292 H 0.18589 0.80829 0.14482 0.0
C293 C 0.7649 0.35363 0.06243 0.0
C294 C 0.73404 0.37954 -0.0032 0.0
C295 C 0.7729 0.27156 0.92969 0.0
C296 C 0.8121 0.25138 -0.00843 0.0
N297 N 0.83575 0.26269 0.12099 0.0
N298 N 0.7103 0.36574 0.86706 0.0
C299 C 0.80502 0.2894 0.0594 0.0
C300 C 0.73816 0.33895 0.93023 0.0
N301 N 0.75736 0.39205 0.12678 0.0
N302 N 0.76603 0.22431 0.87213 0.0
H303 H 0.68282 0.41383 0.86593 0.0
H304 H 0.71822 0.34299 0.81499 0.0
H305 H 0.78638 0.17248 0.87389 0.0
H306 H 0.73389 0.23264 0.82753 0.0
H307 H 0.77856 0.37803 0.17701 0.0
H308 H 0.72917 0.43952 0.13064 0.0
H309 H 0.82835 0.28224 0.17427 0.0
H310 H 0.86803 0.21812 0.11945 0.0
C311 C 0.75218 0.68964 0.06159 0.0
C312 C 0.737 0.65108 -0.00452 0.0
C313 C 0.80566 0.73855 0.92456 0.0
C314 C 0.81765 0.77885 -0.00973 0.0
N315 N 0.78843 0.80278 0.11723 0.0
N316 N 0.73832 0.64617 0.86243 0.0
C317 C 0.78628 0.75757 0.05744 0.0
C318 C 0.76043 0.67789 0.92634 0.0
N319 N 0.73731 0.6597 0.12875 0.0
N320 N 0.83863 0.75743 0.86083 0.0
H321 H 0.70531 0.60186 0.86193 0.0
H322 H 0.74788 0.66711 0.81008 0.0
H323 H 0.87215 0.80119 0.85792 0.0
H324 H 0.83687 0.72707 0.81231 0.0
H325 H 0.7538 0.68165 0.17866 0.0
H326 H 0.71407 0.60926 0.13466 0.0
H327 H 0.76105 0.79366 0.16577 0.0
H328 H 0.81198 0.85331 0.11523 0.0
loop_
_geom_bond_atom_site_label_1
_geom_bond_atom_site_label_2
_geom_bond_distance
_geom_bond_site_symmetry_2
_ccdc_geom_bond_type
H0 C8 0.930 . S
H1 C11 0.930 . S
H2 C13 0.930 . S
H3 C14 0.970 . S
H4 C14 0.970 . S
H5 C16 0.930 . S
H6 C18 0.930 . S
H7 C20 0.930 . S
C8 H0 0.930 . S
C8 C9 1.382 . S
C8 C10 1.426 . S
C9 C8 1.382 . S
C9 C13 1.389 1_655 S
C10 C8 1.426 . S
C10 C11 1.375 . S
C10 C14 1.532 . S
C11 H1 0.930 . S
C11 C10 1.375 . S
C11 C12 1.416 . S
C12 C11 1.416 . S
C12 C13 1.371 1_655 S
C13 H2 0.930 . S
C13 C9 1.389 1_455 S
C13 C12 1.371 1_455 S
C14 H3 0.970 . S
C14 H4 0.970 . S
C14 C10 1.532 . S
C14 C15 1.499 . S
C15 C14 1.499 . S
C15 C16 1.370 . S
C15 C20 1.415 . S
C16 H5 0.930 . S
C16 C15 1.370 . S
C16 C17 1.407 . S
C17 C16 1.407 . S
C17 C18 1.365 1_655 S
C18 H6 0.930 . S
C18 C17 1.365 1_455 S
C18 C19 1.393 1_455 S
C19 C18 1.393 1_655 S
C19 C20 1.387 . S
C20 H7 0.930 . S
C20 C15 1.415 . S
C20 C19 1.387 . S
H21 C29 0.930 . S
H22 C32 0.930 . S
H23 C34 0.930 . S
H24 C35 0.970 . S
H25 C35 0.970 . S
H26 C37 0.930 . S
H27 C39 0.930 . S
H28 C41 0.930 . S
C29 H21 0.930 . S
C29 C30 1.382 . S
C29 C31 1.426 . S
C30 C29 1.382 . S
C30 C34 1.389 1_545 S
C31 C29 1.426 . S
C31 C32 1.375 . S
C31 C35 1.532 . S
C32 H22 0.930 . S
C32 C31 1.375 . S
C32 C33 1.416 . S
C33 C32 1.416 . S
C33 C34 1.371 1_545 S
C34 H23 0.930 . S
C34 C30 1.389 1_565 S
C34 C33 1.371 1_565 S
C35 H24 0.970 . S
C35 H25 0.970 . S
C35 C31 1.532 . S
C35 C36 1.499 . S
C36 C35 1.499 . S
C36 C37 1.370 . S
C36 C41 1.415 . S
C37 H26 0.930 . S
C37 C36 1.370 . S
C37 C38 1.407 . S
C38 C37 1.407 . S
C38 C39 1.365 1_545 S
C39 H27 0.930 . S
C39 C38 1.365 1_565 S
C39 C40 1.393 1_565 S
C40 C39 1.393 1_545 S
C40 C41 1.387 . S
C41 H28 0.930 . S
C41 C36 1.415 . S
C41 C40 1.387 . S
H42 C50 0.930 . S
H43 C53 0.930 . S
H44 C55 0.930 . S
H45 C56 0.970 . S
H46 C56 0.970 . S
H47 C58 0.930 . S
H48 C60 0.930 . S
H49 C62 0.930 . S
C50 H42 0.930 . S
C50 C51 1.382 . S
C50 C52 1.426 . S
C51 C50 1.382 . S
C51 C55 1.389 1_554 S
C52 C50 1.426 . S
C52 C53 1.375 . S
C52 C56 1.532 . S
C53 H43 0.930 . S
C53 C52 1.375 . S
C53 C54 1.416 . S
C54 C53 1.416 . S
C54 C55 1.371 1_554 S
C55 H44 0.930 . S
C55 C51 1.389 1_556 S
C55 C54 1.371 1_556 S
C56 H45 0.970 . S
C56 H46 0.970 . S
C56 C52 1.532 . S
C56 C57 1.499 . S
C57 C56 1.499 . S
C57 C58 1.370 . S
C57 C62 1.415 . S
C58 H47 0.930 . S
C58 C57 1.370 . S
C58 C59 1.407 . S
C59 C58 1.407 . S
C59 C60 1.365 1_554 S
C60 H48 0.930 . S
C60 C59 1.365 1_556 S
C60 C61 1.393 1_556 S
C61 C60 1.393 1_554 S
C61 C62 1.387 . S
C62 H49 0.930 . S
C62 C57 1.415 . S
C62 C61 1.387 . S
C63 O89 1.283 . S
C63 O107 1.283 . S
C64 O90 1.283 . S
C64 O105 1.283 1_455 S
C65 O91 1.283 1_455 S
C65 O108 1.283 . S
C66 O92 1.283 . S
C66 O106 1.283 . S
C67 O93 1.283 . S
C67 O102 1.283 . S
C68 O94 1.283 . S
C68 O104 1.283 . S
C69 O95 1.283 . S
C69 O101 1.283 . S
C70 O96 1.283 . S
C70 O103 1.283 . S
C71 O97 1.283 . S
C71 O112 1.283 . S
C72 O98 1.283 . S
C72 O110 1.283 . S
C73 O99 1.283 . S
C73 O111 1.283 . S
C74 O100 1.283 . S
C74 O109 1.283 . S
Eu75 O76 2.375 . S
Eu75 O77 2.365 1_454 S
Eu75 O80 2.375 1_554 S
Eu75 O81 2.365 1_455 S
Eu75 O89 2.363 1_554 S
Eu75 O90 2.363 . S
Eu75 O103 2.354 1_455 S
Eu75 O104 2.372 . S
O76 Eu75 2.375 . S
O76 Eu78 2.370 . S
O76 Eu83 2.367 1_455 S
O77 Eu75 2.365 1_656 S
O77 Eu79 2.370 1_556 S
O77 Eu82 2.364 1_655 S
Eu78 O76 2.370 . S
Eu78 O80 2.370 1_554 S
Eu78 O84 2.370 1_544 S
Eu78 O85 2.370 1_545 S
Eu78 O93 2.363 1_545 S
Eu78 O94 2.363 . S
Eu78 O109 2.363 1_554 S
Eu78 O110 2.363 . S
Eu79 O77 2.370 1_554 S
Eu79 O81 2.370 . S
Eu79 O86 2.370 1_545 S
Eu79 O87 2.370 1_544 S
Eu79 O95 2.363 1_545 S
Eu79 O96 2.363 . S
Eu79 O111 2.363 1_554 S
Eu79 O112 2.363 . S
O80 Eu75 2.375 1_556 S
O80 Eu78 2.370 1_556 S
O80 Eu82 2.376 . S
O81 Eu75 2.365 1_655 S
O81 Eu79 2.370 . S
O81 Eu83 2.373 . S
Eu82 O77 2.364 1_455 S
Eu82 O80 2.376 . S
Eu82 O84 2.376 1_545 S
Eu82 O87 2.364 1_445 S
Eu82 O99 2.353 1_455 S
Eu82 O100 2.373 . S
Eu82 O107 2.363 . S
Eu82 O108 2.363 1_545 S
Eu83 O76 2.367 1_655 S
Eu83 O81 2.373 . S
Eu83 O85 2.367 1_645 S
Eu83 O86 2.373 1_545 S
Eu83 O97 2.368 . S
Eu83 O98 2.358 1_655 S
Eu83 O105 2.363 . S
Eu83 O106 2.363 1_545 S
O84 Eu78 2.370 1_566 S
O84 Eu82 2.376 1_565 S
O84 Eu88 2.368 1_456 S
O85 Eu78 2.370 1_565 S
O85 Eu83 2.367 1_465 S
O85 Eu88 2.368 1_455 S
O86 Eu79 2.370 1_565 S
O86 Eu83 2.373 1_565 S
O86 Eu88 2.372 . S
O87 Eu79 2.370 1_566 S
O87 Eu82 2.364 1_665 S
O87 Eu88 2.372 1_556 S
Eu88 O84 2.368 1_654 S
Eu88 O85 2.368 1_655 S
Eu88 O86 2.372 . S
Eu88 O87 2.372 1_554 S
Eu88 O91 2.363 1_554 S
Eu88 O92 2.363 . S
Eu88 O101 2.367 . S
Eu88 O102 2.359 1_655 S
O89 C63 1.283 . S
O89 Eu75 2.363 1_556 S
O90 C64 1.283 . S
O90 Eu75 2.363 . S
O91 C65 1.283 1_655 S
O91 Eu88 2.363 1_556 S
O92 C66 1.283 . S
O92 Eu88 2.363 . S
O93 C67 1.283 . S
O93 Eu78 2.363 1_565 S
O94 C68 1.283 . S
O94 Eu78 2.363 . S
O95 C69 1.283 . S
O95 Eu79 2.363 1_565 S
O96 C70 1.283 . S
O96 Eu79 2.363 . S
O97 C71 1.283 . S
O97 Eu83 2.368 . S
O98 C72 1.283 . S
O98 Eu83 2.358 1_455 S
O99 C73 1.283 . S
O99 Eu82 2.353 1_655 S
O100 C74 1.283 . S
O100 Eu82 2.373 . S
O101 C69 1.283 . S
O101 Eu88 2.367 . S
O102 C67 1.283 . S
O102 Eu88 2.359 1_455 S
O103 C70 1.283 . S
O103 Eu75 2.354 1_655 S
O104 C68 1.283 . S
O104 Eu75 2.372 . S
O105 C64 1.283 1_655 S
O105 Eu83 2.363 . S
O106 C66 1.283 . S
O106 Eu83 2.363 1_565 S
O107 C63 1.283 . S
O107 Eu82 2.363 . S
O108 C65 1.283 . S
O108 Eu82 2.363 1_565 S
O109 C74 1.283 . S
O109 Eu78 2.363 1_556 S
O110 C72 1.283 . S
O110 Eu78 2.363 . S
O111 C73 1.283 . S
O111 Eu79 2.363 1_556 S
O112 C71 1.283 . S
O112 Eu79 2.363 . S
C113 C114 1.363 1_455 S
C113 C119 1.379 . S
C113 N121 1.356 . S
C114 C113 1.363 1_655 S
C114 C120 1.363 . S
C115 C116 1.370 . S
C115 C120 1.379 . S
C115 N122 1.356 . S
C116 C115 1.370 . S
C116 C119 1.357 1_655 S
N117 C119 1.356 . S
N117 H129 0.984 . S
N117 H130 0.985 . S
N118 C120 1.356 . S
N118 H123 0.984 . S
N118 H124 0.985 . S
C119 C113 1.379 . S
C119 C116 1.357 1_455 S
C119 N117 1.356 . S
C120 C114 1.363 . S
C120 C115 1.379 . S
C120 N118 1.356 . S
N121 C113 1.356 . S
N121 H127 0.984 . S
N121 H128 0.984 . S
N122 C115 1.356 . S
N122 H125 0.984 . S
N122 H126 0.985 . S
H123 N118 0.984 . S
H124 N118 0.985 . S
H125 N122 0.984 . S
H126 N122 0.985 . S
H127 N121 0.984 . S
H128 N121 0.984 . S
H129 N117 0.984 . S
H130 N117 0.985 . S
C131 C132 1.363 . S
C131 C137 1.379 . S
C131 N139 1.356 . S
C132 C131 1.363 . S
C132 C138 1.363 1_565 S
C133 C134 1.363 . S
C133 C138 1.379 . S
C133 N140 1.356 . S
C134 C133 1.363 . S
C134 C137 1.363 1_545 S
N135 C137 1.356 . S
N135 H147 0.984 . S
N135 H148 0.985 . S
N136 C138 1.356 . S
N136 H141 0.984 . S
N136 H142 0.985 . S
C137 C131 1.379 . S
C137 C134 1.363 1_565 S
C137 N135 1.356 . S
C138 C132 1.363 1_545 S
C138 C133 1.379 . S
C138 N136 1.356 . S
N139 C131 1.356 . S
N139 H145 0.984 . S
N139 H146 0.984 . S
N140 C133 1.356 . S
N140 H143 0.984 . S
N140 H144 0.985 . S
H141 N136 0.984 . S
H142 N136 0.985 . S
H143 N140 0.984 . S
H144 N140 0.985 . S
H145 N139 0.984 . S
H146 N139 0.984 . S
H147 N135 0.984 . S
H148 N135 0.985 . S
C149 C150 1.363 1_655 S
C149 C155 1.379 . S
C149 N157 1.356 . S
C150 C149 1.363 1_455 S
C150 C156 1.363 . S
C151 C152 1.361 1_455 S
C151 C156 1.379 . S
C151 N158 1.356 . S
C152 C151 1.361 1_655 S
C152 C155 1.365 . S
N153 C155 1.356 . S
N153 H165 0.984 . S
N153 H166 0.985 . S
N154 C156 1.356 . S
N154 H159 0.984 . S
N154 H160 0.985 . S
C155 C149 1.379 . S
C155 C152 1.365 . S
C155 N153 1.356 . S
C156 C150 1.363 . S
C156 C151 1.379 . S
C156 N154 1.356 . S
N157 C149 1.356 . S
N157 H163 0.984 . S
N157 H164 0.984 . S
N158 C151 1.356 . S
N158 H161 0.984 . S
N158 H162 0.985 . S
H159 N154 0.984 . S
H160 N154 0.985 . S
H161 N158 0.984 . S
H162 N158 0.985 . S
H163 N157 0.984 . S
H164 N157 0.984 . S
H165 N153 0.984 . S
H166 N153 0.985 . S
C167 C168 1.363 1_565 S
C167 C173 1.379 . S
C167 N175 1.356 . S
C168 C167 1.363 1_545 S
C168 C174 1.363 . S
C169 C170 1.363 . S
C169 C174 1.379 . S
C169 N176 1.356 . S
C170 C169 1.363 . S
C170 C173 1.363 1_545 S
N171 C173 1.356 . S
N171 H183 0.984 . S
N171 H184 0.985 . S
N172 C174 1.356 . S
N172 H177 0.984 . S
N172 H178 0.985 . S
C173 C167 1.379 . S
C173 C170 1.363 1_565 S
C173 N171 1.356 . S
C174 C168 1.363 . S
C174 C169 1.379 . S
C174 N172 1.356 . S
N175 C167 1.356 . S
N175 H181 0.984 . S
N175 H182 0.984 . S
N176 C169 1.356 . S
N176 H179 0.984 . S
N176 H180 0.985 . S
H177 N172 0.984 . S
H178 N172 0.985 . S
H179 N176 0.984 . S
H180 N176 0.985 . S
H181 N175 0.984 . S
H182 N175 0.984 . S
H183 N171 0.984 . S
H184 N171 0.985 . S
C185 C186 1.363 1_455 S
C185 C191 1.379 . S
C185 N193 1.356 . S
C186 C185 1.363 1_655 S
C186 C192 1.363 . S
C187 C188 1.367 . S
C187 C192 1.379 . S
C187 N194 1.356 . S
C188 C187 1.367 . S
C188 C191 1.359 1_655 S
N189 C191 1.356 . S
N189 H201 0.984 . S
N189 H202 0.985 . S
N190 C192 1.356 . S
N190 H195 0.984 . S
N190 H196 0.985 . S
C191 C185 1.379 . S
C191 C188 1.359 1_455 S
C191 N189 1.356 . S
C192 C186 1.363 . S
C192 C187 1.379 . S
C192 N190 1.356 . S
N193 C185 1.356 . S
N193 H199 0.984 . S
N193 H200 0.984 . S
N194 C187 1.356 . S
N194 H197 0.984 . S
N194 H198 0.985 . S
H195 N190 0.984 . S
H196 N190 0.985 . S
H197 N194 0.984 . S
H198 N194 0.985 . S
H199 N193 0.984 . S
H200 N193 0.984 . S
H201 N189 0.984 . S
H202 N189 0.985 . S
C203 C204 1.355 1_545 S
C203 C209 1.379 . S
C203 N211 1.356 . S
C204 C203 1.355 1_565 S
C204 C210 1.371 . S
C205 C206 1.363 1_565 S
C205 C210 1.379 . S
C205 N212 1.356 . S
C206 C205 1.363 1_545 S
C206 C209 1.363 . S
N207 C209 1.356 . S
N207 H219 0.984 . S
N207 H220 0.985 . S
N208 C210 1.356 . S
N208 H213 0.984 . S
N208 H214 0.985 . S
C209 C203 1.379 . S
C209 C206 1.363 . S
C209 N207 1.356 . S
C210 C204 1.371 . S
C210 C205 1.379 . S
C210 N208 1.356 . S
N211 C203 1.356 . S
N211 H217 0.984 . S
N211 H218 0.984 . S
N212 C205 1.356 . S
N212 H215 0.984 . S
N212 H216 0.985 . S
H213 N208 0.984 . S
H214 N208 0.985 . S
H215 N212 0.984 . S
H216 N212 0.985 . S
H217 N211 0.984 . S
H218 N211 0.984 . S
H219 N207 0.984 . S
H220 N207 0.985 . S
C221 C222 1.363 1_655 S
C221 C227 1.379 . S
C221 N229 1.356 . S
C222 C221 1.363 1_455 S
C222 C228 1.363 . S
C223 C224 1.363 . S
C223 C228 1.379 . S
C223 N230 1.356 . S
C224 C223 1.363 . S
C224 C227 1.363 1_455 S
N225 C227 1.356 . S
N225 H237 0.984 . S
N225 H238 0.985 . S
N226 C228 1.356 . S
N226 H231 0.984 . S
N226 H232 0.985 . S
C227 C221 1.379 . S
C227 C224 1.363 1_655 S
C227 N225 1.356 . S
C228 C222 1.363 . S
C228 C223 1.379 . S
C228 N226 1.356 . S
N229 C221 1.356 . S
N229 H235 0.984 . S
N229 H236 0.984 . S
N230 C223 1.356 . S
N230 H233 0.984 . S
N230 H234 0.985 . S
H231 N226 0.984 . S
H232 N226 0.985 . S
H233 N230 0.984 . S
H234 N230 0.985 . S
H235 N229 0.984 . S
H236 N229 0.984 . S
H237 N225 0.984 . S
H238 N225 0.985 . S
C239 C240 1.363 . S
C239 C245 1.379 . S
C239 N247 1.356 . S
C240 C239 1.363 . S
C240 C246 1.363 1_545 S
C241 C242 1.363 1_565 S
C241 C246 1.379 . S
C241 N248 1.356 . S
C242 C241 1.363 1_545 S
C242 C245 1.363 . S
N243 C245 1.356 . S
N243 H255 0.984 . S
N243 H256 0.985 . S
N244 C246 1.356 . S
N244 H249 0.984 . S
N244 H250 0.985 . S
C245 C239 1.379 . S
C245 C242 1.363 . S
C245 N243 1.356 . S
C246 C240 1.363 1_565 S
C246 C241 1.379 . S
C246 N244 1.356 . S
N247 C239 1.356 . S
N247 H253 0.984 . S
N247 H254 0.984 . S
N248 C241 1.356 . S
N248 H251 0.984 . S
N248 H252 0.985 . S
H249 N244 0.984 . S
H250 N244 0.985 . S
H251 N248 0.984 . S
H252 N248 0.985 . S
H253 N247 0.984 . S
H254 N247 0.984 . S
H255 N243 0.984 . S
H256 N243 0.985 . S
C257 C258 1.363 1_554 S
C257 C263 1.379 . S
C257 N265 1.356 . S
C258 C257 1.363 1_556 S
C258 C264 1.363 . S
C259 C260 1.352 1_556 S
C259 C264 1.379 . S
C259 N266 1.356 . S
C260 C259 1.352 1_554 S
C260 C263 1.374 . S
N261 C263 1.356 . S
N261 H273 0.984 . S
N261 H274 0.985 . S
N262 C264 1.356 . S
N262 H267 0.984 . S
N262 H268 0.985 . S
C263 C257 1.379 . S
C263 C260 1.374 . S
C263 N261 1.356 . S
C264 C258 1.363 . S
C264 C259 1.379 . S
C264 N262 1.356 . S
N265 C257 1.356 . S
N265 H271 0.984 . S
N265 H272 0.984 . S
N266 C259 1.356 . S
N266 H269 0.984 . S
N266 H270 0.985 . S
H267 N262 0.984 . S
H268 N262 0.985 . S
H269 N266 0.984 . S
H270 N266 0.985 . S
H271 N265 0.984 . S
H272 N265 0.984 . S
H273 N261 0.984 . S
H274 N261 0.985 . S
C275 C276 1.363 . S
C275 C281 1.379 . S
C275 N283 1.356 . S
C276 C275 1.363 . S
C276 C282 1.363 1_554 S
C277 C278 1.363 1_556 S
C277 C282 1.379 . S
C277 N284 1.356 . S
C278 C277 1.363 1_554 S
C278 C281 1.363 . S
N279 C281 1.356 . S
N279 H291 0.984 . S
N279 H292 0.985 . S
N280 C282 1.356 . S
N280 H285 0.984 . S
N280 H286 0.985 . S
C281 C275 1.379 . S
C281 C278 1.363 . S
C281 N279 1.356 . S
C282 C276 1.363 1_556 S
C282 C277 1.379 . S
C282 N280 1.356 . S
N283 C275 1.356 . S
N283 H289 0.984 . S
N283 H290 0.984 . S
N284 C277 1.356 . S
N284 H287 0.984 . S
N284 H288 0.985 . S
H285 N280 0.984 . S
H286 N280 0.985 . S
H287 N284 0.984 . S
H288 N284 0.985 . S
H289 N283 0.984 . S
H290 N283 0.984 . S
H291 N279 0.984 . S
H292 N279 0.985 . S
C293 C294 1.363 . S
C293 C299 1.379 . S
C293 N301 1.356 . S
C294 C293 1.363 . S
C294 C300 1.363 1_554 S
C295 C296 1.363 1_556 S
C295 C300 1.379 . S
C295 N302 1.356 . S
C296 C295 1.363 1_554 S
C296 C299 1.363 . S
N297 C299 1.356 . S
N297 H309 0.984 . S
N297 H310 0.985 . S
N298 C300 1.356 . S
N298 H303 0.984 . S
N298 H304 0.985 . S
C299 C293 1.379 . S
C299 C296 1.363 . S
C299 N297 1.356 . S
C300 C294 1.363 1_556 S
C300 C295 1.379 . S
C300 N298 1.356 . S
N301 C293 1.356 . S
N301 H307 0.984 . S
N301 H308 0.984 . S
N302 C295 1.356 . S
N302 H305 0.984 . S
N302 H306 0.985 . S
H303 N298 0.984 . S
H304 N298 0.985 . S
H305 N302 0.984 . S
H306 N302 0.985 . S
H307 N301 0.984 . S
H308 N301 0.984 . S
H309 N297 0.984 . S
H310 N297 0.985 . S
C311 C312 1.352 1_554 S
C311 C317 1.379 . S
C311 N319 1.356 . S
C312 C311 1.352 1_556 S
C312 C318 1.374 . S
C313 C314 1.363 1_556 S
C313 C318 1.379 . S
C313 N320 1.356 . S
C314 C313 1.363 1_554 S
C314 C317 1.363 . S
N315 C317 1.356 . S
N315 H327 0.984 . S
N315 H328 0.985 . S
N316 C318 1.356 . S
N316 H321 0.984 . S
N316 H322 0.985 . S
C317 C311 1.379 . S
C317 C314 1.363 . S
C317 N315 1.356 . S
C318 C312 1.374 . S
C318 C313 1.379 . S
C318 N316 1.356 . S
N319 C311 1.356 . S
N319 H325 0.984 . S
N319 H326 0.984 . S
N320 C313 1.356 . S
N320 H323 0.984 . S
N320 H324 0.985 . S
H321 N316 0.984 . S
H322 N316 0.985 . S
H323 N320 0.984 . S
H324 N320 0.985 . S
H325 N319 0.984 . S
H326 N319 0.984 . S
H327 N315 0.984 . S
H328 N315 0.985 . S
C116 C64 1.293 1_655 S
C114 C9 1.275 . S
C134 C71 1.561 . S
C132 C38 1.506 1_565 S
C152 C66 1.307 . S
C150 C17 1.276 1_455 S
C170 C72 1.543 . S
C168 C30 1.504 . S
C186 C19 1.275 . S
C188 C65 1.286 1_655 S
C206 C74 1.558 . S
C204 C33 1.491 1_565 S
C222 C12 1.268 1_455 S
C224 C63 1.305 . S
C240 C40 1.506 . S
C242 C73 1.535 . S
C258 C59 1.812 1_556 S
C260 C68 1.855 . S
C276 C61 1.812 . S
C278 C67 1.830 . S
C296 C70 1.838 . S
C294 C51 1.810 . S
C314 C69 1.854 . S
C312 C54 1.796 1_556 S
