# Generated by pormake.
# Topology pto, (3,4)-cn, num edge types: 1
# Building blocks:
#     Node 0, Type 0, BuildingBlock: QEWDON_clean_linker_0, # of connection points: 3
#     Node 1, Type 0, BuildingBlock: QEWDON_clean_linker_0, # of connection points: 3
#     Node 2, Type 0, BuildingBlock: QEWDON_clean_linker_0, # of connection points: 3
#     Node 3, Type 0, BuildingBlock: QEWDON_clean_linker_0, # of connection points: 3
#     Node 4, Type 0, BuildingBlock: QEWDON_clean_linker_0, # of connection points: 3
#     Node 5, Type 0, BuildingBlock: QEWDON_clean_linker_0, # of connection points: 3
#     Node 6, Type 0, BuildingBlock: QEWDON_clean_linker_0, # of connection points: 3
#     Node 7, Type 0, BuildingBlock: QEWDON_clean_linker_0, # of connection points: 3
#     Node 8, Type 1, BuildingBlock: NAWXER_clean_sbu_0, # of connection points: 4
#     Node 9, Type 1, BuildingBlock: NAWXER_clean_sbu_0, # of connection points: 4
#     Node 10, Type 1, BuildingBlock: NAWXER_clean_sbu_0, # of connection points: 4
#     Node 11, Type 1, BuildingBlock: NAWXER_clean_sbu_0, # of connection points: 4
#     Node 12, Type 1, BuildingBlock: NAWXER_clean_sbu_0, # of connection points: 4
#     Node 13, Type 1, BuildingBlock: NAWXER_clean_sbu_0, # of connection points: 4
#     Edge 14, Type (0, 1), BuildingBlock: CIFDUS_clean_linker_0, # of connection points: 2
#     Edge 15, Type (0, 1), BuildingBlock: CIFDUS_clean_linker_0, # of connection points: 2
#     Edge 16, Type (0, 1), BuildingBlock: CIFDUS_clean_linker_0, # of connection points: 2
#     Edge 17, Type (0, 1), BuildingBlock: CIFDUS_clean_linker_0, # of connection points: 2
#     Edge 18, Type (0, 1), BuildingBlock: CIFDUS_clean_linker_0, # of connection points: 2
#     Edge 19, Type (0, 1), BuildingBlock: CIFDUS_clean_linker_0, # of connection points: 2
#     Edge 20, Type (0, 1), BuildingBlock: CIFDUS_clean_linker_0, # of connection points: 2
#     Edge 21, Type (0, 1), BuildingBlock: CIFDUS_clean_linker_0, # of connection points: 2
#     Edge 22, Type (0, 1), BuildingBlock: CIFDUS_clean_linker_0, # of connection points: 2
#     Edge 23, Type (0, 1), BuildingBlock: CIFDUS_clean_linker_0, # of connection points: 2
#     Edge 24, Type (0, 1), BuildingBlock: CIFDUS_clean_linker_0, # of connection points: 2
#     Edge 25, Type (0, 1), BuildingBlock: CIFDUS_clean_linker_0, # of connection points: 2
#     Edge 26, Type (0, 1), BuildingBlock: CIFDUS_clean_linker_0, # of connection points: 2
#     Edge 27, Type (0, 1), BuildingBlock: CIFDUS_clean_linker_0, # of connection points: 2
#     Edge 28, Type (0, 1), BuildingBlock: CIFDUS_clean_linker_0, # of connection points: 2
#     Edge 29, Type (0, 1), BuildingBlock: CIFDUS_clean_linker_0, # of connection points: 2
#     Edge 30, Type (0, 1), BuildingBlock: CIFDUS_clean_linker_0, # of connection points: 2
#     Edge 31, Type (0, 1), BuildingBlock: CIFDUS_clean_linker_0, # of connection points: 2
#     Edge 32, Type (0, 1), BuildingBlock: CIFDUS_clean_linker_0, # of connection points: 2
#     Edge 33, Type (0, 1), BuildingBlock: CIFDUS_clean_linker_0, # of connection points: 2
#     Edge 34, Type (0, 1), BuildingBlock: CIFDUS_clean_linker_0, # of connection points: 2
#     Edge 35, Type (0, 1), BuildingBlock: CIFDUS_clean_linker_0, # of connection points: 2
#     Edge 36, Type (0, 1), BuildingBlock: CIFDUS_clean_linker_0, # of connection points: 2
#     Edge 37, Type (0, 1), BuildingBlock: CIFDUS_clean_linker_0, # of connection points: 2
# Relax obj value: 0.023
# Max RMSD: 0.213
# Mean RMSD: 0.075
data_MOF--net-pto--node1-NAWXER_clean_sbu_0--node2-QEWDON_clean_linker_0--edge1-CIFDUS_clean_linker_0
_symmetry_space_group_name_H-M    P1
_symmetry_Int_Tables_number       1
_symmetry_cell_setting            triclinic
loop_
_symmetry_equiv_pos_as_xyz
'x, y, z'
_cell_length_a     34.861407
_cell_length_b     36.514588
_cell_length_c     34.789285
_cell_angle_alpha  97.949044
_cell_angle_beta   107.33994
_cell_angle_gamma 100.33744
loop_
_atom_site_label
_atom_site_type_symbol
_atom_site_fract_x
_atom_site_fract_y
_atom_site_fract_z
_atom_type_partial_charge
H0 H 0.39891 0.36065 0.28565 0.0
C1 C 0.39959 0.33425 0.29646 0.0
C2 C 0.4124 0.30524 0.27601 0.0
C3 C 0.38824 0.32972 0.33127 0.0
H4 H 0.42197 0.24807 0.27479 0.0
C5 C 0.41223 0.27081 0.29009 0.0
C6 C 0.40087 0.26603 0.32488 0.0
C7 C 0.38938 0.29571 0.34553 0.0
C8 C 0.37625 0.36089 0.35353 0.0
H9 H 0.38018 0.29188 0.37215 0.0
C10 C 0.34674 0.37923 0.33227 0.0
C11 C 0.33624 0.4093 0.3537 0.0
C12 C 0.39475 0.37262 0.39639 0.0
H13 H 0.41767 0.35906 0.41334 0.0
C14 C 0.38437 0.40242 0.4177 0.0
H15 H 0.33208 0.37022 0.29923 0.0
C16 C 0.35541 0.42074 0.39656 0.0
H17 H 0.34757 0.44362 0.41382 0.0
H18 H 0.39884 0.41137 0.4507 0.0
H19 H 0.41272 0.84771 0.78518 0.0
C20 C 0.38912 0.82571 0.78828 0.0
C21 C 0.40025 0.79576 0.80743 0.0
C22 C 0.34775 0.82853 0.77513 0.0
H23 H 0.37717 0.74532 0.82755 0.0
C24 C 0.36912 0.76802 0.81204 0.0
C25 C 0.32761 0.76989 0.79792 0.0
C26 C 0.31721 0.80015 0.77944 0.0
C27 C 0.33642 0.86274 0.76063 0.0
H28 H 0.28524 0.80225 0.76941 0.0
C29 C 0.34893 0.87649 0.72924 0.0
C30 C 0.33543 0.90769 0.7146 0.0
C31 C 0.31186 0.88147 0.77816 0.0
H32 H 0.30241 0.87188 0.80277 0.0
C33 C 0.29933 0.91281 0.76433 0.0
H34 H 0.36756 0.86214 0.71521 0.0
C35 C 0.31074 0.92571 0.73258 0.0
H36 H 0.30031 0.94992 0.72203 0.0
H37 H 0.28043 0.92699 0.77805 0.0
H38 H 0.91483 0.7171 0.4038 0.0
C39 C 0.89629 0.72316 0.3754 0.0
C40 C 0.89932 0.70693 0.33753 0.0
C41 C 0.86842 0.74637 0.37681 0.0
H42 H 0.87406 0.6998 0.27194 0.0
C43 C 0.87275 0.71318 0.30106 0.0
C44 C 0.84404 0.73568 0.3017 0.0
C45 C 0.84329 0.75327 0.34006 0.0
C46 C 0.86073 0.75871 0.4157 0.0
H47 H 0.82185 0.77108 0.3416 0.0
C48 C 0.8654 0.79746 0.43209 0.0
C49 C 0.85347 0.80845 0.46675 0.0
C50 C 0.84488 0.73085 0.43445 0.0
H51 H 0.84072 0.70094 0.42212 0.0
C52 C 0.83234 0.74117 0.46797 0.0
H53 H 0.87864 0.81862 0.41782 0.0
C54 C 0.83589 0.77937 0.48356 0.0
H55 H 0.82408 0.7857 0.50851 0.0
H56 H 0.81902 0.71938 0.4815 0.0
H57 H 0.90462 0.37133 0.97101 0.0
C58 C 0.89932 0.34817 0.94548 0.0
C59 C 0.91738 0.35404 0.91524 0.0
C60 C 0.87474 0.31248 0.94309 0.0
H61 H 0.92385 0.32921 0.85848 0.0
C62 C 0.91035 0.3241 0.88212 0.0
C63 C 0.88664 0.28776 0.87961 0.0
C64 C 0.86893 0.28226 0.91049 0.0
C65 C 0.85632 0.30668 0.9756 0.0
H66 H 0.85087 0.25448 0.90948 0.0
C67 C 0.83086 0.32999 0.98492 0.0
C68 C 0.81446 0.32524 0.01677 0.0
C69 C 0.86506 0.27843 0.99817 0.0
H70 H 0.88471 0.26031 0.99155 0.0
C71 C 0.84925 0.27391 0.03009 0.0
H72 H 0.82374 0.35166 0.96733 0.0
C73 C 0.82421 0.29717 0.03946 0.0
H74 H 0.81165 0.29261 0.06385 0.0
H75 H 0.8563 0.25219 0.04754 0.0
H76 H 0.99418 0.84117 0.87117 0.0
C77 C 0.97012 0.83772 0.88512 0.0
C78 C 0.9469 0.8012 0.88211 0.0
C79 C 0.96388 0.86978 0.90743 0.0
H80 H 0.89718 0.7692 0.89712 0.0
C81 C 0.91549 0.79734 0.89994 0.0
C82 C 0.90871 0.82934 0.92263 0.0
C83 C 0.93355 0.8655 0.92647 0.0
C84 C 0.99072 0.90747 0.91203 0.0
H85 H 0.92979 0.89036 0.94465 0.0
C86 C 0.99237 0.92178 0.877 0.0
C87 C 0.01985 0.95645 0.88046 0.0
C88 C 0.01631 0.92819 0.95106 0.0
H89 H 0.01562 0.91746 0.97842 0.0
C90 C 0.04394 0.96237 0.9549 0.0
H91 H 0.97142 0.90604 0.84717 0.0
C92 C 0.04599 0.97634 0.91995 0.0
H93 H 0.06819 0.00262 0.92397 0.0
H94 H 0.0641 0.97797 0.98507 0.0
H95 H 0.88399 0.32184 0.39164 0.0
C96 C 0.86135 0.31764 0.3613 0.0
C97 C 0.87373 0.3291 0.32906 0.0
C98 C 0.81949 0.30216 0.3549 0.0
H99 H 0.85312 0.33327 0.26524 0.0
C100 C 0.84376 0.32403 0.29005 0.0
C101 C 0.80161 0.30917 0.28328 0.0
C102 C 0.7899 0.29804 0.31598 0.0
C103 C 0.80587 0.29349 0.38969 0.0
H104 H 0.75748 0.28755 0.31176 0.0
C105 C 0.82074 0.26678 0.41213 0.0
C106 C 0.80604 0.25765 0.44405 0.0
C107 C 0.777 0.3117 0.39996 0.0
H108 H 0.76537 0.33249 0.38317 0.0
C109 C 0.76319 0.3035 0.43218 0.0
H110 H 0.84246 0.25222 0.40373 0.0
C111 C 0.77747 0.27665 0.45405 0.0
H112 H 0.76624 0.27086 0.47898 0.0
H113 H 0.74118 0.31788 0.44012 0.0
H114 H 0.31537 0.31022 0.74566 0.0
C115 C 0.29365 0.32562 0.75269 0.0
C116 C 0.29848 0.33978 0.794 0.0
C117 C 0.26225 0.33281 0.7205 0.0
H118 H 0.27651 0.37417 0.83449 0.0
C119 C 0.2719 0.36214 0.80277 0.0
C120 C 0.23982 0.36922 0.77087 0.0
C121 C 0.2347 0.35324 0.73005 0.0
C122 C 0.25903 0.32089 0.67675 0.0
H123 H 0.20906 0.35675 0.70524 0.0
C124 C 0.26582 0.28551 0.66212 0.0
C125 C 0.26199 0.27452 0.62048 0.0
C126 C 0.24911 0.34534 0.6492 0.0
H127 H 0.24476 0.37318 0.65958 0.0
C128 C 0.2452 0.33446 0.60797 0.0
H129 H 0.27317 0.26619 0.68275 0.0
C130 C 0.25146 0.29926 0.59358 0.0
H131 H 0.24888 0.29168 0.56154 0.0
H132 H 0.23759 0.35354 0.58714 0.0
H133 H 0.38045 0.82512 0.23579 0.0
C134 C 0.36482 0.80084 0.24454 0.0
C135 C 0.35002 0.80657 0.2777 0.0
C136 C 0.35583 0.76426 0.22032 0.0
H137 H 0.31473 0.78073 0.31214 0.0
C138 C 0.32748 0.77557 0.28757 0.0
C139 C 0.31877 0.73871 0.26433 0.0
C140 C 0.33361 0.73329 0.231 0.0
C141 C 0.3641 0.75893 0.18067 0.0
H142 H 0.32677 0.70506 0.21236 0.0
C143 C 0.4033 0.7737 0.1779 0.0
C144 C 0.41004 0.76708 0.13979 0.0
C145 C 0.3317 0.73894 0.14478 0.0
H146 H 0.30111 0.72798 0.14588 0.0
C147 C 0.33815 0.73324 0.107 0.0
H148 H 0.42866 0.78887 0.20534 0.0
C149 C 0.37706 0.74697 0.1045 0.0
H150 H 0.38154 0.7417 0.07489 0.0
H151 H 0.31295 0.71786 0.07959 0.0
C152 C 0.07115 0.48811 0.35946 0.0
C153 C 0.16566 0.59378 0.33606 0.0
O154 O 0.099 0.51344 0.38774 0.0
Zn155 Zn 0.11879 0.54333 0.3515 0.0
O156 O 0.06508 0.49011 0.32179 0.0
Zn157 Zn 0.0871 0.52451 0.28536 0.0
O158 O 0.10707 0.48832 0.25342 0.0
O159 O 0.14406 0.50539 0.31972 0.0
O160 O 0.13795 0.57272 0.30362 0.0
O161 O 0.16577 0.58765 0.37132 0.0
O162 O 0.06886 0.56821 0.32765 0.0
O163 O 0.0395 0.54526 0.26101 0.0
C164 C 0.13793 0.48682 0.28357 0.0
C165 C 0.04092 0.56701 0.29361 0.0
C166 C 0.05134 0.53667 0.8771 0.0
C167 C 0.16645 0.62485 0.85961 0.0
O168 O 0.0853 0.55314 0.90553 0.0
Zn169 Zn 0.11064 0.58166 0.87198 0.0
O170 O 0.04517 0.54336 0.84088 0.0
Zn171 Zn 0.0746 0.57554 0.80742 0.0
O172 O 0.08087 0.53612 0.76708 0.0
O173 O 0.11844 0.53706 0.83095 0.0
O174 O 0.13434 0.61215 0.82756 0.0
O175 O 0.16678 0.61441 0.89319 0.0
O176 O 0.07505 0.62281 0.8587 0.0
O177 O 0.03886 0.61067 0.79239 0.0
C178 C 0.10623 0.52248 0.79248 0.0
C179 C 0.04941 0.63121 0.82823 0.0
C180 C 0.34588 0.00754 0.52725 0.0
C181 C 0.38315 0.09896 0.44625 0.0
O182 O 0.31513 0.00997 0.49714 0.0
Zn183 Zn 0.30353 0.03983 0.44744 0.0
O184 O 0.38174 0.02714 0.53242 0.0
Zn185 Zn 0.36568 0.05239 0.48635 0.0
O186 O 0.32726 0.08694 0.50473 0.0
O187 O 0.26495 0.06759 0.45824 0.0
O188 O 0.40697 0.09072 0.47771 0.0
O189 O 0.34481 0.08186 0.43221 0.0
O190 O 0.28331 1.00023 0.39971 0.0
O191 O 0.34947 0.0067 0.43343 0.0
C192 C 0.28961 0.08978 0.49114 0.0
C193 C 0.31675 0.9898 0.403 0.0
C194 C 0.70375 0.7429 0.07685 0.0
C195 C 0.60522 0.75838 0.95073 0.0
O196 O 0.68549 0.71723 0.04447 0.0
Zn197 Zn 0.65537 0.74872 0.01269 0.0
O198 O 0.69793 0.77663 0.07811 0.0
Zn199 Zn 0.66386 0.80834 0.03906 0.0
O200 O 0.62774 0.82242 0.07002 0.0
O201 O 0.61534 0.76078 0.04593 0.0
O202 O 0.62074 0.78879 0.9786 0.0
O203 O 0.61684 0.72803 0.95724 0.0
O204 O 0.70432 0.78587 0.00388 0.0
O205 O 0.7079 0.84529 0.03077 0.0
C206 C 0.60717 0.78872 0.06614 0.0
C207 C 0.72176 0.82124 0.01179 0.0
C208 C 0.97581 0.067 0.69963 0.0
C209 C 0.912 0.12546 0.58684 0.0
O210 O 0.93651 0.06109 0.69044 0.0
Zn211 Zn 0.88545 0.07433 0.64688 0.0
O212 O 0.99418 0.08561 0.67935 0.0
Zn213 Zn 0.9445 0.09441 0.64198 0.0
O214 O 0.92709 0.13129 0.68477 0.0
O215 O 0.86486 0.10412 0.68376 0.0
O216 O 0.94975 0.12463 0.60162 0.0
O217 O 0.88551 0.10768 0.60074 0.0
O218 O 0.85327 0.02413 0.61741 0.0
O219 O 0.91307 0.03775 0.60672 0.0
C220 C 0.89657 0.13173 0.69815 0.0
C221 C 0.87859 0.01441 0.60055 0.0
C222 C 0.60076 0.30271 0.09623 0.0
C223 C 0.48922 0.33421 0.98974 0.0
O224 O 0.57248 0.2782 0.06732 0.0
Zn225 Zn 0.54345 0.31548 0.04264 0.0
O226 O 0.60004 0.33789 0.10002 0.0
Zn227 Zn 0.56563 0.37502 0.07161 0.0
O228 O 0.54557 0.39471 0.11482 0.0
O229 O 0.51875 0.3335 0.08926 0.0
O230 O 0.51326 0.36293 0.01716 0.0
O231 O 0.49544 0.30119 0.99221 0.0
O232 O 0.59101 0.34671 0.02459 0.0
O233 O 0.60946 0.40638 0.05867 0.0
C234 C 0.52198 0.36373 0.11473 0.0
C235 C 0.61405 0.38031 0.03323 0.0
H236 H 0.25764 0.37752 0.30158 0.0
H237 H 0.34524 0.48509 0.35826 0.0
H238 H 0.2914 0.51893 0.33364 0.0
H239 H 0.21813 0.51773 0.30603 0.0
H240 H 0.12855 0.41117 0.25257 0.0
H241 H 0.18435 0.37691 0.26472 0.0
C242 C 0.26497 0.40835 0.30757 0.0
C243 C 0.30511 0.4289 0.33218 0.0
C244 C 0.23349 0.42766 0.29404 0.0
C245 C 0.31439 0.4688 0.33992 0.0
C246 C 0.28367 0.48812 0.32584 0.0
C247 C 0.21104 0.48705 0.2959 0.0
C248 C 0.16965 0.46682 0.2785 0.0
C249 C 0.24292 0.46784 0.30432 0.0
C250 C 0.16039 0.4272 0.26558 0.0
C251 C 0.19225 0.40769 0.27306 0.0
H252 H 0.32764 0.74265 0.86736 0.0
H253 H 0.25429 0.73231 0.74048 0.0
H254 H 0.19879 0.68636 0.74879 0.0
H255 H 0.17075 0.65039 0.79164 0.0
H256 H 0.24198 0.65981 0.91905 0.0
H257 H 0.29906 0.70486 0.91091 0.0
C258 C 0.29962 0.72999 0.84151 0.0
C259 C 0.29497 0.7409 0.80333 0.0
C260 C 0.2676 0.70366 0.84661 0.0
C261 C 0.25838 0.72467 0.7702 0.0
C262 C 0.22673 0.69834 0.77491 0.0
C263 C 0.1987 0.66211 0.81784 0.0
C264 C 0.20198 0.6517 0.856 0.0
C265 C 0.23093 0.68788 0.81297 0.0
C266 C 0.23858 0.66733 0.88937 0.0
C267 C 0.27118 0.69308 0.88469 0.0
H268 H 0.89009 0.6436 0.27952 0.0
H269 H 0.97782 0.71684 0.39112 0.0
H270 H 0.02877 0.68008 0.38695 0.0
H271 H 0.04908 0.62828 0.35122 0.0
H272 H 0.96382 0.55785 0.23704 0.0
H273 H 0.91175 0.59376 0.2417 0.0
C274 C 0.92053 0.65214 0.30266 0.0
C275 C 0.92984 0.68328 0.33562 0.0
C276 C 0.95033 0.63171 0.29931 0.0
C277 C 0.96925 0.69277 0.3658 0.0
C278 C 0.99868 0.672 0.3632 0.0
C279 C 0.01914 0.62079 0.3272 0.0
C280 C 0.01027 0.5903 0.29387 0.0
C281 C 0.9896 0.64159 0.33002 0.0
C282 C 0.97149 0.58127 0.26288 0.0
C283 C 0.94166 0.60164 0.26571 0.0
H284 H 0.90606 0.3994 0.86015 0.0
H285 H 0.98858 0.3915 0.97697 0.0
H286 H 0.03678 0.44992 0.978 0.0
H287 H 0.0578 0.50018 0.94209 0.0
H288 H 0.97294 0.50739 0.82562 0.0
H289 H 0.92328 0.45289 0.82835 0.0
C290 C 0.93445 0.41081 0.88596 0.0
C291 C 0.94418 0.39129 0.91818 0.0
C292 C 0.96166 0.44425 0.88636 0.0
C293 C 0.98068 0.40629 0.95181 0.0
C294 C 0.00821 0.43954 0.95231 0.0
C295 C 0.02817 0.4902 0.91774 0.0
C296 C 0.01953 0.50757 0.88344 0.0
C297 C 0.99941 0.45841 0.91929 0.0
C298 C 0.98082 0.49432 0.85217 0.0
C299 C 0.95225 0.46304 0.85358 0.0
H300 H 0.44303 0.25466 0.39978 0.0
H301 H 0.35431 0.19639 0.28197 0.0
H302 H 0.34325 0.13795 0.30835 0.0
H303 H 0.35395 0.10562 0.36689 0.0
H304 H 0.44472 0.16284 0.48414 0.0
H305 H 0.46047 0.21941 0.45599 0.0
C306 C 0.42181 0.2289 0.37985 0.0
C307 C 0.39923 0.22964 0.33918 0.0
C308 C 0.41591 0.19542 0.39518 0.0
C309 C 0.37202 0.19625 0.31335 0.0
C310 C 0.36557 0.16298 0.32849 0.0
C311 C 0.37764 0.1303 0.38607 0.0
C312 C 0.39786 0.13029 0.42761 0.0
C313 C 0.38661 0.16253 0.36962 0.0
C314 C 0.42882 0.16219 0.45204 0.0
C315 C 0.43761 0.1946 0.43603 0.0
H316 H 0.4353 0.73435 0.81052 0.0
H317 H 0.46467 0.85663 0.84927 0.0
H318 H 0.53379 0.85571 0.8916 0.0
H319 H 0.5817 0.82003 0.92563 0.0
H320 H 0.55111 0.69743 0.89272 0.0
H321 H 0.48673 0.69867 0.84012 0.0
C322 C 0.45691 0.76083 0.82804 0.0
C323 C 0.44441 0.79545 0.827 0.0
C324 C 0.49624 0.76002 0.8538 0.0
C325 C 0.47327 0.82957 0.84905 0.0
C326 C 0.51279 0.82906 0.87372 0.0
C327 C 0.56129 0.7935 0.9066 0.0
C328 C 0.57083 0.75864 0.91361 0.0
C329 C 0.52396 0.7944 0.8775 0.0
C330 C 0.54438 0.72465 0.88815 0.0
C331 C 0.50745 0.72535 0.85825 0.0
H332 H 0.86345 0.83995 0.54673 0.0
H333 H 0.85581 0.87125 0.42962 0.0
H334 H 0.86474 0.93749 0.46072 0.0
H335 H 0.8734 0.98715 0.52144 0.0
H336 H 0.86962 0.95289 0.63416 0.0
H337 H 0.86446 0.88693 0.60382 0.0
C338 C 0.8624 0.86062 0.52716 0.0
C339 C 0.85872 0.8496 0.4854 0.0
C340 C 0.86508 0.89846 0.54452 0.0
C341 C 0.85941 0.87816 0.46193 0.0
C342 C 0.86402 0.9163 0.47961 0.0
C343 C 0.871 0.96502 0.53901 0.0
C344 C 0.87173 0.97459 0.57986 0.0
C345 C 0.86673 0.92681 0.52087 0.0
C346 C 0.86865 0.94594 0.60252 0.0
C347 C 0.86597 0.90833 0.58527 0.0
H348 H 0.74631 0.33681 0.96171 0.0
H349 H 0.81705 0.36334 0.09103 0.0
H350 H 0.7635 0.39164 0.10651 0.0
H351 H 0.69225 0.39965 0.08428 0.0
H352 H 0.61829 0.36582 0.95614 0.0
H353 H 0.67767 0.35105 0.93874 0.0
C354 C 0.75042 0.34973 0.99312 0.0
C355 C 0.78539 0.34783 0.02522 0.0
C356 C 0.71888 0.36485 0.00187 0.0
C357 C 0.79015 0.36416 0.06588 0.0
C358 C 0.7596 0.3804 0.07472 0.0
C359 C 0.68982 0.39066 0.0524 0.0
C360 C 0.65142 0.38457 0.02135 0.0
C361 C 0.72324 0.37977 0.04312 0.0
C362 C 0.64791 0.37144 0.98031 0.0
C363 C 0.68167 0.36248 0.9705 0.0
H364 H 0.28126 0.91451 0.6441 0.0
H365 H 0.41167 0.93191 0.70757 0.0
H366 H 0.42715 0.96316 0.65393 0.0
H367 H 0.40287 0.99004 0.59163 0.0
H368 H 0.27157 0.97096 0.52896 0.0
H369 H 0.25726 0.93592 0.5795 0.0
C370 C 0.31307 0.92481 0.64587 0.0
C371 C 0.34531 0.92132 0.67971 0.0
C372 C 0.32155 0.94276 0.61525 0.0
C373 C 0.3864 0.93428 0.68163 0.0
C374 C 0.39518 0.95235 0.65115 0.0
C375 C 0.37117 0.97796 0.5889 0.0
C376 C 0.33841 0.9836 0.55668 0.0
C377 C 0.36294 0.95751 0.61823 0.0
C378 C 0.29749 0.96736 0.55343 0.0
C379 C 0.28916 0.94727 0.58239 0.0
H380 H 0.85311 0.73368 0.22546 0.0
H381 H 0.76397 0.74269 0.28821 0.0
H382 H 0.7129 0.74504 0.22417 0.0
H383 H 0.69297 0.74424 0.14997 0.0
H384 H 0.77842 0.72674 0.08572 0.0
H385 H 0.83091 0.72566 0.15055 0.0
C386 C 0.82236 0.73523 0.22538 0.0
C387 C 0.81308 0.7383 0.26236 0.0
C388 C 0.79209 0.73421 0.18789 0.0
C389 C 0.773 0.74151 0.26098 0.0
C390 C 0.7433 0.74219 0.22407 0.0
C391 C 0.72286 0.73937 0.15028 0.0
C392 C 0.73204 0.73508 0.11357 0.0
C393 C 0.75246 0.73843 0.18739 0.0
C394 C 0.77076 0.72932 0.11381 0.0
C395 C 0.80078 0.72917 0.15083 0.0
H396 H 0.94382 0.27254 0.84457 0.0
H397 H 0.81741 0.23048 0.83716 0.0
H398 H 0.80909 0.17846 0.78072 0.0
H399 H 0.83771 0.14511 0.73269 0.0
H400 H 0.96348 0.18988 0.73941 0.0
H401 H 0.97145 0.24099 0.79599 0.0
C402 C 0.91417 0.25241 0.83031 0.0
C403 C 0.8813 0.25573 0.84522 0.0
C404 C 0.90933 0.223 0.79741 0.0
C405 C 0.8435 0.22855 0.82682 0.0
C406 C 0.83858 0.19888 0.79426 0.0
C407 C 0.86679 0.16613 0.74643 0.0
C408 C 0.89988 0.1635 0.73159 0.0
C409 C 0.87129 0.19583 0.7792 0.0
C410 C 0.93735 0.19108 0.74991 0.0
C411 C 0.94206 0.22038 0.78246 0.0
H412 H 0.46065 0.36961 0.26829 0.0
H413 H 0.39691 0.25459 0.20433 0.0
H414 H 0.42346 0.2635 0.14798 0.0
H415 H 0.46662 0.3029 0.11819 0.0
H416 H 0.53008 0.41816 0.18139 0.0
H417 H 0.50061 0.4105 0.23624 0.0
C418 C 0.45196 0.34665 0.24174 0.0
C419 C 0.42695 0.31136 0.24075 0.0
C420 C 0.46712 0.35206 0.20927 0.0
C421 C 0.41665 0.2818 0.20631 0.0
C422 C 0.43159 0.28696 0.17393 0.0
C423 C 0.47383 0.32654 0.14376 0.0
C424 C 0.50077 0.36102 0.14573 0.0
C425 C 0.45719 0.32181 0.17531 0.0
C426 C 0.50946 0.39134 0.17903 0.0
C427 C 0.49277 0.3869 0.21052 0.0
H428 H 0.02378 0.7899 0.89583 0.0
H429 H 0.89597 0.73567 0.8287 0.0
H430 H 0.91627 0.6788 0.80258 0.0
H431 H 0.971 0.64329 0.8019 0.0
H432 H 0.09783 0.69838 0.87259 0.0
H433 H 0.07746 0.75639 0.89331 0.0
C434 C 1.00034 0.76595 0.87485 0.0
C435 C 0.95847 0.76716 0.86401 0.0
C436 C 0.01217 0.73345 0.86049 0.0
C437 C 0.92844 0.7354 0.83766 0.0
C438 C 0.94006 0.70295 0.82262 0.0
C439 C 0.99403 0.66829 0.82125 0.0
C440 C 0.03583 0.66675 0.83567 0.0
C441 C 0.98189 0.70146 0.83418 0.0
C442 C 0.06546 0.699 0.86125 0.0
C443 C 0.05386 0.73213 0.87319 0.0
H444 H 0.92294 0.38768 0.39223 0.0
H445 H 0.92138 0.31681 0.28144 0.0
H446 H 0.98649 0.35753 0.28498 0.0
H447 H 0.0382 0.41758 0.31382 0.0
H448 H 0.04027 0.49004 0.42362 0.0
H449 H 0.98131 0.44387 0.42703 0.0
C450 C 0.93746 0.38061 0.36952 0.0
C451 C 0.917 0.34954 0.33622 0.0
C452 C 0.9748 0.40456 0.37146 0.0
C453 C 0.93611 0.34089 0.30692 0.0
C454 C 0.97336 0.36415 0.30895 0.0
C455 C 0.02628 0.4229 0.33903 0.0
C456 C 0.04316 0.45728 0.36818 0.0
C457 C 0.9921 0.39675 0.34018 0.0
C458 C 0.02784 0.46369 0.40091 0.0
C459 C 0.99388 0.43747 0.40257 0.0
H460 H 0.20499 0.41709 0.72414 0.0
H461 H 0.21213 0.37786 0.83728 0.0
H462 H 0.17001 0.42057 0.85266 0.0
H463 H 0.13306 0.47048 0.83523 0.0
H464 H 0.12115 0.50593 0.71984 0.0
H465 H 0.16162 0.46151 0.70308 0.0
C466 C 0.19665 0.41691 0.75174 0.0
C467 C 0.21233 0.39411 0.77957 0.0
C468 C 0.17115 0.44058 0.75978 0.0
C469 C 0.20167 0.39553 0.81564 0.0
C470 C 0.1771 0.4197 0.8243 0.0
C471 C 0.1389 0.46813 0.80615 0.0
C472 C 0.12441 0.49159 0.77888 0.0
C473 C 0.16203 0.44257 0.79679 0.0
C474 C 0.13178 0.48802 0.74118 0.0
C475 C 0.15522 0.46289 0.73182 0.0
H476 H 0.31424 0.72396 0.33845 0.0
H477 H 0.25729 0.68304 0.20716 0.0
H478 H 0.20609 0.63492 0.21837 0.0
H479 H 0.17546 0.60625 0.26446 0.0
H480 H 0.22959 0.64699 0.39584 0.0
H481 H 0.28337 0.69408 0.3854 0.0
C482 C 0.29061 0.70454 0.31227 0.0
C483 C 0.28999 0.70719 0.27195 0.0
C484 C 0.26039 0.67728 0.31887 0.0
C485 C 0.25934 0.68137 0.23851 0.0
C486 C 0.22961 0.65405 0.24486 0.0
C487 C 0.19886 0.62543 0.29102 0.0
C488 C 0.19819 0.6232 0.33095 0.0
C489 C 0.22956 0.65208 0.2848 0.0
C490 C 0.22916 0.64818 0.36479 0.0
C491 C 0.25997 0.67502 0.3588 0.0
H492 H 0.0331 0.03121 0.87395 0.0
H493 H 0.00673 0.91756 0.80231 0.0
H494 H 0.99531 0.94256 0.73954 0.0
H495 H 0.98464 0.99593 0.70432 0.0
H496 H 0.01439 0.10943 0.776 0.0
H497 H 0.03438 0.08543 0.83972 0.0
C498 C 0.02608 0.01184 0.84491 0.0
C499 C 0.01969 0.97232 0.8431 0.0
C500 C 0.02039 0.02645 0.80886 0.0
C501 C 0.01031 0.94795 0.80476 0.0
C502 C 0.00416 0.96223 0.76874 0.0
C503 C 0.99699 0.0154 0.73398 0.0
C504 C 0.99872 0.05428 0.7359 0.0
C505 C 0.00788 0.00129 0.77031 0.0
C506 C 0.01373 0.07944 0.77417 0.0
C507 C 0.02462 0.06565 0.81047 0.0
H508 H 0.72954 0.25533 0.2398 0.0
H509 H 0.80112 0.36441 0.23806 0.0
H510 H 0.74731 0.36883 0.17702 0.0
H511 H 0.67779 0.34543 0.12832 0.0
H512 H 0.60294 0.23829 0.12961 0.0
H513 H 0.66018 0.22925 0.18647 0.0
C514 C 0.73337 0.27999 0.22596 0.0
C515 C 0.76961 0.30945 0.24373 0.0
C516 C 0.70164 0.28283 0.19095 0.0
C517 C 0.77416 0.34096 0.22494 0.0
C518 C 0.74315 0.34374 0.19013 0.0
C519 C 0.67404 0.31986 0.14078 0.0
C520 C 0.63608 0.29278 0.12527 0.0
C521 C 0.70653 0.31532 0.1735 0.0
C522 C 0.63192 0.2595 0.14109 0.0
C523 C 0.66452 0.25455 0.17377 0.0
H524 H 0.21486 0.22254 0.55141 0.0
H525 H 0.32738 0.24461 0.6546 0.0
H526 H 0.34471 0.18768 0.62482 0.0
H527 H 0.3304 0.13469 0.56686 0.0
H528 H 0.21777 0.11288 0.46352 0.0
H529 H 0.19794 0.1667 0.49599 0.0
C530 C 0.24307 0.21472 0.56741 0.0
C531 C 0.27003 0.23784 0.60487 0.0
C532 C 0.25292 0.18222 0.54998 0.0
C533 C 0.3061 0.22713 0.62576 0.0
C534 C 0.31613 0.19476 0.60863 0.0
C535 C 0.30138 0.14154 0.55155 0.0
C536 C 0.27585 0.12006 0.5126 0.0
C537 C 0.29017 0.17255 0.57035 0.0
C538 C 0.23809 0.12902 0.49343 0.0
C539 C 0.22675 0.15985 0.51192 0.0
H540 H 0.45236 0.72076 0.11348 0.0
H541 H 0.45978 0.83891 0.15668 0.0
H542 H 0.52333 0.857 0.13959 0.0
H543 H 0.57373 0.83855 0.10677 0.0
H544 H 0.5636 0.719 0.06451 0.0
H545 H 0.50453 0.70234 0.08673 0.0
C546 C 0.46827 0.75046 0.11963 0.0
C547 C 0.45155 0.77849 0.13604 0.0
C548 C 0.50416 0.76044 0.10943 0.0
C549 C 0.47237 0.81687 0.14419 0.0
C550 C 0.50846 0.82715 0.13412 0.0
C551 C 0.55878 0.80891 0.10279 0.0
C552 C 0.57306 0.78024 0.08339 0.0
C553 C 0.52422 0.79915 0.11584 0.0
C554 C 0.55332 0.7419 0.0788 0.0
C555 C 0.51939 0.73215 0.0916 0.0
H556 H 0.88403 0.24605 0.47336 0.0
H557 H 0.75769 0.20202 0.46497 0.0
H558 H 0.77914 0.15598 0.50634 0.0
H559 H 0.83378 0.13046 0.54785 0.0
H560 H 0.96048 0.17384 0.55701 0.0
H561 H 0.93875 0.21729 0.51174 0.0
C562 C 0.86118 0.22602 0.48014 0.0
C563 C 0.81939 0.22787 0.46655 0.0
C564 C 0.87374 0.1995 0.50409 0.0
C565 C 0.79017 0.20179 0.47577 0.0
C566 C 0.80235 0.17529 0.49925 0.0
C567 C 0.85671 0.14916 0.53973 0.0
C568 C 0.89874 0.14901 0.55608 0.0
C569 C 0.84409 0.17429 0.51411 0.0
C570 C 0.9279 0.17335 0.54494 0.0
C571 C 0.91551 0.19833 0.51915 0.0
H572 H 0.3516 0.38982 0.86277 0.0
H573 H 0.32134 0.27241 0.80095 0.0
H574 H 0.37724 0.25985 0.85572 0.0
H575 H 0.43521 0.28244 0.92152 0.0
H576 H 0.46489 0.40036 0.98226 0.0
H577 H 0.40874 0.41219 0.92802 0.0
C578 C 0.35692 0.36138 0.86147 0.0
C579 C 0.33217 0.33212 0.82781 0.0
C580 C 0.38918 0.35438 0.89299 0.0
C581 C 0.34011 0.29558 0.82632 0.0
C582 C 0.37199 0.28832 0.85774 0.0
C583 C 0.42934 0.31069 0.9229 0.0
C584 C 0.45445 0.34038 0.95609 0.0
C585 C 0.39685 0.31753 0.89125 0.0
C586 C 0.44632 0.37686 0.95718 0.0
C587 C 0.41408 0.38375 0.92612 0.0
H588 H 0.28657 0.83873 0.27567 0.0
H589 H 0.41902 0.85992 0.32731 0.0
H590 H 0.42095 0.92043 0.36971 0.0
H591 H 0.38374 0.96429 0.39569 0.0
H592 H 0.25081 0.94194 0.34276 0.0
H593 H 0.25023 0.88489 0.29701 0.0
C594 C 0.31584 0.85696 0.29591 0.0
C595 C 0.35257 0.84518 0.29891 0.0
C596 C 0.31651 0.89118 0.32007 0.0
C597 C 0.39046 0.86876 0.32474 0.0
C598 C 0.39146 0.9031 0.34903 0.0
C599 C 0.3547 0.94708 0.37394 0.0
C600 C 0.31733 0.95716 0.37303 0.0
C601 C 0.35453 0.91416 0.34759 0.0
C602 C 0.28001 0.93479 0.34432 0.0
C603 C 0.27959 0.90209 0.31814 0.0
H604 H 0.85793 0.87679 0.93332 0.0
H605 H 0.88879 0.77165 0.96077 0.0
H606 H 0.83501 0.76133 0.99187 0.0
H607 H 0.7777 0.78034 0.00903 0.0
H608 H 0.74776 0.8865 0.98596 0.0
H609 H 0.80381 0.89895 0.9567 0.0
C610 C 0.85335 0.85188 0.9466 0.0
C611 C 0.87704 0.82463 0.94369 0.0
C612 C 0.82275 0.84642 0.96549 0.0
C613 C 0.87032 0.7925 0.9611 0.0
C614 C 0.8398 0.78672 0.97939 0.0
C615 C 0.78359 0.80639 0.99783 0.0
C616 C 0.75844 0.83231 0.99919 0.0
C617 C 0.81555 0.81318 0.98124 0.0
C618 C 0.76681 0.86619 0.98528 0.0
C619 C 0.79863 0.87311 0.96832 0.0
loop_
_geom_bond_atom_site_label_1
_geom_bond_atom_site_label_2
_geom_bond_distance
_geom_bond_site_symmetry_2
_ccdc_geom_bond_type
H0 C1 0.949 . S
C1 H0 0.949 . S
C1 C2 1.395 . S
C1 C3 1.391 . S
C2 C1 1.395 . S
C2 C5 1.390 . S
C3 C1 1.391 . S
C3 C7 1.387 . S
C3 C8 1.491 . S
H4 C5 0.950 . S
C5 C2 1.390 . S
C5 H4 0.950 . S
C5 C6 1.378 . S
C6 C5 1.378 . S
C6 C7 1.409 . S
C7 C3 1.387 . S
C7 C6 1.409 . S
C7 H9 0.951 . S
C8 C3 1.491 . S
C8 C10 1.382 . S
C8 C12 1.404 . S
H9 C7 0.951 . S
C10 C8 1.382 . S
C10 C11 1.390 . S
C10 H15 0.949 . S
C11 C10 1.390 . S
C11 C16 1.399 . S
C12 C8 1.404 . S
C12 H13 0.950 . S
C12 C14 1.375 . S
H13 C12 0.950 . S
C14 C12 1.375 . S
C14 C16 1.382 . S
C14 H18 0.950 . S
H15 C10 0.949 . S
C16 C11 1.399 . S
C16 C14 1.382 . S
C16 H17 0.952 . S
H17 C16 0.952 . S
H18 C14 0.950 . S
H19 C20 0.949 . S
C20 H19 0.949 . S
C20 C21 1.395 . S
C20 C22 1.391 . S
C21 C20 1.395 . S
C21 C24 1.390 . S
C22 C20 1.391 . S
C22 C26 1.387 . S
C22 C27 1.491 . S
H23 C24 0.950 . S
C24 C21 1.390 . S
C24 H23 0.950 . S
C24 C25 1.378 . S
C25 C24 1.378 . S
C25 C26 1.409 . S
C26 C22 1.387 . S
C26 C25 1.409 . S
C26 H28 0.951 . S
C27 C22 1.491 . S
C27 C29 1.382 . S
C27 C31 1.404 . S
H28 C26 0.951 . S
C29 C27 1.382 . S
C29 C30 1.390 . S
C29 H34 0.949 . S
C30 C29 1.390 . S
C30 C35 1.399 . S
C31 C27 1.404 . S
C31 H32 0.950 . S
C31 C33 1.375 . S
H32 C31 0.950 . S
C33 C31 1.375 . S
C33 C35 1.382 . S
C33 H37 0.950 . S
H34 C29 0.949 . S
C35 C30 1.399 . S
C35 C33 1.382 . S
C35 H36 0.952 . S
H36 C35 0.952 . S
H37 C33 0.950 . S
H38 C39 0.949 . S
C39 H38 0.949 . S
C39 C40 1.395 . S
C39 C41 1.391 . S
C40 C39 1.395 . S
C40 C43 1.390 . S
C41 C39 1.391 . S
C41 C45 1.387 . S
C41 C46 1.491 . S
H42 C43 0.950 . S
C43 C40 1.390 . S
C43 H42 0.950 . S
C43 C44 1.378 . S
C44 C43 1.378 . S
C44 C45 1.409 . S
C45 C41 1.387 . S
C45 C44 1.409 . S
C45 H47 0.951 . S
C46 C41 1.491 . S
C46 C48 1.382 . S
C46 C50 1.404 . S
H47 C45 0.951 . S
C48 C46 1.382 . S
C48 C49 1.390 . S
C48 H53 0.949 . S
C49 C48 1.390 . S
C49 C54 1.399 . S
C50 C46 1.404 . S
C50 H51 0.950 . S
C50 C52 1.375 . S
H51 C50 0.950 . S
C52 C50 1.375 . S
C52 C54 1.382 . S
C52 H56 0.950 . S
H53 C48 0.949 . S
C54 C49 1.399 . S
C54 C52 1.382 . S
C54 H55 0.952 . S
H55 C54 0.952 . S
H56 C52 0.950 . S
H57 C58 0.949 1_554 S
C58 H57 0.949 1_556 S
C58 C59 1.395 . S
C58 C60 1.391 . S
C59 C58 1.395 . S
C59 C62 1.390 . S
C60 C58 1.391 . S
C60 C64 1.387 . S
C60 C65 1.491 1_556 S
H61 C62 0.950 . S
C62 C59 1.390 . S
C62 H61 0.950 . S
C62 C63 1.378 . S
C63 C62 1.378 . S
C63 C64 1.409 . S
C64 C60 1.387 . S
C64 C63 1.409 . S
C64 H66 0.951 . S
C65 C60 1.491 1_554 S
C65 C67 1.382 . S
C65 C69 1.404 . S
H66 C64 0.951 . S
C67 C65 1.382 . S
C67 C68 1.390 . S
C67 H72 0.949 . S
C68 C67 1.390 . S
C68 C73 1.399 . S
C69 C65 1.404 . S
C69 H70 0.950 . S
C69 C71 1.375 . S
H70 C69 0.950 . S
C71 C69 1.375 . S
C71 C73 1.382 . S
C71 H75 0.950 . S
H72 C67 0.949 . S
C73 C68 1.399 . S
C73 C71 1.382 . S
C73 H74 0.952 . S
H74 C73 0.952 . S
H75 C71 0.950 . S
H76 C77 0.949 1_455 S
C77 H76 0.949 1_655 S
C77 C78 1.395 . S
C77 C79 1.391 . S
C78 C77 1.395 . S
C78 C81 1.390 . S
C79 C77 1.391 . S
C79 C83 1.387 . S
C79 C84 1.491 . S
H80 C81 0.950 . S
C81 C78 1.390 . S
C81 H80 0.950 . S
C81 C82 1.378 . S
C82 C81 1.378 . S
C82 C83 1.409 . S
C83 C79 1.387 . S
C83 C82 1.409 . S
C83 H85 0.951 . S
C84 C79 1.491 . S
C84 C86 1.382 . S
C84 C88 1.404 . S
H85 C83 0.951 . S
C86 C84 1.382 . S
C86 C87 1.390 . S
C86 H91 0.949 . S
C87 C86 1.390 . S
C87 C92 1.399 . S
C88 C84 1.404 . S
C88 H89 0.950 . S
C88 C90 1.375 . S
H89 C88 0.950 . S
C90 C88 1.375 . S
C90 C92 1.382 . S
C90 H94 0.950 . S
H91 C86 0.949 . S
C92 C87 1.399 . S
C92 C90 1.382 . S
C92 H93 0.952 . S
H93 C92 0.952 . S
H94 C90 0.950 . S
H95 C96 0.949 . S
C96 H95 0.949 . S
C96 C97 1.395 . S
C96 C98 1.391 . S
C97 C96 1.395 . S
C97 C100 1.390 . S
C98 C96 1.391 . S
C98 C102 1.387 . S
C98 C103 1.491 . S
H99 C100 0.950 . S
C100 C97 1.390 . S
C100 H99 0.950 . S
C100 C101 1.378 . S
C101 C100 1.378 . S
C101 C102 1.409 . S
C102 C98 1.387 . S
C102 C101 1.409 . S
C102 H104 0.951 . S
C103 C98 1.491 . S
C103 C105 1.382 . S
C103 C107 1.404 . S
H104 C102 0.951 . S
C105 C103 1.382 . S
C105 C106 1.390 . S
C105 H110 0.949 . S
C106 C105 1.390 . S
C106 C111 1.399 . S
C107 C103 1.404 . S
C107 H108 0.950 . S
C107 C109 1.375 . S
H108 C107 0.950 . S
C109 C107 1.375 . S
C109 C111 1.382 . S
C109 H113 0.950 . S
H110 C105 0.949 . S
C111 C106 1.399 . S
C111 C109 1.382 . S
C111 H112 0.952 . S
H112 C111 0.952 . S
H113 C109 0.950 . S
H114 C115 0.949 . S
C115 H114 0.949 . S
C115 C116 1.395 . S
C115 C117 1.391 . S
C116 C115 1.395 . S
C116 C119 1.390 . S
C117 C115 1.391 . S
C117 C121 1.387 . S
C117 C122 1.491 . S
H118 C119 0.950 . S
C119 C116 1.390 . S
C119 H118 0.950 . S
C119 C120 1.378 . S
C120 C119 1.378 . S
C120 C121 1.409 . S
C121 C117 1.387 . S
C121 C120 1.409 . S
C121 H123 0.951 . S
C122 C117 1.491 . S
C122 C124 1.382 . S
C122 C126 1.404 . S
H123 C121 0.951 . S
C124 C122 1.382 . S
C124 C125 1.390 . S
C124 H129 0.949 . S
C125 C124 1.390 . S
C125 C130 1.399 . S
C126 C122 1.404 . S
C126 H127 0.950 . S
C126 C128 1.375 . S
H127 C126 0.950 . S
C128 C126 1.375 . S
C128 C130 1.382 . S
C128 H132 0.950 . S
H129 C124 0.949 . S
C130 C125 1.399 . S
C130 C128 1.382 . S
C130 H131 0.952 . S
H131 C130 0.952 . S
H132 C128 0.950 . S
H133 C134 0.949 . S
C134 H133 0.949 . S
C134 C135 1.395 . S
C134 C136 1.391 . S
C135 C134 1.395 . S
C135 C138 1.390 . S
C136 C134 1.391 . S
C136 C140 1.387 . S
C136 C141 1.491 . S
H137 C138 0.950 . S
C138 C135 1.390 . S
C138 H137 0.950 . S
C138 C139 1.378 . S
C139 C138 1.378 . S
C139 C140 1.409 . S
C140 C136 1.387 . S
C140 C139 1.409 . S
C140 H142 0.951 . S
C141 C136 1.491 . S
C141 C143 1.382 . S
C141 C145 1.404 . S
H142 C140 0.951 . S
C143 C141 1.382 . S
C143 C144 1.390 . S
C143 H148 0.949 . S
C144 C143 1.390 . S
C144 C149 1.399 . S
C145 C141 1.404 . S
C145 H146 0.950 . S
C145 C147 1.375 . S
H146 C145 0.950 . S
C147 C145 1.375 . S
C147 C149 1.382 . S
C147 H151 0.961 . S
H148 C143 0.949 . S
C149 C144 1.399 . S
C149 C147 1.382 . S
C149 H150 0.952 . S
H150 C149 0.952 . S
H151 C147 0.961 . S
C152 O154 1.247 1_655 S
C152 O156 1.258 . S
C153 O160 1.247 . S
C153 O161 1.258 . S
O154 C152 1.247 1_455 S
O154 Zn155 2.028 . S
Zn155 O154 2.028 . S
Zn155 O159 2.035 . S
Zn155 O161 2.035 . S
Zn155 O162 2.028 . S
O156 C152 1.258 . S
O156 Zn157 2.035 . S
Zn157 O156 2.035 . S
Zn157 O158 2.028 1_655 S
Zn157 O160 2.028 1_655 S
Zn157 O163 2.035 . S
O158 Zn157 2.028 1_455 S
O158 C164 1.247 . S
O159 Zn155 2.035 . S
O159 C164 1.258 . S
O160 C153 1.247 . S
O160 Zn157 2.028 1_455 S
O161 C153 1.258 . S
O161 Zn155 2.035 . S
O162 Zn155 2.028 . S
O162 C165 1.247 1_455 S
O163 Zn157 2.035 . S
O163 C165 1.258 . S
C164 O158 1.247 . S
C164 O159 1.258 . S
C165 O162 1.247 1_655 S
C165 O163 1.258 . S
C166 O168 1.247 . S
C166 O170 1.258 . S
C167 O174 1.247 . S
C167 O175 1.258 . S
O168 C166 1.247 . S
O168 Zn169 2.028 . S
Zn169 O168 2.028 . S
Zn169 O173 2.035 . S
Zn169 O175 2.035 . S
Zn169 O176 2.028 . S
O170 C166 1.258 . S
O170 Zn171 2.035 . S
Zn171 O170 2.035 . S
Zn171 O172 2.028 . S
Zn171 O174 2.028 . S
Zn171 O177 2.035 . S
O172 Zn171 2.028 . S
O172 C178 1.247 . S
O173 Zn169 2.035 . S
O173 C178 1.258 . S
O174 C167 1.247 . S
O174 Zn171 2.028 . S
O175 C167 1.258 . S
O175 Zn169 2.035 . S
O176 Zn169 2.028 . S
O176 C179 1.247 . S
O177 Zn171 2.035 . S
O177 C179 1.258 . S
C178 O172 1.247 . S
C178 O173 1.258 . S
C179 O176 1.247 . S
C179 O177 1.258 . S
C180 O182 1.247 . S
C180 O184 1.258 . S
C181 O188 1.247 . S
C181 O189 1.258 . S
O182 C180 1.247 . S
O182 Zn183 2.028 1_565 S
Zn183 O182 2.028 1_545 S
Zn183 O187 2.035 . S
Zn183 O189 2.035 . S
Zn183 O190 2.028 1_545 S
O184 C180 1.258 . S
O184 Zn185 2.035 1_565 S
Zn185 O184 2.035 1_545 S
Zn185 O186 2.028 . S
Zn185 O188 2.028 . S
Zn185 O191 2.035 1_545 S
O186 Zn185 2.028 . S
O186 C192 1.247 . S
O187 Zn183 2.035 . S
O187 C192 1.258 . S
O188 C181 1.247 . S
O188 Zn185 2.028 . S
O189 C181 1.258 . S
O189 Zn183 2.035 . S
O190 Zn183 2.028 1_565 S
O190 C193 1.247 . S
O191 Zn185 2.035 1_565 S
O191 C193 1.258 . S
C192 O186 1.247 . S
C192 O187 1.258 . S
C193 O190 1.247 . S
C193 O191 1.258 . S
C194 O196 1.247 . S
C194 O198 1.258 . S
C195 O202 1.247 . S
C195 O203 1.258 . S
O196 C194 1.247 . S
O196 Zn197 2.028 1_554 S
Zn197 O196 2.028 1_556 S
Zn197 O201 2.035 1_556 S
Zn197 O203 2.035 . S
Zn197 O204 2.028 . S
O198 C194 1.258 . S
O198 Zn199 2.035 . S
Zn199 O198 2.035 . S
Zn199 O200 2.028 . S
Zn199 O202 2.028 1_554 S
Zn199 O205 2.035 1_554 S
O200 Zn199 2.028 . S
O200 C206 1.247 . S
O201 Zn197 2.035 1_554 S
O201 C206 1.258 . S
O202 C195 1.247 . S
O202 Zn199 2.028 1_556 S
O203 C195 1.258 . S
O203 Zn197 2.035 . S
O204 Zn197 2.028 . S
O204 C207 1.247 . S
O205 Zn199 2.035 1_556 S
O205 C207 1.258 . S
C206 O200 1.247 . S
C206 O201 1.258 . S
C207 O204 1.247 . S
C207 O205 1.258 . S
C208 O210 1.247 1_455 S
C208 O212 1.258 . S
C209 O216 1.247 1_655 S
C209 O217 1.258 . S
O210 C208 1.247 1_655 S
O210 Zn211 2.028 . S
Zn211 O210 2.028 . S
Zn211 O215 2.035 . S
Zn211 O217 2.035 . S
Zn211 O218 2.028 . S
O212 C208 1.258 . S
O212 Zn213 2.035 . S
Zn213 O212 2.035 . S
Zn213 O214 2.028 . S
Zn213 O216 2.028 . S
Zn213 O219 2.035 . S
O214 Zn213 2.028 . S
O214 C220 1.247 1_455 S
O215 Zn211 2.035 . S
O215 C220 1.258 . S
O216 C209 1.247 1_455 S
O216 Zn213 2.028 . S
O217 C209 1.258 . S
O217 Zn211 2.035 . S
O218 Zn211 2.028 . S
O218 C221 1.252 . S
O219 Zn213 2.035 . S
O219 C221 1.255 1_455 S
C220 O214 1.247 1_655 S
C220 O215 1.258 . S
C221 O218 1.252 . S
C221 O219 1.255 1_655 S
C222 O224 1.247 . S
C222 O226 1.258 . S
C223 O230 1.247 . S
C223 O231 1.258 . S
O224 C222 1.247 . S
O224 Zn225 2.028 . S
Zn225 O224 2.028 . S
Zn225 O229 2.035 . S
Zn225 O231 2.035 . S
Zn225 O232 2.028 . S
O226 C222 1.258 . S
O226 Zn227 2.035 . S
Zn227 O226 2.035 . S
Zn227 O228 2.028 . S
Zn227 O230 2.028 . S
Zn227 O233 2.035 . S
O228 Zn227 2.028 . S
O228 C234 1.247 . S
O229 Zn225 2.035 . S
O229 C234 1.258 . S
O230 C223 1.247 . S
O230 Zn227 2.028 . S
O231 C223 1.258 . S
O231 Zn225 2.035 . S
O232 Zn225 2.028 . S
O232 C235 1.247 . S
O233 Zn227 2.035 . S
O233 C235 1.258 . S
C234 O228 1.247 . S
C234 O229 1.258 . S
C235 O232 1.247 . S
C235 O233 1.258 . S
H236 C242 0.930 . S
H237 C245 0.930 . S
H238 C246 0.930 . S
H239 C247 0.930 . S
H240 C250 0.930 . S
H241 C251 0.930 . S
C242 H236 0.930 . S
C242 C243 1.355 . S
C242 C244 1.415 . S
C243 C242 1.355 . S
C243 C245 1.419 . S
C244 C242 1.415 . S
C244 C249 1.425 . S
C244 C251 1.409 . S
C245 H237 0.930 . S
C245 C243 1.419 . S
C245 C246 1.362 . S
C246 H238 0.930 . S
C246 C245 1.362 . S
C246 C249 1.409 . S
C247 H239 0.930 . S
C247 C248 1.355 . S
C247 C249 1.415 . S
C248 C247 1.355 . S
C248 C250 1.419 . S
C249 C244 1.425 . S
C249 C246 1.409 . S
C249 C247 1.415 . S
C250 H240 0.930 . S
C250 C248 1.419 . S
C250 C251 1.362 . S
C251 H241 0.930 . S
C251 C244 1.409 . S
C251 C250 1.362 . S
H252 C258 0.930 . S
H253 C261 0.930 . S
H254 C262 0.930 . S
H255 C263 0.930 . S
H256 C266 0.930 . S
H257 C267 0.930 . S
C258 H252 0.930 . S
C258 C259 1.355 . S
C258 C260 1.415 . S
C259 C258 1.355 . S
C259 C261 1.419 . S
C260 C258 1.415 . S
C260 C265 1.425 . S
C260 C267 1.409 . S
C261 H253 0.930 . S
C261 C259 1.419 . S
C261 C262 1.362 . S
C262 H254 0.930 . S
C262 C261 1.362 . S
C262 C265 1.409 . S
C263 H255 0.930 . S
C263 C264 1.355 . S
C263 C265 1.415 . S
C264 C263 1.355 . S
C264 C266 1.419 . S
C265 C260 1.425 . S
C265 C262 1.409 . S
C265 C263 1.415 . S
C266 H256 0.930 . S
C266 C264 1.419 . S
C266 C267 1.362 . S
C267 H257 0.930 . S
C267 C260 1.409 . S
C267 C266 1.362 . S
H268 C274 0.930 . S
H269 C277 0.930 . S
H270 C278 0.930 1_455 S
H271 C279 0.923 1_455 S
H272 C282 0.930 . S
H273 C283 0.930 . S
C274 H268 0.930 . S
C274 C275 1.355 . S
C274 C276 1.415 . S
C275 C274 1.355 . S
C275 C277 1.419 . S
C276 C274 1.415 . S
C276 C281 1.425 . S
C276 C283 1.409 . S
C277 H269 0.930 . S
C277 C275 1.419 . S
C277 C278 1.362 . S
C278 H270 0.930 1_655 S
C278 C277 1.362 . S
C278 C281 1.409 . S
C279 H271 0.923 1_655 S
C279 C280 1.355 . S
C279 C281 1.415 . S
C280 C279 1.355 . S
C280 C282 1.419 . S
C281 C276 1.425 . S
C281 C278 1.409 . S
C281 C279 1.415 . S
C282 H272 0.930 . S
C282 C280 1.419 . S
C282 C283 1.362 . S
C283 H273 0.930 . S
C283 C276 1.409 . S
C283 C282 1.362 . S
H284 C290 0.930 . S
H285 C293 0.930 1_554 S
H286 C294 0.930 1_554 S
H287 C295 0.930 . S
H288 C298 0.930 . S
H289 C299 0.930 . S
C290 H284 0.930 . S
C290 C291 1.355 . S
C290 C292 1.415 1_655 S
C291 C290 1.355 . S
C291 C293 1.419 . S
C292 C290 1.415 1_455 S
C292 C297 1.425 . S
C292 C299 1.409 . S
C293 H285 0.930 1_556 S
C293 C291 1.419 . S
C293 C294 1.362 1_655 S
C294 H286 0.930 1_556 S
C294 C293 1.362 1_455 S
C294 C297 1.409 . S
C295 H287 0.930 . S
C295 C296 1.355 . S
C295 C297 1.415 . S
C296 C295 1.355 . S
C296 C298 1.419 . S
C297 C292 1.425 . S
C297 C294 1.409 . S
C297 C295 1.415 . S
C298 H288 0.930 . S
C298 C296 1.419 . S
C298 C299 1.362 . S
C299 H289 0.930 . S
C299 C292 1.409 . S
C299 C298 1.362 . S
H300 C306 0.930 . S
H301 C309 0.930 . S
H302 C310 0.930 . S
H303 C311 0.930 . S
H304 C314 0.930 . S
H305 C315 0.930 . S
C306 H300 0.930 . S
C306 C307 1.355 . S
C306 C308 1.415 . S
C307 C306 1.355 . S
C307 C309 1.419 . S
C308 C306 1.415 . S
C308 C313 1.425 . S
C308 C315 1.409 . S
C309 H301 0.930 . S
C309 C307 1.419 . S
C309 C310 1.362 . S
C310 H302 0.930 . S
C310 C309 1.362 . S
C310 C313 1.409 . S
C311 H303 0.930 . S
C311 C312 1.355 . S
C311 C313 1.415 . S
C312 C311 1.355 . S
C312 C314 1.419 . S
C313 C308 1.425 . S
C313 C310 1.409 . S
C313 C311 1.415 . S
C314 H304 0.930 . S
C314 C312 1.419 . S
C314 C315 1.362 . S
C315 H305 0.930 . S
C315 C308 1.409 . S
C315 C314 1.362 . S
H316 C322 0.930 . S
H317 C325 0.930 . S
H318 C326 0.930 . S
H319 C327 0.930 . S
H320 C330 0.930 . S
H321 C331 0.930 . S
C322 H316 0.930 . S
C322 C323 1.355 . S
C322 C324 1.415 . S
C323 C322 1.355 . S
C323 C325 1.419 . S
C324 C322 1.415 . S
C324 C329 1.425 . S
C324 C331 1.409 . S
C325 H317 0.930 . S
C325 C323 1.419 . S
C325 C326 1.362 . S
C326 H318 0.930 . S
C326 C325 1.362 . S
C326 C329 1.409 . S
C327 H319 0.930 . S
C327 C328 1.355 . S
C327 C329 1.415 . S
C328 C327 1.355 . S
C328 C330 1.419 . S
C329 C324 1.425 . S
C329 C326 1.409 . S
C329 C327 1.415 . S
C330 H320 0.930 . S
C330 C328 1.419 . S
C330 C331 1.362 . S
C331 H321 0.930 . S
C331 C324 1.409 . S
C331 C330 1.362 . S
H332 C338 0.930 . S
H333 C341 0.930 . S
H334 C342 0.930 1_455 S
H335 C343 0.930 . S
H336 C346 0.930 . S
H337 C347 0.930 1_565 S
C338 H332 0.930 . S
C338 C339 1.355 . S
C338 C340 1.415 1_565 S
C339 C338 1.355 . S
C339 C341 1.419 1_565 S
C340 C338 1.415 1_545 S
C340 C345 1.425 . S
C340 C347 1.409 . S
C341 H333 0.930 . S
C341 C339 1.419 1_545 S
C341 C342 1.362 . S
C342 H334 0.930 1_655 S
C342 C341 1.362 . S
C342 C345 1.409 . S
C343 H335 0.930 . S
C343 C344 1.355 1_455 S
C343 C345 1.415 1_455 S
C344 C343 1.355 1_655 S
C344 C346 1.419 . S
C345 C340 1.425 . S
C345 C342 1.409 . S
C345 C343 1.415 1_655 S
C346 H336 0.930 . S
C346 C344 1.419 . S
C346 C347 1.362 . S
C347 H337 0.930 1_545 S
C347 C340 1.409 . S
C347 C346 1.362 . S
H348 C354 0.930 . S
H349 C357 0.930 . S
H350 C358 0.930 . S
H351 C359 0.930 . S
H352 C362 0.930 . S
H353 C363 0.947 . S
C354 H348 0.930 . S
C354 C355 1.355 . S
C354 C356 1.415 . S
C355 C354 1.355 . S
C355 C357 1.419 . S
C356 C354 1.415 . S
C356 C361 1.425 . S
C356 C363 1.409 . S
C357 H349 0.930 . S
C357 C355 1.419 . S
C357 C358 1.362 . S
C358 H350 0.930 . S
C358 C357 1.362 . S
C358 C361 1.409 . S
C359 H351 0.930 . S
C359 C360 1.355 . S
C359 C361 1.415 . S
C360 C359 1.355 . S
C360 C362 1.419 . S
C361 C356 1.425 . S
C361 C358 1.409 . S
C361 C359 1.415 . S
C362 H352 0.930 . S
C362 C360 1.419 . S
C362 C363 1.362 . S
C363 H353 0.947 . S
C363 C356 1.409 . S
C363 C362 1.362 . S
H364 C370 0.930 . S
H365 C373 0.930 . S
H366 C374 0.930 . S
H367 C375 0.930 . S
H368 C378 0.930 . S
H369 C379 0.930 . S
C370 H364 0.930 . S
C370 C371 1.355 . S
C370 C372 1.415 . S
C371 C370 1.355 . S
C371 C373 1.419 . S
C372 C370 1.415 . S
C372 C377 1.425 . S
C372 C379 1.409 . S
C373 H365 0.930 . S
C373 C371 1.419 . S
C373 C374 1.362 . S
C374 H366 0.930 . S
C374 C373 1.362 . S
C374 C377 1.409 . S
C375 H367 0.930 . S
C375 C376 1.355 . S
C375 C377 1.415 . S
C376 C375 1.355 . S
C376 C378 1.419 . S
C377 C372 1.425 . S
C377 C374 1.409 . S
C377 C375 1.415 . S
C378 H368 0.930 . S
C378 C376 1.419 . S
C378 C379 1.362 . S
C379 H369 0.930 . S
C379 C372 1.409 . S
C379 C378 1.362 . S
H380 C386 0.930 . S
H381 C389 0.930 . S
H382 C390 0.930 . S
H383 C391 0.930 . S
H384 C394 0.930 . S
H385 C395 0.930 . S
C386 H380 0.930 . S
C386 C387 1.355 . S
C386 C388 1.415 . S
C387 C386 1.355 . S
C387 C389 1.419 . S
C388 C386 1.415 . S
C388 C393 1.425 . S
C388 C395 1.409 . S
C389 H381 0.930 . S
C389 C387 1.419 . S
C389 C390 1.362 . S
C390 H382 0.930 . S
C390 C389 1.362 . S
C390 C393 1.409 . S
C391 H383 0.930 . S
C391 C392 1.355 . S
C391 C393 1.415 . S
C392 C391 1.355 . S
C392 C394 1.419 . S
C393 C388 1.425 . S
C393 C390 1.409 . S
C393 C391 1.415 . S
C394 H384 0.930 . S
C394 C392 1.419 . S
C394 C395 1.362 . S
C395 H385 0.930 . S
C395 C388 1.409 . S
C395 C394 1.362 . S
H396 C402 0.930 . S
H397 C405 0.930 . S
H398 C406 0.930 . S
H399 C407 0.930 . S
H400 C410 0.930 . S
H401 C411 0.930 . S
C402 H396 0.930 . S
C402 C403 1.355 . S
C402 C404 1.415 . S
C403 C402 1.355 . S
C403 C405 1.419 . S
C404 C402 1.415 . S
C404 C409 1.425 . S
C404 C411 1.409 1_655 S
C405 H397 0.930 . S
C405 C403 1.419 . S
C405 C406 1.362 . S
C406 H398 0.930 . S
C406 C405 1.362 . S
C406 C409 1.409 . S
C407 H399 0.930 . S
C407 C408 1.355 . S
C407 C409 1.415 . S
C408 C407 1.355 . S
C408 C410 1.419 1_655 S
C409 C404 1.425 . S
C409 C406 1.409 . S
C409 C407 1.415 . S
C410 H400 0.930 . S
C410 C408 1.419 1_455 S
C410 C411 1.362 . S
C411 H401 0.930 . S
C411 C404 1.409 1_455 S
C411 C410 1.362 . S
H412 C418 0.930 . S
H413 C421 0.930 . S
H414 C422 0.930 . S
H415 C423 0.930 . S
H416 C426 0.930 . S
H417 C427 0.930 . S
C418 H412 0.930 . S
C418 C419 1.355 . S
C418 C420 1.415 . S
C419 C418 1.355 . S
C419 C421 1.419 . S
C420 C418 1.415 . S
C420 C425 1.425 . S
C420 C427 1.409 . S
C421 H413 0.930 . S
C421 C419 1.419 . S
C421 C422 1.362 . S
C422 H414 0.930 . S
C422 C421 1.362 . S
C422 C425 1.409 . S
C423 H415 0.930 . S
C423 C424 1.355 . S
C423 C425 1.415 . S
C424 C423 1.355 . S
C424 C426 1.419 . S
C425 C420 1.425 . S
C425 C422 1.409 . S
C425 C423 1.415 . S
C426 H416 0.930 . S
C426 C424 1.419 . S
C426 C427 1.362 . S
C427 H417 0.930 . S
C427 C420 1.409 . S
C427 C426 1.362 . S
H428 C434 0.930 . S
H429 C437 0.930 . S
H430 C438 0.930 . S
H431 C439 0.930 . S
H432 C442 0.930 . S
H433 C443 0.930 . S
C434 H428 0.930 . S
C434 C435 1.355 . S
C434 C436 1.415 . S
C435 C434 1.355 . S
C435 C437 1.419 1_455 S
C436 C434 1.415 . S
C436 C441 1.425 . S
C436 C443 1.409 . S
C437 H429 0.930 . S
C437 C435 1.419 1_655 S
C437 C438 1.362 . S
C438 H430 0.930 . S
C438 C437 1.362 . S
C438 C441 1.409 1_655 S
C439 H431 0.930 . S
C439 C440 1.355 . S
C439 C441 1.415 . S
C440 C439 1.355 . S
C440 C442 1.419 . S
C441 C436 1.425 . S
C441 C438 1.409 1_455 S
C441 C439 1.415 . S
C442 H432 0.930 . S
C442 C440 1.419 . S
C442 C443 1.362 . S
C443 H433 0.930 . S
C443 C436 1.409 . S
C443 C442 1.362 . S
H444 C450 0.930 . S
H445 C453 0.930 . S
H446 C454 0.930 . S
H447 C455 0.930 . S
H448 C458 0.930 . S
H449 C459 0.930 . S
C450 H444 0.930 . S
C450 C451 1.355 . S
C450 C452 1.415 . S
C451 C450 1.355 . S
C451 C453 1.419 . S
C452 C450 1.415 . S
C452 C457 1.425 . S
C452 C459 1.409 . S
C453 H445 0.930 . S
C453 C451 1.419 . S
C453 C454 1.362 . S
C454 H446 0.930 . S
C454 C453 1.362 . S
C454 C457 1.409 . S
C455 H447 0.930 . S
C455 C456 1.355 . S
C455 C457 1.415 . S
C456 C455 1.355 . S
C456 C458 1.419 . S
C457 C452 1.425 . S
C457 C454 1.409 . S
C457 C455 1.415 . S
C458 H448 0.930 . S
C458 C456 1.419 . S
C458 C459 1.362 . S
C459 H449 0.930 . S
C459 C452 1.409 . S
C459 C458 1.362 . S
H460 C466 0.930 . S
H461 C469 0.930 . S
H462 C470 0.930 . S
H463 C471 0.930 . S
H464 C474 0.930 . S
H465 C475 0.930 . S
C466 H460 0.930 . S
C466 C467 1.355 . S
C466 C468 1.415 . S
C467 C466 1.355 . S
C467 C469 1.419 . S
C468 C466 1.415 . S
C468 C473 1.425 . S
C468 C475 1.409 . S
C469 H461 0.930 . S
C469 C467 1.419 . S
C469 C470 1.362 . S
C470 H462 0.930 . S
C470 C469 1.362 . S
C470 C473 1.409 . S
C471 H463 0.930 . S
C471 C472 1.355 . S
C471 C473 1.415 . S
C472 C471 1.355 . S
C472 C474 1.419 . S
C473 C468 1.425 . S
C473 C470 1.409 . S
C473 C471 1.415 . S
C474 H464 0.930 . S
C474 C472 1.419 . S
C474 C475 1.362 . S
C475 H465 0.930 . S
C475 C468 1.409 . S
C475 C474 1.362 . S
H476 C482 0.930 . S
H477 C485 0.930 . S
H478 C486 0.930 . S
H479 C487 0.930 . S
H480 C490 0.930 . S
H481 C491 0.930 . S
C482 H476 0.930 . S
C482 C483 1.355 . S
C482 C484 1.415 . S
C483 C482 1.355 . S
C483 C485 1.419 . S
C484 C482 1.415 . S
C484 C489 1.425 . S
C484 C491 1.409 . S
C485 H477 0.930 . S
C485 C483 1.419 . S
C485 C486 1.362 . S
C486 H478 0.930 . S
C486 C485 1.362 . S
C486 C489 1.409 . S
C487 H479 0.930 . S
C487 C488 1.355 . S
C487 C489 1.415 . S
C488 C487 1.355 . S
C488 C490 1.419 . S
C489 C484 1.425 . S
C489 C486 1.409 . S
C489 C487 1.415 . S
C490 H480 0.930 . S
C490 C488 1.419 . S
C490 C491 1.362 . S
C491 H481 0.930 . S
C491 C484 1.409 . S
C491 C490 1.362 . S
H492 C498 0.930 . S
H493 C501 0.930 . S
H494 C502 0.930 . S
H495 C503 0.930 . S
H496 C506 0.930 . S
H497 C507 0.930 . S
C498 H492 0.930 . S
C498 C499 1.355 . S
C498 C500 1.415 1_565 S
C499 C498 1.355 . S
C499 C501 1.419 1_655 S
C500 C498 1.415 1_545 S
C500 C505 1.425 1_655 S
C500 C507 1.409 . S
C501 H493 0.930 . S
C501 C499 1.419 1_455 S
C501 C502 1.362 . S
C502 H494 0.930 . S
C502 C501 1.362 . S
C502 C505 1.409 1_565 S
C503 H495 0.930 . S
C503 C504 1.355 . S
C503 C505 1.415 . S
C504 C503 1.355 . S
C504 C506 1.419 1_455 S
C505 C500 1.425 1_455 S
C505 C502 1.409 1_545 S
C505 C503 1.415 . S
C506 H496 0.930 . S
C506 C504 1.419 1_655 S
C506 C507 1.362 . S
C507 H497 0.930 . S
C507 C500 1.409 . S
C507 C506 1.362 . S
H508 C514 0.930 . S
H509 C517 0.930 . S
H510 C518 0.930 . S
H511 C519 0.930 . S
H512 C522 0.930 . S
H513 C523 0.930 . S
C514 H508 0.930 . S
C514 C515 1.355 . S
C514 C516 1.415 . S
C515 C514 1.355 . S
C515 C517 1.419 . S
C516 C514 1.415 . S
C516 C521 1.425 . S
C516 C523 1.409 . S
C517 H509 0.930 . S
C517 C515 1.419 . S
C517 C518 1.362 . S
C518 H510 0.930 . S
C518 C517 1.362 . S
C518 C521 1.409 . S
C519 H511 0.930 . S
C519 C520 1.355 . S
C519 C521 1.415 . S
C520 C519 1.355 . S
C520 C522 1.419 . S
C521 C516 1.425 . S
C521 C518 1.409 . S
C521 C519 1.415 . S
C522 H512 0.930 . S
C522 C520 1.419 . S
C522 C523 1.362 . S
C523 H513 0.930 . S
C523 C516 1.409 . S
C523 C522 1.362 . S
H524 C530 0.930 . S
H525 C533 0.930 . S
H526 C534 0.930 . S
H527 C535 0.930 . S
H528 C538 0.930 . S
H529 C539 0.930 . S
C530 H524 0.930 . S
C530 C531 1.355 . S
C530 C532 1.415 . S
C531 C530 1.355 . S
C531 C533 1.419 . S
C532 C530 1.415 . S
C532 C537 1.425 . S
C532 C539 1.409 . S
C533 H525 0.930 . S
C533 C531 1.419 . S
C533 C534 1.362 . S
C534 H526 0.930 . S
C534 C533 1.362 . S
C534 C537 1.409 . S
C535 H527 0.930 . S
C535 C536 1.355 . S
C535 C537 1.415 . S
C536 C535 1.355 . S
C536 C538 1.419 . S
C537 C532 1.425 . S
C537 C534 1.409 . S
C537 C535 1.415 . S
C538 H528 0.930 . S
C538 C536 1.419 . S
C538 C539 1.362 . S
C539 H529 0.930 . S
C539 C532 1.409 . S
C539 C538 1.362 . S
H540 C546 0.930 . S
H541 C549 0.930 . S
H542 C550 0.930 . S
H543 C551 0.930 . S
H544 C554 0.930 1_556 S
H545 C555 0.930 1_556 S
C546 H540 0.930 . S
C546 C547 1.355 . S
C546 C548 1.415 . S
C547 C546 1.355 . S
C547 C549 1.419 . S
C548 C546 1.415 . S
C548 C553 1.425 . S
C548 C555 1.409 . S
C549 H541 0.930 . S
C549 C547 1.419 . S
C549 C550 1.362 . S
C550 H542 0.930 . S
C550 C549 1.362 . S
C550 C553 1.409 . S
C551 H543 0.930 . S
C551 C552 1.355 . S
C551 C553 1.415 . S
C552 C551 1.355 . S
C552 C554 1.419 . S
C553 C548 1.425 . S
C553 C550 1.409 . S
C553 C551 1.415 . S
C554 H544 0.930 1_554 S
C554 C552 1.419 . S
C554 C555 1.362 . S
C555 H545 0.930 1_554 S
C555 C548 1.409 . S
C555 C554 1.362 . S
H556 C562 0.930 . S
H557 C565 0.930 . S
H558 C566 0.930 . S
H559 C567 0.930 . S
H560 C570 0.930 1_455 S
H561 C571 0.923 1_455 S
C562 H556 0.930 . S
C562 C563 1.355 . S
C562 C564 1.415 . S
C563 C562 1.355 . S
C563 C565 1.419 . S
C564 C562 1.415 . S
C564 C569 1.425 . S
C564 C571 1.409 . S
C565 H557 0.930 . S
C565 C563 1.419 . S
C565 C566 1.362 . S
C566 H558 0.930 . S
C566 C565 1.362 . S
C566 C569 1.409 . S
C567 H559 0.930 . S
C567 C568 1.355 . S
C567 C569 1.415 . S
C568 C567 1.355 . S
C568 C570 1.419 . S
C569 C564 1.425 . S
C569 C566 1.409 . S
C569 C567 1.415 . S
C570 H560 0.930 1_655 S
C570 C568 1.419 . S
C570 C571 1.362 . S
C571 H561 0.923 1_655 S
C571 C564 1.409 . S
C571 C570 1.362 . S
H572 C578 0.930 . S
H573 C581 0.930 . S
H574 C582 0.930 . S
H575 C583 0.930 . S
H576 C586 0.930 . S
H577 C587 0.930 . S
C578 H572 0.930 . S
C578 C579 1.355 . S
C578 C580 1.415 . S
C579 C578 1.355 . S
C579 C581 1.419 . S
C580 C578 1.415 . S
C580 C585 1.425 . S
C580 C587 1.409 . S
C581 H573 0.930 . S
C581 C579 1.419 . S
C581 C582 1.362 . S
C582 H574 0.930 . S
C582 C581 1.362 . S
C582 C585 1.409 . S
C583 H575 0.930 . S
C583 C584 1.355 1_556 S
C583 C585 1.415 . S
C584 C583 1.355 1_554 S
C584 C586 1.419 . S
C585 C580 1.425 . S
C585 C582 1.409 . S
C585 C583 1.415 . S
C586 H576 0.930 . S
C586 C584 1.419 . S
C586 C587 1.362 1_554 S
C587 H577 0.930 . S
C587 C580 1.409 . S
C587 C586 1.362 1_556 S
H588 C594 0.930 . S
H589 C597 0.930 . S
H590 C598 0.930 . S
H591 C599 0.930 . S
H592 C602 0.930 . S
H593 C603 0.930 . S
C594 H588 0.930 . S
C594 C595 1.355 . S
C594 C596 1.415 . S
C595 C594 1.355 . S
C595 C597 1.419 . S
C596 C594 1.415 . S
C596 C601 1.425 . S
C596 C603 1.409 . S
C597 H589 0.930 . S
C597 C595 1.419 . S
C597 C598 1.362 . S
C598 H590 0.930 . S
C598 C597 1.362 . S
C598 C601 1.409 . S
C599 H591 0.930 . S
C599 C600 1.355 . S
C599 C601 1.415 . S
C600 C599 1.355 . S
C600 C602 1.419 . S
C601 C596 1.425 . S
C601 C598 1.409 . S
C601 C599 1.415 . S
C602 H592 0.930 . S
C602 C600 1.419 . S
C602 C603 1.362 . S
C603 H593 0.930 . S
C603 C596 1.409 . S
C603 C602 1.362 . S
H604 C610 0.930 . S
H605 C613 0.930 . S
H606 C614 0.930 . S
H607 C615 0.930 . S
H608 C618 0.930 . S
H609 C619 0.930 . S
C610 H604 0.930 . S
C610 C611 1.355 . S
C610 C612 1.415 . S
C611 C610 1.355 . S
C611 C613 1.419 . S
C612 C610 1.415 . S
C612 C617 1.425 . S
C612 C619 1.409 . S
C613 H605 0.930 . S
C613 C611 1.419 . S
C613 C614 1.362 . S
C614 H606 0.930 . S
C614 C613 1.362 . S
C614 C617 1.409 . S
C615 H607 0.930 . S
C615 C616 1.355 . S
C615 C617 1.415 . S
C616 C615 1.355 . S
C616 C618 1.419 . S
C617 C612 1.425 . S
C617 C614 1.409 . S
C617 C615 1.415 . S
C618 H608 0.930 . S
C618 C616 1.419 . S
C618 C619 1.362 . S
C619 H609 0.930 . S
C619 C612 1.409 . S
C619 C618 1.362 . S
C248 C164 1.475 . S
C243 C11 1.406 . S
C264 C167 1.758 . S
C259 C25 1.737 . S
C280 C165 1.317 . S
C275 C40 1.265 . S
C296 C166 1.349 . S
C291 C59 1.345 . S
C312 C181 1.808 . S
C307 C6 1.803 . S
C328 C195 1.843 . S
C323 C21 1.809 . S
C339 C49 1.509 . S
C344 C221 1.574 . S
C360 C235 1.512 . S
C355 C68 1.406 . S
C376 C180 1.767 . S
C371 C30 1.608 . S
C387 C44 1.617 . S
C392 C194 1.613 . S
C408 C220 1.610 . S
C403 C63 1.601 . S
C424 C234 1.676 . S
C419 C2 1.656 . S
C435 C78 1.717 1_455 S
C440 C179 1.744 . S
C456 C152 1.644 . S
C451 C97 1.537 . S
C467 C120 1.628 . S
C472 C178 1.641 . S
C483 C139 1.597 . S
C488 C153 1.596 . S
C504 C208 1.462 . S
C499 C87 1.431 . S
C520 C222 1.578 . S
C515 C101 1.516 . S
C536 C192 1.576 . S
C531 C125 1.482 . S
C547 C144 1.672 . S
C552 C206 1.693 . S
C568 C209 1.726 . S
C563 C106 1.441 . S
C584 C223 1.609 . S
C579 C116 1.597 . S
C600 C193 1.647 . S
C595 C135 1.645 . S
C611 C82 1.807 . S
C616 C207 1.770 . S
