# Generated by pormake.
# Topology pyr, (3,6)-cn, num edge types: 1
# Building blocks:
#     Node 0, Type 0, BuildingBlock: CUQRIR_clean_linker_1, # of connection points: 3
#     Node 1, Type 0, BuildingBlock: CUQRIR_clean_linker_1, # of connection points: 3
#     Node 2, Type 0, BuildingBlock: CUQRIR_clean_linker_1, # of connection points: 3
#     Node 3, Type 0, BuildingBlock: CUQRIR_clean_linker_1, # of connection points: 3
#     Node 4, Type 0, BuildingBlock: CUQRIR_clean_linker_1, # of connection points: 3
#     Node 5, Type 0, BuildingBlock: CUQRIR_clean_linker_1, # of connection points: 3
#     Node 6, Type 0, BuildingBlock: CUQRIR_clean_linker_1, # of connection points: 3
#     Node 7, Type 0, BuildingBlock: CUQRIR_clean_linker_1, # of connection points: 3
#     Node 8, Type 1, BuildingBlock: MIDCAF_clean_sbu_0, # of connection points: 6
#     Node 9, Type 1, BuildingBlock: MIDCAF_clean_sbu_0, # of connection points: 6
#     Node 10, Type 1, BuildingBlock: MIDCAF_clean_sbu_0, # of connection points: 6
#     Node 11, Type 1, BuildingBlock: MIDCAF_clean_sbu_0, # of connection points: 6
#     Edge 12, Type (0, 1), BuildingBlock: AJUNOK_clean_linker_0, # of connection points: 2
#     Edge 13, Type (0, 1), BuildingBlock: AJUNOK_clean_linker_0, # of connection points: 2
#     Edge 14, Type (0, 1), BuildingBlock: AJUNOK_clean_linker_0, # of connection points: 2
#     Edge 15, Type (0, 1), BuildingBlock: AJUNOK_clean_linker_0, # of connection points: 2
#     Edge 16, Type (0, 1), BuildingBlock: AJUNOK_clean_linker_0, # of connection points: 2
#     Edge 17, Type (0, 1), BuildingBlock: AJUNOK_clean_linker_0, # of connection points: 2
#     Edge 18, Type (0, 1), BuildingBlock: AJUNOK_clean_linker_0, # of connection points: 2
#     Edge 19, Type (0, 1), BuildingBlock: AJUNOK_clean_linker_0, # of connection points: 2
#     Edge 20, Type (0, 1), BuildingBlock: AJUNOK_clean_linker_0, # of connection points: 2
#     Edge 21, Type (0, 1), BuildingBlock: AJUNOK_clean_linker_0, # of connection points: 2
#     Edge 22, Type (0, 1), BuildingBlock: AJUNOK_clean_linker_0, # of connection points: 2
#     Edge 23, Type (0, 1), BuildingBlock: AJUNOK_clean_linker_0, # of connection points: 2
#     Edge 24, Type (0, 1), BuildingBlock: AJUNOK_clean_linker_0, # of connection points: 2
#     Edge 25, Type (0, 1), BuildingBlock: AJUNOK_clean_linker_0, # of connection points: 2
#     Edge 26, Type (0, 1), BuildingBlock: AJUNOK_clean_linker_0, # of connection points: 2
#     Edge 27, Type (0, 1), BuildingBlock: AJUNOK_clean_linker_0, # of connection points: 2
#     Edge 28, Type (0, 1), BuildingBlock: AJUNOK_clean_linker_0, # of connection points: 2
#     Edge 29, Type (0, 1), BuildingBlock: AJUNOK_clean_linker_0, # of connection points: 2
#     Edge 30, Type (0, 1), BuildingBlock: AJUNOK_clean_linker_0, # of connection points: 2
#     Edge 31, Type (0, 1), BuildingBlock: AJUNOK_clean_linker_0, # of connection points: 2
#     Edge 32, Type (0, 1), BuildingBlock: AJUNOK_clean_linker_0, # of connection points: 2
#     Edge 33, Type (0, 1), BuildingBlock: AJUNOK_clean_linker_0, # of connection points: 2
#     Edge 34, Type (0, 1), BuildingBlock: AJUNOK_clean_linker_0, # of connection points: 2
#     Edge 35, Type (0, 1), BuildingBlock: AJUNOK_clean_linker_0, # of connection points: 2
# Relax obj value: 0.107
# Max RMSD: 0.207
# Mean RMSD: 0.151
data_MOF--net-pyr--node1-MIDCAF_clean_sbu_0--node2-CUQRIR_clean_linker_1--edge1-AJUNOK_clean_linker_0
_symmetry_space_group_name_H-M    P1
_symmetry_Int_Tables_number       1
_symmetry_cell_setting            triclinic
loop_
_symmetry_equiv_pos_as_xyz
'x, y, z'
_cell_length_a     23.226884
_cell_length_b     23.227204
_cell_length_c     22.685935
_cell_angle_alpha  87.97223
_cell_angle_beta   92.432149
_cell_angle_gamma 93.960687
loop_
_atom_site_label
_atom_site_type_symbol
_atom_site_fract_x
_atom_site_fract_y
_atom_site_fract_z
_atom_type_partial_charge
C0 C 0.21546 0.29034 0.29031 0.0
N1 N 0.24622 0.24298 0.29911 0.0
N2 N 0.23223 0.32133 0.2415 0.0
C3 C 0.16316 0.3013 0.32442 0.0
C4 C 0.27451 0.29094 0.221 0.0
N5 N 0.28303 0.24311 0.25553 0.0
C6 C 0.30371 0.30509 0.16386 0.0
H7 H 0.13379 0.26159 0.32683 0.0
H8 H 0.13892 0.33711 0.30463 0.0
H9 H 0.17715 0.31221 0.37026 0.0
H10 H 0.34972 0.29492 0.16817 0.0
H11 H 0.30078 0.35132 0.15072 0.0
H12 H 0.28246 0.27824 0.12863 0.0
C13 C 0.26325 0.76609 0.74779 0.0
N14 N 0.26271 0.81406 0.78037 0.0
N15 N 0.31017 0.73621 0.76185 0.0
C16 C 0.22421 0.75428 0.69407 0.0
C17 C 0.33747 0.7669 0.80575 0.0
N18 N 0.30945 0.81444 0.81672 0.0
C19 C 0.3961 0.75457 0.83188 0.0
H20 H 0.17838 0.75541 0.70544 0.0
H21 H 0.2305 0.71144 0.67612 0.0
H22 H 0.23329 0.7882 0.65938 0.0
H23 H 0.42972 0.77897 0.80596 0.0
H24 H 0.40292 0.70783 0.8301 0.0
H25 H 0.40093 0.76836 0.87828 0.0
C26 C 0.6851 0.28397 0.79875 0.0
N27 N 0.71411 0.28151 0.85173 0.0
N28 N 0.70701 0.32801 0.764 0.0
C29 C 0.6293 0.24955 0.7844 0.0
C30 C 0.75178 0.3513 0.79738 0.0
N31 N 0.75579 0.32378 0.85082 0.0
C32 C 0.78483 0.40749 0.78182 0.0
H33 H 0.63091 0.20458 0.80222 0.0
H34 H 0.62057 0.24906 0.73599 0.0
H35 H 0.59337 0.26947 0.80504 0.0
H36 H 0.76228 0.44359 0.79907 0.0
H37 H 0.78721 0.41385 0.73328 0.0
H38 H 0.82923 0.40878 0.80205 0.0
C39 C 0.77242 0.73383 0.26477 0.0
N40 N 0.82507 0.76318 0.26581 0.0
N41 N 0.73893 0.75152 0.30715 0.0
C42 C 0.7571 0.68099 0.22919 0.0
C43 C 0.77264 0.79414 0.33289 0.0
N44 N 0.82555 0.80035 0.30947 0.0
C45 C 0.75629 0.82374 0.3872 0.0
H46 H 0.71165 0.66446 0.23499 0.0
H47 H 0.78633 0.64672 0.24301 0.0
H48 H 0.76319 0.69145 0.1817 0.0
H49 H 0.76519 0.79584 0.4268 0.0
H50 H 0.7094 0.83049 0.38488 0.0
H51 H 0.78122 0.86593 0.39208 0.0
C52 C 0.87942 0.92887 0.97947 0.0
N53 N 0.92178 0.90943 0.94778 0.0
N54 N 0.85714 0.97564 0.95243 0.0
C55 C 0.85575 0.89931 0.0343 0.0
C56 C 0.88788 0.98443 0.90334 0.0
N57 N 0.92767 0.94468 0.90057 0.0
C58 C 0.87326 0.02666 0.85406 0.0
H59 H 0.83905 0.93132 0.06327 0.0
H60 H 0.88934 0.87549 0.05911 0.0
H61 H 0.81928 0.86824 0.02156 0.0
H62 H 0.8491 0.06203 0.87052 0.0
H63 H 0.84592 1.00371 0.81981 0.0
H64 H 0.9131 0.04512 0.83327 0.0
C65 C 0.70152 0.18346 0.48162 0.0
N66 N 0.70362 0.13767 0.44641 0.0
N67 N 0.64771 0.20228 0.48069 0.0
C68 C 0.75265 0.21267 0.51392 0.0
C69 C 0.61695 0.16605 0.44396 0.0
N70 N 0.65065 0.12672 0.42278 0.0
C71 C 0.55658 0.17611 0.42016 0.0
H72 H 0.73852 0.23555 0.55237 0.0
H73 H 0.77443 0.24497 0.48366 0.0
H74 H 0.78412 0.18091 0.52904 0.0
H75 H 0.55808 0.19032 0.37298 0.0
H76 H 0.53626 0.20914 0.44491 0.0
H77 H 0.52882 0.13546 0.42297 0.0
C78 C 0.40803 0.56745 0.12964 0.0
N79 N 0.43614 0.6177 0.14621 0.0
N80 N 0.37689 0.57457 0.0784 0.0
C81 C 0.40302 0.51354 0.16849 0.0
C82 C 0.38905 0.63089 0.06319 0.0
N83 N 0.42328 0.65735 0.1051 0.0
C84 C 0.36211 0.66121 1.01009 0.0
H85 H 0.38545 0.47594 0.14292 0.0
H86 H 0.37383 0.51999 0.20482 0.0
H87 H 0.44596 0.5045 0.18864 0.0
H88 H 0.31603 0.66692 0.01791 0.0
H89 H 0.36363 0.6346 0.97069 0.0
H90 H 0.38463 0.70397 1.00049 0.0
C91 C 0.07036 0.37812 0.67142 0.0
N92 N 0.11841 0.37542 0.64006 0.0
N93 N 0.07124 0.42858 0.69913 0.0
C94 C 0.02442 0.32975 0.67845 0.0
C95 C 0.12211 0.45642 0.68452 0.0
N96 N 0.15082 0.4244 0.64791 0.0
C97 C 0.14662 0.51111 0.71262 0.0
H98 H 0.98346 0.34622 0.69211 0.0
H99 H 0.03937 0.29848 0.71293 0.0
H100 H 0.01656 0.30659 0.63662 0.0
H101 H 0.13506 0.5113 0.75958 0.0
H102 H 0.12743 0.5486 0.68962 0.0
H103 H 0.1943 0.51634 0.7103 0.0
Zn104 Zn 0.98673 0.07926 0.59598 0.0
Zn105 Zn 0.10826 0.95799 0.4973 0.0
Zn106 Zn 0.04434 0.0238 0.54394 0.0
C107 C 0.14294 0.06818 0.45531 0.0
C108 C 0.99765 0.92687 0.45351 0.0
O109 O 0.03734 0.98972 0.63844 0.0
O110 O 0.95451 0.02469 0.65712 0.0
C111 C 0.08307 0.14913 0.58174 0.0
O112 O 0.11122 0.08114 0.49768 0.0
O113 O 0.14484 0.01611 0.44187 0.0
O114 O 0.04542 0.90458 0.46301 0.0
O115 O 0.98876 0.97523 0.47681 0.0
O116 O 0.04778 0.13777 0.62194 0.0
O117 O 0.08487 0.11395 0.53923 0.0
O118 O 0.95498 0.02024 0.49807 0.0
O119 O 0.9325 0.10311 0.53199 0.0
C120 C 0.92142 0.0625 0.49703 0.0
O121 O 0.08625 0.97004 0.61713 0.0
O122 O 0.15584 0.93535 0.56862 0.0
C123 C 0.99376 0.9916 0.67176 0.0
C124 C 0.13338 0.94346 0.61707 0.0
Zn125 Zn 0.45634 0.09132 0.01248 0.0
Zn126 Zn 0.5745 0.97175 0.11607 0.0
Zn127 Zn 0.51377 0.03026 0.07363 0.0
C128 C 0.63119 0.99823 0.02473 0.0
C129 C 0.48778 0.89968 0.10833 0.0
O130 O 0.46951 0.07724 0.14189 0.0
O131 O 0.40385 0.10536 0.07633 0.0
C132 C 0.5644 0.14026 0.99579 0.0
O133 O 0.60123 0.04129 0.03514 0.0
O134 O 0.6179 0.94952 0.04831 0.0
O135 O 0.52252 0.91149 0.15099 0.0
O136 O 0.48096 0.93774 0.06614 0.0
O137 O 0.5134 0.15577 0.99059 0.0
O138 O 0.57334 0.09031 0.01992 0.0
O139 O 0.45172 0.97067 0.02061 0.0
O140 O 0.42764 0.03491 0.95159 0.0
C141 C 0.42614 0.98305 0.97047 0.0
O142 O 0.52258 0.05184 0.16861 0.0
O143 O 0.61292 0.02838 0.16951 0.0
C144 C 0.42097 0.09972 0.1297 0.0
C145 C 0.57354 0.05235 0.19381 0.0
Zn146 Zn 0.56072 0.59788 0.58305 0.0
Zn147 Zn 0.4408 0.46789 0.45142 0.0
Zn148 Zn 0.49599 0.53337 0.51881 0.0
C149 C 0.5349 0.41056 0.4841 0.0
C150 C 0.46017 0.56573 0.38469 0.0
O151 O 0.43738 0.57258 0.57892 0.0
O152 O 0.49837 0.64433 0.6076 0.0
C153 C 0.58703 0.48999 0.6185 0.0
O154 O 0.53413 0.44846 0.52411 0.0
O155 O 0.50217 0.41399 0.43847 0.0
O156 O 0.42138 0.52506 0.38735 0.0
O157 O 0.49796 0.57226 0.4276 0.0
O158 O 0.58993 0.53932 0.64032 0.0
O159 O 0.55786 0.48062 0.56985 0.0
O160 O 0.54298 0.59768 0.45997 0.0
O161 O 0.61334 0.62948 0.52156 0.0
C162 C 0.59158 0.6267 0.46977 0.0
O163 O 0.40659 0.52487 0.55116 0.0
O164 O 0.3806 0.44258 0.50836 0.0
C165 C 0.4479 0.62034 0.60585 0.0
C166 C 0.37102 0.48011 0.54494 0.0
Zn167 Zn 0.06205 0.60245 0.95281 0.0
Zn168 Zn 0.95394 0.49716 0.11614 0.0
Zn169 Zn 1.0088 0.55191 0.03148 0.0
C170 C 0.06714 0.46771 0.13159 0.0
C171 C 0.9025 0.45532 0.01283 0.0
O172 O 0.99123 0.64672 0.02478 0.0
O173 O 0.06235 0.68408 0.97076 0.0
C174 C 0.14376 0.54336 1.01015 0.0
O175 O 0.07268 0.50793 0.09112 0.0
O176 O 0.01763 0.45046 0.14843 0.0
O177 O 0.89121 0.45726 0.06664 0.0
O178 O 0.94618 0.48572 0.99227 0.0
O179 O 0.13679 0.56676 0.95967 0.0
O180 O 0.10139 0.53811 0.04531 0.0
O181 O 0.98244 0.51086 0.94616 0.0
O182 O 0.01275 0.57997 0.88382 0.0
C183 C 0.98766 0.53081 0.8927 0.0
O184 O 0.9685 0.62122 0.07982 0.0
O185 O 0.94015 0.56856 0.15757 0.0
C186 C 0.01844 0.691 0.99972 0.0
C187 C 0.94811 0.61751 0.13202 0.0
C188 C 0.19907 0.14625 0.31785 0.0
C189 C 0.23032 0.19549 0.33927 0.0
C190 C 0.17198 0.10534 0.35617 0.0
C191 C 0.17345 0.11281 0.41755 0.0
H192 H 0.19252 0.14072 0.27109 0.0
H193 H 0.14766 0.0685 0.33722 0.0
S194 S 0.25154 0.23356 0.49634 0.0
N195 N 0.26308 0.24872 0.4259 0.0
N196 N 0.21129 0.17201 0.49834 0.0
C197 C 0.20532 0.16139 0.43989 0.0
C198 C 0.23387 0.20264 0.40067 0.0
C199 C 0.3192 0.86334 0.91236 0.0
C200 C 0.33341 0.86117 0.85273 0.0
C201 C 0.35043 0.90133 0.95141 0.0
C202 C 0.39695 0.9383 0.932 0.0
H203 H 0.28473 0.83436 0.92914 0.0
H204 H 0.33753 0.90245 0.99661 0.0
S205 S 0.45396 0.94583 0.78145 0.0
N206 N 0.39947 0.89635 0.77774 0.0
N207 N 0.45634 0.96896 0.84959 0.0
C208 C 0.41143 0.93619 0.87256 0.0
C209 C 0.38028 0.89726 0.83339 0.0
C210 C 0.62802 0.39142 0.74584 0.0
C211 C 0.67264 0.36168 0.7237 0.0
C212 C 0.59923 0.43152 0.71043 0.0
C213 C 0.61394 0.44291 0.65164 0.0
H214 H 0.61713 0.38522 0.79169 0.0
H215 H 0.56617 0.45485 0.72958 0.0
S216 S 0.72749 0.37602 0.57291 0.0
N217 N 0.72973 0.34513 0.6397 0.0
N218 N 0.67574 0.42151 0.57253 0.0
C219 C 0.65747 0.41244 0.62837 0.0
C220 C 0.68688 0.37148 0.66466 0.0
C221 C 0.8714 0.74968 0.17191 0.0
C222 C 0.87333 0.74514 0.23424 0.0
C223 C 0.90035 0.7119 0.13772 0.0
C224 C 0.93263 0.66852 0.16483 0.0
H225 H 0.84219 0.77844 0.14956 0.0
H226 H 0.89271 0.71309 0.09039 0.0
S227 S 0.95936 0.64484 0.32611 0.0
N228 N 0.91541 0.69777 0.32068 0.0
N229 N 0.97191 0.62926 0.25762 0.0
C230 C 0.94003 0.66805 0.22687 0.0
C231 C 0.91007 0.70581 0.26129 0.0
C232 C 0.3727 0.19076 0.25315 0.0
C233 C 0.3137 0.19501 0.23728 0.0
C234 C 0.40737 0.155 0.2223 0.0
C235 C 0.38388 0.12267 0.1745 0.0
H236 H 0.39293 0.21846 0.28656 0.0
H237 H 0.45337 0.15634 0.23279 0.0
S238 S 0.23071 0.11592 0.1191 0.0
N239 N 0.23363 0.16275 0.1723 0.0
N240 N 0.29627 0.09294 0.11761 0.0
C241 C 0.32386 0.12336 0.16187 0.0
C242 C 0.28946 0.16034 0.19218 0.0
C243 C 0.25741 0.9029 0.71993 0.0
C244 C 0.23115 0.863 0.76017 0.0
C245 C 0.22455 0.93254 0.67693 0.0
C246 C 0.16396 0.92353 0.67229 0.0
H247 H 0.30377 0.90588 0.71673 0.0
H248 H 0.24717 0.95939 0.64411 0.0
S249 S 0.07395 0.82833 0.77148 0.0
N250 N 0.14079 0.82124 0.79724 0.0
N251 N 0.0789 0.87494 0.71486 0.0
C252 C 0.13676 0.88793 0.71565 0.0
C253 C 0.17042 0.8585 0.76019 0.0
C254 C 0.76866 0.39296 0.93049 0.0
C255 C 0.78911 0.34704 0.90043 0.0
C256 C 0.8055 0.42709 0.96776 0.0
C257 C 0.86459 0.4179 0.97434 0.0
H258 H 0.72479 0.40482 0.92226 0.0
H259 H 0.78818 0.46248 0.98959 0.0
S260 S 0.93917 0.30254 0.90635 0.0
N261 N 0.87156 0.29337 0.88078 0.0
N262 N 0.94135 0.35789 0.95044 0.0
C263 C 0.8854 0.37149 0.94556 0.0
C264 C 0.84753 0.33605 0.90859 0.0
C265 C 0.64041 0.72544 0.34179 0.0
C266 C 0.69895 0.71404 0.33983 0.0
C267 C 0.60394 0.69445 0.38163 0.0
C268 C 0.62572 0.65227 0.421 0.0
H269 H 0.62359 0.75981 0.31409 0.0
H270 H 0.55953 0.70549 0.38376 0.0
S271 S 0.7749 0.60448 0.42981 0.0
N272 N 0.77583 0.65581 0.37758 0.0
N273 N 0.70814 0.59839 0.45274 0.0
C274 C 0.6835 0.63915 0.41739 0.0
C275 C 0.71996 0.66986 0.37667 0.0
C276 C 0.19381 0.41794 0.22689 0.0
C277 C 0.19795 0.36141 0.20789 0.0
C278 C 0.15356 0.45421 0.1997 0.0
C279 C 0.11666 0.43492 0.15261 0.0
H280 H 0.22014 0.43307 0.26449 0.0
H281 H 0.14956 0.49649 0.21717 0.0
S282 S 0.11128 0.29108 0.08638 0.0
N283 N 0.16233 0.28836 0.13917 0.0
N284 N 0.08766 0.3565 0.08759 0.0
C285 C 0.12186 0.37927 0.13221 0.0
C286 C 0.16239 0.34251 0.15989 0.0
C287 C 0.6973 0.19163 0.91064 0.0
C288 C 0.69079 0.25118 0.90282 0.0
C289 C 0.65846 0.15604 0.94408 0.0
C290 C 0.6119 0.17887 0.97097 0.0
H291 H 0.72931 0.17178 0.88622 0.0
H292 H 0.66203 0.10999 0.94443 0.0
S293 S 0.57891 0.33309 0.96709 0.0
N294 N 0.63604 0.3316 0.92647 0.0
N295 N 0.56486 0.26598 0.99147 0.0
C296 C 0.60765 0.23909 0.96681 0.0
C297 C 0.64676 0.27494 0.93243 0.0
C298 C 0.89534 0.88466 0.32364 0.0
C299 C 0.87527 0.82804 0.34008 0.0
C300 C 0.93357 0.91777 0.36131 0.0
C301 C 0.95291 0.89508 0.4165 0.0
H302 H 0.87957 0.90407 0.28251 0.0
H303 H 0.94837 0.96108 0.34708 0.0
S304 S 0.90971 0.75111 0.482 0.0
N305 N 0.87445 0.75297 0.41731 0.0
N306 N 0.94834 0.81335 0.48599 0.0
C307 C 0.93337 0.83862 0.4331 0.0
C308 C 0.89401 0.80561 0.39552 0.0
C309 C 0.33706 0.64526 0.71892 0.0
C310 C 0.33977 0.70592 0.71924 0.0
C311 C 0.36856 0.61657 0.67838 0.0
C312 C 0.40359 0.64812 0.63764 0.0
H313 H 0.31182 0.62023 0.75105 0.0
H314 H 0.36807 0.56988 0.68112 0.0
S315 S 0.41882 0.80756 0.61716 0.0
N316 N 0.37528 0.79606 0.67262 0.0
N317 N 0.43448 0.743 0.59704 0.0
C318 C 0.40364 0.70868 0.63588 0.0
C319 C 0.37178 0.73741 0.67661 0.0
C320 C 1.00837 0.96984 0.83625 0.0
C321 C 0.95792 0.93506 0.8481 0.0
C322 C 0.0246 0.98253 0.77789 0.0
C323 C 0.99042 0.9611 0.72982 0.0
H324 H 0.03162 0.99237 0.87187 0.0
H325 H 0.06051 0.01384 0.77031 0.0
S326 S 0.85934 0.86146 0.73816 0.0
N327 N 0.87862 0.87362 0.80779 0.0
N328 N 0.9081 0.89812 0.69814 0.0
C329 C 0.94337 0.92172 0.74147 0.0
C330 C 0.92757 0.90821 0.80072 0.0
C331 C 0.66015 0.1272 0.31584 0.0
C332 C 0.63713 0.10053 0.36695 0.0
C333 C 0.63657 0.11387 0.25972 0.0
C334 C 0.58807 0.0746 0.25277 0.0
H335 H 0.69506 0.16037 0.31954 0.0
H336 H 0.65655 0.13429 0.2213 0.0
S337 S 0.51417 0.99042 0.37249 0.0
N338 N 0.56545 0.03077 0.40713 0.0
N339 N 0.52005 1.00654 0.30134 0.0
C340 C 0.56518 0.04694 0.30337 0.0
C341 C 0.59009 0.05959 0.36049 0.0
C342 C 0.40901 0.63971 0.24506 0.0
C343 C 0.45263 0.62888 0.20672 0.0
C344 C 0.4144 0.62494 0.30535 0.0
C345 C 0.46424 0.6004 0.32925 0.0
H346 H 0.36782 0.6528 0.22702 0.0
H347 H 0.37738 0.62789 0.33233 0.0
S348 S 0.59494 0.57437 0.24891 0.0
N349 N 0.54998 0.60007 0.19764 0.0
N350 N 0.56119 0.57384 0.31164 0.0
C351 C 0.51099 0.5964 0.29271 0.0
C352 C 0.50498 0.61052 0.23108 0.0
C353 C 0.03698 0.4166 0.80025 0.0
C354 C 0.03388 0.44392 0.74411 0.0
C355 C 0.01276 0.44051 0.84868 0.0
C356 C 0.98458 0.49227 0.84215 0.0
H357 H 0.06281 0.37976 0.80762 0.0
H358 H 0.02272 0.42246 0.89226 0.0
S359 S 0.95587 0.57327 0.70144 0.0
N360 N 0.99398 0.51978 0.68264 0.0
N361 N 0.94739 0.56453 0.77324 0.0
C362 C 0.97546 0.51569 0.78472 0.0
C363 C 1.00074 0.49175 0.73577 0.0
C364 C 0.78877 0.03267 1.00141 0.0
C365 C 0.79957 0.99208 0.95961 0.0
C366 C 0.73216 0.0394 0.01812 0.0
C367 C 0.6854 1.00516 0.99372 0.0
H368 H 0.82452 0.05648 0.02372 0.0
H369 H 0.72547 0.06804 0.05351 0.0
S370 S 0.69165 0.89678 0.87881 0.0
N371 N 0.75953 0.92102 0.89084 0.0
N372 N 0.65318 0.93277 0.9228 0.0
C373 C 0.69563 0.96725 0.94919 0.0
C374 C 0.75286 0.96095 0.9319 0.0
C375 C 0.76143 0.05386 0.46945 0.0
C376 C 0.75425 0.10635 0.4379 0.0
C377 C 0.81683 0.03334 0.48082 0.0
C378 C 0.86677 0.06475 0.46091 0.0
H379 H 0.72484 0.0319 0.4907 0.0
H380 H 0.82106 0.99657 0.51105 0.0
S381 S 0.86976 0.19955 0.36834 0.0
N382 N 0.80059 0.18478 0.38042 0.0
N383 N 0.90416 0.1468 0.40169 0.0
C384 C 0.85908 0.11366 0.4238 0.0
C385 C 0.80297 0.13438 0.41235 0.0
C386 C 0.27778 0.55082 0.10722 0.0
C387 C 0.32097 0.54636 0.06631 0.0
C388 C 0.21944 0.54327 0.0901 0.0
C389 C 0.20257 0.53155 0.03139 0.0
H390 H 0.28908 0.5662 0.15099 0.0
H391 H 0.18781 0.55289 0.1214 0.0
S392 S 0.29938 0.50346 0.91127 0.0
N393 N 0.34363 0.51981 0.96811 0.0
N394 N 0.23333 0.50629 0.93489 0.0
C395 C 0.24532 0.52061 0.99188 0.0
C396 C 0.30482 0.5278 1.00967 0.0
C397 C 0.25193 0.40301 0.63176 0.0
C398 C 0.20657 0.43984 0.62355 0.0
C399 C 0.30622 0.41792 0.60856 0.0
C400 C 0.31776 0.47107 0.57816 0.0
H401 H 0.24563 0.36253 0.65633 0.0
H402 H 0.33933 0.38726 0.61375 0.0
S403 S 0.21425 0.58315 0.54546 0.0
N404 N 0.1767 0.53146 0.58188 0.0
N405 N 0.27998 0.56087 0.54166 0.0
C406 C 0.27358 0.50914 0.57133 0.0
C407 C 0.21771 0.49318 0.59322 0.0
C408 C 0.91173 0.8036 0.96239 0.0
C409 C 0.94728 0.85505 0.95824 0.0
C410 C 0.93457 0.75105 0.97995 0.0
C411 C 0.99386 0.74805 0.99371 0.0
H412 H 0.86585 0.80424 0.952 0.0
H413 H 0.90596 0.71218 0.98055 0.0
S414 S 0.10498 0.87082 0.98922 0.0
N415 N 0.04398 0.90019 0.96952 0.0
N416 N 0.08777 0.80127 1.00117 0.0
C417 C 0.02986 0.79932 0.98924 0.0
C418 C 1.00639 0.85281 0.9717 0.0
C419 C 0.49573 0.73885 0.10593 0.0
C420 C 0.43787 0.71825 0.10817 0.0
C421 C 0.51077 0.79817 0.10329 0.0
C422 C 0.46833 0.83871 0.10254 0.0
H423 H 0.5293 0.70877 0.10539 0.0
H424 H 0.55613 0.81259 0.10236 0.0
S425 S 0.31092 0.80619 0.11244 0.0
N426 N 0.33795 0.74216 0.11301 0.0
N427 N 0.36651 0.85431 0.10743 0.0
C428 C 0.41031 0.81871 0.1055 0.0
C429 C 0.39499 0.75817 0.1087 0.0
C430 C 0.15341 0.27904 0.65229 0.0
C431 C 0.13461 0.32349 0.61417 0.0
C432 C 0.14434 0.22108 0.63724 0.0
C433 C 0.11617 0.20561 0.58345 0.0
H434 H 0.16866 0.28887 0.69683 0.0
H435 H 0.15346 0.18805 0.67062 0.0
S436 S 0.06881 0.30641 0.46393 0.0
N437 N 0.09465 0.34892 0.51716 0.0
N438 N 0.07776 0.23957 0.4883 0.0
C439 C 0.10398 0.24982 0.54191 0.0
C440 C 0.11316 0.30902 0.55747 0.0
C441 C 0.63841 0.30159 0.44445 0.0
C442 C 0.63281 0.26 0.49066 0.0
C443 C 0.60865 0.35198 0.44414 0.0
C444 C 0.57329 0.36279 0.49065 0.0
H445 H 0.66236 0.29272 0.40623 0.0
H446 H 0.61136 0.3815 0.40614 0.0
S447 S 0.54837 0.2695 0.62407 0.0
N448 N 0.59229 0.23403 0.58535 0.0
N449 N 0.53727 0.32992 0.58588 0.0
C450 C 0.57049 0.32346 0.53904 0.0
C451 C 0.60021 0.27169 0.53884 0.0
loop_
_geom_bond_atom_site_label_1
_geom_bond_atom_site_label_2
_geom_bond_distance
_geom_bond_site_symmetry_2
_ccdc_geom_bond_type
C0 N1 1.317 . S
C0 N2 1.348 . S
C0 C3 1.485 . S
N1 C0 1.317 . S
N1 N5 1.370 . S
N2 C0 1.348 . S
N2 C4 1.346 . S
C3 C0 1.485 . S
C3 H7 0.960 . S
C3 H8 0.961 . S
C3 H9 0.960 . S
C4 N2 1.346 . S
C4 N5 1.307 . S
C4 C6 1.486 . S
N5 N1 1.370 . S
N5 C4 1.307 . S
C6 C4 1.486 . S
C6 H10 0.960 . S
C6 H11 0.960 . S
C6 H12 0.959 . S
H7 C3 0.960 . S
H8 C3 0.961 . S
H9 C3 0.960 . S
H10 C6 0.960 . S
H11 C6 0.960 . S
H12 C6 0.959 . S
C13 N14 1.317 . S
C13 N15 1.348 . S
C13 C16 1.485 . S
N14 C13 1.317 . S
N14 N18 1.370 . S
N15 C13 1.348 . S
N15 C17 1.346 . S
C16 C13 1.485 . S
C16 H20 0.960 . S
C16 H21 0.961 . S
C16 H22 0.960 . S
C17 N15 1.346 . S
C17 N18 1.307 . S
C17 C19 1.486 . S
N18 N14 1.370 . S
N18 C17 1.307 . S
C19 C17 1.486 . S
C19 H23 0.960 . S
C19 H24 0.960 . S
C19 H25 0.959 . S
H20 C16 0.960 . S
H21 C16 0.961 . S
H22 C16 0.960 . S
H23 C19 0.960 . S
H24 C19 0.960 . S
H25 C19 0.959 . S
C26 N27 1.317 . S
C26 N28 1.348 . S
C26 C29 1.485 . S
N27 C26 1.317 . S
N27 N31 1.370 . S
N28 C26 1.348 . S
N28 C30 1.346 . S
C29 C26 1.485 . S
C29 H33 0.960 . S
C29 H34 0.961 . S
C29 H35 0.960 . S
C30 N28 1.346 . S
C30 N31 1.307 . S
C30 C32 1.486 . S
N31 N27 1.370 . S
N31 C30 1.307 . S
C32 C30 1.486 . S
C32 H36 0.960 . S
C32 H37 0.960 . S
C32 H38 0.959 . S
H33 C29 0.960 . S
H34 C29 0.961 . S
H35 C29 0.960 . S
H36 C32 0.960 . S
H37 C32 0.960 . S
H38 C32 0.959 . S
C39 N40 1.317 . S
C39 N41 1.348 . S
C39 C42 1.485 . S
N40 C39 1.317 . S
N40 N44 1.370 . S
N41 C39 1.348 . S
N41 C43 1.346 . S
C42 C39 1.485 . S
C42 H46 0.960 . S
C42 H47 0.961 . S
C42 H48 0.960 . S
C43 N41 1.346 . S
C43 N44 1.307 . S
C43 C45 1.486 . S
N44 N40 1.370 . S
N44 C43 1.307 . S
C45 C43 1.486 . S
C45 H49 0.960 . S
C45 H50 0.960 . S
C45 H51 0.959 . S
H46 C42 0.960 . S
H47 C42 0.961 . S
H48 C42 0.960 . S
H49 C45 0.960 . S
H50 C45 0.960 . S
H51 C45 0.959 . S
C52 N53 1.317 . S
C52 N54 1.348 . S
C52 C55 1.485 1_556 S
N53 C52 1.317 . S
N53 N57 1.370 . S
N54 C52 1.348 . S
N54 C56 1.346 . S
C55 C52 1.485 1_554 S
C55 H59 0.960 . S
C55 H60 0.961 . S
C55 H61 0.960 . S
C56 N54 1.346 . S
C56 N57 1.307 . S
C56 C58 1.486 1_565 S
N57 N53 1.370 . S
N57 C56 1.307 . S
C58 C56 1.486 1_545 S
C58 H62 0.960 . S
C58 H63 0.960 . S
C58 H64 0.959 . S
H59 C55 0.960 . S
H60 C55 0.961 . S
H61 C55 0.960 . S
H62 C58 0.960 . S
H63 C58 0.960 . S
H64 C58 0.959 . S
C65 N66 1.317 . S
C65 N67 1.348 . S
C65 C68 1.485 . S
N66 C65 1.317 . S
N66 N70 1.370 . S
N67 C65 1.348 . S
N67 C69 1.346 . S
C68 C65 1.485 . S
C68 H72 0.960 . S
C68 H73 0.961 . S
C68 H74 0.960 . S
C69 N67 1.346 . S
C69 N70 1.307 . S
C69 C71 1.486 . S
N70 N66 1.370 . S
N70 C69 1.307 . S
C71 C69 1.486 . S
C71 H75 0.960 . S
C71 H76 0.960 . S
C71 H77 0.959 . S
H72 C68 0.960 . S
H73 C68 0.961 . S
H74 C68 0.960 . S
H75 C71 0.960 . S
H76 C71 0.960 . S
H77 C71 0.959 . S
C78 N79 1.317 . S
C78 N80 1.348 . S
C78 C81 1.485 . S
N79 C78 1.317 . S
N79 N83 1.370 . S
N80 C78 1.348 . S
N80 C82 1.346 . S
C81 C78 1.485 . S
C81 H85 0.960 . S
C81 H86 0.961 . S
C81 H87 0.960 . S
C82 N80 1.346 . S
C82 N83 1.307 . S
C82 C84 1.486 . S
N83 N79 1.370 . S
N83 C82 1.307 . S
C84 C82 1.486 . S
C84 H88 0.960 . S
C84 H89 0.960 1_554 S
C84 H90 0.959 . S
H85 C81 0.960 . S
H86 C81 0.961 . S
H87 C81 0.960 . S
H88 C84 0.960 . S
H89 C84 0.960 1_556 S
H90 C84 0.959 . S
C91 N92 1.317 . S
C91 N93 1.348 . S
C91 C94 1.479 1_455 S
N92 C91 1.317 . S
N92 N96 1.370 . S
N93 C91 1.348 . S
N93 C95 1.346 . S
C94 C91 1.479 1_655 S
C94 H98 0.967 . S
C94 H99 0.962 . S
C94 H100 0.958 1_655 S
C95 N93 1.346 . S
C95 N96 1.307 . S
C95 C97 1.486 . S
N96 N92 1.370 . S
N96 C95 1.307 . S
C97 C95 1.486 . S
C97 H101 0.960 . S
C97 H102 0.960 . S
C97 H103 0.959 . S
H98 C94 0.967 . S
H99 C94 0.962 . S
H100 C94 0.958 1_455 S
H101 C97 0.960 . S
H102 C97 0.960 . S
H103 C97 0.959 . S
Zn104 O110 1.920 . S
Zn104 O116 1.898 . S
Zn104 O119 1.905 . S
Zn105 O113 1.905 1_565 S
Zn105 O114 1.898 . S
Zn105 O122 1.920 . S
Zn106 O109 2.077 1_445 S
Zn106 O112 2.114 . S
Zn106 O115 2.120 1_545 S
Zn106 O117 2.120 . S
Zn106 O118 2.114 1_455 S
Zn106 O121 2.080 . S
C107 O112 1.166 . S
C107 O113 1.182 . S
C108 O114 1.181 . S
C108 O115 1.299 . S
O109 Zn106 2.077 1_665 S
O109 C123 1.301 1_565 S
O110 Zn104 1.920 . S
O110 C123 1.234 . S
C111 O116 1.167 1_455 S
C111 O117 1.299 . S
O112 Zn106 2.114 . S
O112 C107 1.166 . S
O113 Zn105 1.905 1_545 S
O113 C107 1.182 . S
O114 Zn105 1.898 . S
O114 C108 1.181 . S
O115 Zn106 2.120 1_565 S
O115 C108 1.299 . S
O116 Zn104 1.898 . S
O116 C111 1.167 1_655 S
O117 Zn106 2.120 . S
O117 C111 1.299 . S
O118 Zn106 2.114 1_655 S
O118 C120 1.166 . S
O119 Zn104 1.905 . S
O119 C120 1.182 . S
C120 O118 1.166 . S
C120 O119 1.182 . S
O121 Zn106 2.080 . S
O121 C124 1.305 1_545 S
O122 Zn105 1.920 . S
O122 C124 1.234 . S
C123 O109 1.301 1_545 S
C123 O110 1.234 . S
C124 O121 1.305 1_565 S
C124 O122 1.234 . S
Zn125 O131 1.920 1_556 S
Zn125 O137 1.898 . S
Zn125 O140 1.905 . S
Zn126 O134 1.905 . S
Zn126 O135 1.898 . S
Zn126 O143 1.920 . S
Zn127 O130 2.080 . S
Zn127 O133 2.114 1_545 S
Zn127 O136 2.120 1_545 S
Zn127 O138 2.120 . S
Zn127 O139 2.114 1_544 S
Zn127 O142 2.080 . S
C128 O133 1.166 . S
C128 O134 1.182 . S
C129 O135 1.167 . S
C129 O136 1.299 . S
O130 Zn127 2.080 . S
O130 C144 1.305 . S
O131 Zn125 1.920 1_554 S
O131 C144 1.234 . S
C132 O137 1.167 . S
C132 O138 1.299 1_556 S
O133 Zn127 2.114 1_565 S
O133 C128 1.166 . S
O134 Zn126 1.905 . S
O134 C128 1.182 . S
O135 Zn126 1.898 . S
O135 C129 1.167 . S
O136 Zn127 2.120 1_565 S
O136 C129 1.299 . S
O137 Zn125 1.898 . S
O137 C132 1.167 . S
O138 Zn127 2.120 . S
O138 C132 1.299 1_554 S
O139 Zn127 2.114 1_566 S
O139 C141 1.166 . S
O140 Zn125 1.905 . S
O140 C141 1.182 1_545 S
C141 O139 1.166 . S
C141 O140 1.182 1_565 S
O142 Zn127 2.080 . S
O142 C145 1.305 . S
O143 Zn126 1.920 . S
O143 C145 1.234 1_565 S
C144 O130 1.305 . S
C144 O131 1.234 . S
C145 O142 1.305 . S
C145 O143 1.234 1_545 S
Zn146 O152 1.920 . S
Zn146 O158 1.898 . S
Zn146 O161 1.905 . S
Zn147 O155 1.905 . S
Zn147 O156 1.898 . S
Zn147 O164 1.920 . S
Zn148 O151 2.080 . S
Zn148 O154 2.114 . S
Zn148 O157 2.120 . S
Zn148 O159 2.120 . S
Zn148 O160 2.114 . S
Zn148 O163 2.080 . S
C149 O154 1.166 . S
C149 O155 1.182 . S
C150 O156 1.167 . S
C150 O157 1.299 . S
O151 Zn148 2.080 . S
O151 C165 1.305 . S
O152 Zn146 1.920 . S
O152 C165 1.234 . S
C153 O158 1.167 . S
C153 O159 1.299 . S
O154 Zn148 2.114 . S
O154 C149 1.166 . S
O155 Zn147 1.905 . S
O155 C149 1.182 . S
O156 Zn147 1.898 . S
O156 C150 1.167 . S
O157 Zn148 2.120 . S
O157 C150 1.299 . S
O158 Zn146 1.898 . S
O158 C153 1.167 . S
O159 Zn148 2.120 . S
O159 C153 1.299 . S
O160 Zn148 2.114 . S
O160 C162 1.166 . S
O161 Zn146 1.905 . S
O161 C162 1.182 . S
C162 O160 1.166 . S
C162 O161 1.182 . S
O163 Zn148 2.080 . S
O163 C166 1.305 . S
O164 Zn147 1.920 . S
O164 C166 1.234 . S
C165 O151 1.305 . S
C165 O152 1.234 . S
C166 O163 1.305 . S
C166 O164 1.234 . S
Zn167 O173 1.920 . S
Zn167 O179 1.898 . S
Zn167 O182 1.905 . S
Zn168 O176 1.905 . S
Zn168 O177 1.898 . S
Zn168 O185 1.920 . S
Zn169 O172 2.080 1_454 S
Zn169 O175 2.114 . S
Zn169 O178 2.120 1_454 S
Zn169 O180 2.120 . S
Zn169 O181 2.114 1_554 S
Zn169 O184 2.080 1_455 S
C170 O175 1.166 . S
C170 O176 1.182 1_455 S
C171 O177 1.167 1_556 S
C171 O178 1.299 . S
O172 Zn169 2.080 1_656 S
O172 C186 1.305 1_655 S
O173 Zn167 1.920 . S
O173 C186 1.234 . S
C174 O179 1.167 1_554 S
C174 O180 1.299 . S
O175 Zn169 2.114 . S
O175 C170 1.166 . S
O176 Zn168 1.905 . S
O176 C170 1.182 1_655 S
O177 Zn168 1.898 . S
O177 C171 1.167 1_554 S
O178 Zn169 2.120 1_656 S
O178 C171 1.299 . S
O179 Zn167 1.898 . S
O179 C174 1.167 1_556 S
O180 Zn169 2.120 . S
O180 C174 1.299 . S
O181 Zn169 2.114 1_556 S
O181 C183 1.166 . S
O182 Zn167 1.905 . S
O182 C183 1.182 . S
C183 O181 1.166 . S
C183 O182 1.182 . S
O184 Zn169 2.080 1_655 S
O184 C187 1.305 . S
O185 Zn168 1.920 . S
O185 C187 1.234 . S
C186 O172 1.305 1_455 S
C186 O173 1.234 . S
C187 O184 1.305 . S
C187 O185 1.234 . S
C188 C189 1.369 . S
C188 C190 1.419 . S
C188 H192 0.930 . S
C189 C188 1.369 . S
C189 C198 1.429 . S
C190 C188 1.419 . S
C190 C191 1.363 . S
C190 H193 0.929 . S
C191 C190 1.363 . S
C191 C197 1.428 . S
H192 C188 0.930 . S
H193 C190 0.929 . S
S194 N195 1.613 . S
S194 N196 1.610 . S
N195 S194 1.613 . S
N195 C198 1.350 . S
N196 S194 1.610 . S
N196 C197 1.351 . S
C197 C191 1.428 . S
C197 N196 1.351 . S
C197 C198 1.434 . S
C198 C189 1.429 . S
C198 N195 1.350 . S
C198 C197 1.434 . S
C199 C200 1.369 . S
C199 C201 1.419 . S
C199 H203 0.930 . S
C200 C199 1.369 . S
C200 C209 1.429 . S
C201 C199 1.419 . S
C201 C202 1.363 . S
C201 H204 0.929 . S
C202 C201 1.363 . S
C202 C208 1.428 . S
H203 C199 0.930 . S
H204 C201 0.929 . S
S205 N206 1.613 1_545 S
S205 N207 1.610 . S
N206 S205 1.613 1_565 S
N206 C209 1.350 . S
N207 S205 1.610 . S
N207 C208 1.351 1_545 S
C208 C202 1.428 . S
C208 N207 1.351 1_565 S
C208 C209 1.434 . S
C209 C200 1.429 . S
C209 N206 1.350 . S
C209 C208 1.434 . S
C210 C211 1.369 . S
C210 C212 1.419 . S
C210 H214 0.930 . S
C211 C210 1.369 . S
C211 C220 1.429 . S
C212 C210 1.419 . S
C212 C213 1.363 . S
C212 H215 0.929 . S
C213 C212 1.363 . S
C213 C219 1.428 . S
H214 C210 0.930 . S
H215 C212 0.929 . S
S216 N217 1.613 . S
S216 N218 1.610 . S
N217 S216 1.613 . S
N217 C220 1.350 . S
N218 S216 1.610 . S
N218 C219 1.351 . S
C219 C213 1.428 . S
C219 N218 1.351 . S
C219 C220 1.434 . S
C220 C211 1.429 . S
C220 N217 1.350 . S
C220 C219 1.434 . S
C221 C222 1.369 . S
C221 C223 1.419 . S
C221 H225 0.930 . S
C222 C221 1.369 . S
C222 C231 1.429 . S
C223 C221 1.419 . S
C223 C224 1.363 . S
C223 H226 0.929 . S
C224 C223 1.363 . S
C224 C230 1.428 . S
H225 C221 0.930 . S
H226 C223 0.929 . S
S227 N228 1.613 . S
S227 N229 1.610 . S
N228 S227 1.613 . S
N228 C231 1.350 . S
N229 S227 1.610 . S
N229 C230 1.351 . S
C230 C224 1.428 . S
C230 N229 1.351 . S
C230 C231 1.434 . S
C231 C222 1.429 . S
C231 N228 1.350 . S
C231 C230 1.434 . S
C232 C233 1.369 . S
C232 C234 1.419 . S
C232 H236 0.930 . S
C233 C232 1.369 . S
C233 C242 1.429 . S
C234 C232 1.419 . S
C234 C235 1.363 . S
C234 H237 0.929 . S
C235 C234 1.363 . S
C235 C241 1.428 . S
H236 C232 0.930 . S
H237 C234 0.929 . S
S238 N239 1.613 1_565 S
S238 N240 1.610 1_565 S
N239 S238 1.613 1_545 S
N239 C242 1.350 . S
N240 S238 1.610 1_545 S
N240 C241 1.351 . S
C241 C235 1.428 . S
C241 N240 1.351 . S
C241 C242 1.434 . S
C242 C233 1.429 . S
C242 N239 1.350 . S
C242 C241 1.434 . S
C243 C244 1.369 . S
C243 C245 1.419 . S
C243 H247 0.930 . S
C244 C243 1.369 . S
C244 C253 1.429 . S
C245 C243 1.419 . S
C245 C246 1.363 . S
C245 H248 0.929 1_565 S
C246 C245 1.363 . S
C246 C252 1.428 . S
H247 C243 0.930 . S
H248 C245 0.929 1_545 S
S249 N250 1.613 . S
S249 N251 1.610 . S
N250 S249 1.613 . S
N250 C253 1.350 . S
N251 S249 1.610 . S
N251 C252 1.351 . S
C252 C246 1.428 . S
C252 N251 1.351 . S
C252 C253 1.434 . S
C253 C244 1.429 . S
C253 N250 1.350 . S
C253 C252 1.434 . S
C254 C255 1.369 . S
C254 C256 1.419 . S
C254 H258 0.930 . S
C255 C254 1.369 . S
C255 C264 1.429 . S
C256 C254 1.419 . S
C256 C257 1.363 . S
C256 H259 0.929 . S
C257 C256 1.363 . S
C257 C263 1.428 . S
H258 C254 0.930 . S
H259 C256 0.929 . S
S260 N261 1.613 . S
S260 N262 1.610 . S
N261 S260 1.613 . S
N261 C264 1.350 . S
N262 S260 1.610 . S
N262 C263 1.351 . S
C263 C257 1.428 . S
C263 N262 1.351 . S
C263 C264 1.434 . S
C264 C255 1.429 . S
C264 N261 1.350 . S
C264 C263 1.434 . S
C265 C266 1.369 . S
C265 C267 1.419 . S
C265 H269 0.930 . S
C266 C265 1.369 . S
C266 C275 1.429 . S
C267 C265 1.419 . S
C267 C268 1.363 . S
C267 H270 0.929 . S
C268 C267 1.363 . S
C268 C274 1.428 . S
H269 C265 0.930 . S
H270 C267 0.929 . S
S271 N272 1.613 . S
S271 N273 1.610 . S
N272 S271 1.613 . S
N272 C275 1.350 . S
N273 S271 1.610 . S
N273 C274 1.351 . S
C274 C268 1.428 . S
C274 N273 1.351 . S
C274 C275 1.434 . S
C275 C266 1.429 . S
C275 N272 1.350 . S
C275 C274 1.434 . S
C276 C277 1.369 . S
C276 C278 1.419 . S
C276 H280 0.930 . S
C277 C276 1.369 . S
C277 C286 1.429 . S
C278 C276 1.419 . S
C278 C279 1.363 . S
C278 H281 0.929 . S
C279 C278 1.363 . S
C279 C285 1.428 . S
H280 C276 0.930 . S
H281 C278 0.929 . S
S282 N283 1.613 . S
S282 N284 1.610 . S
N283 S282 1.613 . S
N283 C286 1.350 . S
N284 S282 1.610 . S
N284 C285 1.351 . S
C285 C279 1.428 . S
C285 N284 1.351 . S
C285 C286 1.434 . S
C286 C277 1.429 . S
C286 N283 1.350 . S
C286 C285 1.434 . S
C287 C288 1.369 . S
C287 C289 1.419 . S
C287 H291 0.930 . S
C288 C287 1.369 . S
C288 C297 1.429 . S
C289 C287 1.419 . S
C289 C290 1.363 . S
C289 H292 0.929 . S
C290 C289 1.363 . S
C290 C296 1.428 1_556 S
H291 C287 0.930 . S
H292 C289 0.929 . S
S293 N294 1.613 . S
S293 N295 1.610 . S
N294 S293 1.613 . S
N294 C297 1.350 1_554 S
N295 S293 1.610 . S
N295 C296 1.351 . S
C296 C290 1.428 1_554 S
C296 N295 1.351 . S
C296 C297 1.434 1_554 S
C297 C288 1.429 . S
C297 N294 1.350 1_556 S
C297 C296 1.434 1_556 S
C298 C299 1.369 . S
C298 C300 1.419 . S
C298 H302 0.930 . S
C299 C298 1.369 . S
C299 C308 1.429 . S
C300 C298 1.419 . S
C300 C301 1.363 . S
C300 H303 0.929 . S
C301 C300 1.363 . S
C301 C307 1.428 . S
H302 C298 0.930 . S
H303 C300 0.929 . S
S304 N305 1.613 1_455 S
S304 N306 1.610 . S
N305 S304 1.613 1_655 S
N305 C308 1.350 . S
N306 S304 1.610 . S
N306 C307 1.351 1_455 S
C307 C301 1.428 . S
C307 N306 1.351 1_655 S
C307 C308 1.434 . S
C308 C299 1.429 . S
C308 N305 1.350 . S
C308 C307 1.434 . S
C309 C310 1.369 . S
C309 C311 1.419 . S
C309 H313 0.930 . S
C310 C309 1.369 . S
C310 C319 1.429 . S
C311 C309 1.419 . S
C311 C312 1.363 . S
C311 H314 0.929 . S
C312 C311 1.363 . S
C312 C318 1.428 . S
H313 C309 0.930 . S
H314 C311 0.929 . S
S315 N316 1.613 . S
S315 N317 1.610 . S
N316 S315 1.613 . S
N316 C319 1.350 . S
N317 S315 1.610 . S
N317 C318 1.351 . S
C318 C312 1.428 . S
C318 N317 1.351 . S
C318 C319 1.434 . S
C319 C310 1.429 . S
C319 N316 1.350 . S
C319 C318 1.434 . S
C320 C321 1.369 1_445 S
C320 C322 1.419 . S
C320 H324 0.930 . S
C321 C320 1.369 1_665 S
C321 C330 1.429 . S
C322 C320 1.419 . S
C322 C323 1.363 1_445 S
C322 H325 0.929 . S
C323 C322 1.363 1_665 S
C323 C329 1.428 . S
H324 C320 0.930 . S
H325 C322 0.929 . S
S326 N327 1.613 . S
S326 N328 1.610 . S
N327 S326 1.613 . S
N327 C330 1.350 . S
N328 S326 1.610 . S
N328 C329 1.351 . S
C329 C323 1.428 . S
C329 N328 1.351 . S
C329 C330 1.434 . S
C330 C321 1.429 . S
C330 N327 1.350 . S
C330 C329 1.434 . S
C331 C332 1.369 . S
C331 C333 1.419 . S
C331 H335 0.930 . S
C332 C331 1.369 . S
C332 C341 1.429 . S
C333 C331 1.419 . S
C333 C334 1.363 . S
C333 H336 0.929 . S
C334 C333 1.363 . S
C334 C340 1.428 . S
H335 C331 0.930 . S
H336 C333 0.929 . S
S337 N338 1.613 . S
S337 N339 1.610 . S
N338 S337 1.613 . S
N338 C341 1.350 1_565 S
N339 S337 1.610 . S
N339 C340 1.351 1_565 S
C340 C334 1.428 . S
C340 N339 1.351 1_545 S
C340 C341 1.434 . S
C341 C332 1.429 . S
C341 N338 1.350 1_545 S
C341 C340 1.434 . S
C342 C343 1.369 . S
C342 C344 1.419 . S
C342 H346 0.930 . S
C343 C342 1.369 . S
C343 C352 1.429 . S
C344 C342 1.419 . S
C344 C345 1.363 . S
C344 H347 0.929 . S
C345 C344 1.363 . S
C345 C351 1.428 . S
H346 C342 0.930 . S
H347 C344 0.929 . S
S348 N349 1.613 . S
S348 N350 1.610 . S
N349 S348 1.613 . S
N349 C352 1.350 . S
N350 S348 1.610 . S
N350 C351 1.351 . S
C351 C345 1.428 . S
C351 N350 1.351 . S
C351 C352 1.434 . S
C352 C343 1.429 . S
C352 N349 1.350 . S
C352 C351 1.434 . S
C353 C354 1.369 . S
C353 C355 1.419 . S
C353 H357 0.930 . S
C354 C353 1.369 . S
C354 C363 1.429 1_455 S
C355 C353 1.419 . S
C355 C356 1.363 . S
C355 H358 0.929 . S
C356 C355 1.363 . S
C356 C362 1.428 1_455 S
H357 C353 0.930 . S
H358 C355 0.929 . S
S359 N360 1.613 . S
S359 N361 1.610 . S
N360 S359 1.613 . S
N360 C363 1.350 . S
N361 S359 1.610 . S
N361 C362 1.351 . S
C362 C356 1.428 1_655 S
C362 N361 1.351 . S
C362 C363 1.434 . S
C363 C354 1.429 1_655 S
C363 N360 1.350 . S
C363 C362 1.434 . S
C364 C365 1.370 1_545 S
C364 C366 1.419 . S
C364 H368 0.930 . S
C365 C364 1.370 1_565 S
C365 C374 1.428 1_554 S
C366 C364 1.419 . S
C366 C367 1.363 1_545 S
C366 H369 0.929 . S
C367 C366 1.363 1_565 S
C367 C373 1.428 1_554 S
H368 C364 0.930 . S
H369 C366 0.929 . S
S370 N371 1.613 . S
S370 N372 1.610 . S
N371 S370 1.613 . S
N371 C374 1.350 . S
N372 S370 1.610 . S
N372 C373 1.351 . S
C373 C367 1.428 1_556 S
C373 N372 1.351 . S
C373 C374 1.434 . S
C374 C365 1.428 1_556 S
C374 N371 1.350 . S
C374 C373 1.434 . S
C375 C376 1.369 . S
C375 C377 1.419 . S
C375 H379 0.930 1_545 S
C376 C375 1.369 . S
C376 C385 1.429 . S
C377 C375 1.419 . S
C377 C378 1.363 . S
C377 H380 0.929 1_545 S
C378 C377 1.363 . S
C378 C384 1.428 . S
H379 C375 0.930 1_565 S
H380 C377 0.929 1_565 S
S381 N382 1.613 . S
S381 N383 1.610 . S
N382 S381 1.613 . S
N382 C385 1.350 . S
N383 S381 1.610 . S
N383 C384 1.351 . S
C384 C378 1.428 . S
C384 N383 1.351 . S
C384 C385 1.434 . S
C385 C376 1.429 . S
C385 N382 1.350 . S
C385 C384 1.434 . S
C386 C387 1.369 . S
C386 C388 1.419 . S
C386 H390 0.930 . S
C387 C386 1.369 . S
C387 C396 1.429 . S
C388 C386 1.419 . S
C388 C389 1.363 . S
C388 H391 0.929 . S
C389 C388 1.363 . S
C389 C395 1.428 . S
H390 C386 0.930 . S
H391 C388 0.929 . S
S392 N393 1.613 . S
S392 N394 1.610 . S
N393 S392 1.613 . S
N393 C396 1.350 1_556 S
N394 S392 1.610 . S
N394 C395 1.351 1_556 S
C395 C389 1.428 . S
C395 N394 1.351 1_554 S
C395 C396 1.434 . S
C396 C387 1.429 . S
C396 N393 1.350 1_554 S
C396 C395 1.434 . S
C397 C398 1.369 . S
C397 C399 1.419 . S
C397 H401 0.930 . S
C398 C397 1.369 . S
C398 C407 1.429 . S
C399 C397 1.419 . S
C399 C400 1.363 . S
C399 H402 0.929 . S
C400 C399 1.363 . S
C400 C406 1.428 . S
H401 C397 0.930 . S
H402 C399 0.929 . S
S403 N404 1.613 . S
S403 N405 1.610 . S
N404 S403 1.613 . S
N404 C407 1.350 . S
N405 S403 1.610 . S
N405 C406 1.351 . S
C406 C400 1.428 . S
C406 N405 1.351 . S
C406 C407 1.434 . S
C407 C398 1.429 . S
C407 N404 1.350 . S
C407 C406 1.434 . S
C408 C409 1.369 . S
C408 C410 1.419 . S
C408 H412 0.930 . S
C409 C408 1.369 . S
C409 C418 1.429 1_556 S
C410 C408 1.419 . S
C410 C411 1.363 . S
C410 H413 0.929 . S
C411 C410 1.363 . S
C411 C417 1.428 1_556 S
H412 C408 0.930 . S
H413 C410 0.929 . S
S414 N415 1.613 . S
S414 N416 1.610 . S
N415 S414 1.613 . S
N415 C418 1.350 . S
N416 S414 1.610 . S
N416 C417 1.351 . S
C417 C411 1.428 1_554 S
C417 N416 1.351 . S
C417 C418 1.434 . S
C418 C409 1.429 1_554 S
C418 N415 1.350 . S
C418 C417 1.434 . S
C419 C420 1.369 . S
C419 C421 1.419 . S
C419 H423 0.930 . S
C420 C419 1.369 . S
C420 C429 1.429 . S
C421 C419 1.419 . S
C421 C422 1.363 . S
C421 H424 0.929 . S
C422 C421 1.363 . S
C422 C428 1.428 . S
H423 C419 0.930 . S
H424 C421 0.929 . S
S425 N426 1.613 . S
S425 N427 1.610 . S
N426 S425 1.613 . S
N426 C429 1.350 . S
N427 S425 1.610 . S
N427 C428 1.351 . S
C428 C422 1.428 . S
C428 N427 1.351 . S
C428 C429 1.434 . S
C429 C420 1.429 . S
C429 N426 1.350 . S
C429 C428 1.434 . S
C430 C431 1.369 . S
C430 C432 1.419 . S
C430 H434 0.930 . S
C431 C430 1.369 . S
C431 C440 1.429 . S
C432 C430 1.419 . S
C432 C433 1.363 . S
C432 H435 0.929 . S
C433 C432 1.363 . S
C433 C439 1.428 . S
H434 C430 0.930 . S
H435 C432 0.929 . S
S436 N437 1.613 . S
S436 N438 1.610 . S
N437 S436 1.613 . S
N437 C440 1.350 . S
N438 S436 1.610 . S
N438 C439 1.351 . S
C439 C433 1.428 . S
C439 N438 1.351 . S
C439 C440 1.434 . S
C440 C431 1.429 . S
C440 N437 1.350 . S
C440 C439 1.434 . S
C441 C442 1.369 . S
C441 C443 1.419 . S
C441 H445 0.930 . S
C442 C441 1.369 . S
C442 C451 1.429 . S
C443 C441 1.419 . S
C443 C444 1.363 . S
C443 H446 0.929 . S
C444 C443 1.363 . S
C444 C450 1.428 . S
H445 C441 0.930 . S
H446 C443 0.929 . S
S447 N448 1.613 . S
S447 N449 1.610 . S
N448 S447 1.613 . S
N448 C451 1.350 . S
N449 S447 1.610 . S
N449 C450 1.351 . S
C450 C444 1.428 . S
C450 N449 1.351 . S
C450 C451 1.434 . S
C451 C442 1.429 . S
C451 N448 1.350 . S
C451 C450 1.434 . S
C189 N1 1.493 . S
C191 C107 1.427 . S
C200 N18 1.753 . S
C202 C141 1.652 . S
C213 C153 1.134 . S
C211 N28 1.208 . S
C222 N40 1.591 . S
C224 C187 1.544 . S
C235 C144 1.638 . S
C233 N5 1.759 . S
C246 C124 1.520 . S
C244 N14 1.524 . S
C257 C171 1.385 . S
C255 N31 1.484 . S
C268 C162 1.187 . S
C266 N41 1.276 . S
C277 N2 1.476 . S
C279 C170 1.415 . S
C290 C132 1.460 . S
C288 N27 1.558 . S
C299 N44 1.592 . S
C301 C108 1.504 1_655 S
C310 N15 1.413 . S
C312 C165 1.283 . S
C323 C123 1.597 1_565 S
C321 N57 1.734 . S
C332 N70 1.396 . S
C334 C145 1.316 . S
C343 N79 1.458 . S
C345 C150 1.468 . S
C354 N93 1.450 . S
C356 C183 1.392 . S
C365 N54 1.521 1_554 S
C367 C128 1.468 . S
C378 C120 1.757 . S
C376 N66 1.852 . S
C389 C174 1.182 . S
C387 N80 1.233 . S
C400 C166 1.459 . S
C398 N96 1.521 . S
C409 N53 1.551 . S
C411 C186 1.463 1_655 S
C422 C129 1.490 . S
C420 N83 1.520 . S
C433 C111 1.529 . S
C431 N92 1.638 . S
C442 N67 1.522 . S
C444 C149 1.514 . S
