# Generated by pormake.
# Topology rtl, (3,6)-cn, num edge types: 1
# Building blocks:
#     Node 0, Type 0, BuildingBlock: MIDCAF_clean_linker_0, # of connection points: 3
#     Node 1, Type 0, BuildingBlock: MIDCAF_clean_linker_0, # of connection points: 3
#     Node 2, Type 0, BuildingBlock: MIDCAF_clean_linker_0, # of connection points: 3
#     Node 3, Type 0, BuildingBlock: MIDCAF_clean_linker_0, # of connection points: 3
#     Node 4, Type 1, BuildingBlock: KUMBUR_clean_sbu_1, # of connection points: 6
#     Node 5, Type 1, BuildingBlock: KUMBUR_clean_sbu_1, # of connection points: 6
#     Edge 6, Type (0, 1), None
#     Edge 7, Type (0, 1), None
#     Edge 8, Type (0, 1), None
#     Edge 9, Type (0, 1), None
#     Edge 10, Type (0, 1), None
#     Edge 11, Type (0, 1), None
#     Edge 12, Type (0, 1), None
#     Edge 13, Type (0, 1), None
#     Edge 14, Type (0, 1), None
#     Edge 15, Type (0, 1), None
#     Edge 16, Type (0, 1), None
#     Edge 17, Type (0, 1), None
# Relax obj value: 0.020
# Max RMSD: 0.144
# Mean RMSD: 0.086
data_MOF--net-rtl--node1-KUMBUR_clean_sbu_1--node2-MIDCAF_clean_linker_0--edge1-none
_symmetry_space_group_name_H-M    P1
_symmetry_Int_Tables_number       1
_symmetry_cell_setting            triclinic
loop_
_symmetry_equiv_pos_as_xyz
'x, y, z'
_cell_length_a     21.709581
_cell_length_b     22.608412
_cell_length_c     20.944974
_cell_angle_alpha  72.348716
_cell_angle_beta   98.85686
_cell_angle_gamma 90.921188
loop_
_atom_site_label
_atom_site_type_symbol
_atom_site_fract_x
_atom_site_fract_y
_atom_site_fract_z
_atom_type_partial_charge
C0 C 0.13188 0.95197 0.15841 0.0
C1 C 0.13392 0.90762 0.22224 0.0
C2 C 0.17206 0.85374 0.23852 0.0
C3 C 0.20371 0.84231 0.18965 0.0
H4 H 0.33486 0.7211 0.14388 0.0
H5 H 0.40592 0.63408 0.15545 0.0
H6 H 0.38794 0.68257 0.93732 0.0
H7 H 0.31729 0.76807 0.9255 0.0
H8 H 0.14087 0.81551 0.87405 0.0
H9 H 0.0767 0.85594 0.76363 0.0
H10 H 0.12121 0.04325 0.76236 0.0
H11 H 0.18091 1.00229 0.87703 0.0
H12 H 0.15873 0.97517 0.06038 0.0
H13 H 0.10379 0.99442 0.14502 0.0
H14 H 0.17441 0.81884 0.28755 0.0
H15 H 0.22966 0.79873 0.20207 0.0
N16 N 0.26087 0.8205 0.07828 0.0
N17 N 0.24463 0.83269 0.96149 0.0
N18 N 0.19068 0.89785 0.00308 0.0
C19 C 0.27462 0.80323 0.02483 0.0
C20 C 0.2032 0.88005 0.95032 0.0
C21 C 0.21897 0.86837 0.06731 0.0
C22 C 0.31975 0.75148 0.03388 0.0
C23 C 0.34616 0.71317 0.09849 0.0
C24 C 0.38686 0.66335 0.10508 0.0
C25 C 0.40175 0.65088 0.04722 0.0
C26 C 0.37645 0.69001 0.9829 0.0
C27 C 0.33595 0.73942 0.97629 0.0
C28 C 0.16623 0.90596 0.88301 0.0
C29 C 0.13674 0.86533 0.85012 0.0
C30 C 0.10046 0.88855 0.78668 0.0
C31 C 0.09531 0.95275 0.75337 0.0
C32 C 0.12417 0.99361 0.78683 0.0
C33 C 0.15871 0.9703 0.85189 0.0
C34 C 0.19771 0.88476 0.12396 0.0
C35 C 0.16353 0.94082 0.10999 0.0
C36 C 0.5722 0.58234 0.52677 0.0
C37 C 0.60816 0.58258 0.47619 0.0
C38 C 0.66319 0.61636 0.47335 0.0
C39 C 0.68212 0.64839 0.52016 0.0
H40 H 0.78979 0.7877 0.54485 0.0
H41 H 0.86748 0.8652 0.51717 0.0
H42 H 0.87678 0.89274 0.71352 0.0
H43 H 0.79729 0.81478 0.74165 0.0
H44 H 0.73053 0.62478 0.85591 0.0
H45 H 0.6835 0.57235 0.95663 0.0
H46 H 0.50497 0.6596 0.85351 0.0
H47 H 0.5514 0.70805 0.75147 0.0
H48 H 0.56311 0.6122 0.61277 0.0
H49 H 0.52894 0.5579 0.52976 0.0
H50 H 0.69276 0.61681 0.43605 0.0
H51 H 0.7253 0.67302 0.51689 0.0
N52 N 0.71485 0.72012 0.613 0.0
N53 N 0.71529 0.73158 0.72083 0.0
N54 N 0.64612 0.66368 0.68265 0.0
C55 C 0.73793 0.74754 0.66076 0.0
C56 C 0.669 0.68984 0.73152 0.0
C57 C 0.66922 0.67821 0.62338 0.0
C58 C 0.78689 0.79458 0.64576 0.0
C59 C 0.80807 0.8099 0.58261 0.0
C60 C 0.853 0.85449 0.56657 0.0
C61 C 0.87847 0.88516 0.6131 0.0
C62 C 0.85775 0.87008 0.67642 0.0
C63 C 0.81237 0.82525 0.6926 0.0
C64 C 0.6444 0.67018 0.79626 0.0
C65 C 0.68149 0.63336 0.85547 0.0
C66 C 0.65442 0.60325 0.91294 0.0
C67 C 0.58995 0.61021 0.91234 0.0
C68 C 0.55419 0.65126 0.85473 0.0
C69 C 0.58085 0.67983 0.79673 0.0
C70 C 0.64697 0.6469 0.57165 0.0
C71 C 0.59159 0.61379 0.57418 0.0
C72 C 0.954 0.13224 0.96134 0.0
C73 C 0.93068 0.16473 0.89365 0.0
C74 C 0.87629 0.20249 0.87941 0.0
C75 C 0.84678 0.20868 0.93229 0.0
H76 H 0.70978 0.31492 0.98578 0.0
H77 H 0.6322 0.39553 0.97722 0.0
H78 H 0.63273 0.32576 0.19334 0.0
H79 H 0.70955 0.24594 0.2024 0.0
H80 H 0.78267 0.08961 0.28094 0.0
H81 H 0.83174 0.03864 0.39851 0.0
H82 H 0.01252 0.0926 0.34392 0.0
H83 H 0.96435 0.13938 0.22528 0.0
H84 H 0.94464 0.11222 0.06521 0.0
H85 H 0.99518 0.102 0.9739 0.0
H86 H 0.85742 0.22825 0.82758 0.0
H87 H 0.80545 0.23864 0.91993 0.0
N88 N 0.79224 0.22302 0.04807 0.0
N89 N 0.79162 0.19184 0.16568 0.0
N90 N 0.86589 0.14864 0.12174 0.0
C91 C 0.76711 0.22768 0.10237 0.0
C92 C 0.84085 0.15252 0.17558 0.0
C93 C 0.84158 0.18287 0.05768 0.0
C94 C 0.71653 0.27403 0.09474 0.0
C95 C 0.69309 0.31653 0.03137 0.0
C96 C 0.64867 0.36269 0.02647 0.0
C97 C 0.62729 0.3675 0.08485 0.0
C98 C 0.64928 0.32402 0.14768 0.0
C99 C 0.69325 0.27794 0.15262 0.0
C100 C 0.86996 0.11829 0.24467 0.0
C101 C 0.83294 0.08958 0.29402 0.0
C102 C 0.86071 0.06091 0.36088 0.0
C103 C 0.92522 0.06337 0.37937 0.0
C104 C 0.96247 0.09082 0.33006 0.0
C105 C 0.93504 0.11728 0.26267 0.0
C106 C 0.87089 0.17674 1.00024 0.0
C107 C 0.92458 0.13805 0.01379 0.0
C108 C 0.44938 0.4322 0.60949 0.0
C109 C 0.41302 0.43245 0.65959 0.0
C110 C 0.35738 0.39968 0.66154 0.0
C111 C 0.33821 0.36818 0.61429 0.0
H112 H 0.21352 0.24719 0.57649 0.0
H113 H 0.13522 0.17037 0.60458 0.0
H114 H 0.1541 0.11417 0.42874 0.0
H115 H 0.2337 0.19175 0.40032 0.0
H116 H 0.29251 0.39271 0.2789 0.0
H117 H 0.34066 0.44445 0.17891 0.0
H118 H 0.51754 0.35371 0.28276 0.0
H119 H 0.47006 0.30604 0.3843 0.0
H120 H 0.4586 0.40243 0.52347 0.0
H121 H 0.4931 0.45588 0.6072 0.0
H122 H 0.32752 0.39965 0.69846 0.0
H123 H 0.29456 0.34434 0.61688 0.0
N124 N 0.3043 0.29798 0.5204 0.0
N125 N 0.3049 0.28598 0.41298 0.0
N126 N 0.37553 0.35199 0.45258 0.0
C127 C 0.28101 0.2711 0.47228 0.0
C128 C 0.35249 0.3263 0.40335 0.0
C129 C 0.35132 0.33837 0.51115 0.0
C130 C 0.23046 0.22576 0.48611 0.0
C131 C 0.20123 0.21874 0.54341 0.0
C132 C 0.15594 0.17454 0.55961 0.0
C133 C 0.13842 0.13575 0.51918 0.0
C134 C 0.16679 0.14309 0.46124 0.0
C135 C 0.21223 0.18776 0.44475 0.0
C136 C 0.37774 0.34561 0.33898 0.0
C137 C 0.34142 0.38322 0.27968 0.0
C138 C 0.36914 0.41292 0.22258 0.0
C139 C 0.43348 0.40467 0.22353 0.0
C140 C 0.46845 0.36292 0.28122 0.0
C141 C 0.44118 0.33483 0.33895 0.0
C142 C 0.37378 0.36916 0.56328 0.0
C143 C 0.4298 0.40124 0.56166 0.0
Tb144 Tb 0.05752 0.94528 0.54293 0.0
C145 C 0.87561 0.16507 0.46166 0.0
N146 N 0.93494 0.16056 0.4954 0.0
C147 C 0.9585 0.25722 0.41754 0.0
C148 C 0.85593 0.21522 0.40301 0.0
C149 C 0.97598 0.20652 0.47539 0.0
C150 C 0.89841 0.26134 0.38084 0.0
C151 C 0.77282 0.12216 0.45275 0.0
C152 C 0.83515 0.11827 0.48556 0.0
C153 C 0.75317 0.17149 0.39357 0.0
C154 C 0.7947 0.21776 0.3686 0.0
Tb155 Tb 0.95895 0.07438 0.5873 0.0
N156 N 0.85619 0.07029 0.54212 0.0
C157 C 0.73178 0.07703 0.48115 0.0
C158 C 0.81443 0.03031 0.57361 0.0
C159 C 0.75238 0.03171 0.54264 0.0
H160 H 0.02216 0.20389 0.50403 0.0
H161 H 0.72014 0.99866 0.56707 0.0
H162 H 0.97965 0.81506 0.57998 0.0
H163 H 0.29111 1.00047 0.63865 0.0
H164 H 0.82779 0.99827 0.62364 0.0
H165 H 0.68356 0.07831 0.45755 0.0
H166 H 0.1926 0.0191 0.56041 0.0
H167 H 0.99134 0.29313 0.40135 0.0
H168 H 0.70572 0.17472 0.36722 0.0
H169 H 0.77878 0.2557 0.32315 0.0
H170 H 0.99499 0.71022 0.6627 0.0
H171 H 0.88507 0.30062 0.33596 0.0
H172 H 0.31283 0.89981 0.72863 0.0
N173 N 0.06778 0.84608 0.61467 0.0
C174 C 0.12274 0.83075 0.65761 0.0
C175 C 0.03119 0.74379 0.66204 0.0
C176 C 0.13371 0.77131 0.70549 0.0
C177 C 0.02231 0.80349 0.61575 0.0
C178 C 0.08704 0.72765 0.70727 0.0
N179 N 0.15371 0.93336 0.60973 0.0
C180 C 0.19884 0.97665 0.60149 0.0
C181 C 0.22411 0.8623 0.70014 0.0
C182 C 0.16703 0.87593 0.65531 0.0
C183 C 0.2684 0.90838 0.69519 0.0
C184 C 0.25608 0.96542 0.64487 0.0
H185 H 0.09362 0.68148 0.74334 0.0
H186 H 0.19937 0.7125 0.78813 0.0
H187 H 0.27868 0.79207 0.7832 0.0
O188 O 0.11071 0.96185 0.46361 0.0
O189 O 0.0525 0.93551 0.64907 0.0
O190 O 0.04417 0.03444 0.65726 0.0
O191 O 0.06424 0.876 0.49603 0.0
O192 O 0.08535 0.04319 0.5092 0.0
O193 O 0.05808 0.09143 0.58493 0.0
O194 O 0.91881 0.07333 0.67332 0.0
O195 O 0.96897 0.08145 0.48264 0.0
O196 O 0.97044 0.98226 0.4763 0.0
O197 O 0.95421 0.15691 0.61281 0.0
O198 O 0.9343 0.97578 0.62538 0.0
O199 O 0.95787 0.92996 0.54627 0.0
C200 C 0.06197 0.97562 0.68322 0.0
C201 C 0.07217 0.91507 0.38016 0.0
C202 C 0.09153 0.91534 0.26847 0.0
C203 C 0.02798 0.93026 0.24308 0.0
C204 C 0.00871 0.92875 0.35405 0.0
C205 C 0.98691 0.93668 0.28576 0.0
C206 C 0.11341 0.90768 0.33738 0.0
C207 C 0.09119 0.08784 0.53832 0.0
C208 C 0.09589 0.90992 0.45134 0.0
C209 C 0.19019 0.75781 0.75073 0.0
C210 C 0.23528 0.80318 0.74805 0.0
C211 C 0.95321 0.04089 0.45051 0.0
C212 C 0.96568 0.14225 0.72972 0.0
C213 C 0.96453 0.15976 0.83894 0.0
C214 C 0.02994 0.16328 0.84713 0.0
C215 C 0.03092 0.14599 0.73897 0.0
C216 C 0.93255 0.14954 0.7796 0.0
C217 C 0.06275 0.15649 0.7974 0.0
C218 C 0.92644 0.93229 0.59477 0.0
C219 C 0.93215 0.13065 0.66829 0.0
H220 H 0.00983 0.93599 0.19032 0.0
H221 H 0.97586 0.93317 0.38625 0.0
H222 H 0.938 0.94764 0.2659 0.0
H223 H 0.16243 0.89698 0.35735 0.0
H224 H 0.05575 0.17162 0.89197 0.0
H225 H 0.05728 0.14089 0.70096 0.0
H226 H 0.88224 0.14603 0.77283 0.0
H227 H 0.11304 0.15926 0.80422 0.0
Tb228 Tb 0.4483 0.4807 1.00245 0.0
C229 C 0.70935 0.57201 0.1031 0.0
N230 N 0.68052 0.51975 0.13429 0.0
C231 C 0.77737 0.4613 0.16158 0.0
C232 C 0.77344 0.57066 0.09887 0.0
C233 C 0.71366 0.46496 0.16446 0.0
C234 C 0.80736 0.51429 0.12837 0.0
C235 C 0.70182 0.68186 0.04032 0.0
C236 C 0.67397 0.62689 0.07409 0.0
C237 C 0.76571 0.68079 0.03597 0.0
C238 C 0.80141 0.62534 0.06513 0.0
Tb239 Tb 0.57637 0.53161 0.13447 0.0
N240 N 0.61165 0.62556 0.07685 0.0
C241 C 0.6645 0.73614 0.01168 0.0
C242 C 0.5758 0.67902 0.05195 0.0
C243 C 0.60138 0.7348 0.01817 0.0
H244 H 0.69139 0.42444 0.19238 0.0
H245 H 0.57249 0.77688 0.99765 0.0
H246 H 0.32971 0.58381 0.9518 0.0
H247 H 0.46309 0.23441 0.13744 0.0
H248 H 0.52783 0.67946 0.05872 0.0
H249 H 0.68409 0.7794 0.9853 0.0
H250 H 0.50278 0.33372 0.07453 0.0
H251 H 0.80339 0.41772 0.18542 0.0
H252 H 0.78792 0.72256 0.01005 0.0
H253 H 0.8506 0.62522 0.06123 0.0
H254 H 0.21836 0.58562 0.96304 0.0
H255 H 0.85673 0.5113 0.12621 0.0
H256 H 0.35278 0.2274 0.15495 0.0
N257 N 0.34468 0.48822 0.00766 0.0
C258 C 0.31841 0.43448 0.03938 0.0
C259 C 0.24608 0.5429 0.98521 0.0
C260 C 0.25481 0.43312 0.0463 0.0
C261 C 0.30945 0.54198 0.97982 0.0
C262 C 0.21866 0.4883 0.01881 0.0
N263 N 0.41789 0.38478 0.06131 0.0
C264 C 0.45558 0.33252 0.08407 0.0
C265 C 0.33092 0.32459 0.10135 0.0
C266 C 0.3561 0.38093 0.06677 0.0
C267 C 0.3703 0.27163 0.12805 0.0
C268 C 0.4327 0.27551 0.11869 0.0
H269 H 0.16958 0.4892 0.023 0.0
H270 H 0.18079 0.37509 0.08674 0.0
H271 H 0.24737 0.28009 0.1348 0.0
O272 O 0.46504 0.43071 0.93641 0.0
O273 O 0.42957 0.46636 0.10673 0.0
O274 O 0.52508 0.44774 0.17596 0.0
O275 O 0.38886 0.49739 0.90908 0.0
O276 O 0.54381 0.4408 0.02352 0.0
O277 O 0.58051 0.43506 0.13485 0.0
O278 O 0.55576 0.58123 0.19943 0.0
O279 O 0.59478 0.54961 0.02949 0.0
O280 O 0.49934 0.56435 0.9596 0.0
O281 O 0.63433 0.51715 0.22838 0.0
O282 O 0.4818 0.57425 0.11085 0.0
O283 O 0.4429 0.57769 1.00031 0.0
C284 C 0.46427 0.44132 0.166 0.0
C285 C 0.43426 0.48213 0.81991 0.0
C286 C 0.43163 0.46851 0.70805 0.0
C287 C 0.45877 0.52676 0.68627 0.0
C288 C 0.46084 0.54001 0.79693 0.0
C289 C 0.47351 0.56202 0.73062 0.0
C290 C 0.42016 0.4463 0.77564 0.0
C291 C 0.58254 0.41773 0.08058 0.0
C292 C 0.41964 0.45914 0.88935 0.0
C293 C 0.22957 0.37706 0.08082 0.0
C294 C 0.26751 0.32295 0.10825 0.0
C295 C 0.5598 0.57282 0.97 0.0
C296 C 0.58695 0.53192 0.31645 0.0
C297 C 0.58978 0.54604 0.42812 0.0
C298 C 0.56343 0.48743 0.45045 0.0
C299 C 0.56124 0.47368 0.33997 0.0
C300 C 0.6007 0.56817 0.36034 0.0
C301 C 0.54901 0.45176 0.40646 0.0
C302 C 0.44359 0.59765 0.0534 0.0
C303 C 0.60158 0.5547 0.24703 0.0
H304 H 0.4671 0.54593 0.63445 0.0
H305 H 0.4708 0.56826 0.83017 0.0
H306 H 0.49381 0.607 0.71318 0.0
H307 H 0.40005 0.40127 0.79397 0.0
H308 H 0.55551 0.46829 0.50242 0.0
H309 H 0.55173 0.4451 0.30703 0.0
H310 H 0.62021 0.61344 0.34157 0.0
H311 H 0.52938 0.4065 0.42434 0.0
loop_
_geom_bond_atom_site_label_1
_geom_bond_atom_site_label_2
_geom_bond_distance
_geom_bond_site_symmetry_2
_ccdc_geom_bond_type
C0 C1 1.384 . S
C0 H13 0.947 . S
C0 C35 1.382 . S
C1 C0 1.384 . S
C1 C2 1.378 . S
C2 C1 1.378 . S
C2 C3 1.378 . S
C2 H14 0.952 . S
C3 C2 1.378 . S
C3 H15 0.950 . S
C3 C34 1.383 . S
H4 C23 0.947 . S
H5 C24 0.946 . S
H6 C26 0.953 . S
H7 C27 0.945 . S
H8 C29 0.952 . S
H9 C30 0.949 . S
H10 C32 0.950 . S
H11 C33 0.948 1_545 S
H12 C35 0.951 . S
H13 C0 0.947 . S
H14 C2 0.952 . S
H15 C3 0.950 . S
N16 C19 1.382 . S
N16 C21 1.363 . S
N17 C19 1.371 1_556 S
N17 C20 1.372 . S
N18 C20 1.361 . S
N18 C21 1.377 1_556 S
C19 N16 1.382 . S
C19 N17 1.371 1_554 S
C19 C22 1.480 . S
C20 N17 1.372 . S
C20 N18 1.361 . S
C20 C28 1.457 . S
C21 N16 1.363 . S
C21 N18 1.377 1_554 S
C21 C34 1.479 . S
C22 C19 1.480 . S
C22 C23 1.383 . S
C22 C27 1.385 1_554 S
C23 H4 0.947 . S
C23 C22 1.383 . S
C23 C24 1.388 . S
C24 H5 0.946 . S
C24 C23 1.388 . S
C24 C25 1.384 . S
C25 C24 1.384 . S
C25 C26 1.377 1_554 S
C26 H6 0.953 . S
C26 C25 1.377 1_556 S
C26 C27 1.369 . S
C27 H7 0.945 . S
C27 C22 1.385 1_556 S
C27 C26 1.369 . S
C28 C20 1.457 . S
C28 C29 1.372 . S
C28 C33 1.364 . S
C29 H8 0.952 . S
C29 C28 1.372 . S
C29 C30 1.389 . S
C30 H9 0.949 . S
C30 C29 1.389 . S
C30 C31 1.387 . S
C31 C30 1.387 . S
C31 C32 1.372 1_565 S
C32 H10 0.950 . S
C32 C31 1.372 1_545 S
C32 C33 1.379 1_545 S
C33 H11 0.948 1_565 S
C33 C28 1.364 . S
C33 C32 1.379 1_565 S
C34 C3 1.383 . S
C34 C21 1.479 . S
C34 C35 1.398 . S
C35 C0 1.382 . S
C35 H12 0.951 . S
C35 C34 1.398 . S
C36 C37 1.384 . S
C36 H49 0.947 . S
C36 C71 1.382 . S
C37 C36 1.384 . S
C37 C38 1.378 . S
C38 C37 1.378 . S
C38 C39 1.378 . S
C38 H50 0.952 . S
C39 C38 1.378 . S
C39 H51 0.950 . S
C39 C70 1.383 . S
H40 C59 0.947 . S
H41 C60 0.946 . S
H42 C62 0.953 . S
H43 C63 0.945 . S
H44 C65 0.952 . S
H45 C66 0.949 . S
H46 C68 0.950 . S
H47 C69 0.948 . S
H48 C71 0.951 . S
H49 C36 0.947 . S
H50 C38 0.952 . S
H51 C39 0.950 . S
N52 C55 1.382 . S
N52 C57 1.363 . S
N53 C55 1.371 . S
N53 C56 1.372 . S
N54 C56 1.361 . S
N54 C57 1.377 . S
C55 N52 1.382 . S
C55 N53 1.371 . S
C55 C58 1.480 . S
C56 N53 1.372 . S
C56 N54 1.361 . S
C56 C64 1.457 . S
C57 N52 1.363 . S
C57 N54 1.377 . S
C57 C70 1.479 . S
C58 C55 1.480 . S
C58 C59 1.383 . S
C58 C63 1.385 . S
C59 H40 0.947 . S
C59 C58 1.383 . S
C59 C60 1.388 . S
C60 H41 0.946 . S
C60 C59 1.388 . S
C60 C61 1.384 . S
C61 C60 1.384 . S
C61 C62 1.377 . S
C62 H42 0.953 . S
C62 C61 1.377 . S
C62 C63 1.369 . S
C63 H43 0.945 . S
C63 C58 1.385 . S
C63 C62 1.369 . S
C64 C56 1.457 . S
C64 C65 1.372 . S
C64 C69 1.364 . S
C65 H44 0.952 . S
C65 C64 1.372 . S
C65 C66 1.389 . S
C66 H45 0.949 . S
C66 C65 1.389 . S
C66 C67 1.387 . S
C67 C66 1.387 . S
C67 C68 1.372 . S
C68 H46 0.950 . S
C68 C67 1.372 . S
C68 C69 1.379 . S
C69 H47 0.948 . S
C69 C64 1.364 . S
C69 C68 1.379 . S
C70 C39 1.383 . S
C70 C57 1.479 . S
C70 C71 1.398 . S
C71 C36 1.382 . S
C71 H48 0.951 . S
C71 C70 1.398 . S
C72 C73 1.384 . S
C72 H85 0.947 . S
C72 C107 1.382 1_556 S
C73 C72 1.384 . S
C73 C74 1.378 . S
C74 C73 1.378 . S
C74 C75 1.378 . S
C74 H86 0.952 . S
C75 C74 1.378 . S
C75 H87 0.950 . S
C75 C106 1.383 1_556 S
H76 C95 0.947 1_556 S
H77 C96 0.946 1_556 S
H78 C98 0.953 . S
H79 C99 0.945 . S
H80 C101 0.952 . S
H81 C102 0.949 . S
H82 C104 0.950 1_565 S
H83 C105 0.948 . S
H84 C107 0.951 . S
H85 C72 0.947 . S
H86 C74 0.952 . S
H87 C75 0.950 . S
N88 C91 1.382 . S
N88 C93 1.363 . S
N89 C91 1.371 . S
N89 C92 1.372 . S
N90 C92 1.361 . S
N90 C93 1.377 . S
C91 N88 1.382 . S
C91 N89 1.371 . S
C91 C94 1.480 . S
C92 N89 1.372 . S
C92 N90 1.361 . S
C92 C100 1.457 . S
C93 N88 1.363 . S
C93 N90 1.377 . S
C93 C106 1.479 . S
C94 C91 1.480 . S
C94 C95 1.383 . S
C94 C99 1.385 . S
C95 H76 0.947 1_554 S
C95 C94 1.383 . S
C95 C96 1.388 . S
C96 H77 0.946 1_554 S
C96 C95 1.388 . S
C96 C97 1.384 . S
C97 C96 1.384 . S
C97 C98 1.377 . S
C98 H78 0.953 . S
C98 C97 1.377 . S
C98 C99 1.369 . S
C99 H79 0.945 . S
C99 C94 1.385 . S
C99 C98 1.369 . S
C100 C92 1.457 . S
C100 C101 1.372 . S
C100 C105 1.364 . S
C101 H80 0.952 . S
C101 C100 1.372 . S
C101 C102 1.389 . S
C102 H81 0.949 . S
C102 C101 1.389 . S
C102 C103 1.387 . S
C103 C102 1.387 . S
C103 C104 1.372 . S
C104 H82 0.950 1_545 S
C104 C103 1.372 . S
C104 C105 1.379 . S
C105 H83 0.948 . S
C105 C100 1.364 . S
C105 C104 1.379 . S
C106 C75 1.383 1_554 S
C106 C93 1.479 . S
C106 C107 1.398 . S
C107 C72 1.382 1_554 S
C107 H84 0.951 . S
C107 C106 1.398 . S
C108 C109 1.384 . S
C108 H121 0.947 . S
C108 C143 1.382 . S
C109 C108 1.384 . S
C109 C110 1.378 . S
C110 C109 1.378 . S
C110 C111 1.378 . S
C110 H122 0.952 . S
C111 C110 1.378 . S
C111 H123 0.950 . S
C111 C142 1.383 . S
H112 C131 0.947 . S
H113 C132 0.946 . S
H114 C134 0.953 . S
H115 C135 0.945 . S
H116 C137 0.952 . S
H117 C138 0.949 . S
H118 C140 0.950 . S
H119 C141 0.948 . S
H120 C143 0.951 . S
H121 C108 0.947 . S
H122 C110 0.952 . S
H123 C111 0.950 . S
N124 C127 1.382 . S
N124 C129 1.363 . S
N125 C127 1.371 . S
N125 C128 1.372 . S
N126 C128 1.361 . S
N126 C129 1.377 . S
C127 N124 1.382 . S
C127 N125 1.371 . S
C127 C130 1.480 . S
C128 N125 1.372 . S
C128 N126 1.361 . S
C128 C136 1.457 . S
C129 N124 1.363 . S
C129 N126 1.377 . S
C129 C142 1.479 . S
C130 C127 1.480 . S
C130 C131 1.383 . S
C130 C135 1.385 . S
C131 H112 0.947 . S
C131 C130 1.383 . S
C131 C132 1.388 . S
C132 H113 0.946 . S
C132 C131 1.388 . S
C132 C133 1.384 . S
C133 C132 1.384 . S
C133 C134 1.377 . S
C134 H114 0.953 . S
C134 C133 1.377 . S
C134 C135 1.369 . S
C135 H115 0.945 . S
C135 C130 1.385 . S
C135 C134 1.369 . S
C136 C128 1.457 . S
C136 C137 1.372 . S
C136 C141 1.364 . S
C137 H116 0.952 . S
C137 C136 1.372 . S
C137 C138 1.389 . S
C138 H117 0.949 . S
C138 C137 1.389 . S
C138 C139 1.387 . S
C139 C138 1.387 . S
C139 C140 1.372 . S
C140 H118 0.950 . S
C140 C139 1.372 . S
C140 C141 1.379 . S
C141 H119 0.948 . S
C141 C136 1.364 . S
C141 C140 1.379 . S
C142 C111 1.383 . S
C142 C129 1.479 . S
C142 C143 1.398 . S
C143 C108 1.382 . S
C143 H120 0.951 . S
C143 C142 1.398 . S
Tb144 N173 2.617 . S
Tb144 N179 2.572 . S
Tb144 O188 2.465 . S
Tb144 O189 2.387 . S
Tb144 O191 2.428 . S
Tb144 O192 2.308 1_565 S
Tb144 O196 2.349 1_465 S
Tb144 O199 2.393 1_455 S
Tb144 C208 2.802 . S
C145 N146 1.379 . S
C145 C148 1.416 . S
C145 C152 1.424 . S
N146 C145 1.379 . S
N146 C149 1.334 . S
N146 Tb155 2.617 . S
C147 C149 1.390 . S
C147 C150 1.339 . S
C147 H167 0.930 1_655 S
C148 C145 1.416 . S
C148 C150 1.416 . S
C148 C154 1.448 . S
C149 N146 1.334 . S
C149 C147 1.390 . S
C149 H160 0.930 1_655 S
C150 C147 1.339 . S
C150 C148 1.416 . S
C150 H171 0.930 . S
C151 C152 1.413 . S
C151 C153 1.427 . S
C151 C157 1.416 . S
C152 C145 1.424 . S
C152 C151 1.413 . S
C152 N156 1.361 . S
C153 C151 1.427 . S
C153 C154 1.328 . S
C153 H168 0.929 . S
C154 C148 1.448 . S
C154 C153 1.328 . S
C154 H169 0.930 . S
Tb155 N146 2.617 . S
Tb155 N156 2.572 . S
Tb155 O190 2.349 1_655 S
Tb155 O193 2.393 1_655 S
Tb155 O194 2.465 . S
Tb155 O195 2.387 . S
Tb155 O197 2.428 . S
Tb155 O198 2.308 1_545 S
Tb155 C219 2.802 . S
N156 C152 1.361 . S
N156 Tb155 2.572 . S
N156 C158 1.340 . S
C157 C151 1.416 . S
C157 C159 1.332 . S
C157 H165 0.931 . S
C158 N156 1.340 . S
C158 C159 1.407 . S
C158 H164 0.930 . S
C159 C157 1.332 . S
C159 C158 1.407 . S
C159 H161 0.929 . S
H160 C149 0.930 1_455 S
H161 C159 0.929 . S
H162 C177 0.930 1_655 S
H163 C184 0.929 . S
H164 C158 0.930 . S
H165 C157 0.931 . S
H166 C180 0.930 . S
H167 C147 0.930 1_455 S
H168 C153 0.929 . S
H169 C154 0.930 . S
H170 C175 0.930 1_655 S
H171 C150 0.930 . S
H172 C183 0.931 . S
N173 Tb144 2.617 . S
N173 C174 1.379 . S
N173 C177 1.334 . S
C174 N173 1.379 . S
C174 C176 1.416 . S
C174 C182 1.424 . S
C175 H170 0.930 1_455 S
C175 C177 1.390 . S
C175 C178 1.339 . S
C176 C174 1.416 . S
C176 C178 1.416 . S
C176 C209 1.448 . S
C177 H162 0.930 1_455 S
C177 N173 1.334 . S
C177 C175 1.390 . S
C178 C175 1.339 . S
C178 C176 1.416 . S
C178 H185 0.930 . S
N179 Tb144 2.572 . S
N179 C180 1.340 . S
N179 C182 1.361 . S
C180 H166 0.930 . S
C180 N179 1.340 . S
C180 C184 1.407 . S
C181 C182 1.413 . S
C181 C183 1.416 . S
C181 C210 1.427 . S
C182 C174 1.424 . S
C182 N179 1.361 . S
C182 C181 1.413 . S
C183 H172 0.931 . S
C183 C181 1.416 . S
C183 C184 1.332 . S
C184 H163 0.929 . S
C184 C180 1.407 . S
C184 C183 1.332 . S
H185 C178 0.930 . S
H186 C209 0.930 . S
H187 C210 0.929 . S
O188 Tb144 2.465 . S
O188 C208 1.264 . S
O189 Tb144 2.387 . S
O189 C200 1.264 . S
O190 Tb155 2.349 1_455 S
O190 C200 1.243 1_545 S
O191 Tb144 2.428 . S
O191 C208 1.256 . S
O192 Tb144 2.308 1_545 S
O192 C207 1.266 . S
O193 Tb155 2.393 1_455 S
O193 C207 1.248 . S
O194 Tb155 2.465 . S
O194 C219 1.264 . S
O195 Tb155 2.387 . S
O195 C211 1.264 . S
O196 Tb144 2.349 1_645 S
O196 C211 1.243 . S
O197 Tb155 2.428 . S
O197 C219 1.256 . S
O198 Tb155 2.308 1_565 S
O198 C218 1.266 . S
O199 Tb144 2.393 1_655 S
O199 C218 1.248 . S
C200 O189 1.264 . S
C200 O190 1.243 1_565 S
C201 C204 1.399 . S
C201 C206 1.383 . S
C201 C208 1.496 . S
C202 C203 1.399 . S
C202 C206 1.389 . S
C203 C202 1.399 . S
C203 C205 1.380 . S
C203 H220 0.929 . S
C204 C201 1.399 . S
C204 C205 1.392 . S
C204 H221 0.929 . S
C205 C203 1.380 . S
C205 C204 1.392 . S
C205 H222 0.929 . S
C206 C201 1.383 . S
C206 C202 1.389 . S
C206 H223 0.931 . S
C207 O192 1.266 . S
C207 O193 1.248 . S
C208 Tb144 2.802 . S
C208 O188 1.264 . S
C208 O191 1.256 . S
C208 C201 1.496 . S
C209 C176 1.448 . S
C209 H186 0.930 . S
C209 C210 1.328 . S
C210 C181 1.427 . S
C210 H187 0.929 . S
C210 C209 1.328 . S
C211 O195 1.264 . S
C211 O196 1.243 . S
C212 C215 1.399 . S
C212 C216 1.383 . S
C212 C219 1.496 . S
C213 C214 1.399 . S
C213 C216 1.389 . S
C214 C213 1.399 . S
C214 C217 1.380 . S
C214 H224 0.929 . S
C215 C212 1.399 . S
C215 C217 1.392 . S
C215 H225 0.929 . S
C216 C212 1.383 . S
C216 C213 1.389 . S
C216 H226 0.931 . S
C217 C214 1.380 . S
C217 C215 1.392 . S
C217 H227 0.929 . S
C218 O198 1.266 . S
C218 O199 1.248 . S
C219 Tb155 2.802 . S
C219 O194 1.264 . S
C219 O197 1.256 . S
C219 C212 1.496 . S
H220 C203 0.929 . S
H221 C204 0.929 . S
H222 C205 0.929 . S
H223 C206 0.931 . S
H224 C214 0.929 . S
H225 C215 0.929 . S
H226 C216 0.931 . S
H227 C217 0.929 . S
Tb228 N257 2.614 1_556 S
Tb228 N263 2.571 1_556 S
Tb228 O272 2.468 . S
Tb228 O273 2.383 1_556 S
Tb228 O275 2.431 . S
Tb228 O276 2.307 1_556 S
Tb228 O280 2.351 . S
Tb228 O283 2.391 . S
Tb228 C292 2.806 . S
C229 N230 1.379 . S
C229 C232 1.416 . S
C229 C236 1.424 . S
N230 C229 1.379 . S
N230 C233 1.334 . S
N230 Tb239 2.617 . S
C231 C233 1.390 . S
C231 C234 1.339 . S
C231 H251 0.930 . S
C232 C229 1.416 . S
C232 C234 1.416 . S
C232 C238 1.448 . S
C233 N230 1.334 . S
C233 C231 1.390 . S
C233 H244 0.930 . S
C234 C231 1.339 . S
C234 C232 1.416 . S
C234 H255 0.930 . S
C235 C236 1.413 . S
C235 C237 1.427 . S
C235 C241 1.416 . S
C236 C229 1.424 . S
C236 C235 1.413 . S
C236 N240 1.361 . S
C237 C235 1.427 . S
C237 C238 1.328 . S
C237 H252 0.929 . S
C238 C232 1.448 . S
C238 C237 1.328 . S
C238 H253 0.930 . S
Tb239 N230 2.617 . S
Tb239 N240 2.572 . S
Tb239 O274 2.349 . S
Tb239 O277 2.393 . S
Tb239 O278 2.465 . S
Tb239 O279 2.387 . S
Tb239 O281 2.428 . S
Tb239 O282 2.308 . S
Tb239 C303 2.802 . S
N240 C236 1.361 . S
N240 Tb239 2.572 . S
N240 C242 1.340 . S
C241 C235 1.416 . S
C241 C243 1.332 . S
C241 H249 0.931 . S
C242 N240 1.340 . S
C242 C243 1.407 . S
C242 H248 0.930 . S
C243 C241 1.332 . S
C243 C242 1.407 . S
C243 H245 0.929 . S
H244 C233 0.930 . S
H245 C243 0.929 . S
H246 C261 0.930 . S
H247 C268 0.929 . S
H248 C242 0.930 . S
H249 C241 0.931 . S
H250 C264 0.930 . S
H251 C231 0.930 . S
H252 C237 0.929 . S
H253 C238 0.930 . S
H254 C259 0.930 . S
H255 C234 0.930 . S
H256 C267 0.931 . S
N257 Tb228 2.614 1_554 S
N257 C258 1.382 . S
N257 C261 1.335 1_554 S
C258 N257 1.382 . S
C258 C260 1.416 . S
C258 C266 1.424 . S
C259 H254 0.930 . S
C259 C261 1.390 . S
C259 C262 1.339 1_556 S
C260 C258 1.416 . S
C260 C262 1.416 . S
C260 C293 1.448 . S
C261 H246 0.930 . S
C261 N257 1.335 1_556 S
C261 C259 1.390 . S
C262 C259 1.339 1_554 S
C262 C260 1.416 . S
C262 H269 0.930 . S
N263 Tb228 2.571 1_554 S
N263 C264 1.340 . S
N263 C266 1.361 . S
C264 H250 0.930 . S
C264 N263 1.340 . S
C264 C268 1.407 . S
C265 C266 1.413 . S
C265 C267 1.416 . S
C265 C294 1.427 . S
C266 C258 1.424 . S
C266 N263 1.361 . S
C266 C265 1.413 . S
C267 H256 0.931 . S
C267 C265 1.416 . S
C267 C268 1.332 . S
C268 H247 0.929 . S
C268 C264 1.407 . S
C268 C267 1.332 . S
H269 C262 0.930 . S
H270 C293 0.930 . S
H271 C294 0.929 . S
O272 Tb228 2.468 . S
O272 C292 1.264 . S
O273 Tb228 2.383 1_554 S
O273 C284 1.264 . S
O274 Tb239 2.349 . S
O274 C284 1.243 . S
O275 Tb228 2.431 . S
O275 C292 1.256 . S
O276 Tb228 2.307 1_554 S
O276 C291 1.266 . S
O277 Tb239 2.393 . S
O277 C291 1.248 . S
O278 Tb239 2.465 . S
O278 C303 1.264 . S
O279 Tb239 2.387 . S
O279 C295 1.264 1_554 S
O280 Tb228 2.351 . S
O280 C295 1.243 . S
O281 Tb239 2.428 . S
O281 C303 1.256 . S
O282 Tb239 2.308 . S
O282 C302 1.266 . S
O283 Tb228 2.391 . S
O283 C302 1.248 1_556 S
C284 O273 1.264 . S
C284 O274 1.243 . S
C285 C288 1.399 . S
C285 C290 1.383 . S
C285 C292 1.496 . S
C286 C287 1.399 . S
C286 C290 1.389 . S
C287 C286 1.399 . S
C287 C289 1.380 . S
C287 H304 0.929 . S
C288 C285 1.399 . S
C288 C289 1.392 . S
C288 H305 0.929 . S
C289 C287 1.380 . S
C289 C288 1.392 . S
C289 H306 0.929 . S
C290 C285 1.383 . S
C290 C286 1.389 . S
C290 H307 0.931 . S
C291 O276 1.266 . S
C291 O277 1.248 . S
C292 Tb228 2.806 . S
C292 O272 1.264 . S
C292 O275 1.256 . S
C292 C285 1.496 . S
C293 C260 1.448 . S
C293 H270 0.930 . S
C293 C294 1.328 . S
C294 C265 1.427 . S
C294 H271 0.929 . S
C294 C293 1.328 . S
C295 O279 1.264 1_556 S
C295 O280 1.243 . S
C296 C299 1.399 . S
C296 C300 1.383 . S
C296 C303 1.496 . S
C297 C298 1.399 . S
C297 C300 1.389 . S
C298 C297 1.399 . S
C298 C301 1.380 . S
C298 H308 0.929 . S
C299 C296 1.399 . S
C299 C301 1.392 . S
C299 H309 0.929 . S
C300 C296 1.383 . S
C300 C297 1.389 . S
C300 H310 0.931 . S
C301 C298 1.380 . S
C301 C299 1.392 . S
C301 H311 0.929 . S
C302 O282 1.266 . S
C302 O283 1.248 1_554 S
C303 Tb239 2.802 . S
C303 O278 1.264 . S
C303 O281 1.256 . S
C303 C296 1.496 . S
H304 C287 0.929 . S
H305 C288 0.929 . S
H306 C289 0.929 . S
H307 C290 0.931 . S
H308 C298 0.929 . S
H309 C299 0.929 . S
H310 C300 0.931 . S
H311 C301 0.929 . S
C207 C133 2.180 . S
C25 C302 2.165 . S
C61 C218 2.102 . S
C97 C291 2.017 . S
C202 C1 1.623 . S
C295 C67 1.837 . S
C103 C211 2.092 . S
C109 C286 1.551 . S
C297 C37 1.463 . S
C213 C73 1.515 . S
C284 C139 1.928 . S
C31 C200 2.251 . S
