# Generated by pormake.
# Topology zzz, (3,6)-cn, num edge types: 1
# Building blocks:
#     Node 0, Type 0, BuildingBlock: CUQRIR_clean_linker_1, # of connection points: 3
#     Node 1, Type 0, BuildingBlock: CUQRIR_clean_linker_1, # of connection points: 3
#     Node 2, Type 0, BuildingBlock: CUQRIR_clean_linker_1, # of connection points: 3
#     Node 3, Type 0, BuildingBlock: CUQRIR_clean_linker_1, # of connection points: 3
#     Node 4, Type 0, BuildingBlock: CUQRIR_clean_linker_1, # of connection points: 3
#     Node 5, Type 0, BuildingBlock: CUQRIR_clean_linker_1, # of connection points: 3
#     Node 6, Type 0, BuildingBlock: CUQRIR_clean_linker_1, # of connection points: 3
#     Node 7, Type 0, BuildingBlock: CUQRIR_clean_linker_1, # of connection points: 3
#     Node 8, Type 1, BuildingBlock: BETFAJ_clean_sbu_0, # of connection points: 6
#     Node 9, Type 1, BuildingBlock: BETFAJ_clean_sbu_0, # of connection points: 6
#     Node 10, Type 1, BuildingBlock: BETFAJ_clean_sbu_0, # of connection points: 6
#     Node 11, Type 1, BuildingBlock: BETFAJ_clean_sbu_0, # of connection points: 6
#     Edge 12, Type (0, 1), BuildingBlock: OJICUG_clean_linker_0, # of connection points: 2
#     Edge 13, Type (0, 1), BuildingBlock: OJICUG_clean_linker_0, # of connection points: 2
#     Edge 14, Type (0, 1), BuildingBlock: OJICUG_clean_linker_0, # of connection points: 2
#     Edge 15, Type (0, 1), BuildingBlock: OJICUG_clean_linker_0, # of connection points: 2
#     Edge 16, Type (0, 1), BuildingBlock: OJICUG_clean_linker_0, # of connection points: 2
#     Edge 17, Type (0, 1), BuildingBlock: OJICUG_clean_linker_0, # of connection points: 2
#     Edge 18, Type (0, 1), BuildingBlock: OJICUG_clean_linker_0, # of connection points: 2
#     Edge 19, Type (0, 1), BuildingBlock: OJICUG_clean_linker_0, # of connection points: 2
#     Edge 20, Type (0, 1), BuildingBlock: OJICUG_clean_linker_0, # of connection points: 2
#     Edge 21, Type (0, 1), BuildingBlock: OJICUG_clean_linker_0, # of connection points: 2
#     Edge 22, Type (0, 1), BuildingBlock: OJICUG_clean_linker_0, # of connection points: 2
#     Edge 23, Type (0, 1), BuildingBlock: OJICUG_clean_linker_0, # of connection points: 2
#     Edge 24, Type (0, 1), BuildingBlock: OJICUG_clean_linker_0, # of connection points: 2
#     Edge 25, Type (0, 1), BuildingBlock: OJICUG_clean_linker_0, # of connection points: 2
#     Edge 26, Type (0, 1), BuildingBlock: OJICUG_clean_linker_0, # of connection points: 2
#     Edge 27, Type (0, 1), BuildingBlock: OJICUG_clean_linker_0, # of connection points: 2
#     Edge 28, Type (0, 1), BuildingBlock: OJICUG_clean_linker_0, # of connection points: 2
#     Edge 29, Type (0, 1), BuildingBlock: OJICUG_clean_linker_0, # of connection points: 2
#     Edge 30, Type (0, 1), BuildingBlock: OJICUG_clean_linker_0, # of connection points: 2
#     Edge 31, Type (0, 1), BuildingBlock: OJICUG_clean_linker_0, # of connection points: 2
#     Edge 32, Type (0, 1), BuildingBlock: OJICUG_clean_linker_0, # of connection points: 2
#     Edge 33, Type (0, 1), BuildingBlock: OJICUG_clean_linker_0, # of connection points: 2
#     Edge 34, Type (0, 1), BuildingBlock: OJICUG_clean_linker_0, # of connection points: 2
#     Edge 35, Type (0, 1), BuildingBlock: OJICUG_clean_linker_0, # of connection points: 2
# Relax obj value: 0.456
# Max RMSD: 0.223
# Mean RMSD: 0.156
data_MOF--net-zzz--node1-BETFAJ_clean_sbu_0--node2-CUQRIR_clean_linker_1--edge1-OJICUG_clean_linker_0
_symmetry_space_group_name_H-M    P1
_symmetry_Int_Tables_number       1
_symmetry_cell_setting            triclinic
loop_
_symmetry_equiv_pos_as_xyz
'x, y, z'
_cell_length_a     34.155836
_cell_length_b     34.155811
_cell_length_c     8.5612164
_cell_angle_alpha  89.947861
_cell_angle_beta   89.957073
_cell_angle_gamma 90.012072
loop_
_atom_site_label
_atom_site_type_symbol
_atom_site_fract_x
_atom_site_fract_y
_atom_site_fract_z
_atom_type_partial_charge
C0 C 0.76756 0.54968 0.4485 0.0
N1 N 0.79287 0.52065 0.49194 0.0
N2 N 0.73829 0.53531 0.35634 0.0
C3 C 0.77337 0.59218 0.48389 0.0
C4 C 0.74707 0.49698 0.34328 0.0
N5 N 0.77942 0.48796 0.42624 0.0
C6 C 0.72709 0.46967 0.23089 0.0
H7 H 0.78621 0.59578 0.60208 0.0
H8 H 0.74524 0.60832 0.47563 0.0
H9 H 0.79417 0.60469 0.39761 0.0
H10 H 0.73975 0.4738 0.11268 0.0
H11 H 0.69568 0.47694 0.22204 0.0
H12 H 0.73113 0.43867 0.26564 0.0
C13 C 1.01522 0.76781 0.44711 0.0
N14 N 0.04426 0.79315 0.4901 0.0
N15 N 1.02952 0.73866 0.35415 0.0
C16 C 0.97275 0.7735 0.48377 0.0
C17 C 0.06781 0.74753 0.3402 0.0
N18 N 0.07689 0.77981 0.42339 0.0
C19 C 0.09504 0.72766 0.22699 0.0
H20 H 0.9693 0.78621 0.60225 0.0
H21 H 0.95666 0.74534 0.47554 0.0
H22 H 0.96009 0.79435 0.39815 0.0
H23 H 0.09082 0.74044 0.10906 0.0
H24 H 0.08777 0.69625 0.21778 0.0
H25 H 0.12607 0.73168 0.26119 0.0
C26 C 0.79706 1.01492 0.44864 0.0
N27 N 0.77176 0.044 0.49155 0.0
N28 N 0.82625 1.02917 0.35552 0.0
C29 C 0.7913 0.97246 0.48546 0.0
C30 C 0.81744 0.06747 0.34138 0.0
N31 N 0.78515 0.0766 0.42462 0.0
C32 C 0.83734 0.09462 0.22784 0.0
H33 H 0.77855 0.96905 0.60398 0.0
H34 H 0.81944 0.95634 0.47724 0.0
H35 H 0.77045 0.95981 0.39992 0.0
H36 H 0.82462 0.09031 0.10996 0.0
H37 H 0.86876 0.08737 0.21872 0.0
H38 H 0.83331 0.12567 0.26163 0.0
C39 C 0.54975 0.79703 0.44989 0.0
N40 N 0.52065 0.77176 0.49317 0.0
N41 N 0.5355 0.82627 0.35715 0.0
C42 C 0.59222 0.79119 0.48594 0.0
C43 C 0.49718 0.81752 0.3436 0.0
N44 N 0.48804 0.78521 0.42681 0.0
C45 C 0.47 0.83749 0.23055 0.0
H46 H 0.5957 0.77837 0.6043 0.0
H47 H 0.6084 0.8193 0.47765 0.0
H48 H 0.60477 0.77036 0.40003 0.0
H49 H 0.47424 0.82481 0.11254 0.0
H50 H 0.4773 0.8689 0.2215 0.0
H51 H 0.43896 0.83347 0.26477 0.0
C52 C 0.29678 0.51518 0.30234 0.0
N53 N 0.27151 0.54422 0.2585 0.0
N54 N 0.32596 0.52955 0.39493 0.0
C55 C 0.29099 0.47268 0.2669 0.0
C56 C 0.31718 0.56788 0.40782 0.0
N57 N 0.28491 0.57691 0.32437 0.0
C58 C 0.33709 0.5952 0.52037 0.0
H59 H 0.2701 0.46018 0.35287 0.0
H60 H 0.3191 0.45654 0.2756 0.0
H61 H 0.27826 0.46909 0.14851 0.0
H62 H 0.36849 0.58791 0.52965 0.0
H63 H 0.32434 0.5911 0.63844 0.0
H64 H 0.33311 0.62619 0.4855 0.0
C65 C 0.04944 0.29695 0.30139 0.0
N66 N 1.0204 0.27164 0.25797 0.0
N67 N 0.03507 0.32616 0.39393 0.0
C68 C 0.09194 0.29119 0.26556 0.0
C69 C 0.99675 0.31734 0.40725 0.0
N70 N 0.98772 0.28504 0.32407 0.0
C71 C 0.96945 0.33725 0.52002 0.0
H72 H 0.10446 0.27033 0.35149 0.0
H73 H 0.10807 0.31932 0.27397 0.0
H74 H 0.09551 0.27844 0.14719 0.0
H75 H 0.97673 0.36866 0.52911 0.0
H76 H 0.97359 0.32452 0.63808 0.0
H77 H 0.93845 0.33323 0.48549 0.0
C78 C 0.26766 0.04963 0.30077 0.0
N79 N 0.29296 1.02053 0.25802 0.0
N80 N 0.23841 0.03538 0.39359 0.0
C81 C 0.27348 0.09208 0.26411 0.0
C82 C 0.24719 0.99708 0.40779 0.0
N83 N 0.27952 0.98794 0.32481 0.0
C84 C 0.22724 0.96995 0.52126 0.0
H85 H 0.29428 0.1047 0.34987 0.0
H86 H 0.24535 0.10823 0.27209 0.0
H87 H 0.2863 0.09551 0.14572 0.0
H88 H 0.19583 0.97724 0.5303 0.0
H89 H 0.23995 0.97425 0.63918 0.0
H90 H 0.23125 0.93889 0.48746 0.0
C91 C 0.51474 0.2675 0.30143 0.0
N92 N 0.5438 0.29281 0.25806 0.0
N93 N 0.52908 0.23821 0.3937 0.0
C94 C 0.47224 0.27334 0.26593 0.0
C95 C 0.5674 0.24698 0.40694 0.0
N96 N 0.57647 0.27934 0.32395 0.0
C97 C 0.59464 0.22699 0.51966 0.0
H98 H 0.45974 0.29411 0.35217 0.0
H99 H 0.45609 0.24521 0.27415 0.0
H100 H 0.46868 0.28622 0.14772 0.0
H101 H 0.58738 0.19557 0.52852 0.0
H102 H 0.59044 0.23961 0.63781 0.0
H103 H 0.62567 0.23106 0.48526 0.0
Sm104 Sm 0.05355 1.02415 0.99864 0.0
Sm105 Sm 1.01091 0.04056 0.75016 0.0
C106 C 0.08993 1.00069 0.2544 0.0
C107 C 0.1204 0.97361 0.30311 0.0
C108 C 0.11825 0.95808 0.45307 0.0
C109 C 0.13911 0.92455 0.48991 0.0
C110 C 0.16289 0.90649 0.37609 0.0
C111 C 0.17112 0.9272 0.2373 0.0
C112 C 0.14896 0.96012 0.19866 0.0
C113 C 0.1026 0.05355 0.76567 0.0
C114 C 0.0394 0.95161 0.75086 0.0
C115 C 0.9743 0.06391 0.49473 0.0
C116 C 0.94397 0.0911 0.44565 0.0
C117 C 0.94627 0.10658 0.29562 0.0
C118 C 0.92552 0.14015 0.2583 0.0
C119 C 0.90171 0.15831 0.37173 0.0
C120 C 0.89335 0.1377 0.51063 0.0
C121 C 0.91539 0.10473 0.54972 0.0
C122 C 0.96214 1.01102 0.98375 0.0
C123 C 1.02516 0.11314 0.99762 0.0
O124 O 0.05714 0.98513 0.20636 0.0
O125 O 0.10124 1.03011 0.16932 0.0
O126 O 0.07623 1.02791 0.74485 0.0
O127 O 0.10221 0.06503 0.90896 0.0
O128 O 0.04621 0.95992 0.89935 0.0
O129 O 1.0311 0.98078 0.6567 0.0
O130 O 1.00727 0.0793 0.54161 0.0
O131 O 0.96289 0.03472 0.58089 0.0
O132 O 0.98831 0.0369 1.00369 0.0
O133 O 0.96259 0.99936 0.84069 0.0
O134 O 1.01834 0.10481 0.84916 0.0
O135 O 0.03342 0.08398 0.09186 0.0
H136 H 0.09799 0.96991 0.53717 0.0
H137 H 0.13262 0.91065 0.60062 0.0
H138 H 0.19053 0.91496 0.14995 0.0
H139 H 0.15191 0.97296 0.08348 0.0
H140 H 0.96657 0.09467 0.21182 0.0
H141 H 0.93211 0.15398 0.14757 0.0
H142 H 0.87392 0.15002 0.59768 0.0
H143 H 0.91232 0.09194 0.66495 0.0
Sm144 Sm 0.54059 0.05347 0.9998 0.0
Sm145 Sm 0.52426 1.01082 0.75117 0.0
C146 C 0.56402 0.08982 0.25554 0.0
C147 C 0.59118 0.12022 0.30406 0.0
C148 C 0.60666 0.11807 0.45401 0.0
C149 C 0.64025 0.13885 0.49071 0.0
C150 C 0.65842 0.16254 0.37672 0.0
C151 C 0.63781 0.17075 0.23783 0.0
C152 C 0.60482 0.14868 0.19938 0.0
C153 C 0.51125 0.10249 0.7669 0.0
C154 C 0.6132 0.0393 0.75196 0.0
C155 C 0.50094 0.97421 0.49588 0.0
C156 C 0.47361 0.94398 0.44715 0.0
C157 C 0.45813 0.9463 0.29723 0.0
C158 C 0.42448 0.92566 0.26025 0.0
C159 C 0.40622 0.90194 0.37392 0.0
C160 C 0.42677 0.89359 0.51283 0.0
C161 C 0.45983 0.91551 0.55154 0.0
C162 C 0.55372 0.96208 0.98477 0.0
C163 C 0.45161 1.02508 0.99856 0.0
O164 O 0.57948 0.05697 0.20767 0.0
O165 O 0.53468 0.10118 0.17037 0.0
O166 O 0.53691 0.07614 0.74601 0.0
O167 O 0.49975 0.10211 0.91024 0.0
O168 O 0.60483 0.04612 0.90043 0.0
O169 O 0.58409 1.03099 0.65776 0.0
O170 O 0.48568 1.00727 0.54241 0.0
O171 O 0.53002 0.96273 0.5822 0.0
O172 O 0.52782 0.98822 1.00471 0.0
O173 O 0.56543 0.96252 0.8417 0.0
O174 O 0.46 1.01827 0.85013 0.0
O175 O 0.48072 0.03333 0.09289 0.0
H176 H 0.59474 0.09787 0.53825 0.0
H177 H 0.65408 0.13237 0.60145 0.0
H178 H 0.65014 0.19009 0.15034 0.0
H179 H 0.59204 0.15162 0.08418 0.0
H180 H 0.47012 0.96652 0.21323 0.0
H181 H 0.41067 0.93226 0.14957 0.0
H182 H 0.41434 0.87425 0.60011 0.0
H183 H 0.4726 0.91243 0.66672 0.0
Sm184 Sm 0.51087 0.54049 1.00043 0.0
Sm185 Sm 0.55346 0.52417 0.7516 0.0
C186 C 0.47459 0.56394 0.2565 0.0
C187 C 0.44425 0.59116 0.30524 0.0
C188 C 0.44641 0.60659 0.45525 0.0
C189 C 0.42572 0.64021 0.49216 0.0
C190 C 0.40209 0.65847 0.37836 0.0
C191 C 0.39386 0.63792 0.23937 0.0
C192 C 0.41585 0.6049 0.20071 0.0
C193 C 0.46172 0.51138 0.76766 0.0
C194 C 0.52517 0.61315 0.75288 0.0
C195 C 0.58998 0.50084 0.49589 0.0
C196 C 0.6202 0.47353 0.44689 0.0
C197 C 0.6179 0.45811 0.29689 0.0
C198 C 0.63854 0.42448 0.25962 0.0
C199 C 0.66226 0.4062 0.37306 0.0
C200 C 0.67057 0.42669 0.51209 0.0
C201 C 0.64865 0.45973 0.55109 0.0
C202 C 0.60233 0.55347 0.98486 0.0
C203 C 0.53911 0.45148 0.99886 0.0
O204 O 0.50746 0.57936 0.20836 0.0
O205 O 0.46315 0.53462 0.1714 0.0
O206 O 0.48816 0.53696 0.74676 0.0
O207 O 0.46207 0.49982 0.91094 0.0
O208 O 0.51835 0.60475 0.90137 0.0
O209 O 0.53341 0.58404 0.65853 0.0
O210 O 0.55694 0.48556 0.54291 0.0
O211 O 0.60148 0.52995 0.58196 0.0
O212 O 0.57611 0.52763 1.00497 0.0
O213 O 0.6019 0.5652 0.84181 0.0
O214 O 0.54595 0.4599 0.85041 0.0
O215 O 0.53086 0.48056 0.09327 0.0
H216 H 0.46657 0.5946 0.53935 0.0
H217 H 0.43222 0.65399 0.60293 0.0
H218 H 0.37456 0.65032 0.15202 0.0
H219 H 0.41289 0.59215 0.08547 0.0
H220 H 0.59768 0.47012 0.21306 0.0
H221 H 0.63196 0.41073 0.14889 0.0
H222 H 0.68991 0.41425 0.5992 0.0
H223 H 0.65171 0.47245 0.66632 0.0
Sm224 Sm 1.02404 0.51114 0.99888 0.0
Sm225 Sm 0.04047 0.55373 0.75019 0.0
C226 C 1.00053 0.47482 0.25499 0.0
C227 C 0.97338 0.44443 0.304 0.0
C228 C 0.95795 0.44657 0.45412 0.0
C229 C 0.92438 0.4258 0.49134 0.0
C230 C 0.90617 0.4021 0.37775 0.0
C231 C 0.92674 0.39389 0.23867 0.0
C232 C 0.95971 0.41597 0.19968 0.0
C233 C 0.05322 0.46199 0.76608 0.0
C234 C 0.95145 0.52541 0.75146 0.0
C235 C 0.06384 0.59027 0.49438 0.0
C236 C 0.09102 0.62062 0.4451 0.0
C237 C 0.10649 0.61835 0.29508 0.0
C238 C 0.14005 0.63912 0.25766 0.0
C239 C 0.15822 0.66293 0.37097 0.0
C240 C 0.1376 0.67127 0.5098 0.0
C241 C 0.10464 0.6492 0.54901 0.0
C242 C 1.01113 0.60262 0.98348 0.0
C243 C 0.11306 0.53942 0.99767 0.0
O244 O 0.98505 0.50764 0.20671 0.0
O245 O 1.02991 0.46345 0.16993 0.0
O246 O 1.02766 0.48843 0.74519 0.0
O247 O 0.06474 0.46235 0.90934 0.0
O248 O 0.9598 0.51859 0.89995 0.0
O249 O 0.9806 0.53366 0.65711 0.0
O250 O 0.07926 0.55734 0.54178 0.0
O251 O 0.03462 0.60166 0.58022 0.0
O252 O 0.03693 0.57638 1.00356 0.0
O253 O 0.99945 0.60218 0.84044 0.0
O254 O 0.10472 0.54626 0.84917 0.0
O255 O 0.0839 0.53117 0.09195 0.0
H256 H 0.9699 0.46678 0.53807 0.0
H257 H 0.91059 0.43228 0.6022 0.0
H258 H 0.91438 0.37454 0.15148 0.0
H259 H 0.97246 0.41302 0.08437 0.0
H260 H 0.09459 0.59804 0.2114 0.0
H261 H 0.15388 0.63254 0.14697 0.0
H262 H 0.14992 0.69071 0.59675 0.0
H263 H 0.09185 0.65227 0.66422 0.0
C264 C 0.16994 0.05769 0.40986 0.0
C265 C 0.20713 0.05445 0.47885 0.0
H266 H 0.10743 0.06111 0.44776 0.0
C267 C 0.20966 0.05704 0.64251 0.0
H268 H 0.16726 0.05551 0.28429 0.0
C269 C 0.17571 0.05878 0.73505 0.0
C270 C 0.1383 0.05788 0.66614 0.0
H271 H 0.23781 0.05377 0.69916 0.0
H272 H 0.17877 0.05809 0.86097 0.0
C273 C 0.13586 0.05961 0.50275 0.0
C274 C 0.50763 0.20951 0.64315 0.0
C275 C 0.51009 0.20693 0.47945 0.0
H276 H 0.50677 0.1787 0.8618 0.0
C277 C 0.50684 0.16971 0.41074 0.0
H278 H 0.51093 0.23768 0.69956 0.0
C279 C 0.50502 0.13566 0.50387 0.0
C280 C 0.50687 0.13816 0.66721 0.0
H281 H 0.50892 0.16699 0.28515 0.0
H282 H 0.5035 0.10721 0.44907 0.0
C283 C 0.50599 0.17559 0.73592 0.0
C284 C 0.35464 0.50837 0.6447 0.0
C285 C 0.35721 0.51061 0.48091 0.0
H286 H 0.38547 0.50755 0.86314 0.0
C287 C 0.3944 0.50709 0.41199 0.0
H288 H 0.32649 0.51187 0.70128 0.0
C289 C 0.42846 0.50516 0.50491 0.0
C290 C 0.426 0.50719 0.66826 0.0
H291 H 0.39713 0.509 0.28634 0.0
H292 H 0.45689 0.50339 0.4499 0.0
C293 C 0.38856 0.50663 0.73724 0.0
C294 C 0.05742 0.39464 0.41051 0.0
C295 C 0.05401 0.35744 0.47957 0.0
H296 H 0.06102 0.45714 0.44821 0.0
C297 C 0.05636 0.3549 0.64333 0.0
H298 H 0.05541 0.39735 0.28489 0.0
C299 C 0.0581 0.38884 0.73576 0.0
C300 C 0.05743 0.42626 0.66671 0.0
H301 H 0.05295 0.32675 0.70004 0.0
H302 H 0.05726 0.38576 0.86168 0.0
C303 C 0.05935 0.42871 0.50332 0.0
C304 C 0.85505 1.00764 0.10653 0.0
C305 C 0.85754 1.01013 0.27023 0.0
H306 H 0.88599 1.00668 0.88818 0.0
C307 C 0.89471 1.00679 0.33933 0.0
H308 H 0.82692 1.01098 0.04981 0.0
C309 C 0.92881 1.00489 0.24656 0.0
C310 C 0.92641 1.00672 0.08316 0.0
H311 H 0.89735 1.00886 0.46494 0.0
H312 H 0.95722 1.00332 0.30168 0.0
C313 C 0.88902 1.00591 1.01411 0.0
C314 C 0.55696 0.855 0.10778 0.0
C315 C 0.55457 0.85752 0.27151 0.0
H316 H 0.55786 0.88591 0.88934 0.0
C317 C 0.55801 0.89468 0.34047 0.0
H318 H 0.55354 0.82686 0.05118 0.0
C319 C 0.55992 0.92878 0.24758 0.0
C320 C 0.55799 0.92636 0.08422 0.0
H321 H 0.55601 0.89735 0.4661 0.0
H322 H 0.56157 0.95719 0.30261 0.0
C323 C 0.5587 0.88896 1.01525 0.0
C324 C 0.66984 0.55774 0.33995 0.0
C325 C 0.70699 0.55425 0.27068 0.0
H326 H 0.60733 0.56139 0.30266 0.0
C327 C 0.70947 0.55652 0.10688 0.0
H328 H 0.66719 0.55581 0.46563 0.0
C329 C 0.67549 0.55825 1.01467 0.0
C330 C 0.6381 0.55765 0.08399 0.0
H331 H 0.73759 0.55306 0.05002 0.0
H332 H 0.67851 0.55735 0.88874 0.0
C333 C 0.63572 0.55965 0.24737 0.0
C334 C 1.00816 0.70977 0.10515 0.0
C335 C 1.01053 0.70733 0.26893 0.0
H336 H 1.00721 0.67878 0.88713 0.0
C337 C 1.00704 0.67019 0.33839 0.0
H338 H 1.01161 0.73788 0.04815 0.0
C339 C 1.00506 0.63606 0.24594 0.0
C340 C 1.00699 0.6384 0.08252 0.0
H341 H 1.00904 0.66756 0.46404 0.0
H342 H 1.00333 0.60767 0.30134 0.0
C343 C 1.00637 0.67578 1.01308 0.0
C344 C 0.93075 0.2514 0.21128 0.0
C345 C 0.95245 0.26295 0.34184 0.0
H346 H 0.89056 0.20912 0.12133 0.0
C347 C 0.94186 0.24943 0.49022 0.0
H348 H 0.93761 0.26298 0.09672 0.0
C349 C 0.91411 0.22014 0.50526 0.0
C350 C 0.89978 0.20159 0.37031 0.0
H351 H 0.95801 0.25831 0.59289 0.0
H352 H 0.91064 0.20731 0.6201 0.0
C353 C 0.90325 0.22138 0.22641 0.0
C354 C 0.31319 0.93086 0.21301 0.0
C355 C 0.30158 0.95268 0.34322 0.0
H356 H 0.35553 0.89062 0.12371 0.0
C357 C 0.31505 0.94226 0.49177 0.0
H358 H 0.30166 0.93761 0.09834 0.0
C359 C 0.34436 0.91457 0.50726 0.0
C360 C 0.36294 0.90009 0.37253 0.0
H361 H 0.30614 0.95853 0.59416 0.0
H362 H 0.35718 0.91125 0.62212 0.0
C363 C 0.34322 0.90341 0.22858 0.0
C364 C 0.62213 0.31487 0.49067 0.0
C365 C 0.61169 0.30145 0.34212 0.0
H366 H 0.65309 0.35698 0.62103 0.0
C367 C 0.63346 0.31318 0.21177 0.0
H368 H 0.60591 0.30586 0.59316 0.0
C369 C 0.66085 0.34328 0.22728 0.0
C370 C 0.66417 0.36293 0.37138 0.0
H371 H 0.6267 0.3017 0.09708 0.0
H372 H 0.6736 0.35568 0.1224 0.0
C373 C 0.64978 0.34422 0.50609 0.0
C374 C 0.24932 0.62281 0.49004 0.0
C375 C 0.26284 0.61218 0.34177 0.0
H376 H 0.20721 0.65404 0.61957 0.0
C377 C 0.25131 0.63387 0.21099 0.0
H378 H 0.25818 0.60666 0.59287 0.0
C379 C 0.22129 0.66136 0.22582 0.0
C380 C 0.2015 0.66485 0.36967 0.0
H381 H 0.26289 0.62699 0.09651 0.0
H382 H 0.20903 0.67405 0.12063 0.0
C383 C 0.22005 0.65057 0.50477 0.0
C384 C 0.13395 0.81335 0.53594 0.0
C385 C 0.11215 0.80189 0.40547 0.0
H386 H 0.17425 0.85553 0.62586 0.0
C387 C 0.12269 0.81547 0.2571 0.0
H388 H 0.12713 0.80172 0.65046 0.0
C389 C 0.15047 0.84473 0.24207 0.0
C390 C 0.16488 0.86321 0.37706 0.0
H391 H 0.10648 0.80665 0.15449 0.0
H392 H 0.15389 0.85762 0.1273 0.0
C393 C 0.16148 0.84334 0.5208 0.0
C394 C 0.74956 0.12232 0.25803 0.0
C395 C 0.76308 0.11185 0.40647 0.0
H396 H 0.70742 0.15337 0.12804 0.0
C397 C 0.75153 0.13366 0.53682 0.0
H398 H 0.75844 0.10608 0.15553 0.0
C399 C 0.72149 0.16111 0.52153 0.0
C400 C 0.7017 0.16445 0.37771 0.0
H401 H 0.7631 0.12688 0.6514 0.0
H402 H 0.70923 0.1739 0.62649 0.0
C403 C 0.72026 0.15003 0.24283 0.0
C404 C 0.43097 0.75151 0.53908 0.0
C405 C 0.45278 0.76314 0.4087 0.0
H406 H 0.39073 0.70915 0.62867 0.0
C407 C 0.44234 0.74968 0.26023 0.0
H408 H 0.43772 0.76304 0.6537 0.0
C409 C 0.41464 0.72036 0.24495 0.0
C410 C 0.40019 0.70175 0.37978 0.0
H411 H 0.45859 0.75861 0.15771 0.0
H412 H 0.41131 0.70757 0.13009 0.0
C413 C 0.40352 0.72147 0.52371 0.0
C414 C 0.81312 0.43096 0.53878 0.0
C415 C 0.80151 0.45272 0.40831 0.0
H416 H 0.85546 0.39076 0.6284 0.0
C417 C 0.81497 0.4422 0.25983 0.0
H418 H 0.80159 0.43776 0.65342 0.0
C419 C 0.84427 0.4145 0.24458 0.0
C420 C 0.86289 0.40012 0.37941 0.0
H421 H 0.80603 0.4584 0.15723 0.0
H422 H 0.85706 0.4111 0.12966 0.0
C423 C 0.84315 0.4035 0.52342 0.0
C424 C 1.0159 0.2259 1.02974 0.0
C425 C 1.0244 0.23268 0.18866 0.0
H426 H 1.00923 0.18357 0.84426 0.0
C427 C 0.03272 0.20003 0.28289 0.0
H428 H 1.00859 0.25036 0.95472 0.0
C429 C 0.03286 0.1618 0.22053 0.0
C430 C 1.02439 0.15463 0.06133 0.0
H431 H 0.0385 0.20414 0.40614 0.0
H432 H 0.03937 0.13767 0.29841 0.0
C433 C 1.01598 0.1875 0.96681 0.0
C434 C 0.33884 1.01599 1.03004 0.0
C435 C 0.33197 1.02445 0.18895 0.0
H436 H 0.38129 1.0093 0.84477 0.0
C437 C 0.36456 0.03268 0.28342 0.0
H438 H 0.31442 1.00875 0.95487 0.0
C439 C 0.40284 0.03276 0.22128 0.0
C440 C 0.41009 1.02434 0.06208 0.0
H441 H 0.36037 0.03842 0.40667 0.0
H442 H 0.42692 0.0392 0.29932 0.0
C443 C 0.37728 1.01602 0.96734 0.0
C444 C 0.53151 0.36438 0.28361 0.0
C445 C 0.53983 0.33182 0.18908 0.0
H446 H 0.5249 0.42673 0.29959 0.0
C447 C 0.54833 0.33872 1.03017 0.0
H448 H 0.52574 0.36016 0.40686 0.0
C449 C 0.54826 0.37717 0.96751 0.0
C450 C 0.53986 0.40995 0.06231 0.0
H451 H 0.55563 0.31432 0.95495 0.0
H452 H 0.55502 0.3812 0.84494 0.0
C453 C 0.5314 0.40266 0.22152 0.0
C454 C 0.1999 0.53187 0.28323 0.0
C455 C 0.23257 0.54022 0.18907 0.0
H456 H 0.13754 0.5252 0.29858 0.0
C457 C 0.22581 0.54872 1.03007 0.0
H458 H 0.20399 0.5261 0.40653 0.0
C459 C 0.18742 0.54862 0.967 0.0
C460 C 0.15454 0.5402 0.06146 0.0
H461 H 0.25029 0.55604 0.95509 0.0
H462 H 0.18352 0.55538 0.8444 0.0
C463 C 0.16168 0.53173 0.22074 0.0
C464 C 1.03188 0.86475 0.46541 0.0
C465 C 0.04028 0.8321 0.55952 0.0
H466 H 1.02514 0.92711 0.45007 0.0
C467 C 0.04882 0.83887 0.71842 0.0
H468 H 1.02608 0.86066 0.34218 0.0
C469 C 0.04869 0.87726 0.78144 0.0
C470 C 0.04021 0.91013 0.68705 0.0
H471 H 0.05618 0.8144 0.79335 0.0
H472 H 0.05548 0.88118 0.90397 0.0
C473 C 1.03171 0.90297 0.52786 0.0
C474 C 0.72596 0.04855 0.7198 0.0
C475 C 0.73278 0.04005 0.56089 0.0
H476 H 0.68357 0.05522 0.9053 0.0
C477 C 0.70017 1.03175 0.46665 0.0
H478 H 0.7504 0.05584 0.7948 0.0
C479 C 0.66192 1.03162 0.52902 0.0
C480 C 0.6547 0.04008 0.68823 0.0
H481 H 0.70432 1.02598 0.3434 0.0
H482 H 0.63781 1.02512 0.45115 0.0
C483 C 0.68753 0.04847 0.78274 0.0
C484 C 0.53283 0.70018 0.46788 0.0
C485 C 0.52457 0.73276 0.56231 0.0
H486 H 0.53937 0.63782 0.45208 0.0
C487 C 0.51606 0.7259 0.72125 0.0
H488 H 0.5386 0.70436 0.34461 0.0
C489 C 0.51609 0.68747 0.78403 0.0
C490 C 0.52444 0.65466 0.68932 0.0
H491 H 0.5088 0.75033 0.79639 0.0
H492 H 0.50933 0.68347 0.90662 0.0
C493 C 0.53291 0.66191 0.53009 0.0
C494 C 0.86447 0.53299 0.46655 0.0
C495 C 0.83186 0.52464 0.56099 0.0
H496 H 0.92683 0.53966 0.45069 0.0
C497 C 0.83869 0.51611 0.7199 0.0
H498 H 0.86032 0.53879 0.3433 0.0
C499 C 0.87712 0.51621 0.78262 0.0
C500 C 0.90995 0.52464 0.68791 0.0
H501 H 0.81426 0.50878 0.79507 0.0
H502 H 0.88108 0.50943 0.90518 0.0
C503 C 0.90273 0.53313 0.52871 0.0
loop_
_geom_bond_atom_site_label_1
_geom_bond_atom_site_label_2
_geom_bond_distance
_geom_bond_site_symmetry_2
_ccdc_geom_bond_type
C0 N1 1.317 . S
C0 N2 1.348 . S
C0 C3 1.485 . S
N1 C0 1.317 . S
N1 N5 1.370 . S
N2 C0 1.348 . S
N2 C4 1.346 . S
C3 C0 1.485 . S
C3 H7 0.960 . S
C3 H8 0.961 . S
C3 H9 0.960 . S
C4 N2 1.346 . S
C4 N5 1.307 . S
C4 C6 1.486 . S
N5 N1 1.370 . S
N5 C4 1.307 . S
C6 C4 1.486 . S
C6 H10 0.960 . S
C6 H11 0.960 . S
C6 H12 0.959 . S
H7 C3 0.960 . S
H8 C3 0.961 . S
H9 C3 0.960 . S
H10 C6 0.960 . S
H11 C6 0.960 . S
H12 C6 0.959 . S
C13 N14 1.317 . S
C13 N15 1.348 . S
C13 C16 1.485 . S
N14 C13 1.317 . S
N14 N18 1.371 . S
N15 C13 1.348 . S
N15 C17 1.346 1_655 S
C16 C13 1.485 . S
C16 H20 0.960 1_655 S
C16 H21 0.961 . S
C16 H22 0.960 . S
C17 N15 1.346 1_455 S
C17 N18 1.307 1_455 S
C17 C19 1.486 . S
N18 N14 1.371 . S
N18 C17 1.307 1_655 S
C19 C17 1.486 . S
C19 H23 0.960 1_455 S
C19 H24 0.960 . S
C19 H25 0.959 . S
H20 C16 0.960 1_455 S
H21 C16 0.961 . S
H22 C16 0.960 . S
H23 C19 0.960 1_655 S
H24 C19 0.960 . S
H25 C19 0.959 . S
C26 N27 1.317 . S
C26 N28 1.348 . S
C26 C29 1.485 . S
N27 C26 1.317 . S
N27 N31 1.371 . S
N28 C26 1.348 . S
N28 C30 1.346 1_565 S
C29 C26 1.485 . S
C29 H33 0.960 1_565 S
C29 H34 0.961 . S
C29 H35 0.960 . S
C30 N28 1.346 1_545 S
C30 N31 1.307 1_545 S
C30 C32 1.486 . S
N31 N27 1.371 . S
N31 C30 1.307 1_565 S
C32 C30 1.486 . S
C32 H36 0.960 1_545 S
C32 H37 0.960 . S
C32 H38 0.959 . S
H33 C29 0.960 1_545 S
H34 C29 0.961 . S
H35 C29 0.960 . S
H36 C32 0.960 1_565 S
H37 C32 0.960 . S
H38 C32 0.959 . S
C39 N40 1.317 . S
C39 N41 1.348 . S
C39 C42 1.485 . S
N40 C39 1.317 . S
N40 N44 1.370 . S
N41 C39 1.348 . S
N41 C43 1.346 . S
C42 C39 1.485 . S
C42 H46 0.960 . S
C42 H47 0.961 . S
C42 H48 0.960 . S
C43 N41 1.346 . S
C43 N44 1.307 . S
C43 C45 1.486 . S
N44 N40 1.370 . S
N44 C43 1.307 . S
C45 C43 1.486 . S
C45 H49 0.960 . S
C45 H50 0.960 . S
C45 H51 0.959 . S
H46 C42 0.960 . S
H47 C42 0.961 . S
H48 C42 0.960 . S
H49 C45 0.960 . S
H50 C45 0.960 . S
H51 C45 0.959 . S
C52 N53 1.317 . S
C52 N54 1.348 1_556 S
C52 C55 1.485 . S
N53 C52 1.317 . S
N53 N57 1.370 1_556 S
N54 C52 1.348 1_554 S
N54 C56 1.346 . S
C55 C52 1.485 . S
C55 H59 0.960 . S
C55 H60 0.961 . S
C55 H61 0.960 . S
C56 N54 1.346 . S
C56 N57 1.307 . S
C56 C58 1.486 . S
N57 N53 1.370 1_554 S
N57 C56 1.307 . S
C58 C56 1.486 . S
C58 H62 0.960 . S
C58 H63 0.960 . S
C58 H64 0.959 . S
H59 C55 0.960 . S
H60 C55 0.961 . S
H61 C55 0.960 . S
H62 C58 0.960 . S
H63 C58 0.960 . S
H64 C58 0.959 . S
C65 N66 1.317 . S
C65 N67 1.350 1_556 S
C65 C68 1.485 . S
N66 C65 1.317 . S
N66 N70 1.371 1_556 S
N67 C65 1.350 1_554 S
N67 C69 1.345 1_655 S
C68 C65 1.485 . S
C68 H72 0.960 1_655 S
C68 H73 0.961 . S
C68 H74 0.960 . S
C69 N67 1.345 1_455 S
C69 N70 1.307 1_455 S
C69 C71 1.487 . S
N70 N66 1.371 1_554 S
N70 C69 1.307 1_655 S
C71 C69 1.487 . S
C71 H75 0.960 1_455 S
C71 H76 0.960 . S
C71 H77 0.959 . S
H72 C68 0.960 1_455 S
H73 C68 0.961 . S
H74 C68 0.960 . S
H75 C71 0.960 1_655 S
H76 C71 0.960 . S
H77 C71 0.959 . S
C78 N79 1.317 . S
C78 N80 1.350 1_556 S
C78 C81 1.485 . S
N79 C78 1.317 . S
N79 N83 1.371 1_556 S
N80 C78 1.350 1_554 S
N80 C82 1.345 1_565 S
C81 C78 1.485 . S
C81 H85 0.960 1_565 S
C81 H86 0.961 . S
C81 H87 0.960 . S
C82 N80 1.345 1_545 S
C82 N83 1.307 1_545 S
C82 C84 1.487 . S
N83 N79 1.371 1_554 S
N83 C82 1.307 1_565 S
C84 C82 1.487 . S
C84 H88 0.960 1_545 S
C84 H89 0.960 . S
C84 H90 0.959 . S
H85 C81 0.960 1_545 S
H86 C81 0.961 . S
H87 C81 0.960 . S
H88 C84 0.960 1_565 S
H89 C84 0.960 . S
H90 C84 0.959 . S
C91 N92 1.317 . S
C91 N93 1.348 1_556 S
C91 C94 1.485 . S
N92 C91 1.317 . S
N92 N96 1.370 1_556 S
N93 C91 1.348 1_554 S
N93 C95 1.346 . S
C94 C91 1.485 . S
C94 H98 0.960 . S
C94 H99 0.961 . S
C94 H100 0.960 . S
C95 N93 1.346 . S
C95 N96 1.307 . S
C95 C97 1.486 . S
N96 N92 1.370 1_554 S
N96 C95 1.307 . S
C97 C95 1.486 . S
C97 H101 0.960 . S
C97 H102 0.960 . S
C97 H103 0.959 . S
H98 C94 0.960 . S
H99 C94 0.961 . S
H100 C94 0.960 . S
H101 C97 0.960 . S
H102 C97 0.960 . S
H103 C97 0.959 . S
Sm104 C106 2.846 1_556 S
Sm104 O124 2.543 1_556 S
Sm104 O125 2.450 1_556 S
Sm104 O126 2.681 1_565 S
Sm104 O127 2.464 . S
Sm104 O128 2.396 . S
Sm104 O132 2.386 1_455 S
Sm104 O135 2.408 1_565 S
Sm105 C115 2.846 . S
Sm105 O126 2.386 1_655 S
Sm105 O129 2.408 1_545 S
Sm105 O130 2.543 . S
Sm105 O131 2.450 . S
Sm105 O132 2.681 1_545 S
Sm105 O133 2.464 . S
Sm105 O134 2.396 . S
C106 Sm104 2.846 1_554 S
C106 C107 1.506 . S
C106 O124 1.261 . S
C106 O125 1.242 . S
C107 C106 1.506 . S
C107 C108 1.358 . S
C107 C112 1.382 . S
C108 C107 1.358 . S
C108 C109 1.385 . S
C108 H136 0.930 1_455 S
C109 C108 1.385 . S
C109 C110 1.395 . S
C109 H137 0.929 . S
C110 C109 1.395 . S
C110 C111 1.335 . S
C111 C110 1.335 . S
C111 C112 1.398 . S
C111 H138 0.930 . S
C112 C107 1.382 . S
C112 C111 1.398 . S
C112 H139 0.929 . S
C113 O126 1.271 1_565 S
C113 O127 1.251 . S
C114 O128 1.252 1_655 S
C114 O129 1.272 . S
C115 Sm105 2.846 . S
C115 C116 1.506 . S
C115 O130 1.261 . S
C115 O131 1.242 . S
C116 C115 1.506 . S
C116 C117 1.358 . S
C116 C121 1.382 . S
C117 C116 1.358 . S
C117 C118 1.385 . S
C117 H140 0.930 1_655 S
C118 C117 1.385 . S
C118 C119 1.395 . S
C118 H141 0.929 . S
C119 C118 1.395 . S
C119 C120 1.335 . S
C120 C119 1.335 . S
C120 C121 1.398 . S
C120 H142 0.930 . S
C121 C116 1.382 . S
C121 C120 1.398 . S
C121 H143 0.929 . S
C122 O132 1.271 1_545 S
C122 O133 1.251 . S
C123 O134 1.252 1_455 S
C123 O135 1.272 . S
O124 Sm104 2.543 1_554 S
O124 C106 1.261 . S
O125 Sm104 2.450 1_554 S
O125 C106 1.242 . S
O126 Sm104 2.681 1_545 S
O126 Sm105 2.386 1_455 S
O126 C113 1.271 1_545 S
O127 Sm104 2.464 . S
O127 C113 1.251 . S
O128 Sm104 2.396 . S
O128 C114 1.252 1_455 S
O129 Sm105 2.408 1_565 S
O129 C114 1.272 . S
O130 Sm105 2.543 . S
O130 C115 1.261 . S
O131 Sm105 2.450 . S
O131 C115 1.242 . S
O132 Sm104 2.386 1_655 S
O132 Sm105 2.681 1_565 S
O132 C122 1.271 1_565 S
O133 Sm105 2.464 . S
O133 C122 1.251 . S
O134 Sm105 2.396 . S
O134 C123 1.252 1_655 S
O135 Sm104 2.408 1_545 S
O135 C123 1.272 . S
H136 C108 0.930 1_655 S
H137 C109 0.929 . S
H138 C111 0.930 . S
H139 C112 0.929 . S
H140 C117 0.930 1_455 S
H141 C118 0.929 . S
H142 C120 0.930 . S
H143 C121 0.929 . S
Sm144 C146 2.846 1_556 S
Sm144 O164 2.543 1_556 S
Sm144 O165 2.450 1_556 S
Sm144 O166 2.681 . S
Sm144 O167 2.464 . S
Sm144 O168 2.396 . S
Sm144 O172 2.386 1_545 S
Sm144 O175 2.408 . S
Sm145 C155 2.846 . S
Sm145 O166 2.386 1_565 S
Sm145 O169 2.408 . S
Sm145 O170 2.543 . S
Sm145 O171 2.450 . S
Sm145 O172 2.681 . S
Sm145 O173 2.464 . S
Sm145 O174 2.396 . S
C146 Sm144 2.846 1_554 S
C146 C147 1.506 . S
C146 O164 1.261 . S
C146 O165 1.242 . S
C147 C146 1.506 . S
C147 C148 1.358 . S
C147 C152 1.382 . S
C148 C147 1.358 . S
C148 C149 1.385 . S
C148 H176 0.930 1_545 S
C149 C148 1.385 . S
C149 C150 1.395 . S
C149 H177 0.929 . S
C150 C149 1.395 . S
C150 C151 1.335 . S
C151 C150 1.335 . S
C151 C152 1.398 . S
C151 H178 0.930 . S
C152 C147 1.382 . S
C152 C151 1.398 . S
C152 H179 0.929 . S
C153 O166 1.271 . S
C153 O167 1.251 . S
C154 O168 1.252 1_565 S
C154 O169 1.272 . S
C155 Sm145 2.846 . S
C155 C156 1.506 . S
C155 O170 1.261 . S
C155 O171 1.242 . S
C156 C155 1.506 . S
C156 C157 1.358 . S
C156 C161 1.382 . S
C157 C156 1.358 . S
C157 C158 1.385 . S
C157 H180 0.930 1_565 S
C158 C157 1.385 . S
C158 C159 1.395 . S
C158 H181 0.929 . S
C159 C158 1.395 . S
C159 C160 1.335 . S
C160 C159 1.335 . S
C160 C161 1.398 . S
C160 H182 0.930 . S
C161 C156 1.382 . S
C161 C160 1.398 . S
C161 H183 0.929 . S
C162 O172 1.271 . S
C162 O173 1.251 . S
C163 O174 1.252 1_545 S
C163 O175 1.272 . S
O164 Sm144 2.543 1_554 S
O164 C146 1.261 . S
O165 Sm144 2.450 1_554 S
O165 C146 1.242 . S
O166 Sm144 2.681 . S
O166 Sm145 2.386 1_545 S
O166 C153 1.271 . S
O167 Sm144 2.464 . S
O167 C153 1.251 . S
O168 Sm144 2.396 . S
O168 C154 1.252 1_545 S
O169 Sm145 2.408 . S
O169 C154 1.272 . S
O170 Sm145 2.543 . S
O170 C155 1.261 . S
O171 Sm145 2.450 . S
O171 C155 1.242 . S
O172 Sm144 2.386 1_565 S
O172 Sm145 2.681 . S
O172 C162 1.271 . S
O173 Sm145 2.464 . S
O173 C162 1.251 . S
O174 Sm145 2.396 . S
O174 C163 1.252 1_565 S
O175 Sm144 2.408 . S
O175 C163 1.272 . S
H176 C148 0.930 1_565 S
H177 C149 0.929 . S
H178 C151 0.930 . S
H179 C152 0.929 . S
H180 C157 0.930 1_545 S
H181 C158 0.929 . S
H182 C160 0.930 . S
H183 C161 0.929 . S
Sm184 C186 2.846 1_556 S
Sm184 O204 2.543 1_556 S
Sm184 O205 2.450 1_556 S
Sm184 O206 2.681 . S
Sm184 O207 2.464 . S
Sm184 O208 2.396 . S
Sm184 O212 2.386 . S
Sm184 O215 2.408 . S
Sm185 C195 2.846 . S
Sm185 O206 2.386 . S
Sm185 O209 2.408 . S
Sm185 O210 2.543 . S
Sm185 O211 2.450 . S
Sm185 O212 2.681 . S
Sm185 O213 2.464 . S
Sm185 O214 2.396 . S
C186 Sm184 2.846 1_554 S
C186 C187 1.506 . S
C186 O204 1.261 . S
C186 O205 1.242 . S
C187 C186 1.506 . S
C187 C188 1.358 . S
C187 C192 1.382 . S
C188 C187 1.358 . S
C188 C189 1.385 . S
C188 H216 0.930 . S
C189 C188 1.385 . S
C189 C190 1.395 . S
C189 H217 0.929 . S
C190 C189 1.395 . S
C190 C191 1.335 . S
C191 C190 1.335 . S
C191 C192 1.398 . S
C191 H218 0.930 . S
C192 C187 1.382 . S
C192 C191 1.398 . S
C192 H219 0.929 . S
C193 O206 1.271 . S
C193 O207 1.251 . S
C194 O208 1.252 . S
C194 O209 1.272 . S
C195 Sm185 2.846 . S
C195 C196 1.506 . S
C195 O210 1.261 . S
C195 O211 1.242 . S
C196 C195 1.506 . S
C196 C197 1.358 . S
C196 C201 1.382 . S
C197 C196 1.358 . S
C197 C198 1.385 . S
C197 H220 0.930 . S
C198 C197 1.385 . S
C198 C199 1.395 . S
C198 H221 0.929 . S
C199 C198 1.395 . S
C199 C200 1.335 . S
C200 C199 1.335 . S
C200 C201 1.398 . S
C200 H222 0.930 . S
C201 C196 1.382 . S
C201 C200 1.398 . S
C201 H223 0.929 . S
C202 O212 1.271 . S
C202 O213 1.251 . S
C203 O214 1.252 . S
C203 O215 1.272 . S
O204 Sm184 2.543 1_554 S
O204 C186 1.261 . S
O205 Sm184 2.450 1_554 S
O205 C186 1.242 . S
O206 Sm184 2.681 . S
O206 Sm185 2.386 . S
O206 C193 1.271 . S
O207 Sm184 2.464 . S
O207 C193 1.251 . S
O208 Sm184 2.396 . S
O208 C194 1.252 . S
O209 Sm185 2.408 . S
O209 C194 1.272 . S
O210 Sm185 2.543 . S
O210 C195 1.261 . S
O211 Sm185 2.450 . S
O211 C195 1.242 . S
O212 Sm184 2.386 . S
O212 Sm185 2.681 . S
O212 C202 1.271 . S
O213 Sm185 2.464 . S
O213 C202 1.251 . S
O214 Sm185 2.396 . S
O214 C203 1.252 . S
O215 Sm184 2.408 . S
O215 C203 1.272 . S
H216 C188 0.930 . S
H217 C189 0.929 . S
H218 C191 0.930 . S
H219 C192 0.929 . S
H220 C197 0.930 . S
H221 C198 0.929 . S
H222 C200 0.930 . S
H223 C201 0.929 . S
Sm224 C226 2.846 1_556 S
Sm224 O244 2.543 1_556 S
Sm224 O245 2.450 1_556 S
Sm224 O246 2.681 1_655 S
Sm224 O247 2.464 . S
Sm224 O248 2.396 . S
Sm224 O252 2.386 . S
Sm224 O255 2.408 1_655 S
Sm225 C235 2.846 . S
Sm225 O246 2.386 . S
Sm225 O249 2.408 1_455 S
Sm225 O250 2.543 . S
Sm225 O251 2.450 . S
Sm225 O252 2.681 1_455 S
Sm225 O253 2.464 . S
Sm225 O254 2.396 . S
C226 Sm224 2.846 1_554 S
C226 C227 1.506 . S
C226 O244 1.261 . S
C226 O245 1.242 . S
C227 C226 1.506 . S
C227 C228 1.358 . S
C227 C232 1.382 . S
C228 C227 1.358 . S
C228 C229 1.385 . S
C228 H256 0.930 . S
C229 C228 1.385 . S
C229 C230 1.395 . S
C229 H257 0.929 . S
C230 C229 1.395 . S
C230 C231 1.335 . S
C231 C230 1.335 . S
C231 C232 1.398 . S
C231 H258 0.930 . S
C232 C227 1.382 . S
C232 C231 1.398 . S
C232 H259 0.929 . S
C233 O246 1.266 1_655 S
C233 O247 1.260 . S
C234 O248 1.252 . S
C234 O249 1.272 . S
C235 Sm225 2.846 . S
C235 C236 1.506 . S
C235 O250 1.261 . S
C235 O251 1.242 . S
C236 C235 1.506 . S
C236 C237 1.358 . S
C236 C241 1.382 . S
C237 C236 1.358 . S
C237 C238 1.385 . S
C237 H260 0.930 . S
C238 C237 1.385 . S
C238 C239 1.395 . S
C238 H261 0.929 . S
C239 C238 1.395 . S
C239 C240 1.335 . S
C240 C239 1.335 . S
C240 C241 1.398 . S
C240 H262 0.930 . S
C241 C236 1.382 . S
C241 C240 1.398 . S
C241 H263 0.929 . S
C242 O252 1.264 1_455 S
C242 O253 1.263 . S
C243 O254 1.252 . S
C243 O255 1.272 . S
O244 Sm224 2.543 1_554 S
O244 C226 1.261 . S
O245 Sm224 2.450 1_554 S
O245 C226 1.242 . S
O246 Sm224 2.681 1_455 S
O246 Sm225 2.386 . S
O246 C233 1.266 1_455 S
O247 Sm224 2.464 . S
O247 C233 1.260 . S
O248 Sm224 2.396 . S
O248 C234 1.252 . S
O249 Sm225 2.408 1_655 S
O249 C234 1.272 . S
O250 Sm225 2.543 . S
O250 C235 1.261 . S
O251 Sm225 2.450 . S
O251 C235 1.242 . S
O252 Sm224 2.386 . S
O252 Sm225 2.681 1_655 S
O252 C242 1.264 1_655 S
O253 Sm225 2.464 . S
O253 C242 1.263 . S
O254 Sm225 2.396 . S
O254 C243 1.252 . S
O255 Sm224 2.408 1_455 S
O255 C243 1.272 . S
H256 C228 0.930 . S
H257 C229 0.929 . S
H258 C231 0.930 . S
H259 C232 0.929 . S
H260 C237 0.930 . S
H261 C238 0.929 . S
H262 C240 0.930 . S
H263 C241 0.929 . S
C264 C265 1.386 1_565 S
C264 H268 0.950 . S
C264 C273 1.390 . S
C265 C264 1.386 1_545 S
C265 C267 1.389 . S
H266 C273 0.950 . S
C267 C265 1.389 . S
C267 C269 1.390 . S
C267 H271 0.950 . S
H268 C264 0.950 . S
C269 C267 1.390 . S
C269 C270 1.393 . S
C269 H272 0.950 . S
C270 C269 1.393 . S
C270 C273 1.382 1_545 S
H271 C267 0.950 . S
H272 C269 0.950 . S
C273 C264 1.390 . S
C273 H266 0.950 . S
C273 C270 1.382 1_565 S
C274 C275 1.387 . S
C274 H278 0.950 . S
C274 C283 1.390 . S
C275 C274 1.387 . S
C275 C277 1.387 . S
H276 C283 0.950 . S
C277 C275 1.387 . S
C277 C279 1.390 . S
C277 H281 0.950 . S
H278 C274 0.950 . S
C279 C277 1.390 . S
C279 C280 1.387 . S
C279 H282 0.950 . S
C280 C279 1.387 . S
C280 C283 1.387 . S
H281 C277 0.950 . S
H282 C279 0.950 . S
C283 C274 1.390 . S
C283 H276 0.950 . S
C283 C280 1.387 . S
C284 C285 1.387 . S
C284 H288 0.950 . S
C284 C293 1.390 . S
C285 C284 1.387 . S
C285 C287 1.387 . S
H286 C293 0.950 . S
C287 C285 1.387 . S
C287 C289 1.390 . S
C287 H291 0.950 . S
H288 C284 0.950 . S
C289 C287 1.390 . S
C289 C290 1.387 . S
C289 H292 0.950 . S
C290 C289 1.387 . S
C290 C293 1.387 . S
H291 C287 0.950 . S
H292 C289 0.950 . S
C293 C284 1.390 . S
C293 H286 0.950 . S
C293 C290 1.387 . S
C294 C295 1.368 1_655 S
C294 H298 0.950 . S
C294 C303 1.390 . S
C295 C294 1.368 1_455 S
C295 C297 1.408 . S
H296 C303 0.950 . S
C297 C295 1.408 . S
C297 C299 1.390 . S
C297 H301 0.950 . S
H298 C294 0.950 . S
C299 C297 1.390 . S
C299 C300 1.387 . S
C299 H302 0.950 . S
C300 C299 1.387 . S
C300 C303 1.387 1_455 S
H301 C297 0.950 . S
H302 C299 0.950 . S
C303 C294 1.390 . S
C303 H296 0.950 . S
C303 C300 1.387 1_655 S
C304 C305 1.390 1_565 S
C304 H308 0.950 . S
C304 C313 1.390 . S
C305 C304 1.390 1_545 S
C305 C307 1.385 . S
H306 C313 0.950 . S
C307 C305 1.385 . S
C307 C309 1.390 . S
C307 H311 0.950 . S
H308 C304 0.950 . S
C309 C307 1.390 . S
C309 C310 1.389 1_545 S
C309 H312 0.950 . S
C310 C309 1.389 1_565 S
C310 C313 1.386 . S
H311 C307 0.950 . S
H312 C309 0.950 . S
C313 C304 1.390 . S
C313 H306 0.950 . S
C313 C310 1.386 . S
C314 C315 1.387 . S
C314 H318 0.950 . S
C314 C323 1.390 . S
C315 C314 1.387 . S
C315 C317 1.387 . S
H316 C323 0.950 . S
C317 C315 1.387 . S
C317 C319 1.390 . S
C317 H321 0.950 . S
H318 C314 0.950 . S
C319 C317 1.390 . S
C319 C320 1.387 . S
C319 H322 0.950 . S
C320 C319 1.387 . S
C320 C323 1.387 . S
H321 C317 0.950 . S
H322 C319 0.950 . S
C323 C314 1.390 . S
C323 H316 0.950 . S
C323 C320 1.387 . S
C324 C325 1.387 . S
C324 H328 0.950 . S
C324 C333 1.390 . S
C325 C324 1.387 . S
C325 C327 1.387 . S
H326 C333 0.950 . S
C327 C325 1.387 . S
C327 C329 1.390 . S
C327 H331 0.950 . S
H328 C324 0.950 . S
C329 C327 1.390 . S
C329 C330 1.387 . S
C329 H332 0.950 . S
C330 C329 1.387 . S
C330 C333 1.387 . S
H331 C327 0.950 . S
H332 C329 0.950 . S
C333 C324 1.390 . S
C333 H326 0.950 . S
C333 C330 1.387 . S
C334 C335 1.408 . S
C334 H338 0.950 . S
C334 C343 1.390 . S
C335 C334 1.408 . S
C335 C337 1.367 1_655 S
H336 C343 0.950 . S
C337 C335 1.367 1_455 S
C337 C339 1.390 . S
C337 H341 0.950 . S
H338 C334 0.950 . S
C339 C337 1.390 . S
C339 C340 1.387 1_455 S
C339 H342 0.950 . S
C340 C339 1.387 1_655 S
C340 C343 1.387 . S
H341 C337 0.950 . S
H342 C339 0.950 . S
C343 C334 1.390 . S
C343 H336 0.950 . S
C343 C340 1.387 . S
C344 C345 1.387 . S
C344 H348 0.950 1_655 S
C344 C353 1.390 . S
C345 C344 1.387 . S
C345 C347 1.387 . S
H346 C353 0.950 . S
C347 C345 1.387 . S
C347 C349 1.390 . S
C347 H351 0.950 . S
H348 C344 0.950 1_455 S
C349 C347 1.390 . S
C349 C350 1.387 . S
C349 H352 0.950 . S
C350 C349 1.387 . S
C350 C353 1.387 . S
H351 C347 0.950 . S
H352 C349 0.950 . S
C353 C344 1.390 . S
C353 H346 0.950 . S
C353 C350 1.387 . S
C354 C355 1.387 . S
C354 H358 0.950 1_554 S
C354 C363 1.390 . S
C355 C354 1.387 . S
C355 C357 1.387 . S
H356 C363 0.950 . S
C357 C355 1.387 . S
C357 C359 1.390 . S
C357 H361 0.950 . S
H358 C354 0.950 1_556 S
C359 C357 1.390 . S
C359 C360 1.387 . S
C359 H362 0.950 . S
C360 C359 1.387 . S
C360 C363 1.387 . S
H361 C357 0.950 . S
H362 C359 0.950 . S
C363 C354 1.390 . S
C363 H356 0.950 . S
C363 C360 1.387 . S
C364 C365 1.387 . S
C364 H368 0.950 . S
C364 C373 1.390 . S
C365 C364 1.387 . S
C365 C367 1.387 . S
H366 C373 0.950 . S
C367 C365 1.387 . S
C367 C369 1.390 . S
C367 H371 0.950 1_554 S
H368 C364 0.950 . S
C369 C367 1.390 . S
C369 C370 1.387 . S
C369 H372 0.950 . S
C370 C369 1.387 . S
C370 C373 1.387 . S
H371 C367 0.950 1_556 S
H372 C369 0.950 . S
C373 C364 1.390 . S
C373 H366 0.950 . S
C373 C370 1.387 . S
C374 C375 1.387 . S
C374 H378 0.950 . S
C374 C383 1.390 . S
C375 C374 1.387 . S
C375 C377 1.387 . S
H376 C383 0.950 . S
C377 C375 1.387 . S
C377 C379 1.390 . S
C377 H381 0.950 1_554 S
H378 C374 0.950 . S
C379 C377 1.390 . S
C379 C380 1.387 . S
C379 H382 0.950 . S
C380 C379 1.387 . S
C380 C383 1.387 . S
H381 C377 0.950 1_556 S
H382 C379 0.950 . S
C383 C374 1.390 . S
C383 H376 0.950 . S
C383 C380 1.387 . S
C384 C385 1.387 . S
C384 H388 0.950 . S
C384 C393 1.390 . S
C385 C384 1.387 . S
C385 C387 1.387 1_455 S
H386 C393 0.950 . S
C387 C385 1.387 1_655 S
C387 C389 1.390 1_655 S
C387 H391 0.950 . S
H388 C384 0.950 . S
C389 C387 1.390 1_455 S
C389 C390 1.387 . S
C389 H392 0.950 . S
C390 C389 1.387 . S
C390 C393 1.387 . S
H391 C387 0.950 . S
H392 C389 0.950 . S
C393 C384 1.390 . S
C393 H386 0.950 . S
C393 C390 1.387 . S
C394 C395 1.387 1_565 S
C394 H398 0.950 . S
C394 C403 1.390 1_565 S
C395 C394 1.387 1_545 S
C395 C397 1.387 . S
H396 C403 0.950 . S
C397 C395 1.387 . S
C397 C399 1.390 . S
C397 H401 0.950 . S
H398 C394 0.950 . S
C399 C397 1.390 . S
C399 C400 1.387 . S
C399 H402 0.950 . S
C400 C399 1.387 . S
C400 C403 1.387 . S
H401 C397 0.950 . S
H402 C399 0.950 . S
C403 C394 1.390 1_545 S
C403 H396 0.950 . S
C403 C400 1.387 . S
C404 C405 1.387 . S
C404 H408 0.950 . S
C404 C413 1.390 . S
C405 C404 1.387 . S
C405 C407 1.387 . S
H406 C413 0.950 . S
C407 C405 1.387 . S
C407 C409 1.390 . S
C407 H411 0.950 . S
H408 C404 0.950 . S
C409 C407 1.390 . S
C409 C410 1.387 . S
C409 H412 0.950 . S
C410 C409 1.387 . S
C410 C413 1.387 . S
H411 C407 0.950 . S
H412 C409 0.950 . S
C413 C404 1.390 . S
C413 H406 0.950 . S
C413 C410 1.387 . S
C414 C415 1.387 . S
C414 H418 0.950 . S
C414 C423 1.390 . S
C415 C414 1.387 . S
C415 C417 1.387 . S
H416 C423 0.950 . S
C417 C415 1.387 . S
C417 C419 1.390 . S
C417 H421 0.950 . S
H418 C414 0.950 . S
C419 C417 1.390 . S
C419 C420 1.387 . S
C419 H422 0.950 . S
C420 C419 1.387 . S
C420 C423 1.387 . S
H421 C417 0.950 . S
H422 C419 0.950 . S
C423 C414 1.390 . S
C423 H416 0.950 . S
C423 C420 1.387 . S
C424 C425 1.387 . S
C424 H428 0.950 . S
C424 C433 1.390 . S
C425 C424 1.387 . S
C425 C427 1.387 1_556 S
H426 C433 0.950 . S
C427 C425 1.387 1_554 S
C427 C429 1.390 . S
C427 H431 0.950 . S
H428 C424 0.950 . S
C429 C427 1.390 . S
C429 C430 1.387 1_554 S
C429 H432 0.950 . S
C430 C429 1.387 1_556 S
C430 C433 1.387 . S
H431 C427 0.950 . S
H432 C429 0.950 . S
C433 C424 1.390 . S
C433 H426 0.950 . S
C433 C430 1.387 . S
C434 C435 1.387 . S
C434 H438 0.950 . S
C434 C443 1.390 . S
C435 C434 1.387 . S
C435 C437 1.387 1_556 S
H436 C443 0.950 . S
C437 C435 1.387 1_554 S
C437 C439 1.390 . S
C437 H441 0.950 . S
H438 C434 0.950 . S
C439 C437 1.390 . S
C439 C440 1.387 1_554 S
C439 H442 0.950 . S
C440 C439 1.387 1_556 S
C440 C443 1.387 . S
H441 C437 0.950 . S
H442 C439 0.950 . S
C443 C434 1.390 . S
C443 H436 0.950 . S
C443 C440 1.387 . S
C444 C445 1.387 1_554 S
C444 H448 0.950 . S
C444 C453 1.390 . S
C445 C444 1.387 1_556 S
C445 C447 1.387 . S
H446 C453 0.950 . S
C447 C445 1.387 . S
C447 C449 1.390 . S
C447 H451 0.950 . S
H448 C444 0.950 . S
C449 C447 1.390 . S
C449 C450 1.387 . S
C449 H452 0.950 . S
C450 C449 1.387 . S
C450 C453 1.387 1_556 S
H451 C447 0.950 . S
H452 C449 0.950 . S
C453 C444 1.390 . S
C453 H446 0.950 . S
C453 C450 1.387 1_554 S
C454 C455 1.387 1_554 S
C454 H458 0.950 . S
C454 C463 1.390 . S
C455 C454 1.387 1_556 S
C455 C457 1.387 . S
H456 C463 0.950 . S
C457 C455 1.387 . S
C457 C459 1.390 . S
C457 H461 0.950 . S
H458 C454 0.950 . S
C459 C457 1.390 . S
C459 C460 1.387 . S
C459 H462 0.950 . S
C460 C459 1.387 . S
C460 C463 1.387 1_556 S
H461 C457 0.950 . S
H462 C459 0.950 . S
C463 C454 1.390 . S
C463 H456 0.950 . S
C463 C460 1.387 1_554 S
C464 C465 1.387 . S
C464 H468 0.950 . S
C464 C473 1.390 . S
C465 C464 1.387 . S
C465 C467 1.387 . S
H466 C473 0.950 . S
C467 C465 1.387 . S
C467 C469 1.390 . S
C467 H471 0.950 . S
H468 C464 0.950 . S
C469 C467 1.390 . S
C469 C470 1.387 . S
C469 H472 0.950 . S
C470 C469 1.387 . S
C470 C473 1.387 . S
H471 C467 0.950 . S
H472 C469 0.950 . S
C473 C464 1.390 . S
C473 H466 0.950 . S
C473 C470 1.387 . S
C474 C475 1.387 . S
C474 H478 0.950 . S
C474 C483 1.390 . S
C475 C474 1.387 . S
C475 C477 1.387 . S
H476 C483 0.950 . S
C477 C475 1.387 . S
C477 C479 1.390 . S
C477 H481 0.950 . S
H478 C474 0.950 . S
C479 C477 1.390 . S
C479 C480 1.387 . S
C479 H482 0.950 . S
C480 C479 1.387 . S
C480 C483 1.387 . S
H481 C477 0.950 . S
H482 C479 0.950 . S
C483 C474 1.390 . S
C483 H476 0.950 . S
C483 C480 1.387 . S
C484 C485 1.387 . S
C484 H488 0.950 . S
C484 C493 1.390 . S
C485 C484 1.387 . S
C485 C487 1.387 . S
H486 C493 0.950 . S
C487 C485 1.387 . S
C487 C489 1.390 . S
C487 H491 0.950 . S
H488 C484 0.950 . S
C489 C487 1.390 . S
C489 C490 1.387 . S
C489 H492 0.950 . S
C490 C489 1.387 . S
C490 C493 1.387 . S
H491 C487 0.950 . S
H492 C489 0.950 . S
C493 C484 1.390 . S
C493 H486 0.950 . S
C493 C490 1.387 . S
C494 C495 1.387 . S
C494 H498 0.950 . S
C494 C503 1.390 . S
C495 C494 1.387 . S
C495 C497 1.387 . S
H496 C503 0.950 . S
C497 C495 1.387 . S
C497 C499 1.390 . S
C497 H501 0.950 . S
H498 C494 0.950 . S
C499 C497 1.390 . S
C499 C500 1.387 . S
C499 H502 0.950 . S
C500 C499 1.387 . S
C500 C503 1.387 . S
H501 C497 0.950 . S
H502 C499 0.950 . S
C503 C494 1.390 . S
C503 H496 0.950 . S
C503 C500 1.387 . S
C265 N80 1.997 1_545 S
C270 C113 2.171 1_545 S
C280 C153 2.190 . S
C275 N93 2.016 . S
C290 C193 2.204 . S
C285 N54 2.036 . S
C300 C233 2.185 1_455 S
C295 N67 2.015 1_455 S
C310 C122 2.172 1_564 S
C305 N28 2.000 1_545 S
C315 N41 2.017 . S
C320 C162 2.192 1_554 S
C325 N2 2.029 . S
C330 C202 2.203 1_554 S
C335 N15 2.016 . S
C340 C242 2.186 1_654 S
C350 C119 0.834 . S
C345 N70 0.852 . S
C360 C159 0.829 . S
C355 N83 0.846 . S
C370 C199 0.830 . S
C365 N96 0.848 . S
C375 N57 0.854 . S
C380 C239 0.830 . S
C385 N18 0.861 1_455 S
C390 C110 0.843 . S
C400 C150 0.833 . S
C395 N31 0.851 1_545 S
C410 C190 0.832 . S
C405 N44 0.852 . S
C415 N5 0.855 . S
C420 C230 0.835 . S
C425 N66 2.416 1_455 S
C430 C123 2.528 . S
C435 N79 2.371 1_545 S
C440 C163 2.482 . S
C450 C203 2.465 . S
C445 N92 2.361 . S
C460 C243 2.514 . S
C455 N53 2.402 . S
C465 N14 2.404 . S
C470 C114 2.535 . S
C480 C154 2.481 . S
C475 N27 2.357 . S
C490 C194 2.466 . S
C485 N40 2.339 . S
C495 N1 2.385 . S
C500 C234 2.518 . S
