# Generated by pormake.
# Topology anh, (6,3)-cn, num edge types: 1
# Building blocks:
#     Node 0, Type 0, BuildingBlock: VOLQOD_clean_sbu_1, # of connection points: 6
#     Node 1, Type 0, BuildingBlock: VOLQOD_clean_sbu_1, # of connection points: 6
#     Node 2, Type 0, BuildingBlock: VOLQOD_clean_sbu_1, # of connection points: 6
#     Node 3, Type 1, BuildingBlock: ESEHIV_clean_linker_0, # of connection points: 3
#     Node 4, Type 1, BuildingBlock: ESEHIV_clean_linker_0, # of connection points: 3
#     Node 5, Type 1, BuildingBlock: ESEHIV_clean_linker_0, # of connection points: 3
#     Node 6, Type 1, BuildingBlock: ESEHIV_clean_linker_0, # of connection points: 3
#     Node 7, Type 1, BuildingBlock: ESEHIV_clean_linker_0, # of connection points: 3
#     Node 8, Type 1, BuildingBlock: ESEHIV_clean_linker_0, # of connection points: 3
#     Edge 9, Type (0, 1), BuildingBlock: FUNLAD_clean_linker_1, # of connection points: 2
#     Edge 10, Type (0, 1), BuildingBlock: FUNLAD_clean_linker_1, # of connection points: 2
#     Edge 11, Type (0, 1), BuildingBlock: FUNLAD_clean_linker_1, # of connection points: 2
#     Edge 12, Type (0, 1), BuildingBlock: FUNLAD_clean_linker_1, # of connection points: 2
#     Edge 13, Type (0, 1), BuildingBlock: FUNLAD_clean_linker_1, # of connection points: 2
#     Edge 14, Type (0, 1), BuildingBlock: FUNLAD_clean_linker_1, # of connection points: 2
#     Edge 15, Type (0, 1), BuildingBlock: FUNLAD_clean_linker_1, # of connection points: 2
#     Edge 16, Type (0, 1), BuildingBlock: FUNLAD_clean_linker_1, # of connection points: 2
#     Edge 17, Type (0, 1), BuildingBlock: FUNLAD_clean_linker_1, # of connection points: 2
#     Edge 18, Type (0, 1), BuildingBlock: FUNLAD_clean_linker_1, # of connection points: 2
#     Edge 19, Type (0, 1), BuildingBlock: FUNLAD_clean_linker_1, # of connection points: 2
#     Edge 20, Type (0, 1), BuildingBlock: FUNLAD_clean_linker_1, # of connection points: 2
#     Edge 21, Type (0, 1), BuildingBlock: FUNLAD_clean_linker_1, # of connection points: 2
#     Edge 22, Type (0, 1), BuildingBlock: FUNLAD_clean_linker_1, # of connection points: 2
#     Edge 23, Type (0, 1), BuildingBlock: FUNLAD_clean_linker_1, # of connection points: 2
#     Edge 24, Type (0, 1), BuildingBlock: FUNLAD_clean_linker_1, # of connection points: 2
#     Edge 25, Type (0, 1), BuildingBlock: FUNLAD_clean_linker_1, # of connection points: 2
#     Edge 26, Type (0, 1), BuildingBlock: FUNLAD_clean_linker_1, # of connection points: 2
# Relax obj value: 0.167
# Max RMSD: 0.230
# Mean RMSD: 0.114
data_MOF--net-anh--node1-VOLQOD_clean_sbu_1--node2-ESEHIV_clean_linker_0--edge1-FUNLAD_clean_linker_1
_symmetry_space_group_name_H-M    P1
_symmetry_Int_Tables_number       1
_symmetry_cell_setting            triclinic
loop_
_symmetry_equiv_pos_as_xyz
'x, y, z'
_cell_length_a     28.213235
_cell_length_b     27.92151
_cell_length_c     60.576305
_cell_angle_alpha  90.11605
_cell_angle_beta   89.838543
_cell_angle_gamma 120.02892
loop_
_atom_site_label
_atom_site_type_symbol
_atom_site_fract_x
_atom_site_fract_y
_atom_site_fract_z
_atom_type_partial_charge
O0 O 0.0064 0.54625 0.21171 0.0
Zn1 Zn 0.01437 0.57066 0.18015 0.0
O2 O 0.02491 0.52065 0.16075 0.0
Zn3 Zn 0.96597 0.48844 0.13931 0.0
Zn4 Zn 0.02438 0.46179 0.17846 0.0
Zn5 Zn 0.09409 0.5611 0.14497 0.0
O6 O -0.00619 0.49916 0.10793 0.0
O7 O 0.08273 0.55873 0.11195 0.0
O8 O 0.94732 0.57479 0.17223 0.0
O9 O 0.91876 0.52242 0.14214 0.0
O10 O 0.91466 0.40834 0.14602 0.0
O11 O 0.95659 0.38898 0.17262 0.0
O12 O 0.09053 0.45462 0.1727 0.0
O13 O 0.08018 0.64673 0.17928 0.0
O14 O 0.1402 0.5262 0.15062 0.0
O15 O 0.13672 0.6402 0.15539 0.0
C16 C 0.01284 0.50972 0.22151 0.0
C17 C 0.04117 0.53045 0.09974 0.0
C18 C 0.91626 0.37467 0.1597 0.0
C19 C 0.91414 0.55371 0.15622 0.0
C20 C 0.13369 0.48438 0.16154 0.0
C21 C 0.12565 0.66802 0.16905 0.0
O22 O 0.02261 0.47617 0.21093 0.0
O23 O 0.48501 0.03664 0.44583 0.0
Zn24 Zn 0.45654 0.02606 0.47702 0.0
O25 O 0.50686 0.01914 0.49693 0.0
Zn26 Zn 0.54338 0.08373 0.51569 0.0
Zn27 Zn 0.56133 0.01035 0.48024 0.0
Zn28 Zn 0.46521 0.95609 0.51577 0.0
O29 O 0.53856 0.06251 0.54783 0.0
O30 O 0.46599 0.97776 0.54747 0.0
O31 O 0.44415 0.08824 0.48644 0.0
O32 O 0.50556 0.12771 0.51322 0.0
O33 O 0.62199 0.13211 0.50676 0.0
O34 O 0.63602 0.07665 0.48466 0.0
O35 O 0.56489 0.94272 0.4899 0.0
O36 O 0.38305 0.95623 0.47692 0.0
O37 O 0.49924 0.90898 0.51532 0.0
O38 O 0.38883 0.90796 0.50483 0.0
C39 C 0.518 0.0242 0.43648 0.0
C40 C 0.50165 0.02017 0.55791 0.0
C41 C 0.65335 0.12235 0.49478 0.0
C42 C 0.46722 0.12504 0.5013 0.0
C43 C 0.53693 0.90692 0.50456 0.0
C44 C 0.36235 0.91318 0.48896 0.0
O45 O 0.54638 0.00868 0.4475 0.0
O46 O 0.4421 0.46733 0.78421 0.0
Zn47 Zn 0.43525 0.44772 0.81663 0.0
O48 O 0.50215 0.5012 0.83209 0.0
Zn49 Zn 0.48476 0.53522 0.85632 0.0
Zn50 Zn 0.5523 0.55927 0.81212 0.0
Zn51 Zn 0.53816 0.46365 0.84399 0.0
O52 O 0.51209 0.52445 0.88537 0.0
O53 O 0.53484 0.46096 0.87709 0.0
O54 O 0.36775 0.44574 0.82982 0.0
O55 O 0.40377 0.49965 0.85929 0.0
O56 O 0.51021 0.61552 0.85044 0.0
O57 O 0.5488 0.6288 0.81731 0.0
O58 O 0.63073 0.57574 0.81572 0.0
O59 O 0.42613 0.37064 0.81759 0.0
O60 O 0.61744 0.50427 0.83627 0.0
O61 O 0.50478 0.38651 0.83241 0.0
C62 C 0.48263 0.50109 0.7724 0.0
C63 C 0.52713 0.49025 0.89115 0.0
C64 C 0.53214 0.64564 0.83353 0.0
C65 C 0.36272 0.46757 0.84755 0.0
C66 C 0.64906 0.54816 0.82563 0.0
C67 C 0.45916 0.35422 0.82328 0.0
O68 O 0.52832 0.53612 0.78086 0.0
H69 H 0.41775 0.98661 0.26105 0.0
H70 H 0.57728 0.1311 0.26575 0.0
H71 H 0.51234 0.06034 0.20223 0.0
C72 C 0.45482 0.01754 0.25303 0.0
C73 C 0.46046 0.01764 0.22991 0.0
C74 C 0.49724 0.05731 0.26615 0.0
C75 C 0.54479 0.0991 0.25592 0.0
C76 C 0.55083 0.09993 0.23293 0.0
C77 C 0.50839 0.05934 0.22005 0.0
H78 H 0.44211 0.56727 0.60191 0.0
H79 H 0.41262 0.40043 0.60099 0.0
H80 H 0.45898 0.49692 0.54126 0.0
C81 C 0.43955 0.53241 0.59291 0.0
C82 C 0.45187 0.5374 0.57032 0.0
C83 C 0.42542 0.4831 0.60403 0.0
C84 C 0.42261 0.4383 0.59233 0.0
C85 C 0.43431 0.44304 0.56961 0.0
C86 C 0.44894 0.49271 0.55871 0.0
H87 H 0.94231 0.54489 0.92634 0.0
H88 H 0.05845 0.48805 0.92478 0.0
H89 H -0.00101 0.51758 0.86416 0.0
C90 C 0.96836 0.53372 0.91709 0.0
C91 C 0.96748 0.53445 0.89395 0.0
C92 C 0.00217 0.51866 0.92846 0.0
C93 C 0.03483 0.503 0.91626 0.0
C94 C 0.03456 0.50361 0.89299 0.0
C95 C 0.00054 0.51905 0.88202 0.0
H96 H 0.95123 0.42158 0.39335 0.0
H97 H 0.11543 0.56046 0.3946 0.0
H98 H 0.02092 0.50531 0.45453 0.0
C99 C 0.9852 0.45443 0.40231 0.0
C100 C 0.98097 0.4586 0.4252 0.0
C101 C 0.0338 0.49086 0.39118 0.0
C102 C 0.078 0.53176 0.40316 0.0
C103 C 0.07296 0.53829 0.42583 0.0
C104 C 0.02465 0.50106 0.43691 0.0
H105 H 0.40217 0.02269 0.73142 0.0
H106 H 0.45477 0.90292 0.72736 0.0
H107 H 0.42377 0.95233 0.79084 0.0
C108 C 0.41364 0.99542 0.73956 0.0
C109 C 0.41275 0.99212 0.7627 0.0
C110 C 0.42961 0.96418 0.72676 0.0
C111 C 0.44353 0.92813 0.73724 0.0
C112 C 0.44188 0.92324 0.76036 0.0
C113 C 0.42575 0.95517 0.77303 0.0
H114 H 0.4221 0.46434 0.06438 0.0
H115 H 0.58862 0.49897 0.06418 0.0
H116 H 0.50883 0.4912 0.12548 0.0
C117 C 0.45856 0.47196 0.07327 0.0
C118 C 0.4592 0.47475 0.09638 0.0
C119 C 0.50453 0.47972 0.06143 0.0
C120 C 0.55194 0.49076 0.07303 0.0
C121 C 0.55351 0.49363 0.09616 0.0
C122 C 0.50701 0.48591 0.1078 0.0
H123 H 0.16978 0.43245 0.16998 0.0
C124 C 0.17646 0.46892 0.16093 0.0
H125 H 0.23018 0.53505 0.14033 0.0
H126 H 0.44738 0.53627 0.15841 0.0
H127 H 0.46173 0.61415 0.18117 0.0
H128 H 0.3857 0.63135 0.18909 0.0
H129 H 0.29489 0.57104 0.17416 0.0
C130 C 0.22214 0.49756 0.14891 0.0
C131 C 0.26447 0.48111 0.14744 0.0
C132 C 0.31676 0.51597 0.15676 0.0
C133 C 0.3604 0.50577 0.1524 0.0
C134 C 0.41276 0.54214 0.16129 0.0
C135 C 0.42151 0.5869 0.1744 0.0
C136 C 0.37869 0.59661 0.17885 0.0
C137 C 0.32685 0.56177 0.17014 0.0
H138 H 0.382 0.47623 0.0976 0.0
C139 C 0.41044 0.47008 0.10766 0.0
H140 H 0.42546 0.45222 0.14017 0.0
H141 H 0.16824 0.40416 0.12767 0.0
H142 H 0.15299 0.32277 0.10746 0.0
H143 H 0.22774 0.3022 0.10213 0.0
H144 H 0.31869 0.36391 0.11675 0.0
C145 C 0.3991 0.45915 0.12925 0.0
C146 C 0.35144 0.46087 0.13873 0.0
C147 C 0.29793 0.42282 0.13132 0.0
C148 C 0.25448 0.43355 0.13521 0.0
C149 C 0.20243 0.39716 0.12601 0.0
C150 C 0.19314 0.35033 0.11422 0.0
C151 C 0.23525 0.33883 0.11116 0.0
C152 C 0.2872 0.37462 0.11952 0.0
H153 H 0.73881 0.15427 0.48453 0.0
C154 C 0.7099 0.16627 0.49057 0.0
H155 H 0.69488 0.23229 0.49594 0.0
H156 H 0.93797 0.4287 0.49422 0.0
H157 H 0.91112 0.43366 0.53183 0.0
H158 H 0.82346 0.36011 0.54696 0.0
H159 H 0.76172 0.2815 0.52445 0.0
C160 C 0.72371 0.2198 0.4903 0.0
C161 C 0.7773 0.26313 0.48131 0.0
C162 C 0.81345 0.30809 0.49486 0.0
C163 C 0.86455 0.34987 0.4863 0.0
C164 C 0.89905 0.39532 0.49996 0.0
C165 C 0.88412 0.39874 0.52159 0.0
C166 C 0.83474 0.35736 0.53011 0.0
C167 C 0.79965 0.31248 0.51699 0.0
H168 H 0.89162 0.40481 0.42814 0.0
C169 C 0.93035 0.41793 0.43645 0.0
H170 H 0.96986 0.40342 0.46301 0.0
H171 H 0.71334 0.18977 0.44888 0.0
H172 H 0.74353 0.17999 0.4126 0.0
H173 H 0.83847 0.24255 0.40032 0.0
H174 H 0.90264 0.31682 0.42395 0.0
C175 C 0.93128 0.39169 0.45486 0.0
C176 C 0.87989 0.34579 0.46437 0.0
C177 C 0.845 0.29912 0.45124 0.0
C178 C 0.7923 0.25972 0.45919 0.0
C179 C 0.75547 0.21813 0.44451 0.0
C180 C 0.77205 0.21243 0.42346 0.0
C181 C 0.82532 0.24785 0.41649 0.0
C182 C 0.86155 0.29073 0.43015 0.0
H183 H 0.5165 0.71095 0.84583 0.0
C184 C 0.53058 0.69753 0.83164 0.0
H185 H 0.54721 0.70743 0.79744 0.0
H186 H 0.37351 0.7852 0.78425 0.0
H187 H 0.31689 0.6875 0.77593 0.0
H188 H 0.3512 0.62289 0.78221 0.0
H189 H 0.44175 0.65537 0.79725 0.0
C190 C 0.53662 0.72259 0.8121 0.0
C191 C 0.51641 0.76202 0.80878 0.0
C192 C 0.4638 0.74251 0.7995 0.0
C193 C 0.4447 0.77999 0.79523 0.0
C194 C 0.39094 0.75891 0.78697 0.0
C195 C 0.3578 0.70283 0.7823 0.0
C196 C 0.37704 0.66643 0.78589 0.0
C197 C 0.42923 0.68571 0.79448 0.0
H198 H 0.46404 0.85786 0.75873 0.0
C199 C 0.45686 0.88372 0.77016 0.0
H200 H 0.45896 0.90396 0.80411 0.0
H201 H 0.61744 0.81173 0.828 0.0
H202 H 0.67376 0.90934 0.83686 0.0
H203 H 0.64178 0.97501 0.8286 0.0
H204 H 0.55332 0.94361 0.81152 0.0
C205 C 0.46285 0.87783 0.79186 0.0
C206 C 0.47917 0.83733 0.79942 0.0
C207 C 0.53076 0.8564 0.80965 0.0
C208 C 0.54936 0.8186 0.81436 0.0
C209 C 0.60138 0.83875 0.82418 0.0
C210 C 0.6341 0.89462 0.8293 0.0
C211 C 0.61609 0.9316 0.82465 0.0
C212 C 0.56517 0.91301 0.81486 0.0
H213 H 0.85928 0.58317 0.16855 0.0
C214 C 0.86576 0.5606 0.15535 0.0
H215 H 0.83235 0.50995 0.12724 0.0
H216 H 0.58564 0.40583 0.14491 0.0
H217 H 0.59965 0.32952 0.15478 0.0
H218 H 0.69287 0.34414 0.15932 0.0
H219 H 0.77261 0.43492 0.15375 0.0
C220 C 0.82716 0.5346 0.1399 0.0
C221 C 0.77242 0.52936 0.14154 0.0
C222 C 0.72636 0.47638 0.14556 0.0
C223 C 0.67273 0.46811 0.1433 0.0
C224 C 0.62734 0.41439 0.14655 0.0
C225 C 0.6348 0.37027 0.15225 0.0
C226 C 0.68728 0.37847 0.15478 0.0
C227 C 0.73268 0.43077 0.15147 0.0
H228 H 0.64163 0.5216 0.09664 0.0
C229 C 0.60571 0.50748 0.10717 0.0
H230 H 0.57695 0.48464 0.14011 0.0
H231 H 0.85216 0.63731 0.13434 0.0
H232 H 0.83765 0.71452 0.12733 0.0
H233 H 0.74423 0.70074 0.12564 0.0
H234 H 0.66467 0.60917 0.13062 0.0
C235 C 0.61151 0.50171 0.12885 0.0
C236 C 0.66558 0.51292 0.1371 0.0
C237 C 0.7115 0.56697 0.13545 0.0
C238 C 0.76521 0.57515 0.13722 0.0
C239 C 0.8104 0.62892 0.13384 0.0
C240 C 0.80264 0.67361 0.12971 0.0
C241 C 0.75005 0.66584 0.1287 0.0
C242 C 0.70482 0.61318 0.13147 0.0
H243 H 0.28242 0.87392 0.47209 0.0
C244 C 0.30882 0.86621 0.48275 0.0
H245 H 0.32269 0.80589 0.49755 0.0
H246 H 0.08793 0.59929 0.492 0.0
H247 H 0.10006 0.61273 0.53157 0.0
H248 H 0.17868 0.69671 0.54697 0.0
H249 H 0.24601 0.76746 0.52288 0.0
C250 C 0.29611 0.81396 0.48715 0.0
C251 C 0.24692 0.76545 0.47766 0.0
C252 C 0.20721 0.72518 0.49199 0.0
C253 C 0.16126 0.67733 0.48312 0.0
C254 C 0.12319 0.63685 0.49782 0.0
C255 C 0.12967 0.64399 0.52059 0.0
C256 C 0.17397 0.69124 0.52926 0.0
C257 C 0.2124 0.73149 0.51522 0.0
H258 H 0.15977 0.59794 0.43273 0.0
C259 C 0.11795 0.58579 0.43733 0.0
H260 H 0.06696 0.60787 0.45495 0.0
H261 H 0.32017 0.82868 0.44509 0.0
H262 H 0.3039 0.81946 0.40574 0.0
H263 H 0.21684 0.74481 0.39069 0.0
H264 H 0.14679 0.6777 0.41498 0.0
C265 C 0.1086 0.6186 0.45074 0.0
C266 C 0.15454 0.67051 0.45994 0.0
C267 C 0.19262 0.71237 0.44561 0.0
C268 C 0.2404 0.75829 0.45441 0.0
C269 C 0.28109 0.79546 0.43954 0.0
C270 C 0.27259 0.79027 0.41681 0.0
C271 C 0.22379 0.74807 0.40833 0.0
C272 C 0.18414 0.70947 0.42247 0.0
H273 H 0.4823 0.29114 0.81762 0.0
C274 C 0.44764 0.29807 0.81771 0.0
H275 H 0.36301 0.26305 0.81207 0.0
H276 H 0.35833 0.09188 0.74203 0.0
H277 H 0.31571 0.13611 0.72241 0.0
H278 H 0.30737 0.21164 0.73967 0.0
H279 H 0.3417 0.24357 0.7765 0.0
C280 C 0.39782 0.25646 0.81213 0.0
C281 C 0.3914 0.20323 0.80367 0.0
C282 C 0.37117 0.1853 0.78203 0.0
C283 C 0.37677 0.14233 0.77195 0.0
C284 C 0.35612 0.12507 0.75033 0.0
C285 C 0.33136 0.14994 0.7389 0.0
C286 C 0.3267 0.19248 0.74861 0.0
C287 C 0.34657 0.21036 0.76984 0.0
H288 H 0.37457 0.01064 0.79113 0.0
C289 C 0.39873 0.02765 0.77621 0.0
H290 H 0.44292 0.09821 0.75624 0.0
H291 H 0.41644 0.21437 0.84758 0.0
H292 H 0.45907 0.17036 0.86755 0.0
H293 H 0.48019 0.10476 0.84874 0.0
H294 H 0.45717 0.08127 0.81031 0.0
C295 C 0.41788 0.08103 0.77094 0.0
C296 C 0.4034 0.11805 0.78335 0.0
C297 C 0.42003 0.13322 0.80558 0.0
C298 C 0.41168 0.17412 0.816 0.0
C299 C 0.42485 0.18584 0.83863 0.0
C300 C 0.44888 0.1606 0.85029 0.0
C301 C 0.46051 0.12347 0.83973 0.0
C302 C 0.44656 0.10994 0.81763 0.0
H303 H 0.58793 0.86689 0.50461 0.0
C304 C 0.54957 0.86319 0.51015 0.0
H305 H 0.47721 0.81777 0.52877 0.0
H306 H 0.5401 0.62184 0.52409 0.0
H307 H 0.53968 0.62777 0.48405 0.0
H308 H 0.53193 0.70258 0.46588 0.0
H309 H 0.52617 0.77262 0.48753 0.0
C310 C 0.51506 0.82062 0.52297 0.0
C311 C 0.52886 0.78064 0.53279 0.0
C312 C 0.53055 0.73943 0.5197 0.0
C313 C 0.53196 0.69465 0.53014 0.0
C314 C 0.53633 0.65522 0.51689 0.0
C315 C 0.53656 0.65841 0.49394 0.0
C316 C 0.53239 0.70064 0.48372 0.0
C317 C 0.52927 0.74073 0.49636 0.0
H318 H 0.44309 0.58898 0.54509 0.0
C319 C 0.46834 0.58948 0.55872 0.0
H320 H 0.53949 0.63601 0.57765 0.0
H321 H 0.53882 0.85967 0.56219 0.0
H322 H 0.54193 0.85493 0.60212 0.0
H323 H 0.53693 0.77357 0.62035 0.0
H324 H 0.53069 0.69747 0.59878 0.0
C325 C 0.51419 0.63628 0.56421 0.0
C326 C 0.52802 0.68953 0.55348 0.0
C327 C 0.53169 0.73344 0.56651 0.0
C328 C 0.53278 0.77944 0.55608 0.0
C329 C 0.53664 0.82312 0.56934 0.0
C330 C 0.53858 0.82099 0.59226 0.0
C331 C 0.53598 0.77529 0.60251 0.0
C332 C 0.5324 0.73182 0.58989 0.0
H333 H 0.73626 0.60741 0.8177 0.0
C334 C 0.70852 0.56841 0.82571 0.0
H335 H 0.70084 0.50052 0.84401 0.0
H336 H 0.91858 0.5077 0.82716 0.0
H337 H 0.86643 0.44572 0.79727 0.0
H338 H 0.77821 0.43591 0.78566 0.0
H339 H 0.74154 0.48808 0.80398 0.0
C340 C 0.72847 0.54018 0.83643 0.0
C341 C 0.78771 0.55948 0.83849 0.0
C342 C 0.80944 0.53029 0.82719 0.0
C343 C 0.86049 0.5364 0.83374 0.0
C344 C 0.88016 0.50494 0.82276 0.0
C345 C 0.85064 0.46922 0.80557 0.0
C346 C 0.80094 0.46365 0.79904 0.0
C347 C 0.78028 0.4936 0.80972 0.0
H348 H 0.89207 0.53952 0.89219 0.0
C349 C 0.9283 0.54727 0.88289 0.0
H350 H 0.97046 0.57623 0.85247 0.0
H351 H 0.76122 0.62756 0.86152 0.0
H352 H 0.81706 0.69533 0.88917 0.0
H353 H 0.90779 0.70912 0.8992 0.0
H354 H 0.94274 0.65429 0.88182 0.0
C355 C 0.93457 0.56713 0.8622 0.0
C356 C 0.88948 0.57173 0.85161 0.0
C357 C 0.87104 0.60611 0.86098 0.0
C358 C 0.81957 0.59937 0.85467 0.0
C359 C 0.80045 0.63163 0.86537 0.0
C360 C 0.83212 0.67071 0.88128 0.0
C361 C 0.88317 0.67841 0.88696 0.0
C362 C 0.9026 0.64654 0.87699 0.0
H363 H 0.15875 0.74382 0.18892 0.0
C364 C 0.16818 0.72415 0.17543 0.0
H365 H 0.22989 0.72842 0.15437 0.0
H366 H 0.32104 0.96989 0.2094 0.0
H367 H 0.25452 0.98129 0.18828 0.0
H368 H 0.19336 0.9097 0.16184 0.0
H369 H 0.19776 0.82568 0.15674 0.0
C370 C 0.21935 0.74844 0.16733 0.0
C371 C 0.26414 0.79695 0.17891 0.0
C372 C 0.2631 0.84705 0.18079 0.0
C373 C 0.30015 0.88942 0.19523 0.0
C374 C 0.29551 0.93731 0.19799 0.0
C375 C 0.25722 0.94424 0.18606 0.0
C376 C 0.22265 0.90386 0.17124 0.0
C377 C 0.22534 0.85572 0.16858 0.0
H378 H 0.42025 0.98366 0.19778 0.0
C379 C 0.41761 0.97514 0.2154 0.0
H380 H 0.37612 0.91338 0.23967 0.0
H381 H 0.27985 0.70744 0.17786 0.0
H382 H 0.3502 0.69863 0.19702 0.0
H383 H 0.41767 0.77423 0.2205 0.0
H384 H 0.41459 0.85888 0.22516 0.0
C385 C 0.37794 0.92561 0.22258 0.0
C386 C 0.33998 0.88263 0.20687 0.0
C387 C 0.34322 0.83398 0.20389 0.0
C388 C 0.30508 0.79093 0.18998 0.0
C389 C 0.30816 0.74195 0.18793 0.0
C390 C 0.34841 0.73625 0.19887 0.0
C391 C 0.38632 0.77877 0.21211 0.0
C392 C 0.38396 0.82711 0.21467 0.0
H393 H 0.40722 0.15371 0.49876 0.0
C394 C 0.44577 0.16235 0.50617 0.0
H395 H 0.50846 0.21132 0.5287 0.0
H396 H 0.383 0.35797 0.51836 0.0
H397 H 0.40269 0.36382 0.47905 0.0
H398 H 0.44445 0.31254 0.46273 0.0
H399 H 0.46514 0.25397 0.48541 0.0
C400 C 0.47071 0.20368 0.52083 0.0
C401 C 0.44419 0.23395 0.52981 0.0
C402 C 0.43477 0.26977 0.51632 0.0
C403 C 0.41399 0.30203 0.52593 0.0
C404 C 0.4015 0.33487 0.512 0.0
C405 C 0.41217 0.33822 0.48943 0.0
C406 C 0.43545 0.30916 0.48023 0.0
C407 C 0.44683 0.27536 0.49344 0.0
H408 H 0.46969 0.41038 0.54565 0.0
C409 C 0.4363 0.3985 0.55734 0.0
H410 H 0.36485 0.3327 0.57132 0.0
H411 H 0.44826 0.16198 0.55946 0.0
H412 H 0.42819 0.15626 0.59859 0.0
H413 H 0.39972 0.21808 0.6158 0.0
H414 H 0.38961 0.28478 0.59385 0.0
C415 C 0.39886 0.34486 0.55997 0.0
C416 C 0.40674 0.3015 0.54914 0.0
C417 C 0.41284 0.26316 0.56238 0.0
C418 C 0.43095 0.22882 0.55262 0.0
C419 C 0.43593 0.19011 0.5661 0.0
C420 C 0.42443 0.18628 0.5886 0.0
C421 C 0.40822 0.22094 0.59826 0.0
C422 C 0.40256 0.2591 0.58542 0.0
H423 H 0.30685 0.47156 0.87161 0.0
C424 C 0.30917 0.45862 0.85487 0.0
H425 H 0.26808 0.4326 0.82426 0.0
H426 H 0.08901 0.39789 0.90525 0.0
H427 H 0.09557 0.3171 0.91508 0.0
H428 H 0.15761 0.29421 0.89476 0.0
H429 H 0.21356 0.35213 0.86444 0.0
C430 C 0.26592 0.44214 0.8415 0.0
C431 C 0.21846 0.44668 0.8496 0.0
C432 C 0.18522 0.41191 0.86689 0.0
C433 C 0.1493 0.42498 0.87848 0.0
C434 C 0.11723 0.39001 0.89595 0.0
C435 C 0.12048 0.34345 0.90172 0.0
C436 C 0.15544 0.33058 0.89029 0.0
C437 C 0.18752 0.36425 0.87304 0.0
H438 H 0.05447 0.47252 0.86268 0.0
C439 C 0.06751 0.48622 0.87954 0.0
H440 H 0.12931 0.50411 0.90322 0.0
H441 H 0.27021 0.5165 0.81499 0.0
H442 H 0.26215 0.59596 0.80441 0.0
H443 H 0.20233 0.62078 0.82523 0.0
H444 H 0.14954 0.56602 0.85651 0.0
C445 C 0.11416 0.48969 0.88668 0.0
C446 C 0.14634 0.47251 0.87261 0.0
C447 C 0.17686 0.50521 0.85431 0.0
C448 C 0.21237 0.49167 0.84258 0.0
C449 C 0.24295 0.52522 0.82455 0.0
C450 C 0.23876 0.57095 0.81831 0.0
C451 C 0.20492 0.58482 0.83 0.0
C452 C 0.17451 0.55272 0.84787 0.0
H453 H 0.87102 0.28722 0.16993 0.0
C454 C 0.86662 0.32131 0.16375 0.0
H455 H 0.81363 0.35356 0.1596 0.0
H456 H 0.58657 0.13607 0.16664 0.0
H457 H 0.58457 0.16445 0.12904 0.0
H458 H 0.66718 0.24087 0.11187 0.0
H459 H 0.75217 0.28973 0.13229 0.0
C460 C 0.8178 0.31869 0.16497 0.0
C461 C 0.76905 0.27095 0.17515 0.0
C462 C 0.72019 0.24174 0.16275 0.0
C463 C 0.67289 0.19698 0.17251 0.0
C464 C 0.62404 0.16979 0.15998 0.0
C465 C 0.62225 0.18572 0.13836 0.0
C466 C 0.66874 0.22877 0.1287 0.0
C467 C 0.71727 0.25651 0.14064 0.0
H468 H 0.62187 0.18462 0.23054 0.0
C469 C 0.60151 0.14419 0.22265 0.0
H470 H 0.60554 0.09492 0.19697 0.0
H471 H 0.85125 0.32619 0.20571 0.0
H472 H 0.8548 0.29529 0.24257 0.0
H473 H 0.77791 0.20893 0.25738 0.0
H474 H 0.69616 0.15442 0.23558 0.0
C475 C 0.62456 0.13532 0.2048 0.0
C476 C 0.67491 0.18081 0.19451 0.0
C477 C 0.72424 0.20916 0.20675 0.0
C478 C 0.77041 0.25606 0.19749 0.0
C479 C 0.81659 0.2877 0.21113 0.0
C480 C 0.81893 0.27083 0.23251 0.0
C481 C 0.77553 0.22245 0.24089 0.0
C482 C 0.72863 0.19181 0.22825 0.0
H483 H 0.08954 0.56286 0.06912 0.0
C484 C 0.04885 0.53472 0.07554 0.0
H485 H 0.9672 0.4756 0.06744 0.0
H486 H 0.05843 0.61764 0.97395 0.0
H487 H 0.0609 0.69375 0.9943 0.0
H488 H 0.04157 0.68594 0.03428 0.0
H489 H 0.02049 0.60234 0.0542 0.0
C490 C 0.00771 0.50537 0.06137 0.0
C491 C 0.01698 0.50966 0.03706 0.0
C492 C 0.02762 0.55829 0.02556 0.0
C493 C 0.03665 0.562 0.00235 0.0
C494 C 0.04943 0.61188 0.99143 0.0
C495 C 0.05129 0.65603 0.00294 0.0
C496 C 0.04057 0.65169 0.02546 0.0
C497 C 0.02881 0.60352 0.03672 0.0
H498 H 0.96531 0.51751 0.9609 0.0
C499 C 5e-05 0.51753 0.95303 0.0
H500 H 0.07491 0.51918 0.95922 0.0
H501 H -0.00166 0.41096 0.05407 0.0
H502 H -0.00603 0.33414 0.03354 0.0
H503 H 0.00723 0.33969 0.99316 0.0
H504 H 0.02514 0.42218 0.97305 0.0
C505 C 0.03904 0.5185 0.96608 0.0
C506 C 0.03308 0.51635 0.99056 0.0
C507 C 0.0227 0.46789 0.00206 0.0
C508 C 0.01455 0.4645 0.02532 0.0
C509 C 0.00438 0.41559 0.03639 0.0
C510 C 0.00184 0.37121 0.02481 0.0
C511 C 0.00934 0.37435 0.00208 0.0
C512 C 0.01962 0.42197 0.99074 0.0
H513 H 0.55123 0.01546 0.40464 0.0
C514 C 0.52414 0.02795 0.41225 0.0
H515 H 0.47235 0.06128 0.40682 0.0
H516 H 0.58173 0.17134 0.3156 0.0
H517 H 0.61779 0.25226 0.33924 0.0
H518 H 0.60377 0.24255 0.37956 0.0
H519 H 0.5533 0.15185 0.39649 0.0
C520 C 0.49798 0.04665 0.39948 0.0
C521 C 0.50653 0.05199 0.37518 0.0
C522 C 0.53628 0.10528 0.36557 0.0
C523 C 0.54495 0.11086 0.34235 0.0
C524 C 0.5744 0.16465 0.33317 0.0
C525 C 0.59527 0.21148 0.34654 0.0
C526 C 0.58733 0.20602 0.36924 0.0
C527 C 0.55822 0.15369 0.37874 0.0
H528 H 0.44911 0.03419 0.29716 0.0
C529 C 0.49049 0.05386 0.2905 0.0
H530 H 0.57437 0.0881 0.29842 0.0
H531 H 0.44342 0.94389 0.38807 0.0
H532 H 0.41064 0.86284 0.36472 0.0
H533 H 0.43146 0.87227 0.32485 0.0
H534 H 0.48417 0.96275 0.30805 0.0
C535 C 0.53263 0.06952 0.3045 0.0
C536 C 0.52391 0.06311 0.32881 0.0
C537 C 0.495 0.00969 0.33849 0.0
C538 C 0.48521 0.00418 0.36164 0.0
C539 C 0.45374 0.95047 0.37071 0.0
C540 C 0.43443 0.90356 0.35748 0.0
C541 C 0.44597 0.90888 0.33502 0.0
C542 C 0.47596 0.96116 0.32556 0.0
H543 H 0.51479 0.52569 0.73871 0.0
C544 C 0.47788 0.49964 0.74819 0.0
H545 H 0.39349 0.44058 0.74668 0.0
H546 H 0.48442 0.57012 0.6487 0.0
H547 H 0.50173 0.65332 0.66793 0.0
H548 H 0.48198 0.65121 0.70773 0.0
H549 H 0.4468 0.56604 0.72862 0.0
C550 C 0.43053 0.46785 0.73753 0.0
C551 C 0.42892 0.46614 0.71296 0.0
C552 C 0.44485 0.51513 0.70068 0.0
C553 C 0.4517 0.51526 0.67743 0.0
C554 C 0.47426 0.5664 0.66605 0.0
C555 C 0.48513 0.6148 0.67696 0.0
C556 C 0.47434 0.6137 0.69938 0.0
C557 C 0.45456 0.56461 0.7112 0.0
H558 H 0.39141 0.49677 0.63474 0.0
C559 C 0.416 0.4801 0.62806 0.0
H560 H 0.46821 0.44849 0.63511 0.0
H561 H 0.39605 0.36465 0.73147 0.0
H562 H 0.37231 0.27978 0.7119 0.0
H563 H 0.37557 0.27791 0.67126 0.0
H564 H 0.40394 0.36123 0.64991 0.0
C565 C 0.4425 0.46383 0.64179 0.0
C566 C 0.43717 0.46499 0.66622 0.0
C567 C 0.41849 0.41539 0.67842 0.0
C568 C 0.41505 0.4161 0.70183 0.0
C569 C 0.39854 0.36641 0.71364 0.0
C570 C 0.38473 0.3173 0.70263 0.0
C571 C 0.38671 0.31628 0.67974 0.0
C572 C 0.40327 0.36455 0.66769 0.0
H573 H 0.53794 0.05129 0.59071 0.0
C574 C 0.50172 0.01987 0.58223 0.0
H575 H 0.42276 0.95021 0.58556 0.0
H576 H 0.45005 0.87045 0.67859 0.0
H577 H 0.4346 0.79365 0.65509 0.0
H578 H 0.43206 0.80073 0.6146 0.0
H579 H 0.4451 0.88462 0.59734 0.0
C580 C 0.45883 0.98201 0.59399 0.0
C581 C 0.461 0.97867 0.61847 0.0
C582 C 0.4547 0.92966 0.62826 0.0
C583 C 0.45715 0.92589 0.6516 0.0
C584 C 0.44937 0.87595 0.66095 0.0
C585 C 0.44036 0.83142 0.64766 0.0
C586 C 0.43889 0.8354 0.62486 0.0
C587 C 0.44621 0.88385 0.61518 0.0
H588 H 0.40093 0.97872 0.69489 0.0
C589 C 0.43025 0.96925 0.70241 0.0
H590 H 0.49801 0.958 0.69667 0.0
H591 H 0.46573 0.07539 0.60563 0.0
H592 H 0.48698 0.15422 0.62896 0.0
H593 H 0.50233 0.15163 0.66887 0.0
H594 H 0.4953 0.06975 0.68577 0.0
C595 C 0.46754 0.96623 0.68953 0.0
C596 C 0.46678 0.97141 0.6651 0.0
C597 C 0.47461 0.021 0.65529 0.0
C598 C 0.46954 0.02386 0.63204 0.0
C599 C 0.47256 0.07207 0.62296 0.0
C600 C 0.48412 0.11747 0.63621 0.0
C601 C 0.49254 0.11594 0.6587 0.0
C602 C 0.4879 0.06843 0.66821 0.0
H603 H 0.54484 0.45144 0.91918 0.0
C604 C 0.53391 0.48236 0.91468 0.0
H605 H 0.51507 0.5423 0.92652 0.0
H606 H 0.45032 0.38106 0.01373 0.0
H607 H 0.37156 0.31677 0.99208 0.0
H608 H 0.36331 0.33588 0.95295 0.0
H609 H 0.43399 0.41894 0.93519 0.0
C610 C 0.52493 0.51039 0.93057 0.0
C611 C 0.52907 0.49923 0.95416 0.0
C612 C 0.48665 0.45101 0.96433 0.0
C613 C 0.4905 0.44088 0.98703 0.0
C614 C 0.44857 0.39157 0.99668 0.0
C615 C 0.40332 0.35418 0.98441 0.0
C616 C 0.39875 0.36487 0.96237 0.0
C617 C 0.43976 0.41264 0.95236 0.0
H618 H 0.47144 0.48649 0.02933 0.0
C619 C 0.50265 0.47999 0.03697 0.0
H620 H 0.56859 0.4657 0.03043 0.0
H621 H 0.61805 0.59433 0.93929 0.0
H622 H 0.69653 0.65887 0.96103 0.0
H623 H 0.70231 0.64228 0.00067 0.0
H624 H 0.62984 0.561 0.01879 0.0
C625 C 0.53714 0.47304 0.0238 0.0
C626 C 0.53586 0.47984 -0.00042 0.0
C627 C 0.57881 0.52736 0.98929 0.0
C628 C 0.57532 0.53715 0.96652 0.0
C629 C 0.61856 0.58509 0.9566 0.0
C630 C 0.66383 0.62243 0.96888 0.0
C631 C 0.6671 0.61308 0.99119 0.0
C632 C 0.62519 0.56624 0.00138 0.0
H633 H -0.00275 0.53419 0.25406 0.0
C634 C 0.00928 0.50733 0.24575 0.0
H635 H 0.03288 0.44697 0.24983 0.0
H636 H 0.06622 0.58027 0.34621 0.0
H637 H 0.13553 0.66151 0.32717 0.0
H638 H 0.15483 0.65738 0.28767 0.0
H639 H 0.10351 0.57233 0.26691 0.0
C640 C 0.02184 0.47492 0.25781 0.0
C641 C 0.01824 0.47456 0.28231 0.0
C642 C 0.05153 0.52353 0.29453 0.0
C643 C 0.04329 0.52477 0.31762 0.0
C644 C 0.07316 0.57581 0.32896 0.0
C645 C 0.11276 0.62304 0.31817 0.0
C646 C 0.12341 0.62081 0.29592 0.0
C647 C 0.09328 0.57179 0.28416 0.0
H648 H 0.07958 0.49943 0.36038 0.0
C649 C 0.03932 0.48753 0.36704 0.0
H650 H 0.95768 0.46495 0.35935 0.0
H651 H 0.94866 0.37359 0.26384 0.0
H652 H 0.88336 0.29054 0.2833 0.0
H653 H 0.87381 0.29082 0.32378 0.0
H654 H 0.92902 0.37424 0.34504 0.0
C655 C -0.0021 0.47563 0.35308 0.0
C656 C 0.0051 0.47567 0.32876 0.0
C657 C 0.97327 0.42618 0.31665 0.0
C658 C 0.97955 0.42573 0.29336 0.0
C659 C 0.94614 0.37612 0.28159 0.0
C660 C 0.90843 0.32813 0.29255 0.0
C661 C 0.90301 0.32829 0.31533 0.0
C662 C 0.93493 0.37656 0.32733 0.0
loop_
_geom_bond_atom_site_label_1
_geom_bond_atom_site_label_2
_geom_bond_distance
_geom_bond_site_symmetry_2
_ccdc_geom_bond_type
O0 Zn1 1.953 . S
O0 C16 1.225 1_655 S
Zn1 O0 1.953 . S
Zn1 O2 1.949 1_655 S
Zn1 O8 1.919 . S
Zn1 O13 1.924 1_655 S
O2 Zn1 1.949 1_455 S
O2 Zn3 1.923 1_455 S
O2 Zn4 1.950 . S
O2 Zn5 1.945 . S
Zn3 O2 1.923 1_655 S
Zn3 O6 1.933 . S
Zn3 O9 1.941 . S
Zn3 O10 1.965 . S
Zn4 O2 1.950 . S
Zn4 O11 1.938 1_455 S
Zn4 O12 1.906 . S
Zn4 O22 1.953 . S
Zn5 O2 1.945 . S
Zn5 O7 1.932 . S
Zn5 O14 1.977 . S
Zn5 O15 1.910 . S
O6 Zn3 1.933 . S
O6 C17 1.226 1_655 S
O7 Zn5 1.932 . S
O7 C17 1.307 . S
O8 Zn1 1.919 . S
O8 C19 1.253 . S
O9 Zn3 1.941 . S
O9 C19 1.283 . S
O10 Zn3 1.965 . S
O10 C18 1.303 . S
O11 Zn4 1.938 1_655 S
O11 C18 1.247 . S
O12 Zn4 1.906 . S
O12 C20 1.304 . S
O13 Zn1 1.924 1_455 S
O13 C21 1.311 . S
O14 Zn5 1.977 . S
O14 C20 1.272 . S
O15 Zn5 1.910 . S
O15 C21 1.231 . S
C16 O0 1.225 1_455 S
C16 O22 1.298 . S
C17 O6 1.226 1_455 S
C17 O7 1.307 . S
C18 O10 1.303 . S
C18 O11 1.247 . S
C19 O8 1.253 . S
C19 O9 1.283 . S
C20 O12 1.304 . S
C20 O14 1.272 . S
C21 O13 1.311 . S
C21 O15 1.231 . S
O22 Zn4 1.953 . S
O22 C16 1.298 . S
O23 Zn24 1.953 . S
O23 C39 1.225 . S
Zn24 O23 1.953 . S
Zn24 O25 1.949 . S
Zn24 O31 1.919 . S
Zn24 O36 1.924 1_545 S
O25 Zn24 1.949 . S
O25 Zn26 1.923 . S
O25 Zn27 1.950 1_545 S
O25 Zn28 1.945 1_545 S
Zn26 O25 1.923 . S
Zn26 O29 1.933 . S
Zn26 O32 1.941 . S
Zn26 O33 1.965 . S
Zn27 O25 1.950 1_565 S
Zn27 O34 1.938 1_565 S
Zn27 O35 1.906 . S
Zn27 O45 1.953 . S
Zn28 O25 1.945 1_565 S
Zn28 O30 1.932 . S
Zn28 O37 1.977 . S
Zn28 O38 1.910 . S
O29 Zn26 1.933 . S
O29 C40 1.226 . S
O30 Zn28 1.932 . S
O30 C40 1.307 1_565 S
O31 Zn24 1.919 . S
O31 C42 1.253 . S
O32 Zn26 1.941 . S
O32 C42 1.283 . S
O33 Zn26 1.965 . S
O33 C41 1.303 . S
O34 Zn27 1.938 1_545 S
O34 C41 1.247 . S
O35 Zn27 1.906 . S
O35 C43 1.304 . S
O36 Zn24 1.924 1_565 S
O36 C44 1.311 . S
O37 Zn28 1.977 . S
O37 C43 1.272 . S
O38 Zn28 1.910 . S
O38 C44 1.231 . S
C39 O23 1.225 . S
C39 O45 1.298 1_545 S
C40 O29 1.226 . S
C40 O30 1.307 1_545 S
C41 O33 1.303 . S
C41 O34 1.247 . S
C42 O31 1.253 . S
C42 O32 1.283 . S
C43 O35 1.304 . S
C43 O37 1.272 . S
C44 O36 1.311 . S
C44 O38 1.231 . S
O45 Zn27 1.953 . S
O45 C39 1.298 1_565 S
O46 Zn47 1.953 . S
O46 C62 1.225 . S
Zn47 O46 1.953 . S
Zn47 O48 1.949 . S
Zn47 O54 1.919 . S
Zn47 O59 1.924 . S
O48 Zn47 1.949 . S
O48 Zn49 1.923 . S
O48 Zn50 1.950 . S
O48 Zn51 1.945 . S
Zn49 O48 1.923 . S
Zn49 O52 1.933 . S
Zn49 O55 1.941 . S
Zn49 O56 1.965 . S
Zn50 O48 1.950 . S
Zn50 O57 1.938 . S
Zn50 O58 1.906 . S
Zn50 O68 1.953 . S
Zn51 O48 1.945 . S
Zn51 O53 1.932 . S
Zn51 O60 1.977 . S
Zn51 O61 1.910 . S
O52 Zn49 1.933 . S
O52 C63 1.226 . S
O53 Zn51 1.932 . S
O53 C63 1.307 . S
O54 Zn47 1.919 . S
O54 C65 1.253 . S
O55 Zn49 1.941 . S
O55 C65 1.283 . S
O56 Zn49 1.965 . S
O56 C64 1.303 . S
O57 Zn50 1.938 . S
O57 C64 1.247 . S
O58 Zn50 1.906 . S
O58 C66 1.304 . S
O59 Zn47 1.924 . S
O59 C67 1.311 . S
O60 Zn51 1.977 . S
O60 C66 1.272 . S
O61 Zn51 1.910 . S
O61 C67 1.231 . S
C62 O46 1.225 . S
C62 O68 1.298 . S
C63 O52 1.226 . S
C63 O53 1.307 . S
C64 O56 1.303 . S
C64 O57 1.247 . S
C65 O54 1.253 . S
C65 O55 1.283 . S
C66 O58 1.304 . S
C66 O60 1.272 . S
C67 O59 1.311 . S
C67 O61 1.231 . S
O68 Zn50 1.953 . S
O68 C62 1.298 . S
H69 C72 0.931 . S
H70 C75 0.928 . S
H71 C77 0.930 . S
C72 H69 0.931 . S
C72 C73 1.413 . S
C72 C74 1.360 1_565 S
C73 C72 1.413 . S
C73 C77 1.429 1_565 S
C74 C72 1.360 1_545 S
C74 C75 1.372 . S
C75 H70 0.928 . S
C75 C74 1.372 . S
C75 C76 1.404 . S
C76 C75 1.404 . S
C76 C77 1.391 . S
C77 H71 0.930 . S
C77 C73 1.429 1_545 S
C77 C76 1.391 . S
H78 C81 0.931 . S
H79 C84 0.928 . S
H80 C86 0.930 . S
C81 H78 0.931 . S
C81 C82 1.413 . S
C81 C83 1.360 . S
C82 C81 1.413 . S
C82 C86 1.429 . S
C83 C81 1.360 . S
C83 C84 1.372 . S
C84 H79 0.928 . S
C84 C83 1.372 . S
C84 C85 1.404 . S
C85 C84 1.404 . S
C85 C86 1.391 . S
C86 H80 0.930 . S
C86 C82 1.429 . S
C86 C85 1.391 . S
H87 C90 0.931 . S
H88 C93 0.928 . S
H89 C95 0.930 . S
C90 H87 0.931 . S
C90 C91 1.413 . S
C90 C92 1.360 1_655 S
C91 C90 1.413 . S
C91 C95 1.429 1_655 S
C92 C90 1.360 1_455 S
C92 C93 1.372 . S
C93 H88 0.928 . S
C93 C92 1.372 . S
C93 C94 1.404 . S
C94 C93 1.404 . S
C94 C95 1.391 . S
C95 H89 0.930 . S
C95 C91 1.429 1_455 S
C95 C94 1.391 . S
H96 C99 0.931 . S
H97 C102 0.928 . S
H98 C104 0.930 . S
C99 H96 0.931 . S
C99 C100 1.413 . S
C99 C101 1.360 1_655 S
C100 C99 1.413 . S
C100 C104 1.429 1_655 S
C101 C99 1.360 1_455 S
C101 C102 1.372 . S
C102 H97 0.928 . S
C102 C101 1.372 . S
C102 C103 1.404 . S
C103 C102 1.404 . S
C103 C104 1.391 . S
C104 H98 0.930 . S
C104 C100 1.429 1_455 S
C104 C103 1.391 . S
H105 C108 0.931 . S
H106 C111 0.928 . S
H107 C113 0.930 . S
C108 H105 0.931 . S
C108 C109 1.413 . S
C108 C110 1.353 1_545 S
C109 C108 1.413 . S
C109 C113 1.411 1_545 S
C110 C108 1.353 1_565 S
C110 C111 1.379 . S
C111 H106 0.928 . S
C111 C110 1.379 . S
C111 C112 1.404 . S
C112 C111 1.404 . S
C112 C113 1.409 . S
C113 H107 0.930 . S
C113 C109 1.411 1_565 S
C113 C112 1.409 . S
H114 C117 0.931 . S
H115 C120 0.928 . S
H116 C122 0.930 . S
C117 H114 0.931 . S
C117 C118 1.413 . S
C117 C119 1.360 . S
C118 C117 1.413 . S
C118 C122 1.429 . S
C119 C117 1.360 . S
C119 C120 1.372 . S
C120 H115 0.928 . S
C120 C119 1.372 . S
C120 C121 1.404 . S
C121 C120 1.404 . S
C121 C122 1.391 . S
C122 H116 0.930 . S
C122 C118 1.429 . S
C122 C121 1.391 . S
H123 C124 0.951 . S
C124 H123 0.951 . S
C124 C130 1.265 . S
H125 C130 0.950 . S
H126 C134 0.949 . S
H127 C135 0.950 . S
H128 C136 0.951 . S
H129 C137 0.951 . S
C130 C124 1.265 . S
C130 H125 0.950 . S
C130 C131 1.478 . S
C131 C130 1.478 . S
C131 C132 1.397 . S
C131 C148 1.394 . S
C132 C131 1.397 . S
C132 C133 1.438 . S
C132 C137 1.429 . S
C133 C132 1.438 . S
C133 C134 1.428 . S
C133 C146 1.394 . S
C134 H126 0.949 . S
C134 C133 1.428 . S
C134 C135 1.345 . S
C135 H127 0.950 . S
C135 C134 1.345 . S
C135 C136 1.424 . S
C136 H128 0.951 . S
C136 C135 1.424 . S
C136 C137 1.347 . S
C137 H129 0.951 . S
C137 C132 1.429 . S
C137 C136 1.347 . S
H138 C139 0.951 . S
C139 H138 0.951 . S
C139 C145 1.265 . S
H140 C145 0.950 . S
H141 C149 0.949 . S
H142 C150 0.950 . S
H143 C151 0.951 . S
H144 C152 0.951 . S
C145 C139 1.265 . S
C145 H140 0.950 . S
C145 C146 1.478 . S
C146 C133 1.394 . S
C146 C145 1.478 . S
C146 C147 1.397 . S
C147 C146 1.397 . S
C147 C148 1.438 . S
C147 C152 1.429 . S
C148 C131 1.394 . S
C148 C147 1.438 . S
C148 C149 1.428 . S
C149 H141 0.949 . S
C149 C148 1.428 . S
C149 C150 1.345 . S
C150 H142 0.950 . S
C150 C149 1.345 . S
C150 C151 1.424 . S
C151 H143 0.951 . S
C151 C150 1.424 . S
C151 C152 1.347 . S
C152 H144 0.951 . S
C152 C147 1.429 . S
C152 C151 1.347 . S
H153 C154 0.951 . S
C154 H153 0.951 . S
C154 C160 1.265 . S
H155 C160 0.950 . S
H156 C164 0.949 . S
H157 C165 0.950 . S
H158 C166 0.951 . S
H159 C167 0.951 . S
C160 C154 1.265 . S
C160 H155 0.950 . S
C160 C161 1.478 . S
C161 C160 1.478 . S
C161 C162 1.397 . S
C161 C178 1.394 . S
C162 C161 1.397 . S
C162 C163 1.438 . S
C162 C167 1.429 . S
C163 C162 1.438 . S
C163 C164 1.428 . S
C163 C176 1.394 . S
C164 H156 0.949 . S
C164 C163 1.428 . S
C164 C165 1.345 . S
C165 H157 0.950 . S
C165 C164 1.345 . S
C165 C166 1.424 . S
C166 H158 0.951 . S
C166 C165 1.424 . S
C166 C167 1.347 . S
C167 H159 0.951 . S
C167 C162 1.429 . S
C167 C166 1.347 . S
H168 C169 0.951 . S
C169 H168 0.951 . S
C169 C175 1.265 . S
H170 C175 0.950 . S
H171 C179 0.949 . S
H172 C180 0.950 . S
H173 C181 0.951 . S
H174 C182 0.951 . S
C175 C169 1.265 . S
C175 H170 0.950 . S
C175 C176 1.478 . S
C176 C163 1.394 . S
C176 C175 1.478 . S
C176 C177 1.397 . S
C177 C176 1.397 . S
C177 C178 1.438 . S
C177 C182 1.429 . S
C178 C161 1.394 . S
C178 C177 1.438 . S
C178 C179 1.428 . S
C179 H171 0.949 . S
C179 C178 1.428 . S
C179 C180 1.345 . S
C180 H172 0.950 . S
C180 C179 1.345 . S
C180 C181 1.424 . S
C181 H173 0.951 . S
C181 C180 1.424 . S
C181 C182 1.347 . S
C182 H174 0.951 . S
C182 C177 1.429 . S
C182 C181 1.347 . S
H183 C184 0.951 . S
C184 H183 0.951 . S
C184 C190 1.265 . S
H185 C190 0.950 . S
H186 C194 0.949 . S
H187 C195 0.950 . S
H188 C196 0.951 . S
H189 C197 0.951 . S
C190 C184 1.265 . S
C190 H185 0.950 . S
C190 C191 1.478 . S
C191 C190 1.478 . S
C191 C192 1.397 . S
C191 C208 1.394 . S
C192 C191 1.397 . S
C192 C193 1.438 . S
C192 C197 1.429 . S
C193 C192 1.438 . S
C193 C194 1.428 . S
C193 C206 1.394 . S
C194 H186 0.949 . S
C194 C193 1.428 . S
C194 C195 1.345 . S
C195 H187 0.950 . S
C195 C194 1.345 . S
C195 C196 1.424 . S
C196 H188 0.951 . S
C196 C195 1.424 . S
C196 C197 1.347 . S
C197 H189 0.951 . S
C197 C192 1.429 . S
C197 C196 1.347 . S
H198 C199 0.951 . S
C199 H198 0.951 . S
C199 C205 1.265 . S
H200 C205 0.950 . S
H201 C209 0.949 . S
H202 C210 0.950 . S
H203 C211 0.951 . S
H204 C212 0.951 . S
C205 C199 1.265 . S
C205 H200 0.950 . S
C205 C206 1.478 . S
C206 C193 1.394 . S
C206 C205 1.478 . S
C206 C207 1.397 . S
C207 C206 1.397 . S
C207 C208 1.438 . S
C207 C212 1.429 . S
C208 C191 1.394 . S
C208 C207 1.438 . S
C208 C209 1.428 . S
C209 H201 0.949 . S
C209 C208 1.428 . S
C209 C210 1.345 . S
C210 H202 0.950 . S
C210 C209 1.345 . S
C210 C211 1.424 . S
C211 H203 0.951 . S
C211 C210 1.424 . S
C211 C212 1.347 . S
C212 H204 0.951 . S
C212 C207 1.429 . S
C212 C211 1.347 . S
H213 C214 0.951 . S
C214 H213 0.951 . S
C214 C220 1.265 . S
H215 C220 0.950 . S
H216 C224 0.949 . S
H217 C225 0.950 . S
H218 C226 0.951 . S
H219 C227 0.951 . S
C220 C214 1.265 . S
C220 H215 0.950 . S
C220 C221 1.478 . S
C221 C220 1.478 . S
C221 C222 1.397 . S
C221 C238 1.394 . S
C222 C221 1.397 . S
C222 C223 1.438 . S
C222 C227 1.429 . S
C223 C222 1.438 . S
C223 C224 1.428 . S
C223 C236 1.394 . S
C224 H216 0.949 . S
C224 C223 1.428 . S
C224 C225 1.345 . S
C225 H217 0.950 . S
C225 C224 1.345 . S
C225 C226 1.424 . S
C226 H218 0.951 . S
C226 C225 1.424 . S
C226 C227 1.347 . S
C227 H219 0.951 . S
C227 C222 1.429 . S
C227 C226 1.347 . S
H228 C229 0.951 . S
C229 H228 0.951 . S
C229 C235 1.265 . S
H230 C235 0.950 . S
H231 C239 0.949 . S
H232 C240 0.950 . S
H233 C241 0.951 . S
H234 C242 0.951 . S
C235 C229 1.265 . S
C235 H230 0.950 . S
C235 C236 1.478 . S
C236 C223 1.394 . S
C236 C235 1.478 . S
C236 C237 1.397 . S
C237 C236 1.397 . S
C237 C238 1.438 . S
C237 C242 1.429 . S
C238 C221 1.394 . S
C238 C237 1.438 . S
C238 C239 1.428 . S
C239 H231 0.949 . S
C239 C238 1.428 . S
C239 C240 1.345 . S
C240 H232 0.950 . S
C240 C239 1.345 . S
C240 C241 1.424 . S
C241 H233 0.951 . S
C241 C240 1.424 . S
C241 C242 1.347 . S
C242 H234 0.951 . S
C242 C237 1.429 . S
C242 C241 1.347 . S
H243 C244 0.951 . S
C244 H243 0.951 . S
C244 C250 1.265 . S
H245 C250 0.950 . S
H246 C254 0.949 . S
H247 C255 0.950 . S
H248 C256 0.951 . S
H249 C257 0.951 . S
C250 C244 1.265 . S
C250 H245 0.950 . S
C250 C251 1.478 . S
C251 C250 1.478 . S
C251 C252 1.397 . S
C251 C268 1.394 . S
C252 C251 1.397 . S
C252 C253 1.438 . S
C252 C257 1.429 . S
C253 C252 1.438 . S
C253 C254 1.428 . S
C253 C266 1.394 . S
C254 H246 0.949 . S
C254 C253 1.428 . S
C254 C255 1.345 . S
C255 H247 0.950 . S
C255 C254 1.345 . S
C255 C256 1.424 . S
C256 H248 0.951 . S
C256 C255 1.424 . S
C256 C257 1.347 . S
C257 H249 0.951 . S
C257 C252 1.429 . S
C257 C256 1.347 . S
H258 C259 0.951 . S
C259 H258 0.951 . S
C259 C265 1.265 . S
H260 C265 0.950 . S
H261 C269 0.949 . S
H262 C270 0.950 . S
H263 C271 0.951 . S
H264 C272 0.951 . S
C265 C259 1.265 . S
C265 H260 0.950 . S
C265 C266 1.478 . S
C266 C253 1.394 . S
C266 C265 1.478 . S
C266 C267 1.397 . S
C267 C266 1.397 . S
C267 C268 1.438 . S
C267 C272 1.429 . S
C268 C251 1.394 . S
C268 C267 1.438 . S
C268 C269 1.428 . S
C269 H261 0.949 . S
C269 C268 1.428 . S
C269 C270 1.345 . S
C270 H262 0.950 . S
C270 C269 1.345 . S
C270 C271 1.424 . S
C271 H263 0.951 . S
C271 C270 1.424 . S
C271 C272 1.347 . S
C272 H264 0.951 . S
C272 C267 1.429 . S
C272 C271 1.347 . S
H273 C274 0.951 . S
C274 H273 0.951 . S
C274 C280 1.265 . S
H275 C280 0.950 . S
H276 C284 0.949 . S
H277 C285 0.950 . S
H278 C286 0.951 . S
H279 C287 0.951 . S
C280 C274 1.265 . S
C280 H275 0.950 . S
C280 C281 1.478 . S
C281 C280 1.478 . S
C281 C282 1.397 . S
C281 C298 1.394 . S
C282 C281 1.397 . S
C282 C283 1.438 . S
C282 C287 1.429 . S
C283 C282 1.438 . S
C283 C284 1.428 . S
C283 C296 1.394 . S
C284 H276 0.949 . S
C284 C283 1.428 . S
C284 C285 1.345 . S
C285 H277 0.950 . S
C285 C284 1.345 . S
C285 C286 1.424 . S
C286 H278 0.951 . S
C286 C285 1.424 . S
C286 C287 1.347 . S
C287 H279 0.951 . S
C287 C282 1.429 . S
C287 C286 1.347 . S
H288 C289 0.951 . S
C289 H288 0.951 . S
C289 C295 1.265 . S
H290 C295 0.950 . S
H291 C299 0.949 . S
H292 C300 0.950 . S
H293 C301 0.951 . S
H294 C302 0.951 . S
C295 C289 1.265 . S
C295 H290 0.950 . S
C295 C296 1.478 . S
C296 C283 1.394 . S
C296 C295 1.478 . S
C296 C297 1.397 . S
C297 C296 1.397 . S
C297 C298 1.438 . S
C297 C302 1.429 . S
C298 C281 1.394 . S
C298 C297 1.438 . S
C298 C299 1.428 . S
C299 H291 0.949 . S
C299 C298 1.428 . S
C299 C300 1.345 . S
C300 H292 0.950 . S
C300 C299 1.345 . S
C300 C301 1.424 . S
C301 H293 0.951 . S
C301 C300 1.424 . S
C301 C302 1.347 . S
C302 H294 0.951 . S
C302 C297 1.429 . S
C302 C301 1.347 . S
H303 C304 0.951 . S
C304 H303 0.951 . S
C304 C310 1.265 . S
H305 C310 0.950 . S
H306 C314 0.949 . S
H307 C315 0.950 . S
H308 C316 0.951 . S
H309 C317 0.951 . S
C310 C304 1.265 . S
C310 H305 0.950 . S
C310 C311 1.478 . S
C311 C310 1.478 . S
C311 C312 1.397 . S
C311 C328 1.394 . S
C312 C311 1.397 . S
C312 C313 1.438 . S
C312 C317 1.429 . S
C313 C312 1.438 . S
C313 C314 1.428 . S
C313 C326 1.394 . S
C314 H306 0.949 . S
C314 C313 1.428 . S
C314 C315 1.345 . S
C315 H307 0.950 . S
C315 C314 1.345 . S
C315 C316 1.424 . S
C316 H308 0.951 . S
C316 C315 1.424 . S
C316 C317 1.347 . S
C317 H309 0.951 . S
C317 C312 1.429 . S
C317 C316 1.347 . S
H318 C319 0.951 . S
C319 H318 0.951 . S
C319 C325 1.265 . S
H320 C325 0.950 . S
H321 C329 0.949 . S
H322 C330 0.950 . S
H323 C331 0.951 . S
H324 C332 0.951 . S
C325 C319 1.265 . S
C325 H320 0.950 . S
C325 C326 1.478 . S
C326 C313 1.394 . S
C326 C325 1.478 . S
C326 C327 1.397 . S
C327 C326 1.397 . S
C327 C328 1.438 . S
C327 C332 1.429 . S
C328 C311 1.394 . S
C328 C327 1.438 . S
C328 C329 1.428 . S
C329 H321 0.949 . S
C329 C328 1.428 . S
C329 C330 1.345 . S
C330 H322 0.950 . S
C330 C329 1.345 . S
C330 C331 1.424 . S
C331 H323 0.951 . S
C331 C330 1.424 . S
C331 C332 1.347 . S
C332 H324 0.951 . S
C332 C327 1.429 . S
C332 C331 1.347 . S
H333 C334 0.951 . S
C334 H333 0.951 . S
C334 C340 1.265 . S
H335 C340 0.950 . S
H336 C344 0.949 . S
H337 C345 0.950 . S
H338 C346 0.951 . S
H339 C347 0.951 . S
C340 C334 1.265 . S
C340 H335 0.950 . S
C340 C341 1.478 . S
C341 C340 1.478 . S
C341 C342 1.397 . S
C341 C358 1.394 . S
C342 C341 1.397 . S
C342 C343 1.438 . S
C342 C347 1.429 . S
C343 C342 1.438 . S
C343 C344 1.428 . S
C343 C356 1.394 . S
C344 H336 0.949 . S
C344 C343 1.428 . S
C344 C345 1.345 . S
C345 H337 0.950 . S
C345 C344 1.345 . S
C345 C346 1.424 . S
C346 H338 0.951 . S
C346 C345 1.424 . S
C346 C347 1.347 . S
C347 H339 0.951 . S
C347 C342 1.429 . S
C347 C346 1.347 . S
H348 C349 0.951 . S
C349 H348 0.951 . S
C349 C355 1.265 . S
H350 C355 0.950 . S
H351 C359 0.949 . S
H352 C360 0.950 . S
H353 C361 0.951 . S
H354 C362 0.951 . S
C355 C349 1.265 . S
C355 H350 0.950 . S
C355 C356 1.478 . S
C356 C343 1.394 . S
C356 C355 1.478 . S
C356 C357 1.397 . S
C357 C356 1.397 . S
C357 C358 1.438 . S
C357 C362 1.429 . S
C358 C341 1.394 . S
C358 C357 1.438 . S
C358 C359 1.428 . S
C359 H351 0.949 . S
C359 C358 1.428 . S
C359 C360 1.345 . S
C360 H352 0.950 . S
C360 C359 1.345 . S
C360 C361 1.424 . S
C361 H353 0.951 . S
C361 C360 1.424 . S
C361 C362 1.347 . S
C362 H354 0.951 . S
C362 C357 1.429 . S
C362 C361 1.347 . S
H363 C364 0.951 . S
C364 H363 0.951 . S
C364 C370 1.265 . S
H365 C370 0.950 . S
H366 C374 0.949 . S
H367 C375 0.950 . S
H368 C376 0.951 . S
H369 C377 0.951 . S
C370 C364 1.265 . S
C370 H365 0.950 . S
C370 C371 1.478 . S
C371 C370 1.478 . S
C371 C372 1.397 . S
C371 C388 1.394 . S
C372 C371 1.397 . S
C372 C373 1.438 . S
C372 C377 1.429 . S
C373 C372 1.438 . S
C373 C374 1.428 . S
C373 C386 1.394 . S
C374 H366 0.949 . S
C374 C373 1.428 . S
C374 C375 1.345 . S
C375 H367 0.950 . S
C375 C374 1.345 . S
C375 C376 1.424 . S
C376 H368 0.951 . S
C376 C375 1.424 . S
C376 C377 1.347 . S
C377 H369 0.951 . S
C377 C372 1.429 . S
C377 C376 1.347 . S
H378 C379 0.951 . S
C379 H378 0.951 . S
C379 C385 1.265 . S
H380 C385 0.950 . S
H381 C389 0.949 . S
H382 C390 0.950 . S
H383 C391 0.951 . S
H384 C392 0.951 . S
C385 C379 1.265 . S
C385 H380 0.950 . S
C385 C386 1.478 . S
C386 C373 1.394 . S
C386 C385 1.478 . S
C386 C387 1.397 . S
C387 C386 1.397 . S
C387 C388 1.438 . S
C387 C392 1.429 . S
C388 C371 1.394 . S
C388 C387 1.438 . S
C388 C389 1.428 . S
C389 H381 0.949 . S
C389 C388 1.428 . S
C389 C390 1.345 . S
C390 H382 0.950 . S
C390 C389 1.345 . S
C390 C391 1.424 . S
C391 H383 0.951 . S
C391 C390 1.424 . S
C391 C392 1.347 . S
C392 H384 0.951 . S
C392 C387 1.429 . S
C392 C391 1.347 . S
H393 C394 0.951 . S
C394 H393 0.951 . S
C394 C400 1.265 . S
H395 C400 0.950 . S
H396 C404 0.949 . S
H397 C405 0.950 . S
H398 C406 0.951 . S
H399 C407 0.951 . S
C400 C394 1.265 . S
C400 H395 0.950 . S
C400 C401 1.478 . S
C401 C400 1.478 . S
C401 C402 1.397 . S
C401 C418 1.394 . S
C402 C401 1.397 . S
C402 C403 1.438 . S
C402 C407 1.429 . S
C403 C402 1.438 . S
C403 C404 1.428 . S
C403 C416 1.394 . S
C404 H396 0.949 . S
C404 C403 1.428 . S
C404 C405 1.345 . S
C405 H397 0.950 . S
C405 C404 1.345 . S
C405 C406 1.424 . S
C406 H398 0.951 . S
C406 C405 1.424 . S
C406 C407 1.347 . S
C407 H399 0.951 . S
C407 C402 1.429 . S
C407 C406 1.347 . S
H408 C409 0.951 . S
C409 H408 0.951 . S
C409 C415 1.265 . S
H410 C415 0.950 . S
H411 C419 0.949 . S
H412 C420 0.950 . S
H413 C421 0.951 . S
H414 C422 0.951 . S
C415 C409 1.265 . S
C415 H410 0.950 . S
C415 C416 1.478 . S
C416 C403 1.394 . S
C416 C415 1.478 . S
C416 C417 1.397 . S
C417 C416 1.397 . S
C417 C418 1.438 . S
C417 C422 1.429 . S
C418 C401 1.394 . S
C418 C417 1.438 . S
C418 C419 1.428 . S
C419 H411 0.949 . S
C419 C418 1.428 . S
C419 C420 1.345 . S
C420 H412 0.950 . S
C420 C419 1.345 . S
C420 C421 1.424 . S
C421 H413 0.951 . S
C421 C420 1.424 . S
C421 C422 1.347 . S
C422 H414 0.951 . S
C422 C417 1.429 . S
C422 C421 1.347 . S
H423 C424 0.951 . S
C424 H423 0.951 . S
C424 C430 1.265 . S
H425 C430 0.950 . S
H426 C434 0.949 . S
H427 C435 0.950 . S
H428 C436 0.951 . S
H429 C437 0.951 . S
C430 C424 1.265 . S
C430 H425 0.950 . S
C430 C431 1.478 . S
C431 C430 1.478 . S
C431 C432 1.397 . S
C431 C448 1.394 . S
C432 C431 1.397 . S
C432 C433 1.438 . S
C432 C437 1.429 . S
C433 C432 1.438 . S
C433 C434 1.428 . S
C433 C446 1.394 . S
C434 H426 0.949 . S
C434 C433 1.428 . S
C434 C435 1.345 . S
C435 H427 0.950 . S
C435 C434 1.345 . S
C435 C436 1.424 . S
C436 H428 0.951 . S
C436 C435 1.424 . S
C436 C437 1.347 . S
C437 H429 0.951 . S
C437 C432 1.429 . S
C437 C436 1.347 . S
H438 C439 0.951 . S
C439 H438 0.951 . S
C439 C445 1.265 . S
H440 C445 0.950 . S
H441 C449 0.949 . S
H442 C450 0.950 . S
H443 C451 0.951 . S
H444 C452 0.951 . S
C445 C439 1.265 . S
C445 H440 0.950 . S
C445 C446 1.478 . S
C446 C433 1.394 . S
C446 C445 1.478 . S
C446 C447 1.397 . S
C447 C446 1.397 . S
C447 C448 1.438 . S
C447 C452 1.429 . S
C448 C431 1.394 . S
C448 C447 1.438 . S
C448 C449 1.428 . S
C449 H441 0.949 . S
C449 C448 1.428 . S
C449 C450 1.345 . S
C450 H442 0.950 . S
C450 C449 1.345 . S
C450 C451 1.424 . S
C451 H443 0.951 . S
C451 C450 1.424 . S
C451 C452 1.347 . S
C452 H444 0.951 . S
C452 C447 1.429 . S
C452 C451 1.347 . S
H453 C454 0.951 . S
C454 H453 0.951 . S
C454 C460 1.265 . S
H455 C460 0.950 . S
H456 C464 0.949 . S
H457 C465 0.950 . S
H458 C466 0.951 . S
H459 C467 0.951 . S
C460 C454 1.265 . S
C460 H455 0.950 . S
C460 C461 1.478 . S
C461 C460 1.478 . S
C461 C462 1.397 . S
C461 C478 1.394 . S
C462 C461 1.397 . S
C462 C463 1.438 . S
C462 C467 1.429 . S
C463 C462 1.438 . S
C463 C464 1.428 . S
C463 C476 1.394 . S
C464 H456 0.949 . S
C464 C463 1.428 . S
C464 C465 1.345 . S
C465 H457 0.950 . S
C465 C464 1.345 . S
C465 C466 1.424 . S
C466 H458 0.951 . S
C466 C465 1.424 . S
C466 C467 1.347 . S
C467 H459 0.951 . S
C467 C462 1.429 . S
C467 C466 1.347 . S
H468 C469 0.951 . S
C469 H468 0.951 . S
C469 C475 1.265 . S
H470 C475 0.950 . S
H471 C479 0.949 . S
H472 C480 0.950 . S
H473 C481 0.951 . S
H474 C482 0.951 . S
C475 C469 1.265 . S
C475 H470 0.950 . S
C475 C476 1.478 . S
C476 C463 1.394 . S
C476 C475 1.478 . S
C476 C477 1.397 . S
C477 C476 1.397 . S
C477 C478 1.438 . S
C477 C482 1.429 . S
C478 C461 1.394 . S
C478 C477 1.438 . S
C478 C479 1.428 . S
C479 H471 0.949 . S
C479 C478 1.428 . S
C479 C480 1.345 . S
C480 H472 0.950 . S
C480 C479 1.345 . S
C480 C481 1.424 . S
C481 H473 0.951 . S
C481 C480 1.424 . S
C481 C482 1.347 . S
C482 H474 0.951 . S
C482 C477 1.429 . S
C482 C481 1.347 . S
H483 C484 0.951 . S
C484 H483 0.951 . S
C484 C490 1.265 1_455 S
H485 C490 0.950 . S
H486 C494 0.949 . S
H487 C495 0.950 1_556 S
H488 C496 0.951 . S
H489 C497 0.951 . S
C490 C484 1.265 1_655 S
C490 H485 0.950 . S
C490 C491 1.478 1_655 S
C491 C490 1.478 1_455 S
C491 C492 1.397 . S
C491 C508 1.394 1_455 S
C492 C491 1.397 . S
C492 C493 1.438 . S
C492 C497 1.429 . S
C493 C492 1.438 . S
C493 C494 1.428 1_554 S
C493 C506 1.394 1_554 S
C494 H486 0.949 . S
C494 C493 1.428 1_556 S
C494 C495 1.345 1_556 S
C495 H487 0.950 1_554 S
C495 C494 1.345 1_554 S
C495 C496 1.424 . S
C496 H488 0.951 . S
C496 C495 1.424 . S
C496 C497 1.347 . S
C497 H489 0.951 . S
C497 C492 1.429 . S
C497 C496 1.347 . S
H498 C499 0.951 1_655 S
C499 H498 0.951 1_455 S
C499 C505 1.265 . S
H500 C505 0.950 . S
H501 C509 0.949 . S
H502 C510 0.950 . S
H503 C511 0.951 . S
H504 C512 0.934 1_556 S
C505 C499 1.265 . S
C505 H500 0.950 . S
C505 C506 1.478 . S
C506 C493 1.394 1_556 S
C506 C505 1.478 . S
C506 C507 1.397 1_556 S
C507 C506 1.397 1_554 S
C507 C508 1.438 1_455 S
C507 C512 1.432 . S
C508 C491 1.394 1_655 S
C508 C507 1.438 1_655 S
C508 C509 1.428 . S
C509 H501 0.949 . S
C509 C508 1.428 . S
C509 C510 1.345 . S
C510 H502 0.950 . S
C510 C509 1.345 . S
C510 C511 1.424 . S
C511 H503 0.951 . S
C511 C510 1.424 . S
C511 C512 1.361 1_655 S
C512 H504 0.934 1_554 S
C512 C507 1.432 . S
C512 C511 1.361 1_455 S
H513 C514 0.951 . S
C514 H513 0.951 . S
C514 C520 1.265 . S
H515 C520 0.950 . S
H516 C524 0.949 . S
H517 C525 0.950 . S
H518 C526 0.951 . S
H519 C527 0.951 . S
C520 C514 1.265 . S
C520 H515 0.950 . S
C520 C521 1.478 . S
C521 C520 1.478 . S
C521 C522 1.397 . S
C521 C538 1.394 1_545 S
C522 C521 1.397 . S
C522 C523 1.438 . S
C522 C527 1.429 . S
C523 C522 1.438 . S
C523 C524 1.428 . S
C523 C536 1.394 . S
C524 H516 0.949 . S
C524 C523 1.428 . S
C524 C525 1.345 . S
C525 H517 0.950 . S
C525 C524 1.345 . S
C525 C526 1.424 . S
C526 H518 0.951 . S
C526 C525 1.424 . S
C526 C527 1.347 . S
C527 H519 0.951 . S
C527 C522 1.429 . S
C527 C526 1.347 . S
H528 C529 0.951 . S
C529 H528 0.951 . S
C529 C535 1.265 . S
H530 C535 0.956 . S
H531 C539 0.949 . S
H532 C540 0.950 . S
H533 C541 0.951 . S
H534 C542 0.951 . S
C535 C529 1.265 . S
C535 H530 0.956 . S
C535 C536 1.478 . S
C536 C523 1.394 . S
C536 C535 1.478 . S
C536 C537 1.397 1_545 S
C537 C536 1.397 1_565 S
C537 C538 1.438 . S
C537 C542 1.429 . S
C538 C521 1.394 1_565 S
C538 C537 1.438 . S
C538 C539 1.428 . S
C539 H531 0.949 . S
C539 C538 1.428 . S
C539 C540 1.345 . S
C540 H532 0.950 . S
C540 C539 1.345 . S
C540 C541 1.424 . S
C541 H533 0.951 . S
C541 C540 1.424 . S
C541 C542 1.347 . S
C542 H534 0.951 . S
C542 C537 1.429 . S
C542 C541 1.347 . S
H543 C544 0.951 . S
C544 H543 0.951 . S
C544 C550 1.265 . S
H545 C550 0.950 . S
H546 C554 0.949 . S
H547 C555 0.950 . S
H548 C556 0.951 . S
H549 C557 0.951 . S
C550 C544 1.265 . S
C550 H545 0.950 . S
C550 C551 1.478 . S
C551 C550 1.478 . S
C551 C552 1.397 . S
C551 C568 1.394 . S
C552 C551 1.397 . S
C552 C553 1.438 . S
C552 C557 1.429 . S
C553 C552 1.438 . S
C553 C554 1.428 . S
C553 C566 1.394 . S
C554 H546 0.949 . S
C554 C553 1.428 . S
C554 C555 1.345 . S
C555 H547 0.950 . S
C555 C554 1.345 . S
C555 C556 1.424 . S
C556 H548 0.951 . S
C556 C555 1.424 . S
C556 C557 1.347 . S
C557 H549 0.951 . S
C557 C552 1.429 . S
C557 C556 1.347 . S
H558 C559 0.951 . S
C559 H558 0.951 . S
C559 C565 1.265 . S
H560 C565 0.950 . S
H561 C569 0.949 . S
H562 C570 0.950 . S
H563 C571 0.951 . S
H564 C572 0.951 . S
C565 C559 1.265 . S
C565 H560 0.950 . S
C565 C566 1.478 . S
C566 C553 1.394 . S
C566 C565 1.478 . S
C566 C567 1.397 . S
C567 C566 1.397 . S
C567 C568 1.438 . S
C567 C572 1.429 . S
C568 C551 1.394 . S
C568 C567 1.438 . S
C568 C569 1.428 . S
C569 H561 0.949 . S
C569 C568 1.428 . S
C569 C570 1.345 . S
C570 H562 0.950 . S
C570 C569 1.345 . S
C570 C571 1.424 . S
C571 H563 0.951 . S
C571 C570 1.424 . S
C571 C572 1.347 . S
C572 H564 0.951 . S
C572 C567 1.429 . S
C572 C571 1.347 . S
H573 C574 0.951 . S
C574 H573 0.951 . S
C574 C580 1.266 1_545 S
H575 C580 0.949 . S
H576 C584 0.949 . S
H577 C585 0.950 . S
H578 C586 0.951 . S
H579 C587 0.951 . S
C580 C574 1.266 1_565 S
C580 H575 0.949 . S
C580 C581 1.478 1_565 S
C581 C580 1.478 1_545 S
C581 C582 1.397 1_545 S
C581 C598 1.394 . S
C582 C581 1.397 1_565 S
C582 C583 1.438 . S
C582 C587 1.429 . S
C583 C582 1.438 . S
C583 C584 1.428 . S
C583 C596 1.394 1_565 S
C584 H576 0.949 . S
C584 C583 1.428 . S
C584 C585 1.345 . S
C585 H577 0.950 . S
C585 C584 1.345 . S
C585 C586 1.424 . S
C586 H578 0.951 . S
C586 C585 1.424 . S
C586 C587 1.347 . S
C587 H579 0.951 . S
C587 C582 1.429 . S
C587 C586 1.347 . S
H588 C589 0.953 1_565 S
C589 H588 0.953 1_545 S
C589 C595 1.263 . S
H590 C595 0.950 . S
H591 C599 0.949 . S
H592 C600 0.950 . S
H593 C601 0.951 . S
H594 C602 0.951 . S
C595 C589 1.263 . S
C595 H590 0.950 . S
C595 C596 1.478 . S
C596 C583 1.394 1_545 S
C596 C595 1.478 . S
C596 C597 1.397 . S
C597 C596 1.397 . S
C597 C598 1.438 . S
C597 C602 1.429 . S
C598 C581 1.394 . S
C598 C597 1.438 . S
C598 C599 1.428 . S
C599 H591 0.949 . S
C599 C598 1.428 . S
C599 C600 1.345 . S
C600 H592 0.950 . S
C600 C599 1.345 . S
C600 C601 1.424 . S
C601 H593 0.951 . S
C601 C600 1.424 . S
C601 C602 1.347 . S
C602 H594 0.951 . S
C602 C597 1.429 . S
C602 C601 1.347 . S
H603 C604 0.951 . S
C604 H603 0.951 . S
C604 C610 1.265 . S
H605 C610 0.950 . S
H606 C614 0.949 . S
H607 C615 0.950 1_554 S
H608 C616 0.951 . S
H609 C617 0.951 . S
C610 C604 1.265 . S
C610 H605 0.950 . S
C610 C611 1.478 . S
C611 C610 1.478 . S
C611 C612 1.397 . S
C611 C628 1.394 . S
C612 C611 1.397 . S
C612 C613 1.438 . S
C612 C617 1.429 . S
C613 C612 1.438 . S
C613 C614 1.428 1_556 S
C613 C626 1.394 1_556 S
C614 H606 0.949 . S
C614 C613 1.428 1_554 S
C614 C615 1.345 1_554 S
C615 H607 0.950 1_556 S
C615 C614 1.345 1_556 S
C615 C616 1.424 . S
C616 H608 0.951 . S
C616 C615 1.424 . S
C616 C617 1.347 . S
C617 H609 0.951 . S
C617 C612 1.429 . S
C617 C616 1.347 . S
H618 C619 0.951 . S
C619 H618 0.951 . S
C619 C625 1.265 . S
H620 C625 0.950 . S
H621 C629 0.949 . S
H622 C630 0.950 . S
H623 C631 0.951 . S
H624 C632 0.931 1_554 S
C625 C619 1.265 . S
C625 H620 0.950 . S
C625 C626 1.478 . S
C626 C613 1.394 1_554 S
C626 C625 1.478 . S
C626 C627 1.397 1_554 S
C627 C626 1.397 1_556 S
C627 C628 1.438 . S
C627 C632 1.437 . S
C628 C611 1.394 . S
C628 C627 1.438 . S
C628 C629 1.428 . S
C629 H621 0.949 . S
C629 C628 1.428 . S
C629 C630 1.345 . S
C630 H622 0.950 . S
C630 C629 1.345 . S
C630 C631 1.424 . S
C631 H623 0.951 . S
C631 C630 1.424 . S
C631 C632 1.358 . S
C632 H624 0.931 1_556 S
C632 C627 1.437 . S
C632 C631 1.358 . S
H633 C634 0.951 . S
C634 H633 0.951 . S
C634 C640 1.265 1_655 S
H635 C640 0.950 . S
H636 C644 0.949 . S
H637 C645 0.950 . S
H638 C646 0.951 . S
H639 C647 0.951 . S
C640 C634 1.265 1_455 S
C640 H635 0.950 . S
C640 C641 1.478 . S
C641 C640 1.478 . S
C641 C642 1.397 . S
C641 C658 1.394 1_455 S
C642 C641 1.397 . S
C642 C643 1.438 . S
C642 C647 1.429 . S
C643 C642 1.438 . S
C643 C644 1.428 . S
C643 C656 1.394 1_455 S
C644 H636 0.949 . S
C644 C643 1.428 . S
C644 C645 1.345 . S
C645 H637 0.950 . S
C645 C644 1.345 . S
C645 C646 1.424 . S
C646 H638 0.951 . S
C646 C645 1.424 . S
C646 C647 1.347 . S
C647 H639 0.951 . S
C647 C642 1.429 . S
C647 C646 1.347 . S
H648 C649 0.951 . S
C649 H648 0.951 . S
C649 C655 1.265 1_455 S
H650 C655 0.950 . S
H651 C659 0.949 . S
H652 C660 0.950 . S
H653 C661 0.951 . S
H654 C662 0.951 . S
C655 C649 1.265 1_655 S
C655 H650 0.950 . S
C655 C656 1.478 . S
C656 C643 1.394 1_655 S
C656 C655 1.478 . S
C656 C657 1.397 . S
C657 C656 1.397 . S
C657 C658 1.438 . S
C657 C662 1.429 . S
C658 C641 1.394 1_655 S
C658 C657 1.438 . S
C658 C659 1.428 . S
C659 H651 0.949 . S
C659 C658 1.428 . S
C659 C660 1.345 . S
C660 H652 0.950 . S
C660 C659 1.345 . S
C660 C661 1.424 . S
C661 H653 0.951 . S
C661 C660 1.424 . S
C661 C662 1.347 . S
C662 H654 0.951 . S
C662 C657 1.429 . S
C662 C661 1.347 . S
C124 C20 1.219 . S
C139 C118 1.230 . S
C154 C41 1.275 . S
C169 C100 1.274 . S
C184 C64 1.269 . S
C199 C112 1.249 . S
C214 C19 1.205 . S
C229 C121 1.246 . S
C259 C103 1.262 . S
C244 C44 1.273 . S
C289 C109 1.245 . S
C274 C67 1.233 . S
C304 C43 1.236 . S
C319 C82 1.264 . S
C334 C66 1.239 . S
C349 C91 1.236 . S
C364 C21 1.248 . S
C379 C73 1.261 . S
C409 C85 1.277 . S
C394 C42 1.279 . S
C439 C94 1.286 . S
C424 C65 1.232 . S
C454 C18 1.263 . S
C469 C76 1.266 . S
C499 C92 1.459 . S
C484 C17 1.454 . S
C514 C39 1.460 . S
C529 C74 1.455 . S
C544 C62 1.472 . S
C559 C83 1.471 . S
C589 C110 1.441 1_545 S
C574 C40 1.435 . S
C619 C119 1.459 . S
C604 C63 1.455 . S
C634 C16 1.452 1_655 S
C649 C101 1.452 . S
