# Generated by pormake.
# Topology pyr, (3,6)-cn, num edge types: 1
# Building blocks:
#     Node 0, Type 0, BuildingBlock: MIDCAF_clean_linker_0, # of connection points: 3
#     Node 1, Type 0, BuildingBlock: MIDCAF_clean_linker_0, # of connection points: 3
#     Node 2, Type 0, BuildingBlock: MIDCAF_clean_linker_0, # of connection points: 3
#     Node 3, Type 0, BuildingBlock: MIDCAF_clean_linker_0, # of connection points: 3
#     Node 4, Type 0, BuildingBlock: MIDCAF_clean_linker_0, # of connection points: 3
#     Node 5, Type 0, BuildingBlock: MIDCAF_clean_linker_0, # of connection points: 3
#     Node 6, Type 0, BuildingBlock: MIDCAF_clean_linker_0, # of connection points: 3
#     Node 7, Type 0, BuildingBlock: MIDCAF_clean_linker_0, # of connection points: 3
#     Node 8, Type 1, BuildingBlock: BETFAJ_clean_sbu_0, # of connection points: 6
#     Node 9, Type 1, BuildingBlock: BETFAJ_clean_sbu_0, # of connection points: 6
#     Node 10, Type 1, BuildingBlock: BETFAJ_clean_sbu_0, # of connection points: 6
#     Node 11, Type 1, BuildingBlock: BETFAJ_clean_sbu_0, # of connection points: 6
#     Edge 12, Type (0, 1), BuildingBlock: KIFKEQ_clean_linker_1, # of connection points: 2
#     Edge 13, Type (0, 1), BuildingBlock: KIFKEQ_clean_linker_1, # of connection points: 2
#     Edge 14, Type (0, 1), BuildingBlock: KIFKEQ_clean_linker_1, # of connection points: 2
#     Edge 15, Type (0, 1), BuildingBlock: KIFKEQ_clean_linker_1, # of connection points: 2
#     Edge 16, Type (0, 1), BuildingBlock: KIFKEQ_clean_linker_1, # of connection points: 2
#     Edge 17, Type (0, 1), BuildingBlock: KIFKEQ_clean_linker_1, # of connection points: 2
#     Edge 18, Type (0, 1), BuildingBlock: KIFKEQ_clean_linker_1, # of connection points: 2
#     Edge 19, Type (0, 1), BuildingBlock: KIFKEQ_clean_linker_1, # of connection points: 2
#     Edge 20, Type (0, 1), BuildingBlock: KIFKEQ_clean_linker_1, # of connection points: 2
#     Edge 21, Type (0, 1), BuildingBlock: KIFKEQ_clean_linker_1, # of connection points: 2
#     Edge 22, Type (0, 1), BuildingBlock: KIFKEQ_clean_linker_1, # of connection points: 2
#     Edge 23, Type (0, 1), BuildingBlock: KIFKEQ_clean_linker_1, # of connection points: 2
#     Edge 24, Type (0, 1), BuildingBlock: KIFKEQ_clean_linker_1, # of connection points: 2
#     Edge 25, Type (0, 1), BuildingBlock: KIFKEQ_clean_linker_1, # of connection points: 2
#     Edge 26, Type (0, 1), BuildingBlock: KIFKEQ_clean_linker_1, # of connection points: 2
#     Edge 27, Type (0, 1), BuildingBlock: KIFKEQ_clean_linker_1, # of connection points: 2
#     Edge 28, Type (0, 1), BuildingBlock: KIFKEQ_clean_linker_1, # of connection points: 2
#     Edge 29, Type (0, 1), BuildingBlock: KIFKEQ_clean_linker_1, # of connection points: 2
#     Edge 30, Type (0, 1), BuildingBlock: KIFKEQ_clean_linker_1, # of connection points: 2
#     Edge 31, Type (0, 1), BuildingBlock: KIFKEQ_clean_linker_1, # of connection points: 2
#     Edge 32, Type (0, 1), BuildingBlock: KIFKEQ_clean_linker_1, # of connection points: 2
#     Edge 33, Type (0, 1), BuildingBlock: KIFKEQ_clean_linker_1, # of connection points: 2
#     Edge 34, Type (0, 1), BuildingBlock: KIFKEQ_clean_linker_1, # of connection points: 2
#     Edge 35, Type (0, 1), BuildingBlock: KIFKEQ_clean_linker_1, # of connection points: 2
# Relax obj value: 0.094
# Max RMSD: 0.121
# Mean RMSD: 0.058
data_MOF--net-pyr--node1-BETFAJ_clean_sbu_0--node2-MIDCAF_clean_linker_0--edge1-KIFKEQ_clean_linker_1
_symmetry_space_group_name_H-M    P1
_symmetry_Int_Tables_number       1
_symmetry_cell_setting            triclinic
loop_
_symmetry_equiv_pos_as_xyz
'x, y, z'
_cell_length_a     47.66059
_cell_length_b     49.36728
_cell_length_c     43.938489
_cell_angle_alpha  90.240753
_cell_angle_beta   87.896101
_cell_angle_gamma 100.98934
loop_
_atom_site_label
_atom_site_type_symbol
_atom_site_fract_x
_atom_site_fract_y
_atom_site_fract_z
_atom_type_partial_charge
C0 C 0.26149 0.27902 0.31601 0.0
C1 C 0.2683 0.25746 0.33338 0.0
C2 C 0.29466 0.24928 0.32741 0.0
C3 C 0.31246 0.26051 0.30282 0.0
H4 H 0.37179 0.23847 0.24491 0.0
H5 H 0.39758 0.20412 0.22472 0.0
H6 H 0.3932 0.23551 0.1338 0.0
H7 H 0.36735 0.27038 0.15403 0.0
H8 H 0.3176 0.31172 0.14522 0.0
H9 H 0.29118 0.34021 0.11607 0.0
H10 H 0.27585 0.38459 0.19808 0.0
H11 H 0.30234 0.35675 0.22675 0.0
H12 H 0.27257 0.30588 0.27774 0.0
H13 H 0.24134 0.2858 0.31975 0.0
H14 H 0.30093 0.23323 0.34084 0.0
H15 H 0.33183 0.25263 0.29783 0.0
N16 N 0.33798 0.27227 0.24255 0.0
N17 N 0.34079 0.29565 0.19575 0.0
N18 N 0.3122 0.30748 0.23648 0.0
C19 C 0.34884 0.27607 0.21352 0.0
C20 C 0.32273 0.31173 0.20741 0.0
C21 C 0.31963 0.28781 0.25421 0.0
C22 C 0.36713 0.2571 0.20107 0.0
C23 C 0.37637 0.2383 0.22059 0.0
C24 C 0.3911 0.21844 0.20903 0.0
C25 C 0.39707 0.21682 0.17764 0.0
C26 C 0.38896 0.2363 0.15814 0.0
C27 C 0.3741 0.25624 0.16974 0.0
C28 C 0.3118 0.3318 0.18833 0.0
C29 C 0.30921 0.32807 0.15676 0.0
C30 C 0.29388 0.34422 0.14014 0.0
C31 C 0.28121 0.36457 0.15476 0.0
C32 C 0.28552 0.36937 0.18594 0.0
C33 C 0.30055 0.35319 0.20248 0.0
C34 C 0.3044 0.28038 0.28388 0.0
C35 C 0.27941 0.29046 0.29166 0.0
C36 C 0.2429 0.94065 0.58684 0.0
C37 C 0.21609 0.93094 0.57442 0.0
C38 C 0.20807 0.90263 0.56796 0.0
C39 C 0.22593 0.88435 0.57482 0.0
H40 H 0.26448 0.81218 0.54313 0.0
H41 H 0.26745 0.76736 0.52041 0.0
H42 H 0.29009 0.73891 0.60744 0.0
H43 H 0.28697 0.7831 0.62989 0.0
H44 H 0.31748 0.8279 0.67679 0.0
H45 H 0.34376 0.84061 0.72303 0.0
H46 H 0.34902 0.92683 0.70205 0.0
H47 H 0.32275 0.91431 0.65592 0.0
H48 H 0.28071 0.93028 0.60457 0.0
H49 H 0.25006 0.96238 0.59147 0.0
H50 H 0.18741 0.89427 0.55885 0.0
H51 H 0.21862 0.86256 0.57057 0.0
N52 N 0.26525 0.84811 0.58865 0.0
N53 N 0.29611 0.83658 0.62477 0.0
N54 N 0.28627 0.88122 0.62364 0.0
C55 C 0.27896 0.82928 0.60091 0.0
C56 C 0.3 0.86255 0.63614 0.0
C57 C 0.26879 0.87412 0.60004 0.0
C58 C 0.27602 0.80125 0.58814 0.0
C59 C 0.26938 0.79604 0.55749 0.0
C60 C 0.27108 0.77044 0.54448 0.0
C61 C 0.27901 0.7496 0.56208 0.0
C62 C 0.2835 0.7543 0.59327 0.0
C63 C 0.28212 0.77983 0.6061 0.0
C64 C 0.31785 0.87011 0.66279 0.0
C65 C 0.32452 0.84958 0.68183 0.0
C66 C 0.33945 0.8568 0.70835 0.0
C67 C 0.34835 0.88466 0.71604 0.0
C68 C 0.34261 0.90518 0.69647 0.0
C69 C 0.32738 0.89799 0.6702 0.0
C70 C 0.25197 0.89389 0.58877 0.0
C71 C 0.26056 0.92228 0.59416 0.0
C72 C 0.6431 0.26675 0.91876 0.0
C73 C 0.61398 0.25572 0.91435 0.0
C74 C 0.59823 0.27207 0.89814 0.0
C75 C 0.61106 0.29836 0.88692 0.0
H76 H 0.61939 0.35361 0.80461 0.0
H77 H 0.59947 0.37603 0.76369 0.0
H78 H 0.63704 0.45575 0.80005 0.0
H79 H 0.65849 0.43301 0.83964 0.0
H80 H 0.71778 0.43217 0.88125 0.0
H81 H 0.76167 0.45454 0.90538 0.0
H82 H 0.76829 0.37713 0.94705 0.0
H83 H 0.72475 0.35478 0.92297 0.0
H84 H 0.67817 0.30077 0.91211 0.0
H85 H 0.65641 0.25492 0.93037 0.0
H86 H 0.57569 0.26491 0.89456 0.0
H87 H 0.59807 0.31026 0.8749 0.0
N88 N 0.64159 0.35113 0.85934 0.0
N89 N 0.67803 0.39042 0.86367 0.0
N90 N 0.678 0.35132 0.89397 0.0
C91 C 0.6537 0.37734 0.85026 0.0
C92 C 0.69045 0.3775 0.88548 0.0
C93 C 0.65353 0.33798 0.88132 0.0
C94 C 0.64068 0.39138 0.82559 0.0
C95 C 0.62342 0.37595 0.80386 0.0
C96 C 0.61171 0.38901 0.78032 0.0
C97 C 0.61624 0.41808 0.77797 0.0
C98 C 0.6333 0.43345 0.80012 0.0
C99 C 0.64554 0.42034 0.82324 0.0
C100 C 0.71745 0.39154 0.9 0.0
C101 C 0.72858 0.41986 0.8955 0.0
C102 C 0.75375 0.43278 0.90954 0.0
C103 C 0.76876 0.41773 0.92823 0.0
C104 C 0.75767 0.38941 0.93257 0.0
C105 C 0.73244 0.37658 0.91882 0.0
C106 C 0.63998 0.30945 0.89192 0.0
C107 C 0.65578 0.29318 0.90798 0.0
C108 C 0.75404 0.67705 0.43617 0.0
C109 C 0.74324 0.64876 0.43168 0.0
C110 C 0.75865 0.63419 0.41152 0.0
C111 C 0.78415 0.64743 0.39666 0.0
H112 H 0.83206 0.65711 0.30692 0.0
H113 H 0.85173 0.63382 0.26488 0.0
H114 H 0.93728 0.6686 0.2925 0.0
H115 H 0.91719 0.69348 0.33337 0.0
H116 H 0.90575 0.76665 0.35981 0.0
H117 H 0.9271 0.81162 0.38107 0.0
H118 H 0.87143 0.79432 0.46113 0.0
H119 H 0.85026 0.74982 0.4402 0.0
H120 H 0.78718 0.71191 0.42593 0.0
H121 H 0.74262 0.68929 0.45081 0.0
H122 H 0.75139 0.61235 0.40765 0.0
H123 H 0.79552 0.63544 0.38165 0.0
N124 N 0.83488 0.67798 0.36303 0.0
N125 N 0.87397 0.71531 0.36129 0.0
N126 N 0.83659 0.71418 0.39794 0.0
C127 C 0.86039 0.69061 0.34996 0.0
C128 C 0.86205 0.72729 0.38535 0.0
C129 C 0.82284 0.68959 0.38709 0.0
C130 C 0.873 0.67717 0.32365 0.0
C131 C 0.8551 0.65991 0.30391 0.0
C132 C 0.86653 0.64624 0.27981 0.0
C133 C 0.89635 0.64869 0.27502 0.0
C134 C 0.91427 0.66625 0.29476 0.0
C135 C 0.90275 0.68051 0.31848 0.0
C136 C 0.8762 0.75442 0.39818 0.0
C137 C 0.89818 0.77239 0.382 0.0
C138 C 0.9103 0.79827 0.39411 0.0
C139 C 0.90107 0.80665 0.4229 0.0
C140 C 0.87936 0.78852 0.4391 0.0
C141 C 0.86706 0.76294 0.42691 0.0
C142 C 0.79515 0.67556 0.40177 0.0
C143 C 0.77964 0.69017 0.42163 0.0
C144 C 0.62527 0.8447 0.86567 0.0
C145 C 0.6193 0.84529 0.89716 0.0
C146 C 0.62694 0.8249 0.91571 0.0
C147 C 0.64124 0.80496 0.90313 0.0
H148 H 0.69933 0.75328 0.92599 0.0
H149 H 0.72969 0.72918 0.95542 0.0
H150 H 0.74917 0.68527 0.87448 0.0
H151 H 0.71865 0.70872 0.84545 0.0
H152 H 0.73603 0.75159 0.78877 0.0
H153 H 0.76707 0.77183 0.74668 0.0
H154 H 0.71138 0.82966 0.73155 0.0
H155 H 0.68063 0.80998 0.77453 0.0
H156 H 0.64401 0.82538 0.82876 0.0
H157 H 0.6192 0.85982 0.85072 0.0
H158 H 0.62271 0.82491 0.9401 0.0
H159 H 0.64754 0.79004 0.91817 0.0
N160 N 0.67547 0.76723 0.87616 0.0
N161 N 0.70176 0.75435 0.83416 0.0
N162 N 0.67456 0.78854 0.82862 0.0
C163 C 0.69329 0.75118 0.86397 0.0
C164 C 0.69257 0.77292 0.81629 0.0
C165 C 0.66568 0.78575 0.85839 0.0
C166 C 0.70684 0.73317 0.88329 0.0
C167 C 0.70952 0.73795 0.91471 0.0
C168 C 0.72712 0.72434 0.9315 0.0
C169 C 0.74212 0.70552 0.91723 0.0
C170 C 0.73781 0.69944 0.8863 0.0
C171 C 0.72042 0.71309 0.86956 0.0
C172 C 0.70632 0.77976 0.78576 0.0
C173 C 0.7299 0.76817 0.77608 0.0
C174 C 0.74768 0.77967 0.75166 0.0
C175 C 0.74212 0.80285 0.73621 0.0
C176 C 0.71667 0.81229 0.74356 0.0
C177 C 0.69897 0.80092 0.76816 0.0
C178 C 0.64809 0.80496 0.8717 0.0
C179 C 0.6394 0.82478 0.8531 0.0
C180 C 0.71927 0.18942 0.36264 0.0
C181 C 0.68991 0.18653 0.3577 0.0
C182 C 0.67158 0.19243 0.38153 0.0
C183 C 0.68233 0.20064 0.40992 0.0
H184 H 0.65708 0.2152 0.49634 0.0
H185 H 0.62587 0.23668 0.52877 0.0
H186 H 0.69716 0.27137 0.58396 0.0
H187 H 0.72897 0.25025 0.55043 0.0
H188 H 0.78411 0.21373 0.53588 0.0
H189 H 0.8278 0.19724 0.5467 0.0
H190 H 0.84584 0.19002 0.45032 0.0
H191 H 0.80227 0.20631 0.4393 0.0
H192 H 0.75272 0.19911 0.39425 0.0
H193 H 0.73384 0.18475 0.34474 0.0
H194 H 0.64889 0.19065 0.37822 0.0
H195 H 0.66752 0.20475 0.42786 0.0
N196 N 0.70535 0.21723 0.46824 0.0
N197 N 0.74255 0.22192 0.50252 0.0
N198 N 0.75014 0.20907 0.45182 0.0
C199 C 0.71502 0.22314 0.49664 0.0
C200 C 0.76024 0.21484 0.48009 0.0
C201 C 0.72275 0.21026 0.44569 0.0
C202 C 0.69565 0.23168 0.52027 0.0
C203 C 0.66614 0.22702 0.51565 0.0
C204 C 0.64806 0.23905 0.53468 0.0
C205 C 0.65899 0.25606 0.55891 0.0
C206 C 0.68814 0.25872 0.56521 0.0
C207 C 0.70634 0.24658 0.54605 0.0
C208 C 0.78929 0.21065 0.48675 0.0
C209 C 0.79771 0.20928 0.51696 0.0
C210 C 0.82281 0.19997 0.52319 0.0
C211 C 0.83985 0.19194 0.49932 0.0
C212 C 0.83276 0.19564 0.46912 0.0
C213 C 0.80776 0.20495 0.46288 0.0
C214 C 0.71163 0.20296 0.41513 0.0
C215 C 0.73003 0.19748 0.39109 0.0
C216 C 0.25335 0.64229 0.20584 0.0
C217 C 0.24819 0.64758 0.17527 0.0
C218 C 0.26922 0.66602 0.15852 0.0
C219 C 0.29445 0.67916 0.17204 0.0
H220 H 0.35296 0.75171 0.16525 0.0
H221 H 0.37585 0.79597 0.14374 0.0
H222 H 0.43309 0.80892 0.21864 0.0
H223 H 0.41063 0.764 0.23975 0.0
H224 H 0.41489 0.70591 0.27918 0.0
H225 H 0.43466 0.68433 0.32126 0.0
H226 H 0.35641 0.62402 0.33093 0.0
H227 H 0.33656 0.64559 0.28899 0.0
H228 H 0.28216 0.6504 0.24277 0.0
H229 H 0.23767 0.6281 0.21936 0.0
H230 H 0.26591 0.67073 0.13501 0.0
H231 H 0.30994 0.69343 0.15841 0.0
N232 N 0.34079 0.7128 0.20515 0.0
N233 N 0.37572 0.71518 0.24192 0.0
N234 N 0.33724 0.67735 0.24135 0.0
C235 C 0.36521 0.72659 0.21753 0.0
C236 C 0.36196 0.69048 0.25398 0.0
C237 C 0.32658 0.6883 0.21682 0.0
C238 C 0.37981 0.75396 0.2044 0.0
C239 C 0.37045 0.76388 0.17726 0.0
C240 C 0.38353 0.78958 0.16494 0.0
C241 C 0.40641 0.8065 0.17934 0.0
C242 C 0.41584 0.79655 0.20649 0.0
C243 C 0.40282 0.7707 0.21877 0.0
C244 C 0.374 0.67764 0.28037 0.0
C245 C 0.40178 0.6881 0.29027 0.0
C246 C 0.41326 0.67556 0.31439 0.0
C247 C 0.39727 0.65228 0.32972 0.0
C248 C 0.36938 0.64202 0.32005 0.0
C249 C 0.358 0.65438 0.29573 0.0
C250 C 0.29975 0.67382 0.20258 0.0
C251 C 0.27893 0.65498 0.21922 0.0
C252 C 0.1301 0.29233 0.67019 0.0
C253 C 0.11192 0.27248 0.68827 0.0
C254 C 0.10652 0.27888 0.71895 0.0
C255 C 0.11889 0.30464 0.73112 0.0
H256 H 0.10116 0.37233 0.78997 0.0
H257 H 0.07981 0.39583 0.83115 0.0
H258 H 0.15734 0.45739 0.83407 0.0
H259 H 0.17829 0.43445 0.79246 0.0
H260 H 0.22594 0.43857 0.73759 0.0
H261 H 0.27075 0.4608 0.71179 0.0
H262 H 0.26401 0.3926 0.64892 0.0
H263 H 0.21935 0.37078 0.67404 0.0
H264 H 0.15698 0.33231 0.66778 0.0
H265 H 0.13487 0.28802 0.64657 0.0
H266 H 0.0925 0.26406 0.73343 0.0
H267 H 0.11436 0.30893 0.7548 0.0
N268 N 0.14075 0.36304 0.75029 0.0
N269 N 0.17953 0.4006 0.74757 0.0
N270 N 0.17712 0.36443 0.71249 0.0
C271 C 0.15431 0.38787 0.76129 0.0
C272 C 0.19114 0.389 0.72317 0.0
C273 C 0.15207 0.35121 0.7258 0.0
C274 C 0.1415 0.40144 0.78754 0.0
C275 C 0.11373 0.39084 0.79941 0.0
C276 C 0.10148 0.40431 0.82327 0.0
C277 C 0.11665 0.42876 0.8361 0.0
C278 C 0.14462 0.43901 0.82454 0.0
C279 C 0.15679 0.42565 0.80065 0.0
C280 C 0.21874 0.40283 0.70795 0.0
C281 C 0.23398 0.42833 0.71822 0.0
C282 C 0.25982 0.44105 0.7035 0.0
C283 C 0.27104 0.42867 0.67804 0.0
C284 C 0.25587 0.40311 0.66801 0.0
C285 C 0.23018 0.39044 0.68267 0.0
C286 C 0.13749 0.3243 0.71307 0.0
C287 C 0.14288 0.31772 0.68246 0.0
Sm288 Sm 0.01573 0.05571 0.52298 0.0
Sm289 Sm 0.99819 1.02715 0.58383 0.0
C290 C 0.02353 0.08183 0.47019 0.0
C291 C 0.04669 0.1035 0.45838 0.0
C292 C 0.04828 0.11096 0.4276 0.0
C293 C 0.07179 0.12991 0.41595 0.0
C294 C 0.09411 0.14151 0.43494 0.0
C295 C 0.0919 0.13448 0.46603 0.0
C296 C 0.06838 0.11564 0.47763 0.0
C297 C 0.05929 0.0374 0.55093 0.0
C298 C 0.03303 0.08979 0.58531 0.0
C299 C 0.98644 0.99294 0.63086 0.0
C300 C 0.96566 0.96731 0.63651 0.0
C301 C 0.96678 0.95195 0.66299 0.0
C302 C 0.94474 0.9297 0.67046 0.0
C303 C 0.92127 0.92257 0.65151 0.0
C304 C 0.92108 0.93718 0.62417 0.0
C305 C 0.94303 0.95944 0.61683 0.0
C306 C 0.96333 0.06165 0.56532 0.0
C307 C 0.97877 0.99214 0.52142 0.0
O308 O 0.00782 0.08912 0.49274 0.0
O309 O 0.03083 0.05793 0.47461 0.0
O310 O 0.03389 1.02464 0.54966 0.0
O311 O 0.06281 0.06052 0.53617 0.0
O312 O 0.02408 0.09159 0.55736 0.0
O313 O 0.03039 0.06555 0.59907 0.0
O314 O 0.00718 0.99183 0.61086 0.0
O315 O 0.97521 1.01485 0.6277 0.0
O316 O 0.97362 0.04502 0.54849 0.0
O317 O 0.97028 0.05971 0.59336 0.0
O318 O 0.97611 0.99333 0.55143 0.0
O319 O 0.99309 1.01319 0.50524 0.0
H320 H 0.03166 0.10175 0.41249 0.0
H321 H 0.07264 0.13522 0.392 0.0
H322 H 0.10883 0.14274 0.48119 0.0
H323 H 0.06748 0.10998 0.5015 0.0
H324 H 0.98411 0.95778 0.67843 0.0
H325 H 0.9456 0.91862 0.69152 0.0
H326 H 0.90317 0.93247 0.60931 0.0
H327 H 0.94161 0.97132 0.5965 0.0
Sm328 Sm 0.53766 0.03693 0.05526 0.0
Sm329 Sm 0.48171 1.02225 1.02983 0.0
C330 C 0.5869 0.06042 0.07851 0.0
C331 C 0.59715 0.07597 0.10574 0.0
C332 C 0.58301 0.09611 0.11829 0.0
C333 C 0.59293 0.11021 0.14459 0.0
C334 C 0.61701 0.10425 0.15885 0.0
C335 C 0.63101 0.084 0.14615 0.0
C336 C 0.62119 0.07006 0.11979 0.0
C337 C 0.506 0.98803 0.07904 0.0
C338 C 0.48485 0.06375 0.08486 0.0
C339 C 0.43372 0.99669 1.00578 0.0
C340 C 0.42711 0.98403 0.97605 0.0
C341 C 0.40289 0.96326 0.97306 0.0
C342 C 0.39694 0.95072 0.94485 0.0
C343 C 0.41511 0.95895 0.91926 0.0
C344 C 0.43951 0.97964 0.92246 0.0
C345 C 0.44557 0.99196 0.95069 0.0
C346 C 0.51317 0.07086 1.00534 0.0
C347 C 0.5347 0.99604 0.99943 0.0
O348 O 0.57333 0.07274 0.05914 0.0
O349 O 0.57525 0.03454 0.08285 0.0
O350 O 0.4964 1.00995 0.07515 0.0
O351 O 0.53275 0.99164 0.07052 0.0
O352 O 0.51267 0.06744 0.07905 0.0
O353 O 0.46748 0.04308 0.07248 0.0
O354 O 0.44928 0.98421 1.02276 0.0
O355 O 0.44186 1.02349 1.00581 0.0
O356 O 0.52298 0.04917 1.01001 0.0
O357 O 0.48607 0.06682 1.01237 0.0
O358 O 0.50689 0.99254 1.00495 0.0
O359 O 0.55214 1.01609 1.01266 0.0
H360 H 0.5643 0.1009 0.10786 0.0
H361 H 0.58184 0.12589 0.15361 0.0
H362 H 0.64927 0.07853 0.15687 0.0
H363 H 0.63221 0.05442 0.11051 0.0
H364 H 0.38861 0.95676 0.99253 0.0
H365 H 0.37789 0.93495 0.9429 0.0
H366 H 0.45402 0.98611 0.90317 0.0
H367 H 0.46467 1.00767 0.95274 0.0
Sm368 Sm 0.51256 0.51179 0.53222 0.0
Sm369 Sm 0.50455 0.56074 0.57453 0.0
C370 C 0.53699 0.4765 0.50117 0.0
C371 C 0.54073 0.44922 0.51119 0.0
C372 C 0.55684 0.43366 0.49353 0.0
C373 C 0.56312 0.40933 0.50536 0.0
C374 C 0.55374 0.40067 0.53512 0.0
C375 C 0.53688 0.41589 0.55232 0.0
C376 C 0.5302 0.43985 0.54031 0.0
C377 C 0.46092 0.49691 0.56496 0.0
C378 C 0.53082 0.51202 0.60548 0.0
C379 C 0.48318 0.60046 0.6011 0.0
C380 C 0.46098 0.61484 0.59019 0.0
C381 C 0.434 0.61072 0.60519 0.0
C382 C 0.41153 0.62083 0.59261 0.0
C383 C 0.4157 0.63539 0.56487 0.0
C384 C 0.4429 0.64018 0.55031 0.0
C385 C 0.46529 0.62995 0.56276 0.0
C386 C 0.5577 0.56535 0.54609 0.0
C387 C 0.48227 0.55872 0.50269 0.0
O388 O 0.55157 0.49693 0.51657 0.0
O389 O 0.51048 0.47907 0.49713 0.0
O390 O 0.47864 0.51926 0.5664 0.0
O391 O 0.47017 0.48132 0.54464 0.0
O392 O 0.53334 0.50252 0.57741 0.0
O393 O 0.51815 0.53321 0.61129 0.0
O394 O 0.47433 0.57442 0.60823 0.0
O395 O 0.50773 0.605 0.58579 0.0
O396 O 0.53402 0.55669 0.53397 0.0
O397 O 0.55375 0.57244 0.57425 0.0
O398 O 0.48056 0.56839 0.53081 0.0
O399 O 0.49591 0.53827 0.49641 0.0
H400 H 0.56524 0.44074 0.47111 0.0
H401 H 0.57636 0.39793 0.49181 0.0
H402 H 0.52933 0.40951 0.57522 0.0
H403 H 0.51758 0.45161 0.55418 0.0
H404 H 0.43008 0.59904 0.62624 0.0
H405 H 0.39092 0.61734 0.60466 0.0
H406 H 0.44669 0.65126 0.52886 0.0
H407 H 0.48571 0.63322 0.55034 0.0
Sm408 Sm 0.00902 0.50696 0.0714 0.0
Sm409 Sm 1.00135 0.56495 1.04432 0.0
C410 C 0.02797 0.4623 0.08751 0.0
C411 C 0.05589 0.45397 0.09021 0.0
C412 C 0.07792 0.46097 0.06782 0.0
C413 C 0.10444 0.45335 0.07137 0.0
C414 C 0.1095 0.43897 0.09754 0.0
C415 C 0.08739 0.43203 0.11984 0.0
C416 C 0.06083 0.43939 0.11614 0.0
C417 C 0.97863 0.5378 0.10794 0.0
C418 C 0.06121 0.56221 0.07737 0.0
C419 C 0.98154 0.61122 1.04001 0.0
C420 C 0.9601 0.62181 1.02282 0.0
C421 C 0.95567 0.64866 1.02824 0.0
C422 C 0.93255 0.6577 1.01566 0.0
C423 C 0.91335 0.63991 0.99757 0.0
C424 C 0.91851 0.61325 0.99135 0.0
C425 C 0.94172 0.60429 1.00387 0.0
C426 C 0.02555 0.53519 0.99985 0.0
C427 C 0.95216 0.50826 1.0321 0.0
O428 O 0.0198 0.46625 0.05999 0.0
O429 O 0.02224 0.48072 0.10708 0.0
O430 O 1.00068 0.54697 0.09153 0.0
O431 O 0.9724 0.51101 0.10629 0.0
O432 O 0.05391 0.53488 0.07639 0.0
O433 O 0.04375 0.57848 0.06882 0.0
O434 O 0.97094 0.59127 0.05911 0.0
O435 O 0.00476 0.60721 1.02508 0.0
O436 O 0.0181 0.5283 1.02693 0.0
O437 O 0.02025 0.55973 0.99519 0.0
O438 O 0.95874 0.53561 1.03315 0.0
O439 O 0.96905 0.49245 1.04308 0.0
H440 H 0.07475 0.47251 0.04774 0.0
H441 H 0.12117 0.45916 0.05396 0.0
H442 H 0.09056 0.4207 0.14009 0.0
H443 H 0.04416 0.43384 0.13369 0.0
H444 H 0.96948 0.66231 1.04314 0.0
H445 H 0.92903 0.67822 1.02116 0.0
H446 H 0.90435 0.59919 0.97718 0.0
H447 H 0.94479 0.5834 0.9996 0.0
H448 H 0.22947 0.2763 0.37203 0.0
H449 H 0.25677 0.20163 0.34189 0.0
H450 H 0.18795 0.24861 0.39854 0.0
H451 H 0.2164 0.17422 0.36971 0.0
H452 H 0.12251 0.13534 0.3811 0.0
H453 H 0.16611 0.16392 0.36036 0.0
H454 H 0.16994 0.21632 0.43973 0.0
H455 H 0.12533 0.18832 0.45992 0.0
C456 C 0.22693 0.25404 0.37149 0.0
C457 C 0.24633 0.24125 0.35448 0.0
C458 C 0.20327 0.23817 0.38692 0.0
C459 C 0.19861 0.20921 0.38576 0.0
C460 C 0.21903 0.1965 0.37047 0.0
C461 C 0.24251 0.21229 0.35492 0.0
C462 C 0.13236 0.15318 0.39396 0.0
C463 C 0.12034 0.1596 0.42211 0.0
C464 C 0.15766 0.16932 0.38231 0.0
C465 C 0.17172 0.19221 0.39858 0.0
C466 C 0.1596 0.19886 0.42661 0.0
C467 C 0.13418 0.18269 0.43828 0.0
H468 H 0.39633 0.92321 0.72585 0.0
H469 H 0.33048 0.86399 0.77222 0.0
H470 H 0.41572 0.93929 0.77478 0.0
H471 H 0.34913 0.88052 0.82116 0.0
H472 H 0.39945 0.9043 0.90538 0.0
H473 H 0.38691 0.88408 0.85571 0.0
H474 H 0.40197 0.9658 0.81592 0.0
H475 H 0.41525 0.98572 0.86529 0.0
C476 C 0.38611 0.9136 0.74657 0.0
C477 C 0.36189 0.89246 0.74535 0.0
C478 C 0.39708 0.92286 0.77458 0.0
C479 C 0.38381 0.91141 0.80195 0.0
C480 C 0.36014 0.88958 0.80057 0.0
C481 C 0.34939 0.88012 0.77255 0.0
C482 C 0.40012 0.91783 0.88592 0.0
C483 C 0.40827 0.94653 0.8891 0.0
C484 C 0.39291 0.9063 0.8575 0.0
C485 C 0.39342 0.9233 0.83178 0.0
C486 C 0.4019 0.95202 0.83505 0.0
C487 C 0.40937 0.96349 0.86336 0.0
H488 H 0.56682 0.39905 0.7462 0.0
H489 H 0.63592 0.46968 0.75133 0.0
H490 H 0.54708 0.42122 0.70483 0.0
H491 H 0.61479 0.49229 0.7113 0.0
H492 H 0.54705 0.53338 0.66162 0.0
H493 H 0.56771 0.51113 0.70287 0.0
H494 H 0.56234 0.43725 0.64897 0.0
H495 H 0.54239 0.45963 0.60749 0.0
C496 C 0.5781 0.41915 0.73867 0.0
C497 C 0.60338 0.43217 0.75269 0.0
C498 C 0.56647 0.43199 0.7149 0.0
C499 C 0.57924 0.45861 0.70468 0.0
C500 C 0.60416 0.47191 0.71878 0.0
C501 C 0.6162 0.45884 0.74208 0.0
C502 C 0.55025 0.51239 0.65852 0.0
C503 C 0.54298 0.49839 0.63107 0.0
C504 C 0.56225 0.49967 0.68216 0.0
C505 C 0.5667 0.47234 0.67935 0.0
C506 C 0.55908 0.45823 0.65206 0.0
C507 C 0.54773 0.47115 0.62818 0.0
H508 H 0.94818 0.66219 0.24234 0.0
H509 H 0.87241 0.59828 0.25015 0.0
H510 H 0.96796 0.63566 0.20338 0.0
H511 H 0.89074 0.57337 0.20905 0.0
H512 H 0.93962 0.51904 0.15384 0.0
H513 H 0.92088 0.54537 0.19393 0.0
H514 H 0.96922 0.6209 0.1543 0.0
H515 H 0.98967 0.59401 0.11577 0.0
C516 C 0.93554 0.64258 0.23584 0.0
C517 C 0.90846 0.63272 0.24994 0.0
C518 C 0.94677 0.62743 0.21279 0.0
C519 C 0.93117 0.60205 0.20249 0.0
C520 C 0.90396 0.59241 0.21635 0.0
C521 C 0.89302 0.60722 0.23981 0.0
C522 C 0.94621 0.54129 0.1537 0.0
C523 C 0.96596 0.55438 0.13135 0.0
C524 C 0.93522 0.55659 0.17668 0.0
C525 C 0.94314 0.58564 0.17775 0.0
C526 C 0.96275 0.59868 0.15498 0.0
C527 C 0.97423 0.58325 0.1324 0.0
H528 H 0.44009 0.21988 0.13382 0.0
H529 H 0.38466 0.16243 0.19377 0.0
H530 H 0.46193 0.18219 0.11371 0.0
H531 H 0.40689 0.12499 0.17425 0.0
H532 H 0.42902 0.06222 0.1029 0.0
H533 H 0.40849 0.09915 0.1264 0.0
H534 H 0.49275 0.14998 0.13002 0.0
H535 H 0.51335 0.11316 0.10622 0.0
C536 C 0.4326 0.19923 0.1427 0.0
C537 C 0.4107 0.19416 0.16542 0.0
C538 C 0.4453 0.1777 0.13144 0.0
C539 C 0.43618 0.15062 0.14248 0.0
C540 C 0.41426 0.14558 0.16515 0.0
C541 C 0.40172 0.16709 0.17652 0.0
C542 C 0.44324 0.08112 0.10903 0.0
C543 C 0.47283 0.08472 0.1026 0.0
C544 C 0.43146 0.10228 0.12257 0.0
C545 C 0.44898 0.12757 0.12985 0.0
C546 C 0.47866 0.13088 0.12425 0.0
C547 C 0.49047 0.10965 0.11088 0.0
H548 H 0.17838 0.93028 0.52864 0.0
H549 H 0.20724 0.97415 0.61067 0.0
H550 H 0.14086 0.95742 0.52535 0.0
H551 H 0.17057 1.00219 0.60612 0.0
H552 H 0.11548 0.06109 0.55573 0.0
H553 H 0.15563 0.03714 0.5619 0.0
H554 H 0.09659 0.95916 0.56717 0.0
H555 H 0.05654 0.9829 0.5618 0.0
C556 C 0.1769 0.94576 0.54584 0.0
C557 C 0.19569 0.94977 0.57011 0.0
C558 C 0.15555 0.96134 0.54382 0.0
C559 C 0.15293 0.98161 0.56562 0.0
C560 C 0.1724 0.98668 0.58902 0.0
C561 C 0.19347 0.97073 0.59142 0.0
C562 C 0.11116 0.03888 0.55866 0.0
C563 C 0.08306 1.02377 0.5581 0.0
C564 C 0.13401 1.02528 0.56216 0.0
C565 C 0.12898 0.99642 0.56457 0.0
C566 C 0.10085 0.98144 0.56498 0.0
C567 C 0.07803 0.99503 0.56208 0.0
H568 H 0.81821 0.39758 0.93504 0.0
H569 H 0.78076 0.46879 0.95563 0.0
H570 H 0.86172 0.41916 0.95978 0.0
H571 H 0.824 0.49023 0.98108 0.0
H572 H 0.91525 0.53322 1.00043 0.0
H573 H 0.87197 0.51186 0.97528 0.0
H574 H 0.88317 0.43173 1.00608 0.0
H575 H 0.92711 0.45311 1.03028 0.0
C576 C 0.81911 0.41777 0.94512 0.0
C577 C 0.79575 0.43133 0.94323 0.0
C578 C 0.84417 0.43021 0.9595 0.0
C579 C 0.84675 0.4566 0.97277 0.0
C580 C 0.82334 0.47016 0.97081 0.0
C581 C 0.79834 0.45779 0.95619 0.0
C582 C 0.90854 0.51102 1.00192 0.0
C583 C 0.92495 0.495 1.0175 0.0
C584 C 0.88342 0.49869 0.98755 0.0
C585 C 0.87365 0.46986 0.9884 0.0
C586 C 0.89 0.45388 1.00426 0.0
C587 C 0.91525 0.46622 1.01845 0.0
H588 H 0.72382 0.65872 0.48965 0.0
H589 H 0.70124 0.60647 0.41173 0.0
H590 H 0.67965 0.63743 0.51594 0.0
H591 H 0.65786 0.58362 0.43906 0.0
H592 H 0.56719 0.56947 0.48418 0.0
H593 H 0.61194 0.58837 0.45644 0.0
H594 H 0.65566 0.59834 0.54146 0.0
H595 H 0.61064 0.58074 0.56901 0.0
C596 C 0.7095 0.64266 0.47801 0.0
C597 C 0.71631 0.63463 0.44826 0.0
C598 C 0.6842 0.62999 0.49344 0.0
C599 C 0.66493 0.60853 0.4799 0.0
C600 C 0.67184 0.60024 0.45027 0.0
C601 C 0.69708 0.61315 0.43466 0.0
C602 C 0.58646 0.57554 0.49685 0.0
C603 C 0.58535 0.57384 0.52881 0.0
C604 C 0.61224 0.5863 0.48093 0.0
C605 C 0.63767 0.59532 0.49656 0.0
C606 C 0.63657 0.59242 0.52852 0.0
C607 C 0.61075 0.58204 0.54439 0.0
H608 H 0.24014 0.34241 0.11502 0.0
H609 H 0.27616 0.41887 0.15915 0.0
H610 H 0.20138 0.36332 0.09701 0.0
H611 H 0.23714 0.43962 0.14143 0.0
H612 H 0.14079 0.44553 0.1486 0.0
H613 H 0.18559 0.43033 0.15727 0.0
H614 H 0.18707 0.40006 0.06497 0.0
H615 H 0.14185 0.41509 0.05639 0.0
C616 C 0.24028 0.3639 0.12016 0.0
C617 C 0.26109 0.37885 0.13886 0.0
C618 C 0.21798 0.37587 0.1099 0.0
C619 C 0.21598 0.40298 0.1182 0.0
C620 C 0.23782 0.4185 0.13517 0.0
C621 C 0.26016 0.40661 0.14529 0.0
C622 C 0.15073 0.43571 0.13013 0.0
C623 C 0.13773 0.43132 0.1019 0.0
C624 C 0.17655 0.42727 0.13497 0.0
C625 C 0.18991 0.41405 0.11177 0.0
C626 C 0.1772 0.41009 0.0833 0.0
C627 C 0.15145 0.41883 0.07834 0.0
H628 H 0.5694 0.21769 0.89119 0.0
H629 H 0.62681 0.22905 0.96611 0.0
H630 H 0.5462 0.17313 0.91224 0.0
H631 H 0.60429 0.18385 0.98614 0.0
H632 H 0.57153 0.08819 0.99594 0.0
H633 H 0.59676 0.13214 0.97354 0.0
H634 H 0.51574 0.15592 0.95896 0.0
H635 H 0.49078 0.11258 0.98167 0.0
C636 C 0.57715 0.21096 0.91217 0.0
C637 C 0.60016 0.22758 0.92678 0.0
C638 C 0.56385 0.18514 0.92416 0.0
C639 C 0.57334 0.17476 0.95092 0.0
C640 C 0.59662 0.19097 0.96528 0.0
C641 C 0.60965 0.217 0.95359 0.0
C642 C 0.55917 0.1028 0.98787 0.0
C643 C 0.52911 0.09679 0.99061 0.0
C644 C 0.5736 0.12805 0.97515 0.0
C645 C 0.55831 0.14764 0.96431 0.0
C646 C 0.52826 0.14131 0.96671 0.0
C647 C 0.51393 0.11643 0.97988 0.0
H648 H 0.91702 0.81823 0.48154 0.0
H649 H 0.91361 0.85743 0.39456 0.0
H650 H 0.93539 0.86285 0.50416 0.0
H651 H 0.93131 0.90242 0.41731 0.0
H652 H 0.98801 0.97689 0.4621 0.0
H653 H 0.97029 0.93268 0.43788 0.0
H654 H 0.92253 0.90388 0.5208 0.0
H655 H 0.9411 0.94756 0.54517 0.0
C656 C 0.91999 0.83645 0.46725 0.0
C657 C 0.91366 0.83413 0.4362 0.0
C658 C 0.93043 0.86221 0.48029 0.0
C659 C 0.93465 0.88663 0.46282 0.0
C660 C 0.92872 0.88424 0.43159 0.0
C661 C 0.91851 0.85836 0.41846 0.0
C662 C 0.9736 0.96118 0.47512 0.0
C663 C 0.96615 0.96593 0.50572 0.0
C664 C 0.96329 0.93573 0.46114 0.0
C665 C 0.94503 0.91429 0.47728 0.0
C666 C 0.93705 0.91942 0.50767 0.0
C667 C 0.94754 0.94472 0.52168 0.0
H668 H 0.31071 0.74761 0.50938 0.0
H669 H 0.26755 0.69632 0.58281 0.0
H670 H 0.33933 0.71293 0.49708 0.0
H671 H 0.29721 0.66244 0.57178 0.0
H672 H 0.36004 0.60935 0.55926 0.0
H673 H 0.31988 0.63021 0.54477 0.0
H674 H 0.37826 0.70752 0.52737 0.0
H675 H 0.41797 0.68659 0.54122 0.0
C676 C 0.30649 0.72846 0.52215 0.0
C677 C 0.28759 0.72506 0.54775 0.0
C678 C 0.32318 0.7087 0.51533 0.0
C679 C 0.32144 0.68547 0.53423 0.0
C680 C 0.29943 0.68019 0.55687 0.0
C681 C 0.28253 0.69977 0.56343 0.0
C682 C 0.36419 0.63069 0.55186 0.0
C683 C 0.39201 0.64654 0.5519 0.0
C684 C 0.34125 0.64258 0.54342 0.0
C685 C 0.34572 0.67061 0.53515 0.0
C686 C 0.37391 0.68577 0.5331 0.0
C687 C 0.39678 0.67385 0.54132 0.0
H688 H 0.77936 0.78523 0.69446 0.0
H689 H 0.75749 0.85883 0.73488 0.0
H690 H 0.823 0.81308 0.67149 0.0
H691 H 0.80022 0.88639 0.71126 0.0
H692 H 0.89578 0.91764 0.70807 0.0
H693 H 0.8511 0.88787 0.72423 0.0
H694 H 0.84292 0.85259 0.63415 0.0
H695 H 0.88834 0.8822 0.61795 0.0
C696 C 0.78352 0.80734 0.69792 0.0
C697 C 0.76501 0.81973 0.71673 0.0
C698 C 0.80839 0.82327 0.68465 0.0
C699 C 0.8152 0.85178 0.69013 0.0
C700 C 0.79574 0.86435 0.70715 0.0
C701 C 0.77098 0.84855 0.72031 0.0
C702 C 0.88482 0.90318 0.69182 0.0
C703 C 0.89563 0.90224 0.66175 0.0
C704 C 0.859 0.88642 0.70096 0.0
C705 C 0.84334 0.86827 0.68028 0.0
C706 C 0.85455 0.86648 0.65049 0.0
C707 C 0.88043 0.88346 0.64124 0.0
H708 H 0.71114 0.203 0.30077 0.0
H709 H 0.64264 0.14725 0.34792 0.0
H710 H 0.69283 0.18519 0.252 0.0
H711 H 0.62458 0.12908 0.29932 0.0
H712 H 0.58491 0.1182 0.20729 0.0
H713 H 0.60186 0.14054 0.25447 0.0
H714 H 0.68925 0.14374 0.22237 0.0
H715 H 0.67235 0.12284 0.17457 0.0
C716 C 0.69222 0.18688 0.30066 0.0
C717 C 0.6783 0.1765 0.32808 0.0
C718 C 0.68176 0.17664 0.27277 0.0
C719 C 0.65726 0.15569 0.27177 0.0
C720 C 0.6432 0.14555 0.29925 0.0
C721 C 0.65356 0.1559 0.3271 0.0
C722 C 0.60774 0.12413 0.21008 0.0
C723 C 0.62727 0.11867 0.18719 0.0
C724 C 0.61745 0.13661 0.23728 0.0
C725 C 0.6469 0.1438 0.24226 0.0
C726 C 0.66643 0.13874 0.21916 0.0
C727 C 0.65673 0.12641 0.19191 0.0
H728 H 0.37073 0.63112 0.38376 0.0
H729 H 0.452 0.64232 0.33422 0.0
H730 H 0.39059 0.60843 0.42496 0.0
H731 H 0.47198 0.62006 0.37562 0.0
H732 H 0.48997 0.55281 0.44072 0.0
H733 H 0.46954 0.57513 0.39966 0.0
H734 H 0.42442 0.61721 0.46601 0.0
H735 H 0.4446 0.59462 0.50703 0.0
C736 C 0.39283 0.62872 0.38154 0.0
C737 C 0.40964 0.63866 0.3554 0.0
C738 C 0.40435 0.61589 0.40541 0.0
C739 C 0.433 0.61224 0.40385 0.0
C740 C 0.44978 0.62214 0.37769 0.0
C741 C 0.43835 0.63523 0.35397 0.0
C742 C 0.47561 0.56673 0.44663 0.0
C743 C 0.46911 0.57187 0.47741 0.0
C744 C 0.46402 0.57977 0.42298 0.0
C745 C 0.44529 0.59819 0.42926 0.0
C746 C 0.43852 0.60305 0.46007 0.0
C747 C 0.45032 0.5902 0.48372 0.0
H748 H 0.07983 0.4072 0.88391 0.0
H749 H 0.12298 0.48483 0.84484 0.0
H750 H 0.05754 0.432 0.92323 0.0
H751 H 0.10202 0.50945 0.88491 0.0
H752 H 0.03744 0.54771 0.94003 0.0
H753 H 0.05863 0.52167 0.90129 0.0
H754 H 0.0651 0.45953 0.96829 0.0
H755 H 0.04293 0.48551 1.00689 0.0
C756 C 0.08464 0.42953 0.88362 0.0
C757 C 0.10332 0.44384 0.8609 0.0
C758 C 0.07209 0.44382 0.90653 0.0
C759 C 0.07778 0.47289 0.90746 0.0
C760 C 0.09663 0.48714 0.88488 0.0
C761 C 0.10908 0.47289 0.86199 0.0
C762 C 0.04335 0.52847 0.94652 0.0
C763 C 0.03849 0.51872 0.97662 0.0
C764 C 0.05575 0.51355 0.92428 0.0
C765 C 0.06393 0.48842 0.93144 0.0
C766 C 0.05887 0.47857 0.96165 0.0
C767 C 0.04628 0.49352 0.98392 0.0
H768 H 0.63294 0.9003 0.88395 0.0
H769 H 0.57606 0.84113 0.94074 0.0
H770 H 0.61164 0.93748 0.9059 0.0
H771 H 0.55511 0.87846 0.96318 0.0
H772 H 0.50546 0.94852 0.97466 0.0
H773 H 0.52534 0.91241 0.94845 0.0
H774 H 0.61041 0.96079 0.95591 0.0
H775 H 0.59061 0.99702 0.98199 0.0
C776 C 0.61575 0.89522 0.901 0.0
C777 C 0.60611 0.86776 0.91056 0.0
C778 C 0.60375 0.91655 0.91375 0.0
C779 C 0.58169 0.9109 0.93623 0.0
C780 C 0.57188 0.88342 0.94566 0.0
C781 C 0.58405 0.86209 0.93305 0.0
C782 C 0.52839 0.95163 0.97043 0.0
C783 C 0.54647 0.97563 0.98055 0.0
C784 C 0.53977 0.93083 0.95561 0.0
C785 C 0.56944 0.93365 0.95036 0.0
C786 C 0.58743 0.95808 0.95947 0.0
C787 C 0.57608 0.97881 0.97449 0.0
H788 H 0.88233 0.20383 0.54047 0.0
H789 H 0.8471 0.14377 0.47358 0.0
H790 H 0.91569 0.17441 0.55465 0.0
H791 H 0.87935 0.11408 0.48823 0.0
H792 H 0.95147 0.07147 0.50673 0.0
H793 H 0.92643 0.10653 0.48845 0.0
H794 H 0.9135 0.13239 0.5813 0.0
H795 H 0.9401 0.09846 0.59919 0.0
C796 C 0.88192 0.18444 0.52869 0.0
C797 C 0.8623 0.17611 0.50586 0.0
C798 C 0.90084 0.16752 0.53688 0.0
C799 C 0.90013 0.14178 0.52269 0.0
C800 C 0.88097 0.13394 0.49926 0.0
C801 C 0.86239 0.15096 0.49086 0.0
C802 C 0.94354 0.08491 0.52311 0.0
C803 C 0.94769 0.08235 0.55431 0.0
C804 C 0.92902 0.10487 0.51271 0.0
C805 C 0.91785 0.12229 0.5334 0.0
C806 C 0.92224 0.11973 0.56465 0.0
C807 C 0.93716 0.10005 0.57497 0.0
H808 H 0.19308 0.64414 0.19764 0.0
H809 H 0.24153 0.62108 0.12019 0.0
H810 H 0.14846 0.6238 0.17332 0.0
H811 H 0.19692 0.6003 0.09611 0.0
H812 H 0.10899 0.53914 0.08302 0.0
H813 H 0.15417 0.5594 0.10624 0.0
H814 H 0.12206 0.63393 0.12519 0.0
H815 H 0.07716 0.614 0.10146 0.0
C816 C 0.19421 0.63453 0.17554 0.0
C817 C 0.22093 0.63428 0.16089 0.0
C818 C 0.16864 0.62304 0.1615 0.0
C819 C 0.16906 0.61043 0.13271 0.0
C820 C 0.19579 0.60972 0.11832 0.0
C821 C 0.22135 0.62176 0.13206 0.0
C822 C 0.11161 0.55993 0.09192 0.0
C823 C 0.08935 0.57493 0.09018 0.0
C824 C 0.13756 0.57157 0.10518 0.0
C825 C 0.14175 0.59827 0.11772 0.0
C826 C 0.11951 0.61325 0.11599 0.0
C827 C 0.09381 0.60186 0.10215 0.0
H828 H 0.32076 0.45707 0.70245 0.0
H829 H 0.28343 0.43089 0.61657 0.0
H830 H 0.36625 0.47577 0.67566 0.0
H831 H 0.32868 0.4493 0.59003 0.0
H832 H 0.42094 0.45065 0.55803 0.0
H833 H 0.37537 0.43654 0.58555 0.0
H834 H 0.39181 0.5113 0.63872 0.0
H835 H 0.43805 0.52536 0.611 0.0
C836 C 0.32208 0.45558 0.67787 0.0
C837 C 0.29839 0.44204 0.6618 0.0
C838 C 0.34821 0.46633 0.66249 0.0
C839 C 0.35133 0.46376 0.63067 0.0
C840 C 0.32733 0.45112 0.61459 0.0
C841 C 0.30131 0.44048 0.62988 0.0
C842 C 0.41488 0.46419 0.57552 0.0
C843 C 0.43311 0.48922 0.5822 0.0
C844 C 0.38859 0.45615 0.59123 0.0
C845 C 0.37966 0.47285 0.61425 0.0
C846 C 0.39802 0.49786 0.62122 0.0
C847 C 0.42444 0.50602 0.60525 0.0
H848 H 0.7816 0.73268 0.95587 0.0
H849 H 0.75333 0.65307 0.9145 0.0
H850 H 0.82174 0.71612 0.97711 0.0
H851 H 0.79418 0.63686 0.93467 0.0
H852 H 0.85884 0.60988 0.99686 0.0
H853 H 0.81588 0.62484 0.98044 0.0
H854 H 0.86616 0.70492 0.95705 0.0
H855 H 0.90905 0.68999 0.97362 0.0
C856 C 0.78367 0.7115 0.9517 0.0
C857 C 0.76428 0.69423 0.93339 0.0
C858 C 0.80696 0.70214 0.96349 0.0
C859 C 0.81143 0.67529 0.95724 0.0
C860 C 0.79135 0.65763 0.94003 0.0
C861 C 0.76805 0.66699 0.92826 0.0
C862 C 0.86076 0.63059 0.98791 0.0
C863 C 0.88739 0.64874 0.98649 0.0
C864 C 0.83612 0.63918 0.97858 0.0
C865 C 0.83751 0.66613 0.96759 0.0
C866 C 0.86419 0.68421 0.96599 0.0
C867 C 0.88882 0.67563 0.97536 0.0
H868 H 0.38157 0.84407 0.14838 0.0
H869 H 0.46327 0.83211 0.17947 0.0
H870 H 0.4046 0.88741 0.12441 0.0
H871 H 0.48597 0.87613 0.15706 0.0
H872 H 0.52497 0.93999 0.08593 0.0
H873 H 0.50073 0.89732 0.1101 0.0
H874 H 0.42712 0.93429 0.13093 0.0
H875 H 0.45142 0.97704 0.10562 0.0
C876 C 0.40445 0.85058 0.15021 0.0
C877 C 0.42041 0.83409 0.16585 0.0
C878 C 0.41767 0.87583 0.13673 0.0
C879 C 0.44735 0.88557 0.13845 0.0
C880 C 0.46319 0.86933 0.1546 0.0
C881 C 0.45001 0.84407 0.16796 0.0
C882 C 0.5036 0.93909 0.09566 0.0
C883 C 0.49025 0.96209 0.09391 0.0
C884 C 0.48968 0.91454 0.10984 0.0
C885 C 0.46189 0.91208 0.12298 0.0
C886 C 0.44837 0.9351 0.12095 0.0
C887 C 0.46235 0.95975 0.10657 0.0
H888 H 0.11089 0.22049 0.71092 0.0
H889 H 0.08372 0.26299 0.63515 0.0
H890 H 0.09289 0.17618 0.68684 0.0
H891 H 0.06437 0.21902 0.61168 0.0
H892 H 0.05726 0.13945 0.55993 0.0
H893 H 0.07623 0.18244 0.58533 0.0
H894 H 0.05461 0.14252 0.67278 0.0
H895 H 0.03703 0.09899 0.64697 0.0
C896 C 0.10062 0.22031 0.68931 0.0
C897 C 0.09892 0.24528 0.67487 0.0
C898 C 0.09016 0.19484 0.67545 0.0
C899 C 0.07727 0.19361 0.64692 0.0
C900 C 0.07483 0.21877 0.63309 0.0
C901 C 0.08573 0.24414 0.64669 0.0
C902 C 0.05665 0.1398 0.5846 0.0
C903 C 0.04554 0.11572 0.60137 0.0
C904 C 0.06734 0.16466 0.59931 0.0
C905 C 0.06675 0.16648 0.63137 0.0
C906 C 0.05587 0.14217 0.64814 0.0
C907 C 0.04563 0.11711 0.63334 0.0
H908 H 0.6016 0.24423 0.57489 0.0
H909 H 0.67568 0.31029 0.57426 0.0
H910 H 0.57051 0.2782 0.57901 0.0
H911 H 0.64465 0.34376 0.57977 0.0
H912 H 0.58056 0.3996 0.58851 0.0
H913 H 0.60233 0.3622 0.60787 0.0
H914 H 0.56996 0.31127 0.53198 0.0
H915 H 0.54872 0.34873 0.51244 0.0
C916 C 0.61129 0.26585 0.57676 0.0
C917 C 0.64112 0.27457 0.5732 0.0
C918 C 0.59347 0.28521 0.57926 0.0
C919 C 0.60526 0.31351 0.57908 0.0
C920 C 0.63504 0.32202 0.57997 0.0
C921 C 0.65286 0.30272 0.57693 0.0
C922 C 0.57761 0.38013 0.57643 0.0
C923 C 0.56324 0.37694 0.5489 0.0
C924 C 0.58999 0.35884 0.58751 0.0
C925 C 0.5876 0.33389 0.57152 0.0
C926 C 0.5717 0.33017 0.54499 0.0
C927 C 0.55984 0.35162 0.53362 0.0
loop_
_geom_bond_atom_site_label_1
_geom_bond_atom_site_label_2
_geom_bond_distance
_geom_bond_site_symmetry_2
_ccdc_geom_bond_type
C0 C1 1.384 . S
C0 H13 0.947 . S
C0 C35 1.382 . S
C1 C0 1.384 . S
C1 C2 1.378 . S
C2 C1 1.378 . S
C2 C3 1.378 . S
C2 H14 0.952 . S
C3 C2 1.378 . S
C3 H15 0.950 . S
C3 C34 1.383 . S
H4 C23 0.947 . S
H5 C24 0.946 . S
H6 C26 0.953 . S
H7 C27 0.945 . S
H8 C29 0.952 . S
H9 C30 0.949 . S
H10 C32 0.950 . S
H11 C33 0.948 . S
H12 C35 0.951 . S
H13 C0 0.947 . S
H14 C2 0.952 . S
H15 C3 0.950 . S
N16 C19 1.382 . S
N16 C21 1.363 . S
N17 C19 1.371 . S
N17 C20 1.372 . S
N18 C20 1.361 . S
N18 C21 1.377 . S
C19 N16 1.382 . S
C19 N17 1.371 . S
C19 C22 1.480 . S
C20 N17 1.372 . S
C20 N18 1.361 . S
C20 C28 1.457 . S
C21 N16 1.363 . S
C21 N18 1.377 . S
C21 C34 1.479 . S
C22 C19 1.480 . S
C22 C23 1.383 . S
C22 C27 1.385 . S
C23 H4 0.947 . S
C23 C22 1.383 . S
C23 C24 1.388 . S
C24 H5 0.946 . S
C24 C23 1.388 . S
C24 C25 1.384 . S
C25 C24 1.384 . S
C25 C26 1.377 . S
C26 H6 0.953 . S
C26 C25 1.377 . S
C26 C27 1.369 . S
C27 H7 0.945 . S
C27 C22 1.385 . S
C27 C26 1.369 . S
C28 C20 1.457 . S
C28 C29 1.372 . S
C28 C33 1.364 . S
C29 H8 0.952 . S
C29 C28 1.372 . S
C29 C30 1.389 . S
C30 H9 0.949 . S
C30 C29 1.389 . S
C30 C31 1.387 . S
C31 C30 1.387 . S
C31 C32 1.372 . S
C32 H10 0.950 . S
C32 C31 1.372 . S
C32 C33 1.379 . S
C33 H11 0.948 . S
C33 C28 1.364 . S
C33 C32 1.379 . S
C34 C3 1.383 . S
C34 C21 1.479 . S
C34 C35 1.398 . S
C35 C0 1.382 . S
C35 H12 0.951 . S
C35 C34 1.398 . S
C36 C37 1.384 . S
C36 H49 0.947 . S
C36 C71 1.382 . S
C37 C36 1.384 . S
C37 C38 1.378 . S
C38 C37 1.378 . S
C38 C39 1.378 . S
C38 H50 0.952 . S
C39 C38 1.378 . S
C39 H51 0.950 . S
C39 C70 1.383 . S
H40 C59 0.947 . S
H41 C60 0.946 . S
H42 C62 0.953 . S
H43 C63 0.945 . S
H44 C65 0.952 . S
H45 C66 0.949 . S
H46 C68 0.950 . S
H47 C69 0.948 . S
H48 C71 0.951 . S
H49 C36 0.947 . S
H50 C38 0.952 . S
H51 C39 0.950 . S
N52 C55 1.382 . S
N52 C57 1.363 . S
N53 C55 1.371 . S
N53 C56 1.372 . S
N54 C56 1.361 . S
N54 C57 1.377 . S
C55 N52 1.382 . S
C55 N53 1.371 . S
C55 C58 1.480 . S
C56 N53 1.372 . S
C56 N54 1.361 . S
C56 C64 1.457 . S
C57 N52 1.363 . S
C57 N54 1.377 . S
C57 C70 1.479 . S
C58 C55 1.480 . S
C58 C59 1.383 . S
C58 C63 1.385 . S
C59 H40 0.947 . S
C59 C58 1.383 . S
C59 C60 1.388 . S
C60 H41 0.946 . S
C60 C59 1.388 . S
C60 C61 1.384 . S
C61 C60 1.384 . S
C61 C62 1.377 . S
C62 H42 0.953 . S
C62 C61 1.377 . S
C62 C63 1.369 . S
C63 H43 0.945 . S
C63 C58 1.385 . S
C63 C62 1.369 . S
C64 C56 1.457 . S
C64 C65 1.372 . S
C64 C69 1.364 . S
C65 H44 0.952 . S
C65 C64 1.372 . S
C65 C66 1.389 . S
C66 H45 0.949 . S
C66 C65 1.389 . S
C66 C67 1.387 . S
C67 C66 1.387 . S
C67 C68 1.372 . S
C68 H46 0.950 . S
C68 C67 1.372 . S
C68 C69 1.379 . S
C69 H47 0.948 . S
C69 C64 1.364 . S
C69 C68 1.379 . S
C70 C39 1.383 . S
C70 C57 1.479 . S
C70 C71 1.398 . S
C71 C36 1.382 . S
C71 H48 0.951 . S
C71 C70 1.398 . S
C72 C73 1.384 . S
C72 H85 0.947 . S
C72 C107 1.382 . S
C73 C72 1.384 . S
C73 C74 1.378 . S
C74 C73 1.378 . S
C74 C75 1.378 . S
C74 H86 0.952 . S
C75 C74 1.378 . S
C75 H87 0.950 . S
C75 C106 1.383 . S
H76 C95 0.947 . S
H77 C96 0.946 . S
H78 C98 0.953 . S
H79 C99 0.945 . S
H80 C101 0.952 . S
H81 C102 0.949 . S
H82 C104 0.950 . S
H83 C105 0.948 . S
H84 C107 0.951 . S
H85 C72 0.947 . S
H86 C74 0.952 . S
H87 C75 0.950 . S
N88 C91 1.382 . S
N88 C93 1.363 . S
N89 C91 1.371 . S
N89 C92 1.372 . S
N90 C92 1.361 . S
N90 C93 1.377 . S
C91 N88 1.382 . S
C91 N89 1.371 . S
C91 C94 1.480 . S
C92 N89 1.372 . S
C92 N90 1.361 . S
C92 C100 1.457 . S
C93 N88 1.363 . S
C93 N90 1.377 . S
C93 C106 1.479 . S
C94 C91 1.480 . S
C94 C95 1.383 . S
C94 C99 1.385 . S
C95 H76 0.947 . S
C95 C94 1.383 . S
C95 C96 1.388 . S
C96 H77 0.946 . S
C96 C95 1.388 . S
C96 C97 1.384 . S
C97 C96 1.384 . S
C97 C98 1.377 . S
C98 H78 0.953 . S
C98 C97 1.377 . S
C98 C99 1.369 . S
C99 H79 0.945 . S
C99 C94 1.385 . S
C99 C98 1.369 . S
C100 C92 1.457 . S
C100 C101 1.372 . S
C100 C105 1.364 . S
C101 H80 0.952 . S
C101 C100 1.372 . S
C101 C102 1.389 . S
C102 H81 0.949 . S
C102 C101 1.389 . S
C102 C103 1.387 . S
C103 C102 1.387 . S
C103 C104 1.372 . S
C104 H82 0.950 . S
C104 C103 1.372 . S
C104 C105 1.379 . S
C105 H83 0.948 . S
C105 C100 1.364 . S
C105 C104 1.379 . S
C106 C75 1.383 . S
C106 C93 1.479 . S
C106 C107 1.398 . S
C107 C72 1.382 . S
C107 H84 0.951 . S
C107 C106 1.398 . S
C108 C109 1.384 . S
C108 H121 0.947 . S
C108 C143 1.382 . S
C109 C108 1.384 . S
C109 C110 1.378 . S
C110 C109 1.378 . S
C110 C111 1.378 . S
C110 H122 0.952 . S
C111 C110 1.378 . S
C111 H123 0.950 . S
C111 C142 1.383 . S
H112 C131 0.947 . S
H113 C132 0.946 . S
H114 C134 0.953 . S
H115 C135 0.945 . S
H116 C137 0.952 . S
H117 C138 0.949 . S
H118 C140 0.950 . S
H119 C141 0.948 . S
H120 C143 0.951 . S
H121 C108 0.947 . S
H122 C110 0.952 . S
H123 C111 0.950 . S
N124 C127 1.382 . S
N124 C129 1.363 . S
N125 C127 1.371 . S
N125 C128 1.372 . S
N126 C128 1.361 . S
N126 C129 1.377 . S
C127 N124 1.382 . S
C127 N125 1.371 . S
C127 C130 1.480 . S
C128 N125 1.372 . S
C128 N126 1.361 . S
C128 C136 1.457 . S
C129 N124 1.363 . S
C129 N126 1.377 . S
C129 C142 1.479 . S
C130 C127 1.480 . S
C130 C131 1.383 . S
C130 C135 1.385 . S
C131 H112 0.947 . S
C131 C130 1.383 . S
C131 C132 1.388 . S
C132 H113 0.946 . S
C132 C131 1.388 . S
C132 C133 1.384 . S
C133 C132 1.384 . S
C133 C134 1.377 . S
C134 H114 0.953 . S
C134 C133 1.377 . S
C134 C135 1.369 . S
C135 H115 0.945 . S
C135 C130 1.385 . S
C135 C134 1.369 . S
C136 C128 1.457 . S
C136 C137 1.372 . S
C136 C141 1.364 . S
C137 H116 0.952 . S
C137 C136 1.372 . S
C137 C138 1.389 . S
C138 H117 0.949 . S
C138 C137 1.389 . S
C138 C139 1.387 . S
C139 C138 1.387 . S
C139 C140 1.372 . S
C140 H118 0.950 . S
C140 C139 1.372 . S
C140 C141 1.379 . S
C141 H119 0.948 . S
C141 C136 1.364 . S
C141 C140 1.379 . S
C142 C111 1.383 . S
C142 C129 1.479 . S
C142 C143 1.398 . S
C143 C108 1.382 . S
C143 H120 0.951 . S
C143 C142 1.398 . S
C144 C145 1.384 . S
C144 H157 0.947 . S
C144 C179 1.382 . S
C145 C144 1.384 . S
C145 C146 1.378 . S
C146 C145 1.378 . S
C146 C147 1.378 . S
C146 H158 0.952 . S
C147 C146 1.378 . S
C147 H159 0.950 . S
C147 C178 1.383 . S
H148 C167 0.947 . S
H149 C168 0.946 . S
H150 C170 0.953 . S
H151 C171 0.945 . S
H152 C173 0.952 . S
H153 C174 0.949 . S
H154 C176 0.950 . S
H155 C177 0.948 . S
H156 C179 0.951 . S
H157 C144 0.947 . S
H158 C146 0.952 . S
H159 C147 0.950 . S
N160 C163 1.382 . S
N160 C165 1.363 . S
N161 C163 1.371 . S
N161 C164 1.372 . S
N162 C164 1.361 . S
N162 C165 1.377 . S
C163 N160 1.382 . S
C163 N161 1.371 . S
C163 C166 1.480 . S
C164 N161 1.372 . S
C164 N162 1.361 . S
C164 C172 1.457 . S
C165 N160 1.363 . S
C165 N162 1.377 . S
C165 C178 1.479 . S
C166 C163 1.480 . S
C166 C167 1.383 . S
C166 C171 1.385 . S
C167 H148 0.947 . S
C167 C166 1.383 . S
C167 C168 1.388 . S
C168 H149 0.946 . S
C168 C167 1.388 . S
C168 C169 1.384 . S
C169 C168 1.384 . S
C169 C170 1.377 . S
C170 H150 0.953 . S
C170 C169 1.377 . S
C170 C171 1.369 . S
C171 H151 0.945 . S
C171 C166 1.385 . S
C171 C170 1.369 . S
C172 C164 1.457 . S
C172 C173 1.372 . S
C172 C177 1.364 . S
C173 H152 0.952 . S
C173 C172 1.372 . S
C173 C174 1.389 . S
C174 H153 0.949 . S
C174 C173 1.389 . S
C174 C175 1.387 . S
C175 C174 1.387 . S
C175 C176 1.372 . S
C176 H154 0.950 . S
C176 C175 1.372 . S
C176 C177 1.379 . S
C177 H155 0.948 . S
C177 C172 1.364 . S
C177 C176 1.379 . S
C178 C147 1.383 . S
C178 C165 1.479 . S
C178 C179 1.398 . S
C179 C144 1.382 . S
C179 H156 0.951 . S
C179 C178 1.398 . S
C180 C181 1.384 . S
C180 H193 0.947 . S
C180 C215 1.382 . S
C181 C180 1.384 . S
C181 C182 1.378 . S
C182 C181 1.378 . S
C182 C183 1.378 . S
C182 H194 0.952 . S
C183 C182 1.378 . S
C183 H195 0.950 . S
C183 C214 1.383 . S
H184 C203 0.947 . S
H185 C204 0.946 . S
H186 C206 0.953 . S
H187 C207 0.945 . S
H188 C209 0.952 . S
H189 C210 0.949 . S
H190 C212 0.950 . S
H191 C213 0.948 . S
H192 C215 0.951 . S
H193 C180 0.947 . S
H194 C182 0.952 . S
H195 C183 0.950 . S
N196 C199 1.382 . S
N196 C201 1.363 . S
N197 C199 1.371 . S
N197 C200 1.372 . S
N198 C200 1.361 . S
N198 C201 1.377 . S
C199 N196 1.382 . S
C199 N197 1.371 . S
C199 C202 1.480 . S
C200 N197 1.372 . S
C200 N198 1.361 . S
C200 C208 1.457 . S
C201 N196 1.363 . S
C201 N198 1.377 . S
C201 C214 1.479 . S
C202 C199 1.480 . S
C202 C203 1.383 . S
C202 C207 1.385 . S
C203 H184 0.947 . S
C203 C202 1.383 . S
C203 C204 1.388 . S
C204 H185 0.946 . S
C204 C203 1.388 . S
C204 C205 1.384 . S
C205 C204 1.384 . S
C205 C206 1.377 . S
C206 H186 0.953 . S
C206 C205 1.377 . S
C206 C207 1.369 . S
C207 H187 0.945 . S
C207 C202 1.385 . S
C207 C206 1.369 . S
C208 C200 1.457 . S
C208 C209 1.372 . S
C208 C213 1.364 . S
C209 H188 0.952 . S
C209 C208 1.372 . S
C209 C210 1.389 . S
C210 H189 0.949 . S
C210 C209 1.389 . S
C210 C211 1.387 . S
C211 C210 1.387 . S
C211 C212 1.372 . S
C212 H190 0.950 . S
C212 C211 1.372 . S
C212 C213 1.379 . S
C213 H191 0.948 . S
C213 C208 1.364 . S
C213 C212 1.379 . S
C214 C183 1.383 . S
C214 C201 1.479 . S
C214 C215 1.398 . S
C215 C180 1.382 . S
C215 H192 0.951 . S
C215 C214 1.398 . S
C216 C217 1.384 . S
C216 H229 0.947 . S
C216 C251 1.382 . S
C217 C216 1.384 . S
C217 C218 1.378 . S
C218 C217 1.378 . S
C218 C219 1.378 . S
C218 H230 0.952 . S
C219 C218 1.378 . S
C219 H231 0.950 . S
C219 C250 1.383 . S
H220 C239 0.947 . S
H221 C240 0.946 . S
H222 C242 0.953 . S
H223 C243 0.945 . S
H224 C245 0.952 . S
H225 C246 0.949 . S
H226 C248 0.950 . S
H227 C249 0.948 . S
H228 C251 0.951 . S
H229 C216 0.947 . S
H230 C218 0.952 . S
H231 C219 0.950 . S
N232 C235 1.382 . S
N232 C237 1.363 . S
N233 C235 1.371 . S
N233 C236 1.372 . S
N234 C236 1.361 . S
N234 C237 1.377 . S
C235 N232 1.382 . S
C235 N233 1.371 . S
C235 C238 1.480 . S
C236 N233 1.372 . S
C236 N234 1.361 . S
C236 C244 1.457 . S
C237 N232 1.363 . S
C237 N234 1.377 . S
C237 C250 1.479 . S
C238 C235 1.480 . S
C238 C239 1.383 . S
C238 C243 1.385 . S
C239 H220 0.947 . S
C239 C238 1.383 . S
C239 C240 1.388 . S
C240 H221 0.946 . S
C240 C239 1.388 . S
C240 C241 1.384 . S
C241 C240 1.384 . S
C241 C242 1.377 . S
C242 H222 0.953 . S
C242 C241 1.377 . S
C242 C243 1.369 . S
C243 H223 0.945 . S
C243 C238 1.385 . S
C243 C242 1.369 . S
C244 C236 1.457 . S
C244 C245 1.372 . S
C244 C249 1.364 . S
C245 H224 0.952 . S
C245 C244 1.372 . S
C245 C246 1.389 . S
C246 H225 0.949 . S
C246 C245 1.389 . S
C246 C247 1.387 . S
C247 C246 1.387 . S
C247 C248 1.372 . S
C248 H226 0.950 . S
C248 C247 1.372 . S
C248 C249 1.379 . S
C249 H227 0.948 . S
C249 C244 1.364 . S
C249 C248 1.379 . S
C250 C219 1.383 . S
C250 C237 1.479 . S
C250 C251 1.398 . S
C251 C216 1.382 . S
C251 H228 0.951 . S
C251 C250 1.398 . S
C252 C253 1.384 . S
C252 H265 0.947 . S
C252 C287 1.382 . S
C253 C252 1.384 . S
C253 C254 1.378 . S
C254 C253 1.378 . S
C254 C255 1.378 . S
C254 H266 0.952 . S
C255 C254 1.378 . S
C255 H267 0.950 . S
C255 C286 1.383 . S
H256 C275 0.947 . S
H257 C276 0.946 . S
H258 C278 0.953 . S
H259 C279 0.945 . S
H260 C281 0.952 . S
H261 C282 0.949 . S
H262 C284 0.950 . S
H263 C285 0.948 . S
H264 C287 0.951 . S
H265 C252 0.947 . S
H266 C254 0.952 . S
H267 C255 0.950 . S
N268 C271 1.382 . S
N268 C273 1.363 . S
N269 C271 1.371 . S
N269 C272 1.372 . S
N270 C272 1.361 . S
N270 C273 1.377 . S
C271 N268 1.382 . S
C271 N269 1.371 . S
C271 C274 1.480 . S
C272 N269 1.372 . S
C272 N270 1.361 . S
C272 C280 1.457 . S
C273 N268 1.363 . S
C273 N270 1.377 . S
C273 C286 1.479 . S
C274 C271 1.480 . S
C274 C275 1.383 . S
C274 C279 1.385 . S
C275 H256 0.947 . S
C275 C274 1.383 . S
C275 C276 1.388 . S
C276 H257 0.946 . S
C276 C275 1.388 . S
C276 C277 1.384 . S
C277 C276 1.384 . S
C277 C278 1.377 . S
C278 H258 0.953 . S
C278 C277 1.377 . S
C278 C279 1.369 . S
C279 H259 0.945 . S
C279 C274 1.385 . S
C279 C278 1.369 . S
C280 C272 1.457 . S
C280 C281 1.372 . S
C280 C285 1.364 . S
C281 H260 0.952 . S
C281 C280 1.372 . S
C281 C282 1.389 . S
C282 H261 0.949 . S
C282 C281 1.389 . S
C282 C283 1.387 . S
C283 C282 1.387 . S
C283 C284 1.372 . S
C284 H262 0.950 . S
C284 C283 1.372 . S
C284 C285 1.379 . S
C285 H263 0.948 . S
C285 C280 1.364 . S
C285 C284 1.379 . S
C286 C255 1.383 . S
C286 C273 1.479 . S
C286 C287 1.398 . S
C287 C252 1.382 . S
C287 H264 0.951 . S
C287 C286 1.398 . S
Sm288 C290 2.846 . S
Sm288 O308 2.543 . S
Sm288 O309 2.450 . S
Sm288 O310 2.681 1_545 S
Sm288 O311 2.464 1_545 S
Sm288 O312 2.396 . S
Sm288 O316 2.386 1_455 S
Sm288 O319 2.408 1_445 S
Sm289 C299 2.846 . S
Sm289 O310 2.386 1_655 S
Sm289 O313 2.408 1_665 S
Sm289 O314 2.543 . S
Sm289 O315 2.450 . S
Sm289 O316 2.681 1_565 S
Sm289 O317 2.464 1_565 S
Sm289 O318 2.396 . S
C290 Sm288 2.846 . S
C290 C291 1.506 . S
C290 O308 1.261 . S
C290 O309 1.242 . S
C291 C290 1.506 . S
C291 C292 1.358 . S
C291 C296 1.382 . S
C292 C291 1.358 . S
C292 C293 1.385 . S
C292 H320 0.930 . S
C293 C292 1.385 . S
C293 C294 1.395 . S
C293 H321 0.929 . S
C294 C293 1.395 . S
C294 C295 1.335 . S
C295 C294 1.335 . S
C295 C296 1.398 . S
C295 H322 0.930 . S
C296 C291 1.382 . S
C296 C295 1.398 . S
C296 H323 0.929 . S
C297 O310 1.271 . S
C297 O311 1.251 . S
C298 O312 1.252 . S
C298 O313 1.272 . S
C299 Sm289 2.846 . S
C299 C300 1.506 . S
C299 O314 1.261 . S
C299 O315 1.242 . S
C300 C299 1.506 . S
C300 C301 1.358 . S
C300 C305 1.382 . S
C301 C300 1.358 . S
C301 C302 1.385 . S
C301 H324 0.930 . S
C302 C301 1.385 . S
C302 C303 1.395 . S
C302 H325 0.929 . S
C303 C302 1.395 . S
C303 C304 1.335 . S
C304 C303 1.335 . S
C304 C305 1.398 . S
C304 H326 0.930 . S
C305 C300 1.382 . S
C305 C304 1.398 . S
C305 H327 0.929 . S
C306 O316 1.271 . S
C306 O317 1.251 . S
C307 O318 1.252 . S
C307 O319 1.272 . S
O308 Sm288 2.543 . S
O308 C290 1.261 . S
O309 Sm288 2.450 . S
O309 C290 1.242 . S
O310 Sm288 2.681 1_565 S
O310 Sm289 2.386 1_455 S
O310 C297 1.271 . S
O311 Sm288 2.464 1_565 S
O311 C297 1.251 . S
O312 Sm288 2.396 . S
O312 C298 1.252 . S
O313 Sm289 2.408 1_445 S
O313 C298 1.272 . S
O314 Sm289 2.543 . S
O314 C299 1.261 . S
O315 Sm289 2.450 . S
O315 C299 1.242 . S
O316 Sm288 2.386 1_655 S
O316 Sm289 2.681 1_545 S
O316 C306 1.271 . S
O317 Sm289 2.464 1_545 S
O317 C306 1.251 . S
O318 Sm289 2.396 . S
O318 C307 1.252 . S
O319 Sm288 2.408 1_665 S
O319 C307 1.272 . S
H320 C292 0.930 . S
H321 C293 0.929 . S
H322 C295 0.930 . S
H323 C296 0.929 . S
H324 C301 0.930 . S
H325 C302 0.929 . S
H326 C304 0.930 . S
H327 C305 0.929 . S
Sm328 C330 2.845 1_565 S
Sm328 O348 2.540 1_565 S
Sm328 O349 2.450 1_565 S
Sm328 O350 2.682 . S
Sm328 O351 2.466 . S
Sm328 O352 2.394 1_565 S
Sm328 O356 2.384 1_564 S
Sm328 O359 2.410 1_554 S
Sm329 C339 2.846 1_545 S
Sm329 O350 2.386 1_546 S
Sm329 O353 2.408 1_556 S
Sm329 O354 2.543 1_545 S
Sm329 O355 2.450 1_545 S
Sm329 O356 2.681 . S
Sm329 O357 2.464 . S
Sm329 O358 2.396 1_545 S
C330 Sm328 2.845 1_545 S
C330 C331 1.506 . S
C330 O348 1.261 . S
C330 O349 1.242 . S
C331 C330 1.506 . S
C331 C332 1.358 . S
C331 C336 1.382 . S
C332 C331 1.358 . S
C332 C333 1.385 . S
C332 H360 0.930 . S
C333 C332 1.385 . S
C333 C334 1.395 . S
C333 H361 0.929 . S
C334 C333 1.395 . S
C334 C335 1.335 . S
C335 C334 1.335 . S
C335 C336 1.398 . S
C335 H362 0.930 . S
C336 C331 1.382 . S
C336 C335 1.398 . S
C336 H363 0.929 . S
C337 O350 1.271 . S
C337 O351 1.251 . S
C338 O352 1.252 . S
C338 O353 1.272 . S
C339 Sm329 2.846 1_565 S
C339 C340 1.506 . S
C339 O354 1.261 . S
C339 O355 1.242 . S
C340 C339 1.506 . S
C340 C341 1.358 . S
C340 C345 1.382 . S
C341 C340 1.358 . S
C341 C342 1.385 . S
C341 H364 0.930 . S
C342 C341 1.385 . S
C342 C343 1.395 . S
C342 H365 0.929 . S
C343 C342 1.395 . S
C343 C344 1.335 . S
C344 C343 1.335 . S
C344 C345 1.398 . S
C344 H366 0.930 . S
C345 C340 1.382 . S
C345 C344 1.398 . S
C345 H367 0.929 . S
C346 O356 1.271 . S
C346 O357 1.251 . S
C347 O358 1.252 . S
C347 O359 1.272 . S
O348 Sm328 2.540 1_545 S
O348 C330 1.261 . S
O349 Sm328 2.450 1_545 S
O349 C330 1.242 . S
O350 Sm328 2.682 . S
O350 Sm329 2.386 1_564 S
O350 C337 1.271 . S
O351 Sm328 2.466 . S
O351 C337 1.251 . S
O352 Sm328 2.394 1_545 S
O352 C338 1.252 . S
O353 Sm329 2.408 1_554 S
O353 C338 1.272 . S
O354 Sm329 2.543 1_565 S
O354 C339 1.261 . S
O355 Sm329 2.450 1_565 S
O355 C339 1.242 . S
O356 Sm328 2.384 1_546 S
O356 Sm329 2.681 . S
O356 C346 1.271 . S
O357 Sm329 2.464 . S
O357 C346 1.251 . S
O358 Sm329 2.396 1_565 S
O358 C347 1.252 . S
O359 Sm328 2.410 1_556 S
O359 C347 1.272 . S
H360 C332 0.930 . S
H361 C333 0.929 . S
H362 C335 0.930 . S
H363 C336 0.929 . S
H364 C341 0.930 . S
H365 C342 0.929 . S
H366 C344 0.930 . S
H367 C345 0.929 . S
Sm368 C370 2.846 . S
Sm368 O388 2.543 . S
Sm368 O389 2.450 . S
Sm368 O390 2.681 . S
Sm368 O391 2.464 . S
Sm368 O392 2.396 . S
Sm368 O396 2.386 . S
Sm368 O399 2.408 . S
Sm369 C379 2.846 . S
Sm369 O390 2.386 . S
Sm369 O393 2.408 . S
Sm369 O394 2.543 . S
Sm369 O395 2.450 . S
Sm369 O396 2.681 . S
Sm369 O397 2.464 . S
Sm369 O398 2.396 . S
C370 Sm368 2.846 . S
C370 C371 1.506 . S
C370 O388 1.261 . S
C370 O389 1.242 . S
C371 C370 1.506 . S
C371 C372 1.358 . S
C371 C376 1.382 . S
C372 C371 1.358 . S
C372 C373 1.385 . S
C372 H400 0.930 . S
C373 C372 1.385 . S
C373 C374 1.395 . S
C373 H401 0.929 . S
C374 C373 1.395 . S
C374 C375 1.335 . S
C375 C374 1.335 . S
C375 C376 1.398 . S
C375 H402 0.930 . S
C376 C371 1.382 . S
C376 C375 1.398 . S
C376 H403 0.929 . S
C377 O390 1.271 . S
C377 O391 1.251 . S
C378 O392 1.252 . S
C378 O393 1.272 . S
C379 Sm369 2.846 . S
C379 C380 1.506 . S
C379 O394 1.261 . S
C379 O395 1.242 . S
C380 C379 1.506 . S
C380 C381 1.358 . S
C380 C385 1.382 . S
C381 C380 1.358 . S
C381 C382 1.385 . S
C381 H404 0.930 . S
C382 C381 1.385 . S
C382 C383 1.395 . S
C382 H405 0.929 . S
C383 C382 1.395 . S
C383 C384 1.335 . S
C384 C383 1.335 . S
C384 C385 1.398 . S
C384 H406 0.930 . S
C385 C380 1.382 . S
C385 C384 1.398 . S
C385 H407 0.929 . S
C386 O396 1.271 . S
C386 O397 1.251 . S
C387 O398 1.252 . S
C387 O399 1.272 . S
O388 Sm368 2.543 . S
O388 C370 1.261 . S
O389 Sm368 2.450 . S
O389 C370 1.242 . S
O390 Sm368 2.681 . S
O390 Sm369 2.386 . S
O390 C377 1.271 . S
O391 Sm368 2.464 . S
O391 C377 1.251 . S
O392 Sm368 2.396 . S
O392 C378 1.252 . S
O393 Sm369 2.408 . S
O393 C378 1.272 . S
O394 Sm369 2.543 . S
O394 C379 1.261 . S
O395 Sm369 2.450 . S
O395 C379 1.242 . S
O396 Sm368 2.386 . S
O396 Sm369 2.681 . S
O396 C386 1.271 . S
O397 Sm369 2.464 . S
O397 C386 1.251 . S
O398 Sm369 2.396 . S
O398 C387 1.252 . S
O399 Sm368 2.408 . S
O399 C387 1.272 . S
H400 C372 0.930 . S
H401 C373 0.929 . S
H402 C375 0.930 . S
H403 C376 0.929 . S
H404 C381 0.930 . S
H405 C382 0.929 . S
H406 C384 0.930 . S
H407 C385 0.929 . S
Sm408 C410 2.846 . S
Sm408 O428 2.543 . S
Sm408 O429 2.450 . S
Sm408 O430 2.681 1_455 S
Sm408 O431 2.464 1_455 S
Sm408 O432 2.396 . S
Sm408 O436 2.386 1_554 S
Sm408 O439 2.408 1_454 S
Sm409 C419 2.853 . S
Sm409 O430 2.388 1_556 S
Sm409 O433 2.401 1_656 S
Sm409 O434 2.550 . S
Sm409 O435 2.454 . S
Sm409 O436 2.677 1_655 S
Sm409 O437 2.460 1_655 S
Sm409 O438 2.400 . S
C410 Sm408 2.846 . S
C410 C411 1.506 . S
C410 O428 1.261 . S
C410 O429 1.242 . S
C411 C410 1.506 . S
C411 C412 1.358 . S
C411 C416 1.382 . S
C412 C411 1.358 . S
C412 C413 1.385 . S
C412 H440 0.930 . S
C413 C412 1.385 . S
C413 C414 1.395 . S
C413 H441 0.929 . S
C414 C413 1.395 . S
C414 C415 1.335 . S
C415 C414 1.335 . S
C415 C416 1.398 . S
C415 H442 0.930 . S
C416 C411 1.382 . S
C416 C415 1.398 . S
C416 H443 0.929 . S
C417 O430 1.271 . S
C417 O431 1.251 . S
C418 O432 1.252 . S
C418 O433 1.272 . S
C419 Sm409 2.853 . S
C419 C420 1.506 . S
C419 O434 1.261 . S
C419 O435 1.242 . S
C420 C419 1.506 . S
C420 C421 1.358 . S
C420 C425 1.382 . S
C421 C420 1.358 . S
C421 C422 1.385 . S
C421 H444 0.930 . S
C422 C421 1.385 . S
C422 C423 1.395 . S
C422 H445 0.929 . S
C423 C422 1.395 . S
C423 C424 1.335 . S
C424 C423 1.335 . S
C424 C425 1.398 . S
C424 H446 0.930 . S
C425 C420 1.382 . S
C425 C424 1.398 . S
C425 H447 0.929 . S
C426 O436 1.271 . S
C426 O437 1.251 . S
C427 O438 1.252 . S
C427 O439 1.272 . S
O428 Sm408 2.543 . S
O428 C410 1.261 . S
O429 Sm408 2.450 . S
O429 C410 1.242 . S
O430 Sm408 2.681 1_655 S
O430 Sm409 2.388 1_554 S
O430 C417 1.271 . S
O431 Sm408 2.464 1_655 S
O431 C417 1.251 . S
O432 Sm408 2.396 . S
O432 C418 1.252 . S
O433 Sm409 2.401 1_454 S
O433 C418 1.272 . S
O434 Sm409 2.550 . S
O434 C419 1.261 . S
O435 Sm409 2.454 . S
O435 C419 1.242 . S
O436 Sm408 2.386 1_556 S
O436 Sm409 2.677 1_455 S
O436 C426 1.271 . S
O437 Sm409 2.460 1_455 S
O437 C426 1.251 . S
O438 Sm409 2.400 . S
O438 C427 1.252 . S
O439 Sm408 2.408 1_656 S
O439 C427 1.272 . S
H440 C412 0.930 . S
H441 C413 0.929 . S
H442 C415 0.930 . S
H443 C416 0.929 . S
H444 C421 0.930 . S
H445 C422 0.929 . S
H446 C424 0.930 . S
H447 C425 0.929 . S
H448 C456 0.950 . S
H449 C461 0.950 . S
H450 C458 0.950 . S
H451 C460 0.950 . S
H452 C462 0.950 . S
H453 C464 0.950 . S
H454 C466 0.950 . S
H455 C467 0.950 . S
C456 H448 0.950 . S
C456 C457 1.386 . S
C456 C458 1.391 . S
C457 C456 1.386 . S
C457 C461 1.393 . S
C458 H450 0.950 . S
C458 C456 1.391 . S
C458 C459 1.400 . S
C459 C458 1.400 . S
C459 C460 1.398 . S
C459 C465 1.491 . S
C460 H451 0.950 . S
C460 C459 1.398 . S
C460 C461 1.391 . S
C461 H449 0.950 . S
C461 C457 1.393 . S
C461 C460 1.391 . S
C462 H452 0.950 . S
C462 C463 1.386 . S
C462 C464 1.391 . S
C463 C462 1.386 . S
C463 C467 1.393 . S
C464 H453 0.950 . S
C464 C462 1.391 . S
C464 C465 1.400 . S
C465 C459 1.491 . S
C465 C464 1.400 . S
C465 C466 1.398 . S
C466 H454 0.950 . S
C466 C465 1.398 . S
C466 C467 1.391 . S
C467 H455 0.950 . S
C467 C463 1.393 . S
C467 C466 1.391 . S
H468 C476 0.950 . S
H469 C481 0.950 . S
H470 C478 0.950 . S
H471 C480 0.950 . S
H472 C482 0.950 . S
H473 C484 0.950 . S
H474 C486 0.950 . S
H475 C487 0.950 . S
C476 H468 0.950 . S
C476 C477 1.386 . S
C476 C478 1.391 . S
C477 C476 1.386 . S
C477 C481 1.393 . S
C478 H470 0.950 . S
C478 C476 1.391 . S
C478 C479 1.400 . S
C479 C478 1.400 . S
C479 C480 1.398 . S
C479 C485 1.491 . S
C480 H471 0.950 . S
C480 C479 1.398 . S
C480 C481 1.391 . S
C481 H469 0.950 . S
C481 C477 1.393 . S
C481 C480 1.391 . S
C482 H472 0.950 . S
C482 C483 1.386 . S
C482 C484 1.391 . S
C483 C482 1.386 . S
C483 C487 1.393 . S
C484 H473 0.950 . S
C484 C482 1.391 . S
C484 C485 1.400 . S
C485 C479 1.491 . S
C485 C484 1.400 . S
C485 C486 1.398 . S
C486 H474 0.950 . S
C486 C485 1.398 . S
C486 C487 1.391 . S
C487 H475 0.950 . S
C487 C483 1.393 . S
C487 C486 1.391 . S
H488 C496 0.950 . S
H489 C501 0.950 . S
H490 C498 0.950 . S
H491 C500 0.950 . S
H492 C502 0.950 . S
H493 C504 0.950 . S
H494 C506 0.950 . S
H495 C507 0.950 . S
C496 H488 0.950 . S
C496 C497 1.386 . S
C496 C498 1.391 . S
C497 C496 1.386 . S
C497 C501 1.393 . S
C498 H490 0.950 . S
C498 C496 1.391 . S
C498 C499 1.400 . S
C499 C498 1.400 . S
C499 C500 1.398 . S
C499 C505 1.491 . S
C500 H491 0.950 . S
C500 C499 1.398 . S
C500 C501 1.391 . S
C501 H489 0.950 . S
C501 C497 1.393 . S
C501 C500 1.391 . S
C502 H492 0.950 . S
C502 C503 1.386 . S
C502 C504 1.391 . S
C503 C502 1.386 . S
C503 C507 1.393 . S
C504 H493 0.950 . S
C504 C502 1.391 . S
C504 C505 1.400 . S
C505 C499 1.491 . S
C505 C504 1.400 . S
C505 C506 1.398 . S
C506 H494 0.950 . S
C506 C505 1.398 . S
C506 C507 1.391 . S
C507 H495 0.950 . S
C507 C503 1.393 . S
C507 C506 1.391 . S
H508 C516 0.950 . S
H509 C521 0.950 . S
H510 C518 0.950 . S
H511 C520 0.950 . S
H512 C522 0.950 . S
H513 C524 0.950 . S
H514 C526 0.950 . S
H515 C527 0.950 . S
C516 H508 0.950 . S
C516 C517 1.386 . S
C516 C518 1.391 . S
C517 C516 1.386 . S
C517 C521 1.393 . S
C518 H510 0.950 . S
C518 C516 1.391 . S
C518 C519 1.400 . S
C519 C518 1.400 . S
C519 C520 1.398 . S
C519 C525 1.491 . S
C520 H511 0.950 . S
C520 C519 1.398 . S
C520 C521 1.391 . S
C521 H509 0.950 . S
C521 C517 1.393 . S
C521 C520 1.391 . S
C522 H512 0.950 . S
C522 C523 1.386 . S
C522 C524 1.391 . S
C523 C522 1.386 . S
C523 C527 1.393 . S
C524 H513 0.950 . S
C524 C522 1.391 . S
C524 C525 1.400 . S
C525 C519 1.491 . S
C525 C524 1.400 . S
C525 C526 1.398 . S
C526 H514 0.950 . S
C526 C525 1.398 . S
C526 C527 1.391 . S
C527 H515 0.950 . S
C527 C523 1.393 . S
C527 C526 1.391 . S
H528 C536 0.950 . S
H529 C541 0.950 . S
H530 C538 0.950 . S
H531 C540 0.950 . S
H532 C542 0.950 . S
H533 C544 0.950 . S
H534 C546 0.950 . S
H535 C547 0.950 . S
C536 H528 0.950 . S
C536 C537 1.386 . S
C536 C538 1.391 . S
C537 C536 1.386 . S
C537 C541 1.393 . S
C538 H530 0.950 . S
C538 C536 1.391 . S
C538 C539 1.400 . S
C539 C538 1.400 . S
C539 C540 1.398 . S
C539 C545 1.491 . S
C540 H531 0.950 . S
C540 C539 1.398 . S
C540 C541 1.391 . S
C541 H529 0.950 . S
C541 C537 1.393 . S
C541 C540 1.391 . S
C542 H532 0.950 . S
C542 C543 1.386 . S
C542 C544 1.391 . S
C543 C542 1.386 . S
C543 C547 1.393 . S
C544 H533 0.950 . S
C544 C542 1.391 . S
C544 C545 1.400 . S
C545 C539 1.491 . S
C545 C544 1.400 . S
C545 C546 1.398 . S
C546 H534 0.950 . S
C546 C545 1.398 . S
C546 C547 1.391 . S
C547 H535 0.950 . S
C547 C543 1.393 . S
C547 C546 1.391 . S
H548 C556 0.950 . S
H549 C561 0.950 . S
H550 C558 0.950 . S
H551 C560 0.950 . S
H552 C562 0.950 . S
H553 C564 0.950 . S
H554 C566 0.950 . S
H555 C567 0.950 . S
C556 H548 0.950 . S
C556 C557 1.386 . S
C556 C558 1.391 . S
C557 C556 1.386 . S
C557 C561 1.393 . S
C558 H550 0.950 . S
C558 C556 1.391 . S
C558 C559 1.400 . S
C559 C558 1.400 . S
C559 C560 1.398 . S
C559 C565 1.491 . S
C560 H551 0.950 . S
C560 C559 1.398 . S
C560 C561 1.391 . S
C561 H549 0.950 . S
C561 C557 1.393 . S
C561 C560 1.391 . S
C562 H552 0.950 . S
C562 C563 1.386 . S
C562 C564 1.391 . S
C563 C562 1.386 . S
C563 C567 1.393 . S
C564 H553 0.950 . S
C564 C562 1.391 . S
C564 C565 1.400 . S
C565 C559 1.491 . S
C565 C564 1.400 . S
C565 C566 1.398 . S
C566 H554 0.950 . S
C566 C565 1.398 . S
C566 C567 1.391 . S
C567 H555 0.950 . S
C567 C563 1.393 . S
C567 C566 1.391 . S
H568 C576 0.950 . S
H569 C581 0.950 . S
H570 C578 0.950 . S
H571 C580 0.950 . S
H572 C582 0.950 . S
H573 C584 0.950 . S
H574 C586 0.950 . S
H575 C587 0.950 . S
C576 H568 0.950 . S
C576 C577 1.386 . S
C576 C578 1.391 . S
C577 C576 1.386 . S
C577 C581 1.393 . S
C578 H570 0.950 . S
C578 C576 1.391 . S
C578 C579 1.400 . S
C579 C578 1.400 . S
C579 C580 1.398 . S
C579 C585 1.491 . S
C580 H571 0.950 . S
C580 C579 1.398 . S
C580 C581 1.391 . S
C581 H569 0.950 . S
C581 C577 1.393 . S
C581 C580 1.391 . S
C582 H572 0.950 . S
C582 C583 1.386 . S
C582 C584 1.391 . S
C583 C582 1.386 . S
C583 C587 1.393 . S
C584 H573 0.950 . S
C584 C582 1.391 . S
C584 C585 1.400 . S
C585 C579 1.491 . S
C585 C584 1.400 . S
C585 C586 1.398 . S
C586 H574 0.950 . S
C586 C585 1.398 . S
C586 C587 1.391 . S
C587 H575 0.950 . S
C587 C583 1.393 . S
C587 C586 1.391 . S
H588 C596 0.950 . S
H589 C601 0.950 . S
H590 C598 0.950 . S
H591 C600 0.950 . S
H592 C602 0.950 . S
H593 C604 0.950 . S
H594 C606 0.950 . S
H595 C607 0.950 . S
C596 H588 0.950 . S
C596 C597 1.386 . S
C596 C598 1.391 . S
C597 C596 1.386 . S
C597 C601 1.393 . S
C598 H590 0.950 . S
C598 C596 1.391 . S
C598 C599 1.400 . S
C599 C598 1.400 . S
C599 C600 1.398 . S
C599 C605 1.491 . S
C600 H591 0.950 . S
C600 C599 1.398 . S
C600 C601 1.391 . S
C601 H589 0.950 . S
C601 C597 1.393 . S
C601 C600 1.391 . S
C602 H592 0.950 . S
C602 C603 1.386 . S
C602 C604 1.391 . S
C603 C602 1.386 . S
C603 C607 1.393 . S
C604 H593 0.950 . S
C604 C602 1.391 . S
C604 C605 1.400 . S
C605 C599 1.491 . S
C605 C604 1.400 . S
C605 C606 1.398 . S
C606 H594 0.950 . S
C606 C605 1.398 . S
C606 C607 1.391 . S
C607 H595 0.950 . S
C607 C603 1.393 . S
C607 C606 1.391 . S
H608 C616 0.950 . S
H609 C621 0.950 . S
H610 C618 0.950 . S
H611 C620 0.950 . S
H612 C622 0.950 . S
H613 C624 0.950 . S
H614 C626 0.950 . S
H615 C627 0.950 . S
C616 H608 0.950 . S
C616 C617 1.386 . S
C616 C618 1.391 . S
C617 C616 1.386 . S
C617 C621 1.393 . S
C618 H610 0.950 . S
C618 C616 1.391 . S
C618 C619 1.400 . S
C619 C618 1.400 . S
C619 C620 1.398 . S
C619 C625 1.491 . S
C620 H611 0.950 . S
C620 C619 1.398 . S
C620 C621 1.391 . S
C621 H609 0.950 . S
C621 C617 1.393 . S
C621 C620 1.391 . S
C622 H612 0.950 . S
C622 C623 1.386 . S
C622 C624 1.391 . S
C623 C622 1.386 . S
C623 C627 1.393 . S
C624 H613 0.950 . S
C624 C622 1.391 . S
C624 C625 1.400 . S
C625 C619 1.491 . S
C625 C624 1.400 . S
C625 C626 1.398 . S
C626 H614 0.950 . S
C626 C625 1.398 . S
C626 C627 1.391 . S
C627 H615 0.950 . S
C627 C623 1.393 . S
C627 C626 1.391 . S
H628 C636 0.950 . S
H629 C641 0.950 . S
H630 C638 0.950 . S
H631 C640 0.950 . S
H632 C642 0.950 . S
H633 C644 0.950 . S
H634 C646 0.950 . S
H635 C647 0.950 . S
C636 H628 0.950 . S
C636 C637 1.386 . S
C636 C638 1.391 . S
C637 C636 1.386 . S
C637 C641 1.393 . S
C638 H630 0.950 . S
C638 C636 1.391 . S
C638 C639 1.400 . S
C639 C638 1.400 . S
C639 C640 1.398 . S
C639 C645 1.491 . S
C640 H631 0.950 . S
C640 C639 1.398 . S
C640 C641 1.391 . S
C641 H629 0.950 . S
C641 C637 1.393 . S
C641 C640 1.391 . S
C642 H632 0.950 . S
C642 C643 1.386 . S
C642 C644 1.391 . S
C643 C642 1.386 . S
C643 C647 1.393 . S
C644 H633 0.950 . S
C644 C642 1.391 . S
C644 C645 1.400 . S
C645 C639 1.491 . S
C645 C644 1.400 . S
C645 C646 1.398 . S
C646 H634 0.950 . S
C646 C645 1.398 . S
C646 C647 1.391 . S
C647 H635 0.950 . S
C647 C643 1.393 . S
C647 C646 1.391 . S
H648 C656 0.950 . S
H649 C661 0.950 . S
H650 C658 0.950 . S
H651 C660 0.950 . S
H652 C662 0.950 . S
H653 C664 0.950 . S
H654 C666 0.950 . S
H655 C667 0.950 . S
C656 H648 0.950 . S
C656 C657 1.386 . S
C656 C658 1.391 . S
C657 C656 1.386 . S
C657 C661 1.393 . S
C658 H650 0.950 . S
C658 C656 1.391 . S
C658 C659 1.400 . S
C659 C658 1.400 . S
C659 C660 1.398 . S
C659 C665 1.491 . S
C660 H651 0.950 . S
C660 C659 1.398 . S
C660 C661 1.391 . S
C661 H649 0.950 . S
C661 C657 1.393 . S
C661 C660 1.391 . S
C662 H652 0.950 . S
C662 C663 1.386 . S
C662 C664 1.391 . S
C663 C662 1.386 . S
C663 C667 1.393 . S
C664 H653 0.950 . S
C664 C662 1.391 . S
C664 C665 1.400 . S
C665 C659 1.491 . S
C665 C664 1.400 . S
C665 C666 1.398 . S
C666 H654 0.950 . S
C666 C665 1.398 . S
C666 C667 1.391 . S
C667 H655 0.950 . S
C667 C663 1.393 . S
C667 C666 1.391 . S
H668 C676 0.950 . S
H669 C681 0.950 . S
H670 C678 0.950 . S
H671 C680 0.950 . S
H672 C682 0.950 . S
H673 C684 0.950 . S
H674 C686 0.950 . S
H675 C687 0.950 . S
C676 H668 0.950 . S
C676 C677 1.386 . S
C676 C678 1.391 . S
C677 C676 1.386 . S
C677 C681 1.393 . S
C678 H670 0.950 . S
C678 C676 1.391 . S
C678 C679 1.400 . S
C679 C678 1.400 . S
C679 C680 1.398 . S
C679 C685 1.491 . S
C680 H671 0.950 . S
C680 C679 1.398 . S
C680 C681 1.391 . S
C681 H669 0.950 . S
C681 C677 1.393 . S
C681 C680 1.391 . S
C682 H672 0.950 . S
C682 C683 1.386 . S
C682 C684 1.391 . S
C683 C682 1.386 . S
C683 C687 1.393 . S
C684 H673 0.950 . S
C684 C682 1.391 . S
C684 C685 1.400 . S
C685 C679 1.491 . S
C685 C684 1.400 . S
C685 C686 1.398 . S
C686 H674 0.950 . S
C686 C685 1.398 . S
C686 C687 1.391 . S
C687 H675 0.950 . S
C687 C683 1.393 . S
C687 C686 1.391 . S
H688 C696 0.950 . S
H689 C701 0.950 . S
H690 C698 0.950 . S
H691 C700 0.950 . S
H692 C702 0.950 . S
H693 C704 0.950 . S
H694 C706 0.950 . S
H695 C707 0.950 . S
C696 H688 0.950 . S
C696 C697 1.386 . S
C696 C698 1.391 . S
C697 C696 1.386 . S
C697 C701 1.393 . S
C698 H690 0.950 . S
C698 C696 1.391 . S
C698 C699 1.400 . S
C699 C698 1.400 . S
C699 C700 1.398 . S
C699 C705 1.491 . S
C700 H691 0.950 . S
C700 C699 1.398 . S
C700 C701 1.391 . S
C701 H689 0.950 . S
C701 C697 1.393 . S
C701 C700 1.391 . S
C702 H692 0.950 . S
C702 C703 1.386 . S
C702 C704 1.391 . S
C703 C702 1.386 . S
C703 C707 1.393 . S
C704 H693 0.950 . S
C704 C702 1.391 . S
C704 C705 1.400 . S
C705 C699 1.491 . S
C705 C704 1.400 . S
C705 C706 1.398 . S
C706 H694 0.950 . S
C706 C705 1.398 . S
C706 C707 1.391 . S
C707 H695 0.950 . S
C707 C703 1.393 . S
C707 C706 1.391 . S
H708 C716 0.950 . S
H709 C721 0.950 . S
H710 C718 0.950 . S
H711 C720 0.950 . S
H712 C722 0.950 . S
H713 C724 0.950 . S
H714 C726 0.950 . S
H715 C727 0.950 . S
C716 H708 0.950 . S
C716 C717 1.386 . S
C716 C718 1.391 . S
C717 C716 1.386 . S
C717 C721 1.393 . S
C718 H710 0.950 . S
C718 C716 1.391 . S
C718 C719 1.400 . S
C719 C718 1.400 . S
C719 C720 1.398 . S
C719 C725 1.491 . S
C720 H711 0.950 . S
C720 C719 1.398 . S
C720 C721 1.391 . S
C721 H709 0.950 . S
C721 C717 1.393 . S
C721 C720 1.391 . S
C722 H712 0.950 . S
C722 C723 1.386 . S
C722 C724 1.391 . S
C723 C722 1.386 . S
C723 C727 1.393 . S
C724 H713 0.950 . S
C724 C722 1.391 . S
C724 C725 1.400 . S
C725 C719 1.491 . S
C725 C724 1.400 . S
C725 C726 1.398 . S
C726 H714 0.950 . S
C726 C725 1.398 . S
C726 C727 1.391 . S
C727 H715 0.950 . S
C727 C723 1.393 . S
C727 C726 1.391 . S
H728 C736 0.950 . S
H729 C741 0.950 . S
H730 C738 0.950 . S
H731 C740 0.950 . S
H732 C742 0.950 . S
H733 C744 0.950 . S
H734 C746 0.950 . S
H735 C747 0.950 . S
C736 H728 0.950 . S
C736 C737 1.386 . S
C736 C738 1.391 . S
C737 C736 1.386 . S
C737 C741 1.393 . S
C738 H730 0.950 . S
C738 C736 1.391 . S
C738 C739 1.400 . S
C739 C738 1.400 . S
C739 C740 1.398 . S
C739 C745 1.491 . S
C740 H731 0.950 . S
C740 C739 1.398 . S
C740 C741 1.391 . S
C741 H729 0.950 . S
C741 C737 1.393 . S
C741 C740 1.391 . S
C742 H732 0.950 . S
C742 C743 1.386 . S
C742 C744 1.391 . S
C743 C742 1.386 . S
C743 C747 1.393 . S
C744 H733 0.950 . S
C744 C742 1.391 . S
C744 C745 1.400 . S
C745 C739 1.491 . S
C745 C744 1.400 . S
C745 C746 1.398 . S
C746 H734 0.950 . S
C746 C745 1.398 . S
C746 C747 1.391 . S
C747 H735 0.950 . S
C747 C743 1.393 . S
C747 C746 1.391 . S
H748 C756 0.950 . S
H749 C761 0.950 . S
H750 C758 0.950 . S
H751 C760 0.950 . S
H752 C762 0.950 . S
H753 C764 0.950 . S
H754 C766 0.950 . S
H755 C767 0.950 . S
C756 H748 0.950 . S
C756 C757 1.386 . S
C756 C758 1.391 . S
C757 C756 1.386 . S
C757 C761 1.393 . S
C758 H750 0.950 . S
C758 C756 1.391 . S
C758 C759 1.400 . S
C759 C758 1.400 . S
C759 C760 1.398 . S
C759 C765 1.491 . S
C760 H751 0.950 . S
C760 C759 1.398 . S
C760 C761 1.391 . S
C761 H749 0.950 . S
C761 C757 1.393 . S
C761 C760 1.391 . S
C762 H752 0.950 . S
C762 C763 1.386 . S
C762 C764 1.391 . S
C763 C762 1.386 . S
C763 C767 1.393 . S
C764 H753 0.950 . S
C764 C762 1.391 . S
C764 C765 1.400 . S
C765 C759 1.491 . S
C765 C764 1.400 . S
C765 C766 1.398 . S
C766 H754 0.950 . S
C766 C765 1.398 . S
C766 C767 1.391 . S
C767 H755 0.950 . S
C767 C763 1.393 . S
C767 C766 1.391 . S
H768 C776 0.950 . S
H769 C781 0.950 . S
H770 C778 0.950 . S
H771 C780 0.950 . S
H772 C782 0.950 . S
H773 C784 0.950 . S
H774 C786 0.950 . S
H775 C787 0.950 . S
C776 H768 0.950 . S
C776 C777 1.386 . S
C776 C778 1.391 . S
C777 C776 1.386 . S
C777 C781 1.393 . S
C778 H770 0.950 . S
C778 C776 1.391 . S
C778 C779 1.400 . S
C779 C778 1.400 . S
C779 C780 1.398 . S
C779 C785 1.491 . S
C780 H771 0.950 . S
C780 C779 1.398 . S
C780 C781 1.391 . S
C781 H769 0.950 . S
C781 C777 1.393 . S
C781 C780 1.391 . S
C782 H772 0.950 . S
C782 C783 1.386 . S
C782 C784 1.391 . S
C783 C782 1.386 . S
C783 C787 1.393 . S
C784 H773 0.950 . S
C784 C782 1.391 . S
C784 C785 1.400 . S
C785 C779 1.491 . S
C785 C784 1.400 . S
C785 C786 1.398 . S
C786 H774 0.950 . S
C786 C785 1.398 . S
C786 C787 1.391 . S
C787 H775 0.950 . S
C787 C783 1.393 . S
C787 C786 1.391 . S
H788 C796 0.950 . S
H789 C801 0.950 . S
H790 C798 0.950 . S
H791 C800 0.950 . S
H792 C802 0.950 . S
H793 C804 0.950 . S
H794 C806 0.950 . S
H795 C807 0.950 . S
C796 H788 0.950 . S
C796 C797 1.386 . S
C796 C798 1.391 . S
C797 C796 1.386 . S
C797 C801 1.393 . S
C798 H790 0.950 . S
C798 C796 1.391 . S
C798 C799 1.400 . S
C799 C798 1.400 . S
C799 C800 1.398 . S
C799 C805 1.491 . S
C800 H791 0.950 . S
C800 C799 1.398 . S
C800 C801 1.391 . S
C801 H789 0.950 . S
C801 C797 1.393 . S
C801 C800 1.391 . S
C802 H792 0.950 . S
C802 C803 1.386 . S
C802 C804 1.391 . S
C803 C802 1.386 . S
C803 C807 1.393 . S
C804 H793 0.950 . S
C804 C802 1.391 . S
C804 C805 1.400 . S
C805 C799 1.491 . S
C805 C804 1.400 . S
C805 C806 1.398 . S
C806 H794 0.950 . S
C806 C805 1.398 . S
C806 C807 1.391 . S
C807 H795 0.950 . S
C807 C803 1.393 . S
C807 C806 1.391 . S
H808 C816 0.950 . S
H809 C821 0.950 . S
H810 C818 0.950 . S
H811 C820 0.950 . S
H812 C822 0.950 . S
H813 C824 0.950 . S
H814 C826 0.950 . S
H815 C827 0.950 . S
C816 H808 0.950 . S
C816 C817 1.386 . S
C816 C818 1.391 . S
C817 C816 1.386 . S
C817 C821 1.393 . S
C818 H810 0.950 . S
C818 C816 1.391 . S
C818 C819 1.400 . S
C819 C818 1.400 . S
C819 C820 1.398 . S
C819 C825 1.491 . S
C820 H811 0.950 . S
C820 C819 1.398 . S
C820 C821 1.391 . S
C821 H809 0.950 . S
C821 C817 1.393 . S
C821 C820 1.391 . S
C822 H812 0.950 . S
C822 C823 1.386 . S
C822 C824 1.391 . S
C823 C822 1.386 . S
C823 C827 1.393 . S
C824 H813 0.950 . S
C824 C822 1.391 . S
C824 C825 1.400 . S
C825 C819 1.491 . S
C825 C824 1.400 . S
C825 C826 1.398 . S
C826 H814 0.950 . S
C826 C825 1.398 . S
C826 C827 1.391 . S
C827 H815 0.950 . S
C827 C823 1.393 . S
C827 C826 1.391 . S
H828 C836 0.950 . S
H829 C841 0.950 . S
H830 C838 0.950 . S
H831 C840 0.950 . S
H832 C842 0.950 . S
H833 C844 0.950 . S
H834 C846 0.950 . S
H835 C847 0.950 . S
C836 H828 0.950 . S
C836 C837 1.386 . S
C836 C838 1.391 . S
C837 C836 1.386 . S
C837 C841 1.393 . S
C838 H830 0.950 . S
C838 C836 1.391 . S
C838 C839 1.400 . S
C839 C838 1.400 . S
C839 C840 1.398 . S
C839 C845 1.491 . S
C840 H831 0.950 . S
C840 C839 1.398 . S
C840 C841 1.391 . S
C841 H829 0.950 . S
C841 C837 1.393 . S
C841 C840 1.391 . S
C842 H832 0.950 . S
C842 C843 1.386 . S
C842 C844 1.391 . S
C843 C842 1.386 . S
C843 C847 1.393 . S
C844 H833 0.950 . S
C844 C842 1.391 . S
C844 C845 1.400 . S
C845 C839 1.491 . S
C845 C844 1.400 . S
C845 C846 1.398 . S
C846 H834 0.950 . S
C846 C845 1.398 . S
C846 C847 1.391 . S
C847 H835 0.950 . S
C847 C843 1.393 . S
C847 C846 1.391 . S
H848 C856 0.950 . S
H849 C861 0.950 . S
H850 C858 0.950 . S
H851 C860 0.950 . S
H852 C862 0.950 . S
H853 C864 0.950 . S
H854 C866 0.950 . S
H855 C867 0.950 . S
C856 H848 0.950 . S
C856 C857 1.386 . S
C856 C858 1.391 . S
C857 C856 1.386 . S
C857 C861 1.393 . S
C858 H850 0.950 . S
C858 C856 1.391 . S
C858 C859 1.400 . S
C859 C858 1.400 . S
C859 C860 1.398 . S
C859 C865 1.491 . S
C860 H851 0.950 . S
C860 C859 1.398 . S
C860 C861 1.391 . S
C861 H849 0.950 . S
C861 C857 1.393 . S
C861 C860 1.391 . S
C862 H852 0.950 . S
C862 C863 1.386 . S
C862 C864 1.391 . S
C863 C862 1.386 . S
C863 C867 1.393 . S
C864 H853 0.950 . S
C864 C862 1.391 . S
C864 C865 1.400 . S
C865 C859 1.491 . S
C865 C864 1.400 . S
C865 C866 1.398 . S
C866 H854 0.950 . S
C866 C865 1.398 . S
C866 C867 1.391 . S
C867 H855 0.950 . S
C867 C863 1.393 . S
C867 C866 1.391 . S
H868 C876 0.950 . S
H869 C881 0.950 . S
H870 C878 0.950 . S
H871 C880 0.950 . S
H872 C882 0.950 . S
H873 C884 0.950 . S
H874 C886 0.950 . S
H875 C887 0.950 . S
C876 H868 0.950 . S
C876 C877 1.386 . S
C876 C878 1.391 . S
C877 C876 1.386 . S
C877 C881 1.393 . S
C878 H870 0.950 . S
C878 C876 1.391 . S
C878 C879 1.400 . S
C879 C878 1.400 . S
C879 C880 1.398 . S
C879 C885 1.491 . S
C880 H871 0.950 . S
C880 C879 1.398 . S
C880 C881 1.391 . S
C881 H869 0.950 . S
C881 C877 1.393 . S
C881 C880 1.391 . S
C882 H872 0.950 . S
C882 C883 1.386 . S
C882 C884 1.391 . S
C883 C882 1.386 . S
C883 C887 1.393 . S
C884 H873 0.950 . S
C884 C882 1.391 . S
C884 C885 1.400 . S
C885 C879 1.491 . S
C885 C884 1.400 . S
C885 C886 1.398 . S
C886 H874 0.950 . S
C886 C885 1.398 . S
C886 C887 1.391 . S
C887 H875 0.950 . S
C887 C883 1.393 . S
C887 C886 1.391 . S
H888 C896 0.950 . S
H889 C901 0.950 . S
H890 C898 0.950 . S
H891 C900 0.950 . S
H892 C902 0.950 . S
H893 C904 0.950 . S
H894 C906 0.950 . S
H895 C907 0.950 . S
C896 H888 0.950 . S
C896 C897 1.386 . S
C896 C898 1.391 . S
C897 C896 1.386 . S
C897 C901 1.393 . S
C898 H890 0.950 . S
C898 C896 1.391 . S
C898 C899 1.400 . S
C899 C898 1.400 . S
C899 C900 1.398 . S
C899 C905 1.491 . S
C900 H891 0.950 . S
C900 C899 1.398 . S
C900 C901 1.391 . S
C901 H889 0.950 . S
C901 C897 1.393 . S
C901 C900 1.391 . S
C902 H892 0.950 . S
C902 C903 1.386 . S
C902 C904 1.391 . S
C903 C902 1.386 . S
C903 C907 1.393 . S
C904 H893 0.950 . S
C904 C902 1.391 . S
C904 C905 1.400 . S
C905 C899 1.491 . S
C905 C904 1.400 . S
C905 C906 1.398 . S
C906 H894 0.950 . S
C906 C905 1.398 . S
C906 C907 1.391 . S
C907 H895 0.950 . S
C907 C903 1.393 . S
C907 C906 1.391 . S
H908 C916 0.950 . S
H909 C921 0.950 . S
H910 C918 0.950 . S
H911 C920 0.950 . S
H912 C922 0.950 . S
H913 C924 0.950 . S
H914 C926 0.950 . S
H915 C927 0.950 . S
C916 H908 0.950 . S
C916 C917 1.386 . S
C916 C918 1.391 . S
C917 C916 1.386 . S
C917 C921 1.393 . S
C918 H910 0.950 . S
C918 C916 1.391 . S
C918 C919 1.400 . S
C919 C918 1.400 . S
C919 C920 1.398 . S
C919 C925 1.491 . S
C920 H911 0.950 . S
C920 C919 1.398 . S
C920 C921 1.391 . S
C921 H909 0.950 . S
C921 C917 1.393 . S
C921 C920 1.391 . S
C922 H912 0.950 . S
C922 C923 1.386 . S
C922 C924 1.391 . S
C923 C922 1.386 . S
C923 C927 1.393 . S
C924 H913 0.950 . S
C924 C922 1.391 . S
C924 C925 1.400 . S
C925 C919 1.491 . S
C925 C924 1.400 . S
C925 C926 1.398 . S
C926 H914 0.950 . S
C926 C925 1.398 . S
C926 C927 1.391 . S
C927 H915 0.950 . S
C927 C923 1.393 . S
C927 C926 1.391 . S
C457 C1 1.253 . S
C463 C294 1.267 . S
C477 C67 0.967 . S
C483 C343 0.969 . S
C503 C378 2.458 . S
C497 C97 2.490 . S
C517 C133 2.401 . S
C523 C417 2.346 . S
C543 C338 2.493 . S
C537 C25 2.417 . S
C563 C297 0.829 . S
C557 C37 0.858 . S
C583 C427 1.899 . S
C577 C103 1.949 . S
C603 C386 1.605 . S
C597 C109 1.634 . S
C617 C31 1.680 . S
C623 C414 1.737 . S
C643 C346 2.306 . S
C637 C73 2.392 . S
C657 C139 2.362 . S
C663 C307 2.352 . S
C677 C61 0.822 . S
C683 C383 0.843 . S
C703 C303 1.285 . S
C697 C175 1.212 . S
C717 C181 0.956 . S
C723 C334 0.956 . S
C737 C247 2.512 . S
C743 C387 2.476 . S
C757 C277 2.387 . S
C763 C426 2.330 . S
C777 C145 2.327 . S
C783 C347 2.482 . S
C803 C306 0.872 . S
C797 C211 0.874 . S
C823 C418 1.890 . S
C817 C217 1.923 . S
C843 C377 1.630 . S
C837 C283 1.648 . S
C857 C169 1.635 . S
C863 C423 1.736 . S
C883 C337 2.321 . S
C877 C241 2.400 . S
C903 C298 2.337 . S
C897 C253 2.348 . S
C917 C205 0.847 . S
C923 C374 0.836 . S
