# Generated by pormake.
# Topology tsx, (6,3)-cn, num edge types: 1
# Building blocks:
#     Node 0, Type 0, BuildingBlock: MIDCAF_clean_sbu_0, # of connection points: 6
#     Node 1, Type 0, BuildingBlock: MIDCAF_clean_sbu_0, # of connection points: 6
#     Node 2, Type 1, BuildingBlock: QEWDON_clean_linker_0, # of connection points: 3
#     Node 3, Type 1, BuildingBlock: QEWDON_clean_linker_0, # of connection points: 3
#     Node 4, Type 1, BuildingBlock: QEWDON_clean_linker_0, # of connection points: 3
#     Node 5, Type 1, BuildingBlock: QEWDON_clean_linker_0, # of connection points: 3
#     Edge 6, Type (0, 1), BuildingBlock: XUDNAN_clean_linker_2, # of connection points: 2
#     Edge 7, Type (0, 1), BuildingBlock: XUDNAN_clean_linker_2, # of connection points: 2
#     Edge 8, Type (0, 1), BuildingBlock: XUDNAN_clean_linker_2, # of connection points: 2
#     Edge 9, Type (0, 1), BuildingBlock: XUDNAN_clean_linker_2, # of connection points: 2
#     Edge 10, Type (0, 1), BuildingBlock: XUDNAN_clean_linker_2, # of connection points: 2
#     Edge 11, Type (0, 1), BuildingBlock: XUDNAN_clean_linker_2, # of connection points: 2
#     Edge 12, Type (0, 1), BuildingBlock: XUDNAN_clean_linker_2, # of connection points: 2
#     Edge 13, Type (0, 1), BuildingBlock: XUDNAN_clean_linker_2, # of connection points: 2
#     Edge 14, Type (0, 1), BuildingBlock: XUDNAN_clean_linker_2, # of connection points: 2
#     Edge 15, Type (0, 1), BuildingBlock: XUDNAN_clean_linker_2, # of connection points: 2
#     Edge 16, Type (0, 1), BuildingBlock: XUDNAN_clean_linker_2, # of connection points: 2
#     Edge 17, Type (0, 1), BuildingBlock: XUDNAN_clean_linker_2, # of connection points: 2
# Relax obj value: 0.091
# Max RMSD: 0.153
# Mean RMSD: 0.150
data_MOF--net-tsx--node1-MIDCAF_clean_sbu_0--node2-QEWDON_clean_linker_0--edge1-XUDNAN_clean_linker_2
_symmetry_space_group_name_H-M    P1
_symmetry_Int_Tables_number       1
_symmetry_cell_setting            triclinic
loop_
_symmetry_equiv_pos_as_xyz
'x, y, z'
_cell_length_a     21.178689
_cell_length_b     21.66223
_cell_length_c     35.378154
_cell_angle_alpha  90.686396
_cell_angle_beta   107.79259
_cell_angle_gamma 89.566435
loop_
_atom_site_label
_atom_site_type_symbol
_atom_site_fract_x
_atom_site_fract_y
_atom_site_fract_z
_atom_type_partial_charge
Zn0 Zn 0.92583 0.99963 0.94515 0.0
Zn1 Zn 0.15597 0.01659 0.06384 0.0
Zn2 Zn 0.03933 0.01374 0.00574 0.0
C3 C 0.1137 0.13926 0.04141 0.0
C4 C 0.17908 0.94837 0.00248 0.0
O5 O 0.969 0.95805 0.0264 0.0
O6 O 0.87989 0.94695 0.97414 0.0
C7 C 0.94517 0.12736 0.96572 0.0
O8 O 0.06339 0.11172 0.01747 0.0
O9 O 0.1605 0.10856 0.06444 0.0
O10 O 0.20986 0.96694 0.03716 0.0
O11 O 0.11745 0.96306 0.9867 0.0
O12 O 0.90621 0.09 0.94231 0.0
O13 O 0.99867 0.10771 0.99128 0.0
O14 O 0.06151 0.97516 0.95333 0.0
O15 O 0.96595 0.96375 0.90573 0.0
C16 C 0.02849 0.96067 0.91729 0.0
O17 O 0.02438 0.97187 0.05891 0.0
O18 O 0.12303 0.97695 0.10422 0.0
C19 C 0.91029 0.93636 0.01019 0.0
C20 C 0.06235 0.96298 0.09457 0.0
Zn21 Zn 0.66341 0.50962 0.56288 0.0
Zn22 Zn 0.44554 0.51224 0.4331 0.0
Zn23 Zn 0.55735 0.50787 0.49658 0.0
C24 C 0.54904 0.45418 0.41016 0.0
C25 C 0.48192 0.63381 0.45799 0.0
O26 O 0.52809 0.46544 0.54522 0.0
O27 O 0.61813 0.46915 0.59742 0.0
C28 C 0.69668 0.43987 0.5028 0.0
O29 O 0.5826 0.46271 0.44688 0.0
O30 O 0.48902 0.47069 0.39715 0.0
O31 O 0.43871 0.60377 0.43181 0.0
O32 O 0.52948 0.60544 0.48357 0.0
O33 O 0.71947 0.45839 0.53839 0.0
O34 O 0.63693 0.45408 0.48206 0.0
O35 O 0.5936 0.60366 0.51076 0.0
O36 O 0.67751 0.60108 0.56641 0.0
C37 C 0.64002 0.63126 0.53787 0.0
O38 O 0.47454 0.45971 0.51059 0.0
O39 O 0.38652 0.46602 0.45719 0.0
C40 C 0.55789 0.45489 0.58216 0.0
C41 C 0.41301 0.44795 0.49232 0.0
H42 H 0.0577 0.09036 0.35934 0.0
C43 C 0.09646 0.06033 0.37684 0.0
C44 C 0.10302 0.99969 0.3636 0.0
C45 C 0.14357 0.08452 0.41109 0.0
H46 H 0.1565 0.91401 0.37982 0.0
C47 C 0.15358 0.96229 0.38752 0.0
C48 C 0.20519 0.98762 0.41849 0.0
C49 C 0.1998 0.04873 0.43042 0.0
C50 C 0.13642 0.14872 0.42464 0.0
H51 H 0.24003 0.06852 0.45405 0.0
C52 C 0.07471 0.17037 0.42691 0.0
C53 C 0.06724 0.23149 0.43916 0.0
C54 C 0.19112 0.1887 0.43531 0.0
H55 H 0.23905 0.17362 0.43362 0.0
C56 C 0.18416 0.24921 0.44731 0.0
H57 H 0.03301 0.13903 0.41996 0.0
C58 C 0.12279 0.2707 0.44895 0.0
H59 H 0.11895 0.31834 0.4576 0.0
H60 H 0.22646 0.27984 0.45508 0.0
H61 H 0.12124 0.02793 0.64414 0.0
C62 C 0.07093 0.01272 0.62972 0.0
C63 C 0.03489 0.98351 0.65179 0.0
C64 C 0.04414 0.01898 0.58847 0.0
H65 H 0.94393 0.93819 0.64851 0.0
C66 C 0.97117 0.96086 0.63157 0.0
C67 C 0.94321 0.96551 0.59005 0.0
C68 C 0.98023 0.99626 0.56898 0.0
C69 C 0.08665 0.04135 0.56515 0.0
H70 H 0.96051 1.00191 0.53719 0.0
C71 C 0.11901 0.09897 0.5733 0.0
C72 C 0.16352 0.11649 0.5528 0.0
C73 C 0.09823 1.00233 0.53595 0.0
H74 H 0.07429 0.95773 0.52941 0.0
C75 C 0.14254 0.01942 0.51592 0.0
H76 H 0.10999 0.12961 0.59556 0.0
C77 C 0.17536 0.07577 0.52454 0.0
H78 H 0.20945 0.08835 0.50871 0.0
H79 H 0.15177 0.98872 0.49381 0.0
H80 H 0.48952 0.56028 0.82913 0.0
C81 C 0.52465 0.5301 0.84938 0.0
C82 C 0.53322 0.46873 0.83821 0.0
C83 C 0.56649 0.55527 0.88497 0.0
H84 H 0.58504 0.38348 0.8583 0.0
C85 C 0.58044 0.43183 0.86521 0.0
C86 C 0.62712 0.45776 0.89868 0.0
C87 C 0.6189 0.51942 0.909 0.0
C88 C 0.56159 0.62181 0.89357 0.0
H89 H 0.6547 0.54042 0.93455 0.0
C90 C 0.50359 0.64696 0.89931 0.0
C91 C 0.49913 0.71075 0.90666 0.0
C92 C 0.61466 0.66082 0.89464 0.0
H93 H 0.65945 0.6424 0.88999 0.0
C94 C 0.60955 0.72417 0.90041 0.0
H95 H 0.46308 0.61661 0.89917 0.0
C96 C 0.55218 0.74906 0.90612 0.0
H97 H 0.5491 0.79856 0.90984 0.0
H98 H 0.65009 0.75418 0.90024 0.0
H99 H 0.6064 0.51155 0.13605 0.0
C100 C 0.55523 0.49698 0.1242 0.0
C101 C 0.52855 0.45743 0.14651 0.0
C102 C 0.51665 0.51517 0.08598 0.0
H103 H 0.44454 0.40358 0.14724 0.0
C104 C 0.46336 0.43596 0.13031 0.0
C105 C 0.42285 0.45565 0.09299 0.0
C106 C 0.44983 0.49662 0.07165 0.0
C107 C 0.54606 0.54982 0.05939 0.0
H108 H 0.41904 0.51382 0.04337 0.0
C109 C 0.59223 0.59778 0.0737 0.0
C110 C 0.61708 0.63072 0.04727 0.0
C111 C 0.52751 0.53415 0.01871 0.0
H112 H 0.49405 0.49619 0.00685 0.0
C113 C 0.55231 0.56663 0.99271 0.0
H114 H 0.60759 0.61049 0.10489 0.0
C115 C 0.59639 0.61499 0.00673 0.0
H116 H 0.61548 0.63944 0.98601 0.0
H117 H 0.53741 0.55386 0.96164 0.0
H118 H 0.15437 0.22066 0.10244 0.0
H119 H 0.10078 0.20481 0.97458 0.0
H120 H 0.15727 0.30341 0.97222 0.0
H121 H 0.14966 0.4027 0.10503 0.0
H122 H 0.21815 0.40221 0.1503 0.0
H123 H 0.15663 0.34207 0.14056 0.0
H124 H 0.24998 0.26036 0.15097 0.0
H125 H 0.31147 0.31958 0.15956 0.0
H126 H 0.30494 0.26292 0.12084 0.0
H127 H 0.24991 0.37838 0.98624 0.0
H128 H 0.35414 0.43443 0.01374 0.0
H129 H 0.33622 0.41537 0.13225 0.0
C130 C 0.15119 0.24021 0.07388 0.0
C131 C 0.12326 0.20593 0.03871 0.0
C132 C 0.12108 0.23126 0.00173 0.0
C133 C 0.15329 0.2871 0.0002 0.0
C134 C 0.18502 0.31781 0.0358 0.0
C135 C 0.18162 0.29664 0.0719 0.0
C136 C 0.22641 0.33354 0.10618 0.0
C137 C 0.18525 0.37246 0.12672 0.0
C138 C 0.2761 0.29158 0.13608 0.0
C139 C 0.26082 0.37409 0.08408 0.0
C140 C 0.23574 0.36504 0.04351 0.0
C141 C 0.26784 0.38837 0.01776 0.0
C142 C 0.32744 0.42058 0.03386 0.0
C143 C 0.3544 0.43011 0.07549 0.0
C144 C 0.31831 0.40871 0.10041 0.0
H145 H 0.31297 0.94013 0.01573 0.0
H146 H 0.12636 0.86359 0.94271 0.0
H147 H 0.18691 0.79561 0.90888 0.0
H148 H 0.39919 0.93666 0.94221 0.0
H149 H 0.47726 0.91434 0.97719 0.0
H150 H 0.41853 0.95914 0.99371 0.0
H151 H 0.42065 0.87609 0.04628 0.0
H152 H 0.4791 0.83104 0.02966 0.0
H153 H 0.40223 0.79698 0.03062 0.0
H154 H 0.2699 0.73307 0.88452 0.0
H155 H 0.36694 0.68434 0.87081 0.0
H156 H 0.49817 0.79875 0.96272 0.0
C157 C 0.28469 0.90941 0.99242 0.0
C158 C 0.2146 0.90866 0.981 0.0
C159 C 0.17974 0.86701 0.95078 0.0
C160 C 0.21386 0.82752 0.93181 0.0
C161 C 0.28301 0.82951 0.94384 0.0
C162 C 0.31796 0.8694 0.97354 0.0
C163 C 0.39208 0.86166 0.98182 0.0
C164 C 0.42359 0.92151 0.9732 0.0
C165 C 0.42545 0.84015 0.02463 0.0
C166 C 0.3935 0.81133 0.95208 0.0
C167 C 0.33026 0.79317 0.93045 0.0
C168 C 0.31961 0.74702 0.90133 0.0
C169 C 0.37503 0.7193 0.89391 0.0
C170 C 0.44025 0.73792 0.91546 0.0
C171 C 0.44908 0.78415 0.94517 0.0
H172 H 0.7787 0.92995 0.00065 0.0
H173 H 0.96806 0.85291 0.06855 0.0
H174 H 0.91038 0.77749 0.09823 0.0
H175 H 0.6871 0.89772 0.07643 0.0
H176 H 0.61244 0.87954 0.03698 0.0
H177 H 0.66866 0.93699 0.02964 0.0
H178 H 0.67674 0.87721 0.96722 0.0
H179 H 0.62057 0.82093 0.97497 0.0
H180 H 0.70049 0.79679 0.97169 0.0
H181 H 0.83184 0.69827 0.10971 0.0
H182 H 0.74143 0.62201 0.0999 0.0
H183 H 0.60401 0.74964 0.0231 0.0
C184 C 0.80799 0.89846 0.02279 0.0
C185 C 0.87774 0.89774 0.03285 0.0
C186 C 0.91462 0.85529 0.06131 0.0
C187 C 0.88217 0.81223 0.07824 0.0
C188 C 0.81293 0.81283 0.06667 0.0
C189 C 0.77636 0.85554 0.03991 0.0
C190 C 0.70298 0.84171 0.02802 0.0
C191 C 0.66561 0.89198 0.04373 0.0
C192 C 0.67362 0.83363 0.98276 0.0
C193 C 0.70418 0.78156 0.04943 0.0
C194 C 0.76767 0.76668 0.07282 0.0
C195 C 0.78176 0.71021 0.09233 0.0
C196 C 0.73025 0.66722 0.08669 0.0
C197 C 0.66608 0.68064 0.06114 0.0
C198 C 0.65259 0.73911 0.04337 0.0
H199 H 0.88662 0.19519 0.90081 0.0
H200 H 0.95171 0.20359 0.02922 0.0
H201 H 0.88659 0.29997 0.02706 0.0
H202 H 0.87951 0.369 0.8847 0.0
H203 H 0.80775 0.36023 0.84163 0.0
H204 H 0.87021 0.30049 0.85408 0.0
H205 H 0.77944 0.22086 0.85396 0.0
H206 H 0.71718 0.2803 0.84253 0.0
H207 H 0.72853 0.23359 0.88595 0.0
H208 H 0.79443 0.38277 0.00973 0.0
H209 H 0.6957 0.44846 0.97903 0.0
H210 H 0.69887 0.38746 0.86241 0.0
C211 C 0.88938 0.21888 0.92841 0.0
C212 C 0.92415 0.19249 0.96513 0.0
C213 C 0.92603 0.22384 0.00077 0.0
C214 C 0.88887 0.27835 -0.00023 0.0
C215 C 0.85177 0.30142 0.96287 0.0
C216 C 0.85363 0.27346 0.92782 0.0
C217 C 0.80569 0.30351 0.89204 0.0
C218 C 0.84303 0.33522 0.86662 0.0
C219 C 0.75473 0.25678 0.86721 0.0
C220 C 0.77352 0.35032 0.91232 0.0
C221 C 0.80075 0.34928 0.95312 0.0
C222 C 0.77392 0.3849 0.97776 0.0
C223 C 0.71778 0.42196 0.96014 0.0
C224 C 0.68888 0.42246 0.91835 0.0
C225 C 0.71877 0.38737 0.89448 0.0
H226 H 0.6718 0.72423 0.59333 0.0
H227 H 0.65269 0.68046 0.47064 0.0
H228 H 0.71368 0.77545 0.46604 0.0
H229 H 0.65941 0.90198 0.57717 0.0
H230 H 0.71647 0.91466 0.62613 0.0
H231 H 0.65969 0.85059 0.61693 0.0
H232 H 0.75883 0.77608 0.64471 0.0
H233 H 0.81592 0.83929 0.65323 0.0
H234 H 0.82535 0.77469 0.62279 0.0
H235 H 0.80422 0.85438 0.48184 0.0
H236 H 0.89871 0.92154 0.51204 0.0
H237 H 0.84032 0.93156 0.61987 0.0
C238 C 0.6778 0.73646 0.56504 0.0
C239 C 0.65768 0.69548 0.53232 0.0
C240 C 0.66708 0.71188 0.49585 0.0
C241 C 0.70187 0.76563 0.49303 0.0
C242 C 0.72431 0.80369 0.52649 0.0
C243 C 0.71009 0.79129 0.5613 0.0
C244 C 0.74348 0.83743 0.59364 0.0
C245 C 0.69167 0.87863 0.60407 0.0
C246 C 0.78855 0.8049 0.63074 0.0
C247 C 0.78354 0.8739 0.57275 0.0
C248 C 0.77179 0.85389 0.53405 0.0
C249 C 0.81166 0.87267 0.51148 0.0
C250 C 0.86563 0.91164 0.52913 0.0
C251 C 0.87904 0.93297 0.569 0.0
C252 C 0.8344 0.91582 0.58992 0.0
H253 H 0.83179 0.43581 0.529 0.0
H254 H 0.66209 0.35736 0.44019 0.0
H255 H 0.73745 0.29644 0.4124 0.0
H256 H 0.94077 0.44619 0.46955 0.0
H257 H 0.01336 0.42421 0.50927 0.0
H258 H 0.94561 0.46313 0.52037 0.0
H259 H 0.9377 0.37369 0.56677 0.0
H260 H 1.00535 0.33448 0.55571 0.0
H261 H 0.92727 0.29568 0.5476 0.0
H262 H 0.83427 0.24364 0.39515 0.0
H263 H 0.94121 0.20364 0.39032 0.0
H264 H 0.04503 0.3123 0.49435 0.0
C265 C 0.81026 0.40599 0.50359 0.0
C266 C 0.74083 0.40284 0.48575 0.0
C267 C 0.71499 0.36264 0.45295 0.0
C268 C 0.75752 0.32719 0.43748 0.0
C269 C 0.82586 0.33181 0.45569 0.0
C270 C 0.85187 0.36999 0.48823 0.0
C271 C 0.92674 0.36582 0.50325 0.0
C272 C 0.95846 0.42857 0.50042 0.0
C273 C 0.95064 0.34093 0.54585 0.0
C274 C 0.93913 0.3196 0.47395 0.0
C275 C 0.88058 0.30039 0.44669 0.0
C276 C 0.88032 0.25817 0.41656 0.0
C277 C 0.94143 0.23533 0.41425 0.0
C278 C 1.00212 0.25453 0.442 0.0
C279 C 1.00017 0.29701 0.47228 0.0
H280 H 0.44327 0.33816 0.531 0.0
H281 H 0.28964 0.47755 0.49499 0.0
H282 H 0.21537 0.41384 0.52047 0.0
H283 H 0.34004 0.21625 0.49632 0.0
H284 H 0.38081 0.16282 0.53487 0.0
H285 H 0.42693 0.22492 0.52297 0.0
H286 H 0.46195 0.26253 0.59631 0.0
H287 H 0.41581 0.20032 0.60861 0.0
H288 H 0.39931 0.27907 0.61987 0.0
H289 H 0.15379 0.33066 0.5427 0.0
H290 H 0.1042 0.22968 0.54918 0.0
H291 H 0.29505 0.14129 0.56665 0.0
C292 C 0.39479 0.35595 0.52985 0.0
C293 C 0.37236 0.41308 0.51188 0.0
C294 C 0.30777 0.43413 0.50922 0.0
C295 C 0.26553 0.39849 0.52388 0.0
C296 C 0.28842 0.34158 0.54078 0.0
C297 C 0.3514 0.32014 0.54347 0.0
C298 C 0.36015 0.25358 0.55679 0.0
C299 C 0.37799 0.21198 0.52589 0.0
C300 C 0.41239 0.24857 0.59783 0.0
C301 C 0.29126 0.23991 0.55902 0.0
C302 C 0.25142 0.29192 0.55126 0.0
C303 C 0.18458 0.2897 0.54919 0.0
C304 C 0.15689 0.23229 0.55314 0.0
C305 C 0.19589 0.17792 0.55855 0.0
C306 C 0.26433 0.18235 0.56284 0.0
H307 H 0.4325 0.71324 0.39768 0.0
H308 H 0.5038 0.70324 0.5259 0.0
H309 H 0.45583 0.80648 0.53077 0.0
H310 H 0.44887 0.88918 0.39129 0.0
H311 H 0.37448 0.89121 0.34946 0.0
H312 H 0.42903 0.82514 0.35673 0.0
H313 H 0.33006 0.75415 0.3547 0.0
H314 H 0.27574 0.81969 0.34826 0.0
H315 H 0.28379 0.7682 0.38913 0.0
H316 H 0.37549 0.8973 0.52079 0.0
H317 H 0.28086 0.97016 0.49665 0.0
H318 H 0.26887 0.92266 0.37532 0.0
C319 C 0.44059 0.73417 0.42673 0.0
C320 C 0.47192 0.7008 0.46136 0.0
C321 C 0.48083 0.72872 0.49899 0.0
C322 C 0.45345 0.78723 0.502 0.0
C323 C 0.41897 0.81753 0.46709 0.0
C324 C 0.41436 0.79254 0.43012 0.0
C325 C 0.36873 0.83008 0.39709 0.0
C326 C 0.40762 0.86074 0.37218 0.0
C327 C 0.31122 0.79068 0.37081 0.0
C328 C 0.34448 0.87738 0.42116 0.0
C329 C 0.37444 0.87041 0.46148 0.0
C330 C 0.35319 0.90436 0.48927 0.0
C331 C 0.29939 0.94548 0.4754 0.0
C332 C 0.2673 0.95144 0.43419 0.0
C333 C 0.29212 0.91862 0.40704 0.0
H334 H 0.12247 0.89256 0.15759 0.0
H335 H 0.94416 0.99858 0.10465 0.0
H336 H 0.91955 0.99929 0.16867 0.0
H337 H 0.06049 0.80784 0.23575 0.0
H338 H 0.14225 0.8145 0.27092 0.0
H339 H 0.13252 0.8039 0.2188 0.0
H340 H 0.20229 0.90238 0.22046 0.0
H341 H 0.2116 0.91332 0.27203 0.0
H342 H 0.17657 0.97427 0.23756 0.0
H343 H 0.93228 0.01315 0.24203 0.0
H344 H 0.97717 0.03309 0.31426 0.0
H345 H 0.15001 0.9219 0.31686 0.0
C346 C 0.07642 0.91294 0.15907 0.0
C347 C 0.03508 0.94516 0.12648 0.0
C348 C 0.97588 0.97271 0.12928 0.0
C349 C 0.96169 0.97346 0.16562 0.0
C350 C 1.0066 0.94542 0.1984 0.0
C351 C 0.06202 0.91417 0.195 0.0
C352 C 0.10866 0.89699 0.23511 0.0
C353 C 0.11108 0.82662 0.24046 0.0
C354 C 0.17878 0.9234 0.24164 0.0
C355 C 0.07403 0.92803 0.26175 0.0
C356 C 0.01426 0.9541 0.24045 0.0
C357 C 0.97818 0.99142 0.25903 0.0
C358 C 1.00456 1.00317 0.30013 0.0
C359 C 0.06723 0.97875 0.32209 0.0
C360 C 0.10084 0.93952 0.30222 0.0
H361 H 0.99847 0.8798 0.85472 0.0
H362 H 0.13246 0.02721 0.91093 0.0
H363 H 0.16647 0.0375 0.85051 0.0
H364 H 0.11049 0.81664 0.79326 0.0
H365 H 0.03768 0.79678 0.75292 0.0
H366 H 0.03659 0.79131 0.80355 0.0
H367 H 0.93299 0.86226 0.78666 0.0
H368 H 0.93445 0.86935 0.73648 0.0
H369 H 0.937 0.93768 0.76648 0.0
H370 H 0.15708 0.05328 0.77907 0.0
H371 H 0.12205 0.06009 0.7063 0.0
H372 H 0.0113 0.88961 0.69828 0.0
C373 C 0.03742 0.91197 0.85483 0.0
C374 C 0.06296 0.95268 0.88718 0.0
C375 C 0.11299 0.99512 0.88647 0.0
C376 C 0.13246 1.00139 0.85223 0.0
C377 C 0.10329 0.96312 0.81971 0.0
C378 C 0.05902 0.91727 0.82136 0.0
C379 C 0.03072 0.88573 0.78139 0.0
C380 C 0.05537 0.81863 0.78287 0.0
C381 C 0.95432 0.88903 0.76694 0.0
C382 C 0.06078 0.92497 0.75626 0.0
C383 C 0.10282 0.96913 0.77883 0.0
C384 C 0.12679 0.01715 0.76121 0.0
C385 C 0.10655 0.02056 0.71959 0.0
C386 C 0.06328 0.9757 0.6958 0.0
C387 C 0.04301 0.92585 0.7149 0.0
H388 H 0.60302 0.37732 0.64352 0.0
H389 H 0.43378 0.48974 0.58279 0.0
H390 H 0.39047 0.48087 0.63986 0.0
H391 H 0.51559 0.28273 0.70668 0.0
H392 H 0.59109 0.28494 0.74777 0.0
H393 H 0.59475 0.28016 0.69754 0.0
H394 H 0.66875 0.37773 0.7103 0.0
H395 H 0.66514 0.38283 0.76003 0.0
H396 H 0.63922 0.44777 0.72741 0.0
H397 H 0.38421 0.48603 0.7097 0.0
H398 H 0.41362 0.50168 0.78224 0.0
H399 H 0.59071 0.39029 0.79693 0.0
C400 C 0.55502 0.3971 0.64155 0.0
C401 C 0.52123 0.43337 0.6088 0.0
C402 C 0.45946 0.46028 0.60725 0.0
C403 C 0.43469 0.45566 0.6397 0.0
C404 C 0.47197 0.42335 0.67313 0.0
C405 C 0.53025 0.39319 0.67376 0.0
C406 C 0.56771 0.37143 0.715 0.0
C407 C 0.56721 0.3006 0.71685 0.0
C408 C 0.63929 0.39653 0.72896 0.0
C409 C 0.52536 0.39968 0.73823 0.0
C410 C 0.46897 0.42733 0.71365 0.0
C411 C 0.42734 0.46311 0.72913 0.0
C412 C 0.44497 0.47242 0.7705 0.0
C413 C 0.50471 0.44733 0.79598 0.0
C414 C 0.54351 0.40864 0.77921 0.0
H415 H 0.60382 0.52987 0.37001 0.0
H416 H 0.5563 0.33857 0.38051 0.0
H417 H 0.57974 0.31403 0.31767 0.0
H418 H 0.51402 0.54201 0.27757 0.0
H419 H 0.56559 0.594 0.26069 0.0
H420 H 0.57112 0.59275 0.3122 0.0
H421 H 0.69716 0.57042 0.33102 0.0
H422 H 0.69217 0.57207 0.27921 0.0
H423 H 0.72669 0.50559 0.30868 0.0
H424 H 0.58009 0.31487 0.24819 0.0
H425 H 0.54862 0.34135 0.17726 0.0
H426 H 0.5878 0.53415 0.20854 0.0
C427 C 0.60265 0.48226 0.3601 0.0
C428 C 0.58151 0.43542 0.38068 0.0
C429 C 0.57532 0.37431 0.36583 0.0
C430 C 0.58853 0.36016 0.33017 0.0
C431 C 0.60645 0.40801 0.30939 0.0
C432 C 0.6137 0.46803 0.32394 0.0
C433 C 0.61835 0.51313 0.29243 0.0
C434 C 0.56402 0.56332 0.28531 0.0
C435 C 0.68774 0.542 0.3035 0.0
C436 C 0.60708 0.46998 0.25701 0.0
C437 C 0.6032 0.40922 0.26783 0.0
C438 C 0.58472 0.36197 0.23957 0.0
C439 C 0.56671 0.37742 0.19932 0.0
C440 C 0.56621 0.43975 0.18763 0.0
C441 C 0.58963 0.48605 0.21683 0.0
loop_
_geom_bond_atom_site_label_1
_geom_bond_atom_site_label_2
_geom_bond_distance
_geom_bond_site_symmetry_2
_ccdc_geom_bond_type
Zn0 O6 1.920 1_545 S
Zn0 O12 1.898 . S
Zn0 O15 1.905 1_545 S
Zn1 O9 1.905 . S
Zn1 O10 1.898 1_545 S
Zn1 O18 1.920 1_545 S
Zn2 O5 2.080 1_444 S
Zn2 O8 2.114 . S
Zn2 O11 2.120 1_545 S
Zn2 O13 2.119 1_455 S
Zn2 O14 2.114 1_554 S
Zn2 O17 2.080 . S
C3 O8 1.166 . S
C3 O9 1.182 . S
C4 O10 1.167 . S
C4 O11 1.299 . S
O5 Zn2 2.080 1_666 S
O5 C19 1.305 . S
O6 Zn0 1.920 1_565 S
O6 C19 1.234 . S
C7 O12 1.167 . S
C7 O13 1.296 1_556 S
O8 Zn2 2.114 . S
O8 C3 1.166 . S
O9 Zn1 1.905 . S
O9 C3 1.182 . S
O10 Zn1 1.898 1_565 S
O10 C4 1.167 . S
O11 Zn2 2.120 1_565 S
O11 C4 1.299 . S
O12 Zn0 1.898 . S
O12 C7 1.167 . S
O13 Zn2 2.119 1_655 S
O13 C7 1.296 1_554 S
O14 Zn2 2.114 1_556 S
O14 C16 1.166 1_545 S
O15 Zn0 1.905 1_565 S
O15 C16 1.182 1_655 S
C16 O14 1.166 1_565 S
C16 O15 1.182 1_455 S
O17 Zn2 2.080 . S
O17 C20 1.305 1_545 S
O18 Zn1 1.920 1_565 S
O18 C20 1.234 . S
C19 O5 1.305 . S
C19 O6 1.234 . S
C20 O17 1.305 1_565 S
C20 O18 1.234 . S
Zn21 O27 1.920 . S
Zn21 O33 1.898 . S
Zn21 O36 1.905 . S
Zn22 O30 1.905 . S
Zn22 O31 1.898 . S
Zn22 O39 1.920 . S
Zn23 O26 2.080 . S
Zn23 O29 2.114 . S
Zn23 O32 2.120 . S
Zn23 O34 2.120 . S
Zn23 O35 2.114 . S
Zn23 O38 2.080 . S
C24 O29 1.166 . S
C24 O30 1.182 . S
C25 O31 1.167 . S
C25 O32 1.299 . S
O26 Zn23 2.080 . S
O26 C40 1.305 . S
O27 Zn21 1.920 . S
O27 C40 1.234 . S
C28 O33 1.167 . S
C28 O34 1.299 . S
O29 Zn23 2.114 . S
O29 C24 1.166 . S
O30 Zn22 1.905 . S
O30 C24 1.182 . S
O31 Zn22 1.898 . S
O31 C25 1.167 . S
O32 Zn23 2.120 . S
O32 C25 1.299 . S
O33 Zn21 1.898 . S
O33 C28 1.167 . S
O34 Zn23 2.120 . S
O34 C28 1.299 . S
O35 Zn23 2.114 . S
O35 C37 1.166 . S
O36 Zn21 1.905 . S
O36 C37 1.182 . S
C37 O35 1.166 . S
C37 O36 1.182 . S
O38 Zn23 2.080 . S
O38 C41 1.305 . S
O39 Zn22 1.920 . S
O39 C41 1.234 . S
C40 O26 1.305 . S
C40 O27 1.234 . S
C41 O38 1.305 . S
C41 O39 1.234 . S
H42 C43 0.949 . S
C43 H42 0.949 . S
C43 C44 1.395 . S
C43 C45 1.391 . S
C44 C43 1.395 . S
C44 C47 1.390 1_545 S
C45 C43 1.391 . S
C45 C49 1.387 . S
C45 C50 1.491 . S
H46 C47 0.950 . S
C47 C44 1.390 1_565 S
C47 H46 0.950 . S
C47 C48 1.378 . S
C48 C47 1.378 . S
C48 C49 1.409 1_565 S
C49 C45 1.387 . S
C49 C48 1.409 1_545 S
C49 H51 0.951 1_545 S
C50 C45 1.491 . S
C50 C52 1.382 . S
C50 C54 1.404 . S
H51 C49 0.951 1_565 S
C52 C50 1.382 . S
C52 C53 1.390 . S
C52 H57 0.949 . S
C53 C52 1.390 . S
C53 C58 1.399 . S
C54 C50 1.404 . S
C54 H55 0.950 . S
C54 C56 1.375 . S
H55 C54 0.950 . S
C56 C54 1.375 . S
C56 C58 1.382 . S
C56 H60 0.950 . S
H57 C52 0.949 . S
C58 C53 1.399 . S
C58 C56 1.382 . S
C58 H59 0.952 . S
H59 C58 0.952 . S
H60 C56 0.950 . S
H61 C62 0.949 . S
C62 H61 0.949 . S
C62 C63 1.395 1_455 S
C62 C64 1.391 1_455 S
C63 C62 1.395 1_655 S
C63 C66 1.390 1_545 S
C64 C62 1.391 1_655 S
C64 C68 1.387 1_545 S
C64 C69 1.491 1_655 S
H65 C66 0.950 . S
C66 C63 1.390 1_565 S
C66 H65 0.950 . S
C66 C67 1.378 . S
C67 C66 1.378 . S
C67 C68 1.409 . S
C68 C64 1.387 1_565 S
C68 C67 1.409 . S
C68 H70 0.951 . S
C69 C64 1.491 1_455 S
C69 C71 1.382 . S
C69 C73 1.404 1_455 S
H70 C68 0.951 . S
C71 C69 1.382 . S
C71 C72 1.390 . S
C71 H76 0.949 . S
C72 C71 1.390 . S
C72 C77 1.399 . S
C73 C69 1.404 1_655 S
C73 H74 0.950 . S
C73 C75 1.375 . S
H74 C73 0.950 . S
C75 C73 1.375 . S
C75 C77 1.382 1_655 S
C75 H79 0.950 . S
H76 C71 0.949 . S
C77 C72 1.399 . S
C77 C75 1.382 1_455 S
C77 H78 0.952 . S
H78 C77 0.952 . S
H79 C75 0.950 . S
H80 C81 0.949 . S
C81 H80 0.949 . S
C81 C82 1.395 . S
C81 C83 1.391 . S
C82 C81 1.395 . S
C82 C85 1.390 . S
C83 C81 1.391 . S
C83 C87 1.387 . S
C83 C88 1.491 . S
H84 C85 0.950 . S
C85 C82 1.390 . S
C85 H84 0.950 . S
C85 C86 1.378 . S
C86 C85 1.378 . S
C86 C87 1.409 . S
C87 C83 1.387 . S
C87 C86 1.409 . S
C87 H89 0.951 . S
C88 C83 1.491 . S
C88 C90 1.382 . S
C88 C92 1.404 1_556 S
H89 C87 0.951 . S
C90 C88 1.382 . S
C90 C91 1.390 . S
C90 H95 0.949 . S
C91 C90 1.390 . S
C91 C96 1.399 1_556 S
C92 C88 1.404 1_554 S
C92 H93 0.950 . S
C92 C94 1.375 . S
H93 C92 0.950 . S
C94 C92 1.375 . S
C94 C96 1.382 . S
C94 H98 0.950 . S
H95 C90 0.949 . S
C96 C91 1.399 1_554 S
C96 C94 1.382 . S
C96 H97 0.952 . S
H97 C96 0.952 . S
H98 C94 0.950 . S
H99 C100 0.949 . S
C100 H99 0.949 . S
C100 C101 1.395 . S
C100 C102 1.391 . S
C101 C100 1.395 . S
C101 C104 1.390 . S
C102 C100 1.391 . S
C102 C106 1.387 . S
C102 C107 1.491 . S
H103 C104 0.950 . S
C104 C101 1.390 . S
C104 H103 0.950 . S
C104 C105 1.378 . S
C105 C104 1.378 . S
C105 C106 1.409 . S
C106 C102 1.387 . S
C106 C105 1.409 . S
C106 H108 0.951 . S
C107 C102 1.491 . S
C107 C109 1.382 . S
C107 C111 1.404 . S
H108 C106 0.951 . S
C109 C107 1.382 . S
C109 C110 1.390 . S
C109 H114 0.949 . S
C110 C109 1.390 . S
C110 C115 1.399 1_554 S
C111 C107 1.404 . S
C111 H112 0.950 1_554 S
C111 C113 1.375 1_554 S
H112 C111 0.950 1_556 S
C113 C111 1.375 1_556 S
C113 C115 1.382 . S
C113 H117 0.950 . S
H114 C109 0.949 . S
C115 C110 1.399 1_556 S
C115 C113 1.382 . S
C115 H116 0.952 . S
H116 C115 0.952 . S
H117 C113 0.950 . S
H118 C130 0.930 . S
H119 C132 0.930 . S
H120 C133 0.930 . S
H121 C137 0.959 . S
H122 C137 0.959 . S
H123 C137 0.961 . S
H124 C138 0.960 . S
H125 C138 0.961 . S
H126 C138 0.959 . S
H127 C141 0.929 1_556 S
H128 C142 0.931 . S
H129 C144 0.930 . S
C130 H118 0.930 . S
C130 C131 1.399 . S
C130 C135 1.399 . S
C131 C130 1.399 . S
C131 C132 1.376 1_554 S
C132 H119 0.930 . S
C132 C131 1.376 1_556 S
C132 C133 1.388 . S
C133 H120 0.930 . S
C133 C132 1.388 . S
C133 C134 1.390 1_556 S
C134 C133 1.390 1_554 S
C134 C135 1.394 . S
C134 C140 1.465 . S
C135 C130 1.399 . S
C135 C134 1.394 . S
C135 C136 1.516 . S
C136 C135 1.516 . S
C136 C137 1.502 . S
C136 C138 1.561 . S
C136 C139 1.526 . S
C137 H121 0.959 . S
C137 H122 0.959 . S
C137 H123 0.961 . S
C137 C136 1.502 . S
C138 H124 0.960 . S
C138 H125 0.961 . S
C138 H126 0.959 . S
C138 C136 1.561 . S
C139 C136 1.526 . S
C139 C140 1.396 . S
C139 C144 1.390 . S
C140 C134 1.465 . S
C140 C139 1.396 . S
C140 C141 1.399 . S
C141 H127 0.929 1_554 S
C141 C140 1.399 . S
C141 C142 1.385 . S
C142 H128 0.931 . S
C142 C141 1.385 . S
C142 C143 1.389 . S
C143 C142 1.389 . S
C143 C144 1.387 . S
C144 H129 0.930 . S
C144 C139 1.390 . S
C144 C143 1.387 . S
H145 C157 0.930 . S
H146 C159 0.930 . S
H147 C160 0.930 . S
H148 C164 0.959 . S
H149 C164 0.959 . S
H150 C164 0.961 . S
H151 C165 0.960 . S
H152 C165 0.961 . S
H153 C165 0.959 . S
H154 C168 0.929 . S
H155 C169 0.931 . S
H156 C171 0.929 . S
C157 H145 0.930 . S
C157 C158 1.399 1_554 S
C157 C162 1.399 . S
C158 C157 1.399 1_556 S
C158 C159 1.376 . S
C159 H146 0.930 . S
C159 C158 1.376 . S
C159 C160 1.388 . S
C160 H147 0.930 . S
C160 C159 1.388 . S
C160 C161 1.390 . S
C161 C160 1.390 . S
C161 C162 1.394 1_556 S
C161 C167 1.465 . S
C162 C157 1.399 . S
C162 C161 1.394 1_554 S
C162 C163 1.516 . S
C163 C162 1.516 . S
C163 C164 1.502 . S
C163 C165 1.561 . S
C163 C166 1.526 1_554 S
C164 H148 0.959 . S
C164 H149 0.959 . S
C164 H150 0.961 . S
C164 C163 1.502 . S
C165 H151 0.960 . S
C165 H152 0.961 . S
C165 H153 0.959 . S
C165 C163 1.561 . S
C166 C163 1.526 1_556 S
C166 C167 1.396 . S
C166 C171 1.389 1_556 S
C167 C161 1.465 . S
C167 C166 1.396 . S
C167 C168 1.399 . S
C168 H154 0.929 . S
C168 C167 1.399 . S
C168 C169 1.385 . S
C169 H155 0.931 . S
C169 C168 1.385 . S
C169 C170 1.389 . S
C170 C169 1.389 . S
C170 C171 1.388 1_556 S
C171 H156 0.929 . S
C171 C166 1.389 1_554 S
C171 C170 1.388 1_554 S
H172 C184 0.930 . S
H173 C186 0.930 . S
H174 C187 0.930 . S
H175 C191 0.959 . S
H176 C191 0.959 . S
H177 C191 0.961 . S
H178 C192 0.960 . S
H179 C192 0.961 . S
H180 C192 0.959 . S
H181 C195 0.929 . S
H182 C196 0.931 . S
H183 C198 0.930 1_556 S
C184 H172 0.930 . S
C184 C185 1.399 1_556 S
C184 C189 1.396 1_556 S
C185 C184 1.399 1_554 S
C185 C186 1.376 . S
C186 H173 0.930 . S
C186 C185 1.376 . S
C186 C187 1.388 . S
C187 H174 0.930 . S
C187 C186 1.388 . S
C187 C188 1.390 . S
C188 C187 1.390 . S
C188 C189 1.398 . S
C188 C194 1.465 . S
C189 C184 1.396 1_554 S
C189 C188 1.398 . S
C189 C190 1.515 1_554 S
C190 C189 1.515 1_556 S
C190 C191 1.502 . S
C190 C192 1.561 . S
C190 C193 1.526 1_556 S
C191 H175 0.959 . S
C191 H176 0.959 . S
C191 H177 0.961 . S
C191 C190 1.502 . S
C192 H178 0.960 . S
C192 H179 0.961 . S
C192 H180 0.959 . S
C192 C190 1.561 . S
C193 C190 1.526 1_554 S
C193 C194 1.396 . S
C193 C198 1.390 . S
C194 C188 1.465 . S
C194 C193 1.396 . S
C194 C195 1.399 . S
C195 H181 0.929 . S
C195 C194 1.399 . S
C195 C196 1.385 . S
C196 H182 0.931 . S
C196 C195 1.385 . S
C196 C197 1.389 . S
C197 C196 1.389 . S
C197 C198 1.387 . S
C198 H183 0.930 1_554 S
C198 C193 1.390 . S
C198 C197 1.387 . S
H199 C211 0.930 . S
H200 C213 0.930 . S
H201 C214 0.930 . S
H202 C218 0.959 . S
H203 C218 0.959 . S
H204 C218 0.961 . S
H205 C219 0.960 . S
H206 C219 0.961 . S
H207 C219 0.959 . S
H208 C222 0.929 1_554 S
H209 C223 0.931 . S
H210 C225 0.930 . S
C211 H199 0.930 . S
C211 C212 1.399 . S
C211 C216 1.399 . S
C212 C211 1.399 . S
C212 C213 1.376 1_556 S
C213 H200 0.930 . S
C213 C212 1.376 1_554 S
C213 C214 1.388 . S
C214 H201 0.930 . S
C214 C213 1.388 . S
C214 C215 1.390 1_554 S
C215 C214 1.390 1_556 S
C215 C216 1.394 . S
C215 C221 1.465 . S
C216 C211 1.399 . S
C216 C215 1.394 . S
C216 C217 1.516 . S
C217 C216 1.516 . S
C217 C218 1.502 . S
C217 C219 1.561 . S
C217 C220 1.526 . S
C218 H202 0.959 . S
C218 H203 0.959 . S
C218 H204 0.961 . S
C218 C217 1.502 . S
C219 H205 0.960 . S
C219 H206 0.961 . S
C219 H207 0.959 . S
C219 C217 1.561 . S
C220 C217 1.526 . S
C220 C221 1.396 . S
C220 C225 1.390 . S
C221 C215 1.465 . S
C221 C220 1.396 . S
C221 C222 1.399 . S
C222 H208 0.929 1_556 S
C222 C221 1.399 . S
C222 C223 1.385 . S
C223 H209 0.931 . S
C223 C222 1.385 . S
C223 C224 1.389 . S
C224 C223 1.389 . S
C224 C225 1.387 . S
C225 H210 0.930 . S
C225 C220 1.390 . S
C225 C224 1.387 . S
H226 C238 0.930 . S
H227 C240 0.930 . S
H228 C241 0.930 . S
H229 C245 0.959 . S
H230 C245 0.959 . S
H231 C245 0.961 . S
H232 C246 0.960 . S
H233 C246 0.961 . S
H234 C246 0.959 . S
H235 C249 0.929 . S
H236 C250 0.931 . S
H237 C252 0.930 . S
C238 H226 0.930 . S
C238 C239 1.399 . S
C238 C243 1.399 . S
C239 C238 1.399 . S
C239 C240 1.376 . S
C240 H227 0.930 . S
C240 C239 1.376 . S
C240 C241 1.388 . S
C241 H228 0.930 . S
C241 C240 1.388 . S
C241 C242 1.390 . S
C242 C241 1.390 . S
C242 C243 1.394 . S
C242 C248 1.465 . S
C243 C238 1.399 . S
C243 C242 1.394 . S
C243 C244 1.516 . S
C244 C243 1.516 . S
C244 C245 1.502 . S
C244 C246 1.561 . S
C244 C247 1.526 . S
C245 H229 0.959 . S
C245 H230 0.959 . S
C245 H231 0.961 . S
C245 C244 1.502 . S
C246 H232 0.960 . S
C246 H233 0.961 . S
C246 H234 0.959 . S
C246 C244 1.561 . S
C247 C244 1.526 . S
C247 C248 1.396 . S
C247 C252 1.390 . S
C248 C242 1.465 . S
C248 C247 1.396 . S
C248 C249 1.399 . S
C249 H235 0.929 . S
C249 C248 1.399 . S
C249 C250 1.385 . S
C250 H236 0.931 . S
C250 C249 1.385 . S
C250 C251 1.389 . S
C251 C250 1.389 . S
C251 C252 1.387 . S
C252 H237 0.930 . S
C252 C247 1.390 . S
C252 C251 1.387 . S
H253 C265 0.930 . S
H254 C267 0.930 . S
H255 C268 0.930 . S
H256 C272 0.959 . S
H257 C272 0.959 . S
H258 C272 0.961 . S
H259 C273 0.960 . S
H260 C273 0.961 . S
H261 C273 0.959 . S
H262 C276 0.929 . S
H263 C277 0.931 . S
H264 C279 0.930 . S
C265 H253 0.930 . S
C265 C266 1.399 . S
C265 C270 1.399 . S
C266 C265 1.399 . S
C266 C267 1.376 . S
C267 H254 0.930 . S
C267 C266 1.376 . S
C267 C268 1.388 . S
C268 H255 0.930 . S
C268 C267 1.388 . S
C268 C269 1.390 . S
C269 C268 1.390 . S
C269 C270 1.394 . S
C269 C275 1.465 . S
C270 C265 1.399 . S
C270 C269 1.394 . S
C270 C271 1.516 . S
C271 C270 1.516 . S
C271 C272 1.502 . S
C271 C273 1.561 . S
C271 C274 1.526 . S
C272 H256 0.959 . S
C272 H257 0.959 . S
C272 H258 0.961 . S
C272 C271 1.502 . S
C273 H259 0.960 . S
C273 H260 0.961 . S
C273 H261 0.959 . S
C273 C271 1.561 . S
C274 C271 1.526 . S
C274 C275 1.396 . S
C274 C279 1.390 . S
C275 C269 1.465 . S
C275 C274 1.396 . S
C275 C276 1.399 . S
C276 H262 0.929 . S
C276 C275 1.399 . S
C276 C277 1.385 . S
C277 H263 0.931 . S
C277 C276 1.385 . S
C277 C278 1.389 . S
C278 C277 1.389 . S
C278 C279 1.387 . S
C279 H264 0.930 . S
C279 C274 1.390 . S
C279 C278 1.387 . S
H280 C292 0.930 . S
H281 C294 0.930 . S
H282 C295 0.930 . S
H283 C299 0.959 . S
H284 C299 0.959 . S
H285 C299 0.961 . S
H286 C300 0.960 . S
H287 C300 0.961 . S
H288 C300 0.959 . S
H289 C303 0.929 . S
H290 C304 0.931 . S
H291 C306 0.930 . S
C292 H280 0.930 . S
C292 C293 1.399 . S
C292 C297 1.399 . S
C293 C292 1.399 . S
C293 C294 1.376 . S
C294 H281 0.930 . S
C294 C293 1.376 . S
C294 C295 1.388 . S
C295 H282 0.930 . S
C295 C294 1.388 . S
C295 C296 1.390 . S
C296 C295 1.390 . S
C296 C297 1.394 . S
C296 C302 1.465 . S
C297 C292 1.399 . S
C297 C296 1.394 . S
C297 C298 1.516 . S
C298 C297 1.516 . S
C298 C299 1.502 . S
C298 C300 1.561 . S
C298 C301 1.526 . S
C299 H283 0.959 . S
C299 H284 0.959 . S
C299 H285 0.961 . S
C299 C298 1.502 . S
C300 H286 0.960 . S
C300 H287 0.961 . S
C300 H288 0.959 . S
C300 C298 1.561 . S
C301 C298 1.526 . S
C301 C302 1.396 . S
C301 C306 1.390 . S
C302 C296 1.465 . S
C302 C301 1.396 . S
C302 C303 1.399 . S
C303 H289 0.929 . S
C303 C302 1.399 . S
C303 C304 1.385 . S
C304 H290 0.931 . S
C304 C303 1.385 . S
C304 C305 1.389 . S
C305 C304 1.389 . S
C305 C306 1.387 . S
C306 H291 0.930 . S
C306 C301 1.390 . S
C306 C305 1.387 . S
H307 C319 0.930 . S
H308 C321 0.930 . S
H309 C322 0.930 . S
H310 C326 0.959 . S
H311 C326 0.959 . S
H312 C326 0.961 . S
H313 C327 0.960 . S
H314 C327 0.961 . S
H315 C327 0.959 . S
H316 C330 0.929 . S
H317 C331 0.931 . S
H318 C333 0.930 . S
C319 H307 0.930 . S
C319 C320 1.399 . S
C319 C324 1.399 . S
C320 C319 1.399 . S
C320 C321 1.376 . S
C321 H308 0.930 . S
C321 C320 1.376 . S
C321 C322 1.388 . S
C322 H309 0.930 . S
C322 C321 1.388 . S
C322 C323 1.390 . S
C323 C322 1.390 . S
C323 C324 1.394 . S
C323 C329 1.465 . S
C324 C319 1.399 . S
C324 C323 1.394 . S
C324 C325 1.516 . S
C325 C324 1.516 . S
C325 C326 1.502 . S
C325 C327 1.561 . S
C325 C328 1.526 . S
C326 H310 0.959 . S
C326 H311 0.959 . S
C326 H312 0.961 . S
C326 C325 1.502 . S
C327 H313 0.960 . S
C327 H314 0.961 . S
C327 H315 0.959 . S
C327 C325 1.561 . S
C328 C325 1.526 . S
C328 C329 1.396 . S
C328 C333 1.390 . S
C329 C323 1.465 . S
C329 C328 1.396 . S
C329 C330 1.399 . S
C330 H316 0.929 . S
C330 C329 1.399 . S
C330 C331 1.385 . S
C331 H317 0.931 . S
C331 C330 1.385 . S
C331 C332 1.389 . S
C332 C331 1.389 . S
C332 C333 1.387 . S
C333 H318 0.930 . S
C333 C328 1.390 . S
C333 C332 1.387 . S
H334 C346 0.930 . S
H335 C348 0.930 . S
H336 C349 0.930 . S
H337 C353 0.959 1_655 S
H338 C353 0.959 . S
H339 C353 0.961 . S
H340 C354 0.960 . S
H341 C354 0.961 . S
H342 C354 0.959 . S
H343 C357 0.929 . S
H344 C358 0.931 . S
H345 C360 0.930 . S
C346 H334 0.930 . S
C346 C347 1.399 . S
C346 C351 1.399 . S
C347 C346 1.399 . S
C347 C348 1.376 1_565 S
C348 H335 0.930 . S
C348 C347 1.376 1_545 S
C348 C349 1.388 . S
C349 H336 0.930 . S
C349 C348 1.388 . S
C349 C350 1.390 . S
C350 C349 1.390 . S
C350 C351 1.394 1_545 S
C350 C356 1.465 . S
C351 C346 1.399 . S
C351 C350 1.394 1_565 S
C351 C352 1.516 . S
C352 C351 1.516 . S
C352 C353 1.502 . S
C352 C354 1.561 . S
C352 C355 1.526 . S
C353 H337 0.959 1_455 S
C353 H338 0.959 . S
C353 H339 0.961 . S
C353 C352 1.502 . S
C354 H340 0.960 . S
C354 H341 0.961 . S
C354 H342 0.959 . S
C354 C352 1.561 . S
C355 C352 1.526 . S
C355 C356 1.396 1_565 S
C355 C360 1.390 . S
C356 C350 1.465 . S
C356 C355 1.396 1_545 S
C356 C357 1.399 . S
C357 H343 0.929 . S
C357 C356 1.399 . S
C357 C358 1.385 . S
C358 H344 0.931 . S
C358 C357 1.385 . S
C358 C359 1.389 . S
C359 C358 1.389 . S
C359 C360 1.387 1_545 S
C360 H345 0.930 . S
C360 C355 1.390 . S
C360 C359 1.387 1_565 S
H361 C373 0.930 . S
H362 C375 0.930 . S
H363 C376 0.930 . S
H364 C380 0.959 . S
H365 C380 0.959 . S
H366 C380 0.961 . S
H367 C381 0.960 . S
H368 C381 0.961 . S
H369 C381 0.959 . S
H370 C384 0.929 . S
H371 C385 0.931 . S
H372 C387 0.930 . S
C373 H361 0.930 . S
C373 C374 1.399 . S
C373 C378 1.399 . S
C374 C373 1.399 . S
C374 C375 1.376 1_465 S
C375 H362 0.930 . S
C375 C374 1.376 1_645 S
C375 C376 1.388 . S
C376 H363 0.930 . S
C376 C375 1.388 . S
C376 C377 1.390 . S
C377 C376 1.390 . S
C377 C378 1.394 1_645 S
C377 C383 1.465 . S
C378 C373 1.399 . S
C378 C377 1.394 1_465 S
C378 C379 1.516 . S
C379 C378 1.516 . S
C379 C380 1.502 . S
C379 C381 1.561 1_455 S
C379 C382 1.526 . S
C380 H364 0.959 . S
C380 H365 0.959 . S
C380 H366 0.961 . S
C380 C379 1.502 . S
C381 H367 0.960 . S
C381 H368 0.961 . S
C381 H369 0.959 . S
C381 C379 1.561 1_655 S
C382 C379 1.526 . S
C382 C383 1.396 1_465 S
C382 C387 1.390 . S
C383 C377 1.465 . S
C383 C382 1.396 1_645 S
C383 C384 1.399 . S
C384 H370 0.929 . S
C384 C383 1.399 . S
C384 C385 1.385 . S
C385 H371 0.931 . S
C385 C384 1.385 . S
C385 C386 1.389 . S
C386 C385 1.389 . S
C386 C387 1.387 1_645 S
C387 H372 0.930 . S
C387 C382 1.390 . S
C387 C386 1.387 1_465 S
H388 C400 0.930 . S
H389 C402 0.930 . S
H390 C403 0.930 . S
H391 C407 0.959 . S
H392 C407 0.959 . S
H393 C407 0.961 . S
H394 C408 0.960 . S
H395 C408 0.961 . S
H396 C408 0.959 . S
H397 C411 0.929 . S
H398 C412 0.931 . S
H399 C414 0.930 . S
C400 H388 0.930 . S
C400 C401 1.399 . S
C400 C405 1.399 . S
C401 C400 1.399 . S
C401 C402 1.376 . S
C402 H389 0.930 . S
C402 C401 1.376 . S
C402 C403 1.388 . S
C403 H390 0.930 . S
C403 C402 1.388 . S
C403 C404 1.390 . S
C404 C403 1.390 . S
C404 C405 1.394 . S
C404 C410 1.465 . S
C405 C400 1.399 . S
C405 C404 1.394 . S
C405 C406 1.516 . S
C406 C405 1.516 . S
C406 C407 1.502 . S
C406 C408 1.561 . S
C406 C409 1.526 . S
C407 H391 0.959 . S
C407 H392 0.959 . S
C407 H393 0.961 . S
C407 C406 1.502 . S
C408 H394 0.960 . S
C408 H395 0.961 . S
C408 H396 0.959 . S
C408 C406 1.561 . S
C409 C406 1.526 . S
C409 C410 1.396 . S
C409 C414 1.390 . S
C410 C404 1.465 . S
C410 C409 1.396 . S
C410 C411 1.399 . S
C411 H397 0.929 . S
C411 C410 1.399 . S
C411 C412 1.385 . S
C412 H398 0.931 . S
C412 C411 1.385 . S
C412 C413 1.389 . S
C413 C412 1.389 . S
C413 C414 1.387 . S
C414 H399 0.930 . S
C414 C409 1.390 . S
C414 C413 1.387 . S
H415 C427 0.930 . S
H416 C429 0.930 . S
H417 C430 0.930 . S
H418 C434 0.959 . S
H419 C434 0.959 . S
H420 C434 0.961 . S
H421 C435 0.960 . S
H422 C435 0.961 . S
H423 C435 0.959 . S
H424 C438 0.929 . S
H425 C439 0.931 . S
H426 C441 0.930 . S
C427 H415 0.930 . S
C427 C428 1.399 . S
C427 C432 1.399 . S
C428 C427 1.399 . S
C428 C429 1.376 . S
C429 H416 0.930 . S
C429 C428 1.376 . S
C429 C430 1.388 . S
C430 H417 0.930 . S
C430 C429 1.388 . S
C430 C431 1.390 . S
C431 C430 1.390 . S
C431 C432 1.394 . S
C431 C437 1.465 . S
C432 C427 1.399 . S
C432 C431 1.394 . S
C432 C433 1.516 . S
C433 C432 1.516 . S
C433 C434 1.502 . S
C433 C435 1.561 . S
C433 C436 1.526 . S
C434 H418 0.959 . S
C434 H419 0.959 . S
C434 H420 0.961 . S
C434 C433 1.502 . S
C435 H421 0.960 . S
C435 H422 0.961 . S
C435 H423 0.959 . S
C435 C433 1.561 . S
C436 C433 1.526 . S
C436 C437 1.396 . S
C436 C441 1.390 . S
C437 C431 1.465 . S
C437 C436 1.396 . S
C437 C438 1.399 . S
C438 H424 0.929 . S
C438 C437 1.399 . S
C438 C439 1.385 . S
C439 H425 0.931 . S
C439 C438 1.385 . S
C439 C440 1.389 . S
C440 C439 1.389 . S
C440 C441 1.387 . S
C441 H426 0.930 . S
C441 C436 1.390 . S
C441 C440 1.387 . S
C143 C105 1.405 . S
C131 C3 1.280 . S
C158 C4 1.477 1_556 S
C170 C91 1.532 . S
C185 C19 1.497 1_554 S
C197 C110 1.544 . S
C212 C7 1.269 . S
C224 C86 1.412 . S
C239 C37 1.231 . S
C251 C67 1.387 . S
C266 C28 1.452 . S
C278 C53 1.525 1_655 S
C305 C72 1.476 . S
C293 C41 1.413 . S
C332 C48 1.417 . S
C320 C25 1.292 . S
C347 C20 1.329 . S
C359 C44 1.526 . S
C374 C16 1.374 . S
C386 C63 1.564 . S
C413 C82 1.518 . S
C401 C40 1.326 . S
C428 C24 1.448 . S
C440 C101 1.524 . S
