# Generated by pormake.
# Topology pyr, (3,6)-cn, num edge types: 1
# Building blocks:
#     Node 0, Type 0, BuildingBlock: PAMTOO_clean_linker_0, # of connection points: 3
#     Node 1, Type 0, BuildingBlock: PAMTOO_clean_linker_0, # of connection points: 3
#     Node 2, Type 0, BuildingBlock: PAMTOO_clean_linker_0, # of connection points: 3
#     Node 3, Type 0, BuildingBlock: PAMTOO_clean_linker_0, # of connection points: 3
#     Node 4, Type 0, BuildingBlock: PAMTOO_clean_linker_0, # of connection points: 3
#     Node 5, Type 0, BuildingBlock: PAMTOO_clean_linker_0, # of connection points: 3
#     Node 6, Type 0, BuildingBlock: PAMTOO_clean_linker_0, # of connection points: 3
#     Node 7, Type 0, BuildingBlock: PAMTOO_clean_linker_0, # of connection points: 3
#     Node 8, Type 1, BuildingBlock: LEVNOQ01_clean_sbu_1, # of connection points: 6
#     Node 9, Type 1, BuildingBlock: LEVNOQ01_clean_sbu_1, # of connection points: 6
#     Node 10, Type 1, BuildingBlock: LEVNOQ01_clean_sbu_1, # of connection points: 6
#     Node 11, Type 1, BuildingBlock: LEVNOQ01_clean_sbu_1, # of connection points: 6
#     Edge 12, Type (0, 1), BuildingBlock: XUDNAN_clean_linker_2, # of connection points: 2
#     Edge 13, Type (0, 1), BuildingBlock: XUDNAN_clean_linker_2, # of connection points: 2
#     Edge 14, Type (0, 1), BuildingBlock: XUDNAN_clean_linker_2, # of connection points: 2
#     Edge 15, Type (0, 1), BuildingBlock: XUDNAN_clean_linker_2, # of connection points: 2
#     Edge 16, Type (0, 1), BuildingBlock: XUDNAN_clean_linker_2, # of connection points: 2
#     Edge 17, Type (0, 1), BuildingBlock: XUDNAN_clean_linker_2, # of connection points: 2
#     Edge 18, Type (0, 1), BuildingBlock: XUDNAN_clean_linker_2, # of connection points: 2
#     Edge 19, Type (0, 1), BuildingBlock: XUDNAN_clean_linker_2, # of connection points: 2
#     Edge 20, Type (0, 1), BuildingBlock: XUDNAN_clean_linker_2, # of connection points: 2
#     Edge 21, Type (0, 1), BuildingBlock: XUDNAN_clean_linker_2, # of connection points: 2
#     Edge 22, Type (0, 1), BuildingBlock: XUDNAN_clean_linker_2, # of connection points: 2
#     Edge 23, Type (0, 1), BuildingBlock: XUDNAN_clean_linker_2, # of connection points: 2
#     Edge 24, Type (0, 1), BuildingBlock: XUDNAN_clean_linker_2, # of connection points: 2
#     Edge 25, Type (0, 1), BuildingBlock: XUDNAN_clean_linker_2, # of connection points: 2
#     Edge 26, Type (0, 1), BuildingBlock: XUDNAN_clean_linker_2, # of connection points: 2
#     Edge 27, Type (0, 1), BuildingBlock: XUDNAN_clean_linker_2, # of connection points: 2
#     Edge 28, Type (0, 1), BuildingBlock: XUDNAN_clean_linker_2, # of connection points: 2
#     Edge 29, Type (0, 1), BuildingBlock: XUDNAN_clean_linker_2, # of connection points: 2
#     Edge 30, Type (0, 1), BuildingBlock: XUDNAN_clean_linker_2, # of connection points: 2
#     Edge 31, Type (0, 1), BuildingBlock: XUDNAN_clean_linker_2, # of connection points: 2
#     Edge 32, Type (0, 1), BuildingBlock: XUDNAN_clean_linker_2, # of connection points: 2
#     Edge 33, Type (0, 1), BuildingBlock: XUDNAN_clean_linker_2, # of connection points: 2
#     Edge 34, Type (0, 1), BuildingBlock: XUDNAN_clean_linker_2, # of connection points: 2
#     Edge 35, Type (0, 1), BuildingBlock: XUDNAN_clean_linker_2, # of connection points: 2
# Relax obj value: 0.092
# Max RMSD: 0.205
# Mean RMSD: 0.143
data_MOF--net-pry--node1-LEVNOQ01_clean_sbu_1--node2-PAMTOO_clean_linker_0--edge1-XUDNAN_clean_linker_2
_symmetry_space_group_name_H-M    P1
_symmetry_Int_Tables_number       1
_symmetry_cell_setting            triclinic
loop_
_symmetry_equiv_pos_as_xyz
'x, y, z'
_cell_length_a     36.358896
_cell_length_b     36.086555
_cell_length_c     35.636258
_cell_angle_alpha  91.997057
_cell_angle_beta   92.589789
_cell_angle_gamma 98.691552
loop_
_atom_site_label
_atom_site_type_symbol
_atom_site_fract_x
_atom_site_fract_y
_atom_site_fract_z
_atom_type_partial_charge
H0 H 0.10621 0.17105 0.19155 0.0
H1 H 0.19186 0.10048 0.1994 0.0
H2 H 0.19213 0.17727 0.11079 0.0
H3 H 0.21121 0.10237 0.08767 0.0
C4 C 0.22361 0.09492 0.11498 0.0
O5 O 0.22603 0.12519 0.14046 0.0
H6 H 0.2046 0.07064 0.12519 0.0
C7 C 0.13138 0.16237 0.18145 0.0
C8 C 0.14718 0.17826 0.14877 0.0
C9 C 0.14686 0.13367 0.19976 0.0
C10 C 0.1792 0.12214 0.18573 0.0
C11 C 0.19521 0.13746 0.15365 0.0
C12 C 0.17921 0.1654 0.13537 0.0
H13 H 0.34977 0.9486 0.6874 0.0
H14 H 0.33015 0.88371 0.58216 0.0
H15 H 0.42388 0.87208 0.6535 0.0
H16 H 0.43515 0.86895 0.57766 0.0
C17 C 0.41018 0.84849 0.56788 0.0
O18 O 0.38408 0.84524 0.5949 0.0
H19 H 0.39802 0.85886 0.54182 0.0
C20 C 0.35818 0.92896 0.66709 0.0
C21 C 0.39004 0.91203 0.67545 0.0
C22 C 0.33624 0.91943 0.63317 0.0
C23 C 0.34622 0.89194 0.60823 0.0
C24 C 0.37707 0.87447 0.61668 0.0
C25 C 0.3993 0.88526 0.64917 0.0
H26 H 0.68918 0.35189 0.94553 0.0
H27 H 0.59869 0.33086 0.86166 0.0
H28 H 0.6889 0.42014 0.84972 0.0
H29 H 0.6046 0.43037 0.83996 0.0
C30 C 0.60394 0.41133 0.81452 0.0
O31 O 0.62589 0.38401 0.8199 0.0
H32 H 0.57459 0.39788 0.80855 0.0
C33 C 0.67491 0.35916 0.92021 0.0
C34 C 0.69251 0.38874 0.89994 0.0
C35 C 0.64243 0.33623 0.90581 0.0
C36 C 0.62434 0.34717 0.87335 0.0
C37 C 0.64097 0.3775 0.85362 0.0
C38 C 0.67525 0.39816 0.86651 0.0
H39 H 0.88209 0.65519 0.47736 0.0
H40 H 0.88353 0.54642 0.42577 0.0
H41 H 0.96825 0.63622 0.4028 0.0
H42 H 0.89021 0.59971 0.35272 0.0
C43 C 0.90308 0.57364 0.34974 0.0
O44 O 0.93045 0.57245 0.3779 0.0
H45 H 0.88036 0.54962 0.35232 0.0
C46 C 0.89698 0.63614 0.46211 0.0
C47 C 0.92997 0.6502 0.44452 0.0
C48 C 0.87997 0.59872 0.4551 0.0
C49 C 0.89779 0.57453 0.43324 0.0
C50 C 0.92708 0.58935 0.41173 0.0
C51 C 0.9448 0.62607 0.41923 0.0
H52 H 0.86376 0.92275 0.84319 0.0
H53 H 0.85154 0.85511 0.941 0.0
H54 H 0.93898 0.84469 0.86563 0.0
H55 H 0.86939 0.77766 0.91438 0.0
C56 C 0.89282 0.78635 0.93562 0.0
O57 O 0.91079 0.82221 0.92906 0.0
H58 H 0.87999 0.78727 0.96329 0.0
C59 C 0.8716 0.90069 0.86028 0.0
C60 C 0.90246 0.88426 0.84999 0.0
C61 C 0.85183 0.89016 0.89255 0.0
C62 C 0.86545 0.86353 0.91576 0.0
C63 C 0.89663 0.84661 0.90585 0.0
C64 C 0.91471 0.85703 0.87284 0.0
H65 H 0.70689 0.08318 0.36679 0.0
H66 H 0.62502 0.15807 0.35742 0.0
H67 H 0.69972 0.16668 0.45414 0.0
H68 H 0.62084 0.19258 0.46418 0.0
C69 C 0.61956 0.20395 0.43562 0.0
O70 O 0.65088 0.19823 0.4172 0.0
H71 H 0.59413 0.18972 0.41951 0.0
C72 C 0.69297 0.10516 0.37834 0.0
C73 C 0.70572 0.12218 0.41374 0.0
C74 C 0.66349 0.11738 0.35736 0.0
C75 C 0.64722 0.14723 0.37268 0.0
C76 C 0.6604 0.16474 0.40733 0.0
C77 C 0.68885 0.15172 0.42812 0.0
H78 H 0.37805 0.68636 0.08099 0.0
H79 H 0.36216 0.61153 0.17362 0.0
H80 H 0.44599 0.70706 0.18267 0.0
H81 H 0.47284 0.64544 0.21323 0.0
C82 C 0.4464 0.62838 0.22112 0.0
O83 O 0.41696 0.64723 0.21406 0.0
H84 H 0.4424 0.60119 0.20456 0.0
C85 C 0.38465 0.67765 0.10883 0.0
C86 C 0.4128 0.70074 0.1304 0.0
C87 C 0.36408 0.64584 0.12408 0.0
C88 C 0.37655 0.63505 0.1596 0.0
C89 C 0.407 0.65635 0.17937 0.0
C90 C 0.42461 0.68935 0.16527 0.0
H91 H 0.06981 0.36662 0.67882 0.0
H92 H 0.1518 0.46561 0.67152 0.0
H93 H 0.13934 0.38093 0.58394 0.0
H94 H 0.21134 0.41421 0.64459 0.0
C95 C 0.21257 0.44041 0.62865 0.0
O96 O 0.17854 0.44317 0.61111 0.0
H97 H 0.22013 0.46425 0.64961 0.0
C98 C 0.09091 0.3836 0.66369 0.0
C99 C 0.10087 0.3703 0.62841 0.0
C100 C 0.10886 0.41837 0.67966 0.0
C101 C 0.13597 0.43982 0.65933 0.0
C102 C 0.14701 0.42606 0.62537 0.0
C103 C 0.1293 0.39176 0.60967 0.0
O104 O 0.98516 0.02719 0.61291 0.0
Mg105 Mg 0.03286 0.03673 0.58085 0.0
O106 O 0.99727 0.97829 0.58236 0.0
Mg107 Mg 0.01785 0.01097 0.52382 0.0
O108 O 0.03687 0.07783 0.54316 0.0
O109 O 0.05606 0.08606 0.60384 0.0
O110 O 0.04063 0.03642 0.46227 0.0
O111 O 0.95774 0.0307 0.51965 0.0
Mg112 Mg 0.98339 0.98321 0.46604 0.0
O113 O 3e-05 0.94627 0.50341 0.0
O114 O 0.01772 0.99013 0.42258 0.0
O115 O 0.94225 0.01635 0.46075 0.0
O116 O 0.95315 0.93175 0.45985 0.0
C117 C 0.09395 0.99577 0.56555 0.0
C118 C 0.98298 0.99215 0.61085 0.0
C119 C 0.05028 0.09996 0.57187 0.0
C120 C 0.03904 0.02074 0.42892 0.0
C121 C 0.93613 0.03264 0.49088 0.0
C122 C 0.97589 0.92139 0.48454 0.0
O123 O 0.07766 0.00714 0.59323 0.0
O124 O 0.07853 0.99595 0.53275 0.0
O125 O 0.48226 0.0849 0.02922 0.0
Mg126 Mg 0.53911 0.10392 0.02856 0.0
O127 O 0.48777 0.02474 0.02423 0.0
Mg128 Mg 0.5503 0.01669 0.00804 0.0
O129 O 0.56927 0.07592 0.99341 0.0
O130 O 0.55153 0.1281 0.97726 0.0
O131 O 0.61206 0.0054 0.99235 0.0
O132 O 0.5292 0.00447 0.94238 0.0
Mg133 Mg 0.54371 0.94168 0.97834 0.0
O134 O 0.53343 0.95793 0.03072 0.0
O135 O 0.59913 0.95013 0.96196 0.0
O136 O 0.49868 0.94761 0.9423 0.0
O137 O 0.53347 0.89792 0.01116 0.0
C138 C 0.57742 0.06416 0.09152 0.0
C139 C 0.46793 0.05086 0.02968 0.0
C140 C 0.56907 0.10085 0.96872 0.0
C141 C 0.6226 0.97812 0.97356 0.0
C142 C 0.50689 0.97758 0.92548 0.0
C143 C 0.5274 0.92236 0.03653 0.0
O144 O 0.56865 0.09494 0.07996 0.0
O145 O 0.57215 0.03397 0.07047 0.0
O146 O 0.51928 0.60865 0.58678 0.0
Mg147 Mg 0.51484 0.55213 0.59935 0.0
O148 O 0.51799 0.58949 0.52708 0.0
Mg149 Mg 0.53849 0.53106 0.51904 0.0
O150 O 0.55851 0.52912 0.57986 0.0
O151 O 0.54994 0.53854 0.6409 0.0
O152 O 0.55937 0.47367 0.50549 0.0
O153 O 0.59944 0.55972 0.50999 0.0
Mg154 Mg 0.56479 0.53629 0.43264 0.0
O155 O 0.51823 0.53314 0.45974 0.0
O156 O 0.58346 0.48647 0.44987 0.0
O157 O 0.59002 0.58824 0.4584 0.0
O158 O 0.51639 0.53487 0.39831 0.0
C159 C 0.45536 0.50023 0.55245 0.0
C160 C 0.51501 0.61475 0.5523 0.0
C161 C 0.56986 0.52804 0.6146 0.0
C162 C 0.57779 0.46505 0.47738 0.0
C163 C 0.61194 0.58214 0.48517 0.0
C164 C 0.49949 0.53653 0.42918 0.0
O165 O 0.46327 0.51857 0.58352 0.0
O166 O 0.47887 0.50032 0.52705 0.0
O167 O 0.03058 0.41455 0.09539 0.0
Mg168 Mg 0.05022 0.47048 0.08839 0.0
O169 O 0.04498 0.42227 0.03744 0.0
Mg170 Mg 0.02943 0.48633 0.02521 0.0
O171 O 0.01216 0.50662 0.08571 0.0
O172 O 0.04281 0.49272 0.13851 0.0
O173 O 0.01449 0.54568 0.00577 0.0
O174 O 0.9654 0.4643 0.02315 0.0
Mg175 Mg 0.99327 0.46788 0.96306 0.0
O176 O 0.04954 0.47077 0.96451 0.0
O177 O 0.97575 0.52188 0.95874 0.0
O178 O 0.95907 0.41959 0.98066 0.0
O179 O 0.01091 0.45246 0.91374 0.0
C180 C 0.11587 0.50785 0.05574 0.0
C181 C 0.04072 0.4008 0.0655 0.0
C182 C 0.01753 0.50865 0.12211 0.0
C183 C 0.99123 0.55029 0.9788 0.0
C184 C 0.94498 0.43666 0.00628 0.0
C185 C 0.04397 0.45946 0.92935 0.0
O186 O 0.10746 0.486 0.08188 0.0
O187 O 0.09062 0.51431 0.0322 0.0
H188 H 0.12011 0.16093 0.26685 0.0
H189 H 0.13139 0.05831 0.20405 0.0
H190 H 0.10857 0.02126 0.257 0.0
H191 H 0.14837 0.13184 0.35774 0.0
H192 H 0.11473 0.15263 0.38376 0.0
H193 H 0.13079 0.17255 0.34064 0.0
H194 H 0.06293 0.16586 0.31321 0.0
H195 H 0.04659 0.1465 0.35647 0.0
H196 H 0.03372 0.12075 0.31239 0.0
H197 H 0.09027 0.99499 0.31647 0.0
H198 H 0.06619 0.9782 0.37743 0.0
H199 H 0.06075 0.0954 0.40529 0.0
C200 C 0.11726 0.13064 0.26421 0.0
C201 C 0.12837 0.11263 0.23127 0.0
C202 C 0.12402 0.07291 0.22904 0.0
C203 C 0.111 0.05153 0.25905 0.0
C204 C 0.10185 0.06996 0.29149 0.0
C205 C 0.10389 0.10846 0.29429 0.0
C206 C 0.0914 0.12029 0.33284 0.0
C207 C 0.12322 0.14586 0.35506 0.0
C208 C 0.05658 0.13949 0.32846 0.0
C209 C 0.08245 0.08238 0.35109 0.0
C210 C 0.08932 0.05412 0.32639 0.0
C211 C 0.08437 0.0168 0.3359 0.0
C212 C 0.07077 0.00761 0.37093 0.0
C213 C 0.06133 0.03524 0.3966 0.0
C214 C 0.06804 0.07354 0.38676 0.0
H215 H 0.40191 0.97766 0.72273 0.0
H216 H 0.42871 0.86413 0.71372 0.0
H217 H 0.47152 0.87758 0.76829 0.0
H218 H 0.49339 0.02474 0.76552 0.0
H219 H 0.47277 0.05331 0.79863 0.0
H220 H 0.44923 0.03934 0.75356 0.0
H221 H 0.3904 0.00998 0.78647 0.0
H222 H 0.41356 0.02442 0.83146 0.0
H223 H 0.39449 0.97578 0.82155 0.0
H224 H 0.51226 0.90123 0.8216 0.0
H225 H 0.53287 0.92507 0.88532 0.0
H226 H 0.47127 0.01838 0.87232 0.0
C227 C 0.41685 0.95561 0.732 0.0
C228 C 0.41324 0.92043 0.71165 0.0
C229 C 0.43264 0.89228 0.7262 0.0
C230 C 0.4571 0.89949 0.75771 0.0
C231 C 0.46115 0.93458 0.7759 0.0
C232 C 0.44055 0.96177 0.76484 0.0
C233 C 0.44621 0.9946 0.79383 0.0
C234 C 0.46659 0.03011 0.77687 0.0
C235 C 0.40894 0.00157 0.80925 0.0
C236 C 0.47123 0.98011 0.82374 0.0
C237 C 0.48113 0.94653 0.81108 0.0
C238 C 0.50441 0.92725 0.83216 0.0
C239 C 0.51604 0.94114 0.86832 0.0
C240 C 0.5032 0.97315 0.88398 0.0
C241 C 0.48162 0.99395 0.86097 0.0
H242 H 0.597 0.38683 0.74166 0.0
H243 H 0.64288 0.48272 0.81426 0.0
H244 H 0.66425 0.51767 0.759 0.0
H245 H 0.67014 0.4109 0.66217 0.0
H246 H 0.63417 0.39332 0.6268 0.0
H247 H 0.63592 0.37111 0.67131 0.0
H248 H 0.56773 0.38022 0.68167 0.0
H249 H 0.56589 0.40114 0.63717 0.0
H250 H 0.55506 0.42654 0.67881 0.0
H251 H 0.6649 0.54671 0.69963 0.0
H252 H 0.63011 0.57051 0.64775 0.0
H253 H 0.58421 0.45755 0.60995 0.0
C254 C 0.61244 0.41491 0.74554 0.0
C255 C 0.61789 0.43259 0.78158 0.0
C256 C 0.63813 0.4691 0.78652 0.0
C257 C 0.65108 0.48873 0.75538 0.0
C258 C 0.64438 0.471 0.7197 0.0
C259 C 0.62556 0.4347 0.71467 0.0
C260 C 0.61485 0.4248 0.67366 0.0
C261 C 0.64029 0.39848 0.65754 0.0
C262 C 0.57343 0.40728 0.66754 0.0
C263 C 0.62357 0.46333 0.6577 0.0
C264 C 0.64414 0.48864 0.68389 0.0
C265 C 0.64979 0.52713 0.6786 0.0
C266 C 0.6301 0.54053 0.64884 0.0
C267 C 0.60477 0.51545 0.62553 0.0
C268 C 0.60443 0.47663 0.62729 0.0
H269 H 0.92024 0.51165 0.31308 0.0
H270 H 0.92024 0.63074 0.30142 0.0
H271 H 0.94185 0.6257 0.23672 0.0
H272 H 0.00297 0.50702 0.26638 0.0
H273 H 0.98692 0.46114 0.24486 0.0
H274 H 0.96895 0.4745 0.28864 0.0
H275 H 0.90174 0.45903 0.25857 0.0
H276 H 0.91977 0.44636 0.21444 0.0
H277 H 0.88965 0.48165 0.21641 0.0
H278 H 0.96599 0.60767 0.17418 0.0
H279 H 0.99806 0.57933 0.1227 0.0
H280 H 0.98151 0.47283 0.1767 0.0
C281 C 0.9247 0.53653 0.29672 0.0
C282 C 0.91837 0.57142 0.31166 0.0
C283 C 0.92482 0.6037 0.29001 0.0
C284 C 0.93672 0.60104 0.25327 0.0
C285 C 0.94196 0.56593 0.23892 0.0
C286 C 0.93651 0.53435 0.26018 0.0
C287 C 0.94667 0.50049 0.23951 0.0
C288 C 0.97826 0.48491 0.26112 0.0
C289 C 0.9124 0.4701 0.23177 0.0
C290 C 0.95961 0.51815 0.20371 0.0
C291 C 0.95609 0.55572 0.20337 0.0
C292 C 0.96853 0.57817 0.1739 0.0
C293 C 0.98644 0.56199 0.14478 0.0
C294 C 0.99187 0.52419 0.1462 0.0
C295 C 0.97725 0.50184 0.17518 0.0
H296 H 0.27499 0.12126 0.06374 0.0
H297 H 0.25745 0.04229 0.15228 0.0
H298 H 0.31566 0.01802 0.13723 0.0
H299 H 0.31019 0.0609 0.99785 0.0
H300 H 0.34428 0.097 0.98058 0.0
H301 H 0.30217 0.10901 0.9992 0.0
H302 H 0.34062 0.15691 0.04728 0.0
H303 H 0.38278 0.14585 0.02805 0.0
H304 H 0.37604 0.14183 0.07763 0.0
H305 H 0.37608 0.00071 0.10955 0.0
H306 H 0.43584 0.99901 0.07863 0.0
H307 H 0.41241 0.08931 0.00874 0.0
C308 C 0.28365 0.09912 0.08018 0.0
C309 C 0.26151 0.08337 0.10892 0.0
C310 C 0.27389 0.05458 0.12998 0.0
C311 C 0.30681 0.04048 0.12145 0.0
C312 C 0.3273 0.05562 0.09188 0.0
C313 C 0.3164 0.08479 0.07205 0.0
C314 C 0.34335 0.0967 0.04196 0.0
C315 C 0.32382 0.09053 0.00257 0.0
C316 C 0.36179 0.13775 0.04918 0.0
C317 C 0.37115 0.06982 0.04782 0.0
C318 C 0.36146 0.04599 0.07645 0.0
C319 C 0.38376 0.01926 0.08703 0.0
C320 C 0.41743 0.01805 0.06896 0.0
C321 C 0.42859 0.04363 0.04087 0.0
C322 C 0.40443 0.069 0.02972 0.0
H323 H 0.26982 0.88875 0.59435 0.0
H324 H 0.32681 0.99219 0.64989 0.0
H325 H 0.27224 0.02273 0.63496 0.0
H326 H 0.22635 0.93589 0.51746 0.0
H327 H 0.18419 0.90227 0.51494 0.0
H328 H 0.22792 0.888 0.52937 0.0
H329 H 0.1998 0.86352 0.59089 0.0
H330 H 0.15604 0.87765 0.57668 0.0
H331 H 0.17899 0.8947 0.62121 0.0
H332 H 0.21148 0.04143 0.61749 0.0
H333 H 0.14696 0.04769 0.59802 0.0
H334 H 0.12935 0.93425 0.5492 0.0
C335 C 0.27129 0.91802 0.6029 0.0
C336 C 0.30295 0.93784 0.62372 0.0
C337 C 0.30289 0.97593 0.6348 0.0
C338 C 0.27212 0.99375 0.62602 0.0
C339 C 0.24169 0.97344 0.60551 0.0
C340 C 0.24101 0.93652 0.59378 0.0
C341 C 0.20443 0.92121 0.57224 0.0
C342 C 0.21114 0.91125 0.53106 0.0
C343 C 0.18359 0.88727 0.59143 0.0
C344 C 0.18413 0.95495 0.57507 0.0
C345 C 0.20652 0.98479 0.59411 0.0
C346 C 0.19388 0.01851 0.6021 0.0
C347 C 0.15722 0.02178 0.59093 0.0
C348 C 0.1335 0.99165 0.57177 0.0
C349 C 0.14724 0.95793 0.56312 0.0
H350 H 0.74777 0.3506 0.92124 0.0
H351 H 0.72428 0.46359 0.90594 0.0
H352 H 0.7859 0.48901 0.93739 0.0
H353 H 0.7867 0.371 0.015 0.0
H354 H 0.81937 0.33836 0.01081 0.0
H355 H 0.77535 0.32979 0.98422 0.0
H356 H 0.80908 0.32602 0.92183 0.0
H357 H 0.85299 0.33319 0.94832 0.0
H358 H 0.84482 0.36393 0.91102 0.0
H359 H 0.84853 0.50068 0.97445 0.0
H360 H 0.91108 0.49847 0.00315 0.0
H361 H 0.88972 0.37689 0.99625 0.0
C362 C 0.75545 0.38079 0.92448 0.0
C363 C 0.73105 0.40524 0.91212 0.0
C364 C 0.74259 0.44447 0.91563 0.0
C365 C 0.7772 0.45902 0.93381 0.0
C366 C 0.79919 0.43377 0.94839 0.0
C367 C 0.78881 0.39549 0.94342 0.0
C368 C 0.8162 0.37387 0.96249 0.0
C369 C 0.79834 0.35196 0.99505 0.0
C370 C 0.83171 0.34776 0.93421 0.0
C371 C 0.84524 0.40594 0.97715 0.0
C372 C 0.83447 0.44031 0.96982 0.0
C373 C 0.8571 0.47397 0.98046 0.0
C374 C 0.89238 0.47237 0.99721 0.0
C375 C 0.90484 0.43737 0.0022 0.0
C376 C 0.8805 0.40385 0.99326 0.0
H377 H 0.83461 0.59584 0.51644 0.0
H378 H 0.83341 0.5832 0.39469 0.0
H379 H 0.76545 0.57406 0.39124 0.0
H380 H 0.74647 0.52501 0.52479 0.0
H381 H 0.73096 0.5516 0.56313 0.0
H382 H 0.78011 0.55258 0.55726 0.0
H383 H 0.7887 0.62508 0.55626 0.0
H384 H 0.73956 0.6243 0.56145 0.0
H385 H 0.76172 0.6471 0.52232 0.0
H386 H 0.70131 0.57619 0.39818 0.0
H387 H 0.63822 0.58014 0.41578 0.0
H388 H 0.67475 0.58687 0.53421 0.0
C389 C 0.81973 0.59031 0.48934 0.0
C390 C 0.83911 0.58967 0.45587 0.0
C391 C 0.81905 0.58301 0.42068 0.0
C392 C 0.78043 0.57789 0.41837 0.0
C393 C 0.76207 0.57924 0.45151 0.0
C394 C 0.78055 0.5844 0.48647 0.0
C395 C 0.75288 0.58567 0.51715 0.0
C396 C 0.75259 0.55169 0.54206 0.0
C397 C 0.76122 0.62276 0.54067 0.0
C398 C 0.71661 0.58299 0.49343 0.0
C399 C 0.72313 0.57908 0.45573 0.0
C400 C 0.69549 0.57853 0.4276 0.0
C401 C 0.65971 0.58136 0.43805 0.0
C402 C 0.65144 0.58415 0.47646 0.0
C403 C 0.68032 0.58484 0.50467 0.0
H404 H 0.11952 0.23968 0.17822 0.0
H405 H 0.137 0.18425 0.07206 0.0
H406 H 0.1117 0.23412 0.03784 0.0
H407 H 0.03336 0.27028 0.15135 0.0
H408 H 0.04455 0.31466 0.17729 0.0
H409 H 0.06435 0.27465 0.19276 0.0
H410 H 0.13074 0.31252 0.19045 0.0
H411 H 0.11111 0.35264 0.17495 0.0
H412 H 0.14502 0.33399 0.14747 0.0
H413 H 0.0847 0.29338 0.01498 0.0
H414 H 0.05827 0.35277 0.00765 0.0
H415 H 0.05733 0.36592 0.12906 0.0
C416 C 0.11765 0.2377 0.14779 0.0
C417 C 0.13034 0.20779 0.12805 0.0
C418 C 0.1279 0.20695 0.08806 0.0
C419 C 0.1134 0.23519 0.06827 0.0
C420 C 0.10138 0.26444 0.08866 0.0
C421 C 0.10345 0.26572 0.12761 0.0
C422 C 0.08937 0.30019 0.14321 0.0
C423 C 0.05591 0.28928 0.16758 0.0
C424 C 0.12093 0.32637 0.16532 0.0
C425 C 0.07793 0.31754 0.1072 0.0
C426 C 0.08549 0.29713 0.0758 0.0
C427 C 0.0784 0.30928 0.03955 0.0
C428 C 0.06329 0.34303 0.03555 0.0
C429 C 0.05487 0.36393 0.0676 0.0
C430 C 0.06244 0.35051 0.10369 0.0
H431 H 0.60927 0.27163 0.86567 0.0
H432 H 0.65419 0.31129 0.97766 0.0
H433 H 0.66119 0.24684 0.99256 0.0
H434 H 0.54999 0.19493 0.90189 0.0
H435 H 0.55206 0.16551 0.86028 0.0
H436 H 0.5581 0.21554 0.85705 0.0
H437 H 0.62091 0.21148 0.82618 0.0
H438 H 0.61605 0.16161 0.83234 0.0
H439 H 0.6569 0.19202 0.85171 0.0
H440 H 0.66809 0.17928 0.99374 0.0
H441 H 0.63853 0.11437 1.00008 0.0
H442 H 0.57518 0.11825 0.89514 0.0
C443 C 0.62014 0.26727 0.89363 0.0
C444 C 0.63385 0.29747 0.9194 0.0
C445 C 0.64627 0.2893 0.95612 0.0
C446 C 0.65065 0.25272 0.96486 0.0
C447 C 0.64058 0.22429 0.93731 0.0
C448 C 0.62287 0.23076 0.90367 0.0
C449 C 0.6065 0.19445 0.88272 0.0
C450 C 0.56417 0.19248 0.8751 0.0
C451 C 0.62628 0.18962 0.84606 0.0
C452 C 0.61596 0.16653 0.91104 0.0
C453 C 0.63856 0.1844 0.94063 0.0
C454 C 0.64994 0.16506 0.97107 0.0
C455 C 0.63355 0.12774 0.97395 0.0
C456 C 0.60301 0.11273 0.94914 0.0
C457 C 0.59807 0.12976 0.91467 0.0
H458 H 0.92962 0.70062 0.5051 0.0
H459 H 0.96191 0.69408 0.3892 0.0
H460 H 0.98652 0.76083 0.3932 0.0
H461 H 0.89376 0.78537 0.49441 0.0
H462 H 0.90781 0.80424 0.54126 0.0
H463 H 0.89855 0.75425 0.53223 0.0
H464 H 0.96452 0.74864 0.56007 0.0
H465 H 0.97401 0.79879 0.56885 0.0
H466 H 0.00473 0.77564 0.54107 0.0
H467 H 0.00544 0.82762 0.40721 0.0
H468 H 0.00743 0.89398 0.42656 0.0
H469 H 0.95592 0.86156 0.53027 0.0
C470 C 0.9422 0.71305 0.48064 0.0
C471 C 0.94512 0.69111 0.4474 0.0
C472 C 0.9611 0.7091 0.41586 0.0
C473 C 0.97497 0.74739 0.41764 0.0
C474 C 0.97208 0.76784 0.45084 0.0
C475 C 0.95537 0.75168 0.48153 0.0
C476 C 0.9516 0.78132 0.51189 0.0
C477 C 0.91049 0.7813 0.52043 0.0
C478 C 0.97512 0.77576 0.54759 0.0
C479 C 0.96777 0.81668 0.49279 0.0
C480 C 0.98053 0.80778 0.45811 0.0
C481 C 0.99587 0.83503 0.43438 0.0
C482 C 0.99708 0.87255 0.44569 0.0
C483 C 0.98246 0.88253 0.48004 0.0
C484 C 0.96817 0.85441 0.50436 0.0
H485 H 0.47813 0.8248 0.58234 0.0
H486 H 0.3658 0.78652 0.53651 0.0
H487 H 0.3823 0.72344 0.52298 0.0
H488 H 0.52485 0.7717 0.51554 0.0
H489 H 0.55938 0.76138 0.5499 0.0
H490 H 0.53933 0.80389 0.55512 0.0
H491 H 0.51887 0.78567 0.62164 0.0
H492 H 0.53945 0.74356 0.61679 0.0
H493 H 0.49116 0.74061 0.62759 0.0
H494 H 0.41123 0.66539 0.51318 0.0
H495 H 0.44823 0.61332 0.51595 0.0
H496 H 0.54088 0.6884 0.57067 0.0
C497 C 0.45719 0.80317 0.56913 0.0
C498 C 0.42089 0.81048 0.55965 0.0
C499 C 0.39391 0.78141 0.5432 0.0
C500 C 0.40305 0.74566 0.53542 0.0
C501 C 0.43931 0.73956 0.54425 0.0
C502 C 0.46586 0.76732 0.56117 0.0
C503 C 0.50242 0.75295 0.56897 0.0
C504 C 0.53332 0.77372 0.54602 0.0
C505 C 0.5136 0.75585 0.61126 0.0
C506 C 0.49193 0.71254 0.55474 0.0
C507 C 0.45569 0.70567 0.53972 0.0
C508 C 0.4397 0.67047 0.52464 0.0
C509 C 0.46101 0.64123 0.52589 0.0
C510 C 0.49748 0.64735 0.54273 0.0
C511 C 0.51326 0.68345 0.55698 0.0
H512 H 0.8795 0.87463 0.77484 0.0
H513 H 0.97089 0.92689 0.85021 0.0
H514 H 0.00269 0.95637 0.79626 0.0
H515 H 0.93942 0.85651 0.69582 0.0
H516 H 0.9051 0.86501 0.66036 0.0
H517 H 0.89055 0.84636 0.70454 0.0
H518 H 0.85319 0.90112 0.71511 0.0
H519 H 0.86761 0.91995 0.67108 0.0
H520 H 0.87655 0.9488 0.71381 0.0
H521 H 0.02236 0.98361 0.73538 0.0
H522 H 0.0297 0.00657 0.67143 0.0
H523 H 0.92688 0.93579 0.63289 0.0
C524 C 0.90657 0.89171 0.77971 0.0
C525 C 0.9231 0.89808 0.81665 0.0
C526 C 0.95818 0.92108 0.82213 0.0
C527 C 0.97632 0.93802 0.79163 0.0
C528 C 0.95934 0.93127 0.75557 0.0
C529 C 0.92544 0.90834 0.74933 0.0
C530 C 0.91322 0.90624 0.70769 0.0
C531 C 0.91199 0.86615 0.69111 0.0
C532 C 0.8754 0.91986 0.70158 0.0
C533 C 0.94462 0.93301 0.69173 0.0
C534 C 0.9711 0.94663 0.71999 0.0
C535 C 0.0021 0.97268 0.71301 0.0
C536 C 0.00606 0.9855 0.6765 0.0
C537 C 0.9793 0.97255 0.64697 0.0
C538 C 0.94825 0.94556 0.65463 0.0
H539 H 0.63677 0.15291 0.2966 0.0
H540 H 0.66285 0.04453 0.32939 0.0
H541 H 0.64524 0.01893 0.26488 0.0
H542 H 0.55402 0.11321 0.23843 0.0
H543 H 0.56128 0.15 0.20542 0.0
H544 H 0.57663 0.15945 0.25405 0.0
H545 H 0.64343 0.18315 0.2339 0.0
H546 H 0.62846 0.17341 0.18528 0.0
H547 H 0.66677 0.15283 0.20509 0.0
H548 H 0.62493 0.0055 0.19499 0.0
H549 H 0.60197 0.00548 0.1284 0.0
H550 H 0.58646 0.12182 0.14461 0.0
C551 C 0.63818 0.12354 0.2909 0.0
C552 C 0.65146 0.10099 0.31868 0.0
C553 C 0.65356 0.0629 0.3088 0.0
C554 C 0.64328 0.0479 0.27218 0.0
C555 C 0.63035 0.07108 0.2457 0.0
C556 C 0.62735 0.10796 0.2549 0.0
C557 C 0.61177 0.12698 0.22192 0.0
C558 C 0.57367 0.13806 0.23047 0.0
C559 C 0.63927 0.16109 0.21091 0.0
C560 C 0.60772 0.09549 0.1922 0.0
C561 C 0.61823 0.06329 0.20633 0.0
C562 C 0.61655 0.0306 0.18374 0.0
C563 C 0.60355 0.03086 0.1459 0.0
C564 C 0.59252 0.06366 0.13101 0.0
C565 C 0.59484 0.09626 0.15476 0.0
H566 H 0.41506 0.56664 0.25616 0.0
H567 H 0.47902 0.67718 0.27746 0.0
H568 H 0.47559 0.66931 0.34596 0.0
H569 H 0.35792 0.56631 0.34368 0.0
H570 H 0.3605 0.51738 0.34976 0.0
H571 H 0.35898 0.53526 0.30314 0.0
H572 H 0.4205 0.51052 0.28812 0.0
H573 H 0.42048 0.49094 0.33347 0.0
H574 H 0.46061 0.52271 0.32026 0.0
H575 H 0.4738 0.6466 0.40967 0.0
H576 H 0.49466 0.60556 0.45655 0.0
H577 H 0.43252 0.50886 0.3963 0.0
C578 C 0.428 0.58917 0.27549 0.0
C579 C 0.44774 0.62217 0.26214 0.0
C580 C 0.46425 0.65144 0.28765 0.0
C581 C 0.46161 0.64753 0.32641 0.0
C582 C 0.44168 0.61453 0.33895 0.0
C583 C 0.42582 0.58555 0.31415 0.0
C584 C 0.41272 0.55028 0.3343 0.0
C585 C 0.36998 0.54182 0.33261 0.0
C586 C 0.42965 0.51671 0.31813 0.0
C587 C 0.42773 0.56249 0.37384 0.0
C588 C 0.44164 0.60057 0.37645 0.0
C589 C 0.46239 0.61706 0.4082 0.0
C590 C 0.47353 0.59347 0.43537 0.0
C591 C 0.46608 0.55421 0.42858 0.0
C592 C 0.43834 0.53899 0.40133 0.0
H593 H 0.09472 0.37474 0.74132 0.0
H594 H 0.1104 0.49048 0.70768 0.0
H595 H 0.11341 0.51216 0.77394 0.0
H596 H 0.03031 0.38932 0.80921 0.0
H597 H 0.04538 0.35615 0.84099 0.0
H598 H 0.05114 0.35037 0.79147 0.0
H599 H 0.12165 0.34958 0.80609 0.0
H600 H 0.11601 0.35722 0.85565 0.0
H601 H 0.14926 0.38894 0.83164 0.0
H602 H 0.11301 0.52215 0.84258 0.0
H603 H 0.08741 0.52002 0.9055 0.0
H604 H 0.06447 0.39889 0.8945 0.0
C605 C 0.09855 0.40466 0.74771 0.0
C606 C 0.10366 0.43085 0.71906 0.0
C607 C 0.10801 0.46975 0.72903 0.0
C608 C 0.11002 0.48243 0.76667 0.0
C609 C 0.10677 0.45596 0.79421 0.0
C610 C 0.09962 0.4179 0.7852 0.0
C611 C 0.09094 0.39561 0.81977 0.0
C612 C 0.05214 0.37149 0.81508 0.0
C613 C 0.12128 0.37141 0.8288 0.0
C614 C 0.09222 0.42729 0.84908 0.0
C615 C 0.10356 0.46175 0.83411 0.0
C616 C 0.10448 0.49539 0.85484 0.0
C617 C 0.0904 0.49395 0.89074 0.0
C618 C 0.07473 0.45926 0.90462 0.0
C619 C 0.07754 0.42552 0.88464 0.0
H620 H 0.81973 0.90396 0.96185 0.0
H621 H 0.802 0.91277 0.84111 0.0
H622 H 0.74895 0.94506 0.85161 0.0
H623 H 0.72106 0.88093 0.97723 0.0
H624 H 0.72374 0.90585 0.02224 0.0
H625 H 0.76358 0.88677 0.00634 0.0
H626 H 0.80332 0.95251 0.01538 0.0
H627 H 0.76337 0.97193 0.03069 0.0
H628 H 0.78854 0.99154 0.99179 0.0
H629 H 0.69783 0.97681 0.8732 0.0
H630 H 0.64325 0.99419 0.90413 0.0
H631 H 0.686 0.9595 0.01061 0.0
C632 C 0.8048 0.91261 0.93753 0.0
C633 C 0.81703 0.90702 0.90053 0.0
C634 C 0.79546 0.91832 0.86987 0.0
C635 C 0.76469 0.93658 0.87547 0.0
C636 C 0.75437 0.94279 0.91195 0.0
C637 C 0.77292 0.93024 0.94252 0.0
C638 C 0.75311 0.93756 0.97838 0.0
C639 C 0.73956 0.90057 0.99714 0.0
C640 C 0.77861 0.96501 0.00568 0.0
C641 C 0.72042 0.95554 0.96281 0.0
C642 C 0.72263 0.95915 0.92449 0.0
C643 C 0.69587 0.97432 0.90324 0.0
C644 C 0.66513 0.9846 0.92114 0.0
C645 C 0.66083 0.97945 0.95994 0.0
C646 C 0.68923 0.96518 0.98121 0.0
H647 H 0.77172 0.11153 0.38466 0.0
H648 H 0.71494 0.11043 0.4891 0.0
H649 H 0.77093 0.09407 0.52301 0.0
H650 H 0.81595 0.03346 0.39998 0.0
H651 H 0.85827 0.05244 0.37845 0.0
H652 H 0.81493 0.06711 0.36386 0.0
H653 H 0.84398 0.13652 0.37876 0.0
H654 H 0.88739 0.12195 0.39374 0.0
H655 H 0.86455 0.15036 0.42507 0.0
H656 H 0.83281 0.07322 0.54445 0.0
H657 H 0.89248 0.04737 0.54988 0.0
H658 H 0.9068 0.06359 0.43113 0.0
C659 C 0.77098 0.1077 0.41464 0.0
C660 C 0.73891 0.11182 0.43421 0.0
C661 C 0.73932 0.10735 0.47359 0.0
C662 C 0.771 0.09821 0.49308 0.0
C663 C 0.80217 0.09413 0.47283 0.0
C664 C 0.80231 0.0989 0.43446 0.0
C665 C 0.8384 0.0914 0.41867 0.0
C666 C 0.83146 0.05918 0.38849 0.0
C667 C 0.85984 0.1272 0.40315 0.0
C668 C 0.85803 0.0802 0.4538 0.0
C669 C 0.83722 0.08248 0.48502 0.0
C670 C 0.84949 0.07167 0.52021 0.0
C671 C 0.88338 0.05719 0.52315 0.0
C672 C 0.90402 0.05331 0.49093 0.0
C673 C 0.89152 0.06604 0.45628 0.0
H674 H 0.32073 0.57714 0.13931 0.0
H675 H 0.32119 0.6723 0.06655 0.0
H676 H 0.26245 0.64299 0.03716 0.0
H677 H 0.27264 0.50335 0.08082 0.0
H678 H 0.24303 0.48364 0.11665 0.0
H679 H 0.28867 0.50888 0.12963 0.0
H680 H 0.25994 0.55364 0.17432 0.0
H681 H 0.21428 0.52815 0.16192 0.0
H682 H 0.22362 0.57806 0.15627 0.0
H683 H 0.20246 0.6048 0.01539 0.0
H684 H 0.14131 0.56416 0.00965 0.0
H685 H 0.1755 0.49966 0.10225 0.0
C686 C 0.30925 0.59249 0.11739 0.0
C687 C 0.32799 0.62702 0.10503 0.0
C688 C 0.31004 0.64501 0.07595 0.0
C689 C 0.27576 0.62881 0.05902 0.0
C690 C 0.25858 0.5952 0.07213 0.0
C691 C 0.27412 0.57779 0.10138 0.0
C692 C 0.24741 0.54458 0.11357 0.0
C693 C 0.26395 0.50795 0.10991 0.0
C694 C 0.23563 0.55153 0.15389 0.0
C695 C 0.21534 0.54517 0.08522 0.0
C696 C 0.22237 0.57459 0.06156 0.0
C697 C 0.19648 0.5816 0.03373 0.0
C698 C 0.16196 0.5583 0.03058 0.0
C699 C 0.15375 0.52878 0.05545 0.0
C700 C 0.18108 0.52184 0.08264 0.0
H701 H 0.2519 0.50195 0.5996 0.0
H702 H 0.23928 0.38073 0.596 0.0
H703 H 0.29562 0.38289 0.55931 0.0
H704 H 0.29789 0.51514 0.50397 0.0
H705 H 0.32803 0.55646 0.52291 0.0
H706 H 0.28128 0.54542 0.53854 0.0
H707 H 0.30698 0.54741 0.60773 0.0
H708 H 0.35339 0.5589 0.59245 0.0
H709 H 0.34161 0.51853 0.62042 0.0
H710 H 0.36023 0.39845 0.53845 0.0
H711 H 0.42681 0.42624 0.53626 0.0
H712 H 0.3972 0.5371 0.55263 0.0
C713 C 0.26034 0.47598 0.5896 0.0
C714 C 0.24188 0.44125 0.60052 0.0
C715 C 0.25346 0.40757 0.58774 0.0
C716 C 0.28518 0.40858 0.5667 0.0
C717 C 0.30432 0.44347 0.55808 0.0
C718 C 0.29193 0.47662 0.56864 0.0
C719 C 0.32031 0.51042 0.56154 0.0
C720 C 0.30602 0.53319 0.52984 0.0
C721 C 0.33121 0.53519 0.59769 0.0
C722 C 0.35201 0.49106 0.54905 0.0
C723 C 0.34192 0.4525 0.54572 0.0
C724 C 0.3682 0.42861 0.53974 0.0
C725 C 0.40587 0.44448 0.53863 0.0
C726 C 0.41648 0.48359 0.54423 0.0
C727 C 0.38922 0.50708 0.54784 0.0
H728 H 0.92705 0.75495 0.9963 0.0
H729 H 0.9152 0.74924 0.87462 0.0
H730 H 0.94471 0.69186 0.87316 0.0
H731 H 0.01974 0.71607 1.00061 0.0
H732 H 0.00814 0.69139 0.0426 0.0
H733 H 0.99125 0.73503 0.03426 0.0
H734 H 0.92384 0.70224 0.04153 0.0
H735 H 0.94036 0.65847 0.04941 0.0
H736 H 0.90571 0.66122 0.0122 0.0
H737 H 0.96481 0.63024 0.88471 0.0
H738 H 0.9811 0.57109 0.90761 0.0
H739 H 0.98451 0.61543 0.02268 0.0
C740 C 0.93186 0.74225 0.96935 0.0
C741 C 0.9187 0.75665 0.93539 0.0
C742 C 0.92513 0.73894 0.9008 0.0
C743 C 0.94178 0.70621 0.89978 0.0
C744 C 0.95282 0.69173 0.93363 0.0
C745 C 0.9491 0.70962 0.96783 0.0
C746 C 0.9622 0.68696 0.99999 0.0
C747 C 0.99742 0.70865 0.02059 0.0
C748 C 0.93116 0.67661 0.02738 0.0
C749 C 0.97116 0.65227 0.97861 0.0
C750 C 0.96597 0.65617 0.94031 0.0
C751 C 0.96972 0.62727 0.91455 0.0
C752 C 0.9788 0.59353 0.92796 0.0
C753 C 0.9844 0.58834 0.96698 0.0
C754 C 0.98109 0.61858 0.99268 0.0
H755 H 0.48374 0.73943 0.13259 0.0
H756 H 0.36815 0.74969 0.10609 0.0
H757 H 0.38625 0.81693 0.09579 0.0
H758 H 0.51111 0.83464 0.17888 0.0
H759 H 0.55609 0.84097 0.15871 0.0
H760 H 0.53417 0.79464 0.16966 0.0
H761 H 0.53861 0.7704 0.10064 0.0
H762 H 0.56225 0.81595 0.09053 0.0
H763 H 0.52087 0.79576 0.06286 0.0
H764 H 0.41631 0.88028 0.08296 0.0
H765 H 0.45752 0.92996 0.05295 0.0
H766 H 0.55338 0.87976 0.08819 0.0
C767 C 0.46232 0.75606 0.12501 0.0
C768 C 0.42466 0.73965 0.12018 0.0
C769 C 0.39729 0.76183 0.10953 0.0
C770 C 0.40715 0.80016 0.10447 0.0
C771 C 0.4444 0.81583 0.11054 0.0
C772 C 0.47169 0.79436 0.1198 0.0
C773 C 0.51017 0.81683 0.11931 0.0
C774 C 0.52898 0.82206 0.15902 0.0
C775 C 0.53435 0.79868 0.09167 0.0
C776 C 0.50032 0.8535 0.10582 0.0
C777 C 0.46214 0.85295 0.10269 0.0
C778 C 0.44623 0.88162 0.08619 0.0
C779 C 0.46981 0.90999 0.06964 0.0
C780 C 0.50831 0.90842 0.06915 0.0
C781 C 0.52403 0.88172 0.08964 0.0
H782 H 0.09227 0.30506 0.66573 0.0
H783 H 0.07681 0.34954 0.55565 0.0
H784 H 0.06081 0.28491 0.52794 0.0
H785 H 0.13685 0.2317 0.63658 0.0
H786 H 0.11569 0.19848 0.66884 0.0
H787 H 0.12139 0.24793 0.68075 0.0
H788 H 0.0506 0.24361 0.69026 0.0
H789 H 0.04483 0.19392 0.67925 0.0
H790 H 0.01767 0.22308 0.65315 0.0
H791 H 0.05014 0.21405 0.51193 0.0
H792 H 0.04384 0.14437 0.5104 0.0
H793 H 0.06922 0.1494 0.63092 0.0
C794 C 0.08436 0.30125 0.63601 0.0
C795 C 0.08543 0.33222 0.61286 0.0
C796 C 0.07605 0.32605 0.57385 0.0
C797 C 0.06694 0.2895 0.55789 0.0
C798 C 0.06734 0.25948 0.58134 0.0
C799 C 0.07549 0.26508 0.61965 0.0
C800 C 0.07619 0.22841 0.63853 0.0
C801 C 0.11483 0.22654 0.65725 0.0
C802 C 0.04549 0.22188 0.66696 0.0
C803 C 0.06786 0.2014 0.60485 0.0
C804 C 0.06242 0.21947 0.57206 0.0
C805 C 0.05421 0.19959 0.53754 0.0
C806 C 0.05085 0.16012 0.53683 0.0
C807 C 0.05614 0.14134 0.5704 0.0
C808 C 0.06513 0.16261 0.60454 0.0
H809 H 0.57928 0.24235 0.48366 0.0
H810 H 0.65456 0.2596 0.39228 0.0
H811 H 0.65548 0.32726 0.39928 0.0
H812 H 0.52497 0.31379 0.45486 0.0
H813 H 0.51681 0.32906 0.50206 0.0
H814 H 0.52371 0.28135 0.49229 0.0
H815 H 0.57771 0.28927 0.54323 0.0
H816 H 0.57128 0.33719 0.55287 0.0
H817 H 0.6162 0.32675 0.54035 0.0
H818 H 0.65239 0.39169 0.41717 0.0
H819 H 0.6344 0.45193 0.43529 0.0
H820 H 0.55473 0.39674 0.5108 0.0
C821 C 0.59611 0.26055 0.46542 0.0
C822 C 0.61817 0.2456 0.43867 0.0
C823 C 0.63863 0.27011 0.41413 0.0
C824 C 0.63937 0.30877 0.4178 0.0
C825 C 0.61866 0.32264 0.44535 0.0
C826 C 0.59654 0.29956 0.4681 0.0
C827 C 0.57472 0.32243 0.49317 0.0
C828 C 0.53255 0.31099 0.48509 0.0
C829 C 0.58563 0.31868 0.53488 0.0
C830 C 0.58812 0.36185 0.48058 0.0
C831 C 0.61418 0.36086 0.45365 0.0
C832 C 0.63163 0.39295 0.43781 0.0
C833 C 0.62111 0.4271 0.44842 0.0
C834 C 0.5926 0.42912 0.474 0.0
C835 C 0.57658 0.39611 0.49123 0.0
loop_
_geom_bond_atom_site_label_1
_geom_bond_atom_site_label_2
_geom_bond_distance
_geom_bond_site_symmetry_2
_ccdc_geom_bond_type
H0 C7 0.929 . S
H1 C10 0.930 . S
H2 C12 0.929 . S
H3 C4 0.969 . S
C4 H3 0.969 . S
C4 O5 1.550 . S
C4 H6 0.973 . S
O5 C4 1.550 . S
O5 C11 1.412 . S
H6 C4 0.973 . S
C7 H0 0.929 . S
C7 C8 1.400 . S
C7 C9 1.364 . S
C8 C7 1.400 . S
C8 C12 1.377 . S
C9 C7 1.364 . S
C9 C10 1.374 . S
C10 H1 0.930 . S
C10 C9 1.374 . S
C10 C11 1.383 . S
C11 O5 1.412 . S
C11 C10 1.383 . S
C11 C12 1.394 . S
C12 H2 0.929 . S
C12 C8 1.377 . S
C12 C11 1.394 . S
H13 C20 0.929 . S
H14 C23 0.930 . S
H15 C25 0.929 . S
H16 C17 0.969 . S
C17 H16 0.969 . S
C17 O18 1.550 . S
C17 H19 0.973 . S
O18 C17 1.550 . S
O18 C24 1.412 . S
H19 C17 0.973 . S
C20 H13 0.929 . S
C20 C21 1.400 . S
C20 C22 1.364 . S
C21 C20 1.400 . S
C21 C25 1.377 . S
C22 C20 1.364 . S
C22 C23 1.374 . S
C23 H14 0.930 . S
C23 C22 1.374 . S
C23 C24 1.383 . S
C24 O18 1.412 . S
C24 C23 1.383 . S
C24 C25 1.394 . S
C25 H15 0.929 . S
C25 C21 1.377 . S
C25 C24 1.394 . S
H26 C33 0.929 . S
H27 C36 0.930 . S
H28 C38 0.929 . S
H29 C30 0.969 . S
C30 H29 0.969 . S
C30 O31 1.550 . S
C30 H32 0.973 . S
O31 C30 1.550 . S
O31 C37 1.412 . S
H32 C30 0.973 . S
C33 H26 0.929 . S
C33 C34 1.400 . S
C33 C35 1.364 . S
C34 C33 1.400 . S
C34 C38 1.377 . S
C35 C33 1.364 . S
C35 C36 1.374 . S
C36 H27 0.930 . S
C36 C35 1.374 . S
C36 C37 1.383 . S
C37 O31 1.412 . S
C37 C36 1.383 . S
C37 C38 1.394 . S
C38 H28 0.929 . S
C38 C34 1.377 . S
C38 C37 1.394 . S
H39 C46 0.929 . S
H40 C49 0.930 . S
H41 C51 0.929 . S
H42 C43 0.969 . S
C43 H42 0.969 . S
C43 O44 1.550 . S
C43 H45 0.973 . S
O44 C43 1.550 . S
O44 C50 1.412 . S
H45 C43 0.973 . S
C46 H39 0.929 . S
C46 C47 1.400 . S
C46 C48 1.364 . S
C47 C46 1.400 . S
C47 C51 1.377 . S
C48 C46 1.364 . S
C48 C49 1.374 . S
C49 H40 0.930 . S
C49 C48 1.374 . S
C49 C50 1.383 . S
C50 O44 1.412 . S
C50 C49 1.383 . S
C50 C51 1.394 . S
C51 H41 0.929 . S
C51 C47 1.377 . S
C51 C50 1.394 . S
H52 C59 0.929 . S
H53 C62 0.930 . S
H54 C64 0.929 . S
H55 C56 0.969 . S
C56 H55 0.969 . S
C56 O57 1.550 . S
C56 H58 0.973 . S
O57 C56 1.550 . S
O57 C63 1.412 . S
H58 C56 0.973 . S
C59 H52 0.929 . S
C59 C60 1.400 . S
C59 C61 1.364 . S
C60 C59 1.400 . S
C60 C64 1.377 . S
C61 C59 1.364 . S
C61 C62 1.374 . S
C62 H53 0.930 . S
C62 C61 1.374 . S
C62 C63 1.383 . S
C63 O57 1.412 . S
C63 C62 1.383 . S
C63 C64 1.394 . S
C64 H54 0.929 . S
C64 C60 1.377 . S
C64 C63 1.394 . S
H65 C72 0.929 . S
H66 C75 0.930 . S
H67 C77 0.929 . S
H68 C69 0.969 . S
C69 H68 0.969 . S
C69 O70 1.550 . S
C69 H71 0.973 . S
O70 C69 1.550 . S
O70 C76 1.412 . S
H71 C69 0.973 . S
C72 H65 0.929 . S
C72 C73 1.400 . S
C72 C74 1.364 . S
C73 C72 1.400 . S
C73 C77 1.377 . S
C74 C72 1.364 . S
C74 C75 1.374 . S
C75 H66 0.930 . S
C75 C74 1.374 . S
C75 C76 1.383 . S
C76 O70 1.412 . S
C76 C75 1.383 . S
C76 C77 1.394 . S
C77 H67 0.929 . S
C77 C73 1.377 . S
C77 C76 1.394 . S
H78 C85 0.929 . S
H79 C88 0.930 . S
H80 C90 0.929 . S
H81 C82 0.969 . S
C82 H81 0.969 . S
C82 O83 1.550 . S
C82 H84 0.973 . S
O83 C82 1.550 . S
O83 C89 1.412 . S
H84 C82 0.973 . S
C85 H78 0.929 . S
C85 C86 1.400 . S
C85 C87 1.364 . S
C86 C85 1.400 . S
C86 C90 1.377 . S
C87 C85 1.364 . S
C87 C88 1.374 . S
C88 H79 0.930 . S
C88 C87 1.374 . S
C88 C89 1.383 . S
C89 O83 1.412 . S
C89 C88 1.383 . S
C89 C90 1.394 . S
C90 H80 0.929 . S
C90 C86 1.377 . S
C90 C89 1.394 . S
H91 C98 0.929 . S
H92 C101 0.930 . S
H93 C103 0.929 . S
H94 C95 0.969 . S
C95 H94 0.969 . S
C95 O96 1.550 . S
C95 H97 0.973 . S
O96 C95 1.550 . S
O96 C102 1.412 . S
H97 C95 0.973 . S
C98 H91 0.929 . S
C98 C99 1.400 . S
C98 C100 1.364 . S
C99 C98 1.400 . S
C99 C103 1.377 . S
C100 C98 1.364 . S
C100 C101 1.374 . S
C101 H92 0.930 . S
C101 C100 1.374 . S
C101 C102 1.383 . S
C102 O96 1.412 . S
C102 C101 1.383 . S
C102 C103 1.394 . S
C103 H93 0.929 . S
C103 C99 1.377 . S
C103 C102 1.394 . S
O104 Mg105 1.990 . S
O104 C118 1.253 1_445 S
Mg105 O104 1.990 . S
Mg105 O108 2.180 . S
Mg105 O109 2.117 . S
Mg105 O123 2.030 . S
O106 Mg107 2.072 1_665 S
O106 C118 1.260 . S
Mg107 O106 2.072 1_445 S
Mg107 O108 2.099 . S
Mg107 O110 2.079 . S
Mg107 O111 2.072 1_455 S
Mg107 O113 2.099 1_445 S
Mg107 O124 2.079 1_545 S
O108 Mg105 2.180 . S
O108 Mg107 2.099 . S
O108 C119 1.279 . S
O109 Mg105 2.117 . S
O109 C119 1.250 . S
O110 Mg107 2.079 . S
O110 C120 1.264 . S
O111 Mg107 2.072 1_655 S
O111 C121 1.260 . S
Mg112 O113 2.180 . S
Mg112 O114 2.030 1_565 S
Mg112 O115 1.990 1_565 S
Mg112 O116 2.117 . S
O113 Mg107 2.099 1_665 S
O113 Mg112 2.180 . S
O113 C122 1.279 . S
O114 Mg112 2.030 1_545 S
O114 C120 1.248 1_655 S
O115 Mg112 1.990 1_545 S
O115 C121 1.253 . S
O116 Mg112 2.117 . S
O116 C122 1.250 . S
C117 O123 1.248 1_565 S
C117 O124 1.264 . S
C118 O104 1.253 1_665 S
C118 O106 1.260 . S
C119 O108 1.279 . S
C119 O109 1.250 . S
C120 O110 1.264 . S
C120 O114 1.248 1_455 S
C121 O111 1.260 . S
C121 O115 1.253 . S
C122 O113 1.279 . S
C122 O116 1.250 . S
O123 Mg105 2.030 . S
O123 C117 1.248 1_545 S
O124 Mg107 2.079 1_565 S
O124 C117 1.264 . S
O125 Mg126 1.990 . S
O125 C139 1.253 . S
Mg126 O125 1.990 . S
Mg126 O129 2.179 . S
Mg126 O130 2.117 1_554 S
Mg126 O144 2.030 . S
O127 Mg128 2.072 . S
O127 C139 1.260 . S
Mg128 O127 2.072 . S
Mg128 O129 2.098 . S
Mg128 O131 2.079 1_554 S
Mg128 O132 2.072 1_554 S
Mg128 O134 2.099 1_545 S
Mg128 O145 2.079 . S
O129 Mg126 2.179 . S
O129 Mg128 2.098 . S
O129 C140 1.280 1_554 S
O130 Mg126 2.117 1_556 S
O130 C140 1.250 . S
O131 Mg128 2.079 1_556 S
O131 C141 1.264 1_545 S
O132 Mg128 2.072 1_556 S
O132 C142 1.260 1_545 S
Mg133 O134 2.180 1_556 S
Mg133 O135 2.030 . S
Mg133 O136 1.990 . S
Mg133 O137 2.117 1_556 S
O134 Mg128 2.099 1_565 S
O134 Mg133 2.180 1_554 S
O134 C143 1.279 . S
O135 Mg133 2.030 . S
O135 C141 1.248 . S
O136 Mg133 1.990 . S
O136 C142 1.253 . S
O137 Mg133 2.117 1_554 S
O137 C143 1.250 . S
C138 O144 1.248 . S
C138 O145 1.264 . S
C139 O125 1.253 . S
C139 O127 1.260 . S
C140 O129 1.280 1_556 S
C140 O130 1.250 . S
C141 O131 1.264 1_565 S
C141 O135 1.248 . S
C142 O132 1.260 1_565 S
C142 O136 1.253 . S
C143 O134 1.279 . S
C143 O137 1.250 . S
O144 Mg126 2.030 . S
O144 C138 1.248 . S
O145 Mg128 2.079 . S
O145 C138 1.264 . S
O146 Mg147 1.990 . S
O146 C160 1.253 . S
Mg147 O146 1.990 . S
Mg147 O150 2.180 . S
Mg147 O151 2.117 . S
Mg147 O165 2.030 . S
O148 Mg149 2.072 . S
O148 C160 1.260 . S
Mg149 O148 2.072 . S
Mg149 O150 2.099 . S
Mg149 O152 2.079 . S
Mg149 O153 2.072 . S
Mg149 O155 2.099 . S
Mg149 O166 2.079 . S
O150 Mg147 2.180 . S
O150 Mg149 2.099 . S
O150 C161 1.279 . S
O151 Mg147 2.117 . S
O151 C161 1.250 . S
O152 Mg149 2.079 . S
O152 C162 1.264 . S
O153 Mg149 2.072 . S
O153 C163 1.260 . S
Mg154 O155 2.180 . S
Mg154 O156 2.030 . S
Mg154 O157 1.990 . S
Mg154 O158 2.117 . S
O155 Mg149 2.099 . S
O155 Mg154 2.180 . S
O155 C164 1.279 . S
O156 Mg154 2.030 . S
O156 C162 1.248 . S
O157 Mg154 1.990 . S
O157 C163 1.253 . S
O158 Mg154 2.117 . S
O158 C164 1.250 . S
C159 O165 1.248 . S
C159 O166 1.264 . S
C160 O146 1.253 . S
C160 O148 1.260 . S
C161 O150 1.279 . S
C161 O151 1.250 . S
C162 O152 1.264 . S
C162 O156 1.248 . S
C163 O153 1.260 . S
C163 O157 1.253 . S
C164 O155 1.279 . S
C164 O158 1.250 . S
O165 Mg147 2.030 . S
O165 C159 1.248 . S
O166 Mg149 2.079 . S
O166 C159 1.264 . S
O167 Mg168 1.990 . S
O167 C181 1.253 . S
Mg168 O167 1.990 . S
Mg168 O171 2.180 . S
Mg168 O172 2.117 . S
Mg168 O186 2.030 . S
O169 Mg170 2.072 . S
O169 C181 1.260 . S
Mg170 O169 2.072 . S
Mg170 O171 2.099 . S
Mg170 O173 2.079 . S
Mg170 O174 2.072 1_455 S
Mg170 O176 2.099 1_554 S
Mg170 O187 2.079 . S
O171 Mg168 2.180 . S
O171 Mg170 2.099 . S
O171 C182 1.279 . S
O172 Mg168 2.117 . S
O172 C182 1.250 . S
O173 Mg170 2.079 . S
O173 C183 1.258 1_454 S
O174 Mg170 2.072 1_655 S
O174 C184 1.260 1_554 S
Mg175 O176 2.180 1_655 S
Mg175 O177 2.030 . S
Mg175 O178 1.990 . S
Mg175 O179 2.117 1_655 S
O176 Mg170 2.099 1_556 S
O176 Mg175 2.180 1_455 S
O176 C185 1.279 . S
O177 Mg175 2.030 . S
O177 C183 1.251 . S
O178 Mg175 1.990 . S
O178 C184 1.253 . S
O179 Mg175 2.117 1_455 S
O179 C185 1.250 . S
C180 O186 1.248 . S
C180 O187 1.264 . S
C181 O167 1.253 . S
C181 O169 1.260 . S
C182 O171 1.279 . S
C182 O172 1.250 . S
C183 O173 1.258 1_656 S
C183 O177 1.251 . S
C184 O174 1.260 1_556 S
C184 O178 1.253 . S
C185 O176 1.279 . S
C185 O179 1.250 . S
O186 Mg168 2.030 . S
O186 C180 1.248 . S
O187 Mg170 2.079 . S
O187 C180 1.264 . S
H188 C200 0.930 . S
H189 C202 0.930 . S
H190 C203 0.930 . S
H191 C207 0.959 . S
H192 C207 0.959 . S
H193 C207 0.961 . S
H194 C208 0.960 . S
H195 C208 0.961 . S
H196 C208 0.959 . S
H197 C211 0.929 . S
H198 C212 0.945 . S
H199 C214 0.930 . S
C200 H188 0.930 . S
C200 C201 1.399 . S
C200 C205 1.399 . S
C201 C200 1.399 . S
C201 C202 1.376 . S
C202 H189 0.930 . S
C202 C201 1.376 . S
C202 C203 1.388 . S
C203 H190 0.930 . S
C203 C202 1.388 . S
C203 C204 1.390 . S
C204 C203 1.390 . S
C204 C205 1.394 . S
C204 C210 1.465 . S
C205 C200 1.399 . S
C205 C204 1.394 . S
C205 C206 1.516 . S
C206 C205 1.516 . S
C206 C207 1.502 . S
C206 C208 1.561 . S
C206 C209 1.526 . S
C207 H191 0.959 . S
C207 H192 0.959 . S
C207 H193 0.961 . S
C207 C206 1.502 . S
C208 H194 0.960 . S
C208 H195 0.961 . S
C208 H196 0.959 . S
C208 C206 1.561 . S
C209 C206 1.526 . S
C209 C210 1.396 . S
C209 C214 1.390 . S
C210 C204 1.465 . S
C210 C209 1.396 . S
C210 C211 1.399 . S
C211 H197 0.929 . S
C211 C210 1.399 . S
C211 C212 1.385 . S
C212 H198 0.945 . S
C212 C211 1.385 . S
C212 C213 1.389 . S
C213 C212 1.389 . S
C213 C214 1.387 . S
C214 H199 0.930 . S
C214 C209 1.390 . S
C214 C213 1.387 . S
H215 C227 0.930 . S
H216 C229 0.930 . S
H217 C230 0.930 . S
H218 C234 0.959 . S
H219 C234 0.959 . S
H220 C234 0.961 . S
H221 C235 0.960 . S
H222 C235 0.961 . S
H223 C235 0.959 1_565 S
H224 C238 0.929 . S
H225 C239 0.931 . S
H226 C241 0.930 . S
C227 H215 0.930 . S
C227 C228 1.399 . S
C227 C232 1.399 . S
C228 C227 1.399 . S
C228 C229 1.376 . S
C229 H216 0.930 . S
C229 C228 1.376 . S
C229 C230 1.388 . S
C230 H217 0.930 . S
C230 C229 1.388 . S
C230 C231 1.390 . S
C231 C230 1.390 . S
C231 C232 1.394 . S
C231 C237 1.465 . S
C232 C227 1.399 . S
C232 C231 1.394 . S
C232 C233 1.516 1_565 S
C233 C232 1.516 1_545 S
C233 C234 1.502 . S
C233 C235 1.561 . S
C233 C236 1.526 1_545 S
C234 H218 0.959 . S
C234 H219 0.959 . S
C234 H220 0.961 . S
C234 C233 1.502 . S
C235 H221 0.960 . S
C235 H222 0.961 . S
C235 H223 0.959 1_545 S
C235 C233 1.561 . S
C236 C233 1.526 1_565 S
C236 C237 1.396 . S
C236 C241 1.390 1_565 S
C237 C231 1.465 . S
C237 C236 1.396 . S
C237 C238 1.399 . S
C238 H224 0.929 . S
C238 C237 1.399 . S
C238 C239 1.385 . S
C239 H225 0.931 . S
C239 C238 1.385 . S
C239 C240 1.389 . S
C240 C239 1.389 . S
C240 C241 1.387 1_565 S
C241 H226 0.930 . S
C241 C236 1.390 1_545 S
C241 C240 1.387 1_545 S
H242 C254 0.930 . S
H243 C256 0.930 . S
H244 C257 0.930 . S
H245 C261 0.959 . S
H246 C261 0.959 . S
H247 C261 0.961 . S
H248 C262 0.960 . S
H249 C262 0.961 . S
H250 C262 0.959 . S
H251 C265 0.929 . S
H252 C266 0.931 . S
H253 C268 0.930 . S
C254 H242 0.930 . S
C254 C255 1.399 . S
C254 C259 1.399 . S
C255 C254 1.399 . S
C255 C256 1.376 . S
C256 H243 0.930 . S
C256 C255 1.376 . S
C256 C257 1.388 . S
C257 H244 0.930 . S
C257 C256 1.388 . S
C257 C258 1.390 . S
C258 C257 1.390 . S
C258 C259 1.394 . S
C258 C264 1.465 . S
C259 C254 1.399 . S
C259 C258 1.394 . S
C259 C260 1.516 . S
C260 C259 1.516 . S
C260 C261 1.502 . S
C260 C262 1.561 . S
C260 C263 1.526 . S
C261 H245 0.959 . S
C261 H246 0.959 . S
C261 H247 0.961 . S
C261 C260 1.502 . S
C262 H248 0.960 . S
C262 H249 0.961 . S
C262 H250 0.959 . S
C262 C260 1.561 . S
C263 C260 1.526 . S
C263 C264 1.396 . S
C263 C268 1.390 . S
C264 C258 1.465 . S
C264 C263 1.396 . S
C264 C265 1.399 . S
C265 H251 0.929 . S
C265 C264 1.399 . S
C265 C266 1.385 . S
C266 H252 0.931 . S
C266 C265 1.385 . S
C266 C267 1.389 . S
C267 C266 1.389 . S
C267 C268 1.387 . S
C268 H253 0.930 . S
C268 C263 1.390 . S
C268 C267 1.387 . S
H269 C281 0.930 . S
H270 C283 0.930 . S
H271 C284 0.930 . S
H272 C288 0.959 1_455 S
H273 C288 0.959 . S
H274 C288 0.961 . S
H275 C289 0.960 . S
H276 C289 0.961 . S
H277 C289 0.959 . S
H278 C292 0.929 . S
H279 C293 0.931 . S
H280 C295 0.930 . S
C281 H269 0.930 . S
C281 C282 1.399 . S
C281 C286 1.399 . S
C282 C281 1.399 . S
C282 C283 1.376 . S
C283 H270 0.930 . S
C283 C282 1.376 . S
C283 C284 1.388 . S
C284 H271 0.930 . S
C284 C283 1.388 . S
C284 C285 1.390 . S
C285 C284 1.390 . S
C285 C286 1.394 . S
C285 C291 1.465 . S
C286 C281 1.399 . S
C286 C285 1.394 . S
C286 C287 1.516 . S
C287 C286 1.516 . S
C287 C288 1.502 . S
C287 C289 1.561 . S
C287 C290 1.526 . S
C288 H272 0.959 1_655 S
C288 H273 0.959 . S
C288 H274 0.961 . S
C288 C287 1.502 . S
C289 H275 0.960 . S
C289 H276 0.961 . S
C289 H277 0.959 . S
C289 C287 1.561 . S
C290 C287 1.526 . S
C290 C291 1.396 . S
C290 C295 1.390 . S
C291 C285 1.465 . S
C291 C290 1.396 . S
C291 C292 1.399 . S
C292 H278 0.929 . S
C292 C291 1.399 . S
C292 C293 1.385 . S
C293 H279 0.931 . S
C293 C292 1.385 . S
C293 C294 1.389 . S
C294 C293 1.389 . S
C294 C295 1.387 . S
C295 H280 0.930 . S
C295 C290 1.390 . S
C295 C294 1.387 . S
H296 C308 0.930 . S
H297 C310 0.930 . S
H298 C311 0.930 . S
H299 C315 0.961 . S
H300 C315 0.959 1_556 S
H301 C315 0.963 . S
H302 C316 0.960 . S
H303 C316 0.961 . S
H304 C316 0.959 . S
H305 C319 0.929 . S
H306 C320 0.931 . S
H307 C322 0.930 . S
C308 H296 0.930 . S
C308 C309 1.399 . S
C308 C313 1.399 . S
C309 C308 1.399 . S
C309 C310 1.376 . S
C310 H297 0.930 . S
C310 C309 1.376 . S
C310 C311 1.388 . S
C311 H298 0.930 . S
C311 C310 1.388 . S
C311 C312 1.390 . S
C312 C311 1.390 . S
C312 C313 1.394 . S
C312 C318 1.465 . S
C313 C308 1.399 . S
C313 C312 1.394 . S
C313 C314 1.516 . S
C314 C313 1.516 . S
C314 C315 1.502 . S
C314 C316 1.561 . S
C314 C317 1.526 . S
C315 H299 0.961 . S
C315 H300 0.959 1_554 S
C315 H301 0.963 . S
C315 C314 1.502 . S
C316 H302 0.960 . S
C316 H303 0.961 . S
C316 H304 0.959 . S
C316 C314 1.561 . S
C317 C314 1.526 . S
C317 C318 1.396 . S
C317 C322 1.390 . S
C318 C312 1.465 . S
C318 C317 1.396 . S
C318 C319 1.399 . S
C319 H305 0.929 . S
C319 C318 1.399 . S
C319 C320 1.385 . S
C320 H306 0.931 . S
C320 C319 1.385 . S
C320 C321 1.389 . S
C321 C320 1.389 . S
C321 C322 1.387 . S
C322 H307 0.930 . S
C322 C317 1.390 . S
C322 C321 1.387 . S
H323 C335 0.930 . S
H324 C337 0.930 . S
H325 C338 0.930 . S
H326 C342 0.959 . S
H327 C342 0.959 . S
H328 C342 0.961 . S
H329 C343 0.960 . S
H330 C343 0.961 . S
H331 C343 0.959 . S
H332 C346 0.929 1_545 S
H333 C347 0.928 1_545 S
H334 C349 0.930 . S
C335 H323 0.930 . S
C335 C336 1.399 . S
C335 C340 1.399 . S
C336 C335 1.399 . S
C336 C337 1.376 . S
C337 H324 0.930 . S
C337 C336 1.376 . S
C337 C338 1.388 . S
C338 H325 0.930 . S
C338 C337 1.388 . S
C338 C339 1.390 . S
C339 C338 1.390 . S
C339 C340 1.394 . S
C339 C345 1.465 . S
C340 C335 1.399 . S
C340 C339 1.394 . S
C340 C341 1.516 . S
C341 C340 1.516 . S
C341 C342 1.502 . S
C341 C343 1.561 . S
C341 C344 1.526 . S
C342 H326 0.959 . S
C342 H327 0.959 . S
C342 H328 0.961 . S
C342 C341 1.502 . S
C343 H329 0.960 . S
C343 H330 0.961 . S
C343 H331 0.959 . S
C343 C341 1.561 . S
C344 C341 1.526 . S
C344 C345 1.396 . S
C344 C349 1.390 . S
C345 C339 1.465 . S
C345 C344 1.396 . S
C345 C346 1.399 . S
C346 H332 0.929 1_565 S
C346 C345 1.399 . S
C346 C347 1.386 . S
C347 H333 0.928 1_565 S
C347 C346 1.386 . S
C347 C348 1.391 . S
C348 C347 1.391 . S
C348 C349 1.387 . S
C349 H334 0.930 . S
C349 C344 1.390 . S
C349 C348 1.387 . S
H350 C362 0.930 . S
H351 C364 0.930 . S
H352 C365 0.930 . S
H353 C369 0.959 . S
H354 C369 0.959 . S
H355 C369 0.961 . S
H356 C370 0.960 . S
H357 C370 0.961 . S
H358 C370 0.959 . S
H359 C373 0.929 . S
H360 C374 0.931 . S
H361 C376 0.930 1_554 S
C362 H350 0.930 . S
C362 C363 1.399 . S
C362 C367 1.399 . S
C363 C362 1.399 . S
C363 C364 1.376 . S
C364 H351 0.930 . S
C364 C363 1.376 . S
C364 C365 1.388 . S
C365 H352 0.930 . S
C365 C364 1.388 . S
C365 C366 1.390 . S
C366 C365 1.390 . S
C366 C367 1.394 . S
C366 C372 1.465 . S
C367 C362 1.399 . S
C367 C366 1.394 . S
C367 C368 1.516 . S
C368 C367 1.516 . S
C368 C369 1.502 1_556 S
C368 C370 1.561 . S
C368 C371 1.526 . S
C369 H353 0.959 . S
C369 H354 0.959 . S
C369 H355 0.961 . S
C369 C368 1.502 1_554 S
C370 H356 0.960 . S
C370 H357 0.961 . S
C370 H358 0.959 . S
C370 C368 1.561 . S
C371 C368 1.526 . S
C371 C372 1.396 . S
C371 C376 1.390 . S
C372 C366 1.465 . S
C372 C371 1.396 . S
C372 C373 1.399 . S
C373 H359 0.929 . S
C373 C372 1.399 . S
C373 C374 1.385 . S
C374 H360 0.931 . S
C374 C373 1.385 . S
C374 C375 1.389 . S
C375 C374 1.389 . S
C375 C376 1.387 . S
C376 H361 0.930 1_556 S
C376 C371 1.390 . S
C376 C375 1.387 . S
H377 C389 0.930 . S
H378 C391 0.930 . S
H379 C392 0.930 . S
H380 C396 0.959 . S
H381 C396 0.959 . S
H382 C396 0.961 . S
H383 C397 0.960 . S
H384 C397 0.961 . S
H385 C397 0.959 . S
H386 C400 0.929 . S
H387 C401 0.931 . S
H388 C403 0.930 . S
C389 H377 0.930 . S
C389 C390 1.399 . S
C389 C394 1.399 . S
C390 C389 1.399 . S
C390 C391 1.376 . S
C391 H378 0.930 . S
C391 C390 1.376 . S
C391 C392 1.388 . S
C392 H379 0.930 . S
C392 C391 1.388 . S
C392 C393 1.390 . S
C393 C392 1.390 . S
C393 C394 1.394 . S
C393 C399 1.465 . S
C394 C389 1.399 . S
C394 C393 1.394 . S
C394 C395 1.516 . S
C395 C394 1.516 . S
C395 C396 1.502 . S
C395 C397 1.561 . S
C395 C398 1.526 . S
C396 H380 0.959 . S
C396 H381 0.959 . S
C396 H382 0.961 . S
C396 C395 1.502 . S
C397 H383 0.960 . S
C397 H384 0.961 . S
C397 H385 0.959 . S
C397 C395 1.561 . S
C398 C395 1.526 . S
C398 C399 1.396 . S
C398 C403 1.390 . S
C399 C393 1.465 . S
C399 C398 1.396 . S
C399 C400 1.399 . S
C400 H386 0.929 . S
C400 C399 1.399 . S
C400 C401 1.385 . S
C401 H387 0.931 . S
C401 C400 1.385 . S
C401 C402 1.389 . S
C402 C401 1.389 . S
C402 C403 1.387 . S
C403 H388 0.930 . S
C403 C398 1.390 . S
C403 C402 1.387 . S
H404 C416 0.930 . S
H405 C418 0.930 . S
H406 C419 0.930 . S
H407 C423 0.959 . S
H408 C423 0.959 . S
H409 C423 0.961 . S
H410 C424 0.960 . S
H411 C424 0.961 . S
H412 C424 0.959 . S
H413 C427 0.929 . S
H414 C428 0.934 . S
H415 C430 0.930 . S
C416 H404 0.930 . S
C416 C417 1.399 . S
C416 C421 1.399 . S
C417 C416 1.399 . S
C417 C418 1.376 . S
C418 H405 0.930 . S
C418 C417 1.376 . S
C418 C419 1.388 . S
C419 H406 0.930 . S
C419 C418 1.388 . S
C419 C420 1.390 . S
C420 C419 1.390 . S
C420 C421 1.394 . S
C420 C426 1.465 . S
C421 C416 1.399 . S
C421 C420 1.394 . S
C421 C422 1.516 . S
C422 C421 1.516 . S
C422 C423 1.502 . S
C422 C424 1.561 . S
C422 C425 1.526 . S
C423 H407 0.959 . S
C423 H408 0.959 . S
C423 H409 0.961 . S
C423 C422 1.502 . S
C424 H410 0.960 . S
C424 H411 0.961 . S
C424 H412 0.959 . S
C424 C422 1.561 . S
C425 C422 1.526 . S
C425 C426 1.396 . S
C425 C430 1.390 . S
C426 C420 1.465 . S
C426 C425 1.396 . S
C426 C427 1.399 . S
C427 H413 0.929 . S
C427 C426 1.399 . S
C427 C428 1.385 . S
C428 H414 0.934 . S
C428 C427 1.385 . S
C428 C429 1.389 . S
C429 C428 1.389 . S
C429 C430 1.387 . S
C430 H415 0.930 . S
C430 C425 1.390 . S
C430 C429 1.387 . S
H431 C443 0.930 . S
H432 C445 0.930 . S
H433 C446 0.930 . S
H434 C450 0.959 . S
H435 C450 0.959 . S
H436 C450 0.961 . S
H437 C451 0.960 . S
H438 C451 0.961 . S
H439 C451 0.959 . S
H440 C454 0.929 1_554 S
H441 C455 0.931 1_554 S
H442 C457 0.930 . S
C443 H431 0.930 . S
C443 C444 1.399 . S
C443 C448 1.399 . S
C444 C443 1.399 . S
C444 C445 1.376 . S
C445 H432 0.930 . S
C445 C444 1.376 . S
C445 C446 1.388 . S
C446 H433 0.930 . S
C446 C445 1.388 . S
C446 C447 1.390 . S
C447 C446 1.390 . S
C447 C448 1.394 . S
C447 C453 1.465 . S
C448 C443 1.399 . S
C448 C447 1.394 . S
C448 C449 1.516 . S
C449 C448 1.516 . S
C449 C450 1.502 . S
C449 C451 1.561 . S
C449 C452 1.526 . S
C450 H434 0.959 . S
C450 H435 0.959 . S
C450 H436 0.961 . S
C450 C449 1.502 . S
C451 H437 0.960 . S
C451 H438 0.961 . S
C451 H439 0.959 . S
C451 C449 1.561 . S
C452 C449 1.526 . S
C452 C453 1.396 . S
C452 C457 1.390 . S
C453 C447 1.465 . S
C453 C452 1.396 . S
C453 C454 1.399 . S
C454 H440 0.929 1_556 S
C454 C453 1.399 . S
C454 C455 1.385 . S
C455 H441 0.931 1_556 S
C455 C454 1.385 . S
C455 C456 1.389 . S
C456 C455 1.389 . S
C456 C457 1.387 . S
C457 H442 0.930 . S
C457 C452 1.390 . S
C457 C456 1.387 . S
H458 C470 0.930 . S
H459 C472 0.930 . S
H460 C473 0.930 . S
H461 C477 0.959 . S
H462 C477 0.959 . S
H463 C477 0.961 . S
H464 C478 0.960 . S
H465 C478 0.961 . S
H466 C478 0.959 1_455 S
H467 C481 0.929 . S
H468 C482 0.931 . S
H469 C484 0.930 . S
C470 H458 0.930 . S
C470 C471 1.399 . S
C470 C475 1.399 . S
C471 C470 1.399 . S
C471 C472 1.376 . S
C472 H459 0.930 . S
C472 C471 1.376 . S
C472 C473 1.388 . S
C473 H460 0.930 . S
C473 C472 1.388 . S
C473 C474 1.390 . S
C474 C473 1.390 . S
C474 C475 1.394 . S
C474 C480 1.465 . S
C475 C470 1.399 . S
C475 C474 1.394 . S
C475 C476 1.516 . S
C476 C475 1.516 . S
C476 C477 1.502 . S
C476 C478 1.561 . S
C476 C479 1.526 . S
C477 H461 0.959 . S
C477 H462 0.959 . S
C477 H463 0.961 . S
C477 C476 1.502 . S
C478 H464 0.960 . S
C478 H465 0.961 . S
C478 H466 0.959 1_655 S
C478 C476 1.561 . S
C479 C476 1.526 . S
C479 C480 1.396 . S
C479 C484 1.390 . S
C480 C474 1.465 . S
C480 C479 1.396 . S
C480 C481 1.399 . S
C481 H467 0.929 . S
C481 C480 1.399 . S
C481 C482 1.385 . S
C482 H468 0.931 . S
C482 C481 1.385 . S
C482 C483 1.389 . S
C483 C482 1.389 . S
C483 C484 1.387 . S
C484 H469 0.930 . S
C484 C479 1.390 . S
C484 C483 1.387 . S
H485 C497 0.930 . S
H486 C499 0.930 . S
H487 C500 0.930 . S
H488 C504 0.959 . S
H489 C504 0.959 . S
H490 C504 0.961 . S
H491 C505 0.960 . S
H492 C505 0.961 . S
H493 C505 0.959 . S
H494 C508 0.929 . S
H495 C509 0.931 . S
H496 C511 0.930 . S
C497 H485 0.930 . S
C497 C498 1.399 . S
C497 C502 1.399 . S
C498 C497 1.399 . S
C498 C499 1.376 . S
C499 H486 0.930 . S
C499 C498 1.376 . S
C499 C500 1.388 . S
C500 H487 0.930 . S
C500 C499 1.388 . S
C500 C501 1.390 . S
C501 C500 1.390 . S
C501 C502 1.394 . S
C501 C507 1.465 . S
C502 C497 1.399 . S
C502 C501 1.394 . S
C502 C503 1.516 . S
C503 C502 1.516 . S
C503 C504 1.502 . S
C503 C505 1.561 . S
C503 C506 1.526 . S
C504 H488 0.959 . S
C504 H489 0.959 . S
C504 H490 0.961 . S
C504 C503 1.502 . S
C505 H491 0.960 . S
C505 H492 0.961 . S
C505 H493 0.959 . S
C505 C503 1.561 . S
C506 C503 1.526 . S
C506 C507 1.396 . S
C506 C511 1.390 . S
C507 C501 1.465 . S
C507 C506 1.396 . S
C507 C508 1.399 . S
C508 H494 0.929 . S
C508 C507 1.399 . S
C508 C509 1.385 . S
C509 H495 0.931 . S
C509 C508 1.385 . S
C509 C510 1.389 . S
C510 C509 1.389 . S
C510 C511 1.387 . S
C511 H496 0.930 . S
C511 C506 1.390 . S
C511 C510 1.387 . S
H512 C524 0.930 . S
H513 C526 0.930 . S
H514 C527 0.930 . S
H515 C531 0.959 . S
H516 C531 0.959 . S
H517 C531 0.961 . S
H518 C532 0.960 . S
H519 C532 0.961 . S
H520 C532 0.959 . S
H521 C535 0.929 1_445 S
H522 C536 0.931 1_545 S
H523 C538 0.930 . S
C524 H512 0.930 . S
C524 C525 1.399 . S
C524 C529 1.399 . S
C525 C524 1.399 . S
C525 C526 1.376 . S
C526 H513 0.930 . S
C526 C525 1.376 . S
C526 C527 1.388 . S
C527 H514 0.930 . S
C527 C526 1.388 . S
C527 C528 1.390 . S
C528 C527 1.390 . S
C528 C529 1.394 . S
C528 C534 1.465 . S
C529 C524 1.399 . S
C529 C528 1.394 . S
C529 C530 1.516 . S
C530 C529 1.516 . S
C530 C531 1.502 . S
C530 C532 1.561 . S
C530 C533 1.526 . S
C531 H515 0.959 . S
C531 H516 0.959 . S
C531 H517 0.961 . S
C531 C530 1.502 . S
C532 H518 0.960 . S
C532 H519 0.961 . S
C532 H520 0.959 . S
C532 C530 1.561 . S
C533 C530 1.526 . S
C533 C534 1.396 . S
C533 C538 1.390 . S
C534 C528 1.465 . S
C534 C533 1.396 . S
C534 C535 1.399 . S
C535 H521 0.929 1_665 S
C535 C534 1.399 . S
C535 C536 1.385 1_655 S
C536 H522 0.931 1_565 S
C536 C535 1.385 1_455 S
C536 C537 1.389 1_455 S
C537 C536 1.389 1_655 S
C537 C538 1.387 . S
C538 H523 0.930 . S
C538 C533 1.390 . S
C538 C537 1.387 . S
H539 C551 0.930 . S
H540 C553 0.930 . S
H541 C554 0.930 . S
H542 C558 0.959 . S
H543 C558 0.959 . S
H544 C558 0.961 . S
H545 C559 0.960 . S
H546 C559 0.961 . S
H547 C559 0.959 . S
H548 C562 0.929 . S
H549 C563 0.931 . S
H550 C565 0.930 . S
C551 H539 0.930 . S
C551 C552 1.399 . S
C551 C556 1.399 . S
C552 C551 1.399 . S
C552 C553 1.376 . S
C553 H540 0.930 . S
C553 C552 1.376 . S
C553 C554 1.388 . S
C554 H541 0.930 . S
C554 C553 1.388 . S
C554 C555 1.390 . S
C555 C554 1.390 . S
C555 C556 1.394 . S
C555 C561 1.465 . S
C556 C551 1.399 . S
C556 C555 1.394 . S
C556 C557 1.516 . S
C557 C556 1.516 . S
C557 C558 1.502 . S
C557 C559 1.561 . S
C557 C560 1.526 . S
C558 H542 0.959 . S
C558 H543 0.959 . S
C558 H544 0.961 . S
C558 C557 1.502 . S
C559 H545 0.960 . S
C559 H546 0.961 . S
C559 H547 0.959 . S
C559 C557 1.561 . S
C560 C557 1.526 . S
C560 C561 1.396 . S
C560 C565 1.390 . S
C561 C555 1.465 . S
C561 C560 1.396 . S
C561 C562 1.399 . S
C562 H548 0.929 . S
C562 C561 1.399 . S
C562 C563 1.385 . S
C563 H549 0.931 . S
C563 C562 1.385 . S
C563 C564 1.389 . S
C564 C563 1.389 . S
C564 C565 1.387 . S
C565 H550 0.930 . S
C565 C560 1.390 . S
C565 C564 1.387 . S
H566 C578 0.930 . S
H567 C580 0.930 . S
H568 C581 0.930 . S
H569 C585 0.959 . S
H570 C585 0.959 . S
H571 C585 0.961 . S
H572 C586 0.960 . S
H573 C586 0.961 . S
H574 C586 0.959 . S
H575 C589 0.929 . S
H576 C590 0.931 . S
H577 C592 0.930 . S
C578 H566 0.930 . S
C578 C579 1.399 . S
C578 C583 1.399 . S
C579 C578 1.399 . S
C579 C580 1.376 . S
C580 H567 0.930 . S
C580 C579 1.376 . S
C580 C581 1.388 . S
C581 H568 0.930 . S
C581 C580 1.388 . S
C581 C582 1.390 . S
C582 C581 1.390 . S
C582 C583 1.394 . S
C582 C588 1.465 . S
C583 C578 1.399 . S
C583 C582 1.394 . S
C583 C584 1.516 . S
C584 C583 1.516 . S
C584 C585 1.502 . S
C584 C586 1.561 . S
C584 C587 1.526 . S
C585 H569 0.959 . S
C585 H570 0.959 . S
C585 H571 0.961 . S
C585 C584 1.502 . S
C586 H572 0.960 . S
C586 H573 0.961 . S
C586 H574 0.959 . S
C586 C584 1.561 . S
C587 C584 1.526 . S
C587 C588 1.396 . S
C587 C592 1.390 . S
C588 C582 1.465 . S
C588 C587 1.396 . S
C588 C589 1.399 . S
C589 H575 0.929 . S
C589 C588 1.399 . S
C589 C590 1.385 . S
C590 H576 0.931 . S
C590 C589 1.385 . S
C590 C591 1.389 . S
C591 C590 1.389 . S
C591 C592 1.387 . S
C592 H577 0.930 . S
C592 C587 1.390 . S
C592 C591 1.387 . S
H593 C605 0.930 . S
H594 C607 0.930 . S
H595 C608 0.930 . S
H596 C612 0.959 . S
H597 C612 0.959 . S
H598 C612 0.961 . S
H599 C613 0.960 . S
H600 C613 0.961 . S
H601 C613 0.959 . S
H602 C616 0.929 . S
H603 C617 0.931 . S
H604 C619 0.930 . S
C605 H593 0.930 . S
C605 C606 1.399 . S
C605 C610 1.399 . S
C606 C605 1.399 . S
C606 C607 1.376 . S
C607 H594 0.930 . S
C607 C606 1.376 . S
C607 C608 1.388 . S
C608 H595 0.930 . S
C608 C607 1.388 . S
C608 C609 1.390 . S
C609 C608 1.390 . S
C609 C610 1.394 . S
C609 C615 1.465 . S
C610 C605 1.399 . S
C610 C609 1.394 . S
C610 C611 1.516 . S
C611 C610 1.516 . S
C611 C612 1.502 . S
C611 C613 1.561 . S
C611 C614 1.526 . S
C612 H596 0.959 . S
C612 H597 0.959 . S
C612 H598 0.961 . S
C612 C611 1.502 . S
C613 H599 0.960 . S
C613 H600 0.961 . S
C613 H601 0.959 . S
C613 C611 1.561 . S
C614 C611 1.526 . S
C614 C615 1.396 . S
C614 C619 1.390 . S
C615 C609 1.465 . S
C615 C614 1.396 . S
C615 C616 1.399 . S
C616 H602 0.929 . S
C616 C615 1.399 . S
C616 C617 1.385 . S
C617 H603 0.931 . S
C617 C616 1.385 . S
C617 C618 1.389 . S
C618 C617 1.389 . S
C618 C619 1.387 . S
C619 H604 0.930 . S
C619 C614 1.390 . S
C619 C618 1.387 . S
H620 C632 0.930 . S
H621 C634 0.930 . S
H622 C635 0.930 . S
H623 C639 0.959 1_556 S
H624 C639 0.959 . S
H625 C639 0.961 . S
H626 C640 0.960 . S
H627 C640 0.961 . S
H628 C640 0.959 1_556 S
H629 C643 0.929 . S
H630 C644 0.931 . S
H631 C646 0.930 1_554 S
C632 H620 0.930 . S
C632 C633 1.399 . S
C632 C637 1.399 . S
C633 C632 1.399 . S
C633 C634 1.376 . S
C634 H621 0.930 . S
C634 C633 1.376 . S
C634 C635 1.388 . S
C635 H622 0.930 . S
C635 C634 1.388 . S
C635 C636 1.390 . S
C636 C635 1.390 . S
C636 C637 1.394 . S
C636 C642 1.465 . S
C637 C632 1.399 . S
C637 C636 1.394 . S
C637 C638 1.516 . S
C638 C637 1.516 . S
C638 C639 1.502 1_556 S
C638 C640 1.561 1_556 S
C638 C641 1.526 . S
C639 H623 0.959 1_554 S
C639 H624 0.959 . S
C639 H625 0.961 . S
C639 C638 1.502 1_554 S
C640 H626 0.960 . S
C640 H627 0.961 . S
C640 H628 0.959 1_554 S
C640 C638 1.561 1_554 S
C641 C638 1.526 . S
C641 C642 1.396 . S
C641 C646 1.390 . S
C642 C636 1.465 . S
C642 C641 1.396 . S
C642 C643 1.399 . S
C643 H629 0.929 . S
C643 C642 1.399 . S
C643 C644 1.385 . S
C644 H630 0.931 . S
C644 C643 1.385 . S
C644 C645 1.389 . S
C645 C644 1.389 . S
C645 C646 1.387 . S
C646 H631 0.930 1_556 S
C646 C641 1.390 . S
C646 C645 1.387 . S
H647 C659 0.930 . S
H648 C661 0.930 . S
H649 C662 0.930 . S
H650 C666 0.959 . S
H651 C666 0.959 . S
H652 C666 0.961 . S
H653 C667 0.960 . S
H654 C667 0.961 . S
H655 C667 0.959 . S
H656 C670 0.929 . S
H657 C671 0.931 . S
H658 C673 0.930 . S
C659 H647 0.930 . S
C659 C660 1.399 . S
C659 C664 1.399 . S
C660 C659 1.399 . S
C660 C661 1.376 . S
C661 H648 0.930 . S
C661 C660 1.376 . S
C661 C662 1.388 . S
C662 H649 0.930 . S
C662 C661 1.388 . S
C662 C663 1.390 . S
C663 C662 1.390 . S
C663 C664 1.394 . S
C663 C669 1.465 . S
C664 C659 1.399 . S
C664 C663 1.394 . S
C664 C665 1.516 . S
C665 C664 1.516 . S
C665 C666 1.502 . S
C665 C667 1.561 . S
C665 C668 1.526 . S
C666 H650 0.959 . S
C666 H651 0.959 . S
C666 H652 0.961 . S
C666 C665 1.502 . S
C667 H653 0.960 . S
C667 H654 0.961 . S
C667 H655 0.959 . S
C667 C665 1.561 . S
C668 C665 1.526 . S
C668 C669 1.396 . S
C668 C673 1.390 . S
C669 C663 1.465 . S
C669 C668 1.396 . S
C669 C670 1.399 . S
C670 H656 0.929 . S
C670 C669 1.399 . S
C670 C671 1.385 . S
C671 H657 0.931 . S
C671 C670 1.385 . S
C671 C672 1.389 . S
C672 C671 1.389 . S
C672 C673 1.387 . S
C673 H658 0.930 . S
C673 C668 1.390 . S
C673 C672 1.387 . S
H674 C686 0.930 . S
H675 C688 0.930 . S
H676 C689 0.930 . S
H677 C693 0.959 . S
H678 C693 0.959 . S
H679 C693 0.961 . S
H680 C694 0.960 . S
H681 C694 0.961 . S
H682 C694 0.959 . S
H683 C697 0.929 . S
H684 C698 0.931 . S
H685 C700 0.930 . S
C686 H674 0.930 . S
C686 C687 1.399 . S
C686 C691 1.399 . S
C687 C686 1.399 . S
C687 C688 1.376 . S
C688 H675 0.930 . S
C688 C687 1.376 . S
C688 C689 1.388 . S
C689 H676 0.930 . S
C689 C688 1.388 . S
C689 C690 1.390 . S
C690 C689 1.390 . S
C690 C691 1.394 . S
C690 C696 1.465 . S
C691 C686 1.399 . S
C691 C690 1.394 . S
C691 C692 1.516 . S
C692 C691 1.516 . S
C692 C693 1.502 . S
C692 C694 1.561 . S
C692 C695 1.526 . S
C693 H677 0.959 . S
C693 H678 0.959 . S
C693 H679 0.961 . S
C693 C692 1.502 . S
C694 H680 0.960 . S
C694 H681 0.961 . S
C694 H682 0.959 . S
C694 C692 1.561 . S
C695 C692 1.526 . S
C695 C696 1.396 . S
C695 C700 1.390 . S
C696 C690 1.465 . S
C696 C695 1.396 . S
C696 C697 1.399 . S
C697 H683 0.929 . S
C697 C696 1.399 . S
C697 C698 1.385 . S
C698 H684 0.931 . S
C698 C697 1.385 . S
C698 C699 1.389 . S
C699 C698 1.389 . S
C699 C700 1.387 . S
C700 H685 0.930 . S
C700 C695 1.390 . S
C700 C699 1.387 . S
H701 C713 0.930 . S
H702 C715 0.930 . S
H703 C716 0.930 . S
H704 C720 0.959 . S
H705 C720 0.959 . S
H706 C720 0.961 . S
H707 C721 0.960 . S
H708 C721 0.961 . S
H709 C721 0.959 . S
H710 C724 0.929 . S
H711 C725 0.931 . S
H712 C727 0.930 . S
C713 H701 0.930 . S
C713 C714 1.399 . S
C713 C718 1.399 . S
C714 C713 1.399 . S
C714 C715 1.376 . S
C715 H702 0.930 . S
C715 C714 1.376 . S
C715 C716 1.388 . S
C716 H703 0.930 . S
C716 C715 1.388 . S
C716 C717 1.390 . S
C717 C716 1.390 . S
C717 C718 1.394 . S
C717 C723 1.465 . S
C718 C713 1.399 . S
C718 C717 1.394 . S
C718 C719 1.516 . S
C719 C718 1.516 . S
C719 C720 1.502 . S
C719 C721 1.561 . S
C719 C722 1.526 . S
C720 H704 0.959 . S
C720 H705 0.959 . S
C720 H706 0.961 . S
C720 C719 1.502 . S
C721 H707 0.960 . S
C721 H708 0.961 . S
C721 H709 0.959 . S
C721 C719 1.561 . S
C722 C719 1.526 . S
C722 C723 1.396 . S
C722 C727 1.390 . S
C723 C717 1.465 . S
C723 C722 1.396 . S
C723 C724 1.399 . S
C724 H710 0.929 . S
C724 C723 1.399 . S
C724 C725 1.385 . S
C725 H711 0.931 . S
C725 C724 1.385 . S
C725 C726 1.389 . S
C726 C725 1.389 . S
C726 C727 1.387 . S
C727 H712 0.930 . S
C727 C722 1.390 . S
C727 C726 1.387 . S
H728 C740 0.930 . S
H729 C742 0.930 . S
H730 C743 0.930 . S
H731 C747 0.959 . S
H732 C747 0.959 . S
H733 C747 0.961 . S
H734 C748 0.960 . S
H735 C748 0.961 . S
H736 C748 0.959 . S
H737 C751 0.929 . S
H738 C752 0.931 . S
H739 C754 0.930 . S
C740 H728 0.930 . S
C740 C741 1.399 . S
C740 C745 1.399 . S
C741 C740 1.399 . S
C741 C742 1.376 . S
C742 H729 0.930 . S
C742 C741 1.376 . S
C742 C743 1.388 . S
C743 H730 0.930 . S
C743 C742 1.388 . S
C743 C744 1.390 . S
C744 C743 1.390 . S
C744 C745 1.394 . S
C744 C750 1.465 . S
C745 C740 1.399 . S
C745 C744 1.394 . S
C745 C746 1.516 1_556 S
C746 C745 1.516 1_554 S
C746 C747 1.502 1_655 S
C746 C748 1.561 . S
C746 C749 1.526 1_554 S
C747 H731 0.959 . S
C747 H732 0.959 . S
C747 H733 0.961 . S
C747 C746 1.502 1_455 S
C748 H734 0.960 . S
C748 H735 0.961 . S
C748 H736 0.959 . S
C748 C746 1.561 . S
C749 C746 1.526 1_556 S
C749 C750 1.396 . S
C749 C754 1.390 1_556 S
C750 C744 1.465 . S
C750 C749 1.396 . S
C750 C751 1.399 . S
C751 H737 0.929 . S
C751 C750 1.399 . S
C751 C752 1.385 . S
C752 H738 0.931 . S
C752 C751 1.385 . S
C752 C753 1.389 . S
C753 C752 1.389 . S
C753 C754 1.387 1_556 S
C754 H739 0.930 . S
C754 C749 1.390 1_554 S
C754 C753 1.387 1_554 S
H755 C767 0.930 . S
H756 C769 0.930 . S
H757 C770 0.930 . S
H758 C774 0.959 . S
H759 C774 0.959 . S
H760 C774 0.961 . S
H761 C775 0.960 . S
H762 C775 0.961 . S
H763 C775 0.959 . S
H764 C778 0.929 . S
H765 C779 0.931 . S
H766 C781 0.930 . S
C767 H755 0.930 . S
C767 C768 1.399 . S
C767 C772 1.399 . S
C768 C767 1.399 . S
C768 C769 1.376 . S
C769 H756 0.930 . S
C769 C768 1.376 . S
C769 C770 1.388 . S
C770 H757 0.930 . S
C770 C769 1.388 . S
C770 C771 1.390 . S
C771 C770 1.390 . S
C771 C772 1.394 . S
C771 C777 1.465 . S
C772 C767 1.399 . S
C772 C771 1.394 . S
C772 C773 1.516 . S
C773 C772 1.516 . S
C773 C774 1.502 . S
C773 C775 1.561 . S
C773 C776 1.526 . S
C774 H758 0.959 . S
C774 H759 0.959 . S
C774 H760 0.961 . S
C774 C773 1.502 . S
C775 H761 0.960 . S
C775 H762 0.961 . S
C775 H763 0.959 . S
C775 C773 1.561 . S
C776 C773 1.526 . S
C776 C777 1.396 . S
C776 C781 1.390 . S
C777 C771 1.465 . S
C777 C776 1.396 . S
C777 C778 1.399 . S
C778 H764 0.929 . S
C778 C777 1.399 . S
C778 C779 1.385 . S
C779 H765 0.931 . S
C779 C778 1.385 . S
C779 C780 1.389 . S
C780 C779 1.389 . S
C780 C781 1.387 . S
C781 H766 0.930 . S
C781 C776 1.390 . S
C781 C780 1.387 . S
H782 C794 0.930 . S
H783 C796 0.930 . S
H784 C797 0.930 . S
H785 C801 0.959 . S
H786 C801 0.959 . S
H787 C801 0.961 . S
H788 C802 0.960 . S
H789 C802 0.961 . S
H790 C802 0.959 . S
H791 C805 0.929 . S
H792 C806 0.931 . S
H793 C808 0.930 . S
C794 H782 0.930 . S
C794 C795 1.399 . S
C794 C799 1.399 . S
C795 C794 1.399 . S
C795 C796 1.376 . S
C796 H783 0.930 . S
C796 C795 1.376 . S
C796 C797 1.388 . S
C797 H784 0.930 . S
C797 C796 1.388 . S
C797 C798 1.390 . S
C798 C797 1.390 . S
C798 C799 1.394 . S
C798 C804 1.465 . S
C799 C794 1.399 . S
C799 C798 1.394 . S
C799 C800 1.516 . S
C800 C799 1.516 . S
C800 C801 1.502 . S
C800 C802 1.561 . S
C800 C803 1.526 . S
C801 H785 0.959 . S
C801 H786 0.959 . S
C801 H787 0.961 . S
C801 C800 1.502 . S
C802 H788 0.960 . S
C802 H789 0.961 . S
C802 H790 0.959 . S
C802 C800 1.561 . S
C803 C800 1.526 . S
C803 C804 1.396 . S
C803 C808 1.390 . S
C804 C798 1.465 . S
C804 C803 1.396 . S
C804 C805 1.399 . S
C805 H791 0.929 . S
C805 C804 1.399 . S
C805 C806 1.385 . S
C806 H792 0.931 . S
C806 C805 1.385 . S
C806 C807 1.389 . S
C807 C806 1.389 . S
C807 C808 1.387 . S
C808 H793 0.930 . S
C808 C803 1.390 . S
C808 C807 1.387 . S
H809 C821 0.930 . S
H810 C823 0.930 . S
H811 C824 0.930 . S
H812 C828 0.959 . S
H813 C828 0.959 . S
H814 C828 0.961 . S
H815 C829 0.960 . S
H816 C829 0.961 . S
H817 C829 0.959 . S
H818 C832 0.929 . S
H819 C833 0.931 . S
H820 C835 0.930 . S
C821 H809 0.930 . S
C821 C822 1.399 . S
C821 C826 1.399 . S
C822 C821 1.399 . S
C822 C823 1.376 . S
C823 H810 0.930 . S
C823 C822 1.376 . S
C823 C824 1.388 . S
C824 H811 0.930 . S
C824 C823 1.388 . S
C824 C825 1.390 . S
C825 C824 1.390 . S
C825 C826 1.394 . S
C825 C831 1.465 . S
C826 C821 1.399 . S
C826 C825 1.394 . S
C826 C827 1.516 . S
C827 C826 1.516 . S
C827 C828 1.502 . S
C827 C829 1.561 . S
C827 C830 1.526 . S
C828 H812 0.959 . S
C828 H813 0.959 . S
C828 H814 0.961 . S
C828 C827 1.502 . S
C829 H815 0.960 . S
C829 H816 0.961 . S
C829 H817 0.959 . S
C829 C827 1.561 . S
C830 C827 1.526 . S
C830 C831 1.396 . S
C830 C835 1.390 . S
C831 C825 1.465 . S
C831 C830 1.396 . S
C831 C832 1.399 . S
C832 H818 0.929 . S
C832 C831 1.399 . S
C832 C833 1.385 . S
C833 H819 0.931 . S
C833 C832 1.385 . S
C833 C834 1.389 . S
C834 C833 1.389 . S
C834 C835 1.387 . S
C835 H820 0.930 . S
C835 C830 1.390 . S
C835 C834 1.387 . S
C201 C9 1.957 . S
C213 C120 1.874 . S
C228 C21 1.479 . S
C240 C142 1.424 . S
C267 C161 0.959 . S
C255 C30 1.196 . S
C282 C43 1.410 . S
C294 C182 1.327 1_655 S
C321 C139 1.639 . S
C309 C4 1.614 . S
C348 C117 2.056 . S
C336 C22 2.111 . S
C375 C184 0.980 . S
C363 C34 1.081 . S
C402 C163 1.180 . S
C390 C48 1.245 . S
C417 C8 1.766 . S
C429 C181 1.733 . S
C456 C140 1.281 . S
C444 C35 1.606 . S
C471 C47 1.679 . S
C483 C122 1.465 . S
C498 C17 1.368 . S
C510 C160 1.338 . S
C537 C118 1.524 . S
C525 C60 1.636 . S
C552 C74 1.583 . S
C564 C138 1.576 . S
C579 C82 1.070 . S
C591 C164 0.886 . S
C606 C100 1.905 . S
C618 C185 1.539 . S
C633 C61 1.986 . S
C645 C141 1.948 . S
C672 C121 1.702 . S
C660 C73 1.757 . S
C699 C180 1.365 . S
C687 C87 1.377 . S
C726 C159 1.137 . S
C714 C95 1.096 . S
C741 C56 1.508 . S
C753 C183 1.531 . S
C780 C143 1.307 . S
C768 C86 1.572 . S
C807 C119 1.337 . S
C795 C99 1.458 . S
C822 C69 1.323 . S
C834 C162 1.285 . S
