# Generated by pormake.
# Topology pyr, (3,6)-cn, num edge types: 1
# Building blocks:
#     Node 0, Type 0, BuildingBlock: CUQRIR_clean_linker_1, # of connection points: 3
#     Node 1, Type 0, BuildingBlock: CUQRIR_clean_linker_1, # of connection points: 3
#     Node 2, Type 0, BuildingBlock: CUQRIR_clean_linker_1, # of connection points: 3
#     Node 3, Type 0, BuildingBlock: CUQRIR_clean_linker_1, # of connection points: 3
#     Node 4, Type 0, BuildingBlock: CUQRIR_clean_linker_1, # of connection points: 3
#     Node 5, Type 0, BuildingBlock: CUQRIR_clean_linker_1, # of connection points: 3
#     Node 6, Type 0, BuildingBlock: CUQRIR_clean_linker_1, # of connection points: 3
#     Node 7, Type 0, BuildingBlock: CUQRIR_clean_linker_1, # of connection points: 3
#     Node 8, Type 1, BuildingBlock: VOLQOD_clean_sbu_1, # of connection points: 6
#     Node 9, Type 1, BuildingBlock: VOLQOD_clean_sbu_1, # of connection points: 6
#     Node 10, Type 1, BuildingBlock: VOLQOD_clean_sbu_1, # of connection points: 6
#     Node 11, Type 1, BuildingBlock: VOLQOD_clean_sbu_1, # of connection points: 6
#     Edge 12, Type (0, 1), BuildingBlock: AJUNOK_clean_linker_0, # of connection points: 2
#     Edge 13, Type (0, 1), BuildingBlock: AJUNOK_clean_linker_0, # of connection points: 2
#     Edge 14, Type (0, 1), BuildingBlock: AJUNOK_clean_linker_0, # of connection points: 2
#     Edge 15, Type (0, 1), BuildingBlock: AJUNOK_clean_linker_0, # of connection points: 2
#     Edge 16, Type (0, 1), BuildingBlock: AJUNOK_clean_linker_0, # of connection points: 2
#     Edge 17, Type (0, 1), BuildingBlock: AJUNOK_clean_linker_0, # of connection points: 2
#     Edge 18, Type (0, 1), BuildingBlock: AJUNOK_clean_linker_0, # of connection points: 2
#     Edge 19, Type (0, 1), BuildingBlock: AJUNOK_clean_linker_0, # of connection points: 2
#     Edge 20, Type (0, 1), BuildingBlock: AJUNOK_clean_linker_0, # of connection points: 2
#     Edge 21, Type (0, 1), BuildingBlock: AJUNOK_clean_linker_0, # of connection points: 2
#     Edge 22, Type (0, 1), BuildingBlock: AJUNOK_clean_linker_0, # of connection points: 2
#     Edge 23, Type (0, 1), BuildingBlock: AJUNOK_clean_linker_0, # of connection points: 2
#     Edge 24, Type (0, 1), BuildingBlock: AJUNOK_clean_linker_0, # of connection points: 2
#     Edge 25, Type (0, 1), BuildingBlock: AJUNOK_clean_linker_0, # of connection points: 2
#     Edge 26, Type (0, 1), BuildingBlock: AJUNOK_clean_linker_0, # of connection points: 2
#     Edge 27, Type (0, 1), BuildingBlock: AJUNOK_clean_linker_0, # of connection points: 2
#     Edge 28, Type (0, 1), BuildingBlock: AJUNOK_clean_linker_0, # of connection points: 2
#     Edge 29, Type (0, 1), BuildingBlock: AJUNOK_clean_linker_0, # of connection points: 2
#     Edge 30, Type (0, 1), BuildingBlock: AJUNOK_clean_linker_0, # of connection points: 2
#     Edge 31, Type (0, 1), BuildingBlock: AJUNOK_clean_linker_0, # of connection points: 2
#     Edge 32, Type (0, 1), BuildingBlock: AJUNOK_clean_linker_0, # of connection points: 2
#     Edge 33, Type (0, 1), BuildingBlock: AJUNOK_clean_linker_0, # of connection points: 2
#     Edge 34, Type (0, 1), BuildingBlock: AJUNOK_clean_linker_0, # of connection points: 2
#     Edge 35, Type (0, 1), BuildingBlock: AJUNOK_clean_linker_0, # of connection points: 2
# Relax obj value: 0.122
# Max RMSD: 0.209
# Mean RMSD: 0.164
data_MOF--net-pry--node1-VOLQOD_clean_sbu_1--node2-CUQRIR_clean_linker_1--edge1-AJUNOK_clean_linker_0
_symmetry_space_group_name_H-M    P1
_symmetry_Int_Tables_number       1
_symmetry_cell_setting            triclinic
loop_
_symmetry_equiv_pos_as_xyz
'x, y, z'
_cell_length_a     25.117607
_cell_length_b     25.106399
_cell_length_c     24.779361
_cell_angle_alpha  88.220418
_cell_angle_beta   92.274991
_cell_angle_gamma 94.167519
loop_
_atom_site_label
_atom_site_type_symbol
_atom_site_fract_x
_atom_site_fract_y
_atom_site_fract_z
_atom_type_partial_charge
C0 C 0.13341 0.18682 0.18069 0.0
N1 N 0.17098 0.15125 0.18888 0.0
N2 N 0.14582 0.22055 0.13878 0.0
C3 C 0.0847 0.18875 0.21393 0.0
C4 C 0.19257 0.20422 0.12191 0.0
N5 N 0.20777 0.16179 0.15237 0.0
C6 C 0.22591 0.23265 0.07927 0.0
H7 H 0.07024 0.14822 0.22832 0.0
H8 H 0.0519 0.20705 0.19039 0.0
H9 H 0.09538 0.21309 0.2499 0.0
H10 H 0.21799 0.27554 0.0757 0.0
H11 H 0.21595 0.21421 0.03972 0.0
H12 H 0.26906 0.22892 0.08878 0.0
C13 C 0.38595 0.87206 0.64073 0.0
N14 N 0.37166 0.90627 0.67785 0.0
N15 N 0.42067 0.83816 0.66261 0.0
C16 C 0.36162 0.86818 0.58425 0.0
C17 C 0.42778 0.85322 0.71445 0.0
N18 N 0.39732 0.89418 0.72413 0.0
C19 C 0.46305 0.82632 0.75579 0.0
H20 H 0.3199 0.85053 0.58611 0.0
H21 H 0.38452 0.84314 0.55877 0.0
H22 H 0.36043 0.90859 0.56507 0.0
H23 H 0.49729 0.81026 0.73635 0.0
H24 H 0.43963 0.79231 0.77521 0.0
H25 H 0.47836 0.85441 0.78742 0.0
C26 C 0.58078 0.38134 0.89163 0.0
N27 N 0.6134 0.36919 0.93415 0.0
N28 N 0.59031 0.43284 0.8755 0.0
C29 C 0.54374 0.34133 0.86188 0.0
C30 C 0.62911 0.45176 0.91078 0.0
N31 N 0.64411 0.41292 0.9462 0.0
C32 C 0.65569 0.50746 0.90812 0.0
H33 H 0.54882 0.34604 0.81767 0.0
H34 H 0.50186 0.34891 0.86992 0.0
H35 H 0.55081 0.29959 0.8745 0.0
H36 H 0.63193 0.53448 0.88215 0.0
H37 H 0.69615 0.50656 0.89192 0.0
H38 H 0.66074 0.52332 0.94946 0.0
C39 C 0.85582 0.62388 0.34667 0.0
N40 N 0.90271 0.65152 0.33621 0.0
N41 N 0.84101 0.63271 0.39728 0.0
C42 C 0.82375 0.58939 0.30677 0.0
C43 C 0.88111 0.66595 0.41764 0.0
N44 N 0.91891 0.6774 0.38065 0.0
C45 C 0.883 0.68855 0.47335 0.0
H46 H 0.78032 0.5914 0.31222 0.0
H47 H 0.83374 0.54734 0.31369 0.0
H48 H 0.83311 0.60164 0.2646 0.0
H49 H 0.85246 0.66804 0.49933 0.0
H50 H 0.87661 0.73183 0.47003 0.0
H51 H 0.92294 0.68436 0.49304 0.0
C52 C 0.84512 0.86326 0.89792 0.0
N53 N 0.88416 0.85534 0.8638 0.0
N54 N 0.82607 0.91153 0.88813 0.0
C55 C 0.8255 0.82383 0.94099 0.0
C56 C 0.85486 0.93312 0.84702 0.0
N57 N 0.89095 0.89911 0.83249 0.0
C58 C 0.84443 0.98518 0.81819 0.0
H59 H 0.79677 0.79355 0.92221 0.0
H60 H 0.80505 0.84388 0.97276 0.0
H61 H 0.8592 0.80278 0.95981 0.0
H62 H 0.80415 0.99778 0.82629 0.0
H63 H 0.84819 0.98179 0.77398 0.0
H64 H 0.87457 0.01657 0.83258 0.0
C65 C 0.70138 0.17613 0.45756 0.0
N66 N 0.71461 0.1374 0.42447 0.0
N67 N 0.65116 0.19032 0.44558 0.0
C68 C 0.7386 0.20231 0.4994 0.0
C69 C 0.63438 0.15929 0.40394 0.0
N70 N 0.67255 0.12706 0.39102 0.0
C71 C 0.58268 0.16484 0.372 0.0
H72 H 0.73699 0.17762 0.5373 0.0
H73 H 0.72688 0.2428 0.50824 0.0
H74 H 0.78031 0.20489 0.48579 0.0
H75 H 0.58986 0.19392 0.33796 0.0
H76 H 0.55201 0.17982 0.39755 0.0
H77 H 0.56737 0.12607 0.35504 0.0
C78 C 0.37188 0.59739 0.1314 0.0
N79 N 0.41099 0.62617 0.15885 0.0
N80 N 0.35871 0.62252 0.08426 0.0
C81 C 0.34132 0.54825 0.15355 0.0
C82 C 0.39253 0.66685 0.08329 0.0
N83 N 0.42419 0.66931 0.12868 0.0
C84 C 0.38857 0.71191 0.04209 0.0
H85 H 0.32917 0.52065 0.12043 0.0
H86 H 0.30447 0.56004 0.17184 0.0
H87 H 0.36553 0.52722 0.18478 0.0
H88 H 0.36846 0.74482 0.05981 0.0
H89 H 0.36548 0.69842 0.00527 0.0
H90 H 0.42909 0.72791 0.03088 0.0
C91 C 0.07097 0.37914 0.63071 0.0
N92 N 0.1075 0.36632 0.59542 0.0
N93 N 0.08559 0.42661 0.6533 0.0
C94 C 0.02602 0.34109 0.65003 0.0
C95 C 0.13257 0.44203 0.63063 0.0
N96 N 0.14609 0.40547 0.59564 0.0
C97 C 0.16874 0.48913 0.64837 0.0
H98 H 0.99784 0.33091 0.61574 0.0
H99 H 0.00351 0.35831 0.68207 0.0
H100 H 0.04235 0.30346 0.66568 0.0
H101 H 0.19893 0.47517 0.67846 0.0
H102 H 0.14574 0.51927 0.66723 0.0
H103 H 0.19019 0.50777 0.61349 0.0
O104 O 0.03973 0.12185 0.55947 0.0
Zn105 Zn 0.00804 0.04561 0.5519 0.0
O106 O 0.05336 0.00579 0.50891 0.0
Zn107 Zn 0.01961 0.99733 0.4376 0.0
Zn108 Zn 0.12294 0.04483 0.50334 0.0
Zn109 Zn 0.06387 0.93618 0.54331 0.0
O110 O 0.00689 0.91951 0.4226 0.0
O111 O 0.04578 0.87565 0.49073 0.0
O112 O 0.93538 0.05183 0.5148 0.0
O113 O 0.94778 0.03123 0.42993 0.0
O114 O 0.06985 0.0266 0.3812 0.0
O115 O 0.14642 0.04738 0.42655 0.0
O116 O 0.17783 0.01371 0.55391 0.0
O117 O 0.99684 0.00745 0.6243 0.0
O118 O 0.13873 0.93493 0.57777 0.0
O119 O 0.01637 0.9247 0.60669 0.0
C120 C 0.08387 0.14557 0.54543 0.0
C121 C 0.02062 0.87597 0.44486 0.0
C122 C 0.11946 0.04158 0.38219 0.0
C123 C 0.91846 0.04802 0.4658 0.0
C124 C 0.17837 0.96967 0.58073 0.0
C125 C 0.99746 0.95788 0.63735 0.0
O126 O 0.11951 0.12097 0.52368 0.0
O127 O 0.51805 0.13784 0.00327 0.0
Zn128 Zn 0.47976 0.06437 0.01531 0.0
O129 O 0.52525 0.01879 0.05933 0.0
Zn130 Zn 0.5281 0.9534 0.02105 0.0
Zn131 Zn 0.59735 0.05296 0.06678 0.0
Zn132 Zn 0.49753 0.00239 0.13164 0.0
O133 O 0.51676 0.89019 0.07064 0.0
O134 O 0.4854 0.92212 0.14475 0.0
O135 O 0.45442 0.03114 0.94278 0.0
O136 O 0.47393 0.94724 0.95913 0.0
O137 O 0.5991 0.94958 0.98896 0.0
O138 O 0.64936 0.01685 0.02412 0.0
O139 O 0.62328 0.05585 0.14415 0.0
O140 O 0.41428 0.07424 0.05674 0.0
O141 O 0.5519 0.02763 0.19014 0.0
O142 O 0.42731 0.03745 0.13887 0.0
C143 C 0.56555 0.15667 0.01497 0.0
C144 C 0.49833 0.88306 0.11757 0.0
C145 C 0.64362 0.97674 0.99383 0.0
C146 C 0.45126 0.98214 0.92981 0.0
C147 C 0.60054 0.04603 0.18869 0.0
C148 C 0.3989 0.06299 0.10443 0.0
O149 O 0.59965 0.12831 0.03883 0.0
O150 O 0.56226 0.52592 0.6296 0.0
Zn151 Zn 0.54805 0.55978 0.55693 0.0
O152 O 0.49922 0.51235 0.51404 0.0
Zn153 Zn 0.53504 0.49464 0.44971 0.0
Zn154 Zn 0.47936 0.44681 0.55476 0.0
Zn155 Zn 0.43497 0.54827 0.49471 0.0
O156 O 0.49825 0.52378 0.38265 0.0
O157 O 0.4349 0.56936 0.41582 0.0
O158 O 0.61804 0.57885 0.52164 0.0
O159 O 0.60927 0.52883 0.44913 0.0
O160 O 0.54603 0.41641 0.44802 0.0
O161 O 0.51797 0.38503 0.52749 0.0
O162 O 0.3992 0.42907 0.55147 0.0
O163 O 0.51508 0.62756 0.5723 0.0
O164 O 0.3683 0.50022 0.50879 0.0
O165 O 0.43235 0.61528 0.53774 0.0
C166 C 0.53784 0.48747 0.65523 0.0
C167 C 0.461 0.55554 0.37611 0.0
C168 C 0.54135 0.37877 0.48359 0.0
C169 C 0.63655 0.56162 0.479 0.0
C170 C 0.36033 0.45435 0.5318 0.0
C171 C 0.46811 0.64278 0.56485 0.0
O172 O 0.50221 0.45611 0.63259 0.0
O173 O 0.96575 0.53806 0.12705 0.0
Zn174 Zn 0.9658 0.49246 0.06107 0.0
O175 O 0.99953 0.53314 0.0009 0.0
Zn176 Zn 0.95164 0.53758 0.93697 0.0
Zn177 Zn 0.02361 0.6048 0.02459 0.0
Zn178 Zn 0.06031 0.49684 0.9798 0.0
O179 O 0.98056 0.50594 0.87033 0.0
O180 O 0.05927 0.48283 0.90206 0.0
O181 O 0.88896 0.4685 0.03933 0.0
O182 O 0.88156 0.49742 0.95345 0.0
O183 O 0.94171 0.61482 0.91578 0.0
O184 O 0.99771 0.66047 0.97187 0.0
O185 O 0.10384 0.61403 0.02892 0.0
O186 O 0.00507 0.42607 0.08176 0.0
O187 O 0.12822 0.53852 0.99682 0.0
O188 O 0.06454 0.42684 0.01771 0.0
C189 C 0.97826 0.58725 0.13588 0.0
C190 C 0.02522 0.48673 0.86333 0.0
C191 C 0.9649 0.65891 0.93134 0.0
C192 C 0.8621 0.47268 0.99479 0.0
C193 C 0.13998 0.58425 0.01614 0.0
C194 C 0.04201 0.4046 0.05828 0.0
O195 O 0.99797 0.61871 0.0993 0.0
C196 C 0.19623 0.13001 0.2826 0.0
C197 C 0.17286 0.11335 0.23308 0.0
C198 C 0.18264 0.10303 0.33095 0.0
C199 C 0.14414 0.05941 0.33104 0.0
H200 H 0.2214 0.16687 0.28427 0.0
H201 H 0.19866 0.11952 0.3686 0.0
S202 S 0.07808 0.99603 0.21028 0.0
N203 N 0.11544 0.0473 0.18568 0.0
N204 N 0.08857 0.99651 0.27654 0.0
C205 C 0.1243 0.03959 0.28112 0.0
C206 C 0.13905 0.06663 0.23201 0.0
C207 C 0.41928 0.9738 0.77885 0.0
C208 C 0.39597 0.92139 0.77448 0.0
C209 C 0.43325 0.99543 0.82977 0.0
C210 C 0.42491 0.96489 0.87777 0.0
H211 H 0.43045 0.99653 0.74268 0.0
H212 H 0.45438 0.03456 0.83131 0.0
S213 S 0.35617 0.82922 0.88762 0.0
N214 N 0.35788 0.84282 0.82203 0.0
N215 N 0.3852 0.88229 0.91743 0.0
C216 C 0.39746 0.91418 0.8737 0.0
C217 C 0.38259 0.89277 0.82211 0.0
C218 C 0.52482 0.45742 0.80451 0.0
C219 C 0.5782 0.45374 0.82228 0.0
C220 C 0.51184 0.46903 0.75014 0.0
C221 C 0.55208 0.47825 0.71244 0.0
H222 H 0.49306 0.44937 0.83257 0.0
H223 H 0.47018 0.47037 0.73739 0.0
S224 S 0.69752 0.47081 0.73835 0.0
N225 N 0.6711 0.45735 0.79761 0.0
N226 N 0.64696 0.48253 0.69606 0.0
C227 C 0.6056 0.47597 0.72996 0.0
C228 C 0.61865 0.46284 0.78484 0.0
C229 C 0.92897 0.67488 0.24302 0.0
C230 C 0.93419 0.64311 0.29038 0.0
C231 C 0.94651 0.65817 0.19346 0.0
C232 C 0.96803 0.60824 0.18947 0.0
H233 H 0.90807 0.71098 0.24346 0.0
H234 H 0.93986 0.68279 0.15749 0.0
S235 S 0.99321 0.51232 0.30285 0.0
N236 N 0.96566 0.56179 0.33109 0.0
N237 N 0.99709 0.52923 0.23808 0.0
C238 C 0.97554 0.57738 0.2371 0.0
C239 C 0.95898 0.59511 0.28749 0.0
C240 C 0.29498 0.12867 0.18193 0.0
C241 C 0.25239 0.13068 0.14357 0.0
C242 C 0.3416 0.10403 0.17031 0.0
C243 C 0.34714 0.0816 0.11962 0.0
H244 H 0.29315 0.14824 0.22002 0.0
H245 H 0.37446 0.10498 0.20002 0.0
S246 S 0.24385 0.07119 0.00848 0.0
N247 N 0.21616 0.10363 0.05579 0.0
N248 N 0.304 0.05888 0.03293 0.0
C249 C 0.30365 0.08139 0.08209 0.0
C250 C 0.2562 0.10559 0.09432 0.0
C251 C 0.3217 0.9783 0.6375 0.0
C252 C 0.32297 0.93282 0.67171 0.0
C253 C 0.27418 0.99139 0.61018 0.0
C254 C 0.22625 0.95903 0.61578 0.0
H255 H 0.35872 0.00075 0.62782 0.0
H256 H 0.27596 0.02518 0.58189 0.0
S257 S 0.20788 0.84013 0.70795 0.0
N258 N 0.27201 0.85925 0.71507 0.0
N259 N 0.18225 0.8834 0.66449 0.0
C260 C 0.22628 0.91621 0.65396 0.0
C261 C 0.27467 0.90346 0.682 0.0
C262 C 0.73808 0.40457 0.93029 0.0
C263 C 0.69836 0.41289 0.96686 0.0
C264 C 0.79149 0.4216 0.94118 0.0
C265 C 0.80733 0.44726 0.98937 0.0
H266 H 0.7268 0.38896 0.89087 0.0
H267 H 0.8202 0.41691 0.91048 0.0
S268 S 0.71914 0.47527 0.09996 0.0
N269 N 0.6784 0.44611 0.05394 0.0
N270 N 0.77969 0.47693 0.07579 0.0
C271 C 0.76869 0.45254 0.02807 0.0
C272 C 0.71389 0.43575 0.01641 0.0
C273 C 0.77522 0.56092 0.42559 0.0
C274 C 0.79118 0.61556 0.42108 0.0
C275 C 0.72525 0.54366 0.44542 0.0
C276 C 0.69034 0.58054 0.4625 0.0
H277 H 0.80131 0.53156 0.41292 0.0
H278 H 0.71373 0.50122 0.44726 0.0
S279 S 0.71267 0.72798 0.45655 0.0
N280 N 0.76738 0.70646 0.43249 0.0
N281 N 0.67454 0.67391 0.47278 0.0
C282 C 0.7062 0.63522 0.45902 0.0
C283 C 0.75643 0.65279 0.43749 0.0
C284 C 0.10415 0.3046 0.15381 0.0
C285 C 0.11688 0.26483 0.11867 0.0
C286 C 0.07676 0.34851 0.13463 0.0
C287 C 0.06233 0.35436 0.07955 0.0
H288 H 0.11653 0.30219 0.1961 0.0
H289 H 0.06908 0.37921 0.16251 0.0
S290 S 0.08251 0.25894 0.97225 0.0
N291 N 0.10902 0.23168 0.0276 0.0
N292 N 0.06009 0.31563 0.99072 0.0
C293 C 0.07377 0.31424 0.04434 0.0
C294 C 0.10053 0.26912 0.06411 0.0
C295 C 0.56107 0.30579 0.99108 0.0
C296 C 0.60898 0.31978 0.96493 0.0
C297 C 0.54746 0.25297 0.00791 0.0
C298 C 0.58199 0.21259 0.00018 0.0
H299 H 0.53242 0.3355 0.9952 0.0
H300 H 0.50928 0.24348 0.02609 0.0
S301 S 0.71286 0.22876 0.93524 0.0
N302 N 0.69084 0.28923 0.93225 0.0
N303 N 0.66712 0.19028 0.96683 0.0
C304 C 0.63134 0.22655 0.97673 0.0
C305 C 0.64447 0.28015 0.95839 0.0
C306 C 0.99801 0.72669 0.4211 0.0
C307 C 0.95512 0.72438 0.38289 0.0
C308 C 0.02135 0.77598 0.43892 0.0
C309 C 0.00269 0.82466 0.4188 0.0
H310 H 0.01048 0.69016 0.44049 0.0
H311 H 0.05221 0.77577 0.4707 0.0
S312 S 0.89377 0.83903 0.31432 0.0
N313 N 0.89677 0.77396 0.32356 0.0
N314 N 0.94149 0.86654 0.3543 0.0
C315 C 0.96262 0.82245 0.37712 0.0
C316 C 0.9387 0.77232 0.35977 0.0
C317 C 0.48452 0.78049 0.62528 0.0
C318 C 0.4327 0.78834 0.64072 0.0
C319 C 0.49563 0.73319 0.60063 0.0
C320 C 0.45498 0.6927 0.58992 0.0
H321 H 0.5163 0.81139 0.63179 0.0
H322 H 0.5362 0.72865 0.58919 0.0
S323 S 0.31302 0.69413 0.62574 0.0
N324 N 0.34102 0.75187 0.6464 0.0
N325 N 0.3611 0.6634 0.59883 0.0
C326 C 0.40297 0.70029 0.60574 0.0
C327 C 0.39205 0.74801 0.63153 0.0
C328 C 0.95922 0.95398 0.78365 0.0
C329 C 0.92524 0.90713 0.78743 0.0
C330 C 0.98335 0.96969 0.73515 0.0
C331 C 0.97524 0.93835 0.68914 0.0
H332 H 0.96492 0.97993 0.81781 0.0
H333 H 0.00774 0.00707 0.73336 0.0
S334 S 0.8915 0.81094 0.67894 0.0
N335 N 0.88522 0.8293 0.74167 0.0
N336 N 0.93289 0.85702 0.65106 0.0
C337 C 0.94375 0.88983 0.6933 0.0
C338 C 0.91824 0.87456 0.74242 0.0
C339 C 0.64412 0.04921 0.33714 0.0
C340 C 0.67131 0.09995 0.34081 0.0
C341 C 0.62314 0.03048 0.28721 0.0
C342 C 0.62966 0.06166 0.23941 0.0
H343 H 0.63499 0.02614 0.37368 0.0
H344 H 0.59974 0.99251 0.28634 0.0
S345 S 0.69768 0.19733 0.22806 0.0
N346 N 0.7026 0.18111 0.29302 0.0
N347 N 0.66686 0.14486 0.19886 0.0
C348 C 0.65973 0.11097 0.24226 0.0
C349 C 0.6797 0.13037 0.29307 0.0
C350 C 0.47537 0.59604 0.22803 0.0
C351 C 0.42644 0.61727 0.21451 0.0
C352 C 0.48649 0.57661 0.28063 0.0
C353 C 0.44896 0.57809 0.32137 0.0
H354 H 0.50404 0.59231 0.1971 0.0
H355 H 0.52445 0.55961 0.28914 0.0
S356 S 0.31532 0.63229 0.30525 0.0
N357 N 0.34084 0.64037 0.24494 0.0
N358 N 0.36133 0.60475 0.3441 0.0
C359 C 0.40051 0.60126 0.30833 0.0
C360 C 0.38935 0.62066 0.25479 0.0
C361 C 0.02855 0.47513 0.71072 0.0
C362 C 0.07036 0.4418 0.70543 0.0
C363 C 0.01308 0.4888 0.76209 0.0
C364 C 0.03919 0.46946 0.80939 0.0
H365 H 0.00804 0.49063 0.67499 0.0
H366 H 0.98121 0.51533 0.76472 0.0
S367 S 0.14875 0.37717 0.81505 0.0
N368 N 0.13568 0.38765 0.74995 0.0
N369 N 0.10724 0.41251 0.84655 0.0
C370 C 0.08044 0.43498 0.8039 0.0
C371 C 0.09588 0.42136 0.75186 0.0
C372 C 0.78539 0.9714 0.94811 0.0
C373 C 0.77991 0.93076 0.91054 0.0
C374 C 0.74085 0.98661 0.97443 0.0
C375 C 0.6896 0.96143 0.96382 0.0
H376 H 0.82451 0.99035 0.95807 0.0
H377 H 0.74692 0.01757 0.004 0.0
S378 S 0.65567 0.85501 0.86453 0.0
N379 N 0.72092 0.8675 0.86124 0.0
N380 N 0.63645 0.89559 0.91 0.0
C381 C 0.68392 0.92163 0.92466 0.0
C382 C 0.72935 0.90641 0.89815 0.0
C383 C 0.77409 0.08097 0.47843 0.0
C384 C 0.76259 0.10873 0.4297 0.0
C385 C 0.82392 0.06005 0.48899 0.0
C386 C 0.86421 0.06537 0.45084 0.0
H387 H 0.74475 0.07714 0.50944 0.0
H388 H 0.83128 0.0404 0.52783 0.0
S389 S 0.85443 0.13482 0.31688 0.0
N390 N 0.79598 0.1411 0.34333 0.0
N391 N 0.88874 0.09981 0.36181 0.0
C392 C 0.85256 0.09135 0.40106 0.0
C393 C 0.80201 0.11355 0.39081 0.0
C394 C 0.29022 0.57918 0.02399 0.0
C395 C 0.30582 0.61909 0.06057 0.0
C396 C 0.23653 0.57009 0.00751 0.0
C397 C 0.19688 0.60051 0.02757 0.0
H398 H 0.31942 0.55369 0.00987 0.0
H399 H 0.22588 0.53768 0.98038 0.0
S400 S 0.21972 0.71156 0.1232 0.0
N401 N 0.27951 0.69038 0.11528 0.0
N402 N 0.17836 0.67416 0.08426 0.0
C403 C 0.2129 0.64231 0.06247 0.0
C404 C 0.26749 0.65129 0.07914 0.0
C405 C 0.24108 0.38812 0.60325 0.0
C406 C 0.19743 0.40536 0.57196 0.0
C407 C 0.29372 0.40081 0.58773 0.0
C408 C 0.30462 0.43288 0.54123 0.0
H409 H 0.2345 0.36783 0.64185 0.0
H410 H 0.32605 0.38861 0.61447 0.0
S411 S 0.20334 0.48541 0.44431 0.0
N412 N 0.16779 0.45306 0.49129 0.0
N413 N 0.26661 0.47841 0.46215 0.0
C414 C 0.26099 0.44836 0.50839 0.0
C415 C 0.20744 0.43436 0.52383 0.0
C416 C 0.88532 0.75934 0.85193 0.0
C417 C 0.91317 0.80823 0.86422 0.0
C418 C 0.90416 0.71082 0.87089 0.0
C419 C 0.95122 0.70966 0.9036 0.0
H420 H 0.84642 0.75907 0.83142 0.0
H421 H 0.87964 0.67442 0.86294 0.0
S422 S 0.0425 0.82739 0.93983 0.0
N423 N 0.99247 0.85295 0.90512 0.0
N424 N 0.02893 0.76198 0.94102 0.0
C425 C 0.98177 0.75833 0.91207 0.0
C426 C 0.96252 0.8076 0.8922 0.0
C427 C 0.50134 0.73344 0.12382 0.0
C428 C 0.45237 0.7176 0.14662 0.0
C429 C 0.51877 0.78756 0.11921 0.0
C430 C 0.48774 0.82741 0.13756 0.0
H431 H 0.52317 0.70433 0.10418 0.0
H432 H 0.55462 0.79844 0.0973 0.0
S433 S 0.36015 0.80494 0.20767 0.0
N434 N 0.37622 0.74454 0.19319 0.0
N435 N 0.4092 0.84649 0.18588 0.0
C436 C 0.44179 0.81146 0.16611 0.0
C437 C 0.42404 0.75631 0.17039 0.0
C438 C 0.14431 0.27813 0.59581 0.0
C439 C 0.10915 0.3144 0.57296 0.0
C440 C 0.13713 0.22346 0.58508 0.0
C441 C 0.09343 0.20339 0.55279 0.0
H442 H 0.17532 0.29148 0.62479 0.0
H443 H 0.16419 0.1964 0.60441 0.0
S444 S 0.99285 0.28251 0.48024 0.0
N445 N 0.03224 0.32723 0.51306 0.0
N446 N 0.01691 0.22405 0.495 0.0
C447 C 0.05927 0.23943 0.52814 0.0
C448 C 0.06764 0.29511 0.5377 0.0
C449 C 0.6357 0.28442 0.42757 0.0
C450 C 0.62735 0.23797 0.45976 0.0
C451 C 0.60712 0.32923 0.43526 0.0
C452 C 0.56894 0.32928 0.47556 0.0
H453 H 0.66372 0.28542 0.39537 0.0
H454 H 0.61529 0.36414 0.40931 0.0
S455 S 0.53234 0.21563 0.56972 0.0
N456 N 0.57852 0.19325 0.53236 0.0
N457 N 0.5247 0.27764 0.54804 0.0
C458 C 0.56067 0.28269 0.50835 0.0
C459 C 0.58985 0.23697 0.50011 0.0
loop_
_geom_bond_atom_site_label_1
_geom_bond_atom_site_label_2
_geom_bond_distance
_geom_bond_site_symmetry_2
_ccdc_geom_bond_type
C0 N1 1.317 . S
C0 N2 1.348 . S
C0 C3 1.485 . S
N1 C0 1.317 . S
N1 N5 1.370 . S
N2 C0 1.348 . S
N2 C4 1.346 . S
C3 C0 1.485 . S
C3 H7 0.960 . S
C3 H8 0.961 . S
C3 H9 0.960 . S
C4 N2 1.346 . S
C4 N5 1.307 . S
C4 C6 1.486 . S
N5 N1 1.370 . S
N5 C4 1.307 . S
C6 C4 1.486 . S
C6 H10 0.960 . S
C6 H11 0.960 . S
C6 H12 0.959 . S
H7 C3 0.960 . S
H8 C3 0.961 . S
H9 C3 0.960 . S
H10 C6 0.960 . S
H11 C6 0.960 . S
H12 C6 0.959 . S
C13 N14 1.317 . S
C13 N15 1.348 . S
C13 C16 1.485 . S
N14 C13 1.317 . S
N14 N18 1.370 . S
N15 C13 1.348 . S
N15 C17 1.346 . S
C16 C13 1.485 . S
C16 H20 0.960 . S
C16 H21 0.961 . S
C16 H22 0.960 . S
C17 N15 1.346 . S
C17 N18 1.307 . S
C17 C19 1.486 . S
N18 N14 1.370 . S
N18 C17 1.307 . S
C19 C17 1.486 . S
C19 H23 0.960 . S
C19 H24 0.960 . S
C19 H25 0.959 . S
H20 C16 0.960 . S
H21 C16 0.961 . S
H22 C16 0.960 . S
H23 C19 0.960 . S
H24 C19 0.960 . S
H25 C19 0.959 . S
C26 N27 1.317 . S
C26 N28 1.348 . S
C26 C29 1.485 . S
N27 C26 1.317 . S
N27 N31 1.370 . S
N28 C26 1.348 . S
N28 C30 1.346 . S
C29 C26 1.485 . S
C29 H33 0.960 . S
C29 H34 0.961 . S
C29 H35 0.960 . S
C30 N28 1.346 . S
C30 N31 1.307 . S
C30 C32 1.486 . S
N31 N27 1.370 . S
N31 C30 1.307 . S
C32 C30 1.486 . S
C32 H36 0.960 . S
C32 H37 0.960 . S
C32 H38 0.959 . S
H33 C29 0.960 . S
H34 C29 0.961 . S
H35 C29 0.960 . S
H36 C32 0.960 . S
H37 C32 0.960 . S
H38 C32 0.959 . S
C39 N40 1.317 . S
C39 N41 1.348 . S
C39 C42 1.485 . S
N40 C39 1.317 . S
N40 N44 1.370 . S
N41 C39 1.348 . S
N41 C43 1.346 . S
C42 C39 1.485 . S
C42 H46 0.960 . S
C42 H47 0.961 . S
C42 H48 0.960 . S
C43 N41 1.346 . S
C43 N44 1.307 . S
C43 C45 1.486 . S
N44 N40 1.370 . S
N44 C43 1.307 . S
C45 C43 1.486 . S
C45 H49 0.960 . S
C45 H50 0.960 . S
C45 H51 0.959 . S
H46 C42 0.960 . S
H47 C42 0.961 . S
H48 C42 0.960 . S
H49 C45 0.960 . S
H50 C45 0.960 . S
H51 C45 0.959 . S
C52 N53 1.317 . S
C52 N54 1.348 . S
C52 C55 1.485 1_556 S
N53 C52 1.317 . S
N53 N57 1.370 . S
N54 C52 1.348 . S
N54 C56 1.346 . S
C55 C52 1.485 1_554 S
C55 H59 0.960 . S
C55 H60 0.961 . S
C55 H61 0.960 . S
C56 N54 1.346 . S
C56 N57 1.307 . S
C56 C58 1.486 1_565 S
N57 N53 1.370 . S
N57 C56 1.307 . S
C58 C56 1.486 1_545 S
C58 H62 0.960 . S
C58 H63 0.960 . S
C58 H64 0.959 . S
H59 C55 0.960 . S
H60 C55 0.961 . S
H61 C55 0.960 . S
H62 C58 0.960 . S
H63 C58 0.960 . S
H64 C58 0.959 . S
C65 N66 1.317 . S
C65 N67 1.348 . S
C65 C68 1.485 . S
N66 C65 1.317 . S
N66 N70 1.370 . S
N67 C65 1.348 . S
N67 C69 1.346 . S
C68 C65 1.485 . S
C68 H72 0.960 . S
C68 H73 0.961 . S
C68 H74 0.960 . S
C69 N67 1.346 . S
C69 N70 1.307 . S
C69 C71 1.486 . S
N70 N66 1.370 . S
N70 C69 1.307 . S
C71 C69 1.486 . S
C71 H75 0.960 . S
C71 H76 0.960 . S
C71 H77 0.959 . S
H72 C68 0.960 . S
H73 C68 0.961 . S
H74 C68 0.960 . S
H75 C71 0.960 . S
H76 C71 0.960 . S
H77 C71 0.959 . S
C78 N79 1.317 . S
C78 N80 1.348 . S
C78 C81 1.485 . S
N79 C78 1.317 . S
N79 N83 1.370 . S
N80 C78 1.348 . S
N80 C82 1.346 . S
C81 C78 1.485 . S
C81 H85 0.960 . S
C81 H86 0.961 . S
C81 H87 0.960 . S
C82 N80 1.346 . S
C82 N83 1.307 . S
C82 C84 1.486 . S
N83 N79 1.370 . S
N83 C82 1.307 . S
C84 C82 1.486 . S
C84 H88 0.960 . S
C84 H89 0.960 1_554 S
C84 H90 0.959 . S
H85 C81 0.960 . S
H86 C81 0.961 . S
H87 C81 0.960 . S
H88 C84 0.960 . S
H89 C84 0.960 1_556 S
H90 C84 0.959 . S
C91 N92 1.317 . S
C91 N93 1.348 . S
C91 C94 1.485 . S
N92 C91 1.317 . S
N92 N96 1.370 . S
N93 C91 1.348 . S
N93 C95 1.346 . S
C94 C91 1.485 . S
C94 H98 0.960 1_455 S
C94 H99 0.961 . S
C94 H100 0.960 . S
C95 N93 1.346 . S
C95 N96 1.307 . S
C95 C97 1.486 . S
N96 N92 1.370 . S
N96 C95 1.307 . S
C97 C95 1.486 . S
C97 H101 0.960 . S
C97 H102 0.960 . S
C97 H103 0.959 . S
H98 C94 0.960 1_655 S
H99 C94 0.961 . S
H100 C94 0.960 . S
H101 C97 0.960 . S
H102 C97 0.960 . S
H103 C97 0.959 . S
O104 Zn105 1.953 . S
O104 C120 1.225 . S
Zn105 O104 1.953 . S
Zn105 O106 1.949 . S
Zn105 O112 1.919 1_455 S
Zn105 O117 1.924 1_455 S
O106 Zn105 1.949 . S
O106 Zn107 1.923 1_545 S
O106 Zn108 1.950 . S
O106 Zn109 1.945 1_545 S
Zn107 O106 1.923 1_565 S
Zn107 O110 1.933 . S
Zn107 O113 1.941 1_465 S
Zn107 O114 1.965 1_565 S
Zn108 O106 1.950 . S
Zn108 O115 1.938 . S
Zn108 O116 1.896 1_545 S
Zn108 O126 1.953 . S
Zn109 O106 1.945 1_565 S
Zn109 O111 1.932 . S
Zn109 O118 1.977 . S
Zn109 O119 1.910 . S
O110 Zn107 1.933 . S
O110 C121 1.226 . S
O111 Zn109 1.932 . S
O111 C121 1.307 . S
O112 Zn105 1.919 1_655 S
O112 C123 1.253 . S
O113 Zn107 1.941 1_645 S
O113 C123 1.283 . S
O114 Zn107 1.965 1_545 S
O114 C122 1.303 . S
O115 Zn108 1.938 . S
O115 C122 1.247 . S
O116 Zn108 1.896 1_565 S
O116 C124 1.318 . S
O117 Zn105 1.924 1_655 S
O117 C125 1.311 1_645 S
O118 Zn109 1.977 . S
O118 C124 1.272 . S
O119 Zn109 1.910 . S
O119 C125 1.231 . S
C120 O104 1.225 . S
C120 O126 1.298 . S
C121 O110 1.226 . S
C121 O111 1.307 . S
C122 O114 1.303 . S
C122 O115 1.247 . S
C123 O112 1.253 . S
C123 O113 1.283 . S
C124 O116 1.318 . S
C124 O118 1.272 . S
C125 O117 1.311 1_465 S
C125 O119 1.231 . S
O126 Zn108 1.953 . S
O126 C120 1.298 . S
O127 Zn128 1.956 . S
O127 C143 1.225 1_556 S
Zn128 O127 1.956 . S
Zn128 O129 1.939 1_556 S
Zn128 O135 1.931 . S
Zn128 O140 1.919 1_556 S
O129 Zn128 1.939 1_554 S
O129 Zn130 1.923 1_545 S
O129 Zn131 1.950 . S
O129 Zn132 1.946 . S
Zn130 O129 1.923 1_565 S
Zn130 O133 1.933 . S
Zn130 O136 1.941 1_554 S
Zn130 O137 1.965 . S
Zn131 O129 1.950 . S
Zn131 O138 1.938 . S
Zn131 O139 1.906 . S
Zn131 O149 1.953 . S
Zn132 O129 1.946 . S
Zn132 O134 1.924 1_545 S
Zn132 O141 1.979 . S
Zn132 O142 1.915 . S
O133 Zn130 1.933 . S
O133 C144 1.226 . S
O134 Zn132 1.924 1_565 S
O134 C144 1.307 . S
O135 Zn128 1.931 . S
O135 C146 1.253 1_545 S
O136 Zn130 1.941 1_556 S
O136 C146 1.283 . S
O137 Zn130 1.965 . S
O137 C145 1.303 1_565 S
O138 Zn131 1.938 . S
O138 C145 1.247 . S
O139 Zn131 1.906 . S
O139 C147 1.304 . S
O140 Zn128 1.919 1_554 S
O140 C148 1.311 . S
O141 Zn132 1.979 . S
O141 C147 1.272 . S
O142 Zn132 1.915 . S
O142 C148 1.231 . S
C143 O127 1.225 1_554 S
C143 O149 1.298 . S
C144 O133 1.226 . S
C144 O134 1.307 . S
C145 O137 1.303 1_545 S
C145 O138 1.247 . S
C146 O135 1.253 1_565 S
C146 O136 1.283 . S
C147 O139 1.304 . S
C147 O141 1.272 . S
C148 O140 1.311 . S
C148 O142 1.231 . S
O149 Zn131 1.953 . S
O149 C143 1.298 . S
O150 Zn151 1.953 . S
O150 C166 1.225 . S
Zn151 O150 1.953 . S
Zn151 O152 1.949 . S
Zn151 O158 1.919 . S
Zn151 O163 1.924 . S
O152 Zn151 1.949 . S
O152 Zn153 1.923 . S
O152 Zn154 1.950 . S
O152 Zn155 1.945 . S
Zn153 O152 1.923 . S
Zn153 O156 1.933 . S
Zn153 O159 1.941 . S
Zn153 O160 1.965 . S
Zn154 O152 1.950 . S
Zn154 O161 1.938 . S
Zn154 O162 1.906 . S
Zn154 O172 1.953 . S
Zn155 O152 1.945 . S
Zn155 O157 1.932 . S
Zn155 O164 1.977 . S
Zn155 O165 1.910 . S
O156 Zn153 1.933 . S
O156 C167 1.226 . S
O157 Zn155 1.932 . S
O157 C167 1.307 . S
O158 Zn151 1.919 . S
O158 C169 1.253 . S
O159 Zn153 1.941 . S
O159 C169 1.283 . S
O160 Zn153 1.965 . S
O160 C168 1.303 . S
O161 Zn154 1.938 . S
O161 C168 1.247 . S
O162 Zn154 1.906 . S
O162 C170 1.304 . S
O163 Zn151 1.924 . S
O163 C171 1.311 . S
O164 Zn155 1.977 . S
O164 C170 1.272 . S
O165 Zn155 1.910 . S
O165 C171 1.231 . S
C166 O150 1.225 . S
C166 O172 1.298 . S
C167 O156 1.226 . S
C167 O157 1.307 . S
C168 O160 1.303 . S
C168 O161 1.247 . S
C169 O158 1.253 . S
C169 O159 1.283 . S
C170 O162 1.304 . S
C170 O164 1.272 . S
C171 O163 1.311 . S
C171 O165 1.231 . S
O172 Zn154 1.953 . S
O172 C166 1.298 . S
O173 Zn174 1.953 . S
O173 C189 1.225 . S
Zn174 O173 1.953 . S
Zn174 O175 1.949 1_655 S
Zn174 O181 1.919 . S
Zn174 O186 1.924 . S
O175 Zn174 1.949 1_455 S
O175 Zn176 1.923 1_454 S
O175 Zn177 1.950 . S
O175 Zn178 1.945 1_554 S
Zn176 O175 1.923 1_656 S
Zn176 O179 1.933 1_655 S
Zn176 O182 1.941 . S
Zn176 O183 1.965 . S
Zn177 O175 1.950 . S
Zn177 O184 1.938 . S
Zn177 O185 1.906 . S
Zn177 O195 1.953 . S
Zn178 O175 1.945 1_556 S
Zn178 O180 1.932 . S
Zn178 O187 1.977 1_556 S
Zn178 O188 1.910 1_556 S
O179 Zn176 1.933 1_455 S
O179 C190 1.226 . S
O180 Zn178 1.932 . S
O180 C190 1.307 . S
O181 Zn174 1.919 . S
O181 C192 1.253 1_554 S
O182 Zn176 1.941 . S
O182 C192 1.283 . S
O183 Zn176 1.965 . S
O183 C191 1.303 . S
O184 Zn177 1.938 . S
O184 C191 1.247 1_454 S
O185 Zn177 1.906 . S
O185 C193 1.304 . S
O186 Zn174 1.924 . S
O186 C194 1.311 1_655 S
O187 Zn178 1.977 1_554 S
O187 C193 1.272 . S
O188 Zn178 1.910 1_554 S
O188 C194 1.231 . S
C189 O173 1.225 . S
C189 O195 1.298 1_655 S
C190 O179 1.226 . S
C190 O180 1.307 . S
C191 O183 1.303 . S
C191 O184 1.247 1_656 S
C192 O181 1.253 1_556 S
C192 O182 1.283 . S
C193 O185 1.304 . S
C193 O187 1.272 . S
C194 O186 1.311 1_455 S
C194 O188 1.231 . S
O195 Zn177 1.953 . S
O195 C189 1.298 1_455 S
C196 C197 1.369 . S
C196 C198 1.419 . S
C196 H200 0.930 . S
C197 C196 1.369 . S
C197 C206 1.429 . S
C198 C196 1.419 . S
C198 C199 1.363 . S
C198 H201 0.929 . S
C199 C198 1.363 . S
C199 C205 1.428 . S
H200 C196 0.930 . S
H201 C198 0.929 . S
S202 N203 1.613 1_655 S
S202 N204 1.610 1_655 S
N203 S202 1.613 1_455 S
N203 C206 1.350 . S
N204 S202 1.610 1_455 S
N204 C205 1.351 . S
C205 C199 1.428 . S
C205 N204 1.351 . S
C205 C206 1.434 . S
C206 C197 1.429 . S
C206 N203 1.350 . S
C206 C205 1.434 . S
C207 C208 1.369 . S
C207 C209 1.419 . S
C207 H211 0.930 . S
C208 C207 1.369 . S
C208 C217 1.429 . S
C209 C207 1.419 . S
C209 C210 1.363 . S
C209 H212 0.929 . S
C210 C209 1.363 . S
C210 C216 1.428 . S
H211 C207 0.930 . S
H212 C209 0.929 . S
S213 N214 1.613 . S
S213 N215 1.610 . S
N214 S213 1.613 . S
N214 C217 1.350 . S
N215 S213 1.610 . S
N215 C216 1.351 . S
C216 C210 1.428 . S
C216 N215 1.351 . S
C216 C217 1.434 . S
C217 C208 1.429 . S
C217 N214 1.350 . S
C217 C216 1.434 . S
C218 C219 1.369 . S
C218 C220 1.419 . S
C218 H222 0.930 . S
C219 C218 1.369 . S
C219 C228 1.429 . S
C220 C218 1.419 . S
C220 C221 1.363 . S
C220 H223 0.929 . S
C221 C220 1.363 . S
C221 C227 1.428 . S
H222 C218 0.930 . S
H223 C220 0.929 . S
S224 N225 1.613 . S
S224 N226 1.610 . S
N225 S224 1.613 . S
N225 C228 1.350 . S
N226 S224 1.610 . S
N226 C227 1.351 . S
C227 C221 1.428 . S
C227 N226 1.351 . S
C227 C228 1.434 . S
C228 C219 1.429 . S
C228 N225 1.350 . S
C228 C227 1.434 . S
C229 C230 1.369 . S
C229 C231 1.419 . S
C229 H233 0.930 . S
C230 C229 1.369 . S
C230 C239 1.429 . S
C231 C229 1.419 . S
C231 C232 1.363 . S
C231 H234 0.929 . S
C232 C231 1.363 . S
C232 C238 1.428 . S
H233 C229 0.930 . S
H234 C231 0.929 . S
S235 N236 1.613 1_455 S
S235 N237 1.610 . S
N236 S235 1.613 1_655 S
N236 C239 1.350 . S
N237 S235 1.610 . S
N237 C238 1.351 1_455 S
C238 C232 1.428 . S
C238 N237 1.351 1_655 S
C238 C239 1.434 . S
C239 C230 1.429 . S
C239 N236 1.350 . S
C239 C238 1.434 . S
C240 C241 1.369 . S
C240 C242 1.419 . S
C240 H244 0.930 . S
C241 C240 1.369 . S
C241 C250 1.429 . S
C242 C240 1.419 . S
C242 C243 1.363 . S
C242 H245 0.929 . S
C243 C242 1.363 . S
C243 C249 1.428 . S
H244 C240 0.930 . S
H245 C242 0.929 . S
S246 N247 1.613 1_556 S
S246 N248 1.603 1_556 S
N247 S246 1.613 1_554 S
N247 C250 1.350 . S
N248 S246 1.603 1_554 S
N248 C249 1.372 . S
C249 C243 1.428 . S
C249 N248 1.372 . S
C249 C250 1.434 . S
C250 C241 1.429 . S
C250 N247 1.350 . S
C250 C249 1.434 . S
C251 C252 1.369 . S
C251 C253 1.419 . S
C251 H255 0.930 . S
C252 C251 1.369 . S
C252 C261 1.429 . S
C253 C251 1.419 . S
C253 C254 1.363 . S
C253 H256 0.929 . S
C254 C253 1.363 . S
C254 C260 1.428 . S
H255 C251 0.930 . S
H256 C253 0.929 . S
S257 N258 1.613 . S
S257 N259 1.610 . S
N258 S257 1.613 . S
N258 C261 1.350 . S
N259 S257 1.610 . S
N259 C260 1.351 . S
C260 C254 1.428 . S
C260 N259 1.351 . S
C260 C261 1.434 . S
C261 C252 1.429 . S
C261 N258 1.350 . S
C261 C260 1.434 . S
C262 C263 1.369 . S
C262 C264 1.419 . S
C262 H266 0.930 . S
C263 C262 1.369 . S
C263 C272 1.429 . S
C264 C262 1.419 . S
C264 C265 1.363 . S
C264 H267 0.929 . S
C265 C264 1.363 . S
C265 C271 1.428 . S
H266 C262 0.930 . S
H267 C264 0.929 . S
S268 N269 1.613 . S
S268 N270 1.610 . S
N269 S268 1.613 . S
N269 C272 1.350 1_554 S
N270 S268 1.610 . S
N270 C271 1.351 1_554 S
C271 C265 1.428 . S
C271 N270 1.351 1_556 S
C271 C272 1.434 . S
C272 C263 1.429 . S
C272 N269 1.350 1_556 S
C272 C271 1.434 . S
C273 C274 1.369 . S
C273 C275 1.419 . S
C273 H277 0.930 . S
C274 C273 1.369 . S
C274 C283 1.429 . S
C275 C273 1.419 . S
C275 C276 1.363 . S
C275 H278 0.929 . S
C276 C275 1.363 . S
C276 C282 1.428 . S
H277 C273 0.930 . S
H278 C275 0.929 . S
S279 N280 1.613 . S
S279 N281 1.610 . S
N280 S279 1.613 . S
N280 C283 1.350 . S
N281 S279 1.610 . S
N281 C282 1.351 . S
C282 C276 1.428 . S
C282 N281 1.351 . S
C282 C283 1.434 . S
C283 C274 1.429 . S
C283 N280 1.350 . S
C283 C282 1.434 . S
C284 C285 1.369 . S
C284 C286 1.419 . S
C284 H288 0.930 . S
C285 C284 1.369 . S
C285 C294 1.429 . S
C286 C284 1.419 . S
C286 C287 1.363 . S
C286 H289 0.929 . S
C287 C286 1.363 . S
C287 C293 1.428 . S
H288 C284 0.930 . S
H289 C286 0.929 . S
S290 N291 1.613 1_556 S
S290 N292 1.610 . S
N291 S290 1.613 1_554 S
N291 C294 1.350 . S
N292 S290 1.610 . S
N292 C293 1.351 1_556 S
C293 C287 1.428 . S
C293 N292 1.351 1_554 S
C293 C294 1.434 . S
C294 C285 1.429 . S
C294 N291 1.350 . S
C294 C293 1.434 . S
C295 C296 1.369 . S
C295 C297 1.419 1_556 S
C295 H299 0.930 . S
C296 C295 1.369 . S
C296 C305 1.429 . S
C297 C295 1.419 1_554 S
C297 C298 1.363 1_554 S
C297 H300 0.929 . S
C298 C297 1.363 1_556 S
C298 C304 1.428 . S
H299 C295 0.930 . S
H300 C297 0.929 . S
S301 N302 1.613 . S
S301 N303 1.610 . S
N302 S301 1.613 . S
N302 C305 1.350 . S
N303 S301 1.610 . S
N303 C304 1.351 . S
C304 C298 1.428 . S
C304 N303 1.351 . S
C304 C305 1.434 . S
C305 C296 1.429 . S
C305 N302 1.350 . S
C305 C304 1.434 . S
C306 C307 1.369 . S
C306 C308 1.419 . S
C306 H310 0.930 . S
C307 C306 1.369 . S
C307 C316 1.429 . S
C308 C306 1.419 . S
C308 C309 1.363 . S
C308 H311 0.929 1_655 S
C309 C308 1.363 . S
C309 C315 1.428 . S
H310 C306 0.930 . S
H311 C308 0.929 1_455 S
S312 N313 1.613 . S
S312 N314 1.610 . S
N313 S312 1.613 . S
N313 C316 1.350 . S
N314 S312 1.610 . S
N314 C315 1.351 . S
C315 C309 1.428 . S
C315 N314 1.351 . S
C315 C316 1.434 . S
C316 C307 1.429 . S
C316 N313 1.350 . S
C316 C315 1.434 . S
C317 C318 1.369 . S
C317 C319 1.419 . S
C317 H321 0.930 . S
C318 C317 1.369 . S
C318 C327 1.429 . S
C319 C317 1.419 . S
C319 C320 1.363 . S
C319 H322 0.929 . S
C320 C319 1.363 . S
C320 C326 1.428 . S
H321 C317 0.930 . S
H322 C319 0.929 . S
S323 N324 1.613 . S
S323 N325 1.610 . S
N324 S323 1.613 . S
N324 C327 1.350 . S
N325 S323 1.610 . S
N325 C326 1.351 . S
C326 C320 1.428 . S
C326 N325 1.351 . S
C326 C327 1.434 . S
C327 C318 1.429 . S
C327 N324 1.350 . S
C327 C326 1.434 . S
C328 C329 1.369 1_455 S
C328 C330 1.419 . S
C328 H332 0.930 . S
C329 C328 1.369 1_655 S
C329 C338 1.429 . S
C330 C328 1.419 . S
C330 C331 1.363 1_455 S
C330 H333 0.929 . S
C331 C330 1.363 1_655 S
C331 C337 1.428 . S
H332 C328 0.930 . S
H333 C330 0.929 . S
S334 N335 1.613 . S
S334 N336 1.610 . S
N335 S334 1.613 . S
N335 C338 1.350 . S
N336 S334 1.610 . S
N336 C337 1.351 . S
C337 C331 1.428 . S
C337 N336 1.351 . S
C337 C338 1.434 . S
C338 C329 1.429 . S
C338 N335 1.350 . S
C338 C337 1.434 . S
C339 C340 1.369 . S
C339 C341 1.419 1_545 S
C339 H343 0.930 1_545 S
C340 C339 1.369 . S
C340 C349 1.429 . S
C341 C339 1.419 1_565 S
C341 C342 1.363 1_565 S
C341 H344 0.929 . S
C342 C341 1.363 1_545 S
C342 C348 1.428 . S
H343 C339 0.930 1_565 S
H344 C341 0.929 . S
S345 N346 1.613 . S
S345 N347 1.610 . S
N346 S345 1.613 . S
N346 C349 1.350 . S
N347 S345 1.610 . S
N347 C348 1.351 . S
C348 C342 1.428 . S
C348 N347 1.351 . S
C348 C349 1.434 . S
C349 C340 1.429 . S
C349 N346 1.350 . S
C349 C348 1.434 . S
C350 C351 1.369 . S
C350 C352 1.419 . S
C350 H354 0.930 . S
C351 C350 1.369 . S
C351 C360 1.429 . S
C352 C350 1.419 . S
C352 C353 1.363 . S
C352 H355 0.929 . S
C353 C352 1.363 . S
C353 C359 1.428 . S
H354 C350 0.930 . S
H355 C352 0.929 . S
S356 N357 1.613 . S
S356 N358 1.610 . S
N357 S356 1.613 . S
N357 C360 1.350 . S
N358 S356 1.610 . S
N358 C359 1.351 . S
C359 C353 1.428 . S
C359 N358 1.351 . S
C359 C360 1.434 . S
C360 C351 1.429 . S
C360 N357 1.350 . S
C360 C359 1.434 . S
C361 C362 1.369 . S
C361 C363 1.419 . S
C361 H365 0.930 . S
C362 C361 1.369 . S
C362 C371 1.429 . S
C363 C361 1.419 . S
C363 C364 1.363 . S
C363 H366 0.929 . S
C364 C363 1.363 . S
C364 C370 1.428 . S
H365 C361 0.930 . S
H366 C363 0.929 . S
S367 N368 1.613 . S
S367 N369 1.610 . S
N368 S367 1.613 . S
N368 C371 1.350 . S
N369 S367 1.610 . S
N369 C370 1.351 . S
C370 C364 1.428 . S
C370 N369 1.351 . S
C370 C371 1.434 . S
C371 C362 1.429 . S
C371 N368 1.350 . S
C371 C370 1.434 . S
C372 C373 1.369 1_544 S
C372 C374 1.419 . S
C372 H376 0.930 . S
C373 C372 1.369 1_566 S
C373 C382 1.429 . S
C374 C372 1.419 . S
C374 C375 1.363 . S
C374 H377 0.929 . S
C375 C374 1.363 . S
C375 C381 1.428 1_544 S
H376 C372 0.930 . S
H377 C374 0.929 . S
S378 N379 1.613 . S
S378 N380 1.610 . S
N379 S378 1.613 . S
N379 C382 1.350 . S
N380 S378 1.610 . S
N380 C381 1.351 . S
C381 C375 1.428 1_566 S
C381 N380 1.351 . S
C381 C382 1.434 . S
C382 C373 1.429 . S
C382 N379 1.350 . S
C382 C381 1.434 . S
C383 C384 1.369 . S
C383 C385 1.419 . S
C383 H387 0.930 . S
C384 C383 1.369 . S
C384 C393 1.429 . S
C385 C383 1.419 . S
C385 C386 1.363 . S
C385 H388 0.929 1_545 S
C386 C385 1.363 . S
C386 C392 1.428 . S
H387 C383 0.930 . S
H388 C385 0.929 1_565 S
S389 N390 1.613 . S
S389 N391 1.610 . S
N390 S389 1.613 . S
N390 C393 1.350 . S
N391 S389 1.610 . S
N391 C392 1.351 . S
C392 C386 1.428 . S
C392 N391 1.351 . S
C392 C393 1.434 . S
C393 C384 1.429 . S
C393 N390 1.350 . S
C393 C392 1.434 . S
C394 C395 1.369 . S
C394 C396 1.419 . S
C394 H398 0.930 . S
C395 C394 1.369 . S
C395 C404 1.429 . S
C396 C394 1.419 . S
C396 C397 1.363 . S
C396 H399 0.929 . S
C397 C396 1.363 . S
C397 C403 1.428 . S
H398 C394 0.930 . S
H399 C396 0.929 . S
S400 N401 1.613 1_556 S
S400 N402 1.610 . S
N401 S400 1.613 1_554 S
N401 C404 1.350 . S
N402 S400 1.610 . S
N402 C403 1.351 1_556 S
C403 C397 1.428 . S
C403 N402 1.351 1_554 S
C403 C404 1.434 . S
C404 C395 1.429 . S
C404 N401 1.350 . S
C404 C403 1.434 . S
C405 C406 1.369 . S
C405 C407 1.419 . S
C405 H409 0.930 . S
C406 C405 1.369 . S
C406 C415 1.429 . S
C407 C405 1.419 . S
C407 C408 1.363 . S
C407 H410 0.929 . S
C408 C407 1.363 . S
C408 C414 1.428 . S
H409 C405 0.930 . S
H410 C407 0.929 . S
S411 N412 1.613 . S
S411 N413 1.610 . S
N412 S411 1.613 . S
N412 C415 1.350 . S
N413 S411 1.610 . S
N413 C414 1.351 . S
C414 C408 1.428 . S
C414 N413 1.351 . S
C414 C415 1.434 . S
C415 C406 1.429 . S
C415 N412 1.350 . S
C415 C414 1.434 . S
C416 C417 1.369 . S
C416 C418 1.419 . S
C416 H420 0.930 . S
C417 C416 1.369 . S
C417 C426 1.429 1_556 S
C418 C416 1.419 . S
C418 C419 1.363 . S
C418 H421 0.929 . S
C419 C418 1.363 . S
C419 C425 1.428 1_556 S
H420 C416 0.930 . S
H421 C418 0.929 . S
S422 N423 1.613 . S
S422 N424 1.610 . S
N423 S422 1.613 . S
N423 C426 1.350 . S
N424 S422 1.610 . S
N424 C425 1.351 . S
C425 C419 1.428 1_554 S
C425 N424 1.351 . S
C425 C426 1.434 . S
C426 C417 1.429 1_554 S
C426 N423 1.350 . S
C426 C425 1.434 . S
C427 C428 1.369 . S
C427 C429 1.419 . S
C427 H431 0.930 . S
C428 C427 1.369 . S
C428 C437 1.429 . S
C429 C427 1.419 . S
C429 C430 1.363 . S
C429 H432 0.929 . S
C430 C429 1.363 . S
C430 C436 1.428 . S
H431 C427 0.930 . S
H432 C429 0.929 . S
S433 N434 1.613 . S
S433 N435 1.610 . S
N434 S433 1.613 . S
N434 C437 1.350 . S
N435 S433 1.610 . S
N435 C436 1.351 . S
C436 C430 1.428 . S
C436 N435 1.351 . S
C436 C437 1.434 . S
C437 C428 1.429 . S
C437 N434 1.350 . S
C437 C436 1.434 . S
C438 C439 1.369 . S
C438 C440 1.419 . S
C438 H442 0.930 . S
C439 C438 1.369 . S
C439 C448 1.429 . S
C440 C438 1.419 . S
C440 C441 1.363 . S
C440 H443 0.929 . S
C441 C440 1.363 . S
C441 C447 1.428 . S
H442 C438 0.930 . S
H443 C440 0.929 . S
S444 N445 1.613 1_655 S
S444 N446 1.610 1_655 S
N445 S444 1.613 1_455 S
N445 C448 1.350 . S
N446 S444 1.610 1_455 S
N446 C447 1.351 . S
C447 C441 1.428 . S
C447 N446 1.351 . S
C447 C448 1.434 . S
C448 C439 1.429 . S
C448 N445 1.350 . S
C448 C447 1.434 . S
C449 C450 1.369 . S
C449 C451 1.419 . S
C449 H453 0.930 . S
C450 C449 1.369 . S
C450 C459 1.429 . S
C451 C449 1.419 . S
C451 C452 1.363 . S
C451 H454 0.929 . S
C452 C451 1.363 . S
C452 C458 1.428 . S
H453 C449 0.930 . S
H454 C451 0.929 . S
S455 N456 1.613 . S
S455 N457 1.610 . S
N456 S455 1.613 . S
N456 C459 1.350 . S
N457 S455 1.610 . S
N457 C458 1.351 . S
C458 C452 1.428 . S
C458 N457 1.351 . S
C458 C459 1.434 . S
C459 C450 1.429 . S
C459 N456 1.350 . S
C459 C458 1.434 . S
C197 N1 1.510 . S
C199 C122 1.526 . S
C208 N18 1.795 . S
C210 C146 1.784 . S
C221 C166 1.146 . S
C219 N28 1.141 . S
C230 N40 1.556 . S
C232 C189 1.596 . S
C243 C148 1.860 . S
C241 N5 1.862 . S
C254 C124 1.655 . S
C252 N14 1.665 . S
C265 C192 1.532 . S
C263 N31 1.530 . S
C276 C169 1.280 . S
C274 N41 1.333 . S
C285 N2 1.453 . S
C287 C194 1.393 . S
C298 C143 1.650 1_556 S
C296 N27 1.619 . S
C307 N44 1.642 . S
C309 C121 1.674 1_655 S
C318 N15 1.342 . S
C320 C171 1.321 . S
C331 C125 1.771 1_655 S
C329 N57 1.764 . S
C340 N70 1.387 . S
C342 C147 1.424 . S
C351 N79 1.545 . S
C353 C167 1.624 . S
C362 N93 1.501 . S
C364 C190 1.529 . S
C373 N54 1.446 . S
C375 C145 1.446 . S
C386 C123 1.870 . S
C384 N66 1.837 . S
C397 C193 1.135 . S
C395 N80 1.160 . S
C408 C170 1.505 . S
C406 N96 1.554 . S
C417 N53 1.699 . S
C419 C191 1.687 . S
C430 C144 1.521 . S
C428 N83 1.484 . S
C441 C120 1.655 . S
C439 N92 1.590 . S
C450 N67 1.586 . S
C452 C168 1.604 . S
