# Generated by pormake.
# Topology ctn, (3,4)-cn, num edge types: 1
# Building blocks:
#     Node 0, Type 0, BuildingBlock: BETDAH_clean_linker_0, # of connection points: 3
#     Node 1, Type 0, BuildingBlock: BETDAH_clean_linker_0, # of connection points: 3
#     Node 2, Type 0, BuildingBlock: BETDAH_clean_linker_0, # of connection points: 3
#     Node 3, Type 0, BuildingBlock: BETDAH_clean_linker_0, # of connection points: 3
#     Node 4, Type 0, BuildingBlock: BETDAH_clean_linker_0, # of connection points: 3
#     Node 5, Type 0, BuildingBlock: BETDAH_clean_linker_0, # of connection points: 3
#     Node 6, Type 0, BuildingBlock: BETDAH_clean_linker_0, # of connection points: 3
#     Node 7, Type 0, BuildingBlock: BETDAH_clean_linker_0, # of connection points: 3
#     Node 8, Type 0, BuildingBlock: BETDAH_clean_linker_0, # of connection points: 3
#     Node 9, Type 0, BuildingBlock: BETDAH_clean_linker_0, # of connection points: 3
#     Node 10, Type 0, BuildingBlock: BETDAH_clean_linker_0, # of connection points: 3
#     Node 11, Type 0, BuildingBlock: BETDAH_clean_linker_0, # of connection points: 3
#     Node 12, Type 0, BuildingBlock: BETDAH_clean_linker_0, # of connection points: 3
#     Node 13, Type 0, BuildingBlock: BETDAH_clean_linker_0, # of connection points: 3
#     Node 14, Type 0, BuildingBlock: BETDAH_clean_linker_0, # of connection points: 3
#     Node 15, Type 0, BuildingBlock: BETDAH_clean_linker_0, # of connection points: 3
#     Node 16, Type 1, BuildingBlock: NAHDIM_clean_sbu_0, # of connection points: 4
#     Node 17, Type 1, BuildingBlock: NAHDIM_clean_sbu_0, # of connection points: 4
#     Node 18, Type 1, BuildingBlock: NAHDIM_clean_sbu_0, # of connection points: 4
#     Node 19, Type 1, BuildingBlock: NAHDIM_clean_sbu_0, # of connection points: 4
#     Node 20, Type 1, BuildingBlock: NAHDIM_clean_sbu_0, # of connection points: 4
#     Node 21, Type 1, BuildingBlock: NAHDIM_clean_sbu_0, # of connection points: 4
#     Node 22, Type 1, BuildingBlock: NAHDIM_clean_sbu_0, # of connection points: 4
#     Node 23, Type 1, BuildingBlock: NAHDIM_clean_sbu_0, # of connection points: 4
#     Node 24, Type 1, BuildingBlock: NAHDIM_clean_sbu_0, # of connection points: 4
#     Node 25, Type 1, BuildingBlock: NAHDIM_clean_sbu_0, # of connection points: 4
#     Node 26, Type 1, BuildingBlock: NAHDIM_clean_sbu_0, # of connection points: 4
#     Node 27, Type 1, BuildingBlock: NAHDIM_clean_sbu_0, # of connection points: 4
#     Edge 28, Type (0, 1), BuildingBlock: KIFKEQ_clean_linker_1, # of connection points: 2
#     Edge 29, Type (0, 1), BuildingBlock: KIFKEQ_clean_linker_1, # of connection points: 2
#     Edge 30, Type (0, 1), BuildingBlock: KIFKEQ_clean_linker_1, # of connection points: 2
#     Edge 31, Type (0, 1), BuildingBlock: KIFKEQ_clean_linker_1, # of connection points: 2
#     Edge 32, Type (0, 1), BuildingBlock: KIFKEQ_clean_linker_1, # of connection points: 2
#     Edge 33, Type (0, 1), BuildingBlock: KIFKEQ_clean_linker_1, # of connection points: 2
#     Edge 34, Type (0, 1), BuildingBlock: KIFKEQ_clean_linker_1, # of connection points: 2
#     Edge 35, Type (0, 1), BuildingBlock: KIFKEQ_clean_linker_1, # of connection points: 2
#     Edge 36, Type (0, 1), BuildingBlock: KIFKEQ_clean_linker_1, # of connection points: 2
#     Edge 37, Type (0, 1), BuildingBlock: KIFKEQ_clean_linker_1, # of connection points: 2
#     Edge 38, Type (0, 1), BuildingBlock: KIFKEQ_clean_linker_1, # of connection points: 2
#     Edge 39, Type (0, 1), BuildingBlock: KIFKEQ_clean_linker_1, # of connection points: 2
#     Edge 40, Type (0, 1), BuildingBlock: KIFKEQ_clean_linker_1, # of connection points: 2
#     Edge 41, Type (0, 1), BuildingBlock: KIFKEQ_clean_linker_1, # of connection points: 2
#     Edge 42, Type (0, 1), BuildingBlock: KIFKEQ_clean_linker_1, # of connection points: 2
#     Edge 43, Type (0, 1), BuildingBlock: KIFKEQ_clean_linker_1, # of connection points: 2
#     Edge 44, Type (0, 1), BuildingBlock: KIFKEQ_clean_linker_1, # of connection points: 2
#     Edge 45, Type (0, 1), BuildingBlock: KIFKEQ_clean_linker_1, # of connection points: 2
#     Edge 46, Type (0, 1), BuildingBlock: KIFKEQ_clean_linker_1, # of connection points: 2
#     Edge 47, Type (0, 1), BuildingBlock: KIFKEQ_clean_linker_1, # of connection points: 2
#     Edge 48, Type (0, 1), BuildingBlock: KIFKEQ_clean_linker_1, # of connection points: 2
#     Edge 49, Type (0, 1), BuildingBlock: KIFKEQ_clean_linker_1, # of connection points: 2
#     Edge 50, Type (0, 1), BuildingBlock: KIFKEQ_clean_linker_1, # of connection points: 2
#     Edge 51, Type (0, 1), BuildingBlock: KIFKEQ_clean_linker_1, # of connection points: 2
#     Edge 52, Type (0, 1), BuildingBlock: KIFKEQ_clean_linker_1, # of connection points: 2
#     Edge 53, Type (0, 1), BuildingBlock: KIFKEQ_clean_linker_1, # of connection points: 2
#     Edge 54, Type (0, 1), BuildingBlock: KIFKEQ_clean_linker_1, # of connection points: 2
#     Edge 55, Type (0, 1), BuildingBlock: KIFKEQ_clean_linker_1, # of connection points: 2
#     Edge 56, Type (0, 1), BuildingBlock: KIFKEQ_clean_linker_1, # of connection points: 2
#     Edge 57, Type (0, 1), BuildingBlock: KIFKEQ_clean_linker_1, # of connection points: 2
#     Edge 58, Type (0, 1), BuildingBlock: KIFKEQ_clean_linker_1, # of connection points: 2
#     Edge 59, Type (0, 1), BuildingBlock: KIFKEQ_clean_linker_1, # of connection points: 2
#     Edge 60, Type (0, 1), BuildingBlock: KIFKEQ_clean_linker_1, # of connection points: 2
#     Edge 61, Type (0, 1), BuildingBlock: KIFKEQ_clean_linker_1, # of connection points: 2
#     Edge 62, Type (0, 1), BuildingBlock: KIFKEQ_clean_linker_1, # of connection points: 2
#     Edge 63, Type (0, 1), BuildingBlock: KIFKEQ_clean_linker_1, # of connection points: 2
#     Edge 64, Type (0, 1), BuildingBlock: KIFKEQ_clean_linker_1, # of connection points: 2
#     Edge 65, Type (0, 1), BuildingBlock: KIFKEQ_clean_linker_1, # of connection points: 2
#     Edge 66, Type (0, 1), BuildingBlock: KIFKEQ_clean_linker_1, # of connection points: 2
#     Edge 67, Type (0, 1), BuildingBlock: KIFKEQ_clean_linker_1, # of connection points: 2
#     Edge 68, Type (0, 1), BuildingBlock: KIFKEQ_clean_linker_1, # of connection points: 2
#     Edge 69, Type (0, 1), BuildingBlock: KIFKEQ_clean_linker_1, # of connection points: 2
#     Edge 70, Type (0, 1), BuildingBlock: KIFKEQ_clean_linker_1, # of connection points: 2
#     Edge 71, Type (0, 1), BuildingBlock: KIFKEQ_clean_linker_1, # of connection points: 2
#     Edge 72, Type (0, 1), BuildingBlock: KIFKEQ_clean_linker_1, # of connection points: 2
#     Edge 73, Type (0, 1), BuildingBlock: KIFKEQ_clean_linker_1, # of connection points: 2
#     Edge 74, Type (0, 1), BuildingBlock: KIFKEQ_clean_linker_1, # of connection points: 2
#     Edge 75, Type (0, 1), BuildingBlock: KIFKEQ_clean_linker_1, # of connection points: 2
# Relax obj value: 0.049
# Max RMSD: 0.160
# Mean RMSD: 0.101
data_MOF--net-ctn--node1-NAHDIM_clean_sbu_0--node2-BETDAH_clean_linker_0--edge1-KIFKEQ_clean_linker_1
_symmetry_space_group_name_H-M    P1
_symmetry_Int_Tables_number       1
_symmetry_cell_setting            triclinic
loop_
_symmetry_equiv_pos_as_xyz
'x, y, z'
_cell_length_a     54.786523
_cell_length_b     54.895701
_cell_length_c     55.230145
_cell_angle_alpha  100.10557
_cell_angle_beta   90.279825
_cell_angle_gamma 96.828257
loop_
_atom_site_label
_atom_site_type_symbol
_atom_site_fract_x
_atom_site_fract_y
_atom_site_fract_z
_atom_type_partial_charge
H0 H 0.06787 0.0307 0.08271 0.0
H1 H 0.06689 0.05119 0.01073 0.0
H2 H 0.00581 0.0616 0.05821 0.0
C3 C 0.05927 0.03901 0.06898 0.0
C4 C 0.036 0.04679 0.07348 0.0
C5 C 0.07055 0.04008 0.04626 0.0
C6 C 0.0586 0.05029 0.02837 0.0
C7 C 0.03527 0.05815 0.03284 0.0
C8 C 0.024 0.05593 0.05513 0.0
N9 N 0.02155 0.06616 0.01455 0.0
C10 C 0.03104 0.08268 0.9996 0.0
H11 H 0.32548 0.70792 0.26553 0.0
H12 H 0.35853 0.7721 0.23793 0.0
H13 H 0.2871 0.73649 0.21032 0.0
C14 C 0.32464 0.72144 0.25349 0.0
C15 C 0.30379 0.72004 0.23815 0.0
C16 C 0.34439 0.74015 0.25363 0.0
C17 C 0.34329 0.75759 0.23807 0.0
C18 C 0.32288 0.75641 0.22235 0.0
C19 C 0.30304 0.7375 0.2223 0.0
N20 N 0.32338 0.77464 0.20696 0.0
C21 C 0.30447 0.77782 0.19137 0.0
H22 H 0.03351 0.43849 0.0631 0.0
H23 H 0.00483 0.50436 0.09962 0.0
H24 H 0.97491 0.46749 0.02889 0.0
C25 C 0.02055 0.45201 0.06355 0.0
C26 C 0.00394 0.45028 0.04357 0.0
C27 C 0.02118 0.47153 0.08377 0.0
C28 C 0.00489 0.48939 0.08396 0.0
C29 C 0.98838 0.48821 0.06433 0.0
C30 C 0.98791 0.46867 0.044 0.0
N31 N 0.97253 0.50705 0.06619 0.0
C32 C 0.95601 0.51027 0.04821 0.0
H33 H 0.79072 0.82033 0.18754 0.0
H34 H 0.75132 0.76553 0.22464 0.0
H35 H 0.78133 0.83622 0.26593 0.0
C36 C 0.78371 0.81479 0.20432 0.0
C37 C 0.78717 0.83169 0.22672 0.0
C38 C 0.77104 0.79074 0.20334 0.0
C39 C 0.76087 0.78404 0.22495 0.0
C40 C 0.76457 0.80063 0.2474 0.0
C41 C 0.77803 0.82402 0.24826 0.0
N42 N 0.75638 0.79357 0.26971 0.0
C43 C 0.73217 0.78435 0.27302 0.0
H44 H 0.07665 0.02609 0.45327 0.0
H45 H 0.075 0.98587 0.51387 0.0
H46 H 0.01022 0.98247 0.46877 0.0
C47 C 0.06705 0.01352 0.46412 0.0
C48 C 0.04229 0.00465 0.45825 0.0
C49 C 0.07921 0.00695 0.48413 0.0
C50 C 0.06596 0.99131 0.49854 0.0
C51 C 0.04093 0.98278 0.49307 0.0
C52 C 0.02935 0.98959 0.47309 0.0
N53 N 0.0265 0.96747 0.50715 0.0
C54 C 0.03535 0.95521 0.52469 0.0
H55 H 0.27329 0.71842 0.85085 0.0
H56 H 0.21063 0.74211 0.81815 0.0
H57 H 0.24196 0.67765 0.78195 0.0
C58 C 0.2597 0.716 0.83603 0.0
C59 C 0.25998 0.69616 0.81623 0.0
C60 C 0.24198 0.73271 0.83691 0.0
C61 C 0.22429 0.72932 0.81764 0.0
C62 C 0.22449 0.70947 0.79769 0.0
C63 C 0.24223 0.69308 0.79722 0.0
N64 N 0.20717 0.70505 0.77776 0.0
C65 C 0.19 0.72072 0.77379 0.0
H66 H 0.95365 0.5793 0.52302 0.0
H67 H 0.01994 0.58157 0.4811 0.0
H68 H 0.97038 0.51374 0.47459 0.0
C69 C 0.96548 0.57046 0.50937 0.0
C70 C 0.9592 0.54528 0.49911 0.0
C71 C 0.98754 0.58376 0.50335 0.0
C72 C 0.00295 0.57159 0.486 0.0
C73 C 0.99662 0.54629 0.47554 0.0
C74 C 0.97504 0.53328 0.48252 0.0
N75 N 0.01176 0.53282 0.45868 0.0
C76 C 0.02945 0.54318 0.44428 0.0
H77 H 0.84511 0.75052 0.8128 0.0
H78 H 0.80992 0.80615 0.78404 0.0
H79 H 0.77702 0.7725 0.84234 0.0
C80 C 0.83022 0.76187 0.81295 0.0
C81 C 0.81141 0.75981 0.82994 0.0
C82 C 0.8299 0.77852 0.79619 0.0
C83 C 0.81031 0.79312 0.79662 0.0
C84 C 0.79129 0.79089 0.8134 0.0
C85 C 0.79198 0.77424 0.82973 0.0
N86 N 0.77092 0.80473 0.81454 0.0
C87 C 0.76833 0.82429 0.80221 0.0
H88 H 0.34232 0.2565 0.32334 0.0
H89 H 0.31095 0.30173 0.27779 0.0
H90 H 0.26747 0.27209 0.33252 0.0
C91 C 0.32688 0.26519 0.31799 0.0
C92 C 0.30476 0.26276 0.33065 0.0
C93 C 0.32935 0.27888 0.29859 0.0
C94 C 0.30962 0.29138 0.29281 0.0
C95 C 0.28744 0.28903 0.30534 0.0
C96 C 0.28502 0.2744 0.3237 0.0
N97 N 0.26652 0.29958 0.29874 0.0
C98 C 0.26727 0.32318 0.29269 0.0
H99 H 0.53154 0.93748 0.56031 0.0
H100 H 0.51972 0.01368 0.58579 0.0
H101 H 0.48964 0.97539 0.51558 0.0
C102 C 0.52319 0.95384 0.5578 0.0
C103 C 0.50997 0.95367 0.53584 0.0
C104 C 0.52693 0.97539 0.57594 0.0
C105 C 0.51711 0.99687 0.57197 0.0
C106 C 0.50335 0.99688 0.5506 0.0
C107 C 0.49978 0.97526 0.53243 0.0
N108 N 0.49444 0.01943 0.54766 0.0
C109 C 0.4733 0.02103 0.53435 0.0
H110 H 0.29325 0.32014 0.69147 0.0
H111 H 0.24518 0.26581 0.72202 0.0
H112 H 0.27622 0.33361 0.76822 0.0
C113 C 0.28356 0.3143 0.70693 0.0
C114 C 0.28626 0.32988 0.73007 0.0
C115 C 0.26906 0.29094 0.70377 0.0
C116 C 0.25616 0.28385 0.72394 0.0
C117 C 0.25889 0.29932 0.74715 0.0
C118 C 0.27419 0.32195 0.75016 0.0
N119 N 0.24802 0.29173 0.76824 0.0
C120 C 0.22325 0.2831 0.76926 0.0
H121 H 0.82422 0.19786 0.75196 0.0
H122 H 0.84436 0.24896 0.70228 0.0
H123 H 0.78146 0.19397 0.6856 0.0
C124 C 0.82048 0.20521 0.73554 0.0
C125 C 0.80045 0.1938 0.72 0.0
C126 C 0.83652 0.22512 0.72942 0.0
C127 C 0.83208 0.23386 0.70746 0.0
C128 C 0.81224 0.22235 0.69169 0.0
C129 C 0.79674 0.20244 0.69797 0.0
N130 N 0.80848 0.22885 0.66836 0.0
C131 C 0.80955 0.2531 0.66402 0.0
H132 H 0.58008 0.52864 0.60153 0.0
H133 H 0.57534 0.55027 0.5303 0.0
H134 H 0.51827 0.56328 0.58214 0.0
C135 C 0.57072 0.53717 0.58848 0.0
C136 C 0.54847 0.54658 0.59497 0.0
C137 C 0.58066 0.53827 0.56514 0.0
C138 C 0.56807 0.54931 0.54836 0.0
C139 C 0.54555 0.55834 0.55464 0.0
C140 C 0.53589 0.55671 0.57773 0.0
N141 N 0.53118 0.56757 0.53771 0.0
C142 C 0.54054 0.58213 0.52094 0.0
H143 H 0.57333 0.52121 0.96188 0.0
H144 H 0.57759 0.48371 0.02391 0.0
H145 H 0.50786 0.48463 0.98855 0.0
C146 C 0.56458 0.50997 0.97443 0.0
C147 C 0.53902 0.50338 0.9726 0.0
C148 C 0.57876 0.50312 0.99292 0.0
C149 C 0.56695 0.48917 0.00961 0.0
C150 C 0.54128 0.4827 0.00802 0.0
C151 C 0.52758 0.49 0.98972 0.0
N152 N 0.52828 0.46952 0.02481 0.0
C153 C 0.53825 0.45434 0.03889 0.0
H154 H 0.78252 0.22658 0.35018 0.0
H155 H 0.72241 0.2544 0.31728 0.0
H156 H 0.75821 0.19568 0.27588 0.0
C157 C 0.77015 0.22608 0.33469 0.0
C158 C 0.77232 0.20883 0.31305 0.0
C159 C 0.7522 0.24266 0.33651 0.0
C160 C 0.7364 0.24189 0.3161 0.0
C161 C 0.73862 0.22482 0.29424 0.0
C162 C 0.75652 0.20853 0.29292 0.0
N163 N 0.72344 0.2234 0.27303 0.0
C164 C 0.70359 0.23668 0.27159 0.0
H165 H 0.44314 0.05684 0.03413 0.0
H166 H 0.49583 0.07409 0.98006 0.0
H167 H 0.44291 0.00866 0.9638 0.0
C168 C 0.4509 0.05219 0.01613 0.0
C169 C 0.44078 0.03067 1.0 0.0
C170 C 0.47072 0.06799 0.00912 0.0
C171 C 0.48067 0.06193 0.98566 0.0
C172 C 0.47071 0.04024 0.96943 0.0
C173 C 0.45079 0.02498 0.97667 0.0
N174 N 0.47942 0.03341 0.94534 0.0
C175 C 0.50232 0.04162 0.93706 0.0
C176 C 0.20749 0.93139 0.02106 0.0
O177 O 0.22091 0.92942 1.00132 0.0
O178 O 0.23433 0.87282 1.00102 0.0
Zn179 Zn 0.23977 0.89779 0.03276 0.0
O180 O 0.27074 0.92089 0.02956 0.0
C181 C 0.23505 0.85763 0.06183 0.0
O182 O 0.22157 0.84522 0.0429 0.0
O183 O 0.21173 0.91889 0.03764 0.0
C184 C 0.29175 0.91788 0.03762 0.0
O185 O 0.29381 0.89906 0.04896 0.0
C186 C 0.25047 0.85823 0.99483 0.0
O187 O 0.26967 0.8595 0.00954 0.0
O188 O 0.24391 0.88012 0.06167 0.0
C189 C 0.20183 0.48431 0.28685 0.0
O190 O 0.1954 0.49698 0.30779 0.0
O191 O 0.15395 0.52332 0.29656 0.0
Zn192 Zn 0.17436 0.51835 0.26596 0.0
O193 O 0.1957 0.55061 0.26336 0.0
C194 C 0.13266 0.49335 0.23401 0.0
O195 O 0.1262 0.48238 0.25272 0.0
O196 O 0.19531 0.4904 0.26681 0.0
C197 C 0.1895 0.56469 0.24893 0.0
O198 O 0.16901 0.55815 0.23575 0.0
C199 C 0.14089 0.54117 0.30119 0.0
O200 O 0.14056 0.55674 0.28567 0.0
O201 O 0.15207 0.50879 0.23586 0.0
C202 C 0.81884 0.59367 0.99466 0.0
O203 O 0.80236 0.58396 0.9772 0.0
O204 O 0.79469 0.65252 0.97605 0.0
Zn205 Zn 0.78759 0.63354 0.00393 0.0
O206 O 0.75585 0.61006 0.99737 0.0
C207 C 0.77017 0.65665 0.05207 0.0
O208 O 0.75557 0.63567 0.05076 0.0
O209 O 0.81617 0.61442 0.00819 0.0
C210 C 0.75143 0.59162 0.00848 0.0
O211 O 0.768 0.58758 0.02412 0.0
C212 C 0.79043 0.64383 0.95333 0.0
O213 O 0.7804 0.62064 0.94663 0.0
O214 O 0.78487 0.6594 0.03471 0.0
C215 C 0.89719 0.08571 0.29779 0.0
O216 O 0.91135 0.08422 0.31661 0.0
O217 O 0.94036 0.04341 0.30364 0.0
Zn218 Zn 0.91962 0.0425 0.2731 0.0
O219 O 0.89743 0.00986 0.26681 0.0
C220 C 0.94768 0.02667 0.22973 0.0
O221 O 0.94017 0.00428 0.23412 0.0
O222 O 0.89806 0.07028 0.27784 0.0
C223 C 0.88547 1.00177 0.24666 0.0
O224 O 0.88741 0.01504 0.22899 0.0
C225 C 0.95272 0.02542 0.30466 0.0
O226 O 0.95194 0.00719 0.28567 0.0
O227 O 0.94147 0.04562 0.24402 0.0
C228 C 0.32027 0.09294 0.50004 0.0
O229 O 0.29982 0.07967 0.49057 0.0
O230 O 0.29538 0.15326 0.47648 0.0
Zn231 Zn 0.29094 0.13472 0.50517 0.0
O232 O 0.25975 0.11024 0.50054 0.0
C233 C 0.27225 0.17328 0.54106 0.0
O234 O 0.25463 0.17136 0.52438 0.0
O235 O 0.32052 0.11629 0.50738 0.0
C236 C 0.24643 0.10628 0.5186 0.0
O237 O 0.25301 0.11819 0.54085 0.0
C238 C 0.27744 0.15922 0.46501 0.0
O239 O 0.2549 0.15278 0.47156 0.0
O240 O 0.28957 0.1597 0.53676 0.0
C241 C 0.37798 0.56683 0.80369 0.0
O242 O 0.37144 0.54611 0.81205 0.0
O243 O 0.44052 0.54126 0.81564 0.0
Zn244 Zn 0.41906 0.54102 0.78579 0.0
O245 O 0.39737 0.50811 0.77827 0.0
C246 C 0.45919 0.53389 0.7525 0.0
O247 O 0.46527 0.51944 0.76759 0.0
O248 O 0.39786 0.56901 0.79205 0.0
C249 C 0.39178 0.49681 0.75649 0.0
O250 O 0.40027 0.50681 0.7378 0.0
C251 C 0.43206 0.5305 0.83295 0.0
O252 O 0.40919 0.51987 0.83128 0.0
O253 O 0.4403 0.5452 0.75682 0.0
C254 C 0.72538 0.44127 0.52511 0.0
O255 O 0.73625 0.44016 0.50386 0.0
O256 O 0.75306 0.38406 0.50112 0.0
Zn257 Zn 0.76138 0.40925 0.53244 0.0
O258 O 0.79102 0.43274 0.52635 0.0
C259 C 0.78963 0.38495 0.56447 0.0
O260 O 0.80812 0.39182 0.55114 0.0
O261 O 0.73289 0.42921 0.54078 0.0
C262 C 0.8045 0.44619 0.54361 0.0
O263 O 0.79912 0.44508 0.56658 0.0
C264 C 0.76974 0.37135 0.49178 0.0
O265 O 0.7916 0.37523 0.50257 0.0
O266 O 0.76839 0.39071 0.56016 0.0
C267 C 0.6978 0.97578 0.7701 0.0
O268 O 0.70894 0.99211 0.75779 0.0
O269 O 0.63494 0.01666 0.79893 0.0
Zn270 Zn 0.65948 0.00805 0.77253 0.0
O271 O 0.68412 0.03816 0.77105 0.0
C272 C 0.61964 0.98763 0.73689 0.0
O273 O 0.60808 0.98151 0.75614 0.0
O274 O 0.67664 0.979 0.77857 0.0
C275 C 0.67842 0.05369 0.75804 0.0
O276 O 0.6566 0.05004 0.74713 0.0
C277 C 0.64103 0.02476 0.8214 0.0
O278 O 0.66437 0.0276 0.82816 0.0
O279 O 0.64155 0.99847 0.73961 0.0
C280 C 0.03678 0.22888 0.91281 0.0
O281 O 0.04724 0.25083 0.92385 0.0
O282 O 0.99182 0.25152 0.85463 0.0
Zn283 Zn 0.02143 0.25797 0.87783 0.0
O284 O 0.01648 0.28698 0.90475 0.0
C285 C 0.05847 0.24923 0.8419 0.0
O286 O 0.04456 0.22771 0.8364 0.0
O287 O 0.02459 0.2273 0.89282 0.0
C288 C 0.02343 0.30951 0.90288 0.0
O289 O 0.0347 0.31426 0.88298 0.0
C290 C 0.98977 0.26449 0.83792 0.0
O291 O 0.00755 0.28209 0.83543 0.0
O292 O 0.05222 0.26561 0.85925 0.0
C293 C 0.54943 0.72318 0.42726 0.0
O294 O 0.56109 0.74502 0.43712 0.0
O295 O 0.50682 0.74424 0.3665 0.0
Zn296 Zn 0.53615 0.7506 0.39005 0.0
O297 O 0.53333 0.78193 0.4149 0.0
C298 C 0.5679 0.75887 0.34935 0.0
O299 O 0.5472 0.76095 0.33822 0.0
O300 O 0.53719 0.72113 0.40723 0.0
C301 C 0.52711 0.80131 0.40801 0.0
O302 O 0.52319 0.80093 0.38445 0.0
C303 C 0.48569 0.74902 0.37391 0.0
O304 O 0.48283 0.75727 0.39741 0.0
O305 O 0.56748 0.75482 0.37134 0.0
C306 C 0.03685 0.81998 0.6241 0.0
O307 O 0.04649 0.79967 0.61481 0.0
O308 O 0.98811 0.79106 0.68008 0.0
Zn309 Zn 0.01781 0.78896 0.65829 0.0
O310 O 0.01234 0.75874 0.63071 0.0
C311 C 0.04535 0.77616 0.69801 0.0
O312 O 0.02333 0.76698 0.70378 0.0
O313 O 0.0238 0.81999 0.64309 0.0
C314 C 0.02404 0.73992 0.62987 0.0
O315 O 0.03989 0.73956 0.64767 0.0
C316 C 0.96693 0.77939 0.67384 0.0
O317 O 0.96354 0.76545 0.6519 0.0
O318 O 0.04761 0.78672 0.67926 0.0
C319 C 0.53369 0.30668 0.122 0.0
O320 O 0.53662 0.2849 0.10885 0.0
O321 O 0.48603 0.2803 0.17885 0.0
Zn322 Zn 0.51652 0.27652 0.15824 0.0
O323 O 0.51026 0.24631 0.13101 0.0
C324 C 0.55846 0.28847 0.19307 0.0
O325 O 0.55432 0.31168 0.19383 0.0
O326 O 0.52547 0.30766 0.14362 0.0
C327 C 0.50119 0.22535 0.13587 0.0
O328 O 0.49523 0.2238 0.1586 0.0
C329 C 0.48409 0.2725 0.19923 0.0
O330 O 0.50215 0.26183 0.20694 0.0
O331 O 0.54486 0.27105 0.17933 0.0
H332 H 0.28141 0.76441 0.85804 0.0
H333 H 0.20289 0.74764 0.864 0.0
H334 H 0.28263 0.79562 0.89539 0.0
H335 H 0.2041 0.7788 0.90171 0.0
H336 H 0.21451 0.85206 0.95869 0.0
H337 H 0.21175 0.82327 0.91932 0.0
H338 H 0.27812 0.79497 0.93868 0.0
H339 H 0.28115 0.8239 0.97757 0.0
C340 C 0.26439 0.76743 0.86737 0.0
C341 C 0.2421 0.75339 0.85825 0.0
C342 C 0.26509 0.78526 0.88882 0.0
C343 C 0.24352 0.78946 0.90178 0.0
C344 C 0.22103 0.77613 0.89212 0.0
C345 C 0.22032 0.75829 0.87053 0.0
C346 C 0.22849 0.83966 0.95451 0.0
C347 C 0.24811 0.84036 0.97124 0.0
C348 C 0.22685 0.82311 0.932 0.0
C349 C 0.24482 0.80695 0.92574 0.0
C350 C 0.26423 0.8075 0.94266 0.0
C351 C 0.26587 0.824 0.96508 0.0
H352 H 0.02037 0.55764 0.40139 0.0
H353 H 0.07806 0.54003 0.44631 0.0
H354 H 0.0488 0.55959 0.36755 0.0
H355 H 0.10683 0.5424 0.41275 0.0
H356 H 0.13737 0.51236 0.33705 0.0
H357 H 0.11184 0.5165 0.37316 0.0
H358 H 0.08537 0.58129 0.35263 0.0
H359 H 0.1106 0.57687 0.3162 0.0
C360 C 0.03939 0.5549 0.40416 0.0
C361 C 0.04725 0.54892 0.42632 0.0
C362 C 0.05568 0.556 0.38484 0.0
C363 C 0.08009 0.55096 0.38734 0.0
C364 C 0.08809 0.54601 0.41006 0.0
C365 C 0.07176 0.54493 0.42937 0.0
C366 C 0.12619 0.52755 0.34026 0.0
C367 C 0.12597 0.54421 0.32364 0.0
C368 C 0.11168 0.53006 0.36111 0.0
C369 C 0.09657 0.54928 0.36588 0.0
C370 C 0.09659 0.56613 0.3494 0.0
C371 C 0.11114 0.56364 0.32855 0.0
H372 H 0.82195 0.71138 0.8222 0.0
H373 H 0.80135 0.76969 0.8787 0.0
H374 H 0.81952 0.68282 0.85178 0.0
H375 H 0.79805 0.74113 0.90785 0.0
H376 H 0.81381 0.69144 0.96099 0.0
H377 H 0.82193 0.71885 0.93105 0.0
H378 H 0.7879 0.66072 0.87372 0.0
H379 H 0.78028 0.633 0.90365 0.0
C380 C 0.81712 0.71814 0.84097 0.0
C381 C 0.8117 0.74275 0.84807 0.0
C382 C 0.81545 0.70172 0.85784 0.0
C383 C 0.8085 0.70963 0.88219 0.0
C384 C 0.80372 0.73444 0.88936 0.0
C385 C 0.80534 0.75077 0.87255 0.0
C386 C 0.80815 0.68441 0.94199 0.0
C387 C 0.79621 0.66006 0.93478 0.0
C388 C 0.81273 0.70019 0.92481 0.0
C389 C 0.80541 0.69208 0.89999 0.0
C390 C 0.79402 0.6675 0.89263 0.0
C391 C 0.78949 0.65166 0.90984 0.0
H392 H 0.99623 0.01853 0.45415 0.0
H393 H 0.06093 0.00362 0.41241 0.0
H394 H 0.97546 0.02518 0.41702 0.0
H395 H 0.04042 0.01089 0.37549 0.0
H396 H 0.98373 0.99159 0.31099 0.0
H397 H 0.00608 0.98857 0.34833 0.0
H398 H 0.97674 0.05385 0.38668 0.0
H399 H 0.95408 0.0568 0.34926 0.0
C400 C 0.00604 0.01681 0.43707 0.0
C401 C 0.03017 0.01044 0.43617 0.0
C402 C 0.99425 0.02086 0.41588 0.0
C403 C 0.00628 0.01847 0.39331 0.0
C404 C 0.03058 0.01261 0.39255 0.0
C405 C 0.04241 0.00869 0.41374 0.0
C406 C 0.9821 0.00539 0.32733 0.0
C407 C 0.96708 0.0244 0.32716 0.0
C408 C 0.99505 0.00374 0.3487 0.0
C409 C 0.9932 0.02099 0.37044 0.0
C410 C 0.97835 0.04016 0.37026 0.0
C411 C 0.96549 0.04191 0.3488 0.0
H412 H 0.30808 0.28125 0.67467 0.0
H413 H 0.2298 0.26089 0.67893 0.0
H414 H 0.30831 0.25312 0.63546 0.0
H415 H 0.23018 0.2319 0.63987 0.0
H416 H 0.23734 0.20392 0.55651 0.0
H417 H 0.23605 0.23201 0.59584 0.0
H418 H 0.30364 0.20883 0.61927 0.0
H419 H 0.30519 0.1811 0.57984 0.0
C420 C 0.29086 0.27084 0.66717 0.0
C421 C 0.26887 0.27349 0.67986 0.0
C422 C 0.29106 0.25444 0.64481 0.0
C423 C 0.26929 0.24018 0.63453 0.0
C424 C 0.24724 0.24278 0.64718 0.0
C425 C 0.24705 0.25921 0.66966 0.0
C426 C 0.25195 0.20483 0.57004 0.0
C427 C 0.27143 0.19033 0.56497 0.0
C428 C 0.2511 0.22081 0.59266 0.0
C429 C 0.26975 0.22271 0.6107 0.0
C430 C 0.28915 0.20809 0.60565 0.0
C431 C 0.28999 0.1921 0.58307 0.0
H432 H 0.54336 0.50695 0.61928 0.0
H433 H 0.52953 0.5836 0.62584 0.0
H434 H 0.52296 0.50433 0.65814 0.0
H435 H 0.50958 0.58122 0.66482 0.0
H436 H 0.44897 0.55867 0.71564 0.0
H437 H 0.47193 0.56193 0.67857 0.0
H438 H 0.52546 0.51855 0.70215 0.0
H439 H 0.50204 0.51471 0.73905 0.0
C440 C 0.5363 0.52334 0.62925 0.0
C441 C 0.53786 0.54541 0.61946 0.0
C442 C 0.52465 0.52187 0.65153 0.0
C443 C 0.51442 0.5425 0.66452 0.0
C444 C 0.51674 0.56481 0.65505 0.0
C445 C 0.52824 0.56621 0.63276 0.0
C446 C 0.46568 0.54988 0.71299 0.0
C447 C 0.47366 0.53642 0.73032 0.0
C448 C 0.47895 0.55188 0.69177 0.0
C449 C 0.50063 0.54059 0.68739 0.0
C450 C 0.5087 0.52724 0.7048 0.0
C451 C 0.49534 0.52515 0.72602 0.0
H452 H 0.84446 0.29219 0.66208 0.0
H453 H 0.76837 0.26418 0.64496 0.0
H454 H 0.84 0.32784 0.64178 0.0
H455 H 0.76385 0.29898 0.62402 0.0
H456 H 0.75693 0.37056 0.59822 0.0
H457 H 0.76222 0.34226 0.62678 0.0
H458 H 0.83567 0.33471 0.60069 0.0
H459 H 0.83068 0.36362 0.5729 0.0
C460 C 0.82673 0.29395 0.65424 0.0
C461 C 0.8067 0.27576 0.65506 0.0
C462 C 0.82416 0.31417 0.64243 0.0
C463 C 0.80157 0.3163 0.6311 0.0
C464 C 0.7814 0.29829 0.63282 0.0
C465 C 0.78397 0.27826 0.6447 0.0
C466 C 0.77429 0.36306 0.59879 0.0
C467 C 0.79329 0.36921 0.58312 0.0
C468 C 0.77731 0.34673 0.6151 0.0
C469 C 0.79933 0.33598 0.61597 0.0
C470 C 0.81859 0.34283 0.60084 0.0
C471 C 0.81564 0.3593 0.5847 0.0
H472 H 0.52487 0.93945 0.60484 0.0
H473 H 0.56182 0.01207 0.59878 0.0
H474 H 0.5482 0.9405 0.64291 0.0
H475 H 0.58444 0.01352 0.63716 0.0
H476 H 0.63815 0.99887 0.69377 0.0
H477 H 0.61656 0.99421 0.65428 0.0
H478 H 0.55044 0.96288 0.68545 0.0
H479 H 0.57216 0.96709 0.7249 0.0
C480 C 0.53804 0.95558 0.61158 0.0
C481 C 0.54143 0.97571 0.59884 0.0
C482 C 0.55122 0.95629 0.63351 0.0
C483 C 0.56816 0.9771 0.6431 0.0
C484 C 0.57174 0.99708 0.63016 0.0
C485 C 0.55855 0.99639 0.60831 0.0
C486 C 0.61906 0.99082 0.69219 0.0
C487 C 0.60685 0.98345 0.71255 0.0
C488 C 0.60664 0.98828 0.66957 0.0
C489 C 0.58173 0.97834 0.66674 0.0
C490 C 0.56969 0.9704 0.68693 0.0
C491 C 0.58211 0.97294 0.70959 0.0
H492 H 0.88376 0.23659 0.71521 0.0
H493 H 0.83947 0.23618 0.77966 0.0
H494 H 0.92082 0.24779 0.74148 0.0
H495 H 0.87648 0.24724 0.80586 0.0
H496 H 0.94825 0.23214 0.84046 0.0
H497 H 0.91126 0.22531 0.81432 0.0
H498 H 0.94326 0.28049 0.77301 0.0
H499 H 0.98048 0.28717 0.79903 0.0
C500 C 0.88188 0.2394 0.73499 0.0
C501 C 0.85868 0.23528 0.74533 0.0
C502 C 0.90313 0.24575 0.75004 0.0
C503 C 0.90162 0.24806 0.77575 0.0
C504 C 0.87831 0.24506 0.78611 0.0
C505 C 0.85711 0.23879 0.77109 0.0
C506 C 0.94745 0.24283 0.82581 0.0
C507 C 0.96735 0.2602 0.82186 0.0
C508 C 0.92615 0.23905 0.81094 0.0
C509 C 0.92425 0.25247 0.79167 0.0
C510 C 0.94421 0.26974 0.7876 0.0
C511 C 0.9655 0.27362 0.80258 0.0
H512 H 0.51915 0.95201 0.48705 0.0
H513 H 0.49797 0.90494 0.5402 0.0
H514 H 0.52215 0.91517 0.4558 0.0
H515 H 0.50035 0.86802 0.5089 0.0
H516 H 0.53775 0.81013 0.45744 0.0
H517 H 0.53147 0.8468 0.48751 0.0
H518 H 0.50071 0.87935 0.43025 0.0
H519 H 0.50774 0.84298 0.40005 0.0
C520 C 0.51458 0.93375 0.49187 0.0
C521 C 0.50845 0.93134 0.51608 0.0
C522 C 0.51631 0.9126 0.47398 0.0
C523 C 0.51177 0.88855 0.47986 0.0
C524 C 0.50457 0.88621 0.50384 0.0
C525 C 0.50303 0.90735 0.52175 0.0
C526 C 0.52967 0.82512 0.45126 0.0
C527 C 0.52332 0.82364 0.42633 0.0
C528 C 0.52586 0.8461 0.46855 0.0
C529 C 0.51544 0.86606 0.46139 0.0
C530 C 0.50904 0.86451 0.43642 0.0
C531 C 0.513 0.84359 0.41909 0.0
H532 H 0.18758 0.31293 0.77195 0.0
H533 H 0.20234 0.2392 0.77946 0.0
H534 H 0.14598 0.30441 0.78695 0.0
H535 H 0.1609 0.23058 0.79485 0.0
H536 H 0.07825 0.2173 0.8057 0.0
H537 H 0.11672 0.2248 0.78459 0.0
H538 H 0.12923 0.29938 0.82694 0.0
H539 H 0.09066 0.29205 0.84778 0.0
C540 C 0.18164 0.29474 0.77642 0.0
C541 C 0.19781 0.2766 0.77447 0.0
C542 C 0.15799 0.28992 0.78523 0.0
C543 C 0.15018 0.26689 0.79229 0.0
C544 C 0.16623 0.24841 0.78934 0.0
C545 C 0.18991 0.25329 0.78058 0.0
C546 C 0.08914 0.23536 0.81042 0.0
C547 C 0.08141 0.25406 0.8285 0.0
C548 C 0.11123 0.2396 0.79838 0.0
C549 C 0.12605 0.26268 0.80406 0.0
C550 C 0.1181 0.28151 0.82186 0.0
C551 C 0.09606 0.27724 0.83395 0.0
H552 H 0.51031 0.58777 0.48485 0.0
H553 H 0.58067 0.61604 0.52045 0.0
H554 H 0.51434 0.62107 0.46065 0.0
H555 H 0.58539 0.64919 0.49563 0.0
H556 H 0.56771 0.72248 0.47325 0.0
H557 H 0.56802 0.68674 0.4938 0.0
H558 H 0.53487 0.63834 0.42881 0.0
H559 H 0.53376 0.67425 0.40862 0.0
C560 C 0.52697 0.60084 0.48693 0.0
C561 C 0.54528 0.59944 0.50421 0.0
C562 C 0.52936 0.6199 0.47304 0.0
C563 C 0.55018 0.63795 0.47618 0.0
C564 C 0.56895 0.63585 0.49298 0.0
C565 C 0.56645 0.61678 0.50698 0.0
C566 C 0.56056 0.7042 0.46332 0.0
C567 C 0.55051 0.70126 0.43937 0.0
C568 C 0.56093 0.68363 0.47504 0.0
C569 C 0.55145 0.65957 0.46302 0.0
C570 C 0.54196 0.65661 0.43881 0.0
C571 C 0.54139 0.67721 0.42718 0.0
H572 H 0.8259 0.78194 0.7474 0.0
H573 H 0.87938 0.77942 0.80435 0.0
H574 H 0.85873 0.78388 0.71783 0.0
H575 H 0.91203 0.78038 0.77463 0.0
H576 H 0.96786 0.80588 0.7208 0.0
H577 H 0.93466 0.80728 0.75006 0.0
H578 H 0.88674 0.75706 0.69621 0.0
H579 H 0.91977 0.75605 0.66678 0.0
C580 C 0.84467 0.78193 0.75365 0.0
C581 C 0.84997 0.78045 0.77825 0.0
C582 C 0.86346 0.78276 0.73662 0.0
C583 C 0.88804 0.78219 0.74379 0.0
C584 C 0.89336 0.78109 0.76849 0.0
C585 C 0.87459 0.78024 0.78549 0.0
C586 C 0.95021 0.79522 0.71514 0.0
C587 C 0.94652 0.78081 0.69143 0.0
C588 C 0.9312 0.79592 0.73199 0.0
C589 C 0.90801 0.78223 0.72555 0.0
C590 C 0.90425 0.76808 0.70171 0.0
C591 C 0.92326 0.76738 0.68487 0.0
H592 H 0.00484 0.94478 0.55997 0.0
H593 H 0.07455 0.93012 0.52846 0.0
H594 H 0.00787 0.91378 0.58613 0.0
H595 H 0.07826 0.89942 0.55527 0.0
H596 H 0.05684 0.82327 0.5794 0.0
H597 H 0.05946 0.85846 0.55781 0.0
H598 H 0.02779 0.90225 0.61984 0.0
H599 H 0.02437 0.86667 0.64107 0.0
C600 C 0.02114 0.93527 0.5592 0.0
C601 C 0.03953 0.93973 0.54247 0.0
C602 C 0.02297 0.91757 0.57424 0.0
C603 C 0.0433 0.90397 0.57283 0.0
C604 C 0.06219 0.90927 0.5566 0.0
C605 C 0.06026 0.92697 0.54145 0.0
C606 C 0.05059 0.84046 0.58852 0.0
C607 C 0.04016 0.84207 0.61186 0.0
C608 C 0.05228 0.86076 0.5762 0.0
C609 C 0.04375 0.88325 0.58699 0.0
C610 C 0.03414 0.8851 0.61075 0.0
C611 C 0.03226 0.86473 0.62298 0.0
H612 H 0.18547 0.7318 0.72893 0.0
H613 H 0.15233 0.73856 0.80003 0.0
H614 H 0.15107 0.74887 0.71254 0.0
H615 H 0.11792 0.75639 0.78398 0.0
H616 H 0.04704 0.75031 0.73586 0.0
H617 H 0.08329 0.74088 0.75632 0.0
H618 H 0.1298 0.78455 0.71271 0.0
H619 H 0.09348 0.7934 0.6917 0.0
C620 C 0.17098 0.73756 0.74115 0.0
C621 C 0.17136 0.73406 0.76563 0.0
C622 C 0.15132 0.74744 0.73185 0.0
C623 C 0.13164 0.75399 0.74691 0.0
C624 C 0.1326 0.75125 0.77179 0.0
C625 C 0.15232 0.74128 0.78106 0.0
C626 C 0.06498 0.7581 0.73076 0.0
C627 C 0.06736 0.7724 0.71196 0.0
C628 C 0.0858 0.75284 0.74266 0.0
C629 C 0.10952 0.76186 0.73612 0.0
C630 C 0.11184 0.77697 0.71794 0.0
C631 C 0.09101 0.78214 0.70596 0.0
H632 H 0.03313 0.60448 0.52232 0.0
H633 H 0.95863 0.62129 0.51557 0.0
H634 H 0.04362 0.64412 0.55012 0.0
H635 H 0.9687 0.6602 0.54433 0.0
H636 H 0.99684 0.7364 0.58727 0.0
H637 H 0.99028 0.70111 0.55328 0.0
H638 H 0.0352 0.65985 0.59182 0.0
H639 H 0.04235 0.69529 0.62526 0.0
C640 C 0.01909 0.61681 0.52642 0.0
C641 C 0.99497 0.60955 0.51691 0.0
C642 C 0.025 0.63939 0.54268 0.0
C643 C 0.00691 0.65523 0.54989 0.0
C644 C 0.98316 0.64861 0.53921 0.0
C645 C 0.97731 0.62612 0.52287 0.0
C646 C 0.00539 0.71981 0.58841 0.0
C647 C 0.02005 0.71865 0.60904 0.0
C648 C 1.00158 0.69954 0.56894 0.0
C649 C 0.01223 0.67756 0.5697 0.0
C650 C 0.02708 0.67658 0.59029 0.0
C651 C 0.031 0.69687 0.60964 0.0
H652 H 0.77695 0.87523 0.25514 0.0
H653 H 0.82775 0.84602 0.20105 0.0
H654 H 0.80035 0.91642 0.25935 0.0
H655 H 0.85054 0.88761 0.20469 0.0
H656 H 0.86799 0.97295 0.20314 0.0
H657 H 0.84357 0.93188 0.19711 0.0
H658 H 0.84421 0.93424 0.27564 0.0
H659 H 0.86878 0.97505 0.28172 0.0
C660 C 0.79311 0.87752 0.24417 0.0
C661 C 0.80058 0.85715 0.22794 0.0
C662 C 0.80642 0.90116 0.24652 0.0
C663 C 0.82729 0.90512 0.23244 0.0
C664 C 0.83439 0.88506 0.21563 0.0
C665 C 0.82126 0.86127 0.2135 0.0
C666 C 0.86284 0.96472 0.2191 0.0
C667 C 0.87027 0.97722 0.24291 0.0
C668 C 0.84901 0.9412 0.21563 0.0
C669 C 0.84199 0.92998 0.23591 0.0
C670 C 0.84921 0.94259 0.2597 0.0
C671 C 0.86336 0.96588 0.26316 0.0
H672 H 0.82042 0.21805 0.32961 0.0
H673 H 0.76641 0.15933 0.29273 0.0
H674 H 0.85107 0.18882 0.32608 0.0
H675 H 0.79701 0.13021 0.28912 0.0
H676 H 0.86417 0.09245 0.26303 0.0
H677 H 0.8346 0.12262 0.26697 0.0
H678 H 0.86066 0.1516 0.34159 0.0
H679 H 0.89058 0.12163 0.33757 0.0
C680 C 0.81503 0.19886 0.32095 0.0
C681 C 0.79099 0.19105 0.31136 0.0
C682 C 0.83259 0.18213 0.31891 0.0
C683 C 0.82651 0.15722 0.3072 0.0
C684 C 0.80242 0.14938 0.29783 0.0
C685 C 0.78488 0.16607 0.2999 0.0
C686 C 0.86368 0.1053 0.28027 0.0
C687 C 0.87972 0.10457 0.30001 0.0
C688 C 0.84661 0.1225 0.28257 0.0
C689 C 0.84517 0.13942 0.30464 0.0
C690 C 0.86145 0.13896 0.32427 0.0
C691 C 0.87851 0.12169 0.322 0.0
H692 H 0.39903 0.0448 0.02242 0.0
H693 H 0.43422 0.9798 0.99366 0.0
H694 H 0.36332 0.01796 0.03303 0.0
H695 H 0.39832 0.95294 0.0038 0.0
H696 H 0.33989 0.91386 0.04775 0.0
H697 H 0.37621 0.9415 0.04007 0.0
H698 H 0.3298 0.9881 0.01049 0.0
H699 H 0.29347 0.96063 0.01831 0.0
C700 C 0.3992 0.02479 0.01853 0.0
C701 C 0.41941 0.0144 0.00718 0.0
C702 C 0.37867 0.00942 0.02439 0.0
C703 C 0.37799 0.98334 0.01919 0.0
C704 C 0.39838 0.97297 0.00822 0.0
C705 C 0.41883 0.98833 1.0022 0.0
C706 C 0.33742 0.93005 0.0397 0.0
C707 C 0.31377 0.935 0.0336 0.0
C708 C 0.35824 0.94581 0.03519 0.0
C709 C 0.35587 0.96696 0.02465 0.0
C710 C 0.33221 0.9721 0.01887 0.0
C711 C 0.3114 0.95626 0.02322 0.0
H712 H 0.24031 0.33417 0.25618 0.0
H713 H 0.28458 0.36701 0.32102 0.0
H714 H 0.22739 0.37479 0.2536 0.0
H715 H 0.27224 0.40794 0.31834 0.0
H716 H 0.21541 0.46444 0.32617 0.0
H717 H 0.23487 0.42679 0.32574 0.0
H718 H 0.23862 0.41679 0.24654 0.0
H719 H 0.21857 0.45425 0.24693 0.0
C720 C 0.24779 0.35033 0.26945 0.0
C721 C 0.2635 0.34774 0.28867 0.0
C722 C 0.24045 0.37361 0.268 0.0
C723 C 0.24862 0.39468 0.28587 0.0
C724 C 0.2653 0.39208 0.30449 0.0
C725 C 0.27259 0.36876 0.30591 0.0
C726 C 0.22055 0.45435 0.30866 0.0
C727 C 0.21528 0.46233 0.28658 0.0
C728 C 0.2319 0.43281 0.30842 0.0
C729 C 0.23836 0.41869 0.2861 0.0
C730 C 0.23364 0.42702 0.26404 0.0
C731 C 0.22222 0.44857 0.26428 0.0
H732 H 0.116 0.01484 0.45189 0.0
H733 H 0.10221 0.02224 0.52966 0.0
H734 H 0.15659 0.03725 0.46096 0.0
H735 H 0.14393 0.04259 0.53887 0.0
H736 H 0.20593 0.10717 0.54689 0.0
H737 H 0.16691 0.08066 0.53928 0.0
H738 H 0.19636 0.03889 0.47445 0.0
H739 H 0.2348 0.06669 0.48134 0.0
C740 C 0.12171 0.02101 0.471 0.0
C741 C 0.10546 0.01719 0.49001 0.0
C742 C 0.14533 0.03354 0.47625 0.0
C743 C 0.15374 0.0421 0.50072 0.0
C744 C 0.13801 0.03691 0.51978 0.0
C745 C 0.11413 0.0248 0.5145 0.0
C746 C 0.20403 0.09226 0.53106 0.0
C747 C 0.2233 0.08912 0.51459 0.0
C748 C 0.18167 0.07683 0.52677 0.0
C749 C 0.17821 0.05748 0.50617 0.0
C750 C 0.19795 0.05389 0.49017 0.0
C751 C 0.22011 0.06973 0.49416 0.0
H752 H 0.77921 0.15187 0.68913 0.0
H753 H 0.78365 0.18756 0.76559 0.0
H754 H 0.74989 0.11846 0.6993 0.0
H755 H 0.75492 0.15345 0.77576 0.0
H756 H 0.72215 0.07165 0.78288 0.0
H757 H 0.75247 0.10553 0.77448 0.0
H758 H 0.70586 0.11663 0.71512 0.0
H759 H 0.67556 0.08312 0.72352 0.0
C760 C 0.7739 0.1527 0.70808 0.0
C761 C 0.78363 0.17264 0.72648 0.0
C762 C 0.75719 0.13346 0.7139 0.0
C763 C 0.75007 0.13349 0.73828 0.0
C764 C 0.76026 0.15294 0.75683 0.0
C765 C 0.77676 0.1724 0.75098 0.0
C766 C 0.71836 0.08142 0.76812 0.0
C767 C 0.69648 0.07469 0.75384 0.0
C768 C 0.73565 0.10082 0.76339 0.0
C769 C 0.73153 0.11355 0.74407 0.0
C770 C 0.7096 0.10693 0.72995 0.0
C771 C 0.6922 0.08784 0.73488 0.0
H772 H 0.42676 1.00076 0.53973 0.0
H773 H 0.4704 0.05633 0.50685 0.0
H774 H 0.38915 0.01689 0.52866 0.0
H775 H 0.43296 0.07241 0.49545 0.0
H776 H 0.36634 0.11547 0.51511 0.0
H777 H 0.40316 0.09573 0.5198 0.0
H778 H 0.36229 0.02334 0.49464 0.0
H779 H 0.32523 0.0431 0.49013 0.0
C780 C 0.42815 0.016 0.52952 0.0
C781 C 0.45121 0.02729 0.52391 0.0
C782 C 0.4067 0.02525 0.52319 0.0
C783 C 0.40809 0.04609 0.51137 0.0
C784 C 0.43129 0.05658 0.50484 0.0
C785 C 0.45267 0.04726 0.51111 0.0
C786 C 0.36517 0.09535 0.51049 0.0
C787 C 0.34279 0.08088 0.50231 0.0
C788 C 0.38635 0.08404 0.51299 0.0
C789 C 0.38569 0.05796 0.50748 0.0
C790 C 0.36336 0.04346 0.49918 0.0
C791 C 0.34215 0.0548 0.49652 0.0
H792 H 0.62249 0.54049 0.59325 0.0
H793 H 0.59019 0.50936 0.52132 0.0
H794 H 0.65793 0.51794 0.58332 0.0
H795 H 0.62574 0.48694 0.51135 0.0
H796 H 0.7038 0.46742 0.49482 0.0
H797 H 0.67002 0.49252 0.50393 0.0
H798 H 0.66632 0.47441 0.57694 0.0
H799 H 0.70031 0.44957 0.56798 0.0
C800 C 0.62296 0.52887 0.57529 0.0
C801 C 0.6034 0.52663 0.55814 0.0
C802 C 0.64326 0.51591 0.56963 0.0
C803 C 0.64457 0.50046 0.54663 0.0
C804 C 0.62542 0.49886 0.52915 0.0
C805 C 0.60506 0.51178 0.53485 0.0
C806 C 0.69582 0.46881 0.51284 0.0
C807 C 0.70478 0.45646 0.53067 0.0
C808 C 0.67637 0.48312 0.51801 0.0
C809 C 0.66549 0.48552 0.54117 0.0
C810 C 0.67451 0.47324 0.55902 0.0
C811 C 0.69389 0.45885 0.55383 0.0
H812 H 0.7565 0.23497 0.38391 0.0
H813 H 0.7441 0.29177 0.34162 0.0
H814 H 0.75865 0.26586 0.4216 0.0
H815 H 0.74558 0.32254 0.37961 0.0
H816 H 0.7309 0.36473 0.45864 0.0
H817 H 0.72372 0.33314 0.42113 0.0
H818 H 0.7903 0.3033 0.4369 0.0
H819 H 0.79759 0.33471 0.47402 0.0
C820 C 0.75416 0.25401 0.38263 0.0
C821 C 0.75054 0.26094 0.35964 0.0
C822 C 0.75528 0.27167 0.40425 0.0
C823 C 0.75253 0.29662 0.40349 0.0
C824 C 0.74764 0.30338 0.38072 0.0
C825 C 0.74675 0.28573 0.35899 0.0
C826 C 0.74394 0.35136 0.45409 0.0
C827 C 0.76482 0.35222 0.46928 0.0
C828 C 0.73987 0.33339 0.4326 0.0
C829 C 0.75639 0.31571 0.42621 0.0
C830 C 0.7771 0.3165 0.44153 0.0
C831 C 0.78134 0.33461 0.46272 0.0
H832 H 0.54529 0.02499 0.94562 0.0
H833 H 0.50934 0.06566 0.89881 0.0
H834 H 0.5806 0.02399 0.91858 0.0
H835 H 0.54469 0.06511 0.87183 0.0
H836 H 0.59169 0.02346 0.81291 0.0
H837 H 0.56001 0.03171 0.84294 0.0
H838 H 0.61522 0.04788 0.9015 0.0
H839 H 0.64704 0.03931 0.87139 0.0
C840 C 0.54537 0.03436 0.92991 0.0
C841 C 0.5249 0.04556 0.92424 0.0
C842 C 0.56553 0.0338 0.91442 0.0
C843 C 0.56537 0.04426 0.8929 0.0
C844 C 0.54523 0.05657 0.88805 0.0
C845 C 0.52514 0.05715 0.90358 0.0
C846 C 0.59714 0.02888 0.83217 0.0
C847 C 0.62192 0.03062 0.83973 0.0
C848 C 0.57897 0.03383 0.84939 0.0
C849 C 0.58508 0.04058 0.87463 0.0
C850 C 0.60989 0.04257 0.88221 0.0
C851 C 0.62813 0.03773 0.86493 0.0
H852 H 0.28037 0.27298 0.37379 0.0
H853 H 0.32276 0.21854 0.33325 0.0
H854 H 0.27403 0.24766 0.40581 0.0
H855 H 0.31687 0.19356 0.36572 0.0
H856 H 0.32091 0.17054 0.44275 0.0
H857 H 0.32822 0.19558 0.41041 0.0
H858 H 0.25142 0.20621 0.40973 0.0
H859 H 0.24405 0.18126 0.442 0.0
C860 C 0.28826 0.25557 0.37161 0.0
C861 C 0.30195 0.24778 0.35078 0.0
C862 C 0.28466 0.24109 0.39002 0.0
C863 C 0.29484 0.21855 0.38823 0.0
C864 C 0.30897 0.21096 0.36772 0.0
C865 C 0.3124 0.22534 0.34915 0.0
C866 C 0.30557 0.17818 0.43567 0.0
C867 C 0.2819 0.17392 0.445 0.0
C868 C 0.30975 0.19242 0.41707 0.0
C869 C 0.29042 0.20294 0.40759 0.0
C870 C 0.26675 0.1986 0.41686 0.0
C871 C 0.26251 0.18416 0.43526 0.0
H872 H 0.55022 0.5009 0.92408 0.0
H873 H 0.49433 0.5212 0.97616 0.0
H874 H 0.5248 0.5096 0.89097 0.0
H875 H 0.46891 0.52984 0.94305 0.0
H876 H 0.4191 0.50992 0.87326 0.0
H877 H 0.44552 0.50542 0.90734 0.0
H878 H 0.50748 0.54318 0.87514 0.0
H879 H 0.48108 0.54737 0.84072 0.0
C880 C 0.53267 0.50756 0.92852 0.0
C881 C 0.52422 0.51019 0.95273 0.0
C882 C 0.51811 0.51256 0.90954 0.0
C883 C 0.49477 0.52028 0.91436 0.0
C884 C 0.48661 0.52351 0.93867 0.0
C885 C 0.50117 0.51854 0.95763 0.0
C886 C 0.43833 0.51738 0.87347 0.0
C887 C 0.44799 0.52894 0.85422 0.0
C888 C 0.45345 0.51494 0.89311 0.0
C889 C 0.4786 0.52395 0.89396 0.0
C890 C 0.48823 0.5358 0.87488 0.0
C891 C 0.47307 0.53832 0.85523 0.0
H892 H 0.80819 0.78095 0.17185 0.0
H893 H 0.73142 0.75831 0.18268 0.0
H894 H 0.80733 0.74918 0.13503 0.0
H895 H 0.73031 0.72673 0.14541 0.0
H896 H 0.74523 0.65482 0.09459 0.0
H897 H 0.74478 0.68772 0.13036 0.0
H898 H 0.79235 0.73758 0.09369 0.0
H899 H 0.79345 0.70437 0.05825 0.0
C900 C 0.79099 0.76944 0.16609 0.0
C901 C 0.76986 0.77218 0.18014 0.0
C902 C 0.79047 0.75121 0.14493 0.0
C903 C 0.76874 0.73533 0.13715 0.0
C904 C 0.74747 0.73834 0.15104 0.0
C905 C 0.74806 0.75648 0.17235 0.0
C906 C 0.75559 0.67281 0.09415 0.0
C907 C 0.76949 0.67691 0.0736 0.0
C908 C 0.75518 0.69177 0.11462 0.0
C909 C 0.76853 0.71538 0.115 0.0
C910 C 0.78217 0.71954 0.09426 0.0
C911 C 0.78271 0.70052 0.07386 0.0
H912 H 0.98956 0.02504 0.07916 0.0
H913 H 0.05467 0.06234 0.12032 0.0
H914 H 0.9691 0.02025 0.11758 0.0
H915 H 0.0341 0.05765 0.15889 0.0
H916 H 0.97391 0.06911 0.21936 0.0
H917 H 0.99621 0.07404 0.18187 0.0
H918 H 0.97572 0.99603 0.15253 0.0
H919 H 0.95367 0.99095 0.18996 0.0
C920 C 0.99941 0.03232 0.09646 0.0
C921 C 0.02365 0.04411 0.09683 0.0
C922 C 0.9878 0.02942 0.11839 0.0
C923 C 1.00006 0.03855 0.14115 0.0
C924 C 0.02422 0.05056 0.14157 0.0
C925 C 0.036 0.05311 0.11958 0.0
C926 C 0.97427 0.053 0.20495 0.0
C927 C 0.96199 0.02966 0.20758 0.0
C928 C 0.98712 0.05581 0.18359 0.0
C929 C 0.98756 0.03543 0.16432 0.0
C930 C 0.97547 0.01208 0.16704 0.0
C931 C 0.96297 0.00918 0.18852 0.0
H932 H 0.2791 0.81721 0.20052 0.0
H933 H 0.29523 0.75725 0.14366 0.0
H934 H 0.25849 0.83575 0.17006 0.0
H935 H 0.27491 0.77579 0.11295 0.0
H936 H 0.22349 0.8085 0.06557 0.0
H937 H 0.23608 0.78734 0.09811 0.0
H938 H 0.27379 0.857 0.13671 0.0
H939 H 0.26105 0.87818 0.1044 0.0
C940 C 0.27766 0.80774 0.18153 0.0
C941 C 0.28843 0.78579 0.1743 0.0
C942 C 0.26613 0.81844 0.16406 0.0
C943 C 0.26525 0.80739 0.13902 0.0
C944 C 0.27505 0.78467 0.13209 0.0
C945 C 0.28666 0.77402 0.1496 0.0
C946 C 0.23427 0.81935 0.08112 0.0
C947 C 0.24131 0.84505 0.08233 0.0
C948 C 0.24158 0.80718 0.09971 0.0
C949 C 0.25593 0.82045 0.12003 0.0
C950 C 0.26245 0.84625 0.1215 0.0
C951 C 0.25527 0.85839 0.10287 0.0
H952 H 0.04926 0.51331 0.10759 0.0
H953 H 0.03288 0.43433 0.10735 0.0
H954 H 0.0765 0.51735 0.14338 0.0
H955 H 0.06086 0.43823 0.14286 0.0
H956 H 0.08898 0.46303 0.22407 0.0
H957 H 0.06292 0.45666 0.18694 0.0
H958 H 0.11579 0.5059 0.15503 0.0
H959 H 0.14155 0.51263 0.19216 0.0
C960 C 0.05155 0.49678 0.11517 0.0
C961 C 0.03882 0.47353 0.10473 0.0
C962 C 0.06737 0.49904 0.13552 0.0
C963 C 0.07087 0.4781 0.14597 0.0
C964 C 0.05837 0.45475 0.13538 0.0
C965 C 0.04256 0.45248 0.1149 0.0
C966 C 0.09507 0.47241 0.20909 0.0
C967 C 0.11727 0.48846 0.21116 0.0
C968 C 0.08021 0.46864 0.18776 0.0
C969 C 0.08723 0.48087 0.16808 0.0
C970 C 0.10967 0.49651 0.17 0.0
C971 C 0.12449 0.50027 0.19127 0.0
H972 H 0.3668 0.78098 0.28467 0.0
H973 H 0.37046 0.70236 0.26037 0.0
H974 H 0.40128 0.78285 0.31355 0.0
H975 H 0.40485 0.7042 0.28932 0.0
H976 H 0.48302 0.72642 0.32554 0.0
H977 H 0.44924 0.72432 0.29587 0.0
H978 H 0.40794 0.76505 0.35223 0.0
H979 H 0.44158 0.76711 0.38194 0.0
C980 C 0.37513 0.76417 0.28539 0.0
C981 C 0.36598 0.74153 0.27033 0.0
C982 C 0.39468 0.76518 0.30203 0.0
C983 C 0.40566 0.74364 0.30372 0.0
C984 C 0.39682 0.72111 0.28831 0.0
C985 C 0.37707 0.72003 0.27189 0.0
C986 C 0.4667 0.73485 0.33162 0.0
C987 C 0.46496 0.74691 0.3561 0.0
C988 C 0.44735 0.73357 0.31466 0.0
C989 C 0.42604 0.74462 0.32175 0.0
C990 C 0.42428 0.75661 0.34621 0.0
C991 C 0.44347 0.75762 0.36325 0.0
H992 H 1.00013 0.45178 0.99425 0.0
H993 H 0.00752 0.40132 0.04495 0.0
H994 H 0.00259 0.41771 0.95969 0.0
H995 H 0.01116 0.3677 0.01063 0.0
H996 H 0.99668 0.30657 0.94419 0.0
H997 H 0.98931 0.34041 0.97719 0.0
H998 H 0.03281 0.39297 0.94014 0.0
H999 H 0.03955 0.35921 0.90678 0.0
C1000 C 1.00209 0.4334 0.99802 0.0
C1001 C 0.00379 0.42934 0.02238 0.0
C1002 C 0.00382 0.41393 0.97822 0.0
C1003 C 0.00725 0.38995 0.98232 0.0
C1004 C 0.0083 0.38581 0.0067 0.0
C1005 C 0.00651 0.4052 0.02643 0.0
C1006 C 0.00462 0.32535 0.94304 0.0
C1007 C 0.0188 0.33015 0.92288 0.0
C1008 C 1.00047 0.34477 0.96203 0.0
C1009 C 0.01052 0.36947 0.96142 0.0
C1010 C 0.02448 0.37427 0.94109 0.0
C1011 C 0.02852 0.35485 0.92203 0.0
H1012 H 0.71616 0.74613 0.29571 0.0
H1013 H 0.69286 0.80763 0.26639 0.0
H1014 H 0.67525 0.7378 0.31236 0.0
H1015 H 0.65204 0.79981 0.28335 0.0
H1016 H 0.57541 0.76743 0.30243 0.0
H1017 H 0.6143 0.77092 0.2812 0.0
H1018 H 0.65255 0.75883 0.34583 0.0
H1019 H 0.61374 0.7549 0.36687 0.0
C1020 C 0.70206 0.75757 0.29254 0.0
C1021 C 0.70731 0.77735 0.27976 0.0
C1022 C 0.67877 0.75301 0.30224 0.0
C1023 C 0.66043 0.76828 0.29937 0.0
C1024 C 0.66563 0.78755 0.28568 0.0
C1025 C 0.68894 0.79207 0.27601 0.0
C1026 C 0.59211 0.76544 0.31208 0.0
C1027 C 0.59146 0.76094 0.33638 0.0
C1028 C 0.6144 0.76752 0.29993 0.0
C1029 C 0.63653 0.76508 0.31178 0.0
C1030 C 0.63581 0.76039 0.33601 0.0
C1031 C 0.61356 0.75835 0.34816 0.0
H1032 H 0.07015 0.11843 1.00168 0.0
H1033 H 1.0011 0.08933 0.96374 0.0
H1034 H 0.07432 0.15301 0.9786 0.0
H1035 H 0.00456 0.12399 0.94128 0.0
H1036 H 0.02316 0.18004 0.89209 0.0
H1037 H 0.02514 0.14325 0.91078 0.0
H1038 H 0.05608 0.19019 0.97757 0.0
H1039 H 0.0549 0.22682 0.95854 0.0
C1040 C 0.05609 0.11934 0.98811 0.0
C1041 C 0.03545 0.10132 0.98417 0.0
C1042 C 0.05828 0.13921 0.97508 0.0
C1043 C 0.03972 0.14142 0.95807 0.0
C1044 C 0.01942 0.12278 0.95384 0.0
C1045 C 0.01735 0.10294 0.96675 0.0
C1046 C 0.03051 0.18248 0.91072 0.0
C1047 C 0.03871 0.2064 0.92386 0.0
C1048 C 0.03157 0.16138 0.9215 0.0
C1049 C 0.04065 0.16366 0.94579 0.0
C1050 C 0.04932 0.18759 0.95873 0.0
C1051 C 0.04845 0.20867 0.94787 0.0
H1052 H 0.35567 0.23991 0.28357 0.0
H1053 H 0.35421 0.31761 0.27941 0.0
H1054 H 0.3929 0.23948 0.25986 0.0
H1055 H 0.39151 0.31699 0.2552 0.0
H1056 H 0.44386 0.29546 0.19028 0.0
H1057 H 0.40647 0.29793 0.21421 0.0
H1058 H 0.43628 0.25739 0.26541 0.0
H1059 H 0.47338 0.25471 0.24155 0.0
C1060 C 0.36343 0.25702 0.27785 0.0
C1061 C 0.35203 0.2789 0.28374 0.0
C1062 C 0.38477 0.25673 0.26416 0.0
C1063 C 0.3953 0.27824 0.2558 0.0
C1064 C 0.38375 0.30005 0.26124 0.0
C1065 C 0.36238 0.30039 0.27511 0.0
C1066 C 0.44244 0.28712 0.20667 0.0
C1067 C 0.46159 0.27477 0.21391 0.0
C1068 C 0.42108 0.28867 0.22045 0.0
C1069 C 0.41834 0.27774 0.24164 0.0
C1070 C 0.43764 0.26569 0.24899 0.0
C1071 C 0.45899 0.26427 0.23534 0.0
H1072 H 0.56965 0.41953 0.0291 0.0
H1073 H 0.51708 0.44795 0.08114 0.0
H1074 H 0.57282 0.38488 0.05114 0.0
H1075 H 0.51939 0.41318 0.10275 0.0
H1076 H 0.53637 0.35512 0.14575 0.0
H1077 H 0.54243 0.39277 0.12767 0.0
H1078 H 0.54755 0.3477 0.0558 0.0
H1079 H 0.54242 0.31023 0.07403 0.0
C1080 C 0.55915 0.41851 0.04555 0.0
C1081 C 0.5433 0.43629 0.0537 0.0
C1082 C 0.56071 0.39859 0.05802 0.0
C1083 C 0.54622 0.39606 0.07868 0.0
C1084 C 0.5311 0.41462 0.08721 0.0
C1085 C 0.52968 0.43453 0.07482 0.0
C1086 C 0.539 0.35329 0.12612 0.0
C1087 C 0.53872 0.32966 0.11131 0.0
C1088 C 0.54239 0.37488 0.11572 0.0
C1089 C 0.54534 0.37336 0.09021 0.0
C1090 C 0.54572 0.34971 0.07554 0.0
C1091 C 0.54257 0.32814 0.08598 0.0
H1092 H 0.7028 0.27769 0.25125 0.0
H1093 H 0.65652 0.21983 0.27846 0.0
H1094 H 0.66646 0.29211 0.23502 0.0
H1095 H 0.62001 0.23431 0.26265 0.0
H1096 H 0.5695 0.24241 0.19813 0.0
H1097 H 0.60386 0.23229 0.22094 0.0
H1098 H 0.62806 0.31074 0.24455 0.0
H1099 H 0.59369 0.32096 0.22137 0.0
C1100 C 0.68472 0.26855 0.25429 0.0
C1101 C 0.6822 0.24783 0.26609 0.0
C1102 C 0.66393 0.27676 0.24506 0.0
C1103 C 0.64034 0.26421 0.24736 0.0
C1104 C 0.63793 0.24414 0.26027 0.0
C1105 C 0.65873 0.23599 0.26951 0.0
C1106 C 0.58205 0.25754 0.20826 0.0
C1107 C 0.5789 0.2825 0.20782 0.0
C1108 C 0.60165 0.25173 0.22153 0.0
C1109 C 0.61866 0.27071 0.23466 0.0
C1110 C 0.61536 0.29569 0.23449 0.0
C1111 C 0.59563 0.30153 0.22127 0.0
H1112 H 0.48492 0.0726 0.05711 0.0
H1113 H 0.47672 0.11566 0.99998 0.0
H1114 H 0.4945 0.11087 0.08707 0.0
H1115 H 0.48546 0.15418 0.03008 0.0
H1116 H 0.51835 0.21981 0.08883 0.0
H1117 H 0.51431 0.18197 0.0576 0.0
H1118 H 0.4723 0.14228 0.1077 0.0
H1119 H 0.47707 0.17969 0.139 0.0
C1120 C 0.48535 0.09034 0.05098 0.0
C1121 C 0.47997 0.09121 0.0263 0.0
C1122 C 0.49061 0.1123 0.06816 0.0
C1123 C 0.49029 0.13571 0.06116 0.0
C1124 C 0.48603 0.13655 0.03616 0.0
C1125 C 0.48102 0.1145 0.01888 0.0
C1126 C 0.50826 0.20297 0.09313 0.0
C1127 C 0.4981 0.20275 0.11645 0.0
C1128 C 0.50587 0.18128 0.07519 0.0
C1129 C 0.49316 0.15892 0.08012 0.0
C1130 C 0.48274 0.15892 0.10337 0.0
C1131 C 0.48529 0.18049 0.12131 0.0
H1132 H 0.32026 0.34922 0.76683 0.0
H1133 H 0.28795 0.36542 0.70087 0.0
H1134 H 0.34576 0.38941 0.77284 0.0
H1135 H 0.3132 0.40587 0.70703 0.0
H1136 H 0.3801 0.46543 0.71271 0.0
H1137 H 0.35502 0.42495 0.70601 0.0
H1138 H 0.34236 0.43308 0.78404 0.0
H1139 H 0.36797 0.47316 0.7908 0.0
C1140 C 0.31848 0.3615 0.75373 0.0
C1141 C 0.30206 0.35421 0.73343 0.0
C1142 C 0.33305 0.38456 0.75719 0.0
C1143 C 0.33146 0.40096 0.74049 0.0
C1144 C 0.31514 0.39357 0.72007 0.0
C1145 C 0.30064 0.37042 0.71655 0.0
C1146 C 0.37195 0.45857 0.72843 0.0
C1147 C 0.3761 0.47249 0.7523 0.0
C1148 C 0.35745 0.43542 0.72457 0.0
C1149 C 0.3467 0.4257 0.74448 0.0
C1150 C 0.3507 0.43977 0.76832 0.0
C1151 C 0.36527 0.46285 0.77219 0.0
H1152 H 0.27543 0.67441 0.85363 0.0
H1153 H 0.28663 0.67796 0.77691 0.0
H1154 H 0.30528 0.64446 0.85181 0.0
H1155 H 0.3159 0.64754 0.77491 0.0
H1156 H 0.38435 0.61064 0.78596 0.0
H1157 H 0.35701 0.64304 0.79015 0.0
H1158 H 0.30776 0.60086 0.83271 0.0
H1159 H 0.3352 0.56861 0.82883 0.0
C1160 C 0.28438 0.66891 0.83643 0.0
C1161 C 0.27864 0.6785 0.8154 0.0
C1162 C 0.30129 0.65158 0.83533 0.0
C1163 C 0.31291 0.64358 0.8132 0.0
C1164 C 0.30745 0.65349 0.79229 0.0
C1165 C 0.29048 0.67071 0.79336 0.0
C1166 C 0.36776 0.60833 0.79633 0.0
C1167 C 0.36192 0.58699 0.80699 0.0
C1168 C 0.35204 0.62684 0.79861 0.0
C1169 C 0.33019 0.62448 0.8117 0.0
C1170 C 0.32458 0.60336 0.82274 0.0
C1171 C 0.34025 0.5848 0.82038 0.0
H1172 H 0.95446 0.50176 0.51689 0.0
H1173 H 0.91257 0.55753 0.49726 0.0
H1174 H 0.91656 0.47863 0.52856 0.0
H1175 H 0.87459 0.53414 0.5085 0.0
H1176 H 0.81395 0.46392 0.50103 0.0
H1177 H 0.8513 0.48886 0.49089 0.0
H1178 H 0.88282 0.48826 0.56251 0.0
H1179 H 0.84528 0.46374 0.57293 0.0
C1180 C 0.93711 0.50897 0.51502 0.0
C1181 C 0.93633 0.53135 0.50618 0.0
C1182 C 0.91553 0.49586 0.5218 0.0
C1183 C 0.89275 0.50467 0.5194 0.0
C1184 C 0.89195 0.52697 0.51042 0.0
C1185 C 0.9136 0.54034 0.50411 0.0
C1186 C 0.8288 0.46923 0.51465 0.0
C1187 C 0.82672 0.46191 0.53778 0.0
C1188 C 0.85008 0.48355 0.50888 0.0
C1189 C 0.86986 0.49038 0.52593 0.0
C1190 C 0.86781 0.4831 0.54904 0.0
C1191 C 0.84633 0.46921 0.55502 0.0
H1192 H 0.72671 0.82498 0.77696 0.0
H1193 H 0.79302 0.87064 0.80721 0.0
H1194 H 0.7104 0.86177 0.76706 0.0
H1195 H 0.77676 0.9077 0.79749 0.0
H1196 H 0.74453 0.96552 0.75862 0.0
H1197 H 0.7632 0.92825 0.7633 0.0
H1198 H 0.6959 0.89836 0.79348 0.0
H1199 H 0.67721 0.93541 0.78876 0.0
C1200 C 0.73797 0.84289 0.78096 0.0
C1201 C 0.76108 0.84518 0.7926 0.0
C1202 C 0.72858 0.86395 0.77555 0.0
C1203 C 0.74219 0.88767 0.78175 0.0
C1204 C 0.76592 0.88967 0.79236 0.0
C1205 C 0.77524 0.86855 0.79789 0.0
C1206 C 0.73372 0.95098 0.76625 0.0
C1207 C 0.70936 0.95344 0.77331 0.0
C1208 C 0.74445 0.92969 0.76898 0.0
C1209 C 0.73097 0.9103 0.77858 0.0
C1210 C 0.70664 0.9128 0.78565 0.0
C1211 C 0.69599 0.93414 0.78313 0.0
H1212 H 0.61175 0.50448 0.95595 0.0
H1213 H 0.60652 0.52172 0.03501 0.0
H1214 H 0.65435 0.52383 0.95918 0.0
H1215 H 0.64931 0.54073 0.03822 0.0
H1216 H 0.73331 0.55619 0.03504 0.0
H1217 H 0.6927 0.5319 0.03104 0.0
H1218 H 0.67419 0.56762 0.97086 0.0
H1219 H 0.71477 0.59184 0.97475 0.0
C1220 C 0.61973 0.51228 0.97404 0.0
C1221 C 0.60561 0.5118 0.99521 0.0
C1222 C 0.64413 0.52335 0.97587 0.0
C1223 C 0.65509 0.53403 0.99892 0.0
C1224 C 0.64141 0.5325 0.0202 0.0
C1225 C 0.61691 0.52154 0.01836 0.0
C1226 C 0.72065 0.55874 0.02083 0.0
C1227 C 0.72726 0.576 0.00524 0.0
C1228 C 0.69734 0.54491 0.01865 0.0
C1229 C 0.68025 0.54784 1.00066 0.0
C1230 C 0.68705 0.56473 0.98474 0.0
C1231 C 0.71026 0.57872 0.98706 0.0
H1232 H 0.27928 0.68806 0.19954 0.0
H1233 H 0.28229 0.70651 0.27885 0.0
H1234 H 0.25023 0.65099 0.20179 0.0
H1235 H 0.25342 0.6697 0.28113 0.0
H1236 H 0.23108 0.58587 0.27591 0.0
H1237 H 0.25647 0.6247 0.27266 0.0
H1238 H 0.20841 0.63586 0.21441 0.0
H1239 H 0.18309 0.59686 0.21745 0.0
C1240 C 0.27333 0.68447 0.2174 0.0
C1241 C 0.28328 0.69996 0.23902 0.0
C1242 C 0.25677 0.66324 0.21871 0.0
C1243 C 0.24989 0.65718 0.24166 0.0
C1244 C 0.25883 0.6735 0.26319 0.0
C1245 C 0.27527 0.69463 0.26188 0.0
C1246 C 0.22591 0.59658 0.26241 0.0
C1247 C 0.20503 0.58826 0.24699 0.0
C1248 C 0.24037 0.61893 0.26065 0.0
C1249 C 0.23436 0.63345 0.24337 0.0
C1250 C 0.2136 0.62503 0.2278 0.0
C1251 C 0.19904 0.60273 0.22965 0.0
H1252 H 0.96176 0.55154 0.02823 0.0
H1253 H 0.90946 0.48874 0.037 0.0
H1254 H 0.92909 0.57098 0.01139 0.0
H1255 H 0.87656 0.50814 0.02028 0.0
H1256 H 0.82603 0.54568 0.97517 0.0
H1257 H 0.86048 0.52353 0.98353 0.0
H1258 H 0.89375 0.58947 0.03231 0.0
H1259 H 0.85951 0.61158 0.02401 0.0
C1260 C 0.94333 0.54164 0.02588 0.0
C1261 C 0.93795 0.51868 0.03362 0.0
C1262 C 0.92462 0.55282 0.0165 0.0
C1263 C 0.90022 0.5412 0.01477 0.0
C1264 C 0.8952 0.51745 0.02122 0.0
C1265 C 0.91396 0.50633 0.03074 0.0
C1266 C 0.84078 0.55549 0.98755 0.0
C1267 C 0.84 0.58038 0.99898 0.0
C1268 C 0.86045 0.54276 0.99238 0.0
C1269 C 0.87987 0.55479 0.00846 0.0
C1270 C 0.87925 0.5798 0.01954 0.0
C1271 C 0.85951 0.59241 0.01493 0.0
H1272 H 0.08161 0.01001 0.00372 0.0
H1273 H 0.11086 0.04241 0.07655 0.0
H1274 H 0.11578 0.98509 0.99709 0.0
H1275 H 0.14488 0.01726 0.07 0.0
H1276 H 0.17966 0.94374 0.06143 0.0
H1277 H 0.14842 0.97229 0.06649 0.0
H1278 H 0.16082 0.98665 0.99285 0.0
H1279 H 0.19192 0.95795 0.98767 0.0
C1280 C 0.09563 0.01228 0.0181 0.0
C1281 C 0.09338 0.0281 0.04074 0.0
C1282 C 0.11517 0.99788 0.01434 0.0
C1283 C 0.13285 0.99892 0.03316 0.0
C1284 C 0.13126 0.01563 0.05533 0.0
C1285 C 0.11181 0.0301 0.05905 0.0
C1286 C 0.17573 0.95296 0.04631 0.0
C1287 C 0.18828 0.94851 0.02414 0.0
C1288 C 0.15796 0.96949 0.04928 0.0
C1289 C 0.15222 0.98185 0.0301 0.0
C1290 C 0.16469 0.97731 0.0079 0.0
C1291 C 0.18258 0.9609 0.00499 0.0
loop_
_geom_bond_atom_site_label_1
_geom_bond_atom_site_label_2
_geom_bond_distance
_geom_bond_site_symmetry_2
_ccdc_geom_bond_type
H0 C3 0.929 . S
H1 C6 0.929 . S
H2 C8 0.930 . S
C3 H0 0.929 . S
C3 C4 1.398 . S
C3 C5 1.396 . S
C4 C3 1.398 . S
C4 C8 1.407 . S
C5 C3 1.396 . S
C5 C6 1.394 . S
C6 H1 0.929 . S
C6 C5 1.394 . S
C6 C7 1.382 . S
C7 C6 1.382 . S
C7 C8 1.392 . S
C7 N9 1.420 . S
C8 H2 0.930 . S
C8 C4 1.407 . S
C8 C7 1.392 . S
N9 C7 1.420 . S
N9 C10 1.244 . S
C10 N9 1.244 . S
H11 C14 0.929 . S
H12 C17 0.929 . S
H13 C19 0.930 . S
C14 H11 0.929 . S
C14 C15 1.398 . S
C14 C16 1.396 . S
C15 C14 1.398 . S
C15 C19 1.407 . S
C16 C14 1.396 . S
C16 C17 1.394 . S
C17 H12 0.929 . S
C17 C16 1.394 . S
C17 C18 1.382 . S
C18 C17 1.382 . S
C18 C19 1.392 . S
C18 N20 1.420 . S
C19 H13 0.930 . S
C19 C15 1.407 . S
C19 C18 1.392 . S
N20 C18 1.420 . S
N20 C21 1.244 . S
C21 N20 1.244 . S
H22 C25 0.929 . S
H23 C28 0.929 . S
H24 C30 0.930 1_556 S
C25 H22 0.929 . S
C25 C26 1.398 1_455 S
C25 C27 1.396 . S
C26 C25 1.398 1_655 S
C26 C30 1.407 . S
C27 C25 1.396 . S
C27 C28 1.394 1_455 S
C28 H23 0.929 . S
C28 C27 1.394 1_655 S
C28 C29 1.382 . S
C29 C28 1.382 . S
C29 C30 1.392 . S
C29 N31 1.420 . S
C30 H24 0.930 1_554 S
C30 C26 1.407 . S
C30 C29 1.392 . S
N31 C29 1.420 . S
N31 C32 1.244 . S
C32 N31 1.244 . S
H33 C36 0.929 . S
H34 C39 0.929 . S
H35 C41 0.930 . S
C36 H33 0.929 . S
C36 C37 1.398 . S
C36 C38 1.396 . S
C37 C36 1.398 . S
C37 C41 1.407 . S
C38 C36 1.396 . S
C38 C39 1.394 . S
C39 H34 0.929 . S
C39 C38 1.394 . S
C39 C40 1.382 . S
C40 C39 1.382 . S
C40 C41 1.392 . S
C40 N42 1.420 . S
C41 H35 0.930 . S
C41 C37 1.407 . S
C41 C40 1.392 . S
N42 C40 1.420 . S
N42 C43 1.244 . S
C43 N42 1.244 . S
H44 C47 0.929 . S
H45 C50 0.929 . S
H46 C52 0.930 . S
C47 H44 0.929 . S
C47 C48 1.398 1_545 S
C47 C49 1.396 1_545 S
C48 C47 1.398 1_565 S
C48 C52 1.407 . S
C49 C47 1.396 1_565 S
C49 C50 1.394 . S
C50 H45 0.929 . S
C50 C49 1.394 . S
C50 C51 1.382 . S
C51 C50 1.382 . S
C51 C52 1.392 . S
C51 N53 1.420 . S
C52 H46 0.930 . S
C52 C48 1.407 . S
C52 C51 1.392 . S
N53 C51 1.420 . S
N53 C54 1.244 . S
C54 N53 1.244 . S
H55 C58 0.929 . S
H56 C61 0.929 . S
H57 C63 0.930 . S
C58 H55 0.929 . S
C58 C59 1.398 . S
C58 C60 1.396 . S
C59 C58 1.398 . S
C59 C63 1.407 . S
C60 C58 1.396 . S
C60 C61 1.394 . S
C61 H56 0.929 . S
C61 C60 1.394 . S
C61 C62 1.382 . S
C62 C61 1.382 . S
C62 C63 1.392 . S
C62 N64 1.420 . S
C63 H57 0.930 . S
C63 C59 1.407 . S
C63 C62 1.392 . S
N64 C62 1.420 . S
N64 C65 1.244 . S
C65 N64 1.244 . S
H66 C69 0.929 . S
H67 C72 0.923 1_455 S
H68 C74 0.930 . S
C69 H66 0.929 . S
C69 C70 1.398 . S
C69 C71 1.396 . S
C70 C69 1.398 . S
C70 C74 1.407 . S
C71 C69 1.396 . S
C71 C72 1.399 . S
C72 H67 0.923 1_655 S
C72 C71 1.399 . S
C72 C73 1.383 . S
C73 C72 1.383 . S
C73 C74 1.392 . S
C73 N75 1.420 1_655 S
C74 H68 0.930 . S
C74 C70 1.407 . S
C74 C73 1.392 . S
N75 C73 1.420 1_455 S
N75 C76 1.244 . S
C76 N75 1.244 . S
H77 C80 0.929 . S
H78 C83 0.929 . S
H79 C85 0.930 . S
C80 H77 0.929 . S
C80 C81 1.398 . S
C80 C82 1.396 . S
C81 C80 1.398 . S
C81 C85 1.407 . S
C82 C80 1.396 . S
C82 C83 1.394 . S
C83 H78 0.929 . S
C83 C82 1.394 . S
C83 C84 1.382 . S
C84 C83 1.382 . S
C84 C85 1.392 . S
C84 N86 1.420 . S
C85 H79 0.930 . S
C85 C81 1.407 . S
C85 C84 1.392 . S
N86 C84 1.420 . S
N86 C87 1.244 . S
C87 N86 1.244 . S
H88 C91 0.929 . S
H89 C94 0.929 . S
H90 C96 0.930 . S
C91 H88 0.929 . S
C91 C92 1.398 . S
C91 C93 1.396 . S
C92 C91 1.398 . S
C92 C96 1.407 . S
C93 C91 1.396 . S
C93 C94 1.394 . S
C94 H89 0.929 . S
C94 C93 1.394 . S
C94 C95 1.382 . S
C95 C94 1.382 . S
C95 C96 1.392 . S
C95 N97 1.420 . S
C96 H90 0.930 . S
C96 C92 1.407 . S
C96 C95 1.392 . S
N97 C95 1.420 . S
N97 C98 1.244 . S
C98 N97 1.244 . S
H99 C102 0.929 . S
H100 C105 0.929 1_545 S
H101 C107 0.930 . S
C102 H99 0.929 . S
C102 C103 1.398 . S
C102 C104 1.396 . S
C103 C102 1.398 . S
C103 C107 1.407 . S
C104 C102 1.396 . S
C104 C105 1.394 . S
C105 H100 0.929 1_565 S
C105 C104 1.394 . S
C105 C106 1.382 . S
C106 C105 1.382 . S
C106 C107 1.392 . S
C106 N108 1.420 1_565 S
C107 H101 0.930 . S
C107 C103 1.407 . S
C107 C106 1.392 . S
N108 C106 1.420 1_545 S
N108 C109 1.244 . S
C109 N108 1.244 . S
H110 C113 0.929 . S
H111 C116 0.929 . S
H112 C118 0.930 . S
C113 H110 0.929 . S
C113 C114 1.398 . S
C113 C115 1.396 . S
C114 C113 1.398 . S
C114 C118 1.407 . S
C115 C113 1.396 . S
C115 C116 1.394 . S
C116 H111 0.929 . S
C116 C115 1.394 . S
C116 C117 1.382 . S
C117 C116 1.382 . S
C117 C118 1.392 . S
C117 N119 1.420 . S
C118 H112 0.930 . S
C118 C114 1.407 . S
C118 C117 1.392 . S
N119 C117 1.420 . S
N119 C120 1.244 . S
C120 N119 1.244 . S
H121 C124 0.929 . S
H122 C127 0.929 . S
H123 C129 0.930 . S
C124 H121 0.929 . S
C124 C125 1.398 . S
C124 C126 1.396 . S
C125 C124 1.398 . S
C125 C129 1.407 . S
C126 C124 1.396 . S
C126 C127 1.394 . S
C127 H122 0.929 . S
C127 C126 1.394 . S
C127 C128 1.382 . S
C128 C127 1.382 . S
C128 C129 1.392 . S
C128 N130 1.420 . S
C129 H123 0.930 . S
C129 C125 1.407 . S
C129 C128 1.392 . S
N130 C128 1.420 . S
N130 C131 1.244 . S
C131 N130 1.244 . S
H132 C135 0.929 . S
H133 C138 0.929 . S
H134 C140 0.930 . S
C135 H132 0.929 . S
C135 C136 1.398 . S
C135 C137 1.396 . S
C136 C135 1.398 . S
C136 C140 1.407 . S
C137 C135 1.396 . S
C137 C138 1.394 . S
C138 H133 0.929 . S
C138 C137 1.394 . S
C138 C139 1.382 . S
C139 C138 1.382 . S
C139 C140 1.392 . S
C139 N141 1.420 . S
C140 H134 0.930 . S
C140 C136 1.407 . S
C140 C139 1.392 . S
N141 C139 1.420 . S
N141 C142 1.244 . S
C142 N141 1.244 . S
H143 C146 0.929 . S
H144 C149 0.929 . S
H145 C151 0.930 . S
C146 H143 0.929 . S
C146 C147 1.398 . S
C146 C148 1.396 . S
C147 C146 1.398 . S
C147 C151 1.407 . S
C148 C146 1.396 . S
C148 C149 1.394 1_556 S
C149 H144 0.929 . S
C149 C148 1.394 1_554 S
C149 C150 1.382 1_554 S
C150 C149 1.382 1_556 S
C150 C151 1.392 . S
C150 N152 1.420 1_556 S
C151 H145 0.930 . S
C151 C147 1.407 . S
C151 C150 1.392 . S
N152 C150 1.420 1_554 S
N152 C153 1.244 . S
C153 N152 1.244 . S
H154 C157 0.929 . S
H155 C160 0.929 . S
H156 C162 0.930 . S
C157 H154 0.929 . S
C157 C158 1.398 . S
C157 C159 1.396 . S
C158 C157 1.398 . S
C158 C162 1.407 . S
C159 C157 1.396 . S
C159 C160 1.394 . S
C160 H155 0.929 . S
C160 C159 1.394 . S
C160 C161 1.382 . S
C161 C160 1.382 . S
C161 C162 1.392 . S
C161 N163 1.420 . S
C162 H156 0.930 . S
C162 C158 1.407 . S
C162 C161 1.392 . S
N163 C161 1.420 . S
N163 C164 1.244 . S
C164 N163 1.244 . S
H165 C168 0.929 1_554 S
H166 C171 0.929 . S
H167 C173 0.969 . S
C168 H165 0.929 1_556 S
C168 C169 1.398 . S
C168 C170 1.396 . S
C169 C168 1.398 . S
C169 C173 1.407 . S
C170 C168 1.396 . S
C170 C171 1.394 . S
C171 H166 0.929 . S
C171 C170 1.394 . S
C171 C172 1.382 . S
C172 C171 1.382 . S
C172 C173 1.392 . S
C172 N174 1.420 . S
C173 H167 0.969 . S
C173 C169 1.407 . S
C173 C172 1.392 . S
N174 C172 1.420 . S
N174 C175 1.244 . S
C175 N174 1.244 . S
C176 O177 1.160 . S
C176 O183 1.185 . S
O177 C176 1.160 . S
O178 Zn179 1.899 . S
O178 C186 1.284 . S
Zn179 O178 1.899 . S
Zn179 O180 2.032 . S
Zn179 O183 2.086 . S
Zn179 O188 1.977 . S
O180 Zn179 2.032 . S
O180 C184 1.278 . S
C181 O182 1.203 . S
C181 O188 1.267 . S
O182 C181 1.203 . S
O183 C176 1.185 . S
O183 Zn179 2.086 . S
C184 O180 1.278 . S
C184 O185 1.211 . S
O185 C184 1.211 . S
C186 O178 1.284 . S
C186 O187 1.273 . S
O187 C186 1.273 . S
O188 Zn179 1.977 . S
O188 C181 1.267 . S
C189 O190 1.160 . S
C189 O196 1.185 . S
O190 C189 1.160 . S
O191 Zn192 1.899 . S
O191 C199 1.284 . S
Zn192 O191 1.899 . S
Zn192 O193 2.032 . S
Zn192 O196 2.086 . S
Zn192 O201 1.977 . S
O193 Zn192 2.032 . S
O193 C197 1.278 . S
C194 O195 1.203 . S
C194 O201 1.267 . S
O195 C194 1.203 . S
O196 C189 1.185 . S
O196 Zn192 2.086 . S
C197 O193 1.278 . S
C197 O198 1.211 . S
O198 C197 1.211 . S
C199 O191 1.284 . S
C199 O200 1.273 . S
O200 C199 1.273 . S
O201 Zn192 1.977 . S
O201 C194 1.267 . S
C202 O203 1.178 . S
C202 O209 1.173 1_556 S
O203 C202 1.178 . S
O204 Zn205 1.899 1_556 S
O204 C212 1.284 . S
Zn205 O204 1.899 1_554 S
Zn205 O206 2.032 1_554 S
Zn205 O209 2.086 . S
Zn205 O214 1.977 . S
O206 Zn205 2.032 1_556 S
O206 C210 1.278 . S
C207 O208 1.203 . S
C207 O214 1.267 . S
O208 C207 1.203 . S
O209 C202 1.173 1_554 S
O209 Zn205 2.086 . S
C210 O206 1.278 . S
C210 O211 1.211 1_556 S
O211 C210 1.211 1_554 S
C212 O204 1.284 . S
C212 O213 1.273 . S
O213 C212 1.273 . S
O214 Zn205 1.977 . S
O214 C207 1.267 . S
C215 O216 1.160 . S
C215 O222 1.185 . S
O216 C215 1.160 . S
O217 Zn218 1.899 . S
O217 C225 1.284 . S
Zn218 O217 1.899 . S
Zn218 O219 2.032 . S
Zn218 O222 2.086 . S
Zn218 O227 1.977 . S
O219 Zn218 2.032 . S
O219 C223 1.278 1_545 S
C220 O221 1.203 . S
C220 O227 1.267 . S
O221 C220 1.203 . S
O222 C215 1.185 . S
O222 Zn218 2.086 . S
C223 O219 1.278 1_565 S
C223 O224 1.211 . S
O224 C223 1.211 . S
C225 O217 1.284 . S
C225 O226 1.273 . S
O226 C225 1.273 . S
O227 Zn218 1.977 . S
O227 C220 1.267 . S
C228 O229 1.160 . S
C228 O235 1.185 . S
O229 C228 1.160 . S
O230 Zn231 1.899 . S
O230 C238 1.284 . S
Zn231 O230 1.899 . S
Zn231 O232 2.032 . S
Zn231 O235 2.086 . S
Zn231 O240 1.977 . S
O232 Zn231 2.032 . S
O232 C236 1.278 . S
C233 O234 1.203 . S
C233 O240 1.267 . S
O234 C233 1.203 . S
O235 C228 1.185 . S
O235 Zn231 2.086 . S
C236 O232 1.278 . S
C236 O237 1.211 . S
O237 C236 1.211 . S
C238 O230 1.284 . S
C238 O239 1.273 . S
O239 C238 1.273 . S
O240 Zn231 1.977 . S
O240 C233 1.267 . S
C241 O242 1.160 . S
C241 O248 1.185 . S
O242 C241 1.160 . S
O243 Zn244 1.899 . S
O243 C251 1.284 . S
Zn244 O243 1.899 . S
Zn244 O245 2.032 . S
Zn244 O248 2.086 . S
Zn244 O253 1.977 . S
O245 Zn244 2.032 . S
O245 C249 1.278 . S
C246 O247 1.203 . S
C246 O253 1.267 . S
O247 C246 1.203 . S
O248 C241 1.185 . S
O248 Zn244 2.086 . S
C249 O245 1.278 . S
C249 O250 1.211 . S
O250 C249 1.211 . S
C251 O243 1.284 . S
C251 O252 1.273 . S
O252 C251 1.273 . S
O253 Zn244 1.977 . S
O253 C246 1.267 . S
C254 O255 1.160 . S
C254 O261 1.185 . S
O255 C254 1.160 . S
O256 Zn257 1.899 . S
O256 C264 1.284 . S
Zn257 O256 1.899 . S
Zn257 O258 2.032 . S
Zn257 O261 2.086 . S
Zn257 O266 1.977 . S
O258 Zn257 2.032 . S
O258 C262 1.278 . S
C259 O260 1.203 . S
C259 O266 1.267 . S
O260 C259 1.203 . S
O261 C254 1.185 . S
O261 Zn257 2.086 . S
C262 O258 1.278 . S
C262 O263 1.211 . S
O263 C262 1.211 . S
C264 O256 1.284 . S
C264 O265 1.273 . S
O265 C264 1.273 . S
O266 Zn257 1.977 . S
O266 C259 1.267 . S
C267 O268 1.160 . S
C267 O274 1.185 . S
O268 C267 1.160 . S
O269 Zn270 1.899 . S
O269 C277 1.284 1_565 S
Zn270 O269 1.899 . S
Zn270 O271 2.032 1_565 S
Zn270 O274 2.086 . S
Zn270 O279 1.977 . S
O271 Zn270 2.032 1_545 S
O271 C275 1.278 . S
C272 O273 1.203 1_565 S
C272 O279 1.267 . S
O273 C272 1.203 1_545 S
O274 C267 1.185 . S
O274 Zn270 2.086 . S
C275 O271 1.278 . S
C275 O276 1.211 . S
O276 C275 1.211 . S
C277 O269 1.284 1_545 S
C277 O278 1.273 . S
O278 C277 1.273 . S
O279 Zn270 1.977 . S
O279 C272 1.267 . S
C280 O281 1.183 . S
C280 O287 1.185 . S
O281 C280 1.183 . S
O282 Zn283 1.885 1_655 S
O282 C290 1.303 . S
Zn283 O282 1.885 1_455 S
Zn283 O284 2.032 . S
Zn283 O287 2.086 . S
Zn283 O292 1.977 . S
O284 Zn283 2.032 . S
O284 C288 1.278 . S
C285 O286 1.203 . S
C285 O292 1.267 . S
O286 C285 1.203 . S
O287 C280 1.185 . S
O287 Zn283 2.086 . S
C288 O284 1.278 . S
C288 O289 1.211 . S
O289 C288 1.211 . S
C290 O282 1.303 . S
C290 O291 1.273 . S
O291 C290 1.273 . S
O292 Zn283 1.977 . S
O292 C285 1.267 . S
C293 O294 1.160 . S
C293 O300 1.185 . S
O294 C293 1.160 . S
O295 Zn296 1.899 . S
O295 C303 1.284 . S
Zn296 O295 1.899 . S
Zn296 O297 2.032 . S
Zn296 O300 2.086 . S
Zn296 O305 1.977 . S
O297 Zn296 2.032 . S
O297 C301 1.278 . S
C298 O299 1.203 . S
C298 O305 1.267 . S
O299 C298 1.203 . S
O300 C293 1.185 . S
O300 Zn296 2.086 . S
C301 O297 1.278 . S
C301 O302 1.211 . S
O302 C301 1.211 . S
C303 O295 1.284 . S
C303 O304 1.273 . S
O304 C303 1.273 . S
O305 Zn296 1.977 . S
O305 C298 1.267 . S
C306 O307 1.160 1_455 S
C306 O313 1.185 . S
O307 C306 1.160 1_655 S
O308 Zn309 1.899 1_655 S
O308 C316 1.284 . S
Zn309 O308 1.899 1_455 S
Zn309 O310 2.032 . S
Zn309 O313 2.086 . S
Zn309 O318 1.977 . S
O310 Zn309 2.032 . S
O310 C314 1.278 . S
C311 O312 1.203 . S
C311 O318 1.267 . S
O312 C311 1.203 . S
O313 C306 1.185 . S
O313 Zn309 2.086 . S
C314 O310 1.278 . S
C314 O315 1.211 . S
O315 C314 1.211 . S
C316 O308 1.284 . S
C316 O317 1.273 . S
O317 C316 1.273 . S
O318 Zn309 1.977 . S
O318 C311 1.267 . S
C319 O320 1.160 . S
C319 O326 1.185 . S
O320 C319 1.160 . S
O321 Zn322 1.899 . S
O321 C329 1.284 . S
Zn322 O321 1.899 . S
Zn322 O323 2.032 . S
Zn322 O326 2.086 . S
Zn322 O331 1.977 . S
O323 Zn322 2.032 . S
O323 C327 1.278 . S
C324 O325 1.203 . S
C324 O331 1.267 . S
O325 C324 1.203 . S
O326 C319 1.185 . S
O326 Zn322 2.086 . S
C327 O323 1.278 . S
C327 O328 1.211 . S
O328 C327 1.211 . S
C329 O321 1.284 . S
C329 O330 1.273 . S
O330 C329 1.273 . S
O331 Zn322 1.977 . S
O331 C324 1.267 . S
H332 C340 0.950 . S
H333 C345 0.950 . S
H334 C342 0.950 . S
H335 C344 0.950 . S
H336 C346 0.950 . S
H337 C348 0.950 . S
H338 C350 0.950 . S
H339 C351 0.950 . S
C340 H332 0.950 . S
C340 C341 1.386 . S
C340 C342 1.391 . S
C341 C340 1.386 . S
C341 C345 1.393 . S
C342 H334 0.950 . S
C342 C340 1.391 . S
C342 C343 1.400 . S
C343 C342 1.400 . S
C343 C344 1.398 . S
C343 C349 1.491 . S
C344 H335 0.950 . S
C344 C343 1.398 . S
C344 C345 1.391 . S
C345 H333 0.950 . S
C345 C341 1.393 . S
C345 C344 1.391 . S
C346 H336 0.950 . S
C346 C347 1.386 . S
C346 C348 1.391 . S
C347 C346 1.386 . S
C347 C351 1.393 . S
C348 H337 0.950 . S
C348 C346 1.391 . S
C348 C349 1.400 . S
C349 C343 1.491 . S
C349 C348 1.400 . S
C349 C350 1.398 . S
C350 H338 0.950 . S
C350 C349 1.398 . S
C350 C351 1.391 . S
C351 H339 0.950 . S
C351 C347 1.393 . S
C351 C350 1.391 . S
H352 C360 0.950 . S
H353 C365 0.950 . S
H354 C362 0.950 . S
H355 C364 0.950 . S
H356 C366 0.950 . S
H357 C368 0.950 . S
H358 C370 0.950 . S
H359 C371 0.950 . S
C360 H352 0.950 . S
C360 C361 1.386 . S
C360 C362 1.391 . S
C361 C360 1.386 . S
C361 C365 1.393 . S
C362 H354 0.950 . S
C362 C360 1.391 . S
C362 C363 1.400 . S
C363 C362 1.400 . S
C363 C364 1.398 . S
C363 C369 1.491 . S
C364 H355 0.950 . S
C364 C363 1.398 . S
C364 C365 1.391 . S
C365 H353 0.950 . S
C365 C361 1.393 . S
C365 C364 1.391 . S
C366 H356 0.950 . S
C366 C367 1.386 . S
C366 C368 1.391 . S
C367 C366 1.386 . S
C367 C371 1.393 . S
C368 H357 0.950 . S
C368 C366 1.391 . S
C368 C369 1.400 . S
C369 C363 1.491 . S
C369 C368 1.400 . S
C369 C370 1.398 . S
C370 H358 0.950 . S
C370 C369 1.398 . S
C370 C371 1.391 . S
C371 H359 0.950 . S
C371 C367 1.393 . S
C371 C370 1.391 . S
H372 C380 0.950 . S
H373 C385 0.950 . S
H374 C382 0.950 . S
H375 C384 0.950 . S
H376 C386 0.950 . S
H377 C388 0.950 . S
H378 C390 0.950 . S
H379 C391 0.950 . S
C380 H372 0.950 . S
C380 C381 1.386 . S
C380 C382 1.391 . S
C381 C380 1.386 . S
C381 C385 1.393 . S
C382 H374 0.950 . S
C382 C380 1.391 . S
C382 C383 1.400 . S
C383 C382 1.400 . S
C383 C384 1.398 . S
C383 C389 1.491 . S
C384 H375 0.950 . S
C384 C383 1.398 . S
C384 C385 1.391 . S
C385 H373 0.950 . S
C385 C381 1.393 . S
C385 C384 1.391 . S
C386 H376 0.950 . S
C386 C387 1.386 . S
C386 C388 1.391 . S
C387 C386 1.386 . S
C387 C391 1.393 . S
C388 H377 0.950 . S
C388 C386 1.391 . S
C388 C389 1.400 . S
C389 C383 1.491 . S
C389 C388 1.400 . S
C389 C390 1.398 . S
C390 H378 0.950 . S
C390 C389 1.398 . S
C390 C391 1.391 . S
C391 H379 0.950 . S
C391 C387 1.393 . S
C391 C390 1.391 . S
H392 C400 0.950 . S
H393 C405 0.950 . S
H394 C402 0.950 1_655 S
H395 C404 0.950 . S
H396 C406 0.950 . S
H397 C408 0.950 1_465 S
H398 C410 0.950 . S
H399 C411 0.950 . S
C400 H392 0.950 . S
C400 C401 1.386 1_545 S
C400 C402 1.391 . S
C401 C400 1.386 1_565 S
C401 C405 1.393 . S
C402 H394 0.950 1_455 S
C402 C400 1.391 . S
C402 C403 1.400 . S
C403 C402 1.400 . S
C403 C404 1.398 1_545 S
C403 C409 1.491 1_455 S
C404 H395 0.950 . S
C404 C403 1.398 1_565 S
C404 C405 1.391 . S
C405 H393 0.950 . S
C405 C401 1.393 . S
C405 C404 1.391 . S
C406 H396 0.950 . S
C406 C407 1.386 . S
C406 C408 1.391 . S
C407 C406 1.386 . S
C407 C411 1.393 . S
C408 H397 0.950 1_645 S
C408 C406 1.391 . S
C408 C409 1.400 . S
C409 C403 1.491 1_655 S
C409 C408 1.400 . S
C409 C410 1.398 . S
C410 H398 0.950 . S
C410 C409 1.398 . S
C410 C411 1.391 . S
C411 H399 0.950 . S
C411 C407 1.393 . S
C411 C410 1.391 . S
H412 C420 0.950 . S
H413 C425 0.950 . S
H414 C422 0.950 . S
H415 C424 0.950 . S
H416 C426 0.950 . S
H417 C428 0.950 . S
H418 C430 0.950 . S
H419 C431 0.950 . S
C420 H412 0.950 . S
C420 C421 1.386 . S
C420 C422 1.391 . S
C421 C420 1.386 . S
C421 C425 1.393 . S
C422 H414 0.950 . S
C422 C420 1.391 . S
C422 C423 1.400 . S
C423 C422 1.400 . S
C423 C424 1.398 . S
C423 C429 1.491 . S
C424 H415 0.950 . S
C424 C423 1.398 . S
C424 C425 1.391 . S
C425 H413 0.950 . S
C425 C421 1.393 . S
C425 C424 1.391 . S
C426 H416 0.950 . S
C426 C427 1.386 . S
C426 C428 1.391 . S
C427 C426 1.386 . S
C427 C431 1.393 . S
C428 H417 0.950 . S
C428 C426 1.391 . S
C428 C429 1.400 . S
C429 C423 1.491 . S
C429 C428 1.400 . S
C429 C430 1.398 . S
C430 H418 0.950 . S
C430 C429 1.398 . S
C430 C431 1.391 . S
C431 H419 0.950 . S
C431 C427 1.393 . S
C431 C430 1.391 . S
H432 C440 0.950 . S
H433 C445 0.950 . S
H434 C442 0.950 . S
H435 C444 0.950 . S
H436 C446 0.950 . S
H437 C448 0.950 . S
H438 C450 0.950 . S
H439 C451 0.950 . S
C440 H432 0.950 . S
C440 C441 1.386 . S
C440 C442 1.391 . S
C441 C440 1.386 . S
C441 C445 1.393 . S
C442 H434 0.950 . S
C442 C440 1.391 . S
C442 C443 1.400 . S
C443 C442 1.400 . S
C443 C444 1.398 . S
C443 C449 1.491 . S
C444 H435 0.950 . S
C444 C443 1.398 . S
C444 C445 1.391 . S
C445 H433 0.950 . S
C445 C441 1.393 . S
C445 C444 1.391 . S
C446 H436 0.950 . S
C446 C447 1.386 . S
C446 C448 1.391 . S
C447 C446 1.386 . S
C447 C451 1.393 . S
C448 H437 0.950 . S
C448 C446 1.391 . S
C448 C449 1.400 . S
C449 C443 1.491 . S
C449 C448 1.400 . S
C449 C450 1.398 . S
C450 H438 0.950 . S
C450 C449 1.398 . S
C450 C451 1.391 . S
C451 H439 0.950 . S
C451 C447 1.393 . S
C451 C450 1.391 . S
H452 C460 0.950 . S
H453 C465 0.950 . S
H454 C462 0.950 . S
H455 C464 0.950 . S
H456 C466 0.950 . S
H457 C468 0.950 . S
H458 C470 0.950 . S
H459 C471 0.950 . S
C460 H452 0.950 . S
C460 C461 1.386 . S
C460 C462 1.391 . S
C461 C460 1.386 . S
C461 C465 1.393 . S
C462 H454 0.950 . S
C462 C460 1.391 . S
C462 C463 1.400 . S
C463 C462 1.400 . S
C463 C464 1.398 . S
C463 C469 1.491 . S
C464 H455 0.950 . S
C464 C463 1.398 . S
C464 C465 1.391 . S
C465 H453 0.950 . S
C465 C461 1.393 . S
C465 C464 1.391 . S
C466 H456 0.950 . S
C466 C467 1.386 . S
C466 C468 1.391 . S
C467 C466 1.386 . S
C467 C471 1.393 . S
C468 H457 0.950 . S
C468 C466 1.391 . S
C468 C469 1.400 . S
C469 C463 1.491 . S
C469 C468 1.400 . S
C469 C470 1.398 . S
C470 H458 0.950 . S
C470 C469 1.398 . S
C470 C471 1.391 . S
C471 H459 0.950 . S
C471 C467 1.393 . S
C471 C470 1.391 . S
H472 C480 0.950 . S
H473 C485 0.950 1_545 S
H474 C482 0.950 . S
H475 C484 0.950 1_545 S
H476 C486 0.950 . S
H477 C488 0.950 . S
H478 C490 0.950 . S
H479 C491 0.950 . S
C480 H472 0.950 . S
C480 C481 1.386 . S
C480 C482 1.391 . S
C481 C480 1.386 . S
C481 C485 1.393 . S
C482 H474 0.950 . S
C482 C480 1.391 . S
C482 C483 1.400 . S
C483 C482 1.400 . S
C483 C484 1.398 . S
C483 C489 1.491 . S
C484 H475 0.950 1_565 S
C484 C483 1.398 . S
C484 C485 1.391 . S
C485 H473 0.950 1_565 S
C485 C481 1.393 . S
C485 C484 1.391 . S
C486 H476 0.950 . S
C486 C487 1.386 1_545 S
C486 C488 1.391 . S
C487 C486 1.386 1_565 S
C487 C491 1.393 . S
C488 H477 0.950 . S
C488 C486 1.391 . S
C488 C489 1.400 1_545 S
C489 C483 1.491 . S
C489 C488 1.400 1_565 S
C489 C490 1.398 . S
C490 H478 0.950 . S
C490 C489 1.398 . S
C490 C491 1.391 . S
C491 H479 0.950 . S
C491 C487 1.393 . S
C491 C490 1.391 . S
H492 C500 0.950 . S
H493 C505 0.950 . S
H494 C502 0.950 . S
H495 C504 0.950 . S
H496 C506 0.950 . S
H497 C508 0.950 . S
H498 C510 0.950 . S
H499 C511 0.950 . S
C500 H492 0.950 . S
C500 C501 1.386 . S
C500 C502 1.391 . S
C501 C500 1.386 . S
C501 C505 1.393 . S
C502 H494 0.950 . S
C502 C500 1.391 . S
C502 C503 1.400 . S
C503 C502 1.400 . S
C503 C504 1.398 . S
C503 C509 1.491 . S
C504 H495 0.950 . S
C504 C503 1.398 . S
C504 C505 1.391 . S
C505 H493 0.950 . S
C505 C501 1.393 . S
C505 C504 1.391 . S
C506 H496 0.950 . S
C506 C507 1.386 . S
C506 C508 1.391 . S
C507 C506 1.386 . S
C507 C511 1.393 . S
C508 H497 0.950 . S
C508 C506 1.391 . S
C508 C509 1.400 . S
C509 C503 1.491 . S
C509 C508 1.400 . S
C509 C510 1.398 . S
C510 H498 0.950 . S
C510 C509 1.398 . S
C510 C511 1.391 . S
C511 H499 0.950 . S
C511 C507 1.393 . S
C511 C510 1.391 . S
H512 C520 0.950 . S
H513 C525 0.950 . S
H514 C522 0.950 . S
H515 C524 0.950 . S
H516 C526 0.950 . S
H517 C528 0.950 . S
H518 C530 0.950 . S
H519 C531 0.950 . S
C520 H512 0.950 . S
C520 C521 1.386 . S
C520 C522 1.391 . S
C521 C520 1.386 . S
C521 C525 1.393 . S
C522 H514 0.950 . S
C522 C520 1.391 . S
C522 C523 1.400 . S
C523 C522 1.400 . S
C523 C524 1.398 . S
C523 C529 1.491 . S
C524 H515 0.950 . S
C524 C523 1.398 . S
C524 C525 1.391 . S
C525 H513 0.950 . S
C525 C521 1.393 . S
C525 C524 1.391 . S
C526 H516 0.950 . S
C526 C527 1.386 . S
C526 C528 1.391 . S
C527 C526 1.386 . S
C527 C531 1.393 . S
C528 H517 0.950 . S
C528 C526 1.391 . S
C528 C529 1.400 . S
C529 C523 1.491 . S
C529 C528 1.400 . S
C529 C530 1.398 . S
C530 H518 0.950 . S
C530 C529 1.398 . S
C530 C531 1.391 . S
C531 H519 0.950 . S
C531 C527 1.393 . S
C531 C530 1.391 . S
H532 C540 0.950 . S
H533 C545 0.950 . S
H534 C542 0.950 . S
H535 C544 0.950 . S
H536 C546 0.950 . S
H537 C548 0.950 . S
H538 C550 0.950 . S
H539 C551 0.950 . S
C540 H532 0.950 . S
C540 C541 1.386 . S
C540 C542 1.391 . S
C541 C540 1.386 . S
C541 C545 1.393 . S
C542 H534 0.950 . S
C542 C540 1.391 . S
C542 C543 1.400 . S
C543 C542 1.400 . S
C543 C544 1.398 . S
C543 C549 1.491 . S
C544 H535 0.950 . S
C544 C543 1.398 . S
C544 C545 1.391 . S
C545 H533 0.950 . S
C545 C541 1.393 . S
C545 C544 1.391 . S
C546 H536 0.950 . S
C546 C547 1.386 . S
C546 C548 1.391 . S
C547 C546 1.386 . S
C547 C551 1.393 . S
C548 H537 0.950 . S
C548 C546 1.391 . S
C548 C549 1.400 . S
C549 C543 1.491 . S
C549 C548 1.400 . S
C549 C550 1.398 . S
C550 H538 0.950 . S
C550 C549 1.398 . S
C550 C551 1.391 . S
C551 H539 0.950 . S
C551 C547 1.393 . S
C551 C550 1.391 . S
H552 C560 0.950 . S
H553 C565 0.950 . S
H554 C562 0.950 . S
H555 C564 0.950 . S
H556 C566 0.950 . S
H557 C568 0.950 . S
H558 C570 0.950 . S
H559 C571 0.950 . S
C560 H552 0.950 . S
C560 C561 1.386 . S
C560 C562 1.391 . S
C561 C560 1.386 . S
C561 C565 1.393 . S
C562 H554 0.950 . S
C562 C560 1.391 . S
C562 C563 1.400 . S
C563 C562 1.400 . S
C563 C564 1.398 . S
C563 C569 1.491 . S
C564 H555 0.950 . S
C564 C563 1.398 . S
C564 C565 1.391 . S
C565 H553 0.950 . S
C565 C561 1.393 . S
C565 C564 1.391 . S
C566 H556 0.950 . S
C566 C567 1.386 . S
C566 C568 1.391 . S
C567 C566 1.386 . S
C567 C571 1.393 . S
C568 H557 0.950 . S
C568 C566 1.391 . S
C568 C569 1.400 . S
C569 C563 1.491 . S
C569 C568 1.400 . S
C569 C570 1.398 . S
C570 H558 0.950 . S
C570 C569 1.398 . S
C570 C571 1.391 . S
C571 H559 0.950 . S
C571 C567 1.393 . S
C571 C570 1.391 . S
H572 C580 0.950 . S
H573 C585 0.950 . S
H574 C582 0.950 . S
H575 C584 0.950 . S
H576 C586 0.950 . S
H577 C588 0.950 . S
H578 C590 0.950 . S
H579 C591 0.950 . S
C580 H572 0.950 . S
C580 C581 1.386 . S
C580 C582 1.391 . S
C581 C580 1.386 . S
C581 C585 1.393 . S
C582 H574 0.950 . S
C582 C580 1.391 . S
C582 C583 1.400 . S
C583 C582 1.400 . S
C583 C584 1.398 . S
C583 C589 1.491 . S
C584 H575 0.950 . S
C584 C583 1.398 . S
C584 C585 1.391 . S
C585 H573 0.950 . S
C585 C581 1.393 . S
C585 C584 1.391 . S
C586 H576 0.950 . S
C586 C587 1.386 . S
C586 C588 1.391 . S
C587 C586 1.386 . S
C587 C591 1.393 . S
C588 H577 0.950 . S
C588 C586 1.391 . S
C588 C589 1.400 . S
C589 C583 1.491 . S
C589 C588 1.400 . S
C589 C590 1.398 . S
C590 H578 0.950 . S
C590 C589 1.398 . S
C590 C591 1.391 . S
C591 H579 0.950 . S
C591 C587 1.393 . S
C591 C590 1.391 . S
H592 C600 0.950 . S
H593 C605 0.950 . S
H594 C602 0.950 . S
H595 C604 0.950 . S
H596 C606 0.950 . S
H597 C608 0.950 . S
H598 C610 0.950 . S
H599 C611 0.950 . S
C600 H592 0.950 . S
C600 C601 1.386 . S
C600 C602 1.391 . S
C601 C600 1.386 . S
C601 C605 1.393 . S
C602 H594 0.950 . S
C602 C600 1.391 . S
C602 C603 1.400 . S
C603 C602 1.400 . S
C603 C604 1.398 . S
C603 C609 1.491 . S
C604 H595 0.950 . S
C604 C603 1.398 . S
C604 C605 1.391 . S
C605 H593 0.950 . S
C605 C601 1.393 . S
C605 C604 1.391 . S
C606 H596 0.950 . S
C606 C607 1.386 . S
C606 C608 1.391 . S
C607 C606 1.386 . S
C607 C611 1.393 . S
C608 H597 0.950 . S
C608 C606 1.391 . S
C608 C609 1.400 . S
C609 C603 1.491 . S
C609 C608 1.400 . S
C609 C610 1.398 . S
C610 H598 0.950 . S
C610 C609 1.398 . S
C610 C611 1.391 . S
C611 H599 0.950 . S
C611 C607 1.393 . S
C611 C610 1.391 . S
H612 C620 0.950 . S
H613 C625 0.950 . S
H614 C622 0.950 . S
H615 C624 0.950 . S
H616 C626 0.950 . S
H617 C628 0.950 . S
H618 C630 0.950 . S
H619 C631 0.950 . S
C620 H612 0.950 . S
C620 C621 1.386 . S
C620 C622 1.391 . S
C621 C620 1.386 . S
C621 C625 1.393 . S
C622 H614 0.950 . S
C622 C620 1.391 . S
C622 C623 1.400 . S
C623 C622 1.400 . S
C623 C624 1.398 . S
C623 C629 1.491 . S
C624 H615 0.950 . S
C624 C623 1.398 . S
C624 C625 1.391 . S
C625 H613 0.950 . S
C625 C621 1.393 . S
C625 C624 1.391 . S
C626 H616 0.950 . S
C626 C627 1.386 . S
C626 C628 1.391 . S
C627 C626 1.386 . S
C627 C631 1.393 . S
C628 H617 0.950 . S
C628 C626 1.391 . S
C628 C629 1.400 . S
C629 C623 1.491 . S
C629 C628 1.400 . S
C629 C630 1.398 . S
C630 H618 0.950 . S
C630 C629 1.398 . S
C630 C631 1.391 . S
C631 H619 0.950 . S
C631 C627 1.393 . S
C631 C630 1.391 . S
H632 C640 0.950 . S
H633 C645 0.950 . S
H634 C642 0.950 . S
H635 C644 0.950 . S
H636 C646 0.949 . S
H637 C648 0.950 . S
H638 C650 0.950 . S
H639 C651 0.950 . S
C640 H632 0.950 . S
C640 C641 1.386 . S
C640 C642 1.391 . S
C641 C640 1.386 . S
C641 C645 1.393 . S
C642 H634 0.950 . S
C642 C640 1.391 . S
C642 C643 1.400 . S
C643 C642 1.400 . S
C643 C644 1.398 . S
C643 C649 1.491 . S
C644 H635 0.950 . S
C644 C643 1.398 . S
C644 C645 1.391 . S
C645 H633 0.950 . S
C645 C641 1.393 . S
C645 C644 1.391 . S
C646 H636 0.949 . S
C646 C647 1.386 . S
C646 C648 1.393 1_455 S
C647 C646 1.386 . S
C647 C651 1.394 1_455 S
C648 H637 0.950 . S
C648 C646 1.393 1_655 S
C648 C649 1.400 . S
C649 C643 1.491 . S
C649 C648 1.400 . S
C649 C650 1.398 . S
C650 H638 0.950 . S
C650 C649 1.398 . S
C650 C651 1.391 . S
C651 H639 0.950 . S
C651 C647 1.394 1_655 S
C651 C650 1.391 . S
H652 C660 0.950 . S
H653 C665 0.950 . S
H654 C662 0.950 . S
H655 C664 0.950 . S
H656 C666 0.950 . S
H657 C668 0.950 . S
H658 C670 0.950 . S
H659 C671 0.950 . S
C660 H652 0.950 . S
C660 C661 1.386 . S
C660 C662 1.391 . S
C661 C660 1.386 . S
C661 C665 1.393 . S
C662 H654 0.950 . S
C662 C660 1.391 . S
C662 C663 1.400 . S
C663 C662 1.400 . S
C663 C664 1.398 . S
C663 C669 1.491 . S
C664 H655 0.950 . S
C664 C663 1.398 . S
C664 C665 1.391 . S
C665 H653 0.950 . S
C665 C661 1.393 . S
C665 C664 1.391 . S
C666 H656 0.950 . S
C666 C667 1.386 . S
C666 C668 1.391 . S
C667 C666 1.386 . S
C667 C671 1.393 . S
C668 H657 0.950 . S
C668 C666 1.391 . S
C668 C669 1.400 . S
C669 C663 1.491 . S
C669 C668 1.400 . S
C669 C670 1.398 . S
C670 H658 0.950 . S
C670 C669 1.398 . S
C670 C671 1.391 . S
C671 H659 0.950 . S
C671 C667 1.393 . S
C671 C670 1.391 . S
H672 C680 0.950 . S
H673 C685 0.950 . S
H674 C682 0.950 . S
H675 C684 0.950 . S
H676 C686 0.950 . S
H677 C688 0.950 . S
H678 C690 0.950 . S
H679 C691 0.950 . S
C680 H672 0.950 . S
C680 C681 1.386 . S
C680 C682 1.391 . S
C681 C680 1.386 . S
C681 C685 1.393 . S
C682 H674 0.950 . S
C682 C680 1.391 . S
C682 C683 1.400 . S
C683 C682 1.400 . S
C683 C684 1.398 . S
C683 C689 1.491 . S
C684 H675 0.950 . S
C684 C683 1.398 . S
C684 C685 1.391 . S
C685 H673 0.950 . S
C685 C681 1.393 . S
C685 C684 1.391 . S
C686 H676 0.950 . S
C686 C687 1.386 . S
C686 C688 1.391 . S
C687 C686 1.386 . S
C687 C691 1.393 . S
C688 H677 0.950 . S
C688 C686 1.391 . S
C688 C689 1.400 . S
C689 C683 1.491 . S
C689 C688 1.400 . S
C689 C690 1.398 . S
C690 H678 0.950 . S
C690 C689 1.398 . S
C690 C691 1.391 . S
C691 H679 0.950 . S
C691 C687 1.393 . S
C691 C690 1.391 . S
H692 C700 0.950 . S
H693 C705 0.950 . S
H694 C702 0.951 1_545 S
H695 C704 0.950 . S
H696 C706 0.950 . S
H697 C708 0.950 . S
H698 C710 0.939 1_556 S
H699 C711 0.950 . S
C700 H692 0.950 . S
C700 C701 1.386 . S
C700 C702 1.394 1_545 S
C701 C700 1.386 . S
C701 C705 1.393 1_546 S
C702 H694 0.951 1_565 S
C702 C700 1.394 1_565 S
C702 C703 1.397 1_556 S
C703 C702 1.397 1_554 S
C703 C704 1.398 . S
C703 C709 1.491 . S
C704 H695 0.950 . S
C704 C703 1.398 . S
C704 C705 1.391 . S
C705 H693 0.950 . S
C705 C701 1.393 1_564 S
C705 C704 1.391 . S
C706 H696 0.950 . S
C706 C707 1.386 . S
C706 C708 1.391 . S
C707 C706 1.386 . S
C707 C711 1.393 . S
C708 H697 0.950 . S
C708 C706 1.391 . S
C708 C709 1.400 . S
C709 C703 1.491 . S
C709 C708 1.400 . S
C709 C710 1.398 . S
C710 H698 0.939 1_554 S
C710 C709 1.398 . S
C710 C711 1.391 . S
C711 H699 0.950 . S
C711 C707 1.393 . S
C711 C710 1.391 . S
H712 C720 0.950 . S
H713 C725 0.950 . S
H714 C722 0.950 . S
H715 C724 0.950 . S
H716 C726 0.950 . S
H717 C728 0.950 . S
H718 C730 0.950 . S
H719 C731 0.950 . S
C720 H712 0.950 . S
C720 C721 1.386 . S
C720 C722 1.391 . S
C721 C720 1.386 . S
C721 C725 1.393 . S
C722 H714 0.950 . S
C722 C720 1.391 . S
C722 C723 1.400 . S
C723 C722 1.400 . S
C723 C724 1.398 . S
C723 C729 1.491 . S
C724 H715 0.950 . S
C724 C723 1.398 . S
C724 C725 1.391 . S
C725 H713 0.950 . S
C725 C721 1.393 . S
C725 C724 1.391 . S
C726 H716 0.950 . S
C726 C727 1.386 . S
C726 C728 1.391 . S
C727 C726 1.386 . S
C727 C731 1.393 . S
C728 H717 0.950 . S
C728 C726 1.391 . S
C728 C729 1.400 . S
C729 C723 1.491 . S
C729 C728 1.400 . S
C729 C730 1.398 . S
C730 H718 0.950 . S
C730 C729 1.398 . S
C730 C731 1.391 . S
C731 H719 0.950 . S
C731 C727 1.393 . S
C731 C730 1.391 . S
H732 C740 0.950 1_565 S
H733 C745 0.950 . S
H734 C742 0.950 . S
H735 C744 0.950 . S
H736 C746 0.950 . S
H737 C748 0.950 . S
H738 C750 0.950 . S
H739 C751 0.950 . S
C740 H732 0.950 1_545 S
C740 C741 1.386 . S
C740 C742 1.391 . S
C741 C740 1.386 . S
C741 C745 1.393 . S
C742 H734 0.950 . S
C742 C740 1.391 . S
C742 C743 1.400 . S
C743 C742 1.400 . S
C743 C744 1.398 . S
C743 C749 1.491 . S
C744 H735 0.950 . S
C744 C743 1.398 . S
C744 C745 1.391 . S
C745 H733 0.950 . S
C745 C741 1.393 . S
C745 C744 1.391 . S
C746 H736 0.950 . S
C746 C747 1.386 . S
C746 C748 1.391 . S
C747 C746 1.386 . S
C747 C751 1.393 . S
C748 H737 0.950 . S
C748 C746 1.391 . S
C748 C749 1.400 . S
C749 C743 1.491 . S
C749 C748 1.400 . S
C749 C750 1.398 . S
C750 H738 0.950 . S
C750 C749 1.398 . S
C750 C751 1.391 . S
C751 H739 0.950 . S
C751 C747 1.393 . S
C751 C750 1.391 . S
H752 C760 0.950 . S
H753 C765 0.950 . S
H754 C762 0.950 . S
H755 C764 0.950 . S
H756 C766 0.950 . S
H757 C768 0.950 . S
H758 C770 0.950 . S
H759 C771 0.950 . S
C760 H752 0.950 . S
C760 C761 1.386 . S
C760 C762 1.391 . S
C761 C760 1.386 . S
C761 C765 1.393 . S
C762 H754 0.950 . S
C762 C760 1.391 . S
C762 C763 1.400 . S
C763 C762 1.400 . S
C763 C764 1.398 . S
C763 C769 1.491 . S
C764 H755 0.950 . S
C764 C763 1.398 . S
C764 C765 1.391 . S
C765 H753 0.950 . S
C765 C761 1.393 . S
C765 C764 1.391 . S
C766 H756 0.950 . S
C766 C767 1.386 . S
C766 C768 1.391 . S
C767 C766 1.386 . S
C767 C771 1.393 . S
C768 H757 0.950 . S
C768 C766 1.391 . S
C768 C769 1.400 . S
C769 C763 1.491 . S
C769 C768 1.400 . S
C769 C770 1.398 . S
C770 H758 0.950 . S
C770 C769 1.398 . S
C770 C771 1.391 . S
C771 H759 0.950 . S
C771 C767 1.393 . S
C771 C770 1.391 . S
H772 C780 0.950 . S
H773 C785 0.950 . S
H774 C782 0.950 . S
H775 C784 0.950 . S
H776 C786 0.950 . S
H777 C788 0.950 . S
H778 C790 0.950 . S
H779 C791 0.950 . S
C780 H772 0.950 . S
C780 C781 1.386 . S
C780 C782 1.391 . S
C781 C780 1.386 . S
C781 C785 1.393 . S
C782 H774 0.950 . S
C782 C780 1.391 . S
C782 C783 1.400 . S
C783 C782 1.400 . S
C783 C784 1.398 . S
C783 C789 1.491 . S
C784 H775 0.950 . S
C784 C783 1.398 . S
C784 C785 1.391 . S
C785 H773 0.950 . S
C785 C781 1.393 . S
C785 C784 1.391 . S
C786 H776 0.950 . S
C786 C787 1.386 . S
C786 C788 1.391 . S
C787 C786 1.386 . S
C787 C791 1.393 . S
C788 H777 0.950 . S
C788 C786 1.391 . S
C788 C789 1.400 . S
C789 C783 1.491 . S
C789 C788 1.400 . S
C789 C790 1.398 . S
C790 H778 0.950 . S
C790 C789 1.398 . S
C790 C791 1.391 . S
C791 H779 0.950 . S
C791 C787 1.393 . S
C791 C790 1.391 . S
H792 C800 0.950 . S
H793 C805 0.950 . S
H794 C802 0.950 . S
H795 C804 0.950 . S
H796 C806 0.950 . S
H797 C808 0.950 . S
H798 C810 0.950 . S
H799 C811 0.950 . S
C800 H792 0.950 . S
C800 C801 1.386 . S
C800 C802 1.391 . S
C801 C800 1.386 . S
C801 C805 1.393 . S
C802 H794 0.950 . S
C802 C800 1.391 . S
C802 C803 1.400 . S
C803 C802 1.400 . S
C803 C804 1.398 . S
C803 C809 1.491 . S
C804 H795 0.950 . S
C804 C803 1.398 . S
C804 C805 1.391 . S
C805 H793 0.950 . S
C805 C801 1.393 . S
C805 C804 1.391 . S
C806 H796 0.950 . S
C806 C807 1.386 . S
C806 C808 1.391 . S
C807 C806 1.386 . S
C807 C811 1.393 . S
C808 H797 0.950 . S
C808 C806 1.391 . S
C808 C809 1.400 . S
C809 C803 1.491 . S
C809 C808 1.400 . S
C809 C810 1.398 . S
C810 H798 0.950 . S
C810 C809 1.398 . S
C810 C811 1.391 . S
C811 H799 0.950 . S
C811 C807 1.393 . S
C811 C810 1.391 . S
H812 C820 0.950 . S
H813 C825 0.950 . S
H814 C822 0.950 . S
H815 C824 0.950 . S
H816 C826 0.950 . S
H817 C828 0.950 . S
H818 C830 0.950 . S
H819 C831 0.950 . S
C820 H812 0.950 . S
C820 C821 1.386 . S
C820 C822 1.391 . S
C821 C820 1.386 . S
C821 C825 1.393 . S
C822 H814 0.950 . S
C822 C820 1.391 . S
C822 C823 1.400 . S
C823 C822 1.400 . S
C823 C824 1.398 . S
C823 C829 1.491 . S
C824 H815 0.950 . S
C824 C823 1.398 . S
C824 C825 1.391 . S
C825 H813 0.950 . S
C825 C821 1.393 . S
C825 C824 1.391 . S
C826 H816 0.950 . S
C826 C827 1.386 . S
C826 C828 1.391 . S
C827 C826 1.386 . S
C827 C831 1.393 . S
C828 H817 0.950 . S
C828 C826 1.391 . S
C828 C829 1.400 . S
C829 C823 1.491 . S
C829 C828 1.400 . S
C829 C830 1.398 . S
C830 H818 0.950 . S
C830 C829 1.398 . S
C830 C831 1.391 . S
C831 H819 0.950 . S
C831 C827 1.393 . S
C831 C830 1.391 . S
H832 C840 0.950 . S
H833 C845 0.950 . S
H834 C842 0.950 . S
H835 C844 0.967 . S
H836 C846 0.950 1_565 S
H837 C848 0.950 1_565 S
H838 C850 0.950 . S
H839 C851 0.950 . S
C840 H832 0.950 . S
C840 C841 1.386 . S
C840 C842 1.391 . S
C841 C840 1.386 . S
C841 C845 1.393 . S
C842 H834 0.950 . S
C842 C840 1.391 . S
C842 C843 1.400 . S
C843 C842 1.400 . S
C843 C844 1.398 . S
C843 C849 1.491 . S
C844 H835 0.967 . S
C844 C843 1.398 . S
C844 C845 1.391 . S
C845 H833 0.950 . S
C845 C841 1.393 . S
C845 C844 1.391 . S
C846 H836 0.950 1_545 S
C846 C847 1.386 . S
C846 C848 1.391 . S
C847 C846 1.386 . S
C847 C851 1.393 . S
C848 H837 0.950 1_545 S
C848 C846 1.391 . S
C848 C849 1.400 . S
C849 C843 1.491 . S
C849 C848 1.400 . S
C849 C850 1.398 . S
C850 H838 0.950 . S
C850 C849 1.398 . S
C850 C851 1.391 . S
C851 H839 0.950 . S
C851 C847 1.393 . S
C851 C850 1.391 . S
H852 C860 0.950 . S
H853 C865 0.950 . S
H854 C862 0.950 . S
H855 C864 0.950 . S
H856 C866 0.950 . S
H857 C868 0.950 . S
H858 C870 0.950 . S
H859 C871 0.950 . S
C860 H852 0.950 . S
C860 C861 1.386 . S
C860 C862 1.391 . S
C861 C860 1.386 . S
C861 C865 1.393 . S
C862 H854 0.950 . S
C862 C860 1.391 . S
C862 C863 1.400 . S
C863 C862 1.400 . S
C863 C864 1.398 . S
C863 C869 1.491 . S
C864 H855 0.950 . S
C864 C863 1.398 . S
C864 C865 1.391 . S
C865 H853 0.950 . S
C865 C861 1.393 . S
C865 C864 1.391 . S
C866 H856 0.950 . S
C866 C867 1.386 . S
C866 C868 1.391 . S
C867 C866 1.386 . S
C867 C871 1.393 . S
C868 H857 0.950 . S
C868 C866 1.391 . S
C868 C869 1.400 . S
C869 C863 1.491 . S
C869 C868 1.400 . S
C869 C870 1.398 . S
C870 H858 0.950 . S
C870 C869 1.398 . S
C870 C871 1.391 . S
C871 H859 0.950 . S
C871 C867 1.393 . S
C871 C870 1.391 . S
H872 C880 0.950 . S
H873 C885 0.950 . S
H874 C882 0.950 . S
H875 C884 0.950 . S
H876 C886 0.950 . S
H877 C888 0.950 . S
H878 C890 0.950 . S
H879 C891 0.950 . S
C880 H872 0.950 . S
C880 C881 1.386 . S
C880 C882 1.391 . S
C881 C880 1.386 . S
C881 C885 1.393 . S
C882 H874 0.950 . S
C882 C880 1.391 . S
C882 C883 1.400 . S
C883 C882 1.400 . S
C883 C884 1.398 . S
C883 C889 1.491 . S
C884 H875 0.950 . S
C884 C883 1.398 . S
C884 C885 1.391 . S
C885 H873 0.950 . S
C885 C881 1.393 . S
C885 C884 1.391 . S
C886 H876 0.950 . S
C886 C887 1.386 . S
C886 C888 1.391 . S
C887 C886 1.386 . S
C887 C891 1.393 . S
C888 H877 0.950 . S
C888 C886 1.391 . S
C888 C889 1.400 . S
C889 C883 1.491 . S
C889 C888 1.400 . S
C889 C890 1.398 . S
C890 H878 0.950 . S
C890 C889 1.398 . S
C890 C891 1.391 . S
C891 H879 0.950 . S
C891 C887 1.393 . S
C891 C890 1.391 . S
H892 C900 0.950 . S
H893 C905 0.950 . S
H894 C902 0.950 . S
H895 C904 0.950 . S
H896 C906 0.950 . S
H897 C908 0.950 . S
H898 C910 0.950 . S
H899 C911 0.950 . S
C900 H892 0.950 . S
C900 C901 1.386 . S
C900 C902 1.391 . S
C901 C900 1.386 . S
C901 C905 1.393 . S
C902 H894 0.950 . S
C902 C900 1.391 . S
C902 C903 1.400 . S
C903 C902 1.400 . S
C903 C904 1.398 . S
C903 C909 1.491 . S
C904 H895 0.950 . S
C904 C903 1.398 . S
C904 C905 1.391 . S
C905 H893 0.950 . S
C905 C901 1.393 . S
C905 C904 1.391 . S
C906 H896 0.950 . S
C906 C907 1.386 . S
C906 C908 1.391 . S
C907 C906 1.386 . S
C907 C911 1.393 . S
C908 H897 0.950 . S
C908 C906 1.391 . S
C908 C909 1.400 . S
C909 C903 1.491 . S
C909 C908 1.400 . S
C909 C910 1.398 . S
C910 H898 0.950 . S
C910 C909 1.398 . S
C910 C911 1.391 . S
C911 H899 0.950 . S
C911 C907 1.393 . S
C911 C910 1.391 . S
H912 C920 0.950 . S
H913 C925 0.950 . S
H914 C922 0.950 1_655 S
H915 C924 0.950 . S
H916 C926 0.950 . S
H917 C928 0.945 1_455 S
H918 C930 0.950 . S
H919 C931 0.950 . S
C920 H912 0.950 . S
C920 C921 1.386 . S
C920 C922 1.391 . S
C921 C920 1.386 . S
C921 C925 1.393 . S
C922 H914 0.950 1_455 S
C922 C920 1.391 . S
C922 C923 1.400 . S
C923 C922 1.400 . S
C923 C924 1.398 . S
C923 C929 1.491 1_455 S
C924 H915 0.950 . S
C924 C923 1.398 . S
C924 C925 1.391 . S
C925 H913 0.950 . S
C925 C921 1.393 . S
C925 C924 1.391 . S
C926 H916 0.950 . S
C926 C927 1.386 . S
C926 C928 1.396 . S
C927 C926 1.386 . S
C927 C931 1.393 . S
C928 H917 0.945 1_655 S
C928 C926 1.396 . S
C928 C929 1.400 . S
C929 C923 1.491 1_655 S
C929 C928 1.400 . S
C929 C930 1.398 . S
C930 H918 0.950 . S
C930 C929 1.398 . S
C930 C931 1.391 . S
C931 H919 0.950 . S
C931 C927 1.393 . S
C931 C930 1.391 . S
H932 C940 0.950 . S
H933 C945 0.950 . S
H934 C942 0.950 . S
H935 C944 0.950 . S
H936 C946 0.950 . S
H937 C948 0.950 . S
H938 C950 0.950 . S
H939 C951 0.950 . S
C940 H932 0.950 . S
C940 C941 1.386 . S
C940 C942 1.391 . S
C941 C940 1.386 . S
C941 C945 1.393 . S
C942 H934 0.950 . S
C942 C940 1.391 . S
C942 C943 1.400 . S
C943 C942 1.400 . S
C943 C944 1.398 . S
C943 C949 1.491 . S
C944 H935 0.950 . S
C944 C943 1.398 . S
C944 C945 1.391 . S
C945 H933 0.950 . S
C945 C941 1.393 . S
C945 C944 1.391 . S
C946 H936 0.950 . S
C946 C947 1.386 . S
C946 C948 1.391 . S
C947 C946 1.386 . S
C947 C951 1.393 . S
C948 H937 0.950 . S
C948 C946 1.391 . S
C948 C949 1.400 . S
C949 C943 1.491 . S
C949 C948 1.400 . S
C949 C950 1.398 . S
C950 H938 0.950 . S
C950 C949 1.398 . S
C950 C951 1.391 . S
C951 H939 0.950 . S
C951 C947 1.393 . S
C951 C950 1.391 . S
H952 C960 0.950 . S
H953 C965 0.950 1_655 S
H954 C962 0.950 . S
H955 C964 0.950 . S
H956 C966 0.950 . S
H957 C968 0.950 . S
H958 C970 0.950 . S
H959 C971 0.950 . S
C960 H952 0.950 . S
C960 C961 1.386 . S
C960 C962 1.391 . S
C961 C960 1.386 . S
C961 C965 1.393 . S
C962 H954 0.950 . S
C962 C960 1.391 . S
C962 C963 1.400 . S
C963 C962 1.400 . S
C963 C964 1.398 . S
C963 C969 1.491 . S
C964 H955 0.950 . S
C964 C963 1.398 . S
C964 C965 1.391 . S
C965 H953 0.950 1_455 S
C965 C961 1.393 . S
C965 C964 1.391 . S
C966 H956 0.950 . S
C966 C967 1.386 . S
C966 C968 1.391 . S
C967 C966 1.386 . S
C967 C971 1.393 . S
C968 H957 0.950 . S
C968 C966 1.391 . S
C968 C969 1.400 . S
C969 C963 1.491 . S
C969 C968 1.400 . S
C969 C970 1.398 . S
C970 H958 0.950 . S
C970 C969 1.398 . S
C970 C971 1.391 . S
C971 H959 0.950 . S
C971 C967 1.393 . S
C971 C970 1.391 . S
H972 C980 0.950 . S
H973 C985 0.950 . S
H974 C982 0.950 . S
H975 C984 0.950 . S
H976 C986 0.950 . S
H977 C988 0.950 . S
H978 C990 0.950 . S
H979 C991 0.950 . S
C980 H972 0.950 . S
C980 C981 1.386 . S
C980 C982 1.391 . S
C981 C980 1.386 . S
C981 C985 1.393 . S
C982 H974 0.950 . S
C982 C980 1.391 . S
C982 C983 1.400 . S
C983 C982 1.400 . S
C983 C984 1.398 . S
C983 C989 1.491 . S
C984 H975 0.950 . S
C984 C983 1.398 . S
C984 C985 1.391 . S
C985 H973 0.950 . S
C985 C981 1.393 . S
C985 C984 1.391 . S
C986 H976 0.950 . S
C986 C987 1.386 . S
C986 C988 1.391 . S
C987 C986 1.386 . S
C987 C991 1.393 . S
C988 H977 0.950 . S
C988 C986 1.391 . S
C988 C989 1.400 . S
C989 C983 1.491 . S
C989 C988 1.400 . S
C989 C990 1.398 . S
C990 H978 0.950 . S
C990 C989 1.398 . S
C990 C991 1.391 . S
C991 H979 0.950 . S
C991 C987 1.393 . S
C991 C990 1.391 . S
H992 C1000 0.950 . S
H993 C1005 0.950 . S
H994 C1002 0.950 . S
H995 C1004 0.950 . S
H996 C1006 0.950 . S
H997 C1008 0.950 . S
H998 C1010 0.950 . S
H999 C1011 0.950 . S
C1000 H992 0.950 . S
C1000 C1001 1.386 1_556 S
C1000 C1002 1.391 . S
C1001 C1000 1.386 1_554 S
C1001 C1005 1.393 1_455 S
C1002 H994 0.950 . S
C1002 C1000 1.391 . S
C1002 C1003 1.400 . S
C1003 C1002 1.400 . S
C1003 C1004 1.398 1_455 S
C1003 C1009 1.491 . S
C1004 H995 0.950 . S
C1004 C1003 1.398 1_655 S
C1004 C1005 1.391 1_556 S
C1005 H993 0.950 . S
C1005 C1001 1.393 1_655 S
C1005 C1004 1.391 1_554 S
C1006 H996 0.950 . S
C1006 C1007 1.386 1_655 S
C1006 C1008 1.391 . S
C1007 C1006 1.386 1_455 S
C1007 C1011 1.393 . S
C1008 H997 0.950 . S
C1008 C1006 1.391 . S
C1008 C1009 1.400 1_655 S
C1009 C1003 1.491 . S
C1009 C1008 1.400 1_455 S
C1009 C1010 1.398 . S
C1010 H998 0.950 . S
C1010 C1009 1.398 . S
C1010 C1011 1.391 . S
C1011 H999 0.950 . S
C1011 C1007 1.393 . S
C1011 C1010 1.391 . S
H1012 C1020 0.950 . S
H1013 C1025 0.950 . S
H1014 C1022 0.950 . S
H1015 C1024 0.950 . S
H1016 C1026 0.950 . S
H1017 C1028 0.950 . S
H1018 C1030 0.950 . S
H1019 C1031 0.950 . S
C1020 H1012 0.950 . S
C1020 C1021 1.386 . S
C1020 C1022 1.391 . S
C1021 C1020 1.386 . S
C1021 C1025 1.393 . S
C1022 H1014 0.950 . S
C1022 C1020 1.391 . S
C1022 C1023 1.400 . S
C1023 C1022 1.400 . S
C1023 C1024 1.398 . S
C1023 C1029 1.491 . S
C1024 H1015 0.950 . S
C1024 C1023 1.398 . S
C1024 C1025 1.391 . S
C1025 H1013 0.950 . S
C1025 C1021 1.393 . S
C1025 C1024 1.391 . S
C1026 H1016 0.950 . S
C1026 C1027 1.386 . S
C1026 C1028 1.391 . S
C1027 C1026 1.386 . S
C1027 C1031 1.393 . S
C1028 H1017 0.950 . S
C1028 C1026 1.391 . S
C1028 C1029 1.400 . S
C1029 C1023 1.491 . S
C1029 C1028 1.400 . S
C1029 C1030 1.398 . S
C1030 H1018 0.950 . S
C1030 C1029 1.398 . S
C1030 C1031 1.391 . S
C1031 H1019 0.950 . S
C1031 C1027 1.393 . S
C1031 C1030 1.391 . S
H1032 C1040 0.950 . S
H1033 C1045 0.950 . S
H1034 C1042 0.950 . S
H1035 C1044 0.950 . S
H1036 C1046 0.950 . S
H1037 C1048 0.950 . S
H1038 C1050 0.950 . S
H1039 C1051 0.950 . S
C1040 H1032 0.950 . S
C1040 C1041 1.386 . S
C1040 C1042 1.391 . S
C1041 C1040 1.386 . S
C1041 C1045 1.393 1_554 S
C1042 H1034 0.950 . S
C1042 C1040 1.391 . S
C1042 C1043 1.400 1_554 S
C1043 C1042 1.400 1_556 S
C1043 C1044 1.398 . S
C1043 C1049 1.491 . S
C1044 H1035 0.950 . S
C1044 C1043 1.398 . S
C1044 C1045 1.391 . S
C1045 H1033 0.950 . S
C1045 C1041 1.393 1_556 S
C1045 C1044 1.391 . S
C1046 H1036 0.950 . S
C1046 C1047 1.386 . S
C1046 C1048 1.391 . S
C1047 C1046 1.386 . S
C1047 C1051 1.393 . S
C1048 H1037 0.950 . S
C1048 C1046 1.391 . S
C1048 C1049 1.400 . S
C1049 C1043 1.491 . S
C1049 C1048 1.400 . S
C1049 C1050 1.398 . S
C1050 H1038 0.950 . S
C1050 C1049 1.398 . S
C1050 C1051 1.391 . S
C1051 H1039 0.950 . S
C1051 C1047 1.393 . S
C1051 C1050 1.391 . S
H1052 C1060 0.950 . S
H1053 C1065 0.950 . S
H1054 C1062 0.950 . S
H1055 C1064 0.950 . S
H1056 C1066 0.950 . S
H1057 C1068 0.950 . S
H1058 C1070 0.950 . S
H1059 C1071 0.950 . S
C1060 H1052 0.950 . S
C1060 C1061 1.386 . S
C1060 C1062 1.391 . S
C1061 C1060 1.386 . S
C1061 C1065 1.393 . S
C1062 H1054 0.950 . S
C1062 C1060 1.391 . S
C1062 C1063 1.400 . S
C1063 C1062 1.400 . S
C1063 C1064 1.398 . S
C1063 C1069 1.491 . S
C1064 H1055 0.950 . S
C1064 C1063 1.398 . S
C1064 C1065 1.391 . S
C1065 H1053 0.950 . S
C1065 C1061 1.393 . S
C1065 C1064 1.391 . S
C1066 H1056 0.950 . S
C1066 C1067 1.386 . S
C1066 C1068 1.391 . S
C1067 C1066 1.386 . S
C1067 C1071 1.393 . S
C1068 H1057 0.950 . S
C1068 C1066 1.391 . S
C1068 C1069 1.400 . S
C1069 C1063 1.491 . S
C1069 C1068 1.400 . S
C1069 C1070 1.398 . S
C1070 H1058 0.950 . S
C1070 C1069 1.398 . S
C1070 C1071 1.391 . S
C1071 H1059 0.950 . S
C1071 C1067 1.393 . S
C1071 C1070 1.391 . S
H1072 C1080 0.950 . S
H1073 C1085 0.950 . S
H1074 C1082 0.950 . S
H1075 C1084 0.950 . S
H1076 C1086 0.950 . S
H1077 C1088 0.950 . S
H1078 C1090 0.950 . S
H1079 C1091 0.950 . S
C1080 H1072 0.950 . S
C1080 C1081 1.386 . S
C1080 C1082 1.391 . S
C1081 C1080 1.386 . S
C1081 C1085 1.393 . S
C1082 H1074 0.950 . S
C1082 C1080 1.391 . S
C1082 C1083 1.400 . S
C1083 C1082 1.400 . S
C1083 C1084 1.398 . S
C1083 C1089 1.491 . S
C1084 H1075 0.950 . S
C1084 C1083 1.398 . S
C1084 C1085 1.391 . S
C1085 H1073 0.950 . S
C1085 C1081 1.393 . S
C1085 C1084 1.391 . S
C1086 H1076 0.950 . S
C1086 C1087 1.386 . S
C1086 C1088 1.391 . S
C1087 C1086 1.386 . S
C1087 C1091 1.393 . S
C1088 H1077 0.950 . S
C1088 C1086 1.391 . S
C1088 C1089 1.400 . S
C1089 C1083 1.491 . S
C1089 C1088 1.400 . S
C1089 C1090 1.398 . S
C1090 H1078 0.950 . S
C1090 C1089 1.398 . S
C1090 C1091 1.391 . S
C1091 H1079 0.950 . S
C1091 C1087 1.393 . S
C1091 C1090 1.391 . S
H1092 C1100 0.950 . S
H1093 C1105 0.950 . S
H1094 C1102 0.950 . S
H1095 C1104 0.950 . S
H1096 C1106 0.950 . S
H1097 C1108 0.950 . S
H1098 C1110 0.950 . S
H1099 C1111 0.950 . S
C1100 H1092 0.950 . S
C1100 C1101 1.386 . S
C1100 C1102 1.391 . S
C1101 C1100 1.386 . S
C1101 C1105 1.393 . S
C1102 H1094 0.950 . S
C1102 C1100 1.391 . S
C1102 C1103 1.400 . S
C1103 C1102 1.400 . S
C1103 C1104 1.398 . S
C1103 C1109 1.491 . S
C1104 H1095 0.950 . S
C1104 C1103 1.398 . S
C1104 C1105 1.391 . S
C1105 H1093 0.950 . S
C1105 C1101 1.393 . S
C1105 C1104 1.391 . S
C1106 H1096 0.950 . S
C1106 C1107 1.386 . S
C1106 C1108 1.391 . S
C1107 C1106 1.386 . S
C1107 C1111 1.393 . S
C1108 H1097 0.950 . S
C1108 C1106 1.391 . S
C1108 C1109 1.400 . S
C1109 C1103 1.491 . S
C1109 C1108 1.400 . S
C1109 C1110 1.398 . S
C1110 H1098 0.950 . S
C1110 C1109 1.398 . S
C1110 C1111 1.391 . S
C1111 H1099 0.950 . S
C1111 C1107 1.393 . S
C1111 C1110 1.391 . S
H1112 C1120 0.950 . S
H1113 C1125 0.950 1_556 S
H1114 C1122 0.950 . S
H1115 C1124 0.950 . S
H1116 C1126 0.950 . S
H1117 C1128 0.950 . S
H1118 C1130 0.950 . S
H1119 C1131 0.950 . S
C1120 H1112 0.950 . S
C1120 C1121 1.386 . S
C1120 C1122 1.391 . S
C1121 C1120 1.386 . S
C1121 C1125 1.393 . S
C1122 H1114 0.950 . S
C1122 C1120 1.391 . S
C1122 C1123 1.400 . S
C1123 C1122 1.400 . S
C1123 C1124 1.398 . S
C1123 C1129 1.491 . S
C1124 H1115 0.950 . S
C1124 C1123 1.398 . S
C1124 C1125 1.391 . S
C1125 H1113 0.950 1_554 S
C1125 C1121 1.393 . S
C1125 C1124 1.391 . S
C1126 H1116 0.950 . S
C1126 C1127 1.386 . S
C1126 C1128 1.391 . S
C1127 C1126 1.386 . S
C1127 C1131 1.393 . S
C1128 H1117 0.950 . S
C1128 C1126 1.391 . S
C1128 C1129 1.400 . S
C1129 C1123 1.491 . S
C1129 C1128 1.400 . S
C1129 C1130 1.398 . S
C1130 H1118 0.950 . S
C1130 C1129 1.398 . S
C1130 C1131 1.391 . S
C1131 H1119 0.950 . S
C1131 C1127 1.393 . S
C1131 C1130 1.391 . S
H1132 C1140 0.950 . S
H1133 C1145 0.950 . S
H1134 C1142 0.950 . S
H1135 C1144 0.950 . S
H1136 C1146 0.950 . S
H1137 C1148 0.950 . S
H1138 C1150 0.950 . S
H1139 C1151 0.950 . S
C1140 H1132 0.950 . S
C1140 C1141 1.386 . S
C1140 C1142 1.391 . S
C1141 C1140 1.386 . S
C1141 C1145 1.393 . S
C1142 H1134 0.950 . S
C1142 C1140 1.391 . S
C1142 C1143 1.400 . S
C1143 C1142 1.400 . S
C1143 C1144 1.398 . S
C1143 C1149 1.491 . S
C1144 H1135 0.950 . S
C1144 C1143 1.398 . S
C1144 C1145 1.391 . S
C1145 H1133 0.950 . S
C1145 C1141 1.393 . S
C1145 C1144 1.391 . S
C1146 H1136 0.950 . S
C1146 C1147 1.386 . S
C1146 C1148 1.391 . S
C1147 C1146 1.386 . S
C1147 C1151 1.393 . S
C1148 H1137 0.950 . S
C1148 C1146 1.391 . S
C1148 C1149 1.400 . S
C1149 C1143 1.491 . S
C1149 C1148 1.400 . S
C1149 C1150 1.398 . S
C1150 H1138 0.950 . S
C1150 C1149 1.398 . S
C1150 C1151 1.391 . S
C1151 H1139 0.950 . S
C1151 C1147 1.393 . S
C1151 C1150 1.391 . S
H1152 C1160 0.950 . S
H1153 C1165 0.950 . S
H1154 C1162 0.950 . S
H1155 C1164 0.950 . S
H1156 C1166 0.950 . S
H1157 C1168 0.950 . S
H1158 C1170 0.950 . S
H1159 C1171 0.950 . S
C1160 H1152 0.950 . S
C1160 C1161 1.386 . S
C1160 C1162 1.391 . S
C1161 C1160 1.386 . S
C1161 C1165 1.393 . S
C1162 H1154 0.950 . S
C1162 C1160 1.391 . S
C1162 C1163 1.400 . S
C1163 C1162 1.400 . S
C1163 C1164 1.398 . S
C1163 C1169 1.491 . S
C1164 H1155 0.950 . S
C1164 C1163 1.398 . S
C1164 C1165 1.391 . S
C1165 H1153 0.950 . S
C1165 C1161 1.393 . S
C1165 C1164 1.391 . S
C1166 H1156 0.950 . S
C1166 C1167 1.386 . S
C1166 C1168 1.391 . S
C1167 C1166 1.386 . S
C1167 C1171 1.393 . S
C1168 H1157 0.950 . S
C1168 C1166 1.391 . S
C1168 C1169 1.400 . S
C1169 C1163 1.491 . S
C1169 C1168 1.400 . S
C1169 C1170 1.398 . S
C1170 H1158 0.950 . S
C1170 C1169 1.398 . S
C1170 C1171 1.391 . S
C1171 H1159 0.950 . S
C1171 C1167 1.393 . S
C1171 C1170 1.391 . S
H1172 C1180 0.950 . S
H1173 C1185 0.950 . S
H1174 C1182 0.950 . S
H1175 C1184 0.950 . S
H1176 C1186 0.950 . S
H1177 C1188 0.950 . S
H1178 C1190 0.950 . S
H1179 C1191 0.950 . S
C1180 H1172 0.950 . S
C1180 C1181 1.386 . S
C1180 C1182 1.391 . S
C1181 C1180 1.386 . S
C1181 C1185 1.393 . S
C1182 H1174 0.950 . S
C1182 C1180 1.391 . S
C1182 C1183 1.400 . S
C1183 C1182 1.400 . S
C1183 C1184 1.398 . S
C1183 C1189 1.491 . S
C1184 H1175 0.950 . S
C1184 C1183 1.398 . S
C1184 C1185 1.391 . S
C1185 H1173 0.950 . S
C1185 C1181 1.393 . S
C1185 C1184 1.391 . S
C1186 H1176 0.950 . S
C1186 C1187 1.386 . S
C1186 C1188 1.391 . S
C1187 C1186 1.386 . S
C1187 C1191 1.393 . S
C1188 H1177 0.950 . S
C1188 C1186 1.391 . S
C1188 C1189 1.400 . S
C1189 C1183 1.491 . S
C1189 C1188 1.400 . S
C1189 C1190 1.398 . S
C1190 H1178 0.950 . S
C1190 C1189 1.398 . S
C1190 C1191 1.391 . S
C1191 H1179 0.950 . S
C1191 C1187 1.393 . S
C1191 C1190 1.391 . S
H1192 C1200 0.950 . S
H1193 C1205 0.950 . S
H1194 C1202 0.950 . S
H1195 C1204 0.950 . S
H1196 C1206 0.950 . S
H1197 C1208 0.950 . S
H1198 C1210 0.950 . S
H1199 C1211 0.950 . S
C1200 H1192 0.950 . S
C1200 C1201 1.386 . S
C1200 C1202 1.391 . S
C1201 C1200 1.386 . S
C1201 C1205 1.393 . S
C1202 H1194 0.950 . S
C1202 C1200 1.391 . S
C1202 C1203 1.400 . S
C1203 C1202 1.400 . S
C1203 C1204 1.398 . S
C1203 C1209 1.491 . S
C1204 H1195 0.950 . S
C1204 C1203 1.398 . S
C1204 C1205 1.391 . S
C1205 H1193 0.950 . S
C1205 C1201 1.393 . S
C1205 C1204 1.391 . S
C1206 H1196 0.950 . S
C1206 C1207 1.386 . S
C1206 C1208 1.391 . S
C1207 C1206 1.386 . S
C1207 C1211 1.393 . S
C1208 H1197 0.950 . S
C1208 C1206 1.391 . S
C1208 C1209 1.400 . S
C1209 C1203 1.491 . S
C1209 C1208 1.400 . S
C1209 C1210 1.398 . S
C1210 H1198 0.950 . S
C1210 C1209 1.398 . S
C1210 C1211 1.391 . S
C1211 H1199 0.950 . S
C1211 C1207 1.393 . S
C1211 C1210 1.391 . S
H1212 C1220 0.950 . S
H1213 C1225 0.950 . S
H1214 C1222 0.950 . S
H1215 C1224 0.950 . S
H1216 C1226 0.950 . S
H1217 C1228 0.950 . S
H1218 C1230 0.950 . S
H1219 C1231 0.950 . S
C1220 H1212 0.950 . S
C1220 C1221 1.386 . S
C1220 C1222 1.391 . S
C1221 C1220 1.386 . S
C1221 C1225 1.393 1_556 S
C1222 H1214 0.950 . S
C1222 C1220 1.391 . S
C1222 C1223 1.400 . S
C1223 C1222 1.400 . S
C1223 C1224 1.398 1_556 S
C1223 C1229 1.491 . S
C1224 H1215 0.950 . S
C1224 C1223 1.398 1_554 S
C1224 C1225 1.391 . S
C1225 H1213 0.950 . S
C1225 C1221 1.393 1_554 S
C1225 C1224 1.391 . S
C1226 H1216 0.950 . S
C1226 C1227 1.386 1_554 S
C1226 C1228 1.391 . S
C1227 C1226 1.386 1_556 S
C1227 C1231 1.393 . S
C1228 H1217 0.950 . S
C1228 C1226 1.391 . S
C1228 C1229 1.400 1_554 S
C1229 C1223 1.491 . S
C1229 C1228 1.400 1_556 S
C1229 C1230 1.398 . S
C1230 H1218 0.950 . S
C1230 C1229 1.398 . S
C1230 C1231 1.391 . S
C1231 H1219 0.950 . S
C1231 C1227 1.393 . S
C1231 C1230 1.391 . S
H1232 C1240 0.950 . S
H1233 C1245 0.950 . S
H1234 C1242 0.950 . S
H1235 C1244 0.950 . S
H1236 C1246 0.950 . S
H1237 C1248 0.950 . S
H1238 C1250 0.950 . S
H1239 C1251 0.950 . S
C1240 H1232 0.950 . S
C1240 C1241 1.386 . S
C1240 C1242 1.391 . S
C1241 C1240 1.386 . S
C1241 C1245 1.393 . S
C1242 H1234 0.950 . S
C1242 C1240 1.391 . S
C1242 C1243 1.400 . S
C1243 C1242 1.400 . S
C1243 C1244 1.398 . S
C1243 C1249 1.491 . S
C1244 H1235 0.950 . S
C1244 C1243 1.398 . S
C1244 C1245 1.391 . S
C1245 H1233 0.950 . S
C1245 C1241 1.393 . S
C1245 C1244 1.391 . S
C1246 H1236 0.950 . S
C1246 C1247 1.386 . S
C1246 C1248 1.391 . S
C1247 C1246 1.386 . S
C1247 C1251 1.393 . S
C1248 H1237 0.950 . S
C1248 C1246 1.391 . S
C1248 C1249 1.400 . S
C1249 C1243 1.491 . S
C1249 C1248 1.400 . S
C1249 C1250 1.398 . S
C1250 H1238 0.950 . S
C1250 C1249 1.398 . S
C1250 C1251 1.391 . S
C1251 H1239 0.950 . S
C1251 C1247 1.393 . S
C1251 C1250 1.391 . S
H1252 C1260 0.950 . S
H1253 C1265 0.950 1_556 S
H1254 C1262 0.950 . S
H1255 C1264 0.947 . S
H1256 C1266 0.950 . S
H1257 C1268 0.950 . S
H1258 C1270 0.950 . S
H1259 C1271 0.950 . S
C1260 H1252 0.950 . S
C1260 C1261 1.386 . S
C1260 C1262 1.391 . S
C1261 C1260 1.386 . S
C1261 C1265 1.393 . S
C1262 H1254 0.950 . S
C1262 C1260 1.391 . S
C1262 C1263 1.400 . S
C1263 C1262 1.400 . S
C1263 C1264 1.400 1_554 S
C1263 C1269 1.491 . S
C1264 H1255 0.947 . S
C1264 C1263 1.400 1_556 S
C1264 C1265 1.391 1_556 S
C1265 H1253 0.950 1_554 S
C1265 C1261 1.393 . S
C1265 C1264 1.391 1_554 S
C1266 H1256 0.950 . S
C1266 C1267 1.386 1_556 S
C1266 C1268 1.391 . S
C1267 C1266 1.386 1_554 S
C1267 C1271 1.393 . S
C1268 H1257 0.950 . S
C1268 C1266 1.391 . S
C1268 C1269 1.400 1_556 S
C1269 C1263 1.491 . S
C1269 C1268 1.400 1_554 S
C1269 C1270 1.398 . S
C1270 H1258 0.950 . S
C1270 C1269 1.398 . S
C1270 C1271 1.391 . S
C1271 H1259 0.950 . S
C1271 C1267 1.393 . S
C1271 C1270 1.391 . S
H1272 C1280 0.950 . S
H1273 C1285 0.950 . S
H1274 C1282 0.950 . S
H1275 C1284 0.950 . S
H1276 C1286 0.950 . S
H1277 C1288 0.950 . S
H1278 C1290 0.950 . S
H1279 C1291 0.950 . S
C1280 H1272 0.950 . S
C1280 C1281 1.386 . S
C1280 C1282 1.391 1_545 S
C1281 C1280 1.386 . S
C1281 C1285 1.393 . S
C1282 H1274 0.950 . S
C1282 C1280 1.391 1_565 S
C1282 C1283 1.400 . S
C1283 C1282 1.400 . S
C1283 C1284 1.398 1_565 S
C1283 C1289 1.491 . S
C1284 H1275 0.950 . S
C1284 C1283 1.398 1_545 S
C1284 C1285 1.391 . S
C1285 H1273 0.950 . S
C1285 C1281 1.393 . S
C1285 C1284 1.391 . S
C1286 H1276 0.950 . S
C1286 C1287 1.386 . S
C1286 C1288 1.391 . S
C1287 C1286 1.386 . S
C1287 C1291 1.393 . S
C1288 H1277 0.950 . S
C1288 C1286 1.391 . S
C1288 C1289 1.400 . S
C1289 C1283 1.491 . S
C1289 C1288 1.400 . S
C1289 C1290 1.398 . S
C1290 H1278 0.950 . S
C1290 C1289 1.398 . S
C1290 C1291 1.391 . S
C1291 H1279 0.950 . S
C1291 C1287 1.393 . S
C1291 C1290 1.391 . S
C347 C186 1.515 1_556 S
C341 C60 1.524 . S
C367 C199 1.410 . S
C361 C76 1.404 . S
C381 C81 1.623 . S
C387 C212 1.596 . S
C407 C225 1.572 . S
C401 C48 1.612 . S
C427 C233 1.467 . S
C421 C115 1.486 . S
C447 C246 1.540 . S
C441 C136 1.552 . S
C461 C131 1.394 . S
C467 C259 1.359 . S
C487 C272 1.478 . S
C481 C104 1.501 . S
C501 C126 1.454 . S
C507 C290 1.435 . S
C527 C301 1.419 . S
C521 C103 1.454 . S
C541 C120 1.383 . S
C547 C285 1.363 . S
C567 C293 1.425 . S
C561 C142 1.432 . S
C581 C82 1.480 . S
C587 C316 1.468 . S
C601 C54 1.776 . S
C607 C306 1.755 . S
C621 C65 1.448 . S
C627 C311 1.441 . S
C641 C71 1.336 . S
C647 C314 1.332 . S
C661 C37 1.523 . S
C667 C223 1.505 . S
C681 C158 1.886 . S
C687 C215 1.880 . S
C707 C184 1.454 . S
C701 C169 1.466 . S
C727 C189 1.238 . S
C721 C98 1.270 . S
C741 C49 1.733 1_545 S
C747 C236 1.707 . S
C767 C275 1.443 . S
C761 C125 1.479 . S
C787 C228 1.382 . S
C781 C109 1.392 . S
C807 C254 1.698 . S
C801 C137 1.743 . S
C827 C264 1.518 . S
C821 C159 1.522 . S
C841 C175 1.412 . S
C847 C277 1.401 . S
C861 C92 1.624 . S
C867 C238 1.608 . S
C887 C251 1.588 . S
C881 C147 1.616 . S
C901 C38 1.485 . S
C907 C207 1.467 . S
C927 C220 1.541 . S
C921 C4 1.552 . S
C947 C181 1.347 . S
C941 C21 1.388 . S
C967 C194 1.498 . S
C961 C27 1.514 . S
C981 C16 1.451 . S
C987 C303 1.432 . S
C1001 C26 1.453 1_455 S
C1007 C288 1.411 . S
C1021 C43 1.383 . S
C1027 C298 1.350 . S
C1041 C10 1.430 . S
C1047 C280 1.415 . S
C1067 C329 1.474 . S
C1061 C93 1.478 . S
C1087 C319 1.741 . S
C1081 C153 1.773 . S
C1107 C324 1.424 . S
C1101 C164 1.443 . S
C1121 C170 1.330 1_554 S
C1127 C327 1.327 . S
C1141 C114 1.525 . S
C1147 C249 1.514 . S
C1167 C241 1.872 . S
C1161 C59 1.883 . S
C1187 C262 1.449 . S
C1181 C70 1.459 . S
C1207 C267 1.251 . S
C1201 C87 1.273 . S
C1221 C148 1.736 . S
C1227 C210 1.714 . S
C1247 C197 1.437 . S
C1241 C15 1.480 . S
C1261 C32 1.395 . S
C1267 C202 1.384 1_554 S
C1287 C176 1.695 . S
C1281 C5 1.750 . S
