# Generated by pormake.
# Topology dag, (6,3)-cn, num edge types: 1
# Building blocks:
#     Node 0, Type 0, BuildingBlock: OJICUG_clean_sbu_0, # of connection points: 6
#     Node 1, Type 0, BuildingBlock: OJICUG_clean_sbu_0, # of connection points: 6
#     Node 2, Type 0, BuildingBlock: OJICUG_clean_sbu_0, # of connection points: 6
#     Node 3, Type 0, BuildingBlock: OJICUG_clean_sbu_0, # of connection points: 6
#     Node 4, Type 1, BuildingBlock: BETDIP_clean_linker_0, # of connection points: 3
#     Node 5, Type 1, BuildingBlock: BETDIP_clean_linker_0, # of connection points: 3
#     Node 6, Type 1, BuildingBlock: BETDIP_clean_linker_0, # of connection points: 3
#     Node 7, Type 1, BuildingBlock: BETDIP_clean_linker_0, # of connection points: 3
#     Node 8, Type 1, BuildingBlock: BETDIP_clean_linker_0, # of connection points: 3
#     Node 9, Type 1, BuildingBlock: BETDIP_clean_linker_0, # of connection points: 3
#     Node 10, Type 1, BuildingBlock: BETDIP_clean_linker_0, # of connection points: 3
#     Node 11, Type 1, BuildingBlock: BETDIP_clean_linker_0, # of connection points: 3
#     Edge 12, Type (0, 1), BuildingBlock: AJUNOK_clean_linker_0, # of connection points: 2
#     Edge 13, Type (0, 1), BuildingBlock: AJUNOK_clean_linker_0, # of connection points: 2
#     Edge 14, Type (0, 1), BuildingBlock: AJUNOK_clean_linker_0, # of connection points: 2
#     Edge 15, Type (0, 1), BuildingBlock: AJUNOK_clean_linker_0, # of connection points: 2
#     Edge 16, Type (0, 1), BuildingBlock: AJUNOK_clean_linker_0, # of connection points: 2
#     Edge 17, Type (0, 1), BuildingBlock: AJUNOK_clean_linker_0, # of connection points: 2
#     Edge 18, Type (0, 1), BuildingBlock: AJUNOK_clean_linker_0, # of connection points: 2
#     Edge 19, Type (0, 1), BuildingBlock: AJUNOK_clean_linker_0, # of connection points: 2
#     Edge 20, Type (0, 1), BuildingBlock: AJUNOK_clean_linker_0, # of connection points: 2
#     Edge 21, Type (0, 1), BuildingBlock: AJUNOK_clean_linker_0, # of connection points: 2
#     Edge 22, Type (0, 1), BuildingBlock: AJUNOK_clean_linker_0, # of connection points: 2
#     Edge 23, Type (0, 1), BuildingBlock: AJUNOK_clean_linker_0, # of connection points: 2
#     Edge 24, Type (0, 1), BuildingBlock: AJUNOK_clean_linker_0, # of connection points: 2
#     Edge 25, Type (0, 1), BuildingBlock: AJUNOK_clean_linker_0, # of connection points: 2
#     Edge 26, Type (0, 1), BuildingBlock: AJUNOK_clean_linker_0, # of connection points: 2
#     Edge 27, Type (0, 1), BuildingBlock: AJUNOK_clean_linker_0, # of connection points: 2
#     Edge 28, Type (0, 1), BuildingBlock: AJUNOK_clean_linker_0, # of connection points: 2
#     Edge 29, Type (0, 1), BuildingBlock: AJUNOK_clean_linker_0, # of connection points: 2
#     Edge 30, Type (0, 1), BuildingBlock: AJUNOK_clean_linker_0, # of connection points: 2
#     Edge 31, Type (0, 1), BuildingBlock: AJUNOK_clean_linker_0, # of connection points: 2
#     Edge 32, Type (0, 1), BuildingBlock: AJUNOK_clean_linker_0, # of connection points: 2
#     Edge 33, Type (0, 1), BuildingBlock: AJUNOK_clean_linker_0, # of connection points: 2
#     Edge 34, Type (0, 1), BuildingBlock: AJUNOK_clean_linker_0, # of connection points: 2
#     Edge 35, Type (0, 1), BuildingBlock: AJUNOK_clean_linker_0, # of connection points: 2
# Relax obj value: 0.091
# Max RMSD: 0.115
# Mean RMSD: 0.097
data_MOF--net-dag--node1-OJICUG_clean_sbu_0--node2-BETDIP_clean_linker_0--edge1-AJUNOK_clean_linker_0
_symmetry_space_group_name_H-M    P1
_symmetry_Int_Tables_number       1
_symmetry_cell_setting            triclinic
loop_
_symmetry_equiv_pos_as_xyz
'x, y, z'
_cell_length_a     28.606693
_cell_length_b     28.030139
_cell_length_c     29.402397
_cell_angle_alpha  85.408096
_cell_angle_beta   89.874145
_cell_angle_gamma 89.999839
loop_
_atom_site_label
_atom_site_type_symbol
_atom_site_fract_x
_atom_site_fract_y
_atom_site_fract_z
_atom_type_partial_charge
Sc0 Sc 0.10143 0.89325 0.00792 0.0
Sc1 Sc 0.12551 0.7713 -0.0009 0.0
Sc2 Sc 0.21269 0.86005 0.97429 0.0
O3 O 0.14644 0.84129 0.99352 0.0
C4 C 0.15261 0.93766 0.9173 0.0
C5 C 0.03589 0.82407 0.95472 0.0
C6 C 0.19482 0.77065 0.91538 0.0
C7 C 0.07687 0.81179 0.08595 0.0
C8 C 0.19348 0.93636 0.04647 0.0
C9 C 0.22796 0.76996 0.04457 0.0
O10 O 0.12093 0.93719 0.9477 0.0
O11 O 0.05982 0.78608 0.96337 0.0
O12 O 0.21764 0.80617 0.92747 0.0
O13 O 0.0781 0.85487 0.06925 0.0
O14 O 0.21986 0.91719 0.0185 0.0
O15 O 0.18907 0.75051 0.03545 0.0
O16 O 0.15004 0.92806 0.04932 0.0
O17 O 0.09156 0.77685 0.0648 0.0
O18 O 0.2405 0.81124 0.02754 0.0
O19 O 0.04727 0.86414 0.96868 0.0
O20 O 0.188 0.91 0.91961 0.0
O21 O 0.15722 0.75581 0.93482 0.0
Sc22 Sc 0.70979 0.63168 0.56115 0.0
Sc23 Sc 0.62896 0.72731 0.5391 0.0
Sc24 Sc 0.59799 0.60986 0.51991 0.0
O25 O 0.6457 0.65641 0.54022 0.0
C26 C 0.69158 0.56421 0.48237 0.0
C27 C 0.73305 0.72785 0.49892 0.0
C28 C 0.58365 0.69586 0.44612 0.0
C29 C 0.68994 0.7114 0.63028 0.0
C30 C 0.63939 0.55437 0.60934 0.0
C31 C 0.53272 0.68214 0.57078 0.0
O32 O 0.7197 0.58565 0.50692 0.0
O33 O 0.69292 0.74668 0.50334 0.0
O34 O 0.58756 0.65133 0.45699 0.0
O35 O 0.70923 0.67359 0.6185 0.0
O36 O 0.60585 0.56527 0.58209 0.0
O37 O 0.56313 0.71464 0.57434 0.0
O38 O 0.67987 0.57338 0.60518 0.0
O39 O 0.66101 0.73547 0.60487 0.0
O40 O 0.54028 0.64475 0.55027 0.0
O41 O 0.7445 0.68736 0.51855 0.0
O42 O 0.64762 0.56873 0.48496 0.0
O43 O 0.59337 0.72776 0.47326 0.0
Sc44 Sc 0.86639 0.23072 0.02227 0.0
Sc45 Sc 0.78411 0.14297 0.06511 0.0
Sc46 Sc 0.89256 0.10862 0.02315 0.0
O47 O 0.84754 0.16091 0.03682 0.0
C48 C 0.90332 0.17996 0.93496 0.0
C49 C 0.75922 0.23124 0.99326 0.0
C50 C 0.79468 0.06226 -0.00244 0.0
C51 C 0.81496 0.23226 0.11891 0.0
C52 C 0.96292 0.1876 0.05602 0.0
C53 C 0.85318 0.06853 0.11934 0.0
O54 O 0.89465 0.21758 0.95526 0.0
O55 O 0.74783 0.19456 0.01926 0.0
O56 O 0.83894 0.06406 -0.00157 0.0
O57 O 0.84143 0.25091 0.0875 0.0
O58 O 0.95311 0.14601 0.04479 0.0
O59 O 0.81333 0.08843 0.1137 0.0
O60 O 0.93431 0.22217 0.0529 0.0
O61 O 0.79279 0.19346 0.11535 0.0
O62 O 0.88648 0.07496 0.09083 0.0
O63 O 0.80057 0.2477 0.99046 0.0
O64 O 0.90162 0.13811 0.95479 0.0
O65 O 0.76854 0.08985 0.01838 0.0
Sc66 Sc 0.39595 0.38337 0.50821 0.0
Sc67 Sc 0.28601 0.35438 0.46625 0.0
Sc68 Sc 0.36988 0.26293 0.496 0.0
O69 O 0.35056 0.33349 0.48997 0.0
C70 C 0.46286 0.31275 0.45779 0.0
C71 C 0.35166 0.43435 0.41723 0.0
C72 C 0.31203 0.27037 0.40329 0.0
C73 C 0.30097 0.42615 0.54332 0.0
C74 C 0.41298 0.30001 0.58628 0.0
C75 C 0.26491 0.26219 0.53426 0.0
O76 O 0.45222 0.35287 0.47217 0.0
O77 O 0.31407 0.40989 0.41799 0.0
O78 O 0.34262 0.25079 0.42987 0.0
O79 O 0.34477 0.41973 0.5458 0.0
O80 O 0.40024 0.26591 0.56318 0.0
O81 O 0.25263 0.3019 0.51361 0.0
O82 O 0.41297 0.34347 0.57068 0.0
O83 O 0.27507 0.40637 0.51535 0.0
O84 O 0.30504 0.24368 0.52931 0.0
O85 O 0.38303 0.42862 0.44763 0.0
O86 O 0.43716 0.27581 0.46376 0.0
O87 O 0.2884 0.30651 0.41297 0.0
H88 H 0.16449 0.23344 0.16027 0.0
H89 H 0.26697 0.11975 0.16845 0.0
H90 H 0.14786 0.11126 0.08225 0.0
H91 H 0.28937 0.14969 0.23047 0.0
C92 C 0.27589 0.1855 0.23312 0.0
C93 C 0.17729 0.19974 0.14947 0.0
C94 C 0.15148 0.17517 0.11827 0.0
C95 C 0.21881 0.18014 0.16828 0.0
C96 C 0.23518 0.13593 0.15479 0.0
C97 C 0.20959 0.1117 0.12344 0.0
C98 C 0.16826 0.13144 0.1052 0.0
N99 N 0.24137 0.20486 0.2023 0.0
H100 H 0.23171 0.59446 0.68219 0.0
H101 H 0.33616 0.70472 0.68832 0.0
H102 H 0.34484 0.60418 0.58589 0.0
H103 H 0.32164 0.68028 0.76583 0.0
C104 C 0.28374 0.68288 0.76596 0.0
C105 C 0.26236 0.61301 0.66808 0.0
C106 C 0.28538 0.5962 0.63054 0.0
C107 C 0.28057 0.65192 0.68929 0.0
C108 C 0.32174 0.67466 0.6721 0.0
C109 C 0.34464 0.65826 0.63408 0.0
C110 C 0.32597 0.6191 0.61351 0.0
N111 N 0.25826 0.66602 0.72919 0.0
H112 H 0.9482 0.77822 0.28313 0.0
H113 H 0.85402 0.8976 0.29296 0.0
H114 H 0.95447 0.89958 0.1845 0.0
H115 H 0.85356 0.8718 0.36704 0.0
C116 C 0.85456 0.83304 0.36755 0.0
C117 C 0.93558 0.81325 0.27049 0.0
C118 C 0.95572 0.83677 0.23141 0.0
C119 C 0.89972 0.83542 0.2939 0.0
C120 C 0.88277 0.88064 0.27657 0.0
C121 C 0.90277 0.90407 0.23731 0.0
C122 C 0.93928 0.88195 0.21527 0.0
N123 N 0.88058 0.8108 0.33383 0.0
H124 H 0.53806 0.27019 0.78569 0.0
H125 H 0.63488 0.38856 0.78622 0.0
H126 H 0.53575 0.38266 0.67771 0.0
H127 H 0.63332 0.36928 0.86195 0.0
C128 C 0.63174 0.33045 0.8653 0.0
C129 C 0.55174 0.30375 0.77026 0.0
C130 C 0.53277 0.32407 0.72943 0.0
C131 C 0.58782 0.32728 0.79177 0.0
C132 C 0.60608 0.3706 0.771 0.0
C133 C 0.58705 0.39089 0.72998 0.0
C134 C 0.55041 0.3674 0.70966 0.0
N135 N 0.6058 0.30575 0.83345 0.0
H136 H 0.66635 0.27631 0.34943 0.0
H137 H 0.77148 0.3866 0.35485 0.0
H138 H 0.64052 0.39952 0.42352 0.0
H139 H 0.79781 0.35806 0.29176 0.0
C140 C 0.78414 0.32257 0.28782 0.0
C141 C 0.67835 0.30951 0.36196 0.0
C142 C 0.64846 0.33566 0.38832 0.0
C143 C 0.72252 0.32785 0.34882 0.0
C144 C 0.73754 0.37182 0.36405 0.0
C145 C 0.70776 0.39744 0.391 0.0
C146 C 0.6637 0.37909 0.40315 0.0
N147 N 0.74898 0.30254 0.31777 0.0
H148 H 0.03331 0.2086 0.74139 0.0
H149 H 0.14202 0.10148 0.74208 0.0
H150 H 0.03262 0.08761 0.84138 0.0
H151 H 0.18372 0.16649 0.71871 0.0
C152 C 0.16129 0.18371 0.6925 0.0
C153 C 0.04844 0.17514 0.75534 0.0
C154 C 0.02707 0.14918 0.79259 0.0
C155 C 0.09025 0.15857 0.73699 0.0
C156 C 0.11017 0.11541 0.7559 0.0
C157 C 0.08946 0.09011 0.79346 0.0
C158 C 0.04783 0.10673 0.81135 0.0
N159 N 0.11237 0.18612 0.70035 0.0
H160 H 0.44367 0.73165 0.25721 0.0
H161 H 0.35023 0.61096 0.2537 0.0
H162 H 0.45101 0.61493 0.36097 0.0
H163 H 0.35428 0.63142 0.17798 0.0
C164 C 0.35142 0.67012 0.17669 0.0
C165 C 0.43099 0.69733 0.27181 0.0
C166 C 0.45126 0.67594 0.31169 0.0
C167 C 0.39513 0.6737 0.24999 0.0
C168 C 0.37858 0.62917 0.26938 0.0
C169 C 0.39883 0.60767 0.30921 0.0
C170 C 0.43513 0.63131 0.33006 0.0
N171 N 0.37577 0.69571 0.2091 0.0
H172 H 0.71903 0.88503 0.87047 0.0
H173 H 0.83294 0.78894 0.84698 0.0
H174 H 0.84773 0.89414 0.94401 0.0
H175 H 0.77152 0.74097 0.82738 0.0
C176 C 0.75054 0.76716 0.80724 0.0
C177 C 0.75356 0.87117 0.87897 0.0
C178 C 0.78082 0.89274 0.911 0.0
C179 C 0.77121 0.83231 0.85705 0.0
C180 C 0.81747 0.81648 0.86597 0.0
C181 C 0.84516 0.83906 0.89713 0.0
C182 C 0.82605 0.87603 0.92048 0.0
N183 N 0.74328 0.81298 0.82319 0.0
C184 C 0.19371 0.98109 0.11591 0.0
C185 C 0.2118 0.97511 0.07224 0.0
C186 C 0.19891 0.02453 0.13566 0.0
C187 C 0.22191 0.06326 0.11207 0.0
H188 H 0.17236 0.95336 0.13334 0.0
H189 H 0.18088 0.02938 0.16742 0.0
S190 S 0.28011 0.06417 -0.00043 0.0
N191 N 0.25811 0.00971 0.00836 0.0
N192 N 0.26676 0.09191 0.04537 0.0
C193 C 0.2438 0.0564 0.07045 0.0
C194 C 0.23908 0.01198 0.05052 0.0
C195 C 0.47475 0.68337 0.63436 0.0
C196 C 0.4849 0.68872 0.58749 0.0
C197 C 0.42834 0.67769 0.64973 0.0
C198 C 0.39097 0.6772 0.61857 0.0
H199 H 0.5029 0.68018 0.65901 0.0
H200 H 0.42205 0.67006 0.68593 0.0
S201 S 0.39958 0.69751 0.49262 0.0
N202 N 0.45426 0.69847 0.51044 0.0
N203 N 0.36715 0.68893 0.53912 0.0
C204 C 0.40076 0.68665 0.57185 0.0
C205 C 0.44777 0.69201 0.55634 0.0
C206 C 0.90627 0.02767 0.17678 0.0
C207 C 0.86104 0.0329 0.15843 0.0
C208 C 0.91832 0.98763 0.20581 0.0
C209 C 0.88571 0.95109 0.2173 0.0
H210 H 0.93332 0.05347 0.16667 0.0
H211 H 0.95426 0.98377 0.21711 0.0
S212 S 0.76143 0.94986 0.18206 0.0
N213 N 0.78228 0.00039 0.15716 0.0
N214 N 0.80529 0.92447 0.21135 0.0
C215 C 0.83942 0.95756 0.20212 0.0
C216 C 0.82698 -0.00132 0.17271 0.0
C217 C 0.47432 0.26294 0.63704 0.0
C218 C 0.43306 0.29004 0.63194 0.0
C219 C 0.50474 0.26896 0.67356 0.0
C220 C 0.49419 0.30175 0.70586 0.0
H221 H 0.48574 0.24141 0.61009 0.0
H222 H 0.53878 0.25199 0.67367 0.0
S223 S 0.38614 0.37348 0.71219 0.0
N224 N 0.37983 0.34478 0.66566 0.0
N225 N 0.43681 0.35567 0.73443 0.0
C226 C 0.45038 0.32417 0.70414 0.0
C227 C 0.41974 0.31839 0.66701 0.0
C228 C 0.6881 0.5254 0.40976 0.0
C229 C 0.70941 0.5288 0.45238 0.0
C230 C 0.69329 0.48428 0.38632 0.0
C231 C 0.71948 0.44515 0.40508 0.0
H232 H 0.66438 0.55312 0.39617 0.0
H233 H 0.67293 0.48113 0.35566 0.0
S234 S 0.7869 0.43872 0.51261 0.0
N235 N 0.76213 0.49214 0.50977 0.0
N236 N 0.7709 0.41406 0.46587 0.0
C237 C 0.7446 0.44991 0.44533 0.0
C238 C 0.7398 0.4921 0.46904 0.0
C239 C 0.95966 0.21584 0.87704 0.0
C240 C 0.92299 0.18356 0.88832 0.0
C241 C 0.99085 0.20785 0.84141 0.0
C242 C 0.98595 0.16755 0.81619 0.0
H243 H 0.96735 0.24426 0.89878 0.0
H244 H 0.0215 0.23043 0.83674 0.0
S245 S 0.88978 0.0789 0.82583 0.0
N246 N 0.87883 0.11498 0.8663 0.0
N247 N 0.93757 0.09998 0.79977 0.0
C248 C 0.94621 0.13867 0.82355 0.0
C249 C 0.91458 0.14675 0.85955 0.0
C250 C 0.40563 0.48216 0.36577 0.0
C251 C 0.35967 0.47333 0.3813 0.0
C252 C 0.41729 0.52461 0.34013 0.0
C253 C 0.38348 0.56002 0.32922 0.0
H254 H 0.43333 0.45696 0.37535 0.0
H255 H 0.45349 0.53066 0.33037 0.0
S256 S 0.25751 0.55297 0.35896 0.0
N257 N 0.27949 0.50193 0.38148 0.0
N258 N 0.30155 0.58238 0.33335 0.0
C259 C 0.33679 0.55048 0.34204 0.0
C260 C 0.32483 0.50691 0.36808 0.0
C261 C 0.95972 0.78386 0.93911 0.0
C262 C 0.99084 0.82247 0.93021 0.0
C263 C 0.91268 0.78754 0.92518 0.0
C264 C 0.89585 0.82972 0.90171 0.0
H265 H 0.97076 0.75218 0.95982 0.0
H266 H 0.88877 0.75868 0.93543 0.0
S267 S 0.96466 0.93768 0.8639 0.0
N268 N 0.00249 0.90173 0.8917 0.0
N269 N 0.91468 0.90819 0.86548 0.0
C270 C 0.92755 0.86667 0.88927 0.0
C271 C 0.97495 0.86315 0.90352 0.0
C272 C 0.7799 0.02333 0.92657 0.0
C273 C 0.77406 0.02337 0.97398 0.0
C274 C 0.77567 0.98085 0.90489 0.0
C275 C 0.76638 0.93725 0.93027 0.0
H276 H 0.79153 0.05544 0.90678 0.0
H277 H 0.78437 0.98128 0.86896 0.0
S278 S 0.74437 0.91953 0.05454 0.0
N279 N 0.75445 0.97752 0.04498 0.0
N280 N 0.74778 0.89718 0.00429 0.0
C281 C 0.75691 0.93758 0.97705 0.0
C282 C 0.76047 0.98092 -0.00103 0.0
C283 C 0.51872 0.34848 0.40072 0.0
C284 C 0.50727 0.31045 0.4328 0.0
C285 C 0.56397 0.35369 0.38324 0.0
C286 C 0.59951 0.32138 0.39764 0.0
H287 H 0.49306 0.37579 0.39079 0.0
H288 H 0.57199 0.38499 0.36048 0.0
S289 S 0.58648 0.2134 0.4778 0.0
N290 N 0.53375 0.2376 0.4754 0.0
N291 N 0.61969 0.24804 0.44291 0.0
C292 C 0.58787 0.28128 0.42715 0.0
C293 C 0.5414 0.27566 0.44472 0.0
C294 C 0.16167 0.02035 0.88265 0.0
C295 C 0.14709 0.97311 0.87833 0.0
C296 C 0.14528 0.05796 0.85263 0.0
C297 C 0.11358 0.04931 0.8178 0.0
H298 H 0.1834 0.02861 0.91115 0.0
H299 H 0.15517 0.09431 0.85836 0.0
S300 S 0.06831 0.93151 0.78991 0.0
N301 N 0.10212 0.91916 0.83485 0.0
N302 N 0.07095 0.99016 0.77846 0.0
C303 C 0.10083 0.00201 0.81158 0.0
C304 C 0.11772 0.96372 0.84195 0.0
C305 C 0.51594 0.73257 0.40402 0.0
C306 C 0.55913 0.70868 0.40288 0.0
C307 C 0.48199 0.72678 0.37043 0.0
C308 C 0.49082 0.69773 0.33454 0.0
H309 H 0.50623 0.75098 0.43366 0.0
H310 H 0.44725 0.74104 0.37507 0.0
S311 S 0.60143 0.63538 0.31182 0.0
N312 N 0.61122 0.66094 0.35961 0.0
N313 N 0.54769 0.65074 0.29626 0.0
C314 C 0.53574 0.67867 0.33016 0.0
C315 C 0.56999 0.68414 0.3644 0.0
C316 C 0.29315 0.46562 0.61542 0.0
C317 C 0.28163 0.46427 0.56912 0.0
C318 C 0.28833 0.50794 0.63724 0.0
C319 C 0.2729 0.55023 0.61302 0.0
H320 H 0.30918 0.43483 0.63384 0.0
H321 H 0.30108 0.50877 0.67186 0.0
S322 S 0.2348 0.56423 0.49251 0.0
N323 N 0.25009 0.50737 0.501 0.0
N324 N 0.24268 0.58752 0.54181 0.0
C325 C 0.25796 0.54839 0.56783 0.0
C326 C 0.2619 0.5051 0.54587 0.0
C327 C 0.0136 0.77683 0.13664 0.0
C328 C 0.0551 0.80359 0.13131 0.0
C329 C 0.9832 0.78303 0.17339 0.0
C330 C 0.99389 0.81576 0.20571 0.0
H331 H 0.00227 0.75496 0.10997 0.0
H332 H 0.94925 0.76584 0.17395 0.0
S333 S 0.10201 0.88766 0.21087 0.0
N334 N 0.10821 0.85874 0.16444 0.0
N335 N 0.05136 0.86999 0.23345 0.0
C336 C 0.0376 0.83845 0.20332 0.0
C337 C 0.06821 0.83245 0.16603 0.0
C338 C 0.58447 0.51203 0.66439 0.0
C339 C 0.63008 0.5169 0.64662 0.0
C340 C 0.5719 0.47274 0.69415 0.0
C341 C 0.60434 0.43658 0.70717 0.0
H342 H 0.55771 0.53797 0.65393 0.0
H343 H 0.53586 0.46947 0.70541 0.0
S344 S 0.72902 0.4338 0.67296 0.0
N345 N 0.70869 0.48382 0.64666 0.0
N346 N 0.68467 0.4093 0.70241 0.0
C347 C 0.65076 0.44227 0.69196 0.0
C348 C 0.66374 0.48262 0.6617 0.0
C349 C 0.04763 0.19144 0.04034 0.0
C350 C 0.01073 0.1959 0.07116 0.0
C351 C 0.09395 0.18971 0.05537 0.0
C352 C 0.10475 0.19135 0.1019 0.0
H353 H 0.04046 0.18701 0.00473 0.0
H354 H 0.12132 0.18387 0.03088 0.0
S355 S 0.02005 0.2064 0.1954 0.0
N356 N 0.98738 0.20578 0.14917 0.0
N357 N 0.07466 0.20087 0.17815 0.0
C358 C 0.06816 0.19893 0.13258 0.0
C359 C 0.02094 0.2014 0.11701 0.0
C360 C 0.29076 0.76922 0.10354 0.0
C361 C 0.25991 0.74371 0.07719 0.0
C362 C 0.32053 0.74538 0.13558 0.0
C363 C 0.32094 0.69513 0.14197 0.0
H364 H 0.29136 0.80798 0.10002 0.0
H365 H 0.34322 0.76658 0.15544 0.0
S366 S 0.24898 0.61155 0.07998 0.0
N367 N 0.23282 0.66529 0.05864 0.0
N368 N 0.28921 0.62055 0.11857 0.0
C369 C 0.29104 0.66917 0.11528 0.0
C370 C 0.26036 0.69341 0.08301 0.0
C371 C 0.72824 0.69571 0.70621 0.0
C372 C 0.70238 0.72699 0.67587 0.0
C373 C 0.74255 0.70915 0.74871 0.0
C374 C 0.73175 0.7544 0.76293 0.0
H375 H 0.738 0.66036 0.69711 0.0
H376 H 0.76289 0.68395 0.77044 0.0
S377 S 0.66328 0.84942 0.6977 0.0
N378 N 0.66532 0.80516 0.66392 0.0
N379 N 0.69229 0.83045 0.74415 0.0
C380 C 0.70508 0.78595 0.73364 0.0
C381 C 0.69035 0.77219 0.69009 0.0
C382 C 0.78244 0.23338 0.19771 0.0
C383 C 0.80963 0.25586 0.16214 0.0
C384 C 0.77553 0.25446 0.23864 0.0
C385 C 0.79541 0.29904 0.24587 0.0
H386 H 0.76584 0.19918 0.19404 0.0
H387 H 0.75378 0.23571 0.26444 0.0
S388 S 0.87152 0.37213 0.16538 0.0
N389 N 0.85825 0.32477 0.138 0.0
N390 N 0.84484 0.36439 0.21529 0.0
C391 C 0.82362 0.32153 0.21138 0.0
C392 C 0.8308 0.30002 0.16946 0.0
C393 C 0.25309 0.20315 0.60124 0.0
C394 C 0.23414 0.23908 0.5704 0.0
C395 C 0.22846 0.18533 0.6399 0.0
C396 C 0.1835 0.20191 0.64919 0.0
H397 H 0.28818 0.18975 0.59673 0.0
H398 H 0.24522 0.15875 0.66323 0.0
S399 S 0.11575 0.29247 0.57796 0.0
N400 N 0.166 0.28865 0.55071 0.0
N401 N 0.11932 0.25413 0.6235 0.0
C402 C 0.16283 0.23606 0.61787 0.0
C403 C 0.18825 0.25486 0.57845 0.0
C404 C 0.76388 0.80367 0.45934 0.0
C405 C 0.76705 0.75365 0.46776 0.0
C406 C 0.79329 0.82875 0.42766 0.0
C407 C 0.82651 0.8048 0.40257 0.0
H408 H 0.73822 0.8237 0.47716 0.0
H409 H 0.78922 0.8672 0.42202 0.0
S410 S 0.84987 0.67408 0.41247 0.0
N411 N 0.80709 0.68108 0.44912 0.0
N412 N 0.86204 0.72824 0.38923 0.0
C413 C 0.83075 0.75487 0.4111 0.0
C414 C 0.80113 0.72932 0.44383 0.0
C415 C 0.72804 0.30512 0.95128 0.0
C416 C 0.72337 0.25584 0.96385 0.0
C417 C 0.69705 0.32893 0.92053 0.0
C418 C 0.66077 0.30426 0.90054 0.0
H419 H 0.75621 0.32545 0.96496 0.0
H420 H 0.70244 0.36674 0.9113 0.0
S421 S 0.63192 0.17543 0.92364 0.0
N422 N 0.6783 0.1835 0.95546 0.0
N423 N 0.62026 0.22822 0.89707 0.0
C424 C 0.65479 0.25522 0.91362 0.0
C425 C 0.68604 0.23104 0.94551 0.0
C426 C 0.3182 0.20348 0.35217 0.0
C427 C 0.30383 0.25044 0.35886 0.0
C428 C 0.30993 0.18344 0.31084 0.0
C429 C 0.28704 0.20953 0.27469 0.0
H430 H 0.33526 0.18162 0.3793 0.0
H431 H 0.3207 0.14681 0.30753 0.0
S432 S 0.24685 0.33565 0.27283 0.0
N433 N 0.26862 0.32377 0.32441 0.0
N434 N 0.25317 0.28602 0.24682 0.0
C435 C 0.27383 0.25705 0.28023 0.0
C436 C 0.28217 0.27749 0.32233 0.0
C437 C 0.18938 0.72833 0.8434 0.0
C438 C 0.21609 0.74409 0.87933 0.0
C439 C 0.21112 0.70771 0.80676 0.0
C440 C 0.26006 0.70189 0.80541 0.0
H441 H 0.15185 0.73352 0.84282 0.0
H442 H 0.18954 0.69718 0.77905 0.0
S443 S 0.34454 0.73219 0.89406 0.0
N444 N 0.29329 0.74882 0.91324 0.0
N445 N 0.33382 0.71016 0.84474 0.0
C446 C 0.28664 0.71563 0.84216 0.0
C447 C 0.26473 0.73668 0.87907 0.0
loop_
_geom_bond_atom_site_label_1
_geom_bond_atom_site_label_2
_geom_bond_distance
_geom_bond_site_symmetry_2
_ccdc_geom_bond_type
Sc0 O3 2.025 . S
Sc0 O10 2.105 1_554 S
Sc0 O13 2.105 . S
Sc0 O16 2.105 . S
Sc0 O19 2.105 1_554 S
Sc1 O3 2.025 . S
Sc1 O11 2.105 1_554 S
Sc1 O15 2.105 . S
Sc1 O17 2.105 . S
Sc1 O21 2.105 1_554 S
Sc2 O3 2.025 1_556 S
Sc2 O12 2.105 . S
Sc2 O14 2.105 1_556 S
Sc2 O18 2.105 1_556 S
Sc2 O20 2.105 . S
O3 Sc0 2.025 . S
O3 Sc1 2.025 . S
O3 Sc2 2.025 1_554 S
C4 O10 1.268 . S
C4 O20 1.268 . S
C5 O11 1.268 . S
C5 O19 1.268 . S
C6 O12 1.268 . S
C6 O21 1.268 . S
C7 O13 1.268 . S
C7 O17 1.268 . S
C8 O14 1.268 . S
C8 O16 1.268 . S
C9 O15 1.268 . S
C9 O18 1.268 . S
O10 Sc0 2.105 1_556 S
O10 C4 1.268 . S
O11 Sc1 2.105 1_556 S
O11 C5 1.268 . S
O12 Sc2 2.105 . S
O12 C6 1.268 . S
O13 Sc0 2.105 . S
O13 C7 1.268 . S
O14 Sc2 2.105 1_554 S
O14 C8 1.268 . S
O15 Sc1 2.105 . S
O15 C9 1.268 . S
O16 Sc0 2.105 . S
O16 C8 1.268 . S
O17 Sc1 2.105 . S
O17 C7 1.268 . S
O18 Sc2 2.105 1_554 S
O18 C9 1.268 . S
O19 Sc0 2.105 1_556 S
O19 C5 1.268 . S
O20 Sc2 2.105 . S
O20 C4 1.268 . S
O21 Sc1 2.105 1_556 S
O21 C6 1.268 . S
Sc22 O25 2.025 . S
Sc22 O32 2.105 . S
Sc22 O35 2.105 . S
Sc22 O38 2.105 . S
Sc22 O41 2.105 . S
Sc23 O25 2.025 . S
Sc23 O33 2.105 . S
Sc23 O37 2.105 . S
Sc23 O39 2.105 . S
Sc23 O43 2.105 . S
Sc24 O25 2.025 . S
Sc24 O34 2.105 . S
Sc24 O36 2.105 . S
Sc24 O40 2.105 . S
Sc24 O42 2.105 . S
O25 Sc22 2.025 . S
O25 Sc23 2.025 . S
O25 Sc24 2.025 . S
C26 O32 1.268 . S
C26 O42 1.268 . S
C27 O33 1.268 . S
C27 O41 1.268 . S
C28 O34 1.268 . S
C28 O43 1.268 . S
C29 O35 1.268 . S
C29 O39 1.268 . S
C30 O36 1.268 . S
C30 O38 1.268 . S
C31 O37 1.268 . S
C31 O40 1.268 . S
O32 Sc22 2.105 . S
O32 C26 1.268 . S
O33 Sc23 2.105 . S
O33 C27 1.268 . S
O34 Sc24 2.105 . S
O34 C28 1.268 . S
O35 Sc22 2.105 . S
O35 C29 1.268 . S
O36 Sc24 2.105 . S
O36 C30 1.268 . S
O37 Sc23 2.105 . S
O37 C31 1.268 . S
O38 Sc22 2.105 . S
O38 C30 1.268 . S
O39 Sc23 2.105 . S
O39 C29 1.268 . S
O40 Sc24 2.105 . S
O40 C31 1.268 . S
O41 Sc22 2.105 . S
O41 C27 1.268 . S
O42 Sc24 2.105 . S
O42 C26 1.268 . S
O43 Sc23 2.105 . S
O43 C28 1.268 . S
Sc44 O47 2.025 . S
Sc44 O54 2.105 1_554 S
Sc44 O57 2.105 . S
Sc44 O60 2.105 . S
Sc44 O63 2.105 1_554 S
Sc45 O47 2.025 . S
Sc45 O55 2.105 . S
Sc45 O59 2.105 . S
Sc45 O61 2.105 . S
Sc45 O65 2.105 . S
Sc46 O47 2.025 . S
Sc46 O56 2.105 1_554 S
Sc46 O58 2.105 . S
Sc46 O62 2.105 . S
Sc46 O64 2.105 1_554 S
O47 Sc44 2.025 . S
O47 Sc45 2.025 . S
O47 Sc46 2.025 . S
C48 O54 1.268 . S
C48 O64 1.268 . S
C49 O55 1.268 1_556 S
C49 O63 1.268 . S
C50 O56 1.268 . S
C50 O65 1.268 1_556 S
C51 O57 1.268 . S
C51 O61 1.268 . S
C52 O58 1.268 . S
C52 O60 1.268 . S
C53 O59 1.268 . S
C53 O62 1.268 . S
O54 Sc44 2.105 1_556 S
O54 C48 1.268 . S
O55 Sc45 2.105 . S
O55 C49 1.268 1_554 S
O56 Sc46 2.105 1_556 S
O56 C50 1.268 . S
O57 Sc44 2.105 . S
O57 C51 1.268 . S
O58 Sc46 2.105 . S
O58 C52 1.268 . S
O59 Sc45 2.105 . S
O59 C53 1.268 . S
O60 Sc44 2.105 . S
O60 C52 1.268 . S
O61 Sc45 2.105 . S
O61 C51 1.268 . S
O62 Sc46 2.105 . S
O62 C53 1.268 . S
O63 Sc44 2.105 1_556 S
O63 C49 1.268 . S
O64 Sc46 2.105 1_556 S
O64 C48 1.268 . S
O65 Sc45 2.105 . S
O65 C50 1.268 1_554 S
Sc66 O69 2.025 . S
Sc66 O76 2.105 . S
Sc66 O79 2.105 . S
Sc66 O82 2.105 . S
Sc66 O85 2.105 . S
Sc67 O69 2.025 . S
Sc67 O77 2.105 . S
Sc67 O81 2.105 . S
Sc67 O83 2.105 . S
Sc67 O87 2.105 . S
Sc68 O69 2.025 . S
Sc68 O78 2.105 . S
Sc68 O80 2.105 . S
Sc68 O84 2.105 . S
Sc68 O86 2.105 . S
O69 Sc66 2.025 . S
O69 Sc67 2.025 . S
O69 Sc68 2.025 . S
C70 O76 1.268 . S
C70 O86 1.268 . S
C71 O77 1.268 . S
C71 O85 1.268 . S
C72 O78 1.268 . S
C72 O87 1.268 . S
C73 O79 1.268 . S
C73 O83 1.268 . S
C74 O80 1.268 . S
C74 O82 1.268 . S
C75 O81 1.268 . S
C75 O84 1.268 . S
O76 Sc66 2.105 . S
O76 C70 1.268 . S
O77 Sc67 2.105 . S
O77 C71 1.268 . S
O78 Sc68 2.105 . S
O78 C72 1.268 . S
O79 Sc66 2.105 . S
O79 C73 1.268 . S
O80 Sc68 2.105 . S
O80 C74 1.268 . S
O81 Sc67 2.105 . S
O81 C75 1.268 . S
O82 Sc66 2.105 . S
O82 C74 1.268 . S
O83 Sc67 2.105 . S
O83 C73 1.268 . S
O84 Sc68 2.105 . S
O84 C75 1.268 . S
O85 Sc66 2.105 . S
O85 C71 1.268 . S
O86 Sc68 2.105 . S
O86 C70 1.268 . S
O87 Sc67 2.105 . S
O87 C72 1.268 . S
H88 C93 0.930 . S
H89 C96 0.930 . S
H90 C98 0.930 . S
H91 C92 1.016 . S
C92 H91 1.016 . S
C92 N99 1.286 . S
C93 H88 0.930 . S
C93 C94 1.397 . S
C93 C95 1.361 . S
C94 C93 1.397 . S
C94 C98 1.390 . S
C95 C93 1.361 . S
C95 C96 1.393 . S
C95 N99 1.413 . S
C96 H89 0.930 . S
C96 C95 1.393 . S
C96 C97 1.399 . S
C97 C96 1.399 . S
C97 C98 1.381 . S
C98 H90 0.930 . S
C98 C94 1.390 . S
C98 C97 1.381 . S
N99 C92 1.286 . S
N99 C95 1.413 . S
H100 C105 0.930 . S
H101 C108 0.930 . S
H102 C110 0.930 . S
H103 C104 1.016 . S
C104 H103 1.016 . S
C104 N111 1.286 . S
C105 H100 0.930 . S
C105 C106 1.397 . S
C105 C107 1.361 . S
C106 C105 1.397 . S
C106 C110 1.390 . S
C107 C105 1.361 . S
C107 C108 1.393 . S
C107 N111 1.413 . S
C108 H101 0.930 . S
C108 C107 1.393 . S
C108 C109 1.399 . S
C109 C108 1.399 . S
C109 C110 1.381 . S
C110 H102 0.930 . S
C110 C106 1.390 . S
C110 C109 1.381 . S
N111 C104 1.286 . S
N111 C107 1.413 . S
H112 C117 0.930 . S
H113 C120 0.930 . S
H114 C122 0.930 . S
H115 C116 1.016 . S
C116 H115 1.016 . S
C116 N123 1.286 . S
C117 H112 0.930 . S
C117 C118 1.397 . S
C117 C119 1.361 . S
C118 C117 1.397 . S
C118 C122 1.390 . S
C119 C117 1.361 . S
C119 C120 1.393 . S
C119 N123 1.413 . S
C120 H113 0.930 . S
C120 C119 1.393 . S
C120 C121 1.399 . S
C121 C120 1.399 . S
C121 C122 1.381 . S
C122 H114 0.930 . S
C122 C118 1.390 . S
C122 C121 1.381 . S
N123 C116 1.286 . S
N123 C119 1.413 . S
H124 C129 0.930 . S
H125 C132 0.930 . S
H126 C134 0.930 . S
H127 C128 1.016 . S
C128 H127 1.016 . S
C128 N135 1.286 . S
C129 H124 0.930 . S
C129 C130 1.397 . S
C129 C131 1.361 . S
C130 C129 1.397 . S
C130 C134 1.390 . S
C131 C129 1.361 . S
C131 C132 1.393 . S
C131 N135 1.413 . S
C132 H125 0.930 . S
C132 C131 1.393 . S
C132 C133 1.399 . S
C133 C132 1.399 . S
C133 C134 1.381 . S
C134 H126 0.930 . S
C134 C130 1.390 . S
C134 C133 1.381 . S
N135 C128 1.286 . S
N135 C131 1.413 . S
H136 C141 0.930 . S
H137 C144 0.930 . S
H138 C146 0.930 . S
H139 C140 1.016 . S
C140 H139 1.016 . S
C140 N147 1.286 . S
C141 H136 0.930 . S
C141 C142 1.397 . S
C141 C143 1.361 . S
C142 C141 1.397 . S
C142 C146 1.390 . S
C143 C141 1.361 . S
C143 C144 1.393 . S
C143 N147 1.413 . S
C144 H137 0.930 . S
C144 C143 1.393 . S
C144 C145 1.399 . S
C145 C144 1.399 . S
C145 C146 1.381 . S
C146 H138 0.930 . S
C146 C142 1.390 . S
C146 C145 1.381 . S
N147 C140 1.286 . S
N147 C143 1.413 . S
H148 C153 0.930 . S
H149 C156 0.930 . S
H150 C158 0.930 . S
H151 C152 1.016 . S
C152 H151 1.016 . S
C152 N159 1.286 . S
C153 H148 0.930 . S
C153 C154 1.397 . S
C153 C155 1.361 . S
C154 C153 1.397 . S
C154 C158 1.390 . S
C155 C153 1.361 . S
C155 C156 1.393 . S
C155 N159 1.413 . S
C156 H149 0.930 . S
C156 C155 1.393 . S
C156 C157 1.399 . S
C157 C156 1.399 . S
C157 C158 1.381 . S
C158 H150 0.930 . S
C158 C154 1.390 . S
C158 C157 1.381 . S
N159 C152 1.286 . S
N159 C155 1.413 . S
H160 C165 0.930 . S
H161 C168 0.930 . S
H162 C170 0.930 . S
H163 C164 1.016 . S
C164 H163 1.016 . S
C164 N171 1.286 . S
C165 H160 0.930 . S
C165 C166 1.397 . S
C165 C167 1.361 . S
C166 C165 1.397 . S
C166 C170 1.390 . S
C167 C165 1.361 . S
C167 C168 1.393 . S
C167 N171 1.413 . S
C168 H161 0.930 . S
C168 C167 1.393 . S
C168 C169 1.399 . S
C169 C168 1.399 . S
C169 C170 1.381 . S
C170 H162 0.930 . S
C170 C166 1.390 . S
C170 C169 1.381 . S
N171 C164 1.286 . S
N171 C167 1.413 . S
H172 C177 0.930 . S
H173 C180 0.930 . S
H174 C182 0.930 . S
H175 C176 1.016 . S
C176 H175 1.016 . S
C176 N183 1.286 . S
C177 H172 0.930 . S
C177 C178 1.397 . S
C177 C179 1.361 . S
C178 C177 1.397 . S
C178 C182 1.390 . S
C179 C177 1.361 . S
C179 C180 1.393 . S
C179 N183 1.413 . S
C180 H173 0.930 . S
C180 C179 1.393 . S
C180 C181 1.399 . S
C181 C180 1.399 . S
C181 C182 1.381 . S
C182 H174 0.930 . S
C182 C178 1.390 . S
C182 C181 1.381 . S
N183 C176 1.286 . S
N183 C179 1.413 . S
C184 C185 1.368 1_545 S
C184 C186 1.428 . S
C184 H188 0.921 1_545 S
C185 C184 1.368 1_565 S
C185 C194 1.419 1_565 S
C186 C184 1.428 . S
C186 C187 1.363 . S
C186 H189 0.929 . S
C187 C186 1.363 . S
C187 C193 1.428 . S
H188 C184 0.921 1_565 S
H189 C186 0.929 . S
S190 N191 1.613 . S
S190 N192 1.610 . S
N191 S190 1.613 . S
N191 C194 1.350 . S
N192 S190 1.610 . S
N192 C193 1.351 . S
C193 C187 1.428 . S
C193 N192 1.351 . S
C193 C194 1.434 . S
C194 C185 1.419 1_545 S
C194 N191 1.350 . S
C194 C193 1.434 . S
C195 C196 1.369 . S
C195 C197 1.419 . S
C195 H199 0.930 . S
C196 C195 1.369 . S
C196 C205 1.429 . S
C197 C195 1.419 . S
C197 C198 1.363 . S
C197 H200 0.929 . S
C198 C197 1.363 . S
C198 C204 1.428 . S
H199 C195 0.930 . S
H200 C197 0.929 . S
S201 N202 1.613 . S
S201 N203 1.610 . S
N202 S201 1.613 . S
N202 C205 1.350 . S
N203 S201 1.610 . S
N203 C204 1.351 . S
C204 C198 1.428 . S
C204 N203 1.351 . S
C204 C205 1.434 . S
C205 C196 1.429 . S
C205 N202 1.350 . S
C205 C204 1.434 . S
C206 C207 1.369 . S
C206 C208 1.419 1_545 S
C206 H210 0.930 . S
C207 C206 1.369 . S
C207 C216 1.429 1_545 S
C208 C206 1.419 1_565 S
C208 C209 1.363 . S
C208 H211 0.929 . S
C209 C208 1.363 . S
C209 C215 1.428 . S
H210 C206 0.930 . S
H211 C208 0.929 . S
S212 N213 1.613 . S
S212 N214 1.610 . S
N213 S212 1.613 . S
N213 C216 1.350 . S
N214 S212 1.610 . S
N214 C215 1.351 . S
C215 C209 1.428 . S
C215 N214 1.351 . S
C215 C216 1.434 . S
C216 C207 1.429 1_565 S
C216 N213 1.350 . S
C216 C215 1.434 . S
C217 C218 1.369 . S
C217 C219 1.419 . S
C217 H221 0.930 . S
C218 C217 1.369 . S
C218 C227 1.429 . S
C219 C217 1.419 . S
C219 C220 1.363 . S
C219 H222 0.929 . S
C220 C219 1.363 . S
C220 C226 1.428 . S
H221 C217 0.930 . S
H222 C219 0.929 . S
S223 N224 1.613 . S
S223 N225 1.610 . S
N224 S223 1.613 . S
N224 C227 1.350 . S
N225 S223 1.610 . S
N225 C226 1.351 . S
C226 C220 1.428 . S
C226 N225 1.351 . S
C226 C227 1.434 . S
C227 C218 1.429 . S
C227 N224 1.350 . S
C227 C226 1.434 . S
C228 C229 1.369 . S
C228 C230 1.419 . S
C228 H232 0.930 . S
C229 C228 1.369 . S
C229 C238 1.429 . S
C230 C228 1.419 . S
C230 C231 1.363 . S
C230 H233 0.929 . S
C231 C230 1.363 . S
C231 C237 1.428 . S
H232 C228 0.930 . S
H233 C230 0.929 . S
S234 N235 1.613 . S
S234 N236 1.610 . S
N235 S234 1.613 . S
N235 C238 1.350 . S
N236 S234 1.610 . S
N236 C237 1.351 . S
C237 C231 1.428 . S
C237 N236 1.351 . S
C237 C238 1.434 . S
C238 C229 1.429 . S
C238 N235 1.350 . S
C238 C237 1.434 . S
C239 C240 1.369 . S
C239 C241 1.419 1_655 S
C239 H243 0.930 . S
C240 C239 1.369 . S
C240 C249 1.429 . S
C241 C239 1.419 1_455 S
C241 C242 1.363 . S
C241 H244 0.929 . S
C242 C241 1.363 . S
C242 C248 1.428 1_455 S
H243 C239 0.930 . S
H244 C241 0.929 . S
S245 N246 1.613 . S
S245 N247 1.610 . S
N246 S245 1.613 . S
N246 C249 1.350 . S
N247 S245 1.610 . S
N247 C248 1.351 . S
C248 C242 1.428 1_655 S
C248 N247 1.351 . S
C248 C249 1.434 . S
C249 C240 1.429 . S
C249 N246 1.350 . S
C249 C248 1.434 . S
C250 C251 1.369 . S
C250 C252 1.419 . S
C250 H254 0.930 . S
C251 C250 1.369 . S
C251 C260 1.429 . S
C252 C250 1.419 . S
C252 C253 1.363 . S
C252 H255 0.929 . S
C253 C252 1.363 . S
C253 C259 1.428 . S
H254 C250 0.930 . S
H255 C252 0.929 . S
S256 N257 1.613 . S
S256 N258 1.610 . S
N257 S256 1.613 . S
N257 C260 1.350 . S
N258 S256 1.610 . S
N258 C259 1.351 . S
C259 C253 1.428 . S
C259 N258 1.351 . S
C259 C260 1.434 . S
C260 C251 1.429 . S
C260 N257 1.350 . S
C260 C259 1.434 . S
C261 C262 1.369 . S
C261 C263 1.419 . S
C261 H265 0.930 . S
C262 C261 1.369 . S
C262 C271 1.429 . S
C263 C261 1.419 . S
C263 C264 1.363 . S
C263 H266 0.929 . S
C264 C263 1.363 . S
C264 C270 1.428 . S
H265 C261 0.930 . S
H266 C263 0.929 . S
S267 N268 1.613 1_655 S
S267 N269 1.610 . S
N268 S267 1.613 1_455 S
N268 C271 1.350 1_455 S
N269 S267 1.610 . S
N269 C270 1.351 . S
C270 C264 1.428 . S
C270 N269 1.351 . S
C270 C271 1.434 . S
C271 C262 1.429 . S
C271 N268 1.350 1_655 S
C271 C270 1.434 . S
C272 C273 1.369 . S
C272 C274 1.419 1_545 S
C272 H276 0.930 . S
C273 C272 1.369 . S
C273 C282 1.429 1_545 S
C274 C272 1.419 1_565 S
C274 C275 1.363 . S
C274 H277 0.929 . S
C275 C274 1.363 . S
C275 C281 1.428 . S
H276 C272 0.930 . S
H277 C274 0.929 . S
S278 N279 1.613 . S
S278 N280 1.610 1_554 S
N279 S278 1.613 . S
N279 C282 1.350 1_554 S
N280 S278 1.610 1_556 S
N280 C281 1.351 . S
C281 C275 1.428 . S
C281 N280 1.351 . S
C281 C282 1.434 . S
C282 C273 1.429 1_565 S
C282 N279 1.350 1_556 S
C282 C281 1.434 . S
C283 C284 1.369 . S
C283 C285 1.419 . S
C283 H287 0.930 . S
C284 C283 1.369 . S
C284 C293 1.429 . S
C285 C283 1.419 . S
C285 C286 1.363 . S
C285 H288 0.929 . S
C286 C285 1.363 . S
C286 C292 1.428 . S
H287 C283 0.930 . S
H288 C285 0.929 . S
S289 N290 1.613 . S
S289 N291 1.610 . S
N290 S289 1.613 . S
N290 C293 1.350 . S
N291 S289 1.610 . S
N291 C292 1.351 . S
C292 C286 1.428 . S
C292 N291 1.351 . S
C292 C293 1.434 . S
C293 C284 1.429 . S
C293 N290 1.350 . S
C293 C292 1.434 . S
C294 C295 1.369 1_545 S
C294 C296 1.419 . S
C294 H298 0.930 . S
C295 C294 1.369 1_565 S
C295 C304 1.429 . S
C296 C294 1.419 . S
C296 C297 1.363 . S
C296 H299 0.929 . S
C297 C296 1.363 . S
C297 C303 1.428 . S
H298 C294 0.930 . S
H299 C296 0.929 . S
S300 N301 1.613 . S
S300 N302 1.610 1_565 S
N301 S300 1.613 . S
N301 C304 1.350 . S
N302 S300 1.610 1_545 S
N302 C303 1.351 . S
C303 C297 1.428 . S
C303 N302 1.351 . S
C303 C304 1.434 1_545 S
C304 C295 1.429 . S
C304 N301 1.350 . S
C304 C303 1.434 1_565 S
C305 C306 1.369 . S
C305 C307 1.419 . S
C305 H309 0.930 . S
C306 C305 1.369 . S
C306 C315 1.429 . S
C307 C305 1.419 . S
C307 C308 1.363 . S
C307 H310 0.929 . S
C308 C307 1.363 . S
C308 C314 1.428 . S
H309 C305 0.930 . S
H310 C307 0.929 . S
S311 N312 1.613 . S
S311 N313 1.610 . S
N312 S311 1.613 . S
N312 C315 1.350 . S
N313 S311 1.610 . S
N313 C314 1.351 . S
C314 C308 1.428 . S
C314 N313 1.351 . S
C314 C315 1.434 . S
C315 C306 1.429 . S
C315 N312 1.350 . S
C315 C314 1.434 . S
C316 C317 1.369 . S
C316 C318 1.419 . S
C316 H320 0.930 . S
C317 C316 1.369 . S
C317 C326 1.429 . S
C318 C316 1.419 . S
C318 C319 1.363 . S
C318 H321 0.929 . S
C319 C318 1.363 . S
C319 C325 1.428 . S
H320 C316 0.930 . S
H321 C318 0.929 . S
S322 N323 1.613 . S
S322 N324 1.610 . S
N323 S322 1.613 . S
N323 C326 1.350 . S
N324 S322 1.610 . S
N324 C325 1.351 . S
C325 C319 1.428 . S
C325 N324 1.351 . S
C325 C326 1.434 . S
C326 C317 1.429 . S
C326 N323 1.350 . S
C326 C325 1.434 . S
C327 C328 1.369 . S
C327 C329 1.419 . S
C327 H331 0.930 . S
C328 C327 1.369 . S
C328 C337 1.429 . S
C329 C327 1.419 . S
C329 C330 1.363 1_455 S
C329 H332 0.929 . S
C330 C329 1.363 1_655 S
C330 C336 1.428 . S
H331 C327 0.930 . S
H332 C329 0.929 . S
S333 N334 1.613 1_655 S
S333 N335 1.610 . S
N334 S333 1.613 1_455 S
N334 C337 1.350 . S
N335 S333 1.610 . S
N335 C336 1.351 . S
C336 C330 1.428 . S
C336 N335 1.351 . S
C336 C337 1.434 1_655 S
C337 C328 1.429 . S
C337 N334 1.350 . S
C337 C336 1.434 1_455 S
C338 C339 1.369 . S
C338 C340 1.419 . S
C338 H342 0.930 . S
C339 C338 1.369 . S
C339 C348 1.429 . S
C340 C338 1.419 . S
C340 C341 1.363 . S
C340 H343 0.929 . S
C341 C340 1.363 . S
C341 C347 1.428 . S
H342 C338 0.930 . S
H343 C340 0.929 . S
S344 N345 1.613 . S
S344 N346 1.610 . S
N345 S344 1.613 . S
N345 C348 1.350 . S
N346 S344 1.610 . S
N346 C347 1.351 . S
C347 C341 1.428 . S
C347 N346 1.351 . S
C347 C348 1.434 . S
C348 C339 1.429 . S
C348 N345 1.350 . S
C348 C347 1.434 . S
C349 C350 1.369 1_455 S
C349 C351 1.419 . S
C349 H353 0.930 . S
C350 C349 1.369 1_655 S
C350 C359 1.429 1_655 S
C351 C349 1.419 . S
C351 C352 1.363 . S
C351 H354 0.929 . S
C352 C351 1.363 . S
C352 C358 1.428 . S
H353 C349 0.930 . S
H354 C351 0.929 . S
S355 N356 1.613 1_455 S
S355 N357 1.610 . S
N356 S355 1.613 1_655 S
N356 C359 1.350 1_655 S
N357 S355 1.610 . S
N357 C358 1.351 . S
C358 C352 1.428 . S
C358 N357 1.351 . S
C358 C359 1.434 . S
C359 C350 1.429 1_455 S
C359 N356 1.350 1_455 S
C359 C358 1.434 . S
C360 C361 1.369 . S
C360 C362 1.419 . S
C360 H364 0.930 . S
C361 C360 1.369 . S
C361 C370 1.429 . S
C362 C360 1.419 . S
C362 C363 1.363 . S
C362 H365 0.929 . S
C363 C362 1.363 . S
C363 C369 1.428 . S
H364 C360 0.930 . S
H365 C362 0.929 . S
S366 N367 1.613 . S
S366 N368 1.610 . S
N367 S366 1.613 . S
N367 C370 1.350 . S
N368 S366 1.610 . S
N368 C369 1.351 . S
C369 C363 1.428 . S
C369 N368 1.351 . S
C369 C370 1.434 . S
C370 C361 1.429 . S
C370 N367 1.350 . S
C370 C369 1.434 . S
C371 C372 1.369 . S
C371 C373 1.419 . S
C371 H375 0.930 . S
C372 C371 1.369 . S
C372 C381 1.429 . S
C373 C371 1.419 . S
C373 C374 1.363 . S
C373 H376 0.929 . S
C374 C373 1.363 . S
C374 C380 1.428 . S
H375 C371 0.930 . S
H376 C373 0.929 . S
S377 N378 1.613 . S
S377 N379 1.610 . S
N378 S377 1.613 . S
N378 C381 1.350 . S
N379 S377 1.610 . S
N379 C380 1.351 . S
C380 C374 1.428 . S
C380 N379 1.351 . S
C380 C381 1.434 . S
C381 C372 1.429 . S
C381 N378 1.350 . S
C381 C380 1.434 . S
C382 C383 1.369 . S
C382 C384 1.419 . S
C382 H386 0.930 . S
C383 C382 1.369 . S
C383 C392 1.429 . S
C384 C382 1.419 . S
C384 C385 1.363 . S
C384 H387 0.929 . S
C385 C384 1.363 . S
C385 C391 1.428 . S
H386 C382 0.930 . S
H387 C384 0.929 . S
S388 N389 1.613 . S
S388 N390 1.610 . S
N389 S388 1.613 . S
N389 C392 1.350 . S
N390 S388 1.610 . S
N390 C391 1.351 . S
C391 C385 1.428 . S
C391 N390 1.351 . S
C391 C392 1.434 . S
C392 C383 1.429 . S
C392 N389 1.350 . S
C392 C391 1.434 . S
C393 C394 1.369 . S
C393 C395 1.419 . S
C393 H397 0.930 . S
C394 C393 1.369 . S
C394 C403 1.429 . S
C395 C393 1.419 . S
C395 C396 1.363 . S
C395 H398 0.929 . S
C396 C395 1.363 . S
C396 C402 1.428 . S
H397 C393 0.930 . S
H398 C395 0.929 . S
S399 N400 1.613 . S
S399 N401 1.610 . S
N400 S399 1.613 . S
N400 C403 1.350 . S
N401 S399 1.610 . S
N401 C402 1.351 . S
C402 C396 1.428 . S
C402 N401 1.351 . S
C402 C403 1.434 . S
C403 C394 1.429 . S
C403 N400 1.350 . S
C403 C402 1.434 . S
C404 C405 1.369 . S
C404 C406 1.419 . S
C404 H408 0.930 . S
C405 C404 1.369 . S
C405 C414 1.429 . S
C406 C404 1.419 . S
C406 C407 1.363 . S
C406 H409 0.929 . S
C407 C406 1.363 . S
C407 C413 1.428 . S
H408 C404 0.930 . S
H409 C406 0.929 . S
S410 N411 1.613 . S
S410 N412 1.610 . S
N411 S410 1.613 . S
N411 C414 1.350 . S
N412 S410 1.610 . S
N412 C413 1.351 . S
C413 C407 1.428 . S
C413 N412 1.351 . S
C413 C414 1.434 . S
C414 C405 1.429 . S
C414 N411 1.350 . S
C414 C413 1.434 . S
C415 C416 1.369 . S
C415 C417 1.419 . S
C415 H419 0.930 . S
C416 C415 1.369 . S
C416 C425 1.429 . S
C417 C415 1.419 . S
C417 C418 1.363 . S
C417 H420 0.929 . S
C418 C417 1.363 . S
C418 C424 1.428 . S
H419 C415 0.930 . S
H420 C417 0.929 . S
S421 N422 1.613 . S
S421 N423 1.610 1_554 S
N422 S421 1.613 . S
N422 C425 1.350 1_554 S
N423 S421 1.610 1_556 S
N423 C424 1.351 . S
C424 C418 1.428 . S
C424 N423 1.351 . S
C424 C425 1.434 . S
C425 C416 1.429 . S
C425 N422 1.350 1_556 S
C425 C424 1.434 . S
C426 C427 1.369 . S
C426 C428 1.419 . S
C426 H430 0.930 . S
C427 C426 1.369 . S
C427 C436 1.429 . S
C428 C426 1.419 . S
C428 C429 1.363 . S
C428 H431 0.929 . S
C429 C428 1.363 . S
C429 C435 1.428 . S
H430 C426 0.930 . S
H431 C428 0.929 . S
S432 N433 1.613 . S
S432 N434 1.610 . S
N433 S432 1.613 . S
N433 C436 1.350 . S
N434 S432 1.610 . S
N434 C435 1.351 . S
C435 C429 1.428 . S
C435 N434 1.351 . S
C435 C436 1.434 . S
C436 C427 1.429 . S
C436 N433 1.350 . S
C436 C435 1.434 . S
C437 C438 1.369 . S
C437 C439 1.419 . S
C437 H441 0.930 . S
C438 C437 1.369 . S
C438 C447 1.429 . S
C439 C437 1.419 . S
C439 C440 1.363 . S
C439 H442 0.929 . S
C440 C439 1.363 . S
C440 C446 1.428 . S
H441 C437 0.930 . S
H442 C439 0.929 . S
S443 N444 1.613 . S
S443 N445 1.610 . S
N444 S443 1.613 . S
N444 C447 1.350 . S
N445 S443 1.610 . S
N445 C446 1.351 . S
C446 C440 1.428 . S
C446 N445 1.351 . S
C446 C447 1.434 . S
C447 C438 1.429 . S
C447 N444 1.350 . S
C447 C446 1.434 . S
C185 C8 1.446 . S
C187 C97 1.374 . S
C196 C31 1.456 . S
C198 C109 1.444 . S
C207 C53 1.428 . S
C209 C121 1.390 . S
C220 C130 1.335 . S
C218 C74 1.379 . S
C231 C145 1.383 . S
C229 C26 1.444 . S
C240 C48 1.375 . S
C242 C154 1.329 . S
C251 C71 1.433 . S
C253 C169 1.396 . S
C262 C5 1.459 1_655 S
C264 C181 1.440 . S
C273 C50 1.320 . S
C275 C178 1.306 . S
C286 C142 1.340 . S
C284 C70 1.313 . S
C297 C157 1.397 . S
C295 C4 1.424 . S
C306 C28 1.387 . S
C308 C166 1.328 . S
C319 C106 1.310 . S
C317 C73 1.319 . S
C328 C7 1.384 . S
C330 C118 1.321 . S
C341 C133 1.393 . S
C339 C30 1.420 . S
C352 C94 1.340 . S
C350 C52 1.318 . S
C363 C164 1.423 . S
C361 C9 1.419 . S
C374 C176 1.415 . S
C372 C29 1.442 . S
C383 C51 1.445 . S
C385 C140 1.424 . S
C396 C152 1.391 . S
C394 C75 1.408 . S
C407 C116 1.422 . S
C405 C27 1.424 . S
C416 C49 1.403 . S
C418 C128 1.393 . S
C429 C92 1.427 . S
C427 C72 1.445 . S
C440 C104 1.417 . S
C438 C6 1.443 . S
