# Generated by pormake.
# Topology ssb, (4,4)-cn, num edge types: 1
# Building blocks:
#     Node 0, Type 0, BuildingBlock: NAHDIM_clean_linker_0, # of connection points: 4
#     Node 1, Type 0, BuildingBlock: NAHDIM_clean_linker_0, # of connection points: 4
#     Node 2, Type 0, BuildingBlock: NAHDIM_clean_linker_0, # of connection points: 4
#     Node 3, Type 0, BuildingBlock: NAHDIM_clean_linker_0, # of connection points: 4
#     Node 4, Type 0, BuildingBlock: NAHDIM_clean_linker_0, # of connection points: 4
#     Node 5, Type 0, BuildingBlock: NAHDIM_clean_linker_0, # of connection points: 4
#     Node 6, Type 0, BuildingBlock: NAHDIM_clean_linker_0, # of connection points: 4
#     Node 7, Type 0, BuildingBlock: NAHDIM_clean_linker_0, # of connection points: 4
#     Node 8, Type 1, BuildingBlock: NAWXER_clean_sbu_0, # of connection points: 4
#     Node 9, Type 1, BuildingBlock: NAWXER_clean_sbu_0, # of connection points: 4
#     Node 10, Type 1, BuildingBlock: NAWXER_clean_sbu_0, # of connection points: 4
#     Node 11, Type 1, BuildingBlock: NAWXER_clean_sbu_0, # of connection points: 4
#     Node 12, Type 1, BuildingBlock: NAWXER_clean_sbu_0, # of connection points: 4
#     Node 13, Type 1, BuildingBlock: NAWXER_clean_sbu_0, # of connection points: 4
#     Node 14, Type 1, BuildingBlock: NAWXER_clean_sbu_0, # of connection points: 4
#     Node 15, Type 1, BuildingBlock: NAWXER_clean_sbu_0, # of connection points: 4
#     Edge 16, Type (0, 1), BuildingBlock: TEMPAE_clean_linker_10, # of connection points: 2
#     Edge 17, Type (0, 1), BuildingBlock: TEMPAE_clean_linker_10, # of connection points: 2
#     Edge 18, Type (0, 1), BuildingBlock: TEMPAE_clean_linker_10, # of connection points: 2
#     Edge 19, Type (0, 1), BuildingBlock: TEMPAE_clean_linker_10, # of connection points: 2
#     Edge 20, Type (0, 1), BuildingBlock: TEMPAE_clean_linker_10, # of connection points: 2
#     Edge 21, Type (0, 1), BuildingBlock: TEMPAE_clean_linker_10, # of connection points: 2
#     Edge 22, Type (0, 1), BuildingBlock: TEMPAE_clean_linker_10, # of connection points: 2
#     Edge 23, Type (0, 1), BuildingBlock: TEMPAE_clean_linker_10, # of connection points: 2
#     Edge 24, Type (0, 1), BuildingBlock: TEMPAE_clean_linker_10, # of connection points: 2
#     Edge 25, Type (0, 1), BuildingBlock: TEMPAE_clean_linker_10, # of connection points: 2
#     Edge 26, Type (0, 1), BuildingBlock: TEMPAE_clean_linker_10, # of connection points: 2
#     Edge 27, Type (0, 1), BuildingBlock: TEMPAE_clean_linker_10, # of connection points: 2
#     Edge 28, Type (0, 1), BuildingBlock: TEMPAE_clean_linker_10, # of connection points: 2
#     Edge 29, Type (0, 1), BuildingBlock: TEMPAE_clean_linker_10, # of connection points: 2
#     Edge 30, Type (0, 1), BuildingBlock: TEMPAE_clean_linker_10, # of connection points: 2
#     Edge 31, Type (0, 1), BuildingBlock: TEMPAE_clean_linker_10, # of connection points: 2
#     Edge 32, Type (0, 1), BuildingBlock: TEMPAE_clean_linker_10, # of connection points: 2
#     Edge 33, Type (0, 1), BuildingBlock: TEMPAE_clean_linker_10, # of connection points: 2
#     Edge 34, Type (0, 1), BuildingBlock: TEMPAE_clean_linker_10, # of connection points: 2
#     Edge 35, Type (0, 1), BuildingBlock: TEMPAE_clean_linker_10, # of connection points: 2
#     Edge 36, Type (0, 1), BuildingBlock: TEMPAE_clean_linker_10, # of connection points: 2
#     Edge 37, Type (0, 1), BuildingBlock: TEMPAE_clean_linker_10, # of connection points: 2
#     Edge 38, Type (0, 1), BuildingBlock: TEMPAE_clean_linker_10, # of connection points: 2
#     Edge 39, Type (0, 1), BuildingBlock: TEMPAE_clean_linker_10, # of connection points: 2
#     Edge 40, Type (0, 1), BuildingBlock: TEMPAE_clean_linker_10, # of connection points: 2
#     Edge 41, Type (0, 1), BuildingBlock: TEMPAE_clean_linker_10, # of connection points: 2
#     Edge 42, Type (0, 1), BuildingBlock: TEMPAE_clean_linker_10, # of connection points: 2
#     Edge 43, Type (0, 1), BuildingBlock: TEMPAE_clean_linker_10, # of connection points: 2
#     Edge 44, Type (0, 1), BuildingBlock: TEMPAE_clean_linker_10, # of connection points: 2
#     Edge 45, Type (0, 1), BuildingBlock: TEMPAE_clean_linker_10, # of connection points: 2
#     Edge 46, Type (0, 1), BuildingBlock: TEMPAE_clean_linker_10, # of connection points: 2
#     Edge 47, Type (0, 1), BuildingBlock: TEMPAE_clean_linker_10, # of connection points: 2
# Relax obj value: 0.005
# Max RMSD: 0.044
# Mean RMSD: 0.033
data_MOF--net-ssb--node1-NAWXER_clean_sbu_0--node2-NAHDIM_clean_linker_0--edge1-TEMPAE_clean_linker_10
_symmetry_space_group_name_H-M    P1
_symmetry_Int_Tables_number       1
_symmetry_cell_setting            triclinic
loop_
_symmetry_equiv_pos_as_xyz
'x, y, z'
_cell_length_a     62.815625
_cell_length_b     62.772713
_cell_length_c     53.931384
_cell_angle_alpha  90.054168
_cell_angle_beta   90.020952
_cell_angle_gamma 90.007982
loop_
_atom_site_label
_atom_site_type_symbol
_atom_site_fract_x
_atom_site_fract_y
_atom_site_fract_z
_atom_type_partial_charge
C0 C 0.36497 0.17379 0.3801 0.0
C1 C 0.341 0.17203 0.38517 0.0
C2 C 0.32567 0.19066 0.34912 0.0
C3 C 0.33136 0.21138 0.35659 0.0
C4 C 0.32775 0.2289 0.34102 0.0
C5 C 0.31822 0.22571 0.31755 0.0
C6 C 0.31199 0.205 0.31021 0.0
C7 C 0.31576 0.18775 0.32616 0.0
C8 C 0.33448 0.25083 0.34948 0.0
C9 C 0.30166 0.20111 0.28536 0.0
C10 C 0.40601 0.31924 0.18619 0.0
C11 C 0.39996 0.29577 0.18327 0.0
C12 C 0.38564 0.27973 0.22079 0.0
C13 C 0.36768 0.26921 0.21132 0.0
C14 C 0.35055 0.26395 0.22686 0.0
C15 C 0.35142 0.26948 0.25229 0.0
C16 C 0.36991 0.27931 0.26203 0.0
C17 C 0.38693 0.28405 0.24613 0.0
C18 C 0.3314 0.25278 0.21605 0.0
C19 C 0.37151 0.2852 0.2891 0.0
C20 C 0.26696 0.37745 0.22434 0.0
C21 C 0.25833 0.35829 0.21554 0.0
C22 C 0.25587 0.34075 0.23138 0.0
C23 C 0.26236 0.34245 0.25644 0.0
C24 C 0.2699 0.36218 0.26566 0.0
C25 C 0.27188 0.37957 0.24947 0.0
C26 C 0.24709 0.32017 0.22114 0.0
C27 C 0.27674 0.36461 0.29233 0.0
C28 C 0.18784 0.2678 0.40503 0.0
C29 C 0.17782 0.2888 0.39641 0.0
C30 C 0.19439 0.29294 0.35525 0.0
C31 C 0.19164 0.28839 0.33009 0.0
C32 C 0.2084 0.29085 0.31312 0.0
C33 C 0.22831 0.29857 0.32152 0.0
C34 C 0.23105 0.30383 0.34684 0.0
C35 C 0.21419 0.30067 0.36352 0.0
C36 C 0.20489 0.28502 0.28628 0.0
C37 C 0.25182 0.3128 0.35636 0.0
C38 C 0.31595 0.24391 0.30023 0.0
C39 C 0.33279 0.24792 0.28394 0.0
C40 C 0.33269 0.26577 0.26852 0.0
C41 C 0.31536 0.28013 0.26928 0.0
C42 C 0.31508 0.29861 0.25458 0.0
C43 C 0.29803 0.31268 0.25552 0.0
C44 C 0.28056 0.30886 0.27121 0.0
C45 C 0.26316 0.32314 0.27228 0.0
C46 C 0.24634 0.31922 0.28859 0.0
C47 C 0.24626 0.3012 0.30385 0.0
C48 C 0.26331 0.28647 0.30262 0.0
C49 C 0.26359 0.26794 0.3173 0.0
C50 C 0.28076 0.25393 0.31652 0.0
C51 C 0.2982 0.25776 0.3008 0.0
C52 C 0.29799 0.27603 0.28538 0.0
C53 C 0.28057 0.29042 0.28635 0.0
C54 C 0.30639 0.39729 0.19335 0.0
C55 C 0.28309 0.39225 0.18742 0.0
O56 O 0.32962 0.17307 0.36315 0.0
O57 O 0.17757 0.28964 0.3707 0.0
O58 O 0.271 0.39396 0.20885 0.0
O59 O 0.40204 0.28569 0.20601 0.0
H60 H 0.33602 0.18526 0.39762 0.0
H61 H 0.36886 0.18939 0.37159 0.0
H62 H 0.37026 0.16099 0.36725 0.0
H63 H 0.37405 0.17247 0.39773 0.0
H64 H 0.33887 0.21409 0.37434 0.0
H65 H 0.31129 0.17177 0.32057 0.0
H66 H 0.34645 0.2574 0.33641 0.0
H67 H 0.34144 0.25073 0.36842 0.0
H68 H 0.32056 0.26172 0.34933 0.0
H69 H 0.2967 0.18424 0.28293 0.0
H70 H 0.31299 0.20532 0.27035 0.0
H71 H 0.28748 0.21151 0.28329 0.0
H72 H 0.38315 0.29535 0.17674 0.0
H73 H 0.40441 0.32769 0.16818 0.0
H74 H 0.42267 0.32084 0.1929 0.0
H75 H 0.39524 0.32698 0.19982 0.0
H76 H 0.36709 0.26504 0.19184 0.0
H77 H 0.40108 0.2918 0.25328 0.0
H78 H 0.32718 0.23873 0.22754 0.0
H79 H 0.33417 0.24745 0.19667 0.0
H80 H 0.31756 0.26377 0.21623 0.0
H81 H 0.38634 0.29412 0.29337 0.0
H82 H 0.37121 0.2705 0.30051 0.0
H83 H 0.35762 0.29507 0.29461 0.0
H84 H 0.28261 0.37565 0.18012 0.0
H85 H 0.25374 0.357 0.19623 0.0
H86 H 0.27819 0.3946 0.2561 0.0
H87 H 0.26004 0.30817 0.22009 0.0
H88 H 0.24021 0.32222 0.20231 0.0
H89 H 0.23462 0.31376 0.23368 0.0
H90 H 0.28209 0.38106 0.29667 0.0
H91 H 0.28996 0.35339 0.29637 0.0
H92 H 0.26331 0.36044 0.3048 0.0
H93 H 0.18713 0.30241 0.40391 0.0
H94 H 0.18812 0.26699 0.42561 0.0
H95 H 0.20449 0.26656 0.39832 0.0
H96 H 0.17866 0.25401 0.39773 0.0
H97 H 0.17632 0.28252 0.32383 0.0
H98 H 0.2167 0.30442 0.38285 0.0
H99 H 0.21762 0.27405 0.27986 0.0
H100 H 0.20573 0.29961 0.27471 0.0
H101 H 0.18919 0.27731 0.28319 0.0
H102 H 0.2504 0.319 0.37559 0.0
H103 H 0.25745 0.32587 0.34414 0.0
H104 H 0.26414 0.30013 0.35621 0.0
H105 H 0.34636 0.23723 0.28363 0.0
H106 H 0.32809 0.30247 0.24221 0.0
H107 H 0.2988 0.32666 0.24381 0.0
H108 H 0.23321 0.33042 0.28956 0.0
H109 H 0.25058 0.26413 0.32969 0.0
H110 H 0.28022 0.24003 0.32838 0.0
H111 H 0.31624 0.39622 0.17629 0.0
H112 H 0.31261 0.38561 0.20701 0.0
H113 H 0.30796 0.41353 0.20137 0.0
C114 C 0.66935 0.12053 0.11604 0.0
C115 C 0.66888 0.14358 0.12523 0.0
C116 C 0.70013 0.16362 0.13843 0.0
C117 C 0.69041 0.17674 0.1562 0.0
C118 C 0.70257 0.18673 0.17472 0.0
C119 C 0.72483 0.18327 0.17562 0.0
C120 C 0.73472 0.17063 0.15714 0.0
C121 C 0.72223 0.16131 0.13848 0.0
C122 C 0.69152 0.20054 0.19365 0.0
C123 C 0.75837 0.16632 0.15755 0.0
C124 C 0.72749 0.1647 0.36409 0.0
C125 C 0.72658 0.14362 0.34951 0.0
C126 C 0.74269 0.15249 0.30916 0.0
C127 C 0.75981 0.14827 0.29338 0.0
C128 C 0.76152 0.15821 0.27017 0.0
C129 C 0.74606 0.17342 0.26301 0.0
C130 C 0.72842 0.17744 0.27863 0.0
C131 C 0.7267 0.16665 0.30131 0.0
C132 C 0.78006 0.15271 0.25357 0.0
C133 C 0.71146 0.19337 0.27154 0.0
C134 C 0.85518 0.25741 0.28833 0.0
C135 C 0.85875 0.2443 0.26757 0.0
C136 C 0.84399 0.24339 0.2481 0.0
C137 C 0.82535 0.25599 0.24922 0.0
C138 C 0.82226 0.27011 0.26934 0.0
C139 C 0.83726 0.27063 0.28866 0.0
C140 C 0.84795 0.22839 0.22669 0.0
C141 C 0.80269 0.28396 0.27088 0.0
C142 C 0.7726 0.30916 0.0652 0.0
C143 C 0.77945 0.3189 0.09002 0.0
C144 C 0.79681 0.29725 0.12184 0.0
C145 C 0.80916 0.27887 0.12412 0.0
C146 C 0.80918 0.26698 0.14615 0.0
C147 C 0.7966 0.27384 0.16639 0.0
C148 C 0.78494 0.29305 0.16466 0.0
C149 C 0.7853 0.30467 0.14246 0.0
C150 C 0.82222 0.24684 0.14761 0.0
C151 C 0.77179 0.30107 0.18614 0.0
C152 C 0.73751 0.19133 0.19693 0.0
C153 C 0.73636 0.17996 0.21918 0.0
C154 C 0.74867 0.18573 0.23969 0.0
C155 C 0.76301 0.20304 0.23788 0.0
C156 C 0.77608 0.20894 0.25792 0.0
C157 C 0.79096 0.22519 0.25552 0.0
C158 C 0.79281 0.23673 0.23329 0.0
C159 C 0.80838 0.25281 0.23043 0.0
C160 C 0.80913 0.26472 0.20856 0.0
C161 C 0.79502 0.26058 0.18907 0.0
C162 C 0.78002 0.24383 0.19112 0.0
C163 C 0.76617 0.23865 0.1715 0.0
C164 C 0.7521 0.22157 0.17339 0.0
C165 C 0.75117 0.20918 0.19507 0.0
C166 C 0.76431 0.21473 0.21546 0.0
C167 C 0.77896 0.23187 0.21334 0.0
C168 C 0.87445 0.22102 0.32044 0.0
C169 C 0.88411 0.24281 0.31397 0.0
O170 O 0.68866 0.15275 0.12124 0.0
O171 O 0.79636 0.30731 0.09955 0.0
O172 O 0.8682 0.25744 0.30853 0.0
O173 O 0.7425 0.14284 0.33176 0.0
H174 H 0.66537 0.14281 0.14547 0.0
H175 H 0.6816 0.11142 0.12643 0.0
H176 H 0.67331 0.11984 0.09597 0.0
H177 H 0.65365 0.11281 0.11909 0.0
H178 H 0.67334 0.17912 0.15568 0.0
H179 H 0.72956 0.15136 0.12445 0.0
H180 H 0.69041 0.19174 0.21142 0.0
H181 H 0.67515 0.20493 0.18773 0.0
H182 H 0.70077 0.21534 0.19708 0.0
H183 H 0.76322 0.15455 0.14324 0.0
H184 H 0.76323 0.16026 0.17605 0.0
H185 H 0.76717 0.18137 0.1542 0.0
H186 H 0.71072 0.14258 0.34038 0.0
H187 H 0.71635 0.16416 0.38008 0.0
H188 H 0.72275 0.17831 0.35226 0.0
H189 H 0.74382 0.16794 0.371 0.0
H190 H 0.77193 0.13711 0.29937 0.0
H191 H 0.71298 0.16973 0.31283 0.0
H192 H 0.79191 0.16582 0.25413 0.0
H193 H 0.77471 0.15087 0.23405 0.0
H194 H 0.78811 0.1378 0.25949 0.0
H195 H 0.70017 0.19656 0.28696 0.0
H196 H 0.7023 0.18713 0.25552 0.0
H197 H 0.71886 0.20866 0.2658 0.0
H198 H 0.8948 0.24107 0.29767 0.0
H199 H 0.87275 0.23434 0.26657 0.0
H200 H 0.83473 0.28092 0.30454 0.0
H201 H 0.83542 0.21592 0.22634 0.0
H202 H 0.86373 0.22047 0.2279 0.0
H203 H 0.84704 0.23723 0.2089 0.0
H204 H 0.80335 0.29519 0.28679 0.0
H205 H 0.78837 0.27373 0.27289 0.0
H206 H 0.80084 0.2932 0.25346 0.0
H207 H 0.76513 0.31756 0.10207 0.0
H208 H 0.75999 0.31904 0.05645 0.0
H209 H 0.76608 0.29294 0.06836 0.0
H210 H 0.78626 0.3077 0.05225 0.0
H211 H 0.81834 0.27351 0.10828 0.0
H212 H 0.77657 0.31949 0.14132 0.0
H213 H 0.8115 0.23295 0.15006 0.0
H214 H 0.8329 0.2475 0.164 0.0
H215 H 0.83202 0.24428 0.13073 0.0
H216 H 0.76369 0.31638 0.18191 0.0
H217 H 0.78214 0.30335 0.20263 0.0
H218 H 0.75956 0.28903 0.19107 0.0
H219 H 0.72579 0.16633 0.22053 0.0
H220 H 0.77528 0.2008 0.27558 0.0
H221 H 0.80092 0.22865 0.27141 0.0
H222 H 0.82108 0.27707 0.20651 0.0
H223 H 0.76626 0.24754 0.15431 0.0
H224 H 0.74199 0.21813 0.15762 0.0
H225 H 0.88722 0.20961 0.32563 0.0
H226 H 0.86577 0.21423 0.30436 0.0
H227 H 0.86311 0.22251 0.33616 0.0
C228 C 0.62439 0.84 0.39895 0.0
C229 C 0.64833 0.84437 0.40052 0.0
C230 C 0.66368 0.82926 0.36217 0.0
C231 C 0.66259 0.80773 0.36934 0.0
C232 C 0.66982 0.79152 0.3535 0.0
C233 C 0.67787 0.79682 0.3298 0.0
C234 C 0.6788 0.81842 0.32241 0.0
C235 C 0.67185 0.83435 0.33881 0.0
C236 C 0.66867 0.76865 0.36202 0.0
C237 C 0.68694 0.82464 0.29711 0.0
C238 C 0.60971 0.67516 0.20405 0.0
C239 C 0.61641 0.69858 0.20403 0.0
C240 C 0.62557 0.71973 0.24028 0.0
C241 C 0.63864 0.73492 0.22882 0.0
C242 C 0.65345 0.74667 0.24272 0.0
C243 C 0.65561 0.74265 0.26845 0.0
C244 C 0.64176 0.72797 0.28017 0.0
C245 C 0.62662 0.71698 0.26592 0.0
C246 C 0.66717 0.76294 0.22973 0.0
C247 C 0.64331 0.72344 0.30758 0.0
C248 C 0.76818 0.67726 0.21656 0.0
C249 C 0.76831 0.69887 0.20965 0.0
C250 C 0.76658 0.71502 0.22753 0.0
C251 C 0.76472 0.7095 0.25286 0.0
C252 C 0.76596 0.68787 0.26003 0.0
C253 C 0.7678 0.67202 0.24174 0.0
C254 C 0.76574 0.73797 0.21925 0.0
C255 C 0.76427 0.68149 0.2869 0.0
C256 C 0.83955 0.83058 0.3724 0.0
C257 C 0.83876 0.80634 0.36965 0.0
C258 C 0.82119 0.78905 0.33437 0.0
C259 C 0.81482 0.79366 0.31016 0.0
C260 C 0.79835 0.78219 0.29871 0.0
C261 C 0.78834 0.76537 0.3117 0.0
C262 C 0.79535 0.76001 0.33585 0.0
C263 C 0.81173 0.77192 0.34697 0.0
C264 C 0.79149 0.78822 0.27284 0.0
C265 C 0.78538 0.74181 0.34993 0.0
C266 C 0.68443 0.77966 0.31242 0.0
C267 C 0.66849 0.76959 0.2986 0.0
C268 C 0.67323 0.75266 0.2827 0.0
C269 C 0.69449 0.74545 0.2805 0.0
C270 C 0.69972 0.72798 0.26535 0.0
C271 C 0.72072 0.72151 0.2625 0.0
C272 C 0.73736 0.73213 0.27485 0.0
C273 C 0.75884 0.72613 0.27126 0.0
C274 C 0.77501 0.73689 0.28394 0.0
C275 C 0.77031 0.75371 0.3001 0.0
C276 C 0.74888 0.75999 0.30383 0.0
C277 C 0.74353 0.77686 0.31987 0.0
C278 C 0.72243 0.78315 0.32301 0.0
C279 C 0.70589 0.77308 0.3099 0.0
C280 C 0.71091 0.75593 0.29381 0.0
C281 C 0.73239 0.74926 0.29095 0.0
C282 C 0.73823 0.66824 0.17244 0.0
C283 C 0.76195 0.66265 0.17488 0.0
O284 O 0.65699 0.84558 0.37689 0.0
O285 O 0.83664 0.80133 0.34472 0.0
O286 O 0.76774 0.66111 0.19967 0.0
O287 O 0.612 0.70732 0.22707 0.0
H288 H 0.65606 0.83131 0.41112 0.0
H289 H 0.62147 0.82449 0.38965 0.0
H290 H 0.61623 0.85269 0.38819 0.0
H291 H 0.61739 0.83927 0.41785 0.0
H292 H 0.65602 0.80331 0.38711 0.0
H293 H 0.67257 0.85095 0.33336 0.0
H294 H 0.65666 0.76 0.35076 0.0
H295 H 0.66418 0.76729 0.38188 0.0
H296 H 0.68425 0.76066 0.35917 0.0
H297 H 0.68568 0.84205 0.29374 0.0
H298 H 0.67781 0.81608 0.28254 0.0
H299 H 0.70387 0.81985 0.29527 0.0
H300 H 0.63392 0.69881 0.20053 0.0
H301 H 0.61333 0.66769 0.18585 0.0
H302 H 0.59239 0.67361 0.20785 0.0
H303 H 0.61861 0.66642 0.21865 0.0
H304 H 0.63732 0.73755 0.20903 0.0
H305 H 0.61616 0.70545 0.27459 0.0
H306 H 0.6687 0.7776 0.24114 0.0
H307 H 0.66062 0.76731 0.21127 0.0
H308 H 0.68336 0.7563 0.22697 0.0
H309 H 0.63304 0.7099 0.31328 0.0
H310 H 0.63833 0.7378 0.3181 0.0
H311 H 0.66003 0.71981 0.3128 0.0
H312 H 0.77164 0.67525 0.1658 0.0
H313 H 0.7692 0.70334 0.19033 0.0
H314 H 0.76803 0.65536 0.24699 0.0
H315 H 0.74957 0.74447 0.2227 0.0
H316 H 0.76947 0.73979 0.19923 0.0
H317 H 0.77718 0.74766 0.23017 0.0
H318 H 0.76704 0.66417 0.28965 0.0
H319 H 0.74816 0.68553 0.29394 0.0
H320 H 0.776 0.69056 0.29815 0.0
H321 H 0.8246 0.8009 0.38033 0.0
H322 H 0.84111 0.83507 0.39226 0.0
H323 H 0.82462 0.83768 0.36509 0.0
H324 H 0.85321 0.83732 0.36191 0.0
H325 H 0.82248 0.80668 0.30046 0.0
H326 H 0.81722 0.76768 0.36535 0.0
H327 H 0.77415 0.79166 0.27256 0.0
H328 H 0.79438 0.77465 0.26008 0.0
H329 H 0.80018 0.80237 0.26573 0.0
H330 H 0.79337 0.73889 0.36799 0.0
H331 H 0.78612 0.72702 0.33863 0.0
H332 H 0.76833 0.74535 0.35341 0.0
H333 H 0.65212 0.77491 0.30037 0.0
H334 H 0.68766 0.71914 0.25535 0.0
H335 H 0.72371 0.7081 0.25036 0.0
H336 H 0.79148 0.73243 0.28078 0.0
H337 H 0.75561 0.78541 0.33018 0.0
H338 H 0.71926 0.7962 0.33563 0.0
H339 H 0.72827 0.65622 0.18213 0.0
H340 H 0.73352 0.66878 0.15258 0.0
H341 H 0.73486 0.68412 0.18059 0.0
C342 C 0.35874 0.87343 0.1275 0.0
C343 C 0.35781 0.84963 0.13339 0.0
C344 C 0.32452 0.83094 0.14092 0.0
C345 C 0.33167 0.81559 0.15788 0.0
C346 C 0.31742 0.80581 0.17436 0.0
C347 C 0.29566 0.81173 0.17403 0.0
C348 C 0.28833 0.82664 0.15626 0.0
C349 C 0.30286 0.83571 0.13956 0.0
C350 C 0.32573 0.78964 0.19264 0.0
C351 C 0.26537 0.83374 0.1556 0.0
C352 C 0.31513 0.88095 0.31148 0.0
C353 C 0.29124 0.88234 0.31697 0.0
C354 C 0.27797 0.84892 0.30065 0.0
C355 C 0.26457 0.85566 0.28141 0.0
C356 C 0.26079 0.84256 0.26079 0.0
C357 C 0.27069 0.82233 0.25942 0.0
C358 C 0.28348 0.81514 0.27933 0.0
C359 C 0.28673 0.82848 0.29991 0.0
C360 C 0.24664 0.85054 0.24018 0.0
C361 C 0.29423 0.79367 0.27846 0.0
C362 C 0.1563 0.73856 0.27727 0.0
C363 C 0.15398 0.75456 0.2592 0.0
C364 C 0.16945 0.75758 0.24083 0.0
C365 C 0.18745 0.74407 0.24008 0.0
C366 C 0.18954 0.7275 0.25766 0.0
C367 C 0.17392 0.72499 0.27607 0.0
C368 C 0.16675 0.77554 0.22249 0.0
C369 C 0.20852 0.7128 0.25729 0.0
C370 C 0.20298 0.71034 0.04221 0.0
C371 C 0.20885 0.70002 0.06704 0.0
C372 C 0.20122 0.71642 0.10722 0.0
C373 C 0.1898 0.73367 0.11657 0.0
C374 C 0.19497 0.74275 0.13953 0.0
C375 C 0.2115 0.73371 0.15398 0.0
C376 C 0.22277 0.71578 0.14488 0.0
C377 C 0.21767 0.70745 0.12139 0.0
C378 C 0.18236 0.76175 0.14838 0.0
C379 C 0.23994 0.70525 0.16011 0.0
C380 C 0.28118 0.80425 0.19398 0.0
C381 C 0.28266 0.8145 0.21692 0.0
C382 C 0.26888 0.80952 0.23636 0.0
C383 C 0.25318 0.79364 0.23305 0.0
C384 C 0.23893 0.78837 0.25215 0.0
C385 C 0.22315 0.77313 0.2485 0.0
C386 C 0.22094 0.76268 0.22555 0.0
C387 C 0.20435 0.74789 0.22136 0.0
C388 C 0.20239 0.738 0.19825 0.0
C389 C 0.21637 0.74275 0.17884 0.0
C390 C 0.23313 0.75748 0.18269 0.0
C391 C 0.24741 0.76282 0.16358 0.0
C392 C 0.26349 0.77775 0.16739 0.0
C393 C 0.26558 0.78831 0.19026 0.0
C394 C 0.2515 0.78303 0.20988 0.0
C395 C 0.23534 0.76752 0.20613 0.0
C396 C 0.13383 0.77026 0.31366 0.0
C397 C 0.12549 0.74931 0.30247 0.0
O398 O 0.33819 0.8417 0.12603 0.0
O399 O 0.19538 0.70844 0.08486 0.0
O400 O 0.14227 0.73595 0.29631 0.0
O401 O 0.28296 0.86199 0.31985 0.0
H402 H 0.35974 0.84818 0.15388 0.0
H403 H 0.34592 0.88191 0.1377 0.0
H404 H 0.35653 0.87626 0.10732 0.0
H405 H 0.37431 0.8802 0.13336 0.0
H406 H 0.34841 0.81144 0.15837 0.0
H407 H 0.29754 0.84741 0.12616 0.0
H408 H 0.3261 0.79685 0.21144 0.0
H409 H 0.34206 0.78421 0.18789 0.0
H410 H 0.315 0.77558 0.19335 0.0
H411 H 0.26268 0.84679 0.14207 0.0
H412 H 0.26032 0.83929 0.17425 0.0
H413 H 0.25505 0.8201 0.15043 0.0
H414 H 0.28345 0.8905 0.30107 0.0
H415 H 0.322 0.89716 0.30932 0.0
H416 H 0.3178 0.87205 0.29394 0.0
H417 H 0.32359 0.87256 0.32672 0.0
H418 H 0.25713 0.8712 0.28246 0.0
H419 H 0.29685 0.82336 0.31506 0.0
H420 H 0.23446 0.83835 0.2355 0.0
H421 H 0.25637 0.85332 0.2233 0.0
H422 H 0.23845 0.86563 0.24515 0.0
H423 H 0.30354 0.79032 0.29554 0.0
H424 H 0.3051 0.79295 0.26224 0.0
H425 H 0.28211 0.78097 0.27603 0.0
H426 H 0.11601 0.75288 0.28555 0.0
H427 H 0.14033 0.76503 0.25941 0.0
H428 H 0.17557 0.71259 0.28991 0.0
H429 H 0.1803 0.7868 0.22411 0.0
H430 H 0.1517 0.78451 0.22536 0.0
H431 H 0.16684 0.76909 0.20336 0.0
H432 H 0.20759 0.70036 0.27188 0.0
H433 H 0.22331 0.7222 0.26008 0.0
H434 H 0.20973 0.70493 0.23889 0.0
H435 H 0.2257 0.70434 0.0711 0.0
H436 H 0.21454 0.70601 0.02748 0.0
H437 H 0.20322 0.72796 0.04412 0.0
H438 H 0.18676 0.70538 0.03634 0.0
H439 H 0.17694 0.74025 0.10557 0.0
H440 H 0.22614 0.69367 0.11441 0.0
H441 H 0.19274 0.77352 0.1579 0.0
H442 H 0.17017 0.75622 0.16178 0.0
H443 H 0.17402 0.76986 0.13287 0.0
H444 H 0.24586 0.69035 0.1514 0.0
H445 H 0.23379 0.70149 0.17891 0.0
H446 H 0.25354 0.71637 0.1624 0.0
H447 H 0.29445 0.82696 0.21951 0.0
H448 H 0.23974 0.79606 0.27011 0.0
H449 H 0.21258 0.7698 0.26386 0.0
H450 H 0.18926 0.7271 0.19502 0.0
H451 H 0.2463 0.75553 0.14543 0.0
H452 H 0.27409 0.78116 0.15207 0.0
H453 H 0.1203 0.78062 0.31921 0.0
H454 H 0.14386 0.76704 0.33021 0.0
H455 H 0.14357 0.7792 0.30006 0.0
C456 C 0.12779 0.71694 0.67125 0.0
C457 C 0.13314 0.73847 0.65929 0.0
C458 C 0.17125 0.7388 0.66935 0.0
C459 C 0.16963 0.7464 0.6938 0.0
C460 C 0.18673 0.74443 0.71041 0.0
C461 C 0.20574 0.7344 0.70254 0.0
C462 C 0.20764 0.72726 0.67773 0.0
C463 C 0.19045 0.72992 0.66134 0.0
C464 C 0.18428 0.75261 0.73658 0.0
C465 C 0.22752 0.71619 0.66876 0.0
C466 C 0.20661 0.60484 0.79611 0.0
C467 C 0.22579 0.61343 0.81056 0.0
C468 C 0.22578 0.65172 0.80007 0.0
C469 C 0.23422 0.64964 0.77603 0.0
C470 C 0.23727 0.6676 0.76094 0.0
C471 C 0.23148 0.68798 0.7699 0.0
C472 C 0.22251 0.69006 0.79383 0.0
C473 C 0.22 0.6719 0.80868 0.0
C474 C 0.24687 0.66484 0.73548 0.0
C475 C 0.21574 0.71149 0.80378 0.0
C476 C 0.35632 0.74597 0.82083 0.0
C477 C 0.3578 0.7364 0.79727 0.0
C478 C 0.34243 0.7404 0.77897 0.0
C479 C 0.32525 0.75424 0.78426 0.0
C480 C 0.32379 0.76401 0.80783 0.0
C481 C 0.33936 0.75972 0.8258 0.0
C482 C 0.34447 0.72978 0.75396 0.0
C483 C 0.30569 0.77888 0.81403 0.0
C484 C 0.36037 0.84435 0.65502 0.0
C485 C 0.33739 0.84528 0.64551 0.0
C486 C 0.31675 0.82964 0.67986 0.0
C487 C 0.32278 0.80836 0.6756 0.0
C488 C 0.31602 0.79204 0.6915 0.0
C489 C 0.30318 0.79707 0.71223 0.0
C490 C 0.2969 0.81838 0.71646 0.0
C491 C 0.30367 0.83437 0.70009 0.0
C492 C 0.32293 0.76942 0.68639 0.0
C493 C 0.28331 0.82426 0.73849 0.0
C494 C 0.22286 0.7299 0.72083 0.0
C495 C 0.22015 0.71228 0.73636 0.0
C496 C 0.23524 0.70714 0.75441 0.0
C497 C 0.25359 0.71993 0.75728 0.0
C498 C 0.26901 0.71528 0.7754 0.0
C499 C 0.28697 0.728 0.7782 0.0
C500 C 0.2904 0.74565 0.76269 0.0
C501 C 0.30879 0.75846 0.76513 0.0
C502 C 0.31211 0.77541 0.74884 0.0
C503 C 0.29744 0.78011 0.73014 0.0
C504 C 0.27857 0.76796 0.72792 0.0
C505 C 0.26314 0.77266 0.70983 0.0
C506 C 0.2447 0.76045 0.70771 0.0
C507 C 0.24126 0.74276 0.72318 0.0
C508 C 0.25664 0.73775 0.74155 0.0
C509 C 0.27517 0.75052 0.74412 0.0
C510 C 0.38099 0.70568 0.8423 0.0
C511 C 0.38811 0.72886 0.83883 0.0
O512 O 0.15461 0.73928 0.65318 0.0
O513 O 0.32327 0.84607 0.66526 0.0
O514 O 0.37065 0.74237 0.83931 0.0
O515 O 0.22292 0.63491 0.81562 0.0
H516 H 0.1293 0.75153 0.67248 0.0
H517 H 0.13689 0.7148 0.68871 0.0
H518 H 0.13181 0.70366 0.65843 0.0
H519 H 0.11058 0.71607 0.67591 0.0
H520 H 0.15507 0.75377 0.70016 0.0
H521 H 0.19162 0.72425 0.6424 0.0
H522 H 0.18321 0.73891 0.74952 0.0
H523 H 0.16977 0.76255 0.73885 0.0
H524 H 0.19841 0.76218 0.74197 0.0
H525 H 0.22605 0.71059 0.64929 0.0
H526 H 0.23108 0.70231 0.68082 0.0
H527 H 0.24126 0.72726 0.66999 0.0
H528 H 0.24056 0.6111 0.79952 0.0
H529 H 0.20884 0.58768 0.79175 0.0
H530 H 0.20476 0.61355 0.77834 0.0
H531 H 0.19177 0.60681 0.80709 0.0
H532 H 0.2386 0.63417 0.76886 0.0
H533 H 0.2134 0.67336 0.82717 0.0
H534 H 0.23521 0.66995 0.7212 0.0
H535 H 0.25152 0.64808 0.73168 0.0
H536 H 0.26115 0.67514 0.7336 0.0
H537 H 0.20727 0.71016 0.82179 0.0
H538 H 0.20516 0.71958 0.79023 0.0
H539 H 0.22997 0.72173 0.8064 0.0
H540 H 0.39653 0.73047 0.82078 0.0
H541 H 0.37079 0.72574 0.79296 0.0
H542 H 0.33833 0.76706 0.84396 0.0
H543 H 0.32999 0.72021 0.75004 0.0
H544 H 0.35861 0.7192 0.75282 0.0
H545 H 0.34573 0.74211 0.7393 0.0
H546 H 0.30686 0.78529 0.8332 0.0
H547 H 0.29029 0.77035 0.81203 0.0
H548 H 0.30554 0.79242 0.8008 0.0
H549 H 0.33411 0.83095 0.63399 0.0
H550 H 0.37168 0.84406 0.63919 0.0
H551 H 0.36293 0.82971 0.66615 0.0
H552 H 0.36395 0.85838 0.66689 0.0
H553 H 0.33291 0.80426 0.66013 0.0
H554 H 0.29906 0.85079 0.70324 0.0
H555 H 0.30888 0.75869 0.68616 0.0
H556 H 0.33365 0.76395 0.70146 0.0
H557 H 0.33147 0.76785 0.66844 0.0
H558 H 0.27961 0.84156 0.73908 0.0
H559 H 0.29166 0.8198 0.75588 0.0
H560 H 0.26815 0.81519 0.73789 0.0
H561 H 0.20607 0.70241 0.73438 0.0
H562 H 0.26735 0.70178 0.78772 0.0
H563 H 0.29823 0.72371 0.79256 0.0
H564 H 0.32653 0.78484 0.75045 0.0
H565 H 0.26509 0.78593 0.69723 0.0
H566 H 0.23328 0.7649 0.6936 0.0
H567 H 0.39504 0.69492 0.84227 0.0
H568 H 0.37028 0.70069 0.82701 0.0
H569 H 0.3723 0.70376 0.86011 0.0
C570 C 0.15227 0.33777 0.88662 0.0
C571 C 0.17615 0.33899 0.89252 0.0
C572 C 0.19208 0.32259 0.85528 0.0
C573 C 0.18576 0.30154 0.86037 0.0
C574 C 0.18949 0.28514 0.84318 0.0
C575 C 0.19989 0.28982 0.82058 0.0
C576 C 0.20678 0.31085 0.81569 0.0
C577 C 0.20278 0.32695 0.83315 0.0
C578 C 0.18198 0.26285 0.84897 0.0
C579 C 0.21806 0.31633 0.79184 0.0
C580 C 0.10848 0.21134 0.69156 0.0
C581 C 0.10462 0.23548 0.69254 0.0
C582 C 0.13811 0.24896 0.71065 0.0
C583 C 0.15687 0.25999 0.70536 0.0
C584 C 0.1728 0.26258 0.72333 0.0
C585 C 0.16994 0.25364 0.74716 0.0
C586 C 0.15079 0.24287 0.7529 0.0
C587 C 0.13498 0.24077 0.73465 0.0
C588 C 0.19285 0.27455 0.71673 0.0
C589 C 0.14722 0.23325 0.7782 0.0
C590 C 0.25744 0.15007 0.7074 0.0
C591 C 0.26562 0.17052 0.70292 0.0
C592 C 0.26648 0.18575 0.72195 0.0
C593 C 0.25884 0.18046 0.74584 0.0
C594 C 0.25164 0.15952 0.75071 0.0
C595 C 0.25128 0.14448 0.73141 0.0
C596 C 0.275 0.20771 0.71634 0.0
C597 C 0.24358 0.15329 0.77603 0.0
C598 C 0.32597 0.24223 0.90649 0.0
C599 C 0.33757 0.22239 0.89684 0.0
C600 C 0.32255 0.2203 0.85468 0.0
C601 C 0.32572 0.22728 0.83038 0.0
C602 C 0.30948 0.22583 0.81258 0.0
C603 C 0.28971 0.21664 0.81917 0.0
C604 C 0.28664 0.20877 0.8435 0.0
C605 C 0.30297 0.21094 0.8611 0.0
C606 C 0.31336 0.2344 0.78683 0.0
C607 C 0.26603 0.19819 0.85097 0.0
C608 C 0.2025 0.27294 0.80153 0.0
C609 C 0.1865 0.27086 0.78366 0.0
C610 C 0.18734 0.25482 0.76574 0.0
C611 C 0.2045 0.24025 0.76564 0.0
C612 C 0.20551 0.22356 0.74827 0.0
C613 C 0.22254 0.20944 0.74813 0.0
C614 C 0.23927 0.21143 0.76534 0.0
C615 C 0.2568 0.19731 0.76506 0.0
C616 C 0.2729 0.19938 0.78279 0.0
C617 C 0.27216 0.21549 0.80073 0.0
C618 C 0.25497 0.2301 0.80094 0.0
C619 C 0.25393 0.24683 0.8183 0.0
C620 C 0.23677 0.26086 0.81858 0.0
C621 C 0.22009 0.25887 0.80134 0.0
C622 C 0.22101 0.24238 0.7834 0.0
C623 C 0.23842 0.22795 0.78324 0.0
C624 C 0.22241 0.14182 0.66763 0.0
C625 C 0.24664 0.13963 0.66574 0.0
O626 O 0.188 0.3392 0.87083 0.0
O627 O 0.33875 0.22297 0.87116 0.0
O628 O 0.25519 0.13547 0.68898 0.0
O629 O 0.12377 0.24643 0.69196 0.0
H630 H 0.18078 0.325 0.90396 0.0
H631 H 0.14843 0.32276 0.87673 0.0
H632 H 0.14736 0.35135 0.87471 0.0
H633 H 0.14284 0.33815 0.90404 0.0
H634 H 0.17768 0.29773 0.87749 0.0
H635 H 0.20773 0.34317 0.82942 0.0
H636 H 0.17048 0.25753 0.8346 0.0
H637 H 0.17421 0.26175 0.86743 0.0
H638 H 0.19569 0.2517 0.84852 0.0
H639 H 0.22353 0.33316 0.79146 0.0
H640 H 0.20715 0.31363 0.77594 0.0
H641 H 0.23203 0.30572 0.78929 0.0
H642 H 0.09586 0.23951 0.70985 0.0
H643 H 0.09304 0.20269 0.69127 0.0
H644 H 0.11751 0.20593 0.70807 0.0
H645 H 0.11774 0.20696 0.67476 0.0
H646 H 0.15909 0.26641 0.68689 0.0
H647 H 0.12043 0.23248 0.73928 0.0
H648 H 0.19624 0.28689 0.73096 0.0
H649 H 0.19172 0.28235 0.69829 0.0
H650 H 0.20652 0.26335 0.71647 0.0
H651 H 0.13181 0.22463 0.77947 0.0
H652 H 0.14747 0.24601 0.79246 0.0
H653 H 0.16031 0.22198 0.78262 0.0
H654 H 0.25311 0.15481 0.65831 0.0
H655 H 0.2714 0.17465 0.68466 0.0
H656 H 0.24535 0.12853 0.73475 0.0
H657 H 0.26172 0.21936 0.71668 0.0
H658 H 0.2828 0.2085 0.69788 0.0
H659 H 0.28666 0.2126 0.73075 0.0
H660 H 0.23856 0.13633 0.77682 0.0
H661 H 0.22983 0.1635 0.78114 0.0
H662 H 0.25624 0.15598 0.79006 0.0
H663 H 0.3289 0.20785 0.90283 0.0
H664 H 0.32499 0.24192 0.92706 0.0
H665 H 0.30948 0.24281 0.89912 0.0
H666 H 0.33446 0.25692 0.90064 0.0
H667 H 0.3409 0.23434 0.82553 0.0
H668 H 0.30024 0.20519 0.87971 0.0
H669 H 0.30042 0.24556 0.78154 0.0
H670 H 0.31322 0.22104 0.77333 0.0
H671 H 0.32887 0.24281 0.78533 0.0
H672 H 0.26727 0.19018 0.86928 0.0
H673 H 0.26121 0.18622 0.83686 0.0
H674 H 0.25323 0.21033 0.85206 0.0
H675 H 0.17313 0.28182 0.7838 0.0
H676 H 0.19314 0.2212 0.73457 0.0
H677 H 0.22239 0.19691 0.73432 0.0
H678 H 0.28622 0.18838 0.78257 0.0
H679 H 0.26636 0.24923 0.83192 0.0
H680 H 0.23676 0.27336 0.83244 0.0
H681 H 0.21541 0.14482 0.64903 0.0
H682 H 0.21827 0.15546 0.67984 0.0
H683 H 0.21526 0.12711 0.6755 0.0
C684 C 0.84673 0.39592 0.6206 0.0
C685 C 0.84917 0.37276 0.62893 0.0
C686 C 0.81825 0.3527 0.64363 0.0
C687 C 0.82766 0.34241 0.664 0.0
C688 C 0.81503 0.33395 0.68309 0.0
C689 C 0.79261 0.33578 0.68169 0.0
C690 C 0.78311 0.34515 0.66054 0.0
C691 C 0.79611 0.35324 0.64162 0.0
C692 C 0.82563 0.32352 0.70505 0.0
C693 C 0.75926 0.34741 0.65837 0.0
C694 C 0.78275 0.43405 0.80313 0.0
C695 C 0.76407 0.42476 0.81796 0.0
C696 C 0.7644 0.3884 0.80065 0.0
C697 C 0.75398 0.39287 0.77817 0.0
C698 C 0.75311 0.37759 0.75914 0.0
C699 C 0.76316 0.35761 0.76249 0.0
C700 C 0.77362 0.3531 0.78515 0.0
C701 C 0.77374 0.36845 0.80406 0.0
C702 C 0.7415 0.38283 0.7354 0.0
C703 C 0.785 0.33222 0.7893 0.0
C704 C 0.66223 0.26317 0.79823 0.0
C705 C 0.658 0.27171 0.77463 0.0
C706 C 0.67397 0.27259 0.75648 0.0
C707 C 0.69451 0.26469 0.76197 0.0
C708 C 0.69858 0.25525 0.78528 0.0
C709 C 0.68232 0.25458 0.80311 0.0
C710 C 0.66905 0.28247 0.73162 0.0
C711 C 0.72026 0.24646 0.79158 0.0
C712 C 0.77766 0.16773 0.6417 0.0
C713 C 0.75497 0.16317 0.65074 0.0
C714 C 0.74043 0.19839 0.66181 0.0
C715 C 0.72561 0.214 0.65521 0.0
C716 C 0.72269 0.23231 0.66979 0.0
C717 C 0.735 0.23508 0.69151 0.0
C718 C 0.75029 0.21955 0.69814 0.0
C719 C 0.75288 0.20139 0.68325 0.0
C720 C 0.7063 0.2486 0.66219 0.0
C721 C 0.76368 0.22202 0.72122 0.0
C722 C 0.77915 0.32991 0.70324 0.0
C723 C 0.77734 0.34482 0.7224 0.0
C724 C 0.7633 0.34163 0.74213 0.0
C725 C 0.7502 0.32333 0.74249 0.0
C726 C 0.73471 0.32041 0.76097 0.0
C727 C 0.72204 0.30225 0.76131 0.0
C728 C 0.72463 0.28614 0.74341 0.0
C729 C 0.712 0.2675 0.74379 0.0
C730 C 0.71557 0.25139 0.72642 0.0
C731 C 0.73118 0.25356 0.70811 0.0
C732 C 0.74325 0.27255 0.70662 0.0
C733 C 0.75833 0.27577 0.6877 0.0
C734 C 0.77001 0.29462 0.6864 0.0
C735 C 0.7674 0.31071 0.7043 0.0
C736 C 0.75262 0.30759 0.72381 0.0
C737 C 0.74015 0.28875 0.7246 0.0
C738 C 0.63267 0.29835 0.82003 0.0
C739 C 0.62858 0.2743 0.81778 0.0
O740 O 0.82992 0.36229 0.62565 0.0
O741 O 0.74211 0.18085 0.64704 0.0
O742 O 0.64767 0.26321 0.8169 0.0
O743 O 0.76598 0.40278 0.81944 0.0
H744 H 0.85364 0.37336 0.6489 0.0
H745 H 0.83443 0.40395 0.63208 0.0
H746 H 0.84176 0.39678 0.60085 0.0
H747 H 0.86201 0.40462 0.62294 0.0
H748 H 0.84482 0.34104 0.66507 0.0
H749 H 0.78903 0.36085 0.62558 0.0
H750 H 0.82368 0.33381 0.72164 0.0
H751 H 0.84291 0.32086 0.70192 0.0
H752 H 0.81791 0.30799 0.70912 0.0
H753 H 0.75442 0.3556 0.64101 0.0
H754 H 0.75301 0.35657 0.67442 0.0
H755 H 0.75171 0.33143 0.65877 0.0
H756 H 0.74879 0.42898 0.80879 0.0
H757 H 0.78142 0.45166 0.8019 0.0
H758 H 0.7828 0.42766 0.78394 0.0
H759 H 0.79813 0.4299 0.8121 0.0
H760 H 0.74643 0.40815 0.77533 0.0
H761 H 0.78168 0.36514 0.82149 0.0
H762 H 0.75323 0.3848 0.72018 0.0
H763 H 0.73207 0.39774 0.73697 0.0
H764 H 0.73067 0.36958 0.73019 0.0
H765 H 0.79475 0.33237 0.80649 0.0
H766 H 0.79552 0.32852 0.77332 0.0
H767 H 0.77314 0.31919 0.79082 0.0
H768 H 0.61926 0.27101 0.80066 0.0
H769 H 0.64243 0.278 0.77027 0.0
H770 H 0.68539 0.24782 0.82124 0.0
H771 H 0.67897 0.29694 0.72902 0.0
H772 H 0.65203 0.287 0.72979 0.0
H773 H 0.67315 0.27114 0.71653 0.0
H774 H 0.72063 0.23885 0.81016 0.0
H775 H 0.73219 0.25952 0.79119 0.0
H776 H 0.72509 0.23453 0.77744 0.0
H777 H 0.75543 0.15913 0.67082 0.0
H778 H 0.78792 0.15351 0.6445 0.0
H779 H 0.78474 0.18119 0.6522 0.0
H780 H 0.77765 0.17197 0.6217 0.0
H781 H 0.71614 0.21166 0.63863 0.0
H782 H 0.76461 0.18969 0.68864 0.0
H783 H 0.7138 0.26459 0.66094 0.0
H784 H 0.69365 0.24951 0.67652 0.0
H785 H 0.69882 0.24472 0.64407 0.0
H786 H 0.77501 0.20861 0.72377 0.0
H787 H 0.7532 0.22297 0.73776 0.0
H788 H 0.77286 0.23712 0.72026 0.0
H789 H 0.78687 0.35924 0.72183 0.0
H790 H 0.7321 0.33223 0.77528 0.0
H791 H 0.71034 0.30092 0.77596 0.0
H792 H 0.70612 0.23693 0.72721 0.0
H793 H 0.76108 0.26383 0.67356 0.0
H794 H 0.7813 0.29636 0.67136 0.0
H795 H 0.61733 0.30709 0.82149 0.0
H796 H 0.64119 0.30446 0.8035 0.0
H797 H 0.64246 0.30187 0.83671 0.0
C798 C 0.87462 0.65855 0.87864 0.0
C799 C 0.85205 0.65978 0.88939 0.0
C800 C 0.83059 0.67188 0.85367 0.0
C801 C 0.83831 0.6929 0.853 0.0
C802 C 0.83199 0.70693 0.83413 0.0
C803 C 0.81757 0.69987 0.81571 0.0
C804 C 0.80926 0.67896 0.81679 0.0
C805 C 0.81591 0.66525 0.83579 0.0
C806 C 0.84115 0.72916 0.83347 0.0
C807 C 0.79374 0.67099 0.79755 0.0
C808 C 0.84723 0.72494 0.63171 0.0
C809 C 0.86096 0.70622 0.64074 0.0
C810 C 0.85747 0.71268 0.6856 0.0
C811 C 0.8366 0.70496 0.68825 0.0
C812 C 0.82512 0.7085 0.71017 0.0
C813 C 0.83465 0.72011 0.72976 0.0
C814 C 0.85585 0.72739 0.72742 0.0
C815 C 0.86705 0.7234 0.70539 0.0
C816 C 0.80271 0.69998 0.71232 0.0
C817 C 0.86651 0.73971 0.748 0.0
C818 C 0.75705 0.83396 0.69512 0.0
C819 C 0.74703 0.81396 0.69338 0.0
C820 C 0.74697 0.79987 0.71358 0.0
C821 C 0.75753 0.80567 0.73576 0.0
C822 C 0.76699 0.82604 0.73785 0.0
C823 C 0.7664 0.84 0.71755 0.0
C824 C 0.73613 0.77852 0.71097 0.0
C825 C 0.77827 0.83281 0.76127 0.0
C826 C 0.70112 0.75942 0.9076 0.0
C827 C 0.68837 0.77838 0.89751 0.0
C828 C 0.70064 0.77736 0.8541 0.0
C829 C 0.69597 0.7682 0.83114 0.0
C830 C 0.71107 0.76782 0.81199 0.0
C831 C 0.73122 0.77738 0.81575 0.0
C832 C 0.73578 0.7875 0.83861 0.0
C833 C 0.72054 0.78718 0.85768 0.0
C834 C 0.70557 0.75695 0.78785 0.0
C835 C 0.75683 0.79847 0.84296 0.0
C836 C 0.8126 0.71379 0.79429 0.0
C837 C 0.82504 0.71143 0.77299 0.0
C838 C 0.82224 0.72473 0.75254 0.0
C839 C 0.80717 0.74142 0.75357 0.0
C840 C 0.80508 0.75609 0.73407 0.0
C841 C 0.78996 0.77225 0.73508 0.0
C842 C 0.77594 0.774 0.75533 0.0
C843 C 0.76 0.7899 0.75609 0.0
C844 C 0.746 0.79085 0.77621 0.0
C845 C 0.74755 0.77638 0.79586 0.0
C846 C 0.7638 0.76074 0.79576 0.0
C847 C 0.7662 0.74622 0.81545 0.0
C848 C 0.78237 0.73104 0.81523 0.0
C849 C 0.7963 0.72933 0.79494 0.0
C850 C 0.79383 0.74342 0.77463 0.0
C851 C 0.77789 0.75945 0.77529 0.0
C852 C 0.77401 0.82957 0.64112 0.0
C853 C 0.7555 0.84318 0.65077 0.0
O854 O 0.837 0.65733 0.87079 0.0
O855 O 0.68553 0.77625 0.87211 0.0
O856 O 0.75832 0.84777 0.67573 0.0
O857 O 0.86883 0.71039 0.66431 0.0
H858 H 0.84982 0.67544 0.8987 0.0
H859 H 0.87738 0.67174 0.86535 0.0
H860 H 0.87707 0.64322 0.86871 0.0
H861 H 0.88659 0.65993 0.89372 0.0
H862 H 0.84951 0.69842 0.86681 0.0
H863 H 0.80993 0.64906 0.83654 0.0
H864 H 0.85005 0.73153 0.8159 0.0
H865 H 0.85204 0.73232 0.84929 0.0
H866 H 0.82805 0.74103 0.83389 0.0
H867 H 0.78731 0.655 0.80221 0.0
H868 H 0.80181 0.67005 0.77927 0.0
H869 H 0.78028 0.68235 0.79568 0.0
H870 H 0.85128 0.69139 0.6411 0.0
H871 H 0.84118 0.72183 0.61268 0.0
H872 H 0.8567 0.73991 0.63156 0.0
H873 H 0.83324 0.72728 0.64394 0.0
H874 H 0.82911 0.69624 0.6733 0.0
H875 H 0.88322 0.72912 0.70325 0.0
H876 H 0.79132 0.71348 0.7129 0.0
H877 H 0.80088 0.69088 0.72984 0.0
H878 H 0.79838 0.68947 0.69652 0.0
H879 H 0.88268 0.74528 0.74275 0.0
H880 H 0.86783 0.72949 0.76471 0.0
H881 H 0.85665 0.75374 0.75307 0.0
H882 H 0.74028 0.83443 0.64813 0.0
H883 H 0.73935 0.80911 0.67635 0.0
H884 H 0.77389 0.85552 0.71883 0.0
H885 H 0.74835 0.76579 0.70987 0.0
H886 H 0.72604 0.77764 0.69407 0.0
H887 H 0.72606 0.77525 0.72745 0.0
H888 H 0.78517 0.84905 0.75978 0.0
H889 H 0.79126 0.82138 0.76556 0.0
H890 H 0.76694 0.83253 0.77706 0.0
H891 H 0.697 0.79346 0.90154 0.0
H892 H 0.70335 0.76094 0.92797 0.0
H893 H 0.71714 0.75881 0.89895 0.0
H894 H 0.69272 0.74422 0.90357 0.0
H895 H 0.68053 0.76083 0.82848 0.0
H896 H 0.7243 0.79467 0.8752 0.0
H897 H 0.71793 0.74496 0.78315 0.0
H898 H 0.70527 0.76889 0.77269 0.0
H899 H 0.68983 0.74889 0.78854 0.0
H900 H 0.75699 0.80773 0.86052 0.0
H901 H 0.76047 0.80939 0.82732 0.0
H902 H 0.76972 0.7864 0.84377 0.0
H903 H 0.83702 0.69898 0.77228 0.0
H904 H 0.81523 0.75536 0.71787 0.0
H905 H 0.78925 0.78317 0.71959 0.0
H906 H 0.73356 0.80284 0.77643 0.0
H907 H 0.75573 0.74655 0.83138 0.0
H908 H 0.78362 0.72042 0.83098 0.0
H909 H 0.77193 0.8262 0.62103 0.0
H910 H 0.7746 0.81409 0.65102 0.0
H911 H 0.78941 0.83794 0.64396 0.0
C912 C 0.96934 0.31251 0.52555 0.0
C913 C 0.03233 0.29669 0.47648 0.0
O914 O 0.98233 0.32532 0.51539 0.0
Zn915 Zn 0.00042 0.30436 0.50036 0.0
O916 O 0.97197 0.29237 0.52276 0.0
Zn917 Zn 0.9943 0.27173 0.504 0.0
O918 O 0.00549 0.25516 0.53068 0.0
O919 O 0.01503 0.28897 0.53221 0.0
O920 O 0.02279 0.27963 0.48345 0.0
O921 O 0.02449 0.3147 0.48205 0.0
O922 O 0.98048 0.29102 0.47168 0.0
O923 O 0.97695 0.25693 0.48037 0.0
C924 C 0.01557 0.27009 0.5414 0.0
C925 C 0.97278 0.27263 0.4664 0.0
C926 C 0.71638 0.03381 0.54846 0.0
C927 C 0.69357 0.97664 0.49292 0.0
O928 O 0.73189 0.02522 0.53662 0.0
Zn929 Zn 0.73661 8e-05 0.50995 0.0
O930 O 0.69759 0.02676 0.54532 0.0
Zn931 Zn 0.70456 0.00518 0.52113 0.0
O932 O 0.7218 0.98217 0.54269 0.0
O933 O 0.75428 0.97984 0.52734 0.0
O934 O 0.68188 0.98811 0.50678 0.0
O935 O 0.71372 0.97975 0.49268 0.0
O936 O 0.7484 0.01498 0.48185 0.0
O937 O 0.71527 0.02426 0.49046 0.0
C938 C 0.74046 0.97388 0.54308 0.0
C939 C 0.73215 0.0264 0.47732 0.0
C940 C 0.97425 0.715 0.50993 0.0
C941 C 0.0272 0.72293 0.44459 0.0
O942 O 0.98027 0.73435 0.50692 0.0
Zn943 Zn 0.00246 0.75174 0.48433 0.0
O944 O 0.98258 0.70023 0.49702 0.0
Zn945 Zn 0.00092 0.71853 0.47769 0.0
O946 O 0.02385 0.72823 0.50526 0.0
O947 O 0.02233 0.76326 0.508 0.0
O948 O 0.01815 0.70591 0.45172 0.0
O949 O 0.02261 0.7406 0.45525 0.0
O950 O 0.98389 0.77124 0.46756 0.0
O951 O 0.97802 0.73768 0.45743 0.0
C952 C 0.03038 0.74571 0.51501 0.0
C953 C 0.97326 0.75751 0.45543 0.0
C954 C 0.28033 0.02607 0.53834 0.0
C955 C 0.28781 0.97774 0.46804 0.0
O956 O 0.29989 0.02233 0.53302 0.0
Zn957 Zn 0.3174 0.00375 0.50624 0.0
O958 O 0.26573 0.01723 0.52567 0.0
Zn959 Zn 0.28401 0.00183 0.5033 0.0
O960 O 0.29852 0.97843 0.52718 0.0
O961 O 0.33313 0.98428 0.52663 0.0
O962 O 0.27081 0.98454 0.47805 0.0
O963 O 0.30588 0.98373 0.4767 0.0
O964 O 0.33329 0.02513 0.48886 0.0
O965 O 0.29868 0.02728 0.48243 0.0
C966 C 0.31737 0.97354 0.5344 0.0
C967 C 0.31758 0.03436 0.47865 0.0
C968 C 0.48534 0.79141 0.04132 0.0
C969 C 0.54897 0.77929 0.99203 0.0
O970 O 0.4984 0.80483 0.03249 0.0
Zn971 Zn 0.51701 0.78488 0.01664 0.0
O972 O 0.48844 0.77145 0.03754 0.0
Zn973 Zn 0.5119 0.75214 0.0184 0.0
O974 O 0.52322 0.73493 0.04423 0.0
O975 O 0.53202 0.76878 0.04791 0.0
O976 O 0.54013 0.76163 0.99819 0.0
O977 O 0.54053 0.79675 0.99865 0.0
O978 O 0.497 0.77199 0.98744 0.0
O979 O 0.49527 0.73743 0.99418 0.0
C980 C 0.53289 0.74953 0.05596 0.0
C981 C 0.49007 0.75348 0.98126 0.0
C982 C 0.2038 0.54275 0.03332 0.0
C983 C 0.20175 0.47475 0.98982 0.0
O984 O 0.22245 0.53618 0.02745 0.0
Zn985 Zn 0.23615 0.50942 0.00853 0.0
O986 O 0.18762 0.53153 0.02792 0.0
Zn987 Zn 0.20271 0.50839 0.01219 0.0
O988 O 0.22021 0.49324 0.0418 0.0
O989 O 0.25432 0.49702 0.03314 0.0
O990 O 0.18628 0.48519 0.99894 0.0
O991 O 0.22078 0.48196 0.99216 0.0
O992 O 0.24944 0.52291 0.9804 0.0
O993 O 0.21433 0.52328 0.9789 0.0
C994 C 0.23982 0.49001 0.04738 0.0
C995 C 0.23238 0.5279 0.96917 0.0
C996 C 0.54005 0.24522 0.97046 0.0
C997 C 0.49765 0.24819 0.0455 0.0
O998 O 0.53559 0.261 0.9842 0.0
Zn999 Zn 0.51911 0.24602 0.00831 0.0
O1000 O 0.53296 0.22668 0.9762 0.0
Zn1001 Zn 0.5135 0.21337 0.00545 0.0
O1002 O 0.48975 0.20205 0.9874 0.0
O1003 O 0.49058 0.23718 0.98808 0.0
O1004 O 0.49833 0.22912 0.03683 0.0
O1005 O 0.50791 0.26287 0.0346 0.0
O1006 O 0.5423 0.22616 0.0269 0.0
O1007 O 0.53205 0.19302 0.02068 0.0
C1008 C 0.48145 0.21976 0.98149 0.0
C1009 C 0.54521 0.20609 0.03003 0.0
C1010 C 0.77554 0.5341 0.06453 0.0
C1011 C 0.77517 0.49518 0.98637 0.0
O1012 O 0.79413 0.52723 0.05883 0.0
Zn1013 Zn 0.8081 0.50816 0.03005 0.0
O1014 O 0.75978 0.52906 0.05101 0.0
Zn1015 Zn 0.775 0.51324 0.02604 0.0
O1016 O 0.78331 0.48365 0.04296 0.0
O1017 O 0.81824 0.48279 0.04677 0.0
O1018 O 0.75935 0.50323 0.9977 0.0
O1019 O 0.79378 0.49596 0.99622 0.0
O1020 O 0.82875 0.52764 0.01646 0.0
O1021 O 0.79538 0.53695 0.00943 0.0
C1022 C 0.80026 0.47392 0.04973 0.0
C1023 C 0.81539 0.54054 0.00703 0.0
C1024 C 0.13762 0.28388 0.39296 0.0
C1025 C 0.15541 0.29066 0.40664 0.0
C1026 C 0.11702 0.28504 0.40301 0.0
C1027 C 0.11422 0.29254 0.42757 0.0
C1028 C 0.13214 0.29903 0.4416 0.0
C1029 C 0.15247 0.29808 0.43093 0.0
C1030 C 0.09827 0.27816 0.38742 0.0
C1031 C 0.12986 0.30672 0.46801 0.0
C1032 C 0.06064 0.31302 0.44991 0.0
C1033 C 0.05273 0.29533 0.46284 0.0
C1034 C 0.08036 0.31213 0.43771 0.0
C1035 C 0.09263 0.29324 0.43887 0.0
C1036 C 0.08463 0.27526 0.45167 0.0
C1037 C 0.06469 0.27647 0.46332 0.0
C1038 C 0.08821 0.3315 0.42387 0.0
C1039 C 0.09738 0.25494 0.45366 0.0
H1040 H 0.13976 0.27766 0.37438 0.0
H1041 H 0.16622 0.30291 0.44171 0.0
H1042 H 0.09021 0.26439 0.39622 0.0
H1043 H 0.08644 0.29126 0.38627 0.0
H1044 H 0.10304 0.27358 0.36831 0.0
H1045 H 0.14541 0.3111 0.47642 0.0
H1046 H 0.11924 0.32082 0.46868 0.0
H1047 H 0.12241 0.29412 0.47951 0.0
H1048 H 0.0514 0.3276 0.44932 0.0
H1049 H 0.05872 0.26277 0.47339 0.0
H1050 H 0.09228 0.32714 0.4045 0.0
H1051 H 0.10294 0.33762 0.43271 0.0
H1052 H 0.07622 0.34451 0.42351 0.0
H1053 H 0.10147 0.24893 0.43492 0.0
H1054 H 0.08868 0.24224 0.4638 0.0
H1055 H 0.11258 0.25814 0.46347 0.0
C1056 C 0.71423 0.10801 0.36617 0.0
C1057 C 0.72909 0.12469 0.36672 0.0
C1058 C 0.71579 0.09079 0.38265 0.0
C1059 C 0.7324 0.09043 0.40038 0.0
C1060 C 0.74793 0.10677 0.40042 0.0
C1061 C 0.74634 0.12345 0.38323 0.0
C1062 C 0.69931 0.0733 0.38153 0.0
C1063 C 0.76569 0.10713 0.4193 0.0
C1064 C 0.72064 0.06131 0.46036 0.0
C1065 C 0.73264 0.04266 0.45761 0.0
C1066 C 0.72073 0.0771 0.44202 0.0
C1067 C 0.73263 0.07385 0.42005 0.0
C1068 C 0.74462 0.05491 0.41704 0.0
C1069 C 0.74475 0.03964 0.43609 0.0
C1070 C 0.70819 0.09731 0.44624 0.0
C1071 C 0.757 0.05065 0.39357 0.0
H1072 H 0.70119 0.10857 0.35302 0.0
H1073 H 0.75833 0.13585 0.38319 0.0
H1074 H 0.70717 0.05748 0.38111 0.0
H1075 H 0.68923 0.07385 0.3984 0.0
H1076 H 0.68882 0.07476 0.36502 0.0
H1077 H 0.77693 0.12054 0.41623 0.0
H1078 H 0.75886 0.10866 0.4382 0.0
H1079 H 0.77474 0.09198 0.41874 0.0
H1080 H 0.71142 0.06374 0.47712 0.0
H1081 H 0.75391 0.02512 0.4339 0.0
H1082 H 0.69565 0.0989 0.43188 0.0
H1083 H 0.71881 0.11136 0.44456 0.0
H1084 H 0.70049 0.0977 0.46478 0.0
H1085 H 0.7461 0.05098 0.37738 0.0
H1086 H 0.76525 0.035 0.39399 0.0
H1087 H 0.76904 0.06333 0.39065 0.0
C1088 C 0.85895 0.78891 0.40463 0.0
C1089 C 0.85884 0.79654 0.38022 0.0
C1090 C 0.87784 0.78176 0.41576 0.0
C1091 C 0.89712 0.78236 0.40218 0.0
C1092 C 0.89706 0.7897 0.37737 0.0
C1093 C 0.87794 0.79684 0.36673 0.0
C1094 C 0.87725 0.77412 0.4423 0.0
C1095 C 0.91728 0.79055 0.36228 0.0
C1096 C 0.94802 0.78545 0.44008 0.0
C1097 C 0.95469 0.76412 0.44027 0.0
C1098 C 0.92954 0.79166 0.42735 0.0
C1099 C 0.91746 0.77618 0.41439 0.0
C1100 C 0.92441 0.75474 0.41392 0.0
C1101 C 0.94292 0.74896 0.4269 0.0
C1102 C 0.92264 0.81469 0.42831 0.0
C1103 C 0.91203 0.73782 0.40018 0.0
H1104 H 0.84428 0.78898 0.41522 0.0
H1105 H 0.87799 0.80309 0.348 0.0
H1106 H 0.8841 0.75788 0.44364 0.0
H1107 H 0.88714 0.78473 0.45407 0.0
H1108 H 0.86083 0.77381 0.44993 0.0
H1109 H 0.91432 0.79543 0.34279 0.0
H1110 H 0.92855 0.80203 0.3708 0.0
H1111 H 0.92518 0.77474 0.36225 0.0
H1112 H 0.95699 0.79729 0.45035 0.0
H1113 H 0.94796 0.73245 0.42686 0.0
H1114 H 0.90695 0.81593 0.43767 0.0
H1115 H 0.92066 0.82103 0.40926 0.0
H1116 H 0.93421 0.82489 0.4384 0.0
H1117 H 0.89603 0.73602 0.40861 0.0
H1118 H 0.92015 0.72211 0.40052 0.0
H1119 H 0.90965 0.74264 0.38059 0.0
C1120 C 0.284 0.91746 0.33802 0.0
C1121 C 0.28761 0.8955 0.34014 0.0
C1122 C 0.28272 0.93051 0.35908 0.0
C1123 C 0.28521 0.92139 0.3829 0.0
C1124 C 0.28847 0.89916 0.38524 0.0
C1125 C 0.28984 0.8865 0.36381 0.0
C1126 C 0.27944 0.95418 0.35579 0.0
C1127 C 0.29117 0.88886 0.41032 0.0
C1128 C 0.30576 0.95767 0.43389 0.0
C1129 C 0.28698 0.96307 0.4465 0.0
C1130 C 0.30539 0.944 0.41332 0.0
C1131 C 0.28577 0.93536 0.4052 0.0
C1132 C 0.26677 0.94052 0.41798 0.0
C1133 C 0.26759 0.95439 0.43844 0.0
C1134 C 0.32599 0.93901 0.40008 0.0
C1135 C 0.24559 0.93149 0.40995 0.0
H1136 H 0.28268 0.92453 0.31974 0.0
H1137 H 0.29308 0.8696 0.36552 0.0
H1138 H 0.26566 0.95963 0.36698 0.0
H1139 H 0.29367 0.9629 0.36257 0.0
H1140 H 0.27665 0.95859 0.33611 0.0
H1141 H 0.29195 0.87121 0.40907 0.0
H1142 H 0.30604 0.89469 0.41913 0.0
H1143 H 0.27779 0.89332 0.42269 0.0
H1144 H 0.32083 0.9643 0.43995 0.0
H1145 H 0.25301 0.95839 0.44813 0.0
H1146 H 0.32501 0.94435 0.38051 0.0
H1147 H 0.32873 0.92156 0.39985 0.0
H1148 H 0.33993 0.94683 0.40892 0.0
H1149 H 0.24193 0.93668 0.39075 0.0
H1150 H 0.23236 0.93657 0.42228 0.0
H1151 H 0.2463 0.91383 0.4098 0.0
C1152 C 0.09819 0.74815 0.63943 0.0
C1153 C 0.11937 0.74158 0.63644 0.0
C1154 C 0.08426 0.74938 0.61915 0.0
C1155 C 0.09176 0.74418 0.59515 0.0
C1156 C 0.11323 0.73792 0.59186 0.0
C1157 C 0.1267 0.73634 0.61259 0.0
C1158 C 0.06135 0.75564 0.62354 0.0
C1159 C 0.12188 0.73254 0.5665 0.0
C1160 C 0.0507 0.72631 0.54779 0.0
C1161 C 0.04672 0.74524 0.5348 0.0
C1162 C 0.06545 0.72571 0.56732 0.0
C1163 C 0.0768 0.74441 0.57373 0.0
C1164 C 0.07326 0.76345 0.56028 0.0
C1165 C 0.05809 0.7637 0.54113 0.0
C1166 C 0.06849 0.70519 0.58148 0.0
C1167 C 0.08535 0.78359 0.56628 0.0
H1168 H 0.09238 0.75182 0.65788 0.0
H1169 H 0.1429 0.73083 0.61011 0.0
H1170 H 0.05718 0.76968 0.61206 0.0
H1171 H 0.05068 0.74242 0.61784 0.0
H1172 H 0.05814 0.7595 0.6433 0.0
H1173 H 0.1393 0.72953 0.56682 0.0
H1174 H 0.11379 0.71814 0.5592 0.0
H1175 H 0.11858 0.74574 0.55338 0.0
H1176 H 0.04189 0.71201 0.54308 0.0
H1177 H 0.05519 0.77834 0.53104 0.0
H1178 H 0.06425 0.70764 0.60125 0.0
H1179 H 0.08544 0.70027 0.5809 0.0
H1180 H 0.0586 0.692 0.57397 0.0
H1181 H 0.08142 0.78893 0.58535 0.0
H1182 H 0.08161 0.79673 0.55319 0.0
H1183 H 0.10273 0.78049 0.56574 0.0
C1184 C 0.2515 0.10047 0.65531 0.0
C1185 C 0.25226 0.12187 0.64787 0.0
C1186 C 0.25582 0.08396 0.63845 0.0
C1187 C 0.26071 0.08898 0.6135 0.0
C1188 C 0.2612 0.11054 0.60582 0.0
C1189 C 0.2569 0.1267 0.62308 0.0
C1190 C 0.25513 0.06116 0.6473 0.0
C1191 C 0.26621 0.11654 0.57934 0.0
C1192 C 0.29127 0.04991 0.57327 0.0
C1193 C 0.27502 0.04117 0.55856 0.0
C1194 C 0.28675 0.06509 0.59164 0.0
C1195 C 0.26548 0.07177 0.59535 0.0
C1196 C 0.24893 0.06269 0.58096 0.0
C1197 C 0.2539 0.04746 0.56276 0.0
C1198 C 0.30481 0.07432 0.6067 0.0
C1199 C 0.22605 0.06947 0.58436 0.0
H1200 H 0.24745 0.09666 0.67434 0.0
H1201 H 0.25706 0.1432 0.61715 0.0
H1202 H 0.2431 0.05209 0.63655 0.0
H1203 H 0.27076 0.05341 0.64408 0.0
H1204 H 0.25118 0.05995 0.66733 0.0
H1205 H 0.26584 0.13404 0.57635 0.0
H1206 H 0.28223 0.11054 0.5742 0.0
H1207 H 0.25458 0.10897 0.5666 0.0
H1208 H 0.30763 0.04509 0.57027 0.0
H1209 H 0.24125 0.0408 0.5515 0.0
H1210 H 0.30155 0.07241 0.62679 0.0
H1211 H 0.30619 0.09165 0.603 0.0
H1212 H 0.32032 0.06666 0.60238 0.0
H1213 H 0.22124 0.06753 0.60401 0.0
H1214 H 0.21495 0.06017 0.57251 0.0
H1215 H 0.22435 0.0866 0.57971 0.0
C1216 C 0.86301 0.3564 0.58918 0.0
C1217 C 0.86645 0.36185 0.61409 0.0
C1218 C 0.87941 0.34772 0.57469 0.0
C1219 C 0.89973 0.34446 0.58538 0.0
C1220 C 0.90322 0.34964 0.61062 0.0
C1221 C 0.88654 0.35837 0.62464 0.0
C1222 C 0.87511 0.34247 0.54782 0.0
C1223 C 0.92466 0.34633 0.62267 0.0
C1224 C 0.93804 0.30652 0.55342 0.0
C1225 C 0.95144 0.32068 0.5407 0.0
C1226 C 0.92116 0.31403 0.56806 0.0
C1227 C 0.91754 0.33622 0.56995 0.0
C1228 C 0.93093 0.3506 0.55709 0.0
C1229 C 0.94774 0.34266 0.54266 0.0
C1230 C 0.90724 0.29823 0.58158 0.0
C1231 C 0.92751 0.37438 0.5586 0.0
H1232 H 0.84754 0.3593 0.58093 0.0
H1233 H 0.88929 0.36275 0.64383 0.0
H1234 H 0.88546 0.35232 0.53574 0.0
H1235 H 0.87903 0.32555 0.54407 0.0
H1236 H 0.85825 0.34533 0.54257 0.0
H1237 H 0.9245 0.35037 0.64273 0.0
H1238 H 0.92974 0.3295 0.62054 0.0
H1239 H 0.93678 0.35637 0.61334 0.0
H1240 H 0.94079 0.28952 0.55206 0.0
H1241 H 0.95799 0.35372 0.53288 0.0
H1242 H 0.89044 0.3001 0.57562 0.0
H1243 H 0.90781 0.30137 0.60181 0.0
H1244 H 0.9122 0.28149 0.5782 0.0
H1245 H 0.91127 0.37843 0.55201 0.0
H1246 H 0.93926 0.3834 0.54736 0.0
H1247 H 0.92871 0.37975 0.57815 0.0
C1248 C 0.74195 0.86429 0.61428 0.0
C1249 C 0.75424 0.86366 0.63596 0.0
C1250 C 0.74101 0.88272 0.59965 0.0
C1251 C 0.75267 0.90102 0.60687 0.0
C1252 C 0.76541 0.90041 0.62852 0.0
C1253 C 0.76625 0.88164 0.64266 0.0
C1254 C 0.72747 0.88264 0.5765 0.0
C1255 C 0.77799 0.91962 0.63684 0.0
C1256 C 0.76217 0.94252 0.55678 0.0
C1257 C 0.74513 0.95654 0.56085 0.0
C1258 C 0.7652 0.92464 0.57204 0.0
C1259 C 0.75102 0.92089 0.59198 0.0
C1260 C 0.7344 0.93552 0.59682 0.0
C1261 C 0.73157 0.95308 0.58111 0.0
C1262 C 0.78301 0.9093 0.56617 0.0
C1263 C 0.71913 0.93224 0.61811 0.0
H1264 H 0.73308 0.85025 0.60874 0.0
H1265 H 0.77624 0.88107 0.65903 0.0
H1266 H 0.71474 0.89482 0.57809 0.0
H1267 H 0.73731 0.88689 0.56015 0.0
H1268 H 0.71992 0.86691 0.57306 0.0
H1269 H 0.78723 0.9165 0.65402 0.0
H1270 H 0.78917 0.9246 0.62202 0.0
H1271 H 0.76706 0.93319 0.64028 0.0
H1272 H 0.77265 0.94506 0.5411 0.0
H1273 H 0.71848 0.96394 0.5845 0.0
H1274 H 0.77621 0.89376 0.56035 0.0
H1275 H 0.79282 0.90634 0.58292 0.0
H1276 H 0.79352 0.91525 0.55113 0.0
H1277 H 0.70955 0.91766 0.61485 0.0
H1278 H 0.70809 0.94591 0.62051 0.0
H1279 H 0.72806 0.92988 0.63565 0.0
C1280 C 0.87529 0.69244 0.60013 0.0
C1281 C 0.87917 0.70289 0.62269 0.0
C1282 C 0.89085 0.69168 0.58148 0.0
C1283 C 0.91089 0.70135 0.58566 0.0
C1284 C 0.91529 0.71098 0.60884 0.0
C1285 C 0.89928 0.71199 0.6269 0.0
C1286 C 0.88537 0.6817 0.55681 0.0
C1287 C 0.93659 0.72119 0.61414 0.0
C1288 C 0.95724 0.69142 0.5417 0.0
C1289 C 0.95733 0.71041 0.52806 0.0
C1290 C 0.94201 0.68801 0.5604 0.0
C1291 C 0.92631 0.70374 0.56495 0.0
C1292 C 0.92586 0.7225 0.55042 0.0
C1293 C 0.94155 0.72572 0.5324 0.0
C1294 C 0.94321 0.66803 0.57586 0.0
C1295 C 0.90907 0.73942 0.55425 0.0
H1296 H 0.85969 0.68566 0.5967 0.0
H1297 H 0.9024 0.7204 0.64407 0.0
H1298 H 0.88421 0.69433 0.54249 0.0
H1299 H 0.89808 0.67055 0.55087 0.0
H1300 H 0.87001 0.67294 0.5574 0.0
H1301 H 0.93845 0.72544 0.63403 0.0
H1302 H 0.94974 0.71031 0.60878 0.0
H1303 H 0.93828 0.73591 0.60296 0.0
H1304 H 0.96953 0.67964 0.53839 0.0
H1305 H 0.94147 0.7403 0.52163 0.0
H1306 H 0.92763 0.65972 0.57588 0.0
H1307 H 0.94688 0.67231 0.59537 0.0
H1308 H 0.95561 0.65684 0.56907 0.0
H1309 H 0.89295 0.73222 0.55353 0.0
H1310 H 0.90999 0.75225 0.5401 0.0
H1311 H 0.91099 0.74674 0.57285 0.0
C1312 C 0.33198 0.88502 0.64011 0.0
C1313 C 0.33441 0.86478 0.62941 0.0
C1314 C 0.32952 0.9032 0.62528 0.0
C1315 C 0.32973 0.9011 0.59914 0.0
C1316 C 0.33258 0.88077 0.58824 0.0
C1317 C 0.33498 0.86287 0.60352 0.0
C1318 C 0.3266 0.92463 0.63754 0.0
C1319 C 0.33298 0.87792 0.56043 0.0
C1320 C 0.30308 0.9435 0.55986 0.0
C1321 C 0.32059 0.95534 0.55145 0.0
C1322 C 0.30583 0.92595 0.5756 0.0
C1323 C 0.32659 0.92008 0.58313 0.0
C1324 C 0.34434 0.93206 0.57493 0.0
C1325 C 0.34113 0.94956 0.55918 0.0
C1326 C 0.28652 0.91356 0.58399 0.0
C1327 C 0.36672 0.92626 0.58261 0.0
H1328 H 0.33195 0.88658 0.66013 0.0
H1329 H 0.33726 0.84731 0.59521 0.0
H1330 H 0.33923 0.93577 0.63132 0.0
H1331 H 0.3111 0.93161 0.63196 0.0
H1332 H 0.3271 0.92358 0.6581 0.0
H1333 H 0.33563 0.86107 0.55492 0.0
H1334 H 0.31768 0.88337 0.55234 0.0
H1335 H 0.34577 0.88785 0.55223 0.0
H1336 H 0.28715 0.94786 0.55403 0.0
H1337 H 0.35475 0.95863 0.5528 0.0
H1338 H 0.28582 0.91319 0.60454 0.0
H1339 H 0.28771 0.89682 0.57751 0.0
H1340 H 0.27142 0.92046 0.57687 0.0
H1341 H 0.36801 0.92614 0.60312 0.0
H1342 H 0.37875 0.93749 0.57508 0.0
H1343 H 0.37059 0.90996 0.57603 0.0
C1344 C 0.10032 0.24281 0.64668 0.0
C1345 C 0.0913 0.24214 0.67046 0.0
C1346 C 0.08797 0.24794 0.62586 0.0
C1347 C 0.06605 0.25247 0.62888 0.0
C1348 C 0.05686 0.25196 0.65284 0.0
C1349 C 0.06958 0.24668 0.67334 0.0
C1350 C 0.09831 0.24818 0.60058 0.0
C1351 C 0.03354 0.25673 0.65678 0.0
C1352 C 0.03818 0.28234 0.57694 0.0
C1353 C 0.02808 0.2657 0.56412 0.0
C1354 C 0.05038 0.27831 0.59824 0.0
C1355 C 0.05263 0.25713 0.60683 0.0
C1356 C 0.04237 0.24029 0.59408 0.0
C1357 C 0.03019 0.24478 0.57292 0.0
C1358 C 0.06102 0.29668 0.61143 0.0
C1359 C 0.04448 0.21747 0.60263 0.0
H1360 H 0.11705 0.23907 0.64437 0.0
H1361 H 0.06251 0.24594 0.69165 0.0
H1362 H 0.09066 0.23613 0.58844 0.0
H1363 H 0.096 0.26395 0.5917 0.0
H1364 H 0.11565 0.24477 0.60149 0.0
H1365 H 0.02903 0.2564 0.67669 0.0
H1366 H 0.0296 0.27265 0.64912 0.0
H1367 H 0.0237 0.24488 0.64668 0.0
H1368 H 0.03659 0.29856 0.57032 0.0
H1369 H 0.02247 0.23182 0.56313 0.0
H1370 H 0.07854 0.29445 0.61131 0.0
H1371 H 0.0559 0.29714 0.63112 0.0
H1372 H 0.05727 0.31227 0.60274 0.0
H1373 H 0.06146 0.21263 0.60231 0.0
H1374 H 0.03525 0.20625 0.59085 0.0
H1375 H 0.03887 0.21596 0.62205 0.0
C1376 C 0.74597 0.12399 0.64785 0.0
C1377 C 0.74596 0.14422 0.63682 0.0
C1378 C 0.73952 0.10588 0.63454 0.0
C1379 C 0.73317 0.10801 0.60948 0.0
C1380 C 0.73269 0.12844 0.59838 0.0
C1381 C 0.73915 0.1463 0.61216 0.0
C1382 C 0.74027 0.08437 0.64702 0.0
C1383 C 0.72612 0.13135 0.57166 0.0
C1384 C 0.74124 0.06051 0.56698 0.0
C1385 C 0.72051 0.05236 0.56483 0.0
C1386 C 0.74552 0.07854 0.58151 0.0
C1387 C 0.72868 0.0887 0.59432 0.0
C1388 C 0.70775 0.08046 0.5925 0.0
C1389 C 0.7039 0.06239 0.57774 0.0
C1390 C 0.76807 0.08683 0.58294 0.0
C1391 C 0.68943 0.09084 0.60599 0.0
H1392 H 0.75146 0.12227 0.6668 0.0
H1393 H 0.7394 0.16186 0.60348 0.0
H1394 H 0.72482 0.07601 0.64475 0.0
H1395 H 0.75265 0.07434 0.63813 0.0
H1396 H 0.74391 0.08563 0.66713 0.0
H1397 H 0.72512 0.14842 0.56635 0.0
H1398 H 0.73782 0.12338 0.55934 0.0
H1399 H 0.71043 0.12378 0.56829 0.0
H1400 H 0.7542 0.05293 0.55709 0.0
H1401 H 0.68784 0.05621 0.57618 0.0
H1402 H 0.77351 0.0871 0.60251 0.0
H1403 H 0.7687 0.10345 0.57599 0.0
H1404 H 0.77937 0.07701 0.57197 0.0
H1405 H 0.69278 0.09139 0.62618 0.0
H1406 H 0.67416 0.08228 0.603 0.0
H1407 H 0.68754 0.10754 0.59961 0.0
C1408 C 0.91935 0.2478 0.33571 0.0
C1409 C 0.89721 0.25064 0.33572 0.0
C1410 C 0.9316 0.25274 0.35667 0.0
C1411 C 0.92144 0.26047 0.3783 0.0
C1412 C 0.89914 0.26378 0.37831 0.0
C1413 C 0.88727 0.25875 0.35703 0.0
C1414 C 0.95535 0.249 0.35594 0.0
C1415 C 0.88773 0.27191 0.40106 0.0
C1416 C 0.94964 0.24998 0.43931 0.0
C1417 C 0.95924 0.26973 0.44415 0.0
C1418 C 0.93704 0.24688 0.41814 0.0
C1419 C 0.93402 0.26391 0.40132 0.0
C1420 C 0.94348 0.28395 0.40617 0.0
C1421 C 0.95595 0.28664 0.42756 0.0
C1422 C 0.92713 0.22529 0.41365 0.0
C1423 C 0.94064 0.30245 0.38861 0.0
H1424 H 0.92703 0.24122 0.31941 0.0
H1425 H 0.87011 0.26062 0.35724 0.0
H1426 H 0.96396 0.26365 0.36161 0.0
H1427 H 0.95968 0.2363 0.36931 0.0
H1428 H 0.96096 0.24419 0.33723 0.0
H1429 H 0.87057 0.27493 0.39752 0.0
H1430 H 0.88914 0.26009 0.41625 0.0
H1431 H 0.8952 0.2869 0.40766 0.0
H1432 H 0.95201 0.23686 0.45206 0.0
H1433 H 0.96329 0.30196 0.43115 0.0
H1434 H 0.93324 0.21848 0.39604 0.0
H1435 H 0.90962 0.22688 0.41171 0.0
H1436 H 0.93055 0.21389 0.42888 0.0
H1437 H 0.94727 0.29831 0.37016 0.0
H1438 H 0.94861 0.31715 0.39538 0.0
H1439 H 0.92346 0.30585 0.38599 0.0
C1440 C 0.65943 0.86473 0.43886 0.0
C1441 C 0.65242 0.86507 0.41418 0.0
C1442 C 0.6641 0.88366 0.45156 0.0
C1443 C 0.66149 0.90346 0.43937 0.0
C1444 C 0.65351 0.90398 0.41482 0.0
C1445 C 0.64902 0.88476 0.40252 0.0
C1446 C 0.67255 0.88243 0.47775 0.0
C1447 C 0.6504 0.92478 0.40127 0.0
C1448 C 0.66311 0.95306 0.48002 0.0
C1449 C 0.68454 0.95907 0.47783 0.0
C1450 C 0.65512 0.93532 0.46705 0.0
C1451 C 0.66892 0.92337 0.4516 0.0
C1452 C 0.69037 0.92978 0.44875 0.0
C1453 C 0.69788 0.94752 0.46186 0.0
C1454 C 0.63213 0.92899 0.47043 0.0
C1455 C 0.7056 0.9175 0.43243 0.0
H1456 H 0.66169 0.84956 0.44809 0.0
H1457 H 0.64322 0.88508 0.38359 0.0
H1458 H 0.68919 0.88834 0.47824 0.0
H1459 H 0.66303 0.89278 0.49021 0.0
H1460 H 0.67228 0.86593 0.48515 0.0
H1461 H 0.64232 0.92256 0.38312 0.0
H1462 H 0.64087 0.93595 0.41271 0.0
H1463 H 0.66609 0.93238 0.39796 0.0
H1464 H 0.65268 0.96191 0.49229 0.0
H1465 H 0.71444 0.95208 0.45988 0.0
H1466 H 0.63127 0.91334 0.47993 0.0
H1467 H 0.62426 0.92711 0.45213 0.0
H1468 H 0.62309 0.94084 0.48153 0.0
H1469 H 0.70762 0.90112 0.43976 0.0
H1470 H 0.72152 0.92516 0.43133 0.0
H1471 H 0.69906 0.91608 0.41339 0.0
C1472 C 0.08894 0.74114 0.31922 0.0
C1473 C 0.11105 0.73858 0.32114 0.0
C1474 C 0.07538 0.73493 0.33854 0.0
C1475 C 0.08418 0.72621 0.36046 0.0
C1476 C 0.10635 0.72234 0.3619 0.0
C1477 C 0.11956 0.72864 0.34223 0.0
C1478 C 0.05182 0.73925 0.33621 0.0
C1479 C 0.11634 0.71307 0.38494 0.0
C1480 C 0.05449 0.74134 0.41889 0.0
C1481 C 0.04271 0.72286 0.42392 0.0
C1482 C 0.06845 0.74232 0.39871 0.0
C1483 C 0.07069 0.72439 0.38301 0.0
C1484 C 0.0593 0.70545 0.38827 0.0
C1485 C 0.04543 0.70488 0.40875 0.0
C1486 C 0.0804 0.7628 0.39387 0.0
C1487 C 0.06134 0.68604 0.37191 0.0
H1488 H 0.08231 0.74896 0.30305 0.0
H1489 H 0.13666 0.72683 0.34387 0.0
H1490 H 0.04246 0.72521 0.34229 0.0
H1491 H 0.04742 0.75279 0.34844 0.0
H1492 H 0.04718 0.74332 0.31691 0.0
H1493 H 0.13303 0.70793 0.38168 0.0
H1494 H 0.11634 0.72525 0.39987 0.0
H1495 H 0.10702 0.69924 0.39171 0.0
H1496 H 0.05265 0.75525 0.43062 0.0
H1497 H 0.0364 0.69054 0.41253 0.0
H1498 H 0.07543 0.76955 0.37576 0.0
H1499 H 0.09775 0.75964 0.39281 0.0
H1500 H 0.07756 0.77496 0.40848 0.0
H1501 H 0.05487 0.68963 0.35323 0.0
H1502 H 0.05268 0.67208 0.37956 0.0
H1503 H 0.07834 0.68174 0.36951 0.0
C1504 C 0.33628 0.13192 0.38472 0.0
C1505 C 0.33632 0.15114 0.39805 0.0
C1506 C 0.33305 0.11237 0.39675 0.0
C1507 C 0.32994 0.11204 0.42275 0.0
C1508 C 0.32998 0.13136 0.4363 0.0
C1509 C 0.33329 0.15066 0.4238 0.0
C1510 C 0.3332 0.09207 0.38171 0.0
C1511 C 0.32674 0.13164 0.46404 0.0
C1512 C 0.30337 0.06442 0.4531 0.0
C1513 C 0.32087 0.05359 0.46323 0.0
C1514 C 0.30612 0.08327 0.43951 0.0
C1515 C 0.32687 0.09147 0.43591 0.0
C1516 C 0.34465 0.0804 0.44562 0.0
C1517 C 0.34143 0.0616 0.45918 0.0
C1518 C 0.28678 0.09464 0.42942 0.0
C1519 C 0.36703 0.08863 0.44209 0.0
H1520 H 0.33899 0.13222 0.36487 0.0
H1521 H 0.33365 0.16544 0.4342 0.0
H1522 H 0.34618 0.08149 0.38825 0.0
H1523 H 0.318 0.08336 0.38434 0.0
H1524 H 0.33546 0.09512 0.3616 0.0
H1525 H 0.32685 0.14806 0.47176 0.0
H1526 H 0.31134 0.12401 0.46879 0.0
H1527 H 0.33948 0.1223 0.47324 0.0
H1528 H 0.28742 0.05836 0.45609 0.0
H1529 H 0.35506 0.05332 0.46687 0.0
H1530 H 0.28843 0.097 0.40913 0.0
H1531 H 0.28547 0.11065 0.43801 0.0
H1532 H 0.27181 0.08575 0.43304 0.0
H1533 H 0.37039 0.09088 0.42207 0.0
H1534 H 0.37919 0.0777 0.44995 0.0
H1535 H 0.36871 0.10442 0.45115 0.0
C1536 C 0.6485 0.77074 0.89981 0.0
C1537 C 0.66695 0.77946 0.91052 0.0
C1538 C 0.62896 0.77112 0.91243 0.0
C1539 C 0.62795 0.77973 0.93667 0.0
C1540 C 0.64655 0.78822 0.94774 0.0
C1541 C 0.66576 0.78812 0.93446 0.0
C1542 C 0.60939 0.76221 0.89985 0.0
C1543 C 0.64623 0.7971 0.97377 0.0
C1544 C 0.57474 0.79713 0.96346 0.0
C1545 C 0.56898 0.77929 0.97759 0.0
C1546 C 0.59373 0.79736 0.94972 0.0
C1547 C 0.60751 0.77953 0.95063 0.0
C1548 C 0.60184 0.76154 0.96503 0.0
C1549 C 0.58251 0.76154 0.9781 0.0
C1550 C 0.59899 0.81663 0.93415 0.0
C1551 C 0.61633 0.74241 0.9669 0.0
H1552 H 0.64928 0.76358 0.88155 0.0
H1553 H 0.68005 0.79451 0.94295 0.0
H1554 H 0.60332 0.74833 0.9104 0.0
H1555 H 0.59656 0.77436 0.8996 0.0
H1556 H 0.61262 0.75709 0.88049 0.0
H1557 H 0.66212 0.80294 0.97977 0.0
H1558 H 0.63472 0.81045 0.97501 0.0
H1559 H 0.64086 0.78463 0.98693 0.0
H1560 H 0.56425 0.81083 0.96288 0.0
H1561 H 0.57819 0.74779 0.98915 0.0
H1562 H 0.60142 0.81178 0.91456 0.0
H1563 H 0.61408 0.82391 0.94067 0.0
H1564 H 0.58627 0.8289 0.93483 0.0
H1565 H 0.61894 0.73543 0.94826 0.0
H1566 H 0.60976 0.72987 0.97924 0.0
H1567 H 0.63211 0.74736 0.97414 0.0
C1568 C 0.23845 0.58108 0.83403 0.0
C1569 C 0.22842 0.60105 0.83451 0.0
C1570 C 0.24016 0.56864 0.85554 0.0
C1571 C 0.23183 0.57645 0.87816 0.0
C1572 C 0.22186 0.59667 0.87887 0.0
C1573 C 0.21996 0.60857 0.85698 0.0
C1574 C 0.25044 0.54694 0.85393 0.0
C1575 C 0.21296 0.60563 0.90272 0.0
C1576 C 0.21556 0.53816 0.92909 0.0
C1577 C 0.23299 0.53935 0.94527 0.0
C1578 C 0.21527 0.54969 0.90685 0.0
C1579 C 0.23264 0.56311 0.90091 0.0
C1580 C 0.2504 0.56423 0.91705 0.0
C1581 C 0.25047 0.55212 0.93896 0.0
C1582 C 0.19624 0.54771 0.88986 0.0
C1583 C 0.26903 0.57865 0.91153 0.0
H1584 H 0.24466 0.57508 0.81662 0.0
H1585 H 0.21177 0.62375 0.8575 0.0
H1586 H 0.26387 0.54585 0.86723 0.0
H1587 H 0.23873 0.53449 0.85915 0.0
H1588 H 0.2565 0.54338 0.83503 0.0
H1589 H 0.20696 0.62216 0.90046 0.0
H1590 H 0.19968 0.59547 0.90933 0.0
H1591 H 0.22538 0.60556 0.91735 0.0
H1592 H 0.20209 0.52816 0.93382 0.0
H1593 H 0.26391 0.55318 0.95152 0.0
H1594 H 0.20149 0.54328 0.8709 0.0
H1595 H 0.18798 0.56328 0.88848 0.0
H1596 H 0.18465 0.53561 0.89647 0.0
H1597 H 0.27585 0.57477 0.89311 0.0
H1598 H 0.28181 0.57735 0.92569 0.0
H1599 H 0.26355 0.59545 0.9108 0.0
C1600 C 0.37755 0.22948 0.89548 0.0
C1601 C 0.35971 0.22138 0.90804 0.0
C1602 C 0.39784 0.22906 0.90641 0.0
C1603 C 0.40025 0.22099 0.93076 0.0
C1604 C 0.38227 0.21317 0.94369 0.0
C1605 C 0.36227 0.21337 0.93212 0.0
C1606 C 0.4167 0.2373 0.89195 0.0
C1607 C 0.38411 0.20485 0.96987 0.0
C1608 C 0.45428 0.20257 0.95408 0.0
C1609 C 0.4611 0.22035 0.9677 0.0
C1610 C 0.43474 0.20276 0.94145 0.0
C1611 C 0.42152 0.22098 0.94292 0.0
C1612 C 0.42836 0.239 0.95659 0.0
C1613 C 0.44818 0.23854 0.96861 0.0
C1614 C 0.42816 0.18341 0.92666 0.0
C1615 C 0.41454 0.25858 0.959 0.0
H1616 H 0.37569 0.23616 0.87709 0.0
H1617 H 0.34846 0.20749 0.94204 0.0
H1618 H 0.42379 0.25118 0.90165 0.0
H1619 H 0.42918 0.22483 0.89079 0.0
H1620 H 0.41229 0.24222 0.87284 0.0
H1621 H 0.36854 0.19955 0.97743 0.0
H1622 H 0.39535 0.19124 0.97046 0.0
H1623 H 0.39063 0.21745 0.98216 0.0
H1624 H 0.46429 0.18853 0.95318 0.0
H1625 H 0.45331 0.25227 0.97925 0.0
H1626 H 0.42449 0.18805 0.90728 0.0
H1627 H 0.41346 0.17644 0.93464 0.0
H1628 H 0.44071 0.17094 0.92638 0.0
H1629 H 0.41076 0.26505 0.94038 0.0
H1630 H 0.42226 0.27131 0.97014 0.0
H1631 H 0.39921 0.25428 0.96792 0.0
C1632 C 0.77201 0.42353 0.86439 0.0
C1633 C 0.76381 0.43449 0.84377 0.0
C1634 C 0.77264 0.4331 0.88791 0.0
C1635 C 0.76565 0.4544 0.89076 0.0
C1636 C 0.75749 0.46559 0.87007 0.0
C1637 C 0.75649 0.45543 0.8469 0.0
C1638 C 0.7811 0.42052 0.90964 0.0
C1639 C 0.75041 0.48851 0.87222 0.0
C1640 C 0.7531 0.47545 0.9553 0.0
C1641 C 0.77241 0.48512 0.96182 0.0
C1642 C 0.75068 0.46523 0.93227 0.0
C1643 C 0.76779 0.46526 0.91517 0.0
C1644 C 0.78716 0.47545 0.9215 0.0
C1645 C 0.78933 0.48499 0.94489 0.0
C1646 C 0.72998 0.45408 0.92642 0.0
C1647 C 0.8056 0.4763 0.90356 0.0
H1648 H 0.77807 0.40748 0.86222 0.0
H1649 H 0.75041 0.46403 0.83097 0.0
H1650 H 0.79611 0.42779 0.91641 0.0
H1651 H 0.76955 0.42095 0.9252 0.0
H1652 H 0.78429 0.40362 0.90475 0.0
H1653 H 0.74412 0.49484 0.85444 0.0
H1654 H 0.73787 0.49004 0.88658 0.0
H1655 H 0.76402 0.49857 0.87817 0.0
H1656 H 0.74005 0.47541 0.96845 0.0
H1657 H 0.80423 0.49264 0.94981 0.0
H1658 H 0.73302 0.43696 0.92271 0.0
H1659 H 0.7228 0.46091 0.9094 0.0
H1660 H 0.71828 0.45541 0.94179 0.0
H1661 H 0.81126 0.45994 0.89944 0.0
H1662 H 0.81919 0.48572 0.91089 0.0
H1663 H 0.80037 0.48345 0.88575 0.0
C1664 C 0.65422 0.16185 0.08699 0.0
C1665 C 0.65167 0.15597 0.1119 0.0
C1666 C 0.6375 0.17133 0.07373 0.0
C1667 C 0.61775 0.17496 0.08567 0.0
C1668 C 0.61529 0.16961 0.111 0.0
C1669 C 0.63225 0.16008 0.12377 0.0
C1670 C 0.64071 0.17675 0.04672 0.0
C1671 C 0.59451 0.1733 0.1244 0.0
C1672 C 0.57772 0.21257 0.05598 0.0
C1673 C 0.56381 0.19824 0.04427 0.0
C1674 C 0.59538 0.20526 0.06951 0.0
C1675 C 0.59925 0.1831 0.07128 0.0
C1676 C 0.58532 0.16857 0.05944 0.0
C1677 C 0.56776 0.1763 0.04614 0.0
C1678 C 0.60985 0.22121 0.08197 0.0
C1679 C 0.58895 0.14481 0.06084 0.0
H1680 H 0.66916 0.15849 0.07773 0.0
H1681 H 0.63019 0.15538 0.14296 0.0
H1682 H 0.63012 0.16671 0.03511 0.0
H1683 H 0.63634 0.19361 0.04323 0.0
H1684 H 0.65742 0.1742 0.04064 0.0
H1685 H 0.59567 0.16965 0.14451 0.0
H1686 H 0.58936 0.19009 0.1222 0.0
H1687 H 0.58192 0.1631 0.11617 0.0
H1688 H 0.57479 0.22955 0.05466 0.0
H1689 H 0.55714 0.1651 0.03712 0.0
H1690 H 0.62636 0.21934 0.07499 0.0
H1691 H 0.61026 0.21824 0.10224 0.0
H1692 H 0.60468 0.23791 0.07876 0.0
H1693 H 0.60489 0.1408 0.05329 0.0
H1694 H 0.57676 0.13565 0.05038 0.0
H1695 H 0.58867 0.13953 0.08046 0.0
C1696 C 0.77291 0.64203 0.13686 0.0
C1697 C 0.76613 0.64177 0.16162 0.0
C1698 C 0.77469 0.62315 0.12313 0.0
C1699 C 0.76943 0.60346 0.13436 0.0
C1700 C 0.76288 0.603 0.15947 0.0
C1701 C 0.76114 0.62219 0.17277 0.0
C1702 C 0.78165 0.62435 0.09635 0.0
C1703 C 0.75719 0.58231 0.17208 0.0
C1704 C 0.75367 0.5604 0.08846 0.0
C1705 C 0.77301 0.54961 0.08509 0.0
C1706 C 0.752 0.57735 0.10535 0.0
C1707 C 0.77007 0.58357 0.11932 0.0
C1708 C 0.78926 0.57194 0.11708 0.0
C1709 C 0.79052 0.55513 0.09995 0.0
C1710 C 0.73123 0.58936 0.10721 0.0
C1711 C 0.8088 0.57793 0.13183 0.0
H1712 H 0.77636 0.65716 0.12804 0.0
H1713 H 0.75544 0.62196 0.19173 0.0
H1714 H 0.79569 0.61397 0.09326 0.0
H1715 H 0.7687 0.61846 0.08414 0.0
H1716 H 0.7858 0.64084 0.09064 0.0
H1717 H 0.7538 0.58451 0.19214 0.0
H1718 H 0.74293 0.57528 0.16311 0.0
H1719 H 0.77036 0.57067 0.17003 0.0
H1720 H 0.74004 0.55624 0.07712 0.0
H1721 H 0.8055 0.54679 0.09762 0.0
H1722 H 0.73331 0.60565 0.0996 0.0
H1723 H 0.72638 0.59107 0.12688 0.0
H1724 H 0.71819 0.58136 0.09686 0.0
H1725 H 0.81497 0.59349 0.12523 0.0
H1726 H 0.82168 0.56589 0.13006 0.0
H1727 H 0.80476 0.5798 0.15174 0.0
C1728 C 0.39428 0.83275 0.13331 0.0
C1729 C 0.37569 0.83802 0.1203 0.0
C1730 C 0.41191 0.82393 0.12107 0.0
C1731 C 0.41097 0.82047 0.09515 0.0
C1732 C 0.39208 0.82534 0.08199 0.0
C1733 C 0.37468 0.83413 0.09471 0.0
C1734 C 0.43176 0.81895 0.13575 0.0
C1735 C 0.39048 0.82192 0.05433 0.0
C1736 C 0.46293 0.82058 0.05922 0.0
C1737 C 0.46648 0.79875 0.05547 0.0
C1738 C 0.44495 0.82783 0.07215 0.0
C1739 C 0.43015 0.81289 0.08159 0.0
C1740 C 0.43366 0.79083 0.078 0.0
C1741 C 0.45179 0.78402 0.06498 0.0
C1742 C 0.44176 0.85149 0.07563 0.0
C1743 C 0.41823 0.77445 0.08785 0.0
H1744 H 0.39518 0.83598 0.15303 0.0
H1745 H 0.36042 0.83846 0.08457 0.0
H1746 H 0.43677 0.80224 0.13243 0.0
H1747 H 0.44498 0.82938 0.12951 0.0
H1748 H 0.42945 0.82131 0.15599 0.0
H1749 H 0.37427 0.82532 0.04712 0.0
H1750 H 0.40199 0.83244 0.04468 0.0
H1751 H 0.39471 0.80525 0.04959 0.0
H1752 H 0.47417 0.83209 0.05196 0.0
H1753 H 0.45439 0.76712 0.06217 0.0
H1754 H 0.44085 0.85535 0.09568 0.0
H1755 H 0.42647 0.85646 0.06711 0.0
H1756 H 0.45481 0.86101 0.06723 0.0
H1757 H 0.41659 0.7762 0.10823 0.0
H1758 H 0.42335 0.75789 0.08367 0.0
H1759 H 0.40224 0.77706 0.07964 0.0
C1760 C 0.2722 0.40019 0.14333 0.0
C1761 C 0.27474 0.4073 0.1678 0.0
C1762 C 0.26579 0.41417 0.1245 0.0
C1763 C 0.26204 0.43587 0.13022 0.0
C1764 C 0.2644 0.44313 0.15493 0.0
C1765 C 0.27073 0.42875 0.17344 0.0
C1766 C 0.26339 0.4058 0.09838 0.0
C1767 C 0.26063 0.46617 0.1617 0.0
C1768 C 0.26682 0.47443 0.07634 0.0
C1769 C 0.24544 0.47736 0.06963 0.0
C1770 C 0.27241 0.46141 0.09645 0.0
C1771 C 0.25624 0.45099 0.11012 0.0
C1772 C 0.23461 0.45427 0.10383 0.0
C1773 C 0.22946 0.46745 0.08369 0.0
C1774 C 0.29565 0.4584 0.10269 0.0
C1775 C 0.21693 0.44338 0.11794 0.0
H1776 H 0.27548 0.38367 0.13886 0.0
H1777 H 0.2729 0.43432 0.19231 0.0
H1778 H 0.24717 0.40928 0.09131 0.0
H1779 H 0.27485 0.41395 0.08594 0.0
H1780 H 0.26617 0.38835 0.09719 0.0
H1781 H 0.26246 0.46911 0.18191 0.0
H1782 H 0.27204 0.47647 0.15158 0.0
H1783 H 0.24438 0.47108 0.15601 0.0
H1784 H 0.27926 0.48209 0.06565 0.0
H1785 H 0.2129 0.46961 0.07866 0.0
H1786 H 0.30017 0.44148 0.0999 0.0
H1787 H 0.29853 0.46225 0.12249 0.0
H1788 H 0.30621 0.46851 0.09111 0.0
H1789 H 0.2183 0.42586 0.11568 0.0
H1790 H 0.20091 0.44843 0.11151 0.0
H1791 H 0.21834 0.44688 0.13804 0.0
C1792 C 0.40721 0.28354 0.13953 0.0
C1793 C 0.41413 0.28526 0.16416 0.0
C1794 C 0.4208 0.27586 0.12093 0.0
C1795 C 0.44188 0.26987 0.12711 0.0
C1796 C 0.44882 0.27108 0.15205 0.0
C1797 C 0.43491 0.27892 0.17026 0.0
C1798 C 0.41286 0.27493 0.09452 0.0
C1799 C 0.47116 0.26483 0.15934 0.0
C1800 C 0.47256 0.23743 0.07945 0.0
C1801 C 0.48431 0.25334 0.06735 0.0
C1802 C 0.45898 0.24247 0.09931 0.0
C1803 C 0.45708 0.26392 0.10715 0.0
C1804 C 0.46921 0.27996 0.09533 0.0
C1805 C 0.48269 0.27448 0.07563 0.0
C1806 C 0.44638 0.22494 0.1116 0.0
C1807 C 0.46759 0.30303 0.10311 0.0
H1808 H 0.39128 0.28872 0.13471 0.0
H1809 H 0.44043 0.28057 0.18921 0.0
H1810 H 0.42194 0.28636 0.08295 0.0
H1811 H 0.4155 0.25882 0.08664 0.0
H1812 H 0.39565 0.27884 0.09307 0.0
H1813 H 0.47348 0.26496 0.17976 0.0
H1814 H 0.47495 0.24868 0.15221 0.0
H1815 H 0.48272 0.27605 0.15089 0.0
H1816 H 0.47374 0.22106 0.07321 0.0
H1817 H 0.49172 0.28689 0.06644 0.0
H1818 H 0.42911 0.22774 0.1088 0.0
H1819 H 0.44932 0.225 0.13189 0.0
H1820 H 0.45045 0.20895 0.10414 0.0
H1821 H 0.45107 0.3088 0.10032 0.0
H1822 H 0.47857 0.31348 0.09249 0.0
H1823 H 0.47128 0.30467 0.12314 0.0
C1824 C 0.7763 0.35757 0.10262 0.0
C1825 C 0.78572 0.34211 0.08738 0.0
C1826 C 0.78065 0.37931 0.09929 0.0
C1827 C 0.79442 0.38575 0.07993 0.0
C1828 C 0.80487 0.37017 0.06535 0.0
C1829 C 0.80073 0.34851 0.06961 0.0
C1830 C 0.76974 0.39541 0.11577 0.0
C1831 C 0.81943 0.37636 0.04428 0.0
C1832 C 0.78205 0.43884 0.04991 0.0
C1833 C 0.79871 0.45172 0.05856 0.0
C1834 C 0.78064 0.41736 0.05664 0.0
C1835 C 0.79592 0.40864 0.07305 0.0
C1836 C 0.81252 0.42168 0.08237 0.0
C1837 C 0.81393 0.44305 0.07465 0.0
C1838 C 0.763 0.40389 0.04577 0.0
C1839 C 0.82869 0.41309 0.10047 0.0
H1840 H 0.7651 0.3527 0.11681 0.0
H1841 H 0.80864 0.33661 0.05835 0.0
H1842 H 0.78131 0.40752 0.12238 0.0
H1843 H 0.7573 0.4039 0.10503 0.0
H1844 H 0.7621 0.38782 0.13209 0.0
H1845 H 0.82756 0.36237 0.03594 0.0
H1846 H 0.81003 0.38443 0.02961 0.0
H1847 H 0.83168 0.38781 0.05074 0.0
H1848 H 0.77041 0.44543 0.0372 0.0
H1849 H 0.82678 0.45303 0.08141 0.0
H1850 H 0.75281 0.3975 0.06081 0.0
H1851 H 0.76988 0.39007 0.03574 0.0
H1852 H 0.75279 0.41299 0.03271 0.0
H1853 H 0.82049 0.40621 0.11683 0.0
H1854 H 0.83996 0.42556 0.10691 0.0
H1855 H 0.83795 0.40005 0.09171 0.0
C1856 C 0.58355 0.71669 0.18667 0.0
C1857 C 0.60484 0.71047 0.18367 0.0
C1858 C 0.57196 0.72529 0.1668 0.0
C1859 C 0.58182 0.72744 0.14333 0.0
C1860 C 0.60352 0.72185 0.14044 0.0
C1861 C 0.61474 0.71337 0.16063 0.0
C1862 C 0.54887 0.73109 0.17063 0.0
C1863 C 0.61459 0.72383 0.1157 0.0
C1864 C 0.54692 0.7229 0.08621 0.0
C1865 C 0.54519 0.74419 0.07859 0.0
C1866 C 0.55869 0.71733 0.10731 0.0
C1867 C 0.56895 0.73344 0.12126 0.0
C1868 C 0.56716 0.755 0.11385 0.0
C1869 C 0.55532 0.76013 0.09254 0.0
C1870 C 0.56027 0.69413 0.11454 0.0
C1871 C 0.57784 0.77259 0.12834 0.0
H1872 H 0.57579 0.71419 0.20438 0.0
H1873 H 0.63111 0.70834 0.15821 0.0
H1874 H 0.54562 0.74727 0.16329 0.0
H1875 H 0.53861 0.71979 0.16024 0.0
H1876 H 0.54423 0.73061 0.1905 0.0
H1877 H 0.63196 0.72068 0.11709 0.0
H1878 H 0.60758 0.71229 0.1024 0.0
H1879 H 0.61221 0.73999 0.1079 0.0
H1880 H 0.53918 0.71045 0.07558 0.0
H1881 H 0.55404 0.77662 0.08681 0.0
H1882 H 0.55417 0.69185 0.13366 0.0
H1883 H 0.57718 0.68903 0.11446 0.0
H1884 H 0.55117 0.68357 0.10183 0.0
H1885 H 0.57234 0.77231 0.14789 0.0
H1886 H 0.57454 0.78859 0.12045 0.0
H1887 H 0.59532 0.77003 0.12857 0.0
C1888 C 0.19348 0.66416 0.0812 0.0
C1889 C 0.20707 0.67584 0.06554 0.0
C1890 C 0.19185 0.64189 0.07916 0.0
C1891 C 0.20358 0.63111 0.0606 0.0
C1892 C 0.21747 0.64272 0.04499 0.0
C1893 C 0.21942 0.6648 0.04808 0.0
C1894 C 0.17756 0.62991 0.0968 0.0
C1895 C 0.23001 0.6319 0.02466 0.0
C1896 C 0.21648 0.57215 0.06057 0.0
C1897 C 0.20136 0.56428 0.04381 0.0
C1898 C 0.21635 0.59364 0.06775 0.0
C1899 C 0.2013 0.6077 0.05707 0.0
C1900 C 0.18548 0.59961 0.04086 0.0
C1901 C 0.18549 0.57786 0.03475 0.0
C1902 C 0.23298 0.60148 0.0858 0.0
C1903 C 0.16953 0.61415 0.02854 0.0
H1904 H 0.18411 0.6723 0.09513 0.0
H1905 H 0.23041 0.67354 0.03643 0.0
H1906 H 0.16433 0.62233 0.08641 0.0
H1907 H 0.18662 0.61696 0.106 0.0
H1908 H 0.17067 0.64044 0.11129 0.0
H1909 H 0.23937 0.64339 0.01341 0.0
H1910 H 0.24112 0.62009 0.03277 0.0
H1911 H 0.21906 0.62312 0.01214 0.0
H1912 H 0.2287 0.56158 0.06764 0.0
H1913 H 0.17395 0.57178 0.02155 0.0
H1914 H 0.22568 0.61206 0.09993 0.0
H1915 H 0.24514 0.61093 0.07576 0.0
H1916 H 0.24113 0.58812 0.09541 0.0
H1917 H 0.16139 0.62422 0.04251 0.0
H1918 H 0.1573 0.60516 0.01792 0.0
H1919 H 0.17796 0.625 0.0156 0.0
C1920 C 0.39585 0.7398 0.88319 0.0
C1921 C 0.40341 0.73495 0.85937 0.0
C1922 C 0.40998 0.74395 0.90277 0.0
C1923 C 0.4322 0.743 0.89848 0.0
C1924 C 0.43992 0.73832 0.87443 0.0
C1925 C 0.42543 0.73425 0.8552 0.0
C1926 C 0.40113 0.74882 0.92818 0.0
C1927 C 0.4635 0.73709 0.86917 0.0
C1928 C 0.46938 0.76854 0.94556 0.0
C1929 C 0.47568 0.75086 0.95968 0.0
C1930 C 0.4553 0.76624 0.9255 0.0
C1931 C 0.44734 0.74579 0.91944 0.0
C1932 C 0.45374 0.72788 0.93351 0.0
C1933 C 0.46783 0.73063 0.95343 0.0
C1934 C 0.44882 0.78569 0.91088 0.0
C1935 C 0.44559 0.7058 0.92763 0.0
H1936 H 0.37884 0.73999 0.88658 0.0
H1937 H 0.43133 0.73018 0.83691 0.0
H1938 H 0.40584 0.73609 0.94135 0.0
H1939 H 0.40786 0.76399 0.93526 0.0
H1940 H 0.38349 0.75007 0.92813 0.0
H1941 H 0.46691 0.73437 0.8492 0.0
H1942 H 0.47146 0.75204 0.87507 0.0
H1943 H 0.47068 0.7239 0.88001 0.0
H1944 H 0.47535 0.78424 0.95026 0.0
H1945 H 0.47258 0.71687 0.96422 0.0
H1946 H 0.43131 0.78785 0.91191 0.0
H1947 H 0.45297 0.78352 0.89104 0.0
H1948 H 0.45664 0.80043 0.91777 0.0
H1949 H 0.42798 0.70546 0.92912 0.0
H1950 H 0.45226 0.69352 0.94025 0.0
H1951 H 0.44972 0.70147 0.90828 0.0
C1952 C 0.18123 0.37896 0.89531 0.0
C1953 C 0.18069 0.35908 0.90718 0.0
C1954 C 0.18459 0.39778 0.90883 0.0
C1955 C 0.18731 0.39671 0.93486 0.0
C1956 C 0.18662 0.37672 0.94697 0.0
C1957 C 0.18322 0.35815 0.93299 0.0
C1958 C 0.18514 0.4188 0.89526 0.0
C1959 C 0.18943 0.37495 0.9747 0.0
C1960 C 0.2152 0.44296 0.9666 0.0
C1961 C 0.19797 0.45456 0.97622 0.0
C1962 C 0.21195 0.42404 0.95326 0.0
C1963 C 0.19098 0.41652 0.94939 0.0
C1964 C 0.17351 0.42806 0.95917 0.0
C1965 C 0.17722 0.44693 0.97249 0.0
C1966 C 0.23098 0.41216 0.94315 0.0
C1967 C 0.15091 0.42053 0.95539 0.0
H1968 H 0.1789 0.37977 0.87542 0.0
H1969 H 0.18245 0.34286 0.94226 0.0
H1970 H 0.17256 0.4295 0.90256 0.0
H1971 H 0.20065 0.42681 0.89846 0.0
H1972 H 0.18277 0.41688 0.87497 0.0
H1973 H 0.18855 0.3582 0.98126 0.0
H1974 H 0.20506 0.3817 0.98023 0.0
H1975 H 0.17696 0.38436 0.98431 0.0
H1976 H 0.2313 0.44869 0.9694 0.0
H1977 H 0.16382 0.45578 0.97984 0.0
H1978 H 0.22987 0.41107 0.92266 0.0
H1979 H 0.23116 0.39563 0.95043 0.0
H1980 H 0.24628 0.41997 0.94808 0.0
H1981 H 0.14726 0.41972 0.93528 0.0
H1982 H 0.13911 0.43118 0.96444 0.0
H1983 H 0.14897 0.40423 0.96298 0.0
C1984 C 0.62564 0.26312 0.8628 0.0
C1985 C 0.61572 0.26697 0.83992 0.0
C1986 C 0.61362 0.25823 0.88396 0.0
C1987 C 0.59114 0.25753 0.88229 0.0
C1988 C 0.58105 0.26118 0.85921 0.0
C1989 C 0.59347 0.26593 0.83832 0.0
C1990 C 0.62495 0.25443 0.90826 0.0
C1991 C 0.55711 0.26073 0.85674 0.0
C1992 C 0.5595 0.2307 0.93356 0.0
C1993 C 0.55321 0.24824 0.94795 0.0
C1994 C 0.57194 0.23345 0.91217 0.0
C1995 C 0.57813 0.25422 0.90497 0.0
C1996 C 0.57183 0.27197 0.9194 0.0
C1997 C 0.55949 0.26876 0.94074 0.0
C1998 C 0.57847 0.21415 0.89728 0.0
C1999 C 0.57805 0.29439 0.91226 0.0
H2000 H 0.6428 0.26436 0.86424 0.0
H2001 H 0.58575 0.26929 0.82077 0.0
H2002 H 0.62074 0.2672 0.92163 0.0
H2003 H 0.61975 0.23909 0.91648 0.0
H2004 H 0.64253 0.25414 0.90608 0.0
H2005 H 0.5518 0.26277 0.83724 0.0
H2006 H 0.55072 0.24544 0.86387 0.0
H2007 H 0.55004 0.27367 0.8681 0.0
H2008 H 0.55476 0.21478 0.93903 0.0
H2009 H 0.55468 0.28242 0.95171 0.0
H2010 H 0.59608 0.2133 0.89606 0.0
H2011 H 0.57231 0.21549 0.87806 0.0
H2012 H 0.57249 0.19906 0.90547 0.0
H2013 H 0.59564 0.29581 0.91155 0.0
H2014 H 0.57182 0.30647 0.92547 0.0
H2015 H 0.57192 0.29812 0.89347 0.0
C2016 C 0.84574 0.62117 0.9005 0.0
C2017 C 0.84893 0.64225 0.90831 0.0
C2018 C 0.84198 0.60487 0.91768 0.0
C2019 C 0.84161 0.60972 0.94331 0.0
C2020 C 0.84572 0.63079 0.95139 0.0
C2021 C 0.84938 0.64683 0.93376 0.0
C2022 C 0.83769 0.58258 0.90833 0.0
C2023 C 0.8456 0.63652 0.97858 0.0
C2024 C 0.80741 0.57319 0.9824 0.0
C2025 C 0.82254 0.55916 0.99238 0.0
C2026 C 0.81352 0.59005 0.96698 0.0
C2027 C 0.83532 0.59303 0.9614 0.0
C2028 C 0.85077 0.57938 0.97201 0.0
C2029 C 0.8442 0.56256 0.98739 0.0
C2030 C 0.79654 0.60427 0.95604 0.0
C2031 C 0.87417 0.58218 0.96654 0.0
H2032 H 0.84578 0.61753 0.88085 0.0
H2033 H 0.85222 0.66304 0.93985 0.0
H2034 H 0.8485 0.57106 0.91752 0.0
H2035 H 0.82115 0.57789 0.91304 0.0
H2036 H 0.83978 0.58122 0.88794 0.0
H2037 H 0.85075 0.65321 0.98189 0.0
H2038 H 0.82932 0.63448 0.98617 0.0
H2039 H 0.85625 0.62568 0.98907 0.0
H2040 H 0.79065 0.57079 0.98624 0.0
H2041 H 0.85599 0.55182 0.99507 0.0
H2042 H 0.79642 0.60258 0.93556 0.0
H2043 H 0.80006 0.62121 0.96029 0.0
H2044 H 0.7804 0.60043 0.96316 0.0
H2045 H 0.8772 0.57905 0.9466 0.0
H2046 H 0.88428 0.57127 0.9777 0.0
H2047 H 0.87912 0.59883 0.97033 0.0
loop_
_geom_bond_atom_site_label_1
_geom_bond_atom_site_label_2
_geom_bond_distance
_geom_bond_site_symmetry_2
_ccdc_geom_bond_type
C0 C1 1.560 . S
C0 H61 0.959 . S
C0 H62 0.959 . S
C0 H63 0.960 . S
C1 C0 1.560 . S
C1 O56 1.426 . S
C1 H60 0.980 . S
C2 C3 1.407 . S
C2 C7 1.418 . S
C2 O56 1.334 . S
C3 C2 1.407 . S
C3 C4 1.360 . S
C3 H64 0.929 . S
C4 C3 1.360 . S
C4 C5 1.401 . S
C4 C8 1.527 . S
C5 C4 1.401 . S
C5 C6 1.405 . S
C5 C38 1.587 . S
C6 C5 1.405 . S
C6 C7 1.332 . S
C6 C9 1.496 . S
C7 C2 1.418 . S
C7 C6 1.332 . S
C7 H65 0.929 . S
C8 C4 1.527 . S
C8 H66 0.959 . S
C8 H67 0.961 . S
C8 H68 0.961 . S
C9 C6 1.496 . S
C9 H69 0.960 . S
C9 H70 0.960 . S
C9 H71 0.961 . S
C10 C11 1.517 . S
C10 H73 0.961 . S
C10 H74 0.960 . S
C10 H75 0.959 . S
C11 C10 1.517 . S
C11 O59 1.468 . S
C11 H72 0.980 . S
C12 C13 1.349 . S
C12 C17 1.367 . S
C12 O59 1.408 . S
C13 C12 1.349 . S
C13 C14 1.407 . S
C13 H76 0.930 . S
C14 C13 1.407 . S
C14 C15 1.449 . S
C14 C18 1.535 . S
C15 C14 1.449 . S
C15 C16 1.384 . S
C15 C40 1.553 . S
C16 C15 1.384 . S
C16 C17 1.364 . S
C16 C19 1.450 . S
C17 C12 1.367 . S
C17 C16 1.364 . S
C17 H77 0.931 . S
C18 C14 1.535 . S
C18 H78 0.959 . S
C18 H79 0.961 . S
C18 H80 0.959 . S
C19 C16 1.450 . S
C19 H81 0.960 . S
C19 H82 0.960 . S
C19 H83 0.960 . S
C20 C21 1.309 . S
C20 C25 1.304 . S
C20 O58 1.435 . S
C21 C20 1.309 . S
C21 C22 1.476 . S
C21 H85 0.930 . S
C22 C21 1.476 . S
C22 C23 1.400 . S
C22 C26 1.567 . S
C23 C22 1.400 . S
C23 C24 1.373 . S
C23 C45 1.432 . S
C24 C23 1.373 . S
C24 C25 1.339 . S
C24 C27 1.530 . S
C25 C20 1.304 . S
C25 C24 1.339 . S
C25 H86 0.930 . S
C26 C22 1.567 . S
C26 H87 0.961 . S
C26 H88 0.960 . S
C26 H89 0.958 . S
C27 C24 1.530 . S
C27 H90 0.961 . S
C27 H91 0.960 . S
C27 H92 0.960 . S
C28 C29 1.530 . S
C28 H94 0.961 . S
C28 H95 0.961 . S
C28 H96 0.959 . S
C29 C28 1.530 . S
C29 O57 1.412 . S
C29 H93 0.980 . S
C30 C31 1.288 . S
C30 C35 1.377 . S
C30 O57 1.393 . S
C31 C30 1.288 . S
C31 C32 1.369 . S
C31 H97 0.932 . S
C32 C31 1.369 . S
C32 C33 1.398 . S
C32 C36 1.527 . S
C33 C32 1.398 . S
C33 C34 1.380 . S
C33 C47 1.497 . S
C34 C33 1.380 . S
C34 C35 1.383 . S
C34 C37 1.603 . S
C35 C30 1.377 . S
C35 C34 1.383 . S
C35 H98 0.929 . S
C36 C32 1.527 . S
C36 H99 0.961 . S
C36 H100 0.959 . S
C36 H101 0.959 . S
C37 C34 1.603 . S
C37 H102 0.960 . S
C37 H103 0.962 . S
C37 H104 0.961 . S
C38 C5 1.587 . S
C38 C39 1.360 . S
C38 C51 1.412 . S
C39 C38 1.360 . S
C39 C40 1.365 . S
C39 H105 0.929 . S
C40 C15 1.553 . S
C40 C39 1.365 . S
C40 C41 1.404 . S
C41 C40 1.404 . S
C41 C42 1.395 . S
C41 C52 1.451 . S
C42 C41 1.395 . S
C42 C43 1.322 . S
C42 H106 0.930 . S
C43 C42 1.322 . S
C43 C44 1.459 . S
C43 H107 0.929 . S
C44 C43 1.459 . S
C44 C45 1.445 . S
C44 C53 1.395 . S
C45 C23 1.432 . S
C45 C44 1.445 . S
C45 C46 1.370 . S
C46 C45 1.370 . S
C46 C47 1.438 . S
C46 H108 0.930 . S
C47 C33 1.497 . S
C47 C46 1.438 . S
C47 C48 1.360 . S
C48 C47 1.360 . S
C48 C49 1.401 . S
C48 C53 1.446 . S
C49 C48 1.401 . S
C49 C50 1.347 . S
C49 H109 0.929 . S
C50 C49 1.347 . S
C50 C51 1.455 . S
C50 H110 0.930 . S
C51 C38 1.412 . S
C51 C50 1.455 . S
C51 C52 1.331 . S
C52 C41 1.451 . S
C52 C51 1.331 . S
C52 C53 1.497 . S
C53 C44 1.395 . S
C53 C48 1.446 . S
C53 C52 1.497 . S
C54 C55 1.582 . S
C54 H111 0.962 . S
C54 H112 0.959 . S
C54 H113 0.958 . S
C55 C54 1.582 . S
C55 O58 1.458 . S
C55 H84 0.980 . S
O56 C1 1.426 . S
O56 C2 1.334 . S
O57 C29 1.412 . S
O57 C30 1.393 . S
O58 C20 1.435 . S
O58 C55 1.458 . S
O59 C11 1.468 . S
O59 C12 1.408 . S
H60 C1 0.980 . S
H61 C0 0.959 . S
H62 C0 0.959 . S
H63 C0 0.960 . S
H64 C3 0.929 . S
H65 C7 0.929 . S
H66 C8 0.959 . S
H67 C8 0.961 . S
H68 C8 0.961 . S
H69 C9 0.960 . S
H70 C9 0.960 . S
H71 C9 0.961 . S
H72 C11 0.980 . S
H73 C10 0.961 . S
H74 C10 0.960 . S
H75 C10 0.959 . S
H76 C13 0.930 . S
H77 C17 0.931 . S
H78 C18 0.959 . S
H79 C18 0.961 . S
H80 C18 0.959 . S
H81 C19 0.960 . S
H82 C19 0.960 . S
H83 C19 0.960 . S
H84 C55 0.980 . S
H85 C21 0.930 . S
H86 C25 0.930 . S
H87 C26 0.961 . S
H88 C26 0.960 . S
H89 C26 0.958 . S
H90 C27 0.961 . S
H91 C27 0.960 . S
H92 C27 0.960 . S
H93 C29 0.980 . S
H94 C28 0.961 . S
H95 C28 0.961 . S
H96 C28 0.959 . S
H97 C31 0.932 . S
H98 C35 0.929 . S
H99 C36 0.961 . S
H100 C36 0.959 . S
H101 C36 0.959 . S
H102 C37 0.960 . S
H103 C37 0.962 . S
H104 C37 0.961 . S
H105 C39 0.929 . S
H106 C42 0.930 . S
H107 C43 0.929 . S
H108 C46 0.930 . S
H109 C49 0.929 . S
H110 C50 0.930 . S
H111 C54 0.962 . S
H112 C54 0.959 . S
H113 C54 0.958 . S
C114 C115 1.560 . S
C114 H175 0.959 . S
C114 H176 0.959 . S
C114 H177 0.960 . S
C115 C114 1.560 . S
C115 O170 1.426 . S
C115 H174 0.980 . S
C116 C117 1.407 . S
C116 C121 1.418 . S
C116 O170 1.334 . S
C117 C116 1.407 . S
C117 C118 1.360 . S
C117 H178 0.929 . S
C118 C117 1.360 . S
C118 C119 1.401 . S
C118 C122 1.527 . S
C119 C118 1.401 . S
C119 C120 1.405 . S
C119 C152 1.587 . S
C120 C119 1.405 . S
C120 C121 1.332 . S
C120 C123 1.496 . S
C121 C116 1.418 . S
C121 C120 1.332 . S
C121 H179 0.929 . S
C122 C118 1.527 . S
C122 H180 0.959 . S
C122 H181 0.961 . S
C122 H182 0.961 . S
C123 C120 1.496 . S
C123 H183 0.960 . S
C123 H184 0.960 . S
C123 H185 0.961 . S
C124 C125 1.517 . S
C124 H187 0.961 . S
C124 H188 0.960 . S
C124 H189 0.959 . S
C125 C124 1.517 . S
C125 O173 1.468 . S
C125 H186 0.980 . S
C126 C127 1.349 . S
C126 C131 1.367 . S
C126 O173 1.408 . S
C127 C126 1.349 . S
C127 C128 1.407 . S
C127 H190 0.930 . S
C128 C127 1.407 . S
C128 C129 1.449 . S
C128 C132 1.535 . S
C129 C128 1.449 . S
C129 C130 1.384 . S
C129 C154 1.553 . S
C130 C129 1.384 . S
C130 C131 1.364 . S
C130 C133 1.450 . S
C131 C126 1.367 . S
C131 C130 1.364 . S
C131 H191 0.931 . S
C132 C128 1.535 . S
C132 H192 0.959 . S
C132 H193 0.961 . S
C132 H194 0.959 . S
C133 C130 1.450 . S
C133 H195 0.960 . S
C133 H196 0.960 . S
C133 H197 0.960 . S
C134 C135 1.309 . S
C134 C139 1.304 . S
C134 O172 1.435 . S
C135 C134 1.309 . S
C135 C136 1.476 . S
C135 H199 0.930 . S
C136 C135 1.476 . S
C136 C137 1.400 . S
C136 C140 1.567 . S
C137 C136 1.400 . S
C137 C138 1.373 . S
C137 C159 1.432 . S
C138 C137 1.373 . S
C138 C139 1.339 . S
C138 C141 1.530 . S
C139 C134 1.304 . S
C139 C138 1.339 . S
C139 H200 0.930 . S
C140 C136 1.567 . S
C140 H201 0.961 . S
C140 H202 0.960 . S
C140 H203 0.958 . S
C141 C138 1.530 . S
C141 H204 0.961 . S
C141 H205 0.960 . S
C141 H206 0.960 . S
C142 C143 1.530 . S
C142 H208 0.961 . S
C142 H209 0.961 . S
C142 H210 0.959 . S
C143 C142 1.530 . S
C143 O171 1.412 . S
C143 H207 0.980 . S
C144 C145 1.288 . S
C144 C149 1.377 . S
C144 O171 1.393 . S
C145 C144 1.288 . S
C145 C146 1.369 . S
C145 H211 0.932 . S
C146 C145 1.369 . S
C146 C147 1.398 . S
C146 C150 1.527 . S
C147 C146 1.398 . S
C147 C148 1.380 . S
C147 C161 1.497 . S
C148 C147 1.380 . S
C148 C149 1.383 . S
C148 C151 1.603 . S
C149 C144 1.377 . S
C149 C148 1.383 . S
C149 H212 0.929 . S
C150 C146 1.527 . S
C150 H213 0.961 . S
C150 H214 0.959 . S
C150 H215 0.959 . S
C151 C148 1.603 . S
C151 H216 0.960 . S
C151 H217 0.962 . S
C151 H218 0.961 . S
C152 C119 1.587 . S
C152 C153 1.360 . S
C152 C165 1.412 . S
C153 C152 1.360 . S
C153 C154 1.365 . S
C153 H219 0.929 . S
C154 C129 1.553 . S
C154 C153 1.365 . S
C154 C155 1.404 . S
C155 C154 1.404 . S
C155 C156 1.395 . S
C155 C166 1.451 . S
C156 C155 1.395 . S
C156 C157 1.322 . S
C156 H220 0.930 . S
C157 C156 1.322 . S
C157 C158 1.459 . S
C157 H221 0.929 . S
C158 C157 1.459 . S
C158 C159 1.445 . S
C158 C167 1.395 . S
C159 C137 1.432 . S
C159 C158 1.445 . S
C159 C160 1.370 . S
C160 C159 1.370 . S
C160 C161 1.438 . S
C160 H222 0.930 . S
C161 C147 1.497 . S
C161 C160 1.438 . S
C161 C162 1.360 . S
C162 C161 1.360 . S
C162 C163 1.401 . S
C162 C167 1.446 . S
C163 C162 1.401 . S
C163 C164 1.347 . S
C163 H223 0.929 . S
C164 C163 1.347 . S
C164 C165 1.455 . S
C164 H224 0.930 . S
C165 C152 1.412 . S
C165 C164 1.455 . S
C165 C166 1.331 . S
C166 C155 1.451 . S
C166 C165 1.331 . S
C166 C167 1.497 . S
C167 C158 1.395 . S
C167 C162 1.446 . S
C167 C166 1.497 . S
C168 C169 1.582 . S
C168 H225 0.962 . S
C168 H226 0.959 . S
C168 H227 0.958 . S
C169 C168 1.582 . S
C169 O172 1.458 . S
C169 H198 0.980 . S
O170 C115 1.426 . S
O170 C116 1.334 . S
O171 C143 1.412 . S
O171 C144 1.393 . S
O172 C134 1.435 . S
O172 C169 1.458 . S
O173 C125 1.468 . S
O173 C126 1.408 . S
H174 C115 0.980 . S
H175 C114 0.959 . S
H176 C114 0.959 . S
H177 C114 0.960 . S
H178 C117 0.929 . S
H179 C121 0.929 . S
H180 C122 0.959 . S
H181 C122 0.961 . S
H182 C122 0.961 . S
H183 C123 0.960 . S
H184 C123 0.960 . S
H185 C123 0.961 . S
H186 C125 0.980 . S
H187 C124 0.961 . S
H188 C124 0.960 . S
H189 C124 0.959 . S
H190 C127 0.930 . S
H191 C131 0.931 . S
H192 C132 0.959 . S
H193 C132 0.961 . S
H194 C132 0.959 . S
H195 C133 0.960 . S
H196 C133 0.960 . S
H197 C133 0.960 . S
H198 C169 0.980 . S
H199 C135 0.930 . S
H200 C139 0.930 . S
H201 C140 0.961 . S
H202 C140 0.960 . S
H203 C140 0.958 . S
H204 C141 0.961 . S
H205 C141 0.960 . S
H206 C141 0.960 . S
H207 C143 0.980 . S
H208 C142 0.961 . S
H209 C142 0.961 . S
H210 C142 0.959 . S
H211 C145 0.932 . S
H212 C149 0.929 . S
H213 C150 0.961 . S
H214 C150 0.959 . S
H215 C150 0.959 . S
H216 C151 0.960 . S
H217 C151 0.962 . S
H218 C151 0.961 . S
H219 C153 0.929 . S
H220 C156 0.930 . S
H221 C157 0.929 . S
H222 C160 0.930 . S
H223 C163 0.929 . S
H224 C164 0.930 . S
H225 C168 0.962 . S
H226 C168 0.959 . S
H227 C168 0.958 . S
C228 C229 1.560 . S
C228 H289 0.959 . S
C228 H290 0.959 . S
C228 H291 0.960 . S
C229 C228 1.560 . S
C229 O284 1.426 . S
C229 H288 0.980 . S
C230 C231 1.407 . S
C230 C235 1.418 . S
C230 O284 1.334 . S
C231 C230 1.407 . S
C231 C232 1.360 . S
C231 H292 0.929 . S
C232 C231 1.360 . S
C232 C233 1.401 . S
C232 C236 1.527 . S
C233 C232 1.401 . S
C233 C234 1.405 . S
C233 C266 1.587 . S
C234 C233 1.405 . S
C234 C235 1.332 . S
C234 C237 1.496 . S
C235 C230 1.418 . S
C235 C234 1.332 . S
C235 H293 0.929 . S
C236 C232 1.527 . S
C236 H294 0.959 . S
C236 H295 0.961 . S
C236 H296 0.961 . S
C237 C234 1.496 . S
C237 H297 0.960 . S
C237 H298 0.960 . S
C237 H299 0.961 . S
C238 C239 1.517 . S
C238 H301 0.961 . S
C238 H302 0.960 . S
C238 H303 0.959 . S
C239 C238 1.517 . S
C239 O287 1.468 . S
C239 H300 0.980 . S
C240 C241 1.349 . S
C240 C245 1.367 . S
C240 O287 1.408 . S
C241 C240 1.349 . S
C241 C242 1.407 . S
C241 H304 0.930 . S
C242 C241 1.407 . S
C242 C243 1.449 . S
C242 C246 1.535 . S
C243 C242 1.449 . S
C243 C244 1.384 . S
C243 C268 1.553 . S
C244 C243 1.384 . S
C244 C245 1.364 . S
C244 C247 1.450 . S
C245 C240 1.367 . S
C245 C244 1.364 . S
C245 H305 0.931 . S
C246 C242 1.535 . S
C246 H306 0.959 . S
C246 H307 0.961 . S
C246 H308 0.959 . S
C247 C244 1.450 . S
C247 H309 0.960 . S
C247 H310 0.960 . S
C247 H311 0.960 . S
C248 C249 1.309 . S
C248 C253 1.304 . S
C248 O286 1.435 . S
C249 C248 1.309 . S
C249 C250 1.476 . S
C249 H313 0.930 . S
C250 C249 1.476 . S
C250 C251 1.400 . S
C250 C254 1.567 . S
C251 C250 1.400 . S
C251 C252 1.373 . S
C251 C273 1.432 . S
C252 C251 1.373 . S
C252 C253 1.339 . S
C252 C255 1.530 . S
C253 C248 1.304 . S
C253 C252 1.339 . S
C253 H314 0.930 . S
C254 C250 1.567 . S
C254 H315 0.961 . S
C254 H316 0.960 . S
C254 H317 0.958 . S
C255 C252 1.530 . S
C255 H318 0.961 . S
C255 H319 0.960 . S
C255 H320 0.960 . S
C256 C257 1.530 . S
C256 H322 0.961 . S
C256 H323 0.961 . S
C256 H324 0.959 . S
C257 C256 1.530 . S
C257 O285 1.412 . S
C257 H321 0.980 . S
C258 C259 1.288 . S
C258 C263 1.377 . S
C258 O285 1.393 . S
C259 C258 1.288 . S
C259 C260 1.369 . S
C259 H325 0.932 . S
C260 C259 1.369 . S
C260 C261 1.398 . S
C260 C264 1.527 . S
C261 C260 1.398 . S
C261 C262 1.380 . S
C261 C275 1.497 . S
C262 C261 1.380 . S
C262 C263 1.383 . S
C262 C265 1.603 . S
C263 C258 1.377 . S
C263 C262 1.383 . S
C263 H326 0.929 . S
C264 C260 1.527 . S
C264 H327 0.961 . S
C264 H328 0.959 . S
C264 H329 0.959 . S
C265 C262 1.603 . S
C265 H330 0.960 . S
C265 H331 0.962 . S
C265 H332 0.961 . S
C266 C233 1.587 . S
C266 C267 1.360 . S
C266 C279 1.412 . S
C267 C266 1.360 . S
C267 C268 1.365 . S
C267 H333 0.929 . S
C268 C243 1.553 . S
C268 C267 1.365 . S
C268 C269 1.404 . S
C269 C268 1.404 . S
C269 C270 1.395 . S
C269 C280 1.451 . S
C270 C269 1.395 . S
C270 C271 1.322 . S
C270 H334 0.930 . S
C271 C270 1.322 . S
C271 C272 1.459 . S
C271 H335 0.929 . S
C272 C271 1.459 . S
C272 C273 1.445 . S
C272 C281 1.395 . S
C273 C251 1.432 . S
C273 C272 1.445 . S
C273 C274 1.370 . S
C274 C273 1.370 . S
C274 C275 1.438 . S
C274 H336 0.930 . S
C275 C261 1.497 . S
C275 C274 1.438 . S
C275 C276 1.360 . S
C276 C275 1.360 . S
C276 C277 1.401 . S
C276 C281 1.446 . S
C277 C276 1.401 . S
C277 C278 1.347 . S
C277 H337 0.929 . S
C278 C277 1.347 . S
C278 C279 1.455 . S
C278 H338 0.930 . S
C279 C266 1.412 . S
C279 C278 1.455 . S
C279 C280 1.331 . S
C280 C269 1.451 . S
C280 C279 1.331 . S
C280 C281 1.497 . S
C281 C272 1.395 . S
C281 C276 1.446 . S
C281 C280 1.497 . S
C282 C283 1.582 . S
C282 H339 0.962 . S
C282 H340 0.959 . S
C282 H341 0.958 . S
C283 C282 1.582 . S
C283 O286 1.458 . S
C283 H312 0.980 . S
O284 C229 1.426 . S
O284 C230 1.334 . S
O285 C257 1.412 . S
O285 C258 1.393 . S
O286 C248 1.435 . S
O286 C283 1.458 . S
O287 C239 1.468 . S
O287 C240 1.408 . S
H288 C229 0.980 . S
H289 C228 0.959 . S
H290 C228 0.959 . S
H291 C228 0.960 . S
H292 C231 0.929 . S
H293 C235 0.929 . S
H294 C236 0.959 . S
H295 C236 0.961 . S
H296 C236 0.961 . S
H297 C237 0.960 . S
H298 C237 0.960 . S
H299 C237 0.961 . S
H300 C239 0.980 . S
H301 C238 0.961 . S
H302 C238 0.960 . S
H303 C238 0.959 . S
H304 C241 0.930 . S
H305 C245 0.931 . S
H306 C246 0.959 . S
H307 C246 0.961 . S
H308 C246 0.959 . S
H309 C247 0.960 . S
H310 C247 0.960 . S
H311 C247 0.960 . S
H312 C283 0.980 . S
H313 C249 0.930 . S
H314 C253 0.930 . S
H315 C254 0.961 . S
H316 C254 0.960 . S
H317 C254 0.958 . S
H318 C255 0.961 . S
H319 C255 0.960 . S
H320 C255 0.960 . S
H321 C257 0.980 . S
H322 C256 0.961 . S
H323 C256 0.961 . S
H324 C256 0.959 . S
H325 C259 0.932 . S
H326 C263 0.929 . S
H327 C264 0.961 . S
H328 C264 0.959 . S
H329 C264 0.959 . S
H330 C265 0.960 . S
H331 C265 0.962 . S
H332 C265 0.961 . S
H333 C267 0.929 . S
H334 C270 0.930 . S
H335 C271 0.929 . S
H336 C274 0.930 . S
H337 C277 0.929 . S
H338 C278 0.930 . S
H339 C282 0.962 . S
H340 C282 0.959 . S
H341 C282 0.958 . S
C342 C343 1.560 . S
C342 H403 0.959 . S
C342 H404 0.959 . S
C342 H405 0.960 . S
C343 C342 1.560 . S
C343 O398 1.426 . S
C343 H402 0.980 . S
C344 C345 1.407 . S
C344 C349 1.418 . S
C344 O398 1.334 . S
C345 C344 1.407 . S
C345 C346 1.360 . S
C345 H406 0.929 . S
C346 C345 1.360 . S
C346 C347 1.401 . S
C346 C350 1.527 . S
C347 C346 1.401 . S
C347 C348 1.405 . S
C347 C380 1.587 . S
C348 C347 1.405 . S
C348 C349 1.332 . S
C348 C351 1.496 . S
C349 C344 1.418 . S
C349 C348 1.332 . S
C349 H407 0.929 . S
C350 C346 1.527 . S
C350 H408 0.959 . S
C350 H409 0.961 . S
C350 H410 0.961 . S
C351 C348 1.496 . S
C351 H411 0.960 . S
C351 H412 0.960 . S
C351 H413 0.961 . S
C352 C353 1.517 . S
C352 H415 0.961 . S
C352 H416 0.960 . S
C352 H417 0.959 . S
C353 C352 1.517 . S
C353 O401 1.468 . S
C353 H414 0.980 . S
C354 C355 1.349 . S
C354 C359 1.367 . S
C354 O401 1.408 . S
C355 C354 1.349 . S
C355 C356 1.407 . S
C355 H418 0.930 . S
C356 C355 1.407 . S
C356 C357 1.449 . S
C356 C360 1.535 . S
C357 C356 1.449 . S
C357 C358 1.384 . S
C357 C382 1.553 . S
C358 C357 1.384 . S
C358 C359 1.364 . S
C358 C361 1.450 . S
C359 C354 1.367 . S
C359 C358 1.364 . S
C359 H419 0.931 . S
C360 C356 1.535 . S
C360 H420 0.959 . S
C360 H421 0.961 . S
C360 H422 0.959 . S
C361 C358 1.450 . S
C361 H423 0.960 . S
C361 H424 0.960 . S
C361 H425 0.960 . S
C362 C363 1.309 . S
C362 C367 1.304 . S
C362 O400 1.435 . S
C363 C362 1.309 . S
C363 C364 1.476 . S
C363 H427 0.930 . S
C364 C363 1.476 . S
C364 C365 1.400 . S
C364 C368 1.567 . S
C365 C364 1.400 . S
C365 C366 1.373 . S
C365 C387 1.432 . S
C366 C365 1.373 . S
C366 C367 1.339 . S
C366 C369 1.530 . S
C367 C362 1.304 . S
C367 C366 1.339 . S
C367 H428 0.930 . S
C368 C364 1.567 . S
C368 H429 0.961 . S
C368 H430 0.960 . S
C368 H431 0.958 . S
C369 C366 1.530 . S
C369 H432 0.961 . S
C369 H433 0.960 . S
C369 H434 0.960 . S
C370 C371 1.530 . S
C370 H436 0.961 . S
C370 H437 0.961 . S
C370 H438 0.959 . S
C371 C370 1.530 . S
C371 O399 1.412 . S
C371 H435 0.980 . S
C372 C373 1.288 . S
C372 C377 1.377 . S
C372 O399 1.393 . S
C373 C372 1.288 . S
C373 C374 1.369 . S
C373 H439 0.932 . S
C374 C373 1.369 . S
C374 C375 1.398 . S
C374 C378 1.527 . S
C375 C374 1.398 . S
C375 C376 1.380 . S
C375 C389 1.497 . S
C376 C375 1.380 . S
C376 C377 1.383 . S
C376 C379 1.603 . S
C377 C372 1.377 . S
C377 C376 1.383 . S
C377 H440 0.929 . S
C378 C374 1.527 . S
C378 H441 0.961 . S
C378 H442 0.959 . S
C378 H443 0.959 . S
C379 C376 1.603 . S
C379 H444 0.960 . S
C379 H445 0.962 . S
C379 H446 0.961 . S
C380 C347 1.587 . S
C380 C381 1.360 . S
C380 C393 1.412 . S
C381 C380 1.360 . S
C381 C382 1.365 . S
C381 H447 0.929 . S
C382 C357 1.553 . S
C382 C381 1.365 . S
C382 C383 1.404 . S
C383 C382 1.404 . S
C383 C384 1.395 . S
C383 C394 1.451 . S
C384 C383 1.395 . S
C384 C385 1.322 . S
C384 H448 0.930 . S
C385 C384 1.322 . S
C385 C386 1.459 . S
C385 H449 0.929 . S
C386 C385 1.459 . S
C386 C387 1.445 . S
C386 C395 1.395 . S
C387 C365 1.432 . S
C387 C386 1.445 . S
C387 C388 1.370 . S
C388 C387 1.370 . S
C388 C389 1.438 . S
C388 H450 0.930 . S
C389 C375 1.497 . S
C389 C388 1.438 . S
C389 C390 1.360 . S
C390 C389 1.360 . S
C390 C391 1.401 . S
C390 C395 1.446 . S
C391 C390 1.401 . S
C391 C392 1.347 . S
C391 H451 0.929 . S
C392 C391 1.347 . S
C392 C393 1.455 . S
C392 H452 0.930 . S
C393 C380 1.412 . S
C393 C392 1.455 . S
C393 C394 1.331 . S
C394 C383 1.451 . S
C394 C393 1.331 . S
C394 C395 1.497 . S
C395 C386 1.395 . S
C395 C390 1.446 . S
C395 C394 1.497 . S
C396 C397 1.582 . S
C396 H453 0.962 . S
C396 H454 0.959 . S
C396 H455 0.958 . S
C397 C396 1.582 . S
C397 O400 1.458 . S
C397 H426 0.980 . S
O398 C343 1.426 . S
O398 C344 1.334 . S
O399 C371 1.412 . S
O399 C372 1.393 . S
O400 C362 1.435 . S
O400 C397 1.458 . S
O401 C353 1.468 . S
O401 C354 1.408 . S
H402 C343 0.980 . S
H403 C342 0.959 . S
H404 C342 0.959 . S
H405 C342 0.960 . S
H406 C345 0.929 . S
H407 C349 0.929 . S
H408 C350 0.959 . S
H409 C350 0.961 . S
H410 C350 0.961 . S
H411 C351 0.960 . S
H412 C351 0.960 . S
H413 C351 0.961 . S
H414 C353 0.980 . S
H415 C352 0.961 . S
H416 C352 0.960 . S
H417 C352 0.959 . S
H418 C355 0.930 . S
H419 C359 0.931 . S
H420 C360 0.959 . S
H421 C360 0.961 . S
H422 C360 0.959 . S
H423 C361 0.960 . S
H424 C361 0.960 . S
H425 C361 0.960 . S
H426 C397 0.980 . S
H427 C363 0.930 . S
H428 C367 0.930 . S
H429 C368 0.961 . S
H430 C368 0.960 . S
H431 C368 0.958 . S
H432 C369 0.961 . S
H433 C369 0.960 . S
H434 C369 0.960 . S
H435 C371 0.980 . S
H436 C370 0.961 . S
H437 C370 0.961 . S
H438 C370 0.959 . S
H439 C373 0.932 . S
H440 C377 0.929 . S
H441 C378 0.961 . S
H442 C378 0.959 . S
H443 C378 0.959 . S
H444 C379 0.960 . S
H445 C379 0.962 . S
H446 C379 0.961 . S
H447 C381 0.929 . S
H448 C384 0.930 . S
H449 C385 0.929 . S
H450 C388 0.930 . S
H451 C391 0.929 . S
H452 C392 0.930 . S
H453 C396 0.962 . S
H454 C396 0.959 . S
H455 C396 0.958 . S
C456 C457 1.560 . S
C456 H517 0.959 . S
C456 H518 0.959 . S
C456 H519 0.960 . S
C457 C456 1.560 . S
C457 O512 1.426 . S
C457 H516 0.980 . S
C458 C459 1.407 . S
C458 C463 1.418 . S
C458 O512 1.334 . S
C459 C458 1.407 . S
C459 C460 1.360 . S
C459 H520 0.929 . S
C460 C459 1.360 . S
C460 C461 1.401 . S
C460 C464 1.527 . S
C461 C460 1.401 . S
C461 C462 1.405 . S
C461 C494 1.587 . S
C462 C461 1.405 . S
C462 C463 1.332 . S
C462 C465 1.496 . S
C463 C458 1.418 . S
C463 C462 1.332 . S
C463 H521 0.929 . S
C464 C460 1.527 . S
C464 H522 0.959 . S
C464 H523 0.961 . S
C464 H524 0.961 . S
C465 C462 1.496 . S
C465 H525 0.960 . S
C465 H526 0.960 . S
C465 H527 0.961 . S
C466 C467 1.517 . S
C466 H529 0.961 . S
C466 H530 0.960 . S
C466 H531 0.959 . S
C467 C466 1.517 . S
C467 O515 1.468 . S
C467 H528 0.980 . S
C468 C469 1.349 . S
C468 C473 1.367 . S
C468 O515 1.408 . S
C469 C468 1.349 . S
C469 C470 1.407 . S
C469 H532 0.930 . S
C470 C469 1.407 . S
C470 C471 1.449 . S
C470 C474 1.535 . S
C471 C470 1.449 . S
C471 C472 1.384 . S
C471 C496 1.553 . S
C472 C471 1.384 . S
C472 C473 1.364 . S
C472 C475 1.450 . S
C473 C468 1.367 . S
C473 C472 1.364 . S
C473 H533 0.931 . S
C474 C470 1.535 . S
C474 H534 0.959 . S
C474 H535 0.961 . S
C474 H536 0.959 . S
C475 C472 1.450 . S
C475 H537 0.960 . S
C475 H538 0.960 . S
C475 H539 0.960 . S
C476 C477 1.309 . S
C476 C481 1.304 . S
C476 O514 1.435 . S
C477 C476 1.309 . S
C477 C478 1.476 . S
C477 H541 0.930 . S
C478 C477 1.476 . S
C478 C479 1.400 . S
C478 C482 1.567 . S
C479 C478 1.400 . S
C479 C480 1.373 . S
C479 C501 1.432 . S
C480 C479 1.373 . S
C480 C481 1.339 . S
C480 C483 1.530 . S
C481 C476 1.304 . S
C481 C480 1.339 . S
C481 H542 0.930 . S
C482 C478 1.567 . S
C482 H543 0.961 . S
C482 H544 0.960 . S
C482 H545 0.958 . S
C483 C480 1.530 . S
C483 H546 0.961 . S
C483 H547 0.960 . S
C483 H548 0.960 . S
C484 C485 1.530 . S
C484 H550 0.961 . S
C484 H551 0.961 . S
C484 H552 0.959 . S
C485 C484 1.530 . S
C485 O513 1.412 . S
C485 H549 0.980 . S
C486 C487 1.288 . S
C486 C491 1.377 . S
C486 O513 1.393 . S
C487 C486 1.288 . S
C487 C488 1.369 . S
C487 H553 0.932 . S
C488 C487 1.369 . S
C488 C489 1.398 . S
C488 C492 1.527 . S
C489 C488 1.398 . S
C489 C490 1.380 . S
C489 C503 1.497 . S
C490 C489 1.380 . S
C490 C491 1.383 . S
C490 C493 1.603 . S
C491 C486 1.377 . S
C491 C490 1.383 . S
C491 H554 0.929 . S
C492 C488 1.527 . S
C492 H555 0.961 . S
C492 H556 0.959 . S
C492 H557 0.959 . S
C493 C490 1.603 . S
C493 H558 0.960 . S
C493 H559 0.962 . S
C493 H560 0.961 . S
C494 C461 1.587 . S
C494 C495 1.360 . S
C494 C507 1.412 . S
C495 C494 1.360 . S
C495 C496 1.365 . S
C495 H561 0.929 . S
C496 C471 1.553 . S
C496 C495 1.365 . S
C496 C497 1.404 . S
C497 C496 1.404 . S
C497 C498 1.395 . S
C497 C508 1.451 . S
C498 C497 1.395 . S
C498 C499 1.322 . S
C498 H562 0.930 . S
C499 C498 1.322 . S
C499 C500 1.459 . S
C499 H563 0.929 . S
C500 C499 1.459 . S
C500 C501 1.445 . S
C500 C509 1.395 . S
C501 C479 1.432 . S
C501 C500 1.445 . S
C501 C502 1.370 . S
C502 C501 1.370 . S
C502 C503 1.438 . S
C502 H564 0.930 . S
C503 C489 1.497 . S
C503 C502 1.438 . S
C503 C504 1.360 . S
C504 C503 1.360 . S
C504 C505 1.401 . S
C504 C509 1.446 . S
C505 C504 1.401 . S
C505 C506 1.347 . S
C505 H565 0.929 . S
C506 C505 1.347 . S
C506 C507 1.455 . S
C506 H566 0.930 . S
C507 C494 1.412 . S
C507 C506 1.455 . S
C507 C508 1.331 . S
C508 C497 1.451 . S
C508 C507 1.331 . S
C508 C509 1.497 . S
C509 C500 1.395 . S
C509 C504 1.446 . S
C509 C508 1.497 . S
C510 C511 1.582 . S
C510 H567 0.962 . S
C510 H568 0.959 . S
C510 H569 0.958 . S
C511 C510 1.582 . S
C511 O514 1.458 . S
C511 H540 0.980 . S
O512 C457 1.426 . S
O512 C458 1.334 . S
O513 C485 1.412 . S
O513 C486 1.393 . S
O514 C476 1.435 . S
O514 C511 1.458 . S
O515 C467 1.468 . S
O515 C468 1.408 . S
H516 C457 0.980 . S
H517 C456 0.959 . S
H518 C456 0.959 . S
H519 C456 0.960 . S
H520 C459 0.929 . S
H521 C463 0.929 . S
H522 C464 0.959 . S
H523 C464 0.961 . S
H524 C464 0.961 . S
H525 C465 0.960 . S
H526 C465 0.960 . S
H527 C465 0.961 . S
H528 C467 0.980 . S
H529 C466 0.961 . S
H530 C466 0.960 . S
H531 C466 0.959 . S
H532 C469 0.930 . S
H533 C473 0.931 . S
H534 C474 0.959 . S
H535 C474 0.961 . S
H536 C474 0.959 . S
H537 C475 0.960 . S
H538 C475 0.960 . S
H539 C475 0.960 . S
H540 C511 0.980 . S
H541 C477 0.930 . S
H542 C481 0.930 . S
H543 C482 0.961 . S
H544 C482 0.960 . S
H545 C482 0.958 . S
H546 C483 0.961 . S
H547 C483 0.960 . S
H548 C483 0.960 . S
H549 C485 0.980 . S
H550 C484 0.961 . S
H551 C484 0.961 . S
H552 C484 0.959 . S
H553 C487 0.932 . S
H554 C491 0.929 . S
H555 C492 0.961 . S
H556 C492 0.959 . S
H557 C492 0.959 . S
H558 C493 0.960 . S
H559 C493 0.962 . S
H560 C493 0.961 . S
H561 C495 0.929 . S
H562 C498 0.930 . S
H563 C499 0.929 . S
H564 C502 0.930 . S
H565 C505 0.929 . S
H566 C506 0.930 . S
H567 C510 0.962 . S
H568 C510 0.959 . S
H569 C510 0.958 . S
C570 C571 1.560 . S
C570 H631 0.959 . S
C570 H632 0.959 . S
C570 H633 0.960 . S
C571 C570 1.560 . S
C571 O626 1.426 . S
C571 H630 0.980 . S
C572 C573 1.407 . S
C572 C577 1.418 . S
C572 O626 1.334 . S
C573 C572 1.407 . S
C573 C574 1.360 . S
C573 H634 0.929 . S
C574 C573 1.360 . S
C574 C575 1.401 . S
C574 C578 1.527 . S
C575 C574 1.401 . S
C575 C576 1.405 . S
C575 C608 1.587 . S
C576 C575 1.405 . S
C576 C577 1.332 . S
C576 C579 1.496 . S
C577 C572 1.418 . S
C577 C576 1.332 . S
C577 H635 0.929 . S
C578 C574 1.527 . S
C578 H636 0.959 . S
C578 H637 0.961 . S
C578 H638 0.961 . S
C579 C576 1.496 . S
C579 H639 0.960 . S
C579 H640 0.960 . S
C579 H641 0.961 . S
C580 C581 1.517 . S
C580 H643 0.961 . S
C580 H644 0.960 . S
C580 H645 0.959 . S
C581 C580 1.517 . S
C581 O629 1.468 . S
C581 H642 0.980 . S
C582 C583 1.349 . S
C582 C587 1.367 . S
C582 O629 1.408 . S
C583 C582 1.349 . S
C583 C584 1.407 . S
C583 H646 0.930 . S
C584 C583 1.407 . S
C584 C585 1.449 . S
C584 C588 1.535 . S
C585 C584 1.449 . S
C585 C586 1.384 . S
C585 C610 1.553 . S
C586 C585 1.384 . S
C586 C587 1.364 . S
C586 C589 1.450 . S
C587 C582 1.367 . S
C587 C586 1.364 . S
C587 H647 0.931 . S
C588 C584 1.535 . S
C588 H648 0.959 . S
C588 H649 0.961 . S
C588 H650 0.959 . S
C589 C586 1.450 . S
C589 H651 0.960 . S
C589 H652 0.960 . S
C589 H653 0.960 . S
C590 C591 1.309 . S
C590 C595 1.304 . S
C590 O628 1.435 . S
C591 C590 1.309 . S
C591 C592 1.476 . S
C591 H655 0.930 . S
C592 C591 1.476 . S
C592 C593 1.400 . S
C592 C596 1.567 . S
C593 C592 1.400 . S
C593 C594 1.373 . S
C593 C615 1.432 . S
C594 C593 1.373 . S
C594 C595 1.339 . S
C594 C597 1.530 . S
C595 C590 1.304 . S
C595 C594 1.339 . S
C595 H656 0.930 . S
C596 C592 1.567 . S
C596 H657 0.961 . S
C596 H658 0.960 . S
C596 H659 0.958 . S
C597 C594 1.530 . S
C597 H660 0.961 . S
C597 H661 0.960 . S
C597 H662 0.960 . S
C598 C599 1.530 . S
C598 H664 0.961 . S
C598 H665 0.961 . S
C598 H666 0.959 . S
C599 C598 1.530 . S
C599 O627 1.412 . S
C599 H663 0.980 . S
C600 C601 1.288 . S
C600 C605 1.377 . S
C600 O627 1.393 . S
C601 C600 1.288 . S
C601 C602 1.369 . S
C601 H667 0.932 . S
C602 C601 1.369 . S
C602 C603 1.398 . S
C602 C606 1.527 . S
C603 C602 1.398 . S
C603 C604 1.380 . S
C603 C617 1.497 . S
C604 C603 1.380 . S
C604 C605 1.383 . S
C604 C607 1.603 . S
C605 C600 1.377 . S
C605 C604 1.383 . S
C605 H668 0.929 . S
C606 C602 1.527 . S
C606 H669 0.961 . S
C606 H670 0.959 . S
C606 H671 0.959 . S
C607 C604 1.603 . S
C607 H672 0.960 . S
C607 H673 0.962 . S
C607 H674 0.961 . S
C608 C575 1.587 . S
C608 C609 1.360 . S
C608 C621 1.412 . S
C609 C608 1.360 . S
C609 C610 1.365 . S
C609 H675 0.929 . S
C610 C585 1.553 . S
C610 C609 1.365 . S
C610 C611 1.404 . S
C611 C610 1.404 . S
C611 C612 1.395 . S
C611 C622 1.451 . S
C612 C611 1.395 . S
C612 C613 1.322 . S
C612 H676 0.930 . S
C613 C612 1.322 . S
C613 C614 1.459 . S
C613 H677 0.929 . S
C614 C613 1.459 . S
C614 C615 1.445 . S
C614 C623 1.395 . S
C615 C593 1.432 . S
C615 C614 1.445 . S
C615 C616 1.370 . S
C616 C615 1.370 . S
C616 C617 1.438 . S
C616 H678 0.930 . S
C617 C603 1.497 . S
C617 C616 1.438 . S
C617 C618 1.360 . S
C618 C617 1.360 . S
C618 C619 1.401 . S
C618 C623 1.446 . S
C619 C618 1.401 . S
C619 C620 1.347 . S
C619 H679 0.929 . S
C620 C619 1.347 . S
C620 C621 1.455 . S
C620 H680 0.930 . S
C621 C608 1.412 . S
C621 C620 1.455 . S
C621 C622 1.331 . S
C622 C611 1.451 . S
C622 C621 1.331 . S
C622 C623 1.497 . S
C623 C614 1.395 . S
C623 C618 1.446 . S
C623 C622 1.497 . S
C624 C625 1.582 . S
C624 H681 0.962 . S
C624 H682 0.959 . S
C624 H683 0.958 . S
C625 C624 1.582 . S
C625 O628 1.458 . S
C625 H654 0.980 . S
O626 C571 1.426 . S
O626 C572 1.334 . S
O627 C599 1.412 . S
O627 C600 1.393 . S
O628 C590 1.435 . S
O628 C625 1.458 . S
O629 C581 1.468 . S
O629 C582 1.408 . S
H630 C571 0.980 . S
H631 C570 0.959 . S
H632 C570 0.959 . S
H633 C570 0.960 . S
H634 C573 0.929 . S
H635 C577 0.929 . S
H636 C578 0.959 . S
H637 C578 0.961 . S
H638 C578 0.961 . S
H639 C579 0.960 . S
H640 C579 0.960 . S
H641 C579 0.961 . S
H642 C581 0.980 . S
H643 C580 0.961 . S
H644 C580 0.960 . S
H645 C580 0.959 . S
H646 C583 0.930 . S
H647 C587 0.931 . S
H648 C588 0.959 . S
H649 C588 0.961 . S
H650 C588 0.959 . S
H651 C589 0.960 . S
H652 C589 0.960 . S
H653 C589 0.960 . S
H654 C625 0.980 . S
H655 C591 0.930 . S
H656 C595 0.930 . S
H657 C596 0.961 . S
H658 C596 0.960 . S
H659 C596 0.958 . S
H660 C597 0.961 . S
H661 C597 0.960 . S
H662 C597 0.960 . S
H663 C599 0.980 . S
H664 C598 0.961 . S
H665 C598 0.961 . S
H666 C598 0.959 . S
H667 C601 0.932 . S
H668 C605 0.929 . S
H669 C606 0.961 . S
H670 C606 0.959 . S
H671 C606 0.959 . S
H672 C607 0.960 . S
H673 C607 0.962 . S
H674 C607 0.961 . S
H675 C609 0.929 . S
H676 C612 0.930 . S
H677 C613 0.929 . S
H678 C616 0.930 . S
H679 C619 0.929 . S
H680 C620 0.930 . S
H681 C624 0.962 . S
H682 C624 0.959 . S
H683 C624 0.958 . S
C684 C685 1.560 . S
C684 H745 0.959 . S
C684 H746 0.959 . S
C684 H747 0.960 . S
C685 C684 1.560 . S
C685 O740 1.426 . S
C685 H744 0.980 . S
C686 C687 1.407 . S
C686 C691 1.418 . S
C686 O740 1.334 . S
C687 C686 1.407 . S
C687 C688 1.360 . S
C687 H748 0.929 . S
C688 C687 1.360 . S
C688 C689 1.401 . S
C688 C692 1.527 . S
C689 C688 1.401 . S
C689 C690 1.405 . S
C689 C722 1.587 . S
C690 C689 1.405 . S
C690 C691 1.332 . S
C690 C693 1.496 . S
C691 C686 1.418 . S
C691 C690 1.332 . S
C691 H749 0.929 . S
C692 C688 1.527 . S
C692 H750 0.959 . S
C692 H751 0.961 . S
C692 H752 0.961 . S
C693 C690 1.496 . S
C693 H753 0.960 . S
C693 H754 0.960 . S
C693 H755 0.961 . S
C694 C695 1.517 . S
C694 H757 0.961 . S
C694 H758 0.960 . S
C694 H759 0.959 . S
C695 C694 1.517 . S
C695 O743 1.468 . S
C695 H756 0.980 . S
C696 C697 1.349 . S
C696 C701 1.367 . S
C696 O743 1.408 . S
C697 C696 1.349 . S
C697 C698 1.407 . S
C697 H760 0.930 . S
C698 C697 1.407 . S
C698 C699 1.449 . S
C698 C702 1.535 . S
C699 C698 1.449 . S
C699 C700 1.384 . S
C699 C724 1.553 . S
C700 C699 1.384 . S
C700 C701 1.364 . S
C700 C703 1.450 . S
C701 C696 1.367 . S
C701 C700 1.364 . S
C701 H761 0.931 . S
C702 C698 1.535 . S
C702 H762 0.959 . S
C702 H763 0.961 . S
C702 H764 0.959 . S
C703 C700 1.450 . S
C703 H765 0.960 . S
C703 H766 0.960 . S
C703 H767 0.960 . S
C704 C705 1.309 . S
C704 C709 1.304 . S
C704 O742 1.435 . S
C705 C704 1.309 . S
C705 C706 1.476 . S
C705 H769 0.930 . S
C706 C705 1.476 . S
C706 C707 1.400 . S
C706 C710 1.567 . S
C707 C706 1.400 . S
C707 C708 1.373 . S
C707 C729 1.432 . S
C708 C707 1.373 . S
C708 C709 1.339 . S
C708 C711 1.530 . S
C709 C704 1.304 . S
C709 C708 1.339 . S
C709 H770 0.930 . S
C710 C706 1.567 . S
C710 H771 0.961 . S
C710 H772 0.960 . S
C710 H773 0.958 . S
C711 C708 1.530 . S
C711 H774 0.961 . S
C711 H775 0.960 . S
C711 H776 0.960 . S
C712 C713 1.530 . S
C712 H778 0.961 . S
C712 H779 0.961 . S
C712 H780 0.959 . S
C713 C712 1.530 . S
C713 O741 1.412 . S
C713 H777 0.980 . S
C714 C715 1.288 . S
C714 C719 1.377 . S
C714 O741 1.393 . S
C715 C714 1.288 . S
C715 C716 1.369 . S
C715 H781 0.932 . S
C716 C715 1.369 . S
C716 C717 1.398 . S
C716 C720 1.527 . S
C717 C716 1.398 . S
C717 C718 1.380 . S
C717 C731 1.497 . S
C718 C717 1.380 . S
C718 C719 1.383 . S
C718 C721 1.603 . S
C719 C714 1.377 . S
C719 C718 1.383 . S
C719 H782 0.929 . S
C720 C716 1.527 . S
C720 H783 0.961 . S
C720 H784 0.959 . S
C720 H785 0.959 . S
C721 C718 1.603 . S
C721 H786 0.960 . S
C721 H787 0.962 . S
C721 H788 0.961 . S
C722 C689 1.587 . S
C722 C723 1.360 . S
C722 C735 1.412 . S
C723 C722 1.360 . S
C723 C724 1.365 . S
C723 H789 0.929 . S
C724 C699 1.553 . S
C724 C723 1.365 . S
C724 C725 1.404 . S
C725 C724 1.404 . S
C725 C726 1.395 . S
C725 C736 1.451 . S
C726 C725 1.395 . S
C726 C727 1.322 . S
C726 H790 0.930 . S
C727 C726 1.322 . S
C727 C728 1.459 . S
C727 H791 0.929 . S
C728 C727 1.459 . S
C728 C729 1.445 . S
C728 C737 1.395 . S
C729 C707 1.432 . S
C729 C728 1.445 . S
C729 C730 1.370 . S
C730 C729 1.370 . S
C730 C731 1.438 . S
C730 H792 0.930 . S
C731 C717 1.497 . S
C731 C730 1.438 . S
C731 C732 1.360 . S
C732 C731 1.360 . S
C732 C733 1.401 . S
C732 C737 1.446 . S
C733 C732 1.401 . S
C733 C734 1.347 . S
C733 H793 0.929 . S
C734 C733 1.347 . S
C734 C735 1.455 . S
C734 H794 0.930 . S
C735 C722 1.412 . S
C735 C734 1.455 . S
C735 C736 1.331 . S
C736 C725 1.451 . S
C736 C735 1.331 . S
C736 C737 1.497 . S
C737 C728 1.395 . S
C737 C732 1.446 . S
C737 C736 1.497 . S
C738 C739 1.582 . S
C738 H795 0.962 . S
C738 H796 0.959 . S
C738 H797 0.958 . S
C739 C738 1.582 . S
C739 O742 1.458 . S
C739 H768 0.980 . S
O740 C685 1.426 . S
O740 C686 1.334 . S
O741 C713 1.412 . S
O741 C714 1.393 . S
O742 C704 1.435 . S
O742 C739 1.458 . S
O743 C695 1.468 . S
O743 C696 1.408 . S
H744 C685 0.980 . S
H745 C684 0.959 . S
H746 C684 0.959 . S
H747 C684 0.960 . S
H748 C687 0.929 . S
H749 C691 0.929 . S
H750 C692 0.959 . S
H751 C692 0.961 . S
H752 C692 0.961 . S
H753 C693 0.960 . S
H754 C693 0.960 . S
H755 C693 0.961 . S
H756 C695 0.980 . S
H757 C694 0.961 . S
H758 C694 0.960 . S
H759 C694 0.959 . S
H760 C697 0.930 . S
H761 C701 0.931 . S
H762 C702 0.959 . S
H763 C702 0.961 . S
H764 C702 0.959 . S
H765 C703 0.960 . S
H766 C703 0.960 . S
H767 C703 0.960 . S
H768 C739 0.980 . S
H769 C705 0.930 . S
H770 C709 0.930 . S
H771 C710 0.961 . S
H772 C710 0.960 . S
H773 C710 0.958 . S
H774 C711 0.961 . S
H775 C711 0.960 . S
H776 C711 0.960 . S
H777 C713 0.980 . S
H778 C712 0.961 . S
H779 C712 0.961 . S
H780 C712 0.959 . S
H781 C715 0.932 . S
H782 C719 0.929 . S
H783 C720 0.961 . S
H784 C720 0.959 . S
H785 C720 0.959 . S
H786 C721 0.960 . S
H787 C721 0.962 . S
H788 C721 0.961 . S
H789 C723 0.929 . S
H790 C726 0.930 . S
H791 C727 0.929 . S
H792 C730 0.930 . S
H793 C733 0.929 . S
H794 C734 0.930 . S
H795 C738 0.962 . S
H796 C738 0.959 . S
H797 C738 0.958 . S
C798 C799 1.560 . S
C798 H859 0.959 . S
C798 H860 0.959 . S
C798 H861 0.960 . S
C799 C798 1.560 . S
C799 O854 1.426 . S
C799 H858 0.980 . S
C800 C801 1.407 . S
C800 C805 1.418 . S
C800 O854 1.334 . S
C801 C800 1.407 . S
C801 C802 1.360 . S
C801 H862 0.929 . S
C802 C801 1.360 . S
C802 C803 1.401 . S
C802 C806 1.527 . S
C803 C802 1.401 . S
C803 C804 1.405 . S
C803 C836 1.587 . S
C804 C803 1.405 . S
C804 C805 1.332 . S
C804 C807 1.496 . S
C805 C800 1.418 . S
C805 C804 1.332 . S
C805 H863 0.929 . S
C806 C802 1.527 . S
C806 H864 0.959 . S
C806 H865 0.961 . S
C806 H866 0.961 . S
C807 C804 1.496 . S
C807 H867 0.960 . S
C807 H868 0.960 . S
C807 H869 0.961 . S
C808 C809 1.517 . S
C808 H871 0.961 . S
C808 H872 0.960 . S
C808 H873 0.959 . S
C809 C808 1.517 . S
C809 O857 1.468 . S
C809 H870 0.980 . S
C810 C811 1.349 . S
C810 C815 1.367 . S
C810 O857 1.408 . S
C811 C810 1.349 . S
C811 C812 1.407 . S
C811 H874 0.930 . S
C812 C811 1.407 . S
C812 C813 1.449 . S
C812 C816 1.535 . S
C813 C812 1.449 . S
C813 C814 1.384 . S
C813 C838 1.553 . S
C814 C813 1.384 . S
C814 C815 1.364 . S
C814 C817 1.450 . S
C815 C810 1.367 . S
C815 C814 1.364 . S
C815 H875 0.931 . S
C816 C812 1.535 . S
C816 H876 0.959 . S
C816 H877 0.961 . S
C816 H878 0.959 . S
C817 C814 1.450 . S
C817 H879 0.960 . S
C817 H880 0.960 . S
C817 H881 0.960 . S
C818 C819 1.309 . S
C818 C823 1.304 . S
C818 O856 1.435 . S
C819 C818 1.309 . S
C819 C820 1.476 . S
C819 H883 0.930 . S
C820 C819 1.476 . S
C820 C821 1.400 . S
C820 C824 1.567 . S
C821 C820 1.400 . S
C821 C822 1.373 . S
C821 C843 1.432 . S
C822 C821 1.373 . S
C822 C823 1.339 . S
C822 C825 1.530 . S
C823 C818 1.304 . S
C823 C822 1.339 . S
C823 H884 0.930 . S
C824 C820 1.567 . S
C824 H885 0.961 . S
C824 H886 0.960 . S
C824 H887 0.958 . S
C825 C822 1.530 . S
C825 H888 0.961 . S
C825 H889 0.960 . S
C825 H890 0.960 . S
C826 C827 1.530 . S
C826 H892 0.961 . S
C826 H893 0.961 . S
C826 H894 0.959 . S
C827 C826 1.530 . S
C827 O855 1.412 . S
C827 H891 0.980 . S
C828 C829 1.288 . S
C828 C833 1.377 . S
C828 O855 1.393 . S
C829 C828 1.288 . S
C829 C830 1.369 . S
C829 H895 0.932 . S
C830 C829 1.369 . S
C830 C831 1.398 . S
C830 C834 1.527 . S
C831 C830 1.398 . S
C831 C832 1.380 . S
C831 C845 1.497 . S
C832 C831 1.380 . S
C832 C833 1.383 . S
C832 C835 1.603 . S
C833 C828 1.377 . S
C833 C832 1.383 . S
C833 H896 0.929 . S
C834 C830 1.527 . S
C834 H897 0.961 . S
C834 H898 0.959 . S
C834 H899 0.959 . S
C835 C832 1.603 . S
C835 H900 0.960 . S
C835 H901 0.962 . S
C835 H902 0.961 . S
C836 C803 1.587 . S
C836 C837 1.360 . S
C836 C849 1.412 . S
C837 C836 1.360 . S
C837 C838 1.365 . S
C837 H903 0.929 . S
C838 C813 1.553 . S
C838 C837 1.365 . S
C838 C839 1.404 . S
C839 C838 1.404 . S
C839 C840 1.395 . S
C839 C850 1.451 . S
C840 C839 1.395 . S
C840 C841 1.322 . S
C840 H904 0.930 . S
C841 C840 1.322 . S
C841 C842 1.459 . S
C841 H905 0.929 . S
C842 C841 1.459 . S
C842 C843 1.445 . S
C842 C851 1.395 . S
C843 C821 1.432 . S
C843 C842 1.445 . S
C843 C844 1.370 . S
C844 C843 1.370 . S
C844 C845 1.438 . S
C844 H906 0.930 . S
C845 C831 1.497 . S
C845 C844 1.438 . S
C845 C846 1.360 . S
C846 C845 1.360 . S
C846 C847 1.401 . S
C846 C851 1.446 . S
C847 C846 1.401 . S
C847 C848 1.347 . S
C847 H907 0.929 . S
C848 C847 1.347 . S
C848 C849 1.455 . S
C848 H908 0.930 . S
C849 C836 1.412 . S
C849 C848 1.455 . S
C849 C850 1.331 . S
C850 C839 1.451 . S
C850 C849 1.331 . S
C850 C851 1.497 . S
C851 C842 1.395 . S
C851 C846 1.446 . S
C851 C850 1.497 . S
C852 C853 1.582 . S
C852 H909 0.962 . S
C852 H910 0.959 . S
C852 H911 0.958 . S
C853 C852 1.582 . S
C853 O856 1.458 . S
C853 H882 0.980 . S
O854 C799 1.426 . S
O854 C800 1.334 . S
O855 C827 1.412 . S
O855 C828 1.393 . S
O856 C818 1.435 . S
O856 C853 1.458 . S
O857 C809 1.468 . S
O857 C810 1.408 . S
H858 C799 0.980 . S
H859 C798 0.959 . S
H860 C798 0.959 . S
H861 C798 0.960 . S
H862 C801 0.929 . S
H863 C805 0.929 . S
H864 C806 0.959 . S
H865 C806 0.961 . S
H866 C806 0.961 . S
H867 C807 0.960 . S
H868 C807 0.960 . S
H869 C807 0.961 . S
H870 C809 0.980 . S
H871 C808 0.961 . S
H872 C808 0.960 . S
H873 C808 0.959 . S
H874 C811 0.930 . S
H875 C815 0.931 . S
H876 C816 0.959 . S
H877 C816 0.961 . S
H878 C816 0.959 . S
H879 C817 0.960 . S
H880 C817 0.960 . S
H881 C817 0.960 . S
H882 C853 0.980 . S
H883 C819 0.930 . S
H884 C823 0.930 . S
H885 C824 0.961 . S
H886 C824 0.960 . S
H887 C824 0.958 . S
H888 C825 0.961 . S
H889 C825 0.960 . S
H890 C825 0.960 . S
H891 C827 0.980 . S
H892 C826 0.961 . S
H893 C826 0.961 . S
H894 C826 0.959 . S
H895 C829 0.932 . S
H896 C833 0.929 . S
H897 C834 0.961 . S
H898 C834 0.959 . S
H899 C834 0.959 . S
H900 C835 0.960 . S
H901 C835 0.962 . S
H902 C835 0.961 . S
H903 C837 0.929 . S
H904 C840 0.930 . S
H905 C841 0.929 . S
H906 C844 0.930 . S
H907 C847 0.929 . S
H908 C848 0.930 . S
H909 C852 0.962 . S
H910 C852 0.959 . S
H911 C852 0.958 . S
C912 O914 1.247 . S
C912 O916 1.258 . S
C913 O920 1.247 . S
C913 O921 1.258 . S
O914 C912 1.247 . S
O914 Zn915 2.028 1_655 S
Zn915 O914 2.028 1_455 S
Zn915 O919 2.035 . S
Zn915 O921 2.035 . S
Zn915 O922 2.028 1_455 S
O916 C912 1.258 . S
O916 Zn917 2.035 1_655 S
Zn917 O916 2.035 1_455 S
Zn917 O918 2.028 . S
Zn917 O920 2.028 . S
Zn917 O923 2.035 1_455 S
O918 Zn917 2.028 . S
O918 C924 1.247 . S
O919 Zn915 2.035 . S
O919 C924 1.258 . S
O920 C913 1.247 . S
O920 Zn917 2.028 . S
O921 C913 1.258 . S
O921 Zn915 2.035 . S
O922 Zn915 2.028 1_655 S
O922 C925 1.247 . S
O923 Zn917 2.035 1_655 S
O923 C925 1.258 . S
C924 O918 1.247 . S
C924 O919 1.258 . S
C925 O922 1.247 . S
C925 O923 1.258 . S
C926 O928 1.247 . S
C926 O930 1.258 . S
C927 O934 1.247 . S
C927 O935 1.258 . S
O928 C926 1.247 . S
O928 Zn929 2.028 . S
Zn929 O928 2.028 . S
Zn929 O933 2.035 1_545 S
Zn929 O935 2.035 1_545 S
Zn929 O936 2.028 . S
O930 C926 1.258 . S
O930 Zn931 2.035 . S
Zn931 O930 2.035 . S
Zn931 O932 2.028 1_545 S
Zn931 O934 2.028 1_545 S
Zn931 O937 2.035 . S
O932 Zn931 2.028 1_565 S
O932 C938 1.247 . S
O933 Zn929 2.035 1_565 S
O933 C938 1.258 . S
O934 C927 1.247 . S
O934 Zn931 2.028 1_565 S
O935 C927 1.258 . S
O935 Zn929 2.035 1_565 S
O936 Zn929 2.028 . S
O936 C939 1.247 . S
O937 Zn931 2.035 . S
O937 C939 1.258 . S
C938 O932 1.247 . S
C938 O933 1.258 . S
C939 O936 1.247 . S
C939 O937 1.258 . S
C940 O942 1.247 . S
C940 O944 1.258 . S
C941 O948 1.247 . S
C941 O949 1.258 . S
O942 C940 1.247 . S
O942 Zn943 2.028 1_655 S
Zn943 O942 2.028 1_455 S
Zn943 O947 2.035 . S
Zn943 O949 2.035 . S
Zn943 O950 2.028 1_455 S
O944 C940 1.258 . S
O944 Zn945 2.035 1_655 S
Zn945 O944 2.035 1_455 S
Zn945 O946 2.028 . S
Zn945 O948 2.028 . S
Zn945 O951 2.035 1_455 S
O946 Zn945 2.028 . S
O946 C952 1.247 . S
O947 Zn943 2.035 . S
O947 C952 1.258 . S
O948 C941 1.247 . S
O948 Zn945 2.028 . S
O949 C941 1.258 . S
O949 Zn943 2.035 . S
O950 Zn943 2.028 1_655 S
O950 C953 1.247 . S
O951 Zn945 2.035 1_655 S
O951 C953 1.258 . S
C952 O946 1.247 . S
C952 O947 1.258 . S
C953 O950 1.247 . S
C953 O951 1.258 . S
C954 O956 1.247 . S
C954 O958 1.258 . S
C955 O962 1.247 . S
C955 O963 1.258 . S
O956 C954 1.247 . S
O956 Zn957 2.028 . S
Zn957 O956 2.028 . S
Zn957 O961 2.035 1_545 S
Zn957 O963 2.035 1_545 S
Zn957 O964 2.028 . S
O958 C954 1.258 . S
O958 Zn959 2.035 . S
Zn959 O958 2.035 . S
Zn959 O960 2.028 1_545 S
Zn959 O962 2.028 1_545 S
Zn959 O965 2.035 . S
O960 Zn959 2.028 1_565 S
O960 C966 1.247 . S
O961 Zn957 2.035 1_565 S
O961 C966 1.258 . S
O962 C955 1.247 . S
O962 Zn959 2.028 1_565 S
O963 C955 1.258 . S
O963 Zn957 2.035 1_565 S
O964 Zn957 2.028 . S
O964 C967 1.247 . S
O965 Zn959 2.035 . S
O965 C967 1.258 . S
C966 O960 1.247 . S
C966 O961 1.258 . S
C967 O964 1.247 . S
C967 O965 1.258 . S
C968 O970 1.247 . S
C968 O972 1.258 . S
C969 O976 1.247 . S
C969 O977 1.258 . S
O970 C968 1.247 . S
O970 Zn971 2.031 . S
Zn971 O970 2.031 . S
Zn971 O975 2.039 . S
Zn971 O977 2.032 1_554 S
Zn971 O978 2.024 1_554 S
O972 C968 1.258 . S
O972 Zn973 2.041 . S
Zn973 O972 2.041 . S
Zn973 O974 2.034 . S
Zn973 O976 2.022 1_554 S
Zn973 O979 2.029 1_554 S
O974 Zn973 2.034 . S
O974 C980 1.247 . S
O975 Zn971 2.039 . S
O975 C980 1.258 . S
O976 C969 1.247 . S
O976 Zn973 2.022 1_556 S
O977 C969 1.258 . S
O977 Zn971 2.032 1_556 S
O978 Zn971 2.024 1_556 S
O978 C981 1.247 . S
O979 Zn973 2.029 1_556 S
O979 C981 1.258 . S
C980 O974 1.247 . S
C980 O975 1.258 . S
C981 O978 1.247 . S
C981 O979 1.258 . S
C982 O984 1.247 . S
C982 O986 1.258 . S
C983 O990 1.247 . S
C983 O991 1.258 . S
O984 C982 1.247 . S
O984 Zn985 2.028 . S
Zn985 O984 2.028 . S
Zn985 O989 2.035 . S
Zn985 O991 2.035 1_554 S
Zn985 O992 2.028 1_554 S
O986 C982 1.258 . S
O986 Zn987 2.035 . S
Zn987 O986 2.035 . S
Zn987 O988 2.028 . S
Zn987 O990 2.028 1_554 S
Zn987 O993 2.035 1_554 S
O988 Zn987 2.028 . S
O988 C994 1.247 . S
O989 Zn985 2.035 . S
O989 C994 1.258 . S
O990 C983 1.247 . S
O990 Zn987 2.028 1_556 S
O991 C983 1.258 . S
O991 Zn985 2.035 1_556 S
O992 Zn985 2.028 1_556 S
O992 C995 1.247 . S
O993 Zn987 2.035 1_556 S
O993 C995 1.258 . S
C994 O988 1.247 . S
C994 O989 1.258 . S
C995 O992 1.247 . S
C995 O993 1.258 . S
C996 O998 1.247 . S
C996 O1000 1.258 . S
C997 O1004 1.247 . S
C997 O1005 1.258 . S
O998 C996 1.247 . S
O998 Zn999 2.021 1_556 S
Zn999 O998 2.021 1_554 S
Zn999 O1003 2.029 1_554 S
Zn999 O1005 2.042 . S
Zn999 O1006 2.034 . S
O1000 C996 1.258 . S
O1000 Zn1001 2.030 1_556 S
Zn1001 O1000 2.030 1_554 S
Zn1001 O1002 2.023 1_554 S
Zn1001 O1004 2.033 . S
Zn1001 O1007 2.040 . S
O1002 Zn1001 2.023 1_556 S
O1002 C1008 1.247 . S
O1003 Zn999 2.029 1_556 S
O1003 C1008 1.258 . S
O1004 C997 1.247 . S
O1004 Zn1001 2.033 . S
O1005 C997 1.258 . S
O1005 Zn999 2.042 . S
O1006 Zn999 2.034 . S
O1006 C1009 1.247 . S
O1007 Zn1001 2.040 . S
O1007 C1009 1.258 . S
C1008 O1002 1.247 . S
C1008 O1003 1.258 . S
C1009 O1006 1.247 . S
C1009 O1007 1.258 . S
C1010 O1012 1.247 . S
C1010 O1014 1.258 . S
C1011 O1018 1.247 . S
C1011 O1019 1.258 . S
O1012 C1010 1.247 . S
O1012 Zn1013 2.028 . S
Zn1013 O1012 2.028 . S
Zn1013 O1017 2.035 . S
Zn1013 O1019 2.035 1_554 S
Zn1013 O1020 2.028 1_554 S
O1014 C1010 1.258 . S
O1014 Zn1015 2.035 . S
Zn1015 O1014 2.035 . S
Zn1015 O1016 2.028 . S
Zn1015 O1018 2.028 1_554 S
Zn1015 O1021 2.035 1_554 S
O1016 Zn1015 2.028 . S
O1016 C1022 1.247 . S
O1017 Zn1013 2.035 . S
O1017 C1022 1.258 . S
O1018 C1011 1.247 . S
O1018 Zn1015 2.028 1_556 S
O1019 C1011 1.258 . S
O1019 Zn1013 2.035 1_556 S
O1020 Zn1013 2.028 1_556 S
O1020 C1023 1.247 . S
O1021 Zn1015 2.035 1_556 S
O1021 C1023 1.258 . S
C1022 O1016 1.247 . S
C1022 O1017 1.258 . S
C1023 O1020 1.247 . S
C1023 O1021 1.258 . S
C1024 C1025 1.391 . S
C1024 C1026 1.394 . S
C1024 H1040 0.931 . S
C1025 C1024 1.391 . S
C1025 C1029 1.376 . S
C1026 C1024 1.394 . S
C1026 C1027 1.369 . S
C1026 C1030 1.531 . S
C1027 C1026 1.369 . S
C1027 C1028 1.410 . S
C1027 C1035 1.503 . S
C1028 C1027 1.410 . S
C1028 C1029 1.392 . S
C1028 C1031 1.511 . S
C1029 C1025 1.376 . S
C1029 C1028 1.392 . S
C1029 H1041 0.929 . S
C1030 C1026 1.531 . S
C1030 H1042 0.960 . S
C1030 H1043 0.962 . S
C1030 H1044 0.960 . S
C1031 C1028 1.511 . S
C1031 H1045 0.961 . S
C1031 H1046 0.961 . S
C1031 H1047 0.961 . S
C1032 C1033 1.370 . S
C1032 C1034 1.363 . S
C1032 H1048 0.931 . S
C1033 C1032 1.370 . S
C1033 C1037 1.408 . S
C1034 C1032 1.363 . S
C1034 C1035 1.370 . S
C1034 C1038 1.524 . S
C1035 C1027 1.503 . S
C1035 C1034 1.370 . S
C1035 C1036 1.403 . S
C1036 C1035 1.403 . S
C1036 C1037 1.404 . S
C1036 C1039 1.539 . S
C1037 C1033 1.408 . S
C1037 C1036 1.404 . S
C1037 H1049 0.930 . S
C1038 C1034 1.524 . S
C1038 H1050 0.956 . S
C1038 H1051 0.961 . S
C1038 H1052 0.961 . S
C1039 C1036 1.539 . S
C1039 H1053 0.958 . S
C1039 H1054 0.961 . S
C1039 H1055 0.960 . S
H1040 C1024 0.931 . S
H1041 C1029 0.929 . S
H1042 C1030 0.960 . S
H1043 C1030 0.962 . S
H1044 C1030 0.960 . S
H1045 C1031 0.961 . S
H1046 C1031 0.961 . S
H1047 C1031 0.961 . S
H1048 C1032 0.931 . S
H1049 C1037 0.930 . S
H1050 C1038 0.956 . S
H1051 C1038 0.961 . S
H1052 C1038 0.961 . S
H1053 C1039 0.958 . S
H1054 C1039 0.961 . S
H1055 C1039 0.960 . S
C1056 C1057 1.391 . S
C1056 C1058 1.394 . S
C1056 H1072 0.931 . S
C1057 C1056 1.391 . S
C1057 C1061 1.376 . S
C1058 C1056 1.394 . S
C1058 C1059 1.369 . S
C1058 C1062 1.531 . S
C1059 C1058 1.369 . S
C1059 C1060 1.410 . S
C1059 C1067 1.503 . S
C1060 C1059 1.410 . S
C1060 C1061 1.392 . S
C1060 C1063 1.511 . S
C1061 C1057 1.376 . S
C1061 C1060 1.392 . S
C1061 H1073 0.929 . S
C1062 C1058 1.531 . S
C1062 H1074 0.960 . S
C1062 H1075 0.962 . S
C1062 H1076 0.960 . S
C1063 C1060 1.511 . S
C1063 H1077 0.961 . S
C1063 H1078 0.961 . S
C1063 H1079 0.961 . S
C1064 C1065 1.370 . S
C1064 C1066 1.363 . S
C1064 H1080 0.931 . S
C1065 C1064 1.370 . S
C1065 C1069 1.408 . S
C1066 C1064 1.363 . S
C1066 C1067 1.370 . S
C1066 C1070 1.524 . S
C1067 C1059 1.503 . S
C1067 C1066 1.370 . S
C1067 C1068 1.403 . S
C1068 C1067 1.403 . S
C1068 C1069 1.404 . S
C1068 C1071 1.539 . S
C1069 C1065 1.408 . S
C1069 C1068 1.404 . S
C1069 H1081 0.930 . S
C1070 C1066 1.524 . S
C1070 H1082 0.956 . S
C1070 H1083 0.961 . S
C1070 H1084 0.961 . S
C1071 C1068 1.539 . S
C1071 H1085 0.958 . S
C1071 H1086 0.961 . S
C1071 H1087 0.960 . S
H1072 C1056 0.931 . S
H1073 C1061 0.929 . S
H1074 C1062 0.960 . S
H1075 C1062 0.962 . S
H1076 C1062 0.960 . S
H1077 C1063 0.961 . S
H1078 C1063 0.961 . S
H1079 C1063 0.961 . S
H1080 C1064 0.931 . S
H1081 C1069 0.930 . S
H1082 C1070 0.956 . S
H1083 C1070 0.961 . S
H1084 C1070 0.961 . S
H1085 C1071 0.958 . S
H1086 C1071 0.961 . S
H1087 C1071 0.960 . S
C1088 C1089 1.391 . S
C1088 C1090 1.394 . S
C1088 H1104 0.931 . S
C1089 C1088 1.391 . S
C1089 C1093 1.376 . S
C1090 C1088 1.394 . S
C1090 C1091 1.369 . S
C1090 C1094 1.531 . S
C1091 C1090 1.369 . S
C1091 C1092 1.410 . S
C1091 C1099 1.503 . S
C1092 C1091 1.410 . S
C1092 C1093 1.392 . S
C1092 C1095 1.511 . S
C1093 C1089 1.376 . S
C1093 C1092 1.392 . S
C1093 H1105 0.929 . S
C1094 C1090 1.531 . S
C1094 H1106 0.960 . S
C1094 H1107 0.962 . S
C1094 H1108 0.960 . S
C1095 C1092 1.511 . S
C1095 H1109 0.961 . S
C1095 H1110 0.961 . S
C1095 H1111 0.961 . S
C1096 C1097 1.370 . S
C1096 C1098 1.363 . S
C1096 H1112 0.931 . S
C1097 C1096 1.370 . S
C1097 C1101 1.408 . S
C1098 C1096 1.363 . S
C1098 C1099 1.370 . S
C1098 C1102 1.524 . S
C1099 C1091 1.503 . S
C1099 C1098 1.370 . S
C1099 C1100 1.403 . S
C1100 C1099 1.403 . S
C1100 C1101 1.404 . S
C1100 C1103 1.539 . S
C1101 C1097 1.408 . S
C1101 C1100 1.404 . S
C1101 H1113 0.930 . S
C1102 C1098 1.524 . S
C1102 H1114 0.956 . S
C1102 H1115 0.961 . S
C1102 H1116 0.961 . S
C1103 C1100 1.539 . S
C1103 H1117 0.958 . S
C1103 H1118 0.961 . S
C1103 H1119 0.960 . S
H1104 C1088 0.931 . S
H1105 C1093 0.929 . S
H1106 C1094 0.960 . S
H1107 C1094 0.962 . S
H1108 C1094 0.960 . S
H1109 C1095 0.961 . S
H1110 C1095 0.961 . S
H1111 C1095 0.961 . S
H1112 C1096 0.931 . S
H1113 C1101 0.930 . S
H1114 C1102 0.956 . S
H1115 C1102 0.961 . S
H1116 C1102 0.961 . S
H1117 C1103 0.958 . S
H1118 C1103 0.961 . S
H1119 C1103 0.960 . S
C1120 C1121 1.391 . S
C1120 C1122 1.394 . S
C1120 H1136 0.931 . S
C1121 C1120 1.391 . S
C1121 C1125 1.376 . S
C1122 C1120 1.394 . S
C1122 C1123 1.369 . S
C1122 C1126 1.531 . S
C1123 C1122 1.369 . S
C1123 C1124 1.410 . S
C1123 C1131 1.503 . S
C1124 C1123 1.410 . S
C1124 C1125 1.392 . S
C1124 C1127 1.511 . S
C1125 C1121 1.376 . S
C1125 C1124 1.392 . S
C1125 H1137 0.929 . S
C1126 C1122 1.531 . S
C1126 H1138 0.960 . S
C1126 H1139 0.962 . S
C1126 H1140 0.960 . S
C1127 C1124 1.511 . S
C1127 H1141 0.961 . S
C1127 H1142 0.961 . S
C1127 H1143 0.961 . S
C1128 C1129 1.370 . S
C1128 C1130 1.363 . S
C1128 H1144 0.931 . S
C1129 C1128 1.370 . S
C1129 C1133 1.408 . S
C1130 C1128 1.363 . S
C1130 C1131 1.370 . S
C1130 C1134 1.524 . S
C1131 C1123 1.503 . S
C1131 C1130 1.370 . S
C1131 C1132 1.403 . S
C1132 C1131 1.403 . S
C1132 C1133 1.404 . S
C1132 C1135 1.539 . S
C1133 C1129 1.408 . S
C1133 C1132 1.404 . S
C1133 H1145 0.930 . S
C1134 C1130 1.524 . S
C1134 H1146 0.956 . S
C1134 H1147 0.961 . S
C1134 H1148 0.961 . S
C1135 C1132 1.539 . S
C1135 H1149 0.958 . S
C1135 H1150 0.961 . S
C1135 H1151 0.960 . S
H1136 C1120 0.931 . S
H1137 C1125 0.929 . S
H1138 C1126 0.960 . S
H1139 C1126 0.962 . S
H1140 C1126 0.960 . S
H1141 C1127 0.961 . S
H1142 C1127 0.961 . S
H1143 C1127 0.961 . S
H1144 C1128 0.931 . S
H1145 C1133 0.930 . S
H1146 C1134 0.956 . S
H1147 C1134 0.961 . S
H1148 C1134 0.961 . S
H1149 C1135 0.958 . S
H1150 C1135 0.961 . S
H1151 C1135 0.960 . S
C1152 C1153 1.391 . S
C1152 C1154 1.394 . S
C1152 H1168 0.931 . S
C1153 C1152 1.391 . S
C1153 C1157 1.376 . S
C1154 C1152 1.394 . S
C1154 C1155 1.369 . S
C1154 C1158 1.531 . S
C1155 C1154 1.369 . S
C1155 C1156 1.410 . S
C1155 C1163 1.503 . S
C1156 C1155 1.410 . S
C1156 C1157 1.392 . S
C1156 C1159 1.511 . S
C1157 C1153 1.376 . S
C1157 C1156 1.392 . S
C1157 H1169 0.929 . S
C1158 C1154 1.531 . S
C1158 H1170 0.960 . S
C1158 H1171 0.962 . S
C1158 H1172 0.960 . S
C1159 C1156 1.511 . S
C1159 H1173 0.961 . S
C1159 H1174 0.961 . S
C1159 H1175 0.961 . S
C1160 C1161 1.370 . S
C1160 C1162 1.363 . S
C1160 H1176 0.931 . S
C1161 C1160 1.370 . S
C1161 C1165 1.408 . S
C1162 C1160 1.363 . S
C1162 C1163 1.370 . S
C1162 C1166 1.524 . S
C1163 C1155 1.503 . S
C1163 C1162 1.370 . S
C1163 C1164 1.403 . S
C1164 C1163 1.403 . S
C1164 C1165 1.404 . S
C1164 C1167 1.539 . S
C1165 C1161 1.408 . S
C1165 C1164 1.404 . S
C1165 H1177 0.930 . S
C1166 C1162 1.524 . S
C1166 H1178 0.956 . S
C1166 H1179 0.961 . S
C1166 H1180 0.961 . S
C1167 C1164 1.539 . S
C1167 H1181 0.958 . S
C1167 H1182 0.961 . S
C1167 H1183 0.960 . S
H1168 C1152 0.931 . S
H1169 C1157 0.929 . S
H1170 C1158 0.960 . S
H1171 C1158 0.962 . S
H1172 C1158 0.960 . S
H1173 C1159 0.961 . S
H1174 C1159 0.961 . S
H1175 C1159 0.961 . S
H1176 C1160 0.931 . S
H1177 C1165 0.930 . S
H1178 C1166 0.956 . S
H1179 C1166 0.961 . S
H1180 C1166 0.961 . S
H1181 C1167 0.958 . S
H1182 C1167 0.961 . S
H1183 C1167 0.960 . S
C1184 C1185 1.391 . S
C1184 C1186 1.394 . S
C1184 H1200 0.931 . S
C1185 C1184 1.391 . S
C1185 C1189 1.376 . S
C1186 C1184 1.394 . S
C1186 C1187 1.369 . S
C1186 C1190 1.531 . S
C1187 C1186 1.369 . S
C1187 C1188 1.410 . S
C1187 C1195 1.503 . S
C1188 C1187 1.410 . S
C1188 C1189 1.392 . S
C1188 C1191 1.511 . S
C1189 C1185 1.376 . S
C1189 C1188 1.392 . S
C1189 H1201 0.929 . S
C1190 C1186 1.531 . S
C1190 H1202 0.960 . S
C1190 H1203 0.962 . S
C1190 H1204 0.960 . S
C1191 C1188 1.511 . S
C1191 H1205 0.961 . S
C1191 H1206 0.961 . S
C1191 H1207 0.961 . S
C1192 C1193 1.370 . S
C1192 C1194 1.363 . S
C1192 H1208 0.931 . S
C1193 C1192 1.370 . S
C1193 C1197 1.408 . S
C1194 C1192 1.363 . S
C1194 C1195 1.370 . S
C1194 C1198 1.524 . S
C1195 C1187 1.503 . S
C1195 C1194 1.370 . S
C1195 C1196 1.403 . S
C1196 C1195 1.403 . S
C1196 C1197 1.404 . S
C1196 C1199 1.539 . S
C1197 C1193 1.408 . S
C1197 C1196 1.404 . S
C1197 H1209 0.930 . S
C1198 C1194 1.524 . S
C1198 H1210 0.956 . S
C1198 H1211 0.961 . S
C1198 H1212 0.961 . S
C1199 C1196 1.539 . S
C1199 H1213 0.958 . S
C1199 H1214 0.961 . S
C1199 H1215 0.960 . S
H1200 C1184 0.931 . S
H1201 C1189 0.929 . S
H1202 C1190 0.960 . S
H1203 C1190 0.962 . S
H1204 C1190 0.960 . S
H1205 C1191 0.961 . S
H1206 C1191 0.961 . S
H1207 C1191 0.961 . S
H1208 C1192 0.931 . S
H1209 C1197 0.930 . S
H1210 C1198 0.956 . S
H1211 C1198 0.961 . S
H1212 C1198 0.961 . S
H1213 C1199 0.958 . S
H1214 C1199 0.961 . S
H1215 C1199 0.960 . S
C1216 C1217 1.391 . S
C1216 C1218 1.394 . S
C1216 H1232 0.931 . S
C1217 C1216 1.391 . S
C1217 C1221 1.376 . S
C1218 C1216 1.394 . S
C1218 C1219 1.369 . S
C1218 C1222 1.531 . S
C1219 C1218 1.369 . S
C1219 C1220 1.410 . S
C1219 C1227 1.503 . S
C1220 C1219 1.410 . S
C1220 C1221 1.392 . S
C1220 C1223 1.511 . S
C1221 C1217 1.376 . S
C1221 C1220 1.392 . S
C1221 H1233 0.929 . S
C1222 C1218 1.531 . S
C1222 H1234 0.960 . S
C1222 H1235 0.962 . S
C1222 H1236 0.960 . S
C1223 C1220 1.511 . S
C1223 H1237 0.961 . S
C1223 H1238 0.961 . S
C1223 H1239 0.961 . S
C1224 C1225 1.370 . S
C1224 C1226 1.363 . S
C1224 H1240 0.931 . S
C1225 C1224 1.370 . S
C1225 C1229 1.408 . S
C1226 C1224 1.363 . S
C1226 C1227 1.370 . S
C1226 C1230 1.524 . S
C1227 C1219 1.503 . S
C1227 C1226 1.370 . S
C1227 C1228 1.403 . S
C1228 C1227 1.403 . S
C1228 C1229 1.404 . S
C1228 C1231 1.539 . S
C1229 C1225 1.408 . S
C1229 C1228 1.404 . S
C1229 H1241 0.930 . S
C1230 C1226 1.524 . S
C1230 H1242 0.956 . S
C1230 H1243 0.961 . S
C1230 H1244 0.961 . S
C1231 C1228 1.539 . S
C1231 H1245 0.958 . S
C1231 H1246 0.961 . S
C1231 H1247 0.960 . S
H1232 C1216 0.931 . S
H1233 C1221 0.929 . S
H1234 C1222 0.960 . S
H1235 C1222 0.962 . S
H1236 C1222 0.960 . S
H1237 C1223 0.961 . S
H1238 C1223 0.961 . S
H1239 C1223 0.961 . S
H1240 C1224 0.931 . S
H1241 C1229 0.930 . S
H1242 C1230 0.956 . S
H1243 C1230 0.961 . S
H1244 C1230 0.961 . S
H1245 C1231 0.958 . S
H1246 C1231 0.961 . S
H1247 C1231 0.960 . S
C1248 C1249 1.391 . S
C1248 C1250 1.394 . S
C1248 H1264 0.931 . S
C1249 C1248 1.391 . S
C1249 C1253 1.376 . S
C1250 C1248 1.394 . S
C1250 C1251 1.369 . S
C1250 C1254 1.531 . S
C1251 C1250 1.369 . S
C1251 C1252 1.410 . S
C1251 C1259 1.503 . S
C1252 C1251 1.410 . S
C1252 C1253 1.392 . S
C1252 C1255 1.511 . S
C1253 C1249 1.376 . S
C1253 C1252 1.392 . S
C1253 H1265 0.929 . S
C1254 C1250 1.531 . S
C1254 H1266 0.960 . S
C1254 H1267 0.962 . S
C1254 H1268 0.960 . S
C1255 C1252 1.511 . S
C1255 H1269 0.961 . S
C1255 H1270 0.961 . S
C1255 H1271 0.961 . S
C1256 C1257 1.370 . S
C1256 C1258 1.363 . S
C1256 H1272 0.931 . S
C1257 C1256 1.370 . S
C1257 C1261 1.408 . S
C1258 C1256 1.363 . S
C1258 C1259 1.370 . S
C1258 C1262 1.524 . S
C1259 C1251 1.503 . S
C1259 C1258 1.370 . S
C1259 C1260 1.403 . S
C1260 C1259 1.403 . S
C1260 C1261 1.404 . S
C1260 C1263 1.539 . S
C1261 C1257 1.408 . S
C1261 C1260 1.404 . S
C1261 H1273 0.930 . S
C1262 C1258 1.524 . S
C1262 H1274 0.956 . S
C1262 H1275 0.961 . S
C1262 H1276 0.961 . S
C1263 C1260 1.539 . S
C1263 H1277 0.958 . S
C1263 H1278 0.961 . S
C1263 H1279 0.960 . S
H1264 C1248 0.931 . S
H1265 C1253 0.929 . S
H1266 C1254 0.960 . S
H1267 C1254 0.962 . S
H1268 C1254 0.960 . S
H1269 C1255 0.961 . S
H1270 C1255 0.961 . S
H1271 C1255 0.961 . S
H1272 C1256 0.931 . S
H1273 C1261 0.930 . S
H1274 C1262 0.956 . S
H1275 C1262 0.961 . S
H1276 C1262 0.961 . S
H1277 C1263 0.958 . S
H1278 C1263 0.961 . S
H1279 C1263 0.960 . S
C1280 C1281 1.391 . S
C1280 C1282 1.394 . S
C1280 H1296 0.931 . S
C1281 C1280 1.391 . S
C1281 C1285 1.376 . S
C1282 C1280 1.394 . S
C1282 C1283 1.369 . S
C1282 C1286 1.531 . S
C1283 C1282 1.369 . S
C1283 C1284 1.410 . S
C1283 C1291 1.503 . S
C1284 C1283 1.410 . S
C1284 C1285 1.392 . S
C1284 C1287 1.511 . S
C1285 C1281 1.376 . S
C1285 C1284 1.392 . S
C1285 H1297 0.929 . S
C1286 C1282 1.531 . S
C1286 H1298 0.960 . S
C1286 H1299 0.962 . S
C1286 H1300 0.960 . S
C1287 C1284 1.511 . S
C1287 H1301 0.961 . S
C1287 H1302 0.961 . S
C1287 H1303 0.961 . S
C1288 C1289 1.370 . S
C1288 C1290 1.363 . S
C1288 H1304 0.931 . S
C1289 C1288 1.370 . S
C1289 C1293 1.408 . S
C1290 C1288 1.363 . S
C1290 C1291 1.370 . S
C1290 C1294 1.524 . S
C1291 C1283 1.503 . S
C1291 C1290 1.370 . S
C1291 C1292 1.403 . S
C1292 C1291 1.403 . S
C1292 C1293 1.404 . S
C1292 C1295 1.539 . S
C1293 C1289 1.408 . S
C1293 C1292 1.404 . S
C1293 H1305 0.930 . S
C1294 C1290 1.524 . S
C1294 H1306 0.956 . S
C1294 H1307 0.961 . S
C1294 H1308 0.961 . S
C1295 C1292 1.539 . S
C1295 H1309 0.958 . S
C1295 H1310 0.961 . S
C1295 H1311 0.960 . S
H1296 C1280 0.931 . S
H1297 C1285 0.929 . S
H1298 C1286 0.960 . S
H1299 C1286 0.962 . S
H1300 C1286 0.960 . S
H1301 C1287 0.961 . S
H1302 C1287 0.961 . S
H1303 C1287 0.961 . S
H1304 C1288 0.931 . S
H1305 C1293 0.930 . S
H1306 C1294 0.956 . S
H1307 C1294 0.961 . S
H1308 C1294 0.961 . S
H1309 C1295 0.958 . S
H1310 C1295 0.961 . S
H1311 C1295 0.960 . S
C1312 C1313 1.391 . S
C1312 C1314 1.394 . S
C1312 H1328 0.931 . S
C1313 C1312 1.391 . S
C1313 C1317 1.376 . S
C1314 C1312 1.394 . S
C1314 C1315 1.369 . S
C1314 C1318 1.531 . S
C1315 C1314 1.369 . S
C1315 C1316 1.410 . S
C1315 C1323 1.503 . S
C1316 C1315 1.410 . S
C1316 C1317 1.392 . S
C1316 C1319 1.511 . S
C1317 C1313 1.376 . S
C1317 C1316 1.392 . S
C1317 H1329 0.929 . S
C1318 C1314 1.531 . S
C1318 H1330 0.960 . S
C1318 H1331 0.962 . S
C1318 H1332 0.960 . S
C1319 C1316 1.511 . S
C1319 H1333 0.961 . S
C1319 H1334 0.961 . S
C1319 H1335 0.961 . S
C1320 C1321 1.370 . S
C1320 C1322 1.363 . S
C1320 H1336 0.931 . S
C1321 C1320 1.370 . S
C1321 C1325 1.408 . S
C1322 C1320 1.363 . S
C1322 C1323 1.370 . S
C1322 C1326 1.524 . S
C1323 C1315 1.503 . S
C1323 C1322 1.370 . S
C1323 C1324 1.403 . S
C1324 C1323 1.403 . S
C1324 C1325 1.404 . S
C1324 C1327 1.539 . S
C1325 C1321 1.408 . S
C1325 C1324 1.404 . S
C1325 H1337 0.930 . S
C1326 C1322 1.524 . S
C1326 H1338 0.956 . S
C1326 H1339 0.961 . S
C1326 H1340 0.961 . S
C1327 C1324 1.539 . S
C1327 H1341 0.958 . S
C1327 H1342 0.961 . S
C1327 H1343 0.960 . S
H1328 C1312 0.931 . S
H1329 C1317 0.929 . S
H1330 C1318 0.960 . S
H1331 C1318 0.962 . S
H1332 C1318 0.960 . S
H1333 C1319 0.961 . S
H1334 C1319 0.961 . S
H1335 C1319 0.961 . S
H1336 C1320 0.931 . S
H1337 C1325 0.930 . S
H1338 C1326 0.956 . S
H1339 C1326 0.961 . S
H1340 C1326 0.961 . S
H1341 C1327 0.958 . S
H1342 C1327 0.961 . S
H1343 C1327 0.960 . S
C1344 C1345 1.391 . S
C1344 C1346 1.394 . S
C1344 H1360 0.931 . S
C1345 C1344 1.391 . S
C1345 C1349 1.376 . S
C1346 C1344 1.394 . S
C1346 C1347 1.369 . S
C1346 C1350 1.531 . S
C1347 C1346 1.369 . S
C1347 C1348 1.410 . S
C1347 C1355 1.503 . S
C1348 C1347 1.410 . S
C1348 C1349 1.392 . S
C1348 C1351 1.511 . S
C1349 C1345 1.376 . S
C1349 C1348 1.392 . S
C1349 H1361 0.929 . S
C1350 C1346 1.531 . S
C1350 H1362 0.960 . S
C1350 H1363 0.962 . S
C1350 H1364 0.960 . S
C1351 C1348 1.511 . S
C1351 H1365 0.961 . S
C1351 H1366 0.961 . S
C1351 H1367 0.961 . S
C1352 C1353 1.370 . S
C1352 C1354 1.363 . S
C1352 H1368 0.931 . S
C1353 C1352 1.370 . S
C1353 C1357 1.408 . S
C1354 C1352 1.363 . S
C1354 C1355 1.370 . S
C1354 C1358 1.524 . S
C1355 C1347 1.503 . S
C1355 C1354 1.370 . S
C1355 C1356 1.403 . S
C1356 C1355 1.403 . S
C1356 C1357 1.404 . S
C1356 C1359 1.539 . S
C1357 C1353 1.408 . S
C1357 C1356 1.404 . S
C1357 H1369 0.930 . S
C1358 C1354 1.524 . S
C1358 H1370 0.956 . S
C1358 H1371 0.961 . S
C1358 H1372 0.961 . S
C1359 C1356 1.539 . S
C1359 H1373 0.958 . S
C1359 H1374 0.961 . S
C1359 H1375 0.960 . S
H1360 C1344 0.931 . S
H1361 C1349 0.929 . S
H1362 C1350 0.960 . S
H1363 C1350 0.962 . S
H1364 C1350 0.960 . S
H1365 C1351 0.961 . S
H1366 C1351 0.961 . S
H1367 C1351 0.961 . S
H1368 C1352 0.931 . S
H1369 C1357 0.930 . S
H1370 C1358 0.956 . S
H1371 C1358 0.961 . S
H1372 C1358 0.961 . S
H1373 C1359 0.958 . S
H1374 C1359 0.961 . S
H1375 C1359 0.960 . S
C1376 C1377 1.391 . S
C1376 C1378 1.394 . S
C1376 H1392 0.931 . S
C1377 C1376 1.391 . S
C1377 C1381 1.376 . S
C1378 C1376 1.394 . S
C1378 C1379 1.369 . S
C1378 C1382 1.531 . S
C1379 C1378 1.369 . S
C1379 C1380 1.410 . S
C1379 C1387 1.503 . S
C1380 C1379 1.410 . S
C1380 C1381 1.392 . S
C1380 C1383 1.511 . S
C1381 C1377 1.376 . S
C1381 C1380 1.392 . S
C1381 H1393 0.929 . S
C1382 C1378 1.531 . S
C1382 H1394 0.960 . S
C1382 H1395 0.962 . S
C1382 H1396 0.960 . S
C1383 C1380 1.511 . S
C1383 H1397 0.961 . S
C1383 H1398 0.961 . S
C1383 H1399 0.961 . S
C1384 C1385 1.370 . S
C1384 C1386 1.363 . S
C1384 H1400 0.931 . S
C1385 C1384 1.370 . S
C1385 C1389 1.408 . S
C1386 C1384 1.363 . S
C1386 C1387 1.370 . S
C1386 C1390 1.524 . S
C1387 C1379 1.503 . S
C1387 C1386 1.370 . S
C1387 C1388 1.403 . S
C1388 C1387 1.403 . S
C1388 C1389 1.404 . S
C1388 C1391 1.539 . S
C1389 C1385 1.408 . S
C1389 C1388 1.404 . S
C1389 H1401 0.930 . S
C1390 C1386 1.524 . S
C1390 H1402 0.956 . S
C1390 H1403 0.961 . S
C1390 H1404 0.961 . S
C1391 C1388 1.539 . S
C1391 H1405 0.958 . S
C1391 H1406 0.961 . S
C1391 H1407 0.960 . S
H1392 C1376 0.931 . S
H1393 C1381 0.929 . S
H1394 C1382 0.960 . S
H1395 C1382 0.962 . S
H1396 C1382 0.960 . S
H1397 C1383 0.961 . S
H1398 C1383 0.961 . S
H1399 C1383 0.961 . S
H1400 C1384 0.931 . S
H1401 C1389 0.930 . S
H1402 C1390 0.956 . S
H1403 C1390 0.961 . S
H1404 C1390 0.961 . S
H1405 C1391 0.958 . S
H1406 C1391 0.961 . S
H1407 C1391 0.960 . S
C1408 C1409 1.391 . S
C1408 C1410 1.394 . S
C1408 H1424 0.931 . S
C1409 C1408 1.391 . S
C1409 C1413 1.376 . S
C1410 C1408 1.394 . S
C1410 C1411 1.369 . S
C1410 C1414 1.531 . S
C1411 C1410 1.369 . S
C1411 C1412 1.410 . S
C1411 C1419 1.503 . S
C1412 C1411 1.410 . S
C1412 C1413 1.392 . S
C1412 C1415 1.511 . S
C1413 C1409 1.376 . S
C1413 C1412 1.392 . S
C1413 H1425 0.929 . S
C1414 C1410 1.531 . S
C1414 H1426 0.960 . S
C1414 H1427 0.962 . S
C1414 H1428 0.960 . S
C1415 C1412 1.511 . S
C1415 H1429 0.961 . S
C1415 H1430 0.961 . S
C1415 H1431 0.961 . S
C1416 C1417 1.370 . S
C1416 C1418 1.363 . S
C1416 H1432 0.931 . S
C1417 C1416 1.370 . S
C1417 C1421 1.408 . S
C1418 C1416 1.363 . S
C1418 C1419 1.370 . S
C1418 C1422 1.524 . S
C1419 C1411 1.503 . S
C1419 C1418 1.370 . S
C1419 C1420 1.403 . S
C1420 C1419 1.403 . S
C1420 C1421 1.404 . S
C1420 C1423 1.539 . S
C1421 C1417 1.408 . S
C1421 C1420 1.404 . S
C1421 H1433 0.930 . S
C1422 C1418 1.524 . S
C1422 H1434 0.956 . S
C1422 H1435 0.961 . S
C1422 H1436 0.961 . S
C1423 C1420 1.539 . S
C1423 H1437 0.958 . S
C1423 H1438 0.961 . S
C1423 H1439 0.960 . S
H1424 C1408 0.931 . S
H1425 C1413 0.929 . S
H1426 C1414 0.960 . S
H1427 C1414 0.962 . S
H1428 C1414 0.960 . S
H1429 C1415 0.961 . S
H1430 C1415 0.961 . S
H1431 C1415 0.961 . S
H1432 C1416 0.931 . S
H1433 C1421 0.930 . S
H1434 C1422 0.956 . S
H1435 C1422 0.961 . S
H1436 C1422 0.961 . S
H1437 C1423 0.958 . S
H1438 C1423 0.961 . S
H1439 C1423 0.960 . S
C1440 C1441 1.391 . S
C1440 C1442 1.394 . S
C1440 H1456 0.931 . S
C1441 C1440 1.391 . S
C1441 C1445 1.376 . S
C1442 C1440 1.394 . S
C1442 C1443 1.369 . S
C1442 C1446 1.531 . S
C1443 C1442 1.369 . S
C1443 C1444 1.410 . S
C1443 C1451 1.503 . S
C1444 C1443 1.410 . S
C1444 C1445 1.392 . S
C1444 C1447 1.511 . S
C1445 C1441 1.376 . S
C1445 C1444 1.392 . S
C1445 H1457 0.929 . S
C1446 C1442 1.531 . S
C1446 H1458 0.960 . S
C1446 H1459 0.962 . S
C1446 H1460 0.960 . S
C1447 C1444 1.511 . S
C1447 H1461 0.961 . S
C1447 H1462 0.961 . S
C1447 H1463 0.961 . S
C1448 C1449 1.370 . S
C1448 C1450 1.363 . S
C1448 H1464 0.931 . S
C1449 C1448 1.370 . S
C1449 C1453 1.408 . S
C1450 C1448 1.363 . S
C1450 C1451 1.370 . S
C1450 C1454 1.524 . S
C1451 C1443 1.503 . S
C1451 C1450 1.370 . S
C1451 C1452 1.403 . S
C1452 C1451 1.403 . S
C1452 C1453 1.404 . S
C1452 C1455 1.539 . S
C1453 C1449 1.408 . S
C1453 C1452 1.404 . S
C1453 H1465 0.930 . S
C1454 C1450 1.524 . S
C1454 H1466 0.956 . S
C1454 H1467 0.961 . S
C1454 H1468 0.961 . S
C1455 C1452 1.539 . S
C1455 H1469 0.958 . S
C1455 H1470 0.961 . S
C1455 H1471 0.960 . S
H1456 C1440 0.931 . S
H1457 C1445 0.929 . S
H1458 C1446 0.960 . S
H1459 C1446 0.962 . S
H1460 C1446 0.960 . S
H1461 C1447 0.961 . S
H1462 C1447 0.961 . S
H1463 C1447 0.961 . S
H1464 C1448 0.931 . S
H1465 C1453 0.930 . S
H1466 C1454 0.956 . S
H1467 C1454 0.961 . S
H1468 C1454 0.961 . S
H1469 C1455 0.958 . S
H1470 C1455 0.961 . S
H1471 C1455 0.960 . S
C1472 C1473 1.391 . S
C1472 C1474 1.394 . S
C1472 H1488 0.931 . S
C1473 C1472 1.391 . S
C1473 C1477 1.376 . S
C1474 C1472 1.394 . S
C1474 C1475 1.369 . S
C1474 C1478 1.531 . S
C1475 C1474 1.369 . S
C1475 C1476 1.410 . S
C1475 C1483 1.503 . S
C1476 C1475 1.410 . S
C1476 C1477 1.392 . S
C1476 C1479 1.511 . S
C1477 C1473 1.376 . S
C1477 C1476 1.392 . S
C1477 H1489 0.929 . S
C1478 C1474 1.531 . S
C1478 H1490 0.960 . S
C1478 H1491 0.962 . S
C1478 H1492 0.960 . S
C1479 C1476 1.511 . S
C1479 H1493 0.961 . S
C1479 H1494 0.961 . S
C1479 H1495 0.961 . S
C1480 C1481 1.370 . S
C1480 C1482 1.363 . S
C1480 H1496 0.931 . S
C1481 C1480 1.370 . S
C1481 C1485 1.408 . S
C1482 C1480 1.363 . S
C1482 C1483 1.370 . S
C1482 C1486 1.524 . S
C1483 C1475 1.503 . S
C1483 C1482 1.370 . S
C1483 C1484 1.403 . S
C1484 C1483 1.403 . S
C1484 C1485 1.404 . S
C1484 C1487 1.539 . S
C1485 C1481 1.408 . S
C1485 C1484 1.404 . S
C1485 H1497 0.930 . S
C1486 C1482 1.524 . S
C1486 H1498 0.956 . S
C1486 H1499 0.961 . S
C1486 H1500 0.961 . S
C1487 C1484 1.539 . S
C1487 H1501 0.958 . S
C1487 H1502 0.961 . S
C1487 H1503 0.960 . S
H1488 C1472 0.931 . S
H1489 C1477 0.929 . S
H1490 C1478 0.960 . S
H1491 C1478 0.962 . S
H1492 C1478 0.960 . S
H1493 C1479 0.961 . S
H1494 C1479 0.961 . S
H1495 C1479 0.961 . S
H1496 C1480 0.931 . S
H1497 C1485 0.930 . S
H1498 C1486 0.956 . S
H1499 C1486 0.961 . S
H1500 C1486 0.961 . S
H1501 C1487 0.958 . S
H1502 C1487 0.961 . S
H1503 C1487 0.960 . S
C1504 C1505 1.391 . S
C1504 C1506 1.394 . S
C1504 H1520 0.931 . S
C1505 C1504 1.391 . S
C1505 C1509 1.376 . S
C1506 C1504 1.394 . S
C1506 C1507 1.369 . S
C1506 C1510 1.531 . S
C1507 C1506 1.369 . S
C1507 C1508 1.410 . S
C1507 C1515 1.503 . S
C1508 C1507 1.410 . S
C1508 C1509 1.392 . S
C1508 C1511 1.511 . S
C1509 C1505 1.376 . S
C1509 C1508 1.392 . S
C1509 H1521 0.929 . S
C1510 C1506 1.531 . S
C1510 H1522 0.960 . S
C1510 H1523 0.962 . S
C1510 H1524 0.960 . S
C1511 C1508 1.511 . S
C1511 H1525 0.961 . S
C1511 H1526 0.961 . S
C1511 H1527 0.961 . S
C1512 C1513 1.370 . S
C1512 C1514 1.363 . S
C1512 H1528 0.931 . S
C1513 C1512 1.370 . S
C1513 C1517 1.408 . S
C1514 C1512 1.363 . S
C1514 C1515 1.370 . S
C1514 C1518 1.524 . S
C1515 C1507 1.503 . S
C1515 C1514 1.370 . S
C1515 C1516 1.403 . S
C1516 C1515 1.403 . S
C1516 C1517 1.404 . S
C1516 C1519 1.539 . S
C1517 C1513 1.408 . S
C1517 C1516 1.404 . S
C1517 H1529 0.930 . S
C1518 C1514 1.524 . S
C1518 H1530 0.956 . S
C1518 H1531 0.961 . S
C1518 H1532 0.961 . S
C1519 C1516 1.539 . S
C1519 H1533 0.958 . S
C1519 H1534 0.961 . S
C1519 H1535 0.960 . S
H1520 C1504 0.931 . S
H1521 C1509 0.929 . S
H1522 C1510 0.960 . S
H1523 C1510 0.962 . S
H1524 C1510 0.960 . S
H1525 C1511 0.961 . S
H1526 C1511 0.961 . S
H1527 C1511 0.961 . S
H1528 C1512 0.931 . S
H1529 C1517 0.930 . S
H1530 C1518 0.956 . S
H1531 C1518 0.961 . S
H1532 C1518 0.961 . S
H1533 C1519 0.958 . S
H1534 C1519 0.961 . S
H1535 C1519 0.960 . S
C1536 C1537 1.391 . S
C1536 C1538 1.394 . S
C1536 H1552 0.931 . S
C1537 C1536 1.391 . S
C1537 C1541 1.376 . S
C1538 C1536 1.394 . S
C1538 C1539 1.369 . S
C1538 C1542 1.531 . S
C1539 C1538 1.369 . S
C1539 C1540 1.410 . S
C1539 C1547 1.503 . S
C1540 C1539 1.410 . S
C1540 C1541 1.392 . S
C1540 C1543 1.511 . S
C1541 C1537 1.376 . S
C1541 C1540 1.392 . S
C1541 H1553 0.929 . S
C1542 C1538 1.531 . S
C1542 H1554 0.960 . S
C1542 H1555 0.962 . S
C1542 H1556 0.960 . S
C1543 C1540 1.511 . S
C1543 H1557 0.961 . S
C1543 H1558 0.961 . S
C1543 H1559 0.961 . S
C1544 C1545 1.370 . S
C1544 C1546 1.363 . S
C1544 H1560 0.931 . S
C1545 C1544 1.370 . S
C1545 C1549 1.408 . S
C1546 C1544 1.363 . S
C1546 C1547 1.370 . S
C1546 C1550 1.524 . S
C1547 C1539 1.503 . S
C1547 C1546 1.370 . S
C1547 C1548 1.403 . S
C1548 C1547 1.403 . S
C1548 C1549 1.404 . S
C1548 C1551 1.539 . S
C1549 C1545 1.408 . S
C1549 C1548 1.404 . S
C1549 H1561 0.930 . S
C1550 C1546 1.524 . S
C1550 H1562 0.956 . S
C1550 H1563 0.961 . S
C1550 H1564 0.961 . S
C1551 C1548 1.539 . S
C1551 H1565 0.958 . S
C1551 H1566 0.961 . S
C1551 H1567 0.960 . S
H1552 C1536 0.931 . S
H1553 C1541 0.929 . S
H1554 C1542 0.960 . S
H1555 C1542 0.962 . S
H1556 C1542 0.960 . S
H1557 C1543 0.961 . S
H1558 C1543 0.961 . S
H1559 C1543 0.961 . S
H1560 C1544 0.931 . S
H1561 C1549 0.930 . S
H1562 C1550 0.956 . S
H1563 C1550 0.961 . S
H1564 C1550 0.961 . S
H1565 C1551 0.958 . S
H1566 C1551 0.961 . S
H1567 C1551 0.960 . S
C1568 C1569 1.391 . S
C1568 C1570 1.394 . S
C1568 H1584 0.931 . S
C1569 C1568 1.391 . S
C1569 C1573 1.376 . S
C1570 C1568 1.394 . S
C1570 C1571 1.369 . S
C1570 C1574 1.531 . S
C1571 C1570 1.369 . S
C1571 C1572 1.410 . S
C1571 C1579 1.503 . S
C1572 C1571 1.410 . S
C1572 C1573 1.392 . S
C1572 C1575 1.511 . S
C1573 C1569 1.376 . S
C1573 C1572 1.392 . S
C1573 H1585 0.929 . S
C1574 C1570 1.531 . S
C1574 H1586 0.960 . S
C1574 H1587 0.962 . S
C1574 H1588 0.960 . S
C1575 C1572 1.511 . S
C1575 H1589 0.961 . S
C1575 H1590 0.961 . S
C1575 H1591 0.961 . S
C1576 C1577 1.370 . S
C1576 C1578 1.363 . S
C1576 H1592 0.931 . S
C1577 C1576 1.370 . S
C1577 C1581 1.408 . S
C1578 C1576 1.363 . S
C1578 C1579 1.370 . S
C1578 C1582 1.524 . S
C1579 C1571 1.503 . S
C1579 C1578 1.370 . S
C1579 C1580 1.403 . S
C1580 C1579 1.403 . S
C1580 C1581 1.404 . S
C1580 C1583 1.539 . S
C1581 C1577 1.408 . S
C1581 C1580 1.404 . S
C1581 H1593 0.930 . S
C1582 C1578 1.524 . S
C1582 H1594 0.956 . S
C1582 H1595 0.961 . S
C1582 H1596 0.961 . S
C1583 C1580 1.539 . S
C1583 H1597 0.958 . S
C1583 H1598 0.961 . S
C1583 H1599 0.960 . S
H1584 C1568 0.931 . S
H1585 C1573 0.929 . S
H1586 C1574 0.960 . S
H1587 C1574 0.962 . S
H1588 C1574 0.960 . S
H1589 C1575 0.961 . S
H1590 C1575 0.961 . S
H1591 C1575 0.961 . S
H1592 C1576 0.931 . S
H1593 C1581 0.930 . S
H1594 C1582 0.956 . S
H1595 C1582 0.961 . S
H1596 C1582 0.961 . S
H1597 C1583 0.958 . S
H1598 C1583 0.961 . S
H1599 C1583 0.960 . S
C1600 C1601 1.391 . S
C1600 C1602 1.394 . S
C1600 H1616 0.931 . S
C1601 C1600 1.391 . S
C1601 C1605 1.376 . S
C1602 C1600 1.394 . S
C1602 C1603 1.369 . S
C1602 C1606 1.531 . S
C1603 C1602 1.369 . S
C1603 C1604 1.410 . S
C1603 C1611 1.503 . S
C1604 C1603 1.410 . S
C1604 C1605 1.392 . S
C1604 C1607 1.511 . S
C1605 C1601 1.376 . S
C1605 C1604 1.392 . S
C1605 H1617 0.929 . S
C1606 C1602 1.531 . S
C1606 H1618 0.960 . S
C1606 H1619 0.962 . S
C1606 H1620 0.960 . S
C1607 C1604 1.511 . S
C1607 H1621 0.961 . S
C1607 H1622 0.961 . S
C1607 H1623 0.961 . S
C1608 C1609 1.370 . S
C1608 C1610 1.363 . S
C1608 H1624 0.931 . S
C1609 C1608 1.370 . S
C1609 C1613 1.408 . S
C1610 C1608 1.363 . S
C1610 C1611 1.370 . S
C1610 C1614 1.524 . S
C1611 C1603 1.503 . S
C1611 C1610 1.370 . S
C1611 C1612 1.403 . S
C1612 C1611 1.403 . S
C1612 C1613 1.404 . S
C1612 C1615 1.539 . S
C1613 C1609 1.408 . S
C1613 C1612 1.404 . S
C1613 H1625 0.930 . S
C1614 C1610 1.524 . S
C1614 H1626 0.956 . S
C1614 H1627 0.961 . S
C1614 H1628 0.961 . S
C1615 C1612 1.539 . S
C1615 H1629 0.958 . S
C1615 H1630 0.961 . S
C1615 H1631 0.960 . S
H1616 C1600 0.931 . S
H1617 C1605 0.929 . S
H1618 C1606 0.960 . S
H1619 C1606 0.962 . S
H1620 C1606 0.960 . S
H1621 C1607 0.961 . S
H1622 C1607 0.961 . S
H1623 C1607 0.961 . S
H1624 C1608 0.931 . S
H1625 C1613 0.930 . S
H1626 C1614 0.956 . S
H1627 C1614 0.961 . S
H1628 C1614 0.961 . S
H1629 C1615 0.958 . S
H1630 C1615 0.961 . S
H1631 C1615 0.960 . S
C1632 C1633 1.391 . S
C1632 C1634 1.394 . S
C1632 H1648 0.931 . S
C1633 C1632 1.391 . S
C1633 C1637 1.376 . S
C1634 C1632 1.394 . S
C1634 C1635 1.369 . S
C1634 C1638 1.531 . S
C1635 C1634 1.369 . S
C1635 C1636 1.410 . S
C1635 C1643 1.503 . S
C1636 C1635 1.410 . S
C1636 C1637 1.392 . S
C1636 C1639 1.511 . S
C1637 C1633 1.376 . S
C1637 C1636 1.392 . S
C1637 H1649 0.929 . S
C1638 C1634 1.531 . S
C1638 H1650 0.960 . S
C1638 H1651 0.962 . S
C1638 H1652 0.960 . S
C1639 C1636 1.511 . S
C1639 H1653 0.961 . S
C1639 H1654 0.961 . S
C1639 H1655 0.961 . S
C1640 C1641 1.370 . S
C1640 C1642 1.363 . S
C1640 H1656 0.931 . S
C1641 C1640 1.370 . S
C1641 C1645 1.408 . S
C1642 C1640 1.363 . S
C1642 C1643 1.370 . S
C1642 C1646 1.524 . S
C1643 C1635 1.503 . S
C1643 C1642 1.370 . S
C1643 C1644 1.403 . S
C1644 C1643 1.403 . S
C1644 C1645 1.404 . S
C1644 C1647 1.539 . S
C1645 C1641 1.408 . S
C1645 C1644 1.404 . S
C1645 H1657 0.930 . S
C1646 C1642 1.524 . S
C1646 H1658 0.956 . S
C1646 H1659 0.961 . S
C1646 H1660 0.961 . S
C1647 C1644 1.539 . S
C1647 H1661 0.958 . S
C1647 H1662 0.961 . S
C1647 H1663 0.960 . S
H1648 C1632 0.931 . S
H1649 C1637 0.929 . S
H1650 C1638 0.960 . S
H1651 C1638 0.962 . S
H1652 C1638 0.960 . S
H1653 C1639 0.961 . S
H1654 C1639 0.961 . S
H1655 C1639 0.961 . S
H1656 C1640 0.931 . S
H1657 C1645 0.930 . S
H1658 C1646 0.956 . S
H1659 C1646 0.961 . S
H1660 C1646 0.961 . S
H1661 C1647 0.958 . S
H1662 C1647 0.961 . S
H1663 C1647 0.960 . S
C1664 C1665 1.391 . S
C1664 C1666 1.394 . S
C1664 H1680 0.931 . S
C1665 C1664 1.391 . S
C1665 C1669 1.376 . S
C1666 C1664 1.394 . S
C1666 C1667 1.369 . S
C1666 C1670 1.531 . S
C1667 C1666 1.369 . S
C1667 C1668 1.410 . S
C1667 C1675 1.503 . S
C1668 C1667 1.410 . S
C1668 C1669 1.392 . S
C1668 C1671 1.511 . S
C1669 C1665 1.376 . S
C1669 C1668 1.392 . S
C1669 H1681 0.929 . S
C1670 C1666 1.531 . S
C1670 H1682 0.960 . S
C1670 H1683 0.962 . S
C1670 H1684 0.960 . S
C1671 C1668 1.511 . S
C1671 H1685 0.961 . S
C1671 H1686 0.961 . S
C1671 H1687 0.961 . S
C1672 C1673 1.370 . S
C1672 C1674 1.363 . S
C1672 H1688 0.931 . S
C1673 C1672 1.370 . S
C1673 C1677 1.408 . S
C1674 C1672 1.363 . S
C1674 C1675 1.370 . S
C1674 C1678 1.524 . S
C1675 C1667 1.503 . S
C1675 C1674 1.370 . S
C1675 C1676 1.403 . S
C1676 C1675 1.403 . S
C1676 C1677 1.404 . S
C1676 C1679 1.539 . S
C1677 C1673 1.408 . S
C1677 C1676 1.404 . S
C1677 H1689 0.930 . S
C1678 C1674 1.524 . S
C1678 H1690 0.956 . S
C1678 H1691 0.961 . S
C1678 H1692 0.961 . S
C1679 C1676 1.539 . S
C1679 H1693 0.958 . S
C1679 H1694 0.961 . S
C1679 H1695 0.960 . S
H1680 C1664 0.931 . S
H1681 C1669 0.929 . S
H1682 C1670 0.960 . S
H1683 C1670 0.962 . S
H1684 C1670 0.960 . S
H1685 C1671 0.961 . S
H1686 C1671 0.961 . S
H1687 C1671 0.961 . S
H1688 C1672 0.931 . S
H1689 C1677 0.930 . S
H1690 C1678 0.956 . S
H1691 C1678 0.961 . S
H1692 C1678 0.961 . S
H1693 C1679 0.958 . S
H1694 C1679 0.961 . S
H1695 C1679 0.960 . S
C1696 C1697 1.391 . S
C1696 C1698 1.394 . S
C1696 H1712 0.931 . S
C1697 C1696 1.391 . S
C1697 C1701 1.376 . S
C1698 C1696 1.394 . S
C1698 C1699 1.369 . S
C1698 C1702 1.531 . S
C1699 C1698 1.369 . S
C1699 C1700 1.410 . S
C1699 C1707 1.503 . S
C1700 C1699 1.410 . S
C1700 C1701 1.392 . S
C1700 C1703 1.511 . S
C1701 C1697 1.376 . S
C1701 C1700 1.392 . S
C1701 H1713 0.929 . S
C1702 C1698 1.531 . S
C1702 H1714 0.960 . S
C1702 H1715 0.962 . S
C1702 H1716 0.960 . S
C1703 C1700 1.511 . S
C1703 H1717 0.961 . S
C1703 H1718 0.961 . S
C1703 H1719 0.961 . S
C1704 C1705 1.370 . S
C1704 C1706 1.363 . S
C1704 H1720 0.931 . S
C1705 C1704 1.370 . S
C1705 C1709 1.408 . S
C1706 C1704 1.363 . S
C1706 C1707 1.370 . S
C1706 C1710 1.524 . S
C1707 C1699 1.503 . S
C1707 C1706 1.370 . S
C1707 C1708 1.403 . S
C1708 C1707 1.403 . S
C1708 C1709 1.404 . S
C1708 C1711 1.539 . S
C1709 C1705 1.408 . S
C1709 C1708 1.404 . S
C1709 H1721 0.930 . S
C1710 C1706 1.524 . S
C1710 H1722 0.956 . S
C1710 H1723 0.961 . S
C1710 H1724 0.961 . S
C1711 C1708 1.539 . S
C1711 H1725 0.958 . S
C1711 H1726 0.961 . S
C1711 H1727 0.960 . S
H1712 C1696 0.931 . S
H1713 C1701 0.929 . S
H1714 C1702 0.960 . S
H1715 C1702 0.962 . S
H1716 C1702 0.960 . S
H1717 C1703 0.961 . S
H1718 C1703 0.961 . S
H1719 C1703 0.961 . S
H1720 C1704 0.931 . S
H1721 C1709 0.930 . S
H1722 C1710 0.956 . S
H1723 C1710 0.961 . S
H1724 C1710 0.961 . S
H1725 C1711 0.958 . S
H1726 C1711 0.961 . S
H1727 C1711 0.960 . S
C1728 C1729 1.391 . S
C1728 C1730 1.394 . S
C1728 H1744 0.931 . S
C1729 C1728 1.391 . S
C1729 C1733 1.376 . S
C1730 C1728 1.394 . S
C1730 C1731 1.369 . S
C1730 C1734 1.531 . S
C1731 C1730 1.369 . S
C1731 C1732 1.410 . S
C1731 C1739 1.503 . S
C1732 C1731 1.410 . S
C1732 C1733 1.392 . S
C1732 C1735 1.511 . S
C1733 C1729 1.376 . S
C1733 C1732 1.392 . S
C1733 H1745 0.929 . S
C1734 C1730 1.531 . S
C1734 H1746 0.960 . S
C1734 H1747 0.962 . S
C1734 H1748 0.960 . S
C1735 C1732 1.511 . S
C1735 H1749 0.961 . S
C1735 H1750 0.961 . S
C1735 H1751 0.961 . S
C1736 C1737 1.370 . S
C1736 C1738 1.363 . S
C1736 H1752 0.931 . S
C1737 C1736 1.370 . S
C1737 C1741 1.408 . S
C1738 C1736 1.363 . S
C1738 C1739 1.370 . S
C1738 C1742 1.524 . S
C1739 C1731 1.503 . S
C1739 C1738 1.370 . S
C1739 C1740 1.403 . S
C1740 C1739 1.403 . S
C1740 C1741 1.404 . S
C1740 C1743 1.539 . S
C1741 C1737 1.408 . S
C1741 C1740 1.404 . S
C1741 H1753 0.930 . S
C1742 C1738 1.524 . S
C1742 H1754 0.956 . S
C1742 H1755 0.961 . S
C1742 H1756 0.961 . S
C1743 C1740 1.539 . S
C1743 H1757 0.958 . S
C1743 H1758 0.961 . S
C1743 H1759 0.960 . S
H1744 C1728 0.931 . S
H1745 C1733 0.929 . S
H1746 C1734 0.960 . S
H1747 C1734 0.962 . S
H1748 C1734 0.960 . S
H1749 C1735 0.961 . S
H1750 C1735 0.961 . S
H1751 C1735 0.961 . S
H1752 C1736 0.931 . S
H1753 C1741 0.930 . S
H1754 C1742 0.956 . S
H1755 C1742 0.961 . S
H1756 C1742 0.961 . S
H1757 C1743 0.958 . S
H1758 C1743 0.961 . S
H1759 C1743 0.960 . S
C1760 C1761 1.391 . S
C1760 C1762 1.394 . S
C1760 H1776 0.931 . S
C1761 C1760 1.391 . S
C1761 C1765 1.376 . S
C1762 C1760 1.394 . S
C1762 C1763 1.369 . S
C1762 C1766 1.531 . S
C1763 C1762 1.369 . S
C1763 C1764 1.410 . S
C1763 C1771 1.503 . S
C1764 C1763 1.410 . S
C1764 C1765 1.392 . S
C1764 C1767 1.511 . S
C1765 C1761 1.376 . S
C1765 C1764 1.392 . S
C1765 H1777 0.929 . S
C1766 C1762 1.531 . S
C1766 H1778 0.960 . S
C1766 H1779 0.962 . S
C1766 H1780 0.960 . S
C1767 C1764 1.511 . S
C1767 H1781 0.961 . S
C1767 H1782 0.961 . S
C1767 H1783 0.961 . S
C1768 C1769 1.370 . S
C1768 C1770 1.363 . S
C1768 H1784 0.931 . S
C1769 C1768 1.370 . S
C1769 C1773 1.408 . S
C1770 C1768 1.363 . S
C1770 C1771 1.370 . S
C1770 C1774 1.524 . S
C1771 C1763 1.503 . S
C1771 C1770 1.370 . S
C1771 C1772 1.403 . S
C1772 C1771 1.403 . S
C1772 C1773 1.404 . S
C1772 C1775 1.539 . S
C1773 C1769 1.408 . S
C1773 C1772 1.404 . S
C1773 H1785 0.930 . S
C1774 C1770 1.524 . S
C1774 H1786 0.956 . S
C1774 H1787 0.961 . S
C1774 H1788 0.961 . S
C1775 C1772 1.539 . S
C1775 H1789 0.958 . S
C1775 H1790 0.961 . S
C1775 H1791 0.960 . S
H1776 C1760 0.931 . S
H1777 C1765 0.929 . S
H1778 C1766 0.960 . S
H1779 C1766 0.962 . S
H1780 C1766 0.960 . S
H1781 C1767 0.961 . S
H1782 C1767 0.961 . S
H1783 C1767 0.961 . S
H1784 C1768 0.931 . S
H1785 C1773 0.930 . S
H1786 C1774 0.956 . S
H1787 C1774 0.961 . S
H1788 C1774 0.961 . S
H1789 C1775 0.958 . S
H1790 C1775 0.961 . S
H1791 C1775 0.960 . S
C1792 C1793 1.391 . S
C1792 C1794 1.394 . S
C1792 H1808 0.931 . S
C1793 C1792 1.391 . S
C1793 C1797 1.376 . S
C1794 C1792 1.394 . S
C1794 C1795 1.369 . S
C1794 C1798 1.531 . S
C1795 C1794 1.369 . S
C1795 C1796 1.410 . S
C1795 C1803 1.503 . S
C1796 C1795 1.410 . S
C1796 C1797 1.392 . S
C1796 C1799 1.511 . S
C1797 C1793 1.376 . S
C1797 C1796 1.392 . S
C1797 H1809 0.929 . S
C1798 C1794 1.531 . S
C1798 H1810 0.960 . S
C1798 H1811 0.962 . S
C1798 H1812 0.960 . S
C1799 C1796 1.511 . S
C1799 H1813 0.961 . S
C1799 H1814 0.961 . S
C1799 H1815 0.961 . S
C1800 C1801 1.370 . S
C1800 C1802 1.363 . S
C1800 H1816 0.931 . S
C1801 C1800 1.370 . S
C1801 C1805 1.408 . S
C1802 C1800 1.363 . S
C1802 C1803 1.370 . S
C1802 C1806 1.524 . S
C1803 C1795 1.503 . S
C1803 C1802 1.370 . S
C1803 C1804 1.403 . S
C1804 C1803 1.403 . S
C1804 C1805 1.404 . S
C1804 C1807 1.539 . S
C1805 C1801 1.408 . S
C1805 C1804 1.404 . S
C1805 H1817 0.930 . S
C1806 C1802 1.524 . S
C1806 H1818 0.956 . S
C1806 H1819 0.961 . S
C1806 H1820 0.961 . S
C1807 C1804 1.539 . S
C1807 H1821 0.958 . S
C1807 H1822 0.961 . S
C1807 H1823 0.960 . S
H1808 C1792 0.931 . S
H1809 C1797 0.929 . S
H1810 C1798 0.960 . S
H1811 C1798 0.962 . S
H1812 C1798 0.960 . S
H1813 C1799 0.961 . S
H1814 C1799 0.961 . S
H1815 C1799 0.961 . S
H1816 C1800 0.931 . S
H1817 C1805 0.930 . S
H1818 C1806 0.956 . S
H1819 C1806 0.961 . S
H1820 C1806 0.961 . S
H1821 C1807 0.958 . S
H1822 C1807 0.961 . S
H1823 C1807 0.960 . S
C1824 C1825 1.391 . S
C1824 C1826 1.394 . S
C1824 H1840 0.931 . S
C1825 C1824 1.391 . S
C1825 C1829 1.376 . S
C1826 C1824 1.394 . S
C1826 C1827 1.369 . S
C1826 C1830 1.531 . S
C1827 C1826 1.369 . S
C1827 C1828 1.410 . S
C1827 C1835 1.503 . S
C1828 C1827 1.410 . S
C1828 C1829 1.392 . S
C1828 C1831 1.511 . S
C1829 C1825 1.376 . S
C1829 C1828 1.392 . S
C1829 H1841 0.929 . S
C1830 C1826 1.531 . S
C1830 H1842 0.960 . S
C1830 H1843 0.962 . S
C1830 H1844 0.960 . S
C1831 C1828 1.511 . S
C1831 H1845 0.961 . S
C1831 H1846 0.961 . S
C1831 H1847 0.961 . S
C1832 C1833 1.370 . S
C1832 C1834 1.363 . S
C1832 H1848 0.931 . S
C1833 C1832 1.370 . S
C1833 C1837 1.408 . S
C1834 C1832 1.363 . S
C1834 C1835 1.370 . S
C1834 C1838 1.524 . S
C1835 C1827 1.503 . S
C1835 C1834 1.370 . S
C1835 C1836 1.403 . S
C1836 C1835 1.403 . S
C1836 C1837 1.404 . S
C1836 C1839 1.539 . S
C1837 C1833 1.408 . S
C1837 C1836 1.404 . S
C1837 H1849 0.930 . S
C1838 C1834 1.524 . S
C1838 H1850 0.956 . S
C1838 H1851 0.961 . S
C1838 H1852 0.961 . S
C1839 C1836 1.539 . S
C1839 H1853 0.958 . S
C1839 H1854 0.961 . S
C1839 H1855 0.960 . S
H1840 C1824 0.931 . S
H1841 C1829 0.929 . S
H1842 C1830 0.960 . S
H1843 C1830 0.962 . S
H1844 C1830 0.960 . S
H1845 C1831 0.961 . S
H1846 C1831 0.961 . S
H1847 C1831 0.961 . S
H1848 C1832 0.931 . S
H1849 C1837 0.930 . S
H1850 C1838 0.956 . S
H1851 C1838 0.961 . S
H1852 C1838 0.961 . S
H1853 C1839 0.958 . S
H1854 C1839 0.961 . S
H1855 C1839 0.960 . S
C1856 C1857 1.391 . S
C1856 C1858 1.394 . S
C1856 H1872 0.931 . S
C1857 C1856 1.391 . S
C1857 C1861 1.376 . S
C1858 C1856 1.394 . S
C1858 C1859 1.369 . S
C1858 C1862 1.531 . S
C1859 C1858 1.369 . S
C1859 C1860 1.410 . S
C1859 C1867 1.503 . S
C1860 C1859 1.410 . S
C1860 C1861 1.392 . S
C1860 C1863 1.511 . S
C1861 C1857 1.376 . S
C1861 C1860 1.392 . S
C1861 H1873 0.929 . S
C1862 C1858 1.531 . S
C1862 H1874 0.960 . S
C1862 H1875 0.962 . S
C1862 H1876 0.960 . S
C1863 C1860 1.511 . S
C1863 H1877 0.961 . S
C1863 H1878 0.961 . S
C1863 H1879 0.961 . S
C1864 C1865 1.370 . S
C1864 C1866 1.363 . S
C1864 H1880 0.931 . S
C1865 C1864 1.370 . S
C1865 C1869 1.408 . S
C1866 C1864 1.363 . S
C1866 C1867 1.370 . S
C1866 C1870 1.524 . S
C1867 C1859 1.503 . S
C1867 C1866 1.370 . S
C1867 C1868 1.403 . S
C1868 C1867 1.403 . S
C1868 C1869 1.404 . S
C1868 C1871 1.539 . S
C1869 C1865 1.408 . S
C1869 C1868 1.404 . S
C1869 H1881 0.930 . S
C1870 C1866 1.524 . S
C1870 H1882 0.956 . S
C1870 H1883 0.961 . S
C1870 H1884 0.961 . S
C1871 C1868 1.539 . S
C1871 H1885 0.958 . S
C1871 H1886 0.961 . S
C1871 H1887 0.960 . S
H1872 C1856 0.931 . S
H1873 C1861 0.929 . S
H1874 C1862 0.960 . S
H1875 C1862 0.962 . S
H1876 C1862 0.960 . S
H1877 C1863 0.961 . S
H1878 C1863 0.961 . S
H1879 C1863 0.961 . S
H1880 C1864 0.931 . S
H1881 C1869 0.930 . S
H1882 C1870 0.956 . S
H1883 C1870 0.961 . S
H1884 C1870 0.961 . S
H1885 C1871 0.958 . S
H1886 C1871 0.961 . S
H1887 C1871 0.960 . S
C1888 C1889 1.391 . S
C1888 C1890 1.394 . S
C1888 H1904 0.931 . S
C1889 C1888 1.391 . S
C1889 C1893 1.376 . S
C1890 C1888 1.394 . S
C1890 C1891 1.369 . S
C1890 C1894 1.531 . S
C1891 C1890 1.369 . S
C1891 C1892 1.410 . S
C1891 C1899 1.503 . S
C1892 C1891 1.410 . S
C1892 C1893 1.392 . S
C1892 C1895 1.511 . S
C1893 C1889 1.376 . S
C1893 C1892 1.392 . S
C1893 H1905 0.929 . S
C1894 C1890 1.531 . S
C1894 H1906 0.960 . S
C1894 H1907 0.962 . S
C1894 H1908 0.960 . S
C1895 C1892 1.511 . S
C1895 H1909 0.961 . S
C1895 H1910 0.961 . S
C1895 H1911 0.961 . S
C1896 C1897 1.370 . S
C1896 C1898 1.363 . S
C1896 H1912 0.931 . S
C1897 C1896 1.370 . S
C1897 C1901 1.408 . S
C1898 C1896 1.363 . S
C1898 C1899 1.370 . S
C1898 C1902 1.524 . S
C1899 C1891 1.503 . S
C1899 C1898 1.370 . S
C1899 C1900 1.403 . S
C1900 C1899 1.403 . S
C1900 C1901 1.404 . S
C1900 C1903 1.539 . S
C1901 C1897 1.408 . S
C1901 C1900 1.404 . S
C1901 H1913 0.930 . S
C1902 C1898 1.524 . S
C1902 H1914 0.956 . S
C1902 H1915 0.961 . S
C1902 H1916 0.961 . S
C1903 C1900 1.539 . S
C1903 H1917 0.958 . S
C1903 H1918 0.961 . S
C1903 H1919 0.960 . S
H1904 C1888 0.931 . S
H1905 C1893 0.929 . S
H1906 C1894 0.960 . S
H1907 C1894 0.962 . S
H1908 C1894 0.960 . S
H1909 C1895 0.961 . S
H1910 C1895 0.961 . S
H1911 C1895 0.961 . S
H1912 C1896 0.931 . S
H1913 C1901 0.930 . S
H1914 C1902 0.956 . S
H1915 C1902 0.961 . S
H1916 C1902 0.961 . S
H1917 C1903 0.958 . S
H1918 C1903 0.961 . S
H1919 C1903 0.960 . S
C1920 C1921 1.391 . S
C1920 C1922 1.394 . S
C1920 H1936 0.931 . S
C1921 C1920 1.391 . S
C1921 C1925 1.376 . S
C1922 C1920 1.394 . S
C1922 C1923 1.369 . S
C1922 C1926 1.531 . S
C1923 C1922 1.369 . S
C1923 C1924 1.410 . S
C1923 C1931 1.503 . S
C1924 C1923 1.410 . S
C1924 C1925 1.392 . S
C1924 C1927 1.511 . S
C1925 C1921 1.376 . S
C1925 C1924 1.392 . S
C1925 H1937 0.929 . S
C1926 C1922 1.531 . S
C1926 H1938 0.960 . S
C1926 H1939 0.962 . S
C1926 H1940 0.960 . S
C1927 C1924 1.511 . S
C1927 H1941 0.961 . S
C1927 H1942 0.961 . S
C1927 H1943 0.961 . S
C1928 C1929 1.370 . S
C1928 C1930 1.363 . S
C1928 H1944 0.931 . S
C1929 C1928 1.370 . S
C1929 C1933 1.408 . S
C1930 C1928 1.363 . S
C1930 C1931 1.370 . S
C1930 C1934 1.524 . S
C1931 C1923 1.503 . S
C1931 C1930 1.370 . S
C1931 C1932 1.403 . S
C1932 C1931 1.403 . S
C1932 C1933 1.404 . S
C1932 C1935 1.539 . S
C1933 C1929 1.408 . S
C1933 C1932 1.404 . S
C1933 H1945 0.930 . S
C1934 C1930 1.524 . S
C1934 H1946 0.956 . S
C1934 H1947 0.961 . S
C1934 H1948 0.961 . S
C1935 C1932 1.539 . S
C1935 H1949 0.958 . S
C1935 H1950 0.961 . S
C1935 H1951 0.960 . S
H1936 C1920 0.931 . S
H1937 C1925 0.929 . S
H1938 C1926 0.960 . S
H1939 C1926 0.962 . S
H1940 C1926 0.960 . S
H1941 C1927 0.961 . S
H1942 C1927 0.961 . S
H1943 C1927 0.961 . S
H1944 C1928 0.931 . S
H1945 C1933 0.930 . S
H1946 C1934 0.956 . S
H1947 C1934 0.961 . S
H1948 C1934 0.961 . S
H1949 C1935 0.958 . S
H1950 C1935 0.961 . S
H1951 C1935 0.960 . S
C1952 C1953 1.391 . S
C1952 C1954 1.394 . S
C1952 H1968 0.931 . S
C1953 C1952 1.391 . S
C1953 C1957 1.376 . S
C1954 C1952 1.394 . S
C1954 C1955 1.369 . S
C1954 C1958 1.531 . S
C1955 C1954 1.369 . S
C1955 C1956 1.410 . S
C1955 C1963 1.503 . S
C1956 C1955 1.410 . S
C1956 C1957 1.392 . S
C1956 C1959 1.511 . S
C1957 C1953 1.376 . S
C1957 C1956 1.392 . S
C1957 H1969 0.929 . S
C1958 C1954 1.531 . S
C1958 H1970 0.960 . S
C1958 H1971 0.962 . S
C1958 H1972 0.960 . S
C1959 C1956 1.511 . S
C1959 H1973 0.961 . S
C1959 H1974 0.961 . S
C1959 H1975 0.961 . S
C1960 C1961 1.370 . S
C1960 C1962 1.363 . S
C1960 H1976 0.931 . S
C1961 C1960 1.370 . S
C1961 C1965 1.408 . S
C1962 C1960 1.363 . S
C1962 C1963 1.370 . S
C1962 C1966 1.524 . S
C1963 C1955 1.503 . S
C1963 C1962 1.370 . S
C1963 C1964 1.403 . S
C1964 C1963 1.403 . S
C1964 C1965 1.404 . S
C1964 C1967 1.539 . S
C1965 C1961 1.408 . S
C1965 C1964 1.404 . S
C1965 H1977 0.930 . S
C1966 C1962 1.524 . S
C1966 H1978 0.956 . S
C1966 H1979 0.961 . S
C1966 H1980 0.961 . S
C1967 C1964 1.539 . S
C1967 H1981 0.958 . S
C1967 H1982 0.961 . S
C1967 H1983 0.960 . S
H1968 C1952 0.931 . S
H1969 C1957 0.929 . S
H1970 C1958 0.960 . S
H1971 C1958 0.962 . S
H1972 C1958 0.960 . S
H1973 C1959 0.961 . S
H1974 C1959 0.961 . S
H1975 C1959 0.961 . S
H1976 C1960 0.931 . S
H1977 C1965 0.930 . S
H1978 C1966 0.956 . S
H1979 C1966 0.961 . S
H1980 C1966 0.961 . S
H1981 C1967 0.958 . S
H1982 C1967 0.961 . S
H1983 C1967 0.960 . S
C1984 C1985 1.391 . S
C1984 C1986 1.394 . S
C1984 H2000 0.931 . S
C1985 C1984 1.391 . S
C1985 C1989 1.376 . S
C1986 C1984 1.394 . S
C1986 C1987 1.369 . S
C1986 C1990 1.531 . S
C1987 C1986 1.369 . S
C1987 C1988 1.410 . S
C1987 C1995 1.503 . S
C1988 C1987 1.410 . S
C1988 C1989 1.392 . S
C1988 C1991 1.511 . S
C1989 C1985 1.376 . S
C1989 C1988 1.392 . S
C1989 H2001 0.929 . S
C1990 C1986 1.531 . S
C1990 H2002 0.960 . S
C1990 H2003 0.962 . S
C1990 H2004 0.960 . S
C1991 C1988 1.511 . S
C1991 H2005 0.961 . S
C1991 H2006 0.961 . S
C1991 H2007 0.961 . S
C1992 C1993 1.370 . S
C1992 C1994 1.363 . S
C1992 H2008 0.931 . S
C1993 C1992 1.370 . S
C1993 C1997 1.408 . S
C1994 C1992 1.363 . S
C1994 C1995 1.370 . S
C1994 C1998 1.524 . S
C1995 C1987 1.503 . S
C1995 C1994 1.370 . S
C1995 C1996 1.403 . S
C1996 C1995 1.403 . S
C1996 C1997 1.404 . S
C1996 C1999 1.539 . S
C1997 C1993 1.408 . S
C1997 C1996 1.404 . S
C1997 H2009 0.930 . S
C1998 C1994 1.524 . S
C1998 H2010 0.956 . S
C1998 H2011 0.961 . S
C1998 H2012 0.961 . S
C1999 C1996 1.539 . S
C1999 H2013 0.958 . S
C1999 H2014 0.961 . S
C1999 H2015 0.960 . S
H2000 C1984 0.931 . S
H2001 C1989 0.929 . S
H2002 C1990 0.960 . S
H2003 C1990 0.962 . S
H2004 C1990 0.960 . S
H2005 C1991 0.961 . S
H2006 C1991 0.961 . S
H2007 C1991 0.961 . S
H2008 C1992 0.931 . S
H2009 C1997 0.930 . S
H2010 C1998 0.956 . S
H2011 C1998 0.961 . S
H2012 C1998 0.961 . S
H2013 C1999 0.958 . S
H2014 C1999 0.961 . S
H2015 C1999 0.960 . S
C2016 C2017 1.391 . S
C2016 C2018 1.394 . S
C2016 H2032 0.931 . S
C2017 C2016 1.391 . S
C2017 C2021 1.376 . S
C2018 C2016 1.394 . S
C2018 C2019 1.369 . S
C2018 C2022 1.531 . S
C2019 C2018 1.369 . S
C2019 C2020 1.410 . S
C2019 C2027 1.503 . S
C2020 C2019 1.410 . S
C2020 C2021 1.392 . S
C2020 C2023 1.511 . S
C2021 C2017 1.376 . S
C2021 C2020 1.392 . S
C2021 H2033 0.929 . S
C2022 C2018 1.531 . S
C2022 H2034 0.960 . S
C2022 H2035 0.962 . S
C2022 H2036 0.960 . S
C2023 C2020 1.511 . S
C2023 H2037 0.961 . S
C2023 H2038 0.961 . S
C2023 H2039 0.961 . S
C2024 C2025 1.370 . S
C2024 C2026 1.363 . S
C2024 H2040 0.931 . S
C2025 C2024 1.370 . S
C2025 C2029 1.408 . S
C2026 C2024 1.363 . S
C2026 C2027 1.370 . S
C2026 C2030 1.524 . S
C2027 C2019 1.503 . S
C2027 C2026 1.370 . S
C2027 C2028 1.403 . S
C2028 C2027 1.403 . S
C2028 C2029 1.404 . S
C2028 C2031 1.539 . S
C2029 C2025 1.408 . S
C2029 C2028 1.404 . S
C2029 H2041 0.930 . S
C2030 C2026 1.524 . S
C2030 H2042 0.956 . S
C2030 H2043 0.961 . S
C2030 H2044 0.961 . S
C2031 C2028 1.539 . S
C2031 H2045 0.958 . S
C2031 H2046 0.961 . S
C2031 H2047 0.960 . S
H2032 C2016 0.931 . S
H2033 C2021 0.929 . S
H2034 C2022 0.960 . S
H2035 C2022 0.962 . S
H2036 C2022 0.960 . S
H2037 C2023 0.961 . S
H2038 C2023 0.961 . S
H2039 C2023 0.961 . S
H2040 C2024 0.931 . S
H2041 C2029 0.930 . S
H2042 C2030 0.956 . S
H2043 C2030 0.961 . S
H2044 C2030 0.961 . S
H2045 C2031 0.958 . S
H2046 C2031 0.961 . S
H2047 C2031 0.960 . S
C1033 C913 1.515 . S
C1025 C29 1.147 . S
C1065 C939 1.669 . S
C1057 C125 1.014 . S
C1097 C953 1.522 . S
C1089 C257 1.286 . S
C1129 C955 1.668 . S
C1121 C353 1.045 . S
C1153 C457 1.224 . S
C1161 C952 1.480 . S
C1193 C954 1.654 . S
C1185 C625 1.237 . S
C1225 C912 1.482 . S
C1217 C685 1.102 . S
C1257 C938 1.660 . S
C1249 C853 1.311 . S
C1289 C940 1.692 . S
C1281 C809 1.116 . S
C1321 C966 1.508 . S
C1313 C485 1.245 . S
C1353 C924 1.694 . S
C1345 C581 1.034 . S
C1385 C926 1.506 . S
C1377 C713 1.290 . S
C1417 C925 1.682 . S
C1409 C169 1.291 . S
C1449 C927 1.470 . S
C1441 C229 1.221 . S
C1481 C941 1.686 . S
C1473 C397 1.229 . S
C1513 C967 1.475 . S
C1505 C1 1.104 . S
C1545 C969 1.515 . S
C1537 C827 1.169 . S
C1569 C467 1.048 . S
C1577 C995 1.668 . S
C1601 C599 1.189 . S
C1609 C1008 1.519 . S
C1633 C695 0.887 . S
C1641 C1011 1.683 . S
C1665 C115 1.090 . S
C1673 C1009 1.483 . S
C1697 C283 1.334 . S
C1705 C1010 1.663 . S
C1729 C343 1.236 . S
C1737 C968 1.478 . S
C1769 C994 1.665 . S
C1761 C55 1.364 . S
C1801 C997 1.694 . S
C1793 C11 1.082 . S
C1825 C143 1.299 . S
C1833 C1022 1.505 . S
C1857 C239 1.055 . S
C1865 C980 1.706 . S
C1889 C371 1.225 . S
C1897 C982 1.509 . S
C1929 C981 1.675 . S
C1921 C511 1.175 . S
C1961 C983 1.473 . S
C1953 C571 1.077 . S
C1985 C739 1.185 . S
C1993 C996 1.672 . S
C2025 C1023 1.471 . S
C2017 C799 1.070 . S
