# Generated by pormake.
# Topology ssc, (4,4)-cn, num edge types: 1
# Building blocks:
#     Node 0, Type 0, BuildingBlock: ESEHIV_clean_sbu_0, # of connection points: 4
#     Node 1, Type 0, BuildingBlock: ESEHIV_clean_sbu_0, # of connection points: 4
#     Node 2, Type 0, BuildingBlock: ESEHIV_clean_sbu_0, # of connection points: 4
#     Node 3, Type 0, BuildingBlock: ESEHIV_clean_sbu_0, # of connection points: 4
#     Node 4, Type 0, BuildingBlock: ESEHIV_clean_sbu_0, # of connection points: 4
#     Node 5, Type 0, BuildingBlock: ESEHIV_clean_sbu_0, # of connection points: 4
#     Node 6, Type 0, BuildingBlock: ESEHIV_clean_sbu_0, # of connection points: 4
#     Node 7, Type 0, BuildingBlock: ESEHIV_clean_sbu_0, # of connection points: 4
#     Node 8, Type 0, BuildingBlock: ESEHIV_clean_sbu_0, # of connection points: 4
#     Node 9, Type 0, BuildingBlock: ESEHIV_clean_sbu_0, # of connection points: 4
#     Node 10, Type 0, BuildingBlock: ESEHIV_clean_sbu_0, # of connection points: 4
#     Node 11, Type 0, BuildingBlock: ESEHIV_clean_sbu_0, # of connection points: 4
#     Node 12, Type 1, BuildingBlock: GIZVER_clean_linker_0, # of connection points: 4
#     Node 13, Type 1, BuildingBlock: GIZVER_clean_linker_0, # of connection points: 4
#     Node 14, Type 1, BuildingBlock: GIZVER_clean_linker_0, # of connection points: 4
#     Node 15, Type 1, BuildingBlock: GIZVER_clean_linker_0, # of connection points: 4
#     Node 16, Type 1, BuildingBlock: GIZVER_clean_linker_0, # of connection points: 4
#     Node 17, Type 1, BuildingBlock: GIZVER_clean_linker_0, # of connection points: 4
#     Node 18, Type 1, BuildingBlock: GIZVER_clean_linker_0, # of connection points: 4
#     Node 19, Type 1, BuildingBlock: GIZVER_clean_linker_0, # of connection points: 4
#     Node 20, Type 1, BuildingBlock: GIZVER_clean_linker_0, # of connection points: 4
#     Node 21, Type 1, BuildingBlock: GIZVER_clean_linker_0, # of connection points: 4
#     Node 22, Type 1, BuildingBlock: GIZVER_clean_linker_0, # of connection points: 4
#     Node 23, Type 1, BuildingBlock: GIZVER_clean_linker_0, # of connection points: 4
#     Edge 24, Type (0, 1), BuildingBlock: MIFKUJ_clean_linker_0, # of connection points: 2
#     Edge 25, Type (0, 1), BuildingBlock: MIFKUJ_clean_linker_0, # of connection points: 2
#     Edge 26, Type (0, 1), BuildingBlock: MIFKUJ_clean_linker_0, # of connection points: 2
#     Edge 27, Type (0, 1), BuildingBlock: MIFKUJ_clean_linker_0, # of connection points: 2
#     Edge 28, Type (0, 1), BuildingBlock: MIFKUJ_clean_linker_0, # of connection points: 2
#     Edge 29, Type (0, 1), BuildingBlock: MIFKUJ_clean_linker_0, # of connection points: 2
#     Edge 30, Type (0, 1), BuildingBlock: MIFKUJ_clean_linker_0, # of connection points: 2
#     Edge 31, Type (0, 1), BuildingBlock: MIFKUJ_clean_linker_0, # of connection points: 2
#     Edge 32, Type (0, 1), BuildingBlock: MIFKUJ_clean_linker_0, # of connection points: 2
#     Edge 33, Type (0, 1), BuildingBlock: MIFKUJ_clean_linker_0, # of connection points: 2
#     Edge 34, Type (0, 1), BuildingBlock: MIFKUJ_clean_linker_0, # of connection points: 2
#     Edge 35, Type (0, 1), BuildingBlock: MIFKUJ_clean_linker_0, # of connection points: 2
#     Edge 36, Type (0, 1), BuildingBlock: MIFKUJ_clean_linker_0, # of connection points: 2
#     Edge 37, Type (0, 1), BuildingBlock: MIFKUJ_clean_linker_0, # of connection points: 2
#     Edge 38, Type (0, 1), BuildingBlock: MIFKUJ_clean_linker_0, # of connection points: 2
#     Edge 39, Type (0, 1), BuildingBlock: MIFKUJ_clean_linker_0, # of connection points: 2
#     Edge 40, Type (0, 1), BuildingBlock: MIFKUJ_clean_linker_0, # of connection points: 2
#     Edge 41, Type (0, 1), BuildingBlock: MIFKUJ_clean_linker_0, # of connection points: 2
#     Edge 42, Type (0, 1), BuildingBlock: MIFKUJ_clean_linker_0, # of connection points: 2
#     Edge 43, Type (0, 1), BuildingBlock: MIFKUJ_clean_linker_0, # of connection points: 2
#     Edge 44, Type (0, 1), BuildingBlock: MIFKUJ_clean_linker_0, # of connection points: 2
#     Edge 45, Type (0, 1), BuildingBlock: MIFKUJ_clean_linker_0, # of connection points: 2
#     Edge 46, Type (0, 1), BuildingBlock: MIFKUJ_clean_linker_0, # of connection points: 2
#     Edge 47, Type (0, 1), BuildingBlock: MIFKUJ_clean_linker_0, # of connection points: 2
#     Edge 48, Type (0, 1), BuildingBlock: MIFKUJ_clean_linker_0, # of connection points: 2
#     Edge 49, Type (0, 1), BuildingBlock: MIFKUJ_clean_linker_0, # of connection points: 2
#     Edge 50, Type (0, 1), BuildingBlock: MIFKUJ_clean_linker_0, # of connection points: 2
#     Edge 51, Type (0, 1), BuildingBlock: MIFKUJ_clean_linker_0, # of connection points: 2
#     Edge 52, Type (0, 1), BuildingBlock: MIFKUJ_clean_linker_0, # of connection points: 2
#     Edge 53, Type (0, 1), BuildingBlock: MIFKUJ_clean_linker_0, # of connection points: 2
#     Edge 54, Type (0, 1), BuildingBlock: MIFKUJ_clean_linker_0, # of connection points: 2
#     Edge 55, Type (0, 1), BuildingBlock: MIFKUJ_clean_linker_0, # of connection points: 2
#     Edge 56, Type (0, 1), BuildingBlock: MIFKUJ_clean_linker_0, # of connection points: 2
#     Edge 57, Type (0, 1), BuildingBlock: MIFKUJ_clean_linker_0, # of connection points: 2
#     Edge 58, Type (0, 1), BuildingBlock: MIFKUJ_clean_linker_0, # of connection points: 2
#     Edge 59, Type (0, 1), BuildingBlock: MIFKUJ_clean_linker_0, # of connection points: 2
#     Edge 60, Type (0, 1), BuildingBlock: MIFKUJ_clean_linker_0, # of connection points: 2
#     Edge 61, Type (0, 1), BuildingBlock: MIFKUJ_clean_linker_0, # of connection points: 2
#     Edge 62, Type (0, 1), BuildingBlock: MIFKUJ_clean_linker_0, # of connection points: 2
#     Edge 63, Type (0, 1), BuildingBlock: MIFKUJ_clean_linker_0, # of connection points: 2
#     Edge 64, Type (0, 1), BuildingBlock: MIFKUJ_clean_linker_0, # of connection points: 2
#     Edge 65, Type (0, 1), BuildingBlock: MIFKUJ_clean_linker_0, # of connection points: 2
#     Edge 66, Type (0, 1), BuildingBlock: MIFKUJ_clean_linker_0, # of connection points: 2
#     Edge 67, Type (0, 1), BuildingBlock: MIFKUJ_clean_linker_0, # of connection points: 2
#     Edge 68, Type (0, 1), BuildingBlock: MIFKUJ_clean_linker_0, # of connection points: 2
#     Edge 69, Type (0, 1), BuildingBlock: MIFKUJ_clean_linker_0, # of connection points: 2
#     Edge 70, Type (0, 1), BuildingBlock: MIFKUJ_clean_linker_0, # of connection points: 2
#     Edge 71, Type (0, 1), BuildingBlock: MIFKUJ_clean_linker_0, # of connection points: 2
# Relax obj value: 0.046
# Max RMSD: 0.289
# Mean RMSD: 0.195
data_MOF--net-ssc--node1-ESEHIV_clean_sbu_0--node2-GIZVER_clean_linker_0--edge1-MIFKUJ_clean_linker_0
_symmetry_space_group_name_H-M    P1
_symmetry_Int_Tables_number       1
_symmetry_cell_setting            triclinic
loop_
_symmetry_equiv_pos_as_xyz
'x, y, z'
_cell_length_a     42.757558
_cell_length_b     42.832095
_cell_length_c     42.645196
_cell_angle_alpha  90.02585
_cell_angle_beta   92.761304
_cell_angle_gamma 95.782383
loop_
_atom_site_label
_atom_site_type_symbol
_atom_site_fract_x
_atom_site_fract_y
_atom_site_fract_z
_atom_type_partial_charge
Cu0 Cu 0.02419 0.28052 0.12569 0.0
N1 N 0.02704 0.24538 0.15107 0.0
N2 N 0.01055 0.21568 0.19135 0.0
C3 C 0.01696 0.24503 0.18048 0.0
C4 C 0.01749 0.19663 0.16795 0.0
C5 C 0.02777 0.21507 0.14308 0.0
O6 O 0.02446 0.31488 0.15575 0.0
C7 C 0.96602 0.24972 0.10012 0.0
O8 O 0.96222 0.23695 0.12784 0.0
H9 H 0.01047 0.26575 0.19205 0.0
H10 H 0.03201 0.20692 0.1198 0.0
N11 N 0.05758 0.28872 0.09928 0.0
N12 N 0.08093 0.31284 0.05883 0.0
C13 C 0.05349 0.30135 0.07068 0.0
C14 C 0.08888 0.29177 0.10573 0.0
C15 C 0.10338 0.30686 0.08076 0.0
C16 C 0.04581 0.33791 0.15671 0.0
O17 O 0.05909 0.34691 0.13064 0.0
H18 H 0.03057 0.30486 0.06014 0.0
H19 H 0.10008 0.286 0.12798 0.0
O20 O 0.9874 0.27232 0.09709 0.0
H21 H 0.01309 0.1713 0.16783 0.0
H22 H 0.12824 0.31437 0.07961 0.0
Cu23 Cu 0.0357 0.79368 0.39572 0.0
N24 N 1.00137 0.80584 0.41606 0.0
N25 N 0.98055 0.82874 0.45616 0.0
C26 C 0.00623 0.81746 0.44532 0.0
C27 C 0.9583 0.82404 0.43255 0.0
C28 C 0.97123 0.80966 0.40773 0.0
O29 O 0.05744 0.76969 0.42743 0.0
C30 C 0.05642 0.84838 0.35989 0.0
O31 O 0.07632 0.87307 0.35495 0.0
H32 H 0.02899 0.81904 0.45781 0.0
H33 H 0.95986 0.8036 0.38502 0.0
N34 N 0.02894 0.77011 0.35897 0.0
N35 N 0.04393 0.75109 0.3139 0.0
C36 C 0.05325 0.76523 0.34146 0.0
C37 C 0.00301 0.75795 0.34243 0.0
C38 C 0.01225 0.74597 0.3145 0.0
C39 C 0.05235 0.73986 0.42849 0.0
O40 O 0.03507 0.7249 0.40586 0.0
H41 H 0.07738 0.77319 0.34852 0.0
H42 H 0.97926 0.75886 0.34964 0.0
O43 O 0.06061 0.83214 0.38462 0.0
H44 H 0.93465 0.83091 0.43296 0.0
H45 H 0.99685 0.73572 0.29555 0.0
Cu46 Cu 0.49109 0.7702 0.64302 0.0
N47 N 0.49431 0.81092 0.62659 0.0
N48 N 0.49823 0.85034 0.59188 0.0
C49 C 0.49655 0.81888 0.59612 0.0
C50 C 0.49693 0.86249 0.62099 0.0
C51 C 0.49451 0.83818 0.64227 0.0
O52 O 0.49897 0.74229 0.60863 0.0
C53 C 0.55019 0.77479 0.67873 0.0
O54 O 0.56226 0.78303 0.65184 0.0
H55 H 0.49663 0.80179 0.57744 0.0
H56 H 0.49314 0.8402 0.66744 0.0
N57 N 0.44984 0.75996 0.65546 0.0
N58 N 0.40818 0.74707 0.68456 0.0
C59 C 0.43962 0.7555 0.68473 0.0
C60 C 0.42409 0.75432 0.63615 0.0
C61 C 0.39846 0.74627 0.65393 0.0
C62 C 0.4891 0.71323 0.60698 0.0
O63 O 0.47512 0.69981 0.63099 0.0
H64 H 0.45509 0.75762 0.70563 0.0
H65 H 0.42408 0.75559 0.61081 0.0
O66 O 0.52052 0.76787 0.67955 0.0
H67 H 0.49827 0.88722 0.62669 0.0
H68 H 0.37452 0.74032 0.64491 0.0
Cu69 Cu 0.52711 0.26994 0.8989 0.0
N70 N 0.54208 0.30852 0.91655 0.0
N71 N 0.55182 0.34586 0.9532 0.0
C72 C 0.5438 0.31507 0.94745 0.0
C73 C 0.55539 0.3592 0.92474 0.0
C74 C 0.54943 0.33601 0.90211 0.0
O75 O 0.52316 0.24167 0.93427 0.0
C76 C 0.47363 0.25708 0.85565 0.0
O77 O 0.48461 0.23006 0.85053 0.0
H78 H 0.53754 0.29788 0.96527 0.0
H79 H 0.54926 0.33911 0.87693 0.0
N80 N 0.55746 0.25632 0.8735 0.0
N81 N 0.58436 0.24234 0.83291 0.0
C82 C 0.55811 0.25442 0.84196 0.0
C83 C 0.58416 0.24539 0.88468 0.0
C84 C 0.60078 0.23679 0.85983 0.0
C85 C 0.50329 0.21837 0.93951 0.0
O86 O 0.48017 0.21023 0.91881 0.0
H87 H 0.53956 0.26132 0.82609 0.0
H88 H 0.59101 0.2438 0.90934 0.0
O89 O 0.48792 0.276 0.87576 0.0
H90 H 0.56117 0.38399 0.92057 0.0
H91 H 0.62347 0.2276 0.86154 0.0
Cu92 Cu 0.13139 0.99542 0.26847 0.0
N93 N 0.11502 0.98815 0.3078 0.0
N94 N 0.08048 0.98188 0.3455 0.0
C95 C 0.0844 0.9848 0.31436 0.0
C96 C 0.10981 0.98337 0.35899 0.0
C97 C 0.13109 0.98713 0.33563 0.0
O98 O 0.09799 0.00916 0.24072 0.0
C99 C 0.16581 0.05262 0.28706 0.0
O100 O 0.13867 0.05844 0.29779 0.0
H101 H 0.06543 0.9857 0.29674 0.0
H102 H 0.15648 0.98965 0.33871 0.0
N103 N 0.14421 0.95793 0.25371 0.0
N104 N 0.17445 0.91972 0.24388 0.0
C105 C 0.17333 0.94857 0.25647 0.0
C106 C 0.1262 0.93427 0.239 0.0
C107 C 0.14479 0.91071 0.2328 0.0
C108 C 0.09818 0.00807 0.21091 0.0
O109 O 0.1228 0.99877 0.19767 0.0
H110 H 0.19328 0.9628 0.26733 0.0
H111 H 0.10123 0.93412 0.23342 0.0
O112 O 0.16756 0.02686 0.27269 0.0
H113 H 0.11549 0.98213 0.38394 0.0
H114 H 0.13691 0.88845 0.22157 0.0
Cu115 Cu 0.22771 0.89362 0.49409 0.0
N116 N 0.22453 0.87691 0.45366 0.0
N117 N 0.22929 0.84511 0.41304 0.0
C118 C 0.23793 0.85194 0.44336 0.0
C119 C 0.20979 0.86669 0.40401 0.0
C120 C 0.20694 0.8863 0.42913 0.0
O121 O 0.24297 0.8621 0.52231 0.0
C122 C 0.28352 0.93703 0.50251 0.0
O123 O 0.29788 0.9131 0.51296 0.0
H124 H 0.25296 0.83856 0.45809 0.0
H125 H 0.19272 0.90578 0.42966 0.0
N126 N 0.18792 0.90336 0.50414 0.0
N127 N 0.14771 0.93202 0.51025 0.0
C128 C 0.17844 0.93237 0.50412 0.0
C129 C 0.16241 0.88381 0.51041 0.0
C130 C 0.13755 0.90144 0.51434 0.0
C131 C 0.24121 0.86192 0.55203 0.0
O132 O 0.22956 0.88527 0.56589 0.0
H133 H 0.19396 0.9533 0.49977 0.0
H134 H 0.16184 0.85853 0.51154 0.0
O135 O 0.25454 0.9329 0.49392 0.0
H136 H 0.19843 0.86825 0.3809 0.0
H137 H 0.11376 0.89233 0.51923 0.0
Cu138 Cu 0.41386 0.03652 0.76936 0.0
N139 N 0.4324 0.03639 0.80978 0.0
N140 N 0.46669 0.02908 0.84967 0.0
C141 C 0.46156 0.02915 0.81815 0.0
C142 C 0.4397 0.03664 0.8615 0.0
C143 C 0.41862 0.04118 0.83682 0.0
O144 O 0.44706 0.03586 0.73961 0.0
C145 C 0.36295 0.9951 0.74231 0.0
O146 O 0.36674 0.0118 0.71669 0.0
H147 H 0.47824 0.02297 0.80146 0.0
H148 H 0.39469 0.04697 0.83842 0.0
N149 N 0.39326 0.07266 0.76414 0.0
N150 N 0.35466 0.10308 0.7538 0.0
C151 C 0.36196 0.0738 0.76025 0.0
C152 C 0.40621 0.10233 0.76069 0.0
C153 C 0.38242 0.12117 0.75412 0.0
C154 C 0.44667 0.05031 0.71352 0.0
O155 O 0.42162 0.06398 0.7045 0.0
H156 H 0.34491 0.0534 0.76098 0.0
H157 H 0.43123 0.10951 0.76184 0.0
O158 O 0.38211 1.00076 0.76588 0.0
H159 H 0.43544 0.03861 0.8862 0.0
H160 H 0.38532 0.14615 0.74965 0.0
Cu161 Cu 0.26598 0.1441 0.01777 0.0
N162 N 0.23061 0.16482 0.02524 0.0
N163 N 0.20579 0.20465 0.00523 0.0
C164 C 0.23225 0.19588 0.01966 0.0
C165 C 0.18565 0.17825 0.00373 0.0
C166 C 0.20097 0.15379 0.01608 0.0
O167 O 0.29755 0.17934 0.00913 0.0
C168 C 0.24011 0.08703 0.99118 0.0
O169 O 0.23975 0.07945 0.02096 0.0
H170 H 0.25425 0.21058 0.02038 0.0
H171 H 0.19284 0.12916 0.01335 0.0
N172 N 0.28111 0.12115 0.05171 0.0
N173 N 0.31015 0.08737 0.07664 0.0
C174 C 0.3041 0.10207 0.04943 0.0
C175 C 0.27202 0.11833 0.08144 0.0
C176 C 0.2899 0.09733 0.0969 0.0
C177 C 0.31983 0.18733 0.02944 0.0
O178 O 0.3324 0.16522 0.04545 0.0
H179 H 0.3159 0.09879 0.02795 0.0
H180 H 0.2536 0.13042 0.09106 0.0
O181 O 0.25187 0.11444 0.98345 0.0
H182 H 0.16302 0.17584 0.99099 0.0
H183 H 0.28835 0.0902 0.12117 0.0
Cu184 Cu 0.77631 0.41524 0.02378 0.0
N185 N 0.77324 0.4002 0.98252 0.0
N186 N 0.76699 0.36871 0.94035 0.0
C187 C 0.7671 0.37041 0.97204 0.0
C188 C 0.773 0.39863 0.93066 0.0
C189 C 0.77669 0.41794 0.95668 0.0
O190 O 0.77541 0.38121 0.05437 0.0
C191 C 0.83807 0.44676 0.01542 0.0
O192 O 0.84285 0.42301 0.99737 0.0
H193 H 0.7634 0.3504 0.98736 0.0
H194 H 0.78174 0.4432 0.95684 0.0
N195 N 0.74181 0.4374 0.02974 0.0
N196 N 0.71188 0.47726 0.03128 0.0
C197 C 0.7378 0.46665 0.01976 0.0
C198 C 0.71773 0.42907 0.04807 0.0
C199 C 0.69934 0.45359 0.0492 0.0
C200 C 0.79165 0.35789 0.05373 0.0
O201 O 0.81208 0.35641 0.03186 0.0
H202 H 0.75444 0.48035 0.00564 0.0
H203 H 0.71445 0.40714 0.06064 0.0
O204 O 0.81261 0.44612 0.02978 0.0
H205 H 0.77451 0.40611 0.9065 0.0
H206 H 0.67865 0.45399 0.06274 0.0
Cu207 Cu 0.88452 0.52557 0.28772 0.0
N208 N 0.90483 0.52086 0.32696 0.0
N209 N 0.94237 0.51783 0.36506 0.0
C210 C 0.93601 0.52281 0.33414 0.0
C211 C 0.91388 0.51274 0.37762 0.0
C212 C 0.89089 0.51471 0.35414 0.0
O213 O 0.91442 0.52452 0.25486 0.0
C214 C 0.83184 0.49106 0.25713 0.0
O215 O 0.83716 0.51158 0.23462 0.0
H216 H 0.95354 0.5272 0.31681 0.0
H217 H 0.8657 0.51172 0.35664 0.0
N218 N 0.86827 0.56441 0.28703 0.0
N219 N 0.83494 0.6015 0.28518 0.0
C220 C 0.83786 0.57035 0.28598 0.0
C221 C 0.88515 0.59263 0.28718 0.0
C222 C 0.86472 0.61554 0.286 0.0
C223 C 0.93246 0.50278 0.25273 0.0
O224 O 0.93026 0.47944 0.27275 0.0
H225 H 0.81831 0.55219 0.28514 0.0
H226 H 0.91059 0.59623 0.28797 0.0
O227 O 0.85014 0.4926 0.28165 0.0
H228 H 0.9097 0.50786 0.402 0.0
H229 H 0.87134 0.6406 0.28589 0.0
Cu230 Cu 0.76405 0.66227 0.52965 0.0
N231 N 0.72914 0.68098 0.54221 0.0
N232 N 0.70215 0.72128 0.52734 0.0
C233 C 0.72982 0.71218 0.53864 0.0
C234 C 0.68235 0.69458 0.52619 0.0
C235 C 0.69906 0.66981 0.53522 0.0
O236 O 0.79657 0.69772 0.52687 0.0
C237 C 0.75667 0.61505 0.48184 0.0
O238 O 0.78439 0.60709 0.49138 0.0
H239 H 0.75165 0.72689 0.53794 0.0
H240 H 0.6912 0.64524 0.53138 0.0
N241 N 0.77701 0.63188 0.5574 0.0
N242 N 0.8058 0.59414 0.57493 0.0
C243 C 0.80442 0.61917 0.55595 0.0
C244 C 0.76044 0.6147 0.57844 0.0
C245 C 0.77818 0.59137 0.58936 0.0
C246 C 0.81253 0.70621 0.55206 0.0
O247 O 0.81525 0.68531 0.57426 0.0
H248 H 0.82208 0.62698 0.53956 0.0
H249 H 0.73661 0.6179 0.5842 0.0
O250 O 0.74821 0.6411 0.49086 0.0
H251 H 0.65872 0.69226 0.51559 0.0
H252 H 0.77073 0.57316 0.60576 0.0
Cu253 Cu 0.63874 0.4927 0.77114 0.0
N254 N 0.62068 0.53015 0.77652 0.0
N255 N 0.58757 0.55926 0.79949 0.0
C256 C 0.59319 0.53026 0.79054 0.0
C257 C 0.61225 0.5785 0.79003 0.0
C258 C 0.6329 0.56036 0.77605 0.0
O259 O 0.60345 0.46224 0.75725 0.0
C260 C 0.6627 0.50472 0.83295 0.0
O261 O 0.6361 0.51272 0.84311 0.0
H262 H 0.57876 0.50899 0.79631 0.0
H263 H 0.65613 0.56826 0.76843 0.0
N264 N 0.66961 0.49333 0.74162 0.0
N265 N 0.70789 0.47177 0.71797 0.0
C266 C 0.69248 0.47401 0.74458 0.0
C267 C 0.67081 0.50443 0.71215 0.0
C268 C 0.69468 0.49129 0.69752 0.0
C269 C 0.60459 0.44196 0.73551 0.0
O270 O 0.63208 0.43585 0.72597 0.0
H271 H 0.69614 0.46011 0.76536 0.0
H272 H 0.65411 0.519 0.70135 0.0
O273 O 0.66147 0.4848 0.81059 0.0
H274 H 0.61622 0.6034 0.79504 0.0
H275 H 0.70023 0.49409 0.67312 0.0
H276 H 0.06827 0.26894 0.67708 0.0
H277 H 0.01537 0.23746 0.59243 0.0
H278 H 0.05935 0.17169 0.6515 0.0
H279 H 0.04698 0.30673 0.64572 0.0
H280 H 0.05102 0.29527 0.60605 0.0
H281 H 0.98147 0.2753 0.65791 0.0
H282 H 0.92384 0.33514 0.60559 0.0
H283 H 0.02004 0.33236 0.58301 0.0
C284 C 0.05744 0.24998 0.66214 0.0
C285 C 0.06496 0.21934 0.668 0.0
C286 C 0.03853 0.2567 0.63549 0.0
C287 C 0.02757 0.23219 0.61436 0.0
C288 C 0.03437 0.20124 0.6206 0.0
C289 C 0.05209 0.19506 0.64797 0.0
C290 C 0.03634 0.29069 0.62671 0.0
C291 C 0.00351 0.2996 0.61875 0.0
C292 C 0.97817 0.2905 0.63797 0.0
C293 C 0.9491 0.30275 0.63246 0.0
C294 C 0.94564 0.32421 0.60815 0.0
C295 C 0.9712 0.33562 0.59075 0.0
C296 C 0.99993 0.32284 0.59575 0.0
H297 H 0.06322 0.78748 0.81022 0.0
H298 H 0.00702 0.80612 0.88878 0.0
H299 H 0.07669 0.87655 0.85708 0.0
H300 H 0.00642 0.75866 0.81696 0.0
H301 H 0.03283 0.7436 0.84427 0.0
H302 H 0.95175 0.74886 0.82531 0.0
H303 H 0.92137 0.70863 0.91199 0.0
H304 H 0.01883 0.74091 0.90311 0.0
C305 C 0.05619 0.80341 0.82772 0.0
C306 C 0.07307 0.83314 0.83168 0.0
C307 C 0.03131 0.79345 0.84745 0.0
C308 C 0.02436 0.81366 0.87198 0.0
C309 C 0.04077 0.84376 0.87511 0.0
C310 C 0.06373 0.8535 0.85404 0.0
C311 C 0.01476 0.76053 0.84207 0.0
C312 C 0.98796 0.74945 0.8629 0.0
C313 C 0.95682 0.74371 0.8498 0.0
C314 C 0.93265 0.72929 0.86771 0.0
C315 C 0.93963 0.72143 0.89886 0.0
C316 C 0.9705 0.72505 0.91175 0.0
C317 C 0.99469 0.73929 0.89379 0.0
H318 H 0.53415 0.74327 0.07774 0.0
H319 H 0.5424 0.75086 0.17866 0.0
H320 H 0.62271 0.73459 0.12642 0.0
H321 H 0.48872 0.75085 0.1043 0.0
H322 H 0.48979 0.72977 0.14019 0.0
H323 H 0.51003 0.81344 0.11174 0.0
H324 H 0.45448 0.85144 0.18083 0.0
H325 H 0.46141 0.75245 0.17794 0.0
C326 C 0.54861 0.74485 0.09939 0.0
C327 C 0.58035 0.73923 0.09869 0.0
C328 C 0.53493 0.75032 0.12809 0.0
C329 C 0.5533 0.749 0.1564 0.0
C330 C 0.58525 0.74366 0.15594 0.0
C331 C 0.5986 0.74014 0.12689 0.0
C332 C 0.49966 0.75155 0.12852 0.0
C333 C 0.4899 0.78003 0.14518 0.0
C334 C 0.4966 0.81034 0.13263 0.0
C335 C 0.48416 0.83625 0.14586 0.0
C336 C 0.46546 0.83175 0.17182 0.0
C337 C 0.45658 0.80165 0.18304 0.0
C338 C 0.46918 0.77586 0.16998 0.0
H339 H 0.5448 0.28622 0.34593 0.0
H340 H 0.52228 0.32245 0.43548 0.0
H341 H 0.56563 0.38406 0.3671 0.0
H342 H 0.52824 0.25042 0.38518 0.0
H343 H 0.53312 0.26491 0.42453 0.0
H344 H 0.47194 0.27124 0.35697 0.0
H345 H 0.39767 0.227 0.4103 0.0
H346 H 0.49165 0.23922 0.45102 0.0
C347 C 0.54249 0.306 0.36122 0.0
C348 C 0.55539 0.336 0.35261 0.0
C349 C 0.52916 0.30103 0.39064 0.0
C350 C 0.5298 0.32648 0.41178 0.0
C351 C 0.54246 0.35663 0.40308 0.0
C352 C 0.55393 0.36129 0.37303 0.0
C353 C 0.52025 0.26785 0.40158 0.0
C354 C 0.48526 0.25993 0.40506 0.0
C355 C 0.4637 0.26232 0.3792 0.0
C356 C 0.43184 0.25111 0.38156 0.0
C357 C 0.42178 0.23761 0.40962 0.0
C358 C 0.44317 0.23217 0.43433 0.0
C359 C 0.47482 0.24408 0.43228 0.0
H360 H 0.59385 0.03143 0.22634 0.0
H361 H 0.6896 0.06893 0.24872 0.0
H362 H 0.62393 0.1277 0.20667 0.0
H363 H 0.63637 0.99748 0.23135 0.0
H364 H 0.6755 0.0132 0.2424 0.0
H365 H 0.59992 0.01927 0.28659 0.0
H366 H 0.6266 0.95356 0.3561 0.0
H367 H 0.68699 0.97631 0.28061 0.0
C368 C 0.61152 0.0514 0.22886 0.0
C369 C 0.60487 0.08052 0.2165 0.0
C370 C 0.6418 0.04714 0.24165 0.0
C371 C 0.66561 0.07254 0.2414 0.0
C372 C 0.65908 0.10185 0.22916 0.0
C373 C 0.62842 0.1058 0.218 0.0
C374 C 0.65042 0.0141 0.24788 0.0
C375 C 0.64533 1.00152 0.28078 0.0
C376 C 0.61723 0.00477 0.29638 0.0
C377 C 0.6109 0.98771 0.32399 0.0
C378 C 0.63224 0.96744 0.33554 0.0
C379 C 0.65952 0.96312 0.32017 0.0
C380 C 0.66637 0.98059 0.29315 0.0
H381 H 0.24647 0.34025 0.591 0.0
H382 H 0.30441 0.38422 0.5199 0.0
H383 H 0.33491 0.39186 0.61718 0.0
H384 H 0.2578 0.3269 0.51941 0.0
H385 H 0.22522 0.33958 0.53847 0.0
H386 H 0.24325 0.33158 0.46593 0.0
H387 H 0.20876 0.41488 0.4286 0.0
H388 H 0.22767 0.40738 0.52809 0.0
C389 C 0.26686 0.35558 0.58455 0.0
C390 C 0.28966 0.36623 0.60798 0.0
C391 C 0.27113 0.3632 0.55264 0.0
C392 C 0.2995 0.3804 0.54436 0.0
C393 C 0.32212 0.3914 0.56788 0.0
C394 C 0.31649 0.38493 0.59937 0.0
C395 C 0.24771 0.34814 0.52782 0.0
C396 C 0.24001 0.36865 0.50001 0.0
C397 C 0.2379 0.35549 0.46948 0.0
C398 C 0.22708 0.37243 0.44371 0.0
C399 C 0.2187 0.40267 0.44842 0.0
C400 C 0.21832 0.4154 0.47864 0.0
C401 C 0.2291 0.39832 0.50452 0.0
H402 H 0.93691 0.03642 0.72944 0.0
H403 H 0.83544 0.02144 0.72301 0.0
H404 H 0.89053 0.94645 0.70223 0.0
H405 H 0.90817 0.07971 0.73738 0.0
H406 H 0.87055 0.07634 0.71716 0.0
H407 H 0.90906 0.05899 0.79652 0.0
H408 H 0.83709 0.09808 0.84612 0.0
H409 H 0.82977 0.09287 0.74566 0.0
C410 C 0.91546 0.02072 0.72643 0.0
C411 C 0.91721 0.98967 0.71664 0.0
C412 C 0.88596 0.03208 0.73016 0.0
C413 C 0.85814 0.01226 0.72273 0.0
C414 C 0.85989 0.98108 0.71331 0.0
C415 C 0.88936 0.9699 0.71151 0.0
C416 C 0.88436 0.06653 0.73692 0.0
C417 C 0.86957 0.07235 0.76766 0.0
C418 C 0.88615 0.06777 0.79644 0.0
C419 C 0.87414 0.0766 0.82491 0.0
C420 C 0.84528 0.08942 0.82437 0.0
C421 C 0.82951 0.09604 0.79601 0.0
C422 C 0.84142 0.08694 0.76768 0.0
H423 H 0.25304 0.66092 0.05568 0.0
H424 H 0.21378 0.56491 0.04118 0.0
H425 H 0.1583 0.6324 0.0796 0.0
H426 H 0.28703 0.62133 0.04708 0.0
H427 H 0.27177 0.58094 0.04717 0.0
H428 H 0.245 0.63763 0.98517 0.0
H429 H 0.30156 0.60175 0.91564 0.0
H430 H 0.31245 0.5726 0.01103 0.0
C431 C 0.23298 0.64327 0.05509 0.0
C432 C 0.20479 0.65047 0.0676 0.0
C433 C 0.23615 0.61265 0.04423 0.0
C434 C 0.21082 0.58902 0.04704 0.0
C435 C 0.18244 0.59627 0.05938 0.0
C436 C 0.17944 0.62721 0.06834 0.0
C437 C 0.26845 0.60406 0.03626 0.0
C438 C 0.27467 0.60198 1.00155 0.0
C439 C 0.2613 0.62125 0.97862 0.0
C440 C 0.27047 0.62044 0.94732 0.0
C441 C 0.29302 0.60073 0.93925 0.0
C442 C 0.30892 0.58433 0.96209 0.0
C443 C 0.2994 0.58456 0.9931 0.0
H444 H 0.80129 0.81527 0.08863 0.0
H445 H 0.80095 0.89987 0.03312 0.0
H446 H 0.8814 0.88382 0.09275 0.0
H447 H 0.76181 0.81688 0.04572 0.0
H448 H 0.74843 0.84963 0.06372 0.0
H449 H 0.75709 0.81096 0.98908 0.0
H450 H 0.71143 0.8798 0.93582 0.0
H451 H 0.7397 0.89825 0.03252 0.0
C452 C 0.81322 0.8369 0.08008 0.0
C453 C 0.84345 0.84727 0.09273 0.0
C454 C 0.79795 0.8548 0.05709 0.0
C455 C 0.81284 0.8845 0.04871 0.0
C456 C 0.84314 0.89478 0.0614 0.0
C457 C 0.85843 0.87549 0.08231 0.0
C458 C 0.76447 0.843 0.04563 0.0
C459 C 0.75264 0.85455 0.01384 0.0
C460 C 0.74953 0.83432 0.98729 0.0
C461 C 0.73477 0.84358 0.95901 0.0
C462 C 0.7239 0.87323 0.9572 0.0
C463 C 0.72529 0.8929 0.98351 0.0
C464 C 0.73968 0.88357 0.01181 0.0
H465 H 0.45991 0.5308 0.22125 0.0
H466 H 0.36125 0.49763 0.21394 0.0
H467 H 0.43095 0.43525 0.19586 0.0
H468 H 0.4222 0.56759 0.21831 0.0
H469 H 0.3825 0.55438 0.20712 0.0
H470 H 0.43712 0.55161 0.28092 0.0
H471 H 0.37499 0.5995 0.33571 0.0
H472 H 0.3488 0.57609 0.23957 0.0
C473 C 0.4414 0.51158 0.21884 0.0
C474 C 0.44902 0.48193 0.20972 0.0
C475 C 0.40975 0.5173 0.22161 0.0
C476 C 0.38568 0.49284 0.21445 0.0
C477 C 0.39326 0.46287 0.20565 0.0
C478 C 0.42499 0.45754 0.20469 0.0
C479 C 0.40191 0.55088 0.2247 0.0
C480 C 0.39275 0.56005 0.25714 0.0
C481 C 0.41446 0.56043 0.28329 0.0
C482 C 0.40758 0.5741 0.31189 0.0
C483 C 0.37921 0.58743 0.31417 0.0
C484 C 0.35809 0.58867 0.28817 0.0
C485 C 0.36472 0.57442 0.25993 0.0
H486 H 0.77047 0.18766 0.55224 0.0
H487 H 0.74483 0.09218 0.52103 0.0
H488 H 0.6753 0.14649 0.55634 0.0
H489 H 0.8095 0.16093 0.5292 0.0
H490 H 0.80443 0.12303 0.54597 0.0
H491 H 0.79957 0.16717 0.47 0.0
H492 H 0.82756 0.08997 0.41733 0.0
H493 H 0.8093 0.07812 0.51458 0.0
C494 C 0.7526 0.16849 0.54643 0.0
C495 C 0.72153 0.17073 0.55483 0.0
C496 C 0.76099 0.14076 0.53236 0.0
C497 C 0.73815 0.11459 0.52867 0.0
C498 C 0.707 0.11705 0.53668 0.0
C499 C 0.69889 0.1455 0.54829 0.0
C500 C 0.7953 0.13774 0.5268 0.0
C501 C 0.80098 0.1235 0.49527 0.0
C502 C 0.80329 0.14258 0.46832 0.0
C503 C 0.81262 0.13049 0.4399 0.0
C504 C 0.81845 0.09891 0.43848 0.0
C505 C 0.81775 0.08006 0.46523 0.0
C506 C 0.8086 0.09227 0.49354 0.0
H507 H 0.11861 0.52034 0.69784 0.0
H508 H 0.21752 0.5452 0.72043 0.0
H509 H 0.1592 0.61534 0.68766 0.0
H510 H 0.152 0.47959 0.7086 0.0
H511 H 0.19369 0.48929 0.7082 0.0
H512 H 0.13286 0.50948 0.76565 0.0
H513 H 0.17594 0.46034 0.84113 0.0
H514 H 0.21194 0.45732 0.74938 0.0
C515 C 0.1385 0.53801 0.70118 0.0
C516 C 0.13513 0.56918 0.69236 0.0
C517 C 0.16795 0.52932 0.71273 0.0
C518 C 0.19436 0.55202 0.71392 0.0
C519 C 0.19098 0.58316 0.70521 0.0
C520 C 0.16123 0.59159 0.69579 0.0
C521 C 0.17203 0.49512 0.71942 0.0
C522 C 0.17452 0.48755 0.75417 0.0
C523 C 0.15184 0.49647 0.77455 0.0
C524 C 0.15277 0.48715 0.80611 0.0
C525 C 0.17629 0.4689 0.81719 0.0
C526 C 0.19718 0.45748 0.79694 0.0
C527 C 0.1964 0.46691 0.76537 0.0
H528 H 0.04671 0.3058 0.00404 0.0
H529 H 0.04828 0.34185 0.95935 0.0
H530 H 0.1227 0.40138 0.00762 0.0
H531 H 0.12131 0.3652 0.0523 0.0
H532 H 0.07355 0.43428 0.98127 0.0
H533 H 0.14025 0.35761 0.95221 0.0
H534 H 0.15385 0.3041 0.94268 0.0
H535 H 0.08289 0.29202 0.86781 0.0
H536 H 0.06743 0.34488 0.87816 0.0
H537 H 0.15349 0.51761 0.8621 0.0
H538 H 0.12513 0.49487 0.9058 0.0
H539 H 0.06487 0.4354 0.84152 0.0
H540 H 0.09386 0.45806 0.79771 0.0
H541 H 0.09894 0.40126 0.87507 0.0
H542 H 0.03468 0.48182 0.90497 0.0
H543 H 0.02425 0.53631 0.91589 0.0
H544 H 0.09832 0.54403 0.988 0.0
H545 H 0.10924 0.48966 0.97742 0.0
C546 C 0.06355 0.32646 0.00496 0.0
C547 C 0.08403 0.33258 0.03154 0.0
C548 C 0.06441 0.34703 0.97948 0.0
C549 C 0.08554 0.37435 0.98019 0.0
C550 C 0.10614 0.38049 0.00664 0.0
C551 C 0.10561 0.35964 0.03196 0.0
C552 C 0.08625 0.39638 0.95324 0.0
C553 C 0.07945 0.42733 0.95813 0.0
C554 C 0.09292 0.38683 0.92276 0.0
C555 C 0.10228 0.35506 0.91636 0.0
C556 C 0.12715 0.3434 0.93405 0.0
C557 C 0.13528 0.31319 0.92843 0.0
C558 C 0.11942 0.29471 0.90453 0.0
C559 C 0.09517 0.30635 0.88634 0.0
C560 C 0.08655 0.33637 0.89222 0.0
C561 C 0.13271 0.5014 0.85711 0.0
C562 C 0.1262 0.48918 0.82667 0.0
C563 C 0.11635 0.4882 0.88227 0.0
C564 C 0.09326 0.46264 0.8772 0.0
C565 C 0.08299 0.45462 0.84614 0.0
C566 C 0.09932 0.46793 0.82097 0.0
C567 C 0.08651 0.4398 0.90305 0.0
C568 C 0.09237 0.40843 0.89805 0.0
C569 C 0.07967 0.44922 0.93355 0.0
C570 C 0.07278 0.48171 0.94036 0.0
C571 C 0.04876 0.49518 0.92311 0.0
C572 C 0.04275 0.52602 0.92926 0.0
C573 C 0.06066 0.54364 0.95254 0.0
C574 C 0.08448 0.53039 0.96992 0.0
C575 C 0.09052 0.49952 0.96394 0.0
H576 H 0.05613 0.56759 0.95702 0.0
H577 H 0.1259 0.27138 0.90012 0.0
H578 H 0.99328 0.85337 0.36196 0.0
H579 H 0.95338 0.84484 0.31873 0.0
H580 H 0.02395 0.81537 0.25912 0.0
H581 H 0.06381 0.82624 0.3017 0.0
H582 H 0.99578 0.85264 0.22854 0.0
H583 H 0.94892 0.76017 0.28595 0.0
H584 H 0.92578 0.73252 0.33156 0.0
H585 H 0.86033 0.8017 0.33809 0.0
H586 H 0.88293 0.8294 0.29236 0.0
H587 H 0.89798 0.8192 0.09445 0.0
H588 H 0.93119 0.81044 0.14129 0.0
H589 H 0.85887 0.83829 0.19959 0.0
H590 H 0.82471 0.8441 0.15273 0.0
H591 H 0.88689 0.80121 0.23151 0.0
H592 H 0.93233 0.89355 0.17474 0.0
H593 H 0.95583 0.92292 0.13009 0.0
H594 H 0.02332 0.85603 0.1231 0.0
H595 H 1.00097 0.82682 0.16806 0.0
C596 C 0.99986 0.84412 0.33986 0.0
C597 C 0.03133 0.83923 0.33548 0.0
C598 C 0.977 0.83912 0.31504 0.0
C599 C 0.98512 0.82873 0.28539 0.0
C600 C 0.01667 0.82333 0.2815 0.0
C601 C 0.03953 0.82924 0.30595 0.0
C602 C 0.96216 0.82691 0.25742 0.0
C603 C 0.97218 0.84076 0.22924 0.0
C604 C 0.93068 0.81287 0.25807 0.0
C605 C 0.91801 0.79707 0.28625 0.0
C606 C 0.92991 0.76962 0.29747 0.0
C607 C 0.91674 0.75385 0.32315 0.0
C608 C 0.89179 0.7655 0.3379 0.0
C609 C 0.87976 0.79278 0.32678 0.0
C610 C 0.89265 0.80843 0.30092 0.0
C611 C 0.88875 0.82206 0.11737 0.0
C612 C 0.85872 0.83217 0.11999 0.0
C613 C 0.90808 0.81793 0.14422 0.0
C614 C 0.89842 0.82525 0.17424 0.0
C615 C 0.86733 0.8328 0.1769 0.0
C616 C 0.84756 0.83582 0.15006 0.0
C617 C 0.92086 0.82628 0.20255 0.0
C618 C 0.91063 0.81272 0.23081 0.0
C619 C 0.95215 0.84089 0.20213 0.0
C620 C 0.9647 0.85781 0.17439 0.0
C621 C 0.95198 0.885 0.16344 0.0
C622 C 0.96513 0.90165 0.13821 0.0
C623 C 0.99069 0.89112 0.12359 0.0
C624 C 0.00342 0.86409 0.13434 0.0
C625 C 0.99068 0.8476 0.1598 0.0
H626 H 1.00075 0.90403 0.10405 0.0
H627 H 0.88166 0.7533 0.3578 0.0
H628 H 0.50759 0.73628 0.55008 0.0
H629 H 0.50288 0.70901 0.49944 0.0
H630 H 0.4671 0.62357 0.54448 0.0
H631 H 0.47175 0.65067 0.59536 0.0
H632 H 0.50866 0.61306 0.49676 0.0
H633 H 0.41662 0.66701 0.51049 0.0
H634 H 0.38809 0.71271 0.52162 0.0
H635 H 0.4285 0.76132 0.44287 0.0
H636 H 0.45768 0.71607 0.43157 0.0
H637 H 0.41221 0.5409 0.36615 0.0
H638 H 0.43734 0.56137 0.41604 0.0
H639 H 0.47702 0.64373 0.3684 0.0
H640 H 0.45257 0.6229 0.3185 0.0
H641 H 0.43631 0.65561 0.41687 0.0
H642 H 0.53053 0.60672 0.40458 0.0
H643 H 0.56286 0.56398 0.39296 0.0
H644 H 0.51932 0.50774 0.46527 0.0
H645 H 0.48723 0.55054 0.47786 0.0
C646 C 0.49914 0.71157 0.54938 0.0
C647 C 0.48981 0.69577 0.57686 0.0
C648 C 0.49639 0.69602 0.52034 0.0
C649 C 0.48429 0.66431 0.51806 0.0
C650 C 0.47647 0.64803 0.54563 0.0
C651 C 0.47903 0.66363 0.5747 0.0
C652 C 0.4777 0.64891 0.48674 0.0
C653 C 0.49255 0.62215 0.47946 0.0
C654 C 0.45727 0.66112 0.46375 0.0
C655 C 0.4396 0.68829 0.4704 0.0
C656 C 0.41963 0.68755 0.49571 0.0
C657 C 0.40331 0.71335 0.50202 0.0
C658 C 0.40655 0.73994 0.48302 0.0
C659 C 0.42606 0.74074 0.45761 0.0
C660 C 0.44248 0.71501 0.45123 0.0
C661 C 0.42772 0.56253 0.36614 0.0
C662 C 0.43107 0.58002 0.33843 0.0
C663 C 0.44184 0.57436 0.39466 0.0
C664 C 0.45897 0.60416 0.39598 0.0
C665 C 0.46403 0.62066 0.36793 0.0
C666 C 0.45037 0.60859 0.33938 0.0
C667 C 0.46738 0.61993 0.42681 0.0
C668 C 0.45256 0.64662 0.43412 0.0
C669 C 0.48789 0.6078 0.44963 0.0
C670 C 0.50643 0.58169 0.44202 0.0
C671 C 0.52778 0.58517 0.41792 0.0
C672 C 0.54619 0.56106 0.4113 0.0
C673 C 0.54327 0.53327 0.42848 0.0
C674 C 0.52172 0.5294 0.45216 0.0
C675 C 0.50357 0.55366 0.45921 0.0
H676 H 0.55787 0.5149 0.42348 0.0
H677 H 0.39389 0.75989 0.48794 0.0
H678 H 0.56642 0.27157 0.77932 0.0
H679 H 0.58469 0.26379 0.72655 0.0
H680 H 0.64203 0.19333 0.76221 0.0
H681 H 0.62339 0.20024 0.81466 0.0
H682 H 0.65026 0.27267 0.71311 0.0
H683 H 0.64334 0.13367 0.7034 0.0
H684 H 0.57985 0.06576 0.73645 0.0
H685 H 0.51389 0.15627 0.72259 0.0
H686 H 0.558 0.1973 0.70185 0.0
H687 H 0.75039 0.18879 0.61122 0.0
H688 H 0.72355 0.20903 0.65531 0.0
H689 H 0.64391 0.2238 0.59331 0.0
H690 H 0.67111 0.20493 0.54894 0.0
H691 H 0.64022 0.17369 0.65126 0.0
H692 H 0.66119 0.28149 0.61707 0.0
H693 H 0.69327 0.32989 0.60249 0.0
H694 H 0.74461 0.33053 0.69155 0.0
H695 H 0.7131 0.28182 0.70651 0.0
C696 C 0.5824 0.25397 0.77586 0.0
C697 C 0.5935 0.23666 0.80138 0.0
C698 C 0.59287 0.24962 0.7457 0.0
C699 C 0.61428 0.22761 0.74043 0.0
C700 C 0.62508 0.21004 0.76568 0.0
C701 C 0.61466 0.21434 0.79578 0.0
C702 C 0.62811 0.22528 0.70944 0.0
C703 C 0.64778 0.25117 0.69934 0.0
C704 C 0.62477 0.19715 0.69159 0.0
C705 C 0.60341 0.16956 0.70071 0.0
C706 C 0.61842 0.1346 0.7078 0.0
C707 C 0.57536 0.09253 0.72922 0.0
C708 C 0.53888 0.10992 0.7314 0.0
C709 C 0.53667 0.14776 0.72051 0.0
C710 C 0.56522 0.17427 0.7069 0.0
C711 C 0.72802 0.19814 0.60662 0.0
C712 C 0.71275 0.19508 0.57666 0.0
C713 C 0.71248 0.20921 0.63193 0.0
C714 C 0.68157 0.21728 0.62754 0.0
C715 C 0.66769 0.21749 0.59713 0.0
C716 C 0.68342 0.20705 0.57177 0.0
C717 C 0.66238 0.22124 0.65495 0.0
C718 C 0.64223 0.19538 0.66469 0.0
C719 C 0.66489 0.24954 0.67225 0.0
C720 C 0.68508 0.27777 0.6627 0.0
C721 C 0.6797 0.29161 0.63332 0.0
C722 C 0.69764 0.31922 0.62508 0.0
C723 C 0.72088 0.33332 0.64613 0.0
C724 C 0.72652 0.31965 0.67533 0.0
C725 C 0.70865 0.29202 0.68368 0.0
H726 H 0.73445 0.35486 0.63977 0.0
H727 H 0.55581 0.09698 0.73185 0.0
H728 H 0.06273 0.76203 0.4887 0.0
H729 H 0.06928 0.73126 0.53638 0.0
H730 H 0.0691 0.6473 0.48024 0.0
H731 H 0.06095 0.67783 0.4327 0.0
H732 H 0.03444 0.63307 0.52435 0.0
H733 H 0.13799 0.68417 0.5233 0.0
H734 H 0.1812 0.72672 0.52098 0.0
H735 H 0.15029 0.76854 0.60405 0.0
H736 H 0.10666 0.72641 0.60668 0.0
H737 H 0.10895 0.54118 0.63889 0.0
H738 H 0.08334 0.56883 0.59647 0.0
H739 H 0.07449 0.64616 0.65897 0.0
H740 H 0.101 0.61889 0.70127 0.0
H741 H 0.10881 0.66545 0.61378 0.0
H742 H 0.00833 0.6032 0.61427 0.0
H743 H 0.97386 0.55344 0.61565 0.0
H744 H 0.01101 0.52351 0.53014 0.0
H745 H 0.04584 0.57296 0.5283 0.0
C746 C 0.06468 0.73711 0.48652 0.0
C747 C 0.0614 0.72236 0.45693 0.0
C748 C 0.06849 0.71946 0.51385 0.0
C749 C 0.0699 0.68679 0.51214 0.0
C750 C 0.06783 0.67233 0.48241 0.0
C751 C 0.0634 0.68986 0.45517 0.0
C752 C 0.07184 0.66748 0.54124 0.0
C753 C 0.05116 0.63991 0.54366 0.0
C754 C 0.09316 0.67641 0.56689 0.0
C755 C 0.11868 0.70244 0.56483 0.0
C756 C 0.14011 0.7027 0.5408 0.0
C757 C 0.16475 0.72668 0.53949 0.0
C758 C 0.1683 0.75048 0.56218 0.0
C759 C 0.14736 0.75021 0.58636 0.0
C760 C 0.12269 0.72628 0.58778 0.0
C761 C 0.10008 0.56334 0.64402 0.0
C762 C 0.10753 0.57814 0.67318 0.0
C763 C 0.08543 0.57923 0.61964 0.0
C764 C 0.07744 0.60989 0.62418 0.0
C765 C 0.08075 0.6227 0.65466 0.0
C766 C 0.09566 0.60697 0.67895 0.0
C767 C 0.07221 0.6305 0.59657 0.0
C768 C 0.09216 0.65853 0.59445 0.0
C769 C 0.05141 0.62108 0.5707 0.0
C770 C 0.02975 0.59177 0.57123 0.0
C771 C 0.00916 0.586 0.59578 0.0
C772 C 0.98956 0.55786 0.59663 0.0
C773 C 0.99035 0.53535 0.57306 0.0
C774 C 0.01045 0.54101 0.54837 0.0
C775 C 0.03003 0.56913 0.54735 0.0
H776 H 0.97548 0.51349 0.57402 0.0
H777 H 0.18743 0.76899 0.56118 0.0
H778 H 0.61453 0.78625 0.68466 0.0
H779 H 0.6482 0.78908 0.73278 0.0
H780 H 0.56673 0.76672 0.78742 0.0
H781 H 0.53283 0.76408 0.73935 0.0
H782 H 0.60289 0.81501 0.8129 0.0
H783 H 0.6197 0.71448 0.77379 0.0
H784 H 0.63372 0.67488 0.73648 0.0
H785 H 0.72824 0.71944 0.73662 0.0
H786 H 0.71457 0.76003 0.77308 0.0
H787 H 0.6859 0.79823 0.95704 0.0
H788 H 0.65686 0.77736 0.90931 0.0
H789 H 0.72992 0.82111 0.85306 0.0
H790 H 0.75855 0.84276 0.90081 0.0
H791 H 0.69782 0.75818 0.82993 0.0
H792 H 0.67822 0.8621 0.86344 0.0
H793 H 0.66494 0.90042 0.90247 0.0
H794 H 0.57531 0.84763 0.91323 0.0
H795 H 0.58854 0.80834 0.87495 0.0
C796 C 0.60372 0.78172 0.70687 0.0
C797 C 0.57085 0.77496 0.708 0.0
C798 C 0.6231 0.7832 0.73444 0.0
C799 C 0.61016 0.77788 0.76389 0.0
C800 C 0.57738 0.77091 0.76507 0.0
C801 C 0.55798 0.76932 0.73749 0.0
C802 C 0.63057 0.78102 0.7935 0.0
C803 C 0.62333 0.80215 0.81668 0.0
C804 C 0.65776 0.76475 0.79843 0.0
C805 C 0.66593 0.74067 0.77592 0.0
C806 C 0.64332 0.71626 0.76544 0.0
C807 C 0.65122 0.69359 0.74441 0.0
C808 C 0.6818 0.69477 0.73401 0.0
C809 C 0.70452 0.71865 0.74457 0.0
C810 C 0.69668 0.74154 0.76537 0.0
C811 C 0.69651 0.80204 0.93461 0.0
C812 C 0.72476 0.82162 0.93265 0.0
C813 C 0.67975 0.79038 0.90731 0.0
C814 C 0.69109 0.79785 0.87757 0.0
C815 C 0.7208 0.81488 0.87573 0.0
C816 C 0.73729 0.82704 0.90303 0.0
C817 C 0.67006 0.79219 0.84878 0.0
C818 C 0.67722 0.77077 0.82592 0.0
C819 C 0.64279 0.80815 0.84398 0.0
C820 C 0.63459 0.832 0.86667 0.0
C821 C 0.65584 0.85843 0.8744 0.0
C822 C 0.6483 0.88037 0.89636 0.0
C823 C 0.61932 0.87645 0.9104 0.0
C824 C 0.5978 0.85059 0.90242 0.0
C825 C 0.60534 0.82843 0.88063 0.0
H826 H 0.61351 0.89344 0.92741 0.0
H827 H 0.68792 0.67707 0.71792 0.0
H828 H 0.53458 0.40356 0.96508 0.0
H829 H 0.53197 0.42805 0.01649 0.0
H830 H 0.56792 0.34759 0.06096 0.0
H831 H 0.56979 0.32268 0.00944 0.0
H832 H 0.51992 0.36405 0.09086 0.0
H833 H 0.6123 0.4174 0.05251 0.0
H834 H 0.64182 0.44521 0.01101 0.0
H835 H 0.58713 0.52323 0.01909 0.0
H836 H 0.55563 0.49505 0.05885 0.0
H837 H 0.49191 0.44118 0.2279 0.0
H838 H 0.52902 0.42059 0.19302 0.0
H839 H 0.50768 0.48976 0.12368 0.0
H840 H 0.47281 0.51158 0.15931 0.0
H841 H 0.56218 0.4743 0.1135 0.0
H842 H 0.46187 0.4132 0.13763 0.0
H843 H 0.42615 0.38145 0.17174 0.0
H844 H 0.49626 0.31782 0.18929 0.0
H845 H 0.53246 0.34929 0.15543 0.0
C846 C 0.54238 0.39133 0.98576 0.0
C847 C 0.55253 0.36129 0.98325 0.0
C848 C 0.54086 0.40531 0.01517 0.0
C849 C 0.55021 0.38987 0.04263 0.0
C850 C 0.56065 0.35997 0.04014 0.0
C851 C 0.56174 0.34579 0.01073 0.0
C852 C 0.54789 0.40457 0.07393 0.0
C853 C 0.52977 0.38793 0.09611 0.0
C854 C 0.5608 0.43573 0.08079 0.0
C855 C 0.58134 0.45389 0.05862 0.0
C856 C 0.60636 0.44041 0.04531 0.0
C857 C 0.62333 0.45615 0.02189 0.0
C858 C 0.61641 0.48595 0.01241 0.0
C859 C 0.59245 0.50009 0.02632 0.0
C860 C 0.57484 0.48413 0.04919 0.0
C861 C 0.4967 0.45302 0.20595 0.0
C862 C 0.47954 0.47788 0.19619 0.0
C863 C 0.51749 0.44097 0.18578 0.0
C864 C 0.52011 0.45269 0.15509 0.0
C865 C 0.50592 0.47997 0.14702 0.0
C866 C 0.48602 0.49262 0.16752 0.0
C867 C 0.53276 0.43433 0.12972 0.0
C868 C 0.55305 0.45016 0.10861 0.0
C869 C 0.5217 0.40239 0.12368 0.0
C870 C 0.49994 0.38377 0.14425 0.0
C871 C 0.46964 0.39247 0.14878 0.0
C872 C 0.44934 0.37456 0.16809 0.0
C873 C 0.45894 0.34771 0.1827 0.0
C874 C 0.48887 0.33868 0.17802 0.0
C875 C 0.50929 0.35655 0.15879 0.0
H876 H 0.44316 0.33388 0.19762 0.0
H877 H 0.62976 0.49801 0.99435 0.0
H878 H 0.96423 0.16793 0.1962 0.0
H879 H 0.92817 0.15956 0.23904 0.0
H880 H 0.9781 0.23794 0.28967 0.0
H881 H 0.01439 0.2462 0.24697 0.0
H882 H 0.96257 0.18757 0.32816 0.0
H883 H 0.90854 0.24952 0.25207 0.0
H884 H 0.88737 0.26198 0.19918 0.0
H885 H 0.83111 0.17308 0.19503 0.0
H886 H 0.85169 0.16025 0.24806 0.0
H887 H 0.85118 0.1855 0.4429 0.0
H888 H 0.88216 0.20829 0.40028 0.0
H889 H 0.83122 0.1424 0.33502 0.0
H890 H 0.79917 0.12083 0.37715 0.0
H891 H 0.84835 0.19189 0.3046 0.0
H892 H 0.90362 0.12788 0.3783 0.0
H893 H 0.92481 0.11348 0.43062 0.0
H894 H 0.98057 0.20257 0.43791 0.0
H895 H 0.95919 0.2176 0.38588 0.0
C896 C 0.96794 0.18293 0.21674 0.0
C897 C 0.99218 0.20772 0.21825 0.0
C898 C 0.94707 0.1784 0.24103 0.0
C899 C 0.9501 0.19848 0.26731 0.0
C900 C 0.97516 0.22231 0.26953 0.0
C901 C 0.99587 0.227 0.24516 0.0
C902 C 0.92693 0.19488 0.29231 0.0
C903 C 0.93763 0.18894 0.32313 0.0
C904 C 0.89435 0.19619 0.28567 0.0
C905 C 0.88177 0.20388 0.25391 0.0
C906 C 0.8917 0.23262 0.23983 0.0
C907 C 0.87971 0.23979 0.20989 0.0
C908 C 0.85785 0.21836 0.19379 0.0
C909 C 0.84797 0.18969 0.20758 0.0
C910 C 0.85966 0.18252 0.23763 0.0
C911 C 0.84559 0.17688 0.4192 0.0
C912 C 0.82302 0.15104 0.41346 0.0
C913 C 0.86376 0.18952 0.39491 0.0
C914 C 0.86006 0.17615 0.36464 0.0
C915 C 0.835 0.15288 0.3582 0.0
C916 C 0.81658 0.14056 0.38233 0.0
C917 C 0.88377 0.18393 0.34052 0.0
C918 C 0.87325 0.19068 0.30978 0.0
C919 C 0.91653 0.18297 0.34719 0.0
C920 C 0.92945 0.17397 0.37843 0.0
C921 C 0.92015 0.14444 0.39122 0.0
C922 C 0.93223 0.13617 0.42078 0.0
C923 C 0.95396 0.15714 0.4376 0.0
C924 C 0.96367 0.18638 0.42488 0.0
C925 C 0.95156 0.19479 0.39537 0.0
H926 H 0.96337 0.15069 0.46044 0.0
H927 H 0.84857 0.22395 0.17063 0.0
H928 H 0.07057 0.00598 0.40245 0.0
H929 H 0.02014 0.00705 0.42678 0.0
H930 H 0.97339 0.95502 0.34824 0.0
H931 H 0.02387 0.95447 0.32356 0.0
H932 H 0.94347 0.00294 0.36023 0.0
H933 H 0.9853 0.92397 0.42173 0.0
H934 H 0.02516 0.90024 0.45492 0.0
H935 H 0.01557 0.96707 0.52798 0.0
H936 H 0.97747 0.9926 0.49462 0.0
H937 H 0.80389 0.02767 0.42832 0.0
H938 H 0.84242 0.99268 0.41257 0.0
H939 H 0.91023 0.03679 0.48108 0.0
H940 H 0.87125 0.07058 0.49765 0.0
H941 H 0.92362 0.97959 0.47185 0.0
H942 H 0.89549 0.06565 0.40282 0.0
H943 H 0.85847 0.09199 0.36822 0.0
H944 H 0.84259 0.00999 0.30961 0.0
H945 H 0.87902 0.98285 0.34418 0.0
C946 C 0.04963 0.99432 0.39063 0.0
C947 C 0.05116 0.98025 0.36103 0.0
C948 C 0.02077 0.99488 0.40459 0.0
C949 C 0.9929 0.98083 0.38953 0.0
C950 C 0.99453 0.96605 0.36032 0.0
C951 C 0.02334 0.96581 0.34619 0.0
C952 C 0.9619 0.98371 0.40313 0.0
C953 C 0.93892 0.99711 0.38447 0.0
C954 C 0.95594 0.97632 0.43484 0.0
C955 C 0.97865 0.96054 0.45535 0.0
C956 C 0.99213 0.93405 0.44464 0.0
C957 C 0.0147 0.92041 0.46343 0.0
C958 C 0.02331 0.93239 0.4934 0.0
C959 C 0.00934 0.95803 0.50463 0.0
C960 C 0.98734 0.97223 0.4857 0.0
C961 C 0.82647 0.02859 0.44113 0.0
C962 C 0.8347 0.05164 0.46435 0.0
C963 C 0.84864 0.00891 0.43187 0.0
C964 C 0.87962 0.0128 0.44496 0.0
C965 C 0.88658 0.03336 0.47057 0.0
C966 C 0.86425 0.05252 0.48025 0.0
C967 C 0.90596 0.9999 0.42924 0.0
C968 C 0.92804 0.98462 0.44744 0.0
C969 C 0.91131 0.0056 0.39708 0.0
C970 C 0.88967 0.02213 0.37626 0.0
C971 C 0.88401 0.05322 0.38262 0.0
C972 C 0.86314 0.06828 0.36304 0.0
C973 C 0.84821 0.05272 0.33678 0.0
C974 C 0.85412 0.02201 0.33 0.0
C975 C 0.87482 0.00675 0.3496 0.0
H976 H 0.83208 0.06449 0.32168 0.0
H977 H 0.04042 0.9215 0.50808 0.0
H978 H 0.23909 0.8524 0.61567 0.0
H979 H 0.24732 0.80422 0.64447 0.0
H980 H 0.27021 0.76026 0.55869 0.0
H981 H 0.26194 0.80812 0.52977 0.0
H982 H 0.22524 0.72598 0.58645 0.0
H983 H 0.3247 0.77738 0.61813 0.0
H984 H 0.36555 0.81649 0.6411 0.0
H985 H 0.32686 0.80311 0.73172 0.0
H986 H 0.2852 0.76455 0.70922 0.0
H987 H 0.23292 0.58195 0.65963 0.0
H988 H 0.25852 0.62905 0.63532 0.0
H989 H 0.23181 0.6854 0.71144 0.0
H990 H 0.20679 0.63818 0.73594 0.0
H991 H 0.28666 0.71125 0.68591 0.0
H992 H 0.18357 0.66478 0.65217 0.0
H993 H 0.14484 0.62352 0.62996 0.0
H994 H 0.18939 0.62973 0.54192 0.0
H995 H 0.23015 0.66947 0.56435 0.0
C996 C 0.24638 0.83266 0.603 0.0
C997 C 0.24959 0.83412 0.57031 0.0
C998 C 0.25131 0.80517 0.61958 0.0
C999 C 0.25958 0.7786 0.60382 0.0
C1000 C 0.26395 0.78045 0.57141 0.0
C1001 C 0.25914 0.80788 0.55488 0.0
C1002 C 0.25971 0.74784 0.62013 0.0
C1003 C 0.2392 0.72267 0.60786 0.0
C1004 C 0.27751 0.7436 0.64848 0.0
C1005 C 0.30141 0.76831 0.66177 0.0
C1006 C 0.32439 0.78325 0.64281 0.0
C1007 C 0.34782 0.80527 0.6558 0.0
C1008 C 0.34871 0.8124 0.68781 0.0
C1009 C 0.32607 0.79767 0.70689 0.0
C1010 C 0.3025 0.77576 0.694 0.0
C1011 C 0.23434 0.6041 0.67216 0.0
C1012 C 0.218 0.60658 0.69971 0.0
C1013 C 0.24858 0.63109 0.65803 0.0
C1014 C 0.24646 0.66083 0.67126 0.0
C1015 C 0.23379 0.66273 0.70087 0.0
C1016 C 0.21963 0.63578 0.71497 0.0
C1017 C 0.25201 0.68986 0.65232 0.0
C1018 C 0.27324 0.71466 0.6642 0.0
C1019 C 0.23474 0.69397 0.62363 0.0
C1020 C 0.21048 0.66964 0.61027 0.0
C1021 C 0.18568 0.65688 0.62832 0.0
C1022 C 0.16334 0.63369 0.61569 0.0
C1023 C 0.16451 0.62405 0.58454 0.0
C1024 C 0.18853 0.63716 0.5661 0.0
C1025 C 0.21151 0.65976 0.57889 0.0
H1026 H 0.14668 0.60662 0.57469 0.0
H1027 H 0.36703 0.82924 0.69786 0.0
H1028 H 0.52674 0.0383 0.83174 0.0
H1029 H 0.57374 0.02278 0.86 0.0
H1030 H 0.51687 0.98555 0.93489 0.0
H1031 H 0.46985 1.00155 0.90686 0.0
H1032 H 0.56971 0.01403 0.95913 0.0
H1033 H 0.54318 0.93681 0.87947 0.0
H1034 H 0.53005 0.91505 0.82637 0.0
H1035 H 0.61901 0.95607 0.7954 0.0
H1036 H 0.63251 0.97841 0.84825 0.0
H1037 H 0.67368 0.90167 0.01575 0.0
H1038 H 0.6325 0.9347 0.99901 0.0
H1039 H 0.69215 0.97666 0.92843 0.0
H1040 H 0.73295 0.94306 0.94469 0.0
H1041 H 0.63909 0.94926 0.90308 0.0
H1042 H 0.66656 0.01843 0.9906 0.0
H1043 H 0.67701 0.03289 0.04632 0.0
H1044 H 0.58218 0.99879 0.06622 0.0
H1045 H 0.57137 0.98342 0.01075 0.0
C1046 C 0.52425 0.02676 0.85418 0.0
C1047 C 0.49454 0.02096 0.86693 0.0
C1048 C 0.55113 0.0179 0.87035 0.0
C1049 C 0.54884 0.00254 0.89939 0.0
C1050 C 0.51929 0.9974 0.91256 0.0
C1051 C 0.49241 0.00656 0.89651 0.0
C1052 C 0.57714 0.99114 0.91552 0.0
C1053 C 0.58473 0.99951 0.94706 0.0
C1054 C 0.59693 0.97247 0.8997 0.0
C1055 C 0.58865 0.95966 0.86769 0.0
C1056 C 0.55979 0.94149 0.86124 0.0
C1057 C 0.55232 0.92897 0.83122 0.0
C1058 C 0.57363 0.93428 0.80749 0.0
C1059 C 0.60249 0.95206 0.81377 0.0
C1060 C 0.61006 0.96464 0.84376 0.0
C1061 C 0.67853 0.91908 0.99773 0.0
C1062 C 0.70649 0.92005 0.98162 0.0
C1063 C 0.65492 0.93787 0.98805 0.0
C1064 C 0.65915 0.95815 0.96237 0.0
C1065 C 0.68833 0.96119 0.94827 0.0
C1066 C 0.71175 0.94222 0.95773 0.0
C1067 C 0.63184 0.97191 0.94686 0.0
C1068 C 0.6243 0.96388 0.91529 0.0
C1069 C 0.6117 0.98992 0.96309 0.0
C1070 C 0.61827 0.99932 0.9965 0.0
C1071 C 0.64803 0.01362 0.00689 0.0
C1072 C 0.65402 0.02203 0.03846 0.0
C1073 C 0.63033 0.0166 0.05983 0.0
C1074 C 0.60056 0.00286 0.04967 0.0
C1075 C 0.59451 0.99426 0.01817 0.0
H1076 H 0.635 0.02319 0.08425 0.0
H1077 H 0.56782 0.92453 0.78428 0.0
H1078 H 0.34151 0.20477 0.0885 0.0
H1079 H 0.34195 0.25538 0.11393 0.0
H1080 H 0.30347 0.29395 0.02878 0.0
H1081 H 0.30394 0.24281 1.00239 0.0
H1082 H 0.3483 0.33549 0.05705 0.0
H1083 H 0.25593 0.27871 0.0885 0.0
H1084 H 0.2206 0.23438 0.10733 0.0
H1085 H 0.2737 0.23635 0.19545 0.0
H1086 H 0.30974 0.28045 0.17697 0.0
H1087 H 0.35076 0.46931 0.15659 0.0
H1088 H 0.32494 0.42677 0.12303 0.0
H1089 H 0.35936 0.35865 0.18703 0.0
H1090 H 0.38434 0.40096 0.22079 0.0
H1091 H 0.30289 0.33711 0.16189 0.0
H1092 H 0.4002 0.39136 0.12075 0.0
H1093 H 0.43064 0.43793 0.09914 0.0
H1094 H 0.35995 0.44276 0.0249 0.0
H1095 H 0.32887 0.39669 0.0464 0.0
C1096 C 0.33382 0.22404 0.0747 0.0
C1097 C 0.32301 0.21961 0.04314 0.0
C1098 C 0.33357 0.253 0.08957 0.0
C1099 C 0.32212 0.27843 0.07359 0.0
C1100 C 0.31222 0.27462 0.04173 0.0
C1101 C 0.31256 0.24541 0.02665 0.0
C1102 C 0.32105 0.30869 0.09074 0.0
C1103 C 0.33775 0.33602 0.07965 0.0
C1104 C 0.30694 0.30969 0.12008 0.0
C1105 C 0.28563 0.28288 0.1313 0.0
C1106 C 0.26025 0.26957 0.11182 0.0
C1107 C 0.24006 0.24451 0.12245 0.0
C1108 C 0.24489 0.23261 0.15259 0.0
C1109 C 0.26996 0.2457 0.17216 0.0
C1110 C 0.29025 0.27075 0.16163 0.0
C1111 C 0.35161 0.44525 0.16415 0.0
C1112 C 0.36959 0.43845 0.19134 0.0
C1113 C 0.33727 0.42092 0.14468 0.0
C1114 C 0.34092 0.38941 0.15196 0.0
C1115 C 0.35633 0.38269 0.18066 0.0
C1116 C 0.37052 0.40691 0.20009 0.0
C1117 C 0.33159 0.36337 0.12899 0.0
C1118 C 0.31286 0.33676 0.13899 0.0
C1119 C 0.34315 0.36335 0.09831 0.0
C1120 C 0.3621 0.39085 0.08542 0.0
C1121 C 0.39113 0.4025 0.09996 0.0
C1122 C 0.40848 0.42876 0.08773 0.0
C1123 C 0.39722 0.44327 0.06073 0.0
C1124 C 0.36861 0.43154 0.04586 0.0
C1125 C 0.35112 0.4054 0.05807 0.0
H1126 H 0.41069 0.46357 0.0513 0.0
H1127 H 0.22921 0.21323 0.1608 0.0
H1128 H 0.08669 0.99779 0.14788 0.0
H1129 H 0.03729 1.00055 0.11752 0.0
H1130 H 0.99528 0.03448 0.19931 0.0
H1131 H 0.0445 0.03084 0.2301 0.0
H1132 H 0.95814 0.99092 0.17675 0.0
H1133 H 0.00622 0.07975 0.13242 0.0
H1134 H 0.04496 0.11753 0.10816 0.0
H1135 H 0.03934 0.06073 0.02474 0.0
H1136 H 1.00085 0.02234 0.04875 0.0
H1137 H 0.82387 0.94881 0.08371 0.0
H1138 H 0.86068 0.99293 0.1031 0.0
H1139 H 0.93502 0.956 0.05422 0.0
H1140 H 0.89819 0.91262 0.03434 0.0
H1141 H 0.94742 0.01975 0.06453 0.0
H1142 H 0.9019 0.92737 0.12504 0.0
H1143 H 0.85922 0.89902 0.15337 0.0
H1144 H 0.85442 0.97927 0.21244 0.0
H1145 H 0.89662 0.00859 0.18373 0.0
C1146 C 0.06713 0.00635 0.15933 0.0
C1147 C 0.06953 0.01382 0.19152 0.0
C1148 C 0.03886 0.00819 0.14181 0.0
C1149 C 0.0124 0.01796 0.15594 0.0
C1150 C 0.01523 0.02681 0.18779 0.0
C1151 C 0.04344 0.02473 0.20539 0.0
C1152 C 0.98112 0.01501 0.13846 0.0
C1153 C 0.95564 0.99814 0.15245 0.0
C1154 C 0.97719 0.02504 0.10698 0.0
C1155 C 1.00092 0.04776 0.09258 0.0
C1156 C 0.01354 0.075 0.10907 0.0
C1157 C 0.03539 0.09664 0.09532 0.0
C1158 C 0.04473 0.09145 0.06498 0.0
C1159 C 0.03217 0.06466 0.04829 0.0
C1160 C 0.01033 0.04295 0.06196 0.0
C1161 C 0.84752 0.95136 0.07536 0.0
C1162 C 0.85834 0.92714 0.05785 0.0
C1163 C 0.8687 0.97639 0.08682 0.0
C1164 C 0.90091 0.97704 0.0812 0.0
C1165 C 0.91042 0.95578 0.05934 0.0
C1166 C 0.88926 0.93103 0.04771 0.0
C1167 C 0.92551 0.99433 0.10237 0.0
C1168 C 0.9498 0.01373 0.08911 0.0
C1169 C 0.92775 0.98812 0.13506 0.0
C1170 C 0.9022 0.97029 0.15193 0.0
C1171 C 0.89172 0.93904 0.14395 0.0
C1172 C 0.86757 0.92277 0.16009 0.0
C1173 C 0.85413 0.93721 0.18476 0.0
C1174 C 0.86478 0.96809 0.19327 0.0
C1175 C 0.88872 0.98459 0.17696 0.0
H1176 H 0.83548 0.92447 0.19727 0.0
H1177 H 0.06161 0.10826 0.05435 0.0
H1178 H 0.28367 0.81767 0.41875 0.0
H1179 H 0.29835 0.77389 0.3877 0.0
H1180 H 0.20956 0.77037 0.33479 0.0
H1181 H 0.19472 0.81402 0.36577 0.0
H1182 H 0.22088 0.71468 0.34654 0.0
H1183 H 0.28047 0.80415 0.31017 0.0
H1184 H 0.3174 0.85169 0.30738 0.0
H1185 H 0.39432 0.79855 0.33366 0.0
H1186 H 0.35769 0.75069 0.33731 0.0
H1187 H 0.34333 0.63382 0.24631 0.0
H1188 H 0.3113 0.67683 0.25564 0.0
H1189 H 0.2853 0.63547 0.3441 0.0
H1190 H 0.31643 0.59207 0.33442 0.0
H1191 H 0.32523 0.71746 0.30022 0.0
H1192 H 0.21971 0.65894 0.3688 0.0
H1193 H 0.18254 0.61105 0.36463 0.0
H1194 H 0.19589 0.60585 0.26571 0.0
H1195 H 0.2328 0.65395 0.26916 0.0
C1196 C 0.26729 0.80758 0.40047 0.0
C1197 C 0.23815 0.81952 0.39455 0.0
C1198 C 0.27582 0.78273 0.38252 0.0
C1199 C 0.25542 0.76937 0.35821 0.0
C1200 C 0.22602 0.7808 0.35278 0.0
C1201 C 0.21759 0.80581 0.37051 0.0
C1202 C 0.26446 0.74303 0.33897 0.0
C1203 C 0.2437 0.71541 0.33637 0.0
C1204 C 0.29383 0.7443 0.32458 0.0
C1205 C 0.31601 0.77353 0.32386 0.0
C1206 C 0.30512 0.80249 0.31557 0.0
C1207 C 0.32608 0.8296 0.3139 0.0
C1208 C 0.35821 0.82815 0.32028 0.0
C1209 C 0.3694 0.79963 0.32863 0.0
C1210 C 0.34848 0.77247 0.33051 0.0
C1211 C 0.32969 0.6332 0.2671 0.0
C1212 C 0.33251 0.60962 0.28973 0.0
C1213 C 0.31164 0.65799 0.27256 0.0
C1214 C 0.29593 0.65953 0.30062 0.0
C1215 C 0.29681 0.63471 0.32208 0.0
C1216 C 0.31479 0.60995 0.31662 0.0
C1217 C 0.28257 0.68878 0.30979 0.0
C1218 C 0.30238 0.71702 0.31027 0.0
C1219 C 0.25226 0.68835 0.32174 0.0
C1220 C 0.2293 0.65992 0.31933 0.0
C1221 C 0.21459 0.64771 0.34612 0.0
C1222 C 0.19363 0.62046 0.3439 0.0
C1223 C 0.18711 0.60524 0.31499 0.0
C1224 C 0.20124 0.61746 0.28815 0.0
C1225 C 0.22218 0.64472 0.29023 0.0
H1226 H 0.17092 0.58412 0.31333 0.0
H1227 H 0.37444 0.84913 0.31873 0.0
H1228 H 0.50166 0.02282 0.72315 0.0
H1229 H 0.54814 0.02873 0.69127 0.0
H1230 H 0.50276 0.09184 0.62975 0.0
H1231 H 0.45599 0.08579 0.66089 0.0
H1232 H 0.52721 0.03717 0.60096 0.0
H1233 H 0.55376 0.12954 0.67091 0.0
H1234 H 0.57868 0.1581 0.76052 0.0
H1235 H 0.64952 0.07957 0.752 0.0
H1236 H 0.63303 0.06032 0.69377 0.0
H1237 H 0.64896 0.1058 0.50795 0.0
H1238 H 0.60394 0.08495 0.53678 0.0
H1239 H 0.66629 0.04731 0.60641 0.0
H1240 H 0.71153 0.06969 0.57809 0.0
H1241 H 0.63374 0.08656 0.63328 0.0
H1242 H 0.60477 1.00119 0.56004 0.0
H1243 H 0.59307 0.97758 0.50744 0.0
H1244 H 0.51691 0.0347 0.49194 0.0
H1245 H 0.52836 0.059 0.54416 0.0
C1246 C 0.50152 0.03796 0.70282 0.0
C1247 C 0.47493 0.05358 0.69443 0.0
C1248 C 0.5282 0.0415 0.68482 0.0
C1249 C 0.52887 0.06096 0.65836 0.0
C1250 C 0.50257 0.07678 0.65012 0.0
C1251 C 0.47587 0.07317 0.66793 0.0
C1252 C 0.55564 0.06247 0.63746 0.0
C1253 C 0.5505 0.0482 0.6078 0.0
C1254 C 0.58601 0.07647 0.64671 0.0
C1255 C 0.59276 0.09242 0.67741 0.0
C1256 C 0.57126 0.12216 0.68819 0.0
C1257 C 0.58727 0.14052 0.7454 0.0
C1258 C 0.61626 0.11969 0.76106 0.0
C1259 C 0.63122 0.0914 0.74008 0.0
C1260 C 0.62072 0.07918 0.70244 0.0
C1261 C 0.65296 0.09125 0.52825 0.0
C1262 C 0.6837 0.08966 0.54097 0.0
C1263 C 0.62711 0.07956 0.54505 0.0
C1264 C 0.6316 0.06495 0.57421 0.0
C1265 C 0.66221 0.05889 0.58422 0.0
C1266 C 0.68811 0.07105 0.56761 0.0
C1267 C 0.60551 0.06115 0.59631 0.0
C1268 C 0.61063 0.07517 0.62629 0.0
C1269 C 0.57493 0.04737 0.58706 0.0
C1270 C 0.56764 0.03212 0.55595 0.0
C1271 C 0.58563 0.00883 0.54536 0.0
C1272 C 0.57903 0.99532 0.51562 0.0
C1273 C 0.55441 0.00485 0.49637 0.0
C1274 C 0.53604 0.02749 0.50689 0.0
C1275 C 0.54255 0.04109 0.53656 0.0
H1276 H 0.54957 0.99486 0.47324 0.0
H1277 H 0.62531 0.12469 0.78483 0.0
H1278 H 0.17623 0.20789 0.94741 0.0
H1279 H 0.18387 0.25055 0.90975 0.0
H1280 H 0.24443 0.30474 0.97793 0.0
H1281 H 0.23605 0.26246 0.01611 0.0
H1282 H 0.20722 0.34073 0.94857 0.0
H1283 H 0.27292 0.26478 0.91667 0.0
H1284 H 0.28688 0.2129 0.90066 0.0
H1285 H 0.22481 0.21455 0.8186 0.0
H1286 H 0.21007 0.26625 0.83436 0.0
H1287 H 0.24473 0.45931 0.84211 0.0
H1288 H 0.25693 0.41504 0.87532 0.0
H1289 H 0.19654 0.35211 0.81449 0.0
H1290 H 0.18551 0.39617 0.78064 0.0
H1291 H 0.24101 0.32092 0.8413 0.0
H1292 H 0.16946 0.39159 0.87696 0.0
H1293 H 0.15363 0.44242 0.89282 0.0
H1294 H 0.22307 0.44845 0.96913 0.0
H1295 H 0.24064 0.39802 0.95272 0.0
C1296 C 0.19053 0.22915 0.95475 0.0
C1297 C 0.2055 0.2317 0.98493 0.0
C1298 C 0.19542 0.25333 0.93289 0.0
C1299 C 0.21547 0.28056 0.94061 0.0
C1300 C 0.22918 0.28383 0.9712 0.0
C1301 C 0.22428 0.2597 0.99307 0.0
C1302 C 0.22136 0.30605 0.91716 0.0
C1303 C 0.21522 0.33644 0.92533 0.0
C1304 C 0.23123 0.30045 0.88654 0.0
C1305 C 0.24009 0.26931 0.87693 0.0
C1306 C 0.26194 0.25395 0.8954 0.0
C1307 C 0.27008 0.22459 0.88632 0.0
C1308 C 0.25666 0.21038 0.85871 0.0
C1309 C 0.23519 0.22557 0.84001 0.0
C1310 C 0.22696 0.25493 0.849 0.0
C1311 C 0.23551 0.43576 0.83494 0.0
C1312 C 0.21439 0.4311 0.80868 0.0
C1313 C 0.24207 0.4105 0.85419 0.0
C1314 C 0.22682 0.38031 0.84805 0.0
C1315 C 0.20845 0.37514 0.81994 0.0
C1316 C 0.20234 0.40033 0.80038 0.0
C1317 C 0.22624 0.35539 0.87262 0.0
C1318 C 0.23339 0.32516 0.86468 0.0
C1319 C 0.21698 0.36093 0.90349 0.0
C1320 C 0.20672 0.39133 0.91326 0.0
C1321 C 0.18167 0.40391 0.89688 0.0
C1322 C 0.1723 0.43266 0.90605 0.0
C1323 C 0.18709 0.44872 0.93208 0.0
C1324 C 0.2116 0.43606 0.94892 0.0
C1325 C 0.22144 0.40746 0.93959 0.0
H1326 H 0.17956 0.47095 0.93915 0.0
H1327 H 0.26294 0.1876 0.8518 0.0
H1328 H 0.3055 0.03595 0.11361 0.0
H1329 H 0.34427 0.99809 0.12148 0.0
H1330 H 0.40707 0.05275 0.06142 0.0
H1331 H 0.36724 0.08912 0.05171 0.0
H1332 H 0.41207 0.99721 0.04874 0.0
H1333 H 0.41758 0.05044 0.14749 0.0
H1334 H 0.39809 0.07196 0.19569 0.0
H1335 H 0.36064 0.97951 0.22247 0.0
H1336 H 0.37933 0.95758 0.17412 0.0
H1337 H 0.50909 0.89382 0.16724 0.0
H1338 H 0.49162 0.94403 0.15008 0.0
H1339 H 0.43625 0.89675 0.07354 0.0
H1340 H 0.45508 0.84708 0.08983 0.0
H1341 H 0.43699 0.95664 0.15477 0.0
H1342 H 0.4113 0.94677 0.01811 0.0
H1343 H 0.43776 0.93112 0.97134 0.0
H1344 H 0.52726 0.94486 0.0221 0.0
H1345 H 0.50157 0.96159 0.06886 0.0
C1346 C 0.32767 0.03992 0.1023 0.0
C1347 C 0.33349 0.0657 0.08237 0.0
C1348 C 0.34999 0.01837 0.10693 0.0
C1349 C 0.37916 0.02278 0.09268 0.0
C1350 C 0.38492 0.04865 0.07277 0.0
C1351 C 0.3622 0.06961 0.06739 0.0
C1352 C 0.40323 1.00006 0.09795 0.0
C1353 C 0.41757 0.98835 0.07196 0.0
C1354 C 0.41149 0.98918 0.12829 0.0
C1355 C 0.39984 1.00239 0.15719 0.0
C1356 C 0.40502 0.03475 0.16358 0.0
C1357 C 0.39409 0.04702 0.19091 0.0
C1358 C 0.37812 0.02713 0.21213 0.0
C1359 C 0.37301 0.99491 0.20604 0.0
C1360 C 0.3838 0.98254 0.17869 0.0
C1361 C 0.49464 0.89459 0.14572 0.0
C1362 C 0.48381 0.86672 0.12955 0.0
C1363 C 0.48426 0.9232 0.13614 0.0
C1364 C 0.46235 0.9244 0.11056 0.0
C1365 C 0.45355 0.89685 0.09295 0.0
C1366 C 0.46444 0.86836 0.10219 0.0
C1367 C 0.44497 0.9527 0.10549 0.0
C1368 C 0.43179 0.96551 0.13154 0.0
C1369 C 0.43867 0.96519 0.07533 0.0
C1370 C 0.45438 0.95519 0.04718 0.0
C1371 C 0.43666 0.94668 0.01928 0.0
C1372 C 0.45155 0.93767 0.99272 0.0
C1373 C 0.48419 0.93704 0.99373 0.0
C1374 C 0.502 0.94545 0.02131 0.0
C1375 C 0.48727 0.95467 0.04787 0.0
H1376 H 0.49567 0.93004 0.97316 0.0
H1377 H 0.36972 0.03668 0.23329 0.0
H1378 H 0.82836 0.50369 0.03995 0.0
H1379 H 0.85987 0.55377 0.03361 0.0
H1380 H 0.92774 0.50747 0.98396 0.0
H1381 H 0.89604 0.45695 0.98991 0.0
H1382 H 0.95591 0.55514 0.02548 0.0
H1383 H 0.8794 0.54308 0.94045 0.0
H1384 H 0.82783 0.53328 0.91184 0.0
H1385 H 0.79366 0.60885 0.96198 0.0
H1386 H 0.84503 0.61899 0.99105 0.0
H1387 H 0.00634 0.67647 0.91763 0.0
H1388 H 0.99355 0.63152 0.95152 0.0
H1389 H 0.93239 0.6851 1.00249 0.0
H1390 H 0.94545 0.73023 0.96881 0.0
H1391 H 0.9015 0.63568 0.96699 0.0
H1392 H 0.9847 0.65055 0.04531 0.0
H1393 H 0.03996 0.66271 0.06434 0.0
H1394 H 0.06535 0.58187 0.01576 0.0
H1395 H 0.01027 0.56935 0.99626 0.0
C1396 C 0.85021 0.50393 0.02807 0.0
C1397 C 0.85954 0.47625 0.01523 0.0
C1398 C 0.86815 0.53267 0.02439 0.0
C1399 C 0.89595 0.53439 0.00802 0.0
C1400 C 0.90631 0.50664 0.99662 0.0
C1401 C 0.88814 0.47782 0.99999 0.0
C1402 C 0.91281 0.56545 1.00114 0.0
C1403 C 0.94421 0.57259 0.01226 0.0
C1404 C 0.89739 0.58848 0.98441 0.0
C1405 C 0.86586 0.58137 0.96839 0.0
C1406 C 0.86071 0.55723 0.9458 0.0
C1407 C 0.83158 0.55174 0.92936 0.0
C1408 C 0.80741 0.5703 0.93523 0.0
C1409 C 0.81236 0.59441 0.95754 0.0
C1410 C 0.84148 0.60005 0.974 0.0
C1411 C 0.99193 0.6794 0.93744 0.0
C1412 C 0.97665 0.70672 0.94044 0.0
C1413 C 0.98436 0.65353 0.95667 0.0
C1414 C 0.9616 0.65482 0.97919 0.0
C1415 C 0.94991 0.68359 0.98517 0.0
C1416 C 0.95765 0.70949 0.96613 0.0
C1417 C 0.94486 0.62522 0.99051 0.0
C1418 C 0.91326 0.61829 0.98029 0.0
C1419 C 0.96048 0.60224 0.00696 0.0
C1420 C 0.99343 0.60908 0.01926 0.0
C1421 C 1.00211 0.63541 0.03862 0.0
C1422 C 0.03338 0.64237 0.04951 0.0
C1423 C 0.05618 0.62314 0.04118 0.0
C1424 C 0.04769 0.59678 0.02214 0.0
C1425 C 0.01642 0.58964 0.0113 0.0
H1426 H 0.08039 0.6287 0.04954 0.0
H1427 H 0.78492 0.5661 0.92238 0.0
H1428 H 0.82721 0.65805 0.25913 0.0
H1429 H 0.77874 0.68316 0.25305 0.0
H1430 H 0.72852 0.60476 0.29864 0.0
H1431 H 0.77721 0.57928 0.3046 0.0
H1432 H 0.69665 0.61931 0.24847 0.0
H1433 H 0.74619 0.67764 0.33378 0.0
H1434 H 0.78829 0.70902 0.36461 0.0
H1435 H 0.78727 0.78302 0.29688 0.0
H1436 H 0.74576 0.7518 0.26507 0.0
H1437 H 0.56717 0.70519 0.20479 0.0
H1438 H 0.60204 0.68279 0.24406 0.0
H1439 H 0.68133 0.74067 0.20955 0.0
H1440 H 0.6464 0.7646 0.17196 0.0
H1441 H 0.68998 0.73208 0.2704 0.0
H1442 H 0.6731 0.64275 0.18116 0.0
H1443 H 0.63435 0.60938 0.14773 0.0
H1444 H 0.57477 0.59426 0.2257 0.0
H1445 H 0.61322 0.62775 0.25931 0.0
C1446 C 0.80604 0.64632 0.26838 0.0
C1447 C 0.80624 0.61667 0.28251 0.0
C1448 C 0.77825 0.66079 0.26496 0.0
C1449 C 0.74998 0.64624 0.27597 0.0
C1450 C 0.75004 0.61662 0.29015 0.0
C1451 C 0.77788 0.60198 0.29341 0.0
C1452 C 0.72017 0.66111 0.27044 0.0
C1453 C 0.69496 0.64379 0.25405 0.0
C1454 C 0.71778 0.69309 0.27769 0.0
C1455 C 0.74275 0.71219 0.2969 0.0
C1456 C 0.7551 0.70046 0.32521 0.0
C1457 C 0.77891 0.71825 0.34289 0.0
C1458 C 0.79043 0.748 0.33272 0.0
C1459 C 0.77825 0.75999 0.30478 0.0
C1460 C 0.75455 0.74224 0.28691 0.0
C1461 C 0.59187 0.71391 0.20633 0.0
C1462 C 0.60409 0.73634 0.18486 0.0
C1463 C 0.61197 0.70043 0.22827 0.0
C1464 C 0.64467 0.70868 0.2287 0.0
C1465 C 0.65632 0.73331 0.20939 0.0
C1466 C 0.63629 0.74705 0.18784 0.0
C1467 C 0.66745 0.69068 0.24702 0.0
C1468 C 0.69142 0.70737 0.26584 0.0
C1469 C 0.66878 0.65808 0.24225 0.0
C1470 C 0.64523 0.63876 0.22217 0.0
C1471 C 0.65138 0.6328 0.19084 0.0
C1472 C 0.62963 0.61372 0.17197 0.0
C1473 C 0.6019 0.60004 0.18446 0.0
C1474 C 0.59607 0.60517 0.21594 0.0
C1475 C 0.61781 0.62422 0.23487 0.0
H1476 H 0.58509 0.58525 0.16985 0.0
H1477 H 0.80879 0.76176 0.34651 0.0
H1478 H 0.76313 0.55324 0.47048 0.0
H1479 H 0.72112 0.5109 0.4614 0.0
H1480 H 0.65233 0.57802 0.45769 0.0
H1481 H 0.69423 0.62064 0.46742 0.0
H1482 H 0.63585 0.52939 0.49683 0.0
H1483 H 0.6714 0.54065 0.39146 0.0
H1484 H 0.71386 0.54562 0.35412 0.0
H1485 H 0.73793 0.45348 0.3785 0.0
H1486 H 0.69603 0.44821 0.41651 0.0
H1487 H 0.52156 0.41462 0.40534 0.0
H1488 H 0.55235 0.46126 0.42768 0.0
H1489 H 0.61785 0.40298 0.47194 0.0
H1490 H 0.58648 0.35618 0.45056 0.0
H1491 H 0.63352 0.44883 0.41301 0.0
H1492 H 0.60332 0.4375 0.51943 0.0
H1493 H 0.57069 0.4348 0.56559 0.0
H1494 H 0.54092 0.52534 0.54352 0.0
H1495 H 0.57391 0.52884 0.49755 0.0
C1496 C 0.73917 0.55917 0.46707 0.0
C1497 C 0.73214 0.59043 0.46971 0.0
C1498 C 0.71511 0.53486 0.46194 0.0
C1499 C 0.68352 0.54125 0.45885 0.0
C1500 C 0.67651 0.57252 0.46014 0.0
C1501 C 0.70056 0.59689 0.4654 0.0
C1502 C 0.65784 0.51514 0.45552 0.0
C1503 C 0.6349 0.51208 0.47813 0.0
C1504 C 0.65728 0.49206 0.43171 0.0
C1505 C 0.68077 0.49418 0.40708 0.0
C1506 C 0.68575 0.52145 0.38887 0.0
C1507 C 0.70979 0.52436 0.36766 0.0
C1508 C 0.72878 0.5 0.3642 0.0
C1509 C 0.72333 0.4724 0.3814 0.0
C1510 C 0.69941 0.46943 0.40275 0.0
C1511 C 0.54138 0.41171 0.4215 0.0
C1512 C 0.55154 0.38185 0.42644 0.0
C1513 C 0.55912 0.43842 0.43411 0.0
C1514 C 0.58743 0.43565 0.45144 0.0
C1515 C 0.59585 0.40563 0.45901 0.0
C1516 C 0.57778 0.37888 0.44694 0.0
C1517 C 0.61154 0.46302 0.45441 0.0
C1518 C 0.63413 0.46637 0.43147 0.0
C1519 C 0.61197 0.48608 0.47817 0.0
C1520 C 0.59032 0.48299 0.50439 0.0
C1521 C 0.5893 0.45654 0.52397 0.0
C1522 C 0.57114 0.45509 0.55043 0.0
C1523 C 0.55368 0.47984 0.55744 0.0
C1524 C 0.55441 0.50614 0.53805 0.0
C1525 C 0.57291 0.50791 0.51184 0.0
H1526 H 0.53963 0.47867 0.57793 0.0
H1527 H 0.74773 0.50249 0.34818 0.0
H1528 H 0.18442 0.87439 0.20179 0.0
H1529 H 0.23107 0.84586 0.19947 0.0
H1530 H 0.27264 0.89662 0.28104 0.0
H1531 H 0.22616 0.92501 0.28364 0.0
H1532 H 0.31259 0.89743 0.23453 0.0
H1533 H 0.23735 0.82363 0.27977 0.0
H1534 H 0.19037 0.78667 0.28516 0.0
H1535 H 0.22057 0.72764 0.21374 0.0
H1536 H 0.26629 0.76568 0.20538 0.0
H1537 H 0.44986 0.82617 0.24122 0.0
H1538 H 0.3997 0.8368 0.26233 0.0
H1539 H 0.34979 0.78269 0.18686 0.0
H1540 H 0.39981 0.77084 0.16676 0.0
H1541 H 0.31413 0.78184 0.23572 0.0
H1542 H 0.37487 0.86245 0.1782 0.0
H1543 H 0.42264 0.8977 0.16863 0.0
H1544 H 0.41815 0.94034 0.25925 0.0
H1545 H 0.3704 0.90509 0.26945 0.0
C1546 C 0.20331 0.87925 0.21946 0.0
C1547 C 0.20155 0.90219 0.24282 0.0
C1548 C 0.23 0.86292 0.21806 0.0
C1549 C 0.25531 0.86902 0.24016 0.0
C1550 C 0.25345 0.89163 0.26366 0.0
C1551 C 0.22688 0.90798 0.26502 0.0
C1552 C 0.28444 0.85306 0.2382 0.0
C1553 C 0.3128 0.87212 0.23518 0.0
C1554 C 0.28462 0.81991 0.23815 0.0
C1555 C 0.25559 0.79797 0.24176 0.0
C1556 C 0.23375 0.80337 0.26439 0.0
C1557 C 0.20724 0.78209 0.26805 0.0
C1558 C 0.20273 0.75469 0.25007 0.0
C1559 C 0.22415 0.74891 0.22767 0.0
C1560 C 0.25024 0.77052 0.22324 0.0
C1561 C 0.42814 0.8152 0.23021 0.0
C1562 C 0.42862 0.79777 0.20236 0.0
C1563 C 0.39947 0.82157 0.24202 0.0
C1564 C 0.37097 0.81151 0.2255 0.0
C1565 C 0.37142 0.79097 0.19988 0.0
C1566 C 0.40007 0.78404 0.18847 0.0
C1567 C 0.34167 0.82622 0.23138 0.0
C1568 C 0.31346 0.80707 0.23505 0.0
C1569 C 0.34114 0.85923 0.23111 0.0
C1570 C 0.36936 0.88091 0.22473 0.0
C1571 C 0.38416 0.87927 0.19613 0.0
C1572 C 0.41125 0.8992 0.19062 0.0
C1573 C 0.42363 0.92102 0.21347 0.0
C1574 C 0.40867 0.92325 0.24169 0.0
C1575 C 0.38157 0.90335 0.24732 0.0
H1576 H 0.4447 0.93634 0.20924 0.0
H1577 H 0.18269 0.73791 0.2536 0.0
H1578 H 0.15991 0.9894 0.48353 0.0
H1579 H 0.13261 0.03589 0.49168 0.0
H1580 H 0.06734 0.9821 0.54936 0.0
H1581 H 0.09466 0.93576 0.54208 0.0
H1582 H 0.03687 0.02302 0.51644 0.0
H1583 H 0.12939 0.02763 0.58386 0.0
H1584 H 0.18569 0.02646 0.5988 0.0
H1585 H 0.2089 0.10538 0.53919 0.0
H1586 H 0.15266 0.10687 0.52377 0.0
H1587 H 0.00576 0.14193 0.62642 0.0
H1588 H 0.017 0.09639 0.59586 0.0
H1589 H 0.06746 0.15772 0.5312 0.0
H1590 H 0.05639 0.20335 0.56191 0.0
H1591 H 0.10362 0.11492 0.5619 0.0
H1592 H 1.0023 0.11221 0.5054 0.0
H1593 H 0.9449 0.11418 0.50681 0.0
H1594 H 0.93668 0.02887 0.55987 0.0
H1595 H 0.9939 0.02662 0.5591 0.0
C1596 C 0.13981 0.98742 0.49812 0.0
C1597 C 0.12994 0.95882 0.51266 0.0
C1598 C 0.12407 0.01404 0.50258 0.0
C1599 C 0.0982 0.01274 0.52178 0.0
C1600 C 0.0873 0.98386 0.53481 0.0
C1601 C 0.10301 0.95724 0.53048 0.0
C1602 C 0.08418 0.04186 0.53033 0.0
C1603 C 0.05146 0.04309 0.52634 0.0
C1604 C 0.10306 0.06812 0.54351 0.0
C1605 C 0.13691 0.06708 0.55233 0.0
C1606 C 0.14653 0.04455 0.57373 0.0
C1607 C 0.17841 0.04388 0.58235 0.0
C1608 C 0.20088 0.06575 0.56984 0.0
C1609 C 0.19148 0.0884 0.54879 0.0
C1610 C 0.15961 0.08919 0.54013 0.0
C1611 C 0.01788 0.14572 0.6048 0.0
C1612 C 0.03005 0.17614 0.59641 0.0
C1613 C 0.02445 0.11969 0.58744 0.0
C1614 C 0.04318 0.12366 0.56131 0.0
C1615 C 0.05293 0.15417 0.55126 0.0
C1616 C 0.04622 0.18025 0.56857 0.0
C1617 C 0.05645 0.09623 0.54767 0.0
C1618 C 0.0891 0.09518 0.55112 0.0
C1619 C 0.03731 0.06984 0.53519 0.0
C1620 C 1.00253 0.06941 0.53255 0.0
C1621 C 0.98824 0.09381 0.51729 0.0
C1622 C 0.95574 0.09505 0.51805 0.0
C1623 C 0.9373 0.07192 0.53385 0.0
C1624 C 0.95108 0.04693 0.54793 0.0
C1625 C 0.98354 0.04561 0.54725 0.0
H1626 H 0.91233 0.07334 0.53525 0.0
H1627 H 0.22555 0.0652 0.57653 0.0
H1628 H 0.78252 0.48822 0.21335 0.0
H1629 H 0.73251 0.45492 0.21438 0.0
H1630 H 0.76584 0.41009 0.2983 0.0
H1631 H 0.81579 0.44318 0.2975 0.0
H1632 H 0.73067 0.36802 0.25444 0.0
H1633 H 0.72666 0.47233 0.30048 0.0
H1634 H 0.7293 0.53008 0.29722 0.0
H1635 H 0.65235 0.52245 0.22833 0.0
H1636 H 0.65003 0.46469 0.23032 0.0
H1637 H 0.61204 0.31432 0.35204 0.0
H1638 H 0.65574 0.33442 0.32113 0.0
H1639 H 0.59372 0.3884 0.26531 0.0
H1640 H 0.55034 0.37008 0.29856 0.0
H1641 H 0.63954 0.42469 0.28015 0.0
H1642 H 0.6378 0.32496 0.2326 0.0
H1643 H 0.63272 0.26714 0.22966 0.0
H1644 H 0.71429 0.26497 0.29199 0.0
H1645 H 0.72033 0.32282 0.29482 0.0
C1646 C 0.77941 0.47094 0.23175 0.0
C1647 C 0.80305 0.46858 0.25554 0.0
C1648 C 0.75082 0.45192 0.23227 0.0
C1649 C 0.7454 0.4302 0.25654 0.0
C1650 C 0.76957 0.42665 0.27932 0.0
C1651 C 0.79804 0.44574 0.27893 0.0
C1652 C 0.7138 0.41323 0.26027 0.0
C1653 C 0.71063 0.38029 0.25997 0.0
C1654 C 0.68726 0.42933 0.26598 0.0
C1655 C 0.68848 0.46414 0.26528 0.0
C1656 C 0.7105 0.48296 0.28444 0.0
C1657 C 0.71194 0.51569 0.28283 0.0
C1658 C 0.69099 0.52991 0.26263 0.0
C1659 C 0.6686 0.51141 0.24395 0.0
C1660 C 0.6673 0.47868 0.24523 0.0
C1661 C 0.6075 0.32948 0.33235 0.0
C1662 C 0.5778 0.34027 0.32729 0.0
C1663 C 0.63256 0.34096 0.31444 0.0
C1664 C 0.62829 0.3627 0.29025 0.0
C1665 C 0.59785 0.37171 0.28374 0.0
C1666 C 0.57293 0.36096 0.30242 0.0
C1667 C 0.65628 0.37908 0.27528 0.0
C1668 C 0.65899 0.41205 0.27361 0.0
C1669 C 0.68201 0.363 0.26659 0.0
C1670 C 0.67944 0.32825 0.26398 0.0
C1671 C 0.65476 0.31216 0.24557 0.0
C1672 C 0.6518 0.27939 0.24381 0.0
C1673 C 0.67329 0.26242 0.2605 0.0
C1674 C 0.69793 0.2782 0.27878 0.0
C1675 C 0.70125 0.31098 0.28031 0.0
H1676 H 0.67076 0.23704 0.25942 0.0
H1677 H 0.69209 0.55524 0.26149 0.0
H1678 H 0.67182 0.55465 0.87348 0.0
H1679 H 0.71648 0.59493 0.87797 0.0
H1680 H 0.76411 0.54573 0.80932 0.0
H1681 H 0.71953 0.50514 0.80499 0.0
H1682 H 0.80432 0.56873 0.85784 0.0
H1683 H 0.72454 0.61091 0.78791 0.0
H1684 H 0.67133 0.62634 0.77523 0.0
H1685 H 0.67932 0.68758 0.85552 0.0
H1686 H 0.73274 0.67279 0.86851 0.0
H1687 H 0.9219 0.68653 0.82025 0.0
H1688 H 0.87418 0.65017 0.81172 0.0
H1689 H 0.82666 0.70274 0.87777 0.0
H1690 H 0.87423 0.73921 0.88605 0.0
H1691 H 0.78575 0.67861 0.83245 0.0
H1692 H 0.86623 0.64371 0.89973 0.0
H1693 H 0.91962 0.63056 0.9148 0.0
H1694 H 0.90908 0.55388 0.84919 0.0
H1695 H 0.85664 0.56811 0.83166 0.0
C1696 C 0.69184 0.55221 0.85952 0.0
C1697 C 0.69173 0.52678 0.83858 0.0
C1698 C 0.71737 0.57541 0.86198 0.0
C1699 C 0.74344 0.57382 0.84345 0.0
C1700 C 0.74416 0.54766 0.82368 0.0
C1701 C 0.71859 0.52442 0.82122 0.0
C1702 C 0.7696 0.5997 0.84406 0.0
C1703 C 0.8004 0.59267 0.8518 0.0
C1704 C 0.76431 0.63124 0.83751 0.0
C1705 C 0.73243 0.64046 0.82938 0.0
C1706 C 0.71488 0.62754 0.80294 0.0
C1707 C 0.68469 0.63616 0.79572 0.0
C1708 C 0.67177 0.65751 0.81486 0.0
C1709 C 0.68926 0.67083 0.84089 0.0
C1710 C 0.71954 0.66246 0.8481 0.0
C1711 C 0.90079 0.69121 0.83173 0.0
C1712 C 0.90173 0.71579 0.8537 0.0
C1713 C 0.87366 0.67011 0.82726 0.0
C1714 C 0.84706 0.6732 0.84475 0.0
C1715 C 0.8469 0.69967 0.86418 0.0
C1716 C 0.87402 0.72069 0.86871 0.0
C1717 C 0.82076 0.64752 0.84525 0.0
C1718 C 0.78988 0.65464 0.83816 0.0
C1719 C 0.82597 0.61617 0.85315 0.0
C1720 C 0.85754 0.60739 0.86391 0.0
C1721 C 0.87542 0.62439 0.88804 0.0
C1722 C 0.90554 0.6167 0.8971 0.0
C1723 C 0.91759 0.59123 0.88323 0.0
C1724 C 0.89971 0.57362 0.85993 0.0
C1725 C 0.8699 0.5817 0.85018 0.0
H1726 H 0.94082 0.58518 0.89051 0.0
H1727 H 0.64825 0.66383 0.80946 0.0
H1728 H 0.48328 0.90959 0.5789 0.0
H1729 H 0.49224 0.93916 0.53049 0.0
H1730 H 0.5297 0.85951 0.48975 0.0
H1731 H 0.52169 0.83019 0.53814 0.0
H1732 H 0.56791 0.91147 0.4824 0.0
H1733 H 0.45742 0.88095 0.46771 0.0
H1734 H 0.40094 0.87674 0.47799 0.0
H1735 H 0.40222 0.97702 0.47442 0.0
H1736 H 0.45895 0.98194 0.46528 0.0
H1737 H 0.56175 0.943 0.32026 0.0
H1738 H 0.53076 0.92669 0.36515 0.0
H1739 H 0.56381 0.01335 0.41272 0.0
H1740 H 0.59627 0.02901 0.36834 0.0
H1741 H 0.48814 0.96195 0.41708 0.0
H1742 H 0.60432 0.98917 0.44466 0.0
H1743 H 0.65842 0.99097 0.42652 0.0
H1744 H 0.64372 0.8926 0.40447 0.0
H1745 H 0.58899 0.89082 0.42036 0.0
C1746 C 0.49347 0.89832 0.5597 0.0
C1747 C 0.50185 0.86739 0.56269 0.0
C1748 C 0.49824 0.9152 0.53184 0.0
C1749 C 0.51145 0.90154 0.50631 0.0
C1750 C 0.51939 0.87058 0.50906 0.0
C1751 C 0.51459 0.85371 0.5368 0.0
C1752 C 0.51906 0.91989 0.47745 0.0
C1753 C 0.55029 0.92246 0.46832 0.0
C1754 C 0.49634 0.93471 0.45897 0.0
C1755 C 0.4626 0.93183 0.46624 0.0
C1756 C 0.44583 0.90215 0.46977 0.0
C1757 C 0.41373 0.89963 0.47535 0.0
C1758 C 0.39802 0.9266 0.47707 0.0
C1759 C 0.41443 0.95616 0.4734 0.0
C1760 C 0.44658 0.95883 0.46808 0.0
C1761 C 0.56088 0.95944 0.33944 0.0
C1762 C 0.58133 0.98734 0.34076 0.0
C1763 C 0.54337 0.94994 0.36526 0.0
C1764 C 0.5455 0.96852 0.3925 0.0
C1765 C 0.56208 0.99855 0.39198 0.0
C1766 C 0.58026 0.00775 0.3664 0.0
C1767 C 0.5368 0.95366 0.42279 0.0
C1768 C 0.50556 0.95141 0.43182 0.0
C1769 C 0.55935 0.93915 0.44147 0.0
C1770 C 0.59243 0.94009 0.43277 0.0
C1771 C 0.6125 0.96812 0.43529 0.0
C1772 C 0.6432 0.96919 0.42528 0.0
C1773 C 0.65422 0.94214 0.4135 0.0
C1774 C 0.6349 0.91379 0.41256 0.0
C1775 C 0.60398 0.91277 0.4219 0.0
H1776 H 0.67775 0.9432 0.40514 0.0
H1777 H 0.37309 0.92453 0.481 0.0
H1778 H 0.44711 0.31274 0.85801 0.0
H1779 H 0.4062 0.33071 0.82231 0.0
H1780 H 0.3984 0.24189 0.77334 0.0
H1781 H 0.43931 0.22389 0.80869 0.0
H1782 H 0.40594 0.28848 0.73396 0.0
H1783 H 0.34584 0.26751 0.82543 0.0
H1784 H 0.32803 0.27261 0.87871 0.0
H1785 H 0.30866 0.36735 0.85997 0.0
H1786 H 0.32765 0.36344 0.80668 0.0
H1787 H 0.28475 0.30496 0.62555 0.0
H1788 H 0.30591 0.28515 0.67516 0.0
H1789 H 0.31926 0.37931 0.71264 0.0
H1790 H 0.29777 0.39916 0.66314 0.0
H1791 H 0.30711 0.33225 0.75948 0.0
H1792 H 0.37508 0.35717 0.67455 0.0
H1793 H 0.38978 0.35416 0.61956 0.0
H1794 H 0.3948 0.25499 0.62846 0.0
H1795 H 0.37866 0.25709 0.68316 0.0
C1796 C 0.43636 0.29684 0.83991 0.0
C1797 C 0.44663 0.26687 0.83614 0.0
C1798 C 0.41283 0.30714 0.8196 0.0
C1799 C 0.39896 0.28763 0.79524 0.0
C1800 C 0.40861 0.25739 0.79203 0.0
C1801 C 0.43206 0.24709 0.81229 0.0
C1802 C 0.3765 0.29934 0.77131 0.0
C1803 C 0.38413 0.2976 0.73974 0.0
C1804 C 0.34855 0.31255 0.77883 0.0
C1805 C 0.3385 0.3152 0.81168 0.0
C1806 C 0.33824 0.28964 0.83248 0.0
C1807 C 0.32788 0.29232 0.86286 0.0
C1808 C 0.31716 0.32026 0.87274 0.0
C1809 C 0.31706 0.34572 0.85233 0.0
C1810 C 0.32775 0.3433 0.82203 0.0
C1811 C 0.29057 0.32121 0.64492 0.0
C1812 C 0.28982 0.35362 0.64042 0.0
C1813 C 0.30298 0.30992 0.67319 0.0
C1814 C 0.31483 0.33088 0.69731 0.0
C1815 C 0.31039 0.36275 0.69431 0.0
C1816 C 0.29804 0.37406 0.66604 0.0
C1817 C 0.3365 0.32059 0.72268 0.0
C1818 C 0.32895 0.32297 0.7542 0.0
C1819 C 0.36486 0.3084 0.71549 0.0
C1820 C 0.3753 0.30723 0.68284 0.0
C1821 C 0.37903 0.33467 0.66472 0.0
C1822 C 0.38765 0.33314 0.6336 0.0
C1823 C 0.39336 0.30447 0.62055 0.0
C1824 C 0.39036 0.2772 0.63859 0.0
C1825 C 0.38135 0.27851 0.66962 0.0
H1826 H 0.40011 0.3034 0.59646 0.0
H1827 H 0.30886 0.32216 0.89618 0.0
H1828 H 0.98089 0.26063 0.03917 0.0
H1829 H 0.96705 0.22636 0.99415 0.0
H1830 H 0.90694 0.16485 0.05081 0.0
H1831 H 0.92172 0.19863 0.09655 0.0
H1832 H 0.94 0.13063 0.01902 0.0
H1833 H 0.87642 0.21102 0.99004 0.0
H1834 H 0.86143 0.26434 0.97996 0.0
H1835 H 0.92971 0.27758 0.90932 0.0
H1836 H 0.94534 0.22443 0.91919 0.0
H1837 H 0.85958 0.05388 0.88276 0.0
H1838 H 0.88028 0.07769 0.93258 0.0
H1839 H 0.95189 0.1338 0.88386 0.0
H1840 H 0.93122 0.10992 0.83403 0.0
H1841 H 0.91286 0.16914 0.91258 0.0
H1842 H 0.97001 0.08133 0.94198 0.0
H1843 H 0.97512 0.02521 0.95087 0.0
H1844 H 0.90626 0.02273 0.0211 0.0
H1845 H 0.90032 0.07875 0.01225 0.0
C1846 C 0.96418 0.2402 0.04203 0.0
C1847 C 0.95242 0.23246 0.0716 0.0
C1848 C 0.95623 0.22054 0.01612 0.0
C1849 C 0.93577 0.19296 0.01887 0.0
C1850 C 0.92289 0.18586 0.04804 0.0
C1851 C 0.93114 0.20539 0.07414 0.0
C1852 C 0.92932 0.17092 0.99167 0.0
C1853 C 0.9335 0.13897 0.99584 0.0
C1854 C 0.92112 0.18163 0.96127 0.0
C1855 C 0.9123 0.21387 0.95563 0.0
C1856 C 0.88846 0.22542 0.97258 0.0
C1857 C 0.87979 0.25558 0.96684 0.0
C1858 C 0.89467 0.27437 0.94408 0.0
C1859 C 0.91824 0.26302 0.92697 0.0
C1860 C 0.92699 0.23286 0.93261 0.0
C1861 C 0.88078 0.07004 0.88296 0.0
C1862 C 0.89379 0.08008 0.85455 0.0
C1863 C 0.89253 0.0838 0.91145 0.0
C1864 C 0.91739 0.1079 0.91194 0.0
C1865 C 0.93258 0.11537 0.88402 0.0
C1866 C 0.921 0.10142 0.85556 0.0
C1867 C 0.92361 0.12892 0.93982 0.0
C1868 C 0.9193 0.16076 0.93576 0.0
C1869 C 0.93038 0.11775 0.97037 0.0
C1870 C 0.93459 0.08424 0.9763 0.0
C1871 C 0.95586 0.06881 0.95923 0.0
C1872 C 0.95895 0.03701 0.96432 0.0
C1873 C 0.94121 0.02044 0.98672 0.0
C1874 C 0.92018 0.03563 0.00393 0.0
C1875 C 0.91695 0.06742 0.99889 0.0
H1876 H 0.94373 0.99584 0.99072 0.0
H1877 H 0.8879 0.2977 0.93965 0.0
H1878 H 0.03391 0.70689 0.26775 0.0
H1879 H 0.06881 0.69836 0.22513 0.0
H1880 H 0.13356 0.77596 0.25937 0.0
H1881 H 0.09913 0.78466 0.30144 0.0
H1882 H 0.12762 0.77816 0.19783 0.0
H1883 H 0.14424 0.70262 0.27589 0.0
H1884 H 0.13392 0.65858 0.31201 0.0
H1885 H 0.11003 0.59615 0.23385 0.0
H1886 H 0.11844 0.64003 0.19719 0.0
H1887 H 0.24095 0.66814 0.11961 0.0
H1888 H 0.22351 0.69791 0.16326 0.0
H1889 H 0.14551 0.72435 0.10476 0.0
H1890 H 0.16268 0.69414 0.06119 0.0
H1891 H 0.16639 0.67414 0.18338 0.0
H1892 H 0.12094 0.79223 0.13938 0.0
H1893 H 0.1402 0.83893 0.10941 0.0
H1894 H 0.2356 0.81879 0.12856 0.0
H1895 H 0.21697 0.77215 0.15877 0.0
C1896 C 0.05548 0.72221 0.26601 0.0
C1897 C 0.06377 0.74624 0.28824 0.0
C1898 C 0.07546 0.71725 0.24177 0.0
C1899 C 0.10396 0.73637 0.23925 0.0
C1900 C 0.11181 0.76085 0.26089 0.0
C1901 C 0.09209 0.7656 0.28517 0.0
C1902 C 0.12609 0.73059 0.21459 0.0
C1903 C 0.13586 0.75531 0.19447 0.0
C1904 C 0.13817 0.70123 0.21129 0.0
C1905 C 0.13155 0.67495 0.23361 0.0
C1906 C 0.13611 0.67971 0.26627 0.0
C1907 C 0.13043 0.65471 0.28694 0.0
C1908 C 0.12075 0.62465 0.27529 0.0
C1909 C 0.11684 0.61951 0.24294 0.0
C1910 C 0.12195 0.6445 0.22219 0.0
C1911 C 0.22117 0.68181 0.11552 0.0
C1912 C 0.20309 0.67881 0.08709 0.0
C1913 C 0.21103 0.69858 0.1406 0.0
C1914 C 0.183 0.71303 0.13738 0.0
C1915 C 0.16729 0.71352 0.10774 0.0
C1916 C 0.17719 0.6964 0.08277 0.0
C1917 C 0.16649 0.72116 0.16564 0.0
C1918 C 0.15786 0.69688 0.18658 0.0
C1919 C 0.15623 0.75106 0.17025 0.0
C1920 C 0.16749 0.77845 0.15108 0.0
C1921 C 0.14603 0.79773 0.13715 0.0
C1922 C 0.15684 0.82421 0.12012 0.0
C1923 C 0.1891 0.83176 0.11699 0.0
C1924 C 0.21061 0.81282 0.13084 0.0
C1925 C 0.19992 0.78629 0.14782 0.0
H1926 H 0.19742 0.85233 0.10389 0.0
H1927 H 0.11669 0.60529 0.29136 0.0
H1928 H 0.46692 0.16618 0.95999 0.0
H1929 H 0.47521 0.13676 0.00862 0.0
H1930 H 0.55672 0.20106 0.03413 0.0
H1931 H 0.54889 0.23014 0.98599 0.0
H1932 H 0.57041 0.14452 0.04433 0.0
H1933 H 0.4901 0.20547 0.06846 0.0
H1934 H 0.43969 0.22847 0.06231 0.0
H1935 H 0.38945 0.13786 0.07486 0.0
H1936 H 0.43966 0.11386 0.07989 0.0
H1937 H 0.56376 0.12549 0.21643 0.0
H1938 H 0.5341 0.14201 0.16986 0.0
H1939 H 0.55579 0.0599 0.12001 0.0
H1940 H 0.58535 0.04331 0.16639 0.0
H1941 H 0.48824 0.12326 0.1221 0.0
H1942 H 0.59791 0.09067 0.0567 0.0
H1943 H 0.65402 0.08456 0.06895 0.0
H1944 H 0.65302 0.14236 0.15103 0.0
H1945 H 0.59742 0.1499 0.13865 0.0
C1946 C 0.48657 0.17401 0.976 0.0
C1947 C 0.50725 0.20048 0.969 0.0
C1948 C 0.49126 0.15722 0.00379 0.0
C1949 C 0.51665 0.16666 0.02502 0.0
C1950 C 0.53715 0.19312 0.01803 0.0
C1951 C 0.5325 0.20983 0.99046 0.0
C1952 C 0.52223 0.14923 0.05459 0.0
C1953 C 0.55224 0.13947 0.06104 0.0
C1954 C 0.49902 0.14388 0.07716 0.0
C1955 C 0.46866 0.15777 0.07387 0.0
C1956 C 0.46831 0.19029 0.06935 0.0
C1957 C 0.4398 0.20349 0.06607 0.0
C1958 C 0.41146 0.18451 0.06779 0.0
C1959 C 0.41151 0.15233 0.07307 0.0
C1960 C 0.43999 0.1389 0.07607 0.0
C1961 C 0.56077 0.11018 0.19605 0.0
C1962 C 0.57713 0.08334 0.19487 0.0
C1963 C 0.54383 0.11962 0.16945 0.0
C1964 C 0.54337 0.1025 0.14135 0.0
C1965 C 0.5561 0.07353 0.14145 0.0
C1966 C 0.57282 0.06396 0.16809 0.0
C1967 C 0.536 0.11784 0.11112 0.0
C1968 C 0.50593 0.12742 0.10477 0.0
C1969 C 0.55975 0.12496 0.08945 0.0
C1970 C 0.59324 0.12024 0.09709 0.0
C1971 C 0.60965 0.10204 0.07737 0.0
C1972 C 0.6414 0.09838 0.0843 0.0
C1973 C 0.65694 0.1127 0.11095 0.0
C1974 C 0.64089 0.13102 0.13056 0.0
C1975 C 0.60927 0.13502 0.12357 0.0
H1976 H 0.68148 0.10979 0.11628 0.0
H1977 H 0.3895 0.19483 0.06514 0.0
H1978 H 0.10248 0.37316 0.16695 0.0
H1979 H 0.13548 0.37683 0.21543 0.0
H1980 H 0.06146 0.32445 0.26422 0.0
H1981 H 0.02817 0.32067 0.21583 0.0
H1982 H 0.09193 0.37192 0.30048 0.0
H1983 H 0.1191 0.28856 0.23544 0.0
H1984 H 0.13627 0.26337 0.18815 0.0
H1985 H 0.22437 0.32125 0.19525 0.0
H1986 H 0.20737 0.34748 0.24211 0.0
H1987 H 0.18054 0.32578 0.43167 0.0
H1988 H 0.15147 0.31621 0.38107 0.0
H1989 H 0.22131 0.378 0.33596 0.0
H1990 H 0.25005 0.3881 0.3867 0.0
H1991 H 0.19349 0.32529 0.29772 0.0
H1992 H 0.16614 0.40606 0.36609 0.0
H1993 H 0.1502 0.42519 0.41659 0.0
H1994 H 0.0601 0.37176 0.40324 0.0
H1995 H 0.07674 0.34953 0.35415 0.0
C1996 C 0.09286 0.36299 0.1881 0.0
C1997 C 0.06272 0.34629 0.18732 0.0
C1998 C 0.11193 0.3649 0.21577 0.0
C1999 C 0.10123 0.35029 0.24327 0.0
C2000 C 0.07032 0.33565 0.2432 0.0
C2001 C 0.05128 0.33357 0.21548 0.0
C2002 C 0.12271 0.34893 0.27163 0.0
C2003 C 0.11395 0.36138 0.29999 0.0
C2004 C 0.15176 0.33563 0.27078 0.0
C2005 C 0.16173 0.32037 0.24209 0.0
C2006 C 0.14194 0.2963 0.22668 0.0
C2007 C 0.15168 0.28177 0.19996 0.0
C2008 C 0.18135 0.29079 0.18863 0.0
C2009 C 0.20133 0.31439 0.20398 0.0
C2010 C 0.19163 0.32914 0.23059 0.0
C2011 C 0.19049 0.33603 0.41068 0.0
C2012 C 0.21762 0.35749 0.41295 0.0
C2013 C 0.1737 0.33082 0.38186 0.0
C2014 C 0.18397 0.34684 0.35491 0.0
C2015 C 0.21297 0.36546 0.35649 0.0
C2016 C 0.22949 0.37107 0.3854 0.0
C2017 C 0.16254 0.34796 0.32654 0.0
C2018 C 0.17141 0.33571 0.2982 0.0
C2019 C 0.13349 0.36129 0.32745 0.0
C2020 C 0.12307 0.37547 0.35661 0.0
C2021 C 0.1432 0.39773 0.37416 0.0
C2022 C 0.13403 0.40914 0.40262 0.0
C2023 C 0.10405 0.39993 0.41304 0.0
C2024 C 0.08337 0.37883 0.39521 0.0
C2025 C 0.09284 0.36646 0.36724 0.0
H2026 H 0.09686 0.4092 0.43488 0.0
H2027 H 0.1889 0.27941 0.16803 0.0
H2028 H 0.01347 0.81788 0.51011 0.0
H2029 H 0.01475 0.84713 0.55946 0.0
H2030 H 0.94689 0.9054 0.51933 0.0
H2031 H 0.9451 0.87585 0.46974 0.0
H2032 H 0.02346 0.92479 0.56578 0.0
H2033 H 0.9073 0.87894 0.55364 0.0
H2034 H 0.87418 0.82991 0.5395 0.0
H2035 H 0.92312 0.78054 0.61096 0.0
H2036 H 0.95789 0.82883 0.62408 0.0
H2037 H 0.95286 0.0182 0.67201 0.0
H2038 H 0.97929 0.98978 0.63364 0.0
H2039 H 0.97139 0.90742 0.69211 0.0
H2040 H 0.94435 0.93593 0.73046 0.0
H2041 H 0.94023 0.89436 0.64024 0.0
H2042 H 0.04914 0.9312 0.65908 0.0
H2043 H 0.09427 0.97016 0.67316 0.0
H2044 H 0.0666 0.02919 0.59754 0.0
H2045 H 0.02179 0.99005 0.58275 0.0
C2046 C 0.99882 0.83695 0.51169 0.0
C2047 C 0.9792 0.84457 0.48591 0.0
C2048 C 0.99971 0.85368 0.53989 0.0
C2049 C 0.98111 0.87847 0.54292 0.0
C2050 C 0.96135 0.88618 0.51741 0.0
C2051 C 0.9601 0.86912 0.48923 0.0
C2052 C 0.9809 0.89488 0.57348 0.0
C2053 C 0.00486 0.91877 0.58175 0.0
C2054 C 0.95824 0.88526 0.59541 0.0
C2055 C 0.93544 0.8573 0.58947 0.0
C2056 C 0.91119 0.85754 0.56608 0.0
C2057 C 0.89225 0.82987 0.55816 0.0
C2058 C 0.89659 0.80215 0.57429 0.0
C2059 C 0.91984 0.80203 0.59844 0.0
C2060 C 0.93932 0.82947 0.60596 0.0
C2061 C 0.95861 0.99473 0.67772 0.0
C2062 C 0.94607 0.97909 0.70393 0.0
C2063 C 0.97377 0.97831 0.65559 0.0
C2064 C 0.97688 0.94614 0.65961 0.0
C2065 C 0.96884 0.93204 0.68823 0.0
C2066 C 0.95367 0.94847 0.71033 0.0
C2067 C 0.98141 0.92636 0.6318 0.0
C2068 C 0.95859 0.90114 0.62416 0.0
C2069 C 0.00553 0.93434 0.61087 0.0
C2070 C 0.0323 0.95783 0.6197 0.0
C2071 C 0.05276 0.9525 0.64547 0.0
C2072 C 0.07833 0.9745 0.65351 0.0
C2073 C 0.08342 1.00203 0.63611 0.0
C2074 C 0.06277 0.00776 0.61086 0.0
C2075 C 0.0374 0.98564 0.60255 0.0
H2076 H 0.1034 0.01884 0.64213 0.0
H2077 H 0.882 0.78075 0.56802 0.0
H2078 H 0.41984 0.76733 0.74478 0.0
H2079 H 0.38849 0.75318 0.78998 0.0
H2080 H 0.32172 0.69543 0.73042 0.0
H2081 H 0.35276 0.70972 0.68508 0.0
H2082 H 0.29028 0.72331 0.77 0.0
H2083 H 0.37386 0.66137 0.77953 0.0
H2084 H 0.42673 0.64305 0.78325 0.0
H2085 H 0.45076 0.70105 0.86471 0.0
H2086 H 0.39802 0.71988 0.86137 0.0
H2087 H 0.24114 0.61175 0.8895 0.0
H2088 H 0.25653 0.64341 0.84406 0.0
H2089 H 0.30465 0.71426 0.90581 0.0
H2090 H 0.28938 0.68247 0.95128 0.0
H2091 H 0.34353 0.68568 0.8665 0.0
H2092 H 0.24367 0.72605 0.85901 0.0
H2093 H 0.18582 0.72039 0.85518 0.0
H2094 H 0.18664 0.68018 0.76319 0.0
H2095 H 0.24462 0.68286 0.76759 0.0
C2096 C 0.39859 0.7515 0.74127 0.0
C2097 C 0.38913 0.73947 0.71122 0.0
C2098 C 0.38059 0.74345 0.76718 0.0
C2099 C 0.3528 0.72293 0.7638 0.0
C2100 C 0.34291 0.71144 0.73371 0.0
C2101 C 0.36081 0.71962 0.70774 0.0
C2102 C 0.33459 0.71293 0.79174 0.0
C2103 C 0.30182 0.71466 0.79098 0.0
C2104 C 0.34951 0.70153 0.81917 0.0
C2105 C 0.38219 0.69257 0.81979 0.0
C2106 C 0.39064 0.67075 0.79784 0.0
C2107 C 0.4205 0.66008 0.80002 0.0
C2108 C 0.44216 0.67101 0.82409 0.0
C2109 C 0.43401 0.6927 0.84599 0.0
C2110 C 0.40413 0.70339 0.84397 0.0
C2111 C 0.25319 0.63502 0.8934 0.0
C2112 C 0.26398 0.64472 0.9239 0.0
C2113 C 0.26238 0.65294 0.86739 0.0
C2114 C 0.28212 0.68102 0.87153 0.0
C2115 C 0.28952 0.69259 0.9021 0.0
C2116 C 0.28026 0.67469 0.92812 0.0
C2117 C 0.29918 0.69522 0.8446 0.0
C2118 C 0.33194 0.69455 0.84563 0.0
C2119 C 0.28369 0.70506 0.81675 0.0
C2120 C 0.24875 0.70447 0.81371 0.0
C2121 C 0.23165 0.71537 0.83817 0.0
C2122 C 0.19876 0.71238 0.83605 0.0
C2123 C 0.18258 0.69978 0.809 0.0
C2124 C 0.19927 0.68977 0.78418 0.0
C2125 C 0.23215 0.69177 0.7866 0.0
H2126 H 0.15713 0.69794 0.80722 0.0
H2127 H 0.46519 0.66255 0.82587 0.0
H2128 H 0.55437 0.61005 0.79704 0.0
H2129 H 0.51003 0.61956 0.82943 0.0
H2130 H 0.52225 0.5343 0.88044 0.0
H2131 H 0.56607 0.52495 0.84838 0.0
H2132 H 0.45535 0.58701 0.83316 0.0
H2133 H 0.50067 0.53991 0.95605 0.0
H2134 H 0.54435 0.55066 0.99553 0.0
H2135 H 0.57721 0.634 0.94619 0.0
H2136 H 0.53328 0.62423 0.90679 0.0
H2137 H 0.32133 0.54152 0.91791 0.0
H2138 H 0.37178 0.53947 0.89329 0.0
H2139 H 0.41558 0.60781 0.96045 0.0
H2140 H 0.36581 0.60839 0.98591 0.0
H2141 H 0.45569 0.57312 0.94855 0.0
H2142 H 0.38356 0.62428 0.88542 0.0
H2143 H 0.33378 0.62998 0.85548 0.0
H2144 H 0.35579 0.56235 0.78792 0.0
H2145 H 0.40449 0.55415 0.81874 0.0
C2146 C 0.54771 0.59367 0.81546 0.0
C2147 C 0.56332 0.56656 0.81989 0.0
C2148 C 0.52239 0.59902 0.83388 0.0
C2149 C 0.51278 0.5777 0.85751 0.0
C2150 C 0.52928 0.5513 0.86266 0.0
C2151 C 0.55414 0.54576 0.84404 0.0
C2152 C 0.48408 0.58113 0.87521 0.0
C2153 C 0.45541 0.58405 0.85842 0.0
C2154 C 0.48418 0.57843 0.90828 0.0
C2155 C 0.51365 0.58125 0.92838 0.0
C2156 C 0.51745 0.56031 0.95336 0.0
C2157 C 0.54213 0.56636 0.97588 0.0
C2158 C 0.56326 0.59321 0.97361 0.0
C2159 C 0.56063 0.61336 0.94807 0.0
C2160 C 0.5359 0.60749 0.92553 0.0
C2161 C 0.34216 0.55493 0.92817 0.0
C2162 C 0.33986 0.57476 0.95405 0.0
C2163 C 0.37082 0.55429 0.91373 0.0
C2164 C 0.39738 0.57425 0.92431 0.0
C2165 C 0.39553 0.59227 0.95162 0.0
C2166 C 0.36711 0.59235 0.96646 0.0
C2167 C 0.42674 0.57744 0.90651 0.0
C2168 C 0.45553 0.57585 0.92327 0.0
C2169 C 0.42679 0.58297 0.87365 0.0
C2170 C 0.39763 0.58826 0.85473 0.0
C2171 C 0.37766 0.61026 0.86442 0.0
C2172 C 0.3496 0.61397 0.84728 0.0
C2173 C 0.34181 0.59686 0.81966 0.0
C2174 C 0.36188 0.57564 0.80932 0.0
C2175 C 0.38958 0.57121 0.8268 0.0
H2176 H 0.32018 0.6 0.80632 0.0
H2177 H 0.5816 0.5984 0.99173 0.0
H2178 H 0.81214 0.29931 0.05134 0.0
H2179 H 0.79866 0.2546 0.08565 0.0
H2180 H 0.74416 0.31164 0.14071 0.0
H2181 H 0.75731 0.3564 0.10644 0.0
H2182 H 0.78133 0.27226 0.17742 0.0
H2183 H 0.70743 0.26517 0.08697 0.0
H2184 H 0.69322 0.26248 0.03023 0.0
H2185 H 0.73984 0.1788 0.02219 0.0
H2186 H 0.75472 0.18128 0.07886 0.0
H2187 H 0.66441 0.16415 0.24462 0.0
H2188 H 0.69719 0.20635 0.21953 0.0
H2189 H 0.74152 0.13765 0.16808 0.0
H2190 H 0.70895 0.09541 0.19332 0.0
H2191 H 0.71656 0.18023 0.12968 0.0
H2192 H 0.77979 0.18049 0.22232 0.0
H2193 H 0.79637 0.18282 0.2782 0.0
H2194 H 0.77476 0.27835 0.28319 0.0
H2195 H 0.75614 0.27611 0.22763 0.0
C2196 C 0.79756 0.30248 0.07094 0.0
C2197 C 0.78567 0.33146 0.076 0.0
C2198 C 0.78983 0.27685 0.0905 0.0
C2199 C 0.77024 0.2797 0.11566 0.0
C2200 C 0.75935 0.3089 0.12149 0.0
C2201 C 0.76678 0.33444 0.10176 0.0
C2202 C 0.75949 0.25189 0.13475 0.0
C2203 C 0.76684 0.25222 0.16722 0.0
C2204 C 0.7417 0.22526 0.12105 0.0
C2205 C 0.73253 0.22364 0.08706 0.0
C2206 C 0.71488 0.24636 0.07305 0.0
C2207 C 0.70666 0.24484 0.04092 0.0
C2208 C 0.71572 0.22055 0.02259 0.0
C2209 C 0.73291 0.19765 0.0364 0.0
C2210 C 0.74123 0.19909 0.06852 0.0
C2211 C 0.68202 0.15809 0.22887 0.0
C2212 C 0.68446 0.12649 0.22126 0.0
C2213 C 0.70063 0.1822 0.21444 0.0
C2214 C 0.7218 0.17521 0.19188 0.0
C2215 C 0.7254 0.14362 0.18545 0.0
C2216 C 0.70708 0.11948 0.20019 0.0
C2217 C 0.73761 0.20076 0.17281 0.0
C2218 C 0.7312 0.20005 0.14018 0.0
C2219 C 0.75637 0.22691 0.18652 0.0
C2220 C 0.76624 0.22801 0.22054 0.0
C2221 C 0.77789 0.20186 0.23533 0.0
C2222 C 0.78774 0.20317 0.26705 0.0
C2223 C 0.78672 0.23074 0.28427 0.0
C2224 C 0.77555 0.25698 0.26982 0.0
C2225 C 0.76515 0.25562 0.23821 0.0
H2226 H 0.7946 0.23178 0.30878 0.0
H2227 H 0.70935 0.21942 0.99771 0.0
H2228 H 0.99962 0.54028 0.34412 0.0
H2229 H 0.0511 0.53495 0.3693 0.0
H2230 H 0.007 0.48829 0.44773 0.0
H2231 H 0.95539 0.49299 0.42265 0.0
H2232 H 0.05653 0.52675 0.46855 0.0
H2233 H 0.03603 0.44692 0.39189 0.0
H2234 H 0.0238 0.41924 0.34148 0.0
H2235 H 0.1056 0.46821 0.30301 0.0
H2236 H 0.11776 0.49717 0.35285 0.0
H2237 H 0.16721 0.41929 0.51341 0.0
H2238 H 0.12531 0.45268 0.50079 0.0
H2239 H 0.18458 0.50501 0.4361 0.0
H2240 H 0.22667 0.47179 0.44894 0.0
H2241 H 0.13209 0.47411 0.40759 0.0
H2242 H 0.15491 0.54479 0.49191 0.0
H2243 H 0.17008 0.55861 0.54699 0.0
H2244 H 0.08313 0.51111 0.57624 0.0
H2245 H 0.06757 0.49663 0.52128 0.0
C2246 C 1.00064 0.52872 0.36663 0.0
C2247 C 0.97297 0.51666 0.38093 0.0
C2248 C 0.03025 0.52585 0.38111 0.0
C2249 C 0.03298 0.51088 0.41026 0.0
C2250 C 0.00552 0.49997 0.42525 0.0
C2251 C 0.97588 0.5027 0.41074 0.0
C2252 C 0.06441 0.50512 0.42425 0.0
C2253 C 0.07285 0.51476 0.45536 0.0
C2254 C 0.08607 0.48999 0.40696 0.0
C2255 C 0.0774 0.4748 0.37597 0.0
C2256 C 0.05096 0.45248 0.37244 0.0
C2257 C 0.04411 0.43646 0.34398 0.0
C2258 C 0.06374 0.44224 0.31894 0.0
C2259 C 0.0902 0.46412 0.32229 0.0
C2260 C 0.09703 0.48042 0.35061 0.0
C2261 C 0.17201 0.4391 0.49797 0.0
C2262 C 0.20013 0.44284 0.48203 0.0
C2263 C 0.14791 0.45808 0.49055 0.0
C2264 C 0.15169 0.48114 0.46722 0.0
C2265 C 0.18113 0.48732 0.4541 0.0
C2266 C 0.20525 0.46848 0.46164 0.0
C2267 C 0.12351 0.49384 0.4523 0.0
C2268 C 0.11573 0.48589 0.42082 0.0
C2269 C 0.10211 0.50907 0.46965 0.0
C2270 C 0.11022 0.51936 0.50249 0.0
C2271 C 0.13903 0.53723 0.51009 0.0
C2272 C 0.14772 0.54516 0.54127 0.0
C2273 C 0.12771 0.53553 0.5651 0.0
C2274 C 0.0987 0.51839 0.55774 0.0
C2275 C 0.08986 0.51041 0.52654 0.0
H2276 H 0.13475 0.54146 0.58923 0.0
H2277 H 0.05858 0.42958 0.29702 0.0
H2278 H 0.83176 0.73033 0.6096 0.0
H2279 H 0.8262 0.78253 0.62927 0.0
H2280 H 0.79754 0.81165 0.53646 0.0
H2281 H 0.80252 0.75863 0.51624 0.0
H2282 H 0.83957 0.8571 0.57238 0.0
H2283 H 0.74008 0.79925 0.58229 0.0
H2284 H 0.70385 0.75268 0.59425 0.0
H2285 H 0.7373 0.75805 0.69088 0.0
H2286 H 0.77427 0.80409 0.6792 0.0
H2287 H 0.82625 0.99171 0.6594 0.0
H2288 H 0.80282 0.94983 0.6239 0.0
H2289 H 0.81301 0.8822 0.69771 0.0
H2290 H 0.83551 0.92403 0.73317 0.0
H2291 H 0.76666 0.86078 0.65897 0.0
H2292 H 0.87208 0.90989 0.64991 0.0
H2293 H 0.91273 0.95279 0.63992 0.0
H2294 H 0.87683 0.95896 0.54466 0.0
H2295 H 0.8343 0.91729 0.55472 0.0
C2296 C 0.8247 0.74776 0.59304 0.0
C2297 C 0.81695 0.73992 0.56136 0.0
C2298 C 0.82126 0.77762 0.60449 0.0
C2299 C 0.81036 0.80059 0.58456 0.0
C2300 C 0.80538 0.79399 0.55234 0.0
C2301 C 0.80851 0.76377 0.5408 0.0
C2302 C 0.80399 0.83106 0.59826 0.0
C2303 C 0.8233 0.85811 0.59091 0.0
C2304 C 0.7825 0.83238 0.62234 0.0
C2305 C 0.76014 0.80488 0.62973 0.0
C2306 C 0.73995 0.79018 0.60595 0.0
C2307 C 0.71926 0.76394 0.61271 0.0
C2308 C 0.71833 0.75234 0.64331 0.0
C2309 C 0.73807 0.76701 0.66718 0.0
C2310 C 0.7589 0.79319 0.66049 0.0
C2311 C 0.82155 0.96821 0.66856 0.0
C2312 C 0.83279 0.96101 0.69895 0.0
C2313 C 0.80865 0.94417 0.6481 0.0
C2314 C 0.80723 0.91268 0.65776 0.0
C2315 C 0.81414 0.9062 0.68951 0.0
C2316 C 0.82677 0.93019 0.70995 0.0
C2317 C 0.80398 0.88637 0.63458 0.0
C2318 C 0.78265 0.86005 0.64005 0.0
C2319 C 0.82438 0.88545 0.60927 0.0
C2320 C 0.84947 0.911 0.60334 0.0
C2321 C 0.87239 0.92078 0.627 0.0
C2322 C 0.89585 0.94489 0.6213 0.0
C2323 C 0.89757 0.95857 0.59164 0.0
C2324 C 0.87544 0.94842 0.56768 0.0
C2325 C 0.85141 0.92477 0.57347 0.0
H2326 H 0.91607 0.97698 0.58725 0.0
H2327 H 0.70227 0.73205 0.64855 0.0
H2328 H 0.54455 0.4576 0.74195 0.0
H2329 H 0.49932 0.44665 0.70518 0.0
H2330 H 0.55331 0.39039 0.64858 0.0
H2331 H 0.59893 0.40176 0.68504 0.0
H2332 H 0.52561 0.42634 0.6113 0.0
H2333 H 0.48938 0.35742 0.68935 0.0
H2334 H 0.47391 0.33415 0.73986 0.0
H2335 H 0.40538 0.40001 0.74782 0.0
H2336 H 0.42079 0.42412 0.69767 0.0
H2337 H 0.368 0.36101 0.54344 0.0
H2338 H 0.42328 0.37121 0.56157 0.0
H2339 H 0.4043 0.45985 0.60037 0.0
H2340 H 0.34925 0.44993 0.58187 0.0
H2341 H 0.41573 0.40246 0.64264 0.0
H2342 H 0.45951 0.47009 0.55953 0.0
H2343 H 0.47178 0.48116 0.50442 0.0
H2344 H 0.52232 0.39958 0.50188 0.0
H2345 H 0.51031 0.38803 0.55702 0.0
C2346 C 0.54669 0.44235 0.72206 0.0
C2347 C 0.57552 0.43067 0.7165 0.0
C2348 C 0.52068 0.43603 0.70098 0.0
C2349 C 0.52271 0.41761 0.67395 0.0
C2350 C 0.55108 0.40481 0.66907 0.0
C2351 C 0.57714 0.41118 0.69012 0.0
C2352 C 0.49594 0.41373 0.64995 0.0
C2353 C 0.50165 0.42055 0.61821 0.0
C2354 C 0.46452 0.40581 0.6585 0.0
C2355 C 0.45666 0.39295 0.68988 0.0
C2356 C 0.47144 0.36737 0.70213 0.0
C2357 C 0.46257 0.35393 0.73065 0.0
C2358 C 0.43883 0.36574 0.74712 0.0
C2359 C 0.4239 0.39101 0.73512 0.0
C2360 C 0.43273 0.4046 0.70666 0.0
C2361 C 0.37616 0.38372 0.55364 0.0
C2362 C 0.3544 0.40467 0.56136 0.0
C2363 C 0.40774 0.3894 0.56431 0.0
C2364 C 0.4177 0.41609 0.58265 0.0
C2365 C 0.39705 0.43915 0.58619 0.0
C2366 C 0.36564 0.43363 0.5753 0.0
C2367 C 0.44549 0.41587 0.60475 0.0
C2368 C 0.43982 0.408 0.63601 0.0
C2369 C 0.47673 0.42125 0.59542 0.0
C2370 C 0.48382 0.42808 0.5623 0.0
C2371 C 0.47299 0.45436 0.54713 0.0
C2372 C 0.47997 0.46076 0.51592 0.0
C2373 C 0.49769 0.441 0.49963 0.0
C2374 C 0.50848 0.41478 0.5145 0.0
C2375 C 0.50169 0.40837 0.54576 0.0
H2376 H 0.50315 0.44606 0.47553 0.0
H2377 H 0.43193 0.35523 0.76912 0.0
H2378 H 0.79075 0.36116 0.88344 0.0
H2379 H 0.78735 0.31298 0.85223 0.0
H2380 H 0.73173 0.26438 0.92213 0.0
H2381 H 0.735 0.31254 0.95353 0.0
H2382 H 0.78101 0.2342 0.90804 0.0
H2383 H 0.69891 0.27977 0.84674 0.0
H2384 H 0.67598 0.32109 0.81554 0.0
H2385 H 0.74936 0.3201 0.75037 0.0
H2386 H 0.77281 0.27899 0.78121 0.0
H2387 H 0.77695 0.09267 0.83035 0.0
H2388 H 0.75202 0.13803 0.84826 0.0
H2389 H 0.80553 0.19723 0.78405 0.0
H2390 H 0.83017 0.15193 0.76589 0.0
H2391 H 0.75049 0.22062 0.79475 0.0
H2392 H 0.83592 0.18278 0.85412 0.0
H2393 H 0.86537 0.14527 0.88401 0.0
H2394 H 0.79517 0.13758 0.95303 0.0
H2395 H 0.76449 0.1741 0.92274 0.0
C2396 C 0.77716 0.34046 0.89184 0.0
C2397 C 0.76317 0.34077 0.92102 0.0
C2398 C 0.77513 0.31296 0.87388 0.0
C2399 C 0.75883 0.28523 0.88451 0.0
C2400 C 0.74426 0.28558 0.91333 0.0
C2401 C 0.74636 0.31307 0.93138 0.0
C2402 C 0.76015 0.25523 0.86736 0.0
C2403 C 0.77346 0.2309 0.8835 0.0
C2404 C 0.75178 0.25154 0.8349 0.0
C2405 C 0.73771 0.27641 0.81641 0.0
C2406 C 0.71026 0.28852 0.82586 0.0
C2407 C 0.69713 0.31187 0.80818 0.0
C2408 C 0.71122 0.32327 0.781 0.0
C2409 C 0.73842 0.31127 0.77139 0.0
C2410 C 0.7516 0.28789 0.78892 0.0
C2411 C 0.78219 0.11508 0.819 0.0
C2412 C 0.80572 0.11888 0.79699 0.0
C2413 C 0.76814 0.14103 0.82941 0.0
C2414 C 0.77766 0.17115 0.81817 0.0
C2415 C 0.798 0.17425 0.79323 0.0
C2416 C 0.81195 0.14826 0.78268 0.0
C2417 C 0.77083 0.19949 0.83566 0.0
C2418 C 0.75706 0.2236 0.81954 0.0
C2419 C 0.77962 0.20348 0.86802 0.0
C2420 C 0.7976 0.18079 0.88584 0.0
C2421 C 0.82647 0.17273 0.87539 0.0
C2422 C 0.84346 0.15171 0.89249 0.0
C2423 C 0.83223 0.13912 0.92049 0.0
C2424 C 0.80381 0.14731 0.9313 0.0
C2425 C 0.78652 0.16805 0.91409 0.0
H2426 H 0.84555 0.12311 0.93391 0.0
H2427 H 0.70105 0.34136 0.76736 0.0
H2428 H 0.98366 0.4693 0.251 0.0
H2429 H 0.02643 0.47574 0.21459 0.0
H2430 H 0.98022 0.54757 0.16546 0.0
H2431 H 0.93751 0.5415 0.20186 0.0
H2432 H 0.00511 0.50293 0.12571 0.0
H2433 H 0.03452 0.56529 0.21933 0.0
H2434 H 0.04505 0.57116 0.27642 0.0
H2435 H 0.1221 0.51464 0.27194 0.0
H2436 H 0.11086 0.50675 0.21513 0.0
H2437 H 0.12021 0.59236 0.04284 0.0
H2438 H 0.07795 0.56678 0.07316 0.0
H2439 H 0.14585 0.52057 0.12936 0.0
H2440 H 0.1884 0.54767 0.09995 0.0
H2441 H 0.11142 0.54539 0.1668 0.0
H2442 H 0.08567 0.47978 0.07982 0.0
H2443 H 0.07451 0.46211 0.02555 0.0
H2444 H 0.99376 0.51422 0.01859 0.0
H2445 H 0.00506 0.53312 0.07308 0.0
C2446 C 0.98242 0.48626 0.23226 0.0
C2447 C 0.95724 0.50502 0.22942 0.0
C2448 C 0.00692 0.48993 0.21152 0.0
C2449 C 0.00658 0.51228 0.18746 0.0
C2450 C 0.98092 0.5302 0.18387 0.0
C2451 C 0.95661 0.5268 0.20479 0.0
C2452 C 0.03355 0.51818 0.16684 0.0
C2453 C 0.02832 0.51251 0.13456 0.0
C2454 C 0.06415 0.52927 0.17876 0.0
C2455 C 0.07138 0.53486 0.21291 0.0
C2456 C 0.05328 0.55351 0.23055 0.0
C2457 C 0.05929 0.55708 0.26295 0.0
C2458 C 0.0839 0.54284 0.2779 0.0
C2459 C 0.10271 0.52522 0.26044 0.0
C2460 C 0.09642 0.52106 0.22815 0.0
C2461 C 0.12591 0.57581 0.0609 0.0
C2462 C 0.1575 0.57194 0.06896 0.0
C2463 C 0.10174 0.56116 0.07826 0.0
C2464 C 0.10846 0.54165 0.10367 0.0
C2465 C 0.13991 0.53563 0.11004 0.0
C2466 C 0.16422 0.55066 0.09283 0.0
C2467 C 0.08306 0.53048 0.12521 0.0
C2468 C 0.08842 0.53545 0.15776 0.0
C2469 C 0.05273 0.51785 0.11372 0.0
C2470 C 0.04636 0.50799 0.0805 0.0
C2471 C 0.06576 0.48786 0.06664 0.0
C2472 C 0.05931 0.47754 0.03578 0.0
C2473 C 0.03332 0.48694 0.01848 0.0
C2474 C 0.01389 0.50698 0.03202 0.0
C2475 C 0.02032 0.51753 0.06293 0.0
H2476 H 0.02822 0.47868 0.99462 0.0
H2477 H 0.08865 0.54578 0.30295 0.0
H2478 H 0.65978 0.73064 0.47857 0.0
H2479 H 0.66472 0.77272 0.44026 0.0
H2480 H 0.74674 0.81592 0.49258 0.0
H2481 H 0.73969 0.77614 0.53251 0.0
H2482 H 0.72236 0.8586 0.47025 0.0
H2483 H 0.74682 0.76521 0.42306 0.0
H2484 H 0.73934 0.70981 0.40618 0.0
H2485 H 0.66185 0.7293 0.34398 0.0
H2486 H 0.668 0.78456 0.36135 0.0
H2487 H 0.72196 0.96627 0.34079 0.0
H2488 H 0.74711 0.92538 0.36995 0.0
H2489 H 0.66216 0.86244 0.3557 0.0
H2490 H 0.63835 0.90209 0.32491 0.0
H2491 H 0.70951 0.83003 0.35749 0.0
H2492 H 0.68993 0.91082 0.46103 0.0
H2493 H 0.70705 0.96348 0.48294 0.0
H2494 H 0.79461 0.96381 0.43769 0.0
H2495 H 0.77779 0.91142 0.41544 0.0
C2496 C 0.6783 0.74952 0.48256 0.0
C2497 C 0.69997 0.74922 0.5085 0.0
C2498 C 0.68156 0.77334 0.4601 0.0
C2499 C 0.70708 0.79684 0.46248 0.0
C2500 C 0.72715 0.7979 0.48957 0.0
C2501 C 0.7232 0.77484 0.51249 0.0
C2502 C 0.71281 0.82046 0.43709 0.0
C2503 C 0.71975 0.85214 0.44559 0.0
C2504 C 0.71119 0.81227 0.40477 0.0
C2505 C 0.70769 0.77906 0.39382 0.0
C2506 C 0.72798 0.75766 0.40602 0.0
C2507 C 0.72388 0.72623 0.39645 0.0
C2508 C 0.69998 0.71601 0.37421 0.0
C2509 C 0.68022 0.73722 0.36136 0.0
C2510 C 0.68395 0.76859 0.37114 0.0
C2511 C 0.70918 0.94334 0.34335 0.0
C2512 C 0.67802 0.93745 0.33124 0.0
C2513 C 0.72319 0.92021 0.36091 0.0
C2514 C 0.70592 0.89127 0.36718 0.0
C2515 C 0.67605 0.8846 0.35202 0.0
C2516 C 0.6623 0.90735 0.33436 0.0
C2517 C 0.71645 0.86818 0.39079 0.0
C2518 C 0.71266 0.83624 0.38219 0.0
C2519 C 0.72247 0.87595 0.42304 0.0
C2520 C 0.73166 0.90826 0.4347 0.0
C2521 C 0.71248 0.92258 0.45509 0.0
C2522 C 0.72222 0.95229 0.46777 0.0
C2523 C 0.75165 0.96739 0.46113 0.0
C2524 C 0.77151 0.95257 0.44219 0.0
C2525 C 0.76178 0.92296 0.42938 0.0
H2526 H 0.75926 0.99033 0.47104 0.0
H2527 H 0.6969 0.69169 0.36677 0.0
H2528 H 0.86675 0.606 0.55908 0.0
H2529 H 0.90539 0.56794 0.55505 0.0
H2530 H 0.83787 0.49504 0.58764 0.0
H2531 H 0.799 0.53258 0.59115 0.0
H2532 H 0.89569 0.49454 0.6173 0.0
H2533 H 0.85209 0.50395 0.51067 0.0
H2534 H 0.84099 0.53238 0.46177 0.0
H2535 H 0.94003 0.55548 0.45146 0.0
H2536 H 0.9517 0.52773 0.50067 0.0
H2537 H 0.92605 0.34888 0.54679 0.0
H2538 H 0.90942 0.40131 0.53763 0.0
H2539 H 0.99462 0.44247 0.58573 0.0
H2540 H 0.01015 0.39 0.59707 0.0
H2541 H 0.93728 0.46558 0.51575 0.0
H2542 H 0.97742 0.46636 0.63201 0.0
H2543 H 0.98504 0.43775 0.68162 0.0
H2544 H 0.88906 0.39688 0.67322 0.0
H2545 H 0.8815 0.42404 0.62287 0.0
C2546 C 0.86002 0.58184 0.56525 0.0
C2547 C 0.82955 0.5724 0.57527 0.0
C2548 C 0.88219 0.56015 0.56292 0.0
C2549 C 0.87436 0.52863 0.57065 0.0
C2550 C 0.84436 0.5193 0.58149 0.0
C2551 C 0.82219 0.54089 0.58371 0.0
C2552 C 0.89723 0.50506 0.56802 0.0
C2553 C 0.9051 0.48858 0.59512 0.0
C2554 C 0.90986 0.49748 0.53916 0.0
C2555 C 0.90274 0.51421 0.50965 0.0
C2556 C 0.87149 0.51544 0.49821 0.0
C2557 C 0.86509 0.53139 0.4704 0.0
C2558 C 0.88978 0.54594 0.45365 0.0
C2559 C 0.92092 0.54441 0.46459 0.0
C2560 C 0.92744 0.52858 0.49243 0.0
C2561 C 0.94159 0.36919 0.55462 0.0
C2562 C 0.9688 0.36539 0.57346 0.0
C2563 C 0.93216 0.39911 0.54931 0.0
C2564 C 0.95026 0.42559 0.56211 0.0
C2565 C 0.97986 0.42216 0.57662 0.0
C2566 C 0.98898 0.39217 0.58256 0.0
C2567 C 0.93554 0.45522 0.56505 0.0
C2568 C 0.92877 0.47246 0.53803 0.0
C2569 C 0.92409 0.46393 0.59403 0.0
C2570 C 0.92927 0.44626 0.62326 0.0
C2571 C 0.95828 0.45053 0.64036 0.0
C2572 C 0.96257 0.43461 0.66861 0.0
C2573 C 0.93771 0.41504 0.68034 0.0
C2574 C 0.90852 0.41143 0.66385 0.0
C2575 C 0.90429 0.42689 0.63534 0.0
H2576 H 0.94098 0.403 0.70237 0.0
H2577 H 0.88478 0.55819 0.43208 0.0
H2578 H 0.26072 0.99079 0.48051 0.0
H2579 H 0.28964 0.04243 0.47447 0.0
H2580 H 0.37437 0.00668 0.51199 0.0
H2581 H 0.34547 0.95513 0.51889 0.0
H2582 H 0.37002 0.06128 0.53544 0.0
H2583 H 0.35641 0.01065 0.43668 0.0
H2584 H 0.33314 0.97662 0.38788 0.0
H2585 H 0.27891 0.05387 0.33365 0.0
H2586 H 0.31369 0.10717 0.40941 0.0
H2587 H 0.47262 0.18063 0.45088 0.0
H2588 H 0.44654 0.13143 0.47031 0.0
H2589 H 0.36314 0.17702 0.48527 0.0
H2590 H 0.38949 0.2267 0.46719 0.0
H2591 H 0.36805 0.11813 0.4342 0.0
H2592 H 0.37819 0.15692 0.54352 0.0
H2593 H 0.40962 0.17861 0.59002 0.0
H2594 H 0.46603 0.10119 0.58853 0.0
H2595 H 0.43515 0.07927 0.54197 0.0
C2596 C 0.28555 0.99384 0.48747 0.0
C2597 C 0.30092 0.9686 0.49972 0.0
C2598 C 0.30208 0.02338 0.48379 0.0
C2599 C 0.33441 0.02822 0.49179 0.0
C2600 C 0.34956 0.00336 0.50503 0.0
C2601 C 0.33303 0.97384 0.50888 0.0
C2602 C 0.35234 0.05932 0.48712 0.0
C2603 C 0.36965 0.07347 0.51315 0.0
C2604 C 0.35197 0.07543 0.45794 0.0
C2605 C 0.33716 0.06084 0.42843 0.0
C2606 C 0.34182 0.02257 0.42017 0.0
C2607 C 0.32717 1.00055 0.38833 0.0
C2608 C 0.30465 0.01162 0.35717 0.0
C2609 C 0.29351 0.04875 0.35428 0.0
C2610 C 0.31579 0.08276 0.40296 0.0
C2611 C 0.4494 0.18069 0.45996 0.0
C2612 C 0.43299 0.2075 0.45722 0.0
C2613 C 0.43437 0.15242 0.47061 0.0
C2614 C 0.40282 0.15065 0.4786 0.0
C2615 C 0.38747 0.17801 0.47896 0.0
C2616 C 0.40263 0.20637 0.46888 0.0
C2617 C 0.38482 0.11975 0.4826 0.0
C2618 C 0.36779 0.10573 0.45638 0.0
C2619 C 0.38604 0.10336 0.51116 0.0
C2620 C 0.40462 0.11668 0.53908 0.0
C2621 C 0.39752 0.14473 0.55295 0.0
C2622 C 0.41517 0.157 0.57941 0.0
C2623 C 0.43987 0.14132 0.59225 0.0
C2624 C 0.44692 0.11333 0.57867 0.0
C2625 C 0.42934 0.10096 0.55226 0.0
H2626 H 0.45351 0.15082 0.61274 0.0
H2627 H 0.29719 0.99477 0.33873 0.0
H2628 H 0.33982 0.14837 0.71328 0.0
H2629 H 0.28777 0.16586 0.70204 0.0
H2630 H 0.24746 0.09689 0.76609 0.0
H2631 H 0.29952 0.07871 0.77685 0.0
H2632 H 0.20936 0.10543 0.70804 0.0
H2633 H 0.26533 0.16941 0.7941 0.0
H2634 H 0.31653 0.19786 0.81088 0.0
H2635 H 0.31152 0.25768 0.73047 0.0
H2636 H 0.26009 0.23022 0.71369 0.0
H2637 H 0.06766 0.1731 0.71208 0.0
H2638 H 0.11579 0.1531 0.73385 0.0
H2639 H 0.17141 0.22994 0.69128 0.0
H2640 H 0.12353 0.25032 0.67034 0.0
H2641 H 0.20095 0.21512 0.74204 0.0
H2642 H 0.1525 0.15927 0.65329 0.0
H2643 H 0.10985 0.12941 0.62159 0.0
H2644 H 0.1066 0.05528 0.68949 0.0
H2645 H 0.149 0.08489 0.72179 0.0
C2646 C 0.31988 0.1369 0.72491 0.0
C2647 C 0.32381 0.11254 0.74633 0.0
C2648 C 0.29013 0.14673 0.71831 0.0
C2649 C 0.26386 0.13289 0.73354 0.0
C2650 C 0.26743 0.10776 0.75403 0.0
C2651 C 0.29717 0.09756 0.76028 0.0
C2652 C 0.23345 0.14671 0.73029 0.0
C2653 C 0.20717 0.12913 0.71602 0.0
C2654 C 0.23109 0.17802 0.73966 0.0
C2655 C 0.2589 0.1979 0.75278 0.0
C2656 C 0.27487 0.18915 0.78046 0.0
C2657 C 0.30394 0.20504 0.7899 0.0
C2658 C 0.31723 0.22951 0.77168 0.0
C2659 C 0.30104 0.23896 0.74468 0.0
C2660 C 0.27182 0.22343 0.73535 0.0
C2661 C 0.09016 0.18632 0.70849 0.0
C2662 C 0.0919 0.21318 0.68946 0.0
C2663 C 0.11763 0.17472 0.7206 0.0
C2664 C 0.14725 0.18948 0.71337 0.0
C2665 C 0.14887 0.21801 0.69703 0.0
C2666 C 0.12142 0.22981 0.68524 0.0
C2667 C 0.17633 0.17383 0.71986 0.0
C2668 C 0.20256 0.1911 0.7347 0.0
C2669 C 0.17892 0.14262 0.70972 0.0
C2670 C 0.15361 0.12453 0.69022 0.0
C2671 C 0.14254 0.1367 0.66158 0.0
C2672 C 0.11847 0.11978 0.64344 0.0
C2673 C 0.10549 0.09048 0.65351 0.0
C2674 C 0.11666 0.07799 0.68169 0.0
C2675 C 0.14072 0.09483 0.69994 0.0
H2676 H 0.08681 0.07747 0.63945 0.0
H2677 H 0.34028 0.24083 0.77819 0.0
H2678 H 0.24825 0.02637 0.98038 0.0
H2679 H 0.20827 0.98619 0.95874 0.0
H2680 H 0.14757 0.05787 0.93429 0.0
H2681 H 0.18812 0.09828 0.95526 0.0
H2682 H 0.12061 0.01239 0.97419 0.0
H2683 H 0.17189 0.01614 0.87794 0.0
H2684 H 0.21261 0.01441 0.83917 0.0
H2685 H 0.22612 0.91998 0.86611 0.0
H2686 H 0.18603 0.92131 0.90557 0.0
H2687 H 0.01329 0.89814 0.87936 0.0
H2688 H 0.0434 0.94395 0.90415 0.0
H2689 H 0.10211 0.88316 0.95483 0.0
H2690 H 0.07141 0.8374 0.93091 0.0
H2691 H 0.12737 0.92518 0.89916 0.0
H2692 H 0.07962 0.92414 0.99917 0.0
H2693 H 0.03419 0.92351 0.03275 0.0
H2694 H 0.01211 0.01169 0.99435 0.0
H2695 H 0.05706 0.01267 0.96025 0.0
C2696 C 0.22701 0.03364 0.96894 0.0
C2697 C 0.22148 0.06541 0.9689 0.0
C2698 C 0.20407 0.01066 0.95677 0.0
C2699 C 0.17484 0.01896 0.94498 0.0
C2700 C 0.16999 0.05093 0.94317 0.0
C2701 C 0.19329 0.07404 0.95477 0.0
C2702 C 0.14833 0.9941 0.93873 0.0
C2703 C 0.12196 0.99361 0.95739 0.0
C2704 C 0.15031 0.96912 0.91734 0.0
C2705 C 0.17614 0.96902 0.89516 0.0
C2706 C 0.18396 0.99521 0.87612 0.0
C2707 C 0.20686 0.99424 0.85387 0.0
C2708 C 0.22202 0.96714 0.85025 0.0
C2709 C 0.21445 0.941 0.86901 0.0
C2710 C 0.19166 0.94188 0.89136 0.0
C2711 C 0.03086 0.89445 0.89779 0.0
C2712 C 0.04031 0.86425 0.90289 0.0
C2713 C 0.04853 0.92071 0.91147 0.0
C2714 C 0.07545 0.91688 0.93064 0.0
C2715 C 0.08152 0.88657 0.9399 0.0
C2716 C 0.06349 0.86035 0.92669 0.0
C2717 C 0.10047 0.94332 0.93506 0.0
C2718 C 0.12635 0.94406 0.91595 0.0
C2719 C 0.09812 0.9684 0.95592 0.0
C2720 C 0.07146 0.96827 0.97686 0.0
C2721 C 0.06488 0.94326 0.99769 0.0
C2722 C 0.03923 0.94287 0.01686 0.0
C2723 C 0.02008 0.96744 0.01552 0.0
C2724 C 0.02676 0.99258 0.99523 0.0
C2725 C 0.05238 0.99312 0.97603 0.0
H2726 H 1.00014 0.96702 0.03028 0.0
H2727 H 0.23955 0.96635 0.83285 0.0
H2728 H 0.71158 0.41479 0.74509 0.0
H2729 H 0.74976 0.37774 0.736 0.0
H2730 H 0.79247 0.43974 0.667 0.0
H2731 H 0.75411 0.47734 0.67617 0.0
H2732 H 0.78724 0.38032 0.64689 0.0
H2733 H 0.82523 0.43488 0.74071 0.0
H2734 H 0.8226 0.45536 0.79445 0.0
H2735 H 0.80661 0.36141 0.82917 0.0
H2736 H 0.80832 0.34033 0.77562 0.0
H2737 H 0.95013 0.33389 0.68728 0.0
H2738 H 0.90373 0.35235 0.7089 0.0
H2739 H 0.8443 0.2863 0.6503 0.0
H2740 H 0.89112 0.26941 0.62703 0.0
H2741 H 0.85416 0.34452 0.73525 0.0
H2742 H 0.77977 0.31529 0.62446 0.0
H2743 H 0.78292 0.2996 0.56911 0.0
H2744 H 0.87515 0.3491 0.56673 0.0
H2745 H 0.87272 0.3646 0.62216 0.0
C2746 C 0.72929 0.42089 0.72826 0.0
C2747 C 0.7301 0.44945 0.71176 0.0
C2748 C 0.75107 0.39949 0.72297 0.0
C2749 C 0.77436 0.4061 0.7012 0.0
C2750 C 0.77477 0.43416 0.68402 0.0
C2751 C 0.75286 0.45564 0.68925 0.0
C2752 C 0.79833 0.38379 0.69654 0.0
C2753 C 0.80168 0.3723 0.66627 0.0
C2754 C 0.81743 0.37344 0.72173 0.0
C2755 C 0.8164 0.38603 0.75404 0.0
C2756 C 0.82075 0.41858 0.75976 0.0
C2757 C 0.81943 0.4303 0.79022 0.0
C2758 C 0.81417 0.40968 0.81522 0.0
C2759 C 0.81036 0.37733 0.8098 0.0
C2760 C 0.81149 0.36548 0.77939 0.0
C2761 C 0.92721 0.32222 0.68015 0.0
C2762 C 0.92417 0.30039 0.65539 0.0
C2763 C 0.90049 0.3331 0.69223 0.0
C2764 C 0.87025 0.32218 0.67988 0.0
C2765 C 0.86729 0.29644 0.65903 0.0
C2766 C 0.89408 0.28613 0.64628 0.0
C2767 C 0.84319 0.34083 0.68542 0.0
C2768 C 0.83925 0.35188 0.71591 0.0
C2769 C 0.82366 0.35107 0.66034 0.0
C2770 C 0.82601 0.34118 0.62736 0.0
C2771 C 0.80069 0.32286 0.61206 0.0
C2772 C 0.80243 0.31385 0.58074 0.0
C2773 C 0.82931 0.32329 0.56442 0.0
C2774 C 0.85448 0.34168 0.57944 0.0
C2775 C 0.85295 0.35058 0.61081 0.0
H2776 H 0.83061 0.31639 0.54014 0.0
H2777 H 0.81321 0.41875 0.83882 0.0
H2778 H 0.67546 0.50615 0.07026 0.0
H2779 H 0.65843 0.55824 0.06506 0.0
H2780 H 0.70787 0.57231 0.9796 0.0
H2781 H 0.72429 0.51909 0.98403 0.0
H2782 H 0.69616 0.61241 0.06629 0.0
H2783 H 0.65829 0.63409 0.93658 0.0
H2784 H 0.63853 0.60615 0.88788 0.0
H2785 H 0.60681 0.5252 0.9414 0.0
H2786 H 0.62566 0.55307 0.99033 0.0
H2787 H 0.63695 0.75606 0.07265 0.0
H2788 H 0.66587 0.72096 0.04228 0.0
H2789 H 0.58284 0.65499 0.03288 0.0
H2790 H 0.55389 0.68998 0.06295 0.0
H2791 H 0.62374 0.64977 0.98345 0.0
H2792 H 0.62868 0.65679 0.09993 0.0
H2793 H 0.64196 0.68623 0.14928 0.0
H2794 H 0.73704 0.70765 0.12194 0.0
H2795 H 0.72414 0.6787 0.07213 0.0
C2796 C 0.68249 0.51991 0.05007 0.0
C2797 C 0.70136 0.50818 0.02761 0.0
C2798 C 0.67288 0.54995 0.04724 0.0
C2799 C 0.68196 0.56932 0.02202 0.0
C2800 C 0.7005 0.55777 0.99922 0.0
C2801 C 0.71008 0.52743 1.00197 0.0
C2802 C 0.67259 0.60183 0.02117 0.0
C2803 C 0.68077 0.6207 0.0478 0.0
C2804 C 0.65321 0.61325 0.99667 0.0
C2805 C 0.64412 0.59535 0.96721 0.0
C2806 C 0.64738 0.61021 0.93795 0.0
C2807 C 0.6361 0.59452 0.91029 0.0
C2808 C 0.62147 0.5639 0.91154 0.0
C2809 C 0.61839 0.54882 0.94041 0.0
C2810 C 0.62957 0.56448 0.96811 0.0
C2811 C 0.62448 0.73477 0.06277 0.0
C2812 C 0.59332 0.7255 0.07065 0.0
C2813 C 0.64104 0.7147 0.04545 0.0
C2814 C 0.62674 0.68499 0.03605 0.0
C2815 C 0.59441 0.67773 0.04002 0.0
C2816 C 0.57779 0.69785 0.05721 0.0
C2817 C 0.64613 0.65912 0.02913 0.0
C2818 C 0.64012 0.64179 1.00116 0.0
C2819 C 0.66767 0.64891 0.0522 0.0
C2820 C 0.67538 0.66596 0.08223 0.0
C2821 C 0.65235 0.66797 0.10437 0.0
C2822 C 0.6598 0.68461 0.13237 0.0
C2823 C 0.69029 0.69891 0.13869 0.0
C2824 C 0.71341 0.69662 0.11699 0.0
C2825 C 0.70605 0.68015 0.08885 0.0
H2826 H 0.69607 0.71162 0.16046 0.0
H2827 H 0.61251 0.55188 0.89014 0.0
H2828 H 0.31673 0.97608 0.69728 0.0
H2829 H 0.26663 0.94443 0.7049 0.0
H2830 H 0.2923 0.93625 0.80345 0.0
H2831 H 0.34247 0.9667 0.79584 0.0
H2832 H 0.2679 0.88302 0.78367 0.0
H2833 H 0.23944 0.98784 0.77346 0.0
H2834 H 0.23408 0.03916 0.74879 0.0
H2835 H 0.17861 0.99395 0.67193 0.0
H2836 H 0.18412 0.94222 0.6959 0.0
H2837 H 0.12857 0.85402 0.86086 0.0
H2838 H 0.17582 0.87818 0.83784 0.0
H2839 H 0.1339 0.85826 0.74502 0.0
H2840 H 0.0851 0.83506 0.7684 0.0
H2841 H 0.16481 0.92045 0.75266 0.0
H2842 H 0.18915 0.8145 0.77547 0.0
H2843 H 0.18846 0.77034 0.81217 0.0
H2844 H 0.25128 0.8257 0.87692 0.0
H2845 H 0.25134 0.87074 0.84099 0.0
C2846 C 0.3118 0.96721 0.72049 0.0
C2847 C 0.33372 0.97384 0.74591 0.0
C2848 C 0.28301 0.94936 0.72487 0.0
C2849 C 0.27543 0.93819 0.75484 0.0
C2850 C 0.29754 0.94444 0.78006 0.0
C2851 C 0.32634 0.96189 0.77566 0.0
C2852 C 0.2448 0.91964 0.76036 0.0
C2853 C 0.24543 0.89133 0.77681 0.0
C2854 C 0.21528 0.93009 0.75112 0.0
C2855 C 0.21265 0.96109 0.73622 0.0
C2856 C 0.22647 0.98878 0.75109 0.0
C2857 C 0.22332 0.01797 0.73727 0.0
C2858 C 0.20613 0.01983 0.70874 0.0
C2859 C 0.19203 0.99247 0.69397 0.0
C2860 C 0.19519 0.9632 0.70764 0.0
C2861 C 0.12936 0.85454 0.83549 0.0
C2862 C 0.10308 0.84266 0.8164 0.0
C2863 C 0.15648 0.86835 0.82235 0.0
C2864 C 0.15861 0.86981 0.78969 0.0
C2865 C 0.13274 0.85733 0.77032 0.0
C2866 C 0.10511 0.84371 0.78361 0.0
C2867 C 0.18819 0.88443 0.77651 0.0
C2868 C 0.18736 0.91189 0.75865 0.0
C2869 C 0.21769 0.87395 0.78545 0.0
C2870 C 0.22014 0.846 0.80556 0.0
C2871 C 0.20293 0.81721 0.79747 0.0
C2872 C 0.20258 0.79203 0.81824 0.0
C2873 C 0.21987 0.79515 0.84694 0.0
C2874 C 0.23789 0.82333 0.8547 0.0
C2875 C 0.23806 0.84871 0.83414 0.0
H2876 H 0.21914 0.77588 0.86333 0.0
H2877 H 0.20362 0.04246 0.69815 0.0
H2878 H 0.22675 0.04628 0.27237 0.0
H2879 H 0.27347 0.08346 0.28351 0.0
H2880 H 0.21601 0.14703 0.32633 0.0
H2881 H 0.16923 0.1103 0.31519 0.0
H2882 H 0.25761 0.17381 0.28099 0.0
H2883 H 0.25047 0.10825 0.37033 0.0
H2884 H 0.24025 0.05759 0.40685 0.0
H2885 H 0.364 0.04425 0.37233 0.0
H2886 H 0.35594 0.09737 0.33898 0.0
H2887 H 0.37586 0.27488 0.36935 0.0
H2888 H 0.33029 0.24388 0.34427 0.0
H2889 H 0.3913 0.17866 0.30988 0.0
H2890 H 0.43686 0.20979 0.33479 0.0
H2891 H 0.34815 0.15248 0.35187 0.0
H2892 H 0.34723 0.21735 0.25956 0.0
H2893 H 0.34644 0.26722 0.23082 0.0
H2894 H 0.25827 0.28216 0.26953 0.0
H2895 H 0.25881 0.23268 0.29903 0.0
C2896 C 0.22403 0.06814 0.28421 0.0
C2897 C 0.1942 0.07521 0.29301 0.0
C2898 C 0.2508 0.08924 0.29076 0.0
C2899 C 0.24831 0.11757 0.30652 0.0
C2900 C 0.21851 0.12502 0.31464 0.0
C2901 C 0.19179 0.10398 0.3082 0.0
C2902 C 0.27636 0.14046 0.31274 0.0
C2903 C 0.27736 0.16918 0.29665 0.0
C2904 C 0.30222 0.13417 0.33314 0.0
C2905 C 0.30262 0.10516 0.35251 0.0
C2906 C 0.26942 0.0934 0.37236 0.0
C2907 C 0.26264 0.06171 0.39602 0.0
C2908 C 0.29055 0.03637 0.4033 0.0
C2909 C 0.34147 0.05412 0.37365 0.0
C2910 C 0.33676 0.08752 0.3527 0.0
C2911 C 0.37972 0.25515 0.35462 0.0
C2912 C 0.40986 0.24475 0.35394 0.0
C2913 C 0.3536 0.23713 0.34068 0.0
C2914 C 0.35735 0.20861 0.32574 0.0
C2915 C 0.38788 0.20046 0.32153 0.0
C2916 C 0.414 0.21862 0.33525 0.0
C2917 C 0.32973 0.18516 0.3193 0.0
C2918 C 0.3286 0.15663 0.33577 0.0
C2919 C 0.30363 0.19164 0.29967 0.0
C2920 C 0.30327 0.22142 0.28184 0.0
C2921 C 0.32784 0.23142 0.26225 0.0
C2922 C 0.32743 0.25963 0.24581 0.0
C2923 C 0.30244 0.27795 0.24854 0.0
C2924 C 0.2777 0.26802 0.26757 0.0
C2925 C 0.27805 0.23988 0.28415 0.0
H2926 H 0.30214 0.29975 0.23574 0.0
H2927 H 0.28432 0.01635 0.41846 0.0
loop_
_geom_bond_atom_site_label_1
_geom_bond_atom_site_label_2
_geom_bond_distance
_geom_bond_site_symmetry_2
_ccdc_geom_bond_type
Cu0 N1 1.999 1_455 S
Cu0 O6 1.974 . S
Cu0 N11 1.985 . S
Cu0 O20 1.959 1_455 S
N1 Cu0 1.999 1_655 S
N1 C3 1.263 . S
N1 C5 1.389 . S
N2 C3 1.358 . S
N2 C4 1.400 . S
C3 N1 1.263 . S
C3 N2 1.358 . S
C3 H9 0.930 1_655 S
C4 N2 1.400 . S
C4 C5 1.351 . S
C4 H21 0.930 . S
C5 N1 1.389 . S
C5 C4 1.351 . S
C5 H10 0.930 . S
O6 Cu0 1.974 . S
O6 C16 1.282 . S
C7 O8 1.261 1_655 S
C7 O20 1.251 . S
O8 C7 1.261 1_455 S
H9 C3 0.930 1_455 S
H10 C5 0.930 . S
N11 Cu0 1.985 . S
N11 C13 1.335 . S
N11 C14 1.390 . S
N12 C13 1.345 . S
N12 C15 1.336 . S
C13 N11 1.335 . S
C13 N12 1.345 . S
C13 H18 0.930 . S
C14 N11 1.390 . S
C14 C15 1.346 . S
C14 H19 0.930 . S
C15 N12 1.336 . S
C15 C14 1.346 . S
C15 H22 0.929 . S
C16 O6 1.282 . S
C16 O17 1.216 . S
O17 C16 1.216 . S
H18 C13 0.930 . S
H19 C14 0.930 . S
O20 Cu0 1.959 1_655 S
O20 C7 1.251 . S
H21 C4 0.930 . S
H22 C15 0.929 . S
Cu23 N24 2.005 . S
Cu23 O29 1.974 . S
Cu23 N34 1.985 . S
Cu23 O43 1.959 . S
N24 Cu23 2.005 . S
N24 C26 1.259 1_455 S
N24 C28 1.386 1_455 S
N25 C26 1.358 . S
N25 C27 1.400 . S
C26 N24 1.259 1_655 S
C26 N25 1.358 . S
C26 H32 0.930 . S
C27 N25 1.400 . S
C27 C28 1.351 . S
C27 H44 0.930 . S
C28 N24 1.386 1_655 S
C28 C27 1.351 . S
C28 H33 0.930 . S
O29 Cu23 1.974 . S
O29 C39 1.282 . S
C30 O31 1.261 . S
C30 O43 1.251 1_655 S
O31 C30 1.261 . S
H32 C26 0.930 . S
H33 C28 0.930 . S
N34 Cu23 1.985 . S
N34 C36 1.335 . S
N34 C37 1.390 . S
N35 C36 1.345 . S
N35 C38 1.336 . S
C36 N34 1.335 . S
C36 N35 1.345 . S
C36 H41 0.930 . S
C37 N34 1.390 . S
C37 C38 1.346 . S
C37 H42 0.930 . S
C38 N35 1.336 . S
C38 C37 1.346 . S
C38 H45 0.929 . S
C39 O29 1.282 . S
C39 O40 1.216 . S
O40 C39 1.216 . S
H41 C36 0.930 . S
H42 C37 0.930 . S
O43 Cu23 1.959 . S
O43 C30 1.251 1_455 S
H44 C27 0.930 . S
H45 C38 0.929 . S
Cu46 N47 1.999 . S
Cu46 O52 1.974 . S
Cu46 N57 1.985 . S
Cu46 O66 1.959 . S
N47 Cu46 1.999 . S
N47 C49 1.263 . S
N47 C51 1.389 . S
N48 C49 1.358 . S
N48 C50 1.400 . S
C49 N47 1.263 . S
C49 N48 1.358 . S
C49 H55 0.930 . S
C50 N48 1.400 . S
C50 C51 1.351 . S
C50 H67 0.930 . S
C51 N47 1.389 . S
C51 C50 1.351 . S
C51 H56 0.930 . S
O52 Cu46 1.974 . S
O52 C62 1.282 . S
C53 O54 1.261 . S
C53 O66 1.251 . S
O54 C53 1.261 . S
H55 C49 0.930 . S
H56 C51 0.930 . S
N57 Cu46 1.985 . S
N57 C59 1.335 . S
N57 C60 1.390 . S
N58 C59 1.345 . S
N58 C61 1.336 . S
C59 N57 1.335 . S
C59 N58 1.345 . S
C59 H64 0.930 . S
C60 N57 1.390 . S
C60 C61 1.346 . S
C60 H65 0.930 . S
C61 N58 1.336 . S
C61 C60 1.346 . S
C61 H68 0.929 . S
C62 O52 1.282 . S
C62 O63 1.216 . S
O63 C62 1.216 . S
H64 C59 0.930 . S
H65 C60 0.930 . S
O66 Cu46 1.959 . S
O66 C53 1.251 . S
H67 C50 0.930 . S
H68 C61 0.929 . S
Cu69 N70 1.999 . S
Cu69 O75 1.974 . S
Cu69 N80 1.985 . S
Cu69 O89 1.959 . S
N70 Cu69 1.999 . S
N70 C72 1.263 . S
N70 C74 1.389 . S
N71 C72 1.358 . S
N71 C73 1.400 . S
C72 N70 1.263 . S
C72 N71 1.358 . S
C72 H78 0.930 . S
C73 N71 1.400 . S
C73 C74 1.351 . S
C73 H90 0.930 . S
C74 N70 1.389 . S
C74 C73 1.351 . S
C74 H79 0.930 . S
O75 Cu69 1.974 . S
O75 C85 1.282 . S
C76 O77 1.261 . S
C76 O89 1.251 . S
O77 C76 1.261 . S
H78 C72 0.930 . S
H79 C74 0.930 . S
N80 Cu69 1.985 . S
N80 C82 1.335 . S
N80 C83 1.390 . S
N81 C82 1.345 . S
N81 C84 1.336 . S
C82 N80 1.335 . S
C82 N81 1.345 . S
C82 H87 0.930 . S
C83 N80 1.390 . S
C83 C84 1.346 . S
C83 H88 0.930 . S
C84 N81 1.336 . S
C84 C83 1.346 . S
C84 H91 0.929 . S
C85 O75 1.282 . S
C85 O86 1.216 . S
O86 C85 1.216 . S
H87 C82 0.930 . S
H88 C83 0.930 . S
O89 Cu69 1.959 . S
O89 C76 1.251 . S
H90 C73 0.930 . S
H91 C84 0.929 . S
Cu92 N93 1.999 1_565 S
Cu92 O98 1.974 . S
Cu92 N103 1.985 . S
Cu92 O112 1.959 1_565 S
N93 Cu92 1.999 1_545 S
N93 C95 1.263 . S
N93 C97 1.389 . S
N94 C95 1.358 . S
N94 C96 1.400 . S
C95 N93 1.263 . S
C95 N94 1.358 . S
C95 H101 0.930 . S
C96 N94 1.400 . S
C96 C97 1.351 . S
C96 H113 0.930 . S
C97 N93 1.389 . S
C97 C96 1.351 . S
C97 H102 0.930 . S
O98 Cu92 1.974 . S
O98 C108 1.282 . S
C99 O100 1.261 . S
C99 O112 1.251 . S
O100 C99 1.261 . S
H101 C95 0.930 . S
H102 C97 0.930 . S
N103 Cu92 1.985 . S
N103 C105 1.335 . S
N103 C106 1.390 . S
N104 C105 1.345 . S
N104 C107 1.336 . S
C105 N103 1.335 . S
C105 N104 1.345 . S
C105 H110 0.930 . S
C106 N103 1.390 . S
C106 C107 1.346 . S
C106 H111 0.930 . S
C107 N104 1.336 . S
C107 C106 1.346 . S
C107 H114 0.929 . S
C108 O98 1.282 . S
C108 O109 1.219 . S
O109 C108 1.219 . S
H110 C105 0.930 . S
H111 C106 0.930 . S
O112 Cu92 1.959 1_545 S
O112 C99 1.251 . S
H113 C96 0.930 . S
H114 C107 0.929 . S
Cu115 N116 1.999 . S
Cu115 O121 1.974 . S
Cu115 N126 1.985 . S
Cu115 O135 1.959 . S
N116 Cu115 1.999 . S
N116 C118 1.263 . S
N116 C120 1.389 . S
N117 C118 1.358 . S
N117 C119 1.400 . S
C118 N116 1.263 . S
C118 N117 1.358 . S
C118 H124 0.930 . S
C119 N117 1.400 . S
C119 C120 1.351 . S
C119 H136 0.930 . S
C120 N116 1.389 . S
C120 C119 1.351 . S
C120 H125 0.930 . S
O121 Cu115 1.974 . S
O121 C131 1.282 . S
C122 O123 1.261 . S
C122 O135 1.251 . S
O123 C122 1.261 . S
H124 C118 0.930 . S
H125 C120 0.930 . S
N126 Cu115 1.985 . S
N126 C128 1.335 . S
N126 C129 1.390 . S
N127 C128 1.345 . S
N127 C130 1.336 . S
C128 N126 1.335 . S
C128 N127 1.345 . S
C128 H133 0.930 . S
C129 N126 1.390 . S
C129 C130 1.346 . S
C129 H134 0.930 . S
C130 N127 1.336 . S
C130 C129 1.346 . S
C130 H137 0.929 . S
C131 O121 1.282 . S
C131 O132 1.216 . S
O132 C131 1.216 . S
H133 C128 0.930 . S
H134 C129 0.930 . S
O135 Cu115 1.959 . S
O135 C122 1.251 . S
H136 C119 0.930 . S
H137 C130 0.929 . S
Cu138 N139 1.999 . S
Cu138 O144 1.974 . S
Cu138 N149 1.985 . S
Cu138 O158 1.959 . S
N139 Cu138 1.999 . S
N139 C141 1.263 1_545 S
N139 C143 1.389 1_545 S
N140 C141 1.358 . S
N140 C142 1.400 . S
C141 N139 1.263 1_565 S
C141 N140 1.358 . S
C141 H147 0.930 . S
C142 N140 1.400 . S
C142 C143 1.351 . S
C142 H159 0.930 . S
C143 N139 1.389 1_565 S
C143 C142 1.351 . S
C143 H148 0.925 1_565 S
O144 Cu138 1.974 . S
O144 C154 1.282 . S
C145 O146 1.261 . S
C145 O158 1.251 1_565 S
O146 C145 1.261 . S
H147 C141 0.930 . S
H148 C143 0.925 1_545 S
N149 Cu138 1.985 . S
N149 C151 1.335 . S
N149 C152 1.390 . S
N150 C151 1.345 . S
N150 C153 1.336 . S
C151 N149 1.335 . S
C151 N150 1.345 . S
C151 H156 0.930 . S
C152 N149 1.390 . S
C152 C153 1.346 . S
C152 H157 0.930 . S
C153 N150 1.336 . S
C153 C152 1.346 . S
C153 H160 0.929 . S
C154 O144 1.282 . S
C154 O155 1.216 . S
O155 C154 1.216 . S
H156 C151 0.930 . S
H157 C152 0.930 . S
O158 Cu138 1.959 . S
O158 C145 1.251 1_545 S
H159 C142 0.930 . S
H160 C153 0.929 . S
Cu161 N162 1.999 . S
Cu161 O167 1.974 1_556 S
Cu161 N172 1.985 1_556 S
Cu161 O181 1.959 . S
N162 Cu161 1.999 . S
N162 C164 1.263 . S
N162 C166 1.389 . S
N163 C164 1.358 . S
N163 C165 1.400 . S
C164 N162 1.263 . S
C164 N163 1.358 . S
C164 H170 0.930 . S
C165 N163 1.400 . S
C165 C166 1.351 . S
C165 H182 0.930 . S
C166 N162 1.389 . S
C166 C165 1.351 . S
C166 H171 0.930 . S
O167 Cu161 1.974 1_554 S
O167 C177 1.282 . S
C168 O169 1.261 1_556 S
C168 O181 1.251 . S
O169 C168 1.261 1_554 S
H170 C164 0.930 . S
H171 C166 0.930 . S
N172 Cu161 1.985 1_554 S
N172 C174 1.335 . S
N172 C175 1.390 . S
N173 C174 1.345 . S
N173 C176 1.336 . S
C174 N172 1.335 . S
C174 N173 1.345 . S
C174 H179 0.930 1_554 S
C175 N172 1.390 . S
C175 C176 1.346 . S
C175 H180 0.930 . S
C176 N173 1.336 . S
C176 C175 1.346 . S
C176 H183 0.929 . S
C177 O167 1.282 . S
C177 O178 1.216 . S
O178 C177 1.216 . S
H179 C174 0.930 1_556 S
H180 C175 0.930 . S
O181 Cu161 1.959 . S
O181 C168 1.251 . S
H182 C165 0.930 . S
H183 C176 0.929 . S
Cu184 N185 1.999 . S
Cu184 O190 1.974 1_556 S
Cu184 N195 1.985 1_556 S
Cu184 O204 1.959 . S
N185 Cu184 1.999 . S
N185 C187 1.263 . S
N185 C189 1.389 . S
N186 C187 1.358 . S
N186 C188 1.400 . S
C187 N185 1.263 . S
C187 N186 1.358 . S
C187 H193 0.930 . S
C188 N186 1.400 . S
C188 C189 1.351 . S
C188 H205 0.930 . S
C189 N185 1.389 . S
C189 C188 1.351 . S
C189 H194 0.930 . S
O190 Cu184 1.974 1_554 S
O190 C200 1.282 . S
C191 O192 1.261 1_556 S
C191 O204 1.251 . S
O192 C191 1.261 1_554 S
H193 C187 0.930 . S
H194 C189 0.930 . S
N195 Cu184 1.985 1_554 S
N195 C197 1.335 . S
N195 C198 1.390 . S
N196 C197 1.345 . S
N196 C199 1.336 . S
C197 N195 1.335 . S
C197 N196 1.345 . S
C197 H202 0.930 1_554 S
C198 N195 1.390 . S
C198 C199 1.346 . S
C198 H203 0.930 . S
C199 N196 1.336 . S
C199 C198 1.346 . S
C199 H206 0.929 . S
C200 O190 1.282 . S
C200 O201 1.216 . S
O201 C200 1.216 . S
H202 C197 0.930 1_556 S
H203 C198 0.930 . S
O204 Cu184 1.959 . S
O204 C191 1.251 . S
H205 C188 0.930 . S
H206 C199 0.929 . S
Cu207 N208 1.999 . S
Cu207 O213 1.974 . S
Cu207 N218 1.985 . S
Cu207 O227 1.959 . S
N208 Cu207 1.999 . S
N208 C210 1.263 . S
N208 C212 1.389 . S
N209 C210 1.358 . S
N209 C211 1.400 . S
C210 N208 1.263 . S
C210 N209 1.358 . S
C210 H216 0.930 . S
C211 N209 1.400 . S
C211 C212 1.351 . S
C211 H228 0.930 . S
C212 N208 1.389 . S
C212 C211 1.351 . S
C212 H217 0.930 . S
O213 Cu207 1.974 . S
O213 C223 1.282 . S
C214 O215 1.261 . S
C214 O227 1.251 . S
O215 C214 1.261 . S
H216 C210 0.930 . S
H217 C212 0.930 . S
N218 Cu207 1.985 . S
N218 C220 1.335 . S
N218 C221 1.390 . S
N219 C220 1.345 . S
N219 C222 1.336 . S
C220 N218 1.335 . S
C220 N219 1.345 . S
C220 H225 0.930 . S
C221 N218 1.390 . S
C221 C222 1.346 . S
C221 H226 0.930 . S
C222 N219 1.336 . S
C222 C221 1.346 . S
C222 H229 0.929 . S
C223 O213 1.282 . S
C223 O224 1.216 . S
O224 C223 1.216 . S
H225 C220 0.930 . S
H226 C221 0.930 . S
O227 Cu207 1.959 . S
O227 C214 1.251 . S
H228 C211 0.930 . S
H229 C222 0.929 . S
Cu230 N231 1.999 . S
Cu230 O236 1.974 . S
Cu230 N241 1.985 . S
Cu230 O250 1.959 . S
N231 Cu230 1.999 . S
N231 C233 1.263 . S
N231 C235 1.389 . S
N232 C233 1.358 . S
N232 C234 1.400 . S
C233 N231 1.263 . S
C233 N232 1.358 . S
C233 H239 0.930 . S
C234 N232 1.400 . S
C234 C235 1.351 . S
C234 H251 0.930 . S
C235 N231 1.389 . S
C235 C234 1.351 . S
C235 H240 0.930 . S
O236 Cu230 1.974 . S
O236 C246 1.282 . S
C237 O238 1.261 . S
C237 O250 1.251 . S
O238 C237 1.261 . S
H239 C233 0.930 . S
H240 C235 0.930 . S
N241 Cu230 1.985 . S
N241 C243 1.335 . S
N241 C244 1.390 . S
N242 C243 1.345 . S
N242 C245 1.336 . S
C243 N241 1.335 . S
C243 N242 1.345 . S
C243 H248 0.930 . S
C244 N241 1.390 . S
C244 C245 1.346 . S
C244 H249 0.930 . S
C245 N242 1.336 . S
C245 C244 1.346 . S
C245 H252 0.929 . S
C246 O236 1.282 . S
C246 O247 1.216 . S
O247 C246 1.216 . S
H248 C243 0.930 . S
H249 C244 0.930 . S
O250 Cu230 1.959 . S
O250 C237 1.251 . S
H251 C234 0.930 . S
H252 C245 0.929 . S
Cu253 N254 1.999 . S
Cu253 O259 1.974 . S
Cu253 N264 1.985 . S
Cu253 O273 1.959 . S
N254 Cu253 1.999 . S
N254 C256 1.263 . S
N254 C258 1.389 . S
N255 C256 1.358 . S
N255 C257 1.400 . S
C256 N254 1.263 . S
C256 N255 1.358 . S
C256 H262 0.930 . S
C257 N255 1.400 . S
C257 C258 1.351 . S
C257 H274 0.930 . S
C258 N254 1.389 . S
C258 C257 1.351 . S
C258 H263 0.930 . S
O259 Cu253 1.974 . S
O259 C269 1.282 . S
C260 O261 1.261 . S
C260 O273 1.251 . S
O261 C260 1.261 . S
H262 C256 0.930 . S
H263 C258 0.930 . S
N264 Cu253 1.985 . S
N264 C266 1.335 . S
N264 C267 1.390 . S
N265 C266 1.345 . S
N265 C268 1.336 . S
C266 N264 1.335 . S
C266 N265 1.345 . S
C266 H271 0.930 . S
C267 N264 1.390 . S
C267 C268 1.346 . S
C267 H272 0.930 . S
C268 N265 1.336 . S
C268 C267 1.346 . S
C268 H275 0.929 . S
C269 O259 1.282 . S
C269 O270 1.216 . S
O270 C269 1.216 . S
H271 C266 0.930 . S
H272 C267 0.930 . S
O273 Cu253 1.959 . S
O273 C260 1.251 . S
H274 C257 0.930 . S
H275 C268 0.929 . S
H276 C284 0.930 . S
H277 C287 0.930 . S
H278 C289 0.930 . S
H279 C290 0.970 . S
H280 C290 0.970 . S
H281 C292 0.930 . S
H282 C294 0.930 . S
H283 C296 0.930 . S
C284 H276 0.930 . S
C284 C285 1.382 . S
C284 C286 1.426 . S
C285 C284 1.382 . S
C285 C289 1.389 . S
C286 C284 1.426 . S
C286 C287 1.375 . S
C286 C290 1.532 . S
C287 H277 0.930 . S
C287 C286 1.375 . S
C287 C288 1.416 . S
C288 C287 1.416 . S
C288 C289 1.371 . S
C289 H278 0.930 . S
C289 C285 1.389 . S
C289 C288 1.371 . S
C290 H279 0.970 . S
C290 H280 0.970 . S
C290 C286 1.532 . S
C290 C291 1.499 . S
C291 C290 1.499 . S
C291 C292 1.370 . S
C291 C296 1.415 . S
C292 H281 0.930 . S
C292 C291 1.370 . S
C292 C293 1.407 1_455 S
C293 C292 1.407 1_655 S
C293 C294 1.365 . S
C294 H282 0.930 . S
C294 C293 1.365 . S
C294 C295 1.393 . S
C295 C294 1.393 . S
C295 C296 1.387 1_655 S
C296 H283 0.930 . S
C296 C291 1.415 . S
C296 C295 1.387 1_455 S
H297 C305 0.930 . S
H298 C308 0.930 . S
H299 C310 0.930 . S
H300 C311 0.970 . S
H301 C311 0.970 . S
H302 C313 0.930 . S
H303 C315 0.930 . S
H304 C317 0.930 . S
C305 H297 0.930 . S
C305 C306 1.382 . S
C305 C307 1.426 . S
C306 C305 1.382 . S
C306 C310 1.389 . S
C307 C305 1.426 . S
C307 C308 1.375 . S
C307 C311 1.532 . S
C308 H298 0.930 . S
C308 C307 1.375 . S
C308 C309 1.416 . S
C309 C308 1.416 . S
C309 C310 1.371 . S
C310 H299 0.930 . S
C310 C306 1.389 . S
C310 C309 1.371 . S
C311 H300 0.970 . S
C311 H301 0.970 . S
C311 C307 1.532 . S
C311 C312 1.499 . S
C312 C311 1.499 . S
C312 C313 1.370 1_455 S
C312 C317 1.415 1_455 S
C313 H302 0.930 . S
C313 C312 1.370 1_655 S
C313 C314 1.407 . S
C314 C313 1.407 . S
C314 C315 1.365 . S
C315 H303 0.930 . S
C315 C314 1.365 . S
C315 C316 1.393 . S
C316 C315 1.393 . S
C316 C317 1.387 . S
C317 H304 0.930 . S
C317 C312 1.415 1_655 S
C317 C316 1.387 . S
H318 C326 0.930 . S
H319 C329 0.930 . S
H320 C331 0.930 . S
H321 C332 0.970 . S
H322 C332 0.970 . S
H323 C334 0.930 . S
H324 C336 0.930 . S
H325 C338 0.930 . S
C326 H318 0.930 . S
C326 C327 1.382 . S
C326 C328 1.426 . S
C327 C326 1.382 . S
C327 C331 1.389 . S
C328 C326 1.426 . S
C328 C329 1.375 . S
C328 C332 1.532 . S
C329 H319 0.930 . S
C329 C328 1.375 . S
C329 C330 1.416 . S
C330 C329 1.416 . S
C330 C331 1.371 . S
C331 H320 0.930 . S
C331 C327 1.389 . S
C331 C330 1.371 . S
C332 H321 0.970 . S
C332 H322 0.970 . S
C332 C328 1.532 . S
C332 C333 1.499 . S
C333 C332 1.499 . S
C333 C334 1.370 . S
C333 C338 1.415 . S
C334 H323 0.930 . S
C334 C333 1.370 . S
C334 C335 1.407 . S
C335 C334 1.407 . S
C335 C336 1.365 . S
C336 H324 0.930 . S
C336 C335 1.365 . S
C336 C337 1.393 . S
C337 C336 1.393 . S
C337 C338 1.387 . S
C338 H325 0.930 . S
C338 C333 1.415 . S
C338 C337 1.387 . S
H339 C347 0.930 . S
H340 C350 0.930 . S
H341 C352 0.930 . S
H342 C353 0.970 . S
H343 C353 0.970 . S
H344 C355 0.930 . S
H345 C357 0.930 . S
H346 C359 0.930 . S
C347 H339 0.930 . S
C347 C348 1.382 . S
C347 C349 1.426 . S
C348 C347 1.382 . S
C348 C352 1.389 . S
C349 C347 1.426 . S
C349 C350 1.375 . S
C349 C353 1.532 . S
C350 H340 0.930 . S
C350 C349 1.375 . S
C350 C351 1.416 . S
C351 C350 1.416 . S
C351 C352 1.371 . S
C352 H341 0.930 . S
C352 C348 1.389 . S
C352 C351 1.371 . S
C353 H342 0.970 . S
C353 H343 0.970 . S
C353 C349 1.532 . S
C353 C354 1.499 . S
C354 C353 1.499 . S
C354 C355 1.370 . S
C354 C359 1.415 . S
C355 H344 0.930 . S
C355 C354 1.370 . S
C355 C356 1.407 . S
C356 C355 1.407 . S
C356 C357 1.365 . S
C357 H345 0.930 . S
C357 C356 1.365 . S
C357 C358 1.393 . S
C358 C357 1.393 . S
C358 C359 1.387 . S
C359 H346 0.930 . S
C359 C354 1.415 . S
C359 C358 1.387 . S
H360 C368 0.930 . S
H361 C371 0.930 . S
H362 C373 0.930 . S
H363 C374 0.969 1_565 S
H364 C374 0.970 . S
H365 C376 0.930 . S
H366 C378 0.930 . S
H367 C380 0.929 . S
C368 H360 0.930 . S
C368 C369 1.382 . S
C368 C370 1.426 . S
C369 C368 1.382 . S
C369 C373 1.389 . S
C370 C368 1.426 . S
C370 C371 1.375 . S
C370 C374 1.532 . S
C371 H361 0.930 . S
C371 C370 1.375 . S
C371 C372 1.416 . S
C372 C371 1.416 . S
C372 C373 1.371 . S
C373 H362 0.930 . S
C373 C369 1.389 . S
C373 C372 1.371 . S
C374 H363 0.969 1_545 S
C374 H364 0.970 . S
C374 C370 1.532 . S
C374 C375 1.499 . S
C375 C374 1.499 . S
C375 C376 1.370 . S
C375 C380 1.423 . S
C376 H365 0.930 . S
C376 C375 1.370 . S
C376 C377 1.407 1_545 S
C377 C376 1.407 1_565 S
C377 C378 1.365 . S
C378 H366 0.930 . S
C378 C377 1.365 . S
C378 C379 1.393 . S
C379 C378 1.393 . S
C379 C380 1.382 1_565 S
C380 H367 0.929 . S
C380 C375 1.423 . S
C380 C379 1.382 1_545 S
H381 C389 0.930 . S
H382 C392 0.930 . S
H383 C394 0.930 . S
H384 C395 0.970 . S
H385 C395 0.970 . S
H386 C397 0.930 . S
H387 C399 0.930 . S
H388 C401 0.930 . S
C389 H381 0.930 . S
C389 C390 1.382 . S
C389 C391 1.426 . S
C390 C389 1.382 . S
C390 C394 1.389 . S
C391 C389 1.426 . S
C391 C392 1.375 . S
C391 C395 1.532 . S
C392 H382 0.930 . S
C392 C391 1.375 . S
C392 C393 1.416 . S
C393 C392 1.416 . S
C393 C394 1.371 . S
C394 H383 0.930 . S
C394 C390 1.389 . S
C394 C393 1.371 . S
C395 H384 0.970 . S
C395 H385 0.970 . S
C395 C391 1.532 . S
C395 C396 1.499 . S
C396 C395 1.499 . S
C396 C397 1.370 . S
C396 C401 1.415 . S
C397 H386 0.930 . S
C397 C396 1.370 . S
C397 C398 1.407 . S
C398 C397 1.407 . S
C398 C399 1.365 . S
C399 H387 0.930 . S
C399 C398 1.365 . S
C399 C400 1.393 . S
C400 C399 1.393 . S
C400 C401 1.387 . S
C401 H388 0.930 . S
C401 C396 1.415 . S
C401 C400 1.387 . S
H402 C410 0.930 . S
H403 C413 0.930 . S
H404 C415 0.930 . S
H405 C416 0.970 . S
H406 C416 0.970 . S
H407 C418 0.930 . S
H408 C420 0.930 . S
H409 C422 0.930 . S
C410 H402 0.930 . S
C410 C411 1.382 1_545 S
C410 C412 1.426 . S
C411 C410 1.382 1_565 S
C411 C415 1.389 . S
C412 C410 1.426 . S
C412 C413 1.375 . S
C412 C416 1.532 . S
C413 H403 0.930 . S
C413 C412 1.375 . S
C413 C414 1.416 1_545 S
C414 C413 1.416 1_565 S
C414 C415 1.371 . S
C415 H404 0.930 . S
C415 C411 1.389 . S
C415 C414 1.371 . S
C416 H405 0.970 . S
C416 H406 0.970 . S
C416 C412 1.532 . S
C416 C417 1.499 . S
C417 C416 1.499 . S
C417 C418 1.370 . S
C417 C422 1.415 . S
C418 H407 0.930 . S
C418 C417 1.370 . S
C418 C419 1.407 . S
C419 C418 1.407 . S
C419 C420 1.365 . S
C420 H408 0.930 . S
C420 C419 1.365 . S
C420 C421 1.393 . S
C421 C420 1.393 . S
C421 C422 1.387 . S
C422 H409 0.930 . S
C422 C417 1.415 . S
C422 C421 1.387 . S
H423 C431 0.930 . S
H424 C434 0.930 . S
H425 C436 0.930 . S
H426 C437 0.970 . S
H427 C437 0.970 . S
H428 C439 0.930 1_554 S
H429 C441 0.930 . S
H430 C443 0.949 . S
C431 H423 0.930 . S
C431 C432 1.382 . S
C431 C433 1.426 . S
C432 C431 1.382 . S
C432 C436 1.389 . S
C433 C431 1.426 . S
C433 C434 1.375 . S
C433 C437 1.532 . S
C434 H424 0.930 . S
C434 C433 1.375 . S
C434 C435 1.416 . S
C435 C434 1.416 . S
C435 C436 1.371 . S
C436 H425 0.930 . S
C436 C432 1.389 . S
C436 C435 1.371 . S
C437 H426 0.970 . S
C437 H427 0.970 . S
C437 C433 1.532 . S
C437 C438 1.499 . S
C438 C437 1.499 . S
C438 C439 1.370 1_554 S
C438 C443 1.430 . S
C439 H428 0.930 1_556 S
C439 C438 1.370 1_556 S
C439 C440 1.407 . S
C440 C439 1.407 . S
C440 C441 1.365 . S
C441 H429 0.930 . S
C441 C440 1.365 . S
C441 C442 1.393 . S
C442 C441 1.393 . S
C442 C443 1.355 1_556 S
C443 H430 0.949 . S
C443 C438 1.430 . S
C443 C442 1.355 1_554 S
H444 C452 0.930 . S
H445 C455 0.930 . S
H446 C457 0.930 . S
H447 C458 0.970 . S
H448 C458 0.970 . S
H449 C460 0.930 1_554 S
H450 C462 0.930 . S
H451 C464 0.930 1_554 S
C452 H444 0.930 . S
C452 C453 1.382 . S
C452 C454 1.426 . S
C453 C452 1.382 . S
C453 C457 1.389 . S
C454 C452 1.426 . S
C454 C455 1.375 . S
C454 C458 1.532 . S
C455 H445 0.930 . S
C455 C454 1.375 . S
C455 C456 1.416 . S
C456 C455 1.416 . S
C456 C457 1.371 . S
C457 H446 0.930 . S
C457 C453 1.389 . S
C457 C456 1.371 . S
C458 H447 0.970 . S
C458 H448 0.970 . S
C458 C454 1.532 . S
C458 C459 1.499 . S
C459 C458 1.499 . S
C459 C460 1.370 1_554 S
C459 C464 1.415 1_554 S
C460 H449 0.930 1_556 S
C460 C459 1.370 1_556 S
C460 C461 1.407 . S
C461 C460 1.407 . S
C461 C462 1.365 . S
C462 H450 0.930 . S
C462 C461 1.365 . S
C462 C463 1.393 . S
C463 C462 1.393 . S
C463 C464 1.387 . S
C464 H451 0.930 1_556 S
C464 C459 1.415 1_556 S
C464 C463 1.387 . S
H465 C473 0.930 . S
H466 C476 0.930 . S
H467 C478 0.930 . S
H468 C479 0.970 . S
H469 C479 0.970 . S
H470 C481 0.930 . S
H471 C483 0.930 . S
H472 C485 0.930 . S
C473 H465 0.930 . S
C473 C474 1.382 . S
C473 C475 1.426 . S
C474 C473 1.382 . S
C474 C478 1.389 . S
C475 C473 1.426 . S
C475 C476 1.375 . S
C475 C479 1.532 . S
C476 H466 0.930 . S
C476 C475 1.375 . S
C476 C477 1.416 . S
C477 C476 1.416 . S
C477 C478 1.371 . S
C478 H467 0.930 . S
C478 C474 1.389 . S
C478 C477 1.371 . S
C479 H468 0.970 . S
C479 H469 0.970 . S
C479 C475 1.532 . S
C479 C480 1.499 . S
C480 C479 1.499 . S
C480 C481 1.370 . S
C480 C485 1.415 . S
C481 H470 0.930 . S
C481 C480 1.370 . S
C481 C482 1.407 . S
C482 C481 1.407 . S
C482 C483 1.365 . S
C483 H471 0.930 . S
C483 C482 1.365 . S
C483 C484 1.393 . S
C484 C483 1.393 . S
C484 C485 1.387 . S
C485 H472 0.930 . S
C485 C480 1.415 . S
C485 C484 1.387 . S
H486 C494 0.930 . S
H487 C497 0.930 . S
H488 C499 0.930 . S
H489 C500 0.970 . S
H490 C500 0.970 . S
H491 C502 0.930 . S
H492 C504 0.930 . S
H493 C506 0.930 . S
C494 H486 0.930 . S
C494 C495 1.382 . S
C494 C496 1.426 . S
C495 C494 1.382 . S
C495 C499 1.389 . S
C496 C494 1.426 . S
C496 C497 1.375 . S
C496 C500 1.532 . S
C497 H487 0.930 . S
C497 C496 1.375 . S
C497 C498 1.416 . S
C498 C497 1.416 . S
C498 C499 1.371 . S
C499 H488 0.930 . S
C499 C495 1.389 . S
C499 C498 1.371 . S
C500 H489 0.970 . S
C500 H490 0.970 . S
C500 C496 1.532 . S
C500 C501 1.499 . S
C501 C500 1.499 . S
C501 C502 1.370 . S
C501 C506 1.415 . S
C502 H491 0.930 . S
C502 C501 1.370 . S
C502 C503 1.407 . S
C503 C502 1.407 . S
C503 C504 1.365 . S
C504 H492 0.930 . S
C504 C503 1.365 . S
C504 C505 1.393 . S
C505 C504 1.393 . S
C505 C506 1.387 . S
C506 H493 0.930 . S
C506 C501 1.415 . S
C506 C505 1.387 . S
H507 C515 0.930 . S
H508 C518 0.930 . S
H509 C520 0.930 . S
H510 C521 0.970 . S
H511 C521 0.970 . S
H512 C523 0.930 . S
H513 C525 0.930 . S
H514 C527 0.930 . S
C515 H507 0.930 . S
C515 C516 1.382 . S
C515 C517 1.426 . S
C516 C515 1.382 . S
C516 C520 1.389 . S
C517 C515 1.426 . S
C517 C518 1.375 . S
C517 C521 1.532 . S
C518 H508 0.930 . S
C518 C517 1.375 . S
C518 C519 1.416 . S
C519 C518 1.416 . S
C519 C520 1.371 . S
C520 H509 0.930 . S
C520 C516 1.389 . S
C520 C519 1.371 . S
C521 H510 0.970 . S
C521 H511 0.970 . S
C521 C517 1.532 . S
C521 C522 1.499 . S
C522 C521 1.499 . S
C522 C523 1.370 . S
C522 C527 1.415 . S
C523 H512 0.930 . S
C523 C522 1.370 . S
C523 C524 1.407 . S
C524 C523 1.407 . S
C524 C525 1.365 . S
C525 H513 0.930 . S
C525 C524 1.365 . S
C525 C526 1.393 . S
C526 C525 1.393 . S
C526 C527 1.387 . S
C527 H514 0.930 . S
C527 C522 1.415 . S
C527 C526 1.387 . S
H528 C546 0.951 . S
H529 C548 0.951 . S
H530 C550 0.950 . S
H531 C551 0.950 . S
H532 C553 0.950 . S
H533 C556 0.950 . S
H534 C557 0.950 . S
H535 C559 0.950 . S
H536 C560 0.950 . S
H537 C561 0.951 . S
H538 C563 0.951 . S
H539 C565 0.950 . S
H540 C566 0.950 . S
H541 C568 0.950 . S
H542 C571 0.950 . S
H543 C572 0.950 . S
H544 C574 0.950 . S
H545 C575 0.950 . S
C546 H528 0.951 . S
C546 C547 1.366 . S
C546 C548 1.388 1_554 S
C547 C546 1.366 . S
C547 C551 1.385 . S
C548 H529 0.951 . S
C548 C546 1.388 1_556 S
C548 C549 1.366 . S
C549 C548 1.366 . S
C549 C550 1.414 1_556 S
C549 C552 1.499 . S
C550 H530 0.950 . S
C550 C549 1.414 1_554 S
C550 C551 1.374 . S
C551 H531 0.950 . S
C551 C547 1.385 . S
C551 C550 1.374 . S
C552 C549 1.499 . S
C552 C553 1.373 . S
C552 C554 1.389 . S
C553 H532 0.950 . S
C553 C552 1.373 . S
C553 C569 1.377 . S
C554 C552 1.389 . S
C554 C555 1.524 . S
C554 C568 1.377 . S
C555 C554 1.524 . S
C555 C556 1.397 . S
C555 C560 1.363 . S
C556 H533 0.950 . S
C556 C555 1.397 . S
C556 C557 1.334 . S
C557 H534 0.950 . S
C557 C556 1.334 . S
C557 C558 1.287 . S
C558 C557 1.287 . S
C558 C559 1.524 . S
C558 H577 0.913 . S
C559 H535 0.950 . S
C559 C558 1.524 . S
C559 C560 1.415 . S
C560 H536 0.950 . S
C560 C555 1.363 . S
C560 C559 1.415 . S
C561 H537 0.951 . S
C561 C562 1.366 . S
C561 C563 1.388 . S
C562 C561 1.366 . S
C562 C566 1.385 . S
C563 H538 0.951 . S
C563 C561 1.388 . S
C563 C564 1.366 . S
C564 C563 1.366 . S
C564 C565 1.414 . S
C564 C567 1.499 . S
C565 H539 0.950 . S
C565 C564 1.414 . S
C565 C566 1.374 . S
C566 H540 0.950 . S
C566 C562 1.385 . S
C566 C565 1.374 . S
C567 C564 1.499 . S
C567 C568 1.373 . S
C567 C569 1.389 . S
C568 H541 0.950 . S
C568 C554 1.377 . S
C568 C567 1.373 . S
C569 C553 1.377 . S
C569 C567 1.389 . S
C569 C570 1.524 . S
C570 C569 1.524 . S
C570 C571 1.397 . S
C570 C575 1.363 . S
C571 H542 0.950 . S
C571 C570 1.397 . S
C571 C572 1.334 . S
C572 H543 0.950 . S
C572 C571 1.334 . S
C572 C573 1.287 . S
C573 C572 1.287 . S
C573 C574 1.524 . S
C573 H576 0.999 . S
C574 H544 0.950 . S
C574 C573 1.524 . S
C574 C575 1.415 . S
C575 H545 0.950 . S
C575 C570 1.363 . S
C575 C574 1.415 . S
H576 C573 0.999 . S
H577 C558 0.913 . S
H578 C596 0.951 . S
H579 C598 0.951 . S
H580 C600 0.950 . S
H581 C601 0.950 . S
H582 C603 0.950 . S
H583 C606 0.950 . S
H584 C607 0.950 . S
H585 C609 0.950 . S
H586 C610 0.950 . S
H587 C611 0.951 . S
H588 C613 0.951 . S
H589 C615 0.950 . S
H590 C616 0.950 . S
H591 C618 0.950 . S
H592 C621 0.950 . S
H593 C622 0.950 . S
H594 C624 0.950 . S
H595 C625 0.950 . S
C596 H578 0.951 . S
C596 C597 1.366 . S
C596 C598 1.388 . S
C597 C596 1.366 . S
C597 C601 1.385 . S
C598 H579 0.951 . S
C598 C596 1.388 . S
C598 C599 1.366 . S
C599 C598 1.366 . S
C599 C600 1.414 . S
C599 C602 1.499 . S
C600 H580 0.950 . S
C600 C599 1.414 . S
C600 C601 1.374 . S
C601 H581 0.950 . S
C601 C597 1.385 . S
C601 C600 1.374 . S
C602 C599 1.499 . S
C602 C603 1.373 . S
C602 C604 1.389 . S
C603 H582 0.950 . S
C603 C602 1.373 . S
C603 C619 1.377 . S
C604 C602 1.389 . S
C604 C605 1.524 . S
C604 C618 1.377 . S
C605 C604 1.524 . S
C605 C606 1.397 . S
C605 C610 1.363 . S
C606 H583 0.950 . S
C606 C605 1.397 . S
C606 C607 1.334 . S
C607 H584 0.950 . S
C607 C606 1.334 . S
C607 C608 1.287 . S
C608 C607 1.287 . S
C608 C609 1.524 . S
C608 H627 0.913 . S
C609 H585 0.950 . S
C609 C608 1.524 . S
C609 C610 1.415 . S
C610 H586 0.950 . S
C610 C605 1.363 . S
C610 C609 1.415 . S
C611 H587 0.951 . S
C611 C612 1.366 . S
C611 C613 1.388 . S
C612 C611 1.366 . S
C612 C616 1.385 . S
C613 H588 0.951 . S
C613 C611 1.388 . S
C613 C614 1.366 . S
C614 C613 1.366 . S
C614 C615 1.414 . S
C614 C617 1.499 . S
C615 H589 0.950 . S
C615 C614 1.414 . S
C615 C616 1.374 . S
C616 H590 0.950 . S
C616 C612 1.385 . S
C616 C615 1.374 . S
C617 C614 1.499 . S
C617 C618 1.373 . S
C617 C619 1.389 . S
C618 H591 0.950 . S
C618 C604 1.377 . S
C618 C617 1.373 . S
C619 C603 1.377 . S
C619 C617 1.389 . S
C619 C620 1.524 . S
C620 C619 1.524 . S
C620 C621 1.397 . S
C620 C625 1.363 . S
C621 H592 0.950 . S
C621 C620 1.397 . S
C621 C622 1.334 . S
C622 H593 0.950 . S
C622 C621 1.334 . S
C622 C623 1.287 . S
C623 C622 1.287 . S
C623 C624 1.524 . S
C623 H626 0.999 . S
C624 H594 0.950 . S
C624 C623 1.524 . S
C624 C625 1.415 . S
C625 H595 0.950 . S
C625 C620 1.363 . S
C625 C624 1.415 . S
H626 C623 0.999 . S
H627 C608 0.913 . S
H628 C646 0.951 . S
H629 C648 0.951 . S
H630 C650 0.950 . S
H631 C651 0.950 . S
H632 C653 0.950 . S
H633 C656 0.950 . S
H634 C657 0.950 . S
H635 C659 0.950 . S
H636 C660 0.950 . S
H637 C661 0.951 . S
H638 C663 0.951 . S
H639 C665 0.950 . S
H640 C666 0.950 . S
H641 C668 0.950 . S
H642 C671 0.950 . S
H643 C672 0.950 . S
H644 C674 0.950 . S
H645 C675 0.950 . S
C646 H628 0.951 . S
C646 C647 1.366 . S
C646 C648 1.388 . S
C647 C646 1.366 . S
C647 C651 1.385 . S
C648 H629 0.951 . S
C648 C646 1.388 . S
C648 C649 1.366 . S
C649 C648 1.366 . S
C649 C650 1.414 . S
C649 C652 1.499 . S
C650 H630 0.950 . S
C650 C649 1.414 . S
C650 C651 1.374 . S
C651 H631 0.950 . S
C651 C647 1.385 . S
C651 C650 1.374 . S
C652 C649 1.499 . S
C652 C653 1.373 . S
C652 C654 1.389 . S
C653 H632 0.950 . S
C653 C652 1.373 . S
C653 C669 1.377 . S
C654 C652 1.389 . S
C654 C655 1.524 . S
C654 C668 1.377 . S
C655 C654 1.524 . S
C655 C656 1.397 . S
C655 C660 1.363 . S
C656 H633 0.950 . S
C656 C655 1.397 . S
C656 C657 1.334 . S
C657 H634 0.950 . S
C657 C656 1.334 . S
C657 C658 1.287 . S
C658 C657 1.287 . S
C658 C659 1.524 . S
C658 H677 0.913 . S
C659 H635 0.950 . S
C659 C658 1.524 . S
C659 C660 1.415 . S
C660 H636 0.950 . S
C660 C655 1.363 . S
C660 C659 1.415 . S
C661 H637 0.951 . S
C661 C662 1.366 . S
C661 C663 1.388 . S
C662 C661 1.366 . S
C662 C666 1.385 . S
C663 H638 0.951 . S
C663 C661 1.388 . S
C663 C664 1.366 . S
C664 C663 1.366 . S
C664 C665 1.414 . S
C664 C667 1.499 . S
C665 H639 0.950 . S
C665 C664 1.414 . S
C665 C666 1.374 . S
C666 H640 0.950 . S
C666 C662 1.385 . S
C666 C665 1.374 . S
C667 C664 1.499 . S
C667 C668 1.373 . S
C667 C669 1.389 . S
C668 H641 0.950 . S
C668 C654 1.377 . S
C668 C667 1.373 . S
C669 C653 1.377 . S
C669 C667 1.389 . S
C669 C670 1.524 . S
C670 C669 1.524 . S
C670 C671 1.397 . S
C670 C675 1.363 . S
C671 H642 0.950 . S
C671 C670 1.397 . S
C671 C672 1.334 . S
C672 H643 0.950 . S
C672 C671 1.334 . S
C672 C673 1.287 . S
C673 C672 1.287 . S
C673 C674 1.524 . S
C673 H676 0.999 . S
C674 H644 0.950 . S
C674 C673 1.524 . S
C674 C675 1.415 . S
C675 H645 0.950 . S
C675 C670 1.363 . S
C675 C674 1.415 . S
H676 C673 0.999 . S
H677 C658 0.913 . S
H678 C696 0.951 . S
H679 C698 0.951 . S
H680 C700 0.950 . S
H681 C701 0.950 . S
H682 C703 0.950 . S
H683 C706 0.950 . S
H684 C707 0.950 . S
H685 C709 0.950 . S
H686 C710 0.950 . S
H687 C711 0.951 . S
H688 C713 0.951 . S
H689 C715 0.950 . S
H690 C716 0.950 . S
H691 C718 0.950 . S
H692 C721 0.950 . S
H693 C722 0.950 . S
H694 C724 0.950 . S
H695 C725 0.950 . S
C696 H678 0.951 . S
C696 C697 1.366 . S
C696 C698 1.388 . S
C697 C696 1.366 . S
C697 C701 1.385 . S
C698 H679 0.951 . S
C698 C696 1.388 . S
C698 C699 1.366 . S
C699 C698 1.366 . S
C699 C700 1.414 . S
C699 C702 1.499 . S
C700 H680 0.950 . S
C700 C699 1.414 . S
C700 C701 1.374 . S
C701 H681 0.950 . S
C701 C697 1.385 . S
C701 C700 1.374 . S
C702 C699 1.499 . S
C702 C703 1.373 . S
C702 C704 1.389 . S
C703 H682 0.950 . S
C703 C702 1.373 . S
C703 C719 1.377 . S
C704 C702 1.389 . S
C704 C705 1.524 . S
C704 C718 1.377 . S
C705 C704 1.524 . S
C705 C706 1.397 . S
C705 C710 1.363 . S
C706 H683 0.950 . S
C706 C705 1.397 . S
C706 C707 1.334 . S
C707 H684 0.950 . S
C707 C706 1.334 . S
C707 C708 1.287 . S
C708 C707 1.287 . S
C708 C709 1.524 . S
C708 H727 0.913 . S
C709 H685 0.950 . S
C709 C708 1.524 . S
C709 C710 1.415 . S
C710 H686 0.950 . S
C710 C705 1.363 . S
C710 C709 1.415 . S
C711 H687 0.951 . S
C711 C712 1.366 . S
C711 C713 1.388 . S
C712 C711 1.366 . S
C712 C716 1.385 . S
C713 H688 0.951 . S
C713 C711 1.388 . S
C713 C714 1.366 . S
C714 C713 1.366 . S
C714 C715 1.414 . S
C714 C717 1.499 . S
C715 H689 0.950 . S
C715 C714 1.414 . S
C715 C716 1.374 . S
C716 H690 0.950 . S
C716 C712 1.385 . S
C716 C715 1.374 . S
C717 C714 1.499 . S
C717 C718 1.373 . S
C717 C719 1.389 . S
C718 H691 0.950 . S
C718 C704 1.377 . S
C718 C717 1.373 . S
C719 C703 1.377 . S
C719 C717 1.389 . S
C719 C720 1.524 . S
C720 C719 1.524 . S
C720 C721 1.397 . S
C720 C725 1.363 . S
C721 H692 0.950 . S
C721 C720 1.397 . S
C721 C722 1.334 . S
C722 H693 0.950 . S
C722 C721 1.334 . S
C722 C723 1.287 . S
C723 C722 1.287 . S
C723 C724 1.524 . S
C723 H726 0.999 . S
C724 H694 0.950 . S
C724 C723 1.524 . S
C724 C725 1.415 . S
C725 H695 0.950 . S
C725 C720 1.363 . S
C725 C724 1.415 . S
H726 C723 0.999 . S
H727 C708 0.913 . S
H728 C746 0.951 . S
H729 C748 0.951 . S
H730 C750 0.950 . S
H731 C751 0.950 . S
H732 C753 0.950 . S
H733 C756 0.950 . S
H734 C757 0.950 . S
H735 C759 0.950 . S
H736 C760 0.950 . S
H737 C761 0.951 . S
H738 C763 0.951 . S
H739 C765 0.950 . S
H740 C766 0.950 . S
H741 C768 0.950 . S
H742 C771 0.950 . S
H743 C772 0.950 . S
H744 C774 0.950 . S
H745 C775 0.950 . S
C746 H728 0.951 . S
C746 C747 1.366 . S
C746 C748 1.388 . S
C747 C746 1.366 . S
C747 C751 1.385 . S
C748 H729 0.951 . S
C748 C746 1.388 . S
C748 C749 1.366 . S
C749 C748 1.366 . S
C749 C750 1.414 . S
C749 C752 1.499 . S
C750 H730 0.950 . S
C750 C749 1.414 . S
C750 C751 1.374 . S
C751 H731 0.950 . S
C751 C747 1.385 . S
C751 C750 1.374 . S
C752 C749 1.499 . S
C752 C753 1.373 . S
C752 C754 1.389 . S
C753 H732 0.950 . S
C753 C752 1.373 . S
C753 C769 1.377 . S
C754 C752 1.389 . S
C754 C755 1.524 . S
C754 C768 1.377 . S
C755 C754 1.524 . S
C755 C756 1.397 . S
C755 C760 1.363 . S
C756 H733 0.950 . S
C756 C755 1.397 . S
C756 C757 1.334 . S
C757 H734 0.950 . S
C757 C756 1.334 . S
C757 C758 1.287 . S
C758 C757 1.287 . S
C758 C759 1.524 . S
C758 H777 0.913 . S
C759 H735 0.950 . S
C759 C758 1.524 . S
C759 C760 1.415 . S
C760 H736 0.950 . S
C760 C755 1.363 . S
C760 C759 1.415 . S
C761 H737 0.951 . S
C761 C762 1.366 . S
C761 C763 1.388 . S
C762 C761 1.366 . S
C762 C766 1.385 . S
C763 H738 0.951 . S
C763 C761 1.388 . S
C763 C764 1.366 . S
C764 C763 1.366 . S
C764 C765 1.414 . S
C764 C767 1.499 . S
C765 H739 0.950 . S
C765 C764 1.414 . S
C765 C766 1.374 . S
C766 H740 0.950 . S
C766 C762 1.385 . S
C766 C765 1.374 . S
C767 C764 1.499 . S
C767 C768 1.373 . S
C767 C769 1.389 . S
C768 H741 0.950 . S
C768 C754 1.377 . S
C768 C767 1.373 . S
C769 C753 1.377 . S
C769 C767 1.389 . S
C769 C770 1.524 . S
C770 C769 1.524 . S
C770 C771 1.397 . S
C770 C775 1.363 . S
C771 H742 0.950 . S
C771 C770 1.397 . S
C771 C772 1.334 1_455 S
C772 H743 0.950 . S
C772 C771 1.334 1_655 S
C772 C773 1.287 . S
C773 C772 1.287 . S
C773 C774 1.524 1_655 S
C773 H776 0.999 . S
C774 H744 0.950 . S
C774 C773 1.524 1_455 S
C774 C775 1.415 . S
C775 H745 0.950 . S
C775 C770 1.363 . S
C775 C774 1.415 . S
H776 C773 0.999 . S
H777 C758 0.913 . S
H778 C796 0.951 . S
H779 C798 0.951 . S
H780 C800 0.950 . S
H781 C801 0.950 . S
H782 C803 0.950 . S
H783 C806 0.950 . S
H784 C807 0.950 . S
H785 C809 0.950 . S
H786 C810 0.950 . S
H787 C811 0.951 . S
H788 C813 0.951 . S
H789 C815 0.950 . S
H790 C816 0.950 . S
H791 C818 0.950 . S
H792 C821 0.950 . S
H793 C822 0.950 . S
H794 C824 0.950 . S
H795 C825 0.950 . S
C796 H778 0.951 . S
C796 C797 1.366 . S
C796 C798 1.388 . S
C797 C796 1.366 . S
C797 C801 1.385 . S
C798 H779 0.951 . S
C798 C796 1.388 . S
C798 C799 1.366 . S
C799 C798 1.366 . S
C799 C800 1.414 . S
C799 C802 1.499 . S
C800 H780 0.950 . S
C800 C799 1.414 . S
C800 C801 1.374 . S
C801 H781 0.950 . S
C801 C797 1.385 . S
C801 C800 1.374 . S
C802 C799 1.499 . S
C802 C803 1.373 . S
C802 C804 1.389 . S
C803 H782 0.950 . S
C803 C802 1.373 . S
C803 C819 1.377 . S
C804 C802 1.389 . S
C804 C805 1.524 . S
C804 C818 1.377 . S
C805 C804 1.524 . S
C805 C806 1.397 . S
C805 C810 1.363 . S
C806 H783 0.950 . S
C806 C805 1.397 . S
C806 C807 1.334 . S
C807 H784 0.950 . S
C807 C806 1.334 . S
C807 C808 1.287 . S
C808 C807 1.287 . S
C808 C809 1.524 . S
C808 H827 0.913 . S
C809 H785 0.950 . S
C809 C808 1.524 . S
C809 C810 1.415 . S
C810 H786 0.950 . S
C810 C805 1.363 . S
C810 C809 1.415 . S
C811 H787 0.951 . S
C811 C812 1.366 . S
C811 C813 1.388 . S
C812 C811 1.366 . S
C812 C816 1.385 . S
C813 H788 0.951 . S
C813 C811 1.388 . S
C813 C814 1.366 . S
C814 C813 1.366 . S
C814 C815 1.414 . S
C814 C817 1.499 . S
C815 H789 0.950 . S
C815 C814 1.414 . S
C815 C816 1.374 . S
C816 H790 0.950 . S
C816 C812 1.385 . S
C816 C815 1.374 . S
C817 C814 1.499 . S
C817 C818 1.373 . S
C817 C819 1.389 . S
C818 H791 0.950 . S
C818 C804 1.377 . S
C818 C817 1.373 . S
C819 C803 1.377 . S
C819 C817 1.389 . S
C819 C820 1.524 . S
C820 C819 1.524 . S
C820 C821 1.397 . S
C820 C825 1.363 . S
C821 H792 0.950 . S
C821 C820 1.397 . S
C821 C822 1.334 . S
C822 H793 0.950 . S
C822 C821 1.334 . S
C822 C823 1.287 . S
C823 C822 1.287 . S
C823 C824 1.524 . S
C823 H826 0.999 . S
C824 H794 0.950 . S
C824 C823 1.524 . S
C824 C825 1.415 . S
C825 H795 0.950 . S
C825 C820 1.363 . S
C825 C824 1.415 . S
H826 C823 0.999 . S
H827 C808 0.913 . S
H828 C846 0.951 . S
H829 C848 0.951 . S
H830 C850 0.950 . S
H831 C851 0.950 . S
H832 C853 0.950 . S
H833 C856 0.950 . S
H834 C857 0.950 . S
H835 C859 0.950 . S
H836 C860 0.950 . S
H837 C861 0.951 . S
H838 C863 0.951 . S
H839 C865 0.950 . S
H840 C866 0.950 . S
H841 C868 0.950 . S
H842 C871 0.950 . S
H843 C872 0.950 . S
H844 C874 0.950 . S
H845 C875 0.950 . S
C846 H828 0.951 . S
C846 C847 1.366 . S
C846 C848 1.388 1_556 S
C847 C846 1.366 . S
C847 C851 1.385 1_556 S
C848 H829 0.951 . S
C848 C846 1.388 1_554 S
C848 C849 1.366 . S
C849 C848 1.366 . S
C849 C850 1.414 . S
C849 C852 1.499 . S
C850 H830 0.950 . S
C850 C849 1.414 . S
C850 C851 1.374 . S
C851 H831 0.950 . S
C851 C847 1.385 1_554 S
C851 C850 1.374 . S
C852 C849 1.499 . S
C852 C853 1.373 . S
C852 C854 1.389 . S
C853 H832 0.950 . S
C853 C852 1.373 . S
C853 C869 1.377 . S
C854 C852 1.389 . S
C854 C855 1.524 . S
C854 C868 1.377 . S
C855 C854 1.524 . S
C855 C856 1.397 . S
C855 C860 1.363 . S
C856 H833 0.950 . S
C856 C855 1.397 . S
C856 C857 1.334 . S
C857 H834 0.950 . S
C857 C856 1.334 . S
C857 C858 1.287 . S
C858 C857 1.287 . S
C858 C859 1.524 . S
C858 H877 0.913 . S
C859 H835 0.950 . S
C859 C858 1.524 . S
C859 C860 1.415 . S
C860 H836 0.950 . S
C860 C855 1.363 . S
C860 C859 1.415 . S
C861 H837 0.951 . S
C861 C862 1.366 . S
C861 C863 1.388 . S
C862 C861 1.366 . S
C862 C866 1.385 . S
C863 H838 0.951 . S
C863 C861 1.388 . S
C863 C864 1.366 . S
C864 C863 1.366 . S
C864 C865 1.414 . S
C864 C867 1.499 . S
C865 H839 0.950 . S
C865 C864 1.414 . S
C865 C866 1.374 . S
C866 H840 0.950 . S
C866 C862 1.385 . S
C866 C865 1.374 . S
C867 C864 1.499 . S
C867 C868 1.373 . S
C867 C869 1.389 . S
C868 H841 0.950 . S
C868 C854 1.377 . S
C868 C867 1.373 . S
C869 C853 1.377 . S
C869 C867 1.389 . S
C869 C870 1.524 . S
C870 C869 1.524 . S
C870 C871 1.397 . S
C870 C875 1.363 . S
C871 H842 0.950 . S
C871 C870 1.397 . S
C871 C872 1.334 . S
C872 H843 0.950 . S
C872 C871 1.334 . S
C872 C873 1.287 . S
C873 C872 1.287 . S
C873 C874 1.524 . S
C873 H876 0.999 . S
C874 H844 0.950 . S
C874 C873 1.524 . S
C874 C875 1.415 . S
C875 H845 0.950 . S
C875 C870 1.363 . S
C875 C874 1.415 . S
H876 C873 0.999 . S
H877 C858 0.913 . S
H878 C896 0.951 . S
H879 C898 0.951 . S
H880 C900 0.950 . S
H881 C901 0.950 . S
H882 C903 0.950 . S
H883 C906 0.950 . S
H884 C907 0.950 . S
H885 C909 0.950 . S
H886 C910 0.950 . S
H887 C911 0.951 . S
H888 C913 0.951 . S
H889 C915 0.950 . S
H890 C916 0.950 . S
H891 C918 0.950 . S
H892 C921 0.950 . S
H893 C922 0.950 . S
H894 C924 0.950 . S
H895 C925 0.950 . S
C896 H878 0.951 . S
C896 C897 1.366 . S
C896 C898 1.388 . S
C897 C896 1.366 . S
C897 C901 1.385 . S
C898 H879 0.951 . S
C898 C896 1.388 . S
C898 C899 1.366 . S
C899 C898 1.366 . S
C899 C900 1.414 . S
C899 C902 1.499 . S
C900 H880 0.950 . S
C900 C899 1.414 . S
C900 C901 1.374 . S
C901 H881 0.950 . S
C901 C897 1.385 . S
C901 C900 1.374 . S
C902 C899 1.499 . S
C902 C903 1.373 . S
C902 C904 1.389 . S
C903 H882 0.950 . S
C903 C902 1.373 . S
C903 C919 1.377 . S
C904 C902 1.389 . S
C904 C905 1.524 . S
C904 C918 1.377 . S
C905 C904 1.524 . S
C905 C906 1.397 . S
C905 C910 1.363 . S
C906 H883 0.950 . S
C906 C905 1.397 . S
C906 C907 1.334 . S
C907 H884 0.950 . S
C907 C906 1.334 . S
C907 C908 1.287 . S
C908 C907 1.287 . S
C908 C909 1.524 . S
C908 H927 0.913 . S
C909 H885 0.950 . S
C909 C908 1.524 . S
C909 C910 1.415 . S
C910 H886 0.950 . S
C910 C905 1.363 . S
C910 C909 1.415 . S
C911 H887 0.951 . S
C911 C912 1.366 . S
C911 C913 1.388 . S
C912 C911 1.366 . S
C912 C916 1.385 . S
C913 H888 0.951 . S
C913 C911 1.388 . S
C913 C914 1.366 . S
C914 C913 1.366 . S
C914 C915 1.414 . S
C914 C917 1.499 . S
C915 H889 0.950 . S
C915 C914 1.414 . S
C915 C916 1.374 . S
C916 H890 0.950 . S
C916 C912 1.385 . S
C916 C915 1.374 . S
C917 C914 1.499 . S
C917 C918 1.373 . S
C917 C919 1.389 . S
C918 H891 0.950 . S
C918 C904 1.377 . S
C918 C917 1.373 . S
C919 C903 1.377 . S
C919 C917 1.389 . S
C919 C920 1.524 . S
C920 C919 1.524 . S
C920 C921 1.397 . S
C920 C925 1.363 . S
C921 H892 0.950 . S
C921 C920 1.397 . S
C921 C922 1.334 . S
C922 H893 0.950 . S
C922 C921 1.334 . S
C922 C923 1.287 . S
C923 C922 1.287 . S
C923 C924 1.524 . S
C923 H926 0.999 . S
C924 H894 0.950 . S
C924 C923 1.524 . S
C924 C925 1.415 . S
C925 H895 0.950 . S
C925 C920 1.363 . S
C925 C924 1.415 . S
H926 C923 0.999 . S
H927 C908 0.913 . S
H928 C946 0.951 . S
H929 C948 0.951 . S
H930 C950 0.950 . S
H931 C951 0.950 . S
H932 C953 0.950 . S
H933 C956 0.950 . S
H934 C957 0.950 1_455 S
H935 C959 0.955 . S
H936 C960 0.950 . S
H937 C961 0.951 . S
H938 C963 0.951 . S
H939 C965 0.950 . S
H940 C966 0.950 . S
H941 C968 0.950 . S
H942 C971 0.950 . S
H943 C972 0.950 . S
H944 C974 0.950 . S
H945 C975 0.950 . S
C946 H928 0.951 . S
C946 C947 1.366 . S
C946 C948 1.388 . S
C947 C946 1.366 . S
C947 C951 1.385 . S
C948 H929 0.951 . S
C948 C946 1.388 . S
C948 C949 1.366 1_455 S
C949 C948 1.366 1_655 S
C949 C950 1.414 . S
C949 C952 1.499 . S
C950 H930 0.950 . S
C950 C949 1.414 . S
C950 C951 1.374 1_655 S
C951 H931 0.950 . S
C951 C947 1.385 . S
C951 C950 1.374 1_455 S
C952 C949 1.499 . S
C952 C953 1.373 . S
C952 C954 1.389 . S
C953 H932 0.950 . S
C953 C952 1.373 . S
C953 C969 1.377 . S
C954 C952 1.389 . S
C954 C955 1.524 . S
C954 C968 1.377 . S
C955 C954 1.524 . S
C955 C956 1.397 1_545 S
C955 C960 1.363 . S
C956 H933 0.950 . S
C956 C955 1.397 1_565 S
C956 C957 1.334 . S
C957 H934 0.950 1_655 S
C957 C956 1.334 . S
C957 C958 1.287 1_655 S
C958 C957 1.287 1_455 S
C958 C959 1.529 1_565 S
C958 H977 0.913 . S
C959 H935 0.955 . S
C959 C958 1.529 1_545 S
C959 C960 1.404 1_455 S
C960 H936 0.950 . S
C960 C955 1.363 . S
C960 C959 1.404 1_655 S
C961 H937 0.951 . S
C961 C962 1.366 . S
C961 C963 1.388 . S
C962 C961 1.366 . S
C962 C966 1.385 . S
C963 H938 0.951 . S
C963 C961 1.388 . S
C963 C964 1.366 . S
C964 C963 1.366 . S
C964 C965 1.414 . S
C964 C967 1.499 . S
C965 H939 0.950 . S
C965 C964 1.414 . S
C965 C966 1.374 . S
C966 H940 0.950 . S
C966 C962 1.385 . S
C966 C965 1.374 . S
C967 C964 1.499 . S
C967 C968 1.373 . S
C967 C969 1.389 . S
C968 H941 0.950 . S
C968 C954 1.377 . S
C968 C967 1.373 . S
C969 C953 1.377 . S
C969 C967 1.389 . S
C969 C970 1.524 . S
C970 C969 1.524 . S
C970 C971 1.397 . S
C970 C975 1.363 . S
C971 H942 0.950 . S
C971 C970 1.397 . S
C971 C972 1.334 . S
C972 H943 0.950 . S
C972 C971 1.334 . S
C972 C973 1.287 . S
C973 C972 1.287 . S
C973 C974 1.524 . S
C973 H976 0.999 . S
C974 H944 0.950 . S
C974 C973 1.524 . S
C974 C975 1.415 . S
C975 H945 0.950 . S
C975 C970 1.363 . S
C975 C974 1.415 . S
H976 C973 0.999 . S
H977 C958 0.913 . S
H978 C996 0.951 . S
H979 C998 0.951 . S
H980 C1000 0.950 . S
H981 C1001 0.950 . S
H982 C1003 0.950 . S
H983 C1006 0.950 . S
H984 C1007 0.950 . S
H985 C1009 0.950 . S
H986 C1010 0.950 . S
H987 C1011 0.951 . S
H988 C1013 0.951 . S
H989 C1015 0.950 . S
H990 C1016 0.950 . S
H991 C1018 0.950 . S
H992 C1021 0.950 . S
H993 C1022 0.950 . S
H994 C1024 0.950 . S
H995 C1025 0.950 . S
C996 H978 0.951 . S
C996 C997 1.366 . S
C996 C998 1.388 . S
C997 C996 1.366 . S
C997 C1001 1.385 . S
C998 H979 0.951 . S
C998 C996 1.388 . S
C998 C999 1.366 . S
C999 C998 1.366 . S
C999 C1000 1.414 . S
C999 C1002 1.499 . S
C1000 H980 0.950 . S
C1000 C999 1.414 . S
C1000 C1001 1.374 . S
C1001 H981 0.950 . S
C1001 C997 1.385 . S
C1001 C1000 1.374 . S
C1002 C999 1.499 . S
C1002 C1003 1.373 . S
C1002 C1004 1.389 . S
C1003 H982 0.950 . S
C1003 C1002 1.373 . S
C1003 C1019 1.377 . S
C1004 C1002 1.389 . S
C1004 C1005 1.524 . S
C1004 C1018 1.377 . S
C1005 C1004 1.524 . S
C1005 C1006 1.397 . S
C1005 C1010 1.363 . S
C1006 H983 0.950 . S
C1006 C1005 1.397 . S
C1006 C1007 1.334 . S
C1007 H984 0.950 . S
C1007 C1006 1.334 . S
C1007 C1008 1.287 . S
C1008 C1007 1.287 . S
C1008 C1009 1.524 . S
C1008 H1027 0.913 . S
C1009 H985 0.950 . S
C1009 C1008 1.524 . S
C1009 C1010 1.415 . S
C1010 H986 0.950 . S
C1010 C1005 1.363 . S
C1010 C1009 1.415 . S
C1011 H987 0.951 . S
C1011 C1012 1.366 . S
C1011 C1013 1.388 . S
C1012 C1011 1.366 . S
C1012 C1016 1.385 . S
C1013 H988 0.951 . S
C1013 C1011 1.388 . S
C1013 C1014 1.366 . S
C1014 C1013 1.366 . S
C1014 C1015 1.414 . S
C1014 C1017 1.499 . S
C1015 H989 0.950 . S
C1015 C1014 1.414 . S
C1015 C1016 1.374 . S
C1016 H990 0.950 . S
C1016 C1012 1.385 . S
C1016 C1015 1.374 . S
C1017 C1014 1.499 . S
C1017 C1018 1.373 . S
C1017 C1019 1.389 . S
C1018 H991 0.950 . S
C1018 C1004 1.377 . S
C1018 C1017 1.373 . S
C1019 C1003 1.377 . S
C1019 C1017 1.389 . S
C1019 C1020 1.524 . S
C1020 C1019 1.524 . S
C1020 C1021 1.397 . S
C1020 C1025 1.363 . S
C1021 H992 0.950 . S
C1021 C1020 1.397 . S
C1021 C1022 1.334 . S
C1022 H993 0.950 . S
C1022 C1021 1.334 . S
C1022 C1023 1.287 . S
C1023 C1022 1.287 . S
C1023 C1024 1.524 . S
C1023 H1026 0.999 . S
C1024 H994 0.950 . S
C1024 C1023 1.524 . S
C1024 C1025 1.415 . S
C1025 H995 0.950 . S
C1025 C1020 1.363 . S
C1025 C1024 1.415 . S
H1026 C1023 0.999 . S
H1027 C1008 0.913 . S
H1028 C1046 0.951 . S
H1029 C1048 0.951 . S
H1030 C1050 0.950 . S
H1031 C1051 0.950 . S
H1032 C1053 0.950 . S
H1033 C1056 0.950 . S
H1034 C1057 0.950 . S
H1035 C1059 0.950 . S
H1036 C1060 0.950 . S
H1037 C1061 0.951 . S
H1038 C1063 0.951 . S
H1039 C1065 0.950 . S
H1040 C1066 0.950 . S
H1041 C1068 0.950 . S
H1042 C1071 0.950 . S
H1043 C1072 0.950 1_545 S
H1044 C1074 0.950 1_554 S
H1045 C1075 0.950 . S
C1046 H1028 0.951 . S
C1046 C1047 1.366 . S
C1046 C1048 1.388 . S
C1047 C1046 1.366 . S
C1047 C1051 1.385 . S
C1048 H1029 0.951 . S
C1048 C1046 1.388 . S
C1048 C1049 1.366 . S
C1049 C1048 1.366 . S
C1049 C1050 1.414 . S
C1049 C1052 1.499 . S
C1050 H1030 0.950 . S
C1050 C1049 1.414 . S
C1050 C1051 1.374 . S
C1051 H1031 0.950 . S
C1051 C1047 1.385 . S
C1051 C1050 1.374 . S
C1052 C1049 1.499 . S
C1052 C1053 1.373 . S
C1052 C1054 1.389 . S
C1053 H1032 0.950 . S
C1053 C1052 1.373 . S
C1053 C1069 1.377 . S
C1054 C1052 1.389 . S
C1054 C1055 1.524 . S
C1054 C1068 1.377 . S
C1055 C1054 1.524 . S
C1055 C1056 1.397 . S
C1055 C1060 1.363 . S
C1056 H1033 0.950 . S
C1056 C1055 1.397 . S
C1056 C1057 1.334 . S
C1057 H1034 0.950 . S
C1057 C1056 1.334 . S
C1057 C1058 1.287 . S
C1058 C1057 1.287 . S
C1058 C1059 1.524 . S
C1058 H1077 0.913 . S
C1059 H1035 0.950 . S
C1059 C1058 1.524 . S
C1059 C1060 1.415 . S
C1060 H1036 0.950 . S
C1060 C1055 1.363 . S
C1060 C1059 1.415 . S
C1061 H1037 0.951 . S
C1061 C1062 1.366 . S
C1061 C1063 1.388 . S
C1062 C1061 1.366 . S
C1062 C1066 1.385 . S
C1063 H1038 0.951 . S
C1063 C1061 1.388 . S
C1063 C1064 1.366 . S
C1064 C1063 1.366 . S
C1064 C1065 1.414 . S
C1064 C1067 1.499 . S
C1065 H1039 0.950 . S
C1065 C1064 1.414 . S
C1065 C1066 1.374 . S
C1066 H1040 0.950 . S
C1066 C1062 1.385 . S
C1066 C1065 1.374 . S
C1067 C1064 1.499 . S
C1067 C1068 1.373 . S
C1067 C1069 1.389 . S
C1068 H1041 0.950 . S
C1068 C1054 1.377 . S
C1068 C1067 1.373 . S
C1069 C1053 1.377 . S
C1069 C1067 1.389 . S
C1069 C1070 1.524 . S
C1070 C1069 1.524 . S
C1070 C1071 1.397 . S
C1070 C1075 1.363 . S
C1071 H1042 0.950 . S
C1071 C1070 1.397 . S
C1071 C1072 1.334 . S
C1072 H1043 0.950 1_565 S
C1072 C1071 1.334 . S
C1072 C1073 1.287 1_556 S
C1073 C1072 1.287 1_554 S
C1073 C1074 1.524 1_554 S
C1073 H1076 0.999 . S
C1074 H1044 0.950 1_556 S
C1074 C1073 1.524 1_556 S
C1074 C1075 1.415 . S
C1075 H1045 0.950 . S
C1075 C1070 1.363 . S
C1075 C1074 1.415 . S
H1076 C1073 0.999 . S
H1077 C1058 0.913 . S
H1078 C1096 0.951 . S
H1079 C1098 0.951 . S
H1080 C1100 0.950 . S
H1081 C1101 0.950 . S
H1082 C1103 0.950 . S
H1083 C1106 0.950 . S
H1084 C1107 0.950 . S
H1085 C1109 0.950 . S
H1086 C1110 0.950 . S
H1087 C1111 0.951 . S
H1088 C1113 0.951 . S
H1089 C1115 0.950 . S
H1090 C1116 0.950 . S
H1091 C1118 0.950 . S
H1092 C1121 0.950 . S
H1093 C1122 0.950 . S
H1094 C1124 0.950 . S
H1095 C1125 0.950 . S
C1096 H1078 0.951 . S
C1096 C1097 1.366 . S
C1096 C1098 1.388 . S
C1097 C1096 1.366 . S
C1097 C1101 1.385 . S
C1098 H1079 0.951 . S
C1098 C1096 1.388 . S
C1098 C1099 1.366 . S
C1099 C1098 1.366 . S
C1099 C1100 1.414 . S
C1099 C1102 1.499 . S
C1100 H1080 0.950 . S
C1100 C1099 1.414 . S
C1100 C1101 1.374 . S
C1101 H1081 0.950 . S
C1101 C1097 1.385 . S
C1101 C1100 1.374 . S
C1102 C1099 1.499 . S
C1102 C1103 1.373 . S
C1102 C1104 1.389 . S
C1103 H1082 0.950 . S
C1103 C1102 1.373 . S
C1103 C1119 1.377 . S
C1104 C1102 1.389 . S
C1104 C1105 1.524 . S
C1104 C1118 1.377 . S
C1105 C1104 1.524 . S
C1105 C1106 1.397 . S
C1105 C1110 1.363 . S
C1106 H1083 0.950 . S
C1106 C1105 1.397 . S
C1106 C1107 1.334 . S
C1107 H1084 0.950 . S
C1107 C1106 1.334 . S
C1107 C1108 1.287 . S
C1108 C1107 1.287 . S
C1108 C1109 1.524 . S
C1108 H1127 0.913 . S
C1109 H1085 0.950 . S
C1109 C1108 1.524 . S
C1109 C1110 1.415 . S
C1110 H1086 0.950 . S
C1110 C1105 1.363 . S
C1110 C1109 1.415 . S
C1111 H1087 0.951 . S
C1111 C1112 1.366 . S
C1111 C1113 1.388 . S
C1112 C1111 1.366 . S
C1112 C1116 1.385 . S
C1113 H1088 0.951 . S
C1113 C1111 1.388 . S
C1113 C1114 1.366 . S
C1114 C1113 1.366 . S
C1114 C1115 1.414 . S
C1114 C1117 1.499 . S
C1115 H1089 0.950 . S
C1115 C1114 1.414 . S
C1115 C1116 1.374 . S
C1116 H1090 0.950 . S
C1116 C1112 1.385 . S
C1116 C1115 1.374 . S
C1117 C1114 1.499 . S
C1117 C1118 1.373 . S
C1117 C1119 1.389 . S
C1118 H1091 0.950 . S
C1118 C1104 1.377 . S
C1118 C1117 1.373 . S
C1119 C1103 1.377 . S
C1119 C1117 1.389 . S
C1119 C1120 1.524 . S
C1120 C1119 1.524 . S
C1120 C1121 1.397 . S
C1120 C1125 1.363 . S
C1121 H1092 0.950 . S
C1121 C1120 1.397 . S
C1121 C1122 1.334 . S
C1122 H1093 0.950 . S
C1122 C1121 1.334 . S
C1122 C1123 1.287 . S
C1123 C1122 1.287 . S
C1123 C1124 1.524 . S
C1123 H1126 0.999 . S
C1124 H1094 0.950 . S
C1124 C1123 1.524 . S
C1124 C1125 1.415 . S
C1125 H1095 0.950 . S
C1125 C1120 1.363 . S
C1125 C1124 1.415 . S
H1126 C1123 0.999 . S
H1127 C1108 0.913 . S
H1128 C1146 0.951 . S
H1129 C1148 0.951 . S
H1130 C1150 0.950 1_655 S
H1131 C1151 0.950 . S
H1132 C1153 0.950 . S
H1133 C1156 0.950 1_655 S
H1134 C1157 0.950 . S
H1135 C1159 0.954 . S
H1136 C1160 0.950 . S
H1137 C1161 0.951 . S
H1138 C1163 0.951 . S
H1139 C1165 0.950 . S
H1140 C1166 0.950 . S
H1141 C1168 0.950 . S
H1142 C1171 0.950 . S
H1143 C1172 0.950 . S
H1144 C1174 0.950 . S
H1145 C1175 0.950 . S
C1146 H1128 0.951 . S
C1146 C1147 1.366 . S
C1146 C1148 1.388 . S
C1147 C1146 1.366 . S
C1147 C1151 1.385 . S
C1148 H1129 0.951 . S
C1148 C1146 1.388 . S
C1148 C1149 1.366 . S
C1149 C1148 1.366 . S
C1149 C1150 1.414 . S
C1149 C1152 1.499 1_455 S
C1150 H1130 0.950 1_455 S
C1150 C1149 1.414 . S
C1150 C1151 1.374 . S
C1151 H1131 0.950 . S
C1151 C1147 1.385 . S
C1151 C1150 1.374 . S
C1152 C1149 1.499 1_655 S
C1152 C1153 1.373 . S
C1152 C1154 1.389 . S
C1153 H1132 0.950 . S
C1153 C1152 1.373 . S
C1153 C1169 1.377 . S
C1154 C1152 1.389 . S
C1154 C1155 1.524 . S
C1154 C1168 1.377 . S
C1155 C1154 1.524 . S
C1155 C1156 1.397 1_665 S
C1155 C1160 1.363 1_655 S
C1156 H1133 0.950 1_455 S
C1156 C1155 1.397 1_445 S
C1156 C1157 1.334 . S
C1157 H1134 0.950 . S
C1157 C1156 1.334 . S
C1157 C1158 1.287 . S
C1158 C1157 1.287 . S
C1158 C1159 1.524 . S
C1158 H1177 0.913 . S
C1159 H1135 0.954 . S
C1159 C1158 1.524 . S
C1159 C1160 1.415 1_545 S
C1160 H1136 0.950 . S
C1160 C1155 1.363 1_455 S
C1160 C1159 1.415 1_565 S
C1161 H1137 0.951 . S
C1161 C1162 1.366 . S
C1161 C1163 1.388 . S
C1162 C1161 1.366 . S
C1162 C1166 1.385 . S
C1163 H1138 0.951 . S
C1163 C1161 1.388 . S
C1163 C1164 1.366 . S
C1164 C1163 1.366 . S
C1164 C1165 1.414 . S
C1164 C1167 1.499 . S
C1165 H1139 0.950 . S
C1165 C1164 1.414 . S
C1165 C1166 1.374 . S
C1166 H1140 0.950 . S
C1166 C1162 1.385 . S
C1166 C1165 1.374 . S
C1167 C1164 1.499 . S
C1167 C1168 1.373 . S
C1167 C1169 1.389 . S
C1168 H1141 0.950 . S
C1168 C1154 1.377 . S
C1168 C1167 1.373 . S
C1169 C1153 1.377 . S
C1169 C1167 1.389 . S
C1169 C1170 1.524 . S
C1170 C1169 1.524 . S
C1170 C1171 1.397 . S
C1170 C1175 1.363 . S
C1171 H1142 0.950 . S
C1171 C1170 1.397 . S
C1171 C1172 1.334 . S
C1172 H1143 0.950 . S
C1172 C1171 1.334 . S
C1172 C1173 1.287 . S
C1173 C1172 1.287 . S
C1173 C1174 1.524 . S
C1173 H1176 0.999 . S
C1174 H1144 0.950 . S
C1174 C1173 1.524 . S
C1174 C1175 1.415 . S
C1175 H1145 0.950 . S
C1175 C1170 1.363 . S
C1175 C1174 1.415 . S
H1176 C1173 0.999 . S
H1177 C1158 0.913 . S
H1178 C1196 0.951 . S
H1179 C1198 0.951 . S
H1180 C1200 0.950 . S
H1181 C1201 0.950 . S
H1182 C1203 0.950 . S
H1183 C1206 0.950 . S
H1184 C1207 0.950 . S
H1185 C1209 0.950 . S
H1186 C1210 0.950 . S
H1187 C1211 0.951 . S
H1188 C1213 0.951 . S
H1189 C1215 0.950 . S
H1190 C1216 0.950 . S
H1191 C1218 0.950 . S
H1192 C1221 0.950 . S
H1193 C1222 0.950 . S
H1194 C1224 0.950 . S
H1195 C1225 0.950 . S
C1196 H1178 0.951 . S
C1196 C1197 1.366 . S
C1196 C1198 1.388 . S
C1197 C1196 1.366 . S
C1197 C1201 1.385 . S
C1198 H1179 0.951 . S
C1198 C1196 1.388 . S
C1198 C1199 1.366 . S
C1199 C1198 1.366 . S
C1199 C1200 1.414 . S
C1199 C1202 1.499 . S
C1200 H1180 0.950 . S
C1200 C1199 1.414 . S
C1200 C1201 1.374 . S
C1201 H1181 0.950 . S
C1201 C1197 1.385 . S
C1201 C1200 1.374 . S
C1202 C1199 1.499 . S
C1202 C1203 1.373 . S
C1202 C1204 1.389 . S
C1203 H1182 0.950 . S
C1203 C1202 1.373 . S
C1203 C1219 1.377 . S
C1204 C1202 1.389 . S
C1204 C1205 1.524 . S
C1204 C1218 1.377 . S
C1205 C1204 1.524 . S
C1205 C1206 1.397 . S
C1205 C1210 1.363 . S
C1206 H1183 0.950 . S
C1206 C1205 1.397 . S
C1206 C1207 1.334 . S
C1207 H1184 0.950 . S
C1207 C1206 1.334 . S
C1207 C1208 1.287 . S
C1208 C1207 1.287 . S
C1208 C1209 1.524 . S
C1208 H1227 0.913 . S
C1209 H1185 0.950 . S
C1209 C1208 1.524 . S
C1209 C1210 1.415 . S
C1210 H1186 0.950 . S
C1210 C1205 1.363 . S
C1210 C1209 1.415 . S
C1211 H1187 0.951 . S
C1211 C1212 1.366 . S
C1211 C1213 1.388 . S
C1212 C1211 1.366 . S
C1212 C1216 1.385 . S
C1213 H1188 0.951 . S
C1213 C1211 1.388 . S
C1213 C1214 1.366 . S
C1214 C1213 1.366 . S
C1214 C1215 1.414 . S
C1214 C1217 1.499 . S
C1215 H1189 0.950 . S
C1215 C1214 1.414 . S
C1215 C1216 1.374 . S
C1216 H1190 0.950 . S
C1216 C1212 1.385 . S
C1216 C1215 1.374 . S
C1217 C1214 1.499 . S
C1217 C1218 1.373 . S
C1217 C1219 1.389 . S
C1218 H1191 0.950 . S
C1218 C1204 1.377 . S
C1218 C1217 1.373 . S
C1219 C1203 1.377 . S
C1219 C1217 1.389 . S
C1219 C1220 1.524 . S
C1220 C1219 1.524 . S
C1220 C1221 1.397 . S
C1220 C1225 1.363 . S
C1221 H1192 0.950 . S
C1221 C1220 1.397 . S
C1221 C1222 1.334 . S
C1222 H1193 0.950 . S
C1222 C1221 1.334 . S
C1222 C1223 1.287 . S
C1223 C1222 1.287 . S
C1223 C1224 1.524 . S
C1223 H1226 0.999 . S
C1224 H1194 0.950 . S
C1224 C1223 1.524 . S
C1224 C1225 1.415 . S
C1225 H1195 0.950 . S
C1225 C1220 1.363 . S
C1225 C1224 1.415 . S
H1226 C1223 0.999 . S
H1227 C1208 0.913 . S
H1228 C1246 0.951 . S
H1229 C1248 0.951 . S
H1230 C1250 0.950 . S
H1231 C1251 0.950 . S
H1232 C1253 0.950 . S
H1233 C1256 0.950 . S
H1234 C1257 0.950 . S
H1235 C1259 0.950 . S
H1236 C1260 0.950 . S
H1237 C1261 0.951 . S
H1238 C1263 0.951 . S
H1239 C1265 0.950 . S
H1240 C1266 0.950 . S
H1241 C1268 0.950 . S
H1242 C1271 0.949 1_565 S
H1243 C1272 0.950 . S
H1244 C1274 0.950 . S
H1245 C1275 0.950 . S
C1246 H1228 0.951 . S
C1246 C1247 1.366 . S
C1246 C1248 1.388 . S
C1247 C1246 1.366 . S
C1247 C1251 1.385 . S
C1248 H1229 0.951 . S
C1248 C1246 1.388 . S
C1248 C1249 1.366 . S
C1249 C1248 1.366 . S
C1249 C1250 1.414 . S
C1249 C1252 1.499 . S
C1250 H1230 0.950 . S
C1250 C1249 1.414 . S
C1250 C1251 1.374 . S
C1251 H1231 0.950 . S
C1251 C1247 1.385 . S
C1251 C1250 1.374 . S
C1252 C1249 1.499 . S
C1252 C1253 1.373 . S
C1252 C1254 1.389 . S
C1253 H1232 0.950 . S
C1253 C1252 1.373 . S
C1253 C1269 1.377 . S
C1254 C1252 1.389 . S
C1254 C1255 1.524 . S
C1254 C1268 1.377 . S
C1255 C1254 1.524 . S
C1255 C1256 1.397 . S
C1255 C1260 1.363 . S
C1256 H1233 0.950 . S
C1256 C1255 1.397 . S
C1256 C1257 1.334 . S
C1257 H1234 0.950 . S
C1257 C1256 1.334 . S
C1257 C1258 1.287 . S
C1258 C1257 1.287 . S
C1258 C1259 1.524 . S
C1258 H1277 0.913 . S
C1259 H1235 0.950 . S
C1259 C1258 1.524 . S
C1259 C1260 1.415 . S
C1260 H1236 0.950 . S
C1260 C1255 1.363 . S
C1260 C1259 1.415 . S
C1261 H1237 0.951 . S
C1261 C1262 1.366 . S
C1261 C1263 1.388 . S
C1262 C1261 1.366 . S
C1262 C1266 1.385 . S
C1263 H1238 0.951 . S
C1263 C1261 1.388 . S
C1263 C1264 1.366 . S
C1264 C1263 1.366 . S
C1264 C1265 1.414 . S
C1264 C1267 1.499 . S
C1265 H1239 0.950 . S
C1265 C1264 1.414 . S
C1265 C1266 1.374 . S
C1266 H1240 0.950 . S
C1266 C1262 1.385 . S
C1266 C1265 1.374 . S
C1267 C1264 1.499 . S
C1267 C1268 1.373 . S
C1267 C1269 1.389 . S
C1268 H1241 0.950 . S
C1268 C1254 1.377 . S
C1268 C1267 1.373 . S
C1269 C1253 1.377 . S
C1269 C1267 1.389 . S
C1269 C1270 1.524 . S
C1270 C1269 1.524 . S
C1270 C1271 1.398 . S
C1270 C1275 1.363 . S
C1271 H1242 0.949 1_545 S
C1271 C1270 1.398 . S
C1271 C1272 1.333 1_545 S
C1272 H1243 0.950 . S
C1272 C1271 1.333 1_565 S
C1272 C1273 1.287 . S
C1273 C1272 1.287 . S
C1273 C1274 1.524 1_565 S
C1273 H1276 0.999 . S
C1274 H1244 0.950 . S
C1274 C1273 1.524 1_545 S
C1274 C1275 1.415 . S
C1275 H1245 0.950 . S
C1275 C1270 1.363 . S
C1275 C1274 1.415 . S
H1276 C1273 0.999 . S
H1277 C1258 0.913 . S
H1278 C1296 0.951 . S
H1279 C1298 0.951 . S
H1280 C1300 0.950 . S
H1281 C1301 0.950 . S
H1282 C1303 0.950 . S
H1283 C1306 0.950 . S
H1284 C1307 0.950 . S
H1285 C1309 0.950 . S
H1286 C1310 0.950 . S
H1287 C1311 0.951 . S
H1288 C1313 0.951 . S
H1289 C1315 0.950 . S
H1290 C1316 0.950 . S
H1291 C1318 0.950 . S
H1292 C1321 0.950 . S
H1293 C1322 0.950 . S
H1294 C1324 0.950 . S
H1295 C1325 0.950 . S
C1296 H1278 0.951 . S
C1296 C1297 1.366 . S
C1296 C1298 1.388 . S
C1297 C1296 1.366 . S
C1297 C1301 1.385 . S
C1298 H1279 0.951 . S
C1298 C1296 1.388 . S
C1298 C1299 1.366 . S
C1299 C1298 1.366 . S
C1299 C1300 1.414 . S
C1299 C1302 1.499 . S
C1300 H1280 0.950 . S
C1300 C1299 1.414 . S
C1300 C1301 1.374 . S
C1301 H1281 0.950 . S
C1301 C1297 1.385 . S
C1301 C1300 1.374 . S
C1302 C1299 1.499 . S
C1302 C1303 1.373 . S
C1302 C1304 1.389 . S
C1303 H1282 0.950 . S
C1303 C1302 1.373 . S
C1303 C1319 1.377 . S
C1304 C1302 1.389 . S
C1304 C1305 1.524 . S
C1304 C1318 1.377 . S
C1305 C1304 1.524 . S
C1305 C1306 1.397 . S
C1305 C1310 1.363 . S
C1306 H1283 0.950 . S
C1306 C1305 1.397 . S
C1306 C1307 1.334 . S
C1307 H1284 0.950 . S
C1307 C1306 1.334 . S
C1307 C1308 1.287 . S
C1308 C1307 1.287 . S
C1308 C1309 1.524 . S
C1308 H1327 0.913 . S
C1309 H1285 0.950 . S
C1309 C1308 1.524 . S
C1309 C1310 1.415 . S
C1310 H1286 0.950 . S
C1310 C1305 1.363 . S
C1310 C1309 1.415 . S
C1311 H1287 0.951 . S
C1311 C1312 1.366 . S
C1311 C1313 1.388 . S
C1312 C1311 1.366 . S
C1312 C1316 1.385 . S
C1313 H1288 0.951 . S
C1313 C1311 1.388 . S
C1313 C1314 1.366 . S
C1314 C1313 1.366 . S
C1314 C1315 1.414 . S
C1314 C1317 1.499 . S
C1315 H1289 0.950 . S
C1315 C1314 1.414 . S
C1315 C1316 1.374 . S
C1316 H1290 0.950 . S
C1316 C1312 1.385 . S
C1316 C1315 1.374 . S
C1317 C1314 1.499 . S
C1317 C1318 1.373 . S
C1317 C1319 1.389 . S
C1318 H1291 0.950 . S
C1318 C1304 1.377 . S
C1318 C1317 1.373 . S
C1319 C1303 1.377 . S
C1319 C1317 1.389 . S
C1319 C1320 1.524 . S
C1320 C1319 1.524 . S
C1320 C1321 1.397 . S
C1320 C1325 1.363 . S
C1321 H1292 0.950 . S
C1321 C1320 1.397 . S
C1321 C1322 1.334 . S
C1322 H1293 0.950 . S
C1322 C1321 1.334 . S
C1322 C1323 1.287 . S
C1323 C1322 1.287 . S
C1323 C1324 1.524 . S
C1323 H1326 0.999 . S
C1324 H1294 0.950 . S
C1324 C1323 1.524 . S
C1324 C1325 1.415 . S
C1325 H1295 0.950 . S
C1325 C1320 1.363 . S
C1325 C1324 1.415 . S
H1326 C1323 0.999 . S
H1327 C1308 0.913 . S
H1328 C1346 0.951 . S
H1329 C1348 0.951 1_565 S
H1330 C1350 0.950 . S
H1331 C1351 0.950 . S
H1332 C1353 0.950 . S
H1333 C1356 0.950 . S
H1334 C1357 0.950 . S
H1335 C1359 0.950 . S
H1336 C1360 0.950 . S
H1337 C1361 0.951 . S
H1338 C1363 0.951 . S
H1339 C1365 0.950 . S
H1340 C1366 0.950 . S
H1341 C1368 0.950 . S
H1342 C1371 0.950 . S
H1343 C1372 0.950 . S
H1344 C1374 0.950 . S
H1345 C1375 0.949 1_554 S
C1346 H1328 0.951 . S
C1346 C1347 1.366 . S
C1346 C1348 1.388 . S
C1347 C1346 1.366 . S
C1347 C1351 1.385 . S
C1348 H1329 0.951 1_545 S
C1348 C1346 1.388 . S
C1348 C1349 1.366 . S
C1349 C1348 1.366 . S
C1349 C1350 1.414 . S
C1349 C1352 1.499 1_545 S
C1350 H1330 0.950 . S
C1350 C1349 1.414 . S
C1350 C1351 1.374 . S
C1351 H1331 0.950 . S
C1351 C1347 1.385 . S
C1351 C1350 1.374 . S
C1352 C1349 1.499 1_565 S
C1352 C1353 1.373 . S
C1352 C1354 1.389 . S
C1353 H1332 0.950 . S
C1353 C1352 1.373 . S
C1353 C1369 1.377 . S
C1354 C1352 1.389 . S
C1354 C1355 1.524 . S
C1354 C1368 1.377 . S
C1355 C1354 1.524 . S
C1355 C1356 1.397 1_565 S
C1355 C1360 1.363 . S
C1356 H1333 0.950 . S
C1356 C1355 1.397 1_545 S
C1356 C1357 1.334 . S
C1357 H1334 0.950 . S
C1357 C1356 1.334 . S
C1357 C1358 1.287 . S
C1358 C1357 1.287 . S
C1358 C1359 1.524 1_545 S
C1358 H1377 0.913 . S
C1359 H1335 0.950 . S
C1359 C1358 1.524 1_565 S
C1359 C1360 1.415 . S
C1360 H1336 0.950 . S
C1360 C1355 1.363 . S
C1360 C1359 1.415 . S
C1361 H1337 0.951 . S
C1361 C1362 1.366 . S
C1361 C1363 1.388 . S
C1362 C1361 1.366 . S
C1362 C1366 1.385 . S
C1363 H1338 0.951 . S
C1363 C1361 1.388 . S
C1363 C1364 1.366 . S
C1364 C1363 1.366 . S
C1364 C1365 1.414 . S
C1364 C1367 1.499 . S
C1365 H1339 0.950 . S
C1365 C1364 1.414 . S
C1365 C1366 1.374 . S
C1366 H1340 0.950 . S
C1366 C1362 1.385 . S
C1366 C1365 1.374 . S
C1367 C1364 1.499 . S
C1367 C1368 1.373 . S
C1367 C1369 1.389 . S
C1368 H1341 0.950 . S
C1368 C1354 1.377 . S
C1368 C1367 1.373 . S
C1369 C1353 1.377 . S
C1369 C1367 1.389 . S
C1369 C1370 1.524 . S
C1370 C1369 1.524 . S
C1370 C1371 1.397 . S
C1370 C1375 1.363 1_554 S
C1371 H1342 0.950 . S
C1371 C1370 1.397 . S
C1371 C1372 1.334 1_554 S
C1372 H1343 0.950 . S
C1372 C1371 1.334 1_556 S
C1372 C1373 1.287 . S
C1373 C1372 1.287 . S
C1373 C1374 1.524 . S
C1373 H1376 0.999 . S
C1374 H1344 0.950 . S
C1374 C1373 1.524 . S
C1374 C1375 1.415 . S
C1375 H1345 0.949 1_556 S
C1375 C1370 1.363 1_556 S
C1375 C1374 1.415 . S
H1376 C1373 0.999 . S
H1377 C1358 0.913 . S
H1378 C1396 0.967 . S
H1379 C1398 0.951 . S
H1380 C1400 0.950 . S
H1381 C1401 0.950 . S
H1382 C1403 0.950 . S
H1383 C1406 0.950 . S
H1384 C1407 0.950 . S
H1385 C1409 0.950 . S
H1386 C1410 0.950 . S
H1387 C1411 0.951 . S
H1388 C1413 0.951 . S
H1389 C1415 0.950 . S
H1390 C1416 0.950 . S
H1391 C1418 0.950 . S
H1392 C1421 0.950 . S
H1393 C1422 0.950 1_554 S
H1394 C1424 0.950 . S
H1395 C1425 0.950 . S
C1396 H1378 0.967 . S
C1396 C1397 1.366 . S
C1396 C1398 1.388 . S
C1397 C1396 1.366 . S
C1397 C1401 1.385 . S
C1398 H1379 0.951 . S
C1398 C1396 1.388 . S
C1398 C1399 1.366 . S
C1399 C1398 1.366 . S
C1399 C1400 1.414 . S
C1399 C1402 1.499 . S
C1400 H1380 0.950 . S
C1400 C1399 1.414 . S
C1400 C1401 1.374 . S
C1401 H1381 0.950 . S
C1401 C1397 1.385 . S
C1401 C1400 1.374 . S
C1402 C1399 1.499 . S
C1402 C1403 1.373 . S
C1402 C1404 1.389 . S
C1403 H1382 0.950 . S
C1403 C1402 1.373 . S
C1403 C1419 1.377 . S
C1404 C1402 1.389 . S
C1404 C1405 1.524 . S
C1404 C1418 1.377 . S
C1405 C1404 1.524 . S
C1405 C1406 1.397 . S
C1405 C1410 1.363 . S
C1406 H1383 0.950 . S
C1406 C1405 1.397 . S
C1406 C1407 1.334 . S
C1407 H1384 0.950 . S
C1407 C1406 1.334 . S
C1407 C1408 1.287 . S
C1408 C1407 1.287 . S
C1408 C1409 1.524 . S
C1408 H1427 0.913 . S
C1409 H1385 0.950 . S
C1409 C1408 1.524 . S
C1409 C1410 1.415 . S
C1410 H1386 0.950 . S
C1410 C1405 1.363 . S
C1410 C1409 1.415 . S
C1411 H1387 0.951 . S
C1411 C1412 1.366 . S
C1411 C1413 1.388 . S
C1412 C1411 1.366 . S
C1412 C1416 1.385 . S
C1413 H1388 0.951 . S
C1413 C1411 1.388 . S
C1413 C1414 1.366 . S
C1414 C1413 1.366 . S
C1414 C1415 1.414 . S
C1414 C1417 1.499 . S
C1415 H1389 0.950 . S
C1415 C1414 1.414 . S
C1415 C1416 1.374 . S
C1416 H1390 0.950 . S
C1416 C1412 1.385 . S
C1416 C1415 1.374 . S
C1417 C1414 1.499 . S
C1417 C1418 1.373 . S
C1417 C1419 1.389 . S
C1418 H1391 0.950 . S
C1418 C1404 1.377 . S
C1418 C1417 1.373 . S
C1419 C1403 1.377 . S
C1419 C1417 1.389 . S
C1419 C1420 1.524 . S
C1420 C1419 1.524 . S
C1420 C1421 1.397 . S
C1420 C1425 1.363 . S
C1421 H1392 0.950 . S
C1421 C1420 1.397 . S
C1421 C1422 1.334 . S
C1422 H1393 0.950 1_556 S
C1422 C1421 1.334 . S
C1422 C1423 1.287 . S
C1423 C1422 1.287 . S
C1423 C1424 1.524 . S
C1423 H1426 0.999 1_655 S
C1424 H1394 0.950 . S
C1424 C1423 1.524 . S
C1424 C1425 1.415 . S
C1425 H1395 0.950 . S
C1425 C1420 1.363 . S
C1425 C1424 1.415 . S
H1426 C1423 0.999 1_455 S
H1427 C1408 0.913 . S
H1428 C1446 0.951 . S
H1429 C1448 0.951 . S
H1430 C1450 0.950 . S
H1431 C1451 0.950 . S
H1432 C1453 0.950 . S
H1433 C1456 0.950 . S
H1434 C1457 0.950 . S
H1435 C1459 0.950 . S
H1436 C1460 0.950 . S
H1437 C1461 0.951 . S
H1438 C1463 0.951 . S
H1439 C1465 0.950 . S
H1440 C1466 0.950 . S
H1441 C1468 0.950 . S
H1442 C1471 0.950 . S
H1443 C1472 0.950 . S
H1444 C1474 0.950 . S
H1445 C1475 0.950 . S
C1446 H1428 0.951 . S
C1446 C1447 1.366 . S
C1446 C1448 1.388 . S
C1447 C1446 1.366 . S
C1447 C1451 1.385 . S
C1448 H1429 0.951 . S
C1448 C1446 1.388 . S
C1448 C1449 1.366 . S
C1449 C1448 1.366 . S
C1449 C1450 1.414 . S
C1449 C1452 1.499 . S
C1450 H1430 0.950 . S
C1450 C1449 1.414 . S
C1450 C1451 1.374 . S
C1451 H1431 0.950 . S
C1451 C1447 1.385 . S
C1451 C1450 1.374 . S
C1452 C1449 1.499 . S
C1452 C1453 1.373 . S
C1452 C1454 1.389 . S
C1453 H1432 0.950 . S
C1453 C1452 1.373 . S
C1453 C1469 1.377 . S
C1454 C1452 1.389 . S
C1454 C1455 1.524 . S
C1454 C1468 1.377 . S
C1455 C1454 1.524 . S
C1455 C1456 1.397 . S
C1455 C1460 1.363 . S
C1456 H1433 0.950 . S
C1456 C1455 1.397 . S
C1456 C1457 1.334 . S
C1457 H1434 0.950 . S
C1457 C1456 1.334 . S
C1457 C1458 1.287 . S
C1458 C1457 1.287 . S
C1458 C1459 1.524 . S
C1458 H1477 0.913 . S
C1459 H1435 0.950 . S
C1459 C1458 1.524 . S
C1459 C1460 1.415 . S
C1460 H1436 0.950 . S
C1460 C1455 1.363 . S
C1460 C1459 1.415 . S
C1461 H1437 0.951 . S
C1461 C1462 1.366 . S
C1461 C1463 1.388 . S
C1462 C1461 1.366 . S
C1462 C1466 1.385 . S
C1463 H1438 0.951 . S
C1463 C1461 1.388 . S
C1463 C1464 1.366 . S
C1464 C1463 1.366 . S
C1464 C1465 1.414 . S
C1464 C1467 1.499 . S
C1465 H1439 0.950 . S
C1465 C1464 1.414 . S
C1465 C1466 1.374 . S
C1466 H1440 0.950 . S
C1466 C1462 1.385 . S
C1466 C1465 1.374 . S
C1467 C1464 1.499 . S
C1467 C1468 1.373 . S
C1467 C1469 1.389 . S
C1468 H1441 0.950 . S
C1468 C1454 1.377 . S
C1468 C1467 1.373 . S
C1469 C1453 1.377 . S
C1469 C1467 1.389 . S
C1469 C1470 1.524 . S
C1470 C1469 1.524 . S
C1470 C1471 1.397 . S
C1470 C1475 1.363 . S
C1471 H1442 0.950 . S
C1471 C1470 1.397 . S
C1471 C1472 1.334 . S
C1472 H1443 0.950 . S
C1472 C1471 1.334 . S
C1472 C1473 1.287 . S
C1473 C1472 1.287 . S
C1473 C1474 1.524 . S
C1473 H1476 0.999 . S
C1474 H1444 0.950 . S
C1474 C1473 1.524 . S
C1474 C1475 1.415 . S
C1475 H1445 0.950 . S
C1475 C1470 1.363 . S
C1475 C1474 1.415 . S
H1476 C1473 0.999 . S
H1477 C1458 0.913 . S
H1478 C1496 0.951 . S
H1479 C1498 0.951 . S
H1480 C1500 0.950 . S
H1481 C1501 0.950 . S
H1482 C1503 0.950 . S
H1483 C1506 0.950 . S
H1484 C1507 0.950 . S
H1485 C1509 0.950 . S
H1486 C1510 0.950 . S
H1487 C1511 0.951 . S
H1488 C1513 0.951 . S
H1489 C1515 0.950 . S
H1490 C1516 0.950 . S
H1491 C1518 0.950 . S
H1492 C1521 0.950 . S
H1493 C1522 0.950 . S
H1494 C1524 0.950 . S
H1495 C1525 0.950 . S
C1496 H1478 0.951 . S
C1496 C1497 1.366 . S
C1496 C1498 1.388 . S
C1497 C1496 1.366 . S
C1497 C1501 1.385 . S
C1498 H1479 0.951 . S
C1498 C1496 1.388 . S
C1498 C1499 1.366 . S
C1499 C1498 1.366 . S
C1499 C1500 1.414 . S
C1499 C1502 1.499 . S
C1500 H1480 0.950 . S
C1500 C1499 1.414 . S
C1500 C1501 1.374 . S
C1501 H1481 0.950 . S
C1501 C1497 1.385 . S
C1501 C1500 1.374 . S
C1502 C1499 1.499 . S
C1502 C1503 1.373 . S
C1502 C1504 1.389 . S
C1503 H1482 0.950 . S
C1503 C1502 1.373 . S
C1503 C1519 1.377 . S
C1504 C1502 1.389 . S
C1504 C1505 1.524 . S
C1504 C1518 1.377 . S
C1505 C1504 1.524 . S
C1505 C1506 1.397 . S
C1505 C1510 1.363 . S
C1506 H1483 0.950 . S
C1506 C1505 1.397 . S
C1506 C1507 1.334 . S
C1507 H1484 0.950 . S
C1507 C1506 1.334 . S
C1507 C1508 1.287 . S
C1508 C1507 1.287 . S
C1508 C1509 1.524 . S
C1508 H1527 0.913 . S
C1509 H1485 0.950 . S
C1509 C1508 1.524 . S
C1509 C1510 1.415 . S
C1510 H1486 0.950 . S
C1510 C1505 1.363 . S
C1510 C1509 1.415 . S
C1511 H1487 0.951 . S
C1511 C1512 1.366 . S
C1511 C1513 1.388 . S
C1512 C1511 1.366 . S
C1512 C1516 1.385 . S
C1513 H1488 0.951 . S
C1513 C1511 1.388 . S
C1513 C1514 1.366 . S
C1514 C1513 1.366 . S
C1514 C1515 1.414 . S
C1514 C1517 1.499 . S
C1515 H1489 0.950 . S
C1515 C1514 1.414 . S
C1515 C1516 1.374 . S
C1516 H1490 0.950 . S
C1516 C1512 1.385 . S
C1516 C1515 1.374 . S
C1517 C1514 1.499 . S
C1517 C1518 1.373 . S
C1517 C1519 1.389 . S
C1518 H1491 0.950 . S
C1518 C1504 1.377 . S
C1518 C1517 1.373 . S
C1519 C1503 1.377 . S
C1519 C1517 1.389 . S
C1519 C1520 1.524 . S
C1520 C1519 1.524 . S
C1520 C1521 1.397 . S
C1520 C1525 1.363 . S
C1521 H1492 0.950 . S
C1521 C1520 1.397 . S
C1521 C1522 1.334 . S
C1522 H1493 0.950 . S
C1522 C1521 1.334 . S
C1522 C1523 1.287 . S
C1523 C1522 1.287 . S
C1523 C1524 1.524 . S
C1523 H1526 0.999 . S
C1524 H1494 0.950 . S
C1524 C1523 1.524 . S
C1524 C1525 1.415 . S
C1525 H1495 0.950 . S
C1525 C1520 1.363 . S
C1525 C1524 1.415 . S
H1526 C1523 0.999 . S
H1527 C1508 0.913 . S
H1528 C1546 0.951 . S
H1529 C1548 0.951 . S
H1530 C1550 0.950 . S
H1531 C1551 0.950 . S
H1532 C1553 0.950 . S
H1533 C1556 0.950 . S
H1534 C1557 0.950 . S
H1535 C1559 0.950 . S
H1536 C1560 0.950 . S
H1537 C1561 0.951 . S
H1538 C1563 0.951 . S
H1539 C1565 0.950 . S
H1540 C1566 0.950 . S
H1541 C1568 0.950 . S
H1542 C1571 0.950 . S
H1543 C1572 0.950 . S
H1544 C1574 0.928 1_545 S
H1545 C1575 0.950 . S
C1546 H1528 0.951 . S
C1546 C1547 1.366 . S
C1546 C1548 1.388 . S
C1547 C1546 1.366 . S
C1547 C1551 1.385 . S
C1548 H1529 0.951 . S
C1548 C1546 1.388 . S
C1548 C1549 1.366 . S
C1549 C1548 1.366 . S
C1549 C1550 1.414 . S
C1549 C1552 1.499 . S
C1550 H1530 0.950 . S
C1550 C1549 1.414 . S
C1550 C1551 1.374 . S
C1551 H1531 0.950 . S
C1551 C1547 1.385 . S
C1551 C1550 1.374 . S
C1552 C1549 1.499 . S
C1552 C1553 1.373 . S
C1552 C1554 1.389 . S
C1553 H1532 0.950 . S
C1553 C1552 1.373 . S
C1553 C1569 1.377 . S
C1554 C1552 1.389 . S
C1554 C1555 1.524 . S
C1554 C1568 1.377 . S
C1555 C1554 1.524 . S
C1555 C1556 1.397 . S
C1555 C1560 1.363 . S
C1556 H1533 0.950 . S
C1556 C1555 1.397 . S
C1556 C1557 1.334 . S
C1557 H1534 0.950 . S
C1557 C1556 1.334 . S
C1557 C1558 1.287 . S
C1558 C1557 1.287 . S
C1558 C1559 1.524 . S
C1558 H1577 0.913 . S
C1559 H1535 0.950 . S
C1559 C1558 1.524 . S
C1559 C1560 1.415 . S
C1560 H1536 0.950 . S
C1560 C1555 1.363 . S
C1560 C1559 1.415 . S
C1561 H1537 0.951 . S
C1561 C1562 1.366 . S
C1561 C1563 1.388 . S
C1562 C1561 1.366 . S
C1562 C1566 1.385 . S
C1563 H1538 0.951 . S
C1563 C1561 1.388 . S
C1563 C1564 1.366 . S
C1564 C1563 1.366 . S
C1564 C1565 1.414 . S
C1564 C1567 1.499 . S
C1565 H1539 0.950 . S
C1565 C1564 1.414 . S
C1565 C1566 1.374 . S
C1566 H1540 0.950 . S
C1566 C1562 1.385 . S
C1566 C1565 1.374 . S
C1567 C1564 1.499 . S
C1567 C1568 1.373 . S
C1567 C1569 1.389 . S
C1568 H1541 0.950 . S
C1568 C1554 1.377 . S
C1568 C1567 1.373 . S
C1569 C1553 1.377 . S
C1569 C1567 1.389 . S
C1569 C1570 1.524 . S
C1570 C1569 1.524 . S
C1570 C1571 1.397 . S
C1570 C1575 1.363 . S
C1571 H1542 0.950 . S
C1571 C1570 1.397 . S
C1571 C1572 1.334 . S
C1572 H1543 0.950 . S
C1572 C1571 1.334 . S
C1572 C1573 1.287 . S
C1573 C1572 1.287 . S
C1573 C1574 1.524 . S
C1573 H1576 0.999 . S
C1574 H1544 0.928 1_565 S
C1574 C1573 1.524 . S
C1574 C1575 1.415 . S
C1575 H1545 0.950 . S
C1575 C1570 1.363 . S
C1575 C1574 1.415 . S
H1576 C1573 0.999 . S
H1577 C1558 0.913 . S
H1578 C1596 0.951 . S
H1579 C1598 0.951 . S
H1580 C1600 0.950 . S
H1581 C1601 0.950 1_565 S
H1582 C1603 0.950 . S
H1583 C1606 0.950 . S
H1584 C1607 0.950 . S
H1585 C1609 0.950 . S
H1586 C1610 0.950 . S
H1587 C1611 0.951 . S
H1588 C1613 0.951 . S
H1589 C1615 0.950 . S
H1590 C1616 0.950 . S
H1591 C1618 0.950 . S
H1592 C1621 0.950 . S
H1593 C1622 0.950 . S
H1594 C1624 0.950 . S
H1595 C1625 0.950 . S
C1596 H1578 0.951 . S
C1596 C1597 1.366 . S
C1596 C1598 1.388 . S
C1597 C1596 1.366 . S
C1597 C1601 1.385 . S
C1598 H1579 0.951 . S
C1598 C1596 1.388 . S
C1598 C1599 1.366 . S
C1599 C1598 1.366 . S
C1599 C1600 1.414 . S
C1599 C1602 1.499 . S
C1600 H1580 0.950 . S
C1600 C1599 1.414 . S
C1600 C1601 1.374 . S
C1601 H1581 0.950 1_545 S
C1601 C1597 1.385 . S
C1601 C1600 1.374 . S
C1602 C1599 1.499 . S
C1602 C1603 1.373 . S
C1602 C1604 1.389 . S
C1603 H1582 0.950 . S
C1603 C1602 1.373 . S
C1603 C1619 1.377 . S
C1604 C1602 1.389 . S
C1604 C1605 1.524 . S
C1604 C1618 1.377 . S
C1605 C1604 1.524 . S
C1605 C1606 1.397 . S
C1605 C1610 1.363 . S
C1606 H1583 0.950 . S
C1606 C1605 1.397 . S
C1606 C1607 1.334 . S
C1607 H1584 0.950 . S
C1607 C1606 1.334 . S
C1607 C1608 1.287 . S
C1608 C1607 1.287 . S
C1608 C1609 1.524 . S
C1608 H1627 0.913 . S
C1609 H1585 0.950 . S
C1609 C1608 1.524 . S
C1609 C1610 1.415 . S
C1610 H1586 0.950 . S
C1610 C1605 1.363 . S
C1610 C1609 1.415 . S
C1611 H1587 0.951 . S
C1611 C1612 1.366 . S
C1611 C1613 1.388 . S
C1612 C1611 1.366 . S
C1612 C1616 1.385 . S
C1613 H1588 0.951 . S
C1613 C1611 1.388 . S
C1613 C1614 1.366 . S
C1614 C1613 1.366 . S
C1614 C1615 1.414 . S
C1614 C1617 1.499 . S
C1615 H1589 0.950 . S
C1615 C1614 1.414 . S
C1615 C1616 1.374 . S
C1616 H1590 0.950 . S
C1616 C1612 1.385 . S
C1616 C1615 1.374 . S
C1617 C1614 1.499 . S
C1617 C1618 1.373 . S
C1617 C1619 1.389 . S
C1618 H1591 0.950 . S
C1618 C1604 1.377 . S
C1618 C1617 1.373 . S
C1619 C1603 1.377 . S
C1619 C1617 1.389 . S
C1619 C1620 1.524 . S
C1620 C1619 1.524 . S
C1620 C1621 1.397 . S
C1620 C1625 1.363 . S
C1621 H1592 0.950 . S
C1621 C1620 1.397 . S
C1621 C1622 1.334 . S
C1622 H1593 0.950 . S
C1622 C1621 1.334 . S
C1622 C1623 1.287 . S
C1623 C1622 1.287 . S
C1623 C1624 1.524 . S
C1623 H1626 0.987 1_455 S
C1624 H1594 0.950 . S
C1624 C1623 1.524 . S
C1624 C1625 1.415 . S
C1625 H1595 0.950 . S
C1625 C1620 1.363 . S
C1625 C1624 1.415 . S
H1626 C1623 0.987 1_655 S
H1627 C1608 0.913 . S
H1628 C1646 0.951 . S
H1629 C1648 0.951 . S
H1630 C1650 0.950 . S
H1631 C1651 0.950 . S
H1632 C1653 0.950 . S
H1633 C1656 0.950 . S
H1634 C1657 0.950 . S
H1635 C1659 0.950 . S
H1636 C1660 0.950 . S
H1637 C1661 0.951 . S
H1638 C1663 0.951 . S
H1639 C1665 0.950 . S
H1640 C1666 0.950 . S
H1641 C1668 0.950 . S
H1642 C1671 0.950 . S
H1643 C1672 0.950 . S
H1644 C1674 0.950 . S
H1645 C1675 0.950 . S
C1646 H1628 0.951 . S
C1646 C1647 1.366 . S
C1646 C1648 1.388 . S
C1647 C1646 1.366 . S
C1647 C1651 1.385 . S
C1648 H1629 0.951 . S
C1648 C1646 1.388 . S
C1648 C1649 1.366 . S
C1649 C1648 1.366 . S
C1649 C1650 1.414 . S
C1649 C1652 1.499 . S
C1650 H1630 0.950 . S
C1650 C1649 1.414 . S
C1650 C1651 1.374 . S
C1651 H1631 0.950 . S
C1651 C1647 1.385 . S
C1651 C1650 1.374 . S
C1652 C1649 1.499 . S
C1652 C1653 1.373 . S
C1652 C1654 1.389 . S
C1653 H1632 0.950 . S
C1653 C1652 1.373 . S
C1653 C1669 1.377 . S
C1654 C1652 1.389 . S
C1654 C1655 1.524 . S
C1654 C1668 1.377 . S
C1655 C1654 1.524 . S
C1655 C1656 1.397 . S
C1655 C1660 1.363 . S
C1656 H1633 0.950 . S
C1656 C1655 1.397 . S
C1656 C1657 1.334 . S
C1657 H1634 0.950 . S
C1657 C1656 1.334 . S
C1657 C1658 1.287 . S
C1658 C1657 1.287 . S
C1658 C1659 1.524 . S
C1658 H1677 0.913 . S
C1659 H1635 0.950 . S
C1659 C1658 1.524 . S
C1659 C1660 1.415 . S
C1660 H1636 0.950 . S
C1660 C1655 1.363 . S
C1660 C1659 1.415 . S
C1661 H1637 0.951 . S
C1661 C1662 1.366 . S
C1661 C1663 1.388 . S
C1662 C1661 1.366 . S
C1662 C1666 1.385 . S
C1663 H1638 0.951 . S
C1663 C1661 1.388 . S
C1663 C1664 1.366 . S
C1664 C1663 1.366 . S
C1664 C1665 1.414 . S
C1664 C1667 1.499 . S
C1665 H1639 0.950 . S
C1665 C1664 1.414 . S
C1665 C1666 1.374 . S
C1666 H1640 0.950 . S
C1666 C1662 1.385 . S
C1666 C1665 1.374 . S
C1667 C1664 1.499 . S
C1667 C1668 1.373 . S
C1667 C1669 1.389 . S
C1668 H1641 0.950 . S
C1668 C1654 1.377 . S
C1668 C1667 1.373 . S
C1669 C1653 1.377 . S
C1669 C1667 1.389 . S
C1669 C1670 1.524 . S
C1670 C1669 1.524 . S
C1670 C1671 1.397 . S
C1670 C1675 1.363 . S
C1671 H1642 0.950 . S
C1671 C1670 1.397 . S
C1671 C1672 1.334 . S
C1672 H1643 0.950 . S
C1672 C1671 1.334 . S
C1672 C1673 1.287 . S
C1673 C1672 1.287 . S
C1673 C1674 1.524 . S
C1673 H1676 0.999 . S
C1674 H1644 0.950 . S
C1674 C1673 1.524 . S
C1674 C1675 1.415 . S
C1675 H1645 0.950 . S
C1675 C1670 1.363 . S
C1675 C1674 1.415 . S
H1676 C1673 0.999 . S
H1677 C1658 0.913 . S
H1678 C1696 0.951 . S
H1679 C1698 0.951 . S
H1680 C1700 0.950 . S
H1681 C1701 0.950 . S
H1682 C1703 0.950 . S
H1683 C1706 0.950 . S
H1684 C1707 0.950 . S
H1685 C1709 0.950 . S
H1686 C1710 0.950 . S
H1687 C1711 0.951 . S
H1688 C1713 0.951 . S
H1689 C1715 0.950 . S
H1690 C1716 0.950 . S
H1691 C1718 0.950 . S
H1692 C1721 0.950 . S
H1693 C1722 0.950 . S
H1694 C1724 0.950 . S
H1695 C1725 0.950 . S
C1696 H1678 0.951 . S
C1696 C1697 1.366 . S
C1696 C1698 1.388 . S
C1697 C1696 1.366 . S
C1697 C1701 1.385 . S
C1698 H1679 0.951 . S
C1698 C1696 1.388 . S
C1698 C1699 1.366 . S
C1699 C1698 1.366 . S
C1699 C1700 1.414 . S
C1699 C1702 1.499 . S
C1700 H1680 0.950 . S
C1700 C1699 1.414 . S
C1700 C1701 1.374 . S
C1701 H1681 0.950 . S
C1701 C1697 1.385 . S
C1701 C1700 1.374 . S
C1702 C1699 1.499 . S
C1702 C1703 1.373 . S
C1702 C1704 1.389 . S
C1703 H1682 0.950 . S
C1703 C1702 1.373 . S
C1703 C1719 1.377 . S
C1704 C1702 1.389 . S
C1704 C1705 1.524 . S
C1704 C1718 1.377 . S
C1705 C1704 1.524 . S
C1705 C1706 1.397 . S
C1705 C1710 1.363 . S
C1706 H1683 0.950 . S
C1706 C1705 1.397 . S
C1706 C1707 1.334 . S
C1707 H1684 0.950 . S
C1707 C1706 1.334 . S
C1707 C1708 1.287 . S
C1708 C1707 1.287 . S
C1708 C1709 1.524 . S
C1708 H1727 0.913 . S
C1709 H1685 0.950 . S
C1709 C1708 1.524 . S
C1709 C1710 1.415 . S
C1710 H1686 0.950 . S
C1710 C1705 1.363 . S
C1710 C1709 1.415 . S
C1711 H1687 0.951 . S
C1711 C1712 1.366 . S
C1711 C1713 1.388 . S
C1712 C1711 1.366 . S
C1712 C1716 1.385 . S
C1713 H1688 0.951 . S
C1713 C1711 1.388 . S
C1713 C1714 1.366 . S
C1714 C1713 1.366 . S
C1714 C1715 1.414 . S
C1714 C1717 1.499 . S
C1715 H1689 0.950 . S
C1715 C1714 1.414 . S
C1715 C1716 1.374 . S
C1716 H1690 0.950 . S
C1716 C1712 1.385 . S
C1716 C1715 1.374 . S
C1717 C1714 1.499 . S
C1717 C1718 1.373 . S
C1717 C1719 1.389 . S
C1718 H1691 0.950 . S
C1718 C1704 1.377 . S
C1718 C1717 1.373 . S
C1719 C1703 1.377 . S
C1719 C1717 1.389 . S
C1719 C1720 1.524 . S
C1720 C1719 1.524 . S
C1720 C1721 1.397 . S
C1720 C1725 1.363 . S
C1721 H1692 0.950 . S
C1721 C1720 1.397 . S
C1721 C1722 1.334 . S
C1722 H1693 0.950 . S
C1722 C1721 1.334 . S
C1722 C1723 1.287 . S
C1723 C1722 1.287 . S
C1723 C1724 1.524 . S
C1723 H1726 0.999 . S
C1724 H1694 0.950 . S
C1724 C1723 1.524 . S
C1724 C1725 1.415 . S
C1725 H1695 0.950 . S
C1725 C1720 1.363 . S
C1725 C1724 1.415 . S
H1726 C1723 0.999 . S
H1727 C1708 0.913 . S
H1728 C1746 0.951 . S
H1729 C1748 0.951 . S
H1730 C1750 0.950 . S
H1731 C1751 0.950 . S
H1732 C1753 0.950 . S
H1733 C1756 0.950 . S
H1734 C1757 0.950 . S
H1735 C1759 0.950 . S
H1736 C1760 0.950 . S
H1737 C1761 0.951 . S
H1738 C1763 0.951 . S
H1739 C1765 0.950 . S
H1740 C1766 0.955 . S
H1741 C1768 0.950 . S
H1742 C1771 0.950 . S
H1743 C1772 0.950 . S
H1744 C1774 0.950 . S
H1745 C1775 0.950 . S
C1746 H1728 0.951 . S
C1746 C1747 1.366 . S
C1746 C1748 1.388 . S
C1747 C1746 1.366 . S
C1747 C1751 1.385 . S
C1748 H1729 0.951 . S
C1748 C1746 1.388 . S
C1748 C1749 1.366 . S
C1749 C1748 1.366 . S
C1749 C1750 1.414 . S
C1749 C1752 1.499 . S
C1750 H1730 0.950 . S
C1750 C1749 1.414 . S
C1750 C1751 1.374 . S
C1751 H1731 0.950 . S
C1751 C1747 1.385 . S
C1751 C1750 1.374 . S
C1752 C1749 1.499 . S
C1752 C1753 1.373 . S
C1752 C1754 1.389 . S
C1753 H1732 0.950 . S
C1753 C1752 1.373 . S
C1753 C1769 1.377 . S
C1754 C1752 1.389 . S
C1754 C1755 1.524 . S
C1754 C1768 1.377 . S
C1755 C1754 1.524 . S
C1755 C1756 1.397 . S
C1755 C1760 1.363 . S
C1756 H1733 0.950 . S
C1756 C1755 1.397 . S
C1756 C1757 1.334 . S
C1757 H1734 0.950 . S
C1757 C1756 1.334 . S
C1757 C1758 1.287 . S
C1758 C1757 1.287 . S
C1758 C1759 1.524 . S
C1758 H1777 0.913 . S
C1759 H1735 0.950 . S
C1759 C1758 1.524 . S
C1759 C1760 1.415 . S
C1760 H1736 0.950 . S
C1760 C1755 1.363 . S
C1760 C1759 1.415 . S
C1761 H1737 0.951 . S
C1761 C1762 1.366 . S
C1761 C1763 1.388 . S
C1762 C1761 1.366 . S
C1762 C1766 1.382 1_565 S
C1763 H1738 0.951 . S
C1763 C1761 1.388 . S
C1763 C1764 1.366 . S
C1764 C1763 1.366 . S
C1764 C1765 1.414 . S
C1764 C1767 1.499 . S
C1765 H1739 0.950 . S
C1765 C1764 1.414 . S
C1765 C1766 1.371 1_565 S
C1766 H1740 0.955 . S
C1766 C1762 1.382 1_545 S
C1766 C1765 1.371 1_545 S
C1767 C1764 1.499 . S
C1767 C1768 1.373 . S
C1767 C1769 1.389 . S
C1768 H1741 0.950 . S
C1768 C1754 1.377 . S
C1768 C1767 1.373 . S
C1769 C1753 1.377 . S
C1769 C1767 1.389 . S
C1769 C1770 1.524 . S
C1770 C1769 1.524 . S
C1770 C1771 1.397 . S
C1770 C1775 1.363 . S
C1771 H1742 0.950 . S
C1771 C1770 1.397 . S
C1771 C1772 1.334 . S
C1772 H1743 0.950 . S
C1772 C1771 1.334 . S
C1772 C1773 1.287 . S
C1773 C1772 1.287 . S
C1773 C1774 1.524 . S
C1773 H1776 0.999 . S
C1774 H1744 0.950 . S
C1774 C1773 1.524 . S
C1774 C1775 1.415 . S
C1775 H1745 0.950 . S
C1775 C1770 1.363 . S
C1775 C1774 1.415 . S
H1776 C1773 0.999 . S
H1777 C1758 0.913 . S
H1778 C1796 0.951 . S
H1779 C1798 0.951 . S
H1780 C1800 0.950 . S
H1781 C1801 0.950 . S
H1782 C1803 0.950 . S
H1783 C1806 0.950 . S
H1784 C1807 0.950 . S
H1785 C1809 0.950 . S
H1786 C1810 0.950 . S
H1787 C1811 0.951 . S
H1788 C1813 0.951 . S
H1789 C1815 0.950 . S
H1790 C1816 0.950 . S
H1791 C1818 0.950 . S
H1792 C1821 0.950 . S
H1793 C1822 0.950 . S
H1794 C1824 0.950 . S
H1795 C1825 0.950 . S
C1796 H1778 0.951 . S
C1796 C1797 1.366 . S
C1796 C1798 1.388 . S
C1797 C1796 1.366 . S
C1797 C1801 1.385 . S
C1798 H1779 0.951 . S
C1798 C1796 1.388 . S
C1798 C1799 1.366 . S
C1799 C1798 1.366 . S
C1799 C1800 1.414 . S
C1799 C1802 1.499 . S
C1800 H1780 0.950 . S
C1800 C1799 1.414 . S
C1800 C1801 1.374 . S
C1801 H1781 0.950 . S
C1801 C1797 1.385 . S
C1801 C1800 1.374 . S
C1802 C1799 1.499 . S
C1802 C1803 1.373 . S
C1802 C1804 1.389 . S
C1803 H1782 0.950 . S
C1803 C1802 1.373 . S
C1803 C1819 1.377 . S
C1804 C1802 1.389 . S
C1804 C1805 1.524 . S
C1804 C1818 1.377 . S
C1805 C1804 1.524 . S
C1805 C1806 1.397 . S
C1805 C1810 1.363 . S
C1806 H1783 0.950 . S
C1806 C1805 1.397 . S
C1806 C1807 1.334 . S
C1807 H1784 0.950 . S
C1807 C1806 1.334 . S
C1807 C1808 1.287 . S
C1808 C1807 1.287 . S
C1808 C1809 1.524 . S
C1808 H1827 0.913 . S
C1809 H1785 0.950 . S
C1809 C1808 1.524 . S
C1809 C1810 1.415 . S
C1810 H1786 0.950 . S
C1810 C1805 1.363 . S
C1810 C1809 1.415 . S
C1811 H1787 0.951 . S
C1811 C1812 1.366 . S
C1811 C1813 1.388 . S
C1812 C1811 1.366 . S
C1812 C1816 1.385 . S
C1813 H1788 0.951 . S
C1813 C1811 1.388 . S
C1813 C1814 1.366 . S
C1814 C1813 1.366 . S
C1814 C1815 1.414 . S
C1814 C1817 1.499 . S
C1815 H1789 0.950 . S
C1815 C1814 1.414 . S
C1815 C1816 1.374 . S
C1816 H1790 0.950 . S
C1816 C1812 1.385 . S
C1816 C1815 1.374 . S
C1817 C1814 1.499 . S
C1817 C1818 1.373 . S
C1817 C1819 1.389 . S
C1818 H1791 0.950 . S
C1818 C1804 1.377 . S
C1818 C1817 1.373 . S
C1819 C1803 1.377 . S
C1819 C1817 1.389 . S
C1819 C1820 1.524 . S
C1820 C1819 1.524 . S
C1820 C1821 1.397 . S
C1820 C1825 1.363 . S
C1821 H1792 0.950 . S
C1821 C1820 1.397 . S
C1821 C1822 1.334 . S
C1822 H1793 0.950 . S
C1822 C1821 1.334 . S
C1822 C1823 1.287 . S
C1823 C1822 1.287 . S
C1823 C1824 1.524 . S
C1823 H1826 0.999 . S
C1824 H1794 0.950 . S
C1824 C1823 1.524 . S
C1824 C1825 1.415 . S
C1825 H1795 0.950 . S
C1825 C1820 1.363 . S
C1825 C1824 1.415 . S
H1826 C1823 0.999 . S
H1827 C1808 0.913 . S
H1828 C1846 0.951 1_455 S
H1829 C1848 0.951 1_456 S
H1830 C1850 0.950 . S
H1831 C1851 0.950 . S
H1832 C1853 0.950 . S
H1833 C1856 0.950 . S
H1834 C1857 0.950 . S
H1835 C1859 0.950 . S
H1836 C1860 0.950 . S
H1837 C1861 0.951 . S
H1838 C1863 0.951 . S
H1839 C1865 0.950 . S
H1840 C1866 0.950 . S
H1841 C1868 0.950 . S
H1842 C1871 0.950 . S
H1843 C1872 0.950 . S
H1844 C1874 0.950 . S
H1845 C1875 0.950 . S
C1846 H1828 0.951 1_655 S
C1846 C1847 1.366 . S
C1846 C1848 1.388 . S
C1847 C1846 1.366 . S
C1847 C1851 1.385 . S
C1848 H1829 0.951 1_654 S
C1848 C1846 1.388 . S
C1848 C1849 1.366 . S
C1849 C1848 1.366 . S
C1849 C1850 1.414 . S
C1849 C1852 1.499 1_554 S
C1850 H1830 0.950 . S
C1850 C1849 1.414 . S
C1850 C1851 1.374 . S
C1851 H1831 0.950 . S
C1851 C1847 1.385 . S
C1851 C1850 1.374 . S
C1852 C1849 1.499 1_556 S
C1852 C1853 1.373 . S
C1852 C1854 1.389 . S
C1853 H1832 0.950 . S
C1853 C1852 1.373 . S
C1853 C1869 1.377 . S
C1854 C1852 1.389 . S
C1854 C1855 1.524 . S
C1854 C1868 1.377 . S
C1855 C1854 1.524 . S
C1855 C1856 1.397 . S
C1855 C1860 1.363 . S
C1856 H1833 0.950 . S
C1856 C1855 1.397 . S
C1856 C1857 1.334 . S
C1857 H1834 0.950 . S
C1857 C1856 1.334 . S
C1857 C1858 1.287 . S
C1858 C1857 1.287 . S
C1858 C1859 1.524 . S
C1858 H1877 0.913 . S
C1859 H1835 0.950 . S
C1859 C1858 1.524 . S
C1859 C1860 1.415 . S
C1860 H1836 0.950 . S
C1860 C1855 1.363 . S
C1860 C1859 1.415 . S
C1861 H1837 0.951 . S
C1861 C1862 1.366 . S
C1861 C1863 1.388 . S
C1862 C1861 1.366 . S
C1862 C1866 1.385 . S
C1863 H1838 0.951 . S
C1863 C1861 1.388 . S
C1863 C1864 1.366 . S
C1864 C1863 1.366 . S
C1864 C1865 1.414 . S
C1864 C1867 1.499 . S
C1865 H1839 0.950 . S
C1865 C1864 1.414 . S
C1865 C1866 1.374 . S
C1866 H1840 0.950 . S
C1866 C1862 1.385 . S
C1866 C1865 1.374 . S
C1867 C1864 1.499 . S
C1867 C1868 1.373 . S
C1867 C1869 1.389 . S
C1868 H1841 0.950 . S
C1868 C1854 1.377 . S
C1868 C1867 1.373 . S
C1869 C1853 1.377 . S
C1869 C1867 1.389 . S
C1869 C1870 1.524 . S
C1870 C1869 1.524 . S
C1870 C1871 1.397 . S
C1870 C1875 1.363 . S
C1871 H1842 0.950 . S
C1871 C1870 1.397 . S
C1871 C1872 1.334 . S
C1872 H1843 0.950 . S
C1872 C1871 1.334 . S
C1872 C1873 1.287 . S
C1873 C1872 1.287 . S
C1873 C1874 1.524 . S
C1873 H1876 1.023 . S
C1874 H1844 0.950 . S
C1874 C1873 1.524 . S
C1874 C1875 1.415 . S
C1875 H1845 0.950 . S
C1875 C1870 1.363 . S
C1875 C1874 1.415 . S
H1876 C1873 1.023 . S
H1877 C1858 0.913 . S
H1878 C1896 0.951 . S
H1879 C1898 0.951 . S
H1880 C1900 0.950 . S
H1881 C1901 0.950 . S
H1882 C1903 0.950 . S
H1883 C1906 0.950 . S
H1884 C1907 0.950 . S
H1885 C1909 0.950 . S
H1886 C1910 0.950 . S
H1887 C1911 0.951 . S
H1888 C1913 0.951 . S
H1889 C1915 0.950 . S
H1890 C1916 0.950 . S
H1891 C1918 0.950 . S
H1892 C1921 0.950 . S
H1893 C1922 0.950 . S
H1894 C1924 0.950 . S
H1895 C1925 0.950 . S
C1896 H1878 0.951 . S
C1896 C1897 1.366 . S
C1896 C1898 1.388 . S
C1897 C1896 1.366 . S
C1897 C1901 1.385 . S
C1898 H1879 0.951 . S
C1898 C1896 1.388 . S
C1898 C1899 1.366 . S
C1899 C1898 1.366 . S
C1899 C1900 1.414 . S
C1899 C1902 1.499 . S
C1900 H1880 0.950 . S
C1900 C1899 1.414 . S
C1900 C1901 1.374 . S
C1901 H1881 0.950 . S
C1901 C1897 1.385 . S
C1901 C1900 1.374 . S
C1902 C1899 1.499 . S
C1902 C1903 1.373 . S
C1902 C1904 1.389 . S
C1903 H1882 0.950 . S
C1903 C1902 1.373 . S
C1903 C1919 1.377 . S
C1904 C1902 1.389 . S
C1904 C1905 1.524 . S
C1904 C1918 1.377 . S
C1905 C1904 1.524 . S
C1905 C1906 1.397 . S
C1905 C1910 1.363 . S
C1906 H1883 0.950 . S
C1906 C1905 1.397 . S
C1906 C1907 1.334 . S
C1907 H1884 0.950 . S
C1907 C1906 1.334 . S
C1907 C1908 1.287 . S
C1908 C1907 1.287 . S
C1908 C1909 1.524 . S
C1908 H1927 0.913 . S
C1909 H1885 0.950 . S
C1909 C1908 1.524 . S
C1909 C1910 1.415 . S
C1910 H1886 0.950 . S
C1910 C1905 1.363 . S
C1910 C1909 1.415 . S
C1911 H1887 0.951 . S
C1911 C1912 1.366 . S
C1911 C1913 1.388 . S
C1912 C1911 1.366 . S
C1912 C1916 1.385 . S
C1913 H1888 0.951 . S
C1913 C1911 1.388 . S
C1913 C1914 1.366 . S
C1914 C1913 1.366 . S
C1914 C1915 1.414 . S
C1914 C1917 1.499 . S
C1915 H1889 0.950 . S
C1915 C1914 1.414 . S
C1915 C1916 1.374 . S
C1916 H1890 0.950 . S
C1916 C1912 1.385 . S
C1916 C1915 1.374 . S
C1917 C1914 1.499 . S
C1917 C1918 1.373 . S
C1917 C1919 1.389 . S
C1918 H1891 0.950 . S
C1918 C1904 1.377 . S
C1918 C1917 1.373 . S
C1919 C1903 1.377 . S
C1919 C1917 1.389 . S
C1919 C1920 1.524 . S
C1920 C1919 1.524 . S
C1920 C1921 1.397 . S
C1920 C1925 1.363 . S
C1921 H1892 0.950 . S
C1921 C1920 1.397 . S
C1921 C1922 1.334 . S
C1922 H1893 0.950 . S
C1922 C1921 1.334 . S
C1922 C1923 1.287 . S
C1923 C1922 1.287 . S
C1923 C1924 1.524 . S
C1923 H1926 0.999 . S
C1924 H1894 0.950 . S
C1924 C1923 1.524 . S
C1924 C1925 1.415 . S
C1925 H1895 0.950 . S
C1925 C1920 1.363 . S
C1925 C1924 1.415 . S
H1926 C1923 0.999 . S
H1927 C1908 0.913 . S
H1928 C1946 0.951 . S
H1929 C1948 0.951 1_554 S
H1930 C1950 0.950 . S
H1931 C1951 0.950 . S
H1932 C1953 0.950 . S
H1933 C1956 0.950 . S
H1934 C1957 0.950 . S
H1935 C1959 0.950 . S
H1936 C1960 0.950 . S
H1937 C1961 0.951 . S
H1938 C1963 0.951 . S
H1939 C1965 0.950 . S
H1940 C1966 0.950 . S
H1941 C1968 0.950 . S
H1942 C1971 0.950 . S
H1943 C1972 0.950 . S
H1944 C1974 0.950 . S
H1945 C1975 0.950 . S
C1946 H1928 0.951 . S
C1946 C1947 1.366 . S
C1946 C1948 1.388 . S
C1947 C1946 1.366 . S
C1947 C1951 1.385 . S
C1948 H1929 0.951 1_556 S
C1948 C1946 1.388 . S
C1948 C1949 1.366 1_556 S
C1949 C1948 1.366 1_554 S
C1949 C1950 1.414 . S
C1949 C1952 1.499 . S
C1950 H1930 0.950 . S
C1950 C1949 1.414 . S
C1950 C1951 1.374 1_554 S
C1951 H1931 0.950 . S
C1951 C1947 1.385 . S
C1951 C1950 1.374 1_556 S
C1952 C1949 1.499 . S
C1952 C1953 1.373 . S
C1952 C1954 1.389 . S
C1953 H1932 0.950 . S
C1953 C1952 1.373 . S
C1953 C1969 1.377 . S
C1954 C1952 1.389 . S
C1954 C1955 1.524 . S
C1954 C1968 1.377 . S
C1955 C1954 1.524 . S
C1955 C1956 1.397 . S
C1955 C1960 1.363 . S
C1956 H1933 0.950 . S
C1956 C1955 1.397 . S
C1956 C1957 1.334 . S
C1957 H1934 0.950 . S
C1957 C1956 1.334 . S
C1957 C1958 1.287 . S
C1958 C1957 1.287 . S
C1958 C1959 1.524 . S
C1958 H1977 0.913 . S
C1959 H1935 0.950 . S
C1959 C1958 1.524 . S
C1959 C1960 1.415 . S
C1960 H1936 0.950 . S
C1960 C1955 1.363 . S
C1960 C1959 1.415 . S
C1961 H1937 0.951 . S
C1961 C1962 1.366 . S
C1961 C1963 1.388 . S
C1962 C1961 1.366 . S
C1962 C1966 1.385 . S
C1963 H1938 0.951 . S
C1963 C1961 1.388 . S
C1963 C1964 1.366 . S
C1964 C1963 1.366 . S
C1964 C1965 1.414 . S
C1964 C1967 1.499 . S
C1965 H1939 0.950 . S
C1965 C1964 1.414 . S
C1965 C1966 1.374 . S
C1966 H1940 0.950 . S
C1966 C1962 1.385 . S
C1966 C1965 1.374 . S
C1967 C1964 1.499 . S
C1967 C1968 1.373 . S
C1967 C1969 1.389 . S
C1968 H1941 0.950 . S
C1968 C1954 1.377 . S
C1968 C1967 1.373 . S
C1969 C1953 1.377 . S
C1969 C1967 1.389 . S
C1969 C1970 1.524 . S
C1970 C1969 1.524 . S
C1970 C1971 1.397 . S
C1970 C1975 1.363 . S
C1971 H1942 0.950 . S
C1971 C1970 1.397 . S
C1971 C1972 1.334 . S
C1972 H1943 0.950 . S
C1972 C1971 1.334 . S
C1972 C1973 1.287 . S
C1973 C1972 1.287 . S
C1973 C1974 1.524 . S
C1973 H1976 0.999 . S
C1974 H1944 0.950 . S
C1974 C1973 1.524 . S
C1974 C1975 1.415 . S
C1975 H1945 0.950 . S
C1975 C1970 1.363 . S
C1975 C1974 1.415 . S
H1976 C1973 0.999 . S
H1977 C1958 0.913 . S
H1978 C1996 0.951 . S
H1979 C1998 0.951 . S
H1980 C2000 0.950 . S
H1981 C2001 0.950 . S
H1982 C2003 0.950 . S
H1983 C2006 0.950 . S
H1984 C2007 0.950 . S
H1985 C2009 0.950 . S
H1986 C2010 0.950 . S
H1987 C2011 0.951 . S
H1988 C2013 0.951 . S
H1989 C2015 0.950 . S
H1990 C2016 0.950 . S
H1991 C2018 0.950 . S
H1992 C2021 0.950 . S
H1993 C2022 0.950 . S
H1994 C2024 0.950 . S
H1995 C2025 0.950 . S
C1996 H1978 0.951 . S
C1996 C1997 1.366 . S
C1996 C1998 1.388 . S
C1997 C1996 1.366 . S
C1997 C2001 1.385 . S
C1998 H1979 0.951 . S
C1998 C1996 1.388 . S
C1998 C1999 1.366 . S
C1999 C1998 1.366 . S
C1999 C2000 1.414 . S
C1999 C2002 1.499 . S
C2000 H1980 0.950 . S
C2000 C1999 1.414 . S
C2000 C2001 1.374 . S
C2001 H1981 0.950 . S
C2001 C1997 1.385 . S
C2001 C2000 1.374 . S
C2002 C1999 1.499 . S
C2002 C2003 1.373 . S
C2002 C2004 1.389 . S
C2003 H1982 0.950 . S
C2003 C2002 1.373 . S
C2003 C2019 1.377 . S
C2004 C2002 1.389 . S
C2004 C2005 1.524 . S
C2004 C2018 1.377 . S
C2005 C2004 1.524 . S
C2005 C2006 1.397 . S
C2005 C2010 1.363 . S
C2006 H1983 0.950 . S
C2006 C2005 1.397 . S
C2006 C2007 1.334 . S
C2007 H1984 0.950 . S
C2007 C2006 1.334 . S
C2007 C2008 1.287 . S
C2008 C2007 1.287 . S
C2008 C2009 1.524 . S
C2008 H2027 0.913 . S
C2009 H1985 0.950 . S
C2009 C2008 1.524 . S
C2009 C2010 1.415 . S
C2010 H1986 0.950 . S
C2010 C2005 1.363 . S
C2010 C2009 1.415 . S
C2011 H1987 0.951 . S
C2011 C2012 1.366 . S
C2011 C2013 1.388 . S
C2012 C2011 1.366 . S
C2012 C2016 1.385 . S
C2013 H1988 0.951 . S
C2013 C2011 1.388 . S
C2013 C2014 1.366 . S
C2014 C2013 1.366 . S
C2014 C2015 1.414 . S
C2014 C2017 1.499 . S
C2015 H1989 0.950 . S
C2015 C2014 1.414 . S
C2015 C2016 1.374 . S
C2016 H1990 0.950 . S
C2016 C2012 1.385 . S
C2016 C2015 1.374 . S
C2017 C2014 1.499 . S
C2017 C2018 1.373 . S
C2017 C2019 1.389 . S
C2018 H1991 0.950 . S
C2018 C2004 1.377 . S
C2018 C2017 1.373 . S
C2019 C2003 1.377 . S
C2019 C2017 1.389 . S
C2019 C2020 1.524 . S
C2020 C2019 1.524 . S
C2020 C2021 1.397 . S
C2020 C2025 1.363 . S
C2021 H1992 0.950 . S
C2021 C2020 1.397 . S
C2021 C2022 1.334 . S
C2022 H1993 0.950 . S
C2022 C2021 1.334 . S
C2022 C2023 1.287 . S
C2023 C2022 1.287 . S
C2023 C2024 1.524 . S
C2023 H2026 0.999 . S
C2024 H1994 0.950 . S
C2024 C2023 1.524 . S
C2024 C2025 1.415 . S
C2025 H1995 0.950 . S
C2025 C2020 1.363 . S
C2025 C2024 1.415 . S
H2026 C2023 0.999 . S
H2027 C2008 0.913 . S
H2028 C2046 0.951 . S
H2029 C2048 0.951 . S
H2030 C2050 0.950 . S
H2031 C2051 0.950 . S
H2032 C2053 0.950 . S
H2033 C2056 0.950 . S
H2034 C2057 0.950 . S
H2035 C2059 0.950 . S
H2036 C2060 0.950 . S
H2037 C2061 0.951 . S
H2038 C2063 0.951 . S
H2039 C2065 0.950 . S
H2040 C2066 0.950 . S
H2041 C2068 0.950 . S
H2042 C2071 0.950 . S
H2043 C2072 0.950 . S
H2044 C2074 0.950 . S
H2045 C2075 0.950 . S
C2046 H2028 0.951 . S
C2046 C2047 1.366 . S
C2046 C2048 1.388 . S
C2047 C2046 1.366 . S
C2047 C2051 1.385 . S
C2048 H2029 0.951 . S
C2048 C2046 1.388 . S
C2048 C2049 1.366 . S
C2049 C2048 1.366 . S
C2049 C2050 1.414 . S
C2049 C2052 1.499 . S
C2050 H2030 0.950 . S
C2050 C2049 1.414 . S
C2050 C2051 1.374 . S
C2051 H2031 0.950 . S
C2051 C2047 1.385 . S
C2051 C2050 1.374 . S
C2052 C2049 1.499 . S
C2052 C2053 1.373 . S
C2052 C2054 1.389 . S
C2053 H2032 0.950 . S
C2053 C2052 1.373 . S
C2053 C2069 1.377 . S
C2054 C2052 1.389 . S
C2054 C2055 1.524 . S
C2054 C2068 1.377 . S
C2055 C2054 1.524 . S
C2055 C2056 1.397 . S
C2055 C2060 1.363 . S
C2056 H2033 0.950 . S
C2056 C2055 1.397 . S
C2056 C2057 1.334 . S
C2057 H2034 0.950 . S
C2057 C2056 1.334 . S
C2057 C2058 1.287 . S
C2058 C2057 1.287 . S
C2058 C2059 1.524 . S
C2058 H2077 0.913 . S
C2059 H2035 0.950 . S
C2059 C2058 1.524 . S
C2059 C2060 1.415 . S
C2060 H2036 0.950 . S
C2060 C2055 1.363 . S
C2060 C2059 1.415 . S
C2061 H2037 0.951 . S
C2061 C2062 1.366 . S
C2061 C2063 1.388 . S
C2062 C2061 1.366 . S
C2062 C2066 1.385 . S
C2063 H2038 0.951 . S
C2063 C2061 1.388 . S
C2063 C2064 1.366 . S
C2064 C2063 1.366 . S
C2064 C2065 1.414 . S
C2064 C2067 1.499 . S
C2065 H2039 0.950 . S
C2065 C2064 1.414 . S
C2065 C2066 1.374 . S
C2066 H2040 0.950 . S
C2066 C2062 1.385 . S
C2066 C2065 1.374 . S
C2067 C2064 1.499 . S
C2067 C2068 1.373 . S
C2067 C2069 1.389 . S
C2068 H2041 0.950 . S
C2068 C2054 1.377 . S
C2068 C2067 1.373 . S
C2069 C2053 1.377 . S
C2069 C2067 1.389 . S
C2069 C2070 1.524 . S
C2070 C2069 1.524 . S
C2070 C2071 1.397 1_655 S
C2070 C2075 1.363 . S
C2071 H2042 0.950 . S
C2071 C2070 1.397 1_455 S
C2071 C2072 1.334 . S
C2072 H2043 0.950 . S
C2072 C2071 1.334 . S
C2072 C2073 1.287 1_565 S
C2073 C2072 1.287 1_545 S
C2073 C2074 1.524 . S
C2073 H2076 0.999 . S
C2074 H2044 0.950 . S
C2074 C2073 1.524 . S
C2074 C2075 1.415 1_445 S
C2075 H2045 0.950 . S
C2075 C2070 1.363 . S
C2075 C2074 1.415 1_665 S
H2076 C2073 0.999 . S
H2077 C2058 0.913 . S
H2078 C2096 0.951 . S
H2079 C2098 0.951 . S
H2080 C2100 0.950 . S
H2081 C2101 0.950 . S
H2082 C2103 0.950 . S
H2083 C2106 0.950 . S
H2084 C2107 0.950 . S
H2085 C2109 0.950 . S
H2086 C2110 0.950 . S
H2087 C2111 0.951 . S
H2088 C2113 0.951 . S
H2089 C2115 0.950 . S
H2090 C2116 0.950 . S
H2091 C2118 0.950 . S
H2092 C2121 0.950 . S
H2093 C2122 0.950 . S
H2094 C2124 0.950 . S
H2095 C2125 0.950 . S
C2096 H2078 0.951 . S
C2096 C2097 1.366 . S
C2096 C2098 1.388 . S
C2097 C2096 1.366 . S
C2097 C2101 1.385 . S
C2098 H2079 0.951 . S
C2098 C2096 1.388 . S
C2098 C2099 1.366 . S
C2099 C2098 1.366 . S
C2099 C2100 1.414 . S
C2099 C2102 1.499 . S
C2100 H2080 0.950 . S
C2100 C2099 1.414 . S
C2100 C2101 1.374 . S
C2101 H2081 0.950 . S
C2101 C2097 1.385 . S
C2101 C2100 1.374 . S
C2102 C2099 1.499 . S
C2102 C2103 1.373 . S
C2102 C2104 1.389 . S
C2103 H2082 0.950 . S
C2103 C2102 1.373 . S
C2103 C2119 1.377 . S
C2104 C2102 1.389 . S
C2104 C2105 1.524 . S
C2104 C2118 1.377 . S
C2105 C2104 1.524 . S
C2105 C2106 1.397 . S
C2105 C2110 1.363 . S
C2106 H2083 0.950 . S
C2106 C2105 1.397 . S
C2106 C2107 1.334 . S
C2107 H2084 0.950 . S
C2107 C2106 1.334 . S
C2107 C2108 1.287 . S
C2108 C2107 1.287 . S
C2108 C2109 1.524 . S
C2108 H2127 0.913 . S
C2109 H2085 0.950 . S
C2109 C2108 1.524 . S
C2109 C2110 1.415 . S
C2110 H2086 0.950 . S
C2110 C2105 1.363 . S
C2110 C2109 1.415 . S
C2111 H2087 0.951 . S
C2111 C2112 1.366 . S
C2111 C2113 1.388 . S
C2112 C2111 1.366 . S
C2112 C2116 1.385 . S
C2113 H2088 0.951 . S
C2113 C2111 1.388 . S
C2113 C2114 1.366 . S
C2114 C2113 1.366 . S
C2114 C2115 1.414 . S
C2114 C2117 1.499 . S
C2115 H2089 0.950 . S
C2115 C2114 1.414 . S
C2115 C2116 1.374 . S
C2116 H2090 0.950 . S
C2116 C2112 1.385 . S
C2116 C2115 1.374 . S
C2117 C2114 1.499 . S
C2117 C2118 1.373 . S
C2117 C2119 1.389 . S
C2118 H2091 0.950 . S
C2118 C2104 1.377 . S
C2118 C2117 1.373 . S
C2119 C2103 1.377 . S
C2119 C2117 1.389 . S
C2119 C2120 1.524 . S
C2120 C2119 1.524 . S
C2120 C2121 1.397 . S
C2120 C2125 1.363 . S
C2121 H2092 0.950 . S
C2121 C2120 1.397 . S
C2121 C2122 1.334 . S
C2122 H2093 0.950 . S
C2122 C2121 1.334 . S
C2122 C2123 1.287 . S
C2123 C2122 1.287 . S
C2123 C2124 1.524 . S
C2123 H2126 0.999 . S
C2124 H2094 0.950 . S
C2124 C2123 1.524 . S
C2124 C2125 1.415 . S
C2125 H2095 0.950 . S
C2125 C2120 1.363 . S
C2125 C2124 1.415 . S
H2126 C2123 0.999 . S
H2127 C2108 0.913 . S
H2128 C2146 0.951 . S
H2129 C2148 0.951 . S
H2130 C2150 0.950 . S
H2131 C2151 0.950 . S
H2132 C2153 0.950 . S
H2133 C2156 0.950 . S
H2134 C2157 0.950 . S
H2135 C2159 0.950 . S
H2136 C2160 0.950 . S
H2137 C2161 0.951 . S
H2138 C2163 0.951 . S
H2139 C2165 0.950 . S
H2140 C2166 0.950 . S
H2141 C2168 0.950 . S
H2142 C2171 0.950 . S
H2143 C2172 0.950 . S
H2144 C2174 0.950 . S
H2145 C2175 0.950 . S
C2146 H2128 0.951 . S
C2146 C2147 1.366 . S
C2146 C2148 1.388 . S
C2147 C2146 1.366 . S
C2147 C2151 1.385 . S
C2148 H2129 0.951 . S
C2148 C2146 1.388 . S
C2148 C2149 1.366 . S
C2149 C2148 1.366 . S
C2149 C2150 1.414 . S
C2149 C2152 1.499 . S
C2150 H2130 0.950 . S
C2150 C2149 1.414 . S
C2150 C2151 1.374 . S
C2151 H2131 0.950 . S
C2151 C2147 1.385 . S
C2151 C2150 1.374 . S
C2152 C2149 1.499 . S
C2152 C2153 1.373 . S
C2152 C2154 1.389 . S
C2153 H2132 0.950 . S
C2153 C2152 1.373 . S
C2153 C2169 1.377 . S
C2154 C2152 1.389 . S
C2154 C2155 1.524 . S
C2154 C2168 1.377 . S
C2155 C2154 1.524 . S
C2155 C2156 1.397 . S
C2155 C2160 1.363 . S
C2156 H2133 0.950 . S
C2156 C2155 1.397 . S
C2156 C2157 1.334 . S
C2157 H2134 0.950 . S
C2157 C2156 1.334 . S
C2157 C2158 1.287 . S
C2158 C2157 1.287 . S
C2158 C2159 1.524 . S
C2158 H2177 0.913 . S
C2159 H2135 0.950 . S
C2159 C2158 1.524 . S
C2159 C2160 1.415 . S
C2160 H2136 0.950 . S
C2160 C2155 1.363 . S
C2160 C2159 1.415 . S
C2161 H2137 0.951 . S
C2161 C2162 1.366 . S
C2161 C2163 1.388 . S
C2162 C2161 1.366 . S
C2162 C2166 1.385 . S
C2163 H2138 0.951 . S
C2163 C2161 1.388 . S
C2163 C2164 1.366 . S
C2164 C2163 1.366 . S
C2164 C2165 1.414 . S
C2164 C2167 1.499 . S
C2165 H2139 0.950 . S
C2165 C2164 1.414 . S
C2165 C2166 1.374 . S
C2166 H2140 0.950 . S
C2166 C2162 1.385 . S
C2166 C2165 1.374 . S
C2167 C2164 1.499 . S
C2167 C2168 1.373 . S
C2167 C2169 1.389 . S
C2168 H2141 0.950 . S
C2168 C2154 1.377 . S
C2168 C2167 1.373 . S
C2169 C2153 1.377 . S
C2169 C2167 1.389 . S
C2169 C2170 1.524 . S
C2170 C2169 1.524 . S
C2170 C2171 1.397 . S
C2170 C2175 1.363 . S
C2171 H2142 0.950 . S
C2171 C2170 1.397 . S
C2171 C2172 1.334 . S
C2172 H2143 0.950 . S
C2172 C2171 1.334 . S
C2172 C2173 1.287 . S
C2173 C2172 1.287 . S
C2173 C2174 1.524 . S
C2173 H2176 0.999 . S
C2174 H2144 0.950 . S
C2174 C2173 1.524 . S
C2174 C2175 1.415 . S
C2175 H2145 0.950 . S
C2175 C2170 1.363 . S
C2175 C2174 1.415 . S
H2176 C2173 0.999 . S
H2177 C2158 0.913 . S
H2178 C2196 0.951 . S
H2179 C2198 0.951 . S
H2180 C2200 0.950 . S
H2181 C2201 0.950 . S
H2182 C2203 0.950 . S
H2183 C2206 0.950 . S
H2184 C2207 0.950 1_556 S
H2185 C2209 0.950 . S
H2186 C2210 0.950 . S
H2187 C2211 0.951 . S
H2188 C2213 0.951 . S
H2189 C2215 0.950 . S
H2190 C2216 0.950 . S
H2191 C2218 0.950 . S
H2192 C2221 0.950 . S
H2193 C2222 0.950 . S
H2194 C2224 0.950 . S
H2195 C2225 0.950 . S
C2196 H2178 0.951 . S
C2196 C2197 1.366 . S
C2196 C2198 1.388 . S
C2197 C2196 1.366 . S
C2197 C2201 1.385 . S
C2198 H2179 0.951 . S
C2198 C2196 1.388 . S
C2198 C2199 1.366 . S
C2199 C2198 1.366 . S
C2199 C2200 1.414 . S
C2199 C2202 1.499 . S
C2200 H2180 0.950 . S
C2200 C2199 1.414 . S
C2200 C2201 1.374 . S
C2201 H2181 0.950 . S
C2201 C2197 1.385 . S
C2201 C2200 1.374 . S
C2202 C2199 1.499 . S
C2202 C2203 1.373 . S
C2202 C2204 1.389 . S
C2203 H2182 0.950 . S
C2203 C2202 1.373 . S
C2203 C2219 1.377 . S
C2204 C2202 1.389 . S
C2204 C2205 1.524 . S
C2204 C2218 1.377 . S
C2205 C2204 1.524 . S
C2205 C2206 1.397 . S
C2205 C2210 1.363 . S
C2206 H2183 0.950 . S
C2206 C2205 1.397 . S
C2206 C2207 1.334 . S
C2207 H2184 0.950 1_554 S
C2207 C2206 1.334 . S
C2207 C2208 1.287 . S
C2208 C2207 1.287 . S
C2208 C2209 1.524 . S
C2208 H2227 0.913 1_554 S
C2209 H2185 0.950 . S
C2209 C2208 1.524 . S
C2209 C2210 1.415 . S
C2210 H2186 0.950 . S
C2210 C2205 1.363 . S
C2210 C2209 1.415 . S
C2211 H2187 0.951 . S
C2211 C2212 1.366 . S
C2211 C2213 1.388 . S
C2212 C2211 1.366 . S
C2212 C2216 1.385 . S
C2213 H2188 0.951 . S
C2213 C2211 1.388 . S
C2213 C2214 1.366 . S
C2214 C2213 1.366 . S
C2214 C2215 1.414 . S
C2214 C2217 1.499 . S
C2215 H2189 0.950 . S
C2215 C2214 1.414 . S
C2215 C2216 1.374 . S
C2216 H2190 0.950 . S
C2216 C2212 1.385 . S
C2216 C2215 1.374 . S
C2217 C2214 1.499 . S
C2217 C2218 1.373 . S
C2217 C2219 1.389 . S
C2218 H2191 0.950 . S
C2218 C2204 1.377 . S
C2218 C2217 1.373 . S
C2219 C2203 1.377 . S
C2219 C2217 1.389 . S
C2219 C2220 1.524 . S
C2220 C2219 1.524 . S
C2220 C2221 1.397 . S
C2220 C2225 1.363 . S
C2221 H2192 0.950 . S
C2221 C2220 1.397 . S
C2221 C2222 1.334 . S
C2222 H2193 0.950 . S
C2222 C2221 1.334 . S
C2222 C2223 1.287 . S
C2223 C2222 1.287 . S
C2223 C2224 1.524 . S
C2223 H2226 0.999 . S
C2224 H2194 0.950 . S
C2224 C2223 1.524 . S
C2224 C2225 1.415 . S
C2225 H2195 0.950 . S
C2225 C2220 1.363 . S
C2225 C2224 1.415 . S
H2226 C2223 0.999 . S
H2227 C2208 0.913 1_556 S
H2228 C2246 0.951 . S
H2229 C2248 0.951 . S
H2230 C2250 0.950 . S
H2231 C2251 0.950 . S
H2232 C2253 0.950 . S
H2233 C2256 0.950 . S
H2234 C2257 0.950 . S
H2235 C2259 0.950 . S
H2236 C2260 0.950 . S
H2237 C2261 0.951 . S
H2238 C2263 0.951 . S
H2239 C2265 0.950 . S
H2240 C2266 0.950 . S
H2241 C2268 0.950 . S
H2242 C2271 0.950 . S
H2243 C2272 0.950 . S
H2244 C2274 0.950 . S
H2245 C2275 0.950 . S
C2246 H2228 0.951 . S
C2246 C2247 1.366 1_455 S
C2246 C2248 1.388 . S
C2247 C2246 1.366 1_655 S
C2247 C2251 1.385 . S
C2248 H2229 0.951 . S
C2248 C2246 1.388 . S
C2248 C2249 1.366 . S
C2249 C2248 1.366 . S
C2249 C2250 1.414 . S
C2249 C2252 1.499 . S
C2250 H2230 0.950 . S
C2250 C2249 1.414 . S
C2250 C2251 1.374 1_455 S
C2251 H2231 0.950 . S
C2251 C2247 1.385 . S
C2251 C2250 1.374 1_655 S
C2252 C2249 1.499 . S
C2252 C2253 1.373 . S
C2252 C2254 1.389 . S
C2253 H2232 0.950 . S
C2253 C2252 1.373 . S
C2253 C2269 1.377 . S
C2254 C2252 1.389 . S
C2254 C2255 1.524 . S
C2254 C2268 1.377 . S
C2255 C2254 1.524 . S
C2255 C2256 1.397 . S
C2255 C2260 1.363 . S
C2256 H2233 0.950 . S
C2256 C2255 1.397 . S
C2256 C2257 1.334 . S
C2257 H2234 0.950 . S
C2257 C2256 1.334 . S
C2257 C2258 1.287 . S
C2258 C2257 1.287 . S
C2258 C2259 1.524 . S
C2258 H2277 0.913 . S
C2259 H2235 0.950 . S
C2259 C2258 1.524 . S
C2259 C2260 1.415 . S
C2260 H2236 0.950 . S
C2260 C2255 1.363 . S
C2260 C2259 1.415 . S
C2261 H2237 0.951 . S
C2261 C2262 1.366 . S
C2261 C2263 1.388 . S
C2262 C2261 1.366 . S
C2262 C2266 1.385 . S
C2263 H2238 0.951 . S
C2263 C2261 1.388 . S
C2263 C2264 1.366 . S
C2264 C2263 1.366 . S
C2264 C2265 1.414 . S
C2264 C2267 1.499 . S
C2265 H2239 0.950 . S
C2265 C2264 1.414 . S
C2265 C2266 1.374 . S
C2266 H2240 0.950 . S
C2266 C2262 1.385 . S
C2266 C2265 1.374 . S
C2267 C2264 1.499 . S
C2267 C2268 1.373 . S
C2267 C2269 1.389 . S
C2268 H2241 0.950 . S
C2268 C2254 1.377 . S
C2268 C2267 1.373 . S
C2269 C2253 1.377 . S
C2269 C2267 1.389 . S
C2269 C2270 1.524 . S
C2270 C2269 1.524 . S
C2270 C2271 1.397 . S
C2270 C2275 1.363 . S
C2271 H2242 0.950 . S
C2271 C2270 1.397 . S
C2271 C2272 1.334 . S
C2272 H2243 0.950 . S
C2272 C2271 1.334 . S
C2272 C2273 1.287 . S
C2273 C2272 1.287 . S
C2273 C2274 1.524 . S
C2273 H2276 0.999 . S
C2274 H2244 0.950 . S
C2274 C2273 1.524 . S
C2274 C2275 1.415 . S
C2275 H2245 0.950 . S
C2275 C2270 1.363 . S
C2275 C2274 1.415 . S
H2276 C2273 0.999 . S
H2277 C2258 0.913 . S
H2278 C2296 0.951 . S
H2279 C2298 0.951 . S
H2280 C2300 0.950 . S
H2281 C2301 0.950 . S
H2282 C2303 0.950 . S
H2283 C2306 0.950 . S
H2284 C2307 0.950 . S
H2285 C2309 0.950 . S
H2286 C2310 0.950 . S
H2287 C2311 0.951 . S
H2288 C2313 0.951 . S
H2289 C2315 0.950 . S
H2290 C2316 0.950 . S
H2291 C2318 0.950 . S
H2292 C2321 0.950 . S
H2293 C2322 0.950 . S
H2294 C2324 0.950 . S
H2295 C2325 0.950 . S
C2296 H2278 0.951 . S
C2296 C2297 1.366 . S
C2296 C2298 1.388 . S
C2297 C2296 1.366 . S
C2297 C2301 1.385 . S
C2298 H2279 0.951 . S
C2298 C2296 1.388 . S
C2298 C2299 1.366 . S
C2299 C2298 1.366 . S
C2299 C2300 1.414 . S
C2299 C2302 1.499 . S
C2300 H2280 0.950 . S
C2300 C2299 1.414 . S
C2300 C2301 1.374 . S
C2301 H2281 0.950 . S
C2301 C2297 1.385 . S
C2301 C2300 1.374 . S
C2302 C2299 1.499 . S
C2302 C2303 1.373 . S
C2302 C2304 1.389 . S
C2303 H2282 0.950 . S
C2303 C2302 1.373 . S
C2303 C2319 1.377 . S
C2304 C2302 1.389 . S
C2304 C2305 1.524 . S
C2304 C2318 1.377 . S
C2305 C2304 1.524 . S
C2305 C2306 1.397 . S
C2305 C2310 1.363 . S
C2306 H2283 0.950 . S
C2306 C2305 1.397 . S
C2306 C2307 1.334 . S
C2307 H2284 0.950 . S
C2307 C2306 1.334 . S
C2307 C2308 1.287 . S
C2308 C2307 1.287 . S
C2308 C2309 1.524 . S
C2308 H2327 0.913 . S
C2309 H2285 0.950 . S
C2309 C2308 1.524 . S
C2309 C2310 1.415 . S
C2310 H2286 0.950 . S
C2310 C2305 1.363 . S
C2310 C2309 1.415 . S
C2311 H2287 0.951 . S
C2311 C2312 1.366 . S
C2311 C2313 1.388 . S
C2312 C2311 1.366 . S
C2312 C2316 1.385 . S
C2313 H2288 0.951 . S
C2313 C2311 1.388 . S
C2313 C2314 1.366 . S
C2314 C2313 1.366 . S
C2314 C2315 1.414 . S
C2314 C2317 1.499 . S
C2315 H2289 0.950 . S
C2315 C2314 1.414 . S
C2315 C2316 1.374 . S
C2316 H2290 0.950 . S
C2316 C2312 1.385 . S
C2316 C2315 1.374 . S
C2317 C2314 1.499 . S
C2317 C2318 1.373 . S
C2317 C2319 1.389 . S
C2318 H2291 0.950 . S
C2318 C2304 1.377 . S
C2318 C2317 1.373 . S
C2319 C2303 1.377 . S
C2319 C2317 1.389 . S
C2319 C2320 1.524 . S
C2320 C2319 1.524 . S
C2320 C2321 1.397 . S
C2320 C2325 1.363 . S
C2321 H2292 0.950 . S
C2321 C2320 1.397 . S
C2321 C2322 1.334 . S
C2322 H2293 0.950 . S
C2322 C2321 1.334 . S
C2322 C2323 1.287 . S
C2323 C2322 1.287 . S
C2323 C2324 1.524 . S
C2323 H2326 0.999 . S
C2324 H2294 0.950 . S
C2324 C2323 1.524 . S
C2324 C2325 1.415 . S
C2325 H2295 0.950 . S
C2325 C2320 1.363 . S
C2325 C2324 1.415 . S
H2326 C2323 0.999 . S
H2327 C2308 0.913 . S
H2328 C2346 0.951 . S
H2329 C2348 0.951 . S
H2330 C2350 0.950 . S
H2331 C2351 0.950 . S
H2332 C2353 0.950 . S
H2333 C2356 0.950 . S
H2334 C2357 0.950 . S
H2335 C2359 0.950 . S
H2336 C2360 0.950 . S
H2337 C2361 0.951 . S
H2338 C2363 0.951 . S
H2339 C2365 0.950 . S
H2340 C2366 0.950 . S
H2341 C2368 0.950 . S
H2342 C2371 0.950 . S
H2343 C2372 0.950 . S
H2344 C2374 0.950 . S
H2345 C2375 0.950 . S
C2346 H2328 0.951 . S
C2346 C2347 1.366 . S
C2346 C2348 1.388 . S
C2347 C2346 1.366 . S
C2347 C2351 1.385 . S
C2348 H2329 0.951 . S
C2348 C2346 1.388 . S
C2348 C2349 1.366 . S
C2349 C2348 1.366 . S
C2349 C2350 1.414 . S
C2349 C2352 1.499 . S
C2350 H2330 0.950 . S
C2350 C2349 1.414 . S
C2350 C2351 1.374 . S
C2351 H2331 0.950 . S
C2351 C2347 1.385 . S
C2351 C2350 1.374 . S
C2352 C2349 1.499 . S
C2352 C2353 1.373 . S
C2352 C2354 1.389 . S
C2353 H2332 0.950 . S
C2353 C2352 1.373 . S
C2353 C2369 1.377 . S
C2354 C2352 1.389 . S
C2354 C2355 1.524 . S
C2354 C2368 1.377 . S
C2355 C2354 1.524 . S
C2355 C2356 1.397 . S
C2355 C2360 1.363 . S
C2356 H2333 0.950 . S
C2356 C2355 1.397 . S
C2356 C2357 1.334 . S
C2357 H2334 0.950 . S
C2357 C2356 1.334 . S
C2357 C2358 1.287 . S
C2358 C2357 1.287 . S
C2358 C2359 1.524 . S
C2358 H2377 0.913 . S
C2359 H2335 0.950 . S
C2359 C2358 1.524 . S
C2359 C2360 1.415 . S
C2360 H2336 0.950 . S
C2360 C2355 1.363 . S
C2360 C2359 1.415 . S
C2361 H2337 0.951 . S
C2361 C2362 1.366 . S
C2361 C2363 1.388 . S
C2362 C2361 1.366 . S
C2362 C2366 1.385 . S
C2363 H2338 0.951 . S
C2363 C2361 1.388 . S
C2363 C2364 1.366 . S
C2364 C2363 1.366 . S
C2364 C2365 1.414 . S
C2364 C2367 1.499 . S
C2365 H2339 0.950 . S
C2365 C2364 1.414 . S
C2365 C2366 1.374 . S
C2366 H2340 0.950 . S
C2366 C2362 1.385 . S
C2366 C2365 1.374 . S
C2367 C2364 1.499 . S
C2367 C2368 1.373 . S
C2367 C2369 1.389 . S
C2368 H2341 0.950 . S
C2368 C2354 1.377 . S
C2368 C2367 1.373 . S
C2369 C2353 1.377 . S
C2369 C2367 1.389 . S
C2369 C2370 1.524 . S
C2370 C2369 1.524 . S
C2370 C2371 1.397 . S
C2370 C2375 1.363 . S
C2371 H2342 0.950 . S
C2371 C2370 1.397 . S
C2371 C2372 1.334 . S
C2372 H2343 0.950 . S
C2372 C2371 1.334 . S
C2372 C2373 1.287 . S
C2373 C2372 1.287 . S
C2373 C2374 1.524 . S
C2373 H2376 0.999 . S
C2374 H2344 0.950 . S
C2374 C2373 1.524 . S
C2374 C2375 1.415 . S
C2375 H2345 0.950 . S
C2375 C2370 1.363 . S
C2375 C2374 1.415 . S
H2376 C2373 0.999 . S
H2377 C2358 0.913 . S
H2378 C2396 0.951 . S
H2379 C2398 0.951 . S
H2380 C2400 0.950 . S
H2381 C2401 0.950 . S
H2382 C2403 0.950 . S
H2383 C2406 0.950 . S
H2384 C2407 0.950 . S
H2385 C2409 0.950 . S
H2386 C2410 0.950 . S
H2387 C2411 0.951 . S
H2388 C2413 0.951 . S
H2389 C2415 0.950 . S
H2390 C2416 0.950 . S
H2391 C2418 0.950 . S
H2392 C2421 0.950 . S
H2393 C2422 0.950 . S
H2394 C2424 0.950 . S
H2395 C2425 0.950 . S
C2396 H2378 0.951 . S
C2396 C2397 1.366 . S
C2396 C2398 1.388 . S
C2397 C2396 1.366 . S
C2397 C2401 1.385 . S
C2398 H2379 0.951 . S
C2398 C2396 1.388 . S
C2398 C2399 1.366 . S
C2399 C2398 1.366 . S
C2399 C2400 1.414 . S
C2399 C2402 1.499 . S
C2400 H2380 0.950 . S
C2400 C2399 1.414 . S
C2400 C2401 1.374 . S
C2401 H2381 0.950 . S
C2401 C2397 1.385 . S
C2401 C2400 1.374 . S
C2402 C2399 1.499 . S
C2402 C2403 1.373 . S
C2402 C2404 1.389 . S
C2403 H2382 0.950 . S
C2403 C2402 1.373 . S
C2403 C2419 1.377 . S
C2404 C2402 1.389 . S
C2404 C2405 1.524 . S
C2404 C2418 1.377 . S
C2405 C2404 1.524 . S
C2405 C2406 1.397 . S
C2405 C2410 1.363 . S
C2406 H2383 0.950 . S
C2406 C2405 1.397 . S
C2406 C2407 1.334 . S
C2407 H2384 0.950 . S
C2407 C2406 1.334 . S
C2407 C2408 1.287 . S
C2408 C2407 1.287 . S
C2408 C2409 1.524 . S
C2408 H2427 0.913 . S
C2409 H2385 0.950 . S
C2409 C2408 1.524 . S
C2409 C2410 1.415 . S
C2410 H2386 0.950 . S
C2410 C2405 1.363 . S
C2410 C2409 1.415 . S
C2411 H2387 0.951 . S
C2411 C2412 1.366 . S
C2411 C2413 1.388 . S
C2412 C2411 1.366 . S
C2412 C2416 1.385 . S
C2413 H2388 0.951 . S
C2413 C2411 1.388 . S
C2413 C2414 1.366 . S
C2414 C2413 1.366 . S
C2414 C2415 1.414 . S
C2414 C2417 1.499 . S
C2415 H2389 0.950 . S
C2415 C2414 1.414 . S
C2415 C2416 1.374 . S
C2416 H2390 0.950 . S
C2416 C2412 1.385 . S
C2416 C2415 1.374 . S
C2417 C2414 1.499 . S
C2417 C2418 1.373 . S
C2417 C2419 1.389 . S
C2418 H2391 0.950 . S
C2418 C2404 1.377 . S
C2418 C2417 1.373 . S
C2419 C2403 1.377 . S
C2419 C2417 1.389 . S
C2419 C2420 1.524 . S
C2420 C2419 1.524 . S
C2420 C2421 1.397 . S
C2420 C2425 1.363 . S
C2421 H2392 0.950 . S
C2421 C2420 1.397 . S
C2421 C2422 1.334 . S
C2422 H2393 0.950 . S
C2422 C2421 1.334 . S
C2422 C2423 1.287 . S
C2423 C2422 1.287 . S
C2423 C2424 1.524 . S
C2423 H2426 0.999 . S
C2424 H2394 0.950 . S
C2424 C2423 1.524 . S
C2424 C2425 1.415 . S
C2425 H2395 0.950 . S
C2425 C2420 1.363 . S
C2425 C2424 1.415 . S
H2426 C2423 0.999 . S
H2427 C2408 0.913 . S
H2428 C2446 0.951 . S
H2429 C2448 0.951 . S
H2430 C2450 0.950 . S
H2431 C2451 0.950 . S
H2432 C2453 0.950 . S
H2433 C2456 0.950 . S
H2434 C2457 0.950 . S
H2435 C2459 0.950 . S
H2436 C2460 0.950 . S
H2437 C2461 0.951 . S
H2438 C2463 0.951 . S
H2439 C2465 0.950 . S
H2440 C2466 0.950 . S
H2441 C2468 0.950 . S
H2442 C2471 0.950 . S
H2443 C2472 0.950 . S
H2444 C2474 0.950 . S
H2445 C2475 0.950 . S
C2446 H2428 0.951 . S
C2446 C2447 1.366 . S
C2446 C2448 1.388 1_655 S
C2447 C2446 1.366 . S
C2447 C2451 1.385 . S
C2448 H2429 0.951 . S
C2448 C2446 1.388 1_455 S
C2448 C2449 1.366 . S
C2449 C2448 1.366 . S
C2449 C2450 1.414 1_455 S
C2449 C2452 1.499 . S
C2450 H2430 0.950 . S
C2450 C2449 1.414 1_655 S
C2450 C2451 1.374 . S
C2451 H2431 0.950 . S
C2451 C2447 1.385 . S
C2451 C2450 1.374 . S
C2452 C2449 1.499 . S
C2452 C2453 1.373 . S
C2452 C2454 1.389 . S
C2453 H2432 0.950 . S
C2453 C2452 1.373 . S
C2453 C2469 1.377 . S
C2454 C2452 1.389 . S
C2454 C2455 1.524 . S
C2454 C2468 1.377 . S
C2455 C2454 1.524 . S
C2455 C2456 1.397 . S
C2455 C2460 1.363 . S
C2456 H2433 0.950 . S
C2456 C2455 1.397 . S
C2456 C2457 1.334 . S
C2457 H2434 0.950 . S
C2457 C2456 1.334 . S
C2457 C2458 1.287 . S
C2458 C2457 1.287 . S
C2458 C2459 1.524 . S
C2458 H2477 0.913 . S
C2459 H2435 0.950 . S
C2459 C2458 1.524 . S
C2459 C2460 1.415 . S
C2460 H2436 0.950 . S
C2460 C2455 1.363 . S
C2460 C2459 1.415 . S
C2461 H2437 0.951 . S
C2461 C2462 1.366 . S
C2461 C2463 1.388 . S
C2462 C2461 1.366 . S
C2462 C2466 1.385 . S
C2463 H2438 0.951 . S
C2463 C2461 1.388 . S
C2463 C2464 1.366 . S
C2464 C2463 1.366 . S
C2464 C2465 1.414 . S
C2464 C2467 1.499 . S
C2465 H2439 0.950 . S
C2465 C2464 1.414 . S
C2465 C2466 1.374 . S
C2466 H2440 0.950 . S
C2466 C2462 1.385 . S
C2466 C2465 1.374 . S
C2467 C2464 1.499 . S
C2467 C2468 1.373 . S
C2467 C2469 1.389 . S
C2468 H2441 0.950 . S
C2468 C2454 1.377 . S
C2468 C2467 1.373 . S
C2469 C2453 1.377 . S
C2469 C2467 1.389 . S
C2469 C2470 1.524 . S
C2470 C2469 1.524 . S
C2470 C2471 1.397 . S
C2470 C2475 1.363 . S
C2471 H2442 0.950 . S
C2471 C2470 1.397 . S
C2471 C2472 1.334 . S
C2472 H2443 0.950 . S
C2472 C2471 1.334 . S
C2472 C2473 1.287 . S
C2473 C2472 1.287 . S
C2473 C2474 1.524 . S
C2473 H2476 0.999 1_554 S
C2474 H2444 0.950 . S
C2474 C2473 1.524 . S
C2474 C2475 1.415 . S
C2475 H2445 0.950 . S
C2475 C2470 1.363 . S
C2475 C2474 1.415 . S
H2476 C2473 0.999 1_556 S
H2477 C2458 0.913 . S
H2478 C2496 0.951 . S
H2479 C2498 0.951 . S
H2480 C2500 0.950 . S
H2481 C2501 0.950 . S
H2482 C2503 0.950 . S
H2483 C2506 0.950 . S
H2484 C2507 0.950 . S
H2485 C2509 0.950 . S
H2486 C2510 0.950 . S
H2487 C2511 0.951 . S
H2488 C2513 0.951 . S
H2489 C2515 0.950 . S
H2490 C2516 0.950 . S
H2491 C2518 0.950 . S
H2492 C2521 0.950 . S
H2493 C2522 0.950 . S
H2494 C2524 0.950 . S
H2495 C2525 0.950 . S
C2496 H2478 0.951 . S
C2496 C2497 1.366 . S
C2496 C2498 1.388 . S
C2497 C2496 1.366 . S
C2497 C2501 1.385 . S
C2498 H2479 0.951 . S
C2498 C2496 1.388 . S
C2498 C2499 1.366 . S
C2499 C2498 1.366 . S
C2499 C2500 1.414 . S
C2499 C2502 1.499 . S
C2500 H2480 0.950 . S
C2500 C2499 1.414 . S
C2500 C2501 1.374 . S
C2501 H2481 0.950 . S
C2501 C2497 1.385 . S
C2501 C2500 1.374 . S
C2502 C2499 1.499 . S
C2502 C2503 1.373 . S
C2502 C2504 1.389 . S
C2503 H2482 0.950 . S
C2503 C2502 1.373 . S
C2503 C2519 1.377 . S
C2504 C2502 1.389 . S
C2504 C2505 1.524 . S
C2504 C2518 1.377 . S
C2505 C2504 1.524 . S
C2505 C2506 1.397 . S
C2505 C2510 1.363 . S
C2506 H2483 0.950 . S
C2506 C2505 1.397 . S
C2506 C2507 1.334 . S
C2507 H2484 0.950 . S
C2507 C2506 1.334 . S
C2507 C2508 1.287 . S
C2508 C2507 1.287 . S
C2508 C2509 1.524 . S
C2508 H2527 0.913 . S
C2509 H2485 0.950 . S
C2509 C2508 1.524 . S
C2509 C2510 1.415 . S
C2510 H2486 0.950 . S
C2510 C2505 1.363 . S
C2510 C2509 1.415 . S
C2511 H2487 0.951 . S
C2511 C2512 1.366 . S
C2511 C2513 1.388 . S
C2512 C2511 1.366 . S
C2512 C2516 1.385 . S
C2513 H2488 0.951 . S
C2513 C2511 1.388 . S
C2513 C2514 1.366 . S
C2514 C2513 1.366 . S
C2514 C2515 1.414 . S
C2514 C2517 1.499 . S
C2515 H2489 0.950 . S
C2515 C2514 1.414 . S
C2515 C2516 1.374 . S
C2516 H2490 0.950 . S
C2516 C2512 1.385 . S
C2516 C2515 1.374 . S
C2517 C2514 1.499 . S
C2517 C2518 1.373 . S
C2517 C2519 1.389 . S
C2518 H2491 0.950 . S
C2518 C2504 1.377 . S
C2518 C2517 1.373 . S
C2519 C2503 1.377 . S
C2519 C2517 1.389 . S
C2519 C2520 1.524 . S
C2520 C2519 1.524 . S
C2520 C2521 1.397 . S
C2520 C2525 1.363 . S
C2521 H2492 0.950 . S
C2521 C2520 1.397 . S
C2521 C2522 1.334 . S
C2522 H2493 0.950 . S
C2522 C2521 1.334 . S
C2522 C2523 1.287 . S
C2523 C2522 1.287 . S
C2523 C2524 1.524 . S
C2523 H2526 0.999 . S
C2524 H2494 0.950 . S
C2524 C2523 1.524 . S
C2524 C2525 1.415 . S
C2525 H2495 0.950 . S
C2525 C2520 1.363 . S
C2525 C2524 1.415 . S
H2526 C2523 0.999 . S
H2527 C2508 0.913 . S
H2528 C2546 0.951 . S
H2529 C2548 0.951 . S
H2530 C2550 0.950 . S
H2531 C2551 0.950 . S
H2532 C2553 0.950 . S
H2533 C2556 0.950 . S
H2534 C2557 0.950 . S
H2535 C2559 0.950 . S
H2536 C2560 0.950 . S
H2537 C2561 0.951 . S
H2538 C2563 0.951 . S
H2539 C2565 0.950 . S
H2540 C2566 0.950 . S
H2541 C2568 0.950 . S
H2542 C2571 0.950 . S
H2543 C2572 0.950 . S
H2544 C2574 0.950 . S
H2545 C2575 0.950 . S
C2546 H2528 0.951 . S
C2546 C2547 1.366 . S
C2546 C2548 1.388 . S
C2547 C2546 1.366 . S
C2547 C2551 1.385 . S
C2548 H2529 0.951 . S
C2548 C2546 1.388 . S
C2548 C2549 1.366 . S
C2549 C2548 1.366 . S
C2549 C2550 1.414 . S
C2549 C2552 1.499 . S
C2550 H2530 0.950 . S
C2550 C2549 1.414 . S
C2550 C2551 1.374 . S
C2551 H2531 0.950 . S
C2551 C2547 1.385 . S
C2551 C2550 1.374 . S
C2552 C2549 1.499 . S
C2552 C2553 1.373 . S
C2552 C2554 1.389 . S
C2553 H2532 0.950 . S
C2553 C2552 1.373 . S
C2553 C2569 1.377 . S
C2554 C2552 1.389 . S
C2554 C2555 1.524 . S
C2554 C2568 1.377 . S
C2555 C2554 1.524 . S
C2555 C2556 1.397 . S
C2555 C2560 1.363 . S
C2556 H2533 0.950 . S
C2556 C2555 1.397 . S
C2556 C2557 1.334 . S
C2557 H2534 0.950 . S
C2557 C2556 1.334 . S
C2557 C2558 1.287 . S
C2558 C2557 1.287 . S
C2558 C2559 1.524 . S
C2558 H2577 0.913 . S
C2559 H2535 0.950 . S
C2559 C2558 1.524 . S
C2559 C2560 1.415 . S
C2560 H2536 0.950 . S
C2560 C2555 1.363 . S
C2560 C2559 1.415 . S
C2561 H2537 0.951 . S
C2561 C2562 1.366 . S
C2561 C2563 1.388 . S
C2562 C2561 1.366 . S
C2562 C2566 1.385 . S
C2563 H2538 0.951 . S
C2563 C2561 1.388 . S
C2563 C2564 1.366 . S
C2564 C2563 1.366 . S
C2564 C2565 1.414 . S
C2564 C2567 1.499 . S
C2565 H2539 0.950 . S
C2565 C2564 1.414 . S
C2565 C2566 1.374 . S
C2566 H2540 0.950 . S
C2566 C2562 1.385 . S
C2566 C2565 1.374 . S
C2567 C2564 1.499 . S
C2567 C2568 1.373 . S
C2567 C2569 1.389 . S
C2568 H2541 0.950 . S
C2568 C2554 1.377 . S
C2568 C2567 1.373 . S
C2569 C2553 1.377 . S
C2569 C2567 1.389 . S
C2569 C2570 1.524 . S
C2570 C2569 1.524 . S
C2570 C2571 1.397 . S
C2570 C2575 1.363 . S
C2571 H2542 0.950 . S
C2571 C2570 1.397 . S
C2571 C2572 1.334 . S
C2572 H2543 0.950 . S
C2572 C2571 1.334 . S
C2572 C2573 1.287 . S
C2573 C2572 1.287 . S
C2573 C2574 1.524 . S
C2573 H2576 0.999 . S
C2574 H2544 0.950 . S
C2574 C2573 1.524 . S
C2574 C2575 1.415 . S
C2575 H2545 0.950 . S
C2575 C2570 1.363 . S
C2575 C2574 1.415 . S
H2576 C2573 0.999 . S
H2577 C2558 0.913 . S
H2578 C2596 0.951 1_565 S
H2579 C2598 0.951 . S
H2580 C2600 0.950 . S
H2581 C2601 0.950 . S
H2582 C2603 0.950 . S
H2583 C2606 0.950 . S
H2584 C2607 0.950 1_565 S
H2585 C2609 0.950 . S
H2586 C2610 0.950 . S
H2587 C2611 0.951 . S
H2588 C2613 0.951 . S
H2589 C2615 0.950 . S
H2590 C2616 0.950 . S
H2591 C2618 0.950 . S
H2592 C2621 0.950 . S
H2593 C2622 0.950 . S
H2594 C2624 0.950 . S
H2595 C2625 0.950 . S
C2596 H2578 0.951 1_545 S
C2596 C2597 1.366 1_545 S
C2596 C2598 1.388 . S
C2597 C2596 1.366 1_565 S
C2597 C2601 1.385 . S
C2598 H2579 0.951 . S
C2598 C2596 1.388 . S
C2598 C2599 1.366 . S
C2599 C2598 1.366 . S
C2599 C2600 1.414 . S
C2599 C2602 1.499 . S
C2600 H2580 0.950 . S
C2600 C2599 1.414 . S
C2600 C2601 1.374 1_545 S
C2601 H2581 0.950 . S
C2601 C2597 1.385 . S
C2601 C2600 1.374 1_565 S
C2602 C2599 1.499 . S
C2602 C2603 1.373 . S
C2602 C2604 1.389 . S
C2603 H2582 0.950 . S
C2603 C2602 1.373 . S
C2603 C2619 1.377 . S
C2604 C2602 1.389 . S
C2604 C2605 1.524 . S
C2604 C2618 1.377 . S
C2605 C2604 1.524 . S
C2605 C2606 1.397 . S
C2605 C2610 1.363 . S
C2606 H2583 0.950 . S
C2606 C2605 1.397 . S
C2606 C2607 1.334 . S
C2607 H2584 0.950 1_545 S
C2607 C2606 1.334 . S
C2607 C2608 1.287 . S
C2608 C2607 1.287 . S
C2608 C2609 1.524 . S
C2608 H2627 0.913 . S
C2609 H2585 0.950 . S
C2609 C2608 1.524 . S
C2609 C2610 1.415 . S
C2610 H2586 0.950 . S
C2610 C2605 1.363 . S
C2610 C2609 1.415 . S
C2611 H2587 0.951 . S
C2611 C2612 1.366 . S
C2611 C2613 1.388 . S
C2612 C2611 1.366 . S
C2612 C2616 1.385 . S
C2613 H2588 0.951 . S
C2613 C2611 1.388 . S
C2613 C2614 1.366 . S
C2614 C2613 1.366 . S
C2614 C2615 1.414 . S
C2614 C2617 1.499 . S
C2615 H2589 0.950 . S
C2615 C2614 1.414 . S
C2615 C2616 1.374 . S
C2616 H2590 0.950 . S
C2616 C2612 1.385 . S
C2616 C2615 1.374 . S
C2617 C2614 1.499 . S
C2617 C2618 1.373 . S
C2617 C2619 1.389 . S
C2618 H2591 0.950 . S
C2618 C2604 1.377 . S
C2618 C2617 1.373 . S
C2619 C2603 1.377 . S
C2619 C2617 1.389 . S
C2619 C2620 1.524 . S
C2620 C2619 1.524 . S
C2620 C2621 1.397 . S
C2620 C2625 1.363 . S
C2621 H2592 0.950 . S
C2621 C2620 1.397 . S
C2621 C2622 1.334 . S
C2622 H2593 0.950 . S
C2622 C2621 1.334 . S
C2622 C2623 1.287 . S
C2623 C2622 1.287 . S
C2623 C2624 1.524 . S
C2623 H2626 0.999 . S
C2624 H2594 0.950 . S
C2624 C2623 1.524 . S
C2624 C2625 1.415 . S
C2625 H2595 0.950 . S
C2625 C2620 1.363 . S
C2625 C2624 1.415 . S
H2626 C2623 0.999 . S
H2627 C2608 0.913 . S
H2628 C2646 0.951 . S
H2629 C2648 0.951 . S
H2630 C2650 0.950 . S
H2631 C2651 0.950 . S
H2632 C2653 0.950 . S
H2633 C2656 0.950 . S
H2634 C2657 0.950 . S
H2635 C2659 0.950 . S
H2636 C2660 0.950 . S
H2637 C2661 0.951 . S
H2638 C2663 0.951 . S
H2639 C2665 0.950 . S
H2640 C2666 0.950 . S
H2641 C2668 0.950 . S
H2642 C2671 0.950 . S
H2643 C2672 0.950 . S
H2644 C2674 0.950 . S
H2645 C2675 0.950 . S
C2646 H2628 0.951 . S
C2646 C2647 1.366 . S
C2646 C2648 1.388 . S
C2647 C2646 1.366 . S
C2647 C2651 1.385 . S
C2648 H2629 0.951 . S
C2648 C2646 1.388 . S
C2648 C2649 1.366 . S
C2649 C2648 1.366 . S
C2649 C2650 1.414 . S
C2649 C2652 1.499 . S
C2650 H2630 0.950 . S
C2650 C2649 1.414 . S
C2650 C2651 1.374 . S
C2651 H2631 0.950 . S
C2651 C2647 1.385 . S
C2651 C2650 1.374 . S
C2652 C2649 1.499 . S
C2652 C2653 1.373 . S
C2652 C2654 1.389 . S
C2653 H2632 0.950 . S
C2653 C2652 1.373 . S
C2653 C2669 1.377 . S
C2654 C2652 1.389 . S
C2654 C2655 1.524 . S
C2654 C2668 1.377 . S
C2655 C2654 1.524 . S
C2655 C2656 1.397 . S
C2655 C2660 1.363 . S
C2656 H2633 0.950 . S
C2656 C2655 1.397 . S
C2656 C2657 1.334 . S
C2657 H2634 0.950 . S
C2657 C2656 1.334 . S
C2657 C2658 1.287 . S
C2658 C2657 1.287 . S
C2658 C2659 1.524 . S
C2658 H2677 0.913 . S
C2659 H2635 0.950 . S
C2659 C2658 1.524 . S
C2659 C2660 1.415 . S
C2660 H2636 0.950 . S
C2660 C2655 1.363 . S
C2660 C2659 1.415 . S
C2661 H2637 0.951 . S
C2661 C2662 1.366 . S
C2661 C2663 1.388 . S
C2662 C2661 1.366 . S
C2662 C2666 1.385 . S
C2663 H2638 0.951 . S
C2663 C2661 1.388 . S
C2663 C2664 1.366 . S
C2664 C2663 1.366 . S
C2664 C2665 1.414 . S
C2664 C2667 1.499 . S
C2665 H2639 0.950 . S
C2665 C2664 1.414 . S
C2665 C2666 1.374 . S
C2666 H2640 0.950 . S
C2666 C2662 1.385 . S
C2666 C2665 1.374 . S
C2667 C2664 1.499 . S
C2667 C2668 1.373 . S
C2667 C2669 1.389 . S
C2668 H2641 0.950 . S
C2668 C2654 1.377 . S
C2668 C2667 1.373 . S
C2669 C2653 1.377 . S
C2669 C2667 1.389 . S
C2669 C2670 1.524 . S
C2670 C2669 1.524 . S
C2670 C2671 1.397 . S
C2670 C2675 1.363 . S
C2671 H2642 0.950 . S
C2671 C2670 1.397 . S
C2671 C2672 1.334 . S
C2672 H2643 0.950 . S
C2672 C2671 1.334 . S
C2672 C2673 1.287 . S
C2673 C2672 1.287 . S
C2673 C2674 1.524 . S
C2673 H2676 0.999 . S
C2674 H2644 0.950 . S
C2674 C2673 1.524 . S
C2674 C2675 1.415 . S
C2675 H2645 0.950 . S
C2675 C2670 1.363 . S
C2675 C2674 1.415 . S
H2676 C2673 0.999 . S
H2677 C2658 0.913 . S
H2678 C2696 0.951 . S
H2679 C2698 0.951 . S
H2680 C2700 0.950 . S
H2681 C2701 0.950 . S
H2682 C2703 0.950 1_545 S
H2683 C2706 0.950 . S
H2684 C2707 0.950 . S
H2685 C2709 0.950 . S
H2686 C2710 0.950 . S
H2687 C2711 0.951 . S
H2688 C2713 0.951 . S
H2689 C2715 0.950 . S
H2690 C2716 0.950 . S
H2691 C2718 0.950 . S
H2692 C2721 0.950 . S
H2693 C2722 0.950 . S
H2694 C2724 0.950 . S
H2695 C2725 0.950 1_545 S
C2696 H2678 0.951 . S
C2696 C2697 1.366 . S
C2696 C2698 1.388 . S
C2697 C2696 1.366 . S
C2697 C2701 1.385 . S
C2698 H2679 0.951 . S
C2698 C2696 1.388 . S
C2698 C2699 1.366 . S
C2699 C2698 1.366 . S
C2699 C2700 1.414 . S
C2699 C2702 1.499 1_545 S
C2700 H2680 0.950 . S
C2700 C2699 1.414 . S
C2700 C2701 1.374 . S
C2701 H2681 0.950 . S
C2701 C2697 1.385 . S
C2701 C2700 1.374 . S
C2702 C2699 1.499 1_565 S
C2702 C2703 1.373 . S
C2702 C2704 1.389 . S
C2703 H2682 0.950 1_565 S
C2703 C2702 1.373 . S
C2703 C2719 1.377 . S
C2704 C2702 1.389 . S
C2704 C2705 1.524 . S
C2704 C2718 1.377 . S
C2705 C2704 1.524 . S
C2705 C2706 1.397 1_565 S
C2705 C2710 1.363 . S
C2706 H2683 0.950 . S
C2706 C2705 1.397 1_545 S
C2706 C2707 1.334 . S
C2707 H2684 0.950 . S
C2707 C2706 1.334 . S
C2707 C2708 1.287 1_545 S
C2708 C2707 1.287 1_565 S
C2708 C2709 1.524 . S
C2708 H2727 0.913 . S
C2709 H2685 0.950 . S
C2709 C2708 1.524 . S
C2709 C2710 1.415 . S
C2710 H2686 0.950 . S
C2710 C2705 1.363 . S
C2710 C2709 1.415 . S
C2711 H2687 0.951 . S
C2711 C2712 1.366 . S
C2711 C2713 1.388 . S
C2712 C2711 1.366 . S
C2712 C2716 1.385 . S
C2713 H2688 0.951 . S
C2713 C2711 1.388 . S
C2713 C2714 1.366 . S
C2714 C2713 1.366 . S
C2714 C2715 1.414 . S
C2714 C2717 1.499 . S
C2715 H2689 0.950 . S
C2715 C2714 1.414 . S
C2715 C2716 1.374 . S
C2716 H2690 0.950 . S
C2716 C2712 1.385 . S
C2716 C2715 1.374 . S
C2717 C2714 1.499 . S
C2717 C2718 1.373 . S
C2717 C2719 1.389 . S
C2718 H2691 0.950 . S
C2718 C2704 1.377 . S
C2718 C2717 1.373 . S
C2719 C2703 1.377 . S
C2719 C2717 1.389 . S
C2719 C2720 1.524 . S
C2720 C2719 1.524 . S
C2720 C2721 1.397 1_556 S
C2720 C2725 1.363 . S
C2721 H2692 0.950 . S
C2721 C2720 1.397 1_554 S
C2721 C2722 1.334 . S
C2722 H2693 0.950 . S
C2722 C2721 1.334 . S
C2722 C2723 1.287 . S
C2723 C2722 1.287 . S
C2723 C2724 1.524 . S
C2723 H2726 0.999 . S
C2724 H2694 0.950 . S
C2724 C2723 1.524 . S
C2724 C2725 1.415 1_554 S
C2725 H2695 0.950 1_565 S
C2725 C2720 1.363 . S
C2725 C2724 1.415 1_556 S
H2726 C2723 0.999 . S
H2727 C2708 0.913 . S
H2728 C2746 0.951 . S
H2729 C2748 0.951 . S
H2730 C2750 0.950 . S
H2731 C2751 0.950 . S
H2732 C2753 0.950 . S
H2733 C2756 0.950 . S
H2734 C2757 0.950 . S
H2735 C2759 0.950 . S
H2736 C2760 0.950 . S
H2737 C2761 0.951 . S
H2738 C2763 0.951 . S
H2739 C2765 0.950 . S
H2740 C2766 0.950 . S
H2741 C2768 0.950 . S
H2742 C2771 0.950 . S
H2743 C2772 0.950 . S
H2744 C2774 0.950 . S
H2745 C2775 0.950 . S
C2746 H2728 0.951 . S
C2746 C2747 1.366 . S
C2746 C2748 1.388 . S
C2747 C2746 1.366 . S
C2747 C2751 1.385 . S
C2748 H2729 0.951 . S
C2748 C2746 1.388 . S
C2748 C2749 1.366 . S
C2749 C2748 1.366 . S
C2749 C2750 1.414 . S
C2749 C2752 1.499 . S
C2750 H2730 0.950 . S
C2750 C2749 1.414 . S
C2750 C2751 1.374 . S
C2751 H2731 0.950 . S
C2751 C2747 1.385 . S
C2751 C2750 1.374 . S
C2752 C2749 1.499 . S
C2752 C2753 1.373 . S
C2752 C2754 1.389 . S
C2753 H2732 0.950 . S
C2753 C2752 1.373 . S
C2753 C2769 1.377 . S
C2754 C2752 1.389 . S
C2754 C2755 1.524 . S
C2754 C2768 1.377 . S
C2755 C2754 1.524 . S
C2755 C2756 1.397 . S
C2755 C2760 1.363 . S
C2756 H2733 0.950 . S
C2756 C2755 1.397 . S
C2756 C2757 1.334 . S
C2757 H2734 0.950 . S
C2757 C2756 1.334 . S
C2757 C2758 1.287 . S
C2758 C2757 1.287 . S
C2758 C2759 1.524 . S
C2758 H2777 0.913 . S
C2759 H2735 0.950 . S
C2759 C2758 1.524 . S
C2759 C2760 1.415 . S
C2760 H2736 0.950 . S
C2760 C2755 1.363 . S
C2760 C2759 1.415 . S
C2761 H2737 0.951 . S
C2761 C2762 1.366 . S
C2761 C2763 1.388 . S
C2762 C2761 1.366 . S
C2762 C2766 1.385 . S
C2763 H2738 0.951 . S
C2763 C2761 1.388 . S
C2763 C2764 1.366 . S
C2764 C2763 1.366 . S
C2764 C2765 1.414 . S
C2764 C2767 1.499 . S
C2765 H2739 0.950 . S
C2765 C2764 1.414 . S
C2765 C2766 1.374 . S
C2766 H2740 0.950 . S
C2766 C2762 1.385 . S
C2766 C2765 1.374 . S
C2767 C2764 1.499 . S
C2767 C2768 1.373 . S
C2767 C2769 1.389 . S
C2768 H2741 0.950 . S
C2768 C2754 1.377 . S
C2768 C2767 1.373 . S
C2769 C2753 1.377 . S
C2769 C2767 1.389 . S
C2769 C2770 1.524 . S
C2770 C2769 1.524 . S
C2770 C2771 1.397 . S
C2770 C2775 1.363 . S
C2771 H2742 0.950 . S
C2771 C2770 1.397 . S
C2771 C2772 1.334 . S
C2772 H2743 0.950 . S
C2772 C2771 1.334 . S
C2772 C2773 1.287 . S
C2773 C2772 1.287 . S
C2773 C2774 1.524 . S
C2773 H2776 0.999 . S
C2774 H2744 0.950 . S
C2774 C2773 1.524 . S
C2774 C2775 1.415 . S
C2775 H2745 0.950 . S
C2775 C2770 1.363 . S
C2775 C2774 1.415 . S
H2776 C2773 0.999 . S
H2777 C2758 0.913 . S
H2778 C2796 0.951 . S
H2779 C2798 0.951 . S
H2780 C2800 0.950 . S
H2781 C2801 0.950 . S
H2782 C2803 0.950 . S
H2783 C2806 0.950 . S
H2784 C2807 0.950 . S
H2785 C2809 0.950 . S
H2786 C2810 0.950 1_554 S
H2787 C2811 0.951 . S
H2788 C2813 0.951 . S
H2789 C2815 0.950 . S
H2790 C2816 0.950 . S
H2791 C2818 0.950 . S
H2792 C2821 0.950 . S
H2793 C2822 0.950 . S
H2794 C2824 0.950 . S
H2795 C2825 0.950 . S
C2796 H2778 0.951 . S
C2796 C2797 1.366 . S
C2796 C2798 1.388 . S
C2797 C2796 1.366 . S
C2797 C2801 1.385 . S
C2798 H2779 0.951 . S
C2798 C2796 1.388 . S
C2798 C2799 1.366 . S
C2799 C2798 1.366 . S
C2799 C2800 1.414 . S
C2799 C2802 1.499 . S
C2800 H2780 0.950 . S
C2800 C2799 1.414 . S
C2800 C2801 1.374 . S
C2801 H2781 0.950 . S
C2801 C2797 1.385 . S
C2801 C2800 1.374 . S
C2802 C2799 1.499 . S
C2802 C2803 1.373 . S
C2802 C2804 1.389 . S
C2803 H2782 0.950 . S
C2803 C2802 1.373 . S
C2803 C2819 1.377 . S
C2804 C2802 1.389 . S
C2804 C2805 1.524 . S
C2804 C2818 1.377 . S
C2805 C2804 1.524 . S
C2805 C2806 1.397 1_554 S
C2805 C2810 1.363 1_554 S
C2806 H2783 0.950 . S
C2806 C2805 1.397 1_556 S
C2806 C2807 1.334 . S
C2807 H2784 0.950 . S
C2807 C2806 1.334 . S
C2807 C2808 1.287 . S
C2808 C2807 1.287 . S
C2808 C2809 1.524 . S
C2808 H2827 0.913 . S
C2809 H2785 0.950 . S
C2809 C2808 1.524 . S
C2809 C2810 1.415 . S
C2810 H2786 0.950 1_556 S
C2810 C2805 1.363 1_556 S
C2810 C2809 1.415 . S
C2811 H2787 0.951 . S
C2811 C2812 1.366 . S
C2811 C2813 1.388 . S
C2812 C2811 1.366 . S
C2812 C2816 1.385 . S
C2813 H2788 0.951 . S
C2813 C2811 1.388 . S
C2813 C2814 1.366 . S
C2814 C2813 1.366 . S
C2814 C2815 1.414 . S
C2814 C2817 1.499 . S
C2815 H2789 0.950 . S
C2815 C2814 1.414 . S
C2815 C2816 1.374 . S
C2816 H2790 0.950 . S
C2816 C2812 1.385 . S
C2816 C2815 1.374 . S
C2817 C2814 1.499 . S
C2817 C2818 1.373 . S
C2817 C2819 1.389 . S
C2818 H2791 0.950 . S
C2818 C2804 1.377 . S
C2818 C2817 1.373 . S
C2819 C2803 1.377 . S
C2819 C2817 1.389 . S
C2819 C2820 1.524 . S
C2820 C2819 1.524 . S
C2820 C2821 1.397 . S
C2820 C2825 1.363 . S
C2821 H2792 0.950 . S
C2821 C2820 1.397 . S
C2821 C2822 1.334 . S
C2822 H2793 0.950 . S
C2822 C2821 1.334 . S
C2822 C2823 1.287 . S
C2823 C2822 1.287 . S
C2823 C2824 1.524 . S
C2823 H2826 0.999 . S
C2824 H2794 0.950 . S
C2824 C2823 1.524 . S
C2824 C2825 1.415 . S
C2825 H2795 0.950 . S
C2825 C2820 1.363 . S
C2825 C2824 1.415 . S
H2826 C2823 0.999 . S
H2827 C2808 0.913 . S
H2828 C2846 0.951 . S
H2829 C2848 0.951 . S
H2830 C2850 0.950 . S
H2831 C2851 0.950 . S
H2832 C2853 0.950 . S
H2833 C2856 0.950 . S
H2834 C2857 0.950 . S
H2835 C2859 0.950 . S
H2836 C2860 0.950 . S
H2837 C2861 0.951 . S
H2838 C2863 0.951 . S
H2839 C2865 0.950 . S
H2840 C2866 0.950 . S
H2841 C2868 0.950 . S
H2842 C2871 0.950 . S
H2843 C2872 0.950 . S
H2844 C2874 0.950 . S
H2845 C2875 0.950 . S
C2846 H2828 0.951 . S
C2846 C2847 1.366 . S
C2846 C2848 1.388 . S
C2847 C2846 1.366 . S
C2847 C2851 1.385 . S
C2848 H2829 0.951 . S
C2848 C2846 1.388 . S
C2848 C2849 1.366 . S
C2849 C2848 1.366 . S
C2849 C2850 1.414 . S
C2849 C2852 1.499 . S
C2850 H2830 0.950 . S
C2850 C2849 1.414 . S
C2850 C2851 1.374 . S
C2851 H2831 0.950 . S
C2851 C2847 1.385 . S
C2851 C2850 1.374 . S
C2852 C2849 1.499 . S
C2852 C2853 1.373 . S
C2852 C2854 1.389 . S
C2853 H2832 0.950 . S
C2853 C2852 1.373 . S
C2853 C2869 1.377 . S
C2854 C2852 1.389 . S
C2854 C2855 1.524 . S
C2854 C2868 1.377 . S
C2855 C2854 1.524 . S
C2855 C2856 1.397 . S
C2855 C2860 1.363 . S
C2856 H2833 0.950 . S
C2856 C2855 1.397 . S
C2856 C2857 1.334 1_565 S
C2857 H2834 0.950 . S
C2857 C2856 1.334 1_545 S
C2857 C2858 1.287 . S
C2858 C2857 1.287 . S
C2858 C2859 1.524 1_545 S
C2858 H2877 0.913 . S
C2859 H2835 0.950 . S
C2859 C2858 1.524 1_565 S
C2859 C2860 1.415 . S
C2860 H2836 0.950 . S
C2860 C2855 1.363 . S
C2860 C2859 1.415 . S
C2861 H2837 0.951 . S
C2861 C2862 1.366 . S
C2861 C2863 1.388 . S
C2862 C2861 1.366 . S
C2862 C2866 1.385 . S
C2863 H2838 0.951 . S
C2863 C2861 1.388 . S
C2863 C2864 1.366 . S
C2864 C2863 1.366 . S
C2864 C2865 1.414 . S
C2864 C2867 1.499 . S
C2865 H2839 0.950 . S
C2865 C2864 1.414 . S
C2865 C2866 1.374 . S
C2866 H2840 0.950 . S
C2866 C2862 1.385 . S
C2866 C2865 1.374 . S
C2867 C2864 1.499 . S
C2867 C2868 1.373 . S
C2867 C2869 1.389 . S
C2868 H2841 0.950 . S
C2868 C2854 1.377 . S
C2868 C2867 1.373 . S
C2869 C2853 1.377 . S
C2869 C2867 1.389 . S
C2869 C2870 1.524 . S
C2870 C2869 1.524 . S
C2870 C2871 1.397 . S
C2870 C2875 1.363 . S
C2871 H2842 0.950 . S
C2871 C2870 1.397 . S
C2871 C2872 1.334 . S
C2872 H2843 0.950 . S
C2872 C2871 1.334 . S
C2872 C2873 1.287 . S
C2873 C2872 1.287 . S
C2873 C2874 1.524 . S
C2873 H2876 0.999 . S
C2874 H2844 0.950 . S
C2874 C2873 1.524 . S
C2874 C2875 1.415 . S
C2875 H2845 0.950 . S
C2875 C2870 1.363 . S
C2875 C2874 1.415 . S
H2876 C2873 0.999 . S
H2877 C2858 0.913 . S
H2878 C2896 0.951 . S
H2879 C2898 0.951 . S
H2880 C2900 0.950 . S
H2881 C2901 0.950 . S
H2882 C2903 0.950 . S
H2883 C2906 0.950 . S
H2884 C2907 0.950 . S
H2885 C2909 0.950 . S
H2886 C2910 0.950 . S
H2887 C2911 0.951 . S
H2888 C2913 0.951 . S
H2889 C2915 0.950 . S
H2890 C2916 0.950 . S
H2891 C2918 0.950 . S
H2892 C2921 0.950 . S
H2893 C2922 0.950 . S
H2894 C2924 0.950 . S
H2895 C2925 0.950 . S
C2896 H2878 0.951 . S
C2896 C2897 1.366 . S
C2896 C2898 1.388 . S
C2897 C2896 1.366 . S
C2897 C2901 1.385 . S
C2898 H2879 0.951 . S
C2898 C2896 1.388 . S
C2898 C2899 1.366 . S
C2899 C2898 1.366 . S
C2899 C2900 1.414 . S
C2899 C2902 1.499 . S
C2900 H2880 0.950 . S
C2900 C2899 1.414 . S
C2900 C2901 1.374 . S
C2901 H2881 0.950 . S
C2901 C2897 1.385 . S
C2901 C2900 1.374 . S
C2902 C2899 1.499 . S
C2902 C2903 1.373 . S
C2902 C2904 1.389 . S
C2903 H2882 0.950 . S
C2903 C2902 1.373 . S
C2903 C2919 1.377 . S
C2904 C2902 1.389 . S
C2904 C2905 1.524 . S
C2904 C2918 1.377 . S
C2905 C2904 1.524 . S
C2905 C2906 1.397 . S
C2905 C2910 1.363 . S
C2906 H2883 0.950 . S
C2906 C2905 1.397 . S
C2906 C2907 1.334 . S
C2907 H2884 0.950 . S
C2907 C2906 1.334 . S
C2907 C2908 1.287 . S
C2908 C2907 1.287 . S
C2908 C2909 1.524 . S
C2908 H2927 0.892 1_545 S
C2909 H2885 0.950 . S
C2909 C2908 1.524 . S
C2909 C2910 1.415 . S
C2910 H2886 0.950 . S
C2910 C2905 1.363 . S
C2910 C2909 1.415 . S
C2911 H2887 0.951 . S
C2911 C2912 1.366 . S
C2911 C2913 1.388 . S
C2912 C2911 1.366 . S
C2912 C2916 1.385 . S
C2913 H2888 0.951 . S
C2913 C2911 1.388 . S
C2913 C2914 1.366 . S
C2914 C2913 1.366 . S
C2914 C2915 1.414 . S
C2914 C2917 1.499 . S
C2915 H2889 0.950 . S
C2915 C2914 1.414 . S
C2915 C2916 1.374 . S
C2916 H2890 0.950 . S
C2916 C2912 1.385 . S
C2916 C2915 1.374 . S
C2917 C2914 1.499 . S
C2917 C2918 1.373 . S
C2917 C2919 1.389 . S
C2918 H2891 0.950 . S
C2918 C2904 1.377 . S
C2918 C2917 1.373 . S
C2919 C2903 1.377 . S
C2919 C2917 1.389 . S
C2919 C2920 1.524 . S
C2920 C2919 1.524 . S
C2920 C2921 1.397 . S
C2920 C2925 1.363 . S
C2921 H2892 0.950 . S
C2921 C2920 1.397 . S
C2921 C2922 1.334 . S
C2922 H2893 0.950 . S
C2922 C2921 1.334 . S
C2922 C2923 1.287 . S
C2923 C2922 1.287 . S
C2923 C2924 1.524 . S
C2923 H2926 0.999 . S
C2924 H2894 0.950 . S
C2924 C2923 1.524 . S
C2924 C2925 1.415 . S
C2925 H2895 0.950 . S
C2925 C2920 1.363 . S
C2925 C2924 1.415 . S
H2926 C2923 0.999 . S
H2927 C2908 0.892 1_565 S
C562 C524 1.179 . S
C547 N12 1.321 . S
C597 C30 1.372 . S
C612 C453 1.153 . S
C647 C62 1.278 . S
C662 C482 1.176 . S
C712 C495 1.125 . S
C697 N81 1.294 . S
C747 C39 1.267 . S
C762 C516 1.099 . S
C812 C461 1.202 . S
C797 C53 1.355 . S
C862 C474 1.119 . S
C847 N71 1.265 . S
C912 C503 1.178 . S
C897 N2 1.247 . S
C947 N94 1.308 . S
C962 C505 1.162 . S
C1012 C519 1.184 . S
C997 C131 1.308 . S
C1062 C463 1.161 . S
C1047 N140 1.260 . S
C1112 C477 1.144 . S
C1097 C177 1.265 . S
C1147 C108 1.252 . S
C1162 C456 1.153 . S
C1197 N117 1.292 . S
C1212 C484 1.180 . S
C1247 C154 1.279 . S
C1262 C498 1.140 . S
C1312 C526 1.150 . S
C1297 N163 1.274 . S
C1362 C335 1.184 . S
C1347 N173 1.311 . S
C1412 C316 1.116 . S
C1397 C191 1.291 . S
C1462 C330 1.146 . S
C1447 N219 1.294 . S
C1512 C351 1.212 . S
C1497 C237 1.347 . S
C1547 N104 1.292 . S
C1562 C337 1.142 . S
C1597 N127 1.264 1_545 S
C1612 C288 1.131 . S
C1647 C214 1.354 . S
C1662 C348 1.171 . S
C1697 C260 1.356 . S
C1712 C314 1.197 . S
C1762 C377 1.190 . S
C1747 N48 1.282 . S
C1812 C390 1.121 . S
C1797 C76 1.333 . S
C1847 C7 1.313 . S
C1862 C419 1.187 . S
C1897 N35 1.262 . S
C1912 C432 1.100 . S
C1962 C369 1.127 . S
C1947 C85 1.300 . S
C2012 C398 1.191 . S
C1997 C16 1.317 . S
C2047 N25 1.301 . S
C2062 C411 1.147 . S
C2112 C440 1.169 . S
C2097 N58 1.284 . S
C2147 N255 1.314 . S
C2162 C442 1.174 . S
C2197 C200 1.284 . S
C2212 C372 1.161 . S
C2262 C400 1.171 . S
C2247 N209 1.268 . S
C2297 C246 1.234 . S
C2312 C414 1.117 . S
C2362 C393 1.174 . S
C2347 C269 1.280 . S
C2397 N186 1.288 . S
C2412 C421 1.174 . S
C2462 C435 1.161 . S
C2447 C223 1.303 . S
C2512 C379 1.138 . S
C2497 N232 1.266 . S
C2562 C295 1.169 . S
C2547 N242 1.304 . S
C2612 C358 1.142 . S
C2597 C122 1.326 . S
C2647 N150 1.292 . S
C2662 C285 1.119 . S
C2712 C309 1.237 . S
C2697 C168 1.375 . S
C2762 C293 1.175 . S
C2747 N265 1.288 . S
C2797 N196 1.270 . S
C2812 C327 1.086 . S
C2847 C145 1.320 . S
C2862 C306 1.145 . S
C2897 C99 1.325 . S
C2912 C356 1.168 . S
