# Generated by pormake.
# Topology eea, (3,6)-cn, num edge types: 1
# Building blocks:
#     Node 0, Type 0, BuildingBlock: KAKCAD_clean_linker_0, # of connection points: 3
#     Node 1, Type 0, BuildingBlock: KAKCAD_clean_linker_0, # of connection points: 3
#     Node 2, Type 0, BuildingBlock: KAKCAD_clean_linker_0, # of connection points: 3
#     Node 3, Type 0, BuildingBlock: KAKCAD_clean_linker_0, # of connection points: 3
#     Node 4, Type 0, BuildingBlock: KAKCAD_clean_linker_0, # of connection points: 3
#     Node 5, Type 0, BuildingBlock: KAKCAD_clean_linker_0, # of connection points: 3
#     Node 6, Type 0, BuildingBlock: KAKCAD_clean_linker_0, # of connection points: 3
#     Node 7, Type 0, BuildingBlock: KAKCAD_clean_linker_0, # of connection points: 3
#     Node 8, Type 0, BuildingBlock: KAKCAD_clean_linker_0, # of connection points: 3
#     Node 9, Type 0, BuildingBlock: KAKCAD_clean_linker_0, # of connection points: 3
#     Node 10, Type 0, BuildingBlock: KAKCAD_clean_linker_0, # of connection points: 3
#     Node 11, Type 0, BuildingBlock: KAKCAD_clean_linker_0, # of connection points: 3
#     Node 12, Type 0, BuildingBlock: KAKCAD_clean_linker_0, # of connection points: 3
#     Node 13, Type 0, BuildingBlock: KAKCAD_clean_linker_0, # of connection points: 3
#     Node 14, Type 0, BuildingBlock: KAKCAD_clean_linker_0, # of connection points: 3
#     Node 15, Type 0, BuildingBlock: KAKCAD_clean_linker_0, # of connection points: 3
#     Node 16, Type 0, BuildingBlock: KAKCAD_clean_linker_0, # of connection points: 3
#     Node 17, Type 0, BuildingBlock: KAKCAD_clean_linker_0, # of connection points: 3
#     Node 18, Type 1, BuildingBlock: CIFDUS_clean_sbu_1, # of connection points: 6
#     Node 19, Type 1, BuildingBlock: CIFDUS_clean_sbu_1, # of connection points: 6
#     Node 20, Type 1, BuildingBlock: CIFDUS_clean_sbu_1, # of connection points: 6
#     Node 21, Type 1, BuildingBlock: CIFDUS_clean_sbu_1, # of connection points: 6
#     Node 22, Type 1, BuildingBlock: CIFDUS_clean_sbu_1, # of connection points: 6
#     Node 23, Type 1, BuildingBlock: CIFDUS_clean_sbu_1, # of connection points: 6
#     Node 24, Type 1, BuildingBlock: CIFDUS_clean_sbu_1, # of connection points: 6
#     Node 25, Type 1, BuildingBlock: CIFDUS_clean_sbu_1, # of connection points: 6
#     Node 26, Type 1, BuildingBlock: CIFDUS_clean_sbu_1, # of connection points: 6
#     Edge 27, Type (0, 1), None
#     Edge 28, Type (0, 1), None
#     Edge 29, Type (0, 1), None
#     Edge 30, Type (0, 1), None
#     Edge 31, Type (0, 1), None
#     Edge 32, Type (0, 1), None
#     Edge 33, Type (0, 1), None
#     Edge 34, Type (0, 1), None
#     Edge 35, Type (0, 1), None
#     Edge 36, Type (0, 1), None
#     Edge 37, Type (0, 1), None
#     Edge 38, Type (0, 1), None
#     Edge 39, Type (0, 1), None
#     Edge 40, Type (0, 1), None
#     Edge 41, Type (0, 1), None
#     Edge 42, Type (0, 1), None
#     Edge 43, Type (0, 1), None
#     Edge 44, Type (0, 1), None
#     Edge 45, Type (0, 1), None
#     Edge 46, Type (0, 1), None
#     Edge 47, Type (0, 1), None
#     Edge 48, Type (0, 1), None
#     Edge 49, Type (0, 1), None
#     Edge 50, Type (0, 1), None
#     Edge 51, Type (0, 1), None
#     Edge 52, Type (0, 1), None
#     Edge 53, Type (0, 1), None
#     Edge 54, Type (0, 1), None
#     Edge 55, Type (0, 1), None
#     Edge 56, Type (0, 1), None
#     Edge 57, Type (0, 1), None
#     Edge 58, Type (0, 1), None
#     Edge 59, Type (0, 1), None
#     Edge 60, Type (0, 1), None
#     Edge 61, Type (0, 1), None
#     Edge 62, Type (0, 1), None
#     Edge 63, Type (0, 1), None
#     Edge 64, Type (0, 1), None
#     Edge 65, Type (0, 1), None
#     Edge 66, Type (0, 1), None
#     Edge 67, Type (0, 1), None
#     Edge 68, Type (0, 1), None
#     Edge 69, Type (0, 1), None
#     Edge 70, Type (0, 1), None
#     Edge 71, Type (0, 1), None
#     Edge 72, Type (0, 1), None
#     Edge 73, Type (0, 1), None
#     Edge 74, Type (0, 1), None
#     Edge 75, Type (0, 1), None
#     Edge 76, Type (0, 1), None
#     Edge 77, Type (0, 1), None
#     Edge 78, Type (0, 1), None
#     Edge 79, Type (0, 1), None
#     Edge 80, Type (0, 1), None
# Relax obj value: 0.100
# Max RMSD: 0.183
# Mean RMSD: 0.093
data_MOF--net-eea--node1-CIFDUS_clean_sbu_1--node2-KAKCAD_clean_linker_0--edge1-none
_symmetry_space_group_name_H-M    P1
_symmetry_Int_Tables_number       1
_symmetry_cell_setting            triclinic
loop_
_symmetry_equiv_pos_as_xyz
'x, y, z'
_cell_length_a     36.494325
_cell_length_b     36.009623
_cell_length_c     37.296308
_cell_angle_alpha  89.895729
_cell_angle_beta   89.805955
_cell_angle_gamma 119.987
loop_
_atom_site_label
_atom_site_type_symbol
_atom_site_fract_x
_atom_site_fract_y
_atom_site_fract_z
_atom_type_partial_charge
C0 C 0.25842 0.10544 0.56248 0.0
C1 C 0.3028 0.12731 0.55872 0.0
C2 C 0.2324 0.09634 0.53234 0.0
C3 C 0.25034 0.1094 0.49806 0.0
C4 C 0.29433 0.12898 0.49398 0.0
C5 C 0.32026 0.13762 0.52392 0.0
C6 C 0.22361 0.10059 0.46596 0.0
C7 C 0.21986 0.13352 0.44894 0.0
C8 C 0.20028 0.1265 0.41523 0.0
C9 C 0.18494 0.08618 0.39876 0.0
C10 C 0.18864 0.05299 0.41541 0.0
C11 C 0.20701 0.06042 0.4496 0.0
C12 C 0.17852 0.01304 0.39524 0.0
C13 C 0.14585 0.99572 0.36971 0.0
C14 C 0.20457 0.9946 0.39855 0.0
C15 C 0.20021 0.96229 0.37521 0.0
C16 C 0.16983 0.94767 0.348 0.0
C17 C 0.20145 0.1625 0.39433 0.0
C18 C 0.1846 0.1877 0.40737 0.0
C19 C 0.21914 0.17093 0.35988 0.0
C20 C 0.21953 0.2029 0.33867 0.0
C21 C 0.20194 0.22775 0.35084 0.0
C22 C 0.18441 0.21982 0.38558 0.0
C23 C 0.14193 0.96376 0.34609 0.0
H24 H 0.24383 0.09792 0.58879 0.0
H25 H 0.1984 0.08042 0.5359 0.0
H26 H 0.30869 0.13833 0.4676 0.0
H27 H 0.35425 0.1546 0.51999 0.0
H28 H 0.23413 0.16507 0.46097 0.0
H29 H 0.21046 0.0356 0.46297 0.0
H30 H 0.17218 0.08166 0.37191 0.0
H31 H 0.12465 0.00837 0.36665 0.0
H32 H 0.23065 0.0073 0.41723 0.0
H33 H 0.22332 0.9518 0.37628 0.0
H34 H 0.17064 0.18178 0.43392 0.0
H35 H 0.23288 0.15264 0.34917 0.0
H36 H 0.11896 0.95376 0.32467 0.0
H37 H 0.17 0.23774 0.39551 0.0
H38 H 0.23369 0.20774 0.31227 0.0
C39 C 0.82737 0.1572 0.51298 0.0
C40 C 0.82433 0.1373 0.54634 0.0
C41 C 0.84058 0.14494 0.48237 0.0
C42 C 0.84998 0.11173 0.48403 0.0
C43 C 0.84163 0.08797 0.51593 0.0
C44 C 0.82865 0.10061 0.54687 0.0
C45 C 0.87175 0.10499 0.45324 0.0
C46 C 0.90982 0.13958 0.44046 0.0
C47 C 0.92898 0.13622 0.40882 0.0
C48 C 0.90963 0.09717 0.39018 0.0
C49 C 0.87092 0.0623 0.40228 0.0
C50 C 0.85286 0.06618 0.43447 0.0
C51 C 0.84535 0.02553 0.37811 0.0
C52 C 0.84095 0.03388 0.34214 0.0
C53 C 0.82121 0.98317 0.3911 0.0
C54 C 0.7913 0.95053 0.36898 0.0
C55 C 0.78438 0.96016 0.33411 0.0
C56 C 0.96708 0.17476 0.39403 0.0
C57 C 0.96912 0.21474 0.39464 0.0
C58 C 1.00184 0.17248 0.38011 0.0
C59 C 0.03875 0.20988 0.36907 0.0
C60 C 0.04139 0.25013 0.37168 0.0
C61 C 0.00566 0.2518 0.38368 0.0
C62 C 0.81099 0.00174 0.32051 0.0
H63 H 0.82306 0.18479 0.51096 0.0
H64 H 0.84563 0.16296 0.45776 0.0
H65 H 0.84773 0.06151 0.51754 0.0
H66 H 0.82469 0.08345 0.57155 0.0
H67 H 0.92418 0.16959 0.45506 0.0
H68 H 0.82236 0.04035 0.44336 0.0
H69 H 0.92333 0.09474 0.36509 0.0
H70 H 0.85868 0.06603 0.33118 0.0
H71 H 0.82465 0.97567 0.41856 0.0
H72 H 0.77274 0.91823 0.37928 0.0
H73 H 0.94255 0.21758 0.40418 0.0
H74 H 1.00116 0.14209 0.37915 0.0
H75 H 0.80741 0.01039 0.29345 0.0
H76 H 0.00626 0.28212 0.38566 0.0
H77 H 0.06576 0.20748 0.36014 0.0
C78 C 0.85003 0.71969 0.55157 0.0
C79 C 0.8242 0.67495 0.55538 0.0
C80 C 0.86277 0.73826 0.5176 0.0
C81 C 0.84905 0.7126 0.48689 0.0
C82 C 0.82104 0.66841 0.49036 0.0
C83 C 0.80909 0.6496 0.5244 0.0
C84 C 0.86407 0.73203 0.4512 0.0
C85 C 0.9055 0.74554 0.43994 0.0
C86 C 0.92026 0.76522 0.4061 0.0
C87 C 0.89256 0.7714 0.3838 0.0
C88 C 0.85076 0.75711 0.39495 0.0
C89 C 0.83684 0.7374 0.42857 0.0
C90 C 0.8208 0.76367 0.37321 0.0
C91 C 0.82764 0.80523 0.36751 0.0
C92 C 0.78083 0.72824 0.36618 0.0
C93 C 0.74695 0.73417 0.35793 0.0
C94 C 0.75261 0.77562 0.35619 0.0
C95 C 0.96423 0.77827 0.39442 0.0
C96 C 0.99693 0.79382 0.4198 0.0
C97 C 0.97352 0.77266 0.35875 0.0
C98 C 0.01397 0.78009 0.34933 0.0
C99 C 0.04533 0.7925 0.3756 0.0
C100 C 0.03672 0.80036 0.4106 0.0
C101 C 0.7936 0.81122 0.35885 0.0
H102 H 0.86298 0.74006 0.57486 0.0
H103 H 0.88414 0.77251 0.51531 0.0
H104 H 0.80987 0.64828 0.46679 0.0
H105 H 0.78969 0.61507 0.52655 0.0
H106 H 0.9258 0.73979 0.45745 0.0
H107 H 0.80487 0.72714 0.43761 0.0
H108 H 0.9033 0.78718 0.35802 0.0
H109 H 0.85817 0.83296 0.37322 0.0
H110 H 0.77496 0.69593 0.37046 0.0
H111 H 0.71562 0.7063 0.35579 0.0
H112 H 0.99159 0.80002 0.44717 0.0
H113 H 0.94912 0.76067 0.33849 0.0
H114 H 0.79857 0.8435 0.35791 0.0
H115 H 0.06073 0.81091 0.43121 0.0
H116 H 0.02 0.77402 0.32213 0.0
C117 C 0.18945 0.30341 0.46447 0.0
C118 C 0.1905 0.34258 0.45932 0.0
C119 C 0.17899 0.28328 0.4981 0.0
C120 C 0.1695 0.30213 0.52699 0.0
C121 C 0.17473 0.34314 0.52277 0.0
C122 C 0.18563 0.3634 0.48943 0.0
C123 C 0.15193 0.27829 0.56087 0.0
C124 C 0.17178 0.25883 0.57813 0.0
C125 C 0.15527 0.23598 0.61018 0.0
C126 C 0.11818 0.23218 0.62509 0.0
C127 C 0.09736 0.25109 0.60765 0.0
C128 C 0.11472 0.27427 0.57564 0.0
C129 C 0.0567 0.24569 0.62143 0.0
C130 C 0.02396 0.20543 0.63312 0.0
C131 C 0.04897 0.28015 0.61961 0.0
C132 C 0.00872 0.27387 0.62652 0.0
C133 C 0.97527 0.2331 0.63589 0.0
C134 C 0.1784 0.21708 0.62724 0.0
C135 C 0.18543 0.18823 0.60733 0.0
C136 C 0.20195 0.23546 0.65846 0.0
C137 C 0.23516 0.22835 0.66756 0.0
C138 C 0.24474 0.20297 0.64535 0.0
C139 C 0.21853 0.18138 0.61625 0.0
C140 C 0.98355 0.19922 0.64044 0.0
H141 H 0.19354 0.2868 0.44209 0.0
H142 H 0.17566 0.25179 0.50089 0.0
H143 H 0.16868 0.35879 0.54494 0.0
H144 H 0.18691 0.39399 0.48673 0.0
H145 H 0.20074 0.26212 0.56691 0.0
H146 H 0.0985 0.28809 0.56139 0.0
H147 H 0.10562 0.21449 0.64989 0.0
H148 H 0.02888 0.1782 0.63463 0.0
H149 H 0.07375 0.31178 0.61152 0.0
H150 H 0.00344 0.30075 0.62332 0.0
H151 H 0.16781 0.17413 0.58298 0.0
H152 H 0.1973 0.25833 0.67376 0.0
H153 H 0.95829 0.16738 0.64749 0.0
H154 H 0.22569 0.1618 0.59876 0.0
H155 H 0.25546 0.24551 0.6899 0.0
C156 C 0.68624 0.84213 0.49153 0.0
C157 C 0.69808 0.8637 0.45822 0.0
C158 C 0.71426 0.85601 0.5202 0.0
C159 C 0.75434 0.89246 0.51674 0.0
C160 C 0.7642 0.91748 0.48542 0.0
C161 C 0.73604 0.90321 0.45636 0.0
C162 C 0.78565 0.90266 0.54561 0.0
C163 C 0.79586 0.8715 0.55662 0.0
C164 C 0.82027 0.87745 0.5875 0.0
C165 C 0.83447 0.91566 0.6071 0.0
C166 C 0.82457 0.94716 0.59629 0.0
C167 C 0.80102 0.94083 0.56494 0.0
C168 C 0.83179 0.98247 0.62096 0.0
C169 C 0.81855 0.97256 0.65674 0.0
C170 C 0.84767 0.02486 0.60872 0.0
C171 C 0.84892 0.05635 0.63176 0.0
C172 C 0.8332 0.0455 0.66686 0.0
C173 C 0.82658 0.84207 0.60187 0.0
C174 C 0.794 0.79893 0.59966 0.0
C175 C 0.86308 0.85129 0.62153 0.0
C176 C 0.86482 0.81926 0.64161 0.0
C177 C 0.83051 0.7772 0.64198 0.0
C178 C 0.79608 0.76691 0.6194 0.0
C179 C 0.81916 0.00354 0.6793 0.0
H180 H 0.65656 0.81242 0.4948 0.0
H181 H 0.70528 0.83713 0.54466 0.0
H182 H 0.79447 0.94666 0.48274 0.0
H183 H 0.74487 0.92185 0.43203 0.0
H184 H 0.78377 0.84211 0.54141 0.0
H185 H 0.79149 0.96384 0.55733 0.0
H186 H 0.85121 0.92002 0.63207 0.0
H187 H 0.80567 0.94017 0.66692 0.0
H188 H 0.8585 0.03339 0.58129 0.0
H189 H 0.86153 0.08888 0.62216 0.0
H190 H 0.7651 0.79022 0.5853 0.0
H191 H 0.88926 0.88383 0.62332 0.0
H192 H 0.80711 0.99389 0.70633 0.0
H193 H 0.76857 0.73501 0.62014 0.0
H194 H 0.89123 0.82828 0.65956 0.0
C195 C 0.15572 0.88846 0.44422 0.0
C196 C 0.18839 0.87839 0.44438 0.0
C197 C 0.14004 0.89495 0.47634 0.0
C198 C 0.15724 0.89222 0.50902 0.0
C199 C 0.19152 0.88486 0.50931 0.0
C200 C 0.20678 0.87762 0.47721 0.0
C201 C 0.14 0.89776 0.54296 0.0
C202 C 0.10205 0.86476 0.55713 0.0
C203 C 0.08639 0.86969 0.59034 0.0
C204 C 0.1107 0.90799 0.60968 0.0
C205 C 0.14919 0.94142 0.59549 0.0
C206 C 0.16265 0.93602 0.5616 0.0
C207 C 0.17694 0.98105 0.61631 0.0
C208 C 0.15998 0.9981 0.64092 0.0
C209 C 0.22135 0.00109 0.61289 0.0
C210 C 0.24783 0.03553 0.63461 0.0
C211 C 0.23073 0.05016 0.66087 0.0
C212 C 0.04475 0.83463 0.60413 0.0
C213 C 0.01195 0.81069 0.57982 0.0
C214 C 0.03752 0.82363 0.64088 0.0
C215 C 0.99911 0.78833 0.65258 0.0
C216 C 0.96773 0.76328 0.6276 0.0
C217 C 0.97428 0.77538 0.59133 0.0
C218 C 0.18669 0.03194 0.66339 0.0
H219 H 0.14001 0.88811 0.41953 0.0
H220 H 0.1138 0.90102 0.47574 0.0
H221 H 0.20536 0.8831 0.53447 0.0
H222 H 0.23143 0.86922 0.47816 0.0
H223 H 0.08522 0.83499 0.54238 0.0
H224 H 0.19118 0.96152 0.5494 0.0
H225 H 0.09971 0.91159 0.63572 0.0
H226 H 0.12612 0.98428 0.64393 0.0
H227 H 0.23608 0.98859 0.59514 0.0
H228 H 0.28167 0.04791 0.63323 0.0
H229 H 0.01549 0.81878 0.55156 0.0
H230 H 0.06203 0.84116 0.66042 0.0
H231 H 0.1729 0.042 0.68431 0.0
H232 H 0.95031 0.75693 0.57156 0.0
H233 H 0.9948 0.77946 0.68068 0.0
C234 C 0.92509 0.43877 0.89571 0.0
C235 C 0.96947 0.46064 0.89184 0.0
C236 C 0.89903 0.42963 0.86561 0.0
C237 C 0.91694 0.44273 0.83132 0.0
C238 C 0.96091 0.46237 0.82718 0.0
C239 C 0.98687 0.47097 0.85705 0.0
C240 C 0.89021 0.4339 0.79925 0.0
C241 C 0.88649 0.46683 0.78222 0.0
C242 C 0.86692 0.45979 0.74852 0.0
C243 C 0.85158 0.41947 0.73205 0.0
C244 C 0.85529 0.38629 0.74871 0.0
C245 C 0.87365 0.39373 0.7829 0.0
C246 C 0.84517 0.34634 0.72856 0.0
C247 C 0.8125 0.329 0.70304 0.0
C248 C 0.87123 0.3279 0.73188 0.0
C249 C 0.86688 0.29559 0.70854 0.0
C250 C 0.8365 0.28097 0.68133 0.0
C251 C 0.86808 0.49579 0.72762 0.0
C252 C 0.85124 0.52099 0.74066 0.0
C253 C 0.88576 0.50421 0.69316 0.0
C254 C 0.88615 0.53618 0.67195 0.0
C255 C 0.86857 0.56103 0.68412 0.0
C256 C 0.85105 0.55311 0.71887 0.0
C257 C 0.80859 0.29704 0.67942 0.0
H258 H 0.91056 0.4313 0.92205 0.0
H259 H 0.86503 0.41366 0.86919 0.0
H260 H 0.97525 0.47179 0.80081 0.0
H261 H 0.02085 0.48802 0.85309 0.0
H262 H 0.90077 0.49838 0.79424 0.0
H263 H 0.87712 0.36893 0.79629 0.0
H264 H 0.83882 0.41494 0.70521 0.0
H265 H 0.79129 0.34165 0.69998 0.0
H266 H 0.89732 0.34062 0.75055 0.0
H267 H 0.89 0.28511 0.7096 0.0
H268 H 0.8373 0.51509 0.76722 0.0
H269 H 0.89949 0.48591 0.68245 0.0
H270 H 0.78562 0.28703 0.658 0.0
H271 H 0.83665 0.57104 0.7288 0.0
H272 H 0.9003 0.54101 0.64554 0.0
C273 C 0.49398 0.49049 0.84624 0.0
C274 C 0.49078 0.47046 0.87956 0.0
C275 C 0.50725 0.47829 0.81564 0.0
C276 C 0.51664 0.44507 0.8173 0.0
C277 C 0.50827 0.42129 0.84917 0.0
C278 C 0.4952 0.43384 0.88009 0.0
C279 C 0.5384 0.43835 0.78653 0.0
C280 C 0.57647 0.47293 0.77377 0.0
C281 C 0.59562 0.46958 0.74212 0.0
C282 C 0.57626 0.43053 0.72348 0.0
C283 C 0.53756 0.39566 0.73557 0.0
C284 C 0.5195 0.39953 0.76777 0.0
C285 C 0.51198 0.3589 0.71141 0.0
C286 C 0.50754 0.36725 0.67545 0.0
C287 C 0.48787 0.31653 0.7244 0.0
C288 C 0.45797 0.28388 0.70228 0.0
C289 C 0.45103 0.29351 0.66742 0.0
C290 C 0.63373 0.5081 0.72734 0.0
C291 C 0.63578 0.5481 0.72797 0.0
C292 C 0.66848 0.50581 0.71342 0.0
C293 C 0.70539 0.54321 0.70238 0.0
C294 C 0.70806 0.58347 0.70501 0.0
C295 C 0.67233 0.58515 0.71702 0.0
C296 C 0.47759 0.3351 0.65382 0.0
H297 H 0.48968 0.5181 0.84424 0.0
H298 H 0.51234 0.49635 0.79104 0.0
H299 H 0.51442 0.39485 0.85078 0.0
H300 H 0.49126 0.41667 0.90477 0.0
H301 H 0.59084 0.50293 0.78837 0.0
H302 H 0.489 0.37371 0.77666 0.0
H303 H 0.58995 0.4281 0.69838 0.0
H304 H 0.52524 0.3994 0.6645 0.0
H305 H 0.49132 0.30903 0.75186 0.0
H306 H 0.43944 0.25158 0.71258 0.0
H307 H 0.60922 0.55094 0.73752 0.0
H308 H 0.66778 0.47541 0.71245 0.0
H309 H 0.47398 0.34375 0.62677 0.0
H310 H 0.67295 0.61547 0.71901 0.0
H311 H 0.7324 0.5408 0.69345 0.0
C312 C 0.5167 0.05302 0.88491 0.0
C313 C 0.4909 0.00828 0.88872 0.0
C314 C 0.52943 0.07159 0.85093 0.0
C315 C 0.51573 0.04592 0.82022 0.0
C316 C 0.48774 0.00173 0.8237 0.0
C317 C 0.4758 0.98293 0.85774 0.0
C318 C 0.53074 0.06534 0.78454 0.0
C319 C 0.57217 0.07886 0.77327 0.0
C320 C 0.58693 0.09854 0.73943 0.0
C321 C 0.55922 0.10471 0.71714 0.0
C322 C 0.51742 0.09042 0.72829 0.0
C323 C 0.50351 0.07072 0.76191 0.0
C324 C 0.48746 0.09698 0.70655 0.0
C325 C 0.4943 0.13854 0.70085 0.0
C326 C 0.44749 0.06155 0.69953 0.0
C327 C 0.4136 0.06748 0.69128 0.0
C328 C 0.41926 0.10893 0.68953 0.0
C329 C 0.6309 0.11159 0.72774 0.0
C330 C 0.6636 0.12715 0.75312 0.0
C331 C 0.64019 0.10597 0.69207 0.0
C332 C 0.68063 0.11341 0.68266 0.0
C333 C 0.712 0.12582 0.70893 0.0
C334 C 0.70339 0.13369 0.74393 0.0
C335 C 0.46025 0.14452 0.69219 0.0
H336 H 0.52963 0.0734 0.90819 0.0
H337 H 0.55078 0.10584 0.84864 0.0
H338 H 0.47659 0.98159 0.80014 0.0
H339 H 0.45642 0.94839 0.8599 0.0
H340 H 0.59248 0.07312 0.79078 0.0
H341 H 0.47153 0.06045 0.77095 0.0
H342 H 0.56995 0.12049 0.69136 0.0
H343 H 0.52483 0.16627 0.70655 0.0
H344 H 0.44161 0.02924 0.70382 0.0
H345 H 0.38227 0.03961 0.68915 0.0
H346 H 0.65826 0.13336 0.78049 0.0
H347 H 0.61578 0.09398 0.67182 0.0
H348 H 0.46523 0.17681 0.69124 0.0
H349 H 0.7274 0.14425 0.76454 0.0
H350 H 0.68666 0.10733 0.65546 0.0
C351 C 0.85609 0.63666 0.79781 0.0
C352 C 0.85718 0.67585 0.79265 0.0
C353 C 0.84561 0.61654 0.83143 0.0
C354 C 0.83614 0.63541 0.86033 0.0
C355 C 0.84143 0.67644 0.85611 0.0
C356 C 0.85235 0.69669 0.82276 0.0
C357 C 0.81854 0.61157 0.89422 0.0
C358 C 0.8384 0.59214 0.91152 0.0
C359 C 0.82192 0.56933 0.94359 0.0
C360 C 0.7848 0.56556 0.95848 0.0
C361 C 0.76393 0.58443 0.94101 0.0
C362 C 0.78131 0.60758 0.90897 0.0
C363 C 0.72318 0.57897 0.95475 0.0
C364 C 0.69049 0.5387 0.96651 0.0
C365 C 0.71531 0.61333 0.95289 0.0
C366 C 0.675 0.60696 0.95987 0.0
C367 C 0.64159 0.56616 0.96932 0.0
C368 C 0.84516 0.55052 0.96072 0.0
C369 C 0.85216 0.52157 0.94093 0.0
C370 C 0.86886 0.56909 0.99183 0.0
C371 C 0.90219 0.5621 0.00091 0.0
C372 C 0.91185 0.53669 0.97877 0.0
C373 C 0.8854 0.51485 0.94981 0.0
C374 C 0.65002 0.53238 0.97388 0.0
H375 H 0.86014 0.62004 0.77543 0.0
H376 H 0.84225 0.58503 0.83423 0.0
H377 H 0.83541 0.69211 0.87827 0.0
H378 H 0.85367 0.7273 0.82006 0.0
H379 H 0.86736 0.59542 0.90031 0.0
H380 H 0.76511 0.62139 0.89471 0.0
H381 H 0.77224 0.54791 0.98329 0.0
H382 H 0.69549 0.51152 0.96805 0.0
H383 H 0.74002 0.64497 0.94474 0.0
H384 H 0.66965 0.63378 0.95663 0.0
H385 H 0.83439 0.50725 0.91669 0.0
H386 H 0.86423 0.59202 0.00707 0.0
H387 H 0.62484 0.50053 0.98097 0.0
H388 H 0.89242 0.49509 0.93243 0.0
H389 H 0.92251 0.57937 0.02321 0.0
C390 C 0.3529 0.17549 0.82486 0.0
C391 C 0.36474 0.19705 0.79154 0.0
C392 C 0.38092 0.18937 0.85353 0.0
C393 C 0.42101 0.22581 0.85006 0.0
C394 C 0.43087 0.25082 0.81874 0.0
C395 C 0.40271 0.23654 0.78968 0.0
C396 C 0.45232 0.236 0.87892 0.0
C397 C 0.46253 0.20484 0.88994 0.0
C398 C 0.48694 0.2108 0.92081 0.0
C399 C 0.50117 0.24901 0.94039 0.0
C400 C 0.49128 0.28051 0.92957 0.0
C401 C 0.4677 0.27418 0.89825 0.0
C402 C 0.49849 0.31579 0.95426 0.0
C403 C 0.48524 0.3058 0.99002 0.0
C404 C 0.51433 0.35819 0.94206 0.0
C405 C 0.51548 0.3896 0.96513 0.0
C406 C 0.49969 0.37863 0.0002 0.0
C407 C 0.49325 0.17542 0.93519 0.0
C408 C 0.46067 0.13228 0.93298 0.0
C409 C 0.52975 0.18464 0.95485 0.0
C410 C 0.53149 0.15261 0.97494 0.0
C411 C 0.49718 0.11055 0.97531 0.0
C412 C 0.46275 0.10027 0.95272 0.0
C413 C 0.48578 0.3367 0.01262 0.0
H414 H 0.32321 0.14578 0.82814 0.0
H415 H 0.37194 0.1705 0.878 0.0
H416 H 0.46115 0.28 0.81605 0.0
H417 H 0.41155 0.25518 0.76534 0.0
H418 H 0.45042 0.17544 0.87473 0.0
H419 H 0.45816 0.29719 0.89065 0.0
H420 H 0.51791 0.25338 0.96536 0.0
H421 H 0.47239 0.27341 0.00017 0.0
H422 H 0.52517 0.36677 0.91462 0.0
H423 H 0.52802 0.42213 0.95556 0.0
H424 H 0.43177 0.12357 0.91862 0.0
H425 H 0.55593 0.21718 0.95664 0.0
H426 H 0.47374 0.327 0.03964 0.0
H427 H 0.43523 0.06837 0.95346 0.0
H428 H 0.55789 0.16163 0.99288 0.0
C429 C 0.82238 0.22178 0.77755 0.0
C430 C 0.85506 0.21172 0.77771 0.0
C431 C 0.80671 0.22828 0.80966 0.0
C432 C 0.82391 0.22555 0.84235 0.0
C433 C 0.85819 0.21819 0.84264 0.0
C434 C 0.87345 0.21094 0.81055 0.0
C435 C 0.80667 0.23111 0.87629 0.0
C436 C 0.76874 0.1981 0.89047 0.0
C437 C 0.75306 0.20305 0.92367 0.0
C438 C 0.77734 0.24138 0.94299 0.0
C439 C 0.81582 0.27482 0.92878 0.0
C440 C 0.82928 0.2694 0.89489 0.0
C441 C 0.84356 0.31448 0.9496 0.0
C442 C 0.82658 0.33147 0.97424 0.0
C443 C 0.88798 0.33457 0.94617 0.0
C444 C 0.91445 0.369 0.96794 0.0
C445 C 0.8973 0.38363 0.99418 0.0
C446 C 0.71143 0.16799 0.93746 0.0
C447 C 0.67862 0.14405 0.91316 0.0
C448 C 0.70421 0.157 0.97422 0.0
C449 C 0.6658 0.12171 0.98592 0.0
C450 C 0.63441 0.09666 0.96095 0.0
C451 C 0.64096 0.10875 0.92467 0.0
C452 C 0.85326 0.36532 0.99671 0.0
H453 H 0.80667 0.22142 0.75286 0.0
H454 H 0.78048 0.23435 0.80906 0.0
H455 H 0.87203 0.21643 0.8678 0.0
H456 H 0.89809 0.20254 0.8115 0.0
H457 H 0.75193 0.16832 0.87575 0.0
H458 H 0.85779 0.29491 0.88268 0.0
H459 H 0.76634 0.24498 0.96902 0.0
H460 H 0.79272 0.31761 0.97727 0.0
H461 H 0.90273 0.32212 0.92839 0.0
H462 H 0.94829 0.38141 0.96656 0.0
H463 H 0.68216 0.15214 0.8849 0.0
H464 H 0.72873 0.17454 0.99375 0.0
H465 H 0.83945 0.37534 0.01763 0.0
H466 H 0.61697 0.0903 0.90491 0.0
H467 H 0.6615 0.11284 0.01403 0.0
C468 C 0.59174 0.77213 0.22914 0.0
C469 C 0.63613 0.79401 0.22538 0.0
C470 C 0.56572 0.763 0.199 0.0
C471 C 0.58366 0.77606 0.16472 0.0
C472 C 0.62765 0.79567 0.16064 0.0
C473 C 0.65358 0.80432 0.19058 0.0
C474 C 0.55693 0.76723 0.13261 0.0
C475 C 0.55317 0.80016 0.11559 0.0
C476 C 0.5336 0.79314 0.08189 0.0
C477 C 0.51826 0.75282 0.06541 0.0
C478 C 0.52198 0.71963 0.08204 0.0
C479 C 0.54034 0.72706 0.11624 0.0
C480 C 0.51185 0.67967 0.06187 0.0
C481 C 0.47917 0.66234 0.03635 0.0
C482 C 0.53788 0.66119 0.06517 0.0
C483 C 0.53344 0.62879 0.04186 0.0
C484 C 0.50294 0.61406 0.01473 0.0
C485 C 0.53478 0.82915 0.06099 0.0
C486 C 0.51794 0.85436 0.07404 0.0
C487 C 0.55247 0.83759 0.02654 0.0
C488 C 0.55287 0.86956 0.00533 0.0
C489 C 0.53529 0.89442 0.0175 0.0
C490 C 0.51776 0.88649 0.05224 0.0
C491 C 0.47514 0.63028 0.0128 0.0
H492 H 0.57716 0.76461 0.25545 0.0
H493 H 0.53172 0.74706 0.20255 0.0
H494 H 0.64201 0.80502 0.13426 0.0
H495 H 0.68757 0.82132 0.18665 0.0
H496 H 0.56745 0.83171 0.12762 0.0
H497 H 0.5438 0.70224 0.12961 0.0
H498 H 0.50549 0.7483 0.03857 0.0
H499 H 0.458 0.67503 0.03327 0.0
H500 H 0.56399 0.67392 0.08382 0.0
H501 H 0.55651 0.61826 0.04292 0.0
H502 H 0.50399 0.84845 0.10059 0.0
H503 H 0.5662 0.81929 0.01583 0.0
H504 H 0.45216 0.62029 0.99139 0.0
H505 H 0.50336 0.90442 0.06217 0.0
H506 H 0.56703 0.8744 0.97893 0.0
C507 C 0.16075 0.82391 0.17965 0.0
C508 C 0.15768 0.804 0.21301 0.0
C509 C 0.17396 0.81163 0.14905 0.0
C510 C 0.18333 0.77839 0.15071 0.0
C511 C 0.17495 0.75464 0.18261 0.0
C512 C 0.16197 0.7673 0.21354 0.0
C513 C 0.20511 0.77165 0.11992 0.0
C514 C 0.24318 0.80624 0.10716 0.0
C515 C 0.26237 0.8029 0.07552 0.0
C516 C 0.24306 0.76385 0.05689 0.0
C517 C 0.20436 0.72897 0.06895 0.0
C518 C 0.18625 0.73283 0.10114 0.0
C519 C 0.17885 0.69223 0.04472 0.0
C520 C 0.17444 0.70059 0.00874 0.0
C521 C 0.15466 0.64989 0.0577 0.0
C522 C 0.12441 0.61743 0.03569 0.0
C523 C 0.11692 0.62733 0.00109 0.0
C524 C 0.30047 0.84143 0.06074 0.0
C525 C 0.30249 0.88141 0.06134 0.0
C526 C 0.33524 0.83916 0.04683 0.0
C527 C 0.37213 0.87656 0.03578 0.0
C528 C 0.37477 0.9168 0.03837 0.0
C529 C 0.33903 0.91847 0.05036 0.0
C530 C 0.14395 0.66865 0.98726 0.0
H531 H 0.15646 0.85151 0.17763 0.0
H532 H 0.17904 0.82966 0.12444 0.0
H533 H 0.18104 0.72817 0.18423 0.0
H534 H 0.15799 0.75013 0.23823 0.0
H535 H 0.25753 0.83625 0.12175 0.0
H536 H 0.15574 0.70699 0.11001 0.0
H537 H 0.2568 0.76143 0.03181 0.0
H538 H 0.19241 0.73268 -0.00229 0.0
H539 H 0.15818 0.6423 0.08513 0.0
H540 H 0.10571 0.58518 0.04604 0.0
H541 H 0.27592 0.88424 0.07086 0.0
H542 H 0.33457 0.80877 0.04588 0.0
H543 H 0.14023 0.67727 0.96023 0.0
H544 H 0.33962 0.94878 0.05233 0.0
H545 H 0.39915 0.87417 0.02685 0.0
C546 C 0.18331 0.38634 0.21824 0.0
C547 C 0.15753 0.3416 0.22205 0.0
C548 C 0.19603 0.40491 0.18427 0.0
C549 C 0.18234 0.37925 0.15356 0.0
C550 C 0.15439 0.33505 0.15703 0.0
C551 C 0.14245 0.31625 0.19107 0.0
C552 C 0.19734 0.39867 0.11788 0.0
C553 C 0.23875 0.41217 0.10662 0.0
C554 C 0.25352 0.43188 0.0728 0.0
C555 C 0.22585 0.43808 0.0505 0.0
C556 C 0.18406 0.42381 0.06165 0.0
C557 C 0.17013 0.40408 0.09526 0.0
C558 C 0.15412 0.43037 0.03989 0.0
C559 C 0.16091 0.47191 0.0342 0.0
C560 C 0.11419 0.3949 0.03283 0.0
C561 C 0.08026 0.40075 0.02461 0.0
C562 C 0.08582 0.44213 0.02295 0.0
C563 C 0.29745 0.44494 0.06114 0.0
C564 C 0.33013 0.46048 0.08654 0.0
C565 C 0.30671 0.43931 0.02548 0.0
C566 C 0.3471 0.44663 0.0161 0.0
C567 C 0.37839 0.45887 0.0424 0.0
C568 C 0.36987 0.46689 0.07738 0.0
C569 C 0.1268 0.47781 0.02557 0.0
H570 H 0.19623 0.40673 0.24152 0.0
H571 H 0.21737 0.43917 0.18198 0.0
H572 H 0.14326 0.31491 0.13346 0.0
H573 H 0.12309 0.2817 0.19323 0.0
H574 H 0.25905 0.40639 0.12412 0.0
H575 H 0.13815 0.39382 0.10429 0.0
H576 H 0.2366 0.45388 0.02473 0.0
H577 H 0.19143 0.49967 0.03991 0.0
H578 H 0.10836 0.36261 0.0371 0.0
H579 H 0.04896 0.37285 0.02244 0.0
H580 H 0.32479 0.46672 0.1139 0.0
H581 H 0.28233 0.42737 0.0052 0.0
H582 H 0.13171 0.51008 0.02463 0.0
H583 H 0.39388 0.47744 0.09798 0.0
H584 H 0.35314 0.44056 0.98889 0.0
C585 C 0.5228 0.97008 0.13115 0.0
C586 C 0.52386 0.00926 0.12599 0.0
C587 C 0.51233 0.94995 0.16477 0.0
C588 C 0.50284 0.96881 0.19366 0.0
C589 C 0.50809 0.00982 0.18945 0.0
C590 C 0.519 0.03008 0.1561 0.0
C591 C 0.48527 0.94496 0.22754 0.0
C592 C 0.50512 0.92552 0.24482 0.0
C593 C 0.48861 0.90268 0.27687 0.0
C594 C 0.45152 0.89888 0.29177 0.0
C595 C 0.43069 0.91778 0.27432 0.0
C596 C 0.44805 0.94095 0.2423 0.0
C597 C 0.39003 0.91239 0.28809 0.0
C598 C 0.3573 0.87213 0.29979 0.0
C599 C 0.3823 0.94684 0.28624 0.0
C600 C 0.34205 0.94057 0.29316 0.0
C601 C 0.3086 0.89981 0.30255 0.0
C602 C 0.51175 0.8838 0.29395 0.0
C603 C 0.51873 0.8549 0.27408 0.0
C604 C 0.53533 0.90224 0.32514 0.0
C605 C 0.56854 0.89513 0.33425 0.0
C606 C 0.57807 0.86968 0.31209 0.0
C607 C 0.55182 0.84804 0.28301 0.0
C608 C 0.31688 0.86592 0.30712 0.0
H609 H 0.52688 0.95347 0.10877 0.0
H610 H 0.509 0.91845 0.16756 0.0
H611 H 0.50204 0.02547 0.21161 0.0
H612 H 0.52029 0.06068 0.1534 0.0
H613 H 0.53408 0.9288 0.23361 0.0
H614 H 0.43184 0.95476 0.22804 0.0
H615 H 0.43895 0.88121 0.31657 0.0
H616 H 0.36221 0.8449 0.30132 0.0
H617 H 0.40708 0.97847 0.27814 0.0
H618 H 0.33677 0.96744 0.28994 0.0
H619 H 0.50109 0.84075 0.24975 0.0
H620 H 0.53072 0.92516 0.34041 0.0
H621 H 0.29162 0.83409 0.31418 0.0
H622 H 0.55896 0.82842 0.26555 0.0
H623 H 0.58887 0.91233 0.35656 0.0
C624 C 0.01961 0.50881 0.15814 0.0
C625 C 0.03148 0.53045 0.12484 0.0
C626 C 0.0476 0.52266 0.18683 0.0
C627 C 0.08767 0.55914 0.18341 0.0
C628 C 0.09751 0.58421 0.15213 0.0
C629 C 0.06938 0.56999 0.12306 0.0
C630 C 0.11898 0.56935 0.21228 0.0
C631 C 0.1292 0.5382 0.22329 0.0
C632 C 0.15362 0.54415 0.25416 0.0
C633 C 0.16782 0.58236 0.27376 0.0
C634 C 0.15791 0.61385 0.26295 0.0
C635 C 0.13435 0.60752 0.23161 0.0
C636 C 0.16513 0.64916 0.28763 0.0
C637 C 0.1519 0.63925 0.32341 0.0
C638 C 0.18101 0.69155 0.27539 0.0
C639 C 0.18226 0.72304 0.29844 0.0
C640 C 0.16655 0.71219 0.33353 0.0
C641 C 0.15992 0.50877 0.26853 0.0
C642 C 0.12734 0.46562 0.26631 0.0
C643 C 0.19642 0.51798 0.28819 0.0
C644 C 0.19815 0.48594 0.30827 0.0
C645 C 0.16384 0.44389 0.30864 0.0
C646 C 0.12942 0.4336 0.28605 0.0
C647 C 0.15252 0.67023 0.34598 0.0
H648 H 0.98994 0.47906 0.16137 0.0
H649 H 0.03862 0.50374 0.21128 0.0
H650 H 0.12777 0.61343 0.14948 0.0
H651 H 0.0782 0.5887 0.09878 0.0
H652 H 0.11711 0.50881 0.20807 0.0
H653 H 0.12482 0.63053 0.22401 0.0
H654 H 0.18457 0.58672 0.29873 0.0
H655 H 0.13903 0.60686 0.33359 0.0
H656 H 0.19182 0.70008 0.24795 0.0
H657 H 0.19486 0.75556 0.28883 0.0
H658 H 0.09844 0.45692 0.25194 0.0
H659 H 0.2226 0.55052 0.28999 0.0
H660 H 0.14048 0.66058 0.37301 0.0
H661 H 0.1019 0.40171 0.28678 0.0
H662 H 0.22455 0.49496 0.32622 0.0
C663 C 0.48894 0.5551 0.11082 0.0
C664 C 0.52153 0.54492 0.11092 0.0
C665 C 0.47334 0.56163 0.14297 0.0
C666 C 0.49057 0.55889 0.17564 0.0
C667 C 0.52486 0.55154 0.17586 0.0
C668 C 0.54005 0.54424 0.14372 0.0
C669 C 0.47334 0.56442 0.20961 0.0
C670 C 0.4354 0.53142 0.22379 0.0
C671 C 0.41971 0.53636 0.25699 0.0
C672 C 0.44398 0.57468 0.27632 0.0
C673 C 0.48246 0.60813 0.26211 0.0
C674 C 0.49593 0.60271 0.22822 0.0
C675 C 0.51019 0.64778 0.28294 0.0
C676 C 0.49323 0.66478 0.30761 0.0
C677 C 0.5546 0.66786 0.27948 0.0
C678 C 0.58109 0.70227 0.30123 0.0
C679 C 0.564 0.71685 0.32755 0.0
C680 C 0.37807 0.50131 0.27079 0.0
C681 C 0.34527 0.47736 0.24649 0.0
C682 C 0.37085 0.49031 0.30755 0.0
C683 C 0.33244 0.45502 0.31925 0.0
C684 C 0.30105 0.42998 0.29428 0.0
C685 C 0.3076 0.44207 0.258 0.0
C686 C 0.51996 0.6986 0.3301 0.0
H687 H 0.47319 0.55477 0.08617 0.0
H688 H 0.44711 0.56771 0.14241 0.0
H689 H 0.53875 0.54979 0.20099 0.0
H690 H 0.56469 0.53584 0.14463 0.0
H691 H 0.41858 0.50164 0.20906 0.0
H692 H 0.52444 0.62823 0.21601 0.0
H693 H 0.43298 0.57829 0.30235 0.0
H694 H 0.45938 0.65094 0.31066 0.0
H695 H 0.56933 0.6554 0.2617 0.0
H696 H 0.61493 0.71466 0.29981 0.0
H697 H 0.34881 0.48546 0.21823 0.0
H698 H 0.39537 0.50785 0.32709 0.0
H699 H 0.50618 0.70863 0.35106 0.0
H700 H 0.28362 0.42361 0.23824 0.0
H701 H 0.32814 0.44615 0.34736 0.0
O702 O 0.4462 0.958 0.01578 0.0
Mn703 Mn 0.5095 0.00527 0.00626 0.0
O704 O 0.41875 0.99046 0.04912 0.0
Mn705 Mn 0.46737 0.04353 0.05305 0.0
O706 O 0.57243 0.0529 0.99692 0.0
O707 O 0.52451 0.95575 0.00089 0.0
Mn708 Mn 0.53983 0.97028 0.95485 0.0
O709 O 0.4967 0.01077 0.95211 0.0
O710 O 0.58664 0.02447 0.94943 0.0
O711 O 0.52131 0.00339 0.06154 0.0
O712 O 0.50378 0.04785 0.08864 0.0
O713 O 0.55056 0.92822 0.96035 0.0
O714 O 0.49642 0.95789 0.92387 0.0
C715 C 0.48892 0.08494 0.00815 0.0
C716 C 0.4154 0.9575 0.03326 0.0
C717 C 0.59639 0.05565 0.97056 0.0
C718 C 0.536 0.92717 0.99236 0.0
C719 C 0.48887 0.98823 0.92382 0.0
C720 C 0.51919 0.02311 0.08965 0.0
O721 O 0.49486 0.05248 0.01241 0.0
O722 O 0.46939 0.09142 0.03428 0.0
O723 O 0.04659 0.47657 0.00833 0.0
Mn724 Mn 0.00396 0.49877 0.00698 0.0
O725 O 0.0206 0.4234 0.04959 0.0
Mn726 Mn 0.97296 0.42613 0.06368 0.0
O727 O 0.96056 0.51988 0.00618 0.0
O728 O 0.05475 0.5566 0.98876 0.0
Mn729 Mn 0.02964 0.55791 0.94809 0.0
O730 O 0.98273 0.47225 0.95508 0.0
O731 O 0.97761 0.55504 0.95401 0.0
O732 O 0.02214 0.52243 0.06021 0.0
O733 O 0.98193 0.46723 0.09693 0.0
O734 O 0.07371 0.61056 0.94918 0.0
O735 O 0.02862 0.51875 0.91673 0.0
C736 C 0.92329 0.40481 0.0255 0.0
C737 C 0.04844 0.44722 0.02639 0.0
C738 C 0.9529 0.5387 0.98072 0.0
C739 C 0.07944 0.59725 0.97991 0.0
C740 C 0.99728 0.48222 0.92294 0.0
C741 C 0.00884 0.50663 0.09196 0.0
O742 O 0.95735 0.44187 0.02505 0.0
O743 O 0.91969 0.38159 0.05323 0.0
O744 O 0.56934 0.52752 0.98899 0.0
Mn745 Mn 0.50465 0.50311 0.99741 0.0
O746 O 0.58977 0.58207 0.94955 0.0
Mn747 Mn 0.5368 0.57573 0.94056 0.0
O748 O 0.44031 0.4791 0.00664 0.0
O749 O 0.49906 0.44543 0.01385 0.0
Mn750 Mn 0.48403 0.44656 0.05911 0.0
O751 O 0.51566 0.53084 0.04861 0.0
O752 O 0.43322 0.44696 0.05999 0.0
O753 O 0.49364 0.47862 0.94426 0.0
O754 O 0.50396 0.53338 0.9085 0.0
O755 O 0.48374 0.39692 0.05725 0.0
O756 O 0.5271 0.48975 0.08443 0.0
C757 C 0.50977 0.59478 0.98254 0.0
C758 C 0.59777 0.55845 0.96996 0.0
C759 C 0.41912 0.46096 0.03527 0.0
C760 C 0.49549 0.40886 0.02435 0.0
C761 C 0.52766 0.52446 0.079 0.0
C762 C 0.49332 0.4942 0.91303 0.0
O763 O 0.50993 0.55898 0.98148 0.0
O764 O 0.52531 0.61818 0.9541 0.0
O765 O 0.11284 0.29132 0.34911 0.0
Mn766 Mn 0.17614 0.33859 0.33959 0.0
O767 O 0.08539 0.32379 0.38243 0.0
Mn768 Mn 0.13401 0.37686 0.38637 0.0
O769 O 0.23907 0.38621 0.33025 0.0
O770 O 0.19115 0.28906 0.33422 0.0
Mn771 Mn 0.20647 0.30359 0.28818 0.0
O772 O 0.16334 0.34409 0.28544 0.0
O773 O 0.25327 0.35778 0.28276 0.0
O774 O 0.18795 0.33671 0.39487 0.0
O775 O 0.17041 0.38116 0.42196 0.0
O776 O 0.21719 0.26153 0.29368 0.0
O777 O 0.16306 0.29121 0.2572 0.0
C778 C 0.15557 0.41826 0.34147 0.0
C779 C 0.08203 0.29083 0.36658 0.0
C780 C 0.26303 0.38896 0.30389 0.0
C781 C 0.20264 0.26048 0.32569 0.0
C782 C 0.15551 0.32155 0.25714 0.0
C783 C 0.18583 0.35643 0.42298 0.0
O784 O 0.1615 0.3858 0.34574 0.0
O785 O 0.13604 0.42475 0.36761 0.0
O786 O 0.71377 0.8107 0.34183 0.0
Mn787 Mn 0.6703 0.83203 0.34052 0.0
O788 O 0.68742 0.75689 0.3827 0.0
Mn789 Mn 0.63972 0.75926 0.39711 0.0
O790 O 0.62631 0.85228 0.33921 0.0
O791 O 0.71801 0.89177 0.32314 0.0
Mn792 Mn 0.69583 0.89209 0.28087 0.0
O793 O 0.64909 0.80545 0.2887 0.0
O794 O 0.64387 0.88902 0.2873 0.0
O795 O 0.68841 0.85565 0.39367 0.0
O796 O 0.64854 0.80037 0.43035 0.0
O797 O 0.74328 0.94278 0.28088 0.0
O798 O 0.69517 0.85186 0.25073 0.0
C799 C 0.59013 0.73786 0.35883 0.0
C800 C 0.71535 0.78093 0.35962 0.0
C801 C 0.61902 0.87178 0.31395 0.0
C802 C 0.74814 0.9296 0.31196 0.0
C803 C 0.66382 0.81538 0.25667 0.0
C804 C 0.67532 0.8398 0.4254 0.0
O805 O 0.62429 0.7748 0.35835 0.0
O806 O 0.5864 0.7147 0.38662 0.0
O807 O 0.2366 0.86148 0.32245 0.0
Mn808 Mn 0.172 0.83708 0.33083 0.0
O809 O 0.2568 0.91567 0.28263 0.0
Mn810 Mn 0.20385 0.90949 0.27374 0.0
O811 O 0.10764 0.81328 0.34006 0.0
O812 O 0.16624 0.77922 0.3471 0.0
Mn813 Mn 0.15094 0.78022 0.39228 0.0
O814 O 0.18312 0.86482 0.38203 0.0
O815 O 0.10005 0.78039 0.3931 0.0
O816 O 0.16104 0.81255 0.2777 0.0
O817 O 0.17075 0.867 0.24186 0.0
O818 O 0.15058 0.73058 0.3905 0.0
O819 O 0.19381 0.8232 0.41788 0.0
C820 C 0.17687 0.92855 0.31582 0.0
C821 C 0.26488 0.89222 0.30321 0.0
C822 C 0.08617 0.79473 0.36849 0.0
C823 C 0.16252 0.74258 0.35765 0.0
C824 C 0.1947 0.85808 0.41248 0.0
C825 C 0.16038 0.8279 0.24645 0.0
O826 O 0.17728 0.8929 0.31481 0.0
O827 O 0.19221 0.95188 0.28732 0.0
O828 O 0.7795 0.62464 0.68243 0.0
Mn829 Mn 0.84281 0.6719 0.67291 0.0
O830 O 0.75208 0.65711 0.71579 0.0
Mn831 Mn 0.8007 0.71018 0.71972 0.0
O832 O 0.90575 0.71952 0.66357 0.0
O833 O 0.8578 0.62237 0.66752 0.0
Mn834 Mn 0.87312 0.6369 0.62149 0.0
O835 O 0.83001 0.67742 0.61876 0.0
O836 O 0.91993 0.69109 0.61607 0.0
O837 O 0.85461 0.66999 0.7282 0.0
O838 O 0.83712 0.71447 0.7553 0.0
O839 O 0.88382 0.59483 0.62697 0.0
O840 O 0.8297 0.62453 0.59051 0.0
C841 C 0.82226 0.75158 0.67482 0.0
C842 C 0.7487 0.62416 0.69991 0.0
C843 C 0.9297 0.72227 0.63721 0.0
C844 C 0.86927 0.59378 0.65898 0.0
C845 C 0.82217 0.65488 0.59047 0.0
C846 C 0.85251 0.68971 0.75631 0.0
O847 O 0.82819 0.71912 0.67908 0.0
O848 O 0.80274 0.75807 0.70096 0.0
O849 O 0.38043 0.14401 0.67517 0.0
Mn850 Mn 0.33696 0.16534 0.67386 0.0
O851 O 0.35409 0.09022 0.71606 0.0
Mn852 Mn 0.30639 0.0926 0.73045 0.0
O853 O 0.29298 0.1856 0.67254 0.0
O854 O 0.38469 0.22509 0.65649 0.0
Mn855 Mn 0.36251 0.22534 0.61421 0.0
O856 O 0.31574 0.13875 0.62204 0.0
O857 O 0.31054 0.22227 0.62059 0.0
O858 O 0.35508 0.18897 0.727 0.0
O859 O 0.31521 0.13371 0.76369 0.0
O860 O 0.40994 0.27604 0.61418 0.0
O861 O 0.36188 0.18511 0.58409 0.0
C862 C 0.25681 0.07119 0.69216 0.0
C863 C 0.38201 0.11424 0.69296 0.0
C864 C 0.28569 0.20507 0.64724 0.0
C865 C 0.41481 0.26291 0.64528 0.0
C866 C 0.33049 0.14866 0.59002 0.0
C867 C 0.34199 0.17314 0.75873 0.0
O868 O 0.29097 0.10813 0.69169 0.0
O869 O 0.25307 0.04803 0.71997 0.0
O870 O 0.90326 0.19477 0.65578 0.0
Mn871 Mn 0.83866 0.17039 0.66416 0.0
O872 O 0.92348 0.24897 0.61596 0.0
Mn873 Mn 0.87053 0.24281 0.60707 0.0
O874 O 0.77431 0.1466 0.6734 0.0
O875 O 0.8329 0.11253 0.68047 0.0
Mn876 Mn 0.81759 0.11351 0.72565 0.0
O877 O 0.84979 0.19813 0.71536 0.0
O878 O 0.76671 0.1137 0.72644 0.0
O879 O 0.82771 0.14585 0.61103 0.0
O880 O 0.83743 0.20031 0.57518 0.0
O881 O 0.81727 0.06389 0.72384 0.0
O882 O 0.86047 0.15652 0.75123 0.0
C883 C 0.84355 0.26185 0.64915 0.0
C884 C 0.93155 0.22551 0.63655 0.0
C885 C 0.75283 0.12804 0.70182 0.0
C886 C 0.82919 0.07589 0.69099 0.0
C887 C 0.86137 0.1914 0.74581 0.0
C888 C 0.82705 0.1612 0.57978 0.0
O889 O 0.84396 0.2262 0.64813 0.0
O890 O 0.85889 0.28519 0.62065 0.0
loop_
_geom_bond_atom_site_label_1
_geom_bond_atom_site_label_2
_geom_bond_distance
_geom_bond_site_symmetry_2
_ccdc_geom_bond_type
C0 C1 1.386 . S
C0 C2 1.397 . S
C0 H24 0.931 . S
C1 C0 1.386 . S
C1 C5 1.397 . S
C2 C0 1.397 . S
C2 C3 1.384 . S
C2 H25 0.930 . S
C3 C2 1.384 . S
C3 C4 1.377 . S
C3 C6 1.481 . S
C4 C3 1.377 . S
C4 C5 1.389 . S
C4 H26 0.929 . S
C5 C1 1.397 . S
C5 C4 1.389 . S
C5 H27 0.931 . S
C6 C3 1.481 . S
C6 C7 1.387 . S
C6 C11 1.390 . S
C7 C6 1.387 . S
C7 C8 1.401 . S
C7 H28 0.930 . S
C8 C7 1.401 . S
C8 C9 1.376 . S
C8 C17 1.511 . S
C9 C8 1.376 . S
C9 C10 1.392 . S
C9 H30 0.931 . S
C10 C9 1.392 . S
C10 C11 1.361 . S
C10 C12 1.500 . S
C11 C6 1.390 . S
C11 C10 1.361 . S
C11 H29 0.931 . S
C12 C10 1.500 . S
C12 C13 1.371 . S
C12 C14 1.365 . S
C13 C12 1.371 . S
C13 C23 1.386 1_545 S
C13 H31 0.931 . S
C14 C12 1.365 . S
C14 C15 1.409 1_545 S
C14 H32 0.929 . S
C15 C14 1.409 1_565 S
C15 C16 1.380 . S
C15 H33 0.930 . S
C16 C15 1.380 . S
C16 C23 1.357 . S
C17 C8 1.511 . S
C17 C18 1.341 . S
C17 C19 1.371 . S
C18 C17 1.341 . S
C18 C22 1.394 . S
C18 H34 0.930 . S
C19 C17 1.371 . S
C19 C20 1.392 . S
C19 H35 0.931 . S
C20 C19 1.392 . S
C20 C21 1.331 . S
C20 H38 0.932 . S
C21 C20 1.331 . S
C21 C22 1.336 . S
C22 C18 1.394 . S
C22 C21 1.336 . S
C22 H37 0.929 . S
C23 C13 1.386 1_565 S
C23 C16 1.357 . S
C23 H36 0.928 . S
H24 C0 0.931 . S
H25 C2 0.930 . S
H26 C4 0.929 . S
H27 C5 0.931 . S
H28 C7 0.930 . S
H29 C11 0.931 . S
H30 C9 0.931 . S
H31 C13 0.931 . S
H32 C14 0.929 . S
H33 C15 0.930 . S
H34 C18 0.930 . S
H35 C19 0.931 . S
H36 C23 0.928 . S
H37 C22 0.929 . S
H38 C20 0.932 . S
C39 C40 1.386 . S
C39 C41 1.397 . S
C39 H63 0.931 . S
C40 C39 1.386 . S
C40 C44 1.397 . S
C41 C39 1.397 . S
C41 C42 1.384 . S
C41 H64 0.930 . S
C42 C41 1.384 . S
C42 C43 1.377 . S
C42 C45 1.481 . S
C43 C42 1.377 . S
C43 C44 1.389 . S
C43 H65 0.929 . S
C44 C40 1.397 . S
C44 C43 1.389 . S
C44 H66 0.931 . S
C45 C42 1.481 . S
C45 C46 1.387 . S
C45 C50 1.390 . S
C46 C45 1.387 . S
C46 C47 1.401 . S
C46 H67 0.930 . S
C47 C46 1.401 . S
C47 C48 1.376 . S
C47 C56 1.511 . S
C48 C47 1.376 . S
C48 C49 1.392 . S
C48 H69 0.931 . S
C49 C48 1.392 . S
C49 C50 1.361 . S
C49 C51 1.500 . S
C50 C45 1.390 . S
C50 C49 1.361 . S
C50 H68 0.931 . S
C51 C49 1.500 . S
C51 C52 1.371 . S
C51 C53 1.365 . S
C52 C51 1.371 . S
C52 C62 1.386 . S
C52 H70 0.931 . S
C53 C51 1.365 . S
C53 C54 1.409 1_545 S
C53 H71 0.929 . S
C54 C53 1.409 1_565 S
C54 C55 1.380 . S
C54 H72 0.930 . S
C55 C54 1.380 . S
C55 C62 1.357 1_565 S
C56 C47 1.511 . S
C56 C57 1.341 . S
C56 C58 1.371 . S
C57 C56 1.341 . S
C57 C61 1.394 1_655 S
C57 H73 0.930 . S
C58 C56 1.371 . S
C58 C59 1.392 1_655 S
C58 H74 0.931 . S
C59 C58 1.392 1_455 S
C59 C60 1.331 . S
C59 H77 0.932 . S
C60 C59 1.331 . S
C60 C61 1.336 . S
C61 C57 1.394 1_455 S
C61 C60 1.336 . S
C61 H76 0.929 . S
C62 C52 1.386 . S
C62 C55 1.357 1_545 S
C62 H75 0.928 . S
H63 C39 0.931 . S
H64 C41 0.930 . S
H65 C43 0.929 . S
H66 C44 0.931 . S
H67 C46 0.930 . S
H68 C50 0.931 . S
H69 C48 0.931 . S
H70 C52 0.931 . S
H71 C53 0.929 . S
H72 C54 0.930 . S
H73 C57 0.930 . S
H74 C58 0.931 . S
H75 C62 0.928 . S
H76 C61 0.929 . S
H77 C59 0.932 . S
C78 C79 1.386 . S
C78 C80 1.397 . S
C78 H102 0.931 . S
C79 C78 1.386 . S
C79 C83 1.397 . S
C80 C78 1.397 . S
C80 C81 1.384 . S
C80 H103 0.930 . S
C81 C80 1.384 . S
C81 C82 1.377 . S
C81 C84 1.481 . S
C82 C81 1.377 . S
C82 C83 1.389 . S
C82 H104 0.929 . S
C83 C79 1.397 . S
C83 C82 1.389 . S
C83 H105 0.931 . S
C84 C81 1.481 . S
C84 C85 1.387 . S
C84 C89 1.390 . S
C85 C84 1.387 . S
C85 C86 1.401 . S
C85 H106 0.930 . S
C86 C85 1.401 . S
C86 C87 1.376 . S
C86 C95 1.511 . S
C87 C86 1.376 . S
C87 C88 1.392 . S
C87 H108 0.931 . S
C88 C87 1.392 . S
C88 C89 1.361 . S
C88 C90 1.500 . S
C89 C84 1.390 . S
C89 C88 1.361 . S
C89 H107 0.931 . S
C90 C88 1.500 . S
C90 C91 1.371 . S
C90 C92 1.365 . S
C91 C90 1.371 . S
C91 C101 1.386 . S
C91 H109 0.931 . S
C92 C90 1.365 . S
C92 C93 1.409 . S
C92 H110 0.929 . S
C93 C92 1.409 . S
C93 C94 1.380 . S
C93 H111 0.930 . S
C94 C93 1.380 . S
C94 C101 1.357 . S
C95 C86 1.511 . S
C95 C96 1.341 . S
C95 C97 1.371 . S
C96 C95 1.341 . S
C96 C100 1.394 1_655 S
C96 H112 0.930 . S
C97 C95 1.371 . S
C97 C98 1.392 . S
C97 H113 0.931 . S
C98 C97 1.392 . S
C98 C99 1.331 1_655 S
C98 H116 0.932 . S
C99 C98 1.331 1_455 S
C99 C100 1.336 . S
C100 C96 1.394 1_455 S
C100 C99 1.336 . S
C100 H115 0.929 . S
C101 C91 1.386 . S
C101 C94 1.357 . S
C101 H114 0.928 . S
H102 C78 0.931 . S
H103 C80 0.930 . S
H104 C82 0.929 . S
H105 C83 0.931 . S
H106 C85 0.930 . S
H107 C89 0.931 . S
H108 C87 0.931 . S
H109 C91 0.931 . S
H110 C92 0.929 . S
H111 C93 0.930 . S
H112 C96 0.930 . S
H113 C97 0.931 . S
H114 C101 0.928 . S
H115 C100 0.929 . S
H116 C98 0.932 . S
C117 C118 1.386 . S
C117 C119 1.397 . S
C117 H141 0.931 . S
C118 C117 1.386 . S
C118 C122 1.397 . S
C119 C117 1.397 . S
C119 C120 1.384 . S
C119 H142 0.930 . S
C120 C119 1.384 . S
C120 C121 1.377 . S
C120 C123 1.481 . S
C121 C120 1.377 . S
C121 C122 1.389 . S
C121 H143 0.929 . S
C122 C118 1.397 . S
C122 C121 1.389 . S
C122 H144 0.931 . S
C123 C120 1.481 . S
C123 C124 1.387 . S
C123 C128 1.390 . S
C124 C123 1.387 . S
C124 C125 1.401 . S
C124 H145 0.930 . S
C125 C124 1.401 . S
C125 C126 1.376 . S
C125 C134 1.511 . S
C126 C125 1.376 . S
C126 C127 1.392 . S
C126 H147 0.931 . S
C127 C126 1.392 . S
C127 C128 1.361 . S
C127 C129 1.500 . S
C128 C123 1.390 . S
C128 C127 1.361 . S
C128 H146 0.931 . S
C129 C127 1.500 . S
C129 C130 1.371 . S
C129 C131 1.365 . S
C130 C129 1.371 . S
C130 C140 1.401 . S
C130 H148 0.931 . S
C131 C129 1.365 . S
C131 C132 1.409 . S
C131 H149 0.929 . S
C132 C131 1.409 . S
C132 C133 1.380 1_455 S
C132 H150 0.930 1_455 S
C133 C132 1.380 1_655 S
C133 C140 1.344 1_655 S
C134 C125 1.511 . S
C134 C135 1.341 . S
C134 C136 1.371 . S
C135 C134 1.341 . S
C135 C139 1.394 . S
C135 H151 0.930 . S
C136 C134 1.371 . S
C136 C137 1.392 . S
C136 H152 0.931 . S
C137 C136 1.392 . S
C137 C138 1.331 . S
C137 H155 0.932 . S
C138 C137 1.331 . S
C138 C139 1.336 . S
C139 C135 1.394 . S
C139 C138 1.336 . S
C139 H154 0.929 . S
C140 C130 1.401 . S
C140 C133 1.344 1_455 S
C140 H153 0.927 1_455 S
H141 C117 0.931 . S
H142 C119 0.930 . S
H143 C121 0.929 . S
H144 C122 0.931 . S
H145 C124 0.930 . S
H146 C128 0.931 . S
H147 C126 0.931 . S
H148 C130 0.931 . S
H149 C131 0.929 . S
H150 C132 0.930 1_655 S
H151 C135 0.930 . S
H152 C136 0.931 . S
H153 C140 0.927 1_655 S
H154 C139 0.929 . S
H155 C137 0.932 . S
C156 C157 1.386 . S
C156 C158 1.397 . S
C156 H180 0.931 . S
C157 C156 1.386 . S
C157 C161 1.397 . S
C158 C156 1.397 . S
C158 C159 1.384 . S
C158 H181 0.930 . S
C159 C158 1.384 . S
C159 C160 1.377 . S
C159 C162 1.481 . S
C160 C159 1.377 . S
C160 C161 1.389 . S
C160 H182 0.929 . S
C161 C157 1.397 . S
C161 C160 1.389 . S
C161 H183 0.931 . S
C162 C159 1.481 . S
C162 C163 1.387 . S
C162 C167 1.390 . S
C163 C162 1.387 . S
C163 C164 1.401 . S
C163 H184 0.930 . S
C164 C163 1.401 . S
C164 C165 1.376 . S
C164 C173 1.511 . S
C165 C164 1.376 . S
C165 C166 1.392 . S
C165 H186 0.931 . S
C166 C165 1.392 . S
C166 C167 1.361 . S
C166 C168 1.500 . S
C167 C162 1.390 . S
C167 C166 1.361 . S
C167 H185 0.931 . S
C168 C166 1.500 . S
C168 C169 1.371 . S
C168 C170 1.365 . S
C169 C168 1.371 . S
C169 C179 1.386 . S
C169 H187 0.931 . S
C170 C168 1.365 . S
C170 C171 1.409 1_565 S
C170 H188 0.929 . S
C171 C170 1.409 1_545 S
C171 C172 1.380 . S
C171 H189 0.930 . S
C172 C171 1.380 . S
C172 C179 1.357 1_545 S
C173 C164 1.511 . S
C173 C174 1.341 . S
C173 C175 1.371 . S
C174 C173 1.341 . S
C174 C178 1.394 . S
C174 H190 0.930 . S
C175 C173 1.371 . S
C175 C176 1.392 . S
C175 H191 0.931 . S
C176 C175 1.392 . S
C176 C177 1.331 . S
C176 H194 0.932 . S
C177 C176 1.331 . S
C177 C178 1.336 . S
C178 C174 1.394 . S
C178 C177 1.336 . S
C178 H193 0.929 . S
C179 C169 1.386 . S
C179 C172 1.357 1_565 S
C179 H192 0.928 . S
H180 C156 0.931 . S
H181 C158 0.930 . S
H182 C160 0.929 . S
H183 C161 0.931 . S
H184 C163 0.930 . S
H185 C167 0.931 . S
H186 C165 0.931 . S
H187 C169 0.931 . S
H188 C170 0.929 . S
H189 C171 0.930 . S
H190 C174 0.930 . S
H191 C175 0.931 . S
H192 C179 0.928 . S
H193 C178 0.929 . S
H194 C176 0.932 . S
C195 C196 1.386 . S
C195 C197 1.397 . S
C195 H219 0.931 . S
C196 C195 1.386 . S
C196 C200 1.397 . S
C197 C195 1.397 . S
C197 C198 1.384 . S
C197 H220 0.930 . S
C198 C197 1.384 . S
C198 C199 1.377 . S
C198 C201 1.481 . S
C199 C198 1.377 . S
C199 C200 1.389 . S
C199 H221 0.929 . S
C200 C196 1.397 . S
C200 C199 1.389 . S
C200 H222 0.931 . S
C201 C198 1.481 . S
C201 C202 1.387 . S
C201 C206 1.390 . S
C202 C201 1.387 . S
C202 C203 1.401 . S
C202 H223 0.930 . S
C203 C202 1.401 . S
C203 C204 1.376 . S
C203 C212 1.511 . S
C204 C203 1.376 . S
C204 C205 1.392 . S
C204 H225 0.931 . S
C205 C204 1.392 . S
C205 C206 1.361 . S
C205 C207 1.500 . S
C206 C201 1.390 . S
C206 C205 1.361 . S
C206 H224 0.931 . S
C207 C205 1.500 . S
C207 C208 1.371 . S
C207 C209 1.365 . S
C208 C207 1.371 . S
C208 C218 1.386 1_565 S
C208 H226 0.931 . S
C209 C207 1.365 . S
C209 C210 1.409 1_565 S
C209 H227 0.929 . S
C210 C209 1.409 1_545 S
C210 C211 1.380 . S
C210 H228 0.930 . S
C211 C210 1.380 . S
C211 C218 1.357 . S
C212 C203 1.511 . S
C212 C213 1.341 . S
C212 C214 1.371 . S
C213 C212 1.341 . S
C213 C217 1.394 1_455 S
C213 H229 0.930 . S
C214 C212 1.371 . S
C214 C215 1.392 . S
C214 H230 0.931 . S
C215 C214 1.392 . S
C215 C216 1.331 1_455 S
C215 H233 0.932 . S
C216 C215 1.331 1_655 S
C216 C217 1.336 . S
C217 C213 1.394 1_655 S
C217 C216 1.336 . S
C217 H232 0.929 . S
C218 C208 1.386 1_545 S
C218 C211 1.357 . S
C218 H231 0.928 . S
H219 C195 0.931 . S
H220 C197 0.930 . S
H221 C199 0.929 . S
H222 C200 0.931 . S
H223 C202 0.930 . S
H224 C206 0.931 . S
H225 C204 0.931 . S
H226 C208 0.931 . S
H227 C209 0.929 . S
H228 C210 0.930 . S
H229 C213 0.930 . S
H230 C214 0.931 . S
H231 C218 0.928 . S
H232 C217 0.929 . S
H233 C215 0.932 . S
C234 C235 1.386 . S
C234 C236 1.397 . S
C234 H258 0.931 . S
C235 C234 1.386 . S
C235 C239 1.397 1_655 S
C236 C234 1.397 . S
C236 C237 1.384 . S
C236 H259 0.930 . S
C237 C236 1.384 . S
C237 C238 1.377 . S
C237 C240 1.481 . S
C238 C237 1.377 . S
C238 C239 1.389 1_655 S
C238 H260 0.929 1_655 S
C239 C235 1.397 1_455 S
C239 C238 1.389 1_455 S
C239 H261 0.931 . S
C240 C237 1.481 . S
C240 C241 1.387 . S
C240 C245 1.390 . S
C241 C240 1.387 . S
C241 C242 1.401 . S
C241 H262 0.930 . S
C242 C241 1.401 . S
C242 C243 1.376 . S
C242 C251 1.511 . S
C243 C242 1.376 . S
C243 C244 1.392 . S
C243 H264 0.931 . S
C244 C243 1.392 . S
C244 C245 1.361 . S
C244 C246 1.500 . S
C245 C240 1.390 . S
C245 C244 1.361 . S
C245 H263 0.931 . S
C246 C244 1.500 . S
C246 C247 1.371 . S
C246 C248 1.365 . S
C247 C246 1.371 . S
C247 C257 1.386 . S
C247 H265 0.931 . S
C248 C246 1.365 . S
C248 C249 1.409 . S
C248 H266 0.929 . S
C249 C248 1.409 . S
C249 C250 1.380 . S
C249 H267 0.930 . S
C250 C249 1.380 . S
C250 C257 1.357 . S
C251 C242 1.511 . S
C251 C252 1.341 . S
C251 C253 1.371 . S
C252 C251 1.341 . S
C252 C256 1.394 . S
C252 H268 0.930 . S
C253 C251 1.371 . S
C253 C254 1.392 . S
C253 H269 0.931 . S
C254 C253 1.392 . S
C254 C255 1.331 . S
C254 H272 0.932 . S
C255 C254 1.331 . S
C255 C256 1.336 . S
C256 C252 1.394 . S
C256 C255 1.336 . S
C256 H271 0.929 . S
C257 C247 1.386 . S
C257 C250 1.357 . S
C257 H270 0.928 . S
H258 C234 0.931 . S
H259 C236 0.930 . S
H260 C238 0.929 1_455 S
H261 C239 0.931 . S
H262 C241 0.930 . S
H263 C245 0.931 . S
H264 C243 0.931 . S
H265 C247 0.931 . S
H266 C248 0.929 . S
H267 C249 0.930 . S
H268 C252 0.930 . S
H269 C253 0.931 . S
H270 C257 0.928 . S
H271 C256 0.929 . S
H272 C254 0.932 . S
C273 C274 1.386 . S
C273 C275 1.397 . S
C273 H297 0.931 . S
C274 C273 1.386 . S
C274 C278 1.397 . S
C275 C273 1.397 . S
C275 C276 1.384 . S
C275 H298 0.930 . S
C276 C275 1.384 . S
C276 C277 1.377 . S
C276 C279 1.481 . S
C277 C276 1.377 . S
C277 C278 1.389 . S
C277 H299 0.929 . S
C278 C274 1.397 . S
C278 C277 1.389 . S
C278 H300 0.931 . S
C279 C276 1.481 . S
C279 C280 1.387 . S
C279 C284 1.390 . S
C280 C279 1.387 . S
C280 C281 1.401 . S
C280 H301 0.930 . S
C281 C280 1.401 . S
C281 C282 1.376 . S
C281 C290 1.511 . S
C282 C281 1.376 . S
C282 C283 1.392 . S
C282 H303 0.931 . S
C283 C282 1.392 . S
C283 C284 1.361 . S
C283 C285 1.500 . S
C284 C279 1.390 . S
C284 C283 1.361 . S
C284 H302 0.931 . S
C285 C283 1.500 . S
C285 C286 1.371 . S
C285 C287 1.365 . S
C286 C285 1.371 . S
C286 C296 1.386 . S
C286 H304 0.931 . S
C287 C285 1.365 . S
C287 C288 1.409 . S
C287 H305 0.929 . S
C288 C287 1.409 . S
C288 C289 1.380 . S
C288 H306 0.930 . S
C289 C288 1.380 . S
C289 C296 1.357 . S
C290 C281 1.511 . S
C290 C291 1.341 . S
C290 C292 1.371 . S
C291 C290 1.341 . S
C291 C295 1.394 . S
C291 H307 0.930 . S
C292 C290 1.371 . S
C292 C293 1.392 . S
C292 H308 0.931 . S
C293 C292 1.392 . S
C293 C294 1.331 . S
C293 H311 0.932 . S
C294 C293 1.331 . S
C294 C295 1.336 . S
C295 C291 1.394 . S
C295 C294 1.336 . S
C295 H310 0.929 . S
C296 C286 1.386 . S
C296 C289 1.357 . S
C296 H309 0.928 . S
H297 C273 0.931 . S
H298 C275 0.930 . S
H299 C277 0.929 . S
H300 C278 0.931 . S
H301 C280 0.930 . S
H302 C284 0.931 . S
H303 C282 0.931 . S
H304 C286 0.931 . S
H305 C287 0.929 . S
H306 C288 0.930 . S
H307 C291 0.930 . S
H308 C292 0.931 . S
H309 C296 0.928 . S
H310 C295 0.929 . S
H311 C293 0.932 . S
C312 C313 1.393 . S
C312 C314 1.397 . S
C312 H336 0.931 . S
C313 C312 1.393 . S
C313 C317 1.398 1_545 S
C314 C312 1.397 . S
C314 C315 1.384 . S
C314 H337 0.930 . S
C315 C314 1.384 . S
C315 C316 1.377 . S
C315 C318 1.481 . S
C316 C315 1.377 . S
C316 C317 1.389 1_545 S
C316 H338 0.929 1_545 S
C317 C313 1.398 1_565 S
C317 C316 1.389 1_565 S
C317 H339 0.931 . S
C318 C315 1.481 . S
C318 C319 1.387 . S
C318 C323 1.390 . S
C319 C318 1.387 . S
C319 C320 1.401 . S
C319 H340 0.930 . S
C320 C319 1.401 . S
C320 C321 1.376 . S
C320 C329 1.511 . S
C321 C320 1.376 . S
C321 C322 1.392 . S
C321 H342 0.931 . S
C322 C321 1.392 . S
C322 C323 1.361 . S
C322 C324 1.500 . S
C323 C318 1.390 . S
C323 C322 1.361 . S
C323 H341 0.931 . S
C324 C322 1.500 . S
C324 C325 1.371 . S
C324 C326 1.365 . S
C325 C324 1.371 . S
C325 C335 1.386 . S
C325 H343 0.931 . S
C326 C324 1.365 . S
C326 C327 1.409 . S
C326 H344 0.929 . S
C327 C326 1.409 . S
C327 C328 1.380 . S
C327 H345 0.930 . S
C328 C327 1.380 . S
C328 C335 1.357 . S
C329 C320 1.511 . S
C329 C330 1.341 . S
C329 C331 1.371 . S
C330 C329 1.341 . S
C330 C334 1.394 . S
C330 H346 0.930 . S
C331 C329 1.371 . S
C331 C332 1.392 . S
C331 H347 0.931 . S
C332 C331 1.392 . S
C332 C333 1.331 . S
C332 H350 0.932 . S
C333 C332 1.331 . S
C333 C334 1.336 . S
C334 C330 1.394 . S
C334 C333 1.336 . S
C334 H349 0.929 . S
C335 C325 1.386 . S
C335 C328 1.357 . S
C335 H348 0.928 . S
H336 C312 0.931 . S
H337 C314 0.930 . S
H338 C316 0.929 1_565 S
H339 C317 0.931 . S
H340 C319 0.930 . S
H341 C323 0.931 . S
H342 C321 0.931 . S
H343 C325 0.931 . S
H344 C326 0.929 . S
H345 C327 0.930 . S
H346 C330 0.930 . S
H347 C331 0.931 . S
H348 C335 0.928 . S
H349 C334 0.929 . S
H350 C332 0.932 . S
C351 C352 1.386 . S
C351 C353 1.397 . S
C351 H375 0.931 . S
C352 C351 1.386 . S
C352 C356 1.397 . S
C353 C351 1.397 . S
C353 C354 1.384 . S
C353 H376 0.930 . S
C354 C353 1.384 . S
C354 C355 1.377 . S
C354 C357 1.481 . S
C355 C354 1.377 . S
C355 C356 1.389 . S
C355 H377 0.929 . S
C356 C352 1.397 . S
C356 C355 1.389 . S
C356 H378 0.931 . S
C357 C354 1.481 . S
C357 C358 1.387 . S
C357 C362 1.390 . S
C358 C357 1.387 . S
C358 C359 1.401 . S
C358 H379 0.930 . S
C359 C358 1.401 . S
C359 C360 1.376 . S
C359 C368 1.511 . S
C360 C359 1.376 . S
C360 C361 1.392 . S
C360 H381 0.931 . S
C361 C360 1.392 . S
C361 C362 1.361 . S
C361 C363 1.500 . S
C362 C357 1.390 . S
C362 C361 1.361 . S
C362 H380 0.931 . S
C363 C361 1.500 . S
C363 C364 1.371 . S
C363 C365 1.365 . S
C364 C363 1.371 . S
C364 C374 1.386 1_556 S
C364 H382 0.931 1_556 S
C365 C363 1.365 . S
C365 C366 1.409 . S
C365 H383 0.929 . S
C366 C365 1.409 . S
C366 C367 1.380 1_556 S
C366 H384 0.930 . S
C367 C366 1.380 1_554 S
C367 C374 1.357 . S
C368 C359 1.511 . S
C368 C369 1.341 . S
C368 C370 1.371 1_556 S
C369 C368 1.341 . S
C369 C373 1.394 . S
C369 H385 0.930 . S
C370 C368 1.371 1_554 S
C370 C371 1.392 . S
C370 H386 0.931 . S
C371 C370 1.392 . S
C371 C372 1.331 . S
C371 H389 0.932 . S
C372 C371 1.331 . S
C372 C373 1.336 1_554 S
C373 C369 1.394 . S
C373 C372 1.336 1_556 S
C373 H388 0.929 . S
C374 C364 1.386 1_554 S
C374 C367 1.357 . S
C374 H387 0.928 . S
H375 C351 0.931 . S
H376 C353 0.930 . S
H377 C355 0.929 . S
H378 C356 0.931 . S
H379 C358 0.930 . S
H380 C362 0.931 . S
H381 C360 0.931 . S
H382 C364 0.931 1_554 S
H383 C365 0.929 . S
H384 C366 0.930 . S
H385 C369 0.930 . S
H386 C370 0.931 . S
H387 C374 0.928 . S
H388 C373 0.929 . S
H389 C371 0.932 . S
C390 C391 1.386 . S
C390 C392 1.397 . S
C390 H414 0.931 . S
C391 C390 1.386 . S
C391 C395 1.397 . S
C392 C390 1.397 . S
C392 C393 1.384 . S
C392 H415 0.930 . S
C393 C392 1.384 . S
C393 C394 1.377 . S
C393 C396 1.481 . S
C394 C393 1.377 . S
C394 C395 1.389 . S
C394 H416 0.929 . S
C395 C391 1.397 . S
C395 C394 1.389 . S
C395 H417 0.931 . S
C396 C393 1.481 . S
C396 C397 1.387 . S
C396 C401 1.390 . S
C397 C396 1.387 . S
C397 C398 1.401 . S
C397 H418 0.930 . S
C398 C397 1.401 . S
C398 C399 1.376 . S
C398 C407 1.511 . S
C399 C398 1.376 . S
C399 C400 1.392 . S
C399 H420 0.931 . S
C400 C399 1.392 . S
C400 C401 1.361 . S
C400 C402 1.500 . S
C401 C396 1.390 . S
C401 C400 1.361 . S
C401 H419 0.931 . S
C402 C400 1.500 . S
C402 C403 1.371 1_556 S
C402 C404 1.365 . S
C403 C402 1.371 1_554 S
C403 C413 1.386 . S
C403 H421 0.931 . S
C404 C402 1.365 . S
C404 C405 1.409 . S
C404 H422 0.929 . S
C405 C404 1.409 . S
C405 C406 1.380 1_556 S
C405 H423 0.930 . S
C406 C405 1.380 1_554 S
C406 C413 1.357 . S
C407 C398 1.511 . S
C407 C408 1.341 . S
C407 C409 1.371 1_556 S
C408 C407 1.341 . S
C408 C412 1.394 . S
C408 H424 0.930 . S
C409 C407 1.371 1_554 S
C409 C410 1.392 . S
C409 H425 0.931 . S
C410 C409 1.392 . S
C410 C411 1.331 . S
C410 H428 0.932 . S
C411 C410 1.331 . S
C411 C412 1.336 1_554 S
C412 C408 1.394 . S
C412 C411 1.336 1_556 S
C412 H427 0.929 . S
C413 C403 1.386 . S
C413 C406 1.357 . S
C413 H426 0.928 . S
H414 C390 0.931 . S
H415 C392 0.930 . S
H416 C394 0.929 . S
H417 C395 0.931 . S
H418 C397 0.930 . S
H419 C401 0.931 . S
H420 C399 0.931 . S
H421 C403 0.931 . S
H422 C404 0.929 . S
H423 C405 0.930 . S
H424 C408 0.930 . S
H425 C409 0.931 . S
H426 C413 0.928 . S
H427 C412 0.929 . S
H428 C410 0.932 . S
C429 C430 1.386 . S
C429 C431 1.397 . S
C429 H453 0.931 . S
C430 C429 1.386 . S
C430 C434 1.397 . S
C431 C429 1.397 . S
C431 C432 1.384 . S
C431 H454 0.930 . S
C432 C431 1.384 . S
C432 C433 1.377 . S
C432 C435 1.481 . S
C433 C432 1.377 . S
C433 C434 1.389 . S
C433 H455 0.929 . S
C434 C430 1.397 . S
C434 C433 1.389 . S
C434 H456 0.931 . S
C435 C432 1.481 . S
C435 C436 1.387 . S
C435 C440 1.390 . S
C436 C435 1.387 . S
C436 C437 1.401 . S
C436 H457 0.930 . S
C437 C436 1.401 . S
C437 C438 1.376 . S
C437 C446 1.511 . S
C438 C437 1.376 . S
C438 C439 1.392 . S
C438 H459 0.931 . S
C439 C438 1.392 . S
C439 C440 1.361 . S
C439 C441 1.500 . S
C440 C435 1.390 . S
C440 C439 1.361 . S
C440 H458 0.931 . S
C441 C439 1.500 . S
C441 C442 1.371 . S
C441 C443 1.365 . S
C442 C441 1.371 . S
C442 C452 1.386 1_556 S
C442 H460 0.929 1_556 S
C443 C441 1.365 . S
C443 C444 1.409 . S
C443 H461 0.929 . S
C444 C443 1.409 . S
C444 C445 1.380 1_556 S
C444 H462 0.930 . S
C445 C444 1.380 1_554 S
C445 C452 1.357 . S
C446 C437 1.511 . S
C446 C447 1.341 . S
C446 C448 1.371 1_556 S
C447 C446 1.341 . S
C447 C451 1.394 . S
C447 H463 0.930 . S
C448 C446 1.371 1_554 S
C448 C449 1.392 . S
C448 H464 0.931 . S
C449 C448 1.392 . S
C449 C450 1.331 . S
C449 H467 0.932 . S
C450 C449 1.331 . S
C450 C451 1.336 1_554 S
C451 C447 1.394 . S
C451 C450 1.336 1_556 S
C451 H466 0.929 . S
C452 C442 1.386 1_554 S
C452 C445 1.357 . S
C452 H465 0.928 . S
H453 C429 0.931 . S
H454 C431 0.930 . S
H455 C433 0.929 . S
H456 C434 0.931 . S
H457 C436 0.930 . S
H458 C440 0.931 . S
H459 C438 0.931 . S
H460 C442 0.929 1_554 S
H461 C443 0.929 . S
H462 C444 0.930 . S
H463 C447 0.930 . S
H464 C448 0.931 . S
H465 C452 0.928 . S
H466 C451 0.929 . S
H467 C449 0.932 . S
C468 C469 1.386 . S
C468 C470 1.397 . S
C468 H492 0.931 . S
C469 C468 1.386 . S
C469 C473 1.397 . S
C470 C468 1.397 . S
C470 C471 1.384 . S
C470 H493 0.930 . S
C471 C470 1.384 . S
C471 C472 1.377 . S
C471 C474 1.481 . S
C472 C471 1.377 . S
C472 C473 1.389 . S
C472 H494 0.929 . S
C473 C469 1.397 . S
C473 C472 1.389 . S
C473 H495 0.931 . S
C474 C471 1.481 . S
C474 C475 1.387 . S
C474 C479 1.390 . S
C475 C474 1.387 . S
C475 C476 1.401 . S
C475 H496 0.930 . S
C476 C475 1.401 . S
C476 C477 1.376 . S
C476 C485 1.511 . S
C477 C476 1.376 . S
C477 C478 1.392 . S
C477 H498 0.931 . S
C478 C477 1.392 . S
C478 C479 1.361 . S
C478 C480 1.500 . S
C479 C474 1.390 . S
C479 C478 1.361 . S
C479 H497 0.931 . S
C480 C478 1.500 . S
C480 C481 1.371 . S
C480 C482 1.365 . S
C481 C480 1.371 . S
C481 C491 1.386 1_554 S
C481 H499 0.931 . S
C482 C480 1.365 . S
C482 C483 1.409 . S
C482 H500 0.929 . S
C483 C482 1.409 . S
C483 C484 1.380 . S
C483 H501 0.930 . S
C484 C483 1.380 . S
C484 C491 1.357 1_554 S
C485 C476 1.511 . S
C485 C486 1.341 . S
C485 C487 1.395 . S
C486 C485 1.341 . S
C486 C490 1.394 . S
C486 H502 0.930 . S
C487 C485 1.395 . S
C487 C488 1.382 1_554 S
C487 H503 0.918 1_554 S
C488 C487 1.382 1_556 S
C488 C489 1.331 1_556 S
C488 H506 0.932 . S
C489 C488 1.331 1_554 S
C489 C490 1.336 . S
C490 C486 1.394 . S
C490 C489 1.336 . S
C490 H505 0.929 . S
C491 C481 1.386 1_556 S
C491 C484 1.357 1_556 S
C491 H504 0.928 . S
H492 C468 0.931 . S
H493 C470 0.930 . S
H494 C472 0.929 . S
H495 C473 0.931 . S
H496 C475 0.930 . S
H497 C479 0.931 . S
H498 C477 0.931 . S
H499 C481 0.931 . S
H500 C482 0.929 . S
H501 C483 0.930 . S
H502 C486 0.930 . S
H503 C487 0.918 1_556 S
H504 C491 0.928 . S
H505 C490 0.929 . S
H506 C488 0.932 . S
C507 C508 1.386 . S
C507 C509 1.397 . S
C507 H531 0.931 . S
C508 C507 1.386 . S
C508 C512 1.397 . S
C509 C507 1.397 . S
C509 C510 1.384 . S
C509 H532 0.930 . S
C510 C509 1.384 . S
C510 C511 1.377 . S
C510 C513 1.481 . S
C511 C510 1.377 . S
C511 C512 1.389 . S
C511 H533 0.929 . S
C512 C508 1.397 . S
C512 C511 1.389 . S
C512 H534 0.931 . S
C513 C510 1.481 . S
C513 C514 1.387 . S
C513 C518 1.390 . S
C514 C513 1.387 . S
C514 C515 1.401 . S
C514 H535 0.930 . S
C515 C514 1.401 . S
C515 C516 1.376 . S
C515 C524 1.511 . S
C516 C515 1.376 . S
C516 C517 1.392 . S
C516 H537 0.931 . S
C517 C516 1.392 . S
C517 C518 1.361 . S
C517 C519 1.500 . S
C518 C513 1.390 . S
C518 C517 1.361 . S
C518 H536 0.931 . S
C519 C517 1.500 . S
C519 C520 1.371 1_554 S
C519 C521 1.365 . S
C520 C519 1.371 1_556 S
C520 C530 1.386 . S
C520 H538 0.931 . S
C521 C519 1.365 . S
C521 C522 1.409 . S
C521 H539 0.929 . S
C522 C521 1.409 . S
C522 C523 1.379 1_554 S
C522 H540 0.930 . S
C523 C522 1.379 1_556 S
C523 C530 1.358 . S
C524 C515 1.511 . S
C524 C525 1.341 . S
C524 C526 1.371 . S
C525 C524 1.341 . S
C525 C529 1.394 . S
C525 H541 0.930 . S
C526 C524 1.371 . S
C526 C527 1.392 1_554 S
C526 H542 0.931 1_554 S
C527 C526 1.392 1_556 S
C527 C528 1.333 . S
C527 H545 0.932 . S
C528 C527 1.333 . S
C528 C529 1.330 1_556 S
C529 C525 1.394 . S
C529 C528 1.330 1_554 S
C529 H544 0.929 . S
C530 C520 1.386 . S
C530 C523 1.358 . S
C530 H543 0.928 . S
H531 C507 0.931 . S
H532 C509 0.930 . S
H533 C511 0.929 . S
H534 C512 0.931 . S
H535 C514 0.930 . S
H536 C518 0.931 . S
H537 C516 0.931 . S
H538 C520 0.931 . S
H539 C521 0.929 . S
H540 C522 0.930 . S
H541 C525 0.930 . S
H542 C526 0.931 1_556 S
H543 C530 0.928 . S
H544 C529 0.929 . S
H545 C527 0.932 . S
C546 C547 1.386 . S
C546 C548 1.397 . S
C546 H570 0.931 . S
C547 C546 1.386 . S
C547 C551 1.397 . S
C548 C546 1.397 . S
C548 C549 1.384 . S
C548 H571 0.930 . S
C549 C548 1.384 . S
C549 C550 1.377 . S
C549 C552 1.481 . S
C550 C549 1.377 . S
C550 C551 1.389 . S
C550 H572 0.929 . S
C551 C547 1.397 . S
C551 C550 1.389 . S
C551 H573 0.931 . S
C552 C549 1.481 . S
C552 C553 1.387 . S
C552 C557 1.390 . S
C553 C552 1.387 . S
C553 C554 1.401 . S
C553 H574 0.930 . S
C554 C553 1.401 . S
C554 C555 1.376 . S
C554 C563 1.511 . S
C555 C554 1.376 . S
C555 C556 1.392 . S
C555 H576 0.931 . S
C556 C555 1.392 . S
C556 C557 1.361 . S
C556 C558 1.500 . S
C557 C552 1.390 . S
C557 C556 1.361 . S
C557 H575 0.931 . S
C558 C556 1.500 . S
C558 C559 1.371 . S
C558 C560 1.365 . S
C559 C558 1.371 . S
C559 C569 1.386 1_554 S
C559 H577 0.931 . S
C560 C558 1.365 . S
C560 C561 1.409 . S
C560 H578 0.929 . S
C561 C560 1.409 . S
C561 C562 1.380 . S
C561 H579 0.930 . S
C562 C561 1.380 . S
C562 C569 1.357 1_554 S
C563 C554 1.511 . S
C563 C564 1.341 . S
C563 C565 1.371 . S
C564 C563 1.341 . S
C564 C568 1.394 . S
C564 H580 0.930 . S
C565 C563 1.371 . S
C565 C566 1.392 1_554 S
C565 H581 0.931 1_554 S
C566 C565 1.392 1_556 S
C566 C567 1.331 1_556 S
C566 H584 0.932 . S
C567 C566 1.331 1_554 S
C567 C568 1.336 . S
C568 C564 1.394 . S
C568 C567 1.336 . S
C568 H583 0.929 . S
C569 C559 1.386 1_556 S
C569 C562 1.357 1_556 S
C569 H582 0.928 . S
H570 C546 0.931 . S
H571 C548 0.930 . S
H572 C550 0.929 . S
H573 C551 0.931 . S
H574 C553 0.930 . S
H575 C557 0.931 . S
H576 C555 0.931 . S
H577 C559 0.931 . S
H578 C560 0.929 . S
H579 C561 0.930 . S
H580 C564 0.930 . S
H581 C565 0.931 1_556 S
H582 C569 0.928 . S
H583 C568 0.929 . S
H584 C566 0.932 . S
C585 C586 1.386 1_565 S
C585 C587 1.397 . S
C585 H609 0.931 . S
C586 C585 1.386 1_545 S
C586 C590 1.397 . S
C587 C585 1.397 . S
C587 C588 1.384 . S
C587 H610 0.930 . S
C588 C587 1.384 . S
C588 C589 1.377 1_565 S
C588 C591 1.481 . S
C589 C588 1.377 1_545 S
C589 C590 1.389 . S
C589 H611 0.929 . S
C590 C586 1.397 . S
C590 C589 1.389 . S
C590 H612 0.931 . S
C591 C588 1.481 . S
C591 C592 1.387 . S
C591 C596 1.390 . S
C592 C591 1.387 . S
C592 C593 1.401 . S
C592 H613 0.930 . S
C593 C592 1.401 . S
C593 C594 1.376 . S
C593 C602 1.511 . S
C594 C593 1.376 . S
C594 C595 1.392 . S
C594 H615 0.931 . S
C595 C594 1.392 . S
C595 C596 1.361 . S
C595 C597 1.500 . S
C596 C591 1.390 . S
C596 C595 1.361 . S
C596 H614 0.931 . S
C597 C595 1.500 . S
C597 C598 1.371 . S
C597 C599 1.365 . S
C598 C597 1.371 . S
C598 C608 1.386 . S
C598 H616 0.931 . S
C599 C597 1.365 . S
C599 C600 1.409 . S
C599 H617 0.929 . S
C600 C599 1.409 . S
C600 C601 1.380 . S
C600 H618 0.930 . S
C601 C600 1.380 . S
C601 C608 1.357 . S
C602 C593 1.511 . S
C602 C603 1.341 . S
C602 C604 1.371 . S
C603 C602 1.341 . S
C603 C607 1.394 . S
C603 H619 0.930 . S
C604 C602 1.371 . S
C604 C605 1.392 . S
C604 H620 0.931 . S
C605 C604 1.392 . S
C605 C606 1.331 . S
C605 H623 0.932 . S
C606 C605 1.331 . S
C606 C607 1.336 . S
C607 C603 1.394 . S
C607 C606 1.336 . S
C607 H622 0.929 . S
C608 C598 1.386 . S
C608 C601 1.357 . S
C608 H621 0.928 . S
H609 C585 0.931 . S
H610 C587 0.930 . S
H611 C589 0.929 . S
H612 C590 0.931 . S
H613 C592 0.930 . S
H614 C596 0.931 . S
H615 C594 0.931 . S
H616 C598 0.931 . S
H617 C599 0.929 . S
H618 C600 0.930 . S
H619 C603 0.930 . S
H620 C604 0.931 . S
H621 C608 0.928 . S
H622 C607 0.929 . S
H623 C605 0.932 . S
C624 C625 1.386 1_655 S
C624 C626 1.397 1_655 S
C624 H648 0.931 . S
C625 C624 1.386 1_455 S
C625 C629 1.397 . S
C626 C624 1.397 1_455 S
C626 C627 1.384 . S
C626 H649 0.930 1_455 S
C627 C626 1.384 . S
C627 C628 1.377 . S
C627 C630 1.481 . S
C628 C627 1.377 . S
C628 C629 1.389 . S
C628 H650 0.929 . S
C629 C625 1.397 . S
C629 C628 1.389 . S
C629 H651 0.931 . S
C630 C627 1.481 . S
C630 C631 1.387 . S
C630 C635 1.390 . S
C631 C630 1.387 . S
C631 C632 1.401 . S
C631 H652 0.930 . S
C632 C631 1.401 . S
C632 C633 1.376 . S
C632 C641 1.511 . S
C633 C632 1.376 . S
C633 C634 1.392 . S
C633 H654 0.931 . S
C634 C633 1.392 . S
C634 C635 1.361 . S
C634 C636 1.500 . S
C635 C630 1.390 . S
C635 C634 1.361 . S
C635 H653 0.931 . S
C636 C634 1.500 . S
C636 C637 1.371 . S
C636 C638 1.365 . S
C637 C636 1.371 . S
C637 C647 1.386 . S
C637 H655 0.931 . S
C638 C636 1.365 . S
C638 C639 1.409 . S
C638 H656 0.929 . S
C639 C638 1.409 . S
C639 C640 1.380 . S
C639 H657 0.930 . S
C640 C639 1.380 . S
C640 C647 1.357 . S
C641 C632 1.511 . S
C641 C642 1.341 . S
C641 C643 1.371 . S
C642 C641 1.341 . S
C642 C646 1.394 . S
C642 H658 0.930 . S
C643 C641 1.371 . S
C643 C644 1.392 . S
C643 H659 0.931 . S
C644 C643 1.392 . S
C644 C645 1.331 . S
C644 H662 0.932 . S
C645 C644 1.331 . S
C645 C646 1.336 . S
C646 C642 1.394 . S
C646 C645 1.336 . S
C646 H661 0.929 . S
C647 C637 1.386 . S
C647 C640 1.357 . S
C647 H660 0.928 . S
H648 C624 0.931 . S
H649 C626 0.930 1_655 S
H650 C628 0.929 . S
H651 C629 0.931 . S
H652 C631 0.930 . S
H653 C635 0.931 . S
H654 C633 0.931 . S
H655 C637 0.931 . S
H656 C638 0.929 . S
H657 C639 0.930 . S
H658 C642 0.930 . S
H659 C643 0.931 . S
H660 C647 0.928 . S
H661 C646 0.929 . S
H662 C644 0.932 . S
C663 C664 1.386 . S
C663 C665 1.397 . S
C663 H687 0.931 . S
C664 C663 1.386 . S
C664 C668 1.397 . S
C665 C663 1.397 . S
C665 C666 1.384 . S
C665 H688 0.930 . S
C666 C665 1.384 . S
C666 C667 1.377 . S
C666 C669 1.481 . S
C667 C666 1.377 . S
C667 C668 1.389 . S
C667 H689 0.929 . S
C668 C664 1.397 . S
C668 C667 1.389 . S
C668 H690 0.931 . S
C669 C666 1.481 . S
C669 C670 1.387 . S
C669 C674 1.390 . S
C670 C669 1.387 . S
C670 C671 1.401 . S
C670 H691 0.930 . S
C671 C670 1.401 . S
C671 C672 1.376 . S
C671 C680 1.511 . S
C672 C671 1.376 . S
C672 C673 1.392 . S
C672 H693 0.931 . S
C673 C672 1.392 . S
C673 C674 1.361 . S
C673 C675 1.500 . S
C674 C669 1.390 . S
C674 C673 1.361 . S
C674 H692 0.931 . S
C675 C673 1.500 . S
C675 C676 1.371 . S
C675 C677 1.365 . S
C676 C675 1.371 . S
C676 C686 1.386 . S
C676 H694 0.931 . S
C677 C675 1.365 . S
C677 C678 1.409 . S
C677 H695 0.929 . S
C678 C677 1.409 . S
C678 C679 1.380 . S
C678 H696 0.930 . S
C679 C678 1.380 . S
C679 C686 1.357 . S
C680 C671 1.511 . S
C680 C681 1.341 . S
C680 C682 1.371 . S
C681 C680 1.341 . S
C681 C685 1.394 . S
C681 H697 0.930 . S
C682 C680 1.371 . S
C682 C683 1.392 . S
C682 H698 0.931 . S
C683 C682 1.392 . S
C683 C684 1.331 . S
C683 H701 0.932 . S
C684 C683 1.331 . S
C684 C685 1.336 . S
C685 C681 1.394 . S
C685 C684 1.336 . S
C685 H700 0.929 . S
C686 C676 1.386 . S
C686 C679 1.357 . S
C686 H699 0.928 . S
H687 C663 0.931 . S
H688 C665 0.930 . S
H689 C667 0.929 . S
H690 C668 0.931 . S
H691 C670 0.930 . S
H692 C674 0.931 . S
H693 C672 0.931 . S
H694 C676 0.931 . S
H695 C677 0.929 . S
H696 C678 0.930 . S
H697 C681 0.930 . S
H698 C682 0.931 . S
H699 C686 0.928 . S
H700 C685 0.929 . S
H701 C683 0.932 . S
O702 Mn703 2.163 1_565 S
O702 C716 1.244 . S
Mn703 O702 2.163 1_545 S
Mn703 O706 2.160 . S
Mn703 O707 2.221 1_545 S
Mn703 O709 2.163 1_554 S
Mn703 O711 2.160 . S
Mn703 O721 2.221 . S
O704 Mn705 2.087 1_565 S
O704 C716 1.256 . S
Mn705 O704 2.087 1_545 S
Mn705 O712 2.089 . S
Mn705 O721 2.290 . S
Mn705 O722 2.251 . S
O706 Mn703 2.160 . S
O706 C717 1.239 1_554 S
O707 Mn703 2.221 1_565 S
O707 Mn708 2.290 1_554 S
O707 C718 1.278 1_554 S
Mn708 O707 2.290 1_556 S
Mn708 O710 2.089 1_565 S
Mn708 O713 2.251 . S
Mn708 O714 2.087 . S
O709 Mn703 2.163 1_556 S
O709 C719 1.244 . S
O710 Mn708 2.089 1_545 S
O710 C717 1.256 . S
O711 Mn703 2.160 . S
O711 C720 1.239 . S
O712 Mn705 2.089 . S
O712 C720 1.256 . S
O713 Mn708 2.251 . S
O713 C718 1.241 . S
O714 Mn708 2.087 . S
O714 C719 1.256 1_565 S
C715 O721 1.278 1_556 S
C715 O722 1.241 1_556 S
C716 O702 1.244 . S
C716 O704 1.256 . S
C717 O706 1.239 1_556 S
C717 O710 1.256 . S
C718 O707 1.278 1_556 S
C718 O713 1.241 . S
C719 O709 1.244 . S
C719 O714 1.256 1_545 S
C720 O711 1.239 . S
C720 O712 1.256 . S
O721 Mn703 2.221 . S
O721 Mn705 2.290 . S
O721 C715 1.278 1_554 S
O722 Mn705 2.251 . S
O722 C715 1.241 1_554 S
O723 Mn724 2.139 1_455 S
O723 C737 1.244 . S
Mn724 O723 2.139 1_655 S
Mn724 O727 2.183 . S
Mn724 O728 2.219 1_655 S
Mn724 O730 2.163 1_554 S
Mn724 O732 2.162 . S
Mn724 O742 2.225 . S
O725 Mn726 2.087 1_455 S
O725 C737 1.256 . S
Mn726 O725 2.087 1_655 S
Mn726 O733 2.089 1_655 S
Mn726 O742 2.290 . S
Mn726 O743 2.251 . S
O727 Mn724 2.183 . S
O727 C738 1.239 1_554 S
O728 Mn724 2.219 1_455 S
O728 Mn729 2.290 1_554 S
O728 C739 1.277 1_554 S
Mn729 O728 2.290 1_556 S
Mn729 O731 2.089 1_455 S
Mn729 O734 2.251 . S
Mn729 O735 2.087 . S
O730 Mn724 2.163 1_556 S
O730 C740 1.244 1_655 S
O731 Mn729 2.089 1_655 S
O731 C738 1.256 . S
O732 Mn724 2.162 . S
O732 C741 1.239 1_655 S
O733 Mn726 2.089 1_455 S
O733 C741 1.256 . S
O734 Mn729 2.251 . S
O734 C739 1.245 . S
O735 Mn729 2.087 . S
O735 C740 1.256 . S
C736 O742 1.278 1_556 S
C736 O743 1.241 1_556 S
C737 O723 1.244 . S
C737 O725 1.256 . S
C738 O727 1.239 1_556 S
C738 O731 1.256 . S
C739 O728 1.277 1_556 S
C739 O734 1.245 . S
C740 O730 1.244 1_455 S
C740 O735 1.256 . S
C741 O732 1.239 1_455 S
C741 O733 1.256 . S
O742 Mn724 2.225 . S
O742 Mn726 2.290 . S
O742 C736 1.278 1_554 S
O743 Mn726 2.251 . S
O743 C736 1.241 1_554 S
O744 Mn745 2.163 . S
O744 C758 1.244 . S
Mn745 O744 2.163 . S
Mn745 O748 2.160 1_556 S
Mn745 O749 2.222 1_556 S
Mn745 O751 2.167 1_556 S
Mn745 O753 2.156 . S
Mn745 O763 2.221 . S
O746 Mn747 2.087 . S
O746 C758 1.256 . S
Mn747 O746 2.087 . S
Mn747 O754 2.089 . S
Mn747 O763 2.290 . S
Mn747 O764 2.251 1_556 S
O748 Mn745 2.160 1_554 S
O748 C759 1.239 . S
O749 Mn745 2.222 1_554 S
O749 Mn750 2.290 . S
O749 C760 1.278 . S
Mn750 O749 2.290 . S
Mn750 O752 2.089 . S
Mn750 O755 2.251 . S
Mn750 O756 2.087 . S
O751 Mn745 2.167 1_554 S
O751 C761 1.244 . S
O752 Mn750 2.089 . S
O752 C759 1.256 . S
O753 Mn745 2.156 . S
O753 C762 1.239 . S
O754 Mn747 2.089 . S
O754 C762 1.256 . S
O755 Mn750 2.251 . S
O755 C760 1.241 . S
O756 Mn750 2.087 . S
O756 C761 1.256 . S
C757 O763 1.278 1_554 S
C757 O764 1.241 . S
C758 O744 1.244 . S
C758 O746 1.256 . S
C759 O748 1.239 . S
C759 O752 1.256 . S
C760 O749 1.278 . S
C760 O755 1.241 . S
C761 O751 1.244 . S
C761 O756 1.256 . S
C762 O753 1.239 . S
C762 O754 1.256 . S
O763 Mn745 2.221 . S
O763 Mn747 2.290 . S
O763 C757 1.278 1_556 S
O764 Mn747 2.251 1_554 S
O764 C757 1.241 . S
O765 Mn766 2.163 . S
O765 C779 1.244 . S
Mn766 O765 2.163 . S
Mn766 O769 2.160 . S
Mn766 O770 2.221 . S
Mn766 O772 2.163 . S
Mn766 O774 2.160 . S
Mn766 O784 2.221 . S
O767 Mn768 2.087 . S
O767 C779 1.256 . S
Mn768 O767 2.087 . S
Mn768 O775 2.089 . S
Mn768 O784 2.290 . S
Mn768 O785 2.251 . S
O769 Mn766 2.160 . S
O769 C780 1.239 . S
O770 Mn766 2.221 . S
O770 Mn771 2.290 . S
O770 C781 1.278 . S
Mn771 O770 2.290 . S
Mn771 O773 2.089 . S
Mn771 O776 2.251 . S
Mn771 O777 2.087 . S
O772 Mn766 2.163 . S
O772 C782 1.244 . S
O773 Mn771 2.089 . S
O773 C780 1.256 . S
O774 Mn766 2.160 . S
O774 C783 1.239 . S
O775 Mn768 2.089 . S
O775 C783 1.256 . S
O776 Mn771 2.251 . S
O776 C781 1.241 . S
O777 Mn771 2.087 . S
O777 C782 1.256 . S
C778 O784 1.278 . S
C778 O785 1.241 . S
C779 O765 1.244 . S
C779 O767 1.256 . S
C780 O769 1.239 . S
C780 O773 1.256 . S
C781 O770 1.278 . S
C781 O776 1.241 . S
C782 O772 1.244 . S
C782 O777 1.256 . S
C783 O774 1.239 . S
C783 O775 1.256 . S
O784 Mn766 2.221 . S
O784 Mn768 2.290 . S
O784 C778 1.278 . S
O785 Mn768 2.251 . S
O785 C778 1.241 . S
O786 Mn787 2.163 . S
O786 C800 1.244 . S
Mn787 O786 2.163 . S
Mn787 O790 2.160 . S
Mn787 O791 2.221 . S
Mn787 O793 2.163 . S
Mn787 O795 2.160 . S
Mn787 O805 2.221 . S
O788 Mn789 2.087 . S
O788 C800 1.256 . S
Mn789 O788 2.087 . S
Mn789 O796 2.089 . S
Mn789 O805 2.290 . S
Mn789 O806 2.251 . S
O790 Mn787 2.160 . S
O790 C801 1.239 . S
O791 Mn787 2.221 . S
O791 Mn792 2.290 . S
O791 C802 1.278 . S
Mn792 O791 2.290 . S
Mn792 O794 2.089 . S
Mn792 O797 2.251 . S
Mn792 O798 2.087 . S
O793 Mn787 2.163 . S
O793 C803 1.244 . S
O794 Mn792 2.089 . S
O794 C801 1.256 . S
O795 Mn787 2.160 . S
O795 C804 1.239 . S
O796 Mn789 2.089 . S
O796 C804 1.256 . S
O797 Mn792 2.251 . S
O797 C802 1.241 . S
O798 Mn792 2.087 . S
O798 C803 1.256 . S
C799 O805 1.278 . S
C799 O806 1.241 . S
C800 O786 1.244 . S
C800 O788 1.256 . S
C801 O790 1.239 . S
C801 O794 1.256 . S
C802 O791 1.278 . S
C802 O797 1.241 . S
C803 O793 1.244 . S
C803 O798 1.256 . S
C804 O795 1.239 . S
C804 O796 1.256 . S
O805 Mn787 2.221 . S
O805 Mn789 2.290 . S
O805 C799 1.278 . S
O806 Mn789 2.251 . S
O806 C799 1.241 . S
O807 Mn808 2.163 . S
O807 C821 1.244 . S
Mn808 O807 2.163 . S
Mn808 O811 2.160 . S
Mn808 O812 2.221 . S
Mn808 O814 2.163 . S
Mn808 O816 2.160 . S
Mn808 O826 2.221 . S
O809 Mn810 2.087 . S
O809 C821 1.256 . S
Mn810 O809 2.087 . S
Mn810 O817 2.089 . S
Mn810 O826 2.290 . S
Mn810 O827 2.251 . S
O811 Mn808 2.160 . S
O811 C822 1.239 . S
O812 Mn808 2.221 . S
O812 Mn813 2.290 . S
O812 C823 1.278 . S
Mn813 O812 2.290 . S
Mn813 O815 2.089 . S
Mn813 O818 2.251 . S
Mn813 O819 2.087 . S
O814 Mn808 2.163 . S
O814 C824 1.244 . S
O815 Mn813 2.089 . S
O815 C822 1.256 . S
O816 Mn808 2.160 . S
O816 C825 1.239 . S
O817 Mn810 2.089 . S
O817 C825 1.256 . S
O818 Mn813 2.251 . S
O818 C823 1.241 . S
O819 Mn813 2.087 . S
O819 C824 1.256 . S
C820 O826 1.278 . S
C820 O827 1.241 . S
C821 O807 1.244 . S
C821 O809 1.256 . S
C822 O811 1.239 . S
C822 O815 1.256 . S
C823 O812 1.278 . S
C823 O818 1.241 . S
C824 O814 1.244 . S
C824 O819 1.256 . S
C825 O816 1.239 . S
C825 O817 1.256 . S
O826 Mn808 2.221 . S
O826 Mn810 2.290 . S
O826 C820 1.278 . S
O827 Mn810 2.251 . S
O827 C820 1.241 . S
O828 Mn829 2.163 . S
O828 C842 1.244 . S
Mn829 O828 2.163 . S
Mn829 O832 2.160 . S
Mn829 O833 2.221 . S
Mn829 O835 2.163 . S
Mn829 O837 2.160 . S
Mn829 O847 2.221 . S
O830 Mn831 2.087 . S
O830 C842 1.256 . S
Mn831 O830 2.087 . S
Mn831 O838 2.089 . S
Mn831 O847 2.290 . S
Mn831 O848 2.251 . S
O832 Mn829 2.160 . S
O832 C843 1.239 . S
O833 Mn829 2.221 . S
O833 Mn834 2.290 . S
O833 C844 1.278 . S
Mn834 O833 2.290 . S
Mn834 O836 2.089 . S
Mn834 O839 2.251 . S
Mn834 O840 2.087 . S
O835 Mn829 2.163 . S
O835 C845 1.244 . S
O836 Mn834 2.089 . S
O836 C843 1.256 . S
O837 Mn829 2.160 . S
O837 C846 1.239 . S
O838 Mn831 2.089 . S
O838 C846 1.256 . S
O839 Mn834 2.251 . S
O839 C844 1.241 . S
O840 Mn834 2.087 . S
O840 C845 1.256 . S
C841 O847 1.278 . S
C841 O848 1.241 . S
C842 O828 1.244 . S
C842 O830 1.256 . S
C843 O832 1.239 . S
C843 O836 1.256 . S
C844 O833 1.278 . S
C844 O839 1.241 . S
C845 O835 1.244 . S
C845 O840 1.256 . S
C846 O837 1.239 . S
C846 O838 1.256 . S
O847 Mn829 2.221 . S
O847 Mn831 2.290 . S
O847 C841 1.278 . S
O848 Mn831 2.251 . S
O848 C841 1.241 . S
O849 Mn850 2.163 . S
O849 C863 1.244 . S
Mn850 O849 2.163 . S
Mn850 O853 2.160 . S
Mn850 O854 2.221 . S
Mn850 O856 2.163 . S
Mn850 O858 2.160 . S
Mn850 O868 2.221 . S
O851 Mn852 2.087 . S
O851 C863 1.256 . S
Mn852 O851 2.087 . S
Mn852 O859 2.089 . S
Mn852 O868 2.290 . S
Mn852 O869 2.251 . S
O853 Mn850 2.160 . S
O853 C864 1.239 . S
O854 Mn850 2.221 . S
O854 Mn855 2.290 . S
O854 C865 1.278 . S
Mn855 O854 2.290 . S
Mn855 O857 2.089 . S
Mn855 O860 2.251 . S
Mn855 O861 2.087 . S
O856 Mn850 2.163 . S
O856 C866 1.244 . S
O857 Mn855 2.089 . S
O857 C864 1.256 . S
O858 Mn850 2.160 . S
O858 C867 1.239 . S
O859 Mn852 2.089 . S
O859 C867 1.256 . S
O860 Mn855 2.251 . S
O860 C865 1.241 . S
O861 Mn855 2.087 . S
O861 C866 1.256 . S
C862 O868 1.278 . S
C862 O869 1.241 . S
C863 O849 1.244 . S
C863 O851 1.256 . S
C864 O853 1.239 . S
C864 O857 1.256 . S
C865 O854 1.278 . S
C865 O860 1.241 . S
C866 O856 1.244 . S
C866 O861 1.256 . S
C867 O858 1.239 . S
C867 O859 1.256 . S
O868 Mn850 2.221 . S
O868 Mn852 2.290 . S
O868 C862 1.278 . S
O869 Mn852 2.251 . S
O869 C862 1.241 . S
O870 Mn871 2.163 . S
O870 C884 1.244 . S
Mn871 O870 2.163 . S
Mn871 O874 2.160 . S
Mn871 O875 2.221 . S
Mn871 O877 2.163 . S
Mn871 O879 2.160 . S
Mn871 O889 2.221 . S
O872 Mn873 2.087 . S
O872 C884 1.256 . S
Mn873 O872 2.087 . S
Mn873 O880 2.089 . S
Mn873 O889 2.290 . S
Mn873 O890 2.251 . S
O874 Mn871 2.160 . S
O874 C885 1.239 . S
O875 Mn871 2.221 . S
O875 Mn876 2.290 . S
O875 C886 1.278 . S
Mn876 O875 2.290 . S
Mn876 O878 2.089 . S
Mn876 O881 2.251 . S
Mn876 O882 2.087 . S
O877 Mn871 2.163 . S
O877 C887 1.244 . S
O878 Mn876 2.089 . S
O878 C885 1.256 . S
O879 Mn871 2.160 . S
O879 C888 1.239 . S
O880 Mn873 2.089 . S
O880 C888 1.256 . S
O881 Mn876 2.251 . S
O881 C886 1.241 . S
O882 Mn876 2.087 . S
O882 C887 1.256 . S
C883 O889 1.278 . S
C883 O890 1.241 . S
C884 O870 1.244 . S
C884 O872 1.256 . S
C885 O874 1.239 . S
C885 O878 1.256 . S
C886 O875 1.278 . S
C886 O881 1.241 . S
C887 O877 1.244 . S
C887 O882 1.256 . S
C888 O879 1.239 . S
C888 O880 1.256 . S
O889 Mn871 2.221 . S
O889 Mn873 2.290 . S
O889 C883 1.278 . S
O890 Mn873 2.251 . S
O890 C883 1.241 . S
C528 C716 1.817 1_556 S
C562 C737 1.806 . S
C484 C757 1.185 . S
C445 C736 1.254 1_554 S
C758 C367 1.903 1_556 S
C411 C715 1.289 1_554 S
C717 C450 1.720 1_556 S
C738 C372 1.774 1_556 S
C406 C760 1.379 . S
C523 C739 1.264 . S
C567 C759 1.656 . S
C718 C489 1.325 1_556 S
C779 C60 1.820 . S
C94 C800 1.806 . S
C16 C820 1.185 . S
C679 C799 1.254 . S
C601 C821 1.904 . S
C645 C778 1.288 . S
C684 C780 1.720 . S
C606 C801 1.775 . S
C823 C640 1.379 . S
C55 C802 1.264 . S
C822 C99 1.657 . S
C21 C781 1.326 . S
C842 C294 1.820 . S
C328 C863 1.806 . S
C883 C250 1.185 . S
C862 C211 1.254 . S
C884 C133 1.904 . S
C177 C841 1.288 . S
C216 C843 1.720 . S
C138 C864 1.775 . S
C886 C172 1.379 . S
C289 C865 1.264 . S
C333 C885 1.657 . S
C255 C844 1.326 . S
C586 C720 1.445 . S
C741 C625 1.462 . S
C664 C761 1.604 . S
C235 C740 1.609 1_655 S
C274 C762 1.472 . S
C719 C313 1.631 . S
C118 C783 1.445 . S
C157 C804 1.462 . S
C196 C824 1.604 . S
C469 C803 1.609 . S
C825 C508 1.471 . S
C547 C782 1.634 . S
C352 C846 1.445 . S
C391 C867 1.462 . S
C887 C430 1.604 . S
C1 C866 1.609 . S
C40 C888 1.471 . S
C79 C845 1.634 . S
