# Generated by pormake.
# Topology zzz, (3,6)-cn, num edge types: 1
# Building blocks:
#     Node 0, Type 0, BuildingBlock: KAKCAD_clean_linker_0, # of connection points: 3
#     Node 1, Type 0, BuildingBlock: KAKCAD_clean_linker_0, # of connection points: 3
#     Node 2, Type 0, BuildingBlock: KAKCAD_clean_linker_0, # of connection points: 3
#     Node 3, Type 0, BuildingBlock: KAKCAD_clean_linker_0, # of connection points: 3
#     Node 4, Type 0, BuildingBlock: KAKCAD_clean_linker_0, # of connection points: 3
#     Node 5, Type 0, BuildingBlock: KAKCAD_clean_linker_0, # of connection points: 3
#     Node 6, Type 0, BuildingBlock: KAKCAD_clean_linker_0, # of connection points: 3
#     Node 7, Type 0, BuildingBlock: KAKCAD_clean_linker_0, # of connection points: 3
#     Node 8, Type 1, BuildingBlock: FUNLAD_clean_sbu_0, # of connection points: 6
#     Node 9, Type 1, BuildingBlock: FUNLAD_clean_sbu_0, # of connection points: 6
#     Node 10, Type 1, BuildingBlock: FUNLAD_clean_sbu_0, # of connection points: 6
#     Node 11, Type 1, BuildingBlock: FUNLAD_clean_sbu_0, # of connection points: 6
#     Edge 12, Type (0, 1), BuildingBlock: MIFKUJ_clean_linker_0, # of connection points: 2
#     Edge 13, Type (0, 1), BuildingBlock: MIFKUJ_clean_linker_0, # of connection points: 2
#     Edge 14, Type (0, 1), BuildingBlock: MIFKUJ_clean_linker_0, # of connection points: 2
#     Edge 15, Type (0, 1), BuildingBlock: MIFKUJ_clean_linker_0, # of connection points: 2
#     Edge 16, Type (0, 1), BuildingBlock: MIFKUJ_clean_linker_0, # of connection points: 2
#     Edge 17, Type (0, 1), BuildingBlock: MIFKUJ_clean_linker_0, # of connection points: 2
#     Edge 18, Type (0, 1), BuildingBlock: MIFKUJ_clean_linker_0, # of connection points: 2
#     Edge 19, Type (0, 1), BuildingBlock: MIFKUJ_clean_linker_0, # of connection points: 2
#     Edge 20, Type (0, 1), BuildingBlock: MIFKUJ_clean_linker_0, # of connection points: 2
#     Edge 21, Type (0, 1), BuildingBlock: MIFKUJ_clean_linker_0, # of connection points: 2
#     Edge 22, Type (0, 1), BuildingBlock: MIFKUJ_clean_linker_0, # of connection points: 2
#     Edge 23, Type (0, 1), BuildingBlock: MIFKUJ_clean_linker_0, # of connection points: 2
#     Edge 24, Type (0, 1), BuildingBlock: MIFKUJ_clean_linker_0, # of connection points: 2
#     Edge 25, Type (0, 1), BuildingBlock: MIFKUJ_clean_linker_0, # of connection points: 2
#     Edge 26, Type (0, 1), BuildingBlock: MIFKUJ_clean_linker_0, # of connection points: 2
#     Edge 27, Type (0, 1), BuildingBlock: MIFKUJ_clean_linker_0, # of connection points: 2
#     Edge 28, Type (0, 1), BuildingBlock: MIFKUJ_clean_linker_0, # of connection points: 2
#     Edge 29, Type (0, 1), BuildingBlock: MIFKUJ_clean_linker_0, # of connection points: 2
#     Edge 30, Type (0, 1), BuildingBlock: MIFKUJ_clean_linker_0, # of connection points: 2
#     Edge 31, Type (0, 1), BuildingBlock: MIFKUJ_clean_linker_0, # of connection points: 2
#     Edge 32, Type (0, 1), BuildingBlock: MIFKUJ_clean_linker_0, # of connection points: 2
#     Edge 33, Type (0, 1), BuildingBlock: MIFKUJ_clean_linker_0, # of connection points: 2
#     Edge 34, Type (0, 1), BuildingBlock: MIFKUJ_clean_linker_0, # of connection points: 2
#     Edge 35, Type (0, 1), BuildingBlock: MIFKUJ_clean_linker_0, # of connection points: 2
# Relax obj value: 0.287
# Max RMSD: 0.218
# Mean RMSD: 0.190
data_MOF--net-zzz--node1-FUNLAD_clean_sbu_0--node2-KAKCAD_clean_linker_0--edge1-MIFKUJ_clean_linker_0
_symmetry_space_group_name_H-M    P1
_symmetry_Int_Tables_number       1
_symmetry_cell_setting            triclinic
loop_
_symmetry_equiv_pos_as_xyz
'x, y, z'
_cell_length_a     72.082751
_cell_length_b     76.485811
_cell_length_c     28.053777
_cell_angle_alpha  87.375083
_cell_angle_beta   88.061068
_cell_angle_gamma 92.165721
loop_
_atom_site_label
_atom_site_type_symbol
_atom_site_fract_x
_atom_site_fract_y
_atom_site_fract_z
_atom_type_partial_charge
C0 C 0.84737 0.43769 0.03648 0.0
C1 C 0.85712 0.42211 0.04095 0.0
C2 C 0.83315 0.44116 0.06915 0.0
C3 C 0.82851 0.42933 0.1077 0.0
C4 C 0.8379 0.41363 0.11215 0.0
C5 C 0.85194 0.40996 0.0788 0.0
C6 C 0.81468 0.4341 0.1445 0.0
C7 C 0.79742 0.44002 0.13106 0.0
C8 C 0.78505 0.44675 0.16467 0.0
C9 C 0.79001 0.44715 0.21274 0.0
C10 C 0.80742 0.4413 0.22685 0.0
C11 C 0.81954 0.43462 0.19229 0.0
C12 C 0.81411 0.44378 0.2759 0.0
C13 C 0.81071 0.45926 0.29937 0.0
C14 C 0.82586 0.43164 0.29711 0.0
C15 C 0.83529 0.43555 0.3382 0.0
C16 C 0.83294 0.45159 0.35989 0.0
C17 C 0.76746 0.45406 0.14816 0.0
C18 C 0.76762 0.46472 0.10599 0.0
C19 C 0.75039 0.44967 0.1722 0.0
C20 C 0.73374 0.45509 0.15296 0.0
C21 C 0.73388 0.46509 0.10948 0.0
C22 C 0.75107 0.4701 0.08682 0.0
C23 C 0.81991 0.46305 0.34104 0.0
H24 H 0.85118 0.44766 0.0089 0.0
H25 H 0.82629 0.45349 0.06542 0.0
H26 H 0.83446 0.40429 0.1416 0.0
H27 H 0.85888 0.39771 0.08312 0.0
H28 H 0.79375 0.43961 0.09394 0.0
H29 H 0.83334 0.4309 0.20175 0.0
H30 H 0.7806 0.45252 0.23867 0.0
H31 H 0.80178 0.46896 0.28418 0.0
H32 H 0.82849 0.41939 0.28068 0.0
H33 H 0.84522 0.42635 0.35115 0.0
H34 H 0.78059 0.46856 0.08705 0.0
H35 H 0.74986 0.44149 0.20481 0.0
H36 H 0.8173 0.47531 0.35738 0.0
H37 H 0.75178 0.47759 0.05306 0.0
H38 H 0.72075 0.45119 0.17165 0.0
C39 C 0.94592 0.81403 0.01253 0.0
C40 C 0.95681 0.82689 0.03398 0.0
C41 C 0.93809 0.79969 0.03987 0.0
C42 C 0.9412 0.79786 0.08905 0.0
C43 C 0.95222 0.81076 0.1102 0.0
C44 C 0.9598 0.82516 0.08305 0.0
C45 C 0.93346 0.78244 0.11842 0.0
C46 C 0.93322 0.7656 0.10064 0.0
C47 C 0.92764 0.75079 0.13009 0.0
C48 C 0.92261 0.75295 0.17842 0.0
C49 C 0.92234 0.76984 0.19599 0.0
C50 C 0.92742 0.78441 0.16572 0.0
C51 C 0.91861 0.77307 0.24671 0.0
C52 C 0.90272 0.78202 0.2596 0.0
C53 C 0.93341 0.77248 0.27783 0.0
C54 C 0.93324 0.78242 0.31844 0.0
C55 C 0.91822 0.79306 0.32852 0.0
C56 C 0.92806 0.73322 0.10984 0.0
C57 C 0.92097 0.73069 0.06453 0.0
C58 C 0.93706 0.71943 0.13309 0.0
C59 C 0.93986 0.7038 0.11012 0.0
C60 C 0.93368 0.70171 0.06359 0.0
C61 C 0.92373 0.71513 0.0417 0.0
C62 C 0.90245 0.79182 0.30043 0.0
H63 H 0.94334 0.81515 0.97472 0.0
H64 H 0.92953 0.79011 0.02255 0.0
H65 H 0.95534 0.80959 0.14766 0.0
H66 H 0.96842 0.83473 0.10028 0.0
H67 H 0.9382 0.76386 0.06434 0.0
H68 H 0.92723 0.79737 0.17986 0.0
H69 H 0.91885 0.74167 0.20201 0.0
H70 H 0.89126 0.78281 0.23568 0.0
H71 H 0.94596 0.76594 0.26797 0.0
H72 H 0.94567 0.78309 0.33902 0.0
H73 H 0.9137 0.74099 0.04611 0.0
H74 H 0.94277 0.72107 0.1679 0.0
H75 H 0.89049 0.79955 0.30778 0.0
H76 H 0.91841 0.71377 0.00635 0.0
H77 H 0.94764 0.69373 0.12785 0.0
C78 C 0.7124 0.00612 0.00387 0.0
C79 C 0.70155 0.02082 0.00908 0.0
C80 C 0.7265 0.00263 0.03545 0.0
C81 C 0.72974 0.01362 0.07324 0.0
C82 C 0.71932 0.02868 0.07743 0.0
C83 C 0.70543 0.03234 0.04527 0.0
C84 C 0.74273 0.00848 0.11057 0.0
C85 C 0.76085 0.00388 0.09849 0.0
C86 C 0.77282 0.99813 0.13391 0.0
C87 C 0.76633 0.99648 0.18201 0.0
C88 C 0.74802 0.00094 0.19422 0.0
C89 C 0.73652 0.00716 0.15843 0.0
C90 C 0.73982 0.99855 0.2433 0.0
C91 C 0.73324 0.98188 0.26063 0.0
C92 C 0.73453 0.01329 0.26765 0.0
C93 C 0.72197 0.0115 0.30686 0.0
C94 C 0.71415 0.99495 0.32213 0.0
C95 C 0.79207 0.99428 0.11904 0.0
C96 C 0.79547 0.97929 0.09359 0.0
C97 C 0.80636 0.00709 0.12203 0.0
C98 C 0.82351 0.00537 0.09799 0.0
C99 C 0.82676 0.99073 0.0705 0.0
C100 C 0.81267 0.97744 0.07 0.0
C101 C 0.72052 0.98008 0.29971 0.0
H102 H 0.70963 0.99709 0.97607 0.0
H103 H 0.73426 0.99088 0.03172 0.0
H104 H 0.72163 0.03735 0.10629 0.0
H105 H 0.69714 0.0437 0.05005 0.0
H106 H 0.76573 0.00495 0.06143 0.0
H107 H 0.72233 0.01029 0.16772 0.0
H108 H 0.77536 0.99175 0.20946 0.0
H109 H 0.73681 0.97036 0.24172 0.0
H110 H 0.73924 0.0263 0.2545 0.0
H111 H 0.71776 0.02322 0.32386 0.0
H112 H 0.78453 0.96935 0.09031 0.0
H113 H 0.80387 0.01894 0.14059 0.0
H114 H 0.71476 0.96714 0.31017 0.0
H115 H 0.81471 0.96581 0.05019 0.0
H116 H 0.83381 0.016 0.09889 0.0
C117 C 0.57488 0.6969 0.34923 0.0
C118 C 0.586 0.68237 0.35727 0.0
C119 C 0.57591 0.70635 0.30515 0.0
C120 C 0.58796 0.70133 0.2683 0.0
C121 C 0.6 0.68766 0.27753 0.0
C122 C 0.59907 0.67831 0.3215 0.0
C123 C 0.5859 0.70814 0.21851 0.0
C124 C 0.58624 0.72622 0.20611 0.0
C125 C 0.58368 0.73206 0.15845 0.0
C126 C 0.58 0.71968 0.12409 0.0
C127 C 0.57932 0.70172 0.13627 0.0
C128 C 0.58255 0.69606 0.18328 0.0
C129 C 0.57428 0.68884 0.10059 0.0
C130 C 0.55877 0.69131 0.07242 0.0
C131 C 0.58437 0.67362 0.09604 0.0
C132 C 0.57885 0.66095 0.06456 0.0
C133 C 0.56299 0.66315 0.03733 0.0
C134 C 0.58429 0.75098 0.14348 0.0
C135 C 0.57437 0.76309 0.16936 0.0
C136 C 0.59335 0.75666 0.10006 0.0
C137 C 0.59147 0.77366 0.08122 0.0
C138 C 0.58064 0.78556 0.10551 0.0
C139 C 0.57255 0.78022 0.15054 0.0
C140 C 0.55314 0.67858 0.04126 0.0
H141 H 0.56483 0.70049 0.37628 0.0
H142 H 0.56641 0.71678 0.29883 0.0
H143 H 0.60944 0.68357 0.24968 0.0
H144 H 0.60772 0.66713 0.32616 0.0
H145 H 0.58881 0.7356 0.23314 0.0
H146 H 0.5816 0.68216 0.19304 0.0
H147 H 0.57743 0.72403 0.08767 0.0
H148 H 0.5506 0.70282 0.07569 0.0
H149 H 0.59651 0.67151 0.11698 0.0
H150 H 0.58696 0.64939 0.06176 0.0
H151 H 0.56724 0.75909 0.20292 0.0
H152 H 0.60133 0.7477 0.07961 0.0
H153 H 0.5407 0.68059 0.02147 0.0
H154 H 0.56437 0.78912 0.17067 0.0
H155 H 0.59777 0.77712 0.04632 0.0
C156 C 0.18712 0.60328 0.28983 0.0
C157 C 0.16988 0.59562 0.27866 0.0
C158 C 0.20299 0.60076 0.26121 0.0
C159 C 0.20197 0.59032 0.22127 0.0
C160 C 0.18453 0.58313 0.20954 0.0
C161 C 0.1687 0.58585 0.23767 0.0
C162 C 0.21903 0.5857 0.19389 0.0
C163 C 0.2354 0.582 0.21752 0.0
C164 C 0.25069 0.57518 0.19309 0.0
C165 C 0.24933 0.57167 0.14447 0.0
C166 C 0.23322 0.57572 0.12021 0.0
C167 C 0.21841 0.58311 0.1448 0.0
C168 C 0.23032 0.57041 0.07098 0.0
C169 C 0.22461 0.58272 0.03646 0.0
C170 C 0.22922 0.55254 0.06159 0.0
C171 C 0.22066 0.54697 0.0206 0.0
C172 C 0.2132 0.55921 0.98829 0.0
C173 C 0.26751 0.5709 0.21974 0.0
C174 C 0.27448 0.58254 0.25274 0.0
C175 C 0.27601 0.55481 0.21476 0.0
C176 C 0.29073 0.55021 0.24352 0.0
C177 C 0.29721 0.56161 0.27778 0.0
C178 C 0.28914 0.57796 0.28139 0.0
C179 C 0.21628 0.57718 0.99526 0.0
H180 H 0.18837 0.61094 0.32119 0.0
H181 H 0.21611 0.60672 0.27093 0.0
H182 H 0.18317 0.57466 0.17988 0.0
H183 H 0.15567 0.5795 0.22871 0.0
H184 H 0.23592 0.58348 0.25568 0.0
H185 H 0.20592 0.58598 0.12592 0.0
H186 H 0.26071 0.56584 0.12551 0.0
H187 H 0.22537 0.59657 0.04302 0.0
H188 H 0.23337 0.54282 0.08802 0.0
H189 H 0.21849 0.53304 0.01651 0.0
H190 H 0.26842 0.59516 0.2568 0.0
H191 H 0.27084 0.54549 0.18998 0.0
H192 H 0.2111 0.58696 0.97047 0.0
H193 H 0.29408 0.58719 0.30669 0.0
H194 H 0.29657 0.53747 0.24011 0.0
C195 C 0.06417 0.19522 0.364 0.0
C196 C 0.07249 0.17916 0.37345 0.0
C197 C 0.07303 0.20805 0.33333 0.0
C198 C 0.0904 0.2051 0.31147 0.0
C199 C 0.09905 0.18933 0.32247 0.0
C200 C 0.09019 0.1765 0.35311 0.0
C201 C 0.09867 0.21779 0.27443 0.0
C202 C 0.0979 0.23585 0.27997 0.0
C203 C 0.10391 0.24791 0.24281 0.0
C204 C 0.11092 0.24173 0.19953 0.0
C205 C 0.11195 0.22361 0.19388 0.0
C206 C 0.10598 0.21182 0.23153 0.0
C207 C 0.11704 0.21632 0.14757 0.0
C208 C 0.10534 0.21852 0.109 0.0
C209 C 0.13098 0.20403 0.14522 0.0
C210 C 0.13224 0.19314 0.10669 0.0
C211 C 0.11936 0.19411 0.07016 0.0
C212 C 0.10206 0.26683 0.24987 0.0
C213 C 0.0851 0.27283 0.26741 0.0
C214 C 0.11749 0.2786 0.24425 0.0
C215 C 0.11621 0.29583 0.25871 0.0
C216 C 0.09942 0.30159 0.27846 0.0
C217 C 0.08378 0.29 0.28148 0.0
C218 C 0.10643 0.20748 0.07068 0.0
H219 H 0.05065 0.19774 0.37963 0.0
H220 H 0.06591 0.21999 0.32526 0.0
H221 H 0.11252 0.18676 0.30653 0.0
H222 H 0.09692 0.16422 0.35937 0.0
H223 H 0.0925 0.24058 0.31335 0.0
H224 H 0.10598 0.19786 0.22616 0.0
H225 H 0.1151 0.25089 0.17017 0.0
H226 H 0.0943 0.22774 0.11045 0.0
H227 H 0.14011 0.20209 0.17474 0.0
H228 H 0.14267 0.18331 0.1069 0.0
H229 H 0.07297 0.26402 0.27188 0.0
H230 H 0.13073 0.27423 0.23096 0.0
H231 H 0.09619 0.20856 0.04346 0.0
H232 H 0.07069 0.29388 0.29702 0.0
H233 H 0.12846 0.30451 0.25557 0.0
C234 C 0.31862 0.9564 0.35228 0.0
C235 C 0.33625 0.9649 0.35253 0.0
C236 C 0.30521 0.96244 0.32118 0.0
C237 C 0.3092 0.97713 0.28998 0.0
C238 C 0.32667 0.98585 0.29133 0.0
C239 C 0.34002 0.9798 0.3221 0.0
C240 C 0.29547 0.98338 0.25543 0.0
C241 C 0.27666 0.98451 0.26896 0.0
C242 C 0.26399 0.99158 0.23699 0.0
C243 C 0.27028 0.99745 0.19054 0.0
C244 C 0.28907 0.9959 0.17641 0.0
C245 C 0.30142 0.98886 0.2089 0.0
C246 C 0.29674 0.00162 0.12842 0.0
C247 C 0.2975 0.98956 0.09224 0.0
C248 C 0.30761 0.01724 0.12298 0.0
C249 C 0.31993 0.02025 0.08357 0.0
C250 C 0.32178 0.00761 0.04897 0.0
C251 C 0.24444 0.99322 0.25403 0.0
C252 C 0.23422 0.97837 0.2731 0.0
C253 C 0.23679 0.00976 0.25737 0.0
C254 C 0.21963 0.01147 0.28151 0.0
C255 C 0.20967 0.99664 0.30199 0.0
C256 C 0.21696 0.98003 0.29643 0.0
C257 C 0.30984 0.99256 0.05273 0.0
H258 H 0.31535 0.94487 0.37536 0.0
H259 H 0.29189 0.95541 0.32081 0.0
H260 H 0.33003 0.99747 0.26868 0.0
H261 H 0.3533 0.98691 0.32236 0.0
H262 H 0.27197 0.98053 0.30509 0.0
H263 H 0.31584 0.98767 0.19764 0.0
H264 H 0.26069 0.00304 0.16571 0.0
H265 H 0.28961 0.97722 0.09636 0.0
H266 H 0.30752 0.02656 0.15094 0.0
H267 H 0.32869 0.0321 0.08145 0.0
H268 H 0.2399 0.96549 0.27129 0.0
H269 H 0.24451 0.02142 0.24346 0.0
H270 H 0.31098 0.98247 0.02705 0.0
H271 H 0.20973 0.96838 0.31214 0.0
H272 H 0.21431 0.02442 0.28502 0.0
C273 C 0.43768 0.30902 0.0425 0.0
C274 C 0.4534 0.31458 0.01373 0.0
C275 C 0.43965 0.29926 0.08534 0.0
C276 C 0.4573 0.29452 0.09961 0.0
C277 C 0.47279 0.29872 0.06919 0.0
C278 C 0.47089 0.30867 0.02671 0.0
C279 C 0.46019 0.28922 0.14992 0.0
C280 C 0.46314 0.27177 0.16467 0.0
C281 C 0.46748 0.26759 0.21239 0.0
C282 C 0.46888 0.28112 0.24463 0.0
C283 C 0.46631 0.29861 0.22998 0.0
C284 C 0.46161 0.30246 0.18268 0.0
C285 C 0.46991 0.31292 0.26305 0.0
C286 C 0.46491 0.31079 0.31198 0.0
C287 C 0.47939 0.32853 0.24622 0.0
C288 C 0.48397 0.34154 0.27752 0.0
C289 C 0.47938 0.3392 0.32648 0.0
C290 C 0.47097 0.24931 0.22943 0.0
C291 C 0.45944 0.23511 0.21686 0.0
C292 C 0.4851 0.24619 0.26185 0.0
C293 C 0.48679 0.22964 0.28379 0.0
C294 C 0.47471 0.21572 0.27305 0.0
C295 C 0.46136 0.21839 0.23843 0.0
C296 C 0.4697 0.32376 0.34342 0.0
H297 H 0.42395 0.313 0.03329 0.0
H298 H 0.42755 0.29633 0.10871 0.0
H299 H 0.48658 0.29549 0.08013 0.0
H300 H 0.48338 0.31282 0.00612 0.0
H301 H 0.46247 0.26163 0.13895 0.0
H302 H 0.45947 0.31589 0.17073 0.0
H303 H 0.47241 0.27806 0.2812 0.0
H304 H 0.45736 0.29907 0.32606 0.0
H305 H 0.48383 0.3305 0.20904 0.0
H306 H 0.49165 0.35322 0.2636 0.0
H307 H 0.44841 0.23707 0.19211 0.0
H308 H 0.49458 0.25669 0.27132 0.0
H309 H 0.46582 0.32173 0.38097 0.0
H310 H 0.45191 0.20775 0.22971 0.0
H311 H 0.49734 0.22778 0.30999 0.0
C312 C 0.02898 0.97052 0.74504 0.0
N313 N 0.99772 0.97044 0.62307 0.0
C314 C 0.98776 0.95747 0.64841 0.0
C315 C 0.97971 0.94348 0.62538 0.0
C316 C 0.98182 0.94277 0.57563 0.0
C317 C 0.99165 0.9566 0.55001 0.0
C318 C 0.99962 0.97036 0.57463 0.0
Zn319 Zn 0.01112 0.98896 0.66149 0.0
C320 C 0.98661 0.99971 0.74365 0.0
N321 N 0.03921 0.02485 0.74967 0.0
C322 C 0.05678 0.02251 0.76449 0.0
C323 C 0.0303 0.03981 0.75829 0.0
C324 C 0.0392 0.05332 0.7815 0.0
C325 C 0.05744 0.05144 0.79636 0.0
C326 C 0.06617 0.03568 0.78833 0.0
Zn327 Zn 0.02592 0.00654 0.71032 0.0
O328 O 0.0198 0.96878 0.70763 0.0
C329 C 0.05049 0.99579 0.62845 0.0
O330 O 0.03429 0.98575 0.75648 0.0
H331 H 0.01631 0.04141 0.74646 0.0
H332 H 0.98637 0.95773 0.68687 0.0
H333 H 0.06365 0.01055 0.75707 0.0
O334 O 0.03574 0.98727 0.6184 0.0
O335 O 0.05042 0.00484 0.66546 0.0
H336 H 0.00767 0.98075 0.55518 0.0
O337 O 0.01696 0.02692 0.66382 0.0
O338 O 0.00292 0.00941 0.61515 0.0
O339 O 0.00148 0.00791 0.75412 0.0
O340 O 0.9865 0.99105 0.70596 0.0
C341 C 0.00775 0.02474 0.62659 0.0
H342 H 0.97201 0.93322 0.6464 0.0
H343 H 0.99367 0.9565 0.5116 0.0
H344 H 0.03188 0.06516 0.78776 0.0
H345 H 0.08025 0.03377 0.79917 0.0
C346 C 0.49331 0.97748 0.62129 0.0
N347 N 0.51026 0.03063 0.62335 0.0
C348 C 0.50958 0.02955 0.57516 0.0
C349 C 0.50637 0.04433 0.54611 0.0
C350 C 0.50418 0.06061 0.56646 0.0
C351 C 0.50517 0.06138 0.61639 0.0
C352 C 0.50811 0.04615 0.64428 0.0
Zn353 Zn 0.51443 0.008 0.6631 0.0
C354 C 0.48504 0.00031 0.73872 0.0
N355 N 0.52254 0.95932 0.73919 0.0
C356 C 0.52912 0.94487 0.7188 0.0
C357 C 0.51966 0.95969 0.78734 0.0
C358 C 0.52347 0.94523 0.81698 0.0
C359 C 0.53057 0.93027 0.7971 0.0
C360 C 0.53336 0.93014 0.7473 0.0
Zn361 Zn 0.51816 0.98184 0.69922 0.0
O362 O 0.4967 0.99394 0.61844 0.0
C363 C 0.54744 0.98979 0.62288 0.0
O364 O 0.50117 0.96813 0.65267 0.0
H365 H 0.51476 0.97138 0.80306 0.0
H366 H 0.51143 0.01713 0.55904 0.0
H367 H 0.53136 0.94485 0.68049 0.0
O368 O 0.5379 0.00337 0.61827 0.0
O369 O 0.54242 0.97799 0.65471 0.0
H370 H 0.50872 0.04675 0.68264 0.0
O371 O 0.53484 0.99571 0.74555 0.0
O372 O 0.53239 0.02149 0.70918 0.0
O373 O 0.49396 0.9863 0.7424 0.0
O374 O 0.49079 0.01237 0.70842 0.0
C375 C 0.53904 0.012 0.74234 0.0
H376 H 0.50538 0.04287 0.50808 0.0
H377 H 0.50388 0.07363 0.63384 0.0
H378 H 0.52139 0.94596 0.85525 0.0
H379 H 0.53873 0.91879 0.73061 0.0
C380 C 0.52404 0.47878 0.62064 0.0
N381 N 0.47693 0.50871 0.63654 0.0
C382 C 0.47906 0.51206 0.58858 0.0
C383 C 0.46378 0.51586 0.56133 0.0
C384 C 0.44607 0.51628 0.58352 0.0
C385 C 0.4442 0.51257 0.63304 0.0
C386 C 0.45991 0.50882 0.65903 0.0
Zn387 Zn 0.50025 0.50388 0.67367 0.0
C388 C 0.49631 0.47257 0.73943 0.0
N389 N 0.55051 0.49385 0.74449 0.0
C390 C 0.56793 0.49588 0.72418 0.0
C391 C 0.54783 0.48972 0.792 0.0
C392 C 0.56291 0.48729 0.82096 0.0
C393 C 0.58101 0.48933 0.80114 0.0
C394 C 0.58349 0.49377 0.75213 0.0
Zn395 Zn 0.52726 0.49825 0.70642 0.0
O396 O 0.50895 0.48686 0.62093 0.0
C397 C 0.53132 0.52955 0.64094 0.0
O398 O 0.53552 0.48112 0.65339 0.0
H399 H 0.53393 0.48853 0.80779 0.0
H400 H 0.49268 0.51185 0.57132 0.0
H401 H 0.56976 0.49929 0.68643 0.0
O402 O 0.51424 0.52549 0.6364 0.0
O403 O 0.54091 0.52002 0.66821 0.0
H404 H 0.45855 0.50614 0.69721 0.0
O405 O 0.51856 0.51509 0.75908 0.0
O406 O 0.49208 0.5211 0.72673 0.0
O407 O 0.51336 0.4768 0.74347 0.0
O408 O 0.48653 0.48193 0.71213 0.0
C409 C 0.50353 0.5232 0.7596 0.0
H410 H 0.46584 0.51835 0.52317 0.0
H411 H 0.43081 0.5129 0.65165 0.0
H412 H 0.56043 0.48418 0.85876 0.0
H413 H 0.59728 0.49542 0.73559 0.0
C414 C 0.0368 0.52248 0.60508 0.0
N415 N 0.03984 0.46814 0.62923 0.0
C416 C 0.05742 0.46989 0.60981 0.0
C417 C 0.0646 0.45676 0.58242 0.0
C418 C 0.05353 0.44174 0.57456 0.0
C419 C 0.03561 0.44008 0.59593 0.0
C420 C 0.02903 0.45347 0.62339 0.0
Zn421 Zn 0.02904 0.48866 0.66381 0.0
C422 C 0.05604 0.50586 0.72558 0.0
N423 N 0.00647 0.53279 0.73013 0.0
C424 C 0.01674 0.548 0.73268 0.0
C425 C 0.9894 0.53061 0.75234 0.0
C426 C 0.98223 0.54386 0.7793 0.0
C427 C 0.99264 0.55958 0.78318 0.0
C428 C 0.01002 0.56166 0.75896 0.0
Zn429 Zn 0.01729 0.51225 0.69556 0.0
O430 O 0.03913 0.50606 0.6068 0.0
C431 C 0.99005 0.49495 0.63483 0.0
O432 O 0.02755 0.52917 0.63853 0.0
H433 H 0.98142 0.51844 0.74978 0.0
H434 H 0.06574 0.48171 0.61455 0.0
H435 H 0.03032 0.54943 0.71505 0.0
O436 O 0.00342 0.48474 0.62967 0.0
O437 O 0.99208 0.50821 0.6601 0.0
H438 H 0.01512 0.4523 0.63921 0.0
O439 O 0.00725 0.49493 0.75204 0.0
O440 O 0.01875 0.47169 0.72091 0.0
O441 O 0.04257 0.51596 0.73045 0.0
O442 O 0.05431 0.49283 0.69928 0.0
C443 C 0.00949 0.47852 0.75409 0.0
H444 H 0.07842 0.45863 0.5662 0.0
H445 H 0.02671 0.42861 0.59118 0.0
H446 H 0.96867 0.54182 0.79693 0.0
H447 H 0.01856 0.57352 0.76137 0.0
H448 H 0.20389 0.01926 0.37319 0.0
H449 H 0.17666 0.02028 0.42762 0.0
H450 H 0.14939 0.97895 0.35355 0.0
H451 H 0.17667 0.97778 0.29916 0.0
H452 H 0.12586 0.00722 0.3773 0.0
H453 H 0.16865 0.96807 0.45143 0.0
H454 H 0.19905 0.96004 0.48172 0.0
H455 H 0.19714 0.00161 0.57938 0.0
H456 H 0.16684 0.01006 0.54912 0.0
H457 H 0.05492 0.97849 0.54576 0.0
H458 H 0.08182 0.97985 0.49019 0.0
H459 H 0.11079 0.0149 0.581 0.0
H460 H 0.084 0.01341 0.63725 0.0
H461 H 0.13376 0.99126 0.5487 0.0
H462 H 0.09137 0.03029 0.47945 0.0
H463 H 0.06129 0.03971 0.45025 0.0
H464 H 0.06272 0.00092 0.34441 0.0
H465 H 0.09268 0.99105 0.37354 0.0
C466 C 0.19198 0.01058 0.36802 0.0
C467 C 0.19243 0.99843 0.3319 0.0
C468 C 0.17648 0.01111 0.39933 0.0
C469 C 0.16104 0.99961 0.39485 0.0
C470 C 0.16115 0.98793 0.35768 0.0
C471 C 0.17676 0.98722 0.32678 0.0
C472 C 0.14514 0.99922 0.4302 0.0
C473 C 0.12751 0.00354 0.41468 0.0
C474 C 0.14742 0.99494 0.47924 0.0
C475 C 0.16558 0.98981 0.49764 0.0
C476 C 0.17479 0.9756 0.47906 0.0
C477 C 0.19199 0.97095 0.49628 0.0
C478 C 0.20005 0.98034 0.53236 0.0
C479 C 0.1909 0.99437 0.55138 0.0
C480 C 0.17371 0.99908 0.53423 0.0
C481 C 0.06704 0.98642 0.55414 0.0
C482 C 0.06724 0.99588 0.596 0.0
C483 C 0.08239 0.98727 0.52211 0.0
C484 C 0.09827 0.99769 0.53093 0.0
C485 C 0.0987 0.00681 0.57327 0.0
C486 C 0.08334 0.00596 0.6054 0.0
C487 C 0.11434 0.99911 0.49585 0.0
C488 C 0.13204 0.995 0.51139 0.0
C489 C 0.11215 0.00383 0.44694 0.0
C490 C 0.0942 0.00981 0.429 0.0
C491 C 0.08521 0.02367 0.45019 0.0
C492 C 0.06818 0.0291 0.43363 0.0
C493 C 0.06008 0.02089 0.39557 0.0
C494 C 0.06901 0.00725 0.37393 0.0
C495 C 0.08602 0.00174 0.39044 0.0
H496 H 0.0469 0.02512 0.38278 0.0
H497 H 0.21336 0.97672 0.54566 0.0
H498 H 0.48443 0.18399 0.24116 0.0
H499 H 0.48855 0.15698 0.28978 0.0
H500 H 0.4702 0.18283 0.41572 0.0
H501 H 0.46705 0.20993 0.36743 0.0
H502 H 0.49869 0.16634 0.43656 0.0
H503 H 0.44303 0.15024 0.35859 0.0
H504 H 0.42274 0.14574 0.29083 0.0
H505 H 0.46011 0.10865 0.2352 0.0
H506 H 0.48076 0.1131 0.30232 0.0
H507 H 0.48267 0.08849 0.58731 0.0
H508 H 0.47723 0.11444 0.53637 0.0
H509 H 0.5116 0.0946 0.42407 0.0
H510 H 0.51804 0.06908 0.47535 0.0
H511 H 0.47493 0.1073 0.39644 0.0
H512 H 0.53029 0.12448 0.47834 0.0
H513 H 0.54869 0.12884 0.54965 0.0
H514 H 0.50863 0.16408 0.60212 0.0
H515 H 0.48983 0.15972 0.5314 0.0
C516 C 0.48112 0.18373 0.27915 0.0
C517 C 0.47542 0.1989 0.30077 0.0
C518 C 0.48338 0.16832 0.30692 0.0
C519 C 0.47952 0.16775 0.35654 0.0
C520 C 0.47336 0.18289 0.37768 0.0
C521 C 0.47146 0.19834 0.35012 0.0
C522 C 0.48271 0.15174 0.38698 0.0
C523 C 0.49321 0.1535 0.42797 0.0
C524 C 0.47592 0.13485 0.37565 0.0
C525 C 0.46354 0.13214 0.33523 0.0
C526 C 0.447 0.14123 0.3317 0.0
C527 C 0.43542 0.13867 0.29345 0.0
C528 C 0.44016 0.12695 0.25866 0.0
C529 C 0.45647 0.11774 0.26213 0.0
C530 C 0.46811 0.12026 0.3003 0.0
C531 C 0.48936 0.0897 0.55212 0.0
C532 C 0.50082 0.07655 0.53567 0.0
C533 C 0.48607 0.10449 0.5229 0.0
C534 C 0.49396 0.10635 0.47648 0.0
C535 C 0.50525 0.09329 0.45968 0.0
C536 C 0.50882 0.07865 0.48909 0.0
C537 C 0.49068 0.12209 0.44566 0.0
C538 C 0.48027 0.12022 0.40474 0.0
C539 C 0.49723 0.13892 0.45745 0.0
C540 C 0.50856 0.14162 0.49984 0.0
C541 C 0.52531 0.13303 0.5053 0.0
C542 C 0.53583 0.13553 0.54556 0.0
C543 C 0.52981 0.14669 0.58046 0.0
C544 C 0.51327 0.15542 0.5751 0.0
C545 C 0.50268 0.15295 0.53492 0.0
H546 H 0.53797 0.14861 0.61161 0.0
H547 H 0.43117 0.12499 0.22908 0.0
H548 H 0.32927 0.5448 0.25713 0.0
H549 H 0.35331 0.5363 0.31231 0.0
H550 H 0.32222 0.55785 0.42834 0.0
H551 H 0.29819 0.56634 0.37354 0.0
H552 H 0.35762 0.56773 0.43117 0.0
H553 H 0.32324 0.51367 0.41672 0.0
H554 H 0.30851 0.48954 0.37442 0.0
H555 H 0.3616 0.47697 0.31393 0.0
H556 H 0.37662 0.5012 0.35536 0.0
H557 H 0.41094 0.50106 0.59022 0.0
H558 H 0.38431 0.5084 0.54218 0.0
H559 H 0.41793 0.54846 0.46335 0.0
H560 H 0.44435 0.54161 0.51205 0.0
H561 H 0.37928 0.50702 0.44786 0.0
H562 H 0.39144 0.58253 0.43338 0.0
H563 H 0.40428 0.60612 0.48112 0.0
H564 H 0.39192 0.57476 0.60995 0.0
H565 H 0.37877 0.55108 0.56306 0.0
C566 C 0.3275 0.54759 0.29447 0.0
C567 C 0.31186 0.5563 0.31092 0.0
C568 C 0.34124 0.54273 0.32596 0.0
C569 C 0.3395 0.54633 0.37455 0.0
C570 C 0.3239 0.55501 0.391 0.0
C571 C 0.31021 0.55991 0.35957 0.0
C572 C 0.35407 0.54136 0.40818 0.0
C573 C 0.36234 0.55445 0.4348 0.0
C574 C 0.36 0.52396 0.41366 0.0
C575 C 0.35102 0.50935 0.38881 0.0
C576 C 0.33175 0.50584 0.39411 0.0
C577 C 0.32335 0.49213 0.37033 0.0
C578 C 0.3341 0.48175 0.34141 0.0
C579 C 0.35329 0.48504 0.3363 0.0
C580 C 0.36175 0.49874 0.35996 0.0
C581 C 0.41258 0.51157 0.56304 0.0
C582 C 0.42976 0.52076 0.55499 0.0
C583 C 0.39741 0.51564 0.53535 0.0
C584 C 0.3991 0.52906 0.49942 0.0
C585 C 0.41624 0.5382 0.49124 0.0
C586 C 0.43138 0.53415 0.51884 0.0
C587 C 0.38304 0.53347 0.47009 0.0
C588 C 0.37452 0.52028 0.44424 0.0
C589 C 0.37662 0.55071 0.46602 0.0
C590 C 0.38428 0.56497 0.49462 0.0
C591 C 0.39139 0.5807 0.4719 0.0
C592 C 0.39874 0.59408 0.49882 0.0
C593 C 0.39897 0.59192 0.54852 0.0
C594 C 0.3918 0.57639 0.57143 0.0
C595 C 0.38442 0.56298 0.5447 0.0
H596 H 0.40467 0.60229 0.56928 0.0
H597 H 0.32758 0.47114 0.32304 0.0
H598 H 0.12485 0.31762 0.33407 0.0
H599 H 0.12079 0.34383 0.37947 0.0
H600 H 0.06716 0.35051 0.3189 0.0
H601 H 0.07141 0.32471 0.27212 0.0
H602 H 0.08453 0.38166 0.3285 0.0
H603 H 0.07141 0.32904 0.42725 0.0
H604 H 0.07848 0.30039 0.46485 0.0
H605 H 0.12417 0.32424 0.53564 0.0
H606 H 0.11753 0.353 0.49788 0.0
H607 H 0.03474 0.42572 0.50476 0.0
H608 H 0.04609 0.40396 0.45084 0.0
H609 H 0.09915 0.40568 0.51742 0.0
H610 H 0.08779 0.42739 0.57195 0.0
H611 H 0.08563 0.3718 0.50448 0.0
H612 H 0.09599 0.42536 0.41137 0.0
H613 H 0.08766 0.45381 0.3749 0.0
H614 H 0.04593 0.42807 0.29443 0.0
H615 H 0.05382 0.39948 0.33099 0.0
C616 C 0.11242 0.32494 0.32937 0.0
C617 C 0.09836 0.31897 0.29985 0.0
C618 C 0.11004 0.33983 0.35575 0.0
C619 C 0.0935 0.34892 0.35336 0.0
C620 C 0.07998 0.34364 0.32159 0.0
C621 C 0.08237 0.32881 0.29512 0.0
C622 C 0.0896 0.36312 0.38623 0.0
C623 C 0.08468 0.37948 0.36697 0.0
C624 C 0.09014 0.36039 0.43646 0.0
C625 C 0.09412 0.34312 0.45929 0.0
C626 C 0.08306 0.32814 0.45053 0.0
C627 C 0.08697 0.31189 0.47191 0.0
C628 C 0.1018 0.31048 0.5025 0.0
C629 C 0.11271 0.32534 0.51186 0.0
C630 C 0.10888 0.34162 0.49049 0.0
C631 C 0.04877 0.42137 0.50819 0.0
C632 C 0.06037 0.42824 0.54263 0.0
C633 C 0.0553 0.40906 0.47707 0.0
C634 C 0.07353 0.40337 0.4798 0.0
C635 C 0.08507 0.40999 0.51459 0.0
C636 C 0.0786 0.42242 0.54552 0.0
C637 C 0.08034 0.39025 0.44674 0.0
C638 C 0.08575 0.37407 0.466 0.0
C639 C 0.08012 0.39312 0.39656 0.0
C640 C 0.07541 0.41029 0.37423 0.0
C641 C 0.08494 0.42578 0.38618 0.0
C642 C 0.08031 0.44193 0.36545 0.0
C643 C 0.06624 0.44275 0.33245 0.0
C644 C 0.05681 0.42742 0.32003 0.0
C645 C 0.06137 0.41123 0.34071 0.0
H646 H 0.06268 0.45527 0.31643 0.0
H647 H 0.1048 0.29789 0.51904 0.0
H648 H 0.83061 0.97762 0.98116 0.0
H649 H 0.85836 0.97798 0.92898 0.0
H650 H 0.88996 0.00327 0.03583 0.0
H651 H 0.86236 0.00245 0.08924 0.0
H652 H 0.89487 0.01998 0.9471 0.0
H653 H 0.89732 0.96145 0.01393 0.0
H654 H 0.88592 0.93132 0.03666 0.0
H655 H 0.87678 0.9216 0.88961 0.0
H656 H 0.88792 0.95175 0.86602 0.0
H657 H 0.98341 0.01424 0.83077 0.0
H658 H 0.95681 0.01215 0.88721 0.0
H659 H 0.92549 0.98245 0.78809 0.0
H660 H 0.95226 0.9841 0.7318 0.0
H661 H 0.92083 0.96778 0.8748 0.0
H662 H 0.91743 0.02636 0.80774 0.0
H663 H 0.92919 0.05632 0.78422 0.0
H664 H 0.93989 0.06597 0.93054 0.0
H665 H 0.92842 0.03597 0.95487 0.0
C666 C 0.84351 0.98288 0.99432 0.0
C667 C 0.84411 0.98996 0.03981 0.0
C668 C 0.8594 0.98316 0.96414 0.0
C669 C 0.8763 0.99058 0.97848 0.0
C670 C 0.87706 0.9975 0.02392 0.0
C671 C 0.86121 0.99709 0.05435 0.0
C672 C 0.89287 0.99187 0.9451 0.0
C673 C 0.90073 0.00854 0.93185 0.0
C674 C 0.90022 0.977 0.92413 0.0
C675 C 0.89324 0.95894 0.93828 0.0
C676 C 0.89268 0.95296 0.98648 0.0
C677 C 0.88632 0.93586 0.99951 0.0
C678 C 0.88055 0.92458 0.96463 0.0
C679 C 0.88119 0.93037 0.91662 0.0
C680 C 0.88755 0.94745 0.90339 0.0
C681 C 0.97082 0.00737 0.82072 0.0
C682 C 0.96997 0.99941 0.77654 0.0
C683 C 0.95557 0.00623 0.85307 0.0
C684 C 0.93899 0.99732 0.84183 0.0
C685 C 0.93808 0.98942 0.79766 0.0
C686 C 0.95339 0.99045 0.76536 0.0
C687 C 0.92278 0.99592 0.87652 0.0
C688 C 0.91499 0.97923 0.89002 0.0
C689 C 0.91542 0.01078 0.89756 0.0
C690 C 0.92223 0.02886 0.88305 0.0
C691 C 0.92242 0.03483 0.83486 0.0
C692 C 0.92901 0.05182 0.82139 0.0
C693 C 0.93533 0.06302 0.85585 0.0
C694 C 0.93501 0.05727 0.90388 0.0
C695 C 0.92845 0.04028 0.91753 0.0
H696 H 0.94043 0.07618 0.84535 0.0
H697 H 0.87567 0.91133 0.97477 0.0
H698 H 0.54788 0.80273 0.10809 0.0
H699 H 0.53996 0.82865 0.06042 0.0
H700 H 0.5956 0.83262 0.9982 0.0
H701 H 0.60401 0.80739 0.04816 0.0
H702 H 0.58393 0.86402 0.00856 0.0
H703 H 0.55869 0.81219 0.94173 0.0
H704 H 0.54058 0.78419 0.94141 0.0
H705 H 0.49071 0.81042 0.9773 0.0
H706 H 0.50859 0.83855 0.97848 0.0
H707 H 0.56247 0.91204 0.79414 0.0
H708 H 0.57132 0.8883 0.84955 0.0
H709 H 0.51882 0.89087 0.92682 0.0
H710 H 0.50988 0.91457 0.87155 0.0
H711 H 0.52892 0.85656 0.90866 0.0
H712 H 0.55575 0.90911 0.97164 0.0
H713 H 0.57491 0.93658 0.96664 0.0
H714 H 0.62325 0.90804 0.93122 0.0
H715 H 0.60432 0.88041 0.93533 0.0
C716 C 0.55863 0.80937 0.08537 0.0
C717 C 0.57655 0.80275 0.08163 0.0
C718 C 0.55398 0.82408 0.05752 0.0
C719 C 0.56702 0.8323 0.02461 0.0
C720 C 0.58521 0.8264 0.02287 0.0
C721 C 0.58995 0.81183 0.05118 0.0
C722 C 0.56146 0.84644 0.99037 0.0
C723 C 0.57201 0.86229 0.98642 0.0
C724 C 0.54582 0.84431 0.96155 0.0
C725 C 0.53501 0.82744 0.96068 0.0
C726 C 0.54388 0.81196 0.94989 0.0
C727 C 0.53366 0.79607 0.94951 0.0
C728 C 0.51451 0.79552 0.95946 0.0
C729 C 0.50555 0.81086 0.96968 0.0
C730 C 0.51572 0.82678 0.97018 0.0
C731 C 0.55275 0.9074 0.82264 0.0
C732 C 0.5355 0.91516 0.82863 0.0
C733 C 0.55787 0.89396 0.85444 0.0
C734 C 0.54579 0.88797 0.89253 0.0
C735 C 0.52836 0.89536 0.89777 0.0
C736 C 0.52332 0.90892 0.86633 0.0
C737 C 0.55133 0.87407 0.92717 0.0
C738 C 0.54079 0.85826 0.93102 0.0
C739 C 0.56714 0.87614 0.95522 0.0
C740 C 0.57858 0.89271 0.95334 0.0
C741 C 0.57044 0.90871 0.96243 0.0
C742 C 0.58126 0.9243 0.95982 0.0
C743 C 0.60028 0.92406 0.94849 0.0
C744 C 0.60852 0.90821 0.93993 0.0
C745 C 0.59775 0.89257 0.94244 0.0
H746 H 0.60863 0.93615 0.94644 0.0
H747 H 0.50662 0.78321 0.95914 0.0
H748 H 0.70248 0.44401 0.10425 0.0
H749 H 0.67556 0.44921 0.05587 0.0
H750 H 0.69906 0.50012 0.00952 0.0
H751 H 0.72558 0.4954 0.05984 0.0
H752 H 0.66256 0.5016 0.02051 0.0
H753 H 0.7044 0.46423 0.94134 0.0
H754 H 0.72371 0.43853 0.93325 0.0
H755 H 0.67526 0.40429 0.95485 0.0
H756 H 0.65568 0.42981 0.96375 0.0
H757 H 0.612 0.51083 0.80635 0.0
H758 H 0.63762 0.50749 0.86114 0.0
H759 H 0.61159 0.45926 0.92057 0.0
H760 H 0.58608 0.46248 0.86586 0.0
H761 H 0.64944 0.45689 0.9021 0.0
H762 H 0.60772 0.49523 0.98032 0.0
H763 H 0.58897 0.52145 0.98489 0.0
H764 H 0.63815 0.55453 0.96063 0.0
H765 H 0.65718 0.52848 0.95534 0.0
C766 C 0.70172 0.45651 0.08485 0.0
C767 C 0.71635 0.4692 0.08552 0.0
C768 C 0.68641 0.45938 0.05668 0.0
C769 C 0.68552 0.47487 0.02808 0.0
C770 C 0.69952 0.48799 0.03088 0.0
C771 C 0.71477 0.4852 0.05937 0.0
C772 C 0.67058 0.47699 0.99329 0.0
C773 C 0.65983 0.49191 0.99432 0.0
C774 C 0.66689 0.46429 0.95926 0.0
C775 C 0.67861 0.44892 0.95369 0.0
C776 C 0.69788 0.45122 0.94471 0.0
C777 C 0.70887 0.43668 0.93993 0.0
C778 C 0.70072 0.41979 0.94366 0.0
C779 C 0.68156 0.41739 0.95205 0.0
C780 C 0.67051 0.43188 0.95694 0.0
C781 C 0.61189 0.49944 0.83078 0.0
C782 C 0.59707 0.48693 0.83201 0.0
C783 C 0.62642 0.49761 0.86224 0.0
C784 C 0.62638 0.48321 0.89517 0.0
C785 C 0.61184 0.47049 0.89553 0.0
C786 C 0.59726 0.47239 0.86446 0.0
C787 C 0.64138 0.48139 0.92965 0.0
C788 C 0.65218 0.46654 0.9284 0.0
C789 C 0.64521 0.49424 0.96307 0.0
C790 C 0.63385 0.50991 0.96699 0.0
C791 C 0.61452 0.50809 0.97566 0.0
C792 C 0.60385 0.52292 0.97846 0.0
C793 C 0.61235 0.53964 0.97293 0.0
C794 C 0.63158 0.54157 0.96484 0.0
C795 C 0.64232 0.52677 0.96201 0.0
H796 H 0.60406 0.5511 0.97497 0.0
H797 H 0.70926 0.40855 0.93995 0.0
H798 H 0.93275 0.6671 0.09507 0.0
H799 H 0.9415 0.64185 0.04965 0.0
H800 H 0.95483 0.67618 0.92591 0.0
H801 H 0.94606 0.70132 0.9708 0.0
H802 H 0.93604 0.64812 0.90046 0.0
H803 H 0.98872 0.65936 0.99686 0.0
H804 H 0.00492 0.66359 0.07174 0.0
H805 H 0.98707 0.61174 0.12337 0.0
H806 H 0.97054 0.60729 0.04899 0.0
H807 H 0.9931 0.59484 0.7615 0.0
H808 H 0.98173 0.61787 0.81146 0.0
H809 H 0.96488 0.57901 0.92231 0.0
H810 H 0.9764 0.55592 0.87272 0.0
H811 H 0.98387 0.60781 0.95678 0.0
H812 H 0.93268 0.59637 0.85643 0.0
H813 H 0.91742 0.59255 0.78005 0.0
H814 H 0.93356 0.64544 0.73427 0.0
H815 H 0.94916 0.6495 0.81015 0.0
C816 C 0.9376 0.66924 0.05823 0.0
C817 C 0.93863 0.6862 0.03649 0.0
C818 C 0.9426 0.65481 0.03232 0.0
C819 C 0.94896 0.65713 0.98442 0.0
C820 C 0.94987 0.67404 0.96269 0.0
C821 C 0.9448 0.6884 0.9884 0.0
C822 C 0.95476 0.64205 0.95665 0.0
C823 C 0.94663 0.63942 0.91262 0.0
C824 C 0.96828 0.63043 0.9729 0.0
C825 C 0.97822 0.63307 0.0176 0.0
C826 C 0.98812 0.64891 0.02434 0.0
C827 C 0.99738 0.65134 0.06666 0.0
C828 C 0.99698 0.63796 0.10235 0.0
C829 C 0.98734 0.62211 0.09573 0.0
C830 C 0.97804 0.61962 0.05349 0.0
C831 C 0.98704 0.59122 0.79659 0.0
C832 C 0.98558 0.57357 0.81313 0.0
C833 C 0.98044 0.60436 0.82495 0.0
C834 C 0.97233 0.60012 0.87043 0.0
C835 C 0.97104 0.58255 0.88727 0.0
C836 C 0.9775 0.56938 0.85877 0.0
C837 C 0.96531 0.61407 0.90047 0.0
C838 C 0.9732 0.61646 0.94487 0.0
C839 C 0.95167 0.62556 0.88441 0.0
C840 C 0.94223 0.62318 0.83882 0.0
C841 C 0.9331 0.60714 0.82993 0.0
C842 C 0.92437 0.60494 0.78675 0.0
C843 C 0.92456 0.61873 0.75229 0.0
C844 C 0.93344 0.63477 0.76098 0.0
C845 C 0.94222 0.63703 0.80409 0.0
H846 H 0.91778 0.61701 0.71888 0.0
H847 H 0.00416 0.63986 0.13509 0.0
H848 H 0.08621 0.15671 0.44116 0.0
H849 H 0.07003 0.13141 0.4824 0.0
H850 H 0.01956 0.14413 0.4124 0.0
H851 H 0.0358 0.16908 0.36976 0.0
H852 H 0.04075 0.12739 0.54336 0.0
H853 H 0.99695 0.10573 0.38629 0.0
H854 H 0.99812 0.1079 0.29816 0.0
H855 H 0.05769 0.11236 0.29729 0.0
H856 H 0.05688 0.10999 0.38531 0.0
H857 H 0.99023 0.05478 0.64349 0.0
H858 H 0.99408 0.08239 0.59557 0.0
H859 H 0.0273 0.0565 0.49101 0.0
H860 H 0.02197 0.02873 0.53676 0.0
H861 H 0.01186 0.0814 0.4475 0.0
H862 H 0.04539 0.07719 0.59609 0.0
H863 H 0.04654 0.0732 0.68375 0.0
H864 H 0.01337 0.11814 0.70048 0.0
H865 H 0.01185 0.12225 0.61296 0.0
C866 C 0.07167 0.15411 0.43453 0.0
C867 C 0.06232 0.16483 0.40198 0.0
C868 C 0.06241 0.13974 0.45839 0.0
C869 C 0.04366 0.1358 0.45004 0.0
C870 C 0.0341 0.14684 0.41892 0.0
C871 C 0.04336 0.16119 0.39496 0.0
C872 C 0.03439 0.11976 0.47264 0.0
C873 C 0.03434 0.11737 0.52245 0.0
C874 C 0.02616 0.10665 0.44529 0.0
C875 C 0.02682 0.10791 0.39235 0.0
C876 C 0.01029 0.10714 0.36725 0.0
C877 C 0.01089 0.1084 0.31733 0.0
C878 C 0.02796 0.11034 0.29215 0.0
C879 C 0.04448 0.11094 0.31683 0.0
C880 C 0.04395 0.10966 0.36672 0.0
C881 C 0.99764 0.05496 0.60921 0.0
C882 C 0.00577 0.03981 0.59342 0.0
C883 C 1.00006 0.07072 0.58215 0.0
C884 C 0.01157 0.07169 0.54055 0.0
C885 C 0.01844 0.05617 0.52304 0.0
C886 C 0.01539 0.04029 0.54912 0.0
C887 C 0.01839 0.08885 0.51838 0.0
C888 C 0.01799 0.09151 0.46857 0.0
C889 C 0.02673 0.10201 0.54563 0.0
C890 C 0.02835 0.09992 0.5981 0.0
C891 C 0.03835 0.08621 0.61852 0.0
C892 C 0.03904 0.0839 0.66816 0.0
C893 C 0.02995 0.09536 0.69764 0.0
C894 C 0.02034 0.10925 0.67758 0.0
C895 C 0.01957 0.11158 0.628 0.0
H896 H 0.03031 0.09352 0.73604 0.0
H897 H 0.0284 0.11133 0.25352 0.0
H898 H 0.37284 0.96125 0.32957 0.0
H899 H 0.3977 0.95484 0.38351 0.0
H900 H 0.35767 0.94739 0.50129 0.0
H901 H 0.33263 0.95441 0.44731 0.0
H902 H 0.38449 0.96904 0.52361 0.0
H903 H 0.38278 0.91271 0.46288 0.0
H904 H 0.38108 0.89023 0.4028 0.0
H905 H 0.43339 0.90955 0.33953 0.0
H906 H 0.43529 0.93232 0.39875 0.0
H907 H 0.47772 0.94406 0.62773 0.0
H908 H 0.44958 0.93373 0.58883 0.0
H909 H 0.44749 0.98356 0.5113 0.0
H910 H 0.47541 0.99394 0.54935 0.0
H911 H 0.43839 0.9326 0.48833 0.0
H912 H 0.40423 0.99758 0.53455 0.0
H913 H 0.4063 0.01915 0.5971 0.0
H914 H 0.42417 0.97941 0.69648 0.0
H915 H 0.42186 0.95753 0.63484 0.0
C916 C 0.36929 0.95809 0.36688 0.0
C917 C 0.35082 0.95854 0.38434 0.0
C918 C 0.3835 0.95419 0.39762 0.0
C919 C 0.37956 0.95045 0.44644 0.0
C920 C 0.36101 0.95015 0.4637 0.0
C921 C 0.34673 0.95408 0.43283 0.0
C922 C 0.39509 0.94901 0.47961 0.0
C923 C 0.39609 0.96082 0.5164 0.0
C924 C 0.41012 0.93801 0.471 0.0
C925 C 0.40915 0.92428 0.43529 0.0
C926 C 0.39388 0.91224 0.436 0.0
C927 C 0.39288 0.89943 0.40209 0.0
C928 C 0.40711 0.89847 0.36736 0.0
C929 C 0.42238 0.9103 0.3665 0.0
C930 C 0.42345 0.92314 0.40031 0.0
C931 C 0.47149 0.95266 0.60156 0.0
C932 C 0.47864 0.9699 0.59206 0.0
C933 C 0.45544 0.94673 0.57946 0.0
C934 C 0.44638 0.95802 0.54796 0.0
C935 C 0.45421 0.97476 0.53605 0.0
C936 C 0.47019 0.98065 0.55783 0.0
C937 C 0.42794 0.95322 0.53003 0.0
C938 C 0.42647 0.94036 0.49626 0.0
C939 C 0.4123 0.96296 0.54203 0.0
C940 C 0.41296 0.97593 0.5799 0.0
C941 C 0.40843 0.9934 0.56986 0.0
C942 C 0.40968 0.00569 0.60515 0.0
C943 C 0.4154 0.00066 0.6507 0.0
C944 C 0.41978 0.9833 0.66115 0.0
C945 C 0.41851 0.97095 0.62604 0.0
H946 H 0.41642 0.01021 0.67791 0.0
H947 H 0.40631 0.88855 0.34113 0.0
H948 H 0.49646 0.33433 0.41128 0.0
H949 H 0.50834 0.3569 0.46275 0.0
H950 H 0.48731 0.39696 0.36795 0.0
H951 H 0.47577 0.37448 0.31607 0.0
H952 H 0.52135 0.40541 0.38851 0.0
H953 H 0.46637 0.38451 0.47979 0.0
H954 H 0.44517 0.36303 0.52424 0.0
H955 H 0.48816 0.3509 0.62131 0.0
H956 H 0.50969 0.37218 0.57709 0.0
H957 H 0.51027 0.47797 0.53202 0.0
H958 H 0.50859 0.45285 0.48152 0.0
H959 H 0.54088 0.42332 0.58126 0.0
H960 H 0.54283 0.44862 0.6319 0.0
H961 H 0.50626 0.40735 0.56193 0.0
H962 H 0.55954 0.43219 0.47499 0.0
H963 H 0.57893 0.45554 0.43233 0.0
H964 H 0.53724 0.4618 0.3278 0.0
H965 H 0.51747 0.43866 0.3702 0.0
C966 C 0.49417 0.34796 0.40187 0.0
C967 C 0.48523 0.35269 0.35969 0.0
C968 C 0.50097 0.36083 0.43126 0.0
C969 C 0.49866 0.37864 0.41932 0.0
C970 C 0.48937 0.38332 0.37772 0.0
C971 C 0.48276 0.37049 0.34814 0.0
C972 C 0.50643 0.39252 0.44899 0.0
C973 C 0.51793 0.40588 0.42638 0.0
C974 C 0.50252 0.39283 0.49876 0.0
C975 C 0.48973 0.37973 0.52466 0.0
C976 C 0.47137 0.37711 0.51025 0.0
C977 C 0.45928 0.36501 0.53549 0.0
C978 C 0.46535 0.35554 0.57542 0.0
C979 C 0.48351 0.35817 0.59022 0.0
C980 C 0.49566 0.37025 0.5651 0.0
C981 C 0.51747 0.4663 0.54249 0.0
C982 C 0.52667 0.4652 0.58579 0.0
C983 C 0.51653 0.45198 0.5136 0.0
C984 C 0.52462 0.43626 0.52773 0.0
C985 C 0.53462 0.43539 0.56978 0.0
C986 C 0.53583 0.44986 0.59842 0.0
C987 C 0.5207 0.42038 0.5011 0.0
C988 C 0.50994 0.40666 0.52425 0.0
C989 C 0.52508 0.41984 0.45175 0.0
C990 C 0.53697 0.43374 0.42598 0.0
C991 C 0.55444 0.43863 0.44311 0.0
C992 C 0.56551 0.45182 0.41893 0.0
C993 C 0.55931 0.46016 0.37742 0.0
C994 C 0.54203 0.45532 0.35996 0.0
C995 C 0.53089 0.44215 0.38401 0.0
H996 H 0.56791 0.47037 0.35876 0.0
H997 H 0.45594 0.34623 0.59501 0.0
H998 H 0.13406 0.60249 0.25712 0.0
H999 H 0.10638 0.59769 0.30984 0.0
H1000 H 0.14115 0.58379 0.42691 0.0
H1001 H 0.16872 0.58896 0.37477 0.0
H1002 H 0.09474 0.56814 0.34702 0.0
H1003 H 0.12101 0.58843 0.5327 0.0
H1004 H 0.13975 0.61242 0.56529 0.0
H1005 H 0.12765 0.64629 0.44498 0.0
H1006 H 0.1086 0.6226 0.41197 0.0
H1007 H 0.06054 0.51257 0.5346 0.0
H1008 H 0.07793 0.53131 0.47513 0.0
H1009 H 0.05122 0.57659 0.52729 0.0
H1010 H 0.03403 0.55788 0.58821 0.0
H1011 H 0.08683 0.58343 0.51621 0.0
H1012 H 0.04099 0.56097 0.41673 0.0
H1013 H 0.02044 0.5387 0.38242 0.0
H1014 H 0.06794 0.51317 0.3263 0.0
H1015 H 0.0888 0.53514 0.36081 0.0
C1016 C 0.13576 0.59883 0.29444 0.0
C1017 C 0.15351 0.59606 0.3119 0.0
C1018 C 0.11996 0.59608 0.3245 0.0
C1019 C 0.12163 0.59044 0.37245 0.0
C1020 C 0.13945 0.58852 0.39041 0.0
C1021 C 0.15524 0.59145 0.36052 0.0
C1022 C 0.10496 0.58435 0.40209 0.0
C1023 C 0.09287 0.57169 0.38382 0.0
C1024 C 0.10215 0.58928 0.44975 0.0
C1025 C 0.11343 0.60367 0.46973 0.0
C1026 C 0.12223 0.60102 0.51333 0.0
C1027 C 0.13294 0.61457 0.53184 0.0
C1028 C 0.13492 0.63085 0.50718 0.0
C1029 C 0.12615 0.63365 0.46399 0.0
C1030 C 0.11542 0.62016 0.44532 0.0
C1031 C 0.05814 0.52648 0.53314 0.0
C1032 C 0.04588 0.53373 0.56614 0.0
C1033 C 0.06805 0.53719 0.49886 0.0
C1034 C 0.0657 0.55535 0.49624 0.0
C1035 C 0.0532 0.56261 0.52856 0.0
C1036 C 0.04335 0.55189 0.56322 0.0
C1037 C 0.0773 0.56666 0.46168 0.0
C1038 C 0.08843 0.58025 0.47906 0.0
C1039 C 0.07894 0.5629 0.41284 0.0
C1040 C 0.06647 0.54971 0.39153 0.0
C1041 C 0.04707 0.55056 0.39728 0.0
C1042 C 0.03536 0.53799 0.37777 0.0
C1043 C 0.04288 0.52452 0.35222 0.0
C1044 C 0.06213 0.52362 0.34605 0.0
C1045 C 0.0739 0.53616 0.3655 0.0
H1046 H 0.03379 0.51479 0.33718 0.0
H1047 H 0.14323 0.64132 0.52157 0.0
H1048 H 0.95681 0.86144 0.05396 0.0
H1049 H 0.97269 0.88609 0.00849 0.0
H1050 H 0.99262 0.85071 0.90461 0.0
H1051 H 0.97674 0.82602 0.94991 0.0
H1052 H 0.02043 0.87429 0.93582 0.0
H1053 H 0.95813 0.87449 0.87777 0.0
H1054 H 0.92401 0.8756 0.88393 0.0
H1055 H 0.92859 0.92583 0.94578 0.0
H1056 H 0.9628 0.92488 0.94084 0.0
H1057 H 0.02627 0.93645 0.72274 0.0
H1058 H 0.01868 0.91157 0.77818 0.0
H1059 H 0.02623 0.94449 0.89718 0.0
H1060 H 0.03364 0.96974 0.84166 0.0
H1061 H 0.98604 0.92324 0.86354 0.0
H1062 H 0.04777 0.903 0.96238 0.0
H1063 H 0.08194 0.90215 0.95362 0.0
H1064 H 0.07755 0.89194 0.80506 0.0
H1065 H 0.04338 0.89252 0.81323 0.0
C1066 C 0.96457 0.85896 0.02137 0.0
C1067 C 0.96555 0.84187 0.00529 0.0
C1068 C 0.97358 0.87301 0.99548 0.0
C1069 C 0.98382 0.87016 0.95335 0.0
C1070 C 0.98481 0.85312 0.93718 0.0
C1071 C 0.97563 0.83909 0.96277 0.0
C1072 C 0.99346 0.88495 0.92591 0.0
C1073 C 0.01289 0.88497 0.92 0.0
C1074 C 0.98363 0.899 0.9059 0.0
C1075 C 0.96305 0.89948 0.90961 0.0
C1076 C 0.95189 0.88567 0.8933 0.0
C1077 C 0.93253 0.88629 0.89644 0.0
C1078 C 0.92415 0.90073 0.91544 0.0
C1079 C 0.93511 0.91462 0.93125 0.0
C1080 C 0.95449 0.91403 0.9283 0.0
C1081 C 0.02698 0.93831 0.76071 0.0
C1082 C 0.03036 0.95507 0.77792 0.0
C1083 C 0.02269 0.92406 0.79228 0.0
C1084 C 0.02198 0.92626 0.84153 0.0
C1085 C 0.02692 0.9426 0.85914 0.0
C1086 C 0.03122 0.95696 0.82743 0.0
C1087 C 0.01286 0.9124 0.87312 0.0
C1088 C 0.99352 0.91263 0.87998 0.0
C1089 C 0.02269 0.89855 0.89359 0.0
C1090 C 0.04312 0.89806 0.88827 0.0
C1091 C 0.05414 0.90059 0.92789 0.0
C1092 C 0.07348 0.90013 0.92305 0.0
C1093 C 0.08191 0.89708 0.87876 0.0
C1094 C 0.07101 0.89441 0.83928 0.0
C1095 C 0.05166 0.89484 0.84397 0.0
H1096 H 0.09689 0.89673 0.87507 0.0
H1097 H 0.90916 0.90118 0.91775 0.0
H1098 H 0.67307 0.99744 0.99971 0.0
H1099 H 0.6456 0.00085 0.95225 0.0
H1100 H 0.66567 0.05278 0.90394 0.0
H1101 H 0.69293 0.04962 0.95372 0.0
H1102 H 0.62962 0.05289 0.92027 0.0
H1103 H 0.66904 0.01707 0.83075 0.0
H1104 H 0.68967 0.99271 0.81636 0.0
H1105 H 0.64506 0.95553 0.85587 0.0
H1106 H 0.62422 0.97965 0.87112 0.0
H1107 H 0.56146 0.04189 0.72928 0.0
H1108 H 0.58935 0.04894 0.77404 0.0
H1109 H 0.57643 0.0044 0.87083 0.0
H1110 H 0.54877 0.99737 0.82704 0.0
H1111 H 0.61159 0.00455 0.81708 0.0
H1112 H 0.57338 0.04176 0.91324 0.0
H1113 H 0.55327 0.06672 0.92454 0.0
H1114 H 0.59661 0.10216 0.86562 0.0
H1115 H 0.61689 0.07736 0.85334 0.0
C1116 C 0.67164 0.00954 0.97876 0.0
C1117 C 0.68517 0.02317 0.97961 0.0
C1118 C 0.65599 0.01148 0.95155 0.0
C1119 C 0.6538 0.02689 0.92342 0.0
C1120 C 0.66714 0.04072 0.92503 0.0
C1121 C 0.68269 0.03891 0.95321 0.0
C1122 C 0.63755 0.02829 0.89254 0.0
C1123 C 0.62586 0.04248 0.89698 0.0
C1124 C 0.63264 0.01477 0.86191 0.0
C1125 C 0.64509 0.00019 0.85227 0.0
C1126 C 0.66365 0.0037 0.83659 0.0
C1127 C 0.67538 0.98993 0.82826 0.0
C1128 C 0.66869 0.97259 0.83524 0.0
C1129 C 0.65023 0.96897 0.85045 0.0
C1130 C 0.63844 0.98269 0.85886 0.0
C1131 C 0.56429 0.03396 0.76099 0.0
C1132 C 0.55312 0.01893 0.77429 0.0
C1133 C 0.58021 0.03798 0.78639 0.0
C1134 C 0.58497 0.02705 0.8253 0.0
C1135 C 0.57302 0.0129 0.84067 0.0
C1136 C 0.55722 0.00891 0.81555 0.0
C1137 C 0.60337 0.02868 0.84658 0.0
C1138 C 0.61554 0.01508 0.83983 0.0
C1139 C 0.60876 0.04282 0.87433 0.0
C1140 C 0.59656 0.05769 0.88178 0.0
C1141 C 0.57855 0.05485 0.9022 0.0
C1142 C 0.56713 0.06898 0.90891 0.0
C1143 C 0.57363 0.08601 0.89564 0.0
C1144 C 0.59158 0.08896 0.87578 0.0
C1145 C 0.60304 0.07487 0.86897 0.0
H1146 H 0.56478 0.09693 0.90087 0.0
H1147 H 0.6778 0.96195 0.82881 0.0
H1148 H 0.54786 0.66667 0.949 0.0
H1149 H 0.53491 0.64344 0.90142 0.0
H1150 H 0.55014 0.60465 0.00795 0.0
H1151 H 0.56262 0.62772 0.05639 0.0
H1152 H 0.55901 0.59586 0.91415 0.0
H1153 H 0.50678 0.61654 0.00625 0.0
H1154 H 0.48599 0.63914 0.03403 0.0
H1155 H 0.47112 0.6512 0.88961 0.0
H1156 H 0.49204 0.62882 0.8609 0.0
H1157 H 0.5122 0.52136 0.85256 0.0
H1158 H 0.51825 0.5463 0.90189 0.0
H1159 H 0.49803 0.58114 0.79169 0.0
H1160 H 0.49123 0.55602 0.74295 0.0
H1161 H 0.49163 0.59327 0.88203 0.0
H1162 H 0.54226 0.57278 0.78864 0.0
H1163 H 0.56219 0.54998 0.75816 0.0
H1164 H 0.58052 0.53841 0.89974 0.0
H1165 H 0.56045 0.56096 0.93129 0.0
C1166 C 0.54837 0.65321 0.96247 0.0
C1167 C 0.55623 0.64908 0.00665 0.0
C1168 C 0.54104 0.63996 0.93513 0.0
C1169 C 0.54147 0.62237 0.95142 0.0
C1170 C 0.54974 0.61816 0.99475 0.0
C1171 C 0.55695 0.63138 0.02225 0.0
C1172 C 0.53293 0.60831 0.924 0.0
C1173 C 0.54426 0.5952 0.9075 0.0
C1174 C 0.51379 0.6078 0.91411 0.0
C1175 C 0.50112 0.62114 0.93139 0.0
C1176 C 0.49919 0.62411 0.98038 0.0
C1177 C 0.48736 0.63686 0.99631 0.0
C1178 C 0.47728 0.64663 0.9636 0.0
C1179 C 0.47896 0.64364 0.9149 0.0
C1180 C 0.49079 0.63092 0.89879 0.0
C1181 C 0.5083 0.53426 0.83984 0.0
C1182 C 0.50135 0.53687 0.79408 0.0
C1183 C 0.51187 0.54849 0.86782 0.0
C1184 C 0.50908 0.56556 0.84975 0.0
C1185 C 0.50035 0.56805 0.80609 0.0
C1186 C 0.49641 0.55371 0.77841 0.0
C1187 C 0.51763 0.58064 0.87321 0.0
C1188 C 0.50639 0.59397 0.88857 0.0
C1189 C 0.53693 0.58152 0.88147 0.0
C1190 C 0.54972 0.5685 0.8624 0.0
C1191 C 0.55051 0.56536 0.81332 0.0
C1192 C 0.56182 0.55246 0.79586 0.0
C1193 C 0.57259 0.54273 0.82704 0.0
C1194 C 0.57217 0.54596 0.87569 0.0
C1195 C 0.56083 0.55882 0.89337 0.0
H1196 H 0.58128 0.5327 0.81351 0.0
H1197 H 0.46813 0.6565 0.97599 0.0
H1198 H 0.88942 0.40555 0.06162 0.0
H1199 H 0.91801 0.40606 0.01288 0.0
H1200 H 0.89132 0.43463 0.89987 0.0
H1201 H 0.86217 0.43246 0.94606 0.0
H1202 H 0.9162 0.41779 0.86059 0.0
H1203 H 0.91537 0.45509 0.99479 0.0
H1204 H 0.91238 0.46177 0.07986 0.0
H1205 H 0.95797 0.4291 0.11141 0.0
H1206 H 0.96107 0.42207 0.02654 0.0
H1207 H 0.99077 0.48951 0.8322 0.0
H1208 H 0.96876 0.47236 0.88451 0.0
H1209 H 0.98315 0.42541 0.81441 0.0
H1210 H 0.00508 0.44268 0.76074 0.0
H1211 H 0.96749 0.44586 0.94692 0.0
H1212 H 0.94072 0.40204 0.79889 0.0
H1213 H 0.94184 0.40182 0.71085 0.0
H1214 H 0.94779 0.45795 0.70171 0.0
H1215 H 0.94602 0.45854 0.78951 0.0
C1216 C 0.88933 0.41134 0.02571 0.0
C1217 C 0.8735 0.41947 0.00852 0.0
C1218 C 0.90585 0.41182 0.99803 0.0
C1219 C 0.90708 0.42101 0.95344 0.0
C1220 C 0.89089 0.42769 0.93445 0.0
C1221 C 0.87424 0.42672 0.96142 0.0
C1222 C 0.92539 0.42561 0.92911 0.0
C1223 C 0.9275 0.42368 0.87964 0.0
C1224 C 0.9401 0.43367 0.95358 0.0
C1225 C 0.93829 0.43788 0.00454 0.0
C1226 C 0.92468 0.44926 0.01996 0.0
C1227 C 0.92297 0.45311 0.06811 0.0
C1228 C 0.93494 0.44582 0.10105 0.0
C1229 C 0.94868 0.4347 0.08588 0.0
C1230 C 0.95041 0.43077 0.03777 0.0
C1231 C 0.98957 0.47548 0.82842 0.0
C1232 C 0.99942 0.46749 0.79179 0.0
C1233 C 0.97704 0.46566 0.85861 0.0
C1234 C 0.9741 0.44766 0.85283 0.0
C1235 C 0.98506 0.43934 0.81899 0.0
C1236 C 0.99761 0.44921 0.7885 0.0
C1237 C 0.95808 0.43837 0.87852 0.0
C1238 C 0.95641 0.43942 0.9282 0.0
C1239 C 0.9434 0.43044 0.8538 0.0
C1240 C 0.94362 0.43028 0.80084 0.0
C1241 C 0.94217 0.41433 0.77807 0.0
C1242 C 0.94288 0.41415 0.7282 0.0
C1243 C 0.94504 0.42985 0.70071 0.0
C1244 C 0.94628 0.44578 0.72303 0.0
C1245 C 0.94532 0.44605 0.77284 0.0
H1246 H 0.94563 0.42969 0.66213 0.0
H1247 H 0.9336 0.44882 0.13831 0.0
H1248 H 0.11104 0.19699 0.97501 0.0
H1249 H 0.10398 0.17308 0.92254 0.0
H1250 H 0.11691 0.13537 0.03425 0.0
H1251 H 0.12358 0.15899 0.08714 0.0
H1252 H 0.12953 0.12567 0.94574 0.0
H1253 H 0.07319 0.14505 0.01989 0.0
H1254 H 0.05034 0.16678 0.04159 0.0
H1255 H 0.04149 0.17869 0.89321 0.0
H1256 H 0.06453 0.15719 0.87061 0.0
H1257 H 0.07719 0.04998 0.87809 0.0
H1258 H 0.0913 0.07461 0.91875 0.0
H1259 H 0.07392 0.11037 0.80695 0.0
H1260 H 0.05989 0.08582 0.76643 0.0
H1261 H 0.0647 0.12178 0.89196 0.0
H1262 H 0.11975 0.10045 0.81801 0.0
H1263 H 0.14241 0.07838 0.79761 0.0
H1264 H 0.15351 0.06962 0.94603 0.0
H1265 H 0.13071 0.09147 0.96741 0.0
C1266 C 0.11252 0.18362 0.98833 0.0
C1267 C 0.1178 0.17998 0.03548 0.0
C1268 C 0.10854 0.16998 0.95823 0.0
C1269 C 0.10974 0.15245 0.97471 0.0
C1270 C 0.11597 0.14879 0.02075 0.0
C1271 C 0.11987 0.16239 0.05089 0.0
C1272 C 0.10311 0.13789 0.94563 0.0
C1273 C 0.11534 0.12473 0.93416 0.0
C1274 C 0.08466 0.13681 0.93006 0.0
C1275 C 0.07074 0.14967 0.94356 0.0
C1276 C 0.06649 0.15241 0.99188 0.0
C1277 C 0.05349 0.16467 0.00435 0.0
C1278 C 0.04451 0.17415 0.9688 0.0
C1279 C 0.04849 0.17136 0.92071 0.0
C1280 C 0.06151 0.15914 0.90804 0.0
C1281 C 0.07661 0.06308 0.86197 0.0
C1282 C 0.06723 0.06604 0.81944 0.0
C1283 C 0.08469 0.07714 0.88515 0.0
C1284 C 0.08372 0.09436 0.86583 0.0
C1285 C 0.07475 0.09723 0.82271 0.0
C1286 C 0.06665 0.08322 0.79971 0.0
C1287 C 0.09113 0.1095 0.89169 0.0
C1288 C 0.07898 0.12276 0.90291 0.0
C1289 C 0.10963 0.1106 0.90708 0.0
C1290 C 0.12339 0.09749 0.89433 0.0
C1291 C 0.12691 0.09372 0.84634 0.0
C1292 C 0.1398 0.08127 0.83459 0.0
C1293 C 0.14936 0.07257 0.87051 0.0
C1294 C 0.14608 0.07635 0.91825 0.0
C1295 C 0.13319 0.08878 0.9302 0.0
H1296 H 0.15933 0.06294 0.86134 0.0
H1297 H 0.03444 0.18363 0.97852 0.0
H1298 H 0.32147 0.99978 0.954 0.0
H1299 H 0.348 0.00011 0.89687 0.0
H1300 H 0.38408 0.01864 0.00491 0.0
H1301 H 0.35774 0.0185 0.06169 0.0
H1302 H 0.39391 0.03475 0.9238 0.0
H1303 H 0.38053 0.9747 0.97631 0.0
H1304 H 0.36102 0.94762 0.98986 0.0
H1305 H 0.35258 0.94594 0.83931 0.0
H1306 H 0.37185 0.97316 0.82496 0.0
H1307 H 0.47189 0.97921 0.8146 0.0
H1308 H 0.4434 0.98187 0.86287 0.0
H1309 H 0.43019 0.02777 0.77743 0.0
H1310 H 0.45898 0.02543 0.72963 0.0
H1311 H 0.40823 0.97999 0.84429 0.0
H1312 H 0.40592 0.05538 0.84627 0.0
H1313 H 0.42749 0.08129 0.84075 0.0
H1314 H 0.47098 0.05023 0.89614 0.0
H1315 H 0.44961 0.02421 0.90254 0.0
C1316 C 0.33504 0.00401 0.96546 0.0
C1317 C 0.33741 0.00914 0.01249 0.0
C1318 C 0.35022 0.00418 0.93278 0.0
C1319 C 0.36816 0.0092 0.94662 0.0
C1320 C 0.37043 0.01478 0.99313 0.0
C1321 C 0.35528 0.01475 0.02562 0.0
C1322 C 0.38474 0.00808 0.91363 0.0
C1323 C 0.39695 0.0228 0.90618 0.0
C1324 C 0.38899 0.99244 0.8911 0.0
C1325 C 0.37745 0.97606 0.89963 0.0
C1326 C 0.3744 0.96862 0.94615 0.0
C1327 C 0.3634 0.95324 0.95396 0.0
C1328 C 0.35552 0.94509 0.91549 0.0
C1329 C 0.35866 0.95229 0.86909 0.0
C1330 C 0.36962 0.96768 0.86109 0.0
C1331 C 0.46298 0.98994 0.80614 0.0
C1332 C 0.46783 0.0022 0.76846 0.0
C1333 C 0.44662 0.99139 0.83369 0.0
C1334 C 0.43465 0.0051 0.82421 0.0
C1335 C 0.43931 0.01724 0.78611 0.0
C1336 C 0.45579 0.01588 0.75874 0.0
C1337 C 0.41741 0.00665 0.85454 0.0
C1338 C 0.40507 0.99201 0.86143 0.0
C1339 C 0.4133 0.02222 0.87755 0.0
C1340 C 0.42622 0.03782 0.87433 0.0
C1341 C 0.42007 0.0541 0.85738 0.0
C1342 C 0.43226 0.0688 0.85409 0.0
C1343 C 0.45061 0.06739 0.86792 0.0
C1344 C 0.45678 0.05129 0.88525 0.0
C1345 C 0.44464 0.03656 0.88867 0.0
H1346 H 0.46003 0.07878 0.86531 0.0
H1347 H 0.34702 0.93318 0.92161 0.0
H1348 H 0.4735 0.31839 0.9281 0.0
H1349 H 0.47617 0.3445 0.87432 0.0
H1350 H 0.43259 0.36791 0.95555 0.0
H1351 H 0.43056 0.34248 0.01095 0.0
H1352 H 0.45565 0.36508 0.81616 0.0
H1353 H 0.44586 0.40952 0.97527 0.0
H1354 H 0.44864 0.4082 0.06282 0.0
H1355 H 0.48937 0.3689 0.05154 0.0
H1356 H 0.48704 0.3702 0.96395 0.0
H1357 H 0.46223 0.45577 0.72964 0.0
H1358 H 0.45075 0.42801 0.76984 0.0
H1359 H 0.50163 0.42513 0.846 0.0
H1360 H 0.513 0.45264 0.80684 0.0
H1361 H 0.47267 0.41777 0.90451 0.0
H1362 H 0.49434 0.40086 0.74995 0.0
H1363 H 0.49547 0.40169 0.66187 0.0
H1364 H 0.43798 0.38482 0.66232 0.0
H1365 H 0.43642 0.38414 0.75045 0.0
C1366 C 0.46436 0.32902 0.93435 0.0
C1367 C 0.45209 0.32838 0.97465 0.0
C1368 C 0.46575 0.34387 0.90315 0.0
C1369 C 0.45484 0.35831 0.91147 0.0
C1370 C 0.44135 0.35702 0.94884 0.0
C1371 C 0.4401 0.34231 0.98035 0.0
C1372 C 0.45928 0.37543 0.88554 0.0
C1373 C 0.45921 0.37665 0.8354 0.0
C1374 C 0.46432 0.39046 0.91057 0.0
C1375 C 0.46609 0.38981 0.96316 0.0
C1376 C 0.45545 0.40065 0.99151 0.0
C1377 C 0.45695 0.3999 0.04112 0.0
C1378 C 0.46912 0.38843 0.06274 0.0
C1379 C 0.4799 0.37774 0.03477 0.0
C1380 C 0.47849 0.37847 0.98515 0.0
C1381 C 0.47087 0.44925 0.75525 0.0
C1382 C 0.48852 0.45642 0.76503 0.0
C1383 C 0.46436 0.43335 0.77791 0.0
C1384 C 0.4754 0.42444 0.81068 0.0
C1385 C 0.49285 0.43177 0.82092 0.0
C1386 C 0.49935 0.44752 0.79836 0.0
C1387 C 0.46899 0.40753 0.83505 0.0
C1388 C 0.46876 0.40632 0.88511 0.0
C1389 C 0.46422 0.39248 0.80976 0.0
C1390 C 0.46519 0.39269 0.7568 0.0
C1391 C 0.48189 0.39747 0.73127 0.0
C1392 C 0.48262 0.39789 0.68134 0.0
C1393 C 0.46678 0.39343 0.65654 0.0
C1394 C 0.45022 0.38836 0.68161 0.0
C1395 C 0.4494 0.38795 0.73154 0.0
H1396 H 0.46734 0.39386 0.61791 0.0
H1397 H 0.47023 0.38784 0.10116 0.0
H1398 H 0.21492 0.53089 0.93087 0.0
H1399 H 0.19019 0.51931 0.88157 0.0
H1400 H 0.15635 0.56252 0.91688 0.0
H1401 H 0.18052 0.57385 0.9667 0.0
H1402 H 0.13816 0.53078 0.93407 0.0
H1403 H 0.17624 0.56061 0.80724 0.0
H1404 H 0.2051 0.56661 0.75858 0.0
H1405 H 0.20453 0.5131 0.71834 0.0
H1406 H 0.17577 0.50673 0.76731 0.0
H1407 H 0.06405 0.53306 0.7818 0.0
H1408 H 0.09274 0.53927 0.82228 0.0
H1409 H 0.11652 0.49329 0.76574 0.0
H1410 H 0.08776 0.48704 0.72422 0.0
H1411 H 0.14136 0.52139 0.76021 0.0
H1412 H 0.10191 0.49205 0.88017 0.0
H1413 H 0.07303 0.48569 0.92848 0.0
H1414 H 0.0765 0.53724 0.98284 0.0
H1415 H 0.10526 0.54401 0.93431 0.0
C1416 C 0.20228 0.538 0.92765 0.0
C1417 C 0.19977 0.55334 0.95263 0.0
C1418 C 0.18822 0.53142 0.89934 0.0
C1419 C 0.17144 0.54006 0.8957 0.0
C1420 C 0.16919 0.55564 0.91926 0.0
C1421 C 0.18316 0.56222 0.94732 0.0
C1422 C 0.15561 0.53251 0.87005 0.0
C1423 C 0.13883 0.52883 0.89598 0.0
C1424 C 0.15672 0.52931 0.82079 0.0
C1425 C 0.17399 0.53315 0.79141 0.0
C1426 C 0.18236 0.55009 0.78839 0.0
C1427 C 0.19868 0.55356 0.76066 0.0
C1428 C 0.20668 0.54023 0.73552 0.0
C1429 C 0.19834 0.52341 0.73792 0.0
C1430 C 0.18203 0.51986 0.76563 0.0
C1431 C 0.07533 0.52421 0.77792 0.0
C1432 C 0.07355 0.50947 0.75005 0.0
C1433 C 0.09173 0.52777 0.80121 0.0
C1434 C 0.10667 0.5166 0.79759 0.0
C1435 C 0.10512 0.50203 0.76913 0.0
C1436 C 0.08866 0.49845 0.74563 0.0
C1437 C 0.12375 0.52029 0.82399 0.0
C1438 C 0.14076 0.52312 0.79839 0.0
C1439 C 0.12293 0.52263 0.87374 0.0
C1440 C 0.10569 0.51857 0.90333 0.0
C1441 C 0.09645 0.50207 0.90217 0.0
C1442 C 0.08011 0.49839 0.92964 0.0
C1443 C 0.07292 0.51106 0.95865 0.0
C1444 C 0.08208 0.52743 0.96034 0.0
C1445 C 0.09842 0.5312 0.93291 0.0
H1446 H 0.06026 0.50818 0.97988 0.0
H1447 H 0.21931 0.54295 0.71406 0.0
H1448 H 0.90745 0.82672 0.31573 0.0
H1449 H 0.91578 0.85171 0.36233 0.0
H1450 H 0.94354 0.81785 0.46168 0.0
H1451 H 0.93474 0.79247 0.4158 0.0
H1452 H 0.92461 0.84462 0.50598 0.0
H1453 H 0.96837 0.8385 0.3748 0.0
H1454 H 0.97754 0.83522 0.2903 0.0
H1455 H 0.95382 0.88438 0.2524 0.0
H1456 H 0.94424 0.88782 0.33663 0.0
H1457 H 0.98425 0.90829 0.60288 0.0
H1458 H 0.97141 0.88283 0.5641 0.0
H1459 H 0.94941 0.91684 0.45464 0.0
H1460 H 0.96255 0.94244 0.49307 0.0
H1461 H 0.96461 0.88991 0.41598 0.0
H1462 H 0.92132 0.8967 0.54638 0.0
H1463 H 0.91143 0.90007 0.63035 0.0
H1464 H 0.93336 0.85021 0.66945 0.0
H1465 H 0.94361 0.84664 0.58578 0.0
C1466 C 0.91478 0.82439 0.34833 0.0
C1467 C 0.92045 0.80752 0.36191 0.0
C1468 C 0.91972 0.83878 0.37465 0.0
C1469 C 0.93056 0.83667 0.41491 0.0
C1470 C 0.93526 0.81975 0.43048 0.0
C1471 C 0.9303 0.80529 0.40411 0.0
C1472 C 0.93814 0.85227 0.43831 0.0
C1473 C 0.93353 0.85444 0.48656 0.0
C1474 C 0.94944 0.86525 0.41254 0.0
C1475 C 0.95543 0.86333 0.36196 0.0
C1476 C 0.965 0.84855 0.3484 0.0
C1477 C 0.97028 0.84667 0.30056 0.0
C1478 C 0.96622 0.85956 0.26598 0.0
C1479 C 0.95693 0.87439 0.27921 0.0
C1480 C 0.95158 0.87632 0.32701 0.0
C1481 C 0.97656 0.91035 0.57072 0.0
C1482 C 0.97426 0.92737 0.55123 0.0
C1483 C 0.96919 0.89579 0.54863 0.0
C1484 C 0.95912 0.89791 0.50694 0.0
C1485 C 0.95706 0.91488 0.4869 0.0
C1486 C 0.9646 0.92948 0.50879 0.0
C1487 C 0.95105 0.88239 0.48384 0.0
C1488 C 0.95563 0.88018 0.43554 0.0
C1489 C 0.93965 0.86943 0.50957 0.0
C1490 C 0.93338 0.87148 0.55987 0.0
C1491 C 0.92415 0.88651 0.57294 0.0
C1492 C 0.91846 0.88845 0.62047 0.0
C1493 C 0.9218 0.87538 0.65523 0.0
C1494 C 0.9308 0.86033 0.6425 0.0
C1495 C 0.93653 0.85833 0.59501 0.0
H1496 H 0.91739 0.87691 0.69202 0.0
H1497 H 0.97032 0.85808 0.22895 0.0
H1498 H 0.68515 0.0168 0.33037 0.0
H1499 H 0.65849 0.01418 0.3861 0.0
H1500 H 0.67944 0.96681 0.44961 0.0
H1501 H 0.70651 0.96944 0.39388 0.0
H1502 H 0.64238 0.96321 0.43474 0.0
H1503 H 0.68196 0.00454 0.50861 0.0
H1504 H 0.70243 0.03094 0.51295 0.0
H1505 H 0.6575 0.0634 0.47413 0.0
H1506 H 0.63682 0.03717 0.46889 0.0
H1507 H 0.57313 0.96402 0.62673 0.0
H1508 H 0.60243 0.9631 0.57994 0.0
H1509 H 0.59001 0.01141 0.50443 0.0
H1510 H 0.56099 0.01254 0.55113 0.0
H1511 H 0.62482 0.01274 0.53285 0.0
H1512 H 0.58609 0.97131 0.45276 0.0
H1513 H 0.56562 0.94494 0.44759 0.0
H1514 H 0.60897 0.91271 0.49841 0.0
H1515 H 0.62963 0.93893 0.50447 0.0
C1516 C 0.68438 0.00598 0.35673 0.0
C1517 C 0.69823 0.99347 0.35789 0.0
C1518 C 0.669 0.00445 0.38853 0.0
C1519 C 0.66702 0.99042 0.4226 0.0
C1520 C 0.68067 0.97778 0.42373 0.0
C1521 C 0.69614 0.9793 0.3918 0.0
C1522 C 0.6505 0.98899 0.45624 0.0
C1523 C 0.63872 0.97391 0.45689 0.0
C1524 C 0.64551 0.00303 0.48466 0.0
C1525 C 0.65788 0.01886 0.48802 0.0
C1526 C 0.67648 0.01729 0.50067 0.0
C1527 C 0.68811 0.03223 0.50334 0.0
C1528 C 0.68128 0.04883 0.49373 0.0
C1529 C 0.66278 0.05053 0.48154 0.0
C1530 C 0.65109 0.03563 0.47877 0.0
C1531 C 0.57658 0.97437 0.59989 0.0
C1532 C 0.56467 0.98835 0.59277 0.0
C1533 C 0.59333 0.97381 0.57308 0.0
C1534 C 0.59846 0.98716 0.53845 0.0
C1535 C 0.58646 0.00099 0.53101 0.0
C1536 C 0.56978 0.00157 0.55771 0.0
C1537 C 0.61646 0.98714 0.51054 0.0
C1538 C 0.62855 0.00196 0.51108 0.0
C1539 C 0.62171 0.97286 0.48329 0.0
C1540 C 0.60932 0.9571 0.4796 0.0
C1541 C 0.5912 0.95861 0.46321 0.0
C1542 C 0.57958 0.94369 0.46005 0.0
C1543 C 0.58597 0.92717 0.47281 0.0
C1544 C 0.60402 0.92552 0.48863 0.0
C1545 C 0.6157 0.94041 0.49191 0.0
H1546 H 0.57695 0.91563 0.47032 0.0
H1547 H 0.69032 0.06038 0.49581 0.0
H1548 H 0.61162 0.66585 0.41204 0.0
H1549 H 0.60557 0.64176 0.47171 0.0
H1550 H 0.54661 0.64679 0.45733 0.0
H1551 H 0.55252 0.67077 0.39775 0.0
H1552 H 0.55468 0.63856 0.54937 0.0
H1553 H 0.57026 0.61795 0.39277 0.0
H1554 H 0.59024 0.61587 0.32029 0.0
H1555 H 0.63375 0.5956 0.40516 0.0
H1556 H 0.61409 0.59781 0.47827 0.0
H1557 H 0.51312 0.55476 0.59172 0.0
H1558 H 0.52597 0.58223 0.55477 0.0
H1559 H 0.58073 0.56893 0.59784 0.0
H1560 H 0.56791 0.54126 0.63563 0.0
H1561 H 0.57904 0.58189 0.50117 0.0
H1562 H 0.56095 0.59825 0.65696 0.0
H1563 H 0.53992 0.59929 0.72784 0.0
H1564 H 0.50053 0.62682 0.64437 0.0
H1565 H 0.52119 0.62571 0.57273 0.0
C1566 C 0.59736 0.66199 0.42212 0.0
C1567 C 0.58256 0.67014 0.39975 0.0
C1568 C 0.59393 0.64823 0.45625 0.0
C1569 C 0.57563 0.64227 0.46838 0.0
C1570 C 0.56084 0.65116 0.44855 0.0
C1571 C 0.56425 0.66494 0.41455 0.0
C1572 C 0.5718 0.62584 0.49805 0.0
C1573 C 0.55999 0.62618 0.53883 0.0
C1574 C 0.57905 0.6097 0.48492 0.0
C1575 C 0.59081 0.60825 0.441 0.0
C1576 C 0.58414 0.61317 0.39599 0.0
C1577 C 0.59539 0.61196 0.3548 0.0
C1578 C 0.61327 0.60566 0.35813 0.0
C1579 C 0.61991 0.60051 0.40265 0.0
C1580 C 0.60872 0.60175 0.44397 0.0
C1581 C 0.52792 0.55758 0.5933 0.0
C1582 C 0.53949 0.54579 0.61665 0.0
C1583 C 0.53522 0.57336 0.57235 0.0
C1584 C 0.55425 0.57769 0.57406 0.0
C1585 C 0.56598 0.56583 0.59637 0.0
C1586 C 0.55863 0.55005 0.61789 0.0
C1587 C 0.56168 0.5946 0.55187 0.0
C1588 C 0.57409 0.59434 0.51238 0.0
C1589 C 0.55493 0.61076 0.56613 0.0
C1590 C 0.54259 0.6118 0.60934 0.0
C1591 C 0.54775 0.60443 0.65361 0.0
C1592 C 0.5359 0.60504 0.69395 0.0
C1593 C 0.51888 0.61308 0.69059 0.0
C1594 C 0.51372 0.62059 0.64691 0.0
C1595 C 0.52551 0.62 0.60642 0.0
H1596 H 0.50972 0.61351 0.72186 0.0
H1597 H 0.62197 0.60472 0.3262 0.0
H1598 H 0.84694 0.48463 0.37615 0.0
H1599 H 0.87041 0.49287 0.43189 0.0
H1600 H 0.87231 0.4391 0.48439 0.0
H1601 H 0.84758 0.43091 0.4315 0.0
H1602 H 0.87815 0.45912 0.55469 0.0
H1603 H 0.90355 0.45755 0.39534 0.0
H1604 H 0.9061 0.46477 0.30872 0.0
H1605 H 0.91544 0.51916 0.33557 0.0
H1606 H 0.91269 0.51229 0.42239 0.0
H1607 H 0.97552 0.46299 0.61329 0.0
H1608 H 0.94584 0.45651 0.57634 0.0
H1609 H 0.93466 0.51153 0.56916 0.0
H1610 H 0.96407 0.51808 0.60756 0.0
H1611 H 0.93318 0.4916 0.47891 0.0
H1612 H 0.90992 0.4909 0.64206 0.0
H1613 H 0.90795 0.48161 0.72745 0.0
H1614 H 0.89665 0.42842 0.6913 0.0
H1615 H 0.89888 0.43733 0.60559 0.0
C1616 C 0.85181 0.47457 0.4005 0.0
C1617 C 0.84542 0.45699 0.39854 0.0
C1618 C 0.86553 0.4793 0.43197 0.0
C1619 C 0.87361 0.46653 0.46128 0.0
C1620 C 0.86649 0.44918 0.46168 0.0
C1621 C 0.85247 0.44448 0.43087 0.0
C1622 C 0.89019 0.47106 0.48913 0.0
C1623 C 0.89024 0.46608 0.53798 0.0
C1624 C 0.90598 0.48025 0.46753 0.0
C1625 C 0.90772 0.48443 0.41534 0.0
C1626 C 0.90602 0.47106 0.38276 0.0
C1627 C 0.90751 0.47509 0.33363 0.0
C1628 C 0.91088 0.49242 0.31665 0.0
C1629 C 0.9128 0.50575 0.34877 0.0
C1630 C 0.91129 0.5018 0.39794 0.0
C1631 C 0.9667 0.4737 0.60395 0.0
C1632 C 0.97213 0.49106 0.61285 0.0
C1633 C 0.94972 0.46996 0.58324 0.0
C1634 C 0.9381 0.48354 0.57028 0.0
C1635 C 0.94345 0.50088 0.57921 0.0
C1636 C 0.96022 0.5046 0.601 0.0
C1637 C 0.92103 0.47976 0.54422 0.0
C1638 C 0.921 0.48476 0.49558 0.0
C1639 C 0.90552 0.47025 0.56581 0.0
C1640 C 0.90473 0.46478 0.61732 0.0
C1641 C 0.90725 0.47719 0.65225 0.0
C1642 C 0.90598 0.47201 0.70074 0.0
C1643 C 0.90207 0.45446 0.71479 0.0
C1644 C 0.89956 0.44203 0.68036 0.0
C1645 C 0.90085 0.44714 0.63183 0.0
H1646 H 0.90111 0.45046 0.75234 0.0
H1647 H 0.91204 0.49551 0.27861 0.0
loop_
_geom_bond_atom_site_label_1
_geom_bond_atom_site_label_2
_geom_bond_distance
_geom_bond_site_symmetry_2
_ccdc_geom_bond_type
C0 C1 1.386 . S
C0 C2 1.397 1_556 S
C0 H24 0.931 . S
C1 C0 1.386 . S
C1 C5 1.397 1_556 S
C2 C0 1.397 1_554 S
C2 C3 1.384 . S
C2 H25 0.930 1_554 S
C3 C2 1.384 . S
C3 C4 1.377 . S
C3 C6 1.481 . S
C4 C3 1.377 . S
C4 C5 1.389 . S
C4 H26 0.929 . S
C5 C1 1.397 1_554 S
C5 C4 1.389 . S
C5 H27 0.931 . S
C6 C3 1.481 . S
C6 C7 1.387 . S
C6 C11 1.390 . S
C7 C6 1.387 . S
C7 C8 1.401 . S
C7 H28 0.930 . S
C8 C7 1.401 . S
C8 C9 1.376 . S
C8 C17 1.511 . S
C9 C8 1.376 . S
C9 C10 1.392 . S
C9 H30 0.931 . S
C10 C9 1.392 . S
C10 C11 1.361 . S
C10 C12 1.500 . S
C11 C6 1.390 . S
C11 C10 1.361 . S
C11 H29 0.931 . S
C12 C10 1.500 . S
C12 C13 1.371 . S
C12 C14 1.365 . S
C13 C12 1.371 . S
C13 C23 1.386 . S
C13 H31 0.931 . S
C14 C12 1.365 . S
C14 C15 1.409 . S
C14 H32 0.929 . S
C15 C14 1.409 . S
C15 C16 1.380 . S
C15 H33 0.930 . S
C16 C15 1.380 . S
C16 C23 1.357 . S
C17 C8 1.511 . S
C17 C18 1.341 . S
C17 C19 1.371 . S
C18 C17 1.341 . S
C18 C22 1.394 . S
C18 H34 0.930 . S
C19 C17 1.371 . S
C19 C20 1.392 . S
C19 H35 0.931 . S
C20 C19 1.392 . S
C20 C21 1.331 . S
C20 H38 0.932 . S
C21 C20 1.331 . S
C21 C22 1.336 . S
C22 C18 1.394 . S
C22 C21 1.336 . S
C22 H37 0.929 . S
C23 C13 1.386 . S
C23 C16 1.357 . S
C23 H36 0.928 . S
H24 C0 0.931 . S
H25 C2 0.930 1_556 S
H26 C4 0.929 . S
H27 C5 0.931 . S
H28 C7 0.930 . S
H29 C11 0.931 . S
H30 C9 0.931 . S
H31 C13 0.931 . S
H32 C14 0.929 . S
H33 C15 0.930 . S
H34 C18 0.930 . S
H35 C19 0.931 . S
H36 C23 0.928 . S
H37 C22 0.929 . S
H38 C20 0.932 . S
C39 C40 1.386 . S
C39 C41 1.397 . S
C39 H63 0.931 . S
C40 C39 1.386 . S
C40 C44 1.397 . S
C41 C39 1.397 . S
C41 C42 1.384 . S
C41 H64 0.930 . S
C42 C41 1.384 . S
C42 C43 1.377 . S
C42 C45 1.481 . S
C43 C42 1.377 . S
C43 C44 1.389 . S
C43 H65 0.929 . S
C44 C40 1.397 . S
C44 C43 1.389 . S
C44 H66 0.931 . S
C45 C42 1.481 . S
C45 C46 1.387 . S
C45 C50 1.390 1_556 S
C46 C45 1.387 . S
C46 C47 1.401 . S
C46 H67 0.930 . S
C47 C46 1.401 . S
C47 C48 1.376 1_556 S
C47 C56 1.511 . S
C48 C47 1.376 1_554 S
C48 C49 1.392 . S
C48 H69 0.931 . S
C49 C48 1.392 . S
C49 C50 1.361 . S
C49 C51 1.500 . S
C50 C45 1.390 1_554 S
C50 C49 1.361 . S
C50 H68 0.931 . S
C51 C49 1.500 . S
C51 C52 1.371 . S
C51 C53 1.365 . S
C52 C51 1.371 . S
C52 C62 1.386 . S
C52 H70 0.931 . S
C53 C51 1.365 . S
C53 C54 1.409 . S
C53 H71 0.929 . S
C54 C53 1.409 . S
C54 C55 1.380 . S
C54 H72 0.930 . S
C55 C54 1.380 . S
C55 C62 1.357 . S
C56 C47 1.511 . S
C56 C57 1.341 . S
C56 C58 1.371 1_556 S
C57 C56 1.341 . S
C57 C61 1.394 . S
C57 H73 0.930 . S
C58 C56 1.371 1_554 S
C58 C59 1.392 . S
C58 H74 0.931 . S
C59 C58 1.392 . S
C59 C60 1.331 1_554 S
C59 H77 0.932 . S
C60 C59 1.331 1_556 S
C60 C61 1.336 . S
C61 C57 1.394 . S
C61 C60 1.336 . S
C61 H76 0.929 . S
C62 C52 1.386 . S
C62 C55 1.357 . S
C62 H75 0.928 . S
H63 C39 0.931 . S
H64 C41 0.930 . S
H65 C43 0.929 . S
H66 C44 0.931 . S
H67 C46 0.930 . S
H68 C50 0.931 . S
H69 C48 0.931 . S
H70 C52 0.931 . S
H71 C53 0.929 . S
H72 C54 0.930 . S
H73 C57 0.930 . S
H74 C58 0.931 . S
H75 C62 0.928 . S
H76 C61 0.929 . S
H77 C59 0.932 . S
C78 C79 1.395 . S
C78 C80 1.397 . S
C78 H102 0.931 . S
C79 C78 1.395 . S
C79 C83 1.388 1_565 S
C80 C78 1.397 . S
C80 C81 1.402 . S
C80 H103 0.930 . S
C81 C80 1.402 . S
C81 C82 1.371 1_566 S
C81 C84 1.469 1_556 S
C82 C81 1.371 1_544 S
C82 C83 1.389 1_554 S
C82 H104 0.929 . S
C83 C79 1.388 1_545 S
C83 C82 1.389 1_556 S
C83 H105 0.931 . S
C84 C81 1.469 1_554 S
C84 C85 1.390 . S
C84 C89 1.389 . S
C85 C84 1.390 . S
C85 C86 1.402 . S
C85 H106 0.930 1_554 S
C86 C85 1.402 . S
C86 C87 1.377 . S
C86 C95 1.514 . S
C87 C86 1.377 . S
C87 C88 1.389 . S
C87 H108 0.934 . S
C88 C87 1.389 . S
C88 C89 1.361 . S
C88 C90 1.498 1_565 S
C89 C84 1.389 . S
C89 C88 1.361 . S
C89 H107 0.931 . S
C90 C88 1.498 1_545 S
C90 C91 1.364 1_545 S
C90 C92 1.374 . S
C91 C90 1.364 1_565 S
C91 C101 1.386 . S
C91 H109 0.931 . S
C92 C90 1.374 . S
C92 C93 1.409 . S
C92 H110 0.929 . S
C93 C92 1.409 . S
C93 C94 1.378 . S
C93 H111 0.930 . S
C94 C93 1.378 . S
C94 C101 1.360 1_545 S
C95 C86 1.514 . S
C95 C96 1.341 . S
C95 C97 1.371 1_565 S
C96 C95 1.341 . S
C96 C100 1.394 1_554 S
C96 H112 0.930 1_554 S
C97 C95 1.371 1_545 S
C97 C98 1.392 . S
C97 H113 0.931 . S
C98 C97 1.392 . S
C98 C99 1.321 1_545 S
C98 H116 0.932 . S
C99 C98 1.321 1_565 S
C99 C100 1.345 1_554 S
C100 C96 1.394 1_556 S
C100 C99 1.345 1_556 S
C100 H115 0.929 . S
C101 C91 1.386 . S
C101 C94 1.360 1_565 S
C101 H114 0.928 . S
H102 C78 0.931 . S
H103 C80 0.930 . S
H104 C82 0.929 . S
H105 C83 0.931 . S
H106 C85 0.930 1_556 S
H107 C89 0.931 . S
H108 C87 0.934 . S
H109 C91 0.931 . S
H110 C92 0.929 . S
H111 C93 0.930 . S
H112 C96 0.930 1_556 S
H113 C97 0.931 . S
H114 C101 0.928 . S
H115 C100 0.929 . S
H116 C98 0.932 . S
C117 C118 1.386 . S
C117 C119 1.397 . S
C117 H141 0.931 . S
C118 C117 1.386 . S
C118 C122 1.397 . S
C119 C117 1.397 . S
C119 C120 1.384 . S
C119 H142 0.930 . S
C120 C119 1.384 . S
C120 C121 1.377 . S
C120 C123 1.481 . S
C121 C120 1.377 . S
C121 C122 1.389 . S
C121 H143 0.929 . S
C122 C118 1.397 . S
C122 C121 1.389 . S
C122 H144 0.931 . S
C123 C120 1.481 . S
C123 C124 1.387 . S
C123 C128 1.390 . S
C124 C123 1.387 . S
C124 C125 1.401 . S
C124 H145 0.930 . S
C125 C124 1.401 . S
C125 C126 1.376 . S
C125 C134 1.511 . S
C126 C125 1.376 . S
C126 C127 1.392 . S
C126 H147 0.928 1_554 S
C127 C126 1.392 . S
C127 C128 1.361 . S
C127 C129 1.500 . S
C128 C123 1.390 . S
C128 C127 1.361 . S
C128 H146 0.931 . S
C129 C127 1.500 . S
C129 C130 1.371 1_554 S
C129 C131 1.365 . S
C130 C129 1.371 1_556 S
C130 C140 1.386 . S
C130 H148 0.931 . S
C131 C129 1.365 . S
C131 C132 1.409 1_554 S
C131 H149 0.929 . S
C132 C131 1.409 1_556 S
C132 C133 1.380 . S
C132 H150 0.930 . S
C133 C132 1.380 . S
C133 C140 1.357 . S
C134 C125 1.511 . S
C134 C135 1.341 . S
C134 C136 1.371 . S
C135 C134 1.341 . S
C135 C139 1.394 . S
C135 H151 0.930 . S
C136 C134 1.371 . S
C136 C137 1.392 1_554 S
C136 H152 0.931 1_554 S
C137 C136 1.392 1_556 S
C137 C138 1.331 1_556 S
C137 H155 0.932 . S
C138 C137 1.331 1_554 S
C138 C139 1.336 . S
C139 C135 1.394 . S
C139 C138 1.336 . S
C139 H154 0.929 . S
C140 C130 1.386 . S
C140 C133 1.357 . S
C140 H153 0.928 . S
H141 C117 0.931 . S
H142 C119 0.930 . S
H143 C121 0.929 . S
H144 C122 0.931 . S
H145 C124 0.930 . S
H146 C128 0.931 . S
H147 C126 0.928 1_556 S
H148 C130 0.931 . S
H149 C131 0.929 . S
H150 C132 0.930 . S
H151 C135 0.930 . S
H152 C136 0.931 1_556 S
H153 C140 0.928 . S
H154 C139 0.929 . S
H155 C137 0.932 . S
C156 C157 1.386 . S
C156 C158 1.397 . S
C156 H180 0.931 . S
C157 C156 1.386 . S
C157 C161 1.397 . S
C158 C156 1.397 . S
C158 C159 1.384 . S
C158 H181 0.930 . S
C159 C158 1.384 . S
C159 C160 1.377 . S
C159 C162 1.481 . S
C160 C159 1.377 . S
C160 C161 1.389 . S
C160 H182 0.929 . S
C161 C157 1.397 . S
C161 C160 1.389 . S
C161 H183 0.931 . S
C162 C159 1.481 . S
C162 C163 1.387 . S
C162 C167 1.390 . S
C163 C162 1.387 . S
C163 C164 1.401 . S
C163 H184 0.930 . S
C164 C163 1.401 . S
C164 C165 1.376 . S
C164 C173 1.511 . S
C165 C164 1.376 . S
C165 C166 1.392 . S
C165 H186 0.931 . S
C166 C165 1.392 . S
C166 C167 1.361 . S
C166 C168 1.500 . S
C167 C162 1.390 . S
C167 C166 1.361 . S
C167 H185 0.931 . S
C168 C166 1.500 . S
C168 C169 1.371 . S
C168 C170 1.365 . S
C169 C168 1.371 . S
C169 C179 1.386 . S
C169 H187 0.931 . S
C170 C168 1.365 . S
C170 C171 1.409 . S
C170 H188 0.929 . S
C171 C170 1.409 . S
C171 C172 1.380 . S
C171 H189 0.930 . S
C172 C171 1.380 . S
C172 C179 1.357 . S
C173 C164 1.511 . S
C173 C174 1.341 . S
C173 C175 1.371 . S
C174 C173 1.341 . S
C174 C178 1.394 . S
C174 H190 0.930 . S
C175 C173 1.371 . S
C175 C176 1.392 . S
C175 H191 0.931 . S
C176 C175 1.392 . S
C176 C177 1.331 . S
C176 H194 0.932 . S
C177 C176 1.331 . S
C177 C178 1.336 . S
C178 C174 1.394 . S
C178 C177 1.336 . S
C178 H193 0.929 . S
C179 C169 1.386 . S
C179 C172 1.357 . S
C179 H192 0.928 . S
H180 C156 0.931 . S
H181 C158 0.930 . S
H182 C160 0.929 . S
H183 C161 0.931 . S
H184 C163 0.930 . S
H185 C167 0.931 . S
H186 C165 0.931 . S
H187 C169 0.931 . S
H188 C170 0.929 . S
H189 C171 0.930 . S
H190 C174 0.930 . S
H191 C175 0.931 . S
H192 C179 0.928 . S
H193 C178 0.929 . S
H194 C176 0.932 . S
C195 C196 1.386 . S
C195 C197 1.397 . S
C195 H219 0.931 . S
C196 C195 1.386 . S
C196 C200 1.397 . S
C197 C195 1.397 . S
C197 C198 1.384 . S
C197 H220 0.930 . S
C198 C197 1.384 . S
C198 C199 1.377 . S
C198 C201 1.481 . S
C199 C198 1.377 . S
C199 C200 1.389 . S
C199 H221 0.929 . S
C200 C196 1.397 . S
C200 C199 1.389 . S
C200 H222 0.931 . S
C201 C198 1.481 . S
C201 C202 1.387 . S
C201 C206 1.390 . S
C202 C201 1.387 . S
C202 C203 1.401 . S
C202 H223 0.930 . S
C203 C202 1.401 . S
C203 C204 1.376 . S
C203 C212 1.511 . S
C204 C203 1.376 . S
C204 C205 1.392 . S
C204 H225 0.931 . S
C205 C204 1.392 . S
C205 C206 1.361 . S
C205 C207 1.500 . S
C206 C201 1.390 . S
C206 C205 1.361 . S
C206 H224 0.931 . S
C207 C205 1.500 . S
C207 C208 1.371 . S
C207 C209 1.365 . S
C208 C207 1.371 . S
C208 C218 1.386 . S
C208 H226 0.931 . S
C209 C207 1.365 . S
C209 C210 1.409 . S
C209 H227 0.929 . S
C210 C209 1.409 . S
C210 C211 1.380 . S
C210 H228 0.930 . S
C211 C210 1.380 . S
C211 C218 1.357 . S
C212 C203 1.511 . S
C212 C213 1.341 . S
C212 C214 1.371 . S
C213 C212 1.341 . S
C213 C217 1.394 . S
C213 H229 0.930 . S
C214 C212 1.371 . S
C214 C215 1.392 . S
C214 H230 0.931 . S
C215 C214 1.392 . S
C215 C216 1.331 . S
C215 H233 0.932 . S
C216 C215 1.331 . S
C216 C217 1.336 . S
C217 C213 1.394 . S
C217 C216 1.336 . S
C217 H232 0.929 . S
C218 C208 1.386 . S
C218 C211 1.357 . S
C218 H231 0.928 . S
H219 C195 0.931 . S
H220 C197 0.930 . S
H221 C199 0.929 . S
H222 C200 0.931 . S
H223 C202 0.930 . S
H224 C206 0.931 . S
H225 C204 0.931 . S
H226 C208 0.931 . S
H227 C209 0.929 . S
H228 C210 0.930 . S
H229 C213 0.930 . S
H230 C214 0.931 . S
H231 C218 0.928 . S
H232 C217 0.929 . S
H233 C215 0.932 . S
C234 C235 1.385 . S
C234 C236 1.397 . S
C234 H258 0.931 . S
C235 C234 1.385 . S
C235 C239 1.398 1_565 S
C236 C234 1.397 . S
C236 C237 1.388 1_565 S
C236 H259 0.930 . S
C237 C236 1.388 1_545 S
C237 C238 1.373 . S
C237 C240 1.480 1_545 S
C238 C237 1.373 . S
C238 C239 1.389 . S
C238 H260 0.929 . S
C239 C235 1.398 1_545 S
C239 C238 1.389 . S
C239 H261 0.931 . S
C240 C237 1.480 1_565 S
C240 C241 1.388 . S
C240 C245 1.391 . S
C241 C240 1.388 . S
C241 C242 1.401 . S
C241 H262 0.932 . S
C242 C241 1.401 . S
C242 C243 1.375 . S
C242 C251 1.511 . S
C243 C242 1.375 . S
C243 C244 1.393 1_565 S
C243 H264 0.933 . S
C244 C243 1.393 1_545 S
C244 C245 1.361 1_545 S
C244 C246 1.501 . S
C245 C240 1.391 . S
C245 C244 1.361 1_565 S
C245 H263 0.931 1_565 S
C246 C244 1.501 . S
C246 C247 1.357 1_545 S
C246 C248 1.379 . S
C247 C246 1.357 1_565 S
C247 C257 1.386 . S
C247 H265 0.931 . S
C248 C246 1.379 . S
C248 C249 1.409 . S
C248 H266 0.929 . S
C249 C248 1.409 . S
C249 C250 1.384 . S
C249 H267 0.930 . S
C250 C249 1.384 . S
C250 C257 1.354 1_545 S
C251 C242 1.511 . S
C251 C252 1.341 . S
C251 C253 1.371 1_565 S
C252 C251 1.341 . S
C252 C256 1.394 . S
C252 H268 0.930 . S
C253 C251 1.371 1_545 S
C253 C254 1.392 . S
C253 H269 0.931 . S
C254 C253 1.392 . S
C254 C255 1.327 1_545 S
C254 H272 0.932 . S
C255 C254 1.327 1_565 S
C255 C256 1.340 . S
C256 C252 1.394 . S
C256 C255 1.340 . S
C256 H271 0.929 . S
C257 C247 1.386 . S
C257 C250 1.354 1_565 S
C257 H270 0.928 . S
H258 C234 0.931 . S
H259 C236 0.930 . S
H260 C238 0.929 . S
H261 C239 0.931 . S
H262 C241 0.932 . S
H263 C245 0.931 1_545 S
H264 C243 0.933 . S
H265 C247 0.931 . S
H266 C248 0.929 . S
H267 C249 0.930 . S
H268 C252 0.930 . S
H269 C253 0.931 . S
H270 C257 0.928 . S
H271 C256 0.929 . S
H272 C254 0.932 . S
C273 C274 1.386 . S
C273 C275 1.397 . S
C273 H297 0.931 . S
C274 C273 1.386 . S
C274 C278 1.397 . S
C275 C273 1.397 . S
C275 C276 1.384 . S
C275 H298 0.930 . S
C276 C275 1.384 . S
C276 C277 1.377 . S
C276 C279 1.481 . S
C277 C276 1.377 . S
C277 C278 1.389 . S
C277 H299 0.929 . S
C278 C274 1.397 . S
C278 C277 1.389 . S
C278 H300 0.931 . S
C279 C276 1.481 . S
C279 C280 1.387 . S
C279 C284 1.390 . S
C280 C279 1.387 . S
C280 C281 1.401 . S
C280 H301 0.930 . S
C281 C280 1.401 . S
C281 C282 1.376 . S
C281 C290 1.511 . S
C282 C281 1.376 . S
C282 C283 1.392 . S
C282 H303 0.931 . S
C283 C282 1.392 . S
C283 C284 1.361 . S
C283 C285 1.500 . S
C284 C279 1.390 . S
C284 C283 1.361 . S
C284 H302 0.931 . S
C285 C283 1.500 . S
C285 C286 1.371 . S
C285 C287 1.365 . S
C286 C285 1.371 . S
C286 C296 1.386 . S
C286 H304 0.931 . S
C287 C285 1.365 . S
C287 C288 1.409 . S
C287 H305 0.929 . S
C288 C287 1.409 . S
C288 C289 1.380 . S
C288 H306 0.930 . S
C289 C288 1.380 . S
C289 C296 1.357 . S
C290 C281 1.511 . S
C290 C291 1.341 . S
C290 C292 1.371 . S
C291 C290 1.341 . S
C291 C295 1.394 . S
C291 H307 0.930 . S
C292 C290 1.371 . S
C292 C293 1.392 . S
C292 H308 0.931 . S
C293 C292 1.392 . S
C293 C294 1.331 . S
C293 H311 0.932 . S
C294 C293 1.331 . S
C294 C295 1.336 . S
C295 C291 1.394 . S
C295 C294 1.336 . S
C295 H310 0.929 . S
C296 C286 1.386 . S
C296 C289 1.357 . S
C296 H309 0.928 . S
H297 C273 0.931 . S
H298 C275 0.930 . S
H299 C277 0.929 . S
H300 C278 0.931 . S
H301 C280 0.930 . S
H302 C284 0.931 . S
H303 C282 0.931 . S
H304 C286 0.931 . S
H305 C287 0.929 . S
H306 C288 0.930 . S
H307 C291 0.930 . S
H308 C292 0.931 . S
H309 C296 0.928 . S
H310 C295 0.929 . S
H311 C293 0.932 . S
C312 O328 1.251 . S
C312 O330 1.254 . S
N313 C314 1.333 . S
N313 C318 1.307 1_455 S
N313 Zn319 2.020 . S
C314 N313 1.333 . S
C314 C315 1.379 1_455 S
C314 H332 0.952 . S
C315 C314 1.379 1_655 S
C315 C316 1.390 . S
C315 H342 0.941 1_655 S
C316 C315 1.390 . S
C316 C317 1.357 . S
C317 C316 1.357 . S
C317 C318 1.370 . S
C317 H343 0.950 . S
C318 N313 1.307 1_655 S
C318 C317 1.370 . S
C318 H336 0.948 . S
Zn319 N313 2.020 . S
Zn319 O328 2.039 . S
Zn319 O334 2.034 . S
Zn319 O338 2.025 1_565 S
Zn319 O340 2.024 1_455 S
C320 O339 1.246 . S
C320 O340 1.249 1_545 S
N321 C322 1.307 . S
N321 C323 1.333 . S
N321 Zn327 2.020 . S
C322 N321 1.307 . S
C322 C326 1.370 . S
C322 H333 0.948 . S
C323 N321 1.333 . S
C323 C324 1.379 . S
C323 H331 0.952 . S
C324 C323 1.379 . S
C324 C325 1.390 . S
C324 H344 0.949 . S
C325 C324 1.390 . S
C325 C326 1.357 . S
C326 C322 1.370 . S
C326 C325 1.357 . S
C326 H345 0.950 . S
Zn327 N321 2.020 . S
Zn327 O330 2.025 1_545 S
Zn327 O335 2.024 . S
Zn327 O337 2.039 . S
Zn327 O339 2.034 1_455 S
O328 C312 1.251 . S
O328 Zn319 2.039 . S
C329 O334 1.246 . S
C329 O335 1.249 1_565 S
O330 C312 1.254 . S
O330 Zn327 2.025 1_565 S
H331 C323 0.952 . S
H332 C314 0.952 . S
H333 C322 0.948 . S
O334 Zn319 2.034 . S
O334 C329 1.246 . S
O335 Zn327 2.024 . S
O335 C329 1.249 1_545 S
H336 C318 0.948 . S
O337 Zn327 2.039 . S
O337 C341 1.251 . S
O338 Zn319 2.025 1_545 S
O338 C341 1.254 . S
O339 C320 1.246 . S
O339 Zn327 2.034 1_655 S
O340 Zn319 2.024 1_655 S
O340 C320 1.249 1_565 S
C341 O337 1.251 . S
C341 O338 1.254 . S
H342 C315 0.941 1_455 S
H343 C317 0.950 . S
H344 C324 0.949 . S
H345 C326 0.950 . S
C346 O362 1.251 1_565 S
C346 O364 1.254 . S
N347 C348 1.333 . S
N347 C352 1.307 . S
N347 Zn353 2.020 . S
C348 N347 1.333 . S
C348 C349 1.379 . S
C348 H366 0.952 . S
C349 C348 1.379 . S
C349 C350 1.390 . S
C349 H376 0.949 . S
C350 C349 1.390 . S
C350 C351 1.357 . S
C351 C350 1.357 . S
C351 C352 1.370 . S
C351 H377 0.950 . S
C352 N347 1.307 . S
C352 C351 1.370 . S
C352 H370 0.948 . S
Zn353 N347 2.020 . S
Zn353 O362 2.039 . S
Zn353 O368 2.034 . S
Zn353 O372 2.025 . S
Zn353 O374 2.024 . S
C354 O373 1.246 1_545 S
C354 O374 1.249 . S
N355 C356 1.307 . S
N355 C357 1.333 . S
N355 Zn361 2.020 . S
C356 N355 1.307 . S
C356 C360 1.370 . S
C356 H367 0.948 . S
C357 N355 1.333 . S
C357 C358 1.379 . S
C357 H365 0.952 . S
C358 C357 1.379 . S
C358 C359 1.390 . S
C358 H378 0.949 . S
C359 C358 1.390 . S
C359 C360 1.357 . S
C360 C356 1.370 . S
C360 C359 1.357 . S
C360 H379 0.950 . S
Zn361 N355 2.020 . S
Zn361 O364 2.025 . S
Zn361 O369 2.024 . S
Zn361 O371 2.039 . S
Zn361 O373 2.034 . S
O362 C346 1.251 1_545 S
O362 Zn353 2.039 . S
C363 O368 1.246 1_565 S
C363 O369 1.249 . S
O364 C346 1.254 . S
O364 Zn361 2.025 . S
H365 C357 0.952 . S
H366 C348 0.952 . S
H367 C356 0.948 . S
O368 Zn353 2.034 . S
O368 C363 1.246 1_545 S
O369 Zn361 2.024 . S
O369 C363 1.249 . S
H370 C352 0.948 . S
O371 Zn361 2.039 . S
O371 C375 1.251 1_565 S
O372 Zn353 2.025 . S
O372 C375 1.254 . S
O373 C354 1.246 1_565 S
O373 Zn361 2.034 . S
O374 Zn353 2.024 . S
O374 C354 1.249 . S
C375 O371 1.251 1_545 S
C375 O372 1.254 . S
H376 C349 0.949 . S
H377 C351 0.950 . S
H378 C358 0.949 . S
H379 C360 0.950 . S
C380 O396 1.251 . S
C380 O398 1.254 . S
N381 C382 1.333 . S
N381 C386 1.307 . S
N381 Zn387 2.020 . S
C382 N381 1.333 . S
C382 C383 1.379 . S
C382 H400 0.952 . S
C383 C382 1.379 . S
C383 C384 1.390 . S
C383 H410 0.949 . S
C384 C383 1.390 . S
C384 C385 1.357 . S
C385 C384 1.357 . S
C385 C386 1.370 . S
C385 H411 0.950 . S
C386 N381 1.307 . S
C386 C385 1.370 . S
C386 H404 0.948 . S
Zn387 N381 2.020 . S
Zn387 O396 2.039 . S
Zn387 O402 2.034 . S
Zn387 O406 2.025 . S
Zn387 O408 2.024 . S
C388 O407 1.246 . S
C388 O408 1.249 . S
N389 C390 1.307 . S
N389 C391 1.333 . S
N389 Zn395 2.020 . S
C390 N389 1.307 . S
C390 C394 1.370 . S
C390 H401 0.948 . S
C391 N389 1.333 . S
C391 C392 1.379 . S
C391 H399 0.952 . S
C392 C391 1.379 . S
C392 C393 1.390 . S
C392 H412 0.949 . S
C393 C392 1.390 . S
C393 C394 1.357 . S
C394 C390 1.370 . S
C394 C393 1.357 . S
C394 H413 0.950 . S
Zn395 N389 2.020 . S
Zn395 O398 2.025 . S
Zn395 O403 2.024 . S
Zn395 O405 2.039 . S
Zn395 O407 2.034 . S
O396 C380 1.251 . S
O396 Zn387 2.039 . S
C397 O402 1.246 . S
C397 O403 1.249 . S
O398 C380 1.254 . S
O398 Zn395 2.025 . S
H399 C391 0.952 . S
H400 C382 0.952 . S
H401 C390 0.948 . S
O402 Zn387 2.034 . S
O402 C397 1.246 . S
O403 Zn395 2.024 . S
O403 C397 1.249 . S
H404 C386 0.948 . S
O405 Zn395 2.039 . S
O405 C409 1.251 . S
O406 Zn387 2.025 . S
O406 C409 1.254 . S
O407 C388 1.246 . S
O407 Zn395 2.034 . S
O408 Zn387 2.024 . S
O408 C388 1.249 . S
C409 O405 1.251 . S
C409 O406 1.254 . S
H410 C383 0.949 . S
H411 C385 0.950 . S
H412 C392 0.949 . S
H413 C394 0.950 . S
C414 O430 1.251 . S
C414 O432 1.254 . S
N415 C416 1.333 . S
N415 C420 1.307 . S
N415 Zn421 2.020 . S
C416 N415 1.333 . S
C416 C417 1.379 . S
C416 H434 0.952 . S
C417 C416 1.379 . S
C417 C418 1.390 . S
C417 H444 0.949 . S
C418 C417 1.390 . S
C418 C419 1.357 . S
C419 C418 1.357 . S
C419 C420 1.370 . S
C419 H445 0.950 . S
C420 N415 1.307 . S
C420 C419 1.370 . S
C420 H438 0.948 . S
Zn421 N415 2.020 . S
Zn421 O430 2.039 . S
Zn421 O436 2.034 . S
Zn421 O440 2.065 . S
Zn421 O442 2.024 . S
C422 O441 1.246 . S
C422 O442 1.249 . S
N423 C424 1.307 . S
N423 C425 1.333 1_455 S
N423 Zn429 2.020 . S
C424 N423 1.307 . S
C424 C428 1.370 . S
C424 H435 0.948 . S
C425 N423 1.333 1_655 S
C425 C426 1.379 . S
C425 H433 0.952 . S
C426 C425 1.379 . S
C426 C427 1.390 . S
C426 H446 0.949 . S
C427 C426 1.390 . S
C427 C428 1.357 1_655 S
C428 C424 1.370 . S
C428 C427 1.357 1_455 S
C428 H447 0.950 . S
Zn429 N423 2.020 . S
Zn429 O432 2.025 . S
Zn429 O437 2.024 1_455 S
Zn429 O439 2.039 1_455 S
Zn429 O441 2.034 . S
O430 C414 1.251 . S
O430 Zn421 2.039 . S
C431 O436 1.246 1_655 S
C431 O437 1.249 . S
O432 C414 1.254 . S
O432 Zn429 2.025 . S
H433 C425 0.952 . S
H434 C416 0.952 . S
H435 C424 0.948 . S
O436 Zn421 2.034 . S
O436 C431 1.246 1_455 S
O437 Zn429 2.024 1_655 S
O437 C431 1.249 . S
H438 C420 0.948 . S
O439 Zn429 2.039 1_655 S
O439 C443 1.251 . S
O440 Zn421 2.065 . S
O440 C443 1.224 1_455 S
O441 C422 1.246 . S
O441 Zn429 2.034 . S
O442 Zn421 2.024 . S
O442 C422 1.249 . S
C443 O439 1.251 . S
C443 O440 1.224 1_655 S
H444 C417 0.949 . S
H445 C419 0.950 . S
H446 C426 0.949 . S
H447 C428 0.950 . S
H448 C466 0.951 . S
H449 C468 0.951 . S
H450 C470 0.950 . S
H451 C471 0.950 . S
H452 C473 0.950 . S
H453 C476 0.950 . S
H454 C477 0.950 . S
H455 C479 0.950 . S
H456 C480 0.950 . S
H457 C481 0.951 . S
H458 C483 0.951 . S
H459 C485 0.950 . S
H460 C486 0.950 . S
H461 C488 0.950 . S
H462 C491 0.950 . S
H463 C492 0.950 . S
H464 C494 0.950 . S
H465 C495 0.950 1_565 S
C466 H448 0.951 . S
C466 C467 1.357 1_545 S
C466 C468 1.388 . S
C467 C466 1.357 1_565 S
C467 C471 1.394 . S
C468 H449 0.951 . S
C468 C466 1.388 . S
C468 C469 1.366 1_545 S
C469 C468 1.366 1_565 S
C469 C470 1.414 . S
C469 C472 1.499 . S
C470 H450 0.950 . S
C470 C469 1.414 . S
C470 C471 1.374 . S
C471 H451 0.950 . S
C471 C467 1.394 . S
C471 C470 1.374 . S
C472 C469 1.499 . S
C472 C473 1.373 1_565 S
C472 C474 1.389 . S
C473 H452 0.950 . S
C473 C472 1.373 1_545 S
C473 C489 1.377 . S
C474 C472 1.389 . S
C474 C475 1.524 . S
C474 C488 1.377 . S
C475 C474 1.524 . S
C475 C476 1.397 . S
C475 C480 1.363 . S
C476 H453 0.950 . S
C476 C475 1.397 . S
C476 C477 1.334 . S
C477 H454 0.950 . S
C477 C476 1.334 . S
C477 C478 1.287 . S
C478 C477 1.287 . S
C478 C479 1.524 . S
C478 H497 0.913 . S
C479 H455 0.950 . S
C479 C478 1.524 . S
C479 C480 1.415 . S
C480 H456 0.950 . S
C480 C475 1.363 . S
C480 C479 1.415 . S
C481 H457 0.951 . S
C481 C482 1.366 . S
C481 C483 1.388 . S
C482 C481 1.366 . S
C482 C486 1.385 1_565 S
C483 H458 0.951 . S
C483 C481 1.388 . S
C483 C484 1.366 . S
C484 C483 1.366 . S
C484 C485 1.414 1_565 S
C484 C487 1.499 . S
C485 H459 0.950 . S
C485 C484 1.414 1_545 S
C485 C486 1.374 . S
C486 H460 0.950 . S
C486 C482 1.385 1_545 S
C486 C485 1.374 . S
C487 C484 1.499 . S
C487 C488 1.373 . S
C487 C489 1.389 1_565 S
C488 H461 0.950 . S
C488 C474 1.377 . S
C488 C487 1.373 . S
C489 C473 1.377 . S
C489 C487 1.389 1_545 S
C489 C490 1.524 . S
C490 C489 1.524 . S
C490 C491 1.397 . S
C490 C495 1.363 . S
C491 H462 0.950 . S
C491 C490 1.397 . S
C491 C492 1.334 . S
C492 H463 0.950 . S
C492 C491 1.334 . S
C492 C493 1.287 . S
C493 C492 1.287 . S
C493 C494 1.524 . S
C493 H496 0.999 . S
C494 H464 0.950 . S
C494 C493 1.524 . S
C494 C495 1.415 . S
C495 H465 0.950 1_545 S
C495 C490 1.363 . S
C495 C494 1.415 . S
H496 C493 0.999 . S
H497 C478 0.913 . S
H498 C516 0.951 . S
H499 C518 0.951 . S
H500 C520 0.950 . S
H501 C521 0.950 . S
H502 C523 0.950 . S
H503 C526 0.950 . S
H504 C527 0.950 . S
H505 C529 0.950 . S
H506 C530 0.950 . S
H507 C531 0.951 . S
H508 C533 0.951 . S
H509 C535 0.950 . S
H510 C536 0.950 . S
H511 C538 0.950 . S
H512 C541 0.950 . S
H513 C542 0.950 . S
H514 C544 0.950 . S
H515 C545 0.950 . S
C516 H498 0.951 . S
C516 C517 1.366 . S
C516 C518 1.388 . S
C517 C516 1.366 . S
C517 C521 1.385 . S
C518 H499 0.951 . S
C518 C516 1.388 . S
C518 C519 1.366 . S
C519 C518 1.366 . S
C519 C520 1.414 . S
C519 C522 1.499 . S
C520 H500 0.950 . S
C520 C519 1.414 . S
C520 C521 1.374 . S
C521 H501 0.950 . S
C521 C517 1.385 . S
C521 C520 1.374 . S
C522 C519 1.499 . S
C522 C523 1.373 . S
C522 C524 1.389 . S
C523 H502 0.950 . S
C523 C522 1.373 . S
C523 C539 1.377 . S
C524 C522 1.389 . S
C524 C525 1.524 . S
C524 C538 1.377 . S
C525 C524 1.524 . S
C525 C526 1.397 . S
C525 C530 1.363 . S
C526 H503 0.950 . S
C526 C525 1.397 . S
C526 C527 1.334 . S
C527 H504 0.950 . S
C527 C526 1.334 . S
C527 C528 1.287 . S
C528 C527 1.287 . S
C528 C529 1.524 . S
C528 H547 0.913 . S
C529 H505 0.950 . S
C529 C528 1.524 . S
C529 C530 1.415 . S
C530 H506 0.950 . S
C530 C525 1.363 . S
C530 C529 1.415 . S
C531 H507 0.951 . S
C531 C532 1.366 . S
C531 C533 1.388 . S
C532 C531 1.366 . S
C532 C536 1.385 . S
C533 H508 0.951 . S
C533 C531 1.388 . S
C533 C534 1.366 . S
C534 C533 1.366 . S
C534 C535 1.414 . S
C534 C537 1.499 . S
C535 H509 0.950 . S
C535 C534 1.414 . S
C535 C536 1.374 . S
C536 H510 0.950 . S
C536 C532 1.385 . S
C536 C535 1.374 . S
C537 C534 1.499 . S
C537 C538 1.373 . S
C537 C539 1.389 . S
C538 H511 0.950 . S
C538 C524 1.377 . S
C538 C537 1.373 . S
C539 C523 1.377 . S
C539 C537 1.389 . S
C539 C540 1.524 . S
C540 C539 1.524 . S
C540 C541 1.397 . S
C540 C545 1.363 . S
C541 H512 0.950 . S
C541 C540 1.397 . S
C541 C542 1.334 . S
C542 H513 0.950 . S
C542 C541 1.334 . S
C542 C543 1.287 . S
C543 C542 1.287 . S
C543 C544 1.524 . S
C543 H546 0.999 . S
C544 H514 0.950 . S
C544 C543 1.524 . S
C544 C545 1.415 . S
C545 H515 0.950 . S
C545 C540 1.363 . S
C545 C544 1.415 . S
H546 C543 0.999 . S
H547 C528 0.913 . S
H548 C566 0.951 . S
H549 C568 0.951 . S
H550 C570 0.950 . S
H551 C571 0.950 . S
H552 C573 0.950 . S
H553 C576 0.950 . S
H554 C577 0.950 . S
H555 C579 0.950 . S
H556 C580 0.950 . S
H557 C581 0.951 . S
H558 C583 0.951 . S
H559 C585 0.950 . S
H560 C586 0.950 . S
H561 C588 0.950 . S
H562 C591 0.950 . S
H563 C592 0.950 . S
H564 C594 0.950 . S
H565 C595 0.950 . S
C566 H548 0.951 . S
C566 C567 1.366 . S
C566 C568 1.388 . S
C567 C566 1.366 . S
C567 C571 1.385 . S
C568 H549 0.951 . S
C568 C566 1.388 . S
C568 C569 1.366 . S
C569 C568 1.366 . S
C569 C570 1.414 . S
C569 C572 1.499 . S
C570 H550 0.950 . S
C570 C569 1.414 . S
C570 C571 1.374 . S
C571 H551 0.950 . S
C571 C567 1.385 . S
C571 C570 1.374 . S
C572 C569 1.499 . S
C572 C573 1.373 . S
C572 C574 1.389 . S
C573 H552 0.950 . S
C573 C572 1.373 . S
C573 C589 1.377 . S
C574 C572 1.389 . S
C574 C575 1.524 . S
C574 C588 1.377 . S
C575 C574 1.524 . S
C575 C576 1.397 . S
C575 C580 1.363 . S
C576 H553 0.950 . S
C576 C575 1.397 . S
C576 C577 1.334 . S
C577 H554 0.950 . S
C577 C576 1.334 . S
C577 C578 1.287 . S
C578 C577 1.287 . S
C578 C579 1.524 . S
C578 H597 0.913 . S
C579 H555 0.950 . S
C579 C578 1.524 . S
C579 C580 1.415 . S
C580 H556 0.950 . S
C580 C575 1.363 . S
C580 C579 1.415 . S
C581 H557 0.951 . S
C581 C582 1.366 . S
C581 C583 1.388 . S
C582 C581 1.366 . S
C582 C586 1.385 . S
C583 H558 0.951 . S
C583 C581 1.388 . S
C583 C584 1.366 . S
C584 C583 1.366 . S
C584 C585 1.414 . S
C584 C587 1.499 . S
C585 H559 0.950 . S
C585 C584 1.414 . S
C585 C586 1.374 . S
C586 H560 0.950 . S
C586 C582 1.385 . S
C586 C585 1.374 . S
C587 C584 1.499 . S
C587 C588 1.373 . S
C587 C589 1.389 . S
C588 H561 0.950 . S
C588 C574 1.377 . S
C588 C587 1.373 . S
C589 C573 1.377 . S
C589 C587 1.389 . S
C589 C590 1.524 . S
C590 C589 1.524 . S
C590 C591 1.397 . S
C590 C595 1.363 . S
C591 H562 0.950 . S
C591 C590 1.397 . S
C591 C592 1.334 . S
C592 H563 0.950 . S
C592 C591 1.334 . S
C592 C593 1.287 . S
C593 C592 1.287 . S
C593 C594 1.524 . S
C593 H596 0.999 . S
C594 H564 0.950 . S
C594 C593 1.524 . S
C594 C595 1.415 . S
C595 H565 0.950 . S
C595 C590 1.363 . S
C595 C594 1.415 . S
H596 C593 0.999 . S
H597 C578 0.913 . S
H598 C616 0.951 . S
H599 C618 0.951 . S
H600 C620 0.950 . S
H601 C621 0.950 . S
H602 C623 0.950 . S
H603 C626 0.950 . S
H604 C627 0.950 . S
H605 C629 0.950 . S
H606 C630 0.950 . S
H607 C631 0.951 . S
H608 C633 0.951 . S
H609 C635 0.950 . S
H610 C636 0.950 . S
H611 C638 0.950 . S
H612 C641 0.950 . S
H613 C642 0.950 . S
H614 C644 0.950 . S
H615 C645 0.950 . S
C616 H598 0.951 . S
C616 C617 1.366 . S
C616 C618 1.388 . S
C617 C616 1.366 . S
C617 C621 1.385 . S
C618 H599 0.951 . S
C618 C616 1.388 . S
C618 C619 1.366 . S
C619 C618 1.366 . S
C619 C620 1.414 . S
C619 C622 1.499 . S
C620 H600 0.950 . S
C620 C619 1.414 . S
C620 C621 1.374 . S
C621 H601 0.950 . S
C621 C617 1.385 . S
C621 C620 1.374 . S
C622 C619 1.499 . S
C622 C623 1.373 . S
C622 C624 1.389 . S
C623 H602 0.950 . S
C623 C622 1.373 . S
C623 C639 1.377 . S
C624 C622 1.389 . S
C624 C625 1.524 . S
C624 C638 1.377 . S
C625 C624 1.524 . S
C625 C626 1.397 . S
C625 C630 1.363 . S
C626 H603 0.950 . S
C626 C625 1.397 . S
C626 C627 1.334 . S
C627 H604 0.950 . S
C627 C626 1.334 . S
C627 C628 1.287 . S
C628 C627 1.287 . S
C628 C629 1.524 . S
C628 H647 0.913 . S
C629 H605 0.950 . S
C629 C628 1.524 . S
C629 C630 1.415 . S
C630 H606 0.950 . S
C630 C625 1.363 . S
C630 C629 1.415 . S
C631 H607 0.951 . S
C631 C632 1.366 . S
C631 C633 1.388 . S
C632 C631 1.366 . S
C632 C636 1.385 . S
C633 H608 0.951 . S
C633 C631 1.388 . S
C633 C634 1.366 . S
C634 C633 1.366 . S
C634 C635 1.414 . S
C634 C637 1.499 . S
C635 H609 0.950 . S
C635 C634 1.414 . S
C635 C636 1.374 . S
C636 H610 0.950 . S
C636 C632 1.385 . S
C636 C635 1.374 . S
C637 C634 1.499 . S
C637 C638 1.373 . S
C637 C639 1.389 . S
C638 H611 0.950 . S
C638 C624 1.377 . S
C638 C637 1.373 . S
C639 C623 1.377 . S
C639 C637 1.389 . S
C639 C640 1.524 . S
C640 C639 1.524 . S
C640 C641 1.397 . S
C640 C645 1.363 . S
C641 H612 0.950 . S
C641 C640 1.397 . S
C641 C642 1.334 . S
C642 H613 0.950 . S
C642 C641 1.334 . S
C642 C643 1.287 . S
C643 C642 1.287 . S
C643 C644 1.524 . S
C643 H646 0.999 . S
C644 H614 0.950 . S
C644 C643 1.524 . S
C644 C645 1.415 . S
C645 H615 0.950 . S
C645 C640 1.363 . S
C645 C644 1.415 . S
H646 C643 0.999 . S
H647 C628 0.913 . S
H648 C666 0.951 . S
H649 C668 0.951 . S
H650 C670 0.951 . S
H651 C671 0.950 1_565 S
H652 C673 0.950 . S
H653 C676 0.950 . S
H654 C677 0.950 . S
H655 C679 0.950 . S
H656 C680 0.950 . S
H657 C681 0.951 . S
H658 C683 0.951 . S
H659 C685 0.950 . S
H660 C686 0.950 . S
H661 C688 0.950 . S
H662 C691 0.950 . S
H663 C692 0.950 . S
H664 C694 0.950 . S
H665 C695 0.950 . S
C666 H648 0.951 . S
C666 C667 1.366 . S
C666 C668 1.388 . S
C667 C666 1.366 . S
C667 C671 1.384 1_556 S
C668 H649 0.951 . S
C668 C666 1.388 . S
C668 C669 1.366 . S
C669 C668 1.366 . S
C669 C670 1.414 . S
C669 C672 1.499 . S
C670 H650 0.951 . S
C670 C669 1.414 . S
C670 C671 1.375 1_556 S
C671 H651 0.950 1_545 S
C671 C667 1.384 1_554 S
C671 C670 1.375 1_554 S
C672 C669 1.499 . S
C672 C673 1.373 . S
C672 C674 1.389 1_545 S
C673 H652 0.950 . S
C673 C672 1.373 . S
C673 C689 1.377 . S
C674 C672 1.389 1_565 S
C674 C675 1.524 . S
C674 C688 1.377 . S
C675 C674 1.524 . S
C675 C676 1.397 . S
C675 C680 1.363 . S
C676 H653 0.950 . S
C676 C675 1.397 . S
C676 C677 1.334 . S
C677 H654 0.950 . S
C677 C676 1.334 . S
C677 C678 1.287 . S
C678 C677 1.287 . S
C678 C679 1.524 . S
C678 H697 0.913 . S
C679 H655 0.950 . S
C679 C678 1.524 . S
C679 C680 1.415 . S
C680 H656 0.950 . S
C680 C675 1.363 . S
C680 C679 1.415 . S
C681 H657 0.951 . S
C681 C682 1.366 . S
C681 C683 1.388 . S
C682 C681 1.366 . S
C682 C686 1.385 . S
C683 H658 0.951 . S
C683 C681 1.388 . S
C683 C684 1.366 . S
C684 C683 1.366 . S
C684 C685 1.414 . S
C684 C687 1.499 . S
C685 H659 0.950 . S
C685 C684 1.414 . S
C685 C686 1.374 . S
C686 H660 0.950 . S
C686 C682 1.385 . S
C686 C685 1.374 . S
C687 C684 1.499 . S
C687 C688 1.373 1_545 S
C687 C689 1.389 . S
C688 H661 0.950 . S
C688 C674 1.377 . S
C688 C687 1.373 1_565 S
C689 C673 1.377 . S
C689 C687 1.389 . S
C689 C690 1.524 . S
C690 C689 1.524 . S
C690 C691 1.397 . S
C690 C695 1.363 . S
C691 H662 0.950 . S
C691 C690 1.397 . S
C691 C692 1.334 . S
C692 H663 0.950 . S
C692 C691 1.334 . S
C692 C693 1.287 . S
C693 C692 1.287 . S
C693 C694 1.524 . S
C693 H696 0.999 . S
C694 H664 0.950 . S
C694 C693 1.524 . S
C694 C695 1.415 . S
C695 H665 0.950 . S
C695 C690 1.363 . S
C695 C694 1.415 . S
H696 C693 0.999 . S
H697 C678 0.913 . S
H698 C716 0.951 1_554 S
H699 C718 0.951 . S
H700 C720 0.950 . S
H701 C721 0.950 . S
H702 C723 0.950 . S
H703 C726 0.950 . S
H704 C727 0.950 . S
H705 C729 0.950 . S
H706 C730 0.950 . S
H707 C731 0.951 . S
H708 C733 0.951 . S
H709 C735 0.950 . S
H710 C736 0.950 . S
H711 C738 0.950 . S
H712 C741 0.950 . S
H713 C742 0.950 . S
H714 C744 0.950 . S
H715 C745 0.950 . S
C716 H698 0.951 1_556 S
C716 C717 1.366 1_556 S
C716 C718 1.388 . S
C717 C716 1.366 1_554 S
C717 C721 1.385 1_554 S
C718 H699 0.951 . S
C718 C716 1.388 . S
C718 C719 1.366 . S
C719 C718 1.366 . S
C719 C720 1.414 . S
C719 C722 1.499 . S
C720 H700 0.950 . S
C720 C719 1.414 . S
C720 C721 1.374 . S
C721 H701 0.950 . S
C721 C717 1.385 1_556 S
C721 C720 1.374 . S
C722 C719 1.499 . S
C722 C723 1.373 . S
C722 C724 1.389 . S
C723 H702 0.950 . S
C723 C722 1.373 . S
C723 C739 1.377 . S
C724 C722 1.389 . S
C724 C725 1.524 . S
C724 C738 1.377 . S
C725 C724 1.524 . S
C725 C726 1.397 . S
C725 C730 1.363 . S
C726 H703 0.950 . S
C726 C725 1.397 . S
C726 C727 1.334 . S
C727 H704 0.950 . S
C727 C726 1.334 . S
C727 C728 1.287 . S
C728 C727 1.287 . S
C728 C729 1.524 . S
C728 H747 0.913 . S
C729 H705 0.950 . S
C729 C728 1.524 . S
C729 C730 1.415 . S
C730 H706 0.950 . S
C730 C725 1.363 . S
C730 C729 1.415 . S
C731 H707 0.951 . S
C731 C732 1.366 . S
C731 C733 1.388 . S
C732 C731 1.366 . S
C732 C736 1.385 . S
C733 H708 0.951 . S
C733 C731 1.388 . S
C733 C734 1.366 . S
C734 C733 1.366 . S
C734 C735 1.414 . S
C734 C737 1.499 . S
C735 H709 0.950 . S
C735 C734 1.414 . S
C735 C736 1.374 . S
C736 H710 0.950 . S
C736 C732 1.385 . S
C736 C735 1.374 . S
C737 C734 1.499 . S
C737 C738 1.373 . S
C737 C739 1.389 . S
C738 H711 0.950 . S
C738 C724 1.377 . S
C738 C737 1.373 . S
C739 C723 1.377 . S
C739 C737 1.389 . S
C739 C740 1.524 . S
C740 C739 1.524 . S
C740 C741 1.397 . S
C740 C745 1.363 . S
C741 H712 0.950 . S
C741 C740 1.397 . S
C741 C742 1.334 . S
C742 H713 0.950 . S
C742 C741 1.334 . S
C742 C743 1.287 . S
C743 C742 1.287 . S
C743 C744 1.524 . S
C743 H746 0.999 . S
C744 H714 0.950 . S
C744 C743 1.524 . S
C744 C745 1.415 . S
C745 H715 0.950 . S
C745 C740 1.363 . S
C745 C744 1.415 . S
H746 C743 0.999 . S
H747 C728 0.913 . S
H748 C766 0.951 . S
H749 C768 0.951 . S
H750 C770 0.950 . S
H751 C771 0.951 . S
H752 C773 0.950 . S
H753 C776 0.950 . S
H754 C777 0.950 . S
H755 C779 0.950 . S
H756 C780 0.950 . S
H757 C781 0.951 . S
H758 C783 0.951 . S
H759 C785 0.950 . S
H760 C786 0.950 . S
H761 C788 0.950 . S
H762 C791 0.950 . S
H763 C792 0.950 . S
H764 C794 0.950 . S
H765 C795 0.950 . S
C766 H748 0.951 . S
C766 C767 1.366 . S
C766 C768 1.388 . S
C767 C766 1.366 . S
C767 C771 1.385 . S
C768 H749 0.951 . S
C768 C766 1.388 . S
C768 C769 1.366 1_554 S
C769 C768 1.366 1_556 S
C769 C770 1.414 . S
C769 C772 1.499 . S
C770 H750 0.950 . S
C770 C769 1.414 . S
C770 C771 1.374 1_556 S
C771 H751 0.951 . S
C771 C767 1.385 . S
C771 C770 1.374 1_554 S
C772 C769 1.499 . S
C772 C773 1.373 . S
C772 C774 1.389 . S
C773 H752 0.950 . S
C773 C772 1.373 . S
C773 C789 1.377 . S
C774 C772 1.389 . S
C774 C775 1.524 . S
C774 C788 1.377 . S
C775 C774 1.524 . S
C775 C776 1.397 . S
C775 C780 1.363 . S
C776 H753 0.950 . S
C776 C775 1.397 . S
C776 C777 1.334 . S
C777 H754 0.950 . S
C777 C776 1.334 . S
C777 C778 1.287 . S
C778 C777 1.287 . S
C778 C779 1.524 . S
C778 H797 0.913 . S
C779 H755 0.950 . S
C779 C778 1.524 . S
C779 C780 1.415 . S
C780 H756 0.950 . S
C780 C775 1.363 . S
C780 C779 1.415 . S
C781 H757 0.951 . S
C781 C782 1.366 . S
C781 C783 1.388 . S
C782 C781 1.366 . S
C782 C786 1.385 . S
C783 H758 0.951 . S
C783 C781 1.388 . S
C783 C784 1.366 . S
C784 C783 1.366 . S
C784 C785 1.414 . S
C784 C787 1.499 . S
C785 H759 0.950 . S
C785 C784 1.414 . S
C785 C786 1.374 . S
C786 H760 0.950 . S
C786 C782 1.385 . S
C786 C785 1.374 . S
C787 C784 1.499 . S
C787 C788 1.373 . S
C787 C789 1.389 . S
C788 H761 0.950 . S
C788 C774 1.377 . S
C788 C787 1.373 . S
C789 C773 1.377 . S
C789 C787 1.389 . S
C789 C790 1.524 . S
C790 C789 1.524 . S
C790 C791 1.397 . S
C790 C795 1.363 . S
C791 H762 0.950 . S
C791 C790 1.397 . S
C791 C792 1.334 . S
C792 H763 0.950 . S
C792 C791 1.334 . S
C792 C793 1.287 . S
C793 C792 1.287 . S
C793 C794 1.524 . S
C793 H796 0.999 . S
C794 H764 0.950 . S
C794 C793 1.524 . S
C794 C795 1.415 . S
C795 H765 0.950 . S
C795 C790 1.363 . S
C795 C794 1.415 . S
H796 C793 0.999 . S
H797 C778 0.913 . S
H798 C816 0.951 . S
H799 C818 0.951 . S
H800 C820 0.950 . S
H801 C821 0.950 . S
H802 C823 0.950 . S
H803 C826 0.950 . S
H804 C827 0.950 1_455 S
H805 C829 0.950 . S
H806 C830 0.950 . S
H807 C831 0.951 . S
H808 C833 0.951 . S
H809 C835 0.950 . S
H810 C836 0.950 . S
H811 C838 0.950 . S
H812 C841 0.950 . S
H813 C842 0.950 . S
H814 C844 0.950 . S
H815 C845 0.950 . S
C816 H798 0.951 . S
C816 C817 1.366 . S
C816 C818 1.388 . S
C817 C816 1.366 . S
C817 C821 1.385 . S
C818 H799 0.951 . S
C818 C816 1.388 . S
C818 C819 1.366 . S
C819 C818 1.366 . S
C819 C820 1.414 . S
C819 C822 1.499 . S
C820 H800 0.950 . S
C820 C819 1.414 . S
C820 C821 1.374 . S
C821 H801 0.950 . S
C821 C817 1.385 . S
C821 C820 1.374 . S
C822 C819 1.499 . S
C822 C823 1.373 . S
C822 C824 1.389 . S
C823 H802 0.950 . S
C823 C822 1.373 . S
C823 C839 1.377 . S
C824 C822 1.389 . S
C824 C825 1.524 . S
C824 C838 1.377 . S
C825 C824 1.524 . S
C825 C826 1.397 . S
C825 C830 1.363 . S
C826 H803 0.950 . S
C826 C825 1.397 . S
C826 C827 1.334 . S
C827 H804 0.950 1_655 S
C827 C826 1.334 . S
C827 C828 1.287 1_556 S
C828 C827 1.287 1_554 S
C828 C829 1.526 . S
C828 H847 0.911 1_655 S
C829 H805 0.950 . S
C829 C828 1.526 . S
C829 C830 1.415 1_554 S
C830 H806 0.950 . S
C830 C825 1.363 . S
C830 C829 1.415 1_556 S
C831 H807 0.951 . S
C831 C832 1.366 . S
C831 C833 1.388 . S
C832 C831 1.366 . S
C832 C836 1.385 . S
C833 H808 0.951 . S
C833 C831 1.388 . S
C833 C834 1.366 . S
C834 C833 1.366 . S
C834 C835 1.414 . S
C834 C837 1.499 . S
C835 H809 0.950 . S
C835 C834 1.414 . S
C835 C836 1.374 . S
C836 H810 0.950 . S
C836 C832 1.385 . S
C836 C835 1.374 . S
C837 C834 1.499 . S
C837 C838 1.373 . S
C837 C839 1.389 . S
C838 H811 0.950 . S
C838 C824 1.377 . S
C838 C837 1.373 . S
C839 C823 1.377 . S
C839 C837 1.389 . S
C839 C840 1.524 . S
C840 C839 1.524 . S
C840 C841 1.397 . S
C840 C845 1.363 . S
C841 H812 0.950 . S
C841 C840 1.397 . S
C841 C842 1.334 . S
C842 H813 0.950 . S
C842 C841 1.334 . S
C842 C843 1.287 . S
C843 C842 1.287 . S
C843 C844 1.524 . S
C843 H846 0.999 . S
C844 H814 0.950 . S
C844 C843 1.524 . S
C844 C845 1.415 . S
C845 H815 0.950 . S
C845 C840 1.363 . S
C845 C844 1.415 . S
H846 C843 0.999 . S
H847 C828 0.911 1_455 S
H848 C866 0.951 . S
H849 C868 0.951 . S
H850 C870 0.950 . S
H851 C871 0.950 . S
H852 C873 0.950 . S
H853 C876 0.950 . S
H854 C877 0.950 . S
H855 C879 0.950 . S
H856 C880 0.950 . S
H857 C881 0.951 1_655 S
H858 C883 0.951 . S
H859 C885 0.950 . S
H860 C886 0.950 . S
H861 C888 0.950 . S
H862 C891 0.950 . S
H863 C892 0.950 . S
H864 C894 0.950 . S
H865 C895 0.950 . S
C866 H848 0.951 . S
C866 C867 1.366 . S
C866 C868 1.388 . S
C867 C866 1.366 . S
C867 C871 1.385 . S
C868 H849 0.951 . S
C868 C866 1.388 . S
C868 C869 1.366 . S
C869 C868 1.366 . S
C869 C870 1.414 . S
C869 C872 1.499 . S
C870 H850 0.950 . S
C870 C869 1.414 . S
C870 C871 1.374 . S
C871 H851 0.950 . S
C871 C867 1.385 . S
C871 C870 1.374 . S
C872 C869 1.499 . S
C872 C873 1.373 . S
C872 C874 1.389 . S
C873 H852 0.950 . S
C873 C872 1.373 . S
C873 C889 1.377 . S
C874 C872 1.389 . S
C874 C875 1.524 . S
C874 C888 1.377 . S
C875 C874 1.524 . S
C875 C876 1.397 . S
C875 C880 1.363 . S
C876 H853 0.950 . S
C876 C875 1.397 . S
C876 C877 1.334 . S
C877 H854 0.950 . S
C877 C876 1.334 . S
C877 C878 1.287 . S
C878 C877 1.287 . S
C878 C879 1.524 . S
C878 H897 0.913 . S
C879 H855 0.950 . S
C879 C878 1.524 . S
C879 C880 1.415 . S
C880 H856 0.950 . S
C880 C875 1.363 . S
C880 C879 1.415 . S
C881 H857 0.951 1_455 S
C881 C882 1.366 . S
C881 C883 1.388 . S
C882 C881 1.366 . S
C882 C886 1.385 . S
C883 H858 0.951 . S
C883 C881 1.388 . S
C883 C884 1.366 . S
C884 C883 1.366 . S
C884 C885 1.414 . S
C884 C887 1.499 . S
C885 H859 0.950 . S
C885 C884 1.414 . S
C885 C886 1.374 . S
C886 H860 0.950 . S
C886 C882 1.385 . S
C886 C885 1.374 . S
C887 C884 1.499 . S
C887 C888 1.373 . S
C887 C889 1.389 . S
C888 H861 0.950 . S
C888 C874 1.377 . S
C888 C887 1.373 . S
C889 C873 1.377 . S
C889 C887 1.389 . S
C889 C890 1.524 . S
C890 C889 1.524 . S
C890 C891 1.397 . S
C890 C895 1.363 . S
C891 H862 0.950 . S
C891 C890 1.397 . S
C891 C892 1.334 . S
C892 H863 0.950 . S
C892 C891 1.334 . S
C892 C893 1.287 . S
C893 C892 1.287 . S
C893 C894 1.524 . S
C893 H896 0.999 . S
C894 H864 0.950 . S
C894 C893 1.524 . S
C894 C895 1.415 . S
C895 H865 0.950 . S
C895 C890 1.363 . S
C895 C894 1.415 . S
H896 C893 0.999 . S
H897 C878 0.913 . S
H898 C916 0.951 . S
H899 C918 0.951 . S
H900 C920 0.950 . S
H901 C921 0.950 . S
H902 C923 0.950 . S
H903 C926 0.950 . S
H904 C927 0.950 . S
H905 C929 0.950 . S
H906 C930 0.950 . S
H907 C931 0.951 . S
H908 C933 0.965 . S
H909 C935 0.950 . S
H910 C936 0.950 . S
H911 C938 0.950 . S
H912 C941 0.950 . S
H913 C942 0.950 . S
H914 C944 0.950 . S
H915 C945 0.950 . S
C916 H898 0.951 . S
C916 C917 1.354 1_565 S
C916 C918 1.388 . S
C917 C916 1.354 1_545 S
C917 C921 1.393 . S
C918 H899 0.951 . S
C918 C916 1.388 . S
C918 C919 1.366 . S
C919 C918 1.366 . S
C919 C920 1.414 1_565 S
C919 C922 1.499 . S
C920 H900 0.950 . S
C920 C919 1.414 1_545 S
C920 C921 1.374 . S
C921 H901 0.950 . S
C921 C917 1.393 . S
C921 C920 1.374 . S
C922 C919 1.499 . S
C922 C923 1.373 1_565 S
C922 C924 1.389 . S
C923 H902 0.950 . S
C923 C922 1.373 1_545 S
C923 C939 1.377 . S
C924 C922 1.389 . S
C924 C925 1.524 . S
C924 C938 1.377 . S
C925 C924 1.524 . S
C925 C926 1.397 . S
C925 C930 1.363 . S
C926 H903 0.950 . S
C926 C925 1.397 . S
C926 C927 1.334 . S
C927 H904 0.950 . S
C927 C926 1.334 . S
C927 C928 1.287 . S
C928 C927 1.287 . S
C928 C929 1.524 . S
C928 H947 0.913 . S
C929 H905 0.950 . S
C929 C928 1.524 . S
C929 C930 1.415 . S
C930 H906 0.950 . S
C930 C925 1.363 . S
C930 C929 1.415 . S
C931 H907 0.951 . S
C931 C932 1.366 . S
C931 C933 1.388 . S
C932 C931 1.366 . S
C932 C936 1.385 . S
C933 H908 0.965 . S
C933 C931 1.388 . S
C933 C934 1.366 . S
C934 C933 1.366 . S
C934 C935 1.414 . S
C934 C937 1.499 . S
C935 H909 0.950 . S
C935 C934 1.414 . S
C935 C936 1.374 . S
C936 H910 0.950 . S
C936 C932 1.385 . S
C936 C935 1.374 . S
C937 C934 1.499 . S
C937 C938 1.373 . S
C937 C939 1.389 1_565 S
C938 H911 0.950 . S
C938 C924 1.377 . S
C938 C937 1.373 . S
C939 C923 1.377 . S
C939 C937 1.389 1_545 S
C939 C940 1.524 . S
C940 C939 1.524 . S
C940 C941 1.397 . S
C940 C945 1.363 . S
C941 H912 0.950 . S
C941 C940 1.397 . S
C941 C942 1.334 . S
C942 H913 0.950 . S
C942 C941 1.334 . S
C942 C943 1.287 . S
C943 C942 1.287 . S
C943 C944 1.524 . S
C943 H946 0.999 . S
C944 H914 0.950 . S
C944 C943 1.524 . S
C944 C945 1.415 . S
C945 H915 0.950 . S
C945 C940 1.363 . S
C945 C944 1.415 . S
H946 C943 0.999 . S
H947 C928 0.913 . S
H948 C966 0.951 . S
H949 C968 0.951 . S
H950 C970 0.950 . S
H951 C971 0.950 . S
H952 C973 0.950 . S
H953 C976 0.950 . S
H954 C977 0.950 . S
H955 C979 0.950 . S
H956 C980 0.950 . S
H957 C981 0.951 . S
H958 C983 0.951 . S
H959 C985 0.950 . S
H960 C986 0.950 . S
H961 C988 0.950 . S
H962 C991 0.950 . S
H963 C992 0.950 . S
H964 C994 0.950 . S
H965 C995 0.950 . S
C966 H948 0.951 . S
C966 C967 1.366 . S
C966 C968 1.388 . S
C967 C966 1.366 . S
C967 C971 1.385 . S
C968 H949 0.951 . S
C968 C966 1.388 . S
C968 C969 1.366 . S
C969 C968 1.366 . S
C969 C970 1.414 . S
C969 C972 1.499 . S
C970 H950 0.950 . S
C970 C969 1.414 . S
C970 C971 1.374 . S
C971 H951 0.950 . S
C971 C967 1.385 . S
C971 C970 1.374 . S
C972 C969 1.499 . S
C972 C973 1.373 . S
C972 C974 1.389 . S
C973 H952 0.950 . S
C973 C972 1.373 . S
C973 C989 1.377 . S
C974 C972 1.389 . S
C974 C975 1.524 . S
C974 C988 1.377 . S
C975 C974 1.524 . S
C975 C976 1.397 . S
C975 C980 1.363 . S
C976 H953 0.950 . S
C976 C975 1.397 . S
C976 C977 1.334 . S
C977 H954 0.950 . S
C977 C976 1.334 . S
C977 C978 1.287 . S
C978 C977 1.287 . S
C978 C979 1.524 . S
C978 H997 0.913 . S
C979 H955 0.950 . S
C979 C978 1.524 . S
C979 C980 1.415 . S
C980 H956 0.950 . S
C980 C975 1.363 . S
C980 C979 1.415 . S
C981 H957 0.951 . S
C981 C982 1.366 . S
C981 C983 1.388 . S
C982 C981 1.366 . S
C982 C986 1.385 . S
C983 H958 0.951 . S
C983 C981 1.388 . S
C983 C984 1.366 . S
C984 C983 1.366 . S
C984 C985 1.414 . S
C984 C987 1.499 . S
C985 H959 0.950 . S
C985 C984 1.414 . S
C985 C986 1.374 . S
C986 H960 0.950 . S
C986 C982 1.385 . S
C986 C985 1.374 . S
C987 C984 1.499 . S
C987 C988 1.373 . S
C987 C989 1.389 . S
C988 H961 0.950 . S
C988 C974 1.377 . S
C988 C987 1.373 . S
C989 C973 1.377 . S
C989 C987 1.389 . S
C989 C990 1.524 . S
C990 C989 1.524 . S
C990 C991 1.397 . S
C990 C995 1.363 . S
C991 H962 0.950 . S
C991 C990 1.397 . S
C991 C992 1.334 . S
C992 H963 0.950 . S
C992 C991 1.334 . S
C992 C993 1.287 . S
C993 C992 1.287 . S
C993 C994 1.524 . S
C993 H996 0.999 . S
C994 H964 0.950 . S
C994 C993 1.524 . S
C994 C995 1.415 . S
C995 H965 0.950 . S
C995 C990 1.363 . S
C995 C994 1.415 . S
H996 C993 0.999 . S
H997 C978 0.913 . S
H998 C1016 0.951 . S
H999 C1018 0.951 . S
H1000 C1020 0.950 . S
H1001 C1021 0.950 . S
H1002 C1023 0.950 . S
H1003 C1026 0.950 . S
H1004 C1027 0.950 . S
H1005 C1029 0.950 . S
H1006 C1030 0.950 . S
H1007 C1031 0.951 . S
H1008 C1033 0.951 . S
H1009 C1035 0.950 . S
H1010 C1036 0.950 . S
H1011 C1038 0.950 . S
H1012 C1041 0.950 . S
H1013 C1042 0.950 . S
H1014 C1044 0.950 . S
H1015 C1045 0.950 . S
C1016 H998 0.951 . S
C1016 C1017 1.366 . S
C1016 C1018 1.388 . S
C1017 C1016 1.366 . S
C1017 C1021 1.385 . S
C1018 H999 0.951 . S
C1018 C1016 1.388 . S
C1018 C1019 1.366 . S
C1019 C1018 1.366 . S
C1019 C1020 1.414 . S
C1019 C1022 1.499 . S
C1020 H1000 0.950 . S
C1020 C1019 1.414 . S
C1020 C1021 1.374 . S
C1021 H1001 0.950 . S
C1021 C1017 1.385 . S
C1021 C1020 1.374 . S
C1022 C1019 1.499 . S
C1022 C1023 1.373 . S
C1022 C1024 1.389 . S
C1023 H1002 0.950 . S
C1023 C1022 1.373 . S
C1023 C1039 1.377 . S
C1024 C1022 1.389 . S
C1024 C1025 1.524 . S
C1024 C1038 1.377 . S
C1025 C1024 1.524 . S
C1025 C1026 1.397 . S
C1025 C1030 1.363 . S
C1026 H1003 0.950 . S
C1026 C1025 1.397 . S
C1026 C1027 1.334 . S
C1027 H1004 0.950 . S
C1027 C1026 1.334 . S
C1027 C1028 1.287 . S
C1028 C1027 1.287 . S
C1028 C1029 1.524 . S
C1028 H1047 0.913 . S
C1029 H1005 0.950 . S
C1029 C1028 1.524 . S
C1029 C1030 1.415 . S
C1030 H1006 0.950 . S
C1030 C1025 1.363 . S
C1030 C1029 1.415 . S
C1031 H1007 0.951 . S
C1031 C1032 1.366 . S
C1031 C1033 1.388 . S
C1032 C1031 1.366 . S
C1032 C1036 1.385 . S
C1033 H1008 0.951 . S
C1033 C1031 1.388 . S
C1033 C1034 1.366 . S
C1034 C1033 1.366 . S
C1034 C1035 1.414 . S
C1034 C1037 1.499 . S
C1035 H1009 0.950 . S
C1035 C1034 1.414 . S
C1035 C1036 1.374 . S
C1036 H1010 0.950 . S
C1036 C1032 1.385 . S
C1036 C1035 1.374 . S
C1037 C1034 1.499 . S
C1037 C1038 1.373 . S
C1037 C1039 1.389 . S
C1038 H1011 0.950 . S
C1038 C1024 1.377 . S
C1038 C1037 1.373 . S
C1039 C1023 1.377 . S
C1039 C1037 1.389 . S
C1039 C1040 1.524 . S
C1040 C1039 1.524 . S
C1040 C1041 1.397 . S
C1040 C1045 1.363 . S
C1041 H1012 0.950 . S
C1041 C1040 1.397 . S
C1041 C1042 1.334 . S
C1042 H1013 0.950 . S
C1042 C1041 1.334 . S
C1042 C1043 1.287 . S
C1043 C1042 1.287 . S
C1043 C1044 1.524 . S
C1043 H1046 0.999 . S
C1044 H1014 0.950 . S
C1044 C1043 1.524 . S
C1044 C1045 1.415 . S
C1045 H1015 0.950 . S
C1045 C1040 1.363 . S
C1045 C1044 1.415 . S
H1046 C1043 0.999 . S
H1047 C1028 0.913 . S
H1048 C1066 0.951 . S
H1049 C1068 0.951 . S
H1050 C1070 0.950 . S
H1051 C1071 0.950 . S
H1052 C1073 0.950 . S
H1053 C1076 0.950 . S
H1054 C1077 0.950 . S
H1055 C1079 0.950 . S
H1056 C1080 0.950 . S
H1057 C1081 0.951 . S
H1058 C1083 0.951 . S
H1059 C1085 0.950 . S
H1060 C1086 0.943 1_655 S
H1061 C1088 0.950 . S
H1062 C1091 0.942 1_655 S
H1063 C1092 0.950 . S
H1064 C1094 0.950 . S
H1065 C1095 0.950 . S
C1066 H1048 0.951 . S
C1066 C1067 1.366 . S
C1066 C1068 1.388 . S
C1067 C1066 1.366 . S
C1067 C1071 1.385 . S
C1068 H1049 0.951 . S
C1068 C1066 1.388 . S
C1068 C1069 1.366 . S
C1069 C1068 1.366 . S
C1069 C1070 1.414 . S
C1069 C1072 1.499 . S
C1070 H1050 0.950 . S
C1070 C1069 1.414 . S
C1070 C1071 1.374 . S
C1071 H1051 0.950 . S
C1071 C1067 1.385 . S
C1071 C1070 1.374 . S
C1072 C1069 1.499 . S
C1072 C1073 1.373 . S
C1072 C1074 1.389 . S
C1073 H1052 0.950 . S
C1073 C1072 1.373 . S
C1073 C1089 1.377 . S
C1074 C1072 1.389 . S
C1074 C1075 1.524 . S
C1074 C1088 1.377 . S
C1075 C1074 1.524 . S
C1075 C1076 1.397 . S
C1075 C1080 1.363 . S
C1076 H1053 0.950 . S
C1076 C1075 1.397 . S
C1076 C1077 1.334 . S
C1077 H1054 0.950 . S
C1077 C1076 1.334 . S
C1077 C1078 1.287 . S
C1078 C1077 1.287 . S
C1078 C1079 1.524 . S
C1078 H1097 0.913 . S
C1079 H1055 0.950 . S
C1079 C1078 1.524 . S
C1079 C1080 1.415 . S
C1080 H1056 0.950 . S
C1080 C1075 1.363 . S
C1080 C1079 1.415 . S
C1081 H1057 0.951 . S
C1081 C1082 1.366 . S
C1081 C1083 1.388 . S
C1082 C1081 1.366 . S
C1082 C1086 1.401 . S
C1083 H1058 0.951 . S
C1083 C1081 1.388 . S
C1083 C1084 1.366 1_455 S
C1084 C1083 1.366 1_655 S
C1084 C1085 1.414 . S
C1084 C1087 1.499 . S
C1085 H1059 0.950 . S
C1085 C1084 1.414 . S
C1085 C1086 1.364 1_655 S
C1086 H1060 0.943 1_455 S
C1086 C1082 1.401 . S
C1086 C1085 1.364 1_455 S
C1087 C1084 1.499 . S
C1087 C1088 1.373 . S
C1087 C1089 1.389 . S
C1088 H1061 0.950 . S
C1088 C1074 1.377 . S
C1088 C1087 1.373 . S
C1089 C1073 1.377 . S
C1089 C1087 1.389 . S
C1089 C1090 1.512 1_655 S
C1090 C1089 1.512 1_455 S
C1090 C1091 1.397 . S
C1090 C1095 1.374 . S
C1091 H1062 0.942 1_455 S
C1091 C1090 1.397 . S
C1091 C1092 1.342 . S
C1092 H1063 0.950 . S
C1092 C1091 1.342 . S
C1092 C1093 1.287 . S
C1093 C1092 1.287 . S
C1093 C1094 1.524 . S
C1093 H1096 0.999 . S
C1094 H1064 0.950 . S
C1094 C1093 1.524 . S
C1094 C1095 1.415 . S
C1095 H1065 0.950 . S
C1095 C1090 1.374 . S
C1095 C1094 1.415 . S
H1096 C1093 0.999 . S
H1097 C1078 0.913 . S
H1098 C1116 0.951 . S
H1099 C1118 0.951 . S
H1100 C1120 0.950 . S
H1101 C1121 0.950 . S
H1102 C1123 0.950 . S
H1103 C1126 0.950 . S
H1104 C1127 0.950 . S
H1105 C1129 0.950 . S
H1106 C1130 0.950 . S
H1107 C1131 0.951 . S
H1108 C1133 0.951 . S
H1109 C1135 0.950 . S
H1110 C1136 0.959 . S
H1111 C1138 0.950 . S
H1112 C1141 0.950 . S
H1113 C1142 0.950 . S
H1114 C1144 0.950 . S
H1115 C1145 0.950 . S
C1116 H1098 0.951 . S
C1116 C1117 1.377 . S
C1116 C1118 1.388 . S
C1117 C1116 1.377 . S
C1117 C1121 1.372 1_565 S
C1118 H1099 0.951 . S
C1118 C1116 1.388 . S
C1118 C1119 1.339 1_565 S
C1119 C1118 1.339 1_545 S
C1119 C1120 1.441 . S
C1119 C1122 1.505 . S
C1120 H1100 0.950 . S
C1120 C1119 1.441 . S
C1120 C1121 1.374 . S
C1121 H1101 0.950 . S
C1121 C1117 1.372 1_545 S
C1121 C1120 1.374 . S
C1122 C1119 1.505 . S
C1122 C1123 1.373 . S
C1122 C1124 1.389 1_545 S
C1123 H1102 0.950 . S
C1123 C1122 1.373 . S
C1123 C1139 1.377 . S
C1124 C1122 1.389 1_565 S
C1124 C1125 1.524 . S
C1124 C1138 1.377 . S
C1125 C1124 1.524 . S
C1125 C1126 1.397 . S
C1125 C1130 1.363 . S
C1126 H1103 0.950 . S
C1126 C1125 1.397 . S
C1126 C1127 1.334 . S
C1127 H1104 0.950 . S
C1127 C1126 1.334 . S
C1127 C1128 1.287 . S
C1128 C1127 1.287 . S
C1128 C1129 1.524 . S
C1128 H1147 0.913 . S
C1129 H1105 0.950 . S
C1129 C1128 1.524 . S
C1129 C1130 1.415 . S
C1130 H1106 0.950 . S
C1130 C1125 1.363 . S
C1130 C1129 1.415 . S
C1131 H1107 0.951 . S
C1131 C1132 1.366 . S
C1131 C1133 1.388 . S
C1132 C1131 1.366 . S
C1132 C1136 1.375 1_545 S
C1133 H1108 0.951 . S
C1133 C1131 1.388 . S
C1133 C1134 1.366 . S
C1134 C1133 1.366 . S
C1134 C1135 1.414 1_545 S
C1134 C1137 1.499 . S
C1135 H1109 0.950 . S
C1135 C1134 1.414 1_565 S
C1135 C1136 1.375 . S
C1136 H1110 0.959 . S
C1136 C1132 1.375 1_565 S
C1136 C1135 1.375 . S
C1137 C1134 1.499 . S
C1137 C1138 1.373 1_545 S
C1137 C1139 1.389 . S
C1138 H1111 0.950 . S
C1138 C1124 1.377 . S
C1138 C1137 1.373 1_565 S
C1139 C1123 1.377 . S
C1139 C1137 1.389 . S
C1139 C1140 1.524 . S
C1140 C1139 1.524 . S
C1140 C1141 1.397 . S
C1140 C1145 1.363 . S
C1141 H1112 0.950 . S
C1141 C1140 1.397 . S
C1141 C1142 1.334 . S
C1142 H1113 0.950 . S
C1142 C1141 1.334 . S
C1142 C1143 1.287 . S
C1143 C1142 1.287 . S
C1143 C1144 1.524 . S
C1143 H1146 0.999 . S
C1144 H1114 0.950 . S
C1144 C1143 1.524 . S
C1144 C1145 1.415 . S
C1145 H1115 0.950 . S
C1145 C1140 1.363 . S
C1145 C1144 1.415 . S
H1146 C1143 0.999 . S
H1147 C1128 0.913 . S
H1148 C1166 0.951 . S
H1149 C1168 0.951 . S
H1150 C1170 0.950 . S
H1151 C1171 0.950 . S
H1152 C1173 0.950 . S
H1153 C1176 0.950 . S
H1154 C1177 0.950 . S
H1155 C1179 0.950 . S
H1156 C1180 0.950 . S
H1157 C1181 0.951 . S
H1158 C1183 0.951 . S
H1159 C1185 0.950 . S
H1160 C1186 0.950 . S
H1161 C1188 0.950 . S
H1162 C1191 0.950 . S
H1163 C1192 0.950 . S
H1164 C1194 0.950 . S
H1165 C1195 0.950 . S
C1166 H1148 0.951 . S
C1166 C1167 1.366 . S
C1166 C1168 1.388 . S
C1167 C1166 1.366 . S
C1167 C1171 1.385 . S
C1168 H1149 0.951 . S
C1168 C1166 1.388 . S
C1168 C1169 1.366 . S
C1169 C1168 1.366 . S
C1169 C1170 1.414 . S
C1169 C1172 1.499 . S
C1170 H1150 0.950 . S
C1170 C1169 1.414 . S
C1170 C1171 1.374 . S
C1171 H1151 0.950 . S
C1171 C1167 1.385 . S
C1171 C1170 1.374 . S
C1172 C1169 1.499 . S
C1172 C1173 1.373 . S
C1172 C1174 1.389 . S
C1173 H1152 0.950 . S
C1173 C1172 1.373 . S
C1173 C1189 1.377 . S
C1174 C1172 1.389 . S
C1174 C1175 1.524 . S
C1174 C1188 1.377 . S
C1175 C1174 1.524 . S
C1175 C1176 1.397 . S
C1175 C1180 1.363 . S
C1176 H1153 0.950 . S
C1176 C1175 1.397 . S
C1176 C1177 1.334 . S
C1177 H1154 0.950 . S
C1177 C1176 1.334 . S
C1177 C1178 1.287 . S
C1178 C1177 1.287 . S
C1178 C1179 1.524 . S
C1178 H1197 0.913 . S
C1179 H1155 0.950 . S
C1179 C1178 1.524 . S
C1179 C1180 1.415 . S
C1180 H1156 0.950 . S
C1180 C1175 1.363 . S
C1180 C1179 1.415 . S
C1181 H1157 0.951 . S
C1181 C1182 1.366 . S
C1181 C1183 1.388 . S
C1182 C1181 1.366 . S
C1182 C1186 1.385 . S
C1183 H1158 0.951 . S
C1183 C1181 1.388 . S
C1183 C1184 1.366 . S
C1184 C1183 1.366 . S
C1184 C1185 1.414 . S
C1184 C1187 1.499 . S
C1185 H1159 0.950 . S
C1185 C1184 1.414 . S
C1185 C1186 1.374 . S
C1186 H1160 0.950 . S
C1186 C1182 1.385 . S
C1186 C1185 1.374 . S
C1187 C1184 1.499 . S
C1187 C1188 1.373 . S
C1187 C1189 1.389 . S
C1188 H1161 0.950 . S
C1188 C1174 1.377 . S
C1188 C1187 1.373 . S
C1189 C1173 1.377 . S
C1189 C1187 1.389 . S
C1189 C1190 1.524 . S
C1190 C1189 1.524 . S
C1190 C1191 1.397 . S
C1190 C1195 1.363 . S
C1191 H1162 0.950 . S
C1191 C1190 1.397 . S
C1191 C1192 1.334 . S
C1192 H1163 0.950 . S
C1192 C1191 1.334 . S
C1192 C1193 1.287 . S
C1193 C1192 1.287 . S
C1193 C1194 1.524 . S
C1193 H1196 0.999 . S
C1194 H1164 0.950 . S
C1194 C1193 1.524 . S
C1194 C1195 1.415 . S
C1195 H1165 0.950 . S
C1195 C1190 1.363 . S
C1195 C1194 1.415 . S
H1196 C1193 0.999 . S
H1197 C1178 0.913 . S
H1198 C1216 0.951 1_554 S
H1199 C1218 0.951 . S
H1200 C1220 0.950 . S
H1201 C1221 0.950 . S
H1202 C1223 0.950 . S
H1203 C1226 0.950 . S
H1204 C1227 0.950 . S
H1205 C1229 0.950 . S
H1206 C1230 0.950 . S
H1207 C1231 0.951 . S
H1208 C1233 0.951 . S
H1209 C1235 0.950 . S
H1210 C1236 0.950 1_455 S
H1211 C1238 0.950 . S
H1212 C1241 0.950 . S
H1213 C1242 0.950 . S
H1214 C1244 0.950 . S
H1215 C1245 0.950 . S
C1216 H1198 0.951 1_556 S
C1216 C1217 1.366 . S
C1216 C1218 1.388 . S
C1217 C1216 1.366 . S
C1217 C1221 1.385 . S
C1218 H1199 0.951 . S
C1218 C1216 1.388 . S
C1218 C1219 1.366 . S
C1219 C1218 1.366 . S
C1219 C1220 1.414 . S
C1219 C1222 1.499 . S
C1220 H1200 0.950 . S
C1220 C1219 1.414 . S
C1220 C1221 1.374 . S
C1221 H1201 0.950 . S
C1221 C1217 1.385 . S
C1221 C1220 1.374 . S
C1222 C1219 1.499 . S
C1222 C1223 1.373 . S
C1222 C1224 1.389 . S
C1223 H1202 0.950 . S
C1223 C1222 1.373 . S
C1223 C1239 1.377 . S
C1224 C1222 1.389 . S
C1224 C1225 1.524 . S
C1224 C1238 1.377 . S
C1225 C1224 1.524 . S
C1225 C1226 1.397 . S
C1225 C1230 1.363 . S
C1226 H1203 0.950 . S
C1226 C1225 1.397 . S
C1226 C1227 1.334 1_556 S
C1227 H1204 0.950 . S
C1227 C1226 1.334 1_554 S
C1227 C1228 1.287 . S
C1228 C1227 1.287 . S
C1228 C1229 1.524 . S
C1228 H1247 0.913 . S
C1229 H1205 0.950 . S
C1229 C1228 1.524 . S
C1229 C1230 1.415 1_554 S
C1230 H1206 0.950 . S
C1230 C1225 1.363 . S
C1230 C1229 1.415 1_556 S
C1231 H1207 0.951 . S
C1231 C1232 1.366 . S
C1231 C1233 1.388 . S
C1232 C1231 1.366 . S
C1232 C1236 1.385 . S
C1233 H1208 0.951 . S
C1233 C1231 1.388 . S
C1233 C1234 1.366 . S
C1234 C1233 1.366 . S
C1234 C1235 1.414 . S
C1234 C1237 1.499 . S
C1235 H1209 0.950 . S
C1235 C1234 1.414 . S
C1235 C1236 1.374 . S
C1236 H1210 0.950 1_655 S
C1236 C1232 1.385 . S
C1236 C1235 1.374 . S
C1237 C1234 1.499 . S
C1237 C1238 1.373 . S
C1237 C1239 1.389 . S
C1238 H1211 0.950 . S
C1238 C1224 1.377 . S
C1238 C1237 1.373 . S
C1239 C1223 1.377 . S
C1239 C1237 1.389 . S
C1239 C1240 1.524 . S
C1240 C1239 1.524 . S
C1240 C1241 1.397 . S
C1240 C1245 1.363 . S
C1241 H1212 0.950 . S
C1241 C1240 1.397 . S
C1241 C1242 1.334 . S
C1242 H1213 0.950 . S
C1242 C1241 1.334 . S
C1242 C1243 1.287 . S
C1243 C1242 1.287 . S
C1243 C1244 1.524 . S
C1243 H1246 0.999 . S
C1244 H1214 0.950 . S
C1244 C1243 1.524 . S
C1244 C1245 1.415 . S
C1245 H1215 0.950 . S
C1245 C1240 1.363 . S
C1245 C1244 1.415 . S
H1246 C1243 0.999 . S
H1247 C1228 0.913 . S
H1248 C1266 0.951 . S
H1249 C1268 0.951 . S
H1250 C1270 0.950 . S
H1251 C1271 0.950 . S
H1252 C1273 0.950 . S
H1253 C1276 0.950 . S
H1254 C1277 0.950 . S
H1255 C1279 0.959 . S
H1256 C1280 0.950 . S
H1257 C1281 0.951 . S
H1258 C1283 0.951 1_554 S
H1259 C1285 0.950 . S
H1260 C1286 0.950 . S
H1261 C1288 0.950 . S
H1262 C1291 0.950 . S
H1263 C1292 0.950 . S
H1264 C1294 0.950 . S
H1265 C1295 0.950 . S
C1266 H1248 0.951 . S
C1266 C1267 1.366 . S
C1266 C1268 1.388 . S
C1267 C1266 1.366 . S
C1267 C1271 1.385 . S
C1268 H1249 0.951 . S
C1268 C1266 1.388 . S
C1268 C1269 1.366 . S
C1269 C1268 1.366 . S
C1269 C1270 1.414 . S
C1269 C1272 1.499 . S
C1270 H1250 0.950 . S
C1270 C1269 1.414 . S
C1270 C1271 1.374 . S
C1271 H1251 0.950 . S
C1271 C1267 1.385 . S
C1271 C1270 1.374 . S
C1272 C1269 1.499 . S
C1272 C1273 1.373 . S
C1272 C1274 1.389 . S
C1273 H1252 0.950 . S
C1273 C1272 1.373 . S
C1273 C1289 1.377 . S
C1274 C1272 1.389 . S
C1274 C1275 1.524 . S
C1274 C1288 1.377 1_554 S
C1275 C1274 1.524 . S
C1275 C1276 1.397 . S
C1275 C1280 1.363 1_554 S
C1276 H1253 0.950 . S
C1276 C1275 1.397 . S
C1276 C1277 1.334 . S
C1277 H1254 0.950 . S
C1277 C1276 1.334 . S
C1277 C1278 1.287 . S
C1278 C1277 1.287 . S
C1278 C1279 1.511 1_554 S
C1278 H1297 0.913 . S
C1279 H1255 0.959 . S
C1279 C1278 1.511 1_556 S
C1279 C1280 1.417 . S
C1280 H1256 0.950 . S
C1280 C1275 1.363 1_556 S
C1280 C1279 1.417 . S
C1281 H1257 0.951 . S
C1281 C1282 1.366 . S
C1281 C1283 1.388 . S
C1282 C1281 1.366 . S
C1282 C1286 1.385 . S
C1283 H1258 0.951 1_556 S
C1283 C1281 1.388 . S
C1283 C1284 1.366 . S
C1284 C1283 1.366 . S
C1284 C1285 1.414 . S
C1284 C1287 1.499 . S
C1285 H1259 0.950 . S
C1285 C1284 1.414 . S
C1285 C1286 1.374 . S
C1286 H1260 0.950 . S
C1286 C1282 1.385 . S
C1286 C1285 1.374 . S
C1287 C1284 1.499 . S
C1287 C1288 1.373 . S
C1287 C1289 1.389 1_556 S
C1288 H1261 0.950 . S
C1288 C1274 1.377 1_556 S
C1288 C1287 1.373 . S
C1289 C1273 1.377 . S
C1289 C1287 1.389 1_554 S
C1289 C1290 1.525 . S
C1290 C1289 1.525 . S
C1290 C1291 1.394 1_554 S
C1290 C1295 1.365 . S
C1291 H1262 0.950 . S
C1291 C1290 1.394 1_556 S
C1291 C1292 1.334 . S
C1292 H1263 0.950 . S
C1292 C1291 1.334 . S
C1292 C1293 1.287 . S
C1293 C1292 1.287 . S
C1293 C1294 1.524 1_556 S
C1293 H1296 0.999 . S
C1294 H1264 0.950 . S
C1294 C1293 1.524 1_554 S
C1294 C1295 1.415 . S
C1295 H1265 0.950 . S
C1295 C1290 1.365 . S
C1295 C1294 1.415 . S
H1296 C1293 0.999 . S
H1297 C1278 0.913 . S
H1298 C1316 0.950 1_556 S
H1299 C1318 0.951 . S
H1300 C1320 0.950 . S
H1301 C1321 0.950 . S
H1302 C1323 0.950 . S
H1303 C1326 0.950 . S
H1304 C1327 0.950 . S
H1305 C1329 0.950 . S
H1306 C1330 0.950 . S
H1307 C1331 0.952 . S
H1308 C1333 0.952 . S
H1309 C1335 0.950 . S
H1310 C1336 0.950 . S
H1311 C1338 0.950 . S
H1312 C1341 0.950 . S
H1313 C1342 0.950 . S
H1314 C1344 0.949 . S
H1315 C1345 0.950 1_554 S
C1316 H1298 0.950 1_554 S
C1316 C1317 1.369 . S
C1316 C1318 1.387 1_554 S
C1317 C1316 1.369 . S
C1317 C1321 1.382 1_545 S
C1318 H1299 0.951 . S
C1318 C1316 1.387 1_556 S
C1318 C1319 1.366 . S
C1319 C1318 1.366 . S
C1319 C1320 1.414 1_546 S
C1319 C1322 1.499 . S
C1320 H1300 0.950 . S
C1320 C1319 1.414 1_564 S
C1320 C1321 1.374 . S
C1321 H1301 0.950 . S
C1321 C1317 1.382 1_565 S
C1321 C1320 1.374 . S
C1322 C1319 1.499 . S
C1322 C1323 1.384 . S
C1322 C1324 1.379 1_545 S
C1323 H1302 0.950 . S
C1323 C1322 1.384 . S
C1323 C1339 1.377 . S
C1324 C1322 1.379 1_565 S
C1324 C1325 1.524 . S
C1324 C1338 1.377 . S
C1325 C1324 1.524 . S
C1325 C1326 1.397 . S
C1325 C1330 1.363 . S
C1326 H1303 0.950 . S
C1326 C1325 1.397 . S
C1326 C1327 1.334 . S
C1327 H1304 0.950 . S
C1327 C1326 1.334 . S
C1327 C1328 1.287 . S
C1328 C1327 1.287 . S
C1328 C1329 1.524 . S
C1328 H1347 0.913 . S
C1329 H1305 0.950 . S
C1329 C1328 1.524 . S
C1329 C1330 1.415 . S
C1330 H1306 0.950 . S
C1330 C1325 1.363 . S
C1330 C1329 1.415 . S
C1331 H1307 0.952 . S
C1331 C1332 1.366 . S
C1331 C1333 1.388 . S
C1332 C1331 1.366 . S
C1332 C1336 1.385 . S
C1333 H1308 0.952 . S
C1333 C1331 1.388 . S
C1333 C1334 1.366 . S
C1334 C1333 1.366 . S
C1334 C1335 1.414 . S
C1334 C1337 1.499 . S
C1335 H1309 0.950 . S
C1335 C1334 1.414 . S
C1335 C1336 1.374 . S
C1336 H1310 0.950 . S
C1336 C1332 1.385 . S
C1336 C1335 1.374 . S
C1337 C1334 1.499 . S
C1337 C1338 1.373 1_545 S
C1337 C1339 1.389 . S
C1338 H1311 0.950 . S
C1338 C1324 1.377 . S
C1338 C1337 1.373 1_565 S
C1339 C1323 1.377 . S
C1339 C1337 1.389 . S
C1339 C1340 1.524 . S
C1340 C1339 1.524 . S
C1340 C1341 1.397 . S
C1340 C1345 1.363 . S
C1341 H1312 0.950 . S
C1341 C1340 1.397 . S
C1341 C1342 1.334 . S
C1342 H1313 0.950 . S
C1342 C1341 1.334 . S
C1342 C1343 1.287 . S
C1343 C1342 1.287 . S
C1343 C1344 1.524 1_556 S
C1343 H1346 0.999 . S
C1344 H1314 0.949 . S
C1344 C1343 1.524 1_554 S
C1344 C1345 1.415 1_554 S
C1345 H1315 0.950 1_556 S
C1345 C1340 1.363 . S
C1345 C1344 1.415 1_556 S
H1346 C1343 0.999 . S
H1347 C1328 0.913 . S
H1348 C1366 0.953 . S
H1349 C1368 0.951 . S
H1350 C1370 0.950 . S
H1351 C1371 0.950 . S
H1352 C1373 0.950 . S
H1353 C1376 0.950 . S
H1354 C1377 0.950 . S
H1355 C1379 0.950 . S
H1356 C1380 0.950 . S
H1357 C1381 0.951 . S
H1358 C1383 0.951 . S
H1359 C1385 0.950 . S
H1360 C1386 0.950 . S
H1361 C1388 0.950 . S
H1362 C1391 0.950 . S
H1363 C1392 0.950 . S
H1364 C1394 0.950 . S
H1365 C1395 0.950 . S
C1366 H1348 0.953 . S
C1366 C1367 1.366 . S
C1366 C1368 1.388 1_554 S
C1367 C1366 1.366 . S
C1367 C1371 1.385 . S
C1368 H1349 0.951 . S
C1368 C1366 1.388 1_556 S
C1368 C1369 1.366 . S
C1369 C1368 1.366 . S
C1369 C1370 1.414 1_556 S
C1369 C1372 1.499 . S
C1370 H1350 0.950 . S
C1370 C1369 1.414 1_554 S
C1370 C1371 1.374 . S
C1371 H1351 0.950 . S
C1371 C1367 1.385 . S
C1371 C1370 1.374 . S
C1372 C1369 1.499 . S
C1372 C1373 1.373 . S
C1372 C1374 1.389 . S
C1373 H1352 0.950 . S
C1373 C1372 1.373 . S
C1373 C1389 1.377 . S
C1374 C1372 1.389 . S
C1374 C1375 1.524 . S
C1374 C1388 1.377 . S
C1375 C1374 1.524 . S
C1375 C1376 1.397 1_556 S
C1375 C1380 1.363 . S
C1376 H1353 0.950 . S
C1376 C1375 1.397 1_554 S
C1376 C1377 1.334 . S
C1377 H1354 0.950 . S
C1377 C1376 1.334 . S
C1377 C1378 1.277 1_554 S
C1378 C1377 1.277 1_556 S
C1378 C1379 1.539 . S
C1378 H1397 0.907 1_556 S
C1379 H1355 0.950 . S
C1379 C1378 1.539 . S
C1379 C1380 1.415 . S
C1380 H1356 0.950 . S
C1380 C1375 1.363 . S
C1380 C1379 1.415 . S
C1381 H1357 0.951 . S
C1381 C1382 1.366 . S
C1381 C1383 1.388 . S
C1382 C1381 1.366 . S
C1382 C1386 1.385 . S
C1383 H1358 0.951 . S
C1383 C1381 1.388 . S
C1383 C1384 1.366 . S
C1384 C1383 1.366 . S
C1384 C1385 1.414 . S
C1384 C1387 1.499 . S
C1385 H1359 0.950 . S
C1385 C1384 1.414 . S
C1385 C1386 1.374 . S
C1386 H1360 0.950 . S
C1386 C1382 1.385 . S
C1386 C1385 1.374 . S
C1387 C1384 1.499 . S
C1387 C1388 1.373 . S
C1387 C1389 1.389 . S
C1388 H1361 0.950 . S
C1388 C1374 1.377 . S
C1388 C1387 1.373 . S
C1389 C1373 1.377 . S
C1389 C1387 1.389 . S
C1389 C1390 1.524 . S
C1390 C1389 1.524 . S
C1390 C1391 1.397 . S
C1390 C1395 1.363 . S
C1391 H1362 0.950 . S
C1391 C1390 1.397 . S
C1391 C1392 1.334 . S
C1392 H1363 0.950 . S
C1392 C1391 1.334 . S
C1392 C1393 1.287 . S
C1393 C1392 1.287 . S
C1393 C1394 1.524 . S
C1393 H1396 0.999 . S
C1394 H1364 0.950 . S
C1394 C1393 1.524 . S
C1394 C1395 1.415 . S
C1395 H1365 0.950 . S
C1395 C1390 1.363 . S
C1395 C1394 1.415 . S
H1396 C1393 0.999 . S
H1397 C1378 0.907 1_554 S
H1398 C1416 0.951 . S
H1399 C1418 0.951 . S
H1400 C1420 0.953 . S
H1401 C1421 0.950 . S
H1402 C1423 0.950 . S
H1403 C1426 0.950 . S
H1404 C1427 0.950 . S
H1405 C1429 0.950 . S
H1406 C1430 0.950 . S
H1407 C1431 0.951 . S
H1408 C1433 0.951 . S
H1409 C1435 0.950 . S
H1410 C1436 0.950 . S
H1411 C1438 0.950 . S
H1412 C1441 0.950 . S
H1413 C1442 0.950 . S
H1414 C1444 0.950 . S
H1415 C1445 0.950 . S
C1416 H1398 0.951 . S
C1416 C1417 1.366 1_556 S
C1416 C1418 1.388 . S
C1417 C1416 1.366 1_554 S
C1417 C1421 1.385 . S
C1418 H1399 0.951 . S
C1418 C1416 1.388 . S
C1418 C1419 1.366 . S
C1419 C1418 1.366 . S
C1419 C1420 1.414 . S
C1419 C1422 1.499 . S
C1420 H1400 0.953 . S
C1420 C1419 1.414 . S
C1420 C1421 1.374 1_556 S
C1421 H1401 0.950 . S
C1421 C1417 1.385 . S
C1421 C1420 1.374 1_554 S
C1422 C1419 1.499 . S
C1422 C1423 1.373 . S
C1422 C1424 1.389 . S
C1423 H1402 0.950 . S
C1423 C1422 1.373 . S
C1423 C1439 1.377 . S
C1424 C1422 1.389 . S
C1424 C1425 1.524 . S
C1424 C1438 1.377 . S
C1425 C1424 1.524 . S
C1425 C1426 1.397 . S
C1425 C1430 1.363 . S
C1426 H1403 0.950 . S
C1426 C1425 1.397 . S
C1426 C1427 1.334 . S
C1427 H1404 0.950 . S
C1427 C1426 1.334 . S
C1427 C1428 1.287 . S
C1428 C1427 1.287 . S
C1428 C1429 1.524 . S
C1428 H1447 0.913 . S
C1429 H1405 0.950 . S
C1429 C1428 1.524 . S
C1429 C1430 1.415 . S
C1430 H1406 0.950 . S
C1430 C1425 1.363 . S
C1430 C1429 1.415 . S
C1431 H1407 0.951 . S
C1431 C1432 1.366 . S
C1431 C1433 1.388 . S
C1432 C1431 1.366 . S
C1432 C1436 1.385 . S
C1433 H1408 0.951 . S
C1433 C1431 1.388 . S
C1433 C1434 1.366 . S
C1434 C1433 1.366 . S
C1434 C1435 1.414 . S
C1434 C1437 1.499 . S
C1435 H1409 0.950 . S
C1435 C1434 1.414 . S
C1435 C1436 1.374 . S
C1436 H1410 0.950 . S
C1436 C1432 1.385 . S
C1436 C1435 1.374 . S
C1437 C1434 1.499 . S
C1437 C1438 1.373 . S
C1437 C1439 1.389 . S
C1438 H1411 0.950 . S
C1438 C1424 1.377 . S
C1438 C1437 1.373 . S
C1439 C1423 1.377 . S
C1439 C1437 1.389 . S
C1439 C1440 1.524 . S
C1440 C1439 1.524 . S
C1440 C1441 1.397 . S
C1440 C1445 1.363 . S
C1441 H1412 0.950 . S
C1441 C1440 1.397 . S
C1441 C1442 1.334 . S
C1442 H1413 0.950 . S
C1442 C1441 1.334 . S
C1442 C1443 1.287 1_556 S
C1443 C1442 1.287 1_554 S
C1443 C1444 1.524 . S
C1443 H1446 0.999 . S
C1444 H1414 0.950 . S
C1444 C1443 1.524 . S
C1444 C1445 1.415 1_554 S
C1445 H1415 0.950 . S
C1445 C1440 1.363 . S
C1445 C1444 1.415 1_556 S
H1446 C1443 0.999 . S
H1447 C1428 0.913 . S
H1448 C1466 0.951 . S
H1449 C1468 0.951 . S
H1450 C1470 0.950 . S
H1451 C1471 0.950 . S
H1452 C1473 0.950 . S
H1453 C1476 0.950 . S
H1454 C1477 0.950 . S
H1455 C1479 0.950 . S
H1456 C1480 0.950 . S
H1457 C1481 0.951 . S
H1458 C1483 0.951 . S
H1459 C1485 0.950 . S
H1460 C1486 0.950 . S
H1461 C1488 0.950 . S
H1462 C1491 0.950 . S
H1463 C1492 0.950 . S
H1464 C1494 0.950 . S
H1465 C1495 0.950 . S
C1466 H1448 0.951 . S
C1466 C1467 1.366 . S
C1466 C1468 1.388 . S
C1467 C1466 1.366 . S
C1467 C1471 1.385 . S
C1468 H1449 0.951 . S
C1468 C1466 1.388 . S
C1468 C1469 1.366 . S
C1469 C1468 1.366 . S
C1469 C1470 1.414 . S
C1469 C1472 1.499 . S
C1470 H1450 0.950 . S
C1470 C1469 1.414 . S
C1470 C1471 1.374 . S
C1471 H1451 0.950 . S
C1471 C1467 1.385 . S
C1471 C1470 1.374 . S
C1472 C1469 1.499 . S
C1472 C1473 1.373 . S
C1472 C1474 1.389 . S
C1473 H1452 0.950 . S
C1473 C1472 1.373 . S
C1473 C1489 1.377 . S
C1474 C1472 1.389 . S
C1474 C1475 1.524 . S
C1474 C1488 1.377 . S
C1475 C1474 1.524 . S
C1475 C1476 1.397 . S
C1475 C1480 1.363 . S
C1476 H1453 0.950 . S
C1476 C1475 1.397 . S
C1476 C1477 1.334 . S
C1477 H1454 0.950 . S
C1477 C1476 1.334 . S
C1477 C1478 1.287 . S
C1478 C1477 1.287 . S
C1478 C1479 1.524 . S
C1478 H1497 0.913 . S
C1479 H1455 0.950 . S
C1479 C1478 1.524 . S
C1479 C1480 1.415 . S
C1480 H1456 0.950 . S
C1480 C1475 1.363 . S
C1480 C1479 1.415 . S
C1481 H1457 0.951 . S
C1481 C1482 1.366 . S
C1481 C1483 1.388 . S
C1482 C1481 1.366 . S
C1482 C1486 1.385 . S
C1483 H1458 0.951 . S
C1483 C1481 1.388 . S
C1483 C1484 1.366 . S
C1484 C1483 1.366 . S
C1484 C1485 1.414 . S
C1484 C1487 1.499 . S
C1485 H1459 0.950 . S
C1485 C1484 1.414 . S
C1485 C1486 1.374 . S
C1486 H1460 0.950 . S
C1486 C1482 1.385 . S
C1486 C1485 1.374 . S
C1487 C1484 1.499 . S
C1487 C1488 1.373 . S
C1487 C1489 1.389 . S
C1488 H1461 0.950 . S
C1488 C1474 1.377 . S
C1488 C1487 1.373 . S
C1489 C1473 1.377 . S
C1489 C1487 1.389 . S
C1489 C1490 1.524 . S
C1490 C1489 1.524 . S
C1490 C1491 1.397 . S
C1490 C1495 1.363 . S
C1491 H1462 0.950 . S
C1491 C1490 1.397 . S
C1491 C1492 1.334 . S
C1492 H1463 0.950 . S
C1492 C1491 1.334 . S
C1492 C1493 1.287 . S
C1493 C1492 1.287 . S
C1493 C1494 1.524 . S
C1493 H1496 0.999 . S
C1494 H1464 0.950 . S
C1494 C1493 1.524 . S
C1494 C1495 1.415 . S
C1495 H1465 0.950 . S
C1495 C1490 1.363 . S
C1495 C1494 1.415 . S
H1496 C1493 0.999 . S
H1497 C1478 0.913 . S
H1498 C1516 0.959 . S
H1499 C1518 0.954 . S
H1500 C1520 0.950 . S
H1501 C1521 0.952 . S
H1502 C1523 0.950 . S
H1503 C1526 0.950 . S
H1504 C1527 0.950 . S
H1505 C1529 0.950 . S
H1506 C1530 0.950 . S
H1507 C1531 0.951 . S
H1508 C1533 0.951 . S
H1509 C1535 0.950 . S
H1510 C1536 0.950 . S
H1511 C1538 0.950 . S
H1512 C1541 0.950 . S
H1513 C1542 0.950 . S
H1514 C1544 0.950 . S
H1515 C1545 0.950 . S
C1516 H1498 0.959 . S
C1516 C1517 1.366 . S
C1516 C1518 1.387 . S
C1517 C1516 1.366 . S
C1517 C1521 1.382 1_565 S
C1518 H1499 0.954 . S
C1518 C1516 1.387 . S
C1518 C1519 1.362 1_565 S
C1519 C1518 1.362 1_545 S
C1519 C1520 1.414 . S
C1519 C1522 1.499 1_545 S
C1520 H1500 0.950 . S
C1520 C1519 1.414 . S
C1520 C1521 1.374 . S
C1521 H1501 0.952 . S
C1521 C1517 1.382 1_545 S
C1521 C1520 1.374 . S
C1522 C1519 1.499 1_565 S
C1522 C1523 1.376 . S
C1522 C1524 1.386 1_565 S
C1523 H1502 0.950 . S
C1523 C1522 1.376 . S
C1523 C1539 1.377 . S
C1524 C1522 1.386 1_545 S
C1524 C1525 1.524 . S
C1524 C1538 1.377 . S
C1525 C1524 1.524 . S
C1525 C1526 1.397 . S
C1525 C1530 1.363 . S
C1526 H1503 0.950 . S
C1526 C1525 1.397 . S
C1526 C1527 1.334 . S
C1527 H1504 0.950 . S
C1527 C1526 1.334 . S
C1527 C1528 1.287 . S
C1528 C1527 1.287 . S
C1528 C1529 1.524 . S
C1528 H1547 0.913 . S
C1529 H1505 0.950 . S
C1529 C1528 1.524 . S
C1529 C1530 1.415 . S
C1530 H1506 0.950 . S
C1530 C1525 1.363 . S
C1530 C1529 1.415 . S
C1531 H1507 0.951 . S
C1531 C1532 1.366 . S
C1531 C1533 1.388 . S
C1532 C1531 1.366 . S
C1532 C1536 1.385 . S
C1533 H1508 0.951 . S
C1533 C1531 1.388 . S
C1533 C1534 1.366 . S
C1534 C1533 1.366 . S
C1534 C1535 1.414 . S
C1534 C1537 1.499 . S
C1535 H1509 0.950 . S
C1535 C1534 1.414 . S
C1535 C1536 1.374 . S
C1536 H1510 0.950 . S
C1536 C1532 1.385 . S
C1536 C1535 1.374 . S
C1537 C1534 1.499 . S
C1537 C1538 1.373 1_565 S
C1537 C1539 1.389 . S
C1538 H1511 0.950 . S
C1538 C1524 1.377 . S
C1538 C1537 1.373 1_545 S
C1539 C1523 1.377 . S
C1539 C1537 1.389 . S
C1539 C1540 1.524 . S
C1540 C1539 1.524 . S
C1540 C1541 1.397 . S
C1540 C1545 1.363 . S
C1541 H1512 0.950 . S
C1541 C1540 1.397 . S
C1541 C1542 1.334 . S
C1542 H1513 0.950 . S
C1542 C1541 1.334 . S
C1542 C1543 1.287 . S
C1543 C1542 1.287 . S
C1543 C1544 1.524 . S
C1543 H1546 0.999 . S
C1544 H1514 0.950 . S
C1544 C1543 1.524 . S
C1544 C1545 1.415 . S
C1545 H1515 0.950 . S
C1545 C1540 1.363 . S
C1545 C1544 1.415 . S
H1546 C1543 0.999 . S
H1547 C1528 0.913 . S
H1548 C1566 0.951 . S
H1549 C1568 0.951 . S
H1550 C1570 0.950 . S
H1551 C1571 0.950 . S
H1552 C1573 0.950 . S
H1553 C1576 0.950 . S
H1554 C1577 0.950 . S
H1555 C1579 0.950 . S
H1556 C1580 0.950 . S
H1557 C1581 0.951 . S
H1558 C1583 0.951 . S
H1559 C1585 0.950 . S
H1560 C1586 0.950 . S
H1561 C1588 0.950 . S
H1562 C1591 0.950 . S
H1563 C1592 0.950 . S
H1564 C1594 0.950 . S
H1565 C1595 0.950 . S
C1566 H1548 0.951 . S
C1566 C1567 1.366 . S
C1566 C1568 1.388 . S
C1567 C1566 1.366 . S
C1567 C1571 1.385 . S
C1568 H1549 0.951 . S
C1568 C1566 1.388 . S
C1568 C1569 1.366 . S
C1569 C1568 1.366 . S
C1569 C1570 1.414 . S
C1569 C1572 1.499 . S
C1570 H1550 0.950 . S
C1570 C1569 1.414 . S
C1570 C1571 1.374 . S
C1571 H1551 0.950 . S
C1571 C1567 1.385 . S
C1571 C1570 1.374 . S
C1572 C1569 1.499 . S
C1572 C1573 1.373 . S
C1572 C1574 1.389 . S
C1573 H1552 0.950 . S
C1573 C1572 1.373 . S
C1573 C1589 1.377 . S
C1574 C1572 1.389 . S
C1574 C1575 1.524 . S
C1574 C1588 1.377 . S
C1575 C1574 1.524 . S
C1575 C1576 1.397 . S
C1575 C1580 1.363 . S
C1576 H1553 0.950 . S
C1576 C1575 1.397 . S
C1576 C1577 1.334 . S
C1577 H1554 0.950 . S
C1577 C1576 1.334 . S
C1577 C1578 1.287 . S
C1578 C1577 1.287 . S
C1578 C1579 1.524 . S
C1578 H1597 0.913 . S
C1579 H1555 0.950 . S
C1579 C1578 1.524 . S
C1579 C1580 1.415 . S
C1580 H1556 0.950 . S
C1580 C1575 1.363 . S
C1580 C1579 1.415 . S
C1581 H1557 0.951 . S
C1581 C1582 1.366 . S
C1581 C1583 1.388 . S
C1582 C1581 1.366 . S
C1582 C1586 1.385 . S
C1583 H1558 0.951 . S
C1583 C1581 1.388 . S
C1583 C1584 1.366 . S
C1584 C1583 1.366 . S
C1584 C1585 1.414 . S
C1584 C1587 1.499 . S
C1585 H1559 0.950 . S
C1585 C1584 1.414 . S
C1585 C1586 1.374 . S
C1586 H1560 0.950 . S
C1586 C1582 1.385 . S
C1586 C1585 1.374 . S
C1587 C1584 1.499 . S
C1587 C1588 1.373 . S
C1587 C1589 1.389 . S
C1588 H1561 0.950 . S
C1588 C1574 1.377 . S
C1588 C1587 1.373 . S
C1589 C1573 1.377 . S
C1589 C1587 1.389 . S
C1589 C1590 1.524 . S
C1590 C1589 1.524 . S
C1590 C1591 1.397 . S
C1590 C1595 1.363 . S
C1591 H1562 0.950 . S
C1591 C1590 1.397 . S
C1591 C1592 1.334 . S
C1592 H1563 0.950 . S
C1592 C1591 1.334 . S
C1592 C1593 1.287 . S
C1593 C1592 1.287 . S
C1593 C1594 1.524 . S
C1593 H1596 0.999 . S
C1594 H1564 0.950 . S
C1594 C1593 1.524 . S
C1594 C1595 1.415 . S
C1595 H1565 0.950 . S
C1595 C1590 1.363 . S
C1595 C1594 1.415 . S
H1596 C1593 0.999 . S
H1597 C1578 0.913 . S
H1598 C1616 0.951 . S
H1599 C1618 0.951 . S
H1600 C1620 0.950 . S
H1601 C1621 0.950 . S
H1602 C1623 0.950 . S
H1603 C1626 0.950 . S
H1604 C1627 0.950 . S
H1605 C1629 0.950 . S
H1606 C1630 0.950 . S
H1607 C1631 0.951 . S
H1608 C1633 0.951 . S
H1609 C1635 0.950 . S
H1610 C1636 0.950 . S
H1611 C1638 0.950 . S
H1612 C1641 0.950 . S
H1613 C1642 0.950 . S
H1614 C1644 0.950 . S
H1615 C1645 0.950 . S
C1616 H1598 0.951 . S
C1616 C1617 1.366 . S
C1616 C1618 1.388 . S
C1617 C1616 1.366 . S
C1617 C1621 1.385 . S
C1618 H1599 0.951 . S
C1618 C1616 1.388 . S
C1618 C1619 1.366 . S
C1619 C1618 1.366 . S
C1619 C1620 1.414 . S
C1619 C1622 1.499 . S
C1620 H1600 0.950 . S
C1620 C1619 1.414 . S
C1620 C1621 1.374 . S
C1621 H1601 0.950 . S
C1621 C1617 1.385 . S
C1621 C1620 1.374 . S
C1622 C1619 1.499 . S
C1622 C1623 1.373 . S
C1622 C1624 1.389 . S
C1623 H1602 0.950 . S
C1623 C1622 1.373 . S
C1623 C1639 1.377 . S
C1624 C1622 1.389 . S
C1624 C1625 1.524 . S
C1624 C1638 1.377 . S
C1625 C1624 1.524 . S
C1625 C1626 1.397 . S
C1625 C1630 1.363 . S
C1626 H1603 0.950 . S
C1626 C1625 1.397 . S
C1626 C1627 1.334 . S
C1627 H1604 0.950 . S
C1627 C1626 1.334 . S
C1627 C1628 1.287 . S
C1628 C1627 1.287 . S
C1628 C1629 1.524 . S
C1628 H1647 0.913 . S
C1629 H1605 0.950 . S
C1629 C1628 1.524 . S
C1629 C1630 1.415 . S
C1630 H1606 0.950 . S
C1630 C1625 1.363 . S
C1630 C1629 1.415 . S
C1631 H1607 0.951 . S
C1631 C1632 1.366 . S
C1631 C1633 1.388 . S
C1632 C1631 1.366 . S
C1632 C1636 1.385 . S
C1633 H1608 0.951 . S
C1633 C1631 1.388 . S
C1633 C1634 1.366 . S
C1634 C1633 1.366 . S
C1634 C1635 1.414 . S
C1634 C1637 1.499 . S
C1635 H1609 0.950 . S
C1635 C1634 1.414 . S
C1635 C1636 1.374 . S
C1636 H1610 0.950 . S
C1636 C1632 1.385 . S
C1636 C1635 1.374 . S
C1637 C1634 1.499 . S
C1637 C1638 1.373 . S
C1637 C1639 1.389 . S
C1638 H1611 0.950 . S
C1638 C1624 1.377 . S
C1638 C1637 1.373 . S
C1639 C1623 1.377 . S
C1639 C1637 1.389 . S
C1639 C1640 1.524 . S
C1640 C1639 1.524 . S
C1640 C1641 1.397 . S
C1640 C1645 1.363 . S
C1641 H1612 0.950 . S
C1641 C1640 1.397 . S
C1641 C1642 1.334 . S
C1642 H1613 0.950 . S
C1642 C1641 1.334 . S
C1642 C1643 1.287 . S
C1643 C1642 1.287 . S
C1643 C1644 1.524 . S
C1643 H1646 0.999 . S
C1644 H1614 0.950 . S
C1644 C1643 1.524 . S
C1644 C1645 1.415 . S
C1645 H1615 0.950 . S
C1645 C1640 1.363 . S
C1645 C1644 1.415 . S
H1646 C1643 0.999 . S
H1647 C1628 0.913 . S
C467 C255 1.818 . S
C482 C329 1.834 . S
C532 C350 1.692 . S
C517 C294 1.655 . S
C582 C384 1.440 . S
C567 C177 1.424 . S
C632 C418 1.677 . S
C617 C216 1.644 . S
C682 C320 1.833 . S
C667 C99 1.820 1_546 S
C717 C138 1.652 . S
C732 C359 1.698 . S
C767 C21 1.418 . S
C782 C393 1.440 . S
C817 C60 1.655 . S
C832 C427 1.677 . S
C882 C341 0.461 . S
C867 C196 0.661 . S
C932 C346 0.189 . S
C917 C235 0.219 1_545 S
C982 C380 0.280 . S
C967 C289 0.367 . S
C1017 C157 0.375 . S
C1032 C414 0.250 . S
C1067 C40 0.632 . S
C1082 C312 0.459 . S
C1132 C375 0.185 . S
C1117 C79 0.219 . S
C1182 C409 0.282 . S
C1167 C133 0.357 . S
C1217 C1 0.401 . S
C1232 C443 0.250 . S
C1267 C211 1.618 . S
C1282 C325 1.690 . S
C1317 C250 1.997 . S
C1332 C354 2.086 . S
C1382 C388 1.836 . S
C1367 C274 1.754 . S
C1432 C422 1.845 . S
C1417 C172 1.747 . S
C1467 C55 1.615 . S
C1482 C316 1.701 . S
C1532 C363 2.087 . S
C1517 C94 1.998 1_565 S
C1582 C397 1.836 . S
C1567 C118 1.749 . S
C1617 C16 1.752 . S
C1632 C431 1.845 . S
