# Generated by pormake.
# Topology hwx, (6,3)-cn, num edge types: 1
# Building blocks:
#     Node 0, Type 0, BuildingBlock: IZENUY_clean_sbu_0, # of connection points: 6
#     Node 1, Type 0, BuildingBlock: IZENUY_clean_sbu_0, # of connection points: 6
#     Node 2, Type 0, BuildingBlock: IZENUY_clean_sbu_0, # of connection points: 6
#     Node 3, Type 0, BuildingBlock: IZENUY_clean_sbu_0, # of connection points: 6
#     Node 4, Type 1, BuildingBlock: QEWDON_clean_linker_0, # of connection points: 3
#     Node 5, Type 1, BuildingBlock: QEWDON_clean_linker_0, # of connection points: 3
#     Node 6, Type 1, BuildingBlock: QEWDON_clean_linker_0, # of connection points: 3
#     Node 7, Type 1, BuildingBlock: QEWDON_clean_linker_0, # of connection points: 3
#     Node 8, Type 1, BuildingBlock: QEWDON_clean_linker_0, # of connection points: 3
#     Node 9, Type 1, BuildingBlock: QEWDON_clean_linker_0, # of connection points: 3
#     Node 10, Type 1, BuildingBlock: QEWDON_clean_linker_0, # of connection points: 3
#     Node 11, Type 1, BuildingBlock: QEWDON_clean_linker_0, # of connection points: 3
#     Edge 12, Type (0, 1), BuildingBlock: EZIPEK_clean_linker_0, # of connection points: 2
#     Edge 13, Type (0, 1), BuildingBlock: EZIPEK_clean_linker_0, # of connection points: 2
#     Edge 14, Type (0, 1), BuildingBlock: EZIPEK_clean_linker_0, # of connection points: 2
#     Edge 15, Type (0, 1), BuildingBlock: EZIPEK_clean_linker_0, # of connection points: 2
#     Edge 16, Type (0, 1), BuildingBlock: EZIPEK_clean_linker_0, # of connection points: 2
#     Edge 17, Type (0, 1), BuildingBlock: EZIPEK_clean_linker_0, # of connection points: 2
#     Edge 18, Type (0, 1), BuildingBlock: EZIPEK_clean_linker_0, # of connection points: 2
#     Edge 19, Type (0, 1), BuildingBlock: EZIPEK_clean_linker_0, # of connection points: 2
#     Edge 20, Type (0, 1), BuildingBlock: EZIPEK_clean_linker_0, # of connection points: 2
#     Edge 21, Type (0, 1), BuildingBlock: EZIPEK_clean_linker_0, # of connection points: 2
#     Edge 22, Type (0, 1), BuildingBlock: EZIPEK_clean_linker_0, # of connection points: 2
#     Edge 23, Type (0, 1), BuildingBlock: EZIPEK_clean_linker_0, # of connection points: 2
#     Edge 24, Type (0, 1), BuildingBlock: EZIPEK_clean_linker_0, # of connection points: 2
#     Edge 25, Type (0, 1), BuildingBlock: EZIPEK_clean_linker_0, # of connection points: 2
#     Edge 26, Type (0, 1), BuildingBlock: EZIPEK_clean_linker_0, # of connection points: 2
#     Edge 27, Type (0, 1), BuildingBlock: EZIPEK_clean_linker_0, # of connection points: 2
#     Edge 28, Type (0, 1), BuildingBlock: EZIPEK_clean_linker_0, # of connection points: 2
#     Edge 29, Type (0, 1), BuildingBlock: EZIPEK_clean_linker_0, # of connection points: 2
#     Edge 30, Type (0, 1), BuildingBlock: EZIPEK_clean_linker_0, # of connection points: 2
#     Edge 31, Type (0, 1), BuildingBlock: EZIPEK_clean_linker_0, # of connection points: 2
#     Edge 32, Type (0, 1), BuildingBlock: EZIPEK_clean_linker_0, # of connection points: 2
#     Edge 33, Type (0, 1), BuildingBlock: EZIPEK_clean_linker_0, # of connection points: 2
#     Edge 34, Type (0, 1), BuildingBlock: EZIPEK_clean_linker_0, # of connection points: 2
#     Edge 35, Type (0, 1), BuildingBlock: EZIPEK_clean_linker_0, # of connection points: 2
# Relax obj value: 0.005
# Max RMSD: 0.109
# Mean RMSD: 0.087
data_MOF--net-hwx--node1-IZENUY_clean_sbu_0--node2-QEWDON_clean_linker_0--edge1-EZIPEK_clean_linker_0
_symmetry_space_group_name_H-M    P1
_symmetry_Int_Tables_number       1
_symmetry_cell_setting            triclinic
loop_
_symmetry_equiv_pos_as_xyz
'x, y, z'
_cell_length_a     40.3934
_cell_length_b     40.305498
_cell_length_c     14.92419
_cell_angle_alpha  92.21551
_cell_angle_beta   91.923539
_cell_angle_gamma 89.896198
loop_
_atom_site_label
_atom_site_type_symbol
_atom_site_fract_x
_atom_site_fract_y
_atom_site_fract_z
_atom_type_partial_charge
Fe0 Fe 0.25053 0.25901 0.1022 0.0
Fe1 Fe 0.24529 0.25831 0.89821 0.0
O2 O 0.23246 0.24319 0.00037 0.0
Fe3 Fe 0.20166 0.212 0.00067 0.0
O4 O 0.18481 0.22657 0.10873 0.0
O5 O 0.21018 0.27376 0.13872 0.0
O6 O 0.25782 0.30127 0.06169 0.0
C7 C 0.24529 0.31641 0.9955 0.0
C8 C 0.24344 0.1897 0.13079 0.0
O9 O 0.23264 0.30024 0.92909 0.0
C10 C 0.23981 0.19255 0.85164 0.0
O11 O 0.29162 0.24509 0.0699 0.0
O12 O 0.28862 0.26626 0.93693 0.0
O13 O 0.22982 0.1836 0.05494 0.0
O14 O 0.24694 0.21948 0.16119 0.0
C15 C 0.17573 0.25063 0.87111 0.0
O16 O 0.25868 0.21722 0.86274 0.0
O17 O 0.2129 0.19175 0.89261 0.0
C18 C 0.30555 0.25324 -0.0007 0.0
O19 O 0.20444 0.25323 0.84036 0.0
O20 O 0.17155 0.2384 0.94614 0.0
C21 C 0.18561 0.25501 0.14814 0.0
Fe22 Fe 0.27832 0.76565 0.60964 0.0
Fe23 Fe 0.31915 0.71279 0.50869 0.0
O24 O 0.28896 0.74475 0.50804 0.0
Fe25 Fe 0.2692 0.7558 0.40569 0.0
O26 O 0.26391 0.80018 0.43926 0.0
O27 O 0.29125 0.80529 0.56855 0.0
O28 O 0.31992 0.7623 0.66308 0.0
C29 C 0.3481 0.75594 0.63163 0.0
C30 C 0.21632 0.75695 0.51658 0.0
O31 O 0.35068 0.74064 0.5571 0.0
C32 C 0.27553 0.68549 0.38508 0.0
O33 O 0.26513 0.7272 0.65731 0.0
O34 O 0.30859 0.69775 0.61873 0.0
O35 O 0.22882 0.74485 0.44603 0.0
O36 O 0.23444 0.77263 0.57502 0.0
C37 C 0.33329 0.74795 0.35369 0.0
O38 O 0.28976 0.68263 0.46058 0.0
O39 O 0.27106 0.71382 0.35274 0.0
C40 C 0.2827 0.70146 0.66335 0.0
O41 O 0.33535 0.72197 0.39861 0.0
O42 O 0.30851 0.76694 0.35916 0.0
C43 C 0.27991 0.81797 0.49779 0.0
Fe44 Fe 0.77771 0.78393 0.92009 0.0
Fe45 Fe 0.77478 0.79131 0.12399 0.0
O46 O 0.79117 0.80379 0.02265 0.0
Fe47 Fe 0.82148 0.8356 0.02494 0.0
O48 O 0.80806 0.85168 0.91611 0.0
O49 O 0.76323 0.82304 0.87547 0.0
O50 O 0.73476 0.77665 0.95637 0.0
C51 C 0.7184 0.78952 0.02047 0.0
C52 C 0.84713 0.79321 0.89881 0.0
O53 O 0.73328 0.80296 0.08795 0.0
C54 C 0.83977 0.79838 0.17626 0.0
O55 O 0.79176 0.74362 0.95749 0.0
O56 O 0.76808 0.74743 0.08702 0.0
O57 O 0.85153 0.80807 0.97395 0.0
O58 O 0.81811 0.7875 0.86637 0.0
C59 C 0.78043 0.86135 0.14996 0.0
O60 O 0.81553 0.77898 0.16439 0.0
O61 O 0.84043 0.8252 0.13486 0.0
C62 C 0.78234 0.73012 0.02718 0.0
O63 O 0.77822 0.83264 0.18097 0.0
O64 O 0.79351 0.86547 0.07587 0.0
C65 C 0.78114 0.84856 0.87056 0.0
Fe66 Fe 0.69802 0.33793 0.50604 0.0
Fe67 Fe 0.7427 0.29129 0.61496 0.0
O68 O 0.72866 0.30644 0.51075 0.0
Fe69 Fe 0.74501 0.28989 0.4104 0.0
O70 O 0.74126 0.32912 0.35011 0.0
O71 O 0.72576 0.36587 0.4531 0.0
O72 O 0.71094 0.3585 0.61362 0.0
C73 C 0.73794 0.3574 0.65912 0.0
C74 C 0.68031 0.29474 0.35741 0.0
O75 O 0.75638 0.33216 0.65478 0.0
C76 C 0.74127 0.23286 0.51804 0.0
O77 O 0.66831 0.31213 0.55889 0.0
O78 O 0.70208 0.2962 0.66806 0.0
O79 O 0.7044 0.2755 0.37116 0.0
O80 O 0.67951 0.3231 0.39702 0.0
C81 C 0.8017 0.29315 0.51269 0.0
O82 O 0.7298 0.24938 0.58307 0.0
O83 O 0.7525 0.24763 0.45197 0.0
C84 C 0.67299 0.29957 0.6342 0.0
O85 O 0.78587 0.28331 0.57912 0.0
O86 O 0.78628 0.30336 0.4445 0.0
C87 C 0.73936 0.35897 0.38001 0.0
H88 H 0.26513 0.54512 0.12946 0.0
C89 C 0.26155 0.56056 0.072 0.0
C90 C 0.25593 0.59476 0.08588 0.0
C91 C 0.26755 0.54739 0.98548 0.0
H92 H 0.25095 0.64188 0.02371 0.0
C93 C 0.25382 0.61528 0.01239 0.0
C94 C 0.25966 0.60255 0.92581 0.0
C95 C 0.26639 0.56854 0.91238 0.0
C96 C 0.28386 0.51462 0.97597 0.0
H97 H 0.27333 0.55911 0.84661 0.0
C98 C 0.26669 0.48456 0.98543 0.0
C99 C 0.28391 0.45406 0.97982 0.0
C100 C 0.31803 0.51389 0.96152 0.0
H101 H 0.33166 0.53676 0.95502 0.0
C102 C 0.33505 0.48383 0.95712 0.0
H103 H 0.24028 0.48484 0.99595 0.0
C104 C 0.31817 0.45411 0.96629 0.0
H105 H 0.3318 0.43095 0.96158 0.0
H106 H 0.36142 0.48355 0.94639 0.0
H107 H 0.97524 0.74867 0.39007 0.0
C108 C 0.96659 0.75598 0.45595 0.0
C109 C 0.93568 0.77168 0.46388 0.0
C110 C 0.98581 0.74861 0.53306 0.0
H111 H 0.90009 0.79146 0.55605 0.0
C112 C 0.92423 0.77993 0.54946 0.0
C113 C 0.94189 0.77055 0.62651 0.0
C114 C 0.97311 0.75545 0.61859 0.0
C115 C 0.01674 0.72935 0.52339 0.0
H116 H 0.98668 0.74774 0.67814 0.0
C117 C 0.04805 0.74486 0.52824 0.0
C118 C 0.07699 0.72576 0.51647 0.0
C119 C 1.01465 0.69491 0.50673 0.0
H120 H 0.99076 0.68266 0.50242 0.0
C121 C 0.0433 0.67604 0.49549 0.0
H122 H 0.0499 0.77147 0.54079 0.0
C123 C 0.0743 0.69132 0.50037 0.0
H124 H 0.0963 0.67627 0.49159 0.0
H125 H 0.04146 0.64947 0.48287 0.0
H126 H 0.7893 0.49474 0.89065 0.0
C127 C 0.78474 0.48276 0.95286 0.0
C128 C 0.77155 0.45051 0.95042 0.0
C129 C 0.79344 0.49888 0.03555 0.0
H130 H 0.75589 0.41007 0.02921 0.0
C131 C 0.76624 0.43493 0.03091 0.0
C132 C 0.77396 0.45095 0.1136 0.0
C133 C 0.7879 0.48292 0.11609 0.0
C134 C 0.81238 0.5302 0.03689 0.0
H135 H 0.79485 0.49504 0.18004 0.0
C136 C 0.79656 0.56135 0.03283 0.0
C137 C 0.81567 0.59062 0.03295 0.0
C138 C 0.84709 0.52858 0.04042 0.0
H139 H 0.85959 0.50481 0.04315 0.0
C140 C 0.86594 0.55752 0.03997 0.0
H141 H 0.76976 0.56284 0.03057 0.0
C142 C 0.85037 0.58838 0.03643 0.0
H143 H 0.8654 0.61063 0.03711 0.0
H144 H 0.89271 0.55605 0.04273 0.0
H145 H 0.03363 0.26872 0.63303 0.0
C146 C 0.04815 0.27232 0.57435 0.0
C147 C 0.08278 0.27341 0.58367 0.0
C148 C 0.03273 0.27081 0.4886 0.0
H149 H 0.12868 0.27409 0.51549 0.0
C150 C 0.10188 0.27475 0.50758 0.0
C151 C 0.08701 0.27525 0.42144 0.0
C152 C 0.05213 0.27389 0.41246 0.0
C153 C 0.99967 0.25516 0.47874 0.0
H154 H 0.04033 0.27216 0.34613 0.0
C155 C 0.96996 0.27279 0.49293 0.0
C156 C 0.93946 0.25556 0.48971 0.0
C157 C 0.99859 0.22065 0.46182 0.0
H158 H 0.02122 0.20668 0.45198 0.0
C159 C 0.96859 0.2037 0.45978 0.0
H160 H 0.9705 0.29943 0.50557 0.0
C161 C 0.93924 0.22096 0.47385 0.0
H162 H 0.91608 0.20735 0.47078 0.0
H163 H 0.96808 0.17707 0.44721 0.0
H164 H 0.76075 1.00242 0.3961 0.0
C165 C 0.75737 0.98739 0.45382 0.0
C166 C 0.7541 0.95281 0.44111 0.0
C167 C 0.76227 1.00161 0.54077 0.0
H168 H 0.7507 0.90618 0.50554 0.0
C169 C 0.75208 0.93296 0.51558 0.0
C170 C 0.75612 0.94677 0.60271 0.0
C171 C 0.76126 0.98115 0.61522 0.0
C172 C 0.77856 0.03445 0.55112 0.0
H173 H 0.76741 0.99145 0.68189 0.0
C174 C 0.76139 0.06451 0.5382 0.0
C175 C 0.77882 0.09493 0.54397 0.0
C176 C 0.8129 0.0351 0.56919 0.0
H177 H 0.82654 1.01222 0.57828 0.0
C178 C 0.8301 0.06505 0.57376 0.0
H179 H 0.73486 0.0643 0.52472 0.0
C180 C 0.81325 0.09476 0.56112 0.0
H181 H 0.82703 0.11784 0.56599 0.0
H182 H 0.8566 0.06525 0.58726 0.0
H183 H 0.54674 0.244 0.12807 0.0
C184 C 0.55521 0.25255 0.06475 0.0
C185 C 0.58584 0.26878 0.062 0.0
C186 C 0.53603 0.2463 0.98561 0.0
H187 H 0.62122 0.29054 0.97693 0.0
C188 C 0.59718 0.27871 0.97956 0.0
C189 C 0.57942 0.27079 0.89965 0.0
C190 C 0.54843 0.25504 0.90258 0.0
C191 C 0.50551 0.22636 0.98957 0.0
H192 H 0.53487 0.24826 0.84069 0.0
C193 C 0.47395 0.24134 0.98978 0.0
C194 C 0.44545 0.22167 0.99786 0.0
C195 C 0.5083 0.1919 0.99764 0.0
H196 H 0.53242 0.18007 0.99831 0.0
C197 C 0.48007 0.17247 0.00528 0.0
H198 H 0.47157 0.26796 0.9839 0.0
C199 C 0.4488 0.18722 0.00533 0.0
H200 H 0.42711 0.17174 0.01088 0.0
H201 H 0.48243 0.14588 0.01124 0.0
H202 H 0.29081 0.05668 0.6303 0.0
C203 C 0.2831 0.06624 0.56595 0.0
C204 C 0.26708 0.09715 0.56246 0.0
C205 C 0.29046 0.04835 0.48625 0.0
H206 H 0.24653 0.13398 0.4757 0.0
C207 C 0.25833 0.10981 0.47882 0.0
C208 C 0.2677 0.09352 0.39942 0.0
C209 C 0.28328 0.06237 0.4028 0.0
C210 C 0.30993 0.01741 0.49094 0.0
H211 H 0.29097 0.04984 0.34137 0.0
C212 C 0.29442 0.98609 0.48888 0.0
C213 C 0.31371 0.95704 0.49501 0.0
C214 C 0.34456 0.01945 0.49921 0.0
H215 H 0.35681 0.04338 0.50116 0.0
C216 C 0.36363 0.99067 0.50512 0.0
H217 H 0.26767 0.98431 0.48246 0.0
C218 C 0.34834 0.95962 0.50294 0.0
H219 H 0.36352 0.93751 0.50725 0.0
H220 H 0.39035 0.99243 0.51133 0.0
H221 H 0.48945 0.76896 0.88421 0.0
C222 C 0.47394 0.7709 0.94209 0.0
C223 C 0.43947 0.7741 0.92902 0.0
C224 C 0.48753 0.76456 0.02771 0.0
H225 H 0.3924 0.77607 0.99256 0.0
C226 C 0.41906 0.77446 0.00303 0.0
C227 C 0.4323 0.76935 0.08922 0.0
C228 C 0.46656 0.76422 0.1014 0.0
C229 C 0.52065 0.7489 0.03473 0.0
H230 H 0.47648 0.75748 0.16662 0.0
C231 C 0.55031 0.76676 0.02547 0.0
C232 C 0.58106 0.74997 0.02877 0.0
C233 C 0.52206 0.7145 0.04627 0.0
H234 H 0.49953 0.70032 0.05244 0.0
C235 C 0.55234 0.69794 0.04818 0.0
H236 H 0.54954 0.79334 0.01718 0.0
C237 C 0.58163 0.7155 0.03948 0.0
H238 H 0.60498 0.70223 0.04252 0.0
H239 H 0.55311 0.6714 0.05674 0.0
C240 C 0.16356 0.28739 0.28635 0.0
C241 C 0.15856 0.2644 0.21175 0.0
C242 C 0.10588 0.24819 0.27482 0.0
C243 C 0.10903 0.2738 0.34242 0.0
N244 N 0.13629 0.32499 0.3906 0.0
N245 N 0.1166 0.23434 0.12064 0.0
C246 C 0.13623 0.29598 0.34029 0.0
C247 C 0.1271 0.24839 0.20119 0.0
N248 N 0.1943 0.29917 0.31167 0.0
N249 N 0.08432 0.22247 0.28218 0.0
H250 H 0.12923 0.23735 0.06195 0.0
H251 H 0.09298 0.22417 0.11021 0.0
H252 H 0.0703 0.21928 0.33849 0.0
H253 H 0.08355 0.20217 0.2366 0.0
H254 H 0.1985 0.31403 0.36968 0.0
H255 H 0.21617 0.29072 0.28406 0.0
H256 H 0.15457 0.34303 0.38588 0.0
H257 H 0.11623 0.33244 0.42885 0.0
C258 C 0.24648 0.65703 0.72309 0.0
C259 C 0.27552 0.67692 0.73174 0.0
C260 C 0.29579 0.64435 0.8575 0.0
C261 C 0.26557 0.62638 0.85431 0.0
N262 N 0.21031 0.61797 0.79218 0.0
N263 N 0.32385 0.69462 0.81999 0.0
C264 C 0.24033 0.63337 0.78929 0.0
C265 C 0.29912 0.67195 0.80246 0.0
N266 N 0.22543 0.65994 0.65014 0.0
N267 N 0.3216 0.63466 0.91217 0.0
H268 H 0.32611 0.71603 0.7838 0.0
H269 H 0.33988 0.69414 0.87608 0.0
H270 H 0.32025 0.61442 0.95333 0.0
H271 H 0.34531 0.64467 0.9104 0.0
H272 H 0.20575 0.64383 0.63496 0.0
H273 H 0.22898 0.67714 0.60087 0.0
H274 H 0.18965 0.62461 0.75325 0.0
H275 H 0.20542 0.59987 0.8381 0.0
C276 C 0.85582 0.77544 0.3264 0.0
C277 C 0.8653 0.79144 0.24794 0.0
C278 C 0.92186 0.79651 0.31318 0.0
C279 C 0.91298 0.77638 0.38447 0.0
N280 N 0.87354 0.73772 0.43982 0.0
N281 N 0.91058 0.80931 0.15843 0.0
C282 C 0.88064 0.76281 0.38459 0.0
C283 C 0.89929 0.79977 0.23868 0.0
N284 N 0.82343 0.77423 0.3497 0.0
N285 N 0.95112 0.8135 0.3175 0.0
H286 H 0.89567 0.80992 0.10038 0.0
H287 H 0.93565 0.81278 0.1472 0.0
H288 H 0.96795 0.81251 0.37183 0.0
H289 H 0.95707 0.83103 0.27106 0.0
H290 H 0.81619 0.76468 0.40999 0.0
H291 H 0.80452 0.78689 0.31625 0.0
H292 H 0.85073 0.72555 0.43678 0.0
H293 H 0.89153 0.72664 0.48066 0.0
C294 C 0.77801 0.3989 0.73146 0.0
C295 C 0.74602 0.38425 0.72723 0.0
C296 C 0.72925 0.422 0.84976 0.0
C297 C 0.76258 0.43212 0.86478 0.0
N298 N 0.82003 0.42683 0.82597 0.0
N299 N 0.69362 0.37695 0.79797 0.0
C300 C 0.7874 0.41993 0.8068 0.0
C301 C 0.72206 0.3947 0.7899 0.0
N302 N 0.79917 0.39329 0.66294 0.0
N303 N 0.70452 0.43818 0.89396 0.0
H304 H 0.6889 0.3547 0.76223 0.0
H305 H 0.67681 0.38198 0.84821 0.0
H306 H 0.70905 0.4586 0.93781 0.0
H307 H 0.67948 0.4335 0.87975 0.0
H308 H 0.82162 0.40575 0.65889 0.0
H309 H 0.79283 0.3787 0.60567 0.0
H310 H 0.83926 0.41546 0.7915 0.0
H311 H 0.82808 0.44184 0.8808 0.0
C312 C 0.66505 0.27003 0.20339 0.0
C313 C 0.6552 0.28609 0.2848 0.0
C314 C 0.599 0.29191 0.21935 0.0
C315 C 0.60823 0.27248 0.143 0.0
N316 N 0.6475 0.23404 0.0779 0.0
N317 N 0.6098 0.30372 0.37742 0.0
C318 C 0.64041 0.25848 0.14034 0.0
C319 C 0.62125 0.29451 0.29511 0.0
N320 N 0.69767 0.26787 0.18221 0.0
N321 N 0.56975 0.30896 0.21877 0.0
H322 H 0.62467 0.30379 0.43568 0.0
H323 H 0.58473 0.30732 0.38919 0.0
H324 H 0.55309 0.30841 0.16386 0.0
H325 H 0.5636 0.32609 0.26966 0.0
H326 H 0.70527 0.25861 0.12001 0.0
H327 H 0.71673 0.27929 0.22058 0.0
H328 H 0.67002 0.22135 0.07833 0.0
H329 H 0.62965 0.22396 0.03262 0.0
C330 C 0.26372 0.17631 0.70257 0.0
C331 C 0.24738 0.16683 0.78057 0.0
C332 C 0.24303 0.11 0.71533 0.0
C333 C 0.26311 0.1191 0.64406 0.0
N334 N 0.30205 0.15854 0.59025 0.0
N335 N 0.22964 0.12154 0.87006 0.0
C336 C 0.27677 0.15143 0.6449 0.0
C337 C 0.23937 0.13272 0.78987 0.0
N338 N 0.26468 0.2087 0.6788 0.0
N339 N 0.22649 0.08045 0.71091 0.0
H340 H 0.22876 0.13665 0.92805 0.0
H341 H 0.22628 0.09642 0.88133 0.0
H342 H 0.22801 0.06343 0.65681 0.0
H343 H 0.20897 0.07432 0.75727 0.0
H344 H 0.27458 0.21583 0.61882 0.0
H345 H 0.25149 0.2276 0.71117 0.0
H346 H 0.31417 0.18142 0.59377 0.0
H347 H 0.31323 0.14046 0.54943 0.0
C348 C 0.36405 0.72969 0.21692 0.0
C349 C 0.35872 0.75397 0.28641 0.0
C350 C 0.40196 0.78904 0.22679 0.0
C351 C 0.40904 0.76343 0.16232 0.0
N352 N 0.40137 0.70686 0.10679 0.0
N353 N 0.37579 0.80457 0.3665 0.0
C354 C 0.39151 0.73293 0.16097 0.0
C355 C 0.37853 0.78313 0.29383 0.0
N356 N 0.34181 0.70444 0.20106 0.0
N357 N 0.41696 0.81927 0.2224 0.0
H358 H 0.359 0.80108 0.41692 0.0
H359 H 0.39183 0.82441 0.38061 0.0
H360 H 0.43488 0.82406 0.17587 0.0
H361 H 0.4101 0.84015 0.26067 0.0
H362 H 0.34251 0.68788 0.14582 0.0
H363 H 0.3205 0.70217 0.23769 0.0
H364 H 0.39175 0.68298 0.10976 0.0
H365 H 0.42137 0.70826 0.06462 0.0
C366 C 0.79706 0.87895 0.73524 0.0
C367 C 0.77345 0.87326 0.80131 0.0
C368 C 0.73749 0.91627 0.73732 0.0
C369 C 0.76263 0.92382 0.67711 0.0
N370 N 0.81914 0.9173 0.63188 0.0
N371 N 0.72326 0.88967 0.87428 0.0
C372 C 0.79332 0.90673 0.68045 0.0
C373 C 0.74412 0.89275 0.80482 0.0
N374 N 0.82215 0.85676 0.72131 0.0
N375 N 0.70713 0.93099 0.72859 0.0
H376 H 0.72733 0.87279 0.92474 0.0
H377 H 0.70333 0.90552 0.88574 0.0
H378 H 0.70191 0.94898 0.68169 0.0
H379 H 0.68661 0.92388 0.76365 0.0
H380 H 0.83818 0.85788 0.66825 0.0
H381 H 0.82467 0.83507 0.75648 0.0
H382 H 0.8431 0.90793 0.63902 0.0
H383 H 0.81748 0.93769 0.59094 0.0
C384 C 0.88181 0.75311 0.80937 0.0
C385 C 0.87623 0.78606 0.84239 0.0
C386 C 0.92346 0.80507 0.75802 0.0
C387 C 0.92478 0.77361 0.7131 0.0
N388 N 0.90476 0.71743 0.69261 0.0
N389 N 0.89073 0.84442 0.84358 0.0
C390 C 0.90413 0.74738 0.73869 0.0
C391 C 0.89718 0.81229 0.81692 0.0
N392 N 0.86636 0.72724 0.8472 0.0
N393 N 0.94723 0.82812 0.74325 0.0
H394 H 0.87168 0.8513 0.88566 0.0
H395 H 0.90255 0.86477 0.81802 0.0
H396 H 0.96654 0.8233 0.6998 0.0
H397 H 0.9497 0.85049 0.78013 0.0
H398 H 0.8716 0.70242 0.8317 0.0
H399 H 0.85077 0.73061 0.90108 0.0
H400 H 0.88735 0.6988 0.70003 0.0
H401 H 0.92172 0.71183 0.64301 0.0
C402 C 0.72401 0.40616 0.2806 0.0
C403 C 0.74886 0.38645 0.32239 0.0
C404 C 0.79158 0.41349 0.23759 0.0
C405 C 0.76676 0.43321 0.19625 0.0
N406 N 0.71104 0.45432 0.19296 0.0
N407 N 0.80663 0.37783 0.35978 0.0
C408 C 0.7335 0.43153 0.22298 0.0
C409 C 0.78281 0.39211 0.30672 0.0
N410 N 0.69128 0.39957 0.29217 0.0
N411 N 0.82326 0.41422 0.20832 0.0
H412 H 0.80088 0.3632 0.41319 0.0
H413 H 0.83177 0.38321 0.35708 0.0
H414 H 0.8308 0.43044 0.16015 0.0
H415 H 0.84155 0.39749 0.22787 0.0
H416 H 0.67207 0.41023 0.25494 0.0
H417 H 0.68316 0.38166 0.33481 0.0
H418 H 0.68714 0.45662 0.21652 0.0
H419 H 0.71735 0.47308 0.15035 0.0
C420 C 0.12895 0.22976 0.76948 0.0
C421 C 0.14656 0.25693 0.81158 0.0
C422 C 0.11674 0.29584 0.71589 0.0
C423 C 0.10017 0.2686 0.67129 0.0
N424 N 0.08518 0.21057 0.66508 0.0
N425 N 0.15183 0.31573 0.84214 0.0
C426 C 0.10437 0.23588 0.7018 0.0
C427 C 0.1387 0.29002 0.79014 0.0
N428 N 0.13708 0.19797 0.79044 0.0
N429 N 0.11224 0.32708 0.68498 0.0
H430 H 0.1674 0.31198 0.89804 0.0
H431 H 0.14516 0.34047 0.83524 0.0
H432 H 0.09491 0.33236 0.63404 0.0
H433 H 0.12647 0.34751 0.70685 0.0
H434 H 0.12901 0.17698 0.75326 0.0
H435 H 0.15321 0.19229 0.84341 0.0
H436 H 0.08409 0.18708 0.69139 0.0
H437 H 0.06838 0.21342 0.61149 0.0
C438 C 0.29692 0.63741 0.29199 0.0
C439 C 0.2695 0.6556 0.32557 0.0
C440 C 0.23211 0.62446 0.21982 0.0
C441 C 0.26006 0.61094 0.17666 0.0
N442 N 0.31951 0.60658 0.1661 0.0
N443 N 0.21072 0.66551 0.32678 0.0
C444 C 0.29256 0.61741 0.21221 0.0
C445 C 0.23691 0.64857 0.29152 0.0
N446 N 0.32737 0.63958 0.33473 0.0
N447 N 0.20113 0.61414 0.1918 0.0
H448 H 0.21326 0.68138 0.38351 0.0
H449 H 0.18677 0.66467 0.29889 0.0
H450 H 0.19725 0.59648 0.13949 0.0
H451 H 0.17959 0.62091 0.22419 0.0
H452 H 0.34699 0.62382 0.31906 0.0
H453 H 0.33267 0.6549 0.39094 0.0
H454 H 0.34355 0.61483 0.18109 0.0
H455 H 0.31788 0.59123 0.10836 0.0
C456 C 0.3858 0.79401 0.72349 0.0
C457 C 0.37797 0.76133 0.69117 0.0
C458 C 0.41946 0.73873 0.7965 0.0
C459 C 0.4233 0.77088 0.83805 0.0
N460 N 0.41159 0.82944 0.84146 0.0
N461 N 0.38728 0.70205 0.69571 0.0
C462 C 0.4072 0.79872 0.80078 0.0
C463 C 0.39542 0.73361 0.72562 0.0
N464 N 0.37303 0.82043 0.67903 0.0
N465 N 0.43827 0.71281 0.82606 0.0
H466 H 0.37133 0.69665 0.64109 0.0
H467 H 0.39484 0.68078 0.72805 0.0
H468 H 0.45406 0.71436 0.8826 0.0
H469 H 0.4401 0.69009 0.79103 0.0
H470 H 0.37958 0.84502 0.69414 0.0
H471 H 0.35789 0.81747 0.62122 0.0
H472 H 0.39773 0.85024 0.82493 0.0
H473 H 0.42854 0.83384 0.89491 0.0
C474 C 0.79989 0.90791 0.25496 0.0
C475 C 0.77331 0.89061 0.2095 0.0
C476 C 0.73325 0.91985 0.30425 0.0
C477 C 0.75991 0.9359 0.35267 0.0
N478 N 0.81812 0.94988 0.36631 0.0
N479 N 0.715 0.88519 0.17482 0.0
C480 C 0.79304 0.93164 0.32485 0.0
C481 C 0.74 0.89827 0.22917 0.0
N482 N 0.83186 0.90019 0.23496 0.0
N483 N 0.70165 0.92451 0.33231 0.0
H484 H 0.71949 0.86983 0.11861 0.0
H485 H 0.69016 0.89153 0.18039 0.0
H486 H 0.69588 0.94154 0.38391 0.0
H487 H 0.68135 0.91082 0.30726 0.0
H488 H 0.85246 0.90757 0.27443 0.0
H489 H 0.83808 0.88524 0.17973 0.0
H490 H 0.84188 0.95133 0.34196 0.0
H491 H 0.81507 0.9654 0.42278 0.0
C492 C 0.63974 0.25756 0.71192 0.0
C493 C 0.64388 0.29088 0.68736 0.0
C494 C 0.59607 0.30732 0.77696 0.0
C495 C 0.59639 0.27556 0.81422 0.0
N496 N 0.61862 0.22007 0.81939 0.0
N497 N 0.62529 0.34799 0.69383 0.0
C498 C 0.61796 0.25041 0.78143 0.0
C499 C 0.62141 0.31586 0.71769 0.0
N500 N 0.65574 0.23262 0.66631 0.0
N501 N 0.57155 0.32925 0.79902 0.0
H502 H 0.64293 0.35533 0.64937 0.0
H503 H 0.61244 0.36793 0.72229 0.0
H504 H 0.55294 0.32342 0.84267 0.0
H505 H 0.56782 0.3518 0.76851 0.0
H506 H 0.6517 0.20751 0.67577 0.0
H507 H 0.67015 0.23704 0.61141 0.0
H508 H 0.63677 0.20227 0.80687 0.0
H509 H 0.60197 0.21333 0.86743 0.0
C510 C 0.28383 0.15638 0.22257 0.0
C511 C 0.2509 0.16153 0.18992 0.0
C512 C 0.2326 0.11336 0.27162 0.0
C513 C 0.2641 0.11198 0.31538 0.0
N514 N 0.31977 0.13296 0.33715 0.0
N515 N 0.19286 0.14643 0.18945 0.0
C516 C 0.28989 0.13348 0.29143 0.0
C517 C 0.22501 0.14011 0.21493 0.0
N518 N 0.30943 0.17262 0.18582 0.0
N519 N 0.20989 0.08912 0.28505 0.0
H520 H 0.18582 0.16579 0.14886 0.0
H521 H 0.17271 0.13414 0.2145 0.0
H522 H 0.21494 0.06941 0.3268 0.0
H523 H 0.18753 0.08672 0.24857 0.0
H524 H 0.33427 0.16762 0.20074 0.0
H525 H 0.30591 0.18873 0.13343 0.0
H526 H 0.33801 0.15089 0.33115 0.0
H527 H 0.32567 0.11558 0.38516 0.0
C528 C 0.26325 0.36588 0.90913 0.0
C529 C 0.25076 0.35294 0.98896 0.0
C530 C 0.25623 0.40846 0.06284 0.0
C531 C 0.26681 0.42131 0.98139 0.0
N532 N 0.27009 0.41443 0.8211 0.0
N533 N 0.22726 0.36433 0.13366 0.0
C534 C 0.26658 0.4007 0.90252 0.0
C535 C 0.24473 0.375 0.06346 0.0
N536 N 0.2747 0.34519 0.84227 0.0
N537 N 0.25842 0.42763 0.14028 0.0
H538 H 0.2174 0.34047 0.13487 0.0
H539 H 0.2196 0.3801 0.18593 0.0
H540 H 0.26616 0.45232 0.14207 0.0
H541 H 0.25471 0.41834 0.20335 0.0
H542 H 0.28696 0.3538 0.7874 0.0
H543 H 0.27587 0.31951 0.8459 0.0
H544 H 0.26705 0.40089 0.76045 0.0
H545 H 0.27244 0.43999 0.81417 0.0
C546 C 0.16453 0.74436 0.60325 0.0
C547 C 0.17936 0.75585 0.52464 0.0
C548 C 0.12508 0.75288 0.44454 0.0
C549 C 0.11065 0.74093 0.5223 0.0
N550 N 0.11404 0.73369 0.68138 0.0
N551 N 0.17114 0.7817 0.38249 0.0
C552 C 0.12959 0.73951 0.60354 0.0
C553 C 0.15877 0.76337 0.44886 0.0
N554 N 0.18368 0.73628 0.67625 0.0
N555 N 0.10691 0.75318 0.36567 0.0
H556 H 0.1951 0.7914 0.386 0.0
H557 H 0.15666 0.79048 0.32943 0.0
H558 H 0.08185 0.74693 0.36086 0.0
H559 H 0.11717 0.75766 0.30419 0.0
H560 H 0.17498 0.72281 0.72877 0.0
H561 H 0.2087 0.74162 0.68328 0.0
H562 H 0.12569 0.7359 0.74463 0.0
H563 H 0.08856 0.72971 0.68353 0.0
C564 C 0.7779 0.67224 0.95634 0.0
C565 C 0.78501 0.69307 0.03387 0.0
C566 C 0.80079 0.64326 0.11615 0.0
C567 C 0.80021 0.62423 0.03451 0.0
N568 N 0.78975 0.62063 0.87466 0.0
N569 N 0.80532 0.69744 0.18918 0.0
C570 C 0.78895 0.63865 0.95397 0.0
C571 C 0.7965 0.67829 0.11476 0.0
N572 N 0.75924 0.6841 0.88649 0.0
N573 N 0.80533 0.62771 0.19546 0.0
H574 H 0.80176 0.72284 0.19473 0.0
H575 H 0.81834 0.68828 0.24439 0.0
H576 H 0.80868 0.60209 0.19859 0.0
H577 H 0.80241 0.63959 0.25794 0.0
H578 H 0.75093 0.66924 0.83167 0.0
H579 H 0.74865 0.70772 0.8884 0.0
H580 H 0.78563 0.63104 0.81244 0.0
H581 H 0.79669 0.59568 0.87079 0.0
C582 C 0.86033 0.29491 0.58084 0.0
C583 C 0.83818 0.28706 0.50682 0.0
C584 C 0.88586 0.27124 0.41675 0.0
C585 C 0.9068 0.27278 0.49448 0.0
N586 N 0.91368 0.28385 0.6538 0.0
N587 N 0.83072 0.25934 0.35977 0.0
C588 C 0.89406 0.28426 0.57757 0.0
C589 C 0.85115 0.27329 0.42571 0.0
N590 N 0.84957 0.31331 0.65291 0.0
N591 N 0.89919 0.26696 0.33416 0.0
H592 H 0.80532 0.25656 0.36573 0.0
H593 H 0.83958 0.24641 0.30366 0.0
H594 H 0.92471 0.26546 0.32561 0.0
H595 H 0.88518 0.26859 0.27453 0.0
H596 H 0.86537 0.32228 0.70487 0.0
H597 H 0.82548 0.32248 0.65637 0.0
H598 H 0.90467 0.28832 0.71775 0.0
H599 H 0.93857 0.27696 0.65335 0.0
C600 C 0.73961 0.17387 0.45216 0.0
C601 C 0.74671 0.19633 0.52629 0.0
C602 C 0.76283 0.14896 0.61679 0.0
C603 C 0.76192 0.1278 0.53895 0.0
N604 N 0.75187 0.12057 0.37931 0.0
N605 N 0.7727 0.20467 0.67477 0.0
C606 C 0.7507 0.14027 0.45564 0.0
C607 C 0.76 0.18375 0.60798 0.0
N608 N 0.7215 0.18428 0.37957 0.0
N609 N 0.76702 0.13578 0.69938 0.0
H610 H 0.77443 0.23025 0.66956 0.0
H611 H 0.78545 0.19623 0.73133 0.0
H612 H 0.76903 0.11026 0.7079 0.0
H613 H 0.76486 0.14981 0.75906 0.0
H614 H 0.71311 0.16826 0.32727 0.0
H615 H 0.71189 0.20824 0.37609 0.0
H616 H 0.74767 0.12948 0.31532 0.0
H617 H 0.75925 0.09576 0.37959 0.0
C618 C 0.35784 0.23832 0.91368 0.0
C619 C 0.34261 0.25058 0.99366 0.0
C620 C 0.39669 0.24811 0.07448 0.0
C621 C 0.41153 0.2362 0.99482 0.0
N622 N 0.40868 0.22894 0.83421 0.0
N623 N 0.35078 0.2781 0.13946 0.0
C624 C 0.39285 0.23436 0.91303 0.0
C625 C 0.36303 0.25874 0.07103 0.0
N626 N 0.3392 0.2285 0.83939 0.0
N627 N 0.41449 0.24856 0.15398 0.0
H628 H 0.32716 0.28856 0.13643 0.0
H629 H 0.36532 0.28714 0.19397 0.0
H630 H 0.43953 0.24219 0.15841 0.0
H631 H 0.40386 0.25317 0.21589 0.0
H632 H 0.34868 0.21471 0.7856 0.0
H633 H 0.31393 0.23208 0.83238 0.0
H634 H 0.39705 0.23112 0.77135 0.0
H635 H 0.43424 0.22553 0.83151 0.0
C636 C 0.27501 0.87601 0.56504 0.0
C637 C 0.28223 0.85488 0.48958 0.0
C638 C 0.29956 0.90399 0.40968 0.0
C639 C 0.29843 0.92338 0.49059 0.0
N640 N 0.28654 0.92794 0.64765 0.0
N641 N 0.3026 0.84936 0.33867 0.0
C642 C 0.28627 0.90951 0.56883 0.0
C643 C 0.29431 0.86909 0.41086 0.0
N644 N 0.25624 0.8644 0.63158 0.0
N645 N 0.30543 0.91908 0.33127 0.0
H646 H 0.29757 0.82419 0.33297 0.0
H647 H 0.31621 0.85771 0.28595 0.0
H648 H 0.30954 0.94457 0.32838 0.0
H649 H 0.30305 0.90705 0.26837 0.0
H650 H 0.24771 0.87941 0.6843 0.0
H651 H 0.24596 0.84064 0.62851 0.0
H652 H 0.28181 0.91794 0.70926 0.0
H653 H 0.29364 0.95283 0.65237 0.0
C654 C 0.66818 0.77154 0.10365 0.0
C655 C 0.68189 0.78354 0.02419 0.0
C656 C 0.62706 0.77782 0.94772 0.0
C657 C 0.61349 0.76765 0.0287 0.0
N658 N 0.61889 0.76507 0.1892 0.0
N659 N 0.67196 0.80606 0.87807 0.0
C660 C 0.63336 0.76826 0.10853 0.0
C661 C 0.66057 0.78913 0.94833 0.0
N662 N 0.68819 0.76047 0.17196 0.0
N663 N 0.60845 0.77548 0.86966 0.0
H664 H 0.69591 0.81562 0.87747 0.0
H665 H 0.65673 0.8135 0.82482 0.0
H666 H 0.58367 0.76814 0.86732 0.0
H667 H 0.61817 0.77882 0.80687 0.0
H668 H 0.6791 0.74851 0.22671 0.0
H669 H 0.71386 0.75928 0.16976 0.0
H670 H 0.63183 0.76844 0.2505 0.0
H671 H 0.59332 0.76266 0.19476 0.0
loop_
_geom_bond_atom_site_label_1
_geom_bond_atom_site_label_2
_geom_bond_distance
_geom_bond_site_symmetry_2
_ccdc_geom_bond_type
Fe0 O2 1.918 . S
Fe0 O5 1.997 . S
Fe0 O6 2.002 . S
Fe0 O11 1.976 . S
Fe0 O14 1.996 . S
Fe1 O2 1.918 1_556 S
Fe1 O9 1.997 . S
Fe1 O12 1.996 . S
Fe1 O16 1.976 . S
Fe1 O19 2.002 . S
O2 Fe0 1.918 . S
O2 Fe1 1.918 1_554 S
O2 Fe3 1.918 1_554 S
Fe3 O2 1.918 1_556 S
Fe3 O4 2.002 1_556 S
Fe3 O13 1.976 1_556 S
Fe3 O17 1.996 . S
Fe3 O20 1.997 . S
O4 Fe3 2.002 1_554 S
O4 C21 1.295 . S
O5 Fe0 1.997 . S
O5 C21 1.235 . S
O6 Fe0 2.002 . S
O6 C7 1.295 . S
C7 O6 1.295 . S
C7 O9 1.235 1_554 S
C8 O13 1.287 . S
C8 O14 1.255 . S
O9 Fe1 1.997 . S
O9 C7 1.235 1_556 S
C10 O16 1.287 . S
C10 O17 1.255 . S
O11 Fe0 1.976 . S
O11 C18 1.287 . S
O12 Fe1 1.996 . S
O12 C18 1.255 1_556 S
O13 Fe3 1.976 1_554 S
O13 C8 1.287 . S
O14 Fe0 1.996 . S
O14 C8 1.255 . S
C15 O19 1.295 . S
C15 O20 1.235 . S
O16 Fe1 1.976 . S
O16 C10 1.287 . S
O17 Fe3 1.996 . S
O17 C10 1.255 . S
C18 O11 1.287 . S
C18 O12 1.255 1_554 S
O19 Fe1 2.002 . S
O19 C15 1.295 . S
O20 Fe3 1.997 . S
O20 C15 1.235 . S
C21 O4 1.295 . S
C21 O5 1.235 . S
Fe22 O24 1.918 . S
Fe22 O27 1.997 . S
Fe22 O28 2.002 . S
Fe22 O33 1.976 . S
Fe22 O36 1.996 . S
Fe23 O24 1.918 . S
Fe23 O31 1.997 . S
Fe23 O34 1.996 . S
Fe23 O38 1.976 . S
Fe23 O41 2.002 . S
O24 Fe22 1.918 . S
O24 Fe23 1.918 . S
O24 Fe25 1.918 . S
Fe25 O24 1.918 . S
Fe25 O26 2.002 . S
Fe25 O35 1.976 . S
Fe25 O39 1.996 . S
Fe25 O42 1.997 . S
O26 Fe25 2.002 . S
O26 C43 1.295 . S
O27 Fe22 1.997 . S
O27 C43 1.235 . S
O28 Fe22 2.002 . S
O28 C29 1.295 . S
C29 O28 1.295 . S
C29 O31 1.235 . S
C30 O35 1.287 . S
C30 O36 1.255 . S
O31 Fe23 1.997 . S
O31 C29 1.235 . S
C32 O38 1.287 . S
C32 O39 1.255 . S
O33 Fe22 1.976 . S
O33 C40 1.287 . S
O34 Fe23 1.996 . S
O34 C40 1.255 . S
O35 Fe25 1.976 . S
O35 C30 1.287 . S
O36 Fe22 1.996 . S
O36 C30 1.255 . S
C37 O41 1.295 . S
C37 O42 1.235 . S
O38 Fe23 1.976 . S
O38 C32 1.287 . S
O39 Fe25 1.996 . S
O39 C32 1.255 . S
C40 O33 1.287 . S
C40 O34 1.255 . S
O41 Fe23 2.002 . S
O41 C37 1.295 . S
O42 Fe25 1.997 . S
O42 C37 1.235 . S
C43 O26 1.295 . S
C43 O27 1.235 . S
Fe44 O46 1.918 1_556 S
Fe44 O49 1.997 . S
Fe44 O50 2.002 . S
Fe44 O55 1.976 . S
Fe44 O58 1.996 . S
Fe45 O46 1.918 . S
Fe45 O53 1.997 . S
Fe45 O56 1.996 . S
Fe45 O60 1.976 . S
Fe45 O63 2.002 . S
O46 Fe44 1.918 1_554 S
O46 Fe45 1.918 . S
O46 Fe47 1.918 . S
Fe47 O46 1.918 . S
Fe47 O48 2.002 1_554 S
Fe47 O57 1.976 1_554 S
Fe47 O61 1.996 . S
Fe47 O64 1.997 . S
O48 Fe47 2.002 1_556 S
O48 C65 1.295 . S
O49 Fe44 1.997 . S
O49 C65 1.235 . S
O50 Fe44 2.002 . S
O50 C51 1.295 1_556 S
C51 O50 1.295 1_554 S
C51 O53 1.235 . S
C52 O57 1.287 . S
C52 O58 1.255 . S
O53 Fe45 1.997 . S
O53 C51 1.235 . S
C54 O60 1.287 . S
C54 O61 1.255 . S
O55 Fe44 1.976 . S
O55 C62 1.287 1_556 S
O56 Fe45 1.996 . S
O56 C62 1.255 . S
O57 Fe47 1.976 1_556 S
O57 C52 1.287 . S
O58 Fe44 1.996 . S
O58 C52 1.255 . S
C59 O63 1.295 . S
C59 O64 1.235 . S
O60 Fe45 1.976 . S
O60 C54 1.287 . S
O61 Fe47 1.996 . S
O61 C54 1.255 . S
C62 O55 1.287 1_554 S
C62 O56 1.255 . S
O63 Fe45 2.002 . S
O63 C59 1.295 . S
O64 Fe47 1.997 . S
O64 C59 1.235 . S
C65 O48 1.295 . S
C65 O49 1.235 . S
Fe66 O68 1.918 . S
Fe66 O71 1.997 . S
Fe66 O72 2.002 . S
Fe66 O77 1.976 . S
Fe66 O80 1.996 . S
Fe67 O68 1.918 . S
Fe67 O75 1.997 . S
Fe67 O78 1.996 . S
Fe67 O82 1.976 . S
Fe67 O85 2.002 . S
O68 Fe66 1.918 . S
O68 Fe67 1.918 . S
O68 Fe69 1.918 . S
Fe69 O68 1.918 . S
Fe69 O70 2.002 . S
Fe69 O79 1.976 . S
Fe69 O83 1.996 . S
Fe69 O86 1.997 . S
O70 Fe69 2.002 . S
O70 C87 1.295 . S
O71 Fe66 1.997 . S
O71 C87 1.235 . S
O72 Fe66 2.002 . S
O72 C73 1.295 . S
C73 O72 1.295 . S
C73 O75 1.235 . S
C74 O79 1.287 . S
C74 O80 1.255 . S
O75 Fe67 1.997 . S
O75 C73 1.235 . S
C76 O82 1.287 . S
C76 O83 1.255 . S
O77 Fe66 1.976 . S
O77 C84 1.287 . S
O78 Fe67 1.996 . S
O78 C84 1.255 . S
O79 Fe69 1.976 . S
O79 C74 1.287 . S
O80 Fe66 1.996 . S
O80 C74 1.255 . S
C81 O85 1.295 . S
C81 O86 1.235 . S
O82 Fe67 1.976 . S
O82 C76 1.287 . S
O83 Fe69 1.996 . S
O83 C76 1.255 . S
C84 O77 1.287 . S
C84 O78 1.255 . S
O85 Fe67 2.002 . S
O85 C81 1.295 . S
O86 Fe69 1.997 . S
O86 C81 1.235 . S
C87 O70 1.295 . S
C87 O71 1.235 . S
H88 C89 0.949 . S
C89 H88 0.949 . S
C89 C90 1.395 . S
C89 C91 1.391 1_554 S
C90 C89 1.395 . S
C90 C93 1.390 . S
C91 C89 1.391 1_556 S
C91 C95 1.387 . S
C91 C96 1.491 . S
H92 C93 0.950 . S
C93 C90 1.390 . S
C93 H92 0.950 . S
C93 C94 1.378 1_554 S
C94 C93 1.378 1_556 S
C94 C95 1.409 . S
C95 C91 1.387 . S
C95 C94 1.409 . S
C95 H97 0.951 . S
C96 C91 1.491 . S
C96 C98 1.382 1_556 S
C96 C100 1.404 . S
H97 C95 0.951 . S
C98 C96 1.382 1_554 S
C98 C99 1.390 1_554 S
C98 H103 0.949 . S
C99 C98 1.390 1_556 S
C99 C104 1.399 . S
C100 C96 1.404 . S
C100 H101 0.950 . S
C100 C102 1.375 . S
H101 C100 0.950 . S
C102 C100 1.375 . S
C102 C104 1.382 . S
C102 H106 0.950 . S
H103 C98 0.949 . S
C104 C99 1.399 . S
C104 C102 1.382 . S
C104 H105 0.952 . S
H105 C104 0.952 . S
H106 C102 0.950 . S
H107 C108 0.949 . S
C108 H107 0.949 . S
C108 C109 1.395 . S
C108 C110 1.391 . S
C109 C108 1.395 . S
C109 C112 1.390 . S
C110 C108 1.391 . S
C110 C114 1.387 . S
C110 C115 1.491 1_655 S
H111 C112 0.950 . S
C112 C109 1.390 . S
C112 H111 0.950 . S
C112 C113 1.378 . S
C113 C112 1.378 . S
C113 C114 1.409 . S
C114 C110 1.387 . S
C114 C113 1.409 . S
C114 H116 0.951 . S
C115 C110 1.491 1_455 S
C115 C117 1.382 . S
C115 C119 1.404 . S
H116 C114 0.951 . S
C117 C115 1.382 . S
C117 C118 1.390 . S
C117 H122 0.949 . S
C118 C117 1.390 . S
C118 C123 1.399 . S
C119 C115 1.404 . S
C119 H120 0.950 . S
C119 C121 1.375 . S
H120 C119 0.950 . S
C121 C119 1.375 . S
C121 C123 1.382 . S
C121 H125 0.950 . S
H122 C117 0.949 . S
C123 C118 1.399 . S
C123 C121 1.382 . S
C123 H124 0.952 . S
H124 C123 0.952 . S
H125 C121 0.950 . S
H126 C127 0.949 . S
C127 H126 0.949 . S
C127 C128 1.395 . S
C127 C129 1.391 1_556 S
C128 C127 1.395 . S
C128 C131 1.390 1_556 S
C129 C127 1.391 1_554 S
C129 C133 1.387 . S
C129 C134 1.491 . S
H130 C131 0.950 . S
C131 C128 1.390 1_554 S
C131 H130 0.950 . S
C131 C132 1.378 . S
C132 C131 1.378 . S
C132 C133 1.409 . S
C133 C129 1.387 . S
C133 C132 1.409 . S
C133 H135 0.951 . S
C134 C129 1.491 . S
C134 C136 1.382 . S
C134 C138 1.404 . S
H135 C133 0.951 . S
C136 C134 1.382 . S
C136 C137 1.390 . S
C136 H141 0.949 1_554 S
C137 C136 1.390 . S
C137 C142 1.399 . S
C138 C134 1.404 . S
C138 H139 0.950 . S
C138 C140 1.375 . S
H139 C138 0.950 . S
C140 C138 1.375 . S
C140 C142 1.382 . S
C140 H144 0.950 . S
H141 C136 0.949 1_556 S
C142 C137 1.399 . S
C142 C140 1.382 . S
C142 H143 0.952 . S
H143 C142 0.952 . S
H144 C140 0.950 . S
H145 C146 0.949 . S
C146 H145 0.949 . S
C146 C147 1.395 . S
C146 C148 1.391 . S
C147 C146 1.395 . S
C147 C150 1.390 . S
C148 C146 1.391 . S
C148 C152 1.387 . S
C148 C153 1.491 1_455 S
H149 C150 0.950 . S
C150 C147 1.390 . S
C150 H149 0.950 . S
C150 C151 1.378 . S
C151 C150 1.378 . S
C151 C152 1.409 . S
C152 C148 1.387 . S
C152 C151 1.409 . S
C152 H154 0.951 . S
C153 C148 1.491 1_655 S
C153 C155 1.382 . S
C153 C157 1.404 . S
H154 C152 0.951 . S
C155 C153 1.382 . S
C155 C156 1.390 . S
C155 H160 0.949 . S
C156 C155 1.390 . S
C156 C161 1.399 . S
C157 C153 1.404 . S
C157 H158 0.950 . S
C157 C159 1.375 . S
H158 C157 0.950 . S
C159 C157 1.375 . S
C159 C161 1.382 . S
C159 H163 0.950 . S
H160 C155 0.949 . S
C161 C156 1.399 . S
C161 C159 1.382 . S
C161 H162 0.952 . S
H162 C161 0.952 . S
H163 C159 0.950 . S
H164 C165 0.949 . S
C165 H164 0.949 . S
C165 C166 1.395 . S
C165 C167 1.391 . S
C166 C165 1.395 . S
C166 C169 1.390 . S
C167 C165 1.391 . S
C167 C171 1.387 . S
C167 C172 1.491 1_565 S
H168 C169 0.950 . S
C169 C166 1.390 . S
C169 H168 0.950 . S
C169 C170 1.378 . S
C170 C169 1.378 . S
C170 C171 1.409 . S
C171 C167 1.387 . S
C171 C170 1.409 . S
C171 H173 0.951 . S
C172 C167 1.491 1_545 S
C172 C174 1.382 . S
C172 C176 1.404 . S
H173 C171 0.951 . S
C174 C172 1.382 . S
C174 C175 1.390 . S
C174 H179 0.949 . S
C175 C174 1.390 . S
C175 C180 1.399 . S
C176 C172 1.404 . S
C176 H177 0.950 . S
C176 C178 1.375 . S
H177 C176 0.950 . S
C178 C176 1.375 . S
C178 C180 1.382 . S
C178 H182 0.950 . S
H179 C174 0.949 . S
C180 C175 1.399 . S
C180 C178 1.382 . S
C180 H181 0.952 . S
H181 C180 0.952 . S
H182 C178 0.950 . S
H183 C184 0.949 . S
C184 H183 0.949 . S
C184 C185 1.395 . S
C184 C186 1.391 1_554 S
C185 C184 1.395 . S
C185 C188 1.390 . S
C186 C184 1.391 1_556 S
C186 C190 1.387 . S
C186 C191 1.491 . S
H187 C188 0.950 . S
C188 C185 1.390 . S
C188 H187 0.950 . S
C188 C189 1.378 1_554 S
C189 C188 1.378 1_556 S
C189 C190 1.409 . S
C190 C186 1.387 . S
C190 C189 1.409 . S
C190 H192 0.951 . S
C191 C186 1.491 . S
C191 C193 1.382 1_556 S
C191 C195 1.404 . S
H192 C190 0.951 . S
C193 C191 1.382 1_554 S
C193 C194 1.390 1_554 S
C193 H198 0.949 . S
C194 C193 1.390 1_556 S
C194 C199 1.399 . S
C195 C191 1.404 . S
C195 H196 0.950 . S
C195 C197 1.375 . S
H196 C195 0.950 . S
C197 C195 1.375 . S
C197 C199 1.382 . S
C197 H201 0.950 . S
H198 C193 0.949 . S
C199 C194 1.399 . S
C199 C197 1.382 . S
C199 H200 0.952 . S
H200 C199 0.952 . S
H201 C197 0.950 . S
H202 C203 0.949 . S
C203 H202 0.949 . S
C203 C204 1.395 . S
C203 C205 1.391 . S
C204 C203 1.395 . S
C204 C207 1.390 . S
C205 C203 1.391 . S
C205 C209 1.387 . S
C205 C210 1.491 1_545 S
H206 C207 0.950 . S
C207 C204 1.390 . S
C207 H206 0.950 . S
C207 C208 1.378 . S
C208 C207 1.378 . S
C208 C209 1.409 . S
C209 C205 1.387 . S
C209 C208 1.409 . S
C209 H211 0.951 . S
C210 C205 1.491 1_565 S
C210 C212 1.382 . S
C210 C214 1.404 . S
H211 C209 0.951 . S
C212 C210 1.382 . S
C212 C213 1.390 . S
C212 H217 0.949 . S
C213 C212 1.390 . S
C213 C218 1.399 . S
C214 C210 1.404 . S
C214 H215 0.950 . S
C214 C216 1.375 . S
H215 C214 0.950 . S
C216 C214 1.375 . S
C216 C218 1.382 . S
C216 H220 0.950 . S
H217 C212 0.949 . S
C218 C213 1.399 . S
C218 C216 1.382 . S
C218 H219 0.952 . S
H219 C218 0.952 . S
H220 C216 0.950 . S
H221 C222 0.949 . S
C222 H221 0.949 . S
C222 C223 1.395 . S
C222 C224 1.391 1_556 S
C223 C222 1.395 . S
C223 C226 1.390 1_556 S
C224 C222 1.391 1_554 S
C224 C228 1.387 . S
C224 C229 1.491 . S
H225 C226 0.950 . S
C226 C223 1.390 1_554 S
C226 H225 0.950 . S
C226 C227 1.378 . S
C227 C226 1.378 . S
C227 C228 1.409 . S
C228 C224 1.387 . S
C228 C227 1.409 . S
C228 H230 0.951 . S
C229 C224 1.491 . S
C229 C231 1.382 . S
C229 C233 1.404 . S
H230 C228 0.951 . S
C231 C229 1.382 . S
C231 C232 1.390 . S
C231 H236 0.949 1_554 S
C232 C231 1.390 . S
C232 C237 1.399 . S
C233 C229 1.404 . S
C233 H234 0.950 . S
C233 C235 1.375 . S
H234 C233 0.950 . S
C235 C233 1.375 . S
C235 C237 1.382 . S
C235 H239 0.950 . S
H236 C231 0.949 1_556 S
C237 C232 1.399 . S
C237 C235 1.382 . S
C237 H238 0.952 . S
H238 C237 0.952 . S
H239 C235 0.950 . S
C240 C241 1.363 . S
C240 C246 1.379 . S
C240 N248 1.356 . S
C241 C240 1.363 . S
C241 C247 1.363 . S
C242 C243 1.363 . S
C242 C247 1.379 . S
C242 N249 1.356 . S
C243 C242 1.363 . S
C243 C246 1.363 . S
N244 C246 1.356 . S
N244 H256 0.984 . S
N244 H257 0.985 . S
N245 C247 1.356 . S
N245 H250 0.984 . S
N245 H251 0.985 . S
C246 C240 1.379 . S
C246 C243 1.363 . S
C246 N244 1.356 . S
C247 C241 1.363 . S
C247 C242 1.379 . S
C247 N245 1.356 . S
N248 C240 1.356 . S
N248 H254 0.984 . S
N248 H255 0.984 . S
N249 C242 1.356 . S
N249 H252 0.984 . S
N249 H253 0.985 . S
H250 N245 0.984 . S
H251 N245 0.985 . S
H252 N249 0.984 . S
H253 N249 0.985 . S
H254 N248 0.984 . S
H255 N248 0.984 . S
H256 N244 0.984 . S
H257 N244 0.985 . S
C258 C259 1.363 . S
C258 C264 1.379 . S
C258 N266 1.356 . S
C259 C258 1.363 . S
C259 C265 1.363 . S
C260 C261 1.363 . S
C260 C265 1.379 . S
C260 N267 1.356 . S
C261 C260 1.363 . S
C261 C264 1.363 . S
N262 C264 1.356 . S
N262 H274 0.984 . S
N262 H275 0.985 . S
N263 C265 1.356 . S
N263 H268 0.984 . S
N263 H269 0.985 . S
C264 C258 1.379 . S
C264 C261 1.363 . S
C264 N262 1.356 . S
C265 C259 1.363 . S
C265 C260 1.379 . S
C265 N263 1.356 . S
N266 C258 1.356 . S
N266 H272 0.984 . S
N266 H273 0.984 . S
N267 C260 1.356 . S
N267 H270 0.984 . S
N267 H271 0.985 . S
H268 N263 0.984 . S
H269 N263 0.985 . S
H270 N267 0.984 . S
H271 N267 0.985 . S
H272 N266 0.984 . S
H273 N266 0.984 . S
H274 N262 0.984 . S
H275 N262 0.985 . S
C276 C277 1.363 . S
C276 C282 1.379 . S
C276 N284 1.356 . S
C277 C276 1.363 . S
C277 C283 1.363 . S
C278 C279 1.363 . S
C278 C283 1.379 . S
C278 N285 1.356 . S
C279 C278 1.363 . S
C279 C282 1.363 . S
N280 C282 1.356 . S
N280 H292 0.984 . S
N280 H293 0.985 . S
N281 C283 1.356 . S
N281 H286 0.984 . S
N281 H287 0.985 . S
C282 C276 1.379 . S
C282 C279 1.363 . S
C282 N280 1.356 . S
C283 C277 1.363 . S
C283 C278 1.379 . S
C283 N281 1.356 . S
N284 C276 1.356 . S
N284 H290 0.984 . S
N284 H291 0.984 . S
N285 C278 1.356 . S
N285 H288 0.984 . S
N285 H289 0.985 . S
H286 N281 0.984 . S
H287 N281 0.985 . S
H288 N285 0.984 . S
H289 N285 0.985 . S
H290 N284 0.984 . S
H291 N284 0.984 . S
H292 N280 0.984 . S
H293 N280 0.985 . S
C294 C295 1.363 . S
C294 C300 1.379 . S
C294 N302 1.356 . S
C295 C294 1.363 . S
C295 C301 1.363 . S
C296 C297 1.363 . S
C296 C301 1.379 . S
C296 N303 1.356 . S
C297 C296 1.363 . S
C297 C300 1.363 . S
N298 C300 1.356 . S
N298 H310 0.984 . S
N298 H311 0.985 . S
N299 C301 1.356 . S
N299 H304 0.984 . S
N299 H305 0.985 . S
C300 C294 1.379 . S
C300 C297 1.363 . S
C300 N298 1.356 . S
C301 C295 1.363 . S
C301 C296 1.379 . S
C301 N299 1.356 . S
N302 C294 1.356 . S
N302 H308 0.984 . S
N302 H309 0.984 . S
N303 C296 1.356 . S
N303 H306 0.984 . S
N303 H307 0.985 . S
H304 N299 0.984 . S
H305 N299 0.985 . S
H306 N303 0.984 . S
H307 N303 0.985 . S
H308 N302 0.984 . S
H309 N302 0.984 . S
H310 N298 0.984 . S
H311 N298 0.985 . S
C312 C313 1.363 . S
C312 C318 1.379 . S
C312 N320 1.356 . S
C313 C312 1.363 . S
C313 C319 1.363 . S
C314 C315 1.363 . S
C314 C319 1.379 . S
C314 N321 1.356 . S
C315 C314 1.363 . S
C315 C318 1.363 . S
N316 C318 1.356 . S
N316 H328 0.984 . S
N316 H329 0.985 . S
N317 C319 1.356 . S
N317 H322 0.984 . S
N317 H323 0.985 . S
C318 C312 1.379 . S
C318 C315 1.363 . S
C318 N316 1.356 . S
C319 C313 1.363 . S
C319 C314 1.379 . S
C319 N317 1.356 . S
N320 C312 1.356 . S
N320 H326 0.984 . S
N320 H327 0.984 . S
N321 C314 1.356 . S
N321 H324 0.984 . S
N321 H325 0.985 . S
H322 N317 0.984 . S
H323 N317 0.985 . S
H324 N321 0.984 . S
H325 N321 0.985 . S
H326 N320 0.984 . S
H327 N320 0.984 . S
H328 N316 0.984 . S
H329 N316 0.985 . S
C330 C331 1.363 . S
C330 C336 1.379 . S
C330 N338 1.356 . S
C331 C330 1.363 . S
C331 C337 1.363 . S
C332 C333 1.363 . S
C332 C337 1.379 . S
C332 N339 1.356 . S
C333 C332 1.363 . S
C333 C336 1.363 . S
N334 C336 1.356 . S
N334 H346 0.984 . S
N334 H347 0.985 . S
N335 C337 1.356 . S
N335 H340 0.984 . S
N335 H341 0.985 . S
C336 C330 1.379 . S
C336 C333 1.363 . S
C336 N334 1.356 . S
C337 C331 1.363 . S
C337 C332 1.379 . S
C337 N335 1.356 . S
N338 C330 1.356 . S
N338 H344 0.984 . S
N338 H345 0.984 . S
N339 C332 1.356 . S
N339 H342 0.984 . S
N339 H343 0.985 . S
H340 N335 0.984 . S
H341 N335 0.985 . S
H342 N339 0.984 . S
H343 N339 0.985 . S
H344 N338 0.984 . S
H345 N338 0.984 . S
H346 N334 0.984 . S
H347 N334 0.985 . S
C348 C349 1.363 . S
C348 C354 1.379 . S
C348 N356 1.356 . S
C349 C348 1.363 . S
C349 C355 1.363 . S
C350 C351 1.363 . S
C350 C355 1.379 . S
C350 N357 1.356 . S
C351 C350 1.363 . S
C351 C354 1.363 . S
N352 C354 1.356 . S
N352 H364 0.984 . S
N352 H365 0.985 . S
N353 C355 1.356 . S
N353 H358 0.984 . S
N353 H359 0.985 . S
C354 C348 1.379 . S
C354 C351 1.363 . S
C354 N352 1.356 . S
C355 C349 1.363 . S
C355 C350 1.379 . S
C355 N353 1.356 . S
N356 C348 1.356 . S
N356 H362 0.984 . S
N356 H363 0.984 . S
N357 C350 1.356 . S
N357 H360 0.984 . S
N357 H361 0.985 . S
H358 N353 0.984 . S
H359 N353 0.985 . S
H360 N357 0.984 . S
H361 N357 0.985 . S
H362 N356 0.984 . S
H363 N356 0.984 . S
H364 N352 0.984 . S
H365 N352 0.985 . S
C366 C367 1.363 . S
C366 C372 1.379 . S
C366 N374 1.356 . S
C367 C366 1.363 . S
C367 C373 1.363 . S
C368 C369 1.363 . S
C368 C373 1.379 . S
C368 N375 1.356 . S
C369 C368 1.363 . S
C369 C372 1.363 . S
N370 C372 1.356 . S
N370 H382 0.984 . S
N370 H383 0.985 . S
N371 C373 1.356 . S
N371 H376 0.984 . S
N371 H377 0.985 . S
C372 C366 1.379 . S
C372 C369 1.363 . S
C372 N370 1.356 . S
C373 C367 1.363 . S
C373 C368 1.379 . S
C373 N371 1.356 . S
N374 C366 1.356 . S
N374 H380 0.984 . S
N374 H381 0.984 . S
N375 C368 1.356 . S
N375 H378 0.984 . S
N375 H379 0.985 . S
H376 N371 0.984 . S
H377 N371 0.985 . S
H378 N375 0.984 . S
H379 N375 0.985 . S
H380 N374 0.984 . S
H381 N374 0.984 . S
H382 N370 0.984 . S
H383 N370 0.985 . S
C384 C385 1.363 . S
C384 C390 1.379 . S
C384 N392 1.356 . S
C385 C384 1.363 . S
C385 C391 1.363 . S
C386 C387 1.363 . S
C386 C391 1.379 . S
C386 N393 1.356 . S
C387 C386 1.363 . S
C387 C390 1.363 . S
N388 C390 1.356 . S
N388 H400 0.984 . S
N388 H401 0.985 . S
N389 C391 1.356 . S
N389 H394 0.984 . S
N389 H395 0.985 . S
C390 C384 1.379 . S
C390 C387 1.363 . S
C390 N388 1.356 . S
C391 C385 1.363 . S
C391 C386 1.379 . S
C391 N389 1.356 . S
N392 C384 1.356 . S
N392 H398 0.984 . S
N392 H399 0.984 . S
N393 C386 1.356 . S
N393 H396 0.984 . S
N393 H397 0.985 . S
H394 N389 0.984 . S
H395 N389 0.985 . S
H396 N393 0.984 . S
H397 N393 0.985 . S
H398 N392 0.984 . S
H399 N392 0.984 . S
H400 N388 0.984 . S
H401 N388 0.985 . S
C402 C403 1.363 . S
C402 C408 1.379 . S
C402 N410 1.356 . S
C403 C402 1.363 . S
C403 C409 1.363 . S
C404 C405 1.363 . S
C404 C409 1.379 . S
C404 N411 1.356 . S
C405 C404 1.363 . S
C405 C408 1.363 . S
N406 C408 1.356 . S
N406 H418 0.984 . S
N406 H419 0.985 . S
N407 C409 1.356 . S
N407 H412 0.984 . S
N407 H413 0.985 . S
C408 C402 1.379 . S
C408 C405 1.363 . S
C408 N406 1.356 . S
C409 C403 1.363 . S
C409 C404 1.379 . S
C409 N407 1.356 . S
N410 C402 1.356 . S
N410 H416 0.984 . S
N410 H417 0.984 . S
N411 C404 1.356 . S
N411 H414 0.984 . S
N411 H415 0.985 . S
H412 N407 0.984 . S
H413 N407 0.985 . S
H414 N411 0.984 . S
H415 N411 0.985 . S
H416 N410 0.984 . S
H417 N410 0.984 . S
H418 N406 0.984 . S
H419 N406 0.985 . S
C420 C421 1.363 . S
C420 C426 1.379 . S
C420 N428 1.356 . S
C421 C420 1.363 . S
C421 C427 1.363 . S
C422 C423 1.363 . S
C422 C427 1.379 . S
C422 N429 1.356 . S
C423 C422 1.363 . S
C423 C426 1.363 . S
N424 C426 1.356 . S
N424 H436 0.984 . S
N424 H437 0.985 . S
N425 C427 1.356 . S
N425 H430 0.984 . S
N425 H431 0.985 . S
C426 C420 1.379 . S
C426 C423 1.363 . S
C426 N424 1.356 . S
C427 C421 1.363 . S
C427 C422 1.379 . S
C427 N425 1.356 . S
N428 C420 1.356 . S
N428 H434 0.984 . S
N428 H435 0.984 . S
N429 C422 1.356 . S
N429 H432 0.984 . S
N429 H433 0.985 . S
H430 N425 0.984 . S
H431 N425 0.985 . S
H432 N429 0.984 . S
H433 N429 0.985 . S
H434 N428 0.984 . S
H435 N428 0.984 . S
H436 N424 0.984 . S
H437 N424 0.985 . S
C438 C439 1.363 . S
C438 C444 1.379 . S
C438 N446 1.356 . S
C439 C438 1.363 . S
C439 C445 1.363 . S
C440 C441 1.363 . S
C440 C445 1.379 . S
C440 N447 1.356 . S
C441 C440 1.363 . S
C441 C444 1.363 . S
N442 C444 1.356 . S
N442 H454 0.984 . S
N442 H455 0.985 . S
N443 C445 1.356 . S
N443 H448 0.984 . S
N443 H449 0.985 . S
C444 C438 1.379 . S
C444 C441 1.363 . S
C444 N442 1.356 . S
C445 C439 1.363 . S
C445 C440 1.379 . S
C445 N443 1.356 . S
N446 C438 1.356 . S
N446 H452 0.984 . S
N446 H453 0.984 . S
N447 C440 1.356 . S
N447 H450 0.984 . S
N447 H451 0.985 . S
H448 N443 0.984 . S
H449 N443 0.985 . S
H450 N447 0.984 . S
H451 N447 0.985 . S
H452 N446 0.984 . S
H453 N446 0.984 . S
H454 N442 0.984 . S
H455 N442 0.985 . S
C456 C457 1.363 . S
C456 C462 1.379 . S
C456 N464 1.356 . S
C457 C456 1.363 . S
C457 C463 1.363 . S
C458 C459 1.363 . S
C458 C463 1.379 . S
C458 N465 1.356 . S
C459 C458 1.363 . S
C459 C462 1.363 . S
N460 C462 1.356 . S
N460 H472 0.984 . S
N460 H473 0.985 . S
N461 C463 1.356 . S
N461 H466 0.984 . S
N461 H467 0.985 . S
C462 C456 1.379 . S
C462 C459 1.363 . S
C462 N460 1.356 . S
C463 C457 1.363 . S
C463 C458 1.379 . S
C463 N461 1.356 . S
N464 C456 1.356 . S
N464 H470 0.984 . S
N464 H471 0.984 . S
N465 C458 1.356 . S
N465 H468 0.984 . S
N465 H469 0.985 . S
H466 N461 0.984 . S
H467 N461 0.985 . S
H468 N465 0.984 . S
H469 N465 0.985 . S
H470 N464 0.984 . S
H471 N464 0.984 . S
H472 N460 0.984 . S
H473 N460 0.985 . S
C474 C475 1.363 . S
C474 C480 1.379 . S
C474 N482 1.356 . S
C475 C474 1.363 . S
C475 C481 1.363 . S
C476 C477 1.363 . S
C476 C481 1.379 . S
C476 N483 1.356 . S
C477 C476 1.363 . S
C477 C480 1.363 . S
N478 C480 1.356 . S
N478 H490 0.984 . S
N478 H491 0.985 . S
N479 C481 1.356 . S
N479 H484 0.984 . S
N479 H485 0.985 . S
C480 C474 1.379 . S
C480 C477 1.363 . S
C480 N478 1.356 . S
C481 C475 1.363 . S
C481 C476 1.379 . S
C481 N479 1.356 . S
N482 C474 1.356 . S
N482 H488 0.984 . S
N482 H489 0.984 . S
N483 C476 1.356 . S
N483 H486 0.984 . S
N483 H487 0.985 . S
H484 N479 0.984 . S
H485 N479 0.985 . S
H486 N483 0.984 . S
H487 N483 0.985 . S
H488 N482 0.984 . S
H489 N482 0.984 . S
H490 N478 0.984 . S
H491 N478 0.985 . S
C492 C493 1.363 . S
C492 C498 1.379 . S
C492 N500 1.356 . S
C493 C492 1.363 . S
C493 C499 1.363 . S
C494 C495 1.363 . S
C494 C499 1.379 . S
C494 N501 1.356 . S
C495 C494 1.363 . S
C495 C498 1.363 . S
N496 C498 1.356 . S
N496 H508 0.984 . S
N496 H509 0.985 . S
N497 C499 1.356 . S
N497 H502 0.984 . S
N497 H503 0.985 . S
C498 C492 1.379 . S
C498 C495 1.363 . S
C498 N496 1.356 . S
C499 C493 1.363 . S
C499 C494 1.379 . S
C499 N497 1.356 . S
N500 C492 1.356 . S
N500 H506 0.984 . S
N500 H507 0.984 . S
N501 C494 1.356 . S
N501 H504 0.984 . S
N501 H505 0.985 . S
H502 N497 0.984 . S
H503 N497 0.985 . S
H504 N501 0.984 . S
H505 N501 0.985 . S
H506 N500 0.984 . S
H507 N500 0.984 . S
H508 N496 0.984 . S
H509 N496 0.985 . S
C510 C511 1.363 . S
C510 C516 1.379 . S
C510 N518 1.356 . S
C511 C510 1.363 . S
C511 C517 1.363 . S
C512 C513 1.363 . S
C512 C517 1.379 . S
C512 N519 1.356 . S
C513 C512 1.363 . S
C513 C516 1.363 . S
N514 C516 1.356 . S
N514 H526 0.984 . S
N514 H527 0.985 . S
N515 C517 1.356 . S
N515 H520 0.984 . S
N515 H521 0.985 . S
C516 C510 1.379 . S
C516 C513 1.363 . S
C516 N514 1.356 . S
C517 C511 1.363 . S
C517 C512 1.379 . S
C517 N515 1.356 . S
N518 C510 1.356 . S
N518 H524 0.984 . S
N518 H525 0.984 . S
N519 C512 1.356 . S
N519 H522 0.984 . S
N519 H523 0.985 . S
H520 N515 0.984 . S
H521 N515 0.985 . S
H522 N519 0.984 . S
H523 N519 0.985 . S
H524 N518 0.984 . S
H525 N518 0.984 . S
H526 N514 0.984 . S
H527 N514 0.985 . S
C528 C529 1.363 1_556 S
C528 C534 1.379 . S
C528 N536 1.356 . S
C529 C528 1.363 1_554 S
C529 C535 1.363 . S
C530 C531 1.363 . S
C530 C535 1.379 . S
C530 N537 1.356 . S
C531 C530 1.363 . S
C531 C534 1.363 1_554 S
N532 C534 1.356 . S
N532 H544 0.984 . S
N532 H545 0.985 . S
N533 C535 1.356 . S
N533 H538 0.984 . S
N533 H539 0.985 . S
C534 C528 1.379 . S
C534 C531 1.363 1_556 S
C534 N532 1.356 . S
C535 C529 1.363 . S
C535 C530 1.379 . S
C535 N533 1.356 . S
N536 C528 1.356 . S
N536 H542 0.984 . S
N536 H543 0.984 . S
N537 C530 1.356 . S
N537 H540 0.984 . S
N537 H541 0.985 . S
H538 N533 0.984 . S
H539 N533 0.985 . S
H540 N537 0.984 . S
H541 N537 0.985 . S
H542 N536 0.984 . S
H543 N536 0.984 . S
H544 N532 0.984 . S
H545 N532 0.985 . S
C546 C547 1.363 . S
C546 C552 1.379 . S
C546 N554 1.356 . S
C547 C546 1.363 . S
C547 C553 1.363 . S
C548 C549 1.363 . S
C548 C553 1.379 . S
C548 N555 1.356 . S
C549 C548 1.363 . S
C549 C552 1.363 . S
N550 C552 1.356 . S
N550 H562 0.984 . S
N550 H563 0.985 . S
N551 C553 1.356 . S
N551 H556 0.984 . S
N551 H557 0.985 . S
C552 C546 1.379 . S
C552 C549 1.363 . S
C552 N550 1.356 . S
C553 C547 1.363 . S
C553 C548 1.379 . S
C553 N551 1.356 . S
N554 C546 1.356 . S
N554 H560 0.984 . S
N554 H561 0.984 . S
N555 C548 1.356 . S
N555 H558 0.984 . S
N555 H559 0.985 . S
H556 N551 0.984 . S
H557 N551 0.985 . S
H558 N555 0.984 . S
H559 N555 0.985 . S
H560 N554 0.984 . S
H561 N554 0.984 . S
H562 N550 0.984 . S
H563 N550 0.985 . S
C564 C565 1.363 1_556 S
C564 C570 1.379 . S
C564 N572 1.356 . S
C565 C564 1.363 1_554 S
C565 C571 1.363 . S
C566 C567 1.363 . S
C566 C571 1.379 . S
C566 N573 1.356 . S
C567 C566 1.363 . S
C567 C570 1.363 1_554 S
N568 C570 1.356 . S
N568 H580 0.984 . S
N568 H581 0.985 . S
N569 C571 1.356 . S
N569 H574 0.984 . S
N569 H575 0.985 . S
C570 C564 1.379 . S
C570 C567 1.363 1_556 S
C570 N568 1.356 . S
C571 C565 1.363 . S
C571 C566 1.379 . S
C571 N569 1.356 . S
N572 C564 1.356 . S
N572 H578 0.984 . S
N572 H579 0.984 . S
N573 C566 1.356 . S
N573 H576 0.984 . S
N573 H577 0.985 . S
H574 N569 0.984 . S
H575 N569 0.985 . S
H576 N573 0.984 . S
H577 N573 0.985 . S
H578 N572 0.984 . S
H579 N572 0.984 . S
H580 N568 0.984 . S
H581 N568 0.985 . S
C582 C583 1.363 . S
C582 C588 1.379 . S
C582 N590 1.356 . S
C583 C582 1.363 . S
C583 C589 1.363 . S
C584 C585 1.363 . S
C584 C589 1.379 . S
C584 N591 1.356 . S
C585 C584 1.363 . S
C585 C588 1.363 . S
N586 C588 1.356 . S
N586 H598 0.984 . S
N586 H599 0.985 . S
N587 C589 1.356 . S
N587 H592 0.984 . S
N587 H593 0.985 . S
C588 C582 1.379 . S
C588 C585 1.363 . S
C588 N586 1.356 . S
C589 C583 1.363 . S
C589 C584 1.379 . S
C589 N587 1.356 . S
N590 C582 1.356 . S
N590 H596 0.984 . S
N590 H597 0.984 . S
N591 C584 1.356 . S
N591 H594 0.984 . S
N591 H595 0.985 . S
H592 N587 0.984 . S
H593 N587 0.985 . S
H594 N591 0.984 . S
H595 N591 0.985 . S
H596 N590 0.984 . S
H597 N590 0.984 . S
H598 N586 0.984 . S
H599 N586 0.985 . S
C600 C601 1.363 . S
C600 C606 1.379 . S
C600 N608 1.356 . S
C601 C600 1.363 . S
C601 C607 1.363 . S
C602 C603 1.363 . S
C602 C607 1.379 . S
C602 N609 1.356 . S
C603 C602 1.363 . S
C603 C606 1.363 . S
N604 C606 1.356 . S
N604 H616 0.984 . S
N604 H617 0.985 . S
N605 C607 1.356 . S
N605 H610 0.984 . S
N605 H611 0.985 . S
C606 C600 1.379 . S
C606 C603 1.363 . S
C606 N604 1.356 . S
C607 C601 1.363 . S
C607 C602 1.379 . S
C607 N605 1.356 . S
N608 C600 1.356 . S
N608 H614 0.984 . S
N608 H615 0.984 . S
N609 C602 1.356 . S
N609 H612 0.984 . S
N609 H613 0.985 . S
H610 N605 0.984 . S
H611 N605 0.985 . S
H612 N609 0.984 . S
H613 N609 0.985 . S
H614 N608 0.984 . S
H615 N608 0.984 . S
H616 N604 0.984 . S
H617 N604 0.985 . S
C618 C619 1.363 1_556 S
C618 C624 1.379 . S
C618 N626 1.356 . S
C619 C618 1.363 1_554 S
C619 C625 1.363 . S
C620 C621 1.363 . S
C620 C625 1.379 . S
C620 N627 1.356 . S
C621 C620 1.363 . S
C621 C624 1.363 1_554 S
N622 C624 1.356 . S
N622 H634 0.984 . S
N622 H635 0.985 . S
N623 C625 1.356 . S
N623 H628 0.984 . S
N623 H629 0.985 . S
C624 C618 1.379 . S
C624 C621 1.363 1_556 S
C624 N622 1.356 . S
C625 C619 1.363 . S
C625 C620 1.379 . S
C625 N623 1.356 . S
N626 C618 1.356 . S
N626 H632 0.984 . S
N626 H633 0.984 . S
N627 C620 1.356 . S
N627 H630 0.984 . S
N627 H631 0.985 . S
H628 N623 0.984 . S
H629 N623 0.985 . S
H630 N627 0.984 . S
H631 N627 0.985 . S
H632 N626 0.984 . S
H633 N626 0.984 . S
H634 N622 0.984 . S
H635 N622 0.985 . S
C636 C637 1.363 . S
C636 C642 1.379 . S
C636 N644 1.356 . S
C637 C636 1.363 . S
C637 C643 1.363 . S
C638 C639 1.363 . S
C638 C643 1.379 . S
C638 N645 1.356 . S
C639 C638 1.363 . S
C639 C642 1.363 . S
N640 C642 1.356 . S
N640 H652 0.984 . S
N640 H653 0.985 . S
N641 C643 1.356 . S
N641 H646 0.984 . S
N641 H647 0.985 . S
C642 C636 1.379 . S
C642 C639 1.363 . S
C642 N640 1.356 . S
C643 C637 1.363 . S
C643 C638 1.379 . S
C643 N641 1.356 . S
N644 C636 1.356 . S
N644 H650 0.984 . S
N644 H651 0.984 . S
N645 C638 1.356 . S
N645 H648 0.984 . S
N645 H649 0.985 . S
H646 N641 0.984 . S
H647 N641 0.985 . S
H648 N645 0.984 . S
H649 N645 0.985 . S
H650 N644 0.984 . S
H651 N644 0.984 . S
H652 N640 0.984 . S
H653 N640 0.985 . S
C654 C655 1.363 . S
C654 C660 1.379 . S
C654 N662 1.356 . S
C655 C654 1.363 . S
C655 C661 1.363 1_554 S
C656 C657 1.363 1_556 S
C656 C661 1.379 . S
C656 N663 1.356 . S
C657 C656 1.363 1_554 S
C657 C660 1.363 . S
N658 C660 1.356 . S
N658 H670 0.984 . S
N658 H671 0.985 . S
N659 C661 1.356 . S
N659 H664 0.984 . S
N659 H665 0.985 . S
C660 C654 1.379 . S
C660 C657 1.363 . S
C660 N658 1.356 . S
C661 C655 1.363 1_556 S
C661 C656 1.379 . S
C661 N659 1.356 . S
N662 C654 1.356 . S
N662 H668 0.984 . S
N662 H669 0.984 . S
N663 C656 1.356 . S
N663 H666 0.984 . S
N663 H667 0.985 . S
H664 N659 0.984 . S
H665 N659 0.985 . S
H666 N663 0.984 . S
H667 N663 0.985 . S
H668 N662 0.984 . S
H669 N662 0.984 . S
H670 N658 0.984 . S
H671 N658 0.985 . S
C241 C21 1.513 . S
C243 C151 1.523 . S
C259 C40 1.504 . S
C261 C94 1.498 . S
C279 C109 1.474 . S
C277 C54 1.521 . S
C295 C73 1.532 . S
C297 C128 1.501 . S
C315 C185 1.460 . S
C313 C74 1.503 . S
C333 C204 1.488 . S
C331 C10 1.537 . S
C351 C227 1.536 . S
C349 C37 1.534 . S
C369 C170 1.512 . S
C367 C65 1.500 . S
C385 C52 1.472 . S
C387 C113 1.470 . S
C403 C87 1.516 . S
C405 C132 1.523 . S
C421 C15 1.566 . S
C423 C147 1.525 . S
C441 C90 1.471 . S
C439 C32 1.518 . S
C457 C29 1.545 . S
C459 C223 1.511 . S
C477 C166 1.512 . S
C475 C59 1.550 . S
C495 C189 1.483 . S
C493 C84 1.487 . S
C511 C8 1.485 . S
C513 C208 1.482 . S
C531 C99 1.384 1_554 S
C529 C7 1.505 . S
C549 C118 1.377 . S
C547 C30 1.489 . S
C565 C62 1.501 . S
C567 C137 1.391 . S
C583 C81 1.516 . S
C585 C156 1.388 . S
C603 C175 1.365 . S
C601 C76 1.501 . S
C619 C18 1.490 . S
C621 C194 1.375 1_554 S
C637 C43 1.504 . S
C639 C213 1.400 . S
C655 C51 1.517 . S
C657 C232 1.385 . S
