# Generated by pormake.
# Topology zzz, (3,6)-cn, num edge types: 1
# Building blocks:
#     Node 0, Type 0, BuildingBlock: KAKCAD_clean_linker_0, # of connection points: 3
#     Node 1, Type 0, BuildingBlock: KAKCAD_clean_linker_0, # of connection points: 3
#     Node 2, Type 0, BuildingBlock: KAKCAD_clean_linker_0, # of connection points: 3
#     Node 3, Type 0, BuildingBlock: KAKCAD_clean_linker_0, # of connection points: 3
#     Node 4, Type 0, BuildingBlock: KAKCAD_clean_linker_0, # of connection points: 3
#     Node 5, Type 0, BuildingBlock: KAKCAD_clean_linker_0, # of connection points: 3
#     Node 6, Type 0, BuildingBlock: KAKCAD_clean_linker_0, # of connection points: 3
#     Node 7, Type 0, BuildingBlock: KAKCAD_clean_linker_0, # of connection points: 3
#     Node 8, Type 1, BuildingBlock: KUMBUR_clean_sbu_0, # of connection points: 6
#     Node 9, Type 1, BuildingBlock: KUMBUR_clean_sbu_0, # of connection points: 6
#     Node 10, Type 1, BuildingBlock: KUMBUR_clean_sbu_0, # of connection points: 6
#     Node 11, Type 1, BuildingBlock: KUMBUR_clean_sbu_0, # of connection points: 6
#     Edge 12, Type (0, 1), BuildingBlock: XIVTED_clean_linker_0, # of connection points: 2
#     Edge 13, Type (0, 1), BuildingBlock: XIVTED_clean_linker_0, # of connection points: 2
#     Edge 14, Type (0, 1), BuildingBlock: XIVTED_clean_linker_0, # of connection points: 2
#     Edge 15, Type (0, 1), BuildingBlock: XIVTED_clean_linker_0, # of connection points: 2
#     Edge 16, Type (0, 1), BuildingBlock: XIVTED_clean_linker_0, # of connection points: 2
#     Edge 17, Type (0, 1), BuildingBlock: XIVTED_clean_linker_0, # of connection points: 2
#     Edge 18, Type (0, 1), BuildingBlock: XIVTED_clean_linker_0, # of connection points: 2
#     Edge 19, Type (0, 1), BuildingBlock: XIVTED_clean_linker_0, # of connection points: 2
#     Edge 20, Type (0, 1), BuildingBlock: XIVTED_clean_linker_0, # of connection points: 2
#     Edge 21, Type (0, 1), BuildingBlock: XIVTED_clean_linker_0, # of connection points: 2
#     Edge 22, Type (0, 1), BuildingBlock: XIVTED_clean_linker_0, # of connection points: 2
#     Edge 23, Type (0, 1), BuildingBlock: XIVTED_clean_linker_0, # of connection points: 2
#     Edge 24, Type (0, 1), BuildingBlock: XIVTED_clean_linker_0, # of connection points: 2
#     Edge 25, Type (0, 1), BuildingBlock: XIVTED_clean_linker_0, # of connection points: 2
#     Edge 26, Type (0, 1), BuildingBlock: XIVTED_clean_linker_0, # of connection points: 2
#     Edge 27, Type (0, 1), BuildingBlock: XIVTED_clean_linker_0, # of connection points: 2
#     Edge 28, Type (0, 1), BuildingBlock: XIVTED_clean_linker_0, # of connection points: 2
#     Edge 29, Type (0, 1), BuildingBlock: XIVTED_clean_linker_0, # of connection points: 2
#     Edge 30, Type (0, 1), BuildingBlock: XIVTED_clean_linker_0, # of connection points: 2
#     Edge 31, Type (0, 1), BuildingBlock: XIVTED_clean_linker_0, # of connection points: 2
#     Edge 32, Type (0, 1), BuildingBlock: XIVTED_clean_linker_0, # of connection points: 2
#     Edge 33, Type (0, 1), BuildingBlock: XIVTED_clean_linker_0, # of connection points: 2
#     Edge 34, Type (0, 1), BuildingBlock: XIVTED_clean_linker_0, # of connection points: 2
#     Edge 35, Type (0, 1), BuildingBlock: XIVTED_clean_linker_0, # of connection points: 2
# Relax obj value: 0.295
# Max RMSD: 0.225
# Mean RMSD: 0.211
data_MOF--net-zzz--node1-KUMBUR_clean_sbu_0--node2-KAKCAD_clean_linker_0--edge1-XIVTED_clean_linker_0
_symmetry_space_group_name_H-M    P1
_symmetry_Int_Tables_number       1
_symmetry_cell_setting            triclinic
loop_
_symmetry_equiv_pos_as_xyz
'x, y, z'
_cell_length_a     57.614632
_cell_length_b     57.499252
_cell_length_c     19.994151
_cell_angle_alpha  90.660656
_cell_angle_beta   90.225039
_cell_angle_gamma 90.000177
loop_
_atom_site_label
_atom_site_type_symbol
_atom_site_fract_x
_atom_site_fract_y
_atom_site_fract_z
_atom_type_partial_charge
C0 C 0.79407 0.60526 0.94702 0.0
C1 C 0.81704 0.59726 0.9456 0.0
C2 C 0.77873 0.59711 0.99591 0.0
C3 C 0.7861 0.58047 0.04289 0.0
C4 C 0.80919 0.57257 0.04021 0.0
C5 C 0.82446 0.58104 0.99279 0.0
C6 C 0.76992 0.57027 0.09275 0.0
C7 C 0.74666 0.56568 0.07638 0.0
C8 C 0.73214 0.55337 0.12007 0.0
C9 C 0.74151 0.54495 0.18093 0.0
C10 C 0.7648 0.55006 0.19864 0.0
C11 C 0.77838 0.56319 0.15517 0.0
C12 C 0.7767 0.54111 0.25946 0.0
C13 C 0.77956 0.55567 0.3158 0.0
C14 C 0.7909 0.52134 0.25358 0.0
C15 C 0.80837 0.51688 0.30093 0.0
C16 C 0.81224 0.53215 0.35561 0.0
C17 C 0.70759 0.54923 0.09842 0.0
C18 C 0.69399 0.56811 0.07727 0.0
C19 C 0.69883 0.52662 0.08869 0.0
C20 C 0.67753 0.523 0.05528 0.0
C21 C 0.66443 0.54192 0.03103 0.0
C22 C 0.67273 0.56454 0.04449 0.0
C23 C 0.79694 0.55116 0.36352 0.0
H24 H 0.78802 0.6176 0.91033 0.0
H25 H 0.76114 0.60371 0.99659 0.0
H26 H 0.81546 0.5592 0.07341 0.0
H27 H 0.84201 0.57425 0.99142 0.0
H28 H 0.73995 0.57078 0.02802 0.0
H29 H 0.7961 0.56724 0.16966 0.0
H30 H 0.73084 0.53477 0.21411 0.0
H31 H 0.76932 0.5714 0.32069 0.0
H32 H 0.78965 0.51026 0.2095 0.0
H33 H 0.81979 0.50224 0.29194 0.0
H34 H 0.70024 0.58575 0.08414 0.0
H35 H 0.70905 0.51172 0.1035 0.0
H36 H 0.79891 0.56314 0.40531 0.0
H37 H 0.66301 0.57962 0.02856 0.0
H38 H 0.67191 0.5053 0.04577 0.0
C39 C 0.91646 0.7897 0.92633 0.0
C40 C 0.92326 0.8129 0.9177 0.0
C41 C 0.92312 0.77769 0.98386 0.0
C42 C 0.93738 0.78846 0.03271 0.0
C43 C 0.94258 0.81223 0.02577 0.0
C44 C 0.93539 0.82431 0.96947 0.0
C45 C 0.94936 0.77463 0.08549 0.0
C46 C 0.95644 0.75169 0.0721 0.0
C47 C 0.97091 0.73956 0.11631 0.0
C48 C 0.97929 0.75117 0.17466 0.0
C49 C 0.97174 0.77414 0.18979 0.0
C50 C 0.95631 0.78517 0.146 0.0
C51 C 0.98054 0.78844 0.24735 0.0
C52 C 0.96573 0.79387 0.30104 0.0
C53 C 1.00072 0.80185 0.23962 0.0
C54 C 1.00542 0.82086 0.28247 0.0
C55 C 0.99004 0.82711 0.33458 0.0
C56 C 0.97696 0.71504 0.09713 0.0
C57 C 0.95891 0.699 0.08544 0.0
C58 C 0.99947 0.70895 0.07636 0.0
C59 C 1.00351 0.68785 0.04156 0.0
C60 C 0.98511 0.67239 0.02635 0.0
C61 C 0.9629 0.67803 0.05087 0.0
C62 C 0.97051 0.81274 0.34439 0.0
H63 H 0.90706 0.78053 0.8871 0.0
H64 H 0.91807 0.75965 0.98821 0.0
H65 H 0.95379 0.82127 0.06094 0.0
H66 H 0.94127 0.84208 0.96378 0.0
H67 H 0.95162 0.74334 0.02523 0.0
H68 H 0.95052 0.80264 0.15823 0.0
H69 H 0.99122 0.74243 0.20797 0.0
H70 H 0.94972 0.78426 0.30723 0.0
H71 H 0.01203 0.79865 0.19734 0.0
H72 H 0.02046 0.83145 0.27189 0.0
H73 H 0.94133 0.70326 0.1002 0.0
H74 H 0.01364 0.72114 0.08323 0.0
H75 H 0.95841 0.81643 0.38438 0.0
H76 H 0.94835 0.66648 0.04184 0.0
H77 H 0.02085 0.68427 0.02346 0.0
C78 C 0.71619 0.90799 0.962 0.0
C79 C 0.69267 0.91442 0.96177 0.0
C80 C 0.73095 0.91554 0.01384 0.0
C81 C 0.72259 0.93024 0.06537 0.0
C82 C 0.69867 0.93528 0.0667 0.0
C83 C 0.68395 0.92726 0.01626 0.0
C84 C 0.73865 0.94274 0.11265 0.0
C85 C 0.7609 0.94962 0.09217 0.0
C86 C 0.7744 0.96514 0.13089 0.0
C87 C 0.76486 0.97479 0.19025 0.0
C88 C 0.74287 0.96727 0.21276 0.0
C89 C 0.7306 0.95063 0.17509 0.0
C90 C 0.73054 0.97777 0.27106 0.0
C91 C 0.72538 0.96401 0.32671 0.0
C92 C 0.71845 0.99877 0.2631 0.0
C93 C 0.70064 1.00518 0.30746 0.0
C94 C 0.69446 0.99077 0.36129 0.0
C95 C 0.7979 0.97139 0.1053 0.0
C96 C 0.81367 0.95359 0.08853 0.0
C97 C 0.80338 0.99432 0.08756 0.0
C98 C 0.82359 0.99908 0.05074 0.0
C99 C 0.8389 0.98106 0.03143 0.0
C100 C 0.83391 0.95835 0.05253 0.0
C101 C 0.70778 0.97052 0.37158 0.0
H102 H 0.72337 0.89808 0.92058 0.0
H103 H 0.74908 0.91067 0.01171 0.0
H104 H 0.6913 0.94693 0.10376 0.0
H105 H 0.66605 0.93301 0.0171 0.0
H106 H 0.76747 0.94396 0.04399 0.0
H107 H 0.71388 0.94489 0.19326 0.0
H108 H 0.77448 0.9877 0.21884 0.0
H109 H 0.73407 0.94748 0.33326 0.0
H110 H 0.72153 0.00934 0.21951 0.0
H111 H 0.69081 0.02073 0.29672 0.0
H112 H 0.80982 0.93571 0.10103 0.0
H113 H 0.79145 0.00835 0.09903 0.0
H114 H 0.70411 0.95917 0.41301 0.0
H115 H 0.84504 0.94396 0.03831 0.0
H116 H 0.82696 0.01683 0.0361 0.0
C117 C 0.52538 0.71829 0.32783 0.0
C118 C 0.54204 0.70596 0.36546 0.0
C119 C 0.53221 0.73443 0.27924 0.0
C120 C 0.55585 0.73861 0.26707 0.0
C121 C 0.57237 0.72753 0.30774 0.0
C122 C 0.56561 0.71145 0.35597 0.0
C123 C 0.56359 0.75036 0.20469 0.0
C124 C 0.55539 0.77245 0.18453 0.0
C125 C 0.56219 0.78161 0.12212 0.0
C126 C 0.57705 0.76853 0.08069 0.0
C127 C 0.58485 0.74649 0.09937 0.0
C128 C 0.57835 0.73779 0.1617 0.0
C129 C 0.59675 0.73098 0.05039 0.0
C130 C 0.58799 0.72889 0.98496 0.0
C131 C 0.61438 0.71572 0.07094 0.0
C132 C 0.62125 0.69721 0.02952 0.0
C133 C 0.61043 0.6935 0.96706 0.0
C134 C 0.5533 0.80406 0.09565 0.0
C135 C 0.54257 0.80421 0.03238 0.0
C136 C 0.55894 0.82545 0.12636 0.0
C137 C 0.55526 0.84647 0.09234 0.0
C138 C 0.54599 0.84641 0.02692 0.0
C139 C 0.53896 0.82504 0.99857 0.0
C140 C 0.59475 0.71038 0.94377 0.0
H141 H 0.50704 0.71497 0.33437 0.0
H142 H 0.51906 0.74249 0.24837 0.0
H143 H 0.59073 0.7303 0.29947 0.0
H144 H 0.57909 0.70235 0.38294 0.0
H145 H 0.54356 0.78214 0.21626 0.0
H146 H 0.58354 0.72031 0.17507 0.0
H147 H 0.58211 0.77535 0.03254 0.0
H148 H 0.57431 0.74027 0.96755 0.0
H149 H 0.62183 0.71723 0.12064 0.0
H150 H 0.63379 0.68486 0.04843 0.0
H151 H 0.538 0.78798 1.00754 0.0
H152 H 0.56748 0.82583 0.17471 0.0
H153 H 0.58583 0.70815 0.89637 0.0
H154 H 0.53127 0.82432 0.94907 0.0
H155 H 0.56085 0.86261 0.11572 0.0
C156 C 0.21717 0.43851 0.32287 0.0
C157 C 0.20168 0.42107 0.30036 0.0
C158 C 0.23503 0.4463 0.28187 0.0
C159 C 0.23764 0.4371 0.21715 0.0
C160 C 0.22374 0.41827 0.19671 0.0
C161 C 0.20618 0.41006 0.23838 0.0
C162 C 0.25224 0.44955 0.16856 0.0
C163 C 0.27533 0.45506 0.18366 0.0
C164 C 0.28835 0.46967 0.14211 0.0
C165 C 0.27754 0.47927 0.08472 0.0
C166 C 0.25421 0.47348 0.06879 0.0
C167 C 0.242 0.45847 0.1107 0.0
C168 C 0.24113 0.48342 0.01137 0.0
C169 C 0.22513 0.50143 0.02314 0.0
C170 C 0.23998 0.47126 0.95009 0.0
C171 C 0.22263 0.47639 0.90278 0.0
C172 C 0.20577 0.49366 0.91583 0.0
C173 C 0.31279 0.47495 0.16269 0.0
C174 C 0.32003 0.49782 0.17704 0.0
C175 C 0.32785 0.45657 0.17885 0.0
C176 C 0.34901 0.46076 0.21157 0.0
C177 C 0.35578 0.48351 0.22977 0.0
C178 C 0.34126 0.50206 0.21026 0.0
C179 C 0.20777 0.50656 0.97604 0.0
H180 H 0.21442 0.44773 0.36964 0.0
H181 H 0.2455 0.46091 0.29865 0.0
H182 H 0.22571 0.41071 0.14718 0.0
H183 H 0.19522 0.39608 0.22001 0.0
H184 H 0.28302 0.44839 0.22917 0.0
H185 H 0.22392 0.4546 0.09982 0.0
H186 H 0.2871 0.491 0.05301 0.0
H187 H 0.22513 0.51058 0.07082 0.0
H188 H 0.25169 0.45689 0.9404 0.0
H189 H 0.22203 0.46628 0.85681 0.0
H190 H 0.30869 0.51233 0.16616 0.0
H191 H 0.3228 0.43874 0.16834 0.0
H192 H 0.19509 0.51974 0.98888 0.0
H193 H 0.3457 0.51982 0.22349 0.0
H194 H 0.35986 0.44603 0.22383 0.0
C195 C 0.1052 0.22247 0.30818 0.0
C196 C 0.11885 0.20524 0.27692 0.0
C197 C 0.09409 0.23942 0.27043 0.0
C198 C 0.09646 0.23966 0.20052 0.0
C199 C 0.11246 0.22433 0.1704 0.0
C200 C 0.12352 0.20723 0.20824 0.0
C201 C 0.07938 0.25277 0.15946 0.0
C202 C 0.07085 0.27437 0.18131 0.0
C203 C 0.05124 0.28462 0.15149 0.0
C204 C 0.04055 0.27307 0.0961 0.0
C205 C 0.0496 0.25156 0.07201 0.0
C206 C 0.06893 0.24187 0.10405 0.0
C207 C 0.03868 0.23706 0.01787 0.0
C208 C 0.01952 0.22287 0.03231 0.0
C209 C 0.05119 0.23235 0.95896 0.0
C210 C 0.04538 0.21339 0.91714 0.0
C211 C 0.02704 0.19823 0.9334 0.0
C212 C 0.04202 0.30654 0.1833 0.0
C213 C 0.03924 0.30754 0.25327 0.0
C214 C 0.0393 0.32726 0.14731 0.0
C215 C 0.03522 0.34859 0.18107 0.0
C216 C 0.03389 0.3497 0.25162 0.0
C217 C 0.03531 0.3287 0.28678 0.0
C218 C 0.01376 0.20377 0.99073 0.0
H219 H 0.10099 0.22149 0.36081 0.0
H220 H 0.08187 0.25082 0.29558 0.0
H221 H 0.11518 0.22448 0.11683 0.0
H222 H 0.1343 0.1945 0.18287 0.0
H223 H 0.07916 0.283 0.22355 0.0
H224 H 0.07486 0.22479 0.0881 0.0
H225 H 0.02515 0.28037 0.07325 0.0
H226 H 0.01002 0.22552 0.07843 0.0
H227 H 0.06639 0.2426 0.94727 0.0
H228 H 0.05579 0.21025 0.87301 0.0
H229 H 0.04099 0.29192 0.28265 0.0
H230 H 0.04154 0.32717 0.09355 0.0
H231 H 0.99969 0.19257 1.00598 0.0
H232 H 0.03378 0.32862 0.34074 0.0
H233 H 0.03417 0.36436 0.15212 0.0
C234 C 0.31525 0.11802 0.28972 0.0
C235 C 0.33356 0.12906 0.25616 0.0
C236 C 0.29646 0.10883 0.2542 0.0
C237 C 0.29539 0.11056 0.18419 0.0
C238 C 0.31205 0.12431 0.15181 0.0
C239 C 0.33101 0.13343 0.18745 0.0
C240 C 0.27994 0.09447 0.14558 0.0
C241 C 0.25822 0.08802 0.17072 0.0
C242 C 0.24624 0.06834 0.14578 0.0
C243 C 0.25578 0.05595 0.09048 0.0
C244 C 0.27707 0.06323 0.06212 0.0
C245 C 0.28879 0.08234 0.09018 0.0
C246 C 0.28945 0.05035 1.00794 0.0
C247 C 0.30403 0.03167 0.02438 0.0
C248 C 0.29228 0.06089 0.94542 0.0
C249 C 0.31005 0.05378 0.90189 0.0
C250 C 0.32579 0.03615 0.92011 0.0
C251 C 0.22496 0.06052 0.18262 0.0
C252 C 0.22473 0.0617 0.25302 0.0
C253 C 0.2044 0.05375 0.14956 0.0
C254 C 0.18394 0.04936 0.18607 0.0
C255 C 0.18353 0.05164 0.25662 0.0
C256 C 0.20444 0.05767 0.28912 0.0
C257 C 0.32194 0.02463 0.98107 0.0
H258 H 0.3165 0.11412 0.34245 0.0
H259 H 0.28411 0.09833 0.28119 0.0
H260 H 0.31138 0.12657 0.09813 0.0
H261 H 0.34453 0.14232 0.1603 0.0
H262 H 0.25106 0.09787 0.2123 0.0
H263 H 0.30586 0.08666 0.07131 0.0
H264 H 0.2472 0.04051 0.07114 0.0
H265 H 0.30278 0.02374 0.07312 0.0
H266 H 0.28167 0.0757 0.93211 0.0
H267 H 0.31197 0.06279 0.85499 0.0
H268 H 0.24028 0.06636 0.2807 0.0
H269 H 0.20389 0.0526 0.09548 0.0
H270 H 0.33368 0.01117 0.99768 0.0
H271 H 0.2052 0.06007 0.34282 0.0
H272 H 0.16845 0.04434 0.15875 0.0
C273 C 0.45553 0.30764 0.88665 0.0
C274 C 0.47906 0.31422 0.88364 0.0
C275 C 0.44783 0.29174 0.93424 0.0
C276 C 0.4633 0.2821 0.98094 0.0
C277 C 0.48708 0.28693 0.97433 0.0
C278 C 0.49488 0.30274 0.92615 0.0
C279 C 0.4541 0.27276 0.04503 0.0
C280 C 0.46193 0.25186 0.07416 0.0
C281 C 0.45489 0.24594 0.13963 0.0
C282 C 0.44096 0.26171 0.17612 0.0
C283 C 0.43337 0.2827 0.14826 0.0
C284 C 0.439 0.28721 0.08146 0.0
C285 C 0.42237 0.30126 0.19076 0.0
C286 C 0.40933 0.29598 0.24832 0.0
C287 C 0.42694 0.32482 0.1774 0.0
C288 C 0.41968 0.34232 0.22095 0.0
C289 C 0.40824 0.33694 0.28055 0.0
C290 C 0.46221 0.22388 0.17273 0.0
C291 C 0.45907 0.20207 0.14134 0.0
C292 C 0.46971 0.22446 0.23982 0.0
C293 C 0.47247 0.20396 0.27592 0.0
C294 C 0.46804 0.18216 0.246 0.0
C295 C 0.46201 0.1814 0.17759 0.0
C296 C 0.4027 0.31364 0.29342 0.0
H297 H 0.44261 0.31596 0.85564 0.0
H298 H 0.42936 0.28846 0.93818 0.0
H299 H 0.49944 0.27997 1.00983 0.0
H300 H 0.51323 0.30672 0.92445 0.0
H301 H 0.47366 0.24057 0.04672 0.0
H302 H 0.43277 0.30299 0.05848 0.0
H303 H 0.43659 0.25778 0.22734 0.0
H304 H 0.40495 0.2782 0.26002 0.0
H305 H 0.43753 0.33 0.13559 0.0
H306 H 0.42484 0.36003 0.21045 0.0
H307 H 0.4532 0.20101 0.08987 0.0
H308 H 0.47276 0.24092 0.26526 0.0
H309 H 0.39404 0.30904 0.3394 0.0
H310 H 0.45854 0.16489 0.1529 0.0
H311 H 0.47775 0.20521 0.32789 0.0
Tb312 Tb 0.02762 1.0061 0.6881 0.0
C313 C 0.94374 0.99424 0.50235 0.0
C314 C 0.95804 0.96794 0.4173 0.0
C315 C 0.91714 0.96754 0.44618 0.0
C316 C 0.96188 0.98544 0.4662 0.0
C317 C 0.92094 0.98609 0.49121 0.0
C318 C 0.93573 0.95842 0.40924 0.0
C319 C 0.90723 0.01736 0.56208 0.0
N320 N 0.94821 0.01236 0.54403 0.0
C321 C 0.93019 0.02478 0.57102 0.0
C322 C 0.90261 0.99759 0.52311 0.0
Tb323 Tb 0.98641 0.02258 0.56146 0.0
N324 N 0.98295 0.99549 0.47513 0.0
C325 C 1.00045 0.99023 0.43116 0.0
C326 C 0.97645 0.9613 0.3761 0.0
C327 C 0.99761 0.97288 0.38212 0.0
H328 H 0.93357 0.03996 0.6019 0.0
H329 H 0.01185 0.96835 0.34931 0.0
H330 H 0.9325 0.94472 0.37273 0.0
H331 H 0.89316 0.02685 0.58545 0.0
H332 H 0.01713 0.99848 0.43451 0.0
H333 H 1.00119 0.05493 0.91172 0.0
H334 H 0.97428 0.94788 0.33808 0.0
H335 H 0.08069 0.99433 0.63262 0.0
H336 H 0.9959 0.0268 0.82268 0.0
H337 H 0.12054 0.00875 0.65074 0.0
H338 H 0.89982 0.96077 0.4376 0.0
H339 H 0.03859 0.07521 0.92672 0.0
H340 H 0.07996 0.07993 0.89234 0.0
H341 H 0.88483 0.99193 0.51589 0.0
H342 H 0.11256 0.0673 0.82177 0.0
N343 N 0.03007 0.03081 0.78074 0.0
C344 C 0.01254 0.03511 0.82572 0.0
C345 C 0.03649 0.06271 0.88619 0.0
C346 C 0.05486 0.05724 0.8436 0.0
C347 C 0.01539 0.05128 0.87787 0.0
C348 C 0.05116 0.04092 0.79121 0.0
H349 H 0.12796 0.0404 0.73285 0.0
N350 N 0.06546 0.01766 0.70367 0.0
C351 C 0.10634 0.01613 0.67918 0.0
C352 C 0.06946 0.03408 0.75135 0.0
C353 C 0.08372 0.00797 0.66922 0.0
C354 C 0.11043 0.03404 0.72534 0.0
C355 C 0.09197 0.043 0.76285 0.0
O356 O 0.05015 0.98124 0.72968 0.0
O357 O 1.00577 0.99433 0.60561 0.0
O358 O 0.9661 1.00506 0.6396 0.0
O359 O 0.99224 1.00519 0.72978 0.0
O360 O 0.03926 0.98285 0.6074 0.0
O361 O 0.01352 0.97797 0.74129 0.0
O362 O 0.96905 0.05363 0.5383 0.0
O363 O 0.00871 0.03402 0.64312 0.0
O364 O 0.04615 0.02771 0.61503 0.0
O365 O 0.02214 0.02459 0.52176 0.0
O366 O 0.97669 0.04883 0.63724 0.0
O367 O 0.99717 0.0415 0.47741 0.0
C368 C 0.01976 0.98055 0.57686 0.0
C369 C 0.03413 0.94382 0.71171 0.0
C370 C 0.01345 0.90904 0.67208 0.0
C371 C 0.01421 0.92974 0.71054 0.0
C372 C 0.0332 0.90248 0.63526 0.0
C373 C 0.05388 0.93643 0.67611 0.0
C374 C 0.05331 0.91596 0.63803 0.0
C375 C 0.97103 1.00266 0.70425 0.0
C376 C 0.03333 0.96721 0.74371 0.0
C377 C 0.09547 0.06002 0.81274 0.0
C378 C 0.07692 0.06718 0.85293 0.0
C379 C 0.99585 0.04922 0.67019 0.0
C380 C 0.99664 0.08156 0.50725 0.0
C381 C 0.01985 0.08459 0.48747 0.0
C382 C 0.03233 0.10469 0.50619 0.0
C383 C 0.02109 0.12185 0.54514 0.0
C384 C 0.98581 0.09915 0.5453 0.0
C385 C 0.99804 0.11905 0.56439 0.0
C386 C 0.04245 0.02958 0.54984 0.0
C387 C 0.98442 0.05931 0.49417 0.0
H388 H 0.9993 0.93505 0.7398 0.0
H389 H 0.03315 0.88698 0.60402 0.0
H390 H 0.06955 0.94683 0.67581 0.0
H391 H 0.06842 0.91072 0.6096 0.0
H392 H 0.02829 0.07113 0.45825 0.0
H393 H 0.02982 0.13786 0.55919 0.0
H394 H 0.96799 0.09731 0.56153 0.0
H395 H 0.98959 0.13242 0.59405 0.0
Tb396 Tb 0.5132 0.0381 0.69754 0.0
C397 C 0.53702 0.94841 0.5381 0.0
C398 C 0.56359 0.95996 0.45148 0.0
C399 C 0.56549 0.9208 0.49557 0.0
C400 C 0.54531 0.96514 0.496 0.0
C401 C 0.54662 0.92585 0.5376 0.0
C402 C 0.57398 0.93786 0.45255 0.0
C403 C 0.51709 0.91457 0.61617 0.0
N404 N 0.51881 0.95402 0.57765 0.0
C405 C 0.5082 0.93721 0.61476 0.0
C406 C 0.5366 0.90893 0.57809 0.0
Tb407 Tb 0.50596 0.99185 0.57501 0.0
N408 N 0.53481 0.98624 0.49688 0.0
C409 C 0.54076 1.00243 0.45026 0.0
C410 C 0.57051 0.97695 0.40631 0.0
C411 C 0.5588 0.99816 0.40508 0.0
H412 H 0.49331 0.94137 0.64517 0.0
H413 H 0.56376 0.01133 0.36965 0.0
H414 H 0.58822 0.93364 0.41931 0.0
H415 H 0.50897 0.90154 0.64693 0.0
H416 H 0.53228 0.01905 0.4484 0.0
H417 H 0.45813 0.01742 0.90811 0.0
H418 H 0.58454 0.97373 0.37148 0.0
H419 H 0.52303 0.08859 0.6241 0.0
H420 H 0.48926 0.01059 0.82769 0.0
H421 H 0.50554 0.12775 0.62155 0.0
H422 H 0.57328 0.90365 0.49489 0.0
H423 H 0.43553 0.05394 0.9053 0.0
H424 H 0.42948 0.09337 0.8552 0.0
H425 H 0.54346 0.8914 0.57924 0.0
H426 H 0.44236 0.12348 0.77698 0.0
N427 N 0.48467 0.04275 0.777 0.0
C428 C 0.47994 0.02672 0.82517 0.0
C429 C 0.44938 0.0511 0.86962 0.0
C430 C 0.45506 0.06802 0.82283 0.0
C431 C 0.46212 0.0305 0.8714 0.0
C432 C 0.47317 0.06335 0.77726 0.0
H433 H 0.47098 0.13661 0.69041 0.0
N434 N 0.49838 0.07516 0.69291 0.0
C435 C 0.49818 0.1145 0.6531 0.0
C436 C 0.48027 0.08016 0.73349 0.0
C437 C 0.50809 0.0923 0.65492 0.0
C438 C 0.47864 0.11941 0.69185 0.0
C439 C 0.46966 0.10226 0.73358 0.0
O440 O 0.53947 0.06157 0.72523 0.0
O441 O 0.52956 0.01521 0.62533 0.0
O442 O 0.52726 0.97817 0.65654 0.0
O443 O 0.51641 1.00316 0.74384 0.0
O444 O 0.54135 0.04847 0.62968 0.0
O445 O 0.53086 0.03265 0.78839 0.0
O446 O 0.47717 0.97154 0.54671 0.0
O447 O 0.48979 0.01447 0.6483 0.0
O448 O 0.49122 0.0509 0.61583 0.0
O449 O 0.50398 0.02682 0.5294 0.0
O450 O 0.47803 0.9812 0.64323 0.0
O451 O 0.49012 0.99823 0.48202 0.0
C452 C 0.54465 0.02861 0.60159 0.0
C453 C 0.57053 0.04294 0.7766 0.0
C454 C 0.60161 0.01459 0.75985 0.0
C455 C 0.57786 0.02003 0.76332 0.0
C456 C 0.61796 0.03263 0.76807 0.0
C457 C 0.5871 0.06058 0.78497 0.0
C458 C 0.6107 0.05543 0.78035 0.0
C459 C 0.52505 0.98306 0.72121 0.0
C460 C 0.54578 0.04914 0.776 0.0
C461 C 0.45093 0.1067 0.77662 0.0
C462 C 0.44361 0.08958 0.82118 0.0
C463 C 0.47492 1.0009 0.6725 0.0
C464 C 0.44945 0.99646 0.49886 0.0
C465 C 0.44644 0.01894 0.47308 0.0
C466 C 0.42615 0.03169 0.48646 0.0
C467 C 0.40839 0.02134 0.5239 0.0
C468 C 0.43121 0.9863 0.53487 0.0
C469 C 0.41086 0.99871 0.54725 0.0
C470 C 0.49416 0.04637 0.55127 0.0
C471 C 0.47246 0.98503 0.49657 0.0
H472 H 0.56516 1.00645 0.75549 0.0
H473 H 0.63641 0.02906 0.76721 0.0
H474 H 0.58176 0.0784 0.79417 0.0
H475 H 0.62342 0.06913 0.78694 0.0
H476 H 0.4602 0.02687 0.4446 0.0
H477 H 0.39237 0.03056 0.534 0.0
H478 H 0.43298 0.96903 0.55539 0.0
H479 H 0.39705 0.99086 0.57581 0.0
Tb480 Tb 0.53763 0.5079 0.591 0.0
C481 C 0.43723 0.48413 0.66412 0.0
C482 C 0.41213 0.5007 0.5801 0.0
C483 C 0.40042 0.46553 0.63713 0.0
C484 C 0.43309 0.50086 0.61692 0.0
C485 C 0.42077 0.46652 0.67596 0.0
C486 C 0.39609 0.48263 0.58929 0.0
C487 C 0.4447 0.45361 0.76775 0.0
N488 N 0.45698 0.48582 0.70076 0.0
C489 C 0.46039 0.47151 0.75435 0.0
C490 C 0.42496 0.45088 0.72773 0.0
Tb491 Tb 0.48224 0.51515 0.67348 0.0
N492 N 0.44916 0.51787 0.60915 0.0
C493 C 0.44426 0.53638 0.56903 0.0
C494 C 0.40773 0.51894 0.53626 0.0
C495 C 0.42373 0.53703 0.53147 0.0
H496 H 0.47573 0.47335 0.78523 0.0
H497 H 0.42031 0.55149 0.4987 0.0
H498 H 0.38006 0.48203 0.56079 0.0
H499 H 0.44789 0.44191 0.80879 0.0
H500 H 0.4561 0.5507 0.56462 0.0
H501 H 0.59927 0.47287 0.76871 0.0
H502 H 0.39189 0.51945 0.50692 0.0
H503 H 0.54421 0.54896 0.47718 0.0
H504 H 0.56352 0.47319 0.70227 0.0
H505 H 0.57204 0.58027 0.4522 0.0
H506 H 0.38766 0.45199 0.64492 0.0
H507 H 0.62757 0.50498 0.75952 0.0
H508 H 0.6394 0.54212 0.70393 0.0
H509 H 0.41278 0.43706 0.73832 0.0
H510 H 0.63194 0.57151 0.61783 0.0
N511 N 0.5706 0.50568 0.6559 0.0
C512 C 0.57544 0.48744 0.69709 0.0
C513 C 0.61181 0.50524 0.72978 0.0
C514 C 0.60745 0.52319 0.68493 0.0
C515 C 0.59589 0.48709 0.73507 0.0
C516 C 0.58661 0.5227 0.64761 0.0
H517 H 0.60701 0.5857 0.52295 0.0
N518 N 0.56284 0.53711 0.56257 0.0
C519 C 0.57518 0.56887 0.49396 0.0
C520 C 0.58252 0.53909 0.59942 0.0
C521 C 0.55949 0.55104 0.50816 0.0
C522 C 0.59484 0.57192 0.53413 0.0
C523 C 0.59895 0.55667 0.5869 0.0
O524 O 0.55032 0.50102 0.49475 0.0
O525 O 0.50027 0.50542 0.58373 0.0
O526 O 0.48716 0.47832 0.64761 0.0
O527 O 0.52746 0.47638 0.64754 0.0
O528 O 0.51695 0.51568 0.50018 0.0
O529 O 0.55085 0.47449 0.57028 0.0
O530 O 0.46858 0.52134 0.76893 0.0
O531 O 0.5196 0.5176 0.68099 0.0
O532 O 0.53266 0.54483 0.61556 0.0
O533 O 0.49233 0.54655 0.61621 0.0
O534 O 0.50284 0.50691 0.76393 0.0
O535 O 0.47036 0.5489 0.69675 0.0
C536 C 0.49689 0.51097 0.52384 0.0
C537 C 0.54344 0.46311 0.45846 0.0
C538 C 0.50965 0.44256 0.41477 0.0
C539 C 0.52044 0.45549 0.46597 0.0
C540 C 0.52216 0.437 0.35651 0.0
C541 C 0.55576 0.45731 0.40036 0.0
C542 C 0.54515 0.44421 0.34967 0.0
C543 C 0.50674 0.46653 0.65484 0.0
C544 C 0.5539 0.47916 0.50722 0.0
C545 C 0.6192 0.558 0.62613 0.0
C546 C 0.62346 0.54126 0.67509 0.0
C547 C 0.52292 0.51181 0.74073 0.0
C548 C 0.47684 0.55824 0.81074 0.0
C549 C 0.50009 0.56536 0.80588 0.0
C550 C 0.51093 0.57684 0.85993 0.0
C551 C 0.49808 0.58145 0.91834 0.0
C552 C 0.46429 0.56305 0.86914 0.0
C553 C 0.47488 0.57469 0.92263 0.0
C554 C 0.51299 0.55645 0.60808 0.0
C555 C 0.46626 0.54351 0.75882 0.0
H556 H 0.51075 0.46015 0.51046 0.0
H557 H 0.51423 0.42682 0.31662 0.0
H558 H 0.57342 0.46332 0.39368 0.0
H559 H 0.55468 0.43983 0.30472 0.0
H560 H 0.50987 0.56149 0.76094 0.0
H561 H 0.50587 0.59066 0.96033 0.0
H562 H 0.44644 0.55738 0.8738 0.0
H563 H 0.46514 0.57835 0.96773 0.0
Tb564 Tb 0.01546 0.54046 0.5828 0.0
C565 C 0.03463 0.4406 0.67415 0.0
C566 C 0.01828 0.41471 0.59047 0.0
C567 C 0.05184 0.40249 0.65507 0.0
C568 C 0.0185 0.43632 0.62475 0.0
C569 C 0.05119 0.42357 0.6912 0.0
C570 C 0.03539 0.39806 0.6047 0.0
C571 C 0.06369 0.44857 0.78223 0.0
N572 N 0.03331 0.46109 0.70791 0.0
C573 C 0.04694 0.46486 0.76344 0.0
C574 C 0.06609 0.42797 0.74529 0.0
Tb575 Tb 1.00579 0.48724 0.67246 0.0
N576 N 1.00235 0.45293 0.61241 0.0
C577 C 0.98428 0.44804 0.56986 0.0
C578 C 1.00055 0.41027 0.54419 0.0
C579 C 0.98328 0.42689 0.53465 0.0
H580 H 0.04544 0.48085 0.79195 0.0
H581 H 0.96921 0.42349 0.49987 0.0
H582 H 0.03569 0.38151 0.57825 0.0
H583 H 0.07483 0.45197 0.82495 0.0
H584 H 0.97069 0.46039 0.56121 0.0
H585 H 0.05184 0.60471 0.75382 0.0
H586 H 0.99979 0.39395 0.51665 0.0
H587 H 0.97574 0.54662 0.46322 0.0
H588 H 0.05085 0.56792 0.69141 0.0
H589 H 0.94581 0.57514 0.43127 0.0
H590 H 0.06458 0.38928 0.66685 0.0
H591 H 0.02032 0.63344 0.73995 0.0
H592 H 0.9838 0.64524 0.68022 0.0
H593 H 0.07906 0.41535 0.75996 0.0
H594 H 0.95484 0.63721 0.59202 0.0
N595 N 0.01844 0.57462 0.64341 0.0
C596 C 0.03681 0.57991 0.68446 0.0
C597 C 0.01973 0.61715 0.71219 0.0
C598 C 1.0018 0.61241 0.66681 0.0
C599 C 0.03754 0.60099 0.72008 0.0
C600 C 1.00185 0.59089 0.63214 0.0
H601 H 0.94084 0.61131 0.49789 0.0
N602 N 0.98739 0.56617 0.5482 0.0
C603 C 0.95684 0.57852 0.47421 0.0
C604 C 0.9857 0.58647 0.5828 0.0
C605 C 0.97389 0.56244 0.49238 0.0
C606 C 0.95403 0.59886 0.51208 0.0
C607 C 0.96883 0.60327 0.56641 0.0
O608 O 0.02273 0.55277 0.48704 0.0
O609 O 0.017 0.50283 0.58086 0.0
O610 O 0.04313 0.49059 0.65279 0.0
O611 O 0.04629 0.53078 0.6443 0.0
O612 O 0.00728 0.51825 0.49463 0.0
O613 O 0.04981 0.55039 0.56138 0.0
O614 O 0.99817 0.47641 0.76962 0.0
O615 O 1.00442 0.5249 0.67449 0.0
O616 O 0.97814 0.53704 0.60296 0.0
O617 O 0.97508 0.49688 0.61071 0.0
O618 O 0.01462 0.50936 0.76018 0.0
O619 O 0.97138 0.47757 0.69407 0.0
C620 C 0.01152 0.49849 0.52097 0.0
C621 C 0.0591 0.54207 0.44836 0.0
C622 C 0.07744 0.50692 0.40485 0.0
C623 C 0.0665 0.519 0.45736 0.0
C624 C 0.08109 0.51824 0.34372 0.0
C625 C 0.06302 0.5531 0.38732 0.0
C626 C 0.07401 0.54121 0.33526 0.0
C627 C 0.05541 0.51004 0.65761 0.0
C628 C 0.04488 0.554 0.49862 0.0
C629 C 0.96783 0.62419 0.60327 0.0
C630 C 0.98431 0.62876 0.65345 0.0
C631 C 0.01028 0.52915 0.73418 0.0
C632 C 0.96196 0.48927 0.80481 0.0
C633 C 0.95189 0.51054 0.78608 0.0
C634 C 0.94097 0.52474 0.83407 0.0
C635 C 0.94022 0.51744 0.90097 0.0
C636 C 0.96082 0.48221 0.87159 0.0
C637 C 0.95001 0.49627 0.91941 0.0
C638 C 0.96585 0.51761 0.59817 0.0
C639 C 0.97601 0.47556 0.75768 0.0
H640 H 0.06333 0.51034 0.50431 0.0
H641 H 0.0899 0.50947 0.30283 0.0
H642 H 0.05712 0.57076 0.37949 0.0
H643 H 0.07697 0.54977 0.28812 0.0
H644 H 0.95291 0.5163 0.73484 0.0
H645 H 0.93154 0.52785 0.93882 0.0
H646 H 0.96875 0.46603 0.88697 0.0
H647 H 0.94925 0.49076 0.97095 0.0
H648 H 0.13759 0.05995 0.21988 0.0
H649 H 0.08558 0.04647 0.58568 0.0
H650 H 0.17879 0.0359 0.38644 0.0
H651 H 0.04466 0.02847 0.41169 0.0
H652 H 0.11937 0.0518 0.5135 0.0
H653 H 0.10274 0.05636 0.28924 0.0
C654 C 0.13949 0.05379 0.27053 0.0
C655 C 0.1616 0.04844 0.29675 0.0
C656 C 0.10298 0.0466 0.49125 0.0
C657 C 0.12152 0.04512 0.37726 0.0
C658 C 0.0837 0.04331 0.53255 0.0
C659 C 0.06237 0.03586 0.50556 0.0
C660 C 0.10087 0.04318 0.42181 0.0
C661 C 0.0608 0.03356 0.43539 0.0
C662 C 0.1195 0.05194 0.31025 0.0
C663 C 0.16253 0.04094 0.3637 0.0
N664 N 0.07974 0.03716 0.39605 0.0
N665 N 0.14295 0.03974 0.40146 0.0
H666 H 0.45037 0.17565 0.3714 0.0
H667 H 0.50642 0.04935 0.41865 0.0
H668 H 0.48759 0.13948 0.21512 0.0
H669 H 0.46605 0.08458 0.57011 0.0
H670 H 0.49773 0.08077 0.34119 0.0
H671 H 0.45407 0.14148 0.44212 0.0
C672 C 0.4594 0.16052 0.35194 0.0
C673 C 0.46899 0.16064 0.28738 0.0
C674 C 0.49077 0.08166 0.39138 0.0
C675 C 0.47332 0.12119 0.36866 0.0
C676 C 0.49574 0.06366 0.43584 0.0
C677 C 0.48751 0.06451 0.50192 0.0
C678 C 0.47744 0.10077 0.41287 0.0
C679 C 0.47341 0.08344 0.52049 0.0
C680 C 0.46141 0.14093 0.39235 0.0
C681 C 0.47997 0.14024 0.26449 0.0
N682 N 0.46901 0.10085 0.47654 0.0
N683 N 0.48204 0.12146 0.30526 0.0
H684 H 0.38735 0.51978 0.22423 0.0
H685 H 0.46648 0.4741 0.52824 0.0
H686 H 0.37343 0.45664 0.33167 0.0
H687 H 0.48128 0.53645 0.41909 0.0
H688 H 0.43267 0.46709 0.45585 0.0
H689 H 0.42175 0.52611 0.29441 0.0
C690 C 0.39141 0.50724 0.26253 0.0
C691 C 0.37727 0.48757 0.27139 0.0
C692 C 0.44325 0.48235 0.44764 0.0
C693 C 0.41707 0.49468 0.35214 0.0
C694 C 0.46245 0.48645 0.48947 0.0
C695 C 0.47617 0.50637 0.48126 0.0
C696 C 0.43787 0.49809 0.39642 0.0
C697 C 0.47078 0.52119 0.42809 0.0
C698 C 0.41121 0.51081 0.30246 0.0
C699 C 0.38383 0.47186 0.32172 0.0
N700 N 0.45198 0.5169 0.3882 0.0
N701 N 0.40311 0.47577 0.35999 0.0
H702 H 0.05626 0.36335 0.36763 0.0
H703 H 0.98677 0.48329 0.41328 0.0
H704 H 0.00704 0.38831 0.22211 0.0
H705 H 0.04639 0.46567 0.53285 0.0
H706 H 0.99318 0.44824 0.34462 0.0
H707 H 0.05189 0.39974 0.43103 0.0
C708 C 0.04444 0.37642 0.34893 0.0
C709 C 0.03186 0.37247 0.28927 0.0
C710 C 1.00486 0.45193 0.38594 0.0
C711 C 0.0269 0.41463 0.36219 0.0
C712 C 1.00115 0.47191 0.42532 0.0
C713 C 0.01548 0.47691 0.4806 0.0
C714 C 0.02325 0.43681 0.40125 0.0
C715 C 0.03432 0.46198 0.49252 0.0
C716 C 0.04211 0.39733 0.3851 0.0
C717 C 0.01719 0.39045 0.26741 0.0
N718 N 0.0375 0.44251 0.45375 0.0
N719 N 0.015 0.41056 0.30399 0.0
H720 H 0.84072 0.00947 0.92175 0.0
H721 H 0.97288 0.97998 0.82477 0.0
H722 H 0.88312 0.96232 0.03573 0.0
H723 H 0.92528 0.01634 0.69678 0.0
H724 H 0.94147 0.97503 0.90618 0.0
H725 H 0.87277 0.0144 0.84339 0.0
C726 C 0.85685 1.00035 0.93092 0.0
C727 C 0.85907 0.98545 0.98584 0.0
C728 C 0.93786 0.98392 0.85984 0.0
C729 C 0.89605 0.99084 0.89506 0.0
C730 C 0.95581 0.98675 0.8132 0.0
C731 C 0.95173 0.99823 0.75246 0.0
C732 C 0.91566 0.99297 0.84642 0.0
C733 C 0.92923 1.00676 0.74107 0.0
C734 C 0.87513 1.00301 0.88562 0.0
C735 C 0.88042 0.97382 0.99394 0.0
N736 N 0.91219 1.00407 0.78738 0.0
N737 N 0.89801 0.97677 0.94927 0.0
H738 H 0.53201 0.8907 0.06486 0.0
H739 H 0.55075 0.9436 0.69853 0.0
H740 H 0.55793 0.85161 0.89559 0.0
H741 H 0.51484 0.98057 0.85594 0.0
H742 H 0.55754 0.91149 0.77483 0.0
H743 H 0.52938 0.92531 0.99398 0.0
C744 C 0.53726 0.8894 0.01301 0.0
C745 C 0.54491 0.86806 0.98609 0.0
C746 C 0.54814 0.9266 0.79282 0.0
C747 C 0.54206 0.90765 0.90467 0.0
C748 C 0.54415 0.94498 0.74904 0.0
C749 C 0.53154 0.96466 0.7699 0.0
C750 C 0.53965 0.92783 0.8586 0.0
C751 C 0.52428 0.96568 0.83699 0.0
C752 C 0.53568 0.90915 0.97249 0.0
C753 C 0.55147 0.86749 0.91838 0.0
N754 N 0.52826 0.94748 0.8787 0.0
N755 N 0.54986 0.88687 0.88025 0.0
H756 H 0.64874 0.56745 0.92366 0.0
H757 H 0.53761 0.48694 0.84743 0.0
H758 H 0.6306 0.50788 0.04206 0.0
H759 H 0.55364 0.54854 0.73634 0.0
H760 H 0.57107 0.49477 0.9206 0.0
H761 H 0.61388 0.56122 0.8561 0.0
C762 C 0.63738 0.55317 0.93617 0.0
C763 C 0.64283 0.53826 0.98949 0.0
C764 C 0.56738 0.50657 0.88013 0.0
C765 C 0.60267 0.53077 0.91053 0.0
C766 C 0.54829 0.50207 0.8383 0.0
C767 C 0.54339 0.51661 0.78417 0.0
C768 C 0.58154 0.52602 0.86856 0.0
C769 C 0.55734 0.53637 0.77582 0.0
C770 C 0.61746 0.54954 0.89698 0.0
C771 C 0.62747 0.51973 1.00139 0.0
N772 N 0.57587 0.54039 0.8171 0.0
N773 N 0.60821 0.51654 0.96238 0.0
H774 H 0.95585 0.65425 0.92922 0.0
H775 H 0.03712 0.54495 0.83664 0.0
H776 H 0.02238 0.64187 0.02202 0.0
H777 H 0.97456 0.56122 0.72841 0.0
H778 H 0.03106 0.57938 0.90799 0.0
H779 H 0.96149 0.61968 0.85874 0.0
C780 C 0.9716 0.64422 0.93539 0.0
C781 C 0.98858 0.65114 0.98257 0.0
C782 C 0.01869 0.57559 0.86844 0.0
C783 C 0.99526 0.61127 0.90048 0.0
C784 C 0.02217 0.55593 0.82764 0.0
C785 C 0.00678 0.55067 0.77501 0.0
C786 C 0.99932 0.58997 0.85782 0.0
C787 C 0.98731 0.5651 0.76685 0.0
C788 C 0.97486 0.62449 0.89451 0.0
C789 C 0.00882 0.6375 0.98644 0.0
N790 N 0.98419 0.5841 0.80754 0.0
N791 N 0.01152 0.61829 0.94634 0.0
H792 H 0.13178 0.19843 0.4084 0.0
H793 H 0.05107 0.09138 0.38494 0.0
H794 H 0.1144 0.161 0.22673 0.0
H795 H 0.06882 0.12703 0.56952 0.0
H796 H 0.08598 0.10673 0.33447 0.0
H797 H 0.1217 0.16402 0.47255 0.0
C798 C 0.1266 0.18275 0.38179 0.0
C799 C 0.12293 0.18299 0.3123 0.0
C800 C 0.0825 0.1109 0.38643 0.0
C801 C 0.11107 0.14369 0.3853 0.0
C802 C 0.0625 0.10199 0.41566 0.0
C803 C 0.05625 0.10883 0.48086 0.0
C804 C 0.09601 0.12726 0.42192 0.0
C805 C 0.07218 0.12235 0.51787 0.0
C806 C 0.12081 0.16307 0.41847 0.0
C807 C 0.11698 0.16192 0.28033 0.0
N808 N 0.09095 0.13171 0.4873 0.0
N809 N 0.11053 0.14336 0.31722 0.0
H810 H 0.3762 0.11954 0.20176 0.0
H811 H 0.40834 0.07021 0.55003 0.0
H812 H 0.34409 0.14108 0.38707 0.0
H813 H 0.43722 0.04739 0.36169 0.0
H814 H 0.39574 0.10626 0.49738 0.0
H815 H 0.40955 0.10575 0.26423 0.0
C816 C 0.37643 0.12225 0.25543 0.0
C817 C 0.3567 0.13049 0.28942 0.0
C818 C 0.40527 0.0936 0.46786 0.0
C819 C 0.39457 0.11365 0.36144 0.0
C820 C 0.41226 0.07293 0.49775 0.0
C821 C 0.42297 0.0554 0.45943 0.0
C822 C 0.40868 0.09656 0.39894 0.0
C823 C 0.42854 0.06021 0.39277 0.0
C824 C 0.3955 0.11405 0.29129 0.0
C825 C 0.35843 0.13378 0.35899 0.0
N826 N 0.42083 0.08009 0.36422 0.0
N827 N 0.37665 0.12459 0.393 0.0
H828 H 0.39056 0.38097 0.26988 0.0
H829 H 0.49125 0.41705 0.51603 0.0
H830 H 0.42415 0.33506 0.40889 0.0
H831 H 0.47348 0.44932 0.32926 0.0
H832 H 0.45401 0.39622 0.51314 0.0
H833 H 0.40635 0.41432 0.33181 0.0
C834 C 0.40034 0.37795 0.31536 0.0
C835 C 0.40686 0.35529 0.33291 0.0
C836 C 0.45797 0.40842 0.47393 0.0
C837 C 0.42536 0.39314 0.40259 0.0
C838 C 0.47916 0.42025 0.47554 0.0
C839 C 0.48554 0.4343 0.42179 0.0
C840 C 0.44321 0.41085 0.41833 0.0
C841 C 0.46938 0.43804 0.37057 0.0
C842 C 0.40949 0.39697 0.35039 0.0
C843 C 0.41919 0.35228 0.39282 0.0
N844 N 0.44908 0.4261 0.36957 0.0
N845 N 0.42877 0.37103 0.42437 0.0
H846 H 0.15928 0.40996 0.24392 0.0
H847 H 0.10424 0.49069 0.50756 0.0
H848 H 0.1911 0.42546 0.43545 0.0
H849 H 0.07163 0.46908 0.3227 0.0
H850 H 0.12917 0.45631 0.50205 0.0
H851 H 0.12179 0.41872 0.29103 0.0
C852 C 0.15855 0.41451 0.29651 0.0
C853 C 0.17885 0.41811 0.33457 0.0
C854 C 0.11612 0.45868 0.46362 0.0
C855 C 0.13548 0.42944 0.38807 0.0
C856 C 0.10183 0.47829 0.46691 0.0
C857 C 0.08665 0.48315 0.41388 0.0
C858 C 0.11526 0.44413 0.40657 0.0
C859 C 0.08386 0.46637 0.36311 0.0
C860 C 0.13688 0.41978 0.3234 0.0
C861 C 0.17617 0.42379 0.40277 0.0
N862 N 0.09846 0.4479 0.35978 0.0
N863 N 0.155 0.43012 0.42672 0.0
H864 H 0.93785 0.7943 0.79956 0.0
H865 H 0.96722 0.92152 0.68151 0.0
H866 H 0.90865 0.85681 0.88554 0.0
H867 H 0.01184 0.86128 0.66668 0.0
H868 H 0.93514 0.89604 0.71285 0.0
H869 H 0.9523 0.81695 0.70598 0.0
C870 C 0.93349 0.8126 0.79717 0.0
C871 C 0.92262 0.82388 0.85117 0.0
C872 C 0.95185 0.88845 0.70086 0.0
C873 C 0.93953 0.84985 0.74534 0.0
C874 C 0.97027 0.90297 0.68384 0.0
C875 C 0.99263 0.8937 0.67425 0.0
C876 C 0.95574 0.86451 0.70732 0.0
C877 C 0.99513 0.8694 0.67448 0.0
C878 C 0.94196 0.82556 0.74402 0.0
C879 C 0.91747 0.84763 0.84548 0.0
N880 N 0.97703 0.85571 0.69207 0.0
N881 N 0.92653 0.86001 0.79436 0.0
H882 H 0.70493 0.92492 0.8339 0.0
H883 H 0.58238 0.97613 0.81792 0.0
H884 H 0.64708 0.90085 0.95034 0.0
H885 H 0.63879 0.99669 0.69007 0.0
H886 H 0.60115 0.93881 0.83419 0.0
H887 H 0.67791 0.93935 0.75022 0.0
C888 C 0.68656 0.92169 0.8405 0.0
C889 C 0.67816 0.91257 0.90051 0.0
C890 C 0.60924 0.95122 0.80126 0.0
C891 C 0.64711 0.92994 0.80635 0.0
C892 C 0.5984 0.97262 0.79159 0.0
C893 C 0.60951 0.99002 0.75477 0.0
C894 C 0.63159 0.94745 0.77541 0.0
C895 C 0.63017 0.98421 0.72156 0.0
C896 C 0.67105 0.93021 0.79288 0.0
C897 C 0.6542 0.90862 0.90581 0.0
N898 N 0.64089 0.96367 0.73422 0.0
N899 N 0.63943 0.91807 0.86055 0.0
H900 H 0.60957 0.68262 0.83182 0.0
H901 H 0.53154 0.59979 0.75658 0.0
H902 H 0.61215 0.65077 0.02608 0.0
H903 H 0.54573 0.57222 0.95203 0.0
H904 H 0.56781 0.62124 0.76165 0.0
H905 H 0.59513 0.64628 0.78439 0.0
C906 C 0.60756 0.66783 0.86432 0.0
C907 C 0.61098 0.67022 0.93369 0.0
C908 C 0.56348 0.61026 0.80323 0.0
C909 C 0.59377 0.62851 0.8802 0.0
C910 C 0.54263 0.59788 0.80004 0.0
C911 C 0.5352 0.58508 0.85525 0.0
C912 C 0.57678 0.60996 0.86254 0.0
C913 C 0.55039 0.58276 0.90963 0.0
C914 C 0.59909 0.64696 0.83721 0.0
C915 C 0.60921 0.65013 0.97262 0.0
N916 N 0.5702 0.59548 0.91248 0.0
N917 N 0.60013 0.63038 0.94568 0.0
H918 H 0.85464 0.62554 0.95613 0.0
H919 H 0.91042 0.53073 0.73055 0.0
H920 H 0.81771 0.58109 0.81768 0.0
H921 H 0.94354 0.56772 0.89358 0.0
H922 H 0.88162 0.56187 0.72289 0.0
H923 H 0.89028 0.61883 0.89303 0.0
C924 C 0.85384 0.61537 0.91022 0.0
C925 C 0.83347 0.60346 0.89253 0.0
C926 C 0.89561 0.56355 0.75898 0.0
C927 C 0.8742 0.59463 0.82254 0.0
C928 C 0.91208 0.54579 0.76327 0.0
C929 C 0.92869 0.54627 0.81475 0.0
C930 C 0.8958 0.58168 0.80682 0.0
C931 C 0.93036 0.56632 0.85498 0.0
C932 C 0.87423 0.61128 0.87459 0.0
C933 C 0.83324 0.59035 0.83309 0.0
N934 N 0.91375 0.58298 0.85127 0.0
N935 N 0.85353 0.5856 0.80133 0.0
H936 H 0.98527 0.17587 0.9072 0.0
H937 H 0.03799 0.0727 0.67809 0.0
H938 H 0.0586 0.1697 0.86698 0.0
H939 H 0.9681 0.07375 0.75352 0.0
H940 H 0.04612 0.10889 0.7416 0.0
H941 H 0.97875 0.1395 0.84585 0.0
C942 C 1.00009 0.16695 0.88586 0.0
C943 C 0.02258 0.17624 0.89301 0.0
C944 C 0.02907 0.10107 0.74476 0.0
C945 C 0.01504 0.13415 0.82086 0.0
C946 C 0.02451 0.08029 0.709 0.0
C947 C 1.00253 0.06978 0.71221 0.0
C948 C 0.01137 0.11168 0.78295 0.0
C949 C 0.98542 0.08099 0.75068 0.0
C950 C 0.99629 0.14609 0.85034 0.0
C951 C 0.04087 0.16371 0.86237 0.0
N952 N 0.99017 0.10116 0.78439 0.0
N953 N 0.03671 0.14346 0.82787 0.0
H954 H 0.35244 0.06655 0.84634 0.0
H955 H 0.45137 0.9735 0.75762 0.0
H956 H 0.34825 0.99406 0.89905 0.0
H957 H 0.44756 0.04037 0.66346 0.0
H958 H 0.41453 0.98156 0.81396 0.0
H959 H 0.38783 0.05823 0.78344 0.0
C960 C 0.35865 0.0488 0.84414 0.0
C961 C 0.34697 0.031 0.87841 0.0
C962 C 0.42172 0.99457 0.78128 0.0
C963 C 0.38818 0.02148 0.80683 0.0
C964 C 0.44282 0.99 0.74932 0.0
C965 C 0.453 1.00665 0.70793 0.0
C966 C 0.41042 0.01592 0.7714 0.0
C967 C 0.44081 0.02745 0.69718 0.0
C968 C 0.37906 0.04412 0.80837 0.0
C969 C 0.35658 0.0085 0.87455 0.0
N970 N 0.42028 0.0316 0.72921 0.0
N971 N 0.37654 1.00445 0.83984 0.0
H972 H 0.51347 0.34674 0.9091 0.0
H973 H 0.47175 0.43529 0.63063 0.0
H974 H 0.4613 0.3287 0.7616 0.0
H975 H 0.53748 0.44217 0.73261 0.0
H976 H 0.467 0.39666 0.67926 0.0
H977 H 0.52232 0.38172 0.84635 0.0
C978 C 0.50408 0.34976 0.86305 0.0
C979 C 0.48643 0.33444 0.84138 0.0
C980 C 0.48262 0.40647 0.69037 0.0
C981 C 0.49617 0.37535 0.76987 0.0
C982 C 0.48534 0.42855 0.66261 0.0
C983 C 0.50509 0.44202 0.6774 0.0
C984 C 0.49958 0.39785 0.73437 0.0
C985 C 0.5221 0.43237 0.71927 0.0
C986 C 0.50907 0.36999 0.82742 0.0
C987 C 0.47467 0.34002 0.78168 0.0
N988 N 0.51882 0.41105 0.74691 0.0
N989 N 0.47956 0.36005 0.74864 0.0
H990 H 0.18264 0.53447 0.88501 0.0
H991 H 0.08461 0.4722 0.65802 0.0
H992 H 0.18163 0.4608 0.84105 0.0
H993 H 0.08162 0.54418 0.71998 0.0
H994 H 0.12206 0.46854 0.71535 0.0
H995 H 0.14766 0.53906 0.81669 0.0
C996 C 0.17517 0.51921 0.86111 0.0
C997 C 0.18534 0.49715 0.86959 0.0
C998 C 0.11331 0.4852 0.71609 0.0
C999 C 0.14501 0.50244 0.78994 0.0
C1000 C 0.09185 0.48732 0.68332 0.0
C1001 C 0.07961 0.50848 0.68471 0.0
C1002 C 0.12289 0.50445 0.75041 0.0
C1003 C 0.09023 0.52752 0.71735 0.0
C1004 C 0.15517 0.52191 0.82167 0.0
C1005 C 0.17483 0.47822 0.83577 0.0
N1006 N 0.11107 0.52502 0.74916 0.0
N1007 N 0.15531 0.48129 0.79795 0.0
H1008 H 0.9571 0.85674 0.3909 0.0
H1009 H 0.04873 0.95485 0.5 0.0
H1010 H 0.03132 0.84863 0.37208 0.0
H1011 H 0.97876 0.95484 0.57496 0.0
H1012 H 0.04145 0.91736 0.44497 0.0
H1013 H 0.9635 0.89336 0.45184 0.0
C1014 C 0.97477 0.86234 0.39998 0.0
C1015 C 0.99367 0.84916 0.37546 0.0
C1016 C 0.02757 0.92553 0.47302 0.0
C1017 C 1.00101 0.8919 0.44446 0.0
C1018 C 0.0317 0.94702 0.50429 0.0
C1019 C 0.01417 0.95833 0.54079 0.0
C1020 C 1.00568 0.91494 0.4781 0.0
C1021 C 0.99258 0.94708 0.54577 0.0
C1022 C 0.97836 0.88348 0.43458 0.0
C1023 C 0.01607 0.85806 0.38825 0.0
N1024 N 0.98888 0.9261 0.51441 0.0
N1025 N 0.01904 0.87877 0.42122 0.0
H1026 H 0.66393 0.95991 0.42026 0.0
H1027 H 0.57037 0.05605 0.5218 0.0
H1028 H 0.67594 0.03357 0.39797 0.0
H1029 H 0.57049 0.98806 0.60997 0.0
H1030 H 0.60757 0.04715 0.46845 0.0
H1031 H 0.62855 0.96876 0.48266 0.0
C1032 C 0.65947 0.97797 0.42905 0.0
C1033 C 0.67332 0.99598 0.40322 0.0
C1034 C 0.59948 0.03411 0.49925 0.0
C1035 C 0.63208 1.00615 0.47387 0.0
C1036 C 0.57819 0.03914 0.52949 0.0
C1037 C 0.56689 0.02247 0.56833 0.0
C1038 C 0.60977 0.0122 0.50801 0.0
C1039 C 0.57814 1.00108 0.57823 0.0
C1040 C 0.63907 0.98296 0.46452 0.0
C1041 C 0.66589 0.01898 0.4154 0.0
N1042 N 0.59882 0.99644 0.54763 0.0
N1043 N 0.64581 0.02334 0.44922 0.0
H1044 H 0.56244 0.69217 0.48428 0.0
H1045 H 0.4821 0.57929 0.52718 0.0
H1046 H 0.50629 0.67423 0.34959 0.0
H1047 H 0.54766 0.5885 0.62867 0.0
H1048 H 0.4872 0.61717 0.47453 0.0
H1049 H 0.55396 0.65741 0.54897 0.0
C1050 C 0.54829 0.68104 0.46813 0.0
C1051 C 0.53528 0.68628 0.41042 0.0
C1052 C 0.50036 0.61103 0.50885 0.0
C1053 C 0.5252 0.64633 0.48579 0.0
C1054 C 0.49733 0.58946 0.53956 0.0
C1055 C 0.51443 0.58065 0.58265 0.0
C1056 C 0.52057 0.6241 0.52161 0.0
C1057 C 0.53405 0.59455 0.59564 0.0
C1058 C 0.5434 0.66118 0.50549 0.0
C1059 C 0.51675 0.67127 0.39373 0.0
N1060 N 0.53661 0.61548 0.56518 0.0
N1061 N 0.51238 0.65203 0.43088 0.0
H1062 H 0.83361 0.49148 0.39707 0.0
H1063 H 0.93692 0.55571 0.5981 0.0
H1064 H 0.83924 0.56612 0.41705 0.0
H1065 H 0.93836 0.48307 0.54255 0.0
H1066 H 0.89866 0.55911 0.54518 0.0
H1067 H 0.86943 0.48749 0.462 0.0
C1068 C 0.84224 0.50708 0.41496 0.0
C1069 C 0.83312 0.52922 0.40064 0.0
C1070 C 0.90731 0.54239 0.54473 0.0
C1071 C 0.87438 0.52464 0.47667 0.0
C1072 C 0.92924 0.54043 0.57486 0.0
C1073 C 0.94131 0.51916 0.57364 0.0
C1074 C 0.89704 0.52286 0.51359 0.0
C1075 C 0.93 0.49986 0.54446 0.0
C1076 C 0.86273 0.50474 0.45249 0.0
C1077 C 0.84514 0.54865 0.42706 0.0
N1078 N 0.90867 0.5022 0.51533 0.0
N1079 N 0.86506 0.5459 0.46334 0.0
loop_
_geom_bond_atom_site_label_1
_geom_bond_atom_site_label_2
_geom_bond_distance
_geom_bond_site_symmetry_2
_ccdc_geom_bond_type
C0 C1 1.386 . S
C0 C2 1.397 . S
C0 H24 0.931 1_554 S
C1 C0 1.386 . S
C1 C5 1.397 . S
C2 C0 1.397 . S
C2 C3 1.384 . S
C2 H25 0.930 . S
C3 C2 1.384 . S
C3 C4 1.377 . S
C3 C6 1.481 . S
C4 C3 1.377 . S
C4 C5 1.389 . S
C4 H26 0.929 . S
C5 C1 1.397 . S
C5 C4 1.389 . S
C5 H27 0.931 . S
C6 C3 1.481 . S
C6 C7 1.387 . S
C6 C11 1.390 . S
C7 C6 1.387 . S
C7 C8 1.401 . S
C7 H28 0.930 . S
C8 C7 1.401 . S
C8 C9 1.376 . S
C8 C17 1.511 . S
C9 C8 1.376 . S
C9 C10 1.392 . S
C9 H30 0.931 . S
C10 C9 1.392 . S
C10 C11 1.361 . S
C10 C12 1.500 . S
C11 C6 1.390 . S
C11 C10 1.361 . S
C11 H29 0.931 . S
C12 C10 1.500 . S
C12 C13 1.371 . S
C12 C14 1.365 . S
C13 C12 1.371 . S
C13 C23 1.386 . S
C13 H31 0.931 . S
C14 C12 1.365 . S
C14 C15 1.409 . S
C14 H32 0.929 . S
C15 C14 1.409 . S
C15 C16 1.380 . S
C15 H33 0.930 . S
C16 C15 1.380 . S
C16 C23 1.357 . S
C17 C8 1.511 . S
C17 C18 1.341 . S
C17 C19 1.371 . S
C18 C17 1.341 . S
C18 C22 1.394 . S
C18 H34 0.930 . S
C19 C17 1.371 . S
C19 C20 1.392 . S
C19 H35 0.931 . S
C20 C19 1.392 . S
C20 C21 1.331 . S
C20 H38 0.932 . S
C21 C20 1.331 . S
C21 C22 1.336 . S
C22 C18 1.394 . S
C22 C21 1.336 . S
C22 H37 0.929 . S
C23 C13 1.386 . S
C23 C16 1.357 . S
C23 H36 0.928 . S
H24 C0 0.931 1_556 S
H25 C2 0.930 . S
H26 C4 0.929 . S
H27 C5 0.931 . S
H28 C7 0.930 . S
H29 C11 0.931 . S
H30 C9 0.931 . S
H31 C13 0.931 . S
H32 C14 0.929 . S
H33 C15 0.930 . S
H34 C18 0.930 . S
H35 C19 0.931 . S
H36 C23 0.928 . S
H37 C22 0.929 . S
H38 C20 0.932 . S
C39 C40 1.386 . S
C39 C41 1.397 . S
C39 H63 0.931 1_554 S
C40 C39 1.386 . S
C40 C44 1.397 . S
C41 C39 1.397 . S
C41 C42 1.384 . S
C41 H64 0.930 . S
C42 C41 1.384 . S
C42 C43 1.377 . S
C42 C45 1.481 . S
C43 C42 1.377 . S
C43 C44 1.389 . S
C43 H65 0.929 . S
C44 C40 1.397 . S
C44 C43 1.389 . S
C44 H66 0.931 . S
C45 C42 1.481 . S
C45 C46 1.387 . S
C45 C50 1.390 . S
C46 C45 1.387 . S
C46 C47 1.401 . S
C46 H67 0.930 . S
C47 C46 1.401 . S
C47 C48 1.376 . S
C47 C56 1.511 . S
C48 C47 1.376 . S
C48 C49 1.392 . S
C48 H69 0.931 . S
C49 C48 1.392 . S
C49 C50 1.361 . S
C49 C51 1.500 . S
C50 C45 1.390 . S
C50 C49 1.361 . S
C50 H68 0.931 . S
C51 C49 1.500 . S
C51 C52 1.371 . S
C51 C53 1.365 . S
C52 C51 1.371 . S
C52 C62 1.386 . S
C52 H70 0.931 . S
C53 C51 1.365 . S
C53 C54 1.409 . S
C53 H71 0.929 . S
C54 C53 1.409 . S
C54 C55 1.380 . S
C54 H72 0.930 . S
C55 C54 1.380 . S
C55 C62 1.357 . S
C56 C47 1.511 . S
C56 C57 1.341 . S
C56 C58 1.371 . S
C57 C56 1.341 . S
C57 C61 1.394 . S
C57 H73 0.930 . S
C58 C56 1.371 . S
C58 C59 1.392 . S
C58 H74 0.931 . S
C59 C58 1.392 . S
C59 C60 1.331 . S
C59 H77 0.932 . S
C60 C59 1.331 . S
C60 C61 1.336 . S
C61 C57 1.394 . S
C61 C60 1.336 . S
C61 H76 0.929 . S
C62 C52 1.386 . S
C62 C55 1.357 . S
C62 H75 0.928 . S
H63 C39 0.931 1_556 S
H64 C41 0.930 . S
H65 C43 0.929 . S
H66 C44 0.931 . S
H67 C46 0.930 . S
H68 C50 0.931 . S
H69 C48 0.931 . S
H70 C52 0.931 . S
H71 C53 0.929 . S
H72 C54 0.930 . S
H73 C57 0.930 . S
H74 C58 0.931 . S
H75 C62 0.928 . S
H76 C61 0.929 . S
H77 C59 0.932 . S
C78 C79 1.386 . S
C78 C80 1.397 . S
C78 H102 0.931 1_554 S
C79 C78 1.386 . S
C79 C83 1.397 . S
C80 C78 1.397 . S
C80 C81 1.384 . S
C80 H103 0.930 . S
C81 C80 1.384 . S
C81 C82 1.377 . S
C81 C84 1.481 . S
C82 C81 1.377 . S
C82 C83 1.389 . S
C82 H104 0.929 . S
C83 C79 1.397 . S
C83 C82 1.389 . S
C83 H105 0.931 . S
C84 C81 1.481 . S
C84 C85 1.387 . S
C84 C89 1.390 . S
C85 C84 1.387 . S
C85 C86 1.401 . S
C85 H106 0.930 . S
C86 C85 1.401 . S
C86 C87 1.376 . S
C86 C95 1.511 . S
C87 C86 1.376 . S
C87 C88 1.392 . S
C87 H108 0.931 . S
C88 C87 1.392 . S
C88 C89 1.361 . S
C88 C90 1.500 . S
C89 C84 1.390 . S
C89 C88 1.361 . S
C89 H107 0.931 . S
C90 C88 1.500 . S
C90 C91 1.371 . S
C90 C92 1.365 . S
C91 C90 1.371 . S
C91 C101 1.386 . S
C91 H109 0.931 . S
C92 C90 1.365 . S
C92 C93 1.409 . S
C92 H110 0.929 . S
C93 C92 1.409 . S
C93 C94 1.380 . S
C93 H111 0.930 . S
C94 C93 1.380 . S
C94 C101 1.357 . S
C95 C86 1.511 . S
C95 C96 1.341 . S
C95 C97 1.371 . S
C96 C95 1.341 . S
C96 C100 1.394 . S
C96 H112 0.930 . S
C97 C95 1.371 . S
C97 C98 1.392 . S
C97 H113 0.931 . S
C98 C97 1.392 . S
C98 C99 1.331 . S
C98 H116 0.932 . S
C99 C98 1.331 . S
C99 C100 1.336 . S
C100 C96 1.394 . S
C100 C99 1.336 . S
C100 H115 0.929 . S
C101 C91 1.386 . S
C101 C94 1.357 . S
C101 H114 0.928 . S
H102 C78 0.931 1_556 S
H103 C80 0.930 . S
H104 C82 0.929 . S
H105 C83 0.931 . S
H106 C85 0.930 . S
H107 C89 0.931 . S
H108 C87 0.931 . S
H109 C91 0.931 . S
H110 C92 0.929 . S
H111 C93 0.930 . S
H112 C96 0.930 . S
H113 C97 0.931 . S
H114 C101 0.928 . S
H115 C100 0.929 . S
H116 C98 0.932 . S
C117 C118 1.386 . S
C117 C119 1.397 . S
C117 H141 0.931 . S
C118 C117 1.386 . S
C118 C122 1.397 . S
C119 C117 1.397 . S
C119 C120 1.384 . S
C119 H142 0.930 . S
C120 C119 1.384 . S
C120 C121 1.377 . S
C120 C123 1.481 . S
C121 C120 1.377 . S
C121 C122 1.389 . S
C121 H143 0.929 . S
C122 C118 1.397 . S
C122 C121 1.389 . S
C122 H144 0.931 . S
C123 C120 1.481 . S
C123 C124 1.387 . S
C123 C128 1.390 . S
C124 C123 1.387 . S
C124 C125 1.401 . S
C124 H145 0.930 . S
C125 C124 1.401 . S
C125 C126 1.376 . S
C125 C134 1.511 . S
C126 C125 1.376 . S
C126 C127 1.392 . S
C126 H147 0.931 . S
C127 C126 1.392 . S
C127 C128 1.361 . S
C127 C129 1.500 . S
C128 C123 1.390 . S
C128 C127 1.361 . S
C128 H146 0.931 . S
C129 C127 1.500 . S
C129 C130 1.371 . S
C129 C131 1.365 . S
C130 C129 1.371 . S
C130 C140 1.386 1_554 S
C130 H148 0.931 . S
C131 C129 1.365 . S
C131 C132 1.409 . S
C131 H149 0.929 . S
C132 C131 1.409 . S
C132 C133 1.380 . S
C132 H150 0.930 . S
C133 C132 1.380 . S
C133 C140 1.357 1_554 S
C134 C125 1.511 . S
C134 C135 1.341 . S
C134 C136 1.371 . S
C135 C134 1.341 . S
C135 C139 1.394 . S
C135 H151 0.930 . S
C136 C134 1.371 . S
C136 C137 1.392 . S
C136 H152 0.931 . S
C137 C136 1.392 . S
C137 C138 1.331 . S
C137 H155 0.932 . S
C138 C137 1.331 . S
C138 C139 1.336 . S
C139 C135 1.394 . S
C139 C138 1.336 . S
C139 H154 0.929 . S
C140 C130 1.386 1_556 S
C140 C133 1.357 1_556 S
C140 H153 0.928 . S
H141 C117 0.931 . S
H142 C119 0.930 . S
H143 C121 0.929 . S
H144 C122 0.931 . S
H145 C124 0.930 . S
H146 C128 0.931 . S
H147 C126 0.931 . S
H148 C130 0.931 . S
H149 C131 0.929 . S
H150 C132 0.930 . S
H151 C135 0.930 . S
H152 C136 0.931 . S
H153 C140 0.928 . S
H154 C139 0.929 . S
H155 C137 0.932 . S
C156 C157 1.386 . S
C156 C158 1.397 . S
C156 H180 0.931 . S
C157 C156 1.386 . S
C157 C161 1.397 . S
C158 C156 1.397 . S
C158 C159 1.384 . S
C158 H181 0.930 . S
C159 C158 1.384 . S
C159 C160 1.377 . S
C159 C162 1.481 . S
C160 C159 1.377 . S
C160 C161 1.389 . S
C160 H182 0.929 . S
C161 C157 1.397 . S
C161 C160 1.389 . S
C161 H183 0.931 . S
C162 C159 1.481 . S
C162 C163 1.387 . S
C162 C167 1.390 . S
C163 C162 1.387 . S
C163 C164 1.401 . S
C163 H184 0.930 . S
C164 C163 1.401 . S
C164 C165 1.376 1_554 S
C164 C173 1.511 . S
C165 C164 1.376 1_556 S
C165 C166 1.392 . S
C165 H186 0.931 . S
C166 C165 1.392 . S
C166 C167 1.361 1_556 S
C166 C168 1.500 . S
C167 C162 1.390 . S
C167 C166 1.361 1_554 S
C167 H185 0.928 1_554 S
C168 C166 1.500 . S
C168 C169 1.371 . S
C168 C170 1.365 . S
C169 C168 1.371 . S
C169 C179 1.386 . S
C169 H187 0.931 . S
C170 C168 1.365 . S
C170 C171 1.409 . S
C170 H188 0.929 . S
C171 C170 1.409 . S
C171 C172 1.380 . S
C171 H189 0.930 . S
C172 C171 1.380 . S
C172 C179 1.357 . S
C173 C164 1.511 . S
C173 C174 1.341 . S
C173 C175 1.371 . S
C174 C173 1.341 . S
C174 C178 1.394 . S
C174 H190 0.930 . S
C175 C173 1.371 . S
C175 C176 1.392 . S
C175 H191 0.931 1_554 S
C176 C175 1.392 . S
C176 C177 1.331 . S
C176 H194 0.932 1_554 S
C177 C176 1.331 . S
C177 C178 1.336 . S
C178 C174 1.394 . S
C178 C177 1.336 . S
C178 H193 0.929 . S
C179 C169 1.386 . S
C179 C172 1.357 . S
C179 H192 0.928 . S
H180 C156 0.931 . S
H181 C158 0.930 . S
H182 C160 0.929 . S
H183 C161 0.931 . S
H184 C163 0.930 . S
H185 C167 0.928 1_556 S
H186 C165 0.931 . S
H187 C169 0.931 . S
H188 C170 0.929 . S
H189 C171 0.930 . S
H190 C174 0.930 . S
H191 C175 0.931 1_556 S
H192 C179 0.928 . S
H193 C178 0.929 . S
H194 C176 0.932 1_556 S
C195 C196 1.386 . S
C195 C197 1.397 . S
C195 H219 0.931 . S
C196 C195 1.386 . S
C196 C200 1.397 . S
C197 C195 1.397 . S
C197 C198 1.384 . S
C197 H220 0.930 . S
C198 C197 1.384 . S
C198 C199 1.377 . S
C198 C201 1.481 . S
C199 C198 1.377 . S
C199 C200 1.389 . S
C199 H221 0.929 . S
C200 C196 1.397 . S
C200 C199 1.389 . S
C200 H222 0.931 . S
C201 C198 1.481 . S
C201 C202 1.387 . S
C201 C206 1.390 . S
C202 C201 1.387 . S
C202 C203 1.401 . S
C202 H223 0.930 . S
C203 C202 1.401 . S
C203 C204 1.376 1_554 S
C203 C212 1.511 . S
C204 C203 1.376 1_556 S
C204 C205 1.392 . S
C204 H225 0.931 . S
C205 C204 1.392 . S
C205 C206 1.361 1_556 S
C205 C207 1.500 . S
C206 C201 1.390 . S
C206 C205 1.361 1_554 S
C206 H224 0.931 1_554 S
C207 C205 1.500 . S
C207 C208 1.371 . S
C207 C209 1.365 . S
C208 C207 1.371 . S
C208 C218 1.386 . S
C208 H226 0.931 . S
C209 C207 1.365 . S
C209 C210 1.409 . S
C209 H227 0.929 . S
C210 C209 1.409 . S
C210 C211 1.380 . S
C210 H228 0.930 . S
C211 C210 1.380 . S
C211 C218 1.357 . S
C212 C203 1.511 . S
C212 C213 1.341 . S
C212 C214 1.371 . S
C213 C212 1.341 . S
C213 C217 1.394 . S
C213 H229 0.930 . S
C214 C212 1.371 . S
C214 C215 1.392 . S
C214 H230 0.931 1_554 S
C215 C214 1.392 . S
C215 C216 1.331 . S
C215 H233 0.932 1_554 S
C216 C215 1.331 . S
C216 C217 1.336 . S
C217 C213 1.394 . S
C217 C216 1.336 . S
C217 H232 0.929 . S
C218 C208 1.386 . S
C218 C211 1.357 . S
C218 H231 0.928 . S
H219 C195 0.931 . S
H220 C197 0.930 . S
H221 C199 0.929 . S
H222 C200 0.931 . S
H223 C202 0.930 . S
H224 C206 0.931 1_556 S
H225 C204 0.931 . S
H226 C208 0.931 . S
H227 C209 0.929 . S
H228 C210 0.930 . S
H229 C213 0.930 . S
H230 C214 0.931 1_556 S
H231 C218 0.928 . S
H232 C217 0.929 . S
H233 C215 0.932 1_556 S
C234 C235 1.386 . S
C234 C236 1.397 . S
C234 H258 0.931 . S
C235 C234 1.386 . S
C235 C239 1.397 . S
C236 C234 1.397 . S
C236 C237 1.384 . S
C236 H259 0.930 . S
C237 C236 1.384 . S
C237 C238 1.377 . S
C237 C240 1.481 . S
C238 C237 1.377 . S
C238 C239 1.389 . S
C238 H260 0.929 . S
C239 C235 1.397 . S
C239 C238 1.389 . S
C239 H261 0.931 . S
C240 C237 1.481 . S
C240 C241 1.387 . S
C240 C245 1.404 . S
C241 C240 1.387 . S
C241 C242 1.401 . S
C241 H262 0.930 . S
C242 C241 1.401 . S
C242 C243 1.376 1_554 S
C242 C251 1.511 . S
C243 C242 1.376 1_556 S
C243 C244 1.392 . S
C243 H264 0.931 . S
C244 C243 1.392 . S
C244 C245 1.350 1_556 S
C244 C246 1.500 . S
C245 C240 1.404 . S
C245 C244 1.350 1_554 S
C245 H263 0.928 1_554 S
C246 C244 1.500 . S
C246 C247 1.371 . S
C246 C248 1.365 . S
C247 C246 1.371 . S
C247 C257 1.386 . S
C247 H265 0.931 . S
C248 C246 1.365 . S
C248 C249 1.409 . S
C248 H266 0.929 . S
C249 C248 1.409 . S
C249 C250 1.380 . S
C249 H267 0.930 . S
C250 C249 1.380 . S
C250 C257 1.357 . S
C251 C242 1.511 . S
C251 C252 1.341 . S
C251 C253 1.371 . S
C252 C251 1.341 . S
C252 C256 1.394 . S
C252 H268 0.930 . S
C253 C251 1.371 . S
C253 C254 1.392 . S
C253 H269 0.931 1_554 S
C254 C253 1.392 . S
C254 C255 1.331 . S
C254 H272 0.932 1_554 S
C255 C254 1.331 . S
C255 C256 1.336 . S
C256 C252 1.394 . S
C256 C255 1.336 . S
C256 H271 0.929 . S
C257 C247 1.386 . S
C257 C250 1.357 . S
C257 H270 0.928 . S
H258 C234 0.931 . S
H259 C236 0.930 . S
H260 C238 0.929 . S
H261 C239 0.931 . S
H262 C241 0.930 . S
H263 C245 0.928 1_556 S
H264 C243 0.931 . S
H265 C247 0.931 . S
H266 C248 0.929 . S
H267 C249 0.930 . S
H268 C252 0.930 . S
H269 C253 0.931 1_556 S
H270 C257 0.928 . S
H271 C256 0.929 . S
H272 C254 0.932 1_556 S
C273 C274 1.386 . S
C273 C275 1.397 . S
C273 H297 0.931 . S
C274 C273 1.386 . S
C274 C278 1.397 . S
C275 C273 1.397 . S
C275 C276 1.384 . S
C275 H298 0.930 . S
C276 C275 1.384 . S
C276 C277 1.377 . S
C276 C279 1.481 . S
C277 C276 1.377 . S
C277 C278 1.389 . S
C277 H299 0.929 . S
C278 C274 1.397 . S
C278 C277 1.389 . S
C278 H300 0.931 . S
C279 C276 1.481 . S
C279 C280 1.387 . S
C279 C284 1.390 1_556 S
C280 C279 1.387 . S
C280 C281 1.401 1_556 S
C280 H301 0.930 . S
C281 C280 1.401 1_554 S
C281 C282 1.376 . S
C281 C290 1.511 . S
C282 C281 1.376 . S
C282 C283 1.392 . S
C282 H303 0.931 . S
C283 C282 1.392 . S
C283 C284 1.361 . S
C283 C285 1.500 . S
C284 C279 1.390 1_554 S
C284 C283 1.361 . S
C284 H302 0.928 1_554 S
C285 C283 1.500 . S
C285 C286 1.371 . S
C285 C287 1.365 . S
C286 C285 1.371 . S
C286 C296 1.386 . S
C286 H304 0.931 . S
C287 C285 1.365 . S
C287 C288 1.409 . S
C287 H305 0.929 . S
C288 C287 1.409 . S
C288 C289 1.380 . S
C288 H306 0.930 . S
C289 C288 1.380 . S
C289 C296 1.357 . S
C290 C281 1.511 . S
C290 C291 1.341 . S
C290 C292 1.371 . S
C291 C290 1.341 . S
C291 C295 1.394 . S
C291 H307 0.930 1_554 S
C292 C290 1.371 . S
C292 C293 1.392 . S
C292 H308 0.931 . S
C293 C292 1.392 . S
C293 C294 1.331 . S
C293 H311 0.932 . S
C294 C293 1.331 . S
C294 C295 1.336 . S
C295 C291 1.394 . S
C295 C294 1.336 . S
C295 H310 0.929 1_554 S
C296 C286 1.386 . S
C296 C289 1.357 . S
C296 H309 0.928 . S
H297 C273 0.931 . S
H298 C275 0.930 . S
H299 C277 0.929 . S
H300 C278 0.931 . S
H301 C280 0.930 . S
H302 C284 0.928 1_556 S
H303 C282 0.931 . S
H304 C286 0.931 . S
H305 C287 0.929 . S
H306 C288 0.930 . S
H307 C291 0.930 1_556 S
H308 C292 0.931 . S
H309 C296 0.928 . S
H310 C295 0.929 1_556 S
H311 C293 0.932 . S
Tb312 N343 2.660 1_565 S
Tb312 N350 2.600 . S
Tb312 O356 2.546 . S
Tb312 O357 2.610 1_455 S
Tb312 O359 2.320 1_455 S
Tb312 O360 2.552 . S
Tb312 O361 2.413 . S
Tb312 O363 2.362 1_565 S
Tb312 O364 2.421 . S
Tb312 C376 2.833 . S
C313 C316 1.432 1_545 S
C313 C317 1.414 . S
C313 N320 1.359 . S
C314 C316 1.417 . S
C314 C318 1.432 . S
C314 C326 1.410 . S
C315 C317 1.444 1_565 S
C315 C318 1.317 . S
C315 H338 0.929 . S
C316 C313 1.432 1_565 S
C316 C314 1.417 . S
C316 N324 1.361 1_565 S
C317 C313 1.414 . S
C317 C315 1.444 1_545 S
C317 C322 1.385 . S
C318 C314 1.432 . S
C318 C315 1.317 . S
C318 H330 0.930 . S
C319 C321 1.392 . S
C319 C322 1.370 . S
C319 H331 0.931 . S
N320 C313 1.359 . S
N320 C321 1.327 . S
N320 Tb323 2.600 . S
C321 C319 1.392 . S
C321 N320 1.327 . S
C321 H328 0.930 . S
C322 C317 1.385 . S
C322 C319 1.370 . S
C322 H341 0.930 . S
Tb323 N320 2.600 . S
Tb323 N324 2.657 . S
Tb323 O357 2.362 1_545 S
Tb323 O358 2.421 . S
Tb323 O362 2.546 . S
Tb323 O363 2.610 1_655 S
Tb323 O365 2.320 1_655 S
Tb323 O366 2.552 1_655 S
Tb323 O367 2.413 . S
Tb323 C387 2.833 . S
N324 C316 1.361 1_545 S
N324 Tb323 2.657 . S
N324 C325 1.306 1_645 S
C325 N324 1.306 1_465 S
C325 C327 1.408 . S
C325 H332 0.930 . S
C326 C314 1.410 . S
C326 C327 1.339 1_655 S
C326 H334 0.930 . S
C327 C325 1.408 . S
C327 C326 1.339 1_455 S
C327 H329 0.935 . S
H328 C321 0.930 . S
H329 C327 0.935 . S
H330 C318 0.930 . S
H331 C319 0.931 . S
H332 C325 0.930 . S
H333 C347 0.930 1_655 S
H334 C326 0.930 . S
H335 C353 0.930 . S
H336 C344 0.930 1_655 S
H337 C351 0.931 . S
H338 C315 0.929 . S
H339 C345 0.930 . S
H340 C378 0.930 . S
H341 C322 0.930 . S
H342 C377 0.929 . S
N343 Tb312 2.660 1_545 S
N343 C344 1.305 . S
N343 C348 1.360 . S
C344 H336 0.930 1_455 S
C344 N343 1.305 . S
C344 C347 1.407 . S
C345 H339 0.930 . S
C345 C346 1.410 . S
C345 C347 1.345 . S
C346 C345 1.410 . S
C346 C348 1.417 . S
C346 C378 1.432 . S
C347 H333 0.930 1_455 S
C347 C344 1.407 . S
C347 C345 1.345 . S
C348 N343 1.360 . S
C348 C346 1.417 . S
C348 C352 1.432 . S
H349 C354 0.927 1_545 S
N350 Tb312 2.600 . S
N350 C352 1.359 1_565 S
N350 C353 1.327 . S
C351 H337 0.931 . S
C351 C353 1.392 . S
C351 C354 1.379 . S
C352 C348 1.432 . S
C352 N350 1.359 1_545 S
C352 C355 1.414 . S
C353 H335 0.930 . S
C353 N350 1.327 . S
C353 C351 1.392 . S
C354 H349 0.927 1_565 S
C354 C351 1.379 . S
C354 C355 1.377 1_565 S
C355 C352 1.414 . S
C355 C354 1.377 1_545 S
C355 C377 1.444 . S
O356 Tb312 2.546 . S
O356 C376 1.251 . S
O357 Tb312 2.610 1_655 S
O357 Tb323 2.362 1_565 S
O357 C368 1.283 . S
O358 Tb323 2.421 . S
O358 C375 1.262 . S
O359 Tb312 2.320 1_655 S
O359 C375 1.260 1_565 S
O360 Tb312 2.552 . S
O360 C368 1.243 1_455 S
O361 Tb312 2.413 . S
O361 C376 1.256 . S
O362 Tb323 2.546 . S
O362 C387 1.251 . S
O363 Tb312 2.362 1_545 S
O363 Tb323 2.610 1_455 S
O363 C379 1.283 . S
O364 Tb312 2.421 . S
O364 C386 1.262 1_565 S
O365 Tb323 2.320 1_455 S
O365 C386 1.260 . S
O366 Tb323 2.552 1_455 S
O366 C379 1.243 . S
O367 Tb323 2.413 . S
O367 C387 1.256 . S
C368 O357 1.283 . S
C368 O360 1.243 1_655 S
C369 C371 1.382 . S
C369 C373 1.393 . S
C369 C376 1.500 . S
C370 C371 1.400 . S
C370 C372 1.384 . S
C371 C369 1.382 . S
C371 C370 1.400 . S
C371 H388 0.915 1_455 S
C372 C370 1.384 . S
C372 C374 1.392 . S
C372 H389 0.931 . S
C373 C369 1.393 . S
C373 C374 1.401 . S
C373 H390 0.930 . S
C374 C372 1.392 . S
C374 C373 1.401 . S
C374 H391 0.930 . S
C375 O358 1.262 . S
C375 O359 1.260 1_545 S
C376 Tb312 2.833 . S
C376 O356 1.251 . S
C376 O361 1.256 . S
C376 C369 1.500 . S
C377 H342 0.929 . S
C377 C355 1.444 . S
C377 C378 1.317 . S
C378 H340 0.930 . S
C378 C346 1.432 . S
C378 C377 1.317 . S
C379 O363 1.283 . S
C379 O366 1.243 . S
C380 C381 1.382 . S
C380 C384 1.393 . S
C380 C387 1.500 . S
C381 C380 1.382 . S
C381 C382 1.400 . S
C381 H392 0.930 1_655 S
C382 C381 1.400 . S
C382 C383 1.384 . S
C383 C382 1.384 . S
C383 C385 1.392 . S
C383 H393 0.931 . S
C384 C380 1.393 . S
C384 C385 1.401 . S
C384 H394 0.930 . S
C385 C383 1.392 . S
C385 C384 1.401 . S
C385 H395 0.930 . S
C386 O364 1.262 1_545 S
C386 O365 1.260 . S
C387 Tb323 2.833 . S
C387 O362 1.251 . S
C387 O367 1.256 . S
C387 C380 1.500 . S
H388 C371 0.915 1_655 S
H389 C372 0.931 . S
H390 C373 0.930 . S
H391 C374 0.930 . S
H392 C381 0.930 1_455 S
H393 C383 0.931 . S
H394 C384 0.930 . S
H395 C385 0.930 . S
Tb396 N427 2.660 . S
Tb396 N434 2.600 . S
Tb396 O440 2.546 . S
Tb396 O441 2.610 1_545 S
Tb396 O443 2.320 1_545 S
Tb396 O444 2.552 . S
Tb396 O445 2.413 . S
Tb396 O447 2.362 . S
Tb396 O448 2.421 . S
Tb396 C460 2.833 . S
C397 C400 1.432 . S
C397 C401 1.414 . S
C397 N404 1.359 . S
C398 C400 1.417 . S
C398 C402 1.432 . S
C398 C410 1.410 . S
C399 C401 1.444 . S
C399 C402 1.317 . S
C399 H422 0.929 . S
C400 C397 1.432 . S
C400 C398 1.417 . S
C400 N408 1.360 . S
C401 C397 1.414 . S
C401 C399 1.444 . S
C401 C406 1.385 . S
C402 C398 1.432 . S
C402 C399 1.317 . S
C402 H414 0.930 . S
C403 C405 1.392 . S
C403 C406 1.370 . S
C403 H415 0.931 . S
N404 C397 1.359 . S
N404 C405 1.327 . S
N404 Tb407 2.600 . S
C405 C403 1.392 . S
C405 N404 1.327 . S
C405 H412 0.930 . S
C406 C401 1.385 . S
C406 C403 1.370 . S
C406 H425 0.930 . S
Tb407 N404 2.600 . S
Tb407 N408 2.660 . S
Tb407 O441 2.362 . S
Tb407 O442 2.421 . S
Tb407 O446 2.546 . S
Tb407 O447 2.610 1_565 S
Tb407 O449 2.320 1_565 S
Tb407 O450 2.552 1_565 S
Tb407 O451 2.413 . S
Tb407 C471 2.833 . S
N408 C400 1.360 . S
N408 Tb407 2.660 . S
N408 C409 1.305 1_565 S
C409 N408 1.305 1_545 S
C409 C411 1.407 . S
C409 H416 0.930 . S
C410 C398 1.410 . S
C410 C411 1.345 1_565 S
C410 H418 0.930 . S
C411 C409 1.407 . S
C411 C410 1.345 1_545 S
C411 H413 0.930 . S
H412 C405 0.930 . S
H413 C411 0.930 . S
H414 C402 0.930 . S
H415 C403 0.931 . S
H416 C409 0.930 . S
H417 C431 0.930 1_565 S
H418 C410 0.930 . S
H419 C437 0.930 . S
H420 C428 0.930 1_565 S
H421 C435 0.931 . S
H422 C399 0.929 . S
H423 C429 0.930 . S
H424 C462 0.930 . S
H425 C406 0.930 . S
H426 C461 0.929 . S
N427 Tb396 2.660 . S
N427 C428 1.305 . S
N427 C432 1.360 . S
C428 H420 0.930 1_545 S
C428 N427 1.305 . S
C428 C431 1.407 . S
C429 H423 0.930 . S
C429 C430 1.410 . S
C429 C431 1.345 . S
C430 C429 1.410 . S
C430 C432 1.417 . S
C430 C462 1.432 . S
C431 H417 0.930 1_545 S
C431 C428 1.407 . S
C431 C429 1.345 . S
C432 N427 1.360 . S
C432 C430 1.417 . S
C432 C436 1.432 . S
H433 C438 0.930 . S
N434 Tb396 2.600 . S
N434 C436 1.359 . S
N434 C437 1.327 . S
C435 H421 0.931 . S
C435 C437 1.392 . S
C435 C438 1.370 . S
C436 C432 1.432 . S
C436 N434 1.359 . S
C436 C439 1.414 . S
C437 H419 0.930 . S
C437 N434 1.327 . S
C437 C435 1.392 . S
C438 H433 0.930 . S
C438 C435 1.370 . S
C438 C439 1.385 . S
C439 C436 1.414 . S
C439 C438 1.385 . S
C439 C461 1.444 . S
O440 Tb396 2.546 . S
O440 C460 1.251 . S
O441 Tb396 2.610 1_565 S
O441 Tb407 2.362 . S
O441 C452 1.283 . S
O442 Tb407 2.421 . S
O442 C459 1.262 . S
O443 Tb396 2.320 1_565 S
O443 C459 1.260 . S
O444 Tb396 2.552 . S
O444 C452 1.243 1_545 S
O445 Tb396 2.413 . S
O445 C460 1.256 . S
O446 Tb407 2.546 . S
O446 C471 1.251 . S
O447 Tb396 2.362 . S
O447 Tb407 2.610 1_545 S
O447 C463 1.283 . S
O448 Tb396 2.421 . S
O448 C470 1.262 . S
O449 Tb407 2.320 1_545 S
O449 C470 1.260 . S
O450 Tb407 2.552 1_545 S
O450 C463 1.243 . S
O451 Tb407 2.413 . S
O451 C471 1.256 . S
C452 O441 1.283 . S
C452 O444 1.243 1_565 S
C453 C455 1.382 . S
C453 C457 1.393 . S
C453 C460 1.500 . S
C454 C455 1.400 . S
C454 C456 1.384 . S
C455 C453 1.382 . S
C455 C454 1.400 . S
C455 H472 0.930 . S
C456 C454 1.384 . S
C456 C458 1.392 . S
C456 H473 0.931 . S
C457 C453 1.393 . S
C457 C458 1.401 . S
C457 H474 0.930 . S
C458 C456 1.392 . S
C458 C457 1.401 . S
C458 H475 0.930 . S
C459 O442 1.262 . S
C459 O443 1.260 . S
C460 Tb396 2.833 . S
C460 O440 1.251 . S
C460 O445 1.256 . S
C460 C453 1.500 . S
C461 H426 0.929 . S
C461 C439 1.444 . S
C461 C462 1.317 . S
C462 H424 0.930 . S
C462 C430 1.432 . S
C462 C461 1.317 . S
C463 O447 1.283 . S
C463 O450 1.243 . S
C464 C465 1.382 . S
C464 C468 1.393 . S
C464 C471 1.500 . S
C465 C464 1.382 . S
C465 C466 1.400 . S
C465 H476 0.930 1_565 S
C466 C465 1.400 . S
C466 C467 1.384 . S
C467 C466 1.384 . S
C467 C469 1.392 . S
C467 H477 0.931 . S
C468 C464 1.393 . S
C468 C469 1.401 . S
C468 H478 0.930 . S
C469 C467 1.392 . S
C469 C468 1.401 . S
C469 H479 0.930 . S
C470 O448 1.262 . S
C470 O449 1.260 . S
C471 Tb407 2.833 . S
C471 O446 1.251 . S
C471 O451 1.256 . S
C471 C464 1.500 . S
H472 C455 0.930 . S
H473 C456 0.931 . S
H474 C457 0.930 . S
H475 C458 0.930 . S
H476 C465 0.930 1_545 S
H477 C467 0.931 . S
H478 C468 0.930 . S
H479 C469 0.930 . S
Tb480 N511 2.660 . S
Tb480 N518 2.600 . S
Tb480 O524 2.546 . S
Tb480 O525 2.610 . S
Tb480 O527 2.320 . S
Tb480 O528 2.552 . S
Tb480 O529 2.413 . S
Tb480 O531 2.362 . S
Tb480 O532 2.421 . S
Tb480 C544 2.833 . S
C481 C484 1.432 . S
C481 C485 1.414 . S
C481 N488 1.359 . S
C482 C484 1.417 . S
C482 C486 1.432 . S
C482 C494 1.410 . S
C483 C485 1.444 . S
C483 C486 1.317 . S
C483 H506 0.929 . S
C484 C481 1.432 . S
C484 C482 1.417 . S
C484 N492 1.360 . S
C485 C481 1.414 . S
C485 C483 1.444 . S
C485 C490 1.385 . S
C486 C482 1.432 . S
C486 C483 1.317 . S
C486 H498 0.930 . S
C487 C489 1.392 . S
C487 C490 1.370 . S
C487 H499 0.931 . S
N488 C481 1.359 . S
N488 C489 1.327 . S
N488 Tb491 2.600 . S
C489 C487 1.392 . S
C489 N488 1.327 . S
C489 H496 0.930 . S
C490 C485 1.385 . S
C490 C487 1.370 . S
C490 H509 0.930 . S
Tb491 N488 2.600 . S
Tb491 N492 2.660 . S
Tb491 O525 2.362 . S
Tb491 O526 2.421 . S
Tb491 O530 2.546 . S
Tb491 O531 2.610 . S
Tb491 O533 2.320 . S
Tb491 O534 2.552 . S
Tb491 O535 2.413 . S
Tb491 C555 2.833 . S
N492 C484 1.360 . S
N492 Tb491 2.660 . S
N492 C493 1.305 . S
C493 N492 1.305 . S
C493 C495 1.407 . S
C493 H500 0.930 . S
C494 C482 1.410 . S
C494 C495 1.345 . S
C494 H502 0.930 . S
C495 C493 1.407 . S
C495 C494 1.345 . S
C495 H497 0.930 . S
H496 C489 0.930 . S
H497 C495 0.930 . S
H498 C486 0.930 . S
H499 C487 0.931 . S
H500 C493 0.930 . S
H501 C515 0.930 . S
H502 C494 0.930 . S
H503 C521 0.930 . S
H504 C512 0.930 . S
H505 C519 0.931 . S
H506 C483 0.929 . S
H507 C513 0.930 . S
H508 C546 0.930 . S
H509 C490 0.930 . S
H510 C545 0.929 . S
N511 Tb480 2.660 . S
N511 C512 1.305 . S
N511 C516 1.360 . S
C512 H504 0.930 . S
C512 N511 1.305 . S
C512 C515 1.407 . S
C513 H507 0.930 . S
C513 C514 1.410 . S
C513 C515 1.345 . S
C514 C513 1.410 . S
C514 C516 1.417 . S
C514 C546 1.432 . S
C515 H501 0.930 . S
C515 C512 1.407 . S
C515 C513 1.345 . S
C516 N511 1.360 . S
C516 C514 1.417 . S
C516 C520 1.432 . S
H517 C522 0.930 . S
N518 Tb480 2.600 . S
N518 C520 1.359 . S
N518 C521 1.327 . S
C519 H505 0.931 . S
C519 C521 1.392 . S
C519 C522 1.370 . S
C520 C516 1.432 . S
C520 N518 1.359 . S
C520 C523 1.414 . S
C521 H503 0.930 . S
C521 N518 1.327 . S
C521 C519 1.392 . S
C522 H517 0.930 . S
C522 C519 1.370 . S
C522 C523 1.385 . S
C523 C520 1.414 . S
C523 C522 1.385 . S
C523 C545 1.444 . S
O524 Tb480 2.546 . S
O524 C544 1.251 . S
O525 Tb480 2.610 . S
O525 Tb491 2.362 . S
O525 C536 1.283 . S
O526 Tb491 2.421 . S
O526 C543 1.262 . S
O527 Tb480 2.320 . S
O527 C543 1.260 . S
O528 Tb480 2.552 . S
O528 C536 1.243 . S
O529 Tb480 2.413 . S
O529 C544 1.256 . S
O530 Tb491 2.546 . S
O530 C555 1.251 . S
O531 Tb480 2.362 . S
O531 Tb491 2.610 . S
O531 C547 1.283 . S
O532 Tb480 2.421 . S
O532 C554 1.262 . S
O533 Tb491 2.320 . S
O533 C554 1.260 . S
O534 Tb491 2.552 . S
O534 C547 1.243 . S
O535 Tb491 2.413 . S
O535 C555 1.256 . S
C536 O525 1.283 . S
C536 O528 1.243 . S
C537 C539 1.382 . S
C537 C541 1.393 . S
C537 C544 1.500 . S
C538 C539 1.400 . S
C538 C540 1.384 . S
C539 C537 1.382 . S
C539 C538 1.400 . S
C539 H556 0.930 . S
C540 C538 1.384 . S
C540 C542 1.392 . S
C540 H557 0.931 . S
C541 C537 1.393 . S
C541 C542 1.401 . S
C541 H558 0.930 . S
C542 C540 1.392 . S
C542 C541 1.401 . S
C542 H559 0.930 . S
C543 O526 1.262 . S
C543 O527 1.260 . S
C544 Tb480 2.833 . S
C544 O524 1.251 . S
C544 O529 1.256 . S
C544 C537 1.500 . S
C545 H510 0.929 . S
C545 C523 1.444 . S
C545 C546 1.317 . S
C546 H508 0.930 . S
C546 C514 1.432 . S
C546 C545 1.317 . S
C547 O531 1.283 . S
C547 O534 1.243 . S
C548 C549 1.382 . S
C548 C552 1.393 . S
C548 C555 1.500 . S
C549 C548 1.382 . S
C549 C550 1.400 . S
C549 H560 0.930 . S
C550 C549 1.400 . S
C550 C551 1.384 . S
C551 C550 1.384 . S
C551 C553 1.392 . S
C551 H561 0.931 . S
C552 C548 1.393 . S
C552 C553 1.401 . S
C552 H562 0.930 . S
C553 C551 1.392 . S
C553 C552 1.401 . S
C553 H563 0.930 . S
C554 O532 1.262 . S
C554 O533 1.260 . S
C555 Tb491 2.833 . S
C555 O530 1.251 . S
C555 O535 1.256 . S
C555 C548 1.500 . S
H556 C539 0.930 . S
H557 C540 0.931 . S
H558 C541 0.930 . S
H559 C542 0.930 . S
H560 C549 0.930 . S
H561 C551 0.931 . S
H562 C552 0.930 . S
H563 C553 0.930 . S
Tb564 N595 2.660 . S
Tb564 N602 2.600 . S
Tb564 O608 2.546 . S
Tb564 O609 2.610 . S
Tb564 O611 2.320 . S
Tb564 O612 2.552 . S
Tb564 O613 2.413 . S
Tb564 O615 2.375 . S
Tb564 O616 2.421 1_455 S
Tb564 C628 2.833 . S
C565 C568 1.432 . S
C565 C569 1.414 . S
C565 N572 1.359 . S
C566 C568 1.417 . S
C566 C570 1.432 . S
C566 C578 1.410 . S
C567 C569 1.444 . S
C567 C570 1.317 . S
C567 H590 0.929 . S
C568 C565 1.432 . S
C568 C566 1.417 . S
C568 N576 1.360 . S
C569 C565 1.414 . S
C569 C567 1.444 . S
C569 C574 1.385 . S
C570 C566 1.432 . S
C570 C567 1.317 . S
C570 H582 0.930 . S
C571 C573 1.392 . S
C571 C574 1.370 1_455 S
C571 H583 0.931 . S
N572 C565 1.359 . S
N572 C573 1.327 1_655 S
N572 Tb575 2.600 . S
C573 C571 1.392 . S
C573 N572 1.327 1_455 S
C573 H580 0.930 . S
C574 C569 1.385 . S
C574 C571 1.370 1_655 S
C574 H593 0.936 . S
Tb575 N572 2.600 . S
Tb575 N576 2.660 . S
Tb575 O609 2.362 1_655 S
Tb575 O610 2.421 1_655 S
Tb575 O614 2.546 . S
Tb575 O615 2.602 1_655 S
Tb575 O617 2.320 . S
Tb575 O618 2.552 . S
Tb575 O619 2.413 . S
Tb575 C639 2.833 . S
N576 C568 1.360 . S
N576 Tb575 2.660 . S
N576 C577 1.305 . S
C577 N576 1.305 . S
C577 C579 1.407 . S
C577 H584 0.930 . S
C578 C566 1.410 . S
C578 C579 1.345 . S
C578 H586 0.930 . S
C579 C577 1.407 . S
C579 C578 1.345 . S
C579 H581 0.930 . S
H580 C573 0.930 . S
H581 C579 0.930 . S
H582 C570 0.930 . S
H583 C571 0.931 . S
H584 C577 0.930 . S
H585 C599 0.930 . S
H586 C578 0.930 . S
H587 C605 0.930 1_655 S
H588 C596 0.930 . S
H589 C603 0.923 1_655 S
H590 C567 0.929 . S
H591 C597 0.930 . S
H592 C630 0.930 . S
H593 C574 0.936 . S
H594 C629 0.929 . S
N595 Tb564 2.660 . S
N595 C596 1.305 . S
N595 C600 1.360 . S
C596 H588 0.930 . S
C596 N595 1.305 . S
C596 C599 1.407 . S
C597 H591 0.930 . S
C597 C598 1.410 . S
C597 C599 1.345 . S
C598 C597 1.410 . S
C598 C600 1.417 . S
C598 C630 1.432 . S
C599 H585 0.930 . S
C599 C596 1.407 . S
C599 C597 1.345 . S
C600 N595 1.360 . S
C600 C598 1.417 . S
C600 C604 1.432 . S
H601 C606 0.930 . S
N602 Tb564 2.600 . S
N602 C604 1.359 . S
N602 C605 1.327 . S
C603 H589 0.923 1_455 S
C603 C605 1.394 . S
C603 C606 1.377 . S
C604 C600 1.432 . S
C604 N602 1.359 . S
C604 C607 1.414 . S
C605 H587 0.930 1_455 S
C605 N602 1.327 . S
C605 C603 1.394 . S
C606 H601 0.930 . S
C606 C603 1.377 . S
C606 C607 1.385 . S
C607 C604 1.414 . S
C607 C606 1.385 . S
C607 C629 1.444 . S
O608 Tb564 2.546 . S
O608 C628 1.251 . S
O609 Tb564 2.610 . S
O609 Tb575 2.362 1_455 S
O609 C620 1.283 . S
O610 Tb575 2.421 1_455 S
O610 C627 1.262 . S
O611 Tb564 2.320 . S
O611 C627 1.260 . S
O612 Tb564 2.552 . S
O612 C620 1.243 . S
O613 Tb564 2.413 . S
O613 C628 1.256 . S
O614 Tb575 2.546 . S
O614 C639 1.251 . S
O615 Tb564 2.375 . S
O615 Tb575 2.602 1_455 S
O615 C631 1.274 1_455 S
O616 Tb564 2.421 1_655 S
O616 C638 1.262 . S
O617 Tb575 2.320 . S
O617 C638 1.260 . S
O618 Tb575 2.552 . S
O618 C631 1.243 . S
O619 Tb575 2.413 . S
O619 C639 1.256 . S
C620 O609 1.283 . S
C620 O612 1.243 . S
C621 C623 1.382 . S
C621 C625 1.393 . S
C621 C628 1.500 . S
C622 C623 1.400 . S
C622 C624 1.384 . S
C623 C621 1.382 . S
C623 C622 1.400 . S
C623 H640 0.930 . S
C624 C622 1.384 . S
C624 C626 1.392 . S
C624 H641 0.931 . S
C625 C621 1.393 . S
C625 C626 1.401 . S
C625 H642 0.930 . S
C626 C624 1.392 . S
C626 C625 1.401 . S
C626 H643 0.930 . S
C627 O610 1.262 . S
C627 O611 1.260 . S
C628 Tb564 2.833 . S
C628 O608 1.251 . S
C628 O613 1.256 . S
C628 C621 1.500 . S
C629 H594 0.929 . S
C629 C607 1.444 . S
C629 C630 1.317 . S
C630 H592 0.930 . S
C630 C598 1.432 . S
C630 C629 1.317 . S
C631 O615 1.274 1_655 S
C631 O618 1.243 . S
C632 C633 1.382 . S
C632 C636 1.393 . S
C632 C639 1.500 . S
C633 C632 1.382 . S
C633 C634 1.400 . S
C633 H644 0.930 . S
C634 C633 1.400 . S
C634 C635 1.384 . S
C635 C634 1.384 . S
C635 C637 1.392 . S
C635 H645 0.931 . S
C636 C632 1.393 . S
C636 C637 1.401 . S
C636 H646 0.930 . S
C637 C635 1.392 . S
C637 C636 1.401 . S
C637 H647 0.930 . S
C638 O616 1.262 . S
C638 O617 1.260 . S
C639 Tb575 2.833 . S
C639 O614 1.251 . S
C639 O619 1.256 . S
C639 C632 1.500 . S
H640 C623 0.930 . S
H641 C624 0.931 . S
H642 C625 0.930 . S
H643 C626 0.930 . S
H644 C633 0.930 . S
H645 C635 0.931 . S
H646 C636 0.930 . S
H647 C637 0.930 . S
H648 C654 0.930 . S
H649 C658 0.930 1_565 S
H650 C663 0.929 . S
H651 C661 0.929 . S
H652 C656 0.929 . S
H653 C662 0.929 . S
C654 H648 0.930 . S
C654 C655 1.367 . S
C654 C662 1.378 . S
C655 C654 1.367 . S
C655 C663 1.433 . S
C656 H652 0.929 . S
C656 C658 1.378 . S
C656 C660 1.350 . S
C657 C660 1.463 . S
C657 C662 1.350 . S
C657 N665 1.427 . S
C658 H649 0.930 1_545 S
C658 C656 1.378 . S
C658 C659 1.367 . S
C659 C658 1.367 . S
C659 C661 1.433 . S
C660 C656 1.350 . S
C660 C657 1.463 . S
C660 N664 1.427 . S
C661 H651 0.929 . S
C661 C659 1.433 . S
C661 N664 1.384 . S
C662 H653 0.929 . S
C662 C654 1.378 . S
C662 C657 1.350 . S
C663 H650 0.929 . S
C663 C655 1.433 . S
C663 N665 1.384 . S
N664 C660 1.427 . S
N664 C661 1.384 . S
N665 C657 1.427 . S
N665 C663 1.384 . S
H666 C672 0.930 . S
H667 C676 0.930 . S
H668 C681 0.929 . S
H669 C679 0.929 . S
H670 C674 0.929 . S
H671 C680 0.929 . S
C672 H666 0.930 . S
C672 C673 1.367 . S
C672 C680 1.378 . S
C673 C672 1.367 . S
C673 C681 1.433 . S
C674 H670 0.929 . S
C674 C676 1.378 . S
C674 C678 1.350 . S
C675 C678 1.463 . S
C675 C680 1.350 . S
C675 N683 1.427 . S
C676 H667 0.930 . S
C676 C674 1.378 . S
C676 C677 1.367 . S
C677 C676 1.367 . S
C677 C679 1.433 . S
C678 C674 1.350 . S
C678 C675 1.463 . S
C678 N682 1.427 . S
C679 H669 0.929 . S
C679 C677 1.433 . S
C679 N682 1.384 . S
C680 H671 0.929 . S
C680 C672 1.378 . S
C680 C675 1.350 . S
C681 H668 0.929 . S
C681 C673 1.433 . S
C681 N683 1.384 . S
N682 C678 1.427 . S
N682 C679 1.384 . S
N683 C675 1.427 . S
N683 C681 1.384 . S
H684 C690 0.930 . S
H685 C694 0.930 . S
H686 C699 0.929 . S
H687 C697 0.929 . S
H688 C692 0.929 . S
H689 C698 0.929 . S
C690 H684 0.930 . S
C690 C691 1.367 . S
C690 C698 1.378 . S
C691 C690 1.367 . S
C691 C699 1.433 . S
C692 H688 0.929 . S
C692 C694 1.378 . S
C692 C696 1.350 . S
C693 C696 1.463 . S
C693 C698 1.350 . S
C693 N701 1.427 . S
C694 H685 0.930 . S
C694 C692 1.378 . S
C694 C695 1.367 . S
C695 C694 1.367 . S
C695 C697 1.433 . S
C696 C692 1.350 . S
C696 C693 1.463 . S
C696 N700 1.427 . S
C697 H687 0.929 . S
C697 C695 1.433 . S
C697 N700 1.384 . S
C698 H689 0.929 . S
C698 C690 1.378 . S
C698 C693 1.350 . S
C699 H686 0.929 . S
C699 C691 1.433 . S
C699 N701 1.384 . S
N700 C696 1.427 . S
N700 C697 1.384 . S
N701 C693 1.427 . S
N701 C699 1.384 . S
H702 C708 0.930 . S
H703 C712 0.930 . S
H704 C717 0.929 . S
H705 C715 0.929 . S
H706 C710 0.929 . S
H707 C716 0.929 . S
C708 H702 0.930 . S
C708 C709 1.367 . S
C708 C716 1.378 . S
C709 C708 1.367 . S
C709 C717 1.433 . S
C710 H706 0.929 . S
C710 C712 1.378 . S
C710 C714 1.350 . S
C711 C714 1.463 . S
C711 C716 1.350 . S
C711 N719 1.427 . S
C712 H703 0.930 . S
C712 C710 1.378 . S
C712 C713 1.367 . S
C713 C712 1.367 . S
C713 C715 1.433 . S
C714 C710 1.350 . S
C714 C711 1.463 . S
C714 N718 1.427 . S
C715 H705 0.929 . S
C715 C713 1.433 . S
C715 N718 1.384 . S
C716 H707 0.929 . S
C716 C708 1.378 . S
C716 C711 1.350 . S
C717 H704 0.929 . S
C717 C709 1.433 . S
C717 N719 1.384 . S
N718 C714 1.427 . S
N718 C715 1.384 . S
N719 C711 1.427 . S
N719 C717 1.384 . S
H720 C726 0.930 . S
H721 C730 0.930 . S
H722 C735 0.929 . S
H723 C733 0.929 . S
H724 C728 0.929 . S
H725 C734 0.929 1_556 S
C726 H720 0.930 . S
C726 C727 1.367 . S
C726 C734 1.378 . S
C727 C726 1.367 . S
C727 C735 1.433 . S
C728 H724 0.929 . S
C728 C730 1.378 . S
C728 C732 1.350 . S
C729 C732 1.463 . S
C729 C734 1.350 1_556 S
C729 N737 1.427 . S
C730 H721 0.930 . S
C730 C728 1.378 . S
C730 C731 1.367 . S
C731 C730 1.367 . S
C731 C733 1.433 1_565 S
C732 C728 1.350 . S
C732 C729 1.463 . S
C732 N736 1.427 . S
C733 H723 0.929 . S
C733 C731 1.433 1_545 S
C733 N736 1.384 1_545 S
C734 H725 0.929 1_554 S
C734 C726 1.378 . S
C734 C729 1.350 1_554 S
C735 H722 0.929 . S
C735 C727 1.433 . S
C735 N737 1.384 1_554 S
N736 C732 1.427 . S
N736 C733 1.384 1_565 S
N737 C729 1.427 . S
N737 C735 1.384 1_556 S
H738 C744 0.930 . S
H739 C748 0.930 . S
H740 C753 0.929 . S
H741 C751 0.929 . S
H742 C746 0.929 . S
H743 C752 0.930 . S
C744 H738 0.930 . S
C744 C745 1.367 . S
C744 C752 1.367 1_554 S
C745 C744 1.367 . S
C745 C753 1.433 . S
C746 H742 0.929 . S
C746 C748 1.378 . S
C746 C750 1.350 . S
C747 C750 1.463 . S
C747 C752 1.360 . S
C747 N755 1.427 . S
C748 H739 0.930 . S
C748 C746 1.378 . S
C748 C749 1.367 . S
C749 C748 1.367 . S
C749 C751 1.433 . S
C750 C746 1.350 . S
C750 C747 1.463 . S
C750 N754 1.427 . S
C751 H741 0.929 . S
C751 C749 1.433 . S
C751 N754 1.384 . S
C752 H743 0.930 . S
C752 C744 1.367 1_556 S
C752 C747 1.360 . S
C753 H740 0.929 . S
C753 C745 1.433 . S
C753 N755 1.384 1_554 S
N754 C750 1.427 . S
N754 C751 1.384 . S
N755 C747 1.427 . S
N755 C753 1.384 1_556 S
H756 C762 0.930 . S
H757 C766 0.930 . S
H758 C771 0.929 . S
H759 C769 0.929 . S
H760 C764 0.929 . S
H761 C770 0.929 . S
C762 H756 0.930 . S
C762 C763 1.367 . S
C762 C770 1.378 1_554 S
C763 C762 1.367 . S
C763 C771 1.433 . S
C764 H760 0.929 . S
C764 C766 1.378 . S
C764 C768 1.350 . S
C765 C768 1.463 . S
C765 C770 1.350 . S
C765 N773 1.427 . S
C766 H757 0.930 . S
C766 C764 1.378 . S
C766 C767 1.367 . S
C767 C766 1.367 . S
C767 C769 1.433 . S
C768 C764 1.350 . S
C768 C765 1.463 . S
C768 N772 1.427 . S
C769 H759 0.929 . S
C769 C767 1.433 . S
C769 N772 1.384 . S
C770 H761 0.929 . S
C770 C762 1.378 1_556 S
C770 C765 1.350 . S
C771 H758 0.929 . S
C771 C763 1.433 . S
C771 N773 1.384 1_554 S
N772 C768 1.427 . S
N772 C769 1.384 . S
N773 C765 1.427 . S
N773 C771 1.384 1_556 S
H774 C780 0.930 . S
H775 C784 0.930 1_455 S
H776 C789 0.929 . S
H777 C787 0.929 . S
H778 C782 0.949 . S
H779 C788 0.929 . S
C780 H774 0.930 . S
C780 C781 1.367 . S
C780 C788 1.378 1_554 S
C781 C780 1.367 . S
C781 C789 1.433 . S
C782 H778 0.949 . S
C782 C784 1.378 . S
C782 C786 1.350 . S
C783 C786 1.463 . S
C783 C788 1.350 . S
C783 N791 1.427 . S
C784 H775 0.930 1_655 S
C784 C782 1.378 . S
C784 C785 1.367 . S
C785 C784 1.367 . S
C785 C787 1.433 . S
C786 C782 1.350 . S
C786 C783 1.463 . S
C786 N790 1.427 . S
C787 H777 0.929 . S
C787 C785 1.433 . S
C787 N790 1.384 . S
C788 H779 0.929 . S
C788 C780 1.378 1_556 S
C788 C783 1.350 . S
C789 H776 0.929 . S
C789 C781 1.433 . S
C789 N791 1.384 1_554 S
N790 C786 1.427 . S
N790 C787 1.384 . S
N791 C783 1.427 . S
N791 C789 1.384 1_556 S
H792 C798 0.930 . S
H793 C802 0.930 . S
H794 C807 0.929 . S
H795 C805 0.912 1_655 S
H796 C800 0.929 . S
H797 C806 0.929 . S
C798 H792 0.930 . S
C798 C799 1.367 . S
C798 C806 1.378 . S
C799 C798 1.367 . S
C799 C807 1.433 . S
C800 H796 0.929 . S
C800 C802 1.378 . S
C800 C804 1.350 . S
C801 C804 1.463 . S
C801 C806 1.350 . S
C801 N809 1.427 . S
C802 H793 0.930 . S
C802 C800 1.378 . S
C802 C803 1.367 . S
C803 C802 1.367 . S
C803 C805 1.435 . S
C804 C800 1.350 . S
C804 C801 1.463 . S
C804 N808 1.427 . S
C805 H795 0.912 1_455 S
C805 C803 1.435 . S
C805 N808 1.401 . S
C806 H797 0.929 . S
C806 C798 1.378 . S
C806 C801 1.350 . S
C807 H794 0.929 . S
C807 C799 1.433 . S
C807 N809 1.384 . S
N808 C804 1.427 . S
N808 C805 1.401 . S
N809 C801 1.427 . S
N809 C807 1.384 . S
H810 C816 0.930 . S
H811 C820 0.930 . S
H812 C825 0.929 . S
H813 C823 0.929 . S
H814 C818 0.929 . S
H815 C824 0.929 . S
C816 H810 0.930 . S
C816 C817 1.367 . S
C816 C824 1.378 . S
C817 C816 1.367 . S
C817 C825 1.433 . S
C818 H814 0.929 . S
C818 C820 1.378 1_545 S
C818 C822 1.350 . S
C819 C822 1.463 . S
C819 C824 1.350 . S
C819 N827 1.427 . S
C820 H811 0.930 . S
C820 C818 1.378 1_565 S
C820 C821 1.361 1_565 S
C821 C820 1.361 1_545 S
C821 C823 1.470 . S
C822 C818 1.350 . S
C822 C819 1.463 . S
C822 N826 1.427 . S
C823 H813 0.929 . S
C823 C821 1.470 . S
C823 N826 1.384 . S
C824 H815 0.929 . S
C824 C816 1.378 . S
C824 C819 1.350 . S
C825 H812 0.929 . S
C825 C817 1.433 . S
C825 N827 1.384 . S
N826 C822 1.427 . S
N826 C823 1.384 . S
N827 C819 1.427 . S
N827 C825 1.384 . S
H828 C834 0.930 . S
H829 C838 0.930 . S
H830 C843 0.929 . S
H831 C841 0.929 . S
H832 C836 0.929 . S
H833 C842 0.929 . S
C834 H828 0.930 . S
C834 C835 1.367 . S
C834 C842 1.378 . S
C835 C834 1.367 . S
C835 C843 1.433 . S
C836 H832 0.929 . S
C836 C838 1.378 . S
C836 C840 1.350 . S
C837 C840 1.463 . S
C837 C842 1.350 . S
C837 N845 1.427 . S
C838 H829 0.930 . S
C838 C836 1.378 . S
C838 C839 1.367 . S
C839 C838 1.367 . S
C839 C841 1.433 . S
C840 C836 1.350 . S
C840 C837 1.463 . S
C840 N844 1.427 . S
C841 H831 0.929 . S
C841 C839 1.433 . S
C841 N844 1.384 . S
C842 H833 0.929 . S
C842 C834 1.378 . S
C842 C837 1.350 . S
C843 H830 0.929 . S
C843 C835 1.433 . S
C843 N845 1.384 . S
N844 C840 1.427 . S
N844 C841 1.384 . S
N845 C837 1.427 . S
N845 C843 1.384 . S
H846 C852 0.930 . S
H847 C856 0.930 . S
H848 C861 0.929 . S
H849 C859 0.929 . S
H850 C854 0.929 . S
H851 C860 0.929 . S
C852 H846 0.930 . S
C852 C853 1.367 . S
C852 C860 1.378 . S
C853 C852 1.367 . S
C853 C861 1.433 . S
C854 H850 0.929 . S
C854 C856 1.378 . S
C854 C858 1.350 . S
C855 C858 1.463 . S
C855 C860 1.350 . S
C855 N863 1.427 . S
C856 H847 0.930 . S
C856 C854 1.378 . S
C856 C857 1.367 . S
C857 C856 1.367 . S
C857 C859 1.433 . S
C858 C854 1.350 . S
C858 C855 1.463 . S
C858 N862 1.427 . S
C859 H849 0.929 . S
C859 C857 1.433 . S
C859 N862 1.384 . S
C860 H851 0.929 . S
C860 C852 1.378 . S
C860 C855 1.350 . S
C861 H848 0.929 . S
C861 C853 1.433 . S
C861 N863 1.384 . S
N862 C858 1.427 . S
N862 C859 1.384 . S
N863 C855 1.427 . S
N863 C861 1.384 . S
H864 C870 0.930 . S
H865 C874 0.930 . S
H866 C879 0.929 . S
H867 C877 0.929 . S
H868 C872 0.929 . S
H869 C878 0.929 1_554 S
C870 H864 0.930 . S
C870 C871 1.367 1_554 S
C870 C878 1.378 1_554 S
C871 C870 1.367 1_556 S
C871 C879 1.433 . S
C872 H868 0.929 . S
C872 C874 1.378 . S
C872 C876 1.350 . S
C873 C876 1.463 . S
C873 C878 1.350 . S
C873 N881 1.427 . S
C874 H865 0.930 . S
C874 C872 1.378 . S
C874 C875 1.367 1_655 S
C875 C874 1.367 1_455 S
C875 C877 1.433 . S
C876 C872 1.350 . S
C876 C873 1.463 . S
C876 N880 1.427 . S
C877 H867 0.929 . S
C877 C875 1.433 . S
C877 N880 1.384 1_455 S
C878 H869 0.929 1_556 S
C878 C870 1.378 1_556 S
C878 C873 1.350 . S
C879 H866 0.929 . S
C879 C871 1.433 . S
C879 N881 1.384 . S
N880 C876 1.427 . S
N880 C877 1.384 1_655 S
N881 C873 1.427 . S
N881 C879 1.384 . S
H882 C888 0.930 . S
H883 C892 0.930 . S
H884 C897 0.929 . S
H885 C895 0.929 . S
H886 C890 0.937 . S
H887 C896 0.929 . S
C888 H882 0.930 . S
C888 C889 1.367 . S
C888 C896 1.378 . S
C889 C888 1.367 . S
C889 C897 1.433 1_556 S
C890 H886 0.937 . S
C890 C892 1.404 . S
C890 C894 1.317 1_545 S
C891 C894 1.463 . S
C891 C896 1.350 . S
C891 N899 1.427 1_556 S
C892 H883 0.930 . S
C892 C890 1.404 . S
C892 C893 1.367 . S
C893 C892 1.367 . S
C893 C895 1.433 1_545 S
C894 C890 1.317 1_565 S
C894 C891 1.463 . S
C894 N898 1.427 . S
C895 H885 0.929 . S
C895 C893 1.433 1_565 S
C895 N898 1.384 . S
C896 H887 0.929 . S
C896 C888 1.378 . S
C896 C891 1.350 . S
C897 H884 0.929 . S
C897 C889 1.433 1_554 S
C897 N899 1.384 . S
N898 C894 1.427 . S
N898 C895 1.384 . S
N899 C891 1.427 1_554 S
N899 C897 1.384 . S
H900 C906 0.930 . S
H901 C910 0.930 . S
H902 C915 0.929 . S
H903 C913 0.929 . S
H904 C908 0.929 . S
H905 C914 0.929 . S
C906 H900 0.930 . S
C906 C907 1.367 . S
C906 C914 1.378 . S
C907 C906 1.367 . S
C907 C915 1.433 1_556 S
C908 H904 0.929 . S
C908 C910 1.378 . S
C908 C912 1.350 . S
C909 C912 1.463 . S
C909 C914 1.350 . S
C909 N917 1.427 . S
C910 H901 0.930 . S
C910 C908 1.378 . S
C910 C911 1.367 . S
C911 C910 1.367 . S
C911 C913 1.433 . S
C912 C908 1.350 . S
C912 C909 1.463 . S
C912 N916 1.427 . S
C913 H903 0.929 . S
C913 C911 1.433 . S
C913 N916 1.384 . S
C914 H905 0.929 . S
C914 C906 1.378 . S
C914 C909 1.350 . S
C915 H902 0.929 . S
C915 C907 1.433 1_554 S
C915 N917 1.384 1_554 S
N916 C912 1.427 . S
N916 C913 1.384 . S
N917 C909 1.427 . S
N917 C915 1.384 1_556 S
H918 C924 0.930 . S
H919 C928 0.930 . S
H920 C933 0.929 . S
H921 C931 0.929 . S
H922 C926 0.929 . S
H923 C932 0.929 . S
C924 H918 0.930 . S
C924 C925 1.367 . S
C924 C932 1.378 . S
C925 C924 1.367 . S
C925 C933 1.433 1_556 S
C926 H922 0.929 . S
C926 C928 1.378 . S
C926 C930 1.350 . S
C927 C930 1.463 . S
C927 C932 1.350 . S
C927 N935 1.427 . S
C928 H919 0.930 . S
C928 C926 1.378 . S
C928 C929 1.367 . S
C929 C928 1.367 . S
C929 C931 1.433 . S
C930 C926 1.350 . S
C930 C927 1.463 . S
C930 N934 1.427 . S
C931 H921 0.929 . S
C931 C929 1.433 . S
C931 N934 1.384 . S
C932 H923 0.929 . S
C932 C924 1.378 . S
C932 C927 1.350 . S
C933 H920 0.929 . S
C933 C925 1.433 1_554 S
C933 N935 1.384 1_554 S
N934 C930 1.427 . S
N934 C931 1.384 . S
N935 C927 1.427 . S
N935 C933 1.384 1_556 S
H936 C942 0.930 . S
H937 C946 0.930 . S
H938 C951 0.929 . S
H939 C949 0.929 . S
H940 C944 0.929 . S
H941 C950 0.929 . S
C942 H936 0.930 . S
C942 C943 1.367 . S
C942 C950 1.378 . S
C943 C942 1.367 . S
C943 C951 1.433 . S
C944 H940 0.929 . S
C944 C946 1.378 . S
C944 C948 1.350 . S
C945 C948 1.463 . S
C945 C950 1.350 . S
C945 N953 1.427 . S
C946 H937 0.930 . S
C946 C944 1.378 . S
C946 C947 1.367 . S
C947 C946 1.367 . S
C947 C949 1.433 . S
C948 C944 1.350 . S
C948 C945 1.463 . S
C948 N952 1.427 . S
C949 H939 0.929 . S
C949 C947 1.433 . S
C949 N952 1.384 . S
C950 H941 0.929 . S
C950 C942 1.378 . S
C950 C945 1.350 . S
C951 H938 0.929 . S
C951 C943 1.433 . S
C951 N953 1.384 . S
N952 C948 1.427 . S
N952 C949 1.384 . S
N953 C945 1.427 . S
N953 C951 1.384 . S
H954 C960 0.930 . S
H955 C964 0.930 . S
H956 C969 0.929 . S
H957 C967 0.929 . S
H958 C962 0.929 . S
H959 C968 0.929 . S
C960 H954 0.930 . S
C960 C961 1.367 . S
C960 C968 1.378 . S
C961 C960 1.367 . S
C961 C969 1.433 . S
C962 H958 0.929 . S
C962 C964 1.378 . S
C962 C966 1.350 . S
C963 C966 1.463 . S
C963 C968 1.350 . S
C963 N971 1.427 . S
C964 H955 0.930 . S
C964 C962 1.378 . S
C964 C965 1.367 . S
C965 C964 1.367 . S
C965 C967 1.433 . S
C966 C962 1.350 . S
C966 C963 1.463 . S
C966 N970 1.427 . S
C967 H957 0.929 . S
C967 C965 1.433 . S
C967 N970 1.384 . S
C968 H959 0.929 . S
C968 C960 1.378 . S
C968 C963 1.350 . S
C969 H956 0.929 . S
C969 C961 1.433 . S
C969 N971 1.384 . S
N970 C966 1.427 . S
N970 C967 1.384 . S
N971 C963 1.427 . S
N971 C969 1.384 . S
H972 C978 0.930 . S
H973 C982 0.930 . S
H974 C987 0.929 . S
H975 C985 0.929 . S
H976 C980 0.929 . S
H977 C986 0.929 . S
C978 H972 0.930 . S
C978 C979 1.367 . S
C978 C986 1.378 . S
C979 C978 1.367 . S
C979 C987 1.433 . S
C980 H976 0.929 . S
C980 C982 1.378 . S
C980 C984 1.350 . S
C981 C984 1.463 . S
C981 C986 1.350 . S
C981 N989 1.427 . S
C982 H973 0.930 . S
C982 C980 1.378 . S
C982 C983 1.367 . S
C983 C982 1.367 . S
C983 C985 1.433 . S
C984 C980 1.350 . S
C984 C981 1.463 . S
C984 N988 1.427 . S
C985 H975 0.929 . S
C985 C983 1.433 . S
C985 N988 1.384 . S
C986 H977 0.929 . S
C986 C978 1.378 . S
C986 C981 1.350 . S
C987 H974 0.929 . S
C987 C979 1.433 . S
C987 N989 1.384 . S
N988 C984 1.427 . S
N988 C985 1.384 . S
N989 C981 1.427 . S
N989 C987 1.384 . S
H990 C996 0.930 . S
H991 C1000 0.930 . S
H992 C1005 0.929 . S
H993 C1003 0.929 . S
H994 C998 0.929 . S
H995 C1004 0.929 . S
C996 H990 0.930 . S
C996 C997 1.367 . S
C996 C1004 1.378 . S
C997 C996 1.367 . S
C997 C1005 1.433 . S
C998 H994 0.929 . S
C998 C1000 1.378 . S
C998 C1002 1.350 . S
C999 C1002 1.463 . S
C999 C1004 1.350 . S
C999 N1007 1.427 . S
C1000 H991 0.930 . S
C1000 C998 1.378 . S
C1000 C1001 1.367 . S
C1001 C1000 1.367 . S
C1001 C1003 1.433 . S
C1002 C998 1.350 . S
C1002 C999 1.463 . S
C1002 N1006 1.427 . S
C1003 H993 0.929 . S
C1003 C1001 1.433 . S
C1003 N1006 1.384 . S
C1004 H995 0.929 . S
C1004 C996 1.378 . S
C1004 C999 1.350 . S
C1005 H992 0.929 . S
C1005 C997 1.433 . S
C1005 N1007 1.384 . S
N1006 C1002 1.427 . S
N1006 C1003 1.384 . S
N1007 C999 1.427 . S
N1007 C1005 1.384 . S
H1008 C1014 0.930 . S
H1009 C1018 0.923 1_455 S
H1010 C1023 0.929 . S
H1011 C1021 0.929 . S
H1012 C1016 0.929 . S
H1013 C1022 0.929 . S
C1014 H1008 0.930 . S
C1014 C1015 1.367 . S
C1014 C1022 1.378 . S
C1015 C1014 1.367 . S
C1015 C1023 1.433 . S
C1016 H1012 0.929 . S
C1016 C1018 1.378 . S
C1016 C1020 1.350 . S
C1017 C1020 1.463 . S
C1017 C1022 1.350 . S
C1017 N1025 1.427 . S
C1018 H1009 0.923 1_655 S
C1018 C1016 1.378 . S
C1018 C1019 1.367 . S
C1019 C1018 1.367 . S
C1019 C1021 1.433 . S
C1020 C1016 1.350 . S
C1020 C1017 1.463 . S
C1020 N1024 1.427 . S
C1021 H1011 0.929 . S
C1021 C1019 1.433 . S
C1021 N1024 1.384 . S
C1022 H1013 0.929 . S
C1022 C1014 1.378 . S
C1022 C1017 1.350 . S
C1023 H1010 0.929 . S
C1023 C1015 1.433 . S
C1023 N1025 1.384 . S
N1024 C1020 1.427 . S
N1024 C1021 1.384 . S
N1025 C1017 1.427 . S
N1025 C1023 1.384 . S
H1026 C1032 0.930 . S
H1027 C1036 0.930 . S
H1028 C1041 0.929 . S
H1029 C1039 0.929 . S
H1030 C1034 0.929 . S
H1031 C1040 0.929 . S
C1032 H1026 0.930 . S
C1032 C1033 1.367 . S
C1032 C1040 1.378 . S
C1033 C1032 1.367 . S
C1033 C1041 1.433 . S
C1034 H1030 0.929 . S
C1034 C1036 1.378 . S
C1034 C1038 1.350 . S
C1035 C1038 1.463 . S
C1035 C1040 1.350 . S
C1035 N1043 1.427 . S
C1036 H1027 0.930 . S
C1036 C1034 1.378 . S
C1036 C1037 1.367 . S
C1037 C1036 1.367 . S
C1037 C1039 1.433 . S
C1038 C1034 1.350 . S
C1038 C1035 1.463 . S
C1038 N1042 1.427 . S
C1039 H1029 0.929 . S
C1039 C1037 1.433 . S
C1039 N1042 1.384 . S
C1040 H1031 0.929 . S
C1040 C1032 1.378 . S
C1040 C1035 1.350 . S
C1041 H1028 0.929 . S
C1041 C1033 1.433 . S
C1041 N1043 1.384 . S
N1042 C1038 1.427 . S
N1042 C1039 1.384 . S
N1043 C1035 1.427 . S
N1043 C1041 1.384 . S
H1044 C1050 0.930 . S
H1045 C1054 0.930 . S
H1046 C1059 0.929 . S
H1047 C1057 0.929 . S
H1048 C1052 0.929 . S
H1049 C1058 0.929 . S
C1050 H1044 0.930 . S
C1050 C1051 1.367 . S
C1050 C1058 1.378 . S
C1051 C1050 1.367 . S
C1051 C1059 1.433 . S
C1052 H1048 0.929 . S
C1052 C1054 1.378 . S
C1052 C1056 1.350 . S
C1053 C1056 1.463 . S
C1053 C1058 1.350 . S
C1053 N1061 1.427 . S
C1054 H1045 0.930 . S
C1054 C1052 1.378 . S
C1054 C1055 1.367 . S
C1055 C1054 1.367 . S
C1055 C1057 1.433 . S
C1056 C1052 1.350 . S
C1056 C1053 1.463 . S
C1056 N1060 1.427 . S
C1057 H1047 0.929 . S
C1057 C1055 1.433 . S
C1057 N1060 1.384 . S
C1058 H1049 0.929 . S
C1058 C1050 1.378 . S
C1058 C1053 1.350 . S
C1059 H1046 0.929 . S
C1059 C1051 1.433 . S
C1059 N1061 1.384 . S
N1060 C1056 1.427 . S
N1060 C1057 1.384 . S
N1061 C1053 1.427 . S
N1061 C1059 1.384 . S
H1062 C1068 0.930 . S
H1063 C1072 0.930 . S
H1064 C1077 0.929 . S
H1065 C1075 0.929 . S
H1066 C1070 0.929 . S
H1067 C1076 0.929 . S
C1068 H1062 0.930 . S
C1068 C1069 1.367 . S
C1068 C1076 1.378 . S
C1069 C1068 1.367 . S
C1069 C1077 1.433 . S
C1070 H1066 0.929 . S
C1070 C1072 1.378 . S
C1070 C1074 1.350 . S
C1071 C1074 1.463 . S
C1071 C1076 1.350 . S
C1071 N1079 1.427 . S
C1072 H1063 0.930 . S
C1072 C1070 1.378 . S
C1072 C1073 1.367 . S
C1073 C1072 1.367 . S
C1073 C1075 1.433 . S
C1074 C1070 1.350 . S
C1074 C1071 1.463 . S
C1074 N1078 1.427 . S
C1075 H1065 0.929 . S
C1075 C1073 1.433 . S
C1075 N1078 1.384 . S
C1076 H1067 0.929 . S
C1076 C1068 1.378 . S
C1076 C1071 1.350 . S
C1077 H1064 0.929 . S
C1077 C1069 1.433 . S
C1077 N1079 1.384 . S
N1078 C1074 1.427 . S
N1078 C1075 1.384 . S
N1079 C1071 1.427 . S
N1079 C1077 1.384 . S
C655 C255 2.273 . S
C659 C386 2.352 . S
C677 C470 2.377 . S
C673 C294 2.278 . S
C695 C536 2.276 . S
C691 C177 2.392 . S
C713 C620 2.266 . S
C709 C216 2.386 . S
C731 C375 2.359 1_565 S
C727 C99 2.285 . S
C745 C138 2.276 . S
C749 C459 2.388 . S
C763 C21 2.412 . S
C767 C547 2.280 . S
C781 C60 2.409 . S
C785 C631 2.278 . S
C803 C382 0.654 1_455 S
C799 C196 0.671 . S
C821 C466 0.542 1_545 S
C817 C235 0.631 . S
C839 C538 0.586 . S
C835 C289 0.590 . S
C853 C157 0.633 . S
C857 C622 0.640 . S
C871 C40 0.651 1_556 S
C875 C370 0.659 . S
C893 C454 0.582 . S
C889 C79 0.641 1_556 S
C911 C550 0.556 . S
C907 C133 0.626 1_556 S
C925 C1 0.669 1_556 S
C929 C634 0.617 . S
C943 C211 2.769 . S
C947 C379 2.929 . S
C961 C250 2.724 . S
C965 C463 2.876 . S
C983 C543 2.958 . S
C979 C274 2.619 . S
C1001 C627 2.988 . S
C997 C172 2.641 . S
C1015 C55 2.764 . S
C1019 C368 2.921 . S
C1037 C452 2.876 . S
C1033 C94 2.717 . S
C1055 C554 2.957 . S
C1051 C118 2.626 . S
C1069 C16 2.648 . S
C1073 C638 2.987 . S
