# Generated by pormake.
# Topology tsx, (6,3)-cn, num edge types: 1
# Building blocks:
#     Node 0, Type 0, BuildingBlock: FUNLAD_clean_sbu_0, # of connection points: 6
#     Node 1, Type 0, BuildingBlock: FUNLAD_clean_sbu_0, # of connection points: 6
#     Node 2, Type 1, BuildingBlock: MIDCAF_clean_linker_0, # of connection points: 3
#     Node 3, Type 1, BuildingBlock: MIDCAF_clean_linker_0, # of connection points: 3
#     Node 4, Type 1, BuildingBlock: MIDCAF_clean_linker_0, # of connection points: 3
#     Node 5, Type 1, BuildingBlock: MIDCAF_clean_linker_0, # of connection points: 3
#     Edge 6, Type (0, 1), BuildingBlock: UVAHIK_clean_linker_0, # of connection points: 2
#     Edge 7, Type (0, 1), BuildingBlock: UVAHIK_clean_linker_0, # of connection points: 2
#     Edge 8, Type (0, 1), BuildingBlock: UVAHIK_clean_linker_0, # of connection points: 2
#     Edge 9, Type (0, 1), BuildingBlock: UVAHIK_clean_linker_0, # of connection points: 2
#     Edge 10, Type (0, 1), BuildingBlock: UVAHIK_clean_linker_0, # of connection points: 2
#     Edge 11, Type (0, 1), BuildingBlock: UVAHIK_clean_linker_0, # of connection points: 2
#     Edge 12, Type (0, 1), BuildingBlock: UVAHIK_clean_linker_0, # of connection points: 2
#     Edge 13, Type (0, 1), BuildingBlock: UVAHIK_clean_linker_0, # of connection points: 2
#     Edge 14, Type (0, 1), BuildingBlock: UVAHIK_clean_linker_0, # of connection points: 2
#     Edge 15, Type (0, 1), BuildingBlock: UVAHIK_clean_linker_0, # of connection points: 2
#     Edge 16, Type (0, 1), BuildingBlock: UVAHIK_clean_linker_0, # of connection points: 2
#     Edge 17, Type (0, 1), BuildingBlock: UVAHIK_clean_linker_0, # of connection points: 2
# Relax obj value: 0.166
# Max RMSD: 0.156
# Mean RMSD: 0.096
data_MOF--net-tsx--node1-FUNLAD_clean_sbu_0--node2-MIDCAF_clean_linker_0--edge1-UVAHIK_clean_linker_0
_symmetry_space_group_name_H-M    P1
_symmetry_Int_Tables_number       1
_symmetry_cell_setting            triclinic
loop_
_symmetry_equiv_pos_as_xyz
'x, y, z'
_cell_length_a     28.610975
_cell_length_b     32.073303
_cell_length_c     60.082628
_cell_angle_alpha  91.152876
_cell_angle_beta   92.019128
_cell_angle_gamma 90.064643
loop_
_atom_site_label
_atom_site_type_symbol
_atom_site_fract_x
_atom_site_fract_y
_atom_site_fract_z
_atom_type_partial_charge
C0 C 0.94279 0.9394 0.00563 0.0
N1 N 0.01559 0.00709 0.05653 0.0
C2 C 0.97456 0.01 0.06722 0.0
C3 C 0.97453 0.01331 0.09044 0.0
C4 C 0.01716 0.01375 0.10281 0.0
C5 C 0.05898 0.01114 0.09127 0.0
C6 C 0.05738 0.00772 0.06806 0.0
Zn7 Zn 0.0147 0.00097 0.02255 0.0
C8 C 0.07976 0.93489 0.00758 0.0
N9 N 0.01261 0.98735 0.95165 0.0
C10 C 0.97137 0.98713 0.93965 0.0
C11 C 0.05419 0.98467 0.94141 0.0
C12 C 0.05542 0.98208 0.91823 0.0
C13 C 0.01346 0.98243 0.90536 0.0
C14 C 0.97098 0.98471 0.9164 0.0
Zn15 Zn 0.01303 -0.00675 0.98562 0.0
O16 O 0.95861 0.95774 0.02329 0.0
C17 C 0.94725 0.05863 0.00092 0.0
O18 O 0.96057 0.94721 0.98709 0.0
H19 H 0.08659 0.98484 0.95124 0.0
H20 H 0.94171 0.00942 0.05775 0.0
H21 H 0.93869 0.98935 0.94812 0.0
O22 O 0.96579 0.04995 0.01978 0.0
O23 O 0.96054 0.03949 0.98353 0.0
H24 H 0.08962 0.00542 0.05925 0.0
O25 O 0.06575 0.03973 0.98451 0.0
O26 O 0.07037 0.04389 0.02103 0.0
O27 O 0.06488 0.94658 0.98853 0.0
O28 O 0.06367 0.9519 0.02497 0.0
C29 C 0.08476 0.05499 0.00228 0.0
H30 H 0.94141 0.01468 0.0986 0.0
H31 H 0.09268 0.01199 0.10006 0.0
H32 H 0.08895 0.9797 0.91049 0.0
H33 H 0.93781 0.98555 0.90717 0.0
C34 C 0.44258 0.43902 0.50606 0.0
N35 N 0.51453 0.50971 0.55605 0.0
C36 C 0.47363 0.51116 0.56693 0.0
C37 C 0.47393 0.51434 0.59015 0.0
C38 C 0.51674 0.51617 0.60235 0.0
C39 C 0.55839 0.51517 0.59062 0.0
C40 C 0.55648 0.51183 0.5674 0.0
Zn41 Zn 0.51301 0.50299 0.52209 0.0
C42 C 0.57964 0.43752 0.50722 0.0
N43 N 0.50946 0.48695 0.45126 0.0
C44 C 0.4679 0.48641 0.43952 0.0
C45 C 0.55076 0.48495 0.44073 0.0
C46 C 0.55134 0.48302 0.41752 0.0
C47 C 0.50902 0.48329 0.40493 0.0
C48 C 0.46687 0.48459 0.41626 0.0
Zn49 Zn 0.51064 0.49336 0.48522 0.0
O50 O 0.45909 0.45772 0.52349 0.0
C51 C 0.44335 0.55813 0.50044 0.0
O52 O 0.45895 0.44704 0.48725 0.0
H53 H 0.58342 0.48539 0.45036 0.0
H54 H 0.44064 0.50937 0.5576 0.0
H55 H 0.43546 0.48812 0.44821 0.0
O56 O 0.46192 0.54989 0.51934 0.0
O57 O 0.45733 0.53921 0.4831 0.0
H58 H 0.58859 0.51068 0.55844 0.0
O59 O 0.5627 0.54003 0.48354 0.0
O60 O 0.56601 0.5484 0.5199 0.0
O61 O 0.56307 0.44733 0.48814 0.0
O62 O 0.56448 0.45572 0.5245 0.0
C63 C 0.58041 0.55799 0.5009 0.0
H64 H 0.44095 0.51445 0.59845 0.0
H65 H 0.59219 0.5171 0.59928 0.0
H66 H 0.58465 0.48139 0.40953 0.0
H67 H 0.43343 0.48533 0.40725 0.0
C68 C 0.95032 0.14105 0.46708 0.0
C69 C 0.93367 0.13304 0.48831 0.0
C70 C 0.942 0.09377 0.4976 0.0
C71 C 0.96422 0.06249 0.48541 0.0
H72 H 0.04155 0.9504 0.49071 0.0
H73 H 0.07226 0.88628 0.50679 0.0
H74 H 0.07681 0.83048 0.44078 0.0
H75 H 0.04406 0.89314 0.425 0.0
H76 H 0.03466 0.94666 0.38367 0.0
H77 H 0.03655 0.95226 0.34354 0.0
H78 H 0.00063 0.08279 0.34894 0.0
H79 H 0.99756 0.07706 0.3893 0.0
H80 H 0.98355 0.11672 0.43831 0.0
H81 H 0.944 0.1708 0.45931 0.0
H82 H 0.9301 0.08682 0.51404 0.0
H83 H 0.96848 0.0321 0.49273 0.0
N84 N 0.01027 -0.00107 0.45922 0.0
N85 N 0.02704 0.97118 0.42404 0.0
N86 N -0.00054 0.0396 0.42737 0.0
C87 C 0.02527 0.96663 0.4464 0.0
C88 C 0.01428 0.00748 0.41436 0.0
C89 C 0.9973 0.03553 0.44982 0.0
C90 C 0.04051 0.92702 0.45656 0.0
C91 C 0.04806 0.92404 0.47972 0.0
C92 C 0.06604 0.8874 0.48893 0.0
C93 C 0.07721 0.85319 0.4751 0.0
C94 C 0.06792 0.85581 0.45203 0.0
C95 C 0.04968 0.89214 0.44291 0.0
C96 C 0.01598 0.01143 0.38983 0.0
C97 C 0.02722 0.97667 0.37641 0.0
C98 C 0.02861 0.97992 0.35332 0.0
C99 C 0.01901 0.01803 0.34299 0.0
C100 C 0.00775 0.05286 0.35635 0.0
C101 C 0.00622 0.0496 0.37951 0.0
C102 C 0.97865 0.06988 0.4637 0.0
C103 C 0.97252 0.10983 0.45491 0.0
C104 C 0.95665 0.8548 0.54029 0.0
C105 C 0.93784 0.86236 0.51882 0.0
C106 C 0.94468 0.90165 0.50952 0.0
C107 C 0.96744 0.93341 0.52193 0.0
H108 H 0.04153 0.04634 0.51745 0.0
H109 H 0.07091 0.11008 0.50139 0.0
H110 H 0.0857 0.16592 0.56737 0.0
H111 H 0.05421 0.10361 0.58315 0.0
H112 H 0.04208 0.05165 0.6248 0.0
H113 H 0.04246 0.04714 0.66509 0.0
H114 H 0.00279 0.91728 0.65913 0.0
H115 H 0.00128 0.92191 0.61867 0.0
H116 H 0.99197 0.88 0.56947 0.0
H117 H 0.95153 0.82505 0.54807 0.0
H118 H 0.93106 0.90826 0.49291 0.0
H119 H 0.97045 0.96383 0.51461 0.0
N120 N 0.01546 -0.00234 0.5487 0.0
N121 N 0.03272 0.02651 0.58418 0.0
N122 N 0.00514 0.95792 0.58054 0.0
C123 C 0.03065 0.03039 0.5617 0.0
C124 C 0.02007 0.99045 0.59377 0.0
C125 C 0.00272 0.9613 0.558 0.0
C126 C 0.0456 0.06974 0.55161 0.0
C127 C 0.05006 0.0726 0.52845 0.0
C128 C 0.06728 0.10902 0.51925 0.0
C129 C 0.08084 0.14316 0.53306 0.0
C130 C 0.07486 0.14065 0.55613 0.0
C131 C 0.05732 0.10452 0.56526 0.0
C132 C 0.02157 0.98715 0.61839 0.0
C133 C 0.03353 0.02203 0.63199 0.0
C134 C 0.03403 0.01941 0.65517 0.0
C135 C 0.02275 0.98183 0.66537 0.0
C136 C 0.01109 0.94685 0.65181 0.0
C137 C 0.01048 0.94947 0.62859 0.0
C138 C 0.98386 0.92649 0.54388 0.0
C139 C 0.97935 0.88651 0.55269 0.0
C140 C 0.44984 0.63822 0.9667 0.0
C141 C 0.43296 0.62996 0.98786 0.0
C142 C 0.44113 0.5906 0.99705 0.0
C143 C 0.46348 0.55946 0.98483 0.0
H144 H 0.542 0.44872 0.9904 0.0
H145 H 0.57346 0.38519 0.00679 0.0
H146 H 0.57984 0.32873 0.94101 0.0
H147 H 0.54639 0.39085 0.92489 0.0
H148 H 0.53602 0.4443 0.88325 0.0
H149 H 0.53766 0.44991 0.84308 0.0
H150 H 0.49897 0.5798 0.84845 0.0
H151 H 0.49619 0.57406 0.8888 0.0
H152 H 0.48342 0.61415 0.93796 0.0
H153 H 0.44362 0.66806 0.95902 0.0
H154 H 0.42903 0.58348 0.01343 0.0
H155 H 0.46769 0.529 0.99209 0.0
N156 N 0.51064 0.4965 0.95878 0.0
N157 N 0.52768 0.46871 0.92364 0.0
N158 N 0.49921 0.53688 0.92688 0.0
C159 C 0.52603 0.46429 0.94603 0.0
C160 C 0.51441 0.50483 0.91391 0.0
C161 C 0.49717 0.5329 0.94933 0.0
C162 C 0.54183 0.42498 0.95632 0.0
C163 C 0.5491 0.42234 0.97952 0.0
C164 C 0.56749 0.38605 0.98891 0.0
C165 C 0.57936 0.35184 0.97524 0.0
C166 C 0.5704 0.35408 0.95214 0.0
C167 C 0.55175 0.39009 0.94281 0.0
C168 C 0.51598 0.50874 0.88937 0.0
C169 C 0.52791 0.47417 0.87597 0.0
C170 C 0.52915 0.47742 0.85287 0.0
C171 C 0.51867 0.51535 0.84251 0.0
C172 C 0.50675 0.54999 0.85587 0.0
C173 C 0.50539 0.54673 0.87903 0.0
C174 C 0.4782 0.56708 0.9632 0.0
C175 C 0.47217 0.60711 0.95449 0.0
C176 C 0.4595 0.35441 0.0432 0.0
C177 C 0.44358 0.35783 0.02091 0.0
C178 C 0.44907 0.39611 0.01027 0.0
C179 C 0.46801 0.43065 0.02202 0.0
H180 H 0.54212 0.5455 0.01625 0.0
H181 H 0.57427 0.60743 0.99947 0.0
H182 H 0.57565 0.67094 0.06368 0.0
H183 H 0.54116 0.61049 0.07997 0.0
H184 H 0.52749 0.56163 0.12327 0.0
H185 H 0.5264 0.55934 0.1637 0.0
H186 H 0.49173 0.42822 0.15947 0.0
H187 H 0.49173 0.43057 0.11903 0.0
H188 H 0.48907 0.38509 0.07221 0.0
H189 H 0.45517 0.32573 0.05212 0.0
H190 H 0.43763 0.39968 0.99304 0.0
H191 H 0.47023 0.46009 0.01361 0.0
N192 N 0.51016 0.50026 0.04785 0.0
N193 N 0.52276 0.53298 0.08284 0.0
N194 N 0.49731 0.46369 0.08053 0.0
C195 C 0.52309 0.53455 0.06026 0.0
C196 C 0.50992 0.4977 0.09313 0.0
C197 C 0.49725 0.46468 0.05792 0.0
C198 C 0.53914 0.5729 0.04948 0.0
C199 C 0.54821 0.57308 0.02663 0.0
C200 C 0.56709 0.60847 0.01705 0.0
C201 C 0.57787 0.64422 0.0302 0.0
C202 C 0.56715 0.64439 0.05287 0.0
C203 C 0.54786 0.60932 0.06234 0.0
C204 C 0.50966 0.4963 0.1178 0.0
C205 C 0.51962 0.53226 0.13091 0.0
C206 C 0.51925 0.53092 0.15414 0.0
C207 C 0.50901 0.49359 0.16485 0.0
C208 C 0.49911 0.45763 0.15176 0.0
C209 C 0.49938 0.45896 0.12853 0.0
C210 C 0.48185 0.42752 0.04461 0.0
C211 C 0.47842 0.38875 0.05488 0.0
C212 C 0.15694 0.08776 0.01919 0.0
C213 C 0.12448 0.08413 0.00122 0.0
C214 C 0.19522 0.11453 0.01817 0.0
C215 C 0.26327 0.17789 0.97888 0.0
H216 H 0.30519 0.23384 0.03384 0.0
C217 C 0.37461 0.33117 0.9979 0.0
C218 C 0.41644 0.32298 0.01007 0.0
C219 C 0.34326 0.29887 0.9923 0.0
C220 C 0.29392 0.21813 0.01843 0.0
H221 H 0.10633 0.1056 0.96807 0.0
H222 H 0.17179 0.15418 0.96668 0.0
H223 H 0.23999 0.18524 0.03421 0.0
H224 H 0.46049 0.27385 0.02357 0.0
H225 H 0.4046 0.21779 0.01452 0.0
H226 H 0.31642 0.21327 0.96315 0.0
C227 C 0.16875 0.13536 0.98132 0.0
C228 C 0.2568 0.19003 0.0186 0.0
C229 C 0.13095 0.10781 0.98217 0.0
C230 C 0.42811 0.28133 0.01466 0.0
C231 C 0.39646 0.2492 0.00934 0.0
C232 C 0.30002 0.20676 0.97868 0.0
C233 C 0.20139 0.13915 0.99934 0.0
C234 C 0.24105 0.16925 0.99887 0.0
C235 C 0.35321 0.25807 0.99885 0.0
C236 C 0.31561 0.22676 0.99851 0.0
H237 H 0.15324 0.06932 0.03395 0.0
H238 H 0.22015 0.11561 0.03214 0.0
H239 H 0.25261 0.16216 0.96342 0.0
H240 H 0.36427 0.36283 0.99424 0.0
H241 H 0.30975 0.30624 0.98438 0.0
C242 C 0.12822 0.87869 0.99064 0.0
C243 C 0.11597 0.90229 0.00948 0.0
C244 C 0.16276 0.84815 0.99234 0.0
C245 C 0.26648 0.81752 0.025 0.0
H246 H 0.24456 0.7101 0.99569 0.0
C247 C 0.35986 0.64715 0.00766 0.0
C248 C 0.40205 0.66057 0.99885 0.0
C249 C 0.32622 0.67606 0.01402 0.0
C250 C 0.25105 0.73968 0.00426 0.0
H251 H 0.13056 0.91268 0.04486 0.0
H252 H 0.19141 0.85936 0.04772 0.0
H253 H 0.18199 0.76145 0.99621 0.0
H254 H 0.44385 0.7148 0.99171 0.0
H255 H 0.38468 0.7654 0.00254 0.0
H256 H 0.33605 0.7959 0.03259 0.0
C257 C 0.17409 0.86456 0.0317 0.0
C258 C 0.21538 0.76923 0.00432 0.0
C259 C 0.13913 0.89485 0.03006 0.0
C260 C 0.41136 0.70356 0.99814 0.0
C261 C 0.37767 0.73251 0.00453 0.0
C262 C 0.30242 0.788 0.02477 0.0
C263 C 0.18606 0.84084 0.01286 0.0
C264 C 0.22294 0.80862 0.01439 0.0
C265 C 0.33407 0.71896 0.01171 0.0
C266 C 0.29517 0.74896 0.01417 0.0
H267 H 0.11109 0.88373 0.97455 0.0
H268 H 0.17173 0.83061 0.97749 0.0
H269 H 0.27322 0.84778 0.0328 0.0
H270 H 0.35147 0.61427 0.00832 0.0
H271 H 0.29317 0.66477 0.0198 0.0
C272 C 0.87061 0.91523 0.02358 0.0
C273 C 0.90248 0.9109 0.00647 0.0
C274 C 0.83115 0.88966 0.02388 0.0
C275 C 0.75943 0.8145 0.98845 0.0
H276 H 0.71473 0.7821 0.04578 0.0
C277 C 0.64152 0.67206 0.00682 0.0
C278 C 0.60457 0.67961 0.02123 0.0
C279 C 0.67246 0.70405 0.00187 0.0
C280 C 0.72653 0.79135 0.02966 0.0
H281 H 0.91862 0.87618 0.97643 0.0
H282 H 0.8513 0.82981 0.97759 0.0
H283 H 0.78147 0.82869 0.04433 0.0
H284 H 0.5685 0.7278 0.03982 0.0
H285 H 0.62381 0.7831 0.03186 0.0
H286 H 0.70562 0.77459 0.97402 0.0
C287 C 0.85554 0.85395 0.99036 0.0
C288 C 0.76472 0.81823 0.02877 0.0
C289 C 0.89447 0.88022 0.98979 0.0
C290 C 0.5973 0.7206 0.02918 0.0
C291 C 0.62869 0.75234 0.02454 0.0
C292 C 0.72177 0.7868 0.98939 0.0
C293 C 0.82317 0.85841 0.00737 0.0
C294 C 0.7818 0.83023 0.00816 0.0
C295 C 0.66731 0.74396 0.01143 0.0
C296 C 0.70505 0.77511 0.01001 0.0
H297 H 0.87557 0.9391 0.03647 0.0
H298 H 0.80663 0.89487 0.03696 0.0
H299 H 0.77086 0.82357 0.97226 0.0
H300 H 0.64854 0.64091 0.00053 0.0
H301 H 0.70219 0.69689 0.99179 0.0
C302 C 0.90106 0.11776 0.01659 0.0
C303 C 0.90789 0.08816 0.99949 0.0
C304 C 0.86204 0.14392 0.01582 0.0
C305 C 0.76782 0.18149 0.97682 0.0
H306 H 0.71081 0.21782 0.03155 0.0
C307 C 0.59885 0.27556 0.97502 0.0
C308 C 0.60572 0.31577 0.98437 0.0
C309 C 0.63064 0.24374 0.97976 0.0
C310 C 0.72637 0.20764 0.01619 0.0
H311 H 0.87905 0.06208 0.9684 0.0
H312 H 0.81017 0.10621 0.96747 0.0
H313 H 0.77777 0.17051 0.03319 0.0
H314 H 0.649 0.3528 0.00772 0.0
H315 H 0.70353 0.29665 0.0165 0.0
H316 H 0.7157 0.21798 0.95989 0.0
C317 C 0.83557 0.11059 0.9811 0.0
C318 C 0.76499 0.18094 0.01707 0.0
C319 C 0.87505 0.08511 0.98164 0.0
C320 C 0.64241 0.32222 1.0003 0.0
C321 C 0.67381 0.29014 0.0053 0.0
C322 C 0.72876 0.20738 0.97595 0.0
C323 C 0.8285 0.14041 0.99816 0.0
C324 C 0.78653 0.16785 0.99738 0.0
C325 C 0.6693 0.25128 0.99429 0.0
C326 C 0.70796 0.22094 0.9956 0.0
H327 H 0.92595 0.12078 0.03055 0.0
H328 H 0.85843 0.16703 0.02903 0.0
H329 H 0.78392 0.17304 0.96134 0.0
H330 H 0.57024 0.26925 0.96314 0.0
H331 H 0.62622 0.21375 0.97132 0.0
C332 C 0.63221 0.61403 0.51756 0.0
C333 C 0.61757 0.58956 0.49896 0.0
C334 C 0.66715 0.64402 0.51573 0.0
C335 C 0.76758 0.67246 0.4833 0.0
H336 H 0.74935 0.78153 0.51062 0.0
C337 C 0.86288 0.84397 0.49836 0.0
C338 C 0.90613 0.83118 0.50768 0.0
C339 C 0.82859 0.81463 0.49215 0.0
C340 C 0.75477 0.75146 0.50259 0.0
H341 H 0.62852 0.57692 0.46389 0.0
H342 H 0.69 0.62927 0.4608 0.0
H343 H 0.68671 0.73014 0.51069 0.0
H344 H 0.94902 0.77753 0.51579 0.0
H345 H 0.88876 0.72619 0.50522 0.0
H346 H 0.83619 0.69372 0.47563 0.0
C347 C 0.67426 0.62518 0.47675 0.0
C348 C 0.71909 0.72189 0.50289 0.0
C349 C 0.63893 0.59543 0.47852 0.0
C350 C 0.91573 0.7883 0.50896 0.0
C351 C 0.88139 0.75891 0.50272 0.0
C352 C 0.80355 0.70203 0.48317 0.0
C353 C 0.68847 0.64991 0.49531 0.0
C354 C 0.72536 0.68193 0.49355 0.0
C355 C 0.83683 0.77191 0.49513 0.0
C356 C 0.79763 0.74169 0.49303 0.0
H357 H 0.61652 0.6102 0.53355 0.0
H358 H 0.67787 0.66234 0.53038 0.0
H359 H 0.77333 0.64178 0.47605 0.0
H360 H 0.85423 0.87675 0.49724 0.0
H361 H 0.79478 0.82548 0.48601 0.0
C362 C 0.62805 0.38083 0.49067 0.0
C363 C 0.61642 0.40541 0.50928 0.0
C364 C 0.66278 0.35048 0.49253 0.0
C365 C 0.76765 0.32138 0.52489 0.0
H366 H 0.745 0.2129 0.49689 0.0
C367 C 0.86091 0.15053 0.50836 0.0
C368 C 0.9029 0.16381 0.49929 0.0
C369 C 0.82735 0.17952 0.51472 0.0
C370 C 0.75172 0.24278 0.50511 0.0
H371 H 0.63242 0.41775 0.54438 0.0
H372 H 0.69358 0.36475 0.54751 0.0
H373 H 0.68242 0.26421 0.49731 0.0
H374 H 0.94441 0.21795 0.49168 0.0
H375 H 0.88538 0.26866 0.50247 0.0
H376 H 0.83743 0.30005 0.53226 0.0
C377 C 0.67563 0.36905 0.53155 0.0
C378 C 0.71602 0.27232 0.5051 0.0
C379 C 0.6405 0.39918 0.52976 0.0
C380 C 0.91208 0.20679 0.49831 0.0
C381 C 0.87846 0.23583 0.50468 0.0
C382 C 0.80361 0.29185 0.52475 0.0
C383 C 0.6869 0.34429 0.51296 0.0
C384 C 0.72383 0.31211 0.51466 0.0
C385 C 0.83503 0.22239 0.51213 0.0
C386 C 0.79612 0.25243 0.5146 0.0
H387 H 0.61023 0.3849 0.47466 0.0
H388 H 0.67119 0.33218 0.47786 0.0
H389 H 0.77461 0.35192 0.5323 0.0
H390 H 0.8526 0.11766 0.50924 0.0
H391 H 0.79446 0.1683 0.52073 0.0
C392 C 0.39306 0.38037 0.49054 0.0
C393 C 0.40264 0.41028 0.50747 0.0
C394 C 0.35399 0.35439 0.49147 0.0
C395 C 0.26614 0.31737 0.5309 0.0
H396 H 0.20143 0.27843 0.47655 0.0
C397 C 0.09966 0.21965 0.53355 0.0
C398 C 0.10565 0.17959 0.52411 0.0
C399 C 0.13016 0.25197 0.52876 0.0
C400 C 0.21914 0.28934 0.49181 0.0
H401 H 0.37848 0.43726 0.53835 0.0
H402 H 0.30937 0.39338 0.53954 0.0
H403 H 0.26716 0.32681 0.47443 0.0
H404 H 0.14587 0.14325 0.50066 0.0
H405 H 0.19806 0.20024 0.49181 0.0
H406 H 0.21744 0.28044 0.54821 0.0
C407 C 0.33274 0.38866 0.52594 0.0
C408 C 0.25706 0.31668 0.49066 0.0
C409 C 0.37232 0.41398 0.52525 0.0
C410 C 0.13998 0.1737 0.50814 0.0
C411 C 0.17004 0.20627 0.50311 0.0
C412 C 0.22776 0.29081 0.53205 0.0
C413 C 0.32309 0.35836 0.50911 0.0
C414 C 0.28145 0.33066 0.5102 0.0
C415 C 0.16658 0.24508 0.51411 0.0
C416 C 0.20426 0.27624 0.51253 0.0
H417 H 0.41598 0.37684 0.47666 0.0
H418 H 0.34839 0.33092 0.47844 0.0
H419 H 0.28448 0.32653 0.5463 0.0
H420 H 0.07279 0.22554 0.54546 0.0
H421 H 0.12652 0.2819 0.53721 0.0
C422 C 0.39662 0.61701 0.51589 0.0
C423 C 0.4036 0.58722 0.4989 0.0
C424 C 0.35745 0.64295 0.51505 0.0
C425 C 0.26305 0.67993 0.47602 0.0
H426 H 0.20693 0.71742 0.53076 0.0
C427 C 0.09565 0.77668 0.47447 0.0
C428 C 0.10317 0.81667 0.48399 0.0
C429 C 0.12699 0.7444 0.47902 0.0
C430 C 0.22222 0.70692 0.51539 0.0
H431 H 0.3749 0.56059 0.46792 0.0
H432 H 0.30567 0.60444 0.46685 0.0
H433 H 0.27329 0.66951 0.53241 0.0
H434 H 0.14718 0.85286 0.50741 0.0
H435 H 0.20087 0.79593 0.51587 0.0
H436 H 0.21126 0.7168 0.45907 0.0
C437 C 0.33107 0.60906 0.48046 0.0
C438 C 0.26051 0.67986 0.51628 0.0
C439 C 0.37073 0.58375 0.48108 0.0
C440 C 0.14008 0.82247 0.49987 0.0
C441 C 0.17101 0.78993 0.50467 0.0
C442 C 0.22429 0.70622 0.47514 0.0
C443 C 0.32387 0.63907 0.49743 0.0
C444 C 0.28184 0.66643 0.49659 0.0
C445 C 0.16582 0.75126 0.49353 0.0
C446 C 0.20389 0.72028 0.4948 0.0
H447 H 0.42155 0.62038 0.5298 0.0
H448 H 0.3538 0.66624 0.52816 0.0
H449 H 0.27894 0.67117 0.46052 0.0
H450 H 0.06685 0.77085 0.46263 0.0
H451 H 0.12202 0.71457 0.47047 0.0
C452 C 0.05053 0.99275 0.14017 0.0
C453 C 0.01801 0.01619 0.12759 0.0
C454 C 0.05103 -0.0055 0.16342 0.0
C455 C 0.01139 0.05817 0.21134 0.0
H456 H 0.03262 0.95589 0.24348 0.0
C457 C 0.98652 0.04403 0.30634 0.0
C458 C 0.02042 0.02102 0.31834 0.0
C459 C 0.98673 0.04506 0.28307 0.0
C460 C 0.02712 0.9848 0.23475 0.0
H461 H 0.96093 0.06042 0.12972 0.0
H462 H 0.96096 0.06256 0.1703 0.0
H463 H 0.0315 0.95432 0.20294 0.0
H464 H 0.08227 0.98251 0.31528 0.0
H465 H 0.08229 0.984 0.27477 0.0
H466 H 0.00649 0.08846 0.2433 0.0
C467 C 0.98651 0.04322 0.16215 0.0
C468 C 0.02654 0.98393 0.2115 0.0
C469 C 0.98611 0.04157 0.13887 0.0
C470 C 0.05506 -0.00019 0.30655 0.0
C471 C 0.05513 0.00069 0.28333 0.0
C472 C 0.01174 0.05899 0.23463 0.0
C473 C 0.01888 0.01957 0.17472 0.0
C474 C 0.0189 0.02062 0.19949 0.0
C475 C 0.02072 0.02298 0.27131 0.0
C476 C 0.01984 0.02233 0.24658 0.0
H477 H 0.07526 0.97249 0.13206 0.0
H478 H 0.07687 0.9763 0.17254 0.0
H479 H 0.00602 0.08711 0.20263 0.0
H480 H 0.95903 0.06032 0.31486 0.0
H481 H 0.95951 0.0622 0.27425 0.0
C482 C 0.9808 0.95787 0.8679 0.0
C483 C 0.01415 0.98122 0.88061 0.0
C484 C 0.98146 0.95707 0.84463 0.0
C485 C 0.02605 0.01571 0.79733 0.0
H486 H 0.00216 0.91251 0.7641 0.0
C487 C 0.05731 8e-05 0.70335 0.0
C488 C 0.02265 0.97949 0.69007 0.0
C489 C 0.05624 -0.00067 0.72656 0.0
C490 C 0.00847 0.94164 0.77314 0.0
H491 H 0.07402 0.02243 0.87871 0.0
H492 H 0.0759 0.02015 0.83827 0.0
H493 H 0.00011 0.9132 0.80469 0.0
H494 H 0.95976 0.94177 0.69089 0.0
H495 H 0.95817 0.94019 0.73144 0.0
H496 H 0.0347 0.04408 0.76581 0.0
C497 C 0.04887 0.00283 0.84625 0.0
C498 C 0.00723 0.94207 0.7964 0.0
C499 C 0.04816 0.00369 0.86948 0.0
C500 C 0.98735 0.95749 0.7006 0.0
C501 C 0.98638 0.95663 0.72384 0.0
C502 C 0.02745 0.01524 0.77411 0.0
C503 C 0.01547 0.9796 0.83352 0.0
C504 C 0.01614 0.9791 0.80877 0.0
C505 C 0.0206 0.97785 0.73707 0.0
C506 C 0.01881 0.97819 0.76176 0.0
H507 H 0.95439 0.93988 0.87593 0.0
H508 H 0.95494 0.93918 0.83534 0.0
H509 H 0.03221 0.04494 0.80629 0.0
H510 H 0.0855 0.01665 0.69581 0.0
H511 H 0.08358 0.01537 0.7363 0.0
C512 C 0.55149 0.49551 0.63949 0.0
C513 C 0.51793 0.51822 0.62712 0.0
C514 C 0.55211 0.49667 0.66276 0.0
C515 C 0.51041 0.55777 0.71115 0.0
H516 H 0.5348 0.45514 0.74253 0.0
C517 C 0.48551 0.54092 0.80591 0.0
C518 C 0.51993 0.51842 0.81787 0.0
C519 C 0.48579 0.5423 0.78266 0.0
C520 C 0.52842 0.48416 0.73402 0.0
H521 H 0.45919 0.56057 0.62964 0.0
H522 H 0.45953 0.56172 0.67022 0.0
H523 H 0.53399 0.45474 0.70199 0.0
H524 H 0.58262 0.48105 0.81474 0.0
H525 H 0.58283 0.48321 0.77424 0.0
H526 H 0.50437 0.58701 0.74331 0.0
C527 C 0.48575 0.54339 0.66191 0.0
C528 C 0.52802 0.48395 0.71077 0.0
C529 C 0.48519 0.54232 0.63862 0.0
C530 C 0.55504 0.49797 0.80604 0.0
C531 C 0.55521 0.49923 0.78283 0.0
C532 C 0.51062 0.55792 0.73444 0.0
C533 C 0.51909 0.52043 0.67426 0.0
C534 C 0.51918 0.52077 0.69903 0.0
C535 C 0.52039 0.52112 0.77086 0.0
C536 C 0.51981 0.52114 0.74613 0.0
H537 H 0.5769 0.47623 0.63122 0.0
H538 H 0.57868 0.47902 0.67173 0.0
H539 H 0.50409 0.5868 0.70266 0.0
H540 H 0.45763 0.55659 0.81446 0.0
H541 H 0.45821 0.55909 0.77389 0.0
C542 C 0.47561 0.46022 0.36736 0.0
C543 C 0.50895 0.48337 0.38017 0.0
C544 C 0.47527 0.46093 0.34409 0.0
C545 C 0.51601 0.52362 0.29747 0.0
H546 H 0.49314 0.42208 0.26264 0.0
C547 C 0.54273 0.51379 0.20275 0.0
C548 C 0.5087 0.49216 0.18958 0.0
C549 C 0.54238 0.51254 0.22598 0.0
C550 C 0.4991 0.45078 0.27213 0.0
H551 H 0.56783 0.52576 0.37847 0.0
H552 H 0.56796 0.52616 0.33798 0.0
H553 H 0.49331 0.42005 0.30322 0.0
H554 H 0.44722 0.45267 0.1906 0.0
H555 H 0.44682 0.45031 0.23113 0.0
H556 H 0.52205 0.55429 0.26639 0.0
C557 C 0.5417 0.50781 0.3459 0.0
C558 C 0.49916 0.44963 0.29538 0.0
C559 C 0.54202 0.50713 0.36914 0.0
C560 C 0.47438 0.46916 0.20022 0.0
C561 C 0.47412 0.46782 0.22345 0.0
C562 C 0.51607 0.52474 0.27424 0.0
C563 C 0.50824 0.48484 0.33308 0.0
C564 C 0.50771 0.48603 0.30834 0.0
C565 C 0.50807 0.48955 0.2366 0.0
C566 C 0.50769 0.48833 0.2613 0.0
H567 H 0.44992 0.44128 0.37531 0.0
H568 H 0.44873 0.44318 0.33473 0.0
H569 H 0.5219 0.55238 0.30691 0.0
H570 H 0.57012 0.53124 0.19511 0.0
H571 H 0.56945 0.5291 0.23563 0.0
loop_
_geom_bond_atom_site_label_1
_geom_bond_atom_site_label_2
_geom_bond_distance
_geom_bond_site_symmetry_2
_ccdc_geom_bond_type
C0 O16 1.251 . S
C0 O18 1.254 1_554 S
N1 C2 1.333 1_445 S
N1 C6 1.307 . S
N1 Zn7 2.020 . S
C2 N1 1.333 1_665 S
C2 C3 1.379 . S
C2 H20 0.952 . S
C3 C2 1.379 . S
C3 C4 1.390 1_665 S
C3 H30 0.949 . S
C4 C3 1.390 1_445 S
C4 C5 1.357 . S
C5 C4 1.357 . S
C5 C6 1.370 . S
C5 H31 0.950 . S
C6 N1 1.307 . S
C6 C5 1.370 . S
C6 H24 0.948 . S
Zn7 N1 2.020 . S
Zn7 O16 2.039 1_445 S
Zn7 O22 2.034 1_455 S
Zn7 O26 2.025 . S
Zn7 O28 2.024 1_545 S
C8 O27 1.246 1_554 S
C8 O28 1.249 . S
N9 C10 1.307 1_445 S
N9 C11 1.333 . S
N9 Zn15 2.020 . S
C10 N9 1.307 1_665 S
C10 C14 1.370 . S
C10 H21 0.948 . S
C11 N9 1.333 . S
C11 C12 1.379 . S
C11 H19 0.952 . S
C12 C11 1.379 . S
C12 C13 1.390 . S
C12 H32 0.949 . S
C13 C12 1.390 . S
C13 C14 1.357 1_445 S
C14 C10 1.370 . S
C14 C13 1.357 1_665 S
C14 H33 0.950 . S
Zn15 N9 2.020 . S
Zn15 O18 2.025 1_445 S
Zn15 O23 2.024 1_455 S
Zn15 O25 2.039 . S
Zn15 O27 2.034 1_545 S
O16 C0 1.251 . S
O16 Zn7 2.039 1_665 S
C17 O22 1.246 . S
C17 O23 1.249 1_554 S
O18 C0 1.254 1_556 S
O18 Zn15 2.025 1_665 S
H19 C11 0.952 . S
H20 C2 0.952 . S
H21 C10 0.948 . S
O22 Zn7 2.034 1_655 S
O22 C17 1.246 . S
O23 Zn15 2.024 1_655 S
O23 C17 1.249 1_556 S
H24 C6 0.948 . S
O25 Zn15 2.039 . S
O25 C29 1.251 1_556 S
O26 Zn7 2.025 . S
O26 C29 1.254 . S
O27 C8 1.246 1_556 S
O27 Zn15 2.034 1_565 S
O28 Zn7 2.024 1_565 S
O28 C8 1.249 . S
C29 O25 1.251 1_554 S
C29 O26 1.254 . S
H30 C3 0.949 . S
H31 C5 0.950 . S
H32 C12 0.949 . S
H33 C14 0.950 . S
C34 O50 1.251 . S
C34 O52 1.254 . S
N35 C36 1.333 . S
N35 C40 1.307 . S
N35 Zn41 2.020 . S
C36 N35 1.333 . S
C36 C37 1.379 . S
C36 H54 0.952 . S
C37 C36 1.379 . S
C37 C38 1.390 . S
C37 H64 0.949 . S
C38 C37 1.390 . S
C38 C39 1.357 . S
C39 C38 1.357 . S
C39 C40 1.370 . S
C39 H65 0.950 . S
C40 N35 1.307 . S
C40 C39 1.370 . S
C40 H58 0.948 . S
Zn41 N35 2.020 . S
Zn41 O50 2.039 . S
Zn41 O56 2.034 . S
Zn41 O60 2.025 . S
Zn41 O62 2.024 . S
C42 O61 1.246 . S
C42 O62 1.249 . S
N43 C44 1.307 . S
N43 C45 1.333 . S
N43 Zn49 2.020 . S
C44 N43 1.307 . S
C44 C48 1.370 . S
C44 H55 0.948 . S
C45 N43 1.333 . S
C45 C46 1.379 . S
C45 H53 0.952 . S
C46 C45 1.379 . S
C46 C47 1.390 . S
C46 H66 0.949 . S
C47 C46 1.390 . S
C47 C48 1.357 . S
C48 C44 1.370 . S
C48 C47 1.357 . S
C48 H67 0.950 . S
Zn49 N43 2.020 . S
Zn49 O52 2.025 . S
Zn49 O57 2.024 . S
Zn49 O59 2.039 . S
Zn49 O61 2.034 . S
O50 C34 1.251 . S
O50 Zn41 2.039 . S
C51 O56 1.246 . S
C51 O57 1.249 . S
O52 C34 1.254 . S
O52 Zn49 2.025 . S
H53 C45 0.952 . S
H54 C36 0.952 . S
H55 C44 0.948 . S
O56 Zn41 2.034 . S
O56 C51 1.246 . S
O57 Zn49 2.024 . S
O57 C51 1.249 . S
H58 C40 0.948 . S
O59 Zn49 2.039 . S
O59 C63 1.251 . S
O60 Zn41 2.025 . S
O60 C63 1.254 . S
O61 C42 1.246 . S
O61 Zn49 2.034 . S
O62 Zn41 2.024 . S
O62 C42 1.249 . S
C63 O59 1.251 . S
C63 O60 1.254 . S
H64 C37 0.949 . S
H65 C39 0.950 . S
H66 C46 0.949 . S
H67 C48 0.950 . S
C68 C69 1.384 . S
C68 H81 0.947 . S
C68 C103 1.382 . S
C69 C68 1.384 . S
C69 C70 1.378 . S
C70 C69 1.378 . S
C70 C71 1.378 . S
C70 H82 0.952 . S
C71 C70 1.378 . S
C71 H83 0.950 . S
C71 C102 1.383 . S
H72 C91 0.947 . S
H73 C92 0.946 . S
H74 C94 0.953 . S
H75 C95 0.945 . S
H76 C97 0.952 . S
H77 C98 0.949 . S
H78 C100 0.950 . S
H79 C101 0.948 . S
H80 C103 0.951 . S
H81 C68 0.947 . S
H82 C70 0.952 . S
H83 C71 0.950 . S
N84 C87 1.382 1_545 S
N84 C89 1.363 1_455 S
N85 C87 1.371 . S
N85 C88 1.372 1_565 S
N86 C88 1.361 1_655 S
N86 C89 1.377 . S
C87 N84 1.382 1_565 S
C87 N85 1.371 . S
C87 C90 1.480 . S
C88 N85 1.372 1_545 S
C88 N86 1.361 1_455 S
C88 C96 1.457 . S
C89 N84 1.363 1_655 S
C89 N86 1.377 . S
C89 C102 1.479 . S
C90 C87 1.480 . S
C90 C91 1.383 . S
C90 C95 1.385 . S
C91 H72 0.947 . S
C91 C90 1.383 . S
C91 C92 1.388 . S
C92 H73 0.946 . S
C92 C91 1.388 . S
C92 C93 1.384 . S
C93 C92 1.384 . S
C93 C94 1.377 . S
C94 H74 0.953 . S
C94 C93 1.377 . S
C94 C95 1.369 . S
C95 H75 0.945 . S
C95 C90 1.385 . S
C95 C94 1.369 . S
C96 C88 1.457 . S
C96 C97 1.372 1_545 S
C96 C101 1.364 1_455 S
C97 H76 0.952 . S
C97 C96 1.372 1_565 S
C97 C98 1.389 . S
C98 H77 0.949 . S
C98 C97 1.389 . S
C98 C99 1.398 1_565 S
C99 C98 1.398 1_545 S
C99 C100 1.361 1_455 S
C100 H78 0.950 . S
C100 C99 1.361 1_655 S
C100 C101 1.379 . S
C101 H79 0.948 . S
C101 C96 1.364 1_655 S
C101 C100 1.379 . S
C102 C71 1.383 . S
C102 C89 1.479 . S
C102 C103 1.398 . S
C103 C68 1.382 . S
C103 H80 0.951 . S
C103 C102 1.398 . S
C104 C105 1.384 . S
C104 H117 0.947 . S
C104 C139 1.382 . S
C105 C104 1.384 . S
C105 C106 1.378 . S
C106 C105 1.378 . S
C106 C107 1.378 . S
C106 H118 0.952 . S
C107 C106 1.378 . S
C107 H119 0.950 . S
C107 C138 1.383 . S
H108 C127 0.947 . S
H109 C128 0.946 . S
H110 C130 0.953 . S
H111 C131 0.945 . S
H112 C133 0.952 . S
H113 C134 0.949 . S
H114 C136 0.950 1_655 S
H115 C137 0.948 1_655 S
H116 C139 0.951 . S
H117 C104 0.947 . S
H118 C106 0.952 . S
H119 C107 0.950 . S
N120 C123 1.397 . S
N120 C125 1.346 1_445 S
N121 C123 1.371 . S
N121 C124 1.372 . S
N122 C124 1.358 1_665 S
N122 C125 1.377 . S
C123 N120 1.397 . S
C123 N121 1.371 . S
C123 C126 1.480 . S
C124 N121 1.372 . S
C124 N122 1.358 1_445 S
C124 C132 1.457 . S
C125 N120 1.346 1_665 S
C125 N122 1.377 . S
C125 C138 1.481 . S
C126 C123 1.480 . S
C126 C127 1.383 . S
C126 C131 1.385 . S
C127 H108 0.947 . S
C127 C126 1.383 . S
C127 C128 1.388 . S
C128 H109 0.946 . S
C128 C127 1.388 . S
C128 C129 1.384 . S
C129 C128 1.384 . S
C129 C130 1.377 . S
C130 H110 0.953 . S
C130 C129 1.377 . S
C130 C131 1.369 . S
C131 H111 0.945 . S
C131 C126 1.385 . S
C131 C130 1.369 . S
C132 C124 1.457 . S
C132 C133 1.372 . S
C132 C137 1.364 1_545 S
C133 H112 0.952 . S
C133 C132 1.372 . S
C133 C134 1.389 . S
C134 H113 0.949 . S
C134 C133 1.389 . S
C134 C135 1.387 . S
C135 C134 1.387 . S
C135 C136 1.372 1_545 S
C136 H114 0.950 1_455 S
C136 C135 1.372 1_565 S
C136 C137 1.379 . S
C137 H115 0.948 1_455 S
C137 C132 1.364 1_565 S
C137 C136 1.379 . S
C138 C107 1.383 . S
C138 C125 1.481 . S
C138 C139 1.398 . S
C139 C104 1.382 . S
C139 H116 0.951 . S
C139 C138 1.398 . S
C140 C141 1.384 . S
C140 H153 0.947 . S
C140 C175 1.382 . S
C141 C140 1.384 . S
C141 C142 1.378 . S
C142 C141 1.378 . S
C142 C143 1.378 . S
C142 H154 0.952 1_556 S
C143 C142 1.378 . S
C143 H155 0.950 . S
C143 C174 1.383 . S
H144 C163 0.947 . S
H145 C164 0.946 1_554 S
H146 C166 0.953 . S
H147 C167 0.945 . S
H148 C169 0.952 . S
H149 C170 0.949 . S
H150 C172 0.950 . S
H151 C173 0.948 . S
H152 C175 0.951 . S
H153 C140 0.947 . S
H154 C142 0.952 1_554 S
H155 C143 0.950 . S
N156 C159 1.382 . S
N156 C161 1.363 . S
N157 C159 1.371 . S
N157 C160 1.372 . S
N158 C160 1.361 . S
N158 C161 1.377 . S
C159 N156 1.382 . S
C159 N157 1.371 . S
C159 C162 1.480 . S
C160 N157 1.372 . S
C160 N158 1.361 . S
C160 C168 1.457 . S
C161 N156 1.363 . S
C161 N158 1.377 . S
C161 C174 1.479 . S
C162 C159 1.480 . S
C162 C163 1.383 . S
C162 C167 1.385 . S
C163 H144 0.947 . S
C163 C162 1.383 . S
C163 C164 1.388 . S
C164 H145 0.946 1_556 S
C164 C163 1.388 . S
C164 C165 1.384 . S
C165 C164 1.384 . S
C165 C166 1.377 . S
C166 H146 0.953 . S
C166 C165 1.377 . S
C166 C167 1.369 . S
C167 H147 0.945 . S
C167 C162 1.385 . S
C167 C166 1.369 . S
C168 C160 1.457 . S
C168 C169 1.372 . S
C168 C173 1.364 . S
C169 H148 0.952 . S
C169 C168 1.372 . S
C169 C170 1.389 . S
C170 H149 0.949 . S
C170 C169 1.389 . S
C170 C171 1.387 . S
C171 C170 1.387 . S
C171 C172 1.372 . S
C172 H150 0.950 . S
C172 C171 1.372 . S
C172 C173 1.379 . S
C173 H151 0.948 . S
C173 C168 1.364 . S
C173 C172 1.379 . S
C174 C143 1.383 . S
C174 C161 1.479 . S
C174 C175 1.398 . S
C175 C140 1.382 . S
C175 H152 0.951 . S
C175 C174 1.398 . S
C176 C177 1.384 . S
C176 H189 0.947 . S
C176 C211 1.382 . S
C177 C176 1.384 . S
C177 C178 1.378 . S
C178 C177 1.378 . S
C178 C179 1.378 . S
C178 H190 0.952 1_554 S
C179 C178 1.378 . S
C179 H191 0.950 . S
C179 C210 1.383 . S
H180 C199 0.947 . S
H181 C200 0.946 . S
H182 C202 0.953 . S
H183 C203 0.945 . S
H184 C205 0.952 . S
H185 C206 0.949 . S
H186 C208 0.950 . S
H187 C209 0.948 . S
H188 C211 0.951 . S
H189 C176 0.947 . S
H190 C178 0.952 1_556 S
H191 C179 0.950 . S
N192 C195 1.382 . S
N192 C197 1.363 . S
N193 C195 1.371 . S
N193 C196 1.372 . S
N194 C196 1.361 . S
N194 C197 1.377 . S
C195 N192 1.382 . S
C195 N193 1.371 . S
C195 C198 1.480 . S
C196 N193 1.372 . S
C196 N194 1.361 . S
C196 C204 1.457 . S
C197 N192 1.363 . S
C197 N194 1.377 . S
C197 C210 1.479 . S
C198 C195 1.480 . S
C198 C199 1.383 . S
C198 C203 1.385 . S
C199 H180 0.947 . S
C199 C198 1.383 . S
C199 C200 1.388 . S
C200 H181 0.946 . S
C200 C199 1.388 . S
C200 C201 1.384 . S
C201 C200 1.384 . S
C201 C202 1.377 . S
C202 H182 0.953 . S
C202 C201 1.377 . S
C202 C203 1.369 . S
C203 H183 0.945 . S
C203 C198 1.385 . S
C203 C202 1.369 . S
C204 C196 1.457 . S
C204 C205 1.372 . S
C204 C209 1.364 . S
C205 H184 0.952 . S
C205 C204 1.372 . S
C205 C206 1.389 . S
C206 H185 0.949 . S
C206 C205 1.389 . S
C206 C207 1.387 . S
C207 C206 1.387 . S
C207 C208 1.372 . S
C208 H186 0.950 . S
C208 C207 1.372 . S
C208 C209 1.379 . S
C209 H187 0.948 . S
C209 C204 1.364 . S
C209 C208 1.379 . S
C210 C179 1.383 . S
C210 C197 1.479 . S
C210 C211 1.398 . S
C211 C176 1.382 . S
C211 H188 0.951 . S
C211 C210 1.398 . S
C212 C213 1.349 . S
C212 C214 1.327 . S
C212 H237 0.950 . S
C213 C212 1.349 . S
C213 C229 1.349 1_554 S
C214 C212 1.327 . S
C214 C233 1.429 . S
C214 H238 0.950 . S
C215 C232 1.574 . S
C215 C234 1.368 . S
C215 H239 0.949 1_554 S
H216 C220 0.949 . S
C217 C218 1.349 . S
C217 C219 1.327 . S
C217 H240 0.950 . S
C218 C217 1.349 . S
C218 C230 1.349 . S
C219 C217 1.327 . S
C219 C235 1.429 . S
C219 H241 0.950 . S
C220 H216 0.949 . S
C220 C228 1.574 . S
C220 C236 1.368 . S
H221 C229 0.950 . S
H222 C227 0.951 1_556 S
H223 C228 0.949 . S
H224 C230 0.950 . S
H225 C231 0.950 . S
H226 C232 0.949 . S
C227 H222 0.951 1_554 S
C227 C229 1.327 1_554 S
C227 C233 1.427 . S
C228 C220 1.574 . S
C228 H223 0.949 . S
C228 C234 1.368 . S
C229 C213 1.349 1_556 S
C229 H221 0.950 . S
C229 C227 1.327 1_556 S
C230 C218 1.349 . S
C230 H224 0.950 . S
C230 C231 1.327 . S
C231 H225 0.950 . S
C231 C230 1.327 . S
C231 C235 1.429 . S
C232 C215 1.574 . S
C232 H226 0.949 . S
C232 C236 1.368 . S
C233 C214 1.429 . S
C233 C227 1.427 . S
C233 C234 1.523 . S
C234 C215 1.368 . S
C234 C228 1.368 . S
C234 C233 1.523 . S
C235 C219 1.429 . S
C235 C231 1.429 . S
C235 C236 1.523 . S
C236 C220 1.368 . S
C236 C232 1.368 . S
C236 C235 1.523 . S
H237 C212 0.950 . S
H238 C214 0.950 . S
H239 C215 0.949 1_556 S
H240 C217 0.950 . S
H241 C219 0.950 . S
C242 C243 1.349 1_556 S
C242 C244 1.327 . S
C242 H267 0.950 . S
C243 C242 1.349 1_554 S
C243 C259 1.349 . S
C244 C242 1.327 . S
C244 C263 1.429 . S
C244 H268 0.950 . S
C245 C262 1.574 . S
C245 C264 1.368 1_554 S
C245 H269 0.949 . S
H246 C250 0.949 . S
C247 C248 1.349 1_554 S
C247 C249 1.327 . S
C247 H270 0.950 . S
C248 C247 1.349 1_556 S
C248 C260 1.349 . S
C249 C247 1.327 . S
C249 C265 1.429 1_554 S
C249 H271 0.950 . S
C250 H246 0.949 . S
C250 C258 1.574 . S
C250 C266 1.368 . S
H251 C259 0.950 . S
H252 C257 0.950 . S
H253 C258 0.949 . S
H254 C260 0.950 . S
H255 C261 0.950 . S
H256 C262 0.949 . S
C257 H252 0.950 . S
C257 C259 1.327 . S
C257 C263 1.429 1_554 S
C258 C250 1.574 . S
C258 H253 0.949 . S
C258 C264 1.368 . S
C259 C243 1.349 . S
C259 H251 0.950 . S
C259 C257 1.327 . S
C260 C248 1.349 . S
C260 H254 0.950 . S
C260 C261 1.327 . S
C261 H255 0.950 . S
C261 C260 1.327 . S
C261 C265 1.429 . S
C262 C245 1.574 . S
C262 H256 0.949 . S
C262 C266 1.368 1_554 S
C263 C244 1.429 . S
C263 C257 1.429 1_556 S
C263 C264 1.523 . S
C264 C245 1.368 1_556 S
C264 C258 1.368 . S
C264 C263 1.523 . S
C265 C249 1.429 1_556 S
C265 C261 1.429 . S
C265 C266 1.523 . S
C266 C250 1.368 . S
C266 C262 1.368 1_556 S
C266 C265 1.523 . S
H267 C242 0.950 . S
H268 C244 0.950 . S
H269 C245 0.949 . S
H270 C247 0.950 . S
H271 C249 0.950 . S
C272 C273 1.349 . S
C272 C274 1.327 . S
C272 H297 0.950 . S
C273 C272 1.349 . S
C273 C289 1.349 1_554 S
C274 C272 1.327 . S
C274 C293 1.429 . S
C274 H298 0.950 . S
C275 C292 1.574 . S
C275 C294 1.368 1_556 S
C275 H299 0.949 . S
H276 C280 0.949 . S
C277 C278 1.349 . S
C277 C279 1.327 . S
C277 H300 0.950 1_554 S
C278 C277 1.349 . S
C278 C290 1.349 . S
C279 C277 1.327 . S
C279 C295 1.429 . S
C279 H301 0.950 1_554 S
C280 H276 0.949 . S
C280 C288 1.574 . S
C280 C296 1.368 . S
H281 C289 0.950 . S
H282 C287 0.950 . S
H283 C288 0.949 . S
H284 C290 0.950 . S
H285 C291 0.950 . S
H286 C292 0.949 . S
C287 H282 0.950 . S
C287 C289 1.327 . S
C287 C293 1.429 1_556 S
C288 C280 1.574 . S
C288 H283 0.949 . S
C288 C294 1.368 . S
C289 C273 1.349 1_556 S
C289 H281 0.950 . S
C289 C287 1.327 . S
C290 C278 1.349 . S
C290 H284 0.950 . S
C290 C291 1.327 . S
C291 H285 0.950 . S
C291 C290 1.327 . S
C291 C295 1.429 . S
C292 C275 1.574 . S
C292 H286 0.949 . S
C292 C296 1.368 1_556 S
C293 C274 1.429 . S
C293 C287 1.429 1_554 S
C293 C294 1.523 . S
C294 C275 1.368 1_554 S
C294 C288 1.368 . S
C294 C293 1.523 . S
C295 C279 1.429 . S
C295 C291 1.429 . S
C295 C296 1.523 . S
C296 C280 1.368 . S
C296 C292 1.368 1_554 S
C296 C295 1.523 . S
H297 C272 0.950 . S
H298 C274 0.950 . S
H299 C275 0.949 . S
H300 C277 0.950 1_556 S
H301 C279 0.950 1_556 S
C302 C303 1.349 . S
C302 C304 1.327 . S
C302 H327 0.950 . S
C303 C302 1.349 . S
C303 C319 1.349 1_554 S
C304 C302 1.327 . S
C304 C323 1.402 1_554 S
C304 H328 0.950 . S
C305 C322 1.574 . S
C305 C324 1.368 . S
C305 H329 0.949 . S
H306 C310 0.949 . S
C307 C308 1.349 . S
C307 C309 1.327 . S
C307 H330 0.950 . S
C308 C307 1.349 . S
C308 C320 1.349 1_556 S
C309 C307 1.327 . S
C309 C325 1.429 . S
C309 H331 0.950 . S
C310 H306 0.949 . S
C310 C318 1.574 . S
C310 C326 1.368 1_554 S
H311 C319 0.950 . S
H312 C317 0.950 . S
H313 C318 0.949 . S
H314 C320 0.950 . S
H315 C321 0.950 . S
H316 C322 0.949 . S
C317 H312 0.950 . S
C317 C319 1.327 . S
C317 C323 1.453 . S
C318 C310 1.574 . S
C318 H313 0.949 . S
C318 C324 1.368 1_554 S
C319 C303 1.349 1_556 S
C319 H311 0.950 . S
C319 C317 1.327 . S
C320 C308 1.349 1_554 S
C320 H314 0.950 . S
C320 C321 1.327 . S
C321 H315 0.950 . S
C321 C320 1.327 . S
C321 C325 1.429 1_554 S
C322 C305 1.574 . S
C322 H316 0.949 . S
C322 C326 1.368 . S
C323 C304 1.402 1_556 S
C323 C317 1.453 . S
C323 C324 1.526 . S
C324 C305 1.368 . S
C324 C318 1.368 1_556 S
C324 C323 1.526 . S
C325 C309 1.429 . S
C325 C321 1.429 1_556 S
C325 C326 1.523 . S
C326 C310 1.368 1_556 S
C326 C322 1.368 . S
C326 C325 1.523 . S
H327 C302 0.950 . S
H328 C304 0.950 . S
H329 C305 0.949 . S
H330 C307 0.950 . S
H331 C309 0.950 . S
C332 C333 1.349 . S
C332 C334 1.327 . S
C332 H357 0.950 . S
C333 C332 1.349 . S
C333 C349 1.349 . S
C334 C332 1.327 . S
C334 C353 1.429 . S
C334 H358 0.950 . S
C335 C352 1.574 . S
C335 C354 1.368 . S
C335 H359 0.949 . S
H336 C340 0.949 . S
C337 C338 1.349 . S
C337 C339 1.327 . S
C337 H360 0.950 . S
C338 C337 1.349 . S
C338 C350 1.349 . S
C339 C337 1.327 . S
C339 C355 1.429 . S
C339 H361 0.950 . S
C340 H336 0.949 . S
C340 C348 1.574 . S
C340 C356 1.368 . S
H341 C349 0.950 . S
H342 C347 0.950 . S
H343 C348 0.949 . S
H344 C350 0.950 . S
H345 C351 0.950 . S
H346 C352 0.949 . S
C347 H342 0.950 . S
C347 C349 1.327 . S
C347 C353 1.429 . S
C348 C340 1.574 . S
C348 H343 0.949 . S
C348 C354 1.368 . S
C349 C333 1.349 . S
C349 H341 0.950 . S
C349 C347 1.327 . S
C350 C338 1.349 . S
C350 H344 0.950 . S
C350 C351 1.327 . S
C351 H345 0.950 . S
C351 C350 1.327 . S
C351 C355 1.429 . S
C352 C335 1.574 . S
C352 H346 0.949 . S
C352 C356 1.368 . S
C353 C334 1.429 . S
C353 C347 1.429 . S
C353 C354 1.523 . S
C354 C335 1.368 . S
C354 C348 1.368 . S
C354 C353 1.523 . S
C355 C339 1.429 . S
C355 C351 1.429 . S
C355 C356 1.523 . S
C356 C340 1.368 . S
C356 C352 1.368 . S
C356 C355 1.523 . S
H357 C332 0.950 . S
H358 C334 0.950 . S
H359 C335 0.949 . S
H360 C337 0.950 . S
H361 C339 0.950 . S
C362 C363 1.349 . S
C362 C364 1.327 . S
C362 H387 0.950 . S
C363 C362 1.349 . S
C363 C379 1.349 . S
C364 C362 1.327 . S
C364 C383 1.429 . S
C364 H388 0.950 . S
C365 C382 1.574 . S
C365 C384 1.368 . S
C365 H389 0.949 . S
H366 C370 0.949 . S
C367 C368 1.349 . S
C367 C369 1.327 . S
C367 H390 0.950 . S
C368 C367 1.349 . S
C368 C380 1.349 . S
C369 C367 1.327 . S
C369 C385 1.429 . S
C369 H391 0.950 . S
C370 H366 0.949 . S
C370 C378 1.574 . S
C370 C386 1.368 . S
H371 C379 0.950 . S
H372 C377 0.950 . S
H373 C378 0.949 . S
H374 C380 0.950 . S
H375 C381 0.950 . S
H376 C382 0.949 . S
C377 H372 0.950 . S
C377 C379 1.327 . S
C377 C383 1.429 . S
C378 C370 1.574 . S
C378 H373 0.949 . S
C378 C384 1.368 . S
C379 C363 1.349 . S
C379 H371 0.950 . S
C379 C377 1.327 . S
C380 C368 1.349 . S
C380 H374 0.950 . S
C380 C381 1.327 . S
C381 H375 0.950 . S
C381 C380 1.327 . S
C381 C385 1.429 . S
C382 C365 1.574 . S
C382 H376 0.949 . S
C382 C386 1.368 . S
C383 C364 1.429 . S
C383 C377 1.429 . S
C383 C384 1.523 . S
C384 C365 1.368 . S
C384 C378 1.368 . S
C384 C383 1.523 . S
C385 C369 1.429 . S
C385 C381 1.429 . S
C385 C386 1.523 . S
C386 C370 1.368 . S
C386 C382 1.368 . S
C386 C385 1.523 . S
H387 C362 0.950 . S
H388 C364 0.950 . S
H389 C365 0.949 . S
H390 C367 0.950 . S
H391 C369 0.950 . S
C392 C393 1.349 . S
C392 C394 1.327 . S
C392 H417 0.950 . S
C393 C392 1.349 . S
C393 C409 1.349 . S
C394 C392 1.327 . S
C394 C413 1.429 . S
C394 H418 0.950 . S
C395 C412 1.574 . S
C395 C414 1.368 . S
C395 H419 0.949 . S
H396 C400 0.949 . S
C397 C398 1.349 . S
C397 C399 1.327 . S
C397 H420 0.950 . S
C398 C397 1.349 . S
C398 C410 1.349 . S
C399 C397 1.327 . S
C399 C415 1.429 . S
C399 H421 0.950 . S
C400 H396 0.949 . S
C400 C408 1.574 . S
C400 C416 1.368 . S
H401 C409 0.950 . S
H402 C407 0.950 . S
H403 C408 0.949 . S
H404 C410 0.950 . S
H405 C411 0.950 . S
H406 C412 0.949 . S
C407 H402 0.950 . S
C407 C409 1.327 . S
C407 C413 1.429 . S
C408 C400 1.574 . S
C408 H403 0.949 . S
C408 C414 1.368 . S
C409 C393 1.349 . S
C409 H401 0.950 . S
C409 C407 1.327 . S
C410 C398 1.349 . S
C410 H404 0.950 . S
C410 C411 1.327 . S
C411 H405 0.950 . S
C411 C410 1.327 . S
C411 C415 1.429 . S
C412 C395 1.574 . S
C412 H406 0.949 . S
C412 C416 1.368 . S
C413 C394 1.429 . S
C413 C407 1.429 . S
C413 C414 1.523 . S
C414 C395 1.368 . S
C414 C408 1.368 . S
C414 C413 1.523 . S
C415 C399 1.429 . S
C415 C411 1.429 . S
C415 C416 1.523 . S
C416 C400 1.368 . S
C416 C412 1.368 . S
C416 C415 1.523 . S
H417 C392 0.950 . S
H418 C394 0.950 . S
H419 C395 0.949 . S
H420 C397 0.950 . S
H421 C399 0.950 . S
C422 C423 1.349 . S
C422 C424 1.327 . S
C422 H447 0.950 . S
C423 C422 1.349 . S
C423 C439 1.349 . S
C424 C422 1.327 . S
C424 C443 1.429 . S
C424 H448 0.950 . S
C425 C442 1.574 . S
C425 C444 1.368 . S
C425 H449 0.949 . S
H426 C430 0.949 . S
C427 C428 1.349 . S
C427 C429 1.327 . S
C427 H450 0.950 . S
C428 C427 1.349 . S
C428 C440 1.349 . S
C429 C427 1.327 . S
C429 C445 1.429 . S
C429 H451 0.950 . S
C430 H426 0.949 . S
C430 C438 1.574 . S
C430 C446 1.368 . S
H431 C439 0.950 . S
H432 C437 0.950 . S
H433 C438 0.949 . S
H434 C440 0.950 . S
H435 C441 0.950 . S
H436 C442 0.949 . S
C437 H432 0.950 . S
C437 C439 1.327 . S
C437 C443 1.429 . S
C438 C430 1.574 . S
C438 H433 0.949 . S
C438 C444 1.368 . S
C439 C423 1.349 . S
C439 H431 0.950 . S
C439 C437 1.327 . S
C440 C428 1.349 . S
C440 H434 0.950 . S
C440 C441 1.327 . S
C441 H435 0.950 . S
C441 C440 1.327 . S
C441 C445 1.429 . S
C442 C425 1.574 . S
C442 H436 0.949 . S
C442 C446 1.368 . S
C443 C424 1.429 . S
C443 C437 1.429 . S
C443 C444 1.523 . S
C444 C425 1.368 . S
C444 C438 1.368 . S
C444 C443 1.523 . S
C445 C429 1.429 . S
C445 C441 1.429 . S
C445 C446 1.523 . S
C446 C430 1.368 . S
C446 C442 1.368 . S
C446 C445 1.523 . S
H447 C422 0.950 . S
H448 C424 0.950 . S
H449 C425 0.949 . S
H450 C427 0.950 . S
H451 C429 0.950 . S
C452 C453 1.349 1_565 S
C452 C454 1.327 . S
C452 H477 0.950 . S
C453 C452 1.349 1_545 S
C453 C469 1.349 1_455 S
C454 C452 1.327 . S
C454 C473 1.429 1_565 S
C454 H478 0.950 . S
C455 C472 1.574 . S
C455 C474 1.368 1_655 S
C455 H479 0.949 . S
H456 C460 0.949 . S
C457 C458 1.356 . S
C457 C459 1.327 . S
C457 H480 0.950 . S
C458 C457 1.356 . S
C458 C470 1.341 1_645 S
C459 C457 1.327 . S
C459 C475 1.429 1_655 S
C459 H481 0.950 . S
C460 H456 0.949 . S
C460 C468 1.574 . S
C460 C476 1.368 1_565 S
H461 C469 0.950 . S
H462 C467 0.950 . S
H463 C468 0.949 . S
H464 C470 0.950 . S
H465 C471 0.950 . S
H466 C472 0.949 . S
C467 H462 0.950 . S
C467 C469 1.327 . S
C467 C473 1.429 1_655 S
C468 C460 1.574 . S
C468 H463 0.949 . S
C468 C474 1.368 1_565 S
C469 C453 1.349 1_655 S
C469 H461 0.950 . S
C469 C467 1.327 . S
C470 C458 1.341 1_465 S
C470 H464 0.950 . S
C470 C471 1.327 . S
C471 H465 0.950 . S
C471 C470 1.327 . S
C471 C475 1.429 1_565 S
C472 C455 1.574 . S
C472 H466 0.949 . S
C472 C476 1.368 1_655 S
C473 C454 1.429 1_545 S
C473 C467 1.429 1_455 S
C473 C474 1.523 . S
C474 C455 1.368 1_455 S
C474 C468 1.368 1_545 S
C474 C473 1.523 . S
C475 C459 1.429 1_455 S
C475 C471 1.429 1_545 S
C475 C476 1.523 . S
C476 C460 1.368 1_545 S
C476 C472 1.368 1_455 S
C476 C475 1.523 . S
H477 C452 0.950 . S
H478 C454 0.950 . S
H479 C455 0.949 . S
H480 C457 0.950 . S
H481 C459 0.950 . S
C482 C483 1.349 1_665 S
C482 C484 1.327 . S
C482 H507 0.950 . S
C483 C482 1.349 1_445 S
C483 C499 1.349 . S
C484 C482 1.327 . S
C484 C503 1.429 1_665 S
C484 H508 0.950 . S
C485 C502 1.574 . S
C485 C504 1.368 . S
C485 H509 0.949 . S
H486 C490 0.949 . S
C487 C488 1.349 . S
C487 C489 1.327 . S
C487 H510 0.950 . S
C488 C487 1.349 . S
C488 C500 1.349 1_445 S
C489 C487 1.327 . S
C489 C505 1.429 . S
C489 H511 0.950 . S
C490 H486 0.949 . S
C490 C498 1.574 . S
C490 C506 1.368 1_665 S
H491 C499 0.950 . S
H492 C497 0.950 . S
H493 C498 0.949 . S
H494 C500 0.950 . S
H495 C501 0.950 . S
H496 C502 0.949 . S
C497 H492 0.950 . S
C497 C499 1.327 . S
C497 C503 1.429 . S
C498 C490 1.574 . S
C498 H493 0.949 . S
C498 C504 1.368 1_665 S
C499 C483 1.349 . S
C499 H491 0.950 . S
C499 C497 1.327 . S
C500 C488 1.349 1_665 S
C500 H494 0.950 . S
C500 C501 1.327 . S
C501 H495 0.950 . S
C501 C500 1.327 . S
C501 C505 1.429 1_665 S
C502 C485 1.574 . S
C502 H496 0.949 . S
C502 C506 1.368 . S
C503 C484 1.429 1_445 S
C503 C497 1.429 . S
C503 C504 1.523 . S
C504 C485 1.368 . S
C504 C498 1.368 1_445 S
C504 C503 1.523 . S
C505 C489 1.429 . S
C505 C501 1.429 1_445 S
C505 C506 1.523 . S
C506 C490 1.368 1_445 S
C506 C502 1.368 . S
C506 C505 1.523 . S
H507 C482 0.950 . S
H508 C484 0.950 . S
H509 C485 0.949 . S
H510 C487 0.950 . S
H511 C489 0.950 . S
C512 C513 1.349 . S
C512 C514 1.327 . S
C512 H537 0.950 . S
C513 C512 1.349 . S
C513 C529 1.349 . S
C514 C512 1.327 . S
C514 C533 1.429 . S
C514 H538 0.950 . S
C515 C532 1.574 . S
C515 C534 1.368 . S
C515 H539 0.949 . S
H516 C520 0.949 . S
C517 C518 1.349 . S
C517 C519 1.327 . S
C517 H540 0.950 . S
C518 C517 1.349 . S
C518 C530 1.349 . S
C519 C517 1.327 . S
C519 C535 1.429 . S
C519 H541 0.950 . S
C520 H516 0.949 . S
C520 C528 1.574 . S
C520 C536 1.368 . S
H521 C529 0.950 . S
H522 C527 0.950 . S
H523 C528 0.949 . S
H524 C530 0.950 . S
H525 C531 0.950 . S
H526 C532 0.949 . S
C527 H522 0.950 . S
C527 C529 1.327 . S
C527 C533 1.429 . S
C528 C520 1.574 . S
C528 H523 0.949 . S
C528 C534 1.368 . S
C529 C513 1.349 . S
C529 H521 0.950 . S
C529 C527 1.327 . S
C530 C518 1.349 . S
C530 H524 0.950 . S
C530 C531 1.327 . S
C531 H525 0.950 . S
C531 C530 1.327 . S
C531 C535 1.429 . S
C532 C515 1.574 . S
C532 H526 0.949 . S
C532 C536 1.368 . S
C533 C514 1.429 . S
C533 C527 1.429 . S
C533 C534 1.523 . S
C534 C515 1.368 . S
C534 C528 1.368 . S
C534 C533 1.523 . S
C535 C519 1.429 . S
C535 C531 1.429 . S
C535 C536 1.523 . S
C536 C520 1.368 . S
C536 C532 1.368 . S
C536 C535 1.523 . S
H537 C512 0.950 . S
H538 C514 0.950 . S
H539 C515 0.949 . S
H540 C517 0.950 . S
H541 C519 0.950 . S
C542 C543 1.349 . S
C542 C544 1.327 . S
C542 H567 0.950 . S
C543 C542 1.349 . S
C543 C559 1.349 . S
C544 C542 1.327 . S
C544 C563 1.429 . S
C544 H568 0.950 . S
C545 C562 1.574 . S
C545 C564 1.368 . S
C545 H569 0.949 . S
H546 C550 0.949 . S
C547 C548 1.349 . S
C547 C549 1.327 . S
C547 H570 0.950 . S
C548 C547 1.349 . S
C548 C560 1.349 . S
C549 C547 1.327 . S
C549 C565 1.429 . S
C549 H571 0.950 . S
C550 H546 0.949 . S
C550 C558 1.574 . S
C550 C566 1.368 . S
H551 C559 0.950 . S
H552 C557 0.950 . S
H553 C558 0.949 . S
H554 C560 0.950 . S
H555 C561 0.950 . S
H556 C562 0.949 . S
C557 H552 0.950 . S
C557 C559 1.327 . S
C557 C563 1.429 . S
C558 C550 1.574 . S
C558 H553 0.949 . S
C558 C564 1.368 . S
C559 C543 1.349 . S
C559 H551 0.950 . S
C559 C557 1.327 . S
C560 C548 1.349 . S
C560 H554 0.950 . S
C560 C561 1.327 . S
C561 H555 0.950 . S
C561 C560 1.327 . S
C561 C565 1.429 . S
C562 C545 1.574 . S
C562 H556 0.949 . S
C562 C566 1.368 . S
C563 C544 1.429 . S
C563 C557 1.429 . S
C563 C564 1.523 . S
C564 C545 1.368 . S
C564 C558 1.368 . S
C564 C563 1.523 . S
C565 C549 1.429 . S
C565 C561 1.429 . S
C565 C566 1.523 . S
C566 C550 1.368 . S
C566 C562 1.368 . S
C566 C565 1.523 . S
H567 C542 0.950 . S
H568 C544 0.950 . S
H569 C545 0.949 . S
H570 C547 0.950 . S
H571 C549 0.950 . S
C218 C177 1.383 . S
C213 C29 1.410 . S
C243 C8 1.399 . S
C248 C141 1.374 . S
C273 C0 1.392 . S
C278 C201 1.348 . S
C303 C17 1.402 . S
C308 C165 1.356 . S
C333 C63 1.409 . S
C338 C105 1.383 . S
C363 C42 1.399 . S
C368 C69 1.374 . S
C398 C129 1.348 . S
C393 C34 1.392 . S
C428 C93 1.356 . S
C423 C51 1.403 . S
C453 C4 1.480 . S
C458 C99 1.478 1_655 S
C483 C13 1.479 . S
C488 C135 1.477 . S
C518 C171 1.477 . S
C513 C38 1.480 . S
C543 C47 1.479 . S
C548 C207 1.477 . S
