# Generated by pormake.
# Topology anh, (6,3)-cn, num edge types: 1
# Building blocks:
#     Node 0, Type 0, BuildingBlock: PAMTUU_clean_sbu_0, # of connection points: 6
#     Node 1, Type 0, BuildingBlock: PAMTUU_clean_sbu_0, # of connection points: 6
#     Node 2, Type 0, BuildingBlock: PAMTUU_clean_sbu_0, # of connection points: 6
#     Node 3, Type 1, BuildingBlock: BELTOD_clean_linker_0, # of connection points: 3
#     Node 4, Type 1, BuildingBlock: BELTOD_clean_linker_0, # of connection points: 3
#     Node 5, Type 1, BuildingBlock: BELTOD_clean_linker_0, # of connection points: 3
#     Node 6, Type 1, BuildingBlock: BELTOD_clean_linker_0, # of connection points: 3
#     Node 7, Type 1, BuildingBlock: BELTOD_clean_linker_0, # of connection points: 3
#     Node 8, Type 1, BuildingBlock: BELTOD_clean_linker_0, # of connection points: 3
#     Edge 9, Type (0, 1), BuildingBlock: OJICUG_clean_linker_0, # of connection points: 2
#     Edge 10, Type (0, 1), BuildingBlock: OJICUG_clean_linker_0, # of connection points: 2
#     Edge 11, Type (0, 1), BuildingBlock: OJICUG_clean_linker_0, # of connection points: 2
#     Edge 12, Type (0, 1), BuildingBlock: OJICUG_clean_linker_0, # of connection points: 2
#     Edge 13, Type (0, 1), BuildingBlock: OJICUG_clean_linker_0, # of connection points: 2
#     Edge 14, Type (0, 1), BuildingBlock: OJICUG_clean_linker_0, # of connection points: 2
#     Edge 15, Type (0, 1), BuildingBlock: OJICUG_clean_linker_0, # of connection points: 2
#     Edge 16, Type (0, 1), BuildingBlock: OJICUG_clean_linker_0, # of connection points: 2
#     Edge 17, Type (0, 1), BuildingBlock: OJICUG_clean_linker_0, # of connection points: 2
#     Edge 18, Type (0, 1), BuildingBlock: OJICUG_clean_linker_0, # of connection points: 2
#     Edge 19, Type (0, 1), BuildingBlock: OJICUG_clean_linker_0, # of connection points: 2
#     Edge 20, Type (0, 1), BuildingBlock: OJICUG_clean_linker_0, # of connection points: 2
#     Edge 21, Type (0, 1), BuildingBlock: OJICUG_clean_linker_0, # of connection points: 2
#     Edge 22, Type (0, 1), BuildingBlock: OJICUG_clean_linker_0, # of connection points: 2
#     Edge 23, Type (0, 1), BuildingBlock: OJICUG_clean_linker_0, # of connection points: 2
#     Edge 24, Type (0, 1), BuildingBlock: OJICUG_clean_linker_0, # of connection points: 2
#     Edge 25, Type (0, 1), BuildingBlock: OJICUG_clean_linker_0, # of connection points: 2
#     Edge 26, Type (0, 1), BuildingBlock: OJICUG_clean_linker_0, # of connection points: 2
# Relax obj value: 0.331
# Max RMSD: 0.196
# Mean RMSD: 0.159
data_MOF--net-anh--node1-PAMTUU_clean_sbu_0--node2-BELTOD_clean_linker_0--edge1-OJICUG_clean_linker_0
_symmetry_space_group_name_H-M    P1
_symmetry_Int_Tables_number       1
_symmetry_cell_setting            triclinic
loop_
_symmetry_equiv_pos_as_xyz
'x, y, z'
_cell_length_a     26.644142
_cell_length_b     26.598011
_cell_length_c     46.586364
_cell_angle_alpha  91.934433
_cell_angle_beta   92.13618
_cell_angle_gamma 119.84834
loop_
_atom_site_label
_atom_site_type_symbol
_atom_site_fract_x
_atom_site_fract_y
_atom_site_fract_z
_atom_type_partial_charge
Tb0 Tb 1.06529 0.63884 0.17699 0.0
Tb1 Tb 0.12725 0.56268 0.17455 0.0
C2 C 1.09072 0.59618 0.11744 0.0
C3 C 0.94431 0.65617 0.16237 0.0
C4 C 0.84243 0.56275 0.13559 0.0
C5 C 0.88566 0.60313 0.11892 0.0
C6 C 0.9359 0.64971 0.13218 0.0
C7 C 0.89761 0.6206 0.17883 0.0
C8 C 0.84723 0.57405 0.16555 0.0
C9 C 1.00404 0.68566 0.17587 0.0
O10 O 0.99488 0.55029 0.18637 0.0
O11 O 1.03359 0.4962 0.16951 0.0
O12 O 1.09362 0.56128 0.2161 0.0
O13 O 0.11348 0.65365 0.21825 0.0
O14 O 0.13055 0.49033 0.15862 0.0
O15 O 0.18726 0.54373 0.19518 0.0
O16 O 0.2022 0.65389 0.18138 0.0
O17 O 0.15694 0.70772 0.17487 0.0
O18 O 1.05365 0.60401 0.13217 0.0
O19 O 0.13108 0.58954 0.13078 0.0
C20 C 0.98889 0.49893 0.17915 0.0
O21 O 1.01112 0.6618 0.19858 0.0
O22 O 1.04521 0.69797 0.15829 0.0
C23 C 0.11093 0.60971 0.23116 0.0
C24 C 0.21544 0.48554 0.16794 0.0
C25 C 0.27964 0.43658 0.14645 0.0
C26 C 0.26429 0.43034 0.17517 0.0
C27 C 0.23244 0.45467 0.1858 0.0
C28 C 0.23367 0.4951 0.13981 0.0
C29 C 0.2657 0.47083 0.12914 0.0
C30 C 0.17119 0.49819 0.17774 0.0
C31 C 0.20499 0.70511 0.1794 0.0
H32 H 0.88323 0.59611 0.09576 0.0
H33 H 0.97051 0.6768 0.11874 0.0
H34 H 0.90224 0.62502 0.20213 0.0
H35 H 0.81368 0.54479 0.1789 0.0
H36 H 0.27398 0.40392 0.18898 0.0
H37 H 0.21819 0.44649 0.2075 0.0
H38 H 0.22081 0.51885 0.12571 0.0
H39 H 0.278 0.47733 0.10709 0.0
Tb40 Tb 0.6036 0.14095 0.51875 0.0
Tb41 Tb 0.73777 0.20274 0.50555 0.0
C42 C 0.64286 0.15129 0.45547 0.0
C43 C 0.46309 1.03277 0.54299 0.0
C44 C 0.41323 0.91293 0.5487 0.0
C45 C 0.3841 0.93479 0.53193 0.0
C46 C 0.40899 0.99441 0.52911 0.0
C47 C 0.48755 1.01189 0.56323 0.0
C48 C 0.46213 0.95229 0.56645 0.0
C49 C 0.49887 0.0895 0.5311 0.0
O50 O 0.61815 1.06574 0.51397 0.0
O51 O 0.71735 0.11525 0.51854 0.0
O52 O 0.7356 0.22914 0.5493 0.0
O53 O 0.65419 0.14566 0.55811 0.0
O54 O 0.80703 0.25376 0.47989 0.0
O55 O 0.81733 0.20867 0.51581 0.0
O56 O 0.7202 0.27688 0.50535 0.0
O57 O 0.6302 0.23394 0.52399 0.0
O58 O 0.6076 0.15736 0.47244 0.0
O59 O 0.68925 0.15288 0.46667 0.0
C60 C 0.66767 1.06569 0.51765 0.0
O61 O 0.54095 0.12956 0.548 0.0
O62 O 0.51603 0.0864 0.50559 0.0
C63 C 0.70365 0.19137 0.56732 0.0
C64 C 0.90429 0.28203 0.49806 0.0
C65 C 1.0244 0.34312 0.49244 0.0
C66 C 0.99924 0.29203 0.50716 0.0
C67 C 0.9397 0.26189 0.51006 0.0
C68 C 0.92989 0.33521 0.48493 0.0
C69 C 0.98984 0.36589 0.48237 0.0
C70 C 0.84171 0.24106 0.49452 0.0
C71 C 0.67629 0.28075 0.51581 0.0
H72 H 0.3462 0.9061 0.51803 0.0
H73 H 0.38932 1.00981 0.51353 0.0
H74 H 0.52917 1.04077 0.57443 0.0
H75 H 0.48464 0.9369 0.58022 0.0
H76 H 1.02526 0.27397 0.51516 0.0
H77 H 0.92089 0.22058 0.51998 0.0
H78 H 0.90348 0.35131 0.47521 0.0
H79 H 1.00859 0.40522 0.47077 0.0
Tb80 Tb 0.53152 0.52215 0.82344 0.0
Tb81 Tb 0.60037 0.65394 0.84824 0.0
C82 C 0.58327 0.61972 0.78232 0.0
C83 C 0.51834 0.38589 0.80494 0.0
C84 C 0.61631 0.37278 0.8032 0.0
C85 C 0.59791 0.38166 0.82974 0.0
C86 C 0.54931 0.38838 0.83062 0.0
C87 C 0.53198 0.36866 0.77896 0.0
C88 C 0.581 0.36261 0.77806 0.0
C89 C 0.48807 0.4194 0.80372 0.0
O90 O 0.62483 0.54393 0.82498 0.0
O91 O 0.66674 0.62791 0.8539 0.0
O92 O 0.5587 0.60253 0.88463 0.0
O93 O 0.55948 0.52183 0.86725 0.0
O94 O 0.6297 0.74038 0.83972 0.0
O95 O 0.65375 0.71821 0.88052 0.0
O96 O 0.50967 0.63656 0.84233 0.0
O97 O 0.46038 0.53673 0.83751 0.0
O98 O 0.5344 0.57498 0.78841 0.0
O99 O 0.62191 0.64985 0.80342 0.0
C100 C 0.67035 0.58508 0.84086 0.0
O101 O 0.47434 0.43322 0.82822 0.0
O102 O 0.513 0.46399 0.78791 0.0
C103 C 0.55594 0.55269 0.88854 0.0
C104 C 0.66401 0.81248 0.87815 0.0
C105 C 0.69252 0.92912 0.88563 0.0
C106 C 0.73304 0.91204 0.89376 0.0
C107 C 0.71869 0.85417 0.89014 0.0
C108 C 0.62089 0.82745 0.87374 0.0
C109 C 0.63488 0.88545 0.87792 0.0
C110 C 0.65898 0.75963 0.86454 0.0
C111 C 0.46022 0.58632 0.84164 0.0
H112 H 0.62421 0.38925 0.84946 0.0
H113 H 0.54007 0.40175 0.85104 0.0
H114 H 0.50887 0.3666 0.75891 0.0
H115 H 0.5937 0.35428 0.75741 0.0
H116 H 0.77781 0.94362 0.89983 0.0
H117 H 0.75244 0.84319 0.89378 0.0
H118 H 0.57804 0.79549 0.86481 0.0
H119 H 0.60184 0.89657 0.87259 0.0
P120 P 0.61596 0.09765 0.22964 0.0
H121 H 0.57966 0.98248 0.19979 0.0
H122 H 0.48759 0.89486 0.18763 0.0
H123 H 0.3974 0.98455 0.21309 0.0
H124 H 0.49097 1.07348 0.22467 0.0
H125 H 0.69919 0.12902 0.18308 0.0
H126 H 0.78163 0.21986 0.17001 0.0
H127 H 0.73258 0.31485 0.22861 0.0
H128 H 0.64874 0.22365 0.24041 0.0
H129 H 0.52267 1.04858 0.27218 0.0
H130 H 0.70405 0.17753 0.27319 0.0
O131 O 0.65696 1.06647 0.23133 0.0
H132 H 0.52528 1.06288 0.32441 0.0
H133 H 0.70651 0.19243 0.32509 0.0
C134 C 0.54437 1.03656 0.21356 0.0
C135 C 0.54051 0.98443 0.2025 0.0
C136 C 0.48658 0.93287 0.1958 0.0
C137 C 0.43274 0.92994 0.19974 0.0
C138 C 0.43656 0.98317 0.20947 0.0
C139 C 0.49093 1.03512 0.2161 0.0
C140 C 0.66582 0.16754 0.21283 0.0
C141 C 0.70478 0.16934 0.19257 0.0
C142 C 0.75366 0.22242 0.1855 0.0
C143 C 0.76696 0.27713 0.19849 0.0
C144 C 0.72581 0.27528 0.21765 0.0
C145 C 0.67658 0.22208 0.2245 0.0
C146 C 0.61269 0.11355 0.26796 0.0
C147 C 0.56265 0.08144 0.28318 0.0
C148 C 0.56417 0.08946 0.31338 0.0
C149 C 0.6161 0.1288 0.32924 0.0
C150 C 0.66571 0.16138 0.31385 0.0
C151 C 0.66411 0.15347 0.28385 0.0
P152 P 0.6969 0.6894 0.5673 0.0
H153 H 0.78263 0.65125 0.55672 0.0
H154 H 0.77726 0.55975 0.54395 0.0
H155 H 0.59181 0.47901 0.52891 0.0
H156 H 0.59761 0.57226 0.54238 0.0
H157 H 0.75319 0.77952 0.52465 0.0
H158 H 0.74603 0.86458 0.51242 0.0
H159 H 0.59606 0.80578 0.56259 0.0
H160 H 0.60319 0.72045 0.57431 0.0
H161 H 0.62131 0.5828 0.59841 0.0
H162 H 0.71352 0.76823 0.61655 0.0
O163 O 0.76822 0.7318 0.57446 0.0
H164 H 0.59423 0.56847 0.64809 0.0
H165 H 0.68562 0.75425 0.66629 0.0
C166 C 0.69067 0.62097 0.55043 0.0
C167 C 0.74043 0.61474 0.55014 0.0
C168 C 0.73733 0.5611 0.54266 0.0
C169 C 0.68408 0.50984 0.53518 0.0
C170 C 0.63405 0.51621 0.53475 0.0
C171 C 0.6373 0.57047 0.54211 0.0
C172 C 0.6784 0.7415 0.55025 0.0
C173 C 0.71751 0.78361 0.5324 0.0
C174 C 0.71397 0.83367 0.52582 0.0
C175 C 0.67096 0.84443 0.5367 0.0
C176 C 0.62996 0.80051 0.55339 0.0
C177 C 0.63376 0.75056 0.56007 0.0
C178 C 0.66959 0.67679 0.60333 0.0
C179 C 0.63521 0.62066 0.6128 0.0
C180 C 0.61947 0.61246 0.64148 0.0
C181 C 0.63781 0.66013 0.66157 0.0
C182 C 0.6713 0.7163 0.65179 0.0
C183 C 0.68689 0.72441 0.62313 0.0
P184 P 1.08221 0.61266 0.89147 0.0
H185 H 0.17177 0.66774 0.84854 0.0
H186 H 0.25667 0.66076 0.83647 0.0
H187 H 0.19979 0.51209 0.88774 0.0
H188 H 0.11447 0.51934 0.89961 0.0
H189 H 1.04234 0.68845 0.86545 0.0
H190 H 0.949 0.67934 0.85301 0.0
H191 H 0.86419 0.49719 0.86854 0.0
H192 H 0.95961 0.50679 0.88144 0.0
H193 H 0.16984 0.62814 0.936 0.0
H194 H 0.98678 0.56876 0.93243 0.0
O195 O 0.12125 0.68508 0.89393 0.0
H196 H 0.17046 0.6224 0.98797 0.0
H197 H 0.98658 0.56108 0.98444 0.0
C198 C 0.13468 0.59388 0.87497 0.0
C199 C 0.17624 0.63246 0.85672 0.0
C200 C 0.22622 0.62899 0.85015 0.0
C201 C 0.23751 0.5864 0.86132 0.0
C202 C 0.19408 0.54571 0.87836 0.0
C203 C 0.14415 0.54952 0.88509 0.0
C204 C 1.01027 0.59859 0.87482 0.0
C205 C 1.00438 0.6459 0.86605 0.0
C206 C 0.94969 0.64076 0.85909 0.0
C207 C 0.897 0.58778 0.86024 0.0
C208 C 0.90273 0.53918 0.86737 0.0
C209 C 0.95805 0.54454 0.87465 0.0
C210 C 1.07794 0.59699 0.92962 0.0
C211 C 0.12916 0.6119 0.94618 0.0
C212 C 0.12947 0.60871 0.97622 0.0
C213 C 1.07849 0.59089 0.99093 0.0
C214 C 1.02698 0.57549 0.97424 0.0
C215 C 1.02682 0.57894 0.9441 0.0
P216 P 0.37068 0.60541 0.39991 0.0
H217 H 0.46068 0.6635 0.44663 0.0
H218 H 0.46501 0.71902 0.49024 0.0
H219 H 0.31698 0.72879 0.45596 0.0
H220 H 0.31001 0.66968 0.41439 0.0
H221 H 0.28143 0.48716 0.37834 0.0
H222 H 0.20555 0.41149 0.40483 0.0
H223 H 0.30441 0.49468 0.48477 0.0
H224 H 0.38001 0.56928 0.45848 0.0
H225 H 0.39334 0.65766 0.34372 0.0
H226 H 0.24615 0.56318 0.39462 0.0
O227 O 0.43259 0.61518 0.38742 0.0
H228 H 0.32988 0.66511 0.30659 0.0
H229 H 0.18322 0.57073 0.35809 0.0
C230 C 0.38455 0.66124 0.42726 0.0
C231 C 0.42946 0.67807 0.44852 0.0
C232 C 0.43165 0.70973 0.47358 0.0
C233 C 0.39027 0.72739 0.47726 0.0
C234 C 0.34792 0.71377 0.45484 0.0
C235 C 0.34465 0.68054 0.43041 0.0
C236 C 0.33374 0.5369 0.4166 0.0
C237 C 0.28774 0.48827 0.40149 0.0
C238 C 0.24456 0.44469 0.41663 0.0
C239 C 0.24832 0.44911 0.44686 0.0
C240 C 0.29983 0.49168 0.46147 0.0
C241 C 0.34281 0.53493 0.44632 0.0
C242 C 0.32419 0.60786 0.37141 0.0
C243 C 0.3474 0.63796 0.34676 0.0
C244 C 0.31125 0.6429 0.32579 0.0
C245 C 0.25144 0.61816 0.32936 0.0
C246 C 0.2288 0.5892 0.3544 0.0
C247 C 0.26476 0.58424 0.37518 0.0
P248 P 0.91161 0.27694 0.76839 0.0
H249 H 0.92674 0.35012 0.81994 0.0
H250 H 0.87115 0.39751 0.83212 0.0
H251 H 0.81813 0.38527 0.74211 0.0
H252 H 0.87424 0.34006 0.73019 0.0
H253 H 0.93881 0.20203 0.80293 0.0
H254 H 0.88412 0.13115 0.83818 0.0
H255 H 0.7482 0.17418 0.82959 0.0
H256 H 0.80279 0.245 0.79482 0.0
H257 H 0.95552 0.29045 0.71094 0.0
H258 H 0.79149 0.19003 0.74875 0.0
O259 O 0.98201 0.29778 0.77023 0.0
H260 H 0.90546 0.26403 0.66311 0.0
H261 H 0.74148 0.16518 0.70149 0.0
C262 C 0.90192 0.33866 0.7744 0.0
C263 C 0.90547 0.36035 0.80272 0.0
C264 C 0.87321 0.3869 0.8097 0.0
C265 C 0.83809 0.39256 0.78825 0.0
C266 C 0.84381 0.3807 0.7593 0.0
C267 C 0.87581 0.35411 0.75241 0.0
C268 C 0.87493 0.22871 0.79626 0.0
C269 C 0.89781 0.19696 0.80905 0.0
C270 C 0.86684 0.15698 0.82933 0.0
C271 C 0.81226 0.14778 0.83666 0.0
C272 C 0.79031 0.18083 0.8244 0.0
C273 C 0.82152 0.22114 0.80449 0.0
C274 C 0.87763 0.24207 0.73358 0.0
C275 C 0.90907 0.26131 0.70898 0.0
C276 C 0.88022 0.24684 0.68167 0.0
C277 C 0.81928 0.21332 0.67853 0.0
C278 C 0.78837 0.1908 0.70307 0.0
C279 C 0.81725 0.2052 0.73031 0.0
P280 P 0.48712 0.25763 0.03922 0.0
H281 H 0.52661 0.24985 0.09799 0.0
H282 H 0.62167 0.31482 0.12165 0.0
H283 H 0.69471 0.35654 0.03866 0.0
H284 H 0.59891 0.29271 0.01515 0.0
H285 H 0.36295 0.2044 0.04846 0.0
H286 H 0.30939 0.23921 0.07688 0.0
H287 H 0.47168 0.38244 0.11308 0.0
H288 H 0.52408 0.34783 0.08516 0.0
H289 H 0.42969 0.25636 0.98381 0.0
H290 H 0.57194 0.38124 0.04101 0.0
O291 O 0.44868 0.19076 0.02366 0.0
H292 H 0.44454 0.33413 0.95229 0.0
H293 H 0.58661 0.45842 0.00998 0.0
C294 C 0.55546 0.27027 0.05493 0.0
C295 C 0.56347 0.27107 0.08488 0.0
C296 C 0.61806 0.30824 0.09843 0.0
C297 C 0.66482 0.34312 0.08188 0.0
C298 C 0.6587 0.3319 0.05187 0.0
C299 C 0.60404 0.29498 0.03841 0.0
C300 C 0.44747 0.27229 0.06536 0.0
C301 C 0.38676 0.24202 0.06333 0.0
C302 C 0.35631 0.26232 0.07932 0.0
C303 C 0.38639 0.31347 0.09729 0.0
C304 C 0.44714 0.34223 0.1 0.0
C305 C 0.47727 0.32215 0.08401 0.0
C306 C 0.50106 0.3125 0.01414 0.0
C307 C 0.46453 0.30019 0.98937 0.0
C308 C 0.47251 0.34478 0.97166 0.0
C309 C 0.51687 0.40234 0.9787 0.0
C310 C 0.55264 0.41445 0.0038 0.0
C311 C 0.54446 0.3701 0.02145 0.0
C312 C 0.34932 0.39926 0.15022 0.0
C313 C 0.30645 0.40418 0.13415 0.0
H314 H 0.40704 0.36519 0.15147 0.0
C315 C 0.28764 0.376 0.10659 0.0
H316 H 0.36477 0.42054 0.17151 0.0
C317 C 0.31207 0.34464 0.09506 0.0
C318 C 0.35573 0.34069 0.11089 0.0
H319 H 0.25381 0.37799 0.09392 0.0
H320 H 0.29796 0.32499 0.0734 0.0
C321 C 0.37364 0.36775 0.13872 0.0
C322 C 1.10205 0.33425 0.46874 0.0
C323 C 1.0848 0.36857 0.48446 0.0
H324 H 0.16824 0.33313 0.44429 0.0
C325 C 0.12385 0.42784 0.4902 0.0
H326 H 1.07216 0.28841 0.46386 0.0
C327 C 0.17882 0.45294 0.47954 0.0
C328 C 0.1951 0.41933 0.46253 0.0
H329 H 0.11123 0.45494 0.50222 0.0
H330 H 0.20736 0.49939 0.48319 0.0
C331 C 0.1567 0.35962 0.45756 0.0
C332 C 0.69049 1.00218 0.85382 0.0
C333 C 0.71386 0.99058 0.87867 0.0
H334 H 0.70363 1.06149 0.82126 0.0
C335 C 0.76499 1.03628 0.89264 0.0
H336 H 0.65172 0.9686 0.84209 0.0
C337 C 0.79592 0.08928 0.87991 0.0
C338 C 0.77503 0.09819 0.85363 0.0
H339 H 0.78338 1.02984 0.91234 0.0
H340 H 0.83742 0.12218 0.88984 0.0
C341 C 0.72062 1.05555 0.84157 0.0
C342 C 0.78017 0.45442 0.13562 0.0
C343 C 0.79626 0.50639 0.12205 0.0
H344 H 0.72725 0.36162 0.13328 0.0
C345 C 0.77071 0.50357 0.09473 0.0
H346 H 0.79977 0.45504 0.15645 0.0
C347 C 0.72991 0.45015 0.08133 0.0
C348 C 0.71363 0.39821 0.09492 0.0
H349 H 0.78158 0.54273 0.08383 0.0
H350 H 0.70961 0.44979 0.06068 0.0
C351 C 0.73917 0.40086 0.12223 0.0
C352 C 0.45244 0.84855 0.53531 0.0
C353 C 0.40384 0.8542 0.54059 0.0
H354 H 0.48692 0.8063 0.51002 0.0
C355 C 0.34876 0.80877 0.53071 0.0
H356 H 0.49539 0.88168 0.54316 0.0
C357 C 0.3436 0.76361 0.5123 0.0
C358 C 0.39351 0.7639 0.503 0.0
H359 H 0.31013 0.81068 0.53521 0.0
H360 H 0.30073 0.73092 0.50381 0.0
C361 C 0.44755 0.80466 0.51628 0.0
C362 C 0.71156 0.4184 0.78089 0.0
C363 C 0.67538 0.38178 0.80126 0.0
H364 H 0.7932 0.45337 0.76181 0.0
C365 C 0.69675 0.35593 0.82014 0.0
H366 H 0.69681 0.44061 0.76678 0.0
C367 C 0.75195 0.36331 0.81735 0.0
C368 C 0.78698 0.39721 0.7958 0.0
H369 H 0.66988 0.3281 0.83625 0.0
H370 H 0.76556 0.33944 0.83091 0.0
C371 C 0.76694 0.4263 0.77829 0.0
C372 C 0.72036 1.00679 0.52322 0.0
C373 C 0.66818 1.00877 0.52192 0.0
H374 H 0.76275 0.95644 0.5287 0.0
C375 C 0.61695 0.95566 0.52531 0.0
H376 H 0.7612 1.04606 0.52086 0.0
C377 C 0.61786 0.90349 0.53021 0.0
C378 C 0.6699 0.90116 0.53133 0.0
H379 H 0.57584 0.9546 0.52437 0.0
H380 H 0.57727 0.86453 0.5329 0.0
C381 C 0.72117 0.95447 0.52761 0.0
C382 C 0.73416 0.53609 0.83652 0.0
C383 C 0.72772 0.58417 0.84504 0.0
H384 H 0.78982 0.49831 0.83467 0.0
C385 C 0.77763 0.63238 0.85874 0.0
H386 H 0.69759 0.49788 0.826 0.0
C387 C 0.8309 0.63299 0.86345 0.0
C388 C 0.8378 0.58518 0.85505 0.0
H389 H 0.77581 0.67052 0.86599 0.0
H390 H 0.86684 0.67139 0.87431 0.0
C391 C 0.78764 0.53634 0.84165 0.0
C392 C 0.31627 0.76365 0.1912 0.0
C393 C 0.26363 0.76238 0.18386 0.0
H394 H 0.40796 0.81412 0.20229 0.0
C395 C 0.26768 0.81735 0.1818 0.0
H396 H 0.31619 0.72322 0.19343 0.0
C397 C 0.32122 0.87052 0.18677 0.0
C398 C 0.37413 0.87205 0.19414 0.0
H399 H 0.22902 0.81958 0.17631 0.0
H400 H 0.32086 0.91067 0.18446 0.0
C401 C 0.36984 0.81681 0.1962 0.0
C402 C 0.63105 0.34336 0.53031 0.0
C403 C 0.67825 0.33957 0.51955 0.0
H404 H 0.59527 0.39674 0.54364 0.0
C405 C 0.72686 0.39281 0.51326 0.0
H406 H 0.59248 0.30425 0.53563 0.0
C407 C 0.7284 0.44687 0.51782 0.0
C408 C 0.68136 0.4508 0.52891 0.0
H409 H 0.76431 0.39295 0.50491 0.0
H410 H 0.76692 0.48581 0.51236 0.0
C411 C 0.63249 0.39726 0.53479 0.0
C412 C 0.40003 0.63765 0.84782 0.0
C413 C 0.40282 0.58584 0.84619 0.0
H414 H 0.34892 0.67903 0.85373 0.0
C415 C 0.34994 0.53394 0.84954 0.0
H416 H 0.43892 0.6789 0.84559 0.0
C417 C 0.29735 0.53394 0.85441 0.0
C418 C 0.29443 0.58581 0.8559 0.0
H419 H 0.34906 0.49278 0.8486 0.0
H420 H 0.25856 0.49267 0.85666 0.0
C421 C 0.34744 0.63762 0.85239 0.0
C422 C 0.92542 0.38696 0.17802 0.0
C423 C 0.93141 0.44248 0.18327 0.0
H424 H 0.87297 0.29426 0.17887 0.0
C425 C 0.88201 0.44273 0.19331 0.0
H426 H 0.96169 0.3836 0.17055 0.0
C427 C 0.82959 0.39039 0.19785 0.0
C428 C 0.82347 0.33452 0.1928 0.0
H429 H 0.88364 0.48377 0.19773 0.0
H430 H 0.79357 0.3943 0.20514 0.0
C431 C 0.87326 0.33471 0.18271 0.0
C432 C 1.0474 0.60593 0.06988 0.0
C433 C 1.08622 0.59346 0.0851 0.0
H434 H 1.01498 0.61592 0.02889 0.0
C435 C 0.12122 0.57865 0.06901 0.0
H436 H 1.01974 0.61763 0.08138 0.0
C437 C 0.11796 0.57688 0.03877 0.0
C438 C 1.07985 0.59025 0.02342 0.0
H439 H 0.15135 0.56824 0.07978 0.0
H440 H 0.14531 0.56457 0.02744 0.0
C441 C 1.04437 0.6045 0.03958 0.0
C442 C 0.58358 0.13934 0.40855 0.0
C443 C 0.63303 0.14388 0.42324 0.0
H444 H 0.53901 0.13086 0.36747 0.0
C445 C 0.67537 0.14218 0.40662 0.0
H446 H 0.54999 0.14039 0.4205 0.0
C447 C 0.66927 0.13701 0.37655 0.0
C448 C 0.62049 0.13318 0.36168 0.0
H449 H 0.71407 0.14522 0.41682 0.0
H450 H 0.70297 0.1355 0.36491 0.0
C451 C 0.57723 0.13369 0.37812 0.0
C452 C 0.5558 0.597 0.72905 0.0
C453 C 0.59645 0.63222 0.75152 0.0
H454 H 0.53625 0.57832 0.68356 0.0
C455 C 0.65038 0.67766 0.7441 0.0
H456 H 0.51375 0.5616 0.73378 0.0
C457 C 0.66348 0.68709 0.71511 0.0
C458 C 0.62312 0.65129 0.6926 0.0
H459 H 0.68294 0.70555 0.76072 0.0
H460 H 0.70596 0.72171 0.71039 0.0
C461 C 0.56892 0.60634 0.7001 0.0
C462 C 0.77805 0.24983 0.60679 0.0
C463 C 0.72896 0.19713 0.59688 0.0
H464 H 0.84437 0.29617 0.64012 0.0
C465 C 0.7085 0.14958 0.61435 0.0
H466 H 0.79474 0.28749 0.59399 0.0
C467 C 0.73776 0.1544 0.64086 0.0
C468 C 0.78792 0.20684 0.65033 0.0
H469 H 0.67107 0.10827 0.60717 0.0
H470 H 0.72184 0.11678 0.65365 0.0
C471 C 0.80704 0.25464 0.63314 0.0
C472 C 0.59452 0.52669 0.93064 0.0
C473 C 0.548 0.52848 0.91673 0.0
H474 H 0.62099 0.48505 0.96126 0.0
C475 C 0.49163 0.49293 0.92525 0.0
H476 H 0.63807 0.55253 0.92362 0.0
C477 C 0.48151 0.45346 0.94641 0.0
C478 C 0.52773 0.44919 0.95926 0.0
H479 H 0.45507 0.49263 0.91407 0.0
H480 H 0.43737 0.42471 0.95189 0.0
C481 C 0.58457 0.4877 0.95194 0.0
C482 C 0.19183 0.66842 0.2682 0.0
C483 C 0.14059 0.61668 0.25952 0.0
H484 H 0.26778 0.70948 0.2972 0.0
C485 C 0.12376 0.56752 0.27544 0.0
H486 H 0.2062 0.70665 0.25595 0.0
C487 C 0.15891 0.56892 0.29869 0.0
C488 C 0.21193 0.61948 0.30647 0.0
H489 H 1.08466 0.52697 0.26901 0.0
H490 H 0.14585 0.52935 0.30963 0.0
C491 C 0.22746 0.66971 0.29144 0.0
loop_
_geom_bond_atom_site_label_1
_geom_bond_atom_site_label_2
_geom_bond_distance
_geom_bond_site_symmetry_2
_ccdc_geom_bond_type
Tb0 C9 2.764 1_455 S
Tb0 O10 2.325 1_455 S
Tb0 O13 2.303 . S
Tb0 O17 2.322 . S
Tb0 O18 2.349 . S
Tb0 O21 2.415 1_455 S
Tb0 O22 2.399 1_455 S
Tb1 O11 2.322 1_455 S
Tb1 O12 2.349 . S
Tb1 O14 2.415 . S
Tb1 O15 2.399 . S
Tb1 O16 2.325 . S
Tb1 O19 2.303 . S
Tb1 C30 2.764 . S
C2 O18 1.261 . S
C2 O19 1.257 . S
C3 C6 1.358 . S
C3 C7 1.332 . S
C3 C9 1.504 . S
C4 C5 1.373 . S
C4 C8 1.308 . S
C5 C4 1.373 . S
C5 C6 1.429 . S
C5 H32 0.932 . S
C6 C3 1.358 . S
C6 C5 1.429 . S
C6 H33 0.930 . S
C7 C3 1.332 . S
C7 C8 1.394 . S
C7 H34 0.932 . S
C8 C4 1.308 . S
C8 C7 1.394 . S
C8 H35 0.929 . S
C9 Tb0 2.764 1_655 S
C9 C3 1.504 . S
C9 O21 1.239 . S
C9 O22 1.263 . S
O10 Tb0 2.325 1_655 S
O10 C20 1.236 . S
O11 Tb1 2.322 1_655 S
O11 C20 1.257 . S
O12 Tb1 2.349 . S
O12 C23 1.261 . S
O13 Tb0 2.303 . S
O13 C23 1.257 . S
O14 Tb1 2.415 . S
O14 C30 1.239 . S
O15 Tb1 2.399 . S
O15 C30 1.263 . S
O16 Tb1 2.325 . S
O16 C31 1.236 . S
O17 Tb0 2.322 . S
O17 C31 1.257 . S
O18 Tb0 2.349 . S
O18 C2 1.261 . S
O19 Tb1 2.303 . S
O19 C2 1.257 . S
C20 O10 1.236 . S
C20 O11 1.257 . S
O21 Tb0 2.415 1_655 S
O21 C9 1.239 . S
O22 Tb0 2.399 1_655 S
O22 C9 1.263 . S
C23 O12 1.261 . S
C23 O13 1.257 . S
C24 C27 1.358 . S
C24 C28 1.332 . S
C24 C30 1.504 . S
C25 C26 1.373 . S
C25 C29 1.308 . S
C26 C25 1.373 . S
C26 C27 1.429 . S
C26 H36 0.932 . S
C27 C24 1.358 . S
C27 C26 1.429 . S
C27 H37 0.930 . S
C28 C24 1.332 . S
C28 C29 1.394 . S
C28 H38 0.932 . S
C29 C25 1.308 . S
C29 C28 1.394 . S
C29 H39 0.929 . S
C30 Tb1 2.764 . S
C30 O14 1.239 . S
C30 O15 1.263 . S
C30 C24 1.504 . S
C31 O16 1.236 . S
C31 O17 1.257 . S
H32 C5 0.932 . S
H33 C6 0.930 . S
H34 C7 0.932 . S
H35 C8 0.929 . S
H36 C26 0.932 . S
H37 C27 0.930 . S
H38 C28 0.932 . S
H39 C29 0.929 . S
Tb40 C49 2.764 . S
Tb40 O50 2.325 . S
Tb40 O53 2.303 1_565 S
Tb40 O57 2.322 1_565 S
Tb40 O58 2.349 1_565 S
Tb40 O61 2.415 . S
Tb40 O62 2.399 . S
Tb41 O51 2.322 1_545 S
Tb41 O52 2.349 . S
Tb41 O54 2.415 . S
Tb41 O55 2.399 . S
Tb41 O56 2.325 . S
Tb41 O59 2.303 . S
Tb41 C70 2.764 . S
C42 O58 1.261 . S
C42 O59 1.257 . S
C43 C46 1.358 . S
C43 C47 1.332 . S
C43 C49 1.504 . S
C44 C45 1.373 . S
C44 C48 1.308 . S
C45 C44 1.373 . S
C45 C46 1.429 . S
C45 H72 0.932 . S
C46 C43 1.358 . S
C46 C45 1.429 . S
C46 H73 0.930 . S
C47 C43 1.332 . S
C47 C48 1.394 . S
C47 H74 0.932 . S
C48 C44 1.308 . S
C48 C47 1.394 . S
C48 H75 0.929 . S
C49 Tb40 2.764 . S
C49 C43 1.504 . S
C49 O61 1.239 . S
C49 O62 1.263 . S
O50 Tb40 2.325 . S
O50 C60 1.236 . S
O51 Tb41 2.322 1_565 S
O51 C60 1.257 . S
O52 Tb41 2.349 . S
O52 C63 1.261 . S
O53 Tb40 2.303 1_545 S
O53 C63 1.257 . S
O54 Tb41 2.415 . S
O54 C70 1.239 . S
O55 Tb41 2.399 . S
O55 C70 1.263 . S
O56 Tb41 2.325 . S
O56 C71 1.236 . S
O57 Tb40 2.322 1_545 S
O57 C71 1.257 . S
O58 Tb40 2.349 1_545 S
O58 C42 1.261 . S
O59 Tb41 2.303 . S
O59 C42 1.257 . S
C60 O50 1.236 . S
C60 O51 1.257 . S
O61 Tb40 2.415 . S
O61 C49 1.239 . S
O62 Tb40 2.399 . S
O62 C49 1.263 . S
C63 O52 1.261 . S
C63 O53 1.257 . S
C64 C67 1.358 . S
C64 C68 1.332 . S
C64 C70 1.504 . S
C65 C66 1.373 . S
C65 C69 1.308 . S
C66 C65 1.373 . S
C66 C67 1.429 . S
C66 H76 0.932 . S
C67 C64 1.358 . S
C67 C66 1.429 . S
C67 H77 0.930 . S
C68 C64 1.332 . S
C68 C69 1.394 . S
C68 H78 0.932 . S
C69 C65 1.308 . S
C69 C68 1.394 . S
C69 H79 0.929 . S
C70 Tb41 2.764 . S
C70 O54 1.239 . S
C70 O55 1.263 . S
C70 C64 1.504 . S
C71 O56 1.236 . S
C71 O57 1.257 . S
H72 C45 0.932 . S
H73 C46 0.930 . S
H74 C47 0.932 . S
H75 C48 0.929 . S
H76 C66 0.932 . S
H77 C67 0.930 . S
H78 C68 0.932 . S
H79 C69 0.929 . S
Tb80 C89 2.764 . S
Tb80 O90 2.325 . S
Tb80 O93 2.303 . S
Tb80 O97 2.322 . S
Tb80 O98 2.349 . S
Tb80 O101 2.415 . S
Tb80 O102 2.399 . S
Tb81 O91 2.322 . S
Tb81 O92 2.349 . S
Tb81 O94 2.415 . S
Tb81 O95 2.399 . S
Tb81 O96 2.325 . S
Tb81 O99 2.303 . S
Tb81 C110 2.764 . S
C82 O98 1.261 . S
C82 O99 1.257 . S
C83 C86 1.358 . S
C83 C87 1.332 . S
C83 C89 1.504 . S
C84 C85 1.373 . S
C84 C88 1.308 . S
C85 C84 1.373 . S
C85 C86 1.429 . S
C85 H112 0.932 . S
C86 C83 1.358 . S
C86 C85 1.429 . S
C86 H113 0.930 . S
C87 C83 1.332 . S
C87 C88 1.394 . S
C87 H114 0.932 . S
C88 C84 1.308 . S
C88 C87 1.394 . S
C88 H115 0.929 . S
C89 Tb80 2.764 . S
C89 C83 1.504 . S
C89 O101 1.239 . S
C89 O102 1.263 . S
O90 Tb80 2.325 . S
O90 C100 1.236 . S
O91 Tb81 2.322 . S
O91 C100 1.257 . S
O92 Tb81 2.349 . S
O92 C103 1.261 . S
O93 Tb80 2.303 . S
O93 C103 1.257 . S
O94 Tb81 2.415 . S
O94 C110 1.239 . S
O95 Tb81 2.399 . S
O95 C110 1.263 . S
O96 Tb81 2.325 . S
O96 C111 1.236 . S
O97 Tb80 2.322 . S
O97 C111 1.257 . S
O98 Tb80 2.349 . S
O98 C82 1.261 . S
O99 Tb81 2.303 . S
O99 C82 1.257 . S
C100 O90 1.236 . S
C100 O91 1.257 . S
O101 Tb80 2.415 . S
O101 C89 1.239 . S
O102 Tb80 2.399 . S
O102 C89 1.263 . S
C103 O92 1.261 . S
C103 O93 1.257 . S
C104 C107 1.358 . S
C104 C108 1.332 . S
C104 C110 1.504 . S
C105 C106 1.373 . S
C105 C109 1.308 . S
C106 C105 1.373 . S
C106 C107 1.429 . S
C106 H116 0.932 . S
C107 C104 1.358 . S
C107 C106 1.429 . S
C107 H117 0.930 . S
C108 C104 1.332 . S
C108 C109 1.394 . S
C108 H118 0.932 . S
C109 C105 1.308 . S
C109 C108 1.394 . S
C109 H119 0.929 . S
C110 Tb81 2.764 . S
C110 O94 1.239 . S
C110 O95 1.263 . S
C110 C104 1.504 . S
C111 O96 1.236 . S
C111 O97 1.257 . S
H112 C85 0.932 . S
H113 C86 0.930 . S
H114 C87 0.932 . S
H115 C88 0.929 . S
H116 C106 0.932 . S
H117 C107 0.930 . S
H118 C108 0.932 . S
H119 C109 0.929 . S
P120 O131 1.494 . S
P120 C134 1.812 . S
P120 C140 1.800 1_565 S
P120 C146 1.817 1_565 S
H121 C135 0.941 . S
H122 C136 0.939 . S
H123 C138 0.940 . S
H124 C139 0.940 . S
H125 C141 0.939 . S
H126 C142 0.942 . S
H127 C144 0.940 . S
H128 C145 0.939 . S
H129 C147 0.941 . S
H130 C151 0.939 . S
O131 P120 1.494 . S
H132 C148 0.939 . S
H133 C150 0.940 . S
C134 P120 1.812 . S
C134 C135 1.389 . S
C134 C139 1.391 . S
C135 H121 0.941 . S
C135 C134 1.389 . S
C135 C136 1.397 . S
C136 H122 0.939 . S
C136 C135 1.397 . S
C136 C137 1.378 . S
C137 C136 1.378 . S
C137 C138 1.378 . S
C138 H123 0.940 . S
C138 C137 1.378 . S
C138 C139 1.396 . S
C139 H124 0.940 . S
C139 C134 1.391 . S
C139 C138 1.396 . S
C140 P120 1.800 1_545 S
C140 C141 1.378 . S
C140 C145 1.400 . S
C141 H125 0.939 . S
C141 C140 1.378 . S
C141 C142 1.361 . S
C142 H126 0.942 . S
C142 C141 1.361 . S
C142 C143 1.369 . S
C143 C142 1.369 . S
C143 C144 1.404 . S
C144 H127 0.940 . S
C144 C143 1.404 . S
C144 C145 1.389 . S
C145 H128 0.939 . S
C145 C140 1.400 . S
C145 C144 1.389 . S
C146 P120 1.817 1_545 S
C146 C147 1.391 1_545 S
C146 C151 1.391 . S
C147 H129 0.941 . S
C147 C146 1.391 1_565 S
C147 C148 1.396 . S
C148 H132 0.939 . S
C148 C147 1.396 . S
C148 C149 1.397 1_565 S
C149 C148 1.397 1_545 S
C149 C150 1.385 . S
C150 H133 0.940 . S
C150 C149 1.385 . S
C150 C151 1.388 . S
C151 H130 0.939 . S
C151 C146 1.391 . S
C151 C150 1.388 . S
P152 O163 1.490 . S
P152 C166 1.812 . S
P152 C172 1.803 . S
P152 C178 1.819 . S
H153 C167 0.941 . S
H154 C168 0.939 . S
H155 C170 0.940 . S
H156 C171 0.940 . S
H157 C173 0.939 . S
H158 C174 0.942 . S
H159 C176 0.940 . S
H160 C177 0.939 . S
H161 C179 0.941 . S
H162 C183 0.939 . S
O163 P152 1.490 . S
H164 C180 0.939 . S
H165 C182 0.940 . S
C166 P152 1.812 . S
C166 C167 1.389 . S
C166 C171 1.391 . S
C167 H153 0.941 . S
C167 C166 1.389 . S
C167 C168 1.397 . S
C168 H154 0.939 . S
C168 C167 1.397 . S
C168 C169 1.378 . S
C169 C168 1.378 . S
C169 C170 1.378 . S
C170 H155 0.940 . S
C170 C169 1.378 . S
C170 C171 1.396 . S
C171 H156 0.940 . S
C171 C166 1.391 . S
C171 C170 1.396 . S
C172 P152 1.803 . S
C172 C173 1.378 . S
C172 C177 1.400 . S
C173 H157 0.939 . S
C173 C172 1.378 . S
C173 C174 1.361 . S
C174 H158 0.942 . S
C174 C173 1.361 . S
C174 C175 1.369 . S
C175 C174 1.369 . S
C175 C176 1.404 . S
C176 H159 0.940 . S
C176 C175 1.404 . S
C176 C177 1.389 . S
C177 H160 0.939 . S
C177 C172 1.400 . S
C177 C176 1.389 . S
C178 P152 1.819 . S
C178 C179 1.391 . S
C178 C183 1.391 . S
C179 H161 0.941 . S
C179 C178 1.391 . S
C179 C180 1.396 . S
C180 H164 0.939 . S
C180 C179 1.396 . S
C180 C181 1.397 . S
C181 C180 1.397 . S
C181 C182 1.385 . S
C182 H165 0.940 . S
C182 C181 1.385 . S
C182 C183 1.388 . S
C183 H162 0.939 . S
C183 C178 1.391 . S
C183 C182 1.388 . S
P184 O195 1.490 . S
P184 C198 1.812 . S
P184 C204 1.803 . S
P184 C210 1.819 . S
H185 C199 0.941 . S
H186 C200 0.939 . S
H187 C202 0.940 . S
H188 C203 0.940 . S
H189 C205 0.939 . S
H190 C206 0.942 . S
H191 C208 0.940 . S
H192 C209 0.939 . S
H193 C211 0.941 . S
H194 C215 0.939 . S
O195 P184 1.490 . S
H196 C212 0.939 . S
H197 C214 0.940 1_655 S
C198 P184 1.812 . S
C198 C199 1.389 . S
C198 C203 1.391 . S
C199 H185 0.941 . S
C199 C198 1.389 . S
C199 C200 1.397 . S
C200 H186 0.939 . S
C200 C199 1.397 . S
C200 C201 1.378 . S
C201 C200 1.378 . S
C201 C202 1.378 . S
C202 H187 0.940 . S
C202 C201 1.378 . S
C202 C203 1.396 . S
C203 H188 0.940 . S
C203 C198 1.391 . S
C203 C202 1.396 . S
C204 P184 1.803 . S
C204 C205 1.378 . S
C204 C209 1.400 . S
C205 H189 0.939 . S
C205 C204 1.378 . S
C205 C206 1.361 1_455 S
C206 H190 0.942 . S
C206 C205 1.361 1_655 S
C206 C207 1.369 . S
C207 C206 1.369 . S
C207 C208 1.404 . S
C208 H191 0.940 . S
C208 C207 1.404 . S
C208 C209 1.389 1_655 S
C209 H192 0.939 . S
C209 C204 1.400 . S
C209 C208 1.389 1_455 S
C210 P184 1.819 . S
C210 C211 1.391 . S
C210 C215 1.391 . S
C211 H193 0.941 . S
C211 C210 1.391 . S
C211 C212 1.396 . S
C212 H196 0.939 . S
C212 C211 1.396 . S
C212 C213 1.397 . S
C213 C212 1.397 . S
C213 C214 1.385 . S
C214 H197 0.940 1_455 S
C214 C213 1.385 . S
C214 C215 1.388 . S
C215 H194 0.939 . S
C215 C210 1.391 . S
C215 C214 1.388 . S
P216 O227 1.490 . S
P216 C230 1.812 . S
P216 C236 1.803 1_455 S
P216 C242 1.819 . S
H217 C231 0.941 . S
H218 C232 0.939 . S
H219 C234 0.940 . S
H220 C235 0.940 . S
H221 C237 0.939 . S
H222 C238 0.942 . S
H223 C240 0.940 . S
H224 C241 0.939 . S
H225 C243 0.941 . S
H226 C247 0.939 . S
O227 P216 1.490 . S
H228 C244 0.939 . S
H229 C246 0.940 . S
C230 P216 1.812 . S
C230 C231 1.389 . S
C230 C235 1.391 . S
C231 H217 0.941 . S
C231 C230 1.389 . S
C231 C232 1.397 . S
C232 H218 0.939 . S
C232 C231 1.397 . S
C232 C233 1.378 . S
C233 C232 1.378 . S
C233 C234 1.378 . S
C234 H219 0.940 . S
C234 C233 1.378 . S
C234 C235 1.396 . S
C235 H220 0.940 . S
C235 C230 1.391 . S
C235 C234 1.396 . S
C236 P216 1.803 1_655 S
C236 C237 1.378 . S
C236 C241 1.400 . S
C237 H221 0.939 . S
C237 C236 1.378 . S
C237 C238 1.361 . S
C238 H222 0.942 . S
C238 C237 1.361 . S
C238 C239 1.369 . S
C239 C238 1.369 . S
C239 C240 1.404 . S
C240 H223 0.940 . S
C240 C239 1.404 . S
C240 C241 1.389 . S
C241 H224 0.939 . S
C241 C236 1.400 . S
C241 C240 1.389 . S
C242 P216 1.819 . S
C242 C243 1.391 . S
C242 C247 1.391 1_455 S
C243 H225 0.941 . S
C243 C242 1.391 . S
C243 C244 1.396 . S
C244 H228 0.939 . S
C244 C243 1.396 . S
C244 C245 1.397 . S
C245 C244 1.397 . S
C245 C246 1.385 1_455 S
C246 H229 0.940 . S
C246 C245 1.385 1_655 S
C246 C247 1.388 . S
C247 H226 0.939 . S
C247 C242 1.391 1_655 S
C247 C246 1.388 . S
P248 O259 1.490 . S
P248 C262 1.812 . S
P248 C268 1.803 1_545 S
P248 C274 1.819 . S
H249 C263 0.941 . S
H250 C264 0.939 . S
H251 C266 0.940 . S
H252 C267 0.940 . S
H253 C269 0.939 . S
H254 C270 0.942 . S
H255 C272 0.940 . S
H256 C273 0.939 . S
H257 C275 0.941 . S
H258 C279 0.939 . S
O259 P248 1.490 . S
H260 C276 0.939 . S
H261 C278 0.940 . S
C262 P248 1.812 . S
C262 C263 1.389 . S
C262 C267 1.391 . S
C263 H249 0.941 . S
C263 C262 1.389 . S
C263 C264 1.397 . S
C264 H250 0.939 . S
C264 C263 1.397 . S
C264 C265 1.378 . S
C265 C264 1.378 . S
C265 C266 1.378 . S
C266 H251 0.940 . S
C266 C265 1.378 . S
C266 C267 1.396 . S
C267 H252 0.940 . S
C267 C262 1.391 . S
C267 C266 1.396 . S
C268 P248 1.803 1_565 S
C268 C269 1.378 . S
C268 C273 1.400 . S
C269 H253 0.939 . S
C269 C268 1.378 . S
C269 C270 1.361 . S
C270 H254 0.942 . S
C270 C269 1.361 . S
C270 C271 1.369 . S
C271 C270 1.369 . S
C271 C272 1.404 . S
C272 H255 0.940 . S
C272 C271 1.404 . S
C272 C273 1.389 . S
C273 H256 0.939 . S
C273 C268 1.400 . S
C273 C272 1.389 . S
C274 P248 1.819 . S
C274 C275 1.391 . S
C274 C279 1.391 1_545 S
C275 H257 0.941 . S
C275 C274 1.391 . S
C275 C276 1.396 . S
C276 H260 0.939 . S
C276 C275 1.396 . S
C276 C277 1.398 1_545 S
C277 C276 1.398 1_565 S
C277 C278 1.384 . S
C278 H261 0.940 . S
C278 C277 1.384 . S
C278 C279 1.388 . S
C279 H258 0.939 . S
C279 C274 1.391 1_565 S
C279 C278 1.388 . S
P280 O291 1.490 . S
P280 C294 1.812 . S
P280 C300 1.803 . S
P280 C306 1.819 . S
H281 C295 0.941 . S
H282 C296 0.939 . S
H283 C298 0.940 . S
H284 C299 0.940 . S
H285 C301 0.939 . S
H286 C302 0.942 . S
H287 C304 0.940 . S
H288 C305 0.939 . S
H289 C307 0.941 . S
H290 C311 0.939 . S
O291 P280 1.490 . S
H292 C308 0.939 . S
H293 C310 0.940 . S
C294 P280 1.812 . S
C294 C295 1.389 . S
C294 C299 1.391 . S
C295 H281 0.941 . S
C295 C294 1.389 . S
C295 C296 1.397 . S
C296 H282 0.939 . S
C296 C295 1.397 . S
C296 C297 1.378 . S
C297 C296 1.378 . S
C297 C298 1.378 . S
C298 H283 0.940 . S
C298 C297 1.378 . S
C298 C299 1.396 . S
C299 H284 0.940 . S
C299 C294 1.391 . S
C299 C298 1.396 . S
C300 P280 1.803 . S
C300 C301 1.378 . S
C300 C305 1.400 . S
C301 H285 0.939 . S
C301 C300 1.378 . S
C301 C302 1.361 . S
C302 H286 0.942 . S
C302 C301 1.361 . S
C302 C303 1.369 . S
C303 C302 1.369 . S
C303 C304 1.404 . S
C304 H287 0.940 . S
C304 C303 1.404 . S
C304 C305 1.389 . S
C305 H288 0.939 . S
C305 C300 1.400 . S
C305 C304 1.389 . S
C306 P280 1.819 . S
C306 C307 1.391 . S
C306 C311 1.391 . S
C307 H289 0.941 . S
C307 C306 1.391 . S
C307 C308 1.396 1_554 S
C308 H292 0.939 . S
C308 C307 1.396 1_556 S
C308 C309 1.397 . S
C309 C308 1.397 . S
C309 C310 1.385 1_556 S
C310 H293 0.940 . S
C310 C309 1.385 1_554 S
C310 C311 1.388 . S
C311 H290 0.939 . S
C311 C306 1.391 . S
C311 C310 1.388 . S
C312 C313 1.387 . S
C312 H316 0.950 . S
C312 C321 1.390 . S
C313 C312 1.387 . S
C313 C315 1.387 . S
H314 C321 0.950 . S
C315 C313 1.387 . S
C315 C317 1.390 . S
C315 H319 0.950 . S
H316 C312 0.950 . S
C317 C315 1.390 . S
C317 C318 1.387 . S
C317 H320 0.950 . S
C318 C317 1.387 . S
C318 C321 1.387 . S
H319 C315 0.950 . S
H320 C317 0.950 . S
C321 C312 1.390 . S
C321 H314 0.950 . S
C321 C318 1.387 . S
C322 C323 1.387 . S
C322 H326 0.950 . S
C322 C331 1.390 . S
C323 C322 1.387 . S
C323 C325 1.387 . S
H324 C331 0.950 . S
C325 C323 1.387 . S
C325 C327 1.390 . S
C325 H329 0.950 . S
H326 C322 0.950 . S
C327 C325 1.390 . S
C327 C328 1.387 . S
C327 H330 0.950 . S
C328 C327 1.387 . S
C328 C331 1.387 . S
H329 C325 0.950 . S
H330 C327 0.950 . S
C331 C322 1.390 . S
C331 H324 0.950 . S
C331 C328 1.387 . S
C332 C333 1.387 . S
C332 H336 0.950 . S
C332 C341 1.390 . S
C333 C332 1.387 . S
C333 C335 1.387 . S
H334 C341 0.950 . S
C335 C333 1.387 . S
C335 C337 1.390 . S
C335 H339 0.950 . S
H336 C332 0.950 . S
C337 C335 1.390 . S
C337 C338 1.387 . S
C337 H340 0.950 . S
C338 C337 1.387 . S
C338 C341 1.387 . S
H339 C335 0.950 . S
H340 C337 0.950 . S
C341 C332 1.390 . S
C341 H334 0.950 . S
C341 C338 1.387 . S
C342 C343 1.387 . S
C342 H346 0.950 . S
C342 C351 1.390 . S
C343 C342 1.387 . S
C343 C345 1.387 . S
H344 C351 0.950 . S
C345 C343 1.387 . S
C345 C347 1.390 . S
C345 H349 0.950 . S
H346 C342 0.950 . S
C347 C345 1.390 . S
C347 C348 1.387 . S
C347 H350 0.950 . S
C348 C347 1.387 . S
C348 C351 1.387 . S
H349 C345 0.950 . S
H350 C347 0.950 . S
C351 C342 1.390 . S
C351 H344 0.950 . S
C351 C348 1.387 . S
C352 C353 1.387 . S
C352 H356 0.950 . S
C352 C361 1.390 . S
C353 C352 1.387 . S
C353 C355 1.387 . S
H354 C361 0.950 . S
C355 C353 1.387 . S
C355 C357 1.390 . S
C355 H359 0.950 . S
H356 C352 0.950 . S
C357 C355 1.390 . S
C357 C358 1.387 . S
C357 H360 0.950 . S
C358 C357 1.387 . S
C358 C361 1.387 . S
H359 C355 0.950 . S
H360 C357 0.950 . S
C361 C352 1.390 . S
C361 H354 0.950 . S
C361 C358 1.387 . S
C362 C363 1.387 . S
C362 H366 0.950 . S
C362 C371 1.390 . S
C363 C362 1.387 . S
C363 C365 1.387 . S
H364 C371 0.950 . S
C365 C363 1.387 . S
C365 C367 1.390 . S
C365 H369 0.950 . S
H366 C362 0.950 . S
C367 C365 1.390 . S
C367 C368 1.387 . S
C367 H370 0.950 . S
C368 C367 1.387 . S
C368 C371 1.387 . S
H369 C365 0.950 . S
H370 C367 0.950 . S
C371 C362 1.390 . S
C371 H364 0.950 . S
C371 C368 1.387 . S
C372 C373 1.387 . S
C372 H376 0.950 . S
C372 C381 1.390 . S
C373 C372 1.387 . S
C373 C375 1.387 . S
H374 C381 0.950 . S
C375 C373 1.387 . S
C375 C377 1.390 . S
C375 H379 0.950 . S
H376 C372 0.950 . S
C377 C375 1.390 . S
C377 C378 1.387 . S
C377 H380 0.950 . S
C378 C377 1.387 . S
C378 C381 1.387 . S
H379 C375 0.950 . S
H380 C377 0.950 . S
C381 C372 1.390 . S
C381 H374 0.950 . S
C381 C378 1.387 . S
C382 C383 1.387 . S
C382 H386 0.950 . S
C382 C391 1.390 . S
C383 C382 1.387 . S
C383 C385 1.387 . S
H384 C391 0.950 . S
C385 C383 1.387 . S
C385 C387 1.390 . S
C385 H389 0.950 . S
H386 C382 0.950 . S
C387 C385 1.390 . S
C387 C388 1.387 . S
C387 H390 0.950 . S
C388 C387 1.387 . S
C388 C391 1.387 . S
H389 C385 0.950 . S
H390 C387 0.950 . S
C391 C382 1.390 . S
C391 H384 0.950 . S
C391 C388 1.387 . S
C392 C393 1.387 . S
C392 H396 0.950 . S
C392 C401 1.390 . S
C393 C392 1.387 . S
C393 C395 1.387 . S
H394 C401 0.950 . S
C395 C393 1.387 . S
C395 C397 1.390 . S
C395 H399 0.950 . S
H396 C392 0.950 . S
C397 C395 1.390 . S
C397 C398 1.387 . S
C397 H400 0.950 . S
C398 C397 1.387 . S
C398 C401 1.387 . S
H399 C395 0.950 . S
H400 C397 0.950 . S
C401 C392 1.390 . S
C401 H394 0.950 . S
C401 C398 1.387 . S
C402 C403 1.387 . S
C402 H406 0.950 . S
C402 C411 1.390 . S
C403 C402 1.387 . S
C403 C405 1.387 . S
H404 C411 0.950 . S
C405 C403 1.387 . S
C405 C407 1.390 . S
C405 H409 0.950 . S
H406 C402 0.950 . S
C407 C405 1.390 . S
C407 C408 1.387 . S
C407 H410 0.950 . S
C408 C407 1.387 . S
C408 C411 1.387 . S
H409 C405 0.950 . S
H410 C407 0.950 . S
C411 C402 1.390 . S
C411 H404 0.950 . S
C411 C408 1.387 . S
C412 C413 1.387 . S
C412 H416 0.950 . S
C412 C421 1.390 . S
C413 C412 1.387 . S
C413 C415 1.387 . S
H414 C421 0.950 . S
C415 C413 1.387 . S
C415 C417 1.390 . S
C415 H419 0.950 . S
H416 C412 0.950 . S
C417 C415 1.390 . S
C417 C418 1.387 . S
C417 H420 0.950 . S
C418 C417 1.387 . S
C418 C421 1.387 . S
H419 C415 0.950 . S
H420 C417 0.950 . S
C421 C412 1.390 . S
C421 H414 0.950 . S
C421 C418 1.387 . S
C422 C423 1.387 . S
C422 H426 0.950 . S
C422 C431 1.390 . S
C423 C422 1.387 . S
C423 C425 1.387 . S
H424 C431 0.950 . S
C425 C423 1.387 . S
C425 C427 1.390 . S
C425 H429 0.950 . S
H426 C422 0.950 . S
C427 C425 1.390 . S
C427 C428 1.387 . S
C427 H430 0.950 . S
C428 C427 1.387 . S
C428 C431 1.387 . S
H429 C425 0.950 . S
H430 C427 0.950 . S
C431 C422 1.390 . S
C431 H424 0.950 . S
C431 C428 1.387 . S
C432 C433 1.387 . S
C432 H436 0.950 1_455 S
C432 C441 1.390 . S
C433 C432 1.387 . S
C433 C435 1.387 . S
H434 C441 0.950 1_655 S
C435 C433 1.387 . S
C435 C437 1.390 . S
C435 H439 0.950 . S
H436 C432 0.950 1_655 S
C437 C435 1.390 . S
C437 C438 1.387 . S
C437 H440 0.950 . S
C438 C437 1.387 . S
C438 C441 1.387 . S
H439 C435 0.950 . S
H440 C437 0.950 . S
C441 C432 1.390 . S
C441 H434 0.950 1_455 S
C441 C438 1.387 . S
C442 C443 1.387 1_565 S
C442 H446 0.950 . S
C442 C451 1.390 . S
C443 C442 1.387 1_545 S
C443 C445 1.387 . S
H444 C451 0.950 . S
C445 C443 1.387 . S
C445 C447 1.390 . S
C445 H449 0.950 . S
H446 C442 0.950 . S
C447 C445 1.390 . S
C447 C448 1.387 . S
C447 H450 0.950 . S
C448 C447 1.387 . S
C448 C451 1.387 1_545 S
H449 C445 0.950 . S
H450 C447 0.950 . S
C451 C442 1.390 . S
C451 H444 0.950 . S
C451 C448 1.387 1_565 S
C452 C453 1.387 . S
C452 H456 0.950 . S
C452 C461 1.390 . S
C453 C452 1.387 . S
C453 C455 1.387 . S
H454 C461 0.950 . S
C455 C453 1.387 . S
C455 C457 1.390 . S
C455 H459 0.950 . S
H456 C452 0.950 . S
C457 C455 1.390 . S
C457 C458 1.387 . S
C457 H460 0.950 . S
C458 C457 1.387 . S
C458 C461 1.387 . S
H459 C455 0.950 . S
H460 C457 0.950 . S
C461 C452 1.390 . S
C461 H454 0.950 . S
C461 C458 1.387 . S
C462 C463 1.387 . S
C462 H466 0.950 . S
C462 C471 1.390 . S
C463 C462 1.387 . S
C463 C465 1.387 1_545 S
H464 C471 0.950 . S
C465 C463 1.387 1_565 S
C465 C467 1.390 . S
C465 H469 0.950 . S
H466 C462 0.950 . S
C467 C465 1.390 . S
C467 C468 1.387 . S
C467 H470 0.950 . S
C468 C467 1.387 . S
C468 C471 1.387 1_565 S
H469 C465 0.950 . S
H470 C467 0.950 . S
C471 C462 1.390 . S
C471 H464 0.950 . S
C471 C468 1.387 1_545 S
C472 C473 1.387 . S
C472 H476 0.950 . S
C472 C481 1.390 . S
C473 C472 1.387 . S
C473 C475 1.387 . S
H474 C481 0.950 . S
C475 C473 1.387 . S
C475 C477 1.390 . S
C475 H479 0.950 . S
H476 C472 0.950 . S
C477 C475 1.390 . S
C477 C478 1.387 . S
C477 H480 0.950 . S
C478 C477 1.387 . S
C478 C481 1.387 . S
H479 C475 0.950 . S
H480 C477 0.950 . S
C481 C472 1.390 . S
C481 H474 0.950 . S
C481 C478 1.387 . S
C482 C483 1.387 . S
C482 H486 0.950 . S
C482 C491 1.390 . S
C483 C482 1.387 . S
C483 C485 1.390 . S
H484 C491 0.950 . S
C485 C483 1.390 . S
C485 C487 1.386 1_455 S
C485 H489 0.952 1_455 S
H486 C482 0.950 . S
C487 C485 1.386 1_655 S
C487 C488 1.387 1_655 S
C487 H490 0.950 . S
C488 C487 1.387 1_455 S
C488 C491 1.387 . S
H489 C485 0.952 1_655 S
H490 C487 0.950 . S
C491 C482 1.390 . S
C491 H484 0.950 . S
C491 C488 1.387 . S
C313 C25 0.726 . S
C318 C303 0.710 . S
C323 C65 0.711 . S
C328 C239 0.693 . S
C333 C105 0.788 . S
C338 C271 0.796 . S
C343 C4 0.803 . S
C348 C297 0.855 . S
C358 C233 0.685 . S
C353 C44 0.688 . S
C368 C265 0.729 . S
C363 C84 0.730 . S
C373 C60 3.002 . S
C378 C175 2.926 . S
C383 C100 3.114 . S
C388 C207 3.031 . S
C393 C31 3.133 . S
C398 C137 3.050 . S
C408 C169 3.064 . S
C403 C71 3.136 . S
C418 C201 2.984 . S
C413 C111 3.024 . S
C423 C20 3.011 . S
C428 C143 2.933 . S
C438 C213 1.799 1_554 S
C433 C2 1.760 . S
C443 C42 1.778 . S
C448 C149 1.787 . S
C453 C82 1.766 . S
C458 C181 1.786 . S
C468 C277 0.975 . S
C463 C63 1.023 . S
C478 C309 1.098 . S
C473 C103 1.093 . S
C483 C23 0.991 . S
C488 C245 0.960 . S
