# Generated by pormake.
# Topology the, (3,8)-cn, num edge types: 1
# Building blocks:
#     Node 0, Type 0, BuildingBlock: ESEHIV_clean_linker_0, # of connection points: 3
#     Node 1, Type 0, BuildingBlock: ESEHIV_clean_linker_0, # of connection points: 3
#     Node 2, Type 0, BuildingBlock: ESEHIV_clean_linker_0, # of connection points: 3
#     Node 3, Type 0, BuildingBlock: ESEHIV_clean_linker_0, # of connection points: 3
#     Node 4, Type 0, BuildingBlock: ESEHIV_clean_linker_0, # of connection points: 3
#     Node 5, Type 0, BuildingBlock: ESEHIV_clean_linker_0, # of connection points: 3
#     Node 6, Type 0, BuildingBlock: ESEHIV_clean_linker_0, # of connection points: 3
#     Node 7, Type 0, BuildingBlock: ESEHIV_clean_linker_0, # of connection points: 3
#     Node 8, Type 1, BuildingBlock: GIZVER_clean_sbu_0, # of connection points: 8
#     Node 9, Type 1, BuildingBlock: GIZVER_clean_sbu_0, # of connection points: 8
#     Node 10, Type 1, BuildingBlock: GIZVER_clean_sbu_0, # of connection points: 8
#     Edge 11, Type (0, 1), BuildingBlock: CIFDUS_clean_linker_0, # of connection points: 2
#     Edge 12, Type (0, 1), BuildingBlock: CIFDUS_clean_linker_0, # of connection points: 2
#     Edge 13, Type (0, 1), BuildingBlock: CIFDUS_clean_linker_0, # of connection points: 2
#     Edge 14, Type (0, 1), BuildingBlock: CIFDUS_clean_linker_0, # of connection points: 2
#     Edge 15, Type (0, 1), BuildingBlock: CIFDUS_clean_linker_0, # of connection points: 2
#     Edge 16, Type (0, 1), BuildingBlock: CIFDUS_clean_linker_0, # of connection points: 2
#     Edge 17, Type (0, 1), BuildingBlock: CIFDUS_clean_linker_0, # of connection points: 2
#     Edge 18, Type (0, 1), BuildingBlock: CIFDUS_clean_linker_0, # of connection points: 2
#     Edge 19, Type (0, 1), BuildingBlock: CIFDUS_clean_linker_0, # of connection points: 2
#     Edge 20, Type (0, 1), BuildingBlock: CIFDUS_clean_linker_0, # of connection points: 2
#     Edge 21, Type (0, 1), BuildingBlock: CIFDUS_clean_linker_0, # of connection points: 2
#     Edge 22, Type (0, 1), BuildingBlock: CIFDUS_clean_linker_0, # of connection points: 2
#     Edge 23, Type (0, 1), BuildingBlock: CIFDUS_clean_linker_0, # of connection points: 2
#     Edge 24, Type (0, 1), BuildingBlock: CIFDUS_clean_linker_0, # of connection points: 2
#     Edge 25, Type (0, 1), BuildingBlock: CIFDUS_clean_linker_0, # of connection points: 2
#     Edge 26, Type (0, 1), BuildingBlock: CIFDUS_clean_linker_0, # of connection points: 2
#     Edge 27, Type (0, 1), BuildingBlock: CIFDUS_clean_linker_0, # of connection points: 2
#     Edge 28, Type (0, 1), BuildingBlock: CIFDUS_clean_linker_0, # of connection points: 2
#     Edge 29, Type (0, 1), BuildingBlock: CIFDUS_clean_linker_0, # of connection points: 2
#     Edge 30, Type (0, 1), BuildingBlock: CIFDUS_clean_linker_0, # of connection points: 2
#     Edge 31, Type (0, 1), BuildingBlock: CIFDUS_clean_linker_0, # of connection points: 2
#     Edge 32, Type (0, 1), BuildingBlock: CIFDUS_clean_linker_0, # of connection points: 2
#     Edge 33, Type (0, 1), BuildingBlock: CIFDUS_clean_linker_0, # of connection points: 2
#     Edge 34, Type (0, 1), BuildingBlock: CIFDUS_clean_linker_0, # of connection points: 2
# Relax obj value: 0.051
# Max RMSD: 0.137
# Mean RMSD: 0.076
data_MOF--net-the--node1-GIZVER_clean_sbu_0--node2-ESEHIV_clean_linker_0--edge1-CIFDUS_clean_linker_0
_symmetry_space_group_name_H-M    P1
_symmetry_Int_Tables_number       1
_symmetry_cell_setting            triclinic
loop_
_symmetry_equiv_pos_as_xyz
'x, y, z'
_cell_length_a     34.378008
_cell_length_b     32.397543
_cell_length_c     29.720834
_cell_angle_alpha  85.820367
_cell_angle_beta   97.35515
_cell_angle_gamma 106.57809
loop_
_atom_site_label
_atom_site_type_symbol
_atom_site_fract_x
_atom_site_fract_y
_atom_site_fract_z
_atom_type_partial_charge
H0 H 0.31013 0.40752 0.38326 0.0
H1 H 0.40407 0.3427 0.39442 0.0
H2 H 0.32454 0.32384 0.49946 0.0
C3 C 0.32671 0.3868 0.40234 0.0
C4 C 0.31498 0.36809 0.44423 0.0
C5 C 0.35914 0.37816 0.38455 0.0
C6 C 0.38002 0.35086 0.40908 0.0
C7 C 0.36739 0.33082 0.45031 0.0
C8 C 0.33499 0.33983 0.46808 0.0
H9 H 0.74076 0.29382 0.37379 0.0
H10 H 0.74608 0.38616 0.26112 0.0
H11 H 0.63308 0.29088 0.28256 0.0
C12 C 0.72598 0.30658 0.34387 0.0
C13 C 0.68445 0.28694 0.33027 0.0
C14 C 0.74858 0.34292 0.31996 0.0
C15 C 0.72891 0.35901 0.28055 0.0
C16 C 0.68736 0.33917 0.2656 0.0
C17 C 0.66555 0.30423 0.29178 0.0
H18 H 0.67167 0.7604 0.28088 0.0
H19 H 0.74947 0.67595 0.31057 0.0
H20 H 0.74001 0.75837 0.41219 0.0
C21 C 0.69307 0.74769 0.30356 0.0
C22 C 0.70319 0.76241 0.34815 0.0
C23 C 0.70902 0.71602 0.28894 0.0
C24 C 0.73774 0.70158 0.31942 0.0
C25 C 0.74998 0.71786 0.36302 0.0
C26 C 0.73247 0.74801 0.3775 0.0
H27 H 0.2946 0.72019 0.38139 0.0
H28 H 0.39473 0.73528 0.30296 0.0
H29 H 0.28388 0.63484 0.27275 0.0
C30 C 0.30643 0.71097 0.35277 0.0
C31 C 0.28387 0.67424 0.32848 0.0
C32 C 0.34598 0.73386 0.34271 0.0
C33 C 0.3634 0.71927 0.30883 0.0
C34 C 0.34111 0.68334 0.28358 0.0
C35 C 0.30095 0.66241 0.2924 0.0
H36 H 0.31434 0.73055 0.65657 0.0
H37 H 0.31401 0.63951 0.76927 0.0
H38 H 0.4103 0.7582 0.76678 0.0
C39 C 0.32777 0.72222 0.68973 0.0
C40 C 0.36475 0.74967 0.70942 0.0
C41 C 0.30942 0.68237 0.71118 0.0
C42 C 0.32824 0.67025 0.75324 0.0
C43 C 0.36503 0.69735 0.77413 0.0
C44 C 0.38215 0.73705 0.75178 0.0
H45 H 0.29487 0.34151 0.7619 0.0
H46 H 0.37101 0.25556 0.77578 0.0
H47 H 0.28326 0.25274 0.65769 0.0
C48 C 0.3034 0.31485 0.74985 0.0
C49 C 0.28477 0.29791 0.70784 0.0
C50 C 0.33499 0.30035 0.77454 0.0
C51 C 0.34602 0.2663 0.75766 0.0
C52 C 0.32718 0.24834 0.71567 0.0
C53 C 0.29613 0.26412 0.69127 0.0
H54 H 0.66703 0.31464 0.73297 0.0
H55 H 0.76697 0.30078 0.66811 0.0
H56 H 0.78485 0.40541 0.75785 0.0
C57 C 0.69911 0.32542 0.72793 0.0
C58 C 0.72483 0.3615 0.75059 0.0
C59 C 0.71414 0.30349 0.69809 0.0
C60 C 0.75573 0.31766 0.69141 0.0
C61 C 0.78199 0.35477 0.71264 0.0
C62 C 0.766 0.37594 0.74259 0.0
H63 H 0.67436 0.72097 0.65506 0.0
H64 H 0.75503 0.64026 0.6684 0.0
H65 H 0.77999 0.75518 0.58189 0.0
C66 C 0.7008 0.71346 0.64517 0.0
C67 C 0.72562 0.74199 0.61572 0.0
C68 C 0.71145 0.67696 0.66451 0.0
C69 C 0.74647 0.6683 0.65309 0.0
C70 C 0.77108 0.6962 0.62301 0.0
C71 C 0.7609 0.73338 0.60487 0.0
Co72 Co 0.09971 0.46066 0.54519 0.0
Co73 Co 0.0628 0.45385 0.46123 0.0
Co74 Co 0.02768 0.51375 0.51279 0.0
O75 O 0.04635 0.46056 0.51678 0.0
H76 H 0.0255 0.43506 0.52505 0.0
O77 O 1.00803 0.56615 0.51066 0.0
Co78 Co 0.95207 0.56405 0.48903 0.0
Co79 Co 0.99549 0.56909 0.57114 0.0
H80 H 0.0278 0.59209 0.50135 0.0
O81 O 0.07146 0.40273 0.44486 0.0
O82 O 0.11578 0.45579 0.48502 0.0
O83 O 0.06798 0.50176 0.41814 0.0
O84 O 0.06938 0.54736 0.47098 0.0
O85 O 0.98698 0.48976 0.45891 0.0
O86 O 0.9021 0.56752 0.46991 0.0
O87 O 0.95927 0.62202 0.48411 0.0
O88 O 0.93704 0.50363 0.48892 0.0
O89 O 0.98612 0.48002 0.55367 0.0
O90 O 0.99372 0.51945 0.61327 0.0
O91 O 0.94078 0.5614 0.55214 0.0
O92 O 0.98173 0.6166 0.59161 0.0
C93 C 0.12754 0.41518 0.5738 0.0
C94 C 0.1068 0.54318 0.56593 0.0
C95 C 0.07915 0.53956 0.43297 0.0
C96 C 0.10798 0.41996 0.46429 0.0
C97 C 0.92018 0.60863 0.47056 0.0
C98 C 0.94886 0.48574 0.45877 0.0
C99 C 0.97927 0.48372 0.59412 0.0
C100 C 0.94544 0.5952 0.57499 0.0
O101 O 0.14693 0.4559 0.57177 0.0
O102 O 0.08927 0.40244 0.55655 0.0
O103 O 0.06863 0.53889 0.56597 0.0
O104 O 0.1183 0.52112 0.53944 0.0
Co105 Co 0.56492 0.9461 0.48901 0.0
Co106 Co 0.59243 0.98067 0.56931 0.0
Co107 Co 0.52335 0.02057 0.52231 0.0
O108 O 0.57163 1.00099 0.51294 0.0
H109 H 0.59268 0.02351 0.5 0.0
O110 O 0.47564 0.0412 0.5322 0.0
Co111 Co 0.48592 0.09684 0.55792 0.0
Co112 Co 0.45572 0.06448 0.47728 0.0
H113 H 0.45429 0.01908 0.54523 0.0
O114 O 0.64274 0.96599 0.57974 0.0
O115 O 0.58239 0.92548 0.54938 0.0
O116 O 0.55842 0.97254 0.61798 0.0
O117 O 0.50365 0.97364 0.57013 0.0
O118 O 0.56021 0.06024 0.56948 0.0
O119 O 0.49166 0.14596 0.58322 0.0
O120 O 0.43706 0.08754 0.58079 0.0
O121 O 0.53825 0.11422 0.53946 0.0
O122 O 0.54311 0.06683 0.47415 0.0
O123 O 0.48944 0.07473 0.42757 0.0
O124 O 0.46433 0.11864 0.49978 0.0
O125 O 0.40454 0.07605 0.46975 0.0
C126 C 0.60097 0.91786 0.45894 0.0
C127 C 0.4842 0.94028 0.47742 0.0
C128 C 0.51999 0.96072 0.60757 0.0
C129 C 0.62002 0.92928 0.56481 0.0
C130 C 0.45548 0.12651 0.59452 0.0
C131 C 0.56476 0.1008 0.56515 0.0
C132 C 0.52775 0.08157 0.43717 0.0
C133 C 0.42584 0.11262 0.4864 0.0
O134 O 0.56357 0.89687 0.4652 0.0
O135 O 0.61589 0.95739 0.47225 0.0
O136 O 0.4868 0.98057 0.47481 0.0
O137 O 0.51108 0.92732 0.50292 0.0
Co138 Co 0.4984 0.53906 0.11396 0.0
Co139 Co 0.47673 0.45863 0.08848 0.0
Co140 Co 0.53077 0.52045 1.01654 0.0
O141 O 0.48573 0.51159 0.056 0.0
H142 H 0.46063 0.51477 0.03934 0.0
O143 O 0.57668 0.52991 0.97877 0.0
Co144 Co 0.56785 0.50536 0.92069 0.0
Co145 Co 0.58501 0.5835 0.94891 0.0
H146 H 0.60166 0.5274 0.99626 0.0
O147 O 0.42953 0.43471 0.11829 0.0
O148 O 0.4873 0.48247 0.14537 0.0
O149 O 0.51766 0.42807 0.08822 0.0
O150 O 0.56176 0.48461 0.05827 0.0
O151 O 0.4974 0.46893 0.98008 0.0
O152 O 0.56301 0.48205 0.86768 0.0
O153 O 0.61898 0.4997 0.91847 0.0
O154 O 0.51339 0.50551 0.91619 0.0
O155 O 0.49949 0.55612 0.97554 0.0
O156 O 0.5427 0.6131 0.94558 0.0
O157 O 0.58335 0.56394 0.89156 0.0
O158 O 0.63589 0.61043 0.93152 0.0
C159 C 0.46725 0.5634 0.15549 0.0
C160 C 0.5739 0.57063 0.09276 0.0
C161 C 0.55387 0.44857 0.081 0.0
C162 C 0.45167 0.45708 0.15162 0.0
C163 C 0.60081 0.48267 0.88 0.0
C164 C 0.49014 0.47428 0.93691 0.0
C165 C 0.50672 0.5923 0.95326 0.0
C166 C 0.62017 0.59006 0.89451 0.0
O167 O 0.50538 0.56454 0.16646 0.0
O168 O 0.44755 0.54388 0.11884 0.0
O169 O 0.56356 0.57306 0.05023 0.0
O170 O 0.55328 0.53969 0.11591 0.0
H171 H 0.2363 0.32914 0.41827 0.0
H172 H 0.31588 0.42597 0.50567 0.0
H173 H 0.25734 0.44898 0.52229 0.0
H174 H 0.18577 0.44706 0.50392 0.0
H175 H 0.1051 0.34905 0.41788 0.0
H176 H 0.16225 0.32106 0.40798 0.0
C177 C 0.24038 0.35461 0.44168 0.0
C178 C 0.27971 0.37614 0.46081 0.0
C179 C 0.20683 0.36783 0.45043 0.0
C180 C 0.28547 0.40917 0.49093 0.0
C181 C 0.2522 0.42241 0.50006 0.0
C182 C 0.18031 0.41899 0.4838 0.0
C183 C 0.14126 0.40028 0.46152 0.0
C184 C 0.21301 0.40284 0.4788 0.0
C185 C 0.13495 0.36417 0.43522 0.0
C186 C 0.16756 0.34813 0.42957 0.0
H187 H 0.62176 0.21839 0.2976 0.0
H188 H 0.6923 0.26921 0.4226 0.0
H189 H 0.65306 0.20785 0.46518 0.0
H190 H 0.59639 0.14179 0.46798 0.0
H191 H 0.51999 0.09586 0.34496 0.0
H192 H 0.56337 0.15377 0.3007 0.0
C193 C 0.62839 0.2166 0.33421 0.0
C194 C 0.66044 0.24884 0.35645 0.0
C195 C 0.60449 0.182 0.35897 0.0
C196 C 0.66871 0.24482 0.404 0.0
C197 C 0.64593 0.2098 0.42862 0.0
C198 C 0.58956 0.1441 0.43137 0.0
C199 C 0.55538 0.11424 0.4096 0.0
C200 C 0.61362 0.17839 0.40653 0.0
C201 C 0.54629 0.11829 0.36236 0.0
C202 C 0.57103 0.15144 0.33714 0.0
H203 H 0.83284 0.7448 0.37757 0.0
H204 H 0.72762 0.64675 0.41718 0.0
H205 H 0.77185 0.60585 0.45821 0.0
H206 H 0.83942 0.59395 0.47444 0.0
H207 H 0.94562 0.69154 0.43599 0.0
H208 H 0.90225 0.73708 0.40319 0.0
C209 C 0.81991 0.71499 0.39619 0.0
C210 C 0.77727 0.69859 0.39468 0.0
C211 C 0.84559 0.69144 0.41921 0.0
C212 C 0.76046 0.65986 0.41835 0.0
C213 C 0.78568 0.63642 0.44146 0.0
C214 C 0.85318 0.62544 0.4594 0.0
C215 C 0.89554 0.6391 0.45685 0.0
C216 C 0.82815 0.65123 0.44083 0.0
C217 C 0.91303 0.68025 0.43805 0.0
C218 C 0.88822 0.70617 0.41916 0.0
H219 H 0.34632 0.81889 0.34284 0.0
H220 H 0.40417 0.72537 0.40906 0.0
H221 H 0.45015 0.78057 0.4577 0.0
H222 H 0.47521 0.8547 0.47972 0.0
H223 H 0.42124 0.95137 0.41326 0.0
H224 H 0.37211 0.89566 0.36656 0.0
C225 C 0.3689 0.81085 0.36819 0.0
C226 C 0.37198 0.76819 0.37264 0.0
C227 C 0.39581 0.84319 0.39579 0.0
C228 C 0.40138 0.75796 0.40524 0.0
C229 C 0.42762 0.7895 0.43296 0.0
C230 C 0.45272 0.864 0.45518 0.0
C231 C 0.45216 0.90749 0.45008 0.0
C232 C 0.42531 0.83216 0.42828 0.0
C233 C 0.42248 0.91829 0.41803 0.0
C234 C 0.39445 0.8864 0.39125 0.0
H235 H 0.23401 0.6935 0.67915 0.0
H236 H 0.30394 0.60125 0.6889 0.0
H237 H 0.24755 0.55042 0.6457 0.0
H238 H 0.17965 0.53294 0.60296 0.0
H239 H 0.10617 0.62138 0.5967 0.0
H240 H 0.16228 0.67281 0.64088 0.0
C241 C 0.23665 0.66214 0.67196 0.0
C242 C 0.27326 0.65121 0.68716 0.0
C243 C 0.20349 0.63246 0.64772 0.0
C244 C 0.27615 0.61036 0.67786 0.0
C245 C 0.24393 0.58133 0.65301 0.0
C246 C 0.17566 0.56331 0.61144 0.0
C247 C 0.13874 0.57333 0.59616 0.0
C248 C 0.20764 0.59213 0.63748 0.0
C249 C 0.13414 0.61275 0.60806 0.0
C250 C 0.16635 0.64223 0.63316 0.0
H251 H 0.40681 0.2538 0.71217 0.0
H252 H 0.28526 0.1757 0.66885 0.0
H253 H 0.31369 0.12963 0.62846 0.0
H254 H 0.37386 0.11309 0.60338 0.0
H255 H 0.49456 0.19362 0.64717 0.0
H256 H 0.4657 0.23653 0.68977 0.0
C257 C 0.38644 0.22615 0.69478 0.0
C258 C 0.34397 0.21797 0.69407 0.0
C259 C 0.40292 0.20019 0.67144 0.0
C260 C 0.31812 0.18273 0.67 0.0
C261 C 0.33436 0.15636 0.64692 0.0
C262 C 0.39372 0.13972 0.6227 0.0
C263 C 0.43632 0.15 0.62204 0.0
C264 C 0.37682 0.16496 0.64708 0.0
C265 C 0.46166 0.18501 0.64679 0.0
C266 C 0.44522 0.20966 0.67132 0.0
H267 H 0.81111 0.35404 0.63086 0.0
H268 H 0.85006 0.40024 0.76667 0.0
H269 H 0.91531 0.44286 0.74297 0.0
H270 H 0.95924 0.47219 0.6817 0.0
H271 H 0.92188 0.41991 0.54836 0.0
H272 H 0.85906 0.37354 0.57385 0.0
C273 C 0.83404 0.37223 0.65595 0.0
C274 C 0.82463 0.37441 0.70037 0.0
C275 C 0.87215 0.39589 0.64251 0.0
C276 C 0.85537 0.39889 0.73176 0.0
C277 C 0.89304 0.42314 0.71836 0.0
C278 C 0.9377 0.45008 0.65848 0.0
C279 C 0.9453 0.45017 0.61301 0.0
C280 C 0.90139 0.42284 0.67345 0.0
C281 C 0.91709 0.42087 0.58354 0.0
C282 C 0.88085 0.39436 0.598 0.0
H283 H 0.65305 0.74827 0.57519 0.0
H284 H 0.7752 0.82442 0.61884 0.0
H285 H 0.75416 0.89069 0.60303 0.0
H286 H 0.69875 0.92582 0.58542 0.0
H287 H 0.57618 0.84762 0.54494 0.0
H288 H 0.59968 0.78344 0.55068 0.0
C289 C 0.67508 0.77949 0.58066 0.0
C290 C 0.71527 0.78177 0.59865 0.0
C291 C 0.6626 0.817 0.57258 0.0
C292 C 0.74398 0.82215 0.60496 0.0
C293 C 0.7319 0.85991 0.59631 0.0
C294 C 0.67733 0.89476 0.57767 0.0
C295 C 0.63577 0.89147 0.56547 0.0
C296 C 0.69092 0.85759 0.58159 0.0
C297 C 0.60836 0.8511 0.55478 0.0
C298 C 0.62169 0.81426 0.55802 0.0
H299 H 0.32507 0.24819 0.46283 0.0
H300 H 0.44655 0.33492 0.47994 0.0
H301 H 0.47511 0.27382 0.49892 0.0
H302 H 0.46586 0.19619 0.50038 0.0
H303 H 0.34478 0.10912 0.47588 0.0
H304 H 0.31539 0.16998 0.4704 0.0
C305 C 0.35767 0.25356 0.47194 0.0
C306 C 0.38386 0.2956 0.47033 0.0
C307 C 0.37381 0.21832 0.48067 0.0
C308 C 0.42608 0.3026 0.48123 0.0
C309 C 0.4423 0.26777 0.49176 0.0
C310 C 0.43299 0.19041 0.49438 0.0
C311 C 0.40751 0.14835 0.48779 0.0
C312 C 0.41654 0.2255 0.48995 0.0
C313 C 0.36501 0.14134 0.48033 0.0
C314 C 0.34823 0.17607 0.47729 0.0
H315 H 0.78843 0.42937 0.32444 0.0
H316 H 0.8075 0.30407 0.35654 0.0
H317 H 0.87349 0.33712 0.39867 0.0
H318 H 0.92272 0.40142 0.43424 0.0
H319 H 0.90446 0.52644 0.39974 0.0
H320 H 0.84228 0.49408 0.35043 0.0
C321 C 0.80737 0.40928 0.33964 0.0
C322 C 0.79216 0.36407 0.33801 0.0
C323 C 0.8457 0.42857 0.36389 0.0
C324 C 0.81756 0.33884 0.35819 0.0
C325 C 0.85558 0.35775 0.38224 0.0
C326 C 0.90573 0.42155 0.41481 0.0
C327 C 0.918 0.46626 0.42093 0.0
C328 C 0.86953 0.40253 0.38653 0.0
C329 C 0.89534 0.49191 0.39606 0.0
C330 C 0.8597 0.47339 0.36781 0.0
H331 H 0.73146 0.83558 0.39753 0.0
H332 H 0.62095 0.74692 0.33784 0.0
H333 H 0.58 0.78739 0.36623 0.0
H334 H 0.57509 0.84715 0.40848 0.0
H335 H 0.68459 0.93763 0.46737 0.0
H336 H 0.72637 0.89738 0.43902 0.0
C337 C 0.69844 0.82528 0.3908 0.0
C338 C 0.67932 0.78851 0.36525 0.0
C339 C 0.67488 0.849 0.40704 0.0
C340 C 0.63647 0.7755 0.35672 0.0
C341 C 0.61298 0.79848 0.37316 0.0
C342 C 0.60813 0.85823 0.41496 0.0
C343 C 0.62672 0.89542 0.43978 0.0
C344 C 0.63181 0.83522 0.3983 0.0
C345 C 0.66955 0.90937 0.44783 0.0
C346 C 0.69343 0.88622 0.43185 0.0
H347 H 0.22256 0.69472 0.36705 0.0
H348 H 0.25826 0.58629 0.32676 0.0
H349 H 0.19623 0.53729 0.34966 0.0
H350 H 0.13374 0.52351 0.38445 0.0
H351 H 0.10007 0.62831 0.43526 0.0
H352 H 0.1594 0.68007 0.40546 0.0
C353 C 0.2169 0.66041 0.36337 0.0
C354 C 0.24506 0.64489 0.3436 0.0
C355 C 0.1814 0.63149 0.37864 0.0
C356 C 0.23683 0.6 0.33967 0.0
C357 C 0.20137 0.57154 0.3534 0.0
C358 C 0.13877 0.55774 0.38837 0.0
C359 C 0.11201 0.57205 0.41132 0.0
C360 C 0.17357 0.58684 0.37296 0.0
C361 C 0.11994 0.61648 0.41724 0.0
C362 C 0.15398 0.64601 0.4004 0.0
H363 H 0.44741 0.78527 0.71134 0.0
H364 H 0.33294 0.8068 0.65243 0.0
H365 H 0.37032 0.87433 0.61628 0.0
H366 H 0.43622 0.92798 0.60224 0.0
H367 H 0.54864 0.90805 0.67041 0.0
H368 H 0.51084 0.84056 0.70434 0.0
C369 C 0.43007 0.80503 0.69197 0.0
C370 C 0.38698 0.79066 0.68569 0.0
C371 C 0.4515 0.84478 0.67338 0.0
C372 C 0.36597 0.81638 0.65793 0.0
C373 C 0.38737 0.85541 0.63759 0.0
C374 C 0.45235 0.90921 0.62514 0.0
C375 C 0.4954 0.92347 0.63363 0.0
C376 C 0.43023 0.87012 0.64532 0.0
C377 C 0.51566 0.89847 0.66335 0.0
C378 C 0.49407 0.85947 0.68255 0.0
H379 H 0.2034 0.27149 0.67487 0.0
H380 H 0.31209 0.37844 0.67393 0.0
H381 H 0.27335 0.42281 0.62959 0.0
H382 H 0.20876 0.43303 0.59611 0.0
H383 H 0.09803 0.32856 0.59711 0.0
H384 H 0.13729 0.28119 0.6362 0.0
C385 C 0.21837 0.30438 0.66447 0.0
C386 C 0.26036 0.322 0.67785 0.0
C387 C 0.19559 0.33013 0.63948 0.0
C388 C 0.27971 0.36454 0.66428 0.0
C389 C 0.25761 0.38987 0.639 0.0
C390 C 0.19295 0.39987 0.60472 0.0
C391 C 0.15036 0.38457 0.59431 0.0
C392 C 0.2155 0.3733 0.62728 0.0
C393 C 0.13076 0.34126 0.60505 0.0
C394 C 0.15321 0.31423 0.62746 0.0
H395 H 0.71294 0.2186 0.69147 0.0
H396 H 0.64966 0.31285 0.64091 0.0
H397 H 0.59948 0.25908 0.59443 0.0
H398 H 0.57273 0.18591 0.56923 0.0
H399 H 0.6316 0.0884 0.62145 0.0
H400 H 0.68447 0.14272 0.66597 0.0
C401 C 0.68819 0.22715 0.67008 0.0
C402 C 0.68489 0.26964 0.66966 0.0
C403 C 0.6587 0.19557 0.64387 0.0
C404 C 0.65263 0.28036 0.64203 0.0
C405 C 0.62398 0.24966 0.61539 0.0
C406 C 0.597 0.17617 0.5903 0.0
C407 C 0.59796 0.13287 0.59194 0.0
C408 C 0.62655 0.20719 0.61626 0.0
C409 C 0.62995 0.12138 0.61952 0.0
C410 C 0.66019 0.15249 0.64501 0.0
H411 H 0.7745 0.62104 0.59402 0.0
H412 H 0.84884 0.7493 0.62559 0.0
H413 H 0.91023 0.72978 0.61251 0.0
H414 H 0.9427 0.67453 0.59626 0.0
H415 H 0.86697 0.54631 0.56531 0.0
H416 H 0.80607 0.56742 0.57433 0.0
C417 C 0.80421 0.64464 0.59797 0.0
C418 C 0.80755 0.6862 0.61121 0.0
C419 C 0.839 0.63311 0.59091 0.0
C420 C 0.84583 0.71702 0.61536 0.0
C421 C 0.88082 0.70581 0.60819 0.0
C422 C 0.91285 0.65131 0.59171 0.0
C423 C 0.90927 0.60893 0.58066 0.0
C424 C 0.87781 0.66368 0.59675 0.0
C425 C 0.87046 0.57916 0.57406 0.0
C426 C 0.83561 0.59113 0.57915 0.0
H427 H 0.43106 0.42841 0.35995 0.0
H428 H 0.30813 0.36276 0.30649 0.0
H429 H 0.32508 0.38312 0.22887 0.0
H430 H 0.37632 0.41572 0.17641 0.0
H431 H 0.49866 0.48399 0.23056 0.0
H432 H 0.4804 0.4671 0.30761 0.0
C433 C 0.40806 0.41901 0.33116 0.0
C434 C 0.36864 0.39403 0.33842 0.0
C435 C 0.41792 0.43119 0.28688 0.0
C436 C 0.3387 0.38215 0.30129 0.0
C437 C 0.34841 0.39363 0.25706 0.0
C438 C 0.39886 0.42711 0.20508 0.0
C439 C 0.4389 0.4504 0.19776 0.0
C440 C 0.38813 0.41755 0.24943 0.0
C441 C 0.46764 0.46564 0.23522 0.0
C442 C 0.45732 0.45594 0.27937 0.0
H443 H 0.36331 0.61479 0.80913 0.0
H444 H 0.41828 0.74899 0.83953 0.0
H445 H 0.46746 0.7291 0.89615 0.0
H446 H 0.49956 0.67391 0.93278 0.0
H447 H 0.43449 0.54 0.91712 0.0
H448 H 0.38409 0.5595 0.86028 0.0
C449 C 0.38509 0.63999 0.8286 0.0
C450 C 0.38811 0.68382 0.81686 0.0
C451 C 0.41197 0.62832 0.86402 0.0
C452 C 0.41656 0.71515 0.84434 0.0
C453 C 0.44462 0.70384 0.87773 0.0
C454 C 0.47393 0.64908 0.91751 0.0
C455 C 0.47181 0.60546 0.92763 0.0
C456 C 0.44354 0.66059 0.88682 0.0
C457 C 0.43766 0.57374 0.90866 0.0
C458 C 0.40868 0.5849 0.87626 0.0
H459 H 0.36091 0.3869 0.7794 0.0
H460 H 0.36777 0.27071 0.85641 0.0
H461 H 0.41317 0.31403 0.91699 0.0
H462 H 0.4546 0.38619 0.94567 0.0
H463 H 0.44844 0.49979 0.86281 0.0
H464 H 0.39779 0.45644 0.80842 0.0
C465 C 0.3713 0.37078 0.8099 0.0
C466 C 0.36037 0.32553 0.81344 0.0
C467 C 0.3974 0.3957 0.84406 0.0
C468 C 0.37568 0.30552 0.85267 0.0
C469 C 0.40154 0.33032 0.8874 0.0
C470 C 0.44131 0.40131 0.91627 0.0
C471 C 0.45473 0.44644 0.9091 0.0
C472 C 0.41309 0.37563 0.88328 0.0
C473 C 0.43808 0.46541 0.87003 0.0
C474 C 0.40937 0.44055 0.83839 0.0
H475 H 0.65563 0.38707 0.73231 0.0
H476 H 0.75716 0.39171 0.83505 0.0
H477 H 0.72946 0.43175 0.8837 0.0
H478 H 0.67457 0.46348 0.898 0.0
H479 H 0.57377 0.45826 0.79358 0.0
H480 H 0.60298 0.42077 0.745 0.0
C481 C 0.67154 0.39655 0.7655 0.0
C482 C 0.70813 0.38596 0.78022 0.0
C483 C 0.65558 0.41969 0.79309 0.0
C484 C 0.72889 0.39943 0.82291 0.0
C485 C 0.71302 0.42228 0.85077 0.0
C486 C 0.65925 0.45447 0.86448 0.0
C487 C 0.62179 0.46348 0.84984 0.0
C488 C 0.6762 0.43244 0.83634 0.0
C489 C 0.60242 0.45153 0.80615 0.0
C490 C 0.61907 0.42996 0.77816 0.0
H491 H 0.74233 0.65882 0.74884 0.0
H492 H 0.6294 0.63865 0.66065 0.0
H493 H 0.59092 0.60418 0.72386 0.0
H494 H 0.58941 0.5871 0.80582 0.0
H495 H 0.70245 0.61417 0.89466 0.0
H496 H 0.74113 0.63799 0.82955 0.0
C497 C 0.70936 0.64599 0.74337 0.0
C498 C 0.68856 0.65098 0.70045 0.0
C499 C 0.68758 0.62783 0.78005 0.0
C500 C 0.64584 0.63507 0.69365 0.0
C501 C 0.62394 0.61551 0.7297 0.0
C502 C 0.62253 0.59762 0.81072 0.0
C503 C 0.64316 0.59935 0.85479 0.0
C504 C 0.64444 0.61279 0.77332 0.0
C505 C 0.68601 0.61314 0.86095 0.0
C506 C 0.7081 0.62672 0.8238 0.0
H507 H 0.63371 0.70777 0.2392 0.0
H508 H 0.74744 0.67615 0.23581 0.0
H509 H 0.71663 0.63042 0.17216 0.0
H510 H 0.65467 0.59289 0.1227 0.0
H511 H 0.54525 0.63309 0.11941 0.0
H512 H 0.57799 0.6837 0.17929 0.0
C513 C 0.65278 0.69248 0.22407 0.0
C514 C 0.69283 0.69482 0.24427 0.0
C515 C 0.63558 0.66767 0.18587 0.0
C516 C 0.71597 0.67371 0.22317 0.0
C517 C 0.69855 0.6478 0.18608 0.0
C518 C 0.63866 0.61392 0.13408 0.0
C519 C 0.59762 0.6092 0.11732 0.0
C520 C 0.65797 0.6435 0.16802 0.0
C521 C 0.57687 0.63621 0.13226 0.0
C522 C 0.5955 0.66493 0.1666 0.0
H523 H 0.41418 0.66527 0.29944 0.0
H524 H 0.31118 0.65588 0.19757 0.0
H525 H 0.33993 0.6165 0.1494 0.0
H526 H 0.3942 0.58349 0.13678 0.0
H527 H 0.49662 0.59304 0.2399 0.0
H528 H 0.46821 0.63313 0.28678 0.0
C529 C 0.39839 0.6553 0.26633 0.0
C530 C 0.36077 0.66389 0.25199 0.0
C531 C 0.41478 0.63208 0.23917 0.0
C532 C 0.34024 0.64977 0.2094 0.0
C533 C 0.3566 0.62711 0.18191 0.0
C534 C 0.41011 0.59407 0.16964 0.0
C535 C 0.44751 0.58506 0.18465 0.0
C536 C 0.3937 0.61764 0.19661 0.0
C537 C 0.46783 0.59941 0.22728 0.0
C538 C 0.45167 0.62254 0.2542 0.0
H539 H 0.69399 0.42212 0.22986 0.0
H540 H 0.63131 0.28872 0.20408 0.0
H541 H 0.58594 0.31037 0.14343 0.0
H542 H 0.55909 0.36693 0.10236 0.0
H543 H 0.62467 0.50027 0.12218 0.0
H544 H 0.67399 0.47897 0.17924 0.0
C545 C 0.67103 0.39775 0.2104 0.0
C546 C 0.66537 0.35375 0.22311 0.0
C547 C 0.64522 0.4104 0.17431 0.0
C548 C 0.63554 0.32286 0.19671 0.0
C549 C 0.60958 0.33515 0.16159 0.0
C550 C 0.58468 0.39126 0.11849 0.0
C551 C 0.58798 0.43508 0.10812 0.0
C552 C 0.61328 0.37879 0.15095 0.0
C553 C 0.62149 0.46625 0.12921 0.0
C554 C 0.64958 0.45409 0.16222 0.0
loop_
_geom_bond_atom_site_label_1
_geom_bond_atom_site_label_2
_geom_bond_distance
_geom_bond_site_symmetry_2
_ccdc_geom_bond_type
H0 C3 0.931 . S
H1 C6 0.928 . S
H2 C8 0.930 . S
C3 H0 0.931 . S
C3 C4 1.413 . S
C3 C5 1.360 . S
C4 C3 1.413 . S
C4 C8 1.429 . S
C5 C3 1.360 . S
C5 C6 1.372 . S
C6 H1 0.928 . S
C6 C5 1.372 . S
C6 C7 1.404 . S
C7 C6 1.404 . S
C7 C8 1.391 . S
C8 H2 0.930 . S
C8 C4 1.429 . S
C8 C7 1.391 . S
H9 C12 0.931 . S
H10 C15 0.928 . S
H11 C17 0.930 . S
C12 H9 0.931 . S
C12 C13 1.413 . S
C12 C14 1.360 . S
C13 C12 1.413 . S
C13 C17 1.429 . S
C14 C12 1.360 . S
C14 C15 1.372 . S
C15 H10 0.928 . S
C15 C14 1.372 . S
C15 C16 1.404 . S
C16 C15 1.404 . S
C16 C17 1.391 . S
C17 H11 0.930 . S
C17 C13 1.429 . S
C17 C16 1.391 . S
H18 C21 0.931 . S
H19 C24 0.928 . S
H20 C26 0.930 . S
C21 H18 0.931 . S
C21 C22 1.413 . S
C21 C23 1.360 . S
C22 C21 1.413 . S
C22 C26 1.429 . S
C23 C21 1.360 . S
C23 C24 1.372 . S
C24 H19 0.928 . S
C24 C23 1.372 . S
C24 C25 1.404 . S
C25 C24 1.404 . S
C25 C26 1.391 . S
C26 H20 0.930 . S
C26 C22 1.429 . S
C26 C25 1.391 . S
H27 C30 0.931 . S
H28 C33 0.928 . S
H29 C35 0.930 . S
C30 H27 0.931 . S
C30 C31 1.413 . S
C30 C32 1.360 . S
C31 C30 1.413 . S
C31 C35 1.429 . S
C32 C30 1.360 . S
C32 C33 1.372 . S
C33 H28 0.928 . S
C33 C32 1.372 . S
C33 C34 1.404 . S
C34 C33 1.404 . S
C34 C35 1.391 . S
C35 H29 0.930 . S
C35 C31 1.429 . S
C35 C34 1.391 . S
H36 C39 0.931 . S
H37 C42 0.928 . S
H38 C44 0.930 . S
C39 H36 0.931 . S
C39 C40 1.413 . S
C39 C41 1.360 . S
C40 C39 1.413 . S
C40 C44 1.429 . S
C41 C39 1.360 . S
C41 C42 1.372 . S
C42 H37 0.928 . S
C42 C41 1.372 . S
C42 C43 1.404 . S
C43 C42 1.404 . S
C43 C44 1.391 . S
C44 H38 0.930 . S
C44 C40 1.429 . S
C44 C43 1.391 . S
H45 C48 0.931 . S
H46 C51 0.928 . S
H47 C53 0.930 . S
C48 H45 0.931 . S
C48 C49 1.413 . S
C48 C50 1.360 . S
C49 C48 1.413 . S
C49 C53 1.429 . S
C50 C48 1.360 . S
C50 C51 1.372 . S
C51 H46 0.928 . S
C51 C50 1.372 . S
C51 C52 1.404 . S
C52 C51 1.404 . S
C52 C53 1.391 . S
C53 H47 0.930 . S
C53 C49 1.429 . S
C53 C52 1.391 . S
H54 C57 0.931 . S
H55 C60 0.928 . S
H56 C62 0.930 . S
C57 H54 0.931 . S
C57 C58 1.413 . S
C57 C59 1.360 . S
C58 C57 1.413 . S
C58 C62 1.429 . S
C59 C57 1.360 . S
C59 C60 1.372 . S
C60 H55 0.928 . S
C60 C59 1.372 . S
C60 C61 1.404 . S
C61 C60 1.404 . S
C61 C62 1.391 . S
C62 H56 0.930 . S
C62 C58 1.429 . S
C62 C61 1.391 . S
H63 C66 0.931 . S
H64 C69 0.928 . S
H65 C71 0.930 . S
C66 H63 0.931 . S
C66 C67 1.413 . S
C66 C68 1.360 . S
C67 C66 1.413 . S
C67 C71 1.429 . S
C68 C66 1.360 . S
C68 C69 1.372 . S
C69 H64 0.928 . S
C69 C68 1.372 . S
C69 C70 1.404 . S
C70 C69 1.404 . S
C70 C71 1.391 . S
C71 H65 0.930 . S
C71 C67 1.429 . S
C71 C70 1.391 . S
Co72 O75 2.042 . S
Co72 O82 2.264 . S
Co72 O101 2.286 . S
Co72 O102 2.069 . S
Co72 O104 2.015 . S
Co73 O75 2.122 . S
Co73 O81 2.073 . S
Co73 O82 2.327 . S
Co73 O83 1.976 . S
Co74 O75 2.087 . S
Co74 O77 2.087 1_455 S
Co74 O84 2.111 . S
Co74 O85 2.143 1_455 S
Co74 O89 2.111 1_455 S
Co74 O103 2.143 . S
O75 Co72 2.042 . S
O75 Co73 2.122 . S
O75 Co74 2.087 . S
O75 H76 0.980 . S
H76 O75 0.980 . S
O77 Co74 2.087 1_655 S
O77 Co78 2.042 . S
O77 Co79 2.122 . S
O77 H80 0.980 . S
Co78 O77 2.042 . S
Co78 O86 2.286 . S
Co78 O87 2.069 . S
Co78 O88 2.015 . S
Co78 O91 2.264 . S
Co79 O77 2.122 . S
Co79 O90 1.976 . S
Co79 O91 2.327 . S
Co79 O92 2.073 . S
H80 O77 0.980 . S
O81 Co73 2.073 . S
O81 C96 1.245 . S
O82 Co72 2.264 . S
O82 Co73 2.327 . S
O82 C96 1.257 . S
O83 Co73 1.976 . S
O83 C95 1.251 . S
O84 Co74 2.111 . S
O84 C95 1.274 . S
O85 Co74 2.143 1_655 S
O85 C98 1.246 . S
O86 Co78 2.286 . S
O86 C97 1.259 . S
O87 Co78 2.069 . S
O87 C97 1.289 . S
O88 Co78 2.015 . S
O88 C98 1.257 . S
O89 Co74 2.111 1_655 S
O89 C99 1.274 . S
O90 Co79 1.976 . S
O90 C99 1.251 . S
O91 Co78 2.264 . S
O91 Co79 2.327 . S
O91 C100 1.257 . S
O92 Co79 2.073 . S
O92 C100 1.245 . S
C93 O101 1.259 . S
C93 O102 1.289 . S
C94 O103 1.246 . S
C94 O104 1.257 . S
C95 O83 1.251 . S
C95 O84 1.274 . S
C96 O81 1.245 . S
C96 O82 1.257 . S
C97 O86 1.259 . S
C97 O87 1.289 . S
C98 O85 1.246 . S
C98 O88 1.257 . S
C99 O89 1.274 . S
C99 O90 1.251 . S
C100 O91 1.257 . S
C100 O92 1.245 . S
O101 Co72 2.286 . S
O101 C93 1.259 . S
O102 Co72 2.069 . S
O102 C93 1.289 . S
O103 Co74 2.143 . S
O103 C94 1.246 . S
O104 Co72 2.015 . S
O104 C94 1.257 . S
Co105 O108 2.042 . S
Co105 O115 2.264 . S
Co105 O134 2.286 . S
Co105 O135 2.069 . S
Co105 O137 2.015 . S
Co106 O108 2.122 . S
Co106 O114 2.073 . S
Co106 O115 2.327 . S
Co106 O116 1.976 . S
Co107 O108 2.087 1_545 S
Co107 O110 2.087 . S
Co107 O117 2.111 1_545 S
Co107 O118 2.143 . S
Co107 O122 2.111 . S
Co107 O136 2.143 1_545 S
O108 Co105 2.042 . S
O108 Co106 2.122 . S
O108 Co107 2.087 1_565 S
O108 H109 0.980 . S
H109 O108 0.980 . S
O110 Co107 2.087 . S
O110 Co111 2.042 . S
O110 Co112 2.122 . S
O110 H113 0.980 . S
Co111 O110 2.042 . S
Co111 O119 2.286 . S
Co111 O120 2.069 . S
Co111 O121 2.015 . S
Co111 O124 2.264 . S
Co112 O110 2.122 . S
Co112 O123 1.976 . S
Co112 O124 2.327 . S
Co112 O125 2.073 . S
H113 O110 0.980 . S
O114 Co106 2.073 . S
O114 C129 1.245 . S
O115 Co105 2.264 . S
O115 Co106 2.327 . S
O115 C129 1.257 . S
O116 Co106 1.976 . S
O116 C128 1.251 . S
O117 Co107 2.111 1_565 S
O117 C128 1.274 . S
O118 Co107 2.143 . S
O118 C131 1.246 . S
O119 Co111 2.286 . S
O119 C130 1.259 . S
O120 Co111 2.069 . S
O120 C130 1.289 . S
O121 Co111 2.015 . S
O121 C131 1.257 . S
O122 Co107 2.111 . S
O122 C132 1.274 . S
O123 Co112 1.976 . S
O123 C132 1.251 . S
O124 Co111 2.264 . S
O124 Co112 2.327 . S
O124 C133 1.257 . S
O125 Co112 2.073 . S
O125 C133 1.245 . S
C126 O134 1.259 . S
C126 O135 1.289 . S
C127 O136 1.246 . S
C127 O137 1.257 . S
C128 O116 1.251 . S
C128 O117 1.274 . S
C129 O114 1.245 . S
C129 O115 1.257 . S
C130 O119 1.259 . S
C130 O120 1.289 . S
C131 O118 1.246 . S
C131 O121 1.257 . S
C132 O122 1.274 . S
C132 O123 1.251 . S
C133 O124 1.257 . S
C133 O125 1.245 . S
O134 Co105 2.286 . S
O134 C126 1.259 . S
O135 Co105 2.069 . S
O135 C126 1.289 . S
O136 Co107 2.143 1_565 S
O136 C127 1.246 . S
O137 Co105 2.015 . S
O137 C127 1.257 . S
Co138 O141 2.042 . S
Co138 O148 2.264 . S
Co138 O167 2.286 . S
Co138 O168 2.069 . S
Co138 O170 2.015 . S
Co139 O141 2.122 . S
Co139 O147 2.073 . S
Co139 O148 2.327 . S
Co139 O149 1.976 . S
Co140 O141 2.087 . S
Co140 O143 2.087 1_554 S
Co140 O150 2.111 . S
Co140 O151 2.143 1_554 S
Co140 O155 2.111 1_554 S
Co140 O169 2.143 . S
O141 Co138 2.042 . S
O141 Co139 2.122 . S
O141 Co140 2.087 . S
O141 H142 0.980 . S
H142 O141 0.980 . S
O143 Co140 2.087 1_556 S
O143 Co144 2.042 . S
O143 Co145 2.122 . S
O143 H146 0.980 . S
Co144 O143 2.042 . S
Co144 O152 2.286 . S
Co144 O153 2.069 . S
Co144 O154 2.015 . S
Co144 O157 2.264 . S
Co145 O143 2.122 . S
Co145 O156 1.976 . S
Co145 O157 2.327 . S
Co145 O158 2.073 . S
H146 O143 0.980 . S
O147 Co139 2.073 . S
O147 C162 1.245 . S
O148 Co138 2.264 . S
O148 Co139 2.327 . S
O148 C162 1.257 . S
O149 Co139 1.976 . S
O149 C161 1.251 . S
O150 Co140 2.111 . S
O150 C161 1.274 . S
O151 Co140 2.143 1_556 S
O151 C164 1.246 . S
O152 Co144 2.286 . S
O152 C163 1.259 . S
O153 Co144 2.069 . S
O153 C163 1.289 . S
O154 Co144 2.015 . S
O154 C164 1.257 . S
O155 Co140 2.111 1_556 S
O155 C165 1.274 . S
O156 Co145 1.976 . S
O156 C165 1.251 . S
O157 Co144 2.264 . S
O157 Co145 2.327 . S
O157 C166 1.257 . S
O158 Co145 2.073 . S
O158 C166 1.245 . S
C159 O167 1.259 . S
C159 O168 1.289 . S
C160 O169 1.246 . S
C160 O170 1.257 . S
C161 O149 1.251 . S
C161 O150 1.274 . S
C162 O147 1.245 . S
C162 O148 1.257 . S
C163 O152 1.259 . S
C163 O153 1.289 . S
C164 O151 1.246 . S
C164 O154 1.257 . S
C165 O155 1.274 . S
C165 O156 1.251 . S
C166 O157 1.257 . S
C166 O158 1.245 . S
O167 Co138 2.286 . S
O167 C159 1.259 . S
O168 Co138 2.069 . S
O168 C159 1.289 . S
O169 Co140 2.143 . S
O169 C160 1.246 . S
O170 Co138 2.015 . S
O170 C160 1.257 . S
H171 C177 0.930 . S
H172 C180 0.930 . S
H173 C181 0.930 . S
H174 C182 0.930 . S
H175 C185 0.930 . S
H176 C186 0.930 . S
C177 H171 0.930 . S
C177 C178 1.355 . S
C177 C179 1.415 . S
C178 C177 1.355 . S
C178 C180 1.419 . S
C179 C177 1.415 . S
C179 C184 1.425 . S
C179 C186 1.409 . S
C180 H172 0.930 . S
C180 C178 1.419 . S
C180 C181 1.362 . S
C181 H173 0.930 . S
C181 C180 1.362 . S
C181 C184 1.409 . S
C182 H174 0.930 . S
C182 C183 1.355 . S
C182 C184 1.415 . S
C183 C182 1.355 . S
C183 C185 1.419 . S
C184 C179 1.425 . S
C184 C181 1.409 . S
C184 C182 1.415 . S
C185 H175 0.930 . S
C185 C183 1.419 . S
C185 C186 1.362 . S
C186 H176 0.930 . S
C186 C179 1.409 . S
C186 C185 1.362 . S
H187 C193 0.930 . S
H188 C196 0.930 . S
H189 C197 0.930 . S
H190 C198 0.930 . S
H191 C201 0.930 . S
H192 C202 0.930 . S
C193 H187 0.930 . S
C193 C194 1.355 . S
C193 C195 1.415 . S
C194 C193 1.355 . S
C194 C196 1.419 . S
C195 C193 1.415 . S
C195 C200 1.425 . S
C195 C202 1.409 . S
C196 H188 0.930 . S
C196 C194 1.419 . S
C196 C197 1.362 . S
C197 H189 0.930 . S
C197 C196 1.362 . S
C197 C200 1.409 . S
C198 H190 0.930 . S
C198 C199 1.355 . S
C198 C200 1.415 . S
C199 C198 1.355 . S
C199 C201 1.419 . S
C200 C195 1.425 . S
C200 C197 1.409 . S
C200 C198 1.415 . S
C201 H191 0.930 . S
C201 C199 1.419 . S
C201 C202 1.362 . S
C202 H192 0.930 . S
C202 C195 1.409 . S
C202 C201 1.362 . S
H203 C209 0.930 . S
H204 C212 0.930 . S
H205 C213 0.930 . S
H206 C214 0.930 . S
H207 C217 0.930 . S
H208 C218 0.930 . S
C209 H203 0.930 . S
C209 C210 1.355 . S
C209 C211 1.415 . S
C210 C209 1.355 . S
C210 C212 1.419 . S
C211 C209 1.415 . S
C211 C216 1.425 . S
C211 C218 1.409 . S
C212 H204 0.930 . S
C212 C210 1.419 . S
C212 C213 1.362 . S
C213 H205 0.930 . S
C213 C212 1.362 . S
C213 C216 1.409 . S
C214 H206 0.930 . S
C214 C215 1.355 . S
C214 C216 1.415 . S
C215 C214 1.355 . S
C215 C217 1.419 . S
C216 C211 1.425 . S
C216 C213 1.409 . S
C216 C214 1.415 . S
C217 H207 0.930 . S
C217 C215 1.419 . S
C217 C218 1.362 . S
C218 H208 0.930 . S
C218 C211 1.409 . S
C218 C217 1.362 . S
H219 C225 0.930 . S
H220 C228 0.930 . S
H221 C229 0.930 . S
H222 C230 0.930 . S
H223 C233 0.930 . S
H224 C234 0.930 . S
C225 H219 0.930 . S
C225 C226 1.355 . S
C225 C227 1.415 . S
C226 C225 1.355 . S
C226 C228 1.419 . S
C227 C225 1.415 . S
C227 C232 1.425 . S
C227 C234 1.409 . S
C228 H220 0.930 . S
C228 C226 1.419 . S
C228 C229 1.362 . S
C229 H221 0.930 . S
C229 C228 1.362 . S
C229 C232 1.409 . S
C230 H222 0.930 . S
C230 C231 1.355 . S
C230 C232 1.415 . S
C231 C230 1.355 . S
C231 C233 1.419 . S
C232 C227 1.425 . S
C232 C229 1.409 . S
C232 C230 1.415 . S
C233 H223 0.930 . S
C233 C231 1.419 . S
C233 C234 1.362 . S
C234 H224 0.930 . S
C234 C227 1.409 . S
C234 C233 1.362 . S
H235 C241 0.930 . S
H236 C244 0.930 . S
H237 C245 0.930 . S
H238 C246 0.930 . S
H239 C249 0.930 . S
H240 C250 0.930 . S
C241 H235 0.930 . S
C241 C242 1.355 . S
C241 C243 1.415 . S
C242 C241 1.355 . S
C242 C244 1.419 . S
C243 C241 1.415 . S
C243 C248 1.425 . S
C243 C250 1.409 . S
C244 H236 0.930 . S
C244 C242 1.419 . S
C244 C245 1.362 . S
C245 H237 0.930 . S
C245 C244 1.362 . S
C245 C248 1.409 . S
C246 H238 0.930 . S
C246 C247 1.355 . S
C246 C248 1.415 . S
C247 C246 1.355 . S
C247 C249 1.419 . S
C248 C243 1.425 . S
C248 C245 1.409 . S
C248 C246 1.415 . S
C249 H239 0.930 . S
C249 C247 1.419 . S
C249 C250 1.362 . S
C250 H240 0.930 . S
C250 C243 1.409 . S
C250 C249 1.362 . S
H251 C257 0.930 . S
H252 C260 0.930 . S
H253 C261 0.930 . S
H254 C262 0.930 . S
H255 C265 0.930 . S
H256 C266 0.930 . S
C257 H251 0.930 . S
C257 C258 1.355 . S
C257 C259 1.415 . S
C258 C257 1.355 . S
C258 C260 1.419 . S
C259 C257 1.415 . S
C259 C264 1.425 . S
C259 C266 1.409 . S
C260 H252 0.930 . S
C260 C258 1.419 . S
C260 C261 1.362 . S
C261 H253 0.930 . S
C261 C260 1.362 . S
C261 C264 1.409 . S
C262 H254 0.930 . S
C262 C263 1.355 . S
C262 C264 1.415 . S
C263 C262 1.355 . S
C263 C265 1.419 . S
C264 C259 1.425 . S
C264 C261 1.409 . S
C264 C262 1.415 . S
C265 H255 0.930 . S
C265 C263 1.419 . S
C265 C266 1.362 . S
C266 H256 0.930 . S
C266 C259 1.409 . S
C266 C265 1.362 . S
H267 C273 0.930 . S
H268 C276 0.930 . S
H269 C277 0.930 . S
H270 C278 0.930 . S
H271 C281 0.930 . S
H272 C282 0.930 . S
C273 H267 0.930 . S
C273 C274 1.355 . S
C273 C275 1.415 . S
C274 C273 1.355 . S
C274 C276 1.419 . S
C275 C273 1.415 . S
C275 C280 1.425 . S
C275 C282 1.409 . S
C276 H268 0.930 . S
C276 C274 1.419 . S
C276 C277 1.362 . S
C277 H269 0.930 . S
C277 C276 1.362 . S
C277 C280 1.409 . S
C278 H270 0.930 . S
C278 C279 1.355 . S
C278 C280 1.415 . S
C279 C278 1.355 . S
C279 C281 1.419 . S
C280 C275 1.425 . S
C280 C277 1.409 . S
C280 C278 1.415 . S
C281 H271 0.930 . S
C281 C279 1.419 . S
C281 C282 1.362 . S
C282 H272 0.930 . S
C282 C275 1.409 . S
C282 C281 1.362 . S
H283 C289 0.930 . S
H284 C292 0.930 . S
H285 C293 0.930 . S
H286 C294 0.930 . S
H287 C297 0.930 . S
H288 C298 0.930 . S
C289 H283 0.930 . S
C289 C290 1.355 . S
C289 C291 1.415 . S
C290 C289 1.355 . S
C290 C292 1.419 . S
C291 C289 1.415 . S
C291 C296 1.425 . S
C291 C298 1.409 . S
C292 H284 0.930 . S
C292 C290 1.419 . S
C292 C293 1.362 . S
C293 H285 0.930 . S
C293 C292 1.362 . S
C293 C296 1.409 . S
C294 H286 0.930 . S
C294 C295 1.355 . S
C294 C296 1.415 . S
C295 C294 1.355 . S
C295 C297 1.419 . S
C296 C291 1.425 . S
C296 C293 1.409 . S
C296 C294 1.415 . S
C297 H287 0.930 . S
C297 C295 1.419 . S
C297 C298 1.362 . S
C298 H288 0.930 . S
C298 C291 1.409 . S
C298 C297 1.362 . S
H299 C305 0.930 . S
H300 C308 0.930 . S
H301 C309 0.930 . S
H302 C310 0.930 . S
H303 C313 0.930 . S
H304 C314 0.930 . S
C305 H299 0.930 . S
C305 C306 1.355 . S
C305 C307 1.415 . S
C306 C305 1.355 . S
C306 C308 1.419 . S
C307 C305 1.415 . S
C307 C312 1.425 . S
C307 C314 1.409 . S
C308 H300 0.930 . S
C308 C306 1.419 . S
C308 C309 1.362 . S
C309 H301 0.930 . S
C309 C308 1.362 . S
C309 C312 1.409 . S
C310 H302 0.930 . S
C310 C311 1.355 . S
C310 C312 1.415 . S
C311 C310 1.355 . S
C311 C313 1.419 . S
C312 C307 1.425 . S
C312 C309 1.409 . S
C312 C310 1.415 . S
C313 H303 0.930 . S
C313 C311 1.419 . S
C313 C314 1.362 . S
C314 H304 0.930 . S
C314 C307 1.409 . S
C314 C313 1.362 . S
H315 C321 0.930 . S
H316 C324 0.930 . S
H317 C325 0.930 . S
H318 C326 0.930 . S
H319 C329 0.930 . S
H320 C330 0.930 . S
C321 H315 0.930 . S
C321 C322 1.355 . S
C321 C323 1.415 . S
C322 C321 1.355 . S
C322 C324 1.419 . S
C323 C321 1.415 . S
C323 C328 1.425 . S
C323 C330 1.409 . S
C324 H316 0.930 . S
C324 C322 1.419 . S
C324 C325 1.362 . S
C325 H317 0.930 . S
C325 C324 1.362 . S
C325 C328 1.409 . S
C326 H318 0.930 . S
C326 C327 1.355 . S
C326 C328 1.415 . S
C327 C326 1.355 . S
C327 C329 1.419 . S
C328 C323 1.425 . S
C328 C325 1.409 . S
C328 C326 1.415 . S
C329 H319 0.930 . S
C329 C327 1.419 . S
C329 C330 1.362 . S
C330 H320 0.930 . S
C330 C323 1.409 . S
C330 C329 1.362 . S
H331 C337 0.930 . S
H332 C340 0.930 . S
H333 C341 0.930 . S
H334 C342 0.930 . S
H335 C345 0.930 . S
H336 C346 0.930 . S
C337 H331 0.930 . S
C337 C338 1.355 . S
C337 C339 1.415 . S
C338 C337 1.355 . S
C338 C340 1.419 . S
C339 C337 1.415 . S
C339 C344 1.425 . S
C339 C346 1.409 . S
C340 H332 0.930 . S
C340 C338 1.419 . S
C340 C341 1.362 . S
C341 H333 0.930 . S
C341 C340 1.362 . S
C341 C344 1.409 . S
C342 H334 0.930 . S
C342 C343 1.355 . S
C342 C344 1.415 . S
C343 C342 1.355 . S
C343 C345 1.419 . S
C344 C339 1.425 . S
C344 C341 1.409 . S
C344 C342 1.415 . S
C345 H335 0.930 . S
C345 C343 1.419 . S
C345 C346 1.362 . S
C346 H336 0.930 . S
C346 C339 1.409 . S
C346 C345 1.362 . S
H347 C353 0.930 . S
H348 C356 0.930 . S
H349 C357 0.930 . S
H350 C358 0.930 . S
H351 C361 0.930 . S
H352 C362 0.930 . S
C353 H347 0.930 . S
C353 C354 1.355 . S
C353 C355 1.415 . S
C354 C353 1.355 . S
C354 C356 1.419 . S
C355 C353 1.415 . S
C355 C360 1.425 . S
C355 C362 1.409 . S
C356 H348 0.930 . S
C356 C354 1.419 . S
C356 C357 1.362 . S
C357 H349 0.930 . S
C357 C356 1.362 . S
C357 C360 1.409 . S
C358 H350 0.930 . S
C358 C359 1.355 . S
C358 C360 1.415 . S
C359 C358 1.355 . S
C359 C361 1.419 . S
C360 C355 1.425 . S
C360 C357 1.409 . S
C360 C358 1.415 . S
C361 H351 0.930 . S
C361 C359 1.419 . S
C361 C362 1.362 . S
C362 H352 0.930 . S
C362 C355 1.409 . S
C362 C361 1.362 . S
H363 C369 0.930 . S
H364 C372 0.930 . S
H365 C373 0.930 . S
H366 C374 0.930 . S
H367 C377 0.930 . S
H368 C378 0.930 . S
C369 H363 0.930 . S
C369 C370 1.355 . S
C369 C371 1.415 . S
C370 C369 1.355 . S
C370 C372 1.419 . S
C371 C369 1.415 . S
C371 C376 1.425 . S
C371 C378 1.409 . S
C372 H364 0.930 . S
C372 C370 1.419 . S
C372 C373 1.362 . S
C373 H365 0.930 . S
C373 C372 1.362 . S
C373 C376 1.409 . S
C374 H366 0.930 . S
C374 C375 1.355 . S
C374 C376 1.415 . S
C375 C374 1.355 . S
C375 C377 1.419 . S
C376 C371 1.425 . S
C376 C373 1.409 . S
C376 C374 1.415 . S
C377 H367 0.930 . S
C377 C375 1.419 . S
C377 C378 1.362 . S
C378 H368 0.930 . S
C378 C371 1.409 . S
C378 C377 1.362 . S
H379 C385 0.930 . S
H380 C388 0.930 . S
H381 C389 0.930 . S
H382 C390 0.930 . S
H383 C393 0.930 . S
H384 C394 0.930 . S
C385 H379 0.930 . S
C385 C386 1.355 . S
C385 C387 1.415 . S
C386 C385 1.355 . S
C386 C388 1.419 . S
C387 C385 1.415 . S
C387 C392 1.425 . S
C387 C394 1.409 . S
C388 H380 0.930 . S
C388 C386 1.419 . S
C388 C389 1.362 . S
C389 H381 0.930 . S
C389 C388 1.362 . S
C389 C392 1.409 . S
C390 H382 0.930 . S
C390 C391 1.355 . S
C390 C392 1.415 . S
C391 C390 1.355 . S
C391 C393 1.419 . S
C392 C387 1.425 . S
C392 C389 1.409 . S
C392 C390 1.415 . S
C393 H383 0.930 . S
C393 C391 1.419 . S
C393 C394 1.362 . S
C394 H384 0.930 . S
C394 C387 1.409 . S
C394 C393 1.362 . S
H395 C401 0.930 . S
H396 C404 0.930 . S
H397 C405 0.930 . S
H398 C406 0.930 . S
H399 C409 0.930 . S
H400 C410 0.930 . S
C401 H395 0.930 . S
C401 C402 1.355 . S
C401 C403 1.415 . S
C402 C401 1.355 . S
C402 C404 1.419 . S
C403 C401 1.415 . S
C403 C408 1.425 . S
C403 C410 1.409 . S
C404 H396 0.930 . S
C404 C402 1.419 . S
C404 C405 1.362 . S
C405 H397 0.930 . S
C405 C404 1.362 . S
C405 C408 1.409 . S
C406 H398 0.930 . S
C406 C407 1.355 . S
C406 C408 1.415 . S
C407 C406 1.355 . S
C407 C409 1.419 . S
C408 C403 1.425 . S
C408 C405 1.409 . S
C408 C406 1.415 . S
C409 H399 0.930 . S
C409 C407 1.419 . S
C409 C410 1.362 . S
C410 H400 0.930 . S
C410 C403 1.409 . S
C410 C409 1.362 . S
H411 C417 0.930 . S
H412 C420 0.930 . S
H413 C421 0.930 . S
H414 C422 0.930 . S
H415 C425 0.930 . S
H416 C426 0.930 . S
C417 H411 0.930 . S
C417 C418 1.355 . S
C417 C419 1.415 . S
C418 C417 1.355 . S
C418 C420 1.419 . S
C419 C417 1.415 . S
C419 C424 1.425 . S
C419 C426 1.409 . S
C420 H412 0.930 . S
C420 C418 1.419 . S
C420 C421 1.362 . S
C421 H413 0.930 . S
C421 C420 1.362 . S
C421 C424 1.409 . S
C422 H414 0.930 . S
C422 C423 1.355 . S
C422 C424 1.415 . S
C423 C422 1.355 . S
C423 C425 1.419 . S
C424 C419 1.425 . S
C424 C421 1.409 . S
C424 C422 1.415 . S
C425 H415 0.930 . S
C425 C423 1.419 . S
C425 C426 1.362 . S
C426 H416 0.930 . S
C426 C419 1.409 . S
C426 C425 1.362 . S
H427 C433 0.930 . S
H428 C436 0.930 . S
H429 C437 0.930 . S
H430 C438 0.930 . S
H431 C441 0.930 . S
H432 C442 0.930 . S
C433 H427 0.930 . S
C433 C434 1.355 . S
C433 C435 1.415 . S
C434 C433 1.355 . S
C434 C436 1.419 . S
C435 C433 1.415 . S
C435 C440 1.425 . S
C435 C442 1.409 . S
C436 H428 0.930 . S
C436 C434 1.419 . S
C436 C437 1.362 . S
C437 H429 0.930 . S
C437 C436 1.362 . S
C437 C440 1.409 . S
C438 H430 0.930 . S
C438 C439 1.355 . S
C438 C440 1.415 . S
C439 C438 1.355 . S
C439 C441 1.419 . S
C440 C435 1.425 . S
C440 C437 1.409 . S
C440 C438 1.415 . S
C441 H431 0.930 . S
C441 C439 1.419 . S
C441 C442 1.362 . S
C442 H432 0.930 . S
C442 C435 1.409 . S
C442 C441 1.362 . S
H443 C449 0.930 . S
H444 C452 0.930 . S
H445 C453 0.930 . S
H446 C454 0.930 . S
H447 C457 0.930 . S
H448 C458 0.930 . S
C449 H443 0.930 . S
C449 C450 1.355 . S
C449 C451 1.415 . S
C450 C449 1.355 . S
C450 C452 1.419 . S
C451 C449 1.415 . S
C451 C456 1.425 . S
C451 C458 1.409 . S
C452 H444 0.930 . S
C452 C450 1.419 . S
C452 C453 1.362 . S
C453 H445 0.930 . S
C453 C452 1.362 . S
C453 C456 1.409 . S
C454 H446 0.930 . S
C454 C455 1.355 . S
C454 C456 1.415 . S
C455 C454 1.355 . S
C455 C457 1.419 . S
C456 C451 1.425 . S
C456 C453 1.409 . S
C456 C454 1.415 . S
C457 H447 0.930 . S
C457 C455 1.419 . S
C457 C458 1.362 . S
C458 H448 0.930 . S
C458 C451 1.409 . S
C458 C457 1.362 . S
H459 C465 0.930 . S
H460 C468 0.930 . S
H461 C469 0.930 . S
H462 C470 0.930 . S
H463 C473 0.930 . S
H464 C474 0.930 . S
C465 H459 0.930 . S
C465 C466 1.355 . S
C465 C467 1.415 . S
C466 C465 1.355 . S
C466 C468 1.419 . S
C467 C465 1.415 . S
C467 C472 1.425 . S
C467 C474 1.409 . S
C468 H460 0.930 . S
C468 C466 1.419 . S
C468 C469 1.362 . S
C469 H461 0.930 . S
C469 C468 1.362 . S
C469 C472 1.409 . S
C470 H462 0.930 . S
C470 C471 1.355 . S
C470 C472 1.415 . S
C471 C470 1.355 . S
C471 C473 1.419 . S
C472 C467 1.425 . S
C472 C469 1.409 . S
C472 C470 1.415 . S
C473 H463 0.930 . S
C473 C471 1.419 . S
C473 C474 1.362 . S
C474 H464 0.930 . S
C474 C467 1.409 . S
C474 C473 1.362 . S
H475 C481 0.930 . S
H476 C484 0.930 . S
H477 C485 0.930 . S
H478 C486 0.930 . S
H479 C489 0.930 . S
H480 C490 0.930 . S
C481 H475 0.930 . S
C481 C482 1.355 . S
C481 C483 1.415 . S
C482 C481 1.355 . S
C482 C484 1.419 . S
C483 C481 1.415 . S
C483 C488 1.425 . S
C483 C490 1.409 . S
C484 H476 0.930 . S
C484 C482 1.419 . S
C484 C485 1.362 . S
C485 H477 0.930 . S
C485 C484 1.362 . S
C485 C488 1.409 . S
C486 H478 0.930 . S
C486 C487 1.355 . S
C486 C488 1.415 . S
C487 C486 1.355 . S
C487 C489 1.419 . S
C488 C483 1.425 . S
C488 C485 1.409 . S
C488 C486 1.415 . S
C489 H479 0.930 . S
C489 C487 1.419 . S
C489 C490 1.362 . S
C490 H480 0.930 . S
C490 C483 1.409 . S
C490 C489 1.362 . S
H491 C497 0.930 . S
H492 C500 0.930 . S
H493 C501 0.930 . S
H494 C502 0.930 . S
H495 C505 0.930 . S
H496 C506 0.930 . S
C497 H491 0.930 . S
C497 C498 1.355 . S
C497 C499 1.415 . S
C498 C497 1.355 . S
C498 C500 1.419 . S
C499 C497 1.415 . S
C499 C504 1.425 . S
C499 C506 1.409 . S
C500 H492 0.930 . S
C500 C498 1.419 . S
C500 C501 1.362 . S
C501 H493 0.930 . S
C501 C500 1.362 . S
C501 C504 1.409 . S
C502 H494 0.930 . S
C502 C503 1.355 . S
C502 C504 1.415 . S
C503 C502 1.355 . S
C503 C505 1.419 . S
C504 C499 1.425 . S
C504 C501 1.409 . S
C504 C502 1.415 . S
C505 H495 0.930 . S
C505 C503 1.419 . S
C505 C506 1.362 . S
C506 H496 0.930 . S
C506 C499 1.409 . S
C506 C505 1.362 . S
H507 C513 0.930 . S
H508 C516 0.930 . S
H509 C517 0.930 . S
H510 C518 0.930 . S
H511 C521 0.930 . S
H512 C522 0.930 . S
C513 H507 0.930 . S
C513 C514 1.355 . S
C513 C515 1.415 . S
C514 C513 1.355 . S
C514 C516 1.419 . S
C515 C513 1.415 . S
C515 C520 1.425 . S
C515 C522 1.409 . S
C516 H508 0.930 . S
C516 C514 1.419 . S
C516 C517 1.362 . S
C517 H509 0.930 . S
C517 C516 1.362 . S
C517 C520 1.409 . S
C518 H510 0.930 . S
C518 C519 1.355 . S
C518 C520 1.415 . S
C519 C518 1.355 . S
C519 C521 1.419 . S
C520 C515 1.425 . S
C520 C517 1.409 . S
C520 C518 1.415 . S
C521 H511 0.930 . S
C521 C519 1.419 . S
C521 C522 1.362 . S
C522 H512 0.930 . S
C522 C515 1.409 . S
C522 C521 1.362 . S
H523 C529 0.930 . S
H524 C532 0.930 . S
H525 C533 0.930 . S
H526 C534 0.930 . S
H527 C537 0.930 . S
H528 C538 0.930 . S
C529 H523 0.930 . S
C529 C530 1.355 . S
C529 C531 1.415 . S
C530 C529 1.355 . S
C530 C532 1.419 . S
C531 C529 1.415 . S
C531 C536 1.425 . S
C531 C538 1.409 . S
C532 H524 0.930 . S
C532 C530 1.419 . S
C532 C533 1.362 . S
C533 H525 0.930 . S
C533 C532 1.362 . S
C533 C536 1.409 . S
C534 H526 0.930 . S
C534 C535 1.355 . S
C534 C536 1.415 . S
C535 C534 1.355 . S
C535 C537 1.419 . S
C536 C531 1.425 . S
C536 C533 1.409 . S
C536 C534 1.415 . S
C537 H527 0.930 . S
C537 C535 1.419 . S
C537 C538 1.362 . S
C538 H528 0.930 . S
C538 C531 1.409 . S
C538 C537 1.362 . S
H539 C545 0.930 . S
H540 C548 0.930 . S
H541 C549 0.930 . S
H542 C550 0.930 . S
H543 C553 0.930 . S
H544 C554 0.930 . S
C545 H539 0.930 . S
C545 C546 1.355 . S
C545 C547 1.415 . S
C546 C545 1.355 . S
C546 C548 1.419 . S
C547 C545 1.415 . S
C547 C552 1.425 . S
C547 C554 1.409 . S
C548 H540 0.930 . S
C548 C546 1.419 . S
C548 C549 1.362 . S
C549 H541 0.930 . S
C549 C548 1.362 . S
C549 C552 1.409 . S
C550 H542 0.930 . S
C550 C551 1.355 . S
C550 C552 1.415 . S
C551 C550 1.355 . S
C551 C553 1.419 . S
C552 C547 1.425 . S
C552 C549 1.409 . S
C552 C550 1.415 . S
C553 H543 0.930 . S
C553 C551 1.419 . S
C553 C554 1.362 . S
C554 H544 0.930 . S
C554 C547 1.409 . S
C554 C553 1.362 . S
C183 C96 1.223 . S
C178 C4 1.260 . S
C199 C132 1.586 . S
C194 C13 1.704 . S
C215 C97 1.358 . S
C210 C25 1.329 . S
C231 C127 1.486 . S
C226 C32 1.496 . S
C247 C94 1.463 . S
C242 C41 1.492 . S
C258 C52 1.580 . S
C263 C130 1.553 . S
C274 C61 1.291 . S
C279 C99 1.124 . S
C295 C129 1.320 . S
C290 C67 1.422 . S
C311 C133 1.391 . S
C306 C7 1.378 . S
C327 C98 1.398 . S
C322 C14 1.521 . S
C343 C126 1.563 . S
C338 C22 1.578 . S
C359 C95 1.198 . S
C354 C31 1.271 . S
C375 C128 1.548 . S
C370 C40 1.708 . S
C386 C49 1.334 . S
C391 C93 1.340 . S
C402 C59 1.510 . S
C407 C131 1.437 . S
C423 C100 1.141 . S
C418 C70 1.271 . S
C439 C162 1.559 . S
C434 C5 1.662 . S
C450 C43 1.938 . S
C455 C165 1.818 . S
C471 C164 1.531 . S
C466 C50 1.621 . S
C482 C58 1.896 . S
C487 C163 1.859 . S
C503 C166 1.492 . S
C498 C68 1.650 . S
C514 C23 1.603 . S
C519 C160 1.513 . S
C535 C159 1.841 . S
C530 C34 1.881 . S
C546 C16 1.951 . S
C551 C161 1.841 . S
