# Generated by pormake.
# Topology eea, (3,6)-cn, num edge types: 1
# Building blocks:
#     Node 0, Type 0, BuildingBlock: CUQRIR_clean_linker_1, # of connection points: 3
#     Node 1, Type 0, BuildingBlock: CUQRIR_clean_linker_1, # of connection points: 3
#     Node 2, Type 0, BuildingBlock: CUQRIR_clean_linker_1, # of connection points: 3
#     Node 3, Type 0, BuildingBlock: CUQRIR_clean_linker_1, # of connection points: 3
#     Node 4, Type 0, BuildingBlock: CUQRIR_clean_linker_1, # of connection points: 3
#     Node 5, Type 0, BuildingBlock: CUQRIR_clean_linker_1, # of connection points: 3
#     Node 6, Type 0, BuildingBlock: CUQRIR_clean_linker_1, # of connection points: 3
#     Node 7, Type 0, BuildingBlock: CUQRIR_clean_linker_1, # of connection points: 3
#     Node 8, Type 0, BuildingBlock: CUQRIR_clean_linker_1, # of connection points: 3
#     Node 9, Type 0, BuildingBlock: CUQRIR_clean_linker_1, # of connection points: 3
#     Node 10, Type 0, BuildingBlock: CUQRIR_clean_linker_1, # of connection points: 3
#     Node 11, Type 0, BuildingBlock: CUQRIR_clean_linker_1, # of connection points: 3
#     Node 12, Type 0, BuildingBlock: CUQRIR_clean_linker_1, # of connection points: 3
#     Node 13, Type 0, BuildingBlock: CUQRIR_clean_linker_1, # of connection points: 3
#     Node 14, Type 0, BuildingBlock: CUQRIR_clean_linker_1, # of connection points: 3
#     Node 15, Type 0, BuildingBlock: CUQRIR_clean_linker_1, # of connection points: 3
#     Node 16, Type 0, BuildingBlock: CUQRIR_clean_linker_1, # of connection points: 3
#     Node 17, Type 0, BuildingBlock: CUQRIR_clean_linker_1, # of connection points: 3
#     Node 18, Type 1, BuildingBlock: CUKXOW_clean_sbu_0, # of connection points: 6
#     Node 19, Type 1, BuildingBlock: CUKXOW_clean_sbu_0, # of connection points: 6
#     Node 20, Type 1, BuildingBlock: CUKXOW_clean_sbu_0, # of connection points: 6
#     Node 21, Type 1, BuildingBlock: CUKXOW_clean_sbu_0, # of connection points: 6
#     Node 22, Type 1, BuildingBlock: CUKXOW_clean_sbu_0, # of connection points: 6
#     Node 23, Type 1, BuildingBlock: CUKXOW_clean_sbu_0, # of connection points: 6
#     Node 24, Type 1, BuildingBlock: CUKXOW_clean_sbu_0, # of connection points: 6
#     Node 25, Type 1, BuildingBlock: CUKXOW_clean_sbu_0, # of connection points: 6
#     Node 26, Type 1, BuildingBlock: CUKXOW_clean_sbu_0, # of connection points: 6
#     Edge 27, Type (0, 1), BuildingBlock: XUDNAN_clean_linker_2, # of connection points: 2
#     Edge 28, Type (0, 1), BuildingBlock: XUDNAN_clean_linker_2, # of connection points: 2
#     Edge 29, Type (0, 1), BuildingBlock: XUDNAN_clean_linker_2, # of connection points: 2
#     Edge 30, Type (0, 1), BuildingBlock: XUDNAN_clean_linker_2, # of connection points: 2
#     Edge 31, Type (0, 1), BuildingBlock: XUDNAN_clean_linker_2, # of connection points: 2
#     Edge 32, Type (0, 1), BuildingBlock: XUDNAN_clean_linker_2, # of connection points: 2
#     Edge 33, Type (0, 1), BuildingBlock: XUDNAN_clean_linker_2, # of connection points: 2
#     Edge 34, Type (0, 1), BuildingBlock: XUDNAN_clean_linker_2, # of connection points: 2
#     Edge 35, Type (0, 1), BuildingBlock: XUDNAN_clean_linker_2, # of connection points: 2
#     Edge 36, Type (0, 1), BuildingBlock: XUDNAN_clean_linker_2, # of connection points: 2
#     Edge 37, Type (0, 1), BuildingBlock: XUDNAN_clean_linker_2, # of connection points: 2
#     Edge 38, Type (0, 1), BuildingBlock: XUDNAN_clean_linker_2, # of connection points: 2
#     Edge 39, Type (0, 1), BuildingBlock: XUDNAN_clean_linker_2, # of connection points: 2
#     Edge 40, Type (0, 1), BuildingBlock: XUDNAN_clean_linker_2, # of connection points: 2
#     Edge 41, Type (0, 1), BuildingBlock: XUDNAN_clean_linker_2, # of connection points: 2
#     Edge 42, Type (0, 1), BuildingBlock: XUDNAN_clean_linker_2, # of connection points: 2
#     Edge 43, Type (0, 1), BuildingBlock: XUDNAN_clean_linker_2, # of connection points: 2
#     Edge 44, Type (0, 1), BuildingBlock: XUDNAN_clean_linker_2, # of connection points: 2
#     Edge 45, Type (0, 1), BuildingBlock: XUDNAN_clean_linker_2, # of connection points: 2
#     Edge 46, Type (0, 1), BuildingBlock: XUDNAN_clean_linker_2, # of connection points: 2
#     Edge 47, Type (0, 1), BuildingBlock: XUDNAN_clean_linker_2, # of connection points: 2
#     Edge 48, Type (0, 1), BuildingBlock: XUDNAN_clean_linker_2, # of connection points: 2
#     Edge 49, Type (0, 1), BuildingBlock: XUDNAN_clean_linker_2, # of connection points: 2
#     Edge 50, Type (0, 1), BuildingBlock: XUDNAN_clean_linker_2, # of connection points: 2
#     Edge 51, Type (0, 1), BuildingBlock: XUDNAN_clean_linker_2, # of connection points: 2
#     Edge 52, Type (0, 1), BuildingBlock: XUDNAN_clean_linker_2, # of connection points: 2
#     Edge 53, Type (0, 1), BuildingBlock: XUDNAN_clean_linker_2, # of connection points: 2
#     Edge 54, Type (0, 1), BuildingBlock: XUDNAN_clean_linker_2, # of connection points: 2
#     Edge 55, Type (0, 1), BuildingBlock: XUDNAN_clean_linker_2, # of connection points: 2
#     Edge 56, Type (0, 1), BuildingBlock: XUDNAN_clean_linker_2, # of connection points: 2
#     Edge 57, Type (0, 1), BuildingBlock: XUDNAN_clean_linker_2, # of connection points: 2
#     Edge 58, Type (0, 1), BuildingBlock: XUDNAN_clean_linker_2, # of connection points: 2
#     Edge 59, Type (0, 1), BuildingBlock: XUDNAN_clean_linker_2, # of connection points: 2
#     Edge 60, Type (0, 1), BuildingBlock: XUDNAN_clean_linker_2, # of connection points: 2
#     Edge 61, Type (0, 1), BuildingBlock: XUDNAN_clean_linker_2, # of connection points: 2
#     Edge 62, Type (0, 1), BuildingBlock: XUDNAN_clean_linker_2, # of connection points: 2
#     Edge 63, Type (0, 1), BuildingBlock: XUDNAN_clean_linker_2, # of connection points: 2
#     Edge 64, Type (0, 1), BuildingBlock: XUDNAN_clean_linker_2, # of connection points: 2
#     Edge 65, Type (0, 1), BuildingBlock: XUDNAN_clean_linker_2, # of connection points: 2
#     Edge 66, Type (0, 1), BuildingBlock: XUDNAN_clean_linker_2, # of connection points: 2
#     Edge 67, Type (0, 1), BuildingBlock: XUDNAN_clean_linker_2, # of connection points: 2
#     Edge 68, Type (0, 1), BuildingBlock: XUDNAN_clean_linker_2, # of connection points: 2
#     Edge 69, Type (0, 1), BuildingBlock: XUDNAN_clean_linker_2, # of connection points: 2
#     Edge 70, Type (0, 1), BuildingBlock: XUDNAN_clean_linker_2, # of connection points: 2
#     Edge 71, Type (0, 1), BuildingBlock: XUDNAN_clean_linker_2, # of connection points: 2
#     Edge 72, Type (0, 1), BuildingBlock: XUDNAN_clean_linker_2, # of connection points: 2
#     Edge 73, Type (0, 1), BuildingBlock: XUDNAN_clean_linker_2, # of connection points: 2
#     Edge 74, Type (0, 1), BuildingBlock: XUDNAN_clean_linker_2, # of connection points: 2
#     Edge 75, Type (0, 1), BuildingBlock: XUDNAN_clean_linker_2, # of connection points: 2
#     Edge 76, Type (0, 1), BuildingBlock: XUDNAN_clean_linker_2, # of connection points: 2
#     Edge 77, Type (0, 1), BuildingBlock: XUDNAN_clean_linker_2, # of connection points: 2
#     Edge 78, Type (0, 1), BuildingBlock: XUDNAN_clean_linker_2, # of connection points: 2
#     Edge 79, Type (0, 1), BuildingBlock: XUDNAN_clean_linker_2, # of connection points: 2
#     Edge 80, Type (0, 1), BuildingBlock: XUDNAN_clean_linker_2, # of connection points: 2
# Relax obj value: 0.068
# Max RMSD: 0.210
# Mean RMSD: 0.143
data_MOF--net-eea--node1-CUKXOW_clean_sbu_0--node2-CUQRIR_clean_linker_1--edge1-XUDNAN_clean_linker_2
_symmetry_space_group_name_H-M    P1
_symmetry_Int_Tables_number       1
_symmetry_cell_setting            triclinic
loop_
_symmetry_equiv_pos_as_xyz
'x, y, z'
_cell_length_a     53.878554
_cell_length_b     51.411052
_cell_length_c     47.317848
_cell_angle_alpha  87.045844
_cell_angle_beta   93.227572
_cell_angle_gamma 119.02782
loop_
_atom_site_label
_atom_site_type_symbol
_atom_site_fract_x
_atom_site_fract_y
_atom_site_fract_z
_atom_type_partial_charge
C0 C 0.22698 0.13108 0.42158 0.0
N1 N 0.23809 0.15435 0.4392 0.0
N2 N 0.22896 0.1076 0.43358 0.0
C3 C 0.21475 0.13161 0.39234 0.0
C4 C 0.24179 0.11755 0.45927 0.0
N5 N 0.24725 0.14595 0.46281 0.0
C6 C 0.25173 0.1007 0.47959 0.0
H7 H 0.20003 0.10874 0.38521 0.0
H8 H 0.23236 0.14254 0.37742 0.0
H9 H 0.20333 0.14471 0.39181 0.0
H10 H 0.27207 0.11605 0.49053 0.0
H11 H 0.25463 0.08386 0.46862 0.0
H12 H 0.23556 0.08907 0.49584 0.0
C13 C 0.90494 0.13398 0.43716 0.0
N14 N 0.91593 0.15516 0.4571 0.0
N15 N 0.87971 0.11097 0.44495 0.0
C16 C 0.91817 0.13654 0.4093 0.0
C17 C 0.87548 0.11902 0.4703 0.0
N18 N 0.89752 0.14585 0.47794 0.0
C19 C 0.84825 0.10216 0.48594 0.0
H20 H 0.91368 0.15147 0.39471 0.0
H21 H 0.90945 0.1145 0.39953 0.0
H22 H 0.94156 0.14648 0.41217 0.0
H23 H 0.85102 0.08791 0.50284 0.0
H24 H 0.83029 0.08759 0.47165 0.0
H25 H 0.84277 0.11768 0.49594 0.0
C26 C 0.89259 0.74652 0.41785 0.0
N27 N 0.90259 0.73571 0.43964 0.0
N28 N 0.86403 0.73458 0.41867 0.0
C29 C 0.91091 0.7711 0.39743 0.0
C30 C 0.8571 0.71584 0.44165 0.0
N31 N 0.8805 0.71644 0.45437 0.0
C32 C 0.82776 0.69857 0.45303 0.0
H33 H 0.90643 0.78994 0.39843 0.0
H34 H 0.90559 0.76279 0.37557 0.0
H35 H 0.93391 0.77927 0.40166 0.0
H36 H 0.82367 0.67608 0.46053 0.0
H37 H 0.81132 0.69641 0.43668 0.0
H38 H 0.82625 0.71018 0.47147 0.0
C39 C 0.10698 0.22148 0.61046 0.0
N40 N 0.1281 0.23166 0.59198 0.0
N41 N 0.08234 0.21676 0.59719 0.0
C42 C 0.11076 0.2163 0.64164 0.0
C43 C 0.08925 0.22475 0.56989 0.0
N44 N 0.1172 0.23397 0.56664 0.0
C45 C 0.06797 0.21992 0.54594 0.0
H46 H 0.09631 0.22052 0.65411 0.0
H47 H 0.13301 0.23095 0.64907 0.0
H48 H 0.10592 0.19286 0.64549 0.0
H49 H 0.06389 0.23912 0.5439 0.0
H50 H 0.04749 0.19967 0.55023 0.0
H51 H 0.07596 0.21758 0.52564 0.0
C52 C 0.79817 0.91027 0.63718 0.0
N53 N 0.7922 0.89109 0.61596 0.0
N54 N 0.79198 0.93211 0.62887 0.0
C55 C 0.81083 0.90807 0.66573 0.0
C56 C 0.78193 0.92559 0.60187 0.0
N57 N 0.78204 0.90067 0.59385 0.0
C58 C 0.77241 0.94396 0.58322 0.0
H59 H 0.81703 0.92803 0.67837 0.0
H60 H 0.82971 0.90522 0.66309 0.0
H61 H 0.79506 0.88806 0.67739 0.0
H62 H 0.77668 0.94311 0.56071 0.0
H63 H 0.7832 0.96747 0.58973 0.0
H64 H 0.7492 0.93487 0.58515 0.0
C65 C 0.14289 0.91589 0.65 0.0
N66 N 0.12997 0.89422 0.63052 0.0
N67 N 0.17007 0.93489 0.64319 0.0
C68 C 0.12872 0.9197 0.67472 0.0
C69 C 0.17333 0.92434 0.61894 0.0
N70 N 0.14895 0.89987 0.61095 0.0
C71 C 0.20058 0.93799 0.60324 0.0
H72 H 0.10582 0.91168 0.66975 0.0
H73 H 0.13902 0.94337 0.68071 0.0
H74 H 0.13076 0.90657 0.69317 0.0
H75 H 0.20231 0.92104 0.59116 0.0
H76 H 0.21927 0.94866 0.61804 0.0
H77 H 0.20099 0.95547 0.5882 0.0
C78 C 0.90092 0.46592 0.7557 0.0
N79 N 0.91115 0.48792 0.77478 0.0
N80 N 0.90237 0.44168 0.76635 0.0
C81 C 0.88822 0.46774 0.72701 0.0
C82 C 0.91377 0.44964 0.79281 0.0
N83 N 0.91941 0.47785 0.79801 0.0
C84 C 0.91534 0.42817 0.81484 0.0
H85 H 0.86581 0.46228 0.72932 0.0
H86 H 0.88884 0.45196 0.71231 0.0
H87 H 0.89982 0.49065 0.71781 0.0
H88 H 0.93531 0.4273 0.81264 0.0
H89 H 0.89736 0.40541 0.81176 0.0
H90 H 0.91482 0.43497 0.83658 0.0
C91 C 0.56332 0.47082 0.7594 0.0
N92 N 0.57642 0.49174 0.77963 0.0
N93 N 0.53609 0.4517 0.76585 0.0
C94 C 0.57727 0.46772 0.73406 0.0
C95 C 0.53292 0.46121 0.79077 0.0
N96 N 0.55749 0.48507 0.79964 0.0
C97 C 0.50537 0.44745 0.80605 0.0
H98 H 0.57392 0.48015 0.71573 0.0
H99 H 0.56762 0.44407 0.72823 0.0
H100 H 0.6004 0.47658 0.73824 0.0
H101 H 0.50446 0.42951 0.82074 0.0
H102 H 0.4868 0.43733 0.79106 0.0
H103 H 0.50366 0.46423 0.81843 0.0
C104 C 0.54667 0.07886 0.74828 0.0
N105 N 0.56012 0.07533 0.77202 0.0
N106 N 0.51898 0.06932 0.75295 0.0
C107 C 0.56163 0.09588 0.722 0.0
C108 C 0.51617 0.05955 0.7803 0.0
N109 N 0.54122 0.0637 0.79217 0.0
C110 C 0.48939 0.04877 0.79633 0.0
H111 H 0.58301 0.11443 0.72757 0.0
H112 H 0.54947 0.10508 0.70956 0.0
H113 H 0.56441 0.08062 0.70837 0.0
H114 H 0.48775 0.03187 0.81279 0.0
H115 H 0.47044 0.03913 0.78169 0.0
H116 H 0.48989 0.0677 0.80707 0.0
C117 C 0.80707 0.63065 0.97759 0.0
N118 N 0.827 0.63788 0.95808 0.0
N119 N 0.78997 0.64255 0.96998 0.0
C120 C 0.80371 0.61113 1.00348 0.0
C121 C 0.80023 0.65717 0.94511 0.0
N122 N 0.8227 0.65435 0.93796 0.0
C123 C 0.78685 0.67205 0.92655 0.0
H124 H 0.79255 0.58752 0.99722 0.0
H125 H 0.7913 0.61427 0.0196 0.0
H126 H 0.82472 0.61597 0.01303 0.0
H127 H 0.79496 0.6951 0.93369 0.0
H128 H 0.76341 0.65999 0.92814 0.0
H129 H 0.79215 0.67319 0.90405 0.0
C130 C 0.48276 0.25632 0.95756 0.0
N131 N 0.4691 0.23188 0.94137 0.0
N132 N 0.47857 0.27888 0.94662 0.0
C133 C 0.49861 0.25746 0.98508 0.0
C134 C 0.46197 0.26731 0.92305 0.0
N135 N 0.45612 0.23878 0.91983 0.0
C136 C 0.45078 0.28365 0.90356 0.0
H137 H 0.48909 0.23534 0.9961 0.0
H138 H 0.49874 0.27405 0.99927 0.0
H139 H 0.52089 0.26395 0.98056 0.0
H140 H 0.44966 0.27746 0.88126 0.0
H141 H 0.4643 0.3081 0.90507 0.0
H142 H 0.42896 0.27746 0.90962 0.0
C143 C 0.79698 0.26753 0.95838 0.0
N144 N 0.78393 0.24584 0.93896 0.0
N145 N 0.8236 0.28747 0.9507 0.0
C146 C 0.78341 0.27049 0.98407 0.0
C147 C 0.82653 0.27726 0.92603 0.0
N148 N 0.8023 0.2522 0.91851 0.0
C149 C 0.8542 0.29012 0.9111 0.0
H150 H 0.79294 0.29417 0.98983 0.0
H151 H 0.78717 0.25812 1.0022 0.0
H152 H 0.76017 0.26125 0.98031 0.0
H153 H 0.87257 0.30172 0.9261 0.0
H154 H 0.85488 0.30664 0.89469 0.0
H155 H 0.85643 0.27251 0.90076 0.0
C156 C 0.54262 0.79027 0.09832 0.0
N157 N 0.55806 0.81381 0.11527 0.0
N158 N 0.54403 0.76585 0.10839 0.0
C159 C 0.52772 0.79169 0.07089 0.0
C160 C 0.56072 0.77527 0.13222 0.0
N161 N 0.56992 0.80467 0.13621 0.0
C162 C 0.56503 0.75456 0.15314 0.0
H163 H 0.50593 0.78705 0.07537 0.0
H164 H 0.52613 0.7749 0.05604 0.0
H165 H 0.53899 0.81415 0.06066 0.0
H166 H 0.54652 0.73181 0.15226 0.0
H167 H 0.56794 0.76248 0.17508 0.0
H168 H 0.58405 0.75309 0.14767 0.0
C169 C 0.23707 0.80154 0.10658 0.0
N170 N 0.25005 0.82092 0.12791 0.0
N171 N 0.21042 0.7808 0.11334 0.0
C172 C 0.25051 0.80263 0.07925 0.0
C173 C 0.20746 0.78814 0.13947 0.0
N174 N 0.23142 0.81258 0.1485 0.0
C175 C 0.18106 0.77101 0.15624 0.0
H176 H 0.24984 0.82014 0.06503 0.0
H177 H 0.23906 0.78103 0.06848 0.0
H178 H 0.27311 0.8085 0.08318 0.0
H179 H 0.18635 0.77227 0.17931 0.0
H180 H 0.16945 0.74732 0.15026 0.0
H181 H 0.16678 0.7807 0.15161 0.0
C182 C 0.22386 0.4272 0.08932 0.0
N183 N 0.23354 0.4102 0.10373 0.0
N184 N 0.20484 0.42993 0.10461 0.0
C185 C 0.2351 0.44361 0.06169 0.0
C186 C 0.20327 0.41414 0.12877 0.0
N187 N 0.22095 0.40244 0.12844 0.0
C188 C 0.18409 0.40984 0.15257 0.0
H189 H 0.23143 0.46303 0.05869 0.0
H190 H 0.22401 0.42824 0.04406 0.0
H191 H 0.25818 0.45137 0.06067 0.0
H192 H 0.16513 0.41151 0.14459 0.0
H193 H 0.19592 0.42745 0.16823 0.0
H194 H 0.17711 0.38789 0.16349 0.0
C195 C 0.46936 0.92779 0.29827 0.0
N196 N 0.48959 0.94137 0.27894 0.0
N197 N 0.45248 0.94046 0.29795 0.0
C198 C 0.46607 0.90208 0.31741 0.0
C199 C 0.46328 0.9624 0.27777 0.0
N200 N 0.48616 0.96316 0.26642 0.0
C201 C 0.45183 0.98335 0.26931 0.0
H202 H 0.47405 0.88862 0.30748 0.0
H203 H 0.44351 0.88757 0.3227 0.0
H204 H 0.47868 0.91094 0.33736 0.0
H205 H 0.46647 1.0056 0.27782 0.0
H206 H 0.43064 0.97615 0.27766 0.0
H207 H 0.45077 0.98572 0.24589 0.0
C208 C 0.12995 0.57668 0.30239 0.0
N209 N 0.11805 0.55482 0.28319 0.0
N210 N 0.12568 0.59994 0.29434 0.0
C211 C 0.14535 0.57505 0.32938 0.0
C212 C 0.11079 0.5915 0.26934 0.0
N213 N 0.10612 0.56406 0.26242 0.0
C214 C 0.10178 0.61058 0.25105 0.0
H215 H 0.14574 0.5904 0.34524 0.0
H216 H 0.16754 0.58138 0.32459 0.0
H217 H 0.1352 0.55202 0.33847 0.0
H218 H 0.11883 0.62432 0.23617 0.0
H219 H 0.09824 0.6259 0.2637 0.0
H220 H 0.08198 0.59664 0.23858 0.0
C221 C 0.46939 0.59565 0.29536 0.0
N222 N 0.45548 0.57405 0.27599 0.0
N223 N 0.49459 0.61709 0.28555 0.0
C224 C 0.45952 0.59489 0.32466 0.0
C225 C 0.49589 0.60759 0.25987 0.0
N226 N 0.4724 0.58132 0.25409 0.0
C227 C 0.52055 0.62396 0.2407 0.0
H228 H 0.44538 0.605 0.32379 0.0
H229 H 0.47766 0.60785 0.33946 0.0
H230 H 0.44744 0.57164 0.33295 0.0
H231 H 0.53669 0.61686 0.24623 0.0
H232 H 0.5307 0.64832 0.24353 0.0
H233 H 0.51366 0.61908 0.21816 0.0
Tb234 Tb 0.55005 0.04937 0.02356 0.0
C235 C 0.53561 0.98457 0.04594 0.0
Tb236 Tb 0.48778 1.00522 0.04002 0.0
O237 O 0.56494 0.05388 0.06769 0.0
O238 O 0.52288 0.04364 0.05698 0.0
O239 O 0.55348 1.00875 0.03119 0.0
C240 C 0.43998 0.96788 0.06741 0.0
O241 O 0.50971 0.97936 0.05218 0.0
C242 C 0.49952 1.00793 0.9861 0.0
C243 C 0.50266 0.07052 0.0198 0.0
O244 O 0.44108 0.97775 0.04145 0.0
O245 O 0.46582 0.97908 0.0779 0.0
O246 O 0.47459 1.00086 0.99492 0.0
O247 O 0.51535 1.01052 1.00746 0.0
O248 O 0.48562 0.0467 0.0354 0.0
O249 O 0.52786 0.07511 0.01178 0.0
C250 C 0.59717 0.08646 0.99553 0.0
O251 O 0.59523 0.08295 0.02281 0.0
O252 O 0.5725 0.06891 0.98389 0.0
C253 C 0.54006 0.04585 0.07717 0.0
Tb254 Tb 0.99642 0.546 0.02637 0.0
C255 C 0.06032 0.59464 0.03431 0.0
Tb256 Tb 0.04083 0.52576 0.02951 0.0
O257 O 1.00073 0.55277 0.0724 0.0
O258 O 1.00845 0.52099 0.0557 0.0
O259 O 0.03506 0.58917 0.02324 0.0
C260 C 0.08198 0.5141 0.0484 0.0
O261 O 0.06654 0.57287 0.04019 0.0
C262 C 0.02652 0.53606 0.97776 0.0
C263 C 0.97721 0.47729 0.02022 0.0
O264 O 0.06829 0.50607 0.02422 0.0
O265 O 0.0724 0.52845 0.06194 0.0
O266 O 0.03696 0.51834 0.98397 0.0
O267 O 0.02821 0.54994 0.99965 0.0
O268 O 1.0023 0.4824 0.03152 0.0
O269 O 0.97118 0.4992 0.01426 0.0
C270 C 0.95548 0.5587 0.00797 0.0
O271 O 0.97403 0.57199 0.02821 0.0
O272 O 0.9596 0.53795 0.99862 0.0
C273 C 0.01052 0.53441 0.07784 0.0
Tb274 Tb 0.47394 0.50282 0.02608 0.0
C275 C 0.5082 0.46878 0.01797 0.0
Tb276 Tb 0.53926 0.53808 0.03099 0.0
O277 O 0.47528 0.49301 0.98188 0.0
O278 O 0.50758 0.53193 0.99949 0.0
O279 O 0.48358 0.46615 0.02526 0.0
C280 C 0.59443 0.56701 0.02109 0.0
O281 O 0.53172 0.49497 0.01631 0.0
C282 C 0.51433 0.52524 0.07971 0.0
C283 C 0.50538 0.57308 0.03673 0.0
O284 O 0.58177 0.5425 0.0361 0.0
O285 O 0.57607 0.57503 0.0115 0.0
O286 O 0.54027 0.54604 0.07619 0.0
O287 O 0.50569 0.51001 0.05762 0.0
O288 O 0.53027 0.57498 0.03194 0.0
O289 O 0.4811 0.5474 0.03627 0.0
C290 C 0.41911 0.4724 0.03807 0.0
O291 O 0.42905 0.48795 0.01488 0.0
O292 O 0.4399 0.47399 0.05438 0.0
C293 C 0.49997 0.51611 0.97783 0.0
Tb294 Tb 0.21511 0.38211 0.35179 0.0
C295 C 0.20195 0.31629 0.37066 0.0
Tb296 Tb 0.15243 0.33201 0.36421 0.0
O297 O 0.22899 0.38234 0.3961 0.0
O298 O 0.18665 0.36804 0.38551 0.0
O299 O 0.21793 0.34067 0.35512 0.0
C300 C 0.1001 0.29899 0.38499 0.0
O301 O 0.17677 0.31028 0.37974 0.0
C302 C 0.17183 0.33266 0.31399 0.0
C303 C 0.16463 0.3979 0.3446 0.0
O304 O 0.10601 0.31317 0.36064 0.0
O305 O 0.12379 0.30332 0.39775 0.0
O306 O 0.15164 0.30879 0.32561 0.0
O307 O 0.17741 0.35419 0.32913 0.0
O308 O 0.14722 0.37166 0.35678 0.0
O309 O 0.19156 0.40613 0.33913 0.0
C310 C 0.26479 0.41892 0.32821 0.0
O311 O 0.25194 0.42675 0.34575 0.0
O312 O 0.24934 0.39063 0.32367 0.0
C313 C 0.20354 0.36945 0.40569 0.0
Tb314 Tb 0.67274 0.87433 0.35595 0.0
C315 C 0.73679 0.9226 0.36217 0.0
Tb316 Tb 0.71831 0.85501 0.35307 0.0
O317 O 0.67774 0.88032 0.40209 0.0
O318 O 0.68979 0.85273 0.38323 0.0
O319 O 0.71139 0.91726 0.35156 0.0
C320 C 0.75784 0.8382 0.36144 0.0
O321 O 0.74331 0.90092 0.36742 0.0
C322 C 0.69639 0.86239 0.30393 0.0
C323 C 0.65399 0.80562 0.34894 0.0
O324 O 0.75671 0.85478 0.34031 0.0
O325 O 0.73706 0.83149 0.37793 0.0
O326 O 0.70638 0.84407 0.30841 0.0
O327 O 0.70147 0.87743 0.32582 0.0
O328 O 0.68054 0.81119 0.35447 0.0
O329 O 0.64667 0.82689 0.34717 0.0
C330 C 0.63023 0.88381 0.3367 0.0
O331 O 0.63395 0.86181 0.33038 0.0
O332 O 0.65016 0.90039 0.35472 0.0
C333 C 0.69189 0.86579 0.40583 0.0
Tb334 Tb 0.14961 0.83827 0.3762 0.0
C335 C 0.17426 0.79448 0.36926 0.0
Tb336 Tb 0.2143 0.86356 0.38209 0.0
O337 O 0.14715 0.83045 0.33033 0.0
O338 O 0.18464 0.86139 0.3501 0.0
O339 O 0.15108 0.79662 0.37327 0.0
C340 C 0.26887 0.88174 0.3752 0.0
O341 O 0.20023 0.81771 0.37068 0.0
C342 C 0.18821 0.8559 0.42932 0.0
C343 C 0.191 0.90841 0.38289 0.0
O344 O 0.25253 0.88727 0.35774 0.0
O345 O 0.25468 0.86618 0.39684 0.0
O346 O 0.21404 0.87674 0.4252 0.0
O347 O 0.17905 0.83933 0.40827 0.0
O348 O 0.21278 0.90489 0.37634 0.0
O349 O 0.16536 0.88532 0.38754 0.0
C350 C 0.09668 0.81845 0.39264 0.0
O351 O 0.11086 0.84223 0.37701 0.0
O352 O 0.11206 0.80571 0.39855 0.0
C353 C 0.17441 0.84736 0.32752 0.0
Tb354 Tb 0.884 0.70974 0.69166 0.0
C355 C 0.86072 0.64211 0.71305 0.0
Tb356 Tb 0.8193 0.66963 0.70101 0.0
O357 O 0.88787 0.7345 0.72938 0.0
O358 O 0.85728 0.6901 0.72624 0.0
O359 O 0.8818 0.66593 0.7006 0.0
C360 C 0.76796 0.64166 0.72465 0.0
O361 O 0.8357 0.64029 0.71731 0.0
C362 C 0.8379 0.66676 0.65171 0.0
C363 C 0.84247 0.73707 0.67852 0.0
O364 O 0.77262 0.64131 0.69802 0.0
O365 O 0.79213 0.65828 0.73763 0.0
O366 O 0.81576 0.64463 0.66305 0.0
O367 O 0.84626 0.68906 0.66675 0.0
O368 O 0.82127 0.7132 0.69081 0.0
O369 O 0.86769 0.73907 0.6749 0.0
C370 C 0.93645 0.73873 0.67109 0.0
O371 O 0.93039 0.73692 0.69754 0.0
O372 O 0.913 0.72363 0.65639 0.0
C373 C 0.86634 0.71244 0.7415 0.0
Tb374 Tb 0.32756 0.20289 0.69507 0.0
C375 C 0.39112 0.25802 0.69659 0.0
Tb376 Tb 0.37624 0.19195 0.68783 0.0
O377 O 0.32125 0.18554 0.73887 0.0
O378 O 0.3613 0.20488 0.72208 0.0
O379 O 0.36332 0.24893 0.69411 0.0
C380 C 0.4134 0.17165 0.69027 0.0
O381 O 0.40132 0.23909 0.69693 0.0
C382 C 0.35514 0.20484 0.64085 0.0
C383 C 0.31433 0.13724 0.69059 0.0
O384 O 0.39777 0.17112 0.66829 0.0
O385 O 0.40848 0.18406 0.71084 0.0
O386 O 0.38194 0.21325 0.64541 0.0
O387 O 0.34174 0.18878 0.66153 0.0
O388 O 0.34157 0.14692 0.69739 0.0
O389 O 0.30486 0.15621 0.68365 0.0
C390 C 0.287 0.21753 0.68171 0.0
O391 O 0.28589 0.19855 0.70144 0.0
O392 O 0.31141 0.22885 0.67004 0.0
C393 C 0.34713 0.19018 0.74307 0.0
Tb394 Tb 0.80476 0.17079 0.69883 0.0
C395 C 0.82392 0.12336 0.6957 0.0
Tb396 Tb 0.86798 0.19272 0.70061 0.0
O397 O 0.80111 0.15981 0.6537 0.0
O398 O 0.83836 0.19424 0.67068 0.0
O399 O 0.80438 0.1286 0.70574 0.0
C400 C 0.9185 0.20084 0.68775 0.0
O401 O 0.84917 0.14558 0.68877 0.0
C402 C 0.84595 0.18659 0.74983 0.0
C403 C 0.84824 0.24083 0.70413 0.0
O404 O 0.90494 0.18685 0.71022 0.0
O405 O 0.90412 0.21135 0.673 0.0
O406 O 0.87192 0.20625 0.74431 0.0
O407 O 0.83469 0.16989 0.72896 0.0
O408 O 0.87043 0.23652 0.70111 0.0
O409 O 0.82157 0.21867 0.70364 0.0
C410 C 0.75478 0.15852 0.71859 0.0
O411 O 0.77938 0.17591 0.73011 0.0
O412 O 0.75817 0.14844 0.69527 0.0
C413 C 0.82751 0.17895 0.64907 0.0
H414 H 0.27237 0.87024 0.09355 0.0
H415 H 0.29424 0.82194 0.15848 0.0
H416 H 0.34513 0.85763 0.15343 0.0
H417 H 0.32598 0.87921 0.04906 0.0
H418 H 0.33351 0.91536 0.03468 0.0
H419 H 0.29873 0.89005 0.04732 0.0
H420 H 0.30236 0.92975 0.08128 0.0
H421 H 0.33706 0.95537 0.06852 0.0
H422 H 0.33237 0.94653 0.10586 0.0
H423 H 0.39398 0.89632 0.13861 0.0
H424 H 0.43668 0.93301 0.11374 0.0
H425 H 0.38408 0.95348 0.05428 0.0
C426 C 0.28796 0.86812 0.10749 0.0
C427 C 0.27921 0.84469 0.12817 0.0
C428 C 0.30023 0.84121 0.14456 0.0
C429 C 0.32928 0.86103 0.14124 0.0
C430 C 0.33721 0.88381 0.12064 0.0
C431 C 0.31716 0.8873 0.10382 0.0
C432 C 0.33136 0.91124 0.08091 0.0
C433 C 0.32183 0.89818 0.05124 0.0
C434 C 0.32543 0.93727 0.08436 0.0
C435 C 0.36249 0.92053 0.08735 0.0
C436 C 0.36535 0.90467 0.11062 0.0
C437 C 0.39193 0.90899 0.12051 0.0
C438 C 0.41615 0.93001 0.10634 0.0
C439 C 0.41386 0.94634 0.0823 0.0
C440 C 0.38656 0.9414 0.07267 0.0
H441 H 0.16979 0.42607 0.06011 0.0
H442 H 0.21093 0.47494 0.1359 0.0
H443 H 0.1859 0.50448 0.12799 0.0
H444 H 0.16989 0.48899 0.01836 0.0
H445 H 0.13549 0.46577 1.00196 0.0
H446 H 0.1585 0.45039 0.0124 0.0
H447 H 0.11864 0.40944 0.04249 0.0
H448 H 0.0956 0.42476 0.03229 0.0
H449 H 0.10302 0.42008 0.06926 0.0
H450 H 0.15382 0.52551 0.11403 0.0
H451 H 0.11722 0.53779 0.09415 0.0
H452 H 0.0972 0.47573 0.02691 0.0
C453 C 0.17378 0.44342 0.07459 0.0
C454 C 0.19205 0.44847 0.09858 0.0
C455 C 0.19676 0.47091 0.11753 0.0
C456 C 0.18279 0.48776 0.11312 0.0
C457 C 0.16441 0.48193 0.08952 0.0
C458 C 0.15999 0.46046 0.07044 0.0
C459 C 0.13806 0.45763 0.04762 0.0
C460 C 0.15128 0.46622 0.01835 0.0
C461 C 0.11231 0.42611 0.04795 0.0
C462 C 0.13038 0.48037 0.05722 0.0
C463 C 0.14596 0.49425 0.08134 0.0
C464 C 0.14169 0.51505 0.09498 0.0
C465 C 0.12082 0.52176 0.08369 0.0
C466 C 0.10457 0.50768 0.05915 0.0
C467 C 0.1096 0.48698 0.04559 0.0
H468 H 0.57342 0.73814 0.09513 0.0
H469 H 0.48902 0.72852 0.09331 0.0
H470 H 0.46941 0.67826 0.07324 0.0
H471 H 0.5656 0.70073 0.02975 0.0
H472 H 0.58628 0.68343 0.04296 0.0
H473 H 0.59328 0.71855 0.05653 0.0
H474 H 0.58609 0.696 0.10762 0.0
H475 H 0.57916 0.66086 0.0942 0.0
H476 H 0.55352 0.6627 0.11572 0.0
H477 H 0.45916 0.62757 0.05532 0.0
H478 H 0.45929 0.58237 0.03981 0.0
H479 H 0.55097 0.62631 0.05247 0.0
C480 C 0.55082 0.72537 0.09045 0.0
C481 C 0.53264 0.73706 0.09573 0.0
C482 C 0.50322 0.71993 0.08919 0.0
C483 C 0.49197 0.6914 0.07791 0.0
C484 C 0.51049 0.68039 0.07311 0.0
C485 C 0.53934 0.697 0.07907 0.0
C486 C 0.55475 0.68017 0.07223 0.0
C487 C 0.57625 0.69671 0.04898 0.0
C488 C 0.56923 0.6746 0.09904 0.0
C489 C 0.53013 0.65141 0.06156 0.0
C490 C 0.50472 0.65183 0.06232 0.0
C491 C 0.479 0.6272 0.05441 0.0
C492 C 0.47929 0.60157 0.0456 0.0
C493 C 0.50514 0.60074 0.04451 0.0
C494 C 0.53083 0.62621 0.05253 0.0
H495 H 0.84771 0.34592 0.93512 0.0
H496 H 0.84824 0.28472 1.00106 0.0
H497 H 0.88787 0.32673 0.02646 0.0
H498 H 0.92274 0.39497 0.93421 0.0
H499 H 0.91994 0.42844 0.92894 0.0
H500 H 0.89177 0.39362 0.9162 0.0
H501 H 0.85566 0.40023 0.94481 0.0
H502 H 0.88382 0.43509 0.95755 0.0
H503 H 0.862 0.40617 0.98235 0.0
H504 H 0.92985 0.37521 0.04261 0.0
H505 H 0.96738 0.42699 0.05123 0.0
H506 H 0.93707 0.45744 0.97676 0.0
C507 C 0.85612 0.34162 0.95506 0.0
C508 C 0.84509 0.31228 0.96635 0.0
C509 C 0.85644 0.30716 0.99237 0.0
C510 C 0.87896 0.33083 1.00677 0.0
C511 C 0.88962 0.35957 0.99501 0.0
C512 C 0.87828 0.36512 0.96995 0.0
C513 C 0.89323 0.39813 0.96217 0.0
C514 C 0.90778 0.40413 0.93369 0.0
C515 C 0.87243 0.41064 0.96171 0.0
C516 C 0.91492 0.41025 0.98659 0.0
C517 C 0.91273 0.38759 1.00511 0.0
C518 C 0.93147 0.39315 0.02846 0.0
C519 C 0.95279 0.42259 0.03314 0.0
C520 C 0.95489 0.44623 0.0149 0.0
C521 C 0.93562 0.43986 0.99137 0.0
H522 H 0.74564 0.5893 0.98449 0.0
H523 H 0.77628 0.68431 0.98315 0.0
H524 H 0.72951 0.67543 0.99841 0.0
H525 H 0.67721 0.56697 0.95857 0.0
H526 H 0.65993 0.5343 0.98125 0.0
H527 H 0.69632 0.54812 0.97232 0.0
H528 H 0.71152 0.55182 0.02554 0.0
H529 H 0.67507 0.53757 0.0347 0.0
H530 H 0.7022 0.57255 0.04834 0.0
H531 H 0.67794 0.65576 1.00705 0.0
H532 H 0.62636 0.6269 0.01508 0.0
H533 H 0.63076 0.54488 0.01612 0.0
C534 C 0.74272 0.60819 0.98836 0.0
C535 C 0.76436 0.63749 0.98272 0.0
C536 C 0.75972 0.66174 0.98722 0.0
C537 C 0.73335 0.65689 0.99594 0.0
C538 C 0.71217 0.62766 1.00066 0.0
C539 C 0.71676 0.60373 0.99768 0.0
C540 C 0.69027 0.5745 1.0035 0.0
C541 C 0.68036 0.55483 0.97735 0.0
C542 C 0.69505 0.55815 0.02958 0.0
C543 C 0.66982 0.58569 0.0094 0.0
C544 C 0.68284 0.61642 1.00742 0.0
C545 C 0.66766 0.63176 0.00937 0.0
C546 C 0.63845 0.61525 0.01373 0.0
C547 C 0.625 0.58389 0.01658 0.0
C548 C 0.64087 0.56895 0.01462 0.0
H549 H 0.51039 0.21634 0.9396 0.0
H550 H 0.42361 0.18407 0.9627 0.0
H551 H 0.42218 0.13844 0.9842 0.0
H552 H 0.50309 0.14208 0.9245 0.0
H553 H 0.53804 0.15206 0.93921 0.0
H554 H 0.5309 0.18028 0.9228 0.0
H555 H 0.54881 0.21031 0.96877 0.0
H556 H 0.55555 0.18198 0.98549 0.0
H557 H 0.53268 0.1929 1.00178 0.0
H558 H 0.43196 0.09878 1.00745 0.0
H559 H 0.45042 0.06586 0.02702 0.0
H560 H 0.53138 0.12344 0.98883 0.0
C561 C 0.49083 0.19903 0.94826 0.0
C562 C 0.46664 0.20306 0.94849 0.0
C563 C 0.44179 0.1807 0.96113 0.0
C564 C 0.44101 0.15495 0.97376 0.0
C565 C 0.46536 0.15186 0.97367 0.0
C566 C 0.48971 0.17308 0.96086 0.0
C567 C 0.51335 0.16494 0.96483 0.0
C568 C 0.52184 0.15952 0.93613 0.0
C569 C 0.53912 0.18896 0.98119 0.0
C570 C 0.4987 0.13618 0.98236 0.0
C571 C 0.47103 0.12907 0.98721 0.0
C572 C 0.45351 0.10402 1.00352 0.0
C573 C 0.46431 0.08549 0.01474 0.0
C574 C 0.49246 0.0919 0.00967 0.0
C575 C 0.50981 0.11779 0.99327 0.0
H576 H 0.76095 0.20782 0.98376 0.0
H577 H 0.74233 0.22708 0.8975 0.0
H578 H 0.69281 0.18582 0.90111 0.0
H579 H 0.71561 0.1276 0.98455 0.0
H580 H 0.70475 0.12617 0.02019 0.0
H581 H 0.73914 0.15494 0.0095 0.0
H582 H 0.72733 0.19519 0.02503 0.0
H583 H 0.69294 0.16657 0.03581 0.0
H584 H 0.69569 0.19536 0.01069 0.0
H585 H 0.64423 0.14277 0.91547 0.0
H586 H 0.60134 0.10459 0.93958 0.0
H587 H 0.65144 0.11713 0.01767 0.0
C588 C 0.74643 0.20337 0.96565 0.0
C589 C 0.75549 0.22065 0.94032 0.0
C590 C 0.73593 0.21387 0.91695 0.0
C591 C 0.70776 0.19056 0.91891 0.0
C592 C 0.69935 0.17438 0.94449 0.0
C593 C 0.71819 0.18068 0.96747 0.0
C594 C 0.70365 0.1615 0.99317 0.0
C595 C 0.71656 0.14136 1.00239 0.0
C596 C 0.70498 0.18081 0.01761 0.0
C597 C 0.67357 0.1435 0.98124 0.0
C598 C 0.67151 0.15087 0.95301 0.0
C599 C 0.6457 0.13695 0.93757 0.0
C600 C 0.62144 0.11526 0.95141 0.0
C601 C 0.62304 0.10801 0.9805 0.0
C602 C 0.64953 0.12228 0.99544 0.0
H603 H 0.87368 0.65333 0.99186 0.0
H604 H 0.82257 0.59512 0.92458 0.0
H605 H 0.85214 0.5702 0.92788 0.0
H606 H 0.94268 0.65904 0.97492 0.0
H607 H 0.95283 0.6581 0.01176 0.0
H608 H 0.93024 0.67392 1.00104 0.0
H609 H 0.89281 0.63797 0.03632 0.0
H610 H 0.91503 0.62172 0.04686 0.0
H611 H 0.87911 0.59842 0.03386 0.0
H612 H 0.88447 0.54893 0.94155 0.0
H613 H 0.91809 0.53344 0.96368 0.0
H614 H 0.94695 0.60415 0.02384 0.0
C615 C 0.86945 0.63591 0.97736 0.0
C616 C 0.84659 0.62655 0.95737 0.0
C617 C 0.84073 0.60314 0.93923 0.0
C618 C 0.85721 0.58874 0.94121 0.0
C619 C 0.87928 0.59799 0.96164 0.0
C620 C 0.88552 0.62115 0.97933 0.0
C621 C 0.90889 0.62523 1.00093 0.0
C622 C 0.93522 0.65589 0.99691 0.0
C623 C 0.89831 0.62055 0.03128 0.0
C624 C 0.91448 0.60043 0.99296 0.0
C625 C 0.89732 0.58514 0.97011 0.0
C626 C 0.89814 0.56086 0.95933 0.0
C627 C 0.91716 0.55213 0.97211 0.0
C628 C 0.93491 0.56753 0.9955 0.0
C629 C 0.93353 0.59196 1.00602 0.0
H630 H 0.44629 0.3036 0.96011 0.0
H631 H 0.5329 0.31977 0.95901 0.0
H632 H 0.55012 0.37002 0.97803 0.0
H633 H 0.4615 0.37843 0.93857 0.0
H634 H 0.43548 0.37847 0.96086 0.0
H635 H 0.43028 0.34398 0.94735 0.0
H636 H 0.42543 0.32196 0.99857 0.0
H637 H 0.43076 0.35645 0.0122 0.0
H638 H 0.45344 0.34125 0.02467 0.0
H639 H 0.55776 0.41911 0.99592 0.0
H640 H 0.55543 0.46259 0.01252 0.0
H641 H 0.46349 0.41425 1.00279 0.0
C642 C 0.46887 0.31786 0.96383 0.0
C643 C 0.48838 0.30797 0.95809 0.0
C644 C 0.51772 0.327 0.96344 0.0
C645 C 0.52762 0.35553 0.97412 0.0
C646 C 0.50786 0.36471 0.97945 0.0
C647 C 0.47907 0.3464 0.97453 0.0
C648 C 0.4623 0.36164 0.982 0.0
C649 C 0.44646 0.36588 0.95562 0.0
C650 C 0.44177 0.34429 1.00578 0.0
C651 C 0.48608 0.39128 0.99213 0.0
C652 C 0.51222 0.39268 0.99027 0.0
C653 C 0.53738 0.41812 0.99766 0.0
C654 C 0.53582 0.44276 1.00709 0.0
C655 C 0.50927 0.44185 0.00937 0.0
C656 C 0.48411 0.41558 1.00182 0.0
H657 H 0.19814 0.72313 0.11312 0.0
H658 H 0.17384 0.78636 0.07584 0.0
H659 H 0.13379 0.74587 0.04924 0.0
H660 H 0.17985 0.67626 0.05039 0.0
H661 H 0.16687 0.64224 0.07142 0.0
H662 H 0.1946 0.67658 0.08561 0.0
H663 H 0.16428 0.66938 0.12894 0.0
H664 H 0.13678 0.63508 0.11477 0.0
H665 H 0.1287 0.6639 0.12324 0.0
H666 H 0.0946 0.69772 0.02938 0.0
H667 H 0.05985 0.64617 0.01683 0.0
H668 H 0.10988 0.61387 0.06687 0.0
C669 C 0.1846 0.72831 0.09888 0.0
C670 C 0.18899 0.75769 0.09606 0.0
C671 C 0.17076 0.76392 0.07781 0.0
C672 C 0.14804 0.74109 0.06276 0.0
C673 C 0.14397 0.71215 0.06616 0.0
C674 C 0.16188 0.70573 0.08362 0.0
C675 C 0.15221 0.67264 0.08439 0.0
C676 C 0.17473 0.66658 0.07222 0.0
C677 C 0.14505 0.65949 0.11464 0.0
C678 C 0.12576 0.66131 0.06508 0.0
C679 C 0.12147 0.68449 0.05468 0.0
C680 C 0.09793 0.67945 0.03718 0.0
C681 C 0.07825 0.65003 0.03018 0.0
C682 C 0.08215 0.62585 0.04056 0.0
C683 C 0.10641 0.63179 0.05815 0.0
H684 H 0.28526 0.42984 0.12954 0.0
H685 H 0.23311 0.38251 0.0572 0.0
H686 H 0.27563 0.3886 0.03394 0.0
H687 H 0.3395 0.48332 0.09429 0.0
H688 H 0.36845 0.48599 0.11725 0.0
H689 H 0.33384 0.47244 0.13121 0.0
H690 H 0.33315 0.42372 0.14923 0.0
H691 H 0.36821 0.43745 0.136 0.0
H692 H 0.33969 0.40193 0.12503 0.0
H693 H 0.32366 0.41077 0.01416 0.0
H694 H 0.37446 0.43923 1.00252 0.0
H695 H 0.39628 0.46857 0.08898 0.0
C696 C 0.28281 0.41933 0.10957 0.0
C697 C 0.25611 0.40541 0.09513 0.0
C698 C 0.25349 0.39286 0.06853 0.0
C699 C 0.27751 0.39638 0.05518 0.0
C700 C 0.30389 0.41192 0.0691 0.0
C701 C 0.30666 0.42236 0.09613 0.0
C702 C 0.33772 0.44046 0.1053 0.0
C703 C 0.34529 0.47244 0.11241 0.0
C704 C 0.34513 0.42495 0.13038 0.0
C705 C 0.35183 0.43995 0.07866 0.0
C706 C 0.33192 0.42341 0.05802 0.0
C707 C 0.33954 0.42287 0.03044 0.0
C708 C 0.36831 0.43928 0.02392 0.0
C709 C 0.38901 0.45548 0.04501 0.0
C710 C 0.38074 0.45561 0.07274 0.0
H711 H 0.51769 0.83061 0.11487 0.0
H712 H 0.60685 0.86323 0.10187 0.0
H713 H 0.61164 0.91175 0.08406 0.0
H714 H 0.50275 0.86231 0.05428 0.0
H715 H 0.47876 0.87197 0.07014 0.0
H716 H 0.48313 0.84132 0.08464 0.0
H717 H 0.49661 0.86539 0.13376 0.0
H718 H 0.49227 0.89623 0.11961 0.0
H719 H 0.52533 0.90291 0.1371 0.0
H720 H 0.60489 0.9546 0.0626 0.0
H721 H 0.5888 0.98986 0.04377 0.0
H722 H 0.50391 0.9296 0.07225 0.0
C723 C 0.53833 0.84838 0.109 0.0
C724 C 0.56205 0.84352 0.10998 0.0
C725 C 0.58867 0.86687 0.10167 0.0
C726 C 0.59144 0.89434 0.09138 0.0
C727 C 0.56742 0.89818 0.08988 0.0
C728 C 0.54147 0.87599 0.09903 0.0
C729 C 0.51874 0.88532 0.09445 0.0
C730 C 0.49442 0.86396 0.0747 0.0
C731 C 0.50758 0.8876 0.12292 0.0
C732 C 0.53563 0.9158 0.08039 0.0
C733 C 0.56368 0.92287 0.07801 0.0
C734 C 0.58304 0.94937 0.0647 0.0
C735 C 0.57362 0.96923 0.05387 0.0
C736 C 0.54502 0.96266 0.05635 0.0
C737 C 0.52591 0.93548 0.06992 0.0
H738 H 0.97046 0.16838 0.46962 0.0
H739 H 0.91801 0.20406 0.432 0.0
H740 H 0.96056 0.24737 0.41271 0.0
H741 H 0.03627 0.24262 0.48507 0.0
H742 H 0.05956 0.22873 0.47573 0.0
H743 H 0.02595 0.20384 0.49111 0.0
H744 H 0.01283 0.16955 0.44834 0.0
H745 H 0.04608 0.19462 0.43258 0.0
H746 H 0.01314 0.18463 0.41302 0.0
H747 H 1.00725 0.2823 0.39123 0.0
H748 H 0.05556 0.30896 0.37248 0.0
H749 H 0.07888 0.25096 0.4231 0.0
C750 C 0.96835 0.18626 0.45868 0.0
C751 C 0.94111 0.18373 0.45354 0.0
C752 C 0.93879 0.20644 0.43743 0.0
C753 C 0.96284 0.23087 0.42606 0.0
C754 C 0.98928 0.23231 0.43077 0.0
C755 C 0.99232 0.21085 0.44708 0.0
C756 C 0.02274 0.21631 0.44666 0.0
C757 C 0.03696 0.22329 0.47641 0.0
C758 C 0.02374 0.1897 0.43442 0.0
C759 C 0.03605 0.24358 0.42692 0.0
C760 C 0.01635 0.25248 0.41814 0.0
C761 C 0.02298 0.27588 0.39844 0.0
C762 C 0.05044 0.29078 0.38774 0.0
C763 C 0.0712 0.2825 0.39676 0.0
C764 C 0.06378 0.25847 0.41656 0.0
H765 H 0.83466 0.75679 0.44349 0.0
H766 H 0.85667 0.74053 0.3621 0.0
H767 H 0.83387 0.76801 0.33814 0.0
H768 H 0.76436 0.74551 0.41961 0.0
H769 H 0.76627 0.77335 0.44262 0.0
H770 H 0.7846 0.75269 0.45268 0.0
H771 H 0.83161 0.80231 0.45842 0.0
H772 H 0.81355 0.8231 0.44778 0.0
H773 H 0.84399 0.82862 0.42897 0.0
H774 H 0.81158 0.8005 0.32385 0.0
H775 H 0.78459 0.82828 0.3194 0.0
H776 H 0.77312 0.81833 0.41001 0.0
C777 C 0.83398 0.75832 0.42059 0.0
C778 C 0.8474 0.74668 0.40452 0.0
C779 C 0.84675 0.7497 0.37466 0.0
C780 C 0.83386 0.7652 0.36096 0.0
C781 C 0.82131 0.77698 0.37753 0.0
C782 C 0.82066 0.77305 0.40664 0.0
C783 C 0.80504 0.787 0.41957 0.0
C784 C 0.77849 0.76322 0.43449 0.0
C785 C 0.82473 0.81172 0.43988 0.0
C786 C 0.7972 0.79967 0.3932 0.0
C787 C 0.80718 0.79412 0.36919 0.0
C788 C 0.80337 0.80466 0.34245 0.0
C789 C 0.78827 0.82058 0.34014 0.0
C790 C 0.77683 0.8252 0.36436 0.0
C791 C 0.7816 0.81488 0.39118 0.0
H792 H 0.19552 0.05054 0.45206 0.0
H793 H 0.25149 0.10399 0.38543 0.0
H794 H 0.24504 0.05831 0.36346 0.0
H795 H 0.22112 0.99882 0.45912 0.0
H796 H 0.18723 0.96721 0.46626 0.0
H797 H 0.19414 1.00361 0.47536 0.0
H798 H 0.14972 0.99659 0.44555 0.0
H799 H 0.14241 0.95987 0.43643 0.0
H800 H 0.14613 0.98694 0.40888 0.0
H801 H 0.23562 1.00742 0.35101 0.0
H802 H 0.22304 0.95466 0.34785 0.0
H803 H 0.17157 0.93271 0.42162 0.0
C804 C 0.20598 0.0524 0.43259 0.0
C805 C 0.22373 0.08067 0.42015 0.0
C806 C 0.23747 0.08248 0.39494 0.0
C807 C 0.23396 0.05667 0.3824 0.0
C808 C 0.21646 0.0291 0.39526 0.0
C809 C 0.2025 0.02675 0.41965 0.0
C810 C 0.18626 0.99455 0.43002 0.0
C811 C 0.19791 0.99087 0.45944 0.0
C812 C 0.15422 0.98386 0.43023 0.0
C813 C 0.1931 0.97902 0.4076 0.0
C814 C 0.21074 0.99954 0.38786 0.0
C815 C 0.2215 0.99113 0.3661 0.0
C816 C 0.21425 0.96108 0.36449 0.0
C817 C 0.19606 0.93948 0.38424 0.0
C818 C 0.18506 0.94859 0.40591 0.0
H819 H 0.51029 0.67572 0.2802 0.0
H820 H 0.53125 0.61245 0.32356 0.0
H821 H 0.57407 0.6539 0.34592 0.0
H822 H 0.58121 0.73044 0.26498 0.0
H823 H 0.57616 0.76196 0.27047 0.0
H824 H 0.54655 0.72737 0.25916 0.0
H825 H 0.51841 0.72645 0.30222 0.0
H826 H 0.54792 0.76114 0.31355 0.0
H827 H 0.53395 0.72917 0.33744 0.0
H828 H 0.61638 0.70248 0.36057 0.0
H829 H 0.65344 0.7544 0.36908 0.0
H830 H 0.60411 0.78639 0.31749 0.0
C831 C 0.52372 0.67082 0.29487 0.0
C832 C 0.51753 0.6411 0.30068 0.0
C833 C 0.53567 0.63517 0.31938 0.0
C834 C 0.55999 0.65853 0.33198 0.0
C835 C 0.56579 0.68772 0.32565 0.0
C836 C 0.54805 0.69395 0.30771 0.0
C837 C 0.5595 0.72729 0.30392 0.0
C838 C 0.56625 0.73734 0.27279 0.0
C839 C 0.5387 0.73655 0.31495 0.0
C840 C 0.58644 0.73881 0.32247 0.0
C841 C 0.5898 0.71564 0.33461 0.0
C842 C 0.61377 0.72079 0.35146 0.0
C843 C 0.63476 0.75035 0.35611 0.0
C844 C 0.63153 0.77445 0.34428 0.0
C845 C 0.60695 0.76845 0.3273 0.0
H846 H 0.39893 0.92266 0.27844 0.0
H847 H 0.45156 0.93812 0.3549 0.0
H848 H 0.40935 0.92229 0.38396 0.0
H849 H 0.3573 0.95302 0.30358 0.0
H850 H 0.32499 0.92686 0.2855 0.0
H851 H 0.35886 0.93695 0.27119 0.0
H852 H 0.34568 0.88126 0.27127 0.0
H853 H 0.31179 0.87106 0.28563 0.0
H854 H 0.33518 0.85931 0.30372 0.0
H855 H 0.36111 0.90434 0.40416 0.0
H856 H 0.31119 0.88969 0.41412 0.0
H857 H 0.29198 0.89121 0.32403 0.0
C858 C 0.40142 0.92285 0.30131 0.0
C859 C 0.42819 0.93172 0.31469 0.0
C860 C 0.43098 0.93132 0.34456 0.0
C861 C 0.40724 0.92239 0.36108 0.0
C862 C 0.38109 0.91422 0.34721 0.0
C863 C 0.37812 0.91466 0.31799 0.0
C864 C 0.34813 0.90653 0.30823 0.0
C865 C 0.34728 0.93239 0.29113 0.0
C866 C 0.33439 0.87783 0.29122 0.0
C867 C 0.3347 0.90162 0.33654 0.0
C868 C 0.35385 0.9056 0.35879 0.0
C869 C 0.34596 0.90138 0.38693 0.0
C870 C 0.31771 0.89308 0.3924 0.0
C871 C 0.29821 0.88983 0.36981 0.0
C872 C 0.30678 0.89409 0.34164 0.0
H873 H 0.16199 0.54412 0.27705 0.0
H874 H 0.07455 0.50327 0.30111 0.0
H875 H 0.0763 0.45758 0.31693 0.0
H876 H 0.16151 0.4749 0.25464 0.0
H877 H 0.19667 0.48639 0.26965 0.0
H878 H 0.18712 0.51391 0.25618 0.0
H879 H 0.20184 0.53934 0.30467 0.0
H880 H 0.21098 0.51165 0.31847 0.0
H881 H 0.1857 0.51792 0.33626 0.0
H882 H 0.08893 0.41859 0.33466 0.0
H883 H 0.11036 0.38756 0.35103 0.0
H884 H 0.19101 0.45363 0.31716 0.0
C885 C 0.14294 0.52493 0.28445 0.0
C886 C 0.11752 0.52644 0.28627 0.0
C887 C 0.09351 0.50176 0.29779 0.0
C888 C 0.09455 0.47595 0.30731 0.0
C889 C 0.12 0.47527 0.30561 0.0
C890 C 0.14377 0.499 0.29427 0.0
C891 C 0.16906 0.49334 0.29698 0.0
C892 C 0.17919 0.49206 0.26761 0.0
C893 C 0.19332 0.51697 0.31518 0.0
C894 C 0.15591 0.46294 0.31198 0.0
C895 C 0.12757 0.45299 0.31665 0.0
C896 C 0.11102 0.42604 0.33085 0.0
C897 C 0.12354 0.40857 0.34022 0.0
C898 C 0.15251 0.41792 0.33549 0.0
C899 C 0.16885 0.44567 0.32118 0.0
H900 H 0.40664 0.57095 0.29273 0.0
H901 H 0.44264 0.51685 0.26749 0.0
H902 H 0.39661 0.47146 0.27506 0.0
H903 H 0.36871 0.52259 0.35011 0.0
H904 H 0.33884 0.52933 0.34564 0.0
H905 H 0.37348 0.55757 0.33504 0.0
H906 H 0.35309 0.55924 0.28447 0.0
H907 H 0.31837 0.53098 0.29493 0.0
H908 H 0.33436 0.52541 0.26499 0.0
H909 H 0.34671 0.4318 0.28664 0.0
H910 H 0.29827 0.40082 0.30414 0.0
H911 H 0.29602 0.48033 0.32662 0.0
C912 C 0.40479 0.54953 0.28878 0.0
C913 C 0.42818 0.5475 0.27912 0.0
C914 C 0.42487 0.51906 0.2741 0.0
C915 C 0.39883 0.49314 0.27859 0.0
C916 C 0.37635 0.49594 0.28852 0.0
C917 C 0.37916 0.52343 0.29379 0.0
C918 C 0.35241 0.52026 0.30625 0.0
C919 C 0.35875 0.5332 0.33603 0.0
C920 C 0.33875 0.53484 0.28647 0.0
C921 C 0.33414 0.48665 0.30741 0.0
C922 C 0.34821 0.47308 0.29664 0.0
C923 C 0.33559 0.44223 0.29519 0.0
C924 C 0.30805 0.4248 0.30519 0.0
C925 C 0.29346 0.43814 0.3169 0.0
C926 C 0.30672 0.46951 0.31793 0.0
H927 H 0.53863 0.96645 0.30893 0.0
H928 H 0.49084 0.90155 0.24537 0.0
H929 H 0.52555 0.88289 0.24978 0.0
H930 H 0.61199 0.97908 0.29225 0.0
H931 H 0.62235 0.98169 0.32933 0.0
H932 H 0.59767 0.99413 0.31624 0.0
H933 H 0.56175 0.95918 0.35315 0.0
H934 H 0.58583 0.94597 0.36587 0.0
H935 H 0.55043 0.91991 0.35353 0.0
H936 H 0.55994 0.86599 0.26701 0.0
H937 H 0.59403 0.85391 0.29333 0.0
H938 H 0.61945 0.92936 0.34694 0.0
C939 C 0.53659 0.94942 0.29499 0.0
C940 C 0.51301 0.93603 0.27605 0.0
C941 C 0.50957 0.91264 0.2591 0.0
C942 C 0.529 0.90184 0.2617 0.0
C943 C 0.55154 0.91471 0.28148 0.0
C944 C 0.55568 0.93828 0.2976 0.0
C945 C 0.57945 0.94571 0.31969 0.0
C946 C 0.60435 0.97701 0.31403 0.0
C947 C 0.5687 0.94248 0.34983 0.0
C948 C 0.58729 0.92192 0.31425 0.0
C949 C 0.57112 0.90448 0.29193 0.0
C950 C 0.57309 0.87981 0.28416 0.0
C951 C 0.59231 0.87299 0.29939 0.0
C952 C 0.60929 0.89077 0.32208 0.0
C953 C 0.60679 0.91556 0.32955 0.0
H954 H 0.09707 0.62663 0.31382 0.0
H955 H 0.18114 0.63768 0.30442 0.0
H956 H 0.20243 0.68744 0.32548 0.0
H957 H 0.11536 0.70204 0.29387 0.0
H958 H 0.09227 0.7046 0.3184 0.0
H959 H 0.08364 0.66907 0.30461 0.0
H960 H 0.08131 0.64761 0.35573 0.0
H961 H 0.09006 0.68315 0.36968 0.0
H962 H 0.11147 0.66581 0.37991 0.0
H963 H 0.21455 0.73632 0.34563 0.0
H964 H 0.21746 0.78215 0.36239 0.0
H965 H 0.12537 0.74121 0.35729 0.0
C966 C 0.11995 0.63969 0.31616 0.0
C967 C 0.13761 0.62854 0.30739 0.0
C968 C 0.1674 0.64591 0.31114 0.0
C969 C 0.17959 0.67413 0.32301 0.0
C970 C 0.16167 0.68474 0.33102 0.0
C971 C 0.13249 0.66815 0.32769 0.0
C972 C 0.11821 0.68544 0.3369 0.0
C973 C 0.10138 0.6906 0.31196 0.0
C974 C 0.09914 0.66955 0.36205 0.0
C975 C 0.14394 0.71442 0.34574 0.0
C976 C 0.16873 0.71332 0.34234 0.0
C977 C 0.19528 0.7374 0.34848 0.0
C978 C 0.19666 0.76343 0.35803 0.0
C979 C 0.17165 0.76551 0.36133 0.0
C980 C 0.1449 0.7404 0.35528 0.0
H981 H 0.86025 0.05185 0.45513 0.0
H982 H 0.85302 0.11554 0.39668 0.0
H983 H 0.8162 0.07424 0.36824 0.0
H984 H 0.85172 0.99887 0.40171 0.0
H985 H 0.83162 0.96663 0.42411 0.0
H986 H 0.85743 1.00117 0.43962 0.0
H987 H 0.81871 0.99992 0.47059 0.0
H988 H 0.79281 0.96541 0.45515 0.0
H989 H 0.78654 0.99686 0.45385 0.0
H990 H 0.77796 0.02583 0.34808 0.0
H991 H 0.7436 0.97403 0.33553 0.0
H992 H 0.77767 0.9413 0.40517 0.0
C993 C 0.85096 0.05688 0.43618 0.0
C994 C 0.8594 0.08673 0.42784 0.0
C995 C 0.84687 0.09276 0.4031 0.0
C996 C 0.82595 0.06946 0.38697 0.0
C997 C 0.81796 0.0402 0.39572 0.0
C998 C 0.83029 0.03381 0.41959 0.0
C999 C 0.81798 1.0004 0.42421 0.0
C1000 C 0.84107 0.99123 0.42229 0.0
C1001 C 0.80313 0.99005 0.45263 0.0
C1002 C 0.79667 0.98901 0.39937 0.0
C1003 C 0.79682 1.01235 0.38336 0.0
C1004 C 0.77795 1.00741 0.36024 0.0
C1005 C 0.75847 0.97792 0.35328 0.0
C1006 C 0.75824 0.95364 0.36905 0.0
C1007 C 0.77777 0.9594 0.39231 0.0
H1008 H 0.9349 0.71195 0.42637 0.0
H1009 H 0.93628 0.78601 0.46683 0.0
H1010 H 0.98855 0.81466 0.46325 0.0
H1011 H 1.00796 0.72491 0.45723 0.0
H1012 H 0.01507 0.71346 0.42465 0.0
H1013 H 0.97919 0.69686 0.43649 0.0
H1014 H 0.9638 0.71168 0.38827 0.0
H1015 H 0.99964 0.72929 0.37657 0.0
H1016 H 0.98084 0.75026 0.37675 0.0
H1017 H 0.03718 0.83903 0.44369 0.0
H1018 H 0.08188 0.85416 0.41926 0.0
H1019 H 0.05057 0.76308 0.395 0.0
C1020 C 0.94662 0.73344 0.43607 0.0
C1021 C 0.93204 0.74677 0.44739 0.0
C1022 C 0.94749 0.77541 0.45882 0.0
C1023 C 0.97705 0.79185 0.45654 0.0
C1024 C 0.99074 0.77891 0.4434 0.0
C1025 C 0.97622 0.7499 0.43433 0.0
C1026 C 0.99554 0.74215 0.41881 0.0
C1027 C 0.99969 0.71791 0.43529 0.0
C1028 C 0.98427 0.73281 0.3883 0.0
C1029 C 0.02266 0.77177 0.41915 0.0
C1030 C 0.01941 0.79273 0.43332 0.0
C1031 C 0.04032 0.82259 0.43339 0.0
C1032 C 0.06542 0.83107 0.41918 0.0
C1033 C 0.06947 0.80967 0.40555 0.0
C1034 C 0.04797 0.77967 0.40572 0.0
H1035 H 0.20056 0.17321 0.44918 0.0
H1036 H 0.28023 0.19878 0.41052 0.0
H1037 H 0.28111 0.24474 0.39046 0.0
H1038 H 0.17083 0.19503 0.39127 0.0
H1039 H 0.1521 0.20825 0.41162 0.0
H1040 H 0.15962 0.17971 0.4263 0.0
H1041 H 0.18533 0.21182 0.46988 0.0
H1042 H 0.17754 0.24029 0.45541 0.0
H1043 H 0.21371 0.24932 0.46463 0.0
H1044 H 0.2712 0.28585 0.37152 0.0
H1045 H 0.25202 0.3194 0.35594 0.0
H1046 H 0.17754 0.26617 0.40562 0.0
C1047 C 0.21864 0.1892 0.4374 0.0
C1048 C 0.241 0.18333 0.4323 0.0
C1049 C 0.26361 0.20371 0.41552 0.0
C1050 C 0.26408 0.22964 0.40387 0.0
C1051 C 0.24149 0.23466 0.40887 0.0
C1052 C 0.21922 0.21507 0.42536 0.0
C1053 C 0.1965 0.22447 0.4256 0.0
C1054 C 0.16809 0.20043 0.41294 0.0
C1055 C 0.19308 0.23192 0.45568 0.0
C1056 C 0.20934 0.25219 0.40653 0.0
C1057 C 0.23535 0.25777 0.39721 0.0
C1058 C 0.25093 0.28178 0.37887 0.0
C1059 C 0.23978 0.3007 0.37003 0.0
C1060 C 0.21318 0.29553 0.37937 0.0
C1061 C 0.19787 0.27082 0.39789 0.0
H1062 H 0.60099 0.52894 0.73454 0.0
H1063 H 0.61723 0.51144 0.82224 0.0
H1064 H 0.66707 0.55175 0.81887 0.0
H1065 H 0.6654 0.5358 0.71118 0.0
H1066 H 0.6702 0.56355 0.68398 0.0
H1067 H 0.635 0.53712 0.69477 0.0
H1068 H 0.62564 0.58035 0.70587 0.0
H1069 H 0.66087 0.60697 0.69516 0.0
H1070 H 0.6496 0.6086 0.72987 0.0
H1071 H 0.71609 0.59364 0.80489 0.0
H1072 H 0.76026 0.62858 0.781 0.0
H1073 H 0.71365 0.61247 0.70045 0.0
C1074 C 0.61499 0.5335 0.75307 0.0
C1075 C 0.60499 0.51696 0.77874 0.0
C1076 C 0.62405 0.52412 0.80256 0.0
C1077 C 0.65251 0.54687 0.80073 0.0
C1078 C 0.66182 0.56198 0.77476 0.0
C1079 C 0.64362 0.55525 0.75126 0.0
C1080 C 0.65936 0.57235 0.72508 0.0
C1081 C 0.65737 0.55093 0.70242 0.0
C1082 C 0.6482 0.59331 0.7133 0.0
C1083 C 0.68942 0.58973 0.73737 0.0
C1084 C 0.69026 0.584 0.76621 0.0
C1085 C 0.71559 0.59798 0.7823 0.0
C1086 C 0.74064 0.6178 0.76854 0.0
C1087 C 0.74056 0.62295 0.73884 0.0
C1088 C 0.71446 0.60885 0.72315 0.0
H1089 H 0.50737 0.11015 0.77228 0.0
H1090 H 0.49376 0.05502 0.70076 0.0
H1091 H 0.46687 0.07753 0.67499 0.0
H1092 H 0.43814 0.10477 0.76871 0.0
H1093 H 0.4514 0.14249 0.77953 0.0
H1094 H 0.46971 0.12224 0.79126 0.0
H1095 H 0.51617 0.16447 0.77051 0.0
H1096 H 0.49783 0.1846 0.75838 0.0
H1097 H 0.51649 0.17543 0.73366 0.0
H1098 H 0.44185 0.10663 0.65768 0.0
H1099 H 0.41753 0.13694 0.65117 0.0
H1100 H 0.44685 0.17139 0.73538 0.0
C1101 C 0.49824 0.10251 0.75138 0.0
C1102 C 0.50197 0.08064 0.73845 0.0
C1103 C 0.49062 0.07158 0.71085 0.0
C1104 C 0.47557 0.08433 0.69618 0.0
C1105 C 0.47224 0.10594 0.70962 0.0
C1106 C 0.48307 0.11472 0.73673 0.0
C1107 C 0.47612 0.13775 0.74688 0.0
C1108 C 0.45774 0.1261 0.77314 0.0
C1109 C 0.50328 0.16731 0.75269 0.0
C1110 C 0.45949 0.14056 0.72129 0.0
C1111 C 0.45771 0.1223 0.69988 0.0
C1112 C 0.44312 0.12099 0.67428 0.0
C1113 C 0.4295 0.13832 0.67074 0.0
C1114 C 0.43046 0.15641 0.69279 0.0
C1115 C 0.44594 0.15782 0.71817 0.0
H1116 H 0.92837 0.4082 0.76082 0.0
H1117 H 0.84852 0.40863 0.74607 0.0
H1118 H 0.827 0.35835 0.72635 0.0
H1119 H 0.9246 0.36773 0.69859 0.0
H1120 H 0.9394 0.34637 0.71666 0.0
H1121 H 0.94898 0.38291 0.72853 0.0
H1122 H 0.93277 0.361 0.77873 0.0
H1123 H 0.92273 0.32422 0.76721 0.0
H1124 H 0.8971 0.33119 0.78339 0.0
H1125 H 0.81377 0.30792 0.70949 0.0
H1126 H 0.80891 0.25971 0.69731 0.0
H1127 H 0.89708 0.29036 0.72355 0.0
C1128 C 0.90642 0.39764 0.75326 0.0
C1129 C 0.8902 0.41249 0.75438 0.0
C1130 C 0.86145 0.39795 0.74465 0.0
C1131 C 0.84904 0.36935 0.73362 0.0
C1132 C 0.86559 0.35537 0.73264 0.0
C1133 C 0.89362 0.3689 0.74228 0.0
C1134 C 0.90628 0.34839 0.73967 0.0
C1135 C 0.9313 0.36218 0.71967 0.0
C1136 C 0.91525 0.34074 0.76899 0.0
C1137 C 0.88104 0.32132 0.72686 0.0
C1138 C 0.85783 0.32593 0.72306 0.0
C1139 C 0.83184 0.30411 0.71225 0.0
C1140 C 0.82932 0.27672 0.70536 0.0
C1141 C 0.85266 0.27118 0.70917 0.0
C1142 C 0.87897 0.294 0.71989 0.0
H1143 H 0.17629 0.99023 0.63652 0.0
H1144 H 0.21154 0.93886 0.67995 0.0
H1145 H 0.25167 0.9852 0.69908 0.0
H1146 H 0.24111 0.05117 0.61552 0.0
H1147 H 0.2306 0.0789 0.62077 0.0
H1148 H 0.20412 0.0415 0.61265 0.0
H1149 H 0.17807 0.03913 0.65807 0.0
H1150 H 0.20498 0.07649 0.66617 0.0
H1151 H 0.19716 0.04661 0.69183 0.0
H1152 H 0.29001 0.03756 0.70963 0.0
H1153 H 0.3224 0.09164 0.71328 0.0
H1154 H 0.26156 0.1092 0.66375 0.0
C1155 C 0.19217 0.98892 0.65068 0.0
C1156 C 0.19087 0.96122 0.65732 0.0
C1157 C 0.21219 0.96 0.67521 0.0
C1158 C 0.235 0.98616 0.68598 0.0
C1159 C 0.23603 1.01332 0.6787 0.0
C1160 C 0.215 0.01486 0.66171 0.0
C1161 C 0.22169 0.04691 0.65623 0.0
C1162 C 0.22457 0.05508 0.6244 0.0
C1163 C 0.19913 0.05261 0.66883 0.0
C1164 C 0.25005 0.0632 0.67224 0.0
C1165 C 0.25793 0.04342 0.68509 0.0
C1166 C 0.28388 0.05323 0.69997 0.0
C1167 C 0.3022 0.08402 0.70184 0.0
C1168 C 0.2945 0.10473 0.68903 0.0
C1169 C 0.26795 0.09401 0.67416 0.0
H1170 H 0.04877 0.24223 0.59077 0.0
H1171 H 0.05526 0.16829 0.63153 0.0
H1172 H 0.01293 0.1555 0.65901 0.0
H1173 H 0.02831 0.26561 0.64674 0.0
H1174 H 1.00241 0.27321 0.62786 0.0
H1175 H 0.03155 0.27509 0.60941 0.0
H1176 H 0.9965 0.23672 0.57345 0.0
H1177 H 0.96714 0.23514 0.5914 0.0
H1178 H 0.96865 0.20148 0.58621 0.0
H1179 H 0.97486 0.1556 0.68642 0.0
H1180 H 0.93761 0.16289 0.70692 0.0
H1181 H 0.95276 0.23364 0.64479 0.0
C1182 C 0.04065 0.22278 0.60478 0.0
C1183 C 0.05534 0.20649 0.60956 0.0
C1184 C 0.04452 0.1814 0.62828 0.0
C1185 C 0.02048 0.1739 0.64374 0.0
C1186 C 1.00711 0.19119 0.63941 0.0
C1187 C 0.01622 0.21452 0.61975 0.0
C1188 C 0.99818 0.22971 0.61942 0.0
C1189 C 0.0162 0.26286 0.62628 0.0
C1190 C 0.98163 0.2255 0.59093 0.0
C1191 C 0.97853 0.21229 0.64305 0.0
C1192 C 0.98403 0.19017 0.65426 0.0
C1193 C 0.96991 0.17242 0.67749 0.0
C1194 C 0.94909 0.17695 0.68916 0.0
C1195 C 0.94255 0.19884 0.67736 0.0
C1196 C 0.95745 0.21674 0.65409 0.0
H1197 H 0.76587 0.83753 0.64389 0.0
H1198 H 0.83816 0.89432 0.59351 0.0
H1199 H 0.8569 0.85912 0.6017 0.0
H1200 H 0.80457 0.8205 0.69657 0.0
H1201 H 0.7779 0.78243 0.70309 0.0
H1202 H 0.76753 0.80936 0.68985 0.0
H1203 H 0.7407 0.77645 0.64708 0.0
H1204 H 0.75062 0.74916 0.66039 0.0
H1205 H 0.75917 0.76446 0.6249 0.0
H1206 H 0.8702 0.82105 0.61889 0.0
H1207 H 0.87709 0.78136 0.6424 0.0
H1208 H 0.79691 0.7481 0.68398 0.0
C1209 C 0.78499 0.84169 0.63369 0.0
C1210 C 0.79977 0.8677 0.61654 0.0
C1211 C 0.82565 0.87358 0.60499 0.0
C1212 C 0.83666 0.85394 0.61001 0.0
C1213 C 0.82176 0.82864 0.62714 0.0
C1214 C 0.79641 0.82228 0.63876 0.0
C1215 C 0.78598 0.79471 0.65821 0.0
C1216 C 0.78387 0.80221 0.68874 0.0
C1217 C 0.75742 0.76971 0.64697 0.0
C1218 C 0.80965 0.78687 0.65601 0.0
C1219 C 0.82996 0.80682 0.63787 0.0
C1220 C 0.85434 0.80516 0.63296 0.0
C1221 C 0.8581 0.78247 0.64668 0.0
C1222 C 0.83763 0.76138 0.6653 0.0
C1223 C 0.81296 0.7637 0.6699 0.0
H1224 H 0.10268 0.85635 0.67434 0.0
H1225 H 0.09112 0.87816 0.58665 0.0
H1226 H 0.04149 0.83726 0.58643 0.0
H1227 H 0.05642 0.77629 0.67273 0.0
H1228 H 0.04228 0.77409 0.70693 0.0
H1229 H 0.07777 0.80276 0.6993 0.0
H1230 H 0.06514 0.84315 0.7124 0.0
H1231 H 0.02969 0.81462 0.72026 0.0
H1232 H 0.03498 0.84413 0.69494 0.0
H1233 H 0.99281 0.79418 0.59608 0.0
H1234 H 0.94746 0.75644 0.61614 0.0
H1235 H 0.98877 0.76656 0.6991 0.0
C1236 C 0.08966 0.85253 0.65513 0.0
C1237 C 0.10095 0.87015 0.63033 0.0
C1238 C 0.08323 0.86441 0.60559 0.0
C1239 C 0.05495 0.84133 0.60536 0.0
C1240 C 0.04448 0.82449 0.63021 0.0
C1241 C 0.06117 0.8301 0.65477 0.0
C1242 C 0.04413 0.81038 0.67922 0.0
C1243 C 0.05585 0.78965 0.69019 0.0
C1244 C 0.04344 0.8292 0.70311 0.0
C1245 C 0.01512 0.79301 0.66468 0.0
C1246 C 0.01597 0.80105 0.63626 0.0
C1247 C 0.99192 0.78786 0.61833 0.0
C1248 C 0.96624 0.76639 0.62984 0.0
C1249 C 0.96454 0.75872 0.65907 0.0
C1250 C 0.98943 0.77202 0.67665 0.0
H1251 H 0.18132 0.27167 0.61009 0.0
H1252 H 0.12742 0.18019 0.58675 0.0
H1253 H 0.16407 0.16736 0.60523 0.0
H1254 H 0.25083 0.27379 0.5945 0.0
H1255 H 0.26913 0.29737 0.624 0.0
H1256 H 0.24041 0.30015 0.60521 0.0
H1257 H 0.21512 0.29119 0.65251 0.0
H1258 H 0.24331 0.28762 0.67138 0.0
H1259 H 0.20717 0.25802 0.67362 0.0
H1260 H 0.20128 0.16258 0.63353 0.0
H1261 H 0.24236 0.16745 0.66323 0.0
H1262 H 0.27539 0.26285 0.6656 0.0
C1263 C 0.17801 0.24934 0.60794 0.0
C1264 C 0.15205 0.22683 0.59676 0.0
C1265 C 0.14759 0.19755 0.59489 0.0
C1266 C 0.16814 0.19013 0.60543 0.0
C1267 C 0.19315 0.21247 0.61739 0.0
C1268 C 0.19865 0.24167 0.61805 0.0
C1269 C 0.22683 0.26086 0.6334 0.0
C1270 C 0.24806 0.28444 0.61306 0.0
C1271 C 0.22285 0.27526 0.65926 0.0
C1272 C 0.23555 0.23759 0.64232 0.0
C1273 C 0.21563 0.20983 0.63292 0.0
C1274 C 0.21739 0.18426 0.6405 0.0
C1275 C 0.24052 0.18717 0.65763 0.0
C1276 C 0.26169 0.21545 0.66661 0.0
C1277 C 0.25937 0.24104 0.65879 0.0
H1278 H 0.8348 0.98894 0.6284 0.0
H1279 H 0.75377 0.92952 0.66452 0.0
H1280 H 0.75485 0.97187 0.68862 0.0
H1281 H 0.86537 0.03859 0.69052 0.0
H1282 H 0.88347 0.07149 0.6683 0.0
H1283 H 0.8776 0.03605 0.6566 0.0
H1284 H 0.85188 0.04187 0.61065 0.0
H1285 H 0.85846 0.07736 0.6224 0.0
H1286 H 0.82265 0.04928 0.61335 0.0
H1287 H 0.76304 0.02098 0.70534 0.0
H1288 H 0.77736 0.07319 0.71431 0.0
H1289 H 0.85369 0.10194 0.66715 0.0
C1290 C 0.81772 0.98501 0.64195 0.0
C1291 C 0.79429 0.95619 0.64504 0.0
C1292 C 0.77192 0.95152 0.66235 0.0
C1293 C 0.77243 0.9754 0.67601 0.0
C1294 C 0.79563 1.00376 0.67225 0.0
C1295 C 0.81803 1.00865 0.65588 0.0
C1296 C 0.83966 0.04152 0.65415 0.0
C1297 C 0.86822 0.04724 0.66824 0.0
C1298 C 0.84332 0.05318 0.62328 0.0
C1299 C 0.82543 0.05456 0.67118 0.0
C1300 C 0.80026 0.03226 0.68174 0.0
C1301 C 0.78283 0.0386 0.69741 0.0
C1302 C 0.79117 0.06845 0.70233 0.0
C1303 C 0.81674 0.09187 0.69157 0.0
C1304 C 0.83419 0.08466 0.67596 0.0
H1305 H 0.52997 0.3964 0.76268 0.0
H1306 H 0.49346 0.45206 0.73382 0.0
H1307 H 0.45314 0.4089 0.71047 0.0
H1308 H 0.50858 0.35035 0.69879 0.0
H1309 H 0.50148 0.31689 0.71895 0.0
H1310 H 0.52823 0.35259 0.73154 0.0
H1311 H 0.50284 0.34185 0.77923 0.0
H1312 H 0.47665 0.30609 0.76657 0.0
H1313 H 0.46568 0.33148 0.77877 0.0
H1314 H 0.41478 0.35861 0.69422 0.0
H1315 H 0.38253 0.30572 0.68374 0.0
H1316 H 0.44479 0.28269 0.72168 0.0
C1317 C 0.5137 0.39941 0.75087 0.0
C1318 C 0.51468 0.42739 0.74968 0.0
C1319 C 0.49297 0.43073 0.73457 0.0
C1320 C 0.47007 0.40637 0.72139 0.0
C1321 C 0.46936 0.37885 0.7233 0.0
C1322 C 0.49079 0.3753 0.73738 0.0
C1323 C 0.48451 0.34317 0.73696 0.0
C1324 C 0.50704 0.34061 0.72058 0.0
C1325 C 0.48227 0.32988 0.76719 0.0
C1326 C 0.45591 0.32905 0.72108 0.0
C1327 C 0.44757 0.35003 0.71337 0.0
C1328 C 0.42128 0.34207 0.69981 0.0
C1329 C 0.40305 0.31194 0.69401 0.0
C1330 C 0.41117 0.29003 0.70156 0.0
C1331 C 0.43811 0.29891 0.71511 0.0
H1332 H 0.58945 0.05816 0.74146 0.0
H1333 H 0.59821 0.11783 0.80708 0.0
H1334 H 0.65044 0.14323 0.80353 0.0
H1335 H 0.65753 0.05601 0.75622 0.0
H1336 H 0.66316 0.05669 0.71893 0.0
H1337 H 0.62755 0.03918 0.7316 0.0
H1338 H 0.61596 0.07273 0.69681 0.0
H1339 H 0.65165 0.09094 0.68453 0.0
H1340 H 0.63726 0.11261 0.69849 0.0
H1341 H 0.70107 0.16583 0.78841 0.0
H1342 H 0.74598 0.18328 0.76377 0.0
H1343 H 0.703 0.11172 0.70456 0.0
C1344 C 0.60261 0.07579 0.75583 0.0
C1345 C 0.59008 0.08554 0.77511 0.0
C1346 C 0.60753 0.10933 0.79299 0.0
C1347 C 0.63717 0.12408 0.79082 0.0
C1348 C 0.64879 0.11484 0.77048 0.0
C1349 C 0.63201 0.09109 0.75339 0.0
C1350 C 0.64902 0.08789 0.73076 0.0
C1351 C 0.64934 0.05818 0.73462 0.0
C1352 C 0.6378 0.09125 0.7009 0.0
C1353 C 0.67794 0.11394 0.73733 0.0
C1354 C 0.67751 0.12894 0.76058 0.0
C1355 C 0.70167 0.15413 0.77031 0.0
C1356 C 0.72697 0.16398 0.75609 0.0
C1357 C 0.7277 0.14896 0.73216 0.0
C1358 C 0.70287 0.12373 0.72264 0.0
H1359 H 0.93813 0.54222 0.74756 0.0
H1360 H 0.86454 0.48384 0.79575 0.0
H1361 H 0.84516 0.51845 0.78682 0.0
H1362 H 0.94315 0.61417 0.76748 0.0
H1363 H 0.95273 0.63061 0.7325 0.0
H1364 H 0.96264 0.60323 0.74555 0.0
H1365 H 0.93744 0.57156 0.70164 0.0
H1366 H 0.92712 0.5986 0.68862 0.0
H1367 H 0.90051 0.56025 0.69385 0.0
H1368 H 0.83198 0.55638 0.77014 0.0
H1369 H 0.82531 0.59647 0.74746 0.0
H1370 H 0.90685 0.63187 0.70798 0.0
C1371 C 0.91851 0.53754 0.75704 0.0
C1372 C 0.90331 0.51112 0.77352 0.0
C1373 C 0.87685 0.50458 0.78414 0.0
C1374 C 0.86568 0.52399 0.77898 0.0
C1375 C 0.88096 0.54972 0.76257 0.0
C1376 C 0.90684 0.55672 0.75176 0.0
C1377 C 0.91764 0.58486 0.73305 0.0
C1378 C 0.94571 0.60969 0.74539 0.0
C1379 C 0.92086 0.57842 0.70248 0.0
C1380 C 0.89361 0.59225 0.73483 0.0
C1381 C 0.87283 0.5716 0.75211 0.0
C1382 C 0.84816 0.5728 0.75668 0.0
C1383 C 0.84455 0.59575 0.74344 0.0
C1384 C 0.86546 0.61754 0.72566 0.0
C1385 C 0.89043 0.61569 0.72139 0.0
H1386 H 0.49322 0.94426 0.21695 0.0
H1387 H 0.51299 0.02327 0.26244 0.0
H1388 H 0.52994 0.05385 0.21841 0.0
H1389 H 0.55686 0.98317 0.17002 0.0
H1390 H 0.53707 0.96012 0.14065 0.0
H1391 H 0.52953 0.94536 0.17641 0.0
H1392 H 0.47682 0.93128 0.16699 0.0
H1393 H 0.48443 0.94652 0.1315 0.0
H1394 H 0.46793 0.95973 0.15501 0.0
H1395 H 0.53822 0.07417 0.16831 0.0
H1396 H 0.54427 0.0843 0.11657 0.0
H1397 H 0.52263 0.99259 0.10489 0.0
C1398 C 0.50229 0.96814 0.21784 0.0
C1399 C 0.50162 0.98152 0.24282 0.0
C1400 C 0.51289 1.01272 0.24321 0.0
C1401 C 0.52266 0.03019 0.21841 0.0
C1402 C 0.52179 0.01611 0.19371 0.0
C1403 C 0.51279 0.98593 0.19343 0.0
C1404 C 0.51337 0.97616 0.16395 0.0
C1405 C 0.53554 0.96559 0.16269 0.0
C1406 C 0.48385 0.952 0.15378 0.0
C1407 C 0.52244 1.00517 0.14746 0.0
C1408 C 0.52737 0.02801 0.16501 0.0
C1409 C 0.53481 0.05658 0.1544 0.0
C1410 C 0.53787 0.06207 0.12511 0.0
C1411 C 0.53332 0.03904 0.10703 0.0
C1412 C 0.52564 1.01036 0.1183 0.0
H1413 H 0.12116 0.58587 0.20931 0.0
H1414 H 0.05841 0.51048 0.25654 0.0
H1415 H 0.02965 0.49089 0.21245 0.0
H1416 H 0.0717 0.59865 0.17191 0.0
H1417 H 0.08964 0.61103 0.13897 0.0
H1418 H 0.10989 0.61593 0.17174 0.0
H1419 H 0.13355 0.58796 0.15339 0.0
H1420 H 0.11389 0.5811 0.11995 0.0
H1421 H 0.11234 0.55044 0.1415 0.0
H1422 H 1.00504 0.48257 0.16337 0.0
H1423 H 0.98618 0.4877 0.11549 0.0
H1424 H 0.06191 0.57228 0.1023 0.0
C1425 C 0.1018 0.56472 0.21014 0.0
C1426 C 0.09249 0.54921 0.23631 0.0
C1427 C 0.06667 0.52205 0.23671 0.0
C1428 C 0.04996 0.51101 0.21171 0.0
C1429 C 0.05912 0.52767 0.18649 0.0
C1430 C 0.08445 0.55408 0.18563 0.0
C1431 C 0.08773 0.57002 0.15706 0.0
C1432 C 0.08989 0.60073 0.16012 0.0
C1433 C 0.11342 0.57256 0.14207 0.0
C1434 C 0.0601 0.54881 0.14206 0.0
C1435 C 0.04412 0.52413 0.15911 0.0
C1436 C 0.01749 0.50175 0.14988 0.0
C1437 C 1.00691 0.50482 0.12274 0.0
C1438 C 0.02261 0.53038 0.10547 0.0
C1439 C 0.04955 0.55252 0.11521 0.0
H1440 H 0.50753 0.56199 0.23797 0.0
H1441 H 0.42879 0.56204 0.21495 0.0
H1442 H 0.42673 0.53946 0.16901 0.0
H1443 H 0.53716 0.58752 0.17328 0.0
H1444 H 0.55598 0.56654 0.17367 0.0
H1445 H 0.54779 0.57633 0.20646 0.0
H1446 H 0.52183 0.52074 0.22256 0.0
H1447 H 0.53003 0.51072 0.18976 0.0
H1448 H 0.49371 0.49389 0.2003 0.0
H1449 H 0.4377 0.52415 0.12283 0.0
H1450 H 0.46051 0.51897 0.08145 0.0
H1451 H 0.53316 0.53079 0.13434 0.0
C1452 C 0.48953 0.55651 0.22346 0.0
C1453 C 0.46826 0.56358 0.22981 0.0
C1454 C 0.44506 0.5564 0.21044 0.0
C1455 C 0.44383 0.54368 0.18437 0.0
C1456 C 0.46597 0.53824 0.17817 0.0
C1457 C 0.48833 0.54436 0.19735 0.0
C1458 C 0.51124 0.54012 0.18462 0.0
C1459 C 0.53971 0.56936 0.18449 0.0
C1460 C 0.51437 0.51486 0.20024 0.0
C1461 C 0.49882 0.53149 0.15493 0.0
C1462 C 0.47244 0.52991 0.1517 0.0
C1463 C 0.45794 0.52447 0.12544 0.0
C1464 C 0.4709 0.52104 0.10195 0.0
C1465 C 0.49807 0.52307 0.10478 0.0
C1466 C 0.51198 0.52819 0.13172 0.0
H1467 H 0.96656 0.47953 0.82273 0.0
H1468 H 0.90811 0.51392 0.83058 0.0
H1469 H 0.93373 0.53872 0.87425 0.0
H1470 H 0.96256 0.45747 0.89483 0.0
H1471 H 0.99857 0.46386 0.89812 0.0
H1472 H 0.97962 0.45449 0.86441 0.0
H1473 H 0.0198 0.50232 0.84157 0.0
H1474 H 0.03889 0.51191 0.87526 0.0
H1475 H 0.03019 0.53794 0.85636 0.0
H1476 H 0.96637 0.55917 0.9191 0.0
H1477 H 0.99653 0.56585 0.9627 0.0
H1478 H 0.02511 0.50817 0.92992 0.0
C1479 C 0.95911 0.49236 0.83349 0.0
C1480 C 0.93537 0.49491 0.82256 0.0
C1481 C 0.92665 0.51221 0.83742 0.0
C1482 C 0.94101 0.52623 0.86267 0.0
C1483 C 0.96367 0.52221 0.87326 0.0
C1484 C 0.97222 0.50513 0.85929 0.0
C1485 C 0.99416 0.50037 0.87675 0.0
C1486 C 0.98306 0.46708 0.88396 0.0
C1487 C 0.02244 0.51395 0.86157 0.0
C1488 C 0.99676 0.51746 0.90284 0.0
C1489 C 0.97966 0.53068 0.90021 0.0
C1490 C 0.97933 0.54835 0.92151 0.0
C1491 C 0.99623 0.55176 0.94635 0.0
C1492 C 0.01208 0.53645 0.95023 0.0
C1493 C 0.01277 0.51971 0.92783 0.0
H1494 H 0.54705 0.45737 0.85075 0.0
H1495 H 0.57519 0.54344 0.80918 0.0
H1496 H 0.57069 0.56362 0.85413 0.0
H1497 H 0.49164 0.45764 0.88175 0.0
H1498 H 0.49255 0.4374 0.91371 0.0
H1499 H 0.50578 0.43226 0.88164 0.0
H1500 H 0.5544 0.44651 0.90704 0.0
H1501 H 0.54103 0.45129 0.93934 0.0
H1502 H 0.57314 0.48121 0.92519 0.0
H1503 H 0.55746 0.57234 0.90315 0.0
H1504 H 0.53311 0.56764 0.94777 0.0
H1505 H 0.50606 0.47336 0.95268 0.0
C1506 C 0.5531 0.48072 0.85143 0.0
C1507 C 0.56172 0.49897 0.82664 0.0
C1508 C 0.56911 0.52929 0.82809 0.0
C1509 C 0.56642 0.5408 0.85352 0.0
C1510 C 0.556 0.52156 0.87715 0.0
C1511 C 0.54935 0.49203 0.87614 0.0
C1512 C 0.53401 0.47448 0.90225 0.0
C1513 C 0.50424 0.44896 0.89435 0.0
C1514 C 0.55172 0.46269 0.91947 0.0
C1515 C 0.53229 0.49845 0.91788 0.0
C1516 C 0.54594 0.52573 0.90371 0.0
C1517 C 0.54681 0.55107 0.91433 0.0
C1518 C 0.53297 0.54825 0.93965 0.0
C1519 C 0.51763 0.52014 0.95342 0.0
C1520 C 0.5176 0.49511 0.94249 0.0
H1521 H 0.54945 0.02576 0.82849 0.0
H1522 H 0.54438 0.10723 0.82276 0.0
H1523 H 0.53846 0.1047 0.8743 0.0
H1524 H 0.49934 0.9879 0.87425 0.0
H1525 H 0.51602 0.97067 0.89626 0.0
H1526 H 0.52653 0.9818 0.86035 0.0
H1527 H 0.57891 1.0145 0.87714 0.0
H1528 H 0.5688 1.00273 0.9132 0.0
H1529 H 0.58744 0.04181 0.90368 0.0
H1530 H 0.51751 0.08467 0.92039 0.0
H1531 H 0.49677 0.05625 0.96423 0.0
H1532 H 0.52378 0.99246 0.94548 0.0
C1533 C 0.54876 0.04381 0.83857 0.0
C1534 C 0.54751 0.0668 0.82208 0.0
C1535 C 0.54569 0.08975 0.83543 0.0
C1536 C 0.54218 0.08837 0.86456 0.0
C1537 C 0.54156 0.06439 0.88014 0.0
C1538 C 0.54613 0.04321 0.86801 0.0
C1539 C 0.54259 0.01881 0.88956 0.0
C1540 C 0.51976 0.98799 0.87949 0.0
C1541 C 0.57114 0.01951 0.8963 0.0
C1542 C 0.533 0.02834 0.91474 0.0
C1543 C 0.53241 0.05463 0.90865 0.0
C1544 C 0.5195 0.06511 0.92623 0.0
C1545 C 0.50774 0.04884 0.95109 0.0
C1546 C 0.51011 0.02322 0.95881 0.0
C1547 C 0.52284 1.01276 0.94043 0.0
H1548 H 0.11126 0.27694 0.53663 0.0
H1549 H 0.16079 0.23074 0.54258 0.0
H1550 H 0.19096 0.26385 0.50482 0.0
H1551 H 0.10875 0.27903 0.46081 0.0
H1552 H 0.10912 0.31432 0.45743 0.0
H1553 H 0.09364 0.29004 0.48771 0.0
H1554 H 0.12699 0.33151 0.52171 0.0
H1555 H 0.14262 0.35649 0.49191 0.0
H1556 H 0.16486 0.34951 0.51759 0.0
H1557 H 0.21628 0.30303 0.46699 0.0
H1558 H 0.23106 0.34038 0.42776 0.0
H1559 H 0.15886 0.35364 0.44007 0.0
C1560 C 0.12793 0.27312 0.52957 0.0
C1561 C 0.13369 0.25129 0.54292 0.0
C1562 C 0.15636 0.24781 0.53348 0.0
C1563 C 0.17342 0.26629 0.5117 0.0
C1564 C 0.16685 0.28734 0.49892 0.0
C1565 C 0.14423 0.29034 0.50711 0.0
C1566 C 0.14019 0.313 0.4886 0.0
C1567 C 0.11118 0.29825 0.47268 0.0
C1568 C 0.1439 0.33918 0.506 0.0
C1569 C 0.16428 0.3225 0.4687 0.0
C1570 C 0.17982 0.30795 0.4755 0.0
C1571 C 0.20404 0.3142 0.46122 0.0
C1572 C 0.2123 0.33551 0.43907 0.0
C1573 C 0.19577 0.34941 0.43078 0.0
C1574 C 0.17156 0.34296 0.44586 0.0
H1575 H 0.7288 0.88033 0.57208 0.0
H1576 H 0.81169 0.89326 0.55331 0.0
H1577 H 0.79553 0.87966 0.50375 0.0
H1578 H 0.68495 0.82043 0.52098 0.0
H1579 H 0.66224 0.83647 0.51176 0.0
H1580 H 0.67843 0.84078 0.54682 0.0
H1581 H 0.70029 0.89799 0.5408 0.0
H1582 H 0.68454 0.89397 0.50565 0.0
H1583 H 0.72236 0.91689 0.51118 0.0
H1584 H 0.7722 0.87128 0.4547 0.0
H1585 H 0.74418 0.86905 0.41102 0.0
H1586 H 0.67719 0.86486 0.4605 0.0
C1587 C 0.7431 0.8791 0.5577 0.0
C1588 C 0.77118 0.88664 0.56688 0.0
C1589 C 0.78976 0.88608 0.54727 0.0
C1590 C 0.7808 0.87882 0.51888 0.0
C1591 C 0.75328 0.87256 0.51029 0.0
C1592 C 0.73467 0.87262 0.52919 0.0
C1593 C 0.70756 0.86887 0.51408 0.0
C1594 C 0.68177 0.83991 0.524 0.0
C1595 C 0.70346 0.89604 0.51817 0.0
C1596 C 0.71392 0.86712 0.48363 0.0
C1597 C 0.74023 0.86886 0.48194 0.0
C1598 C 0.75128 0.86912 0.45592 0.0
C1599 C 0.735 0.86738 0.4311 0.0
C1600 C 0.70801 0.86551 0.43227 0.0
C1601 C 0.69752 0.86563 0.45896 0.0
H1602 H 0.15724 0.9246 0.5587 0.0
H1603 H 0.13126 0.84104 0.60456 0.0
H1604 H 0.13081 0.81724 0.55986 0.0
H1605 H 0.12053 0.89487 0.49101 0.0
H1606 H 0.1489 0.92022 0.46917 0.0
H1607 H 0.14377 0.93222 0.50252 0.0
H1608 H 0.1936 0.94725 0.52145 0.0
H1609 H 0.20327 0.93726 0.48956 0.0
H1610 H 0.20675 0.92095 0.52295 0.0
H1611 H 0.13854 0.80468 0.50974 0.0
H1612 H 0.15776 0.8061 0.46271 0.0
H1613 H 0.18419 0.89997 0.45329 0.0
C1614 C 0.15084 0.90112 0.55912 0.0
C1615 C 0.14423 0.88454 0.58483 0.0
C1616 C 0.13608 0.85391 0.58486 0.0
C1617 C 0.1358 0.84033 0.5596 0.0
C1618 C 0.14376 0.8578 0.53465 0.0
C1619 C 0.15115 0.8876 0.53444 0.0
C1620 C 0.16277 0.90286 0.50641 0.0
C1621 C 0.14287 0.91323 0.49143 0.0
C1622 C 0.19336 0.92861 0.51031 0.0
C1623 C 0.16204 0.87751 0.49106 0.0
C1624 C 0.15005 0.85131 0.5071 0.0
C1625 C 0.14778 0.8251 0.49706 0.0
C1626 C 0.15864 0.82604 0.47037 0.0
C1627 C 0.17237 0.85319 0.45466 0.0
C1628 C 0.17365 0.87897 0.46498 0.0
H1629 H 0.61775 0.80348 0.155 0.0
H1630 H 0.56696 0.8458 0.16852 0.0
H1631 H 0.59804 0.8709 0.21028 0.0
H1632 H 0.61852 0.78329 0.22727 0.0
H1633 H 0.65309 0.78589 0.227 0.0
H1634 H 0.63105 0.77703 0.19513 0.0
H1635 H 0.67145 0.82171 0.16874 0.0
H1636 H 0.69363 0.83075 0.20059 0.0
H1637 H 0.6865 0.85843 0.18284 0.0
H1638 H 0.63574 0.89053 0.2522 0.0
H1639 H 0.66921 0.89582 0.29262 0.0
H1640 H 0.68622 0.83073 0.25628 0.0
C1641 C 0.61308 0.81803 0.16666 0.0
C1642 C 0.58983 0.82258 0.15836 0.0
C1643 C 0.58495 0.84237 0.174 0.0
C1644 C 0.60241 0.85654 0.19792 0.0
C1645 C 0.62429 0.85021 0.20628 0.0
C1646 C 0.62919 0.83091 0.19124 0.0
C1647 C 0.65085 0.82396 0.20645 0.0
C1648 C 0.63758 0.79057 0.21444 0.0
C1649 C 0.67717 0.83434 0.18859 0.0
C1650 C 0.65772 0.84252 0.23244 0.0
C1651 C 0.64288 0.85822 0.23172 0.0
C1652 C 0.64683 0.87771 0.25318 0.0
C1653 C 0.66567 0.88038 0.2762 0.0
C1654 C 0.67928 0.86269 0.27825 0.0
C1655 C 0.67564 0.84408 0.25568 0.0
H1656 H 0.19814 0.83464 0.16431 0.0
H1657 H 0.26771 0.81959 0.19345 0.0
H1658 H 0.26482 0.83417 0.24136 0.0
H1659 H 0.20918 0.89409 0.21424 0.0
H1660 H 0.1716 0.87776 0.21944 0.0
H1661 H 0.18407 0.8741 0.18608 0.0
H1662 H 0.15326 0.81684 0.19071 0.0
H1663 H 0.14102 0.82019 0.22422 0.0
H1664 H 0.15786 0.79751 0.22171 0.0
H1665 H 0.25017 0.84375 0.28757 0.0
H1666 H 0.22435 0.84542 0.32792 0.0
H1667 H 0.15999 0.84818 0.27087 0.0
C1668 C 0.21353 0.83572 0.18058 0.0
C1669 C 0.23426 0.82754 0.17459 0.0
C1670 C 0.25307 0.8277 0.19676 0.0
C1671 C 0.25111 0.83539 0.22433 0.0
C1672 C 0.22967 0.84214 0.22971 0.0
C1673 C 0.21107 0.8422 0.20843 0.0
C1674 C 0.18723 0.84557 0.22047 0.0
C1675 C 0.18808 0.87462 0.2094 0.0
C1676 C 0.15813 0.81841 0.21389 0.0
C1677 C 0.19502 0.84688 0.2519 0.0
C1678 C 0.21993 0.84552 0.25666 0.0
C1679 C 0.23096 0.84539 0.28397 0.0
C1680 C 0.21624 0.84672 0.30693 0.0
C1681 C 0.19058 0.84788 0.30277 0.0
C1682 C 0.17978 0.84775 0.27477 0.0
H1683 H 0.24564 0.42538 0.17773 0.0
H1684 H 0.20365 0.34364 0.13228 0.0
H1685 H 0.19368 0.31466 0.17772 0.0
H1686 H 0.27059 0.39782 0.24551 0.0
H1687 H 0.26148 0.42078 0.26543 0.0
H1688 H 0.27439 0.43241 0.23027 0.0
H1689 H 0.22897 0.43738 0.21833 0.0
H1690 H 0.21581 0.4236 0.25295 0.0
H1691 H 0.19454 0.40501 0.22212 0.0
H1692 H 0.17814 0.29562 0.22778 0.0
H1693 H 0.16063 0.28861 0.27654 0.0
H1694 H 0.20871 0.38384 0.28751 0.0
C1695 C 0.23619 0.40138 0.17756 0.0
C1696 C 0.22604 0.38657 0.15184 0.0
C1697 C 0.21231 0.35518 0.15191 0.0
C1698 C 0.20632 0.33866 0.17766 0.0
C1699 C 0.21428 0.35404 0.20297 0.0
C1700 C 0.22931 0.38485 0.203 0.0
C1701 C 0.23039 0.39654 0.23196 0.0
C1702 C 0.26106 0.41281 0.24399 0.0
C1703 C 0.2166 0.41679 0.23126 0.0
C1704 C 0.21281 0.3677 0.2481 0.0
C1705 C 0.20414 0.3433 0.23136 0.0
C1706 C 0.18543 0.31454 0.24124 0.0
C1707 C 0.17543 0.31075 0.26884 0.0
C1708 C 0.18377 0.33564 0.28591 0.0
C1709 C 0.20277 0.3643 0.27532 0.0
H1710 H 0.81654 0.62632 0.88952 0.0
H1711 H 0.86167 0.71135 0.92964 0.0
H1712 H 0.87985 0.73617 0.88321 0.0
H1713 H 0.87179 0.64354 0.83456 0.0
H1714 H 0.84459 0.62257 0.80836 0.0
H1715 H 0.8393 0.61151 0.84527 0.0
H1716 H 0.79229 0.61436 0.8425 0.0
H1717 H 0.798 0.62505 0.80572 0.0
H1718 H 0.79296 0.64831 0.82953 0.0
H1719 H 0.88769 0.75197 0.83178 0.0
H1720 H 0.88868 0.75723 0.77945 0.0
H1721 H 0.83812 0.66135 0.77333 0.0
C1722 C 0.83153 0.64986 0.8886 0.0
C1723 C 0.83869 0.66699 0.91299 0.0
C1724 C 0.85687 0.69804 0.91107 0.0
C1725 C 0.86703 0.71221 0.88485 0.0
C1726 C 0.85884 0.69483 0.8609 0.0
C1727 C 0.84201 0.66422 0.86262 0.0
C1728 C 0.83487 0.65088 0.83356 0.0
C1729 C 0.84845 0.63095 0.83025 0.0
C1730 C 0.8026 0.63367 0.82751 0.0
C1731 C 0.84891 0.67887 0.81518 0.0
C1732 C 0.86298 0.70397 0.83131 0.0
C1733 C 0.87703 0.73244 0.81893 0.0
C1734 C 0.87729 0.73526 0.78926 0.0
C1735 C 0.86334 0.70976 0.77244 0.0
C1736 C 0.84876 0.68129 0.78565 0.0
H1737 H 0.46864 0.24069 0.86507 0.0
H1738 H 0.40137 0.19705 0.92436 0.0
H1739 H 0.36661 0.17361 0.88478 0.0
H1740 H 0.43155 0.26159 0.81767 0.0
H1741 H 0.44504 0.25647 0.78562 0.0
H1742 H 0.46615 0.26413 0.81806 0.0
H1743 H 0.47001 0.21628 0.81374 0.0
H1744 H 0.44959 0.20881 0.78076 0.0
H1745 H 0.43818 0.1811 0.80906 0.0
H1746 H 0.33824 0.16179 0.83886 0.0
H1747 H 0.31848 0.16172 0.79045 0.0
H1748 H 0.40373 0.21471 0.75997 0.0
C1749 C 0.44681 0.22489 0.86958 0.0
C1750 C 0.43778 0.2195 0.89781 0.0
C1751 C 0.40884 0.2002 0.90306 0.0
C1752 C 0.38895 0.18712 0.88061 0.0
C1753 C 0.3983 0.19372 0.85291 0.0
C1754 C 0.42665 0.21197 0.84728 0.0
C1755 C 0.4306 0.21856 0.81564 0.0
C1756 C 0.44414 0.25219 0.80889 0.0
C1757 C 0.44813 0.2054 0.80412 0.0
C1758 C 0.4 0.20222 0.80449 0.0
C1759 C 0.38177 0.18763 0.82631 0.0
C1760 C 0.35237 0.1727 0.82159 0.0
C1761 C 0.34132 0.17287 0.79401 0.0
C1762 C 0.35952 0.18806 0.7714 0.0
C1763 C 0.38928 0.20253 0.77673 0.0
H1764 H 0.81513 0.27312 0.86471 0.0
H1765 H 0.78212 0.19237 0.91673 0.0
H1766 H 0.78242 0.16446 0.87572 0.0
H1767 H 0.7846 0.24048 0.79417 0.0
H1768 H 0.81702 0.26564 0.77692 0.0
H1769 H 0.80695 0.27721 0.80762 0.0
H1770 H 0.85557 0.2899 0.83211 0.0
H1771 H 0.86553 0.27788 0.80177 0.0
H1772 H 0.86611 0.26152 0.83625 0.0
H1773 H 0.79069 0.14643 0.82948 0.0
H1774 H 0.81133 0.14148 0.78568 0.0
H1775 H 0.84667 0.23607 0.7681 0.0
C1776 C 0.80748 0.24944 0.86729 0.0
C1777 C 0.7983 0.23485 0.89383 0.0
C1778 C 0.78855 0.20386 0.89644 0.0
C1779 C 0.78881 0.18789 0.87326 0.0
C1780 C 0.79931 0.20334 0.84772 0.0
C1781 C 0.80874 0.23357 0.84478 0.0
C1782 C 0.8234 0.24612 0.81704 0.0
C1783 C 0.807 0.25806 0.7978 0.0
C1784 C 0.85449 0.27027 0.82212 0.0
C1785 C 0.82151 0.21844 0.80515 0.0
C1786 C 0.80662 0.19372 0.82254 0.0
C1787 C 0.80234 0.16566 0.81576 0.0
C1788 C 0.81409 0.16301 0.79092 0.0
C1789 C 0.83069 0.18844 0.77388 0.0
C1790 C 0.83413 0.21633 0.78094 0.0
H1791 H 0.23537 0.13605 0.51838 0.0
H1792 H 0.29797 0.19605 0.45967 0.0
H1793 H 0.33087 0.22216 0.49975 0.0
H1794 H 0.25365 0.19041 0.57718 0.0
H1795 H 0.24789 0.16183 0.60377 0.0
H1796 H 0.22773 0.15223 0.57066 0.0
H1797 H 0.24458 0.11367 0.56383 0.0
H1798 H 0.26593 0.12426 0.59615 0.0
H1799 H 0.28209 0.1259 0.56333 0.0
H1800 H 0.35963 0.23641 0.54588 0.0
H1801 H 0.38085 0.23919 0.5942 0.0
H1802 H 0.29951 0.17018 0.62341 0.0
C1803 C 0.2556 0.15545 0.51416 0.0
C1804 C 0.26386 0.16468 0.48596 0.0
C1805 C 0.29085 0.18942 0.48105 0.0
C1806 C 0.30976 0.20415 0.50374 0.0
C1807 C 0.30134 0.19393 0.53132 0.0
C1808 C 0.2747 0.17036 0.53664 0.0
C1809 C 0.27184 0.16186 0.56797 0.0
C1810 C 0.24891 0.16691 0.58063 0.0
C1811 C 0.26575 0.1295 0.57309 0.0
C1812 C 0.30124 0.18374 0.57935 0.0
C1813 C 0.31792 0.20216 0.55791 0.0
C1814 C 0.34657 0.2225 0.5629 0.0
C1815 C 0.35849 0.22389 0.59039 0.0
C1816 C 0.34181 0.20513 0.61259 0.0
C1817 C 0.3127 0.18518 0.60698 0.0
H1818 H 0.89176 0.12478 0.53191 0.0
H1819 H 0.90224 0.20094 0.4801 0.0
H1820 H 0.891 0.22125 0.52078 0.0
H1821 H 0.83128 0.11322 0.55894 0.0
H1822 H 0.83529 0.10132 0.59446 0.0
H1823 H 0.85292 0.09556 0.56611 0.0
H1824 H 0.90192 0.12424 0.59039 0.0
H1825 H 0.88661 0.13037 0.62063 0.0
H1826 H 0.91423 0.16148 0.60216 0.0
H1827 H 0.87252 0.23 0.56638 0.0
H1828 H 0.84755 0.22527 0.61052 0.0
H1829 H 0.84257 0.13964 0.6294 0.0
C1830 C 0.89284 0.14636 0.52955 0.0
C1831 C 0.89867 0.16165 0.50294 0.0
C1832 C 0.89899 0.18936 0.50039 0.0
C1833 C 0.89223 0.20087 0.52343 0.0
C1834 C 0.88491 0.18428 0.54889 0.0
C1835 C 0.88532 0.15761 0.55204 0.0
C1836 C 0.87261 0.14177 0.57977 0.0
C1837 C 0.84652 0.11114 0.5745 0.0
C1838 C 0.89517 0.13928 0.59938 0.0
C1839 C 0.86406 0.16305 0.5914 0.0
C1840 C 0.87206 0.18791 0.57376 0.0
C1841 C 0.86627 0.2106 0.58026 0.0
C1842 C 0.85198 0.2077 0.60527 0.0
C1843 C 0.84284 0.18193 0.62302 0.0
C1844 C 0.84908 0.15943 0.61599 0.0
H1845 H 0.8909 0.74639 0.50203 0.0
H1846 H 0.86925 0.66072 0.46955 0.0
H1847 H 0.85946 0.63836 0.51822 0.0
H1848 H 0.92321 0.73897 0.57111 0.0
H1849 H 0.90794 0.75754 0.58946 0.0
H1850 H 0.917 0.76705 0.55291 0.0
H1851 H 0.86559 0.75582 0.54003 0.0
H1852 H 0.8562 0.74603 0.57641 0.0
H1853 H 0.83642 0.71983 0.54911 0.0
H1854 H 0.845 0.62444 0.56938 0.0
H1855 H 0.83122 0.62096 0.61923 0.0
H1856 H 0.86386 0.71642 0.61801 0.0
C1857 C 0.88536 0.72326 0.50558 0.0
C1858 C 0.88161 0.70528 0.48256 0.0
C1859 C 0.87297 0.67477 0.48732 0.0
C1860 C 0.86718 0.66197 0.51477 0.0
C1861 C 0.87015 0.68012 0.53708 0.0
C1862 C 0.87937 0.71022 0.53276 0.0
C1863 C 0.87856 0.72444 0.55964 0.0
C1864 C 0.90848 0.74842 0.56886 0.0
C1865 C 0.85796 0.73727 0.55607 0.0
C1866 C 0.86733 0.69768 0.57982 0.0
C1867 C 0.86234 0.67223 0.56643 0.0
C1868 C 0.84943 0.64434 0.58023 0.0
C1869 C 0.84155 0.64251 0.60843 0.0
C1870 C 0.84691 0.66843 0.62248 0.0
C1871 C 0.86015 0.69631 0.60798 0.0
loop_
_geom_bond_atom_site_label_1
_geom_bond_atom_site_label_2
_geom_bond_distance
_geom_bond_site_symmetry_2
_ccdc_geom_bond_type
C0 N1 1.317 . S
C0 N2 1.348 . S
C0 C3 1.485 . S
N1 C0 1.317 . S
N1 N5 1.370 . S
N2 C0 1.348 . S
N2 C4 1.346 . S
C3 C0 1.485 . S
C3 H7 0.960 . S
C3 H8 0.961 . S
C3 H9 0.960 . S
C4 N2 1.346 . S
C4 N5 1.307 . S
C4 C6 1.486 . S
N5 N1 1.370 . S
N5 C4 1.307 . S
C6 C4 1.486 . S
C6 H10 0.960 . S
C6 H11 0.960 . S
C6 H12 0.959 . S
H7 C3 0.960 . S
H8 C3 0.961 . S
H9 C3 0.960 . S
H10 C6 0.960 . S
H11 C6 0.960 . S
H12 C6 0.959 . S
C13 N14 1.317 . S
C13 N15 1.348 . S
C13 C16 1.485 . S
N14 C13 1.317 . S
N14 N18 1.370 . S
N15 C13 1.348 . S
N15 C17 1.346 . S
C16 C13 1.485 . S
C16 H20 0.960 . S
C16 H21 0.961 . S
C16 H22 0.960 . S
C17 N15 1.346 . S
C17 N18 1.307 . S
C17 C19 1.486 . S
N18 N14 1.370 . S
N18 C17 1.307 . S
C19 C17 1.486 . S
C19 H23 0.960 . S
C19 H24 0.960 . S
C19 H25 0.959 . S
H20 C16 0.960 . S
H21 C16 0.961 . S
H22 C16 0.960 . S
H23 C19 0.960 . S
H24 C19 0.960 . S
H25 C19 0.959 . S
C26 N27 1.317 . S
C26 N28 1.348 . S
C26 C29 1.485 . S
N27 C26 1.317 . S
N27 N31 1.370 . S
N28 C26 1.348 . S
N28 C30 1.346 . S
C29 C26 1.485 . S
C29 H33 0.960 . S
C29 H34 0.961 . S
C29 H35 0.960 . S
C30 N28 1.346 . S
C30 N31 1.307 . S
C30 C32 1.486 . S
N31 N27 1.370 . S
N31 C30 1.307 . S
C32 C30 1.486 . S
C32 H36 0.960 . S
C32 H37 0.960 . S
C32 H38 0.959 . S
H33 C29 0.960 . S
H34 C29 0.961 . S
H35 C29 0.960 . S
H36 C32 0.960 . S
H37 C32 0.960 . S
H38 C32 0.959 . S
C39 N40 1.317 . S
C39 N41 1.348 . S
C39 C42 1.485 . S
N40 C39 1.317 . S
N40 N44 1.370 . S
N41 C39 1.348 . S
N41 C43 1.346 . S
C42 C39 1.485 . S
C42 H46 0.960 . S
C42 H47 0.961 . S
C42 H48 0.960 . S
C43 N41 1.346 . S
C43 N44 1.307 . S
C43 C45 1.486 . S
N44 N40 1.370 . S
N44 C43 1.307 . S
C45 C43 1.486 . S
C45 H49 0.960 . S
C45 H50 0.960 . S
C45 H51 0.959 . S
H46 C42 0.960 . S
H47 C42 0.961 . S
H48 C42 0.960 . S
H49 C45 0.960 . S
H50 C45 0.960 . S
H51 C45 0.959 . S
C52 N53 1.317 . S
C52 N54 1.348 . S
C52 C55 1.485 . S
N53 C52 1.317 . S
N53 N57 1.370 . S
N54 C52 1.348 . S
N54 C56 1.346 . S
C55 C52 1.485 . S
C55 H59 0.960 . S
C55 H60 0.961 . S
C55 H61 0.960 . S
C56 N54 1.346 . S
C56 N57 1.307 . S
C56 C58 1.486 . S
N57 N53 1.370 . S
N57 C56 1.307 . S
C58 C56 1.486 . S
C58 H62 0.960 . S
C58 H63 0.960 . S
C58 H64 0.959 . S
H59 C55 0.960 . S
H60 C55 0.961 . S
H61 C55 0.960 . S
H62 C58 0.960 . S
H63 C58 0.960 . S
H64 C58 0.959 . S
C65 N66 1.317 . S
C65 N67 1.348 . S
C65 C68 1.485 . S
N66 C65 1.317 . S
N66 N70 1.370 . S
N67 C65 1.348 . S
N67 C69 1.346 . S
C68 C65 1.485 . S
C68 H72 0.960 . S
C68 H73 0.961 . S
C68 H74 0.960 . S
C69 N67 1.346 . S
C69 N70 1.307 . S
C69 C71 1.486 . S
N70 N66 1.370 . S
N70 C69 1.307 . S
C71 C69 1.486 . S
C71 H75 0.960 . S
C71 H76 0.960 . S
C71 H77 0.959 . S
H72 C68 0.960 . S
H73 C68 0.961 . S
H74 C68 0.960 . S
H75 C71 0.960 . S
H76 C71 0.960 . S
H77 C71 0.959 . S
C78 N79 1.317 . S
C78 N80 1.348 . S
C78 C81 1.485 . S
N79 C78 1.317 . S
N79 N83 1.370 . S
N80 C78 1.348 . S
N80 C82 1.346 . S
C81 C78 1.485 . S
C81 H85 0.960 . S
C81 H86 0.961 . S
C81 H87 0.960 . S
C82 N80 1.346 . S
C82 N83 1.307 . S
C82 C84 1.486 . S
N83 N79 1.370 . S
N83 C82 1.307 . S
C84 C82 1.486 . S
C84 H88 0.960 . S
C84 H89 0.960 . S
C84 H90 0.959 . S
H85 C81 0.960 . S
H86 C81 0.961 . S
H87 C81 0.960 . S
H88 C84 0.960 . S
H89 C84 0.960 . S
H90 C84 0.959 . S
C91 N92 1.317 . S
C91 N93 1.348 . S
C91 C94 1.485 . S
N92 C91 1.317 . S
N92 N96 1.370 . S
N93 C91 1.348 . S
N93 C95 1.346 . S
C94 C91 1.485 . S
C94 H98 0.960 . S
C94 H99 0.961 . S
C94 H100 0.960 . S
C95 N93 1.346 . S
C95 N96 1.307 . S
C95 C97 1.486 . S
N96 N92 1.370 . S
N96 C95 1.307 . S
C97 C95 1.486 . S
C97 H101 0.960 . S
C97 H102 0.960 . S
C97 H103 0.959 . S
H98 C94 0.960 . S
H99 C94 0.961 . S
H100 C94 0.960 . S
H101 C97 0.960 . S
H102 C97 0.960 . S
H103 C97 0.959 . S
C104 N105 1.317 . S
C104 N106 1.348 . S
C104 C107 1.485 . S
N105 C104 1.317 . S
N105 N109 1.370 . S
N106 C104 1.348 . S
N106 C108 1.346 . S
C107 C104 1.485 . S
C107 H111 0.960 . S
C107 H112 0.961 . S
C107 H113 0.960 . S
C108 N106 1.346 . S
C108 N109 1.307 . S
C108 C110 1.486 . S
N109 N105 1.370 . S
N109 C108 1.307 . S
C110 C108 1.486 . S
C110 H114 0.960 . S
C110 H115 0.960 . S
C110 H116 0.959 . S
H111 C107 0.960 . S
H112 C107 0.961 . S
H113 C107 0.960 . S
H114 C110 0.960 . S
H115 C110 0.960 . S
H116 C110 0.959 . S
C117 N118 1.317 . S
C117 N119 1.348 . S
C117 C120 1.485 . S
N118 C117 1.317 . S
N118 N122 1.370 . S
N119 C117 1.348 . S
N119 C121 1.346 . S
C120 C117 1.485 . S
C120 H124 0.960 . S
C120 H125 0.961 . S
C120 H126 0.960 . S
C121 N119 1.346 . S
C121 N122 1.307 . S
C121 C123 1.486 . S
N122 N118 1.370 . S
N122 C121 1.307 . S
C123 C121 1.486 . S
C123 H127 0.960 . S
C123 H128 0.960 . S
C123 H129 0.959 . S
H124 C120 0.960 . S
H125 C120 0.961 . S
H126 C120 0.960 . S
H127 C123 0.960 . S
H128 C123 0.960 . S
H129 C123 0.959 . S
C130 N131 1.317 . S
C130 N132 1.348 . S
C130 C133 1.485 1_556 S
N131 C130 1.317 . S
N131 N135 1.370 . S
N132 C130 1.348 . S
N132 C134 1.346 . S
C133 C130 1.485 1_554 S
C133 H137 0.960 . S
C133 H138 0.961 . S
C133 H139 0.960 . S
C134 N132 1.346 . S
C134 N135 1.307 . S
C134 C136 1.486 . S
N135 N131 1.370 . S
N135 C134 1.307 . S
C136 C134 1.486 . S
C136 H140 0.960 . S
C136 H141 0.960 . S
C136 H142 0.959 . S
H137 C133 0.960 . S
H138 C133 0.961 . S
H139 C133 0.960 . S
H140 C136 0.960 . S
H141 C136 0.960 . S
H142 C136 0.959 . S
C143 N144 1.317 . S
C143 N145 1.348 . S
C143 C146 1.485 1_556 S
N144 C143 1.317 . S
N144 N148 1.370 . S
N145 C143 1.348 . S
N145 C147 1.346 . S
C146 C143 1.485 1_554 S
C146 H150 0.960 . S
C146 H151 0.961 . S
C146 H152 0.960 . S
C147 N145 1.346 . S
C147 N148 1.307 . S
C147 C149 1.486 . S
N148 N144 1.370 . S
N148 C147 1.307 . S
C149 C147 1.486 . S
C149 H153 0.960 . S
C149 H154 0.960 . S
C149 H155 0.959 . S
H150 C146 0.960 . S
H151 C146 0.961 . S
H152 C146 0.960 . S
H153 C149 0.960 . S
H154 C149 0.960 . S
H155 C149 0.959 . S
C156 N157 1.317 . S
C156 N158 1.348 . S
C156 C159 1.485 . S
N157 C156 1.317 . S
N157 N161 1.370 . S
N158 C156 1.348 . S
N158 C160 1.346 . S
C159 C156 1.485 . S
C159 H163 0.960 . S
C159 H164 0.961 . S
C159 H165 0.960 . S
C160 N158 1.346 . S
C160 N161 1.307 . S
C160 C162 1.486 . S
N161 N157 1.370 . S
N161 C160 1.307 . S
C162 C160 1.486 . S
C162 H166 0.960 . S
C162 H167 0.960 . S
C162 H168 0.959 . S
H163 C159 0.960 . S
H164 C159 0.961 . S
H165 C159 0.960 . S
H166 C162 0.960 . S
H167 C162 0.960 . S
H168 C162 0.959 . S
C169 N170 1.317 . S
C169 N171 1.348 . S
C169 C172 1.485 . S
N170 C169 1.317 . S
N170 N174 1.370 . S
N171 C169 1.348 . S
N171 C173 1.346 . S
C172 C169 1.485 . S
C172 H176 0.960 . S
C172 H177 0.961 . S
C172 H178 0.960 . S
C173 N171 1.346 . S
C173 N174 1.307 . S
C173 C175 1.486 . S
N174 N170 1.370 . S
N174 C173 1.307 . S
C175 C173 1.486 . S
C175 H179 0.960 . S
C175 H180 0.960 . S
C175 H181 0.959 . S
H176 C172 0.960 . S
H177 C172 0.961 . S
H178 C172 0.960 . S
H179 C175 0.960 . S
H180 C175 0.960 . S
H181 C175 0.959 . S
C182 N183 1.317 . S
C182 N184 1.348 . S
C182 C185 1.485 . S
N183 C182 1.317 . S
N183 N187 1.370 . S
N184 C182 1.348 . S
N184 C186 1.346 . S
C185 C182 1.485 . S
C185 H189 0.960 . S
C185 H190 0.961 . S
C185 H191 0.960 . S
C186 N184 1.346 . S
C186 N187 1.307 . S
C186 C188 1.486 . S
N187 N183 1.370 . S
N187 C186 1.307 . S
C188 C186 1.486 . S
C188 H192 0.960 . S
C188 H193 0.960 . S
C188 H194 0.959 . S
H189 C185 0.960 . S
H190 C185 0.961 . S
H191 C185 0.960 . S
H192 C188 0.960 . S
H193 C188 0.960 . S
H194 C188 0.959 . S
C195 N196 1.317 . S
C195 N197 1.348 . S
C195 C198 1.485 . S
N196 C195 1.317 . S
N196 N200 1.370 . S
N197 C195 1.348 . S
N197 C199 1.346 . S
C198 C195 1.485 . S
C198 H202 0.960 . S
C198 H203 0.961 . S
C198 H204 0.960 . S
C199 N197 1.346 . S
C199 N200 1.307 . S
C199 C201 1.486 . S
N200 N196 1.370 . S
N200 C199 1.307 . S
C201 C199 1.486 . S
C201 H205 0.960 . S
C201 H206 0.960 . S
C201 H207 0.959 . S
H202 C198 0.960 . S
H203 C198 0.961 . S
H204 C198 0.960 . S
H205 C201 0.960 . S
H206 C201 0.960 . S
H207 C201 0.959 . S
C208 N209 1.317 . S
C208 N210 1.348 . S
C208 C211 1.485 . S
N209 C208 1.317 . S
N209 N213 1.370 . S
N210 C208 1.348 . S
N210 C212 1.346 . S
C211 C208 1.485 . S
C211 H215 0.960 . S
C211 H216 0.961 . S
C211 H217 0.960 . S
C212 N210 1.346 . S
C212 N213 1.307 . S
C212 C214 1.486 . S
N213 N209 1.370 . S
N213 C212 1.307 . S
C214 C212 1.486 . S
C214 H218 0.960 . S
C214 H219 0.960 . S
C214 H220 0.959 . S
H215 C211 0.960 . S
H216 C211 0.961 . S
H217 C211 0.960 . S
H218 C214 0.960 . S
H219 C214 0.960 . S
H220 C214 0.959 . S
C221 N222 1.317 . S
C221 N223 1.348 . S
C221 C224 1.485 . S
N222 C221 1.317 . S
N222 N226 1.370 . S
N223 C221 1.348 . S
N223 C225 1.346 . S
C224 C221 1.485 . S
C224 H228 0.960 . S
C224 H229 0.961 . S
C224 H230 0.960 . S
C225 N223 1.346 . S
C225 N226 1.307 . S
C225 C227 1.486 . S
N226 N222 1.370 . S
N226 C225 1.307 . S
C227 C225 1.486 . S
C227 H231 0.960 . S
C227 H232 0.960 . S
C227 H233 0.959 . S
H228 C224 0.960 . S
H229 C224 0.961 . S
H230 C224 0.960 . S
H231 C227 0.960 . S
H232 C227 0.960 . S
H233 C227 0.959 . S
Tb234 O237 2.453 . S
Tb234 O238 2.596 1_545 S
Tb234 O239 2.374 1_545 S
Tb234 O247 2.343 1_554 S
Tb234 O249 2.353 . S
Tb234 O251 2.427 . S
Tb234 O252 2.513 . S
C235 O239 1.251 . S
C235 O241 1.263 . S
Tb236 O238 2.343 . S
Tb236 O241 2.353 . S
Tb236 O244 2.427 . S
Tb236 O245 2.513 . S
Tb236 O246 2.455 1_554 S
Tb236 O247 2.596 1_564 S
Tb236 O248 2.374 1_565 S
O237 Tb234 2.453 . S
O237 C253 1.245 1_545 S
O238 Tb234 2.596 1_565 S
O238 Tb236 2.343 . S
O238 C253 1.259 . S
O239 Tb234 2.374 1_565 S
O239 C235 1.251 . S
C240 O244 1.275 . S
C240 O245 1.246 . S
O241 C235 1.263 . S
O241 Tb236 2.353 . S
C242 O246 1.239 1_545 S
C242 O247 1.259 . S
C243 O248 1.250 . S
C243 O249 1.263 . S
O244 Tb236 2.427 . S
O244 C240 1.275 . S
O245 Tb236 2.513 . S
O245 C240 1.246 . S
O246 Tb236 2.455 1_556 S
O246 C242 1.239 1_565 S
O247 Tb234 2.343 1_556 S
O247 Tb236 2.596 1_546 S
O247 C242 1.259 . S
O248 Tb236 2.374 1_545 S
O248 C243 1.250 . S
O249 Tb234 2.353 . S
O249 C243 1.263 . S
C250 O251 1.275 . S
C250 O252 1.246 . S
O251 Tb234 2.427 . S
O251 C250 1.275 . S
O252 Tb234 2.513 . S
O252 C250 1.246 . S
C253 O237 1.245 1_565 S
C253 O238 1.259 . S
Tb254 O257 2.453 . S
Tb254 O258 2.596 1_655 S
Tb254 O259 2.374 1_655 S
Tb254 O267 2.343 1_554 S
Tb254 O269 2.353 . S
Tb254 O271 2.427 1_554 S
Tb254 O272 2.513 1_554 S
C255 O259 1.251 . S
C255 O261 1.263 . S
Tb256 O258 2.343 1_556 S
Tb256 O261 2.353 1_556 S
Tb256 O264 2.427 1_556 S
Tb256 O265 2.513 1_556 S
Tb256 O266 2.453 . S
Tb256 O267 2.596 1_455 S
Tb256 O268 2.374 1_456 S
O257 Tb254 2.453 . S
O257 C273 1.245 1_655 S
O258 Tb254 2.596 1_455 S
O258 Tb256 2.343 1_554 S
O258 C273 1.259 . S
O259 Tb254 2.374 1_455 S
O259 C255 1.251 . S
C260 O264 1.275 . S
C260 O265 1.246 . S
O261 C255 1.263 . S
O261 Tb256 2.353 1_554 S
C262 O266 1.245 . S
C262 O267 1.259 1_455 S
C263 O268 1.250 . S
C263 O269 1.263 . S
O264 Tb256 2.427 1_554 S
O264 C260 1.275 . S
O265 Tb256 2.513 1_554 S
O265 C260 1.246 . S
O266 Tb256 2.453 . S
O266 C262 1.245 . S
O267 Tb254 2.343 1_556 S
O267 Tb256 2.596 1_655 S
O267 C262 1.259 1_655 S
O268 Tb256 2.374 1_654 S
O268 C263 1.250 . S
O269 Tb254 2.353 . S
O269 C263 1.263 . S
C270 O271 1.275 . S
C270 O272 1.246 . S
O271 Tb254 2.427 1_556 S
O271 C270 1.275 . S
O272 Tb254 2.513 1_556 S
O272 C270 1.246 . S
C273 O257 1.245 1_455 S
C273 O258 1.259 . S
Tb274 O277 2.453 1_554 S
Tb274 O278 2.596 . S
Tb274 O279 2.374 . S
Tb274 O287 2.343 . S
Tb274 O289 2.353 . S
Tb274 O291 2.427 . S
Tb274 O292 2.513 . S
C275 O279 1.251 . S
C275 O281 1.263 . S
Tb276 O278 2.343 . S
Tb276 O281 2.353 . S
Tb276 O284 2.427 . S
Tb276 O285 2.513 . S
Tb276 O286 2.453 . S
Tb276 O287 2.596 . S
Tb276 O288 2.374 . S
O277 Tb274 2.453 1_556 S
O277 C293 1.245 . S
O278 Tb274 2.596 . S
O278 Tb276 2.343 . S
O278 C293 1.259 1_554 S
O279 Tb274 2.374 . S
O279 C275 1.251 . S
C280 O284 1.275 . S
C280 O285 1.246 . S
O281 C275 1.263 . S
O281 Tb276 2.353 . S
C282 O286 1.245 . S
C282 O287 1.259 . S
C283 O288 1.250 . S
C283 O289 1.263 . S
O284 Tb276 2.427 . S
O284 C280 1.275 . S
O285 Tb276 2.513 . S
O285 C280 1.246 . S
O286 Tb276 2.453 . S
O286 C282 1.245 . S
O287 Tb274 2.343 . S
O287 Tb276 2.596 . S
O287 C282 1.259 . S
O288 Tb276 2.374 . S
O288 C283 1.250 . S
O289 Tb274 2.353 . S
O289 C283 1.263 . S
C290 O291 1.275 . S
C290 O292 1.246 . S
O291 Tb274 2.427 . S
O291 C290 1.275 . S
O292 Tb274 2.513 . S
O292 C290 1.246 . S
C293 O277 1.245 . S
C293 O278 1.259 1_556 S
Tb294 O297 2.453 . S
Tb294 O298 2.596 . S
Tb294 O299 2.374 . S
Tb294 O307 2.343 . S
Tb294 O309 2.353 . S
Tb294 O311 2.427 . S
Tb294 O312 2.513 . S
C295 O299 1.251 . S
C295 O301 1.263 . S
Tb296 O298 2.343 . S
Tb296 O301 2.353 . S
Tb296 O304 2.427 . S
Tb296 O305 2.513 . S
Tb296 O306 2.453 . S
Tb296 O307 2.596 . S
Tb296 O308 2.374 . S
O297 Tb294 2.453 . S
O297 C313 1.245 . S
O298 Tb294 2.596 . S
O298 Tb296 2.343 . S
O298 C313 1.259 . S
O299 Tb294 2.374 . S
O299 C295 1.251 . S
C300 O304 1.275 . S
C300 O305 1.246 . S
O301 C295 1.263 . S
O301 Tb296 2.353 . S
C302 O306 1.245 . S
C302 O307 1.259 . S
C303 O308 1.250 . S
C303 O309 1.263 . S
O304 Tb296 2.427 . S
O304 C300 1.275 . S
O305 Tb296 2.513 . S
O305 C300 1.246 . S
O306 Tb296 2.453 . S
O306 C302 1.245 . S
O307 Tb294 2.343 . S
O307 Tb296 2.596 . S
O307 C302 1.259 . S
O308 Tb296 2.374 . S
O308 C303 1.250 . S
O309 Tb294 2.353 . S
O309 C303 1.263 . S
C310 O311 1.275 . S
C310 O312 1.246 . S
O311 Tb294 2.427 . S
O311 C310 1.275 . S
O312 Tb294 2.513 . S
O312 C310 1.246 . S
C313 O297 1.245 . S
C313 O298 1.259 . S
Tb314 O317 2.453 . S
Tb314 O318 2.596 . S
Tb314 O319 2.374 . S
Tb314 O327 2.343 . S
Tb314 O329 2.353 . S
Tb314 O331 2.427 . S
Tb314 O332 2.513 . S
C315 O319 1.251 . S
C315 O321 1.263 . S
Tb316 O318 2.343 . S
Tb316 O321 2.353 . S
Tb316 O324 2.427 . S
Tb316 O325 2.513 . S
Tb316 O326 2.453 . S
Tb316 O327 2.596 . S
Tb316 O328 2.374 . S
O317 Tb314 2.453 . S
O317 C333 1.245 . S
O318 Tb314 2.596 . S
O318 Tb316 2.343 . S
O318 C333 1.259 . S
O319 Tb314 2.374 . S
O319 C315 1.251 . S
C320 O324 1.275 . S
C320 O325 1.246 . S
O321 C315 1.263 . S
O321 Tb316 2.353 . S
C322 O326 1.245 . S
C322 O327 1.259 . S
C323 O328 1.250 . S
C323 O329 1.263 . S
O324 Tb316 2.427 . S
O324 C320 1.275 . S
O325 Tb316 2.513 . S
O325 C320 1.246 . S
O326 Tb316 2.453 . S
O326 C322 1.245 . S
O327 Tb314 2.343 . S
O327 Tb316 2.596 . S
O327 C322 1.259 . S
O328 Tb316 2.374 . S
O328 C323 1.250 . S
O329 Tb314 2.353 . S
O329 C323 1.263 . S
C330 O331 1.275 . S
C330 O332 1.246 . S
O331 Tb314 2.427 . S
O331 C330 1.275 . S
O332 Tb314 2.513 . S
O332 C330 1.246 . S
C333 O317 1.245 . S
C333 O318 1.259 . S
Tb334 O337 2.453 . S
Tb334 O338 2.596 . S
Tb334 O339 2.374 . S
Tb334 O347 2.343 . S
Tb334 O349 2.353 . S
Tb334 O351 2.427 . S
Tb334 O352 2.513 . S
C335 O339 1.251 . S
C335 O341 1.263 . S
Tb336 O338 2.343 . S
Tb336 O341 2.353 . S
Tb336 O344 2.427 . S
Tb336 O345 2.513 . S
Tb336 O346 2.453 . S
Tb336 O347 2.596 . S
Tb336 O348 2.374 . S
O337 Tb334 2.453 . S
O337 C353 1.245 . S
O338 Tb334 2.596 . S
O338 Tb336 2.343 . S
O338 C353 1.259 . S
O339 Tb334 2.374 . S
O339 C335 1.251 . S
C340 O344 1.275 . S
C340 O345 1.246 . S
O341 C335 1.263 . S
O341 Tb336 2.353 . S
C342 O346 1.245 . S
C342 O347 1.259 . S
C343 O348 1.250 . S
C343 O349 1.263 . S
O344 Tb336 2.427 . S
O344 C340 1.275 . S
O345 Tb336 2.513 . S
O345 C340 1.246 . S
O346 Tb336 2.453 . S
O346 C342 1.245 . S
O347 Tb334 2.343 . S
O347 Tb336 2.596 . S
O347 C342 1.259 . S
O348 Tb336 2.374 . S
O348 C343 1.250 . S
O349 Tb334 2.353 . S
O349 C343 1.263 . S
C350 O351 1.275 . S
C350 O352 1.246 . S
O351 Tb334 2.427 . S
O351 C350 1.275 . S
O352 Tb334 2.513 . S
O352 C350 1.246 . S
C353 O337 1.245 . S
C353 O338 1.259 . S
Tb354 O357 2.453 . S
Tb354 O358 2.596 . S
Tb354 O359 2.374 . S
Tb354 O367 2.343 . S
Tb354 O369 2.353 . S
Tb354 O371 2.427 . S
Tb354 O372 2.513 . S
C355 O359 1.251 . S
C355 O361 1.263 . S
Tb356 O358 2.343 . S
Tb356 O361 2.353 . S
Tb356 O364 2.427 . S
Tb356 O365 2.513 . S
Tb356 O366 2.453 . S
Tb356 O367 2.596 . S
Tb356 O368 2.374 . S
O357 Tb354 2.453 . S
O357 C373 1.245 . S
O358 Tb354 2.596 . S
O358 Tb356 2.343 . S
O358 C373 1.259 . S
O359 Tb354 2.374 . S
O359 C355 1.251 . S
C360 O364 1.275 . S
C360 O365 1.246 . S
O361 C355 1.263 . S
O361 Tb356 2.353 . S
C362 O366 1.245 . S
C362 O367 1.259 . S
C363 O368 1.250 . S
C363 O369 1.263 . S
O364 Tb356 2.427 . S
O364 C360 1.275 . S
O365 Tb356 2.513 . S
O365 C360 1.246 . S
O366 Tb356 2.453 . S
O366 C362 1.245 . S
O367 Tb354 2.343 . S
O367 Tb356 2.596 . S
O367 C362 1.259 . S
O368 Tb356 2.374 . S
O368 C363 1.250 . S
O369 Tb354 2.353 . S
O369 C363 1.263 . S
C370 O371 1.275 . S
C370 O372 1.246 . S
O371 Tb354 2.427 . S
O371 C370 1.275 . S
O372 Tb354 2.513 . S
O372 C370 1.246 . S
C373 O357 1.245 . S
C373 O358 1.259 . S
Tb374 O377 2.453 . S
Tb374 O378 2.596 . S
Tb374 O379 2.374 . S
Tb374 O387 2.343 . S
Tb374 O389 2.353 . S
Tb374 O391 2.427 . S
Tb374 O392 2.513 . S
C375 O379 1.251 . S
C375 O381 1.263 . S
Tb376 O378 2.343 . S
Tb376 O381 2.353 . S
Tb376 O384 2.427 . S
Tb376 O385 2.513 . S
Tb376 O386 2.453 . S
Tb376 O387 2.596 . S
Tb376 O388 2.374 . S
O377 Tb374 2.453 . S
O377 C393 1.245 . S
O378 Tb374 2.596 . S
O378 Tb376 2.343 . S
O378 C393 1.259 . S
O379 Tb374 2.374 . S
O379 C375 1.251 . S
C380 O384 1.275 . S
C380 O385 1.246 . S
O381 C375 1.263 . S
O381 Tb376 2.353 . S
C382 O386 1.245 . S
C382 O387 1.259 . S
C383 O388 1.250 . S
C383 O389 1.263 . S
O384 Tb376 2.427 . S
O384 C380 1.275 . S
O385 Tb376 2.513 . S
O385 C380 1.246 . S
O386 Tb376 2.453 . S
O386 C382 1.245 . S
O387 Tb374 2.343 . S
O387 Tb376 2.596 . S
O387 C382 1.259 . S
O388 Tb376 2.374 . S
O388 C383 1.250 . S
O389 Tb374 2.353 . S
O389 C383 1.263 . S
C390 O391 1.275 . S
C390 O392 1.246 . S
O391 Tb374 2.427 . S
O391 C390 1.275 . S
O392 Tb374 2.513 . S
O392 C390 1.246 . S
C393 O377 1.245 . S
C393 O378 1.259 . S
Tb394 O397 2.453 . S
Tb394 O398 2.596 . S
Tb394 O399 2.374 . S
Tb394 O407 2.343 . S
Tb394 O409 2.353 . S
Tb394 O411 2.427 . S
Tb394 O412 2.513 . S
C395 O399 1.251 . S
C395 O401 1.263 . S
Tb396 O398 2.343 . S
Tb396 O401 2.353 . S
Tb396 O404 2.427 . S
Tb396 O405 2.513 . S
Tb396 O406 2.453 . S
Tb396 O407 2.596 . S
Tb396 O408 2.374 . S
O397 Tb394 2.453 . S
O397 C413 1.245 . S
O398 Tb394 2.596 . S
O398 Tb396 2.343 . S
O398 C413 1.259 . S
O399 Tb394 2.374 . S
O399 C395 1.251 . S
C400 O404 1.275 . S
C400 O405 1.246 . S
O401 C395 1.263 . S
O401 Tb396 2.353 . S
C402 O406 1.245 . S
C402 O407 1.259 . S
C403 O408 1.250 . S
C403 O409 1.263 . S
O404 Tb396 2.427 . S
O404 C400 1.275 . S
O405 Tb396 2.513 . S
O405 C400 1.246 . S
O406 Tb396 2.453 . S
O406 C402 1.245 . S
O407 Tb394 2.343 . S
O407 Tb396 2.596 . S
O407 C402 1.259 . S
O408 Tb396 2.374 . S
O408 C403 1.250 . S
O409 Tb394 2.353 . S
O409 C403 1.263 . S
C410 O411 1.275 . S
C410 O412 1.246 . S
O411 Tb394 2.427 . S
O411 C410 1.275 . S
O412 Tb394 2.513 . S
O412 C410 1.246 . S
C413 O397 1.245 . S
C413 O398 1.259 . S
H414 C426 0.930 . S
H415 C428 0.930 . S
H416 C429 0.930 . S
H417 C433 0.959 . S
H418 C433 0.959 . S
H419 C433 0.961 . S
H420 C434 0.960 . S
H421 C434 0.961 1_556 S
H422 C434 0.959 . S
H423 C437 0.929 . S
H424 C438 0.931 . S
H425 C440 0.930 . S
C426 H414 0.930 . S
C426 C427 1.399 . S
C426 C431 1.399 . S
C427 C426 1.399 . S
C427 C428 1.376 . S
C428 H415 0.930 . S
C428 C427 1.376 . S
C428 C429 1.388 . S
C429 H416 0.930 . S
C429 C428 1.388 . S
C429 C430 1.390 . S
C430 C429 1.390 . S
C430 C431 1.394 . S
C430 C436 1.465 . S
C431 C426 1.399 . S
C431 C430 1.394 . S
C431 C432 1.516 . S
C432 C431 1.516 . S
C432 C433 1.502 . S
C432 C434 1.561 . S
C432 C435 1.526 . S
C433 H417 0.959 . S
C433 H418 0.959 . S
C433 H419 0.961 . S
C433 C432 1.502 . S
C434 H420 0.960 . S
C434 H421 0.961 1_554 S
C434 H422 0.959 . S
C434 C432 1.561 . S
C435 C432 1.526 . S
C435 C436 1.396 . S
C435 C440 1.390 . S
C436 C430 1.465 . S
C436 C435 1.396 . S
C436 C437 1.399 . S
C437 H423 0.929 . S
C437 C436 1.399 . S
C437 C438 1.385 . S
C438 H424 0.931 . S
C438 C437 1.385 . S
C438 C439 1.389 . S
C439 C438 1.389 . S
C439 C440 1.387 . S
C440 H425 0.930 . S
C440 C435 1.390 . S
C440 C439 1.387 . S
H441 C453 0.930 . S
H442 C455 0.930 . S
H443 C456 0.930 . S
H444 C460 0.959 . S
H445 C460 0.959 . S
H446 C460 0.961 . S
H447 C461 0.960 . S
H448 C461 0.961 . S
H449 C461 0.959 . S
H450 C464 0.929 . S
H451 C465 0.931 . S
H452 C467 0.930 . S
C453 H441 0.930 . S
C453 C454 1.399 . S
C453 C458 1.399 . S
C454 C453 1.399 . S
C454 C455 1.376 . S
C455 H442 0.930 . S
C455 C454 1.376 . S
C455 C456 1.388 . S
C456 H443 0.930 . S
C456 C455 1.388 . S
C456 C457 1.390 . S
C457 C456 1.390 . S
C457 C458 1.394 . S
C457 C463 1.465 . S
C458 C453 1.399 . S
C458 C457 1.394 . S
C458 C459 1.516 . S
C459 C458 1.516 . S
C459 C460 1.502 . S
C459 C461 1.561 . S
C459 C462 1.526 . S
C460 H444 0.959 . S
C460 H445 0.959 . S
C460 H446 0.961 . S
C460 C459 1.502 . S
C461 H447 0.960 . S
C461 H448 0.961 . S
C461 H449 0.959 . S
C461 C459 1.561 . S
C462 C459 1.526 . S
C462 C463 1.396 . S
C462 C467 1.390 . S
C463 C457 1.465 . S
C463 C462 1.396 . S
C463 C464 1.399 . S
C464 H450 0.929 . S
C464 C463 1.399 . S
C464 C465 1.385 . S
C465 H451 0.931 . S
C465 C464 1.385 . S
C465 C466 1.389 . S
C466 C465 1.389 . S
C466 C467 1.387 . S
C467 H452 0.930 . S
C467 C462 1.390 . S
C467 C466 1.387 . S
H468 C480 0.930 . S
H469 C482 0.930 . S
H470 C483 0.930 . S
H471 C487 0.959 . S
H472 C487 0.959 1_556 S
H473 C487 0.961 1_556 S
H474 C488 0.960 . S
H475 C488 0.961 . S
H476 C488 0.959 1_554 S
H477 C491 0.929 . S
H478 C492 0.931 . S
H479 C494 0.930 . S
C480 H468 0.930 . S
C480 C481 1.399 . S
C480 C485 1.399 . S
C481 C480 1.399 . S
C481 C482 1.376 . S
C482 H469 0.930 . S
C482 C481 1.376 . S
C482 C483 1.388 . S
C483 H470 0.930 . S
C483 C482 1.388 . S
C483 C484 1.390 . S
C484 C483 1.390 . S
C484 C485 1.394 . S
C484 C490 1.465 . S
C485 C480 1.399 . S
C485 C484 1.394 . S
C485 C486 1.516 . S
C486 C485 1.516 . S
C486 C487 1.502 . S
C486 C488 1.561 1_554 S
C486 C489 1.526 . S
C487 H471 0.959 . S
C487 H472 0.959 1_554 S
C487 H473 0.961 1_554 S
C487 C486 1.502 . S
C488 H474 0.960 . S
C488 H475 0.961 . S
C488 H476 0.959 1_556 S
C488 C486 1.561 1_556 S
C489 C486 1.526 . S
C489 C490 1.396 . S
C489 C494 1.390 . S
C490 C484 1.465 . S
C490 C489 1.396 . S
C490 C491 1.399 . S
C491 H477 0.929 . S
C491 C490 1.399 . S
C491 C492 1.385 . S
C492 H478 0.931 . S
C492 C491 1.385 . S
C492 C493 1.389 . S
C493 C492 1.389 . S
C493 C494 1.387 . S
C494 H479 0.930 . S
C494 C489 1.390 . S
C494 C493 1.387 . S
H495 C507 0.930 . S
H496 C509 0.930 . S
H497 C510 0.930 . S
H498 C514 0.959 . S
H499 C514 0.959 . S
H500 C514 0.961 . S
H501 C515 0.960 . S
H502 C515 0.961 . S
H503 C515 0.959 . S
H504 C518 0.929 . S
H505 C519 0.931 . S
H506 C521 0.930 . S
C507 H495 0.930 . S
C507 C508 1.399 . S
C507 C512 1.399 . S
C508 C507 1.399 . S
C508 C509 1.376 1_556 S
C509 H496 0.930 . S
C509 C508 1.376 1_554 S
C509 C510 1.388 . S
C510 H497 0.930 . S
C510 C509 1.388 . S
C510 C511 1.390 1_554 S
C511 C510 1.390 1_556 S
C511 C512 1.394 . S
C511 C517 1.465 1_556 S
C512 C507 1.399 . S
C512 C511 1.394 . S
C512 C513 1.516 . S
C513 C512 1.516 . S
C513 C514 1.502 . S
C513 C515 1.561 . S
C513 C516 1.526 . S
C514 H498 0.959 . S
C514 H499 0.959 . S
C514 H500 0.961 . S
C514 C513 1.502 . S
C515 H501 0.960 . S
C515 H502 0.961 . S
C515 H503 0.959 . S
C515 C513 1.561 . S
C516 C513 1.526 . S
C516 C517 1.396 1_556 S
C516 C521 1.390 . S
C517 C511 1.465 1_554 S
C517 C516 1.396 1_554 S
C517 C518 1.399 . S
C518 H504 0.929 . S
C518 C517 1.399 . S
C518 C519 1.385 . S
C519 H505 0.931 . S
C519 C518 1.385 . S
C519 C520 1.361 1_554 S
C520 C519 1.361 1_556 S
C520 C521 1.415 . S
C521 H506 0.930 . S
C521 C516 1.390 . S
C521 C520 1.415 . S
H522 C534 0.930 . S
H523 C536 0.930 . S
H524 C537 0.930 . S
H525 C541 0.959 . S
H526 C541 0.959 . S
H527 C541 0.961 . S
H528 C542 0.960 . S
H529 C542 0.961 . S
H530 C542 0.959 . S
H531 C545 0.929 . S
H532 C546 0.931 . S
H533 C548 0.930 1_554 S
C534 H522 0.930 . S
C534 C535 1.399 . S
C534 C539 1.399 . S
C535 C534 1.399 . S
C535 C536 1.376 . S
C536 H523 0.930 . S
C536 C535 1.376 . S
C536 C537 1.388 . S
C537 H524 0.930 . S
C537 C536 1.388 . S
C537 C538 1.390 . S
C538 C537 1.390 . S
C538 C539 1.394 . S
C538 C544 1.465 . S
C539 C534 1.399 . S
C539 C538 1.394 . S
C539 C540 1.516 . S
C540 C539 1.516 . S
C540 C541 1.502 . S
C540 C542 1.561 1_556 S
C540 C543 1.526 . S
C541 H525 0.959 . S
C541 H526 0.959 . S
C541 H527 0.961 . S
C541 C540 1.502 . S
C542 H528 0.960 . S
C542 H529 0.961 . S
C542 H530 0.959 . S
C542 C540 1.561 1_554 S
C543 C540 1.526 . S
C543 C544 1.396 . S
C543 C548 1.390 . S
C544 C538 1.465 . S
C544 C543 1.396 . S
C544 C545 1.399 . S
C545 H531 0.929 . S
C545 C544 1.399 . S
C545 C546 1.385 . S
C546 H532 0.931 . S
C546 C545 1.385 . S
C546 C547 1.389 . S
C547 C546 1.389 . S
C547 C548 1.387 . S
C548 H533 0.930 1_556 S
C548 C543 1.390 . S
C548 C547 1.387 . S
H549 C561 0.930 . S
H550 C563 0.955 . S
H551 C564 0.930 . S
H552 C568 0.959 . S
H553 C568 0.959 . S
H554 C568 0.961 . S
H555 C569 0.960 . S
H556 C569 0.961 . S
H557 C569 0.959 . S
H558 C572 0.929 . S
H559 C573 0.931 . S
H560 C575 0.930 . S
C561 H549 0.930 . S
C561 C562 1.399 . S
C561 C566 1.399 . S
C562 C561 1.399 . S
C562 C563 1.337 1_556 S
C563 H550 0.955 . S
C563 C562 1.337 1_554 S
C563 C564 1.404 . S
C564 H551 0.930 . S
C564 C563 1.404 . S
C564 C565 1.390 1_554 S
C565 C564 1.390 1_556 S
C565 C566 1.394 . S
C565 C571 1.465 1_556 S
C566 C561 1.399 . S
C566 C565 1.394 . S
C566 C567 1.516 . S
C567 C566 1.516 . S
C567 C568 1.502 . S
C567 C569 1.561 . S
C567 C570 1.526 . S
C568 H552 0.959 . S
C568 H553 0.959 . S
C568 H554 0.961 . S
C568 C567 1.502 . S
C569 H555 0.960 . S
C569 H556 0.961 . S
C569 H557 0.959 . S
C569 C567 1.561 . S
C570 C567 1.526 . S
C570 C571 1.396 1_556 S
C570 C575 1.390 . S
C571 C565 1.465 1_554 S
C571 C570 1.396 1_554 S
C571 C572 1.399 . S
C572 H558 0.929 . S
C572 C571 1.399 . S
C572 C573 1.385 . S
C573 H559 0.931 . S
C573 C572 1.385 . S
C573 C574 1.389 . S
C574 C573 1.389 . S
C574 C575 1.387 1_554 S
C575 H560 0.930 . S
C575 C570 1.390 . S
C575 C574 1.387 1_556 S
H576 C588 0.930 1_554 S
H577 C590 0.930 . S
H578 C591 0.930 . S
H579 C595 0.959 . S
H580 C595 0.959 . S
H581 C595 0.961 . S
H582 C596 0.960 . S
H583 C596 0.961 . S
H584 C596 0.959 . S
H585 C599 0.929 . S
H586 C600 0.931 . S
H587 C602 0.930 . S
C588 H576 0.930 1_556 S
C588 C589 1.399 . S
C588 C593 1.399 . S
C589 C588 1.399 . S
C589 C590 1.376 . S
C590 H577 0.930 . S
C590 C589 1.376 . S
C590 C591 1.388 . S
C591 H578 0.930 . S
C591 C590 1.388 . S
C591 C592 1.390 . S
C592 C591 1.390 . S
C592 C593 1.394 . S
C592 C598 1.465 . S
C593 C588 1.399 . S
C593 C592 1.394 . S
C593 C594 1.516 1_556 S
C594 C593 1.516 1_554 S
C594 C595 1.502 . S
C594 C596 1.561 . S
C594 C597 1.509 1_554 S
C595 H579 0.959 . S
C595 H580 0.959 . S
C595 H581 0.961 . S
C595 C594 1.502 . S
C596 H582 0.960 . S
C596 H583 0.961 . S
C596 H584 0.959 . S
C596 C594 1.561 . S
C597 C594 1.509 1_556 S
C597 C598 1.434 . S
C597 C602 1.374 1_556 S
C598 C592 1.465 . S
C598 C597 1.434 . S
C598 C599 1.399 . S
C599 H585 0.929 . S
C599 C598 1.399 . S
C599 C600 1.385 . S
C600 H586 0.931 . S
C600 C599 1.385 . S
C600 C601 1.389 . S
C601 C600 1.389 . S
C601 C602 1.387 1_556 S
C602 H587 0.930 . S
C602 C597 1.374 1_554 S
C602 C601 1.387 1_554 S
H603 C615 0.930 . S
H604 C617 0.930 . S
H605 C618 0.930 . S
H606 C622 0.959 1_556 S
H607 C622 0.959 . S
H608 C622 0.961 . S
H609 C623 0.960 . S
H610 C623 0.961 1_554 S
H611 C623 0.959 . S
H612 C626 0.929 . S
H613 C627 0.931 . S
H614 C629 0.930 . S
C615 H603 0.930 . S
C615 C616 1.399 . S
C615 C620 1.399 . S
C616 C615 1.399 . S
C616 C617 1.376 . S
C617 H604 0.930 . S
C617 C616 1.376 . S
C617 C618 1.388 . S
C618 H605 0.930 . S
C618 C617 1.388 . S
C618 C619 1.390 . S
C619 C618 1.390 . S
C619 C620 1.394 . S
C619 C625 1.465 . S
C620 C615 1.399 . S
C620 C619 1.394 . S
C620 C621 1.516 . S
C621 C620 1.516 . S
C621 C622 1.502 1_556 S
C621 C623 1.561 . S
C621 C624 1.526 . S
C622 H606 0.959 1_554 S
C622 H607 0.959 . S
C622 H608 0.961 . S
C622 C621 1.502 1_554 S
C623 H609 0.960 . S
C623 H610 0.961 1_556 S
C623 H611 0.959 . S
C623 C621 1.561 . S
C624 C621 1.526 . S
C624 C625 1.396 . S
C624 C629 1.390 . S
C625 C619 1.465 . S
C625 C624 1.396 . S
C625 C626 1.399 . S
C626 H612 0.929 . S
C626 C625 1.399 . S
C626 C627 1.385 . S
C627 H613 0.931 . S
C627 C626 1.385 . S
C627 C628 1.389 . S
C628 C627 1.389 . S
C628 C629 1.387 . S
C629 H614 0.930 . S
C629 C624 1.390 . S
C629 C628 1.387 . S
H630 C642 0.930 . S
H631 C644 0.930 . S
H632 C645 0.930 . S
H633 C649 0.959 . S
H634 C649 0.959 . S
H635 C649 0.961 . S
H636 C650 0.960 . S
H637 C650 0.961 . S
H638 C650 0.959 . S
H639 C653 0.929 . S
H640 C654 0.931 . S
H641 C656 0.930 . S
C642 H630 0.930 . S
C642 C643 1.399 1_554 S
C642 C647 1.399 . S
C643 C642 1.399 1_556 S
C643 C644 1.376 . S
C644 H631 0.930 . S
C644 C643 1.376 . S
C644 C645 1.388 . S
C645 H632 0.930 . S
C645 C644 1.388 . S
C645 C646 1.390 . S
C646 C645 1.390 . S
C646 C647 1.394 1_556 S
C646 C652 1.465 . S
C647 C642 1.399 . S
C647 C646 1.394 1_554 S
C647 C648 1.516 . S
C648 C647 1.516 . S
C648 C649 1.502 . S
C648 C650 1.561 . S
C648 C651 1.526 . S
C649 H633 0.959 . S
C649 H634 0.959 . S
C649 H635 0.961 . S
C649 C648 1.502 . S
C650 H636 0.960 . S
C650 H637 0.961 . S
C650 H638 0.959 . S
C650 C648 1.561 . S
C651 C648 1.526 . S
C651 C652 1.396 1_554 S
C651 C656 1.390 . S
C652 C646 1.465 . S
C652 C651 1.396 1_556 S
C652 C653 1.399 . S
C653 H639 0.929 . S
C653 C652 1.399 . S
C653 C654 1.385 . S
C654 H640 0.931 . S
C654 C653 1.385 . S
C654 C655 1.389 1_556 S
C655 C654 1.389 1_554 S
C655 C656 1.387 . S
C656 H641 0.930 . S
C656 C651 1.390 . S
C656 C655 1.387 . S
H657 C669 0.930 . S
H658 C671 0.930 . S
H659 C672 0.930 . S
H660 C676 0.959 . S
H661 C676 0.959 . S
H662 C676 0.961 . S
H663 C677 0.960 . S
H664 C677 0.961 . S
H665 C677 0.959 . S
H666 C680 0.929 . S
H667 C681 0.931 . S
H668 C683 0.930 . S
C669 H657 0.930 . S
C669 C670 1.399 . S
C669 C674 1.399 . S
C670 C669 1.399 . S
C670 C671 1.376 . S
C671 H658 0.930 . S
C671 C670 1.376 . S
C671 C672 1.388 . S
C672 H659 0.930 . S
C672 C671 1.388 . S
C672 C673 1.390 . S
C673 C672 1.390 . S
C673 C674 1.394 . S
C673 C679 1.465 . S
C674 C669 1.399 . S
C674 C673 1.394 . S
C674 C675 1.516 . S
C675 C674 1.516 . S
C675 C676 1.502 . S
C675 C677 1.561 . S
C675 C678 1.526 . S
C676 H660 0.959 . S
C676 H661 0.959 . S
C676 H662 0.961 . S
C676 C675 1.502 . S
C677 H663 0.960 . S
C677 H664 0.961 . S
C677 H665 0.959 . S
C677 C675 1.561 . S
C678 C675 1.526 . S
C678 C679 1.396 . S
C678 C683 1.390 . S
C679 C673 1.465 . S
C679 C678 1.396 . S
C679 C680 1.399 . S
C680 H666 0.929 . S
C680 C679 1.399 . S
C680 C681 1.385 . S
C681 H667 0.931 . S
C681 C680 1.385 . S
C681 C682 1.389 . S
C682 C681 1.389 . S
C682 C683 1.387 . S
C683 H668 0.930 . S
C683 C678 1.390 . S
C683 C682 1.387 . S
H684 C696 0.930 . S
H685 C698 0.930 . S
H686 C699 0.930 . S
H687 C703 0.959 . S
H688 C703 0.959 . S
H689 C703 0.961 . S
H690 C704 0.960 . S
H691 C704 0.961 . S
H692 C704 0.959 . S
H693 C707 0.929 . S
H694 C708 0.931 . S
H695 C710 0.930 . S
C696 H684 0.930 . S
C696 C697 1.399 . S
C696 C701 1.399 . S
C697 C696 1.399 . S
C697 C698 1.376 . S
C698 H685 0.930 . S
C698 C697 1.376 . S
C698 C699 1.388 . S
C699 H686 0.930 . S
C699 C698 1.388 . S
C699 C700 1.390 . S
C700 C699 1.390 . S
C700 C701 1.394 . S
C700 C706 1.465 . S
C701 C696 1.399 . S
C701 C700 1.394 . S
C701 C702 1.516 . S
C702 C701 1.516 . S
C702 C703 1.502 . S
C702 C704 1.561 . S
C702 C705 1.526 . S
C703 H687 0.959 . S
C703 H688 0.959 . S
C703 H689 0.961 . S
C703 C702 1.502 . S
C704 H690 0.960 . S
C704 H691 0.961 . S
C704 H692 0.959 . S
C704 C702 1.561 . S
C705 C702 1.526 . S
C705 C706 1.396 . S
C705 C710 1.390 . S
C706 C700 1.465 . S
C706 C705 1.396 . S
C706 C707 1.399 . S
C707 H693 0.929 . S
C707 C706 1.399 . S
C707 C708 1.385 . S
C708 H694 0.931 . S
C708 C707 1.385 . S
C708 C709 1.389 . S
C709 C708 1.389 . S
C709 C710 1.387 . S
C710 H695 0.930 . S
C710 C705 1.390 . S
C710 C709 1.387 . S
H711 C723 0.930 . S
H712 C725 0.930 . S
H713 C726 0.930 . S
H714 C730 0.959 1_556 S
H715 C730 0.959 . S
H716 C730 0.961 . S
H717 C731 0.960 . S
H718 C731 0.961 . S
H719 C731 0.959 . S
H720 C734 0.929 . S
H721 C735 0.931 . S
H722 C737 0.930 . S
C723 H711 0.930 . S
C723 C724 1.399 . S
C723 C728 1.399 . S
C724 C723 1.399 . S
C724 C725 1.376 . S
C725 H712 0.930 . S
C725 C724 1.376 . S
C725 C726 1.388 . S
C726 H713 0.930 . S
C726 C725 1.388 . S
C726 C727 1.390 . S
C727 C726 1.390 . S
C727 C728 1.394 . S
C727 C733 1.465 . S
C728 C723 1.399 . S
C728 C727 1.394 . S
C728 C729 1.516 . S
C729 C728 1.516 . S
C729 C730 1.502 . S
C729 C731 1.561 . S
C729 C732 1.526 . S
C730 H714 0.959 1_554 S
C730 H715 0.959 . S
C730 H716 0.961 . S
C730 C729 1.502 . S
C731 H717 0.960 . S
C731 H718 0.961 . S
C731 H719 0.959 . S
C731 C729 1.561 . S
C732 C729 1.526 . S
C732 C733 1.396 . S
C732 C737 1.390 . S
C733 C727 1.465 . S
C733 C732 1.396 . S
C733 C734 1.399 . S
C734 H720 0.929 . S
C734 C733 1.399 . S
C734 C735 1.385 . S
C735 H721 0.931 . S
C735 C734 1.385 . S
C735 C736 1.389 . S
C736 C735 1.389 . S
C736 C737 1.387 . S
C737 H722 0.930 . S
C737 C732 1.390 . S
C737 C736 1.387 . S
H738 C750 0.930 . S
H739 C752 0.930 . S
H740 C753 0.930 . S
H741 C757 0.965 . S
H742 C757 0.949 1_455 S
H743 C757 0.974 . S
H744 C758 0.960 1_655 S
H745 C758 0.961 . S
H746 C758 0.959 . S
H747 C761 0.929 . S
H748 C762 0.931 . S
H749 C764 0.930 . S
C750 H738 0.930 . S
C750 C751 1.399 . S
C750 C755 1.399 . S
C751 C750 1.399 . S
C751 C752 1.376 . S
C752 H739 0.930 . S
C752 C751 1.376 . S
C752 C753 1.388 . S
C753 H740 0.930 . S
C753 C752 1.388 . S
C753 C754 1.390 . S
C754 C753 1.390 . S
C754 C755 1.394 . S
C754 C760 1.465 1_655 S
C755 C750 1.399 . S
C755 C754 1.394 . S
C755 C756 1.508 1_655 S
C756 C755 1.508 1_455 S
C756 C757 1.487 1_455 S
C756 C758 1.567 . S
C756 C759 1.536 . S
C757 H741 0.965 . S
C757 H742 0.949 1_655 S
C757 H743 0.974 . S
C757 C756 1.487 1_655 S
C758 H744 0.960 1_455 S
C758 H745 0.961 . S
C758 H746 0.959 . S
C758 C756 1.567 . S
C759 C756 1.536 . S
C759 C760 1.396 . S
C759 C764 1.390 . S
C760 C754 1.465 1_455 S
C760 C759 1.396 . S
C760 C761 1.399 . S
C761 H747 0.929 . S
C761 C760 1.399 . S
C761 C762 1.385 . S
C762 H748 0.931 . S
C762 C761 1.385 . S
C762 C763 1.389 . S
C763 C762 1.389 . S
C763 C764 1.387 . S
C764 H749 0.930 . S
C764 C759 1.390 . S
C764 C763 1.387 . S
H765 C777 0.930 . S
H766 C779 0.930 . S
H767 C780 0.930 . S
H768 C784 0.959 . S
H769 C784 0.959 . S
H770 C784 0.961 . S
H771 C785 0.960 . S
H772 C785 0.961 . S
H773 C785 0.959 . S
H774 C788 0.929 . S
H775 C789 0.931 . S
H776 C791 0.930 . S
C777 H765 0.930 . S
C777 C778 1.399 . S
C777 C782 1.399 . S
C778 C777 1.399 . S
C778 C779 1.376 . S
C779 H766 0.930 . S
C779 C778 1.376 . S
C779 C780 1.388 . S
C780 H767 0.930 . S
C780 C779 1.388 . S
C780 C781 1.390 . S
C781 C780 1.390 . S
C781 C782 1.394 . S
C781 C787 1.465 . S
C782 C777 1.399 . S
C782 C781 1.394 . S
C782 C783 1.516 . S
C783 C782 1.516 . S
C783 C784 1.502 . S
C783 C785 1.561 . S
C783 C786 1.526 . S
C784 H768 0.959 . S
C784 H769 0.959 . S
C784 H770 0.961 . S
C784 C783 1.502 . S
C785 H771 0.960 . S
C785 H772 0.961 . S
C785 H773 0.959 . S
C785 C783 1.561 . S
C786 C783 1.526 . S
C786 C787 1.396 . S
C786 C791 1.390 . S
C787 C781 1.465 . S
C787 C786 1.396 . S
C787 C788 1.399 . S
C788 H774 0.929 . S
C788 C787 1.399 . S
C788 C789 1.385 . S
C789 H775 0.931 . S
C789 C788 1.385 . S
C789 C790 1.389 . S
C790 C789 1.389 . S
C790 C791 1.387 . S
C791 H776 0.930 . S
C791 C786 1.390 . S
C791 C790 1.387 . S
H792 C804 0.930 . S
H793 C806 0.930 . S
H794 C807 0.930 . S
H795 C811 0.959 . S
H796 C811 0.959 . S
H797 C811 0.961 1_545 S
H798 C812 0.960 . S
H799 C812 0.961 1_565 S
H800 C812 0.959 . S
H801 C815 0.929 . S
H802 C816 0.931 . S
H803 C818 0.930 . S
C804 H792 0.930 . S
C804 C805 1.399 . S
C804 C809 1.399 . S
C805 C804 1.399 . S
C805 C806 1.376 . S
C806 H793 0.930 . S
C806 C805 1.376 . S
C806 C807 1.388 . S
C807 H794 0.930 . S
C807 C806 1.388 . S
C807 C808 1.390 . S
C808 C807 1.390 . S
C808 C809 1.394 . S
C808 C814 1.465 1_545 S
C809 C804 1.399 . S
C809 C808 1.394 . S
C809 C810 1.516 1_545 S
C810 C809 1.516 1_565 S
C810 C811 1.502 . S
C810 C812 1.561 1_565 S
C810 C813 1.526 . S
C811 H795 0.959 . S
C811 H796 0.959 . S
C811 H797 0.961 1_565 S
C811 C810 1.502 . S
C812 H798 0.960 . S
C812 H799 0.961 1_545 S
C812 H800 0.959 . S
C812 C810 1.561 1_545 S
C813 C810 1.526 . S
C813 C814 1.396 . S
C813 C818 1.390 . S
C814 C808 1.465 1_565 S
C814 C813 1.396 . S
C814 C815 1.399 . S
C815 H801 0.929 . S
C815 C814 1.399 . S
C815 C816 1.385 . S
C816 H802 0.931 . S
C816 C815 1.385 . S
C816 C817 1.389 . S
C817 C816 1.389 . S
C817 C818 1.387 . S
C818 H803 0.930 . S
C818 C813 1.390 . S
C818 C817 1.387 . S
H819 C831 0.930 . S
H820 C833 0.930 . S
H821 C834 0.930 . S
H822 C838 0.959 . S
H823 C838 0.959 . S
H824 C838 0.961 . S
H825 C839 0.960 . S
H826 C839 0.961 . S
H827 C839 0.959 . S
H828 C842 0.929 . S
H829 C843 0.931 . S
H830 C845 0.930 . S
C831 H819 0.930 . S
C831 C832 1.399 . S
C831 C836 1.399 . S
C832 C831 1.399 . S
C832 C833 1.376 . S
C833 H820 0.930 . S
C833 C832 1.376 . S
C833 C834 1.388 . S
C834 H821 0.930 . S
C834 C833 1.388 . S
C834 C835 1.390 . S
C835 C834 1.390 . S
C835 C836 1.394 . S
C835 C841 1.465 . S
C836 C831 1.399 . S
C836 C835 1.394 . S
C836 C837 1.516 . S
C837 C836 1.516 . S
C837 C838 1.502 . S
C837 C839 1.561 . S
C837 C840 1.526 . S
C838 H822 0.959 . S
C838 H823 0.959 . S
C838 H824 0.961 . S
C838 C837 1.502 . S
C839 H825 0.960 . S
C839 H826 0.961 . S
C839 H827 0.959 . S
C839 C837 1.561 . S
C840 C837 1.526 . S
C840 C841 1.396 . S
C840 C845 1.390 . S
C841 C835 1.465 . S
C841 C840 1.396 . S
C841 C842 1.399 . S
C842 H828 0.929 . S
C842 C841 1.399 . S
C842 C843 1.385 . S
C843 H829 0.931 . S
C843 C842 1.385 . S
C843 C844 1.389 . S
C844 C843 1.389 . S
C844 C845 1.387 . S
C845 H830 0.930 . S
C845 C840 1.390 . S
C845 C844 1.387 . S
H846 C858 0.930 . S
H847 C860 0.930 . S
H848 C861 0.930 . S
H849 C865 0.959 . S
H850 C865 0.959 . S
H851 C865 0.961 . S
H852 C866 0.960 . S
H853 C866 0.961 . S
H854 C866 0.959 . S
H855 C869 0.929 . S
H856 C870 0.931 . S
H857 C872 0.930 . S
C858 H846 0.930 . S
C858 C859 1.399 . S
C858 C863 1.399 . S
C859 C858 1.399 . S
C859 C860 1.376 . S
C860 H847 0.930 . S
C860 C859 1.376 . S
C860 C861 1.388 . S
C861 H848 0.930 . S
C861 C860 1.388 . S
C861 C862 1.390 . S
C862 C861 1.390 . S
C862 C863 1.394 . S
C862 C868 1.465 . S
C863 C858 1.399 . S
C863 C862 1.394 . S
C863 C864 1.516 . S
C864 C863 1.516 . S
C864 C865 1.502 . S
C864 C866 1.561 . S
C864 C867 1.526 . S
C865 H849 0.959 . S
C865 H850 0.959 . S
C865 H851 0.961 . S
C865 C864 1.502 . S
C866 H852 0.960 . S
C866 H853 0.961 . S
C866 H854 0.959 . S
C866 C864 1.561 . S
C867 C864 1.526 . S
C867 C868 1.396 . S
C867 C872 1.390 . S
C868 C862 1.465 . S
C868 C867 1.396 . S
C868 C869 1.399 . S
C869 H855 0.929 . S
C869 C868 1.399 . S
C869 C870 1.385 . S
C870 H856 0.931 . S
C870 C869 1.385 . S
C870 C871 1.389 . S
C871 C870 1.389 . S
C871 C872 1.387 . S
C872 H857 0.930 . S
C872 C867 1.390 . S
C872 C871 1.387 . S
H873 C885 0.930 . S
H874 C887 0.930 . S
H875 C888 0.930 . S
H876 C892 0.959 . S
H877 C892 0.959 . S
H878 C892 0.961 . S
H879 C893 0.960 . S
H880 C893 0.961 . S
H881 C893 0.959 . S
H882 C896 0.929 . S
H883 C897 0.931 . S
H884 C899 0.930 . S
C885 H873 0.930 . S
C885 C886 1.399 . S
C885 C890 1.399 . S
C886 C885 1.399 . S
C886 C887 1.376 . S
C887 H874 0.930 . S
C887 C886 1.376 . S
C887 C888 1.388 . S
C888 H875 0.930 . S
C888 C887 1.388 . S
C888 C889 1.390 . S
C889 C888 1.390 . S
C889 C890 1.394 . S
C889 C895 1.465 . S
C890 C885 1.399 . S
C890 C889 1.394 . S
C890 C891 1.516 . S
C891 C890 1.516 . S
C891 C892 1.502 . S
C891 C893 1.561 . S
C891 C894 1.526 . S
C892 H876 0.959 . S
C892 H877 0.959 . S
C892 H878 0.961 . S
C892 C891 1.502 . S
C893 H879 0.960 . S
C893 H880 0.961 . S
C893 H881 0.959 . S
C893 C891 1.561 . S
C894 C891 1.526 . S
C894 C895 1.396 . S
C894 C899 1.390 . S
C895 C889 1.465 . S
C895 C894 1.396 . S
C895 C896 1.399 . S
C896 H882 0.929 . S
C896 C895 1.399 . S
C896 C897 1.385 . S
C897 H883 0.931 . S
C897 C896 1.385 . S
C897 C898 1.389 . S
C898 C897 1.389 . S
C898 C899 1.387 . S
C899 H884 0.930 . S
C899 C894 1.390 . S
C899 C898 1.387 . S
H900 C912 0.930 . S
H901 C914 0.930 . S
H902 C915 0.930 . S
H903 C919 0.959 . S
H904 C919 0.959 . S
H905 C919 0.961 . S
H906 C920 0.960 . S
H907 C920 0.961 . S
H908 C920 0.959 . S
H909 C923 0.929 . S
H910 C924 0.931 . S
H911 C926 0.930 . S
C912 H900 0.930 . S
C912 C913 1.399 . S
C912 C917 1.399 . S
C913 C912 1.399 . S
C913 C914 1.376 . S
C914 H901 0.930 . S
C914 C913 1.376 . S
C914 C915 1.388 . S
C915 H902 0.930 . S
C915 C914 1.388 . S
C915 C916 1.390 . S
C916 C915 1.390 . S
C916 C917 1.394 . S
C916 C922 1.465 . S
C917 C912 1.399 . S
C917 C916 1.394 . S
C917 C918 1.516 . S
C918 C917 1.516 . S
C918 C919 1.502 . S
C918 C920 1.561 . S
C918 C921 1.526 . S
C919 H903 0.959 . S
C919 H904 0.959 . S
C919 H905 0.961 . S
C919 C918 1.502 . S
C920 H906 0.960 . S
C920 H907 0.961 . S
C920 H908 0.959 . S
C920 C918 1.561 . S
C921 C918 1.526 . S
C921 C922 1.396 . S
C921 C926 1.390 . S
C922 C916 1.465 . S
C922 C921 1.396 . S
C922 C923 1.399 . S
C923 H909 0.929 . S
C923 C922 1.399 . S
C923 C924 1.385 . S
C924 H910 0.931 . S
C924 C923 1.385 . S
C924 C925 1.389 . S
C925 C924 1.389 . S
C925 C926 1.387 . S
C926 H911 0.930 . S
C926 C921 1.390 . S
C926 C925 1.387 . S
H927 C939 0.930 . S
H928 C941 0.930 . S
H929 C942 0.930 . S
H930 C946 0.959 . S
H931 C946 0.959 . S
H932 C946 0.961 . S
H933 C947 0.960 . S
H934 C947 0.961 . S
H935 C947 0.959 . S
H936 C950 0.929 . S
H937 C951 0.931 . S
H938 C953 0.930 . S
C939 H927 0.930 . S
C939 C940 1.399 . S
C939 C944 1.399 . S
C940 C939 1.399 . S
C940 C941 1.376 . S
C941 H928 0.930 . S
C941 C940 1.376 . S
C941 C942 1.388 . S
C942 H929 0.930 . S
C942 C941 1.388 . S
C942 C943 1.390 . S
C943 C942 1.390 . S
C943 C944 1.394 . S
C943 C949 1.465 . S
C944 C939 1.399 . S
C944 C943 1.394 . S
C944 C945 1.516 . S
C945 C944 1.516 . S
C945 C946 1.502 . S
C945 C947 1.561 . S
C945 C948 1.526 . S
C946 H930 0.959 . S
C946 H931 0.959 . S
C946 H932 0.961 . S
C946 C945 1.502 . S
C947 H933 0.960 . S
C947 H934 0.961 . S
C947 H935 0.959 . S
C947 C945 1.561 . S
C948 C945 1.526 . S
C948 C949 1.396 . S
C948 C953 1.390 . S
C949 C943 1.465 . S
C949 C948 1.396 . S
C949 C950 1.399 . S
C950 H936 0.929 . S
C950 C949 1.399 . S
C950 C951 1.385 . S
C951 H937 0.931 . S
C951 C950 1.385 . S
C951 C952 1.389 . S
C952 C951 1.389 . S
C952 C953 1.387 . S
C953 H938 0.930 . S
C953 C948 1.390 . S
C953 C952 1.387 . S
H954 C966 0.930 . S
H955 C968 0.930 . S
H956 C969 0.930 . S
H957 C973 0.959 . S
H958 C973 0.959 . S
H959 C973 0.961 . S
H960 C974 0.960 . S
H961 C974 0.961 . S
H962 C974 0.959 . S
H963 C977 0.929 . S
H964 C978 0.931 . S
H965 C980 0.930 . S
C966 H954 0.930 . S
C966 C967 1.399 . S
C966 C971 1.399 . S
C967 C966 1.399 . S
C967 C968 1.376 . S
C968 H955 0.930 . S
C968 C967 1.376 . S
C968 C969 1.388 . S
C969 H956 0.930 . S
C969 C968 1.388 . S
C969 C970 1.390 . S
C970 C969 1.390 . S
C970 C971 1.394 . S
C970 C976 1.465 . S
C971 C966 1.399 . S
C971 C970 1.394 . S
C971 C972 1.516 . S
C972 C971 1.516 . S
C972 C973 1.502 . S
C972 C974 1.561 . S
C972 C975 1.526 . S
C973 H957 0.959 . S
C973 H958 0.959 . S
C973 H959 0.961 . S
C973 C972 1.502 . S
C974 H960 0.960 . S
C974 H961 0.961 . S
C974 H962 0.959 . S
C974 C972 1.561 . S
C975 C972 1.526 . S
C975 C976 1.396 . S
C975 C980 1.390 . S
C976 C970 1.465 . S
C976 C975 1.396 . S
C976 C977 1.399 . S
C977 H963 0.929 . S
C977 C976 1.399 . S
C977 C978 1.385 . S
C978 H964 0.931 . S
C978 C977 1.385 . S
C978 C979 1.389 . S
C979 C978 1.389 . S
C979 C980 1.387 . S
C980 H965 0.930 . S
C980 C975 1.390 . S
C980 C979 1.387 . S
H981 C993 0.930 . S
H982 C995 0.930 . S
H983 C996 0.930 . S
H984 C1000 0.959 . S
H985 C1000 0.959 . S
H986 C1000 0.961 . S
H987 C1001 0.960 1_545 S
H988 C1001 0.961 . S
H989 C1001 0.959 . S
H990 C1004 0.926 . S
H991 C1005 0.931 . S
H992 C1007 0.930 . S
C993 H981 0.930 . S
C993 C994 1.399 . S
C993 C998 1.399 . S
C994 C993 1.399 . S
C994 C995 1.376 . S
C995 H982 0.930 . S
C995 C994 1.376 . S
C995 C996 1.388 . S
C996 H983 0.930 . S
C996 C995 1.388 . S
C996 C997 1.390 . S
C997 C996 1.390 . S
C997 C998 1.394 . S
C997 C1003 1.465 1_545 S
C998 C993 1.399 . S
C998 C997 1.394 . S
C998 C999 1.516 1_545 S
C999 C998 1.516 1_565 S
C999 C1000 1.502 . S
C999 C1001 1.561 . S
C999 C1002 1.526 . S
C1000 H984 0.959 . S
C1000 H985 0.959 . S
C1000 H986 0.961 . S
C1000 C999 1.502 . S
C1001 H987 0.960 1_565 S
C1001 H988 0.961 . S
C1001 H989 0.959 . S
C1001 C999 1.561 . S
C1002 C999 1.526 . S
C1002 C1003 1.396 . S
C1002 C1007 1.390 . S
C1003 C997 1.465 1_565 S
C1003 C1002 1.396 . S
C1003 C1004 1.399 . S
C1004 H990 0.926 . S
C1004 C1003 1.399 . S
C1004 C1005 1.385 . S
C1005 H991 0.931 . S
C1005 C1004 1.385 . S
C1005 C1006 1.389 . S
C1006 C1005 1.389 . S
C1006 C1007 1.387 . S
C1007 H992 0.930 . S
C1007 C1002 1.390 . S
C1007 C1006 1.387 . S
H1008 C1020 0.930 . S
H1009 C1022 0.930 . S
H1010 C1023 0.930 . S
H1011 C1027 0.959 1_455 S
H1012 C1027 0.959 1_455 S
H1013 C1027 0.961 . S
H1014 C1028 0.960 . S
H1015 C1028 0.961 . S
H1016 C1028 0.959 . S
H1017 C1031 0.929 . S
H1018 C1032 0.931 . S
H1019 C1034 0.930 . S
C1020 H1008 0.930 . S
C1020 C1021 1.399 . S
C1020 C1025 1.399 . S
C1021 C1020 1.399 . S
C1021 C1022 1.376 . S
C1022 H1009 0.930 . S
C1022 C1021 1.376 . S
C1022 C1023 1.388 . S
C1023 H1010 0.930 . S
C1023 C1022 1.388 . S
C1023 C1024 1.390 . S
C1024 C1023 1.390 . S
C1024 C1025 1.394 . S
C1024 C1030 1.465 1_655 S
C1025 C1020 1.399 . S
C1025 C1024 1.394 . S
C1025 C1026 1.516 . S
C1026 C1025 1.516 . S
C1026 C1027 1.502 . S
C1026 C1028 1.561 . S
C1026 C1029 1.526 1_655 S
C1027 H1011 0.959 1_655 S
C1027 H1012 0.959 1_655 S
C1027 H1013 0.961 . S
C1027 C1026 1.502 . S
C1028 H1014 0.960 . S
C1028 H1015 0.961 . S
C1028 H1016 0.959 . S
C1028 C1026 1.561 . S
C1029 C1026 1.526 1_455 S
C1029 C1030 1.396 . S
C1029 C1034 1.390 . S
C1030 C1024 1.465 1_455 S
C1030 C1029 1.396 . S
C1030 C1031 1.399 . S
C1031 H1017 0.929 . S
C1031 C1030 1.399 . S
C1031 C1032 1.385 . S
C1032 H1018 0.931 . S
C1032 C1031 1.385 . S
C1032 C1033 1.389 . S
C1033 C1032 1.389 . S
C1033 C1034 1.387 . S
C1034 H1019 0.930 . S
C1034 C1029 1.390 . S
C1034 C1033 1.387 . S
H1035 C1047 0.930 . S
H1036 C1049 0.930 . S
H1037 C1050 0.930 . S
H1038 C1054 0.959 . S
H1039 C1054 0.959 . S
H1040 C1054 0.961 . S
H1041 C1055 0.960 . S
H1042 C1055 0.961 . S
H1043 C1055 0.959 . S
H1044 C1058 0.929 . S
H1045 C1059 0.931 . S
H1046 C1061 0.930 . S
C1047 H1035 0.930 . S
C1047 C1048 1.399 . S
C1047 C1052 1.399 . S
C1048 C1047 1.399 . S
C1048 C1049 1.376 . S
C1049 H1036 0.930 . S
C1049 C1048 1.376 . S
C1049 C1050 1.388 . S
C1050 H1037 0.930 . S
C1050 C1049 1.388 . S
C1050 C1051 1.390 . S
C1051 C1050 1.390 . S
C1051 C1052 1.394 . S
C1051 C1057 1.465 . S
C1052 C1047 1.399 . S
C1052 C1051 1.394 . S
C1052 C1053 1.516 . S
C1053 C1052 1.516 . S
C1053 C1054 1.502 . S
C1053 C1055 1.561 . S
C1053 C1056 1.526 . S
C1054 H1038 0.959 . S
C1054 H1039 0.959 . S
C1054 H1040 0.961 . S
C1054 C1053 1.502 . S
C1055 H1041 0.960 . S
C1055 H1042 0.961 . S
C1055 H1043 0.959 . S
C1055 C1053 1.561 . S
C1056 C1053 1.526 . S
C1056 C1057 1.396 . S
C1056 C1061 1.390 . S
C1057 C1051 1.465 . S
C1057 C1056 1.396 . S
C1057 C1058 1.399 . S
C1058 H1044 0.929 . S
C1058 C1057 1.399 . S
C1058 C1059 1.385 . S
C1059 H1045 0.931 . S
C1059 C1058 1.385 . S
C1059 C1060 1.389 . S
C1060 C1059 1.389 . S
C1060 C1061 1.387 . S
C1061 H1046 0.930 . S
C1061 C1056 1.390 . S
C1061 C1060 1.387 . S
H1062 C1074 0.930 . S
H1063 C1076 0.930 . S
H1064 C1077 0.930 . S
H1065 C1081 0.959 . S
H1066 C1081 0.959 . S
H1067 C1081 0.961 . S
H1068 C1082 0.960 . S
H1069 C1082 0.961 . S
H1070 C1082 0.959 . S
H1071 C1085 0.929 . S
H1072 C1086 0.931 . S
H1073 C1088 0.930 . S
C1074 H1062 0.930 . S
C1074 C1075 1.399 . S
C1074 C1079 1.399 . S
C1075 C1074 1.399 . S
C1075 C1076 1.376 . S
C1076 H1063 0.930 . S
C1076 C1075 1.376 . S
C1076 C1077 1.388 . S
C1077 H1064 0.930 . S
C1077 C1076 1.388 . S
C1077 C1078 1.390 . S
C1078 C1077 1.390 . S
C1078 C1079 1.394 . S
C1078 C1084 1.465 . S
C1079 C1074 1.399 . S
C1079 C1078 1.394 . S
C1079 C1080 1.516 . S
C1080 C1079 1.516 . S
C1080 C1081 1.502 . S
C1080 C1082 1.561 . S
C1080 C1083 1.526 . S
C1081 H1065 0.959 . S
C1081 H1066 0.959 . S
C1081 H1067 0.961 . S
C1081 C1080 1.502 . S
C1082 H1068 0.960 . S
C1082 H1069 0.961 . S
C1082 H1070 0.959 . S
C1082 C1080 1.561 . S
C1083 C1080 1.526 . S
C1083 C1084 1.396 . S
C1083 C1088 1.390 . S
C1084 C1078 1.465 . S
C1084 C1083 1.396 . S
C1084 C1085 1.399 . S
C1085 H1071 0.929 . S
C1085 C1084 1.399 . S
C1085 C1086 1.385 . S
C1086 H1072 0.931 . S
C1086 C1085 1.385 . S
C1086 C1087 1.389 . S
C1087 C1086 1.389 . S
C1087 C1088 1.387 . S
C1088 H1073 0.930 . S
C1088 C1083 1.390 . S
C1088 C1087 1.387 . S
H1089 C1101 0.930 . S
H1090 C1103 0.930 . S
H1091 C1104 0.930 . S
H1092 C1108 0.959 . S
H1093 C1108 0.959 . S
H1094 C1108 0.961 . S
H1095 C1109 0.960 . S
H1096 C1109 0.961 . S
H1097 C1109 0.959 . S
H1098 C1112 0.929 . S
H1099 C1113 0.931 . S
H1100 C1115 0.930 . S
C1101 H1089 0.930 . S
C1101 C1102 1.399 . S
C1101 C1106 1.399 . S
C1102 C1101 1.399 . S
C1102 C1103 1.376 . S
C1103 H1090 0.930 . S
C1103 C1102 1.376 . S
C1103 C1104 1.388 . S
C1104 H1091 0.930 . S
C1104 C1103 1.388 . S
C1104 C1105 1.390 . S
C1105 C1104 1.390 . S
C1105 C1106 1.394 . S
C1105 C1111 1.465 . S
C1106 C1101 1.399 . S
C1106 C1105 1.394 . S
C1106 C1107 1.516 . S
C1107 C1106 1.516 . S
C1107 C1108 1.502 . S
C1107 C1109 1.561 . S
C1107 C1110 1.526 . S
C1108 H1092 0.959 . S
C1108 H1093 0.959 . S
C1108 H1094 0.961 . S
C1108 C1107 1.502 . S
C1109 H1095 0.960 . S
C1109 H1096 0.961 . S
C1109 H1097 0.959 . S
C1109 C1107 1.561 . S
C1110 C1107 1.526 . S
C1110 C1111 1.396 . S
C1110 C1115 1.390 . S
C1111 C1105 1.465 . S
C1111 C1110 1.396 . S
C1111 C1112 1.399 . S
C1112 H1098 0.929 . S
C1112 C1111 1.399 . S
C1112 C1113 1.385 . S
C1113 H1099 0.931 . S
C1113 C1112 1.385 . S
C1113 C1114 1.389 . S
C1114 C1113 1.389 . S
C1114 C1115 1.387 . S
C1115 H1100 0.930 . S
C1115 C1110 1.390 . S
C1115 C1114 1.387 . S
H1116 C1128 0.930 . S
H1117 C1130 0.930 . S
H1118 C1131 0.930 . S
H1119 C1135 0.959 . S
H1120 C1135 0.959 . S
H1121 C1135 0.961 . S
H1122 C1136 0.960 . S
H1123 C1136 0.961 . S
H1124 C1136 0.959 . S
H1125 C1139 0.929 . S
H1126 C1140 0.931 . S
H1127 C1142 0.930 . S
C1128 H1116 0.930 . S
C1128 C1129 1.399 . S
C1128 C1133 1.399 . S
C1129 C1128 1.399 . S
C1129 C1130 1.376 . S
C1130 H1117 0.930 . S
C1130 C1129 1.376 . S
C1130 C1131 1.388 . S
C1131 H1118 0.930 . S
C1131 C1130 1.388 . S
C1131 C1132 1.390 . S
C1132 C1131 1.390 . S
C1132 C1133 1.394 . S
C1132 C1138 1.465 . S
C1133 C1128 1.399 . S
C1133 C1132 1.394 . S
C1133 C1134 1.516 . S
C1134 C1133 1.516 . S
C1134 C1135 1.502 . S
C1134 C1136 1.561 . S
C1134 C1137 1.526 . S
C1135 H1119 0.959 . S
C1135 H1120 0.959 . S
C1135 H1121 0.961 . S
C1135 C1134 1.502 . S
C1136 H1122 0.960 . S
C1136 H1123 0.961 . S
C1136 H1124 0.959 . S
C1136 C1134 1.561 . S
C1137 C1134 1.526 . S
C1137 C1138 1.396 . S
C1137 C1142 1.390 . S
C1138 C1132 1.465 . S
C1138 C1137 1.396 . S
C1138 C1139 1.399 . S
C1139 H1125 0.929 . S
C1139 C1138 1.399 . S
C1139 C1140 1.385 . S
C1140 H1126 0.931 . S
C1140 C1139 1.385 . S
C1140 C1141 1.389 . S
C1141 C1140 1.389 . S
C1141 C1142 1.387 . S
C1142 H1127 0.930 . S
C1142 C1137 1.390 . S
C1142 C1141 1.387 . S
H1143 C1155 0.930 . S
H1144 C1157 0.930 . S
H1145 C1158 0.930 . S
H1146 C1162 0.959 . S
H1147 C1162 0.959 . S
H1148 C1162 0.961 . S
H1149 C1163 0.960 1_565 S
H1150 C1163 0.961 . S
H1151 C1163 0.959 . S
H1152 C1166 0.929 . S
H1153 C1167 0.931 . S
H1154 C1169 0.930 . S
C1155 H1143 0.930 . S
C1155 C1156 1.399 . S
C1155 C1160 1.424 . S
C1156 C1155 1.399 . S
C1156 C1157 1.376 . S
C1157 H1144 0.930 . S
C1157 C1156 1.376 . S
C1157 C1158 1.388 . S
C1158 H1145 0.930 . S
C1158 C1157 1.388 . S
C1158 C1159 1.390 1_565 S
C1159 C1158 1.390 1_545 S
C1159 C1160 1.395 1_545 S
C1159 C1165 1.465 . S
C1160 C1155 1.424 . S
C1160 C1159 1.395 1_565 S
C1160 C1161 1.490 1_565 S
C1161 C1160 1.490 1_545 S
C1161 C1162 1.502 . S
C1161 C1163 1.561 . S
C1161 C1164 1.526 . S
C1162 H1146 0.959 . S
C1162 H1147 0.959 . S
C1162 H1148 0.961 . S
C1162 C1161 1.502 . S
C1163 H1149 0.960 1_545 S
C1163 H1150 0.961 . S
C1163 H1151 0.959 . S
C1163 C1161 1.561 . S
C1164 C1161 1.526 . S
C1164 C1165 1.396 . S
C1164 C1169 1.390 . S
C1165 C1159 1.465 . S
C1165 C1164 1.396 . S
C1165 C1166 1.399 . S
C1166 H1152 0.929 . S
C1166 C1165 1.399 . S
C1166 C1167 1.385 . S
C1167 H1153 0.931 . S
C1167 C1166 1.385 . S
C1167 C1168 1.389 . S
C1168 C1167 1.389 . S
C1168 C1169 1.387 . S
C1169 H1154 0.930 . S
C1169 C1164 1.390 . S
C1169 C1168 1.387 . S
H1170 C1182 0.930 . S
H1171 C1184 0.930 . S
H1172 C1185 0.930 1_655 S
H1173 C1189 0.959 . S
H1174 C1189 0.959 . S
H1175 C1189 0.961 . S
H1176 C1190 0.960 . S
H1177 C1190 0.961 . S
H1178 C1190 0.959 . S
H1179 C1193 0.929 . S
H1180 C1194 0.931 . S
H1181 C1196 0.930 . S
C1182 H1170 0.930 . S
C1182 C1183 1.399 . S
C1182 C1187 1.399 . S
C1183 C1182 1.399 . S
C1183 C1184 1.376 . S
C1184 H1171 0.930 . S
C1184 C1183 1.376 . S
C1184 C1185 1.388 . S
C1185 H1172 0.930 1_455 S
C1185 C1184 1.388 . S
C1185 C1186 1.390 1_455 S
C1186 C1185 1.390 1_655 S
C1186 C1187 1.394 1_655 S
C1186 C1192 1.465 . S
C1187 C1182 1.399 . S
C1187 C1186 1.394 1_455 S
C1187 C1188 1.516 . S
C1188 C1187 1.516 . S
C1188 C1189 1.502 . S
C1188 C1190 1.561 . S
C1188 C1191 1.526 1_455 S
C1189 H1173 0.959 . S
C1189 H1174 0.959 . S
C1189 H1175 0.961 . S
C1189 C1188 1.502 . S
C1190 H1176 0.960 . S
C1190 H1177 0.961 . S
C1190 H1178 0.959 . S
C1190 C1188 1.561 . S
C1191 C1188 1.526 1_655 S
C1191 C1192 1.396 . S
C1191 C1196 1.390 . S
C1192 C1186 1.465 . S
C1192 C1191 1.396 . S
C1192 C1193 1.399 . S
C1193 H1179 0.929 . S
C1193 C1192 1.399 . S
C1193 C1194 1.385 . S
C1194 H1180 0.931 . S
C1194 C1193 1.385 . S
C1194 C1195 1.389 . S
C1195 C1194 1.389 . S
C1195 C1196 1.387 . S
C1196 H1181 0.930 . S
C1196 C1191 1.390 . S
C1196 C1195 1.387 . S
H1197 C1209 0.930 . S
H1198 C1211 0.930 . S
H1199 C1212 0.930 . S
H1200 C1216 0.959 . S
H1201 C1216 0.959 . S
H1202 C1216 0.961 . S
H1203 C1217 0.960 . S
H1204 C1217 0.961 . S
H1205 C1217 0.959 . S
H1206 C1220 0.929 . S
H1207 C1221 0.931 . S
H1208 C1223 0.930 . S
C1209 H1197 0.930 . S
C1209 C1210 1.399 . S
C1209 C1214 1.399 . S
C1210 C1209 1.399 . S
C1210 C1211 1.376 . S
C1211 H1198 0.930 . S
C1211 C1210 1.376 . S
C1211 C1212 1.388 . S
C1212 H1199 0.930 . S
C1212 C1211 1.388 . S
C1212 C1213 1.390 . S
C1213 C1212 1.390 . S
C1213 C1214 1.394 . S
C1213 C1219 1.465 . S
C1214 C1209 1.399 . S
C1214 C1213 1.394 . S
C1214 C1215 1.516 . S
C1215 C1214 1.516 . S
C1215 C1216 1.502 . S
C1215 C1217 1.561 . S
C1215 C1218 1.526 . S
C1216 H1200 0.959 . S
C1216 H1201 0.959 . S
C1216 H1202 0.961 . S
C1216 C1215 1.502 . S
C1217 H1203 0.960 . S
C1217 H1204 0.961 . S
C1217 H1205 0.959 . S
C1217 C1215 1.561 . S
C1218 C1215 1.526 . S
C1218 C1219 1.396 . S
C1218 C1223 1.390 . S
C1219 C1213 1.465 . S
C1219 C1218 1.396 . S
C1219 C1220 1.399 . S
C1220 H1206 0.929 . S
C1220 C1219 1.399 . S
C1220 C1221 1.385 . S
C1221 H1207 0.931 . S
C1221 C1220 1.385 . S
C1221 C1222 1.389 . S
C1222 C1221 1.389 . S
C1222 C1223 1.387 . S
C1223 H1208 0.930 . S
C1223 C1218 1.390 . S
C1223 C1222 1.387 . S
H1224 C1236 0.930 . S
H1225 C1238 0.930 . S
H1226 C1239 0.930 . S
H1227 C1243 0.959 . S
H1228 C1243 0.959 . S
H1229 C1243 0.961 . S
H1230 C1244 0.960 . S
H1231 C1244 0.961 . S
H1232 C1244 0.959 . S
H1233 C1247 0.929 . S
H1234 C1248 0.931 . S
H1235 C1250 0.930 . S
C1236 H1224 0.930 . S
C1236 C1237 1.399 . S
C1236 C1241 1.399 . S
C1237 C1236 1.399 . S
C1237 C1238 1.376 . S
C1238 H1225 0.930 . S
C1238 C1237 1.376 . S
C1238 C1239 1.388 . S
C1239 H1226 0.930 . S
C1239 C1238 1.388 . S
C1239 C1240 1.390 . S
C1240 C1239 1.390 . S
C1240 C1241 1.394 . S
C1240 C1246 1.465 . S
C1241 C1236 1.399 . S
C1241 C1240 1.394 . S
C1241 C1242 1.516 . S
C1242 C1241 1.516 . S
C1242 C1243 1.502 . S
C1242 C1244 1.561 . S
C1242 C1245 1.526 . S
C1243 H1227 0.959 . S
C1243 H1228 0.959 . S
C1243 H1229 0.961 . S
C1243 C1242 1.502 . S
C1244 H1230 0.960 . S
C1244 H1231 0.961 . S
C1244 H1232 0.959 . S
C1244 C1242 1.561 . S
C1245 C1242 1.526 . S
C1245 C1246 1.396 . S
C1245 C1250 1.390 1_455 S
C1246 C1240 1.465 . S
C1246 C1245 1.396 . S
C1246 C1247 1.399 1_455 S
C1247 H1233 0.929 . S
C1247 C1246 1.399 1_655 S
C1247 C1248 1.385 . S
C1248 H1234 0.931 . S
C1248 C1247 1.385 . S
C1248 C1249 1.389 . S
C1249 C1248 1.389 . S
C1249 C1250 1.387 . S
C1250 H1235 0.930 . S
C1250 C1245 1.390 1_655 S
C1250 C1249 1.387 . S
H1251 C1263 0.930 . S
H1252 C1265 0.930 . S
H1253 C1266 0.930 . S
H1254 C1270 0.959 . S
H1255 C1270 0.959 . S
H1256 C1270 0.961 . S
H1257 C1271 0.960 . S
H1258 C1271 0.961 . S
H1259 C1271 0.959 . S
H1260 C1274 0.929 . S
H1261 C1275 0.931 . S
H1262 C1277 0.930 . S
C1263 H1251 0.930 . S
C1263 C1264 1.399 . S
C1263 C1268 1.399 . S
C1264 C1263 1.399 . S
C1264 C1265 1.376 . S
C1265 H1252 0.930 . S
C1265 C1264 1.376 . S
C1265 C1266 1.388 . S
C1266 H1253 0.930 . S
C1266 C1265 1.388 . S
C1266 C1267 1.390 . S
C1267 C1266 1.390 . S
C1267 C1268 1.394 . S
C1267 C1273 1.465 . S
C1268 C1263 1.399 . S
C1268 C1267 1.394 . S
C1268 C1269 1.516 . S
C1269 C1268 1.516 . S
C1269 C1270 1.502 . S
C1269 C1271 1.561 . S
C1269 C1272 1.526 . S
C1270 H1254 0.959 . S
C1270 H1255 0.959 . S
C1270 H1256 0.961 . S
C1270 C1269 1.502 . S
C1271 H1257 0.960 . S
C1271 H1258 0.961 . S
C1271 H1259 0.959 . S
C1271 C1269 1.561 . S
C1272 C1269 1.526 . S
C1272 C1273 1.396 . S
C1272 C1277 1.390 . S
C1273 C1267 1.465 . S
C1273 C1272 1.396 . S
C1273 C1274 1.399 . S
C1274 H1260 0.929 . S
C1274 C1273 1.399 . S
C1274 C1275 1.385 . S
C1275 H1261 0.931 . S
C1275 C1274 1.385 . S
C1275 C1276 1.389 . S
C1276 C1275 1.389 . S
C1276 C1277 1.387 . S
C1277 H1262 0.930 . S
C1277 C1272 1.390 . S
C1277 C1276 1.387 . S
H1278 C1290 0.930 . S
H1279 C1292 0.930 . S
H1280 C1293 0.930 . S
H1281 C1297 0.959 . S
H1282 C1297 0.959 . S
H1283 C1297 0.961 . S
H1284 C1298 0.960 . S
H1285 C1298 0.961 . S
H1286 C1298 0.959 . S
H1287 C1301 0.929 . S
H1288 C1302 0.931 . S
H1289 C1304 0.930 . S
C1290 H1278 0.930 . S
C1290 C1291 1.399 . S
C1290 C1295 1.399 . S
C1291 C1290 1.399 . S
C1291 C1292 1.376 . S
C1292 H1279 0.930 . S
C1292 C1291 1.376 . S
C1292 C1293 1.388 . S
C1293 H1280 0.930 . S
C1293 C1292 1.388 . S
C1293 C1294 1.390 . S
C1294 C1293 1.390 . S
C1294 C1295 1.394 . S
C1294 C1300 1.465 1_565 S
C1295 C1290 1.399 . S
C1295 C1294 1.394 . S
C1295 C1296 1.516 1_565 S
C1296 C1295 1.516 1_545 S
C1296 C1297 1.502 . S
C1296 C1298 1.561 . S
C1296 C1299 1.526 . S
C1297 H1281 0.959 . S
C1297 H1282 0.959 . S
C1297 H1283 0.961 . S
C1297 C1296 1.502 . S
C1298 H1284 0.960 . S
C1298 H1285 0.961 . S
C1298 H1286 0.959 . S
C1298 C1296 1.561 . S
C1299 C1296 1.526 . S
C1299 C1300 1.396 . S
C1299 C1304 1.390 . S
C1300 C1294 1.465 1_545 S
C1300 C1299 1.396 . S
C1300 C1301 1.399 . S
C1301 H1287 0.929 . S
C1301 C1300 1.399 . S
C1301 C1302 1.385 . S
C1302 H1288 0.931 . S
C1302 C1301 1.385 . S
C1302 C1303 1.389 . S
C1303 C1302 1.389 . S
C1303 C1304 1.387 . S
C1304 H1289 0.930 . S
C1304 C1299 1.390 . S
C1304 C1303 1.387 . S
H1305 C1317 0.930 . S
H1306 C1319 0.930 . S
H1307 C1320 0.930 . S
H1308 C1324 0.959 . S
H1309 C1324 0.959 . S
H1310 C1324 0.961 . S
H1311 C1325 0.960 . S
H1312 C1325 0.961 . S
H1313 C1325 0.959 . S
H1314 C1328 0.929 . S
H1315 C1329 0.931 . S
H1316 C1331 0.930 . S
C1317 H1305 0.930 . S
C1317 C1318 1.399 . S
C1317 C1322 1.399 . S
C1318 C1317 1.399 . S
C1318 C1319 1.376 . S
C1319 H1306 0.930 . S
C1319 C1318 1.376 . S
C1319 C1320 1.388 . S
C1320 H1307 0.930 . S
C1320 C1319 1.388 . S
C1320 C1321 1.390 . S
C1321 C1320 1.390 . S
C1321 C1322 1.394 . S
C1321 C1327 1.465 . S
C1322 C1317 1.399 . S
C1322 C1321 1.394 . S
C1322 C1323 1.516 . S
C1323 C1322 1.516 . S
C1323 C1324 1.502 . S
C1323 C1325 1.561 . S
C1323 C1326 1.526 . S
C1324 H1308 0.959 . S
C1324 H1309 0.959 . S
C1324 H1310 0.961 . S
C1324 C1323 1.502 . S
C1325 H1311 0.960 . S
C1325 H1312 0.961 . S
C1325 H1313 0.959 . S
C1325 C1323 1.561 . S
C1326 C1323 1.526 . S
C1326 C1327 1.396 . S
C1326 C1331 1.390 . S
C1327 C1321 1.465 . S
C1327 C1326 1.396 . S
C1327 C1328 1.399 . S
C1328 H1314 0.929 . S
C1328 C1327 1.399 . S
C1328 C1329 1.385 . S
C1329 H1315 0.931 . S
C1329 C1328 1.385 . S
C1329 C1330 1.389 . S
C1330 C1329 1.389 . S
C1330 C1331 1.387 . S
C1331 H1316 0.930 . S
C1331 C1326 1.390 . S
C1331 C1330 1.387 . S
H1332 C1344 0.930 . S
H1333 C1346 0.930 . S
H1334 C1347 0.930 . S
H1335 C1351 0.959 . S
H1336 C1351 0.959 . S
H1337 C1351 0.961 . S
H1338 C1352 0.960 . S
H1339 C1352 0.961 . S
H1340 C1352 0.959 . S
H1341 C1355 0.929 . S
H1342 C1356 0.931 . S
H1343 C1358 0.930 . S
C1344 H1332 0.930 . S
C1344 C1345 1.399 . S
C1344 C1349 1.399 . S
C1345 C1344 1.399 . S
C1345 C1346 1.376 . S
C1346 H1333 0.930 . S
C1346 C1345 1.376 . S
C1346 C1347 1.388 . S
C1347 H1334 0.930 . S
C1347 C1346 1.388 . S
C1347 C1348 1.390 . S
C1348 C1347 1.390 . S
C1348 C1349 1.394 . S
C1348 C1354 1.465 . S
C1349 C1344 1.399 . S
C1349 C1348 1.394 . S
C1349 C1350 1.516 . S
C1350 C1349 1.516 . S
C1350 C1351 1.502 . S
C1350 C1352 1.561 . S
C1350 C1353 1.526 . S
C1351 H1335 0.959 . S
C1351 H1336 0.959 . S
C1351 H1337 0.961 . S
C1351 C1350 1.502 . S
C1352 H1338 0.960 . S
C1352 H1339 0.961 . S
C1352 H1340 0.959 . S
C1352 C1350 1.561 . S
C1353 C1350 1.526 . S
C1353 C1354 1.396 . S
C1353 C1358 1.390 . S
C1354 C1348 1.465 . S
C1354 C1353 1.396 . S
C1354 C1355 1.399 . S
C1355 H1341 0.929 . S
C1355 C1354 1.399 . S
C1355 C1356 1.385 . S
C1356 H1342 0.931 . S
C1356 C1355 1.385 . S
C1356 C1357 1.389 . S
C1357 C1356 1.389 . S
C1357 C1358 1.387 . S
C1358 H1343 0.930 . S
C1358 C1353 1.390 . S
C1358 C1357 1.387 . S
H1359 C1371 0.930 . S
H1360 C1373 0.930 . S
H1361 C1374 0.930 . S
H1362 C1378 0.959 . S
H1363 C1378 0.959 . S
H1364 C1378 0.961 . S
H1365 C1379 0.960 . S
H1366 C1379 0.961 . S
H1367 C1379 0.959 . S
H1368 C1382 0.929 . S
H1369 C1383 0.931 . S
H1370 C1385 0.930 . S
C1371 H1359 0.930 . S
C1371 C1372 1.399 . S
C1371 C1376 1.399 . S
C1372 C1371 1.399 . S
C1372 C1373 1.376 . S
C1373 H1360 0.930 . S
C1373 C1372 1.376 . S
C1373 C1374 1.388 . S
C1374 H1361 0.930 . S
C1374 C1373 1.388 . S
C1374 C1375 1.390 . S
C1375 C1374 1.390 . S
C1375 C1376 1.394 . S
C1375 C1381 1.465 . S
C1376 C1371 1.399 . S
C1376 C1375 1.394 . S
C1376 C1377 1.516 . S
C1377 C1376 1.516 . S
C1377 C1378 1.502 . S
C1377 C1379 1.561 . S
C1377 C1380 1.526 . S
C1378 H1362 0.959 . S
C1378 H1363 0.959 . S
C1378 H1364 0.961 . S
C1378 C1377 1.502 . S
C1379 H1365 0.960 . S
C1379 H1366 0.961 . S
C1379 H1367 0.959 . S
C1379 C1377 1.561 . S
C1380 C1377 1.526 . S
C1380 C1381 1.396 . S
C1380 C1385 1.390 . S
C1381 C1375 1.465 . S
C1381 C1380 1.396 . S
C1381 C1382 1.399 . S
C1382 H1368 0.929 . S
C1382 C1381 1.399 . S
C1382 C1383 1.385 . S
C1383 H1369 0.931 . S
C1383 C1382 1.385 . S
C1383 C1384 1.389 . S
C1384 C1383 1.389 . S
C1384 C1385 1.387 . S
C1385 H1370 0.930 . S
C1385 C1380 1.390 . S
C1385 C1384 1.387 . S
H1386 C1398 0.930 . S
H1387 C1400 0.930 . S
H1388 C1401 0.930 . S
H1389 C1405 0.959 . S
H1390 C1405 0.959 . S
H1391 C1405 0.961 . S
H1392 C1406 0.960 . S
H1393 C1406 0.961 . S
H1394 C1406 0.959 . S
H1395 C1409 0.929 1_545 S
H1396 C1410 0.913 1_545 S
H1397 C1412 0.930 . S
C1398 H1386 0.930 . S
C1398 C1399 1.399 . S
C1398 C1403 1.399 . S
C1399 C1398 1.399 . S
C1399 C1400 1.376 . S
C1400 H1387 0.930 . S
C1400 C1399 1.376 . S
C1400 C1401 1.388 . S
C1401 H1388 0.930 . S
C1401 C1400 1.388 . S
C1401 C1402 1.390 . S
C1402 C1401 1.390 . S
C1402 C1403 1.394 . S
C1402 C1408 1.465 . S
C1403 C1398 1.399 . S
C1403 C1402 1.394 . S
C1403 C1404 1.516 . S
C1404 C1403 1.516 . S
C1404 C1405 1.502 . S
C1404 C1406 1.561 . S
C1404 C1407 1.526 . S
C1405 H1389 0.959 . S
C1405 H1390 0.959 . S
C1405 H1391 0.961 . S
C1405 C1404 1.502 . S
C1406 H1392 0.960 . S
C1406 H1393 0.961 . S
C1406 H1394 0.959 . S
C1406 C1404 1.561 . S
C1407 C1404 1.526 . S
C1407 C1408 1.396 . S
C1407 C1412 1.390 . S
C1408 C1402 1.465 . S
C1408 C1407 1.396 . S
C1408 C1409 1.399 . S
C1409 H1395 0.929 1_565 S
C1409 C1408 1.399 . S
C1409 C1410 1.387 . S
C1410 H1396 0.913 1_565 S
C1410 C1409 1.387 . S
C1410 C1411 1.405 . S
C1411 C1410 1.405 . S
C1411 C1412 1.387 . S
C1412 H1397 0.930 . S
C1412 C1407 1.390 . S
C1412 C1411 1.387 . S
H1413 C1425 0.930 . S
H1414 C1427 0.930 . S
H1415 C1428 0.930 . S
H1416 C1432 0.959 . S
H1417 C1432 0.959 . S
H1418 C1432 0.961 . S
H1419 C1433 0.960 . S
H1420 C1433 0.961 . S
H1421 C1433 0.959 . S
H1422 C1436 0.929 . S
H1423 C1437 0.931 . S
H1424 C1439 0.930 . S
C1425 H1413 0.930 . S
C1425 C1426 1.399 . S
C1425 C1430 1.399 . S
C1426 C1425 1.399 . S
C1426 C1427 1.376 . S
C1427 H1414 0.930 . S
C1427 C1426 1.376 . S
C1427 C1428 1.388 . S
C1428 H1415 0.930 . S
C1428 C1427 1.388 . S
C1428 C1429 1.390 . S
C1429 C1428 1.390 . S
C1429 C1430 1.394 . S
C1429 C1435 1.465 . S
C1430 C1425 1.399 . S
C1430 C1429 1.394 . S
C1430 C1431 1.516 . S
C1431 C1430 1.516 . S
C1431 C1432 1.502 . S
C1431 C1433 1.561 . S
C1431 C1434 1.526 . S
C1432 H1416 0.959 . S
C1432 H1417 0.959 . S
C1432 H1418 0.961 . S
C1432 C1431 1.502 . S
C1433 H1419 0.960 . S
C1433 H1420 0.961 . S
C1433 H1421 0.959 . S
C1433 C1431 1.561 . S
C1434 C1431 1.526 . S
C1434 C1435 1.396 . S
C1434 C1439 1.390 . S
C1435 C1429 1.465 . S
C1435 C1434 1.396 . S
C1435 C1436 1.399 . S
C1436 H1422 0.929 . S
C1436 C1435 1.399 . S
C1436 C1437 1.385 . S
C1437 H1423 0.931 . S
C1437 C1436 1.385 . S
C1437 C1438 1.389 . S
C1438 C1437 1.389 . S
C1438 C1439 1.387 . S
C1439 H1424 0.930 . S
C1439 C1434 1.390 . S
C1439 C1438 1.387 . S
H1440 C1452 0.930 . S
H1441 C1454 0.930 . S
H1442 C1455 0.930 . S
H1443 C1459 0.959 . S
H1444 C1459 0.959 . S
H1445 C1459 0.961 . S
H1446 C1460 0.960 . S
H1447 C1460 0.961 . S
H1448 C1460 0.959 . S
H1449 C1463 0.929 . S
H1450 C1464 0.931 . S
H1451 C1466 0.930 . S
C1452 H1440 0.930 . S
C1452 C1453 1.399 . S
C1452 C1457 1.399 . S
C1453 C1452 1.399 . S
C1453 C1454 1.376 . S
C1454 H1441 0.930 . S
C1454 C1453 1.376 . S
C1454 C1455 1.388 . S
C1455 H1442 0.930 . S
C1455 C1454 1.388 . S
C1455 C1456 1.390 . S
C1456 C1455 1.390 . S
C1456 C1457 1.394 . S
C1456 C1462 1.465 . S
C1457 C1452 1.399 . S
C1457 C1456 1.394 . S
C1457 C1458 1.516 . S
C1458 C1457 1.516 . S
C1458 C1459 1.502 . S
C1458 C1460 1.561 . S
C1458 C1461 1.526 . S
C1459 H1443 0.959 . S
C1459 H1444 0.959 . S
C1459 H1445 0.961 . S
C1459 C1458 1.502 . S
C1460 H1446 0.960 . S
C1460 H1447 0.961 . S
C1460 H1448 0.959 . S
C1460 C1458 1.561 . S
C1461 C1458 1.526 . S
C1461 C1462 1.396 . S
C1461 C1466 1.390 . S
C1462 C1456 1.465 . S
C1462 C1461 1.396 . S
C1462 C1463 1.399 . S
C1463 H1449 0.929 . S
C1463 C1462 1.399 . S
C1463 C1464 1.385 . S
C1464 H1450 0.931 . S
C1464 C1463 1.385 . S
C1464 C1465 1.389 . S
C1465 C1464 1.389 . S
C1465 C1466 1.387 . S
C1466 H1451 0.930 . S
C1466 C1461 1.390 . S
C1466 C1465 1.387 . S
H1467 C1479 0.930 . S
H1468 C1481 0.930 . S
H1469 C1482 0.930 . S
H1470 C1486 0.959 . S
H1471 C1486 0.959 . S
H1472 C1486 0.961 . S
H1473 C1487 0.960 . S
H1474 C1487 0.949 1_455 S
H1475 C1487 0.959 1_455 S
H1476 C1490 0.929 . S
H1477 C1491 0.931 . S
H1478 C1493 0.930 . S
C1479 H1467 0.930 . S
C1479 C1480 1.399 . S
C1479 C1484 1.399 . S
C1480 C1479 1.399 . S
C1480 C1481 1.376 . S
C1481 H1468 0.930 . S
C1481 C1480 1.376 . S
C1481 C1482 1.388 . S
C1482 H1469 0.930 . S
C1482 C1481 1.388 . S
C1482 C1483 1.390 . S
C1483 C1482 1.390 . S
C1483 C1484 1.394 . S
C1483 C1489 1.465 . S
C1484 C1479 1.399 . S
C1484 C1483 1.394 . S
C1484 C1485 1.516 . S
C1485 C1484 1.516 . S
C1485 C1486 1.502 . S
C1485 C1487 1.561 . S
C1485 C1488 1.526 . S
C1486 H1470 0.959 . S
C1486 H1471 0.959 . S
C1486 H1472 0.961 . S
C1486 C1485 1.502 . S
C1487 H1473 0.960 . S
C1487 H1474 0.949 1_655 S
C1487 H1475 0.959 1_655 S
C1487 C1485 1.561 . S
C1488 C1485 1.526 . S
C1488 C1489 1.396 . S
C1488 C1493 1.390 . S
C1489 C1483 1.465 . S
C1489 C1488 1.396 . S
C1489 C1490 1.399 . S
C1490 H1476 0.929 . S
C1490 C1489 1.399 . S
C1490 C1491 1.385 . S
C1491 H1477 0.931 . S
C1491 C1490 1.385 . S
C1491 C1492 1.389 . S
C1492 C1491 1.389 . S
C1492 C1493 1.387 . S
C1493 H1478 0.930 . S
C1493 C1488 1.390 . S
C1493 C1492 1.387 . S
H1494 C1506 0.930 . S
H1495 C1508 0.930 . S
H1496 C1509 0.930 . S
H1497 C1513 0.959 . S
H1498 C1513 0.959 . S
H1499 C1513 0.961 . S
H1500 C1514 0.960 . S
H1501 C1514 0.961 . S
H1502 C1514 0.959 . S
H1503 C1517 0.929 . S
H1504 C1518 0.931 . S
H1505 C1520 0.930 . S
C1506 H1494 0.930 . S
C1506 C1507 1.399 . S
C1506 C1511 1.399 . S
C1507 C1506 1.399 . S
C1507 C1508 1.376 . S
C1508 H1495 0.930 . S
C1508 C1507 1.376 . S
C1508 C1509 1.388 . S
C1509 H1496 0.930 . S
C1509 C1508 1.388 . S
C1509 C1510 1.390 . S
C1510 C1509 1.390 . S
C1510 C1511 1.394 . S
C1510 C1516 1.465 . S
C1511 C1506 1.399 . S
C1511 C1510 1.394 . S
C1511 C1512 1.516 . S
C1512 C1511 1.516 . S
C1512 C1513 1.502 . S
C1512 C1514 1.561 . S
C1512 C1515 1.526 . S
C1513 H1497 0.959 . S
C1513 H1498 0.959 . S
C1513 H1499 0.961 . S
C1513 C1512 1.502 . S
C1514 H1500 0.960 . S
C1514 H1501 0.961 . S
C1514 H1502 0.959 . S
C1514 C1512 1.561 . S
C1515 C1512 1.526 . S
C1515 C1516 1.396 . S
C1515 C1520 1.390 . S
C1516 C1510 1.465 . S
C1516 C1515 1.396 . S
C1516 C1517 1.399 . S
C1517 H1503 0.929 . S
C1517 C1516 1.399 . S
C1517 C1518 1.385 . S
C1518 H1504 0.931 . S
C1518 C1517 1.385 . S
C1518 C1519 1.389 . S
C1519 C1518 1.389 . S
C1519 C1520 1.387 . S
C1520 H1505 0.930 . S
C1520 C1515 1.390 . S
C1520 C1519 1.387 . S
H1521 C1533 0.930 . S
H1522 C1535 0.930 . S
H1523 C1536 0.930 . S
H1524 C1540 0.959 . S
H1525 C1540 0.959 . S
H1526 C1540 0.961 . S
H1527 C1541 0.960 . S
H1528 C1541 0.961 . S
H1529 C1541 0.959 . S
H1530 C1544 0.929 . S
H1531 C1545 0.931 . S
H1532 C1547 0.930 . S
C1533 H1521 0.930 . S
C1533 C1534 1.399 . S
C1533 C1538 1.399 . S
C1534 C1533 1.399 . S
C1534 C1535 1.376 . S
C1535 H1522 0.930 . S
C1535 C1534 1.376 . S
C1535 C1536 1.388 . S
C1536 H1523 0.930 . S
C1536 C1535 1.388 . S
C1536 C1537 1.390 . S
C1537 C1536 1.390 . S
C1537 C1538 1.394 . S
C1537 C1543 1.465 . S
C1538 C1533 1.399 . S
C1538 C1537 1.394 . S
C1538 C1539 1.516 . S
C1539 C1538 1.516 . S
C1539 C1540 1.502 . S
C1539 C1541 1.561 . S
C1539 C1542 1.526 . S
C1540 H1524 0.959 . S
C1540 H1525 0.959 . S
C1540 H1526 0.961 . S
C1540 C1539 1.502 . S
C1541 H1527 0.960 . S
C1541 H1528 0.961 . S
C1541 H1529 0.959 . S
C1541 C1539 1.561 . S
C1542 C1539 1.526 . S
C1542 C1543 1.396 . S
C1542 C1547 1.390 . S
C1543 C1537 1.465 . S
C1543 C1542 1.396 . S
C1543 C1544 1.399 . S
C1544 H1530 0.929 . S
C1544 C1543 1.399 . S
C1544 C1545 1.385 . S
C1545 H1531 0.931 . S
C1545 C1544 1.385 . S
C1545 C1546 1.389 . S
C1546 C1545 1.389 . S
C1546 C1547 1.387 . S
C1547 H1532 0.930 . S
C1547 C1542 1.390 . S
C1547 C1546 1.387 . S
H1548 C1560 0.930 . S
H1549 C1562 0.930 . S
H1550 C1563 0.930 . S
H1551 C1567 0.959 . S
H1552 C1567 0.959 . S
H1553 C1567 0.961 . S
H1554 C1568 0.960 . S
H1555 C1568 0.961 . S
H1556 C1568 0.959 . S
H1557 C1571 0.929 . S
H1558 C1572 0.931 . S
H1559 C1574 0.930 . S
C1560 H1548 0.930 . S
C1560 C1561 1.399 . S
C1560 C1565 1.399 . S
C1561 C1560 1.399 . S
C1561 C1562 1.376 . S
C1562 H1549 0.930 . S
C1562 C1561 1.376 . S
C1562 C1563 1.388 . S
C1563 H1550 0.930 . S
C1563 C1562 1.388 . S
C1563 C1564 1.390 . S
C1564 C1563 1.390 . S
C1564 C1565 1.394 . S
C1564 C1570 1.465 . S
C1565 C1560 1.399 . S
C1565 C1564 1.394 . S
C1565 C1566 1.516 . S
C1566 C1565 1.516 . S
C1566 C1567 1.502 . S
C1566 C1568 1.561 . S
C1566 C1569 1.526 . S
C1567 H1551 0.959 . S
C1567 H1552 0.959 . S
C1567 H1553 0.961 . S
C1567 C1566 1.502 . S
C1568 H1554 0.960 . S
C1568 H1555 0.961 . S
C1568 H1556 0.959 . S
C1568 C1566 1.561 . S
C1569 C1566 1.526 . S
C1569 C1570 1.396 . S
C1569 C1574 1.390 . S
C1570 C1564 1.465 . S
C1570 C1569 1.396 . S
C1570 C1571 1.399 . S
C1571 H1557 0.929 . S
C1571 C1570 1.399 . S
C1571 C1572 1.385 . S
C1572 H1558 0.931 . S
C1572 C1571 1.385 . S
C1572 C1573 1.389 . S
C1573 C1572 1.389 . S
C1573 C1574 1.387 . S
C1574 H1559 0.930 . S
C1574 C1569 1.390 . S
C1574 C1573 1.387 . S
H1575 C1587 0.930 . S
H1576 C1589 0.930 . S
H1577 C1590 0.930 . S
H1578 C1594 0.959 . S
H1579 C1594 0.959 . S
H1580 C1594 0.961 . S
H1581 C1595 0.960 . S
H1582 C1595 0.961 . S
H1583 C1595 0.959 . S
H1584 C1598 0.929 . S
H1585 C1599 0.931 . S
H1586 C1601 0.930 . S
C1587 H1575 0.930 . S
C1587 C1588 1.399 . S
C1587 C1592 1.399 . S
C1588 C1587 1.399 . S
C1588 C1589 1.376 . S
C1589 H1576 0.930 . S
C1589 C1588 1.376 . S
C1589 C1590 1.388 . S
C1590 H1577 0.930 . S
C1590 C1589 1.388 . S
C1590 C1591 1.390 . S
C1591 C1590 1.390 . S
C1591 C1592 1.394 . S
C1591 C1597 1.465 . S
C1592 C1587 1.399 . S
C1592 C1591 1.394 . S
C1592 C1593 1.516 . S
C1593 C1592 1.516 . S
C1593 C1594 1.502 . S
C1593 C1595 1.561 . S
C1593 C1596 1.526 . S
C1594 H1578 0.959 . S
C1594 H1579 0.959 . S
C1594 H1580 0.961 . S
C1594 C1593 1.502 . S
C1595 H1581 0.960 . S
C1595 H1582 0.961 . S
C1595 H1583 0.959 . S
C1595 C1593 1.561 . S
C1596 C1593 1.526 . S
C1596 C1597 1.396 . S
C1596 C1601 1.390 . S
C1597 C1591 1.465 . S
C1597 C1596 1.396 . S
C1597 C1598 1.399 . S
C1598 H1584 0.929 . S
C1598 C1597 1.399 . S
C1598 C1599 1.385 . S
C1599 H1585 0.931 . S
C1599 C1598 1.385 . S
C1599 C1600 1.389 . S
C1600 C1599 1.389 . S
C1600 C1601 1.387 . S
C1601 H1586 0.930 . S
C1601 C1596 1.390 . S
C1601 C1600 1.387 . S
H1602 C1614 0.930 . S
H1603 C1616 0.930 . S
H1604 C1617 0.930 . S
H1605 C1621 0.959 . S
H1606 C1621 0.959 . S
H1607 C1621 0.961 . S
H1608 C1622 0.960 . S
H1609 C1622 0.961 . S
H1610 C1622 0.959 . S
H1611 C1625 0.929 . S
H1612 C1626 0.931 . S
H1613 C1628 0.930 . S
C1614 H1602 0.930 . S
C1614 C1615 1.399 . S
C1614 C1619 1.399 . S
C1615 C1614 1.399 . S
C1615 C1616 1.376 . S
C1616 H1603 0.930 . S
C1616 C1615 1.376 . S
C1616 C1617 1.388 . S
C1617 H1604 0.930 . S
C1617 C1616 1.388 . S
C1617 C1618 1.390 . S
C1618 C1617 1.390 . S
C1618 C1619 1.394 . S
C1618 C1624 1.465 . S
C1619 C1614 1.399 . S
C1619 C1618 1.394 . S
C1619 C1620 1.516 . S
C1620 C1619 1.516 . S
C1620 C1621 1.502 . S
C1620 C1622 1.561 . S
C1620 C1623 1.526 . S
C1621 H1605 0.959 . S
C1621 H1606 0.959 . S
C1621 H1607 0.961 . S
C1621 C1620 1.502 . S
C1622 H1608 0.960 . S
C1622 H1609 0.961 . S
C1622 H1610 0.959 . S
C1622 C1620 1.561 . S
C1623 C1620 1.526 . S
C1623 C1624 1.396 . S
C1623 C1628 1.390 . S
C1624 C1618 1.465 . S
C1624 C1623 1.396 . S
C1624 C1625 1.399 . S
C1625 H1611 0.929 . S
C1625 C1624 1.399 . S
C1625 C1626 1.385 . S
C1626 H1612 0.931 . S
C1626 C1625 1.385 . S
C1626 C1627 1.389 . S
C1627 C1626 1.389 . S
C1627 C1628 1.387 . S
C1628 H1613 0.930 . S
C1628 C1623 1.390 . S
C1628 C1627 1.387 . S
H1629 C1641 0.930 . S
H1630 C1643 0.930 . S
H1631 C1644 0.930 . S
H1632 C1648 0.959 . S
H1633 C1648 0.959 . S
H1634 C1648 0.961 . S
H1635 C1649 0.960 . S
H1636 C1649 0.961 . S
H1637 C1649 0.959 . S
H1638 C1652 0.929 . S
H1639 C1653 0.931 . S
H1640 C1655 0.930 . S
C1641 H1629 0.930 . S
C1641 C1642 1.399 . S
C1641 C1646 1.399 . S
C1642 C1641 1.399 . S
C1642 C1643 1.376 . S
C1643 H1630 0.930 . S
C1643 C1642 1.376 . S
C1643 C1644 1.388 . S
C1644 H1631 0.930 . S
C1644 C1643 1.388 . S
C1644 C1645 1.390 . S
C1645 C1644 1.390 . S
C1645 C1646 1.394 . S
C1645 C1651 1.465 . S
C1646 C1641 1.399 . S
C1646 C1645 1.394 . S
C1646 C1647 1.516 . S
C1647 C1646 1.516 . S
C1647 C1648 1.502 . S
C1647 C1649 1.561 . S
C1647 C1650 1.526 . S
C1648 H1632 0.959 . S
C1648 H1633 0.959 . S
C1648 H1634 0.961 . S
C1648 C1647 1.502 . S
C1649 H1635 0.960 . S
C1649 H1636 0.961 . S
C1649 H1637 0.959 . S
C1649 C1647 1.561 . S
C1650 C1647 1.526 . S
C1650 C1651 1.396 . S
C1650 C1655 1.390 . S
C1651 C1645 1.465 . S
C1651 C1650 1.396 . S
C1651 C1652 1.399 . S
C1652 H1638 0.929 . S
C1652 C1651 1.399 . S
C1652 C1653 1.385 . S
C1653 H1639 0.931 . S
C1653 C1652 1.385 . S
C1653 C1654 1.389 . S
C1654 C1653 1.389 . S
C1654 C1655 1.387 . S
C1655 H1640 0.930 . S
C1655 C1650 1.390 . S
C1655 C1654 1.387 . S
H1656 C1668 0.930 . S
H1657 C1670 0.930 . S
H1658 C1671 0.930 . S
H1659 C1675 0.959 . S
H1660 C1675 0.959 . S
H1661 C1675 0.961 . S
H1662 C1676 0.960 . S
H1663 C1676 0.961 . S
H1664 C1676 0.959 . S
H1665 C1679 0.929 . S
H1666 C1680 0.931 . S
H1667 C1682 0.930 . S
C1668 H1656 0.930 . S
C1668 C1669 1.399 . S
C1668 C1673 1.399 . S
C1669 C1668 1.399 . S
C1669 C1670 1.376 . S
C1670 H1657 0.930 . S
C1670 C1669 1.376 . S
C1670 C1671 1.388 . S
C1671 H1658 0.930 . S
C1671 C1670 1.388 . S
C1671 C1672 1.390 . S
C1672 C1671 1.390 . S
C1672 C1673 1.394 . S
C1672 C1678 1.465 . S
C1673 C1668 1.399 . S
C1673 C1672 1.394 . S
C1673 C1674 1.516 . S
C1674 C1673 1.516 . S
C1674 C1675 1.502 . S
C1674 C1676 1.561 . S
C1674 C1677 1.526 . S
C1675 H1659 0.959 . S
C1675 H1660 0.959 . S
C1675 H1661 0.961 . S
C1675 C1674 1.502 . S
C1676 H1662 0.960 . S
C1676 H1663 0.961 . S
C1676 H1664 0.959 . S
C1676 C1674 1.561 . S
C1677 C1674 1.526 . S
C1677 C1678 1.396 . S
C1677 C1682 1.390 . S
C1678 C1672 1.465 . S
C1678 C1677 1.396 . S
C1678 C1679 1.399 . S
C1679 H1665 0.929 . S
C1679 C1678 1.399 . S
C1679 C1680 1.385 . S
C1680 H1666 0.931 . S
C1680 C1679 1.385 . S
C1680 C1681 1.389 . S
C1681 C1680 1.389 . S
C1681 C1682 1.387 . S
C1682 H1667 0.930 . S
C1682 C1677 1.390 . S
C1682 C1681 1.387 . S
H1683 C1695 0.930 . S
H1684 C1697 0.930 . S
H1685 C1698 0.930 . S
H1686 C1702 0.959 . S
H1687 C1702 0.959 . S
H1688 C1702 0.961 . S
H1689 C1703 0.960 . S
H1690 C1703 0.961 . S
H1691 C1703 0.959 . S
H1692 C1706 0.929 . S
H1693 C1707 0.931 . S
H1694 C1709 0.930 . S
C1695 H1683 0.930 . S
C1695 C1696 1.399 . S
C1695 C1700 1.399 . S
C1696 C1695 1.399 . S
C1696 C1697 1.376 . S
C1697 H1684 0.930 . S
C1697 C1696 1.376 . S
C1697 C1698 1.388 . S
C1698 H1685 0.930 . S
C1698 C1697 1.388 . S
C1698 C1699 1.390 . S
C1699 C1698 1.390 . S
C1699 C1700 1.394 . S
C1699 C1705 1.465 . S
C1700 C1695 1.399 . S
C1700 C1699 1.394 . S
C1700 C1701 1.516 . S
C1701 C1700 1.516 . S
C1701 C1702 1.502 . S
C1701 C1703 1.561 . S
C1701 C1704 1.526 . S
C1702 H1686 0.959 . S
C1702 H1687 0.959 . S
C1702 H1688 0.961 . S
C1702 C1701 1.502 . S
C1703 H1689 0.960 . S
C1703 H1690 0.961 . S
C1703 H1691 0.959 . S
C1703 C1701 1.561 . S
C1704 C1701 1.526 . S
C1704 C1705 1.396 . S
C1704 C1709 1.390 . S
C1705 C1699 1.465 . S
C1705 C1704 1.396 . S
C1705 C1706 1.399 . S
C1706 H1692 0.929 . S
C1706 C1705 1.399 . S
C1706 C1707 1.385 . S
C1707 H1693 0.931 . S
C1707 C1706 1.385 . S
C1707 C1708 1.389 . S
C1708 C1707 1.389 . S
C1708 C1709 1.387 . S
C1709 H1694 0.930 . S
C1709 C1704 1.390 . S
C1709 C1708 1.387 . S
H1710 C1722 0.930 . S
H1711 C1724 0.930 . S
H1712 C1725 0.930 . S
H1713 C1729 0.959 . S
H1714 C1729 0.959 . S
H1715 C1729 0.961 . S
H1716 C1730 0.960 . S
H1717 C1730 0.961 . S
H1718 C1730 0.959 . S
H1719 C1733 0.929 . S
H1720 C1734 0.931 . S
H1721 C1736 0.930 . S
C1722 H1710 0.930 . S
C1722 C1723 1.399 . S
C1722 C1727 1.399 . S
C1723 C1722 1.399 . S
C1723 C1724 1.376 . S
C1724 H1711 0.930 . S
C1724 C1723 1.376 . S
C1724 C1725 1.388 . S
C1725 H1712 0.930 . S
C1725 C1724 1.388 . S
C1725 C1726 1.390 . S
C1726 C1725 1.390 . S
C1726 C1727 1.394 . S
C1726 C1732 1.465 . S
C1727 C1722 1.399 . S
C1727 C1726 1.394 . S
C1727 C1728 1.516 . S
C1728 C1727 1.516 . S
C1728 C1729 1.502 . S
C1728 C1730 1.561 . S
C1728 C1731 1.526 . S
C1729 H1713 0.959 . S
C1729 H1714 0.959 . S
C1729 H1715 0.961 . S
C1729 C1728 1.502 . S
C1730 H1716 0.960 . S
C1730 H1717 0.961 . S
C1730 H1718 0.959 . S
C1730 C1728 1.561 . S
C1731 C1728 1.526 . S
C1731 C1732 1.396 . S
C1731 C1736 1.390 . S
C1732 C1726 1.465 . S
C1732 C1731 1.396 . S
C1732 C1733 1.399 . S
C1733 H1719 0.929 . S
C1733 C1732 1.399 . S
C1733 C1734 1.385 . S
C1734 H1720 0.931 . S
C1734 C1733 1.385 . S
C1734 C1735 1.389 . S
C1735 C1734 1.389 . S
C1735 C1736 1.387 . S
C1736 H1721 0.930 . S
C1736 C1731 1.390 . S
C1736 C1735 1.387 . S
H1737 C1749 0.930 . S
H1738 C1751 0.930 . S
H1739 C1752 0.930 . S
H1740 C1756 0.959 . S
H1741 C1756 0.959 . S
H1742 C1756 0.961 . S
H1743 C1757 0.960 . S
H1744 C1757 0.961 . S
H1745 C1757 0.959 . S
H1746 C1760 0.929 . S
H1747 C1761 0.931 . S
H1748 C1763 0.930 . S
C1749 H1737 0.930 . S
C1749 C1750 1.399 . S
C1749 C1754 1.399 . S
C1750 C1749 1.399 . S
C1750 C1751 1.376 . S
C1751 H1738 0.930 . S
C1751 C1750 1.376 . S
C1751 C1752 1.388 . S
C1752 H1739 0.930 . S
C1752 C1751 1.388 . S
C1752 C1753 1.390 . S
C1753 C1752 1.390 . S
C1753 C1754 1.394 . S
C1753 C1759 1.465 . S
C1754 C1749 1.399 . S
C1754 C1753 1.394 . S
C1754 C1755 1.516 . S
C1755 C1754 1.516 . S
C1755 C1756 1.502 . S
C1755 C1757 1.561 . S
C1755 C1758 1.526 . S
C1756 H1740 0.959 . S
C1756 H1741 0.959 . S
C1756 H1742 0.961 . S
C1756 C1755 1.502 . S
C1757 H1743 0.960 . S
C1757 H1744 0.961 . S
C1757 H1745 0.959 . S
C1757 C1755 1.561 . S
C1758 C1755 1.526 . S
C1758 C1759 1.396 . S
C1758 C1763 1.390 . S
C1759 C1753 1.465 . S
C1759 C1758 1.396 . S
C1759 C1760 1.399 . S
C1760 H1746 0.929 . S
C1760 C1759 1.399 . S
C1760 C1761 1.385 . S
C1761 H1747 0.931 . S
C1761 C1760 1.385 . S
C1761 C1762 1.389 . S
C1762 C1761 1.389 . S
C1762 C1763 1.387 . S
C1763 H1748 0.930 . S
C1763 C1758 1.390 . S
C1763 C1762 1.387 . S
H1764 C1776 0.930 . S
H1765 C1778 0.930 . S
H1766 C1779 0.930 . S
H1767 C1783 0.959 . S
H1768 C1783 0.959 . S
H1769 C1783 0.961 . S
H1770 C1784 0.960 . S
H1771 C1784 0.961 . S
H1772 C1784 0.959 . S
H1773 C1787 0.929 . S
H1774 C1788 0.931 . S
H1775 C1790 0.930 . S
C1776 H1764 0.930 . S
C1776 C1777 1.399 . S
C1776 C1781 1.399 . S
C1777 C1776 1.399 . S
C1777 C1778 1.376 . S
C1778 H1765 0.930 . S
C1778 C1777 1.376 . S
C1778 C1779 1.388 . S
C1779 H1766 0.930 . S
C1779 C1778 1.388 . S
C1779 C1780 1.390 . S
C1780 C1779 1.390 . S
C1780 C1781 1.394 . S
C1780 C1786 1.465 . S
C1781 C1776 1.399 . S
C1781 C1780 1.394 . S
C1781 C1782 1.516 . S
C1782 C1781 1.516 . S
C1782 C1783 1.502 . S
C1782 C1784 1.561 . S
C1782 C1785 1.526 . S
C1783 H1767 0.959 . S
C1783 H1768 0.959 . S
C1783 H1769 0.961 . S
C1783 C1782 1.502 . S
C1784 H1770 0.960 . S
C1784 H1771 0.961 . S
C1784 H1772 0.959 . S
C1784 C1782 1.561 . S
C1785 C1782 1.526 . S
C1785 C1786 1.396 . S
C1785 C1790 1.390 . S
C1786 C1780 1.465 . S
C1786 C1785 1.396 . S
C1786 C1787 1.399 . S
C1787 H1773 0.929 . S
C1787 C1786 1.399 . S
C1787 C1788 1.385 . S
C1788 H1774 0.931 . S
C1788 C1787 1.385 . S
C1788 C1789 1.389 . S
C1789 C1788 1.389 . S
C1789 C1790 1.387 . S
C1790 H1775 0.930 . S
C1790 C1785 1.390 . S
C1790 C1789 1.387 . S
H1791 C1803 0.930 . S
H1792 C1805 0.930 . S
H1793 C1806 0.930 . S
H1794 C1810 0.959 . S
H1795 C1810 0.959 . S
H1796 C1810 0.961 . S
H1797 C1811 0.960 . S
H1798 C1811 0.961 . S
H1799 C1811 0.959 . S
H1800 C1814 0.929 . S
H1801 C1815 0.931 . S
H1802 C1817 0.930 . S
C1803 H1791 0.930 . S
C1803 C1804 1.399 . S
C1803 C1808 1.399 . S
C1804 C1803 1.399 . S
C1804 C1805 1.376 . S
C1805 H1792 0.930 . S
C1805 C1804 1.376 . S
C1805 C1806 1.388 . S
C1806 H1793 0.930 . S
C1806 C1805 1.388 . S
C1806 C1807 1.390 . S
C1807 C1806 1.390 . S
C1807 C1808 1.394 . S
C1807 C1813 1.465 . S
C1808 C1803 1.399 . S
C1808 C1807 1.394 . S
C1808 C1809 1.516 . S
C1809 C1808 1.516 . S
C1809 C1810 1.502 . S
C1809 C1811 1.561 . S
C1809 C1812 1.526 . S
C1810 H1794 0.959 . S
C1810 H1795 0.959 . S
C1810 H1796 0.961 . S
C1810 C1809 1.502 . S
C1811 H1797 0.960 . S
C1811 H1798 0.961 . S
C1811 H1799 0.959 . S
C1811 C1809 1.561 . S
C1812 C1809 1.526 . S
C1812 C1813 1.396 . S
C1812 C1817 1.390 . S
C1813 C1807 1.465 . S
C1813 C1812 1.396 . S
C1813 C1814 1.399 . S
C1814 H1800 0.929 . S
C1814 C1813 1.399 . S
C1814 C1815 1.385 . S
C1815 H1801 0.931 . S
C1815 C1814 1.385 . S
C1815 C1816 1.389 . S
C1816 C1815 1.389 . S
C1816 C1817 1.387 . S
C1817 H1802 0.930 . S
C1817 C1812 1.390 . S
C1817 C1816 1.387 . S
H1818 C1830 0.930 . S
H1819 C1832 0.930 . S
H1820 C1833 0.930 . S
H1821 C1837 0.959 . S
H1822 C1837 0.959 . S
H1823 C1837 0.961 . S
H1824 C1838 0.960 . S
H1825 C1838 0.961 . S
H1826 C1838 0.959 . S
H1827 C1841 0.929 . S
H1828 C1842 0.931 . S
H1829 C1844 0.930 . S
C1830 H1818 0.930 . S
C1830 C1831 1.399 . S
C1830 C1835 1.399 . S
C1831 C1830 1.399 . S
C1831 C1832 1.376 . S
C1832 H1819 0.930 . S
C1832 C1831 1.376 . S
C1832 C1833 1.388 . S
C1833 H1820 0.930 . S
C1833 C1832 1.388 . S
C1833 C1834 1.390 . S
C1834 C1833 1.390 . S
C1834 C1835 1.394 . S
C1834 C1840 1.465 . S
C1835 C1830 1.399 . S
C1835 C1834 1.394 . S
C1835 C1836 1.516 . S
C1836 C1835 1.516 . S
C1836 C1837 1.502 . S
C1836 C1838 1.561 . S
C1836 C1839 1.526 . S
C1837 H1821 0.959 . S
C1837 H1822 0.959 . S
C1837 H1823 0.961 . S
C1837 C1836 1.502 . S
C1838 H1824 0.960 . S
C1838 H1825 0.961 . S
C1838 H1826 0.959 . S
C1838 C1836 1.561 . S
C1839 C1836 1.526 . S
C1839 C1840 1.396 . S
C1839 C1844 1.390 . S
C1840 C1834 1.465 . S
C1840 C1839 1.396 . S
C1840 C1841 1.399 . S
C1841 H1827 0.929 . S
C1841 C1840 1.399 . S
C1841 C1842 1.385 . S
C1842 H1828 0.931 . S
C1842 C1841 1.385 . S
C1842 C1843 1.389 . S
C1843 C1842 1.389 . S
C1843 C1844 1.387 . S
C1844 H1829 0.930 . S
C1844 C1839 1.390 . S
C1844 C1843 1.387 . S
H1845 C1857 0.930 . S
H1846 C1859 0.930 . S
H1847 C1860 0.930 . S
H1848 C1864 0.959 . S
H1849 C1864 0.959 . S
H1850 C1864 0.961 . S
H1851 C1865 0.960 . S
H1852 C1865 0.961 . S
H1853 C1865 0.959 . S
H1854 C1868 0.929 . S
H1855 C1869 0.931 . S
H1856 C1871 0.930 . S
C1857 H1845 0.930 . S
C1857 C1858 1.399 . S
C1857 C1862 1.399 . S
C1858 C1857 1.399 . S
C1858 C1859 1.376 . S
C1859 H1846 0.930 . S
C1859 C1858 1.376 . S
C1859 C1860 1.388 . S
C1860 H1847 0.930 . S
C1860 C1859 1.388 . S
C1860 C1861 1.390 . S
C1861 C1860 1.390 . S
C1861 C1862 1.394 . S
C1861 C1867 1.465 . S
C1862 C1857 1.399 . S
C1862 C1861 1.394 . S
C1862 C1863 1.516 . S
C1863 C1862 1.516 . S
C1863 C1864 1.502 . S
C1863 C1865 1.561 . S
C1863 C1866 1.526 . S
C1864 H1848 0.959 . S
C1864 H1849 0.959 . S
C1864 H1850 0.961 . S
C1864 C1863 1.502 . S
C1865 H1851 0.960 . S
C1865 H1852 0.961 . S
C1865 H1853 0.959 . S
C1865 C1863 1.561 . S
C1866 C1863 1.526 . S
C1866 C1867 1.396 . S
C1866 C1871 1.390 . S
C1867 C1861 1.465 . S
C1867 C1866 1.396 . S
C1867 C1868 1.399 . S
C1868 H1854 0.929 . S
C1868 C1867 1.399 . S
C1868 C1869 1.385 . S
C1869 H1855 0.931 . S
C1869 C1868 1.385 . S
C1869 C1870 1.389 . S
C1870 C1869 1.389 . S
C1870 C1871 1.387 . S
C1871 H1856 0.930 . S
C1871 C1866 1.390 . S
C1871 C1870 1.387 . S
C427 N170 1.922 . S
C439 C240 1.914 . S
C454 N184 1.071 . S
C466 C260 1.105 . S
C481 N158 1.556 . S
C493 C283 1.579 . S
C508 N145 1.501 . S
C520 C263 1.469 1_556 S
C547 C280 1.002 1_556 S
C535 N119 1.007 . S
C562 N131 1.847 . S
C574 C243 1.884 . S
C601 C250 1.642 1_556 S
C589 N144 1.644 . S
C628 C270 1.423 . S
C616 N118 1.434 . S
C643 N132 1.494 . S
C655 C275 1.531 . S
C670 N171 1.447 . S
C682 C255 1.456 . S
C697 N183 1.313 . S
C709 C290 1.277 . S
C736 C235 1.559 . S
C724 N157 1.578 . S
C763 C300 1.894 . S
C751 N14 1.879 . S
C778 N28 1.092 . S
C790 C320 1.027 . S
C805 N2 1.557 . S
C817 C343 1.578 . S
C832 N223 1.480 . S
C844 C323 1.498 . S
C859 N197 1.010 . S
C871 C340 0.965 . S
C886 N209 1.881 . S
C898 C303 1.866 . S
C913 N222 1.643 . S
C925 C310 1.643 . S
C940 N196 1.415 . S
C952 C330 1.386 . S
C979 C335 1.530 . S
C967 N210 1.492 . S
C994 N15 1.466 . S
C1006 C315 1.449 . S
C1033 C350 1.293 . S
C1021 N27 1.303 . S
C1048 N1 1.572 . S
C1060 C295 1.547 . S
C1087 C360 1.913 . S
C1075 N92 1.922 . S
C1102 N106 1.091 . S
C1114 C380 1.027 . S
C1141 C403 1.556 . S
C1129 N80 1.580 . S
C1168 C383 1.497 . S
C1156 N67 1.482 . S
C1195 C400 1.036 . S
C1183 N41 1.011 . S
C1210 N53 1.844 . S
C1222 C363 1.895 . S
C1237 N66 1.640 . S
C1249 C370 1.644 . S
C1264 N40 1.428 . S
C1276 C390 1.414 . S
C1303 C395 1.515 . S
C1291 N54 1.517 . S
C1318 N93 1.466 . S
C1330 C375 1.450 . S
C1345 N105 1.322 . S
C1357 C410 1.322 . S
C1372 N79 1.565 . S
C1384 C355 1.577 . S
C1399 N200 0.948 . S
C1411 C253 0.931 . S
C1438 C273 1.872 . S
C1426 N213 1.932 . S
C1453 N226 1.499 . S
C1465 C282 1.504 . S
C1480 N83 1.620 . S
C1492 C262 1.570 1_655 S
C1507 N96 1.845 . S
C1519 C293 1.812 . S
C1546 C242 1.058 . S
C1534 N109 1.047 . S
C1561 N44 1.000 . S
C1573 C313 0.942 . S
C1588 N57 1.890 . S
C1600 C333 1.867 . S
C1615 N70 1.516 . S
C1627 C342 1.456 . S
C1642 N161 1.575 . S
C1654 C322 1.567 . S
C1681 C353 1.789 . S
C1669 N174 1.805 . S
C1696 N187 0.988 . S
C1708 C302 0.952 . S
C1723 N122 0.955 . S
C1735 C373 0.918 . S
C1750 N135 1.927 . S
C1762 C393 1.889 . S
C1789 C402 1.484 . S
C1777 N148 1.525 . S
C1804 N5 1.605 . S
C1816 C382 1.529 . S
C1831 N18 1.844 . S
C1843 C413 1.814 . S
C1858 N31 0.981 . S
C1870 C362 0.953 . S
