# Generated by pormake.
# Topology llj, (12,3)-cn, num edge types: 1
# Building blocks:
#     Node 0, Type 0, BuildingBlock: QEWDON_clean_sbu_0, # of connection points: 12
#     Node 1, Type 0, BuildingBlock: QEWDON_clean_sbu_0, # of connection points: 12
#     Node 2, Type 1, BuildingBlock: MIDCAF_clean_linker_0, # of connection points: 3
#     Node 3, Type 1, BuildingBlock: MIDCAF_clean_linker_0, # of connection points: 3
#     Node 4, Type 1, BuildingBlock: MIDCAF_clean_linker_0, # of connection points: 3
#     Node 5, Type 1, BuildingBlock: MIDCAF_clean_linker_0, # of connection points: 3
#     Node 6, Type 1, BuildingBlock: MIDCAF_clean_linker_0, # of connection points: 3
#     Node 7, Type 1, BuildingBlock: MIDCAF_clean_linker_0, # of connection points: 3
#     Node 8, Type 1, BuildingBlock: MIDCAF_clean_linker_0, # of connection points: 3
#     Node 9, Type 1, BuildingBlock: MIDCAF_clean_linker_0, # of connection points: 3
#     Edge 10, Type (0, 1), BuildingBlock: TEMPAE_clean_linker_10, # of connection points: 2
#     Edge 11, Type (0, 1), BuildingBlock: TEMPAE_clean_linker_10, # of connection points: 2
#     Edge 12, Type (0, 1), BuildingBlock: TEMPAE_clean_linker_10, # of connection points: 2
#     Edge 13, Type (0, 1), BuildingBlock: TEMPAE_clean_linker_10, # of connection points: 2
#     Edge 14, Type (0, 1), BuildingBlock: TEMPAE_clean_linker_10, # of connection points: 2
#     Edge 15, Type (0, 1), BuildingBlock: TEMPAE_clean_linker_10, # of connection points: 2
#     Edge 16, Type (0, 1), BuildingBlock: TEMPAE_clean_linker_10, # of connection points: 2
#     Edge 17, Type (0, 1), BuildingBlock: TEMPAE_clean_linker_10, # of connection points: 2
#     Edge 18, Type (0, 1), BuildingBlock: TEMPAE_clean_linker_10, # of connection points: 2
#     Edge 19, Type (0, 1), BuildingBlock: TEMPAE_clean_linker_10, # of connection points: 2
#     Edge 20, Type (0, 1), BuildingBlock: TEMPAE_clean_linker_10, # of connection points: 2
#     Edge 21, Type (0, 1), BuildingBlock: TEMPAE_clean_linker_10, # of connection points: 2
#     Edge 22, Type (0, 1), BuildingBlock: TEMPAE_clean_linker_10, # of connection points: 2
#     Edge 23, Type (0, 1), BuildingBlock: TEMPAE_clean_linker_10, # of connection points: 2
#     Edge 24, Type (0, 1), BuildingBlock: TEMPAE_clean_linker_10, # of connection points: 2
#     Edge 25, Type (0, 1), BuildingBlock: TEMPAE_clean_linker_10, # of connection points: 2
#     Edge 26, Type (0, 1), BuildingBlock: TEMPAE_clean_linker_10, # of connection points: 2
#     Edge 27, Type (0, 1), BuildingBlock: TEMPAE_clean_linker_10, # of connection points: 2
#     Edge 28, Type (0, 1), BuildingBlock: TEMPAE_clean_linker_10, # of connection points: 2
#     Edge 29, Type (0, 1), BuildingBlock: TEMPAE_clean_linker_10, # of connection points: 2
#     Edge 30, Type (0, 1), BuildingBlock: TEMPAE_clean_linker_10, # of connection points: 2
#     Edge 31, Type (0, 1), BuildingBlock: TEMPAE_clean_linker_10, # of connection points: 2
#     Edge 32, Type (0, 1), BuildingBlock: TEMPAE_clean_linker_10, # of connection points: 2
#     Edge 33, Type (0, 1), BuildingBlock: TEMPAE_clean_linker_10, # of connection points: 2
# Relax obj value: 0.011
# Max RMSD: 0.055
# Mean RMSD: 0.051
data_MOF--net-llj--node1-QEWDON_clean_sbu_0--node2-MIDCAF_clean_linker_0--edge1-TEMPAE_clean_linker_10
_symmetry_space_group_name_H-M    P1
_symmetry_Int_Tables_number       1
_symmetry_cell_setting            triclinic
loop_
_symmetry_equiv_pos_as_xyz
'x, y, z'
_cell_length_a     45.32156
_cell_length_b     45.337915
_cell_length_c     31.746863
_cell_angle_alpha  89.793513
_cell_angle_beta   90.043962
_cell_angle_gamma 89.950738
loop_
_atom_site_label
_atom_site_type_symbol
_atom_site_fract_x
_atom_site_fract_y
_atom_site_fract_z
_atom_type_partial_charge
Zn0 Zn 0.95158 0.04784 0.94862 0.0
Zn1 Zn 0.95585 0.05198 0.0492 0.0
O2 O 0.97939 0.04208 -0.00181 0.0
H3 H 0.99727 0.03047 -0.00225 0.0
C4 C 0.91856 0.96298 0.90267 0.0
O5 O 0.89598 0.95882 0.92794 0.0
Zn6 Zn 0.04285 0.94191 0.06539 0.0
Zn7 Zn 0.04109 0.9353 0.96593 0.0
O8 O 0.01713 0.94888 0.01573 0.0
H9 H 0.00199 0.96386 0.01406 0.0
Zn10 Zn 0.94721 0.94048 0.97615 0.0
O11 O 0.93952 0.97426 0.01517 0.0
Zn12 Zn 0.93787 0.9524 0.06936 0.0
H13 H 0.92733 0.99085 0.00711 0.0
Zn14 Zn 0.06202 0.05548 0.98208 0.0
O15 O 0.07053 0.02108 0.02102 0.0
H16 H 0.08582 0.00656 0.01657 0.0
Zn17 Zn 0.0622 0.04358 0.07298 0.0
C18 C 0.05689 0.02116 0.9075 0.0
O19 O 0.03797 0.00796 0.9326 0.0
O20 O 0.91292 0.06897 0.96418 0.0
O21 O 0.91779 0.07258 0.03371 0.0
O22 O 0.07844 0.91131 0.98047 0.0
O23 O 0.07737 0.91555 0.05027 0.0
O24 O 0.92474 0.90302 0.99492 0.0
O25 O 0.91354 0.91501 0.06101 0.0
C26 C 0.00673 0.07399 0.09114 0.0
O27 O 0.07952 0.09441 0.00452 0.0
O28 O 0.08569 0.08165 0.0717 0.0
O29 O 0.01611 0.92391 0.91457 0.0
C30 C 0.90336 0.07742 -0.00012 0.0
O31 O 0.97066 0.06054 0.8924 0.0
C32 C 0.99183 0.92445 0.11194 0.0
O33 O 0.94404 0.95523 0.915 0.0
C34 C 0.08907 0.90548 0.01673 0.0
O35 O 0.07008 0.04407 0.92054 0.0
C36 C 0.92962 0.00731 0.10802 0.0
O37 O 0.97935 0.07866 0.08647 0.0
O38 O 0.0187 0.05245 0.07226 0.0
C39 C 0.91192 0.8973 0.02981 0.0
O40 O 0.01972 0.92181 0.11126 0.0
O41 O 0.97979 0.941 0.08431 0.0
C42 C 0.06751 0.99058 0.11749 0.0
O43 O 0.92175 0.9807 0.11344 0.0
O44 O 0.94552 0.01344 0.07633 0.0
C45 C 0.08911 0.09996 0.04142 0.0
O46 O 0.0729 0.01781 0.12245 0.0
O47 O 0.05595 0.98217 0.08321 0.0
C48 C 0.99453 0.90636 0.91908 0.0
O49 O 0.98954 0.89459 0.95628 0.0
C50 C 0.99551 0.07339 0.89416 0.0
O51 O 0.008 0.07739 0.93106 0.0
Zn52 Zn 0.44057 0.55526 0.47291 0.0
Zn53 Zn 0.443 0.54622 0.57332 0.0
O54 O 0.46705 0.54458 0.52085 0.0
H55 H 0.48561 0.53469 0.51633 0.0
C56 C 0.43802 0.48671 0.43305 0.0
O57 O 0.42573 0.48997 0.47022 0.0
Zn58 Zn 0.56087 0.44586 0.58554 0.0
Zn59 Zn 0.56512 0.44398 0.49014 0.0
O60 O 0.53582 0.43584 0.53619 0.0
H61 H 0.51474 0.4363 0.53197 0.0
Zn62 Zn 0.46636 0.44327 0.48255 0.0
O63 O 0.46643 0.4695 0.53395 0.0
Zn64 Zn 0.45949 0.44294 0.58234 0.0
H65 H 0.47943 0.48624 0.53596 0.0
Zn66 Zn 0.54073 0.54814 0.4655 0.0
O67 O 0.54312 0.52254 0.51765 0.0
H68 H 0.53428 0.50317 0.51891 0.0
Zn69 Zn 0.54595 0.5515 0.56429 0.0
C70 C 0.57266 0.50746 0.41723 0.0
O71 O 0.5846 0.50495 0.4548 0.0
O72 O 0.40226 0.57558 0.49151 0.0
O73 O 0.40401 0.56745 0.5608 0.0
O74 O 0.60546 0.42659 0.50624 0.0
O75 O 0.60161 0.42745 0.57621 0.0
O76 O 0.44447 0.404 0.49263 0.0
O77 O 0.44045 0.40496 0.56249 0.0
C78 C 0.49377 0.56688 0.61607 0.0
O79 O 0.55906 0.58913 0.47373 0.0
O80 O 0.56359 0.58998 0.5436 0.0
O81 O 0.54687 0.43688 0.43146 0.0
C82 C 0.39106 0.57791 0.52821 0.0
O83 O 0.46303 0.56707 0.41908 0.0
C84 C 0.51349 0.4291 0.63866 0.0
O85 O 0.45719 0.46654 0.42818 0.0
C86 C 0.616 0.42109 0.54274 0.0
O87 O 0.55198 0.52598 0.41171 0.0
C88 C 0.42655 0.48967 0.62162 0.0
O89 O 0.46601 0.56603 0.62067 0.0
O90 O 0.50448 0.55828 0.58149 0.0
C91 C 0.43568 0.3925 0.52713 0.0
O92 O 0.54153 0.43034 0.63938 0.0
O93 O 0.50058 0.43721 0.60514 0.0
C94 C 0.57225 0.50638 0.61509 0.0
O95 O 0.43214 0.46229 0.62454 0.0
O96 O 0.43808 0.50381 0.59114 0.0
C97 C 0.56689 0.60203 0.50749 0.0
O98 O 0.56901 0.53419 0.61312 0.0
O99 O 0.56184 0.49032 0.58612 0.0
C100 C 0.52919 0.41517 0.43055 0.0
O101 O 0.52654 0.39858 0.46435 0.0
C102 C 0.48466 0.58457 0.42358 0.0
O103 O 0.48983 0.59595 0.46087 0.0
C104 C 0.38884 0.39999 0.1551 0.0
C105 C 0.39067 0.3799 0.18859 0.0
C106 C 0.37443 0.35362 0.18727 0.0
C107 C 0.35702 0.34714 0.15219 0.0
H108 H 0.27783 0.30701 0.11086 0.0
H109 H 0.2383 0.27083 0.11269 0.0
H110 H 0.23875 0.26699 0.9768 0.0
H111 H 0.27872 0.30292 0.97473 0.0
H112 H 0.33504 0.33329 0.9256 0.0
H113 H 0.36321 0.34543 0.86218 0.0
H114 H 0.40735 0.41541 0.92926 0.0
H115 H 0.3791 0.40379 0.99205 0.0
H116 H 0.3716 0.40872 0.09356 0.0
H117 H 0.40133 0.42036 0.15576 0.0
H118 H 0.37572 0.33791 0.21301 0.0
H119 H 0.34532 0.32633 0.15131 0.0
N120 N 0.31865 0.33861 0.07847 0.0
N121 N 0.31788 0.33885 0.00447 0.0
N122 N 0.35225 0.36771 0.04094 0.0
C123 C 0.30647 0.32919 0.04174 0.0
C124 C 0.34076 0.35825 0.00395 0.0
C125 C 0.34142 0.35799 0.07821 0.0
C126 C 0.28166 0.30786 0.04261 0.0
C127 C 0.26954 0.29858 0.08126 0.0
C128 C 0.24669 0.27795 0.08238 0.0
C129 C 0.23542 0.26604 0.04492 0.0
C130 C 0.24722 0.27554 0.00624 0.0
C131 C 0.27006 0.29624 0.00508 0.0
C132 C 0.35495 0.36741 0.964 0.0
C133 C 0.35041 0.35155 0.92659 0.0
C134 C 0.36671 0.35833 0.8904 0.0
C135 C 0.38763 0.38123 0.89088 0.0
C136 C 0.39125 0.39779 0.92778 0.0
C137 C 0.37514 0.39096 0.96389 0.0
C138 C 0.35622 0.3666 0.11764 0.0
C139 C 0.37193 0.39329 0.11969 0.0
C140 C 0.65217 0.41095 0.13259 0.0
C141 C 0.64998 0.39434 0.16981 0.0
C142 C 0.65708 0.3642 0.16919 0.0
C143 C 0.66625 0.35088 0.13179 0.0
H144 H 0.73056 0.29084 0.08148 0.0
H145 H 0.76043 0.24607 0.0808 0.0
H146 H 0.73303 0.22874 0.9531 0.0
H147 H 0.70332 0.27393 0.95321 0.0
H148 H 0.68681 0.33552 0.89882 0.0
H149 H 0.67442 0.36166 0.83368 0.0
H150 H 0.64066 0.43466 0.90625 0.0
H151 H 0.65333 0.40914 0.97091 0.0
H152 H 0.66221 0.41104 0.06695 0.0
H153 H 0.64656 0.43418 0.13225 0.0
H154 H 0.65565 0.35102 0.19764 0.0
H155 H 0.67148 0.32756 0.13211 0.0
N156 N 0.69054 0.32695 0.05401 0.0
N157 N 0.69182 0.32795 0.98004 0.0
N158 N 0.67047 0.36702 0.01726 0.0
C159 C 0.69826 0.31411 0.01702 0.0
C160 C 0.67792 0.35453 0.98002 0.0
C161 C 0.67656 0.3534 0.0543 0.0
C162 C 0.7147 0.28599 0.01729 0.0
C163 C 0.73062 0.2774 0.05334 0.0
C164 C 0.74776 0.25187 0.05301 0.0
C165 C 0.74889 0.23417 0.01693 0.0
C166 C 0.73226 0.24207 0.98134 0.0
C167 C 0.71549 0.26796 0.98136 0.0
C168 C 0.67103 0.37014 0.94018 0.0
C169 C 0.67689 0.3572 0.90087 0.0
C170 C 0.66971 0.3721 0.86357 0.0
C171 C 0.65669 0.40023 0.86493 0.0
C172 C 0.65111 0.41322 0.90417 0.0
C173 C 0.65819 0.39839 0.94131 0.0
C174 C 0.66801 0.36743 0.09434 0.0
C175 C 0.66096 0.39762 0.09519 0.0
C176 C 0.60391 0.61629 0.90532 0.0
C177 C 0.61906 0.61756 0.86686 0.0
C178 C 0.64912 0.62513 0.86671 0.0
C179 C 0.66358 0.63199 0.90448 0.0
H180 H 0.72406 0.69492 0.95647 0.0
H181 H 0.76331 0.73158 0.96032 0.0
H182 H 0.77478 0.71262 0.09265 0.0
H183 H 0.73562 0.67586 0.08906 0.0
H184 H 0.68277 0.64334 0.13885 0.0
H185 H 0.65546 0.63413 0.20406 0.0
H186 H 0.57974 0.60673 0.13163 0.0
H187 H 0.60667 0.61573 0.06669 0.0
H188 H 0.60584 0.62159 0.97195 0.0
H189 H 0.58078 0.61026 0.90627 0.0
H190 H 0.66122 0.6263 0.83735 0.0
H191 H 0.68667 0.6381 0.90349 0.0
N192 N 0.68811 0.65471 0.98405 0.0
N193 N 0.68748 0.65412 0.05807 0.0
N194 N 0.65023 0.63027 0.02022 0.0
C195 C 0.70053 0.66264 0.02143 0.0
C196 C 0.66233 0.63789 0.0577 0.0
C197 C 0.66297 0.63836 0.98331 0.0
C198 C 0.72647 0.68256 0.02253 0.0
C199 C 0.73515 0.69824 0.98631 0.0
C200 C 0.75751 0.71939 0.98853 0.0
C201 C 0.77189 0.72511 0.02687 0.0
C202 C 0.76414 0.70858 0.06266 0.0
C203 C 0.74159 0.68763 0.06057 0.0
C204 C 0.64689 0.63046 0.09746 0.0
C205 C 0.66036 0.63518 0.13682 0.0
C206 C 0.64482 0.62982 0.17415 0.0
C207 C 0.61546 0.62001 0.17274 0.0
C208 C 0.60224 0.61467 0.13353 0.0
C209 C 0.6178 0.61969 0.09633 0.0
C210 C 0.64831 0.63082 0.94302 0.0
C211 C 0.61837 0.62265 0.94295 0.0
C212 C 0.3583 0.58018 0.91625 0.0
C213 C 0.34757 0.59085 0.8776 0.0
C214 C 0.3298 0.61625 0.87712 0.0
C215 C 0.32342 0.63106 0.91458 0.0
H216 H 0.27378 0.69712 0.96403 0.0
H217 H 0.23993 0.73866 0.96378 0.0
H218 H 0.26096 0.75628 0.09389 0.0
H219 H 0.29517 0.71449 0.09448 0.0
H220 H 0.33826 0.66627 0.14479 0.0
H221 H 0.3568 0.6438 0.21009 0.0
H222 H 0.37545 0.56326 0.14311 0.0
H223 H 0.35724 0.58526 0.07838 0.0
H224 H 0.36079 0.58606 0.98273 0.0
H225 H 0.3717 0.5604 0.9176 0.0
H226 H 0.32142 0.62506 0.84769 0.0
H227 H 0.30997 0.65079 0.91311 0.0
N228 N 0.312 0.66139 0.99322 0.0
N229 N 0.3179 0.66528 0.06653 0.0
N230 N 0.33976 0.6262 0.0298 0.0
C231 C 0.30649 0.67592 0.02977 0.0
C232 C 0.33456 0.64031 0.06664 0.0
C233 C 0.32868 0.63656 0.99297 0.0
C234 C 0.28713 0.70227 0.0294 0.0
C235 C 0.27145 0.70984 0.99263 0.0
C236 C 0.25191 0.73358 0.99246 0.0
C237 C 0.2477 0.75049 0.02888 0.0
C238 C 0.26392 0.74361 0.06534 0.0
C239 C 0.28336 0.7196 0.06568 0.0
C240 C 0.34617 0.62757 0.10635 0.0
C241 C 0.34636 0.64379 0.14405 0.0
C242 C 0.35708 0.63105 0.18131 0.0
C243 C 0.36733 0.60179 0.18152 0.0
C244 C 0.36735 0.58575 0.14385 0.0
C245 C 0.35703 0.59849 0.10671 0.0
C246 C 0.33464 0.62067 0.95322 0.0
C247 C 0.35193 0.59489 0.9536 0.0
C248 C 0.88628 0.86212 0.62665 0.0
C249 C 0.87038 0.86329 0.66448 0.0
C250 C 0.83982 0.85826 0.66392 0.0
C251 C 0.82552 0.85143 0.62614 0.0
H252 H 0.75729 0.79929 0.57903 0.0
H253 H 0.71311 0.76876 0.57851 0.0
H254 H 0.7055 0.7804 0.44402 0.0
H255 H 0.75002 0.81086 0.44406 0.0
H256 H 0.80979 0.83154 0.39281 0.0
H257 H 0.83839 0.83921 0.32839 0.0
H258 H 0.91675 0.85378 0.40297 0.0
H259 H 0.88842 0.84679 0.46694 0.0
H260 H 0.88511 0.85466 0.56045 0.0
H261 H 0.90982 0.86627 0.62622 0.0
H262 H 0.82714 0.859 0.69281 0.0
H263 H 0.802 0.84726 0.62668 0.0
N264 N 0.7993 0.83042 0.54789 0.0
N265 N 0.8017 0.82509 0.47439 0.0
N266 N 0.84185 0.84454 0.51145 0.0
C267 C 0.78649 0.82204 0.51108 0.0
C268 C 0.82948 0.83632 0.47444 0.0
C269 C 0.82697 0.84183 0.54824 0.0
C270 C 0.75744 0.80721 0.51147 0.0
C271 C 0.74602 0.79585 0.54937 0.0
C272 C 0.72076 0.77832 0.54916 0.0
C273 C 0.70617 0.77219 0.51122 0.0
C274 C 0.71639 0.78498 0.47367 0.0
C275 C 0.74194 0.80222 0.47374 0.0
C276 C 0.84668 0.83901 0.43505 0.0
C277 C 0.83315 0.8362 0.3954 0.0
C278 C 0.84954 0.84041 0.35852 0.0
C279 C 0.87972 0.84739 0.36073 0.0
C280 C 0.8934 0.849 0.40032 0.0
C281 C 0.87709 0.84497 0.43701 0.0
C282 C 0.84154 0.8499 0.58826 0.0
C283 C 0.87203 0.85562 0.58895 0.0
C284 C 0.13449 0.91564 0.62038 0.0
C285 C 0.13404 0.9054 0.66211 0.0
C286 C 0.14272 0.87618 0.67068 0.0
C287 C 0.15085 0.85734 0.63789 0.0
H288 H 0.20415 0.78407 0.60496 0.0
H289 H 0.23449 0.74005 0.61368 0.0
H290 H 0.21203 0.71245 0.48772 0.0
H291 H 0.18167 0.75651 0.47863 0.0
H292 H 0.14908 0.80637 0.41428 0.0
H293 H 0.13643 0.82588 0.34417 0.0
H294 H 0.13463 0.91411 0.39482 0.0
H295 H 0.14713 0.89511 0.46387 0.0
H296 H 0.14219 0.90553 0.55587 0.0
H297 H 0.12847 0.93819 0.61291 0.0
H298 H 0.14236 0.86762 0.70257 0.0
H299 H 0.15679 0.83476 0.64531 0.0
N300 N 0.16937 0.82046 0.56702 0.0
N301 N 0.16814 0.81131 0.49412 0.0
N302 N 0.15028 0.85591 0.52082 0.0
C303 C 0.17511 0.80233 0.53392 0.0
C304 C 0.15575 0.83822 0.48749 0.0
C305 C 0.15685 0.84731 0.56057 0.0
C306 C 0.19071 0.77401 0.54089 0.0
C307 C 0.20527 0.76846 0.57927 0.0
C308 C 0.22271 0.74331 0.58431 0.0
C309 C 0.22564 0.72299 0.55133 0.0
C310 C 0.20994 0.7277 0.51375 0.0
C311 C 0.19275 0.75305 0.50848 0.0
C312 C 0.14903 0.84916 0.44464 0.0
C313 C 0.14614 0.82992 0.41023 0.0
C314 C 0.1388 0.84101 0.37029 0.0
C315 C 0.13479 0.87147 0.3642 0.0
C316 C 0.13799 0.89057 0.39852 0.0
C317 C 0.14494 0.87958 0.43821 0.0
C318 C 0.15031 0.86737 0.59597 0.0
C319 C 0.14246 0.89686 0.58771 0.0
C320 C 0.09056 0.16182 0.36845 0.0
C321 C 0.09999 0.17682 0.33208 0.0
C322 C 0.12314 0.19733 0.33549 0.0
C323 C 0.13672 0.20242 0.3744 0.0
H324 H 0.20607 0.24683 0.43456 0.0
H325 H 0.25284 0.27319 0.43992 0.0
H326 H 0.26738 0.23546 0.56322 0.0
H327 H 0.22057 0.20909 0.55819 0.0
H328 H 0.15148 0.19897 0.60771 0.0
H329 H 0.12601 0.17956 0.66983 0.0
H330 H 0.07578 0.12081 0.59075 0.0
H331 H 0.10093 0.14012 0.52871 0.0
H332 H 0.09614 0.15472 0.4343 0.0
H333 H 0.07332 0.14533 0.3669 0.0
H334 H 0.13078 0.2094 0.3081 0.0
H335 H 0.15458 0.21824 0.37602 0.0
N336 N 0.16758 0.20676 0.45498 0.0
N337 N 0.16827 0.19856 0.5281 0.0
N338 N 0.12946 0.18018 0.48721 0.0
C339 C 0.18104 0.21013 0.49298 0.0
C340 C 0.14243 0.18357 0.52535 0.0
C341 C 0.14177 0.19173 0.45192 0.0
C342 C 0.20951 0.22594 0.49602 0.0
C343 C 0.21923 0.24405 0.46279 0.0
C344 C 0.24594 0.25922 0.46586 0.0
C345 C 0.26364 0.25629 0.50196 0.0
C346 C 0.25421 0.23788 0.53492 0.0
C347 C 0.22731 0.22299 0.53211 0.0
C348 C 0.12817 0.17114 0.5633 0.0
C349 C 0.13514 0.1818 0.60361 0.0
C350 C 0.12047 0.17086 0.63909 0.0
C351 C 0.09896 0.14878 0.6349 0.0
C352 C 0.09241 0.13773 0.59477 0.0
C353 C 0.10672 0.14892 0.5593 0.0
C354 C 0.12729 0.18721 0.41065 0.0
C355 C 0.10389 0.16705 0.4072 0.0
C356 C 0.90336 0.12738 0.3926 0.0
C357 C 0.88486 0.13336 0.35804 0.0
C358 C 0.86147 0.15345 0.36317 0.0
C359 C 0.85579 0.16599 0.40263 0.0
H360 H 0.83063 0.2471 0.47557 0.0
H361 H 0.79695 0.2886 0.48625 0.0
H362 H 0.76783 0.25008 0.6035 0.0
H363 H 0.80177 0.20878 0.59341 0.0
H364 H 0.84525 0.16007 0.63546 0.0
H365 H 0.85738 0.12628 0.69274 0.0
H366 H 0.91718 0.07936 0.61089 0.0
H367 H 0.90465 0.11263 0.55334 0.0
H368 H 0.91174 0.13373 0.45813 0.0
H369 H 0.92206 0.11266 0.38948 0.0
H370 H 0.84677 0.15847 0.3372 0.0
H371 H 0.8369 0.18043 0.40606 0.0
N372 N 0.84733 0.19171 0.48704 0.0
N373 N 0.84726 0.18201 0.55983 0.0
N374 N 0.87385 0.1515 0.5142 0.0
C375 C 0.83852 0.19898 0.52666 0.0
C376 C 0.86509 0.15829 0.55383 0.0
C377 C 0.86508 0.16796 0.48067 0.0
C378 C 0.81881 0.22459 0.53357 0.0
C379 C 0.81717 0.24754 0.50373 0.0
C380 C 0.79808 0.27138 0.50995 0.0
C381 C 0.7799 0.27247 0.5457 0.0
C382 C 0.78163 0.24968 0.57565 0.0
C383 C 0.8011 0.22612 0.56987 0.0
C384 C 0.87381 0.13903 0.58963 0.0
C385 C 0.86113 0.14269 0.62967 0.0
C386 C 0.86818 0.12337 0.66261 0.0
C387 C 0.88816 0.10004 0.65633 0.0
C388 C 0.90133 0.0968 0.61658 0.0
C389 C 0.89423 0.11602 0.58363 0.0
C390 C 0.87327 0.15846 0.43768 0.0
C391 C 0.89753 0.1396 0.43194 0.0
C392 C 0.12962 0.12714 0.07761 0.0
C393 C 0.10677 0.1269 0.04787 0.0
C394 C 0.14939 0.15089 0.07972 0.0
C395 C 0.14583 0.17512 0.0519 0.0
C396 C 0.12178 0.17569 0.02344 0.0
C397 C 0.10268 0.15142 0.02151 0.0
C398 C 0.17499 0.14932 0.11012 0.0
C399 C 0.11702 0.20131 0.99367 0.0
C400 C 0.18795 0.24586 0.0738 0.0
C401 C 0.21204 0.24312 0.04631 0.0
C402 C 0.16614 0.22393 0.07598 0.0
C403 C 0.16856 0.19868 0.05014 0.0
C404 C 0.19279 0.19582 0.02232 0.0
C405 C 0.21421 0.21808 0.02072 0.0
C406 C 0.14052 0.22772 0.10588 0.0
C407 C 0.19624 0.1691 0.99445 0.0
H408 H 0.13296 0.10811 0.09785 0.0
H409 H 0.08488 0.15136 -0.00134 0.0
H410 H 0.19588 0.14691 0.09225 0.0
H411 H 0.17662 0.17 0.12853 0.0
H412 H 0.17302 0.13044 0.13234 0.0
H413 H 0.09576 0.19964 0.97642 0.0
H414 H 0.11739 0.22243 0.01119 0.0
H415 H 0.1352 0.20208 0.97032 0.0
H416 H 0.18603 0.26531 0.09337 0.0
H417 H 0.233 0.21562 -7e-05 0.0
H418 H 0.14006 0.20922 0.12884 0.0
H419 H 0.11941 0.2271 0.08818 0.0
H420 H 0.14171 0.2488 0.12352 0.0
H421 H 0.1972 0.14881 0.01404 0.0
H422 H 0.21647 0.17018 0.97476 0.0
H423 H 0.17683 0.16705 0.97335 0.0
C424 C 0.86194 0.09997 0.04049 0.0
C425 C 0.87618 0.09533 0.00186 0.0
C426 C 0.83831 0.11981 0.04365 0.0
C427 C 0.82915 0.13571 0.00746 0.0
C428 C 0.84251 0.13005 0.96802 0.0
C429 C 0.86571 0.10969 0.96563 0.0
C430 C 0.82419 0.12481 0.0861 0.0
C431 C 0.83365 0.14688 0.92884 0.0
C432 C 0.7583 0.18045 0.00577 0.0
C433 C 0.76893 0.20857 0.01566 0.0
C434 C 0.77752 0.15618 0.00417 0.0
C435 C 0.80802 0.16051 0.01156 0.0
C436 C 0.81876 0.18897 0.02148 0.0
C437 C 0.79899 0.21262 0.02383 0.0
C438 C 0.76528 0.126 0.99446 0.0
C439 C 0.85122 0.19458 0.02874 0.0
H440 H 0.86972 0.08864 0.06852 0.0
H441 H 0.87662 0.1062 0.93568 0.0
H442 H 0.83084 0.14672 0.09832 0.0
H443 H 0.79979 0.12481 0.08326 0.0
H444 H 0.83083 0.10776 0.1095 0.0
H445 H 0.84442 0.13808 0.90007 0.0
H446 H 0.8094 0.14612 0.92441 0.0
H447 H 0.83993 0.1704 0.93233 0.0
H448 H 0.73495 0.17746 -0.00028 0.0
H449 H 0.80711 0.23451 0.03111 0.0
H450 H 0.77169 0.11018 0.0196 0.0
H451 H 0.77476 0.11776 0.96454 0.0
H452 H 0.74084 0.12614 0.99162 0.0
H453 H 0.85934 0.18082 0.05527 0.0
H454 H 0.85592 0.21808 0.03594 0.0
H455 H 0.86397 0.18825 0.00034 0.0
C456 C 0.89472 0.84896 0.00115 0.0
C457 C 0.89417 0.86997 0.03351 0.0
C458 C 0.87662 0.82392 0.00261 0.0
C459 C 0.85714 0.81995 0.03698 0.0
C460 C 0.85729 0.84042 0.07059 0.0
C461 C 0.87592 0.86513 0.06856 0.0
C462 C 0.87756 0.8024 0.96643 0.0
C463 C 0.8369 0.8369 0.10786 0.0
C464 C 0.78744 0.77702 0.01262 0.0
C465 C 0.79384 0.74927 0.02995 0.0
C466 C 0.80763 0.80033 0.01552 0.0
C467 C 0.83505 0.79572 0.03592 0.0
C468 C 0.84163 0.76777 0.05368 0.0
C469 C 0.82084 0.74489 0.0507 0.0
C470 C 0.79966 0.82988 -0.00345 0.0
C471 C 0.87085 0.7619 0.07497 0.0
H472 H 0.90901 0.85226 0.97419 0.0
H473 H 0.87551 0.88109 0.0939 0.0
H474 H 0.87709 0.7793 0.97806 0.0
H475 H 0.85785 0.80573 0.9462 0.0
H476 H 0.89757 0.80539 0.94669 0.0
H477 H 0.8416 0.85319 0.13305 0.0
H478 H 0.81371 0.8398 0.09738 0.0
H479 H 0.83884 0.81439 0.12136 0.0
H480 H 0.76639 0.78061 -0.00282 0.0
H481 H 0.82589 0.7234 0.06393 0.0
H482 H 0.81539 0.83548 0.97099 0.0
H483 H 0.80141 0.84739 0.02077 0.0
H484 H 0.77695 0.83018 0.98336 0.0
H485 H 0.88904 0.76477 0.05193 0.0
H486 H 0.87217 0.73927 0.08839 0.0
H487 H 0.87455 0.77803 0.10062 0.0
C488 C 0.13407 0.88167 0.98651 0.0
C489 C 0.11455 0.88532 0.02032 0.0
C490 C 0.15739 0.86136 0.98895 0.0
C491 C 0.16089 0.84399 0.02579 0.0
C492 C 0.14154 0.84795 0.06027 0.0
C493 C 0.11868 0.86869 0.05718 0.0
C494 C 0.17779 0.85793 0.95171 0.0
C495 C 0.14439 0.82963 0.0999 0.0
C496 C 0.19725 0.76933 0.01293 0.0
C497 C 0.22559 0.77453 0.02892 0.0
C498 C 0.17599 0.79175 0.01198 0.0
C499 C 0.18335 0.82015 0.02705 0.0
C500 C 0.21192 0.82556 0.04336 0.0
C501 C 0.23271 0.80256 0.04436 0.0
C502 C 0.14559 0.78498 0.99503 0.0
C503 C 0.2206 0.85567 0.05926 0.0
H504 H 0.13101 0.8946 0.95804 0.0
H505 H 0.10339 0.87117 0.08316 0.0
H506 H 0.20112 0.85977 0.96199 0.0
H507 H 0.17495 0.8357 0.93779 0.0
H508 H 0.17354 0.8747 0.92683 0.0
H509 H 0.12708 0.83495 0.12344 0.0
H510 H 0.14283 0.80584 0.09215 0.0
H511 H 0.16632 0.8333 0.11447 0.0
H512 H 0.19161 0.74754 0.00153 0.0
H513 H 0.2547 0.80661 0.05646 0.0
H514 H 0.14069 0.79941 0.96761 0.0
H515 H 0.12872 0.78963 0.01943 0.0
H516 H 0.14334 0.76163 0.98505 0.0
H517 H 0.21812 0.87222 0.03366 0.0
H518 H 0.24372 0.85625 0.07087 0.0
H519 H 0.20572 0.86243 0.08522 0.0
C520 C 0.5811 0.6503 0.53877 0.0
C521 C 0.5818 0.63082 0.50466 0.0
C522 C 0.59797 0.67618 0.53843 0.0
C523 C 0.61636 0.68231 0.50346 0.0
C524 C 0.61594 0.66347 0.46799 0.0
C525 C 0.59837 0.63805 0.46884 0.0
C526 C 0.59732 0.69609 0.57645 0.0
C527 C 0.63553 0.66905 0.43034 0.0
C528 C 0.65504 0.75625 0.49189 0.0
C529 C 0.68244 0.74997 0.5103 0.0
C530 C 0.63288 0.73463 0.49016 0.0
C531 C 0.63876 0.70604 0.50625 0.0
C532 C 0.66651 0.69968 0.52466 0.0
C533 C 0.6879 0.72183 0.5268 0.0
C534 C 0.60328 0.74231 0.47127 0.0
C535 C 0.67385 0.6693 0.54142 0.0
H536 H 0.56774 0.64502 0.56606 0.0
H537 H 0.59887 0.62302 0.44236 0.0
H538 H 0.61829 0.69379 0.59421 0.0
H539 H 0.59533 0.71951 0.5666 0.0
H540 H 0.57879 0.69064 0.59801 0.0
H541 H 0.63149 0.6531 0.4045 0.0
H542 H 0.632 0.69169 0.41801 0.0
H543 H 0.65902 0.66736 0.43997 0.0
H544 H 0.65092 0.77811 0.47924 0.0
H545 H 0.7093 0.71694 0.54048 0.0
H546 H 0.58551 0.73775 0.49441 0.0
H547 H 0.59897 0.72831 0.44337 0.0
H548 H 0.60193 0.76583 0.46152 0.0
H549 H 0.65824 0.66315 0.56686 0.0
H550 H 0.69666 0.66793 0.55411 0.0
H551 H 0.67144 0.65274 0.51599 0.0
C552 C 0.35227 0.61165 0.49978 0.0
C553 C 0.36334 0.59478 0.53338 0.0
C554 C 0.32784 0.63018 0.50513 0.0
C555 C 0.31382 0.63157 0.54491 0.0
C556 C 0.32392 0.61351 0.57842 0.0
C557 C 0.34872 0.59545 0.57234 0.0
C558 C 0.31792 0.64931 0.46869 0.0
C559 C 0.30919 0.61402 0.62105 0.0
C560 C 0.27625 0.70447 0.56666 0.0
C561 C 0.24715 0.69851 0.55449 0.0
C562 C 0.29795 0.68249 0.56527 0.0
C563 C 0.29022 0.65375 0.55194 0.0
C564 C 0.26054 0.64721 0.54167 0.0
C565 C 0.23935 0.66981 0.54262 0.0
C566 C 0.32944 0.69047 0.57586 0.0
C567 C 0.25141 0.61666 0.52817 0.0
H568 H 0.36335 0.61125 0.46953 0.0
H569 H 0.35694 0.58224 0.59837 0.0
H570 H 0.29405 0.64611 0.46259 0.0
H571 H 0.3212 0.67289 0.47671 0.0
H572 H 0.33026 0.6445 0.43927 0.0
H573 H 0.31763 0.59635 0.64222 0.0
H574 H 0.31316 0.63562 0.63631 0.0
H575 H 0.28497 0.61142 0.61759 0.0
H576 H 0.28235 0.72675 0.57539 0.0
H577 H 0.21677 0.66518 0.53352 0.0
H578 H 0.34334 0.68853 0.54723 0.0
H579 H 0.33848 0.67499 0.59972 0.0
H580 H 0.33144 0.71331 0.58811 0.0
H581 H 0.26091 0.61175 0.49678 0.0
H582 H 0.22704 0.61434 0.52621 0.0
H583 H 0.2601 0.5999 0.55053 0.0
C584 C 0.41129 0.35149 0.48769 0.0
C585 C 0.4162 0.36632 0.52576 0.0
C586 C 0.38903 0.33016 0.48422 0.0
C587 C 0.37102 0.32385 0.51952 0.0
C588 C 0.37712 0.3373 0.55872 0.0
C589 C 0.3998 0.35822 0.56146 0.0
C590 C 0.38357 0.31584 0.44206 0.0
C591 C 0.35831 0.3313 0.59706 0.0
C592 C 0.29145 0.30356 0.49747 0.0
C593 C 0.2914 0.27321 0.50576 0.0
C594 C 0.31728 0.32021 0.50184 0.0
C595 C 0.34378 0.30606 0.51427 0.0
C596 C 0.34397 0.27531 0.52216 0.0
C597 C 0.31764 0.25925 0.51815 0.0
C598 C 0.31609 0.35304 0.49367 0.0
C599 C 0.37193 0.25945 0.53472 0.0
H600 H 0.42402 0.35743 0.46008 0.0
H601 H 0.40347 0.36944 0.5911 0.0
H602 H 0.37969 0.29183 0.44588 0.0
H603 H 0.36349 0.32552 0.42753 0.0
H604 H 0.40233 0.31916 0.42006 0.0
H605 H 0.36789 0.34099 0.62611 0.0
H606 H 0.33602 0.34087 0.59215 0.0
H607 H 0.35551 0.30723 0.60194 0.0
H608 H 0.27108 0.31439 0.48835 0.0
H609 H 0.3176 0.2357 0.52423 0.0
H610 H 0.33165 0.35903 0.46808 0.0
H611 H 0.32306 0.36516 0.52231 0.0
H612 H 0.29365 0.36065 0.4846 0.0
H613 H 0.38919 0.26302 0.51046 0.0
H614 H 0.36848 0.23535 0.53877 0.0
H615 H 0.3805 0.26857 0.56471 0.0
C616 C 0.6571 0.39288 0.50927 0.0
C617 C 0.644 0.40423 0.54587 0.0
C618 C 0.68104 0.37337 0.51156 0.0
C619 C 0.69263 0.36537 0.55141 0.0
C620 C 0.68069 0.37804 0.58838 0.0
C621 C 0.65632 0.39714 0.58521 0.0
C622 C 0.69284 0.36006 0.47137 0.0
C623 C 0.69295 0.37057 0.63133 0.0
C624 C 0.72823 0.2897 0.55658 0.0
C625 C 0.75806 0.29652 0.55056 0.0
C626 C 0.70681 0.312 0.558 0.0
C627 C 0.71553 0.34189 0.55419 0.0
C628 C 0.74582 0.34896 0.54986 0.0
C629 C 0.76673 0.32612 0.54752 0.0
C630 C 0.6747 0.30348 0.56183 0.0
C631 C 0.75603 0.38056 0.54665 0.0
H632 H 0.64785 0.3982 0.47868 0.0
H633 H 0.6464 0.4058 0.61363 0.0
H634 H 0.71704 0.36328 0.46926 0.0
H635 H 0.6887 0.33594 0.47144 0.0
H636 H 0.68242 0.36978 0.44282 0.0
H637 H 0.68935 0.34685 0.63826 0.0
H638 H 0.71712 0.37445 0.63192 0.0
H639 H 0.68252 0.38375 0.6567 0.0
H640 H 0.72155 0.26678 0.55858 0.0
H641 H 0.78987 0.33135 0.5432 0.0
H642 H 0.66262 0.31051 0.53308 0.0
H643 H 0.66444 0.31493 0.58894 0.0
H644 H 0.67171 0.27933 0.56603 0.0
H645 H 0.74824 0.39035 0.51656 0.0
H646 H 0.78045 0.38245 0.54793 0.0
H647 H 0.74641 0.39383 0.57254 0.0
C648 C 0.02237 0.12332 0.11674 0.0
C649 C 0.02381 0.09256 0.11983 0.0
C650 C 0.03643 0.14118 0.14668 0.0
C651 C 0.05146 0.12774 0.18083 0.0
C652 C 0.05348 0.09659 0.1833 0.0
C653 C 0.03958 0.07939 0.15266 0.0
C654 C 0.03417 0.17428 0.14272 0.0
C655 C 0.06898 0.08135 0.21947 0.0
C656 C 0.10438 0.16595 0.25492 0.0
C657 C 0.0866 0.16951 0.29071 0.0
C658 C 0.09269 0.15437 0.21754 0.0
C659 C 0.06272 0.14575 0.21627 0.0
C660 C 0.04422 0.15121 0.25127 0.0
C661 C 0.05634 0.1633 0.28791 0.0
C662 C 0.11281 0.14969 0.18036 0.0
C663 C 0.01211 0.14226 0.25128 0.0
H664 H 0.00993 0.13335 0.09124 0.0
H665 H 0.03956 0.05561 0.15573 0.0
H666 H 0.01969 0.18295 0.16797 0.0
H667 H 0.05618 0.18459 0.14677 0.0
H668 H 0.02496 0.18118 0.11178 0.0
H669 H 0.07016 0.05706 0.21517 0.0
H670 H 0.09174 0.08999 0.22294 0.0
H671 H 0.05708 0.08596 0.24927 0.0
H672 H 0.12779 0.17067 0.25673 0.0
H673 H 0.04229 0.16678 0.31505 0.0
H674 H 0.10227 0.15798 0.15107 0.0
H675 H 0.11692 0.12575 0.17621 0.0
H676 H 0.13436 0.16097 0.18447 0.0
H677 H 0.00103 0.14956 0.22187 0.0
H678 H -8e-05 0.15148 0.27859 0.0
H679 H 0.01057 0.11785 0.25271 0.0
C680 C 0.89133 0.0327 0.15097 0.0
C681 C 0.92072 0.03021 0.13804 0.0
C682 C 0.88338 0.05239 0.1831 0.0
C683 C 0.90554 0.06935 0.20314 0.0
C684 C 0.93512 0.06752 0.18904 0.0
C685 C 0.94234 0.04779 0.15677 0.0
C686 C 0.85158 0.05394 0.19698 0.0
C687 C 0.95945 0.085 0.20977 0.0
C688 C 0.88631 0.13149 0.27869 0.0
C689 C 0.88914 0.11721 0.3178 0.0
C690 C 0.89094 0.11612 0.24084 0.0
C691 C 0.89869 0.08586 0.2423 0.0
C692 C 0.90104 0.07127 0.28164 0.0
C693 C 0.89608 0.08705 0.31877 0.0
C694 C 0.88808 0.13229 0.19939 0.0
C695 C 0.90924 0.039 0.2846 0.0
H696 H 0.8747 0.01884 0.13652 0.0
H697 H 0.96522 0.04479 0.14792 0.0
H698 H 0.84933 0.04378 0.22866 0.0
H699 H 0.84432 0.07724 0.19951 0.0
H700 H 0.83662 0.04223 0.17492 0.0
H701 H 0.98066 0.08319 0.19253 0.0
H702 H 0.95327 0.10863 0.21175 0.0
H703 H 0.96286 0.07688 0.24243 0.0
H704 H 0.88103 0.1548 0.27769 0.0
H705 H 0.89756 0.07565 0.34877 0.0
H706 H 0.87269 0.1204 0.17821 0.0
H707 H 0.90983 0.13304 0.18342 0.0
H708 H 0.88 0.15524 0.20349 0.0
H709 H 0.89325 0.02551 0.26654 0.0
H710 H 0.9097 0.03086 0.31764 0.0
H711 H 0.93133 0.0354 0.27047 0.0
C712 C 0.94477 0.91485 0.15118 0.0
C713 C 0.97454 0.90837 0.14435 0.0
C714 C 0.92883 0.90148 0.18373 0.0
C715 C 0.9431 0.88088 0.21031 0.0
C716 C 0.97276 0.87288 0.20243 0.0
C717 C 0.98823 0.88691 0.16975 0.0
C718 C 0.89721 0.91072 0.19105 0.0
C719 C 0.9886 0.85057 0.22967 0.0
C720 C 0.91529 0.87952 0.32237 0.0
C721 C 0.89665 0.85486 0.32226 0.0
C722 C 0.93106 0.88769 0.28636 0.0
C723 C 0.9281 0.87081 0.24922 0.0
C724 C 0.90963 0.84564 0.24889 0.0
C725 C 0.89399 0.83799 0.28551 0.0
C726 C 0.95031 0.91489 0.28779 0.0
C727 C 0.90619 0.82707 0.2098 0.0
H728 H 0.93398 0.93113 0.13225 0.0
H729 H 0.01123 0.88139 0.16465 0.0
H730 H 0.88277 0.89109 0.19406 0.0
H731 H 0.89567 0.92317 0.22101 0.0
H732 H 0.88858 0.9249 0.1652 0.0
H733 H 0.00881 0.84205 0.21412 0.0
H734 H 0.9951 0.8611 0.25977 0.0
H735 H 0.97401 0.83167 0.23737 0.0
H736 H 0.91701 0.89294 0.35046 0.0
H737 H 0.87979 0.81876 0.28548 0.0
H738 H 0.94208 0.9315 0.26486 0.0
H739 H 0.97324 0.90923 0.27863 0.0
H740 H 0.95079 0.92511 0.31953 0.0
H741 H 0.89591 0.84035 0.18429 0.0
H742 H 0.89235 0.80724 0.21546 0.0
H743 H 0.92817 0.81989 0.19832 0.0
C744 C 0.094 0.94581 0.14163 0.0
C745 C 0.0751 0.96935 0.15059 0.0
C746 C 0.10364 0.92678 0.1737 0.0
C747 C 0.0936 0.93129 0.21538 0.0
C748 C 0.0737 0.95459 0.22421 0.0
C749 C 0.06498 0.97365 0.19166 0.0
C750 C 0.12519 0.90249 0.16321 0.0
C751 C 0.06251 0.96005 0.26829 0.0
C752 C 0.10239 0.87286 0.30038 0.0
C753 C 0.12664 0.88391 0.3227 0.0
C754 C 0.09185 0.88749 0.26431 0.0
C755 C 0.10604 0.9136 0.25051 0.0
C756 C 0.13147 0.92389 0.27173 0.0
C757 C 0.14146 0.90889 0.30757 0.0
C758 C 0.06483 0.87585 0.24213 0.0
C759 C 0.1475 0.95138 0.25751 0.0
H760 H 0.1024 0.94322 0.10995 0.0
H761 H 0.05043 0.99206 0.19829 0.0
H762 H 0.1441 0.90254 0.18542 0.0
H763 H 0.11403 0.88084 0.1664 0.0
H764 H 0.13395 0.90459 0.13068 0.0
H765 H 0.04555 0.97775 0.26924 0.0
H766 H 0.05285 0.93955 0.28155 0.0
H767 H 0.08115 0.96651 0.28896 0.0
H768 H 0.09085 0.85362 0.31225 0.0
H769 H 0.16047 0.91717 0.32457 0.0
H770 H 0.06922 0.87339 0.20795 0.0
H771 H 0.04641 0.89182 0.24545 0.0
H772 H 0.05765 0.85421 0.25504 0.0
H773 H 0.15358 0.94958 0.22376 0.0
H774 H 0.16785 0.95546 0.27611 0.0
H775 H 0.13276 0.9708 0.26068 0.0
C776 C 0.0865 0.02094 0.84103 0.0
C777 C 0.0659 0.00719 0.86757 0.0
C778 C 0.09784 0.00623 0.80578 0.0
C779 C 0.08861 0.97704 0.79732 0.0
C780 C 0.06728 0.96336 0.82333 0.0
C781 C 0.05578 0.97885 0.85768 0.0
C782 C 0.1204 0.02154 0.77843 0.0
C783 C 0.05685 0.93221 0.81541 0.0
C784 C 0.09811 0.94227 0.69003 0.0
C785 C 0.12338 0.92488 0.69623 0.0
C786 C 0.08707 0.96014 0.72226 0.0
C787 C 0.10155 0.96044 0.76171 0.0
C788 C 0.12723 0.94318 0.76811 0.0
C789 C 0.13791 0.92565 0.73518 0.0
C790 C 0.05921 0.97763 0.7145 0.0
C791 C 0.14265 0.94226 0.81028 0.0
H792 H 0.09428 0.04294 0.84829 0.0
H793 H 0.03957 0.96832 0.87766 0.0
H794 H 0.14238 0.01136 0.78362 0.0
H795 H 0.11486 0.01881 0.74461 0.0
H796 H 0.12204 0.04546 0.78551 0.0
H797 H 0.04742 0.92205 0.84422 0.0
H798 H 0.03952 0.93258 0.79071 0.0
H799 H 0.075 0.9178 0.80427 0.0
H800 H 0.08643 0.94132 0.66025 0.0
H801 H 0.15756 0.9124 0.73999 0.0
H802 H 0.06034 -0.00043 0.72971 0.0
H803 H 0.04021 0.96564 0.72838 0.0
H804 H 0.05488 0.98076 0.68033 0.0
H805 H 0.14855 0.96488 0.82041 0.0
H806 H 0.16302 0.92862 0.80959 0.0
H807 H 0.1275 0.93299 0.83438 0.0
C808 C 0.03966 0.09277 0.85625 0.0
C809 C 0.01002 0.08407 0.85538 0.0
C810 C 0.05392 0.10242 0.81961 0.0
C811 C 0.03773 0.10477 0.7816 0.0
C812 C 0.0076 0.09664 0.78066 0.0
C813 C 0.99424 0.08595 0.81749 0.0
C814 C 0.08635 0.10994 0.8215 0.0
C815 C 0.98942 0.09925 0.74094 0.0
C816 C 0.06986 0.15714 0.70047 0.0
C817 C 0.08304 0.13748 0.67221 0.0
C818 C 0.0543 0.14672 0.73564 0.0
C819 C 0.05248 0.11597 0.74306 0.0
C820 C 0.0657 0.09603 0.71452 0.0
C821 C 0.08061 0.10705 0.67915 0.0
C822 C 0.03966 0.16858 0.76471 0.0
C823 C 0.06409 0.06311 0.72119 0.0
H824 H 0.05188 0.09186 0.88554 0.0
H825 H 0.97127 0.07958 0.81675 0.0
H826 H 0.09857 0.09726 0.79727 0.0
H827 H 0.08958 0.13369 0.81446 0.0
H828 H 0.09616 0.10503 0.85285 0.0
H829 H 0.96547 0.09644 0.74714 0.0
H830 H 0.99293 0.12103 0.72569 0.0
H831 H 0.99639 0.08206 0.71827 0.0
H832 H 0.07135 0.18067 0.69464 0.0
H833 H 0.0908 0.09186 0.65721 0.0
H834 H 0.04963 0.16708 0.79656 0.0
H835 H 0.01587 0.16324 0.76797 0.0
H836 H 0.04179 0.19165 0.75321 0.0
H837 H 0.06852 0.0573 0.75456 0.0
H838 H 0.07995 0.05107 0.70084 0.0
H839 H 0.04155 0.05528 0.71356 0.0
C840 C 0.88679 0.98907 0.85026 0.0
C841 C 0.91491 0.97984 0.86309 0.0
C842 C 0.88311 0.00714 0.81475 0.0
C843 C 0.90821 0.0166 0.79192 0.0
C844 C 0.93667 0.00681 0.80412 0.0
C845 C 0.93963 0.98835 0.83941 0.0
C846 C 0.85237 0.01655 0.80213 0.0
C847 C 0.96414 0.01572 0.78035 0.0
C848 C 0.89635 0.04837 0.68247 0.0
C849 C 0.89466 0.07873 0.6908 0.0
C850 C 0.90123 0.0279 0.71501 0.0
C851 C 0.90459 0.03803 0.75681 0.0
C852 C 0.90346 0.06867 0.76535 0.0
C853 C 0.89844 0.0886 0.73225 0.0
C854 C 0.90206 0.99538 0.70486 0.0
C855 C 0.90643 0.08067 0.8095 0.0
H856 H 0.86756 0.98241 0.86821 0.0
H857 H 0.96147 0.98125 0.84903 0.0
H858 H 0.84988 0.04066 0.80682 0.0
H859 H 0.84861 0.01203 0.76822 0.0
H860 H 0.83507 0.00508 0.82075 0.0
H861 H 0.98396 0.01508 0.80098 0.0
H862 H 0.9678 -3e-05 0.75422 0.0
H863 H 0.96219 0.03811 0.76646 0.0
H864 H 0.89304 0.04052 0.65061 0.0
H865 H 0.8975 0.11202 0.73892 0.0
H866 H 0.88492 0.98354 0.72325 0.0
H867 H 0.92374 0.986 0.7141 0.0
H868 H 0.89842 0.99104 0.67084 0.0
H869 H 0.88422 0.08196 0.82403 0.0
H870 H 0.91586 0.10329 0.80915 0.0
H871 H 0.92043 0.06648 0.82985 0.0
C872 C 0.95119 0.88046 0.88741 0.0
C873 C 0.97442 0.90067 0.88338 0.0
C874 C 0.93188 0.87521 0.85373 0.0
C875 C 0.93613 0.89032 0.81512 0.0
C876 C 0.95893 0.91141 0.81131 0.0
C877 C 0.97774 0.91639 0.84554 0.0
C878 C 0.9072 0.85319 0.85919 0.0
C879 C 0.96377 0.92842 0.77091 0.0
C880 C 0.91188 0.85369 0.71406 0.0
C881 C 0.88604 0.86928 0.70436 0.0
C882 C 0.92803 0.86002 0.75049 0.0
C883 C 0.91811 0.88256 0.77778 0.0
C884 C 0.89171 0.89802 0.76855 0.0
C885 C 0.87591 0.89113 0.73186 0.0
C886 C 0.95605 0.84301 0.75932 0.0
C887 C 0.88079 0.92276 0.79612 0.0
H888 H 0.94816 0.86862 0.91681 0.0
H889 H 0.9949 0.93285 0.8427 0.0
H890 H 0.88584 0.86329 0.84989 0.0
H891 H 0.91099 0.834 0.83827 0.0
H892 H 0.90541 0.84514 0.89215 0.0
H893 H 0.98216 0.94451 0.77349 0.0
H894 H 0.96878 0.91294 0.74489 0.0
H895 H 0.94339 0.94055 0.76219 0.0
H896 H 0.91952 0.83657 0.69293 0.0
H897 H 0.85612 0.90344 0.72403 0.0
H898 H 0.95481 0.83242 0.79082 0.0
H899 H 0.97513 0.85834 0.75975 0.0
H900 H 0.96029 0.82568 0.73543 0.0
H901 H 0.88434 0.91783 0.83001 0.0
H902 H 0.857 0.92738 0.79085 0.0
H903 H 0.89332 0.94303 0.78826 0.0
C904 C 0.50946 0.56084 0.69044 0.0
C905 C 0.51316 0.57468 0.65136 0.0
C906 C 0.52855 0.567 0.72406 0.0
C907 C 0.55113 0.58827 0.71869 0.0
C908 C 0.55487 0.60231 0.67913 0.0
C909 C 0.53598 0.59506 0.6457 0.0
C910 C 0.52452 0.55081 0.76529 0.0
C911 C 0.57852 0.62528 0.67239 0.0
C912 C 0.57638 0.62592 0.81878 0.0
C913 C 0.60305 0.6114 0.82721 0.0
C914 C 0.55972 0.61912 0.78292 0.0
C915 C 0.56978 0.59695 0.75513 0.0
C916 C 0.59708 0.58267 0.76294 0.0
C917 C 0.61349 0.59016 0.79893 0.0
C918 C 0.53111 0.63537 0.77514 0.0
C919 C 0.60835 0.55856 0.73451 0.0
H920 H 0.49199 0.54472 0.69441 0.0
H921 H 0.53858 0.60579 0.61539 0.0
H922 H 0.54566 0.54053 0.77517 0.0
H923 H 0.51802 0.56661 0.79023 0.0
H924 H 0.5074 0.53334 0.76325 0.0
H925 H 0.57908 0.63352 0.63944 0.0
H926 H 0.57465 0.64425 0.69369 0.0
H927 H 0.60049 0.61599 0.68033 0.0
H928 H 0.56849 0.64257 0.84048 0.0
H929 H 0.63398 0.57872 0.8057 0.0
H930 H 0.51235 0.6197 0.7768 0.0
H931 H 0.53109 0.64517 0.74306 0.0
H932 H 0.52731 0.65321 0.79841 0.0
H933 H 0.59608 0.53799 0.74147 0.0
H934 H 0.63224 0.55428 0.73948 0.0
H935 H 0.60467 0.56399 0.70082 0.0
C936 C 0.39647 0.48756 0.68764 0.0
C937 C 0.40923 0.50437 0.65518 0.0
C938 C 0.38243 0.5012 0.72181 0.0
C939 C 0.38139 0.53235 0.72367 0.0
C940 C 0.39251 0.54933 0.68985 0.0
C941 C 0.40611 0.53507 0.65604 0.0
C942 C 0.36938 0.48236 0.7564 0.0
C943 C 0.39135 0.58264 0.69027 0.0
C944 C 0.33471 0.57036 0.80667 0.0
C945 C 0.35585 0.57596 0.83791 0.0
C946 C 0.34256 0.55608 0.76913 0.0
C947 C 0.37219 0.54723 0.763 0.0
C948 C 0.39363 0.55301 0.79435 0.0
C949 C 0.38519 0.56733 0.83138 0.0
C950 C 0.31915 0.55027 0.73634 0.0
C951 C 0.4256 0.54437 0.78858 0.0
H952 H 0.39799 0.46373 0.68688 0.0
H953 H 0.41505 0.54821 0.6311 0.0
H954 H 0.37837 0.48897 0.78747 0.0
H955 H 0.34517 0.4858 0.75757 0.0
H956 H 0.37372 0.45848 0.75164 0.0
H957 H 0.39849 0.59244 0.65981 0.0
H958 H 0.36864 0.59034 0.69723 0.0
H959 H 0.40596 0.59111 0.71554 0.0
H960 H 0.31196 0.57681 0.81183 0.0
H961 H 0.40168 0.57212 0.85514 0.0
H962 H 0.31473 0.52625 0.73476 0.0
H963 H 0.3268 0.55736 0.70471 0.0
H964 H 0.29812 0.56179 0.74357 0.0
H965 H 0.42731 0.52054 0.7812 0.0
H966 H 0.43915 0.54897 0.81698 0.0
H967 H 0.43512 0.55667 0.76154 0.0
C968 C 0.50981 0.41853 0.71583 0.0
C969 C 0.49651 0.41954 0.676 0.0
C970 C 0.49355 0.41056 0.7517 0.0
C971 C 0.46304 0.40439 0.74765 0.0
C972 C 0.44964 0.40494 0.70739 0.0
C973 C 0.46673 0.41188 0.67203 0.0
C974 C 0.50903 0.40965 0.7938 0.0
C975 C 0.41715 0.39863 0.70164 0.0
C976 C 0.42013 0.36374 0.83235 0.0
C977 C 0.40664 0.38714 0.85379 0.0
C978 C 0.43921 0.36904 0.79838 0.0
C979 C 0.44466 0.39841 0.78538 0.0
C980 C 0.43145 0.42213 0.80722 0.0
C981 C 0.41249 0.41622 0.84108 0.0
C982 C 0.45392 0.3433 0.77686 0.0
C983 C 0.43733 0.45375 0.79473 0.0
H984 H 0.53282 0.42442 0.71912 0.0
H985 H 0.45661 0.41141 0.64125 0.0
H986 H 0.50633 0.43126 0.80962 0.0
H987 H 0.49975 0.39235 0.81472 0.0
H988 H 0.53306 0.40554 0.79001 0.0
H989 H 0.40973 0.40226 0.66866 0.0
H990 H 0.41242 0.37543 0.71047 0.0
H991 H 0.40388 0.41293 0.72269 0.0
H992 H 0.41625 0.34127 0.84272 0.0
H993 H 0.40208 0.43438 0.8575 0.0
H994 H 0.47824 0.34616 0.77758 0.0
H995 H 0.44719 0.34249 0.74329 0.0
H996 H 0.44832 0.32187 0.79192 0.0
H997 H 0.46125 0.45854 0.79727 0.0
H998 H 0.42522 0.46964 0.81487 0.0
H999 H 0.43096 0.45736 0.76135 0.0
C1000 C 0.61478 0.48064 0.64715 0.0
C1001 C 0.58657 0.49269 0.65137 0.0
C1002 C 0.62828 0.46613 0.68111 0.0
C1003 C 0.61272 0.4631 0.71954 0.0
C1004 C 0.58409 0.47534 0.72372 0.0
C1005 C 0.57144 0.49036 0.68952 0.0
C1006 C 0.65924 0.45435 0.67606 0.0
C1007 C 0.56684 0.47273 0.76423 0.0
C1008 C 0.63282 0.4007 0.79391 0.0
C1009 C 0.64785 0.4158 0.82581 0.0
C1010 C 0.6219 0.41577 0.75855 0.0
C1011 C 0.62614 0.44662 0.75513 0.0
C1012 C 0.64231 0.46178 0.78642 0.0
C1013 C 0.6529 0.44618 0.82148 0.0
C1014 C 0.60496 0.39884 0.72556 0.0
C1015 C 0.64765 0.49459 0.78376 0.0
H1016 H 0.62625 0.48266 0.61731 0.0
H1017 H 0.54951 0.49976 0.69227 0.0
H1018 H 0.67431 0.4663 0.69764 0.0
H1019 H 0.66014 0.4307 0.68494 0.0
H1020 H 0.66755 0.45688 0.64333 0.0
H1021 H 0.54342 0.47945 0.76021 0.0
H1022 H 0.56747 0.44975 0.77632 0.0
H1023 H 0.57701 0.48706 0.78846 0.0
H1024 H 0.62865 0.37728 0.79733 0.0
H1025 H 0.6649 0.45785 0.84582 0.0
H1026 H 0.61489 0.40242 0.69402 0.0
H1027 H 0.58196 0.40708 0.72414 0.0
H1028 H 0.60447 0.37477 0.7322 0.0
H1029 H 0.65358 0.50134 0.75123 0.0
H1030 H 0.66546 0.50178 0.80547 0.0
H1031 H 0.62713 0.50641 0.79254 0.0
C1032 C 0.57179 0.49277 0.34155 0.0
C1033 C 0.58326 0.48903 0.38223 0.0
C1034 C 0.58228 0.47581 0.30795 0.0
C1035 C 0.60468 0.45466 0.31538 0.0
C1036 C 0.61586 0.45031 0.35652 0.0
C1037 C 0.60504 0.46763 0.38949 0.0
C1038 C 0.56999 0.48105 0.26433 0.0
C1039 C 0.63969 0.42783 0.36554 0.0
C1040 C 0.61653 0.3962 0.23215 0.0
C1041 C 0.6397 0.40857 0.20886 0.0
C1042 C 0.60507 0.41079 0.2674 0.0
C1043 C 0.61739 0.43812 0.27964 0.0
C1044 C 0.64132 0.45027 0.25687 0.0
C1045 C 0.65213 0.43537 0.22158 0.0
C1046 C 0.57918 0.39752 0.29064 0.0
C1047 C 0.65513 0.47929 0.26932 0.0
H1048 H 0.55483 0.50915 0.33585 0.0
H1049 H 0.61381 0.46445 0.42096 0.0
H1050 H 0.58717 0.49126 0.24415 0.0
H1051 H 0.5636 0.45985 0.24955 0.0
H1052 H 0.55045 0.49579 0.26461 0.0
H1053 H 0.645 0.42623 0.39965 0.0
H1054 H 0.63275 0.40576 0.35428 0.0
H1055 H 0.66008 0.43384 0.3482 0.0
H1056 H 0.60675 0.37561 0.22194 0.0
H1057 H 0.67023 0.44474 0.20369 0.0
H1058 H 0.55975 0.41226 0.28758 0.0
H1059 H 0.58422 0.39555 0.32474 0.0
H1060 H 0.57313 0.37541 0.27841 0.0
H1061 H 0.63854 0.49723 0.26692 0.0
H1062 H 0.67431 0.48512 0.24917 0.0
H1063 H 0.66257 0.47832 0.3026 0.0
C1064 C 0.50519 0.57151 0.35326 0.0
C1065 C 0.50501 0.59027 0.38823 0.0
C1066 C 0.52482 0.57614 0.31984 0.0
C1067 C 0.5444 0.60041 0.32113 0.0
C1068 C 0.54456 0.61927 0.35656 0.0
C1069 C 0.52494 0.61387 0.38986 0.0
C1070 C 0.5239 0.55543 0.28275 0.0
C1071 C 0.56507 0.64545 0.35891 0.0
C1072 C 0.60933 0.59955 0.2456 0.0
C1073 C 0.59812 0.61612 0.21184 0.0
C1074 C 0.59224 0.59456 0.28182 0.0
C1075 C 0.56356 0.60686 0.28437 0.0
C1076 C 0.55245 0.62414 0.25071 0.0
C1077 C 0.56984 0.62847 0.21478 0.0
C1078 C 0.60435 0.5752 0.31657 0.0
C1079 C 0.52195 0.63756 0.25231 0.0
H1080 H 0.4901 0.55301 0.35205 0.0
H1081 H 0.52497 0.62836 0.41695 0.0
H1082 H 0.51013 0.56533 0.25748 0.0
H1083 H 0.54623 0.55146 0.26968 0.0
H1084 H 0.51414 0.53384 0.29157 0.0
H1085 H 0.563 0.65753 0.38915 0.0
H1086 H 0.58827 0.6381 0.35521 0.0
H1087 H 0.56023 0.66094 0.33266 0.0
H1088 H 0.63109 0.58976 0.24311 0.0
H1089 H 0.5613 0.64154 0.18882 0.0
H1090 H 0.59055 0.5551 0.31959 0.0
H1091 H 0.60336 0.5869 0.34717 0.0
H1092 H 0.62751 0.56836 0.3106 0.0
H1093 H 0.50514 0.61979 0.25348 0.0
H1094 H 0.51729 0.65183 0.22457 0.0
H1095 H 0.51939 0.65089 0.28132 0.0
C1096 C 0.40605 0.52618 0.4026 0.0
C1097 C 0.42934 0.5061 0.39768 0.0
C1098 C 0.39692 0.54423 0.36913 0.0
C1099 C 0.41105 0.5417 0.32962 0.0
C1100 C 0.43501 0.522 0.3247 0.0
C1101 C 0.44411 0.50462 0.35898 0.0
C1102 C 0.37167 0.56547 0.37577 0.0
C1103 C 0.45034 0.51852 0.28282 0.0
C1104 C 0.36678 0.55949 0.23169 0.0
C1105 C 0.37755 0.58745 0.22082 0.0
C1106 C 0.37731 0.54458 0.26734 0.0
C1107 C 0.39925 0.55794 0.29261 0.0
C1108 C 0.40997 0.58638 0.28214 0.0
C1109 C 0.39886 0.60089 0.24632 0.0
C1110 C 0.36522 0.51434 0.27764 0.0
C1111 C 0.43396 0.601 0.30763 0.0
H1112 H 0.3947 0.52766 0.43255 0.0
H1113 H 0.46238 0.48941 0.35513 0.0
H1114 H 0.37841 0.58808 0.36637 0.0
H1115 H 0.35276 0.55912 0.35552 0.0
H1116 H 0.36414 0.56594 0.40906 0.0
H1117 H 0.47014 0.50422 0.28515 0.0
H1118 H 0.43492 0.50858 0.25974 0.0
H1119 H 0.45702 0.54037 0.27025 0.0
H1120 H 0.35011 0.54922 0.21211 0.0
H1121 H 0.40745 0.62236 0.23754 0.0
H1122 H 0.35583 0.51419 0.3099 0.0
H1123 H 0.38328 0.4978 0.27703 0.0
H1124 H 0.34781 0.50733 0.25517 0.0
H1125 H 0.4302 0.59802 0.34192 0.0
H1126 H 0.43561 0.62497 0.30062 0.0
H1127 H 0.45544 0.59064 0.29988 0.0
C1128 C 0.51235 0.42759 0.35746 0.0
C1129 C 0.50988 0.41009 0.39379 0.0
C1130 C 0.49301 0.42376 0.32338 0.0
C1131 C 0.47093 0.40173 0.32564 0.0
C1132 C 0.46847 0.38392 0.36214 0.0
C1133 C 0.4879 0.38839 0.39581 0.0
C1134 C 0.49667 0.44295 0.2848 0.0
C1135 C 0.44487 0.36058 0.36615 0.0
C1136 C 0.40416 0.40692 0.25376 0.0
C1137 C 0.41098 0.38558 0.22366 0.0
C1138 C 0.42349 0.41246 0.28729 0.0
C1139 C 0.45055 0.39685 0.28976 0.0
C1140 C 0.45772 0.37571 0.25868 0.0
C1141 C 0.4376 0.37006 0.22617 0.0
C1142 C 0.41526 0.43558 0.31923 0.0
C1143 C 0.48651 0.35894 0.26002 0.0
H1144 H 0.52931 0.44437 0.35567 0.0
H1145 H 0.48558 0.375 0.42397 0.0
H1146 H 0.50846 0.43029 0.26016 0.0
H1147 H 0.47501 0.44967 0.27163 0.0
H1148 H 0.50962 0.46311 0.29185 0.0
H1149 H 0.42312 0.37143 0.37041 0.0
H1150 H 0.44358 0.34697 0.33725 0.0
H1151 H 0.4489 0.34566 0.39338 0.0
H1152 H 0.3836 0.41905 0.25118 0.0
H1153 H 0.44277 0.35377 0.20235 0.0
H1154 H 0.42825 0.45571 0.31258 0.0
H1155 H 0.42057 0.42821 0.35174 0.0
H1156 H 0.39148 0.44145 0.31763 0.0
H1157 H 0.5053 0.37461 0.2607 0.0
H1158 H 0.48921 0.34408 0.23254 0.0
H1159 H 0.48767 0.3455 0.28926 0.0
loop_
_geom_bond_atom_site_label_1
_geom_bond_atom_site_label_2
_geom_bond_distance
_geom_bond_site_symmetry_2
_ccdc_geom_bond_type
Zn0 O2 1.933 1_556 S
Zn0 O20 1.985 . S
Zn0 O31 1.955 . S
Zn1 O2 1.911 . S
Zn1 O21 1.970 . S
Zn1 O37 1.945 . S
Zn1 O44 1.981 . S
O2 Zn0 1.933 1_554 S
O2 Zn1 1.911 . S
O2 H3 0.841 1_655 S
H3 O2 0.841 1_455 S
C4 O5 1.246 . S
C4 O33 1.276 1_545 S
O5 C4 1.246 . S
Zn6 O8 1.911 . S
Zn6 O23 1.970 . S
Zn6 O40 1.945 . S
Zn6 O47 1.981 . S
Zn7 O8 1.933 1_556 S
Zn7 O22 1.985 . S
Zn7 O29 1.955 . S
O8 Zn6 1.911 . S
O8 Zn7 1.933 1_554 S
O8 H9 0.841 1_455 S
H9 O8 0.841 1_655 S
Zn10 O11 1.933 1_556 S
Zn10 O24 1.985 . S
Zn10 O33 1.955 . S
O11 Zn10 1.933 1_554 S
O11 Zn12 1.911 . S
O11 H13 0.841 1_565 S
Zn12 O11 1.911 . S
Zn12 O25 1.970 . S
Zn12 O41 1.981 . S
Zn12 O43 1.945 . S
H13 O11 0.841 1_545 S
Zn14 O15 1.933 1_556 S
Zn14 O27 1.985 . S
Zn14 O35 1.955 . S
O15 Zn14 1.933 1_554 S
O15 H16 0.841 1_545 S
O15 Zn17 1.911 . S
H16 O15 0.841 1_565 S
Zn17 O15 1.911 . S
Zn17 O28 1.970 . S
Zn17 O38 1.981 . S
Zn17 O46 1.945 . S
C18 O19 1.246 . S
C18 O35 1.276 1_565 S
O19 C18 1.246 . S
O20 Zn0 1.985 . S
O20 C30 1.245 1_556 S
O21 Zn1 1.970 . S
O21 C30 1.263 . S
O22 Zn7 1.985 . S
O22 C34 1.245 1_556 S
O23 Zn6 1.970 . S
O23 C34 1.263 . S
O24 Zn10 1.985 . S
O24 C39 1.245 1_556 S
O25 Zn12 1.970 . S
O25 C39 1.263 . S
C26 O37 1.262 1_455 S
C26 O38 1.245 . S
O27 Zn14 1.985 . S
O27 C45 1.245 1_556 S
O28 Zn17 1.970 . S
O28 C45 1.263 . S
O29 Zn7 1.955 . S
O29 C48 1.276 1_455 S
C30 O20 1.245 1_554 S
C30 O21 1.263 . S
O31 Zn0 1.955 . S
O31 C50 1.276 1_655 S
C32 O40 1.262 1_655 S
C32 O41 1.245 . S
O33 C4 1.276 1_565 S
O33 Zn10 1.955 . S
C34 O22 1.245 1_554 S
C34 O23 1.263 . S
O35 Zn14 1.955 . S
O35 C18 1.276 1_545 S
C36 O43 1.262 1_545 S
C36 O44 1.245 . S
O37 Zn1 1.945 . S
O37 C26 1.262 1_655 S
O38 Zn17 1.981 . S
O38 C26 1.245 . S
C39 O24 1.245 1_554 S
C39 O25 1.263 . S
O40 Zn6 1.945 . S
O40 C32 1.262 1_455 S
O41 Zn12 1.981 . S
O41 C32 1.245 . S
C42 O46 1.262 1_565 S
C42 O47 1.245 . S
O43 Zn12 1.945 . S
O43 C36 1.262 1_565 S
O44 Zn1 1.981 . S
O44 C36 1.245 . S
C45 O27 1.245 1_554 S
C45 O28 1.263 . S
O46 Zn17 1.945 . S
O46 C42 1.262 1_545 S
O47 Zn6 1.981 . S
O47 C42 1.245 . S
C48 O29 1.276 1_655 S
C48 O49 1.246 . S
O49 C48 1.246 . S
C50 O31 1.276 1_455 S
C50 O51 1.246 . S
O51 C50 1.246 . S
Zn52 O54 1.933 . S
Zn52 O72 1.985 . S
Zn52 O83 1.955 . S
Zn53 O54 1.911 . S
Zn53 O73 1.970 . S
Zn53 O89 1.945 . S
Zn53 O96 1.981 . S
O54 Zn52 1.933 . S
O54 Zn53 1.911 . S
O54 H55 0.841 . S
H55 O54 0.841 . S
C56 O57 1.246 . S
C56 O85 1.276 . S
O57 C56 1.246 . S
Zn58 O60 1.911 . S
Zn58 O75 1.970 . S
Zn58 O92 1.945 . S
Zn58 O99 1.981 . S
Zn59 O60 1.933 . S
Zn59 O74 1.985 . S
Zn59 O81 1.955 . S
O60 Zn58 1.911 . S
O60 Zn59 1.933 . S
O60 H61 0.841 . S
H61 O60 0.841 . S
Zn62 O63 1.933 . S
Zn62 O76 1.985 . S
Zn62 O85 1.955 . S
O63 Zn62 1.933 . S
O63 Zn64 1.911 . S
O63 H65 0.841 . S
Zn64 O63 1.911 . S
Zn64 O77 1.970 . S
Zn64 O93 1.981 . S
Zn64 O95 1.945 . S
H65 O63 0.841 . S
Zn66 O67 1.933 . S
Zn66 O79 1.985 . S
Zn66 O87 1.955 . S
O67 Zn66 1.933 . S
O67 H68 0.841 . S
O67 Zn69 1.911 . S
H68 O67 0.841 . S
Zn69 O67 1.911 . S
Zn69 O80 1.970 . S
Zn69 O90 1.981 . S
Zn69 O98 1.945 . S
C70 O71 1.246 . S
C70 O87 1.276 . S
O71 C70 1.246 . S
O72 Zn52 1.985 . S
O72 C82 1.245 . S
O73 Zn53 1.970 . S
O73 C82 1.263 . S
O74 Zn59 1.985 . S
O74 C86 1.245 . S
O75 Zn58 1.970 . S
O75 C86 1.263 . S
O76 Zn62 1.985 . S
O76 C91 1.245 . S
O77 Zn64 1.970 . S
O77 C91 1.263 . S
C78 O89 1.262 . S
C78 O90 1.245 . S
O79 Zn66 1.985 . S
O79 C97 1.245 . S
O80 Zn69 1.970 . S
O80 C97 1.263 . S
O81 Zn59 1.955 . S
O81 C100 1.276 . S
C82 O72 1.245 . S
C82 O73 1.263 . S
O83 Zn52 1.955 . S
O83 C102 1.276 . S
C84 O92 1.262 . S
C84 O93 1.245 . S
O85 C56 1.276 . S
O85 Zn62 1.955 . S
C86 O74 1.245 . S
C86 O75 1.263 . S
O87 Zn66 1.955 . S
O87 C70 1.276 . S
C88 O95 1.262 . S
C88 O96 1.245 . S
O89 Zn53 1.945 . S
O89 C78 1.262 . S
O90 Zn69 1.981 . S
O90 C78 1.245 . S
C91 O76 1.245 . S
C91 O77 1.263 . S
O92 Zn58 1.945 . S
O92 C84 1.262 . S
O93 Zn64 1.981 . S
O93 C84 1.245 . S
C94 O98 1.262 . S
C94 O99 1.245 . S
O95 Zn64 1.945 . S
O95 C88 1.262 . S
O96 Zn53 1.981 . S
O96 C88 1.245 . S
C97 O79 1.245 . S
C97 O80 1.263 . S
O98 Zn69 1.945 . S
O98 C94 1.262 . S
O99 Zn58 1.981 . S
O99 C94 1.245 . S
C100 O81 1.276 . S
C100 O101 1.246 . S
O101 C100 1.246 . S
C102 O83 1.276 . S
C102 O103 1.246 . S
O103 C102 1.246 . S
C104 C105 1.384 . S
C104 H117 0.947 . S
C104 C139 1.382 . S
C105 C104 1.384 . S
C105 C106 1.378 . S
C106 C105 1.378 . S
C106 C107 1.378 . S
C106 H118 0.952 . S
C107 C106 1.378 . S
C107 H119 0.950 . S
C107 C138 1.383 . S
H108 C127 0.947 . S
H109 C128 0.946 . S
H110 C130 0.953 . S
H111 C131 0.945 . S
H112 C133 0.952 . S
H113 C134 0.949 . S
H114 C136 0.950 . S
H115 C137 0.948 . S
H116 C139 0.951 . S
H117 C104 0.947 . S
H118 C106 0.952 . S
H119 C107 0.950 . S
N120 C123 1.382 . S
N120 C125 1.363 . S
N121 C123 1.371 1_556 S
N121 C124 1.372 . S
N122 C124 1.361 1_554 S
N122 C125 1.377 . S
C123 N120 1.382 . S
C123 N121 1.371 1_554 S
C123 C126 1.480 . S
C124 N121 1.372 . S
C124 N122 1.361 1_556 S
C124 C132 1.457 . S
C125 N120 1.363 . S
C125 N122 1.377 . S
C125 C138 1.479 . S
C126 C123 1.480 . S
C126 C127 1.383 . S
C126 C131 1.385 1_554 S
C127 H108 0.947 . S
C127 C126 1.383 . S
C127 C128 1.388 . S
C128 H109 0.946 . S
C128 C127 1.388 . S
C128 C129 1.384 . S
C129 C128 1.384 . S
C129 C130 1.377 1_554 S
C130 H110 0.953 . S
C130 C129 1.377 1_556 S
C130 C131 1.369 . S
C131 H111 0.945 . S
C131 C126 1.385 1_556 S
C131 C130 1.369 . S
C132 C124 1.457 . S
C132 C133 1.372 . S
C132 C137 1.364 . S
C133 H112 0.952 . S
C133 C132 1.372 . S
C133 C134 1.389 . S
C134 H113 0.949 . S
C134 C133 1.389 . S
C134 C135 1.387 . S
C135 C134 1.387 . S
C135 C136 1.372 . S
C136 H114 0.950 . S
C136 C135 1.372 . S
C136 C137 1.379 . S
C137 H115 0.948 . S
C137 C132 1.364 . S
C137 C136 1.379 . S
C138 C107 1.383 . S
C138 C125 1.479 . S
C138 C139 1.398 . S
C139 C104 1.382 . S
C139 H116 0.951 . S
C139 C138 1.398 . S
C140 C141 1.384 . S
C140 H153 0.947 . S
C140 C175 1.382 . S
C141 C140 1.384 . S
C141 C142 1.378 . S
C142 C141 1.378 . S
C142 C143 1.378 . S
C142 H154 0.952 . S
C143 C142 1.378 . S
C143 H155 0.950 . S
C143 C174 1.383 . S
H144 C163 0.947 . S
H145 C164 0.946 . S
H146 C166 0.953 . S
H147 C167 0.945 . S
H148 C169 0.952 . S
H149 C170 0.949 . S
H150 C172 0.950 . S
H151 C173 0.948 . S
H152 C175 0.951 . S
H153 C140 0.947 . S
H154 C142 0.952 . S
H155 C143 0.950 . S
N156 C159 1.382 . S
N156 C161 1.363 . S
N157 C159 1.371 1_556 S
N157 C160 1.372 . S
N158 C160 1.361 1_554 S
N158 C161 1.377 . S
C159 N156 1.382 . S
C159 N157 1.371 1_554 S
C159 C162 1.480 . S
C160 N157 1.372 . S
C160 N158 1.361 1_556 S
C160 C168 1.457 . S
C161 N156 1.363 . S
C161 N158 1.377 . S
C161 C174 1.479 . S
C162 C159 1.480 . S
C162 C163 1.383 . S
C162 C167 1.385 1_554 S
C163 H144 0.947 . S
C163 C162 1.383 . S
C163 C164 1.388 . S
C164 H145 0.946 . S
C164 C163 1.388 . S
C164 C165 1.384 . S
C165 C164 1.384 . S
C165 C166 1.377 1_554 S
C166 H146 0.953 . S
C166 C165 1.377 1_556 S
C166 C167 1.369 . S
C167 H147 0.945 . S
C167 C162 1.385 1_556 S
C167 C166 1.369 . S
C168 C160 1.457 . S
C168 C169 1.372 . S
C168 C173 1.364 . S
C169 H148 0.952 . S
C169 C168 1.372 . S
C169 C170 1.389 . S
C170 H149 0.949 . S
C170 C169 1.389 . S
C170 C171 1.387 . S
C171 C170 1.387 . S
C171 C172 1.372 . S
C172 H150 0.950 . S
C172 C171 1.372 . S
C172 C173 1.379 . S
C173 H151 0.948 . S
C173 C168 1.364 . S
C173 C172 1.379 . S
C174 C143 1.383 . S
C174 C161 1.479 . S
C174 C175 1.398 . S
C175 C140 1.382 . S
C175 H152 0.951 . S
C175 C174 1.398 . S
C176 C177 1.384 . S
C176 H189 0.947 . S
C176 C211 1.382 . S
C177 C176 1.384 . S
C177 C178 1.378 . S
C178 C177 1.378 . S
C178 C179 1.378 . S
C178 H190 0.952 . S
C179 C178 1.378 . S
C179 H191 0.950 . S
C179 C210 1.383 . S
H180 C199 0.947 . S
H181 C200 0.946 . S
H182 C202 0.953 . S
H183 C203 0.945 . S
H184 C205 0.952 . S
H185 C206 0.949 . S
H186 C208 0.950 . S
H187 C209 0.948 . S
H188 C211 0.951 . S
H189 C176 0.947 . S
H190 C178 0.952 . S
H191 C179 0.950 . S
N192 C195 1.382 1_556 S
N192 C197 1.363 . S
N193 C195 1.371 . S
N193 C196 1.372 . S
N194 C196 1.361 . S
N194 C197 1.377 1_554 S
C195 N192 1.382 1_554 S
C195 N193 1.371 . S
C195 C198 1.480 . S
C196 N193 1.372 . S
C196 N194 1.361 . S
C196 C204 1.457 . S
C197 N192 1.363 . S
C197 N194 1.377 1_556 S
C197 C210 1.479 . S
C198 C195 1.480 . S
C198 C199 1.383 1_554 S
C198 C203 1.385 . S
C199 H180 0.947 . S
C199 C198 1.383 1_556 S
C199 C200 1.388 . S
C200 H181 0.946 . S
C200 C199 1.388 . S
C200 C201 1.384 1_556 S
C201 C200 1.384 1_554 S
C201 C202 1.377 . S
C202 H182 0.953 . S
C202 C201 1.377 . S
C202 C203 1.369 . S
C203 H183 0.945 . S
C203 C198 1.385 . S
C203 C202 1.369 . S
C204 C196 1.457 . S
C204 C205 1.372 . S
C204 C209 1.364 . S
C205 H184 0.952 . S
C205 C204 1.372 . S
C205 C206 1.389 . S
C206 H185 0.949 . S
C206 C205 1.389 . S
C206 C207 1.387 . S
C207 C206 1.387 . S
C207 C208 1.372 . S
C208 H186 0.950 . S
C208 C207 1.372 . S
C208 C209 1.379 . S
C209 H187 0.948 . S
C209 C204 1.364 . S
C209 C208 1.379 . S
C210 C179 1.383 . S
C210 C197 1.479 . S
C210 C211 1.398 . S
C211 C176 1.382 . S
C211 H188 0.951 . S
C211 C210 1.398 . S
C212 C213 1.384 . S
C212 H225 0.947 . S
C212 C247 1.382 . S
C213 C212 1.384 . S
C213 C214 1.378 . S
C214 C213 1.378 . S
C214 C215 1.378 . S
C214 H226 0.952 . S
C215 C214 1.378 . S
C215 H227 0.950 . S
C215 C246 1.383 . S
H216 C235 0.947 . S
H217 C236 0.946 . S
H218 C238 0.953 . S
H219 C239 0.945 . S
H220 C241 0.952 . S
H221 C242 0.949 . S
H222 C244 0.950 . S
H223 C245 0.948 . S
H224 C247 0.951 . S
H225 C212 0.947 . S
H226 C214 0.952 . S
H227 C215 0.950 . S
N228 C231 1.382 1_556 S
N228 C233 1.363 . S
N229 C231 1.371 . S
N229 C232 1.372 . S
N230 C232 1.361 . S
N230 C233 1.377 1_554 S
C231 N228 1.382 1_554 S
C231 N229 1.371 . S
C231 C234 1.480 . S
C232 N229 1.372 . S
C232 N230 1.361 . S
C232 C240 1.457 . S
C233 N228 1.363 . S
C233 N230 1.377 1_556 S
C233 C246 1.479 . S
C234 C231 1.480 . S
C234 C235 1.383 1_554 S
C234 C239 1.385 . S
C235 H216 0.947 . S
C235 C234 1.383 1_556 S
C235 C236 1.388 . S
C236 H217 0.946 . S
C236 C235 1.388 . S
C236 C237 1.384 1_556 S
C237 C236 1.384 1_554 S
C237 C238 1.377 . S
C238 H218 0.953 . S
C238 C237 1.377 . S
C238 C239 1.369 . S
C239 H219 0.945 . S
C239 C234 1.385 . S
C239 C238 1.369 . S
C240 C232 1.457 . S
C240 C241 1.372 . S
C240 C245 1.364 . S
C241 H220 0.952 . S
C241 C240 1.372 . S
C241 C242 1.389 . S
C242 H221 0.949 . S
C242 C241 1.389 . S
C242 C243 1.387 . S
C243 C242 1.387 . S
C243 C244 1.372 . S
C244 H222 0.950 . S
C244 C243 1.372 . S
C244 C245 1.379 . S
C245 H223 0.948 . S
C245 C240 1.364 . S
C245 C244 1.379 . S
C246 C215 1.383 . S
C246 C233 1.479 . S
C246 C247 1.398 . S
C247 C212 1.382 . S
C247 H224 0.951 . S
C247 C246 1.398 . S
C248 C249 1.384 . S
C248 H261 0.947 . S
C248 C283 1.382 . S
C249 C248 1.384 . S
C249 C250 1.378 . S
C250 C249 1.378 . S
C250 C251 1.378 . S
C250 H262 0.952 . S
C251 C250 1.378 . S
C251 H263 0.950 . S
C251 C282 1.383 . S
H252 C271 0.947 . S
H253 C272 0.946 . S
H254 C274 0.953 . S
H255 C275 0.945 . S
H256 C277 0.952 . S
H257 C278 0.949 . S
H258 C280 0.950 . S
H259 C281 0.948 . S
H260 C283 0.951 . S
H261 C248 0.947 . S
H262 C250 0.952 . S
H263 C251 0.950 . S
N264 C267 1.382 . S
N264 C269 1.363 . S
N265 C267 1.371 . S
N265 C268 1.372 . S
N266 C268 1.361 . S
N266 C269 1.377 . S
C267 N264 1.382 . S
C267 N265 1.371 . S
C267 C270 1.480 . S
C268 N265 1.372 . S
C268 N266 1.361 . S
C268 C276 1.457 . S
C269 N264 1.363 . S
C269 N266 1.377 . S
C269 C282 1.479 . S
C270 C267 1.480 . S
C270 C271 1.383 . S
C270 C275 1.385 . S
C271 H252 0.947 . S
C271 C270 1.383 . S
C271 C272 1.388 . S
C272 H253 0.946 . S
C272 C271 1.388 . S
C272 C273 1.384 . S
C273 C272 1.384 . S
C273 C274 1.377 . S
C274 H254 0.953 . S
C274 C273 1.377 . S
C274 C275 1.369 . S
C275 H255 0.945 . S
C275 C270 1.385 . S
C275 C274 1.369 . S
C276 C268 1.457 . S
C276 C277 1.372 . S
C276 C281 1.364 . S
C277 H256 0.952 . S
C277 C276 1.372 . S
C277 C278 1.389 . S
C278 H257 0.949 . S
C278 C277 1.389 . S
C278 C279 1.387 . S
C279 C278 1.387 . S
C279 C280 1.372 . S
C280 H258 0.950 . S
C280 C279 1.372 . S
C280 C281 1.379 . S
C281 H259 0.948 . S
C281 C276 1.364 . S
C281 C280 1.379 . S
C282 C251 1.383 . S
C282 C269 1.479 . S
C282 C283 1.398 . S
C283 C248 1.382 . S
C283 H260 0.951 . S
C283 C282 1.398 . S
C284 C285 1.384 . S
C284 H297 0.947 . S
C284 C319 1.382 . S
C285 C284 1.384 . S
C285 C286 1.378 . S
C286 C285 1.378 . S
C286 C287 1.378 . S
C286 H298 0.952 . S
C287 C286 1.378 . S
C287 H299 0.950 . S
C287 C318 1.383 . S
H288 C307 0.947 . S
H289 C308 0.946 . S
H290 C310 0.953 . S
H291 C311 0.945 . S
H292 C313 0.952 . S
H293 C314 0.949 . S
H294 C316 0.950 . S
H295 C317 0.948 . S
H296 C319 0.951 . S
H297 C284 0.947 . S
H298 C286 0.952 . S
H299 C287 0.950 . S
N300 C303 1.382 . S
N300 C305 1.363 . S
N301 C303 1.371 . S
N301 C304 1.372 . S
N302 C304 1.361 . S
N302 C305 1.377 . S
C303 N300 1.382 . S
C303 N301 1.371 . S
C303 C306 1.480 . S
C304 N301 1.372 . S
C304 N302 1.361 . S
C304 C312 1.457 . S
C305 N300 1.363 . S
C305 N302 1.377 . S
C305 C318 1.479 . S
C306 C303 1.480 . S
C306 C307 1.383 . S
C306 C311 1.385 . S
C307 H288 0.947 . S
C307 C306 1.383 . S
C307 C308 1.388 . S
C308 H289 0.946 . S
C308 C307 1.388 . S
C308 C309 1.384 . S
C309 C308 1.384 . S
C309 C310 1.377 . S
C310 H290 0.953 . S
C310 C309 1.377 . S
C310 C311 1.369 . S
C311 H291 0.945 . S
C311 C306 1.385 . S
C311 C310 1.369 . S
C312 C304 1.457 . S
C312 C313 1.372 . S
C312 C317 1.364 . S
C313 H292 0.952 . S
C313 C312 1.372 . S
C313 C314 1.389 . S
C314 H293 0.949 . S
C314 C313 1.389 . S
C314 C315 1.387 . S
C315 C314 1.387 . S
C315 C316 1.372 . S
C316 H294 0.950 . S
C316 C315 1.372 . S
C316 C317 1.379 . S
C317 H295 0.948 . S
C317 C312 1.364 . S
C317 C316 1.379 . S
C318 C287 1.383 . S
C318 C305 1.479 . S
C318 C319 1.398 . S
C319 C284 1.382 . S
C319 H296 0.951 . S
C319 C318 1.398 . S
C320 C321 1.384 . S
C320 H333 0.947 . S
C320 C355 1.382 . S
C321 C320 1.384 . S
C321 C322 1.378 . S
C322 C321 1.378 . S
C322 C323 1.378 . S
C322 H334 0.952 . S
C323 C322 1.378 . S
C323 H335 0.950 . S
C323 C354 1.383 . S
H324 C343 0.947 . S
H325 C344 0.946 . S
H326 C346 0.953 . S
H327 C347 0.945 . S
H328 C349 0.952 . S
H329 C350 0.949 . S
H330 C352 0.950 . S
H331 C353 0.948 . S
H332 C355 0.951 . S
H333 C320 0.947 . S
H334 C322 0.952 . S
H335 C323 0.950 . S
N336 C339 1.382 . S
N336 C341 1.363 . S
N337 C339 1.371 . S
N337 C340 1.372 . S
N338 C340 1.361 . S
N338 C341 1.377 . S
C339 N336 1.382 . S
C339 N337 1.371 . S
C339 C342 1.480 . S
C340 N337 1.372 . S
C340 N338 1.361 . S
C340 C348 1.457 . S
C341 N336 1.363 . S
C341 N338 1.377 . S
C341 C354 1.479 . S
C342 C339 1.480 . S
C342 C343 1.383 . S
C342 C347 1.385 . S
C343 H324 0.947 . S
C343 C342 1.383 . S
C343 C344 1.388 . S
C344 H325 0.946 . S
C344 C343 1.388 . S
C344 C345 1.384 . S
C345 C344 1.384 . S
C345 C346 1.377 . S
C346 H326 0.953 . S
C346 C345 1.377 . S
C346 C347 1.369 . S
C347 H327 0.945 . S
C347 C342 1.385 . S
C347 C346 1.369 . S
C348 C340 1.457 . S
C348 C349 1.372 . S
C348 C353 1.364 . S
C349 H328 0.952 . S
C349 C348 1.372 . S
C349 C350 1.389 . S
C350 H329 0.949 . S
C350 C349 1.389 . S
C350 C351 1.387 . S
C351 C350 1.387 . S
C351 C352 1.372 . S
C352 H330 0.950 . S
C352 C351 1.372 . S
C352 C353 1.379 . S
C353 H331 0.948 . S
C353 C348 1.364 . S
C353 C352 1.379 . S
C354 C323 1.383 . S
C354 C341 1.479 . S
C354 C355 1.398 . S
C355 C320 1.382 . S
C355 H332 0.951 . S
C355 C354 1.398 . S
C356 C357 1.384 . S
C356 H369 0.947 . S
C356 C391 1.382 . S
C357 C356 1.384 . S
C357 C358 1.378 . S
C358 C357 1.378 . S
C358 C359 1.378 . S
C358 H370 0.952 . S
C359 C358 1.378 . S
C359 H371 0.950 . S
C359 C390 1.383 . S
H360 C379 0.947 . S
H361 C380 0.946 . S
H362 C382 0.953 . S
H363 C383 0.945 . S
H364 C385 0.952 . S
H365 C386 0.949 . S
H366 C388 0.950 . S
H367 C389 0.948 . S
H368 C391 0.951 . S
H369 C356 0.947 . S
H370 C358 0.952 . S
H371 C359 0.950 . S
N372 C375 1.382 . S
N372 C377 1.363 . S
N373 C375 1.371 . S
N373 C376 1.372 . S
N374 C376 1.361 . S
N374 C377 1.377 . S
C375 N372 1.382 . S
C375 N373 1.371 . S
C375 C378 1.480 . S
C376 N373 1.372 . S
C376 N374 1.361 . S
C376 C384 1.457 . S
C377 N372 1.363 . S
C377 N374 1.377 . S
C377 C390 1.479 . S
C378 C375 1.480 . S
C378 C379 1.383 . S
C378 C383 1.385 . S
C379 H360 0.947 . S
C379 C378 1.383 . S
C379 C380 1.388 . S
C380 H361 0.946 . S
C380 C379 1.388 . S
C380 C381 1.384 . S
C381 C380 1.384 . S
C381 C382 1.377 . S
C382 H362 0.953 . S
C382 C381 1.377 . S
C382 C383 1.369 . S
C383 H363 0.945 . S
C383 C378 1.385 . S
C383 C382 1.369 . S
C384 C376 1.457 . S
C384 C385 1.372 . S
C384 C389 1.364 . S
C385 H364 0.952 . S
C385 C384 1.372 . S
C385 C386 1.389 . S
C386 H365 0.949 . S
C386 C385 1.389 . S
C386 C387 1.387 . S
C387 C386 1.387 . S
C387 C388 1.372 . S
C388 H366 0.950 . S
C388 C387 1.372 . S
C388 C389 1.379 . S
C389 H367 0.948 . S
C389 C384 1.364 . S
C389 C388 1.379 . S
C390 C359 1.383 . S
C390 C377 1.479 . S
C390 C391 1.398 . S
C391 C356 1.382 . S
C391 H368 0.951 . S
C391 C390 1.398 . S
C392 C393 1.391 . S
C392 C394 1.394 . S
C392 H408 0.931 . S
C393 C392 1.391 . S
C393 C397 1.376 1_554 S
C394 C392 1.394 . S
C394 C395 1.369 . S
C394 C398 1.531 . S
C395 C394 1.369 . S
C395 C396 1.410 1_554 S
C395 C403 1.503 . S
C396 C395 1.410 1_556 S
C396 C397 1.392 . S
C396 C399 1.511 . S
C397 C393 1.376 1_556 S
C397 C396 1.392 . S
C397 H409 0.929 . S
C398 C394 1.531 . S
C398 H410 0.960 . S
C398 H411 0.962 . S
C398 H412 0.960 . S
C399 C396 1.511 . S
C399 H413 0.961 . S
C399 H414 0.961 . S
C399 H415 0.961 . S
C400 C401 1.370 . S
C400 C402 1.363 . S
C400 H416 0.931 . S
C401 C400 1.370 . S
C401 C405 1.408 1_554 S
C402 C400 1.363 . S
C402 C403 1.370 . S
C402 C406 1.524 . S
C403 C395 1.503 . S
C403 C402 1.370 . S
C403 C404 1.403 1_554 S
C404 C403 1.403 1_556 S
C404 C405 1.404 . S
C404 C407 1.539 . S
C405 C401 1.408 1_556 S
C405 C404 1.404 . S
C405 H417 0.930 . S
C406 C402 1.524 . S
C406 H418 0.956 . S
C406 H419 0.961 . S
C406 H420 0.961 . S
C407 C404 1.539 . S
C407 H421 0.958 . S
C407 H422 0.961 . S
C407 H423 0.960 . S
H408 C392 0.931 . S
H409 C397 0.929 . S
H410 C398 0.960 . S
H411 C398 0.962 . S
H412 C398 0.960 . S
H413 C399 0.961 . S
H414 C399 0.961 . S
H415 C399 0.961 . S
H416 C400 0.931 . S
H417 C405 0.930 . S
H418 C406 0.956 . S
H419 C406 0.961 . S
H420 C406 0.961 . S
H421 C407 0.958 . S
H422 C407 0.961 . S
H423 C407 0.960 . S
C424 C425 1.391 . S
C424 C426 1.394 . S
C424 H440 0.931 . S
C425 C424 1.391 . S
C425 C429 1.376 . S
C426 C424 1.394 . S
C426 C427 1.369 . S
C426 C430 1.531 . S
C427 C426 1.369 . S
C427 C428 1.410 . S
C427 C435 1.503 . S
C428 C427 1.410 . S
C428 C429 1.392 . S
C428 C431 1.511 . S
C429 C425 1.376 . S
C429 C428 1.392 . S
C429 H441 0.929 . S
C430 C426 1.531 . S
C430 H442 0.960 . S
C430 H443 0.962 . S
C430 H444 0.960 . S
C431 C428 1.511 . S
C431 H445 0.961 . S
C431 H446 0.961 . S
C431 H447 0.961 . S
C432 C433 1.370 1_556 S
C432 C434 1.363 . S
C432 H448 0.931 . S
C433 C432 1.370 1_554 S
C433 C437 1.408 . S
C434 C432 1.363 . S
C434 C435 1.370 1_556 S
C434 C438 1.524 . S
C435 C427 1.503 . S
C435 C434 1.370 1_554 S
C435 C436 1.403 . S
C436 C435 1.403 . S
C436 C437 1.404 . S
C436 C439 1.539 . S
C437 C433 1.408 . S
C437 C436 1.404 . S
C437 H449 0.930 . S
C438 C434 1.524 . S
C438 H450 0.956 . S
C438 H451 0.961 . S
C438 H452 0.961 . S
C439 C436 1.539 . S
C439 H453 0.958 . S
C439 H454 0.961 . S
C439 H455 0.960 . S
H440 C424 0.931 . S
H441 C429 0.929 . S
H442 C430 0.960 . S
H443 C430 0.962 . S
H444 C430 0.960 . S
H445 C431 0.961 . S
H446 C431 0.961 . S
H447 C431 0.961 . S
H448 C432 0.931 . S
H449 C437 0.930 . S
H450 C438 0.956 . S
H451 C438 0.961 . S
H452 C438 0.961 . S
H453 C439 0.958 . S
H454 C439 0.961 . S
H455 C439 0.960 . S
C456 C457 1.391 . S
C456 C458 1.394 . S
C456 H472 0.931 . S
C457 C456 1.391 . S
C457 C461 1.376 . S
C458 C456 1.394 . S
C458 C459 1.369 . S
C458 C462 1.531 . S
C459 C458 1.369 . S
C459 C460 1.410 . S
C459 C467 1.503 . S
C460 C459 1.410 . S
C460 C461 1.392 . S
C460 C463 1.511 . S
C461 C457 1.376 . S
C461 C460 1.392 . S
C461 H473 0.929 . S
C462 C458 1.531 . S
C462 H474 0.960 . S
C462 H475 0.962 1_554 S
C462 H476 0.960 . S
C463 C460 1.511 . S
C463 H477 0.961 . S
C463 H478 0.961 . S
C463 H479 0.961 . S
C464 C465 1.370 1_556 S
C464 C466 1.363 . S
C464 H480 0.931 . S
C465 C464 1.370 1_554 S
C465 C469 1.408 . S
C466 C464 1.363 . S
C466 C467 1.370 1_556 S
C466 C470 1.524 . S
C467 C459 1.503 . S
C467 C466 1.370 1_554 S
C467 C468 1.403 . S
C468 C467 1.403 . S
C468 C469 1.404 . S
C468 C471 1.539 . S
C469 C465 1.408 . S
C469 C468 1.404 . S
C469 H481 0.930 . S
C470 C466 1.524 . S
C470 H482 0.956 . S
C470 H483 0.961 . S
C470 H484 0.961 . S
C471 C468 1.539 . S
C471 H485 0.958 . S
C471 H486 0.961 . S
C471 H487 0.960 . S
H472 C456 0.931 . S
H473 C461 0.929 . S
H474 C462 0.960 . S
H475 C462 0.962 1_556 S
H476 C462 0.960 . S
H477 C463 0.961 . S
H478 C463 0.961 . S
H479 C463 0.961 . S
H480 C464 0.931 . S
H481 C469 0.930 . S
H482 C470 0.956 . S
H483 C470 0.961 . S
H484 C470 0.961 . S
H485 C471 0.958 . S
H486 C471 0.961 . S
H487 C471 0.960 . S
C488 C489 1.401 . S
C488 C490 1.395 . S
C488 H504 0.920 1_554 S
C489 C488 1.401 . S
C489 C493 1.376 . S
C490 C488 1.395 . S
C490 C491 1.369 . S
C490 C494 1.531 1_554 S
C491 C490 1.369 . S
C491 C492 1.410 . S
C491 C499 1.503 . S
C492 C491 1.410 . S
C492 C493 1.392 . S
C492 C495 1.511 . S
C493 C489 1.376 . S
C493 C492 1.392 . S
C493 H505 0.929 . S
C494 C490 1.531 1_556 S
C494 H506 0.960 . S
C494 H507 0.962 . S
C494 H508 0.960 . S
C495 C492 1.511 . S
C495 H509 0.961 . S
C495 H510 0.961 . S
C495 H511 0.961 . S
C496 C497 1.370 1_556 S
C496 C498 1.363 . S
C496 H512 0.931 . S
C497 C496 1.370 1_554 S
C497 C501 1.408 . S
C498 C496 1.363 . S
C498 C499 1.370 1_556 S
C498 C502 1.524 . S
C499 C491 1.503 . S
C499 C498 1.370 1_554 S
C499 C500 1.403 . S
C500 C499 1.403 . S
C500 C501 1.404 . S
C500 C503 1.539 . S
C501 C497 1.408 . S
C501 C500 1.404 . S
C501 H513 0.930 . S
C502 C498 1.524 . S
C502 H514 0.956 . S
C502 H515 0.961 . S
C502 H516 0.961 . S
C503 C500 1.539 . S
C503 H517 0.958 . S
C503 H518 0.961 . S
C503 H519 0.960 . S
H504 C488 0.920 1_556 S
H505 C493 0.929 . S
H506 C494 0.960 . S
H507 C494 0.962 . S
H508 C494 0.960 . S
H509 C495 0.961 . S
H510 C495 0.961 . S
H511 C495 0.961 . S
H512 C496 0.931 . S
H513 C501 0.930 . S
H514 C502 0.956 . S
H515 C502 0.961 . S
H516 C502 0.961 . S
H517 C503 0.958 . S
H518 C503 0.961 . S
H519 C503 0.960 . S
C520 C521 1.391 . S
C520 C522 1.394 . S
C520 H536 0.931 . S
C521 C520 1.391 . S
C521 C525 1.376 . S
C522 C520 1.394 . S
C522 C523 1.369 . S
C522 C526 1.531 . S
C523 C522 1.369 . S
C523 C524 1.410 . S
C523 C531 1.503 . S
C524 C523 1.410 . S
C524 C525 1.392 . S
C524 C527 1.511 . S
C525 C521 1.376 . S
C525 C524 1.392 . S
C525 H537 0.929 . S
C526 C522 1.531 . S
C526 H538 0.960 . S
C526 H539 0.962 . S
C526 H540 0.960 . S
C527 C524 1.511 . S
C527 H541 0.961 . S
C527 H542 0.961 . S
C527 H543 0.961 . S
C528 C529 1.370 . S
C528 C530 1.363 . S
C528 H544 0.931 . S
C529 C528 1.370 . S
C529 C533 1.408 . S
C530 C528 1.363 . S
C530 C531 1.370 . S
C530 C534 1.524 . S
C531 C523 1.503 . S
C531 C530 1.370 . S
C531 C532 1.403 . S
C532 C531 1.403 . S
C532 C533 1.404 . S
C532 C535 1.539 . S
C533 C529 1.408 . S
C533 C532 1.404 . S
C533 H545 0.930 . S
C534 C530 1.524 . S
C534 H546 0.956 . S
C534 H547 0.961 . S
C534 H548 0.961 . S
C535 C532 1.539 . S
C535 H549 0.958 . S
C535 H550 0.961 . S
C535 H551 0.960 . S
H536 C520 0.931 . S
H537 C525 0.929 . S
H538 C526 0.960 . S
H539 C526 0.962 . S
H540 C526 0.960 . S
H541 C527 0.961 . S
H542 C527 0.961 . S
H543 C527 0.961 . S
H544 C528 0.931 . S
H545 C533 0.930 . S
H546 C534 0.956 . S
H547 C534 0.961 . S
H548 C534 0.961 . S
H549 C535 0.958 . S
H550 C535 0.961 . S
H551 C535 0.960 . S
C552 C553 1.391 . S
C552 C554 1.394 . S
C552 H568 0.931 . S
C553 C552 1.391 . S
C553 C557 1.376 . S
C554 C552 1.394 . S
C554 C555 1.369 . S
C554 C558 1.531 . S
C555 C554 1.369 . S
C555 C556 1.410 . S
C555 C563 1.503 . S
C556 C555 1.410 . S
C556 C557 1.392 . S
C556 C559 1.511 . S
C557 C553 1.376 . S
C557 C556 1.392 . S
C557 H569 0.929 . S
C558 C554 1.531 . S
C558 H570 0.960 . S
C558 H571 0.962 . S
C558 H572 0.960 . S
C559 C556 1.511 . S
C559 H573 0.961 . S
C559 H574 0.961 . S
C559 H575 0.961 . S
C560 C561 1.370 . S
C560 C562 1.363 . S
C560 H576 0.931 . S
C561 C560 1.370 . S
C561 C565 1.408 . S
C562 C560 1.363 . S
C562 C563 1.370 . S
C562 C566 1.524 . S
C563 C555 1.503 . S
C563 C562 1.370 . S
C563 C564 1.403 . S
C564 C563 1.403 . S
C564 C565 1.404 . S
C564 C567 1.539 . S
C565 C561 1.408 . S
C565 C564 1.404 . S
C565 H577 0.930 . S
C566 C562 1.524 . S
C566 H578 0.956 . S
C566 H579 0.961 . S
C566 H580 0.961 . S
C567 C564 1.539 . S
C567 H581 0.958 . S
C567 H582 0.961 . S
C567 H583 0.960 . S
H568 C552 0.931 . S
H569 C557 0.929 . S
H570 C558 0.960 . S
H571 C558 0.962 . S
H572 C558 0.960 . S
H573 C559 0.961 . S
H574 C559 0.961 . S
H575 C559 0.961 . S
H576 C560 0.931 . S
H577 C565 0.930 . S
H578 C566 0.956 . S
H579 C566 0.961 . S
H580 C566 0.961 . S
H581 C567 0.958 . S
H582 C567 0.961 . S
H583 C567 0.960 . S
C584 C585 1.391 . S
C584 C586 1.394 . S
C584 H600 0.931 . S
C585 C584 1.391 . S
C585 C589 1.376 . S
C586 C584 1.394 . S
C586 C587 1.369 . S
C586 C590 1.531 . S
C587 C586 1.369 . S
C587 C588 1.410 . S
C587 C595 1.503 . S
C588 C587 1.410 . S
C588 C589 1.392 . S
C588 C591 1.511 . S
C589 C585 1.376 . S
C589 C588 1.392 . S
C589 H601 0.929 . S
C590 C586 1.531 . S
C590 H602 0.960 . S
C590 H603 0.962 . S
C590 H604 0.960 . S
C591 C588 1.511 . S
C591 H605 0.961 . S
C591 H606 0.961 . S
C591 H607 0.961 . S
C592 C593 1.370 . S
C592 C594 1.363 . S
C592 H608 0.931 . S
C593 C592 1.370 . S
C593 C597 1.408 . S
C594 C592 1.363 . S
C594 C595 1.370 . S
C594 C598 1.524 . S
C595 C587 1.503 . S
C595 C594 1.370 . S
C595 C596 1.403 . S
C596 C595 1.403 . S
C596 C597 1.404 . S
C596 C599 1.539 . S
C597 C593 1.408 . S
C597 C596 1.404 . S
C597 H609 0.930 . S
C598 C594 1.524 . S
C598 H610 0.956 . S
C598 H611 0.961 . S
C598 H612 0.961 . S
C599 C596 1.539 . S
C599 H613 0.958 . S
C599 H614 0.961 . S
C599 H615 0.960 . S
H600 C584 0.931 . S
H601 C589 0.929 . S
H602 C590 0.960 . S
H603 C590 0.962 . S
H604 C590 0.960 . S
H605 C591 0.961 . S
H606 C591 0.961 . S
H607 C591 0.961 . S
H608 C592 0.931 . S
H609 C597 0.930 . S
H610 C598 0.956 . S
H611 C598 0.961 . S
H612 C598 0.961 . S
H613 C599 0.958 . S
H614 C599 0.961 . S
H615 C599 0.960 . S
C616 C617 1.391 . S
C616 C618 1.394 . S
C616 H632 0.931 . S
C617 C616 1.391 . S
C617 C621 1.376 . S
C618 C616 1.394 . S
C618 C619 1.369 . S
C618 C622 1.531 . S
C619 C618 1.369 . S
C619 C620 1.410 . S
C619 C627 1.503 . S
C620 C619 1.410 . S
C620 C621 1.392 . S
C620 C623 1.511 . S
C621 C617 1.376 . S
C621 C620 1.392 . S
C621 H633 0.929 . S
C622 C618 1.531 . S
C622 H634 0.960 . S
C622 H635 0.962 . S
C622 H636 0.960 . S
C623 C620 1.511 . S
C623 H637 0.961 . S
C623 H638 0.961 . S
C623 H639 0.961 . S
C624 C625 1.370 . S
C624 C626 1.363 . S
C624 H640 0.931 . S
C625 C624 1.370 . S
C625 C629 1.408 . S
C626 C624 1.363 . S
C626 C627 1.370 . S
C626 C630 1.524 . S
C627 C619 1.503 . S
C627 C626 1.370 . S
C627 C628 1.403 . S
C628 C627 1.403 . S
C628 C629 1.404 . S
C628 C631 1.539 . S
C629 C625 1.408 . S
C629 C628 1.404 . S
C629 H641 0.930 . S
C630 C626 1.524 . S
C630 H642 0.956 . S
C630 H643 0.961 . S
C630 H644 0.961 . S
C631 C628 1.539 . S
C631 H645 0.958 . S
C631 H646 0.961 . S
C631 H647 0.960 . S
H632 C616 0.931 . S
H633 C621 0.929 . S
H634 C622 0.960 . S
H635 C622 0.962 . S
H636 C622 0.960 . S
H637 C623 0.961 . S
H638 C623 0.961 . S
H639 C623 0.961 . S
H640 C624 0.931 . S
H641 C629 0.930 . S
H642 C630 0.956 . S
H643 C630 0.961 . S
H644 C630 0.961 . S
H645 C631 0.958 . S
H646 C631 0.961 . S
H647 C631 0.960 . S
C648 C649 1.391 . S
C648 C650 1.394 . S
C648 H664 0.931 . S
C649 C648 1.391 . S
C649 C653 1.376 . S
C650 C648 1.394 . S
C650 C651 1.369 . S
C650 C654 1.531 . S
C651 C650 1.369 . S
C651 C652 1.410 . S
C651 C659 1.503 . S
C652 C651 1.410 . S
C652 C653 1.392 . S
C652 C655 1.511 . S
C653 C649 1.376 . S
C653 C652 1.392 . S
C653 H665 0.929 . S
C654 C650 1.531 . S
C654 H666 0.960 1_455 S
C654 H667 0.962 . S
C654 H668 0.960 1_455 S
C655 C652 1.511 . S
C655 H669 0.961 . S
C655 H670 0.961 . S
C655 H671 0.961 . S
C656 C657 1.370 . S
C656 C658 1.363 . S
C656 H672 0.931 . S
C657 C656 1.370 . S
C657 C661 1.408 . S
C658 C656 1.363 . S
C658 C659 1.370 . S
C658 C662 1.524 . S
C659 C651 1.503 . S
C659 C658 1.370 . S
C659 C660 1.403 . S
C660 C659 1.403 . S
C660 C661 1.404 . S
C660 C663 1.553 . S
C661 C657 1.408 . S
C661 C660 1.404 . S
C661 H673 0.930 . S
C662 C658 1.524 . S
C662 H674 0.956 . S
C662 H675 0.961 . S
C662 H676 0.961 . S
C663 C660 1.553 . S
C663 H677 0.943 1_455 S
C663 H678 0.959 1_455 S
C663 H679 0.963 . S
H664 C648 0.931 . S
H665 C653 0.929 . S
H666 C654 0.960 1_655 S
H667 C654 0.962 . S
H668 C654 0.960 1_655 S
H669 C655 0.961 . S
H670 C655 0.961 . S
H671 C655 0.961 . S
H672 C656 0.931 . S
H673 C661 0.930 . S
H674 C662 0.956 . S
H675 C662 0.961 . S
H676 C662 0.961 . S
H677 C663 0.943 1_655 S
H678 C663 0.959 1_655 S
H679 C663 0.963 . S
C680 C681 1.391 . S
C680 C682 1.394 . S
C680 H696 0.931 1_545 S
C681 C680 1.391 . S
C681 C685 1.376 . S
C682 C680 1.394 . S
C682 C683 1.369 . S
C682 C686 1.509 1_545 S
C683 C682 1.369 . S
C683 C684 1.410 . S
C683 C691 1.503 . S
C684 C683 1.410 . S
C684 C685 1.392 . S
C684 C687 1.511 . S
C685 C681 1.376 . S
C685 C684 1.392 . S
C685 H697 0.929 . S
C686 C682 1.509 1_565 S
C686 H698 0.967 . S
C686 H699 0.943 1_565 S
C686 H700 0.996 . S
C687 C684 1.511 . S
C687 H701 0.961 . S
C687 H702 0.961 . S
C687 H703 0.961 . S
C688 C689 1.370 . S
C688 C690 1.363 . S
C688 H704 0.931 . S
C689 C688 1.370 . S
C689 C693 1.408 . S
C690 C688 1.363 . S
C690 C691 1.370 . S
C690 C694 1.524 . S
C691 C683 1.503 . S
C691 C690 1.370 . S
C691 C692 1.403 . S
C692 C691 1.403 . S
C692 C693 1.404 . S
C692 C695 1.539 . S
C693 C689 1.408 . S
C693 C692 1.404 . S
C693 H705 0.930 . S
C694 C690 1.524 . S
C694 H706 0.956 . S
C694 H707 0.961 . S
C694 H708 0.961 . S
C695 C692 1.539 . S
C695 H709 0.958 1_545 S
C695 H710 0.961 . S
C695 H711 0.960 . S
H696 C680 0.931 1_565 S
H697 C685 0.929 . S
H698 C686 0.967 . S
H699 C686 0.943 1_545 S
H700 C686 0.996 . S
H701 C687 0.961 . S
H702 C687 0.961 . S
H703 C687 0.961 . S
H704 C688 0.931 . S
H705 C693 0.930 . S
H706 C694 0.956 . S
H707 C694 0.961 . S
H708 C694 0.961 . S
H709 C695 0.958 1_565 S
H710 C695 0.961 . S
H711 C695 0.960 . S
C712 C713 1.391 . S
C712 C714 1.394 . S
C712 H728 0.931 . S
C713 C712 1.391 . S
C713 C717 1.376 . S
C714 C712 1.394 . S
C714 C715 1.369 . S
C714 C718 1.531 . S
C715 C714 1.369 . S
C715 C716 1.410 . S
C715 C723 1.503 . S
C716 C715 1.410 . S
C716 C717 1.392 . S
C716 C719 1.511 1_655 S
C717 C713 1.376 . S
C717 C716 1.392 . S
C717 H729 0.929 1_655 S
C718 C714 1.531 . S
C718 H730 0.960 . S
C718 H731 0.962 . S
C718 H732 0.960 . S
C719 C716 1.511 1_455 S
C719 H733 0.961 . S
C719 H734 0.961 . S
C719 H735 0.961 . S
C720 C721 1.370 . S
C720 C722 1.363 . S
C720 H736 0.931 . S
C721 C720 1.370 . S
C721 C725 1.408 . S
C722 C720 1.363 . S
C722 C723 1.370 . S
C722 C726 1.524 . S
C723 C715 1.503 . S
C723 C722 1.370 . S
C723 C724 1.403 . S
C724 C723 1.403 . S
C724 C725 1.404 . S
C724 C727 1.539 . S
C725 C721 1.408 . S
C725 C724 1.404 . S
C725 H737 0.930 . S
C726 C722 1.524 . S
C726 H738 0.956 . S
C726 H739 0.961 . S
C726 H740 0.961 . S
C727 C724 1.539 . S
C727 H741 0.958 . S
C727 H742 0.961 . S
C727 H743 0.960 . S
H728 C712 0.931 . S
H729 C717 0.929 1_455 S
H730 C718 0.960 . S
H731 C718 0.962 . S
H732 C718 0.960 . S
H733 C719 0.961 . S
H734 C719 0.961 . S
H735 C719 0.961 . S
H736 C720 0.931 . S
H737 C725 0.930 . S
H738 C726 0.956 . S
H739 C726 0.961 . S
H740 C726 0.961 . S
H741 C727 0.958 . S
H742 C727 0.961 . S
H743 C727 0.960 . S
C744 C745 1.391 . S
C744 C746 1.394 . S
C744 H760 0.931 . S
C745 C744 1.391 . S
C745 C749 1.376 . S
C746 C744 1.394 . S
C746 C747 1.369 . S
C746 C750 1.531 . S
C747 C746 1.369 . S
C747 C748 1.410 . S
C747 C755 1.503 . S
C748 C747 1.410 . S
C748 C749 1.392 . S
C748 C751 1.511 . S
C749 C745 1.376 . S
C749 C748 1.392 . S
C749 H761 0.929 . S
C750 C746 1.531 . S
C750 H762 0.960 . S
C750 H763 0.962 . S
C750 H764 0.960 . S
C751 C748 1.511 . S
C751 H765 0.961 . S
C751 H766 0.961 . S
C751 H767 0.961 . S
C752 C753 1.370 . S
C752 C754 1.363 . S
C752 H768 0.931 . S
C753 C752 1.370 . S
C753 C757 1.408 . S
C754 C752 1.363 . S
C754 C755 1.370 . S
C754 C758 1.524 . S
C755 C747 1.503 . S
C755 C754 1.370 . S
C755 C756 1.403 . S
C756 C755 1.403 . S
C756 C757 1.404 . S
C756 C759 1.539 1_565 S
C757 C753 1.408 . S
C757 C756 1.404 . S
C757 H769 0.930 . S
C758 C754 1.524 . S
C758 H770 0.956 . S
C758 H771 0.961 . S
C758 H772 0.961 . S
C759 C756 1.539 1_545 S
C759 H773 0.958 . S
C759 H774 0.961 . S
C759 H775 0.960 . S
H760 C744 0.931 . S
H761 C749 0.929 . S
H762 C750 0.960 . S
H763 C750 0.962 . S
H764 C750 0.960 . S
H765 C751 0.961 . S
H766 C751 0.961 . S
H767 C751 0.961 . S
H768 C752 0.931 . S
H769 C757 0.930 . S
H770 C758 0.956 . S
H771 C758 0.961 . S
H772 C758 0.961 . S
H773 C759 0.958 . S
H774 C759 0.961 . S
H775 C759 0.960 . S
C776 C777 1.391 . S
C776 C778 1.394 . S
C776 H792 0.931 1_565 S
C777 C776 1.391 . S
C777 C781 1.376 . S
C778 C776 1.394 . S
C778 C779 1.369 . S
C778 C782 1.531 1_565 S
C779 C778 1.369 . S
C779 C780 1.410 . S
C779 C787 1.503 . S
C780 C779 1.410 . S
C780 C781 1.392 . S
C780 C783 1.511 . S
C781 C777 1.376 . S
C781 C780 1.392 . S
C781 H793 0.929 . S
C782 C778 1.531 1_545 S
C782 H794 0.960 1_545 S
C782 H795 0.962 . S
C782 H796 0.960 . S
C783 C780 1.511 . S
C783 H797 0.961 . S
C783 H798 0.961 . S
C783 H799 0.961 . S
C784 C785 1.370 . S
C784 C786 1.363 . S
C784 H800 0.931 . S
C785 C784 1.370 . S
C785 C789 1.408 . S
C786 C784 1.363 . S
C786 C787 1.370 . S
C786 C790 1.524 . S
C787 C779 1.503 . S
C787 C786 1.370 . S
C787 C788 1.403 . S
C788 C787 1.403 . S
C788 C789 1.404 . S
C788 C791 1.539 . S
C789 C785 1.408 . S
C789 C788 1.404 . S
C789 H801 0.930 . S
C790 C786 1.524 . S
C790 H802 0.956 . S
C790 H803 0.961 . S
C790 H804 0.961 . S
C791 C788 1.539 . S
C791 H805 0.958 . S
C791 H806 0.961 . S
C791 H807 0.960 . S
H792 C776 0.931 1_545 S
H793 C781 0.929 . S
H794 C782 0.960 1_565 S
H795 C782 0.962 . S
H796 C782 0.960 . S
H797 C783 0.961 . S
H798 C783 0.961 . S
H799 C783 0.961 . S
H800 C784 0.931 . S
H801 C789 0.930 . S
H802 C790 0.956 . S
H803 C790 0.961 . S
H804 C790 0.961 . S
H805 C791 0.958 . S
H806 C791 0.961 . S
H807 C791 0.960 . S
C808 C809 1.391 . S
C808 C810 1.394 . S
C808 H824 0.931 . S
C809 C808 1.391 . S
C809 C813 1.376 . S
C810 C808 1.394 . S
C810 C811 1.369 . S
C810 C814 1.531 . S
C811 C810 1.369 . S
C811 C812 1.410 . S
C811 C819 1.503 . S
C812 C811 1.410 . S
C812 C813 1.392 . S
C812 C815 1.511 1_455 S
C813 C809 1.376 . S
C813 C812 1.392 . S
C813 H825 0.929 1_455 S
C814 C810 1.531 . S
C814 H826 0.960 . S
C814 H827 0.962 . S
C814 H828 0.960 . S
C815 C812 1.511 1_655 S
C815 H829 0.961 . S
C815 H830 0.961 . S
C815 H831 0.961 . S
C816 C817 1.370 . S
C816 C818 1.363 . S
C816 H832 0.931 . S
C817 C816 1.370 . S
C817 C821 1.408 . S
C818 C816 1.363 . S
C818 C819 1.370 . S
C818 C822 1.524 . S
C819 C811 1.503 . S
C819 C818 1.370 . S
C819 C820 1.403 . S
C820 C819 1.403 . S
C820 C821 1.404 . S
C820 C823 1.539 . S
C821 C817 1.408 . S
C821 C820 1.404 . S
C821 H833 0.930 . S
C822 C818 1.524 . S
C822 H834 0.956 . S
C822 H835 0.961 . S
C822 H836 0.961 . S
C823 C820 1.539 . S
C823 H837 0.958 . S
C823 H838 0.961 . S
C823 H839 0.960 . S
H824 C808 0.931 . S
H825 C813 0.929 1_655 S
H826 C814 0.960 . S
H827 C814 0.962 . S
H828 C814 0.960 . S
H829 C815 0.961 . S
H830 C815 0.961 . S
H831 C815 0.961 . S
H832 C816 0.931 . S
H833 C821 0.930 . S
H834 C822 0.956 . S
H835 C822 0.961 . S
H836 C822 0.961 . S
H837 C823 0.958 . S
H838 C823 0.961 . S
H839 C823 0.960 . S
C840 C841 1.391 . S
C840 C842 1.394 . S
C840 H856 0.931 . S
C841 C840 1.391 . S
C841 C845 1.376 . S
C842 C840 1.394 . S
C842 C843 1.369 . S
C842 C846 1.531 . S
C843 C842 1.369 . S
C843 C844 1.410 . S
C843 C851 1.503 . S
C844 C843 1.410 . S
C844 C845 1.392 . S
C844 C847 1.511 . S
C845 C841 1.376 . S
C845 C844 1.392 . S
C845 H857 0.929 . S
C846 C842 1.531 . S
C846 H858 0.960 . S
C846 H859 0.962 . S
C846 H860 0.960 . S
C847 C844 1.511 . S
C847 H861 0.961 . S
C847 H862 0.961 . S
C847 H863 0.961 . S
C848 C849 1.370 . S
C848 C850 1.363 . S
C848 H864 0.931 . S
C849 C848 1.370 . S
C849 C853 1.408 . S
C850 C848 1.363 . S
C850 C851 1.370 . S
C850 C854 1.524 . S
C851 C843 1.503 . S
C851 C850 1.370 . S
C851 C852 1.403 . S
C852 C851 1.403 . S
C852 C853 1.404 . S
C852 C855 1.539 . S
C853 C849 1.408 . S
C853 C852 1.404 . S
C853 H865 0.930 . S
C854 C850 1.524 . S
C854 H866 0.956 1_545 S
C854 H867 0.961 . S
C854 H868 0.961 1_545 S
C855 C852 1.539 . S
C855 H869 0.958 . S
C855 H870 0.961 . S
C855 H871 0.960 . S
H856 C840 0.931 . S
H857 C845 0.929 . S
H858 C846 0.960 . S
H859 C846 0.962 . S
H860 C846 0.960 . S
H861 C847 0.961 . S
H862 C847 0.961 . S
H863 C847 0.961 . S
H864 C848 0.931 . S
H865 C853 0.930 . S
H866 C854 0.956 1_565 S
H867 C854 0.961 . S
H868 C854 0.961 1_565 S
H869 C855 0.958 . S
H870 C855 0.961 . S
H871 C855 0.960 . S
C872 C873 1.391 . S
C872 C874 1.394 . S
C872 H888 0.931 . S
C873 C872 1.391 . S
C873 C877 1.376 . S
C874 C872 1.394 . S
C874 C875 1.369 . S
C874 C878 1.531 . S
C875 C874 1.369 . S
C875 C876 1.410 . S
C875 C883 1.503 . S
C876 C875 1.410 . S
C876 C877 1.392 . S
C876 C879 1.511 . S
C877 C873 1.376 . S
C877 C876 1.392 . S
C877 H889 0.929 . S
C878 C874 1.531 . S
C878 H890 0.960 . S
C878 H891 0.962 . S
C878 H892 0.960 . S
C879 C876 1.511 . S
C879 H893 0.961 . S
C879 H894 0.961 . S
C879 H895 0.961 . S
C880 C881 1.370 . S
C880 C882 1.363 . S
C880 H896 0.931 . S
C881 C880 1.370 . S
C881 C885 1.408 . S
C882 C880 1.363 . S
C882 C883 1.370 . S
C882 C886 1.524 1_655 S
C883 C875 1.503 . S
C883 C882 1.370 . S
C883 C884 1.403 . S
C884 C883 1.403 . S
C884 C885 1.404 . S
C884 C887 1.539 . S
C885 C881 1.408 . S
C885 C884 1.404 . S
C885 H897 0.930 . S
C886 C882 1.524 1_455 S
C886 H898 0.956 . S
C886 H899 0.961 1_455 S
C886 H900 0.961 . S
C887 C884 1.539 . S
C887 H901 0.958 . S
C887 H902 0.961 . S
C887 H903 0.960 . S
H888 C872 0.931 . S
H889 C877 0.929 . S
H890 C878 0.960 . S
H891 C878 0.962 . S
H892 C878 0.960 . S
H893 C879 0.961 . S
H894 C879 0.961 . S
H895 C879 0.961 . S
H896 C880 0.931 . S
H897 C885 0.930 . S
H898 C886 0.956 . S
H899 C886 0.961 1_655 S
H900 C886 0.961 . S
H901 C887 0.958 . S
H902 C887 0.961 . S
H903 C887 0.960 . S
C904 C905 1.391 . S
C904 C906 1.394 . S
C904 H920 0.931 . S
C905 C904 1.391 . S
C905 C909 1.376 . S
C906 C904 1.394 . S
C906 C907 1.369 . S
C906 C910 1.531 . S
C907 C906 1.369 . S
C907 C908 1.410 . S
C907 C915 1.503 . S
C908 C907 1.410 . S
C908 C909 1.392 . S
C908 C911 1.511 . S
C909 C905 1.376 . S
C909 C908 1.392 . S
C909 H921 0.929 . S
C910 C906 1.531 . S
C910 H922 0.960 . S
C910 H923 0.962 . S
C910 H924 0.960 . S
C911 C908 1.511 . S
C911 H925 0.961 . S
C911 H926 0.961 . S
C911 H927 0.961 . S
C912 C913 1.370 . S
C912 C914 1.363 . S
C912 H928 0.931 . S
C913 C912 1.370 . S
C913 C917 1.408 . S
C914 C912 1.363 . S
C914 C915 1.370 . S
C914 C918 1.524 . S
C915 C907 1.503 . S
C915 C914 1.370 . S
C915 C916 1.403 . S
C916 C915 1.403 . S
C916 C917 1.404 . S
C916 C919 1.539 . S
C917 C913 1.408 . S
C917 C916 1.404 . S
C917 H929 0.930 . S
C918 C914 1.524 . S
C918 H930 0.956 . S
C918 H931 0.961 . S
C918 H932 0.961 . S
C919 C916 1.539 . S
C919 H933 0.958 . S
C919 H934 0.961 . S
C919 H935 0.960 . S
H920 C904 0.931 . S
H921 C909 0.929 . S
H922 C910 0.960 . S
H923 C910 0.962 . S
H924 C910 0.960 . S
H925 C911 0.961 . S
H926 C911 0.961 . S
H927 C911 0.961 . S
H928 C912 0.931 . S
H929 C917 0.930 . S
H930 C918 0.956 . S
H931 C918 0.961 . S
H932 C918 0.961 . S
H933 C919 0.958 . S
H934 C919 0.961 . S
H935 C919 0.960 . S
C936 C937 1.391 . S
C936 C938 1.394 . S
C936 H952 0.931 . S
C937 C936 1.391 . S
C937 C941 1.376 . S
C938 C936 1.394 . S
C938 C939 1.369 . S
C938 C942 1.531 . S
C939 C938 1.369 . S
C939 C940 1.410 . S
C939 C947 1.503 . S
C940 C939 1.410 . S
C940 C941 1.392 . S
C940 C943 1.511 . S
C941 C937 1.376 . S
C941 C940 1.392 . S
C941 H953 0.929 . S
C942 C938 1.531 . S
C942 H954 0.960 . S
C942 H955 0.962 . S
C942 H956 0.960 . S
C943 C940 1.511 . S
C943 H957 0.961 . S
C943 H958 0.961 . S
C943 H959 0.961 . S
C944 C945 1.370 . S
C944 C946 1.363 . S
C944 H960 0.931 . S
C945 C944 1.370 . S
C945 C949 1.408 . S
C946 C944 1.363 . S
C946 C947 1.370 . S
C946 C950 1.524 . S
C947 C939 1.503 . S
C947 C946 1.370 . S
C947 C948 1.403 . S
C948 C947 1.403 . S
C948 C949 1.404 . S
C948 C951 1.539 . S
C949 C945 1.408 . S
C949 C948 1.404 . S
C949 H961 0.930 . S
C950 C946 1.524 . S
C950 H962 0.956 . S
C950 H963 0.961 . S
C950 H964 0.961 . S
C951 C948 1.539 . S
C951 H965 0.958 . S
C951 H966 0.961 . S
C951 H967 0.960 . S
H952 C936 0.931 . S
H953 C941 0.929 . S
H954 C942 0.960 . S
H955 C942 0.962 . S
H956 C942 0.960 . S
H957 C943 0.961 . S
H958 C943 0.961 . S
H959 C943 0.961 . S
H960 C944 0.931 . S
H961 C949 0.930 . S
H962 C950 0.956 . S
H963 C950 0.961 . S
H964 C950 0.961 . S
H965 C951 0.958 . S
H966 C951 0.961 . S
H967 C951 0.960 . S
C968 C969 1.391 . S
C968 C970 1.394 . S
C968 H984 0.931 . S
C969 C968 1.391 . S
C969 C973 1.376 . S
C970 C968 1.394 . S
C970 C971 1.369 . S
C970 C974 1.531 . S
C971 C970 1.369 . S
C971 C972 1.410 . S
C971 C979 1.503 . S
C972 C971 1.410 . S
C972 C973 1.392 . S
C972 C975 1.511 . S
C973 C969 1.376 . S
C973 C972 1.392 . S
C973 H985 0.929 . S
C974 C970 1.531 . S
C974 H986 0.960 . S
C974 H987 0.962 . S
C974 H988 0.960 . S
C975 C972 1.511 . S
C975 H989 0.961 . S
C975 H990 0.961 . S
C975 H991 0.961 . S
C976 C977 1.370 . S
C976 C978 1.363 . S
C976 H992 0.931 . S
C977 C976 1.370 . S
C977 C981 1.408 . S
C978 C976 1.363 . S
C978 C979 1.370 . S
C978 C982 1.524 . S
C979 C971 1.503 . S
C979 C978 1.370 . S
C979 C980 1.403 . S
C980 C979 1.403 . S
C980 C981 1.404 . S
C980 C983 1.539 . S
C981 C977 1.408 . S
C981 C980 1.404 . S
C981 H993 0.930 . S
C982 C978 1.524 . S
C982 H994 0.956 . S
C982 H995 0.961 . S
C982 H996 0.961 . S
C983 C980 1.539 . S
C983 H997 0.958 . S
C983 H998 0.961 . S
C983 H999 0.960 . S
H984 C968 0.931 . S
H985 C973 0.929 . S
H986 C974 0.960 . S
H987 C974 0.962 . S
H988 C974 0.960 . S
H989 C975 0.961 . S
H990 C975 0.961 . S
H991 C975 0.961 . S
H992 C976 0.931 . S
H993 C981 0.930 . S
H994 C982 0.956 . S
H995 C982 0.961 . S
H996 C982 0.961 . S
H997 C983 0.958 . S
H998 C983 0.961 . S
H999 C983 0.960 . S
C1000 C1001 1.391 . S
C1000 C1002 1.394 . S
C1000 H1016 0.931 . S
C1001 C1000 1.391 . S
C1001 C1005 1.376 . S
C1002 C1000 1.394 . S
C1002 C1003 1.369 . S
C1002 C1006 1.531 . S
C1003 C1002 1.369 . S
C1003 C1004 1.410 . S
C1003 C1011 1.503 . S
C1004 C1003 1.410 . S
C1004 C1005 1.392 . S
C1004 C1007 1.511 . S
C1005 C1001 1.376 . S
C1005 C1004 1.392 . S
C1005 H1017 0.929 . S
C1006 C1002 1.531 . S
C1006 H1018 0.960 . S
C1006 H1019 0.962 . S
C1006 H1020 0.960 . S
C1007 C1004 1.511 . S
C1007 H1021 0.961 . S
C1007 H1022 0.961 . S
C1007 H1023 0.961 . S
C1008 C1009 1.370 . S
C1008 C1010 1.363 . S
C1008 H1024 0.931 . S
C1009 C1008 1.370 . S
C1009 C1013 1.408 . S
C1010 C1008 1.363 . S
C1010 C1011 1.370 . S
C1010 C1014 1.524 . S
C1011 C1003 1.503 . S
C1011 C1010 1.370 . S
C1011 C1012 1.403 . S
C1012 C1011 1.403 . S
C1012 C1013 1.404 . S
C1012 C1015 1.539 . S
C1013 C1009 1.408 . S
C1013 C1012 1.404 . S
C1013 H1025 0.930 . S
C1014 C1010 1.524 . S
C1014 H1026 0.956 . S
C1014 H1027 0.961 . S
C1014 H1028 0.961 . S
C1015 C1012 1.539 . S
C1015 H1029 0.958 . S
C1015 H1030 0.961 . S
C1015 H1031 0.960 . S
H1016 C1000 0.931 . S
H1017 C1005 0.929 . S
H1018 C1006 0.960 . S
H1019 C1006 0.962 . S
H1020 C1006 0.960 . S
H1021 C1007 0.961 . S
H1022 C1007 0.961 . S
H1023 C1007 0.961 . S
H1024 C1008 0.931 . S
H1025 C1013 0.930 . S
H1026 C1014 0.956 . S
H1027 C1014 0.961 . S
H1028 C1014 0.961 . S
H1029 C1015 0.958 . S
H1030 C1015 0.961 . S
H1031 C1015 0.960 . S
C1032 C1033 1.391 . S
C1032 C1034 1.394 . S
C1032 H1048 0.931 . S
C1033 C1032 1.391 . S
C1033 C1037 1.376 . S
C1034 C1032 1.394 . S
C1034 C1035 1.369 . S
C1034 C1038 1.531 . S
C1035 C1034 1.369 . S
C1035 C1036 1.410 . S
C1035 C1043 1.503 . S
C1036 C1035 1.410 . S
C1036 C1037 1.392 . S
C1036 C1039 1.511 . S
C1037 C1033 1.376 . S
C1037 C1036 1.392 . S
C1037 H1049 0.929 . S
C1038 C1034 1.531 . S
C1038 H1050 0.960 . S
C1038 H1051 0.962 . S
C1038 H1052 0.960 . S
C1039 C1036 1.511 . S
C1039 H1053 0.961 . S
C1039 H1054 0.961 . S
C1039 H1055 0.961 . S
C1040 C1041 1.370 . S
C1040 C1042 1.363 . S
C1040 H1056 0.931 . S
C1041 C1040 1.370 . S
C1041 C1045 1.408 . S
C1042 C1040 1.363 . S
C1042 C1043 1.370 . S
C1042 C1046 1.524 . S
C1043 C1035 1.503 . S
C1043 C1042 1.370 . S
C1043 C1044 1.403 . S
C1044 C1043 1.403 . S
C1044 C1045 1.404 . S
C1044 C1047 1.539 . S
C1045 C1041 1.408 . S
C1045 C1044 1.404 . S
C1045 H1057 0.930 . S
C1046 C1042 1.524 . S
C1046 H1058 0.956 . S
C1046 H1059 0.961 . S
C1046 H1060 0.961 . S
C1047 C1044 1.539 . S
C1047 H1061 0.958 . S
C1047 H1062 0.961 . S
C1047 H1063 0.960 . S
H1048 C1032 0.931 . S
H1049 C1037 0.929 . S
H1050 C1038 0.960 . S
H1051 C1038 0.962 . S
H1052 C1038 0.960 . S
H1053 C1039 0.961 . S
H1054 C1039 0.961 . S
H1055 C1039 0.961 . S
H1056 C1040 0.931 . S
H1057 C1045 0.930 . S
H1058 C1046 0.956 . S
H1059 C1046 0.961 . S
H1060 C1046 0.961 . S
H1061 C1047 0.958 . S
H1062 C1047 0.961 . S
H1063 C1047 0.960 . S
C1064 C1065 1.391 . S
C1064 C1066 1.394 . S
C1064 H1080 0.931 . S
C1065 C1064 1.391 . S
C1065 C1069 1.376 . S
C1066 C1064 1.394 . S
C1066 C1067 1.369 . S
C1066 C1070 1.531 . S
C1067 C1066 1.369 . S
C1067 C1068 1.410 . S
C1067 C1075 1.503 . S
C1068 C1067 1.410 . S
C1068 C1069 1.392 . S
C1068 C1071 1.511 . S
C1069 C1065 1.376 . S
C1069 C1068 1.392 . S
C1069 H1081 0.929 . S
C1070 C1066 1.531 . S
C1070 H1082 0.960 . S
C1070 H1083 0.962 . S
C1070 H1084 0.960 . S
C1071 C1068 1.511 . S
C1071 H1085 0.961 . S
C1071 H1086 0.961 . S
C1071 H1087 0.961 . S
C1072 C1073 1.370 . S
C1072 C1074 1.363 . S
C1072 H1088 0.931 . S
C1073 C1072 1.370 . S
C1073 C1077 1.408 . S
C1074 C1072 1.363 . S
C1074 C1075 1.370 . S
C1074 C1078 1.524 . S
C1075 C1067 1.503 . S
C1075 C1074 1.370 . S
C1075 C1076 1.403 . S
C1076 C1075 1.403 . S
C1076 C1077 1.404 . S
C1076 C1079 1.539 . S
C1077 C1073 1.408 . S
C1077 C1076 1.404 . S
C1077 H1089 0.930 . S
C1078 C1074 1.524 . S
C1078 H1090 0.956 . S
C1078 H1091 0.961 . S
C1078 H1092 0.961 . S
C1079 C1076 1.539 . S
C1079 H1093 0.958 . S
C1079 H1094 0.961 . S
C1079 H1095 0.960 . S
H1080 C1064 0.931 . S
H1081 C1069 0.929 . S
H1082 C1070 0.960 . S
H1083 C1070 0.962 . S
H1084 C1070 0.960 . S
H1085 C1071 0.961 . S
H1086 C1071 0.961 . S
H1087 C1071 0.961 . S
H1088 C1072 0.931 . S
H1089 C1077 0.930 . S
H1090 C1078 0.956 . S
H1091 C1078 0.961 . S
H1092 C1078 0.961 . S
H1093 C1079 0.958 . S
H1094 C1079 0.961 . S
H1095 C1079 0.960 . S
C1096 C1097 1.391 . S
C1096 C1098 1.394 . S
C1096 H1112 0.931 . S
C1097 C1096 1.391 . S
C1097 C1101 1.376 . S
C1098 C1096 1.394 . S
C1098 C1099 1.369 . S
C1098 C1102 1.531 . S
C1099 C1098 1.369 . S
C1099 C1100 1.410 . S
C1099 C1107 1.503 . S
C1100 C1099 1.410 . S
C1100 C1101 1.392 . S
C1100 C1103 1.511 . S
C1101 C1097 1.376 . S
C1101 C1100 1.392 . S
C1101 H1113 0.929 . S
C1102 C1098 1.531 . S
C1102 H1114 0.960 . S
C1102 H1115 0.962 . S
C1102 H1116 0.960 . S
C1103 C1100 1.511 . S
C1103 H1117 0.961 . S
C1103 H1118 0.961 . S
C1103 H1119 0.961 . S
C1104 C1105 1.370 . S
C1104 C1106 1.363 . S
C1104 H1120 0.931 . S
C1105 C1104 1.370 . S
C1105 C1109 1.408 . S
C1106 C1104 1.363 . S
C1106 C1107 1.370 . S
C1106 C1110 1.524 . S
C1107 C1099 1.503 . S
C1107 C1106 1.370 . S
C1107 C1108 1.403 . S
C1108 C1107 1.403 . S
C1108 C1109 1.404 . S
C1108 C1111 1.539 . S
C1109 C1105 1.408 . S
C1109 C1108 1.404 . S
C1109 H1121 0.930 . S
C1110 C1106 1.524 . S
C1110 H1122 0.956 . S
C1110 H1123 0.961 . S
C1110 H1124 0.961 . S
C1111 C1108 1.539 . S
C1111 H1125 0.958 . S
C1111 H1126 0.961 . S
C1111 H1127 0.960 . S
H1112 C1096 0.931 . S
H1113 C1101 0.929 . S
H1114 C1102 0.960 . S
H1115 C1102 0.962 . S
H1116 C1102 0.960 . S
H1117 C1103 0.961 . S
H1118 C1103 0.961 . S
H1119 C1103 0.961 . S
H1120 C1104 0.931 . S
H1121 C1109 0.930 . S
H1122 C1110 0.956 . S
H1123 C1110 0.961 . S
H1124 C1110 0.961 . S
H1125 C1111 0.958 . S
H1126 C1111 0.961 . S
H1127 C1111 0.960 . S
C1128 C1129 1.391 . S
C1128 C1130 1.394 . S
C1128 H1144 0.931 . S
C1129 C1128 1.391 . S
C1129 C1133 1.376 . S
C1130 C1128 1.394 . S
C1130 C1131 1.369 . S
C1130 C1134 1.531 . S
C1131 C1130 1.369 . S
C1131 C1132 1.410 . S
C1131 C1139 1.503 . S
C1132 C1131 1.410 . S
C1132 C1133 1.392 . S
C1132 C1135 1.511 . S
C1133 C1129 1.376 . S
C1133 C1132 1.392 . S
C1133 H1145 0.929 . S
C1134 C1130 1.531 . S
C1134 H1146 0.960 . S
C1134 H1147 0.962 . S
C1134 H1148 0.960 . S
C1135 C1132 1.511 . S
C1135 H1149 0.961 . S
C1135 H1150 0.961 . S
C1135 H1151 0.961 . S
C1136 C1137 1.370 . S
C1136 C1138 1.363 . S
C1136 H1152 0.931 . S
C1137 C1136 1.370 . S
C1137 C1141 1.408 . S
C1138 C1136 1.363 . S
C1138 C1139 1.370 . S
C1138 C1142 1.524 . S
C1139 C1131 1.503 . S
C1139 C1138 1.370 . S
C1139 C1140 1.403 . S
C1140 C1139 1.403 . S
C1140 C1141 1.404 . S
C1140 C1143 1.539 . S
C1141 C1137 1.408 . S
C1141 C1140 1.404 . S
C1141 H1153 0.930 . S
C1142 C1138 1.524 . S
C1142 H1154 0.956 . S
C1142 H1155 0.961 . S
C1142 H1156 0.961 . S
C1143 C1140 1.539 . S
C1143 H1157 0.958 . S
C1143 H1158 0.961 . S
C1143 H1159 0.960 . S
H1144 C1128 0.931 . S
H1145 C1133 0.929 . S
H1146 C1134 0.960 . S
H1147 C1134 0.962 . S
H1148 C1134 0.960 . S
H1149 C1135 0.961 . S
H1150 C1135 0.961 . S
H1151 C1135 0.961 . S
H1152 C1136 0.931 . S
H1153 C1141 0.930 . S
H1154 C1142 0.956 . S
H1155 C1142 0.961 . S
H1156 C1142 0.961 . S
H1157 C1143 0.958 . S
H1158 C1143 0.961 . S
H1159 C1143 0.960 . S
C393 C45 1.612 . S
C401 C129 1.656 . S
C425 C30 1.623 . S
C433 C165 1.658 . S
C457 C39 1.629 . S
C465 C201 1.612 . S
C497 C237 1.607 . S
C489 C34 1.639 . S
C521 C97 1.613 . S
C529 C273 1.660 . S
C561 C309 1.653 . S
C553 C82 1.627 . S
C593 C345 1.608 . S
C585 C91 1.637 . S
C625 C381 1.606 . S
C617 C86 1.640 . S
C657 C321 1.526 . S
C649 C26 1.487 . S
C689 C357 1.525 . S
C681 C36 1.492 . S
C721 C279 1.563 . S
C713 C32 1.458 . S
C753 C315 1.556 . S
C745 C42 1.473 . S
C777 C18 1.545 . S
C785 C285 1.653 . S
C817 C351 1.603 . S
C809 C50 1.587 . S
C841 C4 1.571 . S
C849 C387 1.606 . S
C873 C48 1.578 . S
C881 C249 1.648 . S
C913 C177 1.516 . S
C905 C78 1.518 . S
C937 C88 1.515 . S
C945 C213 1.518 . S
C977 C135 1.549 . S
C969 C84 1.524 . S
C1009 C171 1.552 . S
C1001 C94 1.490 . S
C1041 C141 1.658 . S
C1033 C70 1.528 . S
C1073 C207 1.621 . S
C1065 C102 1.528 . S
C1097 C56 1.592 . S
C1105 C243 1.600 . S
C1129 C100 1.536 . S
C1137 C105 1.656 . S
