# Generated by pormake.
# Topology pyr, (3,6)-cn, num edge types: 1
# Building blocks:
#     Node 0, Type 0, BuildingBlock: QEWDON_clean_linker_0, # of connection points: 3
#     Node 1, Type 0, BuildingBlock: QEWDON_clean_linker_0, # of connection points: 3
#     Node 2, Type 0, BuildingBlock: QEWDON_clean_linker_0, # of connection points: 3
#     Node 3, Type 0, BuildingBlock: QEWDON_clean_linker_0, # of connection points: 3
#     Node 4, Type 0, BuildingBlock: QEWDON_clean_linker_0, # of connection points: 3
#     Node 5, Type 0, BuildingBlock: QEWDON_clean_linker_0, # of connection points: 3
#     Node 6, Type 0, BuildingBlock: QEWDON_clean_linker_0, # of connection points: 3
#     Node 7, Type 0, BuildingBlock: QEWDON_clean_linker_0, # of connection points: 3
#     Node 8, Type 1, BuildingBlock: BETDIP_clean_sbu_0, # of connection points: 6
#     Node 9, Type 1, BuildingBlock: BETDIP_clean_sbu_0, # of connection points: 6
#     Node 10, Type 1, BuildingBlock: BETDIP_clean_sbu_0, # of connection points: 6
#     Node 11, Type 1, BuildingBlock: BETDIP_clean_sbu_0, # of connection points: 6
#     Edge 12, Type (0, 1), BuildingBlock: KIFKEQ_clean_linker_1, # of connection points: 2
#     Edge 13, Type (0, 1), BuildingBlock: KIFKEQ_clean_linker_1, # of connection points: 2
#     Edge 14, Type (0, 1), BuildingBlock: KIFKEQ_clean_linker_1, # of connection points: 2
#     Edge 15, Type (0, 1), BuildingBlock: KIFKEQ_clean_linker_1, # of connection points: 2
#     Edge 16, Type (0, 1), BuildingBlock: KIFKEQ_clean_linker_1, # of connection points: 2
#     Edge 17, Type (0, 1), BuildingBlock: KIFKEQ_clean_linker_1, # of connection points: 2
#     Edge 18, Type (0, 1), BuildingBlock: KIFKEQ_clean_linker_1, # of connection points: 2
#     Edge 19, Type (0, 1), BuildingBlock: KIFKEQ_clean_linker_1, # of connection points: 2
#     Edge 20, Type (0, 1), BuildingBlock: KIFKEQ_clean_linker_1, # of connection points: 2
#     Edge 21, Type (0, 1), BuildingBlock: KIFKEQ_clean_linker_1, # of connection points: 2
#     Edge 22, Type (0, 1), BuildingBlock: KIFKEQ_clean_linker_1, # of connection points: 2
#     Edge 23, Type (0, 1), BuildingBlock: KIFKEQ_clean_linker_1, # of connection points: 2
#     Edge 24, Type (0, 1), BuildingBlock: KIFKEQ_clean_linker_1, # of connection points: 2
#     Edge 25, Type (0, 1), BuildingBlock: KIFKEQ_clean_linker_1, # of connection points: 2
#     Edge 26, Type (0, 1), BuildingBlock: KIFKEQ_clean_linker_1, # of connection points: 2
#     Edge 27, Type (0, 1), BuildingBlock: KIFKEQ_clean_linker_1, # of connection points: 2
#     Edge 28, Type (0, 1), BuildingBlock: KIFKEQ_clean_linker_1, # of connection points: 2
#     Edge 29, Type (0, 1), BuildingBlock: KIFKEQ_clean_linker_1, # of connection points: 2
#     Edge 30, Type (0, 1), BuildingBlock: KIFKEQ_clean_linker_1, # of connection points: 2
#     Edge 31, Type (0, 1), BuildingBlock: KIFKEQ_clean_linker_1, # of connection points: 2
#     Edge 32, Type (0, 1), BuildingBlock: KIFKEQ_clean_linker_1, # of connection points: 2
#     Edge 33, Type (0, 1), BuildingBlock: KIFKEQ_clean_linker_1, # of connection points: 2
#     Edge 34, Type (0, 1), BuildingBlock: KIFKEQ_clean_linker_1, # of connection points: 2
#     Edge 35, Type (0, 1), BuildingBlock: KIFKEQ_clean_linker_1, # of connection points: 2
# Relax obj value: 0.165
# Max RMSD: 0.272
# Mean RMSD: 0.185
data_MOF--net-pyr--node1-BETDIP_clean_sbu_0--node2-QEWDON_clean_linker_0--edge1-KIFKEQ_clean_linker_1
_symmetry_space_group_name_H-M    P1
_symmetry_Int_Tables_number       1
_symmetry_cell_setting            triclinic
loop_
_symmetry_equiv_pos_as_xyz
'x, y, z'
_cell_length_a     36.149234
_cell_length_b     41.082754
_cell_length_c     42.546105
_cell_angle_alpha  88.455493
_cell_angle_beta   93.516553
_cell_angle_gamma 113.79236
loop_
_atom_site_label
_atom_site_type_symbol
_atom_site_fract_x
_atom_site_fract_y
_atom_site_fract_z
_atom_type_partial_charge
H0 H 0.42639 0.32098 0.20905 0.0
C1 C 0.40986 0.31113 0.23013 0.0
C2 C 0.40579 0.27799 0.24267 0.0
C3 C 0.39185 0.33122 0.24413 0.0
H4 H 0.38047 0.23948 0.27933 0.0
C5 C 0.38394 0.2652 0.26973 0.0
C6 C 0.36564 0.28498 0.28398 0.0
C7 C 0.36978 0.31803 0.27105 0.0
C8 C 0.39485 0.36537 0.22985 0.0
H9 H 0.35537 0.33328 0.28166 0.0
C10 C 0.35968 0.37133 0.22241 0.0
C11 C 0.36204 0.4033 0.20795 0.0
C12 C 0.43269 0.39169 0.22283 0.0
H13 H 0.46018 0.38762 0.22837 0.0
C14 C 0.43537 0.42365 0.2089 0.0
H15 H 0.3304 0.35051 0.22696 0.0
C16 C 0.40037 0.4295 0.2015 0.0
H17 H 0.40338 0.45467 0.19093 0.0
H18 H 0.46468 0.44397 0.2038 0.0
H19 H 0.17671 0.82834 0.76769 0.0
C20 C 0.19354 0.81551 0.75667 0.0
C21 C 0.22873 0.81501 0.77215 0.0
C22 C 0.17924 0.7988 0.72742 0.0
H23 H 0.27749 0.79786 0.7693 0.0
C24 C 0.24959 0.79743 0.75801 0.0
C25 C 0.23583 0.78075 0.72866 0.0
C26 C 0.20051 0.78143 0.71349 0.0
C27 C 0.14189 0.79949 0.71169 0.0
H28 H 0.18977 0.76869 0.69079 0.0
C29 C 0.13686 0.83167 0.7087 0.0
C30 C 0.10063 0.83222 0.69533 0.0
C31 C 0.11056 0.76789 0.70059 0.0
H32 H 0.1137 0.74278 0.70277 0.0
C33 C 0.07445 0.76833 0.68736 0.0
H34 H 0.16103 0.85626 0.71694 0.0
C35 C 0.06933 0.80025 0.6849 0.0
H36 H 0.04119 0.80008 0.67437 0.0
H37 H 0.05029 0.74384 0.67908 0.0
H38 H 0.6932 0.45941 0.89598 0.0
C39 C 0.68099 0.43189 0.90365 0.0
C40 C 0.70395 0.41995 0.92529 0.0
C41 C 0.64154 0.40882 0.89312 0.0
H42 H 0.70567 0.37568 0.95228 0.0
C43 C 0.68743 0.3845 0.93594 0.0
C44 C 0.64744 0.36114 0.92704 0.0
C45 C 0.62508 0.37368 0.90519 0.0
C46 C 0.615 0.42239 0.8733 0.0
H47 H 0.59402 0.35664 0.89838 0.0
C48 C 0.62647 0.4406 0.84421 0.0
C49 C 0.5995 0.45224 0.82642 0.0
C50 C 0.5769 0.41678 0.88414 0.0
H51 H 0.56742 0.40346 0.9064 0.0
C52 C 0.5507 0.42853 0.86678 0.0
H53 H 0.65563 0.44517 0.83536 0.0
C54 C 0.56182 0.44603 0.83819 0.0
H55 H 0.54076 0.45472 0.82506 0.0
H56 H 0.52153 0.424 0.87554 0.0
H57 H 0.9254 0.81575 0.37106 0.0
C58 C 0.90376 0.79462 0.38453 0.0
C59 C 0.89462 0.80241 0.41455 0.0
C60 C 0.8828 0.76051 0.37059 0.0
H61 H 0.85757 0.78096 0.4538 0.0
C62 C 0.86495 0.77508 0.43093 0.0
C63 C 0.84335 0.74092 0.418 0.0
C64 C 0.85254 0.7339 0.38764 0.0
C65 C 0.88532 0.75631 0.33579 0.0
H66 H 0.83505 0.70834 0.3767 0.0
C67 C 0.9016 0.73376 0.32211 0.0
C68 C 0.90412 0.73313 0.28866 0.0
C69 C 0.87082 0.7767 0.31566 0.0
H70 H 0.85801 0.79381 0.32522 0.0
C71 C 0.87233 0.77539 0.28316 0.0
H72 H 0.91321 0.71797 0.33718 0.0
C73 C 0.88887 0.75408 0.26985 0.0
H74 H 0.88979 0.75401 0.24443 0.0
H75 H 0.86084 0.79128 0.26812 0.0
H76 H 0.72793 0.81751 0.97182 0.0
C77 C 0.7383 0.83295 0.95062 0.0
C78 C 0.77756 0.84081 0.94112 0.0
C79 C 0.71241 0.84533 0.93308 0.0
H80 H 0.8198 0.86558 0.90517 0.0
C81 C 0.79034 0.86085 0.91353 0.0
C82 C 0.76455 0.87303 0.89558 0.0
C83 C 0.72575 0.86553 0.90575 0.0
C84 C 0.67078 0.83611 0.94259 0.0
H85 H 0.70554 0.87475 0.89206 0.0
C86 C 0.65729 0.86301 0.9479 0.0
C87 C 0.61739 0.85442 0.95647 0.0
C88 C 0.64423 0.80035 0.94586 0.0
H89 H 0.6541 0.77926 0.94175 0.0
C90 C 0.60446 0.79156 0.95378 0.0
H91 H 0.67837 0.89058 0.94622 0.0
C92 C 0.591 0.8183 0.95894 0.0
H93 H 0.55985 0.81061 0.96475 0.0
H94 H 0.58394 0.7639 0.95586 0.0
H95 H 0.93003 0.33715 0.46153 0.0
C96 C 0.91182 0.32793 0.43979 0.0
C97 C 0.90913 0.29638 0.42587 0.0
C98 C 0.89045 0.34721 0.42603 0.0
H99 H 0.88203 0.25939 0.3877 0.0
C100 C 0.88476 0.28409 0.3982 0.0
C101 C 0.86302 0.30284 0.3844 0.0
C102 C 0.86628 0.33455 0.39819 0.0
C103 C 0.89256 0.38013 0.44097 0.0
H104 H 0.84951 0.3491 0.38748 0.0
C105 C 0.85695 0.38529 0.44495 0.0
C106 C 0.85872 0.41683 0.45834 0.0
C107 C 0.93009 0.40673 0.45094 0.0
H108 H 0.95795 0.40345 0.44803 0.0
C109 C 0.93202 0.43817 0.46414 0.0
H110 H 0.82782 0.36478 0.43757 0.0
C111 C 0.89662 0.44334 0.46771 0.0
H112 H 0.89879 0.46779 0.47826 0.0
H113 H 0.96107 0.45864 0.47159 0.0
H114 H 0.45459 0.80624 0.26469 0.0
C115 C 0.42493 0.78769 0.25603 0.0
C116 C 0.40204 0.79927 0.23387 0.0
C117 C 0.41096 0.75188 0.26624 0.0
H118 H 0.34608 0.78198 0.20516 0.0
C119 C 0.36371 0.77432 0.22305 0.0
C120 C 0.34889 0.7386 0.23302 0.0
C121 C 0.37275 0.72746 0.25455 0.0
C122 C 0.44006 0.73936 0.28367 0.0
H123 H 0.36238 0.69963 0.2611 0.0
C124 C 0.43367 0.72299 0.31394 0.0
C125 C 0.4641 0.7138 0.32962 0.0
C126 C 0.47603 0.74494 0.26919 0.0
H127 H 0.48154 0.757 0.24602 0.0
C128 C 0.50521 0.73502 0.2841 0.0
H129 H 0.40621 0.71868 0.32552 0.0
C130 C 0.49946 0.71978 0.31396 0.0
H131 H 0.52289 0.71243 0.32486 0.0
H132 H 0.53265 0.73938 0.27248 0.0
H133 H 0.22014 0.44805 0.78188 0.0
C134 C 0.20111 0.42363 0.76974 0.0
C135 C 0.21185 0.41649 0.74007 0.0
C136 C 0.16839 0.39762 0.78517 0.0
H137 H 0.19713 0.37853 0.70268 0.0
C138 C 0.18882 0.38364 0.72552 0.0
C139 C 0.15666 0.35687 0.74023 0.0
C140 C 0.14629 0.36439 0.76993 0.0
C141 C 0.16488 0.40041 0.82002 0.0
H142 H 0.12288 0.34349 0.78231 0.0
C143 C 0.1493 0.42311 0.83434 0.0
C144 C 0.14593 0.42241 0.86776 0.0
C145 C 0.17787 0.37853 0.83953 0.0
H146 H 0.19013 0.36126 0.82949 0.0
C147 C 0.17555 0.37852 0.87203 0.0
H148 H 0.1389 0.44007 0.81974 0.0
C149 C 0.15972 0.4 0.88594 0.0
H150 H 0.15823 0.39907 0.91133 0.0
H151 H 0.18591 0.3615 0.88658 0.0
Tb152 Tb 0.98295 0.06532 0.58258 0.0
Tb153 Tb 0.06665 0.09633 0.56903 0.0
C154 C 0.91205 0.02519 0.59621 0.0
C155 C 0.89345 1.00747 0.62541 0.0
C156 C 0.90201 0.9796 0.63915 0.0
C157 C 0.88634 0.96493 0.66792 0.0
C158 C 0.86177 0.97778 0.68355 0.0
C159 C 0.85235 1.00498 0.66932 0.0
C160 C 0.86791 0.01955 0.64051 0.0
C161 C 0.02462 0.12661 0.61272 0.0
C162 C 0.0448 0.04115 0.62198 0.0
C163 C 0.13774 0.1377 0.55683 0.0
C164 C 0.15842 0.15379 0.52806 0.0
C165 C 0.19019 0.18765 0.52943 0.0
C166 C 0.21114 0.20274 0.50254 0.0
C167 C 0.2008 0.18402 0.47392 0.0
C168 C 0.16844 0.15034 0.47251 0.0
C169 C 0.14725 0.13544 0.4993 0.0
C170 C 0.02545 0.03516 0.53855 0.0
C171 C 1.00356 0.11929 0.52923 0.0
O172 O 0.93676 0.01389 0.58358 0.0
O173 O 0.92597 0.05984 0.5962 0.0
O174 O 0.03657 0.10204 0.60891 0.0
O175 O 0.98805 0.11631 0.60084 0.0
O176 O 1.00727 0.03242 0.61069 0.0
O177 O 0.07389 0.07098 0.61306 0.0
O178 O 0.11061 0.14868 0.56532 0.0
O179 O 0.12544 0.10325 0.55934 0.0
O180 O 0.01318 0.05946 0.54269 0.0
O181 O 0.06249 0.04618 0.5495 0.0
O182 O 0.04144 0.12861 0.54012 0.0
O183 O 0.97504 0.08941 0.53851 0.0
H184 H 0.92118 0.96936 0.62794 0.0
H185 H 0.89354 0.94354 0.67794 0.0
H186 H 0.83383 0.01572 0.68082 0.0
H187 H 0.86067 0.04088 0.63035 0.0
H188 H 0.19912 0.20223 0.55141 0.0
H189 H 0.23609 0.22864 0.50433 0.0
H190 H 0.1595 0.13555 0.45066 0.0
H191 H 0.12246 0.10942 0.49762 0.0
Tb192 Tb 0.55885 0.09778 0.08801 0.0
Tb193 Tb 0.47255 0.06268 0.06896 0.0
C194 C 0.62911 0.14255 0.10266 0.0
C195 C 0.64981 0.16065 0.13196 0.0
C196 C 0.68072 0.19487 0.13077 0.0
C197 C 0.70149 0.21188 0.15848 0.0
C198 C 0.6918 0.19466 0.1877 0.0
C199 C 0.66018 0.16067 0.18885 0.0
C200 C 0.63915 0.14389 0.16122 0.0
C201 C 0.52116 0.03602 0.11652 0.0
C202 C 0.4939 0.11638 0.12306 0.0
C203 C 0.40209 0.01861 0.0536 0.0
C204 C 0.38236 0.99519 0.02633 0.0
C205 C 0.38384 0.96167 0.02393 0.0
C206 C 0.36536 0.93999 0.99785 0.0
C207 C 0.34493 0.95132 0.97369 0.0
C208 C 0.34312 0.98467 0.97632 0.0
C209 C 0.36142 1.00625 1.00241 0.0
C210 C 0.51152 0.12444 0.04024 0.0
C211 C 0.53635 0.04261 0.03493 0.0
O212 O 0.60014 0.15126 0.09078 0.0
O213 O 0.619 0.10821 0.1021 0.0
O214 O 0.5071 0.05923 0.11054 0.0
O215 O 0.55842 0.04853 0.10896 0.0
O216 O 0.53211 0.12629 0.11606 0.0
O217 O 0.46511 0.08757 0.11067 0.0
O218 O 0.42797 1.0107 0.07161 0.0
O219 O 0.41494 0.0528 0.04836 0.0
O220 O 0.52464 0.10074 0.0465 0.0
O221 O 0.47437 0.11269 0.04804 0.0
O222 O 0.49872 0.0324 0.04328 0.0
O223 O 0.56499 0.07276 0.04543 0.0
H224 H 0.6891 0.20825 0.10838 0.0
H225 H 0.72587 0.23802 0.157 0.0
H226 H 0.65182 0.14706 0.21114 0.0
H227 H 0.61491 0.11766 0.16268 0.0
H228 H 0.3993 0.95214 0.04214 0.0
H229 H 0.36678 0.91421 0.99674 0.0
H230 H 0.32811 0.99444 0.95795 0.0
H231 H 0.35943 0.0318 1.00371 0.0
Tb232 Tb 0.53568 0.61454 0.5924 0.0
Tb233 Tb 0.52036 0.54011 0.56574 0.0
C234 C 0.52817 0.67033 0.60687 0.0
C235 C 0.49558 0.67904 0.61836 0.0
C236 C 0.48351 0.70302 0.60116 0.0
C237 C 0.45258 0.71164 0.61132 0.0
C238 C 0.43327 0.6967 0.63913 0.0
C239 C 0.44533 0.67249 0.65626 0.0
C240 C 0.47606 0.66364 0.64592 0.0
C241 C 0.56857 0.57671 0.62592 0.0
C242 C 0.45348 0.54622 0.60715 0.0
C243 C 0.53003 0.48338 0.56126 0.0
C244 C 0.55346 0.47149 0.54093 0.0
C245 C 0.57551 0.49387 0.51709 0.0
C246 C 0.60425 0.48604 0.50209 0.0
C247 C 0.61107 0.45551 0.51053 0.0
C248 C 0.58705 0.432 0.53303 0.0
C249 C 0.55862 0.44009 0.54827 0.0
C250 C 0.49627 0.5775 0.52306 0.0
C251 C 0.59862 0.60946 0.54681 0.0
O252 O 0.52218 0.65793 0.57816 0.0
O253 O 0.5438 0.65333 0.62623 0.0
O254 O 0.53454 0.56532 0.61088 0.0
O255 O 0.58508 0.61117 0.6231 0.0
O256 O 0.47436 0.58137 0.60796 0.0
O257 O 0.46645 0.52472 0.59288 0.0
O258 O 0.55243 0.50953 0.58015 0.0
O259 O 0.49882 0.48814 0.54789 0.0
O260 O 0.51197 0.58598 0.55051 0.0
O261 O 0.49243 0.54504 0.51896 0.0
O262 O 0.58035 0.57419 0.5487 0.0
O263 O 0.58492 0.63081 0.5604 0.0
H264 H 0.49796 0.71503 0.57972 0.0
H265 H 0.44363 0.72985 0.5972 0.0
H266 H 0.43154 0.66079 0.67797 0.0
H267 H 0.48458 0.64488 0.6596 0.0
H268 H 0.57181 0.5182 0.51112 0.0
H269 H 0.62206 0.50442 0.48461 0.0
H270 H 0.59188 0.40845 0.54018 0.0
H271 H 0.5421 0.42272 0.56685 0.0
Tb272 Tb 0.03476 0.60922 0.0592 0.0
Tb273 Tb 0.01905 0.54621 0.09971 0.0
C274 C 0.02877 0.6587 0.02621 0.0
C275 C 1.00561 0.68105 0.02631 0.0
C276 C 0.96425 0.66646 0.03222 0.0
C277 C 0.94196 0.68746 0.02918 0.0
C278 C 0.96068 0.72351 1.02047 0.0
C279 C 1.00257 0.73835 1.01613 0.0
C280 C 0.02474 0.71724 1.01888 0.0
C281 C 0.09869 0.61096 0.09426 0.0
C282 C 0.99439 0.60468 0.12596 0.0
C283 C 0.02667 0.49813 0.13406 0.0
C284 C 0.05525 0.48093 0.13751 0.0
C285 C 0.08822 0.4908 0.11826 0.0
C286 C 0.11796 0.47749 0.12426 0.0
C287 C 0.11541 0.45443 0.14985 0.0
C288 C 0.08166 0.4438 0.16848 0.0
C289 C 0.0518 0.45695 0.16232 0.0
C290 C 0.95508 0.54403 0.06439 0.0
C291 C 0.05862 0.5509 0.03244 0.0
O292 O 1.0079 0.6249 1.02018 0.0
O293 O 0.05643 0.66394 0.04906 0.0
O294 O 0.06265 0.59969 0.10224 0.0
O295 O 0.10007 0.62326 0.06576 0.0
O296 O 1.00092 0.61904 0.09732 0.0
O297 O 1.00188 0.57634 0.13321 0.0
O298 O 0.04209 0.53182 0.14151 0.0
O299 O 1.00352 0.4917 0.10813 0.0
O300 O 0.99124 0.55561 0.05667 0.0
O301 O 0.95354 0.53108 0.09268 0.0
O302 O 0.05358 0.53733 0.06145 0.0
O303 O 0.04989 0.57854 0.02502 0.0
H304 H 0.94885 0.6386 0.03828 0.0
H305 H 0.90974 0.67501 0.03243 0.0
H306 H 0.01816 0.76617 1.01007 0.0
H307 H 0.05671 0.72904 1.01452 0.0
H308 H 0.09178 0.50973 0.09931 0.0
H309 H 0.14383 0.4865 0.10973 0.0
H310 H 0.07871 0.4258 0.18817 0.0
H311 H 0.02665 0.44924 0.17752 0.0
H312 H 0.36882 0.31905 0.33897 0.0
H313 H 0.3069 0.2185 0.2913 0.0
H314 H 0.329 0.29492 0.38488 0.0
H315 H 0.26613 0.19456 0.33662 0.0
H316 H 0.23081 0.15061 0.43453 0.0
H317 H 0.27072 0.17532 0.38895 0.0
H318 H 0.26314 0.2761 0.4039 0.0
H319 H 0.22421 0.25145 0.45015 0.0
C320 C 0.34639 0.29187 0.33826 0.0
C321 C 0.3411 0.27056 0.31171 0.0
C322 C 0.32342 0.27805 0.36448 0.0
C323 C 0.29433 0.24271 0.36457 0.0
C324 C 0.28879 0.22162 0.33772 0.0
C325 C 0.31205 0.23533 0.31168 0.0
C326 C 0.2375 0.17798 0.42791 0.0
C327 C 0.22436 0.1991 0.44582 0.0
C328 C 0.26028 0.19216 0.40172 0.0
C329 C 0.27013 0.22773 0.39259 0.0
C330 C 0.25674 0.2488 0.41049 0.0
C331 C 0.2343 0.23468 0.43692 0.0
H332 H 0.2328 0.88008 0.78913 0.0
H333 H 0.25994 0.79197 0.82412 0.0
H334 H 0.25923 0.91109 0.8389 0.0
H335 H 0.28675 0.82324 0.8739 0.0
H336 H 0.37493 0.91172 0.94091 0.0
H337 H 0.34531 0.87713 0.8932 0.0
H338 H 0.24292 0.90583 0.89486 0.0
H339 H 0.27219 0.94006 0.94276 0.0
C340 C 0.24398 0.86715 0.80758 0.0
C341 C 0.24422 0.83354 0.8027 0.0
C342 C 0.25914 0.88493 0.83607 0.0
C343 C 0.27499 0.86956 0.86029 0.0
C344 C 0.27515 0.83591 0.8555 0.0
C345 C 0.25985 0.81805 0.82701 0.0
C346 C 0.3458 0.91021 0.93139 0.0
C347 C 0.32603 0.92881 0.94556 0.0
C348 C 0.32888 0.89043 0.90403 0.0
C349 C 0.29192 0.88895 0.89022 0.0
C350 C 0.27177 0.90697 0.9047 0.0
C351 C 0.28858 0.92661 0.9321 0.0
H352 H 0.6289 0.52343 0.81487 0.0
H353 H 0.58583 0.42219 0.76811 0.0
H354 H 0.62594 0.55269 0.76456 0.0
H355 H 0.58332 0.45123 0.71741 0.0
H356 H 0.52688 0.50768 0.64485 0.0
H357 H 0.54142 0.47767 0.69132 0.0
H358 H 0.65041 0.57105 0.7132 0.0
H359 H 0.63534 0.60114 0.66696 0.0
C360 C 0.62036 0.50766 0.79355 0.0
C361 C 0.60858 0.47065 0.79536 0.0
C362 C 0.61841 0.52437 0.7646 0.0
C363 C 0.60408 0.50446 0.7366 0.0
C364 C 0.59399 0.46753 0.73835 0.0
C365 C 0.5961 0.45087 0.76734 0.0
C366 C 0.55425 0.52163 0.65933 0.0
C367 C 0.57985 0.55691 0.65214 0.0
C368 C 0.56275 0.50433 0.68603 0.0
C369 C 0.59711 0.52181 0.70642 0.0
C370 C 0.62336 0.55676 0.69853 0.0
C371 C 0.61487 0.57401 0.6718 0.0
H372 H 0.96746 0.75959 0.25058 0.0
H373 H 0.88197 0.66008 0.28569 0.0
H374 H 0.98869 0.72799 0.21273 0.0
H375 H 0.90305 0.62793 0.24738 0.0
H376 H 0.97399 0.58125 0.18661 0.0
H377 H 0.95487 0.61046 0.22822 0.0
H378 H 0.96342 0.69627 0.16435 0.0
H379 H 0.98281 0.66725 0.12292 0.0
C380 C 0.95377 0.73077 0.25071 0.0
C381 C 0.9232 0.71253 0.27161 0.0
C382 C 0.96554 0.71253 0.22851 0.0
C383 C 0.94721 0.67515 0.22615 0.0
C384 C 0.91811 0.65665 0.24825 0.0
C385 C 0.90616 0.67507 0.27054 0.0
C386 C 0.97164 0.60629 0.18129 0.0
C387 C 0.98019 0.62171 0.15106 0.0
C388 C 0.96046 0.62309 0.20531 0.0
C389 C 0.95778 0.65616 0.20017 0.0
C390 C 0.96578 0.67126 0.16976 0.0
C391 C 0.97665 0.65436 0.1457 0.0
H392 H 0.45313 0.24493 0.26783 0.0
H393 H 0.3944 0.26041 0.18074 0.0
H394 H 0.47679 0.20544 0.24066 0.0
H395 H 0.41758 0.22086 0.15382 0.0
H396 H 0.41825 0.11247 0.13135 0.0
H397 H 0.39941 0.15236 0.16154 0.0
H398 H 0.5245 0.21071 0.19243 0.0
H399 H 0.54387 0.17091 0.16169 0.0
C400 C 0.44547 0.23996 0.2429 0.0
C401 C 0.42202 0.25565 0.22631 0.0
C402 C 0.45912 0.21761 0.2274 0.0
C403 C 0.44878 0.2101 0.19527 0.0
C404 C 0.42571 0.22611 0.17867 0.0
C405 C 0.4127 0.24886 0.19399 0.0
C406 C 0.44182 0.13352 0.1448 0.0
C407 C 0.48261 0.1386 0.14403 0.0
C408 C 0.43098 0.15645 0.16192 0.0
C409 C 0.46056 0.18467 0.17902 0.0
C410 C 0.50118 0.18905 0.17939 0.0
C411 C 0.51221 0.16637 0.16178 0.0
H412 H 0.1506 0.89293 0.66701 0.0
H413 H 0.0395 0.84775 0.71533 0.0
H414 H 0.13896 0.94667 0.65592 0.0
H415 H 0.02861 0.90215 0.70591 0.0
H416 H 0.99217 0.97579 0.64036 0.0
H417 H 1.008 0.92832 0.66336 0.0
H418 H 0.13478 0.99922 0.67236 0.0
H419 H 0.11886 0.04672 0.64761 0.0
C420 C 0.12412 0.89494 0.67584 0.0
C421 C 0.09565 0.86616 0.69163 0.0
C422 C 0.11753 0.92585 0.66974 0.0
C423 C 0.0826 0.92884 0.67976 0.0
C424 C 0.05532 0.90058 0.69711 0.0
C425 C 0.06155 0.86944 0.70266 0.0
C426 C 0.0234 0.98158 0.64766 0.0
C427 C 0.05429 0.01501 0.64175 0.0
C428 C 0.03252 0.95424 0.66116 0.0
C429 C 0.07281 0.95962 0.66956 0.0
C430 C 0.10351 0.99382 0.66556 0.0
C431 C 0.09436 0.0212 0.65167 0.0
H432 H 0.77692 0.4145 0.92625 0.0
H433 H 0.71954 0.48026 0.95875 0.0
H434 H 0.83897 0.44969 0.9575 0.0
H435 H 0.78135 0.51506 0.99063 0.0
H436 H 0.87541 0.52188 0.07677 0.0
H437 H 0.8163 0.49714 0.03968 0.0
H438 H 0.89524 0.51415 0.96325 0.0
H439 H 0.95438 0.53968 1.00022 0.0
C440 C 0.77793 0.43696 0.9396 0.0
C441 C 0.74354 0.44484 0.93985 0.0
C442 C 0.81341 0.4571 0.9575 0.0
C443 C 0.81503 0.48509 0.97665 0.0
C444 C 0.78098 0.49359 0.97621 0.0
C445 C 0.74577 0.4739 0.95776 0.0
C446 C 0.88011 0.52086 0.05197 0.0
C447 C 0.91952 0.53263 0.04145 0.0
C448 C 0.84628 0.5068 0.03072 0.0
C449 C 0.85108 0.50356 0.99853 0.0
C450 C 0.89056 0.51612 0.98791 0.0
C451 C 0.9244 0.53087 1.00907 0.0
H452 H 0.76689 0.69488 0.39545 0.0
H453 H 0.84151 0.72739 0.48163 0.0
H454 H 0.70837 0.66023 0.42627 0.0
H455 H 0.78294 0.69421 0.5121 0.0
H456 H 0.65834 0.67686 0.55134 0.0
H457 H 0.71766 0.7041 0.51989 0.0
H458 H 0.68129 0.60693 0.46709 0.0
H459 H 0.62217 0.57928 0.49904 0.0
C460 C 0.77114 0.69419 0.42083 0.0
C461 C 0.8091 0.71457 0.43589 0.0
C462 C 0.73746 0.67448 0.43853 0.0
C463 C 0.74076 0.675 0.47172 0.0
C464 C 0.77907 0.69381 0.48664 0.0
C465 C 0.81272 0.7129 0.46905 0.0
C466 C 0.66297 0.66116 0.53315 0.0
C467 C 0.63539 0.62575 0.52794 0.0
C468 C 0.69712 0.67677 0.51516 0.0
C469 C 0.70435 0.65772 0.49094 0.0
C470 C 0.67661 0.6224 0.48545 0.0
C471 C 0.64284 0.6065 0.50395 0.0
H472 H 0.3454 0.43512 0.15472 0.0
H473 H 0.29375 0.38429 0.24123 0.0
H474 H 0.28489 0.4457 0.14089 0.0
H475 H 0.23225 0.39302 0.22652 0.0
H476 H 0.15071 0.45365 0.20817 0.0
H477 H 0.20909 0.43979 0.22193 0.0
H478 H 0.21487 0.41651 0.12431 0.0
H479 H 0.15677 0.43113 0.11053 0.0
C480 C 0.32114 0.42618 0.17081 0.0
C481 C 0.32462 0.40904 0.1992 0.0
C482 C 0.28613 0.43176 0.16263 0.0
C483 C 0.25358 0.42016 0.18254 0.0
C484 C 0.25688 0.40269 0.21078 0.0
C485 C 0.292 0.39729 0.21905 0.0
C486 C 0.1641 0.44508 0.18973 0.0
C487 C 0.14916 0.44346 0.15827 0.0
C488 C 0.19758 0.43709 0.19761 0.0
C489 C 0.21681 0.42709 0.17424 0.0
C490 C 0.20127 0.42474 0.14283 0.0
C491 C 0.16791 0.43297 0.13493 0.0
H492 H 0.58707 0.29895 0.90249 0.0
H493 H 0.66356 0.34 0.98692 0.0
H494 H 0.55448 0.24149 0.92864 0.0
H495 H 0.63293 0.28192 1.01159 0.0
H496 H 0.59203 0.15745 0.02752 0.0
H497 H 0.62575 0.21389 0.99937 0.0
H498 H 0.51096 0.22192 0.98202 0.0
H499 H 0.47759 0.16654 1.01129 0.0
C500 C 0.59723 0.29605 0.92644 0.0
C501 C 0.62846 0.32483 0.9422 0.0
C502 C 0.57865 0.26285 0.94132 0.0
C503 C 0.59138 0.25711 0.97208 0.0
C504 C 0.62289 0.28536 0.98769 0.0
C505 C 0.64074 0.31876 0.97322 0.0
C506 C 0.57407 0.17136 1.01785 0.0
C507 C 0.53219 0.15767 0.02194 0.0
C508 C 0.59334 0.20361 1.00168 0.0
C509 C 0.57096 0.22228 0.98841 0.0
C510 C 0.52895 0.20805 0.99179 0.0
C511 C 0.50991 0.1764 1.00867 0.0
H512 H 0.97481 0.8507 0.41597 0.0
H513 H 0.85777 0.8382 0.44549 0.0
H514 H 1.00575 0.90801 0.44318 0.0
H515 H 0.88858 0.89432 0.47364 0.0
H516 H 0.95092 1.01067 0.50524 0.0
H517 H 0.91997 0.95719 0.47234 0.0
H518 H 0.02377 0.93213 0.4945 0.0
H519 H 0.05463 0.98559 0.52643 0.0
C520 C 0.95559 0.86017 0.42807 0.0
C521 C 0.91376 0.83923 0.42875 0.0
C522 C 0.9734 0.89299 0.44409 0.0
C523 C 0.94996 0.90609 0.4612 0.0
C524 C 0.90792 0.88567 0.46078 0.0
C525 C 0.8902 0.85299 0.44484 0.0
C526 C 0.96708 0.99374 0.50293 0.0
C527 C 1.00535 1.00262 0.51847 0.0
C528 C 0.94929 0.96287 0.48414 0.0
C529 C 0.96924 0.93994 0.48036 0.0
C530 C 1.00755 0.94911 0.49604 0.0
C531 C 0.02522 0.97982 0.5147 0.0
H532 H 0.25984 0.79 0.66834 0.0
H533 H 0.26618 0.73471 0.7549 0.0
H534 H 0.30474 0.76722 0.64482 0.0
H535 H 0.31126 0.7121 0.73148 0.0
H536 H 0.36361 0.65423 0.66749 0.0
H537 H 0.31255 0.6718 0.68764 0.0
H538 H 0.37882 0.77942 0.65599 0.0
H539 H 0.43047 0.76237 0.63674 0.0
C540 C 0.27035 0.77253 0.68213 0.0
C541 C 0.25969 0.76417 0.71344 0.0
C542 C 0.29626 0.75976 0.66879 0.0
C543 C 0.3116 0.73806 0.6864 0.0
C544 C 0.29968 0.7286 0.71731 0.0
C545 C 0.27415 0.7417 0.73076 0.0
C546 C 0.36752 0.68171 0.66505 0.0
C547 C 0.40127 0.70687 0.65049 0.0
C548 C 0.33815 0.69168 0.67646 0.0
C549 C 0.34166 0.72691 0.67322 0.0
C550 C 0.375 0.75194 0.65832 0.0
C551 C 0.40456 0.7421 0.64723 0.0
H552 H 0.83737 0.9265 0.88331 0.0
H553 H 0.721 0.86077 0.83922 0.0
H554 H 0.86034 0.95354 0.83243 0.0
H555 H 0.74401 0.88733 0.7883 0.0
H556 H 0.78701 0.96322 0.7056 0.0
H557 H 0.76327 0.94115 0.75755 0.0
H558 H 0.87842 0.9365 0.78391 0.0
H559 H 0.90281 0.96024 0.73262 0.0
C560 C 0.81672 0.91789 0.86271 0.0
C561 C 0.77744 0.89151 0.86521 0.0
C562 C 0.82989 0.93325 0.83356 0.0
C563 C 0.80412 0.92242 0.80623 0.0
C564 C 0.76447 0.89664 0.80891 0.0
C565 C 0.75126 0.88141 0.83809 0.0
C566 C 0.80741 0.95787 0.72261 0.0
C567 C 0.84681 0.96347 0.71491 0.0
C568 C 0.79365 0.94486 0.75228 0.0
C569 C 0.81893 0.93707 0.77492 0.0
C570 C 0.85832 0.94268 0.7672 0.0
C571 C 0.87211 0.95578 0.73759 0.0
H572 H 0.80422 0.23639 0.37682 0.0
H573 H 0.86051 0.33678 0.32878 0.0
H574 H 0.76077 0.2112 0.32996 0.0
H575 H 0.81821 0.31132 0.28117 0.0
H576 H 0.71235 0.26241 0.20865 0.0
H577 H 0.75168 0.28952 0.25699 0.0
H578 H 0.76569 0.19168 0.2796 0.0
H579 H 0.72529 0.16454 0.23207 0.0
C580 C 0.80738 0.25295 0.35604 0.0
C581 C 0.83582 0.28837 0.3562 0.0
C582 C 0.78267 0.23852 0.32913 0.0
C583 C 0.78627 0.25906 0.30158 0.0
C584 C 0.81427 0.29482 0.30203 0.0
C585 C 0.83864 0.3094 0.32918 0.0
C586 C 0.72389 0.24685 0.22409 0.0
C587 C 0.71563 0.21136 0.21683 0.0
C588 C 0.74653 0.26235 0.25169 0.0
C589 C 0.76175 0.24277 0.27234 0.0
C590 C 0.75369 0.20734 0.26472 0.0
C591 C 0.73068 0.19178 0.23741 0.0
H592 H 0.52042 0.73631 0.37864 0.0
H593 H 0.40212 0.65556 0.35417 0.0
H594 H 0.52408 0.70498 0.42709 0.0
H595 H 0.40479 0.6244 0.40374 0.0
H596 H 0.51986 0.65052 0.5203 0.0
H597 H 0.50515 0.68542 0.4778 0.0
H598 H 0.43717 0.58875 0.42562 0.0
H599 H 0.45014 0.55418 0.46892 0.0
C600 C 0.49462 0.71216 0.38404 0.0
C601 C 0.4611 0.69836 0.36225 0.0
C602 C 0.4966 0.69415 0.41213 0.0
C603 C 0.46499 0.66164 0.41964 0.0
C604 C 0.43023 0.64892 0.3987 0.0
C605 C 0.4283 0.66705 0.3704 0.0
C606 C 0.50068 0.63671 0.50029 0.0
C607 C 0.48562 0.59947 0.49847 0.0
C608 C 0.49274 0.65678 0.47544 0.0
C609 C 0.46986 0.6402 0.4478 0.0
C610 C 0.45422 0.60278 0.44645 0.0
C611 C 0.462 0.58283 0.47132 0.0
H612 H 0.16884 0.49559 0.87126 0.0
H613 H 0.08316 0.39618 0.90644 0.0
H614 H 0.14861 0.52779 0.91013 0.0
H615 H 0.06292 0.42784 0.94491 0.0
H616 H 0.07082 0.48858 0.03527 0.0
H617 H 0.08967 0.45959 0.99344 0.0
H618 H 0.09651 0.54505 0.9297 0.0
H619 H 0.07784 0.57417 0.97164 0.0
C620 C 0.14485 0.48063 0.88658 0.0
C621 C 0.12755 0.44318 0.88541 0.0
C622 C 0.1334 0.49908 0.90918 0.0
C623 C 0.10454 0.4806 0.93146 0.0
C624 C 0.08592 0.44325 0.92899 0.0
C625 C 0.09716 0.425 0.90647 0.0
C626 C 0.07651 0.5014 1.01244 0.0
C627 C 0.07259 0.5339 1.00718 0.0
C628 C 0.08707 0.48453 0.98816 0.0
C629 C 0.09442 0.49957 0.95768 0.0
C630 C 0.09141 0.5325 0.95266 0.0
C631 C 0.08049 0.54923 0.97687 0.0
H632 H 0.56702 0.85396 1.00212 0.0
H633 H 0.63721 0.9199 0.92793 0.0
H634 H 0.54576 0.90075 1.01524 0.0
H635 H 0.61692 0.96738 0.94215 0.0
H636 H 0.61066 0.05221 1.01452 0.0
H637 H 0.6289 1.0073 0.99119 0.0
H638 H 0.5039 0.9326 0.98978 0.0
H639 H 0.48547 0.97714 1.01287 0.0
C640 C 0.57752 0.87818 0.98827 0.0
C641 C 0.60375 0.88295 0.96383 0.0
C642 C 0.56541 0.90506 0.99591 0.0
C643 C 0.57956 0.93759 0.9796 0.0
C644 C 0.60576 0.94259 0.95519 0.0
C645 C 0.6175 0.91544 0.94721 0.0
C646 C 0.58695 0.02646 1.00863 0.0
C647 C 0.54671 0.01816 1.01591 0.0
C648 C 0.5974 1.0008 0.99522 0.0
C649 C 0.56786 0.96639 0.98911 0.0
C650 C 0.52734 0.95878 0.9947 0.0
C651 C 0.51683 0.98442 1.00782 0.0
H652 H 0.9033 0.27191 0.48611 0.0
H653 H 0.95902 0.2709 0.39948 0.0
H654 H 0.92872 0.22913 0.50919 0.0
H655 H 0.98504 0.22844 0.42281 0.0
H656 H 0.0534 0.17954 0.49904 0.0
H657 H 0.03413 0.22502 0.47322 0.0
H658 H 0.909 0.16192 0.49103 0.0
H659 H 0.9277 0.11635 0.51613 0.0
C660 C 0.92172 0.26309 0.4723 0.0
C661 C 0.92923 0.27457 0.44108 0.0
C662 C 0.93595 0.2385 0.48537 0.0
C663 C 0.95851 0.22544 0.46761 0.0
C664 C 0.96775 0.23822 0.43691 0.0
C665 C 0.95286 0.26235 0.42362 0.0
C666 C 0.02171 0.17514 0.49693 0.0
C667 C 0.99209 0.14438 0.50965 0.0
C668 C 0.01078 0.20114 0.48225 0.0
C669 C 0.97023 0.19704 0.48066 0.0
C670 C 0.94054 0.16583 0.49239 0.0
C671 C 0.95129 0.13963 0.5065 0.0
H672 H 0.27458 0.7409 0.23271 0.0
H673 H 0.33626 0.67967 0.19817 0.0
H674 H 0.21314 0.70456 0.20145 0.0
H675 H 0.27492 0.64361 0.16628 0.0
H676 H 0.17836 0.63426 0.08132 0.0
H677 H 0.23768 0.65958 0.11811 0.0
H678 H 0.15919 0.64021 0.1952 0.0
H679 H 0.0999 0.61425 0.1585 0.0
C680 C 0.27466 0.71917 0.21887 0.0
C681 C 0.31006 0.71291 0.21806 0.0
C682 C 0.23952 0.69836 0.20098 0.0
C683 C 0.23916 0.67125 0.18129 0.0
C684 C 0.27429 0.66437 0.18112 0.0
C685 C 0.30925 0.68477 0.19956 0.0
C686 C 0.17382 0.63488 0.1062 0.0
C687 C 0.13447 0.62241 0.11697 0.0
C688 C 0.20778 0.64926 0.12729 0.0
C689 C 0.20316 0.65207 0.15958 0.0
C690 C 0.16376 0.63864 0.17046 0.0
C691 C 0.12982 0.62363 0.14945 0.0
H692 H 0.23379 0.48521 0.71734 0.0
H693 H 0.27537 0.40071 0.72812 0.0
H694 H 0.29134 0.51862 0.68485 0.0
H695 H 0.33283 0.43385 0.69669 0.0
H696 H 0.40094 0.47606 0.60961 0.0
H697 H 0.34414 0.44819 0.64281 0.0
H698 H 0.36464 0.55071 0.68108 0.0
H699 H 0.42137 0.57893 0.64709 0.0
C700 C 0.25574 0.4742 0.71338 0.0
C701 C 0.24998 0.44029 0.72522 0.0
C702 C 0.28869 0.49324 0.69467 0.0
C703 C 0.31656 0.47873 0.68741 0.0
C704 C 0.31161 0.4456 0.7008 0.0
C705 C 0.27885 0.4267 0.71922 0.0
C706 C 0.39335 0.49287 0.62488 0.0
C707 C 0.41623 0.52987 0.6256 0.0
C708 C 0.36078 0.47675 0.64427 0.0
C709 C 0.34992 0.49694 0.66529 0.0
C710 C 0.37187 0.53416 0.66528 0.0
C711 C 0.40457 0.55038 0.64574 0.0
H712 H 0.75747 0.77456 0.96717 0.0
H713 H 0.85904 0.87499 0.95482 0.0
H714 H 0.80321 0.74946 0.99112 0.0
H715 H 0.90479 0.84964 0.97838 0.0
H716 H 0.96937 0.77221 0.97338 0.0
H717 H 0.9263 0.8035 0.95936 0.0
H718 H 0.85198 0.75344 0.03706 0.0
H719 H 0.89582 0.72253 0.05176 0.0
C720 C 0.78942 0.7915 0.97013 0.0
C721 C 0.80466 0.82668 0.95879 0.0
C722 C 0.81562 0.7771 0.98385 0.0
C723 C 0.85759 0.79752 0.98637 0.0
C724 C 0.87263 0.83312 0.97628 0.0
C725 C 0.84645 0.84758 0.96273 0.0
C726 C 0.94452 0.76847 0.98805 0.0
C727 C 0.93613 0.74477 1.01373 0.0
C728 C 0.91974 0.78639 0.97992 0.0
C729 C 0.88575 0.78089 0.9971 0.0
C730 C 0.87776 0.75789 0.02321 0.0
C731 C 0.90281 0.74014 0.03154 0.0
H732 H 0.36193 0.84141 0.21261 0.0
H733 H 0.48168 0.84151 0.22225 0.0
H734 H 0.38874 0.89745 0.18413 0.0
H735 H 0.50894 0.89891 0.19654 0.0
H736 H 0.54388 0.98084 0.11941 0.0
H737 H 0.51469 0.92527 0.1481 0.0
H738 H 0.42554 0.95863 0.18288 0.0
H739 H 0.45392 0.01378 0.15228 0.0
C740 C 0.39405 0.85336 0.20897 0.0
C741 C 0.41928 0.83614 0.2197 0.0
C742 C 0.40965 0.88607 0.19291 0.0
C743 C 0.45119 0.90307 0.18738 0.0
C744 C 0.47663 0.88657 0.19934 0.0
C745 C 0.46097 0.85364 0.21489 0.0
C746 C 0.51793 0.97626 0.13311 0.0
C747 C 0.50137 1.00182 0.13367 0.0
C748 C 0.5013 0.94437 0.14998 0.0
C749 C 0.46791 0.93714 0.16859 0.0
C750 C 0.45096 0.96272 0.16877 0.0
C751 C 0.46731 0.99454 0.15133 0.0
H752 H 0.19296 0.31995 0.7103 0.0
H753 H 0.07546 0.31084 0.73572 0.0
H754 H 0.16173 0.26465 0.6811 0.0
H755 H 0.04397 0.2542 0.70746 0.0
H756 H 0.99696 0.17761 0.62335 0.0
H757 H 0.02781 0.23063 0.65589 0.0
H758 H 0.12836 0.20209 0.68155 0.0
H759 H 0.09754 0.14916 0.64803 0.0
C760 C 0.16031 0.30611 0.70978 0.0
C761 C 0.13682 0.32059 0.72506 0.0
C762 C 0.14232 0.27385 0.69325 0.0
C763 C 0.10004 0.25455 0.69142 0.0
C764 C 0.07655 0.26837 0.70765 0.0
C765 C 0.09464 0.30079 0.72426 0.0
C766 C 0.02567 0.18256 0.63596 0.0
C767 C 0.0447 0.15896 0.633 0.0
C768 C 0.04331 0.213 0.65497 0.0
C769 C 0.08071 0.22105 0.67182 0.0
C770 C 0.0998 0.19731 0.66883 0.0
C771 C 0.08207 0.16675 0.64967 0.0
H772 H 0.79017 0.37037 0.48454 0.0
H773 H 0.84243 0.47466 0.44236 0.0
H774 H 0.7293 0.37952 0.49419 0.0
H775 H 0.78101 0.48353 0.45082 0.0
H776 H 0.68849 0.50431 0.50665 0.0
H777 H 0.74708 0.49458 0.49183 0.0
H778 H 0.67042 0.38436 0.47172 0.0
H779 H 0.61192 0.39408 0.48773 0.0
C780 C 0.7883 0.39506 0.47691 0.0
C781 C 0.82105 0.42189 0.46287 0.0
C782 C 0.75332 0.40028 0.48226 0.0
C783 C 0.75008 0.43232 0.47334 0.0
C784 C 0.78264 0.45881 0.4586 0.0
C785 C 0.81781 0.45373 0.45363 0.0
C786 C 0.68408 0.47814 0.49858 0.0
C787 C 0.64564 0.44996 0.49831 0.0
C788 C 0.7177 0.47253 0.49 0.0
C789 C 0.71368 0.43863 0.48059 0.0
C790 C 0.67488 0.41066 0.47941 0.0
C791 C 0.64129 0.41622 0.48839 0.0
loop_
_geom_bond_atom_site_label_1
_geom_bond_atom_site_label_2
_geom_bond_distance
_geom_bond_site_symmetry_2
_ccdc_geom_bond_type
H0 C1 0.949 . S
C1 H0 0.949 . S
C1 C2 1.395 . S
C1 C3 1.391 . S
C2 C1 1.395 . S
C2 C5 1.390 . S
C3 C1 1.391 . S
C3 C7 1.387 . S
C3 C8 1.491 . S
H4 C5 0.950 . S
C5 C2 1.390 . S
C5 H4 0.950 . S
C5 C6 1.378 . S
C6 C5 1.378 . S
C6 C7 1.409 . S
C7 C3 1.387 . S
C7 C6 1.409 . S
C7 H9 0.951 . S
C8 C3 1.491 . S
C8 C10 1.382 . S
C8 C12 1.404 . S
H9 C7 0.951 . S
C10 C8 1.382 . S
C10 C11 1.390 . S
C10 H15 0.949 . S
C11 C10 1.390 . S
C11 C16 1.399 . S
C12 C8 1.404 . S
C12 H13 0.950 . S
C12 C14 1.375 . S
H13 C12 0.950 . S
C14 C12 1.375 . S
C14 C16 1.382 . S
C14 H18 0.950 . S
H15 C10 0.949 . S
C16 C11 1.399 . S
C16 C14 1.382 . S
C16 H17 0.952 . S
H17 C16 0.952 . S
H18 C14 0.950 . S
H19 C20 0.949 . S
C20 H19 0.949 . S
C20 C21 1.395 . S
C20 C22 1.391 . S
C21 C20 1.395 . S
C21 C24 1.390 . S
C22 C20 1.391 . S
C22 C26 1.387 . S
C22 C27 1.491 . S
H23 C24 0.950 . S
C24 C21 1.390 . S
C24 H23 0.950 . S
C24 C25 1.378 . S
C25 C24 1.378 . S
C25 C26 1.409 . S
C26 C22 1.387 . S
C26 C25 1.409 . S
C26 H28 0.951 . S
C27 C22 1.491 . S
C27 C29 1.382 . S
C27 C31 1.404 . S
H28 C26 0.951 . S
C29 C27 1.382 . S
C29 C30 1.390 . S
C29 H34 0.949 . S
C30 C29 1.390 . S
C30 C35 1.399 . S
C31 C27 1.404 . S
C31 H32 0.950 . S
C31 C33 1.375 . S
H32 C31 0.950 . S
C33 C31 1.375 . S
C33 C35 1.382 . S
C33 H37 0.950 1_455 S
H34 C29 0.949 . S
C35 C30 1.399 . S
C35 C33 1.382 . S
C35 H36 0.952 1_455 S
H36 C35 0.952 1_655 S
H37 C33 0.950 1_655 S
H38 C39 0.949 . S
C39 H38 0.949 . S
C39 C40 1.395 . S
C39 C41 1.391 . S
C40 C39 1.395 . S
C40 C43 1.390 . S
C41 C39 1.391 . S
C41 C45 1.387 . S
C41 C46 1.491 . S
H42 C43 0.950 . S
C43 C40 1.390 . S
C43 H42 0.950 . S
C43 C44 1.378 . S
C44 C43 1.378 . S
C44 C45 1.409 . S
C45 C41 1.387 . S
C45 C44 1.409 . S
C45 H47 0.951 . S
C46 C41 1.491 . S
C46 C48 1.382 . S
C46 C50 1.404 . S
H47 C45 0.951 . S
C48 C46 1.382 . S
C48 C49 1.390 . S
C48 H53 0.949 . S
C49 C48 1.390 . S
C49 C54 1.399 . S
C50 C46 1.404 . S
C50 H51 0.950 . S
C50 C52 1.375 . S
H51 C50 0.950 . S
C52 C50 1.375 . S
C52 C54 1.382 . S
C52 H56 0.950 . S
H53 C48 0.949 . S
C54 C49 1.399 . S
C54 C52 1.382 . S
C54 H55 0.952 . S
H55 C54 0.952 . S
H56 C52 0.950 . S
H57 C58 0.949 . S
C58 H57 0.949 . S
C58 C59 1.395 . S
C58 C60 1.391 . S
C59 C58 1.395 . S
C59 C62 1.390 . S
C60 C58 1.391 . S
C60 C64 1.387 . S
C60 C65 1.491 . S
H61 C62 0.950 . S
C62 C59 1.390 . S
C62 H61 0.950 . S
C62 C63 1.378 . S
C63 C62 1.378 . S
C63 C64 1.409 . S
C64 C60 1.387 . S
C64 C63 1.409 . S
C64 H66 0.951 . S
C65 C60 1.491 . S
C65 C67 1.382 . S
C65 C69 1.404 . S
H66 C64 0.951 . S
C67 C65 1.382 . S
C67 C68 1.390 . S
C67 H72 0.949 . S
C68 C67 1.390 . S
C68 C73 1.399 . S
C69 C65 1.404 . S
C69 H70 0.950 . S
C69 C71 1.375 . S
H70 C69 0.950 . S
C71 C69 1.375 . S
C71 C73 1.382 . S
C71 H75 0.950 . S
H72 C67 0.949 . S
C73 C68 1.399 . S
C73 C71 1.382 . S
C73 H74 0.952 . S
H74 C73 0.952 . S
H75 C71 0.950 . S
H76 C77 0.949 . S
C77 H76 0.949 . S
C77 C78 1.395 . S
C77 C79 1.391 . S
C78 C77 1.395 . S
C78 C81 1.390 . S
C79 C77 1.391 . S
C79 C83 1.387 . S
C79 C84 1.491 . S
H80 C81 0.950 . S
C81 C78 1.390 . S
C81 H80 0.950 . S
C81 C82 1.378 . S
C82 C81 1.378 . S
C82 C83 1.409 . S
C83 C79 1.387 . S
C83 C82 1.409 . S
C83 H85 0.951 . S
C84 C79 1.491 . S
C84 C86 1.382 . S
C84 C88 1.404 . S
H85 C83 0.951 . S
C86 C84 1.382 . S
C86 C87 1.390 . S
C86 H91 0.949 . S
C87 C86 1.390 . S
C87 C92 1.399 . S
C88 C84 1.404 . S
C88 H89 0.950 . S
C88 C90 1.375 . S
H89 C88 0.950 . S
C90 C88 1.375 . S
C90 C92 1.382 . S
C90 H94 0.950 . S
H91 C86 0.949 . S
C92 C87 1.399 . S
C92 C90 1.382 . S
C92 H93 0.952 . S
H93 C92 0.952 . S
H94 C90 0.950 . S
H95 C96 0.949 . S
C96 H95 0.949 . S
C96 C97 1.395 . S
C96 C98 1.391 . S
C97 C96 1.395 . S
C97 C100 1.390 . S
C98 C96 1.391 . S
C98 C102 1.387 . S
C98 C103 1.491 . S
H99 C100 0.950 . S
C100 C97 1.390 . S
C100 H99 0.950 . S
C100 C101 1.378 . S
C101 C100 1.378 . S
C101 C102 1.409 . S
C102 C98 1.387 . S
C102 C101 1.409 . S
C102 H104 0.951 . S
C103 C98 1.491 . S
C103 C105 1.382 . S
C103 C107 1.404 . S
H104 C102 0.951 . S
C105 C103 1.382 . S
C105 C106 1.390 . S
C105 H110 0.949 . S
C106 C105 1.390 . S
C106 C111 1.399 . S
C107 C103 1.404 . S
C107 H108 0.950 . S
C107 C109 1.375 . S
H108 C107 0.950 . S
C109 C107 1.375 . S
C109 C111 1.382 . S
C109 H113 0.950 . S
H110 C105 0.949 . S
C111 C106 1.399 . S
C111 C109 1.382 . S
C111 H112 0.952 . S
H112 C111 0.952 . S
H113 C109 0.950 . S
H114 C115 0.949 . S
C115 H114 0.949 . S
C115 C116 1.395 . S
C115 C117 1.391 . S
C116 C115 1.395 . S
C116 C119 1.390 . S
C117 C115 1.391 . S
C117 C121 1.387 . S
C117 C122 1.491 . S
H118 C119 0.950 . S
C119 C116 1.390 . S
C119 H118 0.950 . S
C119 C120 1.378 . S
C120 C119 1.378 . S
C120 C121 1.409 . S
C121 C117 1.387 . S
C121 C120 1.409 . S
C121 H123 0.951 . S
C122 C117 1.491 . S
C122 C124 1.382 . S
C122 C126 1.404 . S
H123 C121 0.951 . S
C124 C122 1.382 . S
C124 C125 1.390 . S
C124 H129 0.949 . S
C125 C124 1.390 . S
C125 C130 1.399 . S
C126 C122 1.404 . S
C126 H127 0.950 . S
C126 C128 1.375 . S
H127 C126 0.950 . S
C128 C126 1.375 . S
C128 C130 1.382 . S
C128 H132 0.950 . S
H129 C124 0.949 . S
C130 C125 1.399 . S
C130 C128 1.382 . S
C130 H131 0.952 . S
H131 C130 0.952 . S
H132 C128 0.950 . S
H133 C134 0.949 . S
C134 H133 0.949 . S
C134 C135 1.395 . S
C134 C136 1.391 . S
C135 C134 1.395 . S
C135 C138 1.390 . S
C136 C134 1.391 . S
C136 C140 1.387 . S
C136 C141 1.491 . S
H137 C138 0.950 . S
C138 C135 1.390 . S
C138 H137 0.950 . S
C138 C139 1.378 . S
C139 C138 1.378 . S
C139 C140 1.409 . S
C140 C136 1.387 . S
C140 C139 1.409 . S
C140 H142 0.951 . S
C141 C136 1.491 . S
C141 C143 1.382 . S
C141 C145 1.404 . S
H142 C140 0.951 . S
C143 C141 1.382 . S
C143 C144 1.390 . S
C143 H148 0.949 . S
C144 C143 1.390 . S
C144 C149 1.399 . S
C145 C141 1.404 . S
C145 H146 0.950 . S
C145 C147 1.375 . S
H146 C145 0.950 . S
C147 C145 1.375 . S
C147 C149 1.382 . S
C147 H151 0.950 . S
H148 C143 0.949 . S
C149 C144 1.399 . S
C149 C147 1.382 . S
C149 H150 0.952 . S
H150 C149 0.952 . S
H151 C147 0.950 . S
Tb152 C154 2.809 1_545 S
Tb152 O172 2.484 1_545 S
Tb152 O173 2.440 . S
Tb152 O174 2.658 1_655 S
Tb152 O175 2.409 1_655 S
Tb152 O176 2.378 1_655 S
Tb152 O180 2.325 . S
Tb152 O183 2.341 . S
Tb153 C163 2.809 . S
Tb153 O174 2.325 . S
Tb153 O177 2.341 . S
Tb153 O178 2.484 . S
Tb153 O179 2.440 . S
Tb153 O180 2.658 1_455 S
Tb153 O181 2.409 . S
Tb153 O182 2.378 . S
C154 Tb152 2.809 1_565 S
C154 C155 1.514 . S
C154 O172 1.248 . S
C154 O173 1.266 1_565 S
C155 C154 1.514 . S
C155 C156 1.359 . S
C155 C160 1.348 . S
C156 C155 1.359 . S
C156 C157 1.380 . S
C156 H184 0.929 . S
C157 C156 1.380 . S
C157 C158 1.347 . S
C157 H185 0.931 . S
C158 C157 1.347 . S
C158 C159 1.369 . S
C159 C158 1.369 . S
C159 C160 1.408 . S
C159 H186 0.930 . S
C160 C155 1.348 . S
C160 C159 1.408 . S
C160 H187 0.930 . S
C161 O174 1.281 . S
C161 O175 1.254 . S
C162 O176 1.236 . S
C162 O177 1.266 . S
C163 Tb153 2.809 . S
C163 C164 1.514 . S
C163 O178 1.248 . S
C163 O179 1.266 . S
C164 C163 1.514 . S
C164 C165 1.359 . S
C164 C169 1.348 . S
C165 C164 1.359 . S
C165 C166 1.380 . S
C165 H188 0.929 . S
C166 C165 1.380 . S
C166 C167 1.347 . S
C166 H189 0.931 . S
C167 C166 1.347 . S
C167 C168 1.369 . S
C168 C167 1.369 . S
C168 C169 1.408 . S
C168 H190 0.930 . S
C169 C164 1.348 . S
C169 C168 1.408 . S
C169 H191 0.930 . S
C170 O180 1.281 1_565 S
C170 O181 1.254 1_665 S
C171 O182 1.236 1_655 S
C171 O183 1.266 . S
O172 Tb152 2.484 1_565 S
O172 C154 1.248 . S
O173 Tb152 2.440 . S
O173 C154 1.266 1_545 S
O174 Tb152 2.658 1_455 S
O174 Tb153 2.325 . S
O174 C161 1.281 . S
O175 Tb152 2.409 1_455 S
O175 C161 1.254 . S
O176 Tb152 2.378 1_455 S
O176 C162 1.236 . S
O177 Tb153 2.341 . S
O177 C162 1.266 . S
O178 Tb153 2.484 . S
O178 C163 1.248 . S
O179 Tb153 2.440 . S
O179 C163 1.266 . S
O180 Tb152 2.325 . S
O180 Tb153 2.658 1_655 S
O180 C170 1.281 1_545 S
O181 Tb153 2.409 . S
O181 C170 1.254 1_445 S
O182 Tb153 2.378 . S
O182 C171 1.236 1_455 S
O183 Tb152 2.341 . S
O183 C171 1.266 . S
H184 C156 0.929 . S
H185 C157 0.931 . S
H186 C159 0.930 . S
H187 C160 0.930 . S
H188 C165 0.929 . S
H189 C166 0.931 . S
H190 C168 0.930 . S
H191 C169 0.930 . S
Tb192 C194 2.809 . S
Tb192 O212 2.484 . S
Tb192 O213 2.440 . S
Tb192 O214 2.660 . S
Tb192 O215 2.409 1_545 S
Tb192 O216 2.378 . S
Tb192 O220 2.325 . S
Tb192 O223 2.341 . S
Tb193 C203 2.809 1_545 S
Tb193 O214 2.327 . S
Tb193 O217 2.341 . S
Tb193 O218 2.484 1_545 S
Tb193 O219 2.440 . S
Tb193 O220 2.658 . S
Tb193 O221 2.409 . S
Tb193 O222 2.378 . S
C194 Tb192 2.809 . S
C194 C195 1.514 . S
C194 O212 1.248 . S
C194 O213 1.266 . S
C195 C194 1.514 . S
C195 C196 1.359 . S
C195 C200 1.348 . S
C196 C195 1.359 . S
C196 C197 1.380 . S
C196 H224 0.929 . S
C197 C196 1.380 . S
C197 C198 1.347 . S
C197 H225 0.931 . S
C198 C197 1.347 . S
C198 C199 1.369 . S
C199 C198 1.369 . S
C199 C200 1.408 . S
C199 H226 0.930 . S
C200 C195 1.348 . S
C200 C199 1.408 . S
C200 H227 0.930 . S
C201 O214 1.279 1_565 S
C201 O215 1.254 . S
C202 O216 1.236 . S
C202 O217 1.266 . S
C203 Tb193 2.809 1_565 S
C203 C204 1.514 1_554 S
C203 O218 1.248 . S
C203 O219 1.266 1_565 S
C204 C203 1.514 1_556 S
C204 C205 1.359 . S
C204 C209 1.348 . S
C205 C204 1.359 . S
C205 C206 1.380 . S
C205 H228 0.929 1_556 S
C206 C205 1.380 . S
C206 C207 1.347 . S
C206 H229 0.931 . S
C207 C206 1.347 . S
C207 C208 1.369 . S
C208 C207 1.369 . S
C208 C209 1.408 . S
C208 H230 0.930 . S
C209 C204 1.348 . S
C209 C208 1.408 . S
C209 H231 0.930 . S
C210 O220 1.281 . S
C210 O221 1.254 . S
C211 O222 1.236 1_565 S
C211 O223 1.266 1_565 S
O212 Tb192 2.484 . S
O212 C194 1.248 . S
O213 Tb192 2.440 . S
O213 C194 1.266 . S
O214 Tb192 2.660 . S
O214 Tb193 2.327 . S
O214 C201 1.279 1_545 S
O215 Tb192 2.409 1_565 S
O215 C201 1.254 . S
O216 Tb192 2.378 . S
O216 C202 1.236 . S
O217 Tb193 2.341 . S
O217 C202 1.266 . S
O218 Tb193 2.484 1_565 S
O218 C203 1.248 . S
O219 Tb193 2.440 . S
O219 C203 1.266 1_545 S
O220 Tb192 2.325 . S
O220 Tb193 2.658 . S
O220 C210 1.281 . S
O221 Tb193 2.409 . S
O221 C210 1.254 . S
O222 Tb193 2.378 . S
O222 C211 1.236 1_545 S
O223 Tb192 2.341 . S
O223 C211 1.266 1_545 S
H224 C196 0.929 . S
H225 C197 0.931 . S
H226 C199 0.930 . S
H227 C200 0.930 . S
H228 C205 0.929 1_554 S
H229 C206 0.931 . S
H230 C208 0.930 . S
H231 C209 0.930 . S
Tb232 C234 2.809 . S
Tb232 O252 2.484 . S
Tb232 O253 2.440 . S
Tb232 O254 2.658 . S
Tb232 O255 2.409 . S
Tb232 O256 2.378 . S
Tb232 O260 2.325 . S
Tb232 O263 2.341 . S
Tb233 C243 2.809 . S
Tb233 O254 2.325 . S
Tb233 O257 2.341 . S
Tb233 O258 2.484 . S
Tb233 O259 2.440 . S
Tb233 O260 2.658 . S
Tb233 O261 2.409 . S
Tb233 O262 2.378 . S
C234 Tb232 2.809 . S
C234 C235 1.514 . S
C234 O252 1.248 . S
C234 O253 1.266 . S
C235 C234 1.514 . S
C235 C236 1.359 . S
C235 C240 1.348 . S
C236 C235 1.359 . S
C236 C237 1.380 . S
C236 H264 0.929 . S
C237 C236 1.380 . S
C237 C238 1.347 . S
C237 H265 0.931 . S
C238 C237 1.347 . S
C238 C239 1.369 . S
C239 C238 1.369 . S
C239 C240 1.408 . S
C239 H266 0.930 . S
C240 C235 1.348 . S
C240 C239 1.408 . S
C240 H267 0.930 . S
C241 O254 1.281 . S
C241 O255 1.254 . S
C242 O256 1.236 . S
C242 O257 1.266 . S
C243 Tb233 2.809 . S
C243 C244 1.514 . S
C243 O258 1.248 . S
C243 O259 1.266 . S
C244 C243 1.514 . S
C244 C245 1.359 . S
C244 C249 1.348 . S
C245 C244 1.359 . S
C245 C246 1.380 . S
C245 H268 0.929 . S
C246 C245 1.380 . S
C246 C247 1.347 . S
C246 H269 0.931 . S
C247 C246 1.347 . S
C247 C248 1.369 . S
C248 C247 1.369 . S
C248 C249 1.408 . S
C248 H270 0.930 . S
C249 C244 1.348 . S
C249 C248 1.408 . S
C249 H271 0.930 . S
C250 O260 1.281 . S
C250 O261 1.254 . S
C251 O262 1.236 . S
C251 O263 1.266 . S
O252 Tb232 2.484 . S
O252 C234 1.248 . S
O253 Tb232 2.440 . S
O253 C234 1.266 . S
O254 Tb232 2.658 . S
O254 Tb233 2.325 . S
O254 C241 1.281 . S
O255 Tb232 2.409 . S
O255 C241 1.254 . S
O256 Tb232 2.378 . S
O256 C242 1.236 . S
O257 Tb233 2.341 . S
O257 C242 1.266 . S
O258 Tb233 2.484 . S
O258 C243 1.248 . S
O259 Tb233 2.440 . S
O259 C243 1.266 . S
O260 Tb232 2.325 . S
O260 Tb233 2.658 . S
O260 C250 1.281 . S
O261 Tb233 2.409 . S
O261 C250 1.254 . S
O262 Tb233 2.378 . S
O262 C251 1.236 . S
O263 Tb232 2.341 . S
O263 C251 1.266 . S
H264 C236 0.929 . S
H265 C237 0.931 . S
H266 C239 0.930 . S
H267 C240 0.930 . S
H268 C245 0.929 . S
H269 C246 0.931 . S
H270 C248 0.930 . S
H271 C249 0.930 . S
Tb272 C274 2.809 . S
Tb272 O292 2.484 1_455 S
Tb272 O293 2.440 . S
Tb272 O294 2.658 1_556 S
Tb272 O295 2.409 1_556 S
Tb272 O296 2.378 1_556 S
Tb272 O300 2.325 1_556 S
Tb272 O303 2.341 . S
Tb273 C283 2.809 . S
Tb273 O294 2.325 . S
Tb273 O297 2.341 . S
Tb273 O298 2.484 . S
Tb273 O299 2.440 . S
Tb273 O300 2.658 . S
Tb273 O301 2.409 1_455 S
Tb273 O302 2.378 1_554 S
C274 Tb272 2.809 . S
C274 C275 1.514 1_455 S
C274 O292 1.248 1_455 S
C274 O293 1.266 . S
C275 C274 1.514 1_655 S
C275 C276 1.359 . S
C275 C280 1.348 1_655 S
C276 C275 1.359 . S
C276 C277 1.380 . S
C276 H304 0.929 . S
C277 C276 1.380 . S
C277 C278 1.347 . S
C277 H305 0.931 . S
C278 C277 1.347 . S
C278 C279 1.369 . S
C279 C278 1.369 . S
C279 C280 1.408 1_655 S
C279 H306 0.930 1_655 S
C280 C275 1.348 1_455 S
C280 C279 1.408 1_455 S
C280 H307 0.930 . S
C281 O294 1.281 . S
C281 O295 1.254 . S
C282 O296 1.236 . S
C282 O297 1.266 . S
C283 Tb273 2.809 . S
C283 C284 1.514 . S
C283 O298 1.248 . S
C283 O299 1.266 . S
C284 C283 1.514 . S
C284 C285 1.359 . S
C284 C289 1.348 . S
C285 C284 1.359 . S
C285 C286 1.380 . S
C285 H308 0.929 . S
C286 C285 1.380 . S
C286 C287 1.347 . S
C286 H309 0.931 . S
C287 C286 1.347 . S
C287 C288 1.369 . S
C288 C287 1.369 . S
C288 C289 1.408 . S
C288 H310 0.930 . S
C289 C284 1.348 . S
C289 C288 1.408 . S
C289 H311 0.930 . S
C290 O300 1.281 1_656 S
C290 O301 1.254 1_556 S
C291 O302 1.236 . S
C291 O303 1.266 . S
O292 Tb272 2.484 1_655 S
O292 C274 1.248 1_655 S
O293 Tb272 2.440 . S
O293 C274 1.266 . S
O294 Tb272 2.658 1_554 S
O294 Tb273 2.325 . S
O294 C281 1.281 . S
O295 Tb272 2.409 1_554 S
O295 C281 1.254 . S
O296 Tb272 2.378 1_554 S
O296 C282 1.236 . S
O297 Tb273 2.341 . S
O297 C282 1.266 . S
O298 Tb273 2.484 . S
O298 C283 1.248 . S
O299 Tb273 2.440 . S
O299 C283 1.266 . S
O300 Tb272 2.325 1_554 S
O300 Tb273 2.658 . S
O300 C290 1.281 1_454 S
O301 Tb273 2.409 1_655 S
O301 C290 1.254 1_554 S
O302 Tb273 2.378 1_556 S
O302 C291 1.236 . S
O303 Tb272 2.341 . S
O303 C291 1.266 . S
H304 C276 0.929 . S
H305 C277 0.931 . S
H306 C279 0.930 1_455 S
H307 C280 0.930 . S
H308 C285 0.929 . S
H309 C286 0.931 . S
H310 C288 0.930 . S
H311 C289 0.930 . S
H312 C320 0.950 . S
H313 C325 0.950 . S
H314 C322 0.950 . S
H315 C324 0.950 . S
H316 C326 0.950 . S
H317 C328 0.950 . S
H318 C330 0.950 . S
H319 C331 0.950 . S
C320 H312 0.950 . S
C320 C321 1.386 . S
C320 C322 1.391 . S
C321 C320 1.386 . S
C321 C325 1.393 . S
C322 H314 0.950 . S
C322 C320 1.391 . S
C322 C323 1.400 . S
C323 C322 1.400 . S
C323 C324 1.398 . S
C323 C329 1.491 . S
C324 H315 0.950 . S
C324 C323 1.398 . S
C324 C325 1.391 . S
C325 H313 0.950 . S
C325 C321 1.393 . S
C325 C324 1.391 . S
C326 H316 0.950 . S
C326 C327 1.386 . S
C326 C328 1.391 . S
C327 C326 1.386 . S
C327 C331 1.393 . S
C328 H317 0.950 . S
C328 C326 1.391 . S
C328 C329 1.400 . S
C329 C323 1.491 . S
C329 C328 1.400 . S
C329 C330 1.398 . S
C330 H318 0.950 . S
C330 C329 1.398 . S
C330 C331 1.391 . S
C331 H319 0.950 . S
C331 C327 1.393 . S
C331 C330 1.391 . S
H332 C340 0.950 . S
H333 C345 0.950 . S
H334 C342 0.950 . S
H335 C344 0.950 . S
H336 C346 0.950 . S
H337 C348 0.950 . S
H338 C350 0.950 . S
H339 C351 0.950 . S
C340 H332 0.950 . S
C340 C341 1.386 . S
C340 C342 1.391 . S
C341 C340 1.386 . S
C341 C345 1.393 . S
C342 H334 0.950 . S
C342 C340 1.391 . S
C342 C343 1.400 . S
C343 C342 1.400 . S
C343 C344 1.398 . S
C343 C349 1.491 . S
C344 H335 0.950 . S
C344 C343 1.398 . S
C344 C345 1.391 . S
C345 H333 0.950 . S
C345 C341 1.393 . S
C345 C344 1.391 . S
C346 H336 0.950 . S
C346 C347 1.386 . S
C346 C348 1.391 . S
C347 C346 1.386 . S
C347 C351 1.393 . S
C348 H337 0.950 . S
C348 C346 1.391 . S
C348 C349 1.400 . S
C349 C343 1.491 . S
C349 C348 1.400 . S
C349 C350 1.398 . S
C350 H338 0.950 . S
C350 C349 1.398 . S
C350 C351 1.391 . S
C351 H339 0.950 . S
C351 C347 1.393 . S
C351 C350 1.391 . S
H352 C360 0.950 . S
H353 C365 0.950 . S
H354 C362 0.950 . S
H355 C364 0.950 . S
H356 C366 0.950 . S
H357 C368 0.950 . S
H358 C370 0.950 . S
H359 C371 0.950 . S
C360 H352 0.950 . S
C360 C361 1.386 . S
C360 C362 1.391 . S
C361 C360 1.386 . S
C361 C365 1.393 . S
C362 H354 0.950 . S
C362 C360 1.391 . S
C362 C363 1.400 . S
C363 C362 1.400 . S
C363 C364 1.398 . S
C363 C369 1.491 . S
C364 H355 0.950 . S
C364 C363 1.398 . S
C364 C365 1.391 . S
C365 H353 0.950 . S
C365 C361 1.393 . S
C365 C364 1.391 . S
C366 H356 0.950 . S
C366 C367 1.386 . S
C366 C368 1.391 . S
C367 C366 1.386 . S
C367 C371 1.393 . S
C368 H357 0.950 . S
C368 C366 1.391 . S
C368 C369 1.400 . S
C369 C363 1.491 . S
C369 C368 1.400 . S
C369 C370 1.398 . S
C370 H358 0.950 . S
C370 C369 1.398 . S
C370 C371 1.391 . S
C371 H359 0.950 . S
C371 C367 1.393 . S
C371 C370 1.391 . S
H372 C380 0.950 . S
H373 C385 0.950 . S
H374 C382 0.950 . S
H375 C384 0.950 . S
H376 C386 0.950 . S
H377 C388 0.950 . S
H378 C390 0.950 . S
H379 C391 0.950 . S
C380 H372 0.950 . S
C380 C381 1.386 . S
C380 C382 1.391 . S
C381 C380 1.386 . S
C381 C385 1.393 . S
C382 H374 0.950 . S
C382 C380 1.391 . S
C382 C383 1.400 . S
C383 C382 1.400 . S
C383 C384 1.398 . S
C383 C389 1.491 . S
C384 H375 0.950 . S
C384 C383 1.398 . S
C384 C385 1.391 . S
C385 H373 0.950 . S
C385 C381 1.393 . S
C385 C384 1.391 . S
C386 H376 0.950 . S
C386 C387 1.386 . S
C386 C388 1.391 . S
C387 C386 1.386 . S
C387 C391 1.393 . S
C388 H377 0.950 . S
C388 C386 1.391 . S
C388 C389 1.400 . S
C389 C383 1.491 . S
C389 C388 1.400 . S
C389 C390 1.398 . S
C390 H378 0.950 . S
C390 C389 1.398 . S
C390 C391 1.391 . S
C391 H379 0.950 . S
C391 C387 1.393 . S
C391 C390 1.391 . S
H392 C400 0.950 . S
H393 C405 0.950 . S
H394 C402 0.950 . S
H395 C404 0.950 . S
H396 C406 0.950 . S
H397 C408 0.950 . S
H398 C410 0.950 . S
H399 C411 0.950 . S
C400 H392 0.950 . S
C400 C401 1.386 . S
C400 C402 1.391 . S
C401 C400 1.386 . S
C401 C405 1.393 . S
C402 H394 0.950 . S
C402 C400 1.391 . S
C402 C403 1.400 . S
C403 C402 1.400 . S
C403 C404 1.398 . S
C403 C409 1.491 . S
C404 H395 0.950 . S
C404 C403 1.398 . S
C404 C405 1.391 . S
C405 H393 0.950 . S
C405 C401 1.393 . S
C405 C404 1.391 . S
C406 H396 0.950 . S
C406 C407 1.386 . S
C406 C408 1.391 . S
C407 C406 1.386 . S
C407 C411 1.393 . S
C408 H397 0.950 . S
C408 C406 1.391 . S
C408 C409 1.400 . S
C409 C403 1.491 . S
C409 C408 1.400 . S
C409 C410 1.398 . S
C410 H398 0.950 . S
C410 C409 1.398 . S
C410 C411 1.391 . S
C411 H399 0.950 . S
C411 C407 1.393 . S
C411 C410 1.391 . S
H412 C420 0.950 . S
H413 C425 0.950 . S
H414 C422 0.950 . S
H415 C424 0.950 . S
H416 C426 0.969 . S
H417 C428 0.950 . S
H418 C430 0.950 . S
H419 C431 0.950 . S
C420 H412 0.950 . S
C420 C421 1.386 . S
C420 C422 1.391 . S
C421 C420 1.386 . S
C421 C425 1.393 1_455 S
C422 H414 0.950 . S
C422 C420 1.391 . S
C422 C423 1.400 . S
C423 C422 1.400 . S
C423 C424 1.398 1_455 S
C423 C429 1.491 . S
C424 H415 0.950 . S
C424 C423 1.398 1_655 S
C424 C425 1.391 . S
C425 H413 0.950 . S
C425 C421 1.393 1_655 S
C425 C424 1.391 . S
C426 H416 0.969 . S
C426 C427 1.373 1_655 S
C426 C428 1.385 . S
C427 C426 1.373 1_455 S
C427 C431 1.393 . S
C428 H417 0.950 . S
C428 C426 1.385 . S
C428 C429 1.400 1_655 S
C429 C423 1.491 . S
C429 C428 1.400 1_455 S
C429 C430 1.398 . S
C430 H418 0.950 . S
C430 C429 1.398 . S
C430 C431 1.391 . S
C431 H419 0.950 . S
C431 C427 1.393 . S
C431 C430 1.391 . S
H432 C440 0.950 . S
H433 C445 0.950 . S
H434 C442 0.950 . S
H435 C444 0.950 . S
H436 C446 0.950 . S
H437 C448 0.950 . S
H438 C450 0.950 . S
H439 C451 0.950 . S
C440 H432 0.950 . S
C440 C441 1.386 . S
C440 C442 1.391 . S
C441 C440 1.386 . S
C441 C445 1.393 . S
C442 H434 0.950 . S
C442 C440 1.391 . S
C442 C443 1.400 . S
C443 C442 1.400 . S
C443 C444 1.398 . S
C443 C449 1.491 . S
C444 H435 0.950 . S
C444 C443 1.398 . S
C444 C445 1.391 . S
C445 H433 0.950 . S
C445 C441 1.393 . S
C445 C444 1.391 . S
C446 H436 0.950 . S
C446 C447 1.386 . S
C446 C448 1.391 . S
C447 C446 1.386 . S
C447 C451 1.393 . S
C448 H437 0.950 . S
C448 C446 1.391 . S
C448 C449 1.400 . S
C449 C443 1.491 . S
C449 C448 1.400 . S
C449 C450 1.398 . S
C450 H438 0.950 . S
C450 C449 1.398 . S
C450 C451 1.391 . S
C451 H439 0.950 . S
C451 C447 1.393 . S
C451 C450 1.391 . S
H452 C460 0.950 . S
H453 C465 0.950 . S
H454 C462 0.950 . S
H455 C464 0.950 . S
H456 C466 0.950 . S
H457 C468 0.950 . S
H458 C470 0.950 . S
H459 C471 0.950 . S
C460 H452 0.950 . S
C460 C461 1.386 . S
C460 C462 1.391 . S
C461 C460 1.386 . S
C461 C465 1.393 . S
C462 H454 0.950 . S
C462 C460 1.391 . S
C462 C463 1.400 . S
C463 C462 1.400 . S
C463 C464 1.398 . S
C463 C469 1.491 . S
C464 H455 0.950 . S
C464 C463 1.398 . S
C464 C465 1.391 . S
C465 H453 0.950 . S
C465 C461 1.393 . S
C465 C464 1.391 . S
C466 H456 0.950 . S
C466 C467 1.386 . S
C466 C468 1.391 . S
C467 C466 1.386 . S
C467 C471 1.393 . S
C468 H457 0.950 . S
C468 C466 1.391 . S
C468 C469 1.400 . S
C469 C463 1.491 . S
C469 C468 1.400 . S
C469 C470 1.398 . S
C470 H458 0.950 . S
C470 C469 1.398 . S
C470 C471 1.391 . S
C471 H459 0.950 . S
C471 C467 1.393 . S
C471 C470 1.391 . S
H472 C480 0.950 . S
H473 C485 0.950 . S
H474 C482 0.950 . S
H475 C484 0.950 . S
H476 C486 0.950 . S
H477 C488 0.950 . S
H478 C490 0.950 . S
H479 C491 0.950 . S
C480 H472 0.950 . S
C480 C481 1.386 . S
C480 C482 1.391 . S
C481 C480 1.386 . S
C481 C485 1.393 . S
C482 H474 0.950 . S
C482 C480 1.391 . S
C482 C483 1.400 . S
C483 C482 1.400 . S
C483 C484 1.398 . S
C483 C489 1.491 . S
C484 H475 0.950 . S
C484 C483 1.398 . S
C484 C485 1.391 . S
C485 H473 0.950 . S
C485 C481 1.393 . S
C485 C484 1.391 . S
C486 H476 0.950 . S
C486 C487 1.386 . S
C486 C488 1.391 . S
C487 C486 1.386 . S
C487 C491 1.393 . S
C488 H477 0.950 . S
C488 C486 1.391 . S
C488 C489 1.400 . S
C489 C483 1.491 . S
C489 C488 1.400 . S
C489 C490 1.398 . S
C490 H478 0.950 . S
C490 C489 1.398 . S
C490 C491 1.391 . S
C491 H479 0.950 . S
C491 C487 1.393 . S
C491 C490 1.391 . S
H492 C500 0.950 . S
H493 C505 0.950 . S
H494 C502 0.950 . S
H495 C504 0.950 . S
H496 C506 0.950 . S
H497 C508 0.950 . S
H498 C510 0.950 . S
H499 C511 0.950 . S
C500 H492 0.950 . S
C500 C501 1.386 . S
C500 C502 1.391 . S
C501 C500 1.386 . S
C501 C505 1.393 . S
C502 H494 0.950 . S
C502 C500 1.391 . S
C502 C503 1.400 . S
C503 C502 1.400 . S
C503 C504 1.398 . S
C503 C509 1.491 . S
C504 H495 0.950 . S
C504 C503 1.398 . S
C504 C505 1.391 . S
C505 H493 0.950 . S
C505 C501 1.393 . S
C505 C504 1.391 . S
C506 H496 0.950 . S
C506 C507 1.386 . S
C506 C508 1.391 . S
C507 C506 1.386 . S
C507 C511 1.393 1_554 S
C508 H497 0.950 . S
C508 C506 1.391 . S
C508 C509 1.400 1_554 S
C509 C503 1.491 . S
C509 C508 1.400 1_556 S
C509 C510 1.398 . S
C510 H498 0.950 . S
C510 C509 1.398 . S
C510 C511 1.391 . S
C511 H499 0.950 . S
C511 C507 1.393 1_556 S
C511 C510 1.391 . S
H512 C520 0.950 . S
H513 C525 0.950 . S
H514 C522 0.950 . S
H515 C524 0.950 . S
H516 C526 0.950 . S
H517 C528 0.950 . S
H518 C530 0.950 . S
H519 C531 0.950 . S
C520 H512 0.950 . S
C520 C521 1.386 . S
C520 C522 1.391 . S
C521 C520 1.386 . S
C521 C525 1.393 . S
C522 H514 0.950 . S
C522 C520 1.391 . S
C522 C523 1.400 . S
C523 C522 1.400 . S
C523 C524 1.398 . S
C523 C529 1.491 . S
C524 H515 0.950 . S
C524 C523 1.398 . S
C524 C525 1.391 . S
C525 H513 0.950 . S
C525 C521 1.393 . S
C525 C524 1.391 . S
C526 H516 0.950 . S
C526 C527 1.386 . S
C526 C528 1.391 . S
C527 C526 1.386 . S
C527 C531 1.393 . S
C528 H517 0.950 . S
C528 C526 1.391 . S
C528 C529 1.400 . S
C529 C523 1.491 . S
C529 C528 1.400 . S
C529 C530 1.398 . S
C530 H518 0.950 . S
C530 C529 1.398 . S
C530 C531 1.391 . S
C531 H519 0.950 . S
C531 C527 1.393 . S
C531 C530 1.391 . S
H532 C540 0.950 . S
H533 C545 0.950 . S
H534 C542 0.950 . S
H535 C544 0.950 . S
H536 C546 0.950 . S
H537 C548 0.950 . S
H538 C550 0.950 . S
H539 C551 0.950 . S
C540 H532 0.950 . S
C540 C541 1.386 . S
C540 C542 1.391 . S
C541 C540 1.386 . S
C541 C545 1.393 . S
C542 H534 0.950 . S
C542 C540 1.391 . S
C542 C543 1.400 . S
C543 C542 1.400 . S
C543 C544 1.398 . S
C543 C549 1.491 . S
C544 H535 0.950 . S
C544 C543 1.398 . S
C544 C545 1.391 . S
C545 H533 0.950 . S
C545 C541 1.393 . S
C545 C544 1.391 . S
C546 H536 0.950 . S
C546 C547 1.386 . S
C546 C548 1.391 . S
C547 C546 1.386 . S
C547 C551 1.393 . S
C548 H537 0.950 . S
C548 C546 1.391 . S
C548 C549 1.400 . S
C549 C543 1.491 . S
C549 C548 1.400 . S
C549 C550 1.398 . S
C550 H538 0.950 . S
C550 C549 1.398 . S
C550 C551 1.391 . S
C551 H539 0.950 . S
C551 C547 1.393 . S
C551 C550 1.391 . S
H552 C560 0.950 . S
H553 C565 0.950 . S
H554 C562 0.950 . S
H555 C564 0.950 . S
H556 C566 0.950 . S
H557 C568 0.950 . S
H558 C570 0.950 . S
H559 C571 0.950 . S
C560 H552 0.950 . S
C560 C561 1.386 . S
C560 C562 1.391 . S
C561 C560 1.386 . S
C561 C565 1.393 . S
C562 H554 0.950 . S
C562 C560 1.391 . S
C562 C563 1.400 . S
C563 C562 1.400 . S
C563 C564 1.398 . S
C563 C569 1.491 . S
C564 H555 0.950 . S
C564 C563 1.398 . S
C564 C565 1.391 . S
C565 H553 0.950 . S
C565 C561 1.393 . S
C565 C564 1.391 . S
C566 H556 0.950 . S
C566 C567 1.386 . S
C566 C568 1.391 . S
C567 C566 1.386 . S
C567 C571 1.393 . S
C568 H557 0.950 . S
C568 C566 1.391 . S
C568 C569 1.400 . S
C569 C563 1.491 . S
C569 C568 1.400 . S
C569 C570 1.398 . S
C570 H558 0.950 . S
C570 C569 1.398 . S
C570 C571 1.391 . S
C571 H559 0.950 . S
C571 C567 1.393 . S
C571 C570 1.391 . S
H572 C580 0.950 . S
H573 C585 0.950 . S
H574 C582 0.950 . S
H575 C584 0.950 . S
H576 C586 0.950 . S
H577 C588 0.950 . S
H578 C590 0.950 . S
H579 C591 0.950 . S
C580 H572 0.950 . S
C580 C581 1.386 . S
C580 C582 1.391 . S
C581 C580 1.386 . S
C581 C585 1.393 . S
C582 H574 0.950 . S
C582 C580 1.391 . S
C582 C583 1.400 . S
C583 C582 1.400 . S
C583 C584 1.398 . S
C583 C589 1.491 . S
C584 H575 0.950 . S
C584 C583 1.398 . S
C584 C585 1.391 . S
C585 H573 0.950 . S
C585 C581 1.393 . S
C585 C584 1.391 . S
C586 H576 0.950 . S
C586 C587 1.386 . S
C586 C588 1.391 . S
C587 C586 1.386 . S
C587 C591 1.393 . S
C588 H577 0.950 . S
C588 C586 1.391 . S
C588 C589 1.400 . S
C589 C583 1.491 . S
C589 C588 1.400 . S
C589 C590 1.398 . S
C590 H578 0.950 . S
C590 C589 1.398 . S
C590 C591 1.391 . S
C591 H579 0.950 . S
C591 C587 1.393 . S
C591 C590 1.391 . S
H592 C600 0.950 . S
H593 C605 0.950 . S
H594 C602 0.950 . S
H595 C604 0.950 . S
H596 C606 0.950 . S
H597 C608 0.950 . S
H598 C610 0.950 . S
H599 C611 0.950 . S
C600 H592 0.950 . S
C600 C601 1.386 . S
C600 C602 1.391 . S
C601 C600 1.386 . S
C601 C605 1.393 . S
C602 H594 0.950 . S
C602 C600 1.391 . S
C602 C603 1.400 . S
C603 C602 1.400 . S
C603 C604 1.398 . S
C603 C609 1.491 . S
C604 H595 0.950 . S
C604 C603 1.398 . S
C604 C605 1.391 . S
C605 H593 0.950 . S
C605 C601 1.393 . S
C605 C604 1.391 . S
C606 H596 0.950 . S
C606 C607 1.386 . S
C606 C608 1.391 . S
C607 C606 1.386 . S
C607 C611 1.393 . S
C608 H597 0.950 . S
C608 C606 1.391 . S
C608 C609 1.400 . S
C609 C603 1.491 . S
C609 C608 1.400 . S
C609 C610 1.398 . S
C610 H598 0.950 . S
C610 C609 1.398 . S
C610 C611 1.391 . S
C611 H599 0.950 . S
C611 C607 1.393 . S
C611 C610 1.391 . S
H612 C620 0.950 . S
H613 C625 0.950 . S
H614 C622 0.950 . S
H615 C624 0.950 . S
H616 C626 0.950 . S
H617 C628 0.950 . S
H618 C630 0.950 . S
H619 C631 0.950 . S
C620 H612 0.950 . S
C620 C621 1.386 . S
C620 C622 1.391 . S
C621 C620 1.386 . S
C621 C625 1.393 . S
C622 H614 0.950 . S
C622 C620 1.391 . S
C622 C623 1.400 . S
C623 C622 1.400 . S
C623 C624 1.398 . S
C623 C629 1.491 . S
C624 H615 0.950 . S
C624 C623 1.398 . S
C624 C625 1.391 . S
C625 H613 0.950 . S
C625 C621 1.393 . S
C625 C624 1.391 . S
C626 H616 0.950 . S
C626 C627 1.386 . S
C626 C628 1.391 . S
C627 C626 1.386 . S
C627 C631 1.393 . S
C628 H617 0.950 . S
C628 C626 1.391 . S
C628 C629 1.400 . S
C629 C623 1.491 . S
C629 C628 1.400 . S
C629 C630 1.398 . S
C630 H618 0.950 . S
C630 C629 1.398 . S
C630 C631 1.391 . S
C631 H619 0.950 . S
C631 C627 1.393 . S
C631 C630 1.391 . S
H632 C640 0.950 . S
H633 C645 0.950 . S
H634 C642 0.950 . S
H635 C644 0.950 . S
H636 C646 0.950 . S
H637 C648 0.950 . S
H638 C650 0.950 . S
H639 C651 0.950 . S
C640 H632 0.950 . S
C640 C641 1.386 . S
C640 C642 1.391 . S
C641 C640 1.386 . S
C641 C645 1.393 . S
C642 H634 0.950 . S
C642 C640 1.391 . S
C642 C643 1.400 . S
C643 C642 1.400 . S
C643 C644 1.398 . S
C643 C649 1.491 . S
C644 H635 0.950 . S
C644 C643 1.398 . S
C644 C645 1.391 . S
C645 H633 0.950 . S
C645 C641 1.393 . S
C645 C644 1.391 . S
C646 H636 0.950 . S
C646 C647 1.386 . S
C646 C648 1.391 . S
C647 C646 1.386 . S
C647 C651 1.393 . S
C648 H637 0.950 . S
C648 C646 1.391 . S
C648 C649 1.400 1_554 S
C649 C643 1.491 . S
C649 C648 1.400 1_556 S
C649 C650 1.398 . S
C650 H638 0.950 . S
C650 C649 1.398 . S
C650 C651 1.391 1_556 S
C651 H639 0.950 . S
C651 C647 1.393 . S
C651 C650 1.391 1_554 S
H652 C660 0.950 . S
H653 C665 0.950 . S
H654 C662 0.950 . S
H655 C664 0.950 1_455 S
H656 C666 0.950 . S
H657 C668 0.949 . S
H658 C670 0.950 . S
H659 C671 0.950 . S
C660 H652 0.950 . S
C660 C661 1.386 . S
C660 C662 1.391 . S
C661 C660 1.386 . S
C661 C665 1.393 . S
C662 H654 0.950 . S
C662 C660 1.391 . S
C662 C663 1.400 . S
C663 C662 1.400 . S
C663 C664 1.398 . S
C663 C669 1.491 . S
C664 H655 0.950 1_655 S
C664 C663 1.398 . S
C664 C665 1.391 . S
C665 H653 0.950 . S
C665 C661 1.393 . S
C665 C664 1.391 . S
C666 H656 0.950 . S
C666 C667 1.386 1_455 S
C666 C668 1.391 . S
C667 C666 1.386 1_655 S
C667 C671 1.393 . S
C668 H657 0.949 . S
C668 C666 1.391 . S
C668 C669 1.401 1_455 S
C669 C663 1.491 . S
C669 C668 1.401 1_655 S
C669 C670 1.398 . S
C670 H658 0.950 . S
C670 C669 1.398 . S
C670 C671 1.391 . S
C671 H659 0.950 . S
C671 C667 1.393 . S
C671 C670 1.391 . S
H672 C680 0.950 . S
H673 C685 0.950 . S
H674 C682 0.950 . S
H675 C684 0.950 . S
H676 C686 0.950 . S
H677 C688 0.950 . S
H678 C690 0.950 . S
H679 C691 0.950 . S
C680 H672 0.950 . S
C680 C681 1.386 . S
C680 C682 1.391 . S
C681 C680 1.386 . S
C681 C685 1.393 . S
C682 H674 0.950 . S
C682 C680 1.391 . S
C682 C683 1.400 . S
C683 C682 1.400 . S
C683 C684 1.398 . S
C683 C689 1.491 . S
C684 H675 0.950 . S
C684 C683 1.398 . S
C684 C685 1.391 . S
C685 H673 0.950 . S
C685 C681 1.393 . S
C685 C684 1.391 . S
C686 H676 0.950 . S
C686 C687 1.386 . S
C686 C688 1.391 . S
C687 C686 1.386 . S
C687 C691 1.393 . S
C688 H677 0.950 . S
C688 C686 1.391 . S
C688 C689 1.400 . S
C689 C683 1.491 . S
C689 C688 1.400 . S
C689 C690 1.398 . S
C690 H678 0.950 . S
C690 C689 1.398 . S
C690 C691 1.391 . S
C691 H679 0.950 . S
C691 C687 1.393 . S
C691 C690 1.391 . S
H692 C700 0.950 . S
H693 C705 0.950 . S
H694 C702 0.950 . S
H695 C704 0.950 . S
H696 C706 0.950 . S
H697 C708 0.950 . S
H698 C710 0.950 . S
H699 C711 0.950 . S
C700 H692 0.950 . S
C700 C701 1.386 . S
C700 C702 1.391 . S
C701 C700 1.386 . S
C701 C705 1.393 . S
C702 H694 0.950 . S
C702 C700 1.391 . S
C702 C703 1.400 . S
C703 C702 1.400 . S
C703 C704 1.398 . S
C703 C709 1.491 . S
C704 H695 0.950 . S
C704 C703 1.398 . S
C704 C705 1.391 . S
C705 H693 0.950 . S
C705 C701 1.393 . S
C705 C704 1.391 . S
C706 H696 0.950 . S
C706 C707 1.386 . S
C706 C708 1.391 . S
C707 C706 1.386 . S
C707 C711 1.393 . S
C708 H697 0.950 . S
C708 C706 1.391 . S
C708 C709 1.400 . S
C709 C703 1.491 . S
C709 C708 1.400 . S
C709 C710 1.398 . S
C710 H698 0.950 . S
C710 C709 1.398 . S
C710 C711 1.391 . S
C711 H699 0.950 . S
C711 C707 1.393 . S
C711 C710 1.391 . S
H712 C720 0.950 . S
H713 C725 0.950 . S
H714 C722 0.950 . S
H715 C724 0.950 . S
H716 C726 0.950 . S
H717 C728 0.950 . S
H718 C730 0.950 . S
H719 C731 0.950 . S
C720 H712 0.950 . S
C720 C721 1.386 . S
C720 C722 1.391 . S
C721 C720 1.386 . S
C721 C725 1.393 . S
C722 H714 0.950 . S
C722 C720 1.391 . S
C722 C723 1.400 . S
C723 C722 1.400 . S
C723 C724 1.398 . S
C723 C729 1.491 . S
C724 H715 0.950 . S
C724 C723 1.398 . S
C724 C725 1.391 . S
C725 H713 0.950 . S
C725 C721 1.393 . S
C725 C724 1.391 . S
C726 H716 0.950 . S
C726 C727 1.386 . S
C726 C728 1.391 . S
C727 C726 1.386 . S
C727 C731 1.393 . S
C728 H717 0.950 . S
C728 C726 1.391 . S
C728 C729 1.400 . S
C729 C723 1.491 . S
C729 C728 1.400 . S
C729 C730 1.398 . S
C730 H718 0.950 . S
C730 C729 1.398 . S
C730 C731 1.391 . S
C731 H719 0.950 . S
C731 C727 1.393 . S
C731 C730 1.391 . S
H732 C740 0.950 . S
H733 C745 0.950 . S
H734 C742 0.950 . S
H735 C744 0.950 . S
H736 C746 0.950 . S
H737 C748 0.950 . S
H738 C750 0.950 . S
H739 C751 0.950 . S
C740 H732 0.950 . S
C740 C741 1.386 . S
C740 C742 1.391 . S
C741 C740 1.386 . S
C741 C745 1.393 . S
C742 H734 0.950 . S
C742 C740 1.391 . S
C742 C743 1.400 . S
C743 C742 1.400 . S
C743 C744 1.398 . S
C743 C749 1.491 . S
C744 H735 0.950 . S
C744 C743 1.398 . S
C744 C745 1.391 . S
C745 H733 0.950 . S
C745 C741 1.393 . S
C745 C744 1.391 . S
C746 H736 0.950 . S
C746 C747 1.386 . S
C746 C748 1.391 . S
C747 C746 1.386 . S
C747 C751 1.393 . S
C748 H737 0.950 . S
C748 C746 1.391 . S
C748 C749 1.400 . S
C749 C743 1.491 . S
C749 C748 1.400 . S
C749 C750 1.398 . S
C750 H738 0.950 . S
C750 C749 1.398 . S
C750 C751 1.391 . S
C751 H739 0.950 . S
C751 C747 1.393 . S
C751 C750 1.391 . S
H752 C760 0.950 . S
H753 C765 0.950 . S
H754 C762 0.950 . S
H755 C764 0.950 . S
H756 C766 0.950 . S
H757 C768 0.950 . S
H758 C770 0.950 . S
H759 C771 0.950 . S
C760 H752 0.950 . S
C760 C761 1.386 . S
C760 C762 1.391 . S
C761 C760 1.386 . S
C761 C765 1.393 . S
C762 H754 0.950 . S
C762 C760 1.391 . S
C762 C763 1.400 . S
C763 C762 1.400 . S
C763 C764 1.398 . S
C763 C769 1.491 . S
C764 H755 0.950 . S
C764 C763 1.398 . S
C764 C765 1.391 . S
C765 H753 0.950 . S
C765 C761 1.393 . S
C765 C764 1.391 . S
C766 H756 0.950 . S
C766 C767 1.386 . S
C766 C768 1.391 . S
C767 C766 1.386 . S
C767 C771 1.393 . S
C768 H757 0.950 . S
C768 C766 1.391 . S
C768 C769 1.400 . S
C769 C763 1.491 . S
C769 C768 1.400 . S
C769 C770 1.398 . S
C770 H758 0.950 . S
C770 C769 1.398 . S
C770 C771 1.391 . S
C771 H759 0.950 . S
C771 C767 1.393 . S
C771 C770 1.391 . S
H772 C780 0.950 . S
H773 C785 0.950 . S
H774 C782 0.950 . S
H775 C784 0.950 . S
H776 C786 0.950 . S
H777 C788 0.950 . S
H778 C790 0.950 . S
H779 C791 0.950 . S
C780 H772 0.950 . S
C780 C781 1.386 . S
C780 C782 1.391 . S
C781 C780 1.386 . S
C781 C785 1.393 . S
C782 H774 0.950 . S
C782 C780 1.391 . S
C782 C783 1.400 . S
C783 C782 1.400 . S
C783 C784 1.398 . S
C783 C789 1.491 . S
C784 H775 0.950 . S
C784 C783 1.398 . S
C784 C785 1.391 . S
C785 H773 0.950 . S
C785 C781 1.393 . S
C785 C784 1.391 . S
C786 H776 0.950 . S
C786 C787 1.386 . S
C786 C788 1.391 . S
C787 C786 1.386 . S
C787 C791 1.393 . S
C788 H777 0.950 . S
C788 C786 1.391 . S
C788 C789 1.400 . S
C789 C783 1.491 . S
C789 C788 1.400 . S
C789 C790 1.398 . S
C790 H778 0.950 . S
C790 C789 1.398 . S
C790 C791 1.391 . S
C791 H779 0.950 . S
C791 C787 1.393 . S
C791 C790 1.391 . S
C321 C6 1.416 . S
C327 C167 1.434 . S
C341 C21 1.422 . S
C347 C207 1.460 . S
C367 C241 1.782 . S
C361 C49 1.703 . S
C381 C68 2.407 . S
C387 C282 2.459 1_655 S
C407 C202 2.299 . S
C401 C2 2.221 . S
C427 C162 1.775 1_565 S
C421 C30 1.714 . S
C447 C290 1.424 . S
C441 C40 1.502 . S
C467 C251 1.708 . S
C461 C63 1.810 . S
C481 C11 1.209 . S
C487 C287 1.258 . S
C507 C210 2.272 . S
C501 C44 2.346 . S
C521 C59 1.973 . S
C527 C170 1.944 . S
C541 C25 2.032 . S
C547 C238 2.052 . S
C567 C158 1.604 . S
C561 C82 1.620 . S
C581 C101 1.075 . S
C587 C198 1.113 . S
C601 C125 1.933 . S
C607 C250 2.038 . S
C621 C144 2.118 . S
C627 C291 2.071 . S
C641 C87 1.215 . S
C647 C211 1.267 . S
C667 C171 2.760 . S
C661 C97 2.639 . S
C687 C281 1.512 . S
C681 C120 1.471 . S
C707 C242 1.693 . S
C701 C135 1.723 . S
C721 C78 1.914 . S
C727 C278 1.962 . S
C747 C201 1.543 . S
C741 C116 1.556 . S
C767 C161 2.576 . S
C761 C139 2.669 . S
C781 C106 1.159 . S
C787 C247 1.492 . S
