# Generated by pormake.
# Topology pyr, (3,6)-cn, num edge types: 1
# Building blocks:
#     Node 0, Type 0, BuildingBlock: VETTIZ_charged_linker_0, # of connection points: 3
#     Node 1, Type 0, BuildingBlock: VETTIZ_charged_linker_0, # of connection points: 3
#     Node 2, Type 0, BuildingBlock: VETTIZ_charged_linker_0, # of connection points: 3
#     Node 3, Type 0, BuildingBlock: VETTIZ_charged_linker_0, # of connection points: 3
#     Node 4, Type 0, BuildingBlock: VETTIZ_charged_linker_0, # of connection points: 3
#     Node 5, Type 0, BuildingBlock: VETTIZ_charged_linker_0, # of connection points: 3
#     Node 6, Type 0, BuildingBlock: VETTIZ_charged_linker_0, # of connection points: 3
#     Node 7, Type 0, BuildingBlock: VETTIZ_charged_linker_0, # of connection points: 3
#     Node 8, Type 1, BuildingBlock: GEDQOX_clean_sbu_0, # of connection points: 6
#     Node 9, Type 1, BuildingBlock: GEDQOX_clean_sbu_0, # of connection points: 6
#     Node 10, Type 1, BuildingBlock: GEDQOX_clean_sbu_0, # of connection points: 6
#     Node 11, Type 1, BuildingBlock: GEDQOX_clean_sbu_0, # of connection points: 6
#     Edge 12, Type (0, 1), BuildingBlock: XIVTED_clean_linker_0, # of connection points: 2
#     Edge 13, Type (0, 1), BuildingBlock: XIVTED_clean_linker_0, # of connection points: 2
#     Edge 14, Type (0, 1), BuildingBlock: XIVTED_clean_linker_0, # of connection points: 2
#     Edge 15, Type (0, 1), BuildingBlock: XIVTED_clean_linker_0, # of connection points: 2
#     Edge 16, Type (0, 1), BuildingBlock: XIVTED_clean_linker_0, # of connection points: 2
#     Edge 17, Type (0, 1), BuildingBlock: XIVTED_clean_linker_0, # of connection points: 2
#     Edge 18, Type (0, 1), BuildingBlock: XIVTED_clean_linker_0, # of connection points: 2
#     Edge 19, Type (0, 1), BuildingBlock: XIVTED_clean_linker_0, # of connection points: 2
#     Edge 20, Type (0, 1), BuildingBlock: XIVTED_clean_linker_0, # of connection points: 2
#     Edge 21, Type (0, 1), BuildingBlock: XIVTED_clean_linker_0, # of connection points: 2
#     Edge 22, Type (0, 1), BuildingBlock: XIVTED_clean_linker_0, # of connection points: 2
#     Edge 23, Type (0, 1), BuildingBlock: XIVTED_clean_linker_0, # of connection points: 2
#     Edge 24, Type (0, 1), BuildingBlock: XIVTED_clean_linker_0, # of connection points: 2
#     Edge 25, Type (0, 1), BuildingBlock: XIVTED_clean_linker_0, # of connection points: 2
#     Edge 26, Type (0, 1), BuildingBlock: XIVTED_clean_linker_0, # of connection points: 2
#     Edge 27, Type (0, 1), BuildingBlock: XIVTED_clean_linker_0, # of connection points: 2
#     Edge 28, Type (0, 1), BuildingBlock: XIVTED_clean_linker_0, # of connection points: 2
#     Edge 29, Type (0, 1), BuildingBlock: XIVTED_clean_linker_0, # of connection points: 2
#     Edge 30, Type (0, 1), BuildingBlock: XIVTED_clean_linker_0, # of connection points: 2
#     Edge 31, Type (0, 1), BuildingBlock: XIVTED_clean_linker_0, # of connection points: 2
#     Edge 32, Type (0, 1), BuildingBlock: XIVTED_clean_linker_0, # of connection points: 2
#     Edge 33, Type (0, 1), BuildingBlock: XIVTED_clean_linker_0, # of connection points: 2
#     Edge 34, Type (0, 1), BuildingBlock: XIVTED_clean_linker_0, # of connection points: 2
#     Edge 35, Type (0, 1), BuildingBlock: XIVTED_clean_linker_0, # of connection points: 2
# Relax obj value: 0.102
# Max RMSD: 0.155
# Mean RMSD: 0.062
data_MOF--net-pyr--node1-GEDQOX_clean_sbu_0--node2-VETTIZ_charged_linker_0--edge1-XIVTED_clean_linker_0
_symmetry_space_group_name_H-M    P1
_symmetry_Int_Tables_number       1
_symmetry_cell_setting            triclinic
loop_
_symmetry_equiv_pos_as_xyz
'x, y, z'
_cell_length_a     48.068133
_cell_length_b     48.60925
_cell_length_c     42.609083
_cell_angle_alpha  88.337361
_cell_angle_beta   91.440732
_cell_angle_gamma 86.917865
loop_
_atom_site_label
_atom_site_type_symbol
_atom_site_fract_x
_atom_site_fract_y
_atom_site_fract_z
_atom_type_partial_charge
C0 C 0.1721 0.12487 0.25997 0.0
C1 C 0.14777 0.13462 0.27535 0.0
C2 C 0.13405 0.1593 0.26323 0.0
C3 C 0.16849 0.16428 0.22261 0.0
C4 C 0.18205 0.14002 0.23388 0.0
C5 C 0.20781 0.13313 0.21516 0.0
H6 H 0.2949 0.16311 0.09535 0.0
C7 C 0.18409 0.17525 0.19536 0.0
C8 C 0.20727 0.15699 0.19079 0.0
H9 H 0.30224 0.09482 0.16288 0.0
H10 H 0.26004 0.11117 0.18697 0.0
H11 H 0.27416 0.21045 0.14731 0.0
H12 H 0.22458 0.16283 0.08468 0.0
H13 H 0.21368 0.19814 0.08243 0.0
H14 H 0.24801 0.18747 0.07 0.0
H15 H 0.2762 0.2141 0.10533 0.0
H16 H 0.24875 0.23165 0.12613 0.0
C17 C 0.23356 0.13329 0.23771 0.0
C18 C 0.20399 0.10519 0.19957 0.0
C19 C 0.14774 0.26569 0.14016 0.0
C20 C 0.15609 0.28174 0.1141 0.0
C21 C 0.18012 0.27162 0.09841 0.0
C22 C 0.1952 0.24686 0.10833 0.0
C23 C 0.1865 0.23132 0.13441 0.0
C24 C 0.16294 0.24091 0.14964 0.0
C25 C 0.15607 0.22179 0.17652 0.0
C26 C 0.17933 0.19927 0.1753 0.0
C27 C 0.19749 0.20474 0.15058 0.0
C28 C 0.1578 0.23796 0.20725 0.0
C29 C 0.12709 0.21053 0.16928 0.0
C30 C 0.28732 0.15158 0.11519 0.0
C31 C 0.30263 0.12746 0.12709 0.0
C32 C 0.29165 0.11352 0.15323 0.0
C33 C 0.26683 0.12305 0.16727 0.0
C34 C 0.25213 0.14717 0.15558 0.0
C35 C 0.2624 0.16113 0.12992 0.0
C36 C 0.24397 0.18684 0.12134 0.0
C37 C 0.22118 0.18593 0.14588 0.0
C38 C 0.22608 0.16234 0.16592 0.0
C39 C 0.2616 0.21224 0.12499 0.0
C40 C 0.23194 0.18391 0.08774 0.0
H41 H 0.13248 0.19253 0.22978 0.0
H42 H 0.18348 0.10618 0.26839 0.0
H43 H 0.1822 0.10395 0.1905 0.0
H44 H 0.21714 0.10215 0.17897 0.0
H45 H 0.20842 0.08772 0.21668 0.0
H46 H 0.23078 0.14972 0.25519 0.0
H47 H 0.23696 0.11329 0.25088 0.0
H48 H 0.25282 0.13802 0.22554 0.0
H49 H 0.12983 0.27232 0.15344 0.0
H50 H 0.18724 0.28262 0.07795 0.0
H51 H 0.21308 0.24062 0.09515 0.0
H52 H 0.17531 0.25202 0.20666 0.0
H53 H 0.13831 0.25074 0.21065 0.0
H54 H 0.16217 0.2245 0.2283 0.0
H55 H 0.12376 0.20805 0.1436 0.0
H56 H 0.12475 0.18975 0.17974 0.0
H57 H 0.11005 0.22474 0.17735 0.0
H58 H 0.11507 0.1673 0.27362 0.0
C59 C 0.14415 0.17399 0.23734 0.0
C60 C 0.26362 0.78975 0.71701 0.0
C61 C 0.24528 0.80903 0.73106 0.0
C62 C 0.25466 0.82211 0.75827 0.0
C63 C 0.30043 0.79911 0.75456 0.0
C64 C 0.29073 0.78491 0.72933 0.0
C65 C 0.31247 0.76483 0.71725 0.0
H66 H 0.44448 0.70952 0.72216 0.0
C67 C 0.33022 0.79066 0.75997 0.0
C68 C 0.33721 0.77019 0.7386 0.0
H69 H 0.37412 0.6875 0.66453 0.0
H70 H 0.34494 0.72202 0.68822 0.0
H71 H 0.43001 0.77665 0.71425 0.0
H72 H 0.41077 0.71745 0.78697 0.0
H73 H 0.42244 0.74724 0.80457 0.0
H74 H 0.4457 0.72728 0.78044 0.0
H75 H 0.45634 0.76093 0.74064 0.0
H76 H 0.43569 0.79122 0.75098 0.0
C77 C 0.31775 0.77303 0.68255 0.0
C78 C 0.30228 0.73529 0.72237 0.0
C79 C 0.38848 0.84354 0.83581 0.0
C80 C 0.41698 0.84228 0.84424 0.0
C81 C 0.43463 0.82147 0.83165 0.0
C82 C 0.42415 0.80274 0.81041 0.0
C83 C 0.3957 0.80478 0.80162 0.0
C84 C 0.37837 0.82478 0.8146 0.0
C85 C 0.34872 0.82401 0.80283 0.0
C86 C 0.35114 0.80066 0.78005 0.0
C87 C 0.37871 0.7894 0.77932 0.0
C88 C 0.34053 0.85204 0.78593 0.0
C89 C 0.33024 0.81694 0.83096 0.0
C90 C 0.42279 0.71226 0.71467 0.0
C91 C 0.41154 0.69535 0.69172 0.0
C92 C 0.38321 0.69965 0.68265 0.0
C93 C 0.36623 0.71989 0.69637 0.0
C94 C 0.37752 0.73631 0.71947 0.0
C95 C 0.40535 0.73253 0.72831 0.0
C96 C 0.41339 0.75231 0.75326 0.0
C97 C 0.38559 0.7679 0.75837 0.0
C98 C 0.36485 0.75845 0.73823 0.0
C99 C 0.43514 0.77127 0.73937 0.0
C100 C 0.42383 0.73536 0.78293 0.0
H101 H 0.28809 0.82839 0.79026 0.0
H102 H 0.25758 0.77921 0.69611 0.0
H103 H 0.28714 0.73432 0.74167 0.0
H104 H 0.31938 0.72016 0.72981 0.0
H105 H 0.29177 0.72806 0.70086 0.0
H106 H 0.31773 0.79583 0.67935 0.0
H107 H 0.30129 0.76562 0.66663 0.0
H108 H 0.33828 0.76527 0.67448 0.0
H109 H 0.37423 0.85887 0.84554 0.0
H110 H 0.45669 0.82007 0.83767 0.0
H111 H 0.43864 0.78754 0.80144 0.0
H112 H 0.3575 0.85839 0.77043 0.0
H113 H 0.33685 0.86846 0.80318 0.0
H114 H 0.32186 0.85152 0.7705 0.0
H115 H 0.34238 0.80483 0.84973 0.0
H116 H 0.31317 0.80368 0.82432 0.0
H117 H 0.32128 0.8359 0.84164 0.0
H118 H 0.24094 0.83634 0.77044 0.0
C119 C 0.28209 0.81735 0.76996 0.0
C120 C 0.74505 0.26913 0.85095 0.0
C121 C 0.72491 0.25411 0.83546 0.0
C122 C 0.71421 0.26368 0.8058 0.0
C123 C 0.74101 0.30422 0.80919 0.0
C124 C 0.75289 0.29402 0.8373 0.0
C125 C 0.77336 0.31315 0.85085 0.0
H126 H 0.83193 0.43658 0.8445 0.0
C127 C 0.75134 0.33179 0.80296 0.0
C128 C 0.77059 0.33707 0.82698 0.0
H129 H 0.85172 0.36744 0.90901 0.0
H130 H 0.817 0.34142 0.88345 0.0
H131 H 0.76468 0.43103 0.84318 0.0
H132 H 0.82921 0.40058 0.78259 0.0
H133 H 0.80072 0.4136 0.7589 0.0
H134 H 0.81865 0.43652 0.78395 0.0
H135 H 0.78235 0.45338 0.81699 0.0
H136 H 0.75229 0.43566 0.80414 0.0
C137 C 0.76328 0.32171 0.88358 0.0
C138 C 0.8028 0.29838 0.85121 0.0
C139 C 0.70674 0.39119 0.71402 0.0
C140 C 0.70933 0.41864 0.70383 0.0
C141 C 0.72928 0.43435 0.71889 0.0
C142 C 0.74607 0.42291 0.74396 0.0
C143 C 0.74275 0.39552 0.7542 0.0
C144 C 0.72347 0.38016 0.73902 0.0
C145 C 0.72198 0.35175 0.75334 0.0
C146 C 0.74354 0.35247 0.77979 0.0
C147 C 0.75564 0.37812 0.78032 0.0
C148 C 0.69213 0.34904 0.76571 0.0
C149 C 0.73069 0.33056 0.72837 0.0
C150 C 0.82892 0.41578 0.85305 0.0
C151 C 0.84464 0.40415 0.87895 0.0
C152 C 0.83966 0.37713 0.8895 0.0
C153 C 0.81967 0.36189 0.8744 0.0
C154 C 0.80441 0.3737 0.8484 0.0
C155 C 0.80916 0.40019 0.83808 0.0
C156 C 0.79138 0.40908 0.80961 0.0
C157 C 0.7757 0.38329 0.80416 0.0
C158 C 0.78321 0.36279 0.82722 0.0
C159 C 0.77168 0.4337 0.81863 0.0
C160 C 0.81082 0.41551 0.78222 0.0
H161 H 0.71266 0.29511 0.7704 0.0
H162 H 0.75395 0.26202 0.87355 0.0
H163 H 0.80442 0.28247 0.83299 0.0
H164 H 0.81929 0.31262 0.84549 0.0
H165 H 0.80794 0.28789 0.87429 0.0
H166 H 0.74038 0.32658 0.88284 0.0
H167 H 0.76778 0.30482 0.9014 0.0
H168 H 0.77266 0.34047 0.89194 0.0
H169 H 0.69124 0.37866 0.70354 0.0
H170 H 0.73184 0.45552 0.71136 0.0
H171 H 0.76076 0.4359 0.7546 0.0
H172 H 0.68426 0.36863 0.77607 0.0
H173 H 0.67735 0.34421 0.74644 0.0
H174 H 0.69096 0.33337 0.78479 0.0
H175 H 0.74545 0.33928 0.71152 0.0
H176 H 0.74211 0.31198 0.73879 0.0
H177 H 0.71234 0.32423 0.71455 0.0
H178 H 0.69852 0.25261 0.79348 0.0
C179 C 0.7222 0.28857 0.79258 0.0
C180 C 0.87393 0.88123 0.33188 0.0
C181 C 0.86558 0.89372 0.35984 0.0
C182 C 0.83809 0.8907 0.36986 0.0
C183 C 0.82898 0.86116 0.32657 0.0
C184 C 0.85519 0.86539 0.31548 0.0
C185 C 0.86032 0.85087 0.28523 0.0
H186 H 0.8165 0.76053 0.1793 0.0
C187 C 0.81492 0.8429 0.30506 0.0
C188 C 0.83276 0.83746 0.28012 0.0
H189 H 0.89617 0.79759 0.18425 0.0
H190 H 0.87994 0.82617 0.2264 0.0
H191 H 0.81149 0.74601 0.23937 0.0
H192 H 0.77676 0.81961 0.19444 0.0
H193 H 0.75135 0.80697 0.21943 0.0
H194 H 0.76553 0.78534 0.18931 0.0
H195 H 0.77576 0.7484 0.22653 0.0
H196 H 0.78623 0.75649 0.26598 0.0
C197 C 0.88493 0.82927 0.29112 0.0
C198 C 0.86529 0.87282 0.25923 0.0
C199 C 0.73148 0.79234 0.34136 0.0
C200 C 0.71658 0.77153 0.32738 0.0
C201 C 0.71915 0.76741 0.29493 0.0
C202 C 0.73852 0.78144 0.27758 0.0
C203 C 0.75559 0.7997 0.29279 0.0
C204 C 0.75086 0.8062 0.3236 0.0
C205 C 0.77046 0.82709 0.33523 0.0
C206 C 0.78942 0.82964 0.30727 0.0
C207 C 0.78077 0.81318 0.28279 0.0
C208 C 0.78644 0.81478 0.36485 0.0
C209 C 0.75331 0.85438 0.34094 0.0
C210 C 0.83021 0.77546 0.18863 0.0
C211 C 0.85765 0.77678 0.17839 0.0
C212 C 0.87499 0.79599 0.19193 0.0
C213 C 0.86557 0.81245 0.2165 0.0
C214 C 0.8387 0.80932 0.228 0.0
C215 C 0.82135 0.79146 0.21356 0.0
C216 C 0.79425 0.78916 0.22993 0.0
C217 C 0.79833 0.80822 0.25704 0.0
C218 C 0.82427 0.82017 0.25572 0.0
C219 C 0.79156 0.75857 0.24095 0.0
C220 C 0.77055 0.80067 0.20716 0.0
H221 H 0.79939 0.87277 0.36237 0.0
H222 H 0.89474 0.88317 0.32324 0.0
H223 H 0.85139 0.89158 0.26203 0.0
H224 H 0.86039 0.86577 0.23541 0.0
H225 H 0.88715 0.87915 0.26021 0.0
H226 H 0.88413 0.81957 0.31504 0.0
H227 H 0.90526 0.83895 0.28928 0.0
H228 H 0.88452 0.81192 0.27504 0.0
H229 H 0.72963 0.7963 0.36611 0.0
H230 H 0.70718 0.75223 0.28331 0.0
H231 H 0.74046 0.7765 0.25337 0.0
H232 H 0.7954 0.79372 0.36036 0.0
H233 H 0.77235 0.81328 0.38502 0.0
H234 H 0.80396 0.82698 0.37228 0.0
H235 H 0.73208 0.85472 0.32986 0.0
H236 H 0.76309 0.87249 0.33037 0.0
H237 H 0.75065 0.85763 0.36641 0.0
H238 H 0.83056 0.90087 0.39052 0.0
C239 C 0.81983 0.87455 0.35339 0.0
C240 C 0.89076 0.77107 0.92122 0.0
C241 C 0.91591 0.75764 0.91099 0.0
C242 C 0.93021 0.77136 0.88701 0.0
C243 C 0.89457 0.80904 0.88266 0.0
C244 C 0.88059 0.79668 0.90682 0.0
C245 C 0.85463 0.81423 0.91471 0.0
H246 H 0.76734 0.92945 0.88229 0.0
C247 C 0.87872 0.83514 0.87203 0.0
C248 C 0.8551 0.83853 0.89086 0.0
H249 H 0.75905 0.86774 0.95601 0.0
H250 H 0.80126 0.84333 0.93964 0.0
H251 H 0.78692 0.8865 0.82796 0.0
H252 H 0.83413 0.93399 0.89238 0.0
H253 H 0.84892 0.93642 0.85513 0.0
H254 H 0.81368 0.94982 0.86023 0.0
H255 H 0.78697 0.92342 0.82485 0.0
H256 H 0.81367 0.90183 0.80742 0.0
C257 C 0.82892 0.79707 0.90939 0.0
C258 C 0.85815 0.82372 0.94879 0.0
C259 C 0.91473 0.89181 0.77929 0.0
C260 C 0.90524 0.91664 0.76327 0.0
C261 C 0.88026 0.92986 0.7736 0.0
C262 C 0.8654 0.91897 0.79888 0.0
C263 C 0.87526 0.89432 0.81464 0.0
C264 C 0.89958 0.8812 0.80465 0.0
C265 C 0.90715 0.85531 0.82417 0.0
C266 C 0.88345 0.85491 0.8474 0.0
C267 C 0.86466 0.87787 0.84181 0.0
C268 C 0.90679 0.83058 0.80206 0.0
C269 C 0.93566 0.85888 0.84097 0.0
C270 C 0.77437 0.9106 0.89491 0.0
C271 C 0.75922 0.90083 0.92071 0.0
C272 C 0.76999 0.87627 0.9364 0.0
C273 C 0.79464 0.86191 0.92673 0.0
C274 C 0.80942 0.87202 0.90104 0.0
C275 C 0.79918 0.89616 0.88574 0.0
C276 C 0.81774 0.90442 0.85933 0.0
C277 C 0.84073 0.88146 0.86106 0.0
C278 C 0.83586 0.86213 0.88555 0.0
C279 C 0.80055 0.90428 0.82814 0.0
C280 C 0.82918 0.93273 0.86682 0.0
H281 H 0.93197 0.80516 0.8548 0.0
H282 H 0.87902 0.76176 0.93967 0.0
H283 H 0.87974 0.83011 0.95329 0.0
H284 H 0.8444 0.84188 0.95378 0.0
H285 H 0.85417 0.80679 0.9659 0.0
H286 H 0.83016 0.78666 0.88652 0.0
H287 H 0.82768 0.78093 0.92822 0.0
H288 H 0.80921 0.8098 0.90836 0.0
H289 H 0.93385 0.88099 0.77266 0.0
H290 H 0.87182 0.94861 0.76182 0.0
H291 H 0.84663 0.93021 0.80519 0.0
H292 H 0.88907 0.8333 0.78473 0.0
H293 H 0.92631 0.82861 0.78871 0.0
H294 H 0.90367 0.81081 0.8145 0.0
H295 H 0.93842 0.88087 0.84627 0.0
H296 H 0.93767 0.84794 0.86408 0.0
H297 H 0.95322 0.85188 0.82616 0.0
H298 H 0.95 0.76291 0.87908 0.0
C299 C 0.91977 0.79645 0.87291 0.0
C300 C 0.80718 0.24665 0.31424 0.0
C301 C 0.82519 0.2273 0.29984 0.0
C302 C 0.81517 0.21398 0.27309 0.0
C303 C 0.76941 0.23673 0.27821 0.0
C304 C 0.77973 0.25118 0.30293 0.0
C305 C 0.75815 0.27083 0.31603 0.0
H306 H 0.62405 0.3179 0.32393 0.0
C307 C 0.73932 0.24458 0.27425 0.0
C308 C 0.73275 0.26486 0.29601 0.0
H309 H 0.69683 0.34557 0.37319 0.0
H310 H 0.72613 0.31367 0.34576 0.0
H311 H 0.64334 0.25222 0.32643 0.0
H312 H 0.65321 0.31593 0.25553 0.0
H313 H 0.64418 0.28585 0.23667 0.0
H314 H 0.62 0.30218 0.26298 0.0
H315 H 0.61439 0.26805 0.30389 0.0
H316 H 0.63496 0.23932 0.28941 0.0
C317 C 0.75453 0.26261 0.35108 0.0
C318 C 0.76742 0.30063 0.31019 0.0
C319 C 0.67928 0.1911 0.20063 0.0
C320 C 0.65051 0.19192 0.19362 0.0
C321 C 0.63298 0.21195 0.20775 0.0
C322 C 0.64387 0.23042 0.22899 0.0
C323 C 0.67262 0.22891 0.23625 0.0
C324 C 0.68981 0.20964 0.22185 0.0
C325 C 0.71983 0.21098 0.23214 0.0
C326 C 0.71785 0.23405 0.25533 0.0
C327 C 0.69011 0.24444 0.25784 0.0
C328 C 0.72922 0.18293 0.24829 0.0
C329 C 0.73695 0.21879 0.20317 0.0
C330 C 0.64632 0.31716 0.32862 0.0
C331 C 0.65796 0.33398 0.35141 0.0
C332 C 0.6871 0.33237 0.35659 0.0
C333 C 0.70424 0.31396 0.34032 0.0
C334 C 0.69237 0.29685 0.31834 0.0
C335 C 0.66395 0.29881 0.31234 0.0
C336 C 0.65548 0.27927 0.28734 0.0
C337 C 0.68356 0.26545 0.2795 0.0
C338 C 0.70491 0.27571 0.29813 0.0
C339 C 0.63585 0.25863 0.30225 0.0
C340 C 0.64232 0.2965 0.25911 0.0
H341 H 0.78092 0.20728 0.24234 0.0
H342 H 0.81372 0.25732 0.33486 0.0
H343 H 0.78218 0.30182 0.29055 0.0
H344 H 0.74977 0.3152 0.30292 0.0
H345 H 0.77804 0.30841 0.33135 0.0
H346 H 0.75461 0.2398 0.35429 0.0
H347 H 0.77176 0.26995 0.36595 0.0
H348 H 0.73456 0.27044 0.36048 0.0
H349 H 0.6934 0.17633 0.18977 0.0
H350 H 0.61072 0.21295 0.2029 0.0
H351 H 0.62944 0.24498 0.23919 0.0
H352 H 0.71287 0.17577 0.26415 0.0
H353 H 0.73301 0.16689 0.23061 0.0
H354 H 0.74813 0.1838 0.26328 0.0
H355 H 0.72405 0.2317 0.18573 0.0
H356 H 0.75458 0.23152 0.20926 0.0
H357 H 0.74495 0.20014 0.19111 0.0
H358 H 0.8286 0.19962 0.26072 0.0
C359 C 0.78742 0.21852 0.2623 0.0
C360 C 0.35705 0.64351 0.32452 0.0
C361 C 0.3546 0.6162 0.33525 0.0
C362 C 0.33495 0.60005 0.32031 0.0
C363 C 0.3216 0.63817 0.28396 0.0
C364 C 0.34058 0.65395 0.29904 0.0
C365 C 0.34227 0.68202 0.2839 0.0
H366 H 0.3121 0.76907 0.16077 0.0
C367 C 0.30911 0.65493 0.2571 0.0
C368 C 0.3212 0.6806 0.25706 0.0
H369 H 0.36593 0.78048 0.24169 0.0
H370 H 0.35184 0.73821 0.2654 0.0
H371 H 0.26124 0.74957 0.20043 0.0
H372 H 0.32611 0.70404 0.15349 0.0
H373 H 0.29396 0.68998 0.14416 0.0
H374 H 0.29904 0.72542 0.13379 0.0
H375 H 0.25822 0.7427 0.15943 0.0
H376 H 0.24657 0.71896 0.18913 0.0
C377 C 0.33302 0.70381 0.308 0.0
C378 C 0.37235 0.68449 0.27212 0.0
C379 C 0.23607 0.6161 0.18488 0.0
C380 C 0.22069 0.62728 0.1585 0.0
C381 C 0.22626 0.65388 0.147 0.0
C382 C 0.24643 0.66918 0.16167 0.0
C383 C 0.26125 0.6579 0.18823 0.0
C384 C 0.25602 0.63177 0.19943 0.0
C385 C 0.2735 0.62344 0.22833 0.0
C386 C 0.28938 0.64922 0.2331 0.0
C387 C 0.28231 0.66917 0.20928 0.0
C388 C 0.25377 0.61789 0.25569 0.0
C389 C 0.29306 0.5984 0.22033 0.0
C390 C 0.32067 0.76242 0.18367 0.0
C391 C 0.34032 0.77795 0.19927 0.0
C392 C 0.35062 0.76899 0.2293 0.0
C393 C 0.34264 0.74425 0.24291 0.0
C394 C 0.32424 0.72815 0.22632 0.0
C395 C 0.3128 0.73771 0.19773 0.0
C396 C 0.29257 0.71825 0.18436 0.0
C397 C 0.29499 0.69487 0.20893 0.0
C398 C 0.31385 0.7007 0.23311 0.0
C399 C 0.26311 0.73301 0.18299 0.0
C400 C 0.30322 0.70892 0.15214 0.0
H401 H 0.30391 0.59764 0.28424 0.0
H402 H 0.37235 0.65632 0.3349 0.0
H403 H 0.38053 0.66461 0.2627 0.0
H404 H 0.3738 0.69959 0.25251 0.0
H405 H 0.38674 0.68997 0.29148 0.0
H406 H 0.31797 0.69545 0.32475 0.0
H407 H 0.3511 0.71051 0.32201 0.0
H408 H 0.32175 0.72212 0.29678 0.0
H409 H 0.23259 0.59563 0.19416 0.0
H410 H 0.21449 0.66324 0.12709 0.0
H411 H 0.24952 0.68932 0.1519 0.0
H412 H 0.23579 0.63333 0.255 0.0
H413 H 0.24533 0.59712 0.2542 0.0
H414 H 0.26386 0.61973 0.27902 0.0
H415 H 0.30006 0.60018 0.19569 0.0
H416 H 0.31248 0.59685 0.23481 0.0
H417 H 0.28231 0.57883 0.22287 0.0
H418 H 0.33255 0.57896 0.32824 0.0
C419 C 0.31835 0.61094 0.29479 0.0
C420 C 0.18572 0.15055 0.71844 0.0
C421 C 0.19216 0.1419 0.68808 0.0
C422 C 0.21508 0.15284 0.67298 0.0
C423 C 0.22376 0.18144 0.71729 0.0
C424 C 0.20187 0.17018 0.73263 0.0
C425 C 0.19767 0.18222 0.76446 0.0
H426 H 0.23164 0.2787 0.86795 0.0
C427 C 0.23557 0.20214 0.73762 0.0
C428 C 0.22075 0.20238 0.76564 0.0
H429 H 0.16429 0.22352 0.87371 0.0
H430 H 0.18088 0.20024 0.82766 0.0
H431 H 0.22213 0.29379 0.80378 0.0
H432 H 0.28116 0.23231 0.84332 0.0
H433 H 0.29827 0.25042 0.81381 0.0
H434 H 0.28437 0.26872 0.84673 0.0
H435 H 0.25565 0.30257 0.81852 0.0
H436 H 0.2499 0.29373 0.77814 0.0
C437 C 0.16832 0.19708 0.76434 0.0
C438 C 0.20229 0.15878 0.78969 0.0
C439 C 0.30637 0.26612 0.69415 0.0
C440 C 0.31882 0.28916 0.70657 0.0
C441 C 0.31516 0.29497 0.73849 0.0
C442 C 0.29845 0.27895 0.75725 0.0
C443 C 0.28475 0.25713 0.74395 0.0
C444 C 0.28936 0.25055 0.71316 0.0
C445 C 0.2728 0.22678 0.70304 0.0
C446 C 0.25671 0.22096 0.73256 0.0
C447 C 0.26372 0.23893 0.75626 0.0
C448 C 0.25327 0.23708 0.67514 0.0
C449 C 0.29345 0.20241 0.69544 0.0
C450 C 0.22107 0.26086 0.8602 0.0
C451 C 0.19673 0.25285 0.87462 0.0
C452 C 0.18307 0.23014 0.86292 0.0
C453 C 0.19259 0.21685 0.83604 0.0
C454 C 0.21565 0.22675 0.82039 0.0
C455 C 0.22981 0.24799 0.83305 0.0
C456 C 0.25215 0.25777 0.81218 0.0
C457 C 0.24917 0.23893 0.78477 0.0
C458 C 0.22784 0.22073 0.78959 0.0
C459 C 0.24491 0.28854 0.8027 0.0
C460 C 0.28057 0.25228 0.82981 0.0
H461 H 0.24787 0.18011 0.67455 0.0
H462 H 0.16847 0.14233 0.73085 0.0
H463 H 0.2202 0.1446 0.7837 0.0
H464 H 0.20761 0.16638 0.81313 0.0
H465 H 0.18359 0.1464 0.79143 0.0
H466 H 0.16289 0.20691 0.74092 0.0
H467 H 0.15209 0.18236 0.7698 0.0
H468 H 0.16681 0.21413 0.78085 0.0
H469 H 0.30921 0.26069 0.66993 0.0
H470 H 0.32423 0.31265 0.74874 0.0
H471 H 0.29601 0.28489 0.7811 0.0
H472 H 0.2437 0.2579 0.67964 0.0
H473 H 0.26499 0.2386 0.65307 0.0
H474 H 0.2356 0.22398 0.67111 0.0
H475 H 0.3136 0.20348 0.70866 0.0
H476 H 0.2857 0.18219 0.70259 0.0
H477 H 0.29811 0.20239 0.67004 0.0
H478 H 0.22034 0.14686 0.64948 0.0
C479 C 0.23095 0.17238 0.68746 0.0
Nd480 Nd 0.047 0.99232 0.51366 0.0
Nd481 Nd 1.01741 0.04505 0.52439 0.0
C482 C 0.06273 0.93965 0.51077 0.0
C483 C 0.07394 0.92112 0.53636 0.0
C484 C 0.0751 0.89244 0.53365 0.0
C485 C 0.08662 0.87538 0.55826 0.0
C486 C 0.09727 0.88684 0.58583 0.0
C487 C 0.09541 0.91568 0.5884 0.0
C488 C 0.08367 0.93256 0.5641 0.0
C489 C 0.07754 0.02627 0.54995 0.0
C490 C 1.00622 0.99788 0.5759 0.0
C491 C 1.00094 0.09758 0.52637 0.0
C492 C 0.99036 0.11574 0.50011 0.0
C493 C 0.99012 0.14448 0.5018 0.0
C494 C 0.97959 0.1612 0.47638 0.0
C495 C 0.96904 0.14934 0.44901 0.0
C496 C 0.96991 0.12042 0.44751 0.0
C497 C 0.98067 0.10388 0.4726 0.0
C498 C 0.98715 1.01045 0.48884 0.0
C499 C 0.05853 0.0399 0.46256 0.0
O500 O 0.03669 0.94832 0.51332 0.0
O501 O 0.07876 0.95951 0.50302 0.0
O502 O 0.0881 1.01058 0.52882 0.0
O503 O 0.05197 0.02284 0.55269 0.0
O504 O 1.01704 0.98157 0.55441 0.0
O505 O 1.00773 0.02488 0.57238 0.0
O506 O 1.02717 0.08921 0.52502 0.0
O507 O 0.98494 0.07758 0.53371 0.0
O508 O 0.97665 0.02545 0.51061 0.0
O509 O 1.0125 1.01458 0.48541 0.0
O510 O 0.04753 0.05603 0.48407 0.0
O511 O 0.05719 1.01288 0.4659 0.0
H512 H 0.06734 0.8833 0.51248 0.0
H513 H 0.08736 0.85327 0.55559 0.0
H514 H 0.10387 0.92547 0.60877 0.0
H515 H 0.08273 0.95471 0.5667 0.0
H516 H 0.99791 0.15395 0.52274 0.0
H517 H 0.9796 0.18336 0.47826 0.0
H518 H 0.96147 0.11036 0.42732 0.0
H519 H 0.98097 0.08167 0.47073 0.0
Nd520 Nd 0.53369 1.00218 0.04432 0.0
Nd521 Nd 0.52891 0.03441 0.99445 0.0
C522 C 0.53624 0.96094 0.08637 0.0
C523 C 0.5144 0.94485 0.10016 0.0
C524 C 0.51903 0.91636 0.10521 0.0
C525 C 0.49738 0.9004 0.11504 0.0
C526 C 0.4708 0.91278 0.12007 0.0
C527 C 0.46639 0.94142 0.11565 0.0
C528 C 0.48796 0.95732 0.10553 0.0
C529 C 0.48736 0.0392 0.05169 0.0
C530 C 0.49782 0.98127 0.98561 0.0
C531 C 0.52654 0.07554 0.95227 0.0
C532 C 0.54849 0.09112 0.93787 0.0
C533 C 0.54465 0.11974 0.93345 0.0
C534 C 0.5665 0.13513 0.923 0.0
C535 C 0.59249 0.12206 0.9167 0.0
C536 C 0.59608 0.09329 0.92046 0.0
C537 C 0.57433 0.07796 0.9312 0.0
C538 C 0.57549 0.99755 0.98761 0.0
C539 C 0.56504 0.05513 0.05306 0.0
O540 O 0.53987 0.95753 0.05651 0.0
O541 O 0.53637 0.98675 0.09383 0.0
O542 O 0.50715 0.03336 0.07222 0.0
O543 O 0.49267 0.02644 0.02669 0.0
O544 O 0.51643 0.97329 1.00747 0.0
O545 O 0.4938 1.00768 0.97922 0.0
O546 O 0.5235 0.07911 0.9822 0.0
O547 O 0.52567 0.04975 0.94493 0.0
O548 O 0.55599 1.00329 0.96673 0.0
O549 O 0.56984 1.01045 1.01237 0.0
O550 O 0.54627 0.06324 0.03141 0.0
O551 O 0.56905 0.02868 0.05925 0.0
H552 H 0.53921 0.90639 0.10085 0.0
H553 H 0.50136 0.87837 0.11858 0.0
H554 H 0.44605 0.95142 0.11905 0.0
H555 H 0.48376 0.97924 0.10119 0.0
H556 H 0.52495 0.13024 0.93878 0.0
H557 H 0.56314 0.15728 0.91999 0.0
H558 H 0.61598 0.08276 0.91607 0.0
H559 H 0.57795 0.0559 0.93501 0.0
Nd560 Nd 0.50962 0.50018 0.51628 0.0
Nd561 Nd 0.55964 0.5355 0.51515 0.0
C562 C 0.46041 0.47843 0.51353 0.0
C563 C 0.44402 0.46283 0.53561 0.0
C564 C 0.41605 0.45846 0.52854 0.0
C565 C 0.40106 0.44163 0.54835 0.0
C566 C 0.41397 0.4288 0.5754 0.0
C567 C 0.44187 0.43397 0.58274 0.0
C568 C 0.45671 0.45093 0.56308 0.0
C569 C 0.55152 0.48252 0.55845 0.0
C570 C 0.51035 0.55601 0.55909 0.0
C571 C 0.60894 0.55712 0.51332 0.0
C572 C 0.61965 0.58322 0.50235 0.0
C573 C 0.64835 0.58505 0.4988 0.0
C574 C 0.6586 0.60818 0.48384 0.0
C575 C 0.64023 0.62978 0.47211 0.0
C576 C 0.61155 0.62851 0.47727 0.0
C577 C 0.60131 0.6053 0.4922 0.0
C578 C 0.51643 0.55299 0.47454 0.0
C579 C 0.55959 0.47962 0.47613 0.0
O580 O 0.46354 0.50428 0.51976 0.0
O581 O 0.48348 0.46568 0.50499 0.0
O582 O 0.53535 0.46594 0.54455 0.0
O583 O 0.54371 0.50714 0.55222 0.0
O584 O 0.49512 0.53826 0.54428 0.0
O585 O 0.53737 0.55686 0.55493 0.0
O586 O 0.59907 0.54204 0.4912 0.0
O587 O 0.59333 0.5579 0.538 0.0
O588 O 0.53173 0.56978 0.48937 0.0
O589 O 0.52541 0.52856 0.47959 0.0
O590 O 0.57425 0.49307 0.49669 0.0
O591 O 0.53243 0.48447 0.47353 0.0
H592 H 0.40596 0.46763 0.50743 0.0
H593 H 0.37948 0.43848 0.5423 0.0
H594 H 0.45261 0.42417 0.60309 0.0
H595 H 0.47836 0.45415 0.56885 0.0
H596 H 0.66274 0.56812 0.50648 0.0
H597 H 0.68083 0.60878 0.48054 0.0
H598 H 0.59691 0.64472 0.46826 0.0
H599 H 0.57903 0.60407 0.49463 0.0
Nd600 Nd 1.00813 0.51645 0.04377 0.0
Nd601 Nd 0.05156 0.52235 0.99639 0.0
C602 C 0.96023 0.51921 0.07256 0.0
C603 C 0.94179 0.54346 0.07945 0.0
C604 C 0.93244 0.56241 0.05538 0.0
C605 C 0.92012 0.58804 0.06263 0.0
C606 C 0.91702 0.59531 0.09407 0.0
C607 C 0.92454 0.57555 0.11802 0.0
C608 C 0.93681 0.54988 0.11076 0.0
C609 C 0.05573 0.53741 0.06715 0.0
C610 C 1.00823 0.5749 0.99855 0.0
C611 C 0.09805 0.51494 0.96631 0.0
C612 C 0.10819 0.48712 0.95794 0.0
C613 C 0.13649 0.48012 0.95382 0.0
C614 C 0.14535 0.45257 0.94915 0.0
C615 C 0.12599 0.43175 0.9489 0.0
C616 C 0.09776 0.43906 0.95342 0.0
C617 C 0.08899 0.46635 0.95766 0.0
C618 C 1.00419 0.50048 0.97351 0.0
C619 C 0.05306 0.46476 0.04247 0.0
O620 O 0.96233 0.51295 0.04299 0.0
O621 O 0.98432 0.51772 0.08765 0.0
O622 O 0.04138 0.51993 0.08256 0.0
O623 O 0.04426 0.54442 0.04096 0.0
O624 O 0.99424 0.55818 1.01685 0.0
O625 O 0.03369 0.56728 0.98983 0.0
O626 O 0.09785 0.51892 0.99654 0.0
O627 O 0.07471 0.5238 0.95202 0.0
O628 O 1.0182 0.51802 0.95791 0.0
O629 O 1.01589 0.4939 0.99965 0.0
O630 O 0.06669 0.48214 0.02485 0.0
O631 O 1.02725 0.47162 0.05067 0.0
H632 H 0.93597 0.55814 0.03095 0.0
H633 H 0.91461 0.60273 0.0436 0.0
H634 H 0.92177 0.58025 0.14247 0.0
H635 H 0.94371 0.53558 0.12971 0.0
H636 H 0.15166 0.49579 0.95456 0.0
H637 H 0.16724 0.44761 0.94555 0.0
H638 H 0.08237 0.42361 0.95422 0.0
H639 H 0.06709 0.47114 0.96153 0.0
H640 H 0.12357 0.15732 0.32746 0.0
H641 H 0.08514 1.01441 0.41296 0.0
H642 H 0.14582 0.07816 0.28936 0.0
H643 H 0.06372 0.09498 0.44782 0.0
H644 H 0.10776 0.03637 0.36819 0.0
H645 H 0.10246 0.13418 0.37169 0.0
C646 C 0.12397 0.13502 0.32814 0.0
C647 C 0.13642 0.11992 0.30392 0.0
C648 C 0.09812 0.04924 0.38564 0.0
C649 C 0.11206 0.09279 0.35579 0.0
C650 C 0.08511 0.03668 0.41131 0.0
C651 C 0.07233 0.0527 0.43457 0.0
C652 C 0.09851 0.07819 0.3829 0.0
C653 C 0.07318 0.08155 0.43079 0.0
C654 C 0.11193 0.12173 0.35374 0.0
C655 C 0.13668 0.0909 0.30722 0.0
N656 N 0.08592 0.0932 0.40572 0.0
N657 N 0.12463 0.07839 0.33239 0.0
H658 H 0.40404 0.89786 0.84405 0.0
H659 H 0.50418 0.92514 0.99167 0.0
H660 H 0.45534 0.83397 0.89302 0.0
H661 H 0.45999 0.99018 0.93646 0.0
H662 H 0.48391 0.89122 0.95807 0.0
H663 H 0.42197 0.9316 0.87965 0.0
C664 C 0.41898 0.89089 0.86242 0.0
C665 C 0.42814 0.86298 0.86558 0.0
C666 C 0.47856 0.9129 0.95333 0.0
C667 C 0.44894 0.90165 0.90638 0.0
C668 C 0.49006 0.93232 0.97259 0.0
C669 C 0.48386 0.9606 0.96681 0.0
C670 C 0.46064 0.92174 0.92808 0.0
C671 C 0.46539 0.96861 0.94176 0.0
C672 C 0.42931 0.91021 0.88265 0.0
C673 C 0.44788 0.85527 0.8895 0.0
N674 N 0.4545 0.94928 0.92327 0.0
N675 N 0.45756 0.87448 0.90901 0.0
H676 H 0.68292 0.47025 0.7008 0.0
H677 H 0.57593 0.43088 0.56622 0.0
H678 H 0.69122 0.39472 0.65015 0.0
H679 H 0.58318 0.5146 0.59501 0.0
H680 H 0.61717 0.41684 0.59878 0.0
H681 H 0.64615 0.4872 0.66323 0.0
C682 C 0.67739 0.45742 0.68149 0.0
C683 C 0.68996 0.43087 0.67887 0.0
C684 C 0.60983 0.43831 0.5979 0.0
C685 C 0.64749 0.44987 0.63634 0.0
C686 C 0.58621 0.44626 0.5795 0.0
C687 C 0.57613 0.47384 0.5782 0.0
C688 C 0.62324 0.45805 0.61538 0.0
C689 C 0.5903 0.49307 0.59557 0.0
C690 C 0.65625 0.46703 0.6602 0.0
C691 C 0.68167 0.41505 0.65354 0.0
N692 N 0.61306 0.48477 0.61368 0.0
N693 N 0.66076 0.42466 0.63351 0.0
H694 H 0.8326 0.75608 0.12611 0.0
H695 H 0.87693 0.6302 0.06433 0.0
H696 H 0.90775 0.74751 0.18386 0.0
H697 H 0.93768 0.62633 0.14088 0.0
H698 H 0.86419 0.67768 0.07675 0.0
H699 H 0.84646 0.71374 0.1004 0.0
C700 C 0.85238 0.74556 0.13286 0.0
C701 C 0.86888 0.75524 0.15741 0.0
C702 C 0.88001 0.66651 0.09123 0.0
C703 C 0.88526 0.70652 0.12783 0.0
C704 C 0.88748 0.6393 0.0839 0.0
C705 C 0.90809 0.624 0.1019 0.0
C706 C 0.89316 0.67849 0.11694 0.0
C707 C 0.92112 0.63697 0.12688 0.0
C708 C 0.86043 0.72127 0.11802 0.0
C709 C 0.89441 0.74096 0.16496 0.0
N710 N 0.91338 0.66334 0.13366 0.0
N711 N 0.90158 0.71715 0.15057 0.0
H712 H 0.31826 0.12275 0.06435 0.0
H713 H 0.47255 0.05674 0.10947 0.0
H714 H 0.35039 0.10687 0.15881 0.0
H715 H 0.43871 0.0539 1.01511 0.0
H716 H 0.42881 0.07873 0.126 0.0
H717 H 0.36221 0.10191 0.04433 0.0
C718 C 0.3345 0.11515 0.08096 0.0
C719 C 0.33009 0.11661 0.11355 0.0
C720 C 0.43072 0.07339 0.10162 0.0
C721 C 0.38099 0.09251 0.09052 0.0
C722 C 0.45594 0.06073 0.09203 0.0
C723 C 0.45975 0.05312 0.0607 0.0
C724 C 0.40847 0.07911 0.0799 0.0
C725 C 0.43699 0.05918 0.03951 0.0
C726 C 0.35961 0.10302 0.06943 0.0
C727 C 0.35222 0.10606 0.13359 0.0
N728 N 0.41251 0.0718 0.04942 0.0
N729 N 0.37632 0.09471 0.12187 0.0
H730 H 0.216 0.85938 0.73085 0.0
H731 H 0.13072 0.83957 0.57961 0.0
H732 H 0.21075 0.77701 0.69609 0.0
H733 H 0.0981 0.89424 0.64968 0.0
H734 H 0.16118 0.81636 0.62002 0.0
H735 H 0.17406 0.87356 0.70033 0.0
C736 C 0.2059 0.84401 0.71744 0.0
C737 C 0.2175 0.8169 0.71595 0.0
C738 C 0.14695 0.83315 0.62654 0.0
C739 C 0.16981 0.83362 0.67984 0.0
C740 C 0.12942 0.84639 0.60352 0.0
C741 C 0.11214 0.8694 0.61096 0.0
C742 C 0.14763 0.84336 0.65698 0.0
C743 C 0.11176 0.87729 0.64247 0.0
C744 C 0.18193 0.85227 0.69982 0.0
C745 C 0.20336 0.79834 0.69732 0.0
N746 N 0.12973 0.86473 0.66415 0.0
N747 N 0.18062 0.8072 0.67945 0.0
H748 H 0.85909 0.40551 0.94177 0.0
H749 H 0.98084 0.50881 0.91512 0.0
H750 H 0.88106 0.43801 0.85083 0.0
H751 H 0.97199 0.46267 1.002 0.0
H752 H 0.94092 0.4866 0.89272 0.0
H753 H 0.89726 0.42958 0.96571 0.0
C754 C 0.87193 0.41765 0.9268 0.0
C755 C 0.86684 0.41965 0.89417 0.0
C756 C 0.94767 0.48129 0.9167 0.0
C757 C 0.91029 0.44753 0.92153 0.0
C758 C 0.97044 0.49399 0.92948 0.0
C759 C 0.97976 0.4874 0.96034 0.0
C760 C 0.93399 0.46195 0.93495 0.0
C761 C 0.96546 0.46818 0.97801 0.0
C762 C 0.89364 0.43146 0.94053 0.0
C763 C 0.88387 0.43613 0.8761 0.0
N764 N 0.94324 0.45608 0.96505 0.0
N765 N 0.90481 0.44939 0.89001 0.0
H766 H 0.71749 0.7159 0.32198 0.0
H767 H 0.62667 0.68559 0.47242 0.0
H768 H 0.68332 0.78126 0.37839 0.0
H769 H 0.67697 0.62434 0.42494 0.0
H770 H 0.64308 0.7212 0.43624 0.0
H771 H 0.69758 0.68232 0.35675 0.0
C772 C 0.70533 0.72328 0.34138 0.0
C773 C 0.70191 0.75153 0.34708 0.0
C774 C 0.65056 0.69996 0.43393 0.0
C775 C 0.67962 0.71284 0.38779 0.0
C776 C 0.6412 0.67968 0.45447 0.0
C777 C 0.65068 0.65203 0.45182 0.0
C778 C 0.66919 0.69237 0.41041 0.0
C779 C 0.6695 0.64545 0.42822 0.0
C780 C 0.69425 0.704 0.36153 0.0
C781 C 0.68658 0.75967 0.37321 0.0
N782 N 0.67803 0.66543 0.40843 0.0
N783 N 0.67599 0.74038 0.3927 0.0
H784 H 0.09954 0.29743 0.11978 0.0
H785 H 0.10641 0.4452 0.02981 0.0
H786 H 0.17521 0.32857 0.08359 0.0
H787 H 0.03367 0.42114 0.07863 0.0
H788 H 0.1306 0.40152 0.04662 0.0
H789 H 0.07461 0.34086 0.10314 0.0
C790 C 0.11119 0.31323 0.10858 0.0
C791 C 0.14001 0.30861 0.10344 0.0
C792 C 0.10937 0.40569 0.05379 0.0
C793 C 0.11069 0.35916 0.08339 0.0
C794 C 0.09537 0.43082 0.04411 0.0
C795 C 0.0677 0.43738 0.05277 0.0
C796 C 0.09588 0.38634 0.0724 0.0
C797 C 0.05489 0.41736 0.0713 0.0
C798 C 0.09667 0.33819 0.09882 0.0
C799 C 0.15313 0.33034 0.08792 0.0
N800 N 0.06897 0.39296 0.08039 0.0
N801 N 0.13851 0.3543 0.07857 0.0
H802 H 0.70818 0.25013 0.89602 0.0
H803 H 0.62862 0.11212 0.86916 0.0
H804 H 0.71268 0.20459 0.81068 0.0
H805 H 0.60995 0.16909 0.94249 0.0
H806 H 0.66642 0.14065 0.85254 0.0
H807 H 0.67996 0.21477 0.91887 0.0
C808 C 0.70377 0.23235 0.88235 0.0
C809 C 0.71252 0.23038 0.8513 0.0
C810 C 0.65414 0.14679 0.87238 0.0
C811 C 0.67982 0.19019 0.87706 0.0
C812 C 0.63265 0.13052 0.88189 0.0
C813 C 0.61599 0.13849 0.90697 0.0
C814 C 0.6591 0.17102 0.88827 0.0
C815 C 0.622 0.16253 0.92265 0.0
C816 C 0.68742 0.21233 0.89529 0.0
C817 C 0.70595 0.20706 0.83454 0.0
N818 N 0.64303 0.17799 0.91299 0.0
N819 N 0.68974 0.18797 0.84754 0.0
H820 H 0.86953 0.89638 0.42399 0.0
H821 H 1.00068 0.98893 0.43212 0.0
H822 H 0.90697 0.92683 0.33954 0.0
H823 H 0.93666 0.991 0.5013 0.0
H824 H 0.97217 0.95933 0.39994 0.0
H825 H 0.8999 0.92418 0.45499 0.0
C826 C 0.88395 0.90903 0.41184 0.0
C827 C 0.88522 0.90955 0.37891 0.0
C828 C 0.96447 0.96633 0.42217 0.0
C829 C 0.92077 0.94081 0.41464 0.0
C830 C 0.98069 0.98307 0.44052 0.0
C831 C 0.97084 0.99243 0.46924 0.0
C832 C 0.93865 0.95851 0.4331 0.0
C833 C 0.94487 0.98432 0.47918 0.0
C834 C 0.90143 0.92475 0.42966 0.0
C835 C 0.90525 0.92561 0.3648 0.0
N836 N 0.92973 0.96768 0.46122 0.0
N837 N 0.92226 0.94063 0.38276 0.0
H838 H 0.46522 0.69725 0.67086 0.0
H839 H 0.45718 0.55589 0.58065 0.0
H840 H 0.39706 0.64334 0.67805 0.0
H841 H 0.53242 0.6003 0.58731 0.0
H842 H 0.43483 0.58841 0.61592 0.0
H843 H 0.49074 0.66226 0.64078 0.0
C844 C 0.45578 0.67795 0.66649 0.0
C845 C 0.42879 0.6734 0.67663 0.0
C846 C 0.45628 0.591 0.60981 0.0
C847 C 0.45763 0.63352 0.64188 0.0
C848 C 0.46904 0.57247 0.58953 0.0
C849 C 0.49672 0.57537 0.58091 0.0
C850 C 0.47117 0.61282 0.6214 0.0
C851 C 0.51105 0.59724 0.59333 0.0
C852 C 0.47027 0.65806 0.64916 0.0
C853 C 0.41752 0.64804 0.67009 0.0
N854 N 0.49806 0.61522 0.6128 0.0
N855 N 0.43186 0.62923 0.65295 0.0
H856 H 0.91144 0.97166 0.74679 0.0
H857 H 1.00125 0.94292 0.59241 0.0
H858 H 0.93561 0.88993 0.71707 0.0
H859 H 0.9789 0.0244 0.62404 0.0
H860 H 0.97767 0.92325 0.63758 0.0
H861 H 0.93578 0.99102 0.70226 0.0
C862 C 0.92166 0.95763 0.73092 0.0
C863 C 0.92103 0.92886 0.73612 0.0
C864 C 0.97792 0.94543 0.63473 0.0
C865 C 0.9497 0.95138 0.68439 0.0
C866 C 0.99145 0.95678 0.6088 0.0
C867 C 0.99224 0.98555 0.60403 0.0
C868 C 0.9648 0.96282 0.65644 0.0
C869 C 0.97902 1.00217 0.62645 0.0
C870 C 0.93582 0.96884 0.70541 0.0
C871 C 0.93549 0.91215 0.71462 0.0
N872 N 0.96592 0.99064 0.6514 0.0
N873 N 0.949 0.92357 0.68989 0.0
H874 H 0.66434 0.13661 0.1913 0.0
H875 H 0.55821 0.11132 0.0484 0.0
H876 H 0.61021 0.20085 0.14701 0.0
H877 H 0.60453 0.04562 0.10035 0.0
H878 H 0.57974 0.14477 0.08164 0.0
H879 H 0.64521 0.10345 0.15574 0.0
C880 C 0.64854 0.14379 0.17395 0.0
C881 C 0.63889 0.1716 0.17213 0.0
C882 C 0.58527 0.12305 0.08573 0.0
C883 C 0.61673 0.13362 0.13142 0.0
C884 C 0.57305 0.10391 0.06668 0.0
C885 C 0.57949 0.07558 0.07167 0.0
C886 C 0.60418 0.11387 0.10993 0.0
C887 C 0.5989 0.06724 0.0957 0.0
C888 C 0.63752 0.1248 0.15376 0.0
C889 C 0.61806 0.17959 0.14949 0.0
N890 N 0.6105 0.08629 0.11398 0.0
N891 N 0.60772 0.16072 0.13 0.0
H892 H 0.37201 0.64081 0.38879 0.0
H893 H 0.48497 0.51992 0.43925 0.0
H894 H 0.38195 0.5651 0.33874 0.0
H895 H 0.48973 0.60391 0.46811 0.0
H896 H 0.44241 0.5334 0.40854 0.0
H897 H 0.40988 0.62439 0.42498 0.0
C898 C 0.38201 0.62062 0.38556 0.0
C899 C 0.37407 0.60448 0.36038 0.0
C900 C 0.45276 0.54885 0.42162 0.0
C901 C 0.41731 0.58553 0.40188 0.0
C902 C 0.47703 0.54121 0.43907 0.0
C903 C 0.49094 0.56095 0.45591 0.0
C904 C 0.44222 0.57635 0.42132 0.0
C905 C 0.47972 0.58816 0.45518 0.0
C906 C 0.40362 0.61129 0.40622 0.0
C907 C 0.38731 0.57821 0.35783 0.0
N908 N 0.45598 0.59508 0.43814 0.0
N909 N 0.40847 0.56964 0.37817 0.0
H910 H 0.2209 0.27889 0.92397 0.0
H911 H 0.09829 0.39479 0.91442 0.0
H912 H 0.14211 0.27103 0.87519 0.0
H913 H 0.17326 0.40185 0.97094 0.0
H914 H 0.11202 0.34693 0.9057 0.0
H915 H 0.20157 0.32041 0.9484 0.0
C916 C 0.1993 0.28548 0.91908 0.0
C917 C 0.18325 0.27177 0.89707 0.0
C918 C 0.12542 0.35879 0.92025 0.0
C919 C 0.16119 0.31939 0.92447 0.0
C920 C 0.11755 0.38621 0.92532 0.0
C921 C 0.13465 0.4025 0.94345 0.0
C922 C 0.15085 0.34743 0.93295 0.0
C923 C 0.15965 0.39024 0.95637 0.0
C924 C 0.18833 0.30925 0.93291 0.0
C925 C 0.1553 0.28093 0.89193 0.0
N926 N 0.16711 0.36347 0.95068 0.0
N927 N 0.14534 0.30447 0.90503 0.0
H928 H 0.71694 0.92785 0.88407 0.0
H929 H 0.6216 0.98109 0.02656 0.0
H930 H 0.73934 0.90841 0.98108 0.0
H931 H 0.59332 0.98196 0.9298 0.0
H932 H 0.66613 0.95798 1.01119 0.0
H933 H 0.67362 0.95125 0.90084 0.0
C934 C 0.71301 0.92858 0.90895 0.0
C935 C 0.73234 0.91583 0.93098 0.0
C936 C 0.65017 0.96325 0.99332 0.0
C937 C 0.6818 0.9431 0.95069 0.0
C938 C 0.62467 0.97655 1.00212 0.0
C939 C 0.60334 0.98364 0.97957 0.0
C940 C 0.65478 0.95719 0.96156 0.0
C941 C 0.60886 0.97701 0.94821 0.0
C942 C 0.68797 0.94191 0.91856 0.0
C943 C 0.72527 0.91749 0.96295 0.0
N944 N 0.63377 0.96444 0.94026 0.0
N945 N 0.7009 0.93083 0.97174 0.0
H946 H 0.85388 0.17664 0.30054 0.0
H947 H 0.93723 0.19799 0.4526 0.0
H948 H 0.8606 0.25946 0.33337 0.0
H949 H 0.96922 0.14005 0.38553 0.0
H950 H 0.90846 0.22108 0.41065 0.0
H951 H 0.89537 0.16216 0.33174 0.0
C952 C 0.86426 0.19204 0.31363 0.0
C953 C 0.85311 0.21934 0.31454 0.0
C954 C 0.92219 0.20359 0.40512 0.0
C955 C 0.90026 0.20234 0.35139 0.0
C956 C 0.93876 0.19041 0.42903 0.0
C957 C 0.95532 0.16654 0.4229 0.0
C958 C 0.92173 0.19252 0.37509 0.0
C959 C 0.95605 0.1577 0.39175 0.0
C960 C 0.88796 0.18361 0.33165 0.0
C961 C 0.86762 0.23798 0.33268 0.0
N962 N 0.93898 0.17028 0.36918 0.0
N963 N 0.89004 0.229 0.35098 0.0
H964 H 0.20635 0.62451 0.09581 0.0
H965 H 0.07901 0.52855 0.1256 0.0
H966 H 0.18325 0.59522 0.1877 0.0
H967 H 0.0899 0.57282 0.03792 0.0
H968 H 0.12055 0.54865 0.14724 0.0
H969 H 0.16699 0.60165 0.07276 0.0
C970 C 0.19303 0.61331 0.11117 0.0
C971 C 0.19809 0.61195 0.14382 0.0
C972 C 0.11389 0.55399 0.12327 0.0
C973 C 0.15324 0.58545 0.11747 0.0
C974 C 0.0902 0.54252 0.1109 0.0
C975 C 0.08098 0.54924 0.08004 0.0
C976 C 0.12857 0.57219 0.10456 0.0
C977 C 0.09629 0.5673 0.06193 0.0
C978 C 0.17063 0.60018 0.09795 0.0
C979 C 0.18044 0.5966 0.16242 0.0
N980 N 0.11939 0.57819 0.07448 0.0
N981 N 0.15879 0.58403 0.14899 0.0
H982 H 0.30596 0.30535 0.64548 0.0
H983 H 0.41649 0.42153 0.63962 0.0
H984 H 0.36554 0.31709 0.72088 0.0
H985 H 0.37737 0.39083 0.55623 0.0
H986 H 0.39417 0.38667 0.67111 0.0
H987 H 0.3288 0.33935 0.61335 0.0
C988 C 0.32407 0.31475 0.65519 0.0
C989 C 0.33382 0.30827 0.68602 0.0
C990 C 0.3905 0.38761 0.64591 0.0
C991 C 0.35952 0.34782 0.64956 0.0
C992 C 0.40327 0.40746 0.62789 0.0
C993 C 0.39896 0.40907 0.59514 0.0
C994 C 0.37306 0.36937 0.63118 0.0
C995 C 0.38105 0.39064 0.5814 0.0
C996 C 0.33693 0.33435 0.63688 0.0
C997 C 0.35699 0.3217 0.69747 0.0
N998 N 0.36877 0.37155 0.59948 0.0
N999 N 0.36894 0.34095 0.6793 0.0
H1000 H 0.94711 0.7168 0.88121 0.0
H1001 H 0.96533 0.60598 0.02483 0.0
H1002 H 0.91202 0.73331 0.97144 0.0
H1003 H 1.0197 0.60697 0.94613 0.0
H1004 H 0.94201 0.64958 1.00474 0.0
H1005 H 0.96956 0.67429 0.90316 0.0
C1006 C 0.94419 0.71189 0.90579 0.0
C1007 C 0.92784 0.72977 0.92441 0.0
C1008 C 0.95905 0.64031 0.99185 0.0
C1009 C 0.95344 0.67925 0.94983 0.0
C1010 C 0.97234 0.61523 1.00326 0.0
C1011 C 0.99458 0.60237 0.98722 0.0
C1012 C 0.9676 0.65276 0.96369 0.0
C1013 C 1.00283 0.61588 0.95954 0.0
C1014 C 0.95705 0.68718 0.9183 0.0
C1015 C 0.92427 0.72069 0.95583 0.0
N1016 N 0.9893 0.63995 0.94865 0.0
N1017 N 0.93688 0.69628 0.96743 0.0
H1018 H 0.35862 0.78136 0.13931 0.0
H1019 H 0.43293 0.9224 0.16591 0.0
H1020 H 0.35046 0.82819 0.22338 0.0
H1021 H 0.45574 0.86468 0.09469 0.0
H1022 H 0.39562 0.89294 0.18171 0.0
H1023 H 0.38645 0.8172 0.11668 0.0
C1024 C 0.36215 0.79951 0.15271 0.0
C1025 C 0.35249 0.80174 0.18337 0.0
C1026 C 0.4087 0.88683 0.16251 0.0
C1027 C 0.38467 0.84249 0.15791 0.0
C1028 C 0.42991 0.90363 0.15347 0.0
C1029 C 0.44759 0.89574 0.12923 0.0
C1030 C 0.40505 0.86213 0.14702 0.0
C1031 C 0.44288 0.87121 0.11389 0.0
C1032 C 0.37826 0.8198 0.13992 0.0
C1033 C 0.35791 0.82554 0.19984 0.0
N1034 N 0.4221 0.85522 0.12311 0.0
N1035 N 0.37387 0.84491 0.187 0.0
H1036 H 0.1351 0.14032 0.68655 0.0
H1037 H 0.13397 0.02835 0.55289 0.0
H1038 H 0.20928 0.09924 0.65129 0.0
H1039 H 0.05923 0.05989 0.59645 0.0
H1040 H 0.16173 0.05451 0.58897 0.0
H1041 H 0.10672 0.11075 0.6548 0.0
C1042 C 0.14543 0.12485 0.67248 0.0
C1043 C 0.17464 0.12243 0.67139 0.0
C1044 C 0.13928 0.05567 0.59079 0.0
C1045 C 0.14228 0.08888 0.6346 0.0
C1046 C 0.12342 0.0408 0.57012 0.0
C1047 C 0.09432 0.04201 0.57176 0.0
C1048 C 0.12592 0.07207 0.61313 0.0
C1049 C 0.08168 0.05842 0.5945 0.0
C1050 C 0.12921 0.10811 0.65419 0.0
C1051 C 0.18685 0.10223 0.65241 0.0
N1052 N 0.09757 0.07293 0.61427 0.0
N1053 N 0.17063 0.08639 0.63465 0.0
H1054 H 0.61161 0.3666 0.33175 0.0
H1055 H 0.61107 0.45418 0.48669 0.0
H1056 H 0.66415 0.34556 0.41356 0.0
H1057 H 0.53944 0.45546 0.42341 0.0
H1058 H 0.6332 0.4174 0.4567 0.0
H1059 H 0.58619 0.40146 0.36217 0.0
C1060 C 0.61763 0.36906 0.35612 0.0
C1061 C 0.64038 0.35337 0.36992 0.0
C1062 C 0.61261 0.42569 0.44938 0.0
C1063 C 0.61181 0.39351 0.40451 0.0
C1064 C 0.60005 0.44682 0.46637 0.0
C1065 C 0.57339 0.45791 0.4575 0.0
C1066 C 0.59862 0.41578 0.42303 0.0
C1067 C 0.56 0.44741 0.43108 0.0
C1068 C 0.60322 0.38905 0.37339 0.0
C1069 C 0.64731 0.35764 0.40159 0.0
N1070 N 0.57283 0.427 0.41462 0.0
N1071 N 0.6333 0.37745 0.41765 0.0
loop_
_geom_bond_atom_site_label_1
_geom_bond_atom_site_label_2
_geom_bond_distance
_geom_bond_site_symmetry_2
_ccdc_geom_bond_type
C0 C1 1.391 . S
C0 C4 1.391 . S
C0 H42 0.948 . S
C1 C0 1.391 . S
C1 C2 1.391 . S
C2 C1 1.391 . S
C2 H58 0.947 . S
C2 C59 1.392 . S
C3 C4 1.391 . S
C3 C7 1.397 . S
C3 C59 1.419 . S
C4 C0 1.391 . S
C4 C3 1.391 . S
C4 C5 1.399 . S
C5 C4 1.399 . S
C5 C8 1.396 . S
C5 C17 1.453 . S
C5 C18 1.684 . S
H6 C30 0.948 . S
C7 C3 1.397 . S
C7 C8 1.394 . S
C7 C26 1.723 . S
C8 C5 1.396 . S
C8 C7 1.394 . S
C8 C38 1.723 . S
H9 C32 0.947 . S
H10 C33 0.948 . S
H11 C39 0.982 . S
H12 C40 0.979 . S
H13 C40 0.980 . S
H14 C40 0.983 . S
H15 C39 0.979 . S
H16 C39 0.977 . S
C17 C5 1.453 . S
C17 H46 0.982 . S
C17 H47 0.979 . S
C17 H48 0.977 . S
C18 C5 1.684 . S
C18 H43 0.979 . S
C18 H44 0.980 . S
C18 H45 0.983 . S
C19 C20 1.391 . S
C19 C24 1.391 . S
C19 H49 0.948 . S
C20 C19 1.391 . S
C20 C21 1.391 . S
C21 C20 1.391 . S
C21 C22 1.392 . S
C21 H50 0.947 . S
C22 C21 1.392 . S
C22 C23 1.419 . S
C22 H51 0.948 . S
C23 C22 1.419 . S
C23 C24 1.391 . S
C23 C27 1.397 . S
C24 C19 1.391 . S
C24 C23 1.391 . S
C24 C25 1.399 . S
C25 C24 1.399 . S
C25 C26 1.396 . S
C25 C28 1.453 . S
C25 C29 1.684 . S
C26 C7 1.723 . S
C26 C25 1.396 . S
C26 C27 1.394 . S
C27 C23 1.397 . S
C27 C26 1.394 . S
C27 C37 1.723 . S
C28 C25 1.453 . S
C28 H52 0.982 . S
C28 H53 0.979 . S
C28 H54 0.977 . S
C29 C25 1.684 . S
C29 H55 0.979 . S
C29 H56 0.980 . S
C29 H57 0.983 . S
C30 H6 0.948 . S
C30 C31 1.391 . S
C30 C35 1.391 . S
C31 C30 1.391 . S
C31 C32 1.391 . S
C32 H9 0.947 . S
C32 C31 1.391 . S
C32 C33 1.392 . S
C33 H10 0.948 . S
C33 C32 1.392 . S
C33 C34 1.419 . S
C34 C33 1.419 . S
C34 C35 1.391 . S
C34 C38 1.397 . S
C35 C30 1.391 . S
C35 C34 1.391 . S
C35 C36 1.399 . S
C36 C35 1.399 . S
C36 C37 1.396 . S
C36 C39 1.453 . S
C36 C40 1.684 . S
C37 C27 1.723 . S
C37 C36 1.396 . S
C37 C38 1.394 . S
C38 C8 1.723 . S
C38 C34 1.397 . S
C38 C37 1.394 . S
C39 H11 0.982 . S
C39 H15 0.979 . S
C39 H16 0.977 . S
C39 C36 1.453 . S
C40 H12 0.979 . S
C40 H13 0.980 . S
C40 H14 0.983 . S
C40 C36 1.684 . S
H41 C59 0.948 . S
H42 C0 0.948 . S
H43 C18 0.979 . S
H44 C18 0.980 . S
H45 C18 0.983 . S
H46 C17 0.982 . S
H47 C17 0.979 . S
H48 C17 0.977 . S
H49 C19 0.948 . S
H50 C21 0.947 . S
H51 C22 0.948 . S
H52 C28 0.982 . S
H53 C28 0.979 . S
H54 C28 0.977 . S
H55 C29 0.979 . S
H56 C29 0.980 . S
H57 C29 0.983 . S
H58 C2 0.947 . S
C59 C2 1.392 . S
C59 C3 1.419 . S
C59 H41 0.948 . S
C60 C61 1.391 . S
C60 C64 1.391 . S
C60 H102 0.948 . S
C61 C60 1.391 . S
C61 C62 1.391 . S
C62 C61 1.391 . S
C62 H118 0.947 . S
C62 C119 1.392 . S
C63 C64 1.391 . S
C63 C67 1.397 . S
C63 C119 1.419 . S
C64 C60 1.391 . S
C64 C63 1.391 . S
C64 C65 1.399 . S
C65 C64 1.399 . S
C65 C68 1.396 . S
C65 C77 1.453 . S
C65 C78 1.684 . S
H66 C90 0.948 . S
C67 C63 1.397 . S
C67 C68 1.394 . S
C67 C86 1.723 . S
C68 C65 1.396 . S
C68 C67 1.394 . S
C68 C98 1.723 . S
H69 C92 0.947 . S
H70 C93 0.948 . S
H71 C99 0.982 . S
H72 C100 0.979 . S
H73 C100 0.980 . S
H74 C100 0.983 . S
H75 C99 0.979 . S
H76 C99 0.977 . S
C77 C65 1.453 . S
C77 H106 0.982 . S
C77 H107 0.979 . S
C77 H108 0.977 . S
C78 C65 1.684 . S
C78 H103 0.979 . S
C78 H104 0.980 . S
C78 H105 0.983 . S
C79 C80 1.391 . S
C79 C84 1.391 . S
C79 H109 0.948 . S
C80 C79 1.391 . S
C80 C81 1.391 . S
C81 C80 1.391 . S
C81 C82 1.392 . S
C81 H110 0.947 . S
C82 C81 1.392 . S
C82 C83 1.419 . S
C82 H111 0.948 . S
C83 C82 1.419 . S
C83 C84 1.391 . S
C83 C87 1.397 . S
C84 C79 1.391 . S
C84 C83 1.391 . S
C84 C85 1.399 . S
C85 C84 1.399 . S
C85 C86 1.396 . S
C85 C88 1.453 . S
C85 C89 1.684 . S
C86 C67 1.723 . S
C86 C85 1.396 . S
C86 C87 1.394 . S
C87 C83 1.397 . S
C87 C86 1.394 . S
C87 C97 1.723 . S
C88 C85 1.453 . S
C88 H112 0.982 . S
C88 H113 0.979 . S
C88 H114 0.977 . S
C89 C85 1.684 . S
C89 H115 0.979 . S
C89 H116 0.980 . S
C89 H117 0.983 . S
C90 H66 0.948 . S
C90 C91 1.391 . S
C90 C95 1.391 . S
C91 C90 1.391 . S
C91 C92 1.391 . S
C92 H69 0.947 . S
C92 C91 1.391 . S
C92 C93 1.392 . S
C93 H70 0.948 . S
C93 C92 1.392 . S
C93 C94 1.419 . S
C94 C93 1.419 . S
C94 C95 1.391 . S
C94 C98 1.397 . S
C95 C90 1.391 . S
C95 C94 1.391 . S
C95 C96 1.399 . S
C96 C95 1.399 . S
C96 C97 1.396 . S
C96 C99 1.453 . S
C96 C100 1.684 . S
C97 C87 1.723 . S
C97 C96 1.396 . S
C97 C98 1.394 . S
C98 C68 1.723 . S
C98 C94 1.397 . S
C98 C97 1.394 . S
C99 H71 0.982 . S
C99 H75 0.979 . S
C99 H76 0.977 . S
C99 C96 1.453 . S
C100 H72 0.979 . S
C100 H73 0.980 . S
C100 H74 0.983 . S
C100 C96 1.684 . S
H101 C119 0.948 . S
H102 C60 0.948 . S
H103 C78 0.979 . S
H104 C78 0.980 . S
H105 C78 0.983 . S
H106 C77 0.982 . S
H107 C77 0.979 . S
H108 C77 0.977 . S
H109 C79 0.948 . S
H110 C81 0.947 . S
H111 C82 0.948 . S
H112 C88 0.982 . S
H113 C88 0.979 . S
H114 C88 0.977 . S
H115 C89 0.979 . S
H116 C89 0.980 . S
H117 C89 0.983 . S
H118 C62 0.947 . S
C119 C62 1.392 . S
C119 C63 1.419 . S
C119 H101 0.948 . S
C120 C121 1.391 . S
C120 C124 1.391 . S
C120 H162 0.948 . S
C121 C120 1.391 . S
C121 C122 1.391 . S
C122 C121 1.391 . S
C122 H178 0.947 . S
C122 C179 1.392 . S
C123 C124 1.391 . S
C123 C127 1.397 . S
C123 C179 1.419 . S
C124 C120 1.391 . S
C124 C123 1.391 . S
C124 C125 1.399 . S
C125 C124 1.399 . S
C125 C128 1.396 . S
C125 C137 1.453 . S
C125 C138 1.684 . S
H126 C150 0.948 . S
C127 C123 1.397 . S
C127 C128 1.394 . S
C127 C146 1.723 . S
C128 C125 1.396 . S
C128 C127 1.394 . S
C128 C158 1.723 . S
H129 C152 0.947 . S
H130 C153 0.948 . S
H131 C159 0.982 . S
H132 C160 0.979 . S
H133 C160 0.980 . S
H134 C160 0.983 . S
H135 C159 0.979 . S
H136 C159 0.977 . S
C137 C125 1.453 . S
C137 H166 0.982 . S
C137 H167 0.979 . S
C137 H168 0.977 . S
C138 C125 1.684 . S
C138 H163 0.979 . S
C138 H164 0.980 . S
C138 H165 0.983 . S
C139 C140 1.391 . S
C139 C144 1.391 . S
C139 H169 0.948 . S
C140 C139 1.391 . S
C140 C141 1.391 . S
C141 C140 1.391 . S
C141 C142 1.392 . S
C141 H170 0.947 . S
C142 C141 1.392 . S
C142 C143 1.419 . S
C142 H171 0.948 . S
C143 C142 1.419 . S
C143 C144 1.391 . S
C143 C147 1.397 . S
C144 C139 1.391 . S
C144 C143 1.391 . S
C144 C145 1.399 . S
C145 C144 1.399 . S
C145 C146 1.396 . S
C145 C148 1.453 . S
C145 C149 1.684 . S
C146 C127 1.723 . S
C146 C145 1.396 . S
C146 C147 1.394 . S
C147 C143 1.397 . S
C147 C146 1.394 . S
C147 C157 1.723 . S
C148 C145 1.453 . S
C148 H172 0.982 . S
C148 H173 0.979 . S
C148 H174 0.977 . S
C149 C145 1.684 . S
C149 H175 0.979 . S
C149 H176 0.980 . S
C149 H177 0.983 . S
C150 H126 0.948 . S
C150 C151 1.391 . S
C150 C155 1.391 . S
C151 C150 1.391 . S
C151 C152 1.391 . S
C152 H129 0.947 . S
C152 C151 1.391 . S
C152 C153 1.392 . S
C153 H130 0.948 . S
C153 C152 1.392 . S
C153 C154 1.419 . S
C154 C153 1.419 . S
C154 C155 1.391 . S
C154 C158 1.397 . S
C155 C150 1.391 . S
C155 C154 1.391 . S
C155 C156 1.399 . S
C156 C155 1.399 . S
C156 C157 1.396 . S
C156 C159 1.453 . S
C156 C160 1.684 . S
C157 C147 1.723 . S
C157 C156 1.396 . S
C157 C158 1.394 . S
C158 C128 1.723 . S
C158 C154 1.397 . S
C158 C157 1.394 . S
C159 H131 0.982 . S
C159 H135 0.979 . S
C159 H136 0.977 . S
C159 C156 1.453 . S
C160 H132 0.979 . S
C160 H133 0.980 . S
C160 H134 0.983 . S
C160 C156 1.684 . S
H161 C179 0.948 . S
H162 C120 0.948 . S
H163 C138 0.979 . S
H164 C138 0.980 . S
H165 C138 0.983 . S
H166 C137 0.982 . S
H167 C137 0.979 . S
H168 C137 0.977 . S
H169 C139 0.948 . S
H170 C141 0.947 . S
H171 C142 0.948 . S
H172 C148 0.982 . S
H173 C148 0.979 . S
H174 C148 0.977 . S
H175 C149 0.979 . S
H176 C149 0.980 . S
H177 C149 0.983 . S
H178 C122 0.947 . S
C179 C122 1.392 . S
C179 C123 1.419 . S
C179 H161 0.948 . S
C180 C181 1.391 . S
C180 C184 1.391 . S
C180 H222 0.948 . S
C181 C180 1.391 . S
C181 C182 1.391 . S
C182 C181 1.391 . S
C182 H238 0.947 . S
C182 C239 1.392 . S
C183 C184 1.391 . S
C183 C187 1.397 . S
C183 C239 1.419 . S
C184 C180 1.391 . S
C184 C183 1.391 . S
C184 C185 1.399 . S
C185 C184 1.399 . S
C185 C188 1.396 . S
C185 C197 1.453 . S
C185 C198 1.684 . S
H186 C210 0.948 . S
C187 C183 1.397 . S
C187 C188 1.394 . S
C187 C206 1.723 . S
C188 C185 1.396 . S
C188 C187 1.394 . S
C188 C218 1.723 . S
H189 C212 0.947 . S
H190 C213 0.948 . S
H191 C219 0.982 . S
H192 C220 0.979 . S
H193 C220 0.980 . S
H194 C220 0.983 . S
H195 C219 0.979 . S
H196 C219 0.977 . S
C197 C185 1.453 . S
C197 H226 0.982 . S
C197 H227 0.979 . S
C197 H228 0.977 . S
C198 C185 1.684 . S
C198 H223 0.979 . S
C198 H224 0.980 . S
C198 H225 0.983 . S
C199 C200 1.391 . S
C199 C204 1.391 . S
C199 H229 0.948 . S
C200 C199 1.391 . S
C200 C201 1.391 . S
C201 C200 1.391 . S
C201 C202 1.392 . S
C201 H230 0.947 . S
C202 C201 1.392 . S
C202 C203 1.419 . S
C202 H231 0.948 . S
C203 C202 1.419 . S
C203 C204 1.391 . S
C203 C207 1.397 . S
C204 C199 1.391 . S
C204 C203 1.391 . S
C204 C205 1.399 . S
C205 C204 1.399 . S
C205 C206 1.396 . S
C205 C208 1.453 . S
C205 C209 1.684 . S
C206 C187 1.723 . S
C206 C205 1.396 . S
C206 C207 1.394 . S
C207 C203 1.397 . S
C207 C206 1.394 . S
C207 C217 1.723 . S
C208 C205 1.453 . S
C208 H232 0.982 . S
C208 H233 0.979 . S
C208 H234 0.977 . S
C209 C205 1.684 . S
C209 H235 0.979 . S
C209 H236 0.980 . S
C209 H237 0.983 . S
C210 H186 0.948 . S
C210 C211 1.391 . S
C210 C215 1.391 . S
C211 C210 1.391 . S
C211 C212 1.391 . S
C212 H189 0.947 . S
C212 C211 1.391 . S
C212 C213 1.392 . S
C213 H190 0.948 . S
C213 C212 1.392 . S
C213 C214 1.419 . S
C214 C213 1.419 . S
C214 C215 1.391 . S
C214 C218 1.397 . S
C215 C210 1.391 . S
C215 C214 1.391 . S
C215 C216 1.399 . S
C216 C215 1.399 . S
C216 C217 1.396 . S
C216 C219 1.453 . S
C216 C220 1.684 . S
C217 C207 1.723 . S
C217 C216 1.396 . S
C217 C218 1.394 . S
C218 C188 1.723 . S
C218 C214 1.397 . S
C218 C217 1.394 . S
C219 H191 0.982 . S
C219 H195 0.979 . S
C219 H196 0.977 . S
C219 C216 1.453 . S
C220 H192 0.979 . S
C220 H193 0.980 . S
C220 H194 0.983 . S
C220 C216 1.684 . S
H221 C239 0.948 . S
H222 C180 0.948 . S
H223 C198 0.979 . S
H224 C198 0.980 . S
H225 C198 0.983 . S
H226 C197 0.982 . S
H227 C197 0.979 . S
H228 C197 0.977 . S
H229 C199 0.948 . S
H230 C201 0.947 . S
H231 C202 0.948 . S
H232 C208 0.982 . S
H233 C208 0.979 . S
H234 C208 0.977 . S
H235 C209 0.979 . S
H236 C209 0.980 . S
H237 C209 0.983 . S
H238 C182 0.947 . S
C239 C182 1.392 . S
C239 C183 1.419 . S
C239 H221 0.948 . S
C240 C241 1.391 . S
C240 C244 1.391 . S
C240 H282 0.948 . S
C241 C240 1.391 . S
C241 C242 1.391 . S
C242 C241 1.391 . S
C242 H298 0.947 . S
C242 C299 1.392 . S
C243 C244 1.391 . S
C243 C247 1.397 . S
C243 C299 1.419 . S
C244 C240 1.391 . S
C244 C243 1.391 . S
C244 C245 1.399 . S
C245 C244 1.399 . S
C245 C248 1.396 . S
C245 C257 1.453 . S
C245 C258 1.684 . S
H246 C270 0.948 . S
C247 C243 1.397 . S
C247 C248 1.394 . S
C247 C266 1.723 . S
C248 C245 1.396 . S
C248 C247 1.394 . S
C248 C278 1.723 . S
H249 C272 0.947 . S
H250 C273 0.948 . S
H251 C279 0.982 . S
H252 C280 0.979 . S
H253 C280 0.980 . S
H254 C280 0.983 . S
H255 C279 0.979 . S
H256 C279 0.977 . S
C257 C245 1.453 . S
C257 H286 0.982 . S
C257 H287 0.979 . S
C257 H288 0.977 . S
C258 C245 1.684 . S
C258 H283 0.979 . S
C258 H284 0.980 . S
C258 H285 0.983 . S
C259 C260 1.391 . S
C259 C264 1.391 . S
C259 H289 0.948 . S
C260 C259 1.391 . S
C260 C261 1.391 . S
C261 C260 1.391 . S
C261 C262 1.392 . S
C261 H290 0.947 . S
C262 C261 1.392 . S
C262 C263 1.419 . S
C262 H291 0.948 . S
C263 C262 1.419 . S
C263 C264 1.391 . S
C263 C267 1.397 . S
C264 C259 1.391 . S
C264 C263 1.391 . S
C264 C265 1.399 . S
C265 C264 1.399 . S
C265 C266 1.396 . S
C265 C268 1.453 . S
C265 C269 1.684 . S
C266 C247 1.723 . S
C266 C265 1.396 . S
C266 C267 1.394 . S
C267 C263 1.397 . S
C267 C266 1.394 . S
C267 C277 1.723 . S
C268 C265 1.453 . S
C268 H292 0.982 . S
C268 H293 0.979 . S
C268 H294 0.977 . S
C269 C265 1.684 . S
C269 H295 0.979 . S
C269 H296 0.980 . S
C269 H297 0.983 . S
C270 H246 0.948 . S
C270 C271 1.391 . S
C270 C275 1.391 . S
C271 C270 1.391 . S
C271 C272 1.391 . S
C272 H249 0.947 . S
C272 C271 1.391 . S
C272 C273 1.392 . S
C273 H250 0.948 . S
C273 C272 1.392 . S
C273 C274 1.419 . S
C274 C273 1.419 . S
C274 C275 1.391 . S
C274 C278 1.397 . S
C275 C270 1.391 . S
C275 C274 1.391 . S
C275 C276 1.399 . S
C276 C275 1.399 . S
C276 C277 1.396 . S
C276 C279 1.453 . S
C276 C280 1.684 . S
C277 C267 1.723 . S
C277 C276 1.396 . S
C277 C278 1.394 . S
C278 C248 1.723 . S
C278 C274 1.397 . S
C278 C277 1.394 . S
C279 H251 0.982 . S
C279 H255 0.979 . S
C279 H256 0.977 . S
C279 C276 1.453 . S
C280 H252 0.979 . S
C280 H253 0.980 . S
C280 H254 0.983 . S
C280 C276 1.684 . S
H281 C299 0.948 . S
H282 C240 0.948 . S
H283 C258 0.979 . S
H284 C258 0.980 . S
H285 C258 0.983 . S
H286 C257 0.982 . S
H287 C257 0.979 . S
H288 C257 0.977 . S
H289 C259 0.948 . S
H290 C261 0.947 . S
H291 C262 0.948 . S
H292 C268 0.982 . S
H293 C268 0.979 . S
H294 C268 0.977 . S
H295 C269 0.979 . S
H296 C269 0.980 . S
H297 C269 0.983 . S
H298 C242 0.947 . S
C299 C242 1.392 . S
C299 C243 1.419 . S
C299 H281 0.948 . S
C300 C301 1.391 . S
C300 C304 1.391 . S
C300 H342 0.948 . S
C301 C300 1.391 . S
C301 C302 1.391 . S
C302 C301 1.391 . S
C302 H358 0.947 . S
C302 C359 1.392 . S
C303 C304 1.391 . S
C303 C307 1.397 . S
C303 C359 1.419 . S
C304 C300 1.391 . S
C304 C303 1.391 . S
C304 C305 1.399 . S
C305 C304 1.399 . S
C305 C308 1.396 . S
C305 C317 1.453 . S
C305 C318 1.684 . S
H306 C330 0.948 . S
C307 C303 1.397 . S
C307 C308 1.394 . S
C307 C326 1.723 . S
C308 C305 1.396 . S
C308 C307 1.394 . S
C308 C338 1.723 . S
H309 C332 0.947 . S
H310 C333 0.948 . S
H311 C339 0.982 . S
H312 C340 0.979 . S
H313 C340 0.980 . S
H314 C340 0.983 . S
H315 C339 0.979 . S
H316 C339 0.977 . S
C317 C305 1.453 . S
C317 H346 0.982 . S
C317 H347 0.979 . S
C317 H348 0.977 . S
C318 C305 1.684 . S
C318 H343 0.979 . S
C318 H344 0.980 . S
C318 H345 0.983 . S
C319 C320 1.391 . S
C319 C324 1.391 . S
C319 H349 0.948 . S
C320 C319 1.391 . S
C320 C321 1.391 . S
C321 C320 1.391 . S
C321 C322 1.392 . S
C321 H350 0.947 . S
C322 C321 1.392 . S
C322 C323 1.419 . S
C322 H351 0.948 . S
C323 C322 1.419 . S
C323 C324 1.391 . S
C323 C327 1.397 . S
C324 C319 1.391 . S
C324 C323 1.391 . S
C324 C325 1.399 . S
C325 C324 1.399 . S
C325 C326 1.396 . S
C325 C328 1.453 . S
C325 C329 1.684 . S
C326 C307 1.723 . S
C326 C325 1.396 . S
C326 C327 1.394 . S
C327 C323 1.397 . S
C327 C326 1.394 . S
C327 C337 1.723 . S
C328 C325 1.453 . S
C328 H352 0.982 . S
C328 H353 0.979 . S
C328 H354 0.977 . S
C329 C325 1.684 . S
C329 H355 0.979 . S
C329 H356 0.980 . S
C329 H357 0.983 . S
C330 H306 0.948 . S
C330 C331 1.391 . S
C330 C335 1.391 . S
C331 C330 1.391 . S
C331 C332 1.391 . S
C332 H309 0.947 . S
C332 C331 1.391 . S
C332 C333 1.392 . S
C333 H310 0.948 . S
C333 C332 1.392 . S
C333 C334 1.419 . S
C334 C333 1.419 . S
C334 C335 1.391 . S
C334 C338 1.397 . S
C335 C330 1.391 . S
C335 C334 1.391 . S
C335 C336 1.399 . S
C336 C335 1.399 . S
C336 C337 1.396 . S
C336 C339 1.453 . S
C336 C340 1.684 . S
C337 C327 1.723 . S
C337 C336 1.396 . S
C337 C338 1.394 . S
C338 C308 1.723 . S
C338 C334 1.397 . S
C338 C337 1.394 . S
C339 H311 0.982 . S
C339 H315 0.979 . S
C339 H316 0.977 . S
C339 C336 1.453 . S
C340 H312 0.979 . S
C340 H313 0.980 . S
C340 H314 0.983 . S
C340 C336 1.684 . S
H341 C359 0.948 . S
H342 C300 0.948 . S
H343 C318 0.979 . S
H344 C318 0.980 . S
H345 C318 0.983 . S
H346 C317 0.982 . S
H347 C317 0.979 . S
H348 C317 0.977 . S
H349 C319 0.948 . S
H350 C321 0.947 . S
H351 C322 0.948 . S
H352 C328 0.982 . S
H353 C328 0.979 . S
H354 C328 0.977 . S
H355 C329 0.979 . S
H356 C329 0.980 . S
H357 C329 0.983 . S
H358 C302 0.947 . S
C359 C302 1.392 . S
C359 C303 1.419 . S
C359 H341 0.948 . S
C360 C361 1.391 . S
C360 C364 1.391 . S
C360 H402 0.948 . S
C361 C360 1.391 . S
C361 C362 1.391 . S
C362 C361 1.391 . S
C362 H418 0.947 . S
C362 C419 1.392 . S
C363 C364 1.391 . S
C363 C367 1.397 . S
C363 C419 1.419 . S
C364 C360 1.391 . S
C364 C363 1.391 . S
C364 C365 1.399 . S
C365 C364 1.399 . S
C365 C368 1.396 . S
C365 C377 1.453 . S
C365 C378 1.684 . S
H366 C390 0.948 . S
C367 C363 1.397 . S
C367 C368 1.394 . S
C367 C386 1.723 . S
C368 C365 1.396 . S
C368 C367 1.394 . S
C368 C398 1.723 . S
H369 C392 0.947 . S
H370 C393 0.948 . S
H371 C399 0.982 . S
H372 C400 0.979 . S
H373 C400 0.980 . S
H374 C400 0.983 . S
H375 C399 0.979 . S
H376 C399 0.977 . S
C377 C365 1.453 . S
C377 H406 0.982 . S
C377 H407 0.979 . S
C377 H408 0.977 . S
C378 C365 1.684 . S
C378 H403 0.979 . S
C378 H404 0.980 . S
C378 H405 0.983 . S
C379 C380 1.391 . S
C379 C384 1.391 . S
C379 H409 0.948 . S
C380 C379 1.391 . S
C380 C381 1.391 . S
C381 C380 1.391 . S
C381 C382 1.392 . S
C381 H410 0.947 . S
C382 C381 1.392 . S
C382 C383 1.419 . S
C382 H411 0.948 . S
C383 C382 1.419 . S
C383 C384 1.391 . S
C383 C387 1.397 . S
C384 C379 1.391 . S
C384 C383 1.391 . S
C384 C385 1.399 . S
C385 C384 1.399 . S
C385 C386 1.396 . S
C385 C388 1.453 . S
C385 C389 1.684 . S
C386 C367 1.723 . S
C386 C385 1.396 . S
C386 C387 1.394 . S
C387 C383 1.397 . S
C387 C386 1.394 . S
C387 C397 1.723 . S
C388 C385 1.453 . S
C388 H412 0.982 . S
C388 H413 0.979 . S
C388 H414 0.977 . S
C389 C385 1.684 . S
C389 H415 0.979 . S
C389 H416 0.980 . S
C389 H417 0.983 . S
C390 H366 0.948 . S
C390 C391 1.391 . S
C390 C395 1.391 . S
C391 C390 1.391 . S
C391 C392 1.391 . S
C392 H369 0.947 . S
C392 C391 1.391 . S
C392 C393 1.392 . S
C393 H370 0.948 . S
C393 C392 1.392 . S
C393 C394 1.419 . S
C394 C393 1.419 . S
C394 C395 1.391 . S
C394 C398 1.397 . S
C395 C390 1.391 . S
C395 C394 1.391 . S
C395 C396 1.399 . S
C396 C395 1.399 . S
C396 C397 1.396 . S
C396 C399 1.453 . S
C396 C400 1.684 . S
C397 C387 1.723 . S
C397 C396 1.396 . S
C397 C398 1.394 . S
C398 C368 1.723 . S
C398 C394 1.397 . S
C398 C397 1.394 . S
C399 H371 0.982 . S
C399 H375 0.979 . S
C399 H376 0.977 . S
C399 C396 1.453 . S
C400 H372 0.979 . S
C400 H373 0.980 . S
C400 H374 0.983 . S
C400 C396 1.684 . S
H401 C419 0.948 . S
H402 C360 0.948 . S
H403 C378 0.979 . S
H404 C378 0.980 . S
H405 C378 0.983 . S
H406 C377 0.982 . S
H407 C377 0.979 . S
H408 C377 0.977 . S
H409 C379 0.948 . S
H410 C381 0.947 . S
H411 C382 0.948 . S
H412 C388 0.982 . S
H413 C388 0.979 . S
H414 C388 0.977 . S
H415 C389 0.979 . S
H416 C389 0.980 . S
H417 C389 0.983 . S
H418 C362 0.947 . S
C419 C362 1.392 . S
C419 C363 1.419 . S
C419 H401 0.948 . S
C420 C421 1.391 . S
C420 C424 1.391 . S
C420 H462 0.948 . S
C421 C420 1.391 . S
C421 C422 1.391 . S
C422 C421 1.391 . S
C422 H478 0.947 . S
C422 C479 1.392 . S
C423 C424 1.391 . S
C423 C427 1.397 . S
C423 C479 1.419 . S
C424 C420 1.391 . S
C424 C423 1.391 . S
C424 C425 1.399 . S
C425 C424 1.399 . S
C425 C428 1.396 . S
C425 C437 1.453 . S
C425 C438 1.684 . S
H426 C450 0.948 . S
C427 C423 1.397 . S
C427 C428 1.394 . S
C427 C446 1.723 . S
C428 C425 1.396 . S
C428 C427 1.394 . S
C428 C458 1.723 . S
H429 C452 0.947 . S
H430 C453 0.948 . S
H431 C459 0.982 . S
H432 C460 0.979 . S
H433 C460 0.980 . S
H434 C460 0.983 . S
H435 C459 0.979 . S
H436 C459 0.977 . S
C437 C425 1.453 . S
C437 H466 0.982 . S
C437 H467 0.979 . S
C437 H468 0.977 . S
C438 C425 1.684 . S
C438 H463 0.979 . S
C438 H464 0.980 . S
C438 H465 0.983 . S
C439 C440 1.391 . S
C439 C444 1.391 . S
C439 H469 0.948 . S
C440 C439 1.391 . S
C440 C441 1.391 . S
C441 C440 1.391 . S
C441 C442 1.392 . S
C441 H470 0.947 . S
C442 C441 1.392 . S
C442 C443 1.419 . S
C442 H471 0.948 . S
C443 C442 1.419 . S
C443 C444 1.391 . S
C443 C447 1.397 . S
C444 C439 1.391 . S
C444 C443 1.391 . S
C444 C445 1.399 . S
C445 C444 1.399 . S
C445 C446 1.396 . S
C445 C448 1.453 . S
C445 C449 1.684 . S
C446 C427 1.723 . S
C446 C445 1.396 . S
C446 C447 1.394 . S
C447 C443 1.397 . S
C447 C446 1.394 . S
C447 C457 1.723 . S
C448 C445 1.453 . S
C448 H472 0.982 . S
C448 H473 0.979 . S
C448 H474 0.977 . S
C449 C445 1.684 . S
C449 H475 0.979 . S
C449 H476 0.980 . S
C449 H477 0.983 . S
C450 H426 0.948 . S
C450 C451 1.391 . S
C450 C455 1.391 . S
C451 C450 1.391 . S
C451 C452 1.391 . S
C452 H429 0.947 . S
C452 C451 1.391 . S
C452 C453 1.392 . S
C453 H430 0.948 . S
C453 C452 1.392 . S
C453 C454 1.419 . S
C454 C453 1.419 . S
C454 C455 1.391 . S
C454 C458 1.397 . S
C455 C450 1.391 . S
C455 C454 1.391 . S
C455 C456 1.399 . S
C456 C455 1.399 . S
C456 C457 1.396 . S
C456 C459 1.453 . S
C456 C460 1.684 . S
C457 C447 1.723 . S
C457 C456 1.396 . S
C457 C458 1.394 . S
C458 C428 1.723 . S
C458 C454 1.397 . S
C458 C457 1.394 . S
C459 H431 0.982 . S
C459 H435 0.979 . S
C459 H436 0.977 . S
C459 C456 1.453 . S
C460 H432 0.979 . S
C460 H433 0.980 . S
C460 H434 0.983 . S
C460 C456 1.684 . S
H461 C479 0.948 . S
H462 C420 0.948 . S
H463 C438 0.979 . S
H464 C438 0.980 . S
H465 C438 0.983 . S
H466 C437 0.982 . S
H467 C437 0.979 . S
H468 C437 0.977 . S
H469 C439 0.948 . S
H470 C441 0.947 . S
H471 C442 0.948 . S
H472 C448 0.982 . S
H473 C448 0.979 . S
H474 C448 0.977 . S
H475 C449 0.979 . S
H476 C449 0.980 . S
H477 C449 0.983 . S
H478 C422 0.947 . S
C479 C422 1.392 . S
C479 C423 1.419 . S
C479 H461 0.948 . S
Nd480 C482 2.836 . S
Nd480 O500 2.500 . S
Nd480 O501 2.492 . S
Nd480 O502 2.487 1_565 S
Nd480 O503 2.682 1_565 S
Nd480 O504 2.410 . S
Nd480 O509 2.414 1_455 S
Nd480 O511 2.424 1_565 S
Nd481 C491 2.836 . S
Nd481 O503 2.414 1_655 S
Nd481 O505 2.424 1_545 S
Nd481 O506 2.500 . S
Nd481 O507 2.492 . S
Nd481 O508 2.487 1_545 S
Nd481 O509 2.682 1_545 S
Nd481 O510 2.410 . S
C482 Nd480 2.836 . S
C482 C483 1.498 . S
C482 O500 1.258 . S
C482 O501 1.239 . S
C483 C482 1.498 . S
C483 C484 1.366 . S
C483 C488 1.407 . S
C484 C483 1.366 . S
C484 C485 1.392 . S
C484 H512 0.930 . S
C485 C484 1.392 . S
C485 C486 1.398 . S
C485 H513 0.929 . S
C486 C485 1.398 . S
C486 C487 1.352 . S
C487 C486 1.352 . S
C487 C488 1.384 . S
C487 H514 0.930 . S
C488 C483 1.407 . S
C488 C487 1.384 . S
C488 H515 0.929 . S
C489 O502 1.241 . S
C489 O503 1.273 . S
C490 O504 1.251 1_655 S
C490 O505 1.268 . S
C491 Nd481 2.836 . S
C491 C492 1.498 . S
C491 O506 1.258 . S
C491 O507 1.239 . S
C492 C491 1.498 . S
C492 C493 1.366 . S
C492 C497 1.407 . S
C493 C492 1.366 . S
C493 C494 1.392 . S
C493 H516 0.930 . S
C494 C493 1.392 . S
C494 C495 1.398 . S
C494 H517 0.929 . S
C495 C494 1.398 . S
C495 C496 1.352 . S
C496 C495 1.352 . S
C496 C497 1.384 . S
C496 H518 0.930 . S
C497 C492 1.407 . S
C497 C496 1.384 . S
C497 H519 0.929 . S
C498 O508 1.241 . S
C498 O509 1.273 . S
C499 O510 1.251 1_455 S
C499 O511 1.268 . S
O500 Nd480 2.500 . S
O500 C482 1.258 . S
O501 Nd480 2.492 . S
O501 C482 1.239 . S
O502 Nd480 2.487 1_545 S
O502 C489 1.241 . S
O503 Nd480 2.682 1_545 S
O503 Nd481 2.414 1_455 S
O503 C489 1.273 . S
O504 Nd480 2.410 . S
O504 C490 1.251 1_455 S
O505 Nd481 2.424 1_565 S
O505 C490 1.268 . S
O506 Nd481 2.500 . S
O506 C491 1.258 . S
O507 Nd481 2.492 . S
O507 C491 1.239 . S
O508 Nd481 2.487 1_565 S
O508 C498 1.241 . S
O509 Nd480 2.414 1_655 S
O509 Nd481 2.682 1_565 S
O509 C498 1.273 . S
O510 Nd481 2.410 . S
O510 C499 1.251 1_655 S
O511 Nd480 2.424 1_545 S
O511 C499 1.268 . S
H512 C484 0.930 . S
H513 C485 0.929 . S
H514 C487 0.930 . S
H515 C488 0.929 . S
H516 C493 0.930 . S
H517 C494 0.929 . S
H518 C496 0.930 . S
H519 C497 0.929 . S
Nd520 C522 2.836 . S
Nd520 O540 2.500 . S
Nd520 O541 2.492 . S
Nd520 O542 2.487 1_565 S
Nd520 O543 2.682 1_565 S
Nd520 O544 2.410 1_554 S
Nd520 O549 2.414 1_554 S
Nd520 O551 2.424 1_565 S
Nd521 C531 2.836 . S
Nd521 O543 2.414 1_556 S
Nd521 O545 2.424 1_545 S
Nd521 O546 2.500 . S
Nd521 O547 2.492 . S
Nd521 O548 2.487 1_545 S
Nd521 O549 2.682 1_545 S
Nd521 O550 2.410 1_556 S
C522 Nd520 2.836 . S
C522 C523 1.498 . S
C522 O540 1.258 . S
C522 O541 1.239 . S
C523 C522 1.498 . S
C523 C524 1.366 . S
C523 C528 1.407 . S
C524 C523 1.366 . S
C524 C525 1.392 . S
C524 H552 0.930 . S
C525 C524 1.392 . S
C525 C526 1.398 . S
C525 H553 0.929 . S
C526 C525 1.398 . S
C526 C527 1.352 . S
C527 C526 1.352 . S
C527 C528 1.384 . S
C527 H554 0.930 . S
C528 C523 1.407 . S
C528 C527 1.384 . S
C528 H555 0.929 . S
C529 O542 1.241 . S
C529 O543 1.273 . S
C530 O544 1.251 . S
C530 O545 1.268 . S
C531 Nd521 2.836 . S
C531 C532 1.498 . S
C531 O546 1.258 . S
C531 O547 1.239 . S
C532 C531 1.498 . S
C532 C533 1.366 . S
C532 C537 1.407 . S
C533 C532 1.366 . S
C533 C534 1.392 . S
C533 H556 0.930 . S
C534 C533 1.392 . S
C534 C535 1.398 . S
C534 H557 0.929 . S
C535 C534 1.398 . S
C535 C536 1.352 . S
C536 C535 1.352 . S
C536 C537 1.384 . S
C536 H558 0.930 . S
C537 C532 1.407 . S
C537 C536 1.384 . S
C537 H559 0.929 . S
C538 O548 1.241 . S
C538 O549 1.273 . S
C539 O550 1.251 . S
C539 O551 1.268 . S
O540 Nd520 2.500 . S
O540 C522 1.258 . S
O541 Nd520 2.492 . S
O541 C522 1.239 . S
O542 Nd520 2.487 1_545 S
O542 C529 1.241 . S
O543 Nd520 2.682 1_545 S
O543 Nd521 2.414 1_554 S
O543 C529 1.273 . S
O544 Nd520 2.410 1_556 S
O544 C530 1.251 . S
O545 Nd521 2.424 1_565 S
O545 C530 1.268 . S
O546 Nd521 2.500 . S
O546 C531 1.258 . S
O547 Nd521 2.492 . S
O547 C531 1.239 . S
O548 Nd521 2.487 1_565 S
O548 C538 1.241 . S
O549 Nd520 2.414 1_556 S
O549 Nd521 2.682 1_565 S
O549 C538 1.273 . S
O550 Nd521 2.410 1_554 S
O550 C539 1.251 . S
O551 Nd520 2.424 1_545 S
O551 C539 1.268 . S
H552 C524 0.930 . S
H553 C525 0.929 . S
H554 C527 0.930 . S
H555 C528 0.929 . S
H556 C533 0.930 . S
H557 C534 0.929 . S
H558 C536 0.930 . S
H559 C537 0.929 . S
Nd560 C562 2.836 . S
Nd560 O580 2.500 . S
Nd560 O581 2.492 . S
Nd560 O582 2.487 . S
Nd560 O583 2.682 . S
Nd560 O584 2.410 . S
Nd560 O589 2.414 . S
Nd560 O591 2.424 . S
Nd561 C571 2.836 . S
Nd561 O583 2.414 . S
Nd561 O585 2.424 . S
Nd561 O586 2.500 . S
Nd561 O587 2.492 . S
Nd561 O588 2.487 . S
Nd561 O589 2.682 . S
Nd561 O590 2.410 . S
C562 Nd560 2.836 . S
C562 C563 1.498 . S
C562 O580 1.258 . S
C562 O581 1.239 . S
C563 C562 1.498 . S
C563 C564 1.366 . S
C563 C568 1.407 . S
C564 C563 1.366 . S
C564 C565 1.392 . S
C564 H592 0.930 . S
C565 C564 1.392 . S
C565 C566 1.398 . S
C565 H593 0.929 . S
C566 C565 1.398 . S
C566 C567 1.352 . S
C567 C566 1.352 . S
C567 C568 1.384 . S
C567 H594 0.930 . S
C568 C563 1.407 . S
C568 C567 1.384 . S
C568 H595 0.929 . S
C569 O582 1.241 . S
C569 O583 1.273 . S
C570 O584 1.251 . S
C570 O585 1.268 . S
C571 Nd561 2.836 . S
C571 C572 1.498 . S
C571 O586 1.258 . S
C571 O587 1.239 . S
C572 C571 1.498 . S
C572 C573 1.366 . S
C572 C577 1.407 . S
C573 C572 1.366 . S
C573 C574 1.392 . S
C573 H596 0.930 . S
C574 C573 1.392 . S
C574 C575 1.398 . S
C574 H597 0.929 . S
C575 C574 1.398 . S
C575 C576 1.352 . S
C576 C575 1.352 . S
C576 C577 1.384 . S
C576 H598 0.930 . S
C577 C572 1.407 . S
C577 C576 1.384 . S
C577 H599 0.929 . S
C578 O588 1.241 . S
C578 O589 1.273 . S
C579 O590 1.251 . S
C579 O591 1.268 . S
O580 Nd560 2.500 . S
O580 C562 1.258 . S
O581 Nd560 2.492 . S
O581 C562 1.239 . S
O582 Nd560 2.487 . S
O582 C569 1.241 . S
O583 Nd560 2.682 . S
O583 Nd561 2.414 . S
O583 C569 1.273 . S
O584 Nd560 2.410 . S
O584 C570 1.251 . S
O585 Nd561 2.424 . S
O585 C570 1.268 . S
O586 Nd561 2.500 . S
O586 C571 1.258 . S
O587 Nd561 2.492 . S
O587 C571 1.239 . S
O588 Nd561 2.487 . S
O588 C578 1.241 . S
O589 Nd560 2.414 . S
O589 Nd561 2.682 . S
O589 C578 1.273 . S
O590 Nd561 2.410 . S
O590 C579 1.251 . S
O591 Nd560 2.424 . S
O591 C579 1.268 . S
H592 C564 0.930 . S
H593 C565 0.929 . S
H594 C567 0.930 . S
H595 C568 0.929 . S
H596 C573 0.930 . S
H597 C574 0.929 . S
H598 C576 0.930 . S
H599 C577 0.929 . S
Nd600 C602 2.836 . S
Nd600 O620 2.500 . S
Nd600 O621 2.492 . S
Nd600 O622 2.487 1_655 S
Nd600 O623 2.682 1_655 S
Nd600 O624 2.410 . S
Nd600 O629 2.414 1_554 S
Nd600 O631 2.424 1_655 S
Nd601 C611 2.836 . S
Nd601 O623 2.414 1_556 S
Nd601 O625 2.424 1_455 S
Nd601 O626 2.500 . S
Nd601 O627 2.492 . S
Nd601 O628 2.487 1_455 S
Nd601 O629 2.682 1_455 S
Nd601 O630 2.410 . S
C602 Nd600 2.836 . S
C602 C603 1.498 . S
C602 O620 1.258 . S
C602 O621 1.239 . S
C603 C602 1.498 . S
C603 C604 1.366 . S
C603 C608 1.407 . S
C604 C603 1.366 . S
C604 C605 1.392 . S
C604 H632 0.930 . S
C605 C604 1.392 . S
C605 C606 1.398 . S
C605 H633 0.929 . S
C606 C605 1.398 . S
C606 C607 1.352 . S
C607 C606 1.352 . S
C607 C608 1.384 . S
C607 H634 0.930 . S
C608 C603 1.407 . S
C608 C607 1.384 . S
C608 H635 0.929 . S
C609 O622 1.241 . S
C609 O623 1.273 . S
C610 O624 1.251 1_556 S
C610 O625 1.268 . S
C611 Nd601 2.836 . S
C611 C612 1.498 . S
C611 O626 1.258 . S
C611 O627 1.239 . S
C612 C611 1.498 . S
C612 C613 1.366 . S
C612 C617 1.407 . S
C613 C612 1.366 . S
C613 C614 1.392 . S
C613 H636 0.930 . S
C614 C613 1.392 . S
C614 C615 1.398 . S
C614 H637 0.929 . S
C615 C614 1.398 . S
C615 C616 1.352 . S
C616 C615 1.352 . S
C616 C617 1.384 . S
C616 H638 0.930 . S
C617 C612 1.407 . S
C617 C616 1.384 . S
C617 H639 0.929 . S
C618 O628 1.241 . S
C618 O629 1.273 . S
C619 O630 1.251 1_554 S
C619 O631 1.268 . S
O620 Nd600 2.500 . S
O620 C602 1.258 . S
O621 Nd600 2.492 . S
O621 C602 1.239 . S
O622 Nd600 2.487 1_455 S
O622 C609 1.241 . S
O623 Nd600 2.682 1_455 S
O623 Nd601 2.414 1_554 S
O623 C609 1.273 . S
O624 Nd600 2.410 . S
O624 C610 1.251 1_554 S
O625 Nd601 2.424 1_655 S
O625 C610 1.268 . S
O626 Nd601 2.500 . S
O626 C611 1.258 . S
O627 Nd601 2.492 . S
O627 C611 1.239 . S
O628 Nd601 2.487 1_655 S
O628 C618 1.241 . S
O629 Nd600 2.414 1_556 S
O629 Nd601 2.682 1_655 S
O629 C618 1.273 . S
O630 Nd601 2.410 . S
O630 C619 1.251 1_556 S
O631 Nd600 2.424 1_455 S
O631 C619 1.268 . S
H632 C604 0.930 . S
H633 C605 0.929 . S
H634 C607 0.930 . S
H635 C608 0.929 . S
H636 C613 0.930 . S
H637 C614 0.929 . S
H638 C616 0.930 . S
H639 C617 0.929 . S
H640 C646 0.930 . S
H641 C650 0.930 . S
H642 C655 0.929 . S
H643 C653 0.929 . S
H644 C648 0.929 . S
H645 C654 0.929 . S
C646 H640 0.930 . S
C646 C647 1.367 . S
C646 C654 1.378 . S
C647 C646 1.367 . S
C647 C655 1.433 . S
C648 H644 0.929 . S
C648 C650 1.378 . S
C648 C652 1.350 . S
C649 C652 1.463 . S
C649 C654 1.350 . S
C649 N657 1.427 . S
C650 H641 0.930 . S
C650 C648 1.378 . S
C650 C651 1.367 . S
C651 C650 1.367 . S
C651 C653 1.433 . S
C652 C648 1.350 . S
C652 C649 1.463 . S
C652 N656 1.427 . S
C653 H643 0.929 . S
C653 C651 1.433 . S
C653 N656 1.384 . S
C654 H645 0.929 . S
C654 C646 1.378 . S
C654 C649 1.350 . S
C655 H642 0.929 . S
C655 C647 1.433 . S
C655 N657 1.384 . S
N656 C652 1.427 . S
N656 C653 1.384 . S
N657 C649 1.427 . S
N657 C655 1.384 . S
H658 C664 0.930 . S
H659 C668 0.930 . S
H660 C673 0.929 . S
H661 C671 0.929 . S
H662 C666 0.929 . S
H663 C672 0.929 . S
C664 H658 0.930 . S
C664 C665 1.367 . S
C664 C672 1.378 . S
C665 C664 1.367 . S
C665 C673 1.433 . S
C666 H662 0.929 . S
C666 C668 1.378 . S
C666 C670 1.350 . S
C667 C670 1.463 . S
C667 C672 1.350 . S
C667 N675 1.427 . S
C668 H659 0.930 . S
C668 C666 1.378 . S
C668 C669 1.367 . S
C669 C668 1.367 . S
C669 C671 1.433 . S
C670 C666 1.350 . S
C670 C667 1.463 . S
C670 N674 1.427 . S
C671 H661 0.929 . S
C671 C669 1.433 . S
C671 N674 1.384 . S
C672 H663 0.929 . S
C672 C664 1.378 . S
C672 C667 1.350 . S
C673 H660 0.929 . S
C673 C665 1.433 . S
C673 N675 1.384 . S
N674 C670 1.427 . S
N674 C671 1.384 . S
N675 C667 1.427 . S
N675 C673 1.384 . S
H676 C682 0.930 . S
H677 C686 0.930 . S
H678 C691 0.929 . S
H679 C689 0.929 . S
H680 C684 0.929 . S
H681 C690 0.929 . S
C682 H676 0.930 . S
C682 C683 1.367 . S
C682 C690 1.378 . S
C683 C682 1.367 . S
C683 C691 1.433 . S
C684 H680 0.929 . S
C684 C686 1.378 . S
C684 C688 1.350 . S
C685 C688 1.463 . S
C685 C690 1.350 . S
C685 N693 1.427 . S
C686 H677 0.930 . S
C686 C684 1.378 . S
C686 C687 1.367 . S
C687 C686 1.367 . S
C687 C689 1.433 . S
C688 C684 1.350 . S
C688 C685 1.463 . S
C688 N692 1.427 . S
C689 H679 0.929 . S
C689 C687 1.433 . S
C689 N692 1.384 . S
C690 H681 0.929 . S
C690 C682 1.378 . S
C690 C685 1.350 . S
C691 H678 0.929 . S
C691 C683 1.433 . S
C691 N693 1.384 . S
N692 C688 1.427 . S
N692 C689 1.384 . S
N693 C685 1.427 . S
N693 C691 1.384 . S
H694 C700 0.930 . S
H695 C704 0.930 . S
H696 C709 0.929 . S
H697 C707 0.929 . S
H698 C702 0.929 . S
H699 C708 0.929 . S
C700 H694 0.930 . S
C700 C701 1.367 . S
C700 C708 1.378 . S
C701 C700 1.367 . S
C701 C709 1.433 . S
C702 H698 0.929 . S
C702 C704 1.378 . S
C702 C706 1.350 . S
C703 C706 1.463 . S
C703 C708 1.350 . S
C703 N711 1.427 . S
C704 H695 0.930 . S
C704 C702 1.378 . S
C704 C705 1.367 . S
C705 C704 1.367 . S
C705 C707 1.433 . S
C706 C702 1.350 . S
C706 C703 1.463 . S
C706 N710 1.427 . S
C707 H697 0.929 . S
C707 C705 1.433 . S
C707 N710 1.384 . S
C708 H699 0.929 . S
C708 C700 1.378 . S
C708 C703 1.350 . S
C709 H696 0.929 . S
C709 C701 1.433 . S
C709 N711 1.384 . S
N710 C706 1.427 . S
N710 C707 1.384 . S
N711 C703 1.427 . S
N711 C709 1.384 . S
H712 C718 0.930 . S
H713 C722 0.930 . S
H714 C727 0.929 . S
H715 C725 0.929 . S
H716 C720 0.929 . S
H717 C726 0.929 . S
C718 H712 0.930 . S
C718 C719 1.367 . S
C718 C726 1.378 . S
C719 C718 1.367 . S
C719 C727 1.433 . S
C720 H716 0.929 . S
C720 C722 1.378 . S
C720 C724 1.350 . S
C721 C724 1.463 . S
C721 C726 1.350 . S
C721 N729 1.427 . S
C722 H713 0.930 . S
C722 C720 1.378 . S
C722 C723 1.367 . S
C723 C722 1.367 . S
C723 C725 1.433 . S
C724 C720 1.350 . S
C724 C721 1.463 . S
C724 N728 1.427 . S
C725 H715 0.929 . S
C725 C723 1.433 . S
C725 N728 1.384 . S
C726 H717 0.929 . S
C726 C718 1.378 . S
C726 C721 1.350 . S
C727 H714 0.929 . S
C727 C719 1.433 . S
C727 N729 1.384 . S
N728 C724 1.427 . S
N728 C725 1.384 . S
N729 C721 1.427 . S
N729 C727 1.384 . S
H730 C736 0.930 . S
H731 C740 0.930 . S
H732 C745 0.929 . S
H733 C743 0.929 . S
H734 C738 0.929 . S
H735 C744 0.929 . S
C736 H730 0.930 . S
C736 C737 1.367 . S
C736 C744 1.378 . S
C737 C736 1.367 . S
C737 C745 1.433 . S
C738 H734 0.929 . S
C738 C740 1.378 . S
C738 C742 1.350 . S
C739 C742 1.463 . S
C739 C744 1.350 . S
C739 N747 1.427 . S
C740 H731 0.930 . S
C740 C738 1.378 . S
C740 C741 1.367 . S
C741 C740 1.367 . S
C741 C743 1.433 . S
C742 C738 1.350 . S
C742 C739 1.463 . S
C742 N746 1.427 . S
C743 H733 0.929 . S
C743 C741 1.433 . S
C743 N746 1.384 . S
C744 H735 0.929 . S
C744 C736 1.378 . S
C744 C739 1.350 . S
C745 H732 0.929 . S
C745 C737 1.433 . S
C745 N747 1.384 . S
N746 C742 1.427 . S
N746 C743 1.384 . S
N747 C739 1.427 . S
N747 C745 1.384 . S
H748 C754 0.930 . S
H749 C758 0.930 . S
H750 C763 0.929 . S
H751 C761 0.929 . S
H752 C756 0.929 . S
H753 C762 0.929 . S
C754 H748 0.930 . S
C754 C755 1.367 . S
C754 C762 1.378 . S
C755 C754 1.367 . S
C755 C763 1.433 . S
C756 H752 0.929 . S
C756 C758 1.378 . S
C756 C760 1.350 . S
C757 C760 1.463 . S
C757 C762 1.350 . S
C757 N765 1.427 . S
C758 H749 0.930 . S
C758 C756 1.378 . S
C758 C759 1.367 . S
C759 C758 1.367 . S
C759 C761 1.433 . S
C760 C756 1.350 . S
C760 C757 1.463 . S
C760 N764 1.427 . S
C761 H751 0.929 . S
C761 C759 1.433 . S
C761 N764 1.384 . S
C762 H753 0.929 . S
C762 C754 1.378 . S
C762 C757 1.350 . S
C763 H750 0.929 . S
C763 C755 1.433 . S
C763 N765 1.384 . S
N764 C760 1.427 . S
N764 C761 1.384 . S
N765 C757 1.427 . S
N765 C763 1.384 . S
H766 C772 0.930 . S
H767 C776 0.930 . S
H768 C781 0.929 . S
H769 C779 0.929 . S
H770 C774 0.929 . S
H771 C780 0.929 . S
C772 H766 0.930 . S
C772 C773 1.367 . S
C772 C780 1.378 . S
C773 C772 1.367 . S
C773 C781 1.433 . S
C774 H770 0.929 . S
C774 C776 1.378 . S
C774 C778 1.350 . S
C775 C778 1.463 . S
C775 C780 1.350 . S
C775 N783 1.427 . S
C776 H767 0.930 . S
C776 C774 1.378 . S
C776 C777 1.367 . S
C777 C776 1.367 . S
C777 C779 1.433 . S
C778 C774 1.350 . S
C778 C775 1.463 . S
C778 N782 1.427 . S
C779 H769 0.929 . S
C779 C777 1.433 . S
C779 N782 1.384 . S
C780 H771 0.929 . S
C780 C772 1.378 . S
C780 C775 1.350 . S
C781 H768 0.929 . S
C781 C773 1.433 . S
C781 N783 1.384 . S
N782 C778 1.427 . S
N782 C779 1.384 . S
N783 C775 1.427 . S
N783 C781 1.384 . S
H784 C790 0.930 . S
H785 C794 0.906 1_556 S
H786 C799 0.929 . S
H787 C797 0.929 . S
H788 C792 0.929 1_556 S
H789 C798 0.929 . S
C790 H784 0.930 . S
C790 C791 1.367 . S
C790 C798 1.378 . S
C791 C790 1.367 . S
C791 C799 1.433 . S
C792 H788 0.929 1_554 S
C792 C794 1.384 . S
C792 C796 1.350 . S
C793 C796 1.463 . S
C793 C798 1.350 . S
C793 N801 1.427 . S
C794 H785 0.906 1_554 S
C794 C792 1.384 . S
C794 C795 1.386 . S
C795 C794 1.386 . S
C795 C797 1.433 . S
C796 C792 1.350 . S
C796 C793 1.463 . S
C796 N800 1.427 . S
C797 H787 0.929 . S
C797 C795 1.433 . S
C797 N800 1.384 . S
C798 H789 0.929 . S
C798 C790 1.378 . S
C798 C793 1.350 . S
C799 H786 0.929 . S
C799 C791 1.433 . S
C799 N801 1.384 . S
N800 C796 1.427 . S
N800 C797 1.384 . S
N801 C793 1.427 . S
N801 C799 1.384 . S
H802 C808 0.930 . S
H803 C812 0.930 . S
H804 C817 0.929 . S
H805 C815 0.929 . S
H806 C810 0.929 . S
H807 C816 0.929 . S
C808 H802 0.930 . S
C808 C809 1.367 . S
C808 C816 1.378 . S
C809 C808 1.367 . S
C809 C817 1.433 . S
C810 H806 0.929 . S
C810 C812 1.378 . S
C810 C814 1.350 . S
C811 C814 1.463 . S
C811 C816 1.350 . S
C811 N819 1.427 . S
C812 H803 0.930 . S
C812 C810 1.378 . S
C812 C813 1.367 . S
C813 C812 1.367 . S
C813 C815 1.433 . S
C814 C810 1.350 . S
C814 C811 1.463 . S
C814 N818 1.427 . S
C815 H805 0.929 . S
C815 C813 1.433 . S
C815 N818 1.384 . S
C816 H807 0.929 . S
C816 C808 1.378 . S
C816 C811 1.350 . S
C817 H804 0.929 . S
C817 C809 1.433 . S
C817 N819 1.384 . S
N818 C814 1.427 . S
N818 C815 1.384 . S
N819 C811 1.427 . S
N819 C817 1.384 . S
H820 C826 0.930 . S
H821 C830 0.930 . S
H822 C835 0.929 . S
H823 C833 0.929 . S
H824 C828 0.929 . S
H825 C834 0.929 . S
C826 H820 0.930 . S
C826 C827 1.367 . S
C826 C834 1.378 . S
C827 C826 1.367 . S
C827 C835 1.433 . S
C828 H824 0.929 . S
C828 C830 1.378 . S
C828 C832 1.350 . S
C829 C832 1.463 . S
C829 C834 1.350 . S
C829 N837 1.427 . S
C830 H821 0.930 . S
C830 C828 1.378 . S
C830 C831 1.367 . S
C831 C830 1.367 . S
C831 C833 1.433 . S
C832 C828 1.350 . S
C832 C829 1.463 . S
C832 N836 1.427 . S
C833 H823 0.929 . S
C833 C831 1.433 . S
C833 N836 1.384 . S
C834 H825 0.929 . S
C834 C826 1.378 . S
C834 C829 1.350 . S
C835 H822 0.929 . S
C835 C827 1.433 . S
C835 N837 1.384 . S
N836 C832 1.427 . S
N836 C833 1.384 . S
N837 C829 1.427 . S
N837 C835 1.384 . S
H838 C844 0.930 . S
H839 C848 0.930 . S
H840 C853 0.929 . S
H841 C851 0.929 . S
H842 C846 0.929 . S
H843 C852 0.929 . S
C844 H838 0.930 . S
C844 C845 1.367 . S
C844 C852 1.378 . S
C845 C844 1.367 . S
C845 C853 1.433 . S
C846 H842 0.929 . S
C846 C848 1.378 . S
C846 C850 1.350 . S
C847 C850 1.463 . S
C847 C852 1.350 . S
C847 N855 1.427 . S
C848 H839 0.930 . S
C848 C846 1.378 . S
C848 C849 1.367 . S
C849 C848 1.367 . S
C849 C851 1.433 . S
C850 C846 1.350 . S
C850 C847 1.463 . S
C850 N854 1.427 . S
C851 H841 0.929 . S
C851 C849 1.433 . S
C851 N854 1.384 . S
C852 H843 0.929 . S
C852 C844 1.378 . S
C852 C847 1.350 . S
C853 H840 0.929 . S
C853 C845 1.433 . S
C853 N855 1.384 . S
N854 C850 1.427 . S
N854 C851 1.384 . S
N855 C847 1.427 . S
N855 C853 1.384 . S
H856 C862 0.930 . S
H857 C866 0.930 . S
H858 C871 0.929 . S
H859 C869 0.929 . S
H860 C864 0.929 . S
H861 C870 0.929 . S
C862 H856 0.930 . S
C862 C863 1.367 . S
C862 C870 1.378 . S
C863 C862 1.367 . S
C863 C871 1.433 . S
C864 H860 0.929 . S
C864 C866 1.378 . S
C864 C868 1.350 . S
C865 C868 1.463 . S
C865 C870 1.350 . S
C865 N873 1.427 . S
C866 H857 0.930 . S
C866 C864 1.378 . S
C866 C867 1.367 . S
C867 C866 1.367 . S
C867 C869 1.433 . S
C868 C864 1.350 . S
C868 C865 1.463 . S
C868 N872 1.427 . S
C869 H859 0.929 . S
C869 C867 1.433 . S
C869 N872 1.384 . S
C870 H861 0.929 . S
C870 C862 1.378 . S
C870 C865 1.350 . S
C871 H858 0.929 . S
C871 C863 1.433 . S
C871 N873 1.384 . S
N872 C868 1.427 . S
N872 C869 1.384 . S
N873 C865 1.427 . S
N873 C871 1.384 . S
H874 C880 0.930 . S
H875 C884 0.930 . S
H876 C889 0.929 . S
H877 C887 0.929 . S
H878 C882 0.929 . S
H879 C888 0.929 . S
C880 H874 0.930 . S
C880 C881 1.367 . S
C880 C888 1.378 . S
C881 C880 1.367 . S
C881 C889 1.433 . S
C882 H878 0.929 . S
C882 C884 1.378 . S
C882 C886 1.350 . S
C883 C886 1.463 . S
C883 C888 1.350 . S
C883 N891 1.427 . S
C884 H875 0.930 . S
C884 C882 1.378 . S
C884 C885 1.367 . S
C885 C884 1.367 . S
C885 C887 1.433 . S
C886 C882 1.350 . S
C886 C883 1.463 . S
C886 N890 1.427 . S
C887 H877 0.929 . S
C887 C885 1.433 . S
C887 N890 1.384 . S
C888 H879 0.929 . S
C888 C880 1.378 . S
C888 C883 1.350 . S
C889 H876 0.929 . S
C889 C881 1.433 . S
C889 N891 1.384 . S
N890 C886 1.427 . S
N890 C887 1.384 . S
N891 C883 1.427 . S
N891 C889 1.384 . S
H892 C898 0.930 . S
H893 C902 0.930 . S
H894 C907 0.929 . S
H895 C905 0.929 . S
H896 C900 0.929 . S
H897 C906 0.929 . S
C898 H892 0.930 . S
C898 C899 1.367 . S
C898 C906 1.378 . S
C899 C898 1.367 . S
C899 C907 1.433 . S
C900 H896 0.929 . S
C900 C902 1.378 . S
C900 C904 1.350 . S
C901 C904 1.463 . S
C901 C906 1.350 . S
C901 N909 1.427 . S
C902 H893 0.930 . S
C902 C900 1.378 . S
C902 C903 1.367 . S
C903 C902 1.367 . S
C903 C905 1.433 . S
C904 C900 1.350 . S
C904 C901 1.463 . S
C904 N908 1.427 . S
C905 H895 0.929 . S
C905 C903 1.433 . S
C905 N908 1.384 . S
C906 H897 0.929 . S
C906 C898 1.378 . S
C906 C901 1.350 . S
C907 H894 0.929 . S
C907 C899 1.433 . S
C907 N909 1.384 . S
N908 C904 1.427 . S
N908 C905 1.384 . S
N909 C901 1.427 . S
N909 C907 1.384 . S
H910 C916 0.930 . S
H911 C920 0.930 . S
H912 C925 0.929 . S
H913 C923 0.929 . S
H914 C918 0.929 . S
H915 C924 0.929 . S
C916 H910 0.930 . S
C916 C917 1.367 . S
C916 C924 1.378 . S
C917 C916 1.367 . S
C917 C925 1.433 . S
C918 H914 0.929 . S
C918 C920 1.378 . S
C918 C922 1.350 . S
C919 C922 1.463 . S
C919 C924 1.350 . S
C919 N927 1.427 . S
C920 H911 0.930 . S
C920 C918 1.378 . S
C920 C921 1.367 . S
C921 C920 1.367 . S
C921 C923 1.433 . S
C922 C918 1.350 . S
C922 C919 1.463 . S
C922 N926 1.427 . S
C923 H913 0.929 . S
C923 C921 1.433 . S
C923 N926 1.384 . S
C924 H915 0.929 . S
C924 C916 1.378 . S
C924 C919 1.350 . S
C925 H912 0.929 . S
C925 C917 1.433 . S
C925 N927 1.384 . S
N926 C922 1.427 . S
N926 C923 1.384 . S
N927 C919 1.427 . S
N927 C925 1.384 . S
H928 C934 0.930 . S
H929 C938 0.930 . S
H930 C943 0.929 . S
H931 C941 0.929 . S
H932 C936 0.929 . S
H933 C942 0.929 . S
C934 H928 0.930 . S
C934 C935 1.367 . S
C934 C942 1.378 . S
C935 C934 1.367 . S
C935 C943 1.433 . S
C936 H932 0.929 . S
C936 C938 1.378 . S
C936 C940 1.350 . S
C937 C940 1.463 . S
C937 C942 1.350 . S
C937 N945 1.427 . S
C938 H929 0.930 . S
C938 C936 1.378 . S
C938 C939 1.367 . S
C939 C938 1.367 . S
C939 C941 1.433 . S
C940 C936 1.350 . S
C940 C937 1.463 . S
C940 N944 1.427 . S
C941 H931 0.929 . S
C941 C939 1.433 . S
C941 N944 1.384 . S
C942 H933 0.929 . S
C942 C934 1.378 . S
C942 C937 1.350 . S
C943 H930 0.929 . S
C943 C935 1.433 . S
C943 N945 1.384 . S
N944 C940 1.427 . S
N944 C941 1.384 . S
N945 C937 1.427 . S
N945 C943 1.384 . S
H946 C952 0.930 . S
H947 C956 0.930 . S
H948 C961 0.929 . S
H949 C959 0.929 . S
H950 C954 0.929 . S
H951 C960 0.929 . S
C952 H946 0.930 . S
C952 C953 1.367 . S
C952 C960 1.378 . S
C953 C952 1.367 . S
C953 C961 1.433 . S
C954 H950 0.929 . S
C954 C956 1.378 . S
C954 C958 1.350 . S
C955 C958 1.463 . S
C955 C960 1.350 . S
C955 N963 1.427 . S
C956 H947 0.930 . S
C956 C954 1.378 . S
C956 C957 1.367 . S
C957 C956 1.367 . S
C957 C959 1.433 . S
C958 C954 1.350 . S
C958 C955 1.463 . S
C958 N962 1.427 . S
C959 H949 0.929 . S
C959 C957 1.433 . S
C959 N962 1.384 . S
C960 H951 0.929 . S
C960 C952 1.378 . S
C960 C955 1.350 . S
C961 H948 0.929 . S
C961 C953 1.433 . S
C961 N963 1.384 . S
N962 C958 1.427 . S
N962 C959 1.384 . S
N963 C955 1.427 . S
N963 C961 1.384 . S
H964 C970 0.930 . S
H965 C974 0.930 . S
H966 C979 0.929 . S
H967 C977 0.929 1_556 S
H968 C972 0.929 . S
H969 C978 0.929 . S
C970 H964 0.930 . S
C970 C971 1.367 . S
C970 C978 1.378 . S
C971 C970 1.367 . S
C971 C979 1.433 . S
C972 H968 0.929 . S
C972 C974 1.378 . S
C972 C976 1.350 . S
C973 C976 1.463 . S
C973 C978 1.350 . S
C973 N981 1.427 . S
C974 H965 0.930 . S
C974 C972 1.378 . S
C974 C975 1.367 . S
C975 C974 1.367 . S
C975 C977 1.433 . S
C976 C972 1.350 . S
C976 C973 1.463 . S
C976 N980 1.427 . S
C977 H967 0.929 1_554 S
C977 C975 1.433 . S
C977 N980 1.384 . S
C978 H969 0.929 . S
C978 C970 1.378 . S
C978 C973 1.350 . S
C979 H966 0.929 . S
C979 C971 1.433 . S
C979 N981 1.384 . S
N980 C976 1.427 . S
N980 C977 1.384 . S
N981 C973 1.427 . S
N981 C979 1.384 . S
H982 C988 0.930 . S
H983 C992 0.930 . S
H984 C997 0.929 . S
H985 C995 0.929 . S
H986 C990 0.929 . S
H987 C996 0.929 . S
C988 H982 0.930 . S
C988 C989 1.367 . S
C988 C996 1.378 . S
C989 C988 1.367 . S
C989 C997 1.433 . S
C990 H986 0.929 . S
C990 C992 1.378 . S
C990 C994 1.350 . S
C991 C994 1.463 . S
C991 C996 1.350 . S
C991 N999 1.427 . S
C992 H983 0.930 . S
C992 C990 1.378 . S
C992 C993 1.367 . S
C993 C992 1.367 . S
C993 C995 1.433 . S
C994 C990 1.350 . S
C994 C991 1.463 . S
C994 N998 1.427 . S
C995 H985 0.929 . S
C995 C993 1.433 . S
C995 N998 1.384 . S
C996 H987 0.929 . S
C996 C988 1.378 . S
C996 C991 1.350 . S
C997 H984 0.929 . S
C997 C989 1.433 . S
C997 N999 1.384 . S
N998 C994 1.427 . S
N998 C995 1.384 . S
N999 C991 1.427 . S
N999 C997 1.384 . S
H1000 C1006 0.930 . S
H1001 C1010 0.930 . S
H1002 C1015 0.929 . S
H1003 C1013 0.929 1_554 S
H1004 C1008 0.929 . S
H1005 C1014 0.929 . S
C1006 H1000 0.930 . S
C1006 C1007 1.367 . S
C1006 C1014 1.378 . S
C1007 C1006 1.367 . S
C1007 C1015 1.433 . S
C1008 H1004 0.929 . S
C1008 C1010 1.378 . S
C1008 C1012 1.350 . S
C1009 C1012 1.463 . S
C1009 C1014 1.350 . S
C1009 N1017 1.427 . S
C1010 H1001 0.930 . S
C1010 C1008 1.378 . S
C1010 C1011 1.367 . S
C1011 C1010 1.367 . S
C1011 C1013 1.433 . S
C1012 C1008 1.350 . S
C1012 C1009 1.463 . S
C1012 N1016 1.427 . S
C1013 H1003 0.929 1_556 S
C1013 C1011 1.433 . S
C1013 N1016 1.384 . S
C1014 H1005 0.929 . S
C1014 C1006 1.378 . S
C1014 C1009 1.350 . S
C1015 H1002 0.929 . S
C1015 C1007 1.433 . S
C1015 N1017 1.384 . S
N1016 C1012 1.427 . S
N1016 C1013 1.384 . S
N1017 C1009 1.427 . S
N1017 C1015 1.384 . S
H1018 C1024 0.930 . S
H1019 C1028 0.930 . S
H1020 C1033 0.929 . S
H1021 C1031 0.929 . S
H1022 C1026 0.929 . S
H1023 C1032 0.929 . S
C1024 H1018 0.930 . S
C1024 C1025 1.367 . S
C1024 C1032 1.378 . S
C1025 C1024 1.367 . S
C1025 C1033 1.433 . S
C1026 H1022 0.929 . S
C1026 C1028 1.378 . S
C1026 C1030 1.350 . S
C1027 C1030 1.463 . S
C1027 C1032 1.350 . S
C1027 N1035 1.427 . S
C1028 H1019 0.930 . S
C1028 C1026 1.378 . S
C1028 C1029 1.367 . S
C1029 C1028 1.367 . S
C1029 C1031 1.433 . S
C1030 C1026 1.350 . S
C1030 C1027 1.463 . S
C1030 N1034 1.427 . S
C1031 H1021 0.929 . S
C1031 C1029 1.433 . S
C1031 N1034 1.384 . S
C1032 H1023 0.929 . S
C1032 C1024 1.378 . S
C1032 C1027 1.350 . S
C1033 H1020 0.929 . S
C1033 C1025 1.433 . S
C1033 N1035 1.384 . S
N1034 C1030 1.427 . S
N1034 C1031 1.384 . S
N1035 C1027 1.427 . S
N1035 C1033 1.384 . S
H1036 C1042 0.930 . S
H1037 C1046 0.930 . S
H1038 C1051 0.929 . S
H1039 C1049 0.929 1_655 S
H1040 C1044 0.929 . S
H1041 C1050 0.929 . S
C1042 H1036 0.930 . S
C1042 C1043 1.367 . S
C1042 C1050 1.378 . S
C1043 C1042 1.367 . S
C1043 C1051 1.433 . S
C1044 H1040 0.929 . S
C1044 C1046 1.378 . S
C1044 C1048 1.350 . S
C1045 C1048 1.463 . S
C1045 C1050 1.350 . S
C1045 N1053 1.427 . S
C1046 H1037 0.930 . S
C1046 C1044 1.378 . S
C1046 C1047 1.367 . S
C1047 C1046 1.367 . S
C1047 C1049 1.433 . S
C1048 C1044 1.350 . S
C1048 C1045 1.463 . S
C1048 N1052 1.427 . S
C1049 H1039 0.929 1_455 S
C1049 C1047 1.433 . S
C1049 N1052 1.384 . S
C1050 H1041 0.929 . S
C1050 C1042 1.378 . S
C1050 C1045 1.350 . S
C1051 H1038 0.929 . S
C1051 C1043 1.433 . S
C1051 N1053 1.384 . S
N1052 C1048 1.427 . S
N1052 C1049 1.384 . S
N1053 C1045 1.427 . S
N1053 C1051 1.384 . S
H1054 C1060 0.930 . S
H1055 C1064 0.930 . S
H1056 C1069 0.929 . S
H1057 C1067 0.929 . S
H1058 C1062 0.929 . S
H1059 C1068 0.929 . S
C1060 H1054 0.930 . S
C1060 C1061 1.367 . S
C1060 C1068 1.378 . S
C1061 C1060 1.367 . S
C1061 C1069 1.433 . S
C1062 H1058 0.929 . S
C1062 C1064 1.378 . S
C1062 C1066 1.350 . S
C1063 C1066 1.463 . S
C1063 C1068 1.350 . S
C1063 N1071 1.427 . S
C1064 H1055 0.930 . S
C1064 C1062 1.378 . S
C1064 C1065 1.367 . S
C1065 C1064 1.367 . S
C1065 C1067 1.433 . S
C1066 C1062 1.350 . S
C1066 C1063 1.463 . S
C1066 N1070 1.427 . S
C1067 H1057 0.929 . S
C1067 C1065 1.433 . S
C1067 N1070 1.384 . S
C1068 H1059 0.929 . S
C1068 C1060 1.378 . S
C1068 C1063 1.350 . S
C1069 H1056 0.929 . S
C1069 C1061 1.433 . S
C1069 N1071 1.384 . S
N1070 C1066 1.427 . S
N1070 C1067 1.384 . S
N1071 C1063 1.427 . S
N1071 C1069 1.384 . S
C647 C1 2.857 . S
C651 C499 2.868 . S
C665 C80 2.476 . S
C669 C530 2.503 . S
C687 C569 1.378 . S
C683 C140 1.394 . S
C701 C211 0.483 . S
C705 C606 0.508 . S
C723 C529 2.809 . S
C719 C31 2.861 . S
C741 C486 1.524 . S
C737 C61 1.474 . S
C759 C618 1.418 . S
C755 C151 1.420 . S
C777 C575 1.046 . S
C773 C200 1.028 . S
C791 C20 2.297 . S
C795 C619 2.298 . S
C813 C535 1.294 . S
C809 C121 1.265 . S
C827 C181 0.544 . S
C831 C498 0.604 . S
C845 C91 2.519 . S
C849 C570 2.548 . S
C867 C490 2.873 . S
C863 C260 2.881 . S
C881 C320 2.475 . S
C885 C539 2.501 . S
C899 C361 1.421 . S
C903 C578 1.379 . S
C917 C451 0.474 . S
C921 C615 0.485 . S
C935 C271 2.890 . S
C939 C538 2.817 . S
C957 C495 1.524 . S
C953 C301 1.474 . S
C975 C609 1.416 . S
C971 C380 1.433 . S
C993 C566 1.058 . S
C989 C440 1.044 . S
C1007 C241 2.247 . S
C1011 C610 2.298 . S
C1029 C526 1.294 . S
C1025 C391 1.272 . S
C1047 C489 0.580 . S
C1043 C421 0.557 . S
C1061 C331 2.527 . S
C1065 C579 2.552 . S
