# Generated by pormake.
# Topology zzz, (3,6)-cn, num edge types: 1
# Building blocks:
#     Node 0, Type 0, BuildingBlock: KAKCAD_clean_linker_0, # of connection points: 3
#     Node 1, Type 0, BuildingBlock: KAKCAD_clean_linker_0, # of connection points: 3
#     Node 2, Type 0, BuildingBlock: KAKCAD_clean_linker_0, # of connection points: 3
#     Node 3, Type 0, BuildingBlock: KAKCAD_clean_linker_0, # of connection points: 3
#     Node 4, Type 0, BuildingBlock: KAKCAD_clean_linker_0, # of connection points: 3
#     Node 5, Type 0, BuildingBlock: KAKCAD_clean_linker_0, # of connection points: 3
#     Node 6, Type 0, BuildingBlock: KAKCAD_clean_linker_0, # of connection points: 3
#     Node 7, Type 0, BuildingBlock: KAKCAD_clean_linker_0, # of connection points: 3
#     Node 8, Type 1, BuildingBlock: GEDQOX_clean_sbu_0, # of connection points: 6
#     Node 9, Type 1, BuildingBlock: GEDQOX_clean_sbu_0, # of connection points: 6
#     Node 10, Type 1, BuildingBlock: GEDQOX_clean_sbu_0, # of connection points: 6
#     Node 11, Type 1, BuildingBlock: GEDQOX_clean_sbu_0, # of connection points: 6
#     Edge 12, Type (0, 1), BuildingBlock: KIFKEQ_clean_linker_1, # of connection points: 2
#     Edge 13, Type (0, 1), BuildingBlock: KIFKEQ_clean_linker_1, # of connection points: 2
#     Edge 14, Type (0, 1), BuildingBlock: KIFKEQ_clean_linker_1, # of connection points: 2
#     Edge 15, Type (0, 1), BuildingBlock: KIFKEQ_clean_linker_1, # of connection points: 2
#     Edge 16, Type (0, 1), BuildingBlock: KIFKEQ_clean_linker_1, # of connection points: 2
#     Edge 17, Type (0, 1), BuildingBlock: KIFKEQ_clean_linker_1, # of connection points: 2
#     Edge 18, Type (0, 1), BuildingBlock: KIFKEQ_clean_linker_1, # of connection points: 2
#     Edge 19, Type (0, 1), BuildingBlock: KIFKEQ_clean_linker_1, # of connection points: 2
#     Edge 20, Type (0, 1), BuildingBlock: KIFKEQ_clean_linker_1, # of connection points: 2
#     Edge 21, Type (0, 1), BuildingBlock: KIFKEQ_clean_linker_1, # of connection points: 2
#     Edge 22, Type (0, 1), BuildingBlock: KIFKEQ_clean_linker_1, # of connection points: 2
#     Edge 23, Type (0, 1), BuildingBlock: KIFKEQ_clean_linker_1, # of connection points: 2
#     Edge 24, Type (0, 1), BuildingBlock: KIFKEQ_clean_linker_1, # of connection points: 2
#     Edge 25, Type (0, 1), BuildingBlock: KIFKEQ_clean_linker_1, # of connection points: 2
#     Edge 26, Type (0, 1), BuildingBlock: KIFKEQ_clean_linker_1, # of connection points: 2
#     Edge 27, Type (0, 1), BuildingBlock: KIFKEQ_clean_linker_1, # of connection points: 2
#     Edge 28, Type (0, 1), BuildingBlock: KIFKEQ_clean_linker_1, # of connection points: 2
#     Edge 29, Type (0, 1), BuildingBlock: KIFKEQ_clean_linker_1, # of connection points: 2
#     Edge 30, Type (0, 1), BuildingBlock: KIFKEQ_clean_linker_1, # of connection points: 2
#     Edge 31, Type (0, 1), BuildingBlock: KIFKEQ_clean_linker_1, # of connection points: 2
#     Edge 32, Type (0, 1), BuildingBlock: KIFKEQ_clean_linker_1, # of connection points: 2
#     Edge 33, Type (0, 1), BuildingBlock: KIFKEQ_clean_linker_1, # of connection points: 2
#     Edge 34, Type (0, 1), BuildingBlock: KIFKEQ_clean_linker_1, # of connection points: 2
#     Edge 35, Type (0, 1), BuildingBlock: KIFKEQ_clean_linker_1, # of connection points: 2
# Relax obj value: 0.305
# Max RMSD: 0.262
# Mean RMSD: 0.198
data_MOF--net-zzz--node1-GEDQOX_clean_sbu_0--node2-KAKCAD_clean_linker_0--edge1-KIFKEQ_clean_linker_1
_symmetry_space_group_name_H-M    P1
_symmetry_Int_Tables_number       1
_symmetry_cell_setting            triclinic
loop_
_symmetry_equiv_pos_as_xyz
'x, y, z'
_cell_length_a     64.016011
_cell_length_b     58.812337
_cell_length_c     22.088388
_cell_angle_alpha  82.385152
_cell_angle_beta   91.515254
_cell_angle_gamma 102.22113
loop_
_atom_site_label
_atom_site_type_symbol
_atom_site_fract_x
_atom_site_fract_y
_atom_site_fract_z
_atom_type_partial_charge
C0 C 0.82672 0.44483 0.96015 0.0
C1 C 0.83541 0.42459 0.97323 0.0
C2 C 0.80913 0.44737 0.99254 0.0
C3 C 0.80008 0.43002 0.03962 0.0
C4 C 0.80797 0.40938 0.05142 0.0
C5 C 0.82526 0.40652 0.01788 0.0
C6 C 0.78438 0.435 0.08095 0.0
C7 C 0.76487 0.43974 0.05857 0.0
C8 C 0.75108 0.44727 0.09643 0.0
C9 C 0.75731 0.45042 0.15691 0.0
C10 C 0.77702 0.44604 0.17953 0.0
C11 C 0.79024 0.43787 0.14142 0.0
C12 C 0.7851 0.45228 0.24014 0.0
C13 C 0.78375 0.47405 0.25766 0.0
C14 C 0.79635 0.43777 0.27769 0.0
C15 C 0.80706 0.44542 0.32963 0.0
C16 C 0.80678 0.46778 0.34513 0.0
C17 C 0.73057 0.45263 0.07211 0.0
C18 C 0.72961 0.46513 0.01358 0.0
C19 C 0.71179 0.44529 0.10722 0.0
C20 C 0.69246 0.4502 0.08419 0.0
C21 C 0.69149 0.46266 0.02561 0.0
C22 C 0.71029 0.47013 0.99064 0.0
C23 C 0.79449 0.48172 0.30956 0.0
H24 H 0.83416 0.45944 0.92736 0.0
H25 H 0.80342 0.46357 0.98337 0.0
H26 H 0.80112 0.39578 0.08767 0.0
H27 H 0.83102 0.39042 0.02842 0.0
H28 H 0.76052 0.43761 0.01157 0.0
H29 H 0.80584 0.43528 0.15735 0.0
H30 H 0.7471 0.45692 0.18586 0.0
H31 H 0.77535 0.48572 0.2295 0.0
H32 H 0.79752 0.42081 0.26566 0.0
H33 H 0.81646 0.43428 0.35577 0.0
H34 H 0.74386 0.47128 0.98569 0.0
H35 H 0.71199 0.4355 0.1523 0.0
H36 H 0.79372 0.49891 0.32078 0.0
H37 H 0.71004 0.47963 0.94522 0.0
H38 H 0.67831 0.44445 0.11258 0.0
C39 C 0.97297 0.7735 0.0592 0.0
C40 C 0.96278 0.79245 0.05838 0.0
C41 C 0.96754 0.75392 0.10328 0.0
C42 C 0.95183 0.75301 0.14731 0.0
C43 C 0.94056 0.77119 0.14367 0.0
C44 C 0.94598 0.79074 0.09957 0.0
C45 C 0.94936 0.73486 0.20123 0.0
C46 C 0.94916 0.71149 0.19496 0.0
C47 C 0.95013 0.69488 0.24639 0.0
C48 C 0.95133 0.70199 0.30528 0.0
C49 C 0.95095 0.72543 0.31173 0.0
C50 C 0.94982 0.74154 0.25972 0.0
C51 C 0.95325 0.73479 0.37092 0.0
C52 C 0.93491 0.73668 0.40158 0.0
C53 C 0.97309 0.74836 0.38538 0.0
C54 C 0.97434 0.765 0.42583 0.0
C55 C 0.95573 0.76844 0.45269 0.0
C56 C 0.95193 0.67102 0.23539 0.0
C57 C 0.93805 0.65953 0.19335 0.0
C58 C 0.96991 0.66206 0.25576 0.0
C59 C 0.97496 0.6433 0.23015 0.0
C60 C 0.96214 0.63337 0.18365 0.0
C61 C 0.94316 0.64099 0.16752 0.0
C62 C 0.93615 0.75322 0.44246 0.0
H63 H 0.98578 0.77425 0.02743 0.0
H64 H 0.97658 0.74022 0.10521 0.0
H65 H 0.92825 0.77078 0.17675 0.0
H66 H 0.9379 0.80513 0.10029 0.0
H67 H 0.94913 0.70643 0.14948 0.0
H68 H 0.95048 0.75977 0.26496 0.0
H69 H 0.95274 0.68958 0.34527 0.0
H70 H 0.91937 0.72676 0.39011 0.0
H71 H 0.98735 0.74765 0.36096 0.0
H72 H 0.98969 0.77643 0.43186 0.0
H73 H 0.924 0.66601 0.17716 0.0
H74 H 0.98098 0.67074 0.28762 0.0
H75 H 0.92155 0.75498 0.46327 0.0
H76 H 0.93279 0.63337 0.13261 0.0
H77 H 0.9897 0.63774 0.24344 0.0
C78 C 0.72302 0.06361 0.93562 0.0
C79 C 0.70791 0.07563 0.95358 0.0
C80 C 0.73826 0.0571 0.97688 0.0
C81 C 0.73904 0.0629 0.0368 0.0
C82 C 0.72539 0.07706 0.05256 0.0
C83 C 0.70989 0.08321 0.0116 0.0
C84 C 0.75223 0.05201 0.08412 0.0
C85 C 0.77188 0.04721 0.06901 0.0
C86 C 0.78297 0.03425 0.11155 0.0
C87 C 0.77456 0.02645 0.17065 0.0
C88 C 0.75507 0.03142 0.18681 0.0
C89 C 0.7441 0.04416 0.14341 0.0
C90 C 0.74487 0.02197 0.24698 0.0
C91 C 0.74088 0.99778 0.26726 0.0
C92 C 0.73657 0.03675 0.28051 0.0
C93 C 0.72365 0.02743 0.33154 0.0
C94 C 0.71856 1.00308 0.34987 0.0
C95 C 0.80288 0.02821 0.09247 0.0
C96 C 0.80307 0.01755 0.03924 0.0
C97 C 0.82196 0.03413 0.12501 0.0
C98 C 0.84108 0.03021 0.10335 0.0
C99 C 0.84131 0.0199 0.0495 0.0
C100 C 0.82207 0.01327 0.01822 0.0
C101 C 0.72772 0.9884 0.31807 0.0
H102 H 0.72231 0.05801 0.89069 0.0
H103 H 0.74843 0.04621 0.96276 0.0
H104 H 0.72596 0.08245 0.0977 0.0
H105 H 0.69857 0.09251 0.02712 0.0
H106 H 0.77856 0.05337 0.02375 0.0
H107 H 0.7285 0.04675 0.1551 0.0
H108 H 0.7829 0.01617 0.20342 0.0
H109 H 0.74694 0.986 0.24187 0.0
H110 H 0.73942 0.05546 0.26574 0.0
H111 H 0.71671 0.03921 0.35463 0.0
H112 H 0.7885 0.01275 0.01355 0.0
H113 H 0.82218 0.04244 0.16602 0.0
H114 H 0.72422 0.96959 0.33145 0.0
H115 H 0.82183 1.00541 0.97647 0.0
H116 H 0.85571 0.03532 0.1285 0.0
C117 C 0.55886 0.72932 0.53 0.0
C118 C 0.57526 0.72181 0.56601 0.0
C119 C 0.56338 0.7496 0.48724 0.0
C120 C 0.58438 0.76272 0.47953 0.0
C121 C 0.60045 0.75623 0.51829 0.0
C122 C 0.59593 0.73615 0.56138 0.0
C123 C 0.59048 0.779 0.4227 0.0
C124 C 0.58334 0.80019 0.40862 0.0
C125 C 0.58881 0.81419 0.35201 0.0
C126 C 0.60053 0.80633 0.30919 0.0
C127 C 0.60639 0.78455 0.3212 0.0
C128 C 0.60202 0.77148 0.37892 0.0
C129 C 0.61283 0.77318 0.27068 0.0
C130 C 0.60128 0.77376 0.21571 0.0
C131 C 0.62738 0.75822 0.28066 0.0
C132 C 0.62846 0.74224 0.23987 0.0
C133 C 0.61492 0.74091 0.18866 0.0
C134 C 0.58068 0.83579 0.33245 0.0
C135 C 0.5587 0.83444 0.32294 0.0
C136 C 0.5951 0.85664 0.31081 0.0
C137 C 0.58783 0.87529 0.27716 0.0
C138 C 0.56598 0.87339 0.26374 0.0
C139 C 0.55142 0.85304 0.28863 0.0
C140 C 0.60231 0.7578 0.17517 0.0
H141 H 0.54279 0.71872 0.53177 0.0
H142 H 0.55082 0.75396 0.45695 0.0
H143 H 0.61682 0.76595 0.51268 0.0
H144 H 0.60887 0.73132 0.58924 0.0
H145 H 0.57363 0.80566 0.44111 0.0
H146 H 0.60598 0.75432 0.38831 0.0
H147 H 0.60382 0.81652 0.26454 0.0
H148 H 0.58979 0.78491 0.20665 0.0
H149 H 0.63681 0.75772 0.32209 0.0
H150 H 0.63874 0.72982 0.25075 0.0
H151 H 0.54731 0.8184 0.33832 0.0
H152 H 0.61214 0.85795 0.3169 0.0
H153 H 0.59154 0.75728 0.13651 0.0
H154 H 0.53446 0.85117 0.27972 0.0
H155 H 0.59949 0.89061 0.25841 0.0
C156 C 0.21929 0.62339 0.66411 0.0
C157 C 0.20901 0.60674 0.71174 0.0
C158 C 0.23586 0.6187 0.63089 0.0
C159 C 0.24298 0.5977 0.64605 0.0
C160 C 0.23425 0.58214 0.69695 0.0
C161 C 0.21734 0.58645 0.72908 0.0
C162 C 0.25621 0.58969 0.60301 0.0
C163 C 0.27576 0.58391 0.6211 0.0
C164 C 0.28656 0.57278 0.58306 0.0
C165 C 0.27708 0.56672 0.52745 0.0
C166 C 0.2572 0.57199 0.50955 0.0
C167 C 0.24738 0.58431 0.54675 0.0
C168 C 0.24566 0.56318 0.45503 0.0
C169 C 0.25644 0.56297 0.40037 0.0
C170 C 0.22336 0.55487 0.4577 0.0
C171 C 0.21202 0.54761 0.40661 0.0
C172 C 0.22266 0.54797 0.35179 0.0
C173 C 0.30725 0.56663 0.603 0.0
C174 C 0.32283 0.58261 0.63072 0.0
C175 C 0.31147 0.54466 0.59544 0.0
C176 C 0.33084 0.53884 0.61511 0.0
C177 C 0.34643 0.55485 0.64271 0.0
C178 C 0.34218 0.5768 0.65033 0.0
C179 C 0.24501 0.55527 0.34918 0.0
H180 H 0.21391 0.63955 0.65036 0.0
H181 H 0.24243 0.63093 0.59159 0.0
H182 H 0.23932 0.56566 0.7088 0.0
H183 H 0.20988 0.57288 0.76448 0.0
H184 H 0.28218 0.58746 0.6656 0.0
H185 H 0.23212 0.58868 0.53361 0.0
H186 H 0.28491 0.55739 0.49895 0.0
H187 H 0.27358 0.56925 0.39669 0.0
H188 H 0.21455 0.55392 0.49947 0.0
H189 H 0.19482 0.54164 0.40994 0.0
H190 H 0.32013 0.59973 0.63685 0.0
H191 H 0.2997 0.53183 0.575 0.0
H192 H 0.25351 0.55565 0.30718 0.0
H193 H 0.35376 0.58945 0.67195 0.0
H194 H 0.33369 0.52189 0.60797 0.0
C195 C 0.06675 0.24246 0.60638 0.0
C196 C 0.07768 0.22407 0.6083 0.0
C197 C 0.0727 0.26262 0.5646 0.0
C198 C 0.08978 0.26486 0.52395 0.0
C199 C 0.10177 0.24724 0.52919 0.0
C200 C 0.09577 0.22701 0.57106 0.0
C201 C 0.09287 0.28378 0.47139 0.0
C202 C 0.08974 0.3061 0.47842 0.0
C203 C 0.08728 0.32235 0.42753 0.0
C204 C 0.08907 0.3165 0.36825 0.0
C205 C 0.09328 0.29444 0.36078 0.0
C206 C 0.0953 0.27839 0.41247 0.0
C207 C 0.09232 0.28567 0.30078 0.0
C208 C 0.07234 0.27885 0.27335 0.0
C209 C 0.10996 0.27797 0.28066 0.0
C210 C 0.10732 0.2622 0.23745 0.0
C211 C 0.08692 0.25353 0.21445 0.0
C212 C 0.08074 0.34411 0.43907 0.0
C213 C 0.06315 0.34215 0.47757 0.0
C214 C 0.09363 0.36638 0.4212 0.0
C215 C 0.08984 0.38609 0.44535 0.0
C216 C 0.07326 0.38358 0.48782 0.0
C217 C 0.05954 0.36163 0.50197 0.0
C218 C 0.06964 0.26282 0.23076 0.0
H219 H 0.05294 0.24078 0.63523 0.0
H220 H 0.06296 0.27571 0.56154 0.0
H221 H 0.11515 0.24861 0.49896 0.0
H222 H 0.10448 0.21308 0.57154 0.0
H223 H 0.08812 0.31047 0.52401 0.0
H224 H 0.09692 0.26085 0.40632 0.0
H225 H 0.08641 0.32853 0.32864 0.0
H226 H 0.05844 0.28418 0.28903 0.0
H227 H 0.12542 0.28263 0.3021 0.0
H228 H 0.1209 0.25526 0.22616 0.0
H229 H 0.05289 0.32519 0.4917 0.0
H230 H 0.10736 0.36826 0.39193 0.0
H231 H 0.05376 0.25657 0.21343 0.0
H232 H 0.0465 0.35935 0.53402 0.0
H233 H 0.1006 0.40293 0.43381 0.0
C234 C 0.31424 0.94798 0.72044 0.0
C235 C 0.33274 0.96357 0.73666 0.0
C236 C 0.30002 0.95581 0.67728 0.0
C237 C 0.30442 0.97917 0.64898 0.0
C238 C 0.3227 0.99474 0.66598 0.0
C239 C 0.33666 0.98707 0.70943 0.0
C240 C 0.29059 0.98752 0.60018 0.0
C241 C 0.26882 0.98578 0.61044 0.0
C242 C 0.25633 0.99618 0.56623 0.0
C243 C 0.2657 1.00781 0.51051 0.0
C244 C 0.28749 1.00914 0.49922 0.0
C245 C 0.29972 0.99893 0.54445 0.0
C246 C 0.29791 0.02096 0.44075 0.0
C247 C 0.28855 0.01614 0.38436 0.0
C248 C 0.31845 0.03533 0.44127 0.0
C249 C 0.33 0.04332 0.38719 0.0
C250 C 0.32125 0.03733 0.33094 0.0
C251 C 0.23394 0.99617 0.5811 0.0
C252 C 0.21984 0.97507 0.60223 0.0
C253 C 0.22723 0.01742 0.5802 0.0
C254 C 0.20705 0.01764 0.60257 0.0
C255 C 0.19303 0.99655 0.62548 0.0
C256 C 0.19954 0.97523 0.62357 0.0
C257 C 0.30011 0.02423 0.32996 0.0
H258 H 0.31092 0.92978 0.7407 0.0
H259 H 0.28597 0.94353 0.66466 0.0
H260 H 0.32633 0.01287 0.64503 0.0
H261 H 0.35096 0.99941 0.72017 0.0
H262 H 0.26185 0.97743 0.65415 0.0
H263 H 0.31651 0.99972 0.53631 0.0
H264 H 0.25614 0.01601 0.47653 0.0
H265 H 0.27273 1.00513 0.38254 0.0
H266 H 0.32597 0.03966 0.48397 0.0
H267 H 0.34624 0.05316 0.39013 0.0
H268 H 0.22469 0.95846 0.60307 0.0
H269 H 0.23798 0.03394 0.56488 0.0
H270 H 0.29272 0.01963 0.28736 0.0
H271 H 0.18905 0.95859 0.63919 0.0
H272 H 0.2028 0.03443 0.60394 0.0
C273 C 0.43845 0.27863 0.08483 0.0
C274 C 0.45913 0.29291 0.08092 0.0
C275 C 0.43332 0.25951 0.13069 0.0
C276 C 0.4488 0.25405 0.1732 0.0
C277 C 0.46996 0.26673 0.16555 0.0
C278 C 0.47508 0.28602 0.11997 0.0
C279 C 0.44194 0.24062 0.23353 0.0
C280 C 0.4502 0.22108 0.25904 0.0
C281 C 0.44548 0.21129 0.32027 0.0
C282 C 0.43418 0.22256 0.35659 0.0
C283 C 0.42647 0.24249 0.33223 0.0
C284 C 0.42924 0.25026 0.26956 0.0
C285 C 0.41892 0.25734 0.3734 0.0
C286 C 0.40956 0.2477 0.43078 0.0
C287 C 0.42372 0.28194 0.35879 0.0
C288 C 0.42065 0.29637 0.40123 0.0
C289 C 0.4132 0.28676 0.46016 0.0
C290 C 0.45316 0.19025 0.34947 0.0
C291 C 0.43936 0.17306 0.38853 0.0
C292 C 0.47459 0.1884 0.34477 0.0
C293 C 0.48229 0.17053 0.3814 0.0
C294 C 0.46871 0.15434 0.42344 0.0
C295 C 0.44704 0.15542 0.42517 0.0
C296 C 0.40708 0.2623 0.47417 0.0
H297 H 0.42587 0.28299 0.05462 0.0
H298 H 0.41684 0.25011 0.13595 0.0
H299 H 0.4821 0.26318 0.19843 0.0
H300 H 0.49116 0.29657 0.11872 0.0
H301 H 0.46009 0.2136 0.2315 0.0
H302 H 0.42295 0.26522 0.24932 0.0
H303 H 0.43263 0.21649 0.40503 0.0
H304 H 0.40507 0.2289 0.44341 0.0
H305 H 0.43145 0.29041 0.31632 0.0
H306 H 0.42594 0.31517 0.38944 0.0
H307 H 0.42268 0.17377 0.39241 0.0
H308 H 0.48563 0.20145 0.31535 0.0
H309 H 0.40127 0.25449 0.51942 0.0
H310 H 0.43608 0.14289 0.45605 0.0
H311 H 0.49908 0.1701 0.37904 0.0
Nd312 Nd 0.00564 1.00267 0.77801 0.0
Nd313 Nd 0.02772 0.01307 0.89475 0.0
C314 C 0.98094 0.99082 0.68513 0.0
C315 C 0.97544 0.96823 0.65917 0.0
C316 C 0.96394 0.94778 0.69376 0.0
C317 C 0.9607 0.92608 0.67168 0.0
C318 C 0.96896 0.92421 0.61464 0.0
C319 C 0.98004 0.94472 0.57944 0.0
C320 C 0.98317 0.96649 0.60137 0.0
C321 C 0.04691 0.99588 0.78352 0.0
C322 C 0.01079 0.95962 0.8787 0.0
C323 C 0.0517 0.03055 0.98424 0.0
C324 C 0.05824 0.05397 1.00511 0.0
C325 C 0.07052 0.07329 0.96838 0.0
C326 C 0.07527 0.09552 0.9882 0.0
C327 C 0.06771 0.09896 0.04498 0.0
C328 C 0.05554 0.07946 0.08154 0.0
C329 C 0.05103 0.05729 0.06207 0.0
C330 C 0.98389 1.00405 0.90183 0.0
C331 C 0.02314 0.05749 0.79257 0.0
O332 O 0.97344 0.99091 0.73976 0.0
O333 O 0.00079 1.00239 0.67806 0.0
O334 O 0.03102 0.9817 0.76221 0.0
O335 O 0.04082 0.01294 0.80111 0.0
O336 O 0.99726 0.96798 0.84055 0.0
O337 O 0.02732 0.97378 0.90023 0.0
O338 O 0.05969 0.02713 0.93308 0.0
O339 O 0.03142 0.02096 0.99012 0.0
O340 O 0.99596 0.99511 0.94216 0.0
O341 O 0.99491 0.01697 0.85887 0.0
O342 O 0.02879 0.05036 0.84848 0.0
O343 O 0.01384 0.04264 0.75526 0.0
H344 H 0.95786 0.94833 0.73872 0.0
H345 H 0.9523 0.91062 0.70026 0.0
H346 H 0.98639 0.94393 0.53498 0.0
H347 H 0.99208 0.98191 0.5737 0.0
H348 H 0.07627 0.07134 0.92408 0.0
H349 H 0.0849 0.10996 0.959 0.0
H350 H 0.04898 0.08132 0.12484 0.0
H351 H 0.04144 0.04275 0.09118 0.0
Nd352 Nd 0.52618 0.99268 0.79938 0.0
Nd353 Nd 0.50887 0.03026 0.86782 0.0
C354 C 0.54139 0.9591 0.7596 0.0
C355 C 0.5587 0.9591 0.71672 0.0
C356 C 0.57384 0.94528 0.73326 0.0
C357 C 0.59128 0.94654 0.69508 0.0
C358 C 0.5938 0.96155 0.63943 0.0
C359 C 0.57841 0.97509 0.62258 0.0
C360 C 0.56112 0.97398 0.66093 0.0
C361 C 0.51753 0.03122 0.72634 0.0
C362 C 0.559 0.04019 0.82805 0.0
C363 C 0.48844 0.06259 0.89182 0.0
C364 C 0.47137 0.06257 0.93522 0.0
C365 C 0.456 0.0761 0.91913 0.0
C366 C 0.4387 0.07465 0.95798 0.0
C367 C 0.43647 0.05959 0.01363 0.0
C368 C 0.45219 0.04639 0.02991 0.0
C369 C 0.46937 0.04775 0.99096 0.0
C370 C 0.52282 0.99754 0.95228 0.0
C371 C 0.47692 0.97966 0.85415 0.0
O372 O 0.54754 0.96725 0.81111 0.0
O373 O 0.52444 0.96618 0.73608 0.0
O374 O 0.53269 0.02083 0.71495 0.0
O375 O 0.50686 0.02027 0.7723 0.0
O376 O 0.55676 0.01775 0.82187 0.0
O377 O 0.54273 0.04995 0.83749 0.0
O378 O 0.48274 0.04954 0.84811 0.0
O379 O 0.50713 0.06071 0.9153 0.0
O380 O 0.51525 0.01483 0.96739 0.0
O381 O 0.52277 0.99874 0.89506 0.0
O382 O 0.47952 1.0004 0.8735 0.0
O383 O 0.49202 0.97273 0.82587 0.0
H384 H 0.57236 0.9338 0.77625 0.0
H385 H 0.60282 0.9358 0.70911 0.0
H386 H 0.58007 0.98709 0.58049 0.0
H387 H 0.54989 0.98514 0.64738 0.0
H388 H 0.45714 0.08741 0.87591 0.0
H389 H 0.42679 0.08485 0.9436 0.0
H390 H 0.45122 0.03492 0.0728 0.0
H391 H 0.48093 0.03695 1.00406 0.0
Nd392 Nd 0.5105 0.5142 0.87928 0.0
Nd393 Nd 0.5278 0.50062 0.77194 0.0
C394 C 0.49659 0.53764 0.95753 0.0
C395 C 0.50926 0.55873 0.97947 0.0
C396 C 0.50018 0.57247 0.01395 0.0
C397 C 0.51291 0.59267 0.0333 0.0
C398 C 0.5348 0.5993 0.01806 0.0
C399 C 0.54367 0.58541 0.98319 0.0
C400 C 0.53103 0.56536 0.9641 0.0
C401 C 0.54927 0.50171 0.90073 0.0
C402 C 0.53948 0.55489 0.7797 0.0
C403 C 0.54216 0.47753 0.69366 0.0
C404 C 0.53032 0.45666 0.66731 0.0
C405 C 0.53047 0.43394 0.69656 0.0
C406 C 0.51588 0.41455 0.67971 0.0
C407 C 0.50088 0.41747 0.63321 0.0
C408 C 0.50159 0.44004 0.60179 0.0
C409 C 0.51623 0.45934 0.61828 0.0
C410 C 0.48896 0.51299 0.75083 0.0
C411 C 0.49845 0.45989 0.87078 0.0
O412 O 0.49191 0.54018 0.89939 0.0
O413 O 0.50376 0.51856 0.97443 0.0
O414 O 0.53344 0.49595 0.93871 0.0
O415 O 0.54486 0.51445 0.85367 0.0
O416 O 0.52362 0.54953 0.81948 0.0
O417 O 0.54735 0.5382 0.76029 0.0
O418 O 0.54618 0.4744 0.75222 0.0
O419 O 0.53561 0.49704 0.67712 0.0
O420 O 0.50467 0.51865 0.7124 0.0
O421 O 0.49349 0.50027 0.79774 0.0
O422 O 0.5142 0.46517 0.83059 0.0
O423 O 0.49084 0.47664 0.89096 0.0
H424 H 0.48336 0.56764 0.02576 0.0
H425 H 0.5056 0.60317 0.0597 0.0
H426 H 0.5605 0.58977 0.97155 0.0
H427 H 0.53831 0.55489 0.93746 0.0
H428 H 0.54122 0.43125 0.73428 0.0
H429 H 0.51611 0.39734 0.7039 0.0
H430 H 0.4902 0.44304 0.56607 0.0
H431 H 0.51568 0.47654 0.59454 0.0
Nd432 Nd 0.0109 0.52924 0.78048 0.0
Nd433 Nd 0.03515 0.49688 0.87238 0.0
C434 C 0.98241 0.55135 0.72475 0.0
C435 C 0.96136 0.54392 0.6967 0.0
C436 C 0.95527 0.55773 0.64539 0.0
C437 C 0.93615 0.54995 0.61509 0.0
C438 C 0.92282 0.52813 0.63548 0.0
C439 C 0.92876 0.51459 0.68786 0.0
C440 C 0.94784 0.52242 0.71818 0.0
C441 C 0.03356 0.50209 0.72856 0.0
C442 C 0.98514 0.47654 0.84511 0.0
C443 C 0.06304 0.47176 0.91484 0.0
C444 C 0.08137 0.47832 0.95501 0.0
C445 C 0.09548 0.46333 0.972 0.0
C446 C 0.11251 0.46994 0.01173 0.0
C447 C 0.11537 0.4915 0.03522 0.0
C448 C 0.10142 0.50659 0.0168 0.0
C449 C 0.08465 0.5001 0.97696 0.0
C450 C 0.02081 0.5282 0.93525 0.0
C451 C 0.05902 0.55101 0.81646 0.0
O452 O 0.98352 0.54661 0.78422 0.0
O453 O 0.99865 0.54719 0.69657 0.0
O454 O 0.03222 0.52314 0.70459 0.0
O455 O 0.02242 0.4958 0.77652 0.0
O456 O 0.98487 0.49628 0.80883 0.0
O457 O 0.00248 0.47191 0.87361 0.0
O458 O 0.06458 0.48385 0.86019 0.0
O459 O 0.04426 0.46944 0.94016 0.0
O460 O 0.03113 0.51275 0.96096 0.0
O461 O 0.01872 0.52628 0.87928 0.0
O462 O 0.06081 0.52943 0.83801 0.0
O463 O 0.04074 0.55652 0.7978 0.0
H464 H 0.96556 0.57429 0.62789 0.0
H465 H 0.93218 0.56067 0.57446 0.0
H466 H 0.91874 0.49784 0.70517 0.0
H467 H 0.95215 0.51146 0.7578 0.0
H468 H 0.09322 0.4465 0.95511 0.0
H469 H 0.12306 0.45801 0.02536 0.0
H470 H 0.10346 0.52345 0.03342 0.0
H471 H 0.07409 0.51206 0.96365 0.0
H472 H 0.17264 0.96738 0.72349 0.0
H473 H 0.16578 0.02639 0.59065 0.0
H474 H 0.13804 0.96721 0.76713 0.0
H475 H 0.13165 0.02675 0.63668 0.0
H476 H 0.08132 0.03264 0.77754 0.0
H477 H 0.11751 0.03321 0.74277 0.0
H478 H 0.09903 0.95947 0.72452 0.0
H479 H 0.06281 0.95898 0.7581 0.0
C480 C 0.16379 0.98025 0.70325 0.0
C481 C 0.17205 0.99678 0.65298 0.0
C482 C 0.14405 0.98024 0.72875 0.0
C483 C 0.13228 0.99701 0.70538 0.0
C484 C 0.14059 0.01382 0.65603 0.0
C485 C 0.16018 0.01361 0.6298 0.0
C486 C 0.0851 0.01652 0.76678 0.0
C487 C 0.06931 0.99578 0.77013 0.0
C488 C 0.10572 0.01689 0.74659 0.0
C489 C 0.11096 0.99641 0.73071 0.0
C490 C 0.0954 0.97546 0.73672 0.0
C491 C 0.07471 0.9752 0.75577 0.0
H492 H 0.49522 0.12508 0.40228 0.0
H493 H 0.46125 0.14511 0.54585 0.0
H494 H 0.50745 0.09585 0.47603 0.0
H495 H 0.47391 0.11663 0.61983 0.0
H496 H 0.47994 0.04622 0.72418 0.0
H497 H 0.4688 0.07612 0.65094 0.0
H498 H 0.53009 0.08964 0.56035 0.0
H499 H 0.54081 0.05905 0.63266 0.0
C500 C 0.49057 0.12339 0.44973 0.0
C501 C 0.47708 0.13719 0.46811 0.0
C502 C 0.49763 0.1067 0.49217 0.0
C503 C 0.49158 0.10365 0.55414 0.0
C504 C 0.47851 0.11797 0.57246 0.0
C505 C 0.47129 0.1344 0.53002 0.0
C506 C 0.49107 0.05574 0.68893 0.0
C507 C 0.51125 0.05036 0.68423 0.0
C508 C 0.48473 0.07298 0.64689 0.0
C509 C 0.49852 0.08545 0.59941 0.0
C510 C 0.51887 0.0802 0.59547 0.0
C511 C 0.52511 0.0628 0.63723 0.0
H512 H 0.35363 0.51303 0.7008 0.0
H513 H 0.38625 0.58316 0.62932 0.0
H514 H 0.38797 0.50289 0.7293 0.0
H515 H 0.42041 0.57331 0.65978 0.0
H516 H 0.47748 0.53884 0.64965 0.0
H517 H 0.44294 0.5489 0.6264 0.0
H518 H 0.41836 0.51116 0.7999 0.0
H519 H 0.45309 0.50073 0.82277 0.0
C520 C 0.36812 0.52629 0.6913 0.0
C521 C 0.3672 0.54887 0.66249 0.0
C522 C 0.38776 0.52056 0.70829 0.0
C523 C 0.40692 0.53727 0.69662 0.0
C524 C 0.40596 0.55994 0.66874 0.0
C525 C 0.38635 0.56567 0.65186 0.0
C526 C 0.46471 0.53267 0.68285 0.0
C527 C 0.46791 0.51896 0.73792 0.0
C528 C 0.44495 0.53858 0.66972 0.0
C529 C 0.42792 0.53093 0.71141 0.0
C530 C 0.43112 0.51715 0.76662 0.0
C531 C 0.45098 0.51126 0.77984 0.0
H532 H 0.07588 0.38352 0.61005 0.0
H533 H 0.06572 0.42689 0.44332 0.0
H534 H 0.06935 0.41331 0.66964 0.0
H535 H 0.05807 0.45652 0.5028 0.0
H536 H 0.05808 0.51272 0.62539 0.0
H537 H 0.07059 0.48552 0.56758 0.0
H538 H 0.04036 0.42752 0.69923 0.0
H539 H 0.0288 0.45483 0.75791 0.0
C540 C 0.07223 0.39955 0.58628 0.0
C541 C 0.07114 0.40292 0.52227 0.0
C542 C 0.06831 0.41656 0.62036 0.0
C543 C 0.0628 0.43725 0.59133 0.0
C544 C 0.06244 0.44095 0.52689 0.0
C545 C 0.06672 0.42398 0.49267 0.0
C546 C 0.05437 0.49416 0.64216 0.0
C547 C 0.04245 0.48586 0.69604 0.0
C548 C 0.06137 0.47853 0.60878 0.0
C549 C 0.05646 0.45422 0.62833 0.0
C550 C 0.04483 0.44609 0.68305 0.0
C551 C 0.03805 0.46173 0.71667 0.0
H552 H 0.8785 0.05244 0.03054 0.0
H553 H 0.84977 0.98039 0.01175 0.0
H554 H 0.91193 0.0476 0.98768 0.0
H555 H 0.8833 0.97549 0.96928 0.0
H556 H 0.95698 0.97346 0.98196 0.0
H557 H 0.92144 0.97653 0.01336 0.0
H558 H 0.92512 0.03907 0.88395 0.0
H559 H 0.96061 0.03578 0.85176 0.0
C560 C 0.87941 0.03556 0.01748 0.0
C561 C 0.86164 0.01675 0.02469 0.0
C562 C 0.89841 0.03286 0.99241 0.0
C563 C 0.90011 0.01121 0.97494 0.0
C564 C 0.88239 0.99235 0.98244 0.0
C565 C 0.86325 0.99517 0.00657 0.0
C566 C 0.95003 0.98764 0.95959 0.0
C567 C 0.96151 1.00444 0.91471 0.0
C568 C 0.92971 0.98935 0.97742 0.0
C569 C 0.92065 1.00813 0.95137 0.0
C570 C 0.93186 0.02454 0.90507 0.0
C571 C 0.95206 0.02259 0.88643 0.0
H572 H 0.53773 0.86701 0.16924 0.0
H573 H 0.57843 0.92121 0.25783 0.0
H574 H 0.52764 0.8969 0.09319 0.0
H575 H 0.56867 0.95106 0.1811 0.0
H576 H 0.5273 0.99766 0.07438 0.0
H577 H 0.53736 0.96772 0.14978 0.0
H578 H 0.54378 0.92633 0.00642 0.0
H579 H 0.53344 0.95644 0.93067 0.0
C580 C 0.54435 0.88532 0.17287 0.0
C581 C 0.55879 0.89172 0.21989 0.0
C582 C 0.5388 0.90242 0.12876 0.0
C583 C 0.54741 0.92637 0.13085 0.0
C584 C 0.56163 0.93278 0.17836 0.0
C585 C 0.56731 0.91568 0.22218 0.0
C586 C 0.53094 0.98221 0.05887 0.0
C587 C 0.52969 0.97941 0.99661 0.0
C588 C 0.53681 0.9651 0.10209 0.0
C589 C 0.54142 0.94464 0.08421 0.0
C590 C 0.54016 0.94181 0.02176 0.0
C591 C 0.53442 0.95909 0.97832 0.0
H592 H 0.68433 0.5038 0.96334 0.0
H593 H 0.65214 0.43331 0.0329 0.0
H594 H 0.65014 0.5129 0.92847 0.0
H595 H 0.61805 0.44233 0.99789 0.0
H596 H 0.56024 0.47594 1.00255 0.0
H597 H 0.59475 0.46631 0.02828 0.0
H598 H 0.62044 0.50417 0.856 0.0
H599 H 0.58567 0.51423 0.83063 0.0
C600 C 0.66999 0.49016 0.97044 0.0
C601 C 0.67091 0.4679 1.00142 0.0
C602 C 0.65042 0.49536 0.95037 0.0
C603 C 0.63135 0.4784 0.96083 0.0
C604 C 0.63239 0.45594 0.9902 0.0
C605 C 0.65192 0.45077 0.01032 0.0
C606 C 0.57324 0.48221 0.97008 0.0
C607 C 0.57032 0.49589 0.91468 0.0
C608 C 0.59299 0.47653 0.98463 0.0
C609 C 0.61033 0.48434 0.94405 0.0
C610 C 0.60742 0.49804 0.88842 0.0
C611 C 0.58755 0.50372 0.87378 0.0
H612 H 0.97733 0.59388 0.22498 0.0
H613 H 0.96426 0.63665 0.06002 0.0
H614 H 0.99063 0.56818 0.16404 0.0
H615 H 0.9784 0.61184 0.99897 0.0
H616 H 0.98855 0.5514 0.9016 0.0
H617 H 0.9732 0.57575 0.96203 0.0
H618 H 0.01943 0.56626 0.10456 0.0
H619 H 0.03379 0.54107 0.04533 0.0
C620 C 0.9774 0.59779 0.17566 0.0
C621 C 0.96963 0.61713 0.14727 0.0
C622 C 0.98516 0.5832 0.14055 0.0
C623 C 0.98575 0.58789 0.07621 0.0
C624 C 0.97787 0.60729 0.0481 0.0
C625 C 0.96981 0.6216 0.08315 0.0
C626 C 0.99542 0.5547 0.94566 0.0
C627 C 0.01232 0.5444 0.96877 0.0
C628 C 0.98669 0.5687 0.98044 0.0
C629 C 0.99493 0.57298 0.03872 0.0
C630 C 0.01222 0.56298 0.06083 0.0
C631 C 0.02064 0.54871 0.02655 0.0
H632 H 0.09899 0.19489 0.68068 0.0
H633 H 0.03614 0.20091 0.61336 0.0
H634 H 0.08422 0.15508 0.72964 0.0
H635 H 0.02141 0.16145 0.66304 0.0
H636 H 0.01303 0.08018 0.68285 0.0
H637 H 0.02543 0.12152 0.64361 0.0
H638 H 0.05855 0.13342 0.81313 0.0
H639 H 0.04628 0.09221 0.85253 0.0
C640 C 0.08202 0.1878 0.67699 0.0
C641 C 0.06872 0.20098 0.64339 0.0
C642 C 0.07355 0.16513 0.70526 0.0
C643 C 0.05169 0.15522 0.69983 0.0
C644 C 0.03833 0.16862 0.66748 0.0
C645 C 0.04675 0.19129 0.63967 0.0
C646 C 0.02275 0.09165 0.71201 0.0
C647 C 0.02872 0.08286 0.77064 0.0
C648 C 0.02978 0.11532 0.68963 0.0
C649 C 0.04303 0.13058 0.72531 0.0
C650 C 0.04855 0.12196 0.78447 0.0
C651 C 0.04139 0.09836 0.80704 0.0
H652 H 0.35003 0.92494 0.73422 0.0
H653 H 0.35262 0.98449 0.83125 0.0
H654 H 0.38324 0.91821 0.78337 0.0
H655 H 0.38603 0.97874 0.87775 0.0
H656 H 0.44786 0.97485 0.94503 0.0
H657 H 0.40943 0.96024 0.93778 0.0
H658 H 0.41847 0.93888 0.76193 0.0
H659 H 0.45685 0.95214 0.77146 0.0
C660 C 0.35737 0.93615 0.76746 0.0
C661 C 0.34907 0.95556 0.77799 0.0
C662 C 0.37652 0.93247 0.79513 0.0
C663 C 0.3877 0.94824 0.83347 0.0
C664 C 0.37802 0.96609 0.84884 0.0
C665 C 0.3589 0.96963 0.82158 0.0
C666 C 0.4416 0.96619 0.906 0.0
C667 C 0.45518 0.965 0.85821 0.0
C668 C 0.41957 0.95796 0.90156 0.0
C669 C 0.41068 0.9491 0.84831 0.0
C670 C 0.4246 0.94554 0.80373 0.0
C671 C 0.44669 0.95326 0.80894 0.0
H672 H 0.39998 0.32799 0.45808 0.0
H673 H 0.43401 0.28148 0.56824 0.0
H674 H 0.41725 0.36016 0.51355 0.0
H675 H 0.45127 0.31361 0.62366 0.0
H676 H 0.47855 0.38069 0.71198 0.0
H677 H 0.45081 0.34781 0.68618 0.0
H678 H 0.45717 0.37649 0.49568 0.0
H679 H 0.48522 0.40858 0.52057 0.0
C680 C 0.4104 0.32442 0.49599 0.0
C681 C 0.41601 0.30244 0.50813 0.0
C682 C 0.42037 0.34283 0.52743 0.0
C683 C 0.43601 0.33945 0.57157 0.0
C684 C 0.43932 0.31668 0.58966 0.0
C685 C 0.42935 0.29824 0.55809 0.0
C686 C 0.47415 0.37985 0.66453 0.0
C687 C 0.48414 0.39732 0.6183 0.0
C688 C 0.45811 0.36119 0.65001 0.0
C689 C 0.45156 0.35991 0.5892 0.0
C690 C 0.46145 0.37741 0.54322 0.0
C691 C 0.47761 0.39578 0.5575 0.0
H692 H 0.19221 0.5897 0.82676 0.0
H693 H 0.17786 0.62818 0.65542 0.0
H694 H 0.15526 0.58267 0.8562 0.0
H695 H 0.14154 0.62405 0.68864 0.0
H696 H 0.07528 0.57495 0.70963 0.0
H697 H 0.11191 0.59574 0.69068 0.0
H698 H 0.12396 0.58865 0.88565 0.0
H699 H 0.08768 0.56572 0.90292 0.0
C700 C 0.18133 0.59715 0.79572 0.0
C701 C 0.18812 0.60861 0.73737 0.0
C702 C 0.15997 0.59355 0.81334 0.0
C703 C 0.14486 0.60209 0.77408 0.0
C704 C 0.1523 0.6162 0.71918 0.0
C705 C 0.1735 0.61906 0.70057 0.0
C706 C 0.08572 0.57843 0.74826 0.0
C707 C 0.07889 0.5688 0.80752 0.0
C708 C 0.10683 0.59051 0.73768 0.0
C709 C 0.12141 0.59372 0.7865 0.0
C710 C 0.11367 0.5859 0.8465 0.0
C711 C 0.09276 0.57308 0.85673 0.0
H712 H 0.94005 0.82157 0.99214 0.0
H713 H 0.00447 0.81446 0.03979 0.0
H714 H 0.95377 0.86134 0.94282 0.0
H715 H 0.01827 0.85394 0.98849 0.0
H716 H 0.98465 0.92612 0.82276 0.0
H717 H 0.97485 0.88433 0.85723 0.0
H718 H 0.01733 0.89345 0.01157 0.0
H719 H 0.02755 0.93548 0.9762 0.0
C720 C 0.95716 0.82838 0.9911 0.0
C721 C 0.97116 0.81497 0.01999 0.0
C722 C 0.96505 0.85107 0.96246 0.0
C723 C 0.98711 0.86078 0.96215 0.0
C724 C 0.00119 0.84699 0.98869 0.0
C725 C 0.99329 0.82429 0.0173 0.0
C726 C 0.99204 0.91923 0.8639 0.0
C727 C 0.00664 0.93411 0.89743 0.0
C728 C 0.98637 0.89528 0.8836 0.0
C729 C 0.99511 0.88567 0.93742 0.0
C730 C 0.01045 0.90036 0.96959 0.0
C731 C 0.01623 0.92441 0.94961 0.0
H732 H 0.68567 0.11145 0.93531 0.0
H733 H 0.68538 0.04217 0.88939 0.0
H734 H 0.65029 0.10971 0.88887 0.0
H735 H 0.6507 0.04055 0.84342 0.0
H736 H 0.57644 0.07256 0.90287 0.0
H737 H 0.61462 0.08739 0.91806 0.0
H738 H 0.6289 0.05455 0.76464 0.0
H739 H 0.5909 0.03881 0.7519 0.0
C740 C 0.67828 0.09606 0.91449 0.0
C741 C 0.68842 0.07695 0.91623 0.0
C742 C 0.65804 0.09508 0.88788 0.0
C743 C 0.64763 0.07501 0.86234 0.0
C744 C 0.65835 0.05653 0.86129 0.0
C745 C 0.6784 0.05748 0.88783 0.0
C746 C 0.58779 0.06914 0.87148 0.0
C747 C 0.58093 0.05422 0.82709 0.0
C748 C 0.60965 0.0777 0.87992 0.0
C749 C 0.62485 0.07167 0.84343 0.0
C750 C 0.61765 0.05893 0.79463 0.0
C751 C 0.59592 0.05001 0.78711 0.0
H752 H 0.61195 0.69547 0.23946 0.0
H753 H 0.60695 0.73805 0.06657 0.0
H754 H 0.59558 0.66053 0.19459 0.0
H755 H 0.5894 0.70303 0.02257 0.0
H756 H 0.56605 0.63207 0.9543 0.0
H757 H 0.5903 0.66508 0.99196 0.0
H758 H 0.55858 0.64714 0.16741 0.0
H759 H 0.53504 0.61361 0.1307 0.0
C760 C 0.60796 0.69738 0.19138 0.0
C761 C 0.6105 0.71967 0.15686 0.0
C762 C 0.59818 0.67732 0.16597 0.0
C763 C 0.5906 0.6791 0.10565 0.0
C764 C 0.59493 0.70108 0.06936 0.0
C765 C 0.60487 0.72117 0.09468 0.0
C766 C 0.56442 0.63507 1.00111 0.0
C767 C 0.54866 0.6202 0.03964 0.0
C768 C 0.57822 0.65406 0.0225 0.0
C769 C 0.57654 0.65857 0.08283 0.0
C770 C 0.56061 0.64385 0.12105 0.0
C771 C 0.54686 0.62487 0.09973 0.0
H772 H 0.8672 0.40277 0.0232 0.0
H773 H 0.8511 0.44424 0.85881 0.0
H774 H 0.90289 0.4068 0.98458 0.0
H775 H 0.88748 0.45093 0.82407 0.0
H776 H 0.95363 0.4637 0.7638 0.0
H777 H 0.91708 0.44288 0.7872 0.0
H778 H 0.93338 0.43437 0.9794 0.0
H779 H 0.97012 0.45321 0.95444 0.0
C780 C 0.87106 0.41256 0.97849 0.0
C781 C 0.85615 0.42369 0.94507 0.0
C782 C 0.89187 0.41532 0.95677 0.0
C783 C 0.89862 0.4299 0.90198 0.0
C784 C 0.88323 0.43954 0.86646 0.0
C785 C 0.86225 0.43613 0.88721 0.0
C786 C 0.94939 0.45662 0.81073 0.0
C787 C 0.96455 0.46005 0.85743 0.0
C788 C 0.92835 0.44496 0.82446 0.0
C789 C 0.92182 0.43733 0.88556 0.0
C790 C 0.93753 0.43957 0.93169 0.0
C791 C 0.95872 0.45052 0.91759 0.0
H792 H 0.10954 0.24548 0.11801 0.0
H793 H 0.05641 0.21368 0.23873 0.0
H794 H 0.10544 0.20873 0.07295 0.0
H795 H 0.05255 0.17715 0.19441 0.0
H796 H 0.07482 0.10982 0.16207 0.0
H797 H 0.07871 0.14791 0.19762 0.0
H798 H 0.07558 0.18064 0.01199 0.0
H799 H 0.07053 0.14227 0.97587 0.0
C800 C 0.09686 0.23076 0.13433 0.0
C801 C 0.0832 0.23252 0.1816 0.0
C802 C 0.0945 0.2098 0.10852 0.0
C803 C 0.07877 0.19009 0.13054 0.0
C804 C 0.06489 0.19203 0.17686 0.0
C805 C 0.06697 0.21303 0.20177 0.0
C806 C 0.07465 0.12498 0.12856 0.0
C807 C 0.07201 0.12271 0.06596 0.0
C808 C 0.07702 0.14685 0.14908 0.0
C809 C 0.07726 0.16717 0.1076 0.0
C810 C 0.0755 0.16523 0.04489 0.0
C811 C 0.07273 0.14322 0.02429 0.0
H812 H 0.32226 1.00983 0.24056 0.0
H813 H 0.35161 0.07721 0.2951 0.0
H814 H 0.34776 0.01643 0.15723 0.0
H815 H 0.37799 0.08313 0.21416 0.0
H816 H 0.41639 0.09411 0.03985 0.0
H817 H 0.38602 0.09002 0.1078 0.0
H818 H 0.3844 0.01575 0.1493 0.0
H819 H 0.41379 0.0196 0.07897 0.0
C820 C 0.33392 0.02623 0.23434 0.0
C821 C 0.33494 0.04288 0.27512 0.0
C822 C 0.34881 0.02985 0.18701 0.0
C823 C 0.36523 0.05012 0.17948 0.0
C824 C 0.36557 0.06733 0.21828 0.0
C825 C 0.35056 0.0638 0.2653 0.0
C826 C 0.40931 0.07684 0.06271 0.0
C827 C 0.41767 0.05722 0.05415 0.0
C828 C 0.39203 0.07454 0.10223 0.0
C829 C 0.38271 0.05256 0.13426 0.0
C830 C 0.3909 0.03291 0.12487 0.0
C831 C 0.40805 0.03519 0.0852 0.0
H832 H 0.49553 0.31502 0.01544 0.0
H833 H 0.43261 0.32407 0.05881 0.0
H834 H 0.50363 0.35482 0.96159 0.0
H835 H 0.44031 0.36328 1.0025 0.0
H836 H 0.4718 0.44196 0.96869 0.0
H837 H 0.46142 0.40112 0.01433 0.0
H838 H 0.49611 0.38023 0.87331 0.0
H839 H 0.50691 0.42109 0.82872 0.0
C840 C 0.48332 0.32535 0.01295 0.0
C841 C 0.46341 0.31618 0.04169 0.0
C842 C 0.48789 0.34815 0.98146 0.0
C843 C 0.47266 0.36242 0.9778 0.0
C844 C 0.45255 0.353 1.00501 0.0
C845 C 0.44801 0.33026 0.03657 0.0
C846 C 0.47703 0.42864 0.94708 0.0
C847 C 0.49029 0.43488 0.89527 0.0
C848 C 0.47102 0.40514 0.97313 0.0
C849 C 0.47802 0.38727 0.94782 0.0
C850 C 0.49074 0.3935 0.89482 0.0
C851 C 0.49683 0.41697 0.86898 0.0
H852 H 0.19106 0.56767 0.29942 0.0
H853 H 0.22545 0.51312 0.28348 0.0
H854 H 0.1666 0.55397 0.21939 0.0
H855 H 0.20037 0.4986 0.20433 0.0
H856 H 0.1581 0.49106 0.02968 0.0
H857 H 0.1861 0.50562 0.10153 0.0
H858 H 0.13817 0.52089 0.21511 0.0
H859 H 0.11062 0.50704 0.14301 0.0
C860 C 0.1934 0.55278 0.27828 0.0
C861 C 0.20995 0.5413 0.29767 0.0
C862 C 0.1793 0.54477 0.23285 0.0
C863 C 0.18119 0.52482 0.20639 0.0
C864 C 0.19847 0.51402 0.2237 0.0
C865 C 0.21281 0.52227 0.26892 0.0
C866 C 0.15367 0.49741 0.07034 0.0
C867 C 0.13228 0.49824 0.0805 0.0
C868 C 0.16965 0.50573 0.11144 0.0
C869 C 0.16445 0.51486 0.16352 0.0
C870 C 0.14288 0.5147 0.17457 0.0
C871 C 0.12705 0.50663 0.13346 0.0
H872 H 0.92625 0.79637 0.44789 0.0
H873 H 0.98715 0.78895 0.52826 0.0
H874 H 0.92907 0.83306 0.48996 0.0
H875 H 0.9901 0.82608 0.56922 0.0
H876 H 0.99917 0.90673 0.56078 0.0
H877 H 0.99538 0.86823 0.52663 0.0
H878 H 0.92963 0.85001 0.58689 0.0
H879 H 0.93331 0.88869 0.62005 0.0
C880 C 0.94005 0.80223 0.47562 0.0
C881 C 0.95646 0.78951 0.48458 0.0
C882 C 0.9417 0.82342 0.49948 0.0
C883 C 0.95988 0.83262 0.53258 0.0
C884 C 0.97604 0.81967 0.54304 0.0
C885 C 0.97432 0.79835 0.51957 0.0
C886 C 0.98386 0.89458 0.56629 0.0
C887 C 0.96652 0.90084 0.59296 0.0
C888 C 0.98176 0.8724 0.54742 0.0
C889 C 0.96223 0.85598 0.55427 0.0
C890 C 0.94486 0.86228 0.58066 0.0
C891 C 0.94701 0.88439 0.60002 0.0
H892 H 0.6851 0.96561 0.34834 0.0
H893 H 0.71483 0.01845 0.46007 0.0
H894 H 0.65576 0.95234 0.4216 0.0
H895 H 0.68526 1.00549 0.53273 0.0
H896 H 0.63568 0.96584 0.67395 0.0
H897 H 0.66706 0.97258 0.60794 0.0
H898 H 0.62605 0.96988 0.44946 0.0
H899 H 0.59474 0.96273 0.51541 0.0
C900 C 0.68558 0.9741 0.38912 0.0
C901 C 0.70226 0.99313 0.39833 0.0
C902 C 0.66865 0.96667 0.43074 0.0
C903 C 0.66809 0.97798 0.48272 0.0
C904 C 0.68527 0.99631 0.49335 0.0
C905 C 0.70212 1.00385 0.45151 0.0
C906 C 0.63338 0.96629 0.62508 0.0
C907 C 0.61275 0.96384 0.59984 0.0
C908 C 0.65135 0.97036 0.58728 0.0
C909 C 0.64905 0.97182 0.52347 0.0
C910 C 0.62837 0.96863 0.49845 0.0
C911 C 0.61044 0.96476 0.53617 0.0
H912 H 0.6019 0.69059 0.5828 0.0
H913 H 0.53958 0.6991 0.63388 0.0
H914 H 0.59509 0.65142 0.63935 0.0
H915 H 0.53231 0.65931 0.6878 0.0
H916 H 0.53118 0.59376 0.82167 0.0
H917 H 0.54102 0.63446 0.77501 0.0
H918 H 0.57436 0.61326 0.63159 0.0
H919 H 0.56499 0.5726 0.67933 0.0
C920 C 0.5868 0.68426 0.60661 0.0
C921 C 0.57134 0.69823 0.60379 0.0
C922 C 0.58276 0.66155 0.63835 0.0
C923 C 0.56309 0.652 0.66801 0.0
C924 C 0.54774 0.66608 0.66613 0.0
C925 C 0.55182 0.68887 0.63452 0.0
C926 C 0.54077 0.59779 0.78043 0.0
C927 C 0.54722 0.57986 0.75411 0.0
C928 C 0.5463 0.62117 0.75338 0.0
C929 C 0.55834 0.62726 0.69907 0.0
C930 C 0.56528 0.60936 0.67373 0.0
C931 C 0.55986 0.58597 0.70102 0.0
H932 H 0.83158 0.51174 0.34344 0.0
H933 H 0.81413 0.44518 0.45814 0.0
H934 H 0.85747 0.52625 0.41917 0.0
H935 H 0.84005 0.4598 0.53449 0.0
H936 H 0.90873 0.4836 0.60716 0.0
H937 H 0.87854 0.46932 0.54317 0.0
H938 H 0.8627 0.53781 0.52007 0.0
H939 H 0.89309 0.55216 0.58386 0.0
C940 C 0.83291 0.50037 0.38551 0.0
C941 C 0.82079 0.47728 0.39467 0.0
C942 C 0.84779 0.5087 0.42902 0.0
C943 C 0.85093 0.49417 0.48289 0.0
C944 C 0.83829 0.47133 0.49304 0.0
C945 C 0.82341 0.46296 0.44938 0.0
C946 C 0.89859 0.49551 0.58933 0.0
C947 C 0.90338 0.51905 0.6004 0.0
C948 C 0.88124 0.48731 0.55266 0.0
C949 C 0.8682 0.50243 0.52625 0.0
C950 C 0.87262 0.5258 0.53885 0.0
C951 C 0.89002 0.53402 0.5754 0.0
loop_
_geom_bond_atom_site_label_1
_geom_bond_atom_site_label_2
_geom_bond_distance
_geom_bond_site_symmetry_2
_ccdc_geom_bond_type
C0 C1 1.386 . S
C0 C2 1.397 . S
C0 H24 0.931 . S
C1 C0 1.386 . S
C1 C5 1.397 . S
C2 C0 1.397 . S
C2 C3 1.384 . S
C2 H25 0.930 . S
C3 C2 1.384 . S
C3 C4 1.377 . S
C3 C6 1.481 1_556 S
C4 C3 1.377 . S
C4 C5 1.389 . S
C4 H26 0.929 1_556 S
C5 C1 1.397 . S
C5 C4 1.389 . S
C5 H27 0.931 . S
C6 C3 1.481 1_554 S
C6 C7 1.387 . S
C6 C11 1.390 . S
C7 C6 1.387 . S
C7 C8 1.401 . S
C7 H28 0.930 1_554 S
C8 C7 1.401 . S
C8 C9 1.376 . S
C8 C17 1.511 . S
C9 C8 1.376 . S
C9 C10 1.392 . S
C9 H30 0.931 . S
C10 C9 1.392 . S
C10 C11 1.361 . S
C10 C12 1.500 . S
C11 C6 1.390 . S
C11 C10 1.361 . S
C11 H29 0.931 . S
C12 C10 1.500 . S
C12 C13 1.371 . S
C12 C14 1.365 . S
C13 C12 1.371 . S
C13 C23 1.386 . S
C13 H31 0.931 . S
C14 C12 1.365 . S
C14 C15 1.409 . S
C14 H32 0.929 . S
C15 C14 1.409 . S
C15 C16 1.380 . S
C15 H33 0.930 . S
C16 C15 1.380 . S
C16 C23 1.357 . S
C17 C8 1.511 . S
C17 C18 1.341 1_554 S
C17 C19 1.371 . S
C18 C17 1.341 1_556 S
C18 C22 1.394 . S
C18 H34 0.930 . S
C19 C17 1.371 . S
C19 C20 1.392 . S
C19 H35 0.931 . S
C20 C19 1.392 . S
C20 C21 1.331 . S
C20 H38 0.932 . S
C21 C20 1.331 . S
C21 C22 1.336 1_554 S
C22 C18 1.394 . S
C22 C21 1.336 1_556 S
C22 H37 0.929 . S
C23 C13 1.386 . S
C23 C16 1.357 . S
C23 H36 0.928 . S
H24 C0 0.931 . S
H25 C2 0.930 . S
H26 C4 0.929 1_554 S
H27 C5 0.931 . S
H28 C7 0.930 1_556 S
H29 C11 0.931 . S
H30 C9 0.931 . S
H31 C13 0.931 . S
H32 C14 0.929 . S
H33 C15 0.930 . S
H34 C18 0.930 . S
H35 C19 0.931 . S
H36 C23 0.928 . S
H37 C22 0.929 . S
H38 C20 0.932 . S
C39 C40 1.386 . S
C39 C41 1.397 . S
C39 H63 0.931 . S
C40 C39 1.386 . S
C40 C44 1.397 . S
C41 C39 1.397 . S
C41 C42 1.384 . S
C41 H64 0.930 . S
C42 C41 1.384 . S
C42 C43 1.377 . S
C42 C45 1.481 1_556 S
C43 C42 1.377 . S
C43 C44 1.389 . S
C43 H65 0.929 1_556 S
C44 C40 1.397 . S
C44 C43 1.389 . S
C44 H66 0.931 . S
C45 C42 1.481 1_554 S
C45 C46 1.387 . S
C45 C50 1.390 . S
C46 C45 1.387 . S
C46 C47 1.401 . S
C46 H67 0.930 1_554 S
C47 C46 1.401 . S
C47 C48 1.376 . S
C47 C56 1.511 . S
C48 C47 1.376 . S
C48 C49 1.392 . S
C48 H69 0.931 . S
C49 C48 1.392 . S
C49 C50 1.361 . S
C49 C51 1.500 . S
C50 C45 1.390 . S
C50 C49 1.361 . S
C50 H68 0.931 . S
C51 C49 1.500 . S
C51 C52 1.371 . S
C51 C53 1.365 . S
C52 C51 1.371 . S
C52 C62 1.386 . S
C52 H70 0.931 . S
C53 C51 1.365 . S
C53 C54 1.409 . S
C53 H71 0.929 . S
C54 C53 1.409 . S
C54 C55 1.380 . S
C54 H72 0.930 . S
C55 C54 1.380 . S
C55 C62 1.357 . S
C56 C47 1.511 . S
C56 C57 1.341 1_554 S
C56 C58 1.371 . S
C57 C56 1.341 1_556 S
C57 C61 1.394 . S
C57 H73 0.930 . S
C58 C56 1.371 . S
C58 C59 1.392 . S
C58 H74 0.931 . S
C59 C58 1.392 . S
C59 C60 1.331 . S
C59 H77 0.932 . S
C60 C59 1.331 . S
C60 C61 1.336 1_554 S
C61 C57 1.394 . S
C61 C60 1.336 1_556 S
C61 H76 0.929 . S
C62 C52 1.386 . S
C62 C55 1.357 . S
C62 H75 0.928 . S
H63 C39 0.931 . S
H64 C41 0.930 . S
H65 C43 0.929 1_554 S
H66 C44 0.931 . S
H67 C46 0.930 1_556 S
H68 C50 0.931 . S
H69 C48 0.931 . S
H70 C52 0.931 . S
H71 C53 0.929 . S
H72 C54 0.930 . S
H73 C57 0.930 . S
H74 C58 0.931 . S
H75 C62 0.928 . S
H76 C61 0.929 . S
H77 C59 0.932 . S
C78 C79 1.397 . S
C78 C80 1.397 . S
C78 H102 0.931 . S
C79 C78 1.397 . S
C79 C83 1.387 1_565 S
C80 C78 1.397 . S
C80 C81 1.390 . S
C80 H103 0.930 . S
C81 C80 1.390 . S
C81 C82 1.371 1_565 S
C81 C84 1.479 . S
C82 C81 1.371 1_545 S
C82 C83 1.389 . S
C82 H104 0.929 . S
C83 C79 1.387 1_545 S
C83 C82 1.389 . S
C83 H105 0.931 . S
C84 C81 1.479 . S
C84 C85 1.397 . S
C84 C89 1.386 1_556 S
C85 C84 1.397 . S
C85 C86 1.401 . S
C85 H106 0.930 . S
C86 C85 1.401 . S
C86 C87 1.379 1_556 S
C86 C95 1.521 . S
C87 C86 1.379 1_554 S
C87 C88 1.381 . S
C87 H108 0.936 . S
C88 C87 1.381 . S
C88 C89 1.361 . S
C88 C90 1.494 1_565 S
C89 C84 1.386 1_554 S
C89 C88 1.361 . S
C89 H107 0.929 . S
C90 C88 1.494 1_545 S
C90 C91 1.362 1_545 S
C90 C92 1.379 . S
C91 C90 1.362 1_565 S
C91 C101 1.386 . S
C91 H109 0.931 . S
C92 C90 1.379 . S
C92 C93 1.409 . S
C92 H110 0.929 . S
C93 C92 1.409 . S
C93 C94 1.379 . S
C93 H111 0.930 . S
C94 C93 1.379 . S
C94 C101 1.359 1_545 S
C95 C86 1.521 . S
C95 C96 1.341 . S
C95 C97 1.371 1_566 S
C96 C95 1.341 . S
C96 C100 1.394 . S
C96 H112 0.930 . S
C97 C95 1.371 1_544 S
C97 C98 1.392 1_554 S
C97 H113 0.931 . S
C98 C97 1.392 1_556 S
C98 C99 1.317 1_545 S
C98 H116 0.932 1_556 S
C99 C98 1.317 1_565 S
C99 C100 1.344 . S
C100 C96 1.394 . S
C100 C99 1.344 . S
C100 H115 0.929 . S
C101 C91 1.386 . S
C101 C94 1.359 1_565 S
C101 H114 0.928 . S
H102 C78 0.931 . S
H103 C80 0.930 . S
H104 C82 0.929 . S
H105 C83 0.931 . S
H106 C85 0.930 . S
H107 C89 0.929 . S
H108 C87 0.936 . S
H109 C91 0.931 . S
H110 C92 0.929 . S
H111 C93 0.930 . S
H112 C96 0.930 . S
H113 C97 0.931 . S
H114 C101 0.928 . S
H115 C100 0.929 . S
H116 C98 0.932 1_554 S
C117 C118 1.386 . S
C117 C119 1.397 . S
C117 H141 0.931 . S
C118 C117 1.386 . S
C118 C122 1.397 . S
C119 C117 1.397 . S
C119 C120 1.384 . S
C119 H142 0.930 . S
C120 C119 1.384 . S
C120 C121 1.377 . S
C120 C123 1.481 . S
C121 C120 1.377 . S
C121 C122 1.389 . S
C121 H143 0.929 . S
C122 C118 1.397 . S
C122 C121 1.389 . S
C122 H144 0.931 . S
C123 C120 1.481 . S
C123 C124 1.387 . S
C123 C128 1.390 . S
C124 C123 1.387 . S
C124 C125 1.401 . S
C124 H145 0.930 . S
C125 C124 1.401 . S
C125 C126 1.376 . S
C125 C134 1.511 . S
C126 C125 1.376 . S
C126 C127 1.392 . S
C126 H147 0.931 . S
C127 C126 1.392 . S
C127 C128 1.361 . S
C127 C129 1.500 . S
C128 C123 1.390 . S
C128 C127 1.361 . S
C128 H146 0.931 . S
C129 C127 1.500 . S
C129 C130 1.371 . S
C129 C131 1.365 . S
C130 C129 1.371 . S
C130 C140 1.386 . S
C130 H148 0.931 . S
C131 C129 1.365 . S
C131 C132 1.409 . S
C131 H149 0.929 . S
C132 C131 1.409 . S
C132 C133 1.380 . S
C132 H150 0.930 . S
C133 C132 1.380 . S
C133 C140 1.357 . S
C134 C125 1.511 . S
C134 C135 1.341 . S
C134 C136 1.371 . S
C135 C134 1.341 . S
C135 C139 1.394 . S
C135 H151 0.930 . S
C136 C134 1.371 . S
C136 C137 1.392 . S
C136 H152 0.931 . S
C137 C136 1.392 . S
C137 C138 1.331 . S
C137 H155 0.932 . S
C138 C137 1.331 . S
C138 C139 1.336 . S
C139 C135 1.394 . S
C139 C138 1.336 . S
C139 H154 0.929 . S
C140 C130 1.386 . S
C140 C133 1.357 . S
C140 H153 0.928 . S
H141 C117 0.931 . S
H142 C119 0.930 . S
H143 C121 0.929 . S
H144 C122 0.931 . S
H145 C124 0.930 . S
H146 C128 0.931 . S
H147 C126 0.931 . S
H148 C130 0.931 . S
H149 C131 0.929 . S
H150 C132 0.930 . S
H151 C135 0.930 . S
H152 C136 0.931 . S
H153 C140 0.928 . S
H154 C139 0.929 . S
H155 C137 0.932 . S
C156 C157 1.386 . S
C156 C158 1.397 . S
C156 H180 0.931 . S
C157 C156 1.386 . S
C157 C161 1.397 . S
C158 C156 1.397 . S
C158 C159 1.384 . S
C158 H181 0.930 . S
C159 C158 1.384 . S
C159 C160 1.377 . S
C159 C162 1.481 . S
C160 C159 1.377 . S
C160 C161 1.389 . S
C160 H182 0.929 . S
C161 C157 1.397 . S
C161 C160 1.389 . S
C161 H183 0.931 . S
C162 C159 1.481 . S
C162 C163 1.387 . S
C162 C167 1.390 . S
C163 C162 1.387 . S
C163 C164 1.401 . S
C163 H184 0.930 . S
C164 C163 1.401 . S
C164 C165 1.376 . S
C164 C173 1.511 . S
C165 C164 1.376 . S
C165 C166 1.392 . S
C165 H186 0.931 . S
C166 C165 1.392 . S
C166 C167 1.361 . S
C166 C168 1.500 . S
C167 C162 1.390 . S
C167 C166 1.361 . S
C167 H185 0.931 . S
C168 C166 1.500 . S
C168 C169 1.371 . S
C168 C170 1.365 . S
C169 C168 1.371 . S
C169 C179 1.386 . S
C169 H187 0.931 . S
C170 C168 1.365 . S
C170 C171 1.409 . S
C170 H188 0.929 . S
C171 C170 1.409 . S
C171 C172 1.380 . S
C171 H189 0.930 . S
C172 C171 1.380 . S
C172 C179 1.357 . S
C173 C164 1.511 . S
C173 C174 1.341 . S
C173 C175 1.371 . S
C174 C173 1.341 . S
C174 C178 1.394 . S
C174 H190 0.930 . S
C175 C173 1.371 . S
C175 C176 1.392 . S
C175 H191 0.931 . S
C176 C175 1.392 . S
C176 C177 1.331 . S
C176 H194 0.932 . S
C177 C176 1.331 . S
C177 C178 1.336 . S
C178 C174 1.394 . S
C178 C177 1.336 . S
C178 H193 0.929 . S
C179 C169 1.386 . S
C179 C172 1.357 . S
C179 H192 0.928 . S
H180 C156 0.931 . S
H181 C158 0.930 . S
H182 C160 0.929 . S
H183 C161 0.931 . S
H184 C163 0.930 . S
H185 C167 0.931 . S
H186 C165 0.931 . S
H187 C169 0.931 . S
H188 C170 0.929 . S
H189 C171 0.930 . S
H190 C174 0.930 . S
H191 C175 0.931 . S
H192 C179 0.928 . S
H193 C178 0.929 . S
H194 C176 0.932 . S
C195 C196 1.386 . S
C195 C197 1.397 . S
C195 H219 0.931 . S
C196 C195 1.386 . S
C196 C200 1.397 . S
C197 C195 1.397 . S
C197 C198 1.384 . S
C197 H220 0.930 . S
C198 C197 1.384 . S
C198 C199 1.377 . S
C198 C201 1.481 . S
C199 C198 1.377 . S
C199 C200 1.389 . S
C199 H221 0.929 . S
C200 C196 1.397 . S
C200 C199 1.389 . S
C200 H222 0.931 . S
C201 C198 1.481 . S
C201 C202 1.387 . S
C201 C206 1.390 . S
C202 C201 1.387 . S
C202 C203 1.401 . S
C202 H223 0.930 . S
C203 C202 1.401 . S
C203 C204 1.376 . S
C203 C212 1.511 . S
C204 C203 1.376 . S
C204 C205 1.392 . S
C204 H225 0.931 . S
C205 C204 1.392 . S
C205 C206 1.361 . S
C205 C207 1.500 . S
C206 C201 1.390 . S
C206 C205 1.361 . S
C206 H224 0.931 . S
C207 C205 1.500 . S
C207 C208 1.371 . S
C207 C209 1.365 . S
C208 C207 1.371 . S
C208 C218 1.386 . S
C208 H226 0.931 . S
C209 C207 1.365 . S
C209 C210 1.409 . S
C209 H227 0.929 . S
C210 C209 1.409 . S
C210 C211 1.380 . S
C210 H228 0.930 . S
C211 C210 1.380 . S
C211 C218 1.357 . S
C212 C203 1.511 . S
C212 C213 1.341 . S
C212 C214 1.371 . S
C213 C212 1.341 . S
C213 C217 1.394 . S
C213 H229 0.930 . S
C214 C212 1.371 . S
C214 C215 1.392 . S
C214 H230 0.931 . S
C215 C214 1.392 . S
C215 C216 1.331 . S
C215 H233 0.932 . S
C216 C215 1.331 . S
C216 C217 1.336 . S
C217 C213 1.394 . S
C217 C216 1.336 . S
C217 H232 0.929 . S
C218 C208 1.386 . S
C218 C211 1.357 . S
C218 H231 0.928 . S
H219 C195 0.931 . S
H220 C197 0.930 . S
H221 C199 0.929 . S
H222 C200 0.931 . S
H223 C202 0.930 . S
H224 C206 0.931 . S
H225 C204 0.931 . S
H226 C208 0.931 . S
H227 C209 0.929 . S
H228 C210 0.930 . S
H229 C213 0.930 . S
H230 C214 0.931 . S
H231 C218 0.928 . S
H232 C217 0.929 . S
H233 C215 0.932 . S
C234 C235 1.387 . S
C234 C236 1.397 . S
C234 H258 0.931 . S
C235 C234 1.387 . S
C235 C239 1.396 1_565 S
C236 C234 1.397 . S
C236 C237 1.382 . S
C236 H259 0.930 . S
C237 C236 1.382 . S
C237 C238 1.379 1_565 S
C237 C240 1.481 . S
C238 C237 1.379 1_545 S
C238 C239 1.389 . S
C238 H260 0.929 . S
C239 C235 1.396 1_545 S
C239 C238 1.389 . S
C239 H261 0.931 . S
C240 C237 1.481 . S
C240 C241 1.383 . S
C240 C245 1.394 . S
C241 C240 1.383 . S
C241 C242 1.403 . S
C241 H262 0.930 . S
C242 C241 1.403 . S
C242 C243 1.373 . S
C242 C251 1.507 . S
C243 C242 1.373 . S
C243 C244 1.399 1_565 S
C243 H264 0.932 . S
C244 C243 1.399 1_545 S
C244 C245 1.361 1_545 S
C244 C246 1.507 . S
C245 C240 1.394 . S
C245 C244 1.361 1_565 S
C245 H263 0.933 . S
C246 C244 1.507 . S
C246 C247 1.357 1_545 S
C246 C248 1.373 . S
C247 C246 1.357 1_565 S
C247 C257 1.386 . S
C247 H265 0.931 . S
C248 C246 1.373 . S
C248 C249 1.409 . S
C248 H266 0.929 . S
C249 C248 1.409 . S
C249 C250 1.384 . S
C249 H267 0.930 . S
C250 C249 1.384 . S
C250 C257 1.355 1_545 S
C251 C242 1.507 . S
C251 C252 1.341 . S
C251 C253 1.371 1_565 S
C252 C251 1.341 . S
C252 C256 1.394 . S
C252 H268 0.930 . S
C253 C251 1.371 1_545 S
C253 C254 1.392 . S
C253 H269 0.931 . S
C254 C253 1.392 . S
C254 C255 1.329 1_545 S
C254 H272 0.932 . S
C255 C254 1.329 1_565 S
C255 C256 1.342 . S
C256 C252 1.394 . S
C256 C255 1.342 . S
C256 H271 0.929 . S
C257 C247 1.386 . S
C257 C250 1.355 1_565 S
C257 H270 0.928 . S
H258 C234 0.931 . S
H259 C236 0.930 . S
H260 C238 0.929 . S
H261 C239 0.931 . S
H262 C241 0.930 . S
H263 C245 0.933 . S
H264 C243 0.932 . S
H265 C247 0.931 . S
H266 C248 0.929 . S
H267 C249 0.930 . S
H268 C252 0.930 . S
H269 C253 0.931 . S
H270 C257 0.928 . S
H271 C256 0.929 . S
H272 C254 0.932 . S
C273 C274 1.386 . S
C273 C275 1.397 . S
C273 H297 0.931 . S
C274 C273 1.386 . S
C274 C278 1.397 . S
C275 C273 1.397 . S
C275 C276 1.384 . S
C275 H298 0.930 . S
C276 C275 1.384 . S
C276 C277 1.377 . S
C276 C279 1.481 . S
C277 C276 1.377 . S
C277 C278 1.389 . S
C277 H299 0.929 . S
C278 C274 1.397 . S
C278 C277 1.389 . S
C278 H300 0.931 . S
C279 C276 1.481 . S
C279 C280 1.387 . S
C279 C284 1.390 . S
C280 C279 1.387 . S
C280 C281 1.401 . S
C280 H301 0.930 . S
C281 C280 1.401 . S
C281 C282 1.376 . S
C281 C290 1.511 . S
C282 C281 1.376 . S
C282 C283 1.392 . S
C282 H303 0.931 . S
C283 C282 1.392 . S
C283 C284 1.361 . S
C283 C285 1.500 . S
C284 C279 1.390 . S
C284 C283 1.361 . S
C284 H302 0.931 . S
C285 C283 1.500 . S
C285 C286 1.371 . S
C285 C287 1.365 . S
C286 C285 1.371 . S
C286 C296 1.386 . S
C286 H304 0.931 . S
C287 C285 1.365 . S
C287 C288 1.409 . S
C287 H305 0.929 . S
C288 C287 1.409 . S
C288 C289 1.380 . S
C288 H306 0.930 . S
C289 C288 1.380 . S
C289 C296 1.357 . S
C290 C281 1.511 . S
C290 C291 1.341 . S
C290 C292 1.371 . S
C291 C290 1.341 . S
C291 C295 1.394 . S
C291 H307 0.930 . S
C292 C290 1.371 . S
C292 C293 1.392 . S
C292 H308 0.931 . S
C293 C292 1.392 . S
C293 C294 1.331 . S
C293 H311 0.932 . S
C294 C293 1.331 . S
C294 C295 1.336 . S
C295 C291 1.394 . S
C295 C294 1.336 . S
C295 H310 0.929 . S
C296 C286 1.386 . S
C296 C289 1.357 . S
C296 H309 0.928 . S
H297 C273 0.931 . S
H298 C275 0.930 . S
H299 C277 0.929 . S
H300 C278 0.931 . S
H301 C280 0.930 . S
H302 C284 0.931 . S
H303 C282 0.931 . S
H304 C286 0.931 . S
H305 C287 0.929 . S
H306 C288 0.930 . S
H307 C291 0.930 . S
H308 C292 0.931 . S
H309 C296 0.928 . S
H310 C295 0.929 . S
H311 C293 0.932 . S
Nd312 C314 2.836 1_455 S
Nd312 O332 2.500 1_455 S
Nd312 O333 2.492 . S
Nd312 O334 2.487 . S
Nd312 O335 2.682 1_565 S
Nd312 O336 2.410 . S
Nd312 O341 2.431 1_455 S
Nd312 O343 2.424 1_565 S
Nd313 C323 2.836 . S
Nd313 O335 2.414 . S
Nd313 O337 2.424 1_545 S
Nd313 O338 2.500 . S
Nd313 O339 2.492 . S
Nd313 O340 2.487 1_455 S
Nd313 O341 2.678 1_445 S
Nd313 O342 2.410 . S
C314 Nd312 2.836 1_655 S
C314 C315 1.498 . S
C314 O332 1.258 . S
C314 O333 1.239 1_655 S
C315 C314 1.498 . S
C315 C316 1.366 . S
C315 C320 1.407 . S
C316 C315 1.366 . S
C316 C317 1.392 . S
C316 H344 0.930 . S
C317 C316 1.392 . S
C317 C318 1.398 . S
C317 H345 0.929 . S
C318 C317 1.398 . S
C318 C319 1.352 . S
C319 C318 1.352 . S
C319 C320 1.384 . S
C319 H346 0.930 . S
C320 C315 1.407 . S
C320 C319 1.384 . S
C320 H347 0.929 1_655 S
C321 O334 1.241 . S
C321 O335 1.273 1_565 S
C322 O336 1.251 . S
C322 O337 1.268 . S
C323 Nd313 2.836 . S
C323 C324 1.498 1_556 S
C323 O338 1.258 . S
C323 O339 1.239 . S
C324 C323 1.498 1_554 S
C324 C325 1.366 1_554 S
C324 C329 1.407 . S
C325 C324 1.366 1_556 S
C325 C326 1.392 1_556 S
C325 H348 0.930 . S
C326 C325 1.392 1_554 S
C326 C327 1.398 . S
C326 H349 0.929 . S
C327 C326 1.398 . S
C327 C328 1.352 . S
C328 C327 1.352 . S
C328 C329 1.384 . S
C328 H350 0.930 . S
C329 C324 1.407 . S
C329 C328 1.384 . S
C329 H351 0.929 . S
C330 O340 1.241 . S
C330 O341 1.249 1_545 S
C331 O342 1.251 . S
C331 O343 1.268 . S
O332 Nd312 2.500 1_655 S
O332 C314 1.258 . S
O333 Nd312 2.492 . S
O333 C314 1.239 1_455 S
O334 Nd312 2.487 . S
O334 C321 1.241 . S
O335 Nd312 2.682 1_545 S
O335 Nd313 2.414 . S
O335 C321 1.273 1_545 S
O336 Nd312 2.410 . S
O336 C322 1.251 . S
O337 Nd313 2.424 1_565 S
O337 C322 1.268 . S
O338 Nd313 2.500 . S
O338 C323 1.258 . S
O339 Nd313 2.492 . S
O339 C323 1.239 . S
O340 Nd313 2.487 1_655 S
O340 C330 1.241 . S
O341 Nd312 2.431 1_655 S
O341 Nd313 2.678 1_665 S
O341 C330 1.249 1_565 S
O342 Nd313 2.410 . S
O342 C331 1.251 . S
O343 Nd312 2.424 1_545 S
O343 C331 1.268 . S
H344 C316 0.930 . S
H345 C317 0.929 . S
H346 C319 0.930 . S
H347 C320 0.929 1_455 S
H348 C325 0.930 . S
H349 C326 0.929 . S
H350 C328 0.930 . S
H351 C329 0.929 . S
Nd352 C354 2.836 . S
Nd352 O372 2.500 . S
Nd352 O373 2.491 . S
Nd352 O374 2.487 1_565 S
Nd352 O375 2.682 1_565 S
Nd352 O376 2.410 1_565 S
Nd352 O381 2.414 . S
Nd352 O383 2.424 . S
Nd353 C363 2.836 . S
Nd353 O375 2.414 . S
Nd353 O377 2.424 . S
Nd353 O378 2.500 . S
Nd353 O379 2.492 . S
Nd353 O380 2.487 1_545 S
Nd353 O381 2.682 1_545 S
Nd353 O382 2.410 1_545 S
C354 Nd352 2.836 . S
C354 C355 1.498 . S
C354 O372 1.258 . S
C354 O373 1.277 . S
C355 C354 1.498 . S
C355 C356 1.366 . S
C355 C360 1.407 . S
C356 C355 1.366 . S
C356 C357 1.392 . S
C356 H384 0.930 . S
C357 C356 1.392 . S
C357 C358 1.398 . S
C357 H385 0.929 . S
C358 C357 1.398 . S
C358 C359 1.352 . S
C359 C358 1.352 . S
C359 C360 1.384 . S
C359 H386 0.930 . S
C360 C355 1.407 . S
C360 C359 1.384 . S
C360 H387 0.929 1_565 S
C361 O374 1.241 . S
C361 O375 1.273 . S
C362 O376 1.251 . S
C362 O377 1.268 . S
C363 Nd353 2.836 . S
C363 C364 1.498 1_556 S
C363 O378 1.258 . S
C363 O379 1.239 . S
C364 C363 1.498 1_554 S
C364 C365 1.366 1_554 S
C364 C369 1.407 . S
C365 C364 1.366 1_556 S
C365 C366 1.392 1_556 S
C365 H388 0.930 . S
C366 C365 1.392 1_554 S
C366 C367 1.398 . S
C366 H389 0.929 . S
C367 C366 1.398 . S
C367 C368 1.352 . S
C368 C367 1.352 . S
C368 C369 1.384 . S
C368 H390 0.930 . S
C369 C364 1.407 . S
C369 C368 1.384 . S
C369 H391 0.929 1_545 S
C370 O380 1.241 . S
C370 O381 1.273 . S
C371 O382 1.251 . S
C371 O383 1.268 . S
O372 Nd352 2.500 . S
O372 C354 1.258 . S
O373 Nd352 2.491 . S
O373 C354 1.277 . S
O374 Nd352 2.487 1_545 S
O374 C361 1.241 . S
O375 Nd352 2.682 1_545 S
O375 Nd353 2.414 . S
O375 C361 1.273 . S
O376 Nd352 2.410 1_545 S
O376 C362 1.251 . S
O377 Nd353 2.424 . S
O377 C362 1.268 . S
O378 Nd353 2.500 . S
O378 C363 1.258 . S
O379 Nd353 2.492 . S
O379 C363 1.239 . S
O380 Nd353 2.487 1_565 S
O380 C370 1.241 . S
O381 Nd352 2.414 . S
O381 Nd353 2.682 1_565 S
O381 C370 1.273 . S
O382 Nd353 2.410 1_565 S
O382 C371 1.251 . S
O383 Nd352 2.424 . S
O383 C371 1.268 . S
H384 C356 0.930 . S
H385 C357 0.929 . S
H386 C359 0.930 . S
H387 C360 0.929 1_545 S
H388 C365 0.930 . S
H389 C366 0.929 . S
H390 C368 0.930 . S
H391 C369 0.929 1_565 S
Nd392 C394 2.836 . S
Nd392 O412 2.500 . S
Nd392 O413 2.492 . S
Nd392 O414 2.487 . S
Nd392 O415 2.682 . S
Nd392 O416 2.410 . S
Nd392 O421 2.414 . S
Nd392 O423 2.424 . S
Nd393 C403 2.836 . S
Nd393 O415 2.414 . S
Nd393 O417 2.424 . S
Nd393 O418 2.500 . S
Nd393 O419 2.492 . S
Nd393 O420 2.487 . S
Nd393 O421 2.682 . S
Nd393 O422 2.410 . S
C394 Nd392 2.836 . S
C394 C395 1.498 . S
C394 O412 1.258 . S
C394 O413 1.239 . S
C395 C394 1.498 . S
C395 C396 1.366 . S
C395 C400 1.407 . S
C396 C395 1.366 . S
C396 C397 1.392 . S
C396 H424 0.930 . S
C397 C396 1.392 . S
C397 C398 1.398 . S
C397 H425 0.929 . S
C398 C397 1.398 . S
C398 C399 1.352 1_556 S
C399 C398 1.352 1_554 S
C399 C400 1.384 1_554 S
C399 H426 0.930 . S
C400 C395 1.407 . S
C400 C399 1.384 1_556 S
C400 H427 0.929 1_556 S
C401 O414 1.241 . S
C401 O415 1.273 . S
C402 O416 1.251 . S
C402 O417 1.268 . S
C403 Nd393 2.836 . S
C403 C404 1.498 . S
C403 O418 1.258 . S
C403 O419 1.239 . S
C404 C403 1.498 . S
C404 C405 1.366 . S
C404 C409 1.407 . S
C405 C404 1.366 . S
C405 C406 1.392 . S
C405 H428 0.930 . S
C406 C405 1.392 . S
C406 C407 1.398 . S
C406 H429 0.929 . S
C407 C406 1.398 . S
C407 C408 1.352 . S
C408 C407 1.352 . S
C408 C409 1.384 . S
C408 H430 0.930 . S
C409 C404 1.407 . S
C409 C408 1.384 . S
C409 H431 0.929 . S
C410 O420 1.241 . S
C410 O421 1.273 . S
C411 O422 1.251 . S
C411 O423 1.268 . S
O412 Nd392 2.500 . S
O412 C394 1.258 . S
O413 Nd392 2.492 . S
O413 C394 1.239 . S
O414 Nd392 2.487 . S
O414 C401 1.241 . S
O415 Nd392 2.682 . S
O415 Nd393 2.414 . S
O415 C401 1.273 . S
O416 Nd392 2.410 . S
O416 C402 1.251 . S
O417 Nd393 2.424 . S
O417 C402 1.268 . S
O418 Nd393 2.500 . S
O418 C403 1.258 . S
O419 Nd393 2.492 . S
O419 C403 1.239 . S
O420 Nd393 2.487 . S
O420 C410 1.241 . S
O421 Nd392 2.414 . S
O421 Nd393 2.682 . S
O421 C410 1.273 . S
O422 Nd393 2.410 . S
O422 C411 1.251 . S
O423 Nd392 2.424 . S
O423 C411 1.268 . S
H424 C396 0.930 . S
H425 C397 0.929 . S
H426 C399 0.930 . S
H427 C400 0.929 1_554 S
H428 C405 0.930 . S
H429 C406 0.929 . S
H430 C408 0.930 . S
H431 C409 0.929 . S
Nd432 C434 2.836 1_455 S
Nd432 O452 2.500 1_455 S
Nd432 O453 2.492 1_455 S
Nd432 O454 2.487 . S
Nd432 O455 2.682 . S
Nd432 O456 2.410 1_455 S
Nd432 O461 2.414 . S
Nd432 O463 2.424 . S
Nd433 C443 2.836 . S
Nd433 O455 2.414 . S
Nd433 O457 2.424 1_455 S
Nd433 O458 2.500 . S
Nd433 O459 2.492 . S
Nd433 O460 2.487 . S
Nd433 O461 2.682 . S
Nd433 O462 2.410 . S
C434 Nd432 2.836 1_655 S
C434 C435 1.498 . S
C434 O452 1.258 . S
C434 O453 1.239 . S
C435 C434 1.498 . S
C435 C436 1.366 . S
C435 C440 1.407 . S
C436 C435 1.366 . S
C436 C437 1.392 . S
C436 H464 0.930 . S
C437 C436 1.392 . S
C437 C438 1.398 . S
C437 H465 0.929 . S
C438 C437 1.398 . S
C438 C439 1.352 . S
C439 C438 1.352 . S
C439 C440 1.384 . S
C439 H466 0.930 . S
C440 C435 1.407 . S
C440 C439 1.384 . S
C440 H467 0.929 . S
C441 O454 1.241 . S
C441 O455 1.273 . S
C442 O456 1.251 . S
C442 O457 1.268 . S
C443 Nd433 2.836 . S
C443 C444 1.498 1_556 S
C443 O458 1.258 . S
C443 O459 1.239 . S
C444 C443 1.498 1_554 S
C444 C445 1.366 . S
C444 C449 1.407 . S
C445 C444 1.366 . S
C445 C446 1.392 . S
C445 H468 0.930 1_554 S
C446 C445 1.392 . S
C446 C447 1.398 . S
C446 H469 0.929 . S
C447 C446 1.398 . S
C447 C448 1.352 . S
C448 C447 1.352 . S
C448 C449 1.384 . S
C448 H470 0.930 . S
C449 C444 1.407 . S
C449 C448 1.384 . S
C449 H471 0.929 . S
C450 O460 1.241 . S
C450 O461 1.273 . S
C451 O462 1.251 . S
C451 O463 1.268 . S
O452 Nd432 2.500 1_655 S
O452 C434 1.258 . S
O453 Nd432 2.492 1_655 S
O453 C434 1.239 . S
O454 Nd432 2.487 . S
O454 C441 1.241 . S
O455 Nd432 2.682 . S
O455 Nd433 2.414 . S
O455 C441 1.273 . S
O456 Nd432 2.410 1_655 S
O456 C442 1.251 . S
O457 Nd433 2.424 1_655 S
O457 C442 1.268 . S
O458 Nd433 2.500 . S
O458 C443 1.258 . S
O459 Nd433 2.492 . S
O459 C443 1.239 . S
O460 Nd433 2.487 . S
O460 C450 1.241 . S
O461 Nd432 2.414 . S
O461 Nd433 2.682 . S
O461 C450 1.273 . S
O462 Nd433 2.410 . S
O462 C451 1.251 . S
O463 Nd432 2.424 . S
O463 C451 1.268 . S
H464 C436 0.930 . S
H465 C437 0.929 . S
H466 C439 0.930 . S
H467 C440 0.929 . S
H468 C445 0.930 1_556 S
H469 C446 0.929 . S
H470 C448 0.930 . S
H471 C449 0.929 . S
H472 C480 0.950 . S
H473 C485 0.950 . S
H474 C482 0.950 . S
H475 C484 0.950 . S
H476 C486 0.957 . S
H477 C488 0.950 . S
H478 C490 0.950 . S
H479 C491 0.950 . S
C480 H472 0.950 . S
C480 C481 1.386 1_565 S
C480 C482 1.391 . S
C481 C480 1.386 1_545 S
C481 C485 1.404 . S
C482 H474 0.950 . S
C482 C480 1.391 . S
C482 C483 1.411 . S
C483 C482 1.411 . S
C483 C484 1.397 1_565 S
C483 C489 1.483 . S
C484 H475 0.950 . S
C484 C483 1.397 1_545 S
C484 C485 1.391 . S
C485 H473 0.950 . S
C485 C481 1.404 . S
C485 C484 1.391 . S
C486 H476 0.957 . S
C486 C487 1.386 1_545 S
C486 C488 1.385 . S
C487 C486 1.386 1_565 S
C487 C491 1.393 . S
C488 H477 0.950 . S
C488 C486 1.385 . S
C488 C489 1.400 1_545 S
C489 C483 1.483 . S
C489 C488 1.400 1_565 S
C489 C490 1.398 . S
C490 H478 0.950 . S
C490 C489 1.398 . S
C490 C491 1.391 . S
C491 H479 0.950 . S
C491 C487 1.393 . S
C491 C490 1.391 . S
H492 C500 0.950 . S
H493 C505 0.950 . S
H494 C502 0.950 . S
H495 C504 0.950 . S
H496 C506 0.950 . S
H497 C508 0.950 . S
H498 C510 0.950 . S
H499 C511 0.950 . S
C500 H492 0.950 . S
C500 C501 1.386 . S
C500 C502 1.391 . S
C501 C500 1.386 . S
C501 C505 1.393 . S
C502 H494 0.950 . S
C502 C500 1.391 . S
C502 C503 1.400 . S
C503 C502 1.400 . S
C503 C504 1.398 . S
C503 C509 1.491 . S
C504 H495 0.950 . S
C504 C503 1.398 . S
C504 C505 1.391 . S
C505 H493 0.950 . S
C505 C501 1.393 . S
C505 C504 1.391 . S
C506 H496 0.950 . S
C506 C507 1.386 . S
C506 C508 1.391 . S
C507 C506 1.386 . S
C507 C511 1.393 . S
C508 H497 0.950 . S
C508 C506 1.391 . S
C508 C509 1.400 . S
C509 C503 1.491 . S
C509 C508 1.400 . S
C509 C510 1.398 . S
C510 H498 0.950 . S
C510 C509 1.398 . S
C510 C511 1.391 . S
C511 H499 0.950 . S
C511 C507 1.393 . S
C511 C510 1.391 . S
H512 C520 0.950 . S
H513 C525 0.950 . S
H514 C522 0.950 . S
H515 C524 0.950 . S
H516 C526 0.950 . S
H517 C528 0.950 . S
H518 C530 0.950 . S
H519 C531 0.950 . S
C520 H512 0.950 . S
C520 C521 1.386 . S
C520 C522 1.391 . S
C521 C520 1.386 . S
C521 C525 1.393 . S
C522 H514 0.950 . S
C522 C520 1.391 . S
C522 C523 1.400 . S
C523 C522 1.400 . S
C523 C524 1.398 . S
C523 C529 1.491 . S
C524 H515 0.950 . S
C524 C523 1.398 . S
C524 C525 1.391 . S
C525 H513 0.950 . S
C525 C521 1.393 . S
C525 C524 1.391 . S
C526 H516 0.950 . S
C526 C527 1.386 . S
C526 C528 1.391 . S
C527 C526 1.386 . S
C527 C531 1.393 . S
C528 H517 0.950 . S
C528 C526 1.391 . S
C528 C529 1.400 . S
C529 C523 1.491 . S
C529 C528 1.400 . S
C529 C530 1.398 . S
C530 H518 0.950 . S
C530 C529 1.398 . S
C530 C531 1.391 . S
C531 H519 0.950 . S
C531 C527 1.393 . S
C531 C530 1.391 . S
H532 C540 0.950 . S
H533 C545 0.950 . S
H534 C542 0.950 . S
H535 C544 0.950 . S
H536 C546 0.950 . S
H537 C548 0.950 . S
H538 C550 0.950 . S
H539 C551 0.950 . S
C540 H532 0.950 . S
C540 C541 1.386 . S
C540 C542 1.391 . S
C541 C540 1.386 . S
C541 C545 1.393 . S
C542 H534 0.950 . S
C542 C540 1.391 . S
C542 C543 1.400 . S
C543 C542 1.400 . S
C543 C544 1.398 . S
C543 C549 1.491 . S
C544 H535 0.950 . S
C544 C543 1.398 . S
C544 C545 1.391 . S
C545 H533 0.950 . S
C545 C541 1.393 . S
C545 C544 1.391 . S
C546 H536 0.950 . S
C546 C547 1.386 . S
C546 C548 1.391 . S
C547 C546 1.386 . S
C547 C551 1.393 . S
C548 H537 0.950 . S
C548 C546 1.391 . S
C548 C549 1.400 . S
C549 C543 1.491 . S
C549 C548 1.400 . S
C549 C550 1.398 . S
C550 H538 0.950 . S
C550 C549 1.398 . S
C550 C551 1.391 . S
C551 H539 0.950 . S
C551 C547 1.393 . S
C551 C550 1.391 . S
H552 C560 0.950 . S
H553 C565 0.950 . S
H554 C562 0.950 . S
H555 C564 0.950 . S
H556 C566 0.950 . S
H557 C568 0.950 . S
H558 C570 0.950 . S
H559 C571 0.950 . S
C560 H552 0.950 . S
C560 C561 1.373 1_545 S
C560 C562 1.391 . S
C561 C560 1.373 1_565 S
C561 C565 1.412 . S
C562 H554 0.950 . S
C562 C560 1.391 . S
C562 C563 1.400 . S
C563 C562 1.400 . S
C563 C564 1.398 1_545 S
C563 C569 1.491 . S
C564 H555 0.950 . S
C564 C563 1.398 1_565 S
C564 C565 1.391 . S
C565 H553 0.950 . S
C565 C561 1.412 . S
C565 C564 1.391 . S
C566 H556 0.950 . S
C566 C567 1.386 1_565 S
C566 C568 1.391 . S
C567 C566 1.386 1_545 S
C567 C571 1.393 . S
C568 H557 0.950 . S
C568 C566 1.391 . S
C568 C569 1.400 1_565 S
C569 C563 1.491 . S
C569 C568 1.400 1_545 S
C569 C570 1.398 . S
C570 H558 0.950 . S
C570 C569 1.398 . S
C570 C571 1.391 . S
C571 H559 0.950 . S
C571 C567 1.393 . S
C571 C570 1.391 . S
H572 C580 0.950 . S
H573 C585 0.950 . S
H574 C582 0.950 . S
H575 C584 0.950 . S
H576 C586 0.950 . S
H577 C588 0.950 . S
H578 C590 0.950 1_556 S
H579 C591 0.950 . S
C580 H572 0.950 . S
C580 C581 1.386 . S
C580 C582 1.391 . S
C581 C580 1.386 . S
C581 C585 1.393 . S
C582 H574 0.950 . S
C582 C580 1.391 . S
C582 C583 1.400 . S
C583 C582 1.400 . S
C583 C584 1.398 . S
C583 C589 1.491 . S
C584 H575 0.950 . S
C584 C583 1.398 . S
C584 C585 1.391 . S
C585 H573 0.950 . S
C585 C581 1.393 . S
C585 C584 1.391 . S
C586 H576 0.950 . S
C586 C587 1.386 1_554 S
C586 C588 1.391 . S
C587 C586 1.386 1_556 S
C587 C591 1.393 . S
C588 H577 0.950 . S
C588 C586 1.391 . S
C588 C589 1.400 . S
C589 C583 1.491 . S
C589 C588 1.400 . S
C589 C590 1.398 . S
C590 H578 0.950 1_554 S
C590 C589 1.398 . S
C590 C591 1.391 1_554 S
C591 H579 0.950 . S
C591 C587 1.393 . S
C591 C590 1.391 1_556 S
H592 C600 0.950 . S
H593 C605 0.950 1_554 S
H594 C602 0.950 . S
H595 C604 0.950 . S
H596 C606 0.950 . S
H597 C608 0.950 . S
H598 C610 0.950 . S
H599 C611 0.950 . S
C600 H592 0.950 . S
C600 C601 1.386 . S
C600 C602 1.391 . S
C601 C600 1.386 . S
C601 C605 1.393 . S
C602 H594 0.950 . S
C602 C600 1.391 . S
C602 C603 1.400 . S
C603 C602 1.400 . S
C603 C604 1.398 . S
C603 C609 1.491 . S
C604 H595 0.950 . S
C604 C603 1.398 . S
C604 C605 1.391 . S
C605 H593 0.950 1_556 S
C605 C601 1.393 . S
C605 C604 1.391 . S
C606 H596 0.950 . S
C606 C607 1.386 . S
C606 C608 1.391 . S
C607 C606 1.386 . S
C607 C611 1.393 . S
C608 H597 0.950 . S
C608 C606 1.391 . S
C608 C609 1.400 . S
C609 C603 1.491 . S
C609 C608 1.400 . S
C609 C610 1.398 . S
C610 H598 0.950 . S
C610 C609 1.398 . S
C610 C611 1.391 . S
C611 H599 0.950 . S
C611 C607 1.393 . S
C611 C610 1.391 . S
H612 C620 0.950 . S
H613 C625 0.950 . S
H614 C622 0.950 . S
H615 C624 0.950 . S
H616 C626 0.950 . S
H617 C628 0.950 . S
H618 C630 0.950 1_554 S
H619 C631 0.950 . S
C620 H612 0.950 . S
C620 C621 1.386 1_554 S
C620 C622 1.391 . S
C621 C620 1.386 1_556 S
C621 C625 1.393 . S
C622 H614 0.950 . S
C622 C620 1.391 . S
C622 C623 1.400 1_554 S
C623 C622 1.400 1_556 S
C623 C624 1.398 . S
C623 C629 1.491 . S
C624 H615 0.950 . S
C624 C623 1.398 . S
C624 C625 1.391 . S
C625 H613 0.950 . S
C625 C621 1.393 . S
C625 C624 1.391 . S
C626 H616 0.950 . S
C626 C627 1.386 . S
C626 C628 1.391 . S
C627 C626 1.386 . S
C627 C631 1.393 . S
C628 H617 0.950 . S
C628 C626 1.391 . S
C628 C629 1.400 . S
C629 C623 1.491 . S
C629 C628 1.400 . S
C629 C630 1.398 . S
C630 H618 0.950 1_556 S
C630 C629 1.398 . S
C630 C631 1.391 . S
C631 H619 0.950 . S
C631 C627 1.393 . S
C631 C630 1.391 . S
H632 C640 0.950 . S
H633 C645 0.950 . S
H634 C642 0.950 . S
H635 C644 0.950 . S
H636 C646 0.950 . S
H637 C648 0.950 . S
H638 C650 0.950 . S
H639 C651 0.950 . S
C640 H632 0.950 . S
C640 C641 1.386 . S
C640 C642 1.391 . S
C641 C640 1.386 . S
C641 C645 1.393 . S
C642 H634 0.950 . S
C642 C640 1.391 . S
C642 C643 1.400 . S
C643 C642 1.400 . S
C643 C644 1.398 . S
C643 C649 1.491 . S
C644 H635 0.950 . S
C644 C643 1.398 . S
C644 C645 1.391 . S
C645 H633 0.950 . S
C645 C641 1.393 . S
C645 C644 1.391 . S
C646 H636 0.950 . S
C646 C647 1.386 . S
C646 C648 1.391 . S
C647 C646 1.386 . S
C647 C651 1.393 . S
C648 H637 0.950 . S
C648 C646 1.391 . S
C648 C649 1.400 . S
C649 C643 1.491 . S
C649 C648 1.400 . S
C649 C650 1.398 . S
C650 H638 0.950 . S
C650 C649 1.398 . S
C650 C651 1.391 . S
C651 H639 0.950 . S
C651 C647 1.393 . S
C651 C650 1.391 . S
H652 C660 0.945 1_545 S
H653 C665 0.937 1_545 S
H654 C662 0.950 . S
H655 C664 0.950 . S
H656 C666 0.950 . S
H657 C668 0.950 . S
H658 C670 0.950 . S
H659 C671 0.950 . S
C660 H652 0.945 1_565 S
C660 C661 1.367 1_565 S
C660 C662 1.411 . S
C661 C660 1.367 1_545 S
C661 C665 1.389 1_545 S
C662 H654 0.950 . S
C662 C660 1.411 . S
C662 C663 1.400 . S
C663 C662 1.400 . S
C663 C664 1.398 . S
C663 C669 1.491 . S
C664 H655 0.950 . S
C664 C663 1.398 . S
C664 C665 1.404 . S
C665 H653 0.937 1_565 S
C665 C661 1.389 1_565 S
C665 C664 1.404 . S
C666 H656 0.950 . S
C666 C667 1.386 . S
C666 C668 1.391 . S
C667 C666 1.386 . S
C667 C671 1.393 . S
C668 H657 0.950 . S
C668 C666 1.391 . S
C668 C669 1.400 . S
C669 C663 1.491 . S
C669 C668 1.400 . S
C669 C670 1.398 . S
C670 H658 0.950 . S
C670 C669 1.398 . S
C670 C671 1.391 . S
C671 H659 0.950 . S
C671 C667 1.393 . S
C671 C670 1.391 . S
H672 C680 0.950 . S
H673 C685 0.950 . S
H674 C682 0.950 . S
H675 C684 0.950 . S
H676 C686 0.950 . S
H677 C688 0.950 . S
H678 C690 0.950 . S
H679 C691 0.950 . S
C680 H672 0.950 . S
C680 C681 1.386 . S
C680 C682 1.391 . S
C681 C680 1.386 . S
C681 C685 1.393 . S
C682 H674 0.950 . S
C682 C680 1.391 . S
C682 C683 1.400 . S
C683 C682 1.400 . S
C683 C684 1.398 . S
C683 C689 1.491 . S
C684 H675 0.950 . S
C684 C683 1.398 . S
C684 C685 1.391 . S
C685 H673 0.950 . S
C685 C681 1.393 . S
C685 C684 1.391 . S
C686 H676 0.950 . S
C686 C687 1.386 . S
C686 C688 1.391 . S
C687 C686 1.386 . S
C687 C691 1.393 . S
C688 H677 0.950 . S
C688 C686 1.391 . S
C688 C689 1.400 . S
C689 C683 1.491 . S
C689 C688 1.400 . S
C689 C690 1.398 . S
C690 H678 0.950 . S
C690 C689 1.398 . S
C690 C691 1.391 . S
C691 H679 0.950 . S
C691 C687 1.393 . S
C691 C690 1.391 . S
H692 C700 0.950 . S
H693 C705 0.950 . S
H694 C702 0.950 . S
H695 C704 0.950 . S
H696 C706 0.950 . S
H697 C708 0.950 . S
H698 C710 0.950 . S
H699 C711 0.950 . S
C700 H692 0.950 . S
C700 C701 1.386 . S
C700 C702 1.391 . S
C701 C700 1.386 . S
C701 C705 1.393 . S
C702 H694 0.950 . S
C702 C700 1.391 . S
C702 C703 1.400 . S
C703 C702 1.400 . S
C703 C704 1.398 . S
C703 C709 1.491 . S
C704 H695 0.950 . S
C704 C703 1.398 . S
C704 C705 1.391 . S
C705 H693 0.950 . S
C705 C701 1.393 . S
C705 C704 1.391 . S
C706 H696 0.950 . S
C706 C707 1.386 . S
C706 C708 1.391 . S
C707 C706 1.386 . S
C707 C711 1.393 . S
C708 H697 0.950 . S
C708 C706 1.391 . S
C708 C709 1.400 . S
C709 C703 1.491 . S
C709 C708 1.400 . S
C709 C710 1.398 . S
C710 H698 0.950 . S
C710 C709 1.398 . S
C710 C711 1.391 . S
C711 H699 0.950 . S
C711 C707 1.393 . S
C711 C710 1.391 . S
H712 C720 0.950 . S
H713 C725 0.950 . S
H714 C722 0.950 . S
H715 C724 0.950 . S
H716 C726 0.950 1_455 S
H717 C728 0.950 . S
H718 C730 0.950 . S
H719 C731 0.950 . S
C720 H712 0.950 . S
C720 C721 1.386 . S
C720 C722 1.391 . S
C721 C720 1.386 . S
C721 C725 1.393 . S
C722 H714 0.950 . S
C722 C720 1.391 . S
C722 C723 1.400 . S
C723 C722 1.400 . S
C723 C724 1.398 . S
C723 C729 1.491 . S
C724 H715 0.950 . S
C724 C723 1.398 . S
C724 C725 1.391 . S
C725 H713 0.950 . S
C725 C721 1.393 . S
C725 C724 1.391 . S
C726 H716 0.950 1_655 S
C726 C727 1.386 . S
C726 C728 1.391 . S
C727 C726 1.386 . S
C727 C731 1.393 . S
C728 H717 0.950 . S
C728 C726 1.391 . S
C728 C729 1.400 . S
C729 C723 1.491 . S
C729 C728 1.400 . S
C729 C730 1.398 . S
C730 H718 0.950 . S
C730 C729 1.398 . S
C730 C731 1.391 . S
C731 H719 0.950 . S
C731 C727 1.393 . S
C731 C730 1.391 . S
H732 C740 0.950 . S
H733 C745 0.950 . S
H734 C742 0.950 . S
H735 C744 0.950 . S
H736 C746 0.950 . S
H737 C748 0.950 . S
H738 C750 0.950 . S
H739 C751 0.950 . S
C740 H732 0.950 . S
C740 C741 1.386 . S
C740 C742 1.391 1_565 S
C741 C740 1.386 . S
C741 C745 1.388 1_565 S
C742 H734 0.950 . S
C742 C740 1.391 1_545 S
C742 C743 1.400 . S
C743 C742 1.400 . S
C743 C744 1.398 . S
C743 C749 1.491 . S
C744 H735 0.950 . S
C744 C743 1.398 . S
C744 C745 1.391 . S
C745 H733 0.950 . S
C745 C741 1.388 1_545 S
C745 C744 1.391 . S
C746 H736 0.950 . S
C746 C747 1.386 . S
C746 C748 1.391 . S
C747 C746 1.386 . S
C747 C751 1.393 . S
C748 H737 0.950 . S
C748 C746 1.391 . S
C748 C749 1.400 . S
C749 C743 1.491 . S
C749 C748 1.400 . S
C749 C750 1.398 . S
C750 H738 0.950 . S
C750 C749 1.398 . S
C750 C751 1.391 . S
C751 H739 0.950 . S
C751 C747 1.393 . S
C751 C750 1.391 . S
H752 C760 0.950 . S
H753 C765 0.950 . S
H754 C762 0.950 . S
H755 C764 0.950 . S
H756 C766 0.950 . S
H757 C768 0.950 1_556 S
H758 C770 0.950 . S
H759 C771 0.950 . S
C760 H752 0.950 . S
C760 C761 1.386 . S
C760 C762 1.391 . S
C761 C760 1.386 . S
C761 C765 1.393 . S
C762 H754 0.950 . S
C762 C760 1.391 . S
C762 C763 1.400 . S
C763 C762 1.400 . S
C763 C764 1.398 . S
C763 C769 1.491 . S
C764 H755 0.950 . S
C764 C763 1.398 . S
C764 C765 1.391 . S
C765 H753 0.950 . S
C765 C761 1.393 . S
C765 C764 1.391 . S
C766 H756 0.950 . S
C766 C767 1.386 1_556 S
C766 C768 1.391 1_556 S
C767 C766 1.386 1_554 S
C767 C771 1.393 . S
C768 H757 0.950 1_554 S
C768 C766 1.391 1_554 S
C768 C769 1.400 . S
C769 C763 1.491 . S
C769 C768 1.400 . S
C769 C770 1.398 . S
C770 H758 0.950 . S
C770 C769 1.398 . S
C770 C771 1.391 . S
C771 H759 0.950 . S
C771 C767 1.393 . S
C771 C770 1.391 . S
H772 C780 0.950 . S
H773 C785 0.950 . S
H774 C782 0.950 . S
H775 C784 0.950 . S
H776 C786 0.950 . S
H777 C788 0.950 . S
H778 C790 0.950 . S
H779 C791 0.950 . S
C780 H772 0.950 . S
C780 C781 1.386 . S
C780 C782 1.391 . S
C781 C780 1.386 . S
C781 C785 1.393 . S
C782 H774 0.950 . S
C782 C780 1.391 . S
C782 C783 1.400 . S
C783 C782 1.400 . S
C783 C784 1.398 . S
C783 C789 1.491 . S
C784 H775 0.950 . S
C784 C783 1.398 . S
C784 C785 1.391 . S
C785 H773 0.950 . S
C785 C781 1.393 . S
C785 C784 1.391 . S
C786 H776 0.950 . S
C786 C787 1.386 . S
C786 C788 1.391 . S
C787 C786 1.386 . S
C787 C791 1.393 . S
C788 H777 0.950 . S
C788 C786 1.391 . S
C788 C789 1.400 . S
C789 C783 1.491 . S
C789 C788 1.400 . S
C789 C790 1.398 . S
C790 H778 0.950 . S
C790 C789 1.398 . S
C790 C791 1.391 . S
C791 H779 0.950 . S
C791 C787 1.393 . S
C791 C790 1.391 . S
H792 C800 0.950 . S
H793 C805 0.950 . S
H794 C802 0.950 . S
H795 C804 0.950 . S
H796 C806 0.950 . S
H797 C808 0.950 . S
H798 C810 0.950 . S
H799 C811 0.950 . S
C800 H792 0.950 . S
C800 C801 1.386 . S
C800 C802 1.391 . S
C801 C800 1.386 . S
C801 C805 1.393 . S
C802 H794 0.950 . S
C802 C800 1.391 . S
C802 C803 1.400 . S
C803 C802 1.400 . S
C803 C804 1.398 . S
C803 C809 1.491 . S
C804 H795 0.950 . S
C804 C803 1.398 . S
C804 C805 1.391 . S
C805 H793 0.950 . S
C805 C801 1.393 . S
C805 C804 1.391 . S
C806 H796 0.950 . S
C806 C807 1.386 . S
C806 C808 1.391 . S
C807 C806 1.386 . S
C807 C811 1.393 . S
C808 H797 0.950 . S
C808 C806 1.391 . S
C808 C809 1.400 . S
C809 C803 1.491 . S
C809 C808 1.400 . S
C809 C810 1.398 . S
C810 H798 0.950 . S
C810 C809 1.398 . S
C810 C811 1.391 . S
C811 H799 0.950 . S
C811 C807 1.393 . S
C811 C810 1.391 . S
H812 C820 0.950 . S
H813 C825 0.950 . S
H814 C822 0.950 . S
H815 C824 0.950 . S
H816 C826 0.950 . S
H817 C828 0.950 . S
H818 C830 0.988 . S
H819 C831 0.950 1_565 S
C820 H812 0.950 . S
C820 C821 1.386 1_565 S
C820 C822 1.391 . S
C821 C820 1.386 1_545 S
C821 C825 1.393 . S
C822 H814 0.950 . S
C822 C820 1.391 . S
C822 C823 1.400 1_565 S
C823 C822 1.400 1_545 S
C823 C824 1.398 . S
C823 C829 1.491 . S
C824 H815 0.950 . S
C824 C823 1.398 . S
C824 C825 1.391 . S
C825 H813 0.950 . S
C825 C821 1.393 . S
C825 C824 1.391 . S
C826 H816 0.950 . S
C826 C827 1.386 . S
C826 C828 1.391 . S
C827 C826 1.386 . S
C827 C831 1.393 . S
C828 H817 0.950 . S
C828 C826 1.391 . S
C828 C829 1.400 . S
C829 C823 1.491 . S
C829 C828 1.400 . S
C829 C830 1.357 1_545 S
C830 H818 0.988 . S
C830 C829 1.357 1_565 S
C830 C831 1.397 1_565 S
C831 H819 0.950 1_545 S
C831 C827 1.393 . S
C831 C830 1.397 1_545 S
H832 C840 0.950 . S
H833 C845 0.950 . S
H834 C842 0.950 . S
H835 C844 0.950 . S
H836 C846 0.950 1_554 S
H837 C848 0.950 1_554 S
H838 C850 0.950 . S
H839 C851 0.950 . S
C840 H832 0.950 . S
C840 C841 1.386 1_556 S
C840 C842 1.391 . S
C841 C840 1.386 1_554 S
C841 C845 1.393 . S
C842 H834 0.950 . S
C842 C840 1.391 . S
C842 C843 1.400 . S
C843 C842 1.400 . S
C843 C844 1.398 1_556 S
C843 C849 1.491 . S
C844 H835 0.950 . S
C844 C843 1.398 1_554 S
C844 C845 1.391 . S
C845 H833 0.950 . S
C845 C841 1.393 . S
C845 C844 1.391 . S
C846 H836 0.950 1_556 S
C846 C847 1.386 . S
C846 C848 1.391 . S
C847 C846 1.386 . S
C847 C851 1.393 . S
C848 H837 0.950 1_556 S
C848 C846 1.391 . S
C848 C849 1.400 . S
C849 C843 1.491 . S
C849 C848 1.400 . S
C849 C850 1.398 . S
C850 H838 0.950 . S
C850 C849 1.398 . S
C850 C851 1.391 . S
C851 H839 0.950 . S
C851 C847 1.393 . S
C851 C850 1.391 . S
H852 C860 0.950 . S
H853 C865 0.950 . S
H854 C862 0.950 . S
H855 C864 0.950 . S
H856 C866 0.950 . S
H857 C868 0.950 . S
H858 C870 0.950 . S
H859 C871 0.950 . S
C860 H852 0.950 . S
C860 C861 1.386 . S
C860 C862 1.391 . S
C861 C860 1.386 . S
C861 C865 1.393 . S
C862 H854 0.950 . S
C862 C860 1.391 . S
C862 C863 1.400 . S
C863 C862 1.400 . S
C863 C864 1.398 . S
C863 C869 1.491 . S
C864 H855 0.950 . S
C864 C863 1.398 . S
C864 C865 1.391 . S
C865 H853 0.950 . S
C865 C861 1.393 . S
C865 C864 1.391 . S
C866 H856 0.950 . S
C866 C867 1.386 . S
C866 C868 1.391 . S
C867 C866 1.386 . S
C867 C871 1.393 . S
C868 H857 0.950 . S
C868 C866 1.391 . S
C868 C869 1.400 . S
C869 C863 1.491 . S
C869 C868 1.400 . S
C869 C870 1.398 . S
C870 H858 0.950 . S
C870 C869 1.398 . S
C870 C871 1.391 . S
C871 H859 0.950 . S
C871 C867 1.393 . S
C871 C870 1.391 . S
H872 C880 0.950 . S
H873 C885 0.950 . S
H874 C882 0.950 . S
H875 C884 0.950 . S
H876 C886 0.950 . S
H877 C888 0.950 . S
H878 C890 0.950 . S
H879 C891 0.950 . S
C880 H872 0.950 . S
C880 C881 1.386 . S
C880 C882 1.391 . S
C881 C880 1.386 . S
C881 C885 1.393 . S
C882 H874 0.950 . S
C882 C880 1.391 . S
C882 C883 1.400 . S
C883 C882 1.400 . S
C883 C884 1.398 . S
C883 C889 1.491 . S
C884 H875 0.950 . S
C884 C883 1.398 . S
C884 C885 1.391 . S
C885 H873 0.950 . S
C885 C881 1.393 . S
C885 C884 1.391 . S
C886 H876 0.950 . S
C886 C887 1.386 . S
C886 C888 1.391 . S
C887 C886 1.386 . S
C887 C891 1.393 . S
C888 H877 0.950 . S
C888 C886 1.391 . S
C888 C889 1.400 . S
C889 C883 1.491 . S
C889 C888 1.400 . S
C889 C890 1.398 . S
C890 H878 0.950 . S
C890 C889 1.398 . S
C890 C891 1.391 . S
C891 H879 0.950 . S
C891 C887 1.393 . S
C891 C890 1.391 . S
H892 C900 0.950 . S
H893 C905 0.950 . S
H894 C902 0.950 . S
H895 C904 0.950 1_545 S
H896 C906 0.950 . S
H897 C908 0.950 . S
H898 C910 0.950 . S
H899 C911 0.950 . S
C900 H892 0.950 . S
C900 C901 1.386 . S
C900 C902 1.391 . S
C901 C900 1.386 . S
C901 C905 1.393 1_565 S
C902 H894 0.950 . S
C902 C900 1.391 . S
C902 C903 1.400 . S
C903 C902 1.400 . S
C903 C904 1.398 . S
C903 C909 1.491 . S
C904 H895 0.950 1_565 S
C904 C903 1.398 . S
C904 C905 1.391 1_565 S
C905 H893 0.950 . S
C905 C901 1.393 1_545 S
C905 C904 1.391 1_545 S
C906 H896 0.950 . S
C906 C907 1.386 . S
C906 C908 1.391 . S
C907 C906 1.386 . S
C907 C911 1.393 . S
C908 H897 0.950 . S
C908 C906 1.391 . S
C908 C909 1.400 . S
C909 C903 1.491 . S
C909 C908 1.400 . S
C909 C910 1.398 . S
C910 H898 0.950 . S
C910 C909 1.398 . S
C910 C911 1.391 . S
C911 H899 0.950 . S
C911 C907 1.393 . S
C911 C910 1.391 . S
H912 C920 0.950 . S
H913 C925 0.950 . S
H914 C922 0.950 . S
H915 C924 0.950 . S
H916 C926 0.950 . S
H917 C928 0.950 . S
H918 C930 0.950 . S
H919 C931 0.950 . S
C920 H912 0.950 . S
C920 C921 1.386 . S
C920 C922 1.391 . S
C921 C920 1.386 . S
C921 C925 1.393 . S
C922 H914 0.950 . S
C922 C920 1.391 . S
C922 C923 1.400 . S
C923 C922 1.400 . S
C923 C924 1.398 . S
C923 C929 1.491 . S
C924 H915 0.950 . S
C924 C923 1.398 . S
C924 C925 1.391 . S
C925 H913 0.950 . S
C925 C921 1.393 . S
C925 C924 1.391 . S
C926 H916 0.950 . S
C926 C927 1.386 . S
C926 C928 1.391 . S
C927 C926 1.386 . S
C927 C931 1.393 . S
C928 H917 0.950 . S
C928 C926 1.391 . S
C928 C929 1.400 . S
C929 C923 1.491 . S
C929 C928 1.400 . S
C929 C930 1.398 . S
C930 H918 0.950 . S
C930 C929 1.398 . S
C930 C931 1.391 . S
C931 H919 0.950 . S
C931 C927 1.393 . S
C931 C930 1.391 . S
H932 C940 0.950 . S
H933 C945 0.950 . S
H934 C942 0.950 . S
H935 C944 0.950 . S
H936 C946 0.950 . S
H937 C948 0.950 . S
H938 C950 0.950 . S
H939 C951 0.950 . S
C940 H932 0.950 . S
C940 C941 1.386 . S
C940 C942 1.391 . S
C941 C940 1.386 . S
C941 C945 1.393 . S
C942 H934 0.950 . S
C942 C940 1.391 . S
C942 C943 1.400 . S
C943 C942 1.400 . S
C943 C944 1.398 . S
C943 C949 1.491 . S
C944 H935 0.950 . S
C944 C943 1.398 . S
C944 C945 1.391 . S
C945 H933 0.950 . S
C945 C941 1.393 . S
C945 C944 1.391 . S
C946 H936 0.950 . S
C946 C947 1.386 . S
C946 C948 1.391 . S
C947 C946 1.386 . S
C947 C951 1.393 . S
C948 H937 0.950 . S
C948 C946 1.391 . S
C948 C949 1.400 . S
C949 C943 1.491 . S
C949 C948 1.400 . S
C949 C950 1.398 . S
C950 H938 0.950 . S
C950 C949 1.398 . S
C950 C951 1.391 . S
C951 H939 0.950 . S
C951 C947 1.393 . S
C951 C950 1.391 . S
C481 C255 0.924 1_545 S
C487 C321 0.909 . S
C507 C361 1.951 . S
C501 C294 1.983 . S
C527 C410 1.690 . S
C521 C177 1.692 . S
C547 C441 2.189 . S
C541 C216 2.195 . S
C567 C330 0.924 . S
C561 C99 0.938 . S
C581 C138 1.949 . S
C587 C370 1.947 . S
C601 C21 1.673 1_556 S
C607 C401 1.671 . S
C621 C60 2.220 1_556 S
C627 C450 2.192 1_655 S
C647 C331 1.477 . S
C641 C196 1.262 . S
C667 C371 0.925 . S
C661 C235 0.871 1_545 S
C687 C407 0.634 . S
C681 C289 0.659 . S
C701 C157 1.403 . S
C707 C451 1.554 . S
C721 C40 1.244 . S
C727 C322 1.471 1_655 S
C747 C362 0.922 . S
C741 C79 0.858 . S
C767 C398 0.599 1_554 S
C761 C133 0.599 . S
C781 C1 1.395 . S
C787 C442 1.554 . S
C801 C211 2.083 . S
C807 C327 2.209 . S
C821 C250 1.704 . S
C827 C367 1.730 . S
C847 C411 2.932 . S
C841 C274 2.637 . S
C867 C447 1.811 . S
C861 C172 1.738 . S
C881 C55 2.095 . S
C887 C318 2.217 . S
C907 C358 1.723 . S
C901 C94 1.698 1_565 S
C927 C402 2.931 . S
C921 C118 2.633 . S
C941 C16 1.743 . S
C947 C438 1.811 . S
