# Generated by pormake.
# Topology cml, (3,6)-cn, num edge types: 1
# Building blocks:
#     Node 0, Type 0, BuildingBlock: MIDCAF_clean_linker_0, # of connection points: 3
#     Node 1, Type 0, BuildingBlock: MIDCAF_clean_linker_0, # of connection points: 3
#     Node 2, Type 0, BuildingBlock: MIDCAF_clean_linker_0, # of connection points: 3
#     Node 3, Type 0, BuildingBlock: MIDCAF_clean_linker_0, # of connection points: 3
#     Node 4, Type 0, BuildingBlock: MIDCAF_clean_linker_0, # of connection points: 3
#     Node 5, Type 0, BuildingBlock: MIDCAF_clean_linker_0, # of connection points: 3
#     Node 6, Type 0, BuildingBlock: MIDCAF_clean_linker_0, # of connection points: 3
#     Node 7, Type 0, BuildingBlock: MIDCAF_clean_linker_0, # of connection points: 3
#     Node 8, Type 1, BuildingBlock: IZENUY_clean_sbu_0, # of connection points: 6
#     Node 9, Type 1, BuildingBlock: IZENUY_clean_sbu_0, # of connection points: 6
#     Node 10, Type 1, BuildingBlock: IZENUY_clean_sbu_0, # of connection points: 6
#     Node 11, Type 1, BuildingBlock: IZENUY_clean_sbu_0, # of connection points: 6
#     Edge 12, Type (0, 1), BuildingBlock: AJUNOK_clean_linker_0, # of connection points: 2
#     Edge 13, Type (0, 1), BuildingBlock: AJUNOK_clean_linker_0, # of connection points: 2
#     Edge 14, Type (0, 1), BuildingBlock: AJUNOK_clean_linker_0, # of connection points: 2
#     Edge 15, Type (0, 1), BuildingBlock: AJUNOK_clean_linker_0, # of connection points: 2
#     Edge 16, Type (0, 1), BuildingBlock: AJUNOK_clean_linker_0, # of connection points: 2
#     Edge 17, Type (0, 1), BuildingBlock: AJUNOK_clean_linker_0, # of connection points: 2
#     Edge 18, Type (0, 1), BuildingBlock: AJUNOK_clean_linker_0, # of connection points: 2
#     Edge 19, Type (0, 1), BuildingBlock: AJUNOK_clean_linker_0, # of connection points: 2
#     Edge 20, Type (0, 1), BuildingBlock: AJUNOK_clean_linker_0, # of connection points: 2
#     Edge 21, Type (0, 1), BuildingBlock: AJUNOK_clean_linker_0, # of connection points: 2
#     Edge 22, Type (0, 1), BuildingBlock: AJUNOK_clean_linker_0, # of connection points: 2
#     Edge 23, Type (0, 1), BuildingBlock: AJUNOK_clean_linker_0, # of connection points: 2
#     Edge 24, Type (0, 1), BuildingBlock: AJUNOK_clean_linker_0, # of connection points: 2
#     Edge 25, Type (0, 1), BuildingBlock: AJUNOK_clean_linker_0, # of connection points: 2
#     Edge 26, Type (0, 1), BuildingBlock: AJUNOK_clean_linker_0, # of connection points: 2
#     Edge 27, Type (0, 1), BuildingBlock: AJUNOK_clean_linker_0, # of connection points: 2
#     Edge 28, Type (0, 1), BuildingBlock: AJUNOK_clean_linker_0, # of connection points: 2
#     Edge 29, Type (0, 1), BuildingBlock: AJUNOK_clean_linker_0, # of connection points: 2
#     Edge 30, Type (0, 1), BuildingBlock: AJUNOK_clean_linker_0, # of connection points: 2
#     Edge 31, Type (0, 1), BuildingBlock: AJUNOK_clean_linker_0, # of connection points: 2
#     Edge 32, Type (0, 1), BuildingBlock: AJUNOK_clean_linker_0, # of connection points: 2
#     Edge 33, Type (0, 1), BuildingBlock: AJUNOK_clean_linker_0, # of connection points: 2
#     Edge 34, Type (0, 1), BuildingBlock: AJUNOK_clean_linker_0, # of connection points: 2
#     Edge 35, Type (0, 1), BuildingBlock: AJUNOK_clean_linker_0, # of connection points: 2
# Relax obj value: 0.057
# Max RMSD: 0.073
# Mean RMSD: 0.069
data_MOF--net-cml--node1-IZENUY_clean_sbu_0--node2-MIDCAF_clean_linker_0--edge1-AJUNOK_clean_linker_0
_symmetry_space_group_name_H-M    P1
_symmetry_Int_Tables_number       1
_symmetry_cell_setting            triclinic
loop_
_symmetry_equiv_pos_as_xyz
'x, y, z'
_cell_length_a     33.719867
_cell_length_b     39.360491
_cell_length_c     36.688111
_cell_angle_alpha  90.050337
_cell_angle_beta   89.997912
_cell_angle_gamma 90.063142
loop_
_atom_site_label
_atom_site_type_symbol
_atom_site_fract_x
_atom_site_fract_y
_atom_site_fract_z
_atom_type_partial_charge
C0 C 0.36237 0.39378 0.12757 0.0
C1 C 0.35499 0.36343 0.14644 0.0
C2 C 0.32872 0.33957 0.13114 0.0
C3 C 0.3109 0.34572 0.09724 0.0
H4 H 0.25289 0.29807 0.00491 0.0
H5 H 0.2056 0.25898 0.97697 0.0
H6 H 0.15769 0.34136 0.91293 0.0
H7 H 0.20641 0.37995 0.93932 0.0
H8 H 0.31237 0.42366 0.91579 0.0
H9 H 0.34636 0.47071 0.88537 0.0
H10 H 0.34895 0.5262 0.98703 0.0
H11 H 0.31705 0.47857 0.0176 0.0
H12 H 0.35164 0.42353 0.08013 0.0
H13 H 0.38268 0.41254 0.13851 0.0
H14 H 0.32198 0.31616 0.14536 0.0
H15 H 0.29115 0.32669 0.08599 0.0
N16 N 0.27657 0.35988 0.02534 0.0
N17 N 0.27317 0.39455 0.97319 0.0
N18 N 0.31243 0.41082 0.0229 0.0
C19 C 0.26185 0.36601 0.99137 0.0
C20 C 0.29844 0.41706 0.98893 0.0
C21 C 0.30189 0.38234 0.04132 0.0
C22 C 0.2333 0.34213 0.97444 0.0
C23 C 0.23224 0.3078 0.98486 0.0
C24 C 0.20489 0.28546 0.96905 0.0
C25 C 0.17726 0.29714 0.94319 0.0
C26 C 0.17864 0.33145 0.9326 0.0
C27 C 0.2065 0.35361 0.94783 0.0
C28 C 0.31251 0.44738 0.96909 0.0
C29 C 0.31957 0.44623 0.93137 0.0
C30 C 0.33881 0.47328 0.91392 0.0
C31 C 0.35049 0.5022 0.93381 0.0
C32 C 0.34093 0.50407 0.97106 0.0
C33 C 0.32255 0.47685 0.98856 0.0
C34 C 0.31899 0.37588 0.07802 0.0
C35 C 0.34465 0.39994 0.09389 0.0
C36 C 0.66154 0.60952 0.63651 0.0
C37 C 0.66397 0.64179 0.65265 0.0
C38 C 0.68398 0.66791 0.63412 0.0
C39 C 0.70092 0.66188 0.59984 0.0
H40 H 0.78894 0.69397 0.52573 0.0
H41 H 0.83693 0.73197 0.49755 0.0
H42 H 0.82025 0.68124 0.39431 0.0
H43 H 0.77288 0.64248 0.42256 0.0
H44 H 0.69913 0.58295 0.41856 0.0
H45 H 0.66492 0.53609 0.38784 0.0
H46 H 0.6552 0.48306 0.49048 0.0
H47 H 0.68772 0.53023 0.52125 0.0
H48 H 0.67501 0.57845 0.59049 0.0
H49 H 0.6456 0.5891 0.64984 0.0
H50 H 0.68611 0.69306 0.64597 0.0
H51 H 0.71559 0.68264 0.58594 0.0
N52 N 0.73693 0.64612 0.52906 0.0
N53 N 0.73566 0.61312 0.47561 0.0
N54 N 0.69983 0.59585 0.5271 0.0
C55 C 0.749 0.64092 0.49406 0.0
C56 C 0.71122 0.59039 0.49214 0.0
C57 C 0.71227 0.62366 0.54573 0.0
C58 C 0.77692 0.66507 0.47647 0.0
C59 C 0.79518 0.69097 0.49695 0.0
C60 C 0.82254 0.71297 0.48075 0.0
C61 C 0.83201 0.70986 0.44361 0.0
C62 C 0.8136 0.68418 0.42303 0.0
C63 C 0.78638 0.66203 0.43925 0.0
C64 C 0.69568 0.56043 0.47236 0.0
C65 C 0.69021 0.56101 0.43438 0.0
C66 C 0.67084 0.53408 0.41676 0.0
C67 C 0.65726 0.50588 0.43676 0.0
C68 C 0.66476 0.50464 0.4744 0.0
C69 C 0.68347 0.53165 0.49202 0.0
C70 C 0.6976 0.62973 0.58329 0.0
C71 C 0.67812 0.60355 0.60229 0.0
C72 C 0.63608 0.38006 0.12427 0.0
C73 C 0.65184 0.35484 0.147 0.0
C74 C 0.68338 0.3348 0.13418 0.0
C75 C 0.70002 0.34111 0.0997 0.0
H76 H 0.77034 0.30102 0.01315 0.0
H77 H 0.81812 0.2642 0.98271 0.0
H78 H 0.83695 0.3408 0.90038 0.0
H79 H 0.78859 0.37742 0.93013 0.0
H80 H 0.72433 0.43936 0.92431 0.0
H81 H 0.69709 0.49039 0.89554 0.0
H82 H 0.6359 0.51532 0.99535 0.0
H83 H 0.66334 0.46527 0.02426 0.0
H84 H 0.63969 0.40646 0.07387 0.0
H85 H 0.61102 0.39522 0.13305 0.0
H86 H 0.69575 0.31496 0.15114 0.0
H87 H 0.72496 0.32593 0.09076 0.0
N88 N 0.7303 0.35589 0.02541 0.0
N89 N 0.73549 0.39482 0.97692 0.0
N90 N 0.69331 0.40618 0.02598 0.0
C91 C 0.7464 0.36489 0.99268 0.0
C92 C 0.70898 0.41567 0.99358 0.0
C93 C 0.70355 0.37651 0.04215 0.0
C94 C 0.77542 0.34227 0.97415 0.0
C95 C 0.78446 0.31005 0.98848 0.0
C96 C 0.81191 0.28891 0.97107 0.0
C97 C 0.831 0.29943 0.93894 0.0
C98 C 0.82207 0.33162 0.92462 0.0
C99 C 0.79452 0.35273 0.94192 0.0
C100 C 0.69586 0.44797 0.97655 0.0
C101 C 0.70563 0.45604 0.9403 0.0
C102 C 0.69004 0.48522 0.9238 0.0
C103 C 0.66471 0.50703 0.94332 0.0
C104 C 0.65605 0.49951 0.97984 0.0
C105 C 0.67148 0.47046 0.99626 0.0
C106 C 0.68518 0.36748 0.07764 0.0
C107 C 0.65256 0.38639 0.09021 0.0
C108 C 0.34143 0.61045 0.64201 0.0
C109 C 0.34989 0.64398 0.65265 0.0
C110 C 0.33604 0.67088 0.63088 0.0
C111 C 0.3161 0.66417 0.59804 0.0
H112 H 0.20501 0.68052 0.52587 0.0
H113 H 0.15793 0.71668 0.49379 0.0
H114 H 0.20571 0.68289 0.39067 0.0
H115 H 0.25124 0.64527 0.42279 0.0
H116 H 0.27826 0.56053 0.43033 0.0
H117 H 0.30805 0.51173 0.39956 0.0
H118 H 0.38518 0.4958 0.49188 0.0
H119 H 0.35489 0.5436 0.52308 0.0
H120 H 0.31758 0.57756 0.60119 0.0
H121 H 0.35118 0.58921 0.65849 0.0
H122 H 0.34249 0.69697 0.63815 0.0
H123 H 0.30739 0.68526 0.58089 0.0
N124 N 0.27089 0.64407 0.53118 0.0
N125 N 0.27312 0.6084 0.47969 0.0
N126 N 0.30895 0.59427 0.53214 0.0
C127 C 0.25927 0.63692 0.49642 0.0
C128 C 0.29796 0.58688 0.49748 0.0
C129 C 0.29572 0.62269 0.54918 0.0
C130 C 0.23169 0.65986 0.4769 0.0
C131 C 0.2054 0.68076 0.49635 0.0
C132 C 0.17847 0.70157 0.47792 0.0
C133 C 0.17758 0.70243 0.43957 0.0
C134 C 0.2046 0.68209 0.42015 0.0
C135 C 0.23099 0.66075 0.43859 0.0
C136 C 0.31434 0.5563 0.4791 0.0
C137 C 0.3014 0.54652 0.44417 0.0
C138 C 0.31859 0.51865 0.42645 0.0
C139 C 0.34934 0.50019 0.44311 0.0
C140 C 0.3614 0.50936 0.4784 0.0
C141 C 0.34411 0.53698 0.49619 0.0
C142 C 0.31027 0.63049 0.58633 0.0
C143 C 0.32214 0.60378 0.60919 0.0
C144 C 0.86566 0.88465 0.13128 0.0
C145 C 0.85473 0.85517 0.15025 0.0
C146 C 0.82846 0.83211 0.13365 0.0
C147 C 0.81275 0.83897 0.09895 0.0
H148 H 0.73898 0.80198 0.01496 0.0
H149 H 0.69057 0.76568 0.98447 0.0
H150 H 0.67863 0.83977 0.89851 0.0
H151 H 0.7276 0.87581 0.92833 0.0
H152 H 0.78372 0.94082 0.92657 0.0
H153 H 0.81152 0.99057 0.8959 0.0
H154 H 0.89157 0.00631 0.98618 0.0
H155 H 0.86346 0.95751 0.01724 0.0
H156 H 0.85952 0.91459 0.08341 0.0
H157 H 0.88675 0.90241 0.1429 0.0
H158 H 0.81986 0.80902 0.14761 0.0
H159 H 0.79238 0.82088 0.08688 0.0
N160 N 0.78076 0.85627 0.0265 0.0
N161 N 0.77955 0.89314 0.97607 0.0
N162 N 0.81996 0.90543 0.02616 0.0
C163 C 0.7666 0.8643 0.99276 0.0
C164 C 0.8063 0.91385 0.99264 0.0
C165 C 0.80749 0.87687 0.0434 0.0
C166 C 0.73735 0.8419 0.97418 0.0
C167 C 0.72625 0.81054 0.98948 0.0
C168 C 0.69845 0.78972 0.97204 0.0
C169 C 0.68107 0.79971 0.9389 0.0
C170 C 0.69214 0.83099 0.92357 0.0
C171 C 0.72004 0.85178 0.94091 0.0
C172 C 0.82151 0.94486 0.97429 0.0
C173 C 0.80709 0.95498 0.93999 0.0
C174 C 0.82311 0.98339 0.92232 0.0
C175 C 0.85403 0.0021 0.93848 0.0
C176 C 0.86761 0.99255 0.97314 0.0
C177 C 0.85157 0.96435 0.99083 0.0
C178 C 0.82343 0.86883 0.08019 0.0
C179 C 0.85019 0.89145 0.09688 0.0
C180 C 0.13863 0.12407 0.62432 0.0
C181 C 0.15179 0.15201 0.64481 0.0
C182 C 0.18172 0.17295 0.63035 0.0
C183 C 0.19839 0.16572 0.59612 0.0
H184 H 0.27008 0.20392 0.51122 0.0
H185 H 0.31804 0.24067 0.4809 0.0
H186 H 0.33455 0.16507 0.39699 0.0
H187 H 0.28597 0.12851 0.42665 0.0
H188 H 0.22997 0.06283 0.42461 0.0
H189 H 0.20318 0.01233 0.39445 0.0
H190 H 0.12306 0.99667 0.48469 0.0
H191 H 0.1502 0.04612 0.51524 0.0
H192 H 0.14399 0.09497 0.57573 0.0
H193 H 0.1152 0.10776 0.63446 0.0
H194 H 0.19264 0.19452 0.64572 0.0
H195 H 0.22163 0.18208 0.58576 0.0
N196 N 0.22967 0.14917 0.52313 0.0
N197 N 0.23309 0.11116 0.47368 0.0
N198 N 0.19146 0.09947 0.52307 0.0
C199 C 0.24496 0.14059 0.48996 0.0
C200 C 0.2063 0.09044 0.49015 0.0
C201 C 0.20283 0.1286 0.53986 0.0
C202 C 0.27402 0.16316 0.47146 0.0
C203 C 0.28372 0.1951 0.48623 0.0
C204 C 0.31125 0.21619 0.46888 0.0
C205 C 0.32979 0.2059 0.43638 0.0
C206 C 0.32011 0.17405 0.42154 0.0
C207 C 0.29247 0.15298 0.43879 0.0
C208 C 0.19205 0.05886 0.47224 0.0
C209 C 0.20684 0.04849 0.43814 0.0
C210 C 0.19139 0.01965 0.42077 0.0
C211 C 0.16071 1.00077 0.43704 0.0
C212 C 0.14687 0.01054 0.47156 0.0
C213 C 0.16234 0.03914 0.48895 0.0
C214 C 0.18539 0.1374 0.57586 0.0
C215 C 0.15516 0.11684 0.59044 0.0
C216 C 0.14948 0.88754 0.12749 0.0
C217 C 0.15319 0.85564 0.1441 0.0
C218 C 0.17334 0.82959 0.12554 0.0
C219 C 0.1897 0.83554 0.09095 0.0
H220 H 0.25409 0.79299 0.99926 0.0
H221 H 0.30305 0.75603 0.97058 0.0
H222 H 0.34699 0.84108 0.90802 0.0
H223 H 0.29655 0.87748 0.93512 0.0
H224 H 0.22475 0.9378 0.91951 0.0
H225 H 0.19586 0.98718 0.88867 0.0
H226 H 0.1097 0.99684 0.97512 0.0
H227 H 0.13871 0.94879 0.00619 0.0
H228 H 0.16159 0.91836 0.08115 0.0
H229 H 0.13338 0.90786 0.14082 0.0
H230 H 0.17634 0.80468 0.13777 0.0
H231 H 0.20486 0.81501 0.07711 0.0
N232 N 0.22752 0.85332 0.02067 0.0
N233 N 0.22808 0.88866 0.96885 0.0
N234 N 0.18753 0.90181 0.01862 0.0
C235 C 0.24153 0.86056 0.98669 0.0
C236 C 0.20071 0.90928 0.98468 0.0
C237 C 0.20068 0.87416 0.03692 0.0
C238 C 0.2713 0.83812 0.96931 0.0
C239 C 0.27404 0.80372 0.97918 0.0
C240 C 0.30218 0.78255 0.96279 0.0
C241 C 0.32871 0.79539 0.93658 0.0
C242 C 0.32624 0.82997 0.92713 0.0
C243 C 0.29754 0.85096 0.94294 0.0
C244 C 0.18417 0.93923 0.96539 0.0
C245 C 0.19971 0.95055 0.93192 0.0
C246 C 0.18306 0.9787 0.91416 0.0
C247 C 0.15043 0.99584 0.92944 0.0
C248 C 0.13513 0.9845 0.96286 0.0
C249 C 0.15178 0.95672 0.98061 0.0
C250 C 0.1855 0.86748 0.07418 0.0
C251 C 0.16539 0.8934 0.09304 0.0
C252 C 0.86197 0.116 0.62629 0.0
C253 C 0.85569 0.14725 0.64378 0.0
C254 C 0.83118 0.1715 0.62697 0.0
C255 C 0.81387 0.16475 0.59295 0.0
H256 H 0.75323 0.20903 0.5023 0.0
H257 H 0.70556 0.24742 0.47396 0.0
H258 H 0.66234 0.16495 0.40703 0.0
H259 H 0.71127 0.12709 0.43397 0.0
H260 H 0.81061 0.08024 0.41287 0.0
H261 H 0.84569 0.03298 0.38336 0.0
H262 H 0.86056 0.98467 0.48802 0.0
H263 H 0.82685 0.03192 0.51749 0.0
H264 H 0.85091 0.08497 0.5798 0.0
H265 H 0.88095 0.09692 0.63844 0.0
H266 H 0.82542 0.19565 0.6401 0.0
H267 H 0.79547 0.18405 0.58051 0.0
N268 N 0.77905 0.14837 0.52172 0.0
N269 N 0.77655 0.11275 0.47017 0.0
N270 N 0.81546 0.0978 0.52053 0.0
C271 C 0.76476 0.14154 0.48775 0.0
C272 C 0.80192 0.09074 0.48656 0.0
C273 C 0.8044 0.12646 0.53834 0.0
C274 C 0.73623 0.16504 0.47024 0.0
C275 C 0.73376 0.19917 0.48131 0.0
C276 C 0.70636 0.22116 0.46514 0.0
C277 C 0.68043 0.20944 0.43784 0.0
C278 C 0.68268 0.17518 0.42708 0.0
C279 C 0.71055 0.15336 0.44277 0.0
C280 C 0.81668 0.06008 0.46756 0.0
C281 C 0.82084 0.05923 0.42942 0.0
C282 C 0.84086 0.03223 0.41254 0.0
C283 C 0.85671 0.00567 0.43357 0.0
C284 C 0.84969 0.00533 0.47129 0.0
C285 C 0.83026 0.03235 0.48813 0.0
C286 C 0.82086 0.13363 0.57512 0.0
C287 C 0.84485 0.10928 0.59246 0.0
Fe288 Fe 0.00543 0.80417 0.31842 0.0
Fe289 Fe 0.00992 0.84583 0.38944 0.0
O290 O 0.00724 0.84407 0.34124 0.0
Fe291 Fe 0.00657 0.88239 0.31607 0.0
O292 O 0.97518 0.86595 0.27951 0.0
O293 O 0.95859 0.81424 0.29634 0.0
O294 O 0.97637 0.7831 0.3544 0.0
C295 C 0.95502 0.79532 0.3797 0.0
C296 C 0.05664 0.84397 0.2741 0.0
O297 O 0.96295 0.82385 0.39365 0.0
C298 C 0.06242 0.89606 0.37202 0.0
O299 O 0.05214 0.79074 0.33844 0.0
O300 O 0.03807 0.80637 0.39446 0.0
O301 O 0.05148 0.87081 0.29224 0.0
O302 O 0.03408 0.81849 0.27852 0.0
C303 C 0.95895 0.90103 0.37237 0.0
O304 O 0.05713 0.86812 0.38819 0.0
O305 O 0.0381 0.90597 0.34802 0.0
C306 C 0.05939 0.7901 0.37215 0.0
O307 O 0.98239 0.88577 0.39371 0.0
O308 O 0.96145 0.89682 0.3384 0.0
C309 C 0.95215 0.84065 0.27785 0.0
Fe310 Fe 1.00353 0.15764 0.88816 0.0
Fe311 Fe 1.00352 0.12252 0.81364 0.0
O312 O 0.00427 0.16026 0.83991 0.0
Fe313 Fe 0.00525 0.20047 0.81792 0.0
O314 O 0.03546 0.22128 0.85337 0.0
O315 O 0.05003 0.18022 0.89182 0.0
O316 O 0.03242 0.11811 0.89032 0.0
C317 C 0.05487 0.1037 0.8673 0.0
C318 C 0.95272 0.21334 0.87339 0.0
O319 O 0.04952 0.1078 0.8336 0.0
C320 C 0.95252 0.16157 0.77386 0.0
O321 O 0.9567 0.13474 0.88811 0.0
O322 O 0.97386 0.09798 0.84615 0.0
O323 O 0.9591 0.21316 0.83951 0.0
O324 O 0.97483 0.19675 0.89482 0.0
C325 C 0.0565 0.16495 0.77458 0.0
O326 O 0.95745 0.13465 0.79192 0.0
O327 O 0.97543 0.18678 0.77848 0.0
C328 C 0.95091 0.10706 0.87159 0.0
O329 O 0.03319 0.13982 0.77628 0.0
O330 O 0.05137 0.19075 0.79444 0.0
C331 C 0.05682 0.20922 0.8787 0.0
Fe332 Fe 0.50522 0.30756 0.3185 0.0
Fe333 Fe 0.50293 0.34749 0.39067 0.0
O334 O 0.50429 0.34684 0.34233 0.0
Fe335 Fe 0.50435 0.38563 0.31801 0.0
O336 O 0.45865 0.3747 0.29471 0.0
O337 O 0.4758 0.32276 0.2796 0.0
O338 O 0.45878 0.29411 0.33924 0.0
C339 C 0.45255 0.29236 0.37309 0.0
C340 C 0.55757 0.34462 0.2775 0.0
O341 O 0.47491 0.30785 0.39523 0.0
C342 C 0.55419 0.40245 0.37365 0.0
O343 O 0.53516 0.28564 0.35314 0.0
O344 O 0.5498 0.32518 0.39356 0.0
O345 O 0.5346 0.36986 0.2803 0.0
O346 O 0.55159 0.31793 0.29569 0.0
C347 C 0.45022 0.39826 0.37562 0.0
O348 O 0.53085 0.3873 0.39525 0.0
O349 O 0.55018 0.39934 0.33964 0.0
C350 C 0.55719 0.29712 0.37835 0.0
O351 O 0.45579 0.36995 0.391 0.0
O352 O 0.47394 0.4086 0.35129 0.0
C353 C 0.45343 0.34834 0.27569 0.0
Fe354 Fe 0.50778 0.65907 0.89121 0.0
Fe355 Fe 0.50993 0.61986 0.81929 0.0
O356 O 0.50812 0.659 0.84293 0.0
Fe357 Fe 0.50714 0.69774 0.81831 0.0
O358 O 0.55242 0.71247 0.84021 0.0
O359 O 0.53524 0.69898 0.89603 0.0
O360 O 0.55522 0.63712 0.89323 0.0
C361 C 0.56157 0.60856 0.87873 0.0
C362 C 0.45326 0.7088 0.87684 0.0
O363 O 0.53858 0.59749 0.85421 0.0
C364 C 0.45839 0.65927 0.77533 0.0
O365 O 0.47996 0.61912 0.89522 0.0
O366 O 0.46312 0.60623 0.83904 0.0
O367 O 0.47539 0.71989 0.85152 0.0
O368 O 0.46064 0.681 0.89254 0.0
C369 C 0.56233 0.65713 0.77902 0.0
O370 O 0.48201 0.6347 0.77971 0.0
O371 O 0.46179 0.68585 0.79432 0.0
C372 C 0.45748 0.60376 0.87294 0.0
O373 O 0.55667 0.63107 0.79832 0.0
O374 O 0.53872 0.68218 0.7808 0.0
C375 C 0.55789 0.71447 0.87417 0.0
C376 C 0.13826 0.27513 0.88969 0.0
C377 C 0.14693 0.27385 0.92726 0.0
C378 C 0.10907 0.25419 0.8742 0.0
C379 C 0.08784 0.23076 0.89554 0.0
H380 H 0.1543 0.29236 0.87201 0.0
H381 H 0.10339 0.2561 0.8452 0.0
S382 S 0.09703 0.21879 0.99549 0.0
N383 N 0.12993 0.24849 0.98569 0.0
N384 N 0.07629 0.20828 0.95631 0.0
C385 C 0.09614 0.22912 0.93307 0.0
C386 C 0.12537 0.25083 0.94897 0.0
C387 C 0.89261 0.71846 0.40517 0.0
C388 C 0.86217 0.73247 0.42666 0.0
C389 C 0.92219 0.73899 0.38981 0.0
C390 C 0.92265 0.77438 0.39546 0.0
H391 H 0.89404 0.69127 0.40074 0.0
H392 H 0.94526 0.72686 0.37392 0.0
S393 S 0.84753 0.82399 0.44691 0.0
N394 N 0.83272 0.78416 0.45078 0.0
N395 N 0.88857 0.82277 0.4224 0.0
C396 C 0.89191 0.78882 0.41633 0.0
C397 C 0.86166 0.76788 0.43181 0.0
C398 C 0.89102 0.26219 0.94258 0.0
C399 C 0.86123 0.27732 0.92128 0.0
C400 C 0.92025 0.24161 0.92681 0.0
C401 C 0.92104 0.23528 0.889 0.0
H402 H 0.89212 0.26666 0.9717 0.0
H403 H 0.94263 0.23085 0.94454 0.0
S404 S 0.84806 0.26725 0.82142 0.0
N405 N 0.83308 0.28336 0.86064 0.0
N406 N 0.88824 0.24498 0.83081 0.0
C407 C 0.89113 0.25002 0.86737 0.0
C408 C 0.86124 0.27096 0.88353 0.0
C409 C 0.14151 0.75788 0.43338 0.0
C410 C 0.14871 0.72481 0.42026 0.0
C411 C 0.11306 0.77892 0.41716 0.0
C412 C 0.09112 0.76805 0.38673 0.0
H413 H 0.15788 0.76762 0.45655 0.0
H414 H 0.10817 0.80397 0.4286 0.0
S415 S 0.09745 0.68374 0.34209 0.0
N416 N 0.13032 0.68194 0.3754 0.0
N417 N 0.07804 0.7222 0.34409 0.0
C418 C 0.09842 0.73544 0.37273 0.0
C419 C 0.12693 0.71367 0.38966 0.0
C420 C 0.61903 0.76495 0.94241 0.0
C421 C 0.65026 0.77811 0.92132 0.0
C422 C 0.58938 0.7447 0.9268 0.0
C423 C 0.58955 0.73674 0.88933 0.0
H424 H 0.61721 0.77064 0.97126 0.0
H425 H 0.56601 0.73536 0.9444 0.0
S426 S 0.66608 0.7635 0.82243 0.0
N427 N 0.68056 0.78077 0.86126 0.0
N428 N 0.62458 0.74295 0.8317 0.0
C429 C 0.62075 0.74965 0.86787 0.0
C430 C 0.6511 0.77026 0.88388 0.0
C431 C 0.39062 0.24203 0.4407 0.0
C432 C 0.36046 0.2278 0.41909 0.0
C433 C 0.4201 0.26265 0.42546 0.0
C434 C 0.42083 0.26996 0.38786 0.0
H435 H 0.39175 0.23688 0.46969 0.0
H436 H 0.44266 0.27277 0.44348 0.0
S437 S 0.34731 0.24016 0.31954 0.0
N438 N 0.33213 0.22332 0.35833 0.0
N439 N 0.38785 0.26186 0.32946 0.0
C440 C 0.3907 0.25597 0.36586 0.0
C441 C 0.36052 0.23495 0.3815 0.0
C442 C 0.38063 0.75 0.94244 0.0
C443 C 0.35964 0.77296 0.92022 0.0
C444 C 0.41034 0.729 0.92807 0.0
C445 C 0.42078 0.73046 0.89098 0.0
H446 H 0.37456 0.74858 0.97139 0.0
H447 H 0.42588 0.71204 0.9464 0.0
S448 S 0.37307 0.78404 0.82042 0.0
N449 N 0.34965 0.79394 0.85849 0.0
N450 N 0.40667 0.75551 0.83191 0.0
C451 C 0.39988 0.75297 0.86832 0.0
C452 C 0.3691 0.77396 0.88281 0.0
C453 C 0.62831 0.25464 0.44428 0.0
C454 C 0.65022 0.2326 0.42166 0.0
C455 C 0.59882 0.27591 0.42999 0.0
C456 C 0.58964 0.27562 0.39261 0.0
H457 H 0.63341 0.25499 0.47342 0.0
H458 H 0.58239 0.29206 0.44854 0.0
S459 S 0.64071 0.22547 0.32107 0.0
N460 N 0.66279 0.21418 0.35936 0.0
N461 N 0.60632 0.25321 0.33285 0.0
C462 C 0.61169 0.25428 0.36956 0.0
C463 C 0.64218 0.23301 0.38398 0.0
C464 C 0.40954 0.54034 0.93674 0.0
C465 C 0.37622 0.52878 0.91724 0.0
C466 C 0.4351 0.56479 0.92225 0.0
C467 C 0.42885 0.57853 0.88735 0.0
H468 H 0.41645 0.52999 0.96335 0.0
H469 H 0.46047 0.57245 0.93842 0.0
S470 S 0.34508 0.55815 0.82549 0.0
N471 N 0.33741 0.53399 0.86162 0.0
N472 N 0.38628 0.57953 0.83386 0.0
C473 C 0.39566 0.56735 0.8674 0.0
C474 C 0.36922 0.54256 0.88242 0.0
C475 C 0.59737 0.46857 0.43734 0.0
C476 C 0.63223 0.47914 0.41957 0.0
C477 C 0.57281 0.44358 0.42235 0.0
C478 C 0.58174 0.42825 0.38869 0.0
H479 H 0.58859 0.48003 0.46295 0.0
H480 H 0.54616 0.43668 0.4371 0.0
S481 S 0.67045 0.44553 0.33183 0.0
N482 N 0.67532 0.47136 0.36706 0.0
N483 N 0.62853 0.42467 0.33843 0.0
C484 C 0.6165 0.43846 0.37052 0.0
C485 C 0.64184 0.46385 0.38602 0.0
C486 C 0.62335 0.52901 0.89213 0.0
C487 C 0.64369 0.53536 0.92484 0.0
C488 C 0.59822 0.55341 0.87685 0.0
C489 C 0.59225 0.58525 0.89364 0.0
H490 H 0.62536 0.50437 0.87907 0.0
H491 H 0.58236 0.54668 0.85219 0.0
S492 S 0.64325 0.61611 0.97708 0.0
N493 N 0.65975 0.57695 0.97157 0.0
N494 N 0.61222 0.62293 0.94305 0.0
C495 C 0.61431 0.59269 0.92526 0.0
C496 C 0.63998 0.56771 0.94084 0.0
C497 C 0.37921 0.44179 0.44125 0.0
C498 C 0.3706 0.47259 0.42344 0.0
C499 C 0.40337 0.41706 0.42493 0.0
C500 C 0.42015 0.42229 0.39024 0.0
H501 H 0.36791 0.43708 0.46842 0.0
H502 H 0.41015 0.39431 0.44028 0.0
S503 S 0.40429 0.49763 0.33099 0.0
N504 N 0.3792 0.50624 0.36848 0.0
N505 N 0.42379 0.45968 0.33745 0.0
C506 C 0.41016 0.45233 0.37143 0.0
C507 C 0.3856 0.47747 0.38808 0.0
C508 C 0.88204 0.06116 0.9372 0.0
C509 C 0.8739 0.03047 0.91892 0.0
C510 C 0.90528 0.08659 0.92102 0.0
C511 C 0.9216 0.08221 0.886 0.0
H512 H 0.87116 0.06519 0.96465 0.0
H513 H 0.91176 0.10922 0.93676 0.0
S514 S 0.90646 0.00751 0.8255 0.0
N515 N 0.88221 0.99785 0.86318 0.0
N516 N 0.9252 0.04572 0.83242 0.0
C517 C 0.91198 0.0523 0.86672 0.0
C518 C 0.88831 0.02644 0.88323 0.0
C519 C 0.13283 0.94168 0.43635 0.0
C520 C 0.14109 0.97212 0.41769 0.0
C521 C 0.10919 0.91626 0.42063 0.0
C522 C 0.09262 0.92042 0.38571 0.0
H523 H 0.14376 0.93792 0.46382 0.0
H524 H 0.10243 0.89391 0.4367 0.0
S525 S 0.10846 0.99404 0.32404 0.0
N526 N 0.13297 0.00403 0.36149 0.0
N527 N 0.08928 0.95611 0.33159 0.0
C528 C 0.10258 0.94992 0.36593 0.0
C529 C 0.12663 0.97578 0.38198 0.0
C530 C 0.12079 0.05401 0.93152 0.0
C531 C 0.13126 0.02517 0.91098 0.0
C532 C 0.09745 0.07988 0.91662 0.0
C533 C 0.08386 0.07817 0.88042 0.0
H534 H 0.12978 0.05616 0.95979 0.0
H535 H 0.08919 0.10104 0.93395 0.0
S536 S 0.10489 0.00899 0.81433 0.0
N537 N 0.12755 0.99701 0.85208 0.0
N538 N 0.08441 0.04607 0.82367 0.0
C539 C 0.09585 0.05035 0.8589 0.0
C540 C 0.11939 0.02377 0.87425 0.0
C541 C 0.87187 0.96137 0.38585 0.0
C542 C 0.88324 0.97973 0.41712 0.0
C543 C 0.89658 0.93605 0.3711 0.0
C544 C 0.93329 0.9282 0.38729 0.0
H545 H 0.84345 0.96621 0.37312 0.0
H546 H 0.88658 0.92212 0.34733 0.0
S547 S 0.97903 0.97236 0.46632 0.0
N548 N 0.9354 0.99073 0.46134 0.0
N549 N 0.9813 0.94306 0.43422 0.0
C550 C 0.94545 0.94721 0.41782 0.0
C551 C 0.92058 0.973 0.43256 0.0
C552 C 0.37784 0.38243 0.20813 0.0
C553 C 0.37598 0.35685 0.18139 0.0
C554 C 0.40158 0.37881 0.23922 0.0
C555 C 0.42467 0.34946 0.24487 0.0
H556 H 0.36147 0.40587 0.20457 0.0
H557 H 0.40266 0.39972 0.25842 0.0
S558 S 0.42823 0.274 0.1839 0.0
N559 N 0.39778 0.30053 0.16321 0.0
N560 N 0.442 0.2933 0.22181 0.0
C561 C 0.4216 0.32295 0.21908 0.0
C562 C 0.39737 0.32673 0.18735 0.0
C563 C 0.61533 0.67511 0.6897 0.0
C564 C 0.64293 0.64844 0.68745 0.0
C565 C 0.59065 0.67874 0.72022 0.0
C566 C 0.59262 0.6558 0.74964 0.0
H567 H 0.6114 0.6923 0.66694 0.0
H568 H 0.56869 0.69881 0.71994 0.0
S569 S 0.66462 0.58499 0.75936 0.0
N570 N 0.67419 0.60122 0.71881 0.0
N571 N 0.62795 0.60788 0.77623 0.0
C572 C 0.62197 0.63035 0.74865 0.0
C573 C 0.64703 0.62669 0.71755 0.0
C574 C 0.61903 0.31907 0.19517 0.0
C575 C 0.63493 0.35047 0.18404 0.0
C576 C 0.59604 0.31656 0.2271 0.0
C577 C 0.58811 0.34546 0.24856 0.0
H578 H 0.62239 0.29683 0.17804 0.0
H579 H 0.5824 0.2924 0.2337 0.0
S580 S 0.62897 0.43199 0.23447 0.0
N581 N 0.64596 0.40972 0.19969 0.0
N582 N 0.60218 0.40526 0.25888 0.0
C583 C 0.60638 0.3763 0.23905 0.0
C584 C 0.62997 0.37873 0.207 0.0
C585 C 0.41206 0.63093 0.68637 0.0
C586 C 0.37694 0.65 0.68405 0.0
C587 C 0.43798 0.63455 0.71577 0.0
C588 C 0.43024 0.65762 0.74424 0.0
H589 H 0.41974 0.61296 0.66513 0.0
H590 H 0.46451 0.61904 0.71599 0.0
S591 S 0.34235 0.71387 0.75129 0.0
N592 N 0.3356 0.69298 0.71269 0.0
N593 N 0.38487 0.70016 0.76813 0.0
C594 C 0.39559 0.67744 0.74207 0.0
C595 C 0.36887 0.67359 0.71194 0.0
C596 C 0.89288 0.81807 0.19355 0.0
C597 C 0.8724 0.84858 0.18667 0.0
C598 C 0.91658 0.81439 0.22487 0.0
C599 C 0.92062 0.84119 0.24999 0.0
H600 H 0.89261 0.79781 0.17356 0.0
H601 H 0.93389 0.79141 0.22812 0.0
S602 S 0.86738 0.92346 0.24797 0.0
N603 N 0.85309 0.90385 0.21038 0.0
N604 N 0.89834 0.89722 0.26848 0.0
C605 C 0.89793 0.87065 0.24479 0.0
C606 C 0.87359 0.87425 0.21332 0.0
C607 C 0.1287 0.13092 0.70529 0.0
C608 C 0.13373 0.15835 0.68114 0.0
C609 C 0.10548 0.13405 0.73667 0.0
C610 C 0.08678 0.16486 0.7455 0.0
H611 H 0.14149 0.10634 0.69905 0.0
H612 H 0.10093 0.11176 0.75351 0.0
S613 S 0.09282 0.2451 0.69299 0.0
N614 N 0.11981 0.21793 0.66927 0.0
N615 N 0.07673 0.224 0.729 0.0
C616 C 0.09361 0.19317 0.72302 0.0
C617 C 0.11702 0.18988 0.69067 0.0
C618 C 0.10609 0.82313 0.18368 0.0
C619 C 0.13378 0.8496 0.1798 0.0
C620 C 0.08246 0.82049 0.21505 0.0
C621 C 0.08565 0.8443 0.24363 0.0
H622 H 0.10121 0.80536 0.16155 0.0
H623 H 0.06032 0.80056 0.21609 0.0
S624 S 0.15845 0.91506 0.24896 0.0
N625 N 0.16648 0.89758 0.20871 0.0
N626 N 0.12225 0.89281 0.26763 0.0
C627 C 0.11516 0.86956 0.24098 0.0
C628 C 0.13914 0.87217 0.20908 0.0
C629 C 0.87523 0.12966 0.70676 0.0
C630 C 0.87601 0.15422 0.67896 0.0
C631 C 0.8986 0.13312 0.7381 0.0
C632 C 0.92393 0.16127 0.74293 0.0
H633 H 0.85716 0.10704 0.70379 0.0
H634 H 0.89767 0.11293 0.75812 0.0
S635 S 0.93479 0.23392 0.67901 0.0
N636 N 0.90256 0.20847 0.6589 0.0
N637 N 0.94626 0.21537 0.71794 0.0
C638 C 0.92343 0.18693 0.71611 0.0
C639 C 0.89955 0.18332 0.68412 0.0
loop_
_geom_bond_atom_site_label_1
_geom_bond_atom_site_label_2
_geom_bond_distance
_geom_bond_site_symmetry_2
_ccdc_geom_bond_type
C0 C1 1.384 . S
C0 H13 0.947 . S
C0 C35 1.382 . S
C1 C0 1.384 . S
C1 C2 1.378 . S
C2 C1 1.378 . S
C2 C3 1.378 . S
C2 H14 0.952 . S
C3 C2 1.378 . S
C3 H15 0.950 . S
C3 C34 1.383 . S
H4 C23 0.947 1_554 S
H5 C24 0.946 . S
H6 C26 0.953 . S
H7 C27 0.945 . S
H8 C29 0.952 . S
H9 C30 0.949 . S
H10 C32 0.950 . S
H11 C33 0.948 1_554 S
H12 C35 0.951 . S
H13 C0 0.947 . S
H14 C2 0.952 . S
H15 C3 0.950 . S
N16 C19 1.382 1_554 S
N16 C21 1.363 . S
N17 C19 1.371 . S
N17 C20 1.372 . S
N18 C20 1.361 1_554 S
N18 C21 1.377 . S
C19 N16 1.382 1_556 S
C19 N17 1.371 . S
C19 C22 1.480 . S
C20 N17 1.372 . S
C20 N18 1.361 1_556 S
C20 C28 1.457 . S
C21 N16 1.363 . S
C21 N18 1.377 . S
C21 C34 1.479 . S
C22 C19 1.480 . S
C22 C23 1.383 . S
C22 C27 1.385 . S
C23 H4 0.947 1_556 S
C23 C22 1.383 . S
C23 C24 1.388 . S
C24 H5 0.946 . S
C24 C23 1.388 . S
C24 C25 1.384 . S
C25 C24 1.384 . S
C25 C26 1.377 . S
C26 H6 0.953 . S
C26 C25 1.377 . S
C26 C27 1.369 . S
C27 H7 0.945 . S
C27 C22 1.385 . S
C27 C26 1.369 . S
C28 C20 1.457 . S
C28 C29 1.372 . S
C28 C33 1.364 . S
C29 H8 0.952 . S
C29 C28 1.372 . S
C29 C30 1.389 . S
C30 H9 0.949 . S
C30 C29 1.389 . S
C30 C31 1.387 . S
C31 C30 1.387 . S
C31 C32 1.372 . S
C32 H10 0.950 . S
C32 C31 1.372 . S
C32 C33 1.379 . S
C33 H11 0.948 1_556 S
C33 C28 1.364 . S
C33 C32 1.379 . S
C34 C3 1.383 . S
C34 C21 1.479 . S
C34 C35 1.398 . S
C35 C0 1.382 . S
C35 H12 0.951 . S
C35 C34 1.398 . S
C36 C37 1.384 . S
C36 H49 0.947 . S
C36 C71 1.382 . S
C37 C36 1.384 . S
C37 C38 1.378 . S
C38 C37 1.378 . S
C38 C39 1.378 . S
C38 H50 0.952 . S
C39 C38 1.378 . S
C39 H51 0.950 . S
C39 C70 1.383 . S
H40 C59 0.947 . S
H41 C60 0.946 . S
H42 C62 0.953 . S
H43 C63 0.945 . S
H44 C65 0.952 . S
H45 C66 0.949 . S
H46 C68 0.950 . S
H47 C69 0.948 . S
H48 C71 0.951 . S
H49 C36 0.947 . S
H50 C38 0.952 . S
H51 C39 0.950 . S
N52 C55 1.382 . S
N52 C57 1.363 . S
N53 C55 1.371 . S
N53 C56 1.372 . S
N54 C56 1.361 . S
N54 C57 1.377 . S
C55 N52 1.382 . S
C55 N53 1.371 . S
C55 C58 1.480 . S
C56 N53 1.372 . S
C56 N54 1.361 . S
C56 C64 1.457 . S
C57 N52 1.363 . S
C57 N54 1.377 . S
C57 C70 1.479 . S
C58 C55 1.480 . S
C58 C59 1.383 . S
C58 C63 1.385 . S
C59 H40 0.947 . S
C59 C58 1.383 . S
C59 C60 1.388 . S
C60 H41 0.946 . S
C60 C59 1.388 . S
C60 C61 1.384 . S
C61 C60 1.384 . S
C61 C62 1.377 . S
C62 H42 0.953 . S
C62 C61 1.377 . S
C62 C63 1.369 . S
C63 H43 0.945 . S
C63 C58 1.385 . S
C63 C62 1.369 . S
C64 C56 1.457 . S
C64 C65 1.372 . S
C64 C69 1.364 . S
C65 H44 0.952 . S
C65 C64 1.372 . S
C65 C66 1.389 . S
C66 H45 0.949 . S
C66 C65 1.389 . S
C66 C67 1.387 . S
C67 C66 1.387 . S
C67 C68 1.372 . S
C68 H46 0.950 . S
C68 C67 1.372 . S
C68 C69 1.379 . S
C69 H47 0.948 . S
C69 C64 1.364 . S
C69 C68 1.379 . S
C70 C39 1.383 . S
C70 C57 1.479 . S
C70 C71 1.398 . S
C71 C36 1.382 . S
C71 H48 0.951 . S
C71 C70 1.398 . S
C72 C73 1.384 . S
C72 H85 0.947 . S
C72 C107 1.382 . S
C73 C72 1.384 . S
C73 C74 1.378 . S
C74 C73 1.378 . S
C74 C75 1.378 . S
C74 H86 0.952 . S
C75 C74 1.378 . S
C75 H87 0.950 . S
C75 C106 1.383 . S
H76 C95 0.947 1_554 S
H77 C96 0.946 . S
H78 C98 0.953 . S
H79 C99 0.945 . S
H80 C101 0.952 . S
H81 C102 0.949 . S
H82 C104 0.950 . S
H83 C105 0.948 1_554 S
H84 C107 0.951 . S
H85 C72 0.947 . S
H86 C74 0.952 . S
H87 C75 0.950 . S
N88 C91 1.382 1_554 S
N88 C93 1.363 . S
N89 C91 1.371 . S
N89 C92 1.372 . S
N90 C92 1.361 1_554 S
N90 C93 1.377 . S
C91 N88 1.382 1_556 S
C91 N89 1.371 . S
C91 C94 1.480 . S
C92 N89 1.372 . S
C92 N90 1.361 1_556 S
C92 C100 1.457 . S
C93 N88 1.363 . S
C93 N90 1.377 . S
C93 C106 1.479 . S
C94 C91 1.480 . S
C94 C95 1.383 . S
C94 C99 1.385 . S
C95 H76 0.947 1_556 S
C95 C94 1.383 . S
C95 C96 1.388 . S
C96 H77 0.946 . S
C96 C95 1.388 . S
C96 C97 1.384 . S
C97 C96 1.384 . S
C97 C98 1.377 . S
C98 H78 0.953 . S
C98 C97 1.377 . S
C98 C99 1.369 . S
C99 H79 0.945 . S
C99 C94 1.385 . S
C99 C98 1.369 . S
C100 C92 1.457 . S
C100 C101 1.372 . S
C100 C105 1.364 . S
C101 H80 0.952 . S
C101 C100 1.372 . S
C101 C102 1.389 . S
C102 H81 0.949 . S
C102 C101 1.389 . S
C102 C103 1.387 . S
C103 C102 1.387 . S
C103 C104 1.372 . S
C104 H82 0.950 . S
C104 C103 1.372 . S
C104 C105 1.379 . S
C105 H83 0.948 1_556 S
C105 C100 1.364 . S
C105 C104 1.379 . S
C106 C75 1.383 . S
C106 C93 1.479 . S
C106 C107 1.398 . S
C107 C72 1.382 . S
C107 H84 0.951 . S
C107 C106 1.398 . S
C108 C109 1.384 . S
C108 H121 0.947 . S
C108 C143 1.382 . S
C109 C108 1.384 . S
C109 C110 1.378 . S
C110 C109 1.378 . S
C110 C111 1.378 . S
C110 H122 0.952 . S
C111 C110 1.378 . S
C111 H123 0.950 . S
C111 C142 1.383 . S
H112 C131 0.947 . S
H113 C132 0.946 . S
H114 C134 0.953 . S
H115 C135 0.945 . S
H116 C137 0.952 . S
H117 C138 0.949 . S
H118 C140 0.950 . S
H119 C141 0.948 . S
H120 C143 0.951 . S
H121 C108 0.947 . S
H122 C110 0.952 . S
H123 C111 0.950 . S
N124 C127 1.382 . S
N124 C129 1.363 . S
N125 C127 1.371 . S
N125 C128 1.372 . S
N126 C128 1.361 . S
N126 C129 1.377 . S
C127 N124 1.382 . S
C127 N125 1.371 . S
C127 C130 1.480 . S
C128 N125 1.372 . S
C128 N126 1.361 . S
C128 C136 1.457 . S
C129 N124 1.363 . S
C129 N126 1.377 . S
C129 C142 1.479 . S
C130 C127 1.480 . S
C130 C131 1.383 . S
C130 C135 1.385 . S
C131 H112 0.947 . S
C131 C130 1.383 . S
C131 C132 1.388 . S
C132 H113 0.946 . S
C132 C131 1.388 . S
C132 C133 1.384 . S
C133 C132 1.384 . S
C133 C134 1.377 . S
C134 H114 0.953 . S
C134 C133 1.377 . S
C134 C135 1.369 . S
C135 H115 0.945 . S
C135 C130 1.385 . S
C135 C134 1.369 . S
C136 C128 1.457 . S
C136 C137 1.372 . S
C136 C141 1.364 . S
C137 H116 0.952 . S
C137 C136 1.372 . S
C137 C138 1.389 . S
C138 H117 0.949 . S
C138 C137 1.389 . S
C138 C139 1.387 . S
C139 C138 1.387 . S
C139 C140 1.372 . S
C140 H118 0.950 . S
C140 C139 1.372 . S
C140 C141 1.379 . S
C141 H119 0.948 . S
C141 C136 1.364 . S
C141 C140 1.379 . S
C142 C111 1.383 . S
C142 C129 1.479 . S
C142 C143 1.398 . S
C143 C108 1.382 . S
C143 H120 0.951 . S
C143 C142 1.398 . S
C144 C145 1.384 . S
C144 H157 0.947 . S
C144 C179 1.382 . S
C145 C144 1.384 . S
C145 C146 1.378 . S
C146 C145 1.378 . S
C146 C147 1.378 . S
C146 H158 0.952 . S
C147 C146 1.378 . S
C147 H159 0.950 . S
C147 C178 1.383 . S
H148 C167 0.947 1_554 S
H149 C168 0.946 . S
H150 C170 0.953 . S
H151 C171 0.945 . S
H152 C173 0.952 . S
H153 C174 0.949 . S
H154 C176 0.950 1_545 S
H155 C177 0.948 1_554 S
H156 C179 0.951 . S
H157 C144 0.947 . S
H158 C146 0.952 . S
H159 C147 0.950 . S
N160 C163 1.382 1_554 S
N160 C165 1.363 . S
N161 C163 1.371 . S
N161 C164 1.372 . S
N162 C164 1.361 1_554 S
N162 C165 1.377 . S
C163 N160 1.382 1_556 S
C163 N161 1.371 . S
C163 C166 1.480 . S
C164 N161 1.372 . S
C164 N162 1.361 1_556 S
C164 C172 1.457 . S
C165 N160 1.363 . S
C165 N162 1.377 . S
C165 C178 1.479 . S
C166 C163 1.480 . S
C166 C167 1.383 . S
C166 C171 1.385 . S
C167 H148 0.947 1_556 S
C167 C166 1.383 . S
C167 C168 1.388 . S
C168 H149 0.946 . S
C168 C167 1.388 . S
C168 C169 1.384 . S
C169 C168 1.384 . S
C169 C170 1.377 . S
C170 H150 0.953 . S
C170 C169 1.377 . S
C170 C171 1.369 . S
C171 H151 0.945 . S
C171 C166 1.385 . S
C171 C170 1.369 . S
C172 C164 1.457 . S
C172 C173 1.372 . S
C172 C177 1.364 . S
C173 H152 0.952 . S
C173 C172 1.372 . S
C173 C174 1.389 . S
C174 H153 0.949 . S
C174 C173 1.389 . S
C174 C175 1.387 1_565 S
C175 C174 1.387 1_545 S
C175 C176 1.372 1_545 S
C176 H154 0.950 1_565 S
C176 C175 1.372 1_565 S
C176 C177 1.379 . S
C177 H155 0.948 1_556 S
C177 C172 1.364 . S
C177 C176 1.379 . S
C178 C147 1.383 . S
C178 C165 1.479 . S
C178 C179 1.398 . S
C179 C144 1.382 . S
C179 H156 0.951 . S
C179 C178 1.398 . S
C180 C181 1.384 . S
C180 H193 0.947 . S
C180 C215 1.382 . S
C181 C180 1.384 . S
C181 C182 1.378 . S
C182 C181 1.378 . S
C182 C183 1.378 . S
C182 H194 0.952 . S
C183 C182 1.378 . S
C183 H195 0.950 . S
C183 C214 1.383 . S
H184 C203 0.947 . S
H185 C204 0.946 . S
H186 C206 0.953 . S
H187 C207 0.945 . S
H188 C209 0.952 . S
H189 C210 0.949 . S
H190 C212 0.950 1_565 S
H191 C213 0.948 . S
H192 C215 0.951 . S
H193 C180 0.947 . S
H194 C182 0.952 . S
H195 C183 0.950 . S
N196 C199 1.382 . S
N196 C201 1.363 . S
N197 C199 1.371 . S
N197 C200 1.372 . S
N198 C200 1.361 . S
N198 C201 1.377 . S
C199 N196 1.382 . S
C199 N197 1.371 . S
C199 C202 1.480 . S
C200 N197 1.372 . S
C200 N198 1.361 . S
C200 C208 1.457 . S
C201 N196 1.363 . S
C201 N198 1.377 . S
C201 C214 1.479 . S
C202 C199 1.480 . S
C202 C203 1.383 . S
C202 C207 1.385 . S
C203 H184 0.947 . S
C203 C202 1.383 . S
C203 C204 1.388 . S
C204 H185 0.946 . S
C204 C203 1.388 . S
C204 C205 1.384 . S
C205 C204 1.384 . S
C205 C206 1.377 . S
C206 H186 0.953 . S
C206 C205 1.377 . S
C206 C207 1.369 . S
C207 H187 0.945 . S
C207 C202 1.385 . S
C207 C206 1.369 . S
C208 C200 1.457 . S
C208 C209 1.372 . S
C208 C213 1.364 . S
C209 H188 0.952 . S
C209 C208 1.372 . S
C209 C210 1.389 . S
C210 H189 0.949 . S
C210 C209 1.389 . S
C210 C211 1.387 1_545 S
C211 C210 1.387 1_565 S
C211 C212 1.372 1_565 S
C212 H190 0.950 1_545 S
C212 C211 1.372 1_545 S
C212 C213 1.379 . S
C213 H191 0.948 . S
C213 C208 1.364 . S
C213 C212 1.379 . S
C214 C183 1.383 . S
C214 C201 1.479 . S
C214 C215 1.398 . S
C215 C180 1.382 . S
C215 H192 0.951 . S
C215 C214 1.398 . S
C216 C217 1.384 . S
C216 H229 0.947 . S
C216 C251 1.382 . S
C217 C216 1.384 . S
C217 C218 1.378 . S
C218 C217 1.378 . S
C218 C219 1.378 . S
C218 H230 0.952 . S
C219 C218 1.378 . S
C219 H231 0.950 . S
C219 C250 1.383 . S
H220 C239 0.947 1_554 S
H221 C240 0.946 . S
H222 C242 0.953 . S
H223 C243 0.945 . S
H224 C245 0.952 . S
H225 C246 0.949 . S
H226 C248 0.950 . S
H227 C249 0.948 1_554 S
H228 C251 0.951 . S
H229 C216 0.947 . S
H230 C218 0.952 . S
H231 C219 0.950 . S
N232 C235 1.382 1_554 S
N232 C237 1.363 . S
N233 C235 1.371 . S
N233 C236 1.372 . S
N234 C236 1.361 1_554 S
N234 C237 1.377 . S
C235 N232 1.382 1_556 S
C235 N233 1.371 . S
C235 C238 1.480 . S
C236 N233 1.372 . S
C236 N234 1.361 1_556 S
C236 C244 1.457 . S
C237 N232 1.363 . S
C237 N234 1.377 . S
C237 C250 1.479 . S
C238 C235 1.480 . S
C238 C239 1.383 . S
C238 C243 1.385 . S
C239 H220 0.947 1_556 S
C239 C238 1.383 . S
C239 C240 1.388 . S
C240 H221 0.946 . S
C240 C239 1.388 . S
C240 C241 1.384 . S
C241 C240 1.384 . S
C241 C242 1.377 . S
C242 H222 0.953 . S
C242 C241 1.377 . S
C242 C243 1.369 . S
C243 H223 0.945 . S
C243 C238 1.385 . S
C243 C242 1.369 . S
C244 C236 1.457 . S
C244 C245 1.372 . S
C244 C249 1.364 . S
C245 H224 0.952 . S
C245 C244 1.372 . S
C245 C246 1.389 . S
C246 H225 0.949 . S
C246 C245 1.389 . S
C246 C247 1.387 1_565 S
C247 C246 1.387 1_545 S
C247 C248 1.372 . S
C248 H226 0.950 . S
C248 C247 1.372 . S
C248 C249 1.379 1_545 S
C249 H227 0.948 1_556 S
C249 C244 1.364 . S
C249 C248 1.379 1_565 S
C250 C219 1.383 . S
C250 C237 1.479 . S
C250 C251 1.398 . S
C251 C216 1.382 . S
C251 H228 0.951 . S
C251 C250 1.398 . S
C252 C253 1.384 . S
C252 H265 0.947 . S
C252 C287 1.382 . S
C253 C252 1.384 . S
C253 C254 1.378 . S
C254 C253 1.378 . S
C254 C255 1.378 . S
C254 H266 0.952 . S
C255 C254 1.378 . S
C255 H267 0.950 . S
C255 C286 1.383 . S
H256 C275 0.947 . S
H257 C276 0.946 . S
H258 C278 0.953 . S
H259 C279 0.945 . S
H260 C281 0.952 . S
H261 C282 0.949 . S
H262 C284 0.950 . S
H263 C285 0.948 . S
H264 C287 0.951 . S
H265 C252 0.947 . S
H266 C254 0.952 . S
H267 C255 0.950 . S
N268 C271 1.382 . S
N268 C273 1.363 . S
N269 C271 1.371 . S
N269 C272 1.372 . S
N270 C272 1.361 . S
N270 C273 1.377 . S
C271 N268 1.382 . S
C271 N269 1.371 . S
C271 C274 1.480 . S
C272 N269 1.372 . S
C272 N270 1.361 . S
C272 C280 1.457 . S
C273 N268 1.363 . S
C273 N270 1.377 . S
C273 C286 1.479 . S
C274 C271 1.480 . S
C274 C275 1.383 . S
C274 C279 1.385 . S
C275 H256 0.947 . S
C275 C274 1.383 . S
C275 C276 1.388 . S
C276 H257 0.946 . S
C276 C275 1.388 . S
C276 C277 1.384 . S
C277 C276 1.384 . S
C277 C278 1.377 . S
C278 H258 0.953 . S
C278 C277 1.377 . S
C278 C279 1.369 . S
C279 H259 0.945 . S
C279 C274 1.385 . S
C279 C278 1.369 . S
C280 C272 1.457 . S
C280 C281 1.372 . S
C280 C285 1.364 . S
C281 H260 0.952 . S
C281 C280 1.372 . S
C281 C282 1.389 . S
C282 H261 0.949 . S
C282 C281 1.389 . S
C282 C283 1.387 1_545 S
C283 C282 1.387 1_565 S
C283 C284 1.372 . S
C284 H262 0.950 . S
C284 C283 1.372 . S
C284 C285 1.379 1_565 S
C285 H263 0.948 . S
C285 C280 1.364 . S
C285 C284 1.379 1_545 S
C286 C255 1.383 . S
C286 C273 1.479 . S
C286 C287 1.398 . S
C287 C252 1.382 . S
C287 H264 0.951 . S
C287 C286 1.398 . S
Fe288 O290 1.918 . S
Fe288 O293 1.997 1_455 S
Fe288 O294 2.002 1_455 S
Fe288 O299 1.976 . S
Fe288 O302 1.996 . S
Fe289 O290 1.918 . S
Fe289 O297 1.997 1_455 S
Fe289 O300 1.996 . S
Fe289 O304 1.976 . S
Fe289 O307 2.002 1_455 S
O290 Fe288 1.918 . S
O290 Fe289 1.918 . S
O290 Fe291 1.918 . S
Fe291 O290 1.918 . S
Fe291 O292 2.002 1_455 S
Fe291 O301 1.976 . S
Fe291 O305 1.996 . S
Fe291 O308 1.997 1_455 S
O292 Fe291 2.002 1_655 S
O292 C309 1.295 . S
O293 Fe288 1.997 1_655 S
O293 C309 1.235 . S
O294 Fe288 2.002 1_655 S
O294 C295 1.295 . S
C295 O294 1.295 . S
C295 O297 1.235 . S
C296 O301 1.287 . S
C296 O302 1.255 . S
O297 Fe289 1.997 1_655 S
O297 C295 1.235 . S
C298 O304 1.287 . S
C298 O305 1.255 . S
O299 Fe288 1.976 . S
O299 C306 1.287 . S
O300 Fe289 1.996 . S
O300 C306 1.255 . S
O301 Fe291 1.976 . S
O301 C296 1.287 . S
O302 Fe288 1.996 . S
O302 C296 1.255 . S
C303 O307 1.295 . S
C303 O308 1.235 . S
O304 Fe289 1.976 . S
O304 C298 1.287 . S
O305 Fe291 1.996 . S
O305 C298 1.255 . S
C306 O299 1.287 . S
C306 O300 1.255 . S
O307 Fe289 2.002 1_655 S
O307 C303 1.295 . S
O308 Fe291 1.997 1_655 S
O308 C303 1.235 . S
C309 O292 1.295 . S
C309 O293 1.235 . S
Fe310 O312 1.918 . S
Fe310 O315 1.997 1_655 S
Fe310 O316 2.002 1_655 S
Fe310 O321 1.976 . S
Fe310 O324 1.996 . S
Fe311 O312 1.918 . S
Fe311 O319 1.997 1_655 S
Fe311 O322 1.996 . S
Fe311 O326 1.976 . S
Fe311 O329 2.002 1_655 S
O312 Fe310 1.918 . S
O312 Fe311 1.918 . S
O312 Fe313 1.919 . S
Fe313 O312 1.919 . S
Fe313 O314 1.981 1_655 S
Fe313 O323 1.997 . S
Fe313 O327 2.017 . S
Fe313 O330 1.975 1_655 S
O314 Fe313 1.981 1_455 S
O314 C331 1.295 . S
O315 Fe310 1.997 1_455 S
O315 C331 1.235 . S
O316 Fe310 2.002 1_455 S
O316 C317 1.295 . S
C317 O316 1.295 . S
C317 O319 1.235 . S
C318 O323 1.287 . S
C318 O324 1.255 . S
O319 Fe311 1.997 1_455 S
O319 C317 1.235 . S
C320 O326 1.287 . S
C320 O327 1.255 . S
O321 Fe310 1.976 . S
O321 C328 1.287 . S
O322 Fe311 1.996 . S
O322 C328 1.255 . S
O323 Fe313 1.997 . S
O323 C318 1.287 . S
O324 Fe310 1.996 . S
O324 C318 1.255 . S
C325 O329 1.295 . S
C325 O330 1.235 . S
O326 Fe311 1.976 . S
O326 C320 1.287 . S
O327 Fe313 2.017 . S
O327 C320 1.255 . S
C328 O321 1.287 . S
C328 O322 1.255 . S
O329 Fe311 2.002 1_455 S
O329 C325 1.295 . S
O330 Fe313 1.975 1_455 S
O330 C325 1.235 . S
C331 O314 1.295 . S
C331 O315 1.235 . S
Fe332 O334 1.918 . S
Fe332 O337 1.997 . S
Fe332 O338 2.002 . S
Fe332 O343 1.976 . S
Fe332 O346 1.996 . S
Fe333 O334 1.918 . S
Fe333 O341 1.997 . S
Fe333 O344 1.996 . S
Fe333 O348 1.976 . S
Fe333 O351 2.002 . S
O334 Fe332 1.918 . S
O334 Fe333 1.918 . S
O334 Fe335 1.918 . S
Fe335 O334 1.918 . S
Fe335 O336 2.002 . S
Fe335 O345 1.976 . S
Fe335 O349 1.996 . S
Fe335 O352 1.997 . S
O336 Fe335 2.002 . S
O336 C353 1.295 . S
O337 Fe332 1.997 . S
O337 C353 1.235 . S
O338 Fe332 2.002 . S
O338 C339 1.295 . S
C339 O338 1.295 . S
C339 O341 1.235 . S
C340 O345 1.287 . S
C340 O346 1.255 . S
O341 Fe333 1.997 . S
O341 C339 1.235 . S
C342 O348 1.287 . S
C342 O349 1.255 . S
O343 Fe332 1.976 . S
O343 C350 1.287 . S
O344 Fe333 1.996 . S
O344 C350 1.255 . S
O345 Fe335 1.976 . S
O345 C340 1.287 . S
O346 Fe332 1.996 . S
O346 C340 1.255 . S
C347 O351 1.295 . S
C347 O352 1.235 . S
O348 Fe333 1.976 . S
O348 C342 1.287 . S
O349 Fe335 1.996 . S
O349 C342 1.255 . S
C350 O343 1.287 . S
C350 O344 1.255 . S
O351 Fe333 2.002 . S
O351 C347 1.295 . S
O352 Fe335 1.997 . S
O352 C347 1.235 . S
C353 O336 1.295 . S
C353 O337 1.235 . S
Fe354 O356 1.918 . S
Fe354 O359 1.997 . S
Fe354 O360 2.002 . S
Fe354 O365 1.976 . S
Fe354 O368 1.996 . S
Fe355 O356 1.918 . S
Fe355 O363 1.997 . S
Fe355 O366 1.996 . S
Fe355 O370 1.976 . S
Fe355 O373 2.002 . S
O356 Fe354 1.918 . S
O356 Fe355 1.918 . S
O356 Fe357 1.918 . S
Fe357 O356 1.918 . S
Fe357 O358 2.002 . S
Fe357 O367 1.976 . S
Fe357 O371 1.996 . S
Fe357 O374 1.997 . S
O358 Fe357 2.002 . S
O358 C375 1.295 . S
O359 Fe354 1.997 . S
O359 C375 1.235 . S
O360 Fe354 2.002 . S
O360 C361 1.295 . S
C361 O360 1.295 . S
C361 O363 1.235 . S
C362 O367 1.287 . S
C362 O368 1.255 . S
O363 Fe355 1.997 . S
O363 C361 1.235 . S
C364 O370 1.287 . S
C364 O371 1.255 . S
O365 Fe354 1.976 . S
O365 C372 1.287 . S
O366 Fe355 1.996 . S
O366 C372 1.255 . S
O367 Fe357 1.976 . S
O367 C362 1.287 . S
O368 Fe354 1.996 . S
O368 C362 1.255 . S
C369 O373 1.295 . S
C369 O374 1.235 . S
O370 Fe355 1.976 . S
O370 C364 1.287 . S
O371 Fe357 1.996 . S
O371 C364 1.255 . S
C372 O365 1.287 . S
C372 O366 1.255 . S
O373 Fe355 2.002 . S
O373 C369 1.295 . S
O374 Fe357 1.997 . S
O374 C369 1.235 . S
C375 O358 1.295 . S
C375 O359 1.235 . S
C376 C377 1.369 . S
C376 C378 1.419 . S
C376 H380 0.930 . S
C377 C376 1.369 . S
C377 C386 1.429 . S
C378 C376 1.419 . S
C378 C379 1.363 . S
C378 H381 0.929 . S
C379 C378 1.363 . S
C379 C385 1.428 . S
H380 C376 0.930 . S
H381 C378 0.929 . S
S382 N383 1.613 . S
S382 N384 1.610 . S
N383 S382 1.613 . S
N383 C386 1.350 . S
N384 S382 1.610 . S
N384 C385 1.351 . S
C385 C379 1.428 . S
C385 N384 1.351 . S
C385 C386 1.434 . S
C386 C377 1.429 . S
C386 N383 1.350 . S
C386 C385 1.434 . S
C387 C388 1.369 . S
C387 C389 1.419 . S
C387 H391 0.930 . S
C388 C387 1.369 . S
C388 C397 1.429 . S
C389 C387 1.419 . S
C389 C390 1.363 . S
C389 H392 0.929 . S
C390 C389 1.363 . S
C390 C396 1.428 . S
H391 C387 0.930 . S
H392 C389 0.929 . S
S393 N394 1.613 . S
S393 N395 1.610 . S
N394 S393 1.613 . S
N394 C397 1.350 . S
N395 S393 1.610 . S
N395 C396 1.351 . S
C396 C390 1.428 . S
C396 N395 1.351 . S
C396 C397 1.434 . S
C397 C388 1.429 . S
C397 N394 1.350 . S
C397 C396 1.434 . S
C398 C399 1.369 . S
C398 C400 1.419 . S
C398 H402 0.930 . S
C399 C398 1.369 . S
C399 C408 1.429 . S
C400 C398 1.419 . S
C400 C401 1.363 . S
C400 H403 0.929 . S
C401 C400 1.363 . S
C401 C407 1.428 . S
H402 C398 0.930 . S
H403 C400 0.929 . S
S404 N405 1.613 . S
S404 N406 1.610 . S
N405 S404 1.613 . S
N405 C408 1.350 . S
N406 S404 1.610 . S
N406 C407 1.351 . S
C407 C401 1.428 . S
C407 N406 1.351 . S
C407 C408 1.434 . S
C408 C399 1.429 . S
C408 N405 1.350 . S
C408 C407 1.434 . S
C409 C410 1.369 . S
C409 C411 1.419 . S
C409 H413 0.930 . S
C410 C409 1.369 . S
C410 C419 1.429 . S
C411 C409 1.419 . S
C411 C412 1.363 . S
C411 H414 0.929 . S
C412 C411 1.363 . S
C412 C418 1.428 . S
H413 C409 0.930 . S
H414 C411 0.929 . S
S415 N416 1.613 . S
S415 N417 1.610 . S
N416 S415 1.613 . S
N416 C419 1.350 . S
N417 S415 1.610 . S
N417 C418 1.351 . S
C418 C412 1.428 . S
C418 N417 1.351 . S
C418 C419 1.434 . S
C419 C410 1.429 . S
C419 N416 1.350 . S
C419 C418 1.434 . S
C420 C421 1.369 . S
C420 C422 1.419 . S
C420 H424 0.930 . S
C421 C420 1.369 . S
C421 C430 1.429 . S
C422 C420 1.419 . S
C422 C423 1.363 . S
C422 H425 0.929 . S
C423 C422 1.363 . S
C423 C429 1.428 . S
H424 C420 0.930 . S
H425 C422 0.929 . S
S426 N427 1.613 . S
S426 N428 1.610 . S
N427 S426 1.613 . S
N427 C430 1.350 . S
N428 S426 1.610 . S
N428 C429 1.351 . S
C429 C423 1.428 . S
C429 N428 1.351 . S
C429 C430 1.434 . S
C430 C421 1.429 . S
C430 N427 1.350 . S
C430 C429 1.434 . S
C431 C432 1.369 . S
C431 C433 1.419 . S
C431 H435 0.930 . S
C432 C431 1.369 . S
C432 C441 1.429 . S
C433 C431 1.419 . S
C433 C434 1.363 . S
C433 H436 0.929 . S
C434 C433 1.363 . S
C434 C440 1.428 . S
H435 C431 0.930 . S
H436 C433 0.929 . S
S437 N438 1.613 . S
S437 N439 1.610 . S
N438 S437 1.613 . S
N438 C441 1.350 . S
N439 S437 1.610 . S
N439 C440 1.351 . S
C440 C434 1.428 . S
C440 N439 1.351 . S
C440 C441 1.434 . S
C441 C432 1.429 . S
C441 N438 1.350 . S
C441 C440 1.434 . S
C442 C443 1.369 . S
C442 C444 1.419 . S
C442 H446 0.930 . S
C443 C442 1.369 . S
C443 C452 1.429 . S
C444 C442 1.419 . S
C444 C445 1.363 . S
C444 H447 0.929 . S
C445 C444 1.363 . S
C445 C451 1.428 . S
H446 C442 0.930 . S
H447 C444 0.929 . S
S448 N449 1.613 . S
S448 N450 1.610 . S
N449 S448 1.613 . S
N449 C452 1.350 . S
N450 S448 1.610 . S
N450 C451 1.351 . S
C451 C445 1.428 . S
C451 N450 1.351 . S
C451 C452 1.434 . S
C452 C443 1.429 . S
C452 N449 1.350 . S
C452 C451 1.434 . S
C453 C454 1.369 . S
C453 C455 1.419 . S
C453 H457 0.930 . S
C454 C453 1.369 . S
C454 C463 1.429 . S
C455 C453 1.419 . S
C455 C456 1.363 . S
C455 H458 0.929 . S
C456 C455 1.363 . S
C456 C462 1.428 . S
H457 C453 0.930 . S
H458 C455 0.929 . S
S459 N460 1.613 . S
S459 N461 1.610 . S
N460 S459 1.613 . S
N460 C463 1.350 . S
N461 S459 1.610 . S
N461 C462 1.351 . S
C462 C456 1.428 . S
C462 N461 1.351 . S
C462 C463 1.434 . S
C463 C454 1.429 . S
C463 N460 1.350 . S
C463 C462 1.434 . S
C464 C465 1.369 . S
C464 C466 1.419 . S
C464 H468 0.930 . S
C465 C464 1.369 . S
C465 C474 1.429 . S
C466 C464 1.419 . S
C466 C467 1.363 . S
C466 H469 0.929 . S
C467 C466 1.363 . S
C467 C473 1.428 . S
H468 C464 0.930 . S
H469 C466 0.929 . S
S470 N471 1.613 . S
S470 N472 1.610 . S
N471 S470 1.613 . S
N471 C474 1.350 . S
N472 S470 1.610 . S
N472 C473 1.351 . S
C473 C467 1.428 . S
C473 N472 1.351 . S
C473 C474 1.434 . S
C474 C465 1.429 . S
C474 N471 1.350 . S
C474 C473 1.434 . S
C475 C476 1.369 . S
C475 C477 1.419 . S
C475 H479 0.930 . S
C476 C475 1.369 . S
C476 C485 1.429 . S
C477 C475 1.419 . S
C477 C478 1.363 . S
C477 H480 0.929 . S
C478 C477 1.363 . S
C478 C484 1.428 . S
H479 C475 0.930 . S
H480 C477 0.929 . S
S481 N482 1.613 . S
S481 N483 1.610 . S
N482 S481 1.613 . S
N482 C485 1.350 . S
N483 S481 1.610 . S
N483 C484 1.351 . S
C484 C478 1.428 . S
C484 N483 1.351 . S
C484 C485 1.434 . S
C485 C476 1.429 . S
C485 N482 1.350 . S
C485 C484 1.434 . S
C486 C487 1.369 . S
C486 C488 1.419 . S
C486 H490 0.930 . S
C487 C486 1.369 . S
C487 C496 1.429 . S
C488 C486 1.419 . S
C488 C489 1.363 . S
C488 H491 0.929 . S
C489 C488 1.363 . S
C489 C495 1.428 . S
H490 C486 0.930 . S
H491 C488 0.929 . S
S492 N493 1.613 . S
S492 N494 1.610 . S
N493 S492 1.613 . S
N493 C496 1.350 . S
N494 S492 1.610 . S
N494 C495 1.351 . S
C495 C489 1.428 . S
C495 N494 1.351 . S
C495 C496 1.434 . S
C496 C487 1.429 . S
C496 N493 1.350 . S
C496 C495 1.434 . S
C497 C498 1.369 . S
C497 C499 1.419 . S
C497 H501 0.930 . S
C498 C497 1.369 . S
C498 C507 1.429 . S
C499 C497 1.419 . S
C499 C500 1.363 . S
C499 H502 0.929 . S
C500 C499 1.363 . S
C500 C506 1.428 . S
H501 C497 0.930 . S
H502 C499 0.929 . S
S503 N504 1.613 . S
S503 N505 1.610 . S
N504 S503 1.613 . S
N504 C507 1.350 . S
N505 S503 1.610 . S
N505 C506 1.351 . S
C506 C500 1.428 . S
C506 N505 1.351 . S
C506 C507 1.434 . S
C507 C498 1.429 . S
C507 N504 1.350 . S
C507 C506 1.434 . S
C508 C509 1.369 . S
C508 C510 1.419 . S
C508 H512 0.930 . S
C509 C508 1.369 . S
C509 C518 1.429 . S
C510 C508 1.419 . S
C510 C511 1.363 . S
C510 H513 0.929 . S
C511 C510 1.363 . S
C511 C517 1.428 . S
H512 C508 0.930 . S
H513 C510 0.929 . S
S514 N515 1.613 . S
S514 N516 1.610 1_565 S
N515 S514 1.613 . S
N515 C518 1.350 1_565 S
N516 S514 1.610 1_545 S
N516 C517 1.351 . S
C517 C511 1.428 . S
C517 N516 1.351 . S
C517 C518 1.434 . S
C518 C509 1.429 . S
C518 N515 1.350 1_545 S
C518 C517 1.434 . S
C519 C520 1.369 . S
C519 C521 1.419 . S
C519 H523 0.930 . S
C520 C519 1.369 . S
C520 C529 1.429 . S
C521 C519 1.419 . S
C521 C522 1.363 . S
C521 H524 0.929 . S
C522 C521 1.363 . S
C522 C528 1.428 . S
H523 C519 0.930 . S
H524 C521 0.929 . S
S525 N526 1.613 . S
S525 N527 1.610 1_545 S
N526 S525 1.613 . S
N526 C529 1.350 1_545 S
N527 S525 1.610 1_565 S
N527 C528 1.351 . S
C528 C522 1.428 . S
C528 N527 1.351 . S
C528 C529 1.434 . S
C529 C520 1.429 . S
C529 N526 1.350 1_565 S
C529 C528 1.434 . S
C530 C531 1.369 . S
C530 C532 1.419 . S
C530 H534 0.930 . S
C531 C530 1.369 . S
C531 C540 1.429 . S
C532 C530 1.419 . S
C532 C533 1.363 . S
C532 H535 0.929 . S
C533 C532 1.363 . S
C533 C539 1.428 . S
H534 C530 0.930 . S
H535 C532 0.929 . S
S536 N537 1.613 . S
S536 N538 1.610 1_565 S
N537 S536 1.613 . S
N537 C540 1.350 1_565 S
N538 S536 1.610 1_545 S
N538 C539 1.351 . S
C539 C533 1.428 . S
C539 N538 1.351 . S
C539 C540 1.434 . S
C540 C531 1.429 . S
C540 N537 1.350 1_545 S
C540 C539 1.434 . S
C541 C542 1.369 . S
C541 C543 1.419 . S
C541 H545 0.930 . S
C542 C541 1.369 . S
C542 C551 1.429 . S
C543 C541 1.419 . S
C543 C544 1.363 . S
C543 H546 0.929 . S
C544 C543 1.363 . S
C544 C550 1.428 . S
H545 C541 0.930 . S
H546 C543 0.929 . S
S547 N548 1.613 . S
S547 N549 1.610 . S
N548 S547 1.613 . S
N548 C551 1.350 . S
N549 S547 1.610 . S
N549 C550 1.351 . S
C550 C544 1.428 . S
C550 N549 1.351 . S
C550 C551 1.434 . S
C551 C542 1.429 . S
C551 N548 1.350 . S
C551 C550 1.434 . S
C552 C553 1.369 . S
C552 C554 1.419 . S
C552 H556 0.930 . S
C553 C552 1.369 . S
C553 C562 1.429 . S
C554 C552 1.419 . S
C554 C555 1.363 . S
C554 H557 0.929 . S
C555 C554 1.363 . S
C555 C561 1.428 . S
H556 C552 0.930 . S
H557 C554 0.929 . S
S558 N559 1.613 . S
S558 N560 1.610 . S
N559 S558 1.613 . S
N559 C562 1.350 . S
N560 S558 1.610 . S
N560 C561 1.351 . S
C561 C555 1.428 . S
C561 N560 1.351 . S
C561 C562 1.434 . S
C562 C553 1.429 . S
C562 N559 1.350 . S
C562 C561 1.434 . S
C563 C564 1.369 . S
C563 C565 1.419 . S
C563 H567 0.930 . S
C564 C563 1.369 . S
C564 C573 1.429 . S
C565 C563 1.419 . S
C565 C566 1.363 . S
C565 H568 0.929 . S
C566 C565 1.363 . S
C566 C572 1.428 . S
H567 C563 0.930 . S
H568 C565 0.929 . S
S569 N570 1.613 . S
S569 N571 1.610 . S
N570 S569 1.613 . S
N570 C573 1.350 . S
N571 S569 1.610 . S
N571 C572 1.351 . S
C572 C566 1.428 . S
C572 N571 1.351 . S
C572 C573 1.434 . S
C573 C564 1.429 . S
C573 N570 1.350 . S
C573 C572 1.434 . S
C574 C575 1.369 . S
C574 C576 1.419 . S
C574 H578 0.930 . S
C575 C574 1.369 . S
C575 C584 1.429 . S
C576 C574 1.419 . S
C576 C577 1.363 . S
C576 H579 0.929 . S
C577 C576 1.363 . S
C577 C583 1.428 . S
H578 C574 0.930 . S
H579 C576 0.929 . S
S580 N581 1.613 . S
S580 N582 1.610 . S
N581 S580 1.613 . S
N581 C584 1.350 . S
N582 S580 1.610 . S
N582 C583 1.351 . S
C583 C577 1.428 . S
C583 N582 1.351 . S
C583 C584 1.434 . S
C584 C575 1.429 . S
C584 N581 1.350 . S
C584 C583 1.434 . S
C585 C586 1.369 . S
C585 C587 1.419 . S
C585 H589 0.930 . S
C586 C585 1.369 . S
C586 C595 1.429 . S
C587 C585 1.419 . S
C587 C588 1.363 . S
C587 H590 0.929 . S
C588 C587 1.363 . S
C588 C594 1.428 . S
H589 C585 0.930 . S
H590 C587 0.929 . S
S591 N592 1.613 . S
S591 N593 1.610 . S
N592 S591 1.613 . S
N592 C595 1.350 . S
N593 S591 1.610 . S
N593 C594 1.351 . S
C594 C588 1.428 . S
C594 N593 1.351 . S
C594 C595 1.434 . S
C595 C586 1.429 . S
C595 N592 1.350 . S
C595 C594 1.434 . S
C596 C597 1.369 . S
C596 C598 1.419 . S
C596 H600 0.930 . S
C597 C596 1.369 . S
C597 C606 1.429 . S
C598 C596 1.419 . S
C598 C599 1.363 . S
C598 H601 0.929 . S
C599 C598 1.363 . S
C599 C605 1.428 . S
H600 C596 0.930 . S
H601 C598 0.929 . S
S602 N603 1.613 . S
S602 N604 1.610 . S
N603 S602 1.613 . S
N603 C606 1.350 . S
N604 S602 1.610 . S
N604 C605 1.351 . S
C605 C599 1.428 . S
C605 N604 1.351 . S
C605 C606 1.434 . S
C606 C597 1.429 . S
C606 N603 1.350 . S
C606 C605 1.434 . S
C607 C608 1.369 . S
C607 C609 1.419 . S
C607 H611 0.930 . S
C608 C607 1.369 . S
C608 C617 1.429 . S
C609 C607 1.419 . S
C609 C610 1.363 . S
C609 H612 0.929 . S
C610 C609 1.363 . S
C610 C616 1.428 . S
H611 C607 0.930 . S
H612 C609 0.929 . S
S613 N614 1.613 . S
S613 N615 1.610 . S
N614 S613 1.613 . S
N614 C617 1.350 . S
N615 S613 1.610 . S
N615 C616 1.351 . S
C616 C610 1.428 . S
C616 N615 1.351 . S
C616 C617 1.434 . S
C617 C608 1.429 . S
C617 N614 1.350 . S
C617 C616 1.434 . S
C618 C619 1.369 . S
C618 C620 1.419 . S
C618 H622 0.930 . S
C619 C618 1.369 . S
C619 C628 1.429 . S
C620 C618 1.419 . S
C620 C621 1.363 . S
C620 H623 0.929 . S
C621 C620 1.363 . S
C621 C627 1.428 . S
H622 C618 0.930 . S
H623 C620 0.929 . S
S624 N625 1.613 . S
S624 N626 1.610 . S
N625 S624 1.613 . S
N625 C628 1.350 . S
N626 S624 1.610 . S
N626 C627 1.351 . S
C627 C621 1.428 . S
C627 N626 1.351 . S
C627 C628 1.434 . S
C628 C619 1.429 . S
C628 N625 1.350 . S
C628 C627 1.434 . S
C629 C630 1.369 . S
C629 C631 1.419 . S
C629 H633 0.930 . S
C630 C629 1.369 . S
C630 C639 1.429 . S
C631 C629 1.419 . S
C631 C632 1.363 . S
C631 H634 0.929 . S
C632 C631 1.363 . S
C632 C638 1.428 . S
H633 C629 0.930 . S
H634 C631 0.929 . S
S635 N636 1.613 . S
S635 N637 1.610 . S
N636 S635 1.613 . S
N636 C639 1.350 . S
N637 S635 1.610 . S
N637 C638 1.351 . S
C638 C632 1.428 . S
C638 N637 1.351 . S
C638 C639 1.434 . S
C639 C630 1.429 . S
C639 N636 1.350 . S
C639 C638 1.434 . S
C377 C25 1.544 . S
C379 C331 1.550 . S
C390 C295 1.553 . S
C388 C61 1.540 . S
C401 C318 1.551 . S
C399 C97 1.561 . S
C412 C306 1.547 . S
C410 C133 1.564 . S
C423 C375 1.554 . S
C421 C169 1.539 . S
C434 C339 1.554 . S
C432 C205 1.538 . S
C443 C241 1.561 . S
C445 C362 1.551 . S
C456 C350 1.550 . S
C454 C277 1.561 . S
C465 C31 1.518 . S
C467 C372 1.577 . S
C478 C342 1.577 . S
C476 C67 1.516 . S
C487 C103 1.571 . S
C489 C361 1.607 . S
C498 C139 1.573 . S
C500 C347 1.607 . S
C511 C328 1.577 . S
C509 C175 1.509 . S
C520 C211 1.509 . S
C522 C298 1.578 . S
C533 C317 1.607 . S
C531 C247 1.574 . S
C544 C303 1.607 . S
C542 C283 1.570 . S
C555 C353 1.583 . S
C553 C1 1.536 . S
C566 C369 1.582 . S
C564 C37 1.543 . S
C575 C73 1.544 . S
C577 C340 1.561 . S
C588 C364 1.561 . S
C586 C109 1.547 . S
C599 C309 1.581 . S
C597 C145 1.540 . S
C608 C181 1.540 . S
C610 C325 1.583 . S
C619 C217 1.547 . S
C621 C296 1.561 . S
C630 C253 1.545 . S
C632 C320 1.562 . S
