# Generated by pormake.
# Topology pto, (3,4)-cn, num edge types: 1
# Building blocks:
#     Node 0, Type 0, BuildingBlock: OLANEW_clean_sbu_2, # of connection points: 3
#     Node 1, Type 0, BuildingBlock: OLANEW_clean_sbu_2, # of connection points: 3
#     Node 2, Type 0, BuildingBlock: OLANEW_clean_sbu_2, # of connection points: 3
#     Node 3, Type 0, BuildingBlock: OLANEW_clean_sbu_2, # of connection points: 3
#     Node 4, Type 0, BuildingBlock: OLANEW_clean_sbu_2, # of connection points: 3
#     Node 5, Type 0, BuildingBlock: OLANEW_clean_sbu_2, # of connection points: 3
#     Node 6, Type 0, BuildingBlock: OLANEW_clean_sbu_2, # of connection points: 3
#     Node 7, Type 0, BuildingBlock: OLANEW_clean_sbu_2, # of connection points: 3
#     Node 8, Type 1, BuildingBlock: AZAVOO_clean_linker_0, # of connection points: 4
#     Node 9, Type 1, BuildingBlock: AZAVOO_clean_linker_0, # of connection points: 4
#     Node 10, Type 1, BuildingBlock: AZAVOO_clean_linker_0, # of connection points: 4
#     Node 11, Type 1, BuildingBlock: AZAVOO_clean_linker_0, # of connection points: 4
#     Node 12, Type 1, BuildingBlock: AZAVOO_clean_linker_0, # of connection points: 4
#     Node 13, Type 1, BuildingBlock: AZAVOO_clean_linker_0, # of connection points: 4
#     Edge 14, Type (0, 1), BuildingBlock: CIFDUS_clean_linker_0, # of connection points: 2
#     Edge 15, Type (0, 1), BuildingBlock: CIFDUS_clean_linker_0, # of connection points: 2
#     Edge 16, Type (0, 1), BuildingBlock: CIFDUS_clean_linker_0, # of connection points: 2
#     Edge 17, Type (0, 1), BuildingBlock: CIFDUS_clean_linker_0, # of connection points: 2
#     Edge 18, Type (0, 1), BuildingBlock: CIFDUS_clean_linker_0, # of connection points: 2
#     Edge 19, Type (0, 1), BuildingBlock: CIFDUS_clean_linker_0, # of connection points: 2
#     Edge 20, Type (0, 1), BuildingBlock: CIFDUS_clean_linker_0, # of connection points: 2
#     Edge 21, Type (0, 1), BuildingBlock: CIFDUS_clean_linker_0, # of connection points: 2
#     Edge 22, Type (0, 1), BuildingBlock: CIFDUS_clean_linker_0, # of connection points: 2
#     Edge 23, Type (0, 1), BuildingBlock: CIFDUS_clean_linker_0, # of connection points: 2
#     Edge 24, Type (0, 1), BuildingBlock: CIFDUS_clean_linker_0, # of connection points: 2
#     Edge 25, Type (0, 1), BuildingBlock: CIFDUS_clean_linker_0, # of connection points: 2
#     Edge 26, Type (0, 1), BuildingBlock: CIFDUS_clean_linker_0, # of connection points: 2
#     Edge 27, Type (0, 1), BuildingBlock: CIFDUS_clean_linker_0, # of connection points: 2
#     Edge 28, Type (0, 1), BuildingBlock: CIFDUS_clean_linker_0, # of connection points: 2
#     Edge 29, Type (0, 1), BuildingBlock: CIFDUS_clean_linker_0, # of connection points: 2
#     Edge 30, Type (0, 1), BuildingBlock: CIFDUS_clean_linker_0, # of connection points: 2
#     Edge 31, Type (0, 1), BuildingBlock: CIFDUS_clean_linker_0, # of connection points: 2
#     Edge 32, Type (0, 1), BuildingBlock: CIFDUS_clean_linker_0, # of connection points: 2
#     Edge 33, Type (0, 1), BuildingBlock: CIFDUS_clean_linker_0, # of connection points: 2
#     Edge 34, Type (0, 1), BuildingBlock: CIFDUS_clean_linker_0, # of connection points: 2
#     Edge 35, Type (0, 1), BuildingBlock: CIFDUS_clean_linker_0, # of connection points: 2
#     Edge 36, Type (0, 1), BuildingBlock: CIFDUS_clean_linker_0, # of connection points: 2
#     Edge 37, Type (0, 1), BuildingBlock: CIFDUS_clean_linker_0, # of connection points: 2
# Relax obj value: 0.070
# Max RMSD: 0.224
# Mean RMSD: 0.133
data_MOF--net-pto--node1-OLANEW_clean_sbu_2--node2-AZAVOO_clean_linker_0--edge1-CIFDUS_clean_linker_0
_symmetry_space_group_name_H-M    P1
_symmetry_Int_Tables_number       1
_symmetry_cell_setting            triclinic
loop_
_symmetry_equiv_pos_as_xyz
'x, y, z'
_cell_length_a     40.954599
_cell_length_b     45.034029
_cell_length_c     45.959263
_cell_angle_alpha  92.79868
_cell_angle_beta   90.519159
_cell_angle_gamma 117.10135
loop_
_atom_site_label
_atom_site_type_symbol
_atom_site_fract_x
_atom_site_fract_y
_atom_site_fract_z
_atom_type_partial_charge
O0 O 0.36914 0.48909 0.2273 0.0
Cd1 Cd 0.3621 0.5147 0.27332 0.0
O2 O 0.33108 0.50065 0.20176 0.0
Cd3 Cd 0.3179 0.52758 0.23663 0.0
O4 O 0.28234 0.54889 0.25181 0.0
C5 C 0.28463 0.57476 0.24013 0.0
O6 O 0.31014 0.58905 0.22114 0.0
C7 C 0.35254 0.4874 0.2033 0.0
C8 C 0.37113 0.48006 0.31891 0.0
O9 O 0.33977 0.47047 0.30604 0.0
O10 O 0.39821 0.50654 0.31066 0.0
O11 O 0.36496 0.04501 0.82511 0.0
Cd12 Cd 0.33157 0.03185 0.7779 0.0
O13 O 0.31809 0.00643 0.84681 0.0
Cd14 Cd 0.28011 0.98172 0.80951 0.0
O15 O 0.23441 0.93332 0.7951 0.0
C16 C 0.20871 0.92078 0.81293 0.0
O17 O 0.21035 0.93832 0.8371 0.0
C18 C 0.35063 0.03023 0.84802 0.0
C19 C 0.35248 0.08661 0.74309 0.0
O20 O 0.3268 0.07953 0.76128 0.0
O21 O 0.36872 0.06808 0.74162 0.0
O22 O 0.90717 0.96395 0.32225 0.0
Cd23 Cd 0.95363 0.96789 0.28748 0.0
O24 O 0.86647 0.94119 0.28624 0.0
Cd25 Cd 0.81171 0.92077 0.26524 0.0
O26 O 0.76343 0.91919 0.2432 0.0
C27 C 0.76634 0.94728 0.23636 0.0
O28 O 0.79719 0.97429 0.24307 0.0
C29 C 0.8742 0.95243 0.31269 0.0
C30 C 0.96531 0.91165 0.28241 0.0
O31 O 0.98483 0.93636 0.30033 0.0
O32 O 0.93993 0.9134 0.26718 0.0
O33 O 0.71646 0.2468 0.806 0.0
Cd34 Cd 0.66682 0.19002 0.80873 0.0
O35 O 0.72667 0.25506 0.85345 0.0
Cd36 Cd 0.67797 0.2087 0.86218 0.0
O37 O 0.62084 0.18248 0.87503 0.0
C38 C 0.59591 0.18055 0.85723 0.0
O39 O 0.60525 0.1916 0.83113 0.0
C40 C 0.7349 0.26537 0.82797 0.0
C41 C 0.65282 0.15493 0.75473 0.0
O42 O 0.63777 0.17373 0.76132 0.0
O43 O 0.67423 0.15238 0.77386 0.0
O44 O 0.81008 0.88576 0.69367 0.0
Cd45 Cd 0.83583 0.87566 0.73838 0.0
O46 O 0.80267 0.92518 0.71852 0.0
Cd47 Cd 0.81503 0.91756 0.76292 0.0
O48 O 0.79859 0.92882 0.8054 0.0
C49 C 0.77124 0.90665 0.81762 0.0
O50 O 0.75545 0.87598 0.80582 0.0
C51 C 0.80093 0.90927 0.69445 0.0
C52 C 0.85948 0.82636 0.73439 0.0
O53 O 0.82762 0.81986 0.74365 0.0
O54 O 0.87974 0.85584 0.72622 0.0
O55 O 0.62748 0.34213 0.32102 0.0
Cd56 Cd 0.56655 0.29517 0.32731 0.0
O57 O 0.60744 0.37937 0.32958 0.0
Cd58 Cd 0.55059 0.3416 0.32264 0.0
O59 O 0.51239 0.31488 0.28611 0.0
C60 C 0.52444 0.30205 0.26638 0.0
O61 O 0.5571 0.30379 0.27031 0.0
C62 C 0.63391 0.37251 0.32495 0.0
C63 C 0.56936 0.23761 0.34387 0.0
O64 O 0.57093 0.26004 0.3629 0.0
O65 O 0.56652 0.24243 0.3169 0.0
O66 O 0.35398 0.53976 0.85659 0.0
Cd67 Cd 0.36148 0.57575 0.81635 0.0
O68 O 0.32053 0.49388 0.82946 0.0
Cd69 Cd 0.33413 0.51547 0.78724 0.0
O70 O 0.35465 0.49501 0.75192 0.0
C71 C 0.37958 0.4872 0.75946 0.0
O72 O 0.39272 0.49445 0.78648 0.0
C73 C 0.33432 0.50825 0.85421 0.0
C74 C 0.30311 0.59145 0.81158 0.0
O75 O 0.30287 0.56647 0.79679 0.0
O76 O 0.33099 0.60906 0.8286 0.0
O77 O 0.48385 0.02443 0.30148 0.0
Cd78 Cd 0.46829 0.01104 0.35209 0.0
O79 O 0.42872 0.98589 0.28883 0.0
Cd80 Cd 0.37766 0.95079 0.26529 0.0
O81 O 0.3205 0.9118 0.2635 0.0
C82 C 0.30746 0.88687 0.24506 0.0
O83 O 0.32869 0.88431 0.22486 0.0
C84 C 0.46002 0.00782 0.28136 0.0
C85 C 0.47227 0.06395 0.38873 0.0
O86 O 0.50002 0.05817 0.38616 0.0
O87 O 0.44302 0.04516 0.37353 0.0
H88 H 0.95534 0.415 0.30339 0.0
H89 H 0.76094 0.61861 0.22983 0.0
H90 H 0.03707 0.59701 0.30614 0.0
H91 H 0.09244 0.58929 0.30842 0.0
H92 H 0.10689 0.6059 0.21656 0.0
H93 H 0.05149 0.61369 0.21455 0.0
H94 H 0.95618 0.54538 0.3113 0.0
H95 H 0.95317 0.49038 0.31656 0.0
H96 H 0.98162 0.48759 0.22641 0.0
H97 H 0.98413 0.54243 0.22138 0.0
H98 H 0.90141 0.57707 0.31244 0.0
H99 H 0.84344 0.53013 0.32441 0.0
H100 H 0.8397 0.48067 0.24051 0.0
H101 H 0.89812 0.52776 0.22891 0.0
H102 H 0.91692 0.64686 0.29975 0.0
H103 H 0.86063 0.6531 0.29785 0.0
H104 H 0.83073 0.59789 0.21409 0.0
H105 H 0.88732 0.59217 0.21614 0.0
H106 H 0.99743 0.69309 0.29786 0.0
H107 H 0.99292 0.74526 0.29829 0.0
H108 H 0.95143 0.72201 0.2088 0.0
H109 H 0.95468 0.66904 0.20919 0.0
H110 H 0.06216 0.67496 0.29564 0.0
H111 H 0.12201 0.72261 0.28849 0.0
H112 H 0.09221 0.72008 0.19764 0.0
H113 H 0.03249 0.67228 0.20499 0.0
O114 O 0.95668 0.43673 0.30084 0.0
O115 O 0.97167 0.43665 0.25445 0.0
O116 O 0.8 0.64476 0.27427 0.0
O117 O 0.78337 0.61649 0.23118 0.0
C118 C 0.00591 0.60915 0.25882 0.0
C119 C 0.9718 0.58102 0.26265 0.0
C120 C 0.93924 0.58452 0.26307 0.0
C121 C 0.94068 0.61593 0.25884 0.0
C122 C 0.97477 0.64402 0.25505 0.0
C123 C 0.00737 0.64066 0.25493 0.0
C124 C 0.04026 0.60578 0.26017 0.0
C125 C 0.05228 0.59903 0.28655 0.0
C126 C 0.08381 0.59456 0.28779 0.0
C127 C 0.10398 0.59692 0.26266 0.0
C128 C 0.09219 0.60433 0.23636 0.0
C129 C 0.06053 0.60865 0.23513 0.0
C130 C 0.97022 0.54777 0.26594 0.0
C131 C 0.96159 0.53276 0.2927 0.0
C132 C 0.95998 0.50139 0.29565 0.0
C133 C 0.96712 0.48457 0.27189 0.0
C134 C 0.97595 0.49984 0.24513 0.0
C135 C 0.97745 0.53116 0.24221 0.0
C136 C 0.90385 0.55584 0.26979 0.0
C137 C 0.88797 0.55613 0.29663 0.0
C138 C 0.85482 0.52933 0.30337 0.0
C139 C 0.83687 0.50167 0.28338 0.0
C140 C 0.85302 0.50141 0.25651 0.0
C141 C 0.88625 0.52831 0.24977 0.0
C142 C 0.90625 0.61926 0.258 0.0
C143 C 0.89824 0.63628 0.28097 0.0
C144 C 0.86604 0.63972 0.27985 0.0
C145 C 0.84119 0.62604 0.25577 0.0
C146 C 0.84926 0.60876 0.23292 0.0
C147 C 0.88151 0.60541 0.23404 0.0
C148 C 0.9764 0.67743 0.25351 0.0
C149 C 0.98789 0.69958 0.27824 0.0
C150 C 0.9854 0.72945 0.27836 0.0
C151 C 0.97171 0.73791 0.25358 0.0
C152 C 0.9615 0.71607 0.22842 0.0
C153 C 0.96367 0.68598 0.22845 0.0
C154 C 0.04311 0.6702 0.25082 0.0
C155 C 0.06858 0.68481 0.27424 0.0
C156 C 0.10261 0.71208 0.27014 0.0
C157 C 0.1118 0.72506 0.24249 0.0
C158 C 0.08604 0.71042 0.21911 0.0
C159 C 0.05191 0.68331 0.22329 0.0
C160 C 0.96534 0.45123 0.27508 0.0
C161 C 0.807 0.62972 0.25441 0.0
H162 H 0.03941 0.43579 0.83014 0.0
H163 H 0.73637 0.51724 0.72728 0.0
H164 H 0.05077 0.6016 0.82754 0.0
H165 H 0.11138 0.60321 0.8294 0.0
H166 H 0.11833 0.61299 0.73633 0.0
H167 H 0.05766 0.61135 0.73471 0.0
H168 H 0.97931 0.53129 0.82933 0.0
H169 H 0.00082 0.4898 0.83797 0.0
H170 H 0.03861 0.49718 0.74978 0.0
H171 H 0.01651 0.5383 0.74134 0.0
H172 H 0.89923 0.5269 0.82044 0.0
H173 H 0.85607 0.46801 0.825 0.0
H174 H 0.89041 0.44285 0.74273 0.0
H175 H 0.93265 0.50197 0.73799 0.0
H176 H 0.88989 0.58881 0.8109 0.0
H177 H 0.82452 0.57276 0.80389 0.0
H178 H 0.8254 0.52987 0.71779 0.0
H179 H 0.89085 0.5464 0.72501 0.0
H180 H 0.9519 0.65207 0.81436 0.0
H181 H 0.92699 0.69191 0.80909 0.0
H182 H 0.9171 0.6711 0.71582 0.0
H183 H 0.9414 0.63074 0.72135 0.0
H184 H 0.03706 0.66193 0.82201 0.0
H185 H 0.08093 0.72137 0.8236 0.0
H186 H 0.06485 0.72192 0.73059 0.0
H187 H 0.02131 0.66221 0.72922 0.0
O188 O 0.03083 0.45201 0.82617 0.0
O189 O 0.04986 0.4568 0.78067 0.0
O190 O 0.76326 0.5465 0.77498 0.0
O191 O 0.76223 0.52395 0.73062 0.0
C192 C 0.01035 0.59744 0.77881 0.0
C193 C 0.98414 0.56354 0.77989 0.0
C194 C 0.94633 0.55424 0.77688 0.0
C195 C 0.93472 0.57885 0.77255 0.0
C196 C 0.96089 0.6128 0.7718 0.0
C197 C 0.99874 0.62213 0.77502 0.0
C198 C 0.04994 0.60638 0.781 0.0
C199 C 0.06593 0.60515 0.80773 0.0
C200 C 0.10048 0.60603 0.80873 0.0
C201 C 0.11937 0.60788 0.78295 0.0
C202 C 0.10419 0.61119 0.75647 0.0
C203 C 0.06979 0.61061 0.75554 0.0
C204 C 0.99643 0.53778 0.78475 0.0
C205 C 0.99206 0.52374 0.81188 0.0
C206 C 0.00446 0.50013 0.81676 0.0
C207 C 0.02151 0.49021 0.79458 0.0
C208 C 0.02564 0.50428 0.76734 0.0
C209 C 0.01311 0.52779 0.76247 0.0
C210 C 0.91896 0.51869 0.77885 0.0
C211 C 0.8971 0.50867 0.80328 0.0
C212 C 0.87277 0.47498 0.80598 0.0
C213 C 0.86992 0.45065 0.7843 0.0
C214 C 0.89165 0.46093 0.75968 0.0
C215 C 0.91591 0.49465 0.75698 0.0
C216 C 0.89506 0.56895 0.76838 0.0
C217 C 0.87593 0.57613 0.79049 0.0
C218 C 0.83859 0.56684 0.78646 0.0
C219 C 0.81973 0.55006 0.76025 0.0
C220 C 0.83907 0.54279 0.73821 0.0
C221 C 0.87642 0.55216 0.74226 0.0
C222 C 0.94839 0.63861 0.76823 0.0
C223 C 0.94455 0.6563 0.7928 0.0
C224 C 0.93019 0.67884 0.78977 0.0
C225 C 0.92004 0.68444 0.76205 0.0
C226 C 0.92489 0.66734 0.73739 0.0
C227 C 0.93868 0.64434 0.7405 0.0
C228 C 0.02608 0.65786 0.77552 0.0
C229 C 0.04319 0.6749 0.80199 0.0
C230 C 0.06798 0.70886 0.80286 0.0
C231 C 0.0762 0.7264 0.77723 0.0
C232 C 0.05929 0.70906 0.75065 0.0
C233 C 0.03434 0.67507 0.74983 0.0
C234 C 0.03495 0.46535 0.79993 0.0
C235 C 0.78006 0.54013 0.75584 0.0
H236 H 0.43872 0.24529 0.35147 0.0
H237 H 0.44891 0.51321 0.5896 0.0
H238 H 0.38601 0.22389 0.52292 0.0
H239 H 0.38737 0.17541 0.49779 0.0
H240 H 0.50412 0.23332 0.48721 0.0
H241 H 0.50265 0.28102 0.51379 0.0
H242 H 0.39172 0.26733 0.46696 0.0
H243 H 0.40044 0.25203 0.41679 0.0
H244 H 0.51709 0.31674 0.42816 0.0
H245 H 0.50793 0.3316 0.47831 0.0
H246 H 0.37663 0.33791 0.49452 0.0
H247 H 0.36972 0.37191 0.45768 0.0
H248 H 0.48604 0.41431 0.44244 0.0
H249 H 0.4929 0.38181 0.48107 0.0
H250 H 0.37025 0.34943 0.55388 0.0
H251 H 0.36468 0.39938 0.57031 0.0
H252 H 0.48209 0.45868 0.56475 0.0
H253 H 0.48729 0.40837 0.54876 0.0
H254 H 0.365 0.29944 0.59081 0.0
H255 H 0.35024 0.32774 0.6314 0.0
H256 H 0.46532 0.39689 0.64459 0.0
H257 H 0.47988 0.36766 0.60456 0.0
H258 H 0.36958 0.24779 0.57759 0.0
H259 H 0.35991 0.20721 0.61418 0.0
H260 H 0.47725 0.24388 0.62409 0.0
H261 H 0.48656 0.28445 0.58723 0.0
O262 O 0.43583 0.25182 0.37128 0.0
O263 O 0.49554 0.28561 0.3782 0.0
O264 O 0.39011 0.46142 0.58571 0.0
O265 O 0.45024 0.49316 0.58266 0.0
C266 C 0.44167 0.28701 0.52871 0.0
C267 C 0.44395 0.3089 0.5068 0.0
C268 C 0.43875 0.33724 0.51376 0.0
C269 C 0.43296 0.3446 0.54281 0.0
C270 C 0.4306 0.32281 0.56477 0.0
C271 C 0.43412 0.29355 0.55764 0.0
C272 C 0.44421 0.25594 0.52015 0.0
C273 C 0.41207 0.22566 0.51616 0.0
C274 C 0.41285 0.19817 0.50134 0.0
C275 C 0.44573 0.20065 0.48988 0.0
C276 C 0.47836 0.23039 0.49581 0.0
C277 C 0.4776 0.25773 0.51097 0.0
C278 C 0.44916 0.30071 0.47608 0.0
C279 C 0.41907 0.27827 0.45846 0.0
C280 C 0.42416 0.26955 0.42987 0.0
C281 C 0.45947 0.28319 0.41844 0.0
C282 C 0.48954 0.30582 0.43624 0.0
C283 C 0.48439 0.31445 0.46483 0.0
C284 C 0.4352 0.35725 0.49033 0.0
C285 C 0.40062 0.35466 0.48327 0.0
C286 C 0.39671 0.37391 0.46194 0.0
C287 C 0.42726 0.39576 0.44675 0.0
C288 C 0.46195 0.3981 0.45384 0.0
C289 C 0.46591 0.37921 0.47563 0.0
C290 C 0.4292 0.37533 0.55037 0.0
C291 C 0.3947 0.37327 0.55616 0.0
C292 C 0.39161 0.40182 0.56554 0.0
C293 C 0.42299 0.43302 0.56899 0.0
C294 C 0.45741 0.43505 0.56242 0.0
C295 C 0.46046 0.40642 0.55316 0.0
C296 C 0.42356 0.33126 0.59489 0.0
C297 C 0.38721 0.31946 0.60351 0.0
C298 C 0.37876 0.33616 0.62631 0.0
C299 C 0.40653 0.36502 0.64075 0.0
C300 C 0.4433 0.37471 0.63398 0.0
C301 C 0.45173 0.35788 0.61123 0.0
C302 C 0.42876 0.26935 0.58011 0.0
C303 C 0.39319 0.24733 0.58795 0.0
C304 C 0.38775 0.22419 0.60887 0.0
C305 C 0.41782 0.22245 0.62224 0.0
C306 C 0.4535 0.24444 0.6141 0.0
C307 C 0.45891 0.26771 0.59319 0.0
C308 C 0.46485 0.27371 0.38813 0.0
C309 C 0.41996 0.4633 0.57959 0.0
H310 H 0.58628 0.10263 0.85392 0.0
H311 H 0.75188 0.92345 0.0436 0.0
H312 H 0.58056 0.08214 0.00308 0.0
H313 H 0.5401 0.09798 0.97548 0.0
H314 H 0.45423 0.99619 0.97504 0.0
H315 H 0.49479 0.98078 0.00272 0.0
H316 H 0.63649 0.07337 0.96339 0.0
H317 H 0.62618 0.09341 0.91732 0.0
H318 H 0.52422 0.00277 0.90262 0.0
H319 H 0.53511 0.98291 0.94858 0.0
H320 H 0.69058 0.04262 0.98564 0.0
H321 H 0.7273 0.02956 0.95033 0.0
H322 H 0.62869 0.94583 0.91408 0.0
H323 H 0.59248 0.95848 0.95008 0.0
H324 H 0.68667 0.03491 0.05419 0.0
H325 H 0.73477 0.01896 0.06579 0.0
H326 H 0.67308 0.9244 0.01699 0.0
H327 H 0.62492 0.94045 0.00597 0.0
H328 H 0.62344 0.04361 0.09289 0.0
H329 H 0.64986 0.03741 0.13859 0.0
H330 H 0.62326 0.93569 0.11004 0.0
H331 H 0.5941 0.94137 0.06573 0.0
H332 H 0.56405 0.06032 0.06732 0.0
H333 H 0.52842 0.05757 0.11059 0.0
H334 H 0.48887 0.95053 0.10832 0.0
H335 H 0.52324 0.95348 0.06464 0.0
O336 O 0.59064 0.09357 0.87136 0.0
O337 O 0.53936 0.04584 0.86409 0.0
O338 O 0.76383 0.97929 0.06429 0.0
O339 O 0.73333 0.93044 0.03927 0.0
C340 C 0.5683 0.0187 0.01155 0.0
C341 C 0.5907 0.01677 0.9889 0.0
C342 C 0.61739 0.00602 0.99451 0.0
C343 C 0.62272 0.99829 0.02298 0.0
C344 C 0.60003 0.99964 0.04555 0.0
C345 C 0.57202 0.0089 0.03964 0.0
C346 C 0.54063 0.03027 0.00476 0.0
C347 C 0.55246 0.06364 0.9981 0.0
C348 C 0.52948 0.07255 0.98202 0.0
C349 C 0.49419 0.04824 0.97261 0.0
C350 C 0.48116 0.01561 0.98206 0.0
C351 C 0.50424 0.00671 0.99804 0.0
C352 C 0.5865 0.02678 0.95931 0.0
C353 C 0.61227 0.05767 0.94993 0.0
C354 C 0.60617 0.06914 0.92371 0.0
C355 C 0.57422 0.04981 0.90639 0.0
C356 C 0.54905 0.01833 0.91547 0.0
C357 C 0.55522 0.00689 0.94166 0.0
C358 C 0.63891 0.00145 0.97043 0.0
C359 C 0.67694 0.02173 0.96981 0.0
C360 C 0.69782 0.01424 0.9496 0.0
C361 C 0.68096 0.98642 0.9296 0.0
C362 C 0.6426 0.96703 0.92956 0.0
C363 C 0.6218 0.97448 0.94982 0.0
C364 C 0.65237 0.98886 0.02923 0.0
C365 C 0.68363 0.01078 0.04604 0.0
C366 C 0.71105 0.0016 0.0526 0.0
C367 C 0.70777 0.97038 0.0423 0.0
C368 C 0.67649 0.94861 0.02526 0.0
C369 C 0.649 0.95775 0.01883 0.0
C370 C 0.60752 0.99316 0.07572 0.0
C371 C 0.62203 0.01959 0.09707 0.0
C372 C 0.63767 0.01612 0.123 0.0
C373 C 0.63988 0.98639 0.12772 0.0
C374 C 0.62218 0.95897 0.10738 0.0
C375 C 0.60569 0.96222 0.08182 0.0
C376 C 0.5463 0.00712 0.06287 0.0
C377 C 0.54685 0.03623 0.07575 0.0
C378 C 0.52681 0.03461 0.10067 0.0
C379 C 0.50599 0.00385 0.11318 0.0
C380 C 0.50413 0.97459 0.0992 0.0
C381 C 0.52397 0.97623 0.07428 0.0
C382 C 0.56695 0.06278 0.87929 0.0
C383 C 0.73674 0.96044 0.04933 0.0
H384 H 0.66369 0.98075 0.29246 0.0
H385 H 0.54951 0.15487 0.52273 0.0
H386 H 0.65781 0.95179 0.44081 0.0
H387 H 0.69751 0.93205 0.41567 0.0
H388 H 0.79263 0.01221 0.45967 0.0
H389 H 0.75313 0.03273 0.48374 0.0
H390 H 0.61347 0.98565 0.41059 0.0
H391 H 0.62358 0.9778 0.35897 0.0
H392 H 0.73939 0.04408 0.37362 0.0
H393 H 0.7288 0.05213 0.42504 0.0
H394 H 0.57403 0.02453 0.44539 0.0
H395 H 0.55463 0.06206 0.42193 0.0
H396 H 0.66788 0.13148 0.41002 0.0
H397 H 0.6873 0.09428 0.43377 0.0
H398 H 0.57168 0.01672 0.51491 0.0
H399 H 0.53385 0.04446 0.52737 0.0
H400 H 0.62153 0.13858 0.50365 0.0
H401 H 0.65912 0.11061 0.49153 0.0
H402 H 0.62318 0.99127 0.55758 0.0
H403 H 0.62144 0.008 0.60918 0.0
H404 H 0.68537 0.1115 0.59043 0.0
H405 H 0.68824 0.09474 0.53953 0.0
H406 H 0.65858 0.95125 0.51673 0.0
H407 H 0.68562 0.93312 0.55573 0.0
H408 H 0.76115 0.03626 0.5793 0.0
H409 H 0.734 0.05405 0.5405 0.0
O410 O 0.66018 0.98466 0.31283 0.0
O411 O 0.71957 0.01844 0.32167 0.0
O412 O 0.52027 0.09462 0.53134 0.0
O413 O 0.56427 0.14346 0.51885 0.0
C414 C 0.67977 0.00996 0.47402 0.0
C415 C 0.66441 0.02267 0.45316 0.0
C416 C 0.64431 0.03963 0.46242 0.0
C417 C 0.63962 0.04408 0.49248 0.0
C418 C 0.65606 0.03259 0.51334 0.0
C419 C 0.6759 0.01522 0.50412 0.0
C420 C 0.70256 0.99376 0.46404 0.0
C421 C 0.68714 0.96464 0.44551 0.0
C422 C 0.70974 0.95343 0.43118 0.0
C423 C 0.748 0.97071 0.43579 0.0
C424 C 0.76316 0.99831 0.45603 0.0
C425 C 0.74063 0.00995 0.46986 0.0
C426 C 0.67042 0.01926 0.42157 0.0
C427 C 0.64094 0.99864 0.40253 0.0
C428 C 0.64682 0.99412 0.3731 0.0
C429 C 0.68233 0.01017 0.36219 0.0
C430 C 0.71172 0.03125 0.3813 0.0
C431 C 0.70576 0.03587 0.41069 0.0
C432 C 0.63207 0.05672 0.44127 0.0
C433 C 0.59457 0.04724 0.43673 0.0
C434 C 0.58352 0.06863 0.42343 0.0
C435 C 0.60988 0.09941 0.41428 0.0
C436 C 0.64722 0.10767 0.41681 0.0
C437 C 0.65826 0.08638 0.43014 0.0
C438 C 0.61798 0.0616 0.50212 0.0
C439 C 0.58275 0.04338 0.51269 0.0
C440 C 0.56117 0.05926 0.51966 0.0
C441 C 0.57456 0.09371 0.51625 0.0
C442 C 0.61028 0.11201 0.50634 0.0
C443 C 0.63182 0.0961 0.49941 0.0
C444 C 0.65539 0.04184 0.54474 0.0
C445 C 0.637 0.0175 0.56473 0.0
C446 C 0.63603 0.02703 0.59406 0.0
C447 C 0.65287 0.06102 0.60351 0.0
C448 C 0.67168 0.08518 0.58352 0.0
C449 C 0.67326 0.07565 0.5545 0.0
C450 C 0.694 0.00397 0.5261 0.0
C451 C 0.68121 0.96983 0.53018 0.0
C452 C 0.69676 0.95954 0.55232 0.0
C453 C 0.72524 0.9833 0.57074 0.0
C454 C 0.73882 0.0174 0.56579 0.0
C455 C 0.72341 0.02762 0.54365 0.0
C456 C 0.68863 0.00479 0.33104 0.0
C457 C 0.55132 0.1105 0.52268 0.0
H458 H 0.34503 0.31816 0.81024 0.0
H459 H 0.45206 0.12501 0.0436 0.0
H460 H 0.41295 0.36911 0.98143 0.0
H461 H 0.39319 0.40703 0.95993 0.0
H462 H 0.28232 0.32685 0.95028 0.0
H463 H 0.30295 0.28882 0.97066 0.0
H464 H 0.41023 0.33244 0.92697 0.0
H465 H 0.39134 0.33571 0.87711 0.0
H466 H 0.30164 0.23603 0.87996 0.0
H467 H 0.32054 0.2333 0.93006 0.0
H468 H 0.44111 0.28751 0.928 0.0
H469 H 0.46581 0.26007 0.89425 0.0
H470 H 0.39341 0.16448 0.92671 0.0
H471 H 0.36691 0.19198 0.95951 0.0
H472 H 0.46918 0.26477 0.98676 0.0
H473 H 0.49502 0.22684 0.99715 0.0
H474 H 0.39545 0.16303 0.03961 0.0
H475 H 0.36973 0.20097 0.02869 0.0
H476 H 0.46423 0.29647 0.04552 0.0
H477 H 0.4808 0.29697 0.09683 0.0
H478 H 0.36659 0.25745 0.11819 0.0
H479 H 0.3502 0.25684 0.06662 0.0
H480 H 0.44195 0.35156 0.04301 0.0
H481 H 0.44172 0.38964 0.0828 0.0
H482 H 0.32329 0.34338 0.07606 0.0
H483 H 0.32372 0.30495 0.03651 0.0
O484 O 0.35211 0.31624 0.82993 0.0
O485 O 0.30676 0.26472 0.8323 0.0
O486 O 0.49315 0.17418 0.01726 0.0
O487 O 0.44265 0.14062 0.03948 0.0
C488 C 0.37297 0.30214 0.9851 0.0
C489 C 0.37716 0.28133 0.96293 0.0
C490 C 0.39212 0.25968 0.96988 0.0
C491 C 0.40129 0.25778 0.9993 0.0
C492 C 0.39632 0.27807 0.02146 0.0
C493 C 0.38336 0.30109 0.01421 0.0
C494 C 0.35943 0.32623 0.97729 0.0
C495 C 0.38426 0.36 0.97522 0.0
C496 C 0.3728 0.38167 0.96306 0.0
C497 C 0.33617 0.36994 0.95304 0.0
C498 C 0.31086 0.33655 0.95718 0.0
C499 C 0.32247 0.31483 0.96901 0.0
C500 C 0.36652 0.28276 0.93221 0.0
C501 C 0.38638 0.31142 0.91685 0.0
C502 C 0.3756 0.31317 0.88833 0.0
C503 C 0.3449 0.28617 0.87457 0.0
C504 C 0.32537 0.25729 0.88993 0.0
C505 C 0.33614 0.25562 0.91851 0.0
C506 C 0.40209 0.24182 0.94622 0.0
C507 C 0.42938 0.26051 0.92705 0.0
C508 C 0.4436 0.24481 0.90786 0.0
C509 C 0.43142 0.21019 0.90793 0.0
C510 C 0.40311 0.1912 0.92627 0.0
C511 C 0.38808 0.20687 0.94496 0.0
C512 C 0.41751 0.23548 0.00682 0.0
C513 C 0.45301 0.24257 0.99829 0.0
C514 C 0.4677 0.22089 0.00428 0.0
C515 C 0.44723 0.19182 0.01914 0.0
C516 C 0.4119 0.18513 0.02807 0.0
C517 C 0.39717 0.20679 0.02195 0.0
C518 C 0.406 0.27632 0.05233 0.0
C519 C 0.44274 0.28734 0.06119 0.0
C520 C 0.45212 0.2876 0.09049 0.0
C521 C 0.42494 0.27709 0.11149 0.0
C522 C 0.3881 0.26584 0.1025 0.0
C523 C 0.37871 0.26535 0.07312 0.0
C524 C 0.38284 0.3254 0.037 0.0
C525 C 0.41596 0.34967 0.05014 0.0
C526 C 0.4158 0.3713 0.07286 0.0
C527 C 0.38249 0.36934 0.08256 0.0
C528 C 0.34936 0.34557 0.06885 0.0
C529 C 0.34954 0.32366 0.04631 0.0
C530 C 0.33334 0.28825 0.84434 0.0
C531 C 0.46253 0.16846 0.0252 0.0
H532 H 0.22332 0.54553 0.27186 0.0
H533 H 0.28174 0.62908 0.21874 0.0
H534 H 0.23169 0.64421 0.2221 0.0
H535 H 0.1698 0.63187 0.23781 0.0
H536 H 0.11079 0.5473 0.28963 0.0
H537 H 0.16277 0.53469 0.28935 0.0
C538 C 0.22533 0.56726 0.26126 0.0
C539 C 0.25617 0.58599 0.24491 0.0
C540 C 0.19624 0.57558 0.26294 0.0
C541 C 0.25827 0.61411 0.23136 0.0
C542 C 0.22961 0.62276 0.2332 0.0
C543 C 0.16833 0.61065 0.24899 0.0
C544 C 0.13643 0.59049 0.26362 0.0
C545 C 0.19818 0.60331 0.24848 0.0
C546 C 0.13515 0.56341 0.27843 0.0
C547 C 0.16479 0.55606 0.27815 0.0
H548 H 0.20159 0.87449 0.76925 0.0
H549 H 0.14953 0.88859 0.84633 0.0
H550 H 0.10354 0.83021 0.84152 0.0
H551 H 0.07934 0.77455 0.81673 0.0
H552 H 0.13144 0.75963 0.74016 0.0
H553 H 0.1758 0.81891 0.74327 0.0
C554 C 0.18001 0.86487 0.78484 0.0
C555 C 0.17922 0.88596 0.8082 0.0
C556 C 0.15366 0.83105 0.78211 0.0
C557 C 0.15099 0.87299 0.8282 0.0
C558 C 0.12464 0.83954 0.82551 0.0
C559 C 0.10051 0.78425 0.8008 0.0
C560 C 0.10225 0.76265 0.77839 0.0
C561 C 0.126 0.81824 0.80282 0.0
C562 C 0.12937 0.77575 0.75754 0.0
C563 C 0.15485 0.80962 0.75939 0.0
H564 H 0.92357 0.85273 0.25186 0.0
H565 H 0.02262 0.90436 0.30567 0.0
H566 H 0.03428 0.85587 0.30021 0.0
H567 H 0.0162 0.79881 0.28052 0.0
H568 H 0.91517 0.74594 0.22917 0.0
H569 H 0.90508 0.79529 0.23266 0.0
C570 C 0.94774 0.85341 0.26237 0.0
C571 C 0.97215 0.88212 0.27917 0.0
C572 C 0.95414 0.82534 0.25937 0.0
C573 C 0.00328 0.88254 0.29271 0.0
C574 C 0.01004 0.85485 0.28955 0.0
C575 C 0.99179 0.79791 0.27028 0.0
C576 C 0.96656 0.76859 0.25458 0.0
C577 C 0.98557 0.82608 0.27303 0.0
C578 C 0.93546 0.76826 0.24097 0.0
C579 C 0.92943 0.7964 0.2432 0.0
H580 H 0.75238 0.29839 0.77786 0.0
H581 H 0.78301 0.30986 0.8694 0.0
H582 H 0.828 0.36777 0.86379 0.0
H583 H 0.85732 0.41572 0.83327 0.0
H584 H 0.82516 0.40473 0.74213 0.0
H585 H 0.78248 0.34601 0.74718 0.0
C586 C 0.76909 0.31343 0.79656 0.0
C587 C 0.76419 0.2997 0.82403 0.0
C588 C 0.79462 0.34688 0.79328 0.0
C589 C 0.78608 0.3197 0.84801 0.0
C590 C 0.8118 0.35289 0.84484 0.0
C591 C 0.84078 0.40055 0.81455 0.0
C592 C 0.84439 0.41472 0.78739 0.0
C593 C 0.81598 0.36685 0.81767 0.0
C594 C 0.82324 0.39446 0.76324 0.0
C595 C 0.79866 0.36089 0.76613 0.0
H596 H 0.42995 0.49876 0.3565 0.0
H597 H 0.3233 0.41722 0.33303 0.0
H598 H 0.33179 0.38382 0.36978 0.0
H599 H 0.3697 0.3773 0.40779 0.0
H600 H 0.47467 0.45997 0.43381 0.0
H601 H 0.46697 0.49297 0.39629 0.0
C602 C 0.40855 0.4737 0.35947 0.0
C603 C 0.37607 0.46051 0.34199 0.0
C604 C 0.41343 0.45468 0.38087 0.0
C605 C 0.34852 0.42806 0.34623 0.0
C606 C 0.35339 0.40887 0.36718 0.0
C607 C 0.39074 0.40271 0.40566 0.0
C608 C 0.42275 0.41597 0.42375 0.0
C609 C 0.38574 0.42191 0.38458 0.0
C610 C 0.45 0.44875 0.41998 0.0
C611 C 0.44549 0.46782 0.39866 0.0
H612 H 0.42489 0.06751 0.85675 0.0
H613 H 0.32542 0.01018 0.90185 0.0
H614 H 0.36125 0.01449 0.94584 0.0
H615 H 0.42065 0.02853 0.96969 0.0
H616 H 0.52022 0.08332 0.92402 0.0
H617 H 0.48468 0.08663 0.88255 0.0
C618 C 0.41103 0.05648 0.87635 0.0
C619 C 0.37251 0.03809 0.87578 0.0
C620 C 0.43187 0.05843 0.90154 0.0
C621 C 0.35504 0.02409 0.90148 0.0
C622 C 0.37551 0.0265 0.9267 0.0
C623 C 0.43457 0.04151 0.95079 0.0
C624 C 0.47298 0.05535 0.94993 0.0
C625 C 0.41392 0.04261 0.92668 0.0
C626 C 0.49068 0.07261 0.92544 0.0
C627 C 0.47034 0.07426 0.90153 0.0
H628 H 0.87047 0.94725 0.37133 0.0
H629 H 0.81657 0.96375 0.29739 0.0
H630 H 0.77026 0.96653 0.32855 0.0
H631 H 0.74711 0.96782 0.37726 0.0
H632 H 0.80412 0.9575 0.45231 0.0
H633 H 0.84748 0.94917 0.42054 0.0
C634 C 0.84837 0.95117 0.36208 0.0
C635 C 0.84596 0.95368 0.33182 0.0
C636 C 0.82263 0.95418 0.38044 0.0
C637 C 0.81773 0.95954 0.32021 0.0
C638 C 0.79163 0.96185 0.33816 0.0
C639 C 0.76867 0.96314 0.38655 0.0
C640 C 0.7723 0.96277 0.41691 0.0
C641 C 0.79389 0.95933 0.36829 0.0
C642 C 0.80084 0.95765 0.4289 0.0
C643 C 0.82559 0.95298 0.41078 0.0
H644 H 0.54283 0.18933 0.82901 0.0
H645 H 0.56621 0.15557 0.90923 0.0
H646 H 0.51178 0.15575 0.93048 0.0
H647 H 0.46452 0.17532 0.92906 0.0
H648 H 0.44494 0.21343 0.85007 0.0
H649 H 0.49058 0.20138 0.82537 0.0
C650 C 0.53566 0.18132 0.85093 0.0
C651 C 0.55905 0.17321 0.86773 0.0
C652 C 0.50515 0.18263 0.86333 0.0
C653 C 0.54906 0.16254 0.896 0.0
C654 C 0.51799 0.16274 0.90821 0.0
C655 C 0.46947 0.17992 0.90617 0.0
C656 C 0.45166 0.19533 0.89133 0.0
C657 C 0.49681 0.17418 0.89252 0.0
C658 C 0.45853 0.20167 0.86183 0.0
C659 C 0.48471 0.19494 0.8478 0.0
H660 H 0.40497 0.10732 0.70215 0.0
H661 H 0.3218 0.12905 0.74048 0.0
H662 H 0.33546 0.17349 0.7072 0.0
H663 H 0.36976 0.20525 0.66633 0.0
H664 H 0.45226 0.18312 0.62739 0.0
H665 H 0.44049 0.1402 0.66205 0.0
C666 C 0.38992 0.12186 0.70333 0.0
C667 C 0.36226 0.11468 0.72375 0.0
C668 C 0.39783 0.14738 0.68402 0.0
C669 C 0.34316 0.13391 0.72498 0.0
C670 C 0.35092 0.15935 0.70592 0.0
C671 C 0.38505 0.19093 0.66533 0.0
C672 C 0.41174 0.19734 0.64418 0.0
C673 C 0.37794 0.16609 0.68517 0.0
C674 C 0.4318 0.17896 0.64359 0.0
C675 C 0.42492 0.15424 0.66329 0.0
H676 H 0.76883 0.00224 0.213 0.0
H677 H 0.69717 0.8975 0.22189 0.0
H678 H 0.64996 0.90111 0.1914 0.0
H679 H 0.63062 0.93341 0.15996 0.0
H680 H 0.70536 0.03706 0.14844 0.0
H681 H 0.74905 0.0346 0.18297 0.0
C682 C 0.7428 0.9802 0.20849 0.0
C683 C 0.73667 0.94961 0.21955 0.0
C684 C 0.71612 0.9823 0.19059 0.0
C685 C 0.70272 0.92134 0.21349 0.0
C686 C 0.6757 0.92339 0.19606 0.0
C687 C 0.65644 0.95548 0.16494 0.0
C688 C 0.66434 0.98539 0.15149 0.0
C689 C 0.68236 0.95364 0.18408 0.0
C690 C 0.69784 0.01384 0.15877 0.0
C691 C 0.72324 0.0124 0.1783 0.0
H692 H 0.66852 0.10423 0.73749 0.0
H693 H 0.62365 0.16735 0.70616 0.0
H694 H 0.61802 0.14253 0.65684 0.0
H695 H 0.62912 0.10528 0.62209 0.0
H696 H 0.67238 0.041 0.65299 0.0
H697 H 0.67501 0.06356 0.70313 0.0
C698 C 0.65733 0.1124 0.71988 0.0
C699 C 0.64688 0.13784 0.72543 0.0
C700 C 0.65391 0.09784 0.69155 0.0
C701 C 0.63198 0.14788 0.70248 0.0
C702 C 0.62882 0.13376 0.67424 0.0
C703 C 0.63889 0.09613 0.6399 0.0
C704 C 0.65086 0.07184 0.63404 0.0
C705 C 0.6402 0.10912 0.66847 0.0
C706 C 0.66298 0.05969 0.65716 0.0
C707 C 0.66466 0.0727 0.68572 0.0
H708 H 0.39499 0.45524 0.19869 0.0
H709 H 0.31858 0.47678 0.14967 0.0
H710 H 0.32152 0.4426 0.108 0.0
H711 H 0.34425 0.40517 0.08583 0.0
H712 H 0.42049 0.38346 0.13462 0.0
H713 H 0.41931 0.41927 0.17592 0.0
C714 C 0.37914 0.45264 0.17885 0.0
C715 C 0.35648 0.46847 0.17744 0.0
C716 C 0.38082 0.43282 0.15491 0.0
C717 C 0.33622 0.46486 0.15146 0.0
C718 C 0.33779 0.44523 0.12759 0.0
C719 C 0.36048 0.40823 0.10557 0.0
C720 C 0.38231 0.39167 0.10725 0.0
C721 C 0.35967 0.42882 0.12918 0.0
C722 C 0.40367 0.3962 0.13275 0.0
C723 C 0.40289 0.41654 0.15639 0.0
H724 H 0.83506 0.77144 0.76609 0.0
H725 H 0.91537 0.82513 0.70326 0.0
H726 H 0.94027 0.78512 0.7053 0.0
H727 H 0.94058 0.73585 0.7263 0.0
H728 H 0.86262 0.6844 0.79126 0.0
H729 H 0.83551 0.72254 0.78716 0.0
C730 C 0.85779 0.7742 0.75264 0.0
C731 C 0.87322 0.80111 0.73444 0.0
C732 C 0.87256 0.75162 0.75449 0.0
C733 C 0.90301 0.80462 0.71746 0.0
C734 C 0.91728 0.78178 0.71863 0.0
C735 C 0.91751 0.73296 0.73937 0.0
C736 C 0.90358 0.70745 0.75905 0.0
C737 C 0.90249 0.75535 0.73726 0.0
C738 C 0.87395 0.70408 0.77614 0.0
C739 C 0.85838 0.72578 0.77373 0.0
H740 H 0.69328 0.36797 0.30314 0.0
H741 H 0.65854 0.43896 0.33908 0.0
H742 H 0.71833 0.48492 0.32984 0.0
H743 H 0.77932 0.50521 0.30946 0.0
H744 H 0.81433 0.43462 0.27318 0.0
H745 H 0.75536 0.38831 0.28421 0.0
C746 C 0.69892 0.39346 0.30928 0.0
C747 C 0.6714 0.39994 0.32181 0.0
C748 C 0.73324 0.41989 0.30349 0.0
C749 C 0.67914 0.43319 0.32938 0.0
C750 C 0.71332 0.45954 0.32404 0.0
C751 C 0.77427 0.47969 0.30431 0.0
C752 C 0.80124 0.47344 0.29049 0.0
C753 C 0.7404 0.45321 0.31079 0.0
C754 C 0.7939 0.44019 0.28348 0.0
C755 C 0.76027 0.41367 0.28996 0.0
H756 H 0.24555 0.56474 0.77232 0.0
H757 H 0.29079 0.6365 0.84573 0.0
H758 H 0.23853 0.64868 0.84295 0.0
H759 H 0.17902 0.6379 0.82035 0.0
H760 H 0.13446 0.56657 0.74665 0.0
H761 H 0.18751 0.55554 0.74868 0.0
C762 C 0.24402 0.58308 0.7877 0.0
C763 C 0.27195 0.59951 0.8093 0.0
C764 C 0.21404 0.59014 0.78586 0.0
C765 C 0.26966 0.62343 0.8289 0.0
C766 C 0.23975 0.6304 0.82735 0.0
C767 C 0.18106 0.62004 0.80472 0.0
C768 C 0.15297 0.6032 0.78332 0.0
C769 C 0.21166 0.61376 0.80603 0.0
C770 C 0.15601 0.58025 0.76306 0.0
C771 C 0.18619 0.57373 0.76433 0.0
H772 H 0.27016 0.83127 0.20873 0.0
H773 H 0.25907 0.88216 0.28724 0.0
H774 H 0.19763 0.837 0.29307 0.0
H775 H 0.14743 0.78239 0.27663 0.0
H776 H 0.15812 0.7314 0.19818 0.0
H777 H 0.21908 0.77734 0.19145 0.0
C778 C 0.25427 0.83257 0.22706 0.0
C779 C 0.26939 0.86007 0.24756 0.0
C780 C 0.21883 0.80646 0.23032 0.0
C781 C 0.24825 0.86133 0.27111 0.0
C782 C 0.21307 0.83546 0.27452 0.0
C783 C 0.1632 0.7813 0.25814 0.0
C784 C 0.14835 0.75348 0.23801 0.0
C785 C 0.19821 0.80778 0.25442 0.0
C786 C 0.16882 0.75267 0.21387 0.0
C787 C 0.20375 0.77885 0.21009 0.0
H788 H 0.78279 0.95958 0.69038 0.0
H789 H 0.78911 0.87981 0.63872 0.0
H790 H 0.76598 0.89545 0.59567 0.0
H791 H 0.74381 0.93213 0.57289 0.0
H792 H 0.73778 0.01118 0.62592 0.0
H793 H 0.76114 0.99546 0.66827 0.0
C794 C 0.7792 0.94549 0.66976 0.0
C795 C 0.78768 0.9185 0.66786 0.0
C796 C 0.76598 0.95457 0.6453 0.0
C797 C 0.78285 0.90071 0.64083 0.0
C798 C 0.76957 0.90962 0.61623 0.0
C799 C 0.7475 0.94575 0.59378 0.0
C800 C 0.73937 0.97298 0.59618 0.0
C801 C 0.76097 0.93651 0.61823 0.0
C802 C 0.74445 0.99054 0.62334 0.0
C803 C 0.75761 0.98145 0.64762 0.0
H804 H 0.46572 0.30888 0.24584 0.0
H805 H 0.5395 0.26786 0.2225 0.0
H806 H 0.51311 0.25416 0.17296 0.0
H807 H 0.47278 0.25802 0.13525 0.0
H808 H 0.40073 0.30106 0.15779 0.0
H809 H 0.42232 0.3093 0.20871 0.0
C810 C 0.47565 0.29649 0.23004 0.0
C811 C 0.50478 0.28969 0.23779 0.0
C812 C 0.46081 0.28922 0.20138 0.0
C813 C 0.51732 0.27363 0.21705 0.0
C814 C 0.5023 0.26583 0.18867 0.0
C815 C 0.46176 0.26913 0.15135 0.0
C816 C 0.43545 0.27915 0.14275 0.0
C817 C 0.47471 0.27428 0.18043 0.0
C818 C 0.42086 0.29294 0.16391 0.0
C819 C 0.43336 0.29785 0.19299 0.0
H820 H 0.34843 0.45715 0.70655 0.0
H821 H 0.43588 0.47156 0.76755 0.0
H822 H 0.45181 0.43488 0.73653 0.0
H823 H 0.43976 0.39726 0.69271 0.0
H824 H 0.35239 0.38312 0.63177 0.0
H825 H 0.33729 0.42063 0.66231 0.0
C826 C 0.37118 0.45252 0.71295 0.0
C827 C 0.3909 0.46712 0.73935 0.0
C828 C 0.37991 0.43101 0.6952 0.0
C829 C 0.42017 0.46064 0.74736 0.0
C830 C 0.42927 0.43958 0.72967 0.0
C831 C 0.41748 0.40246 0.68612 0.0
C832 C 0.39692 0.38698 0.66022 0.0
C833 C 0.4091 0.42435 0.70368 0.0
C834 C 0.36807 0.39398 0.65198 0.0
C835 C 0.35964 0.41573 0.66928 0.0
H836 H 0.42478 0.96828 0.23214 0.0
H837 H 0.51863 0.06069 0.26086 0.0
H838 H 0.5397 0.06882 0.21118 0.0
H839 H 0.53426 0.04768 0.16044 0.0
H840 H 0.43965 0.95621 0.131 0.0
H841 H 0.41598 0.94996 0.18011 0.0
C842 C 0.44926 0.9906 0.22755 0.0
C843 C 0.4699 0.01379 0.25041 0.0
C844 C 0.46137 0.9952 0.19878 0.0
C845 C 0.50218 0.04224 0.24383 0.0
C846 C 0.51432 0.04698 0.21536 0.0
C847 C 0.50799 0.02679 0.16449 0.0
C848 C 0.48898 0.00236 0.14197 0.0
C849 C 0.49449 0.02334 0.19276 0.0
C850 C 0.45526 0.97514 0.14796 0.0
C851 C 0.44161 0.97158 0.17605 0.0
H852 H 0.58312 0.22431 0.39831 0.0
H853 H 0.5611 0.18321 0.30935 0.0
H854 H 0.5689 0.13518 0.32361 0.0
H855 H 0.58598 0.10654 0.36105 0.0
H856 H 0.61065 0.14935 0.4492 0.0
H857 H 0.5976 0.1949 0.43576 0.0
C858 C 0.57979 0.20477 0.38204 0.0
C859 C 0.57184 0.20751 0.35277 0.0
C860 C 0.58493 0.17756 0.39029 0.0
C861 C 0.56752 0.18187 0.33201 0.0
C862 C 0.57197 0.15437 0.34014 0.0
C863 C 0.58812 0.1258 0.37719 0.0
C864 C 0.59921 0.12496 0.40595 0.0
C865 C 0.58128 0.15222 0.36912 0.0
C866 C 0.6022 0.14986 0.4269 0.0
C867 C 0.59481 0.17582 0.41921 0.0
H868 H 0.29532 0.441 0.85524 0.0
H869 H 0.36683 0.52864 0.90897 0.0
H870 H 0.37023 0.49315 0.9463 0.0
H871 H 0.35845 0.43728 0.96095 0.0
H872 H 0.29076 0.35054 0.90457 0.0
H873 H 0.27972 0.38565 0.87147 0.0
C874 C 0.31125 0.45247 0.87528 0.0
C875 C 0.33118 0.48746 0.87908 0.0
C876 C 0.3139 0.43201 0.89621 0.0
C877 C 0.35136 0.50177 0.90537 0.0
C878 C 0.35347 0.48148 0.92667 0.0
C879 C 0.34113 0.42604 0.9415 0.0
C880 C 0.32562 0.39123 0.93534 0.0
C881 C 0.33581 0.44656 0.92188 0.0
C882 C 0.30267 0.3771 0.91026 0.0
C883 C 0.29662 0.39723 0.89105 0.0
H884 H 0.42164 0.08689 0.3936 0.0
H885 H 0.52534 0.10105 0.43036 0.0
H886 H 0.52653 0.14449 0.46499 0.0
H887 H 0.49708 0.17751 0.48567 0.0
H888 H 0.39379 0.16355 0.44776 0.0
H889 H 0.39301 0.12037 0.41344 0.0
C890 C 0.44454 0.09948 0.40917 0.0
C891 C 0.4735 0.0909 0.40923 0.0
C892 C 0.44482 0.12415 0.42919 0.0
C893 C 0.50295 0.1075 0.42956 0.0
C894 C 0.50349 0.13217 0.44954 0.0
C895 C 0.47449 0.16516 0.46982 0.0
C896 C 0.44531 0.17359 0.46967 0.0
C897 C 0.47447 0.14062 0.44965 0.0
C898 C 0.41617 0.15707 0.449 0.0
C899 C 0.41585 0.13256 0.42909 0.0
H900 H 0.78577 0.96947 0.83753 0.0
H901 H 0.71747 0.86543 0.85227 0.0
H902 H 0.68443 0.88108 0.88897 0.0
H903 H 0.673 0.9241 0.91512 0.0
H904 H 0.73941 0.02792 0.89865 0.0
H905 H 0.77539 0.01254 0.86461 0.0
C906 C 0.76396 0.9502 0.849 0.0
C907 C 0.75407 0.9163 0.84209 0.0
C908 C 0.74457 0.95932 0.86964 0.0
C909 C 0.72559 0.89169 0.85709 0.0
C910 C 0.7066 0.90061 0.87803 0.0
C911 C 0.69516 0.94336 0.90391 0.0
C912 C 0.70328 0.97711 0.90928 0.0
C913 C 0.71543 0.93431 0.88409 0.0
C914 C 0.73269 0.00179 0.89508 0.0
C915 C 0.75318 0.993 0.87551 0.0
loop_
_geom_bond_atom_site_label_1
_geom_bond_atom_site_label_2
_geom_bond_distance
_geom_bond_site_symmetry_2
_ccdc_geom_bond_type
O0 Cd1 2.300 . S
O0 C7 1.275 . S
Cd1 O0 2.300 . S
Cd1 O9 2.381 . S
Cd1 O10 2.378 . S
O2 Cd3 2.385 . S
O2 C7 1.255 . S
Cd3 O2 2.385 . S
Cd3 O4 2.317 . S
O4 Cd3 2.317 . S
O4 C5 1.232 . S
C5 O4 1.232 . S
C5 O6 1.218 . S
O6 C5 1.218 . S
C7 O0 1.275 . S
C7 O2 1.255 . S
C8 O9 1.258 . S
C8 O10 1.256 . S
O9 Cd1 2.381 . S
O9 C8 1.258 . S
O10 Cd1 2.378 . S
O10 C8 1.256 . S
O11 Cd12 2.300 . S
O11 C18 1.275 . S
Cd12 O11 2.300 . S
Cd12 O20 2.381 . S
Cd12 O21 2.378 . S
O13 Cd14 2.385 . S
O13 C18 1.255 1_565 S
Cd14 O13 2.385 . S
Cd14 O15 2.317 . S
O15 Cd14 2.317 . S
O15 C16 1.232 . S
C16 O15 1.232 . S
C16 O17 1.218 . S
O17 C16 1.218 . S
C18 O11 1.275 . S
C18 O13 1.255 1_545 S
C19 O20 1.258 . S
C19 O21 1.256 . S
O20 Cd12 2.381 . S
O20 C19 1.258 . S
O21 Cd12 2.378 . S
O21 C19 1.256 . S
O22 Cd23 2.300 . S
O22 C29 1.275 . S
Cd23 O22 2.300 . S
Cd23 O31 2.381 . S
Cd23 O32 2.378 . S
O24 Cd25 2.385 . S
O24 C29 1.255 . S
Cd25 O24 2.385 . S
Cd25 O26 2.317 . S
O26 Cd25 2.317 . S
O26 C27 1.232 . S
C27 O26 1.232 . S
C27 O28 1.218 . S
O28 C27 1.218 . S
C29 O22 1.275 . S
C29 O24 1.255 . S
C30 O31 1.258 . S
C30 O32 1.256 . S
O31 Cd23 2.381 . S
O31 C30 1.258 . S
O32 Cd23 2.378 . S
O32 C30 1.256 . S
O33 Cd34 2.300 . S
O33 C40 1.275 . S
Cd34 O33 2.300 . S
Cd34 O42 2.381 . S
Cd34 O43 2.378 . S
O35 Cd36 2.385 . S
O35 C40 1.255 . S
Cd36 O35 2.385 . S
Cd36 O37 2.317 . S
O37 Cd36 2.317 . S
O37 C38 1.232 . S
C38 O37 1.232 . S
C38 O39 1.218 . S
O39 C38 1.218 . S
C40 O33 1.275 . S
C40 O35 1.255 . S
C41 O42 1.258 . S
C41 O43 1.256 . S
O42 Cd34 2.381 . S
O42 C41 1.258 . S
O43 Cd34 2.378 . S
O43 C41 1.256 . S
O44 Cd45 2.300 . S
O44 C51 1.275 . S
Cd45 O44 2.300 . S
Cd45 O53 2.381 . S
Cd45 O54 2.378 . S
O46 Cd47 2.385 . S
O46 C51 1.255 . S
Cd47 O46 2.385 . S
Cd47 O48 2.317 . S
O48 Cd47 2.317 . S
O48 C49 1.232 . S
C49 O48 1.232 . S
C49 O50 1.218 . S
O50 C49 1.218 . S
C51 O44 1.275 . S
C51 O46 1.255 . S
C52 O53 1.258 . S
C52 O54 1.256 . S
O53 Cd45 2.381 . S
O53 C52 1.258 . S
O54 Cd45 2.378 . S
O54 C52 1.256 . S
O55 Cd56 2.300 . S
O55 C62 1.275 . S
Cd56 O55 2.300 . S
Cd56 O64 2.381 . S
Cd56 O65 2.378 . S
O57 Cd58 2.385 . S
O57 C62 1.255 . S
Cd58 O57 2.385 . S
Cd58 O59 2.317 . S
O59 Cd58 2.317 . S
O59 C60 1.232 . S
C60 O59 1.232 . S
C60 O61 1.218 . S
O61 C60 1.218 . S
C62 O55 1.275 . S
C62 O57 1.255 . S
C63 O64 1.258 . S
C63 O65 1.256 . S
O64 Cd56 2.381 . S
O64 C63 1.258 . S
O65 Cd56 2.378 . S
O65 C63 1.256 . S
O66 Cd67 2.300 . S
O66 C73 1.275 . S
Cd67 O66 2.300 . S
Cd67 O75 2.381 . S
Cd67 O76 2.378 . S
O68 Cd69 2.385 . S
O68 C73 1.255 . S
Cd69 O68 2.385 . S
Cd69 O70 2.317 . S
O70 Cd69 2.317 . S
O70 C71 1.232 . S
C71 O70 1.232 . S
C71 O72 1.218 . S
O72 C71 1.218 . S
C73 O66 1.275 . S
C73 O68 1.255 . S
C74 O75 1.258 . S
C74 O76 1.256 . S
O75 Cd67 2.381 . S
O75 C74 1.258 . S
O76 Cd67 2.378 . S
O76 C74 1.256 . S
O77 Cd78 2.300 1_565 S
O77 C84 1.275 . S
Cd78 O77 2.300 1_545 S
Cd78 O86 2.381 . S
Cd78 O87 2.378 . S
O79 Cd80 2.385 . S
O79 C84 1.255 . S
Cd80 O79 2.385 . S
Cd80 O81 2.317 . S
O81 Cd80 2.317 . S
O81 C82 1.232 . S
C82 O81 1.232 . S
C82 O83 1.218 . S
O83 C82 1.218 . S
C84 O77 1.275 . S
C84 O79 1.255 . S
C85 O86 1.258 . S
C85 O87 1.256 . S
O86 Cd78 2.381 . S
O86 C85 1.258 . S
O87 Cd78 2.378 . S
O87 C85 1.256 . S
H88 O114 0.856 . S
H89 O117 0.854 . S
H90 C125 0.930 . S
H91 C126 0.930 . S
H92 C128 0.930 . S
H93 C129 0.930 . S
H94 C131 0.931 . S
H95 C132 0.930 . S
H96 C134 0.937 . S
H97 C135 0.929 . S
H98 C137 0.930 . S
H99 C138 0.931 . S
H100 C140 0.930 . S
H101 C141 0.929 . S
H102 C143 0.931 . S
H103 C144 0.930 . S
H104 C146 0.930 . S
H105 C147 0.932 . S
H106 C149 0.930 . S
H107 C150 0.929 . S
H108 C152 0.931 . S
H109 C153 0.930 . S
H110 C155 0.929 . S
H111 C156 0.931 . S
H112 C158 0.930 . S
H113 C159 0.929 . S
O114 H88 0.856 . S
O114 C160 1.300 . S
O115 C160 1.209 . S
O116 C161 1.199 . S
O117 H89 0.854 . S
O117 C161 1.297 . S
C118 C119 1.404 1_455 S
C118 C123 1.397 . S
C118 C124 1.492 . S
C119 C118 1.404 1_655 S
C119 C120 1.396 . S
C119 C130 1.492 . S
C120 C119 1.396 . S
C120 C121 1.397 . S
C120 C136 1.509 . S
C121 C120 1.397 . S
C121 C122 1.412 . S
C121 C142 1.485 . S
C122 C121 1.412 . S
C122 C123 1.388 1_655 S
C122 C148 1.490 . S
C123 C118 1.397 . S
C123 C122 1.388 1_455 S
C123 C154 1.519 . S
C124 C118 1.492 . S
C124 C125 1.363 . S
C124 C129 1.390 . S
C125 H90 0.930 . S
C125 C124 1.363 . S
C125 C126 1.372 . S
C126 H91 0.930 . S
C126 C125 1.372 . S
C126 C127 1.383 . S
C127 C126 1.383 . S
C127 C128 1.395 . S
C128 H92 0.930 . S
C128 C127 1.395 . S
C128 C129 1.362 . S
C129 H93 0.930 . S
C129 C124 1.390 . S
C129 C128 1.362 . S
C130 C119 1.492 . S
C130 C131 1.377 . S
C130 C135 1.397 . S
C131 H94 0.931 . S
C131 C130 1.377 . S
C131 C132 1.376 . S
C132 H95 0.930 . S
C132 C131 1.376 . S
C132 C133 1.376 . S
C133 C132 1.376 . S
C133 C134 1.378 . S
C133 C160 1.486 . S
C134 H96 0.937 . S
C134 C133 1.378 . S
C134 C135 1.376 . S
C135 H97 0.929 . S
C135 C130 1.397 . S
C135 C134 1.376 . S
C136 C120 1.509 . S
C136 C137 1.391 . S
C136 C141 1.386 . S
C137 H98 0.930 . S
C137 C136 1.391 . S
C137 C138 1.375 . S
C138 H99 0.931 . S
C138 C137 1.375 . S
C138 C139 1.375 . S
C139 C138 1.375 . S
C139 C140 1.361 . S
C140 H100 0.930 . S
C140 C139 1.361 . S
C140 C141 1.399 . S
C141 H101 0.929 . S
C141 C136 1.386 . S
C141 C140 1.399 . S
C142 C121 1.485 . S
C142 C143 1.394 . S
C142 C147 1.360 . S
C143 H102 0.931 . S
C143 C142 1.394 . S
C143 C144 1.372 . S
C144 H103 0.930 . S
C144 C143 1.372 . S
C144 C145 1.397 . S
C145 C144 1.397 . S
C145 C146 1.390 . S
C145 C161 1.476 . S
C146 H104 0.930 . S
C146 C145 1.390 . S
C146 C147 1.366 . S
C147 H105 0.932 . S
C147 C142 1.360 . S
C147 C146 1.366 . S
C148 C122 1.490 . S
C148 C149 1.380 . S
C148 C153 1.386 . S
C149 H106 0.930 . S
C149 C148 1.380 . S
C149 C150 1.381 . S
C150 H107 0.929 . S
C150 C149 1.381 . S
C150 C151 1.371 . S
C151 C150 1.371 . S
C151 C152 1.380 . S
C152 H108 0.931 . S
C152 C151 1.380 . S
C152 C153 1.387 . S
C153 H109 0.930 . S
C153 C148 1.386 . S
C153 C152 1.387 . S
C154 C123 1.519 . S
C154 C155 1.377 . S
C154 C159 1.361 . S
C155 H110 0.929 . S
C155 C154 1.377 . S
C155 C156 1.386 . S
C156 H111 0.931 . S
C156 C155 1.386 . S
C156 C157 1.363 . S
C157 C156 1.363 . S
C157 C158 1.385 . S
C158 H112 0.930 . S
C158 C157 1.385 . S
C158 C159 1.396 . S
C159 H113 0.929 . S
C159 C154 1.361 . S
C159 C158 1.396 . S
C160 O114 1.300 . S
C160 O115 1.209 . S
C160 C133 1.486 . S
C161 O116 1.199 . S
C161 O117 1.297 . S
C161 C145 1.476 . S
H162 O188 0.856 . S
H163 O191 0.854 . S
H164 C199 0.930 . S
H165 C200 0.930 . S
H166 C202 0.930 . S
H167 C203 0.930 . S
H168 C205 0.931 . S
H169 C206 0.930 . S
H170 C208 0.930 . S
H171 C209 0.929 . S
H172 C211 0.930 . S
H173 C212 0.931 . S
H174 C214 0.930 . S
H175 C215 0.929 . S
H176 C217 0.931 . S
H177 C218 0.930 . S
H178 C220 0.930 . S
H179 C221 0.932 . S
H180 C223 0.930 . S
H181 C224 0.929 . S
H182 C226 0.931 . S
H183 C227 0.930 . S
H184 C229 0.929 . S
H185 C230 0.931 . S
H186 C232 0.930 . S
H187 C233 0.929 . S
O188 H162 0.856 . S
O188 C234 1.300 . S
O189 C234 1.209 . S
O190 C235 1.199 . S
O191 H163 0.854 . S
O191 C235 1.297 . S
C192 C193 1.404 1_455 S
C192 C197 1.397 1_455 S
C192 C198 1.492 . S
C193 C192 1.404 1_655 S
C193 C194 1.396 . S
C193 C204 1.492 . S
C194 C193 1.396 . S
C194 C195 1.397 . S
C194 C210 1.509 . S
C195 C194 1.397 . S
C195 C196 1.412 . S
C195 C216 1.485 . S
C196 C195 1.412 . S
C196 C197 1.388 . S
C196 C222 1.490 . S
C197 C192 1.397 1_655 S
C197 C196 1.388 . S
C197 C228 1.519 1_655 S
C198 C192 1.492 . S
C198 C199 1.363 . S
C198 C203 1.390 . S
C199 H164 0.930 . S
C199 C198 1.363 . S
C199 C200 1.372 . S
C200 H165 0.930 . S
C200 C199 1.372 . S
C200 C201 1.383 . S
C201 C200 1.383 . S
C201 C202 1.395 . S
C202 H166 0.930 . S
C202 C201 1.395 . S
C202 C203 1.362 . S
C203 H167 0.930 . S
C203 C198 1.390 . S
C203 C202 1.362 . S
C204 C193 1.492 . S
C204 C205 1.377 . S
C204 C209 1.397 1_655 S
C205 H168 0.931 . S
C205 C204 1.377 . S
C205 C206 1.376 . S
C206 H169 0.930 . S
C206 C205 1.376 . S
C206 C207 1.376 1_655 S
C207 C206 1.376 1_455 S
C207 C208 1.378 . S
C207 C234 1.486 . S
C208 H170 0.930 . S
C208 C207 1.378 . S
C208 C209 1.376 . S
C209 H171 0.929 . S
C209 C204 1.397 1_455 S
C209 C208 1.376 . S
C210 C194 1.509 . S
C210 C211 1.391 . S
C210 C215 1.386 . S
C211 H172 0.930 . S
C211 C210 1.391 . S
C211 C212 1.375 . S
C212 H173 0.931 . S
C212 C211 1.375 . S
C212 C213 1.375 . S
C213 C212 1.375 . S
C213 C214 1.361 . S
C214 H174 0.930 . S
C214 C213 1.361 . S
C214 C215 1.399 . S
C215 H175 0.929 . S
C215 C210 1.386 . S
C215 C214 1.399 . S
C216 C195 1.485 . S
C216 C217 1.394 . S
C216 C221 1.360 . S
C217 H176 0.931 . S
C217 C216 1.394 . S
C217 C218 1.372 . S
C218 H177 0.930 . S
C218 C217 1.372 . S
C218 C219 1.397 . S
C219 C218 1.397 . S
C219 C220 1.390 . S
C219 C235 1.476 . S
C220 H178 0.930 . S
C220 C219 1.390 . S
C220 C221 1.366 . S
C221 H179 0.932 . S
C221 C216 1.360 . S
C221 C220 1.366 . S
C222 C196 1.490 . S
C222 C223 1.380 . S
C222 C227 1.386 . S
C223 H180 0.930 . S
C223 C222 1.380 . S
C223 C224 1.381 . S
C224 H181 0.929 . S
C224 C223 1.381 . S
C224 C225 1.371 . S
C225 C224 1.371 . S
C225 C226 1.380 . S
C226 H182 0.931 . S
C226 C225 1.380 . S
C226 C227 1.387 . S
C227 H183 0.930 . S
C227 C222 1.386 . S
C227 C226 1.387 . S
C228 C197 1.519 1_455 S
C228 C229 1.377 . S
C228 C233 1.361 . S
C229 H184 0.929 . S
C229 C228 1.377 . S
C229 C230 1.386 . S
C230 H185 0.931 . S
C230 C229 1.386 . S
C230 C231 1.363 . S
C231 C230 1.363 . S
C231 C232 1.385 . S
C232 H186 0.930 . S
C232 C231 1.385 . S
C232 C233 1.396 . S
C233 H187 0.929 . S
C233 C228 1.361 . S
C233 C232 1.396 . S
C234 O188 1.300 . S
C234 O189 1.209 . S
C234 C207 1.486 . S
C235 O190 1.199 . S
C235 O191 1.297 . S
C235 C219 1.476 . S
H236 O262 0.856 . S
H237 O265 0.854 . S
H238 C273 0.930 . S
H239 C274 0.930 . S
H240 C276 0.930 . S
H241 C277 0.930 . S
H242 C279 0.931 . S
H243 C280 0.930 . S
H244 C282 0.930 . S
H245 C283 0.929 . S
H246 C285 0.930 . S
H247 C286 0.931 . S
H248 C288 0.930 . S
H249 C289 0.929 . S
H250 C291 0.931 . S
H251 C292 0.930 . S
H252 C294 0.930 . S
H253 C295 0.932 . S
H254 C297 0.930 . S
H255 C298 0.929 . S
H256 C300 0.931 . S
H257 C301 0.930 . S
H258 C303 0.929 . S
H259 C304 0.931 . S
H260 C306 0.930 . S
H261 C307 0.929 . S
O262 H236 0.856 . S
O262 C308 1.300 . S
O263 C308 1.209 . S
O264 C309 1.199 . S
O265 H237 0.854 . S
O265 C309 1.297 . S
C266 C267 1.404 . S
C266 C271 1.397 . S
C266 C272 1.492 . S
C267 C266 1.404 . S
C267 C268 1.396 . S
C267 C278 1.492 . S
C268 C267 1.396 . S
C268 C269 1.397 . S
C268 C284 1.509 . S
C269 C268 1.397 . S
C269 C270 1.412 . S
C269 C290 1.485 . S
C270 C269 1.412 . S
C270 C271 1.388 . S
C270 C296 1.490 . S
C271 C266 1.397 . S
C271 C270 1.388 . S
C271 C302 1.519 . S
C272 C266 1.492 . S
C272 C273 1.363 . S
C272 C277 1.390 . S
C273 H238 0.930 . S
C273 C272 1.363 . S
C273 C274 1.372 . S
C274 H239 0.930 . S
C274 C273 1.372 . S
C274 C275 1.383 . S
C275 C274 1.383 . S
C275 C276 1.395 . S
C276 H240 0.930 . S
C276 C275 1.395 . S
C276 C277 1.362 . S
C277 H241 0.930 . S
C277 C272 1.390 . S
C277 C276 1.362 . S
C278 C267 1.492 . S
C278 C279 1.377 . S
C278 C283 1.397 . S
C279 H242 0.931 . S
C279 C278 1.377 . S
C279 C280 1.376 . S
C280 H243 0.930 . S
C280 C279 1.376 . S
C280 C281 1.376 . S
C281 C280 1.376 . S
C281 C282 1.378 . S
C281 C308 1.486 . S
C282 H244 0.930 . S
C282 C281 1.378 . S
C282 C283 1.376 . S
C283 H245 0.929 . S
C283 C278 1.397 . S
C283 C282 1.376 . S
C284 C268 1.509 . S
C284 C285 1.391 . S
C284 C289 1.386 . S
C285 H246 0.930 . S
C285 C284 1.391 . S
C285 C286 1.375 . S
C286 H247 0.931 . S
C286 C285 1.375 . S
C286 C287 1.375 . S
C287 C286 1.375 . S
C287 C288 1.361 . S
C288 H248 0.930 . S
C288 C287 1.361 . S
C288 C289 1.399 . S
C289 H249 0.929 . S
C289 C284 1.386 . S
C289 C288 1.399 . S
C290 C269 1.485 . S
C290 C291 1.394 . S
C290 C295 1.360 . S
C291 H250 0.931 . S
C291 C290 1.394 . S
C291 C292 1.372 . S
C292 H251 0.930 . S
C292 C291 1.372 . S
C292 C293 1.397 . S
C293 C292 1.397 . S
C293 C294 1.390 . S
C293 C309 1.476 . S
C294 H252 0.930 . S
C294 C293 1.390 . S
C294 C295 1.366 . S
C295 H253 0.932 . S
C295 C290 1.360 . S
C295 C294 1.366 . S
C296 C270 1.490 . S
C296 C297 1.380 . S
C296 C301 1.386 . S
C297 H254 0.930 . S
C297 C296 1.380 . S
C297 C298 1.381 . S
C298 H255 0.929 . S
C298 C297 1.381 . S
C298 C299 1.371 . S
C299 C298 1.371 . S
C299 C300 1.380 . S
C300 H256 0.931 . S
C300 C299 1.380 . S
C300 C301 1.387 . S
C301 H257 0.930 . S
C301 C296 1.386 . S
C301 C300 1.387 . S
C302 C271 1.519 . S
C302 C303 1.377 . S
C302 C307 1.361 . S
C303 H258 0.929 . S
C303 C302 1.377 . S
C303 C304 1.386 . S
C304 H259 0.931 . S
C304 C303 1.386 . S
C304 C305 1.363 . S
C305 C304 1.363 . S
C305 C306 1.385 . S
C306 H260 0.930 . S
C306 C305 1.385 . S
C306 C307 1.396 . S
C307 H261 0.929 . S
C307 C302 1.361 . S
C307 C306 1.396 . S
C308 O262 1.300 . S
C308 O263 1.209 . S
C308 C281 1.486 . S
C309 O264 1.199 . S
C309 O265 1.297 . S
C309 C293 1.476 . S
H310 O336 0.856 1_565 S
H311 O339 0.854 . S
H312 C347 0.930 . S
H313 C348 0.930 . S
H314 C350 0.930 . S
H315 C351 0.930 . S
H316 C353 0.931 . S
H317 C354 0.930 . S
H318 C356 0.930 . S
H319 C357 0.929 . S
H320 C359 0.930 1_545 S
H321 C360 0.931 1_545 S
H322 C362 0.930 . S
H323 C363 0.929 . S
H324 C365 0.928 1_545 S
H325 C366 0.930 1_545 S
H326 C368 0.930 . S
H327 C369 0.932 . S
H328 C371 0.930 . S
H329 C372 0.929 . S
H330 C374 0.931 . S
H331 C375 0.930 . S
H332 C377 0.929 . S
H333 C378 0.931 . S
H334 C380 0.930 . S
H335 C381 0.929 . S
O336 H310 0.856 1_545 S
O336 C382 1.300 1_545 S
O337 C382 1.209 . S
O338 C383 1.199 . S
O339 H311 0.854 . S
O339 C383 1.297 . S
C340 C341 1.404 1_554 S
C340 C345 1.397 . S
C340 C346 1.492 1_565 S
C341 C340 1.404 1_556 S
C341 C342 1.396 . S
C341 C352 1.492 . S
C342 C341 1.396 . S
C342 C343 1.397 1_556 S
C342 C358 1.509 . S
C343 C342 1.397 1_554 S
C343 C344 1.412 . S
C343 C364 1.485 . S
C344 C343 1.412 . S
C344 C345 1.388 . S
C344 C370 1.490 . S
C345 C340 1.397 . S
C345 C344 1.388 . S
C345 C376 1.511 1_565 S
C346 C340 1.492 1_545 S
C346 C347 1.363 1_554 S
C346 C351 1.390 1_545 S
C347 H312 0.930 . S
C347 C346 1.363 1_556 S
C347 C348 1.372 . S
C348 H313 0.930 . S
C348 C347 1.372 . S
C348 C349 1.383 . S
C349 C348 1.383 . S
C349 C350 1.395 1_546 S
C350 H314 0.930 . S
C350 C349 1.395 1_564 S
C350 C351 1.362 . S
C351 H315 0.930 . S
C351 C346 1.390 1_565 S
C351 C350 1.362 . S
C352 C341 1.492 . S
C352 C353 1.377 1_565 S
C352 C357 1.397 . S
C353 H316 0.931 . S
C353 C352 1.377 1_545 S
C353 C354 1.376 . S
C354 H317 0.930 . S
C354 C353 1.376 . S
C354 C355 1.376 1_545 S
C355 C354 1.376 1_565 S
C355 C356 1.378 . S
C355 C382 1.486 . S
C356 H318 0.930 . S
C356 C355 1.378 . S
C356 C357 1.376 . S
C357 H319 0.929 . S
C357 C352 1.397 . S
C357 C356 1.376 . S
C358 C342 1.509 . S
C358 C359 1.391 . S
C358 C363 1.386 . S
C359 H320 0.930 1_565 S
C359 C358 1.391 . S
C359 C360 1.375 . S
C360 H321 0.931 1_565 S
C360 C359 1.375 . S
C360 C361 1.375 . S
C361 C360 1.375 . S
C361 C362 1.361 . S
C362 H322 0.930 . S
C362 C361 1.361 . S
C362 C363 1.399 . S
C363 H323 0.929 . S
C363 C358 1.386 . S
C363 C362 1.399 . S
C364 C343 1.485 . S
C364 C365 1.395 . S
C364 C369 1.360 . S
C365 H324 0.928 1_565 S
C365 C364 1.395 . S
C365 C366 1.373 . S
C366 H325 0.930 1_565 S
C366 C365 1.373 . S
C366 C367 1.397 . S
C367 C366 1.397 . S
C367 C368 1.390 . S
C367 C383 1.476 . S
C368 H326 0.930 . S
C368 C367 1.390 . S
C368 C369 1.366 . S
C369 H327 0.932 . S
C369 C364 1.360 . S
C369 C368 1.366 . S
C370 C344 1.490 . S
C370 C371 1.380 1_565 S
C370 C375 1.386 . S
C371 H328 0.930 . S
C371 C370 1.380 1_545 S
C371 C372 1.381 . S
C372 H329 0.929 . S
C372 C371 1.381 . S
C372 C373 1.371 . S
C373 C372 1.371 . S
C373 C374 1.380 1_545 S
C374 H330 0.931 . S
C374 C373 1.380 1_565 S
C374 C375 1.387 . S
C375 H331 0.930 . S
C375 C370 1.386 . S
C375 C374 1.387 . S
C376 C345 1.511 1_545 S
C376 C377 1.399 . S
C376 C381 1.346 1_545 S
C377 H332 0.929 . S
C377 C376 1.399 . S
C377 C378 1.386 . S
C378 H333 0.931 . S
C378 C377 1.386 . S
C378 C379 1.363 . S
C379 C378 1.363 . S
C379 C380 1.385 1_545 S
C380 H334 0.930 . S
C380 C379 1.385 1_565 S
C380 C381 1.396 . S
C381 H335 0.929 . S
C381 C376 1.346 1_565 S
C381 C380 1.396 . S
C382 O336 1.300 1_565 S
C382 O337 1.209 . S
C382 C355 1.486 . S
C383 O338 1.199 . S
C383 O339 1.297 . S
C383 C367 1.476 . S
H384 O410 0.856 . S
H385 O413 0.854 . S
H386 C421 0.930 . S
H387 C422 0.930 . S
H388 C424 0.930 . S
H389 C425 0.930 . S
H390 C427 0.931 . S
H391 C428 0.930 . S
H392 C430 0.930 . S
H393 C431 0.929 . S
H394 C433 0.930 . S
H395 C434 0.931 . S
H396 C436 0.930 . S
H397 C437 0.929 . S
H398 C439 0.931 . S
H399 C440 0.930 . S
H400 C442 0.930 . S
H401 C443 0.932 . S
H402 C445 0.930 . S
H403 C446 0.929 . S
H404 C448 0.931 . S
H405 C449 0.930 . S
H406 C451 0.929 . S
H407 C452 0.931 . S
H408 C454 0.930 . S
H409 C455 0.929 . S
O410 H384 0.856 . S
O410 C456 1.300 . S
O411 C456 1.209 . S
O412 C457 1.199 . S
O413 H385 0.854 . S
O413 C457 1.297 . S
C414 C415 1.404 . S
C414 C419 1.397 . S
C414 C420 1.492 1_545 S
C415 C414 1.404 . S
C415 C416 1.396 . S
C415 C426 1.492 . S
C416 C415 1.396 . S
C416 C417 1.397 . S
C416 C432 1.509 . S
C417 C416 1.397 . S
C417 C418 1.412 . S
C417 C438 1.485 . S
C418 C417 1.412 . S
C418 C419 1.388 . S
C418 C444 1.490 . S
C419 C414 1.397 . S
C419 C418 1.388 . S
C419 C450 1.519 1_545 S
C420 C414 1.492 1_565 S
C420 C421 1.363 . S
C420 C425 1.390 . S
C421 H386 0.930 . S
C421 C420 1.363 . S
C421 C422 1.372 . S
C422 H387 0.930 . S
C422 C421 1.372 . S
C422 C423 1.383 . S
C423 C422 1.383 . S
C423 C424 1.395 . S
C424 H388 0.930 . S
C424 C423 1.395 . S
C424 C425 1.362 . S
C425 H389 0.930 . S
C425 C420 1.390 . S
C425 C424 1.362 . S
C426 C415 1.492 . S
C426 C427 1.377 . S
C426 C431 1.397 . S
C427 H390 0.931 . S
C427 C426 1.377 . S
C427 C428 1.376 . S
C428 H391 0.930 . S
C428 C427 1.376 . S
C428 C429 1.376 . S
C429 C428 1.376 . S
C429 C430 1.378 . S
C429 C456 1.486 . S
C430 H392 0.930 . S
C430 C429 1.378 . S
C430 C431 1.376 . S
C431 H393 0.929 . S
C431 C426 1.397 . S
C431 C430 1.376 . S
C432 C416 1.509 . S
C432 C433 1.391 . S
C432 C437 1.386 . S
C433 H394 0.930 . S
C433 C432 1.391 . S
C433 C434 1.375 . S
C434 H395 0.931 . S
C434 C433 1.375 . S
C434 C435 1.375 . S
C435 C434 1.375 . S
C435 C436 1.361 . S
C436 H396 0.930 . S
C436 C435 1.361 . S
C436 C437 1.399 . S
C437 H397 0.929 . S
C437 C432 1.386 . S
C437 C436 1.399 . S
C438 C417 1.485 . S
C438 C439 1.394 . S
C438 C443 1.360 . S
C439 H398 0.931 . S
C439 C438 1.394 . S
C439 C440 1.372 . S
C440 H399 0.930 . S
C440 C439 1.372 . S
C440 C441 1.397 . S
C441 C440 1.397 . S
C441 C442 1.390 . S
C441 C457 1.476 . S
C442 H400 0.930 . S
C442 C441 1.390 . S
C442 C443 1.366 . S
C443 H401 0.932 . S
C443 C438 1.360 . S
C443 C442 1.366 . S
C444 C418 1.490 . S
C444 C445 1.380 1_545 S
C444 C449 1.386 . S
C445 H402 0.930 . S
C445 C444 1.380 1_565 S
C445 C446 1.381 . S
C446 H403 0.929 . S
C446 C445 1.381 . S
C446 C447 1.371 1_565 S
C447 C446 1.371 1_545 S
C447 C448 1.380 . S
C448 H404 0.931 . S
C448 C447 1.380 . S
C448 C449 1.387 . S
C449 H405 0.930 . S
C449 C444 1.386 . S
C449 C448 1.387 . S
C450 C419 1.519 1_565 S
C450 C451 1.377 . S
C450 C455 1.361 1_565 S
C451 H406 0.929 . S
C451 C450 1.377 . S
C451 C452 1.386 . S
C452 H407 0.931 . S
C452 C451 1.386 . S
C452 C453 1.363 . S
C453 C452 1.363 . S
C453 C454 1.385 . S
C454 H408 0.930 . S
C454 C453 1.385 . S
C454 C455 1.396 1_565 S
C455 H409 0.929 . S
C455 C450 1.361 1_545 S
C455 C454 1.396 1_545 S
C456 O410 1.300 . S
C456 O411 1.209 . S
C456 C429 1.486 . S
C457 O412 1.199 . S
C457 O413 1.297 . S
C457 C441 1.476 . S
H458 O484 0.856 . S
H459 O487 0.854 . S
H460 C495 0.930 . S
H461 C496 0.930 . S
H462 C498 0.930 . S
H463 C499 0.930 . S
H464 C501 0.931 . S
H465 C502 0.930 . S
H466 C504 0.930 . S
H467 C505 0.929 . S
H468 C507 0.930 . S
H469 C508 0.931 . S
H470 C510 0.930 . S
H471 C511 0.929 . S
H472 C513 0.931 . S
H473 C514 0.930 . S
H474 C516 0.930 . S
H475 C517 0.932 . S
H476 C519 0.930 . S
H477 C520 0.929 . S
H478 C522 0.931 . S
H479 C523 0.930 . S
H480 C525 0.929 . S
H481 C526 0.931 . S
H482 C528 0.930 . S
H483 C529 0.929 . S
O484 H458 0.856 . S
O484 C530 1.300 . S
O485 C530 1.209 . S
O486 C531 1.199 . S
O487 H459 0.854 . S
O487 C531 1.297 . S
C488 C489 1.404 . S
C488 C493 1.397 1_556 S
C488 C494 1.492 . S
C489 C488 1.404 . S
C489 C490 1.396 . S
C489 C500 1.492 . S
C490 C489 1.396 . S
C490 C491 1.397 1_556 S
C490 C506 1.509 . S
C491 C490 1.397 1_554 S
C491 C492 1.412 . S
C491 C512 1.485 . S
C492 C491 1.412 . S
C492 C493 1.388 . S
C492 C518 1.490 . S
C493 C488 1.397 1_554 S
C493 C492 1.388 . S
C493 C524 1.519 . S
C494 C488 1.492 . S
C494 C495 1.363 . S
C494 C499 1.390 . S
C495 H460 0.930 . S
C495 C494 1.363 . S
C495 C496 1.372 . S
C496 H461 0.930 . S
C496 C495 1.372 . S
C496 C497 1.383 . S
C497 C496 1.383 . S
C497 C498 1.395 . S
C498 H462 0.930 . S
C498 C497 1.395 . S
C498 C499 1.362 . S
C499 H463 0.930 . S
C499 C494 1.390 . S
C499 C498 1.362 . S
C500 C489 1.492 . S
C500 C501 1.377 . S
C500 C505 1.397 . S
C501 H464 0.931 . S
C501 C500 1.377 . S
C501 C502 1.376 . S
C502 H465 0.930 . S
C502 C501 1.376 . S
C502 C503 1.376 . S
C503 C502 1.376 . S
C503 C504 1.378 . S
C503 C530 1.486 . S
C504 H466 0.930 . S
C504 C503 1.378 . S
C504 C505 1.376 . S
C505 H467 0.929 . S
C505 C500 1.397 . S
C505 C504 1.376 . S
C506 C490 1.509 . S
C506 C507 1.391 . S
C506 C511 1.386 . S
C507 H468 0.930 . S
C507 C506 1.391 . S
C507 C508 1.375 . S
C508 H469 0.931 . S
C508 C507 1.375 . S
C508 C509 1.375 . S
C509 C508 1.375 . S
C509 C510 1.361 . S
C510 H470 0.930 . S
C510 C509 1.361 . S
C510 C511 1.399 . S
C511 H471 0.929 . S
C511 C506 1.386 . S
C511 C510 1.399 . S
C512 C491 1.485 . S
C512 C513 1.394 . S
C512 C517 1.360 . S
C513 H472 0.931 . S
C513 C512 1.394 . S
C513 C514 1.372 . S
C514 H473 0.930 . S
C514 C513 1.372 . S
C514 C515 1.397 . S
C515 C514 1.397 . S
C515 C516 1.390 . S
C515 C531 1.476 . S
C516 H474 0.930 . S
C516 C515 1.390 . S
C516 C517 1.366 . S
C517 H475 0.932 . S
C517 C512 1.360 . S
C517 C516 1.366 . S
C518 C492 1.490 . S
C518 C519 1.380 . S
C518 C523 1.386 . S
C519 H476 0.930 . S
C519 C518 1.380 . S
C519 C520 1.381 . S
C520 H477 0.929 . S
C520 C519 1.381 . S
C520 C521 1.371 . S
C521 C520 1.371 . S
C521 C522 1.380 . S
C522 H478 0.931 . S
C522 C521 1.380 . S
C522 C523 1.387 . S
C523 H479 0.930 . S
C523 C518 1.386 . S
C523 C522 1.387 . S
C524 C493 1.519 . S
C524 C525 1.377 . S
C524 C529 1.361 . S
C525 H480 0.929 . S
C525 C524 1.377 . S
C525 C526 1.386 . S
C526 H481 0.931 . S
C526 C525 1.386 . S
C526 C527 1.363 . S
C527 C526 1.363 . S
C527 C528 1.385 . S
C528 H482 0.930 . S
C528 C527 1.385 . S
C528 C529 1.396 . S
C529 H483 0.929 . S
C529 C524 1.361 . S
C529 C528 1.396 . S
C530 O484 1.300 . S
C530 O485 1.209 . S
C530 C503 1.486 . S
C531 O486 1.199 . S
C531 O487 1.297 . S
C531 C515 1.476 . S
H532 C538 0.930 . S
H533 C541 0.930 . S
H534 C542 0.930 . S
H535 C543 0.930 . S
H536 C546 0.930 . S
H537 C547 0.930 . S
C538 H532 0.930 . S
C538 C539 1.355 . S
C538 C540 1.415 . S
C539 C538 1.355 . S
C539 C541 1.419 . S
C540 C538 1.415 . S
C540 C545 1.425 . S
C540 C547 1.409 . S
C541 H533 0.930 . S
C541 C539 1.419 . S
C541 C542 1.362 . S
C542 H534 0.930 . S
C542 C541 1.362 . S
C542 C545 1.409 . S
C543 H535 0.930 . S
C543 C544 1.355 . S
C543 C545 1.415 . S
C544 C543 1.355 . S
C544 C546 1.419 . S
C545 C540 1.425 . S
C545 C542 1.409 . S
C545 C543 1.415 . S
C546 H536 0.930 . S
C546 C544 1.419 . S
C546 C547 1.362 . S
C547 H537 0.930 . S
C547 C540 1.409 . S
C547 C546 1.362 . S
H548 C554 0.930 . S
H549 C557 0.930 . S
H550 C558 0.930 . S
H551 C559 0.930 . S
H552 C562 0.930 . S
H553 C563 0.930 . S
C554 H548 0.930 . S
C554 C555 1.355 . S
C554 C556 1.415 . S
C555 C554 1.355 . S
C555 C557 1.419 . S
C556 C554 1.415 . S
C556 C561 1.425 . S
C556 C563 1.409 . S
C557 H549 0.930 . S
C557 C555 1.419 . S
C557 C558 1.362 . S
C558 H550 0.930 . S
C558 C557 1.362 . S
C558 C561 1.409 . S
C559 H551 0.930 . S
C559 C560 1.355 . S
C559 C561 1.415 . S
C560 C559 1.355 . S
C560 C562 1.419 . S
C561 C556 1.425 . S
C561 C558 1.409 . S
C561 C559 1.415 . S
C562 H552 0.930 . S
C562 C560 1.419 . S
C562 C563 1.362 . S
C563 H553 0.930 . S
C563 C556 1.409 . S
C563 C562 1.362 . S
H564 C570 0.930 . S
H565 C573 0.930 . S
H566 C574 0.916 1_455 S
H567 C575 0.909 1_455 S
H568 C578 0.930 . S
H569 C579 0.930 . S
C570 H564 0.930 . S
C570 C571 1.355 . S
C570 C572 1.415 . S
C571 C570 1.355 . S
C571 C573 1.419 . S
C572 C570 1.415 . S
C572 C577 1.425 . S
C572 C579 1.409 . S
C573 H565 0.930 . S
C573 C571 1.419 . S
C573 C574 1.362 . S
C574 H566 0.916 1_655 S
C574 C573 1.362 . S
C574 C577 1.409 . S
C575 H567 0.909 1_655 S
C575 C576 1.355 . S
C575 C577 1.415 . S
C576 C575 1.355 . S
C576 C578 1.419 . S
C577 C572 1.425 . S
C577 C574 1.409 . S
C577 C575 1.415 . S
C578 H568 0.930 . S
C578 C576 1.419 . S
C578 C579 1.362 . S
C579 H569 0.930 . S
C579 C572 1.409 . S
C579 C578 1.362 . S
H580 C586 0.930 . S
H581 C589 0.930 . S
H582 C590 0.930 . S
H583 C591 0.930 . S
H584 C594 0.930 . S
H585 C595 0.930 . S
C586 H580 0.930 . S
C586 C587 1.355 . S
C586 C588 1.415 . S
C587 C586 1.355 . S
C587 C589 1.419 . S
C588 C586 1.415 . S
C588 C593 1.425 . S
C588 C595 1.409 . S
C589 H581 0.930 . S
C589 C587 1.419 . S
C589 C590 1.362 . S
C590 H582 0.930 . S
C590 C589 1.362 . S
C590 C593 1.409 . S
C591 H583 0.930 . S
C591 C592 1.355 . S
C591 C593 1.415 . S
C592 C591 1.355 . S
C592 C594 1.419 . S
C593 C588 1.425 . S
C593 C590 1.409 . S
C593 C591 1.415 . S
C594 H584 0.930 . S
C594 C592 1.419 . S
C594 C595 1.362 . S
C595 H585 0.930 . S
C595 C588 1.409 . S
C595 C594 1.362 . S
H596 C602 0.930 . S
H597 C605 0.930 . S
H598 C606 0.930 . S
H599 C607 0.930 . S
H600 C610 0.930 . S
H601 C611 0.930 . S
C602 H596 0.930 . S
C602 C603 1.355 . S
C602 C604 1.415 . S
C603 C602 1.355 . S
C603 C605 1.419 . S
C604 C602 1.415 . S
C604 C609 1.425 . S
C604 C611 1.409 . S
C605 H597 0.930 . S
C605 C603 1.419 . S
C605 C606 1.362 . S
C606 H598 0.930 . S
C606 C605 1.362 . S
C606 C609 1.409 . S
C607 H599 0.930 . S
C607 C608 1.355 . S
C607 C609 1.415 . S
C608 C607 1.355 . S
C608 C610 1.419 . S
C609 C604 1.425 . S
C609 C606 1.409 . S
C609 C607 1.415 . S
C610 H600 0.930 . S
C610 C608 1.419 . S
C610 C611 1.362 . S
C611 H601 0.930 . S
C611 C604 1.409 . S
C611 C610 1.362 . S
H612 C618 0.930 . S
H613 C621 0.930 . S
H614 C622 0.930 . S
H615 C623 0.930 . S
H616 C626 0.930 . S
H617 C627 0.930 . S
C618 H612 0.930 . S
C618 C619 1.355 . S
C618 C620 1.415 . S
C619 C618 1.355 . S
C619 C621 1.419 1_545 S
C620 C618 1.415 . S
C620 C625 1.425 . S
C620 C627 1.409 . S
C621 H613 0.930 . S
C621 C619 1.419 1_565 S
C621 C622 1.362 . S
C622 H614 0.930 . S
C622 C621 1.362 . S
C622 C625 1.409 1_565 S
C623 H615 0.930 . S
C623 C624 1.355 . S
C623 C625 1.415 . S
C624 C623 1.355 . S
C624 C626 1.419 . S
C625 C620 1.425 . S
C625 C622 1.409 1_545 S
C625 C623 1.415 . S
C626 H616 0.930 . S
C626 C624 1.419 . S
C626 C627 1.362 . S
C627 H617 0.930 . S
C627 C620 1.409 . S
C627 C626 1.362 . S
H628 C634 0.930 . S
H629 C637 0.930 . S
H630 C638 0.930 . S
H631 C639 0.930 . S
H632 C642 0.930 . S
H633 C643 0.930 . S
C634 H628 0.930 . S
C634 C635 1.355 . S
C634 C636 1.415 . S
C635 C634 1.355 . S
C635 C637 1.419 . S
C636 C634 1.415 . S
C636 C641 1.425 . S
C636 C643 1.409 . S
C637 H629 0.930 . S
C637 C635 1.419 . S
C637 C638 1.362 . S
C638 H630 0.930 . S
C638 C637 1.362 . S
C638 C641 1.409 . S
C639 H631 0.930 . S
C639 C640 1.355 . S
C639 C641 1.415 . S
C640 C639 1.355 . S
C640 C642 1.419 . S
C641 C636 1.425 . S
C641 C638 1.409 . S
C641 C639 1.415 . S
C642 H632 0.930 . S
C642 C640 1.419 . S
C642 C643 1.362 . S
C643 H633 0.930 . S
C643 C636 1.409 . S
C643 C642 1.362 . S
H644 C650 0.930 . S
H645 C653 0.930 . S
H646 C654 0.930 . S
H647 C655 0.930 . S
H648 C658 0.930 . S
H649 C659 0.930 . S
C650 H644 0.930 . S
C650 C651 1.355 . S
C650 C652 1.415 . S
C651 C650 1.355 . S
C651 C653 1.419 . S
C652 C650 1.415 . S
C652 C657 1.425 . S
C652 C659 1.409 . S
C653 H645 0.930 . S
C653 C651 1.419 . S
C653 C654 1.362 . S
C654 H646 0.930 . S
C654 C653 1.362 . S
C654 C657 1.409 . S
C655 H647 0.930 . S
C655 C656 1.355 . S
C655 C657 1.415 . S
C656 C655 1.355 . S
C656 C658 1.419 . S
C657 C652 1.425 . S
C657 C654 1.409 . S
C657 C655 1.415 . S
C658 H648 0.930 . S
C658 C656 1.419 . S
C658 C659 1.362 . S
C659 H649 0.930 . S
C659 C652 1.409 . S
C659 C658 1.362 . S
H660 C666 0.930 . S
H661 C669 0.930 . S
H662 C670 0.930 . S
H663 C671 0.930 . S
H664 C674 0.930 . S
H665 C675 0.930 . S
C666 H660 0.930 . S
C666 C667 1.355 . S
C666 C668 1.415 . S
C667 C666 1.355 . S
C667 C669 1.419 . S
C668 C666 1.415 . S
C668 C673 1.425 . S
C668 C675 1.409 . S
C669 H661 0.930 . S
C669 C667 1.419 . S
C669 C670 1.362 . S
C670 H662 0.930 . S
C670 C669 1.362 . S
C670 C673 1.409 . S
C671 H663 0.930 . S
C671 C672 1.355 . S
C671 C673 1.415 . S
C672 C671 1.355 . S
C672 C674 1.419 . S
C673 C668 1.425 . S
C673 C670 1.409 . S
C673 C671 1.415 . S
C674 H664 0.930 . S
C674 C672 1.419 . S
C674 C675 1.362 . S
C675 H665 0.930 . S
C675 C668 1.409 . S
C675 C674 1.362 . S
H676 C682 0.930 . S
H677 C685 0.930 . S
H678 C686 0.930 . S
H679 C687 0.930 . S
H680 C690 0.930 . S
H681 C691 0.932 1_545 S
C682 H676 0.930 . S
C682 C683 1.355 . S
C682 C684 1.415 . S
C683 C682 1.355 . S
C683 C685 1.419 . S
C684 C682 1.415 . S
C684 C689 1.425 . S
C684 C691 1.413 . S
C685 H677 0.930 . S
C685 C683 1.419 . S
C685 C686 1.362 . S
C686 H678 0.930 . S
C686 C685 1.362 . S
C686 C689 1.409 . S
C687 H679 0.930 . S
C687 C688 1.355 . S
C687 C689 1.415 . S
C688 C687 1.355 . S
C688 C690 1.419 1_565 S
C689 C684 1.425 . S
C689 C686 1.409 . S
C689 C687 1.415 . S
C690 H680 0.930 . S
C690 C688 1.419 1_545 S
C690 C691 1.356 1_545 S
C691 H681 0.932 1_565 S
C691 C684 1.413 . S
C691 C690 1.356 1_565 S
H692 C698 0.930 . S
H693 C701 0.930 . S
H694 C702 0.930 . S
H695 C703 0.930 . S
H696 C706 0.930 1_565 S
H697 C707 0.930 . S
C698 H692 0.930 . S
C698 C699 1.355 . S
C698 C700 1.415 . S
C699 C698 1.355 . S
C699 C701 1.419 . S
C700 C698 1.415 . S
C700 C705 1.425 . S
C700 C707 1.409 . S
C701 H693 0.930 . S
C701 C699 1.419 . S
C701 C702 1.362 . S
C702 H694 0.930 . S
C702 C701 1.362 . S
C702 C705 1.409 . S
C703 H695 0.930 . S
C703 C704 1.355 . S
C703 C705 1.415 . S
C704 C703 1.355 . S
C704 C706 1.419 . S
C705 C700 1.425 . S
C705 C702 1.409 . S
C705 C703 1.415 . S
C706 H696 0.930 1_545 S
C706 C704 1.419 . S
C706 C707 1.362 . S
C707 H697 0.930 . S
C707 C700 1.409 . S
C707 C706 1.362 . S
H708 C714 0.930 . S
H709 C717 0.930 . S
H710 C718 0.930 . S
H711 C719 0.930 . S
H712 C722 0.930 . S
H713 C723 0.930 . S
C714 H708 0.930 . S
C714 C715 1.355 . S
C714 C716 1.415 . S
C715 C714 1.355 . S
C715 C717 1.419 . S
C716 C714 1.415 . S
C716 C721 1.425 . S
C716 C723 1.409 . S
C717 H709 0.930 . S
C717 C715 1.419 . S
C717 C718 1.362 . S
C718 H710 0.930 . S
C718 C717 1.362 . S
C718 C721 1.409 . S
C719 H711 0.930 . S
C719 C720 1.355 . S
C719 C721 1.415 . S
C720 C719 1.355 . S
C720 C722 1.419 . S
C721 C716 1.425 . S
C721 C718 1.409 . S
C721 C719 1.415 . S
C722 H712 0.930 . S
C722 C720 1.419 . S
C722 C723 1.362 . S
C723 H713 0.930 . S
C723 C716 1.409 . S
C723 C722 1.362 . S
H724 C730 0.930 . S
H725 C733 0.930 . S
H726 C734 0.930 . S
H727 C735 0.930 . S
H728 C738 0.930 . S
H729 C739 0.930 . S
C730 H724 0.930 . S
C730 C731 1.355 . S
C730 C732 1.415 . S
C731 C730 1.355 . S
C731 C733 1.419 . S
C732 C730 1.415 . S
C732 C737 1.425 . S
C732 C739 1.409 . S
C733 H725 0.930 . S
C733 C731 1.419 . S
C733 C734 1.362 . S
C734 H726 0.930 . S
C734 C733 1.362 . S
C734 C737 1.409 . S
C735 H727 0.930 . S
C735 C736 1.355 . S
C735 C737 1.415 . S
C736 C735 1.355 . S
C736 C738 1.419 . S
C737 C732 1.425 . S
C737 C734 1.409 . S
C737 C735 1.415 . S
C738 H728 0.930 . S
C738 C736 1.419 . S
C738 C739 1.362 . S
C739 H729 0.930 . S
C739 C732 1.409 . S
C739 C738 1.362 . S
H740 C746 0.930 . S
H741 C749 0.930 . S
H742 C750 0.930 . S
H743 C751 0.930 . S
H744 C754 0.930 . S
H745 C755 0.930 . S
C746 H740 0.930 . S
C746 C747 1.355 . S
C746 C748 1.415 . S
C747 C746 1.355 . S
C747 C749 1.419 . S
C748 C746 1.415 . S
C748 C753 1.425 . S
C748 C755 1.409 . S
C749 H741 0.930 . S
C749 C747 1.419 . S
C749 C750 1.362 . S
C750 H742 0.930 . S
C750 C749 1.362 . S
C750 C753 1.409 . S
C751 H743 0.930 . S
C751 C752 1.355 . S
C751 C753 1.415 . S
C752 C751 1.355 . S
C752 C754 1.419 . S
C753 C748 1.425 . S
C753 C750 1.409 . S
C753 C751 1.415 . S
C754 H744 0.930 . S
C754 C752 1.419 . S
C754 C755 1.362 . S
C755 H745 0.930 . S
C755 C748 1.409 . S
C755 C754 1.362 . S
H756 C762 0.930 . S
H757 C765 0.930 . S
H758 C766 0.930 . S
H759 C767 0.930 . S
H760 C770 0.930 . S
H761 C771 0.930 . S
C762 H756 0.930 . S
C762 C763 1.355 . S
C762 C764 1.415 . S
C763 C762 1.355 . S
C763 C765 1.419 . S
C764 C762 1.415 . S
C764 C769 1.425 . S
C764 C771 1.409 . S
C765 H757 0.930 . S
C765 C763 1.419 . S
C765 C766 1.362 . S
C766 H758 0.930 . S
C766 C765 1.362 . S
C766 C769 1.409 . S
C767 H759 0.930 . S
C767 C768 1.355 . S
C767 C769 1.415 . S
C768 C767 1.355 . S
C768 C770 1.419 . S
C769 C764 1.425 . S
C769 C766 1.409 . S
C769 C767 1.415 . S
C770 H760 0.930 . S
C770 C768 1.419 . S
C770 C771 1.362 . S
C771 H761 0.930 . S
C771 C764 1.409 . S
C771 C770 1.362 . S
H772 C778 0.930 . S
H773 C781 0.930 . S
H774 C782 0.930 . S
H775 C783 0.930 . S
H776 C786 0.930 . S
H777 C787 0.930 . S
C778 H772 0.930 . S
C778 C779 1.355 . S
C778 C780 1.415 . S
C779 C778 1.355 . S
C779 C781 1.419 . S
C780 C778 1.415 . S
C780 C785 1.425 . S
C780 C787 1.409 . S
C781 H773 0.930 . S
C781 C779 1.419 . S
C781 C782 1.362 . S
C782 H774 0.930 . S
C782 C781 1.362 . S
C782 C785 1.409 . S
C783 H775 0.930 . S
C783 C784 1.355 . S
C783 C785 1.415 . S
C784 C783 1.355 . S
C784 C786 1.419 . S
C785 C780 1.425 . S
C785 C782 1.409 . S
C785 C783 1.415 . S
C786 H776 0.930 . S
C786 C784 1.419 . S
C786 C787 1.362 . S
C787 H777 0.930 . S
C787 C780 1.409 . S
C787 C786 1.362 . S
H788 C794 0.930 . S
H789 C797 0.930 . S
H790 C798 0.930 . S
H791 C799 0.930 . S
H792 C802 0.930 . S
H793 C803 0.930 . S
C794 H788 0.930 . S
C794 C795 1.355 . S
C794 C796 1.415 . S
C795 C794 1.355 . S
C795 C797 1.419 . S
C796 C794 1.415 . S
C796 C801 1.425 . S
C796 C803 1.409 . S
C797 H789 0.930 . S
C797 C795 1.419 . S
C797 C798 1.362 . S
C798 H790 0.930 . S
C798 C797 1.362 . S
C798 C801 1.409 . S
C799 H791 0.930 . S
C799 C800 1.355 . S
C799 C801 1.415 . S
C800 C799 1.355 . S
C800 C802 1.419 . S
C801 C796 1.425 . S
C801 C798 1.409 . S
C801 C799 1.415 . S
C802 H792 0.930 . S
C802 C800 1.419 . S
C802 C803 1.362 . S
C803 H793 0.930 . S
C803 C796 1.409 . S
C803 C802 1.362 . S
H804 C810 0.930 . S
H805 C813 0.930 . S
H806 C814 0.930 . S
H807 C815 0.930 . S
H808 C818 0.930 . S
H809 C819 0.930 . S
C810 H804 0.930 . S
C810 C811 1.355 . S
C810 C812 1.415 . S
C811 C810 1.355 . S
C811 C813 1.419 . S
C812 C810 1.415 . S
C812 C817 1.425 . S
C812 C819 1.409 . S
C813 H805 0.930 . S
C813 C811 1.419 . S
C813 C814 1.362 . S
C814 H806 0.930 . S
C814 C813 1.362 . S
C814 C817 1.409 . S
C815 H807 0.930 . S
C815 C816 1.355 . S
C815 C817 1.415 . S
C816 C815 1.355 . S
C816 C818 1.419 . S
C817 C812 1.425 . S
C817 C814 1.409 . S
C817 C815 1.415 . S
C818 H808 0.930 . S
C818 C816 1.419 . S
C818 C819 1.362 . S
C819 H809 0.930 . S
C819 C812 1.409 . S
C819 C818 1.362 . S
H820 C826 0.930 . S
H821 C829 0.930 . S
H822 C830 0.930 . S
H823 C831 0.930 . S
H824 C834 0.930 . S
H825 C835 0.930 . S
C826 H820 0.930 . S
C826 C827 1.355 . S
C826 C828 1.415 . S
C827 C826 1.355 . S
C827 C829 1.419 . S
C828 C826 1.415 . S
C828 C833 1.425 . S
C828 C835 1.409 . S
C829 H821 0.930 . S
C829 C827 1.419 . S
C829 C830 1.362 . S
C830 H822 0.930 . S
C830 C829 1.362 . S
C830 C833 1.409 . S
C831 H823 0.930 . S
C831 C832 1.355 . S
C831 C833 1.415 . S
C832 C831 1.355 . S
C832 C834 1.419 . S
C833 C828 1.425 . S
C833 C830 1.409 . S
C833 C831 1.415 . S
C834 H824 0.930 . S
C834 C832 1.419 . S
C834 C835 1.362 . S
C835 H825 0.930 . S
C835 C828 1.409 . S
C835 C834 1.362 . S
H836 C842 0.930 . S
H837 C845 0.930 . S
H838 C846 0.930 . S
H839 C847 0.930 . S
H840 C850 0.930 . S
H841 C851 0.930 . S
C842 H836 0.930 . S
C842 C843 1.355 . S
C842 C844 1.415 . S
C843 C842 1.355 . S
C843 C845 1.419 1_565 S
C844 C842 1.415 . S
C844 C849 1.425 1_565 S
C844 C851 1.409 . S
C845 H837 0.930 . S
C845 C843 1.419 1_545 S
C845 C846 1.362 . S
C846 H838 0.930 . S
C846 C845 1.362 . S
C846 C849 1.409 . S
C847 H839 0.930 . S
C847 C848 1.355 1_545 S
C847 C849 1.415 . S
C848 C847 1.355 1_565 S
C848 C850 1.419 . S
C849 C844 1.425 1_545 S
C849 C846 1.409 . S
C849 C847 1.415 . S
C850 H840 0.930 . S
C850 C848 1.419 . S
C850 C851 1.362 . S
C851 H841 0.930 . S
C851 C844 1.409 . S
C851 C850 1.362 . S
H852 C858 0.930 . S
H853 C861 0.930 . S
H854 C862 0.930 . S
H855 C863 0.930 . S
H856 C866 0.930 . S
H857 C867 0.930 . S
C858 H852 0.930 . S
C858 C859 1.355 . S
C858 C860 1.415 . S
C859 C858 1.355 . S
C859 C861 1.419 . S
C860 C858 1.415 . S
C860 C865 1.425 . S
C860 C867 1.409 . S
C861 H853 0.930 . S
C861 C859 1.419 . S
C861 C862 1.362 . S
C862 H854 0.930 . S
C862 C861 1.362 . S
C862 C865 1.409 . S
C863 H855 0.930 . S
C863 C864 1.355 . S
C863 C865 1.415 . S
C864 C863 1.355 . S
C864 C866 1.419 . S
C865 C860 1.425 . S
C865 C862 1.409 . S
C865 C863 1.415 . S
C866 H856 0.930 . S
C866 C864 1.419 . S
C866 C867 1.362 . S
C867 H857 0.930 . S
C867 C860 1.409 . S
C867 C866 1.362 . S
H868 C874 0.930 . S
H869 C877 0.930 . S
H870 C878 0.930 . S
H871 C879 0.930 . S
H872 C882 0.930 . S
H873 C883 0.930 . S
C874 H868 0.930 . S
C874 C875 1.355 . S
C874 C876 1.415 . S
C875 C874 1.355 . S
C875 C877 1.419 . S
C876 C874 1.415 . S
C876 C881 1.425 . S
C876 C883 1.409 . S
C877 H869 0.930 . S
C877 C875 1.419 . S
C877 C878 1.362 . S
C878 H870 0.930 . S
C878 C877 1.362 . S
C878 C881 1.409 . S
C879 H871 0.930 . S
C879 C880 1.355 . S
C879 C881 1.415 . S
C880 C879 1.355 . S
C880 C882 1.419 . S
C881 C876 1.425 . S
C881 C878 1.409 . S
C881 C879 1.415 . S
C882 H872 0.930 . S
C882 C880 1.419 . S
C882 C883 1.362 . S
C883 H873 0.930 . S
C883 C876 1.409 . S
C883 C882 1.362 . S
H884 C890 0.930 . S
H885 C893 0.930 . S
H886 C894 0.930 . S
H887 C895 0.930 . S
H888 C898 0.930 . S
H889 C899 0.930 . S
C890 H884 0.930 . S
C890 C891 1.355 . S
C890 C892 1.415 . S
C891 C890 1.355 . S
C891 C893 1.419 . S
C892 C890 1.415 . S
C892 C897 1.425 . S
C892 C899 1.409 . S
C893 H885 0.930 . S
C893 C891 1.419 . S
C893 C894 1.362 . S
C894 H886 0.930 . S
C894 C893 1.362 . S
C894 C897 1.409 . S
C895 H887 0.930 . S
C895 C896 1.355 . S
C895 C897 1.415 . S
C896 C895 1.355 . S
C896 C898 1.419 . S
C897 C892 1.425 . S
C897 C894 1.409 . S
C897 C895 1.415 . S
C898 H888 0.930 . S
C898 C896 1.419 . S
C898 C899 1.362 . S
C899 H889 0.930 . S
C899 C892 1.409 . S
C899 C898 1.362 . S
H900 C906 0.930 . S
H901 C909 0.930 . S
H902 C910 0.930 . S
H903 C911 0.930 . S
H904 C914 0.930 . S
H905 C915 0.930 . S
C906 H900 0.930 . S
C906 C907 1.355 . S
C906 C908 1.415 . S
C907 C906 1.355 . S
C907 C909 1.419 . S
C908 C906 1.415 . S
C908 C913 1.425 . S
C908 C915 1.409 . S
C909 H901 0.930 . S
C909 C907 1.419 . S
C909 C910 1.362 . S
C910 H902 0.930 . S
C910 C909 1.362 . S
C910 C913 1.409 . S
C911 H903 0.930 . S
C911 C912 1.355 . S
C911 C913 1.415 . S
C912 C911 1.355 . S
C912 C914 1.419 . S
C913 C908 1.425 . S
C913 C910 1.409 . S
C913 C911 1.415 . S
C914 H904 0.930 . S
C914 C912 1.419 . S
C914 C915 1.362 . S
C915 H905 0.930 . S
C915 C908 1.409 . S
C915 C914 1.362 . S
C544 C127 1.790 . S
C539 C5 1.666 . S
C560 C231 1.891 . S
C555 C16 1.562 . S
C576 C151 1.560 . S
C571 C30 1.563 . S
C592 C213 1.667 . S
C587 C40 1.655 . S
C608 C287 1.710 . S
C603 C8 1.735 . S
C624 C349 1.832 . S
C619 C18 1.926 . S
C635 C29 1.638 . S
C640 C423 1.626 . S
C656 C509 1.602 . S
C651 C38 1.683 . S
C672 C305 2.587 . S
C667 C19 2.602 . S
C683 C27 1.471 . S
C688 C373 1.729 1_565 S
C704 C447 1.397 . S
C699 C41 1.451 . S
C720 C527 1.926 . S
C715 C7 2.028 . S
C731 C52 1.509 . S
C736 C225 1.495 . S
C752 C139 1.960 . S
C747 C62 2.075 . S
C763 C74 1.567 . S
C768 C201 1.534 . S
C779 C82 1.578 . S
C784 C157 1.967 . S
C800 C453 1.700 . S
C795 C51 1.698 . S
C816 C521 1.377 . S
C811 C60 1.312 . S
C832 C299 1.815 . S
C827 C71 1.820 . S
C843 C84 2.228 . S
C848 C379 2.341 1_565 S
C864 C435 1.262 . S
C859 C63 1.277 . S
C880 C497 1.358 . S
C875 C73 1.428 . S
C896 C275 1.859 . S
C891 C85 1.959 . S
C907 C49 1.302 . S
C912 C361 1.443 . S
