# Generated by pormake.
# Topology anh, (6,3)-cn, num edge types: 1
# Building blocks:
#     Node 0, Type 0, BuildingBlock: BETDAH_clean_sbu_0, # of connection points: 6
#     Node 1, Type 0, BuildingBlock: BETDAH_clean_sbu_0, # of connection points: 6
#     Node 2, Type 0, BuildingBlock: BETDAH_clean_sbu_0, # of connection points: 6
#     Node 3, Type 1, BuildingBlock: BETDAH_clean_linker_0, # of connection points: 3
#     Node 4, Type 1, BuildingBlock: BETDAH_clean_linker_0, # of connection points: 3
#     Node 5, Type 1, BuildingBlock: BETDAH_clean_linker_0, # of connection points: 3
#     Node 6, Type 1, BuildingBlock: BETDAH_clean_linker_0, # of connection points: 3
#     Node 7, Type 1, BuildingBlock: BETDAH_clean_linker_0, # of connection points: 3
#     Node 8, Type 1, BuildingBlock: BETDAH_clean_linker_0, # of connection points: 3
#     Edge 9, Type (0, 1), BuildingBlock: MIFKUJ_clean_linker_0, # of connection points: 2
#     Edge 10, Type (0, 1), BuildingBlock: MIFKUJ_clean_linker_0, # of connection points: 2
#     Edge 11, Type (0, 1), BuildingBlock: MIFKUJ_clean_linker_0, # of connection points: 2
#     Edge 12, Type (0, 1), BuildingBlock: MIFKUJ_clean_linker_0, # of connection points: 2
#     Edge 13, Type (0, 1), BuildingBlock: MIFKUJ_clean_linker_0, # of connection points: 2
#     Edge 14, Type (0, 1), BuildingBlock: MIFKUJ_clean_linker_0, # of connection points: 2
#     Edge 15, Type (0, 1), BuildingBlock: MIFKUJ_clean_linker_0, # of connection points: 2
#     Edge 16, Type (0, 1), BuildingBlock: MIFKUJ_clean_linker_0, # of connection points: 2
#     Edge 17, Type (0, 1), BuildingBlock: MIFKUJ_clean_linker_0, # of connection points: 2
#     Edge 18, Type (0, 1), BuildingBlock: MIFKUJ_clean_linker_0, # of connection points: 2
#     Edge 19, Type (0, 1), BuildingBlock: MIFKUJ_clean_linker_0, # of connection points: 2
#     Edge 20, Type (0, 1), BuildingBlock: MIFKUJ_clean_linker_0, # of connection points: 2
#     Edge 21, Type (0, 1), BuildingBlock: MIFKUJ_clean_linker_0, # of connection points: 2
#     Edge 22, Type (0, 1), BuildingBlock: MIFKUJ_clean_linker_0, # of connection points: 2
#     Edge 23, Type (0, 1), BuildingBlock: MIFKUJ_clean_linker_0, # of connection points: 2
#     Edge 24, Type (0, 1), BuildingBlock: MIFKUJ_clean_linker_0, # of connection points: 2
#     Edge 25, Type (0, 1), BuildingBlock: MIFKUJ_clean_linker_0, # of connection points: 2
#     Edge 26, Type (0, 1), BuildingBlock: MIFKUJ_clean_linker_0, # of connection points: 2
# Relax obj value: 0.118
# Max RMSD: 0.168
# Mean RMSD: 0.105
data_MOF--net-anh--node1-BETDAH_clean_sbu_0--node2-BETDAH_clean_linker_0--edge1-MIFKUJ_clean_linker_0
_symmetry_space_group_name_H-M    P1
_symmetry_Int_Tables_number       1
_symmetry_cell_setting            triclinic
loop_
_symmetry_equiv_pos_as_xyz
'x, y, z'
_cell_length_a     40.166415
_cell_length_b     47.172746
_cell_length_c     63.88626
_cell_angle_alpha  94.526956
_cell_angle_beta   91.209757
_cell_angle_gamma 127.76235
loop_
_atom_site_label
_atom_site_type_symbol
_atom_site_fract_x
_atom_site_fract_y
_atom_site_fract_z
_atom_type_partial_charge
Ho0 Ho 0.10567 0.54182 0.15192 0.0
Ho1 Ho 0.06387 0.5727 0.17245 0.0
C2 C 0.16048 0.62964 0.16447 0.0
C3 C 0.14487 0.52765 0.12713 0.0
C4 C 0.18815 0.54014 0.12566 0.0
C5 C 0.19854 0.53068 0.10703 0.0
C6 C 0.23794 0.53834 0.10614 0.0
C7 C 0.26724 0.55514 0.12402 0.0
C8 C 0.2575 0.56624 0.14237 0.0
C9 C 0.21823 0.55897 0.14315 0.0
C10 C 0.10599 0.54404 0.19419 0.0
C11 C 1.01006 0.48564 0.16046 0.0
C12 C 1.0229 0.58397 0.1977 0.0
C13 C 0.98323 0.55784 0.20691 0.0
C14 C 0.9536 0.56417 0.20914 0.0
C15 C 0.91201 0.53594 0.21267 0.0
C16 C 0.8996 0.50101 0.21354 0.0
C17 C 0.93018 0.49554 0.21304 0.0
C18 C 0.97186 0.5239 0.2101 0.0
C19 C 0.06445 0.57061 0.13016 0.0
O20 O 0.15786 0.60251 0.15437 0.0
O21 O 0.129 0.62453 0.17442 0.0
O22 O 0.12635 0.51017 0.14326 0.0
O23 O 0.13806 0.55071 0.12362 0.0
O24 O 0.10409 0.51949 0.18223 0.0
O25 O 0.1117 0.56757 0.18336 0.0
O26 O 1.01536 0.51223 0.1728 0.0
O27 O 1.03861 0.49159 0.14767 0.0
O28 O 1.01901 0.58319 0.17722 0.0
O29 O 0.05522 0.58555 0.2041 0.0
O30 O 0.06801 0.59608 0.14218 0.0
O31 O 0.05786 0.54674 0.141 0.0
H32 H 0.17556 0.5161 0.09343 0.0
H33 H 0.2444 0.52907 0.09189 0.0
H34 H 0.27961 0.57925 0.15634 0.0
H35 H 0.21063 0.56662 0.15764 0.0
H36 H 0.96181 0.59016 0.20668 0.0
H37 H 0.88879 0.54066 0.21275 0.0
H38 H 0.92131 0.46886 0.21357 0.0
H39 H 0.99445 0.51858 0.20898 0.0
Ho40 Ho 0.64919 0.06118 0.48781 0.0
Ho41 Ho 0.59328 0.0822 0.47827 0.0
C42 C 0.54791 0.99972 0.47888 0.0
C43 C 0.68111 0.03194 0.50197 0.0
C44 C 0.66403 0.99568 0.50734 0.0
C45 C 0.63184 0.97764 0.52105 0.0
C46 C 0.61606 0.9431 0.52564 0.0
C47 C 0.63179 0.92587 0.51641 0.0
C48 C 0.66366 0.94388 0.50257 0.0
C49 C 0.67971 0.97848 0.49817 0.0
C50 C 0.64064 0.06867 0.44706 0.0
C51 C 0.69654 0.14432 0.48573 0.0
C52 C 0.55896 0.10964 0.46435 0.0
C53 C 0.56361 0.14256 0.47098 0.0
C54 C 0.55676 0.15914 0.45611 0.0
C55 C 0.56087 0.19034 0.46233 0.0
C56 C 0.57176 0.2054 0.4836 0.0
C57 C 0.57893 0.18871 0.49841 0.0
C58 C 0.57516 0.15775 0.49214 0.0
C59 C 0.60271 0.07652 0.51937 0.0
O60 O 0.58266 0.01049 0.49005 0.0
O61 O 0.54702 0.0226 0.46872 0.0
O62 O 0.67703 0.0343 0.48198 0.0
O63 O 0.67338 0.05061 0.51414 0.0
O64 O 0.67547 0.07795 0.45645 0.0
O65 O 0.61158 0.05407 0.45929 0.0
O66 O 0.65945 0.13485 0.47844 0.0
O67 O 0.70036 0.12081 0.4929 0.0
O68 O 0.54182 0.08523 0.47748 0.0
O69 O 0.59178 0.11457 0.45656 0.0
O70 O 0.56862 0.06874 0.51016 0.0
O71 O 0.63126 0.08994 0.50686 0.0
H72 H 0.61879 0.9901 0.52818 0.0
H73 H 0.59129 0.92971 0.53624 0.0
H74 H 0.67674 0.93146 0.49543 0.0
H75 H 0.70444 0.99184 0.48754 0.0
H76 H 0.54822 0.14797 0.43967 0.0
H77 H 0.55582 0.20278 0.45044 0.0
H78 H 0.58676 0.19916 0.51495 0.0
H79 H 0.58091 0.14549 0.50387 0.0
Ho80 Ho 0.61143 0.58281 0.84422 0.0
Ho81 Ho 0.55271 0.5025 0.84965 0.0
C82 C 0.50913 0.54139 0.84871 0.0
C83 C 0.64857 0.64494 0.83042 0.0
C84 C 0.64042 0.67016 0.8253 0.0
C85 C 0.66198 0.69229 0.80944 0.0
C86 C 0.65617 0.71741 0.80457 0.0
C87 C 0.62853 0.72082 0.81546 0.0
C88 C 0.60635 0.69811 0.83115 0.0
C89 C 0.61212 0.67286 0.83598 0.0
C90 C 0.60382 0.56613 0.8841 0.0
C91 C 0.65579 0.54481 0.8475 0.0
C92 C 0.52146 0.44039 0.86178 0.0
C93 C 0.53231 0.41607 0.85696 0.0
C94 C 0.52529 0.39201 0.87112 0.0
C95 C 0.53638 0.36937 0.86656 0.0
C96 C 0.55419 0.37028 0.84766 0.0
C97 C 0.56187 0.3949 0.83373 0.0
C98 C 0.55132 0.41777 0.83841 0.0
C99 C 0.56007 0.51743 0.80942 0.0
O100 O 0.54524 0.56888 0.84187 0.0
O101 O 0.50612 0.51392 0.85537 0.0
O102 O 0.65081 0.641 0.85034 0.0
O103 O 0.62797 0.61444 0.81812 0.0
O104 O 0.63933 0.59271 0.87769 0.0
O105 O 0.57489 0.55146 0.86946 0.0
O106 O 0.61856 0.51642 0.85262 0.0
O107 O 0.6601 0.5731 0.84141 0.0
O108 O 0.50436 0.44462 0.84587 0.0
O109 O 0.55081 0.47093 0.87313 0.0
O110 O 0.52579 0.48993 0.81601 0.0
O111 O 0.58945 0.53364 0.82404 0.0
H112 H 0.68379 0.69044 0.80096 0.0
H113 H 0.67401 0.73469 0.79256 0.0
H114 H 0.5845 0.69986 0.83965 0.0
H115 H 0.59481 0.6557 0.84813 0.0
H116 H 0.51129 0.39077 0.88566 0.0
H117 H 0.53017 0.3506 0.87754 0.0
H118 H 0.57615 0.39649 0.81923 0.0
H119 H 0.55786 0.43672 0.82748 0.0
H120 H 0.5186 0.99494 0.22798 0.0
H121 H 0.62844 0.09885 0.2148 0.0
H122 H 0.54958 0.01402 0.16407 0.0
C123 C 0.5386 0.01311 0.21672 0.0
C124 C 0.52943 1.00031 0.1952 0.0
C125 C 0.57429 0.0485 0.22398 0.0
C126 C 0.60096 0.07151 0.20931 0.0
C127 C 0.59185 0.05908 0.1876 0.0
C128 C 0.55641 0.02347 0.18077 0.0
N129 N 0.6174 0.08129 0.17211 0.0
C130 C 0.65162 0.11781 0.17597 0.0
H131 H 0.57949 0.49651 0.5914 0.0
H132 H 0.58849 0.58992 0.58089 0.0
H133 H 0.59257 0.52835 0.52901 0.0
C134 C 0.58274 0.51471 0.58073 0.0
C135 C 0.58598 0.50886 0.55927 0.0
C136 C 0.58355 0.54381 0.5886 0.0
C137 C 0.58776 0.56743 0.57481 0.0
C138 C 0.59055 0.5615 0.55317 0.0
C139 C 0.5898 0.5324 0.54563 0.0
N140 N 0.5944 0.58407 0.53838 0.0
C141 C 0.5903 0.61112 0.54244 0.0
H142 H 1.0158 0.55311 0.90845 0.0
H143 H 0.11835 0.54998 0.89703 0.0
H144 H 1.04218 0.542 0.84455 0.0
C145 C 1.03474 0.55176 0.8972 0.0
C146 C 1.02449 0.54842 0.87549 0.0
C147 C 0.0685 0.55281 0.905 0.0
C148 C 0.09238 0.54915 0.8909 0.0
C149 C 0.08333 0.54515 0.86899 0.0
C150 C 1.04904 0.54464 0.86138 0.0
N151 N 0.10812 0.54205 0.85434 0.0
C152 C 0.14393 0.54351 0.85889 0.0
H153 H 0.18139 0.63233 0.41393 0.0
H154 H 0.08528 0.52492 0.4288 0.0
H155 H 0.17109 0.60954 0.47843 0.0
C156 C 0.16562 0.61371 0.42565 0.0
C157 C 0.18056 0.62575 0.44701 0.0
C158 C 0.13139 0.57755 0.41902 0.0
C159 C 0.11168 0.55283 0.43396 0.0
C160 C 0.12595 0.56447 0.4555 0.0
C161 C 0.16045 0.60076 0.46182 0.0
N162 N 0.10658 0.54074 0.47132 0.0
C163 C 0.07026 0.50491 0.46794 0.0
H164 H 0.61772 0.1228 0.74169 0.0
H165 H 0.64293 0.048 0.75102 0.0
H166 H 0.64039 0.10773 0.80448 0.0
C167 C 0.62388 0.10934 0.75227 0.0
C168 C 0.62793 0.11834 0.77415 0.0
C169 C 0.62922 0.08406 0.74378 0.0
C170 C 0.63864 0.06741 0.75745 0.0
C171 C 0.6427 0.07616 0.77942 0.0
C172 C 0.63765 0.10165 0.78753 0.0
N173 N 0.65261 0.0606 0.79398 0.0
C174 C 0.64708 0.02853 0.7898 0.0
H175 H 0.56961 0.37221 0.06653 0.0
H176 H 0.46037 0.36927 0.0641 0.0
H177 H 0.48893 0.33632 0.11756 0.0
C178 C 0.54181 0.3661 0.07347 0.0
C179 C 0.53302 0.35389 0.09353 0.0
C180 C 0.51592 0.37185 0.06265 0.0
C181 C 0.47998 0.36392 0.07181 0.0
C182 C 0.46994 0.35028 0.09136 0.0
C183 C 0.49597 0.34479 0.10193 0.0
N184 N 0.43577 0.34478 0.10152 0.0
C185 C 0.42876 0.37019 0.10222 0.0
H186 H 0.29153 0.53157 0.15353 0.0
H187 H 0.34062 0.51798 0.15008 0.0
H188 H 0.37596 0.56571 0.09165 0.0
H189 H 0.32514 0.57811 0.09473 0.0
H190 H 0.35279 0.50243 0.08503 0.0
H191 H 0.44993 0.59867 0.13677 0.0
H192 H 0.47538 0.63922 0.16996 0.0
H193 H 0.43381 0.55078 0.20538 0.0
H194 H 0.40751 0.50953 0.17244 0.0
H195 H 0.46041 0.42438 0.07801 0.0
H196 H 0.45296 0.47262 0.082 0.0
H197 H 0.37979 0.42669 0.13506 0.0
H198 H 0.38774 0.37898 0.13129 0.0
H199 H 0.44052 0.50299 0.14109 0.0
H200 H 0.3331 0.40668 0.0879 0.0
H201 H 0.30708 0.3676 0.0541 0.0
H202 H 0.37025 0.46083 0.02052 0.0
H203 H 0.39789 0.50058 0.05418 0.0
C204 C 0.31089 0.54039 0.14035 0.0
C205 C 0.30446 0.55572 0.12434 0.0
C206 C 0.33922 0.53275 0.13841 0.0
C207 C 0.36236 0.541 0.12065 0.0
C208 C 0.35843 0.55902 0.10547 0.0
C209 C 0.32948 0.56613 0.10723 0.0
C210 C 0.38444 0.52519 0.11635 0.0
C211 C 0.37317 0.50359 0.09708 0.0
C212 C 0.41058 0.52621 0.13212 0.0
C213 C 0.42663 0.55094 0.15207 0.0
C214 C 0.44599 0.58779 0.15163 0.0
C215 C 0.4606 0.61092 0.17042 0.0
C216 C 0.4562 0.59758 0.18977 0.0
C217 C 0.43725 0.56109 0.19038 0.0
C218 C 0.42257 0.53783 0.17164 0.0
C219 C 0.44274 0.42477 0.09046 0.0
C220 C 0.42406 0.39808 0.1042 0.0
C221 C 0.43859 0.45218 0.09273 0.0
C222 C 0.41555 0.45292 0.10868 0.0
C223 C 0.39778 0.42659 0.1227 0.0
C224 C 0.40195 0.39926 0.12043 0.0
C225 C 0.40752 0.47965 0.11017 0.0
C226 C 0.4214 0.50307 0.12888 0.0
C227 C 0.38418 0.48069 0.09379 0.0
C228 C 0.36832 0.45666 0.0736 0.0
C229 C 0.34212 0.41891 0.07334 0.0
C230 C 0.32698 0.39662 0.0542 0.0
C231 C 0.33719 0.41172 0.03518 0.0
C232 C 0.36247 0.44916 0.03527 0.0
C233 C 0.37806 0.47159 0.05438 0.0
H234 H 0.32537 0.39442 0.02037 0.0
H235 H 0.4675 0.61553 0.20429 0.0
H236 H 0.77923 0.17408 0.49694 0.0
H237 H 0.84238 0.23533 0.49352 0.0
H238 H 0.76434 0.26158 0.46934 0.0
H239 H 0.70108 0.20032 0.47242 0.0
H240 H 0.82909 0.28532 0.44591 0.0
H241 H 0.81258 0.29299 0.51967 0.0
H242 H 0.80357 0.27486 0.55554 0.0
H243 H 0.92195 0.29249 0.55681 0.0
H244 H 0.93139 0.31026 0.52081 0.0
H245 H 0.9899 0.47714 0.45553 0.0
H246 H 0.92587 0.41529 0.45787 0.0
H247 H 1.00287 0.38778 0.48189 0.0
H248 H 0.06667 0.44971 0.47976 0.0
H249 H 0.93826 0.36473 0.50531 0.0
H250 H 0.95456 0.35736 0.43132 0.0
H251 H 0.96302 0.37546 0.39545 0.0
H252 H 0.84449 0.35752 0.3947 0.0
H253 H 0.83559 0.33979 0.43069 0.0
C254 C 0.7754 0.19292 0.49105 0.0
C255 C 0.73494 0.18217 0.485 0.0
C256 C 0.81161 0.22802 0.48914 0.0
C257 C 0.8082 0.25325 0.4813 0.0
C258 C 0.76785 0.24264 0.47539 0.0
C259 C 0.73164 0.20757 0.47726 0.0
C260 C 0.84667 0.29044 0.47887 0.0
C261 C 0.85267 0.30287 0.45898 0.0
C262 C 0.87797 0.31314 0.49578 0.0
C263 C 0.87249 0.30262 0.51746 0.0
C264 C 0.83653 0.29274 0.52754 0.0
C265 C 0.83138 0.28257 0.5479 0.0
C266 C 0.86212 0.28243 0.55843 0.0
C267 C 0.89814 0.29256 0.54863 0.0
C268 C 0.90343 0.30271 0.52825 0.0
C269 C 0.99296 0.45761 0.46101 0.0
C270 C 1.03289 0.46776 0.4673 0.0
C271 C 0.95648 0.42233 0.46234 0.0
C272 C 0.95948 0.39669 0.46994 0.0
C273 C 0.99968 0.40699 0.47599 0.0
C274 C 1.03608 0.44223 0.47465 0.0
C275 C 0.92078 0.35959 0.47233 0.0
C276 C 0.9147 0.34719 0.49223 0.0
C277 C 0.88936 0.33697 0.45544 0.0
C278 C 0.89463 0.34761 0.43379 0.0
C279 C 0.93047 0.35757 0.42358 0.0
C280 C 0.93531 0.36771 0.40321 0.0
C281 C 0.90437 0.36774 0.39283 0.0
C282 C 0.86846 0.35754 0.40277 0.0
C283 C 0.86349 0.34742 0.42315 0.0
H284 H 0.90817 0.37559 0.37706 0.0
H285 H 0.85807 0.27455 0.5742 0.0
H286 H 0.62028 0.73862 0.77691 0.0
H287 H 0.61778 0.78746 0.76965 0.0
H288 H 0.62553 0.81585 0.83642 0.0
H289 H 0.62748 0.76679 0.84375 0.0
H290 H 0.57013 0.81912 0.81622 0.0
H291 H 0.71284 0.86296 0.8071 0.0
H292 H 0.76752 0.86118 0.79184 0.0
H293 H 0.72505 0.86257 0.72996 0.0
H294 H 0.66974 0.86388 0.74483 0.0
H295 H 0.6473 0.99966 0.82392 0.0
H296 H 0.6383 0.94364 0.82521 0.0
H297 H 0.6253 0.92653 0.7572 0.0
H298 H 0.6349 0.98328 0.75598 0.0
H299 H 0.67756 0.91402 0.77413 0.0
H300 H 0.53895 0.87645 0.78446 0.0
H301 H 0.48564 0.87934 0.8005 0.0
H302 H 0.5216 0.86717 0.8609 0.0
H303 H 0.57554 0.86471 0.84529 0.0
C304 C 0.62139 0.75525 0.79004 0.0
C305 C 0.62424 0.74892 0.81092 0.0
C306 C 0.62002 0.7832 0.78587 0.0
C307 C 0.62212 0.80573 0.80249 0.0
C308 C 0.62384 0.79884 0.82332 0.0
C309 C 0.62485 0.77072 0.8275 0.0
C310 C 0.62334 0.83693 0.79833 0.0
C311 C 0.59384 0.84001 0.80716 0.0
C312 C 0.65351 0.86371 0.78599 0.0
C313 C 0.68687 0.86311 0.77705 0.0
C314 C 0.71497 0.86262 0.79022 0.0
C315 C 0.7461 0.86173 0.78165 0.0
C316 C 0.74968 0.86165 0.75994 0.0
C317 C 0.7222 0.86257 0.74676 0.0
C318 C 0.69097 0.8634 0.75526 0.0
C319 C 0.64242 0.98382 0.80927 0.0
C320 C 0.64161 0.99536 0.78987 0.0
C321 C 0.63707 0.95178 0.81 0.0
C322 C 0.63045 0.93055 0.7913 0.0
C323 C 0.63013 0.94239 0.77181 0.0
C324 C 0.63552 0.97462 0.7711 0.0
C325 C 0.62487 0.89653 0.79237 0.0
C326 C 0.65352 0.8929 0.78297 0.0
C327 C 0.59406 0.86932 0.80428 0.0
C328 C 0.56151 0.87065 0.81372 0.0
C329 C 0.5357 0.87465 0.8012 0.0
C330 C 0.50533 0.87616 0.81021 0.0
C331 C 0.50029 0.8735 0.83171 0.0
C332 C 0.52555 0.86924 0.84425 0.0
C333 C 0.55599 0.86773 0.83532 0.0
H334 H 0.47676 0.87469 0.83866 0.0
H335 H 0.7738 0.86097 0.75333 0.0
H336 H 0.86306 0.4463 0.18245 0.0
H337 H 0.7885 0.40427 0.17027 0.0
H338 H 0.75907 0.44422 0.22406 0.0
H339 H 0.83465 0.48703 0.23618 0.0
H340 H 0.70979 0.35269 0.1792 0.0
H341 H 0.69851 0.46441 0.20592 0.0
H342 H 0.74495 0.52956 0.21866 0.0
H343 H 0.8428 0.54567 0.18223 0.0
H344 H 0.79675 0.48075 0.16915 0.0
H345 H 0.52086 0.30917 0.12303 0.0
H346 H 0.57374 0.32119 0.14988 0.0
H347 H 0.67119 0.41481 0.12112 0.0
H348 H 0.61883 0.40471 0.0954 0.0
H349 H 0.67487 0.43257 0.16103 0.0
H350 H 0.65971 0.33502 0.11849 0.0
H351 H 0.62118 0.27278 0.10124 0.0
H352 H 0.58668 0.23212 0.16128 0.0
H353 H 0.62455 0.29414 0.17885 0.0
C354 C 0.84053 0.44489 0.19222 0.0
C355 C 0.8544 0.46982 0.21017 0.0
C356 C 0.79781 0.42083 0.18525 0.0
C357 C 0.7683 0.42156 0.19605 0.0
C358 C 0.7815 0.44356 0.21538 0.0
C359 C 0.82452 0.46802 0.22226 0.0
C360 C 0.72716 0.40604 0.18452 0.0
C361 C 0.70149 0.36984 0.17553 0.0
C362 C 0.71692 0.42866 0.17939 0.0
C363 C 0.74443 0.46779 0.18681 0.0
C364 C 0.7299 0.48194 0.20062 0.0
C365 C 0.75614 0.51879 0.20789 0.0
C366 C 0.79685 0.54171 0.20132 0.0
C367 C 0.81131 0.52788 0.18735 0.0
C368 C 0.78517 0.49109 0.18 0.0
C369 C 0.5536 0.33224 0.12237 0.0
C370 C 0.56535 0.35613 0.10708 0.0
C371 C 0.58382 0.33886 0.13764 0.0
C372 C 0.62633 0.36909 0.13762 0.0
C373 C 0.63845 0.3915 0.12157 0.0
C374 C 0.60838 0.38529 0.10659 0.0
C375 C 0.65827 0.37951 0.15495 0.0
C376 C 0.68203 0.41484 0.16517 0.0
C377 C 0.66747 0.35639 0.16053 0.0
C378 C 0.6444 0.31914 0.14994 0.0
C379 C 0.64351 0.31277 0.12798 0.0
C380 C 0.62189 0.27754 0.11815 0.0
C381 C 0.60134 0.2485 0.13014 0.0
C382 C 0.60249 0.25463 0.152 0.0
C383 C 0.62402 0.28981 0.1619 0.0
H384 H 0.58465 0.22125 0.12251 0.0
H385 H 0.81715 0.5702 0.20701 0.0
H386 H 0.53567 0.94734 0.50124 0.0
H387 H 0.47328 0.88415 0.49912 0.0
H388 H 0.4121 0.90154 0.45124 0.0
H389 H 0.47405 0.96513 0.45367 0.0
H390 H 0.35816 0.8616 0.47911 0.0
H391 H 0.45691 0.85772 0.43858 0.0
H392 H 0.52623 0.87166 0.43406 0.0
H393 H 0.51257 0.81549 0.48691 0.0
H394 H 0.44314 0.80137 0.49178 0.0
H395 H 0.19711 0.68569 0.4321 0.0
H396 H 0.25943 0.74836 0.44057 0.0
H397 H 0.30914 0.71674 0.48571 0.0
H398 H 0.24745 0.65338 0.47652 0.0
H399 H 0.3698 0.76344 0.46317 0.0
H400 H 0.26794 0.76098 0.50143 0.0
H401 H 0.19965 0.74814 0.50735 0.0
H402 H 0.21992 0.81759 0.46122 0.0
H403 H 0.28809 0.83046 0.4548 0.0
C404 C 0.50897 0.93778 0.49023 0.0
C405 C 0.50996 0.96132 0.47755 0.0
C406 C 0.47333 0.90152 0.48898 0.0
C407 C 0.43814 0.88786 0.47479 0.0
C408 C 0.43886 0.91141 0.46229 0.0
C409 C 0.47437 0.94777 0.46366 0.0
C410 C 0.40055 0.84905 0.47289 0.0
C411 C 0.36062 0.84014 0.47538 0.0
C412 C 0.40388 0.82095 0.46884 0.0
C413 C 0.44497 0.82856 0.46557 0.0
C414 C 0.46872 0.84836 0.44923 0.0
C415 C 0.50799 0.85629 0.44661 0.0
C416 C 0.52376 0.84443 0.46019 0.0
C417 C 0.50022 0.82453 0.47638 0.0
C418 C 0.46087 0.81647 0.47904 0.0
C419 C 0.22133 0.69192 0.44377 0.0
C420 C 0.21724 0.66434 0.45354 0.0
C421 C 0.25682 0.72794 0.4488 0.0
C422 C 0.28887 0.73748 0.464 0.0
C423 C 0.28479 0.71011 0.47398 0.0
C424 C 0.24928 0.67392 0.46886 0.0
C425 C 0.32708 0.77592 0.46885 0.0
C426 C 0.36721 0.78481 0.46701 0.0
C427 C 0.32395 0.80403 0.47366 0.0
C428 C 0.28301 0.79647 0.47752 0.0
C429 C 0.25771 0.77332 0.49243 0.0
C430 C 0.21904 0.76607 0.4959 0.0
C431 C 0.20542 0.78198 0.48464 0.0
C432 C 0.2305 0.80526 0.46992 0.0
C433 C 0.26919 0.81258 0.46638 0.0
H434 H 0.17547 0.77633 0.48734 0.0
H435 H 0.55419 0.85065 0.45815 0.0
H436 H 0.52994 0.3269 0.81085 0.0
H437 H 0.54449 0.28447 0.80104 0.0
H438 H 0.61412 0.31398 0.86148 0.0
H439 H 0.59907 0.35633 0.87154 0.0
H440 H 0.65471 0.31162 0.82341 0.0
H441 H 0.52604 0.23971 0.85749 0.0
H442 H 0.45298 0.21502 0.86395 0.0
H443 H 0.41083 0.16553 0.79986 0.0
H444 H 0.4838 0.19042 0.79292 0.0
H445 H 0.67177 0.16993 0.80844 0.0
H446 H 0.66052 0.21251 0.8232 0.0
H447 H 0.56075 0.17112 0.77414 0.0
H448 H 0.57003 0.12702 0.76005 0.0
H449 H 0.53692 0.18021 0.80963 0.0
H450 H 0.66276 0.25325 0.77402 0.0
H451 H 0.73529 0.27947 0.76542 0.0
H452 H 0.78251 0.32828 0.82939 0.0
H453 H 0.71013 0.30192 0.83845 0.0
C454 C 0.54842 0.32439 0.82203 0.0
C455 C 0.56332 0.34476 0.84196 0.0
C456 C 0.55659 0.30012 0.81644 0.0
C457 C 0.58019 0.29606 0.83058 0.0
C458 C 0.59573 0.31673 0.8504 0.0
C459 C 0.58693 0.34065 0.85616 0.0
C460 C 0.58805 0.26981 0.8245 0.0
C461 C 0.6292 0.28279 0.82076 0.0
C462 C 0.55443 0.23242 0.82048 0.0
C463 C 0.51047 0.21722 0.82464 0.0
C464 C 0.50126 0.22384 0.84472 0.0
C465 C 0.45985 0.20975 0.84848 0.0
C466 C 0.4273 0.18879 0.83232 0.0
C467 C 0.43609 0.1818 0.81237 0.0
C468 C 0.47746 0.19587 0.80852 0.0
C469 C 0.64706 0.16954 0.80091 0.0
C470 C 0.62187 0.14498 0.78299 0.0
C471 C 0.64105 0.19428 0.80923 0.0
C472 C 0.61018 0.19545 0.79963 0.0
C473 C 0.58487 0.17088 0.78181 0.0
C474 C 0.59056 0.1459 0.77362 0.0
C475 C 0.60372 0.22187 0.80822 0.0
C476 C 0.5627 0.20895 0.81243 0.0
C477 C 0.63742 0.25939 0.81237 0.0
C478 C 0.68096 0.27524 0.80697 0.0
C479 C 0.68856 0.26931 0.7863 0.0
C480 C 0.72965 0.28425 0.78133 0.0
C481 C 0.76347 0.30543 0.79687 0.0
C482 C 0.75627 0.31181 0.81739 0.0
C483 C 0.71522 0.29689 0.82244 0.0
H484 H 0.79526 0.31698 0.79299 0.0
H485 H 0.39526 0.1779 0.83526 0.0
H486 H 0.60857 0.86797 0.48906 0.0
H487 H 0.5899 0.81049 0.49764 0.0
H488 H 0.60169 0.84462 0.56384 0.0
H489 H 0.62044 0.90234 0.55529 0.0
H490 H 0.64785 0.82085 0.55494 0.0
H491 H 0.50539 0.77616 0.54113 0.0
H492 H 0.44399 0.76515 0.52179 0.0
H493 H 0.45482 0.70951 0.4692 0.0
H494 H 0.5164 0.72027 0.48821 0.0
H495 H 0.59532 0.65187 0.57675 0.0
H496 H 0.59203 0.7023 0.5764 0.0
H497 H 0.57442 0.68464 0.50839 0.0
H498 H 0.57694 0.63414 0.50886 0.0
H499 H 0.52415 0.69871 0.52351 0.0
H500 H 0.67182 0.75073 0.5352 0.0
H501 H 0.73352 0.76158 0.5541 0.0
H502 H 0.71392 0.80473 0.60998 0.0
H503 H 0.65174 0.7937 0.59146 0.0
C504 C 0.6067 0.86304 0.50542 0.0
C505 C 0.61611 0.88965 0.52151 0.0
C506 C 0.59572 0.83009 0.5103 0.0
C507 C 0.59419 0.8232 0.53138 0.0
C508 C 0.60251 0.84935 0.54747 0.0
C509 C 0.61302 0.8822 0.54257 0.0
C510 C 0.58774 0.7901 0.53651 0.0
C511 C 0.62031 0.79404 0.5485 0.0
C512 C 0.55225 0.75525 0.52773 0.0
C513 C 0.51565 0.74919 0.51607 0.0
C514 C 0.49486 0.76179 0.52539 0.0
C515 C 0.4599 0.75544 0.51452 0.0
C516 C 0.44547 0.73659 0.49429 0.0
C517 C 0.46597 0.72404 0.48489 0.0
C518 C 0.50082 0.73015 0.49573 0.0
C519 C 0.59039 0.65877 0.56182 0.0
C520 C 0.58646 0.63956 0.54282 0.0
C521 C 0.58864 0.68752 0.5616 0.0
C522 C 0.58333 0.69747 0.54233 0.0
C523 C 0.57838 0.67744 0.52342 0.0
C524 C 0.58 0.64876 0.52368 0.0
C525 C 0.58469 0.72956 0.54155 0.0
C526 C 0.55126 0.72545 0.53032 0.0
C527 C 0.61951 0.76433 0.55091 0.0
C528 C 0.65685 0.77097 0.56204 0.0
C529 C 0.68048 0.76226 0.55157 0.0
C530 C 0.71556 0.76849 0.5622 0.0
C531 C 0.72754 0.78371 0.58325 0.0
C532 C 0.70454 0.79285 0.59369 0.0
C533 C 0.66939 0.78663 0.58314 0.0
H534 H 0.75472 0.78853 0.59145 0.0
H535 H 0.41847 0.7318 0.48589 0.0
H536 H 0.66514 0.49911 0.86661 0.0
H537 H 0.72619 0.49935 0.86884 0.0
H538 H 0.79289 0.58878 0.83178 0.0
H539 H 0.73267 0.58978 0.83055 0.0
H540 H 0.8479 0.60181 0.85703 0.0
H541 H 0.76237 0.45077 0.8681 0.0
H542 H 0.69418 0.39107 0.85688 0.0
H543 H 0.67751 0.43227 0.80344 0.0
H544 H 0.74581 0.49201 0.81413 0.0
H545 H 1.00363 0.58955 0.89464 0.0
H546 H 0.94193 0.58641 0.88793 0.0
H547 H 0.90126 0.50917 0.83335 0.0
H548 H 0.9623 0.51002 0.84116 0.0
H549 H 0.83357 0.48931 0.84951 0.0
H550 H 0.94636 0.60495 0.83216 0.0
H551 H 1.01579 0.66534 0.83651 0.0
H552 H 0.979 0.69585 0.89107 0.0
H553 H 0.90952 0.63548 0.8872 0.0
C554 C 0.69275 0.51888 0.8589 0.0
C555 C 0.69337 0.54442 0.84838 0.0
C556 C 0.72793 0.5188 0.86001 0.0
C557 C 0.76495 0.54364 0.85018 0.0
C558 C 0.76544 0.56916 0.83965 0.0
C559 C 0.73056 0.56966 0.83886 0.0
C560 C 0.80328 0.54383 0.85134 0.0
C561 C 0.84432 0.577 0.85535 0.0
C562 C 0.80013 0.51192 0.84862 0.0
C563 C 0.75908 0.47598 0.84205 0.0
C564 C 0.74423 0.44706 0.85391 0.0
C565 C 0.70554 0.41322 0.84765 0.0
C566 C 0.68153 0.40793 0.82948 0.0
C567 C 0.69611 0.43644 0.81754 0.0
C568 C 0.73479 0.4703 0.8237 0.0
C569 C 0.98164 0.57143 0.88124 0.0
C570 C 0.98855 0.5496 0.86872 0.0
C571 C 0.94614 0.57015 0.87715 0.0
C572 C 0.91621 0.54802 0.85982 0.0
C573 C 0.9233 0.52666 0.84688 0.0
C574 C 0.95882 0.52748 0.85121 0.0
C575 C 0.87789 0.54724 0.8557 0.0
C576 C 0.83695 0.51403 0.85117 0.0
C577 C 0.88116 0.57919 0.8571 0.0
C578 C 0.92285 0.61558 0.85948 0.0
C579 C 0.95317 0.62447 0.84516 0.0
C580 C 0.99252 0.65871 0.84753 0.0
C581 C 1.00183 0.68439 0.86408 0.0
C582 C 0.97176 0.67592 0.87827 0.0
C583 C 0.93236 0.64171 0.87598 0.0
H584 H 1.03233 0.71088 0.8659 0.0
H585 H 0.65172 0.38172 0.82459 0.0
H586 H 0.17747 0.69125 0.18415 0.0
H587 H 0.24172 0.75297 0.18481 0.0
H588 H 0.29802 0.71561 0.14664 0.0
H589 H 0.23353 0.65317 0.14606 0.0
H590 H 0.35334 0.76599 0.17906 0.0
H591 H 0.26367 0.75684 0.12461 0.0
H592 H 0.19783 0.74159 0.10793 0.0
H593 H 0.20477 0.81657 0.15421 0.0
H594 H 0.27033 0.83188 0.17138 0.0
H595 H 0.52507 0.95036 0.16762 0.0
H596 H 0.46399 0.88678 0.15798 0.0
H597 H 0.3885 0.90148 0.19729 0.0
H598 H 0.44918 0.96492 0.20683 0.0
H599 H 0.34555 0.86141 0.15891 0.0
H600 H 0.43048 0.86453 0.21535 0.0
H601 H 0.49597 0.87926 0.23217 0.0
H602 H 0.49786 0.81523 0.18128 0.0
H603 H 0.43264 0.80054 0.164 0.0
C604 C 0.20338 0.69594 0.17585 0.0
C605 C 0.20015 0.66712 0.16497 0.0
C606 C 0.24011 0.73139 0.17617 0.0
C607 C 0.27446 0.73902 0.16549 0.0
C608 C 0.27179 0.71035 0.15489 0.0
C609 C 0.23488 0.6747 0.15456 0.0
C610 C 0.31312 0.77703 0.16581 0.0
C611 C 0.35183 0.78674 0.17422 0.0
C612 C 0.31108 0.80421 0.15974 0.0
C613 C 0.27181 0.79533 0.14937 0.0
C614 C 0.25102 0.76991 0.13133 0.0
C615 C 0.21375 0.76127 0.12177 0.0
C616 C 0.19709 0.77806 0.13002 0.0
C617 C 0.21771 0.80358 0.14783 0.0
C618 C 0.25496 0.81229 0.15747 0.0
C619 C 0.49526 0.9401 0.17396 0.0
C620 C 0.49192 0.96253 0.18807 0.0
C621 C 0.46051 0.90376 0.16855 0.0
C622 C 0.42181 0.88934 0.17706 0.0
C623 C 0.41807 0.91203 0.19057 0.0
C624 C 0.45281 0.94818 0.19611 0.0
C625 C 0.38543 0.85038 0.17259 0.0
C626 C 0.34716 0.84053 0.1634 0.0
C627 C 0.38793 0.8231 0.17786 0.0
C628 C 0.42701 0.83181 0.18826 0.0
C629 C 0.44507 0.85385 0.20766 0.0
C630 C 0.4821 0.86215 0.21729 0.0
C631 C 0.50114 0.84829 0.20776 0.0
C632 C 0.48312 0.82601 0.18861 0.0
C633 C 0.44613 0.81769 0.1789 0.0
H634 H 0.5298 0.85473 0.21525 0.0
H635 H 0.16823 0.77133 0.1226 0.0
H636 H 0.62907 0.26219 0.51331 0.0
H637 H 0.63194 0.31402 0.52575 0.0
H638 H 0.52596 0.27526 0.48155 0.0
H639 H 0.52186 0.22266 0.46942 0.0
H640 H 0.59262 0.34986 0.48273 0.0
H641 H 0.50859 0.26227 0.53077 0.0
H642 H 0.49391 0.21952 0.55587 0.0
H643 H 0.60231 0.30559 0.59668 0.0
H644 H 0.61801 0.34879 0.57165 0.0
H645 H 0.54003 0.46018 0.52445 0.0
H646 H 0.53885 0.40949 0.51116 0.0
H647 H 0.63 0.43807 0.56226 0.0
H648 H 0.63044 0.48828 0.57586 0.0
H649 H 0.57173 0.36862 0.55735 0.0
H650 H 0.65699 0.45654 0.51052 0.0
H651 H 0.67489 0.50033 0.48555 0.0
H652 H 0.56917 0.41598 0.44275 0.0
H653 H 0.55028 0.37175 0.46761 0.0
C654 C 0.60607 0.26442 0.50634 0.0
C655 C 0.57502 0.23801 0.49044 0.0
C656 C 0.60794 0.2942 0.5134 0.0
C657 C 0.57895 0.29828 0.50467 0.0
C658 C 0.54866 0.27259 0.48845 0.0
C659 C 0.54653 0.24263 0.48147 0.0
C660 C 0.57977 0.32903 0.51276 0.0
C661 C 0.58755 0.35381 0.49897 0.0
C662 C 0.5743 0.33458 0.53409 0.0
C663 C 0.56471 0.30869 0.54923 0.0
C664 C 0.5295 0.27203 0.54501 0.0
C665 C 0.52096 0.24773 0.55924 0.0
C666 C 0.54723 0.25981 0.57783 0.0
C667 C 0.58203 0.29626 0.58226 0.0
C668 C 0.59074 0.32067 0.56806 0.0
C669 C 0.55999 0.45575 0.53275 0.0
C670 C 0.58545 0.47824 0.55113 0.0
C671 C 0.55939 0.42683 0.52512 0.0
C672 C 0.58486 0.42025 0.5355 0.0
C673 C 0.61009 0.44258 0.55396 0.0
C674 C 0.61031 0.47124 0.56173 0.0
C675 C 0.58466 0.38974 0.52734 0.0
C676 C 0.57693 0.36489 0.54111 0.0
C677 C 0.59067 0.38437 0.50603 0.0
C678 C 0.60198 0.4109 0.49103 0.0
C679 C 0.63737 0.44738 0.49586 0.0
C680 C 0.64772 0.47227 0.48171 0.0
C681 C 0.62312 0.46097 0.4626 0.0
C682 C 0.58817 0.42471 0.45757 0.0
C683 C 0.57764 0.39971 0.47168 0.0
H684 H 0.6312 0.48028 0.45167 0.0
H685 H 0.54058 0.24095 0.58882 0.0
H686 H 0.43019 0.49049 0.86212 0.0
H687 H 0.37018 0.49145 0.86439 0.0
H688 H 0.44178 0.59447 0.84009 0.0
H689 H 0.50236 0.59388 0.83811 0.0
H690 H 0.39927 0.59645 0.87001 0.0
H691 H 0.35707 0.5103 0.80999 0.0
H692 H 0.34278 0.4562 0.79039 0.0
H693 H 0.2501 0.38932 0.83253 0.0
H694 H 0.26425 0.4431 0.85256 0.0
H695 H 0.22298 0.59659 0.84813 0.0
H696 H 0.28419 0.59684 0.84674 0.0
H697 H 0.21204 0.49263 0.86969 0.0
H698 H 0.1505 0.49225 0.87065 0.0
H699 H 0.25508 0.49141 0.84048 0.0
H700 H 0.29719 0.57737 0.90055 0.0
H701 H 0.31185 0.63143 0.92043 0.0
H702 H 0.40482 0.69859 0.87848 0.0
H703 H 0.39032 0.64485 0.85818 0.0
C704 C 0.4334 0.51342 0.85716 0.0
C705 C 0.47172 0.54201 0.8498 0.0
C706 C 0.39857 0.51385 0.85837 0.0
C707 C 0.40031 0.54278 0.85213 0.0
C708 C 0.43879 0.5716 0.84501 0.0
C709 C 0.4737 0.57118 0.84379 0.0
C710 C 0.36247 0.54307 0.85319 0.0
C711 C 0.36794 0.57357 0.86323 0.0
C712 C 0.32071 0.51316 0.84494 0.0
C713 C 0.31202 0.48077 0.8329 0.0
C714 C 0.33386 0.48409 0.81517 0.0
C715 C 0.32575 0.45348 0.80396 0.0
C716 C 0.29563 0.41936 0.81024 0.0
C717 C 0.27347 0.41577 0.8277 0.0
C718 C 0.28149 0.4463 0.83898 0.0
C719 C 0.22029 0.57391 0.85315 0.0
C720 C 0.18175 0.54464 0.8598 0.0
C721 C 0.25561 0.57406 0.85241 0.0
C722 C 0.25388 0.54498 0.85839 0.0
C723 C 0.21507 0.51562 0.86499 0.0
C724 C 0.17971 0.51549 0.8657 0.0
C725 C 0.29183 0.54479 0.85733 0.0
C726 C 0.28639 0.51431 0.84727 0.0
C727 C 0.33361 0.57471 0.86558 0.0
C728 C 0.34234 0.60705 0.87772 0.0
C729 C 0.32052 0.60364 0.89547 0.0
C730 C 0.32884 0.63423 0.90683 0.0
C731 C 0.35916 0.66842 0.90069 0.0
C732 C 0.38129 0.67209 0.8832 0.0
C733 C 0.37306 0.64158 0.87177 0.0
H734 H 0.36557 0.69207 0.90951 0.0
H735 H 0.2894 0.39569 0.80155 0.0
H736 H 0.93082 0.46247 0.16823 0.0
H737 H 0.86809 0.40037 0.171 0.0
H738 H 0.9416 0.36297 0.15991 0.0
H739 H 1.00325 0.4244 0.15558 0.0
H740 H 0.87099 0.31784 0.1399 0.0
H741 H 0.90945 0.37768 0.2116 0.0
H742 H 0.92225 0.42175 0.24075 0.0
H743 H 0.79608 0.38691 0.22842 0.0
H744 H 0.78285 0.34336 0.1989 0.0
H745 H 0.73351 0.14598 0.17548 0.0
H746 H 0.79363 0.20944 0.17347 0.0
H747 H 0.70969 0.23762 0.17585 0.0
H748 H 0.64967 0.17411 0.17812 0.0
H749 H 0.78247 0.2871 0.19991 0.0
H750 H 0.74316 0.22866 0.12929 0.0
H751 H 0.72657 0.18234 0.10074 0.0
H752 H 0.85149 0.21361 0.11125 0.0
H753 H 0.86864 0.25981 0.14007 0.0
C754 C 0.93339 0.44087 0.16631 0.0
C755 C 0.97182 0.44818 0.16166 0.0
C756 C 0.89768 0.40548 0.16816 0.0
C757 C 0.90012 0.3769 0.16628 0.0
C758 C 0.93863 0.38435 0.1615 0.0
C759 C 0.97393 0.41951 0.159 0.0
C760 C 0.86255 0.33911 0.16868 0.0
C761 C 0.8522 0.31125 0.15326 0.0
C762 C 0.83657 0.3302 0.18562 0.0
C763 C 0.84531 0.35746 0.2029 0.0
C764 C 0.8846 0.3797 0.21496 0.0
C765 C 0.89187 0.40451 0.23159 0.0
C766 C 0.85997 0.40711 0.2364 0.0
C767 C 0.82074 0.38487 0.22466 0.0
C768 C 0.81339 0.36021 0.20795 0.0
C769 C 0.72819 0.16592 0.17586 0.0
C770 C 0.68737 0.15557 0.17705 0.0
C771 C 0.76237 0.20204 0.17455 0.0
C772 C 0.75611 0.22825 0.17419 0.0
C773 C 0.7153 0.21791 0.17606 0.0
C774 C 0.68111 0.18174 0.17738 0.0
C775 C 0.79195 0.26626 0.17148 0.0
C776 C 0.80164 0.29398 0.18668 0.0
C777 C 0.81721 0.27513 0.15434 0.0
C778 C 0.80704 0.24745 0.13697 0.0
C779 C 0.76699 0.22547 0.12562 0.0
C780 C 0.7575 0.19927 0.10937 0.0
C781 C 0.78792 0.19497 0.10422 0.0
C782 C 0.82794 0.21693 0.11528 0.0
C783 C 0.83757 0.24315 0.13156 0.0
H784 H 0.78052 0.17467 0.09163 0.0
H785 H 0.86555 0.42639 0.24916 0.0
H786 H 0.05973 0.51966 0.10375 0.0
H787 H 0.06673 0.51876 0.06574 0.0
H788 H 0.08222 0.61773 0.06642 0.0
H789 H 0.07638 0.61929 0.10458 0.0
H790 H 1.02261 0.56308 0.03427 0.0
H791 H 0.16488 0.62253 0.06206 0.0
H792 H 0.22266 0.63078 0.0834 0.0
H793 H 0.19393 0.53462 0.04994 0.0
H794 H 0.13535 0.52538 0.02863 0.0
H795 H 0.08136 0.60583 0.93285 0.0
H796 H 0.08672 0.61028 0.97131 0.0
H797 H 0.08181 0.51608 0.96817 0.0
H798 H 0.07716 0.51194 0.92943 0.0
H799 H 0.13609 0.56672 0.00166 0.0
H800 H 0.99327 0.50718 0.97398 0.0
H801 H 0.93708 0.50041 0.952 0.0
H802 H 0.9671 0.59707 0.98548 0.0
H803 H 1.02398 0.60476 0.00744 0.0
C804 C 0.06499 0.54139 0.09583 0.0
C805 C 0.06784 0.56971 0.10714 0.0
C806 C 0.06899 0.54084 0.07412 0.0
C807 C 0.07529 0.56831 0.06329 0.0
C808 C 0.07748 0.59632 0.0745 0.0
C809 C 0.07414 0.59718 0.09627 0.0
C810 C 0.07854 0.56733 0.04016 0.0
C811 C 1.04771 0.56433 0.02717 0.0
C812 C 0.11068 0.56798 0.03088 0.0
C813 C 0.14541 0.57306 0.04388 0.0
C814 C 0.17051 0.60288 0.05941 0.0
C815 C 0.20349 0.6078 0.07146 0.0
C816 C 0.212 0.58328 0.06799 0.0
C817 C 0.18734 0.55363 0.05256 0.0
C818 C 0.15422 0.54853 0.0405 0.0
C819 C 0.08204 0.58637 0.94037 0.0
C820 C 0.07833 0.55828 0.92819 0.0
C821 C 0.08501 0.58888 0.96234 0.0
C822 C 0.08368 0.56303 0.97263 0.0
C823 C 0.08265 0.53621 0.96056 0.0
C824 C 0.08004 0.53387 0.93847 0.0
C825 C 0.08032 0.56277 0.99579 0.0
C826 C 0.11094 0.56537 0.00878 0.0
C827 C 1.04788 0.56164 0.00514 0.0
C828 C 1.01312 0.5567 0.99224 0.0
C829 C 0.98805 0.52711 0.97658 0.0
C830 C 0.95607 0.5231 0.96413 0.0
C831 C 0.94858 0.54833 0.96731 0.0
C832 C 0.97297 0.57756 0.98302 0.0
C833 C 1.00506 0.58174 0.99548 0.0
H834 H 0.92383 0.5452 0.95765 0.0
H835 H 0.23778 0.58732 0.07722 0.0
H836 H 0.56958 0.05073 0.42557 0.0
H837 H 0.55955 0.05393 0.38813 0.0
H838 H 0.68858 0.09653 0.3807 0.0
H839 H 0.69899 0.09413 0.41823 0.0
H840 H 0.66784 0.1307 0.35873 0.0
H841 H 0.60635 0.00713 0.36653 0.0
H842 H 0.55943 0.9494 0.3815 0.0
H843 H 0.45095 0.93984 0.35928 0.0
H844 H 0.49729 0.99779 0.34442 0.0
H845 H 0.65005 0.08329 0.24741 0.0
H846 H 0.66266 0.09366 0.28592 0.0
H847 H 0.53257 0.04972 0.29102 0.0
H848 H 0.51983 0.03915 0.25261 0.0
H849 H 0.55291 0.01789 0.31449 0.0
H850 H 0.6145 0.14007 0.30472 0.0
H851 H 0.66171 0.19773 0.28975 0.0
H852 H 0.77012 0.20994 0.31529 0.0
H853 H 0.72354 0.15206 0.33016 0.0
C854 C 0.59583 0.06093 0.41595 0.0
C855 C 0.63493 0.07185 0.42471 0.0
C856 C 0.59006 0.06269 0.39457 0.0
C857 C 0.62315 0.07498 0.38152 0.0
C858 C 0.6626 0.08691 0.39043 0.0
C859 C 0.66845 0.08535 0.41184 0.0
C860 C 0.61622 0.0741 0.35846 0.0
C861 C 0.64298 0.10598 0.349 0.0
C862 C 0.58325 0.042 0.34582 0.0
C863 C 0.55531 0.00697 0.35456 0.0
C864 C 0.5725 0.99283 0.36496 0.0
C865 C 0.54602 0.96006 0.37341 0.0
C866 C 0.50225 0.94102 0.3714 0.0
C867 C 0.48486 0.95465 0.36086 0.0
C868 C 0.51122 0.98744 0.35241 0.0
C869 C 0.62446 0.07668 0.25676 0.0
C870 C 0.58389 0.06018 0.24702 0.0
C871 C 0.63166 0.08257 0.27877 0.0
C872 C 0.59853 0.07244 0.2914 0.0
C873 C 0.55854 0.05754 0.28163 0.0
C874 C 0.55131 0.05153 0.25969 0.0
C875 C 0.60447 0.07453 0.31468 0.0
C876 C 0.5776 0.04275 0.32419 0.0
C877 C 0.63738 0.10669 0.32729 0.0
C878 C 0.66549 0.14154 0.31839 0.0
C879 C 0.6484 0.15489 0.30699 0.0
C880 C 0.67505 0.18765 0.29856 0.0
C881 C 0.71888 0.20744 0.30152 0.0
C882 C 0.73616 0.19456 0.31298 0.0
C883 C 0.70964 0.16179 0.32144 0.0
H884 H 0.73947 0.23281 0.29498 0.0
H885 H 0.4818 0.91566 0.37796 0.0
H886 H 0.63177 0.57046 0.79216 0.0
H887 H 0.63904 0.58188 0.75504 0.0
H888 H 0.50798 0.49059 0.73939 0.0
H889 H 0.50004 0.47996 0.77645 0.0
H890 H 0.57092 0.49409 0.71385 0.0
H891 H 0.52633 0.5644 0.74016 0.0
H892 H 0.53293 0.61114 0.76452 0.0
H893 H 0.65631 0.69161 0.7453 0.0
H894 H 0.65068 0.64516 0.72099 0.0
H895 H 0.51907 0.49628 0.61094 0.0
H896 H 0.51816 0.49901 0.64927 0.0
H897 H 0.64022 0.60421 0.65599 0.0
H898 H 0.64048 0.60191 0.61737 0.0
H899 H 0.59078 0.59899 0.68688 0.0
H900 H 0.63523 0.53173 0.65894 0.0
H901 H 0.63144 0.48618 0.63485 0.0
H902 H 0.51454 0.40178 0.65809 0.0
H903 H 0.51717 0.4469 0.68204 0.0
C904 C 0.60439 0.55325 0.78085 0.0
C905 C 0.5652 0.52463 0.7872 0.0
C906 C 0.60864 0.55968 0.75968 0.0
C907 C 0.57397 0.53713 0.74458 0.0
C908 C 0.53504 0.50829 0.75086 0.0
C909 C 0.53057 0.50228 0.77202 0.0
C910 C 0.57818 0.54282 0.72206 0.0
C911 C 0.57494 0.51684 0.7079 0.0
C912 C 0.58496 0.57324 0.71453 0.0
C913 C 0.58826 0.60125 0.72893 0.0
C914 C 0.55502 0.592 0.74126 0.0
C915 C 0.55855 0.61844 0.75502 0.0
C916 C 0.59503 0.6543 0.75646 0.0
C917 C 0.62808 0.6638 0.74415 0.0
C918 C 0.62472 0.63744 0.73036 0.0
C919 C 0.54521 0.52032 0.62062 0.0
C920 C 0.57997 0.54877 0.61134 0.0
C921 C 0.54479 0.52183 0.64248 0.0
C922 C 0.57961 0.55143 0.6555 0.0
C923 C 0.61314 0.58104 0.64624 0.0
C924 C 0.61328 0.57974 0.62424 0.0
C925 C 0.58222 0.54959 0.67851 0.0
C926 C 0.58708 0.57636 0.6928 0.0
C927 C 0.57758 0.52011 0.68628 0.0
C928 C 0.57624 0.49276 0.67218 0.0
C929 C 0.60857 0.50348 0.65883 0.0
C930 C 0.60663 0.47773 0.64519 0.0
C931 C 0.57274 0.44111 0.64492 0.0
C932 C 0.54076 0.43016 0.65832 0.0
C933 C 0.54247 0.45581 0.67193 0.0
H934 H 0.57129 0.42122 0.63434 0.0
H935 H 0.59755 0.67471 0.76705 0.0
H936 H 0.54354 0.0518 0.54738 0.0
H937 H 0.55227 0.05101 0.58522 0.0
H938 H 0.68277 0.09612 0.58061 0.0
H939 H 0.67438 0.09756 0.54252 0.0
H940 H 0.63547 0.03669 0.60706 0.0
H941 H 0.66824 0.15136 0.59844 0.0
H942 H 0.65583 0.1917 0.58446 0.0
H943 H 0.54015 0.13952 0.61447 0.0
H944 H 0.55154 0.09847 0.62837 0.0
H945 H 0.68593 0.08609 0.71958 0.0
H946 H 0.68453 0.08193 0.68099 0.0
H947 H 0.56326 0.06022 0.67725 0.0
H948 H 0.56524 0.06536 0.71569 0.0
H949 H 0.61327 0.11119 0.65453 0.0
H950 H 0.57728 0.99491 0.66196 0.0
H951 H 0.58669 0.95237 0.67528 0.0
H952 H 0.70471 0.00475 0.64746 0.0
H953 H 0.69628 0.04795 0.63421 0.0
C954 C 0.57409 0.06145 0.55437 0.0
C955 C 0.60834 0.07486 0.54204 0.0
C956 C 0.57899 0.06092 0.57598 0.0
C957 C 0.6182 0.07365 0.5857 0.0
C958 C 0.65224 0.08608 0.57335 0.0
C959 C 0.64743 0.08694 0.55166 0.0
C960 C 0.62359 0.0755 0.60892 0.0
C961 C 0.63135 0.05339 0.61754 0.0
C962 C 0.61733 0.09675 0.62247 0.0
C963 C 0.61059 0.12164 0.6143 0.0
C964 C 0.63999 0.1483 0.60193 0.0
C965 C 0.63316 0.17132 0.59404 0.0
C966 C 0.59717 0.16813 0.59854 0.0
C967 C 0.56799 0.14195 0.61098 0.0
C968 C 0.57464 0.11882 0.61889 0.0
C969 C 0.65866 0.07974 0.71043 0.0
C970 C 0.62578 0.0762 0.72056 0.0
C971 C 0.65785 0.07734 0.68839 0.0
C972 C 0.62376 0.07075 0.67614 0.0
C973 C 0.59006 0.06562 0.68631 0.0
C974 C 0.59113 0.06844 0.70826 0.0
C975 C 0.62416 0.07165 0.65289 0.0
C976 C 0.61765 0.09452 0.6442 0.0
C977 C 0.63125 0.05086 0.63935 0.0
C978 C 0.63638 0.02493 0.64731 0.0
C979 C 0.60542 0.99756 0.65884 0.0
C980 C 0.61054 0.97329 0.66635 0.0
C981 C 0.64634 0.97593 0.66228 0.0
C982 C 0.67703 0.00279 0.65064 0.0
C983 C 0.67209 0.02716 0.64312 0.0
H984 H 0.65024 0.9571 0.6681 0.0
H985 H 0.59194 0.18598 0.59241 0.0
H986 H 0.66554 0.57947 0.9124 0.0
H987 H 0.65488 0.54746 0.9432 0.0
H988 H 0.51972 0.48363 0.93001 0.0
H989 H 0.53023 0.51584 0.89976 0.0
H990 H 0.53966 0.50336 0.97047 0.0
H991 H 0.57211 0.45008 0.91623 0.0
H992 H 0.6135 0.44803 0.88904 0.0
H993 H 0.7165 0.49034 0.93572 0.0
H994 H 0.676 0.49315 0.96319 0.0
H995 H 0.46464 0.35603 0.02745 0.0
H996 H 0.48412 0.38969 0.99687 0.0
H997 H 0.61454 0.46045 0.02226 0.0
H998 H 0.59533 0.42756 0.05314 0.0
H999 H 0.6009 0.43921 0.97677 0.0
H1000 H 0.56112 0.48935 0.03112 0.0
H1001 H 0.51197 0.48233 0.05664 0.0
H1002 H 0.41409 0.43717 0.00636 0.0
H1003 H 0.46257 0.44365 0.98059 0.0
C1004 C 0.63367 0.55895 0.91633 0.0
C1005 C 0.5987 0.55 0.90374 0.0
C1006 C 0.62758 0.54048 0.93376 0.0
C1007 C 0.58646 0.51282 0.93874 0.0
C1008 C 0.55169 0.50481 0.9265 0.0
C1009 C 0.55775 0.52322 0.9092 0.0
C1010 C 0.57912 0.49175 0.95653 0.0
C1011 C 0.55295 0.48925 0.97173 0.0
C1012 C 0.59653 0.47337 0.95828 0.0
C1013 C 0.6212 0.47221 0.94174 0.0
C1014 C 0.60375 0.45929 0.92067 0.0
C1015 C 0.62699 0.4579 0.90522 0.0
C1016 C 0.66757 0.46906 0.91065 0.0
C1017 C 0.68506 0.48173 0.93154 0.0
C1018 C 0.66198 0.48322 0.94706 0.0
C1019 C 0.49751 0.37862 0.0265 0.0
C1020 C 0.52834 0.38924 0.04284 0.0
C1021 C 0.50861 0.39766 0.00896 0.0
C1022 C 0.55071 0.42767 0.00744 0.0
C1023 C 0.58192 0.43725 0.02313 0.0
C1024 C 0.57084 0.41832 0.04074 0.0
C1025 C 0.5614 0.45084 0.99045 0.0
C1026 C 0.58813 0.45373 0.9755 0.0
C1027 C 0.54379 0.46897 0.98859 0.0
C1028 C 0.51536 0.46677 0.00397 0.0
C1029 C 0.5291 0.4779 0.02553 0.0
C1030 C 0.50136 0.47401 0.04004 0.0
C1031 C 0.4599 0.45921 0.03313 0.0
C1032 C 0.44621 0.44863 0.01169 0.0
C1033 C 0.47382 0.45248 -0.00288 0.0
H1034 H 0.43837 0.45589 0.04437 0.0
H1035 H 0.68539 0.46773 0.89869 0.0
H1036 H 0.07029 0.48734 0.21733 0.0
H1037 H 0.06583 0.48857 0.25568 0.0
H1038 H 0.13023 0.60317 0.26101 0.0
H1039 H 0.13374 0.60195 0.22265 0.0
H1040 H 0.16237 0.56608 0.28747 0.0
H1041 H 1.05094 0.57646 0.27099 0.0
H1042 H 0.98317 0.55863 0.25519 0.0
H1043 H 0.91719 0.45623 0.27948 0.0
H1044 H 0.98455 0.47332 0.29518 0.0
H1045 H 0.10684 0.60563 0.39304 0.0
H1046 H 0.0947 0.59418 0.35453 0.0
H1047 H 0.11453 0.51411 0.35509 0.0
H1048 H 0.12619 0.52525 0.39379 0.0
H1049 H 1.03825 0.53192 0.32546 0.0
H1050 H 0.1798 0.53211 0.314 0.0
H1051 H 0.24706 0.55444 0.33328 0.0
H1052 H 0.25443 0.64123 0.36638 0.0
H1053 H 0.18765 0.61975 0.34706 0.0
C1054 C 0.08323 0.51271 0.22671 0.0
C1055 C 0.1025 0.54459 0.21713 0.0
C1056 C 0.08045 0.51333 0.24852 0.0
C1057 C 0.09746 0.54591 0.26106 0.0
C1058 C 0.11662 0.57774 0.25151 0.0
C1059 C 0.11866 0.57702 0.22967 0.0
C1060 C 0.0981 0.54726 0.28427 0.0
C1061 C 0.13515 0.55838 0.29578 0.0
C1062 C 0.06268 0.53738 0.29505 0.0
C1063 C 1.02284 0.52591 0.28392 0.0
C1064 C 1.02209 0.54982 0.27252 0.0
C1065 C 0.98369 0.53993 0.26369 0.0
C1066 C 0.94588 0.50619 0.26616 0.0
C1067 C 0.94644 0.48222 0.27738 0.0
C1068 C 0.98471 0.492 0.28626 0.0
C1069 C 0.10772 0.58506 0.38493 0.0
C1070 C 0.11745 0.56631 0.39627 0.0
C1071 C 0.10072 0.5785 0.36299 0.0
C1072 C 0.10409 0.55355 0.35199 0.0
C1073 C 0.11199 0.5336 0.36333 0.0
C1074 C 0.1184 0.5398 0.38537 0.0
C1075 C 0.10242 0.55058 0.32867 0.0
C1076 C 0.06527 0.53912 0.31713 0.0
C1077 C 0.13787 0.56043 0.31786 0.0
C1078 C 0.17849 0.57403 0.32927 0.0
C1079 C 0.19588 0.55602 0.32534 0.0
C1080 C 0.23391 0.56853 0.33628 0.0
C1081 C 0.25492 0.59915 0.3511 0.0
C1082 C 0.23805 0.61744 0.35495 0.0
C1083 C 0.20009 0.60508 0.34403 0.0
H1084 H 0.28432 0.60876 0.35957 0.0
H1085 H 0.91614 0.49872 0.25951 0.0
loop_
_geom_bond_atom_site_label_1
_geom_bond_atom_site_label_2
_geom_bond_distance
_geom_bond_site_symmetry_2
_ccdc_geom_bond_type
Ho0 C3 2.811 . S
Ho0 O20 2.322 . S
Ho0 O22 2.378 . S
Ho0 O23 2.524 . S
Ho0 O24 2.381 . S
Ho0 O25 2.669 . S
Ho0 O27 2.346 1_455 S
Ho0 O31 2.305 . S
Ho1 C12 2.811 1_455 S
Ho1 O21 2.346 . S
Ho1 O25 2.305 . S
Ho1 O26 2.322 1_455 S
Ho1 O28 2.378 1_455 S
Ho1 O29 2.524 1_455 S
Ho1 O30 2.381 . S
Ho1 O31 2.669 . S
C2 O20 1.259 . S
C2 O21 1.268 . S
C3 Ho0 2.811 . S
C3 C4 1.488 . S
C3 O22 1.215 . S
C3 O23 1.289 . S
C4 C3 1.488 . S
C4 C5 1.348 . S
C4 C9 1.413 . S
C5 C4 1.348 . S
C5 C6 1.442 . S
C5 H32 0.930 . S
C6 C5 1.442 . S
C6 C7 1.381 . S
C6 H33 0.931 . S
C7 C6 1.381 . S
C7 C8 1.321 . S
C8 C7 1.321 . S
C8 C9 1.403 . S
C8 H34 0.934 . S
C9 C4 1.413 . S
C9 C8 1.403 . S
C9 H35 0.930 . S
C10 O24 1.275 . S
C10 O25 1.256 . S
C11 O26 1.259 . S
C11 O27 1.268 . S
C12 Ho1 2.811 1_655 S
C12 C13 1.488 . S
C12 O28 1.215 . S
C12 O29 1.289 . S
C13 C12 1.488 . S
C13 C14 1.348 . S
C13 C18 1.413 . S
C14 C13 1.348 . S
C14 C15 1.442 . S
C14 H36 0.930 . S
C15 C14 1.442 . S
C15 C16 1.381 . S
C15 H37 0.931 . S
C16 C15 1.381 . S
C16 C17 1.321 . S
C17 C16 1.321 . S
C17 C18 1.403 . S
C17 H38 0.934 . S
C18 C13 1.413 . S
C18 C17 1.403 . S
C18 H39 0.930 . S
C19 O30 1.275 . S
C19 O31 1.256 . S
O20 Ho0 2.322 . S
O20 C2 1.259 . S
O21 Ho1 2.346 . S
O21 C2 1.268 . S
O22 Ho0 2.378 . S
O22 C3 1.215 . S
O23 Ho0 2.524 . S
O23 C3 1.289 . S
O24 Ho0 2.381 . S
O24 C10 1.275 . S
O25 Ho0 2.669 . S
O25 Ho1 2.305 . S
O25 C10 1.256 . S
O26 Ho1 2.322 1_655 S
O26 C11 1.259 . S
O27 Ho0 2.346 1_655 S
O27 C11 1.268 . S
O28 Ho1 2.378 1_655 S
O28 C12 1.215 . S
O29 Ho1 2.524 1_655 S
O29 C12 1.289 . S
O30 Ho1 2.381 . S
O30 C19 1.275 . S
O31 Ho0 2.305 . S
O31 Ho1 2.669 . S
O31 C19 1.256 . S
H32 C5 0.930 . S
H33 C6 0.931 . S
H34 C8 0.934 . S
H35 C9 0.930 . S
H36 C14 0.930 . S
H37 C15 0.931 . S
H38 C17 0.934 . S
H39 C18 0.930 . S
Ho40 C43 2.811 1_545 S
Ho40 O60 2.322 1_545 S
Ho40 O62 2.378 1_545 S
Ho40 O63 2.524 1_545 S
Ho40 O64 2.381 . S
Ho40 O65 2.669 . S
Ho40 O67 2.346 . S
Ho40 O71 2.305 . S
Ho41 C52 2.811 . S
Ho41 O61 2.346 1_545 S
Ho41 O65 2.305 . S
Ho41 O66 2.322 . S
Ho41 O68 2.378 . S
Ho41 O69 2.524 . S
Ho41 O70 2.381 . S
Ho41 O71 2.669 . S
C42 O60 1.259 . S
C42 O61 1.268 . S
C43 Ho40 2.811 1_565 S
C43 C44 1.488 . S
C43 O62 1.215 . S
C43 O63 1.289 . S
C44 C43 1.488 . S
C44 C45 1.348 . S
C44 C49 1.413 . S
C45 C44 1.348 . S
C45 C46 1.442 . S
C45 H72 0.930 . S
C46 C45 1.442 . S
C46 C47 1.381 . S
C46 H73 0.931 . S
C47 C46 1.381 . S
C47 C48 1.321 . S
C48 C47 1.321 . S
C48 C49 1.403 . S
C48 H74 0.934 . S
C49 C44 1.413 . S
C49 C48 1.403 . S
C49 H75 0.930 . S
C50 O64 1.275 . S
C50 O65 1.256 . S
C51 O66 1.259 . S
C51 O67 1.268 . S
C52 Ho41 2.811 . S
C52 C53 1.488 . S
C52 O68 1.215 . S
C52 O69 1.289 . S
C53 C52 1.488 . S
C53 C54 1.348 . S
C53 C58 1.413 . S
C54 C53 1.348 . S
C54 C55 1.442 . S
C54 H76 0.930 . S
C55 C54 1.442 . S
C55 C56 1.381 . S
C55 H77 0.931 . S
C56 C55 1.381 . S
C56 C57 1.321 . S
C57 C56 1.321 . S
C57 C58 1.403 . S
C57 H78 0.934 . S
C58 C53 1.413 . S
C58 C57 1.403 . S
C58 H79 0.930 . S
C59 O70 1.275 . S
C59 O71 1.256 . S
O60 Ho40 2.322 1_565 S
O60 C42 1.259 . S
O61 Ho41 2.346 1_565 S
O61 C42 1.268 . S
O62 Ho40 2.378 1_565 S
O62 C43 1.215 . S
O63 Ho40 2.524 1_565 S
O63 C43 1.289 . S
O64 Ho40 2.381 . S
O64 C50 1.275 . S
O65 Ho40 2.669 . S
O65 Ho41 2.305 . S
O65 C50 1.256 . S
O66 Ho41 2.322 . S
O66 C51 1.259 . S
O67 Ho40 2.346 . S
O67 C51 1.268 . S
O68 Ho41 2.378 . S
O68 C52 1.215 . S
O69 Ho41 2.524 . S
O69 C52 1.289 . S
O70 Ho41 2.381 . S
O70 C59 1.275 . S
O71 Ho40 2.305 . S
O71 Ho41 2.669 . S
O71 C59 1.256 . S
H72 C45 0.930 . S
H73 C46 0.931 . S
H74 C48 0.934 . S
H75 C49 0.930 . S
H76 C54 0.930 . S
H77 C55 0.931 . S
H78 C57 0.934 . S
H79 C58 0.930 . S
Ho80 C83 2.811 . S
Ho80 O100 2.322 . S
Ho80 O102 2.378 . S
Ho80 O103 2.524 . S
Ho80 O104 2.381 . S
Ho80 O105 2.669 . S
Ho80 O107 2.346 . S
Ho80 O111 2.305 . S
Ho81 C92 2.811 . S
Ho81 O101 2.346 . S
Ho81 O105 2.305 . S
Ho81 O106 2.322 . S
Ho81 O108 2.378 . S
Ho81 O109 2.524 . S
Ho81 O110 2.381 . S
Ho81 O111 2.669 . S
C82 O100 1.259 . S
C82 O101 1.268 . S
C83 Ho80 2.811 . S
C83 C84 1.488 . S
C83 O102 1.215 . S
C83 O103 1.289 . S
C84 C83 1.488 . S
C84 C85 1.348 . S
C84 C89 1.413 . S
C85 C84 1.348 . S
C85 C86 1.442 . S
C85 H112 0.930 . S
C86 C85 1.442 . S
C86 C87 1.381 . S
C86 H113 0.931 . S
C87 C86 1.381 . S
C87 C88 1.321 . S
C88 C87 1.321 . S
C88 C89 1.403 . S
C88 H114 0.934 . S
C89 C84 1.413 . S
C89 C88 1.403 . S
C89 H115 0.930 . S
C90 O104 1.275 . S
C90 O105 1.256 . S
C91 O106 1.259 . S
C91 O107 1.268 . S
C92 Ho81 2.811 . S
C92 C93 1.488 . S
C92 O108 1.215 . S
C92 O109 1.289 . S
C93 C92 1.488 . S
C93 C94 1.348 . S
C93 C98 1.413 . S
C94 C93 1.348 . S
C94 C95 1.442 . S
C94 H116 0.930 . S
C95 C94 1.442 . S
C95 C96 1.381 . S
C95 H117 0.931 . S
C96 C95 1.381 . S
C96 C97 1.321 . S
C97 C96 1.321 . S
C97 C98 1.403 . S
C97 H118 0.934 . S
C98 C93 1.413 . S
C98 C97 1.403 . S
C98 H119 0.930 . S
C99 O110 1.275 . S
C99 O111 1.256 . S
O100 Ho80 2.322 . S
O100 C82 1.259 . S
O101 Ho81 2.346 . S
O101 C82 1.268 . S
O102 Ho80 2.378 . S
O102 C83 1.215 . S
O103 Ho80 2.524 . S
O103 C83 1.289 . S
O104 Ho80 2.381 . S
O104 C90 1.275 . S
O105 Ho80 2.669 . S
O105 Ho81 2.305 . S
O105 C90 1.256 . S
O106 Ho81 2.322 . S
O106 C91 1.259 . S
O107 Ho80 2.346 . S
O107 C91 1.268 . S
O108 Ho81 2.378 . S
O108 C92 1.215 . S
O109 Ho81 2.524 . S
O109 C92 1.289 . S
O110 Ho81 2.381 . S
O110 C99 1.275 . S
O111 Ho80 2.305 . S
O111 Ho81 2.669 . S
O111 C99 1.256 . S
H112 C85 0.930 . S
H113 C86 0.931 . S
H114 C88 0.934 . S
H115 C89 0.930 . S
H116 C94 0.930 . S
H117 C95 0.931 . S
H118 C97 0.934 . S
H119 C98 0.930 . S
H120 C123 0.929 1_565 S
H121 C126 0.929 . S
H122 C128 0.930 . S
C123 H120 0.929 1_545 S
C123 C124 1.398 . S
C123 C125 1.396 . S
C124 C123 1.398 . S
C124 C128 1.407 . S
C125 C123 1.396 . S
C125 C126 1.394 . S
C126 H121 0.929 . S
C126 C125 1.394 . S
C126 C127 1.382 . S
C127 C126 1.382 . S
C127 C128 1.392 . S
C127 N129 1.420 . S
C128 H122 0.930 . S
C128 C124 1.407 . S
C128 C127 1.392 . S
N129 C127 1.420 . S
N129 C130 1.244 . S
C130 N129 1.244 . S
H131 C134 0.929 . S
H132 C137 0.929 . S
H133 C139 0.930 . S
C134 H131 0.929 . S
C134 C135 1.398 . S
C134 C136 1.396 . S
C135 C134 1.398 . S
C135 C139 1.407 . S
C136 C134 1.396 . S
C136 C137 1.394 . S
C137 H132 0.929 . S
C137 C136 1.394 . S
C137 C138 1.382 . S
C138 C137 1.382 . S
C138 C139 1.392 . S
C138 N140 1.420 . S
C139 H133 0.930 . S
C139 C135 1.407 . S
C139 C138 1.392 . S
N140 C138 1.420 . S
N140 C141 1.244 . S
C141 N140 1.244 . S
H142 C145 0.929 . S
H143 C148 0.929 . S
H144 C150 0.930 . S
C145 H142 0.929 . S
C145 C146 1.398 . S
C145 C147 1.396 . S
C146 C145 1.398 . S
C146 C150 1.407 . S
C147 C145 1.396 . S
C147 C148 1.394 . S
C148 H143 0.929 . S
C148 C147 1.394 . S
C148 C149 1.382 . S
C149 C148 1.382 . S
C149 C150 1.392 . S
C149 N151 1.420 . S
C150 H144 0.930 . S
C150 C146 1.407 . S
C150 C149 1.392 . S
N151 C149 1.420 . S
N151 C152 1.244 . S
C152 N151 1.244 . S
H153 C156 0.929 . S
H154 C159 0.929 . S
H155 C161 0.930 . S
C156 H153 0.929 . S
C156 C157 1.398 . S
C156 C158 1.396 . S
C157 C156 1.398 . S
C157 C161 1.407 . S
C158 C156 1.396 . S
C158 C159 1.394 1_455 S
C159 H154 0.929 . S
C159 C158 1.394 1_655 S
C159 C160 1.382 . S
C160 C159 1.382 . S
C160 C161 1.392 1_655 S
C160 N162 1.420 . S
C161 H155 0.930 . S
C161 C157 1.407 . S
C161 C160 1.392 1_455 S
N162 C160 1.420 . S
N162 C163 1.244 . S
C163 N162 1.244 . S
H164 C167 0.929 . S
H165 C170 0.905 1_565 S
H166 C172 0.930 . S
C167 H164 0.929 . S
C167 C168 1.398 . S
C167 C169 1.396 . S
C168 C167 1.398 . S
C168 C172 1.407 . S
C169 C167 1.396 . S
C169 C170 1.394 . S
C170 H165 0.905 1_545 S
C170 C169 1.394 . S
C170 C171 1.382 . S
C171 C170 1.382 . S
C171 C172 1.392 . S
C171 N173 1.420 . S
C172 H166 0.930 . S
C172 C168 1.407 . S
C172 C171 1.392 . S
N173 C171 1.420 . S
N173 C174 1.244 1_545 S
C174 N173 1.244 1_565 S
H175 C178 0.929 . S
H176 C181 0.929 . S
H177 C183 0.930 . S
C178 H175 0.929 . S
C178 C179 1.398 . S
C178 C180 1.396 . S
C179 C178 1.398 . S
C179 C183 1.407 . S
C180 C178 1.396 . S
C180 C181 1.394 . S
C181 H176 0.929 . S
C181 C180 1.394 . S
C181 C182 1.382 . S
C182 C181 1.382 . S
C182 C183 1.392 . S
C182 N184 1.420 . S
C183 H177 0.930 . S
C183 C179 1.407 . S
C183 C182 1.392 . S
N184 C182 1.420 . S
N184 C185 1.244 . S
C185 N184 1.244 . S
H186 C204 0.951 . S
H187 C206 0.951 . S
H188 C208 0.950 . S
H189 C209 0.950 . S
H190 C211 0.950 . S
H191 C214 0.950 . S
H192 C215 0.950 . S
H193 C217 0.950 . S
H194 C218 0.950 . S
H195 C219 0.951 . S
H196 C221 0.951 . S
H197 C223 0.950 . S
H198 C224 0.950 . S
H199 C226 0.950 . S
H200 C229 0.950 . S
H201 C230 0.950 . S
H202 C232 0.950 . S
H203 C233 0.950 . S
C204 H186 0.951 . S
C204 C205 1.366 . S
C204 C206 1.388 . S
C205 C204 1.366 . S
C205 C209 1.385 . S
C206 H187 0.951 . S
C206 C204 1.388 . S
C206 C207 1.366 . S
C207 C206 1.366 . S
C207 C208 1.414 . S
C207 C210 1.499 . S
C208 H188 0.950 . S
C208 C207 1.414 . S
C208 C209 1.374 . S
C209 H189 0.950 . S
C209 C205 1.385 . S
C209 C208 1.374 . S
C210 C207 1.499 . S
C210 C211 1.373 . S
C210 C212 1.389 . S
C211 H190 0.950 . S
C211 C210 1.373 . S
C211 C227 1.377 . S
C212 C210 1.389 . S
C212 C213 1.524 . S
C212 C226 1.377 . S
C213 C212 1.524 . S
C213 C214 1.397 . S
C213 C218 1.363 . S
C214 H191 0.950 . S
C214 C213 1.397 . S
C214 C215 1.334 . S
C215 H192 0.950 . S
C215 C214 1.334 . S
C215 C216 1.287 . S
C216 C215 1.287 . S
C216 C217 1.524 . S
C216 H235 0.913 . S
C217 H193 0.950 . S
C217 C216 1.524 . S
C217 C218 1.415 . S
C218 H194 0.950 . S
C218 C213 1.363 . S
C218 C217 1.415 . S
C219 H195 0.951 . S
C219 C220 1.366 . S
C219 C221 1.388 . S
C220 C219 1.366 . S
C220 C224 1.385 . S
C221 H196 0.951 . S
C221 C219 1.388 . S
C221 C222 1.366 . S
C222 C221 1.366 . S
C222 C223 1.414 . S
C222 C225 1.499 . S
C223 H197 0.950 . S
C223 C222 1.414 . S
C223 C224 1.374 . S
C224 H198 0.950 . S
C224 C220 1.385 . S
C224 C223 1.374 . S
C225 C222 1.499 . S
C225 C226 1.373 . S
C225 C227 1.389 . S
C226 H199 0.950 . S
C226 C212 1.377 . S
C226 C225 1.373 . S
C227 C211 1.377 . S
C227 C225 1.389 . S
C227 C228 1.524 . S
C228 C227 1.524 . S
C228 C229 1.397 . S
C228 C233 1.363 . S
C229 H200 0.950 . S
C229 C228 1.397 . S
C229 C230 1.334 . S
C230 H201 0.950 . S
C230 C229 1.334 . S
C230 C231 1.287 . S
C231 C230 1.287 . S
C231 C232 1.524 . S
C231 H234 0.999 . S
C232 H202 0.950 . S
C232 C231 1.524 . S
C232 C233 1.415 . S
C233 H203 0.950 . S
C233 C228 1.363 . S
C233 C232 1.415 . S
H234 C231 0.999 . S
H235 C216 0.913 . S
H236 C254 0.951 . S
H237 C256 0.951 . S
H238 C258 0.950 . S
H239 C259 0.950 . S
H240 C261 0.950 . S
H241 C264 0.950 . S
H242 C265 0.950 . S
H243 C267 0.950 . S
H244 C268 0.950 . S
H245 C269 0.951 . S
H246 C271 0.951 . S
H247 C273 0.950 . S
H248 C274 0.950 . S
H249 C276 0.950 . S
H250 C279 0.950 . S
H251 C280 0.950 . S
H252 C282 0.950 . S
H253 C283 0.950 . S
C254 H236 0.951 . S
C254 C255 1.366 . S
C254 C256 1.388 . S
C255 C254 1.366 . S
C255 C259 1.385 . S
C256 H237 0.951 . S
C256 C254 1.388 . S
C256 C257 1.366 . S
C257 C256 1.366 . S
C257 C258 1.414 . S
C257 C260 1.499 . S
C258 H238 0.950 . S
C258 C257 1.414 . S
C258 C259 1.374 . S
C259 H239 0.950 . S
C259 C255 1.385 . S
C259 C258 1.374 . S
C260 C257 1.499 . S
C260 C261 1.373 . S
C260 C262 1.389 . S
C261 H240 0.950 . S
C261 C260 1.373 . S
C261 C277 1.377 . S
C262 C260 1.389 . S
C262 C263 1.524 . S
C262 C276 1.377 . S
C263 C262 1.524 . S
C263 C264 1.397 . S
C263 C268 1.363 . S
C264 H241 0.950 . S
C264 C263 1.397 . S
C264 C265 1.334 . S
C265 H242 0.950 . S
C265 C264 1.334 . S
C265 C266 1.287 . S
C266 C265 1.287 . S
C266 C267 1.524 . S
C266 H285 0.913 . S
C267 H243 0.950 . S
C267 C266 1.524 . S
C267 C268 1.415 . S
C268 H244 0.950 . S
C268 C263 1.363 . S
C268 C267 1.415 . S
C269 H245 0.951 . S
C269 C270 1.366 . S
C269 C271 1.388 . S
C270 C269 1.366 . S
C270 C274 1.385 . S
C271 H246 0.951 . S
C271 C269 1.388 . S
C271 C272 1.366 . S
C272 C271 1.366 . S
C272 C273 1.414 . S
C272 C275 1.499 . S
C273 H247 0.950 . S
C273 C272 1.414 . S
C273 C274 1.374 . S
C274 H248 0.950 . S
C274 C270 1.385 . S
C274 C273 1.374 . S
C275 C272 1.499 . S
C275 C276 1.373 . S
C275 C277 1.389 . S
C276 H249 0.950 . S
C276 C262 1.377 . S
C276 C275 1.373 . S
C277 C261 1.377 . S
C277 C275 1.389 . S
C277 C278 1.524 . S
C278 C277 1.524 . S
C278 C279 1.397 . S
C278 C283 1.363 . S
C279 H250 0.950 . S
C279 C278 1.397 . S
C279 C280 1.334 . S
C280 H251 0.950 . S
C280 C279 1.334 . S
C280 C281 1.287 . S
C281 C280 1.287 . S
C281 C282 1.524 . S
C281 H284 0.999 . S
C282 H252 0.950 . S
C282 C281 1.524 . S
C282 C283 1.415 . S
C283 H253 0.950 . S
C283 C278 1.363 . S
C283 C282 1.415 . S
H284 C281 0.999 . S
H285 C266 0.913 . S
H286 C304 0.951 . S
H287 C306 0.951 . S
H288 C308 0.950 . S
H289 C309 0.950 . S
H290 C311 0.950 . S
H291 C314 0.950 . S
H292 C315 0.950 . S
H293 C317 0.950 . S
H294 C318 0.950 . S
H295 C319 0.951 . S
H296 C321 0.951 . S
H297 C323 0.950 . S
H298 C324 0.950 . S
H299 C326 0.950 . S
H300 C329 0.950 . S
H301 C330 0.950 . S
H302 C332 0.950 . S
H303 C333 0.950 . S
C304 H286 0.951 . S
C304 C305 1.366 . S
C304 C306 1.388 . S
C305 C304 1.366 . S
C305 C309 1.385 . S
C306 H287 0.951 . S
C306 C304 1.388 . S
C306 C307 1.366 . S
C307 C306 1.366 . S
C307 C308 1.414 . S
C307 C310 1.499 . S
C308 H288 0.950 . S
C308 C307 1.414 . S
C308 C309 1.374 . S
C309 H289 0.950 . S
C309 C305 1.385 . S
C309 C308 1.374 . S
C310 C307 1.499 . S
C310 C311 1.373 . S
C310 C312 1.389 . S
C311 H290 0.950 . S
C311 C310 1.373 . S
C311 C327 1.377 . S
C312 C310 1.389 . S
C312 C313 1.524 . S
C312 C326 1.377 . S
C313 C312 1.524 . S
C313 C314 1.397 . S
C313 C318 1.363 . S
C314 H291 0.950 . S
C314 C313 1.397 . S
C314 C315 1.334 . S
C315 H292 0.950 . S
C315 C314 1.334 . S
C315 C316 1.287 . S
C316 C315 1.287 . S
C316 C317 1.524 . S
C316 H335 0.913 . S
C317 H293 0.950 . S
C317 C316 1.524 . S
C317 C318 1.415 . S
C318 H294 0.950 . S
C318 C313 1.363 . S
C318 C317 1.415 . S
C319 H295 0.951 . S
C319 C320 1.366 . S
C319 C321 1.388 . S
C320 C319 1.366 . S
C320 C324 1.385 . S
C321 H296 0.951 . S
C321 C319 1.388 . S
C321 C322 1.366 . S
C322 C321 1.366 . S
C322 C323 1.414 . S
C322 C325 1.499 . S
C323 H297 0.950 . S
C323 C322 1.414 . S
C323 C324 1.374 . S
C324 H298 0.950 . S
C324 C320 1.385 . S
C324 C323 1.374 . S
C325 C322 1.499 . S
C325 C326 1.373 . S
C325 C327 1.389 . S
C326 H299 0.950 . S
C326 C312 1.377 . S
C326 C325 1.373 . S
C327 C311 1.377 . S
C327 C325 1.389 . S
C327 C328 1.524 . S
C328 C327 1.524 . S
C328 C329 1.397 . S
C328 C333 1.363 . S
C329 H300 0.950 . S
C329 C328 1.397 . S
C329 C330 1.334 . S
C330 H301 0.950 . S
C330 C329 1.334 . S
C330 C331 1.287 . S
C331 C330 1.287 . S
C331 C332 1.524 . S
C331 H334 0.999 . S
C332 H302 0.950 . S
C332 C331 1.524 . S
C332 C333 1.415 . S
C333 H303 0.950 . S
C333 C328 1.363 . S
C333 C332 1.415 . S
H334 C331 0.999 . S
H335 C316 0.913 . S
H336 C354 0.951 . S
H337 C356 0.951 . S
H338 C358 0.950 . S
H339 C359 0.950 . S
H340 C361 0.950 . S
H341 C364 0.950 . S
H342 C365 0.950 . S
H343 C367 0.950 . S
H344 C368 0.950 . S
H345 C369 0.951 . S
H346 C371 0.951 . S
H347 C373 0.950 . S
H348 C374 0.950 . S
H349 C376 0.950 . S
H350 C379 0.950 . S
H351 C380 0.950 . S
H352 C382 0.950 . S
H353 C383 0.950 . S
C354 H336 0.951 . S
C354 C355 1.366 . S
C354 C356 1.388 . S
C355 C354 1.366 . S
C355 C359 1.385 . S
C356 H337 0.951 . S
C356 C354 1.388 . S
C356 C357 1.366 . S
C357 C356 1.366 . S
C357 C358 1.414 . S
C357 C360 1.499 . S
C358 H338 0.950 . S
C358 C357 1.414 . S
C358 C359 1.374 . S
C359 H339 0.950 . S
C359 C355 1.385 . S
C359 C358 1.374 . S
C360 C357 1.499 . S
C360 C361 1.373 . S
C360 C362 1.389 . S
C361 H340 0.950 . S
C361 C360 1.373 . S
C361 C377 1.377 . S
C362 C360 1.389 . S
C362 C363 1.524 . S
C362 C376 1.377 . S
C363 C362 1.524 . S
C363 C364 1.397 . S
C363 C368 1.363 . S
C364 H341 0.950 . S
C364 C363 1.397 . S
C364 C365 1.334 . S
C365 H342 0.950 . S
C365 C364 1.334 . S
C365 C366 1.287 . S
C366 C365 1.287 . S
C366 C367 1.524 . S
C366 H385 0.913 . S
C367 H343 0.950 . S
C367 C366 1.524 . S
C367 C368 1.415 . S
C368 H344 0.950 . S
C368 C363 1.363 . S
C368 C367 1.415 . S
C369 H345 0.951 . S
C369 C370 1.366 . S
C369 C371 1.388 . S
C370 C369 1.366 . S
C370 C374 1.385 . S
C371 H346 0.951 . S
C371 C369 1.388 . S
C371 C372 1.366 . S
C372 C371 1.366 . S
C372 C373 1.414 . S
C372 C375 1.499 . S
C373 H347 0.950 . S
C373 C372 1.414 . S
C373 C374 1.374 . S
C374 H348 0.950 . S
C374 C370 1.385 . S
C374 C373 1.374 . S
C375 C372 1.499 . S
C375 C376 1.373 . S
C375 C377 1.389 . S
C376 H349 0.950 . S
C376 C362 1.377 . S
C376 C375 1.373 . S
C377 C361 1.377 . S
C377 C375 1.389 . S
C377 C378 1.524 . S
C378 C377 1.524 . S
C378 C379 1.397 . S
C378 C383 1.363 . S
C379 H350 0.950 . S
C379 C378 1.397 . S
C379 C380 1.334 . S
C380 H351 0.950 . S
C380 C379 1.334 . S
C380 C381 1.287 . S
C381 C380 1.287 . S
C381 C382 1.524 . S
C381 H384 0.999 . S
C382 H352 0.950 . S
C382 C381 1.524 . S
C382 C383 1.415 . S
C383 H353 0.950 . S
C383 C378 1.363 . S
C383 C382 1.415 . S
H384 C381 0.999 . S
H385 C366 0.913 . S
H386 C404 0.951 . S
H387 C406 0.951 . S
H388 C408 0.950 . S
H389 C409 0.950 . S
H390 C411 0.950 . S
H391 C414 0.950 . S
H392 C415 0.950 . S
H393 C417 0.950 . S
H394 C418 0.950 . S
H395 C419 0.951 . S
H396 C421 0.951 . S
H397 C423 0.950 . S
H398 C424 0.950 . S
H399 C426 0.950 . S
H400 C429 0.950 . S
H401 C430 0.950 . S
H402 C432 0.950 . S
H403 C433 0.950 . S
C404 H386 0.951 . S
C404 C405 1.366 . S
C404 C406 1.388 . S
C405 C404 1.366 . S
C405 C409 1.385 . S
C406 H387 0.951 . S
C406 C404 1.388 . S
C406 C407 1.366 . S
C407 C406 1.366 . S
C407 C408 1.414 . S
C407 C410 1.499 . S
C408 H388 0.950 . S
C408 C407 1.414 . S
C408 C409 1.374 . S
C409 H389 0.950 . S
C409 C405 1.385 . S
C409 C408 1.374 . S
C410 C407 1.499 . S
C410 C411 1.373 . S
C410 C412 1.389 . S
C411 H390 0.950 . S
C411 C410 1.373 . S
C411 C427 1.377 . S
C412 C410 1.389 . S
C412 C413 1.524 . S
C412 C426 1.377 . S
C413 C412 1.524 . S
C413 C414 1.397 . S
C413 C418 1.363 . S
C414 H391 0.950 . S
C414 C413 1.397 . S
C414 C415 1.334 . S
C415 H392 0.950 . S
C415 C414 1.334 . S
C415 C416 1.287 . S
C416 C415 1.287 . S
C416 C417 1.524 . S
C416 H435 0.913 . S
C417 H393 0.950 . S
C417 C416 1.524 . S
C417 C418 1.415 . S
C418 H394 0.950 . S
C418 C413 1.363 . S
C418 C417 1.415 . S
C419 H395 0.951 . S
C419 C420 1.366 . S
C419 C421 1.388 . S
C420 C419 1.366 . S
C420 C424 1.385 . S
C421 H396 0.951 . S
C421 C419 1.388 . S
C421 C422 1.366 . S
C422 C421 1.366 . S
C422 C423 1.414 . S
C422 C425 1.499 . S
C423 H397 0.950 . S
C423 C422 1.414 . S
C423 C424 1.374 . S
C424 H398 0.950 . S
C424 C420 1.385 . S
C424 C423 1.374 . S
C425 C422 1.499 . S
C425 C426 1.373 . S
C425 C427 1.389 . S
C426 H399 0.950 . S
C426 C412 1.377 . S
C426 C425 1.373 . S
C427 C411 1.377 . S
C427 C425 1.389 . S
C427 C428 1.524 . S
C428 C427 1.524 . S
C428 C429 1.397 . S
C428 C433 1.363 . S
C429 H400 0.950 . S
C429 C428 1.397 . S
C429 C430 1.334 . S
C430 H401 0.950 . S
C430 C429 1.334 . S
C430 C431 1.287 . S
C431 C430 1.287 . S
C431 C432 1.524 . S
C431 H434 0.999 . S
C432 H402 0.950 . S
C432 C431 1.524 . S
C432 C433 1.415 . S
C433 H403 0.950 . S
C433 C428 1.363 . S
C433 C432 1.415 . S
H434 C431 0.999 . S
H435 C416 0.913 . S
H436 C454 0.951 . S
H437 C456 0.951 . S
H438 C458 0.950 . S
H439 C459 0.950 . S
H440 C461 0.950 . S
H441 C464 0.950 . S
H442 C465 0.950 . S
H443 C467 0.950 . S
H444 C468 0.950 . S
H445 C469 0.951 . S
H446 C471 0.951 . S
H447 C473 0.950 . S
H448 C474 0.950 . S
H449 C476 0.950 . S
H450 C479 0.950 . S
H451 C480 0.950 . S
H452 C482 0.950 . S
H453 C483 0.950 . S
C454 H436 0.951 . S
C454 C455 1.366 . S
C454 C456 1.388 . S
C455 C454 1.366 . S
C455 C459 1.385 . S
C456 H437 0.951 . S
C456 C454 1.388 . S
C456 C457 1.366 . S
C457 C456 1.366 . S
C457 C458 1.414 . S
C457 C460 1.499 . S
C458 H438 0.950 . S
C458 C457 1.414 . S
C458 C459 1.374 . S
C459 H439 0.950 . S
C459 C455 1.385 . S
C459 C458 1.374 . S
C460 C457 1.499 . S
C460 C461 1.373 . S
C460 C462 1.389 . S
C461 H440 0.950 . S
C461 C460 1.373 . S
C461 C477 1.377 . S
C462 C460 1.389 . S
C462 C463 1.524 . S
C462 C476 1.377 . S
C463 C462 1.524 . S
C463 C464 1.397 . S
C463 C468 1.363 . S
C464 H441 0.950 . S
C464 C463 1.397 . S
C464 C465 1.334 . S
C465 H442 0.950 . S
C465 C464 1.334 . S
C465 C466 1.287 . S
C466 C465 1.287 . S
C466 C467 1.524 . S
C466 H485 0.913 . S
C467 H443 0.950 . S
C467 C466 1.524 . S
C467 C468 1.415 . S
C468 H444 0.950 . S
C468 C463 1.363 . S
C468 C467 1.415 . S
C469 H445 0.951 . S
C469 C470 1.366 . S
C469 C471 1.388 . S
C470 C469 1.366 . S
C470 C474 1.385 . S
C471 H446 0.951 . S
C471 C469 1.388 . S
C471 C472 1.366 . S
C472 C471 1.366 . S
C472 C473 1.414 . S
C472 C475 1.499 . S
C473 H447 0.950 . S
C473 C472 1.414 . S
C473 C474 1.374 . S
C474 H448 0.950 . S
C474 C470 1.385 . S
C474 C473 1.374 . S
C475 C472 1.499 . S
C475 C476 1.373 . S
C475 C477 1.389 . S
C476 H449 0.950 . S
C476 C462 1.377 . S
C476 C475 1.373 . S
C477 C461 1.377 . S
C477 C475 1.389 . S
C477 C478 1.524 . S
C478 C477 1.524 . S
C478 C479 1.397 . S
C478 C483 1.363 . S
C479 H450 0.950 . S
C479 C478 1.397 . S
C479 C480 1.334 . S
C480 H451 0.950 . S
C480 C479 1.334 . S
C480 C481 1.287 . S
C481 C480 1.287 . S
C481 C482 1.524 . S
C481 H484 0.999 . S
C482 H452 0.950 . S
C482 C481 1.524 . S
C482 C483 1.415 . S
C483 H453 0.950 . S
C483 C478 1.363 . S
C483 C482 1.415 . S
H484 C481 0.999 . S
H485 C466 0.913 . S
H486 C504 0.951 . S
H487 C506 0.951 . S
H488 C508 0.950 . S
H489 C509 0.950 . S
H490 C511 0.950 . S
H491 C514 0.950 . S
H492 C515 0.950 . S
H493 C517 0.950 . S
H494 C518 0.950 . S
H495 C519 0.951 . S
H496 C521 0.951 . S
H497 C523 0.950 . S
H498 C524 0.950 . S
H499 C526 0.950 . S
H500 C529 0.950 . S
H501 C530 0.950 . S
H502 C532 0.950 . S
H503 C533 0.950 . S
C504 H486 0.951 . S
C504 C505 1.366 . S
C504 C506 1.388 . S
C505 C504 1.366 . S
C505 C509 1.385 . S
C506 H487 0.951 . S
C506 C504 1.388 . S
C506 C507 1.366 . S
C507 C506 1.366 . S
C507 C508 1.414 . S
C507 C510 1.499 . S
C508 H488 0.950 . S
C508 C507 1.414 . S
C508 C509 1.374 . S
C509 H489 0.950 . S
C509 C505 1.385 . S
C509 C508 1.374 . S
C510 C507 1.499 . S
C510 C511 1.373 . S
C510 C512 1.389 . S
C511 H490 0.950 . S
C511 C510 1.373 . S
C511 C527 1.377 . S
C512 C510 1.389 . S
C512 C513 1.524 . S
C512 C526 1.377 . S
C513 C512 1.524 . S
C513 C514 1.397 . S
C513 C518 1.363 . S
C514 H491 0.950 . S
C514 C513 1.397 . S
C514 C515 1.334 . S
C515 H492 0.950 . S
C515 C514 1.334 . S
C515 C516 1.287 . S
C516 C515 1.287 . S
C516 C517 1.524 . S
C516 H535 0.913 . S
C517 H493 0.950 . S
C517 C516 1.524 . S
C517 C518 1.415 . S
C518 H494 0.950 . S
C518 C513 1.363 . S
C518 C517 1.415 . S
C519 H495 0.951 . S
C519 C520 1.366 . S
C519 C521 1.388 . S
C520 C519 1.366 . S
C520 C524 1.385 . S
C521 H496 0.951 . S
C521 C519 1.388 . S
C521 C522 1.366 . S
C522 C521 1.366 . S
C522 C523 1.414 . S
C522 C525 1.499 . S
C523 H497 0.950 . S
C523 C522 1.414 . S
C523 C524 1.374 . S
C524 H498 0.950 . S
C524 C520 1.385 . S
C524 C523 1.374 . S
C525 C522 1.499 . S
C525 C526 1.373 . S
C525 C527 1.389 . S
C526 H499 0.950 . S
C526 C512 1.377 . S
C526 C525 1.373 . S
C527 C511 1.377 . S
C527 C525 1.389 . S
C527 C528 1.524 . S
C528 C527 1.524 . S
C528 C529 1.397 . S
C528 C533 1.363 . S
C529 H500 0.950 . S
C529 C528 1.397 . S
C529 C530 1.334 . S
C530 H501 0.950 . S
C530 C529 1.334 . S
C530 C531 1.287 . S
C531 C530 1.287 . S
C531 C532 1.524 . S
C531 H534 0.999 . S
C532 H502 0.950 . S
C532 C531 1.524 . S
C532 C533 1.415 . S
C533 H503 0.950 . S
C533 C528 1.363 . S
C533 C532 1.415 . S
H534 C531 0.999 . S
H535 C516 0.913 . S
H536 C554 0.951 . S
H537 C556 0.951 . S
H538 C558 0.950 . S
H539 C559 0.950 . S
H540 C561 0.950 . S
H541 C564 0.950 . S
H542 C565 0.950 . S
H543 C567 0.950 . S
H544 C568 0.950 . S
H545 C569 0.951 . S
H546 C571 0.951 . S
H547 C573 0.950 . S
H548 C574 0.950 . S
H549 C576 0.950 . S
H550 C579 0.950 . S
H551 C580 0.950 . S
H552 C582 0.950 . S
H553 C583 0.950 . S
C554 H536 0.951 . S
C554 C555 1.366 . S
C554 C556 1.388 . S
C555 C554 1.366 . S
C555 C559 1.385 . S
C556 H537 0.951 . S
C556 C554 1.388 . S
C556 C557 1.366 . S
C557 C556 1.366 . S
C557 C558 1.414 . S
C557 C560 1.499 . S
C558 H538 0.950 . S
C558 C557 1.414 . S
C558 C559 1.374 . S
C559 H539 0.950 . S
C559 C555 1.385 . S
C559 C558 1.374 . S
C560 C557 1.499 . S
C560 C561 1.373 . S
C560 C562 1.389 . S
C561 H540 0.950 . S
C561 C560 1.373 . S
C561 C577 1.377 . S
C562 C560 1.389 . S
C562 C563 1.524 . S
C562 C576 1.377 . S
C563 C562 1.524 . S
C563 C564 1.397 . S
C563 C568 1.363 . S
C564 H541 0.950 . S
C564 C563 1.397 . S
C564 C565 1.334 . S
C565 H542 0.950 . S
C565 C564 1.334 . S
C565 C566 1.287 . S
C566 C565 1.287 . S
C566 C567 1.524 . S
C566 H585 0.913 . S
C567 H543 0.950 . S
C567 C566 1.524 . S
C567 C568 1.415 . S
C568 H544 0.950 . S
C568 C563 1.363 . S
C568 C567 1.415 . S
C569 H545 0.951 . S
C569 C570 1.366 . S
C569 C571 1.388 . S
C570 C569 1.366 . S
C570 C574 1.385 . S
C571 H546 0.951 . S
C571 C569 1.388 . S
C571 C572 1.366 . S
C572 C571 1.366 . S
C572 C573 1.414 . S
C572 C575 1.499 . S
C573 H547 0.950 . S
C573 C572 1.414 . S
C573 C574 1.374 . S
C574 H548 0.950 . S
C574 C570 1.385 . S
C574 C573 1.374 . S
C575 C572 1.499 . S
C575 C576 1.373 . S
C575 C577 1.389 . S
C576 H549 0.950 . S
C576 C562 1.377 . S
C576 C575 1.373 . S
C577 C561 1.377 . S
C577 C575 1.389 . S
C577 C578 1.524 . S
C578 C577 1.524 . S
C578 C579 1.397 . S
C578 C583 1.363 . S
C579 H550 0.950 . S
C579 C578 1.397 . S
C579 C580 1.334 . S
C580 H551 0.950 . S
C580 C579 1.334 . S
C580 C581 1.287 . S
C581 C580 1.287 . S
C581 C582 1.524 . S
C581 H584 0.999 1_655 S
C582 H552 0.950 . S
C582 C581 1.524 . S
C582 C583 1.415 . S
C583 H553 0.950 . S
C583 C578 1.363 . S
C583 C582 1.415 . S
H584 C581 0.999 1_455 S
H585 C566 0.913 . S
H586 C604 0.951 . S
H587 C606 0.951 . S
H588 C608 0.950 . S
H589 C609 0.950 . S
H590 C611 0.950 . S
H591 C614 0.950 . S
H592 C615 0.950 . S
H593 C617 0.950 . S
H594 C618 0.950 . S
H595 C619 0.951 . S
H596 C621 0.951 . S
H597 C623 0.950 . S
H598 C624 0.950 . S
H599 C626 0.950 . S
H600 C629 0.950 . S
H601 C630 0.950 . S
H602 C632 0.950 . S
H603 C633 0.950 . S
C604 H586 0.951 . S
C604 C605 1.366 . S
C604 C606 1.388 . S
C605 C604 1.366 . S
C605 C609 1.385 . S
C606 H587 0.951 . S
C606 C604 1.388 . S
C606 C607 1.366 . S
C607 C606 1.366 . S
C607 C608 1.414 . S
C607 C610 1.499 . S
C608 H588 0.950 . S
C608 C607 1.414 . S
C608 C609 1.374 . S
C609 H589 0.950 . S
C609 C605 1.385 . S
C609 C608 1.374 . S
C610 C607 1.499 . S
C610 C611 1.373 . S
C610 C612 1.389 . S
C611 H590 0.950 . S
C611 C610 1.373 . S
C611 C627 1.377 . S
C612 C610 1.389 . S
C612 C613 1.524 . S
C612 C626 1.377 . S
C613 C612 1.524 . S
C613 C614 1.397 . S
C613 C618 1.363 . S
C614 H591 0.950 . S
C614 C613 1.397 . S
C614 C615 1.334 . S
C615 H592 0.950 . S
C615 C614 1.334 . S
C615 C616 1.287 . S
C616 C615 1.287 . S
C616 C617 1.524 . S
C616 H635 0.913 . S
C617 H593 0.950 . S
C617 C616 1.524 . S
C617 C618 1.415 . S
C618 H594 0.950 . S
C618 C613 1.363 . S
C618 C617 1.415 . S
C619 H595 0.951 . S
C619 C620 1.366 . S
C619 C621 1.388 . S
C620 C619 1.366 . S
C620 C624 1.385 . S
C621 H596 0.951 . S
C621 C619 1.388 . S
C621 C622 1.366 . S
C622 C621 1.366 . S
C622 C623 1.414 . S
C622 C625 1.499 . S
C623 H597 0.950 . S
C623 C622 1.414 . S
C623 C624 1.374 . S
C624 H598 0.950 . S
C624 C620 1.385 . S
C624 C623 1.374 . S
C625 C622 1.499 . S
C625 C626 1.373 . S
C625 C627 1.389 . S
C626 H599 0.950 . S
C626 C612 1.377 . S
C626 C625 1.373 . S
C627 C611 1.377 . S
C627 C625 1.389 . S
C627 C628 1.524 . S
C628 C627 1.524 . S
C628 C629 1.397 . S
C628 C633 1.363 . S
C629 H600 0.950 . S
C629 C628 1.397 . S
C629 C630 1.334 . S
C630 H601 0.950 . S
C630 C629 1.334 . S
C630 C631 1.287 . S
C631 C630 1.287 . S
C631 C632 1.524 . S
C631 H634 0.999 . S
C632 H602 0.950 . S
C632 C631 1.524 . S
C632 C633 1.415 . S
C633 H603 0.950 . S
C633 C628 1.363 . S
C633 C632 1.415 . S
H634 C631 0.999 . S
H635 C616 0.913 . S
H636 C654 0.951 . S
H637 C656 0.951 . S
H638 C658 0.950 . S
H639 C659 0.950 . S
H640 C661 0.950 . S
H641 C664 0.950 . S
H642 C665 0.950 . S
H643 C667 0.950 . S
H644 C668 0.950 . S
H645 C669 0.951 . S
H646 C671 0.951 . S
H647 C673 0.950 . S
H648 C674 0.950 . S
H649 C676 0.950 . S
H650 C679 0.950 . S
H651 C680 0.950 . S
H652 C682 0.950 . S
H653 C683 0.950 . S
C654 H636 0.951 . S
C654 C655 1.366 . S
C654 C656 1.388 . S
C655 C654 1.366 . S
C655 C659 1.385 . S
C656 H637 0.951 . S
C656 C654 1.388 . S
C656 C657 1.366 . S
C657 C656 1.366 . S
C657 C658 1.414 . S
C657 C660 1.499 . S
C658 H638 0.950 . S
C658 C657 1.414 . S
C658 C659 1.374 . S
C659 H639 0.950 . S
C659 C655 1.385 . S
C659 C658 1.374 . S
C660 C657 1.499 . S
C660 C661 1.373 . S
C660 C662 1.389 . S
C661 H640 0.950 . S
C661 C660 1.373 . S
C661 C677 1.377 . S
C662 C660 1.389 . S
C662 C663 1.524 . S
C662 C676 1.377 . S
C663 C662 1.524 . S
C663 C664 1.397 . S
C663 C668 1.363 . S
C664 H641 0.950 . S
C664 C663 1.397 . S
C664 C665 1.334 . S
C665 H642 0.950 . S
C665 C664 1.334 . S
C665 C666 1.287 . S
C666 C665 1.287 . S
C666 C667 1.524 . S
C666 H685 0.913 . S
C667 H643 0.950 . S
C667 C666 1.524 . S
C667 C668 1.415 . S
C668 H644 0.950 . S
C668 C663 1.363 . S
C668 C667 1.415 . S
C669 H645 0.951 . S
C669 C670 1.366 . S
C669 C671 1.388 . S
C670 C669 1.366 . S
C670 C674 1.385 . S
C671 H646 0.951 . S
C671 C669 1.388 . S
C671 C672 1.366 . S
C672 C671 1.366 . S
C672 C673 1.414 . S
C672 C675 1.499 . S
C673 H647 0.950 . S
C673 C672 1.414 . S
C673 C674 1.374 . S
C674 H648 0.950 . S
C674 C670 1.385 . S
C674 C673 1.374 . S
C675 C672 1.499 . S
C675 C676 1.373 . S
C675 C677 1.389 . S
C676 H649 0.950 . S
C676 C662 1.377 . S
C676 C675 1.373 . S
C677 C661 1.377 . S
C677 C675 1.389 . S
C677 C678 1.524 . S
C678 C677 1.524 . S
C678 C679 1.397 . S
C678 C683 1.363 . S
C679 H650 0.950 . S
C679 C678 1.397 . S
C679 C680 1.334 . S
C680 H651 0.950 . S
C680 C679 1.334 . S
C680 C681 1.287 . S
C681 C680 1.287 . S
C681 C682 1.524 . S
C681 H684 0.999 . S
C682 H652 0.950 . S
C682 C681 1.524 . S
C682 C683 1.415 . S
C683 H653 0.950 . S
C683 C678 1.363 . S
C683 C682 1.415 . S
H684 C681 0.999 . S
H685 C666 0.913 . S
H686 C704 0.951 . S
H687 C706 0.951 . S
H688 C708 0.950 . S
H689 C709 0.950 . S
H690 C711 0.950 . S
H691 C714 0.950 . S
H692 C715 0.950 . S
H693 C717 0.950 . S
H694 C718 0.950 . S
H695 C719 0.951 . S
H696 C721 0.951 . S
H697 C723 0.950 . S
H698 C724 0.950 . S
H699 C726 0.950 . S
H700 C729 0.950 . S
H701 C730 0.950 . S
H702 C732 0.950 . S
H703 C733 0.950 . S
C704 H686 0.951 . S
C704 C705 1.366 . S
C704 C706 1.388 . S
C705 C704 1.366 . S
C705 C709 1.385 . S
C706 H687 0.951 . S
C706 C704 1.388 . S
C706 C707 1.366 . S
C707 C706 1.366 . S
C707 C708 1.414 . S
C707 C710 1.499 . S
C708 H688 0.950 . S
C708 C707 1.414 . S
C708 C709 1.374 . S
C709 H689 0.950 . S
C709 C705 1.385 . S
C709 C708 1.374 . S
C710 C707 1.499 . S
C710 C711 1.373 . S
C710 C712 1.389 . S
C711 H690 0.950 . S
C711 C710 1.373 . S
C711 C727 1.377 . S
C712 C710 1.389 . S
C712 C713 1.524 . S
C712 C726 1.377 . S
C713 C712 1.524 . S
C713 C714 1.397 . S
C713 C718 1.363 . S
C714 H691 0.950 . S
C714 C713 1.397 . S
C714 C715 1.334 . S
C715 H692 0.950 . S
C715 C714 1.334 . S
C715 C716 1.287 . S
C716 C715 1.287 . S
C716 C717 1.524 . S
C716 H735 0.913 . S
C717 H693 0.950 . S
C717 C716 1.524 . S
C717 C718 1.415 . S
C718 H694 0.950 . S
C718 C713 1.363 . S
C718 C717 1.415 . S
C719 H695 0.951 . S
C719 C720 1.366 . S
C719 C721 1.388 . S
C720 C719 1.366 . S
C720 C724 1.385 . S
C721 H696 0.951 . S
C721 C719 1.388 . S
C721 C722 1.366 . S
C722 C721 1.366 . S
C722 C723 1.414 . S
C722 C725 1.499 . S
C723 H697 0.950 . S
C723 C722 1.414 . S
C723 C724 1.374 . S
C724 H698 0.950 . S
C724 C720 1.385 . S
C724 C723 1.374 . S
C725 C722 1.499 . S
C725 C726 1.373 . S
C725 C727 1.389 . S
C726 H699 0.950 . S
C726 C712 1.377 . S
C726 C725 1.373 . S
C727 C711 1.377 . S
C727 C725 1.389 . S
C727 C728 1.524 . S
C728 C727 1.524 . S
C728 C729 1.397 . S
C728 C733 1.363 . S
C729 H700 0.950 . S
C729 C728 1.397 . S
C729 C730 1.334 . S
C730 H701 0.950 . S
C730 C729 1.334 . S
C730 C731 1.287 . S
C731 C730 1.287 . S
C731 C732 1.524 . S
C731 H734 0.999 . S
C732 H702 0.950 . S
C732 C731 1.524 . S
C732 C733 1.415 . S
C733 H703 0.950 . S
C733 C728 1.363 . S
C733 C732 1.415 . S
H734 C731 0.999 . S
H735 C716 0.913 . S
H736 C754 0.951 . S
H737 C756 0.951 . S
H738 C758 0.950 . S
H739 C759 0.950 . S
H740 C761 0.950 . S
H741 C764 0.950 . S
H742 C765 0.950 . S
H743 C767 0.950 . S
H744 C768 0.950 . S
H745 C769 0.951 . S
H746 C771 0.951 . S
H747 C773 0.950 . S
H748 C774 0.950 . S
H749 C776 0.950 . S
H750 C779 0.950 . S
H751 C780 0.950 . S
H752 C782 0.950 . S
H753 C783 0.950 . S
C754 H736 0.951 . S
C754 C755 1.366 . S
C754 C756 1.388 . S
C755 C754 1.366 . S
C755 C759 1.385 . S
C756 H737 0.951 . S
C756 C754 1.388 . S
C756 C757 1.366 . S
C757 C756 1.366 . S
C757 C758 1.414 . S
C757 C760 1.499 . S
C758 H738 0.950 . S
C758 C757 1.414 . S
C758 C759 1.374 . S
C759 H739 0.950 . S
C759 C755 1.385 . S
C759 C758 1.374 . S
C760 C757 1.499 . S
C760 C761 1.373 . S
C760 C762 1.389 . S
C761 H740 0.950 . S
C761 C760 1.373 . S
C761 C777 1.377 . S
C762 C760 1.389 . S
C762 C763 1.524 . S
C762 C776 1.377 . S
C763 C762 1.524 . S
C763 C764 1.397 . S
C763 C768 1.363 . S
C764 H741 0.950 . S
C764 C763 1.397 . S
C764 C765 1.334 . S
C765 H742 0.950 . S
C765 C764 1.334 . S
C765 C766 1.287 . S
C766 C765 1.287 . S
C766 C767 1.524 . S
C766 H785 0.913 . S
C767 H743 0.950 . S
C767 C766 1.524 . S
C767 C768 1.415 . S
C768 H744 0.950 . S
C768 C763 1.363 . S
C768 C767 1.415 . S
C769 H745 0.951 . S
C769 C770 1.366 . S
C769 C771 1.388 . S
C770 C769 1.366 . S
C770 C774 1.385 . S
C771 H746 0.951 . S
C771 C769 1.388 . S
C771 C772 1.366 . S
C772 C771 1.366 . S
C772 C773 1.414 . S
C772 C775 1.499 . S
C773 H747 0.950 . S
C773 C772 1.414 . S
C773 C774 1.374 . S
C774 H748 0.950 . S
C774 C770 1.385 . S
C774 C773 1.374 . S
C775 C772 1.499 . S
C775 C776 1.373 . S
C775 C777 1.389 . S
C776 H749 0.950 . S
C776 C762 1.377 . S
C776 C775 1.373 . S
C777 C761 1.377 . S
C777 C775 1.389 . S
C777 C778 1.524 . S
C778 C777 1.524 . S
C778 C779 1.397 . S
C778 C783 1.363 . S
C779 H750 0.950 . S
C779 C778 1.397 . S
C779 C780 1.334 . S
C780 H751 0.950 . S
C780 C779 1.334 . S
C780 C781 1.287 . S
C781 C780 1.287 . S
C781 C782 1.524 . S
C781 H784 0.999 . S
C782 H752 0.950 . S
C782 C781 1.524 . S
C782 C783 1.415 . S
C783 H753 0.950 . S
C783 C778 1.363 . S
C783 C782 1.415 . S
H784 C781 0.999 . S
H785 C766 0.913 . S
H786 C804 0.951 1_655 S
H787 C806 0.951 1_655 S
H788 C808 0.950 . S
H789 C809 0.950 . S
H790 C811 0.950 . S
H791 C814 0.950 . S
H792 C815 0.950 . S
H793 C817 0.951 . S
H794 C818 0.933 1_655 S
H795 C819 0.951 . S
H796 C821 0.951 . S
H797 C823 0.950 . S
H798 C824 0.950 . S
H799 C826 0.950 1_556 S
H800 C829 0.950 . S
H801 C830 0.955 . S
H802 C832 0.950 . S
H803 C833 0.950 . S
C804 H786 0.951 1_455 S
C804 C805 1.366 . S
C804 C806 1.388 . S
C805 C804 1.366 . S
C805 C809 1.385 . S
C806 H787 0.951 1_455 S
C806 C804 1.388 . S
C806 C807 1.366 . S
C807 C806 1.366 . S
C807 C808 1.414 . S
C807 C810 1.499 . S
C808 H788 0.950 . S
C808 C807 1.414 . S
C808 C809 1.374 . S
C809 H789 0.950 . S
C809 C805 1.385 . S
C809 C808 1.374 . S
C810 C807 1.499 . S
C810 C811 1.373 . S
C810 C812 1.389 . S
C811 H790 0.950 . S
C811 C810 1.373 . S
C811 C827 1.377 . S
C812 C810 1.389 . S
C812 C813 1.524 . S
C812 C826 1.377 . S
C813 C812 1.524 . S
C813 C814 1.397 . S
C813 C818 1.363 . S
C814 H791 0.950 . S
C814 C813 1.397 . S
C814 C815 1.334 . S
C815 H792 0.950 . S
C815 C814 1.334 . S
C815 C816 1.287 . S
C816 C815 1.287 . S
C816 C817 1.524 . S
C816 H835 0.913 . S
C817 H793 0.951 . S
C817 C816 1.524 . S
C817 C818 1.415 . S
C818 H794 0.933 1_455 S
C818 C813 1.363 . S
C818 C817 1.415 . S
C819 H795 0.951 . S
C819 C820 1.366 . S
C819 C821 1.388 . S
C820 C819 1.366 . S
C820 C824 1.385 . S
C821 H796 0.951 . S
C821 C819 1.388 . S
C821 C822 1.366 . S
C822 C821 1.366 . S
C822 C823 1.414 . S
C822 C825 1.499 . S
C823 H797 0.950 . S
C823 C822 1.414 . S
C823 C824 1.374 . S
C824 H798 0.950 . S
C824 C820 1.385 . S
C824 C823 1.374 . S
C825 C822 1.499 . S
C825 C826 1.373 1_556 S
C825 C827 1.389 1_556 S
C826 H799 0.950 1_554 S
C826 C812 1.377 . S
C826 C825 1.373 1_554 S
C827 C811 1.377 . S
C827 C825 1.389 1_554 S
C827 C828 1.524 1_554 S
C828 C827 1.524 1_556 S
C828 C829 1.397 . S
C828 C833 1.363 1_556 S
C829 H800 0.950 . S
C829 C828 1.397 . S
C829 C830 1.334 . S
C830 H801 0.955 . S
C830 C829 1.334 . S
C830 C831 1.287 . S
C831 C830 1.287 . S
C831 C832 1.524 . S
C831 H834 0.999 . S
C832 H802 0.950 . S
C832 C831 1.524 . S
C832 C833 1.415 1_556 S
C833 H803 0.950 . S
C833 C828 1.363 1_554 S
C833 C832 1.415 1_554 S
H834 C831 0.999 . S
H835 C816 0.913 . S
H836 C854 0.951 . S
H837 C856 0.951 . S
H838 C858 0.950 . S
H839 C859 0.950 . S
H840 C861 0.950 . S
H841 C864 0.950 . S
H842 C865 0.950 . S
H843 C867 0.950 . S
H844 C868 0.950 . S
H845 C869 0.951 . S
H846 C871 0.951 . S
H847 C873 0.950 . S
H848 C874 0.950 . S
H849 C876 0.950 . S
H850 C879 0.950 . S
H851 C880 0.950 . S
H852 C882 0.950 . S
H853 C883 0.950 . S
C854 H836 0.951 . S
C854 C855 1.366 . S
C854 C856 1.388 . S
C855 C854 1.366 . S
C855 C859 1.385 . S
C856 H837 0.951 . S
C856 C854 1.388 . S
C856 C857 1.366 . S
C857 C856 1.366 . S
C857 C858 1.414 . S
C857 C860 1.499 . S
C858 H838 0.950 . S
C858 C857 1.414 . S
C858 C859 1.374 . S
C859 H839 0.950 . S
C859 C855 1.385 . S
C859 C858 1.374 . S
C860 C857 1.499 . S
C860 C861 1.373 . S
C860 C862 1.389 . S
C861 H840 0.950 . S
C861 C860 1.373 . S
C861 C877 1.377 . S
C862 C860 1.389 . S
C862 C863 1.524 . S
C862 C876 1.377 . S
C863 C862 1.524 . S
C863 C864 1.397 1_545 S
C863 C868 1.363 . S
C864 H841 0.950 . S
C864 C863 1.397 1_565 S
C864 C865 1.334 . S
C865 H842 0.950 . S
C865 C864 1.334 . S
C865 C866 1.287 . S
C866 C865 1.287 . S
C866 C867 1.524 1_565 S
C866 H885 0.913 . S
C867 H843 0.950 . S
C867 C866 1.524 1_545 S
C867 C868 1.415 . S
C868 H844 0.950 . S
C868 C863 1.363 . S
C868 C867 1.415 . S
C869 H845 0.951 . S
C869 C870 1.366 . S
C869 C871 1.388 . S
C870 C869 1.366 . S
C870 C874 1.385 . S
C871 H846 0.951 . S
C871 C869 1.388 . S
C871 C872 1.366 . S
C872 C871 1.366 . S
C872 C873 1.414 . S
C872 C875 1.499 . S
C873 H847 0.950 . S
C873 C872 1.414 . S
C873 C874 1.374 . S
C874 H848 0.950 . S
C874 C870 1.385 . S
C874 C873 1.374 . S
C875 C872 1.499 . S
C875 C876 1.373 . S
C875 C877 1.389 . S
C876 H849 0.950 . S
C876 C862 1.377 . S
C876 C875 1.373 . S
C877 C861 1.377 . S
C877 C875 1.389 . S
C877 C878 1.524 . S
C878 C877 1.524 . S
C878 C879 1.397 . S
C878 C883 1.363 . S
C879 H850 0.950 . S
C879 C878 1.397 . S
C879 C880 1.334 . S
C880 H851 0.950 . S
C880 C879 1.334 . S
C880 C881 1.287 . S
C881 C880 1.287 . S
C881 C882 1.524 . S
C881 H884 0.999 . S
C882 H852 0.950 . S
C882 C881 1.524 . S
C882 C883 1.415 . S
C883 H853 0.950 . S
C883 C878 1.363 . S
C883 C882 1.415 . S
H884 C881 0.999 . S
H885 C866 0.913 . S
H886 C904 0.951 . S
H887 C906 0.951 . S
H888 C908 0.950 . S
H889 C909 0.950 . S
H890 C911 0.950 . S
H891 C914 0.950 . S
H892 C915 0.950 . S
H893 C917 0.950 . S
H894 C918 0.950 . S
H895 C919 0.951 . S
H896 C921 0.951 . S
H897 C923 0.950 . S
H898 C924 0.950 . S
H899 C926 0.950 . S
H900 C929 0.950 . S
H901 C930 0.950 . S
H902 C932 0.950 . S
H903 C933 0.950 . S
C904 H886 0.951 . S
C904 C905 1.366 . S
C904 C906 1.388 . S
C905 C904 1.366 . S
C905 C909 1.385 . S
C906 H887 0.951 . S
C906 C904 1.388 . S
C906 C907 1.366 . S
C907 C906 1.366 . S
C907 C908 1.414 . S
C907 C910 1.499 . S
C908 H888 0.950 . S
C908 C907 1.414 . S
C908 C909 1.374 . S
C909 H889 0.950 . S
C909 C905 1.385 . S
C909 C908 1.374 . S
C910 C907 1.499 . S
C910 C911 1.373 . S
C910 C912 1.389 . S
C911 H890 0.950 . S
C911 C910 1.373 . S
C911 C927 1.377 . S
C912 C910 1.389 . S
C912 C913 1.524 . S
C912 C926 1.377 . S
C913 C912 1.524 . S
C913 C914 1.397 . S
C913 C918 1.363 . S
C914 H891 0.950 . S
C914 C913 1.397 . S
C914 C915 1.334 . S
C915 H892 0.950 . S
C915 C914 1.334 . S
C915 C916 1.287 . S
C916 C915 1.287 . S
C916 C917 1.524 . S
C916 H935 0.913 . S
C917 H893 0.950 . S
C917 C916 1.524 . S
C917 C918 1.415 . S
C918 H894 0.950 . S
C918 C913 1.363 . S
C918 C917 1.415 . S
C919 H895 0.951 . S
C919 C920 1.366 . S
C919 C921 1.388 . S
C920 C919 1.366 . S
C920 C924 1.385 . S
C921 H896 0.951 . S
C921 C919 1.388 . S
C921 C922 1.366 . S
C922 C921 1.366 . S
C922 C923 1.414 . S
C922 C925 1.499 . S
C923 H897 0.950 . S
C923 C922 1.414 . S
C923 C924 1.374 . S
C924 H898 0.950 . S
C924 C920 1.385 . S
C924 C923 1.374 . S
C925 C922 1.499 . S
C925 C926 1.373 . S
C925 C927 1.389 . S
C926 H899 0.950 . S
C926 C912 1.377 . S
C926 C925 1.373 . S
C927 C911 1.377 . S
C927 C925 1.389 . S
C927 C928 1.524 . S
C928 C927 1.524 . S
C928 C929 1.397 . S
C928 C933 1.363 . S
C929 H900 0.950 . S
C929 C928 1.397 . S
C929 C930 1.334 . S
C930 H901 0.950 . S
C930 C929 1.334 . S
C930 C931 1.287 . S
C931 C930 1.287 . S
C931 C932 1.524 . S
C931 H934 0.999 . S
C932 H902 0.950 . S
C932 C931 1.524 . S
C932 C933 1.415 . S
C933 H903 0.950 . S
C933 C928 1.363 . S
C933 C932 1.415 . S
H934 C931 0.999 . S
H935 C916 0.913 . S
H936 C954 0.951 . S
H937 C956 0.951 . S
H938 C958 0.950 . S
H939 C959 0.950 . S
H940 C961 0.950 1_565 S
H941 C964 0.950 . S
H942 C965 0.950 . S
H943 C967 0.950 . S
H944 C968 0.950 . S
H945 C969 0.951 . S
H946 C971 0.951 . S
H947 C973 0.950 . S
H948 C974 0.950 . S
H949 C976 0.950 . S
H950 C979 0.950 . S
H951 C980 0.950 . S
H952 C982 0.950 . S
H953 C983 0.950 . S
C954 H936 0.951 . S
C954 C955 1.366 . S
C954 C956 1.388 . S
C955 C954 1.366 . S
C955 C959 1.385 . S
C956 H937 0.951 . S
C956 C954 1.388 . S
C956 C957 1.366 . S
C957 C956 1.366 . S
C957 C958 1.414 . S
C957 C960 1.499 . S
C958 H938 0.950 . S
C958 C957 1.414 . S
C958 C959 1.374 . S
C959 H939 0.950 . S
C959 C955 1.385 . S
C959 C958 1.374 . S
C960 C957 1.499 . S
C960 C961 1.373 . S
C960 C962 1.389 . S
C961 H940 0.950 1_545 S
C961 C960 1.373 . S
C961 C977 1.377 . S
C962 C960 1.389 . S
C962 C963 1.524 . S
C962 C976 1.377 . S
C963 C962 1.524 . S
C963 C964 1.397 . S
C963 C968 1.363 . S
C964 H941 0.950 . S
C964 C963 1.397 . S
C964 C965 1.334 . S
C965 H942 0.950 . S
C965 C964 1.334 . S
C965 C966 1.287 . S
C966 C965 1.287 . S
C966 C967 1.524 . S
C966 H985 0.913 . S
C967 H943 0.950 . S
C967 C966 1.524 . S
C967 C968 1.415 . S
C968 H944 0.950 . S
C968 C963 1.363 . S
C968 C967 1.415 . S
C969 H945 0.951 . S
C969 C970 1.366 . S
C969 C971 1.388 . S
C970 C969 1.366 . S
C970 C974 1.385 . S
C971 H946 0.951 . S
C971 C969 1.388 . S
C971 C972 1.366 . S
C972 C971 1.366 . S
C972 C973 1.414 . S
C972 C975 1.499 . S
C973 H947 0.950 . S
C973 C972 1.414 . S
C973 C974 1.374 . S
C974 H948 0.950 . S
C974 C970 1.385 . S
C974 C973 1.374 . S
C975 C972 1.499 . S
C975 C976 1.373 . S
C975 C977 1.389 . S
C976 H949 0.950 . S
C976 C962 1.377 . S
C976 C975 1.373 . S
C977 C961 1.377 . S
C977 C975 1.389 . S
C977 C978 1.524 1_545 S
C978 C977 1.524 1_565 S
C978 C979 1.397 . S
C978 C983 1.363 . S
C979 H950 0.950 . S
C979 C978 1.397 . S
C979 C980 1.334 . S
C980 H951 0.950 . S
C980 C979 1.334 . S
C980 C981 1.287 . S
C981 C980 1.287 . S
C981 C982 1.524 . S
C981 H984 0.999 . S
C982 H952 0.950 . S
C982 C981 1.524 . S
C982 C983 1.415 . S
C983 H953 0.950 . S
C983 C978 1.363 . S
C983 C982 1.415 . S
H984 C981 0.999 . S
H985 C966 0.913 . S
H986 C1004 0.951 . S
H987 C1006 0.951 . S
H988 C1008 0.950 . S
H989 C1009 0.950 . S
H990 C1011 0.950 . S
H991 C1014 0.950 . S
H992 C1015 0.950 . S
H993 C1017 0.950 . S
H994 C1018 0.950 . S
H995 C1019 0.951 . S
H996 C1021 0.951 . S
H997 C1023 0.950 . S
H998 C1024 0.950 . S
H999 C1026 0.950 1_554 S
H1000 C1029 0.950 . S
H1001 C1030 0.950 . S
H1002 C1032 0.950 . S
H1003 C1033 0.950 . S
C1004 H986 0.951 . S
C1004 C1005 1.366 . S
C1004 C1006 1.388 . S
C1005 C1004 1.366 . S
C1005 C1009 1.385 . S
C1006 H987 0.951 . S
C1006 C1004 1.388 . S
C1006 C1007 1.366 . S
C1007 C1006 1.366 . S
C1007 C1008 1.414 . S
C1007 C1010 1.499 . S
C1008 H988 0.950 . S
C1008 C1007 1.414 . S
C1008 C1009 1.374 . S
C1009 H989 0.950 . S
C1009 C1005 1.385 . S
C1009 C1008 1.374 . S
C1010 C1007 1.499 . S
C1010 C1011 1.373 . S
C1010 C1012 1.389 . S
C1011 H990 0.950 . S
C1011 C1010 1.373 . S
C1011 C1027 1.377 . S
C1012 C1010 1.389 . S
C1012 C1013 1.524 . S
C1012 C1026 1.377 . S
C1013 C1012 1.524 . S
C1013 C1014 1.397 . S
C1013 C1018 1.363 . S
C1014 H991 0.950 . S
C1014 C1013 1.397 . S
C1014 C1015 1.334 . S
C1015 H992 0.950 . S
C1015 C1014 1.334 . S
C1015 C1016 1.287 . S
C1016 C1015 1.287 . S
C1016 C1017 1.524 . S
C1016 H1035 0.913 . S
C1017 H993 0.950 . S
C1017 C1016 1.524 . S
C1017 C1018 1.415 . S
C1018 H994 0.950 . S
C1018 C1013 1.363 . S
C1018 C1017 1.415 . S
C1019 H995 0.951 . S
C1019 C1020 1.366 . S
C1019 C1021 1.388 . S
C1020 C1019 1.366 . S
C1020 C1024 1.385 . S
C1021 H996 0.951 . S
C1021 C1019 1.388 . S
C1021 C1022 1.366 . S
C1022 C1021 1.366 . S
C1022 C1023 1.414 . S
C1022 C1025 1.499 . S
C1023 H997 0.950 . S
C1023 C1022 1.414 . S
C1023 C1024 1.374 . S
C1024 H998 0.950 . S
C1024 C1020 1.385 . S
C1024 C1023 1.374 . S
C1025 C1022 1.499 . S
C1025 C1026 1.373 1_554 S
C1025 C1027 1.389 1_554 S
C1026 H999 0.950 1_556 S
C1026 C1012 1.377 . S
C1026 C1025 1.373 1_556 S
C1027 C1011 1.377 . S
C1027 C1025 1.389 1_556 S
C1027 C1028 1.524 . S
C1028 C1027 1.524 . S
C1028 C1029 1.397 1_556 S
C1028 C1033 1.363 . S
C1029 H1000 0.950 . S
C1029 C1028 1.397 1_554 S
C1029 C1030 1.334 . S
C1030 H1001 0.950 . S
C1030 C1029 1.334 . S
C1030 C1031 1.287 1_554 S
C1031 C1030 1.287 1_556 S
C1031 C1032 1.524 . S
C1031 H1034 0.999 1_556 S
C1032 H1002 0.950 . S
C1032 C1031 1.524 . S
C1032 C1033 1.415 . S
C1033 H1003 0.950 . S
C1033 C1028 1.363 . S
C1033 C1032 1.415 . S
H1034 C1031 0.999 1_554 S
H1035 C1016 0.913 . S
H1036 C1054 0.951 1_655 S
H1037 C1056 0.951 1_655 S
H1038 C1058 0.950 . S
H1039 C1059 0.950 . S
H1040 C1061 0.950 . S
H1041 C1064 0.950 . S
H1042 C1065 0.950 . S
H1043 C1067 0.950 . S
H1044 C1068 0.950 . S
H1045 C1069 0.951 . S
H1046 C1071 0.951 . S
H1047 C1073 0.950 . S
H1048 C1074 0.950 . S
H1049 C1076 0.950 . S
H1050 C1079 0.950 . S
H1051 C1080 0.950 . S
H1052 C1082 0.950 . S
H1053 C1083 0.950 . S
C1054 H1036 0.951 1_455 S
C1054 C1055 1.366 . S
C1054 C1056 1.388 . S
C1055 C1054 1.366 . S
C1055 C1059 1.385 . S
C1056 H1037 0.951 1_455 S
C1056 C1054 1.388 . S
C1056 C1057 1.366 . S
C1057 C1056 1.366 . S
C1057 C1058 1.414 . S
C1057 C1060 1.499 . S
C1058 H1038 0.950 . S
C1058 C1057 1.414 . S
C1058 C1059 1.374 . S
C1059 H1039 0.950 . S
C1059 C1055 1.385 . S
C1059 C1058 1.374 . S
C1060 C1057 1.499 . S
C1060 C1061 1.373 . S
C1060 C1062 1.389 1_455 S
C1061 H1040 0.950 . S
C1061 C1060 1.373 . S
C1061 C1077 1.377 . S
C1062 C1060 1.389 1_655 S
C1062 C1063 1.524 . S
C1062 C1076 1.377 . S
C1063 C1062 1.524 . S
C1063 C1064 1.397 . S
C1063 C1068 1.363 . S
C1064 H1041 0.950 . S
C1064 C1063 1.397 . S
C1064 C1065 1.334 . S
C1065 H1042 0.950 . S
C1065 C1064 1.334 . S
C1065 C1066 1.287 . S
C1066 C1065 1.287 . S
C1066 C1067 1.524 . S
C1066 H1085 0.913 . S
C1067 H1043 0.950 . S
C1067 C1066 1.524 . S
C1067 C1068 1.415 . S
C1068 H1044 0.950 . S
C1068 C1063 1.363 . S
C1068 C1067 1.415 . S
C1069 H1045 0.951 . S
C1069 C1070 1.366 . S
C1069 C1071 1.388 . S
C1070 C1069 1.366 . S
C1070 C1074 1.385 1_455 S
C1071 H1046 0.951 . S
C1071 C1069 1.388 . S
C1071 C1072 1.366 . S
C1072 C1071 1.366 . S
C1072 C1073 1.414 1_455 S
C1072 C1075 1.499 . S
C1073 H1047 0.950 . S
C1073 C1072 1.414 1_655 S
C1073 C1074 1.374 . S
C1074 H1048 0.950 . S
C1074 C1070 1.385 1_655 S
C1074 C1073 1.374 . S
C1075 C1072 1.499 . S
C1075 C1076 1.373 1_455 S
C1075 C1077 1.389 . S
C1076 H1049 0.950 . S
C1076 C1062 1.377 . S
C1076 C1075 1.373 1_655 S
C1077 C1061 1.377 . S
C1077 C1075 1.389 . S
C1077 C1078 1.524 . S
C1078 C1077 1.524 . S
C1078 C1079 1.397 . S
C1078 C1083 1.363 . S
C1079 H1050 0.950 . S
C1079 C1078 1.397 . S
C1079 C1080 1.334 . S
C1080 H1051 0.950 . S
C1080 C1079 1.334 . S
C1080 C1081 1.287 . S
C1081 C1080 1.287 . S
C1081 C1082 1.524 . S
C1081 H1084 0.999 . S
C1082 H1052 0.950 . S
C1082 C1081 1.524 . S
C1082 C1083 1.415 . S
C1083 H1053 0.950 . S
C1083 C1078 1.363 . S
C1083 C1082 1.415 . S
H1084 C1081 0.999 . S
H1085 C1066 0.913 . S
C205 C7 0.584 . S
C220 C185 0.585 . S
C255 C51 1.930 . S
C270 C163 1.884 . S
C305 C87 1.230 . S
C320 C174 1.219 . S
C355 C16 0.255 . S
C370 C179 0.191 . S
C420 C157 1.822 . S
C405 C42 1.848 . S
C470 C168 1.124 . S
C455 C96 1.131 . S
C505 C47 1.271 . S
C520 C141 1.261 . S
C555 C91 3.005 . S
C570 C146 2.964 1_655 S
C605 C2 1.862 . S
C620 C124 1.846 1_565 S
C670 C135 1.107 . S
C655 C56 1.112 . S
C720 C152 2.973 . S
C705 C82 3.008 . S
C755 C11 1.931 . S
C770 C130 1.893 . S
C820 C147 1.714 . S
C805 C19 1.685 . S
C855 C50 1.428 . S
C870 C125 1.478 . S
C905 C99 1.519 . S
C920 C136 1.546 . S
C970 C169 1.528 . S
C955 C59 1.519 . S
C1020 C180 1.299 . S
C1005 C90 1.275 . S
C1055 C10 1.406 . S
C1070 C158 1.445 . S
