# Generated by pormake.
# Topology anh, (6,3)-cn, num edge types: 1
# Building blocks:
#     Node 0, Type 0, BuildingBlock: HISSIN_clean_sbu_0, # of connection points: 6
#     Node 1, Type 0, BuildingBlock: HISSIN_clean_sbu_0, # of connection points: 6
#     Node 2, Type 0, BuildingBlock: HISSIN_clean_sbu_0, # of connection points: 6
#     Node 3, Type 1, BuildingBlock: BETDIP_clean_linker_0, # of connection points: 3
#     Node 4, Type 1, BuildingBlock: BETDIP_clean_linker_0, # of connection points: 3
#     Node 5, Type 1, BuildingBlock: BETDIP_clean_linker_0, # of connection points: 3
#     Node 6, Type 1, BuildingBlock: BETDIP_clean_linker_0, # of connection points: 3
#     Node 7, Type 1, BuildingBlock: BETDIP_clean_linker_0, # of connection points: 3
#     Node 8, Type 1, BuildingBlock: BETDIP_clean_linker_0, # of connection points: 3
#     Edge 9, Type (0, 1), BuildingBlock: XIVTED_clean_linker_0, # of connection points: 2
#     Edge 10, Type (0, 1), BuildingBlock: XIVTED_clean_linker_0, # of connection points: 2
#     Edge 11, Type (0, 1), BuildingBlock: XIVTED_clean_linker_0, # of connection points: 2
#     Edge 12, Type (0, 1), BuildingBlock: XIVTED_clean_linker_0, # of connection points: 2
#     Edge 13, Type (0, 1), BuildingBlock: XIVTED_clean_linker_0, # of connection points: 2
#     Edge 14, Type (0, 1), BuildingBlock: XIVTED_clean_linker_0, # of connection points: 2
#     Edge 15, Type (0, 1), BuildingBlock: XIVTED_clean_linker_0, # of connection points: 2
#     Edge 16, Type (0, 1), BuildingBlock: XIVTED_clean_linker_0, # of connection points: 2
#     Edge 17, Type (0, 1), BuildingBlock: XIVTED_clean_linker_0, # of connection points: 2
#     Edge 18, Type (0, 1), BuildingBlock: XIVTED_clean_linker_0, # of connection points: 2
#     Edge 19, Type (0, 1), BuildingBlock: XIVTED_clean_linker_0, # of connection points: 2
#     Edge 20, Type (0, 1), BuildingBlock: XIVTED_clean_linker_0, # of connection points: 2
#     Edge 21, Type (0, 1), BuildingBlock: XIVTED_clean_linker_0, # of connection points: 2
#     Edge 22, Type (0, 1), BuildingBlock: XIVTED_clean_linker_0, # of connection points: 2
#     Edge 23, Type (0, 1), BuildingBlock: XIVTED_clean_linker_0, # of connection points: 2
#     Edge 24, Type (0, 1), BuildingBlock: XIVTED_clean_linker_0, # of connection points: 2
#     Edge 25, Type (0, 1), BuildingBlock: XIVTED_clean_linker_0, # of connection points: 2
#     Edge 26, Type (0, 1), BuildingBlock: XIVTED_clean_linker_0, # of connection points: 2
# Relax obj value: 0.248
# Max RMSD: 0.191
# Mean RMSD: 0.125
data_MOF--net-anh--node1-HISSIN_clean_sbu_0--node2-BETDIP_clean_linker_0--edge1-XIVTED_clean_linker_0
_symmetry_space_group_name_H-M    P1
_symmetry_Int_Tables_number       1
_symmetry_cell_setting            triclinic
loop_
_symmetry_equiv_pos_as_xyz
'x, y, z'
_cell_length_a     30.813951
_cell_length_b     30.748142
_cell_length_c     50.451058
_cell_angle_alpha  96.013563
_cell_angle_beta   89.099105
_cell_angle_gamma 119.90764
loop_
_atom_site_label
_atom_site_type_symbol
_atom_site_fract_x
_atom_site_fract_y
_atom_site_fract_z
_atom_type_partial_charge
Eu0 Eu 1.09895 0.52805 0.14107 0.0
Eu1 Eu 0.15955 0.64881 0.15506 0.0
C2 C 1.11261 0.57889 0.20214 0.0
C3 C 0.99537 0.39817 0.14529 0.0
C4 C 0.9953 0.39607 0.17302 0.0
C5 C 0.9049 0.36089 0.14445 0.0
C6 C 0.9507 0.37877 0.18645 0.0
C7 C 0.94944 0.37772 0.13099 0.0
C8 C 0.90543 0.36365 0.17248 0.0
C9 C 1.04229 0.4305 0.13228 0.0
O10 O 0.22096 0.62752 0.15879 0.0
O11 O 0.18033 0.54672 0.13729 0.0
C12 C 0.2218 0.5868 0.14783 0.0
O13 O 1.11554 0.56068 0.10111 0.0
O14 O 0.21279 0.71963 0.17825 0.0
O15 O 0.16754 0.71968 0.14566 0.0
O16 O 0.18517 0.63566 0.11526 0.0
C17 C 0.15696 0.60154 0.09605 0.0
O18 O 1.03803 0.54866 0.15072 0.0
O19 O 1.08187 0.62779 0.13848 0.0
O20 O 0.12216 0.62088 0.19295 0.0
O21 O 1.03987 0.46162 0.11746 0.0
O22 O 1.08347 0.45243 0.14724 0.0
O23 O 1.11005 0.54095 0.18622 0.0
C24 C 0.24689 0.79074 0.154 0.0
C25 C 0.28674 0.7874 0.14207 0.0
C26 C 0.28702 0.87896 0.14719 0.0
C27 C 0.3273 0.83026 0.13324 0.0
C28 C 0.24689 0.83639 0.15609 0.0
C29 C 0.32804 0.87666 0.13599 0.0
C30 C 0.2038 0.74691 0.16344 0.0
C31 C 1.03868 0.58895 0.14364 0.0
H32 H 1.02999 0.41107 0.18469 0.0
H33 H 0.87082 0.34961 0.13298 0.0
H34 H 0.95219 0.38002 0.20797 0.0
H35 H 0.94842 0.37875 0.10962 0.0
H36 H 0.28671 0.75195 0.13989 0.0
H37 H 0.28679 0.91424 0.15021 0.0
H38 H 0.35835 0.82737 0.1247 0.0
H39 H 0.21607 0.83933 0.165 0.0
Eu40 Eu 0.6027 1.02207 0.47646 0.0
Eu41 Eu 0.53957 0.08027 0.48268 0.0
C42 C 0.58234 1.05898 0.53423 0.0
C43 C 0.66458 0.94336 0.4879 0.0
C44 C 0.6841 0.9605 0.5143 0.0
C45 C 0.6769 0.87155 0.48927 0.0
C46 C 0.70179 0.93454 0.52764 0.0
C47 C 0.65983 0.89798 0.47578 0.0
C48 C 0.6998 0.89052 0.51502 0.0
C49 C 0.65353 0.97463 0.4721 0.0
O50 O 0.61771 0.14065 0.47217 0.0
O51 O 0.66367 0.10566 0.48414 0.0
C52 C 0.66151 0.14493 0.47747 0.0
O53 O 0.60267 1.04965 0.43677 0.0
O54 O 0.50077 0.11446 0.50523 0.0
O55 O 0.50878 0.11906 0.46275 0.0
O56 O 0.52564 1.04048 0.44125 0.0
C57 C 0.56302 1.04752 0.42626 0.0
O58 O 0.52008 0.9591 0.47023 0.0
O59 O 0.47896 0.99967 0.48816 0.0
O60 O 0.57752 0.09305 0.523 0.0
O61 O 0.60813 0.95511 0.46197 0.0
O62 O 0.67225 1.0218 0.48157 0.0
O63 O 0.58285 1.02134 0.51968 0.0
C64 C 0.52848 0.19359 0.48917 0.0
C65 C 0.52279 0.22119 0.47037 0.0
C66 C 0.60444 0.26906 0.50709 0.0
C67 C 0.55856 0.27211 0.46945 0.0
C68 C 0.56892 0.21842 0.50798 0.0
C69 C 0.60066 0.29597 0.48725 0.0
C70 C 0.50024 0.13801 0.4852 0.0
C71 C 0.47854 0.95766 0.47878 0.0
H72 H 0.68782 0.99522 0.52428 0.0
H73 H 0.67355 0.8371 0.47917 0.0
H74 H 0.7195 0.95069 0.5473 0.0
H75 H 0.64451 0.88388 0.45552 0.0
H76 H 0.49243 0.20255 0.45536 0.0
H77 H 0.63574 0.28676 0.52154 0.0
H78 H 0.55461 0.29196 0.45399 0.0
H79 H 0.57488 0.1981 0.52248 0.0
Eu80 Eu 0.54286 0.52912 0.81072 0.0
Eu81 Eu 0.6632 0.59125 0.81888 0.0
C82 C 0.59613 0.57145 0.86996 0.0
C83 C 0.41537 0.50325 0.8222 0.0
C84 C 0.4322 0.52755 0.84815 0.0
C85 C 0.3596 0.53754 0.82136 0.0
C86 C 0.41485 0.55858 0.86004 0.0
C87 C 0.37737 0.50663 0.80933 0.0
C88 C 0.3802 0.56599 0.84625 0.0
C89 C 0.44571 0.48572 0.80683 0.0
O90 O 0.64277 0.50932 0.82279 0.0
O91 O 0.56402 0.46763 0.80251 0.0
C92 C 0.60337 0.46699 0.81208 0.0
O93 O 0.57485 0.55125 0.77033 0.0
O94 O 0.73398 0.61343 0.83963 0.0
O95 O 0.7333 0.64879 0.80462 0.0
O96 O 0.64648 0.54978 0.77799 0.0
C97 C 0.61392 0.54893 0.76146 0.0
O98 O 0.5608 0.61058 0.8215 0.0
O99 O 0.64127 0.64874 0.80812 0.0
O100 O 0.63718 0.60359 0.85926 0.0
O101 O 0.47499 0.51679 0.79039 0.0
O102 O 0.4691 0.46926 0.82047 0.0
O103 O 0.55821 0.53509 0.85513 0.0
C104 C 0.80608 0.64384 0.81295 0.0
C105 C 0.83379 0.67452 0.79323 0.0
C106 C 0.87297 0.62574 0.8199 0.0
C107 C 0.88135 0.68205 0.78753 0.0
C108 C 0.82537 0.61813 0.82558 0.0
C109 C 0.90226 0.6594 0.80161 0.0
C110 C 0.76072 0.64426 0.82235 0.0
C111 C 0.60059 0.65091 0.81433 0.0
H112 H 0.46204 0.52621 0.85844 0.0
H113 H 0.33207 0.54156 0.81043 0.0
H114 H 0.43213 0.58009 0.87904 0.0
H115 H 0.36418 0.48848 0.78922 0.0
H116 H 0.81985 0.69487 0.78319 0.0
H117 H 0.88819 0.60818 0.83138 0.0
H118 H 0.90285 0.70778 0.77315 0.0
H119 H 0.80499 0.59432 0.8409 0.0
H120 H 0.52757 0.24883 0.2017 0.0
H121 H 0.57435 0.27492 0.28435 0.0
H122 H 0.5534 0.14124 0.23636 0.0
H123 H 0.60538 0.39383 0.2597 0.0
C124 C 0.60257 0.36033 0.24853 0.0
C125 C 0.53816 0.23677 0.21869 0.0
C126 C 0.54103 0.19239 0.21579 0.0
C127 C 0.55172 0.26721 0.24318 0.0
C128 C 0.56474 0.25153 0.26536 0.0
C129 C 0.56495 0.20574 0.26311 0.0
C130 C 0.5543 0.17713 0.23812 0.0
N131 N 0.55523 0.31519 0.24518 0.0
H132 H 0.90584 0.68144 0.54361 0.0
H133 H 0.86 0.71491 0.62056 0.0
H134 H 0.76179 0.57742 0.57136 0.0
H135 H 0.96281 0.82589 0.6069 0.0
C136 C 0.93297 0.7965 0.59357 0.0
C137 C 0.87831 0.67109 0.55886 0.0
C138 C 0.83224 0.62618 0.55472 0.0
C139 C 0.88776 0.70372 0.58237 0.0
C140 C 0.85189 0.69021 0.60212 0.0
C141 C 0.80682 0.64397 0.59856 0.0
C142 C 0.79702 0.61278 0.57458 0.0
N143 N 0.93304 0.75072 0.58594 0.0
H144 H 0.27782 0.85936 0.8745 0.0
H145 H 0.32102 0.82818 0.9472 0.0
H146 H 0.17564 0.72504 0.90968 0.0
H147 H 0.42948 0.92284 0.92286 0.0
C148 C 0.39603 0.89085 0.91307 0.0
C149 C 0.26852 0.83539 0.8904 0.0
C150 C 0.22316 0.78939 0.8891 0.0
C151 C 0.30354 0.84914 0.91137 0.0
C152 C 0.29277 0.81745 0.93154 0.0
C153 C 0.24653 0.77236 0.93135 0.0
C154 C 0.21203 0.75881 0.90992 0.0
N155 N 0.35129 0.89321 0.91118 0.0
H156 H 1.11442 0.58876 0.47945 0.0
H157 H 1.03301 0.5096 0.40474 0.0
H158 H 0.17499 0.6458 0.40492 0.0
H159 H 0.96623 0.49812 0.4333 0.0
C160 C 0.97582 0.47995 0.44768 0.0
C161 C 1.11121 0.58569 0.45791 0.0
C162 C 0.15048 0.6231 0.44379 0.0
C163 C 1.06766 0.54426 0.44393 0.0
C164 C 1.06505 0.54095 0.41583 0.0
C165 C 1.10321 0.57754 0.40174 0.0
C166 C 0.1453 0.61797 0.41587 0.0
N167 N 1.02736 0.50557 0.45763 0.0
H168 H 0.60426 0.10087 0.81321 0.0
H169 H 0.60208 1.01581 0.73903 0.0
H170 H 0.59526 0.152 0.73831 0.0
H171 H 0.54485 0.94912 0.76705 0.0
C172 C 0.57515 0.9609 0.78177 0.0
C173 C 0.60295 0.09609 0.79162 0.0
C174 C 0.60036 0.1325 0.77726 0.0
C175 C 0.60169 1.0523 0.77782 0.0
C176 C 0.60054 1.04742 0.74969 0.0
C177 C 0.59923 0.08357 0.73521 0.0
C178 C 0.5982 0.12502 0.74927 0.0
N179 N 0.60246 1.01381 0.79181 0.0
H180 H 0.58719 0.58453 0.14798 0.0
H181 H 0.65846 0.58396 0.0736 0.0
H182 H 0.51728 0.57992 0.0735 0.0
H183 H 0.72932 0.63998 0.10269 0.0
C184 C 0.72142 0.61233 0.11652 0.0
C185 C 0.58764 0.5842 0.1265 0.0
C186 C 0.54655 0.58204 0.11233 0.0
C187 C 0.62937 0.58593 0.11263 0.0
C188 C 0.62836 0.5847 0.08462 0.0
C189 C 0.58817 0.58227 0.07041 0.0
C190 C 0.54792 0.58105 0.08444 0.0
N191 N 0.67125 0.58723 0.12623 0.0
H192 H 0.31914 0.66394 0.16302 0.0
H193 H 0.45055 0.50237 0.10844 0.0
H194 H 0.23807 0.50876 0.12829 0.0
H195 H 0.53594 0.65761 0.14196 0.0
H196 H 0.37294 0.50316 0.11895 0.0
H197 H 0.39798 0.66212 0.15825 0.0
C198 C 0.31759 0.62933 0.15453 0.0
C199 C 0.27101 0.58642 0.1461 0.0
C200 C 0.40848 0.53697 0.12451 0.0
C201 C 0.36244 0.58414 0.14051 0.0
C202 C 0.45307 0.5363 0.11879 0.0
C203 C 0.50041 0.57952 0.12493 0.0
C204 C 0.41027 0.58154 0.13622 0.0
C205 C 0.50068 0.62291 0.13749 0.0
C206 C 0.36294 0.62838 0.15178 0.0
C207 C 0.27242 0.54297 0.13514 0.0
N208 N 0.45665 0.62288 0.14254 0.0
N209 N 0.31682 0.54305 0.13268 0.0
H210 H 0.67127 0.23126 0.4598 0.0
H211 H 0.97417 0.40358 0.47564 0.0
H212 H 0.76164 0.17426 0.48929 0.0
H213 H 0.8772 0.44391 0.43752 0.0
H214 H 0.89932 0.32251 0.48405 0.0
H215 H 0.74742 0.31089 0.45443 0.0
C216 C 0.70703 0.23527 0.4653 0.0
C217 C 0.70917 0.19498 0.47499 0.0
C218 C 0.89449 0.3493 0.47397 0.0
C219 C 0.79843 0.28844 0.4691 0.0
C220 C 0.93737 0.39588 0.4693 0.0
C221 C 0.93245 0.43129 0.45587 0.0
C222 C 0.84608 0.33792 0.46535 0.0
C223 C 0.88336 0.4183 0.44795 0.0
C224 C 0.75092 0.28124 0.46221 0.0
C225 C 0.75751 0.2037 0.48169 0.0
N226 N 0.84279 0.37342 0.45278 0.0
N227 N 0.79984 0.2491 0.47869 0.0
H228 H 0.67882 0.7475 0.80832 0.0
H229 H 0.50235 0.86348 0.78268 0.0
H230 H 0.51862 0.6655 0.81535 0.0
H231 H 0.66014 0.9602 0.8015 0.0
H232 H 0.50902 0.79074 0.7925 0.0
H233 H 0.67457 0.82429 0.8036 0.0
C234 C 0.64269 0.7454 0.80895 0.0
C235 C 0.59902 0.69915 0.81227 0.0
C236 C 0.54228 0.82776 0.79479 0.0
C237 C 0.59389 0.78804 0.80648 0.0
C238 C 0.53849 0.86966 0.78925 0.0
C239 C 0.58051 0.91869 0.79155 0.0
C240 C 0.58895 0.83375 0.80214 0.0
C241 C 0.62643 0.92357 0.79983 0.0
C242 C 0.64038 0.78959 0.80631 0.0
C243 C 0.55348 0.69971 0.8129 0.0
N244 N 0.6295 0.88178 0.80449 0.0
N245 N 0.55216 0.74284 0.80982 0.0
H246 H 1.02629 0.66432 0.12628 0.0
H247 H 0.72637 0.53783 0.14338 0.0
H248 H 0.94014 0.51867 0.15494 0.0
H249 H 0.81834 0.67264 0.10593 0.0
H250 H 0.80191 0.53051 0.15089 0.0
H251 H 0.94969 0.66841 0.12171 0.0
C252 C 0.99133 0.63301 0.13168 0.0
C253 C 0.99056 0.59102 0.14099 0.0
C254 C 0.80549 0.56181 0.14115 0.0
C255 C 0.90065 0.59562 0.1358 0.0
C256 C 0.76225 0.56615 0.13699 0.0
C257 C 0.76554 0.60616 0.12406 0.0
C258 C 0.85264 0.59788 0.1325 0.0
C259 C 0.81343 0.64119 0.11603 0.0
C260 C 0.94715 0.63538 0.12903 0.0
C261 C 0.9432 0.5519 0.14761 0.0
N262 N 0.85436 0.63628 0.12036 0.0
N263 N 0.90052 0.55515 0.14493 0.0
H264 H 0.38281 0.93763 0.4923 0.0
H265 H 0.24614 0.6393 0.44103 0.0
H266 H 0.46121 0.86164 0.46062 0.0
H267 H 0.16491 0.7121 0.47234 0.0
H268 H 0.32511 0.71902 0.45129 0.0
H269 H 0.30403 0.85616 0.48771 0.0
C270 C 0.38379 0.90399 0.48447 0.0
C271 C 0.4296 0.90741 0.47684 0.0
C272 C 0.29025 0.71767 0.45643 0.0
C273 C 0.33807 0.81257 0.47149 0.0
C274 C 0.24492 0.67171 0.45086 0.0
C275 C 0.19832 0.66802 0.45646 0.0
C276 C 0.28987 0.76154 0.46741 0.0
C277 C 0.19963 0.71233 0.46833 0.0
C278 C 0.33845 0.85718 0.48185 0.0
C279 C 0.42745 0.8617 0.4668 0.0
N280 N 0.24426 0.75693 0.47322 0.0
N281 N 0.38296 0.81681 0.46441 0.0
H282 H 0.6796 0.44822 0.82549 0.0
H283 H 0.52105 0.14892 0.77632 0.0
H284 H 0.52723 0.37097 0.79371 0.0
H285 H 0.67545 0.22268 0.80386 0.0
H286 H 0.52153 0.2289 0.78647 0.0
H287 H 0.67833 0.367 0.82087 0.0
C288 C 0.64575 0.41438 0.81763 0.0
C289 C 0.60346 0.4173 0.80999 0.0
C290 C 0.55523 0.22777 0.79079 0.0
C291 C 0.60175 0.32293 0.80468 0.0
C292 C 0.55476 0.18167 0.78528 0.0
C293 C 0.59786 0.17819 0.78983 0.0
C294 C 0.59944 0.27196 0.80071 0.0
C295 C 0.64089 0.22284 0.80065 0.0
C296 C 0.6451 0.36775 0.81499 0.0
C297 C 0.56093 0.37142 0.79989 0.0
N298 N 0.64066 0.26759 0.80555 0.0
N299 N 0.56125 0.32678 0.79757 0.0
H300 H 0.70916 0.88221 0.56838 0.0
H301 H 0.88814 0.76482 0.54363 0.0
H302 H 0.75178 0.84792 0.49034 0.0
H303 H 0.89173 0.84999 0.61793 0.0
H304 H 0.82466 0.78012 0.52551 0.0
H305 H 0.76284 0.8557 0.58842 0.0
C306 C 0.72944 0.8689 0.55541 0.0
C307 C 0.72613 0.86785 0.52755 0.0
C308 C 0.83905 0.79522 0.54584 0.0
C309 C 0.78681 0.83672 0.55044 0.0
C310 C 0.87497 0.78617 0.55626 0.0
C311 C 0.89452 0.80564 0.58244 0.0
C312 C 0.82253 0.82396 0.56169 0.0
C313 C 0.87735 0.83436 0.59766 0.0
C314 C 0.75994 0.85369 0.56691 0.0
C315 C 0.75241 0.84895 0.51184 0.0
N316 N 0.84206 0.84259 0.58709 0.0
N317 N 0.78172 0.83436 0.52351 0.0
H318 H 0.94985 0.60386 0.80168 0.0
H319 H 0.19446 0.84659 0.86406 0.0
H320 H 0.97871 0.75632 0.8012 0.0
H321 H 0.169 0.69495 0.86218 0.0
H322 H 0.1251 0.81582 0.83133 0.0
H323 H 1.03831 0.63738 0.81356 0.0
C324 C 0.97503 0.64431 0.80347 0.0
C325 C 0.95666 0.67734 0.80107 0.0
C326 C 0.13515 0.78935 0.83774 0.0
C327 C 1.05756 0.71598 0.81495 0.0
C328 C 0.17487 0.80698 0.85639 0.0
C329 C 0.18657 0.77302 0.86638 0.0
C330 C 1.10672 0.73738 0.82926 0.0
C331 C 0.16005 0.72212 0.85566 0.0
C332 C 1.02552 0.66347 0.81023 0.0
C333 C 0.99107 0.72937 0.80301 0.0
N334 N 0.1208 0.70567 0.83803 0.0
N335 N 1.03964 0.74712 0.81041 0.0
H336 H 0.42545 0.90595 0.14848 0.0
H337 H 0.58937 0.1465 0.19054 0.0
H338 H 0.33447 0.95647 0.11277 0.0
H339 H 0.45874 0.16217 0.18314 0.0
H340 H 0.55265 1.07453 0.15597 0.0
H341 H 0.49392 0.9922 0.15486 0.0
C342 C 0.42055 0.93498 0.14091 0.0
C343 C 0.37362 0.92426 0.13095 0.0
C344 C 0.53214 0.09389 0.16171 0.0
C345 C 0.45198 1.02389 0.1385 0.0
C346 C 0.55323 0.13515 0.1813 0.0
C347 C 0.52611 0.15896 0.19034 0.0
C348 C 0.4832 1.0759 0.15161 0.0
C349 C 0.48043 0.14419 0.17712 0.0
C350 C 0.45995 0.9847 0.14457 0.0
C351 C 0.36958 0.96349 0.12148 0.0
N352 N 0.45984 0.10277 0.15883 0.0
N353 N 0.40771 1.01185 0.12628 0.0
H354 H 0.59262 0.37817 0.47804 0.0
H355 H 0.77718 0.61949 0.51151 0.0
H356 H 0.70159 0.33294 0.49153 0.0
H357 H 0.85358 0.5509 0.54423 0.0
H358 H 0.72643 0.54174 0.48206 0.0
H359 H 0.65954 0.4657 0.48165 0.0
C360 C 0.63089 0.38663 0.48106 0.0
C361 C 0.64141 0.34836 0.48512 0.0
C362 C 0.75463 0.54358 0.49534 0.0
C363 C 0.71899 0.44883 0.48897 0.0
C364 C 0.78443 0.58846 0.51166 0.0
C365 C 0.81908 0.59102 0.53028 0.0
C366 C 0.75883 0.50086 0.49845 0.0
C367 C 0.82709 0.55007 0.53005 0.0
C368 C 0.66948 0.43688 0.48297 0.0
C369 C 0.69167 0.36146 0.489 0.0
N370 N 0.79631 0.50616 0.51482 0.0
N371 N 0.72841 0.41058 0.49129 0.0
H372 H 0.37017 0.63037 0.81653 0.0
H373 H 0.43063 0.83943 0.93852 0.0
H374 H 0.37461 0.60106 0.89809 0.0
H375 H 0.36056 0.8366 0.86462 0.0
H376 H 0.42074 0.75632 0.92272 0.0
H377 H 0.37291 0.70906 0.83276 0.0
C378 C 0.37051 0.63969 0.83784 0.0
C379 C 0.37238 0.60884 0.85594 0.0
C380 C 0.40763 0.77403 0.91 0.0
C381 C 0.37768 0.70026 0.87457 0.0
C382 C 0.41386 0.82149 0.91885 0.0
C383 C 0.39625 0.84428 0.90278 0.0
C384 C 0.38462 0.7502 0.88476 0.0
C385 C 0.3743 0.81975 0.87756 0.0
C386 C 0.37271 0.68507 0.84708 0.0
C387 C 0.37411 0.62401 0.88337 0.0
N388 N 0.3692 0.77399 0.86926 0.0
N389 N 0.37743 0.66902 0.89187 0.0
H390 H 0.90295 0.41893 0.21819 0.0
H391 H 0.61295 0.32193 0.19921 0.0
H392 H 0.80591 0.29582 0.15956 0.0
H393 H 0.6957 0.40398 0.27274 0.0
H394 H 0.6855 0.31698 0.18304 0.0
H395 H 0.82949 0.41695 0.23811 0.0
C396 C 0.86621 0.3907 0.2098 0.0
C397 C 0.86075 0.35755 0.18701 0.0
C398 C 0.6878 0.33567 0.20282 0.0
C399 C 0.77662 0.35644 0.20931 0.0
C400 C 0.6463 0.33819 0.21211 0.0
C401 C 0.648 0.36169 0.2377 0.0
C402 C 0.73183 0.35803 0.219 0.0
C403 C 0.69299 0.38498 0.253 0.0
C404 C 0.82431 0.39 0.22108 0.0
C405 C 0.81208 0.32268 0.17678 0.0
N406 N 0.73332 0.38249 0.24344 0.0
N407 N 0.77196 0.32341 0.18782 0.0
H408 H 0.25003 0.66505 0.08069 0.0
H409 H 0.18684 0.66823 0.92994 0.0
H410 H 1.09848 0.56642 0.04907 0.0
H411 H 0.27665 0.80265 0.9843 0.0
H412 H 0.1644 0.61802 0.96777 0.0
H413 H 0.27269 0.70067 0.03846 0.0
C414 C 0.22159 0.65021 0.06468 0.0
C415 C 0.17192 0.61343 0.0686 0.0
C416 C 0.1892 0.6585 0.97112 0.0
C417 C 0.19807 0.6542 0.02012 0.0
C418 C 0.20186 0.68743 0.94965 0.0
C419 C 0.23388 0.74024 0.95369 0.0
C420 C 0.2098 0.68231 -0.00339 0.0
C421 C 0.25295 0.76226 0.97976 0.0
C422 C 0.23466 0.67072 0.04063 0.0
C423 C 0.13706 0.59499 0.0469 0.0
N424 N 0.24087 0.7332 9e-05 0.0
N425 N 0.15066 0.61611 0.02351 0.0
H426 H 0.63827 1.07538 0.3906 0.0
H427 H 0.62244 0.16182 0.26911 0.0
H428 H 0.49158 1.05857 0.40148 0.0
H429 H 0.52136 0.20103 0.31092 0.0
H430 H 0.62444 0.11881 0.30688 0.0
H431 H 0.64461 0.11506 0.35005 0.0
C432 C 0.60695 0.07898 0.38416 0.0
C433 C 0.56431 1.06353 0.39948 0.0
C434 C 0.60268 0.1377 0.30805 0.0
C435 C 0.57133 0.10901 0.35319 0.0
C436 C 0.60129 0.16198 0.28644 0.0
C437 C 0.57191 0.18525 0.28699 0.0
C438 C 0.57414 0.13643 0.33025 0.0
C439 C 0.54508 0.18425 0.30984 0.0
C440 C 0.61059 0.10163 0.36096 0.0
C441 C 0.52516 1.06977 0.39035 0.0
N442 N 0.54644 0.15978 0.33042 0.0
N443 N 0.52991 0.09255 0.36801 0.0
H444 H 0.60633 0.60965 0.72813 0.0
H445 H 0.76296 0.55158 0.6164 0.0
H446 H 0.65374 0.50003 0.7319 0.0
H447 H 0.76939 0.69563 0.6298 0.0
H448 H 0.70492 0.52189 0.6524 0.0
H449 H 0.64731 0.63035 0.68532 0.0
C450 C 0.62397 0.58888 0.7195 0.0
C451 C 0.62679 0.5531 0.73335 0.0
C452 C 0.71874 0.55989 0.64737 0.0
C453 C 0.67369 0.57668 0.68503 0.0
C454 C 0.75173 0.57682 0.6268 0.0
C455 C 0.77104 0.62618 0.6202 0.0
C456 C 0.70463 0.59238 0.66143 0.0
C457 C 0.75568 0.65748 0.63451 0.0
C458 C 0.64781 0.60112 0.69534 0.0
C459 C 0.65086 0.52787 0.72173 0.0
N460 N 0.72327 0.64004 0.65454 0.0
N461 N 0.67355 0.54027 0.69828 0.0
H462 H 0.60551 0.14137 0.57032 0.0
H463 H 0.55315 0.9967 0.6996 0.0
H464 H 0.56941 0.98586 0.5656 0.0
H465 H 0.64455 0.15877 0.7021 0.0
H466 H 0.55125 0.99034 0.65081 0.0
H467 H 0.61147 0.14695 0.619 0.0
C468 C 0.59883 0.10837 0.57949 0.0
C469 C 0.58698 1.06308 0.56379 0.0
C470 C 0.57178 1.02723 0.66212 0.0
C471 C 0.59326 1.06912 0.61963 0.0
C472 C 0.57316 1.03096 0.69004 0.0
C473 C 0.59878 0.07843 0.7053 0.0
C474 C 0.5956 1.07126 0.64923 0.0
C475 C 0.62323 0.12138 0.69145 0.0
C476 C 0.60241 0.11165 0.6073 0.0
C477 C 0.57884 1.0216 0.57688 0.0
N478 N 0.6207 0.11678 0.66434 0.0
N479 N 0.58175 1.02549 0.60402 0.0
H480 H 0.67002 0.63744 0.90691 0.0
H481 H 0.50972 0.52327 0.03405 0.0
H482 H 0.51726 0.514 0.90067 0.0
H483 H 0.66614 0.63773 0.03899 0.0
H484 H 0.51019 0.52194 0.98546 0.0
H485 H 0.66749 0.64078 0.95536 0.0
C486 C 0.63578 0.61111 0.91568 0.0
C487 C 0.59381 0.57522 0.89953 0.0
C488 C 0.54441 0.54735 -0.00284 0.0
C489 C 0.5908 0.57885 0.95537 0.0
C490 C 0.54413 0.54833 0.02495 0.0
C491 C 0.58798 0.5807 0.04073 0.0
C492 C 0.58882 0.57909 0.98493 0.0
C493 C 0.6316 0.61175 0.02769 0.0
C494 C 0.63445 0.61299 0.94344 0.0
C495 C 0.55059 0.54219 0.91223 0.0
N496 N 0.63086 0.61023 0.00064 0.0
N497 N 0.55024 0.54475 0.93936 0.0
H498 H 0.11906 0.65204 0.24023 0.0
H499 H 1.07552 0.49457 0.36468 0.0
H500 H 1.09206 0.4992 0.23088 0.0
H501 H 0.12252 0.65309 0.37116 0.0
H502 H 1.07386 0.49204 0.31582 0.0
H503 H 1.11287 0.64941 0.28812 0.0
C504 C 1.11164 0.61771 0.24819 0.0
C505 C 1.10639 0.57584 0.23132 0.0
C506 C 1.08442 0.5273 0.32797 0.0
C507 C 1.0993 0.5727 0.28675 0.0
C508 C 1.08509 0.52871 0.35584 0.0
C509 C 1.09948 0.57421 0.37207 0.0
C510 C 1.09782 0.5716 0.31624 0.0
C511 C 1.11189 0.61736 0.3595 0.0
C512 C 1.10819 0.61631 0.27569 0.0
C513 C 1.09662 0.53248 0.24306 0.0
N514 N 1.11079 0.61496 0.33246 0.0
N515 N 1.09352 0.53206 0.27007 0.0
loop_
_geom_bond_atom_site_label_1
_geom_bond_atom_site_label_2
_geom_bond_distance
_geom_bond_site_symmetry_2
_ccdc_geom_bond_type
Eu0 C9 2.828 . S
Eu0 O11 2.392 1_655 S
Eu0 O13 2.418 . S
Eu0 O18 2.373 . S
Eu0 O21 2.488 . S
Eu0 O22 2.471 . S
Eu0 O23 2.349 1_655 S
Eu1 O10 2.373 . S
Eu1 O14 2.488 . S
Eu1 O15 2.471 . S
Eu1 O16 2.349 . S
Eu1 O19 2.392 1_455 S
Eu1 O20 2.418 . S
Eu1 C30 2.828 . S
C2 O20 1.244 . S
C2 O23 1.265 . S
C3 C4 1.379 . S
C3 C7 1.373 . S
C3 C9 1.505 . S
C4 C3 1.379 . S
C4 C6 1.369 . S
C4 H32 0.930 . S
C5 C7 1.383 . S
C5 C8 1.382 . S
C5 H33 0.930 . S
C6 C4 1.369 . S
C6 C8 1.392 . S
C6 H34 0.930 . S
C7 C3 1.373 . S
C7 C5 1.383 . S
C7 H35 0.931 . S
C8 C5 1.382 . S
C8 C6 1.392 . S
C9 Eu0 2.828 . S
C9 C3 1.505 . S
C9 O21 1.249 . S
C9 O22 1.244 . S
O10 Eu1 2.373 . S
O10 C12 1.258 . S
O11 Eu0 2.392 1_455 S
O11 C12 1.242 . S
C12 O10 1.258 . S
C12 O11 1.242 . S
O13 Eu0 2.418 . S
O13 C17 1.244 1_655 S
O14 Eu1 2.488 . S
O14 C30 1.249 . S
O15 Eu1 2.471 . S
O15 C30 1.244 . S
O16 Eu1 2.349 . S
O16 C17 1.265 . S
C17 O13 1.244 1_455 S
C17 O16 1.265 . S
O18 Eu0 2.373 . S
O18 C31 1.258 . S
O19 Eu1 2.392 1_655 S
O19 C31 1.242 . S
O20 Eu1 2.418 . S
O20 C2 1.244 . S
O21 Eu0 2.488 . S
O21 C9 1.249 . S
O22 Eu0 2.471 . S
O22 C9 1.244 . S
O23 Eu0 2.349 1_455 S
O23 C2 1.265 . S
C24 C25 1.379 . S
C24 C28 1.373 . S
C24 C30 1.505 . S
C25 C24 1.379 . S
C25 C27 1.369 . S
C25 H36 0.930 . S
C26 C28 1.383 . S
C26 C29 1.382 . S
C26 H37 0.930 . S
C27 C25 1.369 . S
C27 C29 1.392 . S
C27 H38 0.930 . S
C28 C24 1.373 . S
C28 C26 1.383 . S
C28 H39 0.931 . S
C29 C26 1.382 . S
C29 C27 1.392 . S
C30 Eu1 2.828 . S
C30 O14 1.249 . S
C30 O15 1.244 . S
C30 C24 1.505 . S
C31 O18 1.258 . S
C31 O19 1.242 . S
H32 C4 0.930 . S
H33 C5 0.930 . S
H34 C6 0.930 . S
H35 C7 0.931 . S
H36 C25 0.930 . S
H37 C26 0.930 . S
H38 C27 0.930 . S
H39 C28 0.931 . S
Eu40 C49 2.828 . S
Eu40 O51 2.392 1_565 S
Eu40 O53 2.418 . S
Eu40 O58 2.373 . S
Eu40 O61 2.488 . S
Eu40 O62 2.471 . S
Eu40 O63 2.349 1_565 S
Eu41 O50 2.373 . S
Eu41 O54 2.488 . S
Eu41 O55 2.471 . S
Eu41 O56 2.349 . S
Eu41 O59 2.392 1_545 S
Eu41 O60 2.418 . S
Eu41 C70 2.828 . S
C42 O60 1.244 . S
C42 O63 1.265 . S
C43 C44 1.379 . S
C43 C47 1.373 . S
C43 C49 1.505 . S
C44 C43 1.379 . S
C44 C46 1.369 . S
C44 H72 0.930 . S
C45 C47 1.383 . S
C45 C48 1.382 . S
C45 H73 0.930 . S
C46 C44 1.369 . S
C46 C48 1.392 . S
C46 H74 0.930 . S
C47 C43 1.373 . S
C47 C45 1.383 . S
C47 H75 0.931 . S
C48 C45 1.382 . S
C48 C46 1.392 . S
C49 Eu40 2.828 . S
C49 C43 1.505 . S
C49 O61 1.249 . S
C49 O62 1.244 . S
O50 Eu41 2.373 . S
O50 C52 1.258 . S
O51 Eu40 2.392 1_545 S
O51 C52 1.242 . S
C52 O50 1.258 . S
C52 O51 1.242 . S
O53 Eu40 2.418 . S
O53 C57 1.244 1_565 S
O54 Eu41 2.488 . S
O54 C70 1.249 . S
O55 Eu41 2.471 . S
O55 C70 1.244 . S
O56 Eu41 2.349 . S
O56 C57 1.265 . S
C57 O53 1.244 1_545 S
C57 O56 1.265 . S
O58 Eu40 2.373 . S
O58 C71 1.258 . S
O59 Eu41 2.392 1_565 S
O59 C71 1.242 . S
O60 Eu41 2.418 . S
O60 C42 1.244 . S
O61 Eu40 2.488 . S
O61 C49 1.249 . S
O62 Eu40 2.471 . S
O62 C49 1.244 . S
O63 Eu40 2.349 1_545 S
O63 C42 1.265 . S
C64 C65 1.379 . S
C64 C68 1.373 . S
C64 C70 1.505 . S
C65 C64 1.379 . S
C65 C67 1.369 . S
C65 H76 0.930 . S
C66 C68 1.383 . S
C66 C69 1.382 . S
C66 H77 0.930 . S
C67 C65 1.369 . S
C67 C69 1.392 . S
C67 H78 0.930 . S
C68 C64 1.373 . S
C68 C66 1.383 . S
C68 H79 0.931 . S
C69 C66 1.382 . S
C69 C67 1.392 . S
C70 Eu41 2.828 . S
C70 O54 1.249 . S
C70 O55 1.244 . S
C70 C64 1.505 . S
C71 O58 1.258 . S
C71 O59 1.242 . S
H72 C44 0.930 . S
H73 C45 0.930 . S
H74 C46 0.930 . S
H75 C47 0.931 . S
H76 C65 0.930 . S
H77 C66 0.930 . S
H78 C67 0.930 . S
H79 C68 0.931 . S
Eu80 C89 2.828 . S
Eu80 O91 2.392 . S
Eu80 O93 2.418 . S
Eu80 O98 2.373 . S
Eu80 O101 2.488 . S
Eu80 O102 2.471 . S
Eu80 O103 2.349 . S
Eu81 O90 2.373 . S
Eu81 O94 2.488 . S
Eu81 O95 2.471 . S
Eu81 O96 2.349 . S
Eu81 O99 2.392 . S
Eu81 O100 2.418 . S
Eu81 C110 2.828 . S
C82 O100 1.244 . S
C82 O103 1.265 . S
C83 C84 1.379 . S
C83 C87 1.373 . S
C83 C89 1.505 . S
C84 C83 1.379 . S
C84 C86 1.369 . S
C84 H112 0.930 . S
C85 C87 1.383 . S
C85 C88 1.382 . S
C85 H113 0.930 . S
C86 C84 1.369 . S
C86 C88 1.392 . S
C86 H114 0.930 . S
C87 C83 1.373 . S
C87 C85 1.383 . S
C87 H115 0.931 . S
C88 C85 1.382 . S
C88 C86 1.392 . S
C89 Eu80 2.828 . S
C89 C83 1.505 . S
C89 O101 1.249 . S
C89 O102 1.244 . S
O90 Eu81 2.373 . S
O90 C92 1.258 . S
O91 Eu80 2.392 . S
O91 C92 1.242 . S
C92 O90 1.258 . S
C92 O91 1.242 . S
O93 Eu80 2.418 . S
O93 C97 1.244 . S
O94 Eu81 2.488 . S
O94 C110 1.249 . S
O95 Eu81 2.471 . S
O95 C110 1.244 . S
O96 Eu81 2.349 . S
O96 C97 1.265 . S
C97 O93 1.244 . S
C97 O96 1.265 . S
O98 Eu80 2.373 . S
O98 C111 1.258 . S
O99 Eu81 2.392 . S
O99 C111 1.242 . S
O100 Eu81 2.418 . S
O100 C82 1.244 . S
O101 Eu80 2.488 . S
O101 C89 1.249 . S
O102 Eu80 2.471 . S
O102 C89 1.244 . S
O103 Eu80 2.349 . S
O103 C82 1.265 . S
C104 C105 1.379 . S
C104 C108 1.373 . S
C104 C110 1.505 . S
C105 C104 1.379 . S
C105 C107 1.369 . S
C105 H116 0.930 . S
C106 C108 1.383 . S
C106 C109 1.382 . S
C106 H117 0.930 . S
C107 C105 1.369 . S
C107 C109 1.392 . S
C107 H118 0.930 . S
C108 C104 1.373 . S
C108 C106 1.383 . S
C108 H119 0.931 . S
C109 C106 1.382 . S
C109 C107 1.392 . S
C110 Eu81 2.828 . S
C110 O94 1.249 . S
C110 O95 1.244 . S
C110 C104 1.505 . S
C111 O98 1.258 . S
C111 O99 1.242 . S
H112 C84 0.930 . S
H113 C85 0.930 . S
H114 C86 0.930 . S
H115 C87 0.931 . S
H116 C105 0.930 . S
H117 C106 0.930 . S
H118 C107 0.930 . S
H119 C108 0.931 . S
H120 C125 0.930 . S
H121 C128 0.930 . S
H122 C130 0.930 1_565 S
H123 C124 1.016 . S
C124 H123 1.016 . S
C124 N131 1.286 . S
C125 H120 0.930 . S
C125 C126 1.397 . S
C125 C127 1.361 . S
C126 C125 1.397 . S
C126 C130 1.390 . S
C127 C125 1.361 . S
C127 C128 1.393 . S
C127 N131 1.413 . S
C128 H121 0.930 . S
C128 C127 1.393 . S
C128 C129 1.399 . S
C129 C128 1.399 . S
C129 C130 1.381 . S
C130 H122 0.930 1_545 S
C130 C126 1.390 . S
C130 C129 1.381 . S
N131 C124 1.286 . S
N131 C127 1.413 . S
H132 C137 0.930 . S
H133 C140 0.930 . S
H134 C142 0.930 . S
H135 C136 1.016 . S
C136 H135 1.016 . S
C136 N143 1.286 . S
C137 H132 0.930 . S
C137 C138 1.397 . S
C137 C139 1.361 . S
C138 C137 1.397 . S
C138 C142 1.390 . S
C139 C137 1.361 . S
C139 C140 1.393 . S
C139 N143 1.413 . S
C140 H133 0.930 . S
C140 C139 1.393 . S
C140 C141 1.399 . S
C141 C140 1.399 . S
C141 C142 1.381 . S
C142 H134 0.930 . S
C142 C138 1.390 . S
C142 C141 1.381 . S
N143 C136 1.286 . S
N143 C139 1.413 . S
H144 C149 0.930 . S
H145 C152 0.930 . S
H146 C154 0.930 . S
H147 C148 1.016 . S
C148 H147 1.016 . S
C148 N155 1.286 . S
C149 H144 0.930 . S
C149 C150 1.397 1_455 S
C149 C151 1.361 . S
C150 C149 1.397 1_655 S
C150 C154 1.390 . S
C151 C149 1.361 . S
C151 C152 1.393 . S
C151 N155 1.413 . S
C152 H145 0.930 . S
C152 C151 1.393 . S
C152 C153 1.399 . S
C153 C152 1.399 . S
C153 C154 1.381 1_455 S
C154 H146 0.930 . S
C154 C150 1.390 . S
C154 C153 1.381 1_655 S
N155 C148 1.286 . S
N155 C151 1.413 . S
H156 C161 0.930 . S
H157 C164 0.930 . S
H158 C166 0.930 . S
H159 C160 1.016 . S
C160 H159 1.016 . S
C160 N167 1.286 . S
C161 H156 0.930 . S
C161 C162 1.397 . S
C161 C163 1.361 1_455 S
C162 C161 1.397 . S
C162 C166 1.390 . S
C163 C161 1.361 1_655 S
C163 C164 1.393 . S
C163 N167 1.413 . S
C164 H157 0.930 . S
C164 C163 1.393 . S
C164 C165 1.399 1_655 S
C165 C164 1.399 1_455 S
C165 C166 1.381 . S
C166 H158 0.930 . S
C166 C162 1.390 . S
C166 C165 1.381 . S
N167 C160 1.286 . S
N167 C163 1.413 . S
H168 C173 0.930 . S
H169 C176 0.930 1_565 S
H170 C178 0.930 . S
H171 C172 1.016 . S
C172 H171 1.016 . S
C172 N179 1.286 . S
C173 H168 0.930 . S
C173 C174 1.397 . S
C173 C175 1.361 . S
C174 C173 1.397 . S
C174 C178 1.390 . S
C175 C173 1.361 . S
C175 C176 1.393 . S
C175 N179 1.413 1_545 S
C176 H169 0.930 1_545 S
C176 C175 1.393 . S
C176 C177 1.399 . S
C177 C176 1.399 . S
C177 C178 1.381 . S
C178 H170 0.930 . S
C178 C174 1.390 . S
C178 C177 1.381 . S
N179 C172 1.286 . S
N179 C175 1.413 1_565 S
H180 C185 0.930 . S
H181 C188 0.930 . S
H182 C190 0.930 . S
H183 C184 1.016 . S
C184 H183 1.016 . S
C184 N191 1.286 . S
C185 H180 0.930 . S
C185 C186 1.397 . S
C185 C187 1.361 . S
C186 C185 1.397 . S
C186 C190 1.390 . S
C187 C185 1.361 . S
C187 C188 1.393 . S
C187 N191 1.413 . S
C188 H181 0.930 . S
C188 C187 1.393 . S
C188 C189 1.399 . S
C189 C188 1.399 . S
C189 C190 1.381 . S
C190 H182 0.930 . S
C190 C186 1.390 . S
C190 C189 1.381 . S
N191 C184 1.286 . S
N191 C187 1.413 . S
H192 C198 0.930 . S
H193 C202 0.930 . S
H194 C207 0.929 . S
H195 C205 0.929 . S
H196 C200 0.929 . S
H197 C206 0.929 . S
C198 H192 0.930 . S
C198 C199 1.367 . S
C198 C206 1.378 . S
C199 C198 1.367 . S
C199 C207 1.433 . S
C200 H196 0.929 . S
C200 C202 1.378 . S
C200 C204 1.350 . S
C201 C204 1.463 . S
C201 C206 1.350 . S
C201 N209 1.427 . S
C202 H193 0.930 . S
C202 C200 1.378 . S
C202 C203 1.367 . S
C203 C202 1.367 . S
C203 C205 1.433 . S
C204 C200 1.350 . S
C204 C201 1.463 . S
C204 N208 1.427 . S
C205 H195 0.929 . S
C205 C203 1.433 . S
C205 N208 1.384 . S
C206 H197 0.929 . S
C206 C198 1.378 . S
C206 C201 1.350 . S
C207 H194 0.929 . S
C207 C199 1.433 . S
C207 N209 1.384 . S
N208 C204 1.427 . S
N208 C205 1.384 . S
N209 C201 1.427 . S
N209 C207 1.384 . S
H210 C216 0.930 . S
H211 C220 0.930 . S
H212 C225 0.929 . S
H213 C223 0.929 . S
H214 C218 0.929 . S
H215 C224 0.929 . S
C216 H210 0.930 . S
C216 C217 1.367 . S
C216 C224 1.378 . S
C217 C216 1.367 . S
C217 C225 1.433 . S
C218 H214 0.929 . S
C218 C220 1.378 . S
C218 C222 1.350 . S
C219 C222 1.463 . S
C219 C224 1.350 . S
C219 N227 1.427 . S
C220 H211 0.930 . S
C220 C218 1.378 . S
C220 C221 1.367 . S
C221 C220 1.367 . S
C221 C223 1.433 . S
C222 C218 1.350 . S
C222 C219 1.463 . S
C222 N226 1.427 . S
C223 H213 0.929 . S
C223 C221 1.433 . S
C223 N226 1.384 . S
C224 H215 0.929 . S
C224 C216 1.378 . S
C224 C219 1.350 . S
C225 H212 0.929 . S
C225 C217 1.433 . S
C225 N227 1.384 . S
N226 C222 1.427 . S
N226 C223 1.384 . S
N227 C219 1.427 . S
N227 C225 1.384 . S
H228 C234 0.930 . S
H229 C238 0.930 . S
H230 C243 0.929 . S
H231 C241 0.929 . S
H232 C236 0.929 . S
H233 C242 0.929 . S
C234 H228 0.930 . S
C234 C235 1.367 . S
C234 C242 1.378 . S
C235 C234 1.367 . S
C235 C243 1.433 . S
C236 H232 0.929 . S
C236 C238 1.378 . S
C236 C240 1.350 . S
C237 C240 1.463 . S
C237 C242 1.350 . S
C237 N245 1.427 . S
C238 H229 0.930 . S
C238 C236 1.378 . S
C238 C239 1.367 . S
C239 C238 1.367 . S
C239 C241 1.433 . S
C240 C236 1.350 . S
C240 C237 1.463 . S
C240 N244 1.427 . S
C241 H231 0.929 . S
C241 C239 1.433 . S
C241 N244 1.384 . S
C242 H233 0.929 . S
C242 C234 1.378 . S
C242 C237 1.350 . S
C243 H230 0.929 . S
C243 C235 1.433 . S
C243 N245 1.384 . S
N244 C240 1.427 . S
N244 C241 1.384 . S
N245 C237 1.427 . S
N245 C243 1.384 . S
H246 C252 0.930 . S
H247 C256 0.930 . S
H248 C261 0.929 . S
H249 C259 0.929 . S
H250 C254 0.929 . S
H251 C260 0.929 . S
C252 H246 0.930 . S
C252 C253 1.367 . S
C252 C260 1.378 . S
C253 C252 1.367 . S
C253 C261 1.433 . S
C254 H250 0.929 . S
C254 C256 1.378 . S
C254 C258 1.350 . S
C255 C258 1.463 . S
C255 C260 1.350 . S
C255 N263 1.427 . S
C256 H247 0.930 . S
C256 C254 1.378 . S
C256 C257 1.367 . S
C257 C256 1.367 . S
C257 C259 1.433 . S
C258 C254 1.350 . S
C258 C255 1.463 . S
C258 N262 1.427 . S
C259 H249 0.929 . S
C259 C257 1.433 . S
C259 N262 1.384 . S
C260 H251 0.929 . S
C260 C252 1.378 . S
C260 C255 1.350 . S
C261 H248 0.929 . S
C261 C253 1.433 . S
C261 N263 1.384 . S
N262 C258 1.427 . S
N262 C259 1.384 . S
N263 C255 1.427 . S
N263 C261 1.384 . S
H264 C270 0.930 . S
H265 C274 0.930 . S
H266 C279 0.929 . S
H267 C277 0.929 . S
H268 C272 0.929 . S
H269 C278 0.929 . S
C270 H264 0.930 . S
C270 C271 1.367 . S
C270 C278 1.378 . S
C271 C270 1.367 . S
C271 C279 1.433 . S
C272 H268 0.929 . S
C272 C274 1.378 . S
C272 C276 1.350 . S
C273 C276 1.463 . S
C273 C278 1.350 . S
C273 N281 1.427 . S
C274 H265 0.930 . S
C274 C272 1.378 . S
C274 C275 1.367 . S
C275 C274 1.367 . S
C275 C277 1.433 . S
C276 C272 1.350 . S
C276 C273 1.463 . S
C276 N280 1.427 . S
C277 H267 0.929 . S
C277 C275 1.433 . S
C277 N280 1.384 . S
C278 H269 0.929 . S
C278 C270 1.378 . S
C278 C273 1.350 . S
C279 H266 0.929 . S
C279 C271 1.433 . S
C279 N281 1.384 . S
N280 C276 1.427 . S
N280 C277 1.384 . S
N281 C273 1.427 . S
N281 C279 1.384 . S
H282 C288 0.930 . S
H283 C292 0.930 . S
H284 C297 0.929 . S
H285 C295 0.929 . S
H286 C290 0.929 . S
H287 C296 0.929 . S
C288 H282 0.930 . S
C288 C289 1.367 . S
C288 C296 1.378 . S
C289 C288 1.367 . S
C289 C297 1.433 . S
C290 H286 0.929 . S
C290 C292 1.378 . S
C290 C294 1.350 . S
C291 C294 1.463 . S
C291 C296 1.350 . S
C291 N299 1.427 . S
C292 H283 0.930 . S
C292 C290 1.378 . S
C292 C293 1.367 . S
C293 C292 1.367 . S
C293 C295 1.433 . S
C294 C290 1.350 . S
C294 C291 1.463 . S
C294 N298 1.427 . S
C295 H285 0.929 . S
C295 C293 1.433 . S
C295 N298 1.384 . S
C296 H287 0.929 . S
C296 C288 1.378 . S
C296 C291 1.350 . S
C297 H284 0.929 . S
C297 C289 1.433 . S
C297 N299 1.384 . S
N298 C294 1.427 . S
N298 C295 1.384 . S
N299 C291 1.427 . S
N299 C297 1.384 . S
H300 C306 0.930 . S
H301 C310 0.930 . S
H302 C315 0.929 . S
H303 C313 0.929 . S
H304 C308 0.929 . S
H305 C314 0.929 . S
C306 H300 0.930 . S
C306 C307 1.367 . S
C306 C314 1.378 . S
C307 C306 1.367 . S
C307 C315 1.433 . S
C308 H304 0.929 . S
C308 C310 1.378 . S
C308 C312 1.350 . S
C309 C312 1.463 . S
C309 C314 1.350 . S
C309 N317 1.427 . S
C310 H301 0.930 . S
C310 C308 1.378 . S
C310 C311 1.367 . S
C311 C310 1.367 . S
C311 C313 1.433 . S
C312 C308 1.350 . S
C312 C309 1.463 . S
C312 N316 1.427 . S
C313 H303 0.929 . S
C313 C311 1.433 . S
C313 N316 1.384 . S
C314 H305 0.929 . S
C314 C306 1.378 . S
C314 C309 1.350 . S
C315 H302 0.929 . S
C315 C307 1.433 . S
C315 N317 1.384 . S
N316 C312 1.427 . S
N316 C313 1.384 . S
N317 C309 1.427 . S
N317 C315 1.384 . S
H318 C324 0.930 . S
H319 C328 0.930 . S
H320 C333 0.929 . S
H321 C331 0.929 . S
H322 C326 0.929 . S
H323 C332 0.929 . S
C324 H318 0.930 . S
C324 C325 1.367 . S
C324 C332 1.378 . S
C325 C324 1.367 . S
C325 C333 1.433 . S
C326 H322 0.929 . S
C326 C328 1.378 . S
C326 C330 1.350 . S
C327 C330 1.463 . S
C327 C332 1.350 . S
C327 N335 1.427 . S
C328 H319 0.930 . S
C328 C326 1.378 . S
C328 C329 1.367 . S
C329 C328 1.367 . S
C329 C331 1.433 . S
C330 C326 1.350 . S
C330 C327 1.463 . S
C330 N334 1.427 . S
C331 H321 0.929 . S
C331 C329 1.433 . S
C331 N334 1.384 . S
C332 H323 0.929 . S
C332 C324 1.378 . S
C332 C327 1.350 . S
C333 H320 0.929 . S
C333 C325 1.433 . S
C333 N335 1.384 . S
N334 C330 1.427 . S
N334 C331 1.384 . S
N335 C327 1.427 . S
N335 C333 1.384 . S
H336 C342 0.930 . S
H337 C346 0.924 1_545 S
H338 C351 0.929 . S
H339 C349 0.929 . S
H340 C344 0.929 . S
H341 C350 0.929 . S
C342 H336 0.930 . S
C342 C343 1.367 . S
C342 C350 1.378 . S
C343 C342 1.367 . S
C343 C351 1.433 . S
C344 H340 0.929 . S
C344 C346 1.378 . S
C344 C348 1.350 . S
C345 C348 1.463 . S
C345 C350 1.350 . S
C345 N353 1.427 . S
C346 H337 0.924 1_565 S
C346 C344 1.378 . S
C346 C347 1.365 1_565 S
C347 C346 1.365 1_545 S
C347 C349 1.431 1_545 S
C348 C344 1.350 . S
C348 C345 1.463 . S
C348 N352 1.427 . S
C349 H339 0.929 . S
C349 C347 1.431 1_565 S
C349 N352 1.384 . S
C350 H341 0.929 . S
C350 C342 1.378 . S
C350 C345 1.350 . S
C351 H338 0.929 . S
C351 C343 1.433 . S
C351 N353 1.384 . S
N352 C348 1.427 . S
N352 C349 1.384 . S
N353 C345 1.427 . S
N353 C351 1.384 . S
H354 C360 0.930 . S
H355 C364 0.930 . S
H356 C369 0.929 . S
H357 C367 0.929 . S
H358 C362 0.929 . S
H359 C368 0.929 . S
C360 H354 0.930 . S
C360 C361 1.367 . S
C360 C368 1.378 . S
C361 C360 1.367 . S
C361 C369 1.433 . S
C362 H358 0.929 . S
C362 C364 1.378 . S
C362 C366 1.350 . S
C363 C366 1.463 . S
C363 C368 1.350 . S
C363 N371 1.427 . S
C364 H355 0.930 . S
C364 C362 1.378 . S
C364 C365 1.367 . S
C365 C364 1.367 . S
C365 C367 1.433 . S
C366 C362 1.350 . S
C366 C363 1.463 . S
C366 N370 1.427 . S
C367 H357 0.929 . S
C367 C365 1.433 . S
C367 N370 1.384 . S
C368 H359 0.929 . S
C368 C360 1.378 . S
C368 C363 1.350 . S
C369 H356 0.929 . S
C369 C361 1.433 . S
C369 N371 1.384 . S
N370 C366 1.427 . S
N370 C367 1.384 . S
N371 C363 1.427 . S
N371 C369 1.384 . S
H372 C378 0.930 . S
H373 C382 0.930 . S
H374 C387 0.929 . S
H375 C385 0.929 . S
H376 C380 0.929 . S
H377 C386 0.929 . S
C378 H372 0.930 . S
C378 C379 1.367 . S
C378 C386 1.378 . S
C379 C378 1.367 . S
C379 C387 1.433 . S
C380 H376 0.929 . S
C380 C382 1.378 . S
C380 C384 1.350 . S
C381 C384 1.463 . S
C381 C386 1.350 . S
C381 N389 1.427 . S
C382 H373 0.930 . S
C382 C380 1.378 . S
C382 C383 1.367 . S
C383 C382 1.367 . S
C383 C385 1.433 . S
C384 C380 1.350 . S
C384 C381 1.463 . S
C384 N388 1.427 . S
C385 H375 0.929 . S
C385 C383 1.433 . S
C385 N388 1.384 . S
C386 H377 0.929 . S
C386 C378 1.378 . S
C386 C381 1.350 . S
C387 H374 0.929 . S
C387 C379 1.433 . S
C387 N389 1.384 . S
N388 C384 1.427 . S
N388 C385 1.384 . S
N389 C381 1.427 . S
N389 C387 1.384 . S
H390 C396 0.930 . S
H391 C400 0.930 . S
H392 C405 0.929 . S
H393 C403 0.929 . S
H394 C398 0.929 . S
H395 C404 0.929 . S
C396 H390 0.930 . S
C396 C397 1.367 . S
C396 C404 1.378 . S
C397 C396 1.367 . S
C397 C405 1.433 . S
C398 H394 0.929 . S
C398 C400 1.378 . S
C398 C402 1.350 . S
C399 C402 1.463 . S
C399 C404 1.350 . S
C399 N407 1.427 . S
C400 H391 0.930 . S
C400 C398 1.378 . S
C400 C401 1.367 . S
C401 C400 1.367 . S
C401 C403 1.433 . S
C402 C398 1.350 . S
C402 C399 1.463 . S
C402 N406 1.427 . S
C403 H393 0.929 . S
C403 C401 1.433 . S
C403 N406 1.384 . S
C404 H395 0.929 . S
C404 C396 1.378 . S
C404 C399 1.350 . S
C405 H392 0.929 . S
C405 C397 1.433 . S
C405 N407 1.384 . S
N406 C402 1.427 . S
N406 C403 1.384 . S
N407 C399 1.427 . S
N407 C405 1.384 . S
H408 C414 0.930 . S
H409 C418 0.930 1_655 S
H410 C423 0.929 . S
H411 C421 0.929 . S
H412 C416 0.929 1_655 S
H413 C422 0.929 . S
C414 H408 0.930 . S
C414 C415 1.367 . S
C414 C422 1.378 . S
C415 C414 1.367 . S
C415 C423 1.433 1_455 S
C416 H412 0.929 1_455 S
C416 C418 1.378 . S
C416 C420 1.350 1_556 S
C417 C420 1.463 . S
C417 C422 1.350 . S
C417 N425 1.427 1_455 S
C418 H409 0.930 1_455 S
C418 C416 1.378 . S
C418 C419 1.367 . S
C419 C418 1.367 . S
C419 C421 1.433 . S
C420 C416 1.350 1_554 S
C420 C417 1.463 . S
C420 N424 1.410 1_554 S
C421 H411 0.929 . S
C421 C419 1.433 . S
C421 N424 1.423 . S
C422 H413 0.929 . S
C422 C414 1.378 . S
C422 C417 1.350 . S
C423 H410 0.929 . S
C423 C415 1.433 1_655 S
C423 N425 1.384 . S
N424 C420 1.410 1_556 S
N424 C421 1.423 . S
N425 C417 1.427 1_655 S
N425 C423 1.384 . S
H426 C432 0.930 . S
H427 C436 0.930 1_565 S
H428 C441 0.929 . S
H429 C439 0.929 . S
H430 C434 0.929 1_565 S
H431 C440 0.929 . S
C432 H426 0.930 . S
C432 C433 1.367 . S
C432 C440 1.378 . S
C433 C432 1.367 . S
C433 C441 1.433 1_545 S
C434 H430 0.929 1_545 S
C434 C436 1.378 . S
C434 C438 1.350 . S
C435 C438 1.463 . S
C435 C440 1.350 . S
C435 N443 1.427 1_545 S
C436 H427 0.930 1_545 S
C436 C434 1.378 . S
C436 C437 1.367 . S
C437 C436 1.367 . S
C437 C439 1.433 . S
C438 C434 1.350 . S
C438 C435 1.463 . S
C438 N442 1.427 . S
C439 H429 0.929 . S
C439 C437 1.433 . S
C439 N442 1.384 . S
C440 H431 0.929 . S
C440 C432 1.378 . S
C440 C435 1.350 . S
C441 H428 0.929 . S
C441 C433 1.433 1_565 S
C441 N443 1.384 . S
N442 C438 1.427 . S
N442 C439 1.384 . S
N443 C435 1.427 1_565 S
N443 C441 1.384 . S
H444 C450 0.930 . S
H445 C454 0.930 . S
H446 C459 0.929 . S
H447 C457 0.929 . S
H448 C452 0.929 . S
H449 C458 0.929 . S
C450 H444 0.930 . S
C450 C451 1.367 . S
C450 C458 1.378 . S
C451 C450 1.367 . S
C451 C459 1.433 . S
C452 H448 0.929 . S
C452 C454 1.378 . S
C452 C456 1.350 . S
C453 C456 1.463 . S
C453 C458 1.350 . S
C453 N461 1.427 . S
C454 H445 0.930 . S
C454 C452 1.378 . S
C454 C455 1.367 . S
C455 C454 1.367 . S
C455 C457 1.433 . S
C456 C452 1.350 . S
C456 C453 1.463 . S
C456 N460 1.427 . S
C457 H447 0.929 . S
C457 C455 1.433 . S
C457 N460 1.384 . S
C458 H449 0.929 . S
C458 C450 1.378 . S
C458 C453 1.350 . S
C459 H446 0.929 . S
C459 C451 1.433 . S
C459 N461 1.384 . S
N460 C456 1.427 . S
N460 C457 1.384 . S
N461 C453 1.427 . S
N461 C459 1.384 . S
H462 C468 0.930 . S
H463 C472 0.930 . S
H464 C477 0.929 . S
H465 C475 0.929 . S
H466 C470 0.929 . S
H467 C476 0.929 . S
C468 H462 0.930 . S
C468 C469 1.367 . S
C468 C476 1.378 . S
C469 C468 1.367 . S
C469 C477 1.433 1_545 S
C470 H466 0.929 . S
C470 C472 1.378 . S
C470 C474 1.350 1_565 S
C471 C474 1.463 . S
C471 C476 1.350 . S
C471 N479 1.427 1_545 S
C472 H463 0.930 . S
C472 C470 1.378 . S
C472 C473 1.367 1_565 S
C473 C472 1.367 1_545 S
C473 C475 1.433 . S
C474 C470 1.350 1_545 S
C474 C471 1.463 . S
C474 N478 1.427 . S
C475 H465 0.929 . S
C475 C473 1.433 . S
C475 N478 1.384 . S
C476 H467 0.929 . S
C476 C468 1.378 . S
C476 C471 1.350 . S
C477 H464 0.929 . S
C477 C469 1.433 1_565 S
C477 N479 1.384 . S
N478 C474 1.427 . S
N478 C475 1.384 . S
N479 C471 1.427 1_565 S
N479 C477 1.384 . S
H480 C486 0.930 . S
H481 C490 0.930 . S
H482 C495 0.929 . S
H483 C493 0.929 . S
H484 C488 0.926 1_556 S
H485 C494 0.929 . S
C486 H480 0.930 . S
C486 C487 1.367 . S
C486 C494 1.378 . S
C487 C486 1.367 . S
C487 C495 1.433 . S
C488 H484 0.926 1_554 S
C488 C490 1.378 . S
C488 C492 1.366 . S
C489 C492 1.426 1_556 S
C489 C494 1.350 . S
C489 N497 1.427 . S
C490 H481 0.930 . S
C490 C488 1.378 . S
C490 C491 1.367 . S
C491 C490 1.367 . S
C491 C493 1.433 . S
C492 C488 1.366 . S
C492 C489 1.426 1_554 S
C492 N496 1.447 . S
C493 H483 0.929 . S
C493 C491 1.433 . S
C493 N496 1.384 . S
C494 H485 0.929 . S
C494 C486 1.378 . S
C494 C489 1.350 . S
C495 H482 0.929 . S
C495 C487 1.433 . S
C495 N497 1.384 . S
N496 C492 1.447 . S
N496 C493 1.384 . S
N497 C489 1.427 . S
N497 C495 1.384 . S
H498 C504 0.930 . S
H499 C508 0.930 . S
H500 C513 0.929 1_655 S
H501 C511 0.929 . S
H502 C506 0.929 . S
H503 C512 0.929 . S
C504 H498 0.930 . S
C504 C505 1.367 . S
C504 C512 1.378 . S
C505 C504 1.367 . S
C505 C513 1.433 . S
C506 H502 0.929 . S
C506 C508 1.378 . S
C506 C510 1.350 1_655 S
C507 C510 1.463 . S
C507 C512 1.350 . S
C507 N515 1.427 . S
C508 H499 0.930 . S
C508 C506 1.378 . S
C508 C509 1.367 1_655 S
C509 C508 1.367 1_455 S
C509 C511 1.433 . S
C510 C506 1.350 1_455 S
C510 C507 1.463 . S
C510 N514 1.427 . S
C511 H501 0.929 . S
C511 C509 1.433 . S
C511 N514 1.384 . S
C512 H503 0.929 . S
C512 C504 1.378 . S
C512 C507 1.350 . S
C513 H500 0.929 1_455 S
C513 C505 1.433 . S
C513 N515 1.383 . S
N514 C510 1.427 . S
N514 C511 1.384 . S
N515 C507 1.427 . S
N515 C513 1.383 . S
C199 C12 3.221 . S
C203 C186 3.209 . S
C217 C52 3.031 . S
C221 C160 2.963 . S
C235 C111 3.061 . S
C239 C172 2.974 . S
C253 C31 2.881 . S
C257 C184 2.754 . S
C275 C162 2.968 . S
C271 C71 3.020 . S
C293 C174 2.933 . S
C289 C92 2.978 . S
C307 C48 0.644 . S
C311 C136 0.631 . S
C325 C109 0.715 . S
C329 C150 0.693 . S
C343 C29 0.339 . S
C347 C126 0.225 . S
C365 C138 0.254 . S
C361 C69 0.392 . S
C383 C148 0.280 . S
C379 C88 0.156 . S
C397 C8 0.397 . S
C401 C124 0.402 . S
C419 C153 1.208 . S
C415 C17 1.193 . S
C433 C57 1.180 . S
C437 C129 1.205 . S
C451 C97 1.220 . S
C455 C141 1.241 . S
C473 C177 1.736 . S
C469 C42 1.700 . S
C491 C189 1.802 . S
C487 C82 1.750 . S
C505 C2 1.716 . S
C509 C165 1.744 . S
