# Generated by pormake.
# Topology zzz, (3,6)-cn, num edge types: 1
# Building blocks:
#     Node 0, Type 0, BuildingBlock: BETDIP_clean_linker_0, # of connection points: 3
#     Node 1, Type 0, BuildingBlock: BETDIP_clean_linker_0, # of connection points: 3
#     Node 2, Type 0, BuildingBlock: BETDIP_clean_linker_0, # of connection points: 3
#     Node 3, Type 0, BuildingBlock: BETDIP_clean_linker_0, # of connection points: 3
#     Node 4, Type 0, BuildingBlock: BETDIP_clean_linker_0, # of connection points: 3
#     Node 5, Type 0, BuildingBlock: BETDIP_clean_linker_0, # of connection points: 3
#     Node 6, Type 0, BuildingBlock: BETDIP_clean_linker_0, # of connection points: 3
#     Node 7, Type 0, BuildingBlock: BETDIP_clean_linker_0, # of connection points: 3
#     Node 8, Type 1, BuildingBlock: JUFBIX_clean_sbu_0, # of connection points: 6
#     Node 9, Type 1, BuildingBlock: JUFBIX_clean_sbu_0, # of connection points: 6
#     Node 10, Type 1, BuildingBlock: JUFBIX_clean_sbu_0, # of connection points: 6
#     Node 11, Type 1, BuildingBlock: JUFBIX_clean_sbu_0, # of connection points: 6
#     Edge 12, Type (0, 1), BuildingBlock: CIFDUS_clean_linker_0, # of connection points: 2
#     Edge 13, Type (0, 1), BuildingBlock: CIFDUS_clean_linker_0, # of connection points: 2
#     Edge 14, Type (0, 1), BuildingBlock: CIFDUS_clean_linker_0, # of connection points: 2
#     Edge 15, Type (0, 1), BuildingBlock: CIFDUS_clean_linker_0, # of connection points: 2
#     Edge 16, Type (0, 1), BuildingBlock: CIFDUS_clean_linker_0, # of connection points: 2
#     Edge 17, Type (0, 1), BuildingBlock: CIFDUS_clean_linker_0, # of connection points: 2
#     Edge 18, Type (0, 1), BuildingBlock: CIFDUS_clean_linker_0, # of connection points: 2
#     Edge 19, Type (0, 1), BuildingBlock: CIFDUS_clean_linker_0, # of connection points: 2
#     Edge 20, Type (0, 1), BuildingBlock: CIFDUS_clean_linker_0, # of connection points: 2
#     Edge 21, Type (0, 1), BuildingBlock: CIFDUS_clean_linker_0, # of connection points: 2
#     Edge 22, Type (0, 1), BuildingBlock: CIFDUS_clean_linker_0, # of connection points: 2
#     Edge 23, Type (0, 1), BuildingBlock: CIFDUS_clean_linker_0, # of connection points: 2
#     Edge 24, Type (0, 1), BuildingBlock: CIFDUS_clean_linker_0, # of connection points: 2
#     Edge 25, Type (0, 1), BuildingBlock: CIFDUS_clean_linker_0, # of connection points: 2
#     Edge 26, Type (0, 1), BuildingBlock: CIFDUS_clean_linker_0, # of connection points: 2
#     Edge 27, Type (0, 1), BuildingBlock: CIFDUS_clean_linker_0, # of connection points: 2
#     Edge 28, Type (0, 1), BuildingBlock: CIFDUS_clean_linker_0, # of connection points: 2
#     Edge 29, Type (0, 1), BuildingBlock: CIFDUS_clean_linker_0, # of connection points: 2
#     Edge 30, Type (0, 1), BuildingBlock: CIFDUS_clean_linker_0, # of connection points: 2
#     Edge 31, Type (0, 1), BuildingBlock: CIFDUS_clean_linker_0, # of connection points: 2
#     Edge 32, Type (0, 1), BuildingBlock: CIFDUS_clean_linker_0, # of connection points: 2
#     Edge 33, Type (0, 1), BuildingBlock: CIFDUS_clean_linker_0, # of connection points: 2
#     Edge 34, Type (0, 1), BuildingBlock: CIFDUS_clean_linker_0, # of connection points: 2
#     Edge 35, Type (0, 1), BuildingBlock: CIFDUS_clean_linker_0, # of connection points: 2
# Relax obj value: 0.116
# Max RMSD: 0.174
# Mean RMSD: 0.084
data_MOF--net-zzz--node1-JUFBIX_clean_sbu_0--node2-BETDIP_clean_linker_0--edge1-CIFDUS_clean_linker_0
_symmetry_space_group_name_H-M    P1
_symmetry_Int_Tables_number       1
_symmetry_cell_setting            triclinic
loop_
_symmetry_equiv_pos_as_xyz
'x, y, z'
_cell_length_a     45.659056
_cell_length_b     45.406136
_cell_length_c     15.571807
_cell_angle_alpha  80.568502
_cell_angle_beta   90.346444
_cell_angle_gamma 91.50265
loop_
_atom_site_label
_atom_site_type_symbol
_atom_site_fract_x
_atom_site_fract_y
_atom_site_fract_z
_atom_type_partial_charge
H0 H 0.80918 0.5517 0.38709 0.0
H1 H 0.81762 0.51594 0.14821 0.0
H2 H 0.88988 0.51292 0.32637 0.0
H3 H 0.78593 0.56752 0.11546 0.0
C4 C 0.77105 0.55267 0.15755 0.0
C5 C 0.82201 0.54072 0.34393 0.0
C6 C 0.85112 0.53306 0.36552 0.0
C7 C 0.80975 0.53452 0.26522 0.0
C8 C 0.82676 0.52056 0.20915 0.0
C9 C 0.85541 0.51207 0.23225 0.0
C10 C 0.86727 0.51833 0.31024 0.0
N11 N 0.78007 0.54128 0.24405 0.0
H12 H 0.03218 0.74663 0.44593 0.0
H13 H 0.03137 0.77304 0.16727 0.0
H14 H 0.05047 0.83791 0.33393 0.0
H15 H 0.98374 0.72677 0.25026 0.0
C16 C 1.00488 0.71675 0.24517 0.0
C17 C 0.03543 0.76367 0.38916 0.0
C18 C 0.04101 0.79355 0.39898 0.0
C19 C 0.03306 0.75616 0.30488 0.0
C20 C 0.03476 0.77879 0.23149 0.0
C21 C 0.04044 0.80858 0.24132 0.0
C22 C 0.04528 0.81515 0.3251 0.0
N23 N 0.02903 0.72597 0.29318 0.0
H24 H 0.78354 0.02881 0.29193 0.0
H25 H 0.75466 0.03198 0.0259 0.0
H26 H 0.6939 0.04608 0.22299 0.0
H27 H 0.79666 1.00927 0.01321 0.0
C28 C 0.81244 0.01885 0.05391 0.0
C29 C 0.76651 0.03248 0.24286 0.0
C30 C 0.73774 0.03746 0.26737 0.0
C31 C 0.77321 0.03156 0.15509 0.0
C32 C 0.75026 0.03387 0.09284 0.0
C33 C 0.72126 0.03799 0.11784 0.0
C34 C 0.71596 0.04187 0.20361 0.0
N35 N 0.80302 0.02814 0.13215 0.0
H36 H 0.52097 0.73637 0.31044 0.0
H37 H 0.52615 0.72432 0.04089 0.0
H38 H 0.52612 0.64846 0.24444 0.0
H39 H 0.54617 0.77075 0.02421 0.0
C40 C 0.53354 0.78221 0.06688 0.0
C41 C 0.52252 0.72199 0.26166 0.0
C42 C 0.52362 0.69087 0.28737 0.0
C43 C 0.52423 0.73458 0.17264 0.0
C44 C 0.52595 0.71543 0.10972 0.0
C45 C 0.52619 0.68433 0.13576 0.0
C46 C 0.52537 0.67249 0.22421 0.0
N47 N 0.5234 0.76628 0.14831 0.0
H48 H 0.24756 0.52173 0.16308 0.0
H49 H 0.23637 0.52094 0.43884 0.0
H50 H 0.16226 0.50581 0.28115 0.0
H51 H 0.26902 0.56889 0.36706 0.0
C52 C 0.28451 0.55142 0.36216 0.0
C53 C 0.23373 0.51862 0.22028 0.0
C54 C 0.2034 0.51247 0.21266 0.0
C55 C 0.24581 0.52172 0.30228 0.0
C56 C 0.22745 0.51841 0.37572 0.0
C57 C 0.19749 0.51271 0.3675 0.0
C58 C 0.18574 0.50954 0.28677 0.0
N59 N 0.27603 0.52924 0.31133 0.0
H60 H 0.03417 0.26943 0.15749 0.0
H61 H 0.02666 0.24349 0.43582 0.0
H62 H 0.02643 0.17671 0.26976 0.0
H63 H 0.07079 0.28676 0.39813 0.0
C64 C 0.05123 0.29921 0.37776 0.0
C65 C 0.03162 0.25222 0.21416 0.0
C66 C 0.02978 0.22195 0.20449 0.0
C67 C 0.03126 0.25998 0.29835 0.0
C68 C 0.02787 0.23742 0.37152 0.0
C69 C 0.02533 0.2073 0.36177 0.0
C70 C 0.02682 0.19998 0.27817 0.0
N71 N 0.03369 0.29038 0.3099 0.0
H72 H 0.26408 0.99129 0.28994 0.0
H73 H 0.29348 0.98706 0.55582 0.0
H74 H 0.35386 0.97383 0.35696 0.0
H75 H 0.2518 1.00993 0.56982 0.0
C76 C 0.23588 1.00028 0.52971 0.0
C77 C 0.2812 0.98743 0.33868 0.0
C78 C 0.30993 0.98256 0.31347 0.0
C79 C 0.27468 0.988 0.42678 0.0
C80 C 0.29774 0.98545 0.48862 0.0
C81 C 0.32668 0.98147 0.46297 0.0
C82 C 0.33183 0.97792 0.37685 0.0
N83 N 0.24495 0.99132 0.45065 0.0
H84 H 0.50613 0.28029 0.25783 0.0
H85 H 0.52694 0.29559 0.5187 0.0
H86 H 0.51802 0.3695 0.31076 0.0
H87 H 0.50296 0.2505 0.55396 0.0
C88 C 0.51139 0.23783 0.50651 0.0
C89 C 0.51058 0.29538 0.30376 0.0
C90 C 0.51077 0.32638 0.27533 0.0
C91 C 0.51612 0.28387 0.39203 0.0
C92 C 0.52224 0.30391 0.45104 0.0
C93 C 0.52232 0.33494 0.42241 0.0
C94 C 0.51703 0.34564 0.33443 0.0
N95 N 0.51615 0.25227 0.4191 0.0
Co96 Co 0.03143 0.02208 0.84589 0.0
C97 C 0.97214 1.01016 0.84964 0.0
Co98 Co 0.01846 0.99263 0.75094 0.0
C99 C 0.03901 0.07648 0.92264 0.0
C100 C 0.06685 0.04123 0.97928 0.0
N101 N 0.04502 0.04749 0.92103 0.0
N102 N 0.0566 0.08855 0.97867 0.0
C103 C 0.07392 0.06625 0.01478 0.0
H104 H 0.02298 0.08885 0.88078 0.0
H105 H 0.07774 0.0201 0.99282 0.0
C106 C 0.0777 1.00462 0.74685 0.0
N107 N 1.00556 0.96679 0.67648 0.0
C108 C 0.01492 0.93902 0.6719 0.0
C109 C 0.98237 0.97051 0.62225 0.0
N110 N 0.99819 0.92509 0.61799 0.0
C111 C 0.97782 0.94503 0.58624 0.0
C112 C 0.0174 0.05249 0.68268 0.0
O113 O 0.07084 0.01872 0.80778 0.0
O114 O 0.05763 0.99106 0.71048 0.0
O115 O 0.01193 0.02662 0.66414 0.0
O116 O 0.02662 0.05507 0.75809 0.0
O117 O 0.9793 0.99462 0.79228 0.0
H118 H 0.96908 0.99015 0.61156 0.0
H119 H 0.03295 0.92878 0.7101 0.0
O120 O 0.99195 0.02508 0.8829 0.0
O121 O 0.03579 0.98851 0.93362 0.0
O122 O 0.02496 0.95927 0.8383 0.0
C123 C 0.03191 0.96247 0.91521 0.0
H124 H 0.09077 0.06792 0.06308 0.0
H125 H 0.96069 0.94148 0.54042 0.0
Co126 Co 0.50899 1.01178 0.84544 0.0
C127 C 0.52677 0.95443 0.84688 0.0
Co128 Co 0.53858 1.00923 0.73515 0.0
C129 C 0.45755 0.99904 0.95225 0.0
C130 C 0.47969 0.03934 0.9739 0.0
N131 N 0.48197 0.01607 0.93075 0.0
N132 N 0.43987 1.01107 0.0056 0.0
C133 C 0.45378 0.03638 0.01976 0.0
H134 H 0.45215 0.97893 0.92591 0.0
H135 H 0.4953 0.05787 0.96958 0.0
C136 C 0.52078 0.06656 0.73352 0.0
N137 N 0.56558 1.00492 0.64985 0.0
C138 C 0.58997 0.02197 0.62807 0.0
C139 C 0.56787 0.98157 0.60699 0.0
N140 N 0.60763 1.00987 0.57485 0.0
C141 C 0.59376 0.98451 0.56105 0.0
C142 C 0.48101 1.00103 0.69321 0.0
O143 O 0.50739 0.05382 0.80165 0.0
O144 O 0.53647 0.05093 0.69207 0.0
O145 O 0.50672 1.00205 0.66158 0.0
O146 O 0.47756 1.0046 0.77154 0.0
O147 O 0.54037 0.96729 0.7793 0.0
H148 H 0.55229 0.96302 0.6116 0.0
H149 H 0.59536 0.04213 0.65415 0.0
O150 O 0.51089 0.96998 0.88806 0.0
O151 O 0.54093 0.01872 0.91925 0.0
O152 O 0.57001 0.01661 0.80882 0.0
C153 C 0.56663 0.01992 0.8874 0.0
H154 H 0.44571 0.05169 0.06004 0.0
H155 H 0.60184 0.96914 0.52098 0.0
Co156 Co 0.55128 0.50873 0.78969 0.0
C157 C 0.52156 0.46175 0.89637 0.0
Co158 Co 0.50294 0.50893 0.77615 0.0
C159 C 0.60978 0.52627 0.84376 0.0
C160 C 0.60718 0.48162 0.81605 0.0
N161 N 0.59157 0.50669 0.81147 0.0
N162 N 0.6357 0.51406 0.86978 0.0
C163 C 0.63415 0.48603 0.85224 0.0
H164 H 0.60344 0.54823 0.85402 0.0
H165 H 0.59876 0.46072 0.79985 0.0
C166 C 0.53411 0.55552 0.66889 0.0
N167 N 0.46267 0.51039 0.75601 0.0
C168 C 0.44865 0.51299 0.67836 0.0
C169 C 0.44117 0.51028 0.81507 0.0
N170 N 0.41934 0.51474 0.68663 0.0
C171 C 0.41457 0.51314 0.7726 0.0
C172 C 0.5225 0.54315 0.89486 0.0
O173 O 0.55666 0.54196 0.70126 0.0
O174 O 0.5087 0.54494 0.69247 0.0
O175 O 0.49952 0.53248 0.8641 0.0
O176 O 0.5475 0.53552 0.87183 0.0
O177 O 0.49815 0.47257 0.86043 0.0
H178 H 0.44464 0.50858 0.88447 0.0
H179 H 0.45979 0.51439 0.6166 0.0
O180 O 0.54573 0.4756 0.87745 0.0
O181 O 0.55403 0.48192 0.70618 0.0
O182 O 0.50649 0.48571 0.68878 0.0
C183 C 0.53046 0.47506 0.66925 0.0
H184 H 0.65092 0.46956 0.86775 0.0
H185 H 0.39333 0.51388 0.8026 0.0
Co186 Co 0.02647 0.53856 0.79665 0.0
C187 C 0.06828 0.50355 0.90182 0.0
Co188 Co 0.02417 0.48954 0.79711 0.0
C189 C 0.02746 0.58947 0.88617 0.0
C190 C 0.03645 0.60277 0.75044 0.0
N191 N 0.02957 0.57864 0.81048 0.0
N192 N 0.03289 0.61917 0.87583 0.0
C193 C 0.03871 0.62767 0.7906 0.0
H194 H 0.02295 0.5757 0.94849 0.0
H195 H 0.04008 0.60226 0.68214 0.0
C196 C 0.98196 0.52329 0.69356 0.0
N197 N 0.02049 0.44939 0.78191 0.0
C198 C 0.03769 0.4341 0.7348 0.0
C199 C 0.99575 0.43231 0.7961 0.0
N200 N 0.02434 0.4088 0.71746 0.0
C201 C 0.99803 0.40752 0.75649 0.0
C202 C 0.98716 0.50662 0.91561 0.0
O203 O 0.99361 0.54639 0.71797 0.0
O204 O 0.99356 0.49813 0.71686 0.0
O205 O 0.99556 0.48339 0.88812 0.0
O206 O 0.99962 0.53161 0.88817 0.0
O207 O 0.05489 0.48122 0.87834 0.0
H208 H 0.97624 0.43859 0.82691 0.0
H209 H 0.05858 0.44247 0.70728 0.0
O210 O 0.0591 0.5298 0.87523 0.0
O211 O 0.05303 0.54531 0.70333 0.0
O212 O 0.05243 0.49679 0.7066 0.0
C213 C 0.06243 0.52266 0.67521 0.0
H214 H 0.04413 0.65027 0.75967 0.0
H215 H 0.98107 0.39065 0.75287 0.0
H216 H 0.21372 0.01873 0.67089 0.0
H217 H 0.18812 0.97747 0.45061 0.0
H218 H 0.13707 0.97448 0.4994 0.0
H219 H 0.09952 0.98401 0.60475 0.0
H220 H 0.12574 0.02603 0.82362 0.0
H221 H 0.17654 0.02817 0.77554 0.0
C222 C 0.19693 1.0091 0.63356 0.0
C223 C 0.2047 0.99842 0.55726 0.0
C224 C 0.16767 1.00753 0.6619 0.0
C225 C 0.18275 0.98596 0.5095 0.0
C226 C 0.15354 0.9842 0.53747 0.0
C227 C 0.11636 0.99352 0.64212 0.0
C228 C 0.10869 1.00482 0.71785 0.0
C229 C 0.14571 0.99494 0.61363 0.0
C230 C 0.13087 0.01719 0.76511 0.0
C231 C 0.16001 0.01845 0.73764 0.0
H232 H 0.49668 0.20506 0.66092 0.0
H233 H 0.53537 0.19757 0.41386 0.0
H234 H 0.54233 0.14412 0.46288 0.0
H235 H 0.53721 0.09929 0.57657 0.0
H236 H 0.49708 0.1072 0.82185 0.0
H237 H 0.49098 0.16051 0.77307 0.0
C238 C 0.50661 0.19168 0.61779 0.0
C239 C 0.51545 0.20526 0.53394 0.0
C240 C 0.51033 0.16097 0.64623 0.0
C241 C 0.52826 0.18768 0.47865 0.0
C242 C 0.5323 0.1571 0.50676 0.0
C243 C 0.52722 0.1127 0.61944 0.0
C244 C 0.51769 0.09914 0.70297 0.0
C245 C 0.52342 0.14347 0.59051 0.0
C246 C 0.5046 0.11691 0.75729 0.0
C247 C 0.50109 0.14746 0.72945 0.0
H248 H 0.33306 0.51591 0.36787 0.0
H249 H 0.29002 0.57855 0.50196 0.0
H250 H 0.32755 0.57252 0.61498 0.0
H251 H 0.37235 0.54924 0.67732 0.0
H252 H 0.4179 0.48903 0.54149 0.0
H253 H 0.38007 0.49437 0.42755 0.0
C254 C 0.33202 0.5282 0.42183 0.0
C255 C 0.30867 0.54751 0.42694 0.0
C256 C 0.35417 0.52507 0.48629 0.0
C257 C 0.30775 0.56356 0.49667 0.0
C258 C 0.32918 0.5601 0.56147 0.0
C259 C 0.37388 0.53722 0.62289 0.0
C260 C 0.39766 0.51856 0.61815 0.0
C261 C 0.3524 0.54085 0.55724 0.0
C262 C 0.39977 0.50357 0.54634 0.0
C263 C 0.3781 0.50655 0.48144 0.0
H264 H 0.08415 0.32468 0.49125 0.0
H265 H 0.99732 0.32456 0.38086 0.0
H266 H 0.98135 0.35848 0.47734 0.0
H267 H 0.99167 0.3868 0.59703 0.0
H268 H 0.07893 0.38894 0.70275 0.0
H269 H 0.09531 0.35574 0.60411 0.0
C270 C 0.06181 0.33236 0.48787 0.0
C271 C 0.04194 0.32211 0.42919 0.0
C272 C 0.05287 0.35203 0.54313 0.0
C273 C 0.01308 0.33222 0.42511 0.0
C274 C 1.0039 0.3515 0.48063 0.0
C275 C 0.01422 0.37983 0.5986 0.0
C276 C 0.03403 0.38986 0.65794 0.0
C277 C 0.0235 0.36124 0.54064 0.0
C278 C 0.06336 0.38136 0.65786 0.0
C279 C 0.07266 0.36239 0.6016 0.0
H280 H 0.83556 0.99803 0.91776 0.0
H281 H 0.85977 0.04232 0.1333 0.0
H282 H 0.91119 0.04413 0.08836 0.0
H283 H 0.94949 0.03283 0.98741 0.0
H284 H 0.92458 0.98761 0.77374 0.0
H285 H 0.87347 0.98655 0.81817 0.0
C286 C 0.85213 1.00806 0.95492 0.0
C287 C 0.84385 0.01996 0.02872 0.0
C288 C 0.88162 1.0089 0.92889 0.0
C289 C 0.86552 0.0329 0.07632 0.0
C290 C 0.89496 0.03398 0.05053 0.0
C291 C 0.93286 0.02284 0.95043 0.0
C292 C 0.94101 1.01034 0.87718 0.0
C293 C 0.9033 0.02204 0.97684 0.0
C294 C 0.9191 0.99734 0.83042 0.0
C295 C 0.88977 0.99672 0.85575 0.0
H296 H 0.55354 0.81656 0.92094 0.0
H297 H 0.50342 0.8208 0.15208 0.0
H298 H 0.4965 0.87433 0.10399 0.0
H299 H 0.505 0.92018 -0.00429 0.0
H300 H 0.55575 0.91514 0.76562 0.0
H301 H 0.56201 0.86188 0.81372 0.0
C302 C 0.54112 0.82924 0.96082 0.0
C303 C 0.52908 0.81474 0.03993 0.0
C304 C 0.5373 0.85995 0.93283 0.0
C305 C 0.51299 0.8314 0.09096 0.0
C306 C 0.50901 0.86204 0.06339 0.0
C307 C 0.51738 0.90742 0.95601 0.0
C308 C 0.52987 0.92181 0.877 0.0
C309 C 0.52109 0.87659 0.98436 0.0
C310 C 0.5459 0.90482 0.82666 0.0
C311 C 0.54952 0.87428 0.85412 0.0
H312 H 0.74218 0.58078 0.01692 0.0
H313 H 0.73786 0.50218 0.21418 0.0
H314 H 0.69506 0.48345 0.14245 0.0
H315 H 0.66041 0.48821 0.01882 0.0
H316 H 0.6624 0.56803 0.82692 0.0
H317 H 0.7044 0.58779 0.9012 0.0
C318 C 0.73159 0.55972 0.04459 0.0
C319 C 0.74317 0.54284 0.12048 0.0
C320 C 0.70672 0.54932 0.00359 0.0
C321 C 0.72927 0.51567 0.15613 0.0
C322 C 0.70489 0.50487 0.11484 0.0
C323 C 0.67007 0.50997 0.99379 0.0
C324 C 0.65877 0.52658 0.91709 0.0
C325 C 0.69371 0.52129 0.03787 0.0
C326 C 0.67092 0.55497 0.88578 0.0
C327 C 0.6949 0.56614 0.92809 0.0
H328 H 0.04986 0.71061 0.13617 0.0
H329 H 0.96532 0.67335 0.22261 0.0
H330 H 0.96731 0.63808 0.11942 0.0
H331 H 0.99216 0.61949 -0.00089 0.0
H332 H 0.07382 0.66074 0.90085 0.0
H333 H 0.07408 0.69288 0.01312 0.0
C334 C 0.03216 0.6944 0.1331 0.0
C335 C 1.00772 0.69404 0.18779 0.0
C336 C 0.03287 0.67519 0.07068 0.0
C337 C 0.98446 0.67368 0.18162 0.0
C338 C 0.98556 0.65364 0.12248 0.0
C339 C 1.01004 0.63542 0.00304 0.0
C340 C 0.03302 0.63776 0.94243 0.0
C341 C 1.00948 0.65442 0.06592 0.0
C342 C 0.05589 0.65875 0.9468 0.0
C343 C 0.05606 0.677 0.01106 0.0
H344 H 0.99246 0.15604 0.3727 0.0
H345 H 0.05203 0.2035 0.52152 0.0
H346 H 0.05273 0.16018 0.63723 0.0
H347 H 0.04047 0.10747 0.68881 0.0
H348 H 0.98553 0.05831 0.53207 0.0
H349 H 0.9799 0.10356 0.42452 0.0
C350 C 1.0058 0.15692 0.43013 0.0
C351 C 0.02254 0.18289 0.43762 0.0
C352 C 1.00738 0.13148 0.49396 0.0
C353 C 0.03879 0.18395 0.51404 0.0
C354 C 0.0395 0.15904 0.57977 0.0
C355 C 0.02713 0.10666 0.6313 0.0
C356 C 0.01353 0.07961 0.61796 0.0
C357 C 0.02453 0.13248 0.56921 0.0
C358 C 0.99641 0.07885 0.54318 0.0
C359 C 0.99309 0.1047 0.48205 0.0
H360 H 0.37985 1.0074 0.41841 0.0
H361 H 0.33154 0.96117 0.64018 0.0
H362 H 0.37515 0.9636 0.73165 0.0
H363 H 0.42754 0.97764 0.74652 0.0
H364 H 0.47615 0.01801 0.51855 0.0
H365 H 0.43191 0.01749 0.42985 0.0
C366 C 0.3788 0.99696 0.48616 0.0
C367 C 0.3524 0.98348 0.52157 0.0
C368 C 0.40415 0.99701 0.53677 0.0
C369 C 0.35142 0.97172 0.61087 0.0
C370 C 0.37645 0.97284 0.66301 0.0
C371 C 0.42841 0.98608 0.67722 0.0
C372 C 0.45499 0.99787 0.63882 0.0
C373 C 0.403 0.98519 0.62632 0.0
C374 C 0.456 1.00861 0.54918 0.0
C375 C 0.4307 1.00853 0.49871 0.0
H376 H 0.4925 0.38512 0.42446 0.0
H377 H 0.56344 0.33464 0.55367 0.0
H378 H 0.57418 0.37484 0.63835 0.0
H379 H 0.56329 0.42517 0.67339 0.0
H380 H 0.49351 0.47506 0.53463 0.0
H381 H 0.48352 0.43487 0.45214 0.0
C382 C 0.51061 0.38295 0.47034 0.0
C383 C 0.52737 0.35708 0.48189 0.0
C384 C 0.5173 0.40641 0.51546 0.0
C385 C 0.55007 0.35426 0.54387 0.0
C386 C 0.55645 0.37741 0.59137 0.0
C387 C 0.54644 0.42741 0.62353 0.0
C388 C 0.52927 0.45308 0.60954 0.0
C389 C 0.54041 0.40381 0.57686 0.0
C390 C 0.50706 0.45555 0.54619 0.0
C391 C 0.50115 0.43249 0.49955 0.0
H392 H 0.1594 0.55475 0.38768 0.0
H393 H 0.18994 0.46866 0.5067 0.0
H394 H 0.14989 0.46385 0.61301 0.0
H395 H 0.10465 0.48309 0.66514 0.0
H396 H 0.07509 0.5701 0.54892 0.0
H397 H 0.1163 0.57572 0.4471 0.0
C398 C 0.15747 0.53528 0.43825 0.0
C399 C 0.17734 0.51213 0.44069 0.0
C400 C 0.13441 0.53269 0.49791 0.0
C401 C 0.17489 0.48679 0.50516 0.0
C402 C 0.15191 0.48396 0.56497 0.0
C403 C 0.10719 0.50318 0.61708 0.0
C404 C 0.08673 0.52594 0.6129 0.0
C405 C 0.13122 0.50651 0.56064 0.0
C406 C 0.09053 0.55223 0.5523 0.0
C407 C 0.11407 0.55547 0.49452 0.0
H408 H 0.01852 0.8633 0.24212 0.0
H409 H 0.0589 0.81015 0.07164 0.0
H410 H 0.05876 0.85306 0.95344 0.0
H411 H 0.04908 0.9066 0.90154 0.0
H412 H 0.01548 0.96002 0.08217 0.0
H413 H 0.01251 0.91616 0.19568 0.0
C414 C 0.02813 0.86106 0.18007 0.0
C415 C 0.03936 0.8336 0.16676 0.0
C416 C 0.02957 0.88602 0.11479 0.0
C417 C 0.05009 0.83096 0.08396 0.0
C418 C 0.05028 0.85557 0.01663 0.0
C419 C 0.04133 0.9085 0.96608 0.0
C420 C 0.03257 0.93632 0.9841 0.0
C421 C 0.04044 0.88333 0.03181 0.0
C422 C 0.02263 0.93882 0.06753 0.0
C423 C 0.02072 0.91377 0.13206 0.0
H424 H 0.66796 0.01229 0.1621 0.0
H425 H 0.71661 0.05804 0.94041 0.0
H426 H 0.67292 0.05608 0.84891 0.0
H427 H 0.62033 0.04275 0.83411 0.0
H428 H 0.57146 1.00287 0.06211 0.0
H429 H 0.61578 1.00279 0.15068 0.0
C430 C 0.66908 0.0227 0.09433 0.0
C431 C 0.69559 0.03595 0.05898 0.0
C432 C 0.64369 0.02296 0.04375 0.0
C433 C 0.69665 0.04768 0.96968 0.0
C434 C 0.67157 0.04684 0.91754 0.0
C435 C 0.61941 0.03429 0.90339 0.0
C436 C 0.59272 0.02282 0.94181 0.0
C437 C 0.6449 0.03482 0.95423 0.0
C438 C 0.59168 1.01204 0.03143 0.0
C439 C 0.61704 1.01177 0.08183 0.0
H440 H 0.48871 0.63839 0.12569 0.0
H441 H 0.56692 0.68237 0.00895 0.0
H442 H 0.57374 0.64132 0.92661 0.0
H443 H 0.55856 0.59153 0.89453 0.0
H444 H 0.47945 0.54873 0.00971 0.0
H445 H 0.4722 0.59037 0.08826 0.0
C446 C 0.50701 0.63912 0.08118 0.0
C447 C 0.52732 0.6632 0.07309 0.0
C448 C 0.51098 0.61534 0.03583 0.0
C449 C 0.55088 0.66414 0.01523 0.0
C450 C 0.55496 0.64051 0.96924 0.0
C451 C 0.53998 0.59123 0.93783 0.0
C452 C 0.51985 0.56692 0.94802 0.0
C453 C 0.53548 0.61569 0.98057 0.0
C454 C 0.49538 0.56708 0.00201 0.0
C455 C 0.49113 0.59093 0.0463 0.0
H456 H 0.8681 0.53799 0.06964 0.0
H457 H 0.88781 0.46159 0.26183 0.0
H458 H 0.92961 0.45054 0.17521 0.0
H459 H 0.96457 0.46726 0.05396 0.0
H460 H 0.94595 0.54691 0.87181 0.0
H461 H 0.89988 0.552 0.94436 0.0
C462 C 0.88098 0.51836 0.09089 0.0
C463 C 0.87499 0.50055 0.17118 0.0
C464 C 0.90568 0.51317 0.04334 0.0
C465 C 0.89212 0.4755 0.19952 0.0
C466 C 0.91614 0.46938 0.15054 0.0
C467 C 0.95019 0.48546 0.03026 0.0
C468 C 0.95882 0.50705 0.95934 0.0
C469 C 0.92385 0.4888 0.07396 0.0
C470 C 0.94002 0.53047 0.92807 0.0
C471 C 0.91358 0.53332 0.96897 0.0
H472 H 0.0787 0.20474 0.1351 0.0
H473 H 0.98566 0.21101 0.09544 0.0
H474 H 0.98622 0.17074 0.0084 0.0
H475 H 1.01165 0.12668 0.97304 0.0
H476 H 0.10438 0.11906 0.02276 0.0
H477 H 0.10558 0.16649 0.07655 0.0
C478 C 0.05889 0.19837 0.10313 0.0
C479 C 0.03226 0.21101 0.12057 0.0
C480 C 0.05917 0.17395 0.05816 0.0
C481 C 1.0065 0.20203 0.08121 0.0
C482 C 1.00675 0.17849 0.03316 0.0
C483 C 0.0322 0.13579 0.99363 0.0
C484 C 0.05771 0.11886 -0.00382 0.0
C485 C 0.03268 0.16311 0.02577 0.0
C486 C 0.08423 0.13109 0.02278 0.0
C487 C 0.085 0.15839 0.05295 0.0
H488 H 0.33827 0.94454 0.22742 0.0
H489 H 0.30659 0.03409 0.19894 0.0
H490 H 0.34385 0.05108 0.08867 0.0
H491 H 0.39213 0.04247 0.02776 0.0
H492 H 0.42511 0.9533 0.06177 0.0
H493 H 0.38096 0.93404 0.14264 0.0
C494 C 0.33864 0.96742 0.19359 0.0
C495 C 0.31998 0.98812 0.22181 0.0
C496 C 0.3612 0.97731 0.13404 0.0
C497 C 0.3206 0.01773 0.17801 0.0
C498 C 0.34239 0.02759 0.11639 0.0
C499 C 0.38935 0.01879 0.05193 0.0
C500 C 0.41206 0.99938 0.04091 0.0
C501 C 0.36395 1.00796 0.09853 0.0
C502 C 0.408 0.96863 0.07026 0.0
C503 C 0.38279 0.95766 0.11652 0.0
H504 H 0.55183 0.34549 0.15685 0.0
H505 H 0.45871 0.34234 0.19734 0.0
H506 H 0.45278 0.3838 0.0763 0.0
H507 H 0.47557 0.42639 0.975 0.0
H508 H 0.56979 0.43022 0.94706 0.0
H509 H 0.57376 0.38368 0.04649 0.0
C510 C 0.53014 0.35299 0.13616 0.0
C511 C 0.50572 0.34057 0.18429 0.0
C512 C 0.52721 0.37791 0.07059 0.0
C513 C 0.47774 0.35109 0.15937 0.0
C514 C 0.47446 0.37524 0.09144 0.0
C515 C 0.49688 0.41687 0.99029 0.0
C516 C 0.52231 0.43234 0.9547 0.0
C517 C 0.49924 0.38979 0.04926 0.0
C518 C 0.54977 0.41939 0.97459 0.0
C519 C 0.55217 0.3925 0.03119 0.0
H520 H 0.17105 0.46695 0.16711 0.0
H521 H 0.19914 0.55786 0.07561 0.0
H522 H 0.15957 0.5631 0.9674 0.0
H523 H 0.11281 0.54387 0.91419 0.0
H524 H 0.08455 0.45297 0.00884 0.0
H525 H 0.12801 0.44576 0.10141 0.0
C526 C 0.16913 0.48751 0.12104 0.0
C527 C 0.18805 0.51194 0.12874 0.0
C528 C 0.14564 0.49066 0.06186 0.0
C529 C 0.18518 0.53862 0.0698 0.0
C530 C 0.16218 0.54177 0.0092 0.0
C531 C 0.11622 0.52248 0.95503 0.0
C532 C 0.09512 0.49917 0.95605 0.0
C533 C 0.14152 0.51836 0.00739 0.0
C534 C 0.10022 0.47137 0.00764 0.0
C535 C 0.12514 0.46719 0.06032 0.0
H536 H 0.99034 0.80572 0.46849 0.0
H537 H 0.08368 0.81121 0.50413 0.0
H538 H 0.07813 0.85214 0.58704 0.0
H539 H 0.04753 0.89293 0.62079 0.0
H540 H 0.95442 0.88918 0.5736 0.0
H541 H 0.95899 0.84155 0.52287 0.0
C542 C 1.00927 0.81482 0.4987 0.0
C543 C 0.03732 0.80519 0.48151 0.0
C544 C 1.006 0.8397 0.54068 0.0
C545 C 0.06183 0.81779 0.51837 0.0
C546 C 0.05866 0.8417 0.56393 0.0
C547 C 0.02817 0.88138 0.60126 0.0
C548 C 1.00076 0.8951 0.59906 0.0
C549 C 0.03101 0.85395 0.571 0.0
C550 C 0.97591 0.87969 0.57348 0.0
C551 C 0.97845 0.85224 0.54517 0.0
H552 H 0.70913 0.07585 0.35148 0.0
H553 H 0.74109 0.98633 0.38358 0.0
H554 H 0.70382 0.9697 0.49408 0.0
H555 H 0.65548 0.97846 0.55426 0.0
H556 H 0.62223 0.06756 0.51684 0.0
H557 H 0.66637 0.08663 0.43554 0.0
C558 C 0.70882 0.05307 0.38613 0.0
C559 C 0.72756 0.03226 0.3589 0.0
C560 C 0.68625 0.04337 0.44585 0.0
C561 C 0.72701 1.00278 0.40374 0.0
C562 C 0.70522 0.99312 0.46551 0.0
C563 C 0.6582 1.0021 0.52928 0.0
C564 C 0.63543 0.02152 0.53942 0.0
C565 C 0.68359 0.01281 0.48248 0.0
C566 C 0.6394 0.05222 0.50901 0.0
C567 C 0.6646 0.06308 0.46251 0.0
H568 H 0.56837 0.66382 0.37694 0.0
H569 H 0.47681 0.68171 0.39679 0.0
H570 H 0.47194 0.64142 0.52222 0.0
H571 H 0.49246 0.59648 0.61149 0.0
H572 H 0.58403 0.57807 0.58565 0.0
H573 H 0.59015 0.6229 0.47699 0.0
C574 C 0.54768 0.65963 0.41131 0.0
C575 C 0.52308 0.67586 0.37898 0.0
C576 C 0.54486 0.63566 0.48032 0.0
C577 C 0.49615 0.6699 0.42208 0.0
C578 C 0.49329 0.64649 0.49259 0.0
C579 C 0.51377 0.60237 0.58235 0.0
C580 C 0.53762 0.58359 0.60564 0.0
C581 C 0.51723 0.62839 0.51975 0.0
C582 C 0.56521 0.59187 0.56836 0.0
C583 C 0.56879 0.6176 0.50636 0.0
H584 H 0.86492 0.49455 0.50726 0.0
H585 H 0.87439 0.58692 0.3912 0.0
H586 H 0.91547 0.5936 0.48944 0.0
H587 H 0.9538 0.57039 0.59251 0.0
H588 H 0.94461 0.47636 0.69662 0.0
H589 H 0.89886 0.47312 0.61952 0.0
C590 C 0.87521 0.51643 0.50637 0.0
C591 C 0.86647 0.54029 0.44354 0.0
C592 C 0.89969 0.51954 0.55912 0.0
C593 C 0.88038 0.56841 0.44075 0.0
C594 C 0.90425 0.57203 0.49572 0.0
C595 C 0.9416 0.54935 0.59865 0.0
C596 C 0.95318 0.52355 0.64856 0.0
C597 C 0.91501 0.54735 0.55249 0.0
C598 C 0.93682 0.49648 0.65678 0.0
C599 C 0.91038 0.49455 0.61327 0.0
loop_
_geom_bond_atom_site_label_1
_geom_bond_atom_site_label_2
_geom_bond_distance
_geom_bond_site_symmetry_2
_ccdc_geom_bond_type
H0 C5 0.930 . S
H1 C8 0.930 . S
H2 C10 0.930 . S
H3 C4 1.016 . S
C4 H3 1.016 . S
C4 N11 1.286 . S
C5 H0 0.930 . S
C5 C6 1.397 . S
C5 C7 1.361 . S
C6 C5 1.397 . S
C6 C10 1.390 . S
C7 C5 1.361 . S
C7 C8 1.393 . S
C7 N11 1.413 . S
C8 H1 0.930 . S
C8 C7 1.393 . S
C8 C9 1.399 . S
C9 C8 1.399 . S
C9 C10 1.381 . S
C10 H2 0.930 . S
C10 C6 1.390 . S
C10 C9 1.381 . S
N11 C4 1.286 . S
N11 C7 1.413 . S
H12 C17 0.930 . S
H13 C20 0.930 1_556 S
H14 C22 0.930 . S
H15 C16 1.016 1_556 S
C16 H15 1.016 1_554 S
C16 N23 1.286 . S
C17 H12 0.930 . S
C17 C18 1.397 . S
C17 C19 1.361 . S
C18 C17 1.397 . S
C18 C22 1.390 . S
C19 C17 1.361 . S
C19 C20 1.393 . S
C19 N23 1.413 . S
C20 H13 0.930 1_554 S
C20 C19 1.393 . S
C20 C21 1.399 . S
C21 C20 1.399 . S
C21 C22 1.381 . S
C22 H14 0.930 . S
C22 C18 1.390 . S
C22 C21 1.381 . S
N23 C16 1.286 . S
N23 C19 1.413 . S
H24 C29 0.930 . S
H25 C32 0.930 . S
H26 C34 0.930 . S
H27 C28 1.035 . S
C28 H27 1.035 . S
C28 N35 1.262 1_566 S
C29 H24 0.930 . S
C29 C30 1.397 . S
C29 C31 1.361 . S
C30 C29 1.397 . S
C30 C34 1.390 1_545 S
C31 C29 1.361 . S
C31 C32 1.393 1_554 S
C31 N35 1.413 . S
C32 H25 0.930 . S
C32 C31 1.393 1_556 S
C32 C33 1.401 1_556 S
C33 C32 1.401 1_554 S
C33 C34 1.383 1_545 S
C34 H26 0.930 . S
C34 C30 1.390 1_565 S
C34 C33 1.383 1_565 S
N35 C28 1.262 1_544 S
N35 C31 1.413 . S
H36 C41 0.930 . S
H37 C44 0.930 . S
H38 C46 0.930 . S
H39 C40 1.016 1_556 S
C40 H39 1.016 1_554 S
C40 N47 1.286 . S
C41 H36 0.930 . S
C41 C42 1.397 . S
C41 C43 1.361 . S
C42 C41 1.397 . S
C42 C46 1.390 . S
C43 C41 1.361 . S
C43 C44 1.393 . S
C43 N47 1.413 . S
C44 H37 0.930 . S
C44 C43 1.393 . S
C44 C45 1.399 . S
C45 C44 1.399 . S
C45 C46 1.381 . S
C46 H38 0.930 . S
C46 C42 1.390 . S
C46 C45 1.381 . S
N47 C40 1.286 . S
N47 C43 1.413 . S
H48 C53 0.930 . S
H49 C56 0.930 . S
H50 C58 0.930 . S
H51 C52 1.016 . S
C52 H51 1.016 . S
C52 N59 1.286 . S
C53 H48 0.930 . S
C53 C54 1.397 . S
C53 C55 1.361 . S
C54 C53 1.397 . S
C54 C58 1.390 . S
C55 C53 1.361 . S
C55 C56 1.393 . S
C55 N59 1.413 . S
C56 H49 0.930 . S
C56 C55 1.393 . S
C56 C57 1.399 . S
C57 C56 1.399 . S
C57 C58 1.381 . S
C58 H50 0.930 . S
C58 C54 1.390 . S
C58 C57 1.381 . S
N59 C52 1.286 . S
N59 C55 1.413 . S
H60 C65 0.930 . S
H61 C68 0.930 . S
H62 C70 0.930 . S
H63 C64 1.016 . S
C64 H63 1.016 . S
C64 N71 1.286 . S
C65 H60 0.930 . S
C65 C66 1.397 . S
C65 C67 1.361 . S
C66 C65 1.397 . S
C66 C70 1.390 . S
C67 C65 1.361 . S
C67 C68 1.393 . S
C67 N71 1.413 . S
C68 H61 0.930 . S
C68 C67 1.393 . S
C68 C69 1.399 . S
C69 C68 1.399 . S
C69 C70 1.381 . S
C70 H62 0.930 . S
C70 C66 1.390 . S
C70 C69 1.381 . S
N71 C64 1.286 . S
N71 C67 1.413 . S
H72 C77 0.930 . S
H73 C80 0.930 . S
H74 C82 0.930 . S
H75 C76 1.022 . S
C76 H75 1.022 . S
C76 N83 1.277 1_565 S
C77 H72 0.930 . S
C77 C78 1.397 . S
C77 C79 1.361 . S
C78 C77 1.397 . S
C78 C82 1.390 1_545 S
C79 C77 1.361 . S
C79 C80 1.393 . S
C79 N83 1.413 . S
C80 H73 0.930 . S
C80 C79 1.393 . S
C80 C81 1.406 . S
C81 C80 1.406 . S
C81 C82 1.373 1_545 S
C82 H74 0.930 . S
C82 C78 1.390 1_565 S
C82 C81 1.373 1_565 S
N83 C76 1.277 1_545 S
N83 C79 1.413 . S
H84 C89 0.930 . S
H85 C92 0.930 . S
H86 C94 0.930 . S
H87 C88 1.016 . S
C88 H87 1.016 . S
C88 N95 1.286 . S
C89 H84 0.930 . S
C89 C90 1.397 . S
C89 C91 1.361 . S
C90 C89 1.397 . S
C90 C94 1.390 . S
C91 C89 1.361 . S
C91 C92 1.393 . S
C91 N95 1.413 . S
C92 H85 0.930 . S
C92 C91 1.393 . S
C92 C93 1.399 . S
C93 C92 1.399 . S
C93 C94 1.381 . S
C94 H86 0.930 . S
C94 C90 1.390 . S
C94 C93 1.381 . S
N95 C88 1.286 . S
N95 C91 1.413 . S
Co96 N101 2.057 . S
Co96 O113 2.021 . S
Co96 O116 2.062 . S
Co96 O120 2.117 1_455 S
Co96 O121 2.020 1_545 S
C97 O117 1.259 1_545 S
C97 O120 1.258 . S
Co98 N107 2.057 . S
Co98 O114 2.117 . S
Co98 O115 2.020 1_565 S
Co98 O117 2.021 1_455 S
Co98 O122 2.062 . S
C99 N101 1.316 1_554 S
C99 N102 1.347 . S
C99 H104 0.931 1_554 S
C100 N101 1.373 1_554 S
C100 C103 1.350 . S
C100 H105 0.932 1_455 S
N101 Co96 2.057 . S
N101 C99 1.316 1_556 S
N101 C100 1.373 1_556 S
N102 C99 1.347 . S
N102 C103 1.373 . S
C103 C100 1.350 . S
C103 N102 1.373 . S
C103 H124 0.931 1_455 S
H104 C99 0.931 1_556 S
H105 C100 0.932 1_655 S
C106 O113 1.259 1_565 S
C106 O114 1.258 . S
N107 Co98 2.057 . S
N107 C108 1.316 1_455 S
N107 C109 1.375 . S
C108 N107 1.316 1_655 S
C108 N110 1.347 . S
C108 H119 0.931 . S
C109 N107 1.375 . S
C109 C111 1.350 . S
C109 H118 0.930 . S
N110 C108 1.347 . S
N110 C111 1.373 1_655 S
C111 C109 1.350 . S
C111 N110 1.373 1_455 S
C111 H125 0.931 . S
C112 O115 1.256 . S
C112 O116 1.255 . S
O113 Co96 2.021 . S
O113 C106 1.259 1_545 S
O114 Co98 2.117 . S
O114 C106 1.258 . S
O115 Co98 2.020 1_545 S
O115 C112 1.256 . S
O116 Co96 2.062 . S
O116 C112 1.255 . S
O117 C97 1.259 1_565 S
O117 Co98 2.021 1_655 S
H118 C109 0.930 . S
H119 C108 0.931 . S
O120 Co96 2.117 1_655 S
O120 C97 1.258 . S
O121 Co96 2.020 1_565 S
O121 C123 1.256 . S
O122 Co98 2.062 . S
O122 C123 1.255 . S
C123 O121 1.256 . S
C123 O122 1.255 . S
H124 C103 0.931 1_655 S
H125 C111 0.931 . S
Co126 N131 2.057 1_545 S
Co126 O143 2.021 . S
Co126 O146 2.069 . S
Co126 O150 2.117 1_545 S
Co126 O151 2.020 . S
C127 O147 1.259 . S
C127 O150 1.258 . S
Co128 N137 2.057 1_565 S
Co128 O144 2.117 1_565 S
Co128 O145 2.020 . S
Co128 O147 2.021 . S
Co128 O152 2.067 . S
C129 N131 1.316 1_544 S
C129 N132 1.347 . S
C129 H134 0.931 1_554 S
C130 N131 1.375 1_554 S
C130 C133 1.350 . S
C130 H135 0.930 . S
N131 Co126 2.057 1_565 S
N131 C129 1.316 1_566 S
N131 C130 1.375 1_556 S
N132 C129 1.347 . S
N132 C133 1.373 1_545 S
C133 C130 1.350 . S
C133 N132 1.373 1_565 S
C133 H154 0.931 . S
H134 C129 0.931 1_556 S
H135 C130 0.930 . S
C136 O143 1.259 . S
C136 O144 1.258 . S
N137 Co128 2.057 1_545 S
N137 C138 1.316 1_545 S
N137 C139 1.375 . S
C138 N137 1.316 1_565 S
C138 N140 1.347 . S
C138 H149 0.931 . S
C139 N137 1.375 . S
C139 C141 1.350 . S
C139 H148 0.930 . S
N140 C138 1.347 . S
N140 C141 1.373 1_565 S
C141 C139 1.350 . S
C141 N140 1.373 1_545 S
C141 H155 0.931 . S
C142 O145 1.256 . S
C142 O146 1.241 1_565 S
O143 Co126 2.021 . S
O143 C136 1.259 . S
O144 Co128 2.117 1_545 S
O144 C136 1.258 . S
O145 Co128 2.020 . S
O145 C142 1.256 . S
O146 Co126 2.069 . S
O146 C142 1.241 1_545 S
O147 C127 1.259 . S
O147 Co128 2.021 . S
H148 C139 0.930 . S
H149 C138 0.931 . S
O150 Co126 2.117 1_565 S
O150 C127 1.258 . S
O151 Co126 2.020 . S
O151 C153 1.256 . S
O152 Co128 2.067 . S
O152 C153 1.244 1_565 S
C153 O151 1.256 . S
C153 O152 1.244 1_545 S
H154 C133 0.931 . S
H155 C141 0.931 . S
Co156 N161 2.057 . S
Co156 O173 2.021 . S
Co156 O176 2.062 . S
Co156 O180 2.117 . S
Co156 O181 2.020 . S
C157 O177 1.259 . S
C157 O180 1.258 . S
Co158 N167 2.057 . S
Co158 O174 2.117 . S
Co158 O175 2.020 . S
Co158 O177 2.021 . S
Co158 O182 2.062 . S
C159 N161 1.316 . S
C159 N162 1.347 . S
C159 H164 0.931 . S
C160 N161 1.375 . S
C160 C163 1.350 . S
C160 H165 0.930 . S
N161 Co156 2.057 . S
N161 C159 1.316 . S
N161 C160 1.375 . S
N162 C159 1.347 . S
N162 C163 1.373 . S
C163 C160 1.350 . S
C163 N162 1.373 . S
C163 H184 0.929 1_556 S
H164 C159 0.931 . S
H165 C160 0.930 . S
C166 O173 1.259 . S
C166 O174 1.258 . S
N167 Co158 2.057 . S
N167 C168 1.316 . S
N167 C169 1.375 . S
C168 N167 1.316 . S
C168 N170 1.347 . S
C168 H179 0.931 . S
C169 N167 1.375 . S
C169 C171 1.350 . S
C169 H178 0.930 . S
N170 C168 1.347 . S
N170 C171 1.373 . S
C171 C169 1.350 . S
C171 N170 1.373 . S
C171 H185 0.931 . S
C172 O175 1.256 . S
C172 O176 1.255 . S
O173 Co156 2.021 . S
O173 C166 1.259 . S
O174 Co158 2.117 . S
O174 C166 1.258 . S
O175 Co158 2.020 . S
O175 C172 1.256 . S
O176 Co156 2.062 . S
O176 C172 1.255 . S
O177 C157 1.259 . S
O177 Co158 2.021 . S
H178 C169 0.930 . S
H179 C168 0.931 . S
O180 Co156 2.117 . S
O180 C157 1.258 . S
O181 Co156 2.020 . S
O181 C183 1.256 . S
O182 Co158 2.062 . S
O182 C183 1.255 . S
C183 O181 1.256 . S
C183 O182 1.255 . S
H184 C163 0.929 1_554 S
H185 C171 0.931 . S
Co186 N191 2.057 . S
Co186 O203 2.021 1_455 S
Co186 O206 2.062 1_455 S
Co186 O210 2.117 . S
Co186 O211 2.020 . S
C187 O207 1.259 . S
C187 O210 1.258 . S
Co188 N197 2.057 . S
Co188 O204 2.117 1_455 S
Co188 O205 2.020 1_455 S
Co188 O207 2.021 . S
Co188 O212 2.062 . S
C189 N191 1.316 . S
C189 N192 1.347 . S
C189 H194 0.931 1_455 S
C190 N191 1.375 . S
C190 C193 1.350 . S
C190 H195 0.930 . S
N191 Co186 2.057 . S
N191 C189 1.316 . S
N191 C190 1.375 . S
N192 C189 1.347 . S
N192 C193 1.373 . S
C193 C190 1.350 . S
C193 N192 1.373 . S
C193 H214 0.931 . S
H194 C189 0.931 1_655 S
H195 C190 0.930 . S
C196 O203 1.259 . S
C196 O204 1.258 . S
N197 Co188 2.057 . S
N197 C198 1.316 . S
N197 C199 1.375 1_455 S
C198 N197 1.316 . S
C198 N200 1.347 . S
C198 H209 0.931 . S
C199 N197 1.375 1_655 S
C199 C201 1.360 . S
C199 H208 0.930 . S
N200 C198 1.347 . S
N200 C201 1.343 1_455 S
C201 C199 1.360 . S
C201 N200 1.343 1_655 S
C201 H215 0.948 . S
C202 O205 1.256 . S
C202 O206 1.255 . S
O203 Co186 2.021 1_655 S
O203 C196 1.259 . S
O204 Co188 2.117 1_655 S
O204 C196 1.258 . S
O205 Co188 2.020 1_655 S
O205 C202 1.256 . S
O206 Co186 2.062 1_655 S
O206 C202 1.255 . S
O207 C187 1.259 . S
O207 Co188 2.021 . S
H208 C199 0.930 . S
H209 C198 0.931 . S
O210 Co186 2.117 . S
O210 C187 1.258 . S
O211 Co186 2.020 . S
O211 C213 1.256 . S
O212 Co188 2.062 . S
O212 C213 1.255 . S
C213 O211 1.256 . S
C213 O212 1.255 . S
H214 C193 0.931 . S
H215 C201 0.948 . S
H216 C222 0.930 . S
H217 C225 0.930 . S
H218 C226 0.930 . S
H219 C227 0.930 . S
H220 C230 0.930 . S
H221 C231 0.930 . S
C222 H216 0.930 . S
C222 C223 1.355 1_565 S
C222 C224 1.415 . S
C223 C222 1.355 1_545 S
C223 C225 1.419 . S
C224 C222 1.415 . S
C224 C229 1.425 1_565 S
C224 C231 1.409 . S
C225 H217 0.930 . S
C225 C223 1.419 . S
C225 C226 1.362 . S
C226 H218 0.930 . S
C226 C225 1.362 . S
C226 C229 1.409 . S
C227 H219 0.930 . S
C227 C228 1.355 1_545 S
C227 C229 1.415 . S
C228 C227 1.355 1_565 S
C228 C230 1.419 . S
C229 C224 1.425 1_545 S
C229 C226 1.409 . S
C229 C227 1.415 . S
C230 H220 0.930 . S
C230 C228 1.419 . S
C230 C231 1.362 . S
C231 H221 0.930 . S
C231 C224 1.409 . S
C231 C230 1.362 . S
H232 C238 0.930 . S
H233 C241 0.930 . S
H234 C242 0.930 . S
H235 C243 0.930 . S
H236 C246 0.930 . S
H237 C247 0.930 . S
C238 H232 0.930 . S
C238 C239 1.355 . S
C238 C240 1.415 . S
C239 C238 1.355 . S
C239 C241 1.419 . S
C240 C238 1.415 . S
C240 C245 1.425 . S
C240 C247 1.409 . S
C241 H233 0.930 . S
C241 C239 1.419 . S
C241 C242 1.362 . S
C242 H234 0.930 . S
C242 C241 1.362 . S
C242 C245 1.409 . S
C243 H235 0.930 . S
C243 C244 1.355 . S
C243 C245 1.415 . S
C244 C243 1.355 . S
C244 C246 1.419 . S
C245 C240 1.425 . S
C245 C242 1.409 . S
C245 C243 1.415 . S
C246 H236 0.930 . S
C246 C244 1.419 . S
C246 C247 1.362 . S
C247 H237 0.930 . S
C247 C240 1.409 . S
C247 C246 1.362 . S
H248 C254 0.930 . S
H249 C257 0.930 . S
H250 C258 0.930 . S
H251 C259 0.930 . S
H252 C262 0.930 . S
H253 C263 0.930 . S
C254 H248 0.930 . S
C254 C255 1.355 . S
C254 C256 1.415 . S
C255 C254 1.355 . S
C255 C257 1.419 . S
C256 C254 1.415 . S
C256 C261 1.425 . S
C256 C263 1.409 . S
C257 H249 0.930 . S
C257 C255 1.419 . S
C257 C258 1.362 . S
C258 H250 0.930 . S
C258 C257 1.362 . S
C258 C261 1.409 . S
C259 H251 0.930 . S
C259 C260 1.355 . S
C259 C261 1.415 . S
C260 C259 1.355 . S
C260 C262 1.419 . S
C261 C256 1.425 . S
C261 C258 1.409 . S
C261 C259 1.415 . S
C262 H252 0.930 . S
C262 C260 1.419 . S
C262 C263 1.362 . S
C263 H253 0.930 . S
C263 C256 1.409 . S
C263 C262 1.362 . S
H264 C270 0.930 . S
H265 C273 0.930 . S
H266 C274 0.930 . S
H267 C275 0.930 . S
H268 C278 0.930 . S
H269 C279 0.930 . S
C270 H264 0.930 . S
C270 C271 1.355 . S
C270 C272 1.415 . S
C271 C270 1.355 . S
C271 C273 1.419 . S
C272 C270 1.415 . S
C272 C277 1.425 . S
C272 C279 1.409 . S
C273 H265 0.930 . S
C273 C271 1.419 . S
C273 C274 1.362 . S
C274 H266 0.930 . S
C274 C273 1.362 . S
C274 C277 1.409 . S
C275 H267 0.930 . S
C275 C276 1.355 . S
C275 C277 1.415 . S
C276 C275 1.355 . S
C276 C278 1.419 . S
C277 C272 1.425 . S
C277 C274 1.409 . S
C277 C275 1.415 . S
C278 H268 0.930 . S
C278 C276 1.419 . S
C278 C279 1.362 . S
C279 H269 0.930 . S
C279 C272 1.409 . S
C279 C278 1.362 . S
H280 C286 0.930 1_554 S
H281 C289 0.930 . S
H282 C290 0.930 . S
H283 C291 0.930 . S
H284 C294 0.930 . S
H285 C295 0.930 . S
C286 H280 0.930 1_556 S
C286 C287 1.355 1_565 S
C286 C288 1.415 . S
C287 C286 1.355 1_545 S
C287 C289 1.419 . S
C288 C286 1.415 . S
C288 C293 1.425 1_565 S
C288 C295 1.409 . S
C289 H281 0.930 . S
C289 C287 1.419 . S
C289 C290 1.362 . S
C290 H282 0.930 . S
C290 C289 1.362 . S
C290 C293 1.409 . S
C291 H283 0.930 . S
C291 C292 1.355 . S
C291 C293 1.415 . S
C292 C291 1.355 . S
C292 C294 1.419 1_545 S
C293 C288 1.425 1_545 S
C293 C290 1.409 . S
C293 C291 1.415 . S
C294 H284 0.930 . S
C294 C292 1.419 1_565 S
C294 C295 1.362 . S
C295 H285 0.930 . S
C295 C288 1.409 . S
C295 C294 1.362 . S
H296 C302 0.930 . S
H297 C305 0.930 . S
H298 C306 0.930 . S
H299 C307 0.930 . S
H300 C310 0.930 . S
H301 C311 0.930 . S
C302 H296 0.930 . S
C302 C303 1.355 1_556 S
C302 C304 1.415 . S
C303 C302 1.355 1_554 S
C303 C305 1.419 . S
C304 C302 1.415 . S
C304 C309 1.425 . S
C304 C311 1.409 . S
C305 H297 0.930 . S
C305 C303 1.419 . S
C305 C306 1.362 1_554 S
C306 H298 0.930 . S
C306 C305 1.362 1_556 S
C306 C309 1.409 . S
C307 H299 0.930 . S
C307 C308 1.355 . S
C307 C309 1.415 . S
C308 C307 1.355 . S
C308 C310 1.419 . S
C309 C304 1.425 . S
C309 C306 1.409 . S
C309 C307 1.415 . S
C310 H300 0.930 . S
C310 C308 1.419 . S
C310 C311 1.362 . S
C311 H301 0.930 . S
C311 C304 1.409 . S
C311 C310 1.362 . S
H312 C318 0.930 . S
H313 C321 0.930 . S
H314 C322 0.930 . S
H315 C323 0.930 . S
H316 C326 0.930 . S
H317 C327 0.930 . S
C318 H312 0.930 . S
C318 C319 1.355 . S
C318 C320 1.415 . S
C319 C318 1.355 . S
C319 C321 1.419 . S
C320 C318 1.415 . S
C320 C325 1.425 1_554 S
C320 C327 1.409 . S
C321 H313 0.930 . S
C321 C319 1.419 . S
C321 C322 1.362 1_554 S
C322 H314 0.930 . S
C322 C321 1.362 1_556 S
C322 C325 1.409 . S
C323 H315 0.930 . S
C323 C324 1.355 . S
C323 C325 1.415 . S
C324 C323 1.355 . S
C324 C326 1.419 . S
C325 C320 1.425 1_556 S
C325 C322 1.409 . S
C325 C323 1.415 . S
C326 H316 0.930 . S
C326 C324 1.419 . S
C326 C327 1.362 1_556 S
C327 H317 0.930 . S
C327 C320 1.409 . S
C327 C326 1.362 1_554 S
H328 C334 0.914 1_455 S
H329 C337 0.930 . S
H330 C338 0.930 . S
H331 C339 0.930 . S
H332 C342 0.930 . S
H333 C343 0.930 . S
C334 H328 0.914 1_655 S
C334 C335 1.355 . S
C334 C336 1.415 1_554 S
C335 C334 1.355 . S
C335 C337 1.419 . S
C336 C334 1.415 1_556 S
C336 C341 1.425 . S
C336 C343 1.409 1_655 S
C337 H329 0.930 . S
C337 C335 1.419 . S
C337 C338 1.362 1_554 S
C338 H330 0.930 . S
C338 C337 1.362 1_556 S
C338 C341 1.409 . S
C339 H331 0.930 . S
C339 C340 1.355 . S
C339 C341 1.415 . S
C340 C339 1.355 . S
C340 C342 1.419 1_655 S
C341 C336 1.425 . S
C341 C338 1.409 . S
C341 C339 1.415 . S
C342 H332 0.930 . S
C342 C340 1.419 1_455 S
C342 C343 1.362 . S
C343 H333 0.930 . S
C343 C336 1.409 1_455 S
C343 C342 1.362 . S
H344 C350 0.930 . S
H345 C353 0.930 . S
H346 C354 0.930 . S
H347 C355 0.930 . S
H348 C358 0.930 1_655 S
H349 C359 0.930 . S
C350 H344 0.930 . S
C350 C351 1.355 . S
C350 C352 1.415 . S
C351 C350 1.355 . S
C351 C353 1.419 . S
C352 C350 1.415 . S
C352 C357 1.425 . S
C352 C359 1.409 . S
C353 H345 0.930 . S
C353 C351 1.419 . S
C353 C354 1.362 . S
C354 H346 0.930 . S
C354 C353 1.362 . S
C354 C357 1.409 . S
C355 H347 0.930 . S
C355 C356 1.355 . S
C355 C357 1.415 . S
C356 C355 1.355 . S
C356 C358 1.419 . S
C357 C352 1.425 . S
C357 C354 1.409 . S
C357 C355 1.415 . S
C358 H348 0.930 1_455 S
C358 C356 1.419 . S
C358 C359 1.362 . S
C359 H349 0.930 . S
C359 C352 1.409 . S
C359 C358 1.362 . S
H360 C366 0.930 . S
H361 C369 0.930 . S
H362 C370 0.930 . S
H363 C371 0.930 . S
H364 C374 0.930 . S
H365 C375 0.930 . S
C366 H360 0.930 . S
C366 C367 1.355 1_545 S
C366 C368 1.415 . S
C367 C366 1.355 1_565 S
C367 C369 1.419 . S
C368 C366 1.415 . S
C368 C373 1.425 1_545 S
C368 C375 1.409 . S
C369 H361 0.930 . S
C369 C367 1.419 . S
C369 C370 1.362 . S
C370 H362 0.930 . S
C370 C369 1.362 . S
C370 C373 1.409 . S
C371 H363 0.930 . S
C371 C372 1.355 . S
C371 C373 1.415 . S
C372 C371 1.355 . S
C372 C374 1.419 1_565 S
C373 C368 1.425 1_565 S
C373 C370 1.409 . S
C373 C371 1.415 . S
C374 H364 0.930 . S
C374 C372 1.419 1_545 S
C374 C375 1.362 . S
C375 H365 0.930 . S
C375 C368 1.409 . S
C375 C374 1.362 . S
H376 C382 0.930 . S
H377 C385 0.930 . S
H378 C386 0.930 . S
H379 C387 0.930 . S
H380 C390 0.930 . S
H381 C391 0.930 . S
C382 H376 0.930 . S
C382 C383 1.355 . S
C382 C384 1.415 . S
C383 C382 1.355 . S
C383 C385 1.419 . S
C384 C382 1.415 . S
C384 C389 1.425 . S
C384 C391 1.409 . S
C385 H377 0.930 . S
C385 C383 1.419 . S
C385 C386 1.362 . S
C386 H378 0.930 . S
C386 C385 1.362 . S
C386 C389 1.409 . S
C387 H379 0.930 . S
C387 C388 1.355 . S
C387 C389 1.415 . S
C388 C387 1.355 . S
C388 C390 1.419 . S
C389 C384 1.425 . S
C389 C386 1.409 . S
C389 C387 1.415 . S
C390 H380 0.930 . S
C390 C388 1.419 . S
C390 C391 1.362 . S
C391 H381 0.930 . S
C391 C384 1.409 . S
C391 C390 1.362 . S
H392 C398 0.930 . S
H393 C401 0.930 . S
H394 C402 0.930 . S
H395 C403 0.930 . S
H396 C406 0.930 . S
H397 C407 0.930 . S
C398 H392 0.930 . S
C398 C399 1.355 . S
C398 C400 1.415 . S
C399 C398 1.355 . S
C399 C401 1.419 . S
C400 C398 1.415 . S
C400 C405 1.425 . S
C400 C407 1.409 . S
C401 H393 0.930 . S
C401 C399 1.419 . S
C401 C402 1.362 . S
C402 H394 0.930 . S
C402 C401 1.362 . S
C402 C405 1.409 . S
C403 H395 0.930 . S
C403 C404 1.355 . S
C403 C405 1.415 . S
C404 C403 1.355 . S
C404 C406 1.419 . S
C405 C400 1.425 . S
C405 C402 1.409 . S
C405 C403 1.415 . S
C406 H396 0.930 . S
C406 C404 1.419 . S
C406 C407 1.362 . S
C407 H397 0.930 . S
C407 C400 1.409 . S
C407 C406 1.362 . S
H408 C414 0.930 . S
H409 C417 0.930 . S
H410 C418 0.930 . S
H411 C419 0.930 1_554 S
H412 C422 0.930 . S
H413 C423 0.930 . S
C414 H408 0.930 . S
C414 C415 1.355 1_556 S
C414 C416 1.415 . S
C415 C414 1.355 1_554 S
C415 C417 1.419 . S
C416 C414 1.415 . S
C416 C421 1.425 . S
C416 C423 1.409 . S
C417 H409 0.930 . S
C417 C415 1.419 . S
C417 C418 1.362 . S
C418 H410 0.930 . S
C418 C417 1.362 . S
C418 C421 1.409 1_554 S
C419 H411 0.930 1_556 S
C419 C420 1.355 . S
C419 C421 1.415 1_455 S
C420 C419 1.355 . S
C420 C422 1.419 1_455 S
C421 C416 1.425 . S
C421 C418 1.409 1_556 S
C421 C419 1.415 1_655 S
C422 H412 0.930 . S
C422 C420 1.419 1_655 S
C422 C423 1.362 . S
C423 H413 0.930 . S
C423 C416 1.409 . S
C423 C422 1.362 . S
H424 C430 0.930 . S
H425 C433 0.930 . S
H426 C434 0.930 . S
H427 C435 0.930 . S
H428 C438 0.929 1_554 S
H429 C439 0.930 . S
C430 H424 0.930 . S
C430 C431 1.354 1_554 S
C430 C432 1.412 1_564 S
C431 C430 1.354 1_556 S
C431 C433 1.419 1_565 S
C432 C430 1.412 1_546 S
C432 C437 1.425 . S
C432 C439 1.414 1_546 S
C433 H425 0.930 . S
C433 C431 1.419 1_545 S
C433 C434 1.362 . S
C434 H426 0.930 . S
C434 C433 1.362 . S
C434 C437 1.409 . S
C435 H427 0.930 . S
C435 C436 1.355 . S
C435 C437 1.415 . S
C436 C435 1.355 . S
C436 C438 1.419 . S
C437 C432 1.425 . S
C437 C434 1.409 . S
C437 C435 1.415 . S
C438 H428 0.929 1_556 S
C438 C436 1.419 . S
C438 C439 1.362 1_546 S
C439 H429 0.930 . S
C439 C432 1.414 1_564 S
C439 C438 1.362 1_564 S
H440 C446 0.930 . S
H441 C449 0.930 . S
H442 C450 0.930 . S
H443 C451 0.930 . S
H444 C454 0.930 . S
H445 C455 0.930 . S
C446 H440 0.930 . S
C446 C447 1.355 . S
C446 C448 1.415 . S
C447 C446 1.355 . S
C447 C449 1.419 1_554 S
C448 C446 1.415 . S
C448 C453 1.425 1_554 S
C448 C455 1.409 . S
C449 H441 0.930 . S
C449 C447 1.419 1_556 S
C449 C450 1.362 . S
C450 H442 0.930 . S
C450 C449 1.362 . S
C450 C453 1.409 . S
C451 H443 0.930 . S
C451 C452 1.355 . S
C451 C453 1.415 . S
C452 C451 1.355 . S
C452 C454 1.419 . S
C453 C448 1.425 1_556 S
C453 C450 1.409 . S
C453 C451 1.415 . S
C454 H444 0.930 . S
C454 C452 1.419 . S
C454 C455 1.362 1_556 S
C455 H445 0.930 . S
C455 C448 1.409 . S
C455 C454 1.362 1_554 S
H456 C462 0.930 1_556 S
H457 C465 0.930 . S
H458 C466 0.930 . S
H459 C467 0.930 . S
H460 C470 0.930 . S
H461 C471 0.930 . S
C462 H456 0.930 1_554 S
C462 C463 1.355 . S
C462 C464 1.415 1_554 S
C463 C462 1.355 . S
C463 C465 1.419 . S
C464 C462 1.415 1_556 S
C464 C469 1.425 1_556 S
C464 C471 1.409 . S
C465 H457 0.930 . S
C465 C463 1.419 . S
C465 C466 1.362 . S
C466 H458 0.930 . S
C466 C465 1.362 . S
C466 C469 1.409 . S
C467 H459 0.930 . S
C467 C468 1.355 1_554 S
C467 C469 1.415 . S
C468 C467 1.355 1_556 S
C468 C470 1.419 . S
C469 C464 1.425 1_554 S
C469 C466 1.409 . S
C469 C467 1.415 . S
C470 H460 0.930 . S
C470 C468 1.419 . S
C470 C471 1.362 . S
C471 H461 0.930 . S
C471 C464 1.409 . S
C471 C470 1.362 . S
H472 C478 0.930 . S
H473 C481 0.930 . S
H474 C482 0.930 . S
H475 C483 0.930 . S
H476 C486 0.930 . S
H477 C487 0.930 . S
C478 H472 0.930 . S
C478 C479 1.355 . S
C478 C480 1.415 . S
C479 C478 1.355 . S
C479 C481 1.419 . S
C480 C478 1.415 . S
C480 C485 1.425 . S
C480 C487 1.409 . S
C481 H473 0.930 . S
C481 C479 1.419 . S
C481 C482 1.362 . S
C482 H474 0.930 . S
C482 C481 1.362 . S
C482 C485 1.409 . S
C483 H475 0.930 . S
C483 C484 1.355 . S
C483 C485 1.415 . S
C484 C483 1.355 . S
C484 C486 1.419 . S
C485 C480 1.425 . S
C485 C482 1.409 . S
C485 C483 1.415 . S
C486 H476 0.930 . S
C486 C484 1.419 . S
C486 C487 1.362 . S
C487 H477 0.930 . S
C487 C480 1.409 . S
C487 C486 1.362 . S
H488 C494 0.928 1_565 S
H489 C497 0.930 . S
H490 C498 0.930 . S
H491 C499 0.930 . S
H492 C502 0.930 . S
H493 C503 0.930 . S
C494 H488 0.928 1_545 S
C494 C495 1.353 . S
C494 C496 1.415 . S
C495 C494 1.353 . S
C495 C497 1.422 . S
C496 C494 1.415 . S
C496 C501 1.425 . S
C496 C503 1.409 . S
C497 H489 0.930 . S
C497 C495 1.422 . S
C497 C498 1.362 . S
C498 H490 0.930 . S
C498 C497 1.362 . S
C498 C501 1.409 . S
C499 H491 0.930 . S
C499 C500 1.355 . S
C499 C501 1.415 . S
C500 C499 1.355 . S
C500 C502 1.419 . S
C501 C496 1.425 . S
C501 C498 1.409 . S
C501 C499 1.415 . S
C502 H492 0.930 . S
C502 C500 1.419 . S
C502 C503 1.362 . S
C503 H493 0.930 . S
C503 C496 1.409 . S
C503 C502 1.362 . S
H504 C510 0.930 . S
H505 C513 0.930 . S
H506 C514 0.930 . S
H507 C515 0.930 1_556 S
H508 C518 0.930 . S
H509 C519 0.930 . S
C510 H504 0.930 . S
C510 C511 1.355 . S
C510 C512 1.415 . S
C511 C510 1.355 . S
C511 C513 1.419 . S
C512 C510 1.415 . S
C512 C517 1.425 . S
C512 C519 1.409 . S
C513 H505 0.930 . S
C513 C511 1.419 . S
C513 C514 1.362 . S
C514 H506 0.930 . S
C514 C513 1.362 . S
C514 C517 1.409 . S
C515 H507 0.930 1_554 S
C515 C516 1.355 . S
C515 C517 1.415 . S
C516 C515 1.355 . S
C516 C518 1.419 . S
C517 C512 1.425 . S
C517 C514 1.409 . S
C517 C515 1.415 . S
C518 H508 0.930 . S
C518 C516 1.419 . S
C518 C519 1.362 . S
C519 H509 0.930 . S
C519 C512 1.409 . S
C519 C518 1.362 . S
H520 C526 0.930 . S
H521 C529 0.930 . S
H522 C530 0.930 . S
H523 C531 0.930 . S
H524 C534 0.930 . S
H525 C535 0.930 . S
C526 H520 0.930 . S
C526 C527 1.355 . S
C526 C528 1.415 . S
C527 C526 1.355 . S
C527 C529 1.419 . S
C528 C526 1.415 . S
C528 C533 1.425 . S
C528 C535 1.409 . S
C529 H521 0.930 . S
C529 C527 1.419 . S
C529 C530 1.362 . S
C530 H522 0.930 . S
C530 C529 1.362 . S
C530 C533 1.409 . S
C531 H523 0.930 . S
C531 C532 1.359 . S
C531 C533 1.415 . S
C532 C531 1.359 . S
C532 C534 1.418 1_554 S
C533 C528 1.425 . S
C533 C530 1.409 . S
C533 C531 1.415 . S
C534 H524 0.930 . S
C534 C532 1.418 1_556 S
C534 C535 1.362 1_556 S
C535 H525 0.930 . S
C535 C528 1.409 . S
C535 C534 1.362 1_554 S
H536 C542 0.930 . S
H537 C545 0.930 . S
H538 C546 0.930 1_455 S
H539 C547 0.930 1_455 S
H540 C550 0.930 . S
H541 C551 0.930 . S
C542 H536 0.930 . S
C542 C543 1.355 . S
C542 C544 1.415 . S
C543 C542 1.355 . S
C543 C545 1.419 . S
C544 C542 1.415 . S
C544 C549 1.425 . S
C544 C551 1.409 . S
C545 H537 0.930 . S
C545 C543 1.419 . S
C545 C546 1.362 . S
C546 H538 0.930 1_655 S
C546 C545 1.362 . S
C546 C549 1.409 . S
C547 H539 0.930 1_655 S
C547 C548 1.355 . S
C547 C549 1.415 . S
C548 C547 1.355 . S
C548 C550 1.419 . S
C549 C544 1.425 . S
C549 C546 1.409 . S
C549 C547 1.415 . S
C550 H540 0.930 . S
C550 C548 1.419 . S
C550 C551 1.362 . S
C551 H541 0.930 . S
C551 C544 1.409 . S
C551 C550 1.362 . S
H552 C558 0.930 . S
H553 C561 0.930 . S
H554 C562 0.930 . S
H555 C563 0.930 . S
H556 C566 0.930 . S
H557 C567 0.930 . S
C558 H552 0.930 . S
C558 C559 1.355 1_545 S
C558 C560 1.415 . S
C559 C558 1.355 1_565 S
C559 C561 1.419 . S
C560 C558 1.415 . S
C560 C565 1.425 1_545 S
C560 C567 1.409 . S
C561 H553 0.930 . S
C561 C559 1.419 . S
C561 C562 1.362 . S
C562 H554 0.930 . S
C562 C561 1.362 . S
C562 C565 1.409 . S
C563 H555 0.930 . S
C563 C564 1.355 . S
C563 C565 1.415 . S
C564 C563 1.355 . S
C564 C566 1.419 1_565 S
C565 C560 1.425 1_565 S
C565 C562 1.409 . S
C565 C563 1.415 . S
C566 H556 0.930 . S
C566 C564 1.419 1_545 S
C566 C567 1.362 . S
C567 H557 0.930 . S
C567 C560 1.409 . S
C567 C566 1.362 . S
H568 C574 0.930 . S
H569 C577 0.930 . S
H570 C578 0.930 . S
H571 C579 0.930 . S
H572 C582 0.930 . S
H573 C583 0.930 . S
C574 H568 0.930 . S
C574 C575 1.355 . S
C574 C576 1.415 . S
C575 C574 1.355 . S
C575 C577 1.419 . S
C576 C574 1.415 . S
C576 C581 1.425 . S
C576 C583 1.409 . S
C577 H569 0.930 . S
C577 C575 1.419 . S
C577 C578 1.362 . S
C578 H570 0.930 . S
C578 C577 1.362 . S
C578 C581 1.409 . S
C579 H571 0.930 . S
C579 C580 1.355 . S
C579 C581 1.415 . S
C580 C579 1.355 . S
C580 C582 1.419 . S
C581 C576 1.425 . S
C581 C578 1.409 . S
C581 C579 1.415 . S
C582 H572 0.930 . S
C582 C580 1.419 . S
C582 C583 1.362 . S
C583 H573 0.930 . S
C583 C576 1.409 . S
C583 C582 1.362 . S
H584 C590 0.930 . S
H585 C593 0.930 . S
H586 C594 0.930 . S
H587 C595 0.930 . S
H588 C598 0.930 . S
H589 C599 0.930 . S
C590 H584 0.930 . S
C590 C591 1.355 . S
C590 C592 1.415 . S
C591 C590 1.355 . S
C591 C593 1.419 . S
C592 C590 1.415 . S
C592 C597 1.425 . S
C592 C599 1.409 . S
C593 H585 0.930 . S
C593 C591 1.419 . S
C593 C594 1.362 . S
C594 H586 0.930 . S
C594 C593 1.362 . S
C594 C597 1.409 . S
C595 H587 0.930 . S
C595 C596 1.355 . S
C595 C597 1.415 . S
C596 C595 1.355 . S
C596 C598 1.419 . S
C597 C592 1.425 . S
C597 C594 1.409 . S
C597 C595 1.415 . S
C598 H588 0.930 . S
C598 C596 1.419 . S
C598 C599 1.362 . S
C599 H589 0.930 . S
C599 C592 1.409 . S
C599 C598 1.362 . S
C223 C76 1.691 1_545 S
C228 C106 1.696 . S
C244 C136 1.793 . S
C239 C88 1.759 . S
C260 N170 1.337 . S
C255 C52 1.338 . S
C276 N200 1.418 . S
C271 C64 1.369 . S
C292 C97 1.681 . S
C287 C28 1.671 1_545 S
C303 C40 1.779 . S
C308 C127 1.798 . S
C319 C4 1.358 . S
C324 N162 1.372 . S
C335 C16 1.432 . S
C340 N192 1.403 1_655 S
C356 C112 0.617 . S
C351 C69 0.707 . S
C372 C142 0.877 . S
C367 C81 0.827 1_565 S
C388 C183 1.160 . S
C383 C93 1.126 . S
C399 C57 0.745 . S
C404 C213 0.715 . S
C415 C21 0.483 . S
C420 C123 0.469 . S
C436 C153 0.941 . S
C431 C33 0.951 1_566 S
C452 C172 1.207 . S
C447 C45 1.183 . S
C463 C9 0.644 . S
C468 C202 0.669 . S
C479 C66 1.465 . S
C484 N102 1.500 . S
C495 C78 1.400 . S
C500 N132 1.440 . S
C516 C157 1.663 1_554 S
C511 C90 1.649 . S
C532 C187 1.587 1_554 S
C527 C54 1.555 . S
C543 C18 1.416 . S
C548 N110 1.492 . S
C564 N140 1.395 . S
C559 C30 1.431 1_565 S
C580 C166 1.650 . S
C575 C42 1.595 . S
C591 C6 1.539 . S
C596 C196 1.588 . S
