# Generated by pormake.
# Topology pyr, (3,6)-cn, num edge types: 1
# Building blocks:
#     Node 0, Type 0, BuildingBlock: VETTIZ_charged_linker_0, # of connection points: 3
#     Node 1, Type 0, BuildingBlock: VETTIZ_charged_linker_0, # of connection points: 3
#     Node 2, Type 0, BuildingBlock: VETTIZ_charged_linker_0, # of connection points: 3
#     Node 3, Type 0, BuildingBlock: VETTIZ_charged_linker_0, # of connection points: 3
#     Node 4, Type 0, BuildingBlock: VETTIZ_charged_linker_0, # of connection points: 3
#     Node 5, Type 0, BuildingBlock: VETTIZ_charged_linker_0, # of connection points: 3
#     Node 6, Type 0, BuildingBlock: VETTIZ_charged_linker_0, # of connection points: 3
#     Node 7, Type 0, BuildingBlock: VETTIZ_charged_linker_0, # of connection points: 3
#     Node 8, Type 1, BuildingBlock: BETFAJ_clean_sbu_0, # of connection points: 6
#     Node 9, Type 1, BuildingBlock: BETFAJ_clean_sbu_0, # of connection points: 6
#     Node 10, Type 1, BuildingBlock: BETFAJ_clean_sbu_0, # of connection points: 6
#     Node 11, Type 1, BuildingBlock: BETFAJ_clean_sbu_0, # of connection points: 6
#     Edge 12, Type (0, 1), BuildingBlock: XIVTED_clean_linker_0, # of connection points: 2
#     Edge 13, Type (0, 1), BuildingBlock: XIVTED_clean_linker_0, # of connection points: 2
#     Edge 14, Type (0, 1), BuildingBlock: XIVTED_clean_linker_0, # of connection points: 2
#     Edge 15, Type (0, 1), BuildingBlock: XIVTED_clean_linker_0, # of connection points: 2
#     Edge 16, Type (0, 1), BuildingBlock: XIVTED_clean_linker_0, # of connection points: 2
#     Edge 17, Type (0, 1), BuildingBlock: XIVTED_clean_linker_0, # of connection points: 2
#     Edge 18, Type (0, 1), BuildingBlock: XIVTED_clean_linker_0, # of connection points: 2
#     Edge 19, Type (0, 1), BuildingBlock: XIVTED_clean_linker_0, # of connection points: 2
#     Edge 20, Type (0, 1), BuildingBlock: XIVTED_clean_linker_0, # of connection points: 2
#     Edge 21, Type (0, 1), BuildingBlock: XIVTED_clean_linker_0, # of connection points: 2
#     Edge 22, Type (0, 1), BuildingBlock: XIVTED_clean_linker_0, # of connection points: 2
#     Edge 23, Type (0, 1), BuildingBlock: XIVTED_clean_linker_0, # of connection points: 2
#     Edge 24, Type (0, 1), BuildingBlock: XIVTED_clean_linker_0, # of connection points: 2
#     Edge 25, Type (0, 1), BuildingBlock: XIVTED_clean_linker_0, # of connection points: 2
#     Edge 26, Type (0, 1), BuildingBlock: XIVTED_clean_linker_0, # of connection points: 2
#     Edge 27, Type (0, 1), BuildingBlock: XIVTED_clean_linker_0, # of connection points: 2
#     Edge 28, Type (0, 1), BuildingBlock: XIVTED_clean_linker_0, # of connection points: 2
#     Edge 29, Type (0, 1), BuildingBlock: XIVTED_clean_linker_0, # of connection points: 2
#     Edge 30, Type (0, 1), BuildingBlock: XIVTED_clean_linker_0, # of connection points: 2
#     Edge 31, Type (0, 1), BuildingBlock: XIVTED_clean_linker_0, # of connection points: 2
#     Edge 32, Type (0, 1), BuildingBlock: XIVTED_clean_linker_0, # of connection points: 2
#     Edge 33, Type (0, 1), BuildingBlock: XIVTED_clean_linker_0, # of connection points: 2
#     Edge 34, Type (0, 1), BuildingBlock: XIVTED_clean_linker_0, # of connection points: 2
#     Edge 35, Type (0, 1), BuildingBlock: XIVTED_clean_linker_0, # of connection points: 2
# Relax obj value: 0.096
# Max RMSD: 0.121
# Mean RMSD: 0.058
data_MOF--net-pyr--node1-BETFAJ_clean_sbu_0--node2-VETTIZ_charged_linker_0--edge1-XIVTED_clean_linker_0
_symmetry_space_group_name_H-M    P1
_symmetry_Int_Tables_number       1
_symmetry_cell_setting            triclinic
loop_
_symmetry_equiv_pos_as_xyz
'x, y, z'
_cell_length_a     46.457521
_cell_length_b     48.772228
_cell_length_c     44.714583
_cell_angle_alpha  91.079876
_cell_angle_beta   88.734758
_cell_angle_gamma 99.705037
loop_
_atom_site_label
_atom_site_type_symbol
_atom_site_fract_x
_atom_site_fract_y
_atom_site_fract_z
_atom_type_partial_charge
C0 C 0.30024 0.25273 0.34197 0.0
C1 C 0.28051 0.26725 0.35737 0.0
C2 C 0.27782 0.29402 0.3475 0.0
C3 C 0.30664 0.28726 0.30316 0.0
C4 C 0.31322 0.26322 0.31504 0.0
C5 C 0.33296 0.24958 0.29454 0.0
H6 H 0.37357 0.22461 0.1537 0.0
C7 C 0.31771 0.28919 0.272 0.0
C8 C 0.33396 0.26768 0.26701 0.0
H9 H 0.40428 0.1928 0.23491 0.0
H10 H 0.37936 0.22375 0.26426 0.0
H11 H 0.39065 0.28788 0.17543 0.0
H12 H 0.30903 0.23101 0.17666 0.0
H13 H 0.30251 0.26312 0.16357 0.0
H14 H 0.32704 0.24469 0.14286 0.0
H15 H 0.36931 0.2802 0.14243 0.0
H16 H 0.36331 0.30764 0.16836 0.0
C17 C 0.36328 0.252 0.30922 0.0
C18 C 0.31824 0.21919 0.28808 0.0
C19 C 0.27072 0.34701 0.20022 0.0
C20 C 0.26987 0.3474 0.16888 0.0
C21 C 0.28845 0.33281 0.15191 0.0
C22 C 0.30668 0.31707 0.16602 0.0
C23 C 0.30583 0.31539 0.1974 0.0
C24 C 0.28849 0.33068 0.21397 0.0
C25 C 0.28888 0.32511 0.2469 0.0
C26 C 0.30978 0.30426 0.24745 0.0
C27 C 0.31926 0.29837 0.21832 0.0
C28 C 0.3011 0.35261 0.26359 0.0
C29 C 0.25732 0.31214 0.25658 0.0
C30 C 0.37538 0.22425 0.17775 0.0
C31 C 0.39037 0.20525 0.19172 0.0
C32 C 0.39195 0.2061 0.22328 0.0
C33 C 0.3777 0.22426 0.24044 0.0
C34 C 0.36174 0.24193 0.2261 0.0
C35 C 0.36185 0.24268 0.1953 0.0
C36 C 0.34611 0.26491 0.18411 0.0
C37 C 0.33642 0.27715 0.21341 0.0
C38 C 0.34468 0.26276 0.23781 0.0
C39 C 0.36827 0.28627 0.16644 0.0
C40 C 0.31984 0.25043 0.16564 0.0
H41 H 0.28685 0.32394 0.31323 0.0
H42 H 0.30369 0.23253 0.34922 0.0
H43 H 0.29555 0.21855 0.28032 0.0
H44 H 0.32985 0.20883 0.27063 0.0
H45 H 0.31729 0.20642 0.30849 0.0
H46 H 0.36546 0.26625 0.32907 0.0
H47 H 0.36731 0.23148 0.31692 0.0
H48 H 0.38128 0.2608 0.29365 0.0
H49 H 0.25638 0.35775 0.21379 0.0
H50 H 0.2883 0.33303 0.12769 0.0
H51 H 0.3199 0.30598 0.1519 0.0
H52 H 0.31527 0.36739 0.24865 0.0
H53 H 0.2832 0.36321 0.2723 0.0
H54 H 0.31531 0.34926 0.28227 0.0
H55 H 0.24833 0.29501 0.24088 0.0
H56 H 0.25558 0.30292 0.27888 0.0
H57 H 0.24269 0.32795 0.25654 0.0
H58 H 0.26412 0.30646 0.35969 0.0
C59 C 0.29091 0.30413 0.3205 0.0
C60 C 0.22889 0.90454 0.60225 0.0
C61 C 0.21154 0.91471 0.6246 0.0
C62 C 0.21472 0.90783 0.65464 0.0
C63 C 0.25319 0.88217 0.63995 0.0
C64 C 0.24943 0.88826 0.61038 0.0
C65 C 0.26946 0.87552 0.58944 0.0
H66 H 0.38393 0.80723 0.57191 0.0
C67 C 0.27705 0.86578 0.64099 0.0
C68 C 0.28664 0.86171 0.61149 0.0
H69 H 0.33108 0.83204 0.50244 0.0
H70 H 0.30128 0.85156 0.53997 0.0
H71 H 0.38454 0.86229 0.61772 0.0
H72 H 0.33299 0.78064 0.60943 0.0
H73 H 0.33443 0.78835 0.64788 0.0
H74 H 0.36779 0.78611 0.62715 0.0
H75 H 0.3983 0.8307 0.62424 0.0
H76 H 0.38019 0.84755 0.6535 0.0
C77 C 0.28905 0.89928 0.57245 0.0
C78 C 0.25062 0.85396 0.5689 0.0
C79 C 0.31588 0.84401 0.74137 0.0
C80 C 0.34007 0.83213 0.74952 0.0
C81 C 0.35587 0.81998 0.7271 0.0
C82 C 0.34873 0.8211 0.69693 0.0
C83 C 0.32563 0.83463 0.68904 0.0
C84 C 0.30915 0.84512 0.71116 0.0
C85 C 0.28581 0.85928 0.69864 0.0
C86 C 0.29125 0.85586 0.66532 0.0
C87 C 0.31473 0.84167 0.65987 0.0
C88 C 0.29181 0.89027 0.70887 0.0
C89 C 0.25569 0.84307 0.70881 0.0
C90 C 0.36652 0.81771 0.56476 0.0
C91 C 0.3603 0.8191 0.53435 0.0
C92 C 0.33653 0.83145 0.52582 0.0
C93 C 0.31921 0.84246 0.54762 0.0
C94 C 0.32546 0.84042 0.57812 0.0
C95 C 0.34865 0.82794 0.58615 0.0
C96 C 0.35051 0.82492 0.61935 0.0
C97 C 0.32471 0.83788 0.63014 0.0
C98 C 0.31047 0.84745 0.60602 0.0
C99 C 0.37994 0.84205 0.62946 0.0
C100 C 0.34645 0.79346 0.62654 0.0
H101 H 0.23713 0.88736 0.68572 0.0
H102 H 0.22638 0.90901 0.5789 0.0
H103 H 0.22945 0.84523 0.57995 0.0
H104 H 0.26111 0.83563 0.5637 0.0
H105 H 0.24564 0.86351 0.54768 0.0
H106 H 0.29785 0.91643 0.5882 0.0
H107 H 0.27644 0.90805 0.55527 0.0
H108 H 0.30824 0.89269 0.56138 0.0
H109 H 0.30354 0.85396 0.75792 0.0
H110 H 0.37441 0.81043 0.73284 0.0
H111 H 0.36208 0.81215 0.68087 0.0
H112 H 0.31569 0.89831 0.7091 0.0
H113 H 0.28294 0.89293 0.73181 0.0
H114 H 0.28289 0.90418 0.69371 0.0
H115 H 0.25636 0.82048 0.71084 0.0
H116 H 0.23838 0.84404 0.69248 0.0
H117 H 0.24885 0.85074 0.73095 0.0
H118 H 0.20156 0.91549 0.67218 0.0
C119 C 0.23546 0.89161 0.66243 0.0
C120 C 0.62525 0.27618 0.90042 0.0
C121 C 0.59957 0.25923 0.89021 0.0
C122 C 0.58521 0.26903 0.86594 0.0
C123 C 0.62198 0.31119 0.86263 0.0
C124 C 0.63596 0.30167 0.8864 0.0
C125 C 0.6633 0.32139 0.8945 0.0
H126 H 0.76127 0.43905 0.87062 0.0
C127 C 0.63942 0.33844 0.85288 0.0
C128 C 0.66375 0.34422 0.87167 0.0
H129 H 0.7612 0.37714 0.9387 0.0
H130 H 0.71651 0.35143 0.92007 0.0
H131 H 0.68953 0.44029 0.87633 0.0
H132 H 0.74089 0.39615 0.81703 0.0
H133 H 0.71352 0.40694 0.7959 0.0
H134 H 0.74069 0.43271 0.81345 0.0
H135 H 0.71494 0.45749 0.84905 0.0
H136 H 0.67804 0.4429 0.83937 0.0
C137 C 0.65925 0.33224 0.9269 0.0
C138 C 0.68955 0.30579 0.8899 0.0
C139 C 0.60676 0.39345 0.76593 0.0
C140 C 0.61979 0.41804 0.75114 0.0
C141 C 0.64706 0.43185 0.76137 0.0
C142 C 0.66088 0.42189 0.78566 0.0
C143 C 0.64774 0.39743 0.80014 0.0
C144 C 0.62126 0.38336 0.79001 0.0
C145 C 0.61155 0.35674 0.80718 0.0
C146 C 0.63598 0.35762 0.82974 0.0
C147 C 0.65714 0.38177 0.82559 0.0
C148 C 0.58192 0.35842 0.82281 0.0
C149 C 0.61055 0.33192 0.78499 0.0
C150 C 0.7515 0.42007 0.88165 0.0
C151 C 0.76547 0.41013 0.90611 0.0
C152 C 0.75171 0.38517 0.91949 0.0
C153 C 0.72541 0.37023 0.90872 0.0
C154 C 0.71207 0.38004 0.88409 0.0
C155 C 0.72495 0.40469 0.87105 0.0
C156 C 0.70728 0.41174 0.84505 0.0
C157 C 0.68179 0.38736 0.84481 0.0
C158 C 0.68488 0.36881 0.86775 0.0
C159 C 0.69694 0.43965 0.85253 0.0
C160 C 0.72648 0.41216 0.81625 0.0
H161 H 0.58398 0.30087 0.83414 0.0
H162 H 0.63727 0.26951 0.91863 0.0
H163 H 0.68623 0.29137 0.87022 0.0
H164 H 0.71029 0.3198 0.88493 0.0
H165 H 0.6924 0.29322 0.90974 0.0
H166 H 0.63599 0.33384 0.9318 0.0
H167 H 0.66597 0.31806 0.94357 0.0
H168 H 0.67127 0.35351 0.93082 0.0
H169 H 0.58608 0.38199 0.7585 0.0
H170 H 0.65764 0.45077 0.7507 0.0
H171 H 0.68146 0.43367 0.79219 0.0
H172 H 0.58239 0.37917 0.83373 0.0
H173 H 0.56397 0.35532 0.80643 0.0
H174 H 0.57646 0.34307 0.84073 0.0
H175 H 0.62944 0.3355 0.76899 0.0
H176 H 0.61221 0.31228 0.79613 0.0
H177 H 0.59025 0.32895 0.7718 0.0
H178 H 0.56522 0.25691 0.85762 0.0
C179 C 0.59612 0.29474 0.85229 0.0
C180 C 0.90984 0.77936 0.3801 0.0
C181 C 0.89964 0.79286 0.40569 0.0
C182 C 0.87533 0.77846 0.42169 0.0
C183 C 0.87056 0.73964 0.38632 0.0
C184 C 0.89501 0.75275 0.37093 0.0
C185 C 0.90262 0.73488 0.34469 0.0
H186 H 0.87018 0.61381 0.26228 0.0
C187 C 0.85952 0.71268 0.3711 0.0
C188 C 0.87829 0.70946 0.34662 0.0
H189 H 0.94365 0.68009 0.2494 0.0
H190 H 0.92635 0.70601 0.29075 0.0
H191 H 0.87215 0.61363 0.33523 0.0
H192 H 0.82238 0.65435 0.27472 0.0
H193 H 0.79922 0.64094 0.30449 0.0
H194 H 0.81502 0.61741 0.28002 0.0
H195 H 0.84423 0.59472 0.31205 0.0
H196 H 0.8355 0.60902 0.34788 0.0
C197 C 0.93297 0.72716 0.35018 0.0
C198 C 0.90109 0.75112 0.31561 0.0
C199 C 0.76576 0.65399 0.41112 0.0
C200 C 0.74884 0.62846 0.40227 0.0
C201 C 0.75852 0.61446 0.37695 0.0
C202 C 0.78436 0.6255 0.36108 0.0
C203 C 0.80098 0.651 0.37035 0.0
C204 C 0.79141 0.66474 0.39499 0.0
C205 C 0.8114 0.69167 0.40171 0.0
C206 C 0.83455 0.69205 0.37704 0.0
C207 C 0.82855 0.66814 0.35867 0.0
C208 C 0.82425 0.68955 0.43319 0.0
C209 C 0.79362 0.71563 0.39854 0.0
C210 C 0.88284 0.63375 0.26843 0.0
C211 C 0.9086 0.64457 0.25218 0.0
C212 C 0.92368 0.67108 0.26098 0.0
C213 C 0.91372 0.68611 0.28531 0.0
C214 C 0.88823 0.67478 0.30144 0.0
C215 C 0.87317 0.64903 0.29268 0.0
C216 C 0.84624 0.64022 0.31196 0.0
C217 C 0.84786 0.66447 0.33414 0.0
C218 C 0.87257 0.68492 0.32798 0.0
C219 C 0.8494 0.61286 0.32757 0.0
C220 C 0.81916 0.63785 0.29191 0.0
H221 H 0.84241 0.7431 0.42549 0.0
H222 H 0.92856 0.78937 0.36724 0.0
H223 H 0.88133 0.76123 0.31598 0.0
H224 H 0.89931 0.73761 0.29545 0.0
H225 H 0.92053 0.76768 0.31298 0.0
H226 H 0.93505 0.7219 0.37406 0.0
H227 H 0.95066 0.7448 0.34476 0.0
H228 H 0.93685 0.7086 0.33728 0.0
H229 H 0.75903 0.66571 0.43006 0.0
H230 H 0.74634 0.59467 0.36962 0.0
H231 H 0.79047 0.61366 0.34221 0.0
H232 H 0.82561 0.66763 0.43858 0.0
H233 H 0.81055 0.69751 0.45091 0.0
H234 H 0.84699 0.70066 0.43487 0.0
H235 H 0.77837 0.7114 0.37951 0.0
H236 H 0.80734 0.7358 0.39341 0.0
H237 H 0.78036 0.71806 0.41909 0.0
H238 H 0.86739 0.78724 0.44205 0.0
C239 C 0.86083 0.75236 0.41217 0.0
C240 C 0.74624 0.73417 0.8706 0.0
C241 C 0.76435 0.71787 0.85527 0.0
C242 C 0.76239 0.71494 0.8239 0.0
C243 C 0.72861 0.74754 0.82329 0.0
C244 C 0.72833 0.74856 0.85415 0.0
C245 C 0.70799 0.76722 0.86646 0.0
H246 H 0.62203 0.8632 0.84023 0.0
C247 C 0.71007 0.76687 0.81266 0.0
C248 C 0.69709 0.77789 0.83776 0.0
H249 H 0.64228 0.83166 0.92555 0.0
H250 H 0.6698 0.79975 0.90048 0.0
H251 H 0.61185 0.80175 0.80278 0.0
H252 H 0.68081 0.87091 0.81516 0.0
H253 H 0.68911 0.85671 0.78044 0.0
H254 H 0.65547 0.87023 0.78546 0.0
H255 H 0.61239 0.83602 0.78853 0.0
H256 H 0.62858 0.81034 0.76758 0.0
C257 C 0.68311 0.74914 0.88438 0.0
C258 C 0.7262 0.79086 0.88502 0.0
C259 C 0.725 0.80186 0.70694 0.0
C260 C 0.71539 0.82392 0.69238 0.0
C261 C 0.69125 0.83459 0.70476 0.0
C262 C 0.67931 0.82576 0.73273 0.0
C263 C 0.69162 0.80609 0.7485 0.0
C264 C 0.713 0.79341 0.73491 0.0
C265 C 0.72368 0.77304 0.75503 0.0
C266 C 0.70673 0.77726 0.78375 0.0
C267 C 0.68825 0.79684 0.77985 0.0
C268 C 0.71476 0.74334 0.74155 0.0
C269 C 0.75708 0.78208 0.7587 0.0
C270 C 0.63188 0.849 0.85348 0.0
C271 C 0.6299 0.8498 0.88485 0.0
C272 C 0.64368 0.8315 0.90133 0.0
C273 C 0.65957 0.81297 0.88674 0.0
C274 C 0.66208 0.81303 0.85534 0.0
C275 C 0.64815 0.83071 0.83927 0.0
C276 C 0.65448 0.82916 0.80624 0.0
C277 C 0.67403 0.80716 0.80503 0.0
C278 C 0.67844 0.79779 0.83384 0.0
C279 C 0.62535 0.81895 0.79021 0.0
C280 C 0.67063 0.85814 0.79606 0.0
H281 H 0.74455 0.72705 0.78407 0.0
H282 H 0.7468 0.73663 0.8947 0.0
H283 H 0.74751 0.7984 0.87359 0.0
H284 H 0.71565 0.80939 0.88782 0.0
H285 H 0.73082 0.78349 0.90749 0.0
H286 H 0.67768 0.72792 0.87427 0.0
H287 H 0.68947 0.74681 0.90788 0.0
H288 H 0.66243 0.75748 0.88426 0.0
H289 H 0.74334 0.79298 0.69823 0.0
H290 H 0.68262 0.85091 0.69363 0.0
H291 H 0.662 0.83566 0.74173 0.0
H292 H 0.69741 0.74245 0.72461 0.0
H293 H 0.73364 0.7359 0.73032 0.0
H294 H 0.7053 0.72814 0.75874 0.0
H295 H 0.76239 0.80477 0.76377 0.0
H296 H 0.76608 0.77167 0.77707 0.0
H297 H 0.76916 0.77778 0.7379 0.0
H298 H 0.77509 0.70166 0.81156 0.0
C299 C 0.74455 0.72957 0.80791 0.0
C300 C 0.82831 0.18381 0.46394 0.0
C301 C 0.83936 0.16616 0.44288 0.0
C302 C 0.82442 0.15961 0.41587 0.0
C303 C 0.78623 0.18447 0.43311 0.0
C304 C 0.80193 0.19289 0.45846 0.0
C305 C 0.78694 0.2116 0.47841 0.0
H306 H 0.66637 0.26862 0.50905 0.0
C307 C 0.75844 0.19511 0.43544 0.0
C308 C 0.7588 0.21137 0.46169 0.0
H309 H 0.74902 0.28585 0.55379 0.0
H310 H 0.76819 0.25268 0.52087 0.0
H311 H 0.66429 0.19966 0.49657 0.0
H312 H 0.69246 0.27492 0.44761 0.0
H313 H 0.6786 0.24944 0.42109 0.0
H314 H 0.65466 0.25936 0.45023 0.0
H315 H 0.63989 0.2217 0.48387 0.0
H316 H 0.65064 0.19488 0.46006 0.0
C317 C 0.78121 0.19806 0.50946 0.0
C318 C 0.80609 0.24091 0.47919 0.0
C319 C 0.67943 0.16145 0.36078 0.0
C320 C 0.65109 0.167 0.35717 0.0
C321 C 0.63999 0.1854 0.37721 0.0
C322 C 0.65691 0.1977 0.40106 0.0
C323 C 0.68528 0.19179 0.4045 0.0
C324 C 0.69615 0.17417 0.38429 0.0
C325 C 0.7271 0.1712 0.39037 0.0
C326 C 0.73299 0.18968 0.41794 0.0
C327 C 0.70838 0.20137 0.42631 0.0
C328 C 0.72744 0.14022 0.39714 0.0
C329 C 0.74662 0.18261 0.36322 0.0
C330 C 0.68829 0.26453 0.5124 0.0
C331 C 0.70604 0.27909 0.53444 0.0
C332 C 0.73492 0.27438 0.53722 0.0
C333 C 0.746 0.25541 0.51794 0.0
C334 C 0.72815 0.24165 0.49534 0.0
C335 C 0.69983 0.24642 0.49288 0.0
C336 C 0.68487 0.23236 0.4659 0.0
C337 C 0.70885 0.21826 0.45248 0.0
C338 C 0.73399 0.22339 0.47 0.0
C339 C 0.65838 0.21108 0.47693 0.0
C340 C 0.67697 0.255 0.44508 0.0
H341 H 0.78725 0.1622 0.39036 0.0
H342 H 0.83915 0.18952 0.48486 0.0
H343 H 0.82057 0.24452 0.45899 0.0
H344 H 0.79287 0.25779 0.479 0.0
H345 H 0.82029 0.24369 0.49905 0.0
H346 H 0.77173 0.17563 0.50697 0.0
H347 H 0.80182 0.1996 0.52199 0.0
H348 H 0.76547 0.20746 0.52341 0.0
H349 H 0.68868 0.14792 0.34513 0.0
H350 H 0.61822 0.19006 0.37449 0.0
H351 H 0.64729 0.2114 0.4158 0.0
H352 H 0.70904 0.13195 0.41259 0.0
H353 H 0.72505 0.12736 0.37629 0.0
H354 H 0.74736 0.13673 0.40834 0.0
H355 H 0.73646 0.19759 0.35023 0.0
H356 H 0.76791 0.1946 0.37012 0.0
H357 H 0.75049 0.16556 0.34762 0.0
H358 H 0.83286 0.14699 0.39871 0.0
C359 C 0.79792 0.16856 0.41096 0.0
C360 C 0.4104 0.67154 0.28683 0.0
C361 C 0.3996 0.64483 0.29854 0.0
C362 C 0.37411 0.62956 0.28578 0.0
C363 C 0.37094 0.66656 0.2507 0.0
C364 C 0.39591 0.68184 0.26284 0.0
C365 C 0.40475 0.70926 0.24682 0.0
H366 H 0.37718 0.79731 0.13662 0.0
C367 C 0.3609 0.68282 0.22617 0.0
C368 C 0.38076 0.70807 0.22365 0.0
H369 H 0.4497 0.81033 0.19702 0.0
H370 H 0.43117 0.76642 0.22083 0.0
H371 H 0.32993 0.77705 0.18424 0.0
H372 H 0.37771 0.73133 0.12356 0.0
H373 H 0.34076 0.71564 0.12265 0.0
H374 H 0.35101 0.75142 0.11201 0.0
H375 H 0.31946 0.77079 0.14604 0.0
H376 H 0.30568 0.74658 0.17518 0.0
C377 C 0.40404 0.73322 0.26975 0.0
C378 C 0.43504 0.70936 0.23185 0.0
C379 C 0.26811 0.64314 0.16826 0.0
C380 C 0.25278 0.65395 0.14535 0.0
C381 C 0.26375 0.68122 0.13559 0.0
C382 C 0.28938 0.69676 0.14716 0.0
C383 C 0.30464 0.6855 0.16936 0.0
C384 C 0.29372 0.65931 0.17999 0.0
C385 C 0.31234 0.65152 0.20482 0.0
C386 C 0.3363 0.67715 0.20691 0.0
C387 C 0.33175 0.69684 0.18575 0.0
C388 C 0.29321 0.64767 0.23373 0.0
C389 C 0.32479 0.62529 0.19456 0.0
C390 C 0.38945 0.79069 0.15466 0.0
C391 C 0.41523 0.80767 0.16452 0.0
C392 C 0.42973 0.79808 0.18882 0.0
C393 C 0.41901 0.77235 0.20259 0.0
C394 C 0.39329 0.75564 0.19225 0.0
C395 C 0.37901 0.76517 0.16869 0.0
C396 C 0.35166 0.74543 0.16078 0.0
C397 C 0.35201 0.72213 0.18284 0.0
C398 C 0.37645 0.72794 0.20151 0.0
C399 C 0.32521 0.76062 0.16658 0.0
C400 C 0.35515 0.73543 0.128 0.0
H401 H 0.34068 0.62724 0.25386 0.0
H402 H 0.43 0.6839 0.29571 0.0
H403 H 0.43613 0.68888 0.2209 0.0
H404 H 0.43993 0.72483 0.21399 0.0
H405 H 0.4526 0.7134 0.24863 0.0
H406 H 0.38392 0.72907 0.28403 0.0
H407 H 0.42317 0.73552 0.28463 0.0
H408 H 0.4036 0.75333 0.25905 0.0
H409 H 0.26068 0.62246 0.17672 0.0
H410 H 0.25235 0.691 0.11906 0.0
H411 H 0.29629 0.71712 0.13828 0.0
H412 H 0.27789 0.66292 0.23493 0.0
H413 H 0.27993 0.6265 0.23451 0.0
H414 H 0.30605 0.65155 0.25431 0.0
H415 H 0.33094 0.62638 0.17036 0.0
H416 H 0.34503 0.62309 0.20606 0.0
H417 H 0.30842 0.60614 0.19789 0.0
H418 H 0.36481 0.60928 0.29429 0.0
C419 C 0.35988 0.64016 0.26225 0.0
C420 C 0.11043 0.28065 0.68215 0.0
C421 C 0.12067 0.26678 0.65694 0.0
C422 C 0.14665 0.27947 0.64244 0.0
C423 C 0.15119 0.31916 0.67671 0.0
C424 C 0.12593 0.30691 0.69147 0.0
C425 C 0.118 0.32544 0.71695 0.0
H426 H 0.14888 0.44829 0.79618 0.0
C427 C 0.16198 0.34655 0.6912 0.0
C428 C 0.14264 0.35056 0.71492 0.0
H429 H 0.0759 0.38167 0.80997 0.0
H430 H 0.09376 0.35513 0.76955 0.0
H431 H 0.14704 0.44642 0.72304 0.0
H432 H 0.19767 0.40832 0.78511 0.0
H433 H 0.2207 0.42195 0.7553 0.0
H434 H 0.20388 0.44518 0.77919 0.0
H435 H 0.17485 0.46642 0.74552 0.0
H436 H 0.18363 0.45105 0.71025 0.0
C437 C 0.08795 0.33338 0.71041 0.0
C438 C 0.11873 0.30972 0.74653 0.0
C439 C 0.25462 0.40569 0.6492 0.0
C440 C 0.27081 0.43192 0.65687 0.0
C441 C 0.26079 0.44649 0.68159 0.0
C442 C 0.23529 0.43536 0.69796 0.0
C443 C 0.21933 0.4092 0.68979 0.0
C444 C 0.22928 0.39486 0.6658 0.0
C445 C 0.20998 0.36729 0.66025 0.0
C446 C 0.18671 0.36731 0.68474 0.0
C447 C 0.19209 0.39194 0.70206 0.0
C448 C 0.19708 0.36781 0.62859 0.0
C449 C 0.22844 0.34404 0.66474 0.0
C450 C 0.13648 0.42811 0.79045 0.0
C451 C 0.11071 0.41737 0.80673 0.0
C452 C 0.09592 0.39061 0.79842 0.0
C453 C 0.10623 0.37519 0.77464 0.0
C454 C 0.13179 0.38637 0.75856 0.0
C455 C 0.14652 0.41242 0.76672 0.0
C456 C 0.17347 0.42106 0.7474 0.0
C457 C 0.17244 0.39617 0.72612 0.0
C458 C 0.14787 0.37569 0.73265 0.0
C459 C 0.16986 0.44775 0.73071 0.0
C460 C 0.20048 0.42455 0.76765 0.0
H461 H 0.18133 0.31348 0.63978 0.0
H462 H 0.0905 0.27163 0.69381 0.0
H463 H 0.13797 0.29889 0.7467 0.0
H464 H 0.12096 0.32369 0.76634 0.0
H465 H 0.09879 0.29379 0.74942 0.0
H466 H 0.08648 0.33822 0.68633 0.0
H467 H 0.06996 0.31602 0.71582 0.0
H468 H 0.08403 0.35225 0.72272 0.0
H469 H 0.26166 0.39352 0.63078 0.0
H470 H 0.27241 0.4668 0.68804 0.0
H471 H 0.22889 0.44764 0.71632 0.0
H472 H 0.19341 0.38909 0.62306 0.0
H473 H 0.21207 0.36132 0.61116 0.0
H474 H 0.17536 0.35468 0.62658 0.0
H475 H 0.24475 0.34997 0.68258 0.0
H476 H 0.21526 0.32433 0.6724 0.0
H477 H 0.24059 0.33998 0.6439 0.0
H478 H 0.15543 0.26929 0.62341 0.0
C479 C 0.16184 0.30527 0.65211 0.0
Sm480 Sm 0.03067 0.03934 0.50466 0.0
Sm481 Sm 1.00042 1.01732 0.561 0.0
C482 C 0.04948 0.06217 0.45346 0.0
C483 C 0.0724 0.08614 0.44679 0.0
C484 C 0.07412 0.11103 0.46357 0.0
C485 C 0.09727 0.13286 0.45889 0.0
C486 C 0.11933 0.1301 0.43765 0.0
C487 C 0.11753 0.10527 0.42077 0.0
C488 C 0.09418 0.08349 0.42525 0.0
C489 C 0.06768 1.02286 0.54518 0.0
C490 C 0.03772 0.07906 0.56449 0.0
C491 C 0.97558 0.98647 0.60553 0.0
C492 C 0.94738 0.96768 0.60674 0.0
C493 C 0.94207 0.94632 0.62766 0.0
C494 C 0.91488 0.92889 0.62886 0.0
C495 C 0.89265 0.93278 0.60928 0.0
C496 C 0.89834 0.95383 0.58794 0.0
C497 C 0.92555 0.97101 0.58654 0.0
C498 C 0.9713 0.05182 0.53029 0.0
C499 C 0.99045 0.97745 0.50028 0.0
O500 O 0.0261 0.06774 0.46767 0.0
O501 O 0.05871 0.04026 0.46367 0.0
O502 O 0.04256 1.01008 0.53925 0.0
O503 O 0.07458 0.04468 0.52878 0.0
O504 O 0.03374 0.07863 0.53522 0.0
O505 O 0.03175 0.05567 0.57976 0.0
O506 O 0.9954 0.97864 0.58769 0.0
O507 O 0.97399 1.01279 0.60303 0.0
O508 O 0.98344 0.0329 0.51873 0.0
O509 O 0.97321 0.05246 0.55914 0.0
O510 O 0.98046 0.98277 0.52736 0.0
O511 O 0.01126 0.99524 0.48706 0.0
H512 H 0.05789 0.1135 0.48073 0.0
H513 H 0.09826 0.15168 0.47237 0.0
H514 H 0.13411 0.10274 0.404 0.0
H515 H 0.09339 0.06441 0.41227 0.0
H516 H 0.95878 0.94335 0.64322 0.0
H517 H 0.91093 0.91292 0.64568 0.0
H518 H 0.88169 0.95708 0.57242 0.0
H519 H 0.92943 0.98715 0.5699 0.0
Sm520 Sm 0.53114 0.03775 0.04343 0.0
Sm521 Sm 0.48224 1.02717 1.00678 0.0
C522 C 0.5813 0.05103 0.07112 0.0
C523 C 0.58718 0.06009 0.10218 0.0
C524 C 0.6104 0.08155 0.10852 0.0
C525 C 0.6139 0.09252 0.13756 0.0
C526 C 0.59423 0.08208 0.16062 0.0
C527 C 0.57133 0.06021 0.15427 0.0
C528 C 0.56773 0.04942 0.12527 0.0
C529 C 0.491 0.99337 0.06533 0.0
C530 C 0.47867 0.06779 0.06575 0.0
C531 C 0.43124 1.01121 0.98124 0.0
C532 C 0.41843 0.98619 0.96415 0.0
C533 C 0.41666 0.95935 0.97589 0.0
C534 C 0.4082 0.93584 0.95771 0.0
C535 C 0.40188 0.93898 0.92761 0.0
C536 C 0.40268 0.96568 0.91619 0.0
C537 C 0.41067 0.9891 0.93439 0.0
C538 C 0.52208 0.07202 0.9854 0.0
C539 C 0.53433 0.99691 0.98648 0.0
O540 O 0.5704 0.06858 0.05487 0.0
O541 O 0.56823 1.02537 0.06722 0.0
O542 O 0.4985 0.99699 0.03804 0.0
O543 O 0.50386 1.01401 0.08144 0.0
O544 O 0.5062 0.06651 0.07015 0.0
O545 O 0.46425 0.05365 0.04383 0.0
O546 O 0.43525 1.00837 1.00981 0.0
O547 O 0.45326 1.02685 0.96804 0.0
O548 O 0.5145 0.068 1.0126 0.0
O549 O 0.50924 0.0516 0.96895 0.0
O550 O 0.50573 0.99291 0.98829 0.0
O551 O 0.54956 1.01746 1.00177 0.0
H552 H 0.62538 0.09024 0.0909 0.0
H553 H 0.63191 0.10921 0.14198 0.0
H554 H 0.55569 0.052 0.17154 0.0
H555 H 0.54928 0.03321 0.1208 0.0
H556 H 0.42274 0.95647 0.99872 0.0
H557 H 0.40774 0.91532 0.96676 0.0
H558 H 0.39777 0.96838 0.89296 0.0
H559 H 0.41194 1.00955 0.92487 0.0
Sm560 Sm 0.50939 0.50772 0.50903 0.0
Sm561 Sm 0.50678 0.55665 0.54531 0.0
C562 C 0.52766 0.4642 0.48398 0.0
C563 C 0.54977 0.44852 0.49448 0.0
C564 C 0.57485 0.46243 0.50879 0.0
C565 C 0.59415 0.44743 0.52193 0.0
C566 C 0.58865 0.41824 0.52119 0.0
C567 C 0.56378 0.40437 0.50641 0.0
C568 C 0.54448 0.41941 0.4932 0.0
C569 C 0.45587 0.5051 0.53829 0.0
C570 C 0.53423 0.50998 0.5785 0.0
C571 C 0.48904 0.60037 0.57062 0.0
C572 C 0.47678 0.62317 0.5573 0.0
C573 C 0.45659 0.61763 0.5341 0.0
C574 C 0.44661 0.63931 0.51986 0.0
C575 C 0.45623 0.66705 0.52876 0.0
C576 C 0.47625 0.67253 0.55225 0.0
C577 C 0.48653 0.65077 0.56627 0.0
C578 C 0.56047 0.55887 0.51675 0.0
C579 C 0.48315 0.55487 0.47442 0.0
O580 O 0.53731 0.48972 0.47571 0.0
O581 O 0.50393 0.46207 0.50057 0.0
O582 O 0.48054 0.51348 0.54972 0.0
O583 O 0.45897 0.4979 0.51042 0.0
O584 O 0.53745 0.50126 0.55059 0.0
O585 O 0.51927 0.53031 0.58388 0.0
O586 O 0.47273 0.57577 0.56926 0.0
O587 O 0.51649 0.59976 0.56413 0.0
O588 O 0.5359 0.55079 0.50494 0.0
O589 O 0.55715 0.56614 0.54458 0.0
O590 O 0.4844 0.56699 0.50124 0.0
O591 O 0.49295 0.5312 0.47031 0.0
H592 H 0.57921 0.48494 0.51051 0.0
H593 H 0.61297 0.4587 0.53333 0.0
H594 H 0.55925 0.38187 0.50498 0.0
H595 H 0.52513 0.40832 0.48252 0.0
H596 H 0.44865 0.59653 0.52665 0.0
H597 H 0.43153 0.63425 0.50167 0.0
H598 H 0.48366 0.69359 0.56019 0.0
H599 H 0.50215 0.65549 0.58405 0.0
Sm600 Sm 0.01259 0.50063 0.04091 0.0
Sm601 Sm 1.00398 0.56227 1.01538 0.0
C602 C 0.03152 0.45267 0.04314 0.0
C603 C 0.05224 0.43955 0.05972 0.0
C604 C 0.06325 0.41721 0.04634 0.0
C605 C 0.08581 0.40655 0.05961 0.0
C606 C 0.09775 0.41802 0.08665 0.0
C607 C 0.08601 0.44001 0.10043 0.0
C608 C 0.06351 0.45081 0.08696 0.0
C609 C 0.98907 0.53279 0.08455 0.0
C610 C 0.06337 0.55659 0.05406 0.0
C611 C 0.98493 0.6101 1.01226 0.0
C612 C 0.96477 0.62231 0.9939 0.0
C613 C 0.95195 0.64425 1.00574 0.0
C614 C 0.93045 0.65433 0.98994 0.0
C615 C 0.92149 0.64262 0.962 0.0
C616 C 0.93485 0.62094 0.94993 0.0
C617 C 0.95623 0.61073 0.96587 0.0
C618 C 0.02737 0.52998 0.97176 0.0
C619 C 0.95343 0.50623 1.00176 0.0
O620 O 0.04353 0.47323 1.02615 0.0
O621 O 1.00773 0.45733 0.05737 0.0
O622 O 0.99696 0.53881 0.05794 0.0
O623 O 0.99332 0.50741 0.08897 0.0
O624 O 0.05564 0.52905 0.05496 0.0
O625 O 0.04708 0.57315 0.04168 0.0
O626 O 0.97251 0.58959 1.02911 0.0
O627 O 1.00947 0.60569 0.99939 0.0
O628 O 0.01955 0.52411 0.99841 0.0
O629 O 0.02297 0.55528 0.96719 0.0
O630 O 0.96076 0.53383 1.00168 0.0
O631 O 0.97003 0.48973 1.01373 0.0
H632 H 0.05507 0.40862 1.02504 0.0
H633 H 0.0946 0.39001 0.04803 0.0
H634 H 0.0944 0.4491 0.12143 0.0
H635 H 0.05543 0.46834 0.09739 0.0
H636 H 0.95815 0.65321 1.0275 0.0
H637 H 0.92076 0.67125 0.99961 0.0
H638 H 0.92816 0.61134 0.92859 0.0
H639 H 0.96562 0.59344 0.95666 0.0
H640 H 0.28859 0.22738 0.39835 0.0
H641 H 0.11726 0.18538 0.43173 0.0
H642 H 0.22325 0.27286 0.36683 0.0
H643 H 0.17759 0.12718 0.43321 0.0
H644 H 0.15814 0.22277 0.42093 0.0
H645 H 0.24998 0.19592 0.42447 0.0
C646 C 0.26633 0.23111 0.39722 0.0
C647 C 0.2593 0.25259 0.37966 0.0
C648 C 0.16244 0.20186 0.42392 0.0
C649 C 0.21519 0.21693 0.41 0.0
C650 C 0.13917 0.18056 0.43013 0.0
C651 C 0.14407 0.15314 0.43297 0.0
C652 C 0.19082 0.19571 0.42076 0.0
C653 C 0.17286 0.14799 0.43061 0.0
C654 C 0.24434 0.21315 0.41222 0.0
C655 C 0.23006 0.25681 0.38001 0.0
N656 N 0.19518 0.16907 0.42448 0.0
N657 N 0.2091 0.23895 0.39458 0.0
H658 H 0.30876 0.8276 0.80266 0.0
H659 H 0.43737 0.92558 0.88308 0.0
H660 H 0.39663 0.84719 0.76659 0.0
H661 H 0.35362 0.89841 0.92565 0.0
H662 H 0.42514 0.89016 0.84399 0.0
H663 H 0.32653 0.84601 0.85134 0.0
C664 C 0.33188 0.83524 0.80514 0.0
C665 C 0.35114 0.83635 0.78038 0.0
C666 C 0.40955 0.89148 0.86209 0.0
C667 C 0.37156 0.85758 0.83584 0.0
C668 C 0.41656 0.9117 0.88432 0.0
C669 C 0.3963 0.91482 0.90719 0.0
C670 C 0.38177 0.87475 0.86243 0.0
C671 C 0.36967 0.8965 0.90814 0.0
C672 C 0.34202 0.84569 0.83294 0.0
C673 C 0.38094 0.84595 0.78498 0.0
N674 N 0.36289 0.87748 0.88567 0.0
N675 N 0.39013 0.85667 0.812 0.0
H676 H 0.56331 0.42863 0.74658 0.0
H677 H 0.57947 0.47989 0.57638 0.0
H678 H 0.64418 0.43445 0.69626 0.0
H679 H 0.51821 0.5082 0.63853 0.0
H680 H 0.59945 0.4567 0.61755 0.0
H681 H 0.54233 0.45088 0.70505 0.0
C682 C 0.57657 0.43426 0.72671 0.0
C683 C 0.60566 0.4296 0.72512 0.0
C684 C 0.58166 0.46801 0.62223 0.0
C685 C 0.58158 0.45501 0.67711 0.0
C686 C 0.57014 0.48124 0.59864 0.0
C687 C 0.54711 0.49627 0.60378 0.0
C688 C 0.56975 0.46911 0.65137 0.0
C689 C 0.53609 0.49715 0.63336 0.0
C690 C 0.56463 0.44718 0.70306 0.0
C691 C 0.62176 0.4377 0.69871 0.0
N692 N 0.54728 0.48365 0.65584 0.0
N693 N 0.60954 0.44974 0.67586 0.0
H694 H 0.90688 0.58773 0.24679 0.0
H695 H 0.98819 0.58975 0.08521 0.0
H696 H 0.93645 0.66358 0.19891 0.0
H697 H 0.96185 0.51605 0.13728 0.0
H698 H 0.96813 0.61725 0.12497 0.0
H699 H 0.92534 0.56146 0.20572 0.0
C700 C 0.91702 0.59898 0.2276 0.0
C701 C 0.91987 0.62816 0.22667 0.0
C702 C 0.9666 0.59503 0.12761 0.0
C703 C 0.9417 0.59773 0.179 0.0
C704 C 0.97785 0.57927 0.10473 0.0
C705 C 0.97641 0.5504 0.10757 0.0
C706 C 0.95375 0.58188 0.15364 0.0
C707 C 0.96342 0.53818 0.13391 0.0
C708 C 0.92782 0.58386 0.20409 0.0
C709 C 0.93392 0.64124 0.20109 0.0
N710 N 0.95265 0.55385 0.15569 0.0
N711 N 0.94419 0.62603 0.17842 0.0
H712 H 0.39837 0.15266 0.20785 0.0
H713 H 0.43822 0.0986 0.04897 0.0
H714 H 0.41313 0.20968 0.1339 0.0
H715 H 0.48686 0.08018 0.12501 0.0
H716 H 0.41684 0.13246 0.07999 0.0
H717 H 0.42021 0.119 0.17781 0.0
C718 C 0.40634 0.1584 0.18553 0.0
C719 C 0.40384 0.18444 0.17368 0.0
C720 C 0.43209 0.12083 0.08978 0.0
C721 C 0.42751 0.14512 0.13885 0.0
C722 C 0.44408 0.10146 0.07228 0.0
C723 C 0.46426 0.0867 0.08458 0.0
C724 C 0.43972 0.12473 0.11991 0.0
C725 C 0.47142 0.0913 0.11477 0.0
C726 C 0.41855 0.13895 0.16838 0.0
C727 C 0.41382 0.18987 0.14405 0.0
N728 N 0.45891 0.10978 0.13159 0.0
N729 N 0.42492 0.17027 0.12757 0.0
H730 H 0.15455 0.91071 0.64323 0.0
H731 H 0.12652 0.04035 0.54769 0.0
H732 H 0.22059 0.95952 0.58795 0.0
H733 H 0.05728 0.97694 0.58008 0.0
H734 H 0.16222 1.01611 0.57071 0.0
H735 H 0.11946 0.9399 0.62816 0.0
C736 C 0.16167 0.92772 0.62811 0.0
C737 C 0.19035 0.93265 0.61658 0.0
C738 C 0.13919 1.00763 0.57295 0.0
C739 C 0.15058 0.96601 0.5994 0.0
C740 C 0.11885 1.02149 0.55995 0.0
C741 C 0.08903 1.01037 0.56175 0.0
C742 C 0.12954 0.98267 0.58803 0.0
C743 C 0.08016 0.986 0.57798 0.0
C744 C 0.14167 0.94426 0.61945 0.0
C745 C 0.19852 0.95482 0.59696 0.0
N746 N 0.10037 0.97283 0.59041 0.0
N747 N 0.1787 0.9707 0.58895 0.0
H748 H 0.81156 0.38729 0.9264 0.0
H749 H 0.91142 0.53162 0.97553 0.0
H750 H 0.78564 0.46696 0.91291 0.0
H751 H 0.93152 0.45046 0.99395 0.0
H752 H 0.86652 0.50921 0.95105 0.0
H753 H 0.85644 0.41077 0.94908 0.0
C754 C 0.81514 0.40977 0.92827 0.0
C755 C 0.79423 0.42498 0.91793 0.0
C756 C 0.88075 0.49632 0.96047 0.0
C757 C 0.84657 0.45239 0.94395 0.0
C758 C 0.90649 0.50912 0.97454 0.0
C759 C 0.92556 0.49303 0.98707 0.0
C760 C 0.87386 0.46712 0.95868 0.0
C761 C 0.91771 0.46391 0.98483 0.0
C762 C 0.84102 0.42324 0.9412 0.0
C763 C 0.80095 0.45422 0.92039 0.0
N764 N 0.89268 0.45202 0.97099 0.0
N765 N 0.82636 0.4669 0.93323 0.0
H766 H 0.73823 0.62974 0.46321 0.0
H767 H 0.57087 0.55295 0.45622 0.0
H768 H 0.69645 0.59996 0.38081 0.0
H769 H 0.61396 0.58285 0.5378 0.0
H770 H 0.61667 0.56853 0.42823 0.0
H771 H 0.69318 0.61176 0.49065 0.0
C772 C 0.7196 0.61956 0.45076 0.0
C773 C 0.7214 0.61664 0.41943 0.0
C774 C 0.61615 0.57161 0.45227 0.0
C775 C 0.66927 0.59549 0.45114 0.0
C776 C 0.58998 0.56266 0.46828 0.0
C777 C 0.58845 0.56666 0.49946 0.0
C778 C 0.64111 0.58472 0.46746 0.0
C779 C 0.614 0.57937 0.51382 0.0
C780 C 0.69381 0.60909 0.46657 0.0
C781 C 0.69642 0.60259 0.40489 0.0
N782 N 0.63911 0.58798 0.49777 0.0
N783 N 0.67149 0.59269 0.42078 0.0
H784 H 0.25496 0.39875 0.18002 0.0
H785 H 0.10841 0.36435 0.08776 0.0
H786 H 0.23262 0.32461 0.12551 0.0
H787 H 0.14524 0.44824 0.11472 0.0
H788 H 0.15183 0.34843 0.10575 0.0
H789 H 0.21318 0.4167 0.15989 0.0
C790 C 0.24142 0.38643 0.16357 0.0
C791 C 0.24725 0.36023 0.15429 0.0
C792 C 0.1504 0.37034 0.10767 0.0
C793 C 0.19934 0.38029 0.1317 0.0
C794 C 0.12563 0.37948 0.09736 0.0
C795 C 0.12314 0.40776 0.0995 0.0
C796 C 0.17281 0.38949 0.12059 0.0
C797 C 0.14595 0.42621 0.1129 0.0
C798 C 0.21765 0.39664 0.15213 0.0
C799 C 0.2291 0.34506 0.13296 0.0
N800 N 0.16982 0.41675 0.12297 0.0
N801 N 0.20578 0.35518 0.12261 0.0
H802 H 0.57385 0.20989 0.86317 0.0
H803 H 0.54416 0.12147 1.0148 0.0
H804 H 0.59916 0.24457 0.95 0.0
H805 H 0.52974 0.08599 0.92631 0.0
H806 H 0.56323 0.16684 0.99228 0.0
H807 H 0.55599 0.16507 0.88643 0.0
C808 C 0.57552 0.20827 0.88716 0.0
C809 C 0.58815 0.23146 0.90444 0.0
C810 C 0.55597 0.14911 0.97778 0.0
C811 C 0.56766 0.17939 0.93155 0.0
C812 C 0.5451 0.12314 0.99067 0.0
C813 C 0.53524 0.09969 0.97252 0.0
C814 C 0.55689 0.15189 0.94642 0.0
C815 C 0.53702 0.10333 0.94132 0.0
C816 C 0.56545 0.18244 0.90047 0.0
C817 C 0.58998 0.22746 0.9355 0.0
N818 N 0.54742 0.12874 0.92939 0.0
N819 N 0.57984 0.20215 0.94796 0.0
H820 H 0.87278 0.83362 0.43237 0.0
H821 H 0.01376 0.95081 0.45277 0.0
H822 H 0.95813 0.81881 0.40323 0.0
H823 H 0.93814 0.94317 0.51163 0.0
H824 H 0.99267 0.90666 0.42805 0.0
H825 H 0.89513 0.87778 0.45453 0.0
C826 C 0.89629 0.83939 0.43071 0.0
C827 C 0.91348 0.82161 0.41637 0.0
C828 C 0.98074 0.9147 0.44635 0.0
C829 C 0.93935 0.87354 0.44126 0.0
C830 C 0.99268 0.94 0.46042 0.0
C831 C 0.97776 0.95092 0.48441 0.0
C832 C 0.95332 0.90038 0.45582 0.0
C833 C 0.95056 0.93571 0.49335 0.0
C834 C 0.90903 0.8649 0.44333 0.0
C835 C 0.94379 0.83147 0.41401 0.0
N836 N 0.93921 0.91149 0.47898 0.0
N837 N 0.95572 0.85666 0.42634 0.0
H838 H 0.41876 0.82713 0.52221 0.0
H839 H 0.40052 0.66663 0.5092 0.0
H840 H 0.33778 0.77435 0.5003 0.0
H841 H 0.48443 0.71998 0.51602 0.0
H842 H 0.37952 0.706 0.49291 0.0
H843 H 0.44532 0.79024 0.50574 0.0
C844 C 0.40673 0.80815 0.51262 0.0
C845 C 0.37613 0.80344 0.51301 0.0
C846 C 0.40266 0.70907 0.49741 0.0
C847 C 0.40602 0.76078 0.49552 0.0
C848 C 0.41477 0.68647 0.5067 0.0
C849 C 0.44424 0.69004 0.51477 0.0
C850 C 0.41993 0.73562 0.49675 0.0
C851 C 0.46138 0.71642 0.51113 0.0
C852 C 0.42182 0.78696 0.5035 0.0
C853 C 0.36142 0.7786 0.5005 0.0
N854 N 0.44885 0.73831 0.50298 0.0
N855 N 0.37646 0.7578 0.49309 0.0
H856 H 0.74781 0.80228 0.64788 0.0
H857 H 0.84052 0.95144 0.6115 0.0
H858 H 0.72634 0.88004 0.68195 0.0
H859 H 0.87766 0.87621 0.61407 0.0
H860 H 0.79216 0.92416 0.62171 0.0
H861 H 0.78867 0.82844 0.61947 0.0
C862 C 0.75123 0.82478 0.64902 0.0
C863 C 0.73397 0.83884 0.66819 0.0
C864 C 0.81085 0.91361 0.61957 0.0
C865 C 0.78024 0.86875 0.63515 0.0
C866 C 0.83838 0.9291 0.61368 0.0
C867 C 0.86308 0.91603 0.61229 0.0
C868 C 0.80799 0.88484 0.62379 0.0
C869 C 0.85917 0.88708 0.61546 0.0
C870 C 0.77452 0.83965 0.63272 0.0
C871 C 0.73891 0.86809 0.66772 0.0
N872 N 0.83211 0.87243 0.62125 0.0
N873 N 0.76184 0.88204 0.65186 0.0
H874 H 0.62655 0.19319 0.31344 0.0
H875 H 0.59061 0.05443 0.21347 0.0
H876 H 0.63813 0.11209 0.34264 0.0
H877 H 0.60436 0.13706 0.17713 0.0
H878 H 0.59706 0.07477 0.26377 0.0
H879 H 0.60676 0.17213 0.26629 0.0
C880 C 0.62423 0.17087 0.31013 0.0
C881 C 0.63409 0.15427 0.3316 0.0
C882 C 0.5985 0.08844 0.24479 0.0
C883 C 0.61195 0.13023 0.27812 0.0
C884 C 0.59477 0.07686 0.21614 0.0
C885 C 0.59731 0.09413 0.19117 0.0
C886 C 0.60464 0.11746 0.24847 0.0
C887 C 0.6028 0.12305 0.19581 0.0
C888 C 0.61322 0.15892 0.28324 0.0
C889 C 0.63094 0.12552 0.32636 0.0
N890 N 0.6064 0.13385 0.22396 0.0
N891 N 0.62032 0.1144 0.30001 0.0
H892 H 0.40873 0.59074 0.30407 0.0
H893 H 0.472 0.6086 0.47087 0.0
H894 H 0.42403 0.6698 0.35079 0.0
H895 H 0.46778 0.53324 0.41814 0.0
H896 H 0.45313 0.63097 0.4285 0.0
H897 H 0.42904 0.56946 0.34607 0.0
C898 C 0.41631 0.60374 0.32316 0.0
C899 C 0.4143 0.63227 0.32363 0.0
C900 C 0.45628 0.60954 0.42614 0.0
C901 C 0.43795 0.60759 0.37255 0.0
C902 C 0.46689 0.5966 0.45053 0.0
C903 C 0.47133 0.56873 0.44851 0.0
C904 C 0.44979 0.59463 0.39918 0.0
C905 C 0.46475 0.55465 0.42105 0.0
C906 C 0.42808 0.59148 0.34723 0.0
C907 C 0.42514 0.64784 0.34909 0.0
N908 N 0.45429 0.56763 0.39773 0.0
N909 N 0.43621 0.63533 0.37246 0.0
H910 H 0.11201 0.47426 0.81123 0.0
H911 H 0.02751 0.47295 0.97103 0.0
H912 H 0.08247 0.39889 0.85997 0.0
H913 H 0.05577 0.54668 0.91955 0.0
H914 H 0.04839 0.44538 0.93196 0.0
H915 H 0.09276 0.50083 0.8516 0.0
C916 C 0.10171 0.46318 0.83045 0.0
C917 C 0.09908 0.43403 0.83181 0.0
C918 C 0.05018 0.46762 0.9293 0.0
C919 C 0.07634 0.46478 0.87864 0.0
C920 C 0.03848 0.48343 0.95181 0.0
C921 C 0.04026 0.51233 0.94896 0.0
C922 C 0.06378 0.48074 0.90358 0.0
C923 C 0.05394 0.52453 0.92291 0.0
C924 C 0.09047 0.47847 0.85355 0.0
C925 C 0.08483 0.42117 0.85742 0.0
N926 N 0.06512 0.5088 0.90145 0.0
N927 N 0.07411 0.43653 0.87965 0.0
H928 H 0.57659 0.86313 0.87237 0.0
H929 H 0.59208 0.99177 0.98768 0.0
H930 H 0.64926 0.88439 0.93165 0.0
H931 H 0.51038 0.95594 0.94744 0.0
H932 H 0.61528 0.95577 0.96294 0.0
H933 H 0.55352 0.89988 0.89594 0.0
C934 C 0.58762 0.87552 0.89041 0.0
C935 C 0.61481 0.87071 0.90016 0.0
C936 C 0.59229 0.95585 0.95948 0.0
C937 C 0.58874 0.91287 0.92698 0.0
C938 C 0.57908 0.97651 0.97341 0.0
C939 C 0.54924 0.97683 0.96965 0.0
C940 C 0.57562 0.93554 0.94143 0.0
C941 C 0.53344 0.95643 0.95103 0.0
C942 C 0.57445 0.89642 0.90387 0.0
C943 C 0.62812 0.88722 0.92371 0.0
N944 N 0.54683 0.93661 0.9376 0.0
N945 N 0.61504 0.90769 0.93621 0.0
H946 H 0.88797 0.18737 0.4757 0.0
H947 H 0.95218 0.04553 0.47293 0.0
H948 H 0.84832 0.11355 0.42718 0.0
H949 H 0.95805 0.1014 0.54933 0.0
H950 H 0.92488 0.07644 0.44667 0.0
H951 H 0.92482 0.16159 0.49368 0.0
C952 C 0.88706 0.1659 0.46858 0.0
C953 C 0.86461 0.15258 0.4502 0.0
C954 C 0.93244 0.08198 0.46908 0.0
C955 C 0.90716 0.12341 0.47004 0.0
C956 C 0.94793 0.06444 0.48399 0.0
C957 C 0.9568 0.07085 0.51339 0.0
C958 C 0.92642 0.10621 0.48357 0.0
C959 C 0.95107 0.0956 0.5268 0.0
C960 C 0.90821 0.15132 0.47872 0.0
C961 C 0.86523 0.12493 0.44103 0.0
N962 N 0.93614 0.11243 0.51178 0.0
N963 N 0.88604 0.11122 0.45121 0.0
H964 H 0.23285 0.65657 0.08769 0.0
H965 H 0.09408 0.53602 0.09827 0.0
H966 H 0.21009 0.613 0.17038 0.0
H967 H 0.09736 0.60705 0.04152 0.0
H968 H 0.14016 0.55839 0.12091 0.0
H969 H 0.18731 0.63311 0.06655 0.0
C970 C 0.21834 0.64233 0.10173 0.0
C971 C 0.22557 0.63757 0.13146 0.0
C972 C 0.13074 0.56903 0.10351 0.0
C973 C 0.17312 0.60939 0.10627 0.0
C974 C 0.10449 0.55624 0.09044 0.0
C975 C 0.09163 0.56963 0.06788 0.0
C976 C 0.14476 0.59516 0.09351 0.0
C977 C 0.10623 0.59591 0.05887 0.0
C978 C 0.19226 0.62871 0.08935 0.0
C979 C 0.20591 0.61758 0.14747 0.0
N980 N 0.13199 0.60762 0.07146 0.0
N981 N 0.18072 0.60427 0.13471 0.0
H982 H 0.28089 0.42876 0.59592 0.0
H983 H 0.44629 0.5112 0.59893 0.0
H984 H 0.32266 0.46278 0.67686 0.0
H985 H 0.40251 0.47924 0.51838 0.0
H986 H 0.40134 0.49454 0.62785 0.0
H987 H 0.32511 0.44743 0.56746 0.0
C988 C 0.29936 0.44002 0.60784 0.0
C989 C 0.29778 0.44395 0.63907 0.0
C990 C 0.4015 0.49124 0.60384 0.0
C991 C 0.34896 0.46588 0.60616 0.0
C992 C 0.42719 0.50081 0.58728 0.0
C993 C 0.42829 0.49659 0.55611 0.0
C994 C 0.37659 0.47725 0.58922 0.0
C995 C 0.40279 0.48296 0.54232 0.0
C996 C 0.32466 0.45088 0.59144 0.0
C997 C 0.32251 0.45933 0.65288 0.0
N998 N 0.37816 0.47374 0.5589 0.0
N999 N 0.34697 0.46958 0.63643 0.0
H1000 H 0.75969 0.69407 0.91108 0.0
H1001 H 0.91992 0.65422 0.90249 0.0
H1002 H 0.8198 0.71339 0.83638 0.0
H1003 H 0.86938 0.65371 0.98467 0.0
H1004 H 0.88089 0.67117 0.87631 0.0
H1005 H 0.79749 0.67497 0.93719 0.0
C1006 C 0.78076 0.69433 0.90015 0.0
C1007 C 0.78643 0.70526 0.87137 0.0
C1008 C 0.87834 0.66737 0.90008 0.0
C1009 C 0.8296 0.68314 0.90098 0.0
C1010 C 0.90053 0.65756 0.91498 0.0
C1011 C 0.89792 0.65268 0.94579 0.0
C1012 C 0.85322 0.67212 0.91607 0.0
C1013 C 0.87243 0.65757 0.96096 0.0
C1014 C 0.80228 0.68333 0.91503 0.0
C1015 C 0.8141 0.70468 0.85823 0.0
N1016 N 0.85102 0.66698 0.94593 0.0
N1017 N 0.83457 0.69381 0.8731 0.0
H1018 H 0.4415 0.85741 0.19047 0.0
H1019 H 0.46835 0.94347 0.03698 0.0
H1020 H 0.41496 0.82136 0.10453 0.0
H1021 H 0.48448 0.98028 0.12469 0.0
H1022 H 0.44981 0.89844 0.06051 0.0
H1023 H 0.45898 0.90188 0.16623 0.0
C1024 C 0.43947 0.85866 0.16648 0.0
C1025 C 0.42658 0.83521 0.14974 0.0
C1026 C 0.45734 0.91639 0.07461 0.0
C1027 C 0.44662 0.88682 0.1215 0.0
C1028 C 0.4679 0.94217 0.06115 0.0
C1029 C 0.47808 0.96588 0.07878 0.0
C1030 C 0.45705 0.91409 0.10603 0.0
C1031 C 0.47692 0.96272 0.11006 0.0
C1032 C 0.44933 0.88427 0.15261 0.0
C1033 C 0.42432 0.8387 0.11864 0.0
N1034 N 0.46681 0.9375 0.12254 0.0
N1035 N 0.43424 0.8638 0.10564 0.0
H1036 H 0.10833 0.25297 0.59853 0.0
H1037 H 0.04669 0.0907 0.625 0.0
H1038 H 0.097 0.21836 0.68683 0.0
H1039 H 0.05376 0.13023 0.53904 0.0
H1040 H 0.06448 0.13625 0.6487 0.0
H1041 H 0.08748 0.20781 0.57726 0.0
C1042 C 0.10135 0.23584 0.61354 0.0
C1043 C 0.10474 0.23962 0.64461 0.0
C1044 C 0.06207 0.13491 0.62466 0.0
C1045 C 0.08061 0.18709 0.62008 0.0
C1046 C 0.05195 0.10885 0.61106 0.0
C1047 C 0.04867 0.10637 0.57984 0.0
C1048 C 0.06908 0.15879 0.60697 0.0
C1049 C 0.05585 0.13082 0.56311 0.0
C1050 C 0.08936 0.20992 0.60132 0.0
C1051 C 0.09477 0.21654 0.66279 0.0
N1052 N 0.06568 0.15574 0.5768 0.0
N1053 N 0.08342 0.19126 0.65028 0.0
H1054 H 0.65635 0.27638 0.56852 0.0
H1055 H 0.64853 0.42902 0.52017 0.0
H1056 H 0.73016 0.33384 0.53494 0.0
H1057 H 0.57522 0.37117 0.55463 0.0
H1058 H 0.68146 0.39918 0.53814 0.0
H1059 H 0.63008 0.31514 0.57783 0.0
C1060 C 0.66738 0.29737 0.5642 0.0
C1061 C 0.69517 0.30203 0.55056 0.0
C1062 C 0.65821 0.39321 0.54223 0.0
C1063 C 0.66502 0.34623 0.55989 0.0
C1064 C 0.63937 0.41028 0.53199 0.0
C1065 C 0.60902 0.40221 0.53525 0.0
C1066 C 0.64659 0.3678 0.55561 0.0
C1067 C 0.59842 0.37773 0.55078 0.0
C1068 C 0.65233 0.31948 0.56924 0.0
C1069 C 0.70865 0.32948 0.54536 0.0
N1070 N 0.61715 0.36119 0.55997 0.0
N1071 N 0.69312 0.35055 0.54927 0.0
loop_
_geom_bond_atom_site_label_1
_geom_bond_atom_site_label_2
_geom_bond_distance
_geom_bond_site_symmetry_2
_ccdc_geom_bond_type
C0 C1 1.391 . S
C0 C4 1.391 . S
C0 H42 0.948 . S
C1 C0 1.391 . S
C1 C2 1.391 . S
C2 C1 1.391 . S
C2 H58 0.947 . S
C2 C59 1.392 . S
C3 C4 1.391 . S
C3 C7 1.397 . S
C3 C59 1.419 . S
C4 C0 1.391 . S
C4 C3 1.391 . S
C4 C5 1.399 . S
C5 C4 1.399 . S
C5 C8 1.396 . S
C5 C17 1.453 . S
C5 C18 1.684 . S
H6 C30 0.948 . S
C7 C3 1.397 . S
C7 C8 1.394 . S
C7 C26 1.723 . S
C8 C5 1.396 . S
C8 C7 1.394 . S
C8 C38 1.723 . S
H9 C32 0.947 . S
H10 C33 0.948 . S
H11 C39 0.982 . S
H12 C40 0.979 . S
H13 C40 0.980 . S
H14 C40 0.983 . S
H15 C39 0.979 . S
H16 C39 0.977 . S
C17 C5 1.453 . S
C17 H46 0.982 . S
C17 H47 0.979 . S
C17 H48 0.977 . S
C18 C5 1.684 . S
C18 H43 0.979 . S
C18 H44 0.980 . S
C18 H45 0.983 . S
C19 C20 1.391 . S
C19 C24 1.391 . S
C19 H49 0.948 . S
C20 C19 1.391 . S
C20 C21 1.391 . S
C21 C20 1.391 . S
C21 C22 1.392 . S
C21 H50 0.947 . S
C22 C21 1.392 . S
C22 C23 1.419 . S
C22 H51 0.948 . S
C23 C22 1.419 . S
C23 C24 1.391 . S
C23 C27 1.397 . S
C24 C19 1.391 . S
C24 C23 1.391 . S
C24 C25 1.399 . S
C25 C24 1.399 . S
C25 C26 1.396 . S
C25 C28 1.453 . S
C25 C29 1.684 . S
C26 C7 1.723 . S
C26 C25 1.396 . S
C26 C27 1.394 . S
C27 C23 1.397 . S
C27 C26 1.394 . S
C27 C37 1.723 . S
C28 C25 1.453 . S
C28 H52 0.982 . S
C28 H53 0.979 . S
C28 H54 0.977 . S
C29 C25 1.684 . S
C29 H55 0.979 . S
C29 H56 0.980 . S
C29 H57 0.983 . S
C30 H6 0.948 . S
C30 C31 1.391 . S
C30 C35 1.391 . S
C31 C30 1.391 . S
C31 C32 1.391 . S
C32 H9 0.947 . S
C32 C31 1.391 . S
C32 C33 1.392 . S
C33 H10 0.948 . S
C33 C32 1.392 . S
C33 C34 1.419 . S
C34 C33 1.419 . S
C34 C35 1.391 . S
C34 C38 1.397 . S
C35 C30 1.391 . S
C35 C34 1.391 . S
C35 C36 1.399 . S
C36 C35 1.399 . S
C36 C37 1.396 . S
C36 C39 1.453 . S
C36 C40 1.684 . S
C37 C27 1.723 . S
C37 C36 1.396 . S
C37 C38 1.394 . S
C38 C8 1.723 . S
C38 C34 1.397 . S
C38 C37 1.394 . S
C39 H11 0.982 . S
C39 H15 0.979 . S
C39 H16 0.977 . S
C39 C36 1.453 . S
C40 H12 0.979 . S
C40 H13 0.980 . S
C40 H14 0.983 . S
C40 C36 1.684 . S
H41 C59 0.948 . S
H42 C0 0.948 . S
H43 C18 0.979 . S
H44 C18 0.980 . S
H45 C18 0.983 . S
H46 C17 0.982 . S
H47 C17 0.979 . S
H48 C17 0.977 . S
H49 C19 0.948 . S
H50 C21 0.947 . S
H51 C22 0.948 . S
H52 C28 0.982 . S
H53 C28 0.979 . S
H54 C28 0.977 . S
H55 C29 0.979 . S
H56 C29 0.980 . S
H57 C29 0.983 . S
H58 C2 0.947 . S
C59 C2 1.392 . S
C59 C3 1.419 . S
C59 H41 0.948 . S
C60 C61 1.391 . S
C60 C64 1.391 . S
C60 H102 0.948 . S
C61 C60 1.391 . S
C61 C62 1.391 . S
C62 C61 1.391 . S
C62 H118 0.947 . S
C62 C119 1.392 . S
C63 C64 1.391 . S
C63 C67 1.397 . S
C63 C119 1.419 . S
C64 C60 1.391 . S
C64 C63 1.391 . S
C64 C65 1.399 . S
C65 C64 1.399 . S
C65 C68 1.396 . S
C65 C77 1.453 . S
C65 C78 1.684 . S
H66 C90 0.948 . S
C67 C63 1.397 . S
C67 C68 1.394 . S
C67 C86 1.723 . S
C68 C65 1.396 . S
C68 C67 1.394 . S
C68 C98 1.723 . S
H69 C92 0.947 . S
H70 C93 0.948 . S
H71 C99 0.982 . S
H72 C100 0.979 . S
H73 C100 0.980 . S
H74 C100 0.983 . S
H75 C99 0.979 . S
H76 C99 0.977 . S
C77 C65 1.453 . S
C77 H106 0.982 . S
C77 H107 0.979 . S
C77 H108 0.977 . S
C78 C65 1.684 . S
C78 H103 0.979 . S
C78 H104 0.980 . S
C78 H105 0.983 . S
C79 C80 1.391 . S
C79 C84 1.391 . S
C79 H109 0.948 . S
C80 C79 1.391 . S
C80 C81 1.391 . S
C81 C80 1.391 . S
C81 C82 1.392 . S
C81 H110 0.947 . S
C82 C81 1.392 . S
C82 C83 1.419 . S
C82 H111 0.948 . S
C83 C82 1.419 . S
C83 C84 1.391 . S
C83 C87 1.397 . S
C84 C79 1.391 . S
C84 C83 1.391 . S
C84 C85 1.399 . S
C85 C84 1.399 . S
C85 C86 1.396 . S
C85 C88 1.453 . S
C85 C89 1.684 . S
C86 C67 1.723 . S
C86 C85 1.396 . S
C86 C87 1.394 . S
C87 C83 1.397 . S
C87 C86 1.394 . S
C87 C97 1.723 . S
C88 C85 1.453 . S
C88 H112 0.982 . S
C88 H113 0.979 . S
C88 H114 0.977 . S
C89 C85 1.684 . S
C89 H115 0.979 . S
C89 H116 0.980 . S
C89 H117 0.983 . S
C90 H66 0.948 . S
C90 C91 1.391 . S
C90 C95 1.391 . S
C91 C90 1.391 . S
C91 C92 1.391 . S
C92 H69 0.947 . S
C92 C91 1.391 . S
C92 C93 1.392 . S
C93 H70 0.948 . S
C93 C92 1.392 . S
C93 C94 1.419 . S
C94 C93 1.419 . S
C94 C95 1.391 . S
C94 C98 1.397 . S
C95 C90 1.391 . S
C95 C94 1.391 . S
C95 C96 1.399 . S
C96 C95 1.399 . S
C96 C97 1.396 . S
C96 C99 1.453 . S
C96 C100 1.684 . S
C97 C87 1.723 . S
C97 C96 1.396 . S
C97 C98 1.394 . S
C98 C68 1.723 . S
C98 C94 1.397 . S
C98 C97 1.394 . S
C99 H71 0.982 . S
C99 H75 0.979 . S
C99 H76 0.977 . S
C99 C96 1.453 . S
C100 H72 0.979 . S
C100 H73 0.980 . S
C100 H74 0.983 . S
C100 C96 1.684 . S
H101 C119 0.948 . S
H102 C60 0.948 . S
H103 C78 0.979 . S
H104 C78 0.980 . S
H105 C78 0.983 . S
H106 C77 0.982 . S
H107 C77 0.979 . S
H108 C77 0.977 . S
H109 C79 0.948 . S
H110 C81 0.947 . S
H111 C82 0.948 . S
H112 C88 0.982 . S
H113 C88 0.979 . S
H114 C88 0.977 . S
H115 C89 0.979 . S
H116 C89 0.980 . S
H117 C89 0.983 . S
H118 C62 0.947 . S
C119 C62 1.392 . S
C119 C63 1.419 . S
C119 H101 0.948 . S
C120 C121 1.391 . S
C120 C124 1.391 . S
C120 H162 0.948 . S
C121 C120 1.391 . S
C121 C122 1.391 . S
C122 C121 1.391 . S
C122 H178 0.947 . S
C122 C179 1.392 . S
C123 C124 1.391 . S
C123 C127 1.397 . S
C123 C179 1.419 . S
C124 C120 1.391 . S
C124 C123 1.391 . S
C124 C125 1.399 . S
C125 C124 1.399 . S
C125 C128 1.396 . S
C125 C137 1.453 . S
C125 C138 1.684 . S
H126 C150 0.948 . S
C127 C123 1.397 . S
C127 C128 1.394 . S
C127 C146 1.723 . S
C128 C125 1.396 . S
C128 C127 1.394 . S
C128 C158 1.723 . S
H129 C152 0.947 . S
H130 C153 0.948 . S
H131 C159 0.982 . S
H132 C160 0.979 . S
H133 C160 0.980 . S
H134 C160 0.983 . S
H135 C159 0.979 . S
H136 C159 0.977 . S
C137 C125 1.453 . S
C137 H166 0.982 . S
C137 H167 0.979 . S
C137 H168 0.977 . S
C138 C125 1.684 . S
C138 H163 0.979 . S
C138 H164 0.980 . S
C138 H165 0.983 . S
C139 C140 1.391 . S
C139 C144 1.391 . S
C139 H169 0.948 . S
C140 C139 1.391 . S
C140 C141 1.391 . S
C141 C140 1.391 . S
C141 C142 1.392 . S
C141 H170 0.947 . S
C142 C141 1.392 . S
C142 C143 1.419 . S
C142 H171 0.948 . S
C143 C142 1.419 . S
C143 C144 1.391 . S
C143 C147 1.397 . S
C144 C139 1.391 . S
C144 C143 1.391 . S
C144 C145 1.399 . S
C145 C144 1.399 . S
C145 C146 1.396 . S
C145 C148 1.453 . S
C145 C149 1.684 . S
C146 C127 1.723 . S
C146 C145 1.396 . S
C146 C147 1.394 . S
C147 C143 1.397 . S
C147 C146 1.394 . S
C147 C157 1.723 . S
C148 C145 1.453 . S
C148 H172 0.982 . S
C148 H173 0.979 . S
C148 H174 0.977 . S
C149 C145 1.684 . S
C149 H175 0.979 . S
C149 H176 0.980 . S
C149 H177 0.983 . S
C150 H126 0.948 . S
C150 C151 1.391 . S
C150 C155 1.391 . S
C151 C150 1.391 . S
C151 C152 1.391 . S
C152 H129 0.947 . S
C152 C151 1.391 . S
C152 C153 1.392 . S
C153 H130 0.948 . S
C153 C152 1.392 . S
C153 C154 1.419 . S
C154 C153 1.419 . S
C154 C155 1.391 . S
C154 C158 1.397 . S
C155 C150 1.391 . S
C155 C154 1.391 . S
C155 C156 1.399 . S
C156 C155 1.399 . S
C156 C157 1.396 . S
C156 C159 1.453 . S
C156 C160 1.684 . S
C157 C147 1.723 . S
C157 C156 1.396 . S
C157 C158 1.394 . S
C158 C128 1.723 . S
C158 C154 1.397 . S
C158 C157 1.394 . S
C159 H131 0.982 . S
C159 H135 0.979 . S
C159 H136 0.977 . S
C159 C156 1.453 . S
C160 H132 0.979 . S
C160 H133 0.980 . S
C160 H134 0.983 . S
C160 C156 1.684 . S
H161 C179 0.948 . S
H162 C120 0.948 . S
H163 C138 0.979 . S
H164 C138 0.980 . S
H165 C138 0.983 . S
H166 C137 0.982 . S
H167 C137 0.979 . S
H168 C137 0.977 . S
H169 C139 0.948 . S
H170 C141 0.947 . S
H171 C142 0.948 . S
H172 C148 0.982 . S
H173 C148 0.979 . S
H174 C148 0.977 . S
H175 C149 0.979 . S
H176 C149 0.980 . S
H177 C149 0.983 . S
H178 C122 0.947 . S
C179 C122 1.392 . S
C179 C123 1.419 . S
C179 H161 0.948 . S
C180 C181 1.391 . S
C180 C184 1.391 . S
C180 H222 0.948 . S
C181 C180 1.391 . S
C181 C182 1.391 . S
C182 C181 1.391 . S
C182 H238 0.947 . S
C182 C239 1.392 . S
C183 C184 1.391 . S
C183 C187 1.397 . S
C183 C239 1.419 . S
C184 C180 1.391 . S
C184 C183 1.391 . S
C184 C185 1.399 . S
C185 C184 1.399 . S
C185 C188 1.396 . S
C185 C197 1.453 . S
C185 C198 1.684 . S
H186 C210 0.948 . S
C187 C183 1.397 . S
C187 C188 1.394 . S
C187 C206 1.723 . S
C188 C185 1.396 . S
C188 C187 1.394 . S
C188 C218 1.723 . S
H189 C212 0.947 . S
H190 C213 0.948 . S
H191 C219 0.982 . S
H192 C220 0.979 . S
H193 C220 0.980 . S
H194 C220 0.983 . S
H195 C219 0.979 . S
H196 C219 0.977 . S
C197 C185 1.453 . S
C197 H226 0.982 . S
C197 H227 0.979 . S
C197 H228 0.977 . S
C198 C185 1.684 . S
C198 H223 0.979 . S
C198 H224 0.980 . S
C198 H225 0.983 . S
C199 C200 1.391 . S
C199 C204 1.391 . S
C199 H229 0.948 . S
C200 C199 1.391 . S
C200 C201 1.391 . S
C201 C200 1.391 . S
C201 C202 1.392 . S
C201 H230 0.947 . S
C202 C201 1.392 . S
C202 C203 1.419 . S
C202 H231 0.948 . S
C203 C202 1.419 . S
C203 C204 1.391 . S
C203 C207 1.397 . S
C204 C199 1.391 . S
C204 C203 1.391 . S
C204 C205 1.399 . S
C205 C204 1.399 . S
C205 C206 1.396 . S
C205 C208 1.453 . S
C205 C209 1.684 . S
C206 C187 1.723 . S
C206 C205 1.396 . S
C206 C207 1.394 . S
C207 C203 1.397 . S
C207 C206 1.394 . S
C207 C217 1.723 . S
C208 C205 1.453 . S
C208 H232 0.982 . S
C208 H233 0.979 . S
C208 H234 0.977 . S
C209 C205 1.684 . S
C209 H235 0.979 . S
C209 H236 0.980 . S
C209 H237 0.983 . S
C210 H186 0.948 . S
C210 C211 1.391 . S
C210 C215 1.391 . S
C211 C210 1.391 . S
C211 C212 1.391 . S
C212 H189 0.947 . S
C212 C211 1.391 . S
C212 C213 1.392 . S
C213 H190 0.948 . S
C213 C212 1.392 . S
C213 C214 1.419 . S
C214 C213 1.419 . S
C214 C215 1.391 . S
C214 C218 1.397 . S
C215 C210 1.391 . S
C215 C214 1.391 . S
C215 C216 1.399 . S
C216 C215 1.399 . S
C216 C217 1.396 . S
C216 C219 1.453 . S
C216 C220 1.684 . S
C217 C207 1.723 . S
C217 C216 1.396 . S
C217 C218 1.394 . S
C218 C188 1.723 . S
C218 C214 1.397 . S
C218 C217 1.394 . S
C219 H191 0.982 . S
C219 H195 0.979 . S
C219 H196 0.977 . S
C219 C216 1.453 . S
C220 H192 0.979 . S
C220 H193 0.980 . S
C220 H194 0.983 . S
C220 C216 1.684 . S
H221 C239 0.948 . S
H222 C180 0.948 . S
H223 C198 0.979 . S
H224 C198 0.980 . S
H225 C198 0.983 . S
H226 C197 0.982 . S
H227 C197 0.979 . S
H228 C197 0.977 . S
H229 C199 0.948 . S
H230 C201 0.947 . S
H231 C202 0.948 . S
H232 C208 0.982 . S
H233 C208 0.979 . S
H234 C208 0.977 . S
H235 C209 0.979 . S
H236 C209 0.980 . S
H237 C209 0.983 . S
H238 C182 0.947 . S
C239 C182 1.392 . S
C239 C183 1.419 . S
C239 H221 0.948 . S
C240 C241 1.391 . S
C240 C244 1.391 . S
C240 H282 0.948 . S
C241 C240 1.391 . S
C241 C242 1.391 . S
C242 C241 1.391 . S
C242 H298 0.947 . S
C242 C299 1.392 . S
C243 C244 1.391 . S
C243 C247 1.397 . S
C243 C299 1.419 . S
C244 C240 1.391 . S
C244 C243 1.391 . S
C244 C245 1.399 . S
C245 C244 1.399 . S
C245 C248 1.396 . S
C245 C257 1.453 . S
C245 C258 1.684 . S
H246 C270 0.948 . S
C247 C243 1.397 . S
C247 C248 1.394 . S
C247 C266 1.723 . S
C248 C245 1.396 . S
C248 C247 1.394 . S
C248 C278 1.723 . S
H249 C272 0.947 . S
H250 C273 0.948 . S
H251 C279 0.982 . S
H252 C280 0.979 . S
H253 C280 0.980 . S
H254 C280 0.983 . S
H255 C279 0.979 . S
H256 C279 0.977 . S
C257 C245 1.453 . S
C257 H286 0.982 . S
C257 H287 0.979 . S
C257 H288 0.977 . S
C258 C245 1.684 . S
C258 H283 0.979 . S
C258 H284 0.980 . S
C258 H285 0.983 . S
C259 C260 1.391 . S
C259 C264 1.391 . S
C259 H289 0.948 . S
C260 C259 1.391 . S
C260 C261 1.391 . S
C261 C260 1.391 . S
C261 C262 1.392 . S
C261 H290 0.947 . S
C262 C261 1.392 . S
C262 C263 1.419 . S
C262 H291 0.948 . S
C263 C262 1.419 . S
C263 C264 1.391 . S
C263 C267 1.397 . S
C264 C259 1.391 . S
C264 C263 1.391 . S
C264 C265 1.399 . S
C265 C264 1.399 . S
C265 C266 1.396 . S
C265 C268 1.453 . S
C265 C269 1.684 . S
C266 C247 1.723 . S
C266 C265 1.396 . S
C266 C267 1.394 . S
C267 C263 1.397 . S
C267 C266 1.394 . S
C267 C277 1.723 . S
C268 C265 1.453 . S
C268 H292 0.982 . S
C268 H293 0.979 . S
C268 H294 0.977 . S
C269 C265 1.684 . S
C269 H295 0.979 . S
C269 H296 0.980 . S
C269 H297 0.983 . S
C270 H246 0.948 . S
C270 C271 1.391 . S
C270 C275 1.391 . S
C271 C270 1.391 . S
C271 C272 1.391 . S
C272 H249 0.947 . S
C272 C271 1.391 . S
C272 C273 1.392 . S
C273 H250 0.948 . S
C273 C272 1.392 . S
C273 C274 1.419 . S
C274 C273 1.419 . S
C274 C275 1.391 . S
C274 C278 1.397 . S
C275 C270 1.391 . S
C275 C274 1.391 . S
C275 C276 1.399 . S
C276 C275 1.399 . S
C276 C277 1.396 . S
C276 C279 1.453 . S
C276 C280 1.684 . S
C277 C267 1.723 . S
C277 C276 1.396 . S
C277 C278 1.394 . S
C278 C248 1.723 . S
C278 C274 1.397 . S
C278 C277 1.394 . S
C279 H251 0.982 . S
C279 H255 0.979 . S
C279 H256 0.977 . S
C279 C276 1.453 . S
C280 H252 0.979 . S
C280 H253 0.980 . S
C280 H254 0.983 . S
C280 C276 1.684 . S
H281 C299 0.948 . S
H282 C240 0.948 . S
H283 C258 0.979 . S
H284 C258 0.980 . S
H285 C258 0.983 . S
H286 C257 0.982 . S
H287 C257 0.979 . S
H288 C257 0.977 . S
H289 C259 0.948 . S
H290 C261 0.947 . S
H291 C262 0.948 . S
H292 C268 0.982 . S
H293 C268 0.979 . S
H294 C268 0.977 . S
H295 C269 0.979 . S
H296 C269 0.980 . S
H297 C269 0.983 . S
H298 C242 0.947 . S
C299 C242 1.392 . S
C299 C243 1.419 . S
C299 H281 0.948 . S
C300 C301 1.391 . S
C300 C304 1.391 . S
C300 H342 0.948 . S
C301 C300 1.391 . S
C301 C302 1.391 . S
C302 C301 1.391 . S
C302 H358 0.947 . S
C302 C359 1.392 . S
C303 C304 1.391 . S
C303 C307 1.397 . S
C303 C359 1.419 . S
C304 C300 1.391 . S
C304 C303 1.391 . S
C304 C305 1.399 . S
C305 C304 1.399 . S
C305 C308 1.396 . S
C305 C317 1.453 . S
C305 C318 1.684 . S
H306 C330 0.948 . S
C307 C303 1.397 . S
C307 C308 1.394 . S
C307 C326 1.723 . S
C308 C305 1.396 . S
C308 C307 1.394 . S
C308 C338 1.723 . S
H309 C332 0.947 . S
H310 C333 0.948 . S
H311 C339 0.982 . S
H312 C340 0.979 . S
H313 C340 0.980 . S
H314 C340 0.983 . S
H315 C339 0.979 . S
H316 C339 0.977 . S
C317 C305 1.453 . S
C317 H346 0.982 . S
C317 H347 0.979 . S
C317 H348 0.977 . S
C318 C305 1.684 . S
C318 H343 0.979 . S
C318 H344 0.980 . S
C318 H345 0.983 . S
C319 C320 1.391 . S
C319 C324 1.391 . S
C319 H349 0.948 . S
C320 C319 1.391 . S
C320 C321 1.391 . S
C321 C320 1.391 . S
C321 C322 1.392 . S
C321 H350 0.947 . S
C322 C321 1.392 . S
C322 C323 1.419 . S
C322 H351 0.948 . S
C323 C322 1.419 . S
C323 C324 1.391 . S
C323 C327 1.397 . S
C324 C319 1.391 . S
C324 C323 1.391 . S
C324 C325 1.399 . S
C325 C324 1.399 . S
C325 C326 1.396 . S
C325 C328 1.453 . S
C325 C329 1.684 . S
C326 C307 1.723 . S
C326 C325 1.396 . S
C326 C327 1.394 . S
C327 C323 1.397 . S
C327 C326 1.394 . S
C327 C337 1.723 . S
C328 C325 1.453 . S
C328 H352 0.982 . S
C328 H353 0.979 . S
C328 H354 0.977 . S
C329 C325 1.684 . S
C329 H355 0.979 . S
C329 H356 0.980 . S
C329 H357 0.983 . S
C330 H306 0.948 . S
C330 C331 1.391 . S
C330 C335 1.391 . S
C331 C330 1.391 . S
C331 C332 1.391 . S
C332 H309 0.947 . S
C332 C331 1.391 . S
C332 C333 1.392 . S
C333 H310 0.948 . S
C333 C332 1.392 . S
C333 C334 1.419 . S
C334 C333 1.419 . S
C334 C335 1.391 . S
C334 C338 1.397 . S
C335 C330 1.391 . S
C335 C334 1.391 . S
C335 C336 1.399 . S
C336 C335 1.399 . S
C336 C337 1.396 . S
C336 C339 1.453 . S
C336 C340 1.684 . S
C337 C327 1.723 . S
C337 C336 1.396 . S
C337 C338 1.394 . S
C338 C308 1.723 . S
C338 C334 1.397 . S
C338 C337 1.394 . S
C339 H311 0.982 . S
C339 H315 0.979 . S
C339 H316 0.977 . S
C339 C336 1.453 . S
C340 H312 0.979 . S
C340 H313 0.980 . S
C340 H314 0.983 . S
C340 C336 1.684 . S
H341 C359 0.948 . S
H342 C300 0.948 . S
H343 C318 0.979 . S
H344 C318 0.980 . S
H345 C318 0.983 . S
H346 C317 0.982 . S
H347 C317 0.979 . S
H348 C317 0.977 . S
H349 C319 0.948 . S
H350 C321 0.947 . S
H351 C322 0.948 . S
H352 C328 0.982 . S
H353 C328 0.979 . S
H354 C328 0.977 . S
H355 C329 0.979 . S
H356 C329 0.980 . S
H357 C329 0.983 . S
H358 C302 0.947 . S
C359 C302 1.392 . S
C359 C303 1.419 . S
C359 H341 0.948 . S
C360 C361 1.391 . S
C360 C364 1.391 . S
C360 H402 0.948 . S
C361 C360 1.391 . S
C361 C362 1.391 . S
C362 C361 1.391 . S
C362 H418 0.947 . S
C362 C419 1.392 . S
C363 C364 1.391 . S
C363 C367 1.397 . S
C363 C419 1.419 . S
C364 C360 1.391 . S
C364 C363 1.391 . S
C364 C365 1.399 . S
C365 C364 1.399 . S
C365 C368 1.396 . S
C365 C377 1.453 . S
C365 C378 1.684 . S
H366 C390 0.948 . S
C367 C363 1.397 . S
C367 C368 1.394 . S
C367 C386 1.723 . S
C368 C365 1.396 . S
C368 C367 1.394 . S
C368 C398 1.723 . S
H369 C392 0.947 . S
H370 C393 0.948 . S
H371 C399 0.982 . S
H372 C400 0.979 . S
H373 C400 0.980 . S
H374 C400 0.983 . S
H375 C399 0.979 . S
H376 C399 0.977 . S
C377 C365 1.453 . S
C377 H406 0.982 . S
C377 H407 0.979 . S
C377 H408 0.977 . S
C378 C365 1.684 . S
C378 H403 0.979 . S
C378 H404 0.980 . S
C378 H405 0.983 . S
C379 C380 1.391 . S
C379 C384 1.391 . S
C379 H409 0.948 . S
C380 C379 1.391 . S
C380 C381 1.391 . S
C381 C380 1.391 . S
C381 C382 1.392 . S
C381 H410 0.947 . S
C382 C381 1.392 . S
C382 C383 1.419 . S
C382 H411 0.948 . S
C383 C382 1.419 . S
C383 C384 1.391 . S
C383 C387 1.397 . S
C384 C379 1.391 . S
C384 C383 1.391 . S
C384 C385 1.399 . S
C385 C384 1.399 . S
C385 C386 1.396 . S
C385 C388 1.453 . S
C385 C389 1.684 . S
C386 C367 1.723 . S
C386 C385 1.396 . S
C386 C387 1.394 . S
C387 C383 1.397 . S
C387 C386 1.394 . S
C387 C397 1.723 . S
C388 C385 1.453 . S
C388 H412 0.982 . S
C388 H413 0.979 . S
C388 H414 0.977 . S
C389 C385 1.684 . S
C389 H415 0.979 . S
C389 H416 0.980 . S
C389 H417 0.983 . S
C390 H366 0.948 . S
C390 C391 1.391 . S
C390 C395 1.391 . S
C391 C390 1.391 . S
C391 C392 1.391 . S
C392 H369 0.947 . S
C392 C391 1.391 . S
C392 C393 1.392 . S
C393 H370 0.948 . S
C393 C392 1.392 . S
C393 C394 1.419 . S
C394 C393 1.419 . S
C394 C395 1.391 . S
C394 C398 1.397 . S
C395 C390 1.391 . S
C395 C394 1.391 . S
C395 C396 1.399 . S
C396 C395 1.399 . S
C396 C397 1.396 . S
C396 C399 1.453 . S
C396 C400 1.684 . S
C397 C387 1.723 . S
C397 C396 1.396 . S
C397 C398 1.394 . S
C398 C368 1.723 . S
C398 C394 1.397 . S
C398 C397 1.394 . S
C399 H371 0.982 . S
C399 H375 0.979 . S
C399 H376 0.977 . S
C399 C396 1.453 . S
C400 H372 0.979 . S
C400 H373 0.980 . S
C400 H374 0.983 . S
C400 C396 1.684 . S
H401 C419 0.948 . S
H402 C360 0.948 . S
H403 C378 0.979 . S
H404 C378 0.980 . S
H405 C378 0.983 . S
H406 C377 0.982 . S
H407 C377 0.979 . S
H408 C377 0.977 . S
H409 C379 0.948 . S
H410 C381 0.947 . S
H411 C382 0.948 . S
H412 C388 0.982 . S
H413 C388 0.979 . S
H414 C388 0.977 . S
H415 C389 0.979 . S
H416 C389 0.980 . S
H417 C389 0.983 . S
H418 C362 0.947 . S
C419 C362 1.392 . S
C419 C363 1.419 . S
C419 H401 0.948 . S
C420 C421 1.391 . S
C420 C424 1.391 . S
C420 H462 0.948 . S
C421 C420 1.391 . S
C421 C422 1.391 . S
C422 C421 1.391 . S
C422 H478 0.947 . S
C422 C479 1.392 . S
C423 C424 1.391 . S
C423 C427 1.397 . S
C423 C479 1.419 . S
C424 C420 1.391 . S
C424 C423 1.391 . S
C424 C425 1.399 . S
C425 C424 1.399 . S
C425 C428 1.396 . S
C425 C437 1.453 . S
C425 C438 1.684 . S
H426 C450 0.948 . S
C427 C423 1.397 . S
C427 C428 1.394 . S
C427 C446 1.723 . S
C428 C425 1.396 . S
C428 C427 1.394 . S
C428 C458 1.723 . S
H429 C452 0.947 . S
H430 C453 0.948 . S
H431 C459 0.982 . S
H432 C460 0.979 . S
H433 C460 0.980 . S
H434 C460 0.983 . S
H435 C459 0.979 . S
H436 C459 0.977 . S
C437 C425 1.453 . S
C437 H466 0.982 . S
C437 H467 0.979 . S
C437 H468 0.977 . S
C438 C425 1.684 . S
C438 H463 0.979 . S
C438 H464 0.980 . S
C438 H465 0.983 . S
C439 C440 1.391 . S
C439 C444 1.391 . S
C439 H469 0.948 . S
C440 C439 1.391 . S
C440 C441 1.391 . S
C441 C440 1.391 . S
C441 C442 1.392 . S
C441 H470 0.947 . S
C442 C441 1.392 . S
C442 C443 1.419 . S
C442 H471 0.948 . S
C443 C442 1.419 . S
C443 C444 1.391 . S
C443 C447 1.397 . S
C444 C439 1.391 . S
C444 C443 1.391 . S
C444 C445 1.399 . S
C445 C444 1.399 . S
C445 C446 1.396 . S
C445 C448 1.453 . S
C445 C449 1.684 . S
C446 C427 1.723 . S
C446 C445 1.396 . S
C446 C447 1.394 . S
C447 C443 1.397 . S
C447 C446 1.394 . S
C447 C457 1.723 . S
C448 C445 1.453 . S
C448 H472 0.982 . S
C448 H473 0.979 . S
C448 H474 0.977 . S
C449 C445 1.684 . S
C449 H475 0.979 . S
C449 H476 0.980 . S
C449 H477 0.983 . S
C450 H426 0.948 . S
C450 C451 1.391 . S
C450 C455 1.391 . S
C451 C450 1.391 . S
C451 C452 1.391 . S
C452 H429 0.947 . S
C452 C451 1.391 . S
C452 C453 1.392 . S
C453 H430 0.948 . S
C453 C452 1.392 . S
C453 C454 1.419 . S
C454 C453 1.419 . S
C454 C455 1.391 . S
C454 C458 1.397 . S
C455 C450 1.391 . S
C455 C454 1.391 . S
C455 C456 1.399 . S
C456 C455 1.399 . S
C456 C457 1.396 . S
C456 C459 1.453 . S
C456 C460 1.684 . S
C457 C447 1.723 . S
C457 C456 1.396 . S
C457 C458 1.394 . S
C458 C428 1.723 . S
C458 C454 1.397 . S
C458 C457 1.394 . S
C459 H431 0.982 . S
C459 H435 0.979 . S
C459 H436 0.977 . S
C459 C456 1.453 . S
C460 H432 0.979 . S
C460 H433 0.980 . S
C460 H434 0.983 . S
C460 C456 1.684 . S
H461 C479 0.948 . S
H462 C420 0.948 . S
H463 C438 0.979 . S
H464 C438 0.980 . S
H465 C438 0.983 . S
H466 C437 0.982 . S
H467 C437 0.979 . S
H468 C437 0.977 . S
H469 C439 0.948 . S
H470 C441 0.947 . S
H471 C442 0.948 . S
H472 C448 0.982 . S
H473 C448 0.979 . S
H474 C448 0.977 . S
H475 C449 0.979 . S
H476 C449 0.980 . S
H477 C449 0.983 . S
H478 C422 0.947 . S
C479 C422 1.392 . S
C479 C423 1.419 . S
C479 H461 0.948 . S
Sm480 C482 2.846 . S
Sm480 O500 2.543 . S
Sm480 O501 2.450 . S
Sm480 O502 2.681 1_545 S
Sm480 O503 2.464 1_545 S
Sm480 O504 2.396 . S
Sm480 O508 2.386 1_455 S
Sm480 O511 2.408 1_445 S
Sm481 C491 2.846 . S
Sm481 O502 2.386 1_655 S
Sm481 O505 2.408 1_665 S
Sm481 O506 2.543 . S
Sm481 O507 2.450 . S
Sm481 O508 2.681 1_565 S
Sm481 O509 2.464 1_565 S
Sm481 O510 2.396 . S
C482 Sm480 2.846 . S
C482 C483 1.506 . S
C482 O500 1.261 . S
C482 O501 1.242 . S
C483 C482 1.506 . S
C483 C484 1.358 . S
C483 C488 1.382 . S
C484 C483 1.358 . S
C484 C485 1.385 . S
C484 H512 0.930 . S
C485 C484 1.385 . S
C485 C486 1.395 . S
C485 H513 0.929 . S
C486 C485 1.395 . S
C486 C487 1.335 . S
C487 C486 1.335 . S
C487 C488 1.398 . S
C487 H514 0.930 . S
C488 C483 1.382 . S
C488 C487 1.398 . S
C488 H515 0.929 . S
C489 O502 1.271 . S
C489 O503 1.251 . S
C490 O504 1.252 . S
C490 O505 1.272 . S
C491 Sm481 2.846 . S
C491 C492 1.506 . S
C491 O506 1.261 . S
C491 O507 1.242 . S
C492 C491 1.506 . S
C492 C493 1.358 . S
C492 C497 1.382 . S
C493 C492 1.358 . S
C493 C494 1.385 . S
C493 H516 0.930 . S
C494 C493 1.385 . S
C494 C495 1.395 . S
C494 H517 0.929 . S
C495 C494 1.395 . S
C495 C496 1.335 . S
C496 C495 1.335 . S
C496 C497 1.398 . S
C496 H518 0.930 . S
C497 C492 1.382 . S
C497 C496 1.398 . S
C497 H519 0.929 . S
C498 O508 1.271 . S
C498 O509 1.251 . S
C499 O510 1.252 . S
C499 O511 1.272 . S
O500 Sm480 2.543 . S
O500 C482 1.261 . S
O501 Sm480 2.450 . S
O501 C482 1.242 . S
O502 Sm480 2.681 1_565 S
O502 Sm481 2.386 1_455 S
O502 C489 1.271 . S
O503 Sm480 2.464 1_565 S
O503 C489 1.251 . S
O504 Sm480 2.396 . S
O504 C490 1.252 . S
O505 Sm481 2.408 1_445 S
O505 C490 1.272 . S
O506 Sm481 2.543 . S
O506 C491 1.261 . S
O507 Sm481 2.450 . S
O507 C491 1.242 . S
O508 Sm480 2.386 1_655 S
O508 Sm481 2.681 1_545 S
O508 C498 1.271 . S
O509 Sm481 2.464 1_545 S
O509 C498 1.251 . S
O510 Sm481 2.396 . S
O510 C499 1.252 . S
O511 Sm480 2.408 1_665 S
O511 C499 1.272 . S
H512 C484 0.930 . S
H513 C485 0.929 . S
H514 C487 0.930 . S
H515 C488 0.929 . S
H516 C493 0.930 . S
H517 C494 0.929 . S
H518 C496 0.930 . S
H519 C497 0.929 . S
Sm520 C522 2.846 1_565 S
Sm520 O540 2.543 1_565 S
Sm520 O541 2.450 1_565 S
Sm520 O542 2.681 . S
Sm520 O543 2.464 . S
Sm520 O544 2.396 1_565 S
Sm520 O548 2.386 1_564 S
Sm520 O551 2.408 1_554 S
Sm521 C531 2.846 1_545 S
Sm521 O542 2.386 1_546 S
Sm521 O545 2.408 1_556 S
Sm521 O546 2.543 1_545 S
Sm521 O547 2.450 1_545 S
Sm521 O548 2.681 . S
Sm521 O549 2.464 . S
Sm521 O550 2.396 1_545 S
C522 Sm520 2.846 1_545 S
C522 C523 1.506 . S
C522 O540 1.261 . S
C522 O541 1.242 . S
C523 C522 1.506 . S
C523 C524 1.358 . S
C523 C528 1.382 . S
C524 C523 1.358 . S
C524 C525 1.385 . S
C524 H552 0.930 . S
C525 C524 1.385 . S
C525 C526 1.395 . S
C525 H553 0.929 . S
C526 C525 1.395 . S
C526 C527 1.335 . S
C527 C526 1.335 . S
C527 C528 1.398 . S
C527 H554 0.930 . S
C528 C523 1.382 . S
C528 C527 1.398 . S
C528 H555 0.929 . S
C529 O542 1.271 . S
C529 O543 1.251 . S
C530 O544 1.252 . S
C530 O545 1.272 . S
C531 Sm521 2.846 1_565 S
C531 C532 1.506 . S
C531 O546 1.261 . S
C531 O547 1.242 . S
C532 C531 1.506 . S
C532 C533 1.358 . S
C532 C537 1.382 . S
C533 C532 1.358 . S
C533 C534 1.385 . S
C533 H556 0.930 . S
C534 C533 1.385 . S
C534 C535 1.395 . S
C534 H557 0.929 . S
C535 C534 1.395 . S
C535 C536 1.335 . S
C536 C535 1.335 . S
C536 C537 1.398 . S
C536 H558 0.930 . S
C537 C532 1.382 . S
C537 C536 1.398 . S
C537 H559 0.929 . S
C538 O548 1.271 . S
C538 O549 1.251 . S
C539 O550 1.252 . S
C539 O551 1.272 . S
O540 Sm520 2.543 1_545 S
O540 C522 1.261 . S
O541 Sm520 2.450 1_545 S
O541 C522 1.242 . S
O542 Sm520 2.681 . S
O542 Sm521 2.386 1_564 S
O542 C529 1.271 . S
O543 Sm520 2.464 . S
O543 C529 1.251 . S
O544 Sm520 2.396 1_545 S
O544 C530 1.252 . S
O545 Sm521 2.408 1_554 S
O545 C530 1.272 . S
O546 Sm521 2.543 1_565 S
O546 C531 1.261 . S
O547 Sm521 2.450 1_565 S
O547 C531 1.242 . S
O548 Sm520 2.386 1_546 S
O548 Sm521 2.681 . S
O548 C538 1.271 . S
O549 Sm521 2.464 . S
O549 C538 1.251 . S
O550 Sm521 2.396 1_565 S
O550 C539 1.252 . S
O551 Sm520 2.408 1_556 S
O551 C539 1.272 . S
H552 C524 0.930 . S
H553 C525 0.929 . S
H554 C527 0.930 . S
H555 C528 0.929 . S
H556 C533 0.930 . S
H557 C534 0.929 . S
H558 C536 0.930 . S
H559 C537 0.929 . S
Sm560 C562 2.846 . S
Sm560 O580 2.543 . S
Sm560 O581 2.450 . S
Sm560 O582 2.681 . S
Sm560 O583 2.464 . S
Sm560 O584 2.396 . S
Sm560 O588 2.386 . S
Sm560 O591 2.408 . S
Sm561 C571 2.846 . S
Sm561 O582 2.386 . S
Sm561 O585 2.408 . S
Sm561 O586 2.543 . S
Sm561 O587 2.450 . S
Sm561 O588 2.681 . S
Sm561 O589 2.464 . S
Sm561 O590 2.396 . S
C562 Sm560 2.846 . S
C562 C563 1.506 . S
C562 O580 1.261 . S
C562 O581 1.242 . S
C563 C562 1.506 . S
C563 C564 1.358 . S
C563 C568 1.382 . S
C564 C563 1.358 . S
C564 C565 1.385 . S
C564 H592 0.930 . S
C565 C564 1.385 . S
C565 C566 1.395 . S
C565 H593 0.929 . S
C566 C565 1.395 . S
C566 C567 1.335 . S
C567 C566 1.335 . S
C567 C568 1.398 . S
C567 H594 0.930 . S
C568 C563 1.382 . S
C568 C567 1.398 . S
C568 H595 0.929 . S
C569 O582 1.271 . S
C569 O583 1.251 . S
C570 O584 1.252 . S
C570 O585 1.272 . S
C571 Sm561 2.846 . S
C571 C572 1.506 . S
C571 O586 1.261 . S
C571 O587 1.242 . S
C572 C571 1.506 . S
C572 C573 1.358 . S
C572 C577 1.382 . S
C573 C572 1.358 . S
C573 C574 1.385 . S
C573 H596 0.930 . S
C574 C573 1.385 . S
C574 C575 1.395 . S
C574 H597 0.929 . S
C575 C574 1.395 . S
C575 C576 1.335 . S
C576 C575 1.335 . S
C576 C577 1.398 . S
C576 H598 0.930 . S
C577 C572 1.382 . S
C577 C576 1.398 . S
C577 H599 0.929 . S
C578 O588 1.271 . S
C578 O589 1.251 . S
C579 O590 1.252 . S
C579 O591 1.272 . S
O580 Sm560 2.543 . S
O580 C562 1.261 . S
O581 Sm560 2.450 . S
O581 C562 1.242 . S
O582 Sm560 2.681 . S
O582 Sm561 2.386 . S
O582 C569 1.271 . S
O583 Sm560 2.464 . S
O583 C569 1.251 . S
O584 Sm560 2.396 . S
O584 C570 1.252 . S
O585 Sm561 2.408 . S
O585 C570 1.272 . S
O586 Sm561 2.543 . S
O586 C571 1.261 . S
O587 Sm561 2.450 . S
O587 C571 1.242 . S
O588 Sm560 2.386 . S
O588 Sm561 2.681 . S
O588 C578 1.271 . S
O589 Sm561 2.464 . S
O589 C578 1.251 . S
O590 Sm561 2.396 . S
O590 C579 1.252 . S
O591 Sm560 2.408 . S
O591 C579 1.272 . S
H592 C564 0.930 . S
H593 C565 0.929 . S
H594 C567 0.930 . S
H595 C568 0.929 . S
H596 C573 0.930 . S
H597 C574 0.929 . S
H598 C576 0.930 . S
H599 C577 0.929 . S
Sm600 C602 2.846 . S
Sm600 O620 2.543 . S
Sm600 O621 2.450 . S
Sm600 O622 2.681 1_455 S
Sm600 O623 2.464 1_455 S
Sm600 O624 2.396 . S
Sm600 O628 2.386 1_554 S
Sm600 O631 2.408 1_454 S
Sm601 C611 2.846 . S
Sm601 O622 2.386 1_556 S
Sm601 O625 2.408 1_656 S
Sm601 O626 2.543 . S
Sm601 O627 2.450 . S
Sm601 O628 2.681 1_655 S
Sm601 O629 2.464 1_655 S
Sm601 O630 2.396 . S
C602 Sm600 2.846 . S
C602 C603 1.506 . S
C602 O620 1.261 . S
C602 O621 1.242 . S
C603 C602 1.506 . S
C603 C604 1.358 . S
C603 C608 1.382 . S
C604 C603 1.358 . S
C604 C605 1.385 . S
C604 H632 0.930 . S
C605 C604 1.385 . S
C605 C606 1.395 . S
C605 H633 0.929 . S
C606 C605 1.395 . S
C606 C607 1.335 . S
C607 C606 1.335 . S
C607 C608 1.398 . S
C607 H634 0.930 . S
C608 C603 1.382 . S
C608 C607 1.398 . S
C608 H635 0.929 . S
C609 O622 1.271 . S
C609 O623 1.251 . S
C610 O624 1.252 . S
C610 O625 1.272 . S
C611 Sm601 2.846 . S
C611 C612 1.506 . S
C611 O626 1.261 . S
C611 O627 1.242 . S
C612 C611 1.506 . S
C612 C613 1.358 . S
C612 C617 1.382 . S
C613 C612 1.358 . S
C613 C614 1.385 . S
C613 H636 0.930 . S
C614 C613 1.385 . S
C614 C615 1.395 . S
C614 H637 0.929 . S
C615 C614 1.395 . S
C615 C616 1.335 . S
C616 C615 1.335 . S
C616 C617 1.398 . S
C616 H638 0.930 . S
C617 C612 1.382 . S
C617 C616 1.398 . S
C617 H639 0.929 . S
C618 O628 1.271 . S
C618 O629 1.251 . S
C619 O630 1.252 . S
C619 O631 1.272 . S
O620 Sm600 2.543 . S
O620 C602 1.261 . S
O621 Sm600 2.450 . S
O621 C602 1.242 . S
O622 Sm600 2.681 1_655 S
O622 Sm601 2.386 1_554 S
O622 C609 1.271 . S
O623 Sm600 2.464 1_655 S
O623 C609 1.251 . S
O624 Sm600 2.396 . S
O624 C610 1.252 . S
O625 Sm601 2.408 1_454 S
O625 C610 1.272 . S
O626 Sm601 2.543 . S
O626 C611 1.261 . S
O627 Sm601 2.450 . S
O627 C611 1.242 . S
O628 Sm600 2.386 1_556 S
O628 Sm601 2.681 1_455 S
O628 C618 1.271 . S
O629 Sm601 2.464 1_455 S
O629 C618 1.251 . S
O630 Sm601 2.396 . S
O630 C619 1.252 . S
O631 Sm600 2.408 1_656 S
O631 C619 1.272 . S
H632 C604 0.930 . S
H633 C605 0.929 . S
H634 C607 0.930 . S
H635 C608 0.929 . S
H636 C613 0.930 . S
H637 C614 0.929 . S
H638 C616 0.930 . S
H639 C617 0.929 . S
H640 C646 0.930 . S
H641 C650 0.930 . S
H642 C655 0.929 . S
H643 C653 0.929 . S
H644 C648 0.929 . S
H645 C654 0.929 . S
C646 H640 0.930 . S
C646 C647 1.367 . S
C646 C654 1.378 . S
C647 C646 1.367 . S
C647 C655 1.433 . S
C648 H644 0.929 . S
C648 C650 1.378 . S
C648 C652 1.350 . S
C649 C652 1.463 . S
C649 C654 1.350 . S
C649 N657 1.427 . S
C650 H641 0.930 . S
C650 C648 1.378 . S
C650 C651 1.367 . S
C651 C650 1.367 . S
C651 C653 1.433 . S
C652 C648 1.350 . S
C652 C649 1.463 . S
C652 N656 1.427 . S
C653 H643 0.929 . S
C653 C651 1.433 . S
C653 N656 1.384 . S
C654 H645 0.929 . S
C654 C646 1.378 . S
C654 C649 1.350 . S
C655 H642 0.929 . S
C655 C647 1.433 . S
C655 N657 1.384 . S
N656 C652 1.427 . S
N656 C653 1.384 . S
N657 C649 1.427 . S
N657 C655 1.384 . S
H658 C664 0.930 . S
H659 C668 0.930 . S
H660 C673 0.929 . S
H661 C671 0.929 . S
H662 C666 0.929 . S
H663 C672 0.929 . S
C664 H658 0.930 . S
C664 C665 1.367 . S
C664 C672 1.378 . S
C665 C664 1.367 . S
C665 C673 1.433 . S
C666 H662 0.929 . S
C666 C668 1.378 . S
C666 C670 1.350 . S
C667 C670 1.463 . S
C667 C672 1.350 . S
C667 N675 1.427 . S
C668 H659 0.930 . S
C668 C666 1.378 . S
C668 C669 1.367 . S
C669 C668 1.367 . S
C669 C671 1.433 . S
C670 C666 1.350 . S
C670 C667 1.463 . S
C670 N674 1.427 . S
C671 H661 0.929 . S
C671 C669 1.433 . S
C671 N674 1.384 . S
C672 H663 0.929 . S
C672 C664 1.378 . S
C672 C667 1.350 . S
C673 H660 0.929 . S
C673 C665 1.433 . S
C673 N675 1.384 . S
N674 C670 1.427 . S
N674 C671 1.384 . S
N675 C667 1.427 . S
N675 C673 1.384 . S
H676 C682 0.930 . S
H677 C686 0.930 . S
H678 C691 0.929 . S
H679 C689 0.929 . S
H680 C684 0.929 . S
H681 C690 0.929 . S
C682 H676 0.930 . S
C682 C683 1.367 . S
C682 C690 1.378 . S
C683 C682 1.367 . S
C683 C691 1.433 . S
C684 H680 0.929 . S
C684 C686 1.378 . S
C684 C688 1.350 . S
C685 C688 1.463 . S
C685 C690 1.350 . S
C685 N693 1.427 . S
C686 H677 0.930 . S
C686 C684 1.378 . S
C686 C687 1.367 . S
C687 C686 1.367 . S
C687 C689 1.433 . S
C688 C684 1.350 . S
C688 C685 1.463 . S
C688 N692 1.427 . S
C689 H679 0.929 . S
C689 C687 1.433 . S
C689 N692 1.384 . S
C690 H681 0.929 . S
C690 C682 1.378 . S
C690 C685 1.350 . S
C691 H678 0.929 . S
C691 C683 1.433 . S
C691 N693 1.384 . S
N692 C688 1.427 . S
N692 C689 1.384 . S
N693 C685 1.427 . S
N693 C691 1.384 . S
H694 C700 0.930 . S
H695 C704 0.930 . S
H696 C709 0.929 . S
H697 C707 0.929 . S
H698 C702 0.929 . S
H699 C708 0.929 . S
C700 H694 0.930 . S
C700 C701 1.367 . S
C700 C708 1.378 . S
C701 C700 1.367 . S
C701 C709 1.433 . S
C702 H698 0.929 . S
C702 C704 1.378 . S
C702 C706 1.350 . S
C703 C706 1.463 . S
C703 C708 1.350 . S
C703 N711 1.427 . S
C704 H695 0.930 . S
C704 C702 1.378 . S
C704 C705 1.367 . S
C705 C704 1.367 . S
C705 C707 1.433 . S
C706 C702 1.350 . S
C706 C703 1.463 . S
C706 N710 1.427 . S
C707 H697 0.929 . S
C707 C705 1.433 . S
C707 N710 1.384 . S
C708 H699 0.929 . S
C708 C700 1.378 . S
C708 C703 1.350 . S
C709 H696 0.929 . S
C709 C701 1.433 . S
C709 N711 1.384 . S
N710 C706 1.427 . S
N710 C707 1.384 . S
N711 C703 1.427 . S
N711 C709 1.384 . S
H712 C718 0.930 . S
H713 C722 0.930 . S
H714 C727 0.929 . S
H715 C725 0.929 . S
H716 C720 0.929 . S
H717 C726 0.929 . S
C718 H712 0.930 . S
C718 C719 1.367 . S
C718 C726 1.378 . S
C719 C718 1.367 . S
C719 C727 1.433 . S
C720 H716 0.929 . S
C720 C722 1.378 . S
C720 C724 1.350 . S
C721 C724 1.463 . S
C721 C726 1.350 . S
C721 N729 1.427 . S
C722 H713 0.930 . S
C722 C720 1.378 . S
C722 C723 1.367 . S
C723 C722 1.367 . S
C723 C725 1.433 . S
C724 C720 1.350 . S
C724 C721 1.463 . S
C724 N728 1.427 . S
C725 H715 0.929 . S
C725 C723 1.433 . S
C725 N728 1.384 . S
C726 H717 0.929 . S
C726 C718 1.378 . S
C726 C721 1.350 . S
C727 H714 0.929 . S
C727 C719 1.433 . S
C727 N729 1.384 . S
N728 C724 1.427 . S
N728 C725 1.384 . S
N729 C721 1.427 . S
N729 C727 1.384 . S
H730 C736 0.930 . S
H731 C740 0.930 . S
H732 C745 0.929 . S
H733 C743 0.929 . S
H734 C738 0.929 . S
H735 C744 0.929 . S
C736 H730 0.930 . S
C736 C737 1.367 . S
C736 C744 1.378 . S
C737 C736 1.367 . S
C737 C745 1.433 . S
C738 H734 0.929 . S
C738 C740 1.378 . S
C738 C742 1.350 . S
C739 C742 1.463 . S
C739 C744 1.350 . S
C739 N747 1.427 . S
C740 H731 0.930 . S
C740 C738 1.378 . S
C740 C741 1.367 . S
C741 C740 1.367 . S
C741 C743 1.433 . S
C742 C738 1.350 . S
C742 C739 1.463 . S
C742 N746 1.427 . S
C743 H733 0.929 . S
C743 C741 1.433 . S
C743 N746 1.384 . S
C744 H735 0.929 . S
C744 C736 1.378 . S
C744 C739 1.350 . S
C745 H732 0.929 . S
C745 C737 1.433 . S
C745 N747 1.384 . S
N746 C742 1.427 . S
N746 C743 1.384 . S
N747 C739 1.427 . S
N747 C745 1.384 . S
H748 C754 0.930 . S
H749 C758 0.930 . S
H750 C763 0.929 . S
H751 C761 0.929 . S
H752 C756 0.929 . S
H753 C762 0.929 . S
C754 H748 0.930 . S
C754 C755 1.367 . S
C754 C762 1.378 . S
C755 C754 1.367 . S
C755 C763 1.433 . S
C756 H752 0.929 . S
C756 C758 1.378 . S
C756 C760 1.350 . S
C757 C760 1.463 . S
C757 C762 1.350 . S
C757 N765 1.427 . S
C758 H749 0.930 . S
C758 C756 1.378 . S
C758 C759 1.367 . S
C759 C758 1.367 . S
C759 C761 1.433 . S
C760 C756 1.350 . S
C760 C757 1.463 . S
C760 N764 1.427 . S
C761 H751 0.929 . S
C761 C759 1.433 . S
C761 N764 1.384 . S
C762 H753 0.929 . S
C762 C754 1.378 . S
C762 C757 1.350 . S
C763 H750 0.929 . S
C763 C755 1.433 . S
C763 N765 1.384 . S
N764 C760 1.427 . S
N764 C761 1.384 . S
N765 C757 1.427 . S
N765 C763 1.384 . S
H766 C772 0.930 . S
H767 C776 0.930 . S
H768 C781 0.929 . S
H769 C779 0.929 . S
H770 C774 0.929 . S
H771 C780 0.929 . S
C772 H766 0.930 . S
C772 C773 1.367 . S
C772 C780 1.378 . S
C773 C772 1.367 . S
C773 C781 1.433 . S
C774 H770 0.929 . S
C774 C776 1.378 . S
C774 C778 1.350 . S
C775 C778 1.463 . S
C775 C780 1.350 . S
C775 N783 1.427 . S
C776 H767 0.930 . S
C776 C774 1.378 . S
C776 C777 1.367 . S
C777 C776 1.367 . S
C777 C779 1.433 . S
C778 C774 1.350 . S
C778 C775 1.463 . S
C778 N782 1.427 . S
C779 H769 0.929 . S
C779 C777 1.433 . S
C779 N782 1.384 . S
C780 H771 0.929 . S
C780 C772 1.378 . S
C780 C775 1.350 . S
C781 H768 0.929 . S
C781 C773 1.433 . S
C781 N783 1.384 . S
N782 C778 1.427 . S
N782 C779 1.384 . S
N783 C775 1.427 . S
N783 C781 1.384 . S
H784 C790 0.930 . S
H785 C794 0.930 . S
H786 C799 0.929 . S
H787 C797 0.929 . S
H788 C792 0.929 . S
H789 C798 0.929 . S
C790 H784 0.930 . S
C790 C791 1.367 . S
C790 C798 1.378 . S
C791 C790 1.367 . S
C791 C799 1.433 . S
C792 H788 0.929 . S
C792 C794 1.378 . S
C792 C796 1.350 . S
C793 C796 1.463 . S
C793 C798 1.350 . S
C793 N801 1.427 . S
C794 H785 0.930 . S
C794 C792 1.378 . S
C794 C795 1.367 . S
C795 C794 1.367 . S
C795 C797 1.433 . S
C796 C792 1.350 . S
C796 C793 1.463 . S
C796 N800 1.427 . S
C797 H787 0.929 . S
C797 C795 1.433 . S
C797 N800 1.384 . S
C798 H789 0.929 . S
C798 C790 1.378 . S
C798 C793 1.350 . S
C799 H786 0.929 . S
C799 C791 1.433 . S
C799 N801 1.384 . S
N800 C796 1.427 . S
N800 C797 1.384 . S
N801 C793 1.427 . S
N801 C799 1.384 . S
H802 C808 0.930 . S
H803 C812 0.930 . S
H804 C817 0.929 . S
H805 C815 0.929 . S
H806 C810 0.929 . S
H807 C816 0.929 . S
C808 H802 0.930 . S
C808 C809 1.367 . S
C808 C816 1.378 . S
C809 C808 1.367 . S
C809 C817 1.433 . S
C810 H806 0.929 . S
C810 C812 1.378 . S
C810 C814 1.350 . S
C811 C814 1.463 . S
C811 C816 1.350 . S
C811 N819 1.427 . S
C812 H803 0.930 . S
C812 C810 1.378 . S
C812 C813 1.367 . S
C813 C812 1.367 . S
C813 C815 1.433 . S
C814 C810 1.350 . S
C814 C811 1.463 . S
C814 N818 1.427 . S
C815 H805 0.929 . S
C815 C813 1.433 . S
C815 N818 1.384 . S
C816 H807 0.929 . S
C816 C808 1.378 . S
C816 C811 1.350 . S
C817 H804 0.929 . S
C817 C809 1.433 . S
C817 N819 1.384 . S
N818 C814 1.427 . S
N818 C815 1.384 . S
N819 C811 1.427 . S
N819 C817 1.384 . S
H820 C826 0.930 . S
H821 C830 0.930 . S
H822 C835 0.929 . S
H823 C833 0.929 . S
H824 C828 0.929 . S
H825 C834 0.929 . S
C826 H820 0.930 . S
C826 C827 1.367 . S
C826 C834 1.378 . S
C827 C826 1.367 . S
C827 C835 1.433 . S
C828 H824 0.929 . S
C828 C830 1.378 . S
C828 C832 1.350 . S
C829 C832 1.463 . S
C829 C834 1.350 . S
C829 N837 1.427 . S
C830 H821 0.930 . S
C830 C828 1.378 . S
C830 C831 1.367 . S
C831 C830 1.367 . S
C831 C833 1.433 . S
C832 C828 1.350 . S
C832 C829 1.463 . S
C832 N836 1.427 . S
C833 H823 0.929 . S
C833 C831 1.433 . S
C833 N836 1.384 . S
C834 H825 0.929 . S
C834 C826 1.378 . S
C834 C829 1.350 . S
C835 H822 0.929 . S
C835 C827 1.433 . S
C835 N837 1.384 . S
N836 C832 1.427 . S
N836 C833 1.384 . S
N837 C829 1.427 . S
N837 C835 1.384 . S
H838 C844 0.930 . S
H839 C848 0.930 . S
H840 C853 0.929 . S
H841 C851 0.929 . S
H842 C846 0.929 . S
H843 C852 0.929 . S
C844 H838 0.930 . S
C844 C845 1.367 . S
C844 C852 1.378 . S
C845 C844 1.367 . S
C845 C853 1.433 . S
C846 H842 0.929 . S
C846 C848 1.378 . S
C846 C850 1.350 . S
C847 C850 1.463 . S
C847 C852 1.350 . S
C847 N855 1.427 . S
C848 H839 0.930 . S
C848 C846 1.378 . S
C848 C849 1.367 . S
C849 C848 1.367 . S
C849 C851 1.433 . S
C850 C846 1.350 . S
C850 C847 1.463 . S
C850 N854 1.427 . S
C851 H841 0.929 . S
C851 C849 1.433 . S
C851 N854 1.384 . S
C852 H843 0.929 . S
C852 C844 1.378 . S
C852 C847 1.350 . S
C853 H840 0.929 . S
C853 C845 1.433 . S
C853 N855 1.384 . S
N854 C850 1.427 . S
N854 C851 1.384 . S
N855 C847 1.427 . S
N855 C853 1.384 . S
H856 C862 0.930 . S
H857 C866 0.930 . S
H858 C871 0.929 . S
H859 C869 0.929 . S
H860 C864 0.929 . S
H861 C870 0.929 . S
C862 H856 0.930 . S
C862 C863 1.367 . S
C862 C870 1.378 . S
C863 C862 1.367 . S
C863 C871 1.433 . S
C864 H860 0.929 . S
C864 C866 1.378 . S
C864 C868 1.350 . S
C865 C868 1.463 . S
C865 C870 1.350 . S
C865 N873 1.427 . S
C866 H857 0.930 . S
C866 C864 1.378 . S
C866 C867 1.367 . S
C867 C866 1.367 . S
C867 C869 1.433 . S
C868 C864 1.350 . S
C868 C865 1.463 . S
C868 N872 1.427 . S
C869 H859 0.929 . S
C869 C867 1.433 . S
C869 N872 1.384 . S
C870 H861 0.929 . S
C870 C862 1.378 . S
C870 C865 1.350 . S
C871 H858 0.929 . S
C871 C863 1.433 . S
C871 N873 1.384 . S
N872 C868 1.427 . S
N872 C869 1.384 . S
N873 C865 1.427 . S
N873 C871 1.384 . S
H874 C880 0.930 . S
H875 C884 0.930 . S
H876 C889 0.929 . S
H877 C887 0.929 . S
H878 C882 0.929 . S
H879 C888 0.929 . S
C880 H874 0.930 . S
C880 C881 1.367 . S
C880 C888 1.378 . S
C881 C880 1.367 . S
C881 C889 1.433 . S
C882 H878 0.929 . S
C882 C884 1.378 . S
C882 C886 1.350 . S
C883 C886 1.463 . S
C883 C888 1.350 . S
C883 N891 1.427 . S
C884 H875 0.930 . S
C884 C882 1.378 . S
C884 C885 1.367 . S
C885 C884 1.367 . S
C885 C887 1.433 . S
C886 C882 1.350 . S
C886 C883 1.463 . S
C886 N890 1.427 . S
C887 H877 0.929 . S
C887 C885 1.433 . S
C887 N890 1.384 . S
C888 H879 0.929 . S
C888 C880 1.378 . S
C888 C883 1.350 . S
C889 H876 0.929 . S
C889 C881 1.433 . S
C889 N891 1.384 . S
N890 C886 1.427 . S
N890 C887 1.384 . S
N891 C883 1.427 . S
N891 C889 1.384 . S
H892 C898 0.930 . S
H893 C902 0.930 . S
H894 C907 0.929 . S
H895 C905 0.929 . S
H896 C900 0.929 . S
H897 C906 0.929 . S
C898 H892 0.930 . S
C898 C899 1.367 . S
C898 C906 1.378 . S
C899 C898 1.367 . S
C899 C907 1.433 . S
C900 H896 0.929 . S
C900 C902 1.378 . S
C900 C904 1.350 . S
C901 C904 1.463 . S
C901 C906 1.350 . S
C901 N909 1.427 . S
C902 H893 0.930 . S
C902 C900 1.378 . S
C902 C903 1.367 . S
C903 C902 1.367 . S
C903 C905 1.433 . S
C904 C900 1.350 . S
C904 C901 1.463 . S
C904 N908 1.427 . S
C905 H895 0.929 . S
C905 C903 1.433 . S
C905 N908 1.384 . S
C906 H897 0.929 . S
C906 C898 1.378 . S
C906 C901 1.350 . S
C907 H894 0.929 . S
C907 C899 1.433 . S
C907 N909 1.384 . S
N908 C904 1.427 . S
N908 C905 1.384 . S
N909 C901 1.427 . S
N909 C907 1.384 . S
H910 C916 0.930 . S
H911 C920 0.930 . S
H912 C925 0.929 . S
H913 C923 0.929 . S
H914 C918 0.929 . S
H915 C924 0.929 . S
C916 H910 0.930 . S
C916 C917 1.367 . S
C916 C924 1.378 . S
C917 C916 1.367 . S
C917 C925 1.433 . S
C918 H914 0.929 . S
C918 C920 1.378 . S
C918 C922 1.350 . S
C919 C922 1.463 . S
C919 C924 1.350 . S
C919 N927 1.427 . S
C920 H911 0.930 . S
C920 C918 1.378 . S
C920 C921 1.367 . S
C921 C920 1.367 . S
C921 C923 1.433 . S
C922 C918 1.350 . S
C922 C919 1.463 . S
C922 N926 1.427 . S
C923 H913 0.929 . S
C923 C921 1.433 . S
C923 N926 1.384 . S
C924 H915 0.929 . S
C924 C916 1.378 . S
C924 C919 1.350 . S
C925 H912 0.929 . S
C925 C917 1.433 . S
C925 N927 1.384 . S
N926 C922 1.427 . S
N926 C923 1.384 . S
N927 C919 1.427 . S
N927 C925 1.384 . S
H928 C934 0.930 . S
H929 C938 0.930 . S
H930 C943 0.929 . S
H931 C941 0.929 . S
H932 C936 0.929 . S
H933 C942 0.929 . S
C934 H928 0.930 . S
C934 C935 1.367 . S
C934 C942 1.378 . S
C935 C934 1.367 . S
C935 C943 1.433 . S
C936 H932 0.929 . S
C936 C938 1.378 . S
C936 C940 1.350 . S
C937 C940 1.463 . S
C937 C942 1.350 . S
C937 N945 1.427 . S
C938 H929 0.930 . S
C938 C936 1.378 . S
C938 C939 1.367 . S
C939 C938 1.367 . S
C939 C941 1.433 . S
C940 C936 1.350 . S
C940 C937 1.463 . S
C940 N944 1.427 . S
C941 H931 0.929 . S
C941 C939 1.433 . S
C941 N944 1.384 . S
C942 H933 0.929 . S
C942 C934 1.378 . S
C942 C937 1.350 . S
C943 H930 0.929 . S
C943 C935 1.433 . S
C943 N945 1.384 . S
N944 C940 1.427 . S
N944 C941 1.384 . S
N945 C937 1.427 . S
N945 C943 1.384 . S
H946 C952 0.930 . S
H947 C956 0.930 . S
H948 C961 0.929 . S
H949 C959 0.929 . S
H950 C954 0.929 . S
H951 C960 0.929 . S
C952 H946 0.930 . S
C952 C953 1.367 . S
C952 C960 1.378 . S
C953 C952 1.367 . S
C953 C961 1.433 . S
C954 H950 0.929 . S
C954 C956 1.378 . S
C954 C958 1.350 . S
C955 C958 1.463 . S
C955 C960 1.350 . S
C955 N963 1.427 . S
C956 H947 0.930 . S
C956 C954 1.378 . S
C956 C957 1.367 . S
C957 C956 1.367 . S
C957 C959 1.433 . S
C958 C954 1.350 . S
C958 C955 1.463 . S
C958 N962 1.427 . S
C959 H949 0.929 . S
C959 C957 1.433 . S
C959 N962 1.384 . S
C960 H951 0.929 . S
C960 C952 1.378 . S
C960 C955 1.350 . S
C961 H948 0.929 . S
C961 C953 1.433 . S
C961 N963 1.384 . S
N962 C958 1.427 . S
N962 C959 1.384 . S
N963 C955 1.427 . S
N963 C961 1.384 . S
H964 C970 0.930 . S
H965 C974 0.930 . S
H966 C979 0.929 . S
H967 C977 0.929 . S
H968 C972 0.929 . S
H969 C978 0.929 . S
C970 H964 0.930 . S
C970 C971 1.367 . S
C970 C978 1.378 . S
C971 C970 1.367 . S
C971 C979 1.433 . S
C972 H968 0.929 . S
C972 C974 1.378 . S
C972 C976 1.350 . S
C973 C976 1.463 . S
C973 C978 1.350 . S
C973 N981 1.427 . S
C974 H965 0.930 . S
C974 C972 1.378 . S
C974 C975 1.367 . S
C975 C974 1.367 . S
C975 C977 1.433 . S
C976 C972 1.350 . S
C976 C973 1.463 . S
C976 N980 1.427 . S
C977 H967 0.929 . S
C977 C975 1.433 . S
C977 N980 1.384 . S
C978 H969 0.929 . S
C978 C970 1.378 . S
C978 C973 1.350 . S
C979 H966 0.929 . S
C979 C971 1.433 . S
C979 N981 1.384 . S
N980 C976 1.427 . S
N980 C977 1.384 . S
N981 C973 1.427 . S
N981 C979 1.384 . S
H982 C988 0.930 . S
H983 C992 0.930 . S
H984 C997 0.929 . S
H985 C995 0.929 . S
H986 C990 0.929 . S
H987 C996 0.929 . S
C988 H982 0.930 . S
C988 C989 1.367 . S
C988 C996 1.378 . S
C989 C988 1.367 . S
C989 C997 1.433 . S
C990 H986 0.929 . S
C990 C992 1.378 . S
C990 C994 1.350 . S
C991 C994 1.463 . S
C991 C996 1.350 . S
C991 N999 1.427 . S
C992 H983 0.930 . S
C992 C990 1.378 . S
C992 C993 1.367 . S
C993 C992 1.367 . S
C993 C995 1.433 . S
C994 C990 1.350 . S
C994 C991 1.463 . S
C994 N998 1.427 . S
C995 H985 0.929 . S
C995 C993 1.433 . S
C995 N998 1.384 . S
C996 H987 0.929 . S
C996 C988 1.378 . S
C996 C991 1.350 . S
C997 H984 0.929 . S
C997 C989 1.433 . S
C997 N999 1.384 . S
N998 C994 1.427 . S
N998 C995 1.384 . S
N999 C991 1.427 . S
N999 C997 1.384 . S
H1000 C1006 0.930 . S
H1001 C1010 0.930 . S
H1002 C1015 0.929 . S
H1003 C1013 0.929 . S
H1004 C1008 0.929 . S
H1005 C1014 0.929 . S
C1006 H1000 0.930 . S
C1006 C1007 1.367 . S
C1006 C1014 1.378 . S
C1007 C1006 1.367 . S
C1007 C1015 1.433 . S
C1008 H1004 0.929 . S
C1008 C1010 1.378 . S
C1008 C1012 1.350 . S
C1009 C1012 1.463 . S
C1009 C1014 1.350 . S
C1009 N1017 1.427 . S
C1010 H1001 0.930 . S
C1010 C1008 1.378 . S
C1010 C1011 1.367 . S
C1011 C1010 1.367 . S
C1011 C1013 1.433 . S
C1012 C1008 1.350 . S
C1012 C1009 1.463 . S
C1012 N1016 1.427 . S
C1013 H1003 0.929 . S
C1013 C1011 1.433 . S
C1013 N1016 1.384 . S
C1014 H1005 0.929 . S
C1014 C1006 1.378 . S
C1014 C1009 1.350 . S
C1015 H1002 0.929 . S
C1015 C1007 1.433 . S
C1015 N1017 1.384 . S
N1016 C1012 1.427 . S
N1016 C1013 1.384 . S
N1017 C1009 1.427 . S
N1017 C1015 1.384 . S
H1018 C1024 0.930 . S
H1019 C1028 0.930 . S
H1020 C1033 0.929 . S
H1021 C1031 0.929 . S
H1022 C1026 0.929 . S
H1023 C1032 0.929 . S
C1024 H1018 0.930 . S
C1024 C1025 1.367 . S
C1024 C1032 1.378 . S
C1025 C1024 1.367 . S
C1025 C1033 1.433 . S
C1026 H1022 0.929 . S
C1026 C1028 1.378 . S
C1026 C1030 1.350 . S
C1027 C1030 1.463 . S
C1027 C1032 1.350 . S
C1027 N1035 1.427 . S
C1028 H1019 0.930 . S
C1028 C1026 1.378 . S
C1028 C1029 1.367 . S
C1029 C1028 1.367 . S
C1029 C1031 1.433 . S
C1030 C1026 1.350 . S
C1030 C1027 1.463 . S
C1030 N1034 1.427 . S
C1031 H1021 0.929 . S
C1031 C1029 1.433 . S
C1031 N1034 1.384 . S
C1032 H1023 0.929 . S
C1032 C1024 1.378 . S
C1032 C1027 1.350 . S
C1033 H1020 0.929 . S
C1033 C1025 1.433 . S
C1033 N1035 1.384 . S
N1034 C1030 1.427 . S
N1034 C1031 1.384 . S
N1035 C1027 1.427 . S
N1035 C1033 1.384 . S
H1036 C1042 0.930 . S
H1037 C1046 0.930 . S
H1038 C1051 0.929 . S
H1039 C1049 0.929 . S
H1040 C1044 0.929 . S
H1041 C1050 0.929 . S
C1042 H1036 0.930 . S
C1042 C1043 1.367 . S
C1042 C1050 1.378 . S
C1043 C1042 1.367 . S
C1043 C1051 1.433 . S
C1044 H1040 0.929 . S
C1044 C1046 1.378 . S
C1044 C1048 1.350 . S
C1045 C1048 1.463 . S
C1045 C1050 1.350 . S
C1045 N1053 1.427 . S
C1046 H1037 0.930 . S
C1046 C1044 1.378 . S
C1046 C1047 1.367 . S
C1047 C1046 1.367 . S
C1047 C1049 1.433 . S
C1048 C1044 1.350 . S
C1048 C1045 1.463 . S
C1048 N1052 1.427 . S
C1049 H1039 0.929 . S
C1049 C1047 1.433 . S
C1049 N1052 1.384 . S
C1050 H1041 0.929 . S
C1050 C1042 1.378 . S
C1050 C1045 1.350 . S
C1051 H1038 0.929 . S
C1051 C1043 1.433 . S
C1051 N1053 1.384 . S
N1052 C1048 1.427 . S
N1052 C1049 1.384 . S
N1053 C1045 1.427 . S
N1053 C1051 1.384 . S
H1054 C1060 0.930 . S
H1055 C1064 0.930 . S
H1056 C1069 0.929 . S
H1057 C1067 0.929 . S
H1058 C1062 0.929 . S
H1059 C1068 0.929 . S
C1060 H1054 0.930 . S
C1060 C1061 1.367 . S
C1060 C1068 1.378 . S
C1061 C1060 1.367 . S
C1061 C1069 1.433 . S
C1062 H1058 0.929 . S
C1062 C1064 1.378 . S
C1062 C1066 1.350 . S
C1063 C1066 1.463 . S
C1063 C1068 1.350 . S
C1063 N1071 1.427 . S
C1064 H1055 0.930 . S
C1064 C1062 1.378 . S
C1064 C1065 1.367 . S
C1065 C1064 1.367 . S
C1065 C1067 1.433 . S
C1066 C1062 1.350 . S
C1066 C1063 1.463 . S
C1066 N1070 1.427 . S
C1067 H1057 0.929 . S
C1067 C1065 1.433 . S
C1067 N1070 1.384 . S
C1068 H1059 0.929 . S
C1068 C1060 1.378 . S
C1068 C1063 1.350 . S
C1069 H1056 0.929 . S
C1069 C1061 1.433 . S
C1069 N1071 1.384 . S
N1070 C1066 1.427 . S
N1070 C1067 1.384 . S
N1071 C1063 1.427 . S
N1071 C1069 1.384 . S
C647 C1 1.173 . S
C651 C486 1.283 . S
C665 C80 0.944 . S
C669 C535 0.971 . S
C687 C570 2.479 . S
C683 C140 2.474 . S
C701 C211 2.368 . S
C705 C609 2.342 . S
C723 C530 2.489 . S
C719 C31 2.227 . S
C741 C489 0.827 . S
C737 C61 0.827 . S
C759 C619 1.906 . S
C755 C151 1.920 . S
C777 C578 1.615 . S
C773 C200 1.624 . S
C791 C20 1.647 . S
C795 C606 1.739 . S
C813 C538 2.327 . S
C809 C121 2.396 . S
C827 C181 2.298 . S
C831 C499 2.340 . S
C845 C91 0.853 . S
C849 C575 0.844 . S
C867 C495 1.273 . S
C863 C260 1.207 . S
C881 C320 0.924 . S
C885 C526 0.958 . S
C899 C361 2.469 . S
C903 C579 2.478 . S
C917 C451 2.367 . S
C921 C618 2.344 . S
C935 C271 2.307 . S
C939 C539 2.490 . S
C957 C498 0.836 . S
C953 C301 0.845 . S
C975 C610 1.899 . S
C971 C380 1.898 . S
C993 C569 1.617 . S
C989 C440 1.624 . S
C1007 C241 1.573 . S
C1011 C615 1.741 . S
C1029 C529 2.329 . S
C1025 C391 2.392 . S
C1047 C490 2.338 . S
C1043 C421 2.305 . S
C1061 C331 0.853 . S
C1065 C566 0.846 . S
