# Generated by pormake.
# Topology zzz, (3,6)-cn, num edge types: 1
# Building blocks:
#     Node 0, Type 0, BuildingBlock: KAKCAD_clean_linker_0, # of connection points: 3
#     Node 1, Type 0, BuildingBlock: KAKCAD_clean_linker_0, # of connection points: 3
#     Node 2, Type 0, BuildingBlock: KAKCAD_clean_linker_0, # of connection points: 3
#     Node 3, Type 0, BuildingBlock: KAKCAD_clean_linker_0, # of connection points: 3
#     Node 4, Type 0, BuildingBlock: KAKCAD_clean_linker_0, # of connection points: 3
#     Node 5, Type 0, BuildingBlock: KAKCAD_clean_linker_0, # of connection points: 3
#     Node 6, Type 0, BuildingBlock: KAKCAD_clean_linker_0, # of connection points: 3
#     Node 7, Type 0, BuildingBlock: KAKCAD_clean_linker_0, # of connection points: 3
#     Node 8, Type 1, BuildingBlock: GEDQOX_clean_sbu_0, # of connection points: 6
#     Node 9, Type 1, BuildingBlock: GEDQOX_clean_sbu_0, # of connection points: 6
#     Node 10, Type 1, BuildingBlock: GEDQOX_clean_sbu_0, # of connection points: 6
#     Node 11, Type 1, BuildingBlock: GEDQOX_clean_sbu_0, # of connection points: 6
#     Edge 12, Type (0, 1), BuildingBlock: EZIPEK_clean_linker_0, # of connection points: 2
#     Edge 13, Type (0, 1), BuildingBlock: EZIPEK_clean_linker_0, # of connection points: 2
#     Edge 14, Type (0, 1), BuildingBlock: EZIPEK_clean_linker_0, # of connection points: 2
#     Edge 15, Type (0, 1), BuildingBlock: EZIPEK_clean_linker_0, # of connection points: 2
#     Edge 16, Type (0, 1), BuildingBlock: EZIPEK_clean_linker_0, # of connection points: 2
#     Edge 17, Type (0, 1), BuildingBlock: EZIPEK_clean_linker_0, # of connection points: 2
#     Edge 18, Type (0, 1), BuildingBlock: EZIPEK_clean_linker_0, # of connection points: 2
#     Edge 19, Type (0, 1), BuildingBlock: EZIPEK_clean_linker_0, # of connection points: 2
#     Edge 20, Type (0, 1), BuildingBlock: EZIPEK_clean_linker_0, # of connection points: 2
#     Edge 21, Type (0, 1), BuildingBlock: EZIPEK_clean_linker_0, # of connection points: 2
#     Edge 22, Type (0, 1), BuildingBlock: EZIPEK_clean_linker_0, # of connection points: 2
#     Edge 23, Type (0, 1), BuildingBlock: EZIPEK_clean_linker_0, # of connection points: 2
#     Edge 24, Type (0, 1), BuildingBlock: EZIPEK_clean_linker_0, # of connection points: 2
#     Edge 25, Type (0, 1), BuildingBlock: EZIPEK_clean_linker_0, # of connection points: 2
#     Edge 26, Type (0, 1), BuildingBlock: EZIPEK_clean_linker_0, # of connection points: 2
#     Edge 27, Type (0, 1), BuildingBlock: EZIPEK_clean_linker_0, # of connection points: 2
#     Edge 28, Type (0, 1), BuildingBlock: EZIPEK_clean_linker_0, # of connection points: 2
#     Edge 29, Type (0, 1), BuildingBlock: EZIPEK_clean_linker_0, # of connection points: 2
#     Edge 30, Type (0, 1), BuildingBlock: EZIPEK_clean_linker_0, # of connection points: 2
#     Edge 31, Type (0, 1), BuildingBlock: EZIPEK_clean_linker_0, # of connection points: 2
#     Edge 32, Type (0, 1), BuildingBlock: EZIPEK_clean_linker_0, # of connection points: 2
#     Edge 33, Type (0, 1), BuildingBlock: EZIPEK_clean_linker_0, # of connection points: 2
#     Edge 34, Type (0, 1), BuildingBlock: EZIPEK_clean_linker_0, # of connection points: 2
#     Edge 35, Type (0, 1), BuildingBlock: EZIPEK_clean_linker_0, # of connection points: 2
# Relax obj value: 0.312
# Max RMSD: 0.316
# Mean RMSD: 0.196
data_MOF--net-zzz--node1-GEDQOX_clean_sbu_0--node2-KAKCAD_clean_linker_0--edge1-EZIPEK_clean_linker_0
_symmetry_space_group_name_H-M    P1
_symmetry_Int_Tables_number       1
_symmetry_cell_setting            triclinic
loop_
_symmetry_equiv_pos_as_xyz
'x, y, z'
_cell_length_a     49.466489
_cell_length_b     46.229514
_cell_length_c     18.032897
_cell_angle_alpha  79.87659
_cell_angle_beta   90.702622
_cell_angle_gamma 104.39414
loop_
_atom_site_label
_atom_site_type_symbol
_atom_site_fract_x
_atom_site_fract_y
_atom_site_fract_z
_atom_type_partial_charge
C0 C 0.84564 0.48691 0.93892 0.0
C1 C 0.8575 0.4651 0.98178 0.0
C2 C 0.82121 0.49233 0.96466 0.0
C3 C 0.80864 0.47627 0.03407 0.0
C4 C 0.81877 0.45213 0.0726 0.0
C5 C 0.8429 0.44622 0.04585 0.0
C6 C 0.79 0.48951 0.07331 0.0
C7 C 0.76607 0.49609 0.03949 0.0
C8 C 0.75138 0.51377 0.07096 0.0
C9 C 0.76144 0.52519 0.1364 0.0
C10 C 0.78518 0.51829 0.17113 0.0
C11 C 0.79903 0.5001 0.13971 0.0
C12 C 0.79752 0.53207 0.23597 0.0
C13 C 0.80304 0.56361 0.23294 0.0
C14 C 0.8072 0.51425 0.29678 0.0
C15 C 0.82358 0.52785 0.35083 0.0
C16 C 0.83057 0.55947 0.34493 0.0
C17 C 0.72572 0.52038 0.03546 0.0
C18 C 0.72313 0.52467 0.95655 0.0
C19 C 0.70319 0.52162 0.08063 0.0
C20 C 0.67866 0.52658 0.04801 0.0
C21 C 0.67591 0.52994 0.96967 0.0
C22 C 0.69832 0.52908 0.92403 0.0
C23 C 0.81956 0.57726 0.28708 0.0
H24 H 0.85654 0.50149 0.88897 0.0
H25 H 0.81385 0.51115 0.93429 0.0
H26 H 0.80933 0.43952 0.12633 0.0
H27 H 0.85171 0.42912 0.07914 0.0
H28 H 0.75915 0.48748 0.98853 0.0
H29 H 0.81824 0.49606 0.16389 0.0
H30 H 0.75112 0.5398 0.15988 0.0
H31 H 0.79607 0.57789 0.1863 0.0
H32 H 0.80307 0.48988 0.30066 0.0
H33 H 0.83191 0.51385 0.39531 0.0
H34 H 0.7402 0.52451 0.91976 0.0
H35 H 0.70413 0.51791 0.14148 0.0
H36 H 0.82487 0.60173 0.28186 0.0
H37 H 0.69649 0.53154 0.86345 0.0
H38 H 0.66144 0.52693 0.08414 0.0
C39 C 0.01983 0.86275 0.18521 0.0
C40 C 0.03343 0.87035 0.11436 0.0
C41 C 0.01654 0.83392 0.22753 0.0
C42 C 0.02798 0.81222 0.20196 0.0
C43 C 0.04244 0.82025 0.1316 0.0
C44 C 0.04487 0.84905 0.08768 0.0
C45 C 0.02357 0.78131 0.24867 0.0
C46 C 0.01874 0.75502 0.21648 0.0
C47 C 0.01017 0.72586 0.2616 0.0
C48 C 0.00511 0.72346 0.33999 0.0
C49 C 0.01062 0.74985 0.37248 0.0
C50 C 0.02137 0.77809 0.32697 0.0
C51 C 0.00136 0.75094 0.44963 0.0
C52 C 0.97361 0.75244 0.45945 0.0
C53 C 0.0216 0.76436 0.4973 0.0
C54 C 0.01529 0.78324 0.54385 0.0
C55 C 0.98856 0.78853 0.54427 0.0
C56 C 0.00679 0.69851 0.22528 0.0
C57 C 0.99505 0.69805 0.15371 0.0
C58 C 0.01808 0.67426 0.2575 0.0
C59 C 0.01914 0.65117 0.21715 0.0
C60 C 0.00886 0.65186 0.14395 0.0
C61 C 0.99619 0.67508 0.11344 0.0
C62 C 0.96727 0.7713 0.50615 0.0
H63 H 0.01057 0.87878 0.20624 0.0
H64 H 0.00419 0.82853 0.27952 0.0
H65 H 0.05169 0.80433 0.11019 0.0
H66 H 0.05531 0.85459 0.03269 0.0
H67 H 0.02127 0.75723 0.15605 0.0
H68 H 0.02609 0.79815 0.35293 0.0
H69 H 0.99666 0.70148 0.3749 0.0
H70 H 0.95769 0.74277 0.42275 0.0
H71 H 0.04321 0.76395 0.49013 0.0
H72 H 0.032 0.79622 0.57302 0.0
H73 H 0.98569 0.71601 0.12771 0.0
H74 H 0.02741 0.67395 0.31219 0.0
H75 H 0.94648 0.77498 0.50593 0.0
H76 H 0.98796 0.67595 0.05737 0.0
H77 H 0.02893 0.63339 0.24183 0.0
C78 C 0.67166 0.03064 0.95704 0.0
C79 C 0.68097 0.05965 0.91341 0.0
C80 C 0.69004 0.01774 1.0025 0.0
C81 C 0.71808 0.03364 1.005 0.0
C82 C 0.72787 0.06193 0.95759 0.0
C83 C 0.70932 0.07496 0.91199 0.0
C84 C 0.73575 0.02234 0.06409 0.0
C85 C 0.76221 0.019 0.04715 0.0
C86 C 0.77862 0.00836 0.10483 0.0
C87 C 0.76835 1.00131 0.18028 0.0
C88 C 0.74187 1.00498 0.19747 0.0
C89 C 0.72582 0.01532 0.13902 0.0
C90 C 0.72974 0.9979 0.27524 0.0
C91 C 0.72412 0.9682 0.31664 0.0
C92 C 0.71878 0.01959 0.30191 0.0
C93 C 0.70068 0.01122 0.36503 0.0
C94 C 0.69333 0.98106 0.40288 0.0
C95 C 0.80681 1.00581 0.08519 0.0
C96 C 0.8104 0.9895 0.02874 0.0
C97 C 0.83045 0.02185 0.11786 0.0
C98 C 0.85724 0.02264 0.0922 0.0
C99 C 0.86081 0.00704 0.03427 0.0
C100 C 0.83719 0.98978 1.00416 0.0
C101 C 0.70598 0.9598 0.38031 0.0
H102 H 0.64983 0.01853 0.95833 0.0
H103 H 0.68211 0.99582 0.0382 0.0
H104 H 0.74939 0.07464 0.95909 0.0
H105 H 0.71673 0.0974 0.87839 0.0
H106 H 0.77006 0.02478 0.98916 0.0
H107 H 0.70534 0.01804 0.15207 0.0
H108 H 0.78089 0.99324 0.22511 0.0
H109 H 0.73207 0.95103 0.29666 0.0
H110 H 0.72281 0.04263 0.27092 0.0
H111 H 0.6912 0.02791 0.38191 0.0
H112 H 0.79243 0.97691 1.00288 0.0
H113 H 0.8282 0.03477 0.16102 0.0
H114 H 0.70047 0.9364 0.40906 0.0
H115 H 0.83952 0.97732 0.96006 0.0
H116 H 0.87523 0.03591 0.11649 0.0
C117 C 0.52535 0.72646 0.5811 0.0
C118 C 0.54492 0.71421 0.62511 0.0
C119 C 0.53395 0.75435 0.53139 0.0
C120 C 0.56218 0.77052 0.52555 0.0
C121 C 0.58102 0.75965 0.57544 0.0
C122 C 0.57253 0.73174 0.62432 0.0
C123 C 0.57347 0.79217 0.45516 0.0
C124 C 0.56468 0.81888 0.42815 0.0
C125 C 0.57476 0.83657 0.35689 0.0
C126 C 0.5921 0.8262 0.31195 0.0
C127 C 0.59974 0.79907 0.33701 0.0
C128 C 0.59131 0.78302 0.40949 0.0
C129 C 0.60984 0.78303 0.28338 0.0
C130 C 0.59347 0.77684 0.22115 0.0
C131 C 0.62986 0.76651 0.30532 0.0
C132 C 0.63035 0.74121 0.27328 0.0
C133 C 0.61054 0.73221 0.22007 0.0
C134 C 0.56573 0.86435 0.3234 0.0
C135 C 0.53728 0.8634 0.31399 0.0
C136 C 0.58579 0.89029 0.28814 0.0
C137 C 0.57772 0.91381 0.24057 0.0
C138 C 0.54941 0.91192 0.22719 0.0
C139 C 0.52919 0.88701 0.26608 0.0
C140 C 0.5937 0.7514 0.18998 0.0
H141 H 0.50388 0.7134 0.58115 0.0
H142 H 0.51909 0.76183 0.49279 0.0
H143 H 0.60296 0.77145 0.57162 0.0
H144 H 0.58796 0.72292 0.65796 0.0
H145 H 0.55022 0.82575 0.46188 0.0
H146 H 0.59629 0.76134 0.4277 0.0
H147 H 0.59815 0.83821 0.25499 0.0
H148 H 0.57787 0.78916 0.20304 0.0
H149 H 0.64283 0.77105 0.35288 0.0
H150 H 0.64373 0.72674 0.29627 0.0
H151 H 0.5214 0.84356 0.33954 0.0
H152 H 0.60786 0.89164 0.29434 0.0
H153 H 0.57857 0.74494 0.14808 0.0
H154 H 0.50721 0.88516 0.25653 0.0
H155 H 0.59365 0.93285 0.21146 0.0
C156 C 0.2032 0.64387 0.63762 0.0
C157 C 0.18881 0.62432 0.70107 0.0
C158 C 0.22737 0.63845 0.60959 0.0
C159 C 0.23758 0.61402 0.64607 0.0
C160 C 0.2255 0.59769 0.71583 0.0
C161 C 0.20109 0.60269 0.74294 0.0
C162 C 0.25497 0.60032 0.60377 0.0
C163 C 0.27828 0.59159 0.6358 0.0
C164 C 0.29117 0.57303 0.60196 0.0
C165 C 0.28014 0.56291 0.53597 0.0
C166 C 0.25638 0.57101 0.50439 0.0
C167 C 0.24461 0.59056 0.53732 0.0
C168 C 0.24186 0.5568 0.44224 0.0
C169 C 0.25668 0.55381 0.37909 0.0
C170 C 0.21257 0.54624 0.44602 0.0
C171 C 0.19834 0.53412 0.38697 0.0
C172 C 0.21303 0.53206 0.32308 0.0
C173 C 0.31491 0.56252 0.63843 0.0
C174 C 0.31435 0.55263 0.71696 0.0
C175 C 0.33814 0.56202 0.59503 0.0
C176 C 0.36048 0.55214 0.62953 0.0
C177 C 0.35989 0.54255 0.70783 0.0
C178 C 0.33667 0.54267 0.75136 0.0
C179 C 0.24233 0.54149 0.31978 0.0
H180 H 0.19395 0.66071 0.6049 0.0
H181 H 0.23643 0.65132 0.55572 0.0
H182 H 0.23293 0.57869 0.74482 0.0
H183 H 0.19026 0.58756 0.7923 0.0
H184 H 0.28595 0.59875 0.68793 0.0
H185 H 0.22604 0.59661 0.51393 0.0
H186 H 0.289 0.54726 0.51197 0.0
H187 H 0.27923 0.56166 0.37476 0.0
H188 H 0.20055 0.54741 0.49473 0.0
H189 H 0.17574 0.5267 0.39063 0.0
H190 H 0.29652 0.55223 0.75172 0.0
H191 H 0.3392 0.56964 0.53456 0.0
H192 H 0.25395 0.53992 0.27075 0.0
H193 H 0.33589 0.53513 0.81186 0.0
H194 H 0.37832 0.55212 0.59528 0.0
C195 C 0.99585 0.23095 0.60176 0.0
C196 C 0.01168 0.21102 0.58777 0.0
C197 C 0.99986 0.25958 0.556 0.0
C198 C 0.02001 0.26869 0.49647 0.0
C199 C 0.03616 0.24873 0.48429 0.0
C200 C 0.03178 0.22012 0.52876 0.0
C201 C 0.02411 0.29846 0.4454 0.0
C202 C 0.02358 0.32495 0.4724 0.0
C203 C 0.02923 0.35336 0.42376 0.0
C204 C 0.03633 0.35503 0.34691 0.0
C205 C 0.03636 0.32824 0.31957 0.0
C206 C 0.0297 0.30038 0.36875 0.0
C207 C 0.04382 0.32719 0.24101 0.0
C208 C 0.02241 0.31592 0.19444 0.0
C209 C 0.07089 0.32541 0.22486 0.0
C210 C 0.07615 0.311 0.16638 0.0
C211 C 0.05467 0.29858 0.1195 0.0
C212 C 0.02778 0.38062 0.45581 0.0
C213 C 0.00531 0.37888 0.50503 0.0
C214 C 0.04969 0.40719 0.4442 0.0
C215 C 0.04968 0.43083 0.48379 0.0
C216 C 0.02764 0.42833 0.53504 0.0
C217 C 0.00527 0.40241 0.54418 0.0
C218 C 0.02756 0.30149 0.13591 0.0
H219 H 0.98046 0.2243 0.6478 0.0
H220 H 0.98699 0.27435 0.56657 0.0
H221 H 0.05242 0.25525 0.44049 0.0
H222 H 0.04447 0.20517 0.51798 0.0
H223 H 0.01957 0.32365 0.53201 0.0
H224 H 0.0293 0.27991 0.34667 0.0
H225 H 0.04128 0.37667 0.30883 0.0
H226 H 0.001 0.31528 0.2085 0.0
H227 H 0.0875 0.3322 0.2628 0.0
H228 H 0.09682 0.30748 0.16394 0.0
H229 H 0.98798 0.35887 0.51468 0.0
H230 H 0.06737 0.40912 0.40717 0.0
H231 H 0.00927 0.29042 0.10926 0.0
H232 H 0.98802 0.40009 0.58307 0.0
H233 H 0.06714 0.4507 0.47596 0.0
C234 C 0.33 1.00181 0.78561 0.0
C235 C 0.35813 0.01628 0.79302 0.0
C236 C 0.31272 0.01749 0.74232 0.0
C237 C 0.32349 0.04771 0.70599 0.0
C238 C 0.35132 0.06244 0.71705 0.0
C239 C 0.36849 0.04682 0.76014 0.0
C240 C 0.30681 0.06288 0.65057 0.0
C241 C 0.27877 0.06133 0.66591 0.0
C242 C 0.26259 0.07407 0.61084 0.0
C243 C 0.27494 0.08845 0.53928 0.0
C244 C 0.3032 0.09031 0.52385 0.0
C245 C 0.31885 0.07761 0.57985 0.0
C246 C 0.31671 0.10256 0.44814 0.0
C247 C 0.3071 0.08806 0.38716 0.0
C248 C 0.34285 0.12378 0.44118 0.0
C249 C 0.36014 0.12833 0.37732 0.0
C250 C 0.35156 0.11166 0.31962 0.0
C251 C 0.23281 0.07172 0.62919 0.0
C252 C 0.21601 0.04435 0.66907 0.0
C253 C 0.22142 0.09702 0.61146 0.0
C254 C 0.19405 0.09516 0.63513 0.0
C255 C 0.17769 0.06793 0.67637 0.0
C256 C 0.18876 0.04251 0.6925 0.0
C257 C 0.32449 0.09251 0.32329 0.0
H258 H 0.32181 0.97819 0.81083 0.0
H259 H 0.29141 1.00555 0.73418 0.0
H260 H 0.36004 0.0858 0.69042 0.0
H261 H 0.39018 0.05827 0.76572 0.0
H262 H 0.26964 0.0504 0.72123 0.0
H263 H 0.34027 0.07788 0.56682 0.0
H264 H 0.26259 0.09768 0.49563 0.0
H265 H 0.28724 0.07129 0.3917 0.0
H266 H 0.35077 0.13504 0.48775 0.0
H267 H 0.38099 0.1431 0.37548 0.0
H268 H 0.22403 0.02434 0.68268 0.0
H269 H 0.23393 0.11845 0.58135 0.0
H270 H 0.31765 0.07938 0.27928 0.0
H271 H 0.17632 0.02126 0.72376 0.0
H272 H 0.18573 0.11497 0.62209 0.0
C273 C 0.45721 0.31522 0.06963 0.0
C274 C 0.4803 0.33881 0.08004 0.0
C275 C 0.44998 0.28842 0.12334 0.0
C276 C 0.46605 0.28448 0.1875 0.0
C277 C 0.4907 0.3068 0.19366 0.0
C278 C 0.49769 0.33379 0.14066 0.0
C279 C 0.45256 0.26437 0.25743 0.0
C280 C 0.46242 0.2398 0.2956 0.0
C281 C 0.45245 0.22595 0.36987 0.0
C282 C 0.43313 0.23739 0.40517 0.0
C283 C 0.42431 0.26265 0.36873 0.0
C284 C 0.43296 0.27478 0.29367 0.0
C285 C 0.41376 0.28206 0.41277 0.0
C286 C 0.39531 0.29923 0.38052 0.0
C287 C 0.42871 0.29032 0.47582 0.0
C288 C 0.42904 0.31788 0.49732 0.0
C289 C 0.41425 0.33731 0.45671 0.0
C290 C 0.46437 0.20225 0.41567 0.0
C291 C 0.46437 0.17504 0.39098 0.0
C292 C 0.47407 0.20608 0.48794 0.0
C293 C 0.48274 0.18301 0.53535 0.0
C294 C 0.48195 0.15551 0.51177 0.0
C295 C 0.473 0.15176 0.43886 0.0
C296 C 0.39552 0.32684 0.40254 0.0
H297 H 0.44358 0.31852 0.02312 0.0
H298 H 0.4305 0.27196 0.11828 0.0
H299 H 0.50301 0.30474 0.24355 0.0
H300 H 0.51564 0.3516 0.14975 0.0
H301 H 0.47865 0.23263 0.26945 0.0
H302 H 0.42734 0.29521 0.26612 0.0
H303 H 0.42648 0.22801 0.4634 0.0
H304 H 0.38323 0.29311 0.33258 0.0
H305 H 0.44306 0.27768 0.50225 0.0
H306 H 0.44324 0.32547 0.54024 0.0
H307 H 0.45686 0.17141 0.33583 0.0
H308 H 0.47459 0.22691 0.50828 0.0
H309 H 0.38362 0.34147 0.37156 0.0
H310 H 0.47235 0.13071 0.41956 0.0
H311 H 0.48973 0.18644 0.59105 0.0
Nd312 Nd 0.00693 0.02056 0.78775 0.0
Nd313 Nd 0.03312 0.05978 0.91598 0.0
C314 C 0.97774 0.9858 0.69828 0.0
C315 C 0.97846 0.95613 0.67863 0.0
C316 C 0.00396 0.94955 0.66379 0.0
C317 C 0.00438 0.92145 0.64538 0.0
C318 C 0.97939 0.89929 0.64221 0.0
C319 C 0.95393 0.90558 0.65815 0.0
C320 C 0.95349 0.93379 0.67614 0.0
C321 C 0.06433 0.0377 0.79033 0.0
C322 C 0.02806 0.98681 0.94386 0.0
C323 C 0.06544 0.10106 0.98492 0.0
C324 C 0.06518 0.13219 0.99548 0.0
C325 C 0.06326 0.15486 0.93371 0.0
C326 C 0.06262 0.18395 0.94459 0.0
C327 C 0.06359 0.19095 0.01745 0.0
C328 C 0.06554 0.16842 0.07921 0.0
C329 C 0.06639 0.13933 0.06828 0.0
C330 C 0.9761 0.03629 0.94036 0.0
C331 C 0.00827 0.09327 0.76399 0.0
O332 O 0.96937 0.98521 0.7674 0.0
O333 O 0.99899 0.00889 0.67418 0.0
O334 O 0.05016 0.01247 0.77183 0.0
O335 O 0.04796 0.0535 0.80266 0.0
O336 O 0.01147 0.98436 0.88618 0.0
O337 O 0.04178 0.01321 0.96117 0.0
O338 O 0.07082 0.09755 0.91657 0.0
O339 O 0.0456 0.07872 0.0202 0.0
O340 O 0.9916 0.05301 0.98326 0.0
O341 O 0.99128 0.03367 0.88786 0.0
O342 O 0.01915 0.09504 0.83073 0.0
O343 O 0.00129 0.06788 0.73576 0.0
H344 H 0.02359 0.96615 0.6661 0.0
H345 H 0.02421 0.91705 0.63302 0.0
H346 H 0.93443 0.88881 0.65565 0.0
H347 H 0.93361 0.93823 0.68785 0.0
H348 H 0.06211 0.15013 0.87691 0.0
H349 H 0.06115 0.201 0.89616 0.0
H350 H 0.06637 0.17337 0.13584 0.0
H351 H 0.06784 0.12233 0.11682 0.0
Nd352 Nd 0.52333 0.01044 0.81655 0.0
Nd353 Nd 0.5126 0.05491 0.90752 0.0
C354 C 0.53344 0.96595 0.75555 0.0
C355 C 0.55654 0.96503 0.70609 0.0
C356 C 0.56071 0.93724 0.69424 0.0
C357 C 0.58313 0.93668 0.64815 0.0
C358 C 0.60157 0.96394 0.61363 0.0
C359 C 0.59748 0.99168 0.62611 0.0
C360 C 0.57514 0.99221 0.672 0.0
C361 C 0.51523 0.06278 0.72967 0.0
C362 C 0.57596 0.06451 0.83937 0.0
C363 C 0.50358 0.0998 0.96887 0.0
C364 C 0.48037 0.104 0.01291 0.0
C365 C 0.45246 0.09011 0.9998 0.0
C366 C 0.43077 0.09272 0.04528 0.0
C367 C 0.43673 0.10892 0.10491 0.0
C368 C 0.46455 0.12309 0.11743 0.0
C369 C 0.48621 0.12071 0.07157 0.0
C370 C 0.51892 1.00152 0.99389 0.0
C371 C 0.4596 1.00264 0.87903 0.0
O372 O 0.54027 0.96987 0.82396 0.0
O373 O 0.517 0.98279 0.72604 0.0
O374 O 0.53374 0.04909 0.71375 0.0
O375 O 0.50143 0.04854 0.7891 0.0
O376 O 0.56812 0.03666 0.82581 0.0
O377 O 0.55782 0.07766 0.86355 0.0
O378 O 0.4991 0.09764 0.89816 0.0
O379 O 0.51687 0.08029 1.00254 0.0
O380 O 0.50073 0.01579 0.0088 0.0
O381 O 0.53376 0.01607 0.93622 0.0
O382 O 0.46779 0.03064 0.89155 0.0
O383 O 0.47764 0.98851 0.85859 0.0
H384 H 0.54666 0.91605 0.72056 0.0
H385 H 0.58603 0.9151 0.63899 0.0
H386 H 0.6115 0.0129 0.59986 0.0
H387 H 0.5723 0.01384 0.68084 0.0
H388 H 0.44744 0.07679 0.95543 0.0
H389 H 0.40943 0.08139 0.0354 0.0
H390 H 0.46947 0.13549 0.16358 0.0
H391 H 0.50759 0.13138 0.08287 0.0
Nd392 Nd 0.51132 0.5349 0.92302 0.0
Nd393 Nd 0.51921 0.51777 0.76959 0.0
C394 C 0.50286 0.54579 0.05784 0.0
C395 C 0.52119 0.56753 0.09859 0.0
C396 C 0.51064 0.58934 0.12545 0.0
C397 C 0.52882 0.61371 0.15054 0.0
C398 C 0.55772 0.61648 0.14917 0.0
C399 C 0.56822 0.59387 0.12631 0.0
C400 C 0.5501 0.56964 0.10062 0.0
C401 C 0.5664 0.54222 0.88048 0.0
C402 C 0.52392 0.58835 0.78009 0.0
C403 C 0.53551 0.50471 0.64428 0.0
C404 C 0.51787 0.48844 0.59066 0.0
C405 C 0.52296 0.4615 0.57561 0.0
C406 C 0.50267 0.44157 0.54194 0.0
C407 C 0.47708 0.44836 0.52283 0.0
C408 C 0.47274 0.4763 0.53234 0.0
C409 C 0.49299 0.49622 0.56627 0.0
C410 C 0.46307 0.51553 0.78796 0.0
C411 C 0.50047 0.46256 0.91224 0.0
O412 O 0.492 0.5581 0.99764 0.0
O413 O 0.51214 0.52266 0.04715 0.0
O414 O 0.55743 0.56114 0.91234 0.0
O415 O 0.54625 0.52063 0.87077 0.0
O416 O 0.50864 0.57839 0.84304 0.0
O417 O 0.53546 0.57004 0.74984 0.0
O418 O 0.53675 0.48812 0.71038 0.0
O419 O 0.53242 0.53169 0.64881 0.0
O420 O 0.47383 0.50933 0.72968 0.0
O421 O 0.4819 0.52218 0.83371 0.0
O422 O 0.51106 0.47042 0.84265 0.0
O423 O 0.4955 0.48274 0.95054 0.0
H424 H 0.48853 0.58831 0.12364 0.0
H425 H 0.52045 0.63097 0.16867 0.0
H426 H 0.59048 0.59567 0.12552 0.0
H427 H 0.55891 0.55333 0.07935 0.0
H428 H 0.54183 0.45495 0.59433 0.0
H429 H 0.50635 0.42013 0.53421 0.0
H430 H 0.45315 0.4819 0.51719 0.0
H431 H 0.48841 0.51682 0.57733 0.0
Nd432 Nd 0.00707 0.56252 0.78249 0.0
Nd433 Nd 0.03785 0.52047 0.89054 0.0
C434 C 0.98309 0.60281 0.70513 0.0
C435 C 0.95911 0.60006 0.65585 0.0
C436 C 0.9503 0.62581 0.62258 0.0
C437 C 0.9283 0.62306 0.57251 0.0
C438 C 0.91521 0.59456 0.55502 0.0
C439 C 0.92373 0.5688 0.58946 0.0
C440 C 0.94547 0.57151 0.63975 0.0
C441 C 0.01429 0.51263 0.72688 0.0
C442 C 0.97031 0.50151 0.88416 0.0
C443 C 0.06688 0.48179 0.95006 0.0
C444 C 0.08839 0.48327 0.0074 0.0
C445 C 0.11201 0.47247 0.9976 0.0
C446 C 0.13427 0.47743 0.04644 0.0
C447 C 0.13305 0.49327 0.10544 0.0
C448 C 0.10915 0.50329 0.11648 0.0
C449 C 0.08699 0.49838 0.06783 0.0
C450 C 0.02618 0.56328 0.96783 0.0
C451 C 0.07491 0.58433 0.79452 0.0
O452 O 0.9773 0.59158 0.77672 0.0
O453 O 0.00472 0.59559 0.67947 0.0
O454 O 0.99281 0.52393 0.71458 0.0
O455 O 0.03169 0.52868 0.76444 0.0
O456 O 0.97103 0.52978 0.8538 0.0
O457 O 0.99285 0.49098 0.89187 0.0
O458 O 0.0743 0.50086 0.88679 0.0
O459 O 0.04144 0.4801 0.97325 0.0
O460 O 0.0391 0.54302 0.99669 0.0
O461 O 0.02046 0.56019 0.90106 0.0
O462 O 0.07491 0.55776 0.83559 0.0
O463 O 0.05191 0.5925 0.77278 0.0
H464 H 0.96064 0.64799 0.6345 0.0
H465 H 0.9219 0.64312 0.54623 0.0
H466 H 0.91376 0.54666 0.57659 0.0
H467 H 0.95193 0.55139 0.66522 0.0
H468 H 0.11361 0.46108 0.95081 0.0
H469 H 0.15269 0.46971 0.03705 0.0
H470 H 0.10799 0.51567 0.16163 0.0
H471 H 0.06915 0.5072 0.07622 0.0
C472 C 0.12642 0.06054 0.65363 0.0
C473 C 0.14883 0.06556 0.70341 0.0
C474 C 0.1157 0.05702 0.81017 0.0
C475 C 0.09335 0.0514 0.76045 0.0
N476 N 0.07725 0.05694 0.63327 0.0
N477 N 0.16564 0.0754 0.82472 0.0
C478 C 0.09869 0.05607 0.68154 0.0
C479 C 0.1437 0.06602 0.78047 0.0
N480 N 0.13151 0.05868 0.58048 0.0
N481 N 0.11015 0.05275 0.88585 0.0
H482 H 0.18633 0.08205 0.80445 0.0
H483 H 0.16337 0.07895 0.87946 0.0
H484 H 0.08991 0.04778 0.90852 0.0
H485 H 0.1253 0.05277 0.92638 0.0
H486 H 0.11582 0.05138 0.544 0.0
H487 H 0.15158 0.06244 0.55742 0.0
H488 H 0.08015 0.06314 0.575 0.0
H489 H 0.05679 0.05452 0.65185 0.0
C490 C 0.46973 0.1057 0.60317 0.0
C491 C 0.49037 0.13078 0.56462 0.0
C492 C 0.52671 0.11265 0.63928 0.0
C493 C 0.5064 0.08621 0.67339 0.0
N494 N 0.45948 0.05429 0.67312 0.0
N495 N 0.53895 0.15538 0.53578 0.0
C496 C 0.4781 0.08181 0.65154 0.0
C497 C 0.51902 0.1334 0.57966 0.0
N498 N 0.44207 0.10499 0.5951 0.0
N499 N 0.55315 0.11868 0.66595 0.0
H500 H 0.53408 0.17099 0.49177 0.0
H501 H 0.56021 0.15645 0.53847 0.0
H502 H 0.55959 0.1044 0.71012 0.0
H503 H 0.56797 0.13914 0.64909 0.0
H504 H 0.4262 0.08915 0.62849 0.0
H505 H 0.43506 0.12174 0.55933 0.0
H506 H 0.43934 0.049 0.65301 0.0
H507 H 0.46491 0.03549 0.70435 0.0
C508 C 0.40346 0.55214 0.78206 0.0
C509 C 0.38381 0.53241 0.744 0.0
C510 C 0.41292 0.4961 0.75972 0.0
C511 C 0.43342 0.5169 0.79302 0.0
N512 N 0.4423 0.55718 0.86553 0.0
N513 N 0.36585 0.48265 0.71355 0.0
C514 C 0.42682 0.54253 0.81395 0.0
C515 C 0.38725 0.50331 0.73843 0.0
N516 N 0.40053 0.58057 0.78484 0.0
N517 N 0.41833 0.46963 0.74798 0.0
H518 H 0.34683 0.48741 0.69774 0.0
H519 H 0.36598 0.46018 0.71357 0.0
H520 H 0.43547 0.46228 0.77092 0.0
H521 H 0.40624 0.45516 0.71534 0.0
H522 H 0.41598 0.59716 0.80388 0.0
H523 H 0.38356 0.58843 0.76277 0.0
H524 H 0.43734 0.57486 0.88665 0.0
H525 H 0.45755 0.54865 0.89539 0.0
C526 C 0.02108 0.47943 0.551 0.0
C527 C 0.02815 0.45201 0.58223 0.0
C528 C 0.02878 0.46543 0.70854 0.0
C529 C 0.02196 0.49302 0.67712 0.0
N530 N 0.02051 0.53033 0.56624 0.0
N531 N 0.04511 0.4221 0.68694 0.0
C532 C 0.02075 0.50123 0.59759 0.0
C533 C 0.03403 0.44605 0.65994 0.0
N534 N 0.01369 0.48422 0.47743 0.0
N535 N 0.02912 0.4571 0.78496 0.0
H536 H 0.0492 0.40751 0.65291 0.0
H537 H 0.05255 0.41823 0.7411 0.0
H538 H 0.02635 0.47111 0.82193 0.0
H539 H 0.03049 0.43569 0.8119 0.0
H540 H 0.00513 0.50206 0.45396 0.0
H541 H 0.01415 0.46907 0.44115 0.0
H542 H 0.02228 0.53844 0.50841 0.0
H543 H 0.02177 0.54735 0.59815 0.0
C544 C 0.89812 0.02444 0.93018 0.0
C545 C 0.88944 0.00933 1.00486 0.0
C546 C 0.93735 1.00597 0.03187 0.0
C547 C 0.94601 0.02131 0.95729 0.0
N548 N 0.9329 0.03498 0.82923 0.0
N549 N 0.89884 0.97794 0.11868 0.0
C550 C 0.92579 0.02701 0.9042 0.0
C551 C 0.90849 0.9976 0.0532 0.0
N552 N 0.88067 0.03811 0.88553 0.0
N553 N 0.95676 0.99975 0.08274 0.0
H554 H 0.87773 0.97097 0.1351 0.0
H555 H 0.91121 0.96629 0.15294 0.0
H556 H 0.97772 1.00289 0.06776 0.0
H557 H 0.95227 0.99243 0.14025 0.0
H558 H 0.8871 0.0523 0.83395 0.0
H559 H 0.86051 0.03765 0.90276 0.0
H560 H 0.91833 0.03674 0.78754 0.0
H561 H 0.95275 0.03638 0.80822 0.0
C562 C 0.53277 0.92705 0.0967 0.0
C563 C 0.54132 0.93485 0.16766 0.0
C564 C 0.53916 0.98742 0.12017 0.0
C565 C 0.52772 0.9788 0.05225 0.0
N566 N 0.50974 0.9393 0.98032 0.0
N567 N 0.54909 0.97129 0.25102 0.0
C568 C 0.52351 0.94831 0.04168 0.0
C569 C 0.54353 0.96476 0.18052 0.0
N570 N 0.53443 0.89969 0.08071 0.0
N571 N 0.54683 0.01744 0.12602 0.0
H572 H 0.55241 0.95527 0.29636 0.0
H573 H 0.54806 0.99172 0.26621 0.0
H574 H 0.5445 0.03472 0.08262 0.0
H575 H 0.5579 0.02547 0.17081 0.0
H576 H 0.53157 0.89411 0.02718 0.0
H577 H 0.54108 0.88346 0.11924 0.0
H578 H 0.50311 0.91671 0.97376 0.0
H579 H 0.50292 0.95423 0.93864 0.0
C580 C 0.64536 0.55959 0.89278 0.0
C581 C 0.64863 0.53215 0.93715 0.0
C582 C 0.59809 0.51191 0.94696 0.0
C583 C 0.59471 0.53803 0.89663 0.0
N584 N 0.61528 0.58472 0.81201 0.0
N585 N 0.62868 0.47924 0.98742 0.0
C586 C 0.61845 0.56124 0.86629 0.0
C587 C 0.62515 0.5073 0.95763 0.0
N588 N 0.66756 0.58445 0.87906 0.0
N589 N 0.57603 0.49274 0.98969 0.0
H590 H 0.64834 0.47489 0.99506 0.0
H591 H 0.61217 0.45982 0.99675 0.0
H592 H 0.55612 0.49646 0.99002 0.0
H593 H 0.57828 0.47504 0.03194 0.0
H594 H 0.66573 0.60595 0.85416 0.0
H595 H 0.68752 0.58417 0.89786 0.0
H596 H 0.63202 0.60072 0.78245 0.0
H597 H 0.59582 0.58673 0.79205 0.0
C598 C 0.04017 0.6316 0.0683 0.0
C599 C 0.01302 0.62953 0.09701 0.0
C600 C 0.99383 0.58728 0.02987 0.0
C601 C 0.02134 0.58742 0.00747 0.0
N602 N 0.07116 0.60704 0.01466 0.0
N603 N 0.96442 0.60298 0.114 0.0
C604 C 0.04463 0.60877 0.02958 0.0
C605 C 0.9899 0.6068 0.07981 0.0
N606 N 0.06157 0.6561 0.07531 0.0
N607 N 0.97143 0.56827 1.00405 0.0
H608 H 0.96085 0.61668 0.15114 0.0
H609 H 0.94738 0.58482 0.11068 0.0
H610 H 0.97356 0.5527 0.97078 0.0
H611 H 0.95085 0.56925 0.01124 0.0
H612 H 0.08102 0.66072 0.04814 0.0
H613 H 0.05919 0.67345 0.10266 0.0
H614 H 0.08878 0.61933 0.0378 0.0
H615 H 0.07561 0.59197 0.9827 0.0
C616 C 0.9849 0.15693 0.63531 0.0
C617 C 0.00894 0.18115 0.63694 0.0
C618 C 0.03318 0.14609 0.70854 0.0
C619 C 0.00817 0.12258 0.71557 0.0
N620 N 0.9588 0.10675 0.69497 0.0
N621 N 0.05323 0.20008 0.69141 0.0
C622 C 0.98355 0.12824 0.68147 0.0
C623 C 0.03221 0.17612 0.67888 0.0
N624 N 0.96387 0.16095 0.58787 0.0
N625 N 0.05822 0.13955 0.72651 0.0
H626 H 0.05292 0.22262 0.67189 0.0
H627 H 0.06934 0.19755 0.72786 0.0
H628 H 0.06027 0.11747 0.74374 0.0
H629 H 0.07729 0.15567 0.71595 0.0
H630 H 0.94729 0.14319 0.57852 0.0
H631 H 0.96412 0.1816 0.5532 0.0
H632 H 0.93968 0.11086 0.67815 0.0
H633 H 0.95713 0.08556 0.72833 0.0
C634 C 0.39261 0.98533 0.78691 0.0
C635 C 0.37788 0.99954 0.83047 0.0
C636 C 0.41197 0.9982 0.92918 0.0
C637 C 0.429 0.98933 0.87926 0.0
N638 N 0.4294 0.9593 0.78315 0.0
N639 N 0.36853 0.01193 0.9499 0.0
C640 C 0.41723 0.97766 0.81555 0.0
C641 C 0.38572 1.00296 0.90482 0.0
N642 N 0.38409 0.98105 0.71641 0.0
N643 N 0.42189 1.00326 0.99801 0.0
H644 H 0.34913 0.01516 0.93239 0.0
H645 H 0.37258 0.01486 1.00516 0.0
H646 H 0.44053 0.9982 0.01684 0.0
H647 H 0.41193 0.01181 0.03644 0.0
H648 H 0.39598 0.9745 0.6782 0.0
H649 H 0.3656 0.98549 0.69474 0.0
H650 H 0.4208 0.94873 0.73883 0.0
H651 H 0.44598 0.95132 0.80738 0.0
C652 C 0.44273 0.39011 0.40804 0.0
C653 C 0.423 0.3699 0.46215 0.0
C654 C 0.43389 0.40555 0.55004 0.0
C655 C 0.45453 0.42494 0.49734 0.0
N656 N 0.47241 0.4409 0.36951 0.0
N657 N 0.39405 0.36165 0.57354 0.0
C658 C 0.45666 0.419 0.42375 0.0
C659 C 0.41652 0.37894 0.52935 0.0
N660 N 0.44983 0.38088 0.34458 0.0
N661 N 0.43211 0.41159 0.62112 0.0
H662 H 0.38119 0.34204 0.55881 0.0
H663 H 0.3867 0.36808 0.62039 0.0
H664 H 0.44414 0.43114 0.63788 0.0
H665 H 0.41978 0.39654 0.66475 0.0
H666 H 0.46658 0.39316 0.30836 0.0
H667 H 0.44021 0.36 0.33004 0.0
H668 H 0.47281 0.43907 0.31282 0.0
H669 H 0.48292 0.46223 0.38026 0.0
C670 C 0.13916 0.60321 0.67105 0.0
C671 C 0.15863 0.62118 0.71393 0.0
C672 C 0.12028 0.62317 0.79664 0.0
C673 C 0.10182 0.60242 0.75869 0.0
N674 N 0.09197 0.57686 0.65201 0.0
N675 N 0.16831 0.65028 0.81373 0.0
C676 C 0.11069 0.5943 0.69289 0.0
C677 C 0.14927 0.63217 0.77517 0.0
N678 N 0.14717 0.59259 0.61111 0.0
N679 N 0.10977 0.63423 0.8523 0.0
H680 H 0.18938 0.65796 0.797 0.0
H681 H 0.16363 0.65742 0.86248 0.0
H682 H 0.08839 0.62879 0.86516 0.0
H683 H 0.12149 0.65014 0.8819 0.0
H684 H 0.16769 0.59682 0.5909 0.0
H685 H 0.16769 0.59682 0.5909 0.0
H686 H 0.09782 0.56989 0.60392 0.0
H687 H 0.07056 0.57026 0.66473 0.0
C688 C 0.05798 0.9233 0.05 0.0
C689 C 0.03309 0.89982 0.06661 0.0
C690 C 0.0054 0.93501 0.01448 0.0
C691 C 0.03028 0.95796 0.99123 0.0
N692 N 0.08046 0.97129 0.97183 0.0
N693 N 0.98318 0.88224 0.05429 0.0
C694 C 0.05672 0.95149 1.00509 0.0
C695 C 0.00696 0.90535 0.04498 0.0
N696 N 0.08264 0.91912 0.07909 0.0
N697 N 0.9796 0.94063 0.00907 0.0
H698 H 0.98326 0.85956 0.07262 0.0
H699 H 0.96361 0.88568 0.03933 0.0
H700 H 0.97596 0.962 0.99114 0.0
H701 H 0.97596 0.962 0.99114 0.0
H702 H 0.10078 0.9366 0.07573 0.0
H703 H 0.08443 0.8988 0.11206 0.0
H704 H 0.09985 0.9662 0.97376 0.0
H705 H 0.08039 0.99152 0.93587 0.0
C706 C 0.64985 0.0666 0.80527 0.0
C707 C 0.6599 0.07424 0.87498 0.0
C708 C 0.61941 0.09426 0.89175 0.0
C709 C 0.60645 0.07926 0.83386 0.0
N710 N 0.6128 0.06532 0.71479 0.0
N711 N 0.6567 0.09874 0.98089 0.0
C712 C 0.62307 0.07028 0.78328 0.0
C713 C 0.64578 0.08994 0.91605 0.0
N714 N 0.66506 0.05388 0.76358 0.0
N715 N 0.60695 0.11302 0.92167 0.0
H716 H 0.67648 0.09692 0.99844 0.0
H717 H 0.64583 0.10667 0.0187 0.0
H718 H 0.5892 0.11895 0.89897 0.0
H719 H 0.61612 0.12593 0.96142 0.0
H720 H 0.65775 0.04466 0.71632 0.0
H721 H 0.68515 0.05203 0.77787 0.0
H722 H 0.62406 0.06019 0.67268 0.0
H723 H 0.59347 0.06908 0.69827 0.0
C724 C 0.60721 0.69495 0.13334 0.0
C725 C 0.60304 0.70057 0.20647 0.0
C726 C 0.57709 0.64762 0.24589 0.0
C727 C 0.57677 0.64381 0.1698 0.0
N728 N 0.59008 0.66412 0.0389 0.0
N729 N 0.58091 0.6831 0.33113 0.0
C730 C 0.59182 0.66737 0.11285 0.0
C731 C 0.58755 0.67702 0.26303 0.0
N732 N 0.62573 0.71613 0.08365 0.0
N733 N 0.56717 0.62313 0.30159 0.0
H734 H 0.58737 0.7044 0.34639 0.0
H735 H 0.56689 0.66756 0.37045 0.0
H736 H 0.55932 0.60124 0.29044 0.0
H737 H 0.56932 0.62401 0.35876 0.0
H738 H 0.63158 0.71233 0.03163 0.0
H739 H 0.63721 0.73652 0.09773 0.0
H740 H 0.59793 0.68181 0.99431 0.0
H741 H 0.57906 0.64428 0.02145 0.0
C742 C 0.89451 0.45848 0.89731 0.0
C743 C 0.88707 0.46607 0.96581 0.0
C744 C 0.93654 0.48386 0.99186 0.0
C745 C 0.94338 0.48232 0.91718 0.0
N746 N 0.93011 0.467 0.7986 0.0
N747 N 0.90118 0.48904 0.07581 0.0
C748 C 0.92275 0.4688 0.87009 0.0
C749 C 0.90812 0.47894 0.0135 0.0
N750 N 0.87448 0.44164 0.85857 0.0
N751 N 0.95729 0.4909 0.04127 0.0
H752 H 0.88071 0.48704 0.09328 0.0
H753 H 0.91583 0.50192 0.1068 0.0
H754 H 0.97839 0.495 0.02618 0.0
H755 H 0.95352 0.48973 0.09856 0.0
H756 H 0.87879 0.43336 0.81114 0.0
H757 H 0.8537 0.43376 0.87801 0.0
H758 H 0.91575 0.46072 0.75803 0.0
H759 H 0.9509 0.4729 0.77926 0.0
C760 C 0.03704 0.2611 0.02861 0.0
C761 C 0.05946 0.27822 0.06482 0.0
C762 C 0.0874 0.2431 0.04389 0.0
C763 C 0.06262 0.22195 0.02877 0.0
N764 N 0.01331 0.2116 1.00366 0.0
N765 N 0.1091 0.29616 0.04406 0.0
C766 C 0.03732 0.23128 0.0193 0.0
C767 C 0.08593 0.27247 0.05487 0.0
N768 N 0.01803 0.27495 0.99252 0.0
N769 N 0.11227 0.2352 0.04847 0.0
H770 H 0.10756 0.31852 0.03994 0.0
H771 H 0.12876 0.2941 0.02942 0.0
H772 H 0.11451 0.21455 0.03701 0.0
H773 H 0.13025 0.24857 0.06762 0.0
H774 H 0.00264 0.26434 0.95922 0.0
H775 H 0.02044 0.29832 0.98773 0.0
H776 H 0.99393 0.21673 1.00347 0.0
H777 H 0.01244 0.18947 0.99667 0.0
C778 C 0.37916 0.13367 0.19743 0.0
C779 C 0.37247 0.1106 0.2623 0.0
C780 C 0.40585 0.08505 0.21977 0.0
C781 C 0.41406 0.10929 0.15783 0.0
N782 N 0.41098 0.15814 0.09032 0.0
N783 N 0.382 0.06674 0.34191 0.0
C784 C 0.40137 0.13405 0.14733 0.0
C785 C 0.38644 0.08686 0.27516 0.0
N786 N 0.36384 0.1548 0.18315 0.0
N787 N 0.41637 0.06007 0.22514 0.0
H788 H 0.36765 0.06686 0.38366 0.0
H789 H 0.394 0.0513 0.35874 0.0
H790 H 0.43155 0.05837 0.18766 0.0
H791 H 0.40869 0.04008 0.26348 0.0
H792 H 0.36563 0.17047 0.13328 0.0
H793 H 0.34776 0.15533 0.21942 0.0
H794 H 0.40493 0.17841 0.08435 0.0
H795 H 0.42647 0.15862 0.05104 0.0
C796 C 0.50923 0.38241 0.98617 0.0
C797 C 0.48473 0.36976 0.03259 0.0
C798 C 0.46849 0.41577 0.98797 0.0
C799 C 0.49464 0.43004 0.95005 0.0
N800 N 0.54214 0.42821 0.92528 0.0
N801 N 0.44358 0.37732 0.08945 0.0
C802 C 0.51561 0.41367 0.95199 0.0
C803 C 0.46499 0.38722 0.03665 0.0
N804 N 0.52621 0.36442 0.97351 0.0
N805 N 0.44659 0.42895 0.97562 0.0
H806 H 0.44065 0.35708 0.12806 0.0
H807 H 0.43041 0.39068 0.09995 0.0
H808 H 0.44795 0.44922 0.93802 0.0
H809 H 0.42635 0.41811 0.99621 0.0
H810 H 0.5428 0.37159 0.93405 0.0
H811 H 0.52207 0.34142 0.99711 0.0
H812 H 0.55886 0.41815 0.93312 0.0
H813 H 0.54821 0.4512 0.90197 0.0
C814 C 0.19279 0.54195 0.19548 0.0
C815 C 0.19704 0.52089 0.25918 0.0
C816 C 0.16156 0.48029 0.21703 0.0
C817 C 0.15736 0.50137 0.15342 0.0
N818 N 0.17336 0.5498 0.07157 0.0
N819 N 0.19075 0.46913 0.32205 0.0
C820 C 0.17453 0.53142 0.13916 0.0
C821 C 0.18313 0.48968 0.267 0.0
N822 N 0.20489 0.57225 0.19091 0.0
N823 N 0.14411 0.45178 0.23144 0.0
H824 H 0.20658 0.47546 0.35922 0.0
H825 H 0.18326 0.44573 0.32674 0.0
H826 H 0.12854 0.44393 0.19502 0.0
H827 H 0.1439 0.43651 0.28142 0.0
H828 H 0.19985 0.58905 0.15076 0.0
H829 H 0.21865 0.58093 0.23048 0.0
H830 H 0.18727 0.57089 0.05465 0.0
H831 H 0.16004 0.54278 0.02929 0.0
C832 C 0.98529 0.8428 0.51634 0.0
C833 C 0.98461 0.81619 0.5705 0.0
C834 C 0.98105 0.8442 0.6726 0.0
C835 C 0.97997 0.87013 0.61814 0.0
N836 N 0.97612 0.89268 0.48866 0.0
N837 N 0.97821 0.79002 0.69912 0.0
C838 C 0.98055 0.86893 0.54014 0.0
C839 C 0.98143 0.81646 0.64846 0.0
N840 N 0.99176 0.8436 0.44231 0.0
N841 N 0.98245 0.84639 0.74724 0.0
H842 H 0.97872 0.76954 0.68307 0.0
H843 H 0.97303 0.78779 0.75595 0.0
H844 H 0.98145 0.86604 0.76686 0.0
H845 H 0.98636 0.82953 0.78928 0.0
H846 H 0.99587 0.86333 0.4018 0.0
H847 H 0.9954 0.82509 0.42203 0.0
H848 H 0.97299 0.89178 0.43182 0.0
H849 H 0.97322 0.91252 0.50364 0.0
C850 C 0.67545 0.97538 0.53607 0.0
C851 C 0.67008 0.97164 0.46044 0.0
C852 C 0.61959 0.96047 0.48664 0.0
C853 C 0.62493 0.96388 0.56256 0.0
N854 N 0.65698 0.9689 0.66387 0.0
N855 N 0.63756 0.95532 0.36633 0.0
C856 C 0.65263 0.96954 0.58863 0.0
C857 C 0.64225 0.96232 0.43676 0.0
N858 N 0.70236 0.98545 0.5568 0.0
N859 N 0.59298 0.95701 0.46132 0.0
H860 H 0.65359 0.95721 0.32738 0.0
H861 H 0.61794 0.94545 0.34819 0.0
H862 H 0.57575 0.95507 0.4963 0.0
H863 H 0.58804 0.95807 0.40482 0.0
H864 H 0.70772 0.99218 0.60828 0.0
H865 H 0.71954 0.98861 0.52056 0.0
H866 H 0.67635 0.97 0.68798 0.0
H867 H 0.64069 0.96484 0.7036 0.0
C868 C 0.53906 0.67532 0.74555 0.0
C869 C 0.53758 0.68193 0.66588 0.0
C870 C 0.52282 0.62723 0.66365 0.0
C871 C 0.52801 0.62064 0.7417 0.0
N872 N 0.546 0.63922 0.85436 0.0
N873 N 0.53382 0.66364 0.54754 0.0
C874 C 0.53734 0.6449 0.78219 0.0
C875 C 0.53101 0.65773 0.62443 0.0
N876 N 0.54159 0.69804 0.78645 0.0
N877 N 0.50904 0.60457 0.62726 0.0
H878 H 0.54055 0.68549 0.51623 0.0
H879 H 0.5322 0.64666 0.51538 0.0
H880 H 0.50153 0.58213 0.65441 0.0
H881 H 0.50235 0.60864 0.57226 0.0
H882 H 0.53997 0.69414 0.84509 0.0
H883 H 0.54263 0.72045 0.76153 0.0
H884 H 0.5557 0.6563 0.88365 0.0
H885 H 0.54611 0.61755 0.88254 0.0
C886 C 0.84365 0.57497 0.46954 0.0
C887 C 0.85173 0.57375 0.39526 0.0
C888 C 0.90087 0.59409 0.42175 0.0
C889 C 0.8931 0.59125 0.49862 0.0
N890 N 0.85771 0.57882 0.5977 0.0
N891 N 0.88775 0.58041 0.30017 0.0
C892 C 0.86459 0.58195 0.52299 0.0
C893 C 0.88026 0.58325 0.37083 0.0
N894 N 0.81594 0.56968 0.48841 0.0
N895 N 0.92799 0.60708 0.39766 0.0
H896 H 0.87329 0.57322 0.26049 0.0
H897 H 0.90831 0.58331 0.28207 0.0
H898 H 0.94379 0.61449 0.43387 0.0
H899 H 0.93452 0.61279 0.34116 0.0
H900 H 0.80856 0.57286 0.53939 0.0
H901 H 0.80021 0.56435 0.45033 0.0
H902 H 0.83773 0.56874 0.62099 0.0
H903 H 0.87245 0.58507 0.63763 0.0
loop_
_geom_bond_atom_site_label_1
_geom_bond_atom_site_label_2
_geom_bond_distance
_geom_bond_site_symmetry_2
_ccdc_geom_bond_type
C0 C1 1.386 . S
C0 C2 1.397 . S
C0 H24 0.931 . S
C1 C0 1.386 . S
C1 C5 1.397 . S
C2 C0 1.397 . S
C2 C3 1.384 . S
C2 H25 0.930 . S
C3 C2 1.384 . S
C3 C4 1.377 . S
C3 C6 1.481 . S
C4 C3 1.377 . S
C4 C5 1.389 . S
C4 H26 0.929 . S
C5 C1 1.397 . S
C5 C4 1.389 . S
C5 H27 0.931 . S
C6 C3 1.481 . S
C6 C7 1.387 . S
C6 C11 1.390 1_556 S
C7 C6 1.387 . S
C7 C8 1.401 1_556 S
C7 H28 0.930 . S
C8 C7 1.401 1_554 S
C8 C9 1.376 . S
C8 C17 1.511 1_554 S
C9 C8 1.376 . S
C9 C10 1.392 . S
C9 H30 0.931 . S
C10 C9 1.392 . S
C10 C11 1.361 . S
C10 C12 1.500 . S
C11 C6 1.390 1_554 S
C11 C10 1.361 . S
C11 H29 0.931 . S
C12 C10 1.500 . S
C12 C13 1.371 . S
C12 C14 1.365 . S
C13 C12 1.371 . S
C13 C23 1.386 . S
C13 H31 0.931 . S
C14 C12 1.365 . S
C14 C15 1.409 . S
C14 H32 0.929 . S
C15 C14 1.409 . S
C15 C16 1.380 . S
C15 H33 0.930 . S
C16 C15 1.380 . S
C16 C23 1.357 . S
C17 C8 1.511 1_556 S
C17 C18 1.341 . S
C17 C19 1.371 1_556 S
C18 C17 1.341 . S
C18 C22 1.394 . S
C18 H34 0.930 . S
C19 C17 1.371 1_554 S
C19 C20 1.392 . S
C19 H35 0.931 . S
C20 C19 1.392 . S
C20 C21 1.331 1_554 S
C20 H38 0.932 . S
C21 C20 1.331 1_556 S
C21 C22 1.336 . S
C22 C18 1.394 . S
C22 C21 1.336 . S
C22 H37 0.929 . S
C23 C13 1.386 . S
C23 C16 1.357 . S
C23 H36 0.928 . S
H24 C0 0.931 . S
H25 C2 0.930 . S
H26 C4 0.929 . S
H27 C5 0.931 . S
H28 C7 0.930 . S
H29 C11 0.931 . S
H30 C9 0.931 . S
H31 C13 0.931 . S
H32 C14 0.929 . S
H33 C15 0.930 . S
H34 C18 0.930 . S
H35 C19 0.931 . S
H36 C23 0.928 . S
H37 C22 0.929 . S
H38 C20 0.932 . S
C39 C40 1.386 . S
C39 C41 1.397 . S
C39 H63 0.931 . S
C40 C39 1.386 . S
C40 C44 1.397 . S
C41 C39 1.397 . S
C41 C42 1.384 . S
C41 H64 0.930 . S
C42 C41 1.384 . S
C42 C43 1.377 . S
C42 C45 1.484 . S
C43 C42 1.377 . S
C43 C44 1.389 . S
C43 H65 0.929 . S
C44 C40 1.397 . S
C44 C43 1.389 . S
C44 H66 0.931 . S
C45 C42 1.484 . S
C45 C46 1.389 . S
C45 C50 1.386 1_556 S
C46 C45 1.389 . S
C46 C47 1.401 1_556 S
C46 H67 0.930 . S
C47 C46 1.401 1_554 S
C47 C48 1.376 . S
C47 C56 1.511 . S
C48 C47 1.376 . S
C48 C49 1.392 . S
C48 H69 0.931 . S
C49 C48 1.392 . S
C49 C50 1.361 . S
C49 C51 1.500 . S
C50 C45 1.386 1_554 S
C50 C49 1.361 . S
C50 H68 0.931 . S
C51 C49 1.500 . S
C51 C52 1.371 . S
C51 C53 1.365 . S
C52 C51 1.371 . S
C52 C62 1.386 . S
C52 H70 0.931 . S
C53 C51 1.365 . S
C53 C54 1.409 . S
C53 H71 0.929 . S
C54 C53 1.409 . S
C54 C55 1.380 . S
C54 H72 0.930 . S
C55 C54 1.380 . S
C55 C62 1.357 . S
C56 C47 1.511 . S
C56 C57 1.341 1_554 S
C56 C58 1.371 . S
C57 C56 1.341 1_556 S
C57 C61 1.394 . S
C57 H73 0.930 . S
C58 C56 1.371 . S
C58 C59 1.392 . S
C58 H74 0.931 . S
C59 C58 1.392 . S
C59 C60 1.331 . S
C59 H77 0.932 . S
C60 C59 1.331 . S
C60 C61 1.336 1_554 S
C61 C57 1.394 . S
C61 C60 1.336 1_556 S
C61 H76 0.929 . S
C62 C52 1.386 . S
C62 C55 1.357 . S
C62 H75 0.928 . S
H63 C39 0.931 . S
H64 C41 0.930 . S
H65 C43 0.929 . S
H66 C44 0.931 . S
H67 C46 0.930 . S
H68 C50 0.931 . S
H69 C48 0.931 . S
H70 C52 0.931 . S
H71 C53 0.929 . S
H72 C54 0.930 . S
H73 C57 0.930 . S
H74 C58 0.931 . S
H75 C62 0.928 . S
H76 C61 0.929 . S
H77 C59 0.932 . S
C78 C79 1.386 . S
C78 C80 1.397 . S
C78 H102 0.931 . S
C79 C78 1.386 . S
C79 C83 1.427 . S
C80 C78 1.397 . S
C80 C81 1.384 . S
C80 H103 0.930 . S
C81 C80 1.384 . S
C81 C82 1.377 . S
C81 C84 1.481 . S
C82 C81 1.377 . S
C82 C83 1.392 . S
C82 H104 0.929 1_565 S
C83 C79 1.427 . S
C83 C82 1.392 . S
C83 H105 0.899 1_565 S
C84 C81 1.481 . S
C84 C85 1.387 . S
C84 C89 1.390 1_556 S
C85 C84 1.387 . S
C85 C86 1.401 . S
C85 H106 0.930 . S
C86 C85 1.401 . S
C86 C87 1.376 1_556 S
C86 C95 1.511 . S
C87 C86 1.376 1_554 S
C87 C88 1.392 . S
C87 H108 0.931 . S
C88 C87 1.392 . S
C88 C89 1.361 . S
C88 C90 1.500 . S
C89 C84 1.390 1_554 S
C89 C88 1.361 . S
C89 H107 0.931 . S
C90 C88 1.500 . S
C90 C91 1.371 . S
C90 C92 1.365 . S
C91 C90 1.371 . S
C91 C101 1.386 . S
C91 H109 0.931 . S
C92 C90 1.365 . S
C92 C93 1.409 . S
C92 H110 0.929 1_565 S
C93 C92 1.409 . S
C93 C94 1.380 . S
C93 H111 0.930 1_565 S
C94 C93 1.380 . S
C94 C101 1.357 . S
C95 C86 1.511 . S
C95 C96 1.341 . S
C95 C97 1.371 1_556 S
C96 C95 1.341 . S
C96 C100 1.394 . S
C96 H112 0.930 . S
C97 C95 1.371 1_554 S
C97 C98 1.392 1_554 S
C97 H113 0.931 . S
C98 C97 1.392 1_556 S
C98 C99 1.331 . S
C98 H116 0.932 1_556 S
C99 C98 1.331 . S
C99 C100 1.336 . S
C100 C96 1.394 . S
C100 C99 1.336 . S
C100 H115 0.929 . S
C101 C91 1.386 . S
C101 C94 1.357 . S
C101 H114 0.928 . S
H102 C78 0.931 . S
H103 C80 0.930 . S
H104 C82 0.929 1_545 S
H105 C83 0.899 1_545 S
H106 C85 0.930 . S
H107 C89 0.931 . S
H108 C87 0.931 . S
H109 C91 0.931 . S
H110 C92 0.929 1_545 S
H111 C93 0.930 1_545 S
H112 C96 0.930 . S
H113 C97 0.931 . S
H114 C101 0.928 . S
H115 C100 0.929 . S
H116 C98 0.932 1_554 S
C117 C118 1.386 . S
C117 C119 1.397 . S
C117 H141 0.931 . S
C118 C117 1.386 . S
C118 C122 1.397 . S
C119 C117 1.397 . S
C119 C120 1.384 . S
C119 H142 0.930 . S
C120 C119 1.384 . S
C120 C121 1.377 . S
C120 C123 1.481 . S
C121 C120 1.377 . S
C121 C122 1.389 . S
C121 H143 0.929 . S
C122 C118 1.397 . S
C122 C121 1.389 . S
C122 H144 0.931 . S
C123 C120 1.481 . S
C123 C124 1.387 . S
C123 C128 1.390 . S
C124 C123 1.387 . S
C124 C125 1.401 . S
C124 H145 0.930 . S
C125 C124 1.401 . S
C125 C126 1.376 . S
C125 C134 1.511 . S
C126 C125 1.376 . S
C126 C127 1.392 . S
C126 H147 0.931 . S
C127 C126 1.392 . S
C127 C128 1.361 . S
C127 C129 1.500 . S
C128 C123 1.390 . S
C128 C127 1.361 . S
C128 H146 0.931 . S
C129 C127 1.500 . S
C129 C130 1.371 . S
C129 C131 1.365 . S
C130 C129 1.371 . S
C130 C140 1.386 . S
C130 H148 0.931 . S
C131 C129 1.365 . S
C131 C132 1.409 . S
C131 H149 0.929 . S
C132 C131 1.409 . S
C132 C133 1.380 . S
C132 H150 0.930 . S
C133 C132 1.380 . S
C133 C140 1.357 . S
C134 C125 1.511 . S
C134 C135 1.341 . S
C134 C136 1.371 . S
C135 C134 1.341 . S
C135 C139 1.394 . S
C135 H151 0.930 . S
C136 C134 1.371 . S
C136 C137 1.392 . S
C136 H152 0.931 . S
C137 C136 1.392 . S
C137 C138 1.331 . S
C137 H155 0.932 . S
C138 C137 1.331 . S
C138 C139 1.336 . S
C139 C135 1.394 . S
C139 C138 1.336 . S
C139 H154 0.929 . S
C140 C130 1.386 . S
C140 C133 1.357 . S
C140 H153 0.928 . S
H141 C117 0.931 . S
H142 C119 0.930 . S
H143 C121 0.929 . S
H144 C122 0.931 . S
H145 C124 0.930 . S
H146 C128 0.931 . S
H147 C126 0.931 . S
H148 C130 0.931 . S
H149 C131 0.929 . S
H150 C132 0.930 . S
H151 C135 0.930 . S
H152 C136 0.931 . S
H153 C140 0.928 . S
H154 C139 0.929 . S
H155 C137 0.932 . S
C156 C157 1.386 . S
C156 C158 1.397 . S
C156 H180 0.931 . S
C157 C156 1.386 . S
C157 C161 1.397 . S
C158 C156 1.397 . S
C158 C159 1.384 . S
C158 H181 0.930 . S
C159 C158 1.384 . S
C159 C160 1.377 . S
C159 C162 1.481 . S
C160 C159 1.377 . S
C160 C161 1.389 . S
C160 H182 0.929 . S
C161 C157 1.397 . S
C161 C160 1.389 . S
C161 H183 0.931 . S
C162 C159 1.481 . S
C162 C163 1.387 . S
C162 C167 1.390 . S
C163 C162 1.387 . S
C163 C164 1.401 . S
C163 H184 0.930 . S
C164 C163 1.401 . S
C164 C165 1.376 . S
C164 C173 1.511 . S
C165 C164 1.376 . S
C165 C166 1.392 . S
C165 H186 0.931 . S
C166 C165 1.392 . S
C166 C167 1.361 . S
C166 C168 1.500 . S
C167 C162 1.390 . S
C167 C166 1.361 . S
C167 H185 0.931 . S
C168 C166 1.500 . S
C168 C169 1.371 . S
C168 C170 1.365 . S
C169 C168 1.371 . S
C169 C179 1.386 . S
C169 H187 0.931 . S
C170 C168 1.365 . S
C170 C171 1.409 . S
C170 H188 0.929 . S
C171 C170 1.409 . S
C171 C172 1.380 . S
C171 H189 0.930 . S
C172 C171 1.380 . S
C172 C179 1.357 . S
C173 C164 1.511 . S
C173 C174 1.341 . S
C173 C175 1.371 . S
C174 C173 1.341 . S
C174 C178 1.394 . S
C174 H190 0.930 . S
C175 C173 1.371 . S
C175 C176 1.392 . S
C175 H191 0.931 . S
C176 C175 1.392 . S
C176 C177 1.331 . S
C176 H194 0.932 . S
C177 C176 1.331 . S
C177 C178 1.336 . S
C178 C174 1.394 . S
C178 C177 1.336 . S
C178 H193 0.929 . S
C179 C169 1.386 . S
C179 C172 1.357 . S
C179 H192 0.928 . S
H180 C156 0.931 . S
H181 C158 0.930 . S
H182 C160 0.929 . S
H183 C161 0.931 . S
H184 C163 0.930 . S
H185 C167 0.931 . S
H186 C165 0.931 . S
H187 C169 0.931 . S
H188 C170 0.929 . S
H189 C171 0.930 . S
H190 C174 0.930 . S
H191 C175 0.931 . S
H192 C179 0.928 . S
H193 C178 0.929 . S
H194 C176 0.932 . S
C195 C196 1.386 . S
C195 C197 1.397 . S
C195 H219 0.931 . S
C196 C195 1.386 . S
C196 C200 1.397 . S
C197 C195 1.397 . S
C197 C198 1.384 . S
C197 H220 0.930 . S
C198 C197 1.384 . S
C198 C199 1.377 . S
C198 C201 1.481 . S
C199 C198 1.377 . S
C199 C200 1.389 . S
C199 H221 0.929 . S
C200 C196 1.397 . S
C200 C199 1.389 . S
C200 H222 0.931 . S
C201 C198 1.481 . S
C201 C202 1.387 . S
C201 C206 1.390 . S
C202 C201 1.387 . S
C202 C203 1.401 . S
C202 H223 0.930 . S
C203 C202 1.401 . S
C203 C204 1.376 . S
C203 C212 1.511 . S
C204 C203 1.376 . S
C204 C205 1.392 . S
C204 H225 0.931 . S
C205 C204 1.392 . S
C205 C206 1.361 . S
C205 C207 1.500 . S
C206 C201 1.390 . S
C206 C205 1.361 . S
C206 H224 0.931 . S
C207 C205 1.500 . S
C207 C208 1.371 . S
C207 C209 1.365 . S
C208 C207 1.371 . S
C208 C218 1.386 . S
C208 H226 0.931 . S
C209 C207 1.365 . S
C209 C210 1.409 . S
C209 H227 0.929 . S
C210 C209 1.409 . S
C210 C211 1.380 . S
C210 H228 0.930 . S
C211 C210 1.380 . S
C211 C218 1.357 . S
C212 C203 1.511 . S
C212 C213 1.341 . S
C212 C214 1.371 . S
C213 C212 1.341 . S
C213 C217 1.394 . S
C213 H229 0.930 . S
C214 C212 1.371 . S
C214 C215 1.392 . S
C214 H230 0.931 . S
C215 C214 1.392 . S
C215 C216 1.331 . S
C215 H233 0.932 . S
C216 C215 1.331 . S
C216 C217 1.336 . S
C217 C213 1.394 . S
C217 C216 1.336 . S
C217 H232 0.929 . S
C218 C208 1.386 . S
C218 C211 1.357 . S
C218 H231 0.928 . S
H219 C195 0.931 . S
H220 C197 0.930 . S
H221 C199 0.929 . S
H222 C200 0.931 . S
H223 C202 0.930 . S
H224 C206 0.931 . S
H225 C204 0.931 . S
H226 C208 0.931 . S
H227 C209 0.929 . S
H228 C210 0.930 . S
H229 C213 0.930 . S
H230 C214 0.931 . S
H231 C218 0.928 . S
H232 C217 0.929 . S
H233 C215 0.932 . S
C234 C235 1.386 . S
C234 C236 1.397 . S
C234 H258 0.931 . S
C235 C234 1.386 . S
C235 C239 1.397 . S
C236 C234 1.397 . S
C236 C237 1.384 . S
C236 H259 0.930 . S
C237 C236 1.384 . S
C237 C238 1.377 . S
C237 C240 1.481 . S
C238 C237 1.377 . S
C238 C239 1.389 . S
C238 H260 0.929 . S
C239 C235 1.397 . S
C239 C238 1.389 . S
C239 H261 0.931 . S
C240 C237 1.481 . S
C240 C241 1.387 . S
C240 C245 1.390 . S
C241 C240 1.387 . S
C241 C242 1.401 . S
C241 H262 0.930 . S
C242 C241 1.401 . S
C242 C243 1.376 . S
C242 C251 1.511 . S
C243 C242 1.376 . S
C243 C244 1.392 . S
C243 H264 0.931 . S
C244 C243 1.392 . S
C244 C245 1.361 . S
C244 C246 1.500 . S
C245 C240 1.390 . S
C245 C244 1.361 . S
C245 H263 0.931 . S
C246 C244 1.500 . S
C246 C247 1.371 . S
C246 C248 1.365 . S
C247 C246 1.371 . S
C247 C257 1.386 . S
C247 H265 0.931 . S
C248 C246 1.365 . S
C248 C249 1.409 . S
C248 H266 0.929 . S
C249 C248 1.409 . S
C249 C250 1.380 . S
C249 H267 0.930 . S
C250 C249 1.380 . S
C250 C257 1.357 . S
C251 C242 1.511 . S
C251 C252 1.341 . S
C251 C253 1.371 . S
C252 C251 1.341 . S
C252 C256 1.394 . S
C252 H268 0.930 . S
C253 C251 1.371 . S
C253 C254 1.392 . S
C253 H269 0.931 . S
C254 C253 1.392 . S
C254 C255 1.331 . S
C254 H272 0.932 . S
C255 C254 1.331 . S
C255 C256 1.336 . S
C256 C252 1.394 . S
C256 C255 1.336 . S
C256 H271 0.929 . S
C257 C247 1.386 . S
C257 C250 1.357 . S
C257 H270 0.928 . S
H258 C234 0.931 . S
H259 C236 0.930 . S
H260 C238 0.929 . S
H261 C239 0.931 . S
H262 C241 0.930 . S
H263 C245 0.931 . S
H264 C243 0.931 . S
H265 C247 0.931 . S
H266 C248 0.929 . S
H267 C249 0.930 . S
H268 C252 0.930 . S
H269 C253 0.931 . S
H270 C257 0.928 . S
H271 C256 0.929 . S
H272 C254 0.932 . S
C273 C274 1.386 1_554 S
C273 C275 1.397 . S
C273 H297 0.931 1_554 S
C274 C273 1.386 1_556 S
C274 C278 1.397 1_556 S
C275 C273 1.397 . S
C275 C276 1.384 . S
C275 H298 0.930 . S
C276 C275 1.384 . S
C276 C277 1.377 . S
C276 C279 1.481 . S
C277 C276 1.377 . S
C277 C278 1.389 . S
C277 H299 0.929 . S
C278 C274 1.397 1_554 S
C278 C277 1.389 . S
C278 H300 0.931 . S
C279 C276 1.481 . S
C279 C280 1.387 . S
C279 C284 1.390 . S
C280 C279 1.387 . S
C280 C281 1.401 . S
C280 H301 0.930 . S
C281 C280 1.401 . S
C281 C282 1.376 . S
C281 C290 1.511 . S
C282 C281 1.376 . S
C282 C283 1.392 . S
C282 H303 0.931 . S
C283 C282 1.392 . S
C283 C284 1.361 . S
C283 C285 1.500 . S
C284 C279 1.390 . S
C284 C283 1.361 . S
C284 H302 0.931 . S
C285 C283 1.500 . S
C285 C286 1.371 . S
C285 C287 1.365 . S
C286 C285 1.371 . S
C286 C296 1.386 . S
C286 H304 0.931 . S
C287 C285 1.365 . S
C287 C288 1.409 . S
C287 H305 0.929 . S
C288 C287 1.409 . S
C288 C289 1.380 . S
C288 H306 0.930 . S
C289 C288 1.380 . S
C289 C296 1.357 . S
C290 C281 1.511 . S
C290 C291 1.341 . S
C290 C292 1.371 . S
C291 C290 1.341 . S
C291 C295 1.394 . S
C291 H307 0.930 . S
C292 C290 1.371 . S
C292 C293 1.392 . S
C292 H308 0.931 . S
C293 C292 1.392 . S
C293 C294 1.331 . S
C293 H311 0.932 . S
C294 C293 1.331 . S
C294 C295 1.336 . S
C295 C291 1.394 . S
C295 C294 1.336 . S
C295 H310 0.929 . S
C296 C286 1.386 . S
C296 C289 1.357 . S
C296 H309 0.928 . S
H297 C273 0.931 1_556 S
H298 C275 0.930 . S
H299 C277 0.929 . S
H300 C278 0.931 . S
H301 C280 0.930 . S
H302 C284 0.931 . S
H303 C282 0.931 . S
H304 C286 0.931 . S
H305 C287 0.929 . S
H306 C288 0.930 . S
H307 C291 0.930 . S
H308 C292 0.931 . S
H309 C296 0.928 . S
H310 C295 0.929 . S
H311 C293 0.932 . S
Nd312 C314 2.836 1_445 S
Nd312 O332 2.500 1_445 S
Nd312 O333 2.492 1_545 S
Nd312 O334 2.487 . S
Nd312 O335 2.682 . S
Nd312 O336 2.410 1_545 S
Nd312 O341 2.414 1_455 S
Nd312 O343 2.424 . S
Nd313 C323 2.836 1_556 S
Nd313 O335 2.414 . S
Nd313 O337 2.424 1_545 S
Nd313 O338 2.500 . S
Nd313 O339 2.492 1_556 S
Nd313 O340 2.487 1_455 S
Nd313 O341 2.682 1_455 S
Nd313 O342 2.410 . S
C314 Nd312 2.836 1_665 S
C314 C315 1.498 . S
C314 O332 1.258 . S
C314 O333 1.239 1_655 S
C315 C314 1.498 . S
C315 C316 1.366 . S
C315 C320 1.432 . S
C316 C315 1.366 . S
C316 C317 1.392 . S
C316 H344 0.930 . S
C317 C316 1.392 . S
C317 C318 1.398 . S
C317 H345 0.929 . S
C318 C317 1.398 . S
C318 C319 1.352 . S
C319 C318 1.352 . S
C319 C320 1.392 . S
C319 H346 0.939 . S
C320 C315 1.432 . S
C320 C319 1.392 . S
C320 H347 0.897 1_655 S
C321 O334 1.241 . S
C321 O335 1.273 . S
C322 O336 1.251 . S
C322 O337 1.268 . S
C323 Nd313 2.836 1_554 S
C323 C324 1.498 . S
C323 O338 1.258 1_554 S
C323 O339 1.239 . S
C324 C323 1.498 . S
C324 C325 1.366 . S
C324 C329 1.407 . S
C325 C324 1.366 . S
C325 C326 1.392 . S
C325 H348 0.930 . S
C326 C325 1.392 . S
C326 C327 1.398 . S
C326 H349 0.929 . S
C327 C326 1.398 . S
C327 C328 1.352 . S
C328 C327 1.352 . S
C328 C329 1.384 . S
C328 H350 0.930 . S
C329 C324 1.407 . S
C329 C328 1.384 . S
C329 H351 0.929 . S
C330 O340 1.241 . S
C330 O341 1.273 . S
C331 O342 1.251 . S
C331 O343 1.268 . S
O332 Nd312 2.500 1_665 S
O332 C314 1.258 . S
O333 Nd312 2.492 1_565 S
O333 C314 1.239 1_455 S
O334 Nd312 2.487 . S
O334 C321 1.241 . S
O335 Nd312 2.682 . S
O335 Nd313 2.414 . S
O335 C321 1.273 . S
O336 Nd312 2.410 1_565 S
O336 C322 1.251 . S
O337 Nd313 2.424 1_565 S
O337 C322 1.268 . S
O338 Nd313 2.500 . S
O338 C323 1.258 1_556 S
O339 Nd313 2.492 1_554 S
O339 C323 1.239 . S
O340 Nd313 2.487 1_655 S
O340 C330 1.241 . S
O341 Nd312 2.414 1_655 S
O341 Nd313 2.682 1_655 S
O341 C330 1.273 . S
O342 Nd313 2.410 . S
O342 C331 1.251 . S
O343 Nd312 2.424 . S
O343 C331 1.268 . S
H344 C316 0.930 . S
H345 C317 0.929 . S
H346 C319 0.939 . S
H347 C320 0.897 1_455 S
H348 C325 0.930 . S
H349 C326 0.929 . S
H350 C328 0.930 . S
H351 C329 0.929 . S
Nd352 C354 2.836 1_545 S
Nd352 O372 2.500 1_545 S
Nd352 O373 2.492 . S
Nd352 O374 2.487 . S
Nd352 O375 2.682 . S
Nd352 O376 2.410 . S
Nd352 O381 2.414 1_545 S
Nd352 O383 2.424 . S
Nd353 C363 2.836 1_556 S
Nd353 O375 2.414 . S
Nd353 O377 2.424 . S
Nd353 O378 2.500 . S
Nd353 O379 2.492 1_556 S
Nd353 O380 2.487 1_546 S
Nd353 O381 2.682 1_545 S
Nd353 O382 2.410 . S
C354 Nd352 2.836 1_565 S
C354 C355 1.498 . S
C354 O372 1.258 . S
C354 O373 1.239 1_565 S
C355 C354 1.498 . S
C355 C356 1.366 . S
C355 C360 1.403 1_565 S
C356 C355 1.366 . S
C356 C357 1.392 . S
C356 H384 0.930 . S
C357 C356 1.392 . S
C357 C358 1.398 . S
C357 H385 0.929 . S
C358 C357 1.398 . S
C358 C359 1.352 . S
C359 C358 1.352 . S
C359 C360 1.370 1_565 S
C359 H386 0.933 . S
C360 C355 1.403 1_545 S
C360 C359 1.370 1_545 S
C360 H387 0.948 . S
C361 O374 1.241 . S
C361 O375 1.273 . S
C362 O376 1.251 . S
C362 O377 1.268 . S
C363 Nd353 2.836 1_554 S
C363 C364 1.498 . S
C363 O378 1.258 1_554 S
C363 O379 1.239 . S
C364 C363 1.498 . S
C364 C365 1.366 . S
C364 C369 1.407 . S
C365 C364 1.366 . S
C365 C366 1.392 . S
C365 H388 0.930 1_554 S
C366 C365 1.392 . S
C366 C367 1.398 . S
C366 H389 0.929 . S
C367 C366 1.398 . S
C367 C368 1.352 . S
C368 C367 1.352 . S
C368 C369 1.384 . S
C368 H390 0.930 . S
C369 C364 1.407 . S
C369 C368 1.384 . S
C369 H391 0.929 . S
C370 O380 1.242 1_556 S
C370 O381 1.273 . S
C371 O382 1.251 . S
C371 O383 1.268 . S
O372 Nd352 2.500 1_565 S
O372 C354 1.258 . S
O373 Nd352 2.492 . S
O373 C354 1.239 1_545 S
O374 Nd352 2.487 . S
O374 C361 1.241 . S
O375 Nd352 2.682 . S
O375 Nd353 2.414 . S
O375 C361 1.273 . S
O376 Nd352 2.410 . S
O376 C362 1.251 . S
O377 Nd353 2.424 . S
O377 C362 1.268 . S
O378 Nd353 2.500 . S
O378 C363 1.258 1_556 S
O379 Nd353 2.492 1_554 S
O379 C363 1.239 . S
O380 Nd353 2.487 1_564 S
O380 C370 1.242 1_554 S
O381 Nd352 2.414 1_565 S
O381 Nd353 2.682 1_565 S
O381 C370 1.273 . S
O382 Nd353 2.410 . S
O382 C371 1.251 . S
O383 Nd352 2.424 . S
O383 C371 1.268 . S
H384 C356 0.930 . S
H385 C357 0.929 . S
H386 C359 0.933 . S
H387 C360 0.948 . S
H388 C365 0.930 1_556 S
H389 C366 0.929 . S
H390 C368 0.930 . S
H391 C369 0.929 . S
Nd392 C394 2.836 . S
Nd392 O412 2.500 . S
Nd392 O413 2.492 . S
Nd392 O414 2.487 . S
Nd392 O415 2.682 . S
Nd392 O416 2.410 . S
Nd392 O421 2.414 . S
Nd392 O423 2.424 . S
Nd393 C403 2.836 . S
Nd393 O415 2.414 . S
Nd393 O417 2.424 . S
Nd393 O418 2.500 . S
Nd393 O419 2.492 . S
Nd393 O420 2.487 . S
Nd393 O421 2.682 . S
Nd393 O422 2.410 . S
C394 Nd392 2.836 . S
C394 C395 1.498 1_556 S
C394 O412 1.258 . S
C394 O413 1.239 . S
C395 C394 1.498 1_554 S
C395 C396 1.366 1_554 S
C395 C400 1.407 . S
C396 C395 1.366 1_556 S
C396 C397 1.392 . S
C396 H424 0.930 . S
C397 C396 1.392 . S
C397 C398 1.398 1_556 S
C397 H425 0.929 . S
C398 C397 1.398 1_554 S
C398 C399 1.352 . S
C399 C398 1.352 . S
C399 C400 1.384 . S
C399 H426 0.930 . S
C400 C395 1.407 . S
C400 C399 1.384 . S
C400 H427 0.929 . S
C401 O414 1.241 . S
C401 O415 1.273 . S
C402 O416 1.251 . S
C402 O417 1.268 . S
C403 Nd393 2.836 . S
C403 C404 1.498 . S
C403 O418 1.258 . S
C403 O419 1.239 . S
C404 C403 1.498 . S
C404 C405 1.366 . S
C404 C409 1.407 . S
C405 C404 1.366 . S
C405 C406 1.392 . S
C405 H428 0.930 . S
C406 C405 1.392 . S
C406 C407 1.398 . S
C406 H429 0.929 . S
C407 C406 1.398 . S
C407 C408 1.352 . S
C408 C407 1.352 . S
C408 C409 1.384 . S
C408 H430 0.930 . S
C409 C404 1.407 . S
C409 C408 1.384 . S
C409 H431 0.929 . S
C410 O420 1.241 . S
C410 O421 1.273 . S
C411 O422 1.251 . S
C411 O423 1.268 . S
O412 Nd392 2.500 . S
O412 C394 1.258 . S
O413 Nd392 2.492 . S
O413 C394 1.239 . S
O414 Nd392 2.487 . S
O414 C401 1.241 . S
O415 Nd392 2.682 . S
O415 Nd393 2.414 . S
O415 C401 1.273 . S
O416 Nd392 2.410 . S
O416 C402 1.251 . S
O417 Nd393 2.424 . S
O417 C402 1.268 . S
O418 Nd393 2.500 . S
O418 C403 1.258 . S
O419 Nd393 2.492 . S
O419 C403 1.239 . S
O420 Nd393 2.487 . S
O420 C410 1.241 . S
O421 Nd392 2.414 . S
O421 Nd393 2.682 . S
O421 C410 1.273 . S
O422 Nd393 2.410 . S
O422 C411 1.251 . S
O423 Nd392 2.424 . S
O423 C411 1.268 . S
H424 C396 0.930 . S
H425 C397 0.929 . S
H426 C399 0.930 . S
H427 C400 0.929 . S
H428 C405 0.930 . S
H429 C406 0.929 . S
H430 C408 0.930 . S
H431 C409 0.929 . S
Nd432 C434 2.836 1_455 S
Nd432 O452 2.500 1_455 S
Nd432 O453 2.492 1_455 S
Nd432 O454 2.487 . S
Nd432 O455 2.682 . S
Nd432 O456 2.410 1_455 S
Nd432 O461 2.414 . S
Nd432 O463 2.424 . S
Nd433 C443 2.836 1_556 S
Nd433 O455 2.414 . S
Nd433 O457 2.424 1_455 S
Nd433 O458 2.500 . S
Nd433 O459 2.492 1_556 S
Nd433 O460 2.487 . S
Nd433 O461 2.682 . S
Nd433 O462 2.410 . S
C434 Nd432 2.836 1_655 S
C434 C435 1.498 . S
C434 O452 1.258 . S
C434 O453 1.239 . S
C435 C434 1.498 . S
C435 C436 1.366 . S
C435 C440 1.407 . S
C436 C435 1.366 . S
C436 C437 1.392 . S
C436 H464 0.930 . S
C437 C436 1.392 . S
C437 C438 1.398 . S
C437 H465 0.929 . S
C438 C437 1.398 . S
C438 C439 1.352 . S
C439 C438 1.352 . S
C439 C440 1.384 . S
C439 H466 0.930 . S
C440 C435 1.407 . S
C440 C439 1.384 . S
C440 H467 0.929 . S
C441 O454 1.241 . S
C441 O455 1.273 . S
C442 O456 1.251 . S
C442 O457 1.268 . S
C443 Nd433 2.836 1_554 S
C443 C444 1.498 . S
C443 O458 1.258 1_554 S
C443 O459 1.239 . S
C444 C443 1.498 . S
C444 C445 1.366 . S
C444 C449 1.407 . S
C445 C444 1.366 . S
C445 C446 1.392 . S
C445 H468 0.930 . S
C446 C445 1.392 . S
C446 C447 1.398 . S
C446 H469 0.929 . S
C447 C446 1.398 . S
C447 C448 1.352 . S
C448 C447 1.352 . S
C448 C449 1.384 . S
C448 H470 0.930 . S
C449 C444 1.407 . S
C449 C448 1.384 . S
C449 H471 0.929 . S
C450 O460 1.241 . S
C450 O461 1.273 . S
C451 O462 1.251 . S
C451 O463 1.268 . S
O452 Nd432 2.500 1_655 S
O452 C434 1.258 . S
O453 Nd432 2.492 1_655 S
O453 C434 1.239 . S
O454 Nd432 2.487 . S
O454 C441 1.241 . S
O455 Nd432 2.682 . S
O455 Nd433 2.414 . S
O455 C441 1.273 . S
O456 Nd432 2.410 1_655 S
O456 C442 1.251 . S
O457 Nd433 2.424 1_655 S
O457 C442 1.268 . S
O458 Nd433 2.500 . S
O458 C443 1.258 1_556 S
O459 Nd433 2.492 1_554 S
O459 C443 1.239 . S
O460 Nd433 2.487 . S
O460 C450 1.241 . S
O461 Nd432 2.414 . S
O461 Nd433 2.682 . S
O461 C450 1.273 . S
O462 Nd433 2.410 . S
O462 C451 1.251 . S
O463 Nd432 2.424 . S
O463 C451 1.268 . S
H464 C436 0.930 . S
H465 C437 0.929 . S
H466 C439 0.930 . S
H467 C440 0.929 . S
H468 C445 0.930 . S
H469 C446 0.929 . S
H470 C448 0.930 . S
H471 C449 0.929 . S
C472 C473 1.363 . S
C472 C478 1.379 . S
C472 N480 1.356 . S
C473 C472 1.363 . S
C473 C479 1.363 . S
C474 C475 1.363 . S
C474 C479 1.379 . S
C474 N481 1.356 . S
C475 C474 1.363 . S
C475 C478 1.363 . S
N476 C478 1.356 . S
N476 H488 0.984 . S
N476 H489 0.985 . S
N477 C479 1.356 . S
N477 H482 0.984 . S
N477 H483 0.985 . S
C478 C472 1.379 . S
C478 C475 1.363 . S
C478 N476 1.356 . S
C479 C473 1.363 . S
C479 C474 1.379 . S
C479 N477 1.356 . S
N480 C472 1.356 . S
N480 H486 0.984 . S
N480 H487 0.984 . S
N481 C474 1.356 . S
N481 H484 0.984 . S
N481 H485 0.985 . S
H482 N477 0.984 . S
H483 N477 0.985 . S
H484 N481 0.984 . S
H485 N481 0.985 . S
H486 N480 0.984 . S
H487 N480 0.984 . S
H488 N476 0.984 . S
H489 N476 0.985 . S
C490 C491 1.363 . S
C490 C496 1.379 . S
C490 N498 1.356 . S
C491 C490 1.363 . S
C491 C497 1.363 . S
C492 C493 1.363 . S
C492 C497 1.379 . S
C492 N499 1.356 . S
C493 C492 1.363 . S
C493 C496 1.363 . S
N494 C496 1.356 . S
N494 H506 0.984 . S
N494 H507 0.985 . S
N495 C497 1.356 . S
N495 H500 0.984 . S
N495 H501 0.985 . S
C496 C490 1.379 . S
C496 C493 1.363 . S
C496 N494 1.356 . S
C497 C491 1.363 . S
C497 C492 1.379 . S
C497 N495 1.356 . S
N498 C490 1.356 . S
N498 H504 0.984 . S
N498 H505 0.984 . S
N499 C492 1.356 . S
N499 H502 0.984 . S
N499 H503 0.985 . S
H500 N495 0.984 . S
H501 N495 0.985 . S
H502 N499 0.984 . S
H503 N499 0.985 . S
H504 N498 0.984 . S
H505 N498 0.984 . S
H506 N494 0.984 . S
H507 N494 0.985 . S
C508 C509 1.363 . S
C508 C514 1.379 . S
C508 N516 1.356 . S
C509 C508 1.363 . S
C509 C515 1.363 . S
C510 C511 1.363 . S
C510 C515 1.379 . S
C510 N517 1.356 . S
C511 C510 1.363 . S
C511 C514 1.363 . S
N512 C514 1.356 . S
N512 H524 0.984 . S
N512 H525 0.985 . S
N513 C515 1.356 . S
N513 H518 0.984 . S
N513 H519 0.985 . S
C514 C508 1.379 . S
C514 C511 1.363 . S
C514 N512 1.356 . S
C515 C509 1.363 . S
C515 C510 1.379 . S
C515 N513 1.356 . S
N516 C508 1.356 . S
N516 H522 0.984 . S
N516 H523 0.984 . S
N517 C510 1.356 . S
N517 H520 0.984 . S
N517 H521 0.985 . S
H518 N513 0.984 . S
H519 N513 0.985 . S
H520 N517 0.984 . S
H521 N517 0.985 . S
H522 N516 0.984 . S
H523 N516 0.984 . S
H524 N512 0.984 . S
H525 N512 0.985 . S
C526 C527 1.363 . S
C526 C532 1.379 . S
C526 N534 1.356 . S
C527 C526 1.363 . S
C527 C533 1.363 . S
C528 C529 1.363 . S
C528 C533 1.379 . S
C528 N535 1.356 . S
C529 C528 1.363 . S
C529 C532 1.363 . S
N530 C532 1.356 . S
N530 H542 0.984 . S
N530 H543 0.985 . S
N531 C533 1.356 . S
N531 H536 0.984 . S
N531 H537 0.985 . S
C532 C526 1.379 . S
C532 C529 1.363 . S
C532 N530 1.356 . S
C533 C527 1.363 . S
C533 C528 1.379 . S
C533 N531 1.356 . S
N534 C526 1.356 . S
N534 H540 0.984 . S
N534 H541 0.984 . S
N535 C528 1.356 . S
N535 H538 0.984 . S
N535 H539 0.985 . S
H536 N531 0.984 . S
H537 N531 0.985 . S
H538 N535 0.984 . S
H539 N535 0.985 . S
H540 N534 0.984 . S
H541 N534 0.984 . S
H542 N530 0.984 . S
H543 N530 0.985 . S
C544 C545 1.363 1_545 S
C544 C550 1.379 . S
C544 N552 1.356 . S
C545 C544 1.363 1_565 S
C545 C551 1.363 . S
C546 C547 1.363 1_565 S
C546 C551 1.379 . S
C546 N553 1.356 . S
C547 C546 1.363 1_545 S
C547 C550 1.363 . S
N548 C550 1.356 . S
N548 H560 0.984 . S
N548 H561 0.985 . S
N549 C551 1.356 . S
N549 H554 0.984 . S
N549 H555 0.985 . S
C550 C544 1.379 . S
C550 C547 1.363 . S
C550 N548 1.356 . S
C551 C545 1.363 . S
C551 C546 1.379 . S
C551 N549 1.356 . S
N552 C544 1.356 . S
N552 H558 0.984 . S
N552 H559 0.984 . S
N553 C546 1.356 . S
N553 H556 0.984 . S
N553 H557 0.985 . S
H554 N549 0.984 . S
H555 N549 0.985 . S
H556 N553 0.984 . S
H557 N553 0.985 . S
H558 N552 0.984 . S
H559 N552 0.984 . S
H560 N548 0.984 . S
H561 N548 0.985 . S
C562 C563 1.363 . S
C562 C568 1.379 . S
C562 N570 1.356 . S
C563 C562 1.363 . S
C563 C569 1.363 . S
C564 C565 1.363 . S
C564 C569 1.379 . S
C564 N571 1.356 1_565 S
C565 C564 1.363 . S
C565 C568 1.363 . S
N566 C568 1.356 . S
N566 H578 0.984 . S
N566 H579 0.985 1_554 S
N567 C569 1.356 1_545 S
N567 H572 0.984 . S
N567 H573 0.985 . S
C568 C562 1.379 . S
C568 C565 1.363 . S
C568 N566 1.356 . S
C569 C563 1.363 . S
C569 C564 1.379 . S
C569 N567 1.356 1_565 S
N570 C562 1.356 . S
N570 H576 0.984 . S
N570 H577 0.984 . S
N571 C564 1.356 1_545 S
N571 H574 0.984 1_554 S
N571 H575 0.985 . S
H572 N567 0.984 . S
H573 N567 0.985 . S
H574 N571 0.984 1_556 S
H575 N571 0.985 . S
H576 N570 0.984 . S
H577 N570 0.984 . S
H578 N566 0.984 . S
H579 N566 0.985 1_556 S
C580 C581 1.363 . S
C580 C586 1.379 . S
C580 N588 1.356 . S
C581 C580 1.363 . S
C581 C587 1.363 . S
C582 C583 1.363 . S
C582 C587 1.379 . S
C582 N589 1.356 . S
C583 C582 1.363 . S
C583 C586 1.363 . S
N584 C586 1.356 . S
N584 H596 0.984 . S
N584 H597 0.985 . S
N585 C587 1.356 1_554 S
N585 H590 0.984 . S
N585 H591 0.985 . S
C586 C580 1.379 . S
C586 C583 1.363 . S
C586 N584 1.356 . S
C587 C581 1.363 . S
C587 C582 1.379 . S
C587 N585 1.356 1_556 S
N588 C580 1.356 . S
N588 H594 0.984 . S
N588 H595 0.984 . S
N589 C582 1.356 . S
N589 H592 0.984 . S
N589 H593 0.985 1_556 S
H590 N585 0.984 . S
H591 N585 0.985 . S
H592 N589 0.984 . S
H593 N589 0.985 1_554 S
H594 N588 0.984 . S
H595 N588 0.984 . S
H596 N584 0.984 . S
H597 N584 0.985 . S
C598 C599 1.363 . S
C598 C604 1.379 . S
C598 N606 1.356 1_556 S
C599 C598 1.363 . S
C599 C605 1.363 . S
C600 C601 1.363 . S
C600 C605 1.379 . S
C600 N607 1.356 . S
C601 C600 1.363 . S
C601 C604 1.363 . S
N602 C604 1.356 1_455 S
N602 H614 0.984 . S
N602 H615 0.985 . S
N603 C605 1.356 . S
N603 H608 0.984 . S
N603 H609 0.985 . S
C604 C598 1.379 . S
C604 C601 1.363 . S
C604 N602 1.356 1_655 S
C605 C599 1.363 . S
C605 C600 1.379 . S
C605 N603 1.356 . S
N606 C598 1.356 1_554 S
N606 H612 0.984 . S
N606 H613 0.984 . S
N607 C600 1.356 . S
N607 H610 0.984 . S
N607 H611 0.985 . S
H608 N603 0.984 . S
H609 N603 0.985 . S
H610 N607 0.984 . S
H611 N607 0.985 . S
H612 N606 0.984 . S
H613 N606 0.984 . S
H614 N602 0.984 . S
H615 N602 0.985 . S
C616 C617 1.363 . S
C616 C622 1.379 . S
C616 N624 1.356 . S
C617 C616 1.363 . S
C617 C623 1.363 . S
C618 C619 1.363 . S
C618 C623 1.379 . S
C618 N625 1.356 . S
C619 C618 1.363 . S
C619 C622 1.363 . S
N620 C622 1.356 . S
N620 H632 0.984 . S
N620 H633 0.985 . S
N621 C623 1.356 . S
N621 H626 0.984 . S
N621 H627 0.985 . S
C622 C616 1.379 . S
C622 C619 1.363 . S
C622 N620 1.356 . S
C623 C617 1.363 . S
C623 C618 1.379 . S
C623 N621 1.356 . S
N624 C616 1.356 . S
N624 H630 0.984 . S
N624 H631 0.984 . S
N625 C618 1.356 . S
N625 H628 0.984 . S
N625 H629 0.985 . S
H626 N621 0.984 . S
H627 N621 0.985 . S
H628 N625 0.984 . S
H629 N625 0.985 . S
H630 N624 0.984 . S
H631 N624 0.984 . S
H632 N620 0.984 . S
H633 N620 0.985 . S
C634 C635 1.363 . S
C634 C640 1.379 . S
C634 N642 1.356 . S
C635 C634 1.363 . S
C635 C641 1.363 . S
C636 C637 1.363 . S
C636 C641 1.379 . S
C636 N643 1.356 . S
C637 C636 1.363 . S
C637 C640 1.363 . S
N638 C640 1.356 . S
N638 H650 0.984 . S
N638 H651 0.985 . S
N639 C641 1.356 1_554 S
N639 H644 0.984 . S
N639 H645 0.985 . S
C640 C634 1.379 . S
C640 C637 1.363 . S
C640 N638 1.356 . S
C641 C635 1.363 . S
C641 C636 1.379 . S
C641 N639 1.356 1_556 S
N642 C634 1.356 . S
N642 H648 0.984 . S
N642 H649 0.984 . S
N643 C636 1.356 . S
N643 H646 0.984 . S
N643 H647 0.985 1_556 S
H644 N639 0.984 . S
H645 N639 0.985 . S
H646 N643 0.984 . S
H647 N643 0.985 1_554 S
H648 N642 0.984 . S
H649 N642 0.984 . S
H650 N638 0.984 . S
H651 N638 0.985 . S
C652 C653 1.363 . S
C652 C658 1.379 . S
C652 N660 1.356 . S
C653 C652 1.363 . S
C653 C659 1.363 . S
C654 C655 1.363 . S
C654 C659 1.379 . S
C654 N661 1.356 . S
C655 C654 1.363 . S
C655 C658 1.363 . S
N656 C658 1.356 . S
N656 H668 0.984 . S
N656 H669 0.985 . S
N657 C659 1.356 . S
N657 H662 0.984 . S
N657 H663 0.985 . S
C658 C652 1.379 . S
C658 C655 1.363 . S
C658 N656 1.356 . S
C659 C653 1.363 . S
C659 C654 1.379 . S
C659 N657 1.356 . S
N660 C652 1.356 . S
N660 H666 0.984 . S
N660 H667 0.984 . S
N661 C654 1.356 . S
N661 H664 0.984 . S
N661 H665 0.985 . S
H662 N657 0.984 . S
H663 N657 0.985 . S
H664 N661 0.984 . S
H665 N661 0.985 . S
H666 N660 0.984 . S
H667 N660 0.984 . S
H668 N656 0.984 . S
H669 N656 0.985 . S
C670 C671 1.363 . S
C670 C676 1.379 . S
C670 N678 1.356 . S
C671 C670 1.363 . S
C671 C677 1.363 . S
C672 C673 1.363 . S
C672 C677 1.379 . S
C672 N679 1.356 . S
C673 C672 1.363 . S
C673 C676 1.363 . S
N674 C676 1.356 . S
N674 H686 0.984 . S
N674 H687 0.985 . S
N675 C677 1.356 . S
N675 H680 0.984 . S
N675 H681 0.985 . S
C676 C670 1.379 . S
C676 C673 1.363 . S
C676 N674 1.356 . S
C677 C671 1.363 . S
C677 C672 1.379 . S
C677 N675 1.356 . S
N678 C670 1.356 . S
N678 H684 0.984 . S
N678 H685 0.984 . S
N679 C672 1.356 . S
N679 H682 0.984 . S
N679 H683 0.985 . S
H680 N675 0.984 . S
H681 N675 0.985 . S
H682 N679 0.984 . S
H683 N679 0.985 . S
H684 N678 0.984 . S
H685 N678 0.984 . S
H686 N674 0.984 . S
H687 N674 0.985 . S
C688 C689 1.363 . S
C688 C694 1.379 . S
C688 N696 1.356 . S
C689 C688 1.363 . S
C689 C695 1.363 . S
C690 C691 1.363 . S
C690 C695 1.379 . S
C690 N697 1.356 . S
C691 C690 1.363 . S
C691 C694 1.363 . S
N692 C694 1.356 . S
N692 H704 0.984 1_556 S
N692 H705 0.985 . S
N693 C695 1.356 . S
N693 H698 0.984 . S
N693 H699 0.985 . S
C694 C688 1.379 . S
C694 C691 1.363 . S
C694 N692 1.356 . S
C695 C689 1.363 . S
C695 C690 1.379 . S
C695 N693 1.356 . S
N696 C688 1.356 . S
N696 H702 0.984 . S
N696 H703 0.984 . S
N697 C690 1.356 . S
N697 H700 0.984 . S
N697 H701 0.985 . S
H698 N693 0.984 . S
H699 N693 0.985 . S
H700 N697 0.984 . S
H701 N697 0.985 . S
H702 N696 0.984 . S
H703 N696 0.984 . S
H704 N692 0.984 1_554 S
H705 N692 0.985 . S
C706 C707 1.363 1_545 S
C706 C712 1.379 . S
C706 N714 1.356 . S
C707 C706 1.363 1_565 S
C707 C713 1.363 . S
C708 C709 1.363 1_565 S
C708 C713 1.379 . S
C708 N715 1.356 . S
C709 C708 1.363 1_545 S
C709 C712 1.363 . S
N710 C712 1.356 . S
N710 H722 0.984 . S
N710 H723 0.985 . S
N711 C713 1.356 . S
N711 H716 0.984 . S
N711 H717 0.985 . S
C712 C706 1.379 . S
C712 C709 1.363 . S
C712 N710 1.356 . S
C713 C707 1.363 . S
C713 C708 1.379 . S
C713 N711 1.356 . S
N714 C706 1.356 . S
N714 H720 0.984 . S
N714 H721 0.984 . S
N715 C708 1.356 . S
N715 H718 0.984 1_565 S
N715 H719 0.985 . S
H716 N711 0.984 . S
H717 N711 0.985 . S
H718 N715 0.984 1_545 S
H719 N715 0.985 . S
H720 N714 0.984 . S
H721 N714 0.984 . S
H722 N710 0.984 . S
H723 N710 0.985 . S
C724 C725 1.363 . S
C724 C730 1.379 . S
C724 N732 1.356 . S
C725 C724 1.363 . S
C725 C731 1.363 . S
C726 C727 1.363 . S
C726 C731 1.379 . S
C726 N733 1.356 . S
C727 C726 1.363 . S
C727 C730 1.363 . S
N728 C730 1.356 1_556 S
N728 H740 0.984 . S
N728 H741 0.985 . S
N729 C731 1.356 . S
N729 H734 0.984 . S
N729 H735 0.985 . S
C730 C724 1.379 . S
C730 C727 1.363 . S
C730 N728 1.356 1_554 S
C731 C725 1.363 . S
C731 C726 1.379 . S
C731 N729 1.356 . S
N732 C724 1.356 . S
N732 H738 0.984 . S
N732 H739 0.984 . S
N733 C726 1.356 . S
N733 H736 0.984 . S
N733 H737 0.985 . S
H734 N729 0.984 . S
H735 N729 0.985 . S
H736 N733 0.984 . S
H737 N733 0.985 . S
H738 N732 0.984 . S
H739 N732 0.984 . S
H740 N728 0.984 . S
H741 N728 0.985 . S
C742 C743 1.363 . S
C742 C748 1.379 . S
C742 N750 1.356 . S
C743 C742 1.363 . S
C743 C749 1.363 . S
C744 C745 1.363 . S
C744 C749 1.379 . S
C744 N751 1.356 . S
C745 C744 1.363 . S
C745 C748 1.363 . S
N746 C748 1.356 . S
N746 H758 0.984 . S
N746 H759 0.985 . S
N747 C749 1.356 . S
N747 H752 0.984 . S
N747 H753 0.985 . S
C748 C742 1.379 . S
C748 C745 1.363 . S
C748 N746 1.356 . S
C749 C743 1.363 . S
C749 C744 1.379 . S
C749 N747 1.356 . S
N750 C742 1.356 . S
N750 H756 0.984 . S
N750 H757 0.984 . S
N751 C744 1.356 . S
N751 H754 0.984 . S
N751 H755 0.985 1_556 S
H752 N747 0.984 . S
H753 N747 0.985 . S
H754 N751 0.984 . S
H755 N751 0.985 1_554 S
H756 N750 0.984 . S
H757 N750 0.984 . S
H758 N746 0.984 . S
H759 N746 0.985 . S
C760 C761 1.363 . S
C760 C766 1.379 . S
C760 N768 1.356 . S
C761 C760 1.363 . S
C761 C767 1.363 . S
C762 C763 1.363 . S
C762 C767 1.379 . S
C762 N769 1.356 . S
C763 C762 1.363 . S
C763 C766 1.363 . S
N764 C766 1.356 . S
N764 H776 0.984 . S
N764 H777 0.985 . S
N765 C767 1.356 . S
N765 H770 0.984 . S
N765 H771 0.985 . S
C766 C760 1.379 . S
C766 C763 1.363 . S
C766 N764 1.356 . S
C767 C761 1.363 . S
C767 C762 1.379 . S
C767 N765 1.356 . S
N768 C760 1.356 . S
N768 H774 0.984 . S
N768 H775 0.984 . S
N769 C762 1.356 . S
N769 H772 0.984 . S
N769 H773 0.985 . S
H770 N765 0.984 . S
H771 N765 0.985 . S
H772 N769 0.984 . S
H773 N769 0.985 . S
H774 N768 0.984 . S
H775 N768 0.984 . S
H776 N764 0.984 . S
H777 N764 0.985 . S
C778 C779 1.363 . S
C778 C784 1.379 . S
C778 N786 1.356 . S
C779 C778 1.363 . S
C779 C785 1.363 . S
C780 C781 1.363 . S
C780 C785 1.379 . S
C780 N787 1.356 . S
C781 C780 1.363 . S
C781 C784 1.363 . S
N782 C784 1.356 . S
N782 H794 0.984 . S
N782 H795 0.985 . S
N783 C785 1.356 . S
N783 H788 0.984 . S
N783 H789 0.985 . S
C784 C778 1.379 . S
C784 C781 1.363 . S
C784 N782 1.356 . S
C785 C779 1.363 . S
C785 C780 1.379 . S
C785 N783 1.356 . S
N786 C778 1.356 . S
N786 H792 0.984 . S
N786 H793 0.984 . S
N787 C780 1.356 . S
N787 H790 0.984 . S
N787 H791 0.985 . S
H788 N783 0.984 . S
H789 N783 0.985 . S
H790 N787 0.984 . S
H791 N787 0.985 . S
H792 N786 0.984 . S
H793 N786 0.984 . S
H794 N782 0.984 . S
H795 N782 0.985 . S
C796 C797 1.363 . S
C796 C802 1.379 . S
C796 N804 1.356 . S
C797 C796 1.363 . S
C797 C803 1.363 1_556 S
C798 C799 1.363 . S
C798 C803 1.379 1_556 S
C798 N805 1.356 1_556 S
C799 C798 1.363 . S
C799 C802 1.363 . S
N800 C802 1.356 . S
N800 H812 0.984 . S
N800 H813 0.985 . S
N801 C803 1.356 . S
N801 H806 0.984 . S
N801 H807 0.985 . S
C802 C796 1.379 . S
C802 C799 1.363 . S
C802 N800 1.356 . S
C803 C797 1.363 1_554 S
C803 C798 1.379 1_554 S
C803 N801 1.356 . S
N804 C796 1.356 . S
N804 H810 0.984 . S
N804 H811 0.984 . S
N805 C798 1.356 1_554 S
N805 H808 0.984 . S
N805 H809 0.985 . S
H806 N801 0.984 . S
H807 N801 0.985 . S
H808 N805 0.984 . S
H809 N805 0.985 . S
H810 N804 0.984 . S
H811 N804 0.984 . S
H812 N800 0.984 . S
H813 N800 0.985 . S
C814 C815 1.363 . S
C814 C820 1.379 . S
C814 N822 1.356 . S
C815 C814 1.363 . S
C815 C821 1.363 . S
C816 C817 1.363 . S
C816 C821 1.379 . S
C816 N823 1.356 . S
C817 C816 1.363 . S
C817 C820 1.363 . S
N818 C820 1.356 . S
N818 H830 0.984 . S
N818 H831 0.985 . S
N819 C821 1.356 . S
N819 H824 0.984 . S
N819 H825 0.985 . S
C820 C814 1.379 . S
C820 C817 1.363 . S
C820 N818 1.356 . S
C821 C815 1.363 . S
C821 C816 1.379 . S
C821 N819 1.356 . S
N822 C814 1.356 . S
N822 H828 0.984 . S
N822 H829 0.984 . S
N823 C816 1.356 . S
N823 H826 0.984 . S
N823 H827 0.985 . S
H824 N819 0.984 . S
H825 N819 0.985 . S
H826 N823 0.984 . S
H827 N823 0.985 . S
H828 N822 0.984 . S
H829 N822 0.984 . S
H830 N818 0.984 . S
H831 N818 0.985 . S
C832 C833 1.363 . S
C832 C838 1.379 . S
C832 N840 1.356 . S
C833 C832 1.363 . S
C833 C839 1.363 . S
C834 C835 1.363 . S
C834 C839 1.379 . S
C834 N841 1.356 . S
C835 C834 1.363 . S
C835 C838 1.363 . S
N836 C838 1.356 . S
N836 H848 0.984 . S
N836 H849 0.985 . S
N837 C839 1.356 . S
N837 H842 0.984 . S
N837 H843 0.985 . S
C838 C832 1.379 . S
C838 C835 1.363 . S
C838 N836 1.356 . S
C839 C833 1.363 . S
C839 C834 1.379 . S
C839 N837 1.356 . S
N840 C832 1.356 . S
N840 H846 0.984 . S
N840 H847 0.984 . S
N841 C834 1.356 . S
N841 H844 0.984 . S
N841 H845 0.985 . S
H842 N837 0.984 . S
H843 N837 0.985 . S
H844 N841 0.984 . S
H845 N841 0.985 . S
H846 N840 0.984 . S
H847 N840 0.984 . S
H848 N836 0.984 . S
H849 N836 0.985 . S
C850 C851 1.363 . S
C850 C856 1.379 . S
C850 N858 1.356 1_565 S
C851 C850 1.363 . S
C851 C857 1.363 . S
C852 C853 1.363 . S
C852 C857 1.379 . S
C852 N859 1.356 . S
C853 C852 1.363 . S
C853 C856 1.363 . S
N854 C856 1.356 1_545 S
N854 H866 0.984 . S
N854 H867 0.985 1_545 S
N855 C857 1.356 . S
N855 H860 0.984 . S
N855 H861 0.985 . S
C856 C850 1.379 . S
C856 C853 1.363 . S
C856 N854 1.356 1_565 S
C857 C851 1.363 . S
C857 C852 1.379 . S
C857 N855 1.356 . S
N858 C850 1.356 1_545 S
N858 H864 0.984 . S
N858 H865 0.984 . S
N859 C852 1.356 . S
N859 H862 0.984 . S
N859 H863 0.985 . S
H860 N855 0.984 . S
H861 N855 0.985 . S
H862 N859 0.984 . S
H863 N859 0.985 . S
H864 N858 0.984 . S
H865 N858 0.984 . S
H866 N854 0.984 . S
H867 N854 0.985 1_565 S
C868 C869 1.363 . S
C868 C874 1.379 . S
C868 N876 1.356 . S
C869 C868 1.363 . S
C869 C875 1.363 . S
C870 C871 1.363 . S
C870 C875 1.379 . S
C870 N877 1.356 . S
C871 C870 1.363 . S
C871 C874 1.363 . S
N872 C874 1.356 . S
N872 H884 0.984 . S
N872 H885 0.985 . S
N873 C875 1.356 . S
N873 H878 0.984 . S
N873 H879 0.985 . S
C874 C868 1.379 . S
C874 C871 1.363 . S
C874 N872 1.356 . S
C875 C869 1.363 . S
C875 C870 1.379 . S
C875 N873 1.356 . S
N876 C868 1.356 . S
N876 H882 0.984 . S
N876 H883 0.984 . S
N877 C870 1.356 . S
N877 H880 0.984 . S
N877 H881 0.985 . S
H878 N873 0.984 . S
H879 N873 0.985 . S
H880 N877 0.984 . S
H881 N877 0.985 . S
H882 N876 0.984 . S
H883 N876 0.984 . S
H884 N872 0.984 . S
H885 N872 0.985 . S
C886 C887 1.363 . S
C886 C892 1.379 . S
C886 N894 1.356 . S
C887 C886 1.363 . S
C887 C893 1.363 . S
C888 C889 1.363 . S
C888 C893 1.379 . S
C888 N895 1.356 . S
C889 C888 1.363 . S
C889 C892 1.363 . S
N890 C892 1.356 . S
N890 H902 0.984 . S
N890 H903 0.985 . S
N891 C893 1.356 . S
N891 H896 0.984 . S
N891 H897 0.985 . S
C892 C886 1.379 . S
C892 C889 1.363 . S
C892 N890 1.356 . S
C893 C887 1.363 . S
C893 C888 1.379 . S
C893 N891 1.356 . S
N894 C886 1.356 . S
N894 H900 0.984 . S
N894 H901 0.984 . S
N895 C888 1.356 . S
N895 H898 0.984 . S
N895 H899 0.985 . S
H896 N891 0.984 . S
H897 N891 0.985 . S
H898 N895 0.984 . S
H899 N895 0.985 . S
H900 N894 0.984 . S
H901 N894 0.984 . S
H902 N890 0.984 . S
H903 N890 0.985 . S
C473 C255 1.349 . S
C475 C321 1.337 . S
C493 C361 2.245 . S
C491 C294 2.301 . S
C511 C410 1.562 . S
C509 C177 1.537 . S
C529 C441 2.085 . S
C527 C216 2.086 . S
C547 C330 1.337 . S
C545 C99 1.364 . S
C563 C138 2.272 . S
C565 C370 2.244 1_554 S
C581 C21 1.515 . S
C583 C401 1.562 . S
C599 C60 2.117 1_556 S
C601 C450 2.086 1_655 S
C619 C331 1.933 . S
C617 C196 1.540 . S
C637 C371 1.812 . S
C635 C235 1.517 . S
C655 C407 0.843 . S
C653 C289 0.836 . S
C671 C157 1.614 . S
C673 C451 1.911 . S
C689 C40 1.557 . S
C691 C322 1.932 1_655 S
C709 C362 1.812 . S
C707 C79 1.529 . S
C727 C398 0.843 . S
C725 C133 0.837 . S
C743 C1 1.605 . S
C745 C442 1.911 . S
C761 C211 2.028 . S
C763 C327 2.180 . S
C779 C250 1.747 . S
C781 C367 1.775 . S
C799 C411 3.160 . S
C797 C274 2.753 . S
C817 C447 1.798 . S
C815 C172 1.719 . S
C833 C55 2.023 . S
C835 C318 2.180 . S
C853 C358 1.774 . S
C851 C94 1.746 . S
C871 C402 3.161 . S
C869 C118 2.745 . S
C887 C16 1.725 . S
C889 C438 1.798 . S
