# Generated by pormake.
# Topology anh, (6,3)-cn, num edge types: 1
# Building blocks:
#     Node 0, Type 0, BuildingBlock: VOLQOD_clean_sbu_1, # of connection points: 6
#     Node 1, Type 0, BuildingBlock: VOLQOD_clean_sbu_1, # of connection points: 6
#     Node 2, Type 0, BuildingBlock: VOLQOD_clean_sbu_1, # of connection points: 6
#     Node 3, Type 1, BuildingBlock: INOVEN_clean_linker_0, # of connection points: 3
#     Node 4, Type 1, BuildingBlock: INOVEN_clean_linker_0, # of connection points: 3
#     Node 5, Type 1, BuildingBlock: INOVEN_clean_linker_0, # of connection points: 3
#     Node 6, Type 1, BuildingBlock: INOVEN_clean_linker_0, # of connection points: 3
#     Node 7, Type 1, BuildingBlock: INOVEN_clean_linker_0, # of connection points: 3
#     Node 8, Type 1, BuildingBlock: INOVEN_clean_linker_0, # of connection points: 3
#     Edge 9, Type (0, 1), BuildingBlock: XIVTED_clean_linker_0, # of connection points: 2
#     Edge 10, Type (0, 1), BuildingBlock: XIVTED_clean_linker_0, # of connection points: 2
#     Edge 11, Type (0, 1), BuildingBlock: XIVTED_clean_linker_0, # of connection points: 2
#     Edge 12, Type (0, 1), BuildingBlock: XIVTED_clean_linker_0, # of connection points: 2
#     Edge 13, Type (0, 1), BuildingBlock: XIVTED_clean_linker_0, # of connection points: 2
#     Edge 14, Type (0, 1), BuildingBlock: XIVTED_clean_linker_0, # of connection points: 2
#     Edge 15, Type (0, 1), BuildingBlock: XIVTED_clean_linker_0, # of connection points: 2
#     Edge 16, Type (0, 1), BuildingBlock: XIVTED_clean_linker_0, # of connection points: 2
#     Edge 17, Type (0, 1), BuildingBlock: XIVTED_clean_linker_0, # of connection points: 2
#     Edge 18, Type (0, 1), BuildingBlock: XIVTED_clean_linker_0, # of connection points: 2
#     Edge 19, Type (0, 1), BuildingBlock: XIVTED_clean_linker_0, # of connection points: 2
#     Edge 20, Type (0, 1), BuildingBlock: XIVTED_clean_linker_0, # of connection points: 2
#     Edge 21, Type (0, 1), BuildingBlock: XIVTED_clean_linker_0, # of connection points: 2
#     Edge 22, Type (0, 1), BuildingBlock: XIVTED_clean_linker_0, # of connection points: 2
#     Edge 23, Type (0, 1), BuildingBlock: XIVTED_clean_linker_0, # of connection points: 2
#     Edge 24, Type (0, 1), BuildingBlock: XIVTED_clean_linker_0, # of connection points: 2
#     Edge 25, Type (0, 1), BuildingBlock: XIVTED_clean_linker_0, # of connection points: 2
#     Edge 26, Type (0, 1), BuildingBlock: XIVTED_clean_linker_0, # of connection points: 2
# Relax obj value: 0.155
# Max RMSD: 0.215
# Mean RMSD: 0.133
data_MOF--net-anh--node1-VOLQOD_clean_sbu_1--node2-INOVEN_clean_linker_0--edge1-XIVTED_clean_linker_0
_symmetry_space_group_name_H-M    P1
_symmetry_Int_Tables_number       1
_symmetry_cell_setting            triclinic
loop_
_symmetry_equiv_pos_as_xyz
'x, y, z'
_cell_length_a     29.853218
_cell_length_b     29.753008
_cell_length_c     56.953025
_cell_angle_alpha  92.427648
_cell_angle_beta   92.299887
_cell_angle_gamma 121.01121
loop_
_atom_site_label
_atom_site_type_symbol
_atom_site_fract_x
_atom_site_fract_y
_atom_site_fract_z
_atom_type_partial_charge
O0 O 0.0041 0.59038 0.20842 0.0
Zn1 Zn 0.00932 0.59706 0.17349 0.0
O2 O 0.02353 0.54462 0.15921 0.0
Zn3 Zn 0.9664 0.49667 0.13676 0.0
Zn4 Zn 0.03057 0.50328 0.18334 0.0
Zn5 Zn 0.0871 0.5801 0.14254 0.0
O6 O -0.01027 0.49617 0.10453 0.0
O7 O 0.07448 0.55652 0.10779 0.0
O8 O 0.94019 0.58619 0.16029 0.0
O9 O 0.91311 0.51726 0.13473 0.0
O10 O 0.92836 0.42305 0.14652 0.0
O11 O 0.97266 0.42711 0.17946 0.0
O12 O 0.10027 0.50782 0.18332 0.0
O13 O 0.06774 0.67118 0.16879 0.0
O14 O 0.14047 0.56559 0.1566 0.0
O15 O 0.11925 0.65812 0.14603 0.0
C16 C 0.01139 0.56227 0.22251 0.0
C17 C 0.03339 0.52216 0.09544 0.0
C18 C 0.93467 0.40118 0.16398 0.0
C19 C 0.90636 0.552 0.14485 0.0
C20 C 0.14045 0.53603 0.17211 0.0
C21 C 0.10842 0.68892 0.15717 0.0
O22 O 0.02342 0.52907 0.21519 0.0
O23 O 0.46344 0.05977 0.44158 0.0
Zn24 Zn 0.44958 0.05871 0.47596 0.0
O25 O 0.49578 0.04368 0.49472 0.0
Zn26 Zn 0.5371 0.1001 0.51857 0.0
Zn27 Zn 0.54274 0.03626 0.47432 0.0
Zn28 Zn 0.45493 0.98063 0.51112 0.0
O29 O 0.53584 0.07428 0.55058 0.0
O30 O 0.46413 -0.00508 0.54634 0.0
O31 O 0.45705 0.12758 0.48761 0.0
O32 O 0.50874 0.14768 0.52045 0.0
O33 O 0.61151 0.14425 0.51041 0.0
O34 O 0.6158 0.09982 0.4792 0.0
O35 O 0.54544 0.97174 0.48085 0.0
O36 O 0.3745 0.00079 0.47771 0.0
O37 O 0.48167 0.93219 0.50507 0.0
O38 O 0.37836 0.94477 0.50111 0.0
C39 C 0.49031 0.04566 0.42996 0.0
C40 C 0.50152 0.03256 0.55926 0.0
C41 C 0.63717 0.13944 0.4942 0.0
C42 C 0.47985 0.15621 0.5066 0.0
C43 C 0.51803 0.93385 0.49346 0.0
C44 C 0.35221 0.95812 0.48802 0.0
O45 O 0.52003 0.03249 0.44029 0.0
O46 O 0.55373 0.54595 0.77384 0.0
Zn47 Zn 0.53297 0.51812 0.80559 0.0
O48 O 0.5857 0.56451 0.83046 0.0
Zn49 Zn 0.55817 0.59789 0.8503 0.0
Zn50 Zn 0.64747 0.61726 0.81595 0.0
Zn51 Zn 0.60374 0.52431 0.85044 0.0
O52 O 0.56236 0.58592 0.88459 0.0
O53 O 0.57893 0.52137 0.88277 0.0
O54 O 0.46207 0.50736 0.81121 0.0
O55 O 0.48136 0.56354 0.84236 0.0
O56 O 0.59368 0.67515 0.84592 0.0
O57 O 0.65769 0.68902 0.82311 0.0
O58 O 0.71224 0.61759 0.82748 0.0
O59 O 0.526 0.44709 0.80445 0.0
O60 O 0.68158 0.55733 0.85386 0.0
O61 O 0.57289 0.45042 0.83649 0.0
C62 C 0.59821 0.57788 0.76647 0.0
C63 C 0.56648 0.55037 0.89432 0.0
C64 C 0.63314 0.70594 0.83481 0.0
C65 C 0.44845 0.52864 0.82695 0.0
C66 C 0.71934 0.59243 0.84328 0.0
C67 C 0.54328 0.42559 0.81803 0.0
O68 O 0.63877 0.60484 0.78057 0.0
H69 H 0.47205 0.04371 0.18523 0.0
H70 H 0.38933 0.99281 0.24831 0.0
H71 H 0.5563 0.09572 0.25325 0.0
N72 N 0.5669 0.09968 0.20657 0.0
N73 N 0.61014 0.11684 0.21769 0.0
C74 C 0.47181 0.04399 0.20426 0.0
C75 C 0.42435 0.01505 0.21502 0.0
C76 C 0.51946 0.07234 0.21791 0.0
C77 C 0.51961 0.07307 0.24259 0.0
C78 C 0.4727 0.04521 0.25365 0.0
C79 C 0.42526 0.0164 0.23977 0.0
H80 H 0.56711 0.54646 0.52458 0.0
H81 H 0.57864 0.49283 0.59245 0.0
H82 H 0.62975 0.65491 0.58623 0.0
N83 N 0.60303 0.64516 0.53962 0.0
N84 N 0.62218 0.69108 0.54829 0.0
C85 C 0.57957 0.55458 0.5432 0.0
C86 C 0.57083 0.51344 0.5572 0.0
C87 C 0.60127 0.60582 0.55344 0.0
C88 C 0.6148 0.61591 0.57787 0.0
C89 C 0.6067 0.57529 0.59191 0.0
C90 C 0.58565 0.52441 0.58145 0.0
H91 H 0.04261 0.53916 0.85426 0.0
H92 H 0.98554 0.5415 0.92242 0.0
H93 H 0.08823 0.48254 0.91332 0.0
N94 N 0.09829 0.49739 0.86702 0.0
N95 N 0.1146 0.46832 0.87311 0.0
C96 C 0.04015 0.53084 0.87266 0.0
C97 C 0.01041 0.54323 0.88715 0.0
C98 C 0.06733 0.50801 0.88183 0.0
C99 C 0.06615 0.49889 0.90591 0.0
C100 C 0.03714 0.51148 0.9206 0.0
C101 C 0.00872 0.53273 0.91105 0.0
H102 H 0.00213 0.60497 0.46311 0.0
H103 H 0.02007 0.66936 0.39517 0.0
H104 H 0.92175 0.5038 0.40082 0.0
N105 N 0.93565 0.50627 0.4477 0.0
N106 N 0.92015 0.46125 0.43868 0.0
C107 C -0.00769 0.60063 0.44432 0.0
C108 C 0.01619 0.64433 0.43054 0.0
C109 C 0.95816 0.55006 0.4337 0.0
C110 C 0.94758 0.54294 0.40914 0.0
C111 C 0.97061 0.58576 0.39516 0.0
C112 C 0.00289 0.63639 0.40608 0.0
H113 H 0.56663 0.08911 0.80022 0.0
H114 H 0.49893 0.08985 0.73191 0.0
H115 H 0.56648 0.99454 0.74103 0.0
N116 N 0.59045 0.01782 0.78772 0.0
N117 N 0.61576 -0.00131 0.77966 0.0
C118 C 0.55564 0.07509 0.78183 0.0
C119 C 0.53212 0.09531 0.76715 0.0
C120 C 0.56787 0.03863 0.77257 0.0
C121 C 0.55655 0.02219 0.74844 0.0
C122 C 0.53146 0.04047 0.73387 0.0
C123 C 0.51819 0.07581 0.74341 0.0
H124 H 0.52723 0.5119 0.13331 0.0
H125 H 0.58367 0.50822 0.06555 0.0
H126 H 0.43539 0.49813 0.07008 0.0
N127 N 0.43628 0.50211 0.11633 0.0
N128 N 0.44357 0.51741 0.13762 0.0
C129 C 0.5222 0.50988 0.11427 0.0
C130 C 0.56013 0.50981 0.10062 0.0
C131 C 0.47678 0.50503 0.10319 0.0
C132 C 0.47036 0.50164 0.07852 0.0
C133 C 0.50885 0.50282 0.06481 0.0
C134 C 0.55336 0.50659 0.07602 0.0
H135 H 0.24182 0.61566 0.17287 0.0
H136 H 0.34221 0.43887 0.1322 0.0
H137 H 0.14559 0.44878 0.17952 0.0
H138 H 0.44982 0.58644 0.17094 0.0
H139 H 0.26893 0.44031 0.14931 0.0
H140 H 0.31919 0.6073 0.17247 0.0
C141 C 0.23727 0.57743 0.17466 0.0
C142 C 0.18753 0.53271 0.17599 0.0
C143 C 0.30863 0.47181 0.15449 0.0
C144 C 0.27512 0.52278 0.17505 0.0
C145 C 0.35021 0.47116 0.14462 0.0
C146 C 0.40162 0.51318 0.15001 0.0
C147 C 0.31865 0.51548 0.16919 0.0
C148 C 0.41044 0.55376 0.16637 0.0
C149 C 0.28132 0.57275 0.1746 0.0
C150 C 0.18344 0.48409 0.17842 0.0
N151 N 0.36912 0.55478 0.17496 0.0
N152 N 0.22665 0.4801 0.17724 0.0
H153 H 0.69389 0.23255 0.52131 0.0
H154 H 0.8947 0.3659 0.42277 0.0
H155 H 0.70237 0.14763 0.45991 0.0
H156 H 0.88324 0.4524 0.48243 0.0
H157 H 0.83625 0.28355 0.44036 0.0
H158 H 0.7746 0.3107 0.51172 0.0
C159 C 0.71311 0.23001 0.50601 0.0
C160 C 0.69066 0.18365 0.49112 0.0
C161 C 0.84708 0.32047 0.44984 0.0
C162 C 0.78294 0.27322 0.47998 0.0
C163 C 0.88046 0.36726 0.43982 0.0
C164 C 0.89325 0.41541 0.45109 0.0
C165 C 0.82583 0.32205 0.4712 0.0
C166 C 0.87406 0.41583 0.47314 0.0
C167 C 0.75922 0.27475 0.50054 0.0
C168 C 0.71775 0.18265 0.47172 0.0
N169 N 0.84063 0.36965 0.48235 0.0
N170 N 0.76204 0.227 0.46653 0.0
H171 H 0.70752 0.78081 0.80891 0.0
H172 H 0.59053 0.96724 0.824 0.0
H173 H 0.59001 0.7569 0.85695 0.0
H174 H 0.6805 0.96816 0.76655 0.0
H175 H 0.6097 0.90636 0.84332 0.0
H176 H 0.71777 0.86531 0.80074 0.0
C177 C 0.68448 0.79364 0.81807 0.0
C178 C 0.64693 0.76107 0.83323 0.0
C179 C 0.62616 0.92072 0.82672 0.0
C180 C 0.65836 0.85769 0.82382 0.0
C181 C 0.61542 0.9556 0.81576 0.0
C182 C 0.63386 0.97213 0.79358 0.0
C183 C 0.65534 0.90247 0.81536 0.0
C184 C 0.66562 0.95584 0.78361 0.0
C185 C 0.69032 0.8419 0.81334 0.0
C186 C 0.61874 0.78023 0.84479 0.0
N187 N 0.67495 0.92139 0.79442 0.0
N188 N 0.62446 0.82696 0.83957 0.0
H189 H 0.86937 0.61141 0.16528 0.0
H190 H 0.59192 0.44114 0.09181 0.0
H191 H 0.82818 0.48508 0.11243 0.0
H192 H 0.63438 0.58376 0.13338 0.0
H193 H 0.67573 0.45141 0.10436 0.0
H194 H 0.78198 0.59914 0.15755 0.0
C195 C 0.84224 0.58144 0.15199 0.0
C196 C 0.85613 0.54917 0.13952 0.0
C197 C 0.66688 0.48047 0.11092 0.0
C198 C 0.75651 0.53452 0.13097 0.0
C199 C 0.61895 0.47438 0.10384 0.0
C200 C 0.60684 0.51195 0.11144 0.0
C201 C 0.70327 0.52474 0.12558 0.0
C202 C 0.64267 0.55406 0.12719 0.0
C203 C 0.79241 0.57432 0.1477 0.0
C204 C 0.8194 0.51084 0.12257 0.0
N205 N 0.68985 0.55976 0.1336 0.0
N206 N 0.77142 0.50456 0.1189 0.0
H207 H 0.29049 0.95438 0.45045 0.0
H208 H 0.03088 0.69031 0.47595 0.0
H209 H 0.28517 0.87666 0.51355 0.0
H210 H 0.10203 0.71865 0.40919 0.0
H211 H 0.10729 0.77327 0.49275 0.0
H212 H 0.20108 0.88339 0.43842 0.0
C213 C 0.27015 0.92308 0.46205 0.0
C214 C 0.29557 0.92083 0.48282 0.0
C215 C 0.10502 0.76121 0.47432 0.0
C216 C 0.19346 0.84033 0.46927 0.0
C217 C 0.0618 0.71374 0.4647 0.0
C218 C 0.05918 0.69684 0.44093 0.0
C219 C 0.14493 0.79252 0.45989 0.0
C220 C 0.10049 0.72993 0.42729 0.0
C221 C 0.21928 0.88267 0.45514 0.0
C222 C 0.2672 0.87932 0.49719 0.0
N223 N 0.14133 0.77604 0.43694 0.0
N224 N 0.21759 0.84025 0.49003 0.0
H225 H 0.50601 0.37063 0.77511 0.0
H226 H 0.50878 0.11626 0.8114 0.0
H227 H 0.55372 0.35822 0.84597 0.0
H228 H 0.54336 0.17732 0.74263 0.0
H229 H 0.50411 0.19314 0.82487 0.0
H230 H 0.49546 0.28556 0.76348 0.0
C231 C 0.51363 0.34975 0.7883 0.0
C232 C 0.53142 0.37183 0.81147 0.0
C233 C 0.51213 0.18899 0.80678 0.0
C234 C 0.51917 0.27456 0.79828 0.0
C235 C 0.51513 0.1454 0.79909 0.0
C236 C 0.52608 0.13974 0.77573 0.0
C237 C 0.5193 0.22655 0.7909 0.0
C238 C 0.53327 0.17869 0.76056 0.0
C239 C 0.50779 0.30136 0.78162 0.0
C240 C 0.54058 0.34288 0.82784 0.0
N241 N 0.52957 0.22018 0.76839 0.0
N242 N 0.53452 0.29566 0.8209 0.0
H243 H 0.56865 0.90055 0.46447 0.0
H244 H 0.65071 0.785 0.56697 0.0
H245 H 0.50407 0.88041 0.53242 0.0
H246 H 0.58481 0.68493 0.50277 0.0
H247 H 0.62885 0.8468 0.55047 0.0
H248 H 0.6017 0.84237 0.47473 0.0
C249 C 0.56108 0.88359 0.48138 0.0
C250 C 0.53343 0.89498 0.49761 0.0
C251 C 0.62033 0.81182 0.53986 0.0
C252 C 0.57237 0.83112 0.5095 0.0
C253 C 0.63298 0.77701 0.54915 0.0
C254 C 0.61901 0.73012 0.53632 0.0
C255 C 0.59435 0.79979 0.5174 0.0
C256 C 0.59577 0.72075 0.51327 0.0
C257 C 0.57991 0.85072 0.48714 0.0
C258 C 0.52475 0.87231 0.5193 0.0
N259 N 0.58365 0.75535 0.50451 0.0
N260 N 0.54488 0.8421 0.52476 0.0
H261 H 0.76517 0.60053 0.88651 0.0
H262 H 0.95572 0.51955 0.84393 0.0
H263 H 0.7915 0.60354 0.81255 0.0
H264 H -0.00494 0.61826 0.9084 0.0
H265 H 0.8946 0.54691 0.83132 0.0
H266 H 0.84752 0.60332 0.89531 0.0
C267 C 0.78886 0.60259 0.8722 0.0
C268 C 0.77193 0.60174 0.84882 0.0
C269 C 0.91746 0.56321 0.84802 0.0
C270 C 0.86483 0.60353 0.85861 0.0
C271 C 0.95242 0.54774 0.85524 0.0
C272 C 0.97971 0.56562 0.87754 0.0
C273 C 0.90913 0.59584 0.8634 0.0
C274 C 0.97345 0.6019 0.89146 0.0
C275 C 0.83577 0.60441 0.8772 0.0
C276 C 0.80369 0.60438 0.83081 0.0
N277 N 0.93792 0.61489 0.8844 0.0
N278 N 0.84829 0.60394 0.83602 0.0
H279 H 0.19427 0.74148 0.13172 0.0
H280 H 0.32513 0.99448 0.2224 0.0
H281 H 0.11265 0.76647 0.1869 0.0
H282 H 0.40973 0.95289 0.17511 0.0
H283 H 0.24268 0.92317 0.20298 0.0
H284 H 0.26783 0.83094 0.14048 0.0
C285 C 0.19139 0.76604 0.14544 0.0
C286 C 0.14765 0.74597 0.15896 0.0
C287 C 0.27934 0.9303 0.19663 0.0
C288 C 0.23217 0.84843 0.16923 0.0
C289 C 0.32643 0.97083 0.20775 0.0
C290 C 0.37454 0.97911 0.2007 0.0
C291 C 0.28037 0.89786 0.1783 0.0
C292 C 0.37377 0.94814 0.18121 0.0
C293 C 0.23352 0.81717 0.15045 0.0
C294 C 0.14585 0.78002 0.17623 0.0
N295 N 0.32747 0.90847 0.17092 0.0
N296 N 0.18798 0.82934 0.18116 0.0
H297 H 0.4736 0.19223 0.54995 0.0
H298 H 0.49038 0.42764 0.57504 0.0
H299 H 0.47924 0.22576 0.47684 0.0
H300 H 0.58759 0.47419 0.51615 0.0
H301 H 0.45241 0.33564 0.56107 0.0
H302 H 0.48242 0.27659 0.56083 0.0
C303 C 0.47548 0.21704 0.53616 0.0
C304 C 0.47568 0.20233 0.51251 0.0
C305 C 0.48209 0.36598 0.55123 0.0
C306 C 0.4859 0.29889 0.52474 0.0
C307 C 0.50378 0.4184 0.55917 0.0
C308 C 0.54336 0.45836 0.54712 0.0
C309 C 0.50038 0.35343 0.53118 0.0
C310 C 0.55771 0.44441 0.52612 0.0
C311 C 0.48009 0.26498 0.54234 0.0
C312 C 0.47854 0.2358 0.49526 0.0
N313 N 0.53664 0.39284 0.51893 0.0
N314 N 0.4848 0.28334 0.50178 0.0
H315 H 0.3996 0.49308 0.86641 0.0
H316 H 0.15688 0.51123 0.83217 0.0
H317 H 0.37182 0.51617 0.79429 0.0
H318 H 0.15425 0.41061 0.88501 0.0
H319 H 0.23271 0.51245 0.81633 0.0
H320 H 0.30856 0.46293 0.87307 0.0
C321 C 0.37392 0.49145 0.85195 0.0
C322 C 0.39279 0.50745 0.82989 0.0
C323 C 0.21459 0.48895 0.83097 0.0
C324 C 0.28903 0.4737 0.83736 0.0
C325 C 0.1715 0.48833 0.84004 0.0
C326 C 0.15022 0.46126 0.86016 0.0
C327 C 0.23661 0.46325 0.84245 0.0
C328 C 0.17022 0.43214 0.86963 0.0
C329 C 0.32197 0.47384 0.85567 0.0
C330 C 0.35827 0.50422 0.81157 0.0
N331 N 0.21309 0.43473 0.86102 0.0
N332 N 0.30791 0.48866 0.81584 0.0
H333 H 0.84801 0.33363 0.13483 0.0
H334 H 0.70399 0.15323 0.23899 0.0
H335 H 0.92483 0.34582 0.20273 0.0
H336 H 0.6258 0.14781 0.17277 0.0
H337 H 0.78865 0.21235 0.22331 0.0
H338 H 0.77056 0.25364 0.14547 0.0
C339 C 0.84902 0.31902 0.15182 0.0
C340 C 0.8927 0.34715 0.1681 0.0
C341 C 0.75307 0.19776 0.21208 0.0
C342 C 0.80376 0.25582 0.18048 0.0
C343 C 0.70499 0.16415 0.22103 0.0
C344 C 0.65837 0.14633 0.20726 0.0
C345 C 0.75428 0.21386 0.18916 0.0
C346 C 0.66104 0.16109 0.18404 0.0
C347 C 0.80463 0.27336 0.15791 0.0
C348 C 0.89186 0.32586 0.18972 0.0
N349 N 0.7083 0.19452 0.17579 0.0
N350 N 0.84775 0.28193 0.19543 0.0
H351 H 0.95216 0.45581 0.06369 0.0
H352 H 0.12248 0.54388 0.95142 0.0
H353 H 0.11874 0.56832 0.06871 0.0
H354 H 0.95378 0.46442 0.94776 0.0
H355 H 0.12334 0.54037 0.99438 0.0
H356 H 0.95407 0.44609 0.02117 0.0
C357 C -0.01071 0.47831 0.0559 0.0
C358 C 0.03532 0.51343 0.06983 0.0
C359 C 0.08616 0.52335 0.98413 0.0
C360 C 0.0376 0.50232 0.02099 0.0
C361 C 0.08563 0.52502 0.95967 0.0
C362 C 0.03798 0.5047 0.94615 0.0
C363 C 0.03867 0.50081 0.99503 0.0
C364 C -0.00866 0.48108 0.95763 0.0
C365 C -0.00974 0.47273 0.03157 0.0
C366 C 0.08224 0.54114 0.05866 0.0
N367 N -0.00714 0.47993 0.98143 0.0
N368 N 0.08214 0.53519 0.03484 0.0
H369 H 0.54703 0.02491 0.39945 0.0
H370 H 0.40773 0.05535 0.28327 0.0
H371 H 0.4265 0.06413 0.40108 0.0
H372 H 0.53962 0.03313 0.28317 0.0
H373 H 0.41072 0.05449 0.32628 0.0
H374 H 0.54182 0.0239 0.35663 0.0
C375 C 0.5194 0.03327 0.39083 0.0
C376 C 0.4872 0.0447 0.40394 0.0
C377 C 0.43904 0.04988 0.31683 0.0
C378 C 0.48103 0.04356 0.35477 0.0
C379 C 0.43717 0.05011 0.29231 0.0
C380 C 0.47365 0.04456 0.27967 0.0
C381 C 0.47744 0.04371 0.32876 0.0
C382 C 0.51125 0.03832 0.29224 0.0
C383 C 0.5165 0.03276 0.36633 0.0
C384 C 0.45218 0.05525 0.39172 0.0
N385 N 0.51212 0.03802 0.31607 0.0
N386 N 0.45001 0.05438 0.36781 0.0
H387 H 0.52321 0.56513 0.73349 0.0
H388 H 0.66602 0.55494 0.62252 0.0
H389 H 0.68337 0.60233 0.74155 0.0
H390 H 0.56097 0.61389 0.61982 0.0
H391 H 0.66841 0.56155 0.66584 0.0
H392 H 0.53041 0.57135 0.69093 0.0
C393 C 0.55987 0.57464 0.72627 0.0
C394 C 0.60277 0.58322 0.74096 0.0
C395 C 0.64547 0.57367 0.6557 0.0
C396 C 0.61093 0.58961 0.69248 0.0
C397 C 0.64405 0.56984 0.63112 0.0
C398 C 0.61349 0.58419 0.6178 0.0
C399 C 0.61491 0.59047 0.66678 0.0
C400 C 0.58536 0.60296 0.62959 0.0
C401 C 0.56403 0.57848 0.70208 0.0
C402 C 0.6495 0.59569 0.73077 0.0
N403 N 0.58612 0.60485 0.65345 0.0
N404 N 0.65219 0.59784 0.70704 0.0
H405 H 0.58901 0.08455 0.58949 0.0
H406 H 0.44109 0.00168 0.70569 0.0
H407 H 0.42351 0.96925 0.58702 0.0
H408 H 0.60428 0.05083 0.70391 0.0
H409 H 0.43249 0.9926 0.66245 0.0
H410 H 0.59502 0.07755 0.63194 0.0
C411 C 0.55394 0.05776 0.5979 0.0
C412 C 0.50562 0.02766 0.58479 0.0
C413 C 0.46992 0.00452 0.67156 0.0
C414 C 0.51222 0.01969 0.63327 0.0
C415 C 0.47482 0.00975 0.69613 0.0
C416 C 0.52344 0.02704 0.70821 0.0
C417 C 0.51428 0.01792 0.65912 0.0
C418 C 0.56607 0.03708 0.69516 0.0
C419 C 0.55749 0.05349 0.62206 0.0
C420 C 0.4615 0.99317 0.59652 0.0
N421 N 0.56073 0.03318 0.67126 0.0
N422 N 0.4657 0.99058 0.62021 0.0
H423 H 0.56844 0.47634 0.92044 0.0
H424 H 0.48534 0.56294 0.03784 0.0
H425 H 0.53493 0.60133 0.92464 0.0
H426 H 0.52417 0.44203 0.03293 0.0
H427 H 0.49374 0.57147 -0.00463 0.0
H428 H 0.54523 0.45879 0.96089 0.0
C429 C 0.55636 0.50026 0.92988 0.0
C430 C 0.55403 0.54066 0.91914 0.0
C431 C 0.49985 0.54269 0.00355 0.0
C432 C 0.52697 0.52044 0.96557 0.0
C433 C 0.49459 0.5375 0.02771 0.0
C434 C 0.50463 0.50214 0.03884 0.0
C435 C 0.51517 0.51219 0.99057 0.0
C436 C 0.51689 0.47034 0.02502 0.0
C437 C 0.54286 0.49004 0.95299 0.0
C438 C 0.53767 0.57003 0.93225 0.0
N439 N 0.52225 0.47644 0.00165 0.0
N440 N 0.52489 0.55943 0.95483 0.0
H441 H -0.01312 0.62905 0.24555 0.0
H442 H 0.97647 0.50956 0.36969 0.0
H443 H 0.01615 0.50348 0.25698 0.0
H444 H 0.95858 0.64321 0.36139 0.0
H445 H 0.98212 0.50188 0.32744 0.0
H446 H 0.97029 0.6317 0.28717 0.0
C447 C -0.01003 0.60215 0.25678 0.0
C448 C 0.00313 0.5661 0.24775 0.0
C449 C 0.97657 0.53271 0.33477 0.0
C450 C 0.98373 0.56866 0.29525 0.0
C451 C 0.97269 0.53674 0.35893 0.0
C452 C 0.96705 0.57714 0.36914 0.0
C453 C 0.97511 0.56948 0.32063 0.0
C454 C 0.96356 0.61187 0.35428 0.0
C455 C 0.98034 0.60361 0.28051 0.0
C456 C 0.00636 0.5321 0.26313 0.0
N457 N 0.96797 0.60745 0.33074 0.0
N458 N -0.00329 0.53423 0.28607 0.0
loop_
_geom_bond_atom_site_label_1
_geom_bond_atom_site_label_2
_geom_bond_distance
_geom_bond_site_symmetry_2
_ccdc_geom_bond_type
O0 Zn1 1.953 . S
O0 C16 1.225 . S
Zn1 O0 1.953 . S
Zn1 O2 1.949 . S
Zn1 O8 1.919 1_455 S
Zn1 O13 1.924 . S
O2 Zn1 1.949 . S
O2 Zn3 1.923 1_455 S
O2 Zn4 1.950 . S
O2 Zn5 1.945 . S
Zn3 O2 1.923 1_655 S
Zn3 O6 1.933 . S
Zn3 O9 1.941 . S
Zn3 O10 1.965 . S
Zn4 O2 1.950 . S
Zn4 O11 1.938 1_455 S
Zn4 O12 1.906 . S
Zn4 O22 1.953 . S
Zn5 O2 1.945 . S
Zn5 O7 1.932 . S
Zn5 O14 1.977 . S
Zn5 O15 1.910 . S
O6 Zn3 1.933 . S
O6 C17 1.226 1_655 S
O7 Zn5 1.932 . S
O7 C17 1.307 . S
O8 Zn1 1.919 1_655 S
O8 C19 1.253 . S
O9 Zn3 1.941 . S
O9 C19 1.283 . S
O10 Zn3 1.965 . S
O10 C18 1.303 . S
O11 Zn4 1.938 1_655 S
O11 C18 1.247 . S
O12 Zn4 1.906 . S
O12 C20 1.304 . S
O13 Zn1 1.924 . S
O13 C21 1.311 . S
O14 Zn5 1.977 . S
O14 C20 1.272 . S
O15 Zn5 1.910 . S
O15 C21 1.231 . S
C16 O0 1.225 . S
C16 O22 1.298 . S
C17 O6 1.226 1_455 S
C17 O7 1.307 . S
C18 O10 1.303 . S
C18 O11 1.247 . S
C19 O8 1.253 . S
C19 O9 1.283 . S
C20 O12 1.304 . S
C20 O14 1.272 . S
C21 O13 1.311 . S
C21 O15 1.231 . S
O22 Zn4 1.953 . S
O22 C16 1.298 . S
O23 Zn24 1.953 . S
O23 C39 1.225 . S
Zn24 O23 1.953 . S
Zn24 O25 1.949 . S
Zn24 O31 1.919 . S
Zn24 O36 1.924 . S
O25 Zn24 1.949 . S
O25 Zn26 1.923 . S
O25 Zn27 1.950 . S
O25 Zn28 1.945 1_545 S
Zn26 O25 1.923 . S
Zn26 O29 1.933 . S
Zn26 O32 1.941 . S
Zn26 O33 1.965 . S
Zn27 O25 1.950 . S
Zn27 O34 1.938 . S
Zn27 O35 1.906 1_545 S
Zn27 O45 1.953 . S
Zn28 O25 1.945 1_565 S
Zn28 O30 1.932 1_565 S
Zn28 O37 1.977 . S
Zn28 O38 1.910 . S
O29 Zn26 1.933 . S
O29 C40 1.226 . S
O30 Zn28 1.932 1_545 S
O30 C40 1.307 . S
O31 Zn24 1.919 . S
O31 C42 1.253 . S
O32 Zn26 1.941 . S
O32 C42 1.283 . S
O33 Zn26 1.965 . S
O33 C41 1.303 . S
O34 Zn27 1.938 . S
O34 C41 1.247 . S
O35 Zn27 1.906 1_565 S
O35 C43 1.304 . S
O36 Zn24 1.924 . S
O36 C44 1.311 1_545 S
O37 Zn28 1.977 . S
O37 C43 1.272 . S
O38 Zn28 1.910 . S
O38 C44 1.231 . S
C39 O23 1.225 . S
C39 O45 1.298 . S
C40 O29 1.226 . S
C40 O30 1.307 . S
C41 O33 1.303 . S
C41 O34 1.247 . S
C42 O31 1.253 . S
C42 O32 1.283 . S
C43 O35 1.304 . S
C43 O37 1.272 . S
C44 O36 1.311 1_565 S
C44 O38 1.231 . S
O45 Zn27 1.953 . S
O45 C39 1.298 . S
O46 Zn47 1.953 . S
O46 C62 1.225 . S
Zn47 O46 1.953 . S
Zn47 O48 1.949 . S
Zn47 O54 1.919 . S
Zn47 O59 1.924 . S
O48 Zn47 1.949 . S
O48 Zn49 1.923 . S
O48 Zn50 1.950 . S
O48 Zn51 1.945 . S
Zn49 O48 1.923 . S
Zn49 O52 1.933 . S
Zn49 O55 1.941 . S
Zn49 O56 1.965 . S
Zn50 O48 1.950 . S
Zn50 O57 1.938 . S
Zn50 O58 1.906 . S
Zn50 O68 1.953 . S
Zn51 O48 1.945 . S
Zn51 O53 1.932 . S
Zn51 O60 1.977 . S
Zn51 O61 1.910 . S
O52 Zn49 1.933 . S
O52 C63 1.226 . S
O53 Zn51 1.932 . S
O53 C63 1.307 . S
O54 Zn47 1.919 . S
O54 C65 1.253 . S
O55 Zn49 1.941 . S
O55 C65 1.283 . S
O56 Zn49 1.965 . S
O56 C64 1.303 . S
O57 Zn50 1.938 . S
O57 C64 1.247 . S
O58 Zn50 1.906 . S
O58 C66 1.304 . S
O59 Zn47 1.924 . S
O59 C67 1.311 . S
O60 Zn51 1.977 . S
O60 C66 1.272 . S
O61 Zn51 1.910 . S
O61 C67 1.231 . S
C62 O46 1.225 . S
C62 O68 1.298 . S
C63 O52 1.226 . S
C63 O53 1.307 . S
C64 O56 1.303 . S
C64 O57 1.247 . S
C65 O54 1.253 . S
C65 O55 1.283 . S
C66 O58 1.304 . S
C66 O60 1.272 . S
C67 O59 1.311 . S
C67 O61 1.231 . S
O68 Zn50 1.953 . S
O68 C62 1.298 . S
H69 C74 0.929 . S
H70 C79 0.931 1_565 S
H71 C77 0.930 . S
N72 N73 1.234 . S
N72 C76 1.453 . S
N73 N72 1.234 . S
C74 H69 0.929 . S
C74 C75 1.373 . S
C74 C76 1.368 . S
C75 C74 1.373 . S
C75 C79 1.397 . S
C76 N72 1.453 . S
C76 C74 1.368 . S
C76 C77 1.373 . S
C77 H71 0.930 . S
C77 C76 1.373 . S
C77 C78 1.371 . S
C78 C77 1.371 . S
C78 C79 1.383 . S
C79 H70 0.931 1_545 S
C79 C75 1.397 . S
C79 C78 1.383 . S
H80 C85 0.929 . S
H81 C90 0.931 . S
H82 C88 0.930 . S
N83 N84 1.234 . S
N83 C87 1.453 . S
N84 N83 1.234 . S
C85 H80 0.929 . S
C85 C86 1.373 . S
C85 C87 1.368 . S
C86 C85 1.373 . S
C86 C90 1.397 . S
C87 N83 1.453 . S
C87 C85 1.368 . S
C87 C88 1.373 . S
C88 H82 0.930 . S
C88 C87 1.373 . S
C88 C89 1.371 . S
C89 C88 1.371 . S
C89 C90 1.383 . S
C90 H81 0.931 . S
C90 C86 1.397 . S
C90 C89 1.383 . S
H91 C96 0.929 . S
H92 C101 0.931 1_655 S
H93 C99 0.930 . S
N94 N95 1.234 . S
N94 C98 1.453 . S
N95 N94 1.234 . S
C96 H91 0.929 . S
C96 C97 1.373 . S
C96 C98 1.368 . S
C97 C96 1.373 . S
C97 C101 1.397 . S
C98 N94 1.453 . S
C98 C96 1.368 . S
C98 C99 1.373 . S
C99 H93 0.930 . S
C99 C98 1.373 . S
C99 C100 1.371 . S
C100 C99 1.371 . S
C100 C101 1.383 . S
C101 H92 0.931 1_455 S
C101 C97 1.397 . S
C101 C100 1.383 . S
H102 C107 0.929 . S
H103 C112 0.931 . S
H104 C110 0.930 1_655 S
N105 N106 1.234 . S
N105 C109 1.453 1_655 S
N106 N105 1.234 . S
C107 H102 0.929 . S
C107 C108 1.373 . S
C107 C109 1.368 . S
C108 C107 1.373 . S
C108 C112 1.397 . S
C109 N105 1.453 1_455 S
C109 C107 1.368 . S
C109 C110 1.373 . S
C110 H104 0.930 1_455 S
C110 C109 1.373 . S
C110 C111 1.371 . S
C111 C110 1.371 . S
C111 C112 1.383 . S
C112 H103 0.931 . S
C112 C108 1.397 . S
C112 C111 1.383 . S
H113 C118 0.929 . S
H114 C123 0.931 . S
H115 C121 0.930 1_565 S
N116 N117 1.234 . S
N116 C120 1.453 1_565 S
N117 N116 1.234 . S
C118 H113 0.929 . S
C118 C119 1.373 . S
C118 C120 1.368 . S
C119 C118 1.373 . S
C119 C123 1.397 . S
C120 N116 1.453 1_545 S
C120 C118 1.368 . S
C120 C121 1.373 . S
C121 H115 0.930 1_545 S
C121 C120 1.373 . S
C121 C122 1.371 . S
C122 C121 1.371 . S
C122 C123 1.383 . S
C123 H114 0.931 . S
C123 C119 1.397 . S
C123 C122 1.383 . S
H124 C129 0.929 . S
H125 C134 0.931 . S
H126 C132 0.930 . S
N127 N128 1.234 . S
N127 C131 1.453 . S
N128 N127 1.234 . S
C129 H124 0.929 . S
C129 C130 1.373 . S
C129 C131 1.368 . S
C130 C129 1.373 . S
C130 C134 1.397 . S
C131 N127 1.453 . S
C131 C129 1.368 . S
C131 C132 1.373 . S
C132 H126 0.930 . S
C132 C131 1.373 . S
C132 C133 1.371 . S
C133 C132 1.371 . S
C133 C134 1.383 . S
C134 H125 0.931 . S
C134 C130 1.397 . S
C134 C133 1.383 . S
H135 C141 0.930 . S
H136 C145 0.930 . S
H137 C150 0.929 . S
H138 C148 0.929 . S
H139 C143 0.929 . S
H140 C149 0.929 . S
C141 H135 0.930 . S
C141 C142 1.367 . S
C141 C149 1.378 . S
C142 C141 1.367 . S
C142 C150 1.433 . S
C143 H139 0.929 . S
C143 C145 1.378 . S
C143 C147 1.350 . S
C144 C147 1.463 . S
C144 C149 1.350 . S
C144 N152 1.427 . S
C145 H136 0.930 . S
C145 C143 1.378 . S
C145 C146 1.367 . S
C146 C145 1.367 . S
C146 C148 1.433 . S
C147 C143 1.350 . S
C147 C144 1.463 . S
C147 N151 1.427 . S
C148 H138 0.929 . S
C148 C146 1.433 . S
C148 N151 1.384 . S
C149 H140 0.929 . S
C149 C141 1.378 . S
C149 C144 1.350 . S
C150 H137 0.929 . S
C150 C142 1.433 . S
C150 N152 1.384 . S
N151 C147 1.427 . S
N151 C148 1.384 . S
N152 C144 1.427 . S
N152 C150 1.384 . S
H153 C159 0.930 . S
H154 C163 0.930 . S
H155 C168 0.929 . S
H156 C166 0.929 . S
H157 C161 0.929 . S
H158 C167 0.929 . S
C159 H153 0.930 . S
C159 C160 1.367 . S
C159 C167 1.378 . S
C160 C159 1.367 . S
C160 C168 1.433 . S
C161 H157 0.929 . S
C161 C163 1.378 . S
C161 C165 1.350 . S
C162 C165 1.463 . S
C162 C167 1.350 . S
C162 N170 1.427 . S
C163 H154 0.930 . S
C163 C161 1.378 . S
C163 C164 1.367 . S
C164 C163 1.367 . S
C164 C166 1.433 . S
C165 C161 1.350 . S
C165 C162 1.463 . S
C165 N169 1.427 . S
C166 H156 0.929 . S
C166 C164 1.433 . S
C166 N169 1.384 . S
C167 H158 0.929 . S
C167 C159 1.378 . S
C167 C162 1.350 . S
C168 H155 0.929 . S
C168 C160 1.433 . S
C168 N170 1.384 . S
N169 C165 1.427 . S
N169 C166 1.384 . S
N170 C162 1.427 . S
N170 C168 1.384 . S
H171 C177 0.930 . S
H172 C181 0.930 . S
H173 C186 0.929 . S
H174 C184 0.929 . S
H175 C179 0.929 . S
H176 C185 0.929 . S
C177 H171 0.930 . S
C177 C178 1.367 . S
C177 C185 1.378 . S
C178 C177 1.367 . S
C178 C186 1.433 . S
C179 H175 0.929 . S
C179 C181 1.378 . S
C179 C183 1.350 . S
C180 C183 1.463 . S
C180 C185 1.350 . S
C180 N188 1.427 . S
C181 H172 0.930 . S
C181 C179 1.378 . S
C181 C182 1.367 . S
C182 C181 1.367 . S
C182 C184 1.433 . S
C183 C179 1.350 . S
C183 C180 1.463 . S
C183 N187 1.427 . S
C184 H174 0.929 . S
C184 C182 1.433 . S
C184 N187 1.384 . S
C185 H176 0.929 . S
C185 C177 1.378 . S
C185 C180 1.350 . S
C186 H173 0.929 . S
C186 C178 1.433 . S
C186 N188 1.384 . S
N187 C183 1.427 . S
N187 C184 1.384 . S
N188 C180 1.427 . S
N188 C186 1.384 . S
H189 C195 0.930 . S
H190 C199 0.930 . S
H191 C204 0.929 . S
H192 C202 0.929 . S
H193 C197 0.929 . S
H194 C203 0.929 . S
C195 H189 0.930 . S
C195 C196 1.367 . S
C195 C203 1.378 . S
C196 C195 1.367 . S
C196 C204 1.433 . S
C197 H193 0.929 . S
C197 C199 1.378 . S
C197 C201 1.350 . S
C198 C201 1.463 . S
C198 C203 1.350 . S
C198 N206 1.427 . S
C199 H190 0.930 . S
C199 C197 1.378 . S
C199 C200 1.367 . S
C200 C199 1.367 . S
C200 C202 1.433 . S
C201 C197 1.350 . S
C201 C198 1.463 . S
C201 N205 1.427 . S
C202 H192 0.929 . S
C202 C200 1.433 . S
C202 N205 1.384 . S
C203 H194 0.929 . S
C203 C195 1.378 . S
C203 C198 1.350 . S
C204 H191 0.929 . S
C204 C196 1.433 . S
C204 N206 1.384 . S
N205 C201 1.427 . S
N205 C202 1.384 . S
N206 C198 1.427 . S
N206 C204 1.384 . S
H207 C213 0.930 . S
H208 C217 0.930 . S
H209 C222 0.929 . S
H210 C220 0.929 . S
H211 C215 0.929 . S
H212 C221 0.929 . S
C213 H207 0.930 . S
C213 C214 1.367 . S
C213 C221 1.378 . S
C214 C213 1.367 . S
C214 C222 1.433 . S
C215 H211 0.929 . S
C215 C217 1.378 . S
C215 C219 1.350 . S
C216 C219 1.463 . S
C216 C221 1.350 . S
C216 N224 1.427 . S
C217 H208 0.930 . S
C217 C215 1.378 . S
C217 C218 1.367 . S
C218 C217 1.367 . S
C218 C220 1.433 . S
C219 C215 1.350 . S
C219 C216 1.463 . S
C219 N223 1.427 . S
C220 H210 0.929 . S
C220 C218 1.433 . S
C220 N223 1.384 . S
C221 H212 0.929 . S
C221 C213 1.378 . S
C221 C216 1.350 . S
C222 H209 0.929 . S
C222 C214 1.433 . S
C222 N224 1.384 . S
N223 C219 1.427 . S
N223 C220 1.384 . S
N224 C216 1.427 . S
N224 C222 1.384 . S
H225 C231 0.930 . S
H226 C235 0.930 . S
H227 C240 0.929 . S
H228 C238 0.929 . S
H229 C233 0.929 . S
H230 C239 0.929 . S
C231 H225 0.930 . S
C231 C232 1.367 . S
C231 C239 1.378 . S
C232 C231 1.367 . S
C232 C240 1.433 . S
C233 H229 0.929 . S
C233 C235 1.378 . S
C233 C237 1.350 . S
C234 C237 1.463 . S
C234 C239 1.350 . S
C234 N242 1.427 . S
C235 H226 0.930 . S
C235 C233 1.378 . S
C235 C236 1.367 . S
C236 C235 1.367 . S
C236 C238 1.433 . S
C237 C233 1.350 . S
C237 C234 1.463 . S
C237 N241 1.427 . S
C238 H228 0.929 . S
C238 C236 1.433 . S
C238 N241 1.384 . S
C239 H230 0.929 . S
C239 C231 1.378 . S
C239 C234 1.350 . S
C240 H227 0.929 . S
C240 C232 1.433 . S
C240 N242 1.384 . S
N241 C237 1.427 . S
N241 C238 1.384 . S
N242 C234 1.427 . S
N242 C240 1.384 . S
H243 C249 0.930 . S
H244 C253 0.930 . S
H245 C258 0.929 . S
H246 C256 0.929 . S
H247 C251 0.929 . S
H248 C257 0.929 . S
C249 H243 0.930 . S
C249 C250 1.367 . S
C249 C257 1.378 . S
C250 C249 1.367 . S
C250 C258 1.433 . S
C251 H247 0.929 . S
C251 C253 1.378 . S
C251 C255 1.350 . S
C252 C255 1.463 . S
C252 C257 1.350 . S
C252 N260 1.427 . S
C253 H244 0.930 . S
C253 C251 1.378 . S
C253 C254 1.367 . S
C254 C253 1.367 . S
C254 C256 1.433 . S
C255 C251 1.350 . S
C255 C252 1.463 . S
C255 N259 1.427 . S
C256 H246 0.929 . S
C256 C254 1.433 . S
C256 N259 1.384 . S
C257 H248 0.929 . S
C257 C249 1.378 . S
C257 C252 1.350 . S
C258 H245 0.929 . S
C258 C250 1.433 . S
C258 N260 1.384 . S
N259 C255 1.427 . S
N259 C256 1.384 . S
N260 C252 1.427 . S
N260 C258 1.384 . S
H261 C267 0.930 . S
H262 C271 0.930 . S
H263 C276 0.929 . S
H264 C274 0.929 . S
H265 C269 0.929 . S
H266 C275 0.929 . S
C267 H261 0.930 . S
C267 C268 1.367 . S
C267 C275 1.378 . S
C268 C267 1.367 . S
C268 C276 1.433 . S
C269 H265 0.929 . S
C269 C271 1.378 . S
C269 C273 1.350 . S
C270 C273 1.463 . S
C270 C275 1.350 . S
C270 N278 1.427 . S
C271 H262 0.930 . S
C271 C269 1.378 . S
C271 C272 1.367 . S
C272 C271 1.367 . S
C272 C274 1.433 . S
C273 C269 1.350 . S
C273 C270 1.463 . S
C273 N277 1.427 . S
C274 H264 0.929 . S
C274 C272 1.433 . S
C274 N277 1.384 . S
C275 H266 0.929 . S
C275 C267 1.378 . S
C275 C270 1.350 . S
C276 H263 0.929 . S
C276 C268 1.433 . S
C276 N278 1.384 . S
N277 C273 1.427 . S
N277 C274 1.384 . S
N278 C270 1.427 . S
N278 C276 1.384 . S
H279 C285 0.930 . S
H280 C289 0.930 . S
H281 C294 0.929 . S
H282 C292 0.929 . S
H283 C287 0.929 . S
H284 C293 0.929 . S
C285 H279 0.930 . S
C285 C286 1.367 . S
C285 C293 1.378 . S
C286 C285 1.367 . S
C286 C294 1.433 . S
C287 H283 0.929 . S
C287 C289 1.378 . S
C287 C291 1.350 . S
C288 C291 1.463 . S
C288 C293 1.350 . S
C288 N296 1.427 . S
C289 H280 0.930 . S
C289 C287 1.378 . S
C289 C290 1.367 . S
C290 C289 1.367 . S
C290 C292 1.433 . S
C291 C287 1.350 . S
C291 C288 1.463 . S
C291 N295 1.427 . S
C292 H282 0.929 . S
C292 C290 1.433 . S
C292 N295 1.384 . S
C293 H284 0.929 . S
C293 C285 1.378 . S
C293 C288 1.350 . S
C294 H281 0.929 . S
C294 C286 1.433 . S
C294 N296 1.384 . S
N295 C291 1.427 . S
N295 C292 1.384 . S
N296 C288 1.427 . S
N296 C294 1.384 . S
H297 C303 0.930 . S
H298 C307 0.930 . S
H299 C312 0.929 . S
H300 C310 0.929 . S
H301 C305 0.929 . S
H302 C311 0.929 . S
C303 H297 0.930 . S
C303 C304 1.367 . S
C303 C311 1.378 . S
C304 C303 1.367 . S
C304 C312 1.433 . S
C305 H301 0.929 . S
C305 C307 1.378 . S
C305 C309 1.350 . S
C306 C309 1.463 . S
C306 C311 1.350 . S
C306 N314 1.427 . S
C307 H298 0.930 . S
C307 C305 1.378 . S
C307 C308 1.367 . S
C308 C307 1.367 . S
C308 C310 1.433 . S
C309 C305 1.350 . S
C309 C306 1.463 . S
C309 N313 1.427 . S
C310 H300 0.929 . S
C310 C308 1.433 . S
C310 N313 1.384 . S
C311 H302 0.929 . S
C311 C303 1.378 . S
C311 C306 1.350 . S
C312 H299 0.929 . S
C312 C304 1.433 . S
C312 N314 1.384 . S
N313 C309 1.427 . S
N313 C310 1.384 . S
N314 C306 1.427 . S
N314 C312 1.384 . S
H315 C321 0.930 . S
H316 C325 0.930 . S
H317 C330 0.929 . S
H318 C328 0.929 . S
H319 C323 0.929 . S
H320 C329 0.929 . S
C321 H315 0.930 . S
C321 C322 1.367 . S
C321 C329 1.378 . S
C322 C321 1.367 . S
C322 C330 1.433 . S
C323 H319 0.929 . S
C323 C325 1.378 . S
C323 C327 1.350 . S
C324 C327 1.463 . S
C324 C329 1.350 . S
C324 N332 1.427 . S
C325 H316 0.930 . S
C325 C323 1.378 . S
C325 C326 1.367 . S
C326 C325 1.367 . S
C326 C328 1.433 . S
C327 C323 1.350 . S
C327 C324 1.463 . S
C327 N331 1.427 . S
C328 H318 0.929 . S
C328 C326 1.433 . S
C328 N331 1.384 . S
C329 H320 0.929 . S
C329 C321 1.378 . S
C329 C324 1.350 . S
C330 H317 0.929 . S
C330 C322 1.433 . S
C330 N332 1.384 . S
N331 C327 1.427 . S
N331 C328 1.384 . S
N332 C324 1.427 . S
N332 C330 1.384 . S
H333 C339 0.930 . S
H334 C343 0.930 . S
H335 C348 0.929 . S
H336 C346 0.929 . S
H337 C341 0.929 . S
H338 C347 0.929 . S
C339 H333 0.930 . S
C339 C340 1.367 . S
C339 C347 1.378 . S
C340 C339 1.367 . S
C340 C348 1.433 . S
C341 H337 0.929 . S
C341 C343 1.378 . S
C341 C345 1.350 . S
C342 C345 1.463 . S
C342 C347 1.350 . S
C342 N350 1.427 . S
C343 H334 0.930 . S
C343 C341 1.378 . S
C343 C344 1.367 . S
C344 C343 1.367 . S
C344 C346 1.433 . S
C345 C341 1.350 . S
C345 C342 1.463 . S
C345 N349 1.427 . S
C346 H336 0.929 . S
C346 C344 1.433 . S
C346 N349 1.384 . S
C347 H338 0.929 . S
C347 C339 1.378 . S
C347 C342 1.350 . S
C348 H335 0.929 . S
C348 C340 1.433 . S
C348 N350 1.384 . S
N349 C345 1.427 . S
N349 C346 1.384 . S
N350 C342 1.427 . S
N350 C348 1.384 . S
H351 C357 0.930 . S
H352 C361 0.930 . S
H353 C366 0.929 . S
H354 C364 0.929 1_655 S
H355 C359 0.929 1_554 S
H356 C365 0.929 . S
C357 H351 0.930 . S
C357 C358 1.367 1_655 S
C357 C365 1.378 . S
C358 C357 1.367 1_455 S
C358 C366 1.433 . S
C359 H355 0.929 1_556 S
C359 C361 1.378 . S
C359 C363 1.350 1_556 S
C360 C363 1.463 . S
C360 C365 1.350 1_455 S
C360 N368 1.427 . S
C361 H352 0.930 . S
C361 C359 1.378 . S
C361 C362 1.367 . S
C362 C361 1.367 . S
C362 C364 1.433 . S
C363 C359 1.350 1_554 S
C363 C360 1.463 . S
C363 N367 1.427 1_554 S
C364 H354 0.929 1_455 S
C364 C362 1.433 . S
C364 N367 1.384 . S
C365 H356 0.929 . S
C365 C357 1.378 . S
C365 C360 1.350 1_655 S
C366 H353 0.929 . S
C366 C358 1.433 . S
C366 N368 1.384 . S
N367 C363 1.427 1_556 S
N367 C364 1.384 . S
N368 C360 1.427 . S
N368 C366 1.384 . S
H369 C375 0.930 . S
H370 C379 0.930 . S
H371 C384 0.929 . S
H372 C382 0.929 . S
H373 C377 0.929 . S
H374 C383 0.929 . S
C375 H369 0.930 . S
C375 C376 1.367 . S
C375 C383 1.378 . S
C376 C375 1.367 . S
C376 C384 1.433 . S
C377 H373 0.929 . S
C377 C379 1.378 . S
C377 C381 1.350 . S
C378 C381 1.463 . S
C378 C383 1.350 . S
C378 N386 1.427 . S
C379 H370 0.930 . S
C379 C377 1.378 . S
C379 C380 1.367 . S
C380 C379 1.367 . S
C380 C382 1.433 . S
C381 C377 1.350 . S
C381 C378 1.463 . S
C381 N385 1.427 . S
C382 H372 0.929 . S
C382 C380 1.433 . S
C382 N385 1.384 . S
C383 H374 0.929 . S
C383 C375 1.378 . S
C383 C378 1.350 . S
C384 H371 0.929 . S
C384 C376 1.433 . S
C384 N386 1.384 . S
N385 C381 1.427 . S
N385 C382 1.384 . S
N386 C378 1.427 . S
N386 C384 1.384 . S
H387 C393 0.930 . S
H388 C397 0.930 . S
H389 C402 0.929 . S
H390 C400 0.929 . S
H391 C395 0.929 . S
H392 C401 0.929 . S
C393 H387 0.930 . S
C393 C394 1.367 . S
C393 C401 1.378 . S
C394 C393 1.367 . S
C394 C402 1.433 . S
C395 H391 0.929 . S
C395 C397 1.378 . S
C395 C399 1.350 . S
C396 C399 1.463 . S
C396 C401 1.350 . S
C396 N404 1.427 . S
C397 H388 0.930 . S
C397 C395 1.378 . S
C397 C398 1.367 . S
C398 C397 1.367 . S
C398 C400 1.433 . S
C399 C395 1.350 . S
C399 C396 1.463 . S
C399 N403 1.427 . S
C400 H390 0.929 . S
C400 C398 1.433 . S
C400 N403 1.384 . S
C401 H392 0.929 . S
C401 C393 1.378 . S
C401 C396 1.350 . S
C402 H389 0.929 . S
C402 C394 1.433 . S
C402 N404 1.384 . S
N403 C399 1.427 . S
N403 C400 1.384 . S
N404 C396 1.427 . S
N404 C402 1.384 . S
H405 C411 0.930 . S
H406 C415 0.930 . S
H407 C420 0.929 . S
H408 C418 0.929 . S
H409 C413 0.929 . S
H410 C419 0.929 . S
C411 H405 0.930 . S
C411 C412 1.367 . S
C411 C419 1.378 . S
C412 C411 1.367 . S
C412 C420 1.433 . S
C413 H409 0.929 . S
C413 C415 1.378 . S
C413 C417 1.350 . S
C414 C417 1.463 . S
C414 C419 1.350 . S
C414 N422 1.427 . S
C415 H406 0.930 . S
C415 C413 1.378 . S
C415 C416 1.367 . S
C416 C415 1.367 . S
C416 C418 1.433 . S
C417 C413 1.350 . S
C417 C414 1.463 . S
C417 N421 1.427 . S
C418 H408 0.929 . S
C418 C416 1.433 . S
C418 N421 1.384 . S
C419 H410 0.929 . S
C419 C411 1.378 . S
C419 C414 1.350 . S
C420 H407 0.929 . S
C420 C412 1.433 . S
C420 N422 1.384 . S
N421 C417 1.427 . S
N421 C418 1.384 . S
N422 C414 1.427 . S
N422 C420 1.384 . S
H423 C429 0.930 . S
H424 C433 0.930 . S
H425 C438 0.929 . S
H426 C436 0.929 . S
H427 C431 0.947 . S
H428 C437 0.929 . S
C429 H423 0.930 . S
C429 C430 1.367 . S
C429 C437 1.378 . S
C430 C429 1.367 . S
C430 C438 1.433 . S
C431 H427 0.947 . S
C431 C433 1.378 . S
C431 C435 1.350 1_554 S
C432 C435 1.463 . S
C432 C437 1.350 . S
C432 N440 1.427 . S
C433 H424 0.930 . S
C433 C431 1.378 . S
C433 C434 1.367 . S
C434 C433 1.367 . S
C434 C436 1.433 . S
C435 C431 1.350 1_556 S
C435 C432 1.463 . S
C435 N439 1.427 1_556 S
C436 H426 0.929 . S
C436 C434 1.433 . S
C436 N439 1.384 . S
C437 H428 0.929 . S
C437 C429 1.378 . S
C437 C432 1.350 . S
C438 H425 0.929 . S
C438 C430 1.433 . S
C438 N440 1.384 . S
N439 C435 1.427 1_554 S
N439 C436 1.384 . S
N440 C432 1.427 . S
N440 C438 1.384 . S
H441 C447 0.930 1_655 S
H442 C451 0.930 . S
H443 C456 0.929 . S
H444 C454 0.929 . S
H445 C449 0.929 . S
H446 C455 0.929 1_655 S
C447 H441 0.930 1_455 S
C447 C448 1.367 . S
C447 C455 1.378 . S
C448 C447 1.367 . S
C448 C456 1.433 . S
C449 H445 0.929 . S
C449 C451 1.378 . S
C449 C453 1.350 . S
C450 C453 1.463 . S
C450 C455 1.350 . S
C450 N458 1.427 . S
C451 H442 0.930 . S
C451 C449 1.378 . S
C451 C452 1.367 . S
C452 C451 1.367 . S
C452 C454 1.433 1_455 S
C453 C449 1.350 . S
C453 C450 1.463 . S
C453 N457 1.427 1_455 S
C454 H444 0.929 . S
C454 C452 1.433 1_655 S
C454 N457 1.384 . S
C455 H446 0.929 1_455 S
C455 C447 1.378 . S
C455 C450 1.350 . S
C456 H443 0.929 . S
C456 C448 1.433 . S
C456 N458 1.384 . S
N457 C453 1.427 1_655 S
N457 C454 1.384 . S
N458 C450 1.427 . S
N458 C456 1.384 . S
C142 C20 1.275 . S
C146 N128 1.288 . S
C160 C41 1.313 . S
C164 N106 1.288 . S
C178 C64 1.338 . S
C182 N117 1.320 . S
C196 C19 1.270 . S
C200 C130 1.330 . S
C218 C108 1.294 . S
C214 C44 1.280 . S
C236 C119 1.253 . S
C232 C67 1.245 . S
C250 C43 1.279 . S
C254 N84 1.281 . S
C268 C66 1.202 . S
C272 C97 1.240 1_655 S
C286 C21 1.277 . S
C290 C75 1.289 1_565 S
C308 C86 1.313 . S
C304 C42 1.246 . S
C326 N95 1.322 . S
C322 C65 1.297 . S
C340 C18 1.315 . S
C344 N73 1.290 . S
C362 C100 1.516 . S
C358 C17 1.516 . S
C376 C39 1.524 . S
C380 C78 1.516 . S
C394 C62 1.527 . S
C398 C89 1.519 . S
C416 C122 1.504 . S
C412 C40 1.503 . S
C434 C133 1.512 . S
C430 C63 1.519 . S
C448 C16 1.523 . S
C452 C111 1.515 . S
