# Generated by pormake.
# Topology pyr, (3,6)-cn, num edge types: 1
# Building blocks:
#     Node 0, Type 0, BuildingBlock: PAMTOO_clean_linker_0, # of connection points: 3
#     Node 1, Type 0, BuildingBlock: PAMTOO_clean_linker_0, # of connection points: 3
#     Node 2, Type 0, BuildingBlock: PAMTOO_clean_linker_0, # of connection points: 3
#     Node 3, Type 0, BuildingBlock: PAMTOO_clean_linker_0, # of connection points: 3
#     Node 4, Type 0, BuildingBlock: PAMTOO_clean_linker_0, # of connection points: 3
#     Node 5, Type 0, BuildingBlock: PAMTOO_clean_linker_0, # of connection points: 3
#     Node 6, Type 0, BuildingBlock: PAMTOO_clean_linker_0, # of connection points: 3
#     Node 7, Type 0, BuildingBlock: PAMTOO_clean_linker_0, # of connection points: 3
#     Node 8, Type 1, BuildingBlock: GEDQOX_clean_sbu_0, # of connection points: 6
#     Node 9, Type 1, BuildingBlock: GEDQOX_clean_sbu_0, # of connection points: 6
#     Node 10, Type 1, BuildingBlock: GEDQOX_clean_sbu_0, # of connection points: 6
#     Node 11, Type 1, BuildingBlock: GEDQOX_clean_sbu_0, # of connection points: 6
#     Edge 12, Type (0, 1), BuildingBlock: AJUNOK_clean_linker_0, # of connection points: 2
#     Edge 13, Type (0, 1), BuildingBlock: AJUNOK_clean_linker_0, # of connection points: 2
#     Edge 14, Type (0, 1), BuildingBlock: AJUNOK_clean_linker_0, # of connection points: 2
#     Edge 15, Type (0, 1), BuildingBlock: AJUNOK_clean_linker_0, # of connection points: 2
#     Edge 16, Type (0, 1), BuildingBlock: AJUNOK_clean_linker_0, # of connection points: 2
#     Edge 17, Type (0, 1), BuildingBlock: AJUNOK_clean_linker_0, # of connection points: 2
#     Edge 18, Type (0, 1), BuildingBlock: AJUNOK_clean_linker_0, # of connection points: 2
#     Edge 19, Type (0, 1), BuildingBlock: AJUNOK_clean_linker_0, # of connection points: 2
#     Edge 20, Type (0, 1), BuildingBlock: AJUNOK_clean_linker_0, # of connection points: 2
#     Edge 21, Type (0, 1), BuildingBlock: AJUNOK_clean_linker_0, # of connection points: 2
#     Edge 22, Type (0, 1), BuildingBlock: AJUNOK_clean_linker_0, # of connection points: 2
#     Edge 23, Type (0, 1), BuildingBlock: AJUNOK_clean_linker_0, # of connection points: 2
#     Edge 24, Type (0, 1), BuildingBlock: AJUNOK_clean_linker_0, # of connection points: 2
#     Edge 25, Type (0, 1), BuildingBlock: AJUNOK_clean_linker_0, # of connection points: 2
#     Edge 26, Type (0, 1), BuildingBlock: AJUNOK_clean_linker_0, # of connection points: 2
#     Edge 27, Type (0, 1), BuildingBlock: AJUNOK_clean_linker_0, # of connection points: 2
#     Edge 28, Type (0, 1), BuildingBlock: AJUNOK_clean_linker_0, # of connection points: 2
#     Edge 29, Type (0, 1), BuildingBlock: AJUNOK_clean_linker_0, # of connection points: 2
#     Edge 30, Type (0, 1), BuildingBlock: AJUNOK_clean_linker_0, # of connection points: 2
#     Edge 31, Type (0, 1), BuildingBlock: AJUNOK_clean_linker_0, # of connection points: 2
#     Edge 32, Type (0, 1), BuildingBlock: AJUNOK_clean_linker_0, # of connection points: 2
#     Edge 33, Type (0, 1), BuildingBlock: AJUNOK_clean_linker_0, # of connection points: 2
#     Edge 34, Type (0, 1), BuildingBlock: AJUNOK_clean_linker_0, # of connection points: 2
#     Edge 35, Type (0, 1), BuildingBlock: AJUNOK_clean_linker_0, # of connection points: 2
# Relax obj value: 0.233
# Max RMSD: 0.237
# Mean RMSD: 0.156
data_MOF--net-pyr--node1-GEDQOX_clean_sbu_0--node2-PAMTOO_clean_linker_0--edge1-AJUNOK_clean_linker_0
_symmetry_space_group_name_H-M    P1
_symmetry_Int_Tables_number       1
_symmetry_cell_setting            triclinic
loop_
_symmetry_equiv_pos_as_xyz
'x, y, z'
_cell_length_a     29.081553
_cell_length_b     29.435631
_cell_length_c     25.933287
_cell_angle_alpha  88.890786
_cell_angle_beta   93.200029
_cell_angle_gamma 90.443883
loop_
_atom_site_label
_atom_site_type_symbol
_atom_site_fract_x
_atom_site_fract_y
_atom_site_fract_z
_atom_type_partial_charge
H0 H 0.14463 0.24529 0.25851 0.0
H1 H 0.25486 0.14741 0.26456 0.0
H2 H 0.25483 0.25774 0.15261 0.0
H3 H 0.29191 0.15737 0.11522 0.0
C4 C 0.31372 0.14989 0.1508 0.0
O5 O 0.30339 0.18412 0.1876 0.0
H6 H 0.30051 0.11696 0.16572 0.0
C7 C 0.17683 0.23411 0.24468 0.0
C8 C 0.19665 0.25965 0.20264 0.0
C9 C 0.19616 0.19312 0.26871 0.0
C10 C 0.23783 0.17676 0.24686 0.0
C11 C 0.25948 0.19856 0.20373 0.0
C12 C 0.23793 0.23991 0.18317 0.0
H13 H 0.38958 0.89636 0.78353 0.0
H14 H 0.42605 0.78693 0.68702 0.0
H15 H 0.51969 0.82812 0.81113 0.0
H16 H 0.56933 0.79329 0.71777 0.0
C17 C 0.53761 0.77828 0.69893 0.0
O18 O 0.50565 0.77103 0.7357 0.0
H19 H 0.52438 0.80266 0.66832 0.0
C20 C 0.41378 0.87046 0.77392 0.0
C21 C 0.45598 0.86602 0.80276 0.0
C22 C 0.40318 0.84246 0.73165 0.0
C23 C 0.43418 0.80874 0.7194 0.0
C24 C 0.47587 0.80342 0.74831 0.0
C25 C 0.48678 0.83195 0.78983 0.0
H26 H 0.8359 0.39142 0.91263 0.0
H27 H 0.78775 0.3843 0.75299 0.0
H28 H 0.91087 0.45913 0.79462 0.0
H29 H 0.85667 0.47293 0.65382 0.0
C30 C 0.83961 0.47069 0.69104 0.0
O31 O 0.85505 0.43214 0.71757 0.0
H32 H 0.85066 0.50134 0.71312 0.0
C33 C 0.83863 0.40181 0.87256 0.0
C34 C 0.87619 0.42856 0.85853 0.0
C35 C 0.80677 0.38544 0.83458 0.0
C36 C 0.8118 0.39732 0.7826 0.0
C37 C 0.84883 0.42425 0.76824 0.0
C38 C 0.88134 0.4395 0.80611 0.0
H39 H 0.87247 0.88324 0.41466 0.0
H40 H 0.82786 0.82633 0.26874 0.0
H41 H 0.90785 0.94927 0.27221 0.0
H42 H 0.9362 0.88866 0.19862 0.0
C43 C 0.90389 0.86975 0.188 0.0
O44 O 0.86761 0.88787 0.21287 0.0
H45 H 0.89736 0.87531 0.14574 0.0
C46 C 0.87094 0.88491 0.3728 0.0
C47 C 0.89247 0.92111 0.34717 0.0
C48 C 0.84773 0.85056 0.34488 0.0
C49 C 0.84495 0.85308 0.29085 0.0
C50 C 0.86674 0.8885 0.26488 0.0
C51 C 0.89 0.92277 0.29287 0.0
H52 H 0.84727 0.98111 0.83351 0.0
H53 H 0.85054 0.87525 0.95214 0.0
H54 H 0.95808 0.88261 0.84429 0.0
H55 H 0.94508 0.78721 0.875 0.0
C56 C 0.93233 0.78903 0.91449 0.0
O57 O 0.93068 0.83635 0.92734 0.0
H58 H 0.8963 0.77621 0.91072 0.0
C59 C 0.86396 0.95202 0.85208 0.0
C60 C 0.90625 0.9355 0.83122 0.0
C61 C 0.84233 0.93197 0.89661 0.0
C62 C 0.86505 0.89181 0.91913 0.0
C63 C 0.90655 0.87245 0.90028 0.0
C64 C 0.92602 0.89559 0.85705 0.0
H65 H 0.77178 0.2188 0.2629 0.0
H66 H 0.63197 0.26295 0.231 0.0
H67 H 0.71474 0.32365 0.35318 0.0
H68 H 0.61909 0.26913 0.36313 0.0
C69 C 0.60505 0.30151 0.34586 0.0
O70 O 0.63249 0.3189 0.30823 0.0
H71 H 0.57062 0.29303 0.32779 0.0
C72 C 0.7438 0.24151 0.27022 0.0
C73 C 0.74855 0.27233 0.31096 0.0
C74 C 0.70206 0.23867 0.24042 0.0
C75 C 0.66499 0.26624 0.25218 0.0
C76 C 0.66953 0.29633 0.29318 0.0
C77 C 0.71158 0.30031 0.32139 0.0
H78 H 0.30706 0.70895 0.17946 0.0
H79 H 0.28793 0.59768 0.28698 0.0
H80 H 0.40344 0.68768 0.30943 0.0
H81 H 0.40548 0.57572 0.29968 0.0
C82 C 0.39067 0.57606 0.33841 0.0
O83 O 0.36367 0.61403 0.34375 0.0
H84 H 0.36853 0.54526 0.34116 0.0
C85 C 0.31772 0.69034 0.21453 0.0
C86 C 0.35893 0.70227 0.24202 0.0
C87 C 0.29165 0.65275 0.2307 0.0
C88 C 0.30712 0.62729 0.27469 0.0
C89 C 0.34774 0.63958 0.30268 0.0
C90 C 0.3727 0.67765 0.28704 0.0
H91 H 0.21653 0.24048 0.75066 0.0
H92 H 0.34183 0.2354 0.84742 0.0
H93 H 0.30482 0.12359 0.74994 0.0
H94 H 0.40129 0.13153 0.75683 0.0
C95 C 0.40613 0.15569 0.78917 0.0
O96 O 0.3668 0.15578 0.81685 0.0
H97 H 0.43515 0.14244 0.81466 0.0
C98 C 0.24751 0.22281 0.76453 0.0
C99 C 0.2572 0.17994 0.74501 0.0
C100 C 0.27756 0.24292 0.802 0.0
C101 C 0.31782 0.22001 0.81933 0.0
C102 C 0.3276 0.17725 0.80028 0.0
C103 C 0.29709 0.15701 0.76382 0.0
Nd104 Nd 0.08007 1.02176 0.54769 0.0
Nd105 Nd 1.03079 0.10467 0.55552 0.0
C106 C 0.11306 0.93835 0.54398 0.0
C107 C 0.15837 0.91745 0.55315 0.0
C108 C 0.16061 0.87277 0.57276 0.0
C109 C 0.20172 0.85617 0.59599 0.0
C110 C 0.24102 0.88413 0.59981 0.0
C111 C 0.2397 0.92758 0.57645 0.0
C112 C 0.19846 0.94431 0.55353 0.0
C113 C 0.13343 0.08744 0.59713 0.0
C114 C 1.00516 1.02344 0.64446 0.0
C115 C 0.99038 0.18277 0.57034 0.0
C116 C 0.96713 0.21319 0.53205 0.0
C117 C 0.93405 0.24384 0.54696 0.0
C118 C 0.9037 0.26399 0.50968 0.0
C119 C 0.90547 0.25289 0.4572 0.0
C120 C 0.94096 0.22464 0.44234 0.0
C121 C 0.9718 0.20541 0.47942 0.0
C122 C 0.99383 0.04876 0.47918 0.0
C123 C 0.10274 0.10309 0.45824 0.0
O124 O 0.09744 0.95596 0.58517 0.0
O125 O 0.10595 0.96429 0.50279 0.0
O126 O 0.14826 0.0596 0.56414 0.0
O127 O 0.09177 0.07926 0.60475 0.0
O128 O 1.03317 0.99849 0.61735 0.0
O129 O 0.99999 0.06696 0.62943 0.0
O130 O 1.03503 0.17907 0.5676 0.0
O131 O 0.96974 0.14346 0.57547 0.0
O132 O 0.99794 0.09221 0.47339 0.0
O133 O 1.00736 0.03665 0.52394 0.0
O134 O 0.08352 0.12935 0.49251 0.0
O135 O 0.09998 0.05807 0.46726 0.0
H136 H 0.12981 0.85185 0.57339 0.0
H137 H 0.20221 0.82241 0.61339 0.0
H138 H 0.26966 0.9497 0.57915 0.0
H139 H 0.19715 0.97916 0.53934 0.0
H140 H 0.92985 0.25001 0.58747 0.0
H141 H 0.87699 0.28601 0.52225 0.0
H142 H 0.94283 0.21435 0.40267 0.0
H143 H 0.99715 0.18173 0.46721 0.0
Nd144 Nd 0.5812 1.02034 0.06456 0.0
Nd145 Nd 0.58152 0.07166 0.99275 0.0
C146 C 0.57848 0.94703 0.12593 0.0
C147 C 0.5438 0.91271 0.14067 0.0
C148 C 0.53879 0.87206 0.11322 0.0
C149 C 0.50733 0.83879 0.12771 0.0
C150 C 0.48049 0.84514 0.1703 0.0
C151 C 0.48473 0.88602 0.19726 0.0
C152 C 0.51628 0.91943 0.18277 0.0
C153 C 0.50365 0.07905 0.08116 0.0
C154 C 0.52325 0.98963 0.9624 0.0
C155 C 0.57912 0.14408 0.93025 0.0
C156 C 0.61164 0.17836 0.91287 0.0
C157 C 0.59555 0.22191 0.8993 0.0
C158 C 0.62643 0.25631 0.88675 0.0
C159 C 0.67379 0.24739 0.88767 0.0
C160 C 0.68982 0.20353 0.90064 0.0
C161 C 0.65892 0.16923 0.91357 0.0
C162 C 0.65983 1.01364 0.97593 0.0
C163 C 0.63999 0.10454 0.09291 0.0
O164 O 0.59067 0.94648 0.07843 0.0
O165 O 0.57437 0.98826 0.14232 0.0
O166 O 0.53689 0.06802 0.11428 0.0
O167 O 0.51402 0.06151 0.03784 0.0
O168 O 0.55165 0.97421 0.99932 0.0
O169 O 0.52063 0.03338 0.95674 0.0
O170 O 0.5712 0.14535 0.97906 0.0
O171 O 0.58405 0.10279 0.91426 0.0
O172 O 0.62669 1.02515 0.9428 0.0
O173 O 0.64907 1.03043 1.01961 0.0
O174 O 0.61265 0.11879 0.05461 0.0
O175 O 0.64063 0.06097 0.1029 0.0
H176 H 0.55947 0.8657 0.08067 0.0
H177 H 0.50421 0.80786 0.10578 0.0
H178 H 0.46451 0.8916 0.23037 0.0
H179 H 0.51945 0.95023 0.2049 0.0
H180 H 0.55917 0.22941 0.89922 0.0
H181 H 0.61338 0.2898 0.87623 0.0
H182 H 0.72629 0.19609 0.90168 0.0
H183 H 0.67191 0.13587 0.92482 0.0
Nd184 Nd 0.55545 0.49666 0.5906 0.0
Nd185 Nd 0.63192 0.54124 0.53436 0.0
C186 C 0.48412 0.46546 0.63997 0.0
C187 C 0.47212 0.42204 0.66521 0.0
C188 C 0.4268 0.40543 0.66 0.0
C189 C 0.41539 0.36328 0.68182 0.0
C190 C 0.44909 0.3373 0.70957 0.0
C191 C 0.4944 0.35412 0.71499 0.0
C192 C 0.50588 0.39604 0.69282 0.0
C193 C 0.64349 0.47957 0.63103 0.0
C194 C 0.5772 0.60477 0.60676 0.0
C195 C 0.71016 0.56613 0.49444 0.0
C196 C 0.73186 0.60872 0.47841 0.0
C197 C 0.77455 0.60771 0.45609 0.0
C198 C 0.79434 0.64784 0.43781 0.0
C199 C 0.77168 0.68953 0.4418 0.0
C200 C 0.72904 0.69041 0.46474 0.0
C201 C 0.70928 0.65024 0.48303 0.0
C202 C 0.54631 0.56201 0.49027 0.0
C203 C 0.59869 0.43838 0.50434 0.0
O204 O 0.51784 0.48886 0.66219 0.0
O205 O 0.48588 0.46488 0.58976 0.0
O206 O 0.61253 0.44789 0.62511 0.0
O207 O 0.62758 0.5171 0.6157 0.0
O208 O 0.54479 0.57305 0.60343 0.0
O209 O 0.61829 0.5983 0.58936 0.0
O210 O 0.67338 0.5541 0.46663 0.0
O211 O 0.7058 0.56016 0.54404 0.0
O212 O 0.58088 0.59026 0.4928 0.0
O213 O 0.55826 0.5235 0.50853 0.0
O214 O 0.63473 0.46563 0.51127 0.0
O215 O 0.56001 0.44612 0.52639 0.0
H216 H 0.40036 0.42485 0.63856 0.0
H217 H 0.38024 0.35094 0.67708 0.0
H218 H 0.52117 0.33434 0.73539 0.0
H219 H 0.54126 0.40784 0.69674 0.0
H220 H 0.79215 0.57578 0.45193 0.0
H221 H 0.82675 0.64609 0.41931 0.0
H222 H 0.71093 0.72214 0.46821 0.0
H223 H 0.67612 0.65143 0.50005 0.0
Nd224 Nd 1.04485 0.53683 0.10767 0.0
Nd225 Nd 0.10247 0.52907 1.02457 0.0
C226 C 0.98667 0.54328 0.18135 0.0
C227 C 0.96954 0.58644 0.20143 0.0
C228 C 0.92223 0.59611 0.19857 0.0
C229 C 0.90687 0.64035 0.20671 0.0
C230 C 0.93859 0.67576 0.21765 0.0
C231 C 0.98572 0.66534 0.2228 0.0
C232 C 1.00094 0.62133 0.2152 0.0
C233 C 0.12523 0.58699 0.12127 0.0
C234 C 1.03148 0.6223 1.02214 0.0
C235 C 0.16222 0.53105 0.95132 0.0
C236 C 0.18566 0.49449 0.92453 0.0
C237 C 0.22849 0.47775 0.94398 0.0
C238 C 0.24753 0.43937 0.92265 0.0
C239 C 0.22411 0.41699 0.88151 0.0
C240 C 0.18267 0.43525 0.86019 0.0
C241 C 0.1637 0.47362 0.88134 0.0
C242 C 1.02326 0.47892 1.00739 0.0
C243 C 0.11228 0.4414 0.10919 0.0
O244 O 0.97312 0.53444 0.13366 0.0
O245 O 1.03046 0.53507 0.19082 0.0
O246 O 0.08475 0.60281 0.12818 0.0
O247 O 0.12204 0.5468 0.10608 0.0
O248 O 1.01255 0.5999 0.06067 0.0
O249 O 0.06992 0.60409 1.00497 0.0
O250 O 0.17426 0.53665 1.00016 0.0
O251 O 0.11774 0.53393 0.942 0.0
O252 O 0.06433 0.46405 1.00119 0.0
O253 O 1.02517 0.51855 1.02526 0.0
O254 O 0.13123 0.46239 0.06938 0.0
O255 O 0.07546 0.46162 0.12774 0.0
H256 H 0.89734 0.57002 0.18744 0.0
H257 H 0.87031 0.64723 0.20244 0.0
H258 H 1.01136 0.69176 0.22946 0.0
H259 H 1.03772 0.61547 0.2171 0.0
H260 H 0.24666 0.49345 0.97668 0.0
H261 H 0.28015 0.42669 0.93897 0.0
H262 H 0.16391 0.41877 0.8284 0.0
H263 H 0.13095 0.4859 0.86492 0.0
C264 C 0.14838 0.19334 0.35397 0.0
C265 C 0.17283 0.16877 0.31706 0.0
C266 C 0.12688 0.17256 0.39789 0.0
C267 C 0.12704 0.12487 0.40953 0.0
H268 H 0.14611 0.22989 0.34954 0.0
H269 H 0.10956 0.19475 0.42327 0.0
S270 S 0.18372 0.04224 0.32635 0.0
N271 N 0.19358 0.09144 0.29715 0.0
N272 N 0.15441 0.05379 0.37719 0.0
C273 C 0.15097 0.09968 0.37294 0.0
C274 C 0.1732 0.12088 0.32825 0.0
C275 C 0.48861 0.8817 0.89228 0.0
C276 C 0.46898 0.8981 0.84476 0.0
C277 C 0.50429 0.91152 0.93104 0.0
C278 C 0.50086 0.9589 0.92382 0.0
H279 H 0.49246 0.84549 0.89931 0.0
H280 H 0.52019 0.89726 0.96646 0.0
S281 S 0.45124 1.01924 0.80664 0.0
N282 N 0.44668 0.96486 0.79277 0.0
N283 N 0.47483 1.02081 0.86594 0.0
C284 C 0.47984 0.97573 0.87711 0.0
C285 C 0.46426 0.94537 0.83751 0.0
C286 C 0.76202 0.50852 0.68879 0.0
C287 C 0.78797 0.46973 0.67953 0.0
C288 C 0.715 0.51061 0.67411 0.0
C289 C 0.6919 0.47379 0.65023 0.0
H290 H 0.77842 0.53798 0.70642 0.0
H291 H 0.69668 0.54165 0.68095 0.0
S292 S 0.74415 0.36482 0.61608 0.0
N293 N 0.78737 0.3941 0.64341 0.0
N294 N 0.69829 0.39746 0.61764 0.0
C295 C 0.71705 0.43445 0.64151 0.0
C296 C 0.76531 0.43265 0.65549 0.0
C297 C 0.88614 0.78729 0.16859 0.0
C298 C 0.90949 0.81943 0.19989 0.0
C299 C 0.89324 0.74057 0.17693 0.0
C300 C 0.92393 0.72424 0.21688 0.0
H301 H 0.86334 0.7984 0.13643 0.0
H302 H 0.87604 0.71724 0.15046 0.0
S303 S 0.98522 0.79452 0.31663 0.0
N304 N 0.95919 0.83182 0.27683 0.0
N305 N 0.97149 0.74403 0.29347 0.0
C306 C 0.94431 0.75607 0.25115 0.0
C307 C 0.93739 0.80361 0.24239 0.0
C308 C 0.40283 0.1238 0.16785 0.0
C309 C 0.36609 0.13987 0.13354 0.0
C310 C 0.44581 0.10566 0.15079 0.0
C311 C 0.45612 0.10028 0.09769 0.0
H312 H 0.39797 0.124 0.20892 0.0
H313 H 0.47118 0.09448 0.18036 0.0
S314 S 0.3733 0.13566 0.9898 0.0
N315 N 0.34555 0.14804 0.04156 0.0
N316 N 0.42332 0.11427 1.01111 0.0
C317 C 0.41989 0.11621 0.063 0.0
C318 C 0.37643 0.13533 0.08025 0.0
C319 C 0.36462 0.85954 0.64516 0.0
C320 C 0.36106 0.85028 0.69823 0.0
C321 C 0.32552 0.86981 0.61312 0.0
C322 C 0.2816 0.87025 0.63302 0.0
H323 H 0.39802 0.86001 0.6286 0.0
H324 H 0.32964 0.87775 0.57267 0.0
S325 S 0.25389 0.84723 0.769 0.0
N326 N 0.31034 0.84141 0.76905 0.0
N327 N 0.23667 0.86035 0.70882 0.0
C328 C 0.27752 0.86017 0.6858 0.0
C329 C 0.31734 0.85031 0.71846 0.0
C330 C 0.95686 0.42331 0.89545 0.0
C331 C 0.91239 0.44094 0.89818 0.0
C332 C 0.99185 0.43389 0.93265 0.0
C333 C 0.98388 0.46324 0.97347 0.0
H334 H 0.96462 0.40111 0.86428 0.0
H335 H 1.02578 0.42005 0.92826 0.0
S336 S 0.87261 0.51703 0.99854 0.0
N337 N 0.86138 0.48744 0.94575 0.0
N338 N 0.92763 0.50863 1.01509 0.0
C339 C 0.93922 0.48044 0.9771 0.0
C340 C 0.90335 0.46897 0.9396 0.0
C341 C 0.78239 0.79768 0.36145 0.0
C342 C 0.82851 0.81066 0.37188 0.0
C343 C 0.76402 0.75899 0.38519 0.0
C344 C 0.79134 0.73166 0.41966 0.0
H345 H 0.76041 0.81755 0.33464 0.0
H346 H 0.72847 0.7498 0.37557 0.0
S347 S 0.91422 0.75117 0.45971 0.0
N348 N 0.90118 0.79335 0.41872 0.0
N349 N 0.86655 0.72074 0.46375 0.0
C350 C 0.83745 0.74449 0.43065 0.0
C351 C 0.85605 0.78401 0.4067 0.0
C352 C 0.18237 0.32409 0.12861 0.0
C353 C 0.17456 0.30654 0.17942 0.0
C354 C 0.16292 0.36614 0.10693 0.0
C355 C 0.13298 0.39494 0.13336 0.0
H356 H 0.20378 0.3049 0.10425 0.0
H357 H 0.17141 0.37595 0.06813 0.0
S358 S 0.10256 0.37046 0.26896 0.0
N359 N 0.13568 0.3272 0.25648 0.0
N360 N 0.09877 0.40212 0.21571 0.0
C361 C 0.125 0.37835 0.18411 0.0
C362 C 0.14545 0.33599 0.2067 0.0
C363 C 0.76866 0.31023 0.82208 0.0
C364 C 0.77143 0.35169 0.84819 0.0
C365 C 0.73692 0.27667 0.83518 0.0
C366 C 0.70661 0.28361 0.87449 0.0
H367 H 0.79178 0.30336 0.79186 0.0
H368 H 0.73595 0.24512 0.81429 0.0
S369 S 0.69985 0.38612 0.95443 0.0
N370 N 0.74113 0.39798 0.91492 0.0
N371 N 0.68124 0.33455 0.93972 0.0
C372 C 0.70873 0.32494 0.90073 0.0
C373 C 0.74132 0.35905 0.88762 0.0
C374 C 0.95013 0.93994 0.41861 0.0
C375 C 0.91989 0.95503 0.3777 0.0
C376 C 0.97445 0.97071 0.45038 0.0
C377 C 0.9699 1.01784 0.44228 0.0
H378 H 0.95485 0.90393 0.42642 0.0
H379 H 0.99678 0.95738 0.48186 0.0
S380 S 0.89616 0.07519 0.33988 0.0
N381 N 0.88714 1.02042 0.33044 0.0
N382 N 0.93396 0.07841 0.38967 0.0
C383 C 0.94096 0.03359 0.40064 0.0
C384 C 0.91573 1.00214 0.36842 0.0
C385 C 0.59196 0.715 0.6792 0.0
C386 C 0.54764 0.73391 0.67399 0.0
C387 C 0.60145 0.6734 0.65669 0.0
C388 C 0.56673 0.64897 0.62904 0.0
H389 H 0.61946 0.73242 0.70089 0.0
H390 H 0.63599 0.65989 0.66179 0.0
S391 S 0.44583 0.68521 0.60175 0.0
N392 N 0.46952 0.72629 0.63686 0.0
N393 N 0.48691 0.64757 0.59578 0.0
C394 C 0.52244 0.66771 0.62316 0.0
C395 C 0.51303 0.71034 0.64531 0.0
C396 C 0.95853 0.93461 0.74952 0.0
C397 C 0.93056 0.95919 0.78313 0.0
C398 C 0.98161 0.95488 0.70642 0.0
C399 C 0.97927 1.00197 0.69213 0.0
H400 H 0.96258 0.89842 0.75594 0.0
H401 H 1.0017 0.93276 0.6837 0.0
S402 S 0.9134 0.08463 0.76624 0.0
N403 N 0.90466 0.03612 0.79733 0.0
N404 N 0.94602 0.07264 0.71826 0.0
C405 C 0.95167 1.02717 0.72524 0.0
C406 C 0.92821 1.00656 0.76936 0.0
C407 C 0.69526 0.15777 0.21341 0.0
C408 C 0.69494 0.20428 0.19997 0.0
C409 C 0.68006 0.12501 0.17754 0.0
C410 C 0.66415 0.13784 0.12713 0.0
H411 H 0.70486 0.14691 0.25268 0.0
H412 H 0.67846 0.0898 0.19026 0.0
S413 S 0.6642 0.25501 0.07098 0.0
N414 N 0.68268 0.26119 0.13183 0.0
N415 N 0.65499 0.2 0.06393 0.0
C416 C 0.66712 0.18408 0.11232 0.0
C417 C 0.68222 0.21724 0.14892 0.0
C418 C 0.43018 0.54206 0.41969 0.0
C419 C 0.42972 0.5748 0.37937 0.0
C420 C 0.46766 0.53873 0.45614 0.0
C421 C 0.50555 0.56859 0.45415 0.0
H422 H 0.40186 0.51818 0.42241 0.0
H423 H 0.46718 0.51227 0.48574 0.0
S424 S 0.5208 0.66046 0.35631 0.0
N425 N 0.47064 0.63702 0.33926 0.0
N426 N 0.53984 0.63252 0.40893 0.0
C427 C 0.50487 0.60228 0.41486 0.0
C428 C 0.46726 0.60493 0.37719 0.0
C429 C 0.25514 0.32449 0.78963 0.0
C430 C 0.26662 0.28772 0.8232 0.0
C431 C 0.24271 0.36659 0.80881 0.0
C432 C 0.24123 0.37342 0.86227 0.0
H433 H 0.25564 0.32061 0.7482 0.0
H434 H 0.23383 0.39393 0.78159 0.0
S435 S 0.26635 0.28724 0.96621 0.0
N436 N 0.27493 0.26045 0.91226 0.0
N437 N 0.25119 0.33941 0.94838 0.0
C438 C 0.25301 0.33697 0.89624 0.0
C439 C 0.26578 0.29417 0.87669 0.0
C440 C 0.7599 0.97243 0.88647 0.0
C441 C 0.79628 0.95292 0.91892 0.0
C442 C 0.71788 0.99102 0.90518 0.0
C443 C 0.70772 0.99334 0.95854 0.0
H444 H 0.76332 0.97275 0.84512 0.0
H445 H 0.69264 1.00415 0.87655 0.0
S446 S 0.79027 0.94959 0.06292 0.0
N447 N 0.8172 0.93901 1.01002 0.0
N448 N 0.74098 0.97383 0.04379 0.0
C449 C 0.74393 0.97468 0.99177 0.0
C450 C 0.78662 0.95486 0.97265 0.0
C451 C 0.78334 0.26109 0.39972 0.0
C452 C 0.78936 0.27117 0.34739 0.0
C453 C 0.82108 0.25732 0.43521 0.0
C454 C 0.86637 0.26401 0.41988 0.0
H455 H 0.74919 0.25459 0.41303 0.0
H456 H 0.81467 0.24716 0.47454 0.0
S457 S 0.89971 0.2964 0.28791 0.0
N458 N 0.8431 0.29078 0.2821 0.0
N459 N 0.91454 0.28525 0.34926 0.0
C460 C 0.87263 0.2761 0.36787 0.0
C461 C 0.83402 0.27927 0.3315 0.0
C462 C 0.24705 0.59388 0.18073 0.0
C463 C 0.24976 0.63814 0.20008 0.0
C464 C 0.20721 0.57835 0.15351 0.0
C465 C 0.16824 0.60623 0.14542 0.0
H466 H 0.27593 0.571 0.18693 0.0
H467 H 0.20658 0.54374 0.13998 0.0
S468 S 0.15847 0.72543 0.18714 0.0
N469 N 0.21095 0.71022 0.20796 0.0
N470 N 0.1355 0.68077 0.15759 0.0
C471 C 0.17085 0.65089 0.16372 0.0
C472 C 0.21176 0.66692 0.19084 0.0
C473 C 0.4066 0.21529 0.71766 0.0
C474 C 0.41821 0.20272 0.76932 0.0
C475 C 0.41614 0.25911 0.69881 0.0
C476 C 0.43752 0.29187 0.73103 0.0
H477 H 0.39 0.19104 0.69167 0.0
H478 H 0.40734 0.26722 0.65856 0.0
S479 S 0.46967 0.2774 0.87069 0.0
N480 N 0.44878 0.22729 0.85328 0.0
N481 N 0.46678 0.30982 0.81792 0.0
C482 C 0.4481 0.28007 0.7831 0.0
C483 C 0.4383 0.23549 0.80226 0.0
C484 C 1.00622 0.73656 0.93741 0.0
C485 C 0.96194 0.75245 0.95037 0.0
C486 C 1.02843 0.69635 0.9604 0.0
C487 C 1.0084 0.66779 0.99844 0.0
H488 H 1.0235 0.7545 0.90713 0.0
H489 H 0.06163 0.68707 0.94706 0.0
S490 S 0.89214 0.69096 0.04615 0.0
N491 N 0.89928 0.73334 1.00466 0.0
N492 N 0.93954 0.6604 0.04689 0.0
C493 C 0.96445 0.68369 1.01224 0.0
C494 C 0.94196 0.72457 0.98885 0.0
C495 C 0.37329 0.78252 0.21198 0.0
C496 C 0.38963 0.73823 0.22222 0.0
C497 C 0.40288 0.81714 0.19539 0.0
C498 C 0.44952 0.80835 0.18773 0.0
H499 H 0.33767 0.79058 0.2177 0.0
H500 H 0.38917 0.85093 0.18818 0.0
S501 S 0.50863 0.69769 0.20792 0.0
N502 N 0.45495 0.6872 0.2223 0.0
N503 N 0.51049 0.75216 0.1917 0.0
C504 C 0.46599 0.76406 0.1973 0.0
C505 C 0.43606 0.72904 0.21439 0.0
C506 C 0.17818 0.1551 0.7129 0.0
C507 C 0.2256 0.1589 0.70524 0.0
C508 C 0.14822 0.133 0.67704 0.0
C509 C 0.16465 0.11402 0.63227 0.0
H510 H 0.16435 0.16823 0.74753 0.0
H511 H 0.11217 0.12988 0.6851 0.0
S512 S 0.28502 0.11949 0.5916 0.0
N513 N 0.2869 0.14525 0.64767 0.0
N514 N 0.23086 0.10359 0.58042 0.0
C515 C 0.2117 0.11918 0.62326 0.0
C516 C 0.24212 0.14158 0.65974 0.0
C517 C 0.63839 0.34052 0.42547 0.0
C518 C 0.60182 0.33568 0.38796 0.0
C519 C 0.63742 0.37386 0.46336 0.0
C520 C 0.59931 0.40256 0.46562 0.0
H521 H 0.66801 0.31849 0.42538 0.0
H522 H 0.66638 0.37693 0.49127 0.0
S523 S 0.49573 0.40496 0.3754 0.0
N524 N 0.52747 0.36366 0.35433 0.0
N525 N 0.52479 0.4251 0.42661 0.0
C526 C 0.56247 0.39793 0.42859 0.0
C527 C 0.56395 0.3648 0.38942 0.0
loop_
_geom_bond_atom_site_label_1
_geom_bond_atom_site_label_2
_geom_bond_distance
_geom_bond_site_symmetry_2
_ccdc_geom_bond_type
H0 C7 0.929 . S
H1 C10 0.930 . S
H2 C12 0.929 . S
H3 C4 0.969 . S
C4 H3 0.969 . S
C4 O5 1.550 . S
C4 H6 0.973 . S
O5 C4 1.550 . S
O5 C11 1.412 . S
H6 C4 0.973 . S
C7 H0 0.929 . S
C7 C8 1.400 . S
C7 C9 1.364 . S
C8 C7 1.400 . S
C8 C12 1.377 . S
C9 C7 1.364 . S
C9 C10 1.374 . S
C10 H1 0.930 . S
C10 C9 1.374 . S
C10 C11 1.383 . S
C11 O5 1.412 . S
C11 C10 1.383 . S
C11 C12 1.394 . S
C12 H2 0.929 . S
C12 C8 1.377 . S
C12 C11 1.394 . S
H13 C20 0.929 . S
H14 C23 0.930 . S
H15 C25 0.929 . S
H16 C17 0.969 . S
C17 H16 0.969 . S
C17 O18 1.550 . S
C17 H19 0.973 . S
O18 C17 1.550 . S
O18 C24 1.412 . S
H19 C17 0.973 . S
C20 H13 0.929 . S
C20 C21 1.400 . S
C20 C22 1.364 . S
C21 C20 1.400 . S
C21 C25 1.377 . S
C22 C20 1.364 . S
C22 C23 1.374 . S
C23 H14 0.930 . S
C23 C22 1.374 . S
C23 C24 1.383 . S
C24 O18 1.412 . S
C24 C23 1.383 . S
C24 C25 1.394 . S
C25 H15 0.929 . S
C25 C21 1.377 . S
C25 C24 1.394 . S
H26 C33 0.929 . S
H27 C36 0.930 . S
H28 C38 0.929 . S
H29 C30 0.969 . S
C30 H29 0.969 . S
C30 O31 1.550 . S
C30 H32 0.973 . S
O31 C30 1.550 . S
O31 C37 1.412 . S
H32 C30 0.973 . S
C33 H26 0.929 . S
C33 C34 1.400 . S
C33 C35 1.364 . S
C34 C33 1.400 . S
C34 C38 1.377 . S
C35 C33 1.364 . S
C35 C36 1.374 . S
C36 H27 0.930 . S
C36 C35 1.374 . S
C36 C37 1.383 . S
C37 O31 1.412 . S
C37 C36 1.383 . S
C37 C38 1.394 . S
C38 H28 0.929 . S
C38 C34 1.377 . S
C38 C37 1.394 . S
H39 C46 0.929 . S
H40 C49 0.930 . S
H41 C51 0.929 . S
H42 C43 0.969 . S
C43 H42 0.969 . S
C43 O44 1.550 . S
C43 H45 0.973 . S
O44 C43 1.550 . S
O44 C50 1.412 . S
H45 C43 0.973 . S
C46 H39 0.929 . S
C46 C47 1.400 . S
C46 C48 1.364 . S
C47 C46 1.400 . S
C47 C51 1.377 . S
C48 C46 1.364 . S
C48 C49 1.374 . S
C49 H40 0.930 . S
C49 C48 1.374 . S
C49 C50 1.383 . S
C50 O44 1.412 . S
C50 C49 1.383 . S
C50 C51 1.394 . S
C51 H41 0.929 . S
C51 C47 1.377 . S
C51 C50 1.394 . S
H52 C59 0.929 . S
H53 C62 0.930 . S
H54 C64 0.929 . S
H55 C56 0.969 . S
C56 H55 0.969 . S
C56 O57 1.550 . S
C56 H58 0.973 . S
O57 C56 1.550 . S
O57 C63 1.412 . S
H58 C56 0.973 . S
C59 H52 0.929 . S
C59 C60 1.400 . S
C59 C61 1.364 . S
C60 C59 1.400 . S
C60 C64 1.377 . S
C61 C59 1.364 . S
C61 C62 1.374 . S
C62 H53 0.930 . S
C62 C61 1.374 . S
C62 C63 1.383 . S
C63 O57 1.412 . S
C63 C62 1.383 . S
C63 C64 1.394 . S
C64 H54 0.929 . S
C64 C60 1.377 . S
C64 C63 1.394 . S
H65 C72 0.929 . S
H66 C75 0.930 . S
H67 C77 0.929 . S
H68 C69 0.969 . S
C69 H68 0.969 . S
C69 O70 1.550 . S
C69 H71 0.973 . S
O70 C69 1.550 . S
O70 C76 1.412 . S
H71 C69 0.973 . S
C72 H65 0.929 . S
C72 C73 1.400 . S
C72 C74 1.364 . S
C73 C72 1.400 . S
C73 C77 1.377 . S
C74 C72 1.364 . S
C74 C75 1.374 . S
C75 H66 0.930 . S
C75 C74 1.374 . S
C75 C76 1.383 . S
C76 O70 1.412 . S
C76 C75 1.383 . S
C76 C77 1.394 . S
C77 H67 0.929 . S
C77 C73 1.377 . S
C77 C76 1.394 . S
H78 C85 0.929 . S
H79 C88 0.930 . S
H80 C90 0.929 . S
H81 C82 0.969 . S
C82 H81 0.969 . S
C82 O83 1.550 . S
C82 H84 0.973 . S
O83 C82 1.550 . S
O83 C89 1.412 . S
H84 C82 0.973 . S
C85 H78 0.929 . S
C85 C86 1.400 . S
C85 C87 1.364 . S
C86 C85 1.400 . S
C86 C90 1.377 . S
C87 C85 1.364 . S
C87 C88 1.374 . S
C88 H79 0.930 . S
C88 C87 1.374 . S
C88 C89 1.383 . S
C89 O83 1.412 . S
C89 C88 1.383 . S
C89 C90 1.394 . S
C90 H80 0.929 . S
C90 C86 1.377 . S
C90 C89 1.394 . S
H91 C98 0.929 . S
H92 C101 0.930 . S
H93 C103 0.929 . S
H94 C95 0.969 . S
C95 H94 0.969 . S
C95 O96 1.550 . S
C95 H97 0.973 . S
O96 C95 1.550 . S
O96 C102 1.412 . S
H97 C95 0.973 . S
C98 H91 0.929 . S
C98 C99 1.400 . S
C98 C100 1.364 . S
C99 C98 1.400 . S
C99 C103 1.377 . S
C100 C98 1.364 . S
C100 C101 1.374 . S
C101 H92 0.930 . S
C101 C100 1.374 . S
C101 C102 1.383 . S
C102 O96 1.412 . S
C102 C101 1.383 . S
C102 C103 1.394 . S
C103 H93 0.929 . S
C103 C99 1.377 . S
C103 C102 1.394 . S
Nd104 C106 2.836 . S
Nd104 O124 2.500 . S
Nd104 O125 2.492 . S
Nd104 O126 2.487 1_565 S
Nd104 O127 2.682 1_565 S
Nd104 O128 2.410 . S
Nd104 O133 2.414 1_455 S
Nd104 O135 2.424 1_565 S
Nd105 C115 2.836 . S
Nd105 O127 2.414 1_655 S
Nd105 O129 2.424 . S
Nd105 O130 2.500 . S
Nd105 O131 2.492 . S
Nd105 O132 2.487 1_545 S
Nd105 O133 2.682 1_545 S
Nd105 O134 2.410 . S
C106 Nd104 2.836 . S
C106 C107 1.498 . S
C106 O124 1.258 . S
C106 O125 1.239 . S
C107 C106 1.498 . S
C107 C108 1.366 . S
C107 C112 1.407 . S
C108 C107 1.366 . S
C108 C109 1.392 . S
C108 H136 0.930 . S
C109 C108 1.392 . S
C109 C110 1.398 . S
C109 H137 0.929 . S
C110 C109 1.398 . S
C110 C111 1.352 . S
C111 C110 1.352 . S
C111 C112 1.384 . S
C111 H138 0.930 . S
C112 C107 1.407 . S
C112 C111 1.384 . S
C112 H139 0.929 . S
C113 O126 1.241 . S
C113 O127 1.273 . S
C114 O128 1.251 1_655 S
C114 O129 1.268 1_565 S
C115 Nd105 2.836 . S
C115 C116 1.498 . S
C115 O130 1.258 . S
C115 O131 1.239 . S
C116 C115 1.498 . S
C116 C117 1.366 . S
C116 C121 1.407 . S
C117 C116 1.366 . S
C117 C118 1.392 . S
C117 H140 0.930 . S
C118 C117 1.392 . S
C118 C119 1.398 . S
C118 H141 0.929 . S
C119 C118 1.398 . S
C119 C120 1.352 . S
C120 C119 1.352 . S
C120 C121 1.384 . S
C120 H142 0.930 . S
C121 C116 1.407 . S
C121 C120 1.384 . S
C121 H143 0.929 . S
C122 O132 1.241 . S
C122 O133 1.273 . S
C123 O134 1.251 1_455 S
C123 O135 1.268 . S
O124 Nd104 2.500 . S
O124 C106 1.258 . S
O125 Nd104 2.492 . S
O125 C106 1.239 . S
O126 Nd104 2.487 1_545 S
O126 C113 1.241 . S
O127 Nd104 2.682 1_545 S
O127 Nd105 2.414 1_455 S
O127 C113 1.273 . S
O128 Nd104 2.410 . S
O128 C114 1.251 1_455 S
O129 Nd105 2.424 . S
O129 C114 1.268 1_545 S
O130 Nd105 2.500 . S
O130 C115 1.258 . S
O131 Nd105 2.492 . S
O131 C115 1.239 . S
O132 Nd105 2.487 1_565 S
O132 C122 1.241 . S
O133 Nd104 2.414 1_655 S
O133 Nd105 2.682 1_565 S
O133 C122 1.273 . S
O134 Nd105 2.410 . S
O134 C123 1.251 1_655 S
O135 Nd104 2.424 1_545 S
O135 C123 1.268 . S
H136 C108 0.930 . S
H137 C109 0.929 . S
H138 C111 0.930 . S
H139 C112 0.929 . S
H140 C117 0.930 . S
H141 C118 0.929 . S
H142 C120 0.930 . S
H143 C121 0.929 . S
Nd144 C146 2.836 . S
Nd144 O164 2.500 . S
Nd144 O165 2.492 . S
Nd144 O166 2.487 1_565 S
Nd144 O167 2.682 1_565 S
Nd144 O168 2.410 1_554 S
Nd144 O173 2.414 1_554 S
Nd144 O175 2.424 1_565 S
Nd145 C155 2.836 . S
Nd145 O167 2.414 1_556 S
Nd145 O169 2.424 1_545 S
Nd145 O170 2.500 . S
Nd145 O171 2.492 . S
Nd145 O172 2.487 . S
Nd145 O173 2.682 1_545 S
Nd145 O174 2.410 1_556 S
C146 Nd144 2.836 . S
C146 C147 1.498 . S
C146 O164 1.258 . S
C146 O165 1.239 . S
C147 C146 1.498 . S
C147 C148 1.366 . S
C147 C152 1.407 . S
C148 C147 1.366 . S
C148 C149 1.392 . S
C148 H176 0.930 . S
C149 C148 1.392 . S
C149 C150 1.398 . S
C149 H177 0.929 . S
C150 C149 1.398 . S
C150 C151 1.352 . S
C151 C150 1.352 . S
C151 C152 1.384 . S
C151 H178 0.930 . S
C152 C147 1.407 . S
C152 C151 1.384 . S
C152 H179 0.929 . S
C153 O166 1.241 . S
C153 O167 1.273 . S
C154 O168 1.251 . S
C154 O169 1.268 . S
C155 Nd145 2.836 . S
C155 C156 1.498 . S
C155 O170 1.258 . S
C155 O171 1.239 . S
C156 C155 1.498 . S
C156 C157 1.366 . S
C156 C161 1.407 . S
C157 C156 1.366 . S
C157 C158 1.392 . S
C157 H180 0.930 . S
C158 C157 1.392 . S
C158 C159 1.398 . S
C158 H181 0.929 . S
C159 C158 1.398 . S
C159 C160 1.352 . S
C160 C159 1.352 . S
C160 C161 1.384 . S
C160 H182 0.930 . S
C161 C156 1.407 . S
C161 C160 1.384 . S
C161 H183 0.929 . S
C162 O172 1.241 1_565 S
C162 O173 1.273 . S
C163 O174 1.251 . S
C163 O175 1.268 . S
O164 Nd144 2.500 . S
O164 C146 1.258 . S
O165 Nd144 2.492 . S
O165 C146 1.239 . S
O166 Nd144 2.487 1_545 S
O166 C153 1.241 . S
O167 Nd144 2.682 1_545 S
O167 Nd145 2.414 1_554 S
O167 C153 1.273 . S
O168 Nd144 2.410 1_556 S
O168 C154 1.251 . S
O169 Nd145 2.424 1_565 S
O169 C154 1.268 . S
O170 Nd145 2.500 . S
O170 C155 1.258 . S
O171 Nd145 2.492 . S
O171 C155 1.239 . S
O172 Nd145 2.487 . S
O172 C162 1.241 1_545 S
O173 Nd144 2.414 1_556 S
O173 Nd145 2.682 1_565 S
O173 C162 1.273 . S
O174 Nd145 2.410 1_554 S
O174 C163 1.251 . S
O175 Nd144 2.424 1_545 S
O175 C163 1.268 . S
H176 C148 0.930 . S
H177 C149 0.929 . S
H178 C151 0.930 . S
H179 C152 0.929 . S
H180 C157 0.930 . S
H181 C158 0.929 . S
H182 C160 0.930 . S
H183 C161 0.929 . S
Nd184 C186 2.836 . S
Nd184 O204 2.500 . S
Nd184 O205 2.492 . S
Nd184 O206 2.487 . S
Nd184 O207 2.682 . S
Nd184 O208 2.410 . S
Nd184 O213 2.414 . S
Nd184 O215 2.424 . S
Nd185 C195 2.836 . S
Nd185 O207 2.414 . S
Nd185 O209 2.424 . S
Nd185 O210 2.500 . S
Nd185 O211 2.492 . S
Nd185 O212 2.487 . S
Nd185 O213 2.682 . S
Nd185 O214 2.410 . S
C186 Nd184 2.836 . S
C186 C187 1.498 . S
C186 O204 1.258 . S
C186 O205 1.239 . S
C187 C186 1.498 . S
C187 C188 1.366 . S
C187 C192 1.407 . S
C188 C187 1.366 . S
C188 C189 1.392 . S
C188 H216 0.930 . S
C189 C188 1.392 . S
C189 C190 1.398 . S
C189 H217 0.929 . S
C190 C189 1.398 . S
C190 C191 1.352 . S
C191 C190 1.352 . S
C191 C192 1.384 . S
C191 H218 0.930 . S
C192 C187 1.407 . S
C192 C191 1.384 . S
C192 H219 0.929 . S
C193 O206 1.241 . S
C193 O207 1.273 . S
C194 O208 1.251 . S
C194 O209 1.268 . S
C195 Nd185 2.836 . S
C195 C196 1.498 . S
C195 O210 1.258 . S
C195 O211 1.239 . S
C196 C195 1.498 . S
C196 C197 1.366 . S
C196 C201 1.407 . S
C197 C196 1.366 . S
C197 C198 1.392 . S
C197 H220 0.930 . S
C198 C197 1.392 . S
C198 C199 1.398 . S
C198 H221 0.929 . S
C199 C198 1.398 . S
C199 C200 1.352 . S
C200 C199 1.352 . S
C200 C201 1.384 . S
C200 H222 0.930 . S
C201 C196 1.407 . S
C201 C200 1.384 . S
C201 H223 0.929 . S
C202 O212 1.241 . S
C202 O213 1.273 . S
C203 O214 1.251 . S
C203 O215 1.268 . S
O204 Nd184 2.500 . S
O204 C186 1.258 . S
O205 Nd184 2.492 . S
O205 C186 1.239 . S
O206 Nd184 2.487 . S
O206 C193 1.241 . S
O207 Nd184 2.682 . S
O207 Nd185 2.414 . S
O207 C193 1.273 . S
O208 Nd184 2.410 . S
O208 C194 1.251 . S
O209 Nd185 2.424 . S
O209 C194 1.268 . S
O210 Nd185 2.500 . S
O210 C195 1.258 . S
O211 Nd185 2.492 . S
O211 C195 1.239 . S
O212 Nd185 2.487 . S
O212 C202 1.241 . S
O213 Nd184 2.414 . S
O213 Nd185 2.682 . S
O213 C202 1.273 . S
O214 Nd185 2.410 . S
O214 C203 1.251 . S
O215 Nd184 2.424 . S
O215 C203 1.268 . S
H216 C188 0.930 . S
H217 C189 0.929 . S
H218 C191 0.930 . S
H219 C192 0.929 . S
H220 C197 0.930 . S
H221 C198 0.929 . S
H222 C200 0.930 . S
H223 C201 0.929 . S
Nd224 C226 2.836 1_455 S
Nd224 O244 2.500 1_455 S
Nd224 O245 2.492 . S
Nd224 O246 2.487 . S
Nd224 O247 2.682 . S
Nd224 O248 2.410 . S
Nd224 O253 2.411 1_454 S
Nd224 O255 2.424 . S
Nd225 C235 2.836 . S
Nd225 O247 2.414 1_556 S
Nd225 O249 2.424 . S
Nd225 O250 2.500 . S
Nd225 O251 2.492 . S
Nd225 O252 2.487 1_455 S
Nd225 O253 2.685 1_455 S
Nd225 O254 2.410 . S
C226 Nd224 2.836 1_655 S
C226 C227 1.498 . S
C226 O244 1.258 . S
C226 O245 1.239 1_655 S
C227 C226 1.498 . S
C227 C228 1.366 . S
C227 C232 1.407 . S
C228 C227 1.366 . S
C228 C229 1.392 . S
C228 H256 0.930 . S
C229 C228 1.392 . S
C229 C230 1.398 . S
C229 H257 0.929 . S
C230 C229 1.398 . S
C230 C231 1.352 . S
C231 C230 1.352 . S
C231 C232 1.384 . S
C231 H258 0.930 . S
C232 C227 1.407 . S
C232 C231 1.384 . S
C232 H259 0.929 1_655 S
C233 O246 1.241 . S
C233 O247 1.273 . S
C234 O248 1.251 1_556 S
C234 O249 1.268 . S
C235 Nd225 2.836 . S
C235 C236 1.498 . S
C235 O250 1.258 . S
C235 O251 1.239 . S
C236 C235 1.498 . S
C236 C237 1.366 . S
C236 C241 1.407 . S
C237 C236 1.366 . S
C237 C238 1.392 . S
C237 H260 0.930 . S
C238 C237 1.392 . S
C238 C239 1.398 . S
C238 H261 0.929 . S
C239 C238 1.398 . S
C239 C240 1.352 . S
C240 C239 1.352 . S
C240 C241 1.384 . S
C240 H262 0.930 . S
C241 C236 1.407 . S
C241 C240 1.384 . S
C241 H263 0.929 . S
C242 O252 1.241 . S
C242 O253 1.276 . S
C243 O254 1.251 1_554 S
C243 O255 1.268 . S
O244 Nd224 2.500 1_655 S
O244 C226 1.258 . S
O245 Nd224 2.492 . S
O245 C226 1.239 1_455 S
O246 Nd224 2.487 . S
O246 C233 1.241 . S
O247 Nd224 2.682 . S
O247 Nd225 2.414 1_554 S
O247 C233 1.273 . S
O248 Nd224 2.410 . S
O248 C234 1.251 1_554 S
O249 Nd225 2.424 . S
O249 C234 1.268 . S
O250 Nd225 2.500 . S
O250 C235 1.258 . S
O251 Nd225 2.492 . S
O251 C235 1.239 . S
O252 Nd225 2.487 1_655 S
O252 C242 1.241 . S
O253 Nd224 2.411 1_656 S
O253 Nd225 2.685 1_655 S
O253 C242 1.276 . S
O254 Nd225 2.410 . S
O254 C243 1.251 1_556 S
O255 Nd224 2.424 . S
O255 C243 1.268 . S
H256 C228 0.930 . S
H257 C229 0.929 . S
H258 C231 0.930 . S
H259 C232 0.929 1_455 S
H260 C237 0.930 . S
H261 C238 0.929 . S
H262 C240 0.930 . S
H263 C241 0.929 . S
C264 C265 1.369 . S
C264 C266 1.419 . S
C264 H268 0.930 . S
C265 C264 1.369 . S
C265 C274 1.429 . S
C266 C264 1.419 . S
C266 C267 1.363 . S
C266 H269 0.929 . S
C267 C266 1.363 . S
C267 C273 1.428 . S
H268 C264 0.930 . S
H269 C266 0.929 . S
S270 N271 1.613 . S
S270 N272 1.610 . S
N271 S270 1.613 . S
N271 C274 1.350 . S
N272 S270 1.610 . S
N272 C273 1.351 . S
C273 C267 1.428 . S
C273 N272 1.351 . S
C273 C274 1.434 . S
C274 C265 1.429 . S
C274 N271 1.350 . S
C274 C273 1.434 . S
C275 C276 1.369 . S
C275 C277 1.419 . S
C275 H279 0.930 . S
C276 C275 1.369 . S
C276 C285 1.429 . S
C277 C275 1.419 . S
C277 C278 1.363 . S
C277 H280 0.929 . S
C278 C277 1.363 . S
C278 C284 1.428 . S
H279 C275 0.930 . S
H280 C277 0.929 . S
S281 N282 1.613 . S
S281 N283 1.610 . S
N282 S281 1.613 . S
N282 C285 1.350 . S
N283 S281 1.610 . S
N283 C284 1.351 . S
C284 C278 1.428 . S
C284 N283 1.351 . S
C284 C285 1.434 . S
C285 C276 1.429 . S
C285 N282 1.350 . S
C285 C284 1.434 . S
C286 C287 1.369 . S
C286 C288 1.419 . S
C286 H290 0.930 . S
C287 C286 1.369 . S
C287 C296 1.429 . S
C288 C286 1.419 . S
C288 C289 1.363 . S
C288 H291 0.929 . S
C289 C288 1.363 . S
C289 C295 1.428 . S
H290 C286 0.930 . S
H291 C288 0.929 . S
S292 N293 1.613 . S
S292 N294 1.610 . S
N293 S292 1.613 . S
N293 C296 1.350 . S
N294 S292 1.610 . S
N294 C295 1.351 . S
C295 C289 1.428 . S
C295 N294 1.351 . S
C295 C296 1.434 . S
C296 C287 1.429 . S
C296 N293 1.350 . S
C296 C295 1.434 . S
C297 C298 1.369 . S
C297 C299 1.419 . S
C297 H301 0.930 . S
C298 C297 1.369 . S
C298 C307 1.429 . S
C299 C297 1.419 . S
C299 C300 1.363 . S
C299 H302 0.929 . S
C300 C299 1.363 . S
C300 C306 1.428 . S
H301 C297 0.930 . S
H302 C299 0.929 . S
S303 N304 1.613 . S
S303 N305 1.610 . S
N304 S303 1.613 . S
N304 C307 1.350 . S
N305 S303 1.610 . S
N305 C306 1.351 . S
C306 C300 1.428 . S
C306 N305 1.351 . S
C306 C307 1.434 . S
C307 C298 1.429 . S
C307 N304 1.350 . S
C307 C306 1.434 . S
C308 C309 1.369 . S
C308 C310 1.419 . S
C308 H312 0.930 . S
C309 C308 1.369 . S
C309 C318 1.429 . S
C310 C308 1.419 . S
C310 C311 1.363 . S
C310 H313 0.929 . S
C311 C310 1.363 . S
C311 C317 1.428 . S
H312 C308 0.930 . S
H313 C310 0.929 . S
S314 N315 1.613 1_556 S
S314 N316 1.610 1_556 S
N315 S314 1.613 1_554 S
N315 C318 1.350 . S
N316 S314 1.610 1_554 S
N316 C317 1.353 . S
C317 C311 1.428 . S
C317 N316 1.353 . S
C317 C318 1.434 . S
C318 C309 1.429 . S
C318 N315 1.350 . S
C318 C317 1.434 . S
C319 C320 1.369 . S
C319 C321 1.419 . S
C319 H323 0.930 . S
C320 C319 1.369 . S
C320 C329 1.429 . S
C321 C319 1.419 . S
C321 C322 1.363 . S
C321 H324 0.929 . S
C322 C321 1.363 . S
C322 C328 1.428 . S
H323 C319 0.930 . S
H324 C321 0.929 . S
S325 N326 1.613 . S
S325 N327 1.610 . S
N326 S325 1.613 . S
N326 C329 1.350 . S
N327 S325 1.610 . S
N327 C328 1.351 . S
C328 C322 1.428 . S
C328 N327 1.351 . S
C328 C329 1.434 . S
C329 C320 1.429 . S
C329 N326 1.350 . S
C329 C328 1.434 . S
C330 C331 1.369 . S
C330 C332 1.419 . S
C330 H334 0.930 . S
C331 C330 1.369 . S
C331 C340 1.429 . S
C332 C330 1.419 . S
C332 C333 1.363 . S
C332 H335 0.929 . S
C333 C332 1.363 . S
C333 C339 1.428 . S
H334 C330 0.930 . S
H335 C332 0.929 . S
S336 N337 1.613 1_554 S
S336 N338 1.610 . S
N337 S336 1.613 1_556 S
N337 C340 1.350 . S
N338 S336 1.610 . S
N338 C339 1.351 1_554 S
C339 C333 1.428 . S
C339 N338 1.351 1_556 S
C339 C340 1.434 . S
C340 C331 1.429 . S
C340 N337 1.350 . S
C340 C339 1.434 . S
C341 C342 1.369 . S
C341 C343 1.419 . S
C341 H345 0.930 . S
C342 C341 1.369 . S
C342 C351 1.429 . S
C343 C341 1.419 . S
C343 C344 1.363 . S
C343 H346 0.929 . S
C344 C343 1.363 . S
C344 C350 1.428 . S
H345 C341 0.930 . S
H346 C343 0.929 . S
S347 N348 1.613 . S
S347 N349 1.610 . S
N348 S347 1.613 . S
N348 C351 1.350 . S
N349 S347 1.610 . S
N349 C350 1.351 . S
C350 C344 1.428 . S
C350 N349 1.351 . S
C350 C351 1.434 . S
C351 C342 1.429 . S
C351 N348 1.350 . S
C351 C350 1.434 . S
C352 C353 1.369 . S
C352 C354 1.419 . S
C352 H356 0.930 . S
C353 C352 1.369 . S
C353 C362 1.429 . S
C354 C352 1.419 . S
C354 C355 1.363 . S
C354 H357 0.929 . S
C355 C354 1.363 . S
C355 C361 1.428 . S
H356 C352 0.930 . S
H357 C354 0.929 . S
S358 N359 1.613 . S
S358 N360 1.610 . S
N359 S358 1.613 . S
N359 C362 1.350 . S
N360 S358 1.610 . S
N360 C361 1.351 . S
C361 C355 1.428 . S
C361 N360 1.351 . S
C361 C362 1.434 . S
C362 C353 1.429 . S
C362 N359 1.350 . S
C362 C361 1.434 . S
C363 C364 1.369 . S
C363 C365 1.419 . S
C363 H367 0.930 . S
C364 C363 1.369 . S
C364 C373 1.429 . S
C365 C363 1.419 . S
C365 C366 1.363 . S
C365 H368 0.929 . S
C366 C365 1.363 . S
C366 C372 1.428 . S
H367 C363 0.930 . S
H368 C365 0.929 . S
S369 N370 1.613 . S
S369 N371 1.610 . S
N370 S369 1.613 . S
N370 C373 1.350 . S
N371 S369 1.610 . S
N371 C372 1.351 . S
C372 C366 1.428 . S
C372 N371 1.351 . S
C372 C373 1.434 . S
C373 C364 1.429 . S
C373 N370 1.350 . S
C373 C372 1.434 . S
C374 C375 1.369 . S
C374 C376 1.419 . S
C374 H378 0.930 . S
C375 C374 1.369 . S
C375 C384 1.429 . S
C376 C374 1.419 . S
C376 C377 1.363 . S
C376 H379 0.929 . S
C377 C376 1.363 . S
C377 C383 1.428 . S
H378 C374 0.930 . S
H379 C376 0.929 . S
S380 N381 1.624 . S
S380 N382 1.612 . S
N381 S380 1.624 . S
N381 C384 1.350 . S
N382 S380 1.612 . S
N382 C383 1.351 . S
C383 C377 1.428 . S
C383 N382 1.351 . S
C383 C384 1.434 . S
C384 C375 1.429 . S
C384 N381 1.350 . S
C384 C383 1.434 . S
C385 C386 1.369 . S
C385 C387 1.419 . S
C385 H389 0.930 . S
C386 C385 1.369 . S
C386 C395 1.429 . S
C387 C385 1.419 . S
C387 C388 1.363 . S
C387 H390 0.929 . S
C388 C387 1.363 . S
C388 C394 1.428 . S
H389 C385 0.930 . S
H390 C387 0.929 . S
S391 N392 1.613 . S
S391 N393 1.610 . S
N392 S391 1.613 . S
N392 C395 1.350 . S
N393 S391 1.610 . S
N393 C394 1.351 . S
C394 C388 1.428 . S
C394 N393 1.351 . S
C394 C395 1.434 . S
C395 C386 1.429 . S
C395 N392 1.350 . S
C395 C394 1.434 . S
C396 C397 1.369 . S
C396 C398 1.419 . S
C396 H400 0.930 . S
C397 C396 1.369 . S
C397 C406 1.429 . S
C398 C396 1.419 . S
C398 C399 1.363 . S
C398 H401 0.929 1_655 S
C399 C398 1.363 . S
C399 C405 1.428 . S
H400 C396 0.930 . S
H401 C398 0.929 1_455 S
S402 N403 1.613 . S
S402 N404 1.610 . S
N403 S402 1.613 . S
N403 C406 1.350 . S
N404 S402 1.610 . S
N404 C405 1.351 . S
C405 C399 1.428 . S
C405 N404 1.351 . S
C405 C406 1.434 . S
C406 C397 1.429 . S
C406 N403 1.350 . S
C406 C405 1.434 . S
C407 C408 1.369 . S
C407 C409 1.419 . S
C407 H411 0.930 . S
C408 C407 1.369 . S
C408 C417 1.429 . S
C409 C407 1.419 . S
C409 C410 1.363 . S
C409 H412 0.929 . S
C410 C409 1.363 . S
C410 C416 1.428 . S
H411 C407 0.930 . S
H412 C409 0.929 . S
S413 N414 1.613 . S
S413 N415 1.610 . S
N414 S413 1.613 . S
N414 C417 1.350 . S
N415 S413 1.610 . S
N415 C416 1.351 . S
C416 C410 1.428 . S
C416 N415 1.351 . S
C416 C417 1.434 . S
C417 C408 1.429 . S
C417 N414 1.350 . S
C417 C416 1.434 . S
C418 C419 1.369 . S
C418 C420 1.419 . S
C418 H422 0.930 . S
C419 C418 1.369 . S
C419 C428 1.429 . S
C420 C418 1.419 . S
C420 C421 1.363 . S
C420 H423 0.929 . S
C421 C420 1.363 . S
C421 C427 1.428 . S
H422 C418 0.930 . S
H423 C420 0.929 . S
S424 N425 1.613 . S
S424 N426 1.610 . S
N425 S424 1.613 . S
N425 C428 1.350 . S
N426 S424 1.610 . S
N426 C427 1.351 . S
C427 C421 1.428 . S
C427 N426 1.351 . S
C427 C428 1.434 . S
C428 C419 1.429 . S
C428 N425 1.350 . S
C428 C427 1.434 . S
C429 C430 1.369 . S
C429 C431 1.419 . S
C429 H433 0.930 . S
C430 C429 1.369 . S
C430 C439 1.429 . S
C431 C429 1.419 . S
C431 C432 1.363 . S
C431 H434 0.929 . S
C432 C431 1.363 . S
C432 C438 1.428 . S
H433 C429 0.930 . S
H434 C431 0.929 . S
S435 N436 1.613 . S
S435 N437 1.610 . S
N436 S435 1.613 . S
N436 C439 1.350 . S
N437 S435 1.610 . S
N437 C438 1.351 . S
C438 C432 1.428 . S
C438 N437 1.351 . S
C438 C439 1.434 . S
C439 C430 1.429 . S
C439 N436 1.350 . S
C439 C438 1.434 . S
C440 C441 1.369 . S
C440 C442 1.419 . S
C440 H444 0.930 . S
C441 C440 1.369 . S
C441 C450 1.429 . S
C442 C440 1.419 . S
C442 C443 1.363 . S
C442 H445 0.929 . S
C443 C442 1.363 . S
C443 C449 1.428 . S
H444 C440 0.930 . S
H445 C442 0.929 . S
S446 N447 1.613 . S
S446 N448 1.610 . S
N447 S446 1.613 . S
N447 C450 1.350 . S
N448 S446 1.610 . S
N448 C449 1.351 . S
C449 C443 1.428 . S
C449 N448 1.351 . S
C449 C450 1.434 . S
C450 C441 1.429 . S
C450 N447 1.350 . S
C450 C449 1.434 . S
C451 C452 1.369 . S
C451 C453 1.419 . S
C451 H455 0.930 . S
C452 C451 1.369 . S
C452 C461 1.429 . S
C453 C451 1.419 . S
C453 C454 1.363 . S
C453 H456 0.929 . S
C454 C453 1.363 . S
C454 C460 1.428 . S
H455 C451 0.930 . S
H456 C453 0.929 . S
S457 N458 1.613 . S
S457 N459 1.610 . S
N458 S457 1.613 . S
N458 C461 1.350 . S
N459 S457 1.610 . S
N459 C460 1.351 . S
C460 C454 1.428 . S
C460 N459 1.351 . S
C460 C461 1.434 . S
C461 C452 1.429 . S
C461 N458 1.350 . S
C461 C460 1.434 . S
C462 C463 1.369 . S
C462 C464 1.419 . S
C462 H466 0.930 . S
C463 C462 1.369 . S
C463 C472 1.429 . S
C464 C462 1.419 . S
C464 C465 1.363 . S
C464 H467 0.929 . S
C465 C464 1.363 . S
C465 C471 1.428 . S
H466 C462 0.930 . S
H467 C464 0.929 . S
S468 N469 1.613 . S
S468 N470 1.610 . S
N469 S468 1.613 . S
N469 C472 1.350 . S
N470 S468 1.610 . S
N470 C471 1.351 . S
C471 C465 1.428 . S
C471 N470 1.351 . S
C471 C472 1.434 . S
C472 C463 1.429 . S
C472 N469 1.350 . S
C472 C471 1.434 . S
C473 C474 1.369 . S
C473 C475 1.419 . S
C473 H477 0.930 . S
C474 C473 1.369 . S
C474 C483 1.429 . S
C475 C473 1.419 . S
C475 C476 1.363 . S
C475 H478 0.929 . S
C476 C475 1.363 . S
C476 C482 1.428 . S
H477 C473 0.930 . S
H478 C475 0.929 . S
S479 N480 1.613 . S
S479 N481 1.610 . S
N480 S479 1.613 . S
N480 C483 1.350 . S
N481 S479 1.610 . S
N481 C482 1.351 . S
C482 C476 1.428 . S
C482 N481 1.351 . S
C482 C483 1.434 . S
C483 C474 1.429 . S
C483 N480 1.350 . S
C483 C482 1.434 . S
C484 C485 1.369 . S
C484 C486 1.419 . S
C484 H488 0.930 . S
C485 C484 1.369 . S
C485 C494 1.429 . S
C486 C484 1.419 . S
C486 C487 1.363 . S
C486 H489 0.929 1_655 S
C487 C486 1.363 . S
C487 C493 1.428 1_556 S
H488 C484 0.930 . S
H489 C486 0.929 1_455 S
S490 N491 1.613 . S
S490 N492 1.610 . S
N491 S490 1.613 . S
N491 C494 1.350 1_554 S
N492 S490 1.610 . S
N492 C493 1.351 . S
C493 C487 1.428 1_554 S
C493 N492 1.351 . S
C493 C494 1.434 1_554 S
C494 C485 1.429 . S
C494 N491 1.350 1_556 S
C494 C493 1.434 1_556 S
C495 C496 1.369 . S
C495 C497 1.419 . S
C495 H499 0.930 . S
C496 C495 1.369 . S
C496 C505 1.429 . S
C497 C495 1.419 . S
C497 C498 1.363 . S
C497 H500 0.929 . S
C498 C497 1.363 . S
C498 C504 1.428 . S
H499 C495 0.930 . S
H500 C497 0.929 . S
S501 N502 1.613 . S
S501 N503 1.610 . S
N502 S501 1.613 . S
N502 C505 1.350 . S
N503 S501 1.610 . S
N503 C504 1.351 . S
C504 C498 1.428 . S
C504 N503 1.351 . S
C504 C505 1.434 . S
C505 C496 1.429 . S
C505 N502 1.350 . S
C505 C504 1.434 . S
C506 C507 1.369 . S
C506 C508 1.419 . S
C506 H510 0.930 . S
C507 C506 1.369 . S
C507 C516 1.429 . S
C508 C506 1.419 . S
C508 C509 1.363 . S
C508 H511 0.929 . S
C509 C508 1.363 . S
C509 C515 1.428 . S
H510 C506 0.930 . S
H511 C508 0.929 . S
S512 N513 1.613 . S
S512 N514 1.610 . S
N513 S512 1.613 . S
N513 C516 1.350 . S
N514 S512 1.610 . S
N514 C515 1.351 . S
C515 C509 1.428 . S
C515 N514 1.351 . S
C515 C516 1.434 . S
C516 C507 1.429 . S
C516 N513 1.350 . S
C516 C515 1.434 . S
C517 C518 1.369 . S
C517 C519 1.419 . S
C517 H521 0.930 . S
C518 C517 1.369 . S
C518 C527 1.429 . S
C519 C517 1.419 . S
C519 C520 1.363 . S
C519 H522 0.929 . S
C520 C519 1.363 . S
C520 C526 1.428 . S
H521 C517 0.930 . S
H522 C519 0.929 . S
S523 N524 1.613 . S
S523 N525 1.610 . S
N524 S523 1.613 . S
N524 C527 1.350 . S
N525 S523 1.610 . S
N525 C526 1.351 . S
C526 C520 1.428 . S
C526 N525 1.351 . S
C526 C527 1.434 . S
C527 C518 1.429 . S
C527 N524 1.350 . S
C527 C526 1.434 . S
C265 C9 3.236 . S
C267 C123 3.204 . S
C276 C21 1.989 . S
C278 C154 2.101 . S
C289 C193 1.062 . S
C287 C30 1.074 . S
C298 C43 0.766 . S
C300 C230 0.772 . S
C311 C153 2.659 . S
C309 C4 2.758 . S
C322 C110 1.611 . S
C320 C22 1.638 . S
C333 C242 1.159 . S
C331 C34 1.212 . S
C344 C199 1.132 . S
C342 C48 1.157 . S
C353 C8 2.378 . S
C355 C243 2.365 . S
C366 C159 1.484 . S
C364 C35 1.516 . S
C375 C47 0.455 . S
C377 C122 0.526 . S
C386 C17 1.878 . S
C388 C194 2.098 . S
C399 C114 2.800 . S
C397 C60 2.821 . S
C408 C74 2.273 . S
C410 C163 2.409 . S
C419 C82 1.100 . S
C421 C202 1.080 . S
C430 C100 0.888 . S
C432 C239 0.886 . S
C441 C61 3.156 . S
C443 C162 3.068 . S
C454 C119 1.292 . S
C452 C73 1.286 . S
C465 C233 1.583 . S
C463 C87 1.612 . S
C476 C190 1.075 . S
C474 C95 1.012 . S
C485 C56 2.425 . S
C487 C234 2.466 1_655 S
C498 C150 1.469 . S
C496 C86 1.460 . S
C509 C113 0.632 . S
C507 C99 0.436 . S
C518 C69 2.045 . S
C520 C203 2.141 . S
