# Generated by pormake.
# Topology anh, (6,3)-cn, num edge types: 1
# Building blocks:
#     Node 0, Type 0, BuildingBlock: HISSIN_clean_sbu_0, # of connection points: 6
#     Node 1, Type 0, BuildingBlock: HISSIN_clean_sbu_0, # of connection points: 6
#     Node 2, Type 0, BuildingBlock: HISSIN_clean_sbu_0, # of connection points: 6
#     Node 3, Type 1, BuildingBlock: QEWDON_clean_linker_0, # of connection points: 3
#     Node 4, Type 1, BuildingBlock: QEWDON_clean_linker_0, # of connection points: 3
#     Node 5, Type 1, BuildingBlock: QEWDON_clean_linker_0, # of connection points: 3
#     Node 6, Type 1, BuildingBlock: QEWDON_clean_linker_0, # of connection points: 3
#     Node 7, Type 1, BuildingBlock: QEWDON_clean_linker_0, # of connection points: 3
#     Node 8, Type 1, BuildingBlock: QEWDON_clean_linker_0, # of connection points: 3
#     Edge 9, Type (0, 1), BuildingBlock: OJICUG_clean_linker_0, # of connection points: 2
#     Edge 10, Type (0, 1), BuildingBlock: OJICUG_clean_linker_0, # of connection points: 2
#     Edge 11, Type (0, 1), BuildingBlock: OJICUG_clean_linker_0, # of connection points: 2
#     Edge 12, Type (0, 1), BuildingBlock: OJICUG_clean_linker_0, # of connection points: 2
#     Edge 13, Type (0, 1), BuildingBlock: OJICUG_clean_linker_0, # of connection points: 2
#     Edge 14, Type (0, 1), BuildingBlock: OJICUG_clean_linker_0, # of connection points: 2
#     Edge 15, Type (0, 1), BuildingBlock: OJICUG_clean_linker_0, # of connection points: 2
#     Edge 16, Type (0, 1), BuildingBlock: OJICUG_clean_linker_0, # of connection points: 2
#     Edge 17, Type (0, 1), BuildingBlock: OJICUG_clean_linker_0, # of connection points: 2
#     Edge 18, Type (0, 1), BuildingBlock: OJICUG_clean_linker_0, # of connection points: 2
#     Edge 19, Type (0, 1), BuildingBlock: OJICUG_clean_linker_0, # of connection points: 2
#     Edge 20, Type (0, 1), BuildingBlock: OJICUG_clean_linker_0, # of connection points: 2
#     Edge 21, Type (0, 1), BuildingBlock: OJICUG_clean_linker_0, # of connection points: 2
#     Edge 22, Type (0, 1), BuildingBlock: OJICUG_clean_linker_0, # of connection points: 2
#     Edge 23, Type (0, 1), BuildingBlock: OJICUG_clean_linker_0, # of connection points: 2
#     Edge 24, Type (0, 1), BuildingBlock: OJICUG_clean_linker_0, # of connection points: 2
#     Edge 25, Type (0, 1), BuildingBlock: OJICUG_clean_linker_0, # of connection points: 2
#     Edge 26, Type (0, 1), BuildingBlock: OJICUG_clean_linker_0, # of connection points: 2
# Relax obj value: 0.326
# Max RMSD: 0.146
# Mean RMSD: 0.121
data_MOF--net-anh--node1-HISSIN_clean_sbu_0--node2-QEWDON_clean_linker_0--edge1-OJICUG_clean_linker_0
_symmetry_space_group_name_H-M    P1
_symmetry_Int_Tables_number       1
_symmetry_cell_setting            triclinic
loop_
_symmetry_equiv_pos_as_xyz
'x, y, z'
_cell_length_a     23.596494
_cell_length_b     23.327788
_cell_length_c     36.303019
_cell_angle_alpha  95.319576
_cell_angle_beta   92.074787
_cell_angle_gamma 120.10412
loop_
_atom_site_label
_atom_site_type_symbol
_atom_site_fract_x
_atom_site_fract_y
_atom_site_fract_z
_atom_type_partial_charge
Eu0 Eu 1.14076 0.5106 0.12756 0.0
Eu1 Eu 0.21992 0.67132 0.14078 0.0
C2 C 1.17293 0.59192 0.20946 0.0
C3 C 0.9894 0.35669 0.12473 0.0
C4 C 0.97408 0.35897 0.16174 0.0
C5 C 0.89041 0.35802 0.10481 0.0
C6 C 0.92098 0.36669 0.17029 0.0
C7 C 0.9438 0.3505 0.0962 0.0
C8 C 0.8815 0.37084 0.14202 0.0
C9 C 1.0591 0.38364 0.11735 0.0
O10 O 0.30051 0.64448 0.13155 0.0
O11 O 0.24682 0.5325 0.13775 0.0
C12 C 0.30158 0.58863 0.13377 0.0
O13 O 0.19289 0.54763 0.07657 0.0
O14 O 0.29308 0.76452 0.12202 0.0
O15 O 0.24657 0.76657 0.17245 0.0
O16 O 0.18072 0.63788 0.08121 0.0
C17 C 0.19518 0.59781 0.06187 0.0
O18 O 1.06358 0.53869 0.11185 0.0
O19 O 1.11208 0.64579 0.14112 0.0
O20 O 0.22439 0.63929 0.1965 0.0
O21 O 1.07677 0.41963 0.08988 0.0
O22 O 1.10264 0.4125 0.14641 0.0
O23 O 1.12735 0.54106 0.18667 0.0
C24 C 0.28587 0.86089 0.13953 0.0
C25 C 0.23135 0.86898 0.14416 0.0
C26 C 0.35093 0.97665 0.1294 0.0
C27 C 0.23774 0.93181 0.14315 0.0
C28 C 0.34435 0.91408 0.13021 0.0
C29 C 0.29891 0.98736 0.138 0.0
C30 C 0.28672 0.80143 0.14888 0.0
C31 C 1.05941 0.59137 0.1242 0.0
H32 H 1.00709 0.36236 0.18446 0.0
H33 H 0.85986 0.35978 0.08245 0.0
H34 H 0.91346 0.37394 0.19923 0.0
H35 H 0.95356 0.34776 0.06735 0.0
H36 H 0.18521 0.82802 0.15077 0.0
H37 H 0.39909 1.0177 0.12562 0.0
H38 H 0.19624 0.93783 0.14907 0.0
H39 H 0.3868 0.90859 0.12631 0.0
Eu40 Eu 0.63239 1.07345 0.44962 0.0
Eu41 Eu 0.54908 0.13973 0.4796 0.0
C42 C 0.62658 1.10144 0.53936 0.0
C43 C 0.75858 1.02044 0.42616 0.0
C44 C 0.79001 1.03099 0.46174 0.0
C45 C 0.84472 1.00744 0.39913 0.0
C46 C 0.84708 1.02724 0.46603 0.0
C47 C 0.78736 1.01071 0.3949 0.0
C48 C 0.87399 1.01332 0.43479 0.0
C49 C 0.69426 1.01582 0.42107 0.0
O50 O 0.64793 0.22465 0.46332 0.0
O51 O 0.71434 0.18002 0.46774 0.0
C52 C 0.70758 0.23207 0.46488 0.0
O53 O 0.61402 0.12299 0.40305 0.0
O54 O 0.54026 0.21337 0.51673 0.0
O55 O 0.4669 0.15647 0.47022 0.0
O56 O 0.51517 1.10065 0.41994 0.0
C57 C 0.55757 1.11933 0.39542 0.0
O58 O 0.52362 0.98875 0.44306 0.0
O59 O 0.4759 1.03012 0.48308 0.0
O60 O 0.58221 1.11828 0.53252 0.0
O61 O 0.65548 0.99386 0.44749 0.0
O62 O 0.6937 1.06568 0.40802 0.0
O63 O 0.65492 1.08622 0.51253 0.0
C64 C 0.50709 0.27195 0.48158 0.0
C65 C 0.53148 0.28568 0.44672 0.0
C66 C 0.54349 0.38896 0.49789 0.0
C67 C 0.56441 0.35118 0.43823 0.0
C68 C 0.51021 0.32337 0.50624 0.0
C69 C 0.57439 0.40407 0.46472 0.0
C70 C 0.49249 0.20902 0.49513 0.0
C71 C 0.47308 0.97965 0.46174 0.0
H72 H 0.76902 1.03937 0.48628 0.0
H73 H 0.86466 0.99764 0.37451 0.0
H74 H 0.86764 1.03121 0.49393 0.0
H75 H 0.76416 1.00329 0.36719 0.0
H76 H 0.52999 0.24673 0.42725 0.0
H77 H 0.55057 0.42823 0.51922 0.0
H78 H 0.5867 0.36093 0.41225 0.0
H79 H 0.49216 0.3138 0.53334 0.0
Eu80 Eu 0.692 0.59418 0.78869 0.0
Eu81 Eu 0.84877 0.66326 0.80994 0.0
C82 C 0.75324 0.62692 0.87437 0.0
C83 C 0.54437 0.59137 0.7536 0.0
C84 C 0.58305 0.63793 0.72994 0.0
C85 C 0.49728 0.65998 0.7717 0.0
C86 C 0.58311 0.6978 0.73 0.0
C87 C 0.49721 0.60003 0.77174 0.0
C88 C 0.54468 0.71148 0.75365 0.0
C89 C 0.56894 0.55093 0.76925 0.0
O90 O 0.81127 0.55132 0.8077 0.0
O91 O 0.71042 0.50776 0.77488 0.0
C92 C 0.75875 0.50039 0.78844 0.0
O93 O 0.74276 0.6426 0.7395 0.0
O94 O 0.93086 0.6776 0.84668 0.0
O95 O 0.94943 0.7268 0.79688 0.0
O96 O 0.83077 0.62944 0.74876 0.0
C97 C 0.7933 0.64091 0.72705 0.0
O98 O 0.72632 0.70568 0.7948 0.0
O99 O 0.83908 0.75432 0.80195 0.0
O100 O 0.80774 0.67378 0.86339 0.0
O101 O 0.60501 0.53567 0.74868 0.0
O102 O 0.59539 0.57322 0.80354 0.0
O103 O 0.7052 0.58261 0.84972 0.0
C104 C 1.01602 0.68163 0.81245 0.0
C105 C 1.04919 0.69788 0.7802 0.0
C106 C 1.06718 0.61701 0.8257 0.0
C107 C 1.09261 0.67553 0.77144 0.0
C108 C 1.0239 0.63921 0.8344 0.0
C109 C 1.10415 0.63716 0.795 0.0
C110 C 0.97375 0.70894 0.8234 0.0
C111 C 0.78583 0.75888 0.79704 0.0
H112 H 0.61966 0.63253 0.71534 0.0
H113 H 0.46731 0.66977 0.79029 0.0
H114 H 0.61924 0.73664 0.71548 0.0
H115 H 0.46698 0.565 0.79015 0.0
H116 H 1.04345 0.72981 0.76243 0.0
H117 H 1.0755 0.5886 0.84495 0.0
H118 H 1.12021 0.6917 0.74756 0.0
H119 H 0.99869 0.62524 0.85926 0.0
H120 H 0.60076 0.33982 0.2878 0.0
C121 C 0.55467 0.31006 0.27039 0.0
C122 C 0.509 0.24575 0.2781 0.0
C123 C 0.54273 0.33478 0.23898 0.0
H124 H 0.41794 0.15589 0.25879 0.0
C125 C 0.45104 0.20713 0.25425 0.0
C126 C 0.43891 0.23072 0.22236 0.0
C127 C 0.48492 0.29521 0.2151 0.0
C128 C 0.59695 0.3947 0.22667 0.0
H129 H 0.47799 0.31293 0.1897 0.0
C130 C 0.64115 0.38715 0.20505 0.0
C131 C 0.69676 0.44298 0.19488 0.0
C132 C 0.60718 0.45858 0.23766 0.0
H133 H 0.57344 0.46505 0.2546 0.0
C134 C 0.66218 0.51462 0.22733 0.0
H135 H 0.63359 0.33749 0.19765 0.0
C136 C 0.70719 0.50708 0.20632 0.0
H137 H 0.75038 0.55114 0.19949 0.0
H138 H 0.67072 0.56406 0.23632 0.0
H139 H 0.94961 0.76506 0.58335 0.0
C140 C 0.90886 0.73014 0.56322 0.0
C141 C 0.84886 0.68398 0.57559 0.0
C142 C 0.91436 0.73462 0.52495 0.0
H143 H 0.74949 0.60467 0.55904 0.0
C144 C 0.79541 0.64146 0.54956 0.0
C145 C 0.80053 0.64443 0.51149 0.0
C146 C 0.8603 0.69024 0.49912 0.0
C147 C 0.97203 0.79199 0.51227 0.0
H148 H 0.86406 0.69289 0.46957 0.0
C149 C 0.96111 0.83187 0.48987 0.0
C150 C 1.0135 0.89145 0.48074 0.0
C151 C 1.03688 0.81118 0.52473 0.0
H152 H 1.04652 0.78125 0.54221 0.0
C153 C 1.08969 0.86991 0.51494 0.0
H154 H 0.911 0.81869 0.48143 0.0
C155 C 1.07812 0.91064 0.4935 0.0
H156 H 1.11919 0.95704 0.48719 0.0
H157 H 1.13959 0.88468 0.52473 0.0
H158 H 0.4227 0.77461 0.96153 0.0
C159 C 0.39703 0.74575 0.93501 0.0
C160 C 0.33631 0.68602 0.93364 0.0
C161 C 0.42404 0.76828 0.90195 0.0
H162 H 0.25213 0.60894 0.89893 0.0
C163 C 0.3016 0.65104 0.89923 0.0
C164 C 0.3263 0.67514 0.86588 0.0
C165 C 0.38927 0.73142 0.86765 0.0
C166 C 0.48513 0.83313 0.90133 0.0
H167 H 0.40907 0.75003 0.84203 0.0
C168 C 0.52885 0.83521 0.876 0.0
C169 C 0.56985 0.89409 0.86118 0.0
C170 C 0.49141 0.89344 0.9174 0.0
H171 H 0.45784 0.8933 0.93701 0.0
C172 C 0.5375 0.954 0.90541 0.0
H173 H 0.52357 0.78842 0.86345 0.0
C174 C 0.57473 0.9541 0.8761 0.0
H175 H 0.60518 0.99987 0.86444 0.0
H176 H 0.54082 1.00018 0.91696 0.0
H177 H 1.06082 0.56617 0.37509 0.0
C178 C 1.1065 0.60713 0.38918 0.0
C179 C 1.16039 0.64192 0.36828 0.0
C180 C 1.10961 0.62839 0.42742 0.0
H181 H 0.26056 0.72241 0.37034 0.0
C182 C 0.21915 0.69651 0.38638 0.0
C183 C 0.22528 0.72064 0.42402 0.0
C184 C 1.16991 0.68604 0.4444 0.0
C185 C 1.0479 0.59614 0.44826 0.0
H186 H 1.17416 0.70402 0.47351 0.0
C187 C 0.99732 0.52637 0.44183 0.0
C188 C 0.93865 0.5011 0.46093 0.0
C189 C 1.03758 0.6382 0.47404 0.0
H190 H 1.0724 0.69135 0.47917 0.0
C191 C 0.9813 0.6136 0.49291 0.0
H192 H 1.003 0.49244 0.42198 0.0
C193 C 0.9327 0.54645 0.48648 0.0
H194 H 0.88974 0.52978 0.50183 0.0
H195 H 0.97489 0.64728 0.51255 0.0
H196 H 0.72321 1.06837 0.70829 0.0
C197 C 0.73245 1.11738 0.71923 0.0
C198 C 0.71884 0.1545 0.69546 0.0
C199 C 0.75324 0.14139 0.7574 0.0
H200 H 0.71552 0.24406 0.69115 0.0
C201 C 0.72645 0.21634 0.70975 0.0
C202 C 0.74735 0.24297 0.74723 0.0
C203 C 0.76271 0.20602 0.77055 0.0
C204 C 0.75817 1.09698 0.78435 0.0
H205 H 0.78004 0.22713 0.79928 0.0
C206 C 0.77328 1.04505 0.77452 0.0
C207 C 0.77703 1.00584 0.80179 0.0
C208 C 0.74408 1.10525 0.82121 0.0
H209 H 0.72839 0.14022 0.83004 0.0
C210 C 0.74779 1.06746 0.84759 0.0
H211 H 0.78328 1.03602 0.74639 0.0
C212 C 0.76436 1.01906 0.8382 0.0
H213 H 0.76527 0.99022 0.8597 0.0
H214 H 0.73674 1.0752 0.87567 0.0
H215 H 0.6658 0.60761 0.04441 0.0
C216 C 0.70447 0.6008 0.05622 0.0
C217 C 0.75069 0.59979 0.0328 0.0
C218 C 0.71056 0.59767 0.09485 0.0
H219 H 0.83836 0.59303 0.02988 0.0
C220 C 0.80303 0.5937 0.04795 0.0
C221 C 0.81182 0.59006 0.08594 0.0
C222 C 0.76506 0.59171 0.1091 0.0
C223 C 0.66399 0.60615 0.12059 0.0
H224 H 0.77139 0.58746 0.13813 0.0
C225 C 0.59831 0.59192 0.10895 0.0
C226 C 0.55894 0.60338 0.13474 0.0
C227 C 0.68765 0.63284 0.15806 0.0
H228 H 0.73723 0.648 0.16857 0.0
C229 C 0.64913 0.64309 0.183 0.0
H230 H 0.5778 0.57216 0.08044 0.0
C231 C 0.58585 0.62834 0.17164 0.0
H232 H 0.55787 0.63774 0.1919 0.0
H233 H 0.66908 0.66373 0.21154 0.0
C234 C 0.42308 0.64619 0.12102 0.0
C235 C 0.36626 0.5892 0.1302 0.0
H236 H 0.52676 0.69442 0.11388 0.0
C237 C 0.37268 0.53343 0.13581 0.0
H238 H 0.42113 0.69033 0.11624 0.0
C239 C 0.43385 0.53576 0.13396 0.0
C240 C 0.49085 0.59333 0.12561 0.0
H241 H 0.33084 0.48841 0.14289 0.0
H242 H 0.43728 0.49331 0.1408 0.0
C243 C 0.48394 0.64825 0.11893 0.0
C244 C 0.76078 0.35358 0.4527 0.0
C245 C 0.76769 0.29951 0.46107 0.0
H246 H 0.80809 0.45691 0.44432 0.0
C247 C 0.83268 0.31091 0.46517 0.0
H248 H 0.71226 0.3475 0.44871 0.0
C249 C 0.88843 0.37467 0.4626 0.0
C250 C 0.88121 0.42925 0.45557 0.0
H251 H 0.84073 0.27087 0.47133 0.0
H252 H 0.93722 0.38192 0.46777 0.0
C253 C 0.81615 0.41671 0.44991 0.0
C254 C 0.83215 0.88125 0.82103 0.0
C255 C 0.79256 0.82622 0.79415 0.0
H256 H 0.8601 0.98107 0.84376 0.0
C257 C 0.75726 0.8357 0.7654 0.0
H258 H 0.86112 0.87668 0.84317 0.0
C259 C 0.75671 0.89628 0.76547 0.0
C260 C 0.79137 0.94919 0.79451 0.0
H261 H 0.72797 0.79509 0.74356 0.0
H262 H 0.7252 0.8996 0.74437 0.0
C263 C 0.83147 0.9414 0.82125 0.0
C264 C 0.94248 0.53721 0.09242 0.0
C265 C 0.99407 0.58923 0.11717 0.0
H266 H 0.8461 0.49644 0.06363 0.0
C267 C 0.98207 0.63872 0.1342 0.0
H268 H 0.94867 0.49779 0.07863 0.0
C269 C 0.92175 0.637 0.12605 0.0
C270 C 0.87147 0.58632 0.10012 0.0
H271 H 1.01974 0.67952 0.15357 0.0
H272 H 0.91558 0.67705 0.13892 0.0
C273 C 0.88298 0.53619 0.08383 0.0
C274 C 0.35 0.90161 0.46867 0.0
C275 C 0.41024 0.91157 0.45639 0.0
H276 H 0.24519 0.83468 0.46876 0.0
C277 C 0.40921 0.85563 0.43724 0.0
H278 H 0.34813 0.94294 0.48358 0.0
C279 C 0.3504 0.79338 0.42928 0.0
C280 C 0.28938 0.78398 0.43968 0.0
H281 H 0.45397 0.86008 0.42759 0.0
H282 H 0.35252 0.75264 0.41378 0.0
C283 C 0.29064 0.83899 0.46042 0.0
C284 C 0.7007 0.37953 0.75829 0.0
C285 C 0.75472 0.43331 0.78056 0.0
H286 H 0.65549 0.27886 0.73132 0.0
C287 C 0.8052 0.42235 0.79387 0.0
H288 H 0.66048 0.38497 0.74752 0.0
C289 C 0.80226 0.36042 0.78447 0.0
C290 C 0.74907 0.30752 0.76112 0.0
H291 H 0.84776 0.46207 0.81111 0.0
H292 H 0.84275 0.35479 0.79451 0.0
C293 C 0.69798 0.31819 0.7488 0.0
C294 C 0.91843 0.938 0.41822 0.0
C295 C 0.92532 0.99479 0.43983 0.0
H296 H 0.94331 0.86133 0.41403 0.0
C297 C 0.97453 1.02602 0.46989 0.0
H298 H 0.88095 0.91231 0.395 0.0
C299 C 1.01035 0.99643 0.48076 0.0
C300 C 0.99737 0.93535 0.46167 0.0
H301 H 0.98196 1.07057 0.48664 0.0
H302 H 1.04324 1.01773 0.50613 0.0
C303 C 0.95417 0.9086 0.42906 0.0
C304 C 0.22446 0.69213 0.79228 0.0
C305 C 1.16471 0.63298 0.79412 0.0
H306 H 0.3241 0.75247 0.81387 0.0
C307 C 1.16636 0.57881 0.80706 0.0
H308 H 0.22553 0.73458 0.78175 0.0
C309 C 0.22415 0.58891 0.82565 0.0
C310 C 0.28017 0.65336 0.83163 0.0
H311 H 1.12128 0.53155 0.80736 0.0
H312 H 0.22227 0.54881 0.83941 0.0
C313 C 0.28184 0.70243 0.81106 0.0
C314 C 0.36553 1.11103 0.13555 0.0
C315 C 0.31418 1.0568 0.15016 0.0
H316 H 0.44699 0.21071 0.14772 0.0
C317 C 0.29091 1.0699 0.18319 0.0
H318 H 0.38286 1.10341 0.10936 0.0
C319 C 0.32639 0.1323 0.20462 0.0
C320 C 0.3861 0.18183 0.19364 0.0
H321 H 0.25078 1.03013 0.19521 0.0
H322 H 0.31195 0.13864 0.23201 0.0
C323 C 0.40192 0.17306 0.1574 0.0
C324 C 0.68928 0.48463 0.45184 0.0
C325 C 0.62796 0.47349 0.46234 0.0
H326 H 0.79391 0.55064 0.45899 0.0
C327 C 0.62396 0.528 0.47903 0.0
H328 H 0.69432 0.44412 0.43863 0.0
C329 C 0.68131 0.58874 0.4909 0.0
C330 C 0.7431 0.59586 0.48569 0.0
H331 H 0.57728 0.52163 0.48648 0.0
H332 H 0.67772 0.62752 0.50766 0.0
C333 C 0.7466 0.54567 0.46344 0.0
C334 C 0.6223 0.80534 0.79948 0.0
C335 C 0.57065 0.78046 0.77117 0.0
H336 H 0.66853 0.87018 0.85007 0.0
C337 C 0.53602 0.81406 0.76709 0.0
H338 H 0.64778 0.77841 0.80396 0.0
C339 C 0.54825 0.86735 0.79377 0.0
C340 C 0.59297 0.8849 0.82532 0.0
H341 H 0.49527 0.79487 0.74579 0.0
H342 H 0.51477 0.8864 0.79312 0.0
C343 C 0.6348 0.85861 0.82576 0.0
C344 C 0.85684 0.45054 0.17844 0.0
C345 C 0.83564 0.39445 0.15169 0.0
H346 H 0.82947 0.51074 0.21266 0.0
C347 C 0.77074 0.36108 0.13506 0.0
H348 H 0.90732 0.47846 0.19084 0.0
C349 C 0.72637 0.38011 0.14724 0.0
C350 C 0.74636 0.43305 0.17604 0.0
H351 H 0.75352 0.31838 0.11397 0.0
H352 H 0.67564 0.35155 0.1353 0.0
C353 C 0.81264 0.46978 0.19046 0.0
C354 C 0.24096 0.57539 0.00488 0.0
C355 C 0.2289 0.61888 0.02812 0.0
H356 H 0.28537 0.56317 0.95653 0.0
C357 C 0.25469 0.68522 0.0208 0.0
H358 H 0.22215 0.52423 0.01009 0.0
C359 C 0.2921 0.70775 -0.00905 0.0
C360 C 0.30358 0.66415 0.96758 0.0
H361 H 0.24697 0.72027 0.03846 0.0
H362 H 0.31068 0.75881 -0.01444 0.0
C363 C 0.27752 0.59772 0.97459 0.0
C364 C 0.48368 0.14276 0.35705 0.0
C365 C 0.54554 0.14849 0.36361 0.0
H366 H 0.42467 0.17076 0.32615 0.0
C367 C 0.59632 0.18793 0.34228 0.0
H368 H 0.44354 1.11341 0.3732 0.0
C369 C 0.58526 0.22109 0.31504 0.0
C370 C 0.52326 0.21531 0.30871 0.0
H371 H 0.64475 0.19408 0.34701 0.0
H372 H 0.62487 0.2503 0.29857 0.0
C373 C 0.47281 0.17589 0.33014 0.0
C374 C 0.76912 0.66655 0.66522 0.0
C375 C 0.80985 0.65516 0.68886 0.0
H376 H 0.7507 0.68612 0.61105 0.0
C377 C 0.86688 0.6587 0.67582 0.0
H378 H 0.72534 0.66507 0.6745 0.0
C379 C 0.88167 0.67134 0.63941 0.0
C380 C 0.83943 0.68018 0.61549 0.0
H381 H 0.89968 0.6509 0.69355 0.0
H382 H 0.92463 0.67173 0.62954 0.0
C383 C 0.78375 0.67886 0.62894 0.0
C384 C 0.6087 1.10991 0.60678 0.0
C385 C 0.64658 1.10374 0.57927 0.0
H386 H 0.60152 0.1295 0.66468 0.0
C387 C 0.70526 1.10562 0.59084 0.0
H388 H 0.56283 1.10787 0.59923 0.0
C389 C 0.72728 1.11767 0.62894 0.0
C390 C 0.69099 0.12802 0.65601 0.0
H391 H 0.73566 1.10099 0.5705 0.0
H392 H 0.77426 1.12254 0.6371 0.0
C393 C 0.63063 1.122 0.64446 0.0
C394 C 0.69145 0.57554 0.92968 0.0
C395 C 0.7492 0.62229 0.91521 0.0
H396 H 0.64606 0.53221 -0.02177 0.0
C397 C 0.80546 0.66361 0.94026 0.0
H398 H 0.64715 0.54294 0.91135 0.0
C399 C 0.8049 0.65702 -0.0218 0.0
C400 C 0.74796 0.60935 -0.00738 0.0
H401 H 0.85093 0.70036 0.9305 0.0
H402 H 0.84964 0.68905 -0.00365 0.0
C403 C 0.69071 0.56951 0.96802 0.0
C404 C 0.19079 0.66691 0.26743 0.0
C405 C 1.16408 0.60154 0.2495 0.0
H406 H 0.20703 0.73029 0.31759 0.0
C407 C 1.13011 0.54794 0.27023 0.0
H408 H 0.21555 0.70938 0.25216 0.0
C409 C 1.12662 0.5601 0.3087 0.0
C410 C 1.15614 0.62606 0.32686 0.0
H411 H 1.1083 0.49691 0.25704 0.0
H412 H 1.10284 0.51814 0.32438 0.0
C413 C 0.18602 0.6789 0.30519 0.0
loop_
_geom_bond_atom_site_label_1
_geom_bond_atom_site_label_2
_geom_bond_distance
_geom_bond_site_symmetry_2
_ccdc_geom_bond_type
Eu0 C9 2.828 . S
Eu0 O11 2.392 1_655 S
Eu0 O13 2.418 . S
Eu0 O18 2.373 . S
Eu0 O21 2.488 . S
Eu0 O22 2.471 . S
Eu0 O23 2.349 1_655 S
Eu1 O10 2.373 . S
Eu1 O14 2.488 . S
Eu1 O15 2.471 . S
Eu1 O16 2.349 . S
Eu1 O19 2.392 1_455 S
Eu1 O20 2.418 . S
Eu1 C30 2.828 . S
C2 O20 1.244 . S
C2 O23 1.265 . S
C3 C4 1.379 . S
C3 C7 1.373 . S
C3 C9 1.505 . S
C4 C3 1.379 . S
C4 C6 1.369 . S
C4 H32 0.930 . S
C5 C7 1.383 . S
C5 C8 1.382 . S
C5 H33 0.930 . S
C6 C4 1.369 . S
C6 C8 1.392 . S
C6 H34 0.930 . S
C7 C3 1.373 . S
C7 C5 1.383 . S
C7 H35 0.931 . S
C8 C5 1.382 . S
C8 C6 1.392 . S
C9 Eu0 2.828 . S
C9 C3 1.505 . S
C9 O21 1.249 . S
C9 O22 1.244 . S
O10 Eu1 2.373 . S
O10 C12 1.258 . S
O11 Eu0 2.392 1_455 S
O11 C12 1.242 . S
C12 O10 1.258 . S
C12 O11 1.242 . S
O13 Eu0 2.418 . S
O13 C17 1.244 1_655 S
O14 Eu1 2.488 . S
O14 C30 1.249 . S
O15 Eu1 2.471 . S
O15 C30 1.244 . S
O16 Eu1 2.349 . S
O16 C17 1.265 . S
C17 O13 1.244 1_455 S
C17 O16 1.265 . S
O18 Eu0 2.373 . S
O18 C31 1.258 . S
O19 Eu1 2.392 1_655 S
O19 C31 1.242 . S
O20 Eu1 2.418 . S
O20 C2 1.244 . S
O21 Eu0 2.488 . S
O21 C9 1.249 . S
O22 Eu0 2.471 . S
O22 C9 1.244 . S
O23 Eu0 2.349 1_455 S
O23 C2 1.265 . S
C24 C25 1.379 . S
C24 C28 1.373 . S
C24 C30 1.505 . S
C25 C24 1.379 . S
C25 C27 1.369 . S
C25 H36 0.930 . S
C26 C28 1.383 . S
C26 C29 1.382 . S
C26 H37 0.930 . S
C27 C25 1.369 . S
C27 C29 1.392 . S
C27 H38 0.930 . S
C28 C24 1.373 . S
C28 C26 1.383 . S
C28 H39 0.931 . S
C29 C26 1.382 . S
C29 C27 1.392 . S
C30 Eu1 2.828 . S
C30 O14 1.249 . S
C30 O15 1.244 . S
C30 C24 1.505 . S
C31 O18 1.258 . S
C31 O19 1.242 . S
H32 C4 0.930 . S
H33 C5 0.930 . S
H34 C6 0.930 . S
H35 C7 0.931 . S
H36 C25 0.930 . S
H37 C26 0.930 . S
H38 C27 0.930 . S
H39 C28 0.931 . S
Eu40 C49 2.828 . S
Eu40 O51 2.392 1_565 S
Eu40 O53 2.418 . S
Eu40 O58 2.373 . S
Eu40 O61 2.488 . S
Eu40 O62 2.471 . S
Eu40 O63 2.349 1_565 S
Eu41 O50 2.373 . S
Eu41 O54 2.488 . S
Eu41 O55 2.471 . S
Eu41 O56 2.349 . S
Eu41 O59 2.392 1_545 S
Eu41 O60 2.418 . S
Eu41 C70 2.828 . S
C42 O60 1.244 . S
C42 O63 1.265 . S
C43 C44 1.379 . S
C43 C47 1.373 . S
C43 C49 1.505 . S
C44 C43 1.379 . S
C44 C46 1.369 . S
C44 H72 0.930 . S
C45 C47 1.383 . S
C45 C48 1.382 . S
C45 H73 0.930 . S
C46 C44 1.369 . S
C46 C48 1.392 . S
C46 H74 0.930 . S
C47 C43 1.373 . S
C47 C45 1.383 . S
C47 H75 0.931 . S
C48 C45 1.382 . S
C48 C46 1.392 . S
C49 Eu40 2.828 . S
C49 C43 1.505 . S
C49 O61 1.249 . S
C49 O62 1.244 . S
O50 Eu41 2.373 . S
O50 C52 1.258 . S
O51 Eu40 2.392 1_545 S
O51 C52 1.242 . S
C52 O50 1.258 . S
C52 O51 1.242 . S
O53 Eu40 2.418 . S
O53 C57 1.244 1_565 S
O54 Eu41 2.488 . S
O54 C70 1.249 . S
O55 Eu41 2.471 . S
O55 C70 1.244 . S
O56 Eu41 2.349 . S
O56 C57 1.265 . S
C57 O53 1.244 1_545 S
C57 O56 1.265 . S
O58 Eu40 2.373 . S
O58 C71 1.258 . S
O59 Eu41 2.392 1_565 S
O59 C71 1.242 . S
O60 Eu41 2.418 . S
O60 C42 1.244 . S
O61 Eu40 2.488 . S
O61 C49 1.249 . S
O62 Eu40 2.471 . S
O62 C49 1.244 . S
O63 Eu40 2.349 1_545 S
O63 C42 1.265 . S
C64 C65 1.379 . S
C64 C68 1.373 . S
C64 C70 1.505 . S
C65 C64 1.379 . S
C65 C67 1.369 . S
C65 H76 0.930 . S
C66 C68 1.383 . S
C66 C69 1.382 . S
C66 H77 0.930 . S
C67 C65 1.369 . S
C67 C69 1.392 . S
C67 H78 0.930 . S
C68 C64 1.373 . S
C68 C66 1.383 . S
C68 H79 0.931 . S
C69 C66 1.382 . S
C69 C67 1.392 . S
C70 Eu41 2.828 . S
C70 O54 1.249 . S
C70 O55 1.244 . S
C70 C64 1.505 . S
C71 O58 1.258 . S
C71 O59 1.242 . S
H72 C44 0.930 . S
H73 C45 0.930 . S
H74 C46 0.930 . S
H75 C47 0.931 . S
H76 C65 0.930 . S
H77 C66 0.930 . S
H78 C67 0.930 . S
H79 C68 0.931 . S
Eu80 C89 2.828 . S
Eu80 O91 2.392 . S
Eu80 O93 2.418 . S
Eu80 O98 2.373 . S
Eu80 O101 2.488 . S
Eu80 O102 2.471 . S
Eu80 O103 2.349 . S
Eu81 O90 2.373 . S
Eu81 O94 2.488 . S
Eu81 O95 2.471 . S
Eu81 O96 2.349 . S
Eu81 O99 2.392 . S
Eu81 O100 2.418 . S
Eu81 C110 2.828 . S
C82 O100 1.244 . S
C82 O103 1.265 . S
C83 C84 1.379 . S
C83 C87 1.373 . S
C83 C89 1.505 . S
C84 C83 1.379 . S
C84 C86 1.369 . S
C84 H112 0.930 . S
C85 C87 1.383 . S
C85 C88 1.382 . S
C85 H113 0.930 . S
C86 C84 1.369 . S
C86 C88 1.392 . S
C86 H114 0.930 . S
C87 C83 1.373 . S
C87 C85 1.383 . S
C87 H115 0.931 . S
C88 C85 1.382 . S
C88 C86 1.392 . S
C89 Eu80 2.828 . S
C89 C83 1.505 . S
C89 O101 1.249 . S
C89 O102 1.244 . S
O90 Eu81 2.373 . S
O90 C92 1.258 . S
O91 Eu80 2.392 . S
O91 C92 1.242 . S
C92 O90 1.258 . S
C92 O91 1.242 . S
O93 Eu80 2.418 . S
O93 C97 1.244 . S
O94 Eu81 2.488 . S
O94 C110 1.249 . S
O95 Eu81 2.471 . S
O95 C110 1.244 . S
O96 Eu81 2.349 . S
O96 C97 1.265 . S
C97 O93 1.244 . S
C97 O96 1.265 . S
O98 Eu80 2.373 . S
O98 C111 1.258 . S
O99 Eu81 2.392 . S
O99 C111 1.242 . S
O100 Eu81 2.418 . S
O100 C82 1.244 . S
O101 Eu80 2.488 . S
O101 C89 1.249 . S
O102 Eu80 2.471 . S
O102 C89 1.244 . S
O103 Eu80 2.349 . S
O103 C82 1.265 . S
C104 C105 1.379 . S
C104 C108 1.373 . S
C104 C110 1.505 . S
C105 C104 1.379 . S
C105 C107 1.369 . S
C105 H116 0.930 . S
C106 C108 1.383 . S
C106 C109 1.382 . S
C106 H117 0.930 . S
C107 C105 1.369 . S
C107 C109 1.392 . S
C107 H118 0.930 . S
C108 C104 1.373 . S
C108 C106 1.383 . S
C108 H119 0.931 . S
C109 C106 1.382 . S
C109 C107 1.392 . S
C110 Eu81 2.828 . S
C110 O94 1.249 . S
C110 O95 1.244 . S
C110 C104 1.505 . S
C111 O98 1.258 . S
C111 O99 1.242 . S
H112 C84 0.930 . S
H113 C85 0.930 . S
H114 C86 0.930 . S
H115 C87 0.931 . S
H116 C105 0.930 . S
H117 C106 0.930 . S
H118 C107 0.930 . S
H119 C108 0.931 . S
H120 C121 0.949 . S
C121 H120 0.949 . S
C121 C122 1.395 . S
C121 C123 1.391 . S
C122 C121 1.395 . S
C122 C125 1.390 1_545 S
C123 C121 1.391 . S
C123 C127 1.387 . S
C123 C128 1.491 . S
H124 C125 0.950 . S
C125 C122 1.390 1_565 S
C125 H124 0.950 . S
C125 C126 1.378 . S
C126 C125 1.378 . S
C126 C127 1.409 1_565 S
C127 C123 1.387 . S
C127 C126 1.409 1_545 S
C127 H129 0.950 1_545 S
C128 C123 1.491 . S
C128 C130 1.382 . S
C128 C132 1.404 . S
H129 C127 0.950 1_565 S
C130 C128 1.382 . S
C130 C131 1.390 . S
C130 H135 0.949 . S
C131 C130 1.390 . S
C131 C136 1.399 . S
C132 C128 1.404 . S
C132 H133 0.950 . S
C132 C134 1.375 . S
H133 C132 0.950 . S
C134 C132 1.375 . S
C134 C136 1.382 . S
C134 H138 0.950 . S
H135 C130 0.949 . S
C136 C131 1.399 . S
C136 C134 1.382 . S
C136 H137 0.952 . S
H137 C136 0.952 . S
H138 C134 0.950 . S
H139 C140 0.949 . S
C140 H139 0.949 . S
C140 C141 1.395 . S
C140 C142 1.391 . S
C141 C140 1.395 . S
C141 C144 1.390 . S
C142 C140 1.391 . S
C142 C146 1.387 . S
C142 C147 1.491 . S
H143 C144 0.950 . S
C144 C141 1.390 . S
C144 H143 0.950 . S
C144 C145 1.378 . S
C145 C144 1.378 . S
C145 C146 1.409 . S
C146 C142 1.387 . S
C146 C145 1.409 . S
C146 H148 0.951 . S
C147 C142 1.491 . S
C147 C149 1.382 . S
C147 C151 1.404 . S
H148 C146 0.951 . S
C149 C147 1.382 . S
C149 C150 1.390 . S
C149 H154 0.949 . S
C150 C149 1.390 . S
C150 C155 1.399 . S
C151 C147 1.404 . S
C151 H152 0.950 . S
C151 C153 1.375 . S
H152 C151 0.950 . S
C153 C151 1.375 . S
C153 C155 1.382 . S
C153 H157 0.950 . S
H154 C149 0.949 . S
C155 C150 1.399 . S
C155 C153 1.382 . S
C155 H156 0.952 . S
H156 C155 0.952 . S
H157 C153 0.950 . S
H158 C159 0.949 . S
C159 H158 0.949 . S
C159 C160 1.395 . S
C159 C161 1.391 . S
C160 C159 1.395 . S
C160 C163 1.390 1_455 S
C161 C159 1.391 . S
C161 C165 1.387 . S
C161 C166 1.491 . S
H162 C163 0.950 . S
C163 C160 1.390 1_655 S
C163 H162 0.950 . S
C163 C164 1.378 . S
C164 C163 1.378 . S
C164 C165 1.409 1_655 S
C165 C161 1.387 . S
C165 C164 1.409 1_455 S
C165 H167 0.951 . S
C166 C161 1.491 . S
C166 C168 1.382 . S
C166 C170 1.404 . S
H167 C165 0.951 . S
C168 C166 1.382 . S
C168 C169 1.390 . S
C168 H173 0.949 . S
C169 C168 1.390 . S
C169 C174 1.399 . S
C170 C166 1.404 . S
C170 H171 0.950 . S
C170 C172 1.375 . S
H171 C170 0.950 . S
C172 C170 1.375 . S
C172 C174 1.382 . S
C172 H176 0.950 . S
H173 C168 0.949 . S
C174 C169 1.399 . S
C174 C172 1.382 . S
C174 H175 0.952 . S
H175 C174 0.952 . S
H176 C172 0.950 . S
H177 C178 0.937 1_655 S
C178 H177 0.937 1_455 S
C178 C179 1.407 . S
C178 C180 1.392 . S
C179 C178 1.407 . S
C179 C182 1.390 . S
C180 C178 1.392 . S
C180 C184 1.387 . S
C180 C185 1.491 1_455 S
H181 C182 0.950 . S
C182 C179 1.390 . S
C182 H181 0.950 . S
C182 C183 1.378 . S
C183 C182 1.378 . S
C183 C184 1.409 . S
C184 C180 1.387 . S
C184 C183 1.409 . S
C184 H186 0.951 . S
C185 C180 1.491 1_655 S
C185 C187 1.382 . S
C185 C189 1.404 . S
H186 C184 0.951 . S
C187 C185 1.382 . S
C187 C188 1.390 . S
C187 H192 0.949 . S
C188 C187 1.390 . S
C188 C193 1.399 . S
C189 C185 1.404 . S
C189 H190 0.950 . S
C189 C191 1.375 . S
H190 C189 0.950 . S
C191 C189 1.375 . S
C191 C193 1.382 . S
C191 H195 0.950 . S
H192 C187 0.949 . S
C193 C188 1.399 . S
C193 C191 1.382 . S
C193 H194 0.952 . S
H194 C193 0.952 . S
H195 C191 0.950 . S
H196 C197 0.949 1_565 S
C197 H196 0.949 1_545 S
C197 C198 1.395 . S
C197 C199 1.391 . S
C198 C197 1.395 . S
C198 C201 1.390 . S
C199 C197 1.391 . S
C199 C203 1.387 . S
C199 C204 1.491 1_545 S
H200 C201 0.950 . S
C201 C198 1.390 . S
C201 H200 0.950 . S
C201 C202 1.378 . S
C202 C201 1.378 . S
C202 C203 1.409 . S
C203 C199 1.387 . S
C203 C202 1.409 . S
C203 H205 0.951 . S
C204 C199 1.491 1_565 S
C204 C206 1.382 . S
C204 C208 1.404 . S
H205 C203 0.951 . S
C206 C204 1.382 . S
C206 C207 1.390 . S
C206 H211 0.949 . S
C207 C206 1.390 . S
C207 C212 1.399 . S
C208 C204 1.404 . S
C208 H209 0.950 1_565 S
C208 C210 1.375 . S
H209 C208 0.950 1_545 S
C210 C208 1.375 . S
C210 C212 1.382 . S
C210 H214 0.950 . S
H211 C206 0.949 . S
C212 C207 1.399 . S
C212 C210 1.382 . S
C212 H213 0.952 . S
H213 C212 0.952 . S
H214 C210 0.950 . S
H215 C216 0.949 . S
C216 H215 0.949 . S
C216 C217 1.395 . S
C216 C218 1.391 . S
C217 C216 1.395 . S
C217 C220 1.390 . S
C218 C216 1.391 . S
C218 C222 1.387 . S
C218 C223 1.491 . S
H219 C220 0.950 . S
C220 C217 1.390 . S
C220 H219 0.950 . S
C220 C221 1.378 . S
C221 C220 1.378 . S
C221 C222 1.409 . S
C222 C218 1.387 . S
C222 C221 1.409 . S
C222 H224 0.951 . S
C223 C218 1.491 . S
C223 C225 1.382 . S
C223 C227 1.404 . S
H224 C222 0.951 . S
C225 C223 1.382 . S
C225 C226 1.390 . S
C225 H230 0.949 . S
C226 C225 1.390 . S
C226 C231 1.399 . S
C227 C223 1.404 . S
C227 H228 0.950 . S
C227 C229 1.375 . S
H228 C227 0.950 . S
C229 C227 1.375 . S
C229 C231 1.382 . S
C229 H233 0.950 . S
H230 C225 0.949 . S
C231 C226 1.399 . S
C231 C229 1.382 . S
C231 H232 0.952 . S
H232 C231 0.952 . S
H233 C229 0.950 . S
C234 C235 1.387 . S
C234 H238 0.950 . S
C234 C243 1.390 . S
C235 C234 1.387 . S
C235 C237 1.387 . S
H236 C243 0.950 . S
C237 C235 1.387 . S
C237 C239 1.390 . S
C237 H241 0.950 . S
H238 C234 0.950 . S
C239 C237 1.390 . S
C239 C240 1.387 . S
C239 H242 0.950 . S
C240 C239 1.387 . S
C240 C243 1.387 . S
H241 C237 0.950 . S
H242 C239 0.950 . S
C243 C234 1.390 . S
C243 H236 0.950 . S
C243 C240 1.387 . S
C244 C245 1.387 . S
C244 H248 0.950 . S
C244 C253 1.390 . S
C245 C244 1.387 . S
C245 C247 1.387 . S
H246 C253 0.950 . S
C247 C245 1.387 . S
C247 C249 1.390 . S
C247 H251 0.950 . S
H248 C244 0.950 . S
C249 C247 1.390 . S
C249 C250 1.387 . S
C249 H252 0.950 . S
C250 C249 1.387 . S
C250 C253 1.387 . S
H251 C247 0.950 . S
H252 C249 0.950 . S
C253 C244 1.390 . S
C253 H246 0.950 . S
C253 C250 1.387 . S
C254 C255 1.387 . S
C254 H258 0.950 . S
C254 C263 1.390 . S
C255 C254 1.387 . S
C255 C257 1.387 . S
H256 C263 0.950 . S
C257 C255 1.387 . S
C257 C259 1.390 . S
C257 H261 0.950 . S
H258 C254 0.950 . S
C259 C257 1.390 . S
C259 C260 1.387 . S
C259 H262 0.950 . S
C260 C259 1.387 . S
C260 C263 1.387 . S
H261 C257 0.950 . S
H262 C259 0.950 . S
C263 C254 1.390 . S
C263 H256 0.950 . S
C263 C260 1.387 . S
C264 C265 1.387 . S
C264 H268 0.950 . S
C264 C273 1.390 . S
C265 C264 1.387 . S
C265 C267 1.387 . S
H266 C273 0.950 . S
C267 C265 1.387 . S
C267 C269 1.390 . S
C267 H271 0.950 . S
H268 C264 0.950 . S
C269 C267 1.390 . S
C269 C270 1.387 . S
C269 H272 0.950 . S
C270 C269 1.387 . S
C270 C273 1.387 . S
H271 C267 0.950 . S
H272 C269 0.950 . S
C273 C264 1.390 . S
C273 H266 0.950 . S
C273 C270 1.387 . S
C274 C275 1.387 . S
C274 H278 0.950 . S
C274 C283 1.390 . S
C275 C274 1.387 . S
C275 C277 1.387 . S
H276 C283 0.950 . S
C277 C275 1.387 . S
C277 C279 1.390 . S
C277 H281 0.950 . S
H278 C274 0.950 . S
C279 C277 1.390 . S
C279 C280 1.387 . S
C279 H282 0.950 . S
C280 C279 1.387 . S
C280 C283 1.387 . S
H281 C277 0.950 . S
H282 C279 0.950 . S
C283 C274 1.390 . S
C283 H276 0.950 . S
C283 C280 1.387 . S
C284 C285 1.387 . S
C284 H288 0.950 . S
C284 C293 1.390 . S
C285 C284 1.387 . S
C285 C287 1.387 . S
H286 C293 0.950 . S
C287 C285 1.387 . S
C287 C289 1.390 . S
C287 H291 0.950 . S
H288 C284 0.950 . S
C289 C287 1.390 . S
C289 C290 1.387 . S
C289 H292 0.950 . S
C290 C289 1.387 . S
C290 C293 1.387 . S
H291 C287 0.950 . S
H292 C289 0.950 . S
C293 C284 1.390 . S
C293 H286 0.950 . S
C293 C290 1.387 . S
C294 C295 1.387 . S
C294 H298 0.950 . S
C294 C303 1.390 . S
C295 C294 1.387 . S
C295 C297 1.387 . S
H296 C303 0.950 . S
C297 C295 1.387 . S
C297 C299 1.390 . S
C297 H301 0.950 . S
H298 C294 0.950 . S
C299 C297 1.390 . S
C299 C300 1.387 . S
C299 H302 0.950 . S
C300 C299 1.387 . S
C300 C303 1.387 . S
H301 C297 0.950 . S
H302 C299 0.950 . S
C303 C294 1.390 . S
C303 H296 0.950 . S
C303 C300 1.387 . S
C304 C305 1.387 . S
C304 H308 0.950 . S
C304 C313 1.390 . S
C305 C304 1.387 . S
C305 C307 1.387 . S
H306 C313 0.950 . S
C307 C305 1.387 . S
C307 C309 1.390 . S
C307 H311 0.950 . S
H308 C304 0.950 . S
C309 C307 1.390 . S
C309 C310 1.387 . S
C309 H312 0.950 . S
C310 C309 1.387 . S
C310 C313 1.387 . S
H311 C307 0.950 . S
H312 C309 0.950 . S
C313 C304 1.390 . S
C313 H306 0.950 . S
C313 C310 1.387 . S
C314 C315 1.387 . S
C314 H318 0.950 . S
C314 C323 1.390 . S
C315 C314 1.387 . S
C315 C317 1.387 . S
H316 C323 0.950 . S
C317 C315 1.387 . S
C317 C319 1.390 . S
C317 H321 0.950 . S
H318 C314 0.950 . S
C319 C317 1.390 . S
C319 C320 1.387 . S
C319 H322 0.950 . S
C320 C319 1.387 . S
C320 C323 1.387 . S
H321 C317 0.950 . S
H322 C319 0.950 . S
C323 C314 1.390 . S
C323 H316 0.950 . S
C323 C320 1.387 . S
C324 C325 1.387 . S
C324 H328 0.950 . S
C324 C333 1.390 . S
C325 C324 1.387 . S
C325 C327 1.387 . S
H326 C333 0.950 . S
C327 C325 1.387 . S
C327 C329 1.390 . S
C327 H331 0.950 . S
H328 C324 0.950 . S
C329 C327 1.390 . S
C329 C330 1.387 . S
C329 H332 0.950 . S
C330 C329 1.387 . S
C330 C333 1.387 . S
H331 C327 0.950 . S
H332 C329 0.950 . S
C333 C324 1.390 . S
C333 H326 0.950 . S
C333 C330 1.387 . S
C334 C335 1.387 . S
C334 H338 0.950 . S
C334 C343 1.390 . S
C335 C334 1.387 . S
C335 C337 1.387 . S
H336 C343 0.950 . S
C337 C335 1.387 . S
C337 C339 1.390 . S
C337 H341 0.950 . S
H338 C334 0.950 . S
C339 C337 1.390 . S
C339 C340 1.387 . S
C339 H342 0.950 . S
C340 C339 1.387 . S
C340 C343 1.387 . S
H341 C337 0.950 . S
H342 C339 0.950 . S
C343 C334 1.390 . S
C343 H336 0.950 . S
C343 C340 1.387 . S
C344 C345 1.387 . S
C344 H348 0.950 . S
C344 C353 1.390 . S
C345 C344 1.387 . S
C345 C347 1.387 . S
H346 C353 0.950 . S
C347 C345 1.387 . S
C347 C349 1.390 . S
C347 H351 0.950 . S
H348 C344 0.950 . S
C349 C347 1.390 . S
C349 C350 1.387 . S
C349 H352 0.950 . S
C350 C349 1.387 . S
C350 C353 1.387 . S
H351 C347 0.950 . S
H352 C349 0.950 . S
C353 C344 1.390 . S
C353 H346 0.950 . S
C353 C350 1.387 . S
C354 C355 1.387 1_655 S
C354 H358 0.950 . S
C354 C363 1.390 1_554 S
C355 C354 1.387 1_455 S
C355 C357 1.387 . S
H356 C363 0.950 . S
C357 C355 1.387 . S
C357 C359 1.390 1_554 S
C357 H361 0.950 . S
H358 C354 0.950 . S
C359 C357 1.390 1_556 S
C359 C360 1.387 . S
C359 H362 0.950 . S
C360 C359 1.387 . S
C360 C363 1.387 1_455 S
H361 C357 0.950 . S
H362 C359 0.950 . S
C363 C354 1.390 1_556 S
C363 H356 0.950 . S
C363 C360 1.387 1_655 S
C364 C365 1.387 . S
C364 H368 0.950 . S
C364 C373 1.390 . S
C365 C364 1.387 . S
C365 C367 1.387 1_545 S
H366 C373 0.950 . S
C367 C365 1.387 1_565 S
C367 C369 1.390 . S
C367 H371 0.950 . S
H368 C364 0.950 . S
C369 C367 1.390 . S
C369 C370 1.387 1_565 S
C369 H372 0.950 . S
C370 C369 1.387 1_545 S
C370 C373 1.387 . S
H371 C367 0.950 . S
H372 C369 0.950 . S
C373 C364 1.390 . S
C373 H366 0.950 . S
C373 C370 1.387 . S
C374 C375 1.387 . S
C374 H378 0.950 . S
C374 C383 1.390 . S
C375 C374 1.387 . S
C375 C377 1.387 . S
H376 C383 0.950 . S
C377 C375 1.387 . S
C377 C379 1.390 . S
C377 H381 0.950 . S
H378 C374 0.950 . S
C379 C377 1.390 . S
C379 C380 1.387 . S
C379 H382 0.950 . S
C380 C379 1.387 . S
C380 C383 1.387 . S
H381 C377 0.950 . S
H382 C379 0.950 . S
C383 C374 1.390 . S
C383 H376 0.950 . S
C383 C380 1.387 . S
C384 C385 1.387 . S
C384 H388 0.950 . S
C384 C393 1.390 . S
C385 C384 1.387 . S
C385 C387 1.387 . S
H386 C393 0.950 . S
C387 C385 1.387 . S
C387 C389 1.390 . S
C387 H391 0.950 . S
H388 C384 0.950 . S
C389 C387 1.390 . S
C389 C390 1.387 . S
C389 H392 0.950 . S
C390 C389 1.387 . S
C390 C393 1.387 . S
H391 C387 0.950 . S
H392 C389 0.950 . S
C393 C384 1.390 . S
C393 H386 0.950 . S
C393 C390 1.387 . S
C394 C395 1.387 . S
C394 H398 0.950 . S
C394 C403 1.392 1_556 S
C395 C394 1.387 . S
C395 C397 1.387 . S
H396 C403 0.949 . S
C397 C395 1.387 . S
C397 C399 1.390 1_556 S
C397 H401 0.950 . S
H398 C394 0.950 . S
C399 C397 1.390 1_554 S
C399 C400 1.387 . S
C399 H402 0.950 . S
C400 C399 1.387 . S
C400 C403 1.387 . S
H401 C397 0.950 . S
H402 C399 0.950 . S
C403 C394 1.392 1_554 S
C403 H396 0.949 . S
C403 C400 1.387 . S
C404 C405 1.387 . S
C404 H408 0.950 . S
C404 C413 1.390 . S
C405 C404 1.387 . S
C405 C407 1.387 1_455 S
H406 C413 0.950 . S
C407 C405 1.387 1_655 S
C407 C409 1.390 . S
C407 H411 0.950 . S
H408 C404 0.950 . S
C409 C407 1.390 . S
C409 C410 1.387 1_655 S
C409 H412 0.950 . S
C410 C409 1.387 1_455 S
C410 C413 1.387 . S
H411 C407 0.950 . S
H412 C409 0.950 . S
C413 C404 1.390 . S
C413 H406 0.950 . S
C413 C410 1.387 . S
C235 C12 3.117 . S
C240 C226 3.028 . S
C245 C52 3.119 . S
C250 C188 3.032 . S
C255 C111 3.134 . S
C260 C207 3.047 . S
C265 C31 3.092 . S
C270 C221 3.038 . S
C280 C183 3.039 . S
C275 C71 3.096 . S
C290 C202 3.013 . S
C285 C92 3.063 . S
C295 C48 0.860 . S
C300 C150 0.800 . S
C305 C109 0.607 . S
C310 C164 0.406 . S
C315 C29 0.501 . S
C320 C126 0.295 . S
C330 C145 0.595 . S
C325 C69 0.627 . S
C340 C169 0.622 . S
C335 C88 0.507 . S
C345 C8 0.630 . S
C350 C131 0.693 . S
C360 C160 1.246 . S
C355 C17 1.210 . S
C365 C57 1.198 . S
C370 C122 1.232 . S
C375 C97 1.264 . S
C380 C141 1.262 . S
C390 C198 1.748 . S
C385 C42 1.734 . S
C400 C217 1.771 . S
C395 C82 1.751 . S
C405 C2 1.771 . S
C410 C179 1.774 . S
