# Generated by pormake.
# Topology hwx, (6,3)-cn, num edge types: 1
# Building blocks:
#     Node 0, Type 0, BuildingBlock: OJICUG_clean_sbu_0, # of connection points: 6
#     Node 1, Type 0, BuildingBlock: OJICUG_clean_sbu_0, # of connection points: 6
#     Node 2, Type 0, BuildingBlock: OJICUG_clean_sbu_0, # of connection points: 6
#     Node 3, Type 0, BuildingBlock: OJICUG_clean_sbu_0, # of connection points: 6
#     Node 4, Type 1, BuildingBlock: BETDIP_clean_linker_0, # of connection points: 3
#     Node 5, Type 1, BuildingBlock: BETDIP_clean_linker_0, # of connection points: 3
#     Node 6, Type 1, BuildingBlock: BETDIP_clean_linker_0, # of connection points: 3
#     Node 7, Type 1, BuildingBlock: BETDIP_clean_linker_0, # of connection points: 3
#     Node 8, Type 1, BuildingBlock: BETDIP_clean_linker_0, # of connection points: 3
#     Node 9, Type 1, BuildingBlock: BETDIP_clean_linker_0, # of connection points: 3
#     Node 10, Type 1, BuildingBlock: BETDIP_clean_linker_0, # of connection points: 3
#     Node 11, Type 1, BuildingBlock: BETDIP_clean_linker_0, # of connection points: 3
#     Edge 12, Type (0, 1), BuildingBlock: KIFKEQ_clean_linker_1, # of connection points: 2
#     Edge 13, Type (0, 1), BuildingBlock: KIFKEQ_clean_linker_1, # of connection points: 2
#     Edge 14, Type (0, 1), BuildingBlock: KIFKEQ_clean_linker_1, # of connection points: 2
#     Edge 15, Type (0, 1), BuildingBlock: KIFKEQ_clean_linker_1, # of connection points: 2
#     Edge 16, Type (0, 1), BuildingBlock: KIFKEQ_clean_linker_1, # of connection points: 2
#     Edge 17, Type (0, 1), BuildingBlock: KIFKEQ_clean_linker_1, # of connection points: 2
#     Edge 18, Type (0, 1), BuildingBlock: KIFKEQ_clean_linker_1, # of connection points: 2
#     Edge 19, Type (0, 1), BuildingBlock: KIFKEQ_clean_linker_1, # of connection points: 2
#     Edge 20, Type (0, 1), BuildingBlock: KIFKEQ_clean_linker_1, # of connection points: 2
#     Edge 21, Type (0, 1), BuildingBlock: KIFKEQ_clean_linker_1, # of connection points: 2
#     Edge 22, Type (0, 1), BuildingBlock: KIFKEQ_clean_linker_1, # of connection points: 2
#     Edge 23, Type (0, 1), BuildingBlock: KIFKEQ_clean_linker_1, # of connection points: 2
#     Edge 24, Type (0, 1), BuildingBlock: KIFKEQ_clean_linker_1, # of connection points: 2
#     Edge 25, Type (0, 1), BuildingBlock: KIFKEQ_clean_linker_1, # of connection points: 2
#     Edge 26, Type (0, 1), BuildingBlock: KIFKEQ_clean_linker_1, # of connection points: 2
#     Edge 27, Type (0, 1), BuildingBlock: KIFKEQ_clean_linker_1, # of connection points: 2
#     Edge 28, Type (0, 1), BuildingBlock: KIFKEQ_clean_linker_1, # of connection points: 2
#     Edge 29, Type (0, 1), BuildingBlock: KIFKEQ_clean_linker_1, # of connection points: 2
#     Edge 30, Type (0, 1), BuildingBlock: KIFKEQ_clean_linker_1, # of connection points: 2
#     Edge 31, Type (0, 1), BuildingBlock: KIFKEQ_clean_linker_1, # of connection points: 2
#     Edge 32, Type (0, 1), BuildingBlock: KIFKEQ_clean_linker_1, # of connection points: 2
#     Edge 33, Type (0, 1), BuildingBlock: KIFKEQ_clean_linker_1, # of connection points: 2
#     Edge 34, Type (0, 1), BuildingBlock: KIFKEQ_clean_linker_1, # of connection points: 2
#     Edge 35, Type (0, 1), BuildingBlock: KIFKEQ_clean_linker_1, # of connection points: 2
# Relax obj value: 0.006
# Max RMSD: 0.045
# Mean RMSD: 0.041
data_MOF--net-hwx--node1-OJICUG_clean_sbu_0--node2-BETDIP_clean_linker_0--edge1-KIFKEQ_clean_linker_1
_symmetry_space_group_name_H-M    P1
_symmetry_Int_Tables_number       1
_symmetry_cell_setting            triclinic
loop_
_symmetry_equiv_pos_as_xyz
'x, y, z'
_cell_length_a     54.056363
_cell_length_b     54.023964
_cell_length_c     20.689416
_cell_angle_alpha  91.651583
_cell_angle_beta   91.579616
_cell_angle_gamma 90.051708
loop_
_atom_site_label
_atom_site_type_symbol
_atom_site_fract_x
_atom_site_fract_y
_atom_site_fract_z
_atom_type_partial_charge
Sc0 Sc 0.22434 0.22285 0.07689 0.0
Sc1 Sc 0.18 0.1885 0.98415 0.0
Sc2 Sc 0.22511 0.22345 0.90668 0.0
O3 O 0.20983 0.21161 0.98921 0.0
C4 C 0.22636 0.27248 -0.00299 0.0
C5 C 0.16616 0.22442 0.10221 0.0
C6 C 0.16725 0.22519 0.87017 0.0
C7 C 0.21259 0.16597 0.09936 0.0
C8 C 0.27343 0.21541 -0.00417 0.0
C9 C 0.21351 0.16657 0.87141 0.0
O10 O 0.22546 0.26095 0.04965 0.0
O11 O 0.16023 0.2097 0.05538 0.0
O12 O 0.1896 0.23147 0.862 0.0
O13 O 0.22478 0.18574 0.11207 0.0
O14 O 0.2625 0.21708 0.94096 0.0
O15 O 0.1964 0.16475 0.91196 0.0
O16 O 0.26203 0.21713 0.04868 0.0
O17 O 0.19554 0.16446 0.05587 0.0
O18 O 0.22549 0.18653 0.86399 0.0
O19 O 0.18848 0.2303 0.1164 0.0
O20 O 0.22653 0.2615 0.94172 0.0
O21 O 0.16104 0.20992 0.91235 0.0
Sc22 Sc 0.27147 0.72587 0.42505 0.0
Sc23 Sc 0.31208 0.68661 0.5101 0.0
Sc24 Sc 0.27277 0.72728 0.59535 0.0
O25 O 0.28544 0.71324 0.51018 0.0
C26 C 0.27565 0.77575 0.51061 0.0
C27 C 0.32869 0.71983 0.39404 0.0
C28 C 0.33097 0.7235 0.62423 0.0
C29 C 0.2753 0.66764 0.39589 0.0
C30 C 0.223 0.723 0.50979 0.0
C31 C 0.27887 0.67 0.62624 0.0
O32 O 0.2753 0.7641 0.45631 0.0
O33 O 0.33322 0.70441 0.438 0.0
O34 O 0.3097 0.73252 0.63503 0.0
O35 O 0.26628 0.68892 0.38516 0.0
O36 O 0.23456 0.72343 0.56417 0.0
O37 O 0.29426 0.66547 0.58218 0.0
O38 O 0.2339 0.72434 0.45636 0.0
O39 O 0.29212 0.664 0.43874 0.0
O40 O 0.26987 0.6914 0.63694 0.0
O41 O 0.3073 0.72882 0.38348 0.0
O42 O 0.27422 0.76492 0.56412 0.0
O43 O 0.33462 0.70663 0.58142 0.0
Sc44 Sc 0.77343 0.77449 0.92448 0.0
Sc45 Sc 0.81095 0.81624 0.01728 0.0
Sc46 Sc 0.77539 0.77157 0.09448 0.0
O47 O 0.78658 0.78742 0.01208 0.0
C48 C 0.72517 0.77238 0.00995 0.0
C49 C 0.77343 0.83288 0.90495 0.0
C50 C 0.77624 0.82912 0.1356 0.0
C51 C 0.83013 0.78497 0.89578 0.0
C52 C 0.78106 0.72423 -0.00033 0.0
C53 C 0.83296 0.78054 0.12497 0.0
O54 O 0.73597 0.77322 0.95626 0.0
O55 O 0.78978 0.83763 0.94893 0.0
O56 O 0.76939 0.80687 0.14298 0.0
O57 O 0.80946 0.77446 0.88289 0.0
O58 O 0.77996 0.73446 0.05563 0.0
O59 O 0.8349 0.79816 0.08602 0.0
O60 O 0.77925 0.73632 0.94795 0.0
O61 O 0.83353 0.80034 0.94282 0.0
O62 O 0.81269 0.76925 0.13319 0.0
O63 O 0.76587 0.81105 0.891 0.0
O64 O 0.73687 0.77185 0.06409 0.0
O65 O 0.79104 0.83527 0.0922 0.0
Sc66 Sc 0.72478 0.27297 0.58787 0.0
Sc67 Sc 0.68438 0.31273 0.50355 0.0
Sc68 Sc 0.72473 0.2734 0.41763 0.0
O69 O 0.7113 0.28636 0.50305 0.0
C70 C 0.77398 0.27674 0.50668 0.0
C71 C 0.719 0.33065 0.62309 0.0
C72 C 0.71941 0.33122 0.39287 0.0
C73 C 0.66705 0.27745 0.61496 0.0
C74 C 0.72211 0.22392 0.49768 0.0
C75 C 0.66678 0.2777 0.38434 0.0
O76 O 0.7627 0.27622 0.55976 0.0
O77 O 0.70314 0.33478 0.57822 0.0
O78 O 0.72883 0.31005 0.3813 0.0
O79 O 0.6884 0.2683 0.62563 0.0
O80 O 0.72229 0.23536 0.44485 0.0
O81 O 0.66254 0.29353 0.42927 0.0
O82 O 0.72304 0.23501 0.55278 0.0
O83 O 0.66283 0.29368 0.5728 0.0
O84 O 0.68829 0.26924 0.37379 0.0
O85 O 0.72812 0.30934 0.63266 0.0
O86 O 0.76275 0.27574 0.45183 0.0
O87 O 0.70294 0.33488 0.43473 0.0
H88 H 0.24419 0.50688 0.89581 0.0
H89 H 0.23331 0.50067 0.10052 0.0
H90 H 0.23733 0.57222 0.01806 0.0
H91 H 0.25535 0.46521 0.08107 0.0
C92 C 0.24625 0.45801 0.03696 0.0
C93 C 0.24111 0.51554 0.9428 0.0
C94 C 0.24142 0.54147 0.95038 0.0
C95 C 0.23839 0.50061 -0.00338 0.0
C96 C 0.23539 0.5118 0.05832 0.0
C97 C 0.23481 0.53762 0.0657 0.0
C98 C 0.23739 0.55222 0.01165 0.0
N99 N 0.23905 0.47446 0.9875 0.0
H100 H 0.99224 0.73889 0.62599 0.0
H101 H 0.9972 0.72994 0.41892 0.0
H102 H 0.93026 0.75686 0.50084 0.0
H103 H 0.02785 0.70287 0.44634 0.0
C104 C 0.03675 0.7123 0.48784 0.0
C105 C 0.98375 0.7399 0.57808 0.0
C106 C 0.9595 0.74888 0.57038 0.0
C107 C 0.9974 0.73259 0.52409 0.0
C108 C 0.98675 0.73456 0.46145 0.0
C109 C 0.96266 0.74365 0.45357 0.0
C110 C 0.94913 0.75045 0.5078 0.0
N111 N 0.02229 0.72499 0.53446 0.0
H112 H 0.77069 0.49735 0.12953 0.0
H113 H 0.76206 0.49306 0.92163 0.0
H114 H 0.75617 0.42742 0.0328 0.0
H115 H 0.78618 0.52787 0.92817 0.0
C116 C 0.78001 0.53755 0.97153 0.0
C117 C 0.7677 0.48652 0.08507 0.0
C118 C 0.76362 0.46101 0.08748 0.0
C119 C 0.76819 0.49812 0.02533 0.0
C120 C 0.76322 0.48412 0.96773 0.0
C121 C 0.75833 0.4586 0.97018 0.0
C122 C 0.75937 0.44719 0.0302 0.0
N123 N 0.77243 0.52405 0.02549 0.0
H124 H 0.0043 0.27689 0.3753 0.0
H125 H 0.00613 0.27705 0.5839 0.0
H126 H 0.07386 0.2775 0.4811 0.0
H127 H 0.96891 0.259 0.56756 0.0
C128 C 0.96061 0.26859 0.52698 0.0
C129 C 0.01466 0.27742 0.42093 0.0
C130 C 0.04062 0.27781 0.42142 0.0
C131 C 0.00195 0.27708 0.47914 0.0
C132 C 0.0155 0.27715 0.53838 0.0
C133 C 0.04145 0.27756 0.53919 0.0
C134 C 0.0538 0.27824 0.48067 0.0
N135 N 0.97563 0.2767 0.47636 0.0
H136 H 0.72412 0.99542 0.62935 0.0
H137 H 0.72601 0.99081 0.42104 0.0
H138 H 0.72514 0.92451 0.53005 0.0
H139 H 0.74158 0.02909 0.4335 0.0
C140 C 0.73219 0.03745 0.47436 0.0
C141 C 0.72417 0.98447 0.58461 0.0
C142 C 0.72401 0.95856 0.58639 0.0
C143 C 0.7249 0.99637 0.52537 0.0
C144 C 0.7256 0.98206 0.46736 0.0
C145 C 0.72548 0.9561 0.46887 0.0
C146 C 0.72431 0.94455 0.52845 0.0
N147 N 0.72473 0.02267 0.52611 0.0
H148 H 0.50492 0.23283 0.88421 0.0
H149 H 0.50174 0.22284 0.08998 0.0
H150 H 0.57095 0.23894 0.0049 0.0
H151 H 0.46898 0.19806 0.05906 0.0
C152 C 0.46005 0.20845 0.02078 0.0
C153 C 0.51419 0.23186 0.93118 0.0
C154 C 0.53965 0.23695 0.93784 0.0
C155 C 0.50042 0.22597 0.98533 0.0
C156 C 0.51218 0.22595 0.04707 0.0
C157 C 0.53764 0.2305 0.05365 0.0
C158 C 0.55122 0.2355 -0.00093 0.0
N159 N 0.47463 0.2214 0.97657 0.0
H160 H 0.26261 0.00357 0.3725 0.0
H161 H 0.2635 0.00337 0.58119 0.0
H162 H 0.23378 0.06555 0.48111 0.0
H163 H 0.29074 0.97197 0.56761 0.0
C164 C 0.28386 0.96242 0.52382 0.0
C165 C 0.25874 0.01261 0.41857 0.0
C166 C 0.24743 0.03594 0.42013 0.0
C167 C 0.26458 0.00058 0.47617 0.0
C168 C 0.2595 0.01238 0.53608 0.0
C169 C 0.24818 0.03574 0.53775 0.0
C170 C 0.24209 0.04727 0.47975 0.0
N171 N 0.27389 0.97604 0.47154 0.0
H172 H 0.49124 0.75452 0.12355 0.0
H173 H 0.49766 0.76533 0.91896 0.0
H174 H 0.42606 0.76231 0.00151 0.0
H175 H 0.53248 0.74205 0.93879 0.0
C176 C 0.5399 0.75143 0.98229 0.0
C177 C 0.48264 0.75776 0.07664 0.0
C178 C 0.45673 0.7578 0.06909 0.0
C179 C 0.49759 0.76027 0.0228 0.0
C180 C 0.48648 0.76344 0.96115 0.0
C181 C 0.4607 0.76437 0.9538 0.0
C182 C 0.44605 0.76201 0.00788 0.0
N183 N 0.5237 0.7592 0.03178 0.0
H184 H 0.17097 0.25005 0.21777 0.0
H185 H 0.11613 0.22311 0.07672 0.0
H186 H 0.1383 0.2661 0.28528 0.0
H187 H 0.08337 0.23994 0.14354 0.0
H188 H 0.03499 0.24191 0.32733 0.0
H189 H 0.06414 0.23136 0.24299 0.0
H190 H 0.10709 0.29675 0.29613 0.0
H191 H 0.0783 0.30666 0.38191 0.0
C192 C 0.15195 0.24781 0.20073 0.0
C193 C 0.14621 0.23511 0.14202 0.0
C194 C 0.13316 0.25724 0.23925 0.0
C195 C 0.10813 0.25443 0.2198 0.0
C196 C 0.10241 0.24218 0.16039 0.0
C197 C 0.12122 0.23257 0.12203 0.0
C198 C 0.05028 0.25436 0.31958 0.0
C199 C 0.05454 0.27499 0.36115 0.0
C200 C 0.06704 0.24833 0.27132 0.0
C201 C 0.08825 0.26297 0.26348 0.0
C202 C 0.09133 0.28471 0.30194 0.0
C203 C 0.07474 0.29056 0.35057 0.0
H204 H 0.28403 0.61997 0.604 0.0
H205 H 0.25727 0.67403 0.74354 0.0
H206 H 0.27426 0.58673 0.6775 0.0
H207 H 0.24787 0.6409 0.81645 0.0
H208 H 0.27279 0.58077 0.95627 0.0
H209 H 0.28022 0.61058 0.87327 0.0
H210 H 0.23334 0.5685 0.73836 0.0
H211 H 0.22502 0.53868 0.8229 0.0
C212 C 0.27597 0.62475 0.65006 0.0
C213 C 0.27164 0.64966 0.66824 0.0
C214 C 0.27025 0.60573 0.69171 0.0
C215 C 0.26048 0.61139 0.75245 0.0
C216 C 0.25555 0.63616 0.76987 0.0
C217 C 0.2609 0.65509 0.72806 0.0
C218 C 0.26383 0.57789 0.90916 0.0
C219 C 0.24777 0.55771 0.89662 0.0
C220 C 0.26821 0.5949 0.86166 0.0
C221 C 0.25701 0.59197 0.80007 0.0
C222 C 0.24207 0.57111 0.78583 0.0
C223 C 0.23739 0.5541 0.83397 0.0
H224 H 0.83698 0.74326 0.21159 0.0
H225 H 0.87969 0.80022 0.12287 0.0
H226 H 0.87298 0.7323 0.27775 0.0
H227 H 0.91581 0.78889 0.18861 0.0
H228 H 0.95419 0.78696 0.39565 0.0
H229 H 0.92573 0.79401 0.30456 0.0
H230 H 0.9152 0.71499 0.2784 0.0
H231 H 0.94372 0.70814 0.37051 0.0
C232 C 0.85409 0.75329 0.20564 0.0
C233 C 0.85529 0.77288 0.1625 0.0
C234 C 0.87483 0.7468 0.2431 0.0
C235 C 0.89725 0.75973 0.23837 0.0
C236 C 0.89872 0.77874 0.1937 0.0
C237 C 0.87799 0.78522 0.1561 0.0
C238 C 0.94642 0.77115 0.36878 0.0
C239 C 0.9511 0.74706 0.38928 0.0
C240 C 0.93014 0.77512 0.31669 0.0
C241 C 0.91805 0.75505 0.28465 0.0
C242 C 0.92406 0.73081 0.30266 0.0
C243 C 0.94053 0.72684 0.35469 0.0
H244 H 0.73982 0.32745 0.74393 0.0
H245 H 0.71495 0.38057 0.6039 0.0
H246 H 0.74919 0.36119 0.82157 0.0
H247 H 0.72487 0.41442 0.68214 0.0
H248 H 0.77868 0.45882 0.84951 0.0
H249 H 0.76966 0.42962 0.75834 0.0
H250 H 0.71336 0.395 0.86874 0.0
H251 H 0.72148 0.4244 0.95817 0.0
C252 C 0.73668 0.34631 0.72934 0.0
C253 C 0.72645 0.35132 0.66793 0.0
C254 C 0.74202 0.36557 0.77381 0.0
C255 C 0.73767 0.39023 0.75747 0.0
C256 C 0.72842 0.39547 0.69541 0.0
C257 C 0.72264 0.37613 0.65106 0.0
C258 C 0.76402 0.44534 0.85358 0.0
C259 C 0.75116 0.44354 0.91148 0.0
C260 C 0.75895 0.42866 0.80168 0.0
C261 C 0.74112 0.40999 0.80746 0.0
C262 C 0.72743 0.40907 0.8638 0.0
C263 C 0.73221 0.42581 0.91497 0.0
H264 H 0.61714 0.28356 0.40422 0.0
H265 H 0.66875 0.25057 0.27113 0.0
H266 H 0.58267 0.26814 0.3359 0.0
H267 H 0.63449 0.23595 0.20211 0.0
H268 H 0.57193 0.19887 0.10137 0.0
H269 H 0.60122 0.20745 0.19128 0.0
H270 H 0.56328 0.27624 0.23366 0.0
H271 H 0.53348 0.26685 0.14547 0.0
C272 C 0.62115 0.27312 0.36029 0.0
C273 C 0.64574 0.26841 0.34303 0.0
C274 C 0.60137 0.26428 0.32111 0.0
C275 C 0.60573 0.25066 0.2636 0.0
C276 C 0.63034 0.24585 0.24675 0.0
C277 C 0.65007 0.25449 0.28608 0.0
C278 C 0.56942 0.2153 0.13175 0.0
C279 C 0.55051 0.23215 0.11726 0.0
C280 C 0.58634 0.22045 0.18254 0.0
C281 C 0.58497 0.24282 0.21885 0.0
C282 C 0.56485 0.25877 0.2071 0.0
C283 C 0.54772 0.25343 0.15675 0.0
H284 H 0.18766 0.12305 0.8579 0.0
H285 H 0.25336 0.15981 0.79387 0.0
H286 H 0.1968 0.08731 0.78798 0.0
H287 H 0.26232 0.12404 0.72386 0.0
H288 H 0.20379 0.05272 0.57724 0.0
H289 H 0.19622 0.08169 0.6672 0.0
H290 H 0.27353 0.07849 0.7251 0.0
H291 H 0.28101 0.04932 0.63459 0.0
C292 C 0.20413 0.12348 0.82932 0.0
C293 C 0.21963 0.14444 0.83101 0.0
C294 C 0.20933 0.10299 0.78929 0.0
C295 C 0.23027 0.1029 0.7506 0.0
C296 C 0.24621 0.12348 0.75378 0.0
C297 C 0.24091 0.14408 0.79337 0.0
C298 C 0.21899 0.05776 0.61029 0.0
C299 C 0.24295 0.04892 0.5993 0.0
C300 C 0.21468 0.07426 0.66179 0.0
C301 C 0.23434 0.08247 0.7028 0.0
C302 C 0.25811 0.0726 0.6938 0.0
C303 C 0.26235 0.05579 0.6426 0.0
H304 H 0.3787 0.7142 0.41513 0.0
H305 H 0.32455 0.74205 0.2777 0.0
H306 H 0.4118 0.72416 0.34137 0.0
H307 H 0.35753 0.75164 0.20459 0.0
H308 H 0.41707 0.7269 0.06273 0.0
H309 H 0.38741 0.71933 0.14599 0.0
H310 H 0.43013 0.76532 0.28169 0.0
H311 H 0.4598 0.77379 0.19691 0.0
C312 C 0.37387 0.72254 0.3695 0.0
C313 C 0.34897 0.72712 0.35196 0.0
C314 C 0.39281 0.72837 0.32772 0.0
C315 C 0.38707 0.7385 0.2675 0.0
C316 C 0.36232 0.74368 0.25075 0.0
C317 C 0.34348 0.73821 0.29268 0.0
C318 C 0.42012 0.73565 0.11005 0.0
C319 C 0.44044 0.7515 0.12278 0.0
C320 C 0.40319 0.73119 0.1577 0.0
C321 C 0.40637 0.74208 0.21962 0.0
C322 C 0.42734 0.75682 0.23398 0.0
C323 C 0.44426 0.7616 0.18569 0.0
H324 H 0.74504 0.8296 0.79406 0.0
H325 H 0.77812 0.88287 0.9305 0.0
H326 H 0.72975 0.86296 0.72853 0.0
H327 H 0.76193 0.91656 0.8656 0.0
H328 H 0.7606 0.96341 0.67828 0.0
H329 H 0.76988 0.93483 0.76478 0.0
H330 H 0.70137 0.89584 0.71936 0.0
H331 H 0.69291 0.92383 0.63093 0.0
C332 C 0.74875 0.84847 0.81067 0.0
C333 C 0.763 0.85351 0.86733 0.0
C334 C 0.73972 0.8677 0.77329 0.0
C335 C 0.74445 0.89254 0.79186 0.0
C336 C 0.75817 0.89765 0.84948 0.0
C337 C 0.76741 0.87833 0.88673 0.0
C338 C 0.74726 0.94913 0.68824 0.0
C339 C 0.72616 0.94561 0.64805 0.0
C340 C 0.75252 0.93273 0.7378 0.0
C341 C 0.7366 0.91269 0.74829 0.0
C342 C 0.71438 0.91063 0.71146 0.0
C343 C 0.70935 0.92677 0.66134 0.0
H344 H 0.82751 0.7695 0.76955 0.0
H345 H 0.87972 0.78816 0.9255 0.0
H346 H 0.86179 0.76207 0.69705 0.0
H347 H 0.91408 0.78008 0.85255 0.0
H348 H 0.95611 0.72608 0.68686 0.0
H349 H 0.92668 0.73562 0.77231 0.0
H350 H 0.89907 0.79748 0.66491 0.0
H351 H 0.92899 0.7889 0.58119 0.0
C352 C 0.84629 0.77177 0.78849 0.0
C353 C 0.85096 0.77951 0.85306 0.0
C354 C 0.86582 0.7676 0.747 0.0
C355 C 0.89036 0.77059 0.76963 0.0
C356 C 0.89521 0.77766 0.83444 0.0
C357 C 0.8756 0.78236 0.8758 0.0
C358 C 0.94426 0.74213 0.68238 0.0
C359 C 0.94456 0.75646 0.62668 0.0
C360 C 0.92742 0.74747 0.73106 0.0
C361 C 0.9106 0.76704 0.72423 0.0
C362 C 0.91177 0.78213 0.67053 0.0
C363 C 0.92877 0.77708 0.62258 0.0
H364 H 0.74792 0.33011 0.28594 0.0
H365 H 0.7111 0.38064 0.41742 0.0
H366 H 0.76164 0.36478 0.22423 0.0
H367 H 0.72558 0.41557 0.35654 0.0
H368 H 0.72608 0.46361 0.17116 0.0
H369 H 0.71741 0.43386 0.2543 0.0
H370 H 0.78853 0.39947 0.2236 0.0
H371 H 0.79644 0.42866 0.13849 0.0
C372 C 0.74298 0.34865 0.30217 0.0
C373 C 0.72824 0.35254 0.35638 0.0
C374 C 0.75109 0.36862 0.2671 0.0
C375 C 0.7449 0.39305 0.28564 0.0
C376 C 0.7305 0.397 0.34056 0.0
C377 C 0.7222 0.37696 0.37544 0.0
C378 C 0.74012 0.45017 0.18402 0.0
C379 C 0.76191 0.44831 0.1491 0.0
C380 C 0.7352 0.43309 0.2315 0.0
C381 C 0.75209 0.41396 0.24485 0.0
C382 C 0.77486 0.41357 0.21341 0.0
C383 C 0.7796 0.43044 0.16543 0.0
H384 H 0.17264 0.24999 0.75807 0.0
H385 H 0.11726 0.22486 0.88808 0.0
H386 H 0.14025 0.26577 0.6868 0.0
H387 H 0.08482 0.24147 0.81781 0.0
H388 H 0.03623 0.24224 0.6288 0.0
H389 H 0.06562 0.23207 0.71542 0.0
H390 H 0.10934 0.29635 0.67266 0.0
H391 H 0.08028 0.30585 0.58446 0.0
C392 C 0.15356 0.24813 0.77192 0.0
C393 C 0.14756 0.23596 0.82849 0.0
C394 C 0.13494 0.25739 0.73127 0.0
C395 C 0.10985 0.25496 0.74653 0.0
C396 C 0.1039 0.24335 0.80404 0.0
C397 C 0.12253 0.23387 0.84441 0.0
C398 C 0.0518 0.2545 0.63916 0.0
C399 C 0.05613 0.27471 0.59988 0.0
C400 C 0.06868 0.24871 0.68879 0.0
C401 C 0.09011 0.26317 0.70045 0.0
C402 C 0.0934 0.28444 0.66395 0.0
C403 C 0.07668 0.29004 0.61388 0.0
H404 H 0.24764 0.66841 0.28364 0.0
H405 H 0.28129 0.61829 0.41931 0.0
H406 H 0.23374 0.63349 0.216 0.0
H407 H 0.26651 0.58309 0.3525 0.0
H408 H 0.26932 0.53403 0.1622 0.0
H409 H 0.27607 0.56366 0.25203 0.0
H410 H 0.20673 0.59933 0.20286 0.0
H411 H 0.20082 0.57028 0.11111 0.0
C412 C 0.25176 0.6499 0.29956 0.0
C413 C 0.26581 0.64618 0.35655 0.0
C414 C 0.24354 0.62978 0.26103 0.0
C415 C 0.24887 0.60537 0.27884 0.0
C416 C 0.26231 0.60162 0.33689 0.0
C417 C 0.27078 0.6218 0.37519 0.0
C418 C 0.25517 0.5477 0.17223 0.0
C419 C 0.23464 0.55007 0.12999 0.0
C420 C 0.259 0.56474 0.22363 0.0
C421 C 0.2422 0.58427 0.2339 0.0
C422 C 0.22039 0.58497 0.19523 0.0
C423 C 0.21678 0.56818 0.14329 0.0
H424 H 0.38027 0.71758 0.60045 0.0
H425 H 0.33019 0.7513 0.73633 0.0
H426 H 0.41545 0.73254 0.66692 0.0
H427 H 0.36509 0.76538 0.80363 0.0
H428 H 0.46438 0.72982 0.8573 0.0
H429 H 0.43486 0.72305 0.76738 0.0
H430 H 0.39921 0.79248 0.81639 0.0
H431 H 0.42815 0.79842 0.90827 0.0
C432 C 0.37676 0.72814 0.64454 0.0
C433 C 0.35241 0.73308 0.66336 0.0
C434 C 0.39693 0.73671 0.68263 0.0
C435 C 0.39319 0.75023 0.74064 0.0
C436 C 0.36879 0.75553 0.75861 0.0
C437 C 0.34869 0.7472 0.72029 0.0
C438 C 0.45074 0.74399 0.84722 0.0
C439 C 0.44833 0.76454 0.88948 0.0
C440 C 0.43377 0.74014 0.79576 0.0
C441 C 0.41427 0.75696 0.78546 0.0
C442 C 0.41355 0.77881 0.82408 0.0
C443 C 0.43027 0.78243 0.87609 0.0
H444 H 0.77726 0.87922 0.11968 0.0
H445 H 0.75307 0.82359 0.25014 0.0
H446 H 0.76167 0.91159 0.192 0.0
H447 H 0.73833 0.85592 0.32349 0.0
H448 H 0.69802 0.91626 0.42626 0.0
H449 H 0.70778 0.88673 0.33921 0.0
H450 H 0.77149 0.93084 0.29401 0.0
H451 H 0.76107 0.9607 0.37954 0.0
C452 C 0.76872 0.87389 0.16396 0.0
C453 C 0.76651 0.84879 0.17926 0.0
C454 C 0.75983 0.89248 0.20553 0.0
C455 C 0.74871 0.88643 0.26366 0.0
C456 C 0.74632 0.8613 0.27858 0.0
C457 C 0.75498 0.84271 0.23673 0.0
C458 C 0.71381 0.9198 0.3967 0.0
C459 C 0.72885 0.94066 0.40955 0.0
C460 C 0.71956 0.90281 0.34727 0.0
C461 C 0.74068 0.90614 0.31021 0.0
C462 C 0.75496 0.92775 0.32106 0.0
C463 C 0.74902 0.94489 0.37006 0.0
H464 H 0.61713 0.28148 0.58962 0.0
H465 H 0.67045 0.25602 0.73246 0.0
H466 H 0.58343 0.27134 0.66158 0.0
H467 H 0.63684 0.24644 0.80398 0.0
H468 H 0.5739 0.27381 0.93686 0.0
H469 H 0.60321 0.28213 0.85291 0.0
H470 H 0.5682 0.22643 0.72795 0.0
H471 H 0.5391 0.21717 0.81351 0.0
C472 C 0.62165 0.27359 0.63602 0.0
C473 C 0.64647 0.26969 0.65557 0.0
C474 C 0.60238 0.2677 0.67679 0.0
C475 C 0.60772 0.25824 0.73799 0.0
C476 C 0.63239 0.25377 0.75687 0.0
C477 C 0.65157 0.25923 0.71587 0.0
C478 C 0.57238 0.26326 0.89159 0.0
C479 C 0.55455 0.24441 0.88237 0.0
C480 C 0.58908 0.26815 0.84357 0.0
C481 C 0.58803 0.25467 0.78474 0.0
C482 C 0.56926 0.23697 0.77328 0.0
C483 C 0.55264 0.23178 0.82199 0.0
H484 H 0.18518 0.12355 0.10661 0.0
H485 H 0.2533 0.15804 0.17735 0.0
H486 H 0.1939 0.08788 0.17336 0.0
H487 H 0.26186 0.1224 0.24391 0.0
H488 H 0.27901 0.0476 0.32524 0.0
H489 H 0.27109 0.07628 0.23726 0.0
H490 H 0.19514 0.08348 0.29466 0.0
H491 H 0.20312 0.05495 0.3822 0.0
C492 C 0.2021 0.12345 0.13589 0.0
C493 C 0.21842 0.14377 0.13716 0.0
C494 C 0.20705 0.10304 0.17408 0.0
C495 C 0.22856 0.10239 0.21363 0.0
C496 C 0.24529 0.12229 0.21325 0.0
C497 C 0.24023 0.14281 0.17564 0.0
C498 C 0.26051 0.05486 0.31774 0.0
C499 C 0.24167 0.04926 0.36031 0.0
C500 C 0.25603 0.07137 0.26793 0.0
C501 C 0.23256 0.08219 0.25955 0.0
C502 C 0.21335 0.07528 0.2997 0.0
C503 C 0.21791 0.05907 0.34987 0.0
H504 H 0.2354 0.30426 0.89922 0.0
H505 H 0.22051 0.30287 0.10339 0.0
H506 H 0.23985 0.34917 0.9074 0.0
H507 H 0.22435 0.34766 0.11101 0.0
H508 H 0.26187 0.42303 0.11895 0.0
H509 H 0.25654 0.37829 0.10774 0.0
H510 H 0.21707 0.38737 0.92541 0.0
H511 H 0.22302 0.43215 0.93605 0.0
C512 C 0.23285 0.31351 0.94569 0.0
C513 C 0.2278 0.29989 0.00074 0.0
C514 C 0.23529 0.33928 0.95029 0.0
C515 C 0.23264 0.35199 0.00996 0.0
C516 C 0.22701 0.33841 0.06459 0.0
C517 C 0.22468 0.31269 0.06009 0.0
C518 C 0.25211 0.4154 0.07644 0.0
C519 C 0.24291 0.43098 0.02842 0.0
C520 C 0.24889 0.38981 0.07018 0.0
C521 C 0.23624 0.37924 0.01583 0.0
C522 C 0.22712 0.39489 0.96752 0.0
C523 C 0.23043 0.42055 0.97374 0.0
H524 H 0.19151 0.72391 0.40409 0.0
H525 H 0.1925 0.71642 0.61175 0.0
H526 H 0.14671 0.72008 0.4011 0.0
H527 H 0.1476 0.71204 0.60832 0.0
H528 H 0.06893 0.68908 0.40863 0.0
H529 H 0.11413 0.69014 0.41559 0.0
H530 H 0.11101 0.73691 0.58821 0.0
H531 H 0.066 0.73532 0.58205 0.0
C532 C 0.18222 0.72132 0.44913 0.0
C533 C 0.19567 0.72056 0.50822 0.0
C534 C 0.1565 0.71894 0.44729 0.0
C535 C 0.14358 0.71567 0.50443 0.0
C536 C 0.15699 0.71482 0.56352 0.0
C537 C 0.18275 0.71725 0.56542 0.0
C538 C 0.07799 0.69939 0.44827 0.0
C539 C 0.06401 0.71211 0.49462 0.0
C540 C 0.10382 0.70015 0.45207 0.0
C541 C 0.11617 0.71372 0.50229 0.0
C542 C 0.1021 0.72606 0.54937 0.0
C543 C 0.07627 0.72525 0.54562 0.0
H544 H 0.77527 0.69426 0.89127 0.0
H545 H 0.79235 0.6923 0.09646 0.0
H546 H 0.77618 0.64923 0.88447 0.0
H547 H 0.79398 0.6473 0.0892 0.0
H548 H 0.7637 0.56856 0.0684 0.0
H549 H 0.76564 0.61353 0.07399 0.0
H550 H 0.80216 0.61331 0.89066 0.0
H551 H 0.79947 0.5681 0.88431 0.0
C552 C 0.77955 0.68426 0.9348 0.0
C553 C 0.78354 0.69693 0.99453 0.0
C554 C 0.78019 0.6584 0.93081 0.0
C555 C 0.78499 0.6446 0.98636 0.0
C556 C 0.78973 0.65732 0.04569 0.0
C557 C 0.78893 0.68315 0.04978 0.0
C558 C 0.77221 0.57808 0.02934 0.0
C559 C 0.78149 0.56486 0.97585 0.0
C560 C 0.77348 0.60389 0.03275 0.0
C561 C 0.78418 0.61708 0.98295 0.0
C562 C 0.79355 0.60377 0.92952 0.0
C563 C 0.79214 0.57791 0.92597 0.0
H564 H 0.80548 0.27202 0.40545 0.0
H565 H 0.80478 0.28356 0.61308 0.0
H566 H 0.85051 0.27098 0.41018 0.0
H567 H 0.84979 0.28317 0.61744 0.0
H568 H 0.92778 0.25069 0.61002 0.0
H569 H 0.88276 0.25381 0.60481 0.0
H570 H 0.88709 0.29588 0.43087 0.0
H571 H 0.9321 0.29213 0.43535 0.0
C572 C 0.8149 0.27461 0.45204 0.0
C573 C 0.80143 0.2777 0.50893 0.0
C574 C 0.84076 0.27414 0.45469 0.0
C575 C 0.8538 0.27685 0.51423 0.0
C576 C 0.84035 0.28055 0.5709 0.0
C577 C 0.8145 0.28092 0.56832 0.0
C578 C 0.91905 0.26059 0.57072 0.0
C579 C 0.93338 0.27106 0.52306 0.0
C580 C 0.89329 0.26255 0.56794 0.0
C581 C 0.88128 0.27516 0.51749 0.0
C582 C 0.89571 0.28577 0.46991 0.0
C583 C 0.92151 0.28372 0.47262 0.0
H584 H 0.72794 0.19218 0.59789 0.0
H585 H 0.71522 0.19341 0.39071 0.0
H586 H 0.72953 0.14716 0.59196 0.0
H587 H 0.71619 0.14838 0.38519 0.0
H588 H 0.70863 0.06572 0.56632 0.0
H589 H 0.70455 0.11066 0.57125 0.0
H590 H 0.7459 0.11549 0.39616 0.0
H591 H 0.74937 0.07043 0.39047 0.0
C592 C 0.72521 0.18288 0.55116 0.0
C593 C 0.72159 0.19648 0.49474 0.0
C594 C 0.72601 0.15702 0.54782 0.0
C595 C 0.72309 0.14415 0.48805 0.0
C596 C 0.71894 0.15773 0.43185 0.0
C597 C 0.71825 0.18357 0.43511 0.0
C598 C 0.71682 0.07638 0.52886 0.0
C599 C 0.72941 0.06464 0.47802 0.0
C600 C 0.71457 0.10215 0.53185 0.0
C601 C 0.72492 0.1167 0.48417 0.0
C602 C 0.7374 0.10485 0.43317 0.0
C603 C 0.73955 0.07908 0.43008 0.0
H604 H 0.30412 0.21379 0.10327 0.0
H605 H 0.30471 0.20996 0.89424 0.0
H606 H 0.34903 0.21109 0.10745 0.0
H607 H 0.34966 0.20671 0.89868 0.0
H608 H 0.42829 0.18359 0.09419 0.0
H609 H 0.3831 0.18327 0.08679 0.0
H610 H 0.38517 0.23273 0.9265 0.0
H611 H 0.43027 0.23254 0.9331 0.0
C612 C 0.31376 0.21213 0.05817 0.0
C613 C 0.30071 0.21222 -0.0016 0.0
C614 C 0.33956 0.21044 0.06061 0.0
C615 C 0.35298 0.20875 0.00339 0.0
C616 C 0.33993 0.20837 0.94365 0.0
C617 C 0.31411 0.21009 0.94116 0.0
C618 C 0.41901 0.19427 0.05722 0.0
C619 C 0.43275 0.20806 0.01432 0.0
C620 C 0.39316 0.19421 0.05318 0.0
C621 C 0.38049 0.20802 0.00615 0.0
C622 C 0.39433 0.22162 0.96274 0.0
C623 C 0.42019 0.22164 0.96675 0.0
H624 H 0.27103 0.80788 0.61429 0.0
H625 H 0.28572 0.80565 0.40981 0.0
H626 H 0.27436 0.85278 0.61617 0.0
H627 H 0.28974 0.85056 0.41222 0.0
H628 H 0.30367 0.93145 0.61209 0.0
H629 H 0.30341 0.88617 0.60825 0.0
H630 H 0.26444 0.88675 0.423 0.0
H631 H 0.26541 0.93176 0.4261 0.0
C632 C 0.27515 0.81693 0.56978 0.0
C633 C 0.27798 0.80311 0.51181 0.0
C634 C 0.27724 0.84271 0.571 0.0
C635 C 0.28235 0.85531 0.51437 0.0
C636 C 0.28543 0.84148 0.45652 0.0
C637 C 0.28321 0.8157 0.45521 0.0
C638 C 0.29526 0.9218 0.5704 0.0
C639 C 0.28461 0.93508 0.51951 0.0
C640 C 0.29494 0.89591 0.56834 0.0
C641 C 0.28382 0.8828 0.5154 0.0
C642 C 0.27348 0.89621 0.46406 0.0
C643 C 0.27391 0.92206 0.46602 0.0
H644 H 0.69459 0.76341 0.11047 0.0
H645 H 0.69364 0.77873 0.90638 0.0
H646 H 0.64967 0.75878 0.10569 0.0
H647 H 0.64888 0.77465 0.90216 0.0
H648 H 0.56622 0.77507 0.08173 0.0
H649 H 0.61097 0.78146 0.08992 0.0
H650 H 0.61908 0.74151 0.90772 0.0
H651 H 0.57438 0.73568 0.899 0.0
C652 C 0.68482 0.76604 0.06478 0.0
C653 C 0.69778 0.77121 0.00869 0.0
C654 C 0.65906 0.76348 0.06213 0.0
C655 C 0.64574 0.7661 0.0034 0.0
C656 C 0.65865 0.77199 0.94785 0.0
C657 C 0.68433 0.77446 0.95041 0.0
C658 C 0.5776 0.76764 0.04356 0.0
C659 C 0.56692 0.7549 0.98959 0.0
C660 C 0.60323 0.77121 0.04838 0.0
C661 C 0.61857 0.76211 -0.00069 0.0
C662 C 0.60776 0.74914 0.94578 0.0
C663 C 0.58221 0.74564 0.94095 0.0
loop_
_geom_bond_atom_site_label_1
_geom_bond_atom_site_label_2
_geom_bond_distance
_geom_bond_site_symmetry_2
_ccdc_geom_bond_type
Sc0 O3 2.025 . S
Sc0 O10 2.105 . S
Sc0 O13 2.105 . S
Sc0 O16 2.105 . S
Sc0 O19 2.105 . S
Sc1 O3 2.025 . S
Sc1 O11 2.105 . S
Sc1 O15 2.105 1_554 S
Sc1 O17 2.105 . S
Sc1 O21 2.105 1_554 S
Sc2 O3 2.025 1_556 S
Sc2 O12 2.105 . S
Sc2 O14 2.105 . S
Sc2 O18 2.105 . S
Sc2 O20 2.105 . S
O3 Sc0 2.025 . S
O3 Sc1 2.025 . S
O3 Sc2 2.025 1_554 S
C4 O10 1.268 . S
C4 O20 1.268 1_554 S
C5 O11 1.268 . S
C5 O19 1.268 . S
C6 O12 1.268 . S
C6 O21 1.268 . S
C7 O13 1.268 . S
C7 O17 1.268 . S
C8 O14 1.268 1_554 S
C8 O16 1.268 . S
C9 O15 1.268 . S
C9 O18 1.268 . S
O10 Sc0 2.105 . S
O10 C4 1.268 . S
O11 Sc1 2.105 . S
O11 C5 1.268 . S
O12 Sc2 2.105 . S
O12 C6 1.268 . S
O13 Sc0 2.105 . S
O13 C7 1.268 . S
O14 Sc2 2.105 . S
O14 C8 1.268 1_556 S
O15 Sc1 2.105 1_556 S
O15 C9 1.268 . S
O16 Sc0 2.105 . S
O16 C8 1.268 . S
O17 Sc1 2.105 . S
O17 C7 1.268 . S
O18 Sc2 2.105 . S
O18 C9 1.268 . S
O19 Sc0 2.105 . S
O19 C5 1.268 . S
O20 Sc2 2.105 . S
O20 C4 1.268 1_556 S
O21 Sc1 2.105 1_556 S
O21 C6 1.268 . S
Sc22 O25 2.025 . S
Sc22 O32 2.105 . S
Sc22 O35 2.105 . S
Sc22 O38 2.105 . S
Sc22 O41 2.105 . S
Sc23 O25 2.025 . S
Sc23 O33 2.105 . S
Sc23 O37 2.105 . S
Sc23 O39 2.105 . S
Sc23 O43 2.105 . S
Sc24 O25 2.025 . S
Sc24 O34 2.105 . S
Sc24 O36 2.105 . S
Sc24 O40 2.105 . S
Sc24 O42 2.105 . S
O25 Sc22 2.025 . S
O25 Sc23 2.025 . S
O25 Sc24 2.025 . S
C26 O32 1.268 . S
C26 O42 1.268 . S
C27 O33 1.268 . S
C27 O41 1.268 . S
C28 O34 1.268 . S
C28 O43 1.268 . S
C29 O35 1.268 . S
C29 O39 1.268 . S
C30 O36 1.268 . S
C30 O38 1.268 . S
C31 O37 1.268 . S
C31 O40 1.268 . S
O32 Sc22 2.105 . S
O32 C26 1.268 . S
O33 Sc23 2.105 . S
O33 C27 1.268 . S
O34 Sc24 2.105 . S
O34 C28 1.268 . S
O35 Sc22 2.105 . S
O35 C29 1.268 . S
O36 Sc24 2.105 . S
O36 C30 1.268 . S
O37 Sc23 2.105 . S
O37 C31 1.268 . S
O38 Sc22 2.105 . S
O38 C30 1.268 . S
O39 Sc23 2.105 . S
O39 C29 1.268 . S
O40 Sc24 2.105 . S
O40 C31 1.268 . S
O41 Sc22 2.105 . S
O41 C27 1.268 . S
O42 Sc24 2.105 . S
O42 C26 1.268 . S
O43 Sc23 2.105 . S
O43 C28 1.268 . S
Sc44 O47 2.025 1_556 S
Sc44 O54 2.105 . S
Sc44 O57 2.105 . S
Sc44 O60 2.105 . S
Sc44 O63 2.105 . S
Sc45 O47 2.025 . S
Sc45 O55 2.105 1_554 S
Sc45 O59 2.105 . S
Sc45 O61 2.105 1_554 S
Sc45 O65 2.105 . S
Sc46 O47 2.025 . S
Sc46 O56 2.105 . S
Sc46 O58 2.105 . S
Sc46 O62 2.105 . S
Sc46 O64 2.105 . S
O47 Sc44 2.025 1_554 S
O47 Sc45 2.025 . S
O47 Sc46 2.025 . S
C48 O54 1.268 1_554 S
C48 O64 1.268 . S
C49 O55 1.268 . S
C49 O63 1.268 . S
C50 O56 1.268 . S
C50 O65 1.268 . S
C51 O57 1.268 . S
C51 O61 1.268 . S
C52 O58 1.268 . S
C52 O60 1.268 1_554 S
C53 O59 1.268 . S
C53 O62 1.268 . S
O54 Sc44 2.105 . S
O54 C48 1.268 1_556 S
O55 Sc45 2.105 1_556 S
O55 C49 1.268 . S
O56 Sc46 2.105 . S
O56 C50 1.268 . S
O57 Sc44 2.105 . S
O57 C51 1.268 . S
O58 Sc46 2.105 . S
O58 C52 1.268 . S
O59 Sc45 2.105 . S
O59 C53 1.268 . S
O60 Sc44 2.105 . S
O60 C52 1.268 1_556 S
O61 Sc45 2.105 1_556 S
O61 C51 1.268 . S
O62 Sc46 2.105 . S
O62 C53 1.268 . S
O63 Sc44 2.105 . S
O63 C49 1.268 . S
O64 Sc46 2.105 . S
O64 C48 1.268 . S
O65 Sc45 2.105 . S
O65 C50 1.268 . S
Sc66 O69 2.025 . S
Sc66 O76 2.105 . S
Sc66 O79 2.105 . S
Sc66 O82 2.105 . S
Sc66 O85 2.105 . S
Sc67 O69 2.025 . S
Sc67 O77 2.105 . S
Sc67 O81 2.105 . S
Sc67 O83 2.105 . S
Sc67 O87 2.105 . S
Sc68 O69 2.025 . S
Sc68 O78 2.105 . S
Sc68 O80 2.105 . S
Sc68 O84 2.105 . S
Sc68 O86 2.105 . S
O69 Sc66 2.025 . S
O69 Sc67 2.025 . S
O69 Sc68 2.025 . S
C70 O76 1.268 . S
C70 O86 1.268 . S
C71 O77 1.268 . S
C71 O85 1.268 . S
C72 O78 1.268 . S
C72 O87 1.268 . S
C73 O79 1.268 . S
C73 O83 1.268 . S
C74 O80 1.268 . S
C74 O82 1.268 . S
C75 O81 1.268 . S
C75 O84 1.268 . S
O76 Sc66 2.105 . S
O76 C70 1.268 . S
O77 Sc67 2.105 . S
O77 C71 1.268 . S
O78 Sc68 2.105 . S
O78 C72 1.268 . S
O79 Sc66 2.105 . S
O79 C73 1.268 . S
O80 Sc68 2.105 . S
O80 C74 1.268 . S
O81 Sc67 2.105 . S
O81 C75 1.268 . S
O82 Sc66 2.105 . S
O82 C74 1.268 . S
O83 Sc67 2.105 . S
O83 C73 1.268 . S
O84 Sc68 2.105 . S
O84 C75 1.268 . S
O85 Sc66 2.105 . S
O85 C71 1.268 . S
O86 Sc68 2.105 . S
O86 C70 1.268 . S
O87 Sc67 2.105 . S
O87 C72 1.268 . S
H88 C93 0.930 . S
H89 C96 0.930 . S
H90 C98 0.931 . S
H91 C92 1.016 . S
C92 H91 1.016 . S
C92 N99 1.286 1_554 S
C93 H88 0.930 . S
C93 C94 1.397 . S
C93 C95 1.361 . S
C94 C93 1.397 . S
C94 C98 1.377 1_556 S
C95 C93 1.361 . S
C95 C96 1.393 1_556 S
C95 N99 1.413 . S
C96 H89 0.930 . S
C96 C95 1.393 1_554 S
C96 C97 1.399 . S
C97 C96 1.399 . S
C97 C98 1.393 . S
C98 H90 0.931 . S
C98 C94 1.377 1_554 S
C98 C97 1.393 . S
N99 C92 1.286 1_556 S
N99 C95 1.413 . S
H100 C105 0.930 . S
H101 C108 0.930 . S
H102 C110 0.930 . S
H103 C104 1.016 . S
C104 H103 1.016 . S
C104 N111 1.286 . S
C105 H100 0.930 . S
C105 C106 1.397 . S
C105 C107 1.372 . S
C106 C105 1.397 . S
C106 C110 1.390 . S
C107 C105 1.372 . S
C107 C108 1.401 . S
C107 N111 1.394 1_655 S
C108 H101 0.930 . S
C108 C107 1.401 . S
C108 C109 1.399 . S
C109 C108 1.399 . S
C109 C110 1.381 . S
C110 H102 0.930 . S
C110 C106 1.390 . S
C110 C109 1.381 . S
N111 C104 1.286 . S
N111 C107 1.394 1_455 S
H112 C117 0.930 . S
H113 C120 0.930 . S
H114 C122 0.930 . S
H115 C116 1.016 1_556 S
C116 H115 1.016 1_554 S
C116 N123 1.286 . S
C117 H112 0.930 . S
C117 C118 1.397 . S
C117 C119 1.361 . S
C118 C117 1.397 . S
C118 C122 1.390 . S
C119 C117 1.361 . S
C119 C120 1.393 1_554 S
C119 N123 1.413 . S
C120 H113 0.930 . S
C120 C119 1.393 1_556 S
C120 C121 1.399 . S
C121 C120 1.399 . S
C121 C122 1.381 1_556 S
C122 H114 0.930 . S
C122 C118 1.390 . S
C122 C121 1.381 1_554 S
N123 C116 1.286 . S
N123 C119 1.413 . S
H124 C129 0.930 . S
H125 C132 0.930 . S
H126 C134 0.930 . S
H127 C128 1.016 . S
C128 H127 1.016 . S
C128 N135 1.286 . S
C129 H124 0.930 . S
C129 C130 1.397 . S
C129 C131 1.361 . S
C130 C129 1.397 . S
C130 C134 1.390 . S
C131 C129 1.361 . S
C131 C132 1.393 . S
C131 N135 1.413 1_455 S
C132 H125 0.930 . S
C132 C131 1.393 . S
C132 C133 1.399 . S
C133 C132 1.399 . S
C133 C134 1.381 . S
C134 H126 0.930 . S
C134 C130 1.390 . S
C134 C133 1.381 . S
N135 C128 1.286 . S
N135 C131 1.413 1_655 S
H136 C141 0.930 . S
H137 C144 0.930 . S
H138 C146 0.930 . S
H139 C140 1.016 . S
C140 H139 1.016 . S
C140 N147 1.286 . S
C141 H136 0.930 . S
C141 C142 1.397 . S
C141 C143 1.361 . S
C142 C141 1.397 . S
C142 C146 1.390 . S
C143 C141 1.361 . S
C143 C144 1.393 . S
C143 N147 1.413 1_565 S
C144 H137 0.930 . S
C144 C143 1.393 . S
C144 C145 1.399 . S
C145 C144 1.399 . S
C145 C146 1.381 . S
C146 H138 0.930 . S
C146 C142 1.390 . S
C146 C145 1.381 . S
N147 C140 1.286 . S
N147 C143 1.413 1_545 S
H148 C153 0.930 . S
H149 C156 0.930 . S
H150 C158 0.931 . S
H151 C152 1.016 . S
C152 H151 1.016 . S
C152 N159 1.286 1_554 S
C153 H148 0.930 . S
C153 C154 1.397 . S
C153 C155 1.361 . S
C154 C153 1.397 . S
C154 C158 1.382 1_556 S
C155 C153 1.361 . S
C155 C156 1.393 1_556 S
C155 N159 1.413 . S
C156 H149 0.930 . S
C156 C155 1.393 1_554 S
C156 C157 1.399 . S
C157 C156 1.399 . S
C157 C158 1.389 . S
C158 H150 0.931 . S
C158 C154 1.382 1_554 S
C158 C157 1.389 . S
N159 C152 1.286 1_556 S
N159 C155 1.413 . S
H160 C165 0.930 . S
H161 C168 0.930 . S
H162 C170 0.930 . S
H163 C164 1.016 . S
C164 H163 1.016 . S
C164 N171 1.286 . S
C165 H160 0.930 . S
C165 C166 1.397 . S
C165 C167 1.376 . S
C166 C165 1.397 . S
C166 C170 1.390 . S
C167 C165 1.376 . S
C167 C168 1.404 . S
C167 N171 1.389 1_545 S
C168 H161 0.930 . S
C168 C167 1.404 . S
C168 C169 1.399 . S
C169 C168 1.399 . S
C169 C170 1.381 . S
C170 H162 0.930 . S
C170 C166 1.390 . S
C170 C169 1.381 . S
N171 C164 1.286 . S
N171 C167 1.389 1_565 S
H172 C177 0.930 . S
H173 C180 0.930 . S
H174 C182 0.930 . S
H175 C176 1.016 1_556 S
C176 H175 1.016 1_554 S
C176 N183 1.286 . S
C177 H172 0.930 . S
C177 C178 1.397 . S
C177 C179 1.361 . S
C178 C177 1.397 . S
C178 C182 1.390 . S
C179 C177 1.361 . S
C179 C180 1.393 1_554 S
C179 N183 1.413 . S
C180 H173 0.930 . S
C180 C179 1.393 1_556 S
C180 C181 1.399 . S
C181 C180 1.399 . S
C181 C182 1.381 1_556 S
C182 H174 0.930 . S
C182 C178 1.390 . S
C182 C181 1.381 1_554 S
N183 C176 1.286 . S
N183 C179 1.413 . S
H184 C192 0.950 . S
H185 C197 0.950 . S
H186 C194 0.950 . S
H187 C196 0.950 . S
H188 C198 0.950 . S
H189 C200 0.950 . S
H190 C202 0.950 . S
H191 C203 0.950 . S
C192 H184 0.950 . S
C192 C193 1.386 . S
C192 C194 1.391 . S
C193 C192 1.386 . S
C193 C197 1.393 . S
C194 H186 0.950 . S
C194 C192 1.391 . S
C194 C195 1.400 . S
C195 C194 1.400 . S
C195 C196 1.398 . S
C195 C201 1.491 . S
C196 H187 0.950 . S
C196 C195 1.398 . S
C196 C197 1.391 . S
C197 H185 0.950 . S
C197 C193 1.393 . S
C197 C196 1.391 . S
C198 H188 0.950 . S
C198 C199 1.386 . S
C198 C200 1.391 . S
C199 C198 1.386 . S
C199 C203 1.393 . S
C200 H189 0.950 . S
C200 C198 1.391 . S
C200 C201 1.400 . S
C201 C195 1.491 . S
C201 C200 1.400 . S
C201 C202 1.398 . S
C202 H190 0.950 . S
C202 C201 1.398 . S
C202 C203 1.391 . S
C203 H191 0.950 . S
C203 C199 1.393 . S
C203 C202 1.391 . S
H204 C212 0.950 . S
H205 C217 0.950 . S
H206 C214 0.950 . S
H207 C216 0.950 . S
H208 C218 0.950 . S
H209 C220 0.950 . S
H210 C222 0.950 . S
H211 C223 0.950 . S
C212 H204 0.950 . S
C212 C213 1.386 . S
C212 C214 1.391 . S
C213 C212 1.386 . S
C213 C217 1.393 . S
C214 H206 0.950 . S
C214 C212 1.391 . S
C214 C215 1.400 . S
C215 C214 1.400 . S
C215 C216 1.398 . S
C215 C221 1.491 . S
C216 H207 0.950 . S
C216 C215 1.398 . S
C216 C217 1.391 . S
C217 H205 0.950 . S
C217 C213 1.393 . S
C217 C216 1.391 . S
C218 H208 0.950 . S
C218 C219 1.386 . S
C218 C220 1.391 . S
C219 C218 1.386 . S
C219 C223 1.393 . S
C220 H209 0.950 . S
C220 C218 1.391 . S
C220 C221 1.400 . S
C221 C215 1.491 . S
C221 C220 1.400 . S
C221 C222 1.398 . S
C222 H210 0.950 . S
C222 C221 1.398 . S
C222 C223 1.391 . S
C223 H211 0.950 . S
C223 C219 1.393 . S
C223 C222 1.391 . S
H224 C232 0.950 . S
H225 C237 0.950 . S
H226 C234 0.950 . S
H227 C236 0.950 . S
H228 C238 0.950 . S
H229 C240 0.950 . S
H230 C242 0.950 . S
H231 C243 0.950 . S
C232 H224 0.950 . S
C232 C233 1.386 . S
C232 C234 1.391 . S
C233 C232 1.386 . S
C233 C237 1.393 . S
C234 H226 0.950 . S
C234 C232 1.391 . S
C234 C235 1.400 . S
C235 C234 1.400 . S
C235 C236 1.398 . S
C235 C241 1.491 . S
C236 H227 0.950 . S
C236 C235 1.398 . S
C236 C237 1.391 . S
C237 H225 0.950 . S
C237 C233 1.393 . S
C237 C236 1.391 . S
C238 H228 0.950 . S
C238 C239 1.386 . S
C238 C240 1.391 . S
C239 C238 1.386 . S
C239 C243 1.393 . S
C240 H229 0.950 . S
C240 C238 1.391 . S
C240 C241 1.400 . S
C241 C235 1.491 . S
C241 C240 1.400 . S
C241 C242 1.398 . S
C242 H230 0.950 . S
C242 C241 1.398 . S
C242 C243 1.391 . S
C243 H231 0.950 . S
C243 C239 1.393 . S
C243 C242 1.391 . S
H244 C252 0.950 . S
H245 C257 0.950 . S
H246 C254 0.950 . S
H247 C256 0.950 . S
H248 C258 0.950 . S
H249 C260 0.950 . S
H250 C262 0.950 . S
H251 C263 0.950 . S
C252 H244 0.950 . S
C252 C253 1.386 . S
C252 C254 1.391 . S
C253 C252 1.386 . S
C253 C257 1.393 . S
C254 H246 0.950 . S
C254 C252 1.391 . S
C254 C255 1.400 . S
C255 C254 1.400 . S
C255 C256 1.398 . S
C255 C261 1.491 . S
C256 H247 0.950 . S
C256 C255 1.398 . S
C256 C257 1.391 . S
C257 H245 0.950 . S
C257 C253 1.393 . S
C257 C256 1.391 . S
C258 H248 0.950 . S
C258 C259 1.386 . S
C258 C260 1.391 . S
C259 C258 1.386 . S
C259 C263 1.393 . S
C260 H249 0.950 . S
C260 C258 1.391 . S
C260 C261 1.400 . S
C261 C255 1.491 . S
C261 C260 1.400 . S
C261 C262 1.398 . S
C262 H250 0.950 . S
C262 C261 1.398 . S
C262 C263 1.391 . S
C263 H251 0.950 . S
C263 C259 1.393 . S
C263 C262 1.391 . S
H264 C272 0.950 . S
H265 C277 0.950 . S
H266 C274 0.950 . S
H267 C276 0.950 . S
H268 C278 0.950 . S
H269 C280 0.950 . S
H270 C282 0.950 . S
H271 C283 0.950 . S
C272 H264 0.950 . S
C272 C273 1.386 . S
C272 C274 1.391 . S
C273 C272 1.386 . S
C273 C277 1.393 . S
C274 H266 0.950 . S
C274 C272 1.391 . S
C274 C275 1.400 . S
C275 C274 1.400 . S
C275 C276 1.398 . S
C275 C281 1.491 . S
C276 H267 0.950 . S
C276 C275 1.398 . S
C276 C277 1.391 . S
C277 H265 0.950 . S
C277 C273 1.393 . S
C277 C276 1.391 . S
C278 H268 0.950 . S
C278 C279 1.386 . S
C278 C280 1.391 . S
C279 C278 1.386 . S
C279 C283 1.393 . S
C280 H269 0.950 . S
C280 C278 1.391 . S
C280 C281 1.400 . S
C281 C275 1.491 . S
C281 C280 1.400 . S
C281 C282 1.398 . S
C282 H270 0.950 . S
C282 C281 1.398 . S
C282 C283 1.391 . S
C283 H271 0.950 . S
C283 C279 1.393 . S
C283 C282 1.391 . S
H284 C292 0.950 . S
H285 C297 0.950 . S
H286 C294 0.950 . S
H287 C296 0.950 . S
H288 C298 0.950 . S
H289 C300 0.950 . S
H290 C302 0.950 . S
H291 C303 0.950 . S
C292 H284 0.950 . S
C292 C293 1.386 . S
C292 C294 1.391 . S
C293 C292 1.386 . S
C293 C297 1.393 . S
C294 H286 0.950 . S
C294 C292 1.391 . S
C294 C295 1.400 . S
C295 C294 1.400 . S
C295 C296 1.398 . S
C295 C301 1.491 . S
C296 H287 0.950 . S
C296 C295 1.398 . S
C296 C297 1.391 . S
C297 H285 0.950 . S
C297 C293 1.393 . S
C297 C296 1.391 . S
C298 H288 0.950 . S
C298 C299 1.386 . S
C298 C300 1.391 . S
C299 C298 1.386 . S
C299 C303 1.393 . S
C300 H289 0.950 . S
C300 C298 1.391 . S
C300 C301 1.400 . S
C301 C295 1.491 . S
C301 C300 1.400 . S
C301 C302 1.398 . S
C302 H290 0.950 . S
C302 C301 1.398 . S
C302 C303 1.391 . S
C303 H291 0.950 . S
C303 C299 1.393 . S
C303 C302 1.391 . S
H304 C312 0.950 . S
H305 C317 0.950 . S
H306 C314 0.950 . S
H307 C316 0.950 . S
H308 C318 0.950 . S
H309 C320 0.950 . S
H310 C322 0.950 . S
H311 C323 0.950 . S
C312 H304 0.950 . S
C312 C313 1.386 . S
C312 C314 1.391 . S
C313 C312 1.386 . S
C313 C317 1.393 . S
C314 H306 0.950 . S
C314 C312 1.391 . S
C314 C315 1.400 . S
C315 C314 1.400 . S
C315 C316 1.398 . S
C315 C321 1.491 . S
C316 H307 0.950 . S
C316 C315 1.398 . S
C316 C317 1.391 . S
C317 H305 0.950 . S
C317 C313 1.393 . S
C317 C316 1.391 . S
C318 H308 0.950 . S
C318 C319 1.386 . S
C318 C320 1.391 . S
C319 C318 1.386 . S
C319 C323 1.393 . S
C320 H309 0.950 . S
C320 C318 1.391 . S
C320 C321 1.400 . S
C321 C315 1.491 . S
C321 C320 1.400 . S
C321 C322 1.398 . S
C322 H310 0.950 . S
C322 C321 1.398 . S
C322 C323 1.391 . S
C323 H311 0.950 . S
C323 C319 1.393 . S
C323 C322 1.391 . S
H324 C332 0.950 . S
H325 C337 0.950 . S
H326 C334 0.950 . S
H327 C336 0.950 . S
H328 C338 0.950 . S
H329 C340 0.950 . S
H330 C342 0.950 . S
H331 C343 0.950 . S
C332 H324 0.950 . S
C332 C333 1.386 . S
C332 C334 1.391 . S
C333 C332 1.386 . S
C333 C337 1.393 . S
C334 H326 0.950 . S
C334 C332 1.391 . S
C334 C335 1.400 . S
C335 C334 1.400 . S
C335 C336 1.398 . S
C335 C341 1.491 . S
C336 H327 0.950 . S
C336 C335 1.398 . S
C336 C337 1.391 . S
C337 H325 0.950 . S
C337 C333 1.393 . S
C337 C336 1.391 . S
C338 H328 0.950 . S
C338 C339 1.386 . S
C338 C340 1.391 . S
C339 C338 1.386 . S
C339 C343 1.393 . S
C340 H329 0.950 . S
C340 C338 1.391 . S
C340 C341 1.400 . S
C341 C335 1.491 . S
C341 C340 1.400 . S
C341 C342 1.398 . S
C342 H330 0.950 . S
C342 C341 1.398 . S
C342 C343 1.391 . S
C343 H331 0.950 . S
C343 C339 1.393 . S
C343 C342 1.391 . S
H344 C352 0.950 . S
H345 C357 0.950 . S
H346 C354 0.950 . S
H347 C356 0.950 . S
H348 C358 0.950 . S
H349 C360 0.950 . S
H350 C362 0.950 . S
H351 C363 0.950 . S
C352 H344 0.950 . S
C352 C353 1.386 . S
C352 C354 1.391 . S
C353 C352 1.386 . S
C353 C357 1.393 . S
C354 H346 0.950 . S
C354 C352 1.391 . S
C354 C355 1.400 . S
C355 C354 1.400 . S
C355 C356 1.398 . S
C355 C361 1.491 . S
C356 H347 0.950 . S
C356 C355 1.398 . S
C356 C357 1.391 . S
C357 H345 0.950 . S
C357 C353 1.393 . S
C357 C356 1.391 . S
C358 H348 0.950 . S
C358 C359 1.386 . S
C358 C360 1.391 . S
C359 C358 1.386 . S
C359 C363 1.393 . S
C360 H349 0.950 . S
C360 C358 1.391 . S
C360 C361 1.400 . S
C361 C355 1.491 . S
C361 C360 1.400 . S
C361 C362 1.398 . S
C362 H350 0.950 . S
C362 C361 1.398 . S
C362 C363 1.391 . S
C363 H351 0.950 . S
C363 C359 1.393 . S
C363 C362 1.391 . S
H364 C372 0.950 . S
H365 C377 0.950 . S
H366 C374 0.950 . S
H367 C376 0.950 . S
H368 C378 0.950 . S
H369 C380 0.950 . S
H370 C382 0.950 . S
H371 C383 0.950 . S
C372 H364 0.950 . S
C372 C373 1.386 . S
C372 C374 1.391 . S
C373 C372 1.386 . S
C373 C377 1.393 . S
C374 H366 0.950 . S
C374 C372 1.391 . S
C374 C375 1.400 . S
C375 C374 1.400 . S
C375 C376 1.398 . S
C375 C381 1.491 . S
C376 H367 0.950 . S
C376 C375 1.398 . S
C376 C377 1.391 . S
C377 H365 0.950 . S
C377 C373 1.393 . S
C377 C376 1.391 . S
C378 H368 0.950 . S
C378 C379 1.386 . S
C378 C380 1.391 . S
C379 C378 1.386 . S
C379 C383 1.393 . S
C380 H369 0.950 . S
C380 C378 1.391 . S
C380 C381 1.400 . S
C381 C375 1.491 . S
C381 C380 1.400 . S
C381 C382 1.398 . S
C382 H370 0.950 . S
C382 C381 1.398 . S
C382 C383 1.391 . S
C383 H371 0.950 . S
C383 C379 1.393 . S
C383 C382 1.391 . S
H384 C392 0.950 . S
H385 C397 0.950 . S
H386 C394 0.950 . S
H387 C396 0.950 . S
H388 C398 0.950 . S
H389 C400 0.950 . S
H390 C402 0.950 . S
H391 C403 0.950 . S
C392 H384 0.950 . S
C392 C393 1.386 . S
C392 C394 1.391 . S
C393 C392 1.386 . S
C393 C397 1.393 . S
C394 H386 0.950 . S
C394 C392 1.391 . S
C394 C395 1.400 . S
C395 C394 1.400 . S
C395 C396 1.398 . S
C395 C401 1.491 . S
C396 H387 0.950 . S
C396 C395 1.398 . S
C396 C397 1.391 . S
C397 H385 0.950 . S
C397 C393 1.393 . S
C397 C396 1.391 . S
C398 H388 0.950 . S
C398 C399 1.386 . S
C398 C400 1.391 . S
C399 C398 1.386 . S
C399 C403 1.393 . S
C400 H389 0.950 . S
C400 C398 1.391 . S
C400 C401 1.400 . S
C401 C395 1.491 . S
C401 C400 1.400 . S
C401 C402 1.398 . S
C402 H390 0.950 . S
C402 C401 1.398 . S
C402 C403 1.391 . S
C403 H391 0.950 . S
C403 C399 1.393 . S
C403 C402 1.391 . S
H404 C412 0.950 . S
H405 C417 0.950 . S
H406 C414 0.950 . S
H407 C416 0.950 . S
H408 C418 0.950 . S
H409 C420 0.950 . S
H410 C422 0.950 . S
H411 C423 0.950 . S
C412 H404 0.950 . S
C412 C413 1.386 . S
C412 C414 1.391 . S
C413 C412 1.386 . S
C413 C417 1.393 . S
C414 H406 0.950 . S
C414 C412 1.391 . S
C414 C415 1.400 . S
C415 C414 1.400 . S
C415 C416 1.398 . S
C415 C421 1.491 . S
C416 H407 0.950 . S
C416 C415 1.398 . S
C416 C417 1.391 . S
C417 H405 0.950 . S
C417 C413 1.393 . S
C417 C416 1.391 . S
C418 H408 0.950 . S
C418 C419 1.386 . S
C418 C420 1.391 . S
C419 C418 1.386 . S
C419 C423 1.393 . S
C420 H409 0.950 . S
C420 C418 1.391 . S
C420 C421 1.400 . S
C421 C415 1.491 . S
C421 C420 1.400 . S
C421 C422 1.398 . S
C422 H410 0.950 . S
C422 C421 1.398 . S
C422 C423 1.391 . S
C423 H411 0.950 . S
C423 C419 1.393 . S
C423 C422 1.391 . S
H424 C432 0.950 . S
H425 C437 0.950 . S
H426 C434 0.950 . S
H427 C436 0.950 . S
H428 C438 0.950 . S
H429 C440 0.950 . S
H430 C442 0.950 . S
H431 C443 0.950 . S
C432 H424 0.950 . S
C432 C433 1.386 . S
C432 C434 1.391 . S
C433 C432 1.386 . S
C433 C437 1.393 . S
C434 H426 0.950 . S
C434 C432 1.391 . S
C434 C435 1.400 . S
C435 C434 1.400 . S
C435 C436 1.398 . S
C435 C441 1.491 . S
C436 H427 0.950 . S
C436 C435 1.398 . S
C436 C437 1.391 . S
C437 H425 0.950 . S
C437 C433 1.393 . S
C437 C436 1.391 . S
C438 H428 0.950 . S
C438 C439 1.386 . S
C438 C440 1.391 . S
C439 C438 1.386 . S
C439 C443 1.393 . S
C440 H429 0.950 . S
C440 C438 1.391 . S
C440 C441 1.400 . S
C441 C435 1.491 . S
C441 C440 1.400 . S
C441 C442 1.398 . S
C442 H430 0.950 . S
C442 C441 1.398 . S
C442 C443 1.391 . S
C443 H431 0.950 . S
C443 C439 1.393 . S
C443 C442 1.391 . S
H444 C452 0.950 . S
H445 C457 0.950 . S
H446 C454 0.950 . S
H447 C456 0.950 . S
H448 C458 0.950 . S
H449 C460 0.950 . S
H450 C462 0.950 . S
H451 C463 0.950 . S
C452 H444 0.950 . S
C452 C453 1.386 . S
C452 C454 1.391 . S
C453 C452 1.386 . S
C453 C457 1.393 . S
C454 H446 0.950 . S
C454 C452 1.391 . S
C454 C455 1.400 . S
C455 C454 1.400 . S
C455 C456 1.398 . S
C455 C461 1.491 . S
C456 H447 0.950 . S
C456 C455 1.398 . S
C456 C457 1.391 . S
C457 H445 0.950 . S
C457 C453 1.393 . S
C457 C456 1.391 . S
C458 H448 0.950 . S
C458 C459 1.386 . S
C458 C460 1.391 . S
C459 C458 1.386 . S
C459 C463 1.393 . S
C460 H449 0.950 . S
C460 C458 1.391 . S
C460 C461 1.400 . S
C461 C455 1.491 . S
C461 C460 1.400 . S
C461 C462 1.398 . S
C462 H450 0.950 . S
C462 C461 1.398 . S
C462 C463 1.391 . S
C463 H451 0.950 . S
C463 C459 1.393 . S
C463 C462 1.391 . S
H464 C472 0.950 . S
H465 C477 0.950 . S
H466 C474 0.950 . S
H467 C476 0.950 . S
H468 C478 0.950 . S
H469 C480 0.950 . S
H470 C482 0.950 . S
H471 C483 0.950 . S
C472 H464 0.950 . S
C472 C473 1.386 . S
C472 C474 1.391 . S
C473 C472 1.386 . S
C473 C477 1.393 . S
C474 H466 0.950 . S
C474 C472 1.391 . S
C474 C475 1.400 . S
C475 C474 1.400 . S
C475 C476 1.398 . S
C475 C481 1.491 . S
C476 H467 0.950 . S
C476 C475 1.398 . S
C476 C477 1.391 . S
C477 H465 0.950 . S
C477 C473 1.393 . S
C477 C476 1.391 . S
C478 H468 0.950 . S
C478 C479 1.386 . S
C478 C480 1.391 . S
C479 C478 1.386 . S
C479 C483 1.393 . S
C480 H469 0.950 . S
C480 C478 1.391 . S
C480 C481 1.400 . S
C481 C475 1.491 . S
C481 C480 1.400 . S
C481 C482 1.398 . S
C482 H470 0.950 . S
C482 C481 1.398 . S
C482 C483 1.391 . S
C483 H471 0.950 . S
C483 C479 1.393 . S
C483 C482 1.391 . S
H484 C492 0.950 . S
H485 C497 0.950 . S
H486 C494 0.950 . S
H487 C496 0.950 . S
H488 C498 0.950 . S
H489 C500 0.950 . S
H490 C502 0.950 . S
H491 C503 0.950 . S
C492 H484 0.950 . S
C492 C493 1.386 . S
C492 C494 1.391 . S
C493 C492 1.386 . S
C493 C497 1.393 . S
C494 H486 0.950 . S
C494 C492 1.391 . S
C494 C495 1.400 . S
C495 C494 1.400 . S
C495 C496 1.398 . S
C495 C501 1.491 . S
C496 H487 0.950 . S
C496 C495 1.398 . S
C496 C497 1.391 . S
C497 H485 0.950 . S
C497 C493 1.393 . S
C497 C496 1.391 . S
C498 H488 0.950 . S
C498 C499 1.386 . S
C498 C500 1.391 . S
C499 C498 1.386 . S
C499 C503 1.393 . S
C500 H489 0.950 . S
C500 C498 1.391 . S
C500 C501 1.400 . S
C501 C495 1.491 . S
C501 C500 1.400 . S
C501 C502 1.398 . S
C502 H490 0.950 . S
C502 C501 1.398 . S
C502 C503 1.391 . S
C503 H491 0.950 . S
C503 C499 1.393 . S
C503 C502 1.391 . S
H504 C512 0.950 . S
H505 C517 0.950 . S
H506 C514 0.950 . S
H507 C516 0.950 . S
H508 C518 0.950 . S
H509 C520 0.950 . S
H510 C522 0.950 . S
H511 C523 0.950 . S
C512 H504 0.950 . S
C512 C513 1.386 1_556 S
C512 C514 1.391 . S
C513 C512 1.386 1_554 S
C513 C517 1.393 . S
C514 H506 0.950 . S
C514 C512 1.391 . S
C514 C515 1.400 1_556 S
C515 C514 1.400 1_554 S
C515 C516 1.398 . S
C515 C521 1.491 . S
C516 H507 0.950 . S
C516 C515 1.398 . S
C516 C517 1.391 . S
C517 H505 0.950 . S
C517 C513 1.393 . S
C517 C516 1.391 . S
C518 H508 0.950 . S
C518 C519 1.386 . S
C518 C520 1.391 . S
C519 C518 1.386 . S
C519 C523 1.393 1_554 S
C520 H509 0.950 . S
C520 C518 1.391 . S
C520 C521 1.400 . S
C521 C515 1.491 . S
C521 C520 1.400 . S
C521 C522 1.398 1_554 S
C522 H510 0.950 . S
C522 C521 1.398 1_556 S
C522 C523 1.391 . S
C523 H511 0.950 . S
C523 C519 1.393 1_556 S
C523 C522 1.391 . S
H524 C532 0.950 . S
H525 C537 0.950 . S
H526 C534 0.950 . S
H527 C536 0.950 . S
H528 C538 0.950 . S
H529 C540 0.950 . S
H530 C542 0.950 . S
H531 C543 0.950 . S
C532 H524 0.950 . S
C532 C533 1.386 . S
C532 C534 1.391 . S
C533 C532 1.386 . S
C533 C537 1.393 . S
C534 H526 0.950 . S
C534 C532 1.391 . S
C534 C535 1.400 . S
C535 C534 1.400 . S
C535 C536 1.398 . S
C535 C541 1.491 . S
C536 H527 0.950 . S
C536 C535 1.398 . S
C536 C537 1.391 . S
C537 H525 0.950 . S
C537 C533 1.393 . S
C537 C536 1.391 . S
C538 H528 0.950 . S
C538 C539 1.386 . S
C538 C540 1.391 . S
C539 C538 1.386 . S
C539 C543 1.393 . S
C540 H529 0.950 . S
C540 C538 1.391 . S
C540 C541 1.400 . S
C541 C535 1.491 . S
C541 C540 1.400 . S
C541 C542 1.398 . S
C542 H530 0.950 . S
C542 C541 1.398 . S
C542 C543 1.391 . S
C543 H531 0.950 . S
C543 C539 1.393 . S
C543 C542 1.391 . S
H544 C552 0.950 . S
H545 C557 0.950 . S
H546 C554 0.950 . S
H547 C556 0.950 . S
H548 C558 0.950 . S
H549 C560 0.950 . S
H550 C562 0.950 . S
H551 C563 0.950 . S
C552 H544 0.950 . S
C552 C553 1.386 1_556 S
C552 C554 1.391 . S
C553 C552 1.386 1_554 S
C553 C557 1.393 . S
C554 H546 0.950 . S
C554 C552 1.391 . S
C554 C555 1.400 1_556 S
C555 C554 1.400 1_554 S
C555 C556 1.398 . S
C555 C561 1.491 . S
C556 H547 0.950 . S
C556 C555 1.398 . S
C556 C557 1.391 . S
C557 H545 0.950 . S
C557 C553 1.393 . S
C557 C556 1.391 . S
C558 H548 0.950 . S
C558 C559 1.386 . S
C558 C560 1.391 . S
C559 C558 1.386 . S
C559 C563 1.393 1_554 S
C560 H549 0.950 . S
C560 C558 1.391 . S
C560 C561 1.400 . S
C561 C555 1.491 . S
C561 C560 1.400 . S
C561 C562 1.398 1_554 S
C562 H550 0.950 . S
C562 C561 1.398 1_556 S
C562 C563 1.391 . S
C563 H551 0.950 . S
C563 C559 1.393 1_556 S
C563 C562 1.391 . S
H564 C572 0.950 . S
H565 C577 0.950 . S
H566 C574 0.950 . S
H567 C576 0.950 . S
H568 C578 0.950 . S
H569 C580 0.950 . S
H570 C582 0.950 . S
H571 C583 0.950 . S
C572 H564 0.950 . S
C572 C573 1.386 . S
C572 C574 1.391 . S
C573 C572 1.386 . S
C573 C577 1.393 . S
C574 H566 0.950 . S
C574 C572 1.391 . S
C574 C575 1.400 . S
C575 C574 1.400 . S
C575 C576 1.398 . S
C575 C581 1.491 . S
C576 H567 0.950 . S
C576 C575 1.398 . S
C576 C577 1.391 . S
C577 H565 0.950 . S
C577 C573 1.393 . S
C577 C576 1.391 . S
C578 H568 0.950 . S
C578 C579 1.386 . S
C578 C580 1.391 . S
C579 C578 1.386 . S
C579 C583 1.393 . S
C580 H569 0.950 . S
C580 C578 1.391 . S
C580 C581 1.400 . S
C581 C575 1.491 . S
C581 C580 1.400 . S
C581 C582 1.398 . S
C582 H570 0.950 . S
C582 C581 1.398 . S
C582 C583 1.391 . S
C583 H571 0.950 . S
C583 C579 1.393 . S
C583 C582 1.391 . S
H584 C592 0.950 . S
H585 C597 0.950 . S
H586 C594 0.950 . S
H587 C596 0.950 . S
H588 C598 0.950 . S
H589 C600 0.950 . S
H590 C602 0.950 . S
H591 C603 0.950 . S
C592 H584 0.950 . S
C592 C593 1.386 . S
C592 C594 1.391 . S
C593 C592 1.386 . S
C593 C597 1.393 . S
C594 H586 0.950 . S
C594 C592 1.391 . S
C594 C595 1.400 . S
C595 C594 1.400 . S
C595 C596 1.398 . S
C595 C601 1.491 . S
C596 H587 0.950 . S
C596 C595 1.398 . S
C596 C597 1.391 . S
C597 H585 0.950 . S
C597 C593 1.393 . S
C597 C596 1.391 . S
C598 H588 0.950 . S
C598 C599 1.386 . S
C598 C600 1.391 . S
C599 C598 1.386 . S
C599 C603 1.393 . S
C600 H589 0.950 . S
C600 C598 1.391 . S
C600 C601 1.400 . S
C601 C595 1.491 . S
C601 C600 1.400 . S
C601 C602 1.398 . S
C602 H590 0.950 . S
C602 C601 1.398 . S
C602 C603 1.391 . S
C603 H591 0.950 . S
C603 C599 1.393 . S
C603 C602 1.391 . S
H604 C612 0.950 . S
H605 C617 0.950 . S
H606 C614 0.950 . S
H607 C616 0.950 . S
H608 C618 0.950 . S
H609 C620 0.950 . S
H610 C622 0.950 . S
H611 C623 0.950 . S
C612 H604 0.950 . S
C612 C613 1.386 1_556 S
C612 C614 1.391 . S
C613 C612 1.386 1_554 S
C613 C617 1.393 . S
C614 H606 0.950 . S
C614 C612 1.391 . S
C614 C615 1.400 1_556 S
C615 C614 1.400 1_554 S
C615 C616 1.398 . S
C615 C621 1.491 . S
C616 H607 0.950 . S
C616 C615 1.398 . S
C616 C617 1.391 . S
C617 H605 0.950 . S
C617 C613 1.393 . S
C617 C616 1.391 . S
C618 H608 0.950 . S
C618 C619 1.386 . S
C618 C620 1.391 . S
C619 C618 1.386 . S
C619 C623 1.393 1_554 S
C620 H609 0.950 . S
C620 C618 1.391 . S
C620 C621 1.400 . S
C621 C615 1.491 . S
C621 C620 1.400 . S
C621 C622 1.398 1_554 S
C622 H610 0.950 . S
C622 C621 1.398 1_556 S
C622 C623 1.391 . S
C623 H611 0.950 . S
C623 C619 1.393 1_556 S
C623 C622 1.391 . S
H624 C632 0.950 . S
H625 C637 0.950 . S
H626 C634 0.950 . S
H627 C636 0.950 . S
H628 C638 0.950 . S
H629 C640 0.950 . S
H630 C642 0.950 . S
H631 C643 0.950 . S
C632 H624 0.950 . S
C632 C633 1.386 . S
C632 C634 1.391 . S
C633 C632 1.386 . S
C633 C637 1.393 . S
C634 H626 0.950 . S
C634 C632 1.391 . S
C634 C635 1.400 . S
C635 C634 1.400 . S
C635 C636 1.398 . S
C635 C641 1.491 . S
C636 H627 0.950 . S
C636 C635 1.398 . S
C636 C637 1.391 . S
C637 H625 0.950 . S
C637 C633 1.393 . S
C637 C636 1.391 . S
C638 H628 0.950 . S
C638 C639 1.386 . S
C638 C640 1.391 . S
C639 C638 1.386 . S
C639 C643 1.393 . S
C640 H629 0.950 . S
C640 C638 1.391 . S
C640 C641 1.400 . S
C641 C635 1.491 . S
C641 C640 1.400 . S
C641 C642 1.398 . S
C642 H630 0.950 . S
C642 C641 1.398 . S
C642 C643 1.391 . S
C643 H631 0.950 . S
C643 C639 1.393 . S
C643 C642 1.391 . S
H644 C652 0.950 . S
H645 C657 0.950 . S
H646 C654 0.950 . S
H647 C656 0.950 . S
H648 C658 0.950 . S
H649 C660 0.950 . S
H650 C662 0.950 . S
H651 C663 0.950 . S
C652 H644 0.950 . S
C652 C653 1.386 . S
C652 C654 1.391 . S
C653 C652 1.386 . S
C653 C657 1.393 1_554 S
C654 H646 0.950 . S
C654 C652 1.391 . S
C654 C655 1.400 . S
C655 C654 1.400 . S
C655 C656 1.398 1_554 S
C655 C661 1.491 . S
C656 H647 0.950 . S
C656 C655 1.398 1_556 S
C656 C657 1.391 . S
C657 H645 0.950 . S
C657 C653 1.393 1_556 S
C657 C656 1.391 . S
C658 H648 0.950 . S
C658 C659 1.386 1_556 S
C658 C660 1.391 . S
C659 C658 1.386 1_554 S
C659 C663 1.393 . S
C660 H649 0.950 . S
C660 C658 1.391 . S
C660 C661 1.400 1_556 S
C661 C655 1.491 . S
C661 C660 1.400 1_554 S
C661 C662 1.398 . S
C662 H650 0.950 . S
C662 C661 1.398 . S
C662 C663 1.391 . S
C663 H651 0.950 . S
C663 C659 1.393 . S
C663 C662 1.391 . S
C193 C5 1.455 . S
C199 C130 1.462 . S
C213 C31 1.459 . S
C219 C94 1.475 . S
C239 C109 1.461 . S
C233 C53 1.490 . S
C253 C71 1.477 . S
C259 C121 1.454 . S
C279 C157 1.469 . S
C273 C75 1.462 . S
C299 C169 1.469 . S
C293 C9 1.483 . S
C319 C178 1.475 . S
C313 C27 1.459 . S
C339 C142 1.459 . S
C333 C49 1.458 . S
C353 C51 1.445 . S
C359 C106 1.460 . S
C373 C72 1.456 . S
C379 C118 1.472 . S
C393 C6 1.478 . S
C399 C133 1.478 . S
C419 C97 1.474 . S
C413 C29 1.463 . S
C433 C28 1.473 . S
C439 C181 1.466 . S
C459 C145 1.474 . S
C453 C50 1.487 . S
C479 C154 1.461 . S
C473 C73 1.467 . S
C493 C7 1.457 . S
C499 C166 1.449 . S
C519 C92 1.501 . S
C513 C4 1.509 . S
C539 C104 1.514 . S
C533 C30 1.504 . S
C553 C52 1.509 . S
C559 C116 1.508 . S
C573 C70 1.509 . S
C579 C128 1.500 . S
C599 C140 1.499 . S
C593 C74 1.504 . S
C613 C8 1.502 . S
C619 C152 1.515 . S
C633 C26 1.502 . S
C639 C164 1.514 . S
C653 C48 1.505 . S
C659 C176 1.499 . S
