# Generated by pormake.
# Topology pto, (3,4)-cn, num edge types: 1
# Building blocks:
#     Node 0, Type 0, BuildingBlock: OLANEW_clean_sbu_2, # of connection points: 3
#     Node 1, Type 0, BuildingBlock: OLANEW_clean_sbu_2, # of connection points: 3
#     Node 2, Type 0, BuildingBlock: OLANEW_clean_sbu_2, # of connection points: 3
#     Node 3, Type 0, BuildingBlock: OLANEW_clean_sbu_2, # of connection points: 3
#     Node 4, Type 0, BuildingBlock: OLANEW_clean_sbu_2, # of connection points: 3
#     Node 5, Type 0, BuildingBlock: OLANEW_clean_sbu_2, # of connection points: 3
#     Node 6, Type 0, BuildingBlock: OLANEW_clean_sbu_2, # of connection points: 3
#     Node 7, Type 0, BuildingBlock: OLANEW_clean_sbu_2, # of connection points: 3
#     Node 8, Type 1, BuildingBlock: NAWXER_clean_linker_0, # of connection points: 4
#     Node 9, Type 1, BuildingBlock: NAWXER_clean_linker_0, # of connection points: 4
#     Node 10, Type 1, BuildingBlock: NAWXER_clean_linker_0, # of connection points: 4
#     Node 11, Type 1, BuildingBlock: NAWXER_clean_linker_0, # of connection points: 4
#     Node 12, Type 1, BuildingBlock: NAWXER_clean_linker_0, # of connection points: 4
#     Node 13, Type 1, BuildingBlock: NAWXER_clean_linker_0, # of connection points: 4
#     Edge 14, Type (0, 1), BuildingBlock: MIFKUJ_clean_linker_0, # of connection points: 2
#     Edge 15, Type (0, 1), BuildingBlock: MIFKUJ_clean_linker_0, # of connection points: 2
#     Edge 16, Type (0, 1), BuildingBlock: MIFKUJ_clean_linker_0, # of connection points: 2
#     Edge 17, Type (0, 1), BuildingBlock: MIFKUJ_clean_linker_0, # of connection points: 2
#     Edge 18, Type (0, 1), BuildingBlock: MIFKUJ_clean_linker_0, # of connection points: 2
#     Edge 19, Type (0, 1), BuildingBlock: MIFKUJ_clean_linker_0, # of connection points: 2
#     Edge 20, Type (0, 1), BuildingBlock: MIFKUJ_clean_linker_0, # of connection points: 2
#     Edge 21, Type (0, 1), BuildingBlock: MIFKUJ_clean_linker_0, # of connection points: 2
#     Edge 22, Type (0, 1), BuildingBlock: MIFKUJ_clean_linker_0, # of connection points: 2
#     Edge 23, Type (0, 1), BuildingBlock: MIFKUJ_clean_linker_0, # of connection points: 2
#     Edge 24, Type (0, 1), BuildingBlock: MIFKUJ_clean_linker_0, # of connection points: 2
#     Edge 25, Type (0, 1), BuildingBlock: MIFKUJ_clean_linker_0, # of connection points: 2
#     Edge 26, Type (0, 1), BuildingBlock: MIFKUJ_clean_linker_0, # of connection points: 2
#     Edge 27, Type (0, 1), BuildingBlock: MIFKUJ_clean_linker_0, # of connection points: 2
#     Edge 28, Type (0, 1), BuildingBlock: MIFKUJ_clean_linker_0, # of connection points: 2
#     Edge 29, Type (0, 1), BuildingBlock: MIFKUJ_clean_linker_0, # of connection points: 2
#     Edge 30, Type (0, 1), BuildingBlock: MIFKUJ_clean_linker_0, # of connection points: 2
#     Edge 31, Type (0, 1), BuildingBlock: MIFKUJ_clean_linker_0, # of connection points: 2
#     Edge 32, Type (0, 1), BuildingBlock: MIFKUJ_clean_linker_0, # of connection points: 2
#     Edge 33, Type (0, 1), BuildingBlock: MIFKUJ_clean_linker_0, # of connection points: 2
#     Edge 34, Type (0, 1), BuildingBlock: MIFKUJ_clean_linker_0, # of connection points: 2
#     Edge 35, Type (0, 1), BuildingBlock: MIFKUJ_clean_linker_0, # of connection points: 2
#     Edge 36, Type (0, 1), BuildingBlock: MIFKUJ_clean_linker_0, # of connection points: 2
#     Edge 37, Type (0, 1), BuildingBlock: MIFKUJ_clean_linker_0, # of connection points: 2
# Relax obj value: 0.008
# Max RMSD: 0.128
# Mean RMSD: 0.055
data_MOF--net-pto--node1-OLANEW_clean_sbu_2--node2-NAWXER_clean_linker_0--edge1-MIFKUJ_clean_linker_0
_symmetry_space_group_name_H-M    P1
_symmetry_Int_Tables_number       1
_symmetry_cell_setting            triclinic
loop_
_symmetry_equiv_pos_as_xyz
'x, y, z'
_cell_length_a     53.037609
_cell_length_b     75.114714
_cell_length_c     64.447671
_cell_angle_alpha  92.546368
_cell_angle_beta   89.640717
_cell_angle_gamma 104.34553
loop_
_atom_site_label
_atom_site_type_symbol
_atom_site_fract_x
_atom_site_fract_y
_atom_site_fract_z
_atom_type_partial_charge
O0 O 0.30156 0.32493 0.28128 0.0
Cd1 Cd 0.27607 0.32659 0.31272 0.0
O2 O 0.33657 0.3442 0.29442 0.0
Cd3 Cd 0.31333 0.35349 0.31872 0.0
O4 O 0.28382 0.36795 0.3282 0.0
C5 C 0.28814 0.38473 0.32364 0.0
O6 O 0.31032 0.39243 0.31479 0.0
C7 C 0.32561 0.33294 0.27993 0.0
C8 C 0.28345 0.30022 0.33967 0.0
O9 O 0.26425 0.29671 0.32688 0.0
O10 O 0.29891 0.31632 0.33996 0.0
O11 O 0.29821 0.85352 0.75069 0.0
Cd12 Cd 0.26483 0.85286 0.72451 0.0
O13 O 0.29498 0.82385 0.746 0.0
Cd14 Cd 0.26315 0.81821 0.72346 0.0
O15 O 0.22801 0.7991 0.71107 0.0
C16 C 0.21087 0.79245 0.72438 0.0
O17 O 0.21465 0.79844 0.74386 0.0
C18 C 0.30546 0.83923 0.75516 0.0
C19 C 0.27819 0.88272 0.69895 0.0
O20 O 0.26632 0.88382 0.71617 0.0
O21 O 0.28381 0.86748 0.69382 0.0
O22 O 0.7952 0.7726 0.30041 0.0
Cd23 Cd 0.79304 0.75113 0.27036 0.0
O24 O 0.75279 0.76511 0.30485 0.0
Cd25 Cd 0.7444 0.74861 0.27588 0.0
O26 O 0.72652 0.74884 0.24554 0.0
C27 C 0.73119 0.76457 0.23775 0.0
O28 O 0.74711 0.77849 0.24769 0.0
C29 C 0.7753 0.77431 0.31066 0.0
C30 C 0.82139 0.72495 0.27603 0.0
O31 O 0.83217 0.74062 0.26877 0.0
O32 O 0.7972 0.7217 0.28074 0.0
O33 O 0.77077 0.27111 0.69013 0.0
Cd34 Cd 0.74304 0.24245 0.70221 0.0
O35 O 0.741 0.28682 0.69403 0.0
Cd36 Cd 0.7131 0.26596 0.71058 0.0
O37 O 0.68689 0.26023 0.73708 0.0
C38 C 0.66474 0.26382 0.73612 0.0
O39 O 0.65752 0.26949 0.71863 0.0
C40 C 0.7636 0.28589 0.68821 0.0
C41 C 0.74607 0.21327 0.67472 0.0
O42 O 0.72805 0.22176 0.6729 0.0
O43 O 0.76242 0.21844 0.68968 0.0
O44 O 0.76006 0.77661 0.66255 0.0
Cd45 Cd 0.75209 0.7528 0.68819 0.0
O46 O 0.7574 0.79769 0.68672 0.0
Cd47 Cd 0.74646 0.77953 0.71249 0.0
O48 O 0.72467 0.77373 0.74125 0.0
C49 C 0.70065 0.7735 0.74047 0.0
O50 O 0.69039 0.77548 0.72247 0.0
C51 C 0.76117 0.79329 0.66788 0.0
C52 C 0.7827 0.72766 0.68236 0.0
O53 O 0.76002 0.72463 0.67409 0.0
O54 O 0.79099 0.74267 0.69323 0.0
O55 O 0.80278 0.27063 0.28553 0.0
Cd56 Cd 0.77102 0.24168 0.27648 0.0
O57 O 0.77198 0.28524 0.29094 0.0
Cd58 Cd 0.74038 0.26335 0.2778 0.0
O59 O 0.71058 0.25656 0.25352 0.0
C60 C 0.71848 0.25744 0.23485 0.0
O61 O 0.74363 0.26086 0.23135 0.0
C62 C 0.79594 0.28517 0.29119 0.0
C63 C 0.77485 0.21362 0.30239 0.0
O64 O 0.78722 0.21581 0.28516 0.0
O65 O 0.76072 0.22472 0.30737 0.0
O66 O 0.28552 0.35298 0.75216 0.0
Cd67 Cd 0.26368 0.35028 0.71835 0.0
O68 O 0.32393 0.35765 0.73729 0.0
Cd69 Cd 0.30924 0.35089 0.70565 0.0
O70 O 0.30706 0.33236 0.6783 0.0
C71 C 0.28686 0.31948 0.67445 0.0
O72 O 0.26629 0.31826 0.68628 0.0
C73 C 0.31019 0.3565 0.75366 0.0
C74 C 0.22952 0.37302 0.71553 0.0
O75 O 0.2213 0.35626 0.72055 0.0
O76 O 0.2539 0.37906 0.71204 0.0
O77 O 0.34805 0.83795 0.28827 0.0
Cd78 Cd 0.32449 0.83106 0.32085 0.0
O79 O 0.3142 0.84194 0.27125 0.0
Cd80 Cd 0.28705 0.83077 0.29572 0.0
O81 O 0.25862 0.80686 0.30673 0.0
C82 C 0.26643 0.79226 0.30805 0.0
O83 O 0.291 0.79292 0.3042 0.0
C84 C 0.33827 0.84226 0.27182 0.0
C85 C 0.32681 0.86299 0.34539 0.0
O86 O 0.34467 0.85427 0.34643 0.0
O87 O 0.3078 0.85657 0.3328 0.0
C88 C 0.99276 0.46908 0.2941 0.0
C89 C 0.97238 0.46412 0.30844 0.0
C90 C 0.00778 0.48721 0.29381 0.0
C91 C 0.00288 0.50071 0.30796 0.0
C92 C 0.96752 0.47771 0.32255 0.0
C93 C 0.98251 0.49583 0.32221 0.0
C94 C 0.01807 0.52007 0.3074 0.0
C95 C 0.0752 0.48842 0.3276 0.0
C96 C 0.09599 0.48897 0.31377 0.0
C97 C 0.05843 0.49994 0.32527 0.0
C98 C 0.062 0.51212 0.30897 0.0
C99 C 0.09931 0.50108 0.29737 0.0
C100 C 0.08261 0.51262 0.2951 0.0
C101 C 0.04555 0.52526 0.30704 0.0
C102 C 0.06994 0.60747 0.31935 0.0
C103 C 0.09159 0.61235 0.30621 0.0
C104 C 0.05439 0.58947 0.31876 0.0
C105 C 0.05995 0.57605 0.3048 0.0
C106 C 0.09712 0.59888 0.29228 0.0
C107 C 0.08153 0.58091 0.29166 0.0
C108 C 0.04455 0.55669 0.30474 0.0
C109 C 0.99061 0.5897 0.28389 0.0
C110 C 0.97003 0.59007 0.29765 0.0
C111 C 0.00577 0.57711 0.28608 0.0
C112 C 0.00086 0.56474 0.3022 0.0
C113 C 0.96477 0.57736 0.31347 0.0
C114 C 0.97996 0.56475 0.31564 0.0
C115 C 0.01705 0.5515 0.30479 0.0
H116 H -0.00331 0.45907 0.28274 0.0
H117 H 0.02291 0.49074 0.28226 0.0
H118 H 0.95216 0.47433 0.33394 0.0
H119 H 0.97831 0.50604 0.3332 0.0
H120 H 0.07233 0.4795 0.3406 0.0
H121 H 0.04308 0.49965 0.33651 0.0
H122 H 0.11486 0.50168 0.28625 0.0
H123 H 0.0858 0.52196 0.28247 0.0
H124 H 0.06545 0.61744 0.3305 0.0
H125 H 0.03838 0.58595 0.32955 0.0
H126 H 0.11351 0.60225 0.28182 0.0
H127 H 0.08632 0.57077 0.28087 0.0
H128 H -0.00518 0.59901 0.27125 0.0
H129 H 0.02128 0.57699 0.2751 0.0
H130 H 0.94919 0.57735 0.32442 0.0
H131 H 0.97568 0.55523 0.32807 0.0
N132 N 0.00487 0.5334 0.30632 0.0
N133 N 0.05768 0.54335 0.30568 0.0
C134 C 0.95556 0.46905 0.6535 0.0
C135 C 0.93297 0.46323 0.66546 0.0
C136 C 0.97027 0.48729 0.65523 0.0
C137 C 0.9628 0.5 0.6691 0.0
C138 C 0.92552 0.47605 0.67923 0.0
C139 C 0.94019 0.49425 0.68092 0.0
C140 C 0.97771 0.51945 0.67086 0.0
C141 C 0.03148 0.48748 0.69626 0.0
C142 C 0.05305 0.4876 0.68344 0.0
C143 C 0.01551 0.49934 0.69284 0.0
C144 C 0.02096 0.51161 0.67664 0.0
C145 C 0.05834 0.49979 0.66714 0.0
C146 C 0.04258 0.51185 0.66393 0.0
C147 C 0.00497 0.52486 0.67363 0.0
C148 C 0.02292 0.60536 0.69651 0.0
C149 C 0.04508 0.61292 0.68473 0.0
C150 C 0.00968 0.58691 0.69338 0.0
C151 C 0.01803 0.57574 0.67812 0.0
C152 C 0.05383 0.60154 0.66988 0.0
C153 C 0.04047 0.58309 0.66668 0.0
C154 C 0.00356 0.55636 0.67424 0.0
C155 C 0.95338 0.59294 0.65681 0.0
C156 C 0.93015 0.5905 0.66808 0.0
C157 C 0.96792 0.57978 0.65703 0.0
C158 C 0.96 0.5643 0.66919 0.0
C159 C 0.92139 0.57451 0.67923 0.0
C160 C 0.93624 0.56154 0.67983 0.0
C161 C 0.9763 0.55097 0.67104 0.0
H162 H 0.96159 0.45961 0.6425 0.0
H163 H 0.98723 0.49152 0.6455 0.0
H164 H 0.90846 0.47198 0.68889 0.0
H165 H 0.93401 0.50383 0.69166 0.0
H166 H 0.02697 0.47819 0.7089 0.0
H167 H -0.00084 0.49916 0.70306 0.0
H168 H 0.07501 0.50029 0.65719 0.0
H169 H 0.04724 0.52134 0.65148 0.0
H170 H 0.01557 0.61374 0.70799 0.0
H171 H 0.99276 0.58141 0.70276 0.0
H172 H 0.07114 0.60682 0.66085 0.0
H173 H 0.04745 0.57462 0.65505 0.0
H174 H 0.96024 0.60502 0.64779 0.0
H175 H 0.98556 0.58188 0.64793 0.0
H176 H 0.90347 0.57233 0.68799 0.0
H177 H 0.9295 0.5496 0.68908 0.0
N178 N 0.96443 0.53271 0.66971 0.0
N179 N 0.01688 0.5431 0.67516 0.0
C180 C 0.30255 0.14542 0.47515 0.0
C181 C 0.32248 0.15324 0.46138 0.0
C182 C 0.30514 0.1313 0.48768 0.0
C183 C 0.32774 0.12476 0.48678 0.0
C184 C 0.34492 0.14644 0.46023 0.0
C185 C 0.34741 0.13218 0.4727 0.0
C186 C 0.33067 0.11015 0.50052 0.0
C187 C 0.33657 0.16177 0.53946 0.0
C188 C 0.31698 0.16065 0.55453 0.0
C189 C 0.34047 0.14588 0.52926 0.0
C190 C 0.32448 0.12853 0.53352 0.0
C191 C 0.30164 0.14318 0.55929 0.0
C192 C 0.30538 0.12732 0.54891 0.0
C193 C 0.32766 0.11156 0.5223 0.0
C194 C 0.34602 0.04004 0.55061 0.0
C195 C 0.32582 0.03576 0.56521 0.0
C196 C 0.34764 0.05457 0.5374 0.0
C197 C 0.32891 0.06493 0.53838 0.0
C198 C 0.30733 0.04633 0.56628 0.0
C199 C 0.30895 0.0608 0.55309 0.0
C200 C 0.33015 0.08043 0.52466 0.0
C201 C 0.31464 0.02962 0.48232 0.0
C202 C 0.3351 0.02906 0.46853 0.0
C203 C 0.31428 0.04583 0.49369 0.0
C204 C 0.33443 0.06176 0.49156 0.0
C205 C 0.35524 0.04504 0.46641 0.0
C206 C 0.35476 0.06129 0.47769 0.0
C207 C 0.33359 0.07914 0.50292 0.0
H208 H 0.28512 0.15044 0.47648 0.0
H209 H 0.28952 0.12554 0.4982 0.0
H210 H 0.36044 0.15206 0.44958 0.0
H211 H 0.36488 0.12718 0.47166 0.0
H212 H 0.3487 0.17496 0.53531 0.0
H213 H 0.35595 0.14719 0.51797 0.0
H214 H 0.2868 0.14173 0.57114 0.0
H215 H 0.29304 0.11408 0.55273 0.0
H216 H 0.3608 0.03235 0.54962 0.0
H217 H 0.36367 0.05781 0.52658 0.0
H218 H 0.29132 0.04326 0.57713 0.0
H219 H 0.29433 0.06863 0.55419 0.0
H220 H 0.29892 0.01751 0.48434 0.0
H221 H 0.29809 0.04597 0.50397 0.0
H222 H 0.37107 0.04507 0.4557 0.0
H223 H 0.37032 0.07351 0.47563 0.0
N224 N 0.33379 0.09407 0.49168 0.0
N225 N 0.32729 0.09658 0.53347 0.0
C226 C 0.49119 0.84193 0.93486 0.0
C227 C 0.46523 0.83188 0.93205 0.0
C228 C 0.50526 0.83956 0.95235 0.0
C229 C 0.49353 0.82717 0.96736 0.0
C230 C 0.45344 0.81971 0.94725 0.0
C231 C 0.46741 0.81752 0.96486 0.0
C232 C 0.50826 0.8243 0.98576 0.0
C233 C 0.54119 0.79851 0.93108 0.0
C234 C 0.56771 0.8063 0.92739 0.0
C235 C 0.52957 0.80292 0.94946 0.0
C236 C 0.54413 0.81542 0.96439 0.0
C237 C 0.58228 0.81869 0.94244 0.0
C238 C 0.57062 0.82313 0.9608 0.0
C239 C 0.53239 0.81957 0.98435 0.0
C240 C 0.55089 0.79973 0.07097 0.0
C241 C 0.57794 0.80715 0.07251 0.0
C242 C 0.53673 0.80409 0.05455 0.0
C243 C 0.54928 0.81614 0.03951 0.0
C244 C 0.59043 0.81914 0.05737 0.0
C245 C 0.57626 0.82351 0.04099 0.0
C246 C 0.53491 0.82001 0.02132 0.0
C247 C 0.50116 0.84358 0.0771 0.0
C248 C 0.47455 0.83568 0.08027 0.0
C249 C 0.51306 0.84013 0.05845 0.0
C250 C 0.49866 0.82848 0.04272 0.0
C251 C 0.46013 0.82428 0.06436 0.0
C252 C 0.47204 0.82079 0.04576 0.0
C253 C 0.5108 0.82483 0.02275 0.0
H254 H 0.50073 0.85137 0.92335 0.0
H255 H 0.52529 0.84737 0.95417 0.0
H256 H 0.43335 0.81197 0.94558 0.0
H257 H 0.45796 0.80802 0.97635 0.0
H258 H 0.52957 0.78864 0.91998 0.0
H259 H 0.50932 0.79626 0.95217 0.0
H260 H 0.60268 0.82506 0.93999 0.0
H261 H 0.58228 0.83266 0.9722 0.0
H262 H 0.54066 0.79053 0.08243 0.0
H263 H 0.51605 0.79778 0.05344 0.0
H264 H 0.61129 0.82484 0.05789 0.0
H265 H 0.58641 0.8326 0.02939 0.0
H266 H 0.51269 0.85269 0.08891 0.0
H267 H 0.53344 0.84672 0.05624 0.0
H268 H 0.43966 0.81782 0.06638 0.0
H269 H 0.4605 0.81187 0.0338 0.0
N270 N 0.49833 0.82665 0.00489 0.0
N271 N 0.54482 0.81771 0.00218 0.0
C272 C 0.76243 0.05864 0.44766 0.0
C273 C 0.78335 0.06511 0.43416 0.0
C274 C 0.76208 0.04378 0.46004 0.0
C275 C 0.78267 0.03509 0.45924 0.0
C276 C 0.80388 0.05627 0.43336 0.0
C277 C 0.80342 0.04132 0.44566 0.0
C278 C 0.78215 0.01903 0.47186 0.0
C279 C 0.79195 0.06758 0.51772 0.0
C280 C 0.77037 0.06641 0.53083 0.0
C281 C 0.79434 0.05235 0.50529 0.0
C282 C 0.77522 0.03567 0.50585 0.0
C283 C 0.75125 0.04972 0.53128 0.0
C284 C 0.75379 0.03444 0.51905 0.0
C285 C 0.77795 0.01918 0.49353 0.0
C286 C 0.79759 0.94645 0.5158 0.0
C287 C 0.77825 0.94123 0.53089 0.0
C288 C 0.7983 0.9617 0.50395 0.0
C289 C 0.77933 0.97177 0.50665 0.0
C290 C 0.75972 0.95161 0.53395 0.0
C291 C 0.7603 0.96676 0.52198 0.0
C292 C 0.77949 0.98774 0.49389 0.0
C293 C 0.76335 0.93798 0.45117 0.0
C294 C 0.78315 0.93751 0.43669 0.0
C295 C 0.76301 0.95423 0.46239 0.0
C296 C 0.78273 0.97031 0.4597 0.0
C297 C 0.80249 0.95377 0.4336 0.0
C298 C 0.80219 0.97004 0.44494 0.0
C299 C 0.78282 0.9874 0.4721 0.0
H300 H 0.74602 0.06481 0.44836 0.0
H301 H 0.74551 0.03888 0.46999 0.0
H302 H 0.82045 0.06099 0.42336 0.0
H303 H 0.81943 0.03474 0.44473 0.0
H304 H 0.80694 0.0803 0.51704 0.0
H305 H 0.81128 0.0535 0.49549 0.0
H306 H 0.73459 0.04835 0.54144 0.0
H307 H 0.73895 0.02165 0.51985 0.0
H308 H 0.8124 0.93892 0.51338 0.0
H309 H 0.81374 0.96565 0.49273 0.0
H310 H 0.74451 0.94785 0.5454 0.0
H311 H 0.74561 0.97439 0.52446 0.0
H312 H 0.74825 0.92571 0.45405 0.0
H313 H 0.74738 0.95419 0.4733 0.0
H314 H 0.81774 0.95397 0.4223 0.0
H315 H 0.81739 0.98236 0.44241 0.0
N316 N 0.78441 0.00313 0.46195 0.0
N317 N 0.77682 0.00355 0.50371 0.0
C318 C 0.46795 0.33797 0.94263 0.0
C319 C 0.44149 0.32935 0.93908 0.0
C320 C 0.48153 0.33279 0.95887 0.0
C321 C 0.46894 0.31893 0.97196 0.0
C322 C 0.42883 0.31572 0.95255 0.0
C323 C 0.44239 0.31069 0.96894 0.0
C324 C 0.48332 0.31328 0.98904 0.0
C325 C 0.51271 0.29121 0.93028 0.0
C326 C 0.53939 0.29816 0.92646 0.0
C327 C 0.50209 0.29472 0.94947 0.0
C328 C 0.51784 0.30548 0.96514 0.0
C329 C 0.55512 0.30892 0.94218 0.0
C330 C 0.54446 0.31246 0.96135 0.0
C331 C 0.50713 0.30831 0.98597 0.0
C332 C 0.52921 0.28298 0.06962 0.0
C333 C 0.55594 0.29144 0.07158 0.0
C334 C 0.51447 0.2876 0.05376 0.0
C335 C 0.52609 0.30093 0.03968 0.0
C336 C 0.56754 0.30466 0.05732 0.0
C337 C 0.55278 0.30927 0.04147 0.0
C338 C 0.51088 0.30564 0.02248 0.0
C339 C 0.47852 0.32571 0.08119 0.0
C340 C 0.45369 0.31477 0.08591 0.0
C341 C 0.48936 0.32422 0.06156 0.0
C342 C 0.47551 0.31187 0.04622 0.0
C343 C 0.43992 0.30244 0.07037 0.0
C344 C 0.45061 0.30118 0.05067 0.0
C345 C 0.4868 0.31018 0.02547 0.0
H346 H 0.47821 0.34882 0.93293 0.0
H347 H 0.50188 0.33967 0.96125 0.0
H348 H 0.40859 0.30861 0.95018 0.0
H349 H 0.43229 0.30004 0.97897 0.0
H350 H 0.50016 0.28257 0.91867 0.0
H351 H 0.48168 0.28861 0.95221 0.0
H352 H 0.5757 0.31462 0.93965 0.0
H353 H 0.55705 0.32066 0.97326 0.0
H354 H 0.51978 0.27249 0.08008 0.0
H355 H 0.49408 0.28053 0.0523 0.0
H356 H 0.58801 0.31159 0.05852 0.0
H357 H 0.56218 0.31949 0.03069 0.0
H358 H 0.48951 0.33564 0.09253 0.0
H359 H 0.50847 0.33282 0.05829 0.0
H360 H 0.42098 0.29354 0.07347 0.0
H361 H 0.43966 0.29156 0.039 0.0
N362 N 0.47389 0.31383 0.00865 0.0
N363 N 0.52014 0.30488 0.00284 0.0
H364 H 0.29224 0.42086 0.31655 0.0
H365 H 0.25799 0.43733 0.31855 0.0
H366 H 0.20366 0.38856 0.33898 0.0
H367 H 0.23789 0.37185 0.33683 0.0
H368 H 0.18363 0.40412 0.30781 0.0
H369 H 0.2259 0.42462 0.37289 0.0
H370 H 0.26298 0.43754 0.39647 0.0
H371 H 0.28011 0.48793 0.36425 0.0
H372 H 0.24334 0.47523 0.34029 0.0
H373 H 0.0855 0.45314 0.32543 0.0
H374 H 0.11656 0.43446 0.33059 0.0
H375 H 0.17955 0.47975 0.31345 0.0
H376 H 0.14887 0.49873 0.30916 0.0
H377 H 0.19282 0.4641 0.34625 0.0
H378 H 0.15386 0.44289 0.27936 0.0
H379 H 0.1176 0.43018 0.25493 0.0
H380 H 0.09505 0.38139 0.2898 0.0
H381 H 0.13099 0.39393 0.31461 0.0
C382 C 0.27309 0.41365 0.32167 0.0
C383 C 0.26781 0.39503 0.32653 0.0
C384 C 0.25354 0.42312 0.32289 0.0
C385 C 0.22831 0.41422 0.32908 0.0
C386 C 0.22301 0.3957 0.3342 0.0
C387 C 0.24262 0.38619 0.33304 0.0
C388 C 0.20731 0.42412 0.32921 0.0
C389 C 0.18537 0.41706 0.31654 0.0
C390 C 0.20988 0.44119 0.34025 0.0
C391 C 0.23196 0.44891 0.35469 0.0
C392 C 0.23768 0.43841 0.37074 0.0
C393 C 0.25863 0.4457 0.38419 0.0
C394 C 0.27392 0.46353 0.38184 0.0
C395 C 0.26826 0.47412 0.36605 0.0
C396 C 0.24734 0.46689 0.35254 0.0
C397 C 0.10599 0.45918 0.32296 0.0
C398 C 0.11466 0.47741 0.31675 0.0
C399 C 0.1237 0.44842 0.32572 0.0
C400 C 0.15037 0.45563 0.32218 0.0
C401 C 0.15907 0.47387 0.31623 0.0
C402 C 0.14144 0.48464 0.31355 0.0
C403 C 0.16935 0.44427 0.32456 0.0
C404 C 0.19092 0.45105 0.33771 0.0
C405 C 0.1665 0.42699 0.31388 0.0
C406 C 0.14492 0.41944 0.29897 0.0
C407 C 0.14104 0.42952 0.28191 0.0
C408 C 0.12057 0.42233 0.26798 0.0
C409 C 0.10398 0.40501 0.27085 0.0
C410 C 0.10788 0.39482 0.28763 0.0
C411 C 0.1283 0.40195 0.30162 0.0
H412 H 0.08815 0.39948 0.26004 0.0
H413 H 0.29013 0.46915 0.39227 0.0
H414 H 0.17426 0.77304 0.7502 0.0
H415 H 0.14224 0.74414 0.74205 0.0
H416 H 0.16581 0.7466 0.67789 0.0
H417 H 0.19809 0.77561 0.68588 0.0
H418 H 0.11028 0.73309 0.68422 0.0
H419 H 0.19199 0.72243 0.70621 0.0
H420 H 0.22961 0.72624 0.72976 0.0
H421 H 0.17845 0.70406 0.77926 0.0
H422 H 0.14048 0.70038 0.75607 0.0
H423 H 0.06657 0.63757 0.65547 0.0
H424 H 0.09119 0.66951 0.66132 0.0
H425 H 0.0793 0.66482 0.72734 0.0
H426 H 0.05569 0.6327 0.7217 0.0
H427 H 0.12823 0.68013 0.71958 0.0
H428 H 0.04644 0.6893 0.6979 0.0
H429 H 0.00825 0.68573 0.67501 0.0
H430 H 0.05787 0.71059 0.62586 0.0
H431 H 0.09641 0.71409 0.64836 0.0
C432 C 0.1724 0.76764 0.73427 0.0
C433 C 0.18898 0.77651 0.71873 0.0
C434 C 0.15407 0.75112 0.72966 0.0
C435 C 0.15192 0.74317 0.70944 0.0
C436 C 0.16723 0.75254 0.69359 0.0
C437 C 0.18572 0.76906 0.69821 0.0
C438 C 0.13555 0.72431 0.70538 0.0
C439 C 0.11428 0.72144 0.69173 0.0
C440 C 0.14057 0.70924 0.71555 0.0
C441 C 0.16339 0.71131 0.72947 0.0
C442 C 0.18875 0.71851 0.72217 0.0
C443 C 0.21014 0.72062 0.73544 0.0
C444 C 0.20642 0.71544 0.75601 0.0
C445 C 0.1813 0.70809 0.76333 0.0
C446 C 0.15984 0.70598 0.75013 0.0
C447 C 0.06933 0.64331 0.67124 0.0
C448 C 0.0592 0.63255 0.68812 0.0
C449 C 0.08311 0.66164 0.67454 0.0
C450 C 0.08683 0.66963 0.69476 0.0
C451 C 0.07657 0.65897 0.7116 0.0
C452 C 0.0629 0.64064 0.70833 0.0
C453 C 0.10263 0.68876 0.6985 0.0
C454 C 0.124 0.69171 0.71207 0.0
C455 C 0.09752 0.70385 0.68833 0.0
C456 C 0.07436 0.70179 0.67476 0.0
C457 C 0.04924 0.69387 0.68216 0.0
C458 C 0.02752 0.69188 0.66926 0.0
C459 C 0.03064 0.69789 0.64898 0.0
C460 C 0.05549 0.70593 0.64157 0.0
C461 C 0.07727 0.70793 0.65439 0.0
H462 H 0.01382 0.69634 0.63902 0.0
H463 H 0.223 0.71708 0.76626 0.0
H464 H 0.80309 0.68943 0.28746 0.0
H465 H 0.8278 0.66627 0.29119 0.0
H466 H 0.89826 0.70571 0.27469 0.0
H467 H 0.87357 0.72882 0.27045 0.0
H468 H 0.89569 0.67377 0.25492 0.0
H469 H 0.8845 0.69344 0.32559 0.0
H470 H 0.85985 0.69993 0.35637 0.0
H471 H 0.81737 0.64325 0.35594 0.0
H472 H 0.84155 0.63647 0.32498 0.0
H473 H 0.98708 0.62638 0.28876 0.0
H474 H 0.9611 0.64874 0.28491 0.0
H475 H 0.89137 0.60726 0.29817 0.0
H476 H 0.9172 0.58472 0.30183 0.0
H477 H 0.89285 0.6396 0.31938 0.0
H478 H 0.9049 0.61997 0.24898 0.0
H479 H 0.93004 0.61362 0.21843 0.0
H480 H 0.97141 0.67053 0.21863 0.0
H481 H 0.94677 0.67718 0.24938 0.0
C482 C 0.82386 0.69319 0.28468 0.0
C483 C 0.83638 0.71099 0.27871 0.0
C484 C 0.83799 0.67995 0.2869 0.0
C485 C 0.86497 0.6843 0.28347 0.0
C486 C 0.87747 0.70204 0.27743 0.0
C487 C 0.86334 0.71525 0.27507 0.0
C488 C 0.88013 0.67031 0.28586 0.0
C489 C 0.89533 0.66648 0.26913 0.0
C490 C 0.87918 0.66045 0.30419 0.0
C491 C 0.86466 0.66449 0.32284 0.0
C492 C 0.86977 0.68239 0.33196 0.0
C493 C 0.8559 0.68612 0.34946 0.0
C494 C 0.83701 0.67203 0.35807 0.0
C495 C 0.83199 0.65416 0.34924 0.0
C496 C 0.84578 0.65036 0.33173 0.0
C497 C 0.96618 0.62194 0.29064 0.0
C498 C 0.95421 0.60372 0.2955 0.0
C499 C 0.95137 0.63476 0.28849 0.0
C500 C 0.92426 0.62961 0.29104 0.0
C501 C 0.91227 0.61152 0.29615 0.0
C502 C 0.92708 0.59868 0.2983 0.0
C503 C 0.90849 0.64318 0.28851 0.0
C504 C 0.89316 0.64689 0.30519 0.0
C505 C 0.90938 0.65298 0.27015 0.0
C506 C 0.92416 0.64903 0.25161 0.0
C507 C 0.9195 0.6311 0.24261 0.0
C508 C 0.93364 0.62745 0.22524 0.0
C509 C 0.95236 0.64165 0.21663 0.0
C510 C 0.95693 0.65954 0.22533 0.0
C511 C 0.94287 0.66326 0.24272 0.0
H512 H 0.96328 0.6388 0.20317 0.0
H513 H 0.82629 0.67494 0.37162 0.0
H514 H 0.75406 0.31925 0.68133 0.0
H515 H 0.78531 0.34741 0.67208 0.0
H516 H 0.84614 0.31847 0.66847 0.0
H517 H 0.81497 0.29016 0.67799 0.0
H518 H 0.86066 0.34978 0.69192 0.0
H519 H 0.8236 0.33299 0.62455 0.0
H520 H 0.78849 0.32304 0.59852 0.0
H521 H 0.76223 0.37185 0.61273 0.0
H522 H 0.79696 0.38198 0.63906 0.0
H523 H 0.95011 0.43164 0.66185 0.0
H524 H 0.92376 0.39987 0.66033 0.0
H525 H 0.85382 0.41937 0.66413 0.0
H526 H 0.87993 0.4511 0.66478 0.0
H527 H 0.84767 0.3908 0.63685 0.0
H528 H 0.88029 0.40521 0.70713 0.0
H529 H 0.91445 0.41521 0.73394 0.0
H530 H 0.94814 0.37076 0.7147 0.0
H531 H 0.91434 0.36063 0.68758 0.0
C532 C 0.774 0.31877 0.67832 0.0
C533 C 0.78202 0.30244 0.68048 0.0
C534 C 0.79183 0.33488 0.67291 0.0
C535 C 0.81802 0.33501 0.66942 0.0
C536 C 0.826 0.31865 0.67105 0.0
C537 C 0.80814 0.30248 0.67644 0.0
C538 C 0.83728 0.35257 0.66562 0.0
C539 C 0.85816 0.35857 0.67958 0.0
C540 C 0.83369 0.36419 0.64979 0.0
C541 C 0.81281 0.35819 0.63389 0.0
C542 C 0.81023 0.34154 0.62224 0.0
C543 C 0.79041 0.33588 0.60741 0.0
C544 C 0.77312 0.34679 0.604 0.0
C545 C 0.77564 0.36341 0.61539 0.0
C546 C 0.79542 0.36913 0.63025 0.0
C547 C 0.92911 0.42917 0.66203 0.0
C548 C 0.91712 0.44391 0.66363 0.0
C549 C 0.91408 0.411 0.66133 0.0
C550 C 0.88683 0.40725 0.66241 0.0
C551 C 0.87482 0.42194 0.66335 0.0
C552 C 0.88979 0.44007 0.66396 0.0
C553 C 0.8707 0.38811 0.6634 0.0
C554 C 0.85041 0.38184 0.64895 0.0
C555 C 0.87473 0.37626 0.67884 0.0
C556 C 0.89499 0.3823 0.69518 0.0
C557 C 0.8951 0.39766 0.70851 0.0
C558 C 0.91438 0.40333 0.72378 0.0
C559 C 0.93351 0.39367 0.72598 0.0
C560 C 0.93335 0.37826 0.71295 0.0
C561 C 0.91413 0.37254 0.69763 0.0
H562 H 0.94841 0.39808 0.73781 0.0
H563 H 0.75778 0.34238 0.59251 0.0
H564 H 0.25119 0.26643 0.34598 0.0
H565 H 0.25922 0.24253 0.36771 0.0
H566 H 0.33389 0.27762 0.38575 0.0
H567 H 0.32601 0.30167 0.36406 0.0
H568 H 0.33627 0.24201 0.37413 0.0
H569 H 0.28617 0.27176 0.41965 0.0
H570 H 0.24906 0.28444 0.42993 0.0
H571 H 0.19688 0.231 0.42053 0.0
H572 H 0.23366 0.21804 0.40991 0.0
H573 H 0.35881 0.18528 0.45458 0.0
H574 H 0.35352 0.21104 0.43448 0.0
H575 H 0.27483 0.18142 0.41894 0.0
H576 H 0.27994 0.15578 0.4392 0.0
H577 H 0.27613 0.2157 0.43044 0.0
H578 H 0.32548 0.18606 0.38354 0.0
H579 H 0.36225 0.17315 0.37283 0.0
H580 H 0.41539 0.22594 0.38423 0.0
H581 H 0.37895 0.23912 0.39528 0.0
C582 C 0.26928 0.26911 0.35463 0.0
C583 C 0.28794 0.28597 0.35333 0.0
C584 C 0.2738 0.25545 0.36709 0.0
C585 C 0.29708 0.25836 0.37843 0.0
C586 C 0.3158 0.27513 0.37712 0.0
C587 C 0.3112 0.28887 0.36479 0.0
C588 C 0.30198 0.24372 0.39137 0.0
C589 C 0.32337 0.23642 0.38667 0.0
C590 C 0.28481 0.23621 0.4074 0.0
C591 C 0.26265 0.24396 0.41379 0.0
C592 C 0.26676 0.26274 0.4196 0.0
C593 C 0.24578 0.26998 0.42552 0.0
C594 C 0.22062 0.25855 0.42583 0.0
C595 C 0.21638 0.23985 0.42026 0.0
C596 C 0.23729 0.23254 0.4143 0.0
C597 C 0.3405 0.18421 0.44667 0.0
C598 C 0.31979 0.16852 0.44845 0.0
C599 C 0.33749 0.19892 0.4352 0.0
C600 C 0.31383 0.19811 0.42504 0.0
C601 C 0.29322 0.1824 0.4267 0.0
C602 C 0.29615 0.16776 0.43828 0.0
C603 C 0.31026 0.21375 0.41304 0.0
C604 C 0.28911 0.22128 0.41795 0.0
C605 C 0.3276 0.22141 0.39714 0.0
C606 C 0.34952 0.21353 0.39044 0.0
C607 C 0.34503 0.19488 0.38392 0.0
C608 C 0.36581 0.18752 0.37776 0.0
C609 C 0.39115 0.19871 0.37791 0.0
C610 C 0.39576 0.21729 0.38416 0.0
C611 C 0.37505 0.22471 0.39035 0.0
H612 H 0.40721 0.19298 0.37313 0.0
H613 H 0.20441 0.26417 0.43043 0.0
H614 H 0.33266 0.86958 0.77805 0.0
H615 H 0.36191 0.87015 0.8075 0.0
H616 H 0.35104 0.81142 0.79961 0.0
H617 H 0.32193 0.81067 0.7703 0.0
H618 H 0.34314 0.82271 0.83985 0.0
H619 H 0.40714 0.83963 0.78575 0.0
H620 H 0.42875 0.85862 0.7574 0.0
H621 H 0.44685 0.90624 0.79916 0.0
H622 H 0.42503 0.88758 0.82772 0.0
H623 H 0.43655 0.80457 0.90657 0.0
H624 H 0.41124 0.80768 0.876 0.0
H625 H 0.43486 0.86679 0.88469 0.0
H626 H 0.46088 0.8637 0.91504 0.0
H627 H 0.43563 0.85762 0.84498 0.0
H628 H 0.37358 0.84172 0.8992 0.0
H629 H 0.35131 0.82381 0.9281 0.0
H630 H 0.32806 0.77592 0.8871 0.0
H631 H 0.35051 0.79348 0.85801 0.0
C632 C 0.33672 0.85682 0.78245 0.0
C633 C 0.32487 0.84007 0.77185 0.0
C634 C 0.35347 0.85718 0.79925 0.0
C635 C 0.35861 0.84082 0.80571 0.0
C636 C 0.34725 0.82418 0.7949 0.0
C637 C 0.33066 0.82381 0.77809 0.0
C638 C 0.37484 0.84075 0.82432 0.0
C639 C 0.36346 0.83017 0.8409 0.0
C640 C 0.40102 0.85105 0.82595 0.0
C641 C 0.4142 0.86225 0.80881 0.0
C642 C 0.41553 0.85419 0.78885 0.0
C643 C 0.42786 0.86488 0.77275 0.0
C644 C 0.4391 0.88363 0.77646 0.0
C645 C 0.4381 0.89172 0.7963 0.0
C646 C 0.42577 0.88109 0.81245 0.0
C647 C 0.43628 0.81822 0.90197 0.0
C648 C 0.45045 0.83389 0.91324 0.0
C649 C 0.42178 0.81999 0.88453 0.0
C650 C 0.42069 0.83747 0.87828 0.0
C651 C 0.43532 0.85317 0.88926 0.0
C652 C 0.45015 0.8514 0.90657 0.0
C653 C 0.40408 0.83925 0.8604 0.0
C654 C 0.4153 0.85021 0.84401 0.0
C655 C 0.37758 0.82948 0.85902 0.0
C656 C 0.36392 0.81889 0.87646 0.0
C657 C 0.36387 0.82734 0.89638 0.0
C658 C 0.35119 0.81725 0.91279 0.0
C659 C 0.33833 0.79873 0.90945 0.0
C660 C 0.33806 0.79027 0.88967 0.0
C661 C 0.35073 0.80028 0.87321 0.0
H662 H 0.32853 0.79095 0.92217 0.0
H663 H 0.44864 0.89189 0.76398 0.0
H664 H 0.7362 0.78363 0.333 0.0
H665 H 0.73961 0.81023 0.35688 0.0
H666 H 0.82314 0.82401 0.35096 0.0
H667 H 0.81999 0.79736 0.32686 0.0
H668 H 0.80407 0.82957 0.39262 0.0
H669 H 0.79335 0.84505 0.32191 0.0
H670 H 0.77209 0.84065 0.2875 0.0
H671 H 0.7006 0.84624 0.31547 0.0
H672 H 0.72134 0.85038 0.35011 0.0
H673 H 0.8253 0.9238 0.42677 0.0
H674 H 0.82554 0.89515 0.4073 0.0
H675 H 0.74198 0.88289 0.4011 0.0
H676 H 0.7417 0.91184 0.41972 0.0
H677 H 0.76287 0.87646 0.36549 0.0
H678 H 0.77223 0.86106 0.4359 0.0
H679 H 0.79198 0.8646 0.47085 0.0
H680 H 0.86399 0.85814 0.44464 0.0
H681 H 0.84477 0.85484 0.40948 0.0
C682 C 0.75538 0.79207 0.33702 0.0
C683 C 0.77782 0.78848 0.32779 0.0
C684 C 0.75726 0.8073 0.35067 0.0
C685 C 0.78159 0.81919 0.35542 0.0
C686 C 0.80418 0.81499 0.34741 0.0
C687 C 0.80232 0.79978 0.33361 0.0
C688 C 0.78307 0.83681 0.36717 0.0
C689 C 0.79539 0.83997 0.38664 0.0
C690 C 0.77127 0.85014 0.35945 0.0
C691 C 0.75883 0.84785 0.33861 0.0
C692 C 0.77304 0.8452 0.32074 0.0
C693 C 0.76109 0.84277 0.30119 0.0
C694 C 0.73499 0.84312 0.2993 0.0
C695 C 0.7208 0.84595 0.31696 0.0
C696 C 0.73265 0.84835 0.33655 0.0
C697 C 0.807 0.91509 0.42109 0.0
C698 C 0.78347 0.92011 0.42486 0.0
C699 C 0.80714 0.8986 0.41017 0.0
C700 C 0.78374 0.88674 0.40298 0.0
C701 C 0.76027 0.89178 0.40659 0.0
C702 C 0.76012 0.90828 0.4174 0.0
C703 C 0.78364 0.86927 0.3912 0.0
C704 C 0.77162 0.86614 0.37159 0.0
C705 C 0.79554 0.85594 0.39891 0.0
C706 C 0.80714 0.8579 0.42003 0.0
C707 C 0.79234 0.86055 0.43757 0.0
C708 C 0.80343 0.86249 0.45742 0.0
C709 C 0.82925 0.86165 0.45996 0.0
C710 C 0.84401 0.85882 0.44265 0.0
C711 C 0.83303 0.85691 0.42276 0.0
H712 H 0.83779 0.86314 0.47534 0.0
H713 H 0.72577 0.84124 0.28415 0.0
H714 H 0.67759 0.25842 0.77601 0.0
H715 H 0.65337 0.26204 0.80757 0.0
H716 H 0.59155 0.27288 0.77081 0.0
H717 H 0.61598 0.26972 0.73915 0.0
H718 H 0.60424 0.29782 0.80129 0.0
H719 H 0.58428 0.23214 0.79642 0.0
H720 H 0.59344 0.20154 0.7927 0.0
H721 H 0.63894 0.21258 0.8488 0.0
H722 H 0.63035 0.24336 0.85272 0.0
H723 H 0.51922 0.29751 0.88731 0.0
H724 H 0.53792 0.28958 0.85441 0.0
H725 H 0.60434 0.28118 0.88726 0.0
H726 H 0.58542 0.28853 0.92025 0.0
H727 H 0.5867 0.25397 0.85805 0.0
H728 H 0.60841 0.32027 0.86156 0.0
H729 H 0.59897 0.35079 0.86527 0.0
H730 H 0.54948 0.33817 0.81138 0.0
H731 H 0.55836 0.30746 0.80751 0.0
C732 C 0.65868 0.26132 0.77459 0.0
C733 C 0.64876 0.26384 0.75505 0.0
C734 C 0.64479 0.26332 0.79268 0.0
C735 C 0.62052 0.26761 0.79158 0.0
C736 C 0.61024 0.2696 0.77204 0.0
C737 C 0.62421 0.26773 0.75395 0.0
C738 C 0.60669 0.27116 0.81086 0.0
C739 C 0.59997 0.28806 0.81352 0.0
C740 C 0.60165 0.25864 0.82706 0.0
C741 C 0.60684 0.24012 0.82476 0.0
C742 C 0.5964 0.2281 0.80788 0.0
C743 C 0.60146 0.21071 0.80575 0.0
C744 C 0.61681 0.20513 0.82047 0.0
C745 C 0.62708 0.21693 0.83739 0.0
C746 C 0.62209 0.23434 0.83959 0.0
C747 C 0.53772 0.29385 0.88754 0.0
C748 C 0.55089 0.29373 0.90639 0.0
C749 C 0.54847 0.28946 0.86871 0.0
C750 C 0.57264 0.28495 0.86838 0.0
C751 C 0.5857 0.28465 0.88717 0.0
C752 C 0.57498 0.28904 0.90599 0.0
C753 C 0.58443 0.28062 0.84844 0.0
C754 C 0.59079 0.26361 0.84569 0.0
C755 C 0.58909 0.29301 0.83214 0.0
C756 C 0.58384 0.3115 0.83438 0.0
C757 C 0.59535 0.32395 0.8506 0.0
C758 C 0.59013 0.34129 0.85271 0.0
C759 C 0.57358 0.3464 0.83861 0.0
C760 C 0.56227 0.33419 0.82232 0.0
C761 C 0.56741 0.31682 0.82015 0.0
H762 H 0.56956 0.35983 0.84027 0.0
H763 H 0.6207 0.19167 0.8188 0.0
H764 H 0.27357 0.91772 0.70743 0.0
H765 H 0.28368 0.94363 0.68463 0.0
H766 H 0.30753 0.90941 0.63667 0.0
H767 H 0.29807 0.88351 0.65962 0.0
H768 H 0.34037 0.94245 0.63881 0.0
H769 H 0.24775 0.91964 0.63492 0.0
H770 H 0.20313 0.90972 0.6485 0.0
H771 H 0.20985 0.96353 0.67683 0.0
H772 H 0.25466 0.97371 0.66364 0.0
H773 H 0.3335 0.00154 0.55572 0.0
H774 H 0.32784 0.97567 0.57856 0.0
H775 H 0.30756 0.00903 0.62909 0.0
H776 H 0.31345 0.03498 0.60647 0.0
H777 H 0.27298 0.97593 0.6248 0.0
H778 H 0.36613 -0.00148 0.62812 0.0
H779 H 0.4104 0.00807 0.61377 0.0
H780 H 0.40207 0.95412 0.58533 0.0
H781 H 0.35759 0.94432 0.59929 0.0
C782 C 0.28101 0.9157 0.69204 0.0
C783 C 0.28486 0.89853 0.68528 0.0
C784 C 0.28669 0.93052 0.67899 0.0
C785 C 0.29596 0.92839 0.6588 0.0
C786 C 0.30033 0.91136 0.65216 0.0
C787 C 0.29484 0.89656 0.66528 0.0
C788 C 0.30086 0.9439 0.64459 0.0
C789 C 0.32553 0.94961 0.63552 0.0
C790 C 0.28163 0.95345 0.64054 0.0
C791 C 0.25465 0.94738 0.64845 0.0
C792 C 0.23978 0.92932 0.64417 0.0
C793 C 0.21444 0.92365 0.65178 0.0
C794 C 0.20368 0.93597 0.66356 0.0
C795 C 0.21822 0.95399 0.66772 0.0
C796 C 0.24358 0.95972 0.66017 0.0
C797 C 0.32824 0.00346 0.57178 0.0
C798 C 0.32381 0.0203 0.57925 0.0
C799 C 0.32497 0.98865 0.5848 0.0
C800 C 0.31736 0.99045 0.60554 0.0
C801 C 0.31332 0.00732 0.6131 0.0
C802 C 0.3166 0.02211 0.60013 0.0
C803 C 0.31255 0.97458 0.61919 0.0
C804 C 0.28783 0.96876 0.6281 0.0
C805 C 0.33167 0.96489 0.62295 0.0
C806 C 0.35843 0.97075 0.61457 0.0
C807 C 0.37365 0.98874 0.61866 0.0
C808 C 0.3988 0.99419 0.61063 0.0
C809 C 0.40902 0.98172 0.5986 0.0
C810 C 0.39412 0.96377 0.59463 0.0
C811 C 0.36895 0.95826 0.60261 0.0
H812 H 0.4285 0.98597 0.5924 0.0
H813 H 0.18406 0.93156 0.66943 0.0
H814 H 0.69358 0.73965 0.21524 0.0
H815 H 0.66775 0.74585 0.18632 0.0
H816 H 0.71097 0.8027 0.18915 0.0
H817 H 0.73663 0.7967 0.21811 0.0
H818 H 0.65947 0.79967 0.18821 0.0
H819 H 0.7204 0.77316 0.1499 0.0
H820 H 0.74394 0.74944 0.14074 0.0
H821 H 0.67155 0.71036 0.12632 0.0
H822 H 0.64754 0.73379 0.13567 0.0
H823 H 0.61772 0.82968 0.09512 0.0
H824 H 0.64363 0.82123 0.12249 0.0
H825 H 0.59831 0.76499 0.11633 0.0
H826 H 0.57289 0.77321 0.08838 0.0
H827 H 0.64935 0.76658 0.11924 0.0
H828 H 0.58838 0.79296 0.15679 0.0
H829 H 0.5645 0.81648 0.16589 0.0
H830 H 0.63637 0.85546 0.18208 0.0
H831 H 0.66073 0.83223 0.17278 0.0
C832 C 0.69778 0.75342 0.20955 0.0
C833 C 0.71711 0.76769 0.21903 0.0
C834 C 0.68303 0.75693 0.19299 0.0
C835 C 0.68748 0.77474 0.18555 0.0
C836 C 0.70715 0.78888 0.19469 0.0
C837 C 0.72187 0.7854 0.21121 0.0
C838 C 0.67093 0.7789 0.16889 0.0
C839 C 0.65753 0.7926 0.17304 0.0
C840 C 0.66776 0.76928 0.14932 0.0
C841 C 0.68216 0.75517 0.1437 0.0
C842 C 0.70949 0.75946 0.14495 0.0
C843 C 0.72292 0.74608 0.13969 0.0
C844 C 0.70924 0.72838 0.13301 0.0
C845 C 0.68211 0.72406 0.13153 0.0
C846 C 0.66859 0.73739 0.13679 0.0
C847 C 0.61337 0.81548 0.09948 0.0
C848 C 0.59319 0.80213 0.08959 0.0
C849 C 0.62804 0.8107 0.11526 0.0
C850 C 0.6227 0.79252 0.12162 0.0
C851 C 0.60269 0.77912 0.11171 0.0
C852 C 0.58802 0.78388 0.09589 0.0
C853 C 0.63816 0.7875 0.13851 0.0
C854 C 0.65127 0.77362 0.13444 0.0
C855 C 0.64101 0.79691 0.15819 0.0
C856 C 0.6264 0.81089 0.1639 0.0
C857 C 0.59912 0.80658 0.16214 0.0
C858 C 0.58549 0.81986 0.16736 0.0
C859 C 0.59892 0.83747 0.17451 0.0
C860 C 0.626 0.84182 0.17651 0.0
C861 C 0.63972 0.8286 0.17129 0.0
H862 H 0.58833 0.84773 0.17855 0.0
H863 H 0.71968 0.71804 0.12894 0.0
H864 H 0.71089 0.19591 0.64494 0.0
H865 H 0.71486 0.1712 0.62001 0.0
H866 H 0.79006 0.17192 0.6456 0.0
H867 H 0.78621 0.19655 0.67066 0.0
H868 H 0.7892 0.17157 0.60199 0.0
H869 H 0.74021 0.13859 0.65768 0.0
H870 H 0.70395 0.13121 0.68252 0.0
H871 H 0.64916 0.11794 0.63199 0.0
H872 H 0.6851 0.12549 0.60684 0.0
H873 H 0.80775 0.0884 0.55589 0.0
H874 H 0.80337 0.1138 0.57957 0.0
H875 H 0.7235 0.1059 0.56006 0.0
H876 H 0.72766 0.08017 0.53674 0.0
H877 H 0.72618 0.11046 0.60014 0.0
H878 H 0.77362 0.14271 0.54422 0.0
H879 H 0.80891 0.15057 0.51859 0.0
H880 H 0.8652 0.16607 0.5679 0.0
H881 H 0.83028 0.15805 0.59385 0.0
C882 C 0.72825 0.19078 0.6453 0.0
C883 C 0.74821 0.19815 0.65981 0.0
C884 C 0.73045 0.17665 0.63108 0.0
C885 C 0.7527 0.1697 0.63105 0.0
C886 C 0.77274 0.17711 0.64538 0.0
C887 C 0.77045 0.19112 0.65974 0.0
C888 C 0.75513 0.15471 0.616 0.0
C889 C 0.77563 0.15812 0.60171 0.0
C890 C 0.73694 0.13739 0.61529 0.0
C891 C 0.71533 0.13279 0.63039 0.0
C892 C 0.72041 0.13426 0.65187 0.0
C893 C 0.69992 0.13001 0.666 0.0
C894 C 0.67426 0.12416 0.65884 0.0
C895 C 0.66904 0.1225 0.63752 0.0
C896 C 0.68947 0.12675 0.62332 0.0
C897 C 0.78935 0.09223 0.55651 0.0
C898 C 0.76806 0.08236 0.54445 0.0
C899 C 0.78687 0.10677 0.57002 0.0
C900 C 0.76319 0.11196 0.57143 0.0
C901 C 0.74195 0.10216 0.55928 0.0
C902 C 0.74433 0.08747 0.54596 0.0
C903 C 0.76035 0.12723 0.58602 0.0
C904 C 0.73975 0.1239 0.60028 0.0
C905 C 0.77829 0.14471 0.58654 0.0
C906 C 0.79935 0.14961 0.57098 0.0
C907 C 0.79355 0.14766 0.5496 0.0
C908 C 0.81348 0.15217 0.53502 0.0
C909 C 0.83928 0.15878 0.54161 0.0
C910 C 0.8452 0.16093 0.56281 0.0
C911 C 0.82534 0.15643 0.57747 0.0
H912 H 0.85469 0.16226 0.53029 0.0
H913 H 0.65842 0.12088 0.66981 0.0
H914 H 0.37844 0.34234 0.27458 0.0
H915 H 0.40255 0.33818 0.24302 0.0
H916 H 0.33036 0.31287 0.21119 0.0
H917 H 0.30627 0.31635 0.24286 0.0
H918 H 0.3645 0.29502 0.2005 0.0
H919 H 0.36434 0.35899 0.2053 0.0
H920 H 0.37204 0.39015 0.22178 0.0
H921 H 0.45382 0.39329 0.22585 0.0
H922 H 0.44654 0.36203 0.20963 0.0
H923 H 0.40241 0.31203 0.09563 0.0
H924 H 0.38338 0.31377 0.12999 0.0
H925 H 0.4594 0.32368 0.15806 0.0
H926 H 0.47863 0.321 0.12384 0.0
H927 H 0.42661 0.34876 0.17156 0.0
H928 H 0.42512 0.28451 0.16365 0.0
H929 H 0.4155 0.25406 0.1453 0.0
H930 H 0.33401 0.25247 0.1451 0.0
H931 H 0.3432 0.28306 0.16317 0.0
C932 C 0.36773 0.3358 0.26088 0.0
C933 C 0.34043 0.32976 0.26119 0.0
C934 C 0.38153 0.33352 0.24282 0.0
C935 C 0.36826 0.32551 0.22459 0.0
C936 C 0.34105 0.3191 0.22503 0.0
C937 C 0.32728 0.32114 0.24315 0.0
C938 C 0.38254 0.32399 0.20494 0.0
C939 C 0.37789 0.30683 0.19413 0.0
C940 C 0.40043 0.33931 0.19673 0.0
C941 C 0.40485 0.3581 0.20648 0.0
C942 C 0.38393 0.36627 0.20986 0.0
C943 C 0.38823 0.38396 0.21913 0.0
C944 C 0.41339 0.39367 0.22492 0.0
C945 C 0.43433 0.38573 0.2214 0.0
C946 C 0.43014 0.36804 0.21216 0.0
C947 C 0.41513 0.31427 0.10906 0.0
C948 C 0.44211 0.31627 0.10685 0.0
C949 C 0.4042 0.3154 0.12868 0.0
C950 C 0.42001 0.31878 0.14648 0.0
C951 C 0.44693 0.32111 0.14444 0.0
C952 C 0.45787 0.31968 0.12483 0.0
C953 C 0.40824 0.31991 0.16719 0.0
C954 C 0.41337 0.33698 0.17813 0.0
C955 C 0.39049 0.30461 0.17534 0.0
C956 C 0.38488 0.28616 0.16459 0.0
C957 C 0.40518 0.27775 0.15953 0.0
C958 C 0.3998 0.26045 0.14921 0.0
C959 C 0.37417 0.25136 0.14399 0.0
C960 C 0.35386 0.25954 0.14913 0.0
C961 C 0.35914 0.27685 0.15943 0.0
H962 H 0.37004 0.23796 0.13601 0.0
H963 H 0.41668 0.40736 0.23208 0.0
H964 H 0.76847 0.69317 0.66384 0.0
H965 H 0.79423 0.67032 0.66078 0.0
H966 H 0.85853 0.7084 0.692 0.0
H967 H 0.83291 0.73137 0.69511 0.0
H968 H 0.87401 0.69034 0.65759 0.0
H969 H 0.82161 0.67498 0.71846 0.0
H970 H 0.78077 0.66757 0.73837 0.0
H971 H 0.75144 0.61994 0.69805 0.0
H972 H 0.79199 0.62722 0.67771 0.0
H973 H 0.94819 0.62673 0.67923 0.0
H974 H 0.92367 0.65037 0.68136 0.0
H975 H 0.85467 0.61026 0.65963 0.0
H976 H 0.87896 0.58641 0.65859 0.0
H977 H 0.84176 0.62989 0.68919 0.0
H978 H 0.89367 0.64513 0.62786 0.0
H979 H 0.9345 0.65231 0.60789 0.0
H980 H 0.96452 0.69977 0.6483 0.0
H981 H 0.92394 0.69278 0.66862 0.0
C982 C 0.78812 0.69673 0.66999 0.0
C983 C 0.7986 0.71406 0.67981 0.0
C984 C 0.80279 0.68363 0.66828 0.0
C985 C 0.8282 0.68762 0.67634 0.0
C986 C 0.83895 0.70505 0.6857 0.0
C987 C 0.82424 0.71813 0.68753 0.0
C988 C 0.84338 0.67347 0.67531 0.0
C989 C 0.86714 0.67718 0.66467 0.0
C990 C 0.83411 0.65619 0.68419 0.0
C991 C 0.80973 0.65176 0.69644 0.0
C992 C 0.80637 0.66302 0.71373 0.0
C993 C 0.78329 0.65882 0.72511 0.0
C994 C 0.76349 0.64333 0.71944 0.0
C995 C 0.76677 0.63196 0.7024 0.0
C996 C 0.78981 0.6361 0.69095 0.0
C997 C 0.92781 0.62305 0.67482 0.0
C998 C 0.91542 0.60484 0.66864 0.0
C999 C 0.91383 0.63656 0.67592 0.0
C1000 C 0.88738 0.63224 0.67024 0.0
C1001 C 0.87503 0.61399 0.66406 0.0
C1002 C 0.88888 0.60038 0.66341 0.0
C1003 C 0.8724 0.64659 0.67123 0.0
C1004 C 0.84866 0.64297 0.68196 0.0
C1005 C 0.88164 0.66392 0.6623 0.0
C1006 C 0.90584 0.66835 0.64985 0.0
C1007 C 0.90902 0.65706 0.63253 0.0
C1008 C 0.93211 0.6611 0.62114 0.0
C1009 C 0.95211 0.67646 0.62684 0.0
C1010 C 0.94901 0.68787 0.6439 0.0
C1011 C 0.92595 0.68389 0.65533 0.0
H1012 H 0.96998 0.67955 0.61802 0.0
H1013 H 0.74564 0.6401 0.72828 0.0
H1014 H 0.84921 0.29135 0.29032 0.0
H1015 H 0.88127 0.32094 0.29516 0.0
H1016 H 0.81949 0.3477 0.30858 0.0
H1017 H 0.78741 0.31836 0.30368 0.0
H1018 H 0.85195 0.36465 0.27886 0.0
H1019 H 0.8599 0.34167 0.34662 0.0
H1020 H 0.86764 0.31927 0.37112 0.0
H1021 H 0.94428 0.32428 0.34629 0.0
H1022 H 0.93685 0.34654 0.32144 0.0
H1023 H 0.91958 0.45323 0.31318 0.0
H1024 H 0.89197 0.42198 0.31194 0.0
H1025 H 0.95933 0.40043 0.30106 0.0
H1026 H 0.98734 0.43175 0.3031 0.0
H1027 H 0.92648 0.38 0.32814 0.0
H1028 H 0.91975 0.40313 0.26117 0.0
H1029 H 0.9127 0.42517 0.23593 0.0
H1030 H 0.83459 0.41917 0.25795 0.0
H1031 H 0.8413 0.39729 0.28354 0.0
C1032 C 0.84247 0.30349 0.29459 0.0
C1033 C 0.81571 0.30249 0.29649 0.0
C1034 C 0.86083 0.32038 0.29739 0.0
C1035 C 0.85274 0.33652 0.3022 0.0
C1036 C 0.82614 0.33543 0.30478 0.0
C1037 C 0.80782 0.31861 0.30202 0.0
C1038 C 0.87166 0.35475 0.30331 0.0
C1039 C 0.86805 0.36808 0.28982 0.0
C1040 C 0.89322 0.35897 0.31707 0.0
C1041 C 0.89771 0.34562 0.33202 0.0
C1042 C 0.87831 0.33787 0.34626 0.0
C1043 C 0.88266 0.32523 0.36024 0.0
C1044 C 0.90641 0.32031 0.36022 0.0
C1045 C 0.92588 0.32808 0.34627 0.0
C1046 C 0.92162 0.34072 0.33224 0.0
C1047 C 0.92863 0.44187 0.31084 0.0
C1048 C 0.9557 0.44502 0.30819 0.0
C1049 C 0.91276 0.424 0.30992 0.0
C1050 C 0.92354 0.40888 0.3061 0.0
C1051 C 0.9506 0.41191 0.30392 0.0
C1052 C 0.96653 0.42981 0.3049 0.0
C1053 C 0.90638 0.39001 0.304 0.0
C1054 C 0.9104 0.37655 0.31716 0.0
C1055 C 0.88526 0.38556 0.28981 0.0
C1056 C 0.88111 0.39869 0.27441 0.0
C1057 C 0.90114 0.40662 0.26075 0.0
C1058 C 0.89719 0.41907 0.24636 0.0
C1059 C 0.87323 0.4236 0.24537 0.0
C1060 C 0.85315 0.41566 0.25875 0.0
C1061 C 0.857 0.40323 0.27319 0.0
H1062 H 0.87021 0.43324 0.23422 0.0
H1063 H 0.90974 0.31052 0.37106 0.0
H1064 H 0.24167 0.41035 0.7126 0.0
H1065 H 0.21174 0.43006 0.70884 0.0
H1066 H 0.14658 0.3824 0.70906 0.0
H1067 H 0.17638 0.36273 0.71363 0.0
H1068 H 0.18031 0.43284 0.68006 0.0
H1069 H 0.09286 0.39324 0.72822 0.0
H1070 H 0.08484 0.37423 0.75898 0.0
H1071 H 0.16143 0.40024 0.78216 0.0
H1072 H 0.16979 0.41957 0.7517 0.0
H1073 H 0.07032 0.46493 0.65554 0.0
H1074 H 0.09988 0.44538 0.662 0.0
H1075 H 0.10526 0.46382 0.7266 0.0
H1076 H 0.07494 0.48283 0.72029 0.0
H1077 H 0.10287 0.4294 0.72471 0.0
H1078 H 0.15427 0.48083 0.69013 0.0
H1079 H 0.1656 0.5031 0.66251 0.0
H1080 H 0.16739 0.45924 0.6179 0.0
H1081 H 0.15572 0.43667 0.64521 0.0
C1082 C 0.22095 0.40409 0.71198 0.0
C1083 C 0.21138 0.38499 0.71351 0.0
C1084 C 0.20385 0.41537 0.70977 0.0
C1085 C 0.17683 0.40779 0.70888 0.0
C1086 C 0.16727 0.38867 0.71017 0.0
C1087 C 0.18435 0.37741 0.71269 0.0
C1088 C 0.15877 0.41984 0.70611 0.0
C1089 C 0.1634 0.43208 0.68986 0.0
C1090 C 0.13694 0.41918 0.7191 0.0
C1091 C 0.13203 0.40771 0.73756 0.0
C1092 C 0.10795 0.39494 0.73992 0.0
C1093 C 0.10335 0.38411 0.75729 0.0
C1094 C 0.12264 0.38598 0.77248 0.0
C1095 C 0.14655 0.39875 0.77035 0.0
C1096 C 0.15124 0.40963 0.75302 0.0
C1097 C 0.07783 0.46477 0.6711 0.0
C1098 C 0.07046 0.47542 0.6874 0.0
C1099 C 0.09479 0.45365 0.67478 0.0
C1100 C 0.10522 0.45335 0.69473 0.0
C1101 C 0.09751 0.46379 0.71109 0.0
C1102 C 0.0802 0.47466 0.70748 0.0
C1103 C 0.12429 0.44226 0.69854 0.0
C1104 C 0.1198 0.43016 0.71494 0.0
C1105 C 0.14676 0.44351 0.68613 0.0
C1106 C 0.15389 0.45705 0.66968 0.0
C1107 C 0.15691 0.47592 0.6744 0.0
C1108 C 0.16342 0.4886 0.65881 0.0
C1109 C 0.16715 0.48259 0.63845 0.0
C1110 C 0.16446 0.46388 0.63367 0.0
C1111 C 0.15792 0.45114 0.6492 0.0
H1112 H 0.17219 0.49243 0.6264 0.0
H1113 H 0.11905 0.37757 0.78591 0.0
H1114 H 0.27718 0.75877 0.31099 0.0
H1115 H 0.24622 0.72882 0.31249 0.0
H1116 H 0.18249 0.75507 0.31365 0.0
H1117 H 0.21342 0.78522 0.31236 0.0
H1118 H 0.17449 0.72636 0.34003 0.0
H1119 H 0.19828 0.73682 0.26889 0.0
H1120 H 0.22856 0.74468 0.2396 0.0
H1121 H 0.26002 0.69856 0.25104 0.0
H1122 H 0.23017 0.69057 0.2806 0.0
H1123 H 0.07741 0.64505 0.30957 0.0
H1124 H 0.10604 0.67614 0.31158 0.0
H1125 H 0.17318 0.65343 0.30765 0.0
H1126 H 0.14473 0.62238 0.30564 0.0
H1127 H 0.17799 0.68108 0.28228 0.0
H1128 H 0.15453 0.67085 0.35381 0.0
H1129 H 0.12419 0.66302 0.38306 0.0
H1130 H 0.09184 0.70857 0.37082 0.0
H1131 H 0.12176 0.71652 0.3413 0.0
C1132 C 0.2566 0.75824 0.31179 0.0
C1133 C 0.24776 0.77438 0.31134 0.0
C1134 C 0.23892 0.74109 0.31258 0.0
C1135 C 0.21205 0.73971 0.3128 0.0
C1136 C 0.20316 0.75583 0.31338 0.0
C1137 C 0.22086 0.77304 0.31261 0.0
C1138 C 0.19334 0.7214 0.31143 0.0
C1139 C 0.17499 0.71653 0.32728 0.0
C1140 C 0.19428 0.7085 0.29493 0.0
C1141 C 0.21215 0.7132 0.27708 0.0
C1142 C 0.21179 0.72843 0.26526 0.0
C1143 C 0.22885 0.7329 0.24859 0.0
C1144 C 0.24625 0.72215 0.2435 0.0
C1145 C 0.24656 0.70688 0.25502 0.0
C1146 C 0.22956 0.70237 0.27172 0.0
C1147 C 0.09828 0.64669 0.30931 0.0
C1148 C 0.10881 0.63126 0.30742 0.0
C1149 C 0.11461 0.66446 0.31046 0.0
C1150 C 0.14177 0.6671 0.30996 0.0
C1151 C 0.15229 0.65172 0.30801 0.0
C1152 C 0.136 0.63398 0.30679 0.0
C1153 C 0.15932 0.68588 0.31104 0.0
C1154 C 0.17743 0.69089 0.29505 0.0
C1155 C 0.1581 0.69887 0.3274 0.0
C1156 C 0.1402 0.69416 0.34521 0.0
C1157 C 0.14081 0.67911 0.35725 0.0
C1158 C 0.12371 0.67466 0.3739 0.0
C1159 C 0.10605 0.68526 0.37876 0.0
C1160 C 0.1055 0.70036 0.36702 0.0
C1161 C 0.12254 0.70485 0.35034 0.0
H1162 H 0.09283 0.68179 0.39166 0.0
H1163 H 0.25944 0.72563 0.23059 0.0
H1164 H 0.76833 0.78937 0.62574 0.0
H1165 H 0.77219 0.81304 0.60005 0.0
H1166 H 0.76729 0.85307 0.64901 0.0
H1167 H 0.76337 0.82971 0.67463 0.0
H1168 H 0.73371 0.853 0.61705 0.0
H1169 H 0.82456 0.85335 0.62593 0.0
H1170 H 0.86189 0.83924 0.62555 0.0
H1171 H 0.84843 0.82375 0.56086 0.0
H1172 H 0.81078 0.83757 0.56093 0.0
H1173 H 0.77138 0.93882 0.57273 0.0
H1174 H 0.76906 0.91208 0.59354 0.0
H1175 H 0.7809 0.88034 0.5385 0.0
H1176 H 0.78358 0.90723 0.51759 0.0
H1177 H 0.80873 0.87342 0.57001 0.0
H1178 H 0.72033 0.87457 0.55983 0.0
H1179 H 0.68245 0.88807 0.55942 0.0
H1180 H 0.68977 0.89943 0.6253 0.0
H1181 H 0.72794 0.88623 0.62606 0.0
C1182 C 0.76831 0.80326 0.63104 0.0
C1183 C 0.76545 0.80762 0.65225 0.0
C1184 C 0.77055 0.81675 0.61634 0.0
C1185 C 0.77001 0.8348 0.62265 0.0
C1186 C 0.76764 0.83921 0.64381 0.0
C1187 C 0.76548 0.82582 0.65845 0.0
C1188 C 0.77096 0.84909 0.60734 0.0
C1189 C 0.75021 0.85758 0.60688 0.0
C1190 C 0.79203 0.85456 0.59354 0.0
C1191 C 0.81468 0.8463 0.5935 0.0
C1192 C 0.82942 0.84679 0.61167 0.0
C1193 C 0.85067 0.83888 0.6115 0.0
C1194 C 0.85748 0.83055 0.59321 0.0
C1195 C 0.8431 0.83017 0.57503 0.0
C1196 C 0.82182 0.83805 0.57512 0.0
C1197 C 0.77335 0.92612 0.56505 0.0
C1198 C 0.77745 0.92507 0.54352 0.0
C1199 C 0.77202 0.91084 0.57694 0.0
C1200 C 0.77434 0.8941 0.56752 0.0
C1201 C 0.77898 0.8931 0.54608 0.0
C1202 C 0.78054 0.90846 0.53418 0.0
C1203 C 0.7718 0.87771 0.58016 0.0
C1204 C 0.79212 0.86875 0.58004 0.0
C1205 C 0.75019 0.87166 0.59333 0.0
C1206 C 0.72713 0.87953 0.59297 0.0
C1207 C 0.71398 0.88006 0.57421 0.0
C1208 C 0.69243 0.88765 0.57392 0.0
C1209 C 0.68374 0.89464 0.59232 0.0
C1210 C 0.69654 0.89402 0.61106 0.0
C1211 C 0.71811 0.88647 0.61143 0.0
H1212 H 0.66706 0.90051 0.59206 0.0
H1213 H 0.87393 0.82443 0.59311 0.0
H1214 H 0.66614 0.25513 0.23701 0.0
H1215 H 0.63735 0.25841 0.20872 0.0
H1216 H 0.70047 0.26234 0.16525 0.0
H1217 H 0.72946 0.25934 0.19345 0.0
H1218 H 0.67743 0.28967 0.16119 0.0
H1219 H 0.649 0.22417 0.16538 0.0
H1220 H 0.63252 0.1949 0.18257 0.0
H1221 H 0.56307 0.21126 0.20023 0.0
H1222 H 0.57929 0.24075 0.18337 0.0
H1223 H 0.60514 0.28623 0.06867 0.0
H1224 H 0.63149 0.27857 0.09626 0.0
H1225 H 0.5689 0.27714 0.1397 0.0
H1226 H 0.54245 0.28501 0.11221 0.0
H1227 H 0.59111 0.2482 0.14377 0.0
H1228 H 0.61981 0.31376 0.14024 0.0
H1229 H 0.63614 0.3431 0.12314 0.0
H1230 H 0.70517 0.32661 0.10453 0.0
H1231 H 0.68907 0.29704 0.12128 0.0
C1232 C 0.6738 0.25642 0.22138 0.0
C1233 C 0.70014 0.25707 0.21751 0.0
C1234 C 0.65729 0.25824 0.20521 0.0
C1235 C 0.66673 0.26058 0.18484 0.0
C1236 C 0.69278 0.26061 0.18085 0.0
C1237 C 0.70931 0.25883 0.19699 0.0
C1238 C 0.65002 0.26423 0.16796 0.0
C1239 C 0.65875 0.28043 0.15717 0.0
C1240 C 0.62529 0.25247 0.16313 0.0
C1241 C 0.61549 0.23475 0.17328 0.0
C1242 C 0.63031 0.2216 0.17308 0.0
C1243 C 0.62099 0.20495 0.18273 0.0
C1244 C 0.59679 0.20124 0.19253 0.0
C1245 C 0.58183 0.21416 0.19265 0.0
C1246 C 0.59106 0.23083 0.18303 0.0
C1247 C 0.59703 0.28445 0.08413 0.0
C1248 C 0.57175 0.28637 0.08827 0.0
C1249 C 0.61209 0.28 0.09986 0.0
C1250 C 0.60224 0.27747 0.12007 0.0
C1251 C 0.57684 0.279 0.12419 0.0
C1252 C 0.56175 0.28347 0.10845 0.0
C1253 C 0.61867 0.27352 0.13696 0.0
C1254 C 0.60985 0.25736 0.14778 0.0
C1255 C 0.64333 0.28531 0.14187 0.0
C1256 C 0.65311 0.30311 0.13184 0.0
C1257 C 0.63837 0.31632 0.13236 0.0
C1258 C 0.6476 0.33301 0.12275 0.0
C1259 C 0.67164 0.33669 0.11271 0.0
C1260 C 0.68653 0.32372 0.11229 0.0
C1261 C 0.67737 0.307 0.12185 0.0
H1262 H 0.67876 0.34962 0.10528 0.0
H1263 H 0.58961 0.18834 0.2 0.0
H1264 H 0.24696 0.29062 0.66118 0.0
H1265 H 0.24978 0.26447 0.63809 0.0
H1266 H 0.33176 0.28838 0.6296 0.0
H1267 H 0.32895 0.31477 0.65217 0.0
H1268 H 0.31092 0.27284 0.59424 0.0
H1269 H 0.30944 0.25473 0.66486 0.0
H1270 H 0.29213 0.25009 0.70035 0.0
H1271 H 0.22204 0.21353 0.67607 0.0
H1272 H 0.23881 0.21815 0.64039 0.0
H1273 H 0.35343 0.19188 0.56755 0.0
H1274 H 0.3459 0.21962 0.58502 0.0
H1275 H 0.26321 0.19543 0.5839 0.0
H1276 H 0.2704 0.16785 0.56579 0.0
H1277 H 0.28221 0.21081 0.62281 0.0
H1278 H 0.2868 0.22778 0.55167 0.0
H1279 H 0.30649 0.23209 0.51692 0.0
H1280 H 0.37362 0.27058 0.54317 0.0
H1281 H 0.3545 0.26629 0.57814 0.0
C1282 C 0.26552 0.29043 0.65419 0.0
C1283 C 0.28778 0.3047 0.65868 0.0
C1284 C 0.26713 0.27542 0.64107 0.0
C1285 C 0.29111 0.27428 0.63245 0.0
C1286 C 0.31308 0.28892 0.63613 0.0
C1287 C 0.31144 0.304 0.64909 0.0
C1288 C 0.29365 0.25749 0.62041 0.0
C1289 C 0.30483 0.25931 0.60057 0.0
C1290 C 0.28538 0.23976 0.62852 0.0
C1291 C 0.27525 0.23695 0.64995 0.0
C1292 C 0.29025 0.24582 0.66708 0.0
C1293 C 0.28055 0.24317 0.68723 0.0
C1294 C 0.25597 0.23157 0.69046 0.0
C1295 C 0.24106 0.22255 0.67354 0.0
C1296 C 0.25065 0.22517 0.65335 0.0
C1297 C 0.33359 0.19252 0.5707 0.0
C1298 C 0.31253 0.17758 0.56522 0.0
C1299 C 0.32935 0.20838 0.58077 0.0
C1300 C 0.30399 0.20959 0.58562 0.0
C1301 C 0.28293 0.19472 0.58031 0.0
C1302 C 0.28712 0.17893 0.57008 0.0
C1303 C 0.29953 0.22622 0.59674 0.0
C1304 C 0.28806 0.22435 0.61643 0.0
C1305 C 0.30784 0.24389 0.5886 0.0
C1306 C 0.31931 0.24659 0.56756 0.0
C1307 C 0.30585 0.23705 0.55006 0.0
C1308 C 0.31689 0.23951 0.53032 0.0
C1309 C 0.34131 0.25157 0.52784 0.0
C1310 C 0.35472 0.26123 0.54511 0.0
C1311 C 0.34377 0.25881 0.5649 0.0
H1312 H 0.34983 0.25345 0.51254 0.0
H1313 H 0.2485 0.22953 0.70607 0.0
H1314 H 0.3231 0.85073 0.23376 0.0
H1315 H 0.34776 0.85303 0.20145 0.0
H1316 H 0.41397 0.84427 0.23426 0.0
H1317 H 0.38956 0.84214 0.26676 0.0
H1318 H 0.42857 0.86998 0.2046 0.0
H1319 H 0.37373 0.8088 0.20911 0.0
H1320 H 0.33229 0.78567 0.21366 0.0
H1321 H 0.30034 0.80455 0.16023 0.0
H1322 H 0.3415 0.82799 0.15554 0.0
H1323 H 0.49348 0.83646 0.11981 0.0
H1324 H 0.47163 0.84104 0.15243 0.0
H1325 H 0.40499 0.84735 0.11817 0.0
H1326 H 0.42674 0.84284 0.08552 0.0
H1327 H 0.39052 0.82397 0.14845 0.0
H1328 H 0.44655 0.88431 0.1429 0.0
H1329 H 0.48827 0.90716 0.13842 0.0
H1330 H 0.51841 0.88968 0.19357 0.0
H1331 H 0.47697 0.86654 0.19823 0.0
C1332 C 0.34302 0.84955 0.23421 0.0
C1333 C 0.35425 0.84604 0.25283 0.0
C1334 C 0.35706 0.85082 0.2157 0.0
C1335 C 0.38252 0.8485 0.21542 0.0
C1336 C 0.3943 0.84602 0.23414 0.0
C1337 C 0.38028 0.84476 0.25269 0.0
C1338 C 0.39622 0.84747 0.19544 0.0
C1339 C 0.42041 0.85983 0.19237 0.0
C1340 C 0.38532 0.83441 0.17939 0.0
C1341 C 0.36059 0.82027 0.18211 0.0
C1342 C 0.3578 0.80812 0.19843 0.0
C1343 C 0.33437 0.79493 0.20102 0.0
C1344 C 0.31367 0.79367 0.18728 0.0
C1345 C 0.31638 0.80556 0.17088 0.0
C1346 C 0.33975 0.81879 0.16825 0.0
C1347 C 0.47433 0.83909 0.11923 0.0
C1348 C 0.46181 0.83924 0.10008 0.0
C1349 C 0.46186 0.84171 0.13788 0.0
C1350 C 0.43675 0.84469 0.13774 0.0
C1351 C 0.42434 0.84504 0.11865 0.0
C1352 C 0.43676 0.84239 0.10001 0.0
C1353 C 0.42289 0.84655 0.15748 0.0
C1354 C 0.39866 0.83425 0.16057 0.0
C1355 C 0.43381 0.85963 0.17352 0.0
C1356 C 0.45873 0.87358 0.1708 0.0
C1357 C 0.46215 0.88524 0.15398 0.0
C1358 C 0.48573 0.89826 0.15143 0.0
C1359 C 0.506 0.89984 0.16568 0.0
C1360 C 0.5027 0.88843 0.18254 0.0
C1361 C 0.47916 0.87537 0.18515 0.0
H1362 H 0.52425 0.90994 0.16367 0.0
H1363 H 0.29555 0.78345 0.1893 0.0
H1364 H 0.75568 0.20789 0.34168 0.0
H1365 H 0.75843 0.18298 0.36409 0.0
H1366 H 0.80069 0.16053 0.31651 0.0
H1367 H 0.79807 0.18541 0.29398 0.0
H1368 H 0.76083 0.13412 0.33343 0.0
H1369 H 0.83278 0.18305 0.35754 0.0
H1370 H 0.85409 0.21446 0.37076 0.0
H1371 H 0.80508 0.2071 0.42458 0.0
H1372 H 0.78321 0.17572 0.41153 0.0
H1373 H 0.8001 0.06944 0.39389 0.0
H1374 H 0.80003 0.09503 0.37189 0.0
H1375 H 0.76574 0.12145 0.42148 0.0
H1376 H 0.76706 0.09638 0.444 0.0
H1377 H 0.80197 0.14602 0.40328 0.0
H1378 H 0.72929 0.09782 0.37962 0.0
H1379 H 0.70671 0.06658 0.36671 0.0
H1380 H 0.75509 0.07264 0.31252 0.0
H1381 H 0.77821 0.10385 0.32525 0.0
C1382 C 0.76561 0.19768 0.33598 0.0
C1383 C 0.7767 0.19865 0.31606 0.0
C1384 C 0.76724 0.18349 0.34884 0.0
C1385 C 0.77993 0.16999 0.34201 0.0
C1386 C 0.79084 0.17083 0.32208 0.0
C1387 C 0.78939 0.18509 0.30926 0.0
C1388 C 0.78149 0.15485 0.35556 0.0
C1389 C 0.77015 0.13668 0.34859 0.0
C1390 C 0.79302 0.15826 0.37554 0.0
C1391 C 0.80618 0.1771 0.38345 0.0
C1392 C 0.82639 0.18819 0.37211 0.0
C1393 C 0.8386 0.20597 0.37959 0.0
C1394 C 0.8309 0.21279 0.39847 0.0
C1395 C 0.811 0.20181 0.40994 0.0
C1396 C 0.79871 0.18402 0.40252 0.0
C1397 C 0.79288 0.0808 0.40026 0.0
C1398 C 0.7835 0.08078 0.42074 0.0
C1399 C 0.79254 0.09533 0.38755 0.0
C1400 C 0.78246 0.11003 0.39489 0.0
C1401 C 0.77348 0.11021 0.41542 0.0
C1402 C 0.774 0.09576 0.42821 0.0
C1403 C 0.78127 0.12522 0.38119 0.0
C1404 C 0.79267 0.14341 0.38812 0.0
C1405 C 0.76958 0.12184 0.36123 0.0
C1406 C 0.75565 0.1031 0.3535 0.0
C1407 C 0.73524 0.09244 0.36503 0.0
C1408 C 0.72232 0.07475 0.35773 0.0
C1409 C 0.7295 0.06761 0.33884 0.0
C1410 C 0.74957 0.07818 0.32717 0.0
C1411 C 0.76258 0.09588 0.33441 0.0
H1412 H 0.71948 0.05391 0.33321 0.0
H1413 H 0.84038 0.22656 0.40424 0.0
H1414 H 0.28736 0.3518 0.79211 0.0
H1415 H 0.30878 0.34972 0.82519 0.0
H1416 H 0.38331 0.36138 0.79468 0.0
H1417 H 0.36223 0.36344 0.76171 0.0
H1418 H 0.37447 0.33023 0.81667 0.0
H1419 H 0.36783 0.39282 0.82768 0.0
H1420 H 0.34479 0.41759 0.83027 0.0
H1421 H 0.29787 0.39059 0.87972 0.0
H1422 H 0.3204 0.36551 0.87724 0.0
H1423 H 0.46034 0.33797 0.90013 0.0
H1424 H 0.43713 0.34517 0.87044 0.0
H1425 H 0.36708 0.33791 0.90685 0.0
H1426 H 0.39064 0.33182 0.93715 0.0
H1427 H 0.37124 0.36612 0.88271 0.0
H1428 H 0.37683 0.30379 0.87231 0.0
H1429 H 0.39866 0.27835 0.87006 0.0
H1430 H 0.44535 0.30359 0.81956 0.0
H1431 H 0.42403 0.32931 0.82169 0.0
C1432 C 0.30835 0.35422 0.79251 0.0
C1433 C 0.32304 0.35765 0.77421 0.0
C1434 C 0.32056 0.35306 0.81144 0.0
C1435 C 0.34763 0.35535 0.81235 0.0
C1436 C 0.36239 0.35948 0.79428 0.0
C1437 C 0.35027 0.3607 0.77544 0.0
C1438 C 0.36053 0.35211 0.83168 0.0
C1439 C 0.37405 0.33824 0.83104 0.0
C1440 C 0.35914 0.36211 0.8506 0.0
C1441 C 0.34561 0.37719 0.85212 0.0
C1442 C 0.35243 0.39208 0.83898 0.0
C1443 C 0.3395 0.40619 0.84046 0.0
C1444 C 0.31982 0.40564 0.85511 0.0
C1445 C 0.31309 0.39099 0.86836 0.0
C1446 C 0.32595 0.37683 0.86693 0.0
C1447 C 0.44014 0.33824 0.90203 0.0
C1448 C 0.42738 0.33421 0.9211 0.0
C1449 C 0.42677 0.34214 0.88491 0.0
C1450 C 0.4002 0.34171 0.88627 0.0
C1451 C 0.38753 0.33819 0.90538 0.0
C1452 C 0.40098 0.33449 0.92263 0.0
C1453 C 0.38561 0.34445 0.86757 0.0
C1454 C 0.37164 0.3581 0.86834 0.0
C1455 C 0.38631 0.33411 0.84875 0.0
C1456 C 0.39898 0.31855 0.84727 0.0
C1457 C 0.39186 0.30397 0.8608 0.0
C1458 C 0.40413 0.28949 0.85954 0.0
C1459 C 0.42342 0.28937 0.8447 0.0
C1460 C 0.43042 0.30371 0.83105 0.0
C1461 C 0.41823 0.31823 0.83226 0.0
H1462 H 0.4329 0.27816 0.84376 0.0
H1463 H 0.30984 0.41658 0.85623 0.0
H1464 H 0.36734 0.8824 0.36966 0.0
H1465 H 0.36968 0.91069 0.39062 0.0
H1466 H 0.29159 0.91015 0.37168 0.0
H1467 H 0.2894 0.88215 0.35022 0.0
H1468 H 0.32136 0.94353 0.37006 0.0
H1469 H 0.30589 0.89718 0.42075 0.0
H1470 H 0.31396 0.8711 0.43931 0.0
H1471 H 0.38953 0.90367 0.45798 0.0
H1472 H 0.38204 0.92989 0.4393 0.0
H1473 H 0.29438 0.00645 0.4472 0.0
H1474 H 0.29427 0.97837 0.42642 0.0
H1475 H 0.37553 0.98504 0.44064 0.0
H1476 H 0.37571 0.0131 0.46167 0.0
H1477 H 0.34561 0.94908 0.44473 0.0
H1478 H 0.35978 0.99577 0.39446 0.0
H1479 H 0.35048 0.02174 0.37647 0.0
H1480 H 0.27563 0.98809 0.35761 0.0
H1481 H 0.28434 0.96198 0.37575 0.0
C1482 C 0.35064 0.88828 0.36998 0.0
C1483 C 0.32815 0.88 0.35832 0.0
C1484 C 0.35196 0.90442 0.38206 0.0
C1485 C 0.33067 0.91243 0.38298 0.0
C1486 C 0.30825 0.90422 0.37124 0.0
C1487 C 0.30701 0.88818 0.35902 0.0
C1488 C 0.33187 0.92952 0.39589 0.0
C1489 C 0.32633 0.94463 0.38645 0.0
C1490 C 0.33896 0.93116 0.41718 0.0
C1491 C 0.3435 0.91543 0.42845 0.0
C1492 C 0.32431 0.89873 0.42868 0.0
C1493 C 0.32877 0.88394 0.43925 0.0
C1494 C 0.35227 0.88571 0.44977 0.0
C1495 C 0.37135 0.90231 0.4498 0.0
C1496 C 0.367 0.91714 0.43924 0.0
C1497 C 0.31218 0.00186 0.44602 0.0
C1498 C 0.33506 0.01197 0.45604 0.0
C1499 C 0.31213 0.9859 0.43404 0.0
C1500 C 0.33494 0.97972 0.43187 0.0
C1501 C 0.35774 0.98962 0.44209 0.0
C1502 C 0.35786 0.00569 0.45396 0.0
C1503 C 0.33491 0.96292 0.4189 0.0
C1504 C 0.34069 0.94792 0.42833 0.0
C1505 C 0.32786 0.96131 0.39765 0.0
C1506 C 0.32262 0.97697 0.38663 0.0
C1507 C 0.34125 0.99395 0.38662 0.0
C1508 C 0.3361 0.00869 0.37637 0.0
C1509 C 0.31245 0.00658 0.36594 0.0
C1510 C 0.29393 0.98971 0.36571 0.0
C1511 C 0.29898 0.97493 0.37596 0.0
H1512 H 0.3085 0.01801 0.35801 0.0
H1513 H 0.35568 0.87424 0.45795 0.0
H1514 H 0.64947 0.77393 0.7439 0.0
H1515 H 0.62531 0.77702 0.77567 0.0
H1516 H 0.69261 0.77599 0.81237 0.0
H1517 H 0.71692 0.7727 0.78063 0.0
H1518 H 0.64741 0.75632 0.82956 0.0
H1519 H 0.68 0.81635 0.80259 0.0
H1520 H 0.68671 0.83961 0.77593 0.0
H1521 H 0.60413 0.83282 0.77113 0.0
H1522 H 0.59691 0.80932 0.79757 0.0
H1523 H 0.61553 0.79891 0.92327 0.0
H1524 H 0.63633 0.79113 0.89136 0.0
H1525 H 0.56881 0.79409 0.85598 0.0
H1526 H 0.54818 0.80243 0.88778 0.0
H1527 H 0.61295 0.81192 0.83779 0.0
H1528 H 0.58038 0.75275 0.866 0.0
H1529 H 0.57384 0.72969 0.89286 0.0
H1530 H 0.65624 0.73491 0.89564 0.0
H1531 H 0.66331 0.7582 0.86898 0.0
C1532 C 0.65909 0.77415 0.75872 0.0
C1533 C 0.68522 0.77326 0.75972 0.0
C1534 C 0.64525 0.77597 0.77686 0.0
C1535 C 0.65732 0.77705 0.79635 0.0
C1536 C 0.68298 0.77526 0.79747 0.0
C1537 C 0.69685 0.77342 0.77931 0.0
C1538 C 0.64359 0.78098 0.81546 0.0
C1539 C 0.6401 0.76856 0.83148 0.0
C1540 C 0.63361 0.79677 0.81775 0.0
C1541 C 0.63791 0.81094 0.8019 0.0
C1542 C 0.66327 0.81971 0.79573 0.0
C1543 C 0.66716 0.83295 0.78068 0.0
C1544 C 0.64586 0.83765 0.7718 0.0
C1545 C 0.62061 0.82914 0.77799 0.0
C1546 C 0.6166 0.81587 0.79302 0.0
C1547 C 0.60517 0.79803 0.90868 0.0
C1548 C 0.58021 0.80131 0.90805 0.0
C1549 C 0.61697 0.79338 0.89049 0.0
C1550 C 0.60399 0.79181 0.87133 0.0
C1551 C 0.57912 0.79514 0.87062 0.0
C1552 C 0.56729 0.79978 0.88881 0.0
C1553 C 0.6167 0.78725 0.85194 0.0
C1554 C 0.62009 0.7996 0.83586 0.0
C1555 C 0.62658 0.7714 0.84964 0.0
C1556 C 0.62239 0.75735 0.86563 0.0
C1557 C 0.59713 0.74909 0.87245 0.0
C1558 C 0.59332 0.73596 0.88762 0.0
C1559 C 0.61462 0.73087 0.89599 0.0
C1560 C 0.63976 0.73888 0.88916 0.0
C1561 C 0.64368 0.75203 0.87401 0.0
H1562 H 0.61163 0.7207 0.90773 0.0
H1563 H 0.64891 0.84791 0.76015 0.0
loop_
_geom_bond_atom_site_label_1
_geom_bond_atom_site_label_2
_geom_bond_distance
_geom_bond_site_symmetry_2
_ccdc_geom_bond_type
O0 Cd1 2.300 . S
O0 C7 1.275 . S
Cd1 O0 2.300 . S
Cd1 O9 2.381 . S
Cd1 O10 2.378 . S
O2 Cd3 2.385 . S
O2 C7 1.255 . S
Cd3 O2 2.385 . S
Cd3 O4 2.317 . S
O4 Cd3 2.317 . S
O4 C5 1.232 . S
C5 O4 1.232 . S
C5 O6 1.218 . S
O6 C5 1.218 . S
C7 O0 1.275 . S
C7 O2 1.255 . S
C8 O9 1.258 . S
C8 O10 1.256 . S
O9 Cd1 2.381 . S
O9 C8 1.258 . S
O10 Cd1 2.378 . S
O10 C8 1.256 . S
O11 Cd12 2.300 . S
O11 C18 1.275 . S
Cd12 O11 2.300 . S
Cd12 O20 2.381 . S
Cd12 O21 2.378 . S
O13 Cd14 2.385 . S
O13 C18 1.255 . S
Cd14 O13 2.385 . S
Cd14 O15 2.317 . S
O15 Cd14 2.317 . S
O15 C16 1.232 . S
C16 O15 1.232 . S
C16 O17 1.218 . S
O17 C16 1.218 . S
C18 O11 1.275 . S
C18 O13 1.255 . S
C19 O20 1.258 . S
C19 O21 1.256 . S
O20 Cd12 2.381 . S
O20 C19 1.258 . S
O21 Cd12 2.378 . S
O21 C19 1.256 . S
O22 Cd23 2.300 . S
O22 C29 1.275 . S
Cd23 O22 2.300 . S
Cd23 O31 2.381 . S
Cd23 O32 2.378 . S
O24 Cd25 2.385 . S
O24 C29 1.255 . S
Cd25 O24 2.385 . S
Cd25 O26 2.317 . S
O26 Cd25 2.317 . S
O26 C27 1.232 . S
C27 O26 1.232 . S
C27 O28 1.218 . S
O28 C27 1.218 . S
C29 O22 1.275 . S
C29 O24 1.255 . S
C30 O31 1.258 . S
C30 O32 1.256 . S
O31 Cd23 2.381 . S
O31 C30 1.258 . S
O32 Cd23 2.378 . S
O32 C30 1.256 . S
O33 Cd34 2.300 . S
O33 C40 1.275 . S
Cd34 O33 2.300 . S
Cd34 O42 2.381 . S
Cd34 O43 2.378 . S
O35 Cd36 2.385 . S
O35 C40 1.255 . S
Cd36 O35 2.385 . S
Cd36 O37 2.317 . S
O37 Cd36 2.317 . S
O37 C38 1.232 . S
C38 O37 1.232 . S
C38 O39 1.218 . S
O39 C38 1.218 . S
C40 O33 1.275 . S
C40 O35 1.255 . S
C41 O42 1.258 . S
C41 O43 1.256 . S
O42 Cd34 2.381 . S
O42 C41 1.258 . S
O43 Cd34 2.378 . S
O43 C41 1.256 . S
O44 Cd45 2.300 . S
O44 C51 1.275 . S
Cd45 O44 2.300 . S
Cd45 O53 2.381 . S
Cd45 O54 2.378 . S
O46 Cd47 2.385 . S
O46 C51 1.255 . S
Cd47 O46 2.385 . S
Cd47 O48 2.317 . S
O48 Cd47 2.317 . S
O48 C49 1.232 . S
C49 O48 1.232 . S
C49 O50 1.218 . S
O50 C49 1.218 . S
C51 O44 1.275 . S
C51 O46 1.255 . S
C52 O53 1.258 . S
C52 O54 1.256 . S
O53 Cd45 2.381 . S
O53 C52 1.258 . S
O54 Cd45 2.378 . S
O54 C52 1.256 . S
O55 Cd56 2.300 . S
O55 C62 1.275 . S
Cd56 O55 2.300 . S
Cd56 O64 2.381 . S
Cd56 O65 2.378 . S
O57 Cd58 2.385 . S
O57 C62 1.255 . S
Cd58 O57 2.385 . S
Cd58 O59 2.317 . S
O59 Cd58 2.317 . S
O59 C60 1.232 . S
C60 O59 1.232 . S
C60 O61 1.218 . S
O61 C60 1.218 . S
C62 O55 1.275 . S
C62 O57 1.255 . S
C63 O64 1.258 . S
C63 O65 1.256 . S
O64 Cd56 2.381 . S
O64 C63 1.258 . S
O65 Cd56 2.378 . S
O65 C63 1.256 . S
O66 Cd67 2.300 . S
O66 C73 1.275 . S
Cd67 O66 2.300 . S
Cd67 O75 2.381 . S
Cd67 O76 2.378 . S
O68 Cd69 2.385 . S
O68 C73 1.255 . S
Cd69 O68 2.385 . S
Cd69 O70 2.317 . S
O70 Cd69 2.317 . S
O70 C71 1.232 . S
C71 O70 1.232 . S
C71 O72 1.218 . S
O72 C71 1.218 . S
C73 O66 1.275 . S
C73 O68 1.255 . S
C74 O75 1.258 . S
C74 O76 1.256 . S
O75 Cd67 2.381 . S
O75 C74 1.258 . S
O76 Cd67 2.378 . S
O76 C74 1.256 . S
O77 Cd78 2.300 . S
O77 C84 1.275 . S
Cd78 O77 2.300 . S
Cd78 O86 2.381 . S
Cd78 O87 2.378 . S
O79 Cd80 2.385 . S
O79 C84 1.255 . S
Cd80 O79 2.385 . S
Cd80 O81 2.317 . S
O81 Cd80 2.317 . S
O81 C82 1.232 . S
C82 O81 1.232 . S
C82 O83 1.218 . S
O83 C82 1.218 . S
C84 O77 1.275 . S
C84 O79 1.255 . S
C85 O86 1.258 . S
C85 O87 1.256 . S
O86 Cd78 2.381 . S
O86 C85 1.258 . S
O87 Cd78 2.378 . S
O87 C85 1.256 . S
C88 C89 1.384 . S
C88 C90 1.384 1_655 S
C88 H116 0.928 1_655 S
C89 C88 1.384 . S
C89 C92 1.382 . S
C90 C88 1.384 1_455 S
C90 C91 1.381 . S
C90 H117 0.930 . S
C91 C90 1.381 . S
C91 C93 1.381 1_455 S
C91 C94 1.487 . S
C92 C89 1.382 . S
C92 C93 1.387 . S
C92 H118 0.930 . S
C93 C91 1.381 1_655 S
C93 C92 1.387 . S
C93 H119 0.931 . S
C94 C91 1.487 . S
C94 C101 1.399 . S
C94 N132 1.343 . S
C95 C96 1.384 . S
C95 C97 1.384 . S
C95 H120 0.931 . S
C96 C95 1.384 . S
C96 C99 1.382 . S
C97 C95 1.384 . S
C97 C98 1.381 . S
C97 H121 0.930 . S
C98 C97 1.381 . S
C98 C100 1.381 . S
C98 C101 1.487 . S
C99 C96 1.382 . S
C99 C100 1.387 . S
C99 H122 0.930 . S
C100 C98 1.381 . S
C100 C99 1.387 . S
C100 H123 0.931 . S
C101 C94 1.399 . S
C101 C98 1.487 . S
C101 N133 1.343 . S
C102 C103 1.384 . S
C102 C104 1.384 . S
C102 H124 0.931 . S
C103 C102 1.384 . S
C103 C106 1.382 . S
C104 C102 1.384 . S
C104 C105 1.381 . S
C104 H125 0.930 . S
C105 C104 1.381 . S
C105 C107 1.381 . S
C105 C108 1.487 . S
C106 C103 1.382 . S
C106 C107 1.387 . S
C106 H126 0.930 . S
C107 C105 1.381 . S
C107 C106 1.387 . S
C107 H127 0.931 . S
C108 C105 1.487 . S
C108 C115 1.399 . S
C108 N133 1.343 . S
C109 C110 1.388 1_455 S
C109 C111 1.380 . S
C109 H128 0.931 . S
C110 C109 1.388 1_655 S
C110 C113 1.382 . S
C111 C109 1.380 . S
C111 C112 1.381 . S
C111 H129 0.930 . S
C112 C111 1.381 . S
C112 C114 1.381 1_455 S
C112 C115 1.487 . S
C113 C110 1.382 . S
C113 C114 1.387 . S
C113 H130 0.930 . S
C114 C112 1.381 1_655 S
C114 C113 1.387 . S
C114 H131 0.931 . S
C115 C108 1.399 . S
C115 C112 1.487 . S
C115 N132 1.343 . S
H116 C88 0.928 1_455 S
H117 C90 0.930 . S
H118 C92 0.930 . S
H119 C93 0.931 . S
H120 C95 0.931 . S
H121 C97 0.930 . S
H122 C99 0.930 . S
H123 C100 0.931 . S
H124 C102 0.931 . S
H125 C104 0.930 . S
H126 C106 0.930 . S
H127 C107 0.931 . S
H128 C109 0.931 . S
H129 C111 0.930 . S
H130 C113 0.930 . S
H131 C114 0.931 . S
N132 C94 1.343 . S
N132 C115 1.343 . S
N133 C101 1.343 . S
N133 C108 1.343 . S
C134 C135 1.384 . S
C134 C136 1.384 . S
C134 H162 0.931 . S
C135 C134 1.384 . S
C135 C138 1.382 . S
C136 C134 1.384 . S
C136 C137 1.381 . S
C136 H163 0.930 . S
C137 C136 1.381 . S
C137 C139 1.381 . S
C137 C140 1.487 . S
C138 C135 1.382 . S
C138 C139 1.387 . S
C138 H164 0.930 . S
C139 C137 1.381 . S
C139 C138 1.387 . S
C139 H165 0.931 . S
C140 C137 1.487 . S
C140 C147 1.399 1_655 S
C140 N178 1.343 . S
C141 C142 1.384 . S
C141 C143 1.384 . S
C141 H166 0.931 . S
C142 C141 1.384 . S
C142 C145 1.382 . S
C143 C141 1.384 . S
C143 C144 1.381 . S
C143 H167 0.930 . S
C144 C143 1.381 . S
C144 C146 1.381 . S
C144 C147 1.487 . S
C145 C142 1.382 . S
C145 C146 1.387 . S
C145 H168 0.930 . S
C146 C144 1.381 . S
C146 C145 1.387 . S
C146 H169 0.931 . S
C147 C140 1.399 1_455 S
C147 C144 1.487 . S
C147 N179 1.343 . S
C148 C149 1.384 . S
C148 C150 1.384 . S
C148 H170 0.931 . S
C149 C148 1.384 . S
C149 C152 1.382 . S
C150 C148 1.384 . S
C150 C151 1.381 . S
C150 H171 0.930 . S
C151 C150 1.381 . S
C151 C153 1.381 . S
C151 C154 1.487 . S
C152 C149 1.382 . S
C152 C153 1.387 . S
C152 H172 0.930 . S
C153 C151 1.381 . S
C153 C152 1.387 . S
C153 H173 0.931 . S
C154 C151 1.487 . S
C154 C161 1.399 1_455 S
C154 N179 1.343 . S
C155 C156 1.384 . S
C155 C157 1.384 . S
C155 H174 0.931 . S
C156 C155 1.384 . S
C156 C159 1.382 . S
C157 C155 1.384 . S
C157 C158 1.381 . S
C157 H175 0.930 . S
C158 C157 1.381 . S
C158 C160 1.381 . S
C158 C161 1.487 . S
C159 C156 1.382 . S
C159 C160 1.387 . S
C159 H176 0.930 . S
C160 C158 1.381 . S
C160 C159 1.387 . S
C160 H177 0.931 . S
C161 C154 1.399 1_655 S
C161 C158 1.487 . S
C161 N178 1.343 . S
H162 C134 0.931 . S
H163 C136 0.930 . S
H164 C138 0.930 . S
H165 C139 0.931 . S
H166 C141 0.931 . S
H167 C143 0.930 . S
H168 C145 0.930 . S
H169 C146 0.931 . S
H170 C148 0.931 . S
H171 C150 0.930 . S
H172 C152 0.930 . S
H173 C153 0.931 . S
H174 C155 0.931 . S
H175 C157 0.930 . S
H176 C159 0.930 . S
H177 C160 0.931 . S
N178 C140 1.343 . S
N178 C161 1.343 . S
N179 C147 1.343 . S
N179 C154 1.343 . S
C180 C181 1.384 . S
C180 C182 1.384 . S
C180 H208 0.931 . S
C181 C180 1.384 . S
C181 C184 1.382 . S
C182 C180 1.384 . S
C182 C183 1.381 . S
C182 H209 0.930 . S
C183 C182 1.381 . S
C183 C185 1.381 . S
C183 C186 1.487 . S
C184 C181 1.382 . S
C184 C185 1.387 . S
C184 H210 0.930 . S
C185 C183 1.381 . S
C185 C184 1.387 . S
C185 H211 0.931 . S
C186 C183 1.487 . S
C186 C193 1.399 . S
C186 N224 1.343 . S
C187 C188 1.384 . S
C187 C189 1.384 . S
C187 H212 0.931 . S
C188 C187 1.384 . S
C188 C191 1.382 . S
C189 C187 1.384 . S
C189 C190 1.381 . S
C189 H213 0.930 . S
C190 C189 1.381 . S
C190 C192 1.381 . S
C190 C193 1.487 . S
C191 C188 1.382 . S
C191 C192 1.387 . S
C191 H214 0.930 . S
C192 C190 1.381 . S
C192 C191 1.387 . S
C192 H215 0.931 . S
C193 C186 1.399 . S
C193 C190 1.487 . S
C193 N225 1.343 . S
C194 C195 1.384 . S
C194 C196 1.384 . S
C194 H216 0.931 . S
C195 C194 1.384 . S
C195 C198 1.382 . S
C196 C194 1.384 . S
C196 C197 1.381 . S
C196 H217 0.930 . S
C197 C196 1.381 . S
C197 C199 1.381 . S
C197 C200 1.487 . S
C198 C195 1.382 . S
C198 C199 1.387 . S
C198 H218 0.930 . S
C199 C197 1.381 . S
C199 C198 1.387 . S
C199 H219 0.931 . S
C200 C197 1.487 . S
C200 C207 1.399 . S
C200 N225 1.343 . S
C201 C202 1.384 . S
C201 C203 1.384 . S
C201 H220 0.931 . S
C202 C201 1.384 . S
C202 C205 1.382 . S
C203 C201 1.384 . S
C203 C204 1.381 . S
C203 H221 0.930 . S
C204 C203 1.381 . S
C204 C206 1.381 . S
C204 C207 1.487 . S
C205 C202 1.382 . S
C205 C206 1.387 . S
C205 H222 0.930 . S
C206 C204 1.381 . S
C206 C205 1.387 . S
C206 H223 0.931 . S
C207 C200 1.399 . S
C207 C204 1.487 . S
C207 N224 1.343 . S
H208 C180 0.931 . S
H209 C182 0.930 . S
H210 C184 0.930 . S
H211 C185 0.931 . S
H212 C187 0.931 . S
H213 C189 0.930 . S
H214 C191 0.930 . S
H215 C192 0.931 . S
H216 C194 0.931 . S
H217 C196 0.930 . S
H218 C198 0.930 . S
H219 C199 0.931 . S
H220 C201 0.931 . S
H221 C203 0.930 . S
H222 C205 0.930 . S
H223 C206 0.931 . S
N224 C186 1.343 . S
N224 C207 1.343 . S
N225 C193 1.343 . S
N225 C200 1.343 . S
C226 C227 1.384 . S
C226 C228 1.384 . S
C226 H254 0.931 . S
C227 C226 1.384 . S
C227 C230 1.382 . S
C228 C226 1.384 . S
C228 C229 1.381 . S
C228 H255 0.930 . S
C229 C228 1.381 . S
C229 C231 1.381 . S
C229 C232 1.487 . S
C230 C227 1.382 . S
C230 C231 1.387 . S
C230 H256 0.930 . S
C231 C229 1.381 . S
C231 C230 1.387 . S
C231 H257 0.931 . S
C232 C229 1.487 . S
C232 C239 1.399 . S
C232 N270 1.343 1_556 S
C233 C234 1.384 . S
C233 C235 1.384 . S
C233 H258 0.931 . S
C234 C233 1.384 . S
C234 C237 1.382 . S
C235 C233 1.384 . S
C235 C236 1.381 . S
C235 H259 0.930 . S
C236 C235 1.381 . S
C236 C238 1.381 . S
C236 C239 1.487 . S
C237 C234 1.382 . S
C237 C238 1.387 . S
C237 H260 0.930 . S
C238 C236 1.381 . S
C238 C237 1.387 . S
C238 H261 0.931 . S
C239 C232 1.399 . S
C239 C236 1.487 . S
C239 N271 1.343 1_556 S
C240 C241 1.384 . S
C240 C242 1.384 . S
C240 H262 0.931 . S
C241 C240 1.384 . S
C241 C244 1.382 . S
C242 C240 1.384 . S
C242 C243 1.381 . S
C242 H263 0.930 . S
C243 C242 1.381 . S
C243 C245 1.381 . S
C243 C246 1.487 . S
C244 C241 1.382 . S
C244 C245 1.387 . S
C244 H264 0.930 . S
C245 C243 1.381 . S
C245 C244 1.387 . S
C245 H265 0.931 . S
C246 C243 1.487 . S
C246 C253 1.399 . S
C246 N271 1.343 . S
C247 C248 1.384 . S
C247 C249 1.384 . S
C247 H266 0.931 . S
C248 C247 1.384 . S
C248 C251 1.382 . S
C249 C247 1.384 . S
C249 C250 1.381 . S
C249 H267 0.930 . S
C250 C249 1.381 . S
C250 C252 1.381 . S
C250 C253 1.487 . S
C251 C248 1.382 . S
C251 C252 1.387 . S
C251 H268 0.930 . S
C252 C250 1.381 . S
C252 C251 1.387 . S
C252 H269 0.931 . S
C253 C246 1.399 . S
C253 C250 1.487 . S
C253 N270 1.343 . S
H254 C226 0.931 . S
H255 C228 0.930 . S
H256 C230 0.930 . S
H257 C231 0.931 . S
H258 C233 0.931 . S
H259 C235 0.930 . S
H260 C237 0.930 . S
H261 C238 0.931 . S
H262 C240 0.931 . S
H263 C242 0.930 . S
H264 C244 0.930 . S
H265 C245 0.931 . S
H266 C247 0.931 . S
H267 C249 0.930 . S
H268 C251 0.930 . S
H269 C252 0.931 . S
N270 C232 1.343 1_554 S
N270 C253 1.343 . S
N271 C239 1.343 1_554 S
N271 C246 1.343 . S
C272 C273 1.384 . S
C272 C274 1.384 . S
C272 H300 0.931 . S
C273 C272 1.384 . S
C273 C276 1.382 . S
C274 C272 1.384 . S
C274 C275 1.381 . S
C274 H301 0.930 . S
C275 C274 1.381 . S
C275 C277 1.381 . S
C275 C278 1.487 . S
C276 C273 1.382 . S
C276 C277 1.387 . S
C276 H302 0.930 . S
C277 C275 1.381 . S
C277 C276 1.387 . S
C277 H303 0.931 . S
C278 C275 1.487 . S
C278 C285 1.399 . S
C278 N316 1.343 . S
C279 C280 1.384 . S
C279 C281 1.384 . S
C279 H304 0.931 . S
C280 C279 1.384 . S
C280 C283 1.382 . S
C281 C279 1.384 . S
C281 C282 1.381 . S
C281 H305 0.930 . S
C282 C281 1.381 . S
C282 C284 1.381 . S
C282 C285 1.487 . S
C283 C280 1.382 . S
C283 C284 1.387 . S
C283 H306 0.930 . S
C284 C282 1.381 . S
C284 C283 1.387 . S
C284 H307 0.931 . S
C285 C278 1.399 . S
C285 C282 1.487 . S
C285 N317 1.343 . S
C286 C287 1.384 . S
C286 C288 1.384 . S
C286 H308 0.931 . S
C287 C286 1.384 . S
C287 C290 1.382 . S
C288 C286 1.384 . S
C288 C289 1.381 . S
C288 H309 0.930 . S
C289 C288 1.381 . S
C289 C291 1.381 . S
C289 C292 1.487 . S
C290 C287 1.382 . S
C290 C291 1.387 . S
C290 H310 0.930 . S
C291 C289 1.381 . S
C291 C290 1.387 . S
C291 H311 0.931 . S
C292 C289 1.487 . S
C292 C299 1.399 . S
C292 N317 1.343 1_565 S
C293 C294 1.384 . S
C293 C295 1.384 . S
C293 H312 0.931 . S
C294 C293 1.384 . S
C294 C297 1.382 . S
C295 C293 1.384 . S
C295 C296 1.381 . S
C295 H313 0.930 . S
C296 C295 1.381 . S
C296 C298 1.381 . S
C296 C299 1.487 . S
C297 C294 1.382 . S
C297 C298 1.387 . S
C297 H314 0.930 . S
C298 C296 1.381 . S
C298 C297 1.387 . S
C298 H315 0.931 . S
C299 C292 1.399 . S
C299 C296 1.487 . S
C299 N316 1.343 1_565 S
H300 C272 0.931 . S
H301 C274 0.930 . S
H302 C276 0.930 . S
H303 C277 0.931 . S
H304 C279 0.931 . S
H305 C281 0.930 . S
H306 C283 0.930 . S
H307 C284 0.931 . S
H308 C286 0.931 . S
H309 C288 0.930 . S
H310 C290 0.930 . S
H311 C291 0.931 . S
H312 C293 0.931 . S
H313 C295 0.930 . S
H314 C297 0.930 . S
H315 C298 0.931 . S
N316 C278 1.343 . S
N316 C299 1.343 1_545 S
N317 C285 1.343 . S
N317 C292 1.343 1_545 S
C318 C319 1.384 . S
C318 C320 1.384 . S
C318 H346 0.931 . S
C319 C318 1.384 . S
C319 C322 1.382 . S
C320 C318 1.384 . S
C320 C321 1.381 . S
C320 H347 0.930 . S
C321 C320 1.381 . S
C321 C323 1.381 . S
C321 C324 1.487 . S
C322 C319 1.382 . S
C322 C323 1.387 . S
C322 H348 0.930 . S
C323 C321 1.381 . S
C323 C322 1.387 . S
C323 H349 0.931 . S
C324 C321 1.487 . S
C324 C331 1.399 . S
C324 N362 1.343 1_556 S
C325 C326 1.384 . S
C325 C327 1.384 . S
C325 H350 0.931 . S
C326 C325 1.384 . S
C326 C329 1.382 . S
C327 C325 1.384 . S
C327 C328 1.381 . S
C327 H351 0.930 . S
C328 C327 1.381 . S
C328 C330 1.381 . S
C328 C331 1.487 . S
C329 C326 1.382 . S
C329 C330 1.387 . S
C329 H352 0.930 . S
C330 C328 1.381 . S
C330 C329 1.387 . S
C330 H353 0.931 . S
C331 C324 1.399 . S
C331 C328 1.487 . S
C331 N363 1.343 1_556 S
C332 C333 1.384 . S
C332 C334 1.384 . S
C332 H354 0.931 . S
C333 C332 1.384 . S
C333 C336 1.382 . S
C334 C332 1.384 . S
C334 C335 1.381 . S
C334 H355 0.930 . S
C335 C334 1.381 . S
C335 C337 1.381 . S
C335 C338 1.487 . S
C336 C333 1.382 . S
C336 C337 1.387 . S
C336 H356 0.930 . S
C337 C335 1.381 . S
C337 C336 1.387 . S
C337 H357 0.931 . S
C338 C335 1.487 . S
C338 C345 1.399 . S
C338 N363 1.343 . S
C339 C340 1.384 . S
C339 C341 1.384 . S
C339 H358 0.931 . S
C340 C339 1.384 . S
C340 C343 1.382 . S
C341 C339 1.384 . S
C341 C342 1.381 . S
C341 H359 0.930 . S
C342 C341 1.381 . S
C342 C344 1.381 . S
C342 C345 1.487 . S
C343 C340 1.382 . S
C343 C344 1.387 . S
C343 H360 0.930 . S
C344 C342 1.381 . S
C344 C343 1.387 . S
C344 H361 0.931 . S
C345 C338 1.399 . S
C345 C342 1.487 . S
C345 N362 1.343 . S
H346 C318 0.931 . S
H347 C320 0.930 . S
H348 C322 0.930 . S
H349 C323 0.931 . S
H350 C325 0.931 . S
H351 C327 0.930 . S
H352 C329 0.930 . S
H353 C330 0.931 . S
H354 C332 0.931 . S
H355 C334 0.930 . S
H356 C336 0.930 . S
H357 C337 0.931 . S
H358 C339 0.931 . S
H359 C341 0.930 . S
H360 C343 0.930 . S
H361 C344 0.931 . S
N362 C324 1.343 1_554 S
N362 C345 1.343 . S
N363 C331 1.343 1_554 S
N363 C338 1.343 . S
H364 C382 0.951 . S
H365 C384 0.951 . S
H366 C386 0.950 . S
H367 C387 0.950 . S
H368 C389 0.950 . S
H369 C392 0.950 . S
H370 C393 0.950 . S
H371 C395 0.950 . S
H372 C396 0.950 . S
H373 C397 0.951 . S
H374 C399 0.951 . S
H375 C401 0.950 . S
H376 C402 0.950 . S
H377 C404 0.950 . S
H378 C407 0.950 . S
H379 C408 0.950 . S
H380 C410 0.950 . S
H381 C411 0.950 . S
C382 H364 0.951 . S
C382 C383 1.366 . S
C382 C384 1.388 . S
C383 C382 1.366 . S
C383 C387 1.385 . S
C384 H365 0.951 . S
C384 C382 1.388 . S
C384 C385 1.366 . S
C385 C384 1.366 . S
C385 C386 1.414 . S
C385 C388 1.499 . S
C386 H366 0.950 . S
C386 C385 1.414 . S
C386 C387 1.374 . S
C387 H367 0.950 . S
C387 C383 1.385 . S
C387 C386 1.374 . S
C388 C385 1.499 . S
C388 C389 1.373 . S
C388 C390 1.389 . S
C389 H368 0.950 . S
C389 C388 1.373 . S
C389 C405 1.377 . S
C390 C388 1.389 . S
C390 C391 1.524 . S
C390 C404 1.377 . S
C391 C390 1.524 . S
C391 C392 1.397 . S
C391 C396 1.363 . S
C392 H369 0.950 . S
C392 C391 1.397 . S
C392 C393 1.334 . S
C393 H370 0.950 . S
C393 C392 1.334 . S
C393 C394 1.287 . S
C394 C393 1.287 . S
C394 C395 1.524 . S
C394 H413 0.913 . S
C395 H371 0.950 . S
C395 C394 1.524 . S
C395 C396 1.415 . S
C396 H372 0.950 . S
C396 C391 1.363 . S
C396 C395 1.415 . S
C397 H373 0.951 . S
C397 C398 1.366 . S
C397 C399 1.388 . S
C398 C397 1.366 . S
C398 C402 1.385 . S
C399 H374 0.951 . S
C399 C397 1.388 . S
C399 C400 1.366 . S
C400 C399 1.366 . S
C400 C401 1.414 . S
C400 C403 1.499 . S
C401 H375 0.950 . S
C401 C400 1.414 . S
C401 C402 1.374 . S
C402 H376 0.950 . S
C402 C398 1.385 . S
C402 C401 1.374 . S
C403 C400 1.499 . S
C403 C404 1.373 . S
C403 C405 1.389 . S
C404 H377 0.950 . S
C404 C390 1.377 . S
C404 C403 1.373 . S
C405 C389 1.377 . S
C405 C403 1.389 . S
C405 C406 1.524 . S
C406 C405 1.524 . S
C406 C407 1.397 . S
C406 C411 1.363 . S
C407 H378 0.950 . S
C407 C406 1.397 . S
C407 C408 1.334 . S
C408 H379 0.950 . S
C408 C407 1.334 . S
C408 C409 1.287 . S
C409 C408 1.287 . S
C409 C410 1.524 . S
C409 H412 0.999 . S
C410 H380 0.950 . S
C410 C409 1.524 . S
C410 C411 1.415 . S
C411 H381 0.950 . S
C411 C406 1.363 . S
C411 C410 1.415 . S
H412 C409 0.999 . S
H413 C394 0.913 . S
H414 C432 0.951 . S
H415 C434 0.951 . S
H416 C436 0.950 . S
H417 C437 0.950 . S
H418 C439 0.950 . S
H419 C442 0.950 . S
H420 C443 0.950 . S
H421 C445 0.950 . S
H422 C446 0.950 . S
H423 C447 0.951 . S
H424 C449 0.951 . S
H425 C451 0.950 . S
H426 C452 0.950 . S
H427 C454 0.950 . S
H428 C457 0.950 . S
H429 C458 0.950 . S
H430 C460 0.950 . S
H431 C461 0.950 . S
C432 H414 0.951 . S
C432 C433 1.366 . S
C432 C434 1.388 . S
C433 C432 1.366 . S
C433 C437 1.385 . S
C434 H415 0.951 . S
C434 C432 1.388 . S
C434 C435 1.366 . S
C435 C434 1.366 . S
C435 C436 1.414 . S
C435 C438 1.499 . S
C436 H416 0.950 . S
C436 C435 1.414 . S
C436 C437 1.374 . S
C437 H417 0.950 . S
C437 C433 1.385 . S
C437 C436 1.374 . S
C438 C435 1.499 . S
C438 C439 1.373 . S
C438 C440 1.389 . S
C439 H418 0.950 . S
C439 C438 1.373 . S
C439 C455 1.377 . S
C440 C438 1.389 . S
C440 C441 1.524 . S
C440 C454 1.377 . S
C441 C440 1.524 . S
C441 C442 1.397 . S
C441 C446 1.363 . S
C442 H419 0.950 . S
C442 C441 1.397 . S
C442 C443 1.334 . S
C443 H420 0.950 . S
C443 C442 1.334 . S
C443 C444 1.287 . S
C444 C443 1.287 . S
C444 C445 1.524 . S
C444 H463 0.913 . S
C445 H421 0.950 . S
C445 C444 1.524 . S
C445 C446 1.415 . S
C446 H422 0.950 . S
C446 C441 1.363 . S
C446 C445 1.415 . S
C447 H423 0.951 . S
C447 C448 1.366 . S
C447 C449 1.388 . S
C448 C447 1.366 . S
C448 C452 1.385 . S
C449 H424 0.951 . S
C449 C447 1.388 . S
C449 C450 1.366 . S
C450 C449 1.366 . S
C450 C451 1.414 . S
C450 C453 1.499 . S
C451 H425 0.950 . S
C451 C450 1.414 . S
C451 C452 1.374 . S
C452 H426 0.950 . S
C452 C448 1.385 . S
C452 C451 1.374 . S
C453 C450 1.499 . S
C453 C454 1.373 . S
C453 C455 1.389 . S
C454 H427 0.950 . S
C454 C440 1.377 . S
C454 C453 1.373 . S
C455 C439 1.377 . S
C455 C453 1.389 . S
C455 C456 1.524 . S
C456 C455 1.524 . S
C456 C457 1.397 . S
C456 C461 1.363 . S
C457 H428 0.950 . S
C457 C456 1.397 . S
C457 C458 1.334 . S
C458 H429 0.950 . S
C458 C457 1.334 . S
C458 C459 1.287 . S
C459 C458 1.287 . S
C459 C460 1.524 . S
C459 H462 0.999 . S
C460 H430 0.950 . S
C460 C459 1.524 . S
C460 C461 1.415 . S
C461 H431 0.950 . S
C461 C456 1.363 . S
C461 C460 1.415 . S
H462 C459 0.999 . S
H463 C444 0.913 . S
H464 C482 0.951 . S
H465 C484 0.951 . S
H466 C486 0.950 . S
H467 C487 0.950 . S
H468 C489 0.950 . S
H469 C492 0.950 . S
H470 C493 0.950 . S
H471 C495 0.950 . S
H472 C496 0.950 . S
H473 C497 0.951 . S
H474 C499 0.951 . S
H475 C501 0.950 . S
H476 C502 0.950 . S
H477 C504 0.950 . S
H478 C507 0.950 . S
H479 C508 0.950 . S
H480 C510 0.950 . S
H481 C511 0.950 . S
C482 H464 0.951 . S
C482 C483 1.366 . S
C482 C484 1.388 . S
C483 C482 1.366 . S
C483 C487 1.385 . S
C484 H465 0.951 . S
C484 C482 1.388 . S
C484 C485 1.366 . S
C485 C484 1.366 . S
C485 C486 1.414 . S
C485 C488 1.499 . S
C486 H466 0.950 . S
C486 C485 1.414 . S
C486 C487 1.374 . S
C487 H467 0.950 . S
C487 C483 1.385 . S
C487 C486 1.374 . S
C488 C485 1.499 . S
C488 C489 1.373 . S
C488 C490 1.389 . S
C489 H468 0.950 . S
C489 C488 1.373 . S
C489 C505 1.377 . S
C490 C488 1.389 . S
C490 C491 1.524 . S
C490 C504 1.377 . S
C491 C490 1.524 . S
C491 C492 1.397 . S
C491 C496 1.363 . S
C492 H469 0.950 . S
C492 C491 1.397 . S
C492 C493 1.334 . S
C493 H470 0.950 . S
C493 C492 1.334 . S
C493 C494 1.287 . S
C494 C493 1.287 . S
C494 C495 1.524 . S
C494 H513 0.913 . S
C495 H471 0.950 . S
C495 C494 1.524 . S
C495 C496 1.415 . S
C496 H472 0.950 . S
C496 C491 1.363 . S
C496 C495 1.415 . S
C497 H473 0.951 . S
C497 C498 1.366 . S
C497 C499 1.388 . S
C498 C497 1.366 . S
C498 C502 1.385 . S
C499 H474 0.951 . S
C499 C497 1.388 . S
C499 C500 1.366 . S
C500 C499 1.366 . S
C500 C501 1.414 . S
C500 C503 1.499 . S
C501 H475 0.950 . S
C501 C500 1.414 . S
C501 C502 1.374 . S
C502 H476 0.950 . S
C502 C498 1.385 . S
C502 C501 1.374 . S
C503 C500 1.499 . S
C503 C504 1.373 . S
C503 C505 1.389 . S
C504 H477 0.950 . S
C504 C490 1.377 . S
C504 C503 1.373 . S
C505 C489 1.377 . S
C505 C503 1.389 . S
C505 C506 1.524 . S
C506 C505 1.524 . S
C506 C507 1.397 . S
C506 C511 1.363 . S
C507 H478 0.950 . S
C507 C506 1.397 . S
C507 C508 1.334 . S
C508 H479 0.950 . S
C508 C507 1.334 . S
C508 C509 1.287 . S
C509 C508 1.287 . S
C509 C510 1.524 . S
C509 H512 0.999 1_655 S
C510 H480 0.950 . S
C510 C509 1.524 . S
C510 C511 1.415 . S
C511 H481 0.950 . S
C511 C506 1.363 . S
C511 C510 1.415 . S
H512 C509 0.999 1_455 S
H513 C494 0.913 . S
H514 C532 0.951 . S
H515 C534 0.951 . S
H516 C536 0.950 . S
H517 C537 0.950 . S
H518 C539 0.950 . S
H519 C542 0.950 . S
H520 C543 0.950 . S
H521 C545 0.950 . S
H522 C546 0.950 . S
H523 C547 0.951 . S
H524 C549 0.951 . S
H525 C551 0.950 . S
H526 C552 0.950 . S
H527 C554 0.950 . S
H528 C557 0.950 . S
H529 C558 0.950 . S
H530 C560 0.950 . S
H531 C561 0.950 . S
C532 H514 0.951 . S
C532 C533 1.366 . S
C532 C534 1.388 . S
C533 C532 1.366 . S
C533 C537 1.385 . S
C534 H515 0.951 . S
C534 C532 1.388 . S
C534 C535 1.366 . S
C535 C534 1.366 . S
C535 C536 1.414 . S
C535 C538 1.499 . S
C536 H516 0.950 . S
C536 C535 1.414 . S
C536 C537 1.374 . S
C537 H517 0.950 . S
C537 C533 1.385 . S
C537 C536 1.374 . S
C538 C535 1.499 . S
C538 C539 1.373 . S
C538 C540 1.389 . S
C539 H518 0.950 . S
C539 C538 1.373 . S
C539 C555 1.377 . S
C540 C538 1.389 . S
C540 C541 1.524 . S
C540 C554 1.377 . S
C541 C540 1.524 . S
C541 C542 1.397 . S
C541 C546 1.363 . S
C542 H519 0.950 . S
C542 C541 1.397 . S
C542 C543 1.334 . S
C543 H520 0.950 . S
C543 C542 1.334 . S
C543 C544 1.287 . S
C544 C543 1.287 . S
C544 C545 1.524 . S
C544 H563 0.913 . S
C545 H521 0.950 . S
C545 C544 1.524 . S
C545 C546 1.415 . S
C546 H522 0.950 . S
C546 C541 1.363 . S
C546 C545 1.415 . S
C547 H523 0.951 . S
C547 C548 1.366 . S
C547 C549 1.388 . S
C548 C547 1.366 . S
C548 C552 1.385 . S
C549 H524 0.951 . S
C549 C547 1.388 . S
C549 C550 1.366 . S
C550 C549 1.366 . S
C550 C551 1.414 . S
C550 C553 1.499 . S
C551 H525 0.950 . S
C551 C550 1.414 . S
C551 C552 1.374 . S
C552 H526 0.950 . S
C552 C548 1.385 . S
C552 C551 1.374 . S
C553 C550 1.499 . S
C553 C554 1.373 . S
C553 C555 1.389 . S
C554 H527 0.950 . S
C554 C540 1.377 . S
C554 C553 1.373 . S
C555 C539 1.377 . S
C555 C553 1.389 . S
C555 C556 1.524 . S
C556 C555 1.524 . S
C556 C557 1.397 . S
C556 C561 1.363 . S
C557 H528 0.950 . S
C557 C556 1.397 . S
C557 C558 1.334 . S
C558 H529 0.950 . S
C558 C557 1.334 . S
C558 C559 1.287 . S
C559 C558 1.287 . S
C559 C560 1.524 . S
C559 H562 0.999 . S
C560 H530 0.950 . S
C560 C559 1.524 . S
C560 C561 1.415 . S
C561 H531 0.950 . S
C561 C556 1.363 . S
C561 C560 1.415 . S
H562 C559 0.999 . S
H563 C544 0.913 . S
H564 C582 0.951 . S
H565 C584 0.951 . S
H566 C586 0.950 . S
H567 C587 0.950 . S
H568 C589 0.950 . S
H569 C592 0.950 . S
H570 C593 0.950 . S
H571 C595 0.950 . S
H572 C596 0.950 . S
H573 C597 0.951 . S
H574 C599 0.951 . S
H575 C601 0.950 . S
H576 C602 0.950 . S
H577 C604 0.950 . S
H578 C607 0.950 . S
H579 C608 0.950 . S
H580 C610 0.950 . S
H581 C611 0.950 . S
C582 H564 0.951 . S
C582 C583 1.366 . S
C582 C584 1.388 . S
C583 C582 1.366 . S
C583 C587 1.385 . S
C584 H565 0.951 . S
C584 C582 1.388 . S
C584 C585 1.366 . S
C585 C584 1.366 . S
C585 C586 1.414 . S
C585 C588 1.499 . S
C586 H566 0.950 . S
C586 C585 1.414 . S
C586 C587 1.374 . S
C587 H567 0.950 . S
C587 C583 1.385 . S
C587 C586 1.374 . S
C588 C585 1.499 . S
C588 C589 1.373 . S
C588 C590 1.389 . S
C589 H568 0.950 . S
C589 C588 1.373 . S
C589 C605 1.377 . S
C590 C588 1.389 . S
C590 C591 1.524 . S
C590 C604 1.377 . S
C591 C590 1.524 . S
C591 C592 1.397 . S
C591 C596 1.363 . S
C592 H569 0.950 . S
C592 C591 1.397 . S
C592 C593 1.334 . S
C593 H570 0.950 . S
C593 C592 1.334 . S
C593 C594 1.287 . S
C594 C593 1.287 . S
C594 C595 1.524 . S
C594 H613 0.913 . S
C595 H571 0.950 . S
C595 C594 1.524 . S
C595 C596 1.415 . S
C596 H572 0.950 . S
C596 C591 1.363 . S
C596 C595 1.415 . S
C597 H573 0.951 . S
C597 C598 1.366 . S
C597 C599 1.388 . S
C598 C597 1.366 . S
C598 C602 1.385 . S
C599 H574 0.951 . S
C599 C597 1.388 . S
C599 C600 1.366 . S
C600 C599 1.366 . S
C600 C601 1.414 . S
C600 C603 1.499 . S
C601 H575 0.950 . S
C601 C600 1.414 . S
C601 C602 1.374 . S
C602 H576 0.950 . S
C602 C598 1.385 . S
C602 C601 1.374 . S
C603 C600 1.499 . S
C603 C604 1.373 . S
C603 C605 1.389 . S
C604 H577 0.950 . S
C604 C590 1.377 . S
C604 C603 1.373 . S
C605 C589 1.377 . S
C605 C603 1.389 . S
C605 C606 1.524 . S
C606 C605 1.524 . S
C606 C607 1.397 . S
C606 C611 1.363 . S
C607 H578 0.950 . S
C607 C606 1.397 . S
C607 C608 1.334 . S
C608 H579 0.950 . S
C608 C607 1.334 . S
C608 C609 1.287 . S
C609 C608 1.287 . S
C609 C610 1.524 . S
C609 H612 0.999 . S
C610 H580 0.950 . S
C610 C609 1.524 . S
C610 C611 1.415 . S
C611 H581 0.950 . S
C611 C606 1.363 . S
C611 C610 1.415 . S
H612 C609 0.999 . S
H613 C594 0.913 . S
H614 C632 0.951 . S
H615 C634 0.951 . S
H616 C636 0.950 . S
H617 C637 0.950 . S
H618 C639 0.950 . S
H619 C642 0.950 . S
H620 C643 0.950 . S
H621 C645 0.950 . S
H622 C646 0.950 . S
H623 C647 0.951 . S
H624 C649 0.951 . S
H625 C651 0.950 . S
H626 C652 0.950 . S
H627 C654 0.950 . S
H628 C657 0.950 . S
H629 C658 0.950 . S
H630 C660 0.950 . S
H631 C661 0.950 . S
C632 H614 0.951 . S
C632 C633 1.366 . S
C632 C634 1.388 . S
C633 C632 1.366 . S
C633 C637 1.385 . S
C634 H615 0.951 . S
C634 C632 1.388 . S
C634 C635 1.366 . S
C635 C634 1.366 . S
C635 C636 1.414 . S
C635 C638 1.499 . S
C636 H616 0.950 . S
C636 C635 1.414 . S
C636 C637 1.374 . S
C637 H617 0.950 . S
C637 C633 1.385 . S
C637 C636 1.374 . S
C638 C635 1.499 . S
C638 C639 1.373 . S
C638 C640 1.389 . S
C639 H618 0.950 . S
C639 C638 1.373 . S
C639 C655 1.377 . S
C640 C638 1.389 . S
C640 C641 1.524 . S
C640 C654 1.377 . S
C641 C640 1.524 . S
C641 C642 1.397 . S
C641 C646 1.363 . S
C642 H619 0.950 . S
C642 C641 1.397 . S
C642 C643 1.334 . S
C643 H620 0.950 . S
C643 C642 1.334 . S
C643 C644 1.287 . S
C644 C643 1.287 . S
C644 C645 1.524 . S
C644 H663 0.913 . S
C645 H621 0.950 . S
C645 C644 1.524 . S
C645 C646 1.415 . S
C646 H622 0.950 . S
C646 C641 1.363 . S
C646 C645 1.415 . S
C647 H623 0.951 . S
C647 C648 1.366 . S
C647 C649 1.388 . S
C648 C647 1.366 . S
C648 C652 1.385 . S
C649 H624 0.951 . S
C649 C647 1.388 . S
C649 C650 1.366 . S
C650 C649 1.366 . S
C650 C651 1.414 . S
C650 C653 1.499 . S
C651 H625 0.950 . S
C651 C650 1.414 . S
C651 C652 1.374 . S
C652 H626 0.950 . S
C652 C648 1.385 . S
C652 C651 1.374 . S
C653 C650 1.499 . S
C653 C654 1.373 . S
C653 C655 1.389 . S
C654 H627 0.950 . S
C654 C640 1.377 . S
C654 C653 1.373 . S
C655 C639 1.377 . S
C655 C653 1.389 . S
C655 C656 1.524 . S
C656 C655 1.524 . S
C656 C657 1.397 . S
C656 C661 1.363 . S
C657 H628 0.950 . S
C657 C656 1.397 . S
C657 C658 1.334 . S
C658 H629 0.950 . S
C658 C657 1.334 . S
C658 C659 1.287 . S
C659 C658 1.287 . S
C659 C660 1.524 . S
C659 H662 0.999 . S
C660 H630 0.950 . S
C660 C659 1.524 . S
C660 C661 1.415 . S
C661 H631 0.950 . S
C661 C656 1.363 . S
C661 C660 1.415 . S
H662 C659 0.999 . S
H663 C644 0.913 . S
H664 C682 0.951 . S
H665 C684 0.951 . S
H666 C686 0.950 . S
H667 C687 0.950 . S
H668 C689 0.950 . S
H669 C692 0.950 . S
H670 C693 0.950 . S
H671 C695 0.950 . S
H672 C696 0.950 . S
H673 C697 0.951 . S
H674 C699 0.951 . S
H675 C701 0.950 . S
H676 C702 0.950 . S
H677 C704 0.950 . S
H678 C707 0.950 . S
H679 C708 0.950 . S
H680 C710 0.950 . S
H681 C711 0.950 . S
C682 H664 0.951 . S
C682 C683 1.366 . S
C682 C684 1.388 . S
C683 C682 1.366 . S
C683 C687 1.385 . S
C684 H665 0.951 . S
C684 C682 1.388 . S
C684 C685 1.366 . S
C685 C684 1.366 . S
C685 C686 1.414 . S
C685 C688 1.499 . S
C686 H666 0.950 . S
C686 C685 1.414 . S
C686 C687 1.374 . S
C687 H667 0.950 . S
C687 C683 1.385 . S
C687 C686 1.374 . S
C688 C685 1.499 . S
C688 C689 1.373 . S
C688 C690 1.389 . S
C689 H668 0.950 . S
C689 C688 1.373 . S
C689 C705 1.377 . S
C690 C688 1.389 . S
C690 C691 1.524 . S
C690 C704 1.377 . S
C691 C690 1.524 . S
C691 C692 1.397 . S
C691 C696 1.363 . S
C692 H669 0.950 . S
C692 C691 1.397 . S
C692 C693 1.334 . S
C693 H670 0.950 . S
C693 C692 1.334 . S
C693 C694 1.287 . S
C694 C693 1.287 . S
C694 C695 1.524 . S
C694 H713 0.913 . S
C695 H671 0.950 . S
C695 C694 1.524 . S
C695 C696 1.415 . S
C696 H672 0.950 . S
C696 C691 1.363 . S
C696 C695 1.415 . S
C697 H673 0.951 . S
C697 C698 1.366 . S
C697 C699 1.388 . S
C698 C697 1.366 . S
C698 C702 1.385 . S
C699 H674 0.951 . S
C699 C697 1.388 . S
C699 C700 1.366 . S
C700 C699 1.366 . S
C700 C701 1.414 . S
C700 C703 1.499 . S
C701 H675 0.950 . S
C701 C700 1.414 . S
C701 C702 1.374 . S
C702 H676 0.950 . S
C702 C698 1.385 . S
C702 C701 1.374 . S
C703 C700 1.499 . S
C703 C704 1.373 . S
C703 C705 1.389 . S
C704 H677 0.950 . S
C704 C690 1.377 . S
C704 C703 1.373 . S
C705 C689 1.377 . S
C705 C703 1.389 . S
C705 C706 1.524 . S
C706 C705 1.524 . S
C706 C707 1.397 . S
C706 C711 1.363 . S
C707 H678 0.950 . S
C707 C706 1.397 . S
C707 C708 1.334 . S
C708 H679 0.950 . S
C708 C707 1.334 . S
C708 C709 1.287 . S
C709 C708 1.287 . S
C709 C710 1.524 . S
C709 H712 0.999 . S
C710 H680 0.950 . S
C710 C709 1.524 . S
C710 C711 1.415 . S
C711 H681 0.950 . S
C711 C706 1.363 . S
C711 C710 1.415 . S
H712 C709 0.999 . S
H713 C694 0.913 . S
H714 C732 0.951 . S
H715 C734 0.951 . S
H716 C736 0.950 . S
H717 C737 0.950 . S
H718 C739 0.950 . S
H719 C742 0.950 . S
H720 C743 0.950 . S
H721 C745 0.950 . S
H722 C746 0.950 . S
H723 C747 0.951 . S
H724 C749 0.951 . S
H725 C751 0.950 . S
H726 C752 0.950 . S
H727 C754 0.950 . S
H728 C757 0.950 . S
H729 C758 0.950 . S
H730 C760 0.950 . S
H731 C761 0.950 . S
C732 H714 0.951 . S
C732 C733 1.366 . S
C732 C734 1.388 . S
C733 C732 1.366 . S
C733 C737 1.385 . S
C734 H715 0.951 . S
C734 C732 1.388 . S
C734 C735 1.366 . S
C735 C734 1.366 . S
C735 C736 1.414 . S
C735 C738 1.499 . S
C736 H716 0.950 . S
C736 C735 1.414 . S
C736 C737 1.374 . S
C737 H717 0.950 . S
C737 C733 1.385 . S
C737 C736 1.374 . S
C738 C735 1.499 . S
C738 C739 1.373 . S
C738 C740 1.389 . S
C739 H718 0.950 . S
C739 C738 1.373 . S
C739 C755 1.377 . S
C740 C738 1.389 . S
C740 C741 1.524 . S
C740 C754 1.377 . S
C741 C740 1.524 . S
C741 C742 1.397 . S
C741 C746 1.363 . S
C742 H719 0.950 . S
C742 C741 1.397 . S
C742 C743 1.334 . S
C743 H720 0.950 . S
C743 C742 1.334 . S
C743 C744 1.287 . S
C744 C743 1.287 . S
C744 C745 1.524 . S
C744 H763 0.913 . S
C745 H721 0.950 . S
C745 C744 1.524 . S
C745 C746 1.415 . S
C746 H722 0.950 . S
C746 C741 1.363 . S
C746 C745 1.415 . S
C747 H723 0.951 . S
C747 C748 1.366 . S
C747 C749 1.388 . S
C748 C747 1.366 . S
C748 C752 1.385 . S
C749 H724 0.951 . S
C749 C747 1.388 . S
C749 C750 1.366 . S
C750 C749 1.366 . S
C750 C751 1.414 . S
C750 C753 1.499 . S
C751 H725 0.950 . S
C751 C750 1.414 . S
C751 C752 1.374 . S
C752 H726 0.950 . S
C752 C748 1.385 . S
C752 C751 1.374 . S
C753 C750 1.499 . S
C753 C754 1.373 . S
C753 C755 1.389 . S
C754 H727 0.950 . S
C754 C740 1.377 . S
C754 C753 1.373 . S
C755 C739 1.377 . S
C755 C753 1.389 . S
C755 C756 1.524 . S
C756 C755 1.524 . S
C756 C757 1.397 . S
C756 C761 1.363 . S
C757 H728 0.950 . S
C757 C756 1.397 . S
C757 C758 1.334 . S
C758 H729 0.950 . S
C758 C757 1.334 . S
C758 C759 1.287 . S
C759 C758 1.287 . S
C759 C760 1.524 . S
C759 H762 0.999 . S
C760 H730 0.950 . S
C760 C759 1.524 . S
C760 C761 1.415 . S
C761 H731 0.950 . S
C761 C756 1.363 . S
C761 C760 1.415 . S
H762 C759 0.999 . S
H763 C744 0.913 . S
H764 C782 0.951 . S
H765 C784 0.951 . S
H766 C786 0.950 . S
H767 C787 0.950 . S
H768 C789 0.950 . S
H769 C792 0.950 . S
H770 C793 0.950 . S
H771 C795 0.950 . S
H772 C796 0.950 . S
H773 C797 0.951 . S
H774 C799 0.951 . S
H775 C801 0.950 . S
H776 C802 0.950 . S
H777 C804 0.950 . S
H778 C807 0.950 . S
H779 C808 0.950 . S
H780 C810 0.950 . S
H781 C811 0.950 . S
C782 H764 0.951 . S
C782 C783 1.366 . S
C782 C784 1.388 . S
C783 C782 1.366 . S
C783 C787 1.385 . S
C784 H765 0.951 . S
C784 C782 1.388 . S
C784 C785 1.366 . S
C785 C784 1.366 . S
C785 C786 1.414 . S
C785 C788 1.499 . S
C786 H766 0.950 . S
C786 C785 1.414 . S
C786 C787 1.374 . S
C787 H767 0.950 . S
C787 C783 1.385 . S
C787 C786 1.374 . S
C788 C785 1.499 . S
C788 C789 1.373 . S
C788 C790 1.389 . S
C789 H768 0.950 . S
C789 C788 1.373 . S
C789 C805 1.377 . S
C790 C788 1.389 . S
C790 C791 1.524 . S
C790 C804 1.377 . S
C791 C790 1.524 . S
C791 C792 1.397 . S
C791 C796 1.363 . S
C792 H769 0.950 . S
C792 C791 1.397 . S
C792 C793 1.334 . S
C793 H770 0.950 . S
C793 C792 1.334 . S
C793 C794 1.287 . S
C794 C793 1.287 . S
C794 C795 1.524 . S
C794 H813 0.913 . S
C795 H771 0.950 . S
C795 C794 1.524 . S
C795 C796 1.415 . S
C796 H772 0.950 . S
C796 C791 1.363 . S
C796 C795 1.415 . S
C797 H773 0.951 . S
C797 C798 1.366 . S
C797 C799 1.388 1_545 S
C798 C797 1.366 . S
C798 C802 1.385 . S
C799 H774 0.951 . S
C799 C797 1.388 1_565 S
C799 C800 1.366 . S
C800 C799 1.366 . S
C800 C801 1.414 1_565 S
C800 C803 1.499 . S
C801 H775 0.950 . S
C801 C800 1.414 1_545 S
C801 C802 1.374 . S
C802 H776 0.950 . S
C802 C798 1.385 . S
C802 C801 1.374 . S
C803 C800 1.499 . S
C803 C804 1.373 . S
C803 C805 1.389 . S
C804 H777 0.950 . S
C804 C790 1.377 . S
C804 C803 1.373 . S
C805 C789 1.377 . S
C805 C803 1.389 . S
C805 C806 1.524 . S
C806 C805 1.524 . S
C806 C807 1.397 . S
C806 C811 1.363 . S
C807 H778 0.950 . S
C807 C806 1.397 . S
C807 C808 1.334 . S
C808 H779 0.950 . S
C808 C807 1.334 . S
C808 C809 1.287 . S
C809 C808 1.287 . S
C809 C810 1.524 . S
C809 H812 0.999 . S
C810 H780 0.950 . S
C810 C809 1.524 . S
C810 C811 1.415 . S
C811 H781 0.950 . S
C811 C806 1.363 . S
C811 C810 1.415 . S
H812 C809 0.999 . S
H813 C794 0.913 . S
H814 C832 0.951 . S
H815 C834 0.951 . S
H816 C836 0.950 . S
H817 C837 0.950 . S
H818 C839 0.950 . S
H819 C842 0.950 . S
H820 C843 0.950 . S
H821 C845 0.950 . S
H822 C846 0.950 . S
H823 C847 0.951 . S
H824 C849 0.951 . S
H825 C851 0.950 . S
H826 C852 0.950 . S
H827 C854 0.950 . S
H828 C857 0.950 . S
H829 C858 0.950 . S
H830 C860 0.950 . S
H831 C861 0.950 . S
C832 H814 0.951 . S
C832 C833 1.366 . S
C832 C834 1.388 . S
C833 C832 1.366 . S
C833 C837 1.385 . S
C834 H815 0.951 . S
C834 C832 1.388 . S
C834 C835 1.366 . S
C835 C834 1.366 . S
C835 C836 1.414 . S
C835 C838 1.499 . S
C836 H816 0.950 . S
C836 C835 1.414 . S
C836 C837 1.374 . S
C837 H817 0.950 . S
C837 C833 1.385 . S
C837 C836 1.374 . S
C838 C835 1.499 . S
C838 C839 1.373 . S
C838 C840 1.389 . S
C839 H818 0.950 . S
C839 C838 1.373 . S
C839 C855 1.377 . S
C840 C838 1.389 . S
C840 C841 1.524 . S
C840 C854 1.377 . S
C841 C840 1.524 . S
C841 C842 1.397 . S
C841 C846 1.363 . S
C842 H819 0.950 . S
C842 C841 1.397 . S
C842 C843 1.334 . S
C843 H820 0.950 . S
C843 C842 1.334 . S
C843 C844 1.287 . S
C844 C843 1.287 . S
C844 C845 1.524 . S
C844 H863 0.913 . S
C845 H821 0.950 . S
C845 C844 1.524 . S
C845 C846 1.415 . S
C846 H822 0.950 . S
C846 C841 1.363 . S
C846 C845 1.415 . S
C847 H823 0.951 . S
C847 C848 1.366 . S
C847 C849 1.388 . S
C848 C847 1.366 . S
C848 C852 1.385 . S
C849 H824 0.951 . S
C849 C847 1.388 . S
C849 C850 1.366 . S
C850 C849 1.366 . S
C850 C851 1.414 . S
C850 C853 1.499 . S
C851 H825 0.950 . S
C851 C850 1.414 . S
C851 C852 1.374 . S
C852 H826 0.950 . S
C852 C848 1.385 . S
C852 C851 1.374 . S
C853 C850 1.499 . S
C853 C854 1.373 . S
C853 C855 1.389 . S
C854 H827 0.950 . S
C854 C840 1.377 . S
C854 C853 1.373 . S
C855 C839 1.377 . S
C855 C853 1.389 . S
C855 C856 1.524 . S
C856 C855 1.524 . S
C856 C857 1.397 . S
C856 C861 1.363 . S
C857 H828 0.950 . S
C857 C856 1.397 . S
C857 C858 1.334 . S
C858 H829 0.950 . S
C858 C857 1.334 . S
C858 C859 1.287 . S
C859 C858 1.287 . S
C859 C860 1.524 . S
C859 H862 0.999 . S
C860 H830 0.950 . S
C860 C859 1.524 . S
C860 C861 1.415 . S
C861 H831 0.950 . S
C861 C856 1.363 . S
C861 C860 1.415 . S
H862 C859 0.999 . S
H863 C844 0.913 . S
H864 C882 0.951 . S
H865 C884 0.951 . S
H866 C886 0.950 . S
H867 C887 0.950 . S
H868 C889 0.950 . S
H869 C892 0.950 . S
H870 C893 0.950 . S
H871 C895 0.950 . S
H872 C896 0.950 . S
H873 C897 0.951 . S
H874 C899 0.951 . S
H875 C901 0.950 . S
H876 C902 0.950 . S
H877 C904 0.950 . S
H878 C907 0.950 . S
H879 C908 0.950 . S
H880 C910 0.950 . S
H881 C911 0.950 . S
C882 H864 0.951 . S
C882 C883 1.366 . S
C882 C884 1.388 . S
C883 C882 1.366 . S
C883 C887 1.385 . S
C884 H865 0.951 . S
C884 C882 1.388 . S
C884 C885 1.366 . S
C885 C884 1.366 . S
C885 C886 1.414 . S
C885 C888 1.499 . S
C886 H866 0.950 . S
C886 C885 1.414 . S
C886 C887 1.374 . S
C887 H867 0.950 . S
C887 C883 1.385 . S
C887 C886 1.374 . S
C888 C885 1.499 . S
C888 C889 1.373 . S
C888 C890 1.389 . S
C889 H868 0.950 . S
C889 C888 1.373 . S
C889 C905 1.377 . S
C890 C888 1.389 . S
C890 C891 1.524 . S
C890 C904 1.377 . S
C891 C890 1.524 . S
C891 C892 1.397 . S
C891 C896 1.363 . S
C892 H869 0.950 . S
C892 C891 1.397 . S
C892 C893 1.334 . S
C893 H870 0.950 . S
C893 C892 1.334 . S
C893 C894 1.287 . S
C894 C893 1.287 . S
C894 C895 1.524 . S
C894 H913 0.913 . S
C895 H871 0.950 . S
C895 C894 1.524 . S
C895 C896 1.415 . S
C896 H872 0.950 . S
C896 C891 1.363 . S
C896 C895 1.415 . S
C897 H873 0.951 . S
C897 C898 1.366 . S
C897 C899 1.388 . S
C898 C897 1.366 . S
C898 C902 1.385 . S
C899 H874 0.951 . S
C899 C897 1.388 . S
C899 C900 1.366 . S
C900 C899 1.366 . S
C900 C901 1.414 . S
C900 C903 1.499 . S
C901 H875 0.950 . S
C901 C900 1.414 . S
C901 C902 1.374 . S
C902 H876 0.950 . S
C902 C898 1.385 . S
C902 C901 1.374 . S
C903 C900 1.499 . S
C903 C904 1.373 . S
C903 C905 1.389 . S
C904 H877 0.950 . S
C904 C890 1.377 . S
C904 C903 1.373 . S
C905 C889 1.377 . S
C905 C903 1.389 . S
C905 C906 1.524 . S
C906 C905 1.524 . S
C906 C907 1.397 . S
C906 C911 1.363 . S
C907 H878 0.950 . S
C907 C906 1.397 . S
C907 C908 1.334 . S
C908 H879 0.950 . S
C908 C907 1.334 . S
C908 C909 1.287 . S
C909 C908 1.287 . S
C909 C910 1.524 . S
C909 H912 0.999 . S
C910 H880 0.950 . S
C910 C909 1.524 . S
C910 C911 1.415 . S
C911 H881 0.950 . S
C911 C906 1.363 . S
C911 C910 1.415 . S
H912 C909 0.999 . S
H913 C894 0.913 . S
H914 C932 0.951 . S
H915 C934 0.951 . S
H916 C936 0.950 . S
H917 C937 0.950 . S
H918 C939 0.950 . S
H919 C942 0.950 . S
H920 C943 0.950 . S
H921 C945 0.950 . S
H922 C946 0.950 . S
H923 C947 0.951 . S
H924 C949 0.951 . S
H925 C951 0.950 . S
H926 C952 0.950 . S
H927 C954 0.950 . S
H928 C957 0.950 . S
H929 C958 0.950 . S
H930 C960 0.950 . S
H931 C961 0.950 . S
C932 H914 0.951 . S
C932 C933 1.366 . S
C932 C934 1.388 . S
C933 C932 1.366 . S
C933 C937 1.385 . S
C934 H915 0.951 . S
C934 C932 1.388 . S
C934 C935 1.366 . S
C935 C934 1.366 . S
C935 C936 1.414 . S
C935 C938 1.499 . S
C936 H916 0.950 . S
C936 C935 1.414 . S
C936 C937 1.374 . S
C937 H917 0.950 . S
C937 C933 1.385 . S
C937 C936 1.374 . S
C938 C935 1.499 . S
C938 C939 1.373 . S
C938 C940 1.389 . S
C939 H918 0.950 . S
C939 C938 1.373 . S
C939 C955 1.377 . S
C940 C938 1.389 . S
C940 C941 1.524 . S
C940 C954 1.377 . S
C941 C940 1.524 . S
C941 C942 1.397 . S
C941 C946 1.363 . S
C942 H919 0.950 . S
C942 C941 1.397 . S
C942 C943 1.334 . S
C943 H920 0.950 . S
C943 C942 1.334 . S
C943 C944 1.287 . S
C944 C943 1.287 . S
C944 C945 1.524 . S
C944 H963 0.913 . S
C945 H921 0.950 . S
C945 C944 1.524 . S
C945 C946 1.415 . S
C946 H922 0.950 . S
C946 C941 1.363 . S
C946 C945 1.415 . S
C947 H923 0.951 . S
C947 C948 1.366 . S
C947 C949 1.388 . S
C948 C947 1.366 . S
C948 C952 1.385 . S
C949 H924 0.951 . S
C949 C947 1.388 . S
C949 C950 1.366 . S
C950 C949 1.366 . S
C950 C951 1.414 . S
C950 C953 1.499 . S
C951 H925 0.950 . S
C951 C950 1.414 . S
C951 C952 1.374 . S
C952 H926 0.950 . S
C952 C948 1.385 . S
C952 C951 1.374 . S
C953 C950 1.499 . S
C953 C954 1.373 . S
C953 C955 1.389 . S
C954 H927 0.950 . S
C954 C940 1.377 . S
C954 C953 1.373 . S
C955 C939 1.377 . S
C955 C953 1.389 . S
C955 C956 1.524 . S
C956 C955 1.524 . S
C956 C957 1.397 . S
C956 C961 1.363 . S
C957 H928 0.950 . S
C957 C956 1.397 . S
C957 C958 1.334 . S
C958 H929 0.950 . S
C958 C957 1.334 . S
C958 C959 1.287 . S
C959 C958 1.287 . S
C959 C960 1.524 . S
C959 H962 0.999 . S
C960 H930 0.950 . S
C960 C959 1.524 . S
C960 C961 1.415 . S
C961 H931 0.950 . S
C961 C956 1.363 . S
C961 C960 1.415 . S
H962 C959 0.999 . S
H963 C944 0.913 . S
H964 C982 0.951 . S
H965 C984 0.951 . S
H966 C986 0.950 . S
H967 C987 0.950 . S
H968 C989 0.950 . S
H969 C992 0.950 . S
H970 C993 0.950 . S
H971 C995 0.950 . S
H972 C996 0.950 . S
H973 C997 0.951 . S
H974 C999 0.951 . S
H975 C1001 0.950 . S
H976 C1002 0.950 . S
H977 C1004 0.950 . S
H978 C1007 0.950 . S
H979 C1008 0.950 . S
H980 C1010 0.950 . S
H981 C1011 0.950 . S
C982 H964 0.951 . S
C982 C983 1.366 . S
C982 C984 1.388 . S
C983 C982 1.366 . S
C983 C987 1.385 . S
C984 H965 0.951 . S
C984 C982 1.388 . S
C984 C985 1.366 . S
C985 C984 1.366 . S
C985 C986 1.414 . S
C985 C988 1.499 . S
C986 H966 0.950 . S
C986 C985 1.414 . S
C986 C987 1.374 . S
C987 H967 0.950 . S
C987 C983 1.385 . S
C987 C986 1.374 . S
C988 C985 1.499 . S
C988 C989 1.373 . S
C988 C990 1.389 . S
C989 H968 0.950 . S
C989 C988 1.373 . S
C989 C1005 1.377 . S
C990 C988 1.389 . S
C990 C991 1.524 . S
C990 C1004 1.377 . S
C991 C990 1.524 . S
C991 C992 1.397 . S
C991 C996 1.363 . S
C992 H969 0.950 . S
C992 C991 1.397 . S
C992 C993 1.334 . S
C993 H970 0.950 . S
C993 C992 1.334 . S
C993 C994 1.287 . S
C994 C993 1.287 . S
C994 C995 1.524 . S
C994 H1013 0.913 . S
C995 H971 0.950 . S
C995 C994 1.524 . S
C995 C996 1.415 . S
C996 H972 0.950 . S
C996 C991 1.363 . S
C996 C995 1.415 . S
C997 H973 0.951 . S
C997 C998 1.366 . S
C997 C999 1.388 . S
C998 C997 1.366 . S
C998 C1002 1.385 . S
C999 H974 0.951 . S
C999 C997 1.388 . S
C999 C1000 1.366 . S
C1000 C999 1.366 . S
C1000 C1001 1.414 . S
C1000 C1003 1.499 . S
C1001 H975 0.950 . S
C1001 C1000 1.414 . S
C1001 C1002 1.374 . S
C1002 H976 0.950 . S
C1002 C998 1.385 . S
C1002 C1001 1.374 . S
C1003 C1000 1.499 . S
C1003 C1004 1.373 . S
C1003 C1005 1.389 . S
C1004 H977 0.950 . S
C1004 C990 1.377 . S
C1004 C1003 1.373 . S
C1005 C989 1.377 . S
C1005 C1003 1.389 . S
C1005 C1006 1.524 . S
C1006 C1005 1.524 . S
C1006 C1007 1.397 . S
C1006 C1011 1.363 . S
C1007 H978 0.950 . S
C1007 C1006 1.397 . S
C1007 C1008 1.334 . S
C1008 H979 0.950 . S
C1008 C1007 1.334 . S
C1008 C1009 1.287 . S
C1009 C1008 1.287 . S
C1009 C1010 1.524 . S
C1009 H1012 0.999 . S
C1010 H980 0.950 . S
C1010 C1009 1.524 . S
C1010 C1011 1.415 . S
C1011 H981 0.950 . S
C1011 C1006 1.363 . S
C1011 C1010 1.415 . S
H1012 C1009 0.999 . S
H1013 C994 0.913 . S
H1014 C1032 0.951 . S
H1015 C1034 0.951 . S
H1016 C1036 0.950 . S
H1017 C1037 0.950 . S
H1018 C1039 0.950 . S
H1019 C1042 0.950 . S
H1020 C1043 0.950 . S
H1021 C1045 0.950 . S
H1022 C1046 0.950 . S
H1023 C1047 0.951 . S
H1024 C1049 0.951 . S
H1025 C1051 0.950 . S
H1026 C1052 0.950 . S
H1027 C1054 0.950 . S
H1028 C1057 0.950 . S
H1029 C1058 0.950 . S
H1030 C1060 0.950 . S
H1031 C1061 0.950 . S
C1032 H1014 0.951 . S
C1032 C1033 1.366 . S
C1032 C1034 1.388 . S
C1033 C1032 1.366 . S
C1033 C1037 1.385 . S
C1034 H1015 0.951 . S
C1034 C1032 1.388 . S
C1034 C1035 1.366 . S
C1035 C1034 1.366 . S
C1035 C1036 1.414 . S
C1035 C1038 1.499 . S
C1036 H1016 0.950 . S
C1036 C1035 1.414 . S
C1036 C1037 1.374 . S
C1037 H1017 0.950 . S
C1037 C1033 1.385 . S
C1037 C1036 1.374 . S
C1038 C1035 1.499 . S
C1038 C1039 1.373 . S
C1038 C1040 1.389 . S
C1039 H1018 0.950 . S
C1039 C1038 1.373 . S
C1039 C1055 1.377 . S
C1040 C1038 1.389 . S
C1040 C1041 1.524 . S
C1040 C1054 1.377 . S
C1041 C1040 1.524 . S
C1041 C1042 1.397 . S
C1041 C1046 1.363 . S
C1042 H1019 0.950 . S
C1042 C1041 1.397 . S
C1042 C1043 1.334 . S
C1043 H1020 0.950 . S
C1043 C1042 1.334 . S
C1043 C1044 1.287 . S
C1044 C1043 1.287 . S
C1044 C1045 1.524 . S
C1044 H1063 0.913 . S
C1045 H1021 0.950 . S
C1045 C1044 1.524 . S
C1045 C1046 1.415 . S
C1046 H1022 0.950 . S
C1046 C1041 1.363 . S
C1046 C1045 1.415 . S
C1047 H1023 0.951 . S
C1047 C1048 1.366 . S
C1047 C1049 1.388 . S
C1048 C1047 1.366 . S
C1048 C1052 1.385 . S
C1049 H1024 0.951 . S
C1049 C1047 1.388 . S
C1049 C1050 1.366 . S
C1050 C1049 1.366 . S
C1050 C1051 1.414 . S
C1050 C1053 1.499 . S
C1051 H1025 0.950 . S
C1051 C1050 1.414 . S
C1051 C1052 1.374 . S
C1052 H1026 0.950 . S
C1052 C1048 1.385 . S
C1052 C1051 1.374 . S
C1053 C1050 1.499 . S
C1053 C1054 1.373 . S
C1053 C1055 1.389 . S
C1054 H1027 0.950 . S
C1054 C1040 1.377 . S
C1054 C1053 1.373 . S
C1055 C1039 1.377 . S
C1055 C1053 1.389 . S
C1055 C1056 1.524 . S
C1056 C1055 1.524 . S
C1056 C1057 1.397 . S
C1056 C1061 1.363 . S
C1057 H1028 0.950 . S
C1057 C1056 1.397 . S
C1057 C1058 1.334 . S
C1058 H1029 0.950 . S
C1058 C1057 1.334 . S
C1058 C1059 1.287 . S
C1059 C1058 1.287 . S
C1059 C1060 1.524 . S
C1059 H1062 0.999 . S
C1060 H1030 0.950 . S
C1060 C1059 1.524 . S
C1060 C1061 1.415 . S
C1061 H1031 0.950 . S
C1061 C1056 1.363 . S
C1061 C1060 1.415 . S
H1062 C1059 0.999 . S
H1063 C1044 0.913 . S
H1064 C1082 0.951 . S
H1065 C1084 0.951 . S
H1066 C1086 0.950 . S
H1067 C1087 0.950 . S
H1068 C1089 0.950 . S
H1069 C1092 0.950 . S
H1070 C1093 0.950 . S
H1071 C1095 0.950 . S
H1072 C1096 0.950 . S
H1073 C1097 0.951 . S
H1074 C1099 0.951 . S
H1075 C1101 0.950 . S
H1076 C1102 0.950 . S
H1077 C1104 0.950 . S
H1078 C1107 0.950 . S
H1079 C1108 0.950 . S
H1080 C1110 0.950 . S
H1081 C1111 0.950 . S
C1082 H1064 0.951 . S
C1082 C1083 1.366 . S
C1082 C1084 1.388 . S
C1083 C1082 1.366 . S
C1083 C1087 1.385 . S
C1084 H1065 0.951 . S
C1084 C1082 1.388 . S
C1084 C1085 1.366 . S
C1085 C1084 1.366 . S
C1085 C1086 1.414 . S
C1085 C1088 1.499 . S
C1086 H1066 0.950 . S
C1086 C1085 1.414 . S
C1086 C1087 1.374 . S
C1087 H1067 0.950 . S
C1087 C1083 1.385 . S
C1087 C1086 1.374 . S
C1088 C1085 1.499 . S
C1088 C1089 1.373 . S
C1088 C1090 1.389 . S
C1089 H1068 0.950 . S
C1089 C1088 1.373 . S
C1089 C1105 1.377 . S
C1090 C1088 1.389 . S
C1090 C1091 1.524 . S
C1090 C1104 1.377 . S
C1091 C1090 1.524 . S
C1091 C1092 1.397 . S
C1091 C1096 1.363 . S
C1092 H1069 0.950 . S
C1092 C1091 1.397 . S
C1092 C1093 1.334 . S
C1093 H1070 0.950 . S
C1093 C1092 1.334 . S
C1093 C1094 1.287 . S
C1094 C1093 1.287 . S
C1094 C1095 1.524 . S
C1094 H1113 0.913 . S
C1095 H1071 0.950 . S
C1095 C1094 1.524 . S
C1095 C1096 1.415 . S
C1096 H1072 0.950 . S
C1096 C1091 1.363 . S
C1096 C1095 1.415 . S
C1097 H1073 0.951 . S
C1097 C1098 1.366 . S
C1097 C1099 1.388 . S
C1098 C1097 1.366 . S
C1098 C1102 1.385 . S
C1099 H1074 0.951 . S
C1099 C1097 1.388 . S
C1099 C1100 1.366 . S
C1100 C1099 1.366 . S
C1100 C1101 1.414 . S
C1100 C1103 1.499 . S
C1101 H1075 0.950 . S
C1101 C1100 1.414 . S
C1101 C1102 1.374 . S
C1102 H1076 0.950 . S
C1102 C1098 1.385 . S
C1102 C1101 1.374 . S
C1103 C1100 1.499 . S
C1103 C1104 1.373 . S
C1103 C1105 1.389 . S
C1104 H1077 0.950 . S
C1104 C1090 1.377 . S
C1104 C1103 1.373 . S
C1105 C1089 1.377 . S
C1105 C1103 1.389 . S
C1105 C1106 1.524 . S
C1106 C1105 1.524 . S
C1106 C1107 1.397 . S
C1106 C1111 1.363 . S
C1107 H1078 0.950 . S
C1107 C1106 1.397 . S
C1107 C1108 1.334 . S
C1108 H1079 0.950 . S
C1108 C1107 1.334 . S
C1108 C1109 1.287 . S
C1109 C1108 1.287 . S
C1109 C1110 1.524 . S
C1109 H1112 0.999 . S
C1110 H1080 0.950 . S
C1110 C1109 1.524 . S
C1110 C1111 1.415 . S
C1111 H1081 0.950 . S
C1111 C1106 1.363 . S
C1111 C1110 1.415 . S
H1112 C1109 0.999 . S
H1113 C1094 0.913 . S
H1114 C1132 0.951 . S
H1115 C1134 0.951 . S
H1116 C1136 0.950 . S
H1117 C1137 0.950 . S
H1118 C1139 0.950 . S
H1119 C1142 0.950 . S
H1120 C1143 0.950 . S
H1121 C1145 0.950 . S
H1122 C1146 0.950 . S
H1123 C1147 0.951 . S
H1124 C1149 0.951 . S
H1125 C1151 0.950 . S
H1126 C1152 0.950 . S
H1127 C1154 0.950 . S
H1128 C1157 0.950 . S
H1129 C1158 0.950 . S
H1130 C1160 0.950 . S
H1131 C1161 0.950 . S
C1132 H1114 0.951 . S
C1132 C1133 1.366 . S
C1132 C1134 1.388 . S
C1133 C1132 1.366 . S
C1133 C1137 1.385 . S
C1134 H1115 0.951 . S
C1134 C1132 1.388 . S
C1134 C1135 1.366 . S
C1135 C1134 1.366 . S
C1135 C1136 1.414 . S
C1135 C1138 1.499 . S
C1136 H1116 0.950 . S
C1136 C1135 1.414 . S
C1136 C1137 1.374 . S
C1137 H1117 0.950 . S
C1137 C1133 1.385 . S
C1137 C1136 1.374 . S
C1138 C1135 1.499 . S
C1138 C1139 1.373 . S
C1138 C1140 1.389 . S
C1139 H1118 0.950 . S
C1139 C1138 1.373 . S
C1139 C1155 1.377 . S
C1140 C1138 1.389 . S
C1140 C1141 1.524 . S
C1140 C1154 1.377 . S
C1141 C1140 1.524 . S
C1141 C1142 1.397 . S
C1141 C1146 1.363 . S
C1142 H1119 0.950 . S
C1142 C1141 1.397 . S
C1142 C1143 1.334 . S
C1143 H1120 0.950 . S
C1143 C1142 1.334 . S
C1143 C1144 1.287 . S
C1144 C1143 1.287 . S
C1144 C1145 1.524 . S
C1144 H1163 0.913 . S
C1145 H1121 0.950 . S
C1145 C1144 1.524 . S
C1145 C1146 1.415 . S
C1146 H1122 0.950 . S
C1146 C1141 1.363 . S
C1146 C1145 1.415 . S
C1147 H1123 0.951 . S
C1147 C1148 1.366 . S
C1147 C1149 1.388 . S
C1148 C1147 1.366 . S
C1148 C1152 1.385 . S
C1149 H1124 0.951 . S
C1149 C1147 1.388 . S
C1149 C1150 1.366 . S
C1150 C1149 1.366 . S
C1150 C1151 1.414 . S
C1150 C1153 1.499 . S
C1151 H1125 0.950 . S
C1151 C1150 1.414 . S
C1151 C1152 1.374 . S
C1152 H1126 0.950 . S
C1152 C1148 1.385 . S
C1152 C1151 1.374 . S
C1153 C1150 1.499 . S
C1153 C1154 1.373 . S
C1153 C1155 1.389 . S
C1154 H1127 0.950 . S
C1154 C1140 1.377 . S
C1154 C1153 1.373 . S
C1155 C1139 1.377 . S
C1155 C1153 1.389 . S
C1155 C1156 1.524 . S
C1156 C1155 1.524 . S
C1156 C1157 1.397 . S
C1156 C1161 1.363 . S
C1157 H1128 0.950 . S
C1157 C1156 1.397 . S
C1157 C1158 1.334 . S
C1158 H1129 0.950 . S
C1158 C1157 1.334 . S
C1158 C1159 1.287 . S
C1159 C1158 1.287 . S
C1159 C1160 1.524 . S
C1159 H1162 0.999 . S
C1160 H1130 0.950 . S
C1160 C1159 1.524 . S
C1160 C1161 1.415 . S
C1161 H1131 0.950 . S
C1161 C1156 1.363 . S
C1161 C1160 1.415 . S
H1162 C1159 0.999 . S
H1163 C1144 0.913 . S
H1164 C1182 0.951 . S
H1165 C1184 0.951 . S
H1166 C1186 0.950 . S
H1167 C1187 0.950 . S
H1168 C1189 0.950 . S
H1169 C1192 0.950 . S
H1170 C1193 0.950 . S
H1171 C1195 0.950 . S
H1172 C1196 0.950 . S
H1173 C1197 0.951 . S
H1174 C1199 0.951 . S
H1175 C1201 0.950 . S
H1176 C1202 0.950 . S
H1177 C1204 0.950 . S
H1178 C1207 0.950 . S
H1179 C1208 0.950 . S
H1180 C1210 0.950 . S
H1181 C1211 0.950 . S
C1182 H1164 0.951 . S
C1182 C1183 1.366 . S
C1182 C1184 1.388 . S
C1183 C1182 1.366 . S
C1183 C1187 1.385 . S
C1184 H1165 0.951 . S
C1184 C1182 1.388 . S
C1184 C1185 1.366 . S
C1185 C1184 1.366 . S
C1185 C1186 1.414 . S
C1185 C1188 1.499 . S
C1186 H1166 0.950 . S
C1186 C1185 1.414 . S
C1186 C1187 1.374 . S
C1187 H1167 0.950 . S
C1187 C1183 1.385 . S
C1187 C1186 1.374 . S
C1188 C1185 1.499 . S
C1188 C1189 1.373 . S
C1188 C1190 1.389 . S
C1189 H1168 0.950 . S
C1189 C1188 1.373 . S
C1189 C1205 1.377 . S
C1190 C1188 1.389 . S
C1190 C1191 1.524 . S
C1190 C1204 1.377 . S
C1191 C1190 1.524 . S
C1191 C1192 1.397 . S
C1191 C1196 1.363 . S
C1192 H1169 0.950 . S
C1192 C1191 1.397 . S
C1192 C1193 1.334 . S
C1193 H1170 0.950 . S
C1193 C1192 1.334 . S
C1193 C1194 1.287 . S
C1194 C1193 1.287 . S
C1194 C1195 1.524 . S
C1194 H1213 0.913 . S
C1195 H1171 0.950 . S
C1195 C1194 1.524 . S
C1195 C1196 1.415 . S
C1196 H1172 0.950 . S
C1196 C1191 1.363 . S
C1196 C1195 1.415 . S
C1197 H1173 0.951 . S
C1197 C1198 1.366 . S
C1197 C1199 1.388 . S
C1198 C1197 1.366 . S
C1198 C1202 1.385 . S
C1199 H1174 0.951 . S
C1199 C1197 1.388 . S
C1199 C1200 1.366 . S
C1200 C1199 1.366 . S
C1200 C1201 1.414 . S
C1200 C1203 1.499 . S
C1201 H1175 0.950 . S
C1201 C1200 1.414 . S
C1201 C1202 1.374 . S
C1202 H1176 0.950 . S
C1202 C1198 1.385 . S
C1202 C1201 1.374 . S
C1203 C1200 1.499 . S
C1203 C1204 1.373 . S
C1203 C1205 1.389 . S
C1204 H1177 0.950 . S
C1204 C1190 1.377 . S
C1204 C1203 1.373 . S
C1205 C1189 1.377 . S
C1205 C1203 1.389 . S
C1205 C1206 1.524 . S
C1206 C1205 1.524 . S
C1206 C1207 1.397 . S
C1206 C1211 1.363 . S
C1207 H1178 0.950 . S
C1207 C1206 1.397 . S
C1207 C1208 1.334 . S
C1208 H1179 0.950 . S
C1208 C1207 1.334 . S
C1208 C1209 1.287 . S
C1209 C1208 1.287 . S
C1209 C1210 1.524 . S
C1209 H1212 0.999 . S
C1210 H1180 0.950 . S
C1210 C1209 1.524 . S
C1210 C1211 1.415 . S
C1211 H1181 0.950 . S
C1211 C1206 1.363 . S
C1211 C1210 1.415 . S
H1212 C1209 0.999 . S
H1213 C1194 0.913 . S
H1214 C1232 0.951 . S
H1215 C1234 0.951 . S
H1216 C1236 0.950 . S
H1217 C1237 0.950 . S
H1218 C1239 0.950 . S
H1219 C1242 0.950 . S
H1220 C1243 0.950 . S
H1221 C1245 0.950 . S
H1222 C1246 0.950 . S
H1223 C1247 0.951 . S
H1224 C1249 0.951 . S
H1225 C1251 0.950 . S
H1226 C1252 0.950 . S
H1227 C1254 0.950 . S
H1228 C1257 0.950 . S
H1229 C1258 0.950 . S
H1230 C1260 0.950 . S
H1231 C1261 0.950 . S
C1232 H1214 0.951 . S
C1232 C1233 1.366 . S
C1232 C1234 1.388 . S
C1233 C1232 1.366 . S
C1233 C1237 1.385 . S
C1234 H1215 0.951 . S
C1234 C1232 1.388 . S
C1234 C1235 1.366 . S
C1235 C1234 1.366 . S
C1235 C1236 1.414 . S
C1235 C1238 1.499 . S
C1236 H1216 0.950 . S
C1236 C1235 1.414 . S
C1236 C1237 1.374 . S
C1237 H1217 0.950 . S
C1237 C1233 1.385 . S
C1237 C1236 1.374 . S
C1238 C1235 1.499 . S
C1238 C1239 1.373 . S
C1238 C1240 1.389 . S
C1239 H1218 0.950 . S
C1239 C1238 1.373 . S
C1239 C1255 1.377 . S
C1240 C1238 1.389 . S
C1240 C1241 1.524 . S
C1240 C1254 1.377 . S
C1241 C1240 1.524 . S
C1241 C1242 1.397 . S
C1241 C1246 1.363 . S
C1242 H1219 0.950 . S
C1242 C1241 1.397 . S
C1242 C1243 1.334 . S
C1243 H1220 0.950 . S
C1243 C1242 1.334 . S
C1243 C1244 1.287 . S
C1244 C1243 1.287 . S
C1244 C1245 1.524 . S
C1244 H1263 0.913 . S
C1245 H1221 0.950 . S
C1245 C1244 1.524 . S
C1245 C1246 1.415 . S
C1246 H1222 0.950 . S
C1246 C1241 1.363 . S
C1246 C1245 1.415 . S
C1247 H1223 0.951 . S
C1247 C1248 1.366 . S
C1247 C1249 1.388 . S
C1248 C1247 1.366 . S
C1248 C1252 1.385 . S
C1249 H1224 0.951 . S
C1249 C1247 1.388 . S
C1249 C1250 1.366 . S
C1250 C1249 1.366 . S
C1250 C1251 1.414 . S
C1250 C1253 1.499 . S
C1251 H1225 0.950 . S
C1251 C1250 1.414 . S
C1251 C1252 1.374 . S
C1252 H1226 0.950 . S
C1252 C1248 1.385 . S
C1252 C1251 1.374 . S
C1253 C1250 1.499 . S
C1253 C1254 1.373 . S
C1253 C1255 1.389 . S
C1254 H1227 0.950 . S
C1254 C1240 1.377 . S
C1254 C1253 1.373 . S
C1255 C1239 1.377 . S
C1255 C1253 1.389 . S
C1255 C1256 1.524 . S
C1256 C1255 1.524 . S
C1256 C1257 1.397 . S
C1256 C1261 1.363 . S
C1257 H1228 0.950 . S
C1257 C1256 1.397 . S
C1257 C1258 1.334 . S
C1258 H1229 0.950 . S
C1258 C1257 1.334 . S
C1258 C1259 1.287 . S
C1259 C1258 1.287 . S
C1259 C1260 1.524 . S
C1259 H1262 0.999 . S
C1260 H1230 0.950 . S
C1260 C1259 1.524 . S
C1260 C1261 1.415 . S
C1261 H1231 0.950 . S
C1261 C1256 1.363 . S
C1261 C1260 1.415 . S
H1262 C1259 0.999 . S
H1263 C1244 0.913 . S
H1264 C1282 0.951 . S
H1265 C1284 0.951 . S
H1266 C1286 0.950 . S
H1267 C1287 0.950 . S
H1268 C1289 0.950 . S
H1269 C1292 0.950 . S
H1270 C1293 0.950 . S
H1271 C1295 0.950 . S
H1272 C1296 0.950 . S
H1273 C1297 0.951 . S
H1274 C1299 0.951 . S
H1275 C1301 0.950 . S
H1276 C1302 0.950 . S
H1277 C1304 0.950 . S
H1278 C1307 0.950 . S
H1279 C1308 0.950 . S
H1280 C1310 0.950 . S
H1281 C1311 0.950 . S
C1282 H1264 0.951 . S
C1282 C1283 1.366 . S
C1282 C1284 1.388 . S
C1283 C1282 1.366 . S
C1283 C1287 1.385 . S
C1284 H1265 0.951 . S
C1284 C1282 1.388 . S
C1284 C1285 1.366 . S
C1285 C1284 1.366 . S
C1285 C1286 1.414 . S
C1285 C1288 1.499 . S
C1286 H1266 0.950 . S
C1286 C1285 1.414 . S
C1286 C1287 1.374 . S
C1287 H1267 0.950 . S
C1287 C1283 1.385 . S
C1287 C1286 1.374 . S
C1288 C1285 1.499 . S
C1288 C1289 1.373 . S
C1288 C1290 1.389 . S
C1289 H1268 0.950 . S
C1289 C1288 1.373 . S
C1289 C1305 1.377 . S
C1290 C1288 1.389 . S
C1290 C1291 1.524 . S
C1290 C1304 1.377 . S
C1291 C1290 1.524 . S
C1291 C1292 1.397 . S
C1291 C1296 1.363 . S
C1292 H1269 0.950 . S
C1292 C1291 1.397 . S
C1292 C1293 1.334 . S
C1293 H1270 0.950 . S
C1293 C1292 1.334 . S
C1293 C1294 1.287 . S
C1294 C1293 1.287 . S
C1294 C1295 1.524 . S
C1294 H1313 0.913 . S
C1295 H1271 0.950 . S
C1295 C1294 1.524 . S
C1295 C1296 1.415 . S
C1296 H1272 0.950 . S
C1296 C1291 1.363 . S
C1296 C1295 1.415 . S
C1297 H1273 0.951 . S
C1297 C1298 1.366 . S
C1297 C1299 1.388 . S
C1298 C1297 1.366 . S
C1298 C1302 1.385 . S
C1299 H1274 0.951 . S
C1299 C1297 1.388 . S
C1299 C1300 1.366 . S
C1300 C1299 1.366 . S
C1300 C1301 1.414 . S
C1300 C1303 1.499 . S
C1301 H1275 0.950 . S
C1301 C1300 1.414 . S
C1301 C1302 1.374 . S
C1302 H1276 0.950 . S
C1302 C1298 1.385 . S
C1302 C1301 1.374 . S
C1303 C1300 1.499 . S
C1303 C1304 1.373 . S
C1303 C1305 1.389 . S
C1304 H1277 0.950 . S
C1304 C1290 1.377 . S
C1304 C1303 1.373 . S
C1305 C1289 1.377 . S
C1305 C1303 1.389 . S
C1305 C1306 1.524 . S
C1306 C1305 1.524 . S
C1306 C1307 1.397 . S
C1306 C1311 1.363 . S
C1307 H1278 0.950 . S
C1307 C1306 1.397 . S
C1307 C1308 1.334 . S
C1308 H1279 0.950 . S
C1308 C1307 1.334 . S
C1308 C1309 1.287 . S
C1309 C1308 1.287 . S
C1309 C1310 1.524 . S
C1309 H1312 0.999 . S
C1310 H1280 0.950 . S
C1310 C1309 1.524 . S
C1310 C1311 1.415 . S
C1311 H1281 0.950 . S
C1311 C1306 1.363 . S
C1311 C1310 1.415 . S
H1312 C1309 0.999 . S
H1313 C1294 0.913 . S
H1314 C1332 0.951 . S
H1315 C1334 0.951 . S
H1316 C1336 0.950 . S
H1317 C1337 0.950 . S
H1318 C1339 0.950 . S
H1319 C1342 0.950 . S
H1320 C1343 0.950 . S
H1321 C1345 0.950 . S
H1322 C1346 0.950 . S
H1323 C1347 0.951 . S
H1324 C1349 0.951 . S
H1325 C1351 0.950 . S
H1326 C1352 0.950 . S
H1327 C1354 0.950 . S
H1328 C1357 0.950 . S
H1329 C1358 0.950 . S
H1330 C1360 0.950 . S
H1331 C1361 0.950 . S
C1332 H1314 0.951 . S
C1332 C1333 1.366 . S
C1332 C1334 1.388 . S
C1333 C1332 1.366 . S
C1333 C1337 1.385 . S
C1334 H1315 0.951 . S
C1334 C1332 1.388 . S
C1334 C1335 1.366 . S
C1335 C1334 1.366 . S
C1335 C1336 1.414 . S
C1335 C1338 1.499 . S
C1336 H1316 0.950 . S
C1336 C1335 1.414 . S
C1336 C1337 1.374 . S
C1337 H1317 0.950 . S
C1337 C1333 1.385 . S
C1337 C1336 1.374 . S
C1338 C1335 1.499 . S
C1338 C1339 1.373 . S
C1338 C1340 1.389 . S
C1339 H1318 0.950 . S
C1339 C1338 1.373 . S
C1339 C1355 1.377 . S
C1340 C1338 1.389 . S
C1340 C1341 1.524 . S
C1340 C1354 1.377 . S
C1341 C1340 1.524 . S
C1341 C1342 1.397 . S
C1341 C1346 1.363 . S
C1342 H1319 0.950 . S
C1342 C1341 1.397 . S
C1342 C1343 1.334 . S
C1343 H1320 0.950 . S
C1343 C1342 1.334 . S
C1343 C1344 1.287 . S
C1344 C1343 1.287 . S
C1344 C1345 1.524 . S
C1344 H1363 0.913 . S
C1345 H1321 0.950 . S
C1345 C1344 1.524 . S
C1345 C1346 1.415 . S
C1346 H1322 0.950 . S
C1346 C1341 1.363 . S
C1346 C1345 1.415 . S
C1347 H1323 0.951 . S
C1347 C1348 1.366 . S
C1347 C1349 1.388 . S
C1348 C1347 1.366 . S
C1348 C1352 1.385 . S
C1349 H1324 0.951 . S
C1349 C1347 1.388 . S
C1349 C1350 1.366 . S
C1350 C1349 1.366 . S
C1350 C1351 1.414 . S
C1350 C1353 1.499 . S
C1351 H1325 0.950 . S
C1351 C1350 1.414 . S
C1351 C1352 1.374 . S
C1352 H1326 0.950 . S
C1352 C1348 1.385 . S
C1352 C1351 1.374 . S
C1353 C1350 1.499 . S
C1353 C1354 1.373 . S
C1353 C1355 1.389 . S
C1354 H1327 0.950 . S
C1354 C1340 1.377 . S
C1354 C1353 1.373 . S
C1355 C1339 1.377 . S
C1355 C1353 1.389 . S
C1355 C1356 1.524 . S
C1356 C1355 1.524 . S
C1356 C1357 1.397 . S
C1356 C1361 1.363 . S
C1357 H1328 0.950 . S
C1357 C1356 1.397 . S
C1357 C1358 1.334 . S
C1358 H1329 0.950 . S
C1358 C1357 1.334 . S
C1358 C1359 1.287 . S
C1359 C1358 1.287 . S
C1359 C1360 1.524 . S
C1359 H1362 0.999 . S
C1360 H1330 0.950 . S
C1360 C1359 1.524 . S
C1360 C1361 1.415 . S
C1361 H1331 0.950 . S
C1361 C1356 1.363 . S
C1361 C1360 1.415 . S
H1362 C1359 0.999 . S
H1363 C1344 0.913 . S
H1364 C1382 0.951 . S
H1365 C1384 0.951 . S
H1366 C1386 0.950 . S
H1367 C1387 0.950 . S
H1368 C1389 0.950 . S
H1369 C1392 0.950 . S
H1370 C1393 0.950 . S
H1371 C1395 0.950 . S
H1372 C1396 0.950 . S
H1373 C1397 0.951 . S
H1374 C1399 0.951 . S
H1375 C1401 0.950 . S
H1376 C1402 0.950 . S
H1377 C1404 0.950 . S
H1378 C1407 0.950 . S
H1379 C1408 0.950 . S
H1380 C1410 0.950 . S
H1381 C1411 0.950 . S
C1382 H1364 0.951 . S
C1382 C1383 1.366 . S
C1382 C1384 1.388 . S
C1383 C1382 1.366 . S
C1383 C1387 1.385 . S
C1384 H1365 0.951 . S
C1384 C1382 1.388 . S
C1384 C1385 1.366 . S
C1385 C1384 1.366 . S
C1385 C1386 1.414 . S
C1385 C1388 1.499 . S
C1386 H1366 0.950 . S
C1386 C1385 1.414 . S
C1386 C1387 1.374 . S
C1387 H1367 0.950 . S
C1387 C1383 1.385 . S
C1387 C1386 1.374 . S
C1388 C1385 1.499 . S
C1388 C1389 1.373 . S
C1388 C1390 1.389 . S
C1389 H1368 0.950 . S
C1389 C1388 1.373 . S
C1389 C1405 1.377 . S
C1390 C1388 1.389 . S
C1390 C1391 1.524 . S
C1390 C1404 1.377 . S
C1391 C1390 1.524 . S
C1391 C1392 1.397 . S
C1391 C1396 1.363 . S
C1392 H1369 0.950 . S
C1392 C1391 1.397 . S
C1392 C1393 1.334 . S
C1393 H1370 0.950 . S
C1393 C1392 1.334 . S
C1393 C1394 1.287 . S
C1394 C1393 1.287 . S
C1394 C1395 1.524 . S
C1394 H1413 0.913 . S
C1395 H1371 0.950 . S
C1395 C1394 1.524 . S
C1395 C1396 1.415 . S
C1396 H1372 0.950 . S
C1396 C1391 1.363 . S
C1396 C1395 1.415 . S
C1397 H1373 0.951 . S
C1397 C1398 1.366 . S
C1397 C1399 1.388 . S
C1398 C1397 1.366 . S
C1398 C1402 1.385 . S
C1399 H1374 0.951 . S
C1399 C1397 1.388 . S
C1399 C1400 1.366 . S
C1400 C1399 1.366 . S
C1400 C1401 1.414 . S
C1400 C1403 1.499 . S
C1401 H1375 0.950 . S
C1401 C1400 1.414 . S
C1401 C1402 1.374 . S
C1402 H1376 0.950 . S
C1402 C1398 1.385 . S
C1402 C1401 1.374 . S
C1403 C1400 1.499 . S
C1403 C1404 1.373 . S
C1403 C1405 1.389 . S
C1404 H1377 0.950 . S
C1404 C1390 1.377 . S
C1404 C1403 1.373 . S
C1405 C1389 1.377 . S
C1405 C1403 1.389 . S
C1405 C1406 1.524 . S
C1406 C1405 1.524 . S
C1406 C1407 1.397 . S
C1406 C1411 1.363 . S
C1407 H1378 0.950 . S
C1407 C1406 1.397 . S
C1407 C1408 1.334 . S
C1408 H1379 0.950 . S
C1408 C1407 1.334 . S
C1408 C1409 1.287 . S
C1409 C1408 1.287 . S
C1409 C1410 1.524 . S
C1409 H1412 0.999 . S
C1410 H1380 0.950 . S
C1410 C1409 1.524 . S
C1410 C1411 1.415 . S
C1411 H1381 0.950 . S
C1411 C1406 1.363 . S
C1411 C1410 1.415 . S
H1412 C1409 0.999 . S
H1413 C1394 0.913 . S
H1414 C1432 0.951 . S
H1415 C1434 0.951 . S
H1416 C1436 0.950 . S
H1417 C1437 0.950 . S
H1418 C1439 0.950 . S
H1419 C1442 0.950 . S
H1420 C1443 0.950 . S
H1421 C1445 0.950 . S
H1422 C1446 0.950 . S
H1423 C1447 0.951 . S
H1424 C1449 0.951 . S
H1425 C1451 0.950 . S
H1426 C1452 0.950 . S
H1427 C1454 0.950 . S
H1428 C1457 0.950 . S
H1429 C1458 0.950 . S
H1430 C1460 0.950 . S
H1431 C1461 0.950 . S
C1432 H1414 0.951 . S
C1432 C1433 1.366 . S
C1432 C1434 1.388 . S
C1433 C1432 1.366 . S
C1433 C1437 1.385 . S
C1434 H1415 0.951 . S
C1434 C1432 1.388 . S
C1434 C1435 1.366 . S
C1435 C1434 1.366 . S
C1435 C1436 1.414 . S
C1435 C1438 1.499 . S
C1436 H1416 0.950 . S
C1436 C1435 1.414 . S
C1436 C1437 1.374 . S
C1437 H1417 0.950 . S
C1437 C1433 1.385 . S
C1437 C1436 1.374 . S
C1438 C1435 1.499 . S
C1438 C1439 1.373 . S
C1438 C1440 1.389 . S
C1439 H1418 0.950 . S
C1439 C1438 1.373 . S
C1439 C1455 1.377 . S
C1440 C1438 1.389 . S
C1440 C1441 1.524 . S
C1440 C1454 1.377 . S
C1441 C1440 1.524 . S
C1441 C1442 1.397 . S
C1441 C1446 1.363 . S
C1442 H1419 0.950 . S
C1442 C1441 1.397 . S
C1442 C1443 1.334 . S
C1443 H1420 0.950 . S
C1443 C1442 1.334 . S
C1443 C1444 1.287 . S
C1444 C1443 1.287 . S
C1444 C1445 1.524 . S
C1444 H1463 0.913 . S
C1445 H1421 0.950 . S
C1445 C1444 1.524 . S
C1445 C1446 1.415 . S
C1446 H1422 0.950 . S
C1446 C1441 1.363 . S
C1446 C1445 1.415 . S
C1447 H1423 0.951 . S
C1447 C1448 1.366 . S
C1447 C1449 1.388 . S
C1448 C1447 1.366 . S
C1448 C1452 1.385 . S
C1449 H1424 0.951 . S
C1449 C1447 1.388 . S
C1449 C1450 1.366 . S
C1450 C1449 1.366 . S
C1450 C1451 1.414 . S
C1450 C1453 1.499 . S
C1451 H1425 0.950 . S
C1451 C1450 1.414 . S
C1451 C1452 1.374 . S
C1452 H1426 0.950 . S
C1452 C1448 1.385 . S
C1452 C1451 1.374 . S
C1453 C1450 1.499 . S
C1453 C1454 1.373 . S
C1453 C1455 1.389 . S
C1454 H1427 0.950 . S
C1454 C1440 1.377 . S
C1454 C1453 1.373 . S
C1455 C1439 1.377 . S
C1455 C1453 1.389 . S
C1455 C1456 1.524 . S
C1456 C1455 1.524 . S
C1456 C1457 1.397 . S
C1456 C1461 1.363 . S
C1457 H1428 0.950 . S
C1457 C1456 1.397 . S
C1457 C1458 1.334 . S
C1458 H1429 0.950 . S
C1458 C1457 1.334 . S
C1458 C1459 1.287 . S
C1459 C1458 1.287 . S
C1459 C1460 1.524 . S
C1459 H1462 0.999 . S
C1460 H1430 0.950 . S
C1460 C1459 1.524 . S
C1460 C1461 1.415 . S
C1461 H1431 0.950 . S
C1461 C1456 1.363 . S
C1461 C1460 1.415 . S
H1462 C1459 0.999 . S
H1463 C1444 0.913 . S
H1464 C1482 0.951 . S
H1465 C1484 0.951 . S
H1466 C1486 0.950 . S
H1467 C1487 0.950 . S
H1468 C1489 0.950 . S
H1469 C1492 0.950 . S
H1470 C1493 0.950 . S
H1471 C1495 0.950 . S
H1472 C1496 0.950 . S
H1473 C1497 0.951 . S
H1474 C1499 0.951 . S
H1475 C1501 0.950 . S
H1476 C1502 0.950 . S
H1477 C1504 0.950 . S
H1478 C1507 0.950 . S
H1479 C1508 0.950 . S
H1480 C1510 0.950 . S
H1481 C1511 0.950 . S
C1482 H1464 0.951 . S
C1482 C1483 1.366 . S
C1482 C1484 1.388 . S
C1483 C1482 1.366 . S
C1483 C1487 1.385 . S
C1484 H1465 0.951 . S
C1484 C1482 1.388 . S
C1484 C1485 1.366 . S
C1485 C1484 1.366 . S
C1485 C1486 1.414 . S
C1485 C1488 1.499 . S
C1486 H1466 0.950 . S
C1486 C1485 1.414 . S
C1486 C1487 1.374 . S
C1487 H1467 0.950 . S
C1487 C1483 1.385 . S
C1487 C1486 1.374 . S
C1488 C1485 1.499 . S
C1488 C1489 1.373 . S
C1488 C1490 1.389 . S
C1489 H1468 0.950 . S
C1489 C1488 1.373 . S
C1489 C1505 1.377 . S
C1490 C1488 1.389 . S
C1490 C1491 1.524 . S
C1490 C1504 1.377 . S
C1491 C1490 1.524 . S
C1491 C1492 1.397 . S
C1491 C1496 1.363 . S
C1492 H1469 0.950 . S
C1492 C1491 1.397 . S
C1492 C1493 1.334 . S
C1493 H1470 0.950 . S
C1493 C1492 1.334 . S
C1493 C1494 1.287 . S
C1494 C1493 1.287 . S
C1494 C1495 1.524 . S
C1494 H1513 0.913 . S
C1495 H1471 0.950 . S
C1495 C1494 1.524 . S
C1495 C1496 1.415 . S
C1496 H1472 0.950 . S
C1496 C1491 1.363 . S
C1496 C1495 1.415 . S
C1497 H1473 0.951 . S
C1497 C1498 1.366 . S
C1497 C1499 1.388 1_545 S
C1498 C1497 1.366 . S
C1498 C1502 1.385 . S
C1499 H1474 0.951 . S
C1499 C1497 1.388 1_565 S
C1499 C1500 1.366 . S
C1500 C1499 1.366 . S
C1500 C1501 1.414 1_565 S
C1500 C1503 1.499 . S
C1501 H1475 0.950 . S
C1501 C1500 1.414 1_545 S
C1501 C1502 1.374 . S
C1502 H1476 0.950 . S
C1502 C1498 1.385 . S
C1502 C1501 1.374 . S
C1503 C1500 1.499 . S
C1503 C1504 1.373 . S
C1503 C1505 1.389 . S
C1504 H1477 0.950 . S
C1504 C1490 1.377 . S
C1504 C1503 1.373 . S
C1505 C1489 1.377 . S
C1505 C1503 1.389 . S
C1505 C1506 1.524 . S
C1506 C1505 1.524 . S
C1506 C1507 1.397 1_565 S
C1506 C1511 1.363 . S
C1507 H1478 0.950 . S
C1507 C1506 1.397 1_545 S
C1507 C1508 1.334 . S
C1508 H1479 0.950 . S
C1508 C1507 1.334 . S
C1508 C1509 1.287 . S
C1509 C1508 1.287 . S
C1509 C1510 1.524 1_545 S
C1509 H1512 0.999 . S
C1510 H1480 0.950 . S
C1510 C1509 1.524 1_565 S
C1510 C1511 1.415 . S
C1511 H1481 0.950 . S
C1511 C1506 1.363 . S
C1511 C1510 1.415 . S
H1512 C1509 0.999 . S
H1513 C1494 0.913 . S
H1514 C1532 0.951 . S
H1515 C1534 0.951 . S
H1516 C1536 0.950 . S
H1517 C1537 0.950 . S
H1518 C1539 0.950 . S
H1519 C1542 0.950 . S
H1520 C1543 0.950 . S
H1521 C1545 0.950 . S
H1522 C1546 0.950 . S
H1523 C1547 0.951 . S
H1524 C1549 0.951 . S
H1525 C1551 0.950 . S
H1526 C1552 0.950 . S
H1527 C1554 0.950 . S
H1528 C1557 0.950 . S
H1529 C1558 0.950 . S
H1530 C1560 0.950 . S
H1531 C1561 0.950 . S
C1532 H1514 0.951 . S
C1532 C1533 1.366 . S
C1532 C1534 1.388 . S
C1533 C1532 1.366 . S
C1533 C1537 1.385 . S
C1534 H1515 0.951 . S
C1534 C1532 1.388 . S
C1534 C1535 1.366 . S
C1535 C1534 1.366 . S
C1535 C1536 1.414 . S
C1535 C1538 1.499 . S
C1536 H1516 0.950 . S
C1536 C1535 1.414 . S
C1536 C1537 1.374 . S
C1537 H1517 0.950 . S
C1537 C1533 1.385 . S
C1537 C1536 1.374 . S
C1538 C1535 1.499 . S
C1538 C1539 1.373 . S
C1538 C1540 1.389 . S
C1539 H1518 0.950 . S
C1539 C1538 1.373 . S
C1539 C1555 1.377 . S
C1540 C1538 1.389 . S
C1540 C1541 1.524 . S
C1540 C1554 1.377 . S
C1541 C1540 1.524 . S
C1541 C1542 1.397 . S
C1541 C1546 1.363 . S
C1542 H1519 0.950 . S
C1542 C1541 1.397 . S
C1542 C1543 1.334 . S
C1543 H1520 0.950 . S
C1543 C1542 1.334 . S
C1543 C1544 1.287 . S
C1544 C1543 1.287 . S
C1544 C1545 1.524 . S
C1544 H1563 0.913 . S
C1545 H1521 0.950 . S
C1545 C1544 1.524 . S
C1545 C1546 1.415 . S
C1546 H1522 0.950 . S
C1546 C1541 1.363 . S
C1546 C1545 1.415 . S
C1547 H1523 0.951 . S
C1547 C1548 1.366 . S
C1547 C1549 1.388 . S
C1548 C1547 1.366 . S
C1548 C1552 1.385 . S
C1549 H1524 0.951 . S
C1549 C1547 1.388 . S
C1549 C1550 1.366 . S
C1550 C1549 1.366 . S
C1550 C1551 1.414 . S
C1550 C1553 1.499 . S
C1551 H1525 0.950 . S
C1551 C1550 1.414 . S
C1551 C1552 1.374 . S
C1552 H1526 0.950 . S
C1552 C1548 1.385 . S
C1552 C1551 1.374 . S
C1553 C1550 1.499 . S
C1553 C1554 1.373 . S
C1553 C1555 1.389 . S
C1554 H1527 0.950 . S
C1554 C1540 1.377 . S
C1554 C1553 1.373 . S
C1555 C1539 1.377 . S
C1555 C1553 1.389 . S
C1555 C1556 1.524 . S
C1556 C1555 1.524 . S
C1556 C1557 1.397 . S
C1556 C1561 1.363 . S
C1557 H1528 0.950 . S
C1557 C1556 1.397 . S
C1557 C1558 1.334 . S
C1558 H1529 0.950 . S
C1558 C1557 1.334 . S
C1558 C1559 1.287 . S
C1559 C1558 1.287 . S
C1559 C1560 1.524 . S
C1559 H1562 0.999 . S
C1560 H1530 0.950 . S
C1560 C1559 1.524 . S
C1560 C1561 1.415 . S
C1561 H1531 0.950 . S
C1561 C1556 1.363 . S
C1561 C1560 1.415 . S
H1562 C1559 0.999 . S
H1563 C1544 0.913 . S
C398 C96 1.544 . S
C383 C5 1.374 . S
C448 C149 1.505 . S
C433 C16 1.269 . S
C498 C110 1.748 . S
C483 C30 1.749 . S
C548 C135 1.622 . S
C533 C40 1.571 . S
C598 C181 1.446 . S
C583 C8 1.441 . S
C648 C227 1.467 . S
C633 C18 1.410 . S
C683 C29 1.762 . S
C698 C294 1.790 . S
C748 C326 1.567 . S
C733 C38 1.320 . S
C798 C195 1.394 . S
C783 C19 1.387 . S
C833 C27 1.504 . S
C848 C241 1.667 . S
C898 C280 1.578 . S
C883 C41 1.563 . S
C948 C340 1.532 . S
C933 C7 1.493 . S
C983 C52 1.565 . S
C998 C156 1.595 . S
C1048 C89 1.606 . S
C1033 C62 1.570 . S
C1083 C74 1.344 . S
C1098 C142 1.350 . S
C1133 C82 1.213 . S
C1148 C103 1.405 . S
C1198 C287 1.855 . S
C1183 C51 1.764 . S
C1248 C333 1.630 . S
C1233 C60 1.381 . S
C1298 C188 1.479 . S
C1283 C71 1.256 . S
C1333 C84 1.461 . S
C1348 C248 1.507 . S
C1398 C273 1.739 . S
C1383 C63 1.732 . S
C1448 C319 1.462 . S
C1433 C73 1.423 . S
C1498 C202 1.554 . S
C1483 C85 1.555 . S
C1533 C49 1.396 . S
C1548 C234 1.688 . S
