# Generated by pormake.
# Topology rtl, (3,6)-cn, num edge types: 1
# Building blocks:
#     Node 0, Type 0, BuildingBlock: INOVEN_clean_linker_0, # of connection points: 3
#     Node 1, Type 0, BuildingBlock: INOVEN_clean_linker_0, # of connection points: 3
#     Node 2, Type 0, BuildingBlock: INOVEN_clean_linker_0, # of connection points: 3
#     Node 3, Type 0, BuildingBlock: INOVEN_clean_linker_0, # of connection points: 3
#     Node 4, Type 1, BuildingBlock: LEVNOQ01_clean_sbu_1, # of connection points: 6
#     Node 5, Type 1, BuildingBlock: LEVNOQ01_clean_sbu_1, # of connection points: 6
#     Edge 6, Type (0, 1), BuildingBlock: CIFDUS_clean_linker_0, # of connection points: 2
#     Edge 7, Type (0, 1), BuildingBlock: CIFDUS_clean_linker_0, # of connection points: 2
#     Edge 8, Type (0, 1), BuildingBlock: CIFDUS_clean_linker_0, # of connection points: 2
#     Edge 9, Type (0, 1), BuildingBlock: CIFDUS_clean_linker_0, # of connection points: 2
#     Edge 10, Type (0, 1), BuildingBlock: CIFDUS_clean_linker_0, # of connection points: 2
#     Edge 11, Type (0, 1), BuildingBlock: CIFDUS_clean_linker_0, # of connection points: 2
#     Edge 12, Type (0, 1), BuildingBlock: CIFDUS_clean_linker_0, # of connection points: 2
#     Edge 13, Type (0, 1), BuildingBlock: CIFDUS_clean_linker_0, # of connection points: 2
#     Edge 14, Type (0, 1), BuildingBlock: CIFDUS_clean_linker_0, # of connection points: 2
#     Edge 15, Type (0, 1), BuildingBlock: CIFDUS_clean_linker_0, # of connection points: 2
#     Edge 16, Type (0, 1), BuildingBlock: CIFDUS_clean_linker_0, # of connection points: 2
#     Edge 17, Type (0, 1), BuildingBlock: CIFDUS_clean_linker_0, # of connection points: 2
# Relax obj value: 0.015
# Max RMSD: 0.112
# Mean RMSD: 0.082
data_MOF--net-rtl--node1-LEVNOQ01_clean_sbu_1--node2-INOVEN_clean_linker_0--edge1-CIFDUS_clean_linker_0
_symmetry_space_group_name_H-M    P1
_symmetry_Int_Tables_number       1
_symmetry_cell_setting            triclinic
loop_
_symmetry_equiv_pos_as_xyz
'x, y, z'
_cell_length_a     30.901384
_cell_length_b     31.976634
_cell_length_c     19.534982
_cell_angle_alpha  91.361566
_cell_angle_beta   100.3004
_cell_angle_gamma 90.196999
loop_
_atom_site_label
_atom_site_type_symbol
_atom_site_fract_x
_atom_site_fract_y
_atom_site_fract_z
_atom_type_partial_charge
H0 H 0.21071 0.81094 0.94748 0.0
H1 H 0.10312 0.86282 0.03325 0.0
H2 H 0.20728 0.7989 0.16528 0.0
N3 N 0.25368 0.78037 0.06156 0.0
N4 N 0.26951 0.75814 0.11144 0.0
C5 C 0.19431 0.81695 0.99131 0.0
C6 C 0.15428 0.83854 0.98169 0.0
C7 C 0.21338 0.80219 0.0567 0.0
C8 C 0.19259 0.80971 0.11428 0.0
C9 C 0.15257 0.83145 0.10542 0.0
C10 C 0.13354 0.84538 0.03923 0.0
H11 H 0.7 0.71971 0.7402 0.0
H12 H 0.63182 0.63349 0.58492 0.0
H13 H 0.7338 0.71291 0.53566 0.0
N14 N 0.74949 0.75464 0.6584 0.0
N15 N 0.78506 0.75741 0.63694 0.0
C16 C 0.69564 0.7055 0.68848 0.0
C17 C 0.66361 0.67411 0.66871 0.0
C18 C 0.72132 0.71937 0.64089 0.0
C19 C 0.7149 0.7015 0.57314 0.0
C20 C 0.68188 0.67121 0.55219 0.0
C21 C 0.65673 0.65754 0.60044 0.0
H22 H 0.81255 0.21853 0.86226 0.0
H23 H 0.91241 0.14794 0.99117 0.0
H24 H 0.80976 0.20665 0.08051 0.0
N25 N 0.76798 0.24024 0.96249 0.0
N26 N 0.74105 0.23608 0.00245 0.0
C27 C 0.82652 0.2064 0.91269 0.0
C28 C 0.86472 0.18205 0.92039 0.0
C29 C 0.80622 0.21494 0.97017 0.0
C30 C 0.82482 0.1993 0.03572 0.0
C31 C 0.86347 0.17548 0.04429 0.0
C32 C 0.88311 0.16701 0.98601 0.0
H33 H 0.30647 0.30231 0.37962 0.0
H34 H 0.39645 0.37102 0.53688 0.0
H35 H 0.28018 0.31473 0.58791 0.0
N36 N 0.24957 0.28183 0.4661 0.0
N37 N 0.24132 0.25583 0.41674 0.0
C38 C 0.31592 0.3138 0.43283 0.0
C39 C 0.35489 0.33744 0.45265 0.0
C40 C 0.28917 0.30544 0.48225 0.0
C41 C 0.30119 0.32125 0.5505 0.0
C42 C 0.34017 0.34437 0.57128 0.0
C43 C 0.36695 0.35208 0.522 0.0
O44 O 0.02457 0.08555 0.65292 0.0
Mg45 Mg 0.07041 0.05691 0.60082 0.0
O46 O 0.9731 0.04691 0.58874 0.0
Mg47 Mg 0.00903 0.00665 0.51259 0.0
O48 O 0.06082 0.05944 0.49412 0.0
O49 O 0.10795 0.10037 0.56877 0.0
O50 O 0.04371 0.96607 0.43621 0.0
O51 O 0.96544 0.0439 0.42076 0.0
Mg52 Mg 0.94422 0.957 0.42365 0.0
O53 O 0.9581 0.95341 0.53006 0.0
O54 O 0.99082 0.92939 0.37056 0.0
O55 O 0.90652 0.00639 0.37942 0.0
O56 O 0.90621 0.91509 0.45956 0.0
C57 C 0.08963 0.9747 0.64556 0.0
C58 C 0.98468 0.07471 0.63663 0.0
C59 C 0.09083 0.08894 0.50605 0.0
C60 C 0.03113 0.93911 0.38732 0.0
C61 C 0.92771 0.04024 0.38162 0.0
C62 C 0.92711 0.92487 0.52105 0.0
O63 O 0.10927 0.00948 0.64926 0.0
O64 O 0.0528 0.96965 0.60441 0.0
O65 O 0.61332 0.51849 0.19743 0.0
Mg66 Mg 0.57239 0.46848 0.15723 0.0
O67 O 0.54862 0.54553 0.16323 0.0
Mg68 Mg 0.51444 0.50372 0.06443 0.0
O69 O 0.56801 0.4499 0.05463 0.0
O70 O 0.61086 0.41994 0.1457 0.0
O71 O 0.48072 0.46165 0.96463 0.0
O72 O 0.55509 0.54404 0.99895 0.0
Mg73 Mg 0.45715 0.53559 0.97551 0.0
O74 O 0.46076 0.55778 0.07568 0.0
O75 O 0.41432 0.48619 0.94001 0.0
O76 O 0.50148 0.55513 0.91205 0.0
O77 O 0.42012 0.58607 0.98108 0.0
C78 C 0.48581 0.44585 0.18789 0.0
C79 C 0.58706 0.54814 0.20042 0.0
C80 C 0.59711 0.42211 0.07971 0.0
C81 C 0.44129 0.45809 0.93126 0.0
C82 C 0.5417 0.55854 0.93875 0.0
C83 C 0.43269 0.5856 0.04745 0.0
O84 O 0.5261 0.44607 0.21511 0.0
O85 O 0.47356 0.46359 0.12994 0.0
H86 H 0.23027 0.17632 0.37335 0.0
H87 H 0.16278 0.28303 0.44074 0.0
H88 H 0.10074 0.2387 0.45491 0.0
H89 H 0.07477 0.16856 0.47485 0.0
H90 H 0.14489 0.06059 0.41955 0.0
H91 H 0.19589 0.10577 0.3717 0.0
C92 C 0.20122 0.18979 0.38879 0.0
C93 C 0.20133 0.23251 0.40739 0.0
C94 C 0.16631 0.16366 0.39954 0.0
C95 C 0.16367 0.25001 0.42746 0.0
C96 C 0.12824 0.22466 0.43563 0.0
C97 C 0.09989 0.15497 0.44898 0.0
C98 C 0.1061 0.11153 0.45014 0.0
C99 C 0.13036 0.18123 0.42563 0.0
C100 C 0.13916 0.094 0.41803 0.0
C101 C 0.1688 0.11993 0.39193 0.0
H102 H 0.29626 0.68875 0.17943 0.0
H103 H 0.33321 0.77949 0.04013 0.0
H104 H 0.39424 0.73587 0.01974 0.0
H105 H 0.42868 0.66737 0.02525 0.0
H106 H 0.39129 0.57375 0.15874 0.0
H107 H 0.33978 0.62303 0.19932 0.0
C108 C 0.31845 0.69916 0.14603 0.0
C109 C 0.30967 0.73668 0.11014 0.0
C110 C 0.35318 0.67326 0.13322 0.0
C111 C 0.33867 0.75026 0.06715 0.0
C112 C 0.37364 0.72537 0.05552 0.0
C113 C 0.41023 0.65828 0.06497 0.0
C114 C 0.41342 0.6172 0.08891 0.0
C115 C 0.37997 0.68613 0.08586 0.0
C116 C 0.38953 0.60547 0.14018 0.0
C117 C 0.3597 0.63347 0.16255 0.0
H118 H 0.87091 0.76333 0.64026 0.0
H119 H 0.75469 0.83615 0.64648 0.0
H120 H 0.79408 0.89996 0.62717 0.0
H121 H 0.85652 0.93146 0.58345 0.0
H122 H 0.97312 0.85913 0.57846 0.0
H123 H 0.93969 0.79909 0.62505 0.0
C124 C 0.8549 0.79348 0.63978 0.0
C125 C 0.81011 0.79511 0.64405 0.0
C126 C 0.87787 0.83006 0.62877 0.0
C127 C 0.78928 0.83417 0.64345 0.0
C128 C 0.81173 0.87064 0.63197 0.0
C129 C 0.87538 0.90326 0.59632 0.0
C130 C 0.91717 0.89957 0.57807 0.0
C131 C 0.8554 0.86861 0.6213 0.0
C132 C 0.94116 0.86275 0.59332 0.0
C133 C 0.92169 0.82818 0.6187 0.0
H134 H 0.72557 0.31206 0.94228 0.0
H135 H 0.67521 0.21996 0.06572 0.0
H136 H 0.61821 0.26831 0.08901 0.0
H137 H 0.59132 0.33978 0.09059 0.0
H138 H 0.64322 0.43443 0.9741 0.0
H139 H 0.69036 0.38217 0.92995 0.0
C140 C 0.70134 0.30237 0.97264 0.0
C141 C 0.70433 0.26256 0.00277 0.0
C142 C 0.66926 0.33092 0.98724 0.0
C143 C 0.67316 0.25046 0.04239 0.0
C144 C 0.6408 0.27809 0.05582 0.0
C145 C 0.61189 0.34855 0.05357 0.0
C146 C 0.61396 0.39057 0.03532 0.0
C147 C 0.63966 0.31883 0.03079 0.0
C148 C 0.64083 0.40201 0.98797 0.0
C149 C 0.66816 0.37224 0.96362 0.0
H150 H 0.17759 0.88617 0.21397 0.0
H151 H 0.07545 0.7986 0.12527 0.0
H152 H 0.03016 0.82213 0.20918 0.0
H153 H 0.01679 0.87191 0.29931 0.0
H154 H 0.11689 0.96222 0.38642 0.0
H155 H 0.16604 0.93324 0.31207 0.0
C156 C 0.14585 0.87171 0.21449 0.0
C157 C 0.12977 0.84054 0.16429 0.0
C158 C 0.1195 0.8863 0.26175 0.0
C159 C 0.08838 0.82239 0.16405 0.0
C160 C 0.06246 0.83603 0.21161 0.0
C161 C 0.04947 0.88519 0.30254 0.0
C162 C 0.0629 0.91955 0.34781 0.0
C163 C 0.07719 0.86871 0.25934 0.0
C164 C 0.10562 0.93588 0.35185 0.0
C165 C 0.1337 0.91937 0.30922 0.0
H166 H 0.68971 0.64078 0.7969 0.0
H167 H 0.57484 0.67302 0.648 0.0
H168 H 0.52736 0.64095 0.71958 0.0
H169 H 0.51853 0.60083 0.82008 0.0
H170 H 0.63209 0.56638 0.97017 0.0
H171 H 0.68018 0.60221 0.90255 0.0
C172 C 0.65425 0.64126 0.78102 0.0
C173 C 0.63565 0.65912 0.71737 0.0
C174 C 0.62707 0.62199 0.82204 0.0
C175 C 0.58975 0.65927 0.69668 0.0
C176 C 0.56265 0.64087 0.73745 0.0
C177 C 0.55381 0.60103 0.83834 0.0
C178 C 0.57167 0.58057 0.89987 0.0
C179 C 0.58098 0.62152 0.79944 0.0
C180 C 0.61747 0.5817 0.92282 0.0
C181 C 0.64495 0.60222 0.88419 0.0
H182 H 0.8199 0.14044 0.13811 0.0
H183 H 0.95046 0.17177 0.10549 0.0
H184 H 0.98227 0.13744 0.21321 0.0
H185 H 0.973 0.09246 0.31094 0.0
H186 H 0.8421 0.05943 0.33952 0.0
H187 H 0.81048 0.10162 0.24083 0.0
C188 C 0.85528 0.14057 0.15522 0.0
C189 C 0.88269 0.15832 0.11329 0.0
C190 C 0.87335 0.1205 0.21687 0.0
C191 C 0.92856 0.15765 0.13603 0.0
C192 C 0.9468 0.13822 0.19788 0.0
C193 C 0.9376 0.09549 0.29656 0.0
C194 C 0.90989 0.07289 0.33232 0.0
C195 C 0.91956 0.1187 0.238 0.0
C196 C 0.86406 0.07651 0.31259 0.0
C197 C 0.84595 0.10042 0.25592 0.0
H198 H 0.42059 0.34609 0.65718 0.0
H199 H 0.28546 0.38319 0.64712 0.0
H200 H 0.30415 0.4168 0.76192 0.0
H201 H 0.35947 0.44086 0.86023 0.0
H202 H 0.49536 0.40649 0.87058 0.0
H203 H 0.47566 0.36605 0.76127 0.0
C204 C 0.39527 0.36148 0.68028 0.0
C205 C 0.3517 0.36228 0.64332 0.0
C206 C 0.40635 0.38117 0.74638 0.0
C207 C 0.31913 0.38177 0.67447 0.0
C208 C 0.32983 0.4012 0.74006 0.0
C209 C 0.3848 0.42407 0.83922 0.0
C210 C 0.42891 0.42709 0.87327 0.0
C211 C 0.37341 0.40172 0.77586 0.0
C212 C 0.46115 0.40473 0.84553 0.0
C213 C 0.44994 0.38189 0.78268 0.0
H214 H 0.60315 0.66703 0.46475 0.0
H215 H 0.7401 0.63637 0.47823 0.0
H216 H 0.72334 0.59929 0.36531 0.0
H217 H 0.66862 0.5694 0.26962 0.0
H218 H 0.53152 0.60028 0.25571 0.0
H219 H 0.54952 0.64414 0.36136 0.0
C220 C 0.62932 0.65255 0.44243 0.0
C221 C 0.6727 0.65383 0.47993 0.0
C222 C 0.61938 0.63132 0.37768 0.0
C223 C 0.7065 0.63567 0.45024 0.0
C224 C 0.69687 0.61435 0.38592 0.0
C225 C 0.64273 0.58627 0.28905 0.0
C226 C 0.59869 0.58111 0.25534 0.0
C227 C 0.65328 0.61107 0.35012 0.0
C228 C 0.56564 0.60362 0.28065 0.0
C229 C 0.57589 0.62847 0.34138 0.0
H230 H 0.84065 0.12398 0.81668 0.0
H231 H 0.93917 0.21734 0.89445 0.0
H232 H 0.98324 0.19447 0.80837 0.0
H233 H 0.99684 0.14411 0.71939 0.0
H234 H 0.9006 0.04815 0.64292 0.0
H235 H 0.85213 0.07604 0.71943 0.0
C236 C 0.87132 0.13972 0.81336 0.0
C237 C 0.88677 0.17242 0.86098 0.0
C238 C 0.89695 0.12566 0.76472 0.0
C239 C 0.92676 0.19236 0.85763 0.0
C240 C 0.95196 0.17913 0.80881 0.0
C241 C 0.96512 0.12936 0.7189 0.0
C242 C 0.95262 0.09374 0.6761 0.0
C243 C 0.9379 0.14518 0.76339 0.0
C244 C 0.9111 0.07551 0.67551 0.0
C245 C 0.88346 0.09137 0.71944 0.0
H246 H 0.33135 0.37723 0.32961 0.0
H247 H 0.4421 0.32337 0.46373 0.0
H248 H 0.4919 0.35051 0.39117 0.0
H249 H 0.50468 0.39377 0.29586 0.0
H250 H 0.39531 0.44983 0.16149 0.0
H251 H 0.34414 0.4175 0.2276 0.0
C252 C 0.36628 0.37082 0.34185 0.0
C253 C 0.38318 0.34841 0.40185 0.0
C254 C 0.39493 0.38735 0.30053 0.0
C255 C 0.42851 0.34065 0.41789 0.0
C256 C 0.45695 0.35628 0.3766 0.0
C257 C 0.46963 0.39893 0.28067 0.0
C258 C 0.45393 0.42464 0.22426 0.0
C259 C 0.44066 0.38047 0.31889 0.0
C260 C 0.40832 0.43036 0.2049 0.0
C261 C 0.37907 0.41189 0.24273 0.0
H262 H 0.19787 0.8767 0.89109 0.0
H263 H 0.06766 0.83931 0.91724 0.0
H264 H 0.03604 0.87351 0.80919 0.0
H265 H 0.04511 0.91988 0.71296 0.0
H266 H 0.17563 0.95882 0.69125 0.0
H267 H 0.20745 0.91695 0.7902 0.0
C268 C 0.16265 0.87518 0.8725 0.0
C269 C 0.13523 0.85571 0.91263 0.0
C270 C 0.1447 0.89513 0.81075 0.0
C271 C 0.08953 0.85471 0.88805 0.0
C272 C 0.07142 0.87406 0.82603 0.0
C273 C 0.08053 0.91822 0.72892 0.0
C274 C 0.10803 0.94237 0.69503 0.0
C275 C 0.09861 0.89517 0.78766 0.0
C276 C 0.15384 0.94052 0.71674 0.0
C277 C 0.17205 0.9168 0.77354 0.0
loop_
_geom_bond_atom_site_label_1
_geom_bond_atom_site_label_2
_geom_bond_distance
_geom_bond_site_symmetry_2
_ccdc_geom_bond_type
H0 C5 0.929 1_556 S
H1 C10 0.931 . S
H2 C8 0.930 . S
N3 N4 1.234 . S
N3 C7 1.453 . S
N4 N3 1.234 . S
C5 H0 0.929 1_554 S
C5 C6 1.373 . S
C5 C7 1.368 . S
C6 C5 1.373 . S
C6 C10 1.397 . S
C7 N3 1.453 . S
C7 C5 1.368 . S
C7 C8 1.373 . S
C8 H2 0.930 . S
C8 C7 1.373 . S
C8 C9 1.371 . S
C9 C8 1.371 . S
C9 C10 1.383 . S
C10 H1 0.931 . S
C10 C6 1.397 . S
C10 C9 1.383 . S
H11 C16 0.929 . S
H12 C21 0.931 . S
H13 C19 0.930 . S
N14 N15 1.234 . S
N14 C18 1.453 . S
N15 N14 1.234 . S
C16 H11 0.929 . S
C16 C17 1.373 . S
C16 C18 1.368 . S
C17 C16 1.373 . S
C17 C21 1.397 . S
C18 N14 1.453 . S
C18 C16 1.368 . S
C18 C19 1.373 . S
C19 H13 0.930 . S
C19 C18 1.373 . S
C19 C20 1.371 . S
C20 C19 1.371 . S
C20 C21 1.383 . S
C21 H12 0.931 . S
C21 C17 1.397 . S
C21 C20 1.383 . S
H22 C27 0.929 . S
H23 C32 0.931 . S
H24 C30 0.930 . S
N25 N26 1.234 1_556 S
N25 C29 1.453 . S
N26 N25 1.234 1_554 S
C27 H22 0.929 . S
C27 C28 1.373 . S
C27 C29 1.368 . S
C28 C27 1.373 . S
C28 C32 1.397 1_556 S
C29 N25 1.453 . S
C29 C27 1.368 . S
C29 C30 1.373 1_556 S
C30 H24 0.930 . S
C30 C29 1.373 1_554 S
C30 C31 1.371 . S
C31 C30 1.371 . S
C31 C32 1.383 . S
C32 H23 0.931 . S
C32 C28 1.397 1_554 S
C32 C31 1.383 . S
H33 C38 0.929 . S
H34 C43 0.931 . S
H35 C41 0.930 . S
N36 N37 1.234 . S
N36 C40 1.453 . S
N37 N36 1.234 . S
C38 H33 0.929 . S
C38 C39 1.373 . S
C38 C40 1.368 . S
C39 C38 1.373 . S
C39 C43 1.397 . S
C40 N36 1.453 . S
C40 C38 1.368 . S
C40 C41 1.373 . S
C41 H35 0.930 . S
C41 C40 1.373 . S
C41 C42 1.371 . S
C42 C41 1.371 . S
C42 C43 1.383 . S
C43 H34 0.931 . S
C43 C39 1.397 . S
C43 C42 1.383 . S
O44 Mg45 1.990 . S
O44 C58 1.253 1_455 S
Mg45 O44 1.990 . S
Mg45 O48 2.180 . S
Mg45 O49 2.117 . S
Mg45 O63 2.030 . S
O46 Mg47 2.072 1_655 S
O46 C58 1.260 . S
Mg47 O46 2.072 1_455 S
Mg47 O48 2.099 . S
Mg47 O50 2.079 1_545 S
Mg47 O51 2.072 1_455 S
Mg47 O53 2.099 1_445 S
Mg47 O64 2.079 1_545 S
O48 Mg45 2.180 . S
O48 Mg47 2.099 . S
O48 C59 1.279 . S
O49 Mg45 2.117 . S
O49 C59 1.250 . S
O50 Mg47 2.079 1_565 S
O50 C60 1.264 . S
O51 Mg47 2.072 1_655 S
O51 C61 1.260 . S
Mg52 O53 2.180 . S
Mg52 O54 2.030 1_655 S
Mg52 O55 1.990 1_565 S
Mg52 O56 2.117 . S
O53 Mg47 2.099 1_665 S
O53 Mg52 2.180 . S
O53 C62 1.279 . S
O54 Mg52 2.030 1_455 S
O54 C60 1.248 . S
O55 Mg52 1.990 1_545 S
O55 C61 1.253 . S
O56 Mg52 2.117 . S
O56 C62 1.250 . S
C57 O63 1.248 1_565 S
C57 O64 1.264 . S
C58 O44 1.253 1_655 S
C58 O46 1.260 . S
C59 O48 1.279 . S
C59 O49 1.250 . S
C60 O50 1.264 . S
C60 O54 1.248 . S
C61 O51 1.260 . S
C61 O55 1.253 . S
C62 O53 1.279 . S
C62 O56 1.250 . S
O63 Mg45 2.030 . S
O63 C57 1.248 1_545 S
O64 Mg47 2.079 1_565 S
O64 C57 1.264 . S
O65 Mg66 1.990 . S
O65 C79 1.253 . S
Mg66 O65 1.990 . S
Mg66 O69 2.180 . S
Mg66 O70 2.117 . S
Mg66 O84 2.030 . S
O67 Mg68 2.072 . S
O67 C79 1.260 . S
Mg68 O67 2.072 . S
Mg68 O69 2.099 . S
Mg68 O71 2.079 1_554 S
Mg68 O72 2.072 1_554 S
Mg68 O74 2.099 . S
Mg68 O85 2.079 . S
O69 Mg66 2.180 . S
O69 Mg68 2.099 . S
O69 C80 1.279 . S
O70 Mg66 2.117 . S
O70 C80 1.250 . S
O71 Mg68 2.079 1_556 S
O71 C81 1.264 . S
O72 Mg68 2.072 1_556 S
O72 C82 1.260 . S
Mg73 O74 2.180 1_556 S
Mg73 O75 2.030 . S
Mg73 O76 1.990 . S
Mg73 O77 2.117 . S
O74 Mg68 2.099 . S
O74 Mg73 2.180 1_554 S
O74 C83 1.279 . S
O75 Mg73 2.030 . S
O75 C81 1.248 . S
O76 Mg73 1.990 . S
O76 C82 1.253 . S
O77 Mg73 2.117 . S
O77 C83 1.250 1_556 S
C78 O84 1.248 . S
C78 O85 1.264 . S
C79 O65 1.253 . S
C79 O67 1.260 . S
C80 O69 1.279 . S
C80 O70 1.250 . S
C81 O71 1.264 . S
C81 O75 1.248 . S
C82 O72 1.260 . S
C82 O76 1.253 . S
C83 O74 1.279 . S
C83 O77 1.250 1_554 S
O84 Mg66 2.030 . S
O84 C78 1.248 . S
O85 Mg68 2.079 . S
O85 C78 1.264 . S
H86 C92 0.930 . S
H87 C95 0.930 . S
H88 C96 0.930 . S
H89 C97 0.930 . S
H90 C100 0.930 . S
H91 C101 0.930 . S
C92 H86 0.930 . S
C92 C93 1.355 . S
C92 C94 1.415 . S
C93 C92 1.355 . S
C93 C95 1.419 . S
C94 C92 1.415 . S
C94 C99 1.425 . S
C94 C101 1.409 . S
C95 H87 0.930 . S
C95 C93 1.419 . S
C95 C96 1.362 . S
C96 H88 0.930 . S
C96 C95 1.362 . S
C96 C99 1.409 . S
C97 H89 0.930 . S
C97 C98 1.355 . S
C97 C99 1.415 . S
C98 C97 1.355 . S
C98 C100 1.419 . S
C99 C94 1.425 . S
C99 C96 1.409 . S
C99 C97 1.415 . S
C100 H90 0.930 . S
C100 C98 1.419 . S
C100 C101 1.362 . S
C101 H91 0.930 . S
C101 C94 1.409 . S
C101 C100 1.362 . S
H102 C108 0.930 . S
H103 C111 0.930 . S
H104 C112 0.930 1_556 S
H105 C113 0.930 . S
H106 C116 0.930 . S
H107 C117 0.930 . S
C108 H102 0.930 . S
C108 C109 1.355 . S
C108 C110 1.415 . S
C109 C108 1.355 . S
C109 C111 1.419 . S
C110 C108 1.415 . S
C110 C115 1.425 . S
C110 C117 1.409 . S
C111 H103 0.930 . S
C111 C109 1.419 . S
C111 C112 1.362 . S
C112 H104 0.930 1_554 S
C112 C111 1.362 . S
C112 C115 1.409 . S
C113 H105 0.930 . S
C113 C114 1.355 . S
C113 C115 1.415 . S
C114 C113 1.355 . S
C114 C116 1.419 . S
C115 C110 1.425 . S
C115 C112 1.409 . S
C115 C113 1.415 . S
C116 H106 0.930 . S
C116 C114 1.419 . S
C116 C117 1.362 . S
C117 H107 0.930 . S
C117 C110 1.409 . S
C117 C116 1.362 . S
H118 C124 0.930 . S
H119 C127 0.930 . S
H120 C128 0.930 . S
H121 C129 0.930 . S
H122 C132 0.930 . S
H123 C133 0.930 . S
C124 H118 0.930 . S
C124 C125 1.355 . S
C124 C126 1.415 . S
C125 C124 1.355 . S
C125 C127 1.419 . S
C126 C124 1.415 . S
C126 C131 1.425 . S
C126 C133 1.409 . S
C127 H119 0.930 . S
C127 C125 1.419 . S
C127 C128 1.362 . S
C128 H120 0.930 . S
C128 C127 1.362 . S
C128 C131 1.409 . S
C129 H121 0.930 . S
C129 C130 1.355 . S
C129 C131 1.415 . S
C130 C129 1.355 . S
C130 C132 1.419 . S
C131 C126 1.425 . S
C131 C128 1.409 . S
C131 C129 1.415 . S
C132 H122 0.930 . S
C132 C130 1.419 . S
C132 C133 1.362 . S
C133 H123 0.930 . S
C133 C126 1.409 . S
C133 C132 1.362 . S
H134 C140 0.930 . S
H135 C143 0.930 . S
H136 C144 0.930 . S
H137 C145 0.930 . S
H138 C148 0.930 . S
H139 C149 0.930 . S
C140 H134 0.930 . S
C140 C141 1.355 1_556 S
C140 C142 1.415 . S
C141 C140 1.355 1_554 S
C141 C143 1.419 . S
C142 C140 1.415 . S
C142 C147 1.425 1_556 S
C142 C149 1.409 . S
C143 H135 0.930 . S
C143 C141 1.419 . S
C143 C144 1.362 . S
C144 H136 0.930 . S
C144 C143 1.362 . S
C144 C147 1.409 . S
C145 H137 0.930 . S
C145 C146 1.355 . S
C145 C147 1.415 . S
C146 C145 1.355 . S
C146 C148 1.419 1_554 S
C147 C142 1.425 1_554 S
C147 C144 1.409 . S
C147 C145 1.415 . S
C148 H138 0.930 . S
C148 C146 1.419 1_556 S
C148 C149 1.362 . S
C149 H139 0.930 . S
C149 C142 1.409 . S
C149 C148 1.362 . S
H150 C156 0.930 . S
H151 C159 0.930 . S
H152 C160 0.930 . S
H153 C161 0.930 . S
H154 C164 0.930 1_545 S
H155 C165 0.930 . S
C156 H150 0.930 . S
C156 C157 1.355 . S
C156 C158 1.415 . S
C157 C156 1.355 . S
C157 C159 1.419 . S
C158 C156 1.415 . S
C158 C163 1.425 . S
C158 C165 1.409 . S
C159 H151 0.930 . S
C159 C157 1.419 . S
C159 C160 1.362 . S
C160 H152 0.930 . S
C160 C159 1.362 . S
C160 C163 1.409 . S
C161 H153 0.930 . S
C161 C162 1.355 . S
C161 C163 1.415 . S
C162 C161 1.355 . S
C162 C164 1.419 . S
C163 C158 1.425 . S
C163 C160 1.409 . S
C163 C161 1.415 . S
C164 H154 0.930 1_565 S
C164 C162 1.419 . S
C164 C165 1.362 . S
C165 H155 0.930 . S
C165 C158 1.409 . S
C165 C164 1.362 . S
H166 C172 0.930 . S
H167 C175 0.930 . S
H168 C176 0.930 . S
H169 C177 0.930 . S
H170 C180 0.930 . S
H171 C181 0.930 . S
C172 H166 0.930 . S
C172 C173 1.355 . S
C172 C174 1.415 . S
C173 C172 1.355 . S
C173 C175 1.419 . S
C174 C172 1.415 . S
C174 C179 1.425 . S
C174 C181 1.409 . S
C175 H167 0.930 . S
C175 C173 1.419 . S
C175 C176 1.362 . S
C176 H168 0.930 . S
C176 C175 1.362 . S
C176 C179 1.409 . S
C177 H169 0.930 . S
C177 C178 1.355 . S
C177 C179 1.415 . S
C178 C177 1.355 . S
C178 C180 1.419 . S
C179 C174 1.425 . S
C179 C176 1.409 . S
C179 C177 1.415 . S
C180 H170 0.930 . S
C180 C178 1.419 . S
C180 C181 1.362 . S
C181 H171 0.930 . S
C181 C174 1.409 . S
C181 C180 1.362 . S
H182 C188 0.930 . S
H183 C191 0.930 . S
H184 C192 0.930 . S
H185 C193 0.930 . S
H186 C196 0.930 . S
H187 C197 0.930 . S
C188 H182 0.930 . S
C188 C189 1.355 . S
C188 C190 1.415 . S
C189 C188 1.355 . S
C189 C191 1.419 . S
C190 C188 1.415 . S
C190 C195 1.425 . S
C190 C197 1.409 . S
C191 H183 0.930 . S
C191 C189 1.419 . S
C191 C192 1.362 . S
C192 H184 0.930 . S
C192 C191 1.362 . S
C192 C195 1.409 . S
C193 H185 0.930 . S
C193 C194 1.355 . S
C193 C195 1.415 . S
C194 C193 1.355 . S
C194 C196 1.419 . S
C195 C190 1.425 . S
C195 C192 1.409 . S
C195 C193 1.415 . S
C196 H186 0.930 . S
C196 C194 1.419 . S
C196 C197 1.362 . S
C197 H187 0.930 . S
C197 C190 1.409 . S
C197 C196 1.362 . S
H198 C204 0.930 . S
H199 C207 0.930 . S
H200 C208 0.930 . S
H201 C209 0.930 . S
H202 C212 0.930 . S
H203 C213 0.930 . S
C204 H198 0.930 . S
C204 C205 1.355 . S
C204 C206 1.415 . S
C205 C204 1.355 . S
C205 C207 1.419 . S
C206 C204 1.415 . S
C206 C211 1.425 . S
C206 C213 1.409 . S
C207 H199 0.930 . S
C207 C205 1.419 . S
C207 C208 1.362 . S
C208 H200 0.930 . S
C208 C207 1.362 . S
C208 C211 1.409 . S
C209 H201 0.930 . S
C209 C210 1.355 . S
C209 C211 1.415 . S
C210 C209 1.355 . S
C210 C212 1.419 . S
C211 C206 1.425 . S
C211 C208 1.409 . S
C211 C209 1.415 . S
C212 H202 0.930 . S
C212 C210 1.419 . S
C212 C213 1.362 . S
C213 H203 0.930 . S
C213 C206 1.409 . S
C213 C212 1.362 . S
H214 C220 0.930 . S
H215 C223 0.930 . S
H216 C224 0.930 . S
H217 C225 0.930 . S
H218 C228 0.930 . S
H219 C229 0.930 . S
C220 H214 0.930 . S
C220 C221 1.355 . S
C220 C222 1.415 . S
C221 C220 1.355 . S
C221 C223 1.419 . S
C222 C220 1.415 . S
C222 C227 1.425 . S
C222 C229 1.409 . S
C223 H215 0.930 . S
C223 C221 1.419 . S
C223 C224 1.362 . S
C224 H216 0.930 . S
C224 C223 1.362 . S
C224 C227 1.409 . S
C225 H217 0.930 . S
C225 C226 1.355 . S
C225 C227 1.415 . S
C226 C225 1.355 . S
C226 C228 1.419 . S
C227 C222 1.425 . S
C227 C224 1.409 . S
C227 C225 1.415 . S
C228 H218 0.930 . S
C228 C226 1.419 . S
C228 C229 1.362 . S
C229 H219 0.930 . S
C229 C222 1.409 . S
C229 C228 1.362 . S
H230 C236 0.930 . S
H231 C239 0.930 . S
H232 C240 0.930 . S
H233 C241 0.930 . S
H234 C244 0.930 . S
H235 C245 0.930 . S
C236 H230 0.930 . S
C236 C237 1.355 . S
C236 C238 1.415 . S
C237 C236 1.355 . S
C237 C239 1.419 . S
C238 C236 1.415 . S
C238 C243 1.425 . S
C238 C245 1.409 . S
C239 H231 0.930 . S
C239 C237 1.419 . S
C239 C240 1.362 . S
C240 H232 0.930 . S
C240 C239 1.362 . S
C240 C243 1.409 . S
C241 H233 0.930 . S
C241 C242 1.355 . S
C241 C243 1.415 . S
C242 C241 1.355 . S
C242 C244 1.419 . S
C243 C238 1.425 . S
C243 C240 1.409 . S
C243 C241 1.415 . S
C244 H234 0.930 . S
C244 C242 1.419 . S
C244 C245 1.362 . S
C245 H235 0.930 . S
C245 C238 1.409 . S
C245 C244 1.362 . S
H246 C252 0.930 . S
H247 C255 0.930 . S
H248 C256 0.930 . S
H249 C257 0.930 . S
H250 C260 0.930 . S
H251 C261 0.930 . S
C252 H246 0.930 . S
C252 C253 1.355 . S
C252 C254 1.415 . S
C253 C252 1.355 . S
C253 C255 1.419 . S
C254 C252 1.415 . S
C254 C259 1.425 . S
C254 C261 1.409 . S
C255 H247 0.930 . S
C255 C253 1.419 . S
C255 C256 1.362 . S
C256 H248 0.930 . S
C256 C255 1.362 . S
C256 C259 1.409 . S
C257 H249 0.930 . S
C257 C258 1.355 . S
C257 C259 1.415 . S
C258 C257 1.355 . S
C258 C260 1.419 . S
C259 C254 1.425 . S
C259 C256 1.409 . S
C259 C257 1.415 . S
C260 H250 0.930 . S
C260 C258 1.419 . S
C260 C261 1.362 . S
C261 H251 0.930 . S
C261 C254 1.409 . S
C261 C260 1.362 . S
H262 C268 0.930 . S
H263 C271 0.930 . S
H264 C272 0.930 . S
H265 C273 0.930 . S
H266 C276 0.930 . S
H267 C277 0.930 . S
C268 H262 0.930 . S
C268 C269 1.355 . S
C268 C270 1.415 . S
C269 C268 1.355 . S
C269 C271 1.419 . S
C270 C268 1.415 . S
C270 C275 1.425 . S
C270 C277 1.409 . S
C271 H263 0.930 . S
C271 C269 1.419 . S
C271 C272 1.362 . S
C272 H264 0.930 . S
C272 C271 1.362 . S
C272 C275 1.409 . S
C273 H265 0.930 . S
C273 C274 1.355 . S
C273 C275 1.415 . S
C274 C273 1.355 . S
C274 C276 1.419 . S
C275 C270 1.425 . S
C275 C272 1.409 . S
C275 C273 1.415 . S
C276 H266 0.930 . S
C276 C274 1.419 . S
C276 C277 1.362 . S
C277 H267 0.930 . S
C277 C270 1.409 . S
C277 C276 1.362 . S
C98 C59 1.248 . S
C93 N37 1.449 . S
C109 N4 1.479 . S
C114 C83 1.324 . S
C125 N15 1.573 . S
C130 C62 1.378 . S
C141 N26 1.555 . S
C146 C80 1.424 . S
C162 C60 1.481 . S
C157 C9 1.522 . S
C178 C82 1.520 . S
C173 C17 1.590 . S
C189 C31 1.593 . S
C194 C61 1.516 . S
C205 C42 1.518 . S
C210 C81 1.440 . S
C226 C79 1.496 . S
C221 C20 1.500 . S
C242 C58 1.463 . S
C237 C28 1.510 . S
C258 C78 1.400 . S
C253 C39 1.451 . S
C269 C6 1.438 1_556 S
C274 C57 1.394 . S
