# Generated by pormake.
# Topology pto, (3,4)-cn, num edge types: 1
# Building blocks:
#     Node 0, Type 0, BuildingBlock: VETTIZ_charged_linker_0, # of connection points: 3
#     Node 1, Type 0, BuildingBlock: VETTIZ_charged_linker_0, # of connection points: 3
#     Node 2, Type 0, BuildingBlock: VETTIZ_charged_linker_0, # of connection points: 3
#     Node 3, Type 0, BuildingBlock: VETTIZ_charged_linker_0, # of connection points: 3
#     Node 4, Type 0, BuildingBlock: VETTIZ_charged_linker_0, # of connection points: 3
#     Node 5, Type 0, BuildingBlock: VETTIZ_charged_linker_0, # of connection points: 3
#     Node 6, Type 0, BuildingBlock: VETTIZ_charged_linker_0, # of connection points: 3
#     Node 7, Type 0, BuildingBlock: VETTIZ_charged_linker_0, # of connection points: 3
#     Node 8, Type 1, BuildingBlock: KOZSID_clean_sbu_0, # of connection points: 4
#     Node 9, Type 1, BuildingBlock: KOZSID_clean_sbu_0, # of connection points: 4
#     Node 10, Type 1, BuildingBlock: KOZSID_clean_sbu_0, # of connection points: 4
#     Node 11, Type 1, BuildingBlock: KOZSID_clean_sbu_0, # of connection points: 4
#     Node 12, Type 1, BuildingBlock: KOZSID_clean_sbu_0, # of connection points: 4
#     Node 13, Type 1, BuildingBlock: KOZSID_clean_sbu_0, # of connection points: 4
#     Edge 14, Type (0, 1), BuildingBlock: AJUNOK_clean_linker_0, # of connection points: 2
#     Edge 15, Type (0, 1), BuildingBlock: AJUNOK_clean_linker_0, # of connection points: 2
#     Edge 16, Type (0, 1), BuildingBlock: AJUNOK_clean_linker_0, # of connection points: 2
#     Edge 17, Type (0, 1), BuildingBlock: AJUNOK_clean_linker_0, # of connection points: 2
#     Edge 18, Type (0, 1), BuildingBlock: AJUNOK_clean_linker_0, # of connection points: 2
#     Edge 19, Type (0, 1), BuildingBlock: AJUNOK_clean_linker_0, # of connection points: 2
#     Edge 20, Type (0, 1), BuildingBlock: AJUNOK_clean_linker_0, # of connection points: 2
#     Edge 21, Type (0, 1), BuildingBlock: AJUNOK_clean_linker_0, # of connection points: 2
#     Edge 22, Type (0, 1), BuildingBlock: AJUNOK_clean_linker_0, # of connection points: 2
#     Edge 23, Type (0, 1), BuildingBlock: AJUNOK_clean_linker_0, # of connection points: 2
#     Edge 24, Type (0, 1), BuildingBlock: AJUNOK_clean_linker_0, # of connection points: 2
#     Edge 25, Type (0, 1), BuildingBlock: AJUNOK_clean_linker_0, # of connection points: 2
#     Edge 26, Type (0, 1), BuildingBlock: AJUNOK_clean_linker_0, # of connection points: 2
#     Edge 27, Type (0, 1), BuildingBlock: AJUNOK_clean_linker_0, # of connection points: 2
#     Edge 28, Type (0, 1), BuildingBlock: AJUNOK_clean_linker_0, # of connection points: 2
#     Edge 29, Type (0, 1), BuildingBlock: AJUNOK_clean_linker_0, # of connection points: 2
#     Edge 30, Type (0, 1), BuildingBlock: AJUNOK_clean_linker_0, # of connection points: 2
#     Edge 31, Type (0, 1), BuildingBlock: AJUNOK_clean_linker_0, # of connection points: 2
#     Edge 32, Type (0, 1), BuildingBlock: AJUNOK_clean_linker_0, # of connection points: 2
#     Edge 33, Type (0, 1), BuildingBlock: AJUNOK_clean_linker_0, # of connection points: 2
#     Edge 34, Type (0, 1), BuildingBlock: AJUNOK_clean_linker_0, # of connection points: 2
#     Edge 35, Type (0, 1), BuildingBlock: AJUNOK_clean_linker_0, # of connection points: 2
#     Edge 36, Type (0, 1), BuildingBlock: AJUNOK_clean_linker_0, # of connection points: 2
#     Edge 37, Type (0, 1), BuildingBlock: AJUNOK_clean_linker_0, # of connection points: 2
# Relax obj value: 0.000
# Max RMSD: 0.027
# Mean RMSD: 0.012
data_MOF--net-pto--node1-KOZSID_clean_sbu_0--node2-VETTIZ_charged_linker_0--edge1-AJUNOK_clean_linker_0
_symmetry_space_group_name_H-M    P1
_symmetry_Int_Tables_number       1
_symmetry_cell_setting            triclinic
loop_
_symmetry_equiv_pos_as_xyz
'x, y, z'
_cell_length_a     37.145099
_cell_length_b     49.679232
_cell_length_c     43.617011
_cell_angle_alpha  87.206344
_cell_angle_beta   86.670752
_cell_angle_gamma 93.102878
loop_
_atom_site_label
_atom_site_type_symbol
_atom_site_fract_x
_atom_site_fract_y
_atom_site_fract_z
_atom_type_partial_charge
C0 C 0.24738 0.19167 0.39555 0.0
C1 C 0.26361 0.16699 0.3916 0.0
C2 C 0.28776 0.16468 0.36584 0.0
C3 C 0.27789 0.21046 0.34772 0.0
C4 C 0.25474 0.21303 0.37328 0.0
C5 C 0.23916 0.24046 0.37328 0.0
H6 H 0.22043 0.36185 0.29886 0.0
C7 C 0.27905 0.23593 0.32851 0.0
C8 C 0.2563 0.25365 0.34331 0.0
H9 H 0.17398 0.33357 0.38863 0.0
H10 H 0.20349 0.29163 0.38421 0.0
H11 H 0.2101 0.30665 0.2657 0.0
H12 H 0.29935 0.34245 0.31087 0.0
H13 H 0.31788 0.3273 0.27853 0.0
H14 H 0.28778 0.35427 0.27338 0.0
H15 H 0.23732 0.3353 0.24925 0.0
H16 H 0.24955 0.30124 0.24318 0.0
C17 C 0.19762 0.23646 0.37251 0.0
C18 C 0.25206 0.25497 0.40164 0.0
C19 C 0.35639 0.2453 0.22768 0.0
C20 C 0.36189 0.26612 0.20454 0.0
C21 C 0.34322 0.28988 0.20763 0.0
C22 C 0.31983 0.29305 0.23342 0.0
C23 C 0.3148 0.27221 0.2565 0.0
C24 C 0.3328 0.24877 0.25334 0.0
C25 C 0.3235 0.22859 0.27989 0.0
C26 C 0.29745 0.24396 0.29971 0.0
C27 C 0.29253 0.2695 0.28588 0.0
C28 C 0.30476 0.20315 0.26721 0.0
C29 C 0.3586 0.22329 0.29617 0.0
C30 C 0.21706 0.3469 0.31787 0.0
C31 C 0.19497 0.35129 0.34426 0.0
C32 C 0.19064 0.33074 0.36795 0.0
C33 C 0.20794 0.30641 0.36541 0.0
C34 C 0.22997 0.30242 0.33889 0.0
C35 C 0.23448 0.32265 0.31585 0.0
C36 C 0.25973 0.3154 0.28974 0.0
C37 C 0.26942 0.28739 0.3007 0.0
C38 C 0.25168 0.27968 0.32939 0.0
C39 C 0.2384 0.31474 0.26025 0.0
C40 C 0.2929 0.3359 0.28767 0.0
H41 H 0.31346 0.18298 0.32486 0.0
H42 H 0.22886 0.19411 0.4152 0.0
H43 H 0.27987 0.24961 0.40673 0.0
H44 H 0.25389 0.27717 0.39804 0.0
H45 H 0.23408 0.24919 0.42243 0.0
H46 H 0.19025 0.22075 0.35628 0.0
H47 H 0.18515 0.22984 0.3956 0.0
H48 H 0.18483 0.25476 0.36429 0.0
H49 H 0.36983 0.22659 0.22569 0.0
H50 H 0.34709 0.30622 0.19016 0.0
H51 H 0.30658 0.31168 0.23437 0.0
H52 H 0.28868 0.20864 0.24732 0.0
H53 H 0.32488 0.18887 0.25926 0.0
H54 H 0.28501 0.19244 0.28409 0.0
H55 H 0.37585 0.24226 0.29679 0.0
H56 H 0.35354 0.21613 0.32047 0.0
H57 H 0.37469 0.20847 0.2839 0.0
H58 H 0.30131 0.14615 0.36267 0.0
C59 C 0.29494 0.18617 0.34396 0.0
C60 C 0.19348 0.69292 0.74033 0.0
C61 C 0.17174 0.68984 0.71526 0.0
C62 C 0.1697 0.71197 0.69397 0.0
C63 C 0.20891 0.73982 0.72385 0.0
C64 C 0.21156 0.71791 0.74423 0.0
C65 C 0.23505 0.72447 0.7701 0.0
H66 H 0.33917 0.81542 0.84111 0.0
C67 C 0.22924 0.76326 0.73572 0.0
C68 C 0.24428 0.75434 0.76299 0.0
H69 H 0.32237 0.72963 0.86216 0.0
H70 H 0.28108 0.72599 0.82172 0.0
H71 H 0.26066 0.82717 0.83392 0.0
H72 H 0.34199 0.81336 0.76312 0.0
H73 H 0.32042 0.844 0.75608 0.0
H74 H 0.34386 0.83942 0.79032 0.0
H75 H 0.28694 0.85471 0.81425 0.0
H76 H 0.24529 0.84155 0.79973 0.0
C77 C 0.21212 0.71937 0.80086 0.0
C78 C 0.26887 0.70751 0.76727 0.0
C79 C 0.23881 0.85539 0.67741 0.0
C80 C 0.24852 0.88184 0.68614 0.0
C81 C 0.25772 0.88474 0.71694 0.0
C82 C 0.2609 0.86223 0.73706 0.0
C83 C 0.25302 0.83627 0.72723 0.0
C84 C 0.23988 0.83324 0.69862 0.0
C85 C 0.2248 0.80474 0.69514 0.0
C86 C 0.23424 0.79092 0.72534 0.0
C87 C 0.25196 0.80945 0.7435 0.0
C88 C 0.18338 0.80541 0.6925 0.0
C89 C 0.24482 0.79296 0.66726 0.0
C90 C 0.32649 0.79591 0.8369 0.0
C91 C 0.33457 0.77268 0.85439 0.0
C92 C 0.31727 0.74768 0.84851 0.0
C93 C 0.29323 0.74563 0.82504 0.0
C94 C 0.28628 0.76882 0.80709 0.0
C95 C 0.30258 0.79349 0.81325 0.0
C96 C 0.29176 0.81595 0.79177 0.0
C97 C 0.26792 0.80031 0.77069 0.0
C98 C 0.2645 0.77282 0.78007 0.0
C99 C 0.27021 0.83601 0.81075 0.0
C100 C 0.32626 0.82901 0.77431 0.0
H101 H 0.18584 0.75294 0.68107 0.0
H102 H 0.19574 0.67635 0.75706 0.0
H103 H 0.27481 0.70192 0.74317 0.0
H104 H 0.29377 0.71877 0.7733 0.0
H105 H 0.26509 0.68847 0.78181 0.0
H106 H 0.18463 0.72688 0.79875 0.0
H107 H 0.20897 0.69748 0.80758 0.0
H108 H 0.22347 0.73013 0.81997 0.0
H109 H 0.23022 0.85165 0.65469 0.0
H110 H 0.26171 0.90435 0.7262 0.0
H111 H 0.26867 0.86585 0.75985 0.0
H112 H 0.17237 0.82332 0.70327 0.0
H113 H 0.17632 0.80624 0.66808 0.0
H114 H 0.16837 0.78793 0.70489 0.0
H115 H 0.27454 0.79651 0.66837 0.0
H116 H 0.23955 0.77093 0.66646 0.0
H117 H 0.2369 0.80264 0.64536 0.0
H118 H 0.15385 0.70996 0.67405 0.0
C119 C 0.18824 0.73689 0.69808 0.0
C120 C 0.84922 0.69786 0.35157 0.0
C121 C 0.85139 0.67599 0.33206 0.0
C122 C 0.83328 0.67732 0.30451 0.0
C123 C 0.81194 0.72121 0.31597 0.0
C124 C 0.82986 0.72035 0.34285 0.0
C125 C 0.82634 0.74601 0.3598 0.0
H126 H 0.76481 0.87293 0.36297 0.0
C127 C 0.79474 0.74734 0.31318 0.0
C128 C 0.80338 0.76225 0.33862 0.0
H129 H 0.82656 0.83306 0.43074 0.0
H130 H 0.82627 0.79275 0.40138 0.0
H131 H 0.71046 0.82203 0.35559 0.0
H132 H 0.80703 0.8525 0.30316 0.0
H133 H 0.77543 0.84267 0.2768 0.0
H134 H 0.76529 0.86905 0.3024 0.0
H135 H 0.71136 0.85151 0.33004 0.0
H136 H 0.70259 0.81808 0.31676 0.0
C137 C 0.80638 0.73875 0.39147 0.0
C138 C 0.86458 0.75956 0.36165 0.0
C139 C 0.71662 0.76625 0.22327 0.0
C140 C 0.698 0.78882 0.21383 0.0
C141 C 0.69982 0.81204 0.23111 0.0
C142 C 0.71965 0.81274 0.2575 0.0
C143 C 0.73805 0.78998 0.26678 0.0
C144 C 0.73659 0.76735 0.24957 0.0
C145 C 0.75876 0.74541 0.26229 0.0
C146 C 0.7728 0.75827 0.29054 0.0
C147 C 0.76053 0.78433 0.29309 0.0
C148 C 0.73307 0.72027 0.27108 0.0
C149 C 0.78969 0.74063 0.23802 0.0
C150 C 0.7786 0.85561 0.3713 0.0
C151 C 0.79626 0.85631 0.39891 0.0
C152 C 0.81296 0.83304 0.40943 0.0
C153 C 0.81288 0.80972 0.39229 0.0
C154 C 0.79563 0.80952 0.36438 0.0
C155 C 0.77848 0.83218 0.35462 0.0
C156 C 0.76022 0.82822 0.32519 0.0
C157 C 0.76981 0.79972 0.3184 0.0
C158 C 0.79078 0.78875 0.34128 0.0
C159 C 0.71902 0.83021 0.33193 0.0
C160 C 0.77752 0.84924 0.30048 0.0
H161 H 0.80052 0.69909 0.27525 0.0
H162 H 0.86211 0.69754 0.37319 0.0
H163 H 0.88067 0.75839 0.33947 0.0
H164 H 0.8643 0.78125 0.36583 0.0
H165 H 0.87936 0.74937 0.37993 0.0
H166 H 0.78427 0.72304 0.38943 0.0
H167 H 0.82511 0.73072 0.40816 0.0
H168 H 0.7931 0.75602 0.40124 0.0
H169 H 0.71595 0.74824 0.21024 0.0
H170 H 0.68539 0.82956 0.2244 0.0
H171 H 0.7198 0.83098 0.26969 0.0
H172 H 0.70753 0.72626 0.28277 0.0
H173 H 0.72595 0.70954 0.25031 0.0
H174 H 0.74436 0.70583 0.28743 0.0
H175 H 0.79635 0.75883 0.22242 0.0
H176 H 0.81539 0.73661 0.24857 0.0
H177 H 0.78223 0.72371 0.22346 0.0
H178 H 0.8348 0.66122 0.28868 0.0
C179 C 0.81356 0.69956 0.29651 0.0
C180 C 0.71393 0.28544 0.85623 0.0
C181 C 0.69226 0.26222 0.86625 0.0
C182 C 0.69491 0.2387 0.84965 0.0
C183 C 0.73905 0.26197 0.813 0.0
C184 C 0.73689 0.2849 0.82959 0.0
C185 C 0.76116 0.30799 0.81538 0.0
H186 H 0.88219 0.35824 0.70178 0.0
C187 C 0.7646 0.26838 0.78594 0.0
C188 C 0.77756 0.29534 0.78714 0.0
H189 H 0.84194 0.39715 0.78234 0.0
H190 H 0.80434 0.35745 0.79834 0.0
H191 H 0.80544 0.33124 0.68595 0.0
H192 H 0.89006 0.29749 0.73692 0.0
H193 H 0.87619 0.2752 0.70893 0.0
H194 H 0.89583 0.30812 0.69687 0.0
H195 H 0.84594 0.3205 0.66692 0.0
H196 H 0.80767 0.29719 0.67734 0.0
C197 C 0.73721 0.33141 0.80656 0.0
C198 C 0.78995 0.31518 0.83849 0.0
C199 C 0.78765 0.19645 0.70946 0.0
C200 C 0.80492 0.19693 0.6798 0.0
C201 C 0.82364 0.22118 0.66818 0.0
C202 C 0.8245 0.24441 0.68544 0.0
C203 C 0.80602 0.24369 0.71456 0.0
C204 C 0.78762 0.22002 0.72585 0.0
C205 C 0.76658 0.22343 0.75577 0.0
C206 C 0.77606 0.25286 0.76104 0.0
C207 C 0.79974 0.26462 0.73715 0.0
C208 C 0.72581 0.21814 0.75069 0.0
C209 C 0.78125 0.20441 0.7807 0.0
C210 C 0.86524 0.35807 0.72286 0.0
C211 C 0.86466 0.38104 0.74061 0.0
C212 C 0.84228 0.38002 0.7679 0.0
C213 C 0.82065 0.3568 0.77732 0.0
C214 C 0.8213 0.33408 0.75938 0.0
C215 C 0.84327 0.33488 0.73261 0.0
C216 C 0.83993 0.30871 0.71649 0.0
C217 C 0.81323 0.29194 0.73852 0.0
C218 C 0.80233 0.30707 0.7635 0.0
C219 C 0.82418 0.31453 0.6849 0.0
C220 C 0.87744 0.29663 0.71445 0.0
H221 H 0.71893 0.21988 0.81162 0.0
H222 H 0.71256 0.3038 0.86857 0.0
H223 H 0.79633 0.29706 0.85274 0.0
H224 H 0.81618 0.32262 0.82705 0.0
H225 H 0.78035 0.33041 0.85442 0.0
H226 H 0.71155 0.32349 0.79748 0.0
H227 H 0.73011 0.34318 0.82684 0.0
H228 H 0.74985 0.3453 0.788 0.0
H229 H 0.77397 0.1782 0.71986 0.0
H230 H 0.83706 0.22242 0.64541 0.0
H231 H 0.83904 0.26218 0.67523 0.0
H232 H 0.71984 0.22285 0.72636 0.0
H233 H 0.71689 0.19668 0.75633 0.0
H234 H 0.7084 0.23122 0.76411 0.0
H235 H 0.81125 0.20462 0.77817 0.0
H236 H 0.77488 0.21054 0.8043 0.0
H237 H 0.7706 0.18327 0.77879 0.0
H238 H 0.67909 0.22039 0.85731 0.0
C239 C 0.71817 0.23843 0.82318 0.0
C240 C 0.80061 0.8578 0.67218 0.0
C241 C 0.78297 0.88188 0.67638 0.0
C242 C 0.75981 0.8837 0.70287 0.0
C243 C 0.77215 0.83823 0.72043 0.0
C244 C 0.79488 0.83633 0.69446 0.0
C245 C 0.81189 0.80945 0.69402 0.0
H246 H 0.83726 0.68844 0.76662 0.0
C247 C 0.77251 0.8127 0.73937 0.0
C248 C 0.79588 0.79572 0.72408 0.0
H249 H 0.88208 0.71868 0.67705 0.0
H250 H 0.85056 0.7597 0.6823 0.0
H251 H 0.84482 0.74375 0.80078 0.0
H252 H 0.75751 0.70552 0.75531 0.0
H253 H 0.73795 0.72022 0.78754 0.0
H254 H 0.76927 0.69408 0.79288 0.0
H255 H 0.81976 0.7138 0.81642 0.0
H256 H 0.80495 0.74698 0.82373 0.0
C257 C 0.85333 0.81464 0.69425 0.0
C258 C 0.79923 0.79471 0.66573 0.0
C259 C 0.6963 0.80056 0.84064 0.0
C260 C 0.69187 0.77948 0.86353 0.0
C261 C 0.71103 0.75603 0.85967 0.0
C262 C 0.73442 0.75366 0.83365 0.0
C263 C 0.73874 0.77492 0.81103 0.0
C264 C 0.71987 0.79789 0.81475 0.0
C265 C 0.72814 0.8185 0.78846 0.0
C266 C 0.75469 0.80397 0.76819 0.0
C267 C 0.76077 0.77846 0.78154 0.0
C268 C 0.74599 0.84416 0.80139 0.0
C269 C 0.69263 0.82316 0.77254 0.0
C270 C 0.83986 0.70361 0.74784 0.0
C271 C 0.86202 0.70003 0.72122 0.0
C272 C 0.86536 0.72088 0.69786 0.0
C273 C 0.84689 0.74467 0.7009 0.0
C274 C 0.82469 0.74779 0.72758 0.0
C275 C 0.82127 0.72729 0.75034 0.0
C276 C 0.7957 0.73356 0.77669 0.0
C277 C 0.78463 0.76135 0.76627 0.0
C278 C 0.80187 0.76977 0.73758 0.0
C279 C 0.8171 0.73444 0.80612 0.0
C280 C 0.76345 0.71225 0.77855 0.0
H281 H 0.73624 0.86483 0.74436 0.0
H282 H 0.81895 0.85589 0.65228 0.0
H283 H 0.77081 0.79897 0.66138 0.0
H284 H 0.79912 0.77252 0.66897 0.0
H285 H 0.81626 0.80138 0.64467 0.0
H286 H 0.86019 0.83073 0.71016 0.0
H287 H 0.86519 0.82131 0.67097 0.0
H288 H 0.86717 0.79686 0.70259 0.0
H289 H 0.682 0.81885 0.84299 0.0
H290 H 0.70753 0.7393 0.87665 0.0
H291 H 0.74817 0.73529 0.83216 0.0
H292 H 0.76217 0.83889 0.82129 0.0
H293 H 0.72534 0.85802 0.80941 0.0
H294 H 0.76549 0.85528 0.78462 0.0
H295 H 0.67628 0.80382 0.77149 0.0
H296 H 0.69719 0.83091 0.7484 0.0
H297 H 0.67587 0.83725 0.78534 0.0
H298 H 0.74572 0.90191 0.70654 0.0
C299 C 0.75425 0.86208 0.72479 0.0
C300 C 0.79994 0.2016 0.39745 0.0
C301 C 0.79464 0.17489 0.3876 0.0
C302 C 0.79017 0.17192 0.35589 0.0
C303 C 0.7882 0.22019 0.34672 0.0
C304 C 0.79799 0.22381 0.37631 0.0
C305 C 0.80887 0.25314 0.38073 0.0
H306 H 0.82544 0.3822 0.31804 0.0
C307 C 0.78647 0.24686 0.33077 0.0
C308 C 0.79969 0.26645 0.3501 0.0
H309 H 0.87044 0.35233 0.40136 0.0
H310 H 0.84023 0.30816 0.39618 0.0
H311 H 0.74743 0.35127 0.33079 0.0
H312 H 0.84417 0.33415 0.27846 0.0
H313 H 0.8075 0.32698 0.2558 0.0
H314 H 0.81549 0.36068 0.26811 0.0
H315 H 0.75737 0.36539 0.29245 0.0
H316 H 0.73266 0.33316 0.29988 0.0
C317 C 0.78565 0.2632 0.40787 0.0
C318 C 0.85 0.25544 0.38522 0.0
C319 C 0.71835 0.25453 0.2329 0.0
C320 C 0.70891 0.27685 0.21457 0.0
C321 C 0.72058 0.30301 0.22218 0.0
C322 C 0.74134 0.30693 0.24753 0.0
C323 C 0.75056 0.28448 0.26569 0.0
C324 C 0.73914 0.2588 0.2583 0.0
C325 C 0.7519 0.23739 0.28016 0.0
C326 C 0.77111 0.2547 0.30283 0.0
C327 C 0.77058 0.28215 0.29393 0.0
C328 C 0.71839 0.22113 0.2955 0.0
C329 C 0.77829 0.21985 0.26206 0.0
C330 C 0.82881 0.36621 0.33526 0.0
C331 C 0.85078 0.37071 0.35986 0.0
C332 C 0.85367 0.34944 0.38215 0.0
C333 C 0.83676 0.32372 0.37881 0.0
C334 C 0.81716 0.31913 0.35271 0.0
C335 C 0.81279 0.34046 0.33192 0.0
C336 C 0.7918 0.33214 0.30522 0.0
C337 C 0.78646 0.30195 0.31214 0.0
C338 C 0.8009 0.29429 0.34017 0.0
C339 C 0.75551 0.34625 0.30686 0.0
C340 C 0.81567 0.33891 0.27518 0.0
H341 H 0.78163 0.19042 0.31231 0.0
H342 H 0.8056 0.20541 0.42091 0.0
H343 H 0.86419 0.23906 0.37393 0.0
H344 H 0.86326 0.27429 0.37442 0.0
H345 H 0.85553 0.25406 0.40999 0.0
H346 H 0.75652 0.25819 0.40509 0.0
H347 H 0.79285 0.25354 0.43003 0.0
H348 H 0.78884 0.28532 0.40944 0.0
H349 H 0.70993 0.2342 0.22741 0.0
H350 H 0.71311 0.32053 0.20875 0.0
H351 H 0.74936 0.32735 0.252 0.0
H352 H 0.69938 0.2349 0.30638 0.0
H353 H 0.7038 0.2098 0.27822 0.0
H354 H 0.72527 0.20636 0.3136 0.0
H355 H 0.78704 0.22915 0.23892 0.0
H356 H 0.80369 0.21745 0.27385 0.0
H357 H 0.76566 0.19954 0.25853 0.0
H358 H 0.79063 0.15247 0.34594 0.0
C359 C 0.78589 0.19419 0.33583 0.0
C360 C 0.27052 0.19002 0.69155 0.0
C361 C 0.25543 0.19089 0.66261 0.0
C362 C 0.2427 0.21568 0.65156 0.0
C363 C 0.25701 0.23674 0.69875 0.0
C364 C 0.27172 0.21316 0.70875 0.0
C365 C 0.28989 0.21621 0.73844 0.0
H366 H 0.33933 0.2955 0.85261 0.0
C367 C 0.2622 0.2569 0.72228 0.0
C368 C 0.28225 0.24512 0.74523 0.0
H369 H 0.36698 0.2135 0.83793 0.0
H370 H 0.33127 0.21268 0.7935 0.0
H371 H 0.25781 0.28485 0.8426 0.0
H372 H 0.34508 0.31817 0.78115 0.0
H373 H 0.30799 0.33865 0.77781 0.0
H374 H 0.32749 0.33425 0.8144 0.0
H375 H 0.27118 0.3201 0.84129 0.0
H376 H 0.23773 0.30674 0.81673 0.0
C377 C 0.27094 0.19583 0.76297 0.0
C378 C 0.33084 0.21252 0.73217 0.0
C379 C 0.19855 0.34549 0.7167 0.0
C380 C 0.19553 0.36629 0.73733 0.0
C381 C 0.21547 0.36561 0.7638 0.0
C382 C 0.23755 0.34431 0.7701 0.0
C383 C 0.23958 0.32321 0.74988 0.0
C384 C 0.22039 0.32398 0.72362 0.0
C385 C 0.22539 0.29928 0.70531 0.0
C386 C 0.24954 0.28323 0.72558 0.0
C387 C 0.25808 0.29761 0.7514 0.0
C388 C 0.18795 0.28457 0.70301 0.0
C389 C 0.24476 0.30831 0.67377 0.0
C390 C 0.33767 0.27737 0.83983 0.0
C391 C 0.35689 0.2548 0.84835 0.0
C392 C 0.35353 0.23149 0.83128 0.0
C393 C 0.33257 0.23099 0.80556 0.0
C394 C 0.31444 0.25398 0.7968 0.0
C395 C 0.31669 0.2765 0.81414 0.0
C396 C 0.29436 0.29864 0.80213 0.0
C397 C 0.27994 0.28623 0.77379 0.0
C398 C 0.29175 0.26008 0.77081 0.0
C399 C 0.26377 0.30307 0.82688 0.0
C400 C 0.31982 0.32393 0.79351 0.0
H401 H 0.23247 0.25642 0.66 0.0
H402 H 0.2813 0.17172 0.70079 0.0
H403 H 0.33988 0.21855 0.70792 0.0
H404 H 0.34794 0.22552 0.74599 0.0
H405 H 0.33733 0.19115 0.73642 0.0
H406 H 0.24114 0.19518 0.76125 0.0
H407 H 0.27996 0.17513 0.75982 0.0
H408 H 0.27547 0.20128 0.78674 0.0
H409 H 0.18343 0.34559 0.69621 0.0
H410 H 0.21373 0.38158 0.77979 0.0
H411 H 0.25195 0.345 0.79066 0.0
H412 H 0.17327 0.28221 0.72603 0.0
H413 H 0.17118 0.2962 0.68742 0.0
H414 H 0.18957 0.26407 0.69465 0.0
H415 H 0.26195 0.3272 0.67527 0.0
H416 H 0.26362 0.29339 0.66545 0.0
H417 H 0.22501 0.31219 0.65613 0.0
H418 H 0.23303 0.21785 0.62871 0.0
C419 C 0.24293 0.23836 0.66958 0.0
C420 C 0.17816 0.69392 0.34258 0.0
C421 C 0.17859 0.67026 0.3261 0.0
C422 C 0.20281 0.66949 0.3001 0.0
C423 C 0.22462 0.71565 0.30664 0.0
C424 C 0.20134 0.71627 0.33248 0.0
C425 C 0.20433 0.74304 0.34722 0.0
H426 H 0.28005 0.87063 0.34667 0.0
C427 C 0.24455 0.7423 0.30197 0.0
C428 C 0.23283 0.75845 0.32573 0.0
H429 H 0.20131 0.83133 0.41311 0.0
H430 H 0.20108 0.79063 0.38468 0.0
H431 H 0.24428 0.84735 0.28592 0.0
H432 H 0.3294 0.8207 0.34094 0.0
H433 H 0.34295 0.81602 0.30243 0.0
H434 H 0.33558 0.84962 0.31448 0.0
H435 H 0.28768 0.86516 0.2855 0.0
H436 H 0.27939 0.83777 0.26071 0.0
C437 C 0.16722 0.75576 0.34643 0.0
C438 C 0.21767 0.73816 0.37993 0.0
C439 C 0.33492 0.7607 0.21002 0.0
C440 C 0.3572 0.78347 0.19947 0.0
C441 C 0.35653 0.80694 0.21636 0.0
C442 C 0.33382 0.80785 0.24308 0.0
C443 C 0.31153 0.785 0.25325 0.0
C444 C 0.31239 0.76192 0.23681 0.0
C445 C 0.28708 0.73951 0.25118 0.0
C446 C 0.27083 0.75295 0.27891 0.0
C447 C 0.28522 0.77961 0.27997 0.0
C448 C 0.25846 0.73264 0.22788 0.0
C449 C 0.30984 0.7156 0.26077 0.0
C450 C 0.26267 0.85323 0.35482 0.0
C451 C 0.24049 0.85396 0.38188 0.0
C452 C 0.21842 0.83102 0.39216 0.0
C453 C 0.21842 0.80747 0.37566 0.0
C454 C 0.24087 0.80685 0.34861 0.0
C455 C 0.26251 0.8295 0.33862 0.0
C456 C 0.28508 0.82499 0.30975 0.0
C457 C 0.2735 0.79595 0.30407 0.0
C458 C 0.2475 0.78543 0.32684 0.0
C459 C 0.27392 0.84489 0.28401 0.0
C460 C 0.32542 0.82814 0.31696 0.0
H461 H 0.24327 0.69013 0.27017 0.0
H462 H 0.16029 0.69499 0.36295 0.0
H463 H 0.23666 0.72159 0.3805 0.0
H464 H 0.2332 0.75581 0.38788 0.0
H465 H 0.19475 0.73239 0.39689 0.0
H466 H 0.15464 0.75199 0.32438 0.0
H467 H 0.1483 0.74701 0.36543 0.0
H468 H 0.16915 0.77792 0.34761 0.0
H469 H 0.33533 0.74219 0.1979 0.0
H470 H 0.3734 0.82474 0.20866 0.0
H471 H 0.33451 0.82635 0.25478 0.0
H472 H 0.25074 0.75126 0.21524 0.0
H473 H 0.26904 0.7189 0.21059 0.0
H474 H 0.2329 0.72353 0.23892 0.0
H475 H 0.33655 0.72297 0.26836 0.0
H476 H 0.2973 0.7032 0.28067 0.0
H477 H 0.31491 0.70243 0.24129 0.0
H478 H 0.20355 0.65155 0.28697 0.0
C479 C 0.22573 0.69199 0.29028 0.0
C480 C 0.07109 0.56137 0.38021 0.0
C481 C 0.08226 0.57097 0.40765 0.0
C482 C 0.06685 0.55365 0.4306 0.0
C483 C 0.04727 0.53453 0.4159 0.0
N484 N 0.04923 0.53856 0.385 0.0
Co485 Co 0.02514 0.51531 0.35499 0.0
N486 N 0.99835 0.4919 0.38881 0.0
C487 C 0.00178 0.49375 0.41936 0.0
C488 C 0.98749 0.47145 0.4365 0.0
C489 C 0.97321 0.45485 0.41573 0.0
C490 C 0.97737 0.4687 0.38724 0.0
N491 N 0.0028 0.49123 0.32502 0.0
C492 C 0.98536 0.46664 0.33082 0.0
C493 C 0.99073 0.45046 0.30607 0.0
C494 C 0.00694 0.4666 0.28248 0.0
C495 C 0.01321 0.49107 0.29484 0.0
N496 N 0.04998 0.53946 0.32107 0.0
C497 C 0.04767 0.53681 0.29054 0.0
C498 C 0.0655 0.55734 0.27266 0.0
C499 C 0.07977 0.57434 0.29301 0.0
C500 C 0.07 0.56298 0.32224 0.0
N501 N 0.0668 0.49117 0.35527 0.0
C502 C 0.11503 0.44911 0.35266 0.0
C503 C 0.11163 0.4666 0.3271 0.0
C504 C 0.08787 0.48753 0.32899 0.0
C505 C 0.09648 0.45446 0.38016 0.0
C506 C 0.07345 0.47576 0.38111 0.0
N507 N 0.98416 0.53923 0.35443 0.0
C508 C 0.94478 0.56644 0.32524 0.0
C509 C 0.93627 0.58119 0.35095 0.0
C510 C 0.94998 0.5732 0.37892 0.0
C511 C 0.97324 0.55198 0.38026 0.0
C512 C 0.96868 0.54562 0.32745 0.0
H513 H 0.98299 0.54667 0.40222 0.0
H514 H 0.97539 0.53547 0.30691 0.0
H515 H 0.08664 0.50004 0.30862 0.0
H516 H 0.06114 0.47893 0.40307 0.0
C517 C 0.02478 0.51375 0.43043 0.0
C518 C 0.08145 0.57484 0.35027 0.0
C519 C 0.96225 0.45902 0.35895 0.0
C520 C 0.03186 0.51337 0.27956 0.0
H521 H 0.09942 0.58883 0.41073 0.0
H522 H 0.06904 0.55515 0.4551 0.0
H523 H 0.98953 0.46694 0.46084 0.0
H524 H 0.96171 0.43456 0.42097 0.0
H525 H 0.98391 0.42909 0.30504 0.0
H526 H 0.01484 0.46081 0.25956 0.0
H527 H 0.06847 0.5594 0.24781 0.0
H528 H 0.09605 0.59278 0.28701 0.0
H529 H 0.12621 0.46358 0.30542 0.0
H530 H 0.09947 0.44206 0.40089 0.0
H531 H 0.93424 0.57168 0.30322 0.0
H532 H 0.94315 0.58353 0.39959 0.0
C533 C 0.07688 0.57428 0.74278 0.0
C534 C 0.08624 0.58468 0.77038 0.0
C535 C 0.06685 0.56953 0.79319 0.0
C536 C 0.04674 0.5509 0.77828 0.0
N537 N 0.05264 0.5528 0.74734 0.0
Co538 Co 0.02629 0.53149 0.71678 0.0
N539 N 0.99622 0.51021 0.75027 0.0
C540 C 0.99881 0.51196 0.78093 0.0
C541 C 0.97642 0.49361 0.79835 0.0
C542 C 0.95888 0.47888 0.77761 0.0
C543 C 0.97157 0.48922 0.7486 0.0
N544 N 0.99867 0.51119 0.68618 0.0
C545 C 0.97275 0.4908 0.69055 0.0
C546 C 0.96061 0.48248 0.66286 0.0
C547 C 0.97995 0.49786 0.64016 0.0
C548 C 0.00257 0.51472 0.65522 0.0
N549 N 0.05763 0.5518 0.68337 0.0
C550 C 0.05761 0.5481 0.65288 0.0
C551 C 0.08172 0.56529 0.6355 0.0
C552 C 0.09783 0.58112 0.65611 0.0
C553 C 0.08242 0.5727 0.68494 0.0
N554 N 0.06191 0.50291 0.71823 0.0
C555 C 0.10584 0.4583 0.72245 0.0
C556 C 0.09203 0.46637 0.69454 0.0
C557 C 0.0705 0.48864 0.6929 0.0
C558 C 0.09898 0.47393 0.7477 0.0
C559 C 0.07707 0.49583 0.74516 0.0
N560 N 0.99068 0.56005 0.71543 0.0
C561 C 0.96375 0.59667 0.68788 0.0
C562 C 0.94545 0.60391 0.71481 0.0
C563 C 0.94934 0.58847 0.74187 0.0
C564 C 0.97201 0.56689 0.74172 0.0
C565 C 0.9856 0.57457 0.68858 0.0
H566 H 0.97446 0.55638 0.76331 0.0
H567 H 0.99848 0.56984 0.66717 0.0
H568 H 0.06058 0.4936 0.671 0.0
H569 H 0.0724 0.50643 0.76551 0.0
C570 C 0.02206 0.5314 0.7926 0.0
C571 C 0.09061 0.58619 0.71286 0.0
C572 C 0.96004 0.47792 0.72025 0.0
C573 C 0.03087 0.53139 0.64108 0.0
H574 H 0.10469 0.60178 0.77364 0.0
H575 H 0.06691 0.57209 0.81769 0.0
H576 H 0.97345 0.49109 0.82318 0.0
H577 H 0.93928 0.46218 0.7832 0.0
H578 H 0.9406 0.46641 0.65946 0.0
H579 H 0.97875 0.49615 0.61559 0.0
H580 H 0.08574 0.56706 0.61069 0.0
H581 H 0.11771 0.59763 0.65051 0.0
H582 H 0.09702 0.45515 0.67418 0.0
H583 H 0.11027 0.46922 0.76953 0.0
H584 H 0.96112 0.60798 0.66632 0.0
H585 H 0.93569 0.59348 0.76331 0.0
C586 C 0.27889 0.98086 0.57641 0.0
C587 C 0.31109 0.96834 0.58032 0.0
C588 C 0.33478 0.97766 0.55658 0.0
C589 C 0.31591 0.995 0.53919 0.0
N590 N 0.28183 0.99759 0.55065 0.0
Co591 Co 0.24444 0.01715 0.52906 0.0
N592 N 0.28143 0.03715 0.50055 0.0
C593 C 0.31558 0.03029 0.49472 0.0
C594 C 0.33496 0.04791 0.47395 0.0
C595 C 0.31143 0.06705 0.46611 0.0
C596 C 0.27894 0.05995 0.48264 0.0
N597 N 0.20737 0.03666 0.5072 0.0
C598 C 0.21109 0.05946 0.4886 0.0
C599 C 0.17799 0.06652 0.47846 0.0
C600 C 0.15277 0.04737 0.49108 0.0
C601 C 0.17179 0.02977 0.50821 0.0
N602 N 0.20722 0.99702 0.5574 0.0
C603 C 0.1714 0.99528 0.55368 0.0
C604 C 0.1519 0.9817 0.57783 0.0
C605 C 0.177 0.97383 0.59768 0.0
C606 C 0.21071 0.98255 0.58419 0.0
N607 N 0.24772 0.04634 0.55769 0.0
C608 C 0.25052 0.09248 0.59271 0.0
C609 C 0.21798 0.07729 0.59014 0.0
C610 C 0.21701 0.05491 0.57201 0.0
C611 C 0.28208 0.08286 0.57882 0.0
C612 C 0.28018 0.05954 0.56197 0.0
N613 N 0.24106 0.98807 0.50022 0.0
C614 C 0.23858 0.94061 0.49106 0.0
C615 C 0.23989 0.94618 0.45924 0.0
C616 C 0.24116 0.97327 0.44835 0.0
C617 C 0.24146 0.99387 0.46919 0.0
C618 C 0.2392 0.96168 0.51102 0.0
H619 H 0.24256 0.01451 0.46013 0.0
H620 H 0.23849 0.95643 0.53524 0.0
H621 H 0.1911 0.04495 0.56916 0.0
H622 H 0.30488 0.05271 0.5516 0.0
C623 C 0.32982 0.01005 0.51284 0.0
C624 C 0.24514 0.97364 0.59532 0.0
C625 C 0.24565 0.074 0.47893 0.0
C626 C 0.15669 0.01008 0.52983 0.0
H627 H 0.31672 0.95309 0.59762 0.0
H628 H 0.36233 0.97212 0.55227 0.0
H629 H 0.36315 0.04749 0.46629 0.0
H630 H 0.31743 0.08414 0.44994 0.0
H631 H 0.17262 0.08377 0.46364 0.0
H632 H 0.12382 0.04709 0.4892 0.0
H633 H 0.12284 0.97858 0.58109 0.0
H634 H 0.17107 0.9624 0.6193 0.0
H635 H 0.19307 0.08265 0.60179 0.0
H636 H 0.30806 0.09355 0.58027 0.0
H637 H 0.23709 0.91999 0.50058 0.0
H638 H 0.24271 0.9786 0.42392 0.0
C639 C 0.46773 0.8075 0.074 0.0
C640 C 0.45472 0.83219 0.08144 0.0
C641 C 0.47382 0.8514 0.06278 0.0
C642 C 0.49713 0.83741 0.04495 0.0
N643 N 0.494 0.81038 0.05096 0.0
Co644 Co 0.52213 0.7825 0.02978 0.0
N645 N 0.55201 0.81094 0.00389 0.0
C646 C 0.55056 0.838 0.00539 0.0
C647 C 0.57471 0.85246 0.98514 0.0
C648 C 0.59264 0.83354 0.96966 0.0
C649 C 0.57816 0.80852 0.98129 0.0
N650 N 0.5494 0.75458 0.00782 0.0
C651 C 0.57493 0.75744 0.98416 0.0
C652 C 0.5853 0.7326 0.97457 0.0
C653 C 0.56573 0.71337 0.99282 0.0
C654 C 0.54444 0.72746 0.01228 0.0
N655 N 0.49307 0.75409 0.05641 0.0
C656 C 0.49635 0.7271 0.05647 0.0
C657 C 0.47422 0.71271 0.07835 0.0
C658 C 0.45589 0.73163 0.09346 0.0
C659 C 0.4678 0.75658 0.0797 0.0
N660 N 0.48575 0.78093 0.99804 0.0
C661 C 0.43633 0.77839 0.95129 0.0
C662 C 0.44485 0.7551 0.96795 0.0
C663 C 0.46942 0.7568 0.99096 0.0
C664 C 0.45225 0.80307 0.95898 0.0
C665 C 0.47668 0.80388 0.9822 0.0
N666 N 0.55848 0.78407 0.06157 0.0
C667 C 0.59808 0.76169 0.09558 0.0
C668 C 0.60729 0.78593 0.10893 0.0
C669 C 0.59185 0.80927 0.0979 0.0
C670 C 0.56806 0.80795 0.07425 0.0
C671 C 0.57385 0.76121 0.0722 0.0
H672 H 0.55743 0.8265 0.06691 0.0
H673 H 0.56778 0.74203 0.06327 0.0
H674 H 0.47488 0.73827 1.0026 0.0
H675 H 0.48809 0.82329 0.98671 0.0
C676 C 0.52424 0.84916 0.02424 0.0
C677 C 0.45486 0.78203 0.09005 0.0
C678 C 0.58975 0.78312 0.96972 0.0
C679 C 0.52007 0.71583 0.03536 0.0
H680 H 0.43394 0.83596 0.0989 0.0
H681 H 0.4716 0.87303 0.06274 0.0
H682 H 0.57827 0.87418 0.98156 0.0
H683 H 0.61367 0.83769 0.95154 0.0
H684 H 0.60484 0.72875 0.95616 0.0
H685 H 0.56678 0.69169 0.99192 0.0
H686 H 0.47185 0.69106 0.0829 0.0
H687 H 0.4362 0.72752 0.11261 0.0
H688 H 0.43248 0.73557 0.96336 0.0
H689 H 0.44641 0.82168 0.94674 0.0
H690 H 0.6095 0.74307 0.10316 0.0
H691 H 0.59738 0.82847 0.1079 0.0
C692 C 0.83062 0.98896 0.57815 0.0
C693 C 0.86385 0.9801 0.58591 0.0
C694 C 0.88948 0.99569 0.56848 0.0
C695 C 0.87047 0.01299 0.55105 0.0
N696 N 0.83429 0.00981 0.55667 0.0
Co697 Co 0.79667 0.02914 0.5343 0.0
N698 N 0.8342 0.05084 0.50715 0.0
C699 C 0.87041 0.05033 0.50874 0.0
C700 C 0.88963 0.06747 0.48749 0.0
C701 C 0.86421 0.0802 0.47178 0.0
C702 C 0.83071 0.07028 0.48463 0.0
N703 N 0.75893 0.04728 0.51076 0.0
C704 C 0.76226 0.06791 0.48892 0.0
C705 C 0.7286 0.07653 0.48173 0.0
C706 C 0.70335 0.06028 0.49861 0.0
C707 C 0.72268 0.04306 0.51572 0.0
N708 N 0.75921 0.00852 0.56249 0.0
C709 C 0.72322 0.01129 0.56347 0.0
C710 C 0.70414 0.99444 0.58516 0.0
C711 C 0.72949 0.97981 0.59873 0.0
C712 C 0.76265 0.98859 0.58433 0.0
N713 N 0.79774 0.05888 0.56369 0.0
C714 C 0.79959 0.10254 0.60341 0.0
C715 C 0.76896 0.09591 0.58756 0.0
C716 C 0.76826 0.07391 0.5688 0.0
C717 C 0.8295 0.0869 0.59873 0.0
C718 C 0.82817 0.06561 0.57874 0.0
N719 N 0.79567 0.99941 0.50521 0.0
C720 C 0.76402 0.96119 0.48419 0.0
C721 C 0.79579 0.95379 0.4689 0.0
C722 C 0.82729 0.96998 0.47148 0.0
C723 C 0.82667 0.99246 0.48964 0.0
C724 C 0.76443 0.98411 0.50171 0.0
H725 H 0.85179 1.00361 0.49117 0.0
H726 H 0.73923 0.98888 0.51258 0.0
H727 H 0.74344 0.06982 0.55852 0.0
H728 H 0.85224 0.05502 0.57584 0.0
C729 C 0.8856 0.03239 0.52922 0.0
C730 C 0.79634 0.97651 0.59121 0.0
C731 C 0.79653 0.08056 0.47522 0.0
C732 C 0.70792 0.02694 0.54088 0.0
H733 H 0.86898 0.96382 0.6022 0.0
H734 H 0.91848 0.99429 0.56818 0.0
H735 H 0.91868 0.07025 0.48371 0.0
H736 H 0.86985 0.09522 0.45308 0.0
H737 H 0.72262 0.09352 0.46682 0.0
H738 H 0.6744 0.06214 0.49994 0.0
H739 H 0.67513 0.99216 0.58959 0.0
H740 H 0.72411 0.96393 0.61654 0.0
H741 H 0.74545 0.10783 0.58906 0.0
H742 H 0.85398 0.09101 0.61041 0.0
H743 H 0.73888 0.9494 0.4825 0.0
H744 H 0.85258 0.96495 0.46012 0.0
C745 C 0.47359 0.28718 0.08079 0.0
C746 C 0.46263 0.31197 0.09007 0.0
C747 C 0.48185 0.33127 0.07167 0.0
C748 C 0.50354 0.31728 0.05243 0.0
N749 N 0.49909 0.29015 0.05712 0.0
Co750 Co 0.5273 0.26238 0.03577 0.0
N751 N 0.55658 0.29092 0.00951 0.0
C752 C 0.55295 0.31788 0.00929 0.0
C753 C 0.57536 0.33235 0.98768 0.0
C754 C 0.59419 0.31351 0.97288 0.0
C755 C 0.58227 0.28853 0.98652 0.0
N756 N 0.55631 0.23465 0.01521 0.0
C757 C 0.58283 0.23765 0.99238 0.0
C758 C 0.59628 0.21306 0.98516 0.0
C759 C 0.57717 0.19377 0.00371 0.0
C760 C 0.55341 0.20763 0.02127 0.0
N761 N 0.49727 0.2338 0.06132 0.0
C762 C 0.49902 0.20676 0.05989 0.0
C763 C 0.4749 0.19221 0.0801 0.0
C764 C 0.45677 0.21107 0.09554 0.0
C765 C 0.47112 0.23613 0.08392 0.0
N766 N 0.49189 0.26042 0.00328 0.0
C767 C 0.44638 0.25823 0.95383 0.0
C768 C 0.461 0.23495 0.96575 0.0
C769 C 0.48322 0.23644 0.99045 0.0
C770 C 0.45378 0.28246 0.9677 0.0
C771 C 0.47658 0.28314 0.9921 0.0
N772 N 0.5628 0.26431 0.06811 0.0
C773 C 0.59659 0.24241 0.1071 0.0
C774 C 0.61268 0.26713 0.11439 0.0
C775 C 0.60319 0.29044 0.09831 0.0
C776 C 0.57848 0.28858 0.07544 0.0
C777 C 0.57204 0.24145 0.08401 0.0
H778 H 0.57232 0.3071 0.06415 0.0
H779 H 0.56086 0.22196 0.07951 0.0
H780 H 0.49338 0.21793 0.99848 0.0
H781 H 0.48182 0.30236 1.0012 0.0
C782 C 0.52838 0.32902 0.02978 0.0
C783 C 0.45974 0.26148 0.09579 0.0
C784 C 0.59526 0.26312 0.97612 0.0
C785 C 0.52595 0.19572 0.04154 0.0
H786 H 0.44311 0.31578 0.10851 0.0
H787 H 0.48052 0.35294 0.07248 0.0
H788 H 0.57747 0.35399 0.98302 0.0
H789 H 0.61411 0.31771 0.95391 0.0
H790 H 0.61723 0.2094 0.96781 0.0
H791 H 0.57959 0.17215 0.00376 0.0
H792 H 0.47165 0.1705 0.08384 0.0
H793 H 0.43587 0.20687 0.11375 0.0
H794 H 0.45532 0.21562 0.95603 0.0
H795 H 0.44281 0.30097 0.9592 0.0
H796 H 0.60315 0.22381 0.11898 0.0
H797 H 0.61437 0.31014 0.10364 0.0
C798 C 0.13912 0.3757 0.35773 0.0
C799 C 0.17563 0.37677 0.34676 0.0
C800 C 0.11998 0.3992 0.35974 0.0
C801 C 0.1364 0.42473 0.3506 0.0
H802 H 0.12496 0.35648 0.36436 0.0
H803 H 0.09184 0.39732 0.36804 0.0
S804 S 0.23189 0.43914 0.32252 0.0
N805 N 0.22802 0.406 0.3285 0.0
N806 N 0.19156 0.44998 0.33151 0.0
C807 C 0.17287 0.42625 0.33987 0.0
C808 C 0.19257 0.40234 0.33814 0.0
C809 C 0.16813 0.63912 0.71553 0.0
C810 C 0.15102 0.66365 0.71197 0.0
C811 C 0.14868 0.61412 0.71498 0.0
C812 C 0.11142 0.61275 0.71092 0.0
H813 H 0.19677 0.63927 0.71908 0.0
H814 H 0.16267 0.59573 0.71831 0.0
S815 S 0.0535 0.67047 0.70092 0.0
N816 N 0.09425 0.68462 0.70439 0.0
N817 N 0.058 0.63754 0.70319 0.0
C818 C 0.09402 0.6369 0.70686 0.0
C819 C 0.11375 0.66238 0.70738 0.0
C820 C 0.85923 0.6258 0.33269 0.0
C821 C 0.87259 0.65187 0.3395 0.0
C822 C 0.87972 0.60307 0.3367 0.0
C823 C 0.91418 0.60526 0.34832 0.0
H824 H 0.83271 0.62289 0.32387 0.0
H825 H 0.8685 0.58359 0.33065 0.0
S826 S 0.96214 0.66835 0.36981 0.0
N827 N 0.92326 0.67821 0.35808 0.0
N828 N 0.96092 0.63531 0.36679 0.0
C829 C 0.92763 0.63092 0.35599 0.0
C830 C 0.90706 0.65421 0.3514 0.0
C831 C 0.92552 0.40417 0.72567 0.0
C832 C 0.88805 0.40584 0.73171 0.0
C833 C 0.94861 0.42759 0.72099 0.0
C834 C 0.93495 0.45339 0.72196 0.0
H835 H 0.93723 0.38466 0.7258 0.0
H836 H 0.97743 0.42555 0.71746 0.0
S837 S 0.83901 0.46894 0.73384 0.0
N838 N 0.83831 0.43562 0.73604 0.0
N839 N 0.88187 0.47942 0.7274 0.0
C840 C 0.89759 0.45538 0.72668 0.0
C841 C 0.87409 0.43165 0.73151 0.0
C842 C 0.25964 0.14643 0.44573 0.0
C843 C 0.25575 0.14356 0.41408 0.0
C844 C 0.25542 0.12396 0.46683 0.0
C845 C 0.24667 0.09801 0.45701 0.0
H846 H 0.26718 0.166 0.45407 0.0
H847 H 0.2597 0.12677 0.49085 0.0
S848 S 0.23125 0.07981 0.37732 0.0
N849 N 0.24078 0.11274 0.37445 0.0
N850 N 0.23318 0.07072 0.41409 0.0
C851 C 0.24174 0.09497 0.42571 0.0
C852 C 0.24615 0.1177 0.40426 0.0
C853 C 0.3584 0.79344 0.90112 0.0
C854 C 0.36125 0.77431 0.87848 0.0
C855 C 0.38282 0.79473 0.92449 0.0
C856 C 0.41106 0.77698 0.92605 0.0
H857 H 0.33674 0.80719 0.90108 0.0
H858 H 0.37922 0.80946 0.94177 0.0
S859 S 0.43258 0.72524 0.87028 0.0
N860 N 0.39603 0.73856 0.85779 0.0
N861 N 0.44195 0.74107 0.90152 0.0
C862 C 0.4147 0.75823 0.90307 0.0
C863 C 0.38983 0.75689 0.87936 0.0
C864 C 0.78446 0.8803 0.44773 0.0
C865 C 0.79704 0.88126 0.41659 0.0
C866 C 0.78372 0.90385 0.46439 0.0
C867 C 0.79618 0.92917 0.45069 0.0
H868 H 0.77457 0.86125 0.45916 0.0
H869 H 0.7737 0.90221 0.48827 0.0
S870 S 0.83242 0.94252 0.37003 0.0
N871 N 0.82253 0.90964 0.37287 0.0
N872 N 0.82153 0.95371 0.40419 0.0
C873 C 0.80917 0.93033 0.4197 0.0
C874 C 0.80946 0.90646 0.40266 0.0
C875 C 0.67944 0.27179 0.9217 0.0
C876 C 0.66703 0.26249 0.89397 0.0
C877 C 0.65616 0.2719 0.94824 0.0
C878 C 0.61966 0.26297 0.94784 0.0
H879 H 0.70745 0.27869 0.92298 0.0
H880 H 0.66671 0.27897 0.96924 0.0
S881 S 0.57317 0.23814 0.88102 0.0
N882 N 0.61537 0.24504 0.86768 0.0
N883 N 0.57179 0.24541 0.91761 0.0
C884 C 0.60679 0.25394 0.92033 0.0
C885 C 0.63043 0.25366 0.89338 0.0
C886 C 0.22483 0.90535 0.63898 0.0
C887 C 0.24771 0.90609 0.66376 0.0
C888 C 0.22441 0.92696 0.6171 0.0
C889 C 0.24486 0.95129 0.6199 0.0
H890 H 0.20684 0.88796 0.63605 0.0
H891 H 0.20782 0.92451 0.5977 0.0
S892 S 0.3101 0.96475 0.67908 0.0
N893 N 0.29434 0.9334 0.68741 0.0
N894 N 0.28837 0.97532 0.64926 0.0
C895 C 0.267 0.95293 0.6448 0.0
C896 C 0.26954 0.93021 0.66599 0.0
C897 C 0.64922 0.76731 0.18431 0.0
C898 C 0.67616 0.78802 0.18638 0.0
C899 C 0.62735 0.76669 0.15912 0.0
C900 C 0.63178 0.78663 0.13488 0.0
H901 H 0.64448 0.75178 0.20263 0.0
H902 H 0.60632 0.75072 0.15898 0.0
S903 S 0.70127 0.84358 0.12795 0.0
N904 N 0.70763 0.828 0.16136 0.0
N905 N 0.66725 0.82656 0.11366 0.0
C906 C 0.65939 0.80704 0.13634 0.0
C907 C 0.68139 0.80779 0.16214 0.0
C908 C 0.83327 0.16572 0.64246 0.0
C909 C 0.80295 0.17252 0.66084 0.0
C910 C 0.83206 0.14309 0.62432 0.0
C911 C 0.8006 0.12592 0.62397 0.0
H912 H 0.85835 0.17793 0.6421 0.0
H913 H 0.85593 0.13931 0.61009 0.0
S914 S 0.71379 0.13416 0.66848 0.0
N915 N 0.73998 0.16037 0.67671 0.0
N916 N 0.73881 0.11668 0.64511 0.0
C917 C 0.77029 0.13213 0.64277 0.0
C918 C 0.77121 0.15559 0.66058 0.0
C919 C 0.37528 0.26932 0.1474 0.0
C920 C 0.38681 0.26334 0.17706 0.0
C921 C 0.39876 0.26815 0.12117 0.0
C922 C 0.43465 0.26119 0.1237 0.0
H923 H 0.3479 0.275 0.14447 0.0
H924 H 0.38899 0.27308 0.09876 0.0
S925 S 0.47853 0.24413 0.19564 0.0
N926 N 0.43676 0.2503 0.20719 0.0
N927 N 0.48079 0.24824 0.15775 0.0
C928 C 0.44648 0.25491 0.15301 0.0
C929 C 0.42258 0.25594 0.17974 0.0
C930 C 0.91873 0.67666 0.70714 0.0
C931 C 0.88219 0.67497 0.71816 0.0
C932 C 0.93876 0.65352 0.70544 0.0
C933 C 0.92316 0.62784 0.71498 0.0
H934 H 0.93227 0.69609 0.70045 0.0
H935 H 0.96694 0.65582 0.69735 0.0
S936 S 0.8278 0.61175 0.74246 0.0
N937 N 0.83055 0.64487 0.73614 0.0
N938 N 0.86865 0.60169 0.73388 0.0
C939 C 0.88657 0.6257 0.72532 0.0
C940 C 0.866 0.64915 0.72669 0.0
C941 C 0.89257 0.40629 0.33225 0.0
C942 C 0.87412 0.39617 0.35972 0.0
C943 C 0.9169 0.42883 0.33157 0.0
C944 C 0.92722 0.44086 0.35873 0.0
H945 H 0.88852 0.3966 0.31089 0.0
H946 H 0.92668 0.43662 0.30907 0.0
S947 S 0.86841 0.43288 0.43141 0.0
N948 N 0.85562 0.40692 0.41162 0.0
N949 N 0.9004 0.45003 0.40956 0.0
C950 C 0.90291 0.43453 0.38483 0.0
C951 C 0.87753 0.41153 0.38565 0.0
C952 C 0.17618 0.40652 0.70654 0.0
C953 C 0.17077 0.38834 0.73234 0.0
C954 C 0.15476 0.42888 0.70317 0.0
C955 C 0.12708 0.43372 0.72542 0.0
H956 H 0.19779 0.40389 0.68937 0.0
H957 H 0.16056 0.44285 0.68344 0.0
S958 S 0.09923 0.38977 0.795 0.0
N959 N 0.13414 0.37528 0.7791 0.0
N960 N 0.09332 0.41667 0.7725 0.0
C961 C 0.12052 0.41489 0.75059 0.0
C962 C 0.14248 0.39237 0.7541 0.0
C963 C 0.16689 0.62044 0.33766 0.0
C964 C 0.15358 0.64644 0.33533 0.0
C965 C 0.14349 0.59742 0.34381 0.0
C966 C 0.106 0.59961 0.34777 0.0
H967 H 0.19559 0.61785 0.33425 0.0
H968 H 0.15464 0.57771 0.34465 0.0
S969 S 0.05727 0.66256 0.34373 0.0
N970 N 0.10025 0.67278 0.33754 0.0
N971 N 0.05644 0.62938 0.34913 0.0
C972 C 0.09232 0.62534 0.34611 0.0
C973 C 0.11608 0.64881 0.33994 0.0
C974 C 0.79662 0.9314 0.6641 0.0
C975 C 0.78873 0.9054 0.65375 0.0
C976 C 0.80001 0.95423 0.64364 0.0
C977 C 0.79549 0.95188 0.61214 0.0
H978 H 0.79997 0.93414 0.68828 0.0
H979 H 0.80556 0.9739 0.65255 0.0
S980 S 0.77446 0.88893 0.5731 0.0
N981 N 0.77654 0.87894 0.60963 0.0
N982 N 0.78298 0.92198 0.57131 0.0
C983 C 0.78807 0.92616 0.60134 0.0
C984 C 0.78476 0.90287 0.6221 0.0
C985 C 0.65313 0.25756 0.19209 0.0
C986 C 0.68598 0.27315 0.18813 0.0
C987 C 0.62983 0.25537 0.16801 0.0
C988 C 0.63857 0.26867 0.13908 0.0
H989 H 0.64489 0.24759 0.21423 0.0
H990 H 0.60437 0.24373 0.17232 0.0
S991 S 0.72336 0.30931 0.11587 0.0
N992 N 0.72739 0.3003 0.15239 0.0
N993 N 0.68372 0.29612 0.10714 0.0
C994 C 0.6719 0.28357 0.13454 0.0
C995 C 0.69557 0.28581 0.15904 0.0
C996 C 0.28191 0.14829 0.64419 0.0
C997 C 0.25372 0.16622 0.64402 0.0
C998 C 0.28066 0.1247 0.6277 0.0
C999 C 0.25149 0.11807 0.60968 0.0
H1000 H 0.30541 0.15246 0.65713 0.0
H1001 H 0.30267 0.11139 0.62946 0.0
S1002 S 0.17129 0.1587 0.59999 0.0
N1003 N 0.19522 0.1752 0.62449 0.0
N1004 N 0.19469 0.1326 0.59111 0.0
C1005 C 0.22357 0.13622 0.60854 0.0
C1006 C 0.22429 0.15982 0.62614 0.0
C1007 C 0.41821 0.79158 0.17175 0.0
C1008 C 0.38156 0.7828 0.17125 0.0
C1009 C 0.44175 0.7912 0.14544 0.0
C1010 C 0.42942 0.78215 0.11769 0.0
H1011 H 0.42887 0.79854 0.19276 0.0
H1012 H 0.46981 0.79798 0.14676 0.0
S1013 S 0.33594 0.75844 0.10351 0.0
N1014 N 0.33397 0.76567 0.14012 0.0
N1015 N 0.3784 0.76505 0.09073 0.0
C1016 C 0.39293 0.7736 0.11667 0.0
C1017 C 0.36896 0.77386 0.14345 0.0
C1018 C 0.814 0.15137 0.4367 0.0
C1019 C 0.79477 0.15037 0.40968 0.0
C1020 C 0.81415 0.12899 0.45772 0.0
C1021 C 0.79665 0.10406 0.45211 0.0
H1022 H 0.82943 0.16948 0.44189 0.0
H1023 H 0.82838 0.13116 0.47853 0.0
S1024 S 0.74226 0.08947 0.38574 0.0
N1025 N 0.75481 0.1218 0.38056 0.0
N1026 N 0.76111 0.07897 0.41711 0.0
C1027 C 0.77848 0.10223 0.42491 0.0
C1028 C 0.77607 0.12545 0.40451 0.0
C1029 C 0.36764 0.26613 0.90277 0.0
C1030 C 0.38025 0.25558 0.87498 0.0
C1031 C 0.3892 0.26707 0.92814 0.0
C1032 C 0.42404 0.25729 0.92675 0.0
H1033 H 0.34072 0.27345 0.90507 0.0
H1034 H 0.37836 0.27517 0.94914 0.0
S1035 S 0.47114 0.22996 0.85879 0.0
N1036 N 0.43101 0.23691 0.84712 0.0
N1037 N 0.47103 0.23815 0.89502 0.0
C1038 C 0.43719 0.24703 0.89909 0.0
C1039 C 0.41543 0.24629 0.87317 0.0
C1040 C 0.26348 0.87991 0.42484 0.0
C1041 C 0.24112 0.87826 0.4001 0.0
C1042 C 0.26336 0.90218 0.4434 0.0
C1043 C 0.24072 0.92359 0.43795 0.0
H1044 H 0.28097 0.86374 0.43002 0.0
H1045 H 0.28109 0.9026 0.46225 0.0
S1046 S 0.17676 0.92831 0.37584 0.0
N1047 N 0.19598 0.89951 0.37074 0.0
N1048 N 0.19506 0.9413 0.40586 0.0
C1049 C 0.21846 0.92217 0.41294 0.0
C1050 C 0.21877 0.89948 0.394 0.0
C1051 C 0.63109 0.78898 0.88762 0.0
C1052 C 0.66678 0.78159 0.89108 0.0
C1053 C 0.60642 0.78974 0.91318 0.0
C1054 C 0.61668 0.78331 0.94304 0.0
H1055 H 0.62194 0.79358 0.86492 0.0
H1056 H 0.57901 0.79504 0.90958 0.0
S1057 S 0.70728 0.76491 0.96497 0.0
N1058 N 0.71147 0.76925 0.92711 0.0
N1059 N 0.66495 0.77073 0.97499 0.0
C1060 C 0.65235 0.77661 0.94696 0.0
C1061 C 0.67744 0.77571 0.92102 0.0
loop_
_geom_bond_atom_site_label_1
_geom_bond_atom_site_label_2
_geom_bond_distance
_geom_bond_site_symmetry_2
_ccdc_geom_bond_type
C0 C1 1.391 . S
C0 C4 1.391 . S
C0 H42 0.948 . S
C1 C0 1.391 . S
C1 C2 1.391 . S
C2 C1 1.391 . S
C2 H58 0.947 . S
C2 C59 1.392 . S
C3 C4 1.391 . S
C3 C7 1.397 . S
C3 C59 1.419 . S
C4 C0 1.391 . S
C4 C3 1.391 . S
C4 C5 1.399 . S
C5 C4 1.399 . S
C5 C8 1.396 . S
C5 C17 1.453 . S
C5 C18 1.684 . S
H6 C30 0.948 . S
C7 C3 1.397 . S
C7 C8 1.394 . S
C7 C26 1.723 . S
C8 C5 1.396 . S
C8 C7 1.394 . S
C8 C38 1.723 . S
H9 C32 0.947 . S
H10 C33 0.948 . S
H11 C39 0.982 . S
H12 C40 0.979 . S
H13 C40 0.980 . S
H14 C40 0.983 . S
H15 C39 0.979 . S
H16 C39 0.977 . S
C17 C5 1.453 . S
C17 H46 0.982 . S
C17 H47 0.979 . S
C17 H48 0.977 . S
C18 C5 1.684 . S
C18 H43 0.979 . S
C18 H44 0.980 . S
C18 H45 0.983 . S
C19 C20 1.391 . S
C19 C24 1.391 . S
C19 H49 0.948 . S
C20 C19 1.391 . S
C20 C21 1.391 . S
C21 C20 1.391 . S
C21 C22 1.392 . S
C21 H50 0.947 . S
C22 C21 1.392 . S
C22 C23 1.419 . S
C22 H51 0.948 . S
C23 C22 1.419 . S
C23 C24 1.391 . S
C23 C27 1.397 . S
C24 C19 1.391 . S
C24 C23 1.391 . S
C24 C25 1.399 . S
C25 C24 1.399 . S
C25 C26 1.396 . S
C25 C28 1.453 . S
C25 C29 1.684 . S
C26 C7 1.723 . S
C26 C25 1.396 . S
C26 C27 1.394 . S
C27 C23 1.397 . S
C27 C26 1.394 . S
C27 C37 1.723 . S
C28 C25 1.453 . S
C28 H52 0.982 . S
C28 H53 0.979 . S
C28 H54 0.977 . S
C29 C25 1.684 . S
C29 H55 0.979 . S
C29 H56 0.980 . S
C29 H57 0.983 . S
C30 H6 0.948 . S
C30 C31 1.391 . S
C30 C35 1.391 . S
C31 C30 1.391 . S
C31 C32 1.391 . S
C32 H9 0.947 . S
C32 C31 1.391 . S
C32 C33 1.392 . S
C33 H10 0.948 . S
C33 C32 1.392 . S
C33 C34 1.419 . S
C34 C33 1.419 . S
C34 C35 1.391 . S
C34 C38 1.397 . S
C35 C30 1.391 . S
C35 C34 1.391 . S
C35 C36 1.399 . S
C36 C35 1.399 . S
C36 C37 1.396 . S
C36 C39 1.453 . S
C36 C40 1.684 . S
C37 C27 1.723 . S
C37 C36 1.396 . S
C37 C38 1.394 . S
C38 C8 1.723 . S
C38 C34 1.397 . S
C38 C37 1.394 . S
C39 H11 0.982 . S
C39 H15 0.979 . S
C39 H16 0.977 . S
C39 C36 1.453 . S
C40 H12 0.979 . S
C40 H13 0.980 . S
C40 H14 0.983 . S
C40 C36 1.684 . S
H41 C59 0.948 . S
H42 C0 0.948 . S
H43 C18 0.979 . S
H44 C18 0.980 . S
H45 C18 0.983 . S
H46 C17 0.982 . S
H47 C17 0.979 . S
H48 C17 0.977 . S
H49 C19 0.948 . S
H50 C21 0.947 . S
H51 C22 0.948 . S
H52 C28 0.982 . S
H53 C28 0.979 . S
H54 C28 0.977 . S
H55 C29 0.979 . S
H56 C29 0.980 . S
H57 C29 0.983 . S
H58 C2 0.947 . S
C59 C2 1.392 . S
C59 C3 1.419 . S
C59 H41 0.948 . S
C60 C61 1.391 . S
C60 C64 1.391 . S
C60 H102 0.948 . S
C61 C60 1.391 . S
C61 C62 1.391 . S
C62 C61 1.391 . S
C62 H118 0.947 . S
C62 C119 1.392 . S
C63 C64 1.391 . S
C63 C67 1.397 . S
C63 C119 1.419 . S
C64 C60 1.391 . S
C64 C63 1.391 . S
C64 C65 1.399 . S
C65 C64 1.399 . S
C65 C68 1.396 . S
C65 C77 1.453 . S
C65 C78 1.684 . S
H66 C90 0.948 . S
C67 C63 1.397 . S
C67 C68 1.394 . S
C67 C86 1.723 . S
C68 C65 1.396 . S
C68 C67 1.394 . S
C68 C98 1.723 . S
H69 C92 0.947 . S
H70 C93 0.948 . S
H71 C99 0.982 . S
H72 C100 0.979 . S
H73 C100 0.980 . S
H74 C100 0.983 . S
H75 C99 0.979 . S
H76 C99 0.977 . S
C77 C65 1.453 . S
C77 H106 0.982 . S
C77 H107 0.979 . S
C77 H108 0.977 . S
C78 C65 1.684 . S
C78 H103 0.979 . S
C78 H104 0.980 . S
C78 H105 0.983 . S
C79 C80 1.391 . S
C79 C84 1.391 . S
C79 H109 0.948 . S
C80 C79 1.391 . S
C80 C81 1.391 . S
C81 C80 1.391 . S
C81 C82 1.392 . S
C81 H110 0.947 . S
C82 C81 1.392 . S
C82 C83 1.419 . S
C82 H111 0.948 . S
C83 C82 1.419 . S
C83 C84 1.391 . S
C83 C87 1.397 . S
C84 C79 1.391 . S
C84 C83 1.391 . S
C84 C85 1.399 . S
C85 C84 1.399 . S
C85 C86 1.396 . S
C85 C88 1.453 . S
C85 C89 1.684 . S
C86 C67 1.723 . S
C86 C85 1.396 . S
C86 C87 1.394 . S
C87 C83 1.397 . S
C87 C86 1.394 . S
C87 C97 1.723 . S
C88 C85 1.453 . S
C88 H112 0.982 . S
C88 H113 0.979 . S
C88 H114 0.977 . S
C89 C85 1.684 . S
C89 H115 0.979 . S
C89 H116 0.980 . S
C89 H117 0.983 . S
C90 H66 0.948 . S
C90 C91 1.391 . S
C90 C95 1.391 . S
C91 C90 1.391 . S
C91 C92 1.391 . S
C92 H69 0.947 . S
C92 C91 1.391 . S
C92 C93 1.392 . S
C93 H70 0.948 . S
C93 C92 1.392 . S
C93 C94 1.419 . S
C94 C93 1.419 . S
C94 C95 1.391 . S
C94 C98 1.397 . S
C95 C90 1.391 . S
C95 C94 1.391 . S
C95 C96 1.399 . S
C96 C95 1.399 . S
C96 C97 1.396 . S
C96 C99 1.453 . S
C96 C100 1.684 . S
C97 C87 1.723 . S
C97 C96 1.396 . S
C97 C98 1.394 . S
C98 C68 1.723 . S
C98 C94 1.397 . S
C98 C97 1.394 . S
C99 H71 0.982 . S
C99 H75 0.979 . S
C99 H76 0.977 . S
C99 C96 1.453 . S
C100 H72 0.979 . S
C100 H73 0.980 . S
C100 H74 0.983 . S
C100 C96 1.684 . S
H101 C119 0.948 . S
H102 C60 0.948 . S
H103 C78 0.979 . S
H104 C78 0.980 . S
H105 C78 0.983 . S
H106 C77 0.982 . S
H107 C77 0.979 . S
H108 C77 0.977 . S
H109 C79 0.948 . S
H110 C81 0.947 . S
H111 C82 0.948 . S
H112 C88 0.982 . S
H113 C88 0.979 . S
H114 C88 0.977 . S
H115 C89 0.979 . S
H116 C89 0.980 . S
H117 C89 0.983 . S
H118 C62 0.947 . S
C119 C62 1.392 . S
C119 C63 1.419 . S
C119 H101 0.948 . S
C120 C121 1.391 . S
C120 C124 1.391 . S
C120 H162 0.948 . S
C121 C120 1.391 . S
C121 C122 1.391 . S
C122 C121 1.391 . S
C122 H178 0.947 . S
C122 C179 1.392 . S
C123 C124 1.391 . S
C123 C127 1.397 . S
C123 C179 1.419 . S
C124 C120 1.391 . S
C124 C123 1.391 . S
C124 C125 1.399 . S
C125 C124 1.399 . S
C125 C128 1.396 . S
C125 C137 1.453 . S
C125 C138 1.684 . S
H126 C150 0.948 . S
C127 C123 1.397 . S
C127 C128 1.394 . S
C127 C146 1.723 . S
C128 C125 1.396 . S
C128 C127 1.394 . S
C128 C158 1.723 . S
H129 C152 0.947 . S
H130 C153 0.948 . S
H131 C159 0.982 . S
H132 C160 0.979 . S
H133 C160 0.980 . S
H134 C160 0.983 . S
H135 C159 0.979 . S
H136 C159 0.977 . S
C137 C125 1.453 . S
C137 H166 0.982 . S
C137 H167 0.979 . S
C137 H168 0.977 . S
C138 C125 1.684 . S
C138 H163 0.979 . S
C138 H164 0.980 . S
C138 H165 0.983 . S
C139 C140 1.391 . S
C139 C144 1.391 . S
C139 H169 0.948 . S
C140 C139 1.391 . S
C140 C141 1.391 . S
C141 C140 1.391 . S
C141 C142 1.392 . S
C141 H170 0.947 . S
C142 C141 1.392 . S
C142 C143 1.419 . S
C142 H171 0.948 . S
C143 C142 1.419 . S
C143 C144 1.391 . S
C143 C147 1.397 . S
C144 C139 1.391 . S
C144 C143 1.391 . S
C144 C145 1.399 . S
C145 C144 1.399 . S
C145 C146 1.396 . S
C145 C148 1.453 . S
C145 C149 1.684 . S
C146 C127 1.723 . S
C146 C145 1.396 . S
C146 C147 1.394 . S
C147 C143 1.397 . S
C147 C146 1.394 . S
C147 C157 1.723 . S
C148 C145 1.453 . S
C148 H172 0.982 . S
C148 H173 0.979 . S
C148 H174 0.977 . S
C149 C145 1.684 . S
C149 H175 0.979 . S
C149 H176 0.980 . S
C149 H177 0.983 . S
C150 H126 0.948 . S
C150 C151 1.391 . S
C150 C155 1.391 . S
C151 C150 1.391 . S
C151 C152 1.391 . S
C152 H129 0.947 . S
C152 C151 1.391 . S
C152 C153 1.392 . S
C153 H130 0.948 . S
C153 C152 1.392 . S
C153 C154 1.419 . S
C154 C153 1.419 . S
C154 C155 1.391 . S
C154 C158 1.397 . S
C155 C150 1.391 . S
C155 C154 1.391 . S
C155 C156 1.399 . S
C156 C155 1.399 . S
C156 C157 1.396 . S
C156 C159 1.453 . S
C156 C160 1.684 . S
C157 C147 1.723 . S
C157 C156 1.396 . S
C157 C158 1.394 . S
C158 C128 1.723 . S
C158 C154 1.397 . S
C158 C157 1.394 . S
C159 H131 0.982 . S
C159 H135 0.979 . S
C159 H136 0.977 . S
C159 C156 1.453 . S
C160 H132 0.979 . S
C160 H133 0.980 . S
C160 H134 0.983 . S
C160 C156 1.684 . S
H161 C179 0.948 . S
H162 C120 0.948 . S
H163 C138 0.979 . S
H164 C138 0.980 . S
H165 C138 0.983 . S
H166 C137 0.982 . S
H167 C137 0.979 . S
H168 C137 0.977 . S
H169 C139 0.948 . S
H170 C141 0.947 . S
H171 C142 0.948 . S
H172 C148 0.982 . S
H173 C148 0.979 . S
H174 C148 0.977 . S
H175 C149 0.979 . S
H176 C149 0.980 . S
H177 C149 0.983 . S
H178 C122 0.947 . S
C179 C122 1.392 . S
C179 C123 1.419 . S
C179 H161 0.948 . S
C180 C181 1.391 . S
C180 C184 1.391 . S
C180 H222 0.948 . S
C181 C180 1.391 . S
C181 C182 1.391 . S
C182 C181 1.391 . S
C182 H238 0.947 . S
C182 C239 1.392 . S
C183 C184 1.391 . S
C183 C187 1.397 . S
C183 C239 1.419 . S
C184 C180 1.391 . S
C184 C183 1.391 . S
C184 C185 1.399 . S
C185 C184 1.399 . S
C185 C188 1.396 . S
C185 C197 1.453 . S
C185 C198 1.684 . S
H186 C210 0.948 . S
C187 C183 1.397 . S
C187 C188 1.394 . S
C187 C206 1.723 . S
C188 C185 1.396 . S
C188 C187 1.394 . S
C188 C218 1.723 . S
H189 C212 0.947 . S
H190 C213 0.948 . S
H191 C219 0.982 . S
H192 C220 0.979 . S
H193 C220 0.980 . S
H194 C220 0.983 . S
H195 C219 0.979 . S
H196 C219 0.977 . S
C197 C185 1.453 . S
C197 H226 0.982 . S
C197 H227 0.979 . S
C197 H228 0.977 . S
C198 C185 1.684 . S
C198 H223 0.979 . S
C198 H224 0.980 . S
C198 H225 0.983 . S
C199 C200 1.391 . S
C199 C204 1.391 . S
C199 H229 0.948 . S
C200 C199 1.391 . S
C200 C201 1.391 . S
C201 C200 1.391 . S
C201 C202 1.392 . S
C201 H230 0.947 . S
C202 C201 1.392 . S
C202 C203 1.419 . S
C202 H231 0.948 . S
C203 C202 1.419 . S
C203 C204 1.391 . S
C203 C207 1.397 . S
C204 C199 1.391 . S
C204 C203 1.391 . S
C204 C205 1.399 . S
C205 C204 1.399 . S
C205 C206 1.396 . S
C205 C208 1.453 . S
C205 C209 1.684 . S
C206 C187 1.723 . S
C206 C205 1.396 . S
C206 C207 1.394 . S
C207 C203 1.397 . S
C207 C206 1.394 . S
C207 C217 1.723 . S
C208 C205 1.453 . S
C208 H232 0.982 . S
C208 H233 0.979 . S
C208 H234 0.977 . S
C209 C205 1.684 . S
C209 H235 0.979 . S
C209 H236 0.980 . S
C209 H237 0.983 . S
C210 H186 0.948 . S
C210 C211 1.391 . S
C210 C215 1.391 . S
C211 C210 1.391 . S
C211 C212 1.391 . S
C212 H189 0.947 . S
C212 C211 1.391 . S
C212 C213 1.392 . S
C213 H190 0.948 . S
C213 C212 1.392 . S
C213 C214 1.419 . S
C214 C213 1.419 . S
C214 C215 1.391 . S
C214 C218 1.397 . S
C215 C210 1.391 . S
C215 C214 1.391 . S
C215 C216 1.399 . S
C216 C215 1.399 . S
C216 C217 1.396 . S
C216 C219 1.453 . S
C216 C220 1.684 . S
C217 C207 1.723 . S
C217 C216 1.396 . S
C217 C218 1.394 . S
C218 C188 1.723 . S
C218 C214 1.397 . S
C218 C217 1.394 . S
C219 H191 0.982 . S
C219 H195 0.979 . S
C219 H196 0.977 . S
C219 C216 1.453 . S
C220 H192 0.979 . S
C220 H193 0.980 . S
C220 H194 0.983 . S
C220 C216 1.684 . S
H221 C239 0.948 . S
H222 C180 0.948 . S
H223 C198 0.979 . S
H224 C198 0.980 . S
H225 C198 0.983 . S
H226 C197 0.982 . S
H227 C197 0.979 . S
H228 C197 0.977 . S
H229 C199 0.948 . S
H230 C201 0.947 . S
H231 C202 0.948 . S
H232 C208 0.982 . S
H233 C208 0.979 . S
H234 C208 0.977 . S
H235 C209 0.979 . S
H236 C209 0.980 . S
H237 C209 0.983 . S
H238 C182 0.947 . S
C239 C182 1.392 . S
C239 C183 1.419 . S
C239 H221 0.948 . S
C240 C241 1.391 . S
C240 C244 1.391 . S
C240 H282 0.948 . S
C241 C240 1.391 . S
C241 C242 1.391 . S
C242 C241 1.391 . S
C242 H298 0.947 . S
C242 C299 1.392 . S
C243 C244 1.391 . S
C243 C247 1.397 . S
C243 C299 1.419 . S
C244 C240 1.391 . S
C244 C243 1.391 . S
C244 C245 1.399 . S
C245 C244 1.399 . S
C245 C248 1.396 . S
C245 C257 1.453 . S
C245 C258 1.684 . S
H246 C270 0.948 . S
C247 C243 1.397 . S
C247 C248 1.394 . S
C247 C266 1.723 . S
C248 C245 1.396 . S
C248 C247 1.394 . S
C248 C278 1.723 . S
H249 C272 0.947 . S
H250 C273 0.948 . S
H251 C279 0.982 . S
H252 C280 0.979 . S
H253 C280 0.980 . S
H254 C280 0.983 . S
H255 C279 0.979 . S
H256 C279 0.977 . S
C257 C245 1.453 . S
C257 H286 0.982 . S
C257 H287 0.979 . S
C257 H288 0.977 . S
C258 C245 1.684 . S
C258 H283 0.979 . S
C258 H284 0.980 . S
C258 H285 0.983 . S
C259 C260 1.391 . S
C259 C264 1.391 . S
C259 H289 0.948 . S
C260 C259 1.391 . S
C260 C261 1.391 . S
C261 C260 1.391 . S
C261 C262 1.392 . S
C261 H290 0.947 . S
C262 C261 1.392 . S
C262 C263 1.419 . S
C262 H291 0.948 . S
C263 C262 1.419 . S
C263 C264 1.391 . S
C263 C267 1.397 . S
C264 C259 1.391 . S
C264 C263 1.391 . S
C264 C265 1.399 . S
C265 C264 1.399 . S
C265 C266 1.396 . S
C265 C268 1.453 . S
C265 C269 1.684 . S
C266 C247 1.723 . S
C266 C265 1.396 . S
C266 C267 1.394 . S
C267 C263 1.397 . S
C267 C266 1.394 . S
C267 C277 1.723 . S
C268 C265 1.453 . S
C268 H292 0.982 . S
C268 H293 0.979 . S
C268 H294 0.977 . S
C269 C265 1.684 . S
C269 H295 0.979 . S
C269 H296 0.980 . S
C269 H297 0.983 . S
C270 H246 0.948 . S
C270 C271 1.391 . S
C270 C275 1.391 . S
C271 C270 1.391 . S
C271 C272 1.391 . S
C272 H249 0.947 . S
C272 C271 1.391 . S
C272 C273 1.392 . S
C273 H250 0.948 . S
C273 C272 1.392 . S
C273 C274 1.419 . S
C274 C273 1.419 . S
C274 C275 1.391 . S
C274 C278 1.397 . S
C275 C270 1.391 . S
C275 C274 1.391 . S
C275 C276 1.399 . S
C276 C275 1.399 . S
C276 C277 1.396 . S
C276 C279 1.453 . S
C276 C280 1.684 . S
C277 C267 1.723 . S
C277 C276 1.396 . S
C277 C278 1.394 . S
C278 C248 1.723 . S
C278 C274 1.397 . S
C278 C277 1.394 . S
C279 H251 0.982 . S
C279 H255 0.979 . S
C279 H256 0.977 . S
C279 C276 1.453 . S
C280 H252 0.979 . S
C280 H253 0.980 . S
C280 H254 0.983 . S
C280 C276 1.684 . S
H281 C299 0.948 . S
H282 C240 0.948 . S
H283 C258 0.979 . S
H284 C258 0.980 . S
H285 C258 0.983 . S
H286 C257 0.982 . S
H287 C257 0.979 . S
H288 C257 0.977 . S
H289 C259 0.948 . S
H290 C261 0.947 . S
H291 C262 0.948 . S
H292 C268 0.982 . S
H293 C268 0.979 . S
H294 C268 0.977 . S
H295 C269 0.979 . S
H296 C269 0.980 . S
H297 C269 0.983 . S
H298 C242 0.947 . S
C299 C242 1.392 . S
C299 C243 1.419 . S
C299 H281 0.948 . S
C300 C301 1.391 . S
C300 C304 1.391 . S
C300 H342 0.948 . S
C301 C300 1.391 . S
C301 C302 1.391 . S
C302 C301 1.391 . S
C302 H358 0.947 . S
C302 C359 1.392 . S
C303 C304 1.391 . S
C303 C307 1.397 . S
C303 C359 1.419 . S
C304 C300 1.391 . S
C304 C303 1.391 . S
C304 C305 1.399 . S
C305 C304 1.399 . S
C305 C308 1.396 . S
C305 C317 1.453 . S
C305 C318 1.684 . S
H306 C330 0.948 . S
C307 C303 1.397 . S
C307 C308 1.394 . S
C307 C326 1.723 . S
C308 C305 1.396 . S
C308 C307 1.394 . S
C308 C338 1.723 . S
H309 C332 0.947 . S
H310 C333 0.948 . S
H311 C339 0.982 . S
H312 C340 0.979 . S
H313 C340 0.980 . S
H314 C340 0.983 . S
H315 C339 0.979 . S
H316 C339 0.977 . S
C317 C305 1.453 . S
C317 H346 0.982 . S
C317 H347 0.979 . S
C317 H348 0.977 . S
C318 C305 1.684 . S
C318 H343 0.979 . S
C318 H344 0.980 . S
C318 H345 0.983 . S
C319 C320 1.391 . S
C319 C324 1.391 . S
C319 H349 0.948 . S
C320 C319 1.391 . S
C320 C321 1.391 . S
C321 C320 1.391 . S
C321 C322 1.392 . S
C321 H350 0.947 . S
C322 C321 1.392 . S
C322 C323 1.419 . S
C322 H351 0.948 . S
C323 C322 1.419 . S
C323 C324 1.391 . S
C323 C327 1.397 . S
C324 C319 1.391 . S
C324 C323 1.391 . S
C324 C325 1.399 . S
C325 C324 1.399 . S
C325 C326 1.396 . S
C325 C328 1.453 . S
C325 C329 1.684 . S
C326 C307 1.723 . S
C326 C325 1.396 . S
C326 C327 1.394 . S
C327 C323 1.397 . S
C327 C326 1.394 . S
C327 C337 1.723 . S
C328 C325 1.453 . S
C328 H352 0.982 . S
C328 H353 0.979 . S
C328 H354 0.977 . S
C329 C325 1.684 . S
C329 H355 0.979 . S
C329 H356 0.980 . S
C329 H357 0.983 . S
C330 H306 0.948 . S
C330 C331 1.391 . S
C330 C335 1.391 . S
C331 C330 1.391 . S
C331 C332 1.391 . S
C332 H309 0.947 . S
C332 C331 1.391 . S
C332 C333 1.392 . S
C333 H310 0.948 . S
C333 C332 1.392 . S
C333 C334 1.419 . S
C334 C333 1.419 . S
C334 C335 1.391 . S
C334 C338 1.397 . S
C335 C330 1.391 . S
C335 C334 1.391 . S
C335 C336 1.399 . S
C336 C335 1.399 . S
C336 C337 1.396 . S
C336 C339 1.453 . S
C336 C340 1.684 . S
C337 C327 1.723 . S
C337 C336 1.396 . S
C337 C338 1.394 . S
C338 C308 1.723 . S
C338 C334 1.397 . S
C338 C337 1.394 . S
C339 H311 0.982 . S
C339 H315 0.979 . S
C339 H316 0.977 . S
C339 C336 1.453 . S
C340 H312 0.979 . S
C340 H313 0.980 . S
C340 H314 0.983 . S
C340 C336 1.684 . S
H341 C359 0.948 . S
H342 C300 0.948 . S
H343 C318 0.979 . S
H344 C318 0.980 . S
H345 C318 0.983 . S
H346 C317 0.982 . S
H347 C317 0.979 . S
H348 C317 0.977 . S
H349 C319 0.948 . S
H350 C321 0.947 . S
H351 C322 0.948 . S
H352 C328 0.982 . S
H353 C328 0.979 . S
H354 C328 0.977 . S
H355 C329 0.979 . S
H356 C329 0.980 . S
H357 C329 0.983 . S
H358 C302 0.947 . S
C359 C302 1.392 . S
C359 C303 1.419 . S
C359 H341 0.948 . S
C360 C361 1.391 . S
C360 C364 1.391 . S
C360 H402 0.948 . S
C361 C360 1.391 . S
C361 C362 1.391 . S
C362 C361 1.391 . S
C362 H418 0.947 . S
C362 C419 1.392 . S
C363 C364 1.391 . S
C363 C367 1.397 . S
C363 C419 1.419 . S
C364 C360 1.391 . S
C364 C363 1.391 . S
C364 C365 1.399 . S
C365 C364 1.399 . S
C365 C368 1.396 . S
C365 C377 1.453 . S
C365 C378 1.684 . S
H366 C390 0.948 . S
C367 C363 1.397 . S
C367 C368 1.394 . S
C367 C386 1.723 . S
C368 C365 1.396 . S
C368 C367 1.394 . S
C368 C398 1.723 . S
H369 C392 0.947 . S
H370 C393 0.948 . S
H371 C399 0.982 . S
H372 C400 0.979 . S
H373 C400 0.980 . S
H374 C400 0.983 . S
H375 C399 0.979 . S
H376 C399 0.977 . S
C377 C365 1.453 . S
C377 H406 0.982 . S
C377 H407 0.979 . S
C377 H408 0.977 . S
C378 C365 1.684 . S
C378 H403 0.979 . S
C378 H404 0.980 . S
C378 H405 0.983 . S
C379 C380 1.391 . S
C379 C384 1.391 . S
C379 H409 0.948 . S
C380 C379 1.391 . S
C380 C381 1.391 . S
C381 C380 1.391 . S
C381 C382 1.392 . S
C381 H410 0.947 . S
C382 C381 1.392 . S
C382 C383 1.419 . S
C382 H411 0.948 . S
C383 C382 1.419 . S
C383 C384 1.391 . S
C383 C387 1.397 . S
C384 C379 1.391 . S
C384 C383 1.391 . S
C384 C385 1.399 . S
C385 C384 1.399 . S
C385 C386 1.396 . S
C385 C388 1.453 . S
C385 C389 1.684 . S
C386 C367 1.723 . S
C386 C385 1.396 . S
C386 C387 1.394 . S
C387 C383 1.397 . S
C387 C386 1.394 . S
C387 C397 1.723 . S
C388 C385 1.453 . S
C388 H412 0.982 . S
C388 H413 0.979 . S
C388 H414 0.977 . S
C389 C385 1.684 . S
C389 H415 0.979 . S
C389 H416 0.980 . S
C389 H417 0.983 . S
C390 H366 0.948 . S
C390 C391 1.391 . S
C390 C395 1.391 . S
C391 C390 1.391 . S
C391 C392 1.391 . S
C392 H369 0.947 . S
C392 C391 1.391 . S
C392 C393 1.392 . S
C393 H370 0.948 . S
C393 C392 1.392 . S
C393 C394 1.419 . S
C394 C393 1.419 . S
C394 C395 1.391 . S
C394 C398 1.397 . S
C395 C390 1.391 . S
C395 C394 1.391 . S
C395 C396 1.399 . S
C396 C395 1.399 . S
C396 C397 1.396 . S
C396 C399 1.453 . S
C396 C400 1.684 . S
C397 C387 1.723 . S
C397 C396 1.396 . S
C397 C398 1.394 . S
C398 C368 1.723 . S
C398 C394 1.397 . S
C398 C397 1.394 . S
C399 H371 0.982 . S
C399 H375 0.979 . S
C399 H376 0.977 . S
C399 C396 1.453 . S
C400 H372 0.979 . S
C400 H373 0.980 . S
C400 H374 0.983 . S
C400 C396 1.684 . S
H401 C419 0.948 . S
H402 C360 0.948 . S
H403 C378 0.979 . S
H404 C378 0.980 . S
H405 C378 0.983 . S
H406 C377 0.982 . S
H407 C377 0.979 . S
H408 C377 0.977 . S
H409 C379 0.948 . S
H410 C381 0.947 . S
H411 C382 0.948 . S
H412 C388 0.982 . S
H413 C388 0.979 . S
H414 C388 0.977 . S
H415 C389 0.979 . S
H416 C389 0.980 . S
H417 C389 0.983 . S
H418 C362 0.947 . S
C419 C362 1.392 . S
C419 C363 1.419 . S
C419 H401 0.948 . S
C420 C421 1.391 . S
C420 C424 1.391 . S
C420 H462 0.948 . S
C421 C420 1.391 . S
C421 C422 1.391 . S
C422 C421 1.391 . S
C422 H478 0.947 . S
C422 C479 1.392 . S
C423 C424 1.391 . S
C423 C427 1.397 . S
C423 C479 1.419 . S
C424 C420 1.391 . S
C424 C423 1.391 . S
C424 C425 1.399 . S
C425 C424 1.399 . S
C425 C428 1.396 . S
C425 C437 1.453 . S
C425 C438 1.684 . S
H426 C450 0.948 . S
C427 C423 1.397 . S
C427 C428 1.394 . S
C427 C446 1.723 . S
C428 C425 1.396 . S
C428 C427 1.394 . S
C428 C458 1.723 . S
H429 C452 0.947 . S
H430 C453 0.948 . S
H431 C459 0.982 . S
H432 C460 0.979 . S
H433 C460 0.980 . S
H434 C460 0.983 . S
H435 C459 0.979 . S
H436 C459 0.977 . S
C437 C425 1.453 . S
C437 H466 0.982 . S
C437 H467 0.979 . S
C437 H468 0.977 . S
C438 C425 1.684 . S
C438 H463 0.979 . S
C438 H464 0.980 . S
C438 H465 0.983 . S
C439 C440 1.391 . S
C439 C444 1.391 . S
C439 H469 0.948 . S
C440 C439 1.391 . S
C440 C441 1.391 . S
C441 C440 1.391 . S
C441 C442 1.392 . S
C441 H470 0.947 . S
C442 C441 1.392 . S
C442 C443 1.419 . S
C442 H471 0.948 . S
C443 C442 1.419 . S
C443 C444 1.391 . S
C443 C447 1.397 . S
C444 C439 1.391 . S
C444 C443 1.391 . S
C444 C445 1.399 . S
C445 C444 1.399 . S
C445 C446 1.396 . S
C445 C448 1.453 . S
C445 C449 1.684 . S
C446 C427 1.723 . S
C446 C445 1.396 . S
C446 C447 1.394 . S
C447 C443 1.397 . S
C447 C446 1.394 . S
C447 C457 1.723 . S
C448 C445 1.453 . S
C448 H472 0.982 . S
C448 H473 0.979 . S
C448 H474 0.977 . S
C449 C445 1.684 . S
C449 H475 0.979 . S
C449 H476 0.980 . S
C449 H477 0.983 . S
C450 H426 0.948 . S
C450 C451 1.391 . S
C450 C455 1.391 . S
C451 C450 1.391 . S
C451 C452 1.391 . S
C452 H429 0.947 . S
C452 C451 1.391 . S
C452 C453 1.392 . S
C453 H430 0.948 . S
C453 C452 1.392 . S
C453 C454 1.419 . S
C454 C453 1.419 . S
C454 C455 1.391 . S
C454 C458 1.397 . S
C455 C450 1.391 . S
C455 C454 1.391 . S
C455 C456 1.399 . S
C456 C455 1.399 . S
C456 C457 1.396 . S
C456 C459 1.453 . S
C456 C460 1.684 . S
C457 C447 1.723 . S
C457 C456 1.396 . S
C457 C458 1.394 . S
C458 C428 1.723 . S
C458 C454 1.397 . S
C458 C457 1.394 . S
C459 H431 0.982 . S
C459 H435 0.979 . S
C459 H436 0.977 . S
C459 C456 1.453 . S
C460 H432 0.979 . S
C460 H433 0.980 . S
C460 H434 0.983 . S
C460 C456 1.684 . S
H461 C479 0.948 . S
H462 C420 0.948 . S
H463 C438 0.979 . S
H464 C438 0.980 . S
H465 C438 0.983 . S
H466 C437 0.982 . S
H467 C437 0.979 . S
H468 C437 0.977 . S
H469 C439 0.948 . S
H470 C441 0.947 . S
H471 C442 0.948 . S
H472 C448 0.982 . S
H473 C448 0.979 . S
H474 C448 0.977 . S
H475 C449 0.979 . S
H476 C449 0.980 . S
H477 C449 0.983 . S
H478 C422 0.947 . S
C479 C422 1.392 . S
C479 C423 1.419 . S
C479 H461 0.948 . S
C480 C481 1.443 . S
C480 N484 1.376 . S
C480 C518 1.389 . S
C481 C480 1.443 . S
C481 C482 1.340 . S
C481 H521 0.951 . S
C482 C481 1.340 . S
C482 C483 1.439 . S
C482 H522 0.950 . S
C483 C482 1.439 . S
C483 N484 1.374 . S
C483 C517 1.395 . S
N484 C480 1.376 . S
N484 C483 1.374 . S
N484 Co485 2.008 . S
Co485 N484 2.008 . S
Co485 N486 1.995 1_455 S
Co485 N491 2.008 . S
Co485 N496 1.995 . S
Co485 N501 2.282 . S
Co485 N507 2.282 1_455 S
N486 Co485 1.995 1_655 S
N486 C487 1.376 . S
N486 C490 1.383 . S
C487 N486 1.376 . S
C487 C488 1.446 . S
C487 C517 1.391 1_655 S
C488 C487 1.446 . S
C488 C489 1.339 . S
C488 H523 0.949 . S
C489 C488 1.339 . S
C489 C490 1.439 . S
C489 H524 0.950 . S
C490 N486 1.383 . S
C490 C489 1.439 . S
C490 C519 1.392 . S
N491 Co485 2.008 . S
N491 C492 1.376 1_455 S
N491 C495 1.374 . S
C492 N491 1.376 1_655 S
C492 C493 1.443 . S
C492 C519 1.389 . S
C493 C492 1.443 . S
C493 C494 1.340 . S
C493 H525 0.951 . S
C494 C493 1.340 . S
C494 C495 1.439 1_655 S
C494 H526 0.950 . S
C495 N491 1.374 . S
C495 C494 1.439 1_455 S
C495 C520 1.395 . S
N496 Co485 1.995 . S
N496 C497 1.376 . S
N496 C500 1.383 . S
C497 N496 1.376 . S
C497 C498 1.446 . S
C497 C520 1.391 . S
C498 C497 1.446 . S
C498 C499 1.339 . S
C498 H527 0.949 . S
C499 C498 1.339 . S
C499 C500 1.439 . S
C499 H528 0.950 . S
C500 N496 1.383 . S
C500 C499 1.439 . S
C500 C518 1.392 . S
N501 Co485 2.282 . S
N501 C504 1.332 . S
N501 C506 1.332 . S
C502 C503 1.386 . S
C502 C505 1.388 . S
C503 C502 1.386 . S
C503 C504 1.382 . S
C503 H529 0.950 . S
C504 N501 1.332 . S
C504 C503 1.382 . S
C504 H515 0.952 . S
C505 C502 1.388 . S
C505 C506 1.382 . S
C505 H530 0.950 . S
C506 N501 1.332 . S
C506 C505 1.382 . S
C506 H516 0.948 . S
N507 Co485 2.282 1_655 S
N507 C511 1.332 . S
N507 C512 1.332 . S
C508 C509 1.388 . S
C508 C512 1.382 . S
C508 H531 0.950 . S
C509 C508 1.388 . S
C509 C510 1.386 . S
C510 C509 1.386 . S
C510 C511 1.382 . S
C510 H532 0.950 . S
C511 N507 1.332 . S
C511 C510 1.382 . S
C511 H513 0.952 . S
C512 N507 1.332 . S
C512 C508 1.382 . S
C512 H514 0.948 . S
H513 C511 0.952 . S
H514 C512 0.948 . S
H515 C504 0.952 . S
H516 C506 0.948 . S
C517 C483 1.395 . S
C517 C487 1.391 1_455 S
C518 C480 1.389 . S
C518 C500 1.392 . S
C519 C490 1.392 . S
C519 C492 1.389 . S
C520 C495 1.395 . S
C520 C497 1.391 . S
H521 C481 0.951 . S
H522 C482 0.950 . S
H523 C488 0.949 . S
H524 C489 0.950 . S
H525 C493 0.951 . S
H526 C494 0.950 . S
H527 C498 0.949 . S
H528 C499 0.950 . S
H529 C503 0.950 . S
H530 C505 0.950 . S
H531 C508 0.950 . S
H532 C510 0.950 . S
C533 C534 1.443 . S
C533 N537 1.376 . S
C533 C571 1.389 . S
C534 C533 1.443 . S
C534 C535 1.340 . S
C534 H574 0.951 . S
C535 C534 1.340 . S
C535 C536 1.439 . S
C535 H575 0.950 . S
C536 C535 1.439 . S
C536 N537 1.374 . S
C536 C570 1.395 . S
N537 C533 1.376 . S
N537 C536 1.374 . S
N537 Co538 2.008 . S
Co538 N537 2.008 . S
Co538 N539 1.995 1_455 S
Co538 N544 2.008 1_455 S
Co538 N549 1.995 . S
Co538 N554 2.282 . S
Co538 N560 2.282 1_455 S
N539 Co538 1.995 1_655 S
N539 C540 1.376 . S
N539 C543 1.383 . S
C540 N539 1.376 . S
C540 C541 1.446 . S
C540 C570 1.391 1_655 S
C541 C540 1.446 . S
C541 C542 1.339 . S
C541 H576 0.949 . S
C542 C541 1.339 . S
C542 C543 1.439 . S
C542 H577 0.950 . S
C543 N539 1.383 . S
C543 C542 1.439 . S
C543 C572 1.392 . S
N544 Co538 2.008 1_655 S
N544 C545 1.376 . S
N544 C548 1.374 1_655 S
C545 N544 1.376 . S
C545 C546 1.443 . S
C545 C572 1.389 . S
C546 C545 1.443 . S
C546 C547 1.340 . S
C546 H578 0.951 . S
C547 C546 1.340 . S
C547 C548 1.439 1_655 S
C547 H579 0.950 . S
C548 N544 1.374 1_455 S
C548 C547 1.439 1_455 S
C548 C573 1.395 . S
N549 Co538 1.995 . S
N549 C550 1.376 . S
N549 C553 1.383 . S
C550 N549 1.376 . S
C550 C551 1.446 . S
C550 C573 1.391 . S
C551 C550 1.446 . S
C551 C552 1.339 . S
C551 H580 0.949 . S
C552 C551 1.339 . S
C552 C553 1.439 . S
C552 H581 0.950 . S
C553 N549 1.383 . S
C553 C552 1.439 . S
C553 C571 1.392 . S
N554 Co538 2.282 . S
N554 C557 1.332 . S
N554 C559 1.332 . S
C555 C556 1.386 . S
C555 C558 1.388 . S
C556 C555 1.386 . S
C556 C557 1.382 . S
C556 H582 0.950 . S
C557 N554 1.332 . S
C557 C556 1.382 . S
C557 H568 0.952 . S
C558 C555 1.388 . S
C558 C559 1.382 . S
C558 H583 0.950 . S
C559 N554 1.332 . S
C559 C558 1.382 . S
C559 H569 0.948 . S
N560 Co538 2.282 1_655 S
N560 C564 1.332 . S
N560 C565 1.332 . S
C561 C562 1.388 . S
C561 C565 1.382 . S
C561 H584 0.950 . S
C562 C561 1.388 . S
C562 C563 1.386 . S
C563 C562 1.386 . S
C563 C564 1.382 . S
C563 H585 0.950 . S
C564 N560 1.332 . S
C564 C563 1.382 . S
C564 H566 0.952 . S
C565 N560 1.332 . S
C565 C561 1.382 . S
C565 H567 0.948 . S
H566 C564 0.952 . S
H567 C565 0.948 . S
H568 C557 0.952 . S
H569 C559 0.948 . S
C570 C536 1.395 . S
C570 C540 1.391 1_455 S
C571 C533 1.389 . S
C571 C553 1.392 . S
C572 C543 1.392 . S
C572 C545 1.389 . S
C573 C548 1.395 . S
C573 C550 1.391 . S
H574 C534 0.951 . S
H575 C535 0.950 . S
H576 C541 0.949 . S
H577 C542 0.950 . S
H578 C546 0.951 . S
H579 C547 0.950 . S
H580 C551 0.949 . S
H581 C552 0.950 . S
H582 C556 0.950 . S
H583 C558 0.950 . S
H584 C561 0.950 . S
H585 C563 0.950 . S
C586 C587 1.443 . S
C586 N590 1.376 . S
C586 C624 1.389 . S
C587 C586 1.443 . S
C587 C588 1.340 . S
C587 H627 0.951 . S
C588 C587 1.340 . S
C588 C589 1.439 . S
C588 H628 0.950 . S
C589 C588 1.439 . S
C589 N590 1.374 . S
C589 C623 1.395 1_565 S
N590 C586 1.376 . S
N590 C589 1.374 . S
N590 Co591 2.008 1_565 S
Co591 N590 2.008 1_545 S
Co591 N592 1.995 . S
Co591 N597 2.008 . S
Co591 N602 1.995 1_545 S
Co591 N607 2.282 . S
Co591 N613 2.282 1_545 S
N592 Co591 1.995 . S
N592 C593 1.376 . S
N592 C596 1.383 . S
C593 N592 1.376 . S
C593 C594 1.446 . S
C593 C623 1.391 . S
C594 C593 1.446 . S
C594 C595 1.339 . S
C594 H629 0.949 . S
C595 C594 1.339 . S
C595 C596 1.439 . S
C595 H630 0.950 . S
C596 N592 1.383 . S
C596 C595 1.439 . S
C596 C625 1.392 . S
N597 Co591 2.008 . S
N597 C598 1.376 . S
N597 C601 1.374 . S
C598 N597 1.376 . S
C598 C599 1.443 . S
C598 C625 1.389 . S
C599 C598 1.443 . S
C599 C600 1.340 . S
C599 H631 0.951 . S
C600 C599 1.340 . S
C600 C601 1.439 . S
C600 H632 0.950 . S
C601 N597 1.374 . S
C601 C600 1.439 . S
C601 C626 1.395 . S
N602 Co591 1.995 1_565 S
N602 C603 1.376 . S
N602 C606 1.383 . S
C603 N602 1.376 . S
C603 C604 1.446 . S
C603 C626 1.391 1_565 S
C604 C603 1.446 . S
C604 C605 1.339 . S
C604 H633 0.949 . S
C605 C604 1.339 . S
C605 C606 1.439 . S
C605 H634 0.950 . S
C606 N602 1.383 . S
C606 C605 1.439 . S
C606 C624 1.392 . S
N607 Co591 2.282 . S
N607 C610 1.332 . S
N607 C612 1.332 . S
C608 C609 1.386 . S
C608 C611 1.388 . S
C609 C608 1.386 . S
C609 C610 1.382 . S
C609 H635 0.950 . S
C610 N607 1.332 . S
C610 C609 1.382 . S
C610 H621 0.952 . S
C611 C608 1.388 . S
C611 C612 1.382 . S
C611 H636 0.950 . S
C612 N607 1.332 . S
C612 C611 1.382 . S
C612 H622 0.948 . S
N613 Co591 2.282 1_565 S
N613 C617 1.332 . S
N613 C618 1.332 . S
C614 C615 1.388 . S
C614 C618 1.382 . S
C614 H637 0.950 . S
C615 C614 1.388 . S
C615 C616 1.386 . S
C616 C615 1.386 . S
C616 C617 1.382 . S
C616 H638 0.950 . S
C617 N613 1.332 . S
C617 C616 1.382 . S
C617 H619 0.952 . S
C618 N613 1.332 . S
C618 C614 1.382 . S
C618 H620 0.948 . S
H619 C617 0.952 . S
H620 C618 0.948 . S
H621 C610 0.952 . S
H622 C612 0.948 . S
C623 C589 1.395 1_545 S
C623 C593 1.391 . S
C624 C586 1.389 . S
C624 C606 1.392 . S
C625 C596 1.392 . S
C625 C598 1.389 . S
C626 C601 1.395 . S
C626 C603 1.391 1_545 S
H627 C587 0.951 . S
H628 C588 0.950 . S
H629 C594 0.949 . S
H630 C595 0.950 . S
H631 C599 0.951 . S
H632 C600 0.950 . S
H633 C604 0.949 . S
H634 C605 0.950 . S
H635 C609 0.950 . S
H636 C611 0.950 . S
H637 C614 0.950 . S
H638 C616 0.950 . S
C639 C640 1.443 . S
C639 N643 1.376 . S
C639 C677 1.389 . S
C640 C639 1.443 . S
C640 C641 1.340 . S
C640 H680 0.951 . S
C641 C640 1.340 . S
C641 C642 1.439 . S
C641 H681 0.950 . S
C642 C641 1.439 . S
C642 N643 1.374 . S
C642 C676 1.395 . S
N643 C639 1.376 . S
N643 C642 1.374 . S
N643 Co644 2.008 . S
Co644 N643 2.008 . S
Co644 N645 1.988 1_554 S
Co644 N650 2.008 1_554 S
Co644 N655 1.995 . S
Co644 N660 2.282 1_554 S
Co644 N666 2.282 . S
N645 Co644 1.988 1_556 S
N645 C646 1.374 1_556 S
N645 C649 1.395 . S
C646 N645 1.374 1_554 S
C646 C647 1.446 1_554 S
C646 C676 1.391 . S
C647 C646 1.446 1_556 S
C647 C648 1.339 . S
C647 H682 0.949 . S
C648 C647 1.339 . S
C648 C649 1.439 . S
C648 H683 0.950 . S
C649 N645 1.395 . S
C649 C648 1.439 . S
C649 C678 1.392 . S
N650 Co644 2.008 1_556 S
N650 C651 1.376 . S
N650 C654 1.374 . S
C651 N650 1.376 . S
C651 C652 1.443 . S
C651 C678 1.389 . S
C652 C651 1.443 . S
C652 C653 1.340 . S
C652 H684 0.951 . S
C653 C652 1.340 . S
C653 C654 1.450 . S
C653 H685 0.950 . S
C654 N650 1.374 . S
C654 C653 1.450 . S
C654 C679 1.387 1_556 S
N655 Co644 1.995 . S
N655 C656 1.376 . S
N655 C659 1.383 . S
C656 N655 1.376 . S
C656 C657 1.446 . S
C656 C679 1.391 . S
C657 C656 1.446 . S
C657 C658 1.339 . S
C657 H686 0.949 . S
C658 C657 1.339 . S
C658 C659 1.439 . S
C658 H687 0.950 . S
C659 N655 1.383 . S
C659 C658 1.439 . S
C659 C677 1.392 . S
N660 Co644 2.282 1_556 S
N660 C663 1.332 . S
N660 C665 1.332 . S
C661 C662 1.386 . S
C661 C664 1.388 . S
C662 C661 1.386 . S
C662 C663 1.382 . S
C662 H688 0.950 . S
C663 N660 1.332 . S
C663 C662 1.382 . S
C663 H674 0.952 . S
C664 C661 1.388 . S
C664 C665 1.382 . S
C664 H689 0.950 . S
C665 N660 1.332 . S
C665 C664 1.382 . S
C665 H675 0.948 . S
N666 Co644 2.282 . S
N666 C670 1.332 . S
N666 C671 1.332 . S
C667 C668 1.388 . S
C667 C671 1.382 . S
C667 H690 0.950 . S
C668 C667 1.388 . S
C668 C669 1.386 . S
C669 C668 1.386 . S
C669 C670 1.382 . S
C669 H691 0.950 . S
C670 N666 1.332 . S
C670 C669 1.382 . S
C670 H672 0.952 . S
C671 N666 1.332 . S
C671 C667 1.382 . S
C671 H673 0.948 . S
H672 C670 0.952 . S
H673 C671 0.948 . S
H674 C663 0.952 . S
H675 C665 0.948 . S
C676 C642 1.395 . S
C676 C646 1.391 . S
C677 C639 1.389 . S
C677 C659 1.392 . S
C678 C649 1.392 . S
C678 C651 1.389 . S
C679 C654 1.387 1_554 S
C679 C656 1.391 . S
H680 C640 0.951 . S
H681 C641 0.950 . S
H682 C647 0.949 . S
H683 C648 0.950 . S
H684 C652 0.951 . S
H685 C653 0.950 . S
H686 C657 0.949 . S
H687 C658 0.950 . S
H688 C662 0.950 . S
H689 C664 0.950 . S
H690 C667 0.950 . S
H691 C669 0.950 . S
C692 C693 1.443 . S
C692 N696 1.376 1_565 S
C692 C730 1.389 . S
C693 C692 1.443 . S
C693 C694 1.340 . S
C693 H733 0.951 . S
C694 C693 1.340 . S
C694 C695 1.439 1_565 S
C694 H734 0.950 . S
C695 C694 1.439 1_545 S
C695 N696 1.374 . S
C695 C729 1.395 . S
N696 C692 1.376 1_545 S
N696 C695 1.374 . S
N696 Co697 2.008 . S
Co697 N696 2.008 . S
Co697 N698 1.995 . S
Co697 N703 2.008 . S
Co697 N708 1.995 . S
Co697 N713 2.282 . S
Co697 N719 2.282 1_545 S
N698 Co697 1.995 . S
N698 C699 1.376 . S
N698 C702 1.383 . S
C699 N698 1.376 . S
C699 C700 1.446 . S
C699 C729 1.391 . S
C700 C699 1.446 . S
C700 C701 1.339 . S
C700 H735 0.949 . S
C701 C700 1.339 . S
C701 C702 1.439 . S
C701 H736 0.950 . S
C702 N698 1.383 . S
C702 C701 1.439 . S
C702 C731 1.392 . S
N703 Co697 2.008 . S
N703 C704 1.376 . S
N703 C707 1.374 . S
C704 N703 1.376 . S
C704 C705 1.443 . S
C704 C731 1.389 . S
C705 C704 1.443 . S
C705 C706 1.340 . S
C705 H737 0.951 . S
C706 C705 1.340 . S
C706 C707 1.439 . S
C706 H738 0.950 . S
C707 N703 1.374 . S
C707 C706 1.439 . S
C707 C732 1.395 . S
N708 Co697 1.995 . S
N708 C709 1.376 . S
N708 C712 1.383 1_545 S
C709 N708 1.376 . S
C709 C710 1.446 1_545 S
C709 C732 1.391 . S
C710 C709 1.446 1_565 S
C710 C711 1.339 . S
C710 H739 0.949 . S
C711 C710 1.339 . S
C711 C712 1.439 . S
C711 H740 0.950 . S
C712 N708 1.383 1_565 S
C712 C711 1.439 . S
C712 C730 1.392 . S
N713 Co697 2.282 . S
N713 C716 1.332 . S
N713 C718 1.332 . S
C714 C715 1.386 . S
C714 C717 1.388 . S
C715 C714 1.386 . S
C715 C716 1.382 . S
C715 H741 0.950 . S
C716 N713 1.332 . S
C716 C715 1.382 . S
C716 H727 0.952 . S
C717 C714 1.388 . S
C717 C718 1.382 . S
C717 H742 0.950 . S
C718 N713 1.332 . S
C718 C717 1.382 . S
C718 H728 0.948 . S
N719 Co697 2.282 1_565 S
N719 C723 1.332 . S
N719 C724 1.332 . S
C720 C721 1.388 . S
C720 C724 1.382 . S
C720 H743 0.950 . S
C721 C720 1.388 . S
C721 C722 1.386 . S
C722 C721 1.386 . S
C722 C723 1.382 . S
C722 H744 0.950 . S
C723 N719 1.332 . S
C723 C722 1.382 . S
C723 H725 0.952 . S
C724 N719 1.332 . S
C724 C720 1.382 . S
C724 H726 0.948 . S
H725 C723 0.952 . S
H726 C724 0.948 . S
H727 C716 0.952 . S
H728 C718 0.948 . S
C729 C695 1.395 . S
C729 C699 1.391 . S
C730 C692 1.389 . S
C730 C712 1.392 . S
C731 C702 1.392 . S
C731 C704 1.389 . S
C732 C707 1.395 . S
C732 C709 1.391 . S
H733 C693 0.951 . S
H734 C694 0.950 . S
H735 C700 0.949 . S
H736 C701 0.950 . S
H737 C705 0.951 . S
H738 C706 0.950 . S
H739 C710 0.949 . S
H740 C711 0.950 . S
H741 C715 0.950 . S
H742 C717 0.950 . S
H743 C720 0.950 . S
H744 C722 0.950 . S
C745 C746 1.443 . S
C745 N749 1.376 . S
C745 C783 1.389 . S
C746 C745 1.443 . S
C746 C747 1.340 . S
C746 H786 0.951 . S
C747 C746 1.340 . S
C747 C748 1.439 . S
C747 H787 0.950 . S
C748 C747 1.439 . S
C748 N749 1.374 . S
C748 C782 1.395 . S
N749 C745 1.376 . S
N749 C748 1.374 . S
N749 Co750 2.008 . S
Co750 N749 2.008 . S
Co750 N751 1.995 . S
Co750 N756 2.008 . S
Co750 N761 1.995 . S
Co750 N766 2.290 . S
Co750 N772 2.282 . S
N751 Co750 1.995 . S
N751 C752 1.376 . S
N751 C755 1.383 1_554 S
C752 N751 1.376 . S
C752 C753 1.446 1_554 S
C752 C782 1.391 . S
C753 C752 1.446 1_556 S
C753 C754 1.339 . S
C753 H788 0.949 . S
C754 C753 1.339 . S
C754 C755 1.439 . S
C754 H789 0.950 . S
C755 N751 1.383 1_556 S
C755 C754 1.439 . S
C755 C784 1.392 . S
N756 Co750 2.008 . S
N756 C757 1.376 1_554 S
N756 C760 1.374 . S
C757 N756 1.376 1_556 S
C757 C758 1.443 . S
C757 C784 1.389 . S
C758 C757 1.443 . S
C758 C759 1.340 . S
C758 H790 0.951 . S
C759 C758 1.340 . S
C759 C760 1.439 1_556 S
C759 H791 0.950 . S
C760 N756 1.374 . S
C760 C759 1.439 1_554 S
C760 C785 1.395 . S
N761 Co750 1.995 . S
N761 C762 1.376 . S
N761 C765 1.383 . S
C762 N761 1.376 . S
C762 C763 1.446 . S
C762 C785 1.391 . S
C763 C762 1.446 . S
C763 C764 1.339 . S
C763 H792 0.949 . S
C764 C763 1.339 . S
C764 C765 1.439 . S
C764 H793 0.950 . S
C765 N761 1.383 . S
C765 C764 1.439 . S
C765 C783 1.392 . S
N766 Co750 2.290 . S
N766 C769 1.329 1_554 S
N766 C771 1.326 1_554 S
C767 C768 1.386 . S
C767 C770 1.388 . S
C768 C767 1.386 . S
C768 C769 1.382 . S
C768 H794 0.950 . S
C769 N766 1.329 1_556 S
C769 C768 1.382 . S
C769 H780 0.952 1_556 S
C770 C767 1.388 . S
C770 C771 1.382 . S
C770 H795 0.950 . S
C771 N766 1.326 1_556 S
C771 C770 1.382 . S
C771 H781 0.948 . S
N772 Co750 2.282 . S
N772 C776 1.332 . S
N772 C777 1.332 . S
C773 C774 1.388 . S
C773 C777 1.382 . S
C773 H796 0.950 . S
C774 C773 1.388 . S
C774 C775 1.386 . S
C775 C774 1.386 . S
C775 C776 1.382 . S
C775 H797 0.950 . S
C776 N772 1.332 . S
C776 C775 1.382 . S
C776 H778 0.952 . S
C777 N772 1.332 . S
C777 C773 1.382 . S
C777 H779 0.948 . S
H778 C776 0.952 . S
H779 C777 0.948 . S
H780 C769 0.952 1_554 S
H781 C771 0.948 . S
C782 C748 1.395 . S
C782 C752 1.391 . S
C783 C745 1.389 . S
C783 C765 1.392 . S
C784 C755 1.392 . S
C784 C757 1.389 . S
C785 C760 1.395 . S
C785 C762 1.391 . S
H786 C746 0.951 . S
H787 C747 0.950 . S
H788 C753 0.949 . S
H789 C754 0.950 . S
H790 C758 0.951 . S
H791 C759 0.950 . S
H792 C763 0.949 . S
H793 C764 0.950 . S
H794 C768 0.950 . S
H795 C770 0.950 . S
H796 C773 0.950 . S
H797 C775 0.950 . S
C798 C799 1.369 . S
C798 C800 1.419 . S
C798 H802 0.930 . S
C799 C798 1.369 . S
C799 C808 1.429 . S
C800 C798 1.419 . S
C800 C801 1.363 . S
C800 H803 0.929 . S
C801 C800 1.363 . S
C801 C807 1.428 . S
H802 C798 0.930 . S
H803 C800 0.929 . S
S804 N805 1.613 . S
S804 N806 1.610 . S
N805 S804 1.613 . S
N805 C808 1.350 . S
N806 S804 1.610 . S
N806 C807 1.351 . S
C807 C801 1.428 . S
C807 N806 1.351 . S
C807 C808 1.434 . S
C808 C799 1.429 . S
C808 N805 1.350 . S
C808 C807 1.434 . S
C809 C810 1.369 . S
C809 C811 1.419 . S
C809 H813 0.930 . S
C810 C809 1.369 . S
C810 C819 1.429 . S
C811 C809 1.419 . S
C811 C812 1.363 . S
C811 H814 0.929 . S
C812 C811 1.363 . S
C812 C818 1.428 . S
H813 C809 0.930 . S
H814 C811 0.929 . S
S815 N816 1.613 . S
S815 N817 1.610 . S
N816 S815 1.613 . S
N816 C819 1.350 . S
N817 S815 1.610 . S
N817 C818 1.351 . S
C818 C812 1.428 . S
C818 N817 1.351 . S
C818 C819 1.434 . S
C819 C810 1.429 . S
C819 N816 1.350 . S
C819 C818 1.434 . S
C820 C821 1.369 . S
C820 C822 1.419 . S
C820 H824 0.930 . S
C821 C820 1.369 . S
C821 C830 1.429 . S
C822 C820 1.419 . S
C822 C823 1.363 . S
C822 H825 0.929 . S
C823 C822 1.363 . S
C823 C829 1.428 . S
H824 C820 0.930 . S
H825 C822 0.929 . S
S826 N827 1.613 . S
S826 N828 1.610 . S
N827 S826 1.613 . S
N827 C830 1.350 . S
N828 S826 1.610 . S
N828 C829 1.351 . S
C829 C823 1.428 . S
C829 N828 1.351 . S
C829 C830 1.434 . S
C830 C821 1.429 . S
C830 N827 1.350 . S
C830 C829 1.434 . S
C831 C832 1.369 . S
C831 C833 1.419 . S
C831 H835 0.930 . S
C832 C831 1.369 . S
C832 C841 1.429 . S
C833 C831 1.419 . S
C833 C834 1.363 . S
C833 H836 0.929 . S
C834 C833 1.363 . S
C834 C840 1.428 . S
H835 C831 0.930 . S
H836 C833 0.929 . S
S837 N838 1.613 . S
S837 N839 1.610 . S
N838 S837 1.613 . S
N838 C841 1.350 . S
N839 S837 1.610 . S
N839 C840 1.351 . S
C840 C834 1.428 . S
C840 N839 1.351 . S
C840 C841 1.434 . S
C841 C832 1.429 . S
C841 N838 1.350 . S
C841 C840 1.434 . S
C842 C843 1.369 . S
C842 C844 1.419 . S
C842 H846 0.930 . S
C843 C842 1.369 . S
C843 C852 1.429 . S
C844 C842 1.419 . S
C844 C845 1.363 . S
C844 H847 0.929 . S
C845 C844 1.363 . S
C845 C851 1.428 . S
H846 C842 0.930 . S
H847 C844 0.929 . S
S848 N849 1.613 . S
S848 N850 1.610 . S
N849 S848 1.613 . S
N849 C852 1.350 . S
N850 S848 1.610 . S
N850 C851 1.351 . S
C851 C845 1.428 . S
C851 N850 1.351 . S
C851 C852 1.434 . S
C852 C843 1.429 . S
C852 N849 1.350 . S
C852 C851 1.434 . S
C853 C854 1.369 . S
C853 C855 1.419 . S
C853 H857 0.930 . S
C854 C853 1.369 . S
C854 C863 1.429 . S
C855 C853 1.419 . S
C855 C856 1.363 . S
C855 H858 0.929 . S
C856 C855 1.363 . S
C856 C862 1.428 . S
H857 C853 0.930 . S
H858 C855 0.929 . S
S859 N860 1.613 . S
S859 N861 1.610 . S
N860 S859 1.613 . S
N860 C863 1.350 . S
N861 S859 1.610 . S
N861 C862 1.351 . S
C862 C856 1.428 . S
C862 N861 1.351 . S
C862 C863 1.434 . S
C863 C854 1.429 . S
C863 N860 1.350 . S
C863 C862 1.434 . S
C864 C865 1.369 . S
C864 C866 1.419 . S
C864 H868 0.930 . S
C865 C864 1.369 . S
C865 C874 1.429 . S
C866 C864 1.419 . S
C866 C867 1.363 . S
C866 H869 0.929 . S
C867 C866 1.363 . S
C867 C873 1.428 . S
H868 C864 0.930 . S
H869 C866 0.929 . S
S870 N871 1.613 . S
S870 N872 1.610 . S
N871 S870 1.613 . S
N871 C874 1.350 . S
N872 S870 1.610 . S
N872 C873 1.351 . S
C873 C867 1.428 . S
C873 N872 1.351 . S
C873 C874 1.434 . S
C874 C865 1.429 . S
C874 N871 1.350 . S
C874 C873 1.434 . S
C875 C876 1.369 . S
C875 C877 1.419 . S
C875 H879 0.930 . S
C876 C875 1.369 . S
C876 C885 1.429 . S
C877 C875 1.419 . S
C877 C878 1.363 . S
C877 H880 0.929 . S
C878 C877 1.363 . S
C878 C884 1.428 . S
H879 C875 0.930 . S
H880 C877 0.929 . S
S881 N882 1.613 . S
S881 N883 1.610 . S
N882 S881 1.613 . S
N882 C885 1.350 . S
N883 S881 1.610 . S
N883 C884 1.351 . S
C884 C878 1.428 . S
C884 N883 1.351 . S
C884 C885 1.434 . S
C885 C876 1.429 . S
C885 N882 1.350 . S
C885 C884 1.434 . S
C886 C887 1.369 . S
C886 C888 1.419 . S
C886 H890 0.930 . S
C887 C886 1.369 . S
C887 C896 1.429 . S
C888 C886 1.419 . S
C888 C889 1.363 . S
C888 H891 0.929 . S
C889 C888 1.363 . S
C889 C895 1.428 . S
H890 C886 0.930 . S
H891 C888 0.929 . S
S892 N893 1.613 . S
S892 N894 1.610 . S
N893 S892 1.613 . S
N893 C896 1.350 . S
N894 S892 1.610 . S
N894 C895 1.351 . S
C895 C889 1.428 . S
C895 N894 1.351 . S
C895 C896 1.434 . S
C896 C887 1.429 . S
C896 N893 1.350 . S
C896 C895 1.434 . S
C897 C898 1.369 . S
C897 C899 1.419 . S
C897 H901 0.930 . S
C898 C897 1.369 . S
C898 C907 1.429 . S
C899 C897 1.419 . S
C899 C900 1.363 . S
C899 H902 0.929 . S
C900 C899 1.363 . S
C900 C906 1.428 . S
H901 C897 0.930 . S
H902 C899 0.929 . S
S903 N904 1.613 . S
S903 N905 1.610 . S
N904 S903 1.613 . S
N904 C907 1.350 . S
N905 S903 1.610 . S
N905 C906 1.351 . S
C906 C900 1.428 . S
C906 N905 1.351 . S
C906 C907 1.434 . S
C907 C898 1.429 . S
C907 N904 1.350 . S
C907 C906 1.434 . S
C908 C909 1.369 . S
C908 C910 1.419 . S
C908 H912 0.930 . S
C909 C908 1.369 . S
C909 C918 1.429 . S
C910 C908 1.419 . S
C910 C911 1.363 . S
C910 H913 0.929 . S
C911 C910 1.363 . S
C911 C917 1.428 . S
H912 C908 0.930 . S
H913 C910 0.929 . S
S914 N915 1.613 . S
S914 N916 1.610 . S
N915 S914 1.613 . S
N915 C918 1.350 . S
N916 S914 1.610 . S
N916 C917 1.351 . S
C917 C911 1.428 . S
C917 N916 1.351 . S
C917 C918 1.434 . S
C918 C909 1.429 . S
C918 N915 1.350 . S
C918 C917 1.434 . S
C919 C920 1.369 . S
C919 C921 1.419 . S
C919 H923 0.930 . S
C920 C919 1.369 . S
C920 C929 1.429 . S
C921 C919 1.419 . S
C921 C922 1.363 . S
C921 H924 0.929 . S
C922 C921 1.363 . S
C922 C928 1.428 . S
H923 C919 0.930 . S
H924 C921 0.929 . S
S925 N926 1.613 . S
S925 N927 1.610 . S
N926 S925 1.613 . S
N926 C929 1.350 . S
N927 S925 1.610 . S
N927 C928 1.351 . S
C928 C922 1.428 . S
C928 N927 1.351 . S
C928 C929 1.434 . S
C929 C920 1.429 . S
C929 N926 1.350 . S
C929 C928 1.434 . S
C930 C931 1.369 . S
C930 C932 1.419 . S
C930 H934 0.930 . S
C931 C930 1.369 . S
C931 C940 1.429 . S
C932 C930 1.419 . S
C932 C933 1.363 . S
C932 H935 0.929 . S
C933 C932 1.363 . S
C933 C939 1.428 . S
H934 C930 0.930 . S
H935 C932 0.929 . S
S936 N937 1.613 . S
S936 N938 1.610 . S
N937 S936 1.613 . S
N937 C940 1.350 . S
N938 S936 1.610 . S
N938 C939 1.351 . S
C939 C933 1.428 . S
C939 N938 1.351 . S
C939 C940 1.434 . S
C940 C931 1.429 . S
C940 N937 1.350 . S
C940 C939 1.434 . S
C941 C942 1.369 . S
C941 C943 1.419 . S
C941 H945 0.930 . S
C942 C941 1.369 . S
C942 C951 1.429 . S
C943 C941 1.419 . S
C943 C944 1.363 . S
C943 H946 0.929 . S
C944 C943 1.363 . S
C944 C950 1.428 . S
H945 C941 0.930 . S
H946 C943 0.929 . S
S947 N948 1.613 . S
S947 N949 1.610 . S
N948 S947 1.613 . S
N948 C951 1.350 . S
N949 S947 1.610 . S
N949 C950 1.351 . S
C950 C944 1.428 . S
C950 N949 1.351 . S
C950 C951 1.434 . S
C951 C942 1.429 . S
C951 N948 1.350 . S
C951 C950 1.434 . S
C952 C953 1.369 . S
C952 C954 1.419 . S
C952 H956 0.930 . S
C953 C952 1.369 . S
C953 C962 1.429 . S
C954 C952 1.419 . S
C954 C955 1.363 . S
C954 H957 0.929 . S
C955 C954 1.363 . S
C955 C961 1.428 . S
H956 C952 0.930 . S
H957 C954 0.929 . S
S958 N959 1.613 . S
S958 N960 1.610 . S
N959 S958 1.613 . S
N959 C962 1.350 . S
N960 S958 1.610 . S
N960 C961 1.351 . S
C961 C955 1.428 . S
C961 N960 1.351 . S
C961 C962 1.434 . S
C962 C953 1.429 . S
C962 N959 1.350 . S
C962 C961 1.434 . S
C963 C964 1.369 . S
C963 C965 1.419 . S
C963 H967 0.930 . S
C964 C963 1.369 . S
C964 C973 1.429 . S
C965 C963 1.419 . S
C965 C966 1.363 . S
C965 H968 0.929 . S
C966 C965 1.363 . S
C966 C972 1.428 . S
H967 C963 0.930 . S
H968 C965 0.929 . S
S969 N970 1.613 . S
S969 N971 1.610 . S
N970 S969 1.613 . S
N970 C973 1.350 . S
N971 S969 1.610 . S
N971 C972 1.351 . S
C972 C966 1.428 . S
C972 N971 1.351 . S
C972 C973 1.434 . S
C973 C964 1.429 . S
C973 N970 1.350 . S
C973 C972 1.434 . S
C974 C975 1.369 . S
C974 C976 1.419 . S
C974 H978 0.930 . S
C975 C974 1.369 . S
C975 C984 1.429 . S
C976 C974 1.419 . S
C976 C977 1.363 . S
C976 H979 0.929 . S
C977 C976 1.363 . S
C977 C983 1.428 . S
H978 C974 0.930 . S
H979 C976 0.929 . S
S980 N981 1.613 . S
S980 N982 1.610 . S
N981 S980 1.613 . S
N981 C984 1.350 . S
N982 S980 1.610 . S
N982 C983 1.351 . S
C983 C977 1.428 . S
C983 N982 1.351 . S
C983 C984 1.434 . S
C984 C975 1.429 . S
C984 N981 1.350 . S
C984 C983 1.434 . S
C985 C986 1.369 . S
C985 C987 1.419 . S
C985 H989 0.930 . S
C986 C985 1.369 . S
C986 C995 1.429 . S
C987 C985 1.419 . S
C987 C988 1.363 . S
C987 H990 0.929 . S
C988 C987 1.363 . S
C988 C994 1.428 . S
H989 C985 0.930 . S
H990 C987 0.929 . S
S991 N992 1.613 . S
S991 N993 1.610 . S
N992 S991 1.613 . S
N992 C995 1.350 . S
N993 S991 1.610 . S
N993 C994 1.351 . S
C994 C988 1.428 . S
C994 N993 1.351 . S
C994 C995 1.434 . S
C995 C986 1.429 . S
C995 N992 1.350 . S
C995 C994 1.434 . S
C996 C997 1.369 . S
C996 C998 1.419 . S
C996 H1000 0.930 . S
C997 C996 1.369 . S
C997 C1006 1.429 . S
C998 C996 1.419 . S
C998 C999 1.363 . S
C998 H1001 0.929 . S
C999 C998 1.363 . S
C999 C1005 1.428 . S
H1000 C996 0.930 . S
H1001 C998 0.929 . S
S1002 N1003 1.613 . S
S1002 N1004 1.610 . S
N1003 S1002 1.613 . S
N1003 C1006 1.350 . S
N1004 S1002 1.610 . S
N1004 C1005 1.351 . S
C1005 C999 1.428 . S
C1005 N1004 1.351 . S
C1005 C1006 1.434 . S
C1006 C997 1.429 . S
C1006 N1003 1.350 . S
C1006 C1005 1.434 . S
C1007 C1008 1.369 . S
C1007 C1009 1.419 . S
C1007 H1011 0.930 . S
C1008 C1007 1.369 . S
C1008 C1017 1.429 . S
C1009 C1007 1.419 . S
C1009 C1010 1.363 . S
C1009 H1012 0.929 . S
C1010 C1009 1.363 . S
C1010 C1016 1.428 . S
H1011 C1007 0.930 . S
H1012 C1009 0.929 . S
S1013 N1014 1.613 . S
S1013 N1015 1.610 . S
N1014 S1013 1.613 . S
N1014 C1017 1.350 . S
N1015 S1013 1.610 . S
N1015 C1016 1.351 . S
C1016 C1010 1.428 . S
C1016 N1015 1.351 . S
C1016 C1017 1.434 . S
C1017 C1008 1.429 . S
C1017 N1014 1.350 . S
C1017 C1016 1.434 . S
C1018 C1019 1.369 . S
C1018 C1020 1.419 . S
C1018 H1022 0.930 . S
C1019 C1018 1.369 . S
C1019 C1028 1.429 . S
C1020 C1018 1.419 . S
C1020 C1021 1.363 . S
C1020 H1023 0.929 . S
C1021 C1020 1.363 . S
C1021 C1027 1.428 . S
H1022 C1018 0.930 . S
H1023 C1020 0.929 . S
S1024 N1025 1.613 . S
S1024 N1026 1.610 . S
N1025 S1024 1.613 . S
N1025 C1028 1.350 . S
N1026 S1024 1.610 . S
N1026 C1027 1.351 . S
C1027 C1021 1.428 . S
C1027 N1026 1.351 . S
C1027 C1028 1.434 . S
C1028 C1019 1.429 . S
C1028 N1025 1.350 . S
C1028 C1027 1.434 . S
C1029 C1030 1.369 . S
C1029 C1031 1.419 . S
C1029 H1033 0.930 . S
C1030 C1029 1.369 . S
C1030 C1039 1.429 . S
C1031 C1029 1.419 . S
C1031 C1032 1.363 . S
C1031 H1034 0.929 . S
C1032 C1031 1.363 . S
C1032 C1038 1.428 . S
H1033 C1029 0.930 . S
H1034 C1031 0.929 . S
S1035 N1036 1.613 . S
S1035 N1037 1.610 . S
N1036 S1035 1.613 . S
N1036 C1039 1.350 . S
N1037 S1035 1.610 . S
N1037 C1038 1.351 . S
C1038 C1032 1.428 . S
C1038 N1037 1.351 . S
C1038 C1039 1.434 . S
C1039 C1030 1.429 . S
C1039 N1036 1.350 . S
C1039 C1038 1.434 . S
C1040 C1041 1.369 . S
C1040 C1042 1.419 . S
C1040 H1044 0.930 . S
C1041 C1040 1.369 . S
C1041 C1050 1.429 . S
C1042 C1040 1.419 . S
C1042 C1043 1.363 . S
C1042 H1045 0.929 . S
C1043 C1042 1.363 . S
C1043 C1049 1.428 . S
H1044 C1040 0.930 . S
H1045 C1042 0.929 . S
S1046 N1047 1.613 . S
S1046 N1048 1.610 . S
N1047 S1046 1.613 . S
N1047 C1050 1.350 . S
N1048 S1046 1.610 . S
N1048 C1049 1.351 . S
C1049 C1043 1.428 . S
C1049 N1048 1.351 . S
C1049 C1050 1.434 . S
C1050 C1041 1.429 . S
C1050 N1047 1.350 . S
C1050 C1049 1.434 . S
C1051 C1052 1.369 . S
C1051 C1053 1.419 . S
C1051 H1055 0.930 . S
C1052 C1051 1.369 . S
C1052 C1061 1.429 . S
C1053 C1051 1.419 . S
C1053 C1054 1.363 . S
C1053 H1056 0.929 . S
C1054 C1053 1.363 . S
C1054 C1060 1.428 . S
H1055 C1051 0.930 . S
H1056 C1053 0.929 . S
S1057 N1058 1.613 . S
S1057 N1059 1.610 . S
N1058 S1057 1.613 . S
N1058 C1061 1.350 . S
N1059 S1057 1.610 . S
N1059 C1060 1.351 . S
C1060 C1054 1.428 . S
C1060 N1059 1.351 . S
C1060 C1061 1.434 . S
C1061 C1052 1.429 . S
C1061 N1058 1.350 . S
C1061 C1060 1.434 . S
C801 C502 1.550 . S
C799 C31 1.525 . S
C812 C571 1.541 . S
C810 C61 1.522 . S
C823 C509 1.549 . S
C821 C121 1.543 . S
C834 C572 1.543 . S
C832 C211 1.533 . S
C845 C625 1.564 . S
C843 C1 1.565 . S
C856 C661 1.525 . S
C854 C91 1.516 . S
C865 C151 1.517 . S
C867 C721 1.558 . S
C878 C784 1.526 . S
C876 C181 1.488 . S
C889 C624 1.548 . S
C887 C80 1.552 . S
C898 C140 1.482 . S
C900 C668 1.528 . S
C911 C714 1.558 . S
C909 C200 1.517 . S
C922 C783 1.531 . S
C920 C20 1.524 . S
C931 C271 1.527 . S
C933 C562 1.550 . S
C944 C519 1.543 . S
C942 C331 1.514 . S
C953 C380 1.549 . S
C955 C555 1.547 . S
C964 C421 1.541 . S
C966 C518 1.546 . S
C977 C730 1.562 . S
C975 C241 1.565 . S
C988 C774 1.526 . S
C986 C320 1.496 . S
C999 C608 1.561 . S
C997 C361 1.544 . S
C1008 C440 1.507 . S
C1010 C677 1.525 . S
C1021 C731 1.548 . S
C1019 C301 1.529 . S
C1032 C767 1.527 . S
C1030 C391 1.503 . S
C1043 C615 1.558 . S
C1041 C451 1.545 . S
C1052 C260 1.524 . S
C1054 C678 1.532 . S
