# Generated by pormake.
# Topology ptr, (4,4)-cn, num edge types: 1
# Building blocks:
#     Node 0, Type 0, BuildingBlock: CEKHIL_clean_sbu_0, # of connection points: 4
#     Node 1, Type 0, BuildingBlock: CEKHIL_clean_sbu_0, # of connection points: 4
#     Node 2, Type 0, BuildingBlock: CEKHIL_clean_sbu_0, # of connection points: 4
#     Node 3, Type 0, BuildingBlock: CEKHIL_clean_sbu_0, # of connection points: 4
#     Node 4, Type 0, BuildingBlock: CEKHIL_clean_sbu_0, # of connection points: 4
#     Node 5, Type 0, BuildingBlock: CEKHIL_clean_sbu_0, # of connection points: 4
#     Node 6, Type 0, BuildingBlock: CEKHIL_clean_sbu_0, # of connection points: 4
#     Node 7, Type 0, BuildingBlock: CEKHIL_clean_sbu_0, # of connection points: 4
#     Node 8, Type 0, BuildingBlock: CEKHIL_clean_sbu_0, # of connection points: 4
#     Node 9, Type 0, BuildingBlock: CEKHIL_clean_sbu_0, # of connection points: 4
#     Node 10, Type 0, BuildingBlock: CEKHIL_clean_sbu_0, # of connection points: 4
#     Node 11, Type 0, BuildingBlock: CEKHIL_clean_sbu_0, # of connection points: 4
#     Node 12, Type 0, BuildingBlock: CEKHIL_clean_sbu_0, # of connection points: 4
#     Node 13, Type 0, BuildingBlock: CEKHIL_clean_sbu_0, # of connection points: 4
#     Node 14, Type 0, BuildingBlock: CEKHIL_clean_sbu_0, # of connection points: 4
#     Node 15, Type 0, BuildingBlock: CEKHIL_clean_sbu_0, # of connection points: 4
#     Node 16, Type 0, BuildingBlock: CEKHIL_clean_sbu_0, # of connection points: 4
#     Node 17, Type 0, BuildingBlock: CEKHIL_clean_sbu_0, # of connection points: 4
#     Node 18, Type 1, BuildingBlock: KUFVIS_clean_linker_0, # of connection points: 4
#     Node 19, Type 1, BuildingBlock: KUFVIS_clean_linker_0, # of connection points: 4
#     Node 20, Type 1, BuildingBlock: KUFVIS_clean_linker_0, # of connection points: 4
#     Node 21, Type 1, BuildingBlock: KUFVIS_clean_linker_0, # of connection points: 4
#     Node 22, Type 1, BuildingBlock: KUFVIS_clean_linker_0, # of connection points: 4
#     Node 23, Type 1, BuildingBlock: KUFVIS_clean_linker_0, # of connection points: 4
#     Node 24, Type 1, BuildingBlock: KUFVIS_clean_linker_0, # of connection points: 4
#     Node 25, Type 1, BuildingBlock: KUFVIS_clean_linker_0, # of connection points: 4
#     Node 26, Type 1, BuildingBlock: KUFVIS_clean_linker_0, # of connection points: 4
#     Node 27, Type 1, BuildingBlock: KUFVIS_clean_linker_0, # of connection points: 4
#     Node 28, Type 1, BuildingBlock: KUFVIS_clean_linker_0, # of connection points: 4
#     Node 29, Type 1, BuildingBlock: KUFVIS_clean_linker_0, # of connection points: 4
#     Node 30, Type 1, BuildingBlock: KUFVIS_clean_linker_0, # of connection points: 4
#     Node 31, Type 1, BuildingBlock: KUFVIS_clean_linker_0, # of connection points: 4
#     Node 32, Type 1, BuildingBlock: KUFVIS_clean_linker_0, # of connection points: 4
#     Node 33, Type 1, BuildingBlock: KUFVIS_clean_linker_0, # of connection points: 4
#     Node 34, Type 1, BuildingBlock: KUFVIS_clean_linker_0, # of connection points: 4
#     Node 35, Type 1, BuildingBlock: KUFVIS_clean_linker_0, # of connection points: 4
#     Edge 36, Type (0, 1), BuildingBlock: UVAHIK_clean_linker_0, # of connection points: 2
#     Edge 37, Type (0, 1), BuildingBlock: UVAHIK_clean_linker_0, # of connection points: 2
#     Edge 38, Type (0, 1), BuildingBlock: UVAHIK_clean_linker_0, # of connection points: 2
#     Edge 39, Type (0, 1), BuildingBlock: UVAHIK_clean_linker_0, # of connection points: 2
#     Edge 40, Type (0, 1), BuildingBlock: UVAHIK_clean_linker_0, # of connection points: 2
#     Edge 41, Type (0, 1), BuildingBlock: UVAHIK_clean_linker_0, # of connection points: 2
#     Edge 42, Type (0, 1), BuildingBlock: UVAHIK_clean_linker_0, # of connection points: 2
#     Edge 43, Type (0, 1), BuildingBlock: UVAHIK_clean_linker_0, # of connection points: 2
#     Edge 44, Type (0, 1), BuildingBlock: UVAHIK_clean_linker_0, # of connection points: 2
#     Edge 45, Type (0, 1), BuildingBlock: UVAHIK_clean_linker_0, # of connection points: 2
#     Edge 46, Type (0, 1), BuildingBlock: UVAHIK_clean_linker_0, # of connection points: 2
#     Edge 47, Type (0, 1), BuildingBlock: UVAHIK_clean_linker_0, # of connection points: 2
#     Edge 48, Type (0, 1), BuildingBlock: UVAHIK_clean_linker_0, # of connection points: 2
#     Edge 49, Type (0, 1), BuildingBlock: UVAHIK_clean_linker_0, # of connection points: 2
#     Edge 50, Type (0, 1), BuildingBlock: UVAHIK_clean_linker_0, # of connection points: 2
#     Edge 51, Type (0, 1), BuildingBlock: UVAHIK_clean_linker_0, # of connection points: 2
#     Edge 52, Type (0, 1), BuildingBlock: UVAHIK_clean_linker_0, # of connection points: 2
#     Edge 53, Type (0, 1), BuildingBlock: UVAHIK_clean_linker_0, # of connection points: 2
#     Edge 54, Type (0, 1), BuildingBlock: UVAHIK_clean_linker_0, # of connection points: 2
#     Edge 55, Type (0, 1), BuildingBlock: UVAHIK_clean_linker_0, # of connection points: 2
#     Edge 56, Type (0, 1), BuildingBlock: UVAHIK_clean_linker_0, # of connection points: 2
#     Edge 57, Type (0, 1), BuildingBlock: UVAHIK_clean_linker_0, # of connection points: 2
#     Edge 58, Type (0, 1), BuildingBlock: UVAHIK_clean_linker_0, # of connection points: 2
#     Edge 59, Type (0, 1), BuildingBlock: UVAHIK_clean_linker_0, # of connection points: 2
#     Edge 60, Type (0, 1), BuildingBlock: UVAHIK_clean_linker_0, # of connection points: 2
#     Edge 61, Type (0, 1), BuildingBlock: UVAHIK_clean_linker_0, # of connection points: 2
#     Edge 62, Type (0, 1), BuildingBlock: UVAHIK_clean_linker_0, # of connection points: 2
#     Edge 63, Type (0, 1), BuildingBlock: UVAHIK_clean_linker_0, # of connection points: 2
#     Edge 64, Type (0, 1), BuildingBlock: UVAHIK_clean_linker_0, # of connection points: 2
#     Edge 65, Type (0, 1), BuildingBlock: UVAHIK_clean_linker_0, # of connection points: 2
#     Edge 66, Type (0, 1), BuildingBlock: UVAHIK_clean_linker_0, # of connection points: 2
#     Edge 67, Type (0, 1), BuildingBlock: UVAHIK_clean_linker_0, # of connection points: 2
#     Edge 68, Type (0, 1), BuildingBlock: UVAHIK_clean_linker_0, # of connection points: 2
#     Edge 69, Type (0, 1), BuildingBlock: UVAHIK_clean_linker_0, # of connection points: 2
#     Edge 70, Type (0, 1), BuildingBlock: UVAHIK_clean_linker_0, # of connection points: 2
#     Edge 71, Type (0, 1), BuildingBlock: UVAHIK_clean_linker_0, # of connection points: 2
#     Edge 72, Type (0, 1), BuildingBlock: UVAHIK_clean_linker_0, # of connection points: 2
#     Edge 73, Type (0, 1), BuildingBlock: UVAHIK_clean_linker_0, # of connection points: 2
#     Edge 74, Type (0, 1), BuildingBlock: UVAHIK_clean_linker_0, # of connection points: 2
#     Edge 75, Type (0, 1), BuildingBlock: UVAHIK_clean_linker_0, # of connection points: 2
#     Edge 76, Type (0, 1), BuildingBlock: UVAHIK_clean_linker_0, # of connection points: 2
#     Edge 77, Type (0, 1), BuildingBlock: UVAHIK_clean_linker_0, # of connection points: 2
#     Edge 78, Type (0, 1), BuildingBlock: UVAHIK_clean_linker_0, # of connection points: 2
#     Edge 79, Type (0, 1), BuildingBlock: UVAHIK_clean_linker_0, # of connection points: 2
#     Edge 80, Type (0, 1), BuildingBlock: UVAHIK_clean_linker_0, # of connection points: 2
#     Edge 81, Type (0, 1), BuildingBlock: UVAHIK_clean_linker_0, # of connection points: 2
#     Edge 82, Type (0, 1), BuildingBlock: UVAHIK_clean_linker_0, # of connection points: 2
#     Edge 83, Type (0, 1), BuildingBlock: UVAHIK_clean_linker_0, # of connection points: 2
#     Edge 84, Type (0, 1), BuildingBlock: UVAHIK_clean_linker_0, # of connection points: 2
#     Edge 85, Type (0, 1), BuildingBlock: UVAHIK_clean_linker_0, # of connection points: 2
#     Edge 86, Type (0, 1), BuildingBlock: UVAHIK_clean_linker_0, # of connection points: 2
#     Edge 87, Type (0, 1), BuildingBlock: UVAHIK_clean_linker_0, # of connection points: 2
#     Edge 88, Type (0, 1), BuildingBlock: UVAHIK_clean_linker_0, # of connection points: 2
#     Edge 89, Type (0, 1), BuildingBlock: UVAHIK_clean_linker_0, # of connection points: 2
#     Edge 90, Type (0, 1), BuildingBlock: UVAHIK_clean_linker_0, # of connection points: 2
#     Edge 91, Type (0, 1), BuildingBlock: UVAHIK_clean_linker_0, # of connection points: 2
#     Edge 92, Type (0, 1), BuildingBlock: UVAHIK_clean_linker_0, # of connection points: 2
#     Edge 93, Type (0, 1), BuildingBlock: UVAHIK_clean_linker_0, # of connection points: 2
#     Edge 94, Type (0, 1), BuildingBlock: UVAHIK_clean_linker_0, # of connection points: 2
#     Edge 95, Type (0, 1), BuildingBlock: UVAHIK_clean_linker_0, # of connection points: 2
#     Edge 96, Type (0, 1), BuildingBlock: UVAHIK_clean_linker_0, # of connection points: 2
#     Edge 97, Type (0, 1), BuildingBlock: UVAHIK_clean_linker_0, # of connection points: 2
#     Edge 98, Type (0, 1), BuildingBlock: UVAHIK_clean_linker_0, # of connection points: 2
#     Edge 99, Type (0, 1), BuildingBlock: UVAHIK_clean_linker_0, # of connection points: 2
#     Edge 100, Type (0, 1), BuildingBlock: UVAHIK_clean_linker_0, # of connection points: 2
#     Edge 101, Type (0, 1), BuildingBlock: UVAHIK_clean_linker_0, # of connection points: 2
#     Edge 102, Type (0, 1), BuildingBlock: UVAHIK_clean_linker_0, # of connection points: 2
#     Edge 103, Type (0, 1), BuildingBlock: UVAHIK_clean_linker_0, # of connection points: 2
#     Edge 104, Type (0, 1), BuildingBlock: UVAHIK_clean_linker_0, # of connection points: 2
#     Edge 105, Type (0, 1), BuildingBlock: UVAHIK_clean_linker_0, # of connection points: 2
#     Edge 106, Type (0, 1), BuildingBlock: UVAHIK_clean_linker_0, # of connection points: 2
#     Edge 107, Type (0, 1), BuildingBlock: UVAHIK_clean_linker_0, # of connection points: 2
# Relax obj value: 0.047
# Max RMSD: 0.105
# Mean RMSD: 0.081
data_MOF--net-ptr--node1-CEKHIL_clean_sbu_0--node2-KUFVIS_clean_linker_0--edge1-UVAHIK_clean_linker_0
_symmetry_space_group_name_H-M    P1
_symmetry_Int_Tables_number       1
_symmetry_cell_setting            triclinic
loop_
_symmetry_equiv_pos_as_xyz
'x, y, z'
_cell_length_a     101.42754
_cell_length_b     100.51862
_cell_length_c     63.554326
_cell_angle_alpha  90.727971
_cell_angle_beta   89.668456
_cell_angle_gamma 120.82965
loop_
_atom_site_label
_atom_site_type_symbol
_atom_site_fract_x
_atom_site_fract_y
_atom_site_fract_z
_atom_type_partial_charge
Co0 Co 0.0115 0.35352 0.00749 0.0
O1 O 0.01974 0.34496 0.02674 0.0
O2 O 0.03381 0.36496 0.0062 0.0
C3 C 0.99331 0.33026 0.99395 0.0
O4 O 0.00721 0.36532 0.98512 0.0
Co5 Co 0.97761 0.34545 0.01093 0.0
O6 O 0.982 0.35708 0.98439 0.0
C7 C 1.00116 0.36933 0.03933 0.0
C8 C 0.03326 0.35527 0.02007 0.0
C9 C 0.99559 0.36555 0.97738 0.0
O10 O 0.01182 0.36811 0.03001 0.0
O11 O 0.98688 0.3606 0.03495 0.0
O12 O 0.00733 0.33707 0.98703 0.0
O13 O 0.99101 0.33711 0.00962 0.0
Co14 Co 0.66327 0.65937 0.01295 0.0
O15 O 0.67827 0.66574 0.99071 0.0
O16 O 0.67357 0.64766 0.01401 0.0
C17 C 0.67025 0.68371 0.02367 0.0
O18 O 0.64907 0.64969 0.03822 0.0
Co19 Co 0.63788 0.66797 0.01381 0.0
O20 O 0.63355 0.65933 0.04251 0.0
C21 C 0.63362 0.64108 0.98814 0.0
C22 C 0.68156 0.65578 0.99801 0.0
C23 C 0.63863 0.65074 0.04847 0.0
O24 O 0.64676 0.64329 0.9939 0.0
O25 O 0.6285 0.64989 0.99368 0.0
O26 O 0.67773 0.67721 0.03008 0.0
O27 O 0.65953 0.6758 0.01009 0.0
Co28 Co 0.35418 0.00613 0.01047 0.0
O29 O 0.34505 0.01403 0.99168 0.0
O30 O 0.36571 0.02871 0.01094 0.0
C31 C 0.33156 0.98828 0.02525 0.0
O32 O 0.36658 1.00212 0.03216 0.0
Co33 Co 0.34549 0.97165 0.00713 0.0
O34 O 0.35838 0.97666 0.03267 0.0
C35 C 0.36745 0.99443 0.97683 0.0
C36 C 0.35556 0.02782 0.99765 0.0
C37 C 0.36706 0.99046 0.03951 0.0
O38 O 0.36764 0.00564 0.98719 0.0
O39 O 0.35834 0.98013 0.98116 0.0
O40 O 0.33867 1.00259 0.03181 0.0
O41 O 0.33772 0.98553 0.00927 0.0
Co42 Co 1.00439 0.65684 0.01031 0.0
O43 O 0.99787 0.6669 0.99093 0.0
O44 O 0.98212 0.64674 0.01023 0.0
C45 C 0.02317 0.67916 0.02514 0.0
O46 O 0.00686 0.64364 0.03246 0.0
Co47 Co 0.03771 0.66278 0.00881 0.0
O48 O 0.03161 0.65019 0.03463 0.0
C49 C 0.0145 0.64132 0.9779 0.0
C50 C 0.9839 0.6571 0.99663 0.0
C51 C 0.01769 0.64225 0.0407 0.0
O52 O 1.00381 0.64243 0.98735 0.0
O53 O 0.0287 0.64947 0.98306 0.0
O54 O 0.00903 0.67313 0.03136 0.0
O55 O 0.02527 0.67217 0.00952 0.0
Co56 Co 0.35172 0.35183 0.00696 0.0
O57 O 0.33521 0.34174 0.027 0.0
O58 O 0.34023 0.36234 0.00859 0.0
C59 C 0.34701 0.32951 0.99109 0.0
O60 O 0.3671 0.36528 0.98452 0.0
Co61 Co 0.37877 0.34573 0.00391 0.0
O62 O 0.38443 0.35819 0.9779 0.0
C63 C 0.37791 0.36564 0.03819 0.0
C64 C 0.33141 0.35183 0.02201 0.0
C65 C 0.37858 0.3665 0.97411 0.0
O66 O 0.36638 0.36559 0.02968 0.0
O67 O 0.38337 0.35738 0.03137 0.0
O68 O 0.33917 0.33593 0.9859 0.0
O69 O 0.35679 0.3363 0.00609 0.0
Co70 Co 0.6592 1.00292 0.00959 0.0
O71 O 0.66722 0.99459 0.02973 0.0
O72 O 0.64883 0.98055 0.00675 0.0
C73 C 0.68241 0.02235 -0.0015 0.0
O74 O 0.64797 0.00702 0.98624 0.0
Co75 Co 0.66526 0.03648 0.01309 0.0
O76 O 0.65604 0.03239 0.98461 0.0
C77 C 0.64097 0.01156 0.03925 0.0
C78 C 0.65771 0.98102 0.02178 0.0
C79 C 0.64803 0.01857 0.97757 0.0
O80 O 0.64339 1.00133 0.03055 0.0
O81 O 0.64906 0.02606 0.0353 0.0
O82 O 0.67666 0.0084 0.99091 0.0
O83 O 0.67458 0.02388 0.01341 0.0
Co84 Co 0.67673 0.68556 0.3387 0.0
O85 O 0.68473 0.67801 0.35988 0.0
O86 O 0.69903 0.69796 0.33942 0.0
C87 C 0.6601 0.6617 0.32521 0.0
O88 O 0.6728 0.6965 0.31465 0.0
Co89 Co 0.64205 0.67527 0.33672 0.0
O90 O 0.64747 0.68614 0.3095 0.0
C91 C 0.66305 0.70023 0.36654 0.0
C92 C 0.69835 0.68864 0.35397 0.0
C93 C 0.66138 0.69556 0.30445 0.0
O94 O 0.67484 0.6998 0.35976 0.0
O95 O 0.6493 0.69083 0.36028 0.0
O96 O 0.6744 0.66906 0.3194 0.0
O97 O 0.65659 0.66852 0.33954 0.0
Co98 Co 0.32906 0.98877 0.34595 0.0
O99 O 0.34669 0.99879 0.32765 0.0
O100 O 0.34062 0.97834 0.34715 0.0
C101 C 0.33241 0.01105 0.36031 0.0
O102 O 0.31247 0.9754 0.36707 0.0
Co103 Co 0.30164 0.9943 0.34386 0.0
O104 O 0.29454 0.98209 0.37011 0.0
C105 C 0.30467 0.97405 0.31215 0.0
C106 C 0.35003 0.9886 0.33389 0.0
C107 C 0.30033 0.97404 0.37568 0.0
O108 O 0.31591 0.97466 0.32233 0.0
O109 O 0.29856 0.98208 0.31724 0.0
O110 O 0.34006 0.00492 0.36751 0.0
O111 O 0.32373 0.00404 0.34434 0.0
Co112 Co 0.0215 0.33969 0.34403 0.0
O113 O 0.01194 0.34655 0.32428 0.0
O114 O 0.03274 0.3622 0.34273 0.0
C115 C 0.99916 0.32231 0.35986 0.0
O116 O 0.03441 0.33702 0.36634 0.0
Co117 Co 0.01344 0.30539 0.34422 0.0
O118 O 0.02714 0.31189 0.36911 0.0
C119 C 0.03419 0.32664 0.31161 0.0
C120 C 0.02239 0.36062 0.32928 0.0
C121 C 0.03554 0.32604 0.37474 0.0
O122 O 0.03471 0.33833 0.32108 0.0
O123 O 0.02523 0.31259 0.3172 0.0
O124 O 1.00618 0.33686 0.36531 0.0
O125 O 1.00528 0.31899 0.34438 0.0
Co126 Co 0.67285 0.99127 0.34325 0.0
O127 O 0.66513 1.00013 0.32369 0.0
O128 O 0.6505 0.98026 0.34411 0.0
C129 C 0.69131 0.01429 0.35683 0.0
O130 O 0.67679 0.97932 0.36576 0.0
Co131 Co 0.70667 0.99877 0.33979 0.0
O132 O 0.70202 0.98754 0.36678 0.0
C133 C 0.68319 0.9764 0.31022 0.0
C134 C 0.65145 0.99002 0.33005 0.0
C135 C 0.68839 0.97919 0.37379 0.0
O136 O 0.67245 0.9766 0.32088 0.0
O137 O 0.69751 0.98549 0.31397 0.0
O138 O 0.67727 0.0079 0.36361 0.0
O139 O 0.6934 0.00722 0.34127 0.0
Co140 Co 0.01961 0.68601 0.3426 0.0
O141 O 1.00219 0.67577 0.3612 0.0
O142 O 0.00682 0.69509 0.34023 0.0
C143 C 0.0177 0.66402 0.32942 0.0
O144 O 0.03583 0.69917 0.32086 0.0
Co145 Co 0.0482 0.6826 0.34782 0.0
O146 O 0.05562 0.69508 0.32184 0.0
C147 C 0.0437 0.70322 0.37658 0.0
C148 C 0.99786 0.68496 0.35398 0.0
C149 C 0.04889 0.70167 0.31406 0.0
O150 O 0.03236 0.70147 0.36536 0.0
O151 O 0.05041 0.6955 0.37341 0.0
O152 O 0.00918 0.66909 0.32202 0.0
O153 O 0.02609 0.67162 0.34541 0.0
Co154 Co 0.32681 0.33719 0.34181 0.0
O155 O 0.33497 0.32968 0.36287 0.0
O156 O 0.31657 0.31472 0.34043 0.0
C157 C 0.3501 0.35627 0.33034 0.0
O158 O 0.31569 0.34052 0.31746 0.0
Co159 Co 0.33316 0.37098 0.34265 0.0
O160 O 0.32431 0.36591 0.31398 0.0
C161 C 0.30792 0.34667 0.36852 0.0
C162 C 0.32571 0.31585 0.35552 0.0
C163 C 0.31611 0.3519 0.3077 0.0
O164 O 0.31082 0.33622 0.36206 0.0
O165 O 0.31583 0.36094 0.36328 0.0
O166 O 0.34438 0.34213 0.32355 0.0
O167 O 0.34218 0.35823 0.34467 0.0
Co168 Co 0.34372 0.02053 0.67253 0.0
O169 O 0.35135 0.01106 0.69133 0.0
O170 O 0.36597 0.03175 0.67217 0.0
C171 C 0.32539 0.99803 0.65747 0.0
O172 O 0.34042 0.03344 0.65095 0.0
Co173 Co 0.31 0.01335 0.6746 0.0
O174 O 0.31569 0.02699 0.6498 0.0
C175 C 0.33255 0.03372 0.70668 0.0
C176 C 0.36506 0.02162 0.68553 0.0
C177 C 0.32952 0.03498 0.6434 0.0
O178 O 0.34366 0.03426 0.69601 0.0
O179 O 0.31838 0.02479 0.70189 0.0
O180 O 0.33955 0.00458 0.65108 0.0
O181 O 0.32306 0.00462 0.67338 0.0
Co182 Co 0.99378 0.32232 0.67504 0.0
O183 O 0.01174 0.3314 0.6574 0.0
O184 O 1.00537 0.31204 0.6792 0.0
C185 C 0.99676 0.34506 0.68673 0.0
O186 O 0.97656 0.31035 0.69618 0.0
Co187 Co 0.96688 0.32798 0.66648 0.0
O188 O 0.95915 0.31779 0.69406 0.0
C189 C 0.97038 0.30556 0.64013 0.0
C190 C 0.01504 0.32168 0.66552 0.0
C191 C 0.96436 0.31005 0.70273 0.0
O192 O 0.98115 0.3069 0.65221 0.0
O193 O 0.9643 0.31397 0.64205 0.0
O194 O 1.00432 0.33935 0.69544 0.0
O195 O 0.98876 0.33759 0.67041 0.0
Co196 Co 0.68869 0.67397 0.67697 0.0
O197 O 0.67977 0.68206 0.65799 0.0
O198 O 0.70047 0.69647 0.67733 0.0
C199 C 0.66605 0.6563 0.69188 0.0
O200 O 0.70101 0.67009 0.69884 0.0
Co201 Co 0.67991 0.63942 0.6747 0.0
O202 O 0.69326 0.64475 0.69982 0.0
C203 C 0.70141 0.66164 0.64351 0.0
C204 C 0.69046 0.6958 0.66399 0.0
C205 C 0.70177 0.65866 0.70639 0.0
O206 O 0.70203 0.67311 0.65376 0.0
O207 O 0.69215 0.64744 0.64817 0.0
O208 O 0.67318 0.67066 0.69823 0.0
O209 O 0.67219 0.65339 0.67602 0.0
Co210 Co 0.33786 0.32491 0.6773 0.0
O211 O 0.33081 0.33485 0.65841 0.0
O212 O 0.31564 0.31469 0.6781 0.0
C213 C 0.35693 0.34725 0.69167 0.0
O214 O 0.34071 0.31174 0.699 0.0
Co215 Co 0.37108 0.33062 0.67536 0.0
O216 O 0.36569 0.31945 0.70244 0.0
C217 C 0.34767 0.30981 0.64409 0.0
C218 C 0.31698 0.32495 0.66462 0.0
C219 C 0.35172 0.31111 0.70804 0.0
O220 O 0.33697 0.31054 0.65411 0.0
O221 O 0.3619 0.31794 0.64909 0.0
O222 O 0.34291 0.34129 0.6984 0.0
O223 O 0.35874 0.34015 0.67592 0.0
Co224 Co 0.68602 0.01782 0.67349 0.0
O225 O 0.66908 0.00848 0.69289 0.0
O226 O 0.67502 0.02891 0.67344 0.0
C227 C 0.68116 0.99505 0.65887 0.0
O228 O 0.70212 0.03043 0.65126 0.0
Co229 Co 0.71236 0.01051 0.67447 0.0
O230 O 0.71981 0.02335 0.64885 0.0
C231 C 0.71116 0.0315 0.7065 0.0
C232 C 0.66582 0.01878 0.68703 0.0
C233 C 0.71422 0.0315 0.64286 0.0
O234 O 0.70034 0.03184 0.69643 0.0
O235 O 0.71622 0.02256 0.70139 0.0
O236 O 0.67372 1.00163 0.65253 0.0
O237 O 0.69045 1.00188 0.67435 0.0
Co238 Co 0.99164 0.66835 0.67484 0.0
O239 O 0.99897 0.65958 0.69522 0.0
O240 O 0.98005 0.64588 0.67276 0.0
C241 C 0.01526 0.68646 0.66318 0.0
O242 O 0.98104 0.67315 0.65131 0.0
Co243 Co 1.00017 0.70271 0.67788 0.0
O244 O 0.99049 0.6988 0.64974 0.0
C245 C 0.97522 0.67916 0.70464 0.0
C246 C 0.9888 0.64608 0.6878 0.0
C247 C 0.98184 0.68508 0.64265 0.0
O248 O 0.97657 0.66825 0.69596 0.0
O249 O 0.98414 0.69353 0.70048 0.0
O250 O 0.00852 0.67237 0.65581 0.0
O251 O 0.00809 0.68888 0.67819 0.0
H252 H 0.21877 0.33598 0.14471 0.0
H253 H 0.18173 0.33385 0.10997 0.0
H254 H 0.18553 0.34218 0.17762 0.0
H255 H 0.16095 0.33182 0.17696 0.0
H256 H 0.1265 0.33531 0.14364 0.0
H257 H 0.16683 0.34358 0.11059 0.0
C258 C 0.20827 0.33637 0.14441 0.0
C259 C 0.20254 0.3387 0.16315 0.0
C260 C 0.20098 0.33498 0.12527 0.0
C261 C 0.18741 0.33554 0.12493 0.0
C262 C 0.18117 0.33779 0.14381 0.0
C263 C 0.18926 0.33972 0.16289 0.0
C264 C 0.1662 0.33769 0.14374 0.0
C265 C 0.15731 0.33436 0.16237 0.0
C266 C 0.14317 0.33372 0.16235 0.0
C267 C 0.13747 0.33586 0.14361 0.0
C268 C 0.14585 0.33917 0.12495 0.0
C269 C 0.16036 0.3405 0.12509 0.0
H270 H 0.66322 0.8775 0.1398 0.0
H271 H 0.66933 0.84382 0.10667 0.0
H272 H 0.67677 0.85028 0.17427 0.0
H273 H 0.67089 0.82634 0.17432 0.0
H274 H 0.68844 0.80045 0.14429 0.0
H275 H 0.68345 0.83322 0.10814 0.0
C276 C 0.66586 0.86832 0.14012 0.0
C277 C 0.66923 0.86408 0.15926 0.0
C278 C 0.66616 0.86127 0.12124 0.0
C279 C 0.66975 0.84948 0.12142 0.0
C280 C 0.67344 0.84496 0.14061 0.0
C281 C 0.6735 0.85282 0.15938 0.0
C282 C 0.67723 0.83224 0.14132 0.0
C283 C 0.67571 0.82425 0.16033 0.0
C284 C 0.68029 0.81326 0.16153 0.0
C285 C 0.68563 0.8095 0.14351 0.0
C286 C 0.68625 0.81628 0.1242 0.0
C287 C 0.68233 0.8278 0.12314 0.0
H288 H 0.21804 0.88667 0.14386 0.0
H289 H 0.1768 0.85534 0.11064 0.0
H290 H 0.18268 0.84771 0.1763 0.0
H291 H 0.15808 0.83686 0.17806 0.0
H292 H 0.11892 0.80081 0.14619 0.0
H293 H 0.15933 0.83024 0.11054 0.0
C294 C 0.2068 0.87618 0.14363 0.0
C295 C 0.201 0.86778 0.16204 0.0
C296 C 0.19828 0.87152 0.12506 0.0
C297 C 0.18348 0.85826 0.12495 0.0
C298 C 0.1773 0.84938 0.1435 0.0
C299 C 0.18658 0.85418 0.16187 0.0
C300 C 0.16108 0.83573 0.14411 0.0
C301 C 0.15296 0.83088 0.16343 0.0
C302 C 0.13787 0.81824 0.1642 0.0
C303 C 0.13049 0.81077 0.14554 0.0
C304 C 0.13808 0.81522 0.1262 0.0
C305 C 0.15346 0.82741 0.12553 0.0
H306 H 0.34187 0.12663 0.8779 0.0
H307 H 0.34406 0.16516 0.91049 0.0
H308 H 0.33287 0.15736 0.84375 0.0
H309 H 0.33995 0.18145 0.84269 0.0
H310 H 0.32882 0.21189 0.87508 0.0
H311 H 0.33208 0.17786 0.91029 0.0
C312 C 0.34097 0.13694 0.87765 0.0
C313 C 0.33768 0.14155 0.8588 0.0
C314 C 0.34302 0.14528 0.89622 0.0
C315 C 0.34202 0.15873 0.89592 0.0
C316 C 0.33838 0.1636 0.87698 0.0
C317 C 0.33621 0.15466 0.85846 0.0
C318 C 0.33624 0.17743 0.87653 0.0
C319 C 0.33696 0.18487 0.85727 0.0
C320 C 0.33363 0.19684 0.85654 0.0
C321 C 0.33061 0.20213 0.87531 0.0
C322 C 0.33034 0.1955 0.89455 0.0
C323 C 0.33296 0.1831 0.89521 0.0
H324 H 0.7984 0.12004 0.87767 0.0
H325 H 0.83167 0.16047 0.91147 0.0
H326 H 0.83485 0.15685 0.84357 0.0
H327 H 0.84774 0.1818 0.84444 0.0
H328 H 0.88958 0.21547 0.87382 0.0
H329 H 0.85683 0.17659 0.9097 0.0
C330 C 0.80882 0.13135 0.87767 0.0
C331 C 0.81587 0.13789 0.85861 0.0
C332 C 0.81461 0.13929 0.8967 0.0
C333 C 0.82768 0.1543 0.89664 0.0
C334 C 0.83546 0.16108 0.87751 0.0
C335 C 0.82926 0.15253 0.85854 0.0
C336 C 0.85011 0.17671 0.87711 0.0
C337 C 0.85491 0.18547 0.85832 0.0
C338 C 0.86924 0.19914 0.8571 0.0
C339 C 0.87858 0.20474 0.87483 0.0
C340 C 0.87396 0.19686 0.89386 0.0
C341 C 0.85983 0.1828 0.89503 0.0
H342 H 0.79647 0.67572 0.87457 0.0
H343 H 0.82529 0.66265 0.90583 0.0
H344 H 0.83428 0.67799 0.84106 0.0
H345 H 0.84418 0.66298 0.83941 0.0
H346 H 0.88034 0.66154 0.87158 0.0
H347 H 0.85094 0.6726 0.90655 0.0
C348 C 0.80662 0.67471 0.87438 0.0
C349 C 0.81491 0.67731 0.85573 0.0
C350 C 0.81044 0.66958 0.89238 0.0
C351 C 0.82297 0.66729 0.89198 0.0
C352 C 0.83205 0.67046 0.87361 0.0
C353 C 0.82777 0.67549 0.85549 0.0
C354 C 0.8455 0.66799 0.8731 0.0
C355 C 0.85026 0.66434 0.85395 0.0
C356 C 0.8628 0.66206 0.85339 0.0
C357 C 0.87053 0.66313 0.87201 0.0
C358 C 0.8662 0.66677 0.8911 0.0
C359 C 0.8538 0.66931 0.8917 0.0
H360 H 0.8869 0.67244 0.47654 0.0
H361 H 0.84935 0.66959 0.4422 0.0
H362 H 0.85362 0.6784 0.50974 0.0
H363 H 0.82904 0.66769 0.50949 0.0
H364 H 0.79399 0.67057 0.4769 0.0
H365 H 0.83407 0.67899 0.44296 0.0
C366 C 0.87636 0.67275 0.47633 0.0
C367 C 0.87071 0.67511 0.49511 0.0
C368 C 0.86888 0.6711 0.45726 0.0
C369 C 0.8552 0.67149 0.45707 0.0
C370 C 0.84904 0.67378 0.476 0.0
C371 C 0.85731 0.67594 0.49497 0.0
C372 C 0.83392 0.67342 0.47617 0.0
C373 C 0.8252 0.67008 0.49498 0.0
C374 C 0.81098 0.66927 0.49525 0.0
C375 C 0.80502 0.67123 0.47664 0.0
C376 C 0.81318 0.67448 0.45779 0.0
C377 C 0.82777 0.67597 0.45761 0.0
H378 H 0.33893 0.21717 0.47531 0.0
H379 H 0.34417 0.18299 0.44165 0.0
H380 H 0.33726 0.1801 0.50944 0.0
H381 H 0.35055 0.16883 0.50918 0.0
H382 H 0.34788 0.12945 0.47869 0.0
H383 H 0.33569 0.15778 0.44399 0.0
C384 C 0.33939 0.20661 0.4753 0.0
C385 C 0.33828 0.19937 0.49429 0.0
C386 C 0.34113 0.20055 0.45632 0.0
C387 C 0.34212 0.18708 0.45642 0.0
C388 C 0.34108 0.17947 0.47563 0.0
C389 C 0.33865 0.18565 0.49446 0.0
C390 C 0.34303 0.16555 0.47633 0.0
C391 C 0.34786 0.16175 0.49512 0.0
C392 C 0.3495 0.14872 0.49601 0.0
C393 C 0.34684 0.13967 0.47798 0.0
C394 C 0.34202 0.143 0.45931 0.0
C395 C 0.33998 0.1558 0.45843 0.0
H396 H 0.88835 0.21557 0.47601 0.0
H397 H 0.84433 0.1905 0.44629 0.0
H398 H 0.85164 0.1769 0.50768 0.0
H399 H 0.82715 0.16923 0.51194 0.0
H400 H 0.78643 0.13533 0.48018 0.0
H401 H 0.82659 0.1647 0.44395 0.0
C402 C 0.87656 0.20597 0.4762 0.0
C403 C 0.87098 0.1965 0.49383 0.0
C404 C 0.86708 0.20372 0.45907 0.0
C405 C 0.85163 0.19174 0.45944 0.0
C406 C 0.84565 0.1818 0.47701 0.0
C407 C 0.85562 0.18435 0.49412 0.0
C408 C 0.82909 0.16904 0.47776 0.0
C409 C 0.82138 0.1639 0.49727 0.0
C410 C 0.80604 0.15174 0.49815 0.0
C411 C 0.79812 0.14507 0.47945 0.0
C412 C 0.80538 0.14978 0.45991 0.0
C413 C 0.82092 0.16159 0.45909 0.0
H414 H 0.02352 0.46864 0.2065 0.0
H415 H 0.00832 0.49553 0.23994 0.0
H416 H 0.01864 0.50247 0.17313 0.0
H417 H 1.00324 0.51121 0.17289 0.0
H418 H 0.99799 0.54557 0.20544 0.0
H419 H 0.01373 0.51992 0.23962 0.0
C420 C 0.02101 0.47792 0.20658 0.0
C421 C 0.02127 0.48501 0.18774 0.0
C422 C 0.01657 0.48185 0.22535 0.0
C423 C 0.01241 0.49323 0.22539 0.0
C424 C 0.01317 0.50114 0.20663 0.0
C425 C 0.01772 0.4968 0.18785 0.0
C426 C 0.00886 0.51349 0.20642 0.0
C427 C 1.00415 0.51725 0.1875 0.0
C428 C 1.00038 0.52887 0.18713 0.0
C429 C 1.0006 0.53637 0.20584 0.0
C430 C 1.00515 0.53302 0.22479 0.0
C431 C 0.00961 0.52186 0.22499 0.0
H432 H 0.46628 0.45344 0.20793 0.0
H433 H 0.49969 0.49324 0.24269 0.0
H434 H 0.50315 0.4906 0.17472 0.0
H435 H 0.51614 0.51581 0.17671 0.0
H436 H 0.55785 0.54854 0.20748 0.0
H437 H 0.52514 0.50818 0.24092 0.0
C438 C 0.47677 0.46471 0.20822 0.0
C439 C 0.48397 0.47147 0.18932 0.0
C440 C 0.4825 0.47237 0.22742 0.0
C441 C 0.4957 0.48727 0.22771 0.0
C442 C 0.50364 0.49422 0.20875 0.0
C443 C 0.49746 0.48603 0.18957 0.0
C444 C 0.51843 0.50967 0.20882 0.0
C445 C 0.5233 0.51904 0.19059 0.0
C446 C 0.53757 0.53285 0.1901 0.0
C447 C 0.54687 0.53775 0.2079 0.0
C448 C 0.54229 0.52903 0.22624 0.0
C449 C 0.52817 0.51499 0.22675 0.0
H450 H 0.4631 0.00647 0.2064 0.0
H451 H 0.4907 0.99263 0.23935 0.0
H452 H 0.49724 1.00229 0.17243 0.0
H453 H 0.50723 0.98786 0.17233 0.0
H454 H 0.54253 0.98523 0.20491 0.0
H455 H 0.51505 0.9991 0.23906 0.0
C456 C 0.47254 0.0043 0.20636 0.0
C457 C 0.4796 0.00455 0.18735 0.0
C458 C 0.47666 1.00024 0.2251 0.0
C459 C 0.48817 0.99637 0.22483 0.0
C460 C 0.49615 0.99725 0.20599 0.0
C461 C 0.49158 1.00137 0.18725 0.0
C462 C 0.50895 0.99368 0.20583 0.0
C463 C 0.51323 0.98922 0.18692 0.0
C464 C 0.52539 0.98634 0.18651 0.0
C465 C 0.53298 0.98722 0.2052 0.0
C466 C 0.52911 0.99159 0.22408 0.0
C467 C 0.51731 0.99505 0.22441 0.0
H468 H 0.55577 0.0101 0.80733 0.0
H469 H 0.52024 0.01227 0.77533 0.0
H470 H 0.52152 0.01213 0.84391 0.0
H471 H 0.49927 0.00814 0.84452 0.0
H472 H 0.46331 0.00947 0.81251 0.0
H473 H 0.50226 0.01685 0.7771 0.0
C474 C 0.54535 0.01064 0.80814 0.0
C475 C 0.53891 0.01043 0.82765 0.0
C476 C 0.5387 0.01152 0.78953 0.0
C477 C 0.52524 0.01222 0.79023 0.0
C478 C 0.51838 0.01239 0.80978 0.0
C479 C 0.5258 0.01182 0.82849 0.0
C480 C 0.50336 0.01243 0.81063 0.0
C481 C 0.49515 0.00988 0.82984 0.0
C482 C 0.48089 0.00898 0.83046 0.0
C483 C 0.47441 0.01031 0.81196 0.0
C484 C 0.48207 0.01296 0.79282 0.0
C485 C 0.49663 0.01442 0.79218 0.0
H486 H 0.9846 0.53732 0.81293 0.0
H487 H 0.99752 0.50962 0.77688 0.0
H488 H 0.99424 0.50638 0.84513 0.0
H489 H 0.00721 0.49538 0.84341 0.0
H490 H 0.00942 0.45978 0.80926 0.0
H491 H 0.99405 0.48648 0.7774 0.0
C492 C 0.98751 0.52833 0.81231 0.0
C493 C 0.98952 0.5225 0.83101 0.0
C494 C 0.99013 0.52352 0.79285 0.0
C495 C 0.99492 0.51261 0.7921 0.0
C496 C 0.99626 0.50578 0.81086 0.0
C497 C 0.9935 0.51105 0.83029 0.0
C498 C 1.00042 0.49327 0.81029 0.0
C499 C 1.00555 0.48928 0.82866 0.0
C500 C 0.0086 0.47712 0.82841 0.0
C501 C 0.00734 0.46935 0.80952 0.0
C502 C 1.00234 0.47293 0.79123 0.0
C503 C 0.99866 0.48462 0.7916 0.0
H504 H 0.55188 0.55516 0.8142 0.0
H505 H 0.51301 0.52211 0.77832 0.0
H506 H 0.51622 0.51549 0.8452 0.0
H507 H 0.49153 0.50334 0.84472 0.0
H508 H 0.45472 0.46632 0.81035 0.0
H509 H 0.4961 0.49711 0.77777 0.0
C510 C 0.54093 0.54435 0.81344 0.0
C511 C 0.53454 0.53604 0.83181 0.0
C512 C 0.53338 0.53916 0.79418 0.0
C513 C 0.51897 0.52541 0.79324 0.0
C514 C 0.51222 0.51655 0.81166 0.0
C515 C 0.52058 0.5219 0.8308 0.0
C516 C 0.49628 0.50236 0.81128 0.0
C517 C 0.48729 0.49721 0.82993 0.0
C518 C 0.47238 0.48418 0.8297 0.0
C519 C 0.46613 0.47655 0.81063 0.0
C520 C 0.47448 0.48142 0.79195 0.0
C521 C 0.48967 0.49399 0.79231 0.0
H522 H 0.67555 0.79256 0.54502 0.0
H523 H 0.67839 0.83197 0.57603 0.0
H524 H 0.66752 0.82349 0.50939 0.0
H525 H 0.67751 0.84865 0.50798 0.0
H526 H 0.66404 0.87846 0.53664 0.0
H527 H 0.66539 0.84413 0.57428 0.0
C528 C 0.6748 0.80294 0.54427 0.0
C529 C 0.67172 0.80738 0.52508 0.0
C530 C 0.67689 0.81157 0.56261 0.0
C531 C 0.67636 0.82527 0.56171 0.0
C532 C 0.67306 0.83002 0.54244 0.0
C533 C 0.67071 0.82076 0.52423 0.0
C534 C 0.67134 0.84405 0.54122 0.0
C535 C 0.67347 0.85182 0.52186 0.0
C536 C 0.67031 0.86382 0.52016 0.0
C537 C 0.66583 0.86874 0.53794 0.0
C538 C 0.66449 0.86199 0.55752 0.0
C539 C 0.66707 0.84956 0.55913 0.0
H540 H 0.1229 0.79675 0.5439 0.0
H541 H 0.16588 0.82233 0.57612 0.0
H542 H 0.16173 0.83191 0.51079 0.0
H543 H 0.18608 0.83923 0.50949 0.0
H544 H 0.22571 0.87502 0.54139 0.0
H545 H 0.18462 0.84743 0.57647 0.0
C546 C 0.13488 0.80594 0.54381 0.0
C547 C 0.14146 0.81385 0.5252 0.0
C548 C 0.14351 0.80916 0.56218 0.0
C549 C 0.15925 0.82039 0.56194 0.0
C550 C 0.16625 0.82895 0.54343 0.0
C551 C 0.15704 0.82549 0.52514 0.0
C552 C 0.18298 0.84142 0.54308 0.0
C553 C 0.19136 0.84547 0.52393 0.0
C554 C 0.20671 0.85766 0.52314 0.0
C555 C 0.214 0.8653 0.54182 0.0
C556 C 0.20624 0.86139 0.56103 0.0
C557 C 0.19065 0.84975 0.56163 0.0
H558 H 0.1299 0.34304 0.54277 0.0
H559 H 0.15933 0.3313 0.57516 0.0
H560 H 0.16679 0.3439 0.5091 0.0
H561 H 0.18013 0.33293 0.50809 0.0
H562 H 0.21843 0.3367 0.54105 0.0
H563 H 0.1837 0.33921 0.57613 0.0
C564 C 0.13987 0.34172 0.54268 0.0
C565 C 0.14772 0.34348 0.52387 0.0
C566 C 0.14418 0.33756 0.56116 0.0
C567 C 0.15661 0.33504 0.56081 0.0
C568 C 0.16538 0.33751 0.5422 0.0
C569 C 0.16056 0.34167 0.52371 0.0
C570 C 0.17964 0.33624 0.54213 0.0
C571 C 0.1859 0.33449 0.52294 0.0
C572 C 0.20008 0.33519 0.52255 0.0
C573 C 0.20762 0.3365 0.54139 0.0
C574 C 0.20153 0.33752 0.56065 0.0
C575 C 0.18769 0.33758 0.56107 0.0
C576 C 0.02065 0.39164 0.06178 0.0
C577 C 1.00548 0.38228 0.05453 0.0
C578 C 0.02471 0.4046 0.0747 0.0
C579 C 0.01316 0.43288 0.08712 0.0
H580 H 0.03336 0.43855 0.14082 0.0
C581 C 0.01178 0.47215 0.15275 0.0
C582 C 0.02351 0.47855 0.16787 0.0
C583 C 0.01194 0.46266 0.13659 0.0
C584 C 0.02805 0.43743 0.12566 0.0
H585 H 0.98264 0.37921 0.05553 0.0
H586 H 0.98977 0.40174 0.07769 0.0
H587 H 0.02927 0.41729 0.11757 0.0
H588 H 0.04518 0.48108 0.17716 0.0
H589 H 0.04592 0.46515 0.14837 0.0
H590 H 0.01194 0.45296 0.09497 0.0
C591 C 0.99853 0.39908 0.07336 0.0
C592 C 0.02565 0.42515 0.11241 0.0
C593 C 0.99443 0.38606 0.06078 0.0
C594 C 0.03599 0.47624 0.16567 0.0
C595 C 0.03628 0.46694 0.14933 0.0
C596 C 0.01576 0.44528 0.1002 0.0
C597 C 0.01371 0.40858 0.08026 0.0
C598 C 0.01785 0.42255 0.09325 0.0
C599 C 0.02395 0.45951 0.13506 0.0
C600 C 0.02291 0.44752 0.1199 0.0
H601 H 0.02945 0.38908 0.05727 0.0
H602 H 0.0365 0.41174 0.07989 0.0
H603 H 0.00731 0.43124 0.07226 0.0
H604 H 1.00192 0.47357 0.1543 0.0
H605 H 1.00214 0.45705 0.12613 0.0
C606 C 0.63107 0.62624 0.06788 0.0
C607 C 0.6304 0.63981 0.06584 0.0
C608 C 0.62098 0.61445 0.08139 0.0
C609 C 0.5943 0.60566 0.12611 0.0
H610 H 0.57314 0.56405 0.10238 0.0
C611 C 0.54354 0.55623 0.16975 0.0
C612 C 0.5436 0.54235 0.17106 0.0
C613 C 0.55305 0.56755 0.15534 0.0
C614 C 0.57901 0.57557 0.10932 0.0
H615 H 0.61927 0.652 0.07748 0.0
H616 H 0.60187 0.63157 0.10113 0.0
H617 H 0.59328 0.58534 0.08218 0.0
H618 H 0.55313 0.52908 0.15817 0.0
H619 H 0.5698 0.5488 0.13295 0.0
H620 H 0.58022 0.59595 0.15331 0.0
C621 C 0.61012 0.62999 0.09222 0.0
C622 C 0.59061 0.58776 0.09777 0.0
C623 C 0.62009 0.6417 0.07861 0.0
C624 C 0.55265 0.53957 0.15701 0.0
C625 C 0.56225 0.55092 0.14267 0.0
C626 C 0.58277 0.59347 0.13768 0.0
C627 C 0.61014 0.61604 0.09331 0.0
C628 C 0.59835 0.60296 0.10601 0.0
C629 C 0.56298 0.56529 0.1422 0.0
C630 C 0.57491 0.57827 0.12942 0.0
H631 H 0.63882 0.62435 0.05825 0.0
H632 H 0.62145 0.60394 0.08215 0.0
H633 H 0.60016 0.61719 0.13301 0.0
H634 H 0.53683 0.55869 0.18073 0.0
H635 H 0.55308 0.57833 0.15511 0.0
C636 C 0.38847 0.00765 0.06482 0.0
C637 C 0.37904 0.99309 0.05519 0.0
C638 C 0.4004 0.01007 0.0784 0.0
C639 C 0.41448 0.98826 0.10924 0.0
H640 H 0.45309 0.02744 0.10982 0.0
C641 C 0.46689 0.99464 0.15242 0.0
C642 C 0.47301 0.00654 0.16765 0.0
C643 C 0.45703 0.99429 0.13681 0.0
C644 C 0.44236 0.01644 0.10978 0.0
H645 H 0.37497 0.96971 0.05232 0.0
H646 H 0.39575 0.97401 0.07514 0.0
H647 H 0.43204 0.02415 0.0874 0.0
H648 H 0.47465 0.02803 0.17756 0.0
H649 H 0.45771 0.02763 0.14994 0.0
H650 H 0.42489 0.98047 0.13127 0.0
C651 C 0.39377 0.9835 0.07287 0.0
C652 C 0.43023 0.01458 0.09708 0.0
C653 C 0.38181 0.98105 0.0596 0.0
C654 C 0.47011 0.01875 0.16594 0.0
C655 C 0.46042 0.01851 0.15015 0.0
C656 C 0.42664 0.99005 0.12161 0.0
C657 C 0.40327 0.99802 0.08252 0.0
C658 C 0.41612 1.00041 0.09657 0.0
C659 C 0.45326 0.00594 0.13598 0.0
C660 C 0.44073 0.00412 0.12199 0.0
H661 H 0.3867 0.0172 0.06177 0.0
H662 H 0.40732 0.02136 0.08572 0.0
H663 H 0.40372 0.97732 0.10982 0.0
H664 H 0.46881 0.98501 0.1535 0.0
H665 H 0.4518 0.98454 0.12594 0.0
C666 C 0.37739 0.98627 0.94629 0.0
C667 C 0.37933 0.99791 0.96061 0.0
C668 C 0.38949 0.9883 0.93349 0.0
C669 C 0.42766 0.01713 0.91255 0.0
H670 H 0.43201 0.98106 0.90727 0.0
C671 C 0.47728 0.01867 0.86514 0.0
C672 C 0.47227 0.00661 0.85024 0.0
C673 C 0.4674 0.01789 0.88121 0.0
C674 C 0.43095 0.99123 0.90858 0.0
H675 H 0.39532 0.02121 0.97184 0.0
H676 H 0.41657 0.02476 0.94946 0.0
H677 H 0.41151 0.97978 0.92891 0.0
H678 H 0.45349 0.98408 0.84079 0.0
H679 H 0.43634 0.98251 0.869 0.0
H680 H 0.44706 0.02848 0.89196 0.0
C681 C 0.40561 0.01405 0.94813 0.0
C682 C 0.41915 0.99048 0.92088 0.0
C683 C 0.39342 0.01204 0.96092 0.0
C684 C 0.45763 0.9934 0.85232 0.0
C685 C 0.44784 0.99254 0.86845 0.0
C686 C 0.43953 0.01788 0.90026 0.0
C687 C 0.40391 1.002 0.93474 0.0
C688 C 0.41714 0.0033 0.92266 0.0
C689 C 0.45243 0.00498 0.8827 0.0
C690 C 0.44111 0.00483 0.89782 0.0
H691 H 0.36662 0.97532 0.94544 0.0
H692 H 0.38762 0.97897 0.9229 0.0
H693 H 0.42641 0.02719 0.91353 0.0
H694 H 0.48846 0.02905 0.8636 0.0
H695 H 0.47129 0.02758 0.89207 0.0
C696 C 0.98611 0.37972 0.956 0.0
C697 C 0.9981 0.37714 0.9611 0.0
C698 C 0.98854 0.39154 0.94238 0.0
C699 C 0.01945 0.42813 0.91858 0.0
H700 H 0.98572 0.42252 0.88362 0.0
C701 C 0.02301 0.46762 0.84926 0.0
C702 C 0.01105 0.4708 0.84802 0.0
C703 C 0.023 0.45798 0.86499 0.0
C704 C 0.99519 0.42432 0.89347 0.0
H705 H 0.02205 0.38489 0.95527 0.0
H706 H 0.02616 0.40521 0.93071 0.0
H707 H 0.98257 0.40126 0.90508 0.0
H708 H 0.99022 0.46715 0.86289 0.0
H709 H 0.99011 0.45018 0.89028 0.0
H710 H 0.03221 0.45112 0.90598 0.0
C711 C 0.01494 0.3983 0.93777 0.0
C712 C 0.9934 0.41213 0.90586 0.0
C713 C 0.01254 0.38652 0.9517 0.0
C714 C 0.99966 0.46503 0.86363 0.0
C715 C 0.99951 0.4552 0.87914 0.0
C716 C 0.02132 0.44028 0.90583 0.0
C717 C 1.00298 0.40106 0.93307 0.0
C718 C 1.00541 0.41388 0.91886 0.0
C719 C 0.01088 0.45114 0.87952 0.0
C720 C 0.00912 0.43854 0.89338 0.0
H721 H 0.97486 0.3729 0.96305 0.0
H722 H 0.97911 0.39343 0.93964 0.0
H723 H 0.02891 0.43003 0.92851 0.0
H724 H 0.03188 0.47186 0.83732 0.0
H725 H 0.03188 0.45502 0.86489 0.0
C726 C 0.62853 0.62193 0.95889 0.0
C727 C 0.62321 0.62711 0.97569 0.0
C728 C 0.61808 0.60941 0.94626 0.0
C729 C 0.5768 0.58903 0.93195 0.0
H730 H 0.58632 0.56145 0.90119 0.0
C731 C 0.54526 0.55833 0.8567 0.0
C732 C 0.54207 0.54328 0.85206 0.0
C733 C 0.55394 0.56632 0.87428 0.0
C734 C 0.58339 0.56889 0.90996 0.0
H735 H 0.60315 0.62257 0.99368 0.0
H736 H 0.58513 0.60043 0.97253 0.0
H737 H 0.60433 0.57927 0.9277 0.0
H738 H 0.54498 0.52452 0.86242 0.0
H739 H 0.56024 0.53858 0.89372 0.0
H740 H 0.55587 0.57865 0.9145 0.0
C741 C 0.59716 0.60637 0.96826 0.0
C742 C 0.59381 0.57926 0.92492 0.0
C743 C 0.60749 0.61903 0.98047 0.0
C744 C 0.54726 0.5361 0.86579 0.0
C745 C 0.55609 0.54419 0.88351 0.0
C746 C 0.56639 0.57862 0.91723 0.0
C747 C 0.6022 0.60169 0.95053 0.0
C748 C 0.59076 0.58968 0.93584 0.0
C749 C 0.55963 0.55947 0.88779 0.0
C750 C 0.56972 0.56872 0.90564 0.0
H751 H 0.64064 0.62796 0.955 0.0
H752 H 0.62241 0.60622 0.93268 0.0
H753 H 0.57407 0.59697 0.93971 0.0
H754 H 0.54136 0.56409 0.84633 0.0
H755 H 0.55663 0.57813 0.87686 0.0
C756 C 0.99496 0.61854 0.95617 0.0
C757 C 0.01035 0.62918 0.96144 0.0
C758 C 0.99129 0.60614 0.94231 0.0
C759 C 0.00911 0.59222 0.90288 0.0
H760 H 0.97416 0.55161 0.9151 0.0
C761 C 1.00247 0.53791 0.86324 0.0
C762 C 0.98909 0.52994 0.85103 0.0
C763 C 1.00378 0.54857 0.87863 0.0
C764 C 0.98394 0.56291 0.91158 0.0
H765 H 0.03394 0.63528 0.95571 0.0
H766 H 0.02759 0.61376 0.93233 0.0
H767 H 0.97887 0.57401 0.93669 0.0
H768 H 0.96615 0.5258 0.84636 0.0
H769 H 0.96827 0.54415 0.87382 0.0
H770 H 0.01442 0.58104 0.87823 0.0
C771 C 0.01829 0.61502 0.93843 0.0
C772 C 0.98657 0.57577 0.92376 0.0
C773 C 0.02195 0.62739 0.95206 0.0
C774 C 0.97655 0.53178 0.85569 0.0
C775 C 0.97776 0.54226 0.87134 0.0
C776 C 0.00663 0.57938 0.89102 0.0
C777 C 1.00293 0.60413 0.93348 0.0
C778 C 0.9993 0.59057 0.91968 0.0
C779 C 0.99163 0.55123 0.88226 0.0
C780 C 0.99413 0.5646 0.89536 0.0
H781 H 0.98572 0.61956 0.9631 0.0
H782 H 0.97934 0.5981 0.93861 0.0
H783 H 0.01877 0.60346 0.89885 0.0
H784 H 0.01235 0.53682 0.85977 0.0
H785 H 0.01456 0.55531 0.88699 0.0
C786 C 0.39528 0.37826 0.94242 0.0
C787 C 0.38646 0.37924 0.95885 0.0
C788 C 0.40397 0.39094 0.92936 0.0
C789 C 0.42522 0.43272 0.92896 0.0
H790 H 0.42106 0.4289 0.86823 0.0
C791 C 0.46957 0.47395 0.86633 0.0
C792 C 0.46327 0.47751 0.84919 0.0
C793 C 0.45998 0.46393 0.88203 0.0
C794 C 0.42228 0.43015 0.88518 0.0
H795 H 0.37984 0.39426 0.97445 0.0
H796 H 0.39538 0.41654 0.95189 0.0
H797 H 0.40433 0.40666 0.89018 0.0
H798 H 0.44228 0.47482 0.83629 0.0
H799 H 0.4256 0.45718 0.86345 0.0
H800 H 0.44359 0.4561 0.92383 0.0
C801 C 0.39536 0.40589 0.94904 0.0
C802 C 0.41279 0.41742 0.89768 0.0
C803 C 0.38638 0.39309 0.96178 0.0
C804 C 0.44743 0.47207 0.84913 0.0
C805 C 0.43787 0.46196 0.86462 0.0
C806 C 0.43498 0.44539 0.91639 0.0
C807 C 0.4043 0.40495 0.93281 0.0
C808 C 0.41416 0.41859 0.91967 0.0
C809 C 0.44398 0.45729 0.88071 0.0
C810 C 0.43354 0.44422 0.89439 0.0
H811 H 0.39559 0.36776 0.93982 0.0
H812 H 0.4108 0.38997 0.91694 0.0
H813 H 0.42653 0.43384 0.9459 0.0
H814 H 0.48171 0.4779 0.86673 0.0
H815 H 0.46495 0.46049 0.89433 0.0
C816 C 0.63931 0.02731 0.94666 0.0
C817 C 0.6367 0.01559 0.96082 0.0
C818 C 0.62764 0.02551 0.93316 0.0
C819 C 0.5885 0.99638 0.91273 0.0
H820 H 0.5878 0.03354 0.89947 0.0
C821 C 0.55082 0.99748 0.84644 0.0
C822 C 0.54614 0.00846 0.84677 0.0
C823 C 0.56005 0.9972 0.86238 0.0
C824 C 0.58758 0.02297 0.90329 0.0
H825 H 0.61989 0.99265 0.97164 0.0
H826 H 0.5994 0.98969 0.94874 0.0
H827 H 0.60765 0.0353 0.92239 0.0
H828 H 0.54648 0.02694 0.86505 0.0
H829 H 0.56213 0.02606 0.89359 0.0
H830 H 0.568 0.98395 0.89444 0.0
C831 C 0.61055 1.00013 0.9475 0.0
C832 C 0.59924 0.02402 0.91613 0.0
C833 C 0.62234 1.00181 0.96069 0.0
C834 C 0.54995 0.01839 0.86432 0.0
C835 C 0.55911 0.01801 0.88051 0.0
C836 C 0.57667 0.99529 0.90019 0.0
C837 C 0.61293 0.01209 0.93381 0.0
C838 C 0.60008 0.0108 0.92072 0.0
C839 C 0.56471 0.00772 0.87941 0.0
C840 C 0.57621 0.00861 0.89489 0.0
H841 H 0.65029 0.03804 0.94633 0.0
H842 H 0.63016 0.03479 0.92243 0.0
H843 H 0.58869 0.98591 0.91572 0.0
H844 H 0.54787 0.98948 0.83329 0.0
H845 H 0.56415 0.9892 0.86068 0.0
C846 C 0.62228 0.01658 0.05831 0.0
C847 C 0.62754 0.00639 0.0534 0.0
C848 C 0.6091 0.01169 0.07041 0.0
C849 C 0.58532 0.98453 0.11064 0.0
H850 H 0.55515 0.99485 0.09273 0.0
C851 C 0.53469 0.97198 0.16444 0.0
C852 C 0.53159 0.98405 0.1665 0.0
C853 C 0.54381 0.97189 0.14793 0.0
C854 C 0.56349 0.99195 0.09806 0.0
H855 H 0.62312 0.98307 0.05777 0.0
H856 H 0.60015 0.97465 0.07953 0.0
H857 H 0.57671 1.00041 0.06979 0.0
H858 H 0.53488 0.00501 0.1524 0.0
H859 H 0.55105 0.00512 0.12384 0.0
H860 H 0.57267 0.97682 0.13933 0.0
C861 C 0.60627 0.98639 0.07371 0.0
C862 C 0.57581 0.99509 0.08486 0.0
C863 C 0.61939 0.99123 0.06127 0.0
C864 C 0.53693 0.99547 0.151 0.0
C865 C 0.54623 0.9955 0.13462 0.0
C866 C 0.5731 0.98156 0.12397 0.0
C867 C 0.60091 0.99656 0.07816 0.0
C868 C 0.587 0.99167 0.09118 0.0
C869 C 0.55024 0.984 0.13329 0.0
C870 C 0.56216 0.98549 0.11803 0.0
H871 H 0.62816 0.02831 0.05249 0.0
H872 H 0.60538 0.01985 0.07387 0.0
H873 H 0.59384 0.9819 0.11598 0.0
H874 H 0.53064 0.96301 0.1762 0.0
H875 H 0.54629 0.96263 0.14713 0.0
C876 C 0.02499 0.6262 0.06197 0.0
C877 C 0.0138 0.6298 0.05621 0.0
C878 C 0.02119 0.6134 0.07444 0.0
C879 C 0.99451 0.58737 0.11365 0.0
H880 H 0.00863 0.55991 0.09475 0.0
C881 C 0.98505 0.53665 0.16521 0.0
C882 C 0.99775 0.5347 0.16721 0.0
C883 C 0.98452 0.54575 0.14915 0.0
C884 C 1.00469 0.56749 0.10039 0.0
H885 H 0.98986 0.62295 0.05992 0.0
H886 H 0.98332 0.6007 0.08235 0.0
H887 H 0.01285 0.58146 0.07276 0.0
H888 H 0.01942 0.54001 0.15339 0.0
H889 H 0.01873 0.55611 0.12561 0.0
H890 H 0.98703 0.574 0.14171 0.0
C891 C 0.99502 0.6078 0.07683 0.0
C892 C 0.00707 0.57981 0.08772 0.0
C893 C 0.99878 0.62055 0.06403 0.0
C894 C 0.0094 0.54114 0.15201 0.0
C895 C 0.00898 0.55042 0.1361 0.0
C896 C 0.9923 0.57517 0.12647 0.0
C897 C 1.00613 0.60392 0.08176 0.0
C898 C 1.00225 0.59004 0.09438 0.0
C899 C 0.99679 0.55331 0.1349 0.0
C900 C 0.9976 0.5652 0.12018 0.0
H901 H 0.03669 0.63299 0.05633 0.0
H902 H 0.03006 0.61086 0.0783 0.0
H903 H 0.99077 0.59513 0.11923 0.0
H904 H 0.97591 0.53178 0.17676 0.0
H905 H 0.97475 0.54734 0.14844 0.0
C906 C 0.3949 0.37318 0.06961 0.0
C907 C 0.38626 0.37649 0.05573 0.0
C908 C 0.40474 0.38423 0.08421 0.0
C909 C 0.42818 0.42602 0.09211 0.0
H910 H 0.43272 0.41452 0.14842 0.0
C911 C 0.47005 0.46902 0.15593 0.0
C912 C 0.47663 0.46314 0.16957 0.0
C913 C 0.45947 0.45939 0.14059 0.0
C914 C 0.43174 0.41789 0.13265 0.0
H915 H 0.38074 0.39382 0.04674 0.0
H916 H 0.39813 0.41331 0.07243 0.0
H917 H 0.41188 0.39576 0.12613 0.0
H918 H 0.47843 0.44319 0.17697 0.0
H919 H 0.46044 0.42652 0.14978 0.0
H920 H 0.44824 0.44814 0.09864 0.0
C921 C 0.39724 0.40211 0.07186 0.0
C922 C 0.41972 0.40716 0.11994 0.0
C923 C 0.38719 0.39091 0.05735 0.0
C924 C 0.47347 0.44794 0.16658 0.0
C925 C 0.46303 0.43838 0.15122 0.0
C926 C 0.44027 0.4368 0.10486 0.0
C927 C 0.4063 0.39893 0.08519 0.0
C928 C 0.41796 0.411 0.09941 0.0
C929 C 0.45538 0.44377 0.1387 0.0
C930 C 0.44235 0.43272 0.12513 0.0
H931 H 0.3944 0.36216 0.06877 0.0
H932 H 0.41164 0.38147 0.09413 0.0
H933 H 0.42718 0.42925 0.07626 0.0
H934 H 0.47219 0.48067 0.15818 0.0
H935 H 0.45378 0.46389 0.13118 0.0
C936 C 0.67788 0.72037 0.39473 0.0
C937 C 0.66512 0.71268 0.38128 0.0
C938 C 0.67906 0.73172 0.40899 0.0
C939 C 0.65428 0.74393 0.43554 0.0
H940 H 0.69263 0.78117 0.45005 0.0
C941 C 0.65988 0.78148 0.50739 0.0
C942 C 0.66943 0.79764 0.50618 0.0
C943 C 0.65927 0.77194 0.49088 0.0
C944 C 0.6818 0.77091 0.44594 0.0
H945 H 0.64415 0.71162 0.37126 0.0
H946 H 0.6464 0.73142 0.39543 0.0
H947 H 0.69245 0.76314 0.42364 0.0
H948 H 0.68536 0.81655 0.48645 0.0
H949 H 0.68409 0.79979 0.45715 0.0
H950 H 0.64355 0.75172 0.4574 0.0
C951 C 0.65521 0.72837 0.3957 0.0
C952 C 0.68174 0.76048 0.43105 0.0
C953 C 0.65395 0.717 0.38177 0.0
C954 C 0.67786 0.80412 0.4877 0.0
C955 C 0.67727 0.79453 0.4711 0.0
C956 C 0.65433 0.75434 0.45027 0.0
C957 C 0.66758 0.73566 0.40982 0.0
C958 C 0.66796 0.74685 0.42571 0.0
C959 C 0.66815 0.77831 0.47267 0.0
C960 C 0.66809 0.76789 0.45581 0.0
H961 H 0.68672 0.71735 0.3946 0.0
H962 H 0.68872 0.73709 0.41972 0.0
H963 H 0.64348 0.73345 0.43208 0.0
H964 H 0.65319 0.77618 0.52142 0.0
H965 H 0.65223 0.75951 0.49274 0.0
C966 C 0.28169 0.96202 0.40548 0.0
C967 C 0.29175 0.96136 0.39082 0.0
C968 C 0.27246 0.94932 0.41826 0.0
C969 C 0.26669 0.91114 0.43561 0.0
H970 H 0.22696 0.90455 0.45201 0.0
C971 C 0.23086 0.8695 0.5017 0.0
C972 C 0.215 0.86383 0.50291 0.0
C973 C 0.23963 0.87915 0.48531 0.0
C974 C 0.23785 0.90592 0.44725 0.0
H975 H 0.30005 0.94688 0.37808 0.0
H976 H 0.28357 0.92459 0.39953 0.0
H977 H 0.24341 0.92605 0.4296 0.0
H978 H 0.19564 0.86235 0.48644 0.0
H979 H 0.21074 0.87833 0.45705 0.0
H980 H 0.26078 0.89053 0.45237 0.0
C981 C 0.28309 0.93502 0.40185 0.0
C982 C 0.24752 0.91858 0.43472 0.0
C983 C 0.29257 0.94784 0.38944 0.0
C984 C 0.20784 0.86658 0.48607 0.0
C985 C 0.21659 0.87603 0.4694 0.0
C986 C 0.25688 0.89828 0.44777 0.0
C987 C 0.27277 0.93549 0.41633 0.0
C988 C 0.26222 0.92158 0.42904 0.0
C989 C 0.23272 0.8831 0.46936 0.0
C990 C 0.24242 0.89564 0.45416 0.0
H991 H 0.28088 0.97232 0.40698 0.0
H992 H 0.26504 0.95038 0.4296 0.0
H993 H 0.27793 0.91302 0.4318 0.0
H994 H 0.2367 0.86731 0.51421 0.0
H995 H 0.25195 0.88428 0.48605 0.0
C996 C 0.05217 0.3189 0.39485 0.0
C997 C 0.04805 0.32996 0.39014 0.0
C998 C 0.06478 0.32275 0.40768 0.0
C999 C 0.08877 0.34844 0.44975 0.0
H1000 H 0.11793 0.33678 0.43077 0.0
C1001 C 0.13847 0.35833 0.5036 0.0
C1002 C 0.14149 0.34618 0.50438 0.0
C1003 C 0.12943 0.35889 0.48749 0.0
C1004 C 0.10985 0.34001 0.43645 0.0
H1005 H 0.05387 0.35368 0.39585 0.0
H1006 H 0.07577 0.36026 0.41891 0.0
H1007 H 0.09691 0.33249 0.40775 0.0
H1008 H 0.13802 0.32547 0.48853 0.0
H1009 H 0.12193 0.32611 0.46069 0.0
H1010 H 0.1011 0.35522 0.47882 0.0
C1011 C 0.06922 0.34866 0.41233 0.0
C1012 C 0.09784 0.3376 0.42319 0.0
C1013 C 0.05669 0.34488 0.39915 0.0
C1014 C 0.13604 0.33508 0.4881 0.0
C1015 C 0.12679 0.33548 0.47213 0.0
C1016 C 0.10065 0.35064 0.46316 0.0
C1017 C 0.07353 0.33768 0.41643 0.0
C1018 C 0.08704 0.34157 0.42982 0.0
C1019 C 0.12294 0.34712 0.47197 0.0
C1020 C 0.11125 0.34623 0.45684 0.0
H1021 H 0.04588 0.30731 0.38818 0.0
H1022 H 0.06768 0.31398 0.41081 0.0
H1023 H 0.08054 0.3515 0.45533 0.0
H1024 H 0.14257 0.36704 0.516 0.0
H1025 H 0.12711 0.36827 0.48764 0.0
C1026 C 0.04229 0.31735 0.28033 0.0
C1027 C 0.04545 0.32928 0.29486 0.0
C1028 C 0.05373 0.31841 0.26696 0.0
C1029 C 0.09266 0.34518 0.2457 0.0
H1030 H 0.0927 0.30688 0.2375 0.0
C1031 C 0.14006 0.34264 0.19791 0.0
C1032 C 0.13422 0.33136 0.18183 0.0
C1033 C 0.13039 0.34232 0.21398 0.0
C1034 C 0.09284 0.31766 0.23965 0.0
H1035 H 0.06294 0.35203 0.30604 0.0
H1036 H 0.08308 0.35382 0.2828 0.0
H1037 H 0.0733 0.30719 0.25992 0.0
H1038 H 0.1141 0.31052 0.17037 0.0
H1039 H 0.0973 0.30969 0.19866 0.0
H1040 H 0.11227 0.35559 0.22534 0.0
C1041 C 0.07167 0.34369 0.28162 0.0
C1042 C 0.08166 0.31784 0.25237 0.0
C1043 C 0.06012 0.34269 0.29491 0.0
C1044 C 0.11886 0.31925 0.18274 0.0
C1045 C 0.10927 0.3188 0.19892 0.0
C1046 C 0.10394 0.34502 0.23307 0.0
C1047 C 0.06872 0.33134 0.26791 0.0
C1048 C 0.08121 0.33152 0.25522 0.0
C1049 C 0.1148 0.3306 0.21434 0.0
C1050 C 0.10398 0.33119 0.22963 0.0
H1051 H 0.03105 0.30693 0.27974 0.0
H1052 H 0.05089 0.30889 0.25615 0.0
H1053 H 0.09263 0.3559 0.24744 0.0
H1054 H 0.15182 0.35219 0.19734 0.0
H1055 H 0.13498 0.35148 0.22577 0.0
C1056 C 0.65181 0.70647 0.27727 0.0
C1057 C 0.66426 0.70707 0.28785 0.0
C1058 C 0.65403 0.71841 0.264 0.0
C1059 C 0.6816 0.75994 0.25338 0.0
H1060 H 0.6558 0.75159 0.20436 0.0
C1061 C 0.69171 0.80505 0.18946 0.0
C1062 C 0.67873 0.80459 0.18095 0.0
C1063 C 0.69009 0.7942 0.20437 0.0
C1064 C 0.66295 0.75413 0.21817 0.0
H1065 H 0.68899 0.72052 0.29185 0.0
H1066 H 0.69293 0.74119 0.26814 0.0
H1067 H 0.65344 0.7301 0.22462 0.0
H1068 H 0.65394 0.79289 0.18184 0.0
H1069 H 0.65104 0.77383 0.208 0.0
H1070 H 0.69136 0.78404 0.24642 0.0
C1071 C 0.68136 0.73161 0.27058 0.0
C1072 C 0.66163 0.74179 0.22981 0.0
C1073 C 0.67912 0.71964 0.284 0.0
C1074 C 0.66412 0.79361 0.18841 0.0
C1075 C 0.66248 0.78261 0.20315 0.0
C1076 C 0.68303 0.77229 0.24158 0.0
C1077 C 0.66879 0.7313 0.26072 0.0
C1078 C 0.67085 0.7445 0.24768 0.0
C1079 C 0.67543 0.78251 0.2108 0.0
C1080 C 0.67364 0.76952 0.22393 0.0
H1081 H 0.64018 0.69702 0.2798 0.0
H1082 H 0.64403 0.71778 0.25696 0.0
H1083 H 0.68873 0.76252 0.26722 0.0
H1084 H 0.70308 0.81331 0.1837 0.0
H1085 H 0.70028 0.79439 0.20985 0.0
C1086 C 0.29824 0.94925 0.29339 0.0
C1087 C 0.29746 0.96281 0.29458 0.0
C1088 C 0.28939 0.93762 0.27855 0.0
C1089 C 0.26685 0.93044 0.22953 0.0
H1090 H 0.24158 0.88848 0.24996 0.0
C1091 C 0.21098 0.88831 0.18931 0.0
C1092 C 0.20974 0.87459 0.1816 0.0
C1093 C 0.22217 0.8974 0.20412 0.0
C1094 C 0.24872 0.90011 0.24403 0.0
H1095 H 0.28747 0.97518 0.28045 0.0
H1096 H 0.27221 0.95512 0.25482 0.0
H1097 H 0.2619 0.90835 0.2725 0.0
H1098 H 0.21847 0.85903 0.18396 0.0
H1099 H 0.23808 0.87495 0.21056 0.0
H1100 H 0.25327 0.92244 0.20152 0.0
C1101 C 0.27961 0.95337 0.26519 0.0
C1102 C 0.26038 0.91145 0.25683 0.0
C1103 C 0.2883 0.96485 0.28001 0.0
C1104 C 0.21914 0.86948 0.19 0.0
C1105 C 0.23035 0.87859 0.20504 0.0
C1106 C 0.25517 0.9192 0.21691 0.0
C1107 C 0.2798 0.93949 0.26451 0.0
C1108 C 0.26926 0.92685 0.24991 0.0
C1109 C 0.23233 0.89293 0.21152 0.0
C1110 C 0.24572 0.90406 0.22426 0.0
H1111 H 0.30514 0.94732 0.30448 0.0
H1112 H 0.28986 0.9271 0.27828 0.0
H1113 H 0.27371 0.94209 0.22356 0.0
H1114 H 0.2039 0.89248 0.18287 0.0
H1115 H 0.22336 0.90832 0.20909 0.0
C1116 C 0.68865 0.9671 0.27659 0.0
C1117 C 0.67906 0.96421 0.29408 0.0
C1118 C 0.68605 0.95509 0.26276 0.0
C1119 C 0.67244 0.91441 0.26085 0.0
H1120 H 0.66802 0.91703 0.20072 0.0
C1121 C 0.68033 0.87837 0.19352 0.0
C1122 C 0.66828 0.87182 0.17879 0.0
C1123 C 0.68045 0.88805 0.2097 0.0
C1124 C 0.66922 0.91617 0.21749 0.0
H1125 H 0.65916 0.94657 0.31077 0.0
H1126 H 0.65484 0.92539 0.28671 0.0
H1127 H 0.67025 0.93764 0.22408 0.0
H1128 H 0.64625 0.86905 0.17064 0.0
H1129 H 0.64672 0.88621 0.19844 0.0
H1130 H 0.67192 0.89313 0.25406 0.0
C1131 C 0.66423 0.93702 0.28367 0.0
C1132 C 0.67052 0.92792 0.23079 0.0
C1133 C 0.6666 0.94913 0.29725 0.0
C1134 C 0.65586 0.87421 0.18148 0.0
C1135 C 0.65608 0.88398 0.19738 0.0
C1136 C 0.67148 0.90277 0.24745 0.0
C1137 C 0.67404 0.93991 0.26645 0.0
C1138 C 0.67208 0.92712 0.25257 0.0
C1139 C 0.66858 0.89135 0.21121 0.0
C1140 C 0.66979 0.90355 0.22568 0.0
H1141 H 0.69836 0.97861 0.27383 0.0
H1142 H 0.69376 0.95756 0.24957 0.0
H1143 H 0.67379 0.91366 0.27761 0.0
H1144 H 0.69006 0.87676 0.1918 0.0
H1145 H 0.69021 0.89366 0.22025 0.0
C1146 C 0.07263 0.7189 0.29325 0.0
C1147 C 0.0572 0.71384 0.29803 0.0
C1148 C 0.08111 0.73157 0.28015 0.0
C1149 C 0.07789 0.75491 0.23889 0.0
H1150 H 0.11903 0.78599 0.25667 0.0
C1151 C 0.11477 0.80779 0.18745 0.0
C1152 C 0.13 0.81149 0.18436 0.0
C1153 C 0.10596 0.79796 0.20371 0.0
C1154 C 0.10762 0.77738 0.25138 0.0
H1155 H 0.03849 0.71788 0.29205 0.0
H1156 H 0.05332 0.73989 0.26887 0.0
H1157 H 0.10324 0.76388 0.27916 0.0
H1158 H 0.14826 0.80861 0.1965 0.0
H1159 H 0.13289 0.79127 0.2247 0.0
H1160 H 0.08235 0.76801 0.21082 0.0
C1161 C 0.05881 0.73405 0.27543 0.0
C1162 C 0.09857 0.76472 0.26428 0.0
C1163 C 0.05033 0.72144 0.28872 0.0
C1164 C 0.1366 0.80609 0.19872 0.0
C1165 C 0.12774 0.7961 0.21486 0.0
C1166 C 0.08698 0.7675 0.2259 0.0
C1167 C 0.07438 0.73943 0.27133 0.0
C1168 C 0.08367 0.75325 0.25806 0.0
C1169 C 0.11212 0.79144 0.21707 0.0
C1170 C 0.10203 0.77883 0.23185 0.0
H1171 H 0.07833 0.71337 0.30008 0.0
H1172 H 0.09301 0.73527 0.27697 0.0
H1173 H 0.06651 0.74619 0.2336 0.0
H1174 H 0.10945 0.81187 0.1766 0.0
H1175 H 0.09411 0.79498 0.20526 0.0
C1176 C 0.3069 0.36096 0.27774 0.0
C1177 C 0.30518 0.34871 0.29021 0.0
C1178 C 0.29537 0.3588 0.26378 0.0
C1179 C 0.25362 0.33411 0.2554 0.0
H1180 H 0.26312 0.35583 0.20242 0.0
C1181 C 0.208 0.32692 0.19361 0.0
C1182 C 0.21108 0.34024 0.18265 0.0
C1183 C 0.21863 0.32752 0.20814 0.0
C1184 C 0.26027 0.34984 0.2173 0.0
H1185 H 0.29019 0.32432 0.29695 0.0
H1186 H 0.27009 0.32048 0.27224 0.0
H1187 H 0.28368 0.35668 0.22304 0.0
H1188 H 0.22722 0.36468 0.17861 0.0
H1189 H 0.24566 0.36591 0.20436 0.0
H1190 H 0.23014 0.32723 0.24948 0.0
C1191 C 0.28032 0.33184 0.27358 0.0
C1192 C 0.27207 0.35028 0.2291 0.0
C1193 C 0.29193 0.334 0.28755 0.0
C1194 C 0.22451 0.35434 0.18721 0.0
C1195 C 0.23514 0.35496 0.20168 0.0
C1196 C 0.24177 0.33361 0.24351 0.0
C1197 C 0.28176 0.34432 0.26186 0.0
C1198 C 0.26895 0.34261 0.24845 0.0
C1199 C 0.2326 0.34144 0.21173 0.0
C1200 C 0.24501 0.34168 0.22447 0.0
H1201 H 0.31694 0.37245 0.27933 0.0
H1202 H 0.29686 0.36871 0.25518 0.0
H1203 H 0.25082 0.32821 0.27035 0.0
H1204 H 0.19786 0.31585 0.18991 0.0
H1205 H 0.21636 0.31689 0.21551 0.0
C1206 C 0.28524 0.34896 0.37652 0.0
C1207 C 0.29402 0.34219 0.38115 0.0
C1208 C 0.27283 0.3462 0.38909 0.0
C1209 C 0.24705 0.32214 0.43248 0.0
H1210 H 0.24512 0.35919 0.44306 0.0
C1211 C 0.20176 0.32314 0.48841 0.0
C1212 C 0.20797 0.33569 0.50265 0.0
C1213 C 0.21059 0.32295 0.47143 0.0
C1214 C 0.24547 0.34872 0.44031 0.0
H1215 H 0.29627 0.32659 0.40196 0.0
H1216 H 0.27477 0.3222 0.42477 0.0
H1217 H 0.26381 0.36005 0.41841 0.0
H1218 H 0.22788 0.35805 0.51006 0.0
H1219 H 0.24319 0.35783 0.48068 0.0
H1220 H 0.2291 0.31111 0.45541 0.0
C1221 C 0.27735 0.32944 0.41109 0.0
C1222 C 0.2561 0.34914 0.42593 0.0
C1223 C 0.2897 0.33199 0.39814 0.0
C1224 C 0.22282 0.34828 0.49921 0.0
C1225 C 0.23156 0.34815 0.48232 0.0
C1226 C 0.2364 0.32174 0.44704 0.0
C1227 C 0.26901 0.33686 0.40699 0.0
C1228 C 0.25714 0.33591 0.42188 0.0
C1229 C 0.22568 0.3354 0.46838 0.0
C1230 C 0.23567 0.33512 0.45134 0.0
H1231 H 0.28811 0.35659 0.3632 0.0
H1232 H 0.2664 0.35169 0.38497 0.0
H1233 H 0.24743 0.31169 0.42962 0.0
H1234 H 0.19036 0.31325 0.4909 0.0
H1235 H 0.2057 0.31303 0.46086 0.0
C1236 C 0.69851 0.96831 0.4002 0.0
C1237 C 0.68585 0.96786 0.39048 0.0
C1238 C 0.69647 0.9566 0.4138 0.0
C1239 C 0.66882 0.91562 0.42648 0.0
H1240 H 0.69533 0.92469 0.47488 0.0
C1241 C 0.65902 0.87126 0.49124 0.0
C1242 C 0.67199 0.872 0.50025 0.0
C1243 C 0.66066 0.88191 0.47599 0.0
C1244 C 0.68799 0.92193 0.46123 0.0
H1245 H 0.661 0.95492 0.38825 0.0
H1246 H 0.65741 0.93457 0.41238 0.0
H1247 H 0.69764 0.94585 0.45386 0.0
H1248 H 0.69679 0.88397 0.49996 0.0
H1249 H 0.69975 0.90259 0.47305 0.0
H1250 H 0.65901 0.89165 0.43421 0.0
C1251 C 0.66897 0.9439 0.4091 0.0
C1252 C 0.68927 0.93408 0.4492 0.0
C1253 C 0.67101 0.95567 0.39543 0.0
C1254 C 0.68663 0.88303 0.49295 0.0
C1255 C 0.6883 0.8938 0.47781 0.0
C1256 C 0.66748 0.90344 0.43863 0.0
C1257 C 0.6817 0.94408 0.41818 0.0
C1258 C 0.67977 0.93111 0.43159 0.0
C1259 C 0.67534 0.89366 0.46966 0.0
C1260 C 0.67711 0.90646 0.45609 0.0
H1261 H 0.71012 0.97751 0.39684 0.0
H1262 H 0.70656 0.9571 0.42028 0.0
H1263 H 0.66147 0.91285 0.41285 0.0
H1264 H 0.64763 0.86301 0.49694 0.0
H1265 H 0.65046 0.88154 0.47017 0.0
C1266 C 0.05163 0.73006 0.38884 0.0
C1267 C 0.05048 0.71575 0.39258 0.0
C1268 C 0.06039 0.74276 0.40222 0.0
C1269 C 0.076 0.75397 0.45517 0.0
H1270 H 0.11075 0.79018 0.43043 0.0
C1271 C 0.1167 0.80559 0.50672 0.0
C1272 C 0.13192 0.80882 0.50582 0.0
C1273 C 0.10626 0.79685 0.49085 0.0
C1274 C 0.10101 0.7802 0.43748 0.0
H1275 H 0.05692 0.70326 0.41369 0.0
H1276 H 0.07165 0.72526 0.43755 0.0
H1277 H 0.09223 0.7689 0.40762 0.0
H1278 H 0.14853 0.80678 0.48663 0.0
H1279 H 0.13027 0.7917 0.45855 0.0
H1280 H 0.08479 0.76503 0.48499 0.0
C1281 C 0.066 0.72671 0.42411 0.0
C1282 C 0.09041 0.7681 0.42448 0.0
C1283 C 0.05758 0.71415 0.41049 0.0
C1284 C 0.13689 0.80452 0.48768 0.0
C1285 C 0.12643 0.79585 0.47166 0.0
C1286 C 0.0864 0.76615 0.4681 0.0
C1287 C 0.06779 0.74122 0.41983 0.0
C1288 C 0.07798 0.75477 0.43327 0.0
C1289 C 0.11086 0.79132 0.47363 0.0
C1290 C 0.09915 0.77928 0.45944 0.0
H1291 H 0.04643 0.73165 0.37499 0.0
H1292 H 0.06158 0.75384 0.39867 0.0
H1293 H 0.06653 0.7438 0.4623 0.0
H1294 H 0.11261 0.80895 0.5204 0.0
H1295 H 0.09438 0.79373 0.49257 0.0
C1296 C 0.325 0.04112 0.74017 0.0
C1297 C 0.33597 0.04478 0.72425 0.0
C1298 C 0.32674 0.0523 0.75489 0.0
C1299 C 0.34336 0.09397 0.76041 0.0
H1300 H 0.33265 0.08421 0.81913 0.0
C1301 C 0.34694 0.13818 0.8238 0.0
C1302 C 0.33579 0.13224 0.8397 0.0
C1303 C 0.34733 0.12825 0.80847 0.0
C1304 C 0.33548 0.08707 0.80272 0.0
H1305 H 0.35766 0.06287 0.71172 0.0
H1306 H 0.36068 0.08257 0.73758 0.0
H1307 H 0.33411 0.06547 0.79615 0.0
H1308 H 0.31571 0.1117 0.85143 0.0
H1309 H 0.31595 0.09444 0.8243 0.0
H1310 H 0.34444 0.11549 0.76696 0.0
C1311 C 0.35073 0.071 0.73854 0.0
C1312 C 0.33643 0.07636 0.78961 0.0
C1313 C 0.34909 0.0597 0.72392 0.0
C1314 C 0.3244 0.1165 0.83925 0.0
C1315 C 0.32469 0.10662 0.82389 0.0
C1316 C 0.34235 0.1047 0.77356 0.0
C1317 C 0.33941 0.06746 0.75393 0.0
C1318 C 0.34015 0.07958 0.76825 0.0
C1319 C 0.33652 0.11225 0.80886 0.0
C1320 C 0.33813 0.10124 0.79478 0.0
H1321 H 0.31478 0.02971 0.74084 0.0
H1322 H 0.31777 0.04924 0.76645 0.0
H1323 H 0.3461 0.09669 0.74394 0.0
H1324 H 0.35595 0.15028 0.82407 0.0
H1325 H 0.3566 0.13295 0.79713 0.0
C1326 C 0.95757 0.28725 0.72574 0.0
C1327 C 0.95518 0.29929 0.71983 0.0
C1328 C 0.94773 0.27607 0.74012 0.0
C1329 C 0.91911 0.26828 0.78169 0.0
H1330 H 0.90412 0.22515 0.76786 0.0
C1331 C 0.87246 0.21946 0.83201 0.0
C1332 C 0.87523 0.20761 0.83727 0.0
C1333 C 0.88101 0.2299 0.81609 0.0
C1334 C 0.90827 0.23714 0.77204 0.0
H1335 H 0.94092 0.30935 0.72515 0.0
H1336 H 0.9239 0.28996 0.75026 0.0
H1337 H 0.92246 0.2454 0.74458 0.0
H1338 H 0.88866 0.197 0.83003 0.0
H1339 H 0.90358 0.21513 0.80222 0.0
H1340 H 0.90514 0.26009 0.80929 0.0
C1341 C 0.93335 0.28913 0.74375 0.0
C1342 C 0.91882 0.24874 0.75873 0.0
C1343 C 0.94309 0.30022 0.72927 0.0
C1344 C 0.88615 0.2059 0.82586 0.0
C1345 C 0.8947 0.21631 0.80998 0.0
C1346 C 0.90862 0.25669 0.79505 0.0
C1347 C 0.93538 0.27677 0.74906 0.0
C1348 C 0.92438 0.26445 0.76342 0.0
C1349 C 0.89255 0.22872 0.80531 0.0
C1350 C 0.90307 0.24096 0.79042 0.0
H1351 H 0.96675 0.28615 0.71877 0.0
H1352 H 0.94973 0.26681 0.74413 0.0
H1353 H 0.92331 0.28028 0.78588 0.0
H1354 H 0.86425 0.2211 0.84091 0.0
H1355 H 0.8789 0.23918 0.81268 0.0
C1356 C 0.71805 0.6506 0.7254 0.0
C1357 C 0.71393 0.66179 0.722 0.0
C1358 C 0.73021 0.6537 0.73872 0.0
C1359 C 0.76469 0.68599 0.76553 0.0
H1360 H 0.76234 0.65194 0.79674 0.0
C1361 C 0.80385 0.69074 0.83585 0.0
C1362 C 0.80855 0.67979 0.83618 0.0
C1363 C 0.79426 0.69037 0.81981 0.0
C1364 C 0.76325 0.66153 0.78792 0.0
H1365 H 0.71932 0.68503 0.73035 0.0
H1366 H 0.74019 0.69024 0.75443 0.0
H1367 H 0.74088 0.64745 0.77484 0.0
H1368 H 0.80773 0.66052 0.81935 0.0
H1369 H 0.79086 0.65977 0.79139 0.0
H1370 H 0.78694 0.70016 0.77969 0.0
C1371 C 0.73426 0.67917 0.74628 0.0
C1372 C 0.75094 0.65897 0.77528 0.0
C1373 C 0.72218 0.67614 0.73261 0.0
C1374 C 0.8044 0.66919 0.81937 0.0
C1375 C 0.79463 0.66866 0.80351 0.0
C1376 C 0.77695 0.68861 0.77854 0.0
C1377 C 0.73851 0.668 0.74943 0.0
C1378 C 0.75151 0.6711 0.76367 0.0
C1379 C 0.78902 0.67887 0.80401 0.0
C1380 C 0.77639 0.67634 0.78968 0.0
H1381 H 0.71216 0.6395 0.71728 0.0
H1382 H 0.73329 0.64491 0.74021 0.0
H1383 H 0.76569 0.6956 0.75669 0.0
H1384 H 0.80686 0.69901 0.84868 0.0
H1385 H 0.79009 0.69836 0.8206 0.0
C1386 C 0.72768 0.67787 0.62775 0.0
C1387 C 0.71291 0.6646 0.62695 0.0
C1388 C 0.7394 0.679 0.61469 0.0
C1389 C 0.74948 0.65338 0.58521 0.0
H1390 H 0.78057 0.69124 0.55891 0.0
C1391 C 0.78684 0.65471 0.51597 0.0
C1392 C 0.80217 0.66688 0.51488 0.0
C1393 C 0.77731 0.65428 0.53221 0.0
C1394 C 0.77211 0.68063 0.56646 0.0
H1395 H 0.69855 0.6427 0.61072 0.0
H1396 H 0.71873 0.64488 0.58764 0.0
H1397 H 0.76085 0.69157 0.58082 0.0
H1398 H 0.81979 0.68779 0.53022 0.0
H1399 H 0.80305 0.68708 0.55881 0.0
H1400 H 0.76049 0.64236 0.57044 0.0
C1401 C 0.72148 0.65417 0.59881 0.0
C1402 C 0.76079 0.68081 0.57896 0.0
C1403 C 0.70986 0.653 0.61191 0.0
C1404 C 0.80804 0.6782 0.53092 0.0
C1405 C 0.79843 0.67788 0.54707 0.0
C1406 C 0.76073 0.65319 0.57267 0.0
C1407 C 0.73653 0.66691 0.60053 0.0
C1408 C 0.74915 0.66711 0.58816 0.0
C1409 C 0.78285 0.66613 0.54756 0.0
C1410 C 0.77203 0.66674 0.56286 0.0
H1411 H 0.73042 0.68696 0.63928 0.0
H1412 H 0.75086 0.68898 0.61642 0.0
H1413 H 0.74097 0.6427 0.59253 0.0
H1414 H 0.78205 0.64594 0.50365 0.0
H1415 H 0.76535 0.64514 0.53202 0.0
C1416 C 0.32269 0.05219 0.62397 0.0
C1417 C 0.33336 0.04755 0.62814 0.0
C1418 C 0.32668 0.06501 0.6114 0.0
C1419 C 0.3524 0.08896 0.56963 0.0
H1420 H 0.34212 0.11921 0.58938 0.0
C1421 C 0.36427 0.13997 0.51723 0.0
C1422 C 0.35235 0.14317 0.51598 0.0
C1423 C 0.36453 0.13082 0.53343 0.0
C1424 C 0.34498 0.11084 0.58351 0.0
H1425 H 0.35651 0.05261 0.62172 0.0
H1426 H 0.36333 0.07485 0.59926 0.0
H1427 H 0.33697 0.09749 0.6117 0.0
H1428 H 0.33186 0.14009 0.53116 0.0
H1429 H 0.33203 0.12387 0.55919 0.0
H1430 H 0.35973 0.10174 0.54109 0.0
C1431 C 0.35192 0.06856 0.60599 0.0
C1432 C 0.34205 0.09841 0.59635 0.0
C1433 C 0.348 0.05582 0.61884 0.0
C1434 C 0.3413 0.13798 0.532 0.0
C1435 C 0.34142 0.12863 0.54804 0.0
C1436 C 0.35514 0.10127 0.55666 0.0
C1437 C 0.34137 0.07343 0.60244 0.0
C1438 C 0.34553 0.08722 0.58942 0.0
C1439 C 0.35271 0.12442 0.54852 0.0
C1440 C 0.35128 0.11228 0.56329 0.0
H1441 H 0.31132 0.04616 0.63087 0.0
H1442 H 0.31823 0.06834 0.60867 0.0
H1443 H 0.35509 0.08045 0.56381 0.0
H1444 H 0.3729 0.14383 0.50499 0.0
H1445 H 0.37366 0.12822 0.53356 0.0
C1446 C 0.95649 0.29422 0.60632 0.0
C1447 C 0.96359 0.29284 0.62438 0.0
C1448 C 0.94827 0.28156 0.59278 0.0
C1449 C 0.92481 0.23989 0.59273 0.0
H1450 H 0.92901 0.24374 0.53209 0.0
C1451 C 0.8768 0.20381 0.53187 0.0
C1452 C 0.88122 0.20061 0.51236 0.0
C1453 C 0.88781 0.212 0.5475 0.0
C1454 C 0.92782 0.24235 0.549 0.0
H1455 H 0.96792 0.27723 0.64226 0.0
H1456 H 0.95318 0.25491 0.61867 0.0
H1457 H 0.94741 0.26492 0.55462 0.0
H1458 H 0.90014 0.20184 0.49472 0.0
H1459 H 0.91932 0.21606 0.52201 0.0
H1460 H 0.90476 0.21756 0.58701 0.0
C1461 C 0.95416 0.26587 0.61498 0.0
C1462 C 0.93829 0.25453 0.56185 0.0
C1463 C 0.96268 0.27866 0.62833 0.0
C1464 C 0.89649 0.20433 0.50956 0.0
C1465 C 0.90746 0.21252 0.52511 0.0
C1466 C 0.91417 0.22775 0.57982 0.0
C1467 C 0.94674 0.26718 0.59722 0.0
C1468 C 0.93675 0.25352 0.58381 0.0
C1469 C 0.90337 0.21711 0.5438 0.0
C1470 C 0.91547 0.22896 0.55781 0.0
H1471 H 0.95699 0.305 0.60289 0.0
H1472 H 0.94258 0.28285 0.57925 0.0
H1473 H 0.92332 0.2389 0.60964 0.0
H1474 H 0.86512 0.20116 0.53436 0.0
H1475 H 0.88432 0.21541 0.56173 0.0
C1476 C 0.35491 0.30011 0.61244 0.0
C1477 C 0.34357 0.29832 0.62684 0.0
C1478 C 0.35199 0.28845 0.59788 0.0
C1479 C 0.32831 0.2465 0.58991 0.0
H1480 H 0.34629 0.25687 0.53416 0.0
C1481 C 0.32413 0.20257 0.52446 0.0
C1482 C 0.33797 0.20727 0.5138 0.0
C1483 C 0.32326 0.21237 0.53959 0.0
C1484 C 0.34126 0.2538 0.54972 0.0
H1485 H 0.32003 0.28305 0.63675 0.0
H1486 H 0.31487 0.26254 0.61101 0.0
H1487 H 0.34655 0.27691 0.55634 0.0
H1488 H 0.36185 0.22522 0.51112 0.0
H1489 H 0.36045 0.24223 0.53764 0.0
H1490 H 0.32315 0.2233 0.5831 0.0
C1491 C 0.32608 0.273 0.61121 0.0
C1492 C 0.34138 0.26527 0.56241 0.0
C1493 C 0.32898 0.2848 0.62578 0.0
C1494 C 0.35111 0.22137 0.51931 0.0
C1495 C 0.35024 0.23113 0.53428 0.0
C1496 C 0.32811 0.23494 0.57709 0.0
C1497 C 0.33765 0.27464 0.59731 0.0
C1498 C 0.33531 0.26187 0.58287 0.0
C1499 C 0.33619 0.22701 0.54397 0.0
C1500 C 0.33499 0.23862 0.55711 0.0
H1501 H 0.36626 0.31039 0.61278 0.0
H1502 H 0.36123 0.29003 0.58759 0.0
H1503 H 0.32363 0.24354 0.60566 0.0
H1504 H 0.31383 0.19181 0.52016 0.0
H1505 H 0.3123 0.20894 0.54686 0.0
C1506 C 0.73767 0.04718 0.62081 0.0
C1507 C 0.72292 0.04373 0.62705 0.0
C1508 C 0.74669 0.05975 0.60782 0.0
C1509 C 0.751 0.09677 0.58952 0.0
H1510 H 0.77881 0.0946 0.54943 0.0
C1511 C 0.78346 0.14066 0.52249 0.0
C1512 C 0.79856 0.14429 0.51824 0.0
C1513 C 0.77481 0.13003 0.53814 0.0
C1514 C 0.77125 0.09545 0.56076 0.0
H1515 H 0.70594 0.05058 0.62379 0.0
H1516 H 0.72153 0.07224 0.60049 0.0
H1517 H 0.76169 0.07192 0.56997 0.0
H1518 H 0.8168 0.14048 0.52786 0.0
H1519 H 0.80169 0.12189 0.55525 0.0
H1520 H 0.76034 0.12026 0.57955 0.0
C1521 C 0.72627 0.06544 0.60615 0.0
C1522 C 0.76141 0.08243 0.57257 0.0
C1523 C 0.71726 0.05291 0.61936 0.0
C1524 C 0.80524 0.138 0.53096 0.0
C1525 C 0.79654 0.12723 0.54643 0.0
C1526 C 0.76074 0.10976 0.57746 0.0
C1527 C 0.74121 0.06916 0.60045 0.0
C1528 C 0.75121 0.08292 0.58724 0.0
C1529 C 0.78106 0.12271 0.54961 0.0
C1530 C 0.77105 0.10926 0.56309 0.0
H1531 H 0.74251 0.04048 0.62651 0.0
H1532 H 0.7582 0.06234 0.60411 0.0
H1533 H 0.74348 0.09768 0.60086 0.0
H1534 H 0.77805 0.14532 0.51282 0.0
H1535 H 0.76292 0.12675 0.54022 0.0
C1536 C 0.95791 0.66829 0.62136 0.0
C1537 C 0.97107 0.68285 0.62533 0.0
C1538 C 0.94662 0.66679 0.60727 0.0
C1539 C 0.93955 0.68697 0.56407 0.0
H1540 H 0.89702 0.66272 0.58172 0.0
C1541 C 0.8926 0.6907 0.51942 0.0
C1542 C 0.87923 0.6766 0.51461 0.0
C1543 C 0.90303 0.69131 0.53426 0.0
C1544 C 0.90883 0.66944 0.57648 0.0
H1545 H 0.98297 0.70711 0.61674 0.0
H1546 H 0.96343 0.7045 0.59232 0.0
H1547 H 0.91715 0.66332 0.60342 0.0
H1548 H 0.86599 0.65218 0.52168 0.0
H1549 H 0.88416 0.65318 0.54779 0.0
H1550 H 0.93132 0.69311 0.53718 0.0
C1551 C 0.96178 0.6942 0.60002 0.0
C1552 C 0.92037 0.66974 0.58887 0.0
C1553 C 0.97299 0.69571 0.61413 0.0
C1554 C 0.87607 0.66325 0.52557 0.0
C1555 C 0.88652 0.66384 0.54041 0.0
C1556 C 0.92805 0.68668 0.55172 0.0
C1557 C 0.9483 0.6798 0.5967 0.0
C1558 C 0.93589 0.67862 0.5829 0.0
C1559 C 0.90039 0.67778 0.54441 0.0
C1560 C 0.91254 0.67804 0.55784 0.0
H1561 H 0.95602 0.65813 0.62974 0.0
H1562 H 0.93648 0.65548 0.60485 0.0
H1563 H 0.95134 0.69371 0.55878 0.0
H1564 H 0.89537 0.70106 0.51085 0.0
H1565 H 0.91345 0.7023 0.53723 0.0
C1566 C 0.95806 0.68621 0.72397 0.0
C1567 C 0.96211 0.67508 0.71902 0.0
C1568 C 0.94522 0.6824 0.73635 0.0
C1569 C 0.9206 0.65641 0.77711 0.0
H1570 H 0.89258 0.66974 0.75982 0.0
C1571 C 0.87112 0.64699 0.83123 0.0
C1572 C 0.86887 0.6596 0.83342 0.0
C1573 C 0.88 0.64643 0.81473 0.0
C1574 C 0.90033 0.66602 0.76499 0.0
H1575 H 0.95588 0.6512 0.7236 0.0
H1576 H 0.93353 0.64464 0.74581 0.0
H1577 H 0.91346 0.67366 0.73653 0.0
H1578 H 0.87347 0.68114 0.81971 0.0
H1579 H 0.88928 0.68045 0.79113 0.0
H1580 H 0.90807 0.64947 0.80596 0.0
C1581 C 0.94032 0.6563 0.73982 0.0
C1582 C 0.91226 0.66822 0.75159 0.0
C1583 C 0.9531 0.66006 0.72712 0.0
C1584 C 0.87488 0.67119 0.81815 0.0
C1585 C 0.88396 0.67076 0.80179 0.0
C1586 C 0.90879 0.65438 0.79064 0.0
C1587 C 0.93617 0.66741 0.74434 0.0
C1588 C 0.92266 0.66366 0.75766 0.0
C1589 C 0.88706 0.65861 0.80026 0.0
C1590 C 0.89862 0.65937 0.78491 0.0
H1591 H 0.96464 0.69788 0.71798 0.0
H1592 H 0.94245 0.69127 0.73983 0.0
H1593 H 0.92853 0.65292 0.78228 0.0
H1594 H 0.86657 0.63791 0.84286 0.0
H1595 H 0.88177 0.63669 0.81379 0.0
C1596 C 0.33477 0.28417 0.72113 0.0
C1597 C 0.34798 0.29887 0.72363 0.0
C1598 C 0.33246 0.27181 0.73369 0.0
C1599 C 0.35388 0.26016 0.76989 0.0
H1600 H 0.31291 0.22648 0.78252 0.0
C1601 C 0.34531 0.20961 0.82188 0.0
C1602 C 0.33333 0.2043 0.83659 0.0
C1603 C 0.34622 0.21918 0.80533 0.0
C1604 C 0.32447 0.23583 0.77939 0.0
H1605 H 0.36871 0.3124 0.74195 0.0
H1606 H 0.3642 0.29126 0.76488 0.0
H1607 H 0.31613 0.24792 0.76173 0.0
H1608 H 0.31219 0.2037 0.84438 0.0
H1609 H 0.31412 0.22077 0.81664 0.0
H1610 H 0.36219 0.24866 0.78891 0.0
C1611 C 0.35595 0.28892 0.75256 0.0
C1612 C 0.32634 0.24812 0.76706 0.0
C1613 C 0.35845 0.30116 0.73962 0.0
C1614 C 0.32174 0.20784 0.83353 0.0
C1615 C 0.32277 0.21754 0.81733 0.0
C1616 C 0.352 0.24806 0.78264 0.0
C1617 C 0.34312 0.27392 0.74944 0.0
C1618 C 0.34108 0.26058 0.76227 0.0
C1619 C 0.33525 0.22375 0.80329 0.0
C1620 C 0.33726 0.23579 0.78783 0.0
H1621 H 0.32662 0.282 0.70869 0.0
H1622 H 0.32256 0.26049 0.73044 0.0
H1623 H 0.36545 0.26923 0.76614 0.0
H1624 H 0.35438 0.20705 0.82376 0.0
H1625 H 0.3558 0.22334 0.79454 0.0
C1626 C 0.72099 0.0575 0.7239 0.0
C1627 C 0.71922 0.04268 0.72385 0.0
C1628 C 0.7309 0.06885 0.73838 0.0
C1629 C 0.75133 0.07407 0.78864 0.0
H1630 H 0.78202 0.11401 0.76659 0.0
C1631 C 0.8046 0.11378 0.83681 0.0
C1632 C 0.80847 0.12927 0.83898 0.0
C1633 C 0.79428 0.10426 0.8213 0.0
C1634 C 0.77344 0.10297 0.773 0.0
H1635 H 0.72572 0.02787 0.73959 0.0
H1636 H 0.74271 0.04745 0.76483 0.0
H1637 H 0.76122 0.09525 0.74371 0.0
H1638 H 0.80548 0.14732 0.82588 0.0
H1639 H 0.78731 0.13062 0.79858 0.0
H1640 H 0.76349 0.08158 0.81777 0.0
C1641 C 0.73656 0.05041 0.75374 0.0
C1642 C 0.7615 0.09227 0.75996 0.0
C1643 C 0.72686 0.03919 0.73921 0.0
C1644 C 0.80275 0.13543 0.82435 0.0
C1645 C 0.79232 0.12585 0.80882 0.0
C1646 C 0.7632 0.08471 0.80161 0.0
C1647 C 0.73897 0.06546 0.75322 0.0
C1648 C 0.75049 0.07759 0.76756 0.0
C1649 C 0.7875 0.11001 0.80774 0.0
C1650 C 0.77459 0.09915 0.79385 0.0
H1651 H 0.71533 0.06055 0.71213 0.0
H1652 H 0.73245 0.08033 0.73774 0.0
H1653 H 0.74287 0.06297 0.79505 0.0
H1654 H 0.80893 0.10881 0.84788 0.0
H1655 H 0.79112 0.09221 0.8205 0.0
C1656 C 0.04548 0.34216 0.03753 0.0
C1657 C 0.04713 0.35519 0.02715 0.0
C1658 C 0.05835 0.34151 0.04361 0.0
C1659 C 0.09841 0.36501 0.05887 0.0
H1660 H 0.09906 0.32733 0.04774 0.0
C1661 C 0.14476 0.35561 0.0964 0.0
C1662 C 0.13881 0.34105 0.10571 0.0
C1663 C 0.13586 0.35821 0.08203 0.0
C1664 C 0.09907 0.33793 0.05108 0.0
H1665 H 0.06365 0.3779 0.01527 0.0
H1666 H 0.0863 0.37694 0.02653 0.0
H1667 H 0.07872 0.33042 0.03277 0.0
H1668 H 0.11942 0.3176 0.10654 0.0
H1669 H 0.10396 0.32199 0.08176 0.0
H1670 H 0.11823 0.37219 0.07817 0.0
C1671 C 0.07495 0.36717 0.02969 0.0
C1672 C 0.08743 0.3397 0.04243 0.0
C1673 C 0.06201 0.3677 0.02324 0.0
C1674 C 0.12432 0.32889 0.09937 0.0
C1675 C 0.11547 0.33145 0.0851 0.0
C1676 C 0.10998 0.36316 0.06778 0.0
C1677 C 0.07323 0.35398 0.03975 0.0
C1678 C 0.08674 0.35309 0.04666 0.0
C1679 C 0.12087 0.34627 0.07676 0.0
C1680 C 0.11022 0.34939 0.06448 0.0
H1681 H 0.0342 0.33229 0.04074 0.0
H1682 H 0.05665 0.33129 0.05158 0.0
H1683 H 0.09813 0.37543 0.06247 0.0
H1684 H 0.15584 0.36521 0.10125 0.0
H1685 H 0.1405 0.36971 0.0757 0.0
C1686 C 0.68685 0.70851 0.04349 0.0
C1687 C 0.67369 0.69913 0.03134 0.0
C1688 C 0.69027 0.72324 0.05029 0.0
C1689 C 0.68047 0.75384 0.04097 0.0
H1690 H 0.69678 0.76703 0.0973 0.0
C1691 C 0.67757 0.80113 0.09066 0.0
C1692 C 0.68938 0.80959 0.10528 0.0
C1693 C 0.67796 0.79003 0.07755 0.0
C1694 C 0.69251 0.76369 0.08136 0.0
H1695 H 0.65373 0.69778 0.01687 0.0
H1696 H 0.65938 0.7232 0.02927 0.0
H1697 H 0.69244 0.74248 0.08355 0.0
H1698 H 0.7116 0.81439 0.11614 0.0
H1699 H 0.71251 0.79533 0.09293 0.0
H1700 H 0.68 0.77491 0.0393 0.0
C1701 C 0.66732 0.71942 0.03314 0.0
C1702 C 0.69 0.74955 0.07345 0.0
C1703 C 0.66399 0.70476 0.02618 0.0
C1704 C 0.70236 0.80802 0.10495 0.0
C1705 C 0.70278 0.79697 0.09187 0.0
C1706 C 0.68288 0.76797 0.04898 0.0
C1707 C 0.68052 0.72888 0.04529 0.0
C1708 C 0.68384 0.74435 0.05321 0.0
C1709 C 0.69019 0.78724 0.07891 0.0
C1710 C 0.68885 0.77301 0.06933 0.0
H1711 H 0.69462 0.70455 0.04757 0.0
H1712 H 0.70066 0.73026 0.05933 0.0
H1713 H 0.67595 0.75035 0.02518 0.0
H1714 H 0.66734 0.80199 0.09082 0.0
H1715 H 0.66808 0.78273 0.06775 0.0
C1716 C 0.30832 0.98011 0.04779 0.0
C1717 C 0.31679 0.97615 0.03424 0.0
C1718 C 0.29386 0.96871 0.05507 0.0
C1719 C 0.26223 0.92797 0.04432 0.0
H1720 H 0.25003 0.93127 0.10112 0.0
C1721 C 0.21366 0.87754 0.09222 0.0
C1722 C 0.20541 0.88131 0.10645 0.0
C1723 C 0.22525 0.88906 0.07979 0.0
C1724 C 0.25313 0.93029 0.08508 0.0
H1725 H 0.31691 0.9571 0.01808 0.0
H1726 H 0.29204 0.93717 0.03138 0.0
H1727 H 0.27475 0.95135 0.08794 0.0
H1728 H 0.2019 0.89964 0.11783 0.0
H1729 H 0.22187 0.91969 0.09583 0.0
H1730 H 0.24072 0.90648 0.04197 0.0
C1731 C 0.29626 0.94911 0.03592 0.0
C1732 C 0.26736 0.94184 0.07749 0.0
C1733 C 0.31063 0.96053 0.02845 0.0
C1734 C 0.20795 0.89642 0.10669 0.0
C1735 C 0.21954 0.90792 0.09436 0.0
C1736 C 0.24804 0.9163 0.05204 0.0
C1737 C 0.28759 0.95304 0.04919 0.0
C1738 C 0.27218 0.94085 0.05703 0.0
C1739 C 0.22884 0.90454 0.08158 0.0
C1740 C 0.24334 0.91732 0.07253 0.0
H1741 H 0.31269 0.99207 0.05237 0.0
H1742 H 0.28748 0.97228 0.065 0.0
H1743 H 0.26537 0.9269 0.02836 0.0
H1744 H 0.21213 0.86605 0.09215 0.0
H1745 H 0.23224 0.88609 0.07016 0.0
C1746 C 0.3415 0.03966 0.98215 0.0
C1747 C 0.35521 0.0416 0.99034 0.0
C1748 C 0.34072 0.05235 0.97517 0.0
C1749 C 0.36139 0.09577 0.97578 0.0
H1750 H 0.33421 0.08821 0.92867 0.0
C1751 C 0.35996 0.14173 0.92096 0.0
C1752 C 0.34525 0.13875 0.91567 0.0
C1753 C 0.36168 0.13157 0.93403 0.0
C1754 C 0.34172 0.09048 0.94199 0.0
H1755 H 0.37889 0.05845 0.99779 0.0
H1756 H 0.3778 0.08069 0.98463 0.0
H1757 H 0.33675 0.06716 0.94206 0.0
H1758 H 0.32091 0.12341 0.9206 0.0
H1759 H 0.32386 0.10569 0.94341 0.0
H1760 H 0.36683 0.11947 0.97465 0.0
C1761 C 0.36747 0.06936 0.98411 0.0
C1762 C 0.34316 0.07836 0.9498 0.0
C1763 C 0.36816 0.05661 0.99152 0.0
C1764 C 0.33236 0.12613 0.92486 0.0
C1765 C 0.33406 0.1159 0.93767 0.0
C1766 C 0.36015 0.10802 0.96763 0.0
C1767 C 0.35373 0.06739 0.97567 0.0
C1768 C 0.35283 0.08071 0.96701 0.0
C1769 C 0.34869 0.11814 0.94162 0.0
C1770 C 0.35014 0.10542 0.95083 0.0
H1771 H 0.33121 0.02829 0.98136 0.0
H1772 H 0.32978 0.05029 0.96949 0.0
H1773 H 0.36886 0.09808 0.98913 0.0
H1774 H 0.37002 0.15115 0.91359 0.0
H1775 H 0.37307 0.13351 0.93671 0.0
C1776 C 0.98442 0.30648 0.97147 0.0
C1777 C 0.98096 0.31524 0.98536 0.0
C1778 C 0.97283 0.29194 0.9642 0.0
C1779 C 0.93247 0.26047 0.97514 0.0
H1780 H 0.93433 0.24856 0.91747 0.0
C1781 C 0.88105 0.21222 0.92725 0.0
C1782 C 0.88434 0.20407 0.91206 0.0
C1783 C 0.89285 0.22371 0.93973 0.0
C1784 C 0.93375 0.25157 0.93374 0.0
H1785 H 0.9626 0.31573 0.0023 0.0
H1786 H 0.94233 0.29066 0.98909 0.0
H1787 H 0.95478 0.2732 0.93111 0.0
H1788 H 0.90209 0.20051 0.89913 0.0
H1789 H 0.92259 0.22025 0.92123 0.0
H1790 H 0.91103 0.23893 0.97731 0.0
C1791 C 0.95403 0.29477 0.98421 0.0
C1792 C 0.94552 0.26575 0.9416 0.0
C1793 C 0.96564 0.30923 0.99165 0.0
C1794 C 0.89926 0.20655 0.91092 0.0
C1795 C 0.91102 0.21799 0.92334 0.0
C1796 C 0.92059 0.2463 0.96718 0.0
C1797 C 0.95746 0.28586 0.97046 0.0
C1798 C 0.94504 0.27046 0.96238 0.0
C1799 C 0.9081 0.22726 0.93709 0.0
C1800 C 0.92109 0.2417 0.94636 0.0
H1801 H 0.99613 0.31073 0.9665 0.0
H1802 H 0.976 0.28537 0.9539 0.0
H1803 H 0.9318 0.26355 0.99133 0.0
H1804 H 0.86969 0.21071 0.92811 0.0
H1805 H 0.89022 0.23066 0.95014 0.0
C1806 C 0.70011 0.66026 0.96902 0.0
C1807 C 0.69433 0.65441 0.98909 0.0
C1808 C 0.71272 0.65979 0.96094 0.0
C1809 C 0.74737 0.6603 0.97629 0.0
H1810 H 0.74633 0.64535 0.91941 0.0
C1811 C 0.80052 0.67692 0.92363 0.0
C1812 C 0.79999 0.66529 0.91057 0.0
C1813 C 0.78811 0.67369 0.93674 0.0
C1814 C 0.74676 0.64939 0.93541 0.0
H1815 H 0.69723 0.6435 0.01647 0.0
H1816 H 0.71958 0.64303 0.00245 0.0
H1817 H 0.72318 0.64326 0.9346 0.0
H1818 H 0.78652 0.64115 0.90138 0.0
H1819 H 0.76476 0.63543 0.92429 0.0
H1820 H 0.77118 0.66699 0.97673 0.0
C1821 C 0.71421 0.64782 0.99296 0.0
C1822 C 0.73355 0.64831 0.94403 0.0
C1823 C 0.70138 0.64801 0.00089 0.0
C1824 C 0.78728 0.65019 0.91167 0.0
C1825 C 0.77479 0.64699 0.92457 0.0
C1826 C 0.76071 0.66163 0.96752 0.0
C1827 C 0.72 0.65373 0.9729 0.0
C1828 C 0.73375 0.65388 0.96446 0.0
C1829 C 0.77486 0.65884 0.93666 0.0
C1830 C 0.76055 0.65627 0.94693 0.0
H1831 H 0.69493 0.66527 0.95957 0.0
H1832 H 0.71701 0.66452 0.9455 0.0
H1833 H 0.74785 0.66477 0.99204 0.0
H1834 H 0.81008 0.68872 0.92262 0.0
H1835 H 0.78843 0.68308 0.94573 0.0
C1836 C 0.97385 0.67146 0.97708 0.0
C1837 C 0.97088 0.65834 0.98851 0.0
C1838 C 0.96184 0.67302 0.96947 0.0
C1839 C 0.91984 0.65783 0.97458 0.0
H1840 H 0.92567 0.67656 0.91977 0.0
C1841 C 0.8715 0.6553 0.92211 0.0
C1842 C 0.87545 0.66834 0.90984 0.0
C1843 C 0.88245 0.65506 0.93522 0.0
C1844 C 0.92392 0.67153 0.93525 0.0
H1845 H 0.95288 0.63657 0.00109 0.0
H1846 H 0.93176 0.63904 0.98718 0.0
H1847 H 0.94587 0.67348 0.9347 0.0
H1848 H 0.89349 0.69159 0.90236 0.0
H1849 H 0.91254 0.69138 0.92553 0.0
H1850 H 0.89753 0.65546 0.97454 0.0
C1851 C 0.94344 0.6483 0.98445 0.0
C1852 C 0.93554 0.66975 0.94386 0.0
C1853 C 0.95554 0.64681 0.99229 0.0
C1854 C 0.89013 0.68152 0.91197 0.0
C1855 C 0.90107 0.68129 0.925 0.0
C1856 C 0.90809 0.65949 0.96581 0.0
C1857 C 0.94645 0.66141 0.97281 0.0
C1858 C 0.93375 0.66296 0.9637 0.0
C1859 C 0.89757 0.66782 0.93603 0.0
C1860 C 0.91006 0.66646 0.94609 0.0
H1861 H 0.98553 0.68068 0.97412 0.0
H1862 H 0.96467 0.68346 0.96105 0.0
H1863 H 0.91808 0.65269 0.98997 0.0
H1864 H 0.86035 0.64488 0.9203 0.0
H1865 H 0.87942 0.64449 0.94342 0.0
C1866 C 0.35454 0.30966 0.98595 0.0
C1867 C 0.34418 0.31468 0.98196 0.0
C1868 C 0.35138 0.29506 0.9791 0.0
C1869 C 0.32704 0.26298 0.94205 0.0
H1870 H 0.33966 0.24002 0.97692 0.0
C1871 C 0.31469 0.20355 0.91512 0.0
C1872 C 0.32801 0.20262 0.91359 0.0
C1873 C 0.31457 0.21499 0.92765 0.0
C1874 C 0.33604 0.24628 0.96706 0.0
H1875 H 0.32245 0.30843 0.96749 0.0
H1876 H 0.31672 0.28275 0.95583 0.0
H1877 H 0.34377 0.26497 0.9893 0.0
H1878 H 0.35108 0.21181 0.92535 0.0
H1879 H 0.35085 0.23174 0.94759 0.0
H1880 H 0.31939 0.24434 0.9198 0.0
C1881 C 0.32745 0.2902 0.96394 0.0
C1882 C 0.33848 0.26064 0.97405 0.0
C1883 C 0.3307 0.30491 0.97062 0.0
C1884 C 0.34061 0.21217 0.92655 0.0
C1885 C 0.34049 0.22364 0.93915 0.0
C1886 C 0.32447 0.24859 0.93518 0.0
C1887 C 0.33769 0.28502 0.96829 0.0
C1888 C 0.33424 0.2693 0.96147 0.0
C1889 C 0.32778 0.22571 0.93885 0.0
C1890 C 0.3291 0.24015 0.94748 0.0
H1891 H 0.36508 0.31697 0.99456 0.0
H1892 H 0.35974 0.29169 0.98228 0.0
H1893 H 0.32383 0.26937 0.93177 0.0
H1894 H 0.30489 0.19637 0.90511 0.0
H1895 H 0.30451 0.21613 0.92743 0.0
C1896 C 0.70717 0.03327 0.97853 0.0
C1897 C 0.69696 0.03566 0.99074 0.0
C1898 C 0.72123 0.04586 0.97202 0.0
C1899 C 0.74063 0.08717 0.96039 0.0
H1900 H 0.77808 0.08622 0.96736 0.0
C1901 C 0.79759 0.13637 0.92719 0.0
C1902 C 0.80624 0.13131 0.91607 0.0
C1903 C 0.78586 0.12628 0.94086 0.0
C1904 C 0.76774 0.08667 0.96512 0.0
H1905 H 0.69338 0.05316 0.00542 0.0
H1906 H 0.71775 0.07514 0.99357 0.0
H1907 H 0.75385 0.06494 0.98056 0.0
H1908 H 0.81028 0.11233 0.91159 0.0
H1909 H 0.78995 0.09478 0.93498 0.0
H1910 H 0.75421 0.10842 0.94402 0.0
C1911 C 0.71493 0.06352 0.98922 0.0
C1912 C 0.75386 0.07446 0.97273 0.0
C1913 C 0.701 0.05092 0.99603 0.0
C1914 C 0.80386 0.11654 0.92018 0.0
C1915 C 0.79214 0.10647 0.93364 0.0
C1916 C 0.75447 0.09928 0.95247 0.0
C1917 C 0.72526 0.06112 0.9773 0.0
C1918 C 0.74012 0.07448 0.9702 0.0
C1919 C 0.78252 0.11093 0.9435 0.0
C1920 C 0.76821 0.0991 0.95441 0.0
H1921 H 0.7044 0.02165 0.97425 0.0
H1922 H 0.72889 0.04367 0.96266 0.0
H1923 H 0.7302 0.08746 0.95811 0.0
H1924 H 0.7991 0.14764 0.9241 0.0
H1925 H 0.77895 0.13028 0.94854 0.0
C1926 C 0.66396 0.96706 0.04866 0.0
C1927 C 0.65736 0.96691 0.02921 0.0
C1928 C 0.66392 0.95389 0.05564 0.0
C1929 C 0.66304 0.91869 0.03843 0.0
H1930 H 0.64808 0.90424 0.09475 0.0
C1931 C 0.67498 0.87766 0.08914 0.0
C1932 C 0.66282 0.86703 0.10183 0.0
C1933 C 0.6731 0.88779 0.07617 0.0
C1934 C 0.65217 0.90803 0.07891 0.0
H1935 H 0.64576 0.95288 0.00166 0.0
H1936 H 0.64601 0.92991 0.01373 0.0
H1937 H 0.6475 0.92651 0.0811 0.0
H1938 H 0.63892 0.85775 0.10973 0.0
H1939 H 0.63557 0.87521 0.08697 0.0
H1940 H 0.66817 0.90041 0.03662 0.0
C1941 C 0.65109 0.94022 0.0236 0.0
C1942 C 0.65195 0.92087 0.07118 0.0
C1943 C 0.65085 0.95332 0.01678 0.0
C1944 C 0.6484 0.8657 0.09986 0.0
C1945 C 0.64655 0.87583 0.08706 0.0
C1946 C 0.66353 0.90597 0.04635 0.0
C1947 C 0.65754 0.94035 0.04317 0.0
C1948 C 0.65741 0.92637 0.0509 0.0
C1949 C 0.65908 0.88749 0.07591 0.0
C1950 C 0.65806 0.90048 0.06668 0.0
H1951 H 0.66909 0.97735 0.05859 0.0
H1952 H 0.66904 0.95435 0.07075 0.0
H1953 H 0.6674 0.92276 0.02277 0.0
H1954 H 0.68628 0.87915 0.09075 0.0
H1955 H 0.68297 0.89668 0.06779 0.0
C1956 C 0.03319 0.70373 0.04624 0.0
C1957 C 0.03599 0.69363 0.03417 0.0
C1958 C 0.04541 0.71806 0.05308 0.0
C1959 C 0.08648 0.73881 0.0651 0.0
H1960 H 0.08441 0.77582 0.05663 0.0
C1961 C 0.13486 0.79751 0.09606 0.0
C1962 C 0.12966 0.80601 0.10737 0.0
C1963 C 0.12483 0.78535 0.08264 0.0
C1964 C 0.08516 0.76561 0.05925 0.0
H1965 H 0.05376 0.6904 0.02031 0.0
H1966 H 0.07507 0.71522 0.0327 0.0
H1967 H 0.06351 0.75079 0.04414 0.0
H1968 H 0.11052 0.80954 0.11215 0.0
H1969 H 0.09304 0.78839 0.08919 0.0
H1970 H 0.10771 0.75334 0.08104 0.0
C1971 C 0.06345 0.71213 0.0367 0.0
C1972 C 0.07317 0.75128 0.05209 0.0
C1973 C 0.05124 0.69794 0.02959 0.0
C1974 C 0.11479 0.80313 0.10357 0.0
C1975 C 0.10477 0.79098 0.09032 0.0
C1976 C 0.09838 0.7531 0.07252 0.0
C1977 C 0.06065 0.72243 0.04826 0.0
C1978 C 0.07362 0.73771 0.05519 0.0
C1979 C 0.10943 0.78147 0.0804 0.0
C1980 C 0.09779 0.76668 0.06997 0.0
H1981 H 0.02155 0.70074 0.04992 0.0
H1982 H 0.04295 0.72572 0.06217 0.0
H1983 H 0.08709 0.72851 0.06779 0.0
H1984 H 0.14626 0.79947 0.09881 0.0
H1985 H 0.12893 0.77851 0.07486 0.0
C1986 C 0.30681 0.3378 0.04217 0.0
C1987 C 0.31705 0.35055 0.02996 0.0
C1988 C 0.29268 0.33584 0.04839 0.0
C1989 C 0.27226 0.3568 0.05756 0.0
H1990 H 0.23614 0.31557 0.05575 0.0
C1991 C 0.21511 0.34604 0.09169 0.0
C1992 C 0.2085 0.33374 0.10593 0.0
C1993 C 0.22633 0.34741 0.07745 0.0
C1994 C 0.2461 0.32716 0.05637 0.0
H1995 H 0.32058 0.3714 0.015 0.0
H1996 H 0.29592 0.36806 0.02611 0.0
H1997 H 0.26044 0.31982 0.04175 0.0
H1998 H 0.20738 0.31259 0.11538 0.0
H1999 H 0.22677 0.31483 0.09061 0.0
H2000 H 0.25813 0.36406 0.0729 0.0
C2001 C 0.29885 0.35957 0.03083 0.0
C2002 C 0.26004 0.32959 0.0484 0.0
C2003 C 0.31296 0.36148 0.02446 0.0
C2004 C 0.21224 0.32211 0.10441 0.0
C2005 C 0.22338 0.32343 0.09019 0.0
C2006 C 0.25834 0.35436 0.06564 0.0
C2007 C 0.28847 0.34662 0.04267 0.0
C2008 C 0.27337 0.34437 0.04933 0.0
C2009 C 0.23109 0.33647 0.0772 0.0
C2010 C 0.24515 0.33944 0.06558 0.0
H2011 H 0.30958 0.32916 0.04667 0.0
H2012 H 0.28508 0.32589 0.05783 0.0
H2013 H 0.28233 0.36831 0.05864 0.0
H2014 H 0.21252 0.35523 0.09273 0.0
H2015 H 0.23184 0.35745 0.0674 0.0
C2016 C 0.7271 0.70147 0.35802 0.0
C2017 C 0.71223 0.68903 0.36218 0.0
C2018 C 0.74007 0.70111 0.36486 0.0
C2019 C 0.75253 0.67384 0.37821 0.0
H2020 H 0.78405 0.70678 0.41263 0.0
C2021 C 0.79127 0.66382 0.43281 0.0
C2022 C 0.80578 0.67615 0.43875 0.0
C2023 C 0.78195 0.66618 0.41913 0.0
C2024 C 0.77559 0.69762 0.40261 0.0
H2025 H 0.69935 0.66652 0.37688 0.0
H2026 H 0.72184 0.66582 0.38839 0.0
H2027 H 0.76362 0.70981 0.39765 0.0
H2028 H 0.82236 0.70041 0.43412 0.0
H2029 H 0.80627 0.70455 0.40949 0.0
H2030 H 0.76433 0.66159 0.38301 0.0
C2031 C 0.72351 0.67585 0.37991 0.0
C2032 C 0.76382 0.69935 0.39413 0.0
C2033 C 0.71062 0.67632 0.37344 0.0
C2034 C 0.81129 0.69068 0.42955 0.0
C2035 C 0.80194 0.69307 0.41574 0.0
C2036 C 0.76438 0.6722 0.3864 0.0
C2037 C 0.73838 0.68817 0.37559 0.0
C2038 C 0.75193 0.68728 0.38237 0.0
C2039 C 0.78691 0.68096 0.41095 0.0
C2040 C 0.77583 0.68384 0.39929 0.0
H2041 H 0.72872 0.71141 0.34936 0.0
H2042 H 0.7514 0.71077 0.36134 0.0
H2043 H 0.74365 0.66446 0.36888 0.0
H2044 H 0.78669 0.65255 0.43992 0.0
H2045 H 0.77045 0.65658 0.41617 0.0
C2046 C 0.34083 0.03162 0.38857 0.0
C2047 C 0.33349 0.02524 0.36926 0.0
C2048 C 0.34164 0.04507 0.39664 0.0
C2049 C 0.3401 0.07943 0.38096 0.0
H2050 H 0.3282 0.0801 0.43885 0.0
C2051 C 0.35011 0.13416 0.42772 0.0
C2052 C 0.3384 0.13205 0.4416 0.0
C2053 C 0.34876 0.1216 0.41606 0.0
C2054 C 0.33145 0.08004 0.4226 0.0
H2055 H 0.32145 0.02805 0.34315 0.0
H2056 H 0.32305 0.05149 0.3571 0.0
H2057 H 0.32827 0.05734 0.42511 0.0
H2058 H 0.31585 0.11558 0.4535 0.0
H2059 H 0.31333 0.09367 0.43294 0.0
H2060 H 0.34339 0.10223 0.37856 0.0
C2061 C 0.32816 0.04615 0.36601 0.0
C2062 C 0.33167 0.06709 0.41483 0.0
C2063 C 0.32716 0.03264 0.35811 0.0
C2064 C 0.32487 0.11752 0.44253 0.0
C2065 C 0.32356 0.10496 0.43105 0.0
C2066 C 0.34008 0.09249 0.38883 0.0
C2067 C 0.33535 0.05249 0.38538 0.0
C2068 C 0.33589 0.06659 0.39389 0.0
C2069 C 0.33576 0.10672 0.41842 0.0
C2070 C 0.3356 0.09286 0.40968 0.0
H2071 H 0.34583 0.02617 0.39748 0.0
H2072 H 0.34732 0.04976 0.4116 0.0
H2073 H 0.34349 0.07939 0.36478 0.0
H2074 H 0.3608 0.14519 0.42721 0.0
H2075 H 0.35836 0.12328 0.40652 0.0
C2076 C 0.97634 0.3147 0.38316 0.0
C2077 C 0.98443 0.31046 0.36929 0.0
C2078 C 0.96187 0.30352 0.39073 0.0
C2079 C 0.9294 0.26346 0.37956 0.0
H2080 H 0.91856 0.26543 0.4376 0.0
C2081 C 0.88171 0.21159 0.42559 0.0
C2082 C 0.87396 0.21465 0.44151 0.0
C2083 C 0.89303 0.2237 0.41361 0.0
C2084 C 0.92126 0.26484 0.42122 0.0
H2085 H 0.98387 0.29113 0.35289 0.0
H2086 H 0.95894 0.27164 0.36649 0.0
H2087 H 0.94311 0.2857 0.42407 0.0
H2088 H 0.87116 0.23243 0.45663 0.0
H2089 H 0.89061 0.25358 0.43535 0.0
H2090 H 0.90768 0.24228 0.37702 0.0
C2091 C 0.96351 0.28362 0.37113 0.0
C2092 C 0.93539 0.27649 0.41346 0.0
C2093 C 0.9779 0.29479 0.36349 0.0
C2094 C 0.87679 0.22978 0.44413 0.0
C2095 C 0.88811 0.24189 0.4322 0.0
C2096 C 0.91528 0.25176 0.38737 0.0
C2097 C 0.9552 0.28784 0.38468 0.0
C2098 C 0.93976 0.27586 0.3926 0.0
C2099 C 0.89687 0.2391 0.41751 0.0
C2100 C 0.9111 0.25223 0.40837 0.0
H2101 H 0.98102 0.3267 0.3878 0.0
H2102 H 0.95577 0.30724 0.40098 0.0
H2103 H 0.93223 0.26274 0.36329 0.0
H2104 H 0.87999 0.20008 0.4237 0.0
H2105 H 0.89961 0.22115 0.40254 0.0
C2106 C 0.03398 0.38933 0.32384 0.0
C2107 C 0.02184 0.37402 0.32078 0.0
C2108 C 0.03304 0.40181 0.31598 0.0
C2109 C 0.01108 0.41059 0.27712 0.0
H2110 H 0.02911 0.44996 0.30697 0.0
C2111 C 1.00173 0.45863 0.24755 0.0
C2112 C 0.01535 0.47277 0.24413 0.0
C2113 C 1.00176 0.44736 0.26022 0.0
C2114 C 0.02401 0.43901 0.29849 0.0
H2115 H 0.99905 0.35986 0.30748 0.0
H2116 H 0.9972 0.3814 0.29446 0.0
H2117 H 0.03102 0.42864 0.32181 0.0
H2118 H 0.03947 0.48659 0.25193 0.0
H2119 H 0.03949 0.46706 0.2746 0.0
H2120 H 1.00399 0.42088 0.25393 0.0
C2121 C 0.00769 0.3839 0.3023 0.0
C2122 C 0.0252 0.42682 0.30689 0.0
C2123 C 0.00871 0.37148 0.3099 0.0
C2124 C 0.02875 0.47591 0.2548 0.0
C2125 C 0.02876 0.46469 0.26764 0.0
C2126 C 0.00975 0.42267 0.26891 0.0
C2127 C 0.01986 0.39926 0.30506 0.0
C2128 C 0.01875 0.41241 0.29629 0.0
C2129 C 0.01543 0.45002 0.26971 0.0
C2130 C 0.01619 0.43703 0.27945 0.0
H2131 H 0.04425 0.39166 0.33218 0.0
H2132 H 0.04274 0.41343 0.31822 0.0
H2133 H 1.00631 0.39988 0.26814 0.0
H2134 H 0.99136 0.45583 0.23909 0.0
H2135 H 0.99127 0.43623 0.26169 0.0
C2136 C 0.63296 0.63994 0.32208 0.0
C2137 C 0.64848 0.64635 0.31661 0.0
C2138 C 0.62191 0.62516 0.31499 0.0
C2139 C 0.61476 0.5957 0.27414 0.0
H2140 H 0.58025 0.56918 0.31003 0.0
C2141 C 0.56738 0.53729 0.24296 0.0
C2142 C 0.55271 0.5354 0.2445 0.0
C2143 C 0.5794 0.54825 0.25553 0.0
C2144 C 0.58983 0.57644 0.29986 0.0
H2145 H 0.66462 0.6423 0.29941 0.0
H2146 H 0.64531 0.61631 0.28719 0.0
H2147 H 0.60097 0.59392 0.32373 0.0
H2148 H 0.5387 0.5425 0.26132 0.0
H2149 H 0.55966 0.56161 0.28353 0.0
H2150 H 0.60353 0.57839 0.25019 0.0
C2151 C 0.64164 0.62281 0.29674 0.0
C2152 C 0.60168 0.59066 0.30763 0.0
C2153 C 0.65272 0.63769 0.30375 0.0
C2154 C 0.54986 0.54355 0.26019 0.0
C2155 C 0.56191 0.55457 0.27278 0.0
C2156 C 0.60298 0.58147 0.26642 0.0
C2157 C 0.62609 0.61633 0.30236 0.0
C2158 C 0.61415 0.60061 0.29473 0.0
C2159 C 0.57697 0.55761 0.26976 0.0
C2160 C 0.59025 0.57177 0.27907 0.0
H2161 H 0.6293 0.64633 0.33191 0.0
H2162 H 0.61003 0.62075 0.31925 0.0
H2163 H 0.62403 0.60312 0.26363 0.0
H2164 H 0.56984 0.53124 0.23076 0.0
H2165 H 0.5908 0.55012 0.25311 0.0
C2166 C 0.3756 1.00201 0.31601 0.0
C2167 C 0.36412 0.98899 0.32662 0.0
C2168 C 0.38908 1.00263 0.30947 0.0
C2169 C 0.40469 0.97838 0.29401 0.0
H2170 H 0.44399 0.01621 0.30192 0.0
C2171 C 0.45939 0.9854 0.25518 0.0
C2172 C 0.468 0.9994 0.2444 0.0
C2173 C 0.44829 0.98365 0.26996 0.0
C2174 C 0.43312 0.00557 0.29951 0.0
H2175 H 0.35773 0.96634 0.33854 0.0
H2176 H 0.38123 0.96731 0.32664 0.0
H2177 H 0.42095 0.01394 0.3177 0.0
H2178 H 0.47267 0.02287 0.24167 0.0
H2179 H 0.45344 0.01991 0.26712 0.0
H2180 H 0.41665 0.97027 0.27494 0.0
C2181 C 0.37979 0.97707 0.32357 0.0
C2182 C 0.41992 0.00427 0.30858 0.0
C2183 C 0.36637 0.97654 0.3304 0.0
C2184 C 0.46618 0.01195 0.2498 0.0
C2185 C 0.45516 0.01024 0.26449 0.0
C2186 C 0.41787 0.97973 0.28474 0.0
C2187 C 0.39132 0.99017 0.31314 0.0
C2188 C 0.40552 0.99081 0.30552 0.0
C2189 C 0.44568 0.99591 0.27423 0.0
C2190 C 0.43221 0.9935 0.28692 0.0
H2191 H 0.37424 0.0118 0.31288 0.0
H2192 H 0.39766 0.01279 0.3012 0.0
H2193 H 0.39373 0.96789 0.2913 0.0
H2194 H 0.46051 0.97552 0.25118 0.0
H2195 H 0.44137 0.97253 0.27741 0.0
C2196 C 0.63998 1.003 0.31036 0.0
C2197 C 0.63784 0.99024 0.32198 0.0
C2198 C 0.62744 0.00358 0.3026 0.0
C2199 C 0.58495 0.98577 0.30731 0.0
H2200 H 0.58998 0.00466 0.25277 0.0
C2201 C 0.53545 0.98028 0.2543 0.0
C2202 C 0.53855 0.99339 0.24273 0.0
C2203 C 0.54674 0.98064 0.26733 0.0
C2204 C 0.58843 0.99955 0.26817 0.0
H2205 H 0.62076 0.96809 0.33473 0.0
H2206 H 0.59873 0.96883 0.32054 0.0
H2207 H 0.61103 0.00306 0.26783 0.0
H2208 H 0.55549 0.01726 0.23624 0.0
H2209 H 0.57518 0.01802 0.25916 0.0
H2210 H 0.562 0.98179 0.307 0.0
C2211 C 0.61016 0.97857 0.31778 0.0
C2212 C 0.60055 0.99863 0.27687 0.0
C2213 C 0.62279 0.97808 0.3258 0.0
C2214 C 0.55274 0.00712 0.24537 0.0
C2215 C 0.56406 0.00747 0.25824 0.0
C2216 C 0.57271 0.98653 0.29843 0.0
C2217 C 0.61233 0.99131 0.30593 0.0
C2218 C 0.59907 0.99185 0.29664 0.0
C2219 C 0.56141 0.99405 0.2687 0.0
C2220 C 0.57437 0.99355 0.27881 0.0
H2221 H 0.65141 0.01269 0.30736 0.0
H2222 H 0.62965 0.01378 0.29408 0.0
H2223 H 0.58339 0.9806 0.32264 0.0
H2224 H 0.52471 0.96946 0.25207 0.0
H2225 H 0.54437 0.9701 0.27506 0.0
C2226 C 0.0289 0.64694 0.32601 0.0
C2227 C 0.01727 0.65004 0.32091 0.0
C2228 C 0.02816 0.63335 0.31878 0.0
C2229 C 1.00097 0.59356 0.30234 0.0
H2230 H 0.03491 0.59527 0.2716 0.0
C2231 C 0.99337 0.54399 0.24847 0.0
C2232 C 1.00594 0.54224 0.24366 0.0
C2233 C 0.99504 0.55573 0.26211 0.0
C2234 C 0.02544 0.59446 0.2806 0.0
H2235 H 0.99576 0.64137 0.30425 0.0
H2236 H 0.9943 0.61747 0.29198 0.0
H2237 H 0.03748 0.619 0.28636 0.0
H2238 H 0.02978 0.55055 0.25071 0.0
H2239 H 0.03264 0.57082 0.27535 0.0
H2240 H 0.98892 0.56909 0.2969 0.0
C2241 C 1.00402 0.6256 0.30148 0.0
C2242 C 0.0269 0.60812 0.28891 0.0
C2243 C 1.00492 0.63932 0.30837 0.0
C2244 C 0.01989 0.55161 0.25423 0.0
C2245 C 0.02157 0.56338 0.26806 0.0
C2246 C 0.99959 0.57987 0.29437 0.0
C2247 C 0.0156 0.62246 0.30667 0.0
C2248 C 0.01455 0.60785 0.2994 0.0
C2249 C 0.00932 0.566 0.27149 0.0
C2250 C 0.01165 0.58016 0.28287 0.0
H2251 H 0.03858 0.65499 0.33564 0.0
H2252 H 0.03723 0.6312 0.32301 0.0
H2253 H 0.99136 0.593 0.3107 0.0
H2254 H 0.98248 0.5369 0.24051 0.0
H2255 H 0.98535 0.55736 0.26408 0.0
C2256 C 0.37482 0.36673 0.31035 0.0
C2257 C 0.36466 0.36938 0.32225 0.0
C2258 C 0.38888 0.37918 0.30358 0.0
C2259 C 0.40838 0.42043 0.291 0.0
H2260 H 0.44573 0.4193 0.29802 0.0
C2261 C 0.46549 0.46942 0.25792 0.0
C2262 C 0.47398 0.46425 0.24663 0.0
C2263 C 0.45374 0.45936 0.27156 0.0
C2264 C 0.43542 0.41979 0.29579 0.0
H2265 H 0.36116 0.38717 0.3361 0.0
H2266 H 0.38552 0.40887 0.32385 0.0
H2267 H 0.42149 0.39818 0.31147 0.0
H2268 H 0.47772 0.4451 0.24178 0.0
H2269 H 0.45735 0.42761 0.26521 0.0
H2270 H 0.42202 0.4416 0.27447 0.0
C2271 C 0.38267 0.39717 0.3199 0.0
C2272 C 0.42153 0.40767 0.30352 0.0
C2273 C 0.36873 0.38474 0.32695 0.0
C2274 C 0.47141 0.44939 0.2505 0.0
C2275 C 0.45968 0.43935 0.26398 0.0
C2276 C 0.42223 0.43245 0.283 0.0
C2277 C 0.39295 0.39454 0.30829 0.0
C2278 C 0.40783 0.40776 0.30096 0.0
C2279 C 0.45023 0.44395 0.27404 0.0
C2280 C 0.43593 0.4322 0.28499 0.0
H2281 H 0.37202 0.35503 0.30653 0.0
H2282 H 0.39652 0.3768 0.29446 0.0
H2283 H 0.39799 0.42077 0.28868 0.0
H2284 H 0.46715 0.48077 0.255 0.0
H2285 H 0.44693 0.46344 0.27938 0.0
C2286 C 0.31579 0.28714 0.35633 0.0
C2287 C 0.32652 0.30233 0.36296 0.0
C2288 C 0.31728 0.27462 0.36256 0.0
C2289 C 0.34615 0.26539 0.38088 0.0
H2290 H 0.31173 0.22865 0.40484 0.0
C2291 C 0.35376 0.22451 0.43506 0.0
C2292 C 0.34197 0.20899 0.43693 0.0
C2293 C 0.35227 0.23441 0.42133 0.0
C2294 C 0.32141 0.23863 0.39774 0.0
H2295 H 0.34719 0.31622 0.38143 0.0
H2296 H 0.34982 0.2945 0.39207 0.0
H2297 H 0.30787 0.24885 0.39066 0.0
H2298 H 0.31983 0.19133 0.42497 0.0
H2299 H 0.31736 0.20848 0.40029 0.0
H2300 H 0.35975 0.25533 0.388 0.0
C2301 C 0.34029 0.29224 0.38201 0.0
C2302 C 0.31919 0.25026 0.38971 0.0
C2303 C 0.33869 0.30468 0.37605 0.0
C2304 C 0.32919 0.2032 0.42356 0.0
C2305 C 0.32767 0.21313 0.40973 0.0
C2306 C 0.34834 0.25371 0.38869 0.0
C2307 C 0.32968 0.27707 0.37525 0.0
C2308 C 0.33162 0.26396 0.3817 0.0
C2309 C 0.3389 0.22903 0.40911 0.0
C2310 C 0.3361 0.24033 0.39776 0.0
H2311 H 0.30631 0.28494 0.34621 0.0
H2312 H 0.30893 0.26306 0.35708 0.0
H2313 H 0.3559 0.27568 0.37444 0.0
H2314 H 0.3636 0.2293 0.44549 0.0
H2315 H 0.36111 0.24655 0.42157 0.0
C2316 C 0.71928 0.03395 0.36 0.0
C2317 C 0.70401 0.02904 0.36543 0.0
C2318 C 0.73131 0.04827 0.36709 0.0
C2319 C 0.74006 0.08673 0.38508 0.0
H2320 H 0.7757 0.08927 0.41133 0.0
C2321 C 0.78153 0.13761 0.43822 0.0
C2322 C 0.79664 0.14089 0.44101 0.0
C2323 C 0.7715 0.12572 0.42464 0.0
C2324 C 0.76605 0.08892 0.40358 0.0
H2325 H 0.68935 0.03521 0.38259 0.0
H2326 H 0.71043 0.06038 0.39484 0.0
H2327 H 0.75541 0.06455 0.39735 0.0
H2328 H 0.81359 0.13538 0.43024 0.0
H2329 H 0.79623 0.11492 0.40577 0.0
H2330 H 0.75065 0.11106 0.39121 0.0
C2331 C 0.71305 0.05312 0.38507 0.0
C2332 C 0.75434 0.07468 0.39572 0.0
C2333 C 0.70101 0.03868 0.37822 0.0
C2334 C 0.802 0.13311 0.42835 0.0
C2335 C 0.79196 0.12122 0.41461 0.0
C2336 C 0.75186 0.10102 0.3927 0.0
C2337 C 0.72832 0.05807 0.37951 0.0
C2338 C 0.7411 0.07337 0.38677 0.0
C2339 C 0.77638 0.11688 0.41336 0.0
C2340 C 0.76488 0.10226 0.40246 0.0
H2341 H 0.72195 0.02678 0.35014 0.0
H2342 H 0.74295 0.05181 0.3625 0.0
H2343 H 0.73009 0.0861 0.37791 0.0
H2344 H 0.77713 0.14349 0.44777 0.0
H2345 H 0.75963 0.12276 0.42427 0.0
C2346 C 0.97897 0.69415 0.35405 0.0
C2347 C 0.98311 0.68347 0.36059 0.0
C2348 C 0.96485 0.69241 0.36006 0.0
C2349 C 0.92615 0.66329 0.37936 0.0
H2350 H 0.92523 0.69868 0.40245 0.0
C2351 C 0.87974 0.65775 0.43664 0.0
C2352 C 0.87616 0.6695 0.43789 0.0
C2353 C 0.89058 0.65865 0.42218 0.0
C2354 C 0.92514 0.68872 0.39559 0.0
H2355 H 0.97564 0.66257 0.37851 0.0
H2356 H 0.95113 0.65956 0.38896 0.0
H2357 H 0.94898 0.70222 0.38745 0.0
H2358 H 0.88019 0.69081 0.42405 0.0
H2359 H 0.89897 0.69228 0.39828 0.0
H2360 H 0.90242 0.64972 0.38785 0.0
C2361 C 0.9587 0.66921 0.37905 0.0
C2362 C 0.93881 0.69076 0.38707 0.0
C2363 C 0.97283 0.67102 0.37321 0.0
C2364 C 0.88265 0.68152 0.42322 0.0
C2365 C 0.89357 0.68247 0.40872 0.0
C2366 C 0.91246 0.66126 0.38776 0.0
C2367 C 0.95451 0.67986 0.37255 0.0
C2368 C 0.93959 0.67801 0.37937 0.0
C2369 C 0.89814 0.67138 0.40864 0.0
C2370 C 0.91187 0.67388 0.39651 0.0
H2371 H 0.98662 0.70385 0.34428 0.0
H2372 H 0.96194 0.70078 0.35474 0.0
H2373 H 0.92629 0.65328 0.37316 0.0
H2374 H 0.87498 0.64844 0.44794 0.0
H2375 H 0.89384 0.64995 0.42277 0.0
C2376 C 0.37733 0.0088 0.70387 0.0
C2377 C 0.37888 0.02171 0.69326 0.0
C2378 C 0.39028 0.00855 0.71069 0.0
C2379 C 0.43039 0.03345 0.72647 0.0
H2380 H 0.43233 0.99623 0.71788 0.0
C2381 C 0.47919 0.02781 0.76353 0.0
C2382 C 0.47411 0.01372 0.7738 0.0
C2383 C 0.4695 0.02936 0.74936 0.0
C2384 C 0.43197 0.0067 0.72052 0.0
H2385 H 0.39527 0.04458 0.68171 0.0
H2386 H 0.41797 0.04426 0.69406 0.0
H2387 H 0.41127 0.99795 0.70256 0.0
H2388 H 0.45542 0.99003 0.77659 0.0
H2389 H 0.43858 0.9926 0.75212 0.0
H2390 H 0.45065 0.04195 0.74526 0.0
C2391 C 0.40669 0.0343 0.69694 0.0
C2392 C 0.41989 0.00768 0.7117 0.0
C2393 C 0.3937 0.03446 0.68983 0.0
C2394 C 0.45965 1.00096 0.76866 0.0
C2395 C 0.45001 1.00248 0.75457 0.0
C2396 C 0.4424 0.03241 0.73551 0.0
C2397 C 0.40511 0.02128 0.7073 0.0
C2398 C 0.41878 0.02093 0.71494 0.0
C2399 C 0.45456 0.01682 0.74525 0.0
C2400 C 0.44316 0.01887 0.73306 0.0
H2401 H 0.36609 0.99878 0.70675 0.0
H2402 H 0.38868 0.99844 0.71887 0.0
H2403 H 0.4298 0.04378 0.72933 0.0
H2404 H 0.49023 0.03786 0.76747 0.0
H2405 H 0.47349 0.04052 0.74224 0.0
C2406 C 1.00492 0.36637 0.71358 0.0
C2407 C 0.99707 0.35906 0.69492 0.0
C2408 C 1.00531 0.37972 0.72106 0.0
C2409 C 0.98528 0.40181 0.71647 0.0
H2410 H 0.02217 0.43426 0.7435 0.0
C2411 C 0.01246 0.46631 0.75964 0.0
C2412 C 0.99994 0.46316 0.7725 0.0
C2413 C 0.01172 0.45482 0.74617 0.0
C2414 C 0.01184 0.42547 0.73567 0.0
H2415 H 0.9835 0.36003 0.66938 0.0
H2416 H 0.98439 0.38342 0.68217 0.0
H2417 H 0.02199 0.41183 0.72844 0.0
H2418 H 0.97668 0.44598 0.78098 0.0
H2419 H 0.97529 0.42587 0.75761 0.0
H2420 H 0.9752 0.41557 0.72352 0.0
C2421 C 0.99004 0.37874 0.69128 0.0
C2422 C 0.01166 0.41244 0.72735 0.0
C2423 C 0.9896 0.36536 0.68389 0.0
C2424 C 0.98633 0.44874 0.77078 0.0
C2425 C 0.9856 0.43722 0.75743 0.0
C2426 C 0.98548 0.41489 0.72472 0.0
C2427 C 0.99791 0.38611 0.70996 0.0
C2428 C 0.99831 0.40033 0.71792 0.0
C2429 C 0.9985 0.43991 0.7456 0.0
C2430 C 0.99871 0.4268 0.73469 0.0
H2431 H 0.01073 0.36175 0.72247 0.0
H2432 H 0.01125 0.38492 0.73569 0.0
H2433 H 0.97475 0.39267 0.70946 0.0
H2434 H 0.02315 0.47729 0.76105 0.0
H2435 H 0.02177 0.45739 0.737 0.0
C2436 C 0.6429 0.64803 0.71473 0.0
C2437 C 0.65145 0.64413 0.70125 0.0
C2438 C 0.62862 0.63652 0.72241 0.0
C2439 C 0.5976 0.59528 0.71291 0.0
H2440 H 0.58552 0.59914 0.76955 0.0
C2441 C 0.54946 0.5451 0.76193 0.0
C2442 C 0.54101 0.54893 0.77569 0.0
C2443 C 0.56111 0.55653 0.74944 0.0
C2444 C 0.5886 0.59799 0.75357 0.0
H2445 H 0.65192 0.62508 0.68564 0.0
H2446 H 0.62741 0.605 0.69962 0.0
H2447 H 0.60996 0.6194 0.75581 0.0
H2448 H 0.53722 0.56727 0.78616 0.0
H2449 H 0.55729 0.58714 0.76411 0.0
H2450 H 0.57635 0.57347 0.71118 0.0
C2451 C 0.6314 0.61695 0.7038 0.0
C2452 C 0.60266 0.60965 0.74565 0.0
C2453 C 0.64557 0.62847 0.69593 0.0
C2454 C 0.54346 0.564 0.77543 0.0
C2455 C 0.55509 0.57541 0.76306 0.0
C2456 C 0.58358 0.58351 0.72096 0.0
C2457 C 0.62263 0.6208 0.71701 0.0
C2458 C 0.60741 0.60847 0.72522 0.0
C2459 C 0.56454 0.57198 0.7507 0.0
C2460 C 0.57893 0.58474 0.74139 0.0
H2461 H 0.64707 0.66001 0.71896 0.0
H2462 H 0.62216 0.64001 0.73228 0.0
H2463 H 0.60069 0.59405 0.69698 0.0
H2464 H 0.54798 0.53364 0.76222 0.0
H2465 H 0.56821 0.55354 0.74013 0.0
C2466 C 0.7034 0.72475 0.65995 0.0
C2467 C 0.69054 0.70984 0.65685 0.0
C2468 C 0.70308 0.73792 0.65364 0.0
C2469 C 0.67655 0.75177 0.64319 0.0
H2470 H 0.708 0.78152 0.60603 0.0
C2471 C 0.6664 0.79132 0.58987 0.0
C2472 C 0.67886 0.80517 0.58239 0.0
C2473 C 0.66874 0.78196 0.60358 0.0
C2474 C 0.69929 0.7736 0.61683 0.0
H2475 H 0.66723 0.6971 0.64482 0.0
H2476 H 0.6666 0.72 0.63423 0.0
H2477 H 0.71057 0.76063 0.62056 0.0
H2478 H 0.70343 0.82062 0.58427 0.0
H2479 H 0.70757 0.80466 0.60912 0.0
H2480 H 0.66522 0.76462 0.63963 0.0
C2481 C 0.67695 0.72152 0.64145 0.0
C2482 C 0.70075 0.76154 0.62505 0.0
C2483 C 0.67736 0.7084 0.64738 0.0
C2484 C 0.69361 0.81012 0.59015 0.0
C2485 C 0.69597 0.80079 0.60405 0.0
C2486 C 0.67519 0.76394 0.63526 0.0
C2487 C 0.68977 0.73643 0.64452 0.0
C2488 C 0.68918 0.75026 0.63784 0.0
C2489 C 0.68364 0.78624 0.61022 0.0
C2490 C 0.68631 0.7748 0.62145 0.0
H2491 H 0.71371 0.72624 0.66722 0.0
H2492 H 0.71313 0.74927 0.6562 0.0
H2493 H 0.66757 0.74337 0.6533 0.0
H2494 H 0.65497 0.7871 0.58371 0.0
H2495 H 0.65893 0.77083 0.60761 0.0
C2496 C 0.31569 0.97327 0.63691 0.0
C2497 C 0.31274 0.98358 0.64812 0.0
C2498 C 0.30355 0.95895 0.62987 0.0
C2499 C 0.26133 0.93154 0.63785 0.0
H2500 H 0.26539 0.91323 0.58604 0.0
C2501 C 0.21167 0.88153 0.5886 0.0
C2502 C 0.21489 0.87065 0.5797 0.0
C2503 C 0.22282 0.89396 0.60071 0.0
C2504 C 0.26415 0.91812 0.60069 0.0
H2505 H 0.29479 0.98726 0.66009 0.0
H2506 H 0.2737 0.96279 0.64693 0.0
H2507 H 0.28654 0.93813 0.59793 0.0
H2508 H 0.23156 0.86334 0.5779 0.0
H2509 H 0.25094 0.8849 0.59909 0.0
H2510 H 0.23854 0.91166 0.63984 0.0
C2511 C 0.28531 0.96534 0.64424 0.0
C2512 C 0.27632 0.93241 0.60758 0.0
C2513 C 0.29744 0.9795 0.6516 0.0
C2514 C 0.22879 0.87154 0.58473 0.0
C2515 C 0.23993 0.88396 0.59663 0.0
C2516 C 0.24903 0.91734 0.63072 0.0
C2517 C 0.28815 0.95472 0.63354 0.0
C2518 C 0.27513 0.93936 0.62629 0.0
C2519 C 0.23734 0.89568 0.60386 0.0
C2520 C 0.25036 0.91047 0.61211 0.0
H2521 H 0.32738 0.97605 0.6342 0.0
H2522 H 0.30629 0.95105 0.622 0.0
H2523 H 0.26001 0.9363 0.65255 0.0
H2524 H 0.20114 0.88122 0.58465 0.0
H2525 H 0.22055 0.90286 0.6061 0.0
C2526 C 0.03157 0.30965 0.66415 0.0
C2527 C 0.0294 0.32207 0.65972 0.0
C2528 C 0.04521 0.31023 0.65822 0.0
C2529 C 0.08572 0.33755 0.64523 0.0
H2530 H 0.08338 0.30477 0.60972 0.0
C2531 C 0.13293 0.34793 0.58672 0.0
C2532 C 0.13513 0.33577 0.58043 0.0
C2533 C 0.12164 0.34547 0.6014 0.0
C2534 C 0.08434 0.31388 0.62006 0.0
H2535 H 0.03993 0.34492 0.64597 0.0
H2536 H 0.06368 0.34602 0.63604 0.0
H2537 H 0.06006 0.30166 0.62584 0.0
H2538 H 0.12798 0.31176 0.58549 0.0
H2539 H 0.10832 0.30744 0.61169 0.0
H2540 H 0.10988 0.3499 0.63933 0.0
C2541 C 0.05487 0.33582 0.64401 0.0
C2542 C 0.07093 0.3121 0.62921 0.0
C2543 C 0.0412 0.33514 0.64956 0.0
C2544 C 0.12657 0.32135 0.59023 0.0
C2545 C 0.11519 0.31885 0.60499 0.0
C2546 C 0.09912 0.33926 0.63631 0.0
C2547 C 0.05703 0.32338 0.64818 0.0
C2548 C 0.07143 0.32414 0.64131 0.0
C2549 C 0.11224 0.33076 0.61023 0.0
C2550 C 0.09855 0.32769 0.62297 0.0
H2551 H 0.02267 0.29943 0.67194 0.0
H2552 H 0.04658 0.30047 0.66161 0.0
H2553 H 0.08647 0.34692 0.65479 0.0
H2554 H 0.13935 0.35915 0.57931 0.0
H2555 H 0.11967 0.3549 0.60474 0.0
C2556 C 0.28852 0.31461 0.6629 0.0
C2557 C 0.30361 0.3259 0.65734 0.0
C2558 C 0.27604 0.31594 0.65644 0.0
C2559 C 0.26625 0.34469 0.63818 0.0
H2560 H 0.23062 0.30936 0.61292 0.0
C2561 C 0.22559 0.35062 0.58175 0.0
C2562 C 0.21023 0.33859 0.57989 0.0
C2563 C 0.2355 0.34952 0.59585 0.0
C2564 C 0.2403 0.31929 0.62036 0.0
H2565 H 0.31738 0.34741 0.64058 0.0
H2566 H 0.29572 0.3497 0.62939 0.0
H2567 H 0.25089 0.30617 0.62792 0.0
H2568 H 0.19288 0.31646 0.59219 0.0
H2569 H 0.21011 0.31463 0.61737 0.0
H2570 H 0.25583 0.35789 0.63038 0.0
C2571 C 0.2935 0.33989 0.63888 0.0
C2572 C 0.25197 0.31745 0.62889 0.0
C2573 C 0.30592 0.3385 0.64516 0.0
C2574 C 0.20463 0.32597 0.59354 0.0
C2575 C 0.21458 0.32484 0.60769 0.0
C2576 C 0.25455 0.34651 0.62979 0.0
C2577 C 0.27841 0.32867 0.64447 0.0
C2578 C 0.26526 0.33022 0.63742 0.0
C2579 C 0.23029 0.33632 0.60841 0.0
C2580 C 0.24158 0.33392 0.62028 0.0
H2581 H 0.28635 0.30478 0.67231 0.0
H2582 H 0.26456 0.30712 0.66106 0.0
H2583 H 0.2762 0.3547 0.64502 0.0
H2584 H 0.23021 0.36037 0.57117 0.0
H2585 H 0.2475 0.35854 0.59572 0.0
C2586 C 0.6666 0.97127 0.636 0.0
C2587 C 0.67868 0.98024 0.65008 0.0
C2588 C 0.66381 0.95677 0.62901 0.0
C2589 C 0.68272 0.93395 0.62243 0.0
H2590 H 0.64119 0.89869 0.6193 0.0
C2591 C 0.67276 0.87584 0.59214 0.0
C2592 C 0.66172 0.86929 0.57609 0.0
C2593 C 0.67319 0.8872 0.60559 0.0
C2594 C 0.65286 0.90842 0.62004 0.0
H2595 H 0.69739 0.98113 0.66767 0.0
H2596 H 0.69261 0.95601 0.65541 0.0
H2597 H 0.64562 0.92367 0.63222 0.0
H2598 H 0.64147 0.86807 0.563 0.0
H2599 H 0.64223 0.88786 0.5862 0.0
H2600 H 0.69 0.91901 0.60968 0.0
C2601 C 0.68531 0.96014 0.6497 0.0
C2602 C 0.65538 0.92275 0.62736 0.0
C2603 C 0.68803 0.97454 0.65676 0.0
C2604 C 0.65013 0.873 0.57524 0.0
C2605 C 0.65058 0.88436 0.58859 0.0
C2606 C 0.6802 0.91969 0.61503 0.0
C2607 C 0.67313 0.95103 0.63585 0.0
C2608 C 0.67034 0.9357 0.62846 0.0
C2609 C 0.66261 0.89221 0.60317 0.0
C2610 C 0.66523 0.90676 0.61353 0.0
H2611 H 0.65918 0.97534 0.63065 0.0
H2612 H 0.65444 0.95009 0.61814 0.0
H2613 H 0.69437 0.94374 0.62284 0.0
H2614 H 0.68185 0.87322 0.59309 0.0
H2615 H 0.68238 0.89273 0.61703 0.0
C2616 C 0.03587 0.6973 0.63562 0.0
C2617 C 0.03013 0.69898 0.65501 0.0
C2618 C 0.04981 0.70934 0.62783 0.0
C2619 C 0.08629 0.74402 0.64288 0.0
H2620 H 0.08556 0.75839 0.5868 0.0
C2621 C 0.13751 0.78817 0.58798 0.0
C2622 C 0.13537 0.80015 0.58105 0.0
C2623 C 0.12631 0.7763 0.60051 0.0
C2624 C 0.08592 0.75442 0.60244 0.0
H2625 H 0.03467 0.71439 0.68171 0.0
H2626 H 0.05915 0.73528 0.66826 0.0
H2627 H 0.06253 0.73583 0.60075 0.0
H2628 H 0.12064 0.80985 0.58298 0.0
H2629 H 0.10115 0.78917 0.60473 0.0
H2630 H 0.10983 0.7627 0.64435 0.0
C2631 C 0.05283 0.72469 0.65907 0.0
C2632 C 0.0728 0.74149 0.61036 0.0
C2633 C 0.03876 0.71279 0.66666 0.0
C2634 C 0.12261 0.80082 0.58833 0.0
C2635 C 0.11142 0.78895 0.60059 0.0
C2636 C 0.09957 0.75682 0.63475 0.0
C2637 C 0.05842 0.72316 0.63948 0.0
C2638 C 0.07277 0.73627 0.63075 0.0
C2639 C 0.11286 0.77627 0.60603 0.0
C2640 C 0.09937 0.76224 0.61459 0.0
H2641 H 0.02948 0.68679 0.6263 0.0
H2642 H 0.05388 0.70785 0.61269 0.0
H2643 H 0.08657 0.74017 0.65863 0.0
H2644 H 0.14709 0.78727 0.58222 0.0
H2645 H 0.12759 0.76656 0.60447 0.0
C2646 C 0.98082 0.61796 0.68395 0.0
C2647 C 0.9877 0.63178 0.69591 0.0
C2648 C 0.98057 0.60475 0.69144 0.0
C2649 C 0.98044 0.58595 0.73999 0.0
H2650 H 0.99653 0.56433 0.70774 0.0
C2651 C 0.97419 0.5301 0.77075 0.0
C2652 C 0.98824 0.53081 0.77386 0.0
C2653 C 0.97328 0.5406 0.75758 0.0
C2654 C 0.99195 0.57023 0.71683 0.0
H2655 H 0.99951 0.64251 0.72514 0.0
H2656 H 0.99859 0.61937 0.73844 0.0
H2657 H 0.99648 0.58669 0.69243 0.0
H2658 H 0.01207 0.54223 0.76438 0.0
H2659 H 0.01041 0.56054 0.7408 0.0
H2660 H 0.97587 0.56965 0.76435 0.0
C2661 C 0.99358 0.6188 0.7232 0.0
C2662 C 0.99185 0.58294 0.70807 0.0
C2663 C 0.99412 0.63205 0.71556 0.0
C2664 C 1.00106 0.5413 0.762 0.0
C2665 C 1.00012 0.55182 0.74864 0.0
C2666 C 0.98027 0.57314 0.74855 0.0
C2667 C 0.98687 0.60504 0.7112 0.0
C2668 C 0.98624 0.59102 0.7197 0.0
C2669 C 0.98638 0.55202 0.74712 0.0
C2670 C 0.98609 0.56518 0.73715 0.0
H2671 H 0.97588 0.61744 0.66869 0.0
H2672 H 0.97525 0.59425 0.68194 0.0
H2673 H 0.97603 0.59193 0.74928 0.0
H2674 H 0.96417 0.52216 0.7798 0.0
H2675 H 0.9625 0.54035 0.75649 0.0
C2676 C 0.36778 0.37213 0.71229 0.0
C2677 C 0.37005 0.36148 0.7007 0.0
C2678 C 0.38039 0.38624 0.71908 0.0
C2679 C 0.42104 0.4052 0.73251 0.0
H2680 H 0.42215 0.44347 0.72041 0.0
C2681 C 0.47122 0.46294 0.76292 0.0
C2682 C 0.46672 0.4726 0.77259 0.0
C2683 C 0.46103 0.45081 0.74956 0.0
C2684 C 0.42202 0.43291 0.72408 0.0
H2685 H 0.38725 0.35701 0.68769 0.0
H2686 H 0.40918 0.38137 0.70011 0.0
H2687 H 0.40039 0.41879 0.70851 0.0
H2688 H 0.44878 0.47816 0.77463 0.0
H2689 H 0.43101 0.45711 0.75183 0.0
H2690 H 0.44217 0.41904 0.74899 0.0
C2691 C 0.3977 0.37892 0.7037 0.0
C2692 C 0.40952 0.41878 0.71725 0.0
C2693 C 0.38513 0.36499 0.69659 0.0
C2694 C 0.45253 0.4709 0.76719 0.0
C2695 C 0.44233 0.45877 0.75406 0.0
C2696 C 0.43341 0.41929 0.73968 0.0
C2697 C 0.39546 0.38978 0.71475 0.0
C2698 C 0.40885 0.40479 0.72159 0.0
C2699 C 0.44613 0.44809 0.74585 0.0
C2700 C 0.43399 0.43336 0.7358 0.0
H2701 H 0.35629 0.36976 0.71559 0.0
H2702 H 0.37837 0.39437 0.72775 0.0
H2703 H 0.42077 0.39456 0.73613 0.0
H2704 H 0.48206 0.46396 0.76701 0.0
H2705 H 0.46453 0.44308 0.74309 0.0
C2706 C 0.64033 0.00503 0.70484 0.0
C2707 C 0.6518 0.01834 0.69478 0.0
C2708 C 0.62685 0.00418 0.71184 0.0
C2709 C 0.6032 0.02281 0.70723 0.0
H2710 H 0.5855 1.00048 0.75888 0.0
C2711 C 0.55714 0.02529 0.76045 0.0
C2712 C 0.54623 0.01127 0.7697 0.0
C2713 C 0.56844 0.02583 0.74708 0.0
C2714 C 0.59017 0.00658 0.74427 0.0
H2715 H 0.65811 0.04124 0.68408 0.0
H2716 H 0.63478 0.04005 0.6971 0.0
H2717 H 0.60897 1.00276 0.74542 0.0
H2718 H 0.53778 0.98671 0.77118 0.0
H2719 H 0.55733 0.98756 0.74766 0.0
H2720 H 0.58451 0.02715 0.70692 0.0
C2721 C 0.63603 0.03008 0.69914 0.0
C2722 C 0.60366 0.00787 0.73648 0.0
C2723 C 0.64947 0.03083 0.69182 0.0
C2724 C 0.54593 0.9976 0.76394 0.0
C2725 C 0.55723 0.99814 0.75071 0.0
C2726 C 0.58975 0.0217 0.71527 0.0
C2727 C 0.62454 0.01674 0.70933 0.0
C2728 C 0.61032 0.01586 0.71773 0.0
C2729 C 0.56906 0.01237 0.74304 0.0
C2730 C 0.58303 0.01341 0.73376 0.0
H2731 H 0.64164 0.99511 0.70709 0.0
H2732 H 0.61817 0.99355 0.71906 0.0
H2733 H 0.60788 0.02894 0.69266 0.0
H2734 H 0.55777 0.03602 0.76508 0.0
H2735 H 0.57745 0.03696 0.74145 0.0
loop_
_geom_bond_atom_site_label_1
_geom_bond_atom_site_label_2
_geom_bond_distance
_geom_bond_site_symmetry_2
_ccdc_geom_bond_type
Co0 O1 2.216 . S
Co0 O2 2.091 . S
Co0 O4 2.004 1_554 S
Co0 O10 2.021 . S
Co0 O12 2.137 1_454 S
Co0 O13 2.244 1_455 S
O1 Co0 2.216 . S
O1 C8 1.247 . S
O2 Co0 2.091 . S
O2 C8 1.261 . S
C3 O12 1.247 . S
C3 O13 1.272 1_556 S
O4 Co0 2.004 1_556 S
O4 C9 1.242 1_455 S
Co5 O6 2.061 1_554 S
Co5 O11 2.052 . S
Co5 O13 2.135 . S
O6 Co5 2.061 1_556 S
O6 C9 1.252 . S
C7 O10 1.238 1_655 S
C7 O11 1.241 . S
C8 O1 1.247 . S
C8 O2 1.261 . S
C9 O4 1.242 1_655 S
C9 O6 1.252 . S
O10 Co0 2.021 . S
O10 C7 1.238 1_455 S
O11 Co5 2.052 . S
O11 C7 1.241 . S
O12 Co0 2.137 1_656 S
O12 C3 1.247 . S
O13 Co0 2.244 1_655 S
O13 C3 1.272 1_554 S
O13 Co5 2.135 . S
Co14 O15 2.216 1_554 S
Co14 O16 2.091 . S
Co14 O18 2.004 . S
Co14 O24 2.021 1_554 S
Co14 O26 2.137 . S
Co14 O27 2.244 . S
O15 Co14 2.216 1_556 S
O15 C22 1.247 . S
O16 Co14 2.091 . S
O16 C22 1.261 1_554 S
C17 O26 1.247 . S
C17 O27 1.272 . S
O18 Co14 2.004 . S
O18 C23 1.259 . S
Co19 O20 2.061 . S
Co19 O25 2.052 1_554 S
Co19 O27 2.135 . S
O20 Co19 2.061 . S
O20 C23 1.235 . S
C21 O24 1.238 . S
C21 O25 1.241 . S
C22 O15 1.247 . S
C22 O16 1.261 1_556 S
C23 O18 1.259 . S
C23 O20 1.235 . S
O24 Co14 2.021 1_556 S
O24 C21 1.238 . S
O25 Co19 2.052 1_556 S
O25 C21 1.241 . S
O26 Co14 2.137 . S
O26 C17 1.247 . S
O27 Co14 2.244 . S
O27 C17 1.272 . S
O27 Co19 2.135 . S
Co28 O29 2.216 1_554 S
Co28 O30 2.091 . S
Co28 O32 2.004 . S
Co28 O38 2.021 1_554 S
Co28 O40 2.137 1_545 S
Co28 O41 2.244 1_545 S
O29 Co28 2.216 1_556 S
O29 C36 1.247 . S
O30 Co28 2.091 . S
O30 C36 1.261 1_554 S
C31 O40 1.247 . S
C31 O41 1.272 . S
O32 Co28 2.004 . S
O32 C37 1.259 . S
Co33 O34 2.061 . S
Co33 O39 2.052 1_554 S
Co33 O41 2.135 . S
O34 Co33 2.061 . S
O34 C37 1.235 1_565 S
C35 O38 1.188 1_565 S
C35 O39 1.290 . S
C36 O29 1.247 . S
C36 O30 1.261 1_556 S
C37 O32 1.259 . S
C37 O34 1.235 1_545 S
O38 Co28 2.021 1_556 S
O38 C35 1.188 1_545 S
O39 Co33 2.052 1_556 S
O39 C35 1.290 . S
O40 Co28 2.137 1_565 S
O40 C31 1.247 . S
O41 Co28 2.244 1_565 S
O41 C31 1.272 . S
O41 Co33 2.135 . S
Co42 O43 2.216 1_554 S
Co42 O44 2.091 . S
Co42 O46 2.004 . S
Co42 O52 2.021 1_554 S
Co42 O54 2.137 1_655 S
Co42 O55 2.244 1_655 S
O43 Co42 2.216 1_556 S
O43 C50 1.247 . S
O44 Co42 2.091 . S
O44 C50 1.261 1_554 S
C45 O54 1.247 . S
C45 O55 1.272 . S
O46 Co42 2.004 . S
O46 C51 1.259 1_655 S
Co47 O48 2.061 . S
Co47 O53 2.052 1_554 S
Co47 O55 2.135 . S
O48 Co47 2.061 . S
O48 C51 1.235 . S
C49 O52 1.238 1_455 S
C49 O53 1.241 . S
C50 O43 1.247 . S
C50 O44 1.261 1_556 S
C51 O46 1.259 1_455 S
C51 O48 1.235 . S
O52 Co42 2.021 1_556 S
O52 C49 1.238 1_655 S
O53 Co47 2.052 1_556 S
O53 C49 1.241 . S
O54 Co42 2.137 1_455 S
O54 C45 1.247 . S
O55 Co42 2.244 1_455 S
O55 C45 1.272 . S
O55 Co47 2.135 . S
Co56 O57 2.216 . S
Co56 O58 2.091 . S
Co56 O60 2.004 1_554 S
Co56 O66 2.021 . S
Co56 O68 2.137 1_554 S
Co56 O69 2.244 . S
O57 Co56 2.216 . S
O57 C64 1.247 . S
O58 Co56 2.091 . S
O58 C64 1.261 . S
C59 O68 1.247 . S
C59 O69 1.272 1_556 S
O60 Co56 2.004 1_556 S
O60 C65 1.259 . S
Co61 O62 2.061 1_554 S
Co61 O67 2.052 . S
Co61 O69 2.135 . S
O62 Co61 2.061 1_556 S
O62 C65 1.235 . S
C63 O66 1.238 . S
C63 O67 1.241 . S
C64 O57 1.247 . S
C64 O58 1.261 . S
C65 O60 1.259 . S
C65 O62 1.235 . S
O66 Co56 2.021 . S
O66 C63 1.238 . S
O67 Co61 2.052 . S
O67 C63 1.241 . S
O68 Co56 2.137 1_556 S
O68 C59 1.247 . S
O69 Co56 2.244 . S
O69 C59 1.272 1_554 S
O69 Co61 2.135 . S
Co70 O71 2.216 . S
Co70 O72 2.091 . S
Co70 O74 2.004 1_554 S
Co70 O80 2.021 . S
Co70 O82 2.137 1_564 S
Co70 O83 2.244 1_565 S
O71 Co70 2.216 . S
O71 C78 1.247 . S
O72 Co70 2.091 . S
O72 C78 1.261 . S
C73 O82 1.247 . S
C73 O83 1.272 1_556 S
O74 Co70 2.004 1_556 S
O74 C79 1.259 1_565 S
Co75 O76 2.061 1_554 S
Co75 O81 2.052 . S
Co75 O83 2.135 . S
O76 Co75 2.061 1_556 S
O76 C79 1.235 . S
C77 O80 1.238 1_545 S
C77 O81 1.241 . S
C78 O71 1.247 . S
C78 O72 1.261 . S
C79 O74 1.259 1_545 S
C79 O76 1.235 . S
O80 Co70 2.021 . S
O80 C77 1.238 1_565 S
O81 Co75 2.052 . S
O81 C77 1.241 . S
O82 Co70 2.137 1_546 S
O82 C73 1.247 . S
O83 Co70 2.244 1_545 S
O83 C73 1.272 1_554 S
O83 Co75 2.135 . S
Co84 O85 2.216 . S
Co84 O86 2.091 . S
Co84 O88 2.004 . S
Co84 O94 2.021 . S
Co84 O96 2.137 . S
Co84 O97 2.244 . S
O85 Co84 2.216 . S
O85 C92 1.247 . S
O86 Co84 2.091 . S
O86 C92 1.261 . S
C87 O96 1.247 . S
C87 O97 1.272 . S
O88 Co84 2.004 . S
O88 C93 1.259 . S
Co89 O90 2.061 . S
Co89 O95 2.052 . S
Co89 O97 2.135 . S
O90 Co89 2.061 . S
O90 C93 1.235 . S
C91 O94 1.238 . S
C91 O95 1.241 . S
C92 O85 1.247 . S
C92 O86 1.261 . S
C93 O88 1.259 . S
C93 O90 1.235 . S
O94 Co84 2.021 . S
O94 C91 1.238 . S
O95 Co89 2.052 . S
O95 C91 1.241 . S
O96 Co84 2.137 . S
O96 C87 1.247 . S
O97 Co84 2.244 . S
O97 C87 1.272 . S
O97 Co89 2.135 . S
Co98 O99 2.216 . S
Co98 O100 2.091 . S
Co98 O102 2.004 . S
Co98 O108 2.021 . S
Co98 O110 2.137 1_565 S
Co98 O111 2.271 . S
O99 Co98 2.216 . S
O99 C106 1.247 . S
O100 Co98 2.091 . S
O100 C106 1.261 . S
C101 O110 1.247 . S
C101 O111 1.266 1_545 S
O102 Co98 2.004 . S
O102 C107 1.259 . S
Co103 O104 2.061 . S
Co103 O109 2.052 . S
Co103 O111 2.138 . S
O104 Co103 2.061 . S
O104 C107 1.235 . S
C105 O108 1.238 . S
C105 O109 1.241 . S
C106 O99 1.247 . S
C106 O100 1.261 . S
C107 O102 1.259 . S
C107 O104 1.235 . S
O108 Co98 2.021 . S
O108 C105 1.238 . S
O109 Co103 2.052 . S
O109 C105 1.241 . S
O110 Co98 2.137 1_545 S
O110 C101 1.247 . S
O111 Co98 2.271 . S
O111 C101 1.266 1_565 S
O111 Co103 2.138 . S
Co112 O113 2.216 . S
Co112 O114 2.091 . S
Co112 O116 2.004 . S
Co112 O122 2.021 . S
Co112 O124 2.102 1_455 S
Co112 O125 2.244 . S
O113 Co112 2.216 . S
O113 C120 1.247 . S
O114 Co112 2.091 . S
O114 C120 1.261 . S
C115 O124 1.236 . S
C115 O125 1.272 1_655 S
O116 Co112 2.004 . S
O116 C121 1.259 . S
Co117 O118 2.061 . S
Co117 O123 2.052 . S
Co117 O125 2.135 . S
O118 Co117 2.061 . S
O118 C121 1.235 . S
C119 O122 1.238 . S
C119 O123 1.241 . S
C120 O113 1.247 . S
C120 O114 1.261 . S
C121 O116 1.259 . S
C121 O118 1.235 . S
O122 Co112 2.021 . S
O122 C119 1.238 . S
O123 Co117 2.052 . S
O123 C119 1.241 . S
O124 Co112 2.102 1_655 S
O124 C115 1.236 . S
O125 Co112 2.244 . S
O125 C115 1.272 1_455 S
O125 Co117 2.135 . S
Co126 O127 2.216 . S
Co126 O128 2.091 . S
Co126 O130 2.004 . S
Co126 O136 2.021 . S
Co126 O138 2.137 1_565 S
Co126 O139 2.245 . S
O127 Co126 2.216 . S
O127 C134 1.247 . S
O128 Co126 2.091 . S
O128 C134 1.261 . S
C129 O138 1.247 . S
C129 O139 1.267 1_545 S
O130 Co126 2.004 . S
O130 C135 1.259 . S
Co131 O132 2.061 . S
Co131 O137 2.052 . S
Co131 O139 2.140 . S
O132 Co131 2.061 . S
O132 C135 1.235 . S
C133 O136 1.238 . S
C133 O137 1.241 . S
C134 O127 1.247 . S
C134 O128 1.261 . S
C135 O130 1.259 . S
C135 O132 1.235 . S
O136 Co126 2.021 . S
O136 C133 1.238 . S
O137 Co131 2.052 . S
O137 C133 1.241 . S
O138 Co126 2.137 1_545 S
O138 C129 1.247 . S
O139 Co126 2.245 . S
O139 C129 1.267 1_565 S
O139 Co131 2.140 . S
Co140 O141 2.216 1_455 S
Co140 O142 2.091 1_455 S
Co140 O144 2.004 . S
Co140 O150 2.021 . S
Co140 O152 2.137 . S
Co140 O153 2.244 . S
O141 Co140 2.216 1_655 S
O141 C148 1.247 . S
O142 Co140 2.091 1_655 S
O142 C148 1.261 . S
C143 O152 1.241 . S
C143 O153 1.272 . S
O144 Co140 2.004 . S
O144 C149 1.259 . S
Co145 O146 2.061 . S
Co145 O151 2.052 . S
Co145 O153 2.135 . S
O146 Co145 2.061 . S
O146 C149 1.235 . S
C147 O150 1.238 . S
C147 O151 1.241 . S
C148 O141 1.247 . S
C148 O142 1.261 . S
C149 O144 1.259 . S
C149 O146 1.235 . S
O150 Co140 2.021 . S
O150 C147 1.238 . S
O151 Co145 2.052 . S
O151 C147 1.241 . S
O152 Co140 2.137 . S
O152 C143 1.241 . S
O153 Co140 2.244 . S
O153 C143 1.272 . S
O153 Co145 2.135 . S
Co154 O155 2.216 . S
Co154 O156 2.091 . S
Co154 O158 2.004 . S
Co154 O164 2.021 . S
Co154 O166 2.137 . S
Co154 O167 2.244 . S
O155 Co154 2.216 . S
O155 C162 1.247 . S
O156 Co154 2.091 . S
O156 C162 1.261 . S
C157 O166 1.247 . S
C157 O167 1.272 . S
O158 Co154 2.004 . S
O158 C163 1.259 . S
Co159 O160 2.061 . S
Co159 O165 2.052 . S
Co159 O167 2.135 . S
O160 Co159 2.061 . S
O160 C163 1.235 . S
C161 O164 1.238 . S
C161 O165 1.241 . S
C162 O155 1.247 . S
C162 O156 1.261 . S
C163 O158 1.259 . S
C163 O160 1.235 . S
O164 Co154 2.021 . S
O164 C161 1.238 . S
O165 Co159 2.052 . S
O165 C161 1.241 . S
O166 Co154 2.137 . S
O166 C157 1.247 . S
O167 Co154 2.244 . S
O167 C157 1.272 . S
O167 Co159 2.135 . S
Co168 O169 2.216 . S
Co168 O170 2.091 . S
Co168 O172 2.004 . S
Co168 O178 2.021 . S
Co168 O180 2.137 1_545 S
Co168 O181 2.244 . S
O169 Co168 2.216 . S
O169 C176 1.247 . S
O170 Co168 2.091 . S
O170 C176 1.261 . S
C171 O180 1.247 . S
C171 O181 1.272 1_565 S
O172 Co168 2.004 . S
O172 C177 1.259 . S
Co173 O174 2.061 . S
Co173 O179 2.052 . S
Co173 O181 2.135 . S
O174 Co173 2.061 . S
O174 C177 1.235 . S
C175 O178 1.238 . S
C175 O179 1.241 . S
C176 O169 1.247 . S
C176 O170 1.261 . S
C177 O172 1.259 . S
C177 O174 1.235 . S
O178 Co168 2.021 . S
O178 C175 1.238 . S
O179 Co173 2.052 . S
O179 C175 1.241 . S
O180 Co168 2.137 1_565 S
O180 C171 1.247 . S
O181 Co168 2.244 . S
O181 C171 1.272 1_545 S
O181 Co173 2.135 . S
Co182 O183 2.216 1_655 S
Co182 O184 2.091 1_655 S
Co182 O186 2.004 . S
Co182 O192 2.021 . S
Co182 O194 2.137 1_655 S
Co182 O195 2.244 . S
O183 Co182 2.216 1_455 S
O183 C190 1.247 . S
O184 Co182 2.091 1_455 S
O184 C190 1.261 . S
C185 O194 1.230 1_655 S
C185 O195 1.272 . S
O186 Co182 2.004 . S
O186 C191 1.259 . S
Co187 O188 2.061 . S
Co187 O193 2.052 . S
Co187 O195 2.135 . S
O188 Co187 2.061 . S
O188 C191 1.235 . S
C189 O192 1.238 . S
C189 O193 1.241 . S
C190 O183 1.247 . S
C190 O184 1.261 . S
C191 O186 1.259 . S
C191 O188 1.235 . S
O192 Co182 2.021 . S
O192 C189 1.238 . S
O193 Co187 2.052 . S
O193 C189 1.241 . S
O194 Co182 2.137 1_455 S
O194 C185 1.230 1_455 S
O195 Co182 2.244 . S
O195 C185 1.272 . S
O195 Co187 2.135 . S
Co196 O197 2.216 . S
Co196 O198 2.091 . S
Co196 O200 2.004 . S
Co196 O206 2.021 . S
Co196 O208 2.137 . S
Co196 O209 2.244 . S
O197 Co196 2.216 . S
O197 C204 1.247 . S
O198 Co196 2.091 . S
O198 C204 1.261 . S
C199 O208 1.247 . S
C199 O209 1.272 . S
O200 Co196 2.004 . S
O200 C205 1.259 . S
Co201 O202 2.061 . S
Co201 O207 2.052 . S
Co201 O209 2.135 . S
O202 Co201 2.061 . S
O202 C205 1.235 . S
C203 O206 1.238 . S
C203 O207 1.241 . S
C204 O197 1.247 . S
C204 O198 1.261 . S
C205 O200 1.259 . S
C205 O202 1.235 . S
O206 Co196 2.021 . S
O206 C203 1.238 . S
O207 Co201 2.052 . S
O207 C203 1.241 . S
O208 Co196 2.137 . S
O208 C199 1.247 . S
O209 Co196 2.244 . S
O209 C199 1.272 . S
O209 Co201 2.135 . S
Co210 O211 2.216 . S
Co210 O212 2.091 . S
Co210 O214 2.004 . S
Co210 O220 2.021 . S
Co210 O222 2.137 . S
Co210 O223 2.244 . S
O211 Co210 2.216 . S
O211 C218 1.247 . S
O212 Co210 2.091 . S
O212 C218 1.261 . S
C213 O222 1.247 . S
C213 O223 1.272 . S
O214 Co210 2.004 . S
O214 C219 1.259 . S
Co215 O216 2.061 . S
Co215 O221 2.052 . S
Co215 O223 2.135 . S
O216 Co215 2.061 . S
O216 C219 1.235 . S
C217 O220 1.238 . S
C217 O221 1.241 . S
C218 O211 1.247 . S
C218 O212 1.261 . S
C219 O214 1.259 . S
C219 O216 1.235 . S
O220 Co210 2.021 . S
O220 C217 1.238 . S
O221 Co215 2.052 . S
O221 C217 1.241 . S
O222 Co210 2.137 . S
O222 C213 1.247 . S
O223 Co210 2.244 . S
O223 C213 1.272 . S
O223 Co215 2.135 . S
Co224 O225 2.216 . S
Co224 O226 2.091 . S
Co224 O228 2.004 . S
Co224 O234 2.021 . S
Co224 O236 2.137 1_545 S
Co224 O237 2.244 . S
O225 Co224 2.216 . S
O225 C232 1.247 . S
O226 Co224 2.091 . S
O226 C232 1.261 . S
C227 O236 1.247 . S
C227 O237 1.272 1_565 S
O228 Co224 2.004 . S
O228 C233 1.259 . S
Co229 O230 2.061 . S
Co229 O235 2.052 . S
Co229 O237 2.135 . S
O230 Co229 2.061 . S
O230 C233 1.235 . S
C231 O234 1.238 . S
C231 O235 1.241 . S
C232 O225 1.247 . S
C232 O226 1.261 . S
C233 O228 1.259 . S
C233 O230 1.235 . S
O234 Co224 2.021 . S
O234 C231 1.238 . S
O235 Co229 2.052 . S
O235 C231 1.241 . S
O236 Co224 2.137 1_565 S
O236 C227 1.247 . S
O237 Co224 2.244 . S
O237 C227 1.272 1_545 S
O237 Co229 2.135 . S
Co238 O239 2.216 . S
Co238 O240 2.091 . S
Co238 O242 2.004 . S
Co238 O248 2.021 . S
Co238 O250 2.078 1_655 S
Co238 O251 2.244 . S
O239 Co238 2.216 . S
O239 C246 1.247 . S
O240 Co238 2.091 . S
O240 C246 1.261 . S
C241 O250 1.229 . S
C241 O251 1.272 1_455 S
O242 Co238 2.004 . S
O242 C247 1.259 . S
Co243 O244 2.061 . S
Co243 O249 2.052 . S
Co243 O251 2.135 . S
O244 Co243 2.061 . S
O244 C247 1.235 . S
C245 O248 1.238 . S
C245 O249 1.241 . S
C246 O239 1.247 . S
C246 O240 1.261 . S
C247 O242 1.259 . S
C247 O244 1.235 . S
O248 Co238 2.021 . S
O248 C245 1.238 . S
O249 Co243 2.052 . S
O249 C245 1.241 . S
O250 Co238 2.078 1_455 S
O250 C241 1.229 . S
O251 Co238 2.244 . S
O251 C241 1.272 1_655 S
O251 Co243 2.135 . S
H252 C258 0.930 . S
H253 C261 0.931 . S
H254 C263 0.931 . S
H255 C265 0.930 . S
H256 C267 0.930 . S
H257 C269 0.931 . S
C258 H252 0.930 . S
C258 C259 1.380 . S
C258 C260 1.394 . S
C259 C258 1.380 . S
C259 C263 1.382 . S
C260 C258 1.394 . S
C260 C261 1.400 . S
C261 H253 0.931 . S
C261 C260 1.400 . S
C261 C262 1.375 . S
C262 C261 1.375 . S
C262 C263 1.415 . S
C262 C264 1.501 . S
C263 H254 0.931 . S
C263 C259 1.382 . S
C263 C262 1.415 . S
C264 C262 1.501 . S
C264 C265 1.384 . S
C264 C269 1.408 . S
C265 H255 0.930 . S
C265 C264 1.384 . S
C265 C266 1.389 . S
C266 C265 1.389 . S
C266 C267 1.405 . S
C267 H256 0.930 . S
C267 C266 1.405 . S
C267 C268 1.364 . S
C268 C267 1.364 . S
C268 C269 1.400 . S
C269 H257 0.931 . S
C269 C264 1.408 . S
C269 C268 1.400 . S
H270 C276 0.930 . S
H271 C279 0.931 . S
H272 C281 0.931 . S
H273 C283 0.930 . S
H274 C285 0.930 . S
H275 C287 0.931 . S
C276 H270 0.930 . S
C276 C277 1.380 . S
C276 C278 1.394 . S
C277 C276 1.380 . S
C277 C281 1.382 . S
C278 C276 1.394 . S
C278 C279 1.400 . S
C279 H271 0.931 . S
C279 C278 1.400 . S
C279 C280 1.375 . S
C280 C279 1.375 . S
C280 C281 1.415 . S
C280 C282 1.501 . S
C281 H272 0.931 . S
C281 C277 1.382 . S
C281 C280 1.415 . S
C282 C280 1.501 . S
C282 C283 1.384 . S
C282 C287 1.408 . S
C283 H273 0.930 . S
C283 C282 1.384 . S
C283 C284 1.389 . S
C284 C283 1.389 . S
C284 C285 1.405 . S
C285 H274 0.930 . S
C285 C284 1.405 . S
C285 C286 1.364 . S
C286 C285 1.364 . S
C286 C287 1.400 . S
C287 H275 0.931 . S
C287 C282 1.408 . S
C287 C286 1.400 . S
H288 C294 0.930 . S
H289 C297 0.931 . S
H290 C299 0.931 . S
H291 C301 0.930 . S
H292 C303 0.930 . S
H293 C305 0.931 . S
C294 H288 0.930 . S
C294 C295 1.380 . S
C294 C296 1.394 . S
C295 C294 1.380 . S
C295 C299 1.382 . S
C296 C294 1.394 . S
C296 C297 1.400 . S
C297 H289 0.931 . S
C297 C296 1.400 . S
C297 C298 1.375 . S
C298 C297 1.375 . S
C298 C299 1.415 . S
C298 C300 1.501 . S
C299 H290 0.931 . S
C299 C295 1.382 . S
C299 C298 1.415 . S
C300 C298 1.501 . S
C300 C301 1.384 . S
C300 C305 1.408 . S
C301 H291 0.930 . S
C301 C300 1.384 . S
C301 C302 1.389 . S
C302 C301 1.389 . S
C302 C303 1.405 . S
C303 H292 0.930 . S
C303 C302 1.405 . S
C303 C304 1.364 . S
C304 C303 1.364 . S
C304 C305 1.400 . S
C305 H293 0.931 . S
C305 C300 1.408 . S
C305 C304 1.400 . S
H306 C312 0.930 . S
H307 C315 0.931 . S
H308 C317 0.931 . S
H309 C319 0.930 . S
H310 C321 0.930 . S
H311 C323 0.931 . S
C312 H306 0.930 . S
C312 C313 1.380 . S
C312 C314 1.394 . S
C313 C312 1.380 . S
C313 C317 1.382 . S
C314 C312 1.394 . S
C314 C315 1.400 . S
C315 H307 0.931 . S
C315 C314 1.400 . S
C315 C316 1.375 . S
C316 C315 1.375 . S
C316 C317 1.415 . S
C316 C318 1.501 . S
C317 H308 0.931 . S
C317 C313 1.382 . S
C317 C316 1.415 . S
C318 C316 1.501 . S
C318 C319 1.384 . S
C318 C323 1.408 . S
C319 H309 0.930 . S
C319 C318 1.384 . S
C319 C320 1.389 . S
C320 C319 1.389 . S
C320 C321 1.405 . S
C321 H310 0.930 . S
C321 C320 1.405 . S
C321 C322 1.364 . S
C322 C321 1.364 . S
C322 C323 1.400 . S
C323 H311 0.931 . S
C323 C318 1.408 . S
C323 C322 1.400 . S
H324 C330 0.930 . S
H325 C333 0.931 . S
H326 C335 0.931 . S
H327 C337 0.930 . S
H328 C339 0.930 . S
H329 C341 0.931 . S
C330 H324 0.930 . S
C330 C331 1.380 . S
C330 C332 1.394 . S
C331 C330 1.380 . S
C331 C335 1.382 . S
C332 C330 1.394 . S
C332 C333 1.400 . S
C333 H325 0.931 . S
C333 C332 1.400 . S
C333 C334 1.375 . S
C334 C333 1.375 . S
C334 C335 1.415 . S
C334 C336 1.501 . S
C335 H326 0.931 . S
C335 C331 1.382 . S
C335 C334 1.415 . S
C336 C334 1.501 . S
C336 C337 1.384 . S
C336 C341 1.408 . S
C337 H327 0.930 . S
C337 C336 1.384 . S
C337 C338 1.389 . S
C338 C337 1.389 . S
C338 C339 1.405 . S
C339 H328 0.930 . S
C339 C338 1.405 . S
C339 C340 1.364 . S
C340 C339 1.364 . S
C340 C341 1.400 . S
C341 H329 0.931 . S
C341 C336 1.408 . S
C341 C340 1.400 . S
H342 C348 0.930 . S
H343 C351 0.931 . S
H344 C353 0.931 . S
H345 C355 0.930 . S
H346 C357 0.930 . S
H347 C359 0.931 . S
C348 H342 0.930 . S
C348 C349 1.380 . S
C348 C350 1.394 . S
C349 C348 1.380 . S
C349 C353 1.382 . S
C350 C348 1.394 . S
C350 C351 1.400 . S
C351 H343 0.931 . S
C351 C350 1.400 . S
C351 C352 1.375 . S
C352 C351 1.375 . S
C352 C353 1.415 . S
C352 C354 1.501 . S
C353 H344 0.931 . S
C353 C349 1.382 . S
C353 C352 1.415 . S
C354 C352 1.501 . S
C354 C355 1.384 . S
C354 C359 1.408 . S
C355 H345 0.930 . S
C355 C354 1.384 . S
C355 C356 1.389 . S
C356 C355 1.389 . S
C356 C357 1.405 . S
C357 H346 0.930 . S
C357 C356 1.405 . S
C357 C358 1.364 . S
C358 C357 1.364 . S
C358 C359 1.400 . S
C359 H347 0.931 . S
C359 C354 1.408 . S
C359 C358 1.400 . S
H360 C366 0.930 . S
H361 C369 0.931 . S
H362 C371 0.931 . S
H363 C373 0.930 . S
H364 C375 0.930 . S
H365 C377 0.931 . S
C366 H360 0.930 . S
C366 C367 1.380 . S
C366 C368 1.394 . S
C367 C366 1.380 . S
C367 C371 1.382 . S
C368 C366 1.394 . S
C368 C369 1.400 . S
C369 H361 0.931 . S
C369 C368 1.400 . S
C369 C370 1.375 . S
C370 C369 1.375 . S
C370 C371 1.415 . S
C370 C372 1.501 . S
C371 H362 0.931 . S
C371 C367 1.382 . S
C371 C370 1.415 . S
C372 C370 1.501 . S
C372 C373 1.384 . S
C372 C377 1.408 . S
C373 H363 0.930 . S
C373 C372 1.384 . S
C373 C374 1.389 . S
C374 C373 1.389 . S
C374 C375 1.405 . S
C375 H364 0.930 . S
C375 C374 1.405 . S
C375 C376 1.364 . S
C376 C375 1.364 . S
C376 C377 1.400 . S
C377 H365 0.931 . S
C377 C372 1.408 . S
C377 C376 1.400 . S
H378 C384 0.930 . S
H379 C387 0.931 . S
H380 C389 0.931 . S
H381 C391 0.930 . S
H382 C393 0.930 . S
H383 C395 0.931 . S
C384 H378 0.930 . S
C384 C385 1.380 . S
C384 C386 1.394 . S
C385 C384 1.380 . S
C385 C389 1.382 . S
C386 C384 1.394 . S
C386 C387 1.400 . S
C387 H379 0.931 . S
C387 C386 1.400 . S
C387 C388 1.375 . S
C388 C387 1.375 . S
C388 C389 1.415 . S
C388 C390 1.501 . S
C389 H380 0.931 . S
C389 C385 1.382 . S
C389 C388 1.415 . S
C390 C388 1.501 . S
C390 C391 1.384 . S
C390 C395 1.408 . S
C391 H381 0.930 . S
C391 C390 1.384 . S
C391 C392 1.389 . S
C392 C391 1.389 . S
C392 C393 1.405 . S
C393 H382 0.930 . S
C393 C392 1.405 . S
C393 C394 1.364 . S
C394 C393 1.364 . S
C394 C395 1.400 . S
C395 H383 0.931 . S
C395 C390 1.408 . S
C395 C394 1.400 . S
H396 C402 0.930 . S
H397 C405 0.931 . S
H398 C407 0.931 . S
H399 C409 0.930 . S
H400 C411 0.930 . S
H401 C413 0.931 . S
C402 H396 0.930 . S
C402 C403 1.380 . S
C402 C404 1.394 . S
C403 C402 1.380 . S
C403 C407 1.382 . S
C404 C402 1.394 . S
C404 C405 1.400 . S
C405 H397 0.931 . S
C405 C404 1.400 . S
C405 C406 1.375 . S
C406 C405 1.375 . S
C406 C407 1.415 . S
C406 C408 1.501 . S
C407 H398 0.931 . S
C407 C403 1.382 . S
C407 C406 1.415 . S
C408 C406 1.501 . S
C408 C409 1.384 . S
C408 C413 1.408 . S
C409 H399 0.930 . S
C409 C408 1.384 . S
C409 C410 1.389 . S
C410 C409 1.389 . S
C410 C411 1.405 . S
C411 H400 0.930 . S
C411 C410 1.405 . S
C411 C412 1.364 . S
C412 C411 1.364 . S
C412 C413 1.400 . S
C413 H401 0.931 . S
C413 C408 1.408 . S
C413 C412 1.400 . S
H414 C420 0.966 . S
H415 C423 0.931 . S
H416 C425 0.931 . S
H417 C427 0.930 . S
H418 C429 0.898 . S
H419 C431 0.938 1_655 S
C420 H414 0.966 . S
C420 C421 1.377 . S
C420 C422 1.393 1_655 S
C421 C420 1.377 . S
C421 C425 1.382 . S
C422 C420 1.393 1_455 S
C422 C423 1.400 . S
C423 H415 0.931 . S
C423 C422 1.400 . S
C423 C424 1.375 . S
C424 C423 1.375 . S
C424 C425 1.415 1_455 S
C424 C426 1.501 . S
C425 H416 0.931 . S
C425 C421 1.382 . S
C425 C424 1.415 1_655 S
C426 C424 1.501 . S
C426 C427 1.384 . S
C426 C431 1.415 . S
C427 H417 0.930 . S
C427 C426 1.384 . S
C427 C428 1.440 . S
C428 C427 1.440 . S
C428 C429 1.400 . S
C429 H418 0.898 . S
C429 C428 1.400 . S
C429 C430 1.382 . S
C430 C429 1.382 . S
C430 C431 1.388 . S
C431 H419 0.938 1_455 S
C431 C426 1.415 . S
C431 C430 1.388 . S
H432 C438 0.930 . S
H433 C441 0.931 . S
H434 C443 0.931 . S
H435 C445 0.930 . S
H436 C447 0.930 . S
H437 C449 0.931 . S
C438 H432 0.930 . S
C438 C439 1.380 . S
C438 C440 1.394 . S
C439 C438 1.380 . S
C439 C443 1.382 . S
C440 C438 1.394 . S
C440 C441 1.400 . S
C441 H433 0.931 . S
C441 C440 1.400 . S
C441 C442 1.375 . S
C442 C441 1.375 . S
C442 C443 1.415 . S
C442 C444 1.501 . S
C443 H434 0.931 . S
C443 C439 1.382 . S
C443 C442 1.415 . S
C444 C442 1.501 . S
C444 C445 1.384 . S
C444 C449 1.408 . S
C445 H435 0.930 . S
C445 C444 1.384 . S
C445 C446 1.389 . S
C446 C445 1.389 . S
C446 C447 1.405 . S
C447 H436 0.930 . S
C447 C446 1.405 . S
C447 C448 1.364 . S
C448 C447 1.364 . S
C448 C449 1.400 . S
C449 H437 0.931 . S
C449 C444 1.408 . S
C449 C448 1.400 . S
H450 C456 0.955 . S
H451 C459 0.931 . S
H452 C461 0.931 . S
H453 C463 0.930 . S
H454 C465 0.930 . S
H455 C467 0.916 . S
C456 H450 0.955 . S
C456 C457 1.375 . S
C456 C458 1.376 1_545 S
C457 C456 1.375 . S
C457 C461 1.382 . S
C458 C456 1.376 1_565 S
C458 C459 1.400 . S
C459 H451 0.931 . S
C459 C458 1.400 . S
C459 C460 1.375 . S
C460 C459 1.375 . S
C460 C461 1.415 1_565 S
C460 C462 1.501 . S
C461 H452 0.931 . S
C461 C457 1.382 . S
C461 C460 1.415 1_545 S
C462 C460 1.501 . S
C462 C463 1.384 . S
C462 C467 1.397 . S
C463 H453 0.930 . S
C463 C462 1.384 . S
C463 C464 1.389 . S
C464 C463 1.389 . S
C464 C465 1.405 . S
C465 H454 0.930 . S
C465 C464 1.405 . S
C465 C466 1.378 . S
C466 C465 1.378 . S
C466 C467 1.403 . S
C467 H455 0.916 . S
C467 C462 1.397 . S
C467 C466 1.403 . S
H468 C474 0.921 . S
H469 C477 0.931 . S
H470 C479 0.927 1_545 S
H471 C481 0.930 . S
H472 C483 0.948 . S
H473 C485 0.931 . S
C474 H468 0.921 . S
C474 C475 1.381 . S
C474 C476 1.417 1_545 S
C475 C474 1.381 . S
C475 C479 1.396 1_545 S
C476 C474 1.417 1_565 S
C476 C477 1.368 . S
C477 H469 0.931 . S
C477 C476 1.368 . S
C477 C478 1.375 . S
C478 C477 1.375 . S
C478 C479 1.413 . S
C478 C480 1.501 . S
C479 H470 0.927 1_565 S
C479 C475 1.396 1_565 S
C479 C478 1.413 . S
C480 C478 1.501 . S
C480 C481 1.384 . S
C480 C485 1.408 1_565 S
C481 H471 0.930 . S
C481 C480 1.384 . S
C481 C482 1.389 . S
C482 C481 1.389 . S
C482 C483 1.427 . S
C483 H472 0.948 . S
C483 C482 1.427 . S
C483 C484 1.371 1_565 S
C484 C483 1.371 1_545 S
C484 C485 1.400 . S
C485 H473 0.931 . S
C485 C480 1.408 1_545 S
C485 C484 1.400 . S
H486 C492 0.972 . S
H487 C495 0.931 . S
H488 C497 0.932 1_655 S
H489 C499 0.930 . S
H490 C501 0.930 . S
H491 C503 0.931 . S
C492 H486 0.972 . S
C492 C493 1.376 . S
C492 C494 1.367 1_655 S
C493 C492 1.376 . S
C493 C497 1.357 1_655 S
C494 C492 1.367 1_455 S
C494 C495 1.416 . S
C495 H487 0.931 . S
C495 C494 1.416 . S
C495 C496 1.375 . S
C496 C495 1.375 . S
C496 C497 1.413 . S
C496 C498 1.501 . S
C497 H488 0.932 1_455 S
C497 C493 1.357 1_455 S
C497 C496 1.413 . S
C498 C496 1.501 . S
C498 C499 1.384 . S
C498 C503 1.408 1_455 S
C499 H489 0.930 . S
C499 C498 1.384 . S
C499 C500 1.389 . S
C500 C499 1.389 . S
C500 C501 1.405 . S
C501 H490 0.930 . S
C501 C500 1.405 . S
C501 C502 1.364 1_455 S
C502 C501 1.364 1_655 S
C502 C503 1.400 . S
C503 H491 0.931 . S
C503 C498 1.408 1_655 S
C503 C502 1.400 . S
H504 C510 0.930 . S
H505 C513 0.931 . S
H506 C515 0.931 . S
H507 C517 0.930 . S
H508 C519 0.930 . S
H509 C521 0.931 . S
C510 H504 0.930 . S
C510 C511 1.380 . S
C510 C512 1.394 . S
C511 C510 1.380 . S
C511 C515 1.382 . S
C512 C510 1.394 . S
C512 C513 1.400 . S
C513 H505 0.931 . S
C513 C512 1.400 . S
C513 C514 1.375 . S
C514 C513 1.375 . S
C514 C515 1.415 . S
C514 C516 1.501 . S
C515 H506 0.931 . S
C515 C511 1.382 . S
C515 C514 1.415 . S
C516 C514 1.501 . S
C516 C517 1.384 . S
C516 C521 1.408 . S
C517 H507 0.930 . S
C517 C516 1.384 . S
C517 C518 1.389 . S
C518 C517 1.389 . S
C518 C519 1.405 . S
C519 H508 0.930 . S
C519 C518 1.405 . S
C519 C520 1.364 . S
C520 C519 1.364 . S
C520 C521 1.400 . S
C521 H509 0.931 . S
C521 C516 1.408 . S
C521 C520 1.400 . S
H522 C528 0.930 . S
H523 C531 0.931 . S
H524 C533 0.931 . S
H525 C535 0.930 . S
H526 C537 0.930 . S
H527 C539 0.931 . S
C528 H522 0.930 . S
C528 C529 1.380 . S
C528 C530 1.394 . S
C529 C528 1.380 . S
C529 C533 1.382 . S
C530 C528 1.394 . S
C530 C531 1.400 . S
C531 H523 0.931 . S
C531 C530 1.400 . S
C531 C532 1.375 . S
C532 C531 1.375 . S
C532 C533 1.415 . S
C532 C534 1.501 . S
C533 H524 0.931 . S
C533 C529 1.382 . S
C533 C532 1.415 . S
C534 C532 1.501 . S
C534 C535 1.384 . S
C534 C539 1.408 . S
C535 H525 0.930 . S
C535 C534 1.384 . S
C535 C536 1.389 . S
C536 C535 1.389 . S
C536 C537 1.405 . S
C537 H526 0.930 . S
C537 C536 1.405 . S
C537 C538 1.364 . S
C538 C537 1.364 . S
C538 C539 1.400 . S
C539 H527 0.931 . S
C539 C534 1.408 . S
C539 C538 1.400 . S
H540 C546 0.930 . S
H541 C549 0.931 . S
H542 C551 0.931 . S
H543 C553 0.930 . S
H544 C555 0.930 . S
H545 C557 0.931 . S
C546 H540 0.930 . S
C546 C547 1.380 . S
C546 C548 1.394 . S
C547 C546 1.380 . S
C547 C551 1.382 . S
C548 C546 1.394 . S
C548 C549 1.400 . S
C549 H541 0.931 . S
C549 C548 1.400 . S
C549 C550 1.375 . S
C550 C549 1.375 . S
C550 C551 1.415 . S
C550 C552 1.501 . S
C551 H542 0.931 . S
C551 C547 1.382 . S
C551 C550 1.415 . S
C552 C550 1.501 . S
C552 C553 1.384 . S
C552 C557 1.408 . S
C553 H543 0.930 . S
C553 C552 1.384 . S
C553 C554 1.389 . S
C554 C553 1.389 . S
C554 C555 1.405 . S
C555 H544 0.930 . S
C555 C554 1.405 . S
C555 C556 1.364 . S
C556 C555 1.364 . S
C556 C557 1.400 . S
C557 H545 0.931 . S
C557 C552 1.408 . S
C557 C556 1.400 . S
H558 C564 0.930 . S
H559 C567 0.931 . S
H560 C569 0.931 . S
H561 C571 0.930 . S
H562 C573 0.930 . S
H563 C575 0.931 . S
C564 H558 0.930 . S
C564 C565 1.380 . S
C564 C566 1.394 . S
C565 C564 1.380 . S
C565 C569 1.382 . S
C566 C564 1.394 . S
C566 C567 1.400 . S
C567 H559 0.931 . S
C567 C566 1.400 . S
C567 C568 1.375 . S
C568 C567 1.375 . S
C568 C569 1.415 . S
C568 C570 1.501 . S
C569 H560 0.931 . S
C569 C565 1.382 . S
C569 C568 1.415 . S
C570 C568 1.501 . S
C570 C571 1.384 . S
C570 C575 1.408 . S
C571 H561 0.930 . S
C571 C570 1.384 . S
C571 C572 1.389 . S
C572 C571 1.389 . S
C572 C573 1.405 . S
C573 H562 0.930 . S
C573 C572 1.405 . S
C573 C574 1.364 . S
C574 C573 1.364 . S
C574 C575 1.400 . S
C575 H563 0.931 . S
C575 C570 1.408 . S
C575 C574 1.400 . S
C576 C577 1.349 1_455 S
C576 C578 1.327 . S
C576 H601 0.950 . S
C577 C576 1.349 1_655 S
C577 C593 1.349 . S
C578 C576 1.327 . S
C578 C597 1.429 1_455 S
C578 H602 0.950 . S
C579 C596 1.574 . S
C579 C598 1.368 . S
C579 H603 0.949 . S
H580 C584 0.949 . S
C581 C582 1.349 . S
C581 C583 1.327 . S
C581 H604 0.950 . S
C582 C581 1.349 . S
C582 C594 1.349 1_655 S
C583 C581 1.327 . S
C583 C599 1.429 . S
C583 H605 0.950 . S
C584 H580 0.949 . S
C584 C592 1.574 . S
C584 C600 1.368 1_455 S
H585 C593 0.950 . S
H586 C591 0.950 . S
H587 C592 0.949 . S
H588 C594 0.950 . S
H589 C595 0.950 . S
H590 C596 0.949 . S
C591 H586 0.950 . S
C591 C593 1.327 . S
C591 C597 1.429 . S
C592 C584 1.574 . S
C592 H587 0.949 . S
C592 C598 1.368 1_455 S
C593 C577 1.349 . S
C593 H585 0.950 . S
C593 C591 1.327 . S
C594 C582 1.349 1_455 S
C594 H588 0.950 . S
C594 C595 1.327 . S
C595 H589 0.950 . S
C595 C594 1.327 . S
C595 C599 1.429 1_455 S
C596 C579 1.574 . S
C596 H590 0.949 . S
C596 C600 1.368 . S
C597 C578 1.429 1_655 S
C597 C591 1.429 . S
C597 C598 1.523 . S
C598 C579 1.368 . S
C598 C592 1.368 1_655 S
C598 C597 1.523 . S
C599 C583 1.429 . S
C599 C595 1.429 1_655 S
C599 C600 1.523 . S
C600 C584 1.368 1_655 S
C600 C596 1.368 . S
C600 C599 1.523 . S
H601 C576 0.950 . S
H602 C578 0.950 . S
H603 C579 0.949 . S
H604 C581 0.950 . S
H605 C583 0.950 . S
C606 C607 1.349 . S
C606 C608 1.327 . S
C606 H631 0.950 . S
C607 C606 1.349 . S
C607 C623 1.349 . S
C608 C606 1.327 . S
C608 C627 1.429 . S
C608 H632 0.950 . S
C609 C626 1.574 . S
C609 C628 1.368 . S
C609 H633 0.949 . S
H610 C614 0.949 . S
C611 C612 1.349 . S
C611 C613 1.327 . S
C611 H634 0.950 . S
C612 C611 1.349 . S
C612 C624 1.349 . S
C613 C611 1.327 . S
C613 C629 1.429 . S
C613 H635 0.950 . S
C614 H610 0.949 . S
C614 C622 1.574 . S
C614 C630 1.368 . S
H615 C623 0.950 . S
H616 C621 0.950 . S
H617 C622 0.949 . S
H618 C624 0.950 . S
H619 C625 0.950 . S
H620 C626 0.949 . S
C621 H616 0.950 . S
C621 C623 1.327 . S
C621 C627 1.429 . S
C622 C614 1.574 . S
C622 H617 0.949 . S
C622 C628 1.368 . S
C623 C607 1.349 . S
C623 H615 0.950 . S
C623 C621 1.327 . S
C624 C612 1.349 . S
C624 H618 0.950 . S
C624 C625 1.327 . S
C625 H619 0.950 . S
C625 C624 1.327 . S
C625 C629 1.429 . S
C626 C609 1.574 . S
C626 H620 0.949 . S
C626 C630 1.368 . S
C627 C608 1.429 . S
C627 C621 1.429 . S
C627 C628 1.523 . S
C628 C609 1.368 . S
C628 C622 1.368 . S
C628 C627 1.523 . S
C629 C613 1.429 . S
C629 C625 1.429 . S
C629 C630 1.523 . S
C630 C614 1.368 . S
C630 C626 1.368 . S
C630 C629 1.523 . S
H631 C606 0.950 . S
H632 C608 0.950 . S
H633 C609 0.949 . S
H634 C611 0.950 . S
H635 C613 0.950 . S
C636 C637 1.349 . S
C636 C638 1.327 . S
C636 H661 0.950 . S
C637 C636 1.349 . S
C637 C653 1.349 1_545 S
C638 C636 1.327 . S
C638 C657 1.429 . S
C638 H662 0.950 . S
C639 C656 1.574 . S
C639 C658 1.368 1_565 S
C639 H663 0.949 . S
H640 C644 0.949 . S
C641 C642 1.349 1_565 S
C641 C643 1.327 . S
C641 H664 0.950 . S
C642 C641 1.349 1_545 S
C642 C654 1.349 . S
C643 C641 1.327 . S
C643 C659 1.429 1_565 S
C643 H665 0.950 . S
C644 H640 0.949 . S
C644 C652 1.574 . S
C644 C660 1.368 . S
H645 C653 0.950 . S
H646 C651 0.950 . S
H647 C652 0.949 . S
H648 C654 0.950 . S
H649 C655 0.950 . S
H650 C656 0.949 . S
C651 H646 0.950 . S
C651 C653 1.327 . S
C651 C657 1.429 1_565 S
C652 C644 1.574 . S
C652 H647 0.949 . S
C652 C658 1.368 . S
C653 C637 1.349 1_565 S
C653 H645 0.950 . S
C653 C651 1.327 . S
C654 C642 1.349 . S
C654 H648 0.950 . S
C654 C655 1.327 . S
C655 H649 0.950 . S
C655 C654 1.327 . S
C655 C659 1.429 . S
C656 C639 1.574 . S
C656 H650 0.949 . S
C656 C660 1.368 1_565 S
C657 C638 1.429 . S
C657 C651 1.429 1_545 S
C657 C658 1.523 . S
C658 C639 1.368 1_545 S
C658 C652 1.368 . S
C658 C657 1.523 . S
C659 C643 1.429 1_545 S
C659 C655 1.429 . S
C659 C660 1.523 . S
C660 C644 1.368 . S
C660 C656 1.368 1_545 S
C660 C659 1.523 . S
H661 C636 0.950 . S
H662 C638 0.950 . S
H663 C639 0.949 . S
H664 C641 0.950 . S
H665 C643 0.950 . S
C666 C667 1.349 1_565 S
C666 C668 1.327 . S
C666 H691 0.950 . S
C667 C666 1.349 1_545 S
C667 C683 1.349 . S
C668 C666 1.327 . S
C668 C687 1.429 1_565 S
C668 H692 0.950 . S
C669 C686 1.574 . S
C669 C688 1.349 1_545 S
C669 H693 0.949 . S
H670 C674 0.949 . S
C671 C672 1.349 1_545 S
C671 C673 1.327 . S
C671 H694 0.950 . S
C672 C671 1.349 1_565 S
C672 C684 1.349 . S
C673 C671 1.327 . S
C673 C689 1.429 1_545 S
C673 H695 0.950 . S
C674 H670 0.949 . S
C674 C682 1.574 . S
C674 C690 1.368 . S
H675 C683 0.950 . S
H676 C681 0.950 . S
H677 C682 0.949 . S
H678 C684 0.950 . S
H679 C685 0.950 . S
H680 C686 0.949 . S
C681 H676 0.950 . S
C681 C683 1.327 . S
C681 C687 1.426 . S
C682 C674 1.574 . S
C682 H677 0.949 . S
C682 C688 1.401 . S
C683 C667 1.349 . S
C683 H675 0.950 . S
C683 C681 1.327 . S
C684 C672 1.349 . S
C684 H678 0.950 . S
C684 C685 1.327 . S
C685 H679 0.950 . S
C685 C684 1.327 . S
C685 C689 1.429 . S
C686 C669 1.574 . S
C686 H680 0.949 . S
C686 C690 1.368 1_545 S
C687 C668 1.429 1_545 S
C687 C681 1.426 . S
C687 C688 1.507 1_545 S
C688 C669 1.349 1_565 S
C688 C682 1.401 . S
C688 C687 1.507 1_565 S
C689 C673 1.429 1_565 S
C689 C685 1.429 . S
C689 C690 1.523 . S
C690 C674 1.368 . S
C690 C686 1.368 1_565 S
C690 C689 1.523 . S
H691 C666 0.950 . S
H692 C668 0.950 . S
H693 C669 0.949 . S
H694 C671 0.950 . S
H695 C673 0.950 . S
C696 C697 1.349 1_655 S
C696 C698 1.327 . S
C696 H721 0.950 . S
C697 C696 1.349 1_455 S
C697 C713 1.349 . S
C698 C696 1.327 . S
C698 C717 1.429 1_655 S
C698 H722 0.950 . S
C699 C716 1.574 . S
C699 C718 1.368 . S
C699 H723 0.949 . S
H700 C704 0.949 . S
C701 C702 1.349 . S
C701 C703 1.327 . S
C701 H724 0.950 . S
C702 C701 1.349 . S
C702 C714 1.349 1_455 S
C703 C701 1.327 . S
C703 C719 1.429 . S
C703 H725 0.950 . S
C704 H700 0.949 . S
C704 C712 1.574 . S
C704 C720 1.368 1_655 S
H705 C713 0.950 . S
H706 C711 0.950 . S
H707 C712 0.949 . S
H708 C714 0.950 . S
H709 C715 0.950 . S
H710 C716 0.949 . S
C711 H706 0.950 . S
C711 C713 1.327 . S
C711 C717 1.429 . S
C712 C704 1.574 . S
C712 H707 0.949 . S
C712 C718 1.368 1_655 S
C713 C697 1.349 . S
C713 H705 0.950 . S
C713 C711 1.327 . S
C714 C702 1.349 1_655 S
C714 H708 0.950 . S
C714 C715 1.327 . S
C715 H709 0.950 . S
C715 C714 1.327 . S
C715 C719 1.429 1_655 S
C716 C699 1.574 . S
C716 H710 0.949 . S
C716 C720 1.368 . S
C717 C698 1.429 1_455 S
C717 C711 1.429 . S
C717 C718 1.523 . S
C718 C699 1.368 . S
C718 C712 1.368 1_455 S
C718 C717 1.523 . S
C719 C703 1.429 . S
C719 C715 1.429 1_455 S
C719 C720 1.523 . S
C720 C704 1.368 1_455 S
C720 C716 1.368 . S
C720 C719 1.523 . S
H721 C696 0.950 . S
H722 C698 0.950 . S
H723 C699 0.949 . S
H724 C701 0.950 . S
H725 C703 0.950 . S
C726 C727 1.349 . S
C726 C728 1.327 . S
C726 H751 0.950 . S
C727 C726 1.349 . S
C727 C743 1.349 . S
C728 C726 1.327 . S
C728 C747 1.429 . S
C728 H752 0.950 . S
C729 C746 1.574 . S
C729 C748 1.368 . S
C729 H753 0.949 . S
H730 C734 0.949 . S
C731 C732 1.349 . S
C731 C733 1.327 . S
C731 H754 0.950 . S
C732 C731 1.349 . S
C732 C744 1.349 . S
C733 C731 1.327 . S
C733 C749 1.429 . S
C733 H755 0.950 . S
C734 H730 0.949 . S
C734 C742 1.574 . S
C734 C750 1.368 . S
H735 C743 0.950 . S
H736 C741 0.950 . S
H737 C742 0.949 . S
H738 C744 0.950 . S
H739 C745 0.950 . S
H740 C746 0.949 . S
C741 H736 0.950 . S
C741 C743 1.327 . S
C741 C747 1.429 . S
C742 C734 1.574 . S
C742 H737 0.949 . S
C742 C748 1.368 . S
C743 C727 1.349 . S
C743 H735 0.950 . S
C743 C741 1.327 . S
C744 C732 1.349 . S
C744 H738 0.950 . S
C744 C745 1.327 . S
C745 H739 0.950 . S
C745 C744 1.327 . S
C745 C749 1.429 . S
C746 C729 1.574 . S
C746 H740 0.949 . S
C746 C750 1.368 . S
C747 C728 1.429 . S
C747 C741 1.429 . S
C747 C748 1.523 . S
C748 C729 1.368 . S
C748 C742 1.368 . S
C748 C747 1.523 . S
C749 C733 1.429 . S
C749 C745 1.429 . S
C749 C750 1.523 . S
C750 C734 1.368 . S
C750 C746 1.368 . S
C750 C749 1.523 . S
H751 C726 0.950 . S
H752 C728 0.950 . S
H753 C729 0.949 . S
H754 C731 0.950 . S
H755 C733 0.950 . S
C756 C757 1.349 1_655 S
C756 C758 1.327 . S
C756 H781 0.950 . S
C757 C756 1.349 1_455 S
C757 C773 1.349 . S
C758 C756 1.327 . S
C758 C777 1.429 1_655 S
C758 H782 0.950 . S
C759 C776 1.574 . S
C759 C778 1.438 . S
C759 H783 0.949 . S
H760 C764 0.949 . S
C761 C762 1.332 1_455 S
C761 C763 1.327 . S
C761 H784 0.950 . S
C762 C761 1.332 1_655 S
C762 C774 1.382 . S
C763 C761 1.327 . S
C763 C779 1.426 . S
C763 H785 0.950 . S
C764 H760 0.949 . S
C764 C772 1.574 . S
C764 C780 1.345 1_655 S
H765 C773 0.950 . S
H766 C771 0.950 . S
H767 C772 0.949 . S
H768 C774 0.950 . S
H769 C775 0.950 . S
H770 C776 0.949 . S
C771 H766 0.950 . S
C771 C773 1.327 . S
C771 C777 1.429 . S
C772 C764 1.574 . S
C772 H767 0.949 . S
C772 C778 1.327 1_655 S
C773 C757 1.349 . S
C773 H765 0.950 . S
C773 C771 1.327 . S
C774 C762 1.382 . S
C774 H768 0.950 . S
C774 C775 1.327 . S
C775 H769 0.950 . S
C775 C774 1.327 . S
C775 C779 1.430 1_655 S
C776 C759 1.574 . S
C776 H770 0.949 . S
C776 C780 1.383 . S
C777 C758 1.429 1_455 S
C777 C771 1.429 . S
C777 C778 1.492 . S
C778 C759 1.438 . S
C778 C772 1.327 1_455 S
C778 C777 1.492 . S
C779 C763 1.426 . S
C779 C775 1.430 1_455 S
C779 C780 1.536 . S
C780 C764 1.345 1_455 S
C780 C776 1.383 . S
C780 C779 1.536 . S
H781 C756 0.950 . S
H782 C758 0.950 . S
H783 C759 0.949 . S
H784 C761 0.950 . S
H785 C763 0.950 . S
C786 C787 1.349 . S
C786 C788 1.327 . S
C786 H811 0.950 . S
C787 C786 1.349 . S
C787 C803 1.349 . S
C788 C786 1.327 . S
C788 C807 1.429 . S
C788 H812 0.950 . S
C789 C806 1.574 . S
C789 C808 1.368 . S
C789 H813 0.949 . S
H790 C794 0.949 . S
C791 C792 1.349 . S
C791 C793 1.327 . S
C791 H814 0.950 . S
C792 C791 1.349 . S
C792 C804 1.349 . S
C793 C791 1.327 . S
C793 C809 1.429 . S
C793 H815 0.950 . S
C794 H790 0.949 . S
C794 C802 1.574 . S
C794 C810 1.368 . S
H795 C803 0.950 . S
H796 C801 0.950 . S
H797 C802 0.949 . S
H798 C804 0.950 . S
H799 C805 0.950 . S
H800 C806 0.949 . S
C801 H796 0.950 . S
C801 C803 1.327 . S
C801 C807 1.429 . S
C802 C794 1.574 . S
C802 H797 0.949 . S
C802 C808 1.368 . S
C803 C787 1.349 . S
C803 H795 0.950 . S
C803 C801 1.327 . S
C804 C792 1.349 . S
C804 H798 0.950 . S
C804 C805 1.327 . S
C805 H799 0.950 . S
C805 C804 1.327 . S
C805 C809 1.429 . S
C806 C789 1.574 . S
C806 H800 0.949 . S
C806 C810 1.368 . S
C807 C788 1.429 . S
C807 C801 1.429 . S
C807 C808 1.523 . S
C808 C789 1.368 . S
C808 C802 1.368 . S
C808 C807 1.523 . S
C809 C793 1.429 . S
C809 C805 1.429 . S
C809 C810 1.523 . S
C810 C794 1.368 . S
C810 C806 1.368 . S
C810 C809 1.523 . S
H811 C786 0.950 . S
H812 C788 0.950 . S
H813 C789 0.949 . S
H814 C791 0.950 . S
H815 C793 0.950 . S
C816 C817 1.349 1_545 S
C816 C818 1.327 . S
C816 H841 0.950 . S
C817 C816 1.349 1_565 S
C817 C833 1.349 . S
C818 C816 1.327 . S
C818 C837 1.415 1_545 S
C818 H842 0.950 . S
C819 C836 1.574 . S
C819 C838 1.384 . S
C819 H843 0.949 . S
H820 C824 0.949 . S
C821 C822 1.328 1_565 S
C821 C823 1.327 . S
C821 H844 0.950 . S
C822 C821 1.328 1_545 S
C822 C834 1.357 . S
C823 C821 1.327 . S
C823 C839 1.430 1_565 S
C823 H845 0.950 . S
C824 H820 0.949 . S
C824 C832 1.574 . S
C824 C840 1.365 1_545 S
H825 C833 0.950 . S
H826 C831 0.950 . S
H827 C832 0.949 . S
H828 C834 0.950 . S
H829 C835 0.950 . S
H830 C836 0.949 . S
C831 H826 0.950 . S
C831 C833 1.327 . S
C831 C837 1.475 . S
C832 C824 1.574 . S
C832 H827 0.949 . S
C832 C838 1.338 1_545 S
C833 C817 1.349 . S
C833 H825 0.950 . S
C833 C831 1.327 . S
C834 C822 1.357 . S
C834 H828 0.950 . S
C834 C835 1.327 . S
C835 H829 0.950 . S
C835 C834 1.327 . S
C835 C839 1.423 . S
C836 C819 1.574 . S
C836 H830 0.949 . S
C836 C840 1.374 . S
C837 C818 1.415 1_565 S
C837 C831 1.475 . S
C837 C838 1.514 . S
C838 C819 1.384 . S
C838 C832 1.338 1_565 S
C838 C837 1.514 . S
C839 C823 1.430 1_545 S
C839 C835 1.423 . S
C839 C840 1.523 1_545 S
C840 C824 1.365 1_565 S
C840 C836 1.374 . S
C840 C839 1.523 1_565 S
H841 C816 0.950 . S
H842 C818 0.950 . S
H843 C819 0.949 . S
H844 C821 0.950 . S
H845 C823 0.950 . S
C846 C847 1.349 . S
C846 C848 1.327 . S
C846 H871 0.950 . S
C847 C846 1.349 . S
C847 C863 1.349 1_545 S
C848 C846 1.327 . S
C848 C867 1.429 . S
C848 H872 0.950 . S
C849 C866 1.574 . S
C849 C868 1.368 1_565 S
C849 H873 0.949 . S
H850 C854 0.949 . S
C851 C852 1.379 . S
C851 C853 1.327 . S
C851 H874 0.950 . S
C852 C851 1.379 . S
C852 C864 1.331 1_565 S
C853 C851 1.327 . S
C853 C869 1.419 1_565 S
C853 H875 0.950 . S
C854 H850 0.949 . S
C854 C862 1.574 . S
C854 C870 1.407 . S
H855 C863 0.950 . S
H856 C861 0.950 . S
H857 C862 0.949 . S
H858 C864 0.950 . S
H859 C865 0.950 . S
H860 C866 0.949 . S
C861 H856 0.950 . S
C861 C863 1.327 . S
C861 C867 1.429 1_565 S
C862 C854 1.574 . S
C862 H857 0.949 . S
C862 C868 1.368 . S
C863 C847 1.349 1_565 S
C863 H855 0.950 . S
C863 C861 1.327 . S
C864 C852 1.331 1_545 S
C864 H858 0.950 . S
C864 C865 1.327 . S
C865 H859 0.950 . S
C865 C864 1.327 . S
C865 C869 1.445 . S
C866 C849 1.574 . S
C866 H860 0.949 . S
C866 C870 1.315 1_565 S
C867 C848 1.429 . S
C867 C861 1.429 1_545 S
C867 C868 1.523 . S
C868 C849 1.368 1_545 S
C868 C862 1.368 . S
C868 C867 1.523 . S
C869 C853 1.419 1_545 S
C869 C865 1.445 . S
C869 C870 1.537 . S
C870 C854 1.407 . S
C870 C866 1.315 1_545 S
C870 C869 1.537 . S
H871 C846 0.950 . S
H872 C848 0.950 . S
H873 C849 0.949 . S
H874 C851 0.950 . S
H875 C853 0.950 . S
C876 C877 1.349 1_455 S
C876 C878 1.327 . S
C876 H901 0.950 . S
C877 C876 1.349 1_655 S
C877 C893 1.349 . S
C878 C876 1.327 . S
C878 C897 1.409 1_455 S
C878 H902 0.950 . S
C879 C896 1.574 . S
C879 C898 1.389 . S
C879 H903 0.949 . S
H880 C884 0.949 . S
C881 C882 1.332 1_655 S
C881 C883 1.327 . S
C881 H904 0.950 . S
C882 C881 1.332 1_455 S
C882 C894 1.357 . S
C883 C881 1.327 . S
C883 C899 1.426 . S
C883 H905 0.950 . S
C884 H880 0.949 . S
C884 C892 1.574 . S
C884 C900 1.363 1_455 S
H885 C893 0.950 . S
H886 C891 0.950 . S
H887 C892 0.949 . S
H888 C894 0.950 . S
H889 C895 0.950 . S
H890 C896 0.949 . S
C891 H886 0.950 . S
C891 C893 1.327 . S
C891 C897 1.479 . S
C892 C884 1.574 . S
C892 H887 0.949 . S
C892 C898 1.334 1_455 S
C893 C877 1.349 . S
C893 H885 0.950 . S
C893 C891 1.327 . S
C894 C882 1.357 . S
C894 H888 0.950 . S
C894 C895 1.327 . S
C895 H889 0.950 . S
C895 C894 1.327 . S
C895 C899 1.434 1_455 S
C896 C879 1.574 . S
C896 H890 0.949 . S
C896 C900 1.378 . S
C897 C878 1.409 1_655 S
C897 C891 1.479 . S
C897 C898 1.515 . S
C898 C879 1.389 . S
C898 C892 1.334 1_655 S
C898 C897 1.515 . S
C899 C883 1.426 . S
C899 C895 1.434 1_655 S
C899 C900 1.515 . S
C900 C884 1.363 1_655 S
C900 C896 1.378 . S
C900 C899 1.515 . S
H901 C876 0.950 . S
H902 C878 0.950 . S
H903 C879 0.949 . S
H904 C881 0.950 . S
H905 C883 0.950 . S
C906 C907 1.349 . S
C906 C908 1.327 . S
C906 H931 0.950 . S
C907 C906 1.349 . S
C907 C923 1.349 . S
C908 C906 1.327 . S
C908 C927 1.429 . S
C908 H932 0.950 . S
C909 C926 1.574 . S
C909 C928 1.368 . S
C909 H933 0.949 . S
H910 C914 0.949 . S
C911 C912 1.349 . S
C911 C913 1.327 . S
C911 H934 0.950 . S
C912 C911 1.349 . S
C912 C924 1.349 . S
C913 C911 1.327 . S
C913 C929 1.429 . S
C913 H935 0.950 . S
C914 H910 0.949 . S
C914 C922 1.574 . S
C914 C930 1.368 . S
H915 C923 0.950 . S
H916 C921 0.950 . S
H917 C922 0.949 . S
H918 C924 0.950 . S
H919 C925 0.950 . S
H920 C926 0.949 . S
C921 H916 0.950 . S
C921 C923 1.327 . S
C921 C927 1.429 . S
C922 C914 1.574 . S
C922 H917 0.949 . S
C922 C928 1.368 . S
C923 C907 1.349 . S
C923 H915 0.950 . S
C923 C921 1.327 . S
C924 C912 1.349 . S
C924 H918 0.950 . S
C924 C925 1.327 . S
C925 H919 0.950 . S
C925 C924 1.327 . S
C925 C929 1.429 . S
C926 C909 1.574 . S
C926 H920 0.949 . S
C926 C930 1.368 . S
C927 C908 1.429 . S
C927 C921 1.429 . S
C927 C928 1.523 . S
C928 C909 1.368 . S
C928 C922 1.368 . S
C928 C927 1.523 . S
C929 C913 1.429 . S
C929 C925 1.429 . S
C929 C930 1.523 . S
C930 C914 1.368 . S
C930 C926 1.368 . S
C930 C929 1.523 . S
H931 C906 0.950 . S
H932 C908 0.950 . S
H933 C909 0.949 . S
H934 C911 0.950 . S
H935 C913 0.950 . S
C936 C937 1.349 . S
C936 C938 1.327 . S
C936 H961 0.950 . S
C937 C936 1.349 . S
C937 C953 1.349 . S
C938 C936 1.327 . S
C938 C957 1.429 . S
C938 H962 0.950 . S
C939 C956 1.574 . S
C939 C958 1.368 . S
C939 H963 0.949 . S
H940 C944 0.949 . S
C941 C942 1.349 . S
C941 C943 1.327 . S
C941 H964 0.950 . S
C942 C941 1.349 . S
C942 C954 1.349 . S
C943 C941 1.327 . S
C943 C959 1.429 . S
C943 H965 0.950 . S
C944 H940 0.949 . S
C944 C952 1.574 . S
C944 C960 1.368 . S
H945 C953 0.950 . S
H946 C951 0.950 . S
H947 C952 0.949 . S
H948 C954 0.950 . S
H949 C955 0.950 . S
H950 C956 0.949 . S
C951 H946 0.950 . S
C951 C953 1.327 . S
C951 C957 1.429 . S
C952 C944 1.574 . S
C952 H947 0.949 . S
C952 C958 1.368 . S
C953 C937 1.349 . S
C953 H945 0.950 . S
C953 C951 1.327 . S
C954 C942 1.349 . S
C954 H948 0.950 . S
C954 C955 1.327 . S
C955 H949 0.950 . S
C955 C954 1.327 . S
C955 C959 1.429 . S
C956 C939 1.574 . S
C956 H950 0.949 . S
C956 C960 1.368 . S
C957 C938 1.429 . S
C957 C951 1.429 . S
C957 C958 1.523 . S
C958 C939 1.368 . S
C958 C952 1.368 . S
C958 C957 1.523 . S
C959 C943 1.429 . S
C959 C955 1.429 . S
C959 C960 1.523 . S
C960 C944 1.368 . S
C960 C956 1.368 . S
C960 C959 1.523 . S
H961 C936 0.950 . S
H962 C938 0.950 . S
H963 C939 0.949 . S
H964 C941 0.950 . S
H965 C943 0.950 . S
C966 C967 1.349 . S
C966 C968 1.327 . S
C966 H991 0.950 . S
C967 C966 1.349 . S
C967 C983 1.349 . S
C968 C966 1.327 . S
C968 C987 1.429 . S
C968 H992 0.950 . S
C969 C986 1.574 . S
C969 C988 1.368 . S
C969 H993 0.949 . S
H970 C974 0.949 . S
C971 C972 1.349 . S
C971 C973 1.327 . S
C971 H994 0.950 . S
C972 C971 1.349 . S
C972 C984 1.349 . S
C973 C971 1.327 . S
C973 C989 1.429 . S
C973 H995 0.950 . S
C974 H970 0.949 . S
C974 C982 1.574 . S
C974 C990 1.368 . S
H975 C983 0.950 . S
H976 C981 0.950 . S
H977 C982 0.949 . S
H978 C984 0.950 . S
H979 C985 0.950 . S
H980 C986 0.949 . S
C981 H976 0.950 . S
C981 C983 1.327 . S
C981 C987 1.429 . S
C982 C974 1.574 . S
C982 H977 0.949 . S
C982 C988 1.368 . S
C983 C967 1.349 . S
C983 H975 0.950 . S
C983 C981 1.327 . S
C984 C972 1.349 . S
C984 H978 0.950 . S
C984 C985 1.327 . S
C985 H979 0.950 . S
C985 C984 1.327 . S
C985 C989 1.429 . S
C986 C969 1.574 . S
C986 H980 0.949 . S
C986 C990 1.368 . S
C987 C968 1.429 . S
C987 C981 1.429 . S
C987 C988 1.523 . S
C988 C969 1.368 . S
C988 C982 1.368 . S
C988 C987 1.523 . S
C989 C973 1.429 . S
C989 C985 1.429 . S
C989 C990 1.523 . S
C990 C974 1.368 . S
C990 C986 1.368 . S
C990 C989 1.523 . S
H991 C966 0.950 . S
H992 C968 0.950 . S
H993 C969 0.949 . S
H994 C971 0.950 . S
H995 C973 0.950 . S
C996 C997 1.349 . S
C996 C998 1.327 . S
C996 H1021 0.950 . S
C997 C996 1.349 . S
C997 C1013 1.349 . S
C998 C996 1.327 . S
C998 C1017 1.429 . S
C998 H1022 0.950 . S
C999 C1016 1.574 . S
C999 C1018 1.368 . S
C999 H1023 0.949 . S
H1000 C1004 0.949 . S
C1001 C1002 1.349 . S
C1001 C1003 1.327 . S
C1001 H1024 0.950 . S
C1002 C1001 1.349 . S
C1002 C1014 1.349 . S
C1003 C1001 1.327 . S
C1003 C1019 1.429 . S
C1003 H1025 0.950 . S
C1004 H1000 0.949 . S
C1004 C1012 1.574 . S
C1004 C1020 1.368 . S
H1005 C1013 0.950 . S
H1006 C1011 0.950 . S
H1007 C1012 0.949 . S
H1008 C1014 0.950 . S
H1009 C1015 0.950 . S
H1010 C1016 0.949 . S
C1011 H1006 0.950 . S
C1011 C1013 1.327 . S
C1011 C1017 1.429 . S
C1012 C1004 1.574 . S
C1012 H1007 0.949 . S
C1012 C1018 1.368 . S
C1013 C997 1.349 . S
C1013 H1005 0.950 . S
C1013 C1011 1.327 . S
C1014 C1002 1.349 . S
C1014 H1008 0.950 . S
C1014 C1015 1.327 . S
C1015 H1009 0.950 . S
C1015 C1014 1.327 . S
C1015 C1019 1.429 . S
C1016 C999 1.574 . S
C1016 H1010 0.949 . S
C1016 C1020 1.368 . S
C1017 C998 1.429 . S
C1017 C1011 1.429 . S
C1017 C1018 1.523 . S
C1018 C999 1.368 . S
C1018 C1012 1.368 . S
C1018 C1017 1.523 . S
C1019 C1003 1.429 . S
C1019 C1015 1.429 . S
C1019 C1020 1.523 . S
C1020 C1004 1.368 . S
C1020 C1016 1.368 . S
C1020 C1019 1.523 . S
H1021 C996 0.950 . S
H1022 C998 0.950 . S
H1023 C999 0.949 . S
H1024 C1001 0.950 . S
H1025 C1003 0.950 . S
C1026 C1027 1.349 . S
C1026 C1028 1.327 . S
C1026 H1051 0.950 . S
C1027 C1026 1.349 . S
C1027 C1043 1.349 . S
C1028 C1026 1.327 . S
C1028 C1047 1.429 . S
C1028 H1052 0.950 . S
C1029 C1046 1.574 . S
C1029 C1048 1.368 . S
C1029 H1053 0.949 . S
H1030 C1034 0.949 . S
C1031 C1032 1.349 . S
C1031 C1033 1.327 . S
C1031 H1054 0.950 . S
C1032 C1031 1.349 . S
C1032 C1044 1.349 . S
C1033 C1031 1.327 . S
C1033 C1049 1.429 . S
C1033 H1055 0.950 . S
C1034 H1030 0.949 . S
C1034 C1042 1.574 . S
C1034 C1050 1.368 . S
H1035 C1043 0.950 . S
H1036 C1041 0.950 . S
H1037 C1042 0.949 . S
H1038 C1044 0.950 . S
H1039 C1045 0.950 . S
H1040 C1046 0.949 . S
C1041 H1036 0.950 . S
C1041 C1043 1.327 . S
C1041 C1047 1.429 . S
C1042 C1034 1.574 . S
C1042 H1037 0.949 . S
C1042 C1048 1.368 . S
C1043 C1027 1.349 . S
C1043 H1035 0.950 . S
C1043 C1041 1.327 . S
C1044 C1032 1.349 . S
C1044 H1038 0.950 . S
C1044 C1045 1.327 . S
C1045 H1039 0.950 . S
C1045 C1044 1.327 . S
C1045 C1049 1.429 . S
C1046 C1029 1.574 . S
C1046 H1040 0.949 . S
C1046 C1050 1.368 . S
C1047 C1028 1.429 . S
C1047 C1041 1.429 . S
C1047 C1048 1.523 . S
C1048 C1029 1.368 . S
C1048 C1042 1.368 . S
C1048 C1047 1.523 . S
C1049 C1033 1.429 . S
C1049 C1045 1.429 . S
C1049 C1050 1.523 . S
C1050 C1034 1.368 . S
C1050 C1046 1.368 . S
C1050 C1049 1.523 . S
H1051 C1026 0.950 . S
H1052 C1028 0.950 . S
H1053 C1029 0.949 . S
H1054 C1031 0.950 . S
H1055 C1033 0.950 . S
C1056 C1057 1.349 . S
C1056 C1058 1.327 . S
C1056 H1081 0.950 . S
C1057 C1056 1.349 . S
C1057 C1073 1.349 . S
C1058 C1056 1.327 . S
C1058 C1077 1.429 . S
C1058 H1082 0.950 . S
C1059 C1076 1.574 . S
C1059 C1078 1.368 . S
C1059 H1083 0.949 . S
H1060 C1064 0.949 . S
C1061 C1062 1.349 . S
C1061 C1063 1.327 . S
C1061 H1084 0.950 . S
C1062 C1061 1.349 . S
C1062 C1074 1.349 . S
C1063 C1061 1.327 . S
C1063 C1079 1.429 . S
C1063 H1085 0.950 . S
C1064 H1060 0.949 . S
C1064 C1072 1.574 . S
C1064 C1080 1.368 . S
H1065 C1073 0.950 . S
H1066 C1071 0.950 . S
H1067 C1072 0.949 . S
H1068 C1074 0.950 . S
H1069 C1075 0.950 . S
H1070 C1076 0.949 . S
C1071 H1066 0.950 . S
C1071 C1073 1.327 . S
C1071 C1077 1.429 . S
C1072 C1064 1.574 . S
C1072 H1067 0.949 . S
C1072 C1078 1.368 . S
C1073 C1057 1.349 . S
C1073 H1065 0.950 . S
C1073 C1071 1.327 . S
C1074 C1062 1.349 . S
C1074 H1068 0.950 . S
C1074 C1075 1.327 . S
C1075 H1069 0.950 . S
C1075 C1074 1.327 . S
C1075 C1079 1.429 . S
C1076 C1059 1.574 . S
C1076 H1070 0.949 . S
C1076 C1080 1.368 . S
C1077 C1058 1.429 . S
C1077 C1071 1.429 . S
C1077 C1078 1.523 . S
C1078 C1059 1.368 . S
C1078 C1072 1.368 . S
C1078 C1077 1.523 . S
C1079 C1063 1.429 . S
C1079 C1075 1.429 . S
C1079 C1080 1.523 . S
C1080 C1064 1.368 . S
C1080 C1076 1.368 . S
C1080 C1079 1.523 . S
H1081 C1056 0.950 . S
H1082 C1058 0.950 . S
H1083 C1059 0.949 . S
H1084 C1061 0.950 . S
H1085 C1063 0.950 . S
C1086 C1087 1.349 . S
C1086 C1088 1.327 . S
C1086 H1111 0.950 . S
C1087 C1086 1.349 . S
C1087 C1103 1.349 . S
C1088 C1086 1.327 . S
C1088 C1107 1.429 . S
C1088 H1112 0.950 . S
C1089 C1106 1.574 . S
C1089 C1108 1.368 . S
C1089 H1113 0.949 . S
H1090 C1094 0.949 . S
C1091 C1092 1.349 . S
C1091 C1093 1.327 . S
C1091 H1114 0.950 . S
C1092 C1091 1.349 . S
C1092 C1104 1.349 . S
C1093 C1091 1.327 . S
C1093 C1109 1.429 . S
C1093 H1115 0.950 . S
C1094 H1090 0.949 . S
C1094 C1102 1.574 . S
C1094 C1110 1.368 . S
H1095 C1103 0.950 . S
H1096 C1101 0.950 . S
H1097 C1102 0.949 . S
H1098 C1104 0.950 . S
H1099 C1105 0.950 . S
H1100 C1106 0.949 . S
C1101 H1096 0.950 . S
C1101 C1103 1.327 . S
C1101 C1107 1.429 . S
C1102 C1094 1.574 . S
C1102 H1097 0.949 . S
C1102 C1108 1.368 . S
C1103 C1087 1.349 . S
C1103 H1095 0.950 . S
C1103 C1101 1.327 . S
C1104 C1092 1.349 . S
C1104 H1098 0.950 . S
C1104 C1105 1.327 . S
C1105 H1099 0.950 . S
C1105 C1104 1.327 . S
C1105 C1109 1.429 . S
C1106 C1089 1.574 . S
C1106 H1100 0.949 . S
C1106 C1110 1.368 . S
C1107 C1088 1.429 . S
C1107 C1101 1.429 . S
C1107 C1108 1.523 . S
C1108 C1089 1.368 . S
C1108 C1102 1.368 . S
C1108 C1107 1.523 . S
C1109 C1093 1.429 . S
C1109 C1105 1.429 . S
C1109 C1110 1.523 . S
C1110 C1094 1.368 . S
C1110 C1106 1.368 . S
C1110 C1109 1.523 . S
H1111 C1086 0.950 . S
H1112 C1088 0.950 . S
H1113 C1089 0.949 . S
H1114 C1091 0.950 . S
H1115 C1093 0.950 . S
C1116 C1117 1.349 . S
C1116 C1118 1.327 . S
C1116 H1141 0.950 . S
C1117 C1116 1.349 . S
C1117 C1133 1.349 . S
C1118 C1116 1.327 . S
C1118 C1137 1.429 . S
C1118 H1142 0.950 . S
C1119 C1136 1.574 . S
C1119 C1138 1.368 . S
C1119 H1143 0.949 . S
H1120 C1124 0.949 . S
C1121 C1122 1.349 . S
C1121 C1123 1.327 . S
C1121 H1144 0.950 . S
C1122 C1121 1.349 . S
C1122 C1134 1.349 . S
C1123 C1121 1.327 . S
C1123 C1139 1.429 . S
C1123 H1145 0.950 . S
C1124 H1120 0.949 . S
C1124 C1132 1.574 . S
C1124 C1140 1.368 . S
H1125 C1133 0.950 . S
H1126 C1131 0.950 . S
H1127 C1132 0.949 . S
H1128 C1134 0.950 . S
H1129 C1135 0.950 . S
H1130 C1136 0.949 . S
C1131 H1126 0.950 . S
C1131 C1133 1.327 . S
C1131 C1137 1.429 . S
C1132 C1124 1.574 . S
C1132 H1127 0.949 . S
C1132 C1138 1.368 . S
C1133 C1117 1.349 . S
C1133 H1125 0.950 . S
C1133 C1131 1.327 . S
C1134 C1122 1.349 . S
C1134 H1128 0.950 . S
C1134 C1135 1.327 . S
C1135 H1129 0.950 . S
C1135 C1134 1.327 . S
C1135 C1139 1.429 . S
C1136 C1119 1.574 . S
C1136 H1130 0.949 . S
C1136 C1140 1.368 . S
C1137 C1118 1.429 . S
C1137 C1131 1.429 . S
C1137 C1138 1.523 . S
C1138 C1119 1.368 . S
C1138 C1132 1.368 . S
C1138 C1137 1.523 . S
C1139 C1123 1.429 . S
C1139 C1135 1.429 . S
C1139 C1140 1.523 . S
C1140 C1124 1.368 . S
C1140 C1136 1.368 . S
C1140 C1139 1.523 . S
H1141 C1116 0.950 . S
H1142 C1118 0.950 . S
H1143 C1119 0.949 . S
H1144 C1121 0.950 . S
H1145 C1123 0.950 . S
C1146 C1147 1.349 . S
C1146 C1148 1.327 . S
C1146 H1171 0.950 . S
C1147 C1146 1.349 . S
C1147 C1163 1.349 . S
C1148 C1146 1.327 . S
C1148 C1167 1.429 . S
C1148 H1172 0.950 . S
C1149 C1166 1.574 . S
C1149 C1168 1.368 . S
C1149 H1173 0.949 . S
H1150 C1154 0.949 . S
C1151 C1152 1.349 . S
C1151 C1153 1.327 . S
C1151 H1174 0.950 . S
C1152 C1151 1.349 . S
C1152 C1164 1.349 . S
C1153 C1151 1.327 . S
C1153 C1169 1.429 . S
C1153 H1175 0.950 . S
C1154 H1150 0.949 . S
C1154 C1162 1.574 . S
C1154 C1170 1.368 . S
H1155 C1163 0.950 . S
H1156 C1161 0.950 . S
H1157 C1162 0.949 . S
H1158 C1164 0.950 . S
H1159 C1165 0.950 . S
H1160 C1166 0.949 . S
C1161 H1156 0.950 . S
C1161 C1163 1.327 . S
C1161 C1167 1.429 . S
C1162 C1154 1.574 . S
C1162 H1157 0.949 . S
C1162 C1168 1.368 . S
C1163 C1147 1.349 . S
C1163 H1155 0.950 . S
C1163 C1161 1.327 . S
C1164 C1152 1.349 . S
C1164 H1158 0.950 . S
C1164 C1165 1.327 . S
C1165 H1159 0.950 . S
C1165 C1164 1.327 . S
C1165 C1169 1.429 . S
C1166 C1149 1.574 . S
C1166 H1160 0.949 . S
C1166 C1170 1.368 . S
C1167 C1148 1.429 . S
C1167 C1161 1.429 . S
C1167 C1168 1.523 . S
C1168 C1149 1.368 . S
C1168 C1162 1.368 . S
C1168 C1167 1.523 . S
C1169 C1153 1.429 . S
C1169 C1165 1.429 . S
C1169 C1170 1.523 . S
C1170 C1154 1.368 . S
C1170 C1166 1.368 . S
C1170 C1169 1.523 . S
H1171 C1146 0.950 . S
H1172 C1148 0.950 . S
H1173 C1149 0.949 . S
H1174 C1151 0.950 . S
H1175 C1153 0.950 . S
C1176 C1177 1.349 . S
C1176 C1178 1.327 . S
C1176 H1201 0.950 . S
C1177 C1176 1.349 . S
C1177 C1193 1.349 . S
C1178 C1176 1.327 . S
C1178 C1197 1.429 . S
C1178 H1202 0.950 . S
C1179 C1196 1.574 . S
C1179 C1198 1.368 . S
C1179 H1203 0.949 . S
H1180 C1184 0.949 . S
C1181 C1182 1.349 . S
C1181 C1183 1.327 . S
C1181 H1204 0.950 . S
C1182 C1181 1.349 . S
C1182 C1194 1.349 . S
C1183 C1181 1.327 . S
C1183 C1199 1.429 . S
C1183 H1205 0.950 . S
C1184 H1180 0.949 . S
C1184 C1192 1.574 . S
C1184 C1200 1.368 . S
H1185 C1193 0.950 . S
H1186 C1191 0.950 . S
H1187 C1192 0.949 . S
H1188 C1194 0.950 . S
H1189 C1195 0.950 . S
H1190 C1196 0.949 . S
C1191 H1186 0.950 . S
C1191 C1193 1.327 . S
C1191 C1197 1.429 . S
C1192 C1184 1.574 . S
C1192 H1187 0.949 . S
C1192 C1198 1.368 . S
C1193 C1177 1.349 . S
C1193 H1185 0.950 . S
C1193 C1191 1.327 . S
C1194 C1182 1.349 . S
C1194 H1188 0.950 . S
C1194 C1195 1.327 . S
C1195 H1189 0.950 . S
C1195 C1194 1.327 . S
C1195 C1199 1.429 . S
C1196 C1179 1.574 . S
C1196 H1190 0.949 . S
C1196 C1200 1.368 . S
C1197 C1178 1.429 . S
C1197 C1191 1.429 . S
C1197 C1198 1.523 . S
C1198 C1179 1.368 . S
C1198 C1192 1.368 . S
C1198 C1197 1.523 . S
C1199 C1183 1.429 . S
C1199 C1195 1.429 . S
C1199 C1200 1.523 . S
C1200 C1184 1.368 . S
C1200 C1196 1.368 . S
C1200 C1199 1.523 . S
H1201 C1176 0.950 . S
H1202 C1178 0.950 . S
H1203 C1179 0.949 . S
H1204 C1181 0.950 . S
H1205 C1183 0.950 . S
C1206 C1207 1.349 . S
C1206 C1208 1.327 . S
C1206 H1231 0.950 . S
C1207 C1206 1.349 . S
C1207 C1223 1.349 . S
C1208 C1206 1.327 . S
C1208 C1227 1.429 . S
C1208 H1232 0.950 . S
C1209 C1226 1.574 . S
C1209 C1228 1.368 . S
C1209 H1233 0.949 . S
H1210 C1214 0.949 . S
C1211 C1212 1.349 . S
C1211 C1213 1.327 . S
C1211 H1234 0.950 . S
C1212 C1211 1.349 . S
C1212 C1224 1.349 . S
C1213 C1211 1.327 . S
C1213 C1229 1.429 . S
C1213 H1235 0.950 . S
C1214 H1210 0.949 . S
C1214 C1222 1.574 . S
C1214 C1230 1.368 . S
H1215 C1223 0.950 . S
H1216 C1221 0.950 . S
H1217 C1222 0.949 . S
H1218 C1224 0.950 . S
H1219 C1225 0.950 . S
H1220 C1226 0.949 . S
C1221 H1216 0.950 . S
C1221 C1223 1.327 . S
C1221 C1227 1.429 . S
C1222 C1214 1.574 . S
C1222 H1217 0.949 . S
C1222 C1228 1.368 . S
C1223 C1207 1.349 . S
C1223 H1215 0.950 . S
C1223 C1221 1.327 . S
C1224 C1212 1.349 . S
C1224 H1218 0.950 . S
C1224 C1225 1.327 . S
C1225 H1219 0.950 . S
C1225 C1224 1.327 . S
C1225 C1229 1.429 . S
C1226 C1209 1.574 . S
C1226 H1220 0.949 . S
C1226 C1230 1.368 . S
C1227 C1208 1.429 . S
C1227 C1221 1.429 . S
C1227 C1228 1.523 . S
C1228 C1209 1.368 . S
C1228 C1222 1.368 . S
C1228 C1227 1.523 . S
C1229 C1213 1.429 . S
C1229 C1225 1.429 . S
C1229 C1230 1.523 . S
C1230 C1214 1.368 . S
C1230 C1226 1.368 . S
C1230 C1229 1.523 . S
H1231 C1206 0.950 . S
H1232 C1208 0.950 . S
H1233 C1209 0.949 . S
H1234 C1211 0.950 . S
H1235 C1213 0.950 . S
C1236 C1237 1.349 . S
C1236 C1238 1.327 . S
C1236 H1261 0.950 . S
C1237 C1236 1.349 . S
C1237 C1253 1.349 . S
C1238 C1236 1.327 . S
C1238 C1257 1.429 . S
C1238 H1262 0.950 . S
C1239 C1256 1.574 . S
C1239 C1258 1.368 . S
C1239 H1263 0.949 . S
H1240 C1244 0.949 . S
C1241 C1242 1.349 . S
C1241 C1243 1.327 . S
C1241 H1264 0.950 . S
C1242 C1241 1.349 . S
C1242 C1254 1.349 . S
C1243 C1241 1.327 . S
C1243 C1259 1.429 . S
C1243 H1265 0.950 . S
C1244 H1240 0.949 . S
C1244 C1252 1.574 . S
C1244 C1260 1.368 . S
H1245 C1253 0.950 . S
H1246 C1251 0.950 . S
H1247 C1252 0.949 . S
H1248 C1254 0.950 . S
H1249 C1255 0.950 . S
H1250 C1256 0.949 . S
C1251 H1246 0.950 . S
C1251 C1253 1.327 . S
C1251 C1257 1.429 . S
C1252 C1244 1.574 . S
C1252 H1247 0.949 . S
C1252 C1258 1.368 . S
C1253 C1237 1.349 . S
C1253 H1245 0.950 . S
C1253 C1251 1.327 . S
C1254 C1242 1.349 . S
C1254 H1248 0.950 . S
C1254 C1255 1.327 . S
C1255 H1249 0.950 . S
C1255 C1254 1.327 . S
C1255 C1259 1.429 . S
C1256 C1239 1.574 . S
C1256 H1250 0.949 . S
C1256 C1260 1.368 . S
C1257 C1238 1.429 . S
C1257 C1251 1.429 . S
C1257 C1258 1.523 . S
C1258 C1239 1.368 . S
C1258 C1252 1.368 . S
C1258 C1257 1.523 . S
C1259 C1243 1.429 . S
C1259 C1255 1.429 . S
C1259 C1260 1.523 . S
C1260 C1244 1.368 . S
C1260 C1256 1.368 . S
C1260 C1259 1.523 . S
H1261 C1236 0.950 . S
H1262 C1238 0.950 . S
H1263 C1239 0.949 . S
H1264 C1241 0.950 . S
H1265 C1243 0.950 . S
C1266 C1267 1.349 . S
C1266 C1268 1.327 . S
C1266 H1291 0.950 . S
C1267 C1266 1.349 . S
C1267 C1283 1.349 . S
C1268 C1266 1.327 . S
C1268 C1287 1.429 . S
C1268 H1292 0.950 . S
C1269 C1286 1.574 . S
C1269 C1288 1.368 . S
C1269 H1293 0.949 . S
H1270 C1274 0.949 . S
C1271 C1272 1.349 . S
C1271 C1273 1.327 . S
C1271 H1294 0.950 . S
C1272 C1271 1.349 . S
C1272 C1284 1.349 . S
C1273 C1271 1.327 . S
C1273 C1289 1.429 . S
C1273 H1295 0.950 . S
C1274 H1270 0.949 . S
C1274 C1282 1.574 . S
C1274 C1290 1.368 . S
H1275 C1283 0.950 . S
H1276 C1281 0.950 . S
H1277 C1282 0.949 . S
H1278 C1284 0.950 . S
H1279 C1285 0.950 . S
H1280 C1286 0.949 . S
C1281 H1276 0.950 . S
C1281 C1283 1.327 . S
C1281 C1287 1.429 . S
C1282 C1274 1.574 . S
C1282 H1277 0.949 . S
C1282 C1288 1.368 . S
C1283 C1267 1.349 . S
C1283 H1275 0.950 . S
C1283 C1281 1.327 . S
C1284 C1272 1.349 . S
C1284 H1278 0.950 . S
C1284 C1285 1.327 . S
C1285 H1279 0.950 . S
C1285 C1284 1.327 . S
C1285 C1289 1.429 . S
C1286 C1269 1.574 . S
C1286 H1280 0.949 . S
C1286 C1290 1.368 . S
C1287 C1268 1.429 . S
C1287 C1281 1.429 . S
C1287 C1288 1.523 . S
C1288 C1269 1.368 . S
C1288 C1282 1.368 . S
C1288 C1287 1.523 . S
C1289 C1273 1.429 . S
C1289 C1285 1.429 . S
C1289 C1290 1.523 . S
C1290 C1274 1.368 . S
C1290 C1286 1.368 . S
C1290 C1289 1.523 . S
H1291 C1266 0.950 . S
H1292 C1268 0.950 . S
H1293 C1269 0.949 . S
H1294 C1271 0.950 . S
H1295 C1273 0.950 . S
C1296 C1297 1.349 . S
C1296 C1298 1.327 . S
C1296 H1321 0.950 . S
C1297 C1296 1.349 . S
C1297 C1313 1.349 . S
C1298 C1296 1.327 . S
C1298 C1317 1.429 . S
C1298 H1322 0.950 . S
C1299 C1316 1.574 . S
C1299 C1318 1.368 . S
C1299 H1323 0.949 . S
H1300 C1304 0.949 . S
C1301 C1302 1.349 . S
C1301 C1303 1.327 . S
C1301 H1324 0.950 . S
C1302 C1301 1.349 . S
C1302 C1314 1.349 . S
C1303 C1301 1.327 . S
C1303 C1319 1.429 . S
C1303 H1325 0.950 . S
C1304 H1300 0.949 . S
C1304 C1312 1.574 . S
C1304 C1320 1.368 . S
H1305 C1313 0.950 . S
H1306 C1311 0.950 . S
H1307 C1312 0.949 . S
H1308 C1314 0.950 . S
H1309 C1315 0.950 . S
H1310 C1316 0.949 . S
C1311 H1306 0.950 . S
C1311 C1313 1.327 . S
C1311 C1317 1.429 . S
C1312 C1304 1.574 . S
C1312 H1307 0.949 . S
C1312 C1318 1.368 . S
C1313 C1297 1.349 . S
C1313 H1305 0.950 . S
C1313 C1311 1.327 . S
C1314 C1302 1.349 . S
C1314 H1308 0.950 . S
C1314 C1315 1.327 . S
C1315 H1309 0.950 . S
C1315 C1314 1.327 . S
C1315 C1319 1.429 . S
C1316 C1299 1.574 . S
C1316 H1310 0.949 . S
C1316 C1320 1.368 . S
C1317 C1298 1.429 . S
C1317 C1311 1.429 . S
C1317 C1318 1.523 . S
C1318 C1299 1.368 . S
C1318 C1312 1.368 . S
C1318 C1317 1.523 . S
C1319 C1303 1.429 . S
C1319 C1315 1.429 . S
C1319 C1320 1.523 . S
C1320 C1304 1.368 . S
C1320 C1316 1.368 . S
C1320 C1319 1.523 . S
H1321 C1296 0.950 . S
H1322 C1298 0.950 . S
H1323 C1299 0.949 . S
H1324 C1301 0.950 . S
H1325 C1303 0.950 . S
C1326 C1327 1.349 . S
C1326 C1328 1.327 . S
C1326 H1351 0.950 . S
C1327 C1326 1.349 . S
C1327 C1343 1.349 . S
C1328 C1326 1.327 . S
C1328 C1347 1.429 . S
C1328 H1352 0.950 . S
C1329 C1346 1.574 . S
C1329 C1348 1.368 . S
C1329 H1353 0.949 . S
H1330 C1334 0.949 . S
C1331 C1332 1.349 . S
C1331 C1333 1.327 . S
C1331 H1354 0.950 . S
C1332 C1331 1.349 . S
C1332 C1344 1.349 . S
C1333 C1331 1.327 . S
C1333 C1349 1.429 . S
C1333 H1355 0.950 . S
C1334 H1330 0.949 . S
C1334 C1342 1.574 . S
C1334 C1350 1.368 . S
H1335 C1343 0.950 . S
H1336 C1341 0.950 . S
H1337 C1342 0.949 . S
H1338 C1344 0.950 . S
H1339 C1345 0.950 . S
H1340 C1346 0.949 . S
C1341 H1336 0.950 . S
C1341 C1343 1.327 . S
C1341 C1347 1.429 . S
C1342 C1334 1.574 . S
C1342 H1337 0.949 . S
C1342 C1348 1.368 . S
C1343 C1327 1.349 . S
C1343 H1335 0.950 . S
C1343 C1341 1.327 . S
C1344 C1332 1.349 . S
C1344 H1338 0.950 . S
C1344 C1345 1.327 . S
C1345 H1339 0.950 . S
C1345 C1344 1.327 . S
C1345 C1349 1.429 . S
C1346 C1329 1.574 . S
C1346 H1340 0.949 . S
C1346 C1350 1.368 . S
C1347 C1328 1.429 . S
C1347 C1341 1.429 . S
C1347 C1348 1.523 . S
C1348 C1329 1.368 . S
C1348 C1342 1.368 . S
C1348 C1347 1.523 . S
C1349 C1333 1.429 . S
C1349 C1345 1.429 . S
C1349 C1350 1.523 . S
C1350 C1334 1.368 . S
C1350 C1346 1.368 . S
C1350 C1349 1.523 . S
H1351 C1326 0.950 . S
H1352 C1328 0.950 . S
H1353 C1329 0.949 . S
H1354 C1331 0.950 . S
H1355 C1333 0.950 . S
C1356 C1357 1.349 . S
C1356 C1358 1.327 . S
C1356 H1381 0.950 . S
C1357 C1356 1.349 . S
C1357 C1373 1.349 . S
C1358 C1356 1.327 . S
C1358 C1377 1.429 . S
C1358 H1382 0.950 . S
C1359 C1376 1.574 . S
C1359 C1378 1.368 . S
C1359 H1383 0.949 . S
H1360 C1364 0.949 . S
C1361 C1362 1.349 . S
C1361 C1363 1.327 . S
C1361 H1384 0.950 . S
C1362 C1361 1.349 . S
C1362 C1374 1.349 . S
C1363 C1361 1.327 . S
C1363 C1379 1.429 . S
C1363 H1385 0.950 . S
C1364 H1360 0.949 . S
C1364 C1372 1.574 . S
C1364 C1380 1.368 . S
H1365 C1373 0.950 . S
H1366 C1371 0.950 . S
H1367 C1372 0.949 . S
H1368 C1374 0.950 . S
H1369 C1375 0.950 . S
H1370 C1376 0.949 . S
C1371 H1366 0.950 . S
C1371 C1373 1.327 . S
C1371 C1377 1.429 . S
C1372 C1364 1.574 . S
C1372 H1367 0.949 . S
C1372 C1378 1.368 . S
C1373 C1357 1.349 . S
C1373 H1365 0.950 . S
C1373 C1371 1.327 . S
C1374 C1362 1.349 . S
C1374 H1368 0.950 . S
C1374 C1375 1.327 . S
C1375 H1369 0.950 . S
C1375 C1374 1.327 . S
C1375 C1379 1.429 . S
C1376 C1359 1.574 . S
C1376 H1370 0.949 . S
C1376 C1380 1.368 . S
C1377 C1358 1.429 . S
C1377 C1371 1.429 . S
C1377 C1378 1.523 . S
C1378 C1359 1.368 . S
C1378 C1372 1.368 . S
C1378 C1377 1.523 . S
C1379 C1363 1.429 . S
C1379 C1375 1.429 . S
C1379 C1380 1.523 . S
C1380 C1364 1.368 . S
C1380 C1376 1.368 . S
C1380 C1379 1.523 . S
H1381 C1356 0.950 . S
H1382 C1358 0.950 . S
H1383 C1359 0.949 . S
H1384 C1361 0.950 . S
H1385 C1363 0.950 . S
C1386 C1387 1.349 . S
C1386 C1388 1.327 . S
C1386 H1411 0.950 . S
C1387 C1386 1.349 . S
C1387 C1403 1.349 . S
C1388 C1386 1.327 . S
C1388 C1407 1.429 . S
C1388 H1412 0.950 . S
C1389 C1406 1.574 . S
C1389 C1408 1.368 . S
C1389 H1413 0.949 . S
H1390 C1394 0.949 . S
C1391 C1392 1.349 . S
C1391 C1393 1.327 . S
C1391 H1414 0.950 . S
C1392 C1391 1.349 . S
C1392 C1404 1.349 . S
C1393 C1391 1.327 . S
C1393 C1409 1.429 . S
C1393 H1415 0.950 . S
C1394 H1390 0.949 . S
C1394 C1402 1.574 . S
C1394 C1410 1.368 . S
H1395 C1403 0.950 . S
H1396 C1401 0.950 . S
H1397 C1402 0.949 . S
H1398 C1404 0.950 . S
H1399 C1405 0.950 . S
H1400 C1406 0.949 . S
C1401 H1396 0.950 . S
C1401 C1403 1.327 . S
C1401 C1407 1.429 . S
C1402 C1394 1.574 . S
C1402 H1397 0.949 . S
C1402 C1408 1.368 . S
C1403 C1387 1.349 . S
C1403 H1395 0.950 . S
C1403 C1401 1.327 . S
C1404 C1392 1.349 . S
C1404 H1398 0.950 . S
C1404 C1405 1.327 . S
C1405 H1399 0.950 . S
C1405 C1404 1.327 . S
C1405 C1409 1.429 . S
C1406 C1389 1.574 . S
C1406 H1400 0.949 . S
C1406 C1410 1.368 . S
C1407 C1388 1.429 . S
C1407 C1401 1.429 . S
C1407 C1408 1.523 . S
C1408 C1389 1.368 . S
C1408 C1402 1.368 . S
C1408 C1407 1.523 . S
C1409 C1393 1.429 . S
C1409 C1405 1.429 . S
C1409 C1410 1.523 . S
C1410 C1394 1.368 . S
C1410 C1406 1.368 . S
C1410 C1409 1.523 . S
H1411 C1386 0.950 . S
H1412 C1388 0.950 . S
H1413 C1389 0.949 . S
H1414 C1391 0.950 . S
H1415 C1393 0.950 . S
C1416 C1417 1.349 . S
C1416 C1418 1.327 . S
C1416 H1441 0.950 . S
C1417 C1416 1.349 . S
C1417 C1433 1.349 . S
C1418 C1416 1.327 . S
C1418 C1437 1.429 . S
C1418 H1442 0.950 . S
C1419 C1436 1.574 . S
C1419 C1438 1.368 . S
C1419 H1443 0.949 . S
H1420 C1424 0.949 . S
C1421 C1422 1.349 . S
C1421 C1423 1.327 . S
C1421 H1444 0.950 . S
C1422 C1421 1.349 . S
C1422 C1434 1.349 . S
C1423 C1421 1.327 . S
C1423 C1439 1.429 . S
C1423 H1445 0.950 . S
C1424 H1420 0.949 . S
C1424 C1432 1.574 . S
C1424 C1440 1.368 . S
H1425 C1433 0.950 . S
H1426 C1431 0.950 . S
H1427 C1432 0.949 . S
H1428 C1434 0.950 . S
H1429 C1435 0.950 . S
H1430 C1436 0.949 . S
C1431 H1426 0.950 . S
C1431 C1433 1.327 . S
C1431 C1437 1.429 . S
C1432 C1424 1.574 . S
C1432 H1427 0.949 . S
C1432 C1438 1.368 . S
C1433 C1417 1.349 . S
C1433 H1425 0.950 . S
C1433 C1431 1.327 . S
C1434 C1422 1.349 . S
C1434 H1428 0.950 . S
C1434 C1435 1.327 . S
C1435 H1429 0.950 . S
C1435 C1434 1.327 . S
C1435 C1439 1.429 . S
C1436 C1419 1.574 . S
C1436 H1430 0.949 . S
C1436 C1440 1.368 . S
C1437 C1418 1.429 . S
C1437 C1431 1.429 . S
C1437 C1438 1.523 . S
C1438 C1419 1.368 . S
C1438 C1432 1.368 . S
C1438 C1437 1.523 . S
C1439 C1423 1.429 . S
C1439 C1435 1.429 . S
C1439 C1440 1.523 . S
C1440 C1424 1.368 . S
C1440 C1436 1.368 . S
C1440 C1439 1.523 . S
H1441 C1416 0.950 . S
H1442 C1418 0.950 . S
H1443 C1419 0.949 . S
H1444 C1421 0.950 . S
H1445 C1423 0.950 . S
C1446 C1447 1.349 . S
C1446 C1448 1.327 . S
C1446 H1471 0.950 . S
C1447 C1446 1.349 . S
C1447 C1463 1.349 . S
C1448 C1446 1.327 . S
C1448 C1467 1.429 . S
C1448 H1472 0.950 . S
C1449 C1466 1.574 . S
C1449 C1468 1.368 . S
C1449 H1473 0.949 . S
H1450 C1454 0.949 . S
C1451 C1452 1.349 . S
C1451 C1453 1.327 . S
C1451 H1474 0.950 . S
C1452 C1451 1.349 . S
C1452 C1464 1.349 . S
C1453 C1451 1.327 . S
C1453 C1469 1.429 . S
C1453 H1475 0.950 . S
C1454 H1450 0.949 . S
C1454 C1462 1.574 . S
C1454 C1470 1.368 . S
H1455 C1463 0.950 . S
H1456 C1461 0.950 . S
H1457 C1462 0.949 . S
H1458 C1464 0.950 . S
H1459 C1465 0.950 . S
H1460 C1466 0.949 . S
C1461 H1456 0.950 . S
C1461 C1463 1.327 . S
C1461 C1467 1.429 . S
C1462 C1454 1.574 . S
C1462 H1457 0.949 . S
C1462 C1468 1.368 . S
C1463 C1447 1.349 . S
C1463 H1455 0.950 . S
C1463 C1461 1.327 . S
C1464 C1452 1.349 . S
C1464 H1458 0.950 . S
C1464 C1465 1.327 . S
C1465 H1459 0.950 . S
C1465 C1464 1.327 . S
C1465 C1469 1.429 . S
C1466 C1449 1.574 . S
C1466 H1460 0.949 . S
C1466 C1470 1.368 . S
C1467 C1448 1.429 . S
C1467 C1461 1.429 . S
C1467 C1468 1.523 . S
C1468 C1449 1.368 . S
C1468 C1462 1.368 . S
C1468 C1467 1.523 . S
C1469 C1453 1.429 . S
C1469 C1465 1.429 . S
C1469 C1470 1.523 . S
C1470 C1454 1.368 . S
C1470 C1466 1.368 . S
C1470 C1469 1.523 . S
H1471 C1446 0.950 . S
H1472 C1448 0.950 . S
H1473 C1449 0.949 . S
H1474 C1451 0.950 . S
H1475 C1453 0.950 . S
C1476 C1477 1.349 . S
C1476 C1478 1.327 . S
C1476 H1501 0.950 . S
C1477 C1476 1.349 . S
C1477 C1493 1.349 . S
C1478 C1476 1.327 . S
C1478 C1497 1.429 . S
C1478 H1502 0.950 . S
C1479 C1496 1.574 . S
C1479 C1498 1.368 . S
C1479 H1503 0.949 . S
H1480 C1484 0.949 . S
C1481 C1482 1.349 . S
C1481 C1483 1.327 . S
C1481 H1504 0.950 . S
C1482 C1481 1.349 . S
C1482 C1494 1.349 . S
C1483 C1481 1.327 . S
C1483 C1499 1.429 . S
C1483 H1505 0.950 . S
C1484 H1480 0.949 . S
C1484 C1492 1.574 . S
C1484 C1500 1.368 . S
H1485 C1493 0.950 . S
H1486 C1491 0.950 . S
H1487 C1492 0.949 . S
H1488 C1494 0.950 . S
H1489 C1495 0.950 . S
H1490 C1496 0.949 . S
C1491 H1486 0.950 . S
C1491 C1493 1.327 . S
C1491 C1497 1.429 . S
C1492 C1484 1.574 . S
C1492 H1487 0.949 . S
C1492 C1498 1.368 . S
C1493 C1477 1.349 . S
C1493 H1485 0.950 . S
C1493 C1491 1.327 . S
C1494 C1482 1.349 . S
C1494 H1488 0.950 . S
C1494 C1495 1.327 . S
C1495 H1489 0.950 . S
C1495 C1494 1.327 . S
C1495 C1499 1.429 . S
C1496 C1479 1.574 . S
C1496 H1490 0.949 . S
C1496 C1500 1.368 . S
C1497 C1478 1.429 . S
C1497 C1491 1.429 . S
C1497 C1498 1.523 . S
C1498 C1479 1.368 . S
C1498 C1492 1.368 . S
C1498 C1497 1.523 . S
C1499 C1483 1.429 . S
C1499 C1495 1.429 . S
C1499 C1500 1.523 . S
C1500 C1484 1.368 . S
C1500 C1496 1.368 . S
C1500 C1499 1.523 . S
H1501 C1476 0.950 . S
H1502 C1478 0.950 . S
H1503 C1479 0.949 . S
H1504 C1481 0.950 . S
H1505 C1483 0.950 . S
C1506 C1507 1.349 . S
C1506 C1508 1.327 . S
C1506 H1531 0.950 . S
C1507 C1506 1.349 . S
C1507 C1523 1.349 . S
C1508 C1506 1.327 . S
C1508 C1527 1.429 . S
C1508 H1532 0.950 . S
C1509 C1526 1.574 . S
C1509 C1528 1.368 . S
C1509 H1533 0.949 . S
H1510 C1514 0.949 . S
C1511 C1512 1.349 . S
C1511 C1513 1.327 . S
C1511 H1534 0.950 . S
C1512 C1511 1.349 . S
C1512 C1524 1.349 . S
C1513 C1511 1.327 . S
C1513 C1529 1.429 . S
C1513 H1535 0.950 . S
C1514 H1510 0.949 . S
C1514 C1522 1.574 . S
C1514 C1530 1.368 . S
H1515 C1523 0.950 . S
H1516 C1521 0.950 . S
H1517 C1522 0.949 . S
H1518 C1524 0.950 . S
H1519 C1525 0.950 . S
H1520 C1526 0.949 . S
C1521 H1516 0.950 . S
C1521 C1523 1.327 . S
C1521 C1527 1.429 . S
C1522 C1514 1.574 . S
C1522 H1517 0.949 . S
C1522 C1528 1.368 . S
C1523 C1507 1.349 . S
C1523 H1515 0.950 . S
C1523 C1521 1.327 . S
C1524 C1512 1.349 . S
C1524 H1518 0.950 . S
C1524 C1525 1.327 . S
C1525 H1519 0.950 . S
C1525 C1524 1.327 . S
C1525 C1529 1.429 . S
C1526 C1509 1.574 . S
C1526 H1520 0.949 . S
C1526 C1530 1.368 . S
C1527 C1508 1.429 . S
C1527 C1521 1.429 . S
C1527 C1528 1.523 . S
C1528 C1509 1.368 . S
C1528 C1522 1.368 . S
C1528 C1527 1.523 . S
C1529 C1513 1.429 . S
C1529 C1525 1.429 . S
C1529 C1530 1.523 . S
C1530 C1514 1.368 . S
C1530 C1526 1.368 . S
C1530 C1529 1.523 . S
H1531 C1506 0.950 . S
H1532 C1508 0.950 . S
H1533 C1509 0.949 . S
H1534 C1511 0.950 . S
H1535 C1513 0.950 . S
C1536 C1537 1.349 . S
C1536 C1538 1.327 . S
C1536 H1561 0.950 . S
C1537 C1536 1.349 . S
C1537 C1553 1.349 . S
C1538 C1536 1.327 . S
C1538 C1557 1.429 . S
C1538 H1562 0.950 . S
C1539 C1556 1.574 . S
C1539 C1558 1.368 . S
C1539 H1563 0.949 . S
H1540 C1544 0.949 . S
C1541 C1542 1.349 . S
C1541 C1543 1.327 . S
C1541 H1564 0.950 . S
C1542 C1541 1.349 . S
C1542 C1554 1.349 . S
C1543 C1541 1.327 . S
C1543 C1559 1.429 . S
C1543 H1565 0.950 . S
C1544 H1540 0.949 . S
C1544 C1552 1.574 . S
C1544 C1560 1.368 . S
H1545 C1553 0.950 . S
H1546 C1551 0.950 . S
H1547 C1552 0.949 . S
H1548 C1554 0.950 . S
H1549 C1555 0.950 . S
H1550 C1556 0.949 . S
C1551 H1546 0.950 . S
C1551 C1553 1.327 . S
C1551 C1557 1.429 . S
C1552 C1544 1.574 . S
C1552 H1547 0.949 . S
C1552 C1558 1.368 . S
C1553 C1537 1.349 . S
C1553 H1545 0.950 . S
C1553 C1551 1.327 . S
C1554 C1542 1.349 . S
C1554 H1548 0.950 . S
C1554 C1555 1.327 . S
C1555 H1549 0.950 . S
C1555 C1554 1.327 . S
C1555 C1559 1.429 . S
C1556 C1539 1.574 . S
C1556 H1550 0.949 . S
C1556 C1560 1.368 . S
C1557 C1538 1.429 . S
C1557 C1551 1.429 . S
C1557 C1558 1.523 . S
C1558 C1539 1.368 . S
C1558 C1552 1.368 . S
C1558 C1557 1.523 . S
C1559 C1543 1.429 . S
C1559 C1555 1.429 . S
C1559 C1560 1.523 . S
C1560 C1544 1.368 . S
C1560 C1556 1.368 . S
C1560 C1559 1.523 . S
H1561 C1536 0.950 . S
H1562 C1538 0.950 . S
H1563 C1539 0.949 . S
H1564 C1541 0.950 . S
H1565 C1543 0.950 . S
C1566 C1567 1.349 . S
C1566 C1568 1.327 . S
C1566 H1591 0.950 . S
C1567 C1566 1.349 . S
C1567 C1583 1.349 . S
C1568 C1566 1.327 . S
C1568 C1587 1.429 . S
C1568 H1592 0.950 . S
C1569 C1586 1.574 . S
C1569 C1588 1.368 . S
C1569 H1593 0.949 . S
H1570 C1574 0.949 . S
C1571 C1572 1.349 . S
C1571 C1573 1.327 . S
C1571 H1594 0.950 . S
C1572 C1571 1.349 . S
C1572 C1584 1.349 . S
C1573 C1571 1.327 . S
C1573 C1589 1.429 . S
C1573 H1595 0.950 . S
C1574 H1570 0.949 . S
C1574 C1582 1.574 . S
C1574 C1590 1.368 . S
H1575 C1583 0.950 . S
H1576 C1581 0.950 . S
H1577 C1582 0.949 . S
H1578 C1584 0.950 . S
H1579 C1585 0.950 . S
H1580 C1586 0.949 . S
C1581 H1576 0.950 . S
C1581 C1583 1.327 . S
C1581 C1587 1.429 . S
C1582 C1574 1.574 . S
C1582 H1577 0.949 . S
C1582 C1588 1.368 . S
C1583 C1567 1.349 . S
C1583 H1575 0.950 . S
C1583 C1581 1.327 . S
C1584 C1572 1.349 . S
C1584 H1578 0.950 . S
C1584 C1585 1.327 . S
C1585 H1579 0.950 . S
C1585 C1584 1.327 . S
C1585 C1589 1.429 . S
C1586 C1569 1.574 . S
C1586 H1580 0.949 . S
C1586 C1590 1.368 . S
C1587 C1568 1.429 . S
C1587 C1581 1.429 . S
C1587 C1588 1.523 . S
C1588 C1569 1.368 . S
C1588 C1582 1.368 . S
C1588 C1587 1.523 . S
C1589 C1573 1.429 . S
C1589 C1585 1.429 . S
C1589 C1590 1.523 . S
C1590 C1574 1.368 . S
C1590 C1586 1.368 . S
C1590 C1589 1.523 . S
H1591 C1566 0.950 . S
H1592 C1568 0.950 . S
H1593 C1569 0.949 . S
H1594 C1571 0.950 . S
H1595 C1573 0.950 . S
C1596 C1597 1.349 . S
C1596 C1598 1.327 . S
C1596 H1621 0.950 . S
C1597 C1596 1.349 . S
C1597 C1613 1.349 . S
C1598 C1596 1.327 . S
C1598 C1617 1.429 . S
C1598 H1622 0.950 . S
C1599 C1616 1.574 . S
C1599 C1618 1.368 . S
C1599 H1623 0.949 . S
H1600 C1604 0.949 . S
C1601 C1602 1.349 . S
C1601 C1603 1.327 . S
C1601 H1624 0.950 . S
C1602 C1601 1.349 . S
C1602 C1614 1.349 . S
C1603 C1601 1.327 . S
C1603 C1619 1.429 . S
C1603 H1625 0.950 . S
C1604 H1600 0.949 . S
C1604 C1612 1.574 . S
C1604 C1620 1.368 . S
H1605 C1613 0.950 . S
H1606 C1611 0.950 . S
H1607 C1612 0.949 . S
H1608 C1614 0.950 . S
H1609 C1615 0.950 . S
H1610 C1616 0.949 . S
C1611 H1606 0.950 . S
C1611 C1613 1.327 . S
C1611 C1617 1.429 . S
C1612 C1604 1.574 . S
C1612 H1607 0.949 . S
C1612 C1618 1.368 . S
C1613 C1597 1.349 . S
C1613 H1605 0.950 . S
C1613 C1611 1.327 . S
C1614 C1602 1.349 . S
C1614 H1608 0.950 . S
C1614 C1615 1.327 . S
C1615 H1609 0.950 . S
C1615 C1614 1.327 . S
C1615 C1619 1.429 . S
C1616 C1599 1.574 . S
C1616 H1610 0.949 . S
C1616 C1620 1.368 . S
C1617 C1598 1.429 . S
C1617 C1611 1.429 . S
C1617 C1618 1.523 . S
C1618 C1599 1.368 . S
C1618 C1612 1.368 . S
C1618 C1617 1.523 . S
C1619 C1603 1.429 . S
C1619 C1615 1.429 . S
C1619 C1620 1.523 . S
C1620 C1604 1.368 . S
C1620 C1616 1.368 . S
C1620 C1619 1.523 . S
H1621 C1596 0.950 . S
H1622 C1598 0.950 . S
H1623 C1599 0.949 . S
H1624 C1601 0.950 . S
H1625 C1603 0.950 . S
C1626 C1627 1.349 . S
C1626 C1628 1.327 . S
C1626 H1651 0.950 . S
C1627 C1626 1.349 . S
C1627 C1643 1.349 . S
C1628 C1626 1.327 . S
C1628 C1647 1.429 . S
C1628 H1652 0.950 . S
C1629 C1646 1.574 . S
C1629 C1648 1.368 . S
C1629 H1653 0.949 . S
H1630 C1634 0.949 . S
C1631 C1632 1.349 . S
C1631 C1633 1.327 . S
C1631 H1654 0.950 . S
C1632 C1631 1.349 . S
C1632 C1644 1.349 . S
C1633 C1631 1.327 . S
C1633 C1649 1.429 . S
C1633 H1655 0.950 . S
C1634 H1630 0.949 . S
C1634 C1642 1.574 . S
C1634 C1650 1.368 . S
H1635 C1643 0.950 . S
H1636 C1641 0.950 . S
H1637 C1642 0.949 . S
H1638 C1644 0.950 . S
H1639 C1645 0.950 . S
H1640 C1646 0.949 . S
C1641 H1636 0.950 . S
C1641 C1643 1.327 . S
C1641 C1647 1.429 . S
C1642 C1634 1.574 . S
C1642 H1637 0.949 . S
C1642 C1648 1.368 . S
C1643 C1627 1.349 . S
C1643 H1635 0.950 . S
C1643 C1641 1.327 . S
C1644 C1632 1.349 . S
C1644 H1638 0.950 . S
C1644 C1645 1.327 . S
C1645 H1639 0.950 . S
C1645 C1644 1.327 . S
C1645 C1649 1.429 . S
C1646 C1629 1.574 . S
C1646 H1640 0.949 . S
C1646 C1650 1.368 . S
C1647 C1628 1.429 . S
C1647 C1641 1.429 . S
C1647 C1648 1.523 . S
C1648 C1629 1.368 . S
C1648 C1642 1.368 . S
C1648 C1647 1.523 . S
C1649 C1633 1.429 . S
C1649 C1645 1.429 . S
C1649 C1650 1.523 . S
C1650 C1634 1.368 . S
C1650 C1646 1.368 . S
C1650 C1649 1.523 . S
H1651 C1626 0.950 . S
H1652 C1628 0.950 . S
H1653 C1629 0.949 . S
H1654 C1631 0.950 . S
H1655 C1633 0.950 . S
C1656 C1657 1.349 . S
C1656 C1658 1.327 . S
C1656 H1681 0.950 . S
C1657 C1656 1.349 . S
C1657 C1673 1.349 . S
C1658 C1656 1.327 . S
C1658 C1677 1.429 . S
C1658 H1682 0.950 . S
C1659 C1676 1.574 . S
C1659 C1678 1.368 . S
C1659 H1683 0.949 . S
H1660 C1664 0.949 . S
C1661 C1662 1.349 . S
C1661 C1663 1.327 . S
C1661 H1684 0.950 . S
C1662 C1661 1.349 . S
C1662 C1674 1.349 . S
C1663 C1661 1.327 . S
C1663 C1679 1.429 . S
C1663 H1685 0.950 . S
C1664 H1660 0.949 . S
C1664 C1672 1.574 . S
C1664 C1680 1.368 . S
H1665 C1673 0.950 . S
H1666 C1671 0.950 . S
H1667 C1672 0.949 . S
H1668 C1674 0.950 . S
H1669 C1675 0.950 . S
H1670 C1676 0.949 . S
C1671 H1666 0.950 . S
C1671 C1673 1.327 . S
C1671 C1677 1.429 . S
C1672 C1664 1.574 . S
C1672 H1667 0.949 . S
C1672 C1678 1.368 . S
C1673 C1657 1.349 . S
C1673 H1665 0.950 . S
C1673 C1671 1.327 . S
C1674 C1662 1.349 . S
C1674 H1668 0.950 . S
C1674 C1675 1.327 . S
C1675 H1669 0.950 . S
C1675 C1674 1.327 . S
C1675 C1679 1.429 . S
C1676 C1659 1.574 . S
C1676 H1670 0.949 . S
C1676 C1680 1.368 . S
C1677 C1658 1.429 . S
C1677 C1671 1.429 . S
C1677 C1678 1.523 . S
C1678 C1659 1.368 . S
C1678 C1672 1.368 . S
C1678 C1677 1.523 . S
C1679 C1663 1.429 . S
C1679 C1675 1.429 . S
C1679 C1680 1.523 . S
C1680 C1664 1.368 . S
C1680 C1676 1.368 . S
C1680 C1679 1.523 . S
H1681 C1656 0.950 . S
H1682 C1658 0.950 . S
H1683 C1659 0.949 . S
H1684 C1661 0.950 . S
H1685 C1663 0.950 . S
C1686 C1687 1.349 . S
C1686 C1688 1.327 . S
C1686 H1711 0.950 . S
C1687 C1686 1.349 . S
C1687 C1703 1.349 . S
C1688 C1686 1.327 . S
C1688 C1707 1.429 . S
C1688 H1712 0.950 . S
C1689 C1706 1.574 . S
C1689 C1708 1.368 . S
C1689 H1713 0.949 . S
H1690 C1694 0.949 . S
C1691 C1692 1.349 . S
C1691 C1693 1.327 . S
C1691 H1714 0.950 . S
C1692 C1691 1.349 . S
C1692 C1704 1.349 . S
C1693 C1691 1.327 . S
C1693 C1709 1.429 . S
C1693 H1715 0.950 . S
C1694 H1690 0.949 . S
C1694 C1702 1.574 . S
C1694 C1710 1.368 . S
H1695 C1703 0.950 . S
H1696 C1701 0.950 . S
H1697 C1702 0.949 . S
H1698 C1704 0.950 . S
H1699 C1705 0.950 . S
H1700 C1706 0.949 . S
C1701 H1696 0.950 . S
C1701 C1703 1.327 . S
C1701 C1707 1.429 . S
C1702 C1694 1.574 . S
C1702 H1697 0.949 . S
C1702 C1708 1.368 . S
C1703 C1687 1.349 . S
C1703 H1695 0.950 . S
C1703 C1701 1.327 . S
C1704 C1692 1.349 . S
C1704 H1698 0.950 . S
C1704 C1705 1.327 . S
C1705 H1699 0.950 . S
C1705 C1704 1.327 . S
C1705 C1709 1.429 . S
C1706 C1689 1.574 . S
C1706 H1700 0.949 . S
C1706 C1710 1.368 . S
C1707 C1688 1.429 . S
C1707 C1701 1.429 . S
C1707 C1708 1.523 . S
C1708 C1689 1.368 . S
C1708 C1702 1.368 . S
C1708 C1707 1.523 . S
C1709 C1693 1.429 . S
C1709 C1705 1.429 . S
C1709 C1710 1.523 . S
C1710 C1694 1.368 . S
C1710 C1706 1.368 . S
C1710 C1709 1.523 . S
H1711 C1686 0.950 . S
H1712 C1688 0.950 . S
H1713 C1689 0.949 . S
H1714 C1691 0.950 . S
H1715 C1693 0.950 . S
C1716 C1717 1.349 . S
C1716 C1718 1.327 . S
C1716 H1741 0.950 . S
C1717 C1716 1.349 . S
C1717 C1733 1.349 . S
C1718 C1716 1.327 . S
C1718 C1737 1.429 . S
C1718 H1742 0.950 . S
C1719 C1736 1.574 . S
C1719 C1738 1.368 . S
C1719 H1743 0.949 . S
H1720 C1724 0.949 . S
C1721 C1722 1.349 . S
C1721 C1723 1.327 . S
C1721 H1744 0.950 . S
C1722 C1721 1.349 . S
C1722 C1734 1.349 . S
C1723 C1721 1.327 . S
C1723 C1739 1.429 . S
C1723 H1745 0.950 . S
C1724 H1720 0.949 . S
C1724 C1732 1.574 . S
C1724 C1740 1.368 . S
H1725 C1733 0.950 . S
H1726 C1731 0.950 . S
H1727 C1732 0.949 . S
H1728 C1734 0.950 . S
H1729 C1735 0.950 . S
H1730 C1736 0.949 . S
C1731 H1726 0.950 . S
C1731 C1733 1.327 . S
C1731 C1737 1.429 . S
C1732 C1724 1.574 . S
C1732 H1727 0.949 . S
C1732 C1738 1.368 . S
C1733 C1717 1.349 . S
C1733 H1725 0.950 . S
C1733 C1731 1.327 . S
C1734 C1722 1.349 . S
C1734 H1728 0.950 . S
C1734 C1735 1.327 . S
C1735 H1729 0.950 . S
C1735 C1734 1.327 . S
C1735 C1739 1.429 . S
C1736 C1719 1.574 . S
C1736 H1730 0.949 . S
C1736 C1740 1.368 . S
C1737 C1718 1.429 . S
C1737 C1731 1.429 . S
C1737 C1738 1.523 . S
C1738 C1719 1.368 . S
C1738 C1732 1.368 . S
C1738 C1737 1.523 . S
C1739 C1723 1.429 . S
C1739 C1735 1.429 . S
C1739 C1740 1.523 . S
C1740 C1724 1.368 . S
C1740 C1736 1.368 . S
C1740 C1739 1.523 . S
H1741 C1716 0.950 . S
H1742 C1718 0.950 . S
H1743 C1719 0.949 . S
H1744 C1721 0.950 . S
H1745 C1723 0.950 . S
C1746 C1747 1.349 . S
C1746 C1748 1.327 . S
C1746 H1771 0.950 . S
C1747 C1746 1.349 . S
C1747 C1763 1.349 . S
C1748 C1746 1.327 . S
C1748 C1767 1.429 . S
C1748 H1772 0.950 . S
C1749 C1766 1.574 . S
C1749 C1768 1.368 . S
C1749 H1773 0.949 . S
H1750 C1754 0.949 . S
C1751 C1752 1.349 . S
C1751 C1753 1.327 . S
C1751 H1774 0.950 . S
C1752 C1751 1.349 . S
C1752 C1764 1.349 . S
C1753 C1751 1.327 . S
C1753 C1769 1.429 . S
C1753 H1775 0.950 . S
C1754 H1750 0.949 . S
C1754 C1762 1.574 . S
C1754 C1770 1.368 . S
H1755 C1763 0.950 1_554 S
H1756 C1761 0.950 . S
H1757 C1762 0.949 . S
H1758 C1764 0.950 . S
H1759 C1765 0.950 . S
H1760 C1766 0.949 . S
C1761 H1756 0.950 . S
C1761 C1763 1.327 . S
C1761 C1767 1.429 . S
C1762 C1754 1.574 . S
C1762 H1757 0.949 . S
C1762 C1768 1.368 . S
C1763 C1747 1.349 . S
C1763 H1755 0.950 1_556 S
C1763 C1761 1.327 . S
C1764 C1752 1.349 . S
C1764 H1758 0.950 . S
C1764 C1765 1.327 . S
C1765 H1759 0.950 . S
C1765 C1764 1.327 . S
C1765 C1769 1.429 . S
C1766 C1749 1.574 . S
C1766 H1760 0.949 . S
C1766 C1770 1.368 . S
C1767 C1748 1.429 . S
C1767 C1761 1.429 . S
C1767 C1768 1.523 . S
C1768 C1749 1.368 . S
C1768 C1762 1.368 . S
C1768 C1767 1.523 . S
C1769 C1753 1.429 . S
C1769 C1765 1.429 . S
C1769 C1770 1.523 . S
C1770 C1754 1.368 . S
C1770 C1766 1.368 . S
C1770 C1769 1.523 . S
H1771 C1746 0.950 . S
H1772 C1748 0.950 . S
H1773 C1749 0.949 . S
H1774 C1751 0.950 . S
H1775 C1753 0.950 . S
C1776 C1777 1.349 . S
C1776 C1778 1.327 . S
C1776 H1801 0.950 . S
C1777 C1776 1.349 . S
C1777 C1793 1.349 . S
C1778 C1776 1.327 . S
C1778 C1797 1.429 . S
C1778 H1802 0.950 . S
C1779 C1796 1.574 . S
C1779 C1798 1.368 . S
C1779 H1803 0.949 . S
H1780 C1784 0.949 . S
C1781 C1782 1.349 . S
C1781 C1783 1.327 . S
C1781 H1804 0.950 . S
C1782 C1781 1.349 . S
C1782 C1794 1.349 . S
C1783 C1781 1.327 . S
C1783 C1799 1.429 . S
C1783 H1805 0.950 . S
C1784 H1780 0.949 . S
C1784 C1792 1.574 . S
C1784 C1800 1.368 . S
H1785 C1793 0.950 1_554 S
H1786 C1791 0.950 . S
H1787 C1792 0.949 . S
H1788 C1794 0.950 . S
H1789 C1795 0.950 . S
H1790 C1796 0.949 . S
C1791 H1786 0.950 . S
C1791 C1793 1.327 . S
C1791 C1797 1.429 . S
C1792 C1784 1.574 . S
C1792 H1787 0.949 . S
C1792 C1798 1.368 . S
C1793 C1777 1.349 . S
C1793 H1785 0.950 1_556 S
C1793 C1791 1.327 . S
C1794 C1782 1.349 . S
C1794 H1788 0.950 . S
C1794 C1795 1.327 . S
C1795 H1789 0.950 . S
C1795 C1794 1.327 . S
C1795 C1799 1.429 . S
C1796 C1779 1.574 . S
C1796 H1790 0.949 . S
C1796 C1800 1.368 . S
C1797 C1778 1.429 . S
C1797 C1791 1.429 . S
C1797 C1798 1.523 . S
C1798 C1779 1.368 . S
C1798 C1792 1.368 . S
C1798 C1797 1.523 . S
C1799 C1783 1.429 . S
C1799 C1795 1.429 . S
C1799 C1800 1.523 . S
C1800 C1784 1.368 . S
C1800 C1796 1.368 . S
C1800 C1799 1.523 . S
H1801 C1776 0.950 . S
H1802 C1778 0.950 . S
H1803 C1779 0.949 . S
H1804 C1781 0.950 . S
H1805 C1783 0.950 . S
C1806 C1807 1.349 . S
C1806 C1808 1.327 . S
C1806 H1831 0.950 . S
C1807 C1806 1.349 . S
C1807 C1823 1.349 . S
C1808 C1806 1.327 . S
C1808 C1827 1.429 . S
C1808 H1832 0.950 . S
C1809 C1826 1.574 . S
C1809 C1828 1.368 . S
C1809 H1833 0.949 . S
H1810 C1814 0.949 . S
C1811 C1812 1.349 . S
C1811 C1813 1.327 . S
C1811 H1834 0.950 . S
C1812 C1811 1.349 . S
C1812 C1824 1.349 . S
C1813 C1811 1.327 . S
C1813 C1829 1.429 . S
C1813 H1835 0.950 . S
C1814 H1810 0.949 . S
C1814 C1822 1.574 . S
C1814 C1830 1.368 . S
H1815 C1823 0.950 1_554 S
H1816 C1821 0.950 . S
H1817 C1822 0.949 . S
H1818 C1824 0.950 . S
H1819 C1825 0.950 . S
H1820 C1826 0.949 . S
C1821 H1816 0.950 . S
C1821 C1823 1.327 . S
C1821 C1827 1.429 . S
C1822 C1814 1.574 . S
C1822 H1817 0.949 . S
C1822 C1828 1.368 . S
C1823 C1807 1.349 . S
C1823 H1815 0.950 1_556 S
C1823 C1821 1.327 . S
C1824 C1812 1.349 . S
C1824 H1818 0.950 . S
C1824 C1825 1.327 . S
C1825 H1819 0.950 . S
C1825 C1824 1.327 . S
C1825 C1829 1.429 . S
C1826 C1809 1.574 . S
C1826 H1820 0.949 . S
C1826 C1830 1.368 . S
C1827 C1808 1.429 . S
C1827 C1821 1.429 . S
C1827 C1828 1.523 . S
C1828 C1809 1.368 . S
C1828 C1822 1.368 . S
C1828 C1827 1.523 . S
C1829 C1813 1.429 . S
C1829 C1825 1.429 . S
C1829 C1830 1.523 . S
C1830 C1814 1.368 . S
C1830 C1826 1.368 . S
C1830 C1829 1.523 . S
H1831 C1806 0.950 . S
H1832 C1808 0.950 . S
H1833 C1809 0.949 . S
H1834 C1811 0.950 . S
H1835 C1813 0.950 . S
C1836 C1837 1.349 . S
C1836 C1838 1.327 . S
C1836 H1861 0.950 . S
C1837 C1836 1.349 . S
C1837 C1853 1.349 . S
C1838 C1836 1.327 . S
C1838 C1857 1.429 . S
C1838 H1862 0.950 . S
C1839 C1856 1.574 . S
C1839 C1858 1.368 . S
C1839 H1863 0.949 . S
H1840 C1844 0.949 . S
C1841 C1842 1.349 . S
C1841 C1843 1.327 . S
C1841 H1864 0.950 . S
C1842 C1841 1.349 . S
C1842 C1854 1.349 . S
C1843 C1841 1.327 . S
C1843 C1859 1.429 . S
C1843 H1865 0.950 . S
C1844 H1840 0.949 . S
C1844 C1852 1.574 . S
C1844 C1860 1.368 . S
H1845 C1853 0.950 1_554 S
H1846 C1851 0.950 . S
H1847 C1852 0.949 . S
H1848 C1854 0.950 . S
H1849 C1855 0.950 . S
H1850 C1856 0.949 . S
C1851 H1846 0.950 . S
C1851 C1853 1.327 . S
C1851 C1857 1.429 . S
C1852 C1844 1.574 . S
C1852 H1847 0.949 . S
C1852 C1858 1.368 . S
C1853 C1837 1.349 . S
C1853 H1845 0.950 1_556 S
C1853 C1851 1.327 . S
C1854 C1842 1.349 . S
C1854 H1848 0.950 . S
C1854 C1855 1.327 . S
C1855 H1849 0.950 . S
C1855 C1854 1.327 . S
C1855 C1859 1.429 . S
C1856 C1839 1.574 . S
C1856 H1850 0.949 . S
C1856 C1860 1.368 . S
C1857 C1838 1.429 . S
C1857 C1851 1.429 . S
C1857 C1858 1.523 . S
C1858 C1839 1.368 . S
C1858 C1852 1.368 . S
C1858 C1857 1.523 . S
C1859 C1843 1.429 . S
C1859 C1855 1.429 . S
C1859 C1860 1.523 . S
C1860 C1844 1.368 . S
C1860 C1856 1.368 . S
C1860 C1859 1.523 . S
H1861 C1836 0.950 . S
H1862 C1838 0.950 . S
H1863 C1839 0.949 . S
H1864 C1841 0.950 . S
H1865 C1843 0.950 . S
C1866 C1867 1.349 . S
C1866 C1868 1.327 . S
C1866 H1891 0.950 . S
C1867 C1866 1.349 . S
C1867 C1883 1.349 . S
C1868 C1866 1.327 . S
C1868 C1887 1.429 . S
C1868 H1892 0.950 . S
C1869 C1886 1.574 . S
C1869 C1888 1.368 . S
C1869 H1893 0.949 . S
H1870 C1874 0.949 . S
C1871 C1872 1.349 . S
C1871 C1873 1.327 . S
C1871 H1894 0.950 . S
C1872 C1871 1.349 . S
C1872 C1884 1.349 . S
C1873 C1871 1.327 . S
C1873 C1889 1.429 . S
C1873 H1895 0.950 . S
C1874 H1870 0.949 . S
C1874 C1882 1.574 . S
C1874 C1890 1.368 . S
H1875 C1883 0.950 . S
H1876 C1881 0.950 . S
H1877 C1882 0.949 . S
H1878 C1884 0.950 . S
H1879 C1885 0.950 . S
H1880 C1886 0.949 . S
C1881 H1876 0.950 . S
C1881 C1883 1.327 . S
C1881 C1887 1.429 . S
C1882 C1874 1.574 . S
C1882 H1877 0.949 . S
C1882 C1888 1.368 . S
C1883 C1867 1.349 . S
C1883 H1875 0.950 . S
C1883 C1881 1.327 . S
C1884 C1872 1.349 . S
C1884 H1878 0.950 . S
C1884 C1885 1.327 . S
C1885 H1879 0.950 . S
C1885 C1884 1.327 . S
C1885 C1889 1.429 . S
C1886 C1869 1.574 . S
C1886 H1880 0.949 . S
C1886 C1890 1.368 . S
C1887 C1868 1.429 . S
C1887 C1881 1.429 . S
C1887 C1888 1.523 . S
C1888 C1869 1.368 . S
C1888 C1882 1.368 . S
C1888 C1887 1.523 . S
C1889 C1873 1.429 . S
C1889 C1885 1.429 . S
C1889 C1890 1.523 . S
C1890 C1874 1.368 . S
C1890 C1886 1.368 . S
C1890 C1889 1.523 . S
H1891 C1866 0.950 . S
H1892 C1868 0.950 . S
H1893 C1869 0.949 . S
H1894 C1871 0.950 . S
H1895 C1873 0.950 . S
C1896 C1897 1.349 . S
C1896 C1898 1.327 . S
C1896 H1921 0.950 1_556 S
C1897 C1896 1.349 . S
C1897 C1913 1.349 . S
C1898 C1896 1.327 . S
C1898 C1917 1.429 . S
C1898 H1922 0.950 . S
C1899 C1916 1.574 . S
C1899 C1918 1.368 . S
C1899 H1923 0.949 . S
H1900 C1904 0.949 . S
C1901 C1902 1.349 . S
C1901 C1903 1.327 . S
C1901 H1924 0.950 . S
C1902 C1901 1.349 . S
C1902 C1914 1.349 . S
C1903 C1901 1.327 . S
C1903 C1919 1.429 . S
C1903 H1925 0.950 . S
C1904 H1900 0.949 . S
C1904 C1912 1.574 . S
C1904 C1920 1.368 . S
H1905 C1913 0.950 . S
H1906 C1911 0.950 . S
H1907 C1912 0.949 . S
H1908 C1914 0.950 . S
H1909 C1915 0.950 . S
H1910 C1916 0.949 . S
C1911 H1906 0.950 . S
C1911 C1913 1.327 . S
C1911 C1917 1.429 . S
C1912 C1904 1.574 . S
C1912 H1907 0.949 . S
C1912 C1918 1.368 . S
C1913 C1897 1.349 . S
C1913 H1905 0.950 . S
C1913 C1911 1.327 . S
C1914 C1902 1.349 . S
C1914 H1908 0.950 . S
C1914 C1915 1.327 . S
C1915 H1909 0.950 . S
C1915 C1914 1.327 . S
C1915 C1919 1.429 . S
C1916 C1899 1.574 . S
C1916 H1910 0.949 . S
C1916 C1920 1.368 . S
C1917 C1898 1.429 . S
C1917 C1911 1.429 . S
C1917 C1918 1.523 . S
C1918 C1899 1.368 . S
C1918 C1912 1.368 . S
C1918 C1917 1.523 . S
C1919 C1903 1.429 . S
C1919 C1915 1.429 . S
C1919 C1920 1.523 . S
C1920 C1904 1.368 . S
C1920 C1916 1.368 . S
C1920 C1919 1.523 . S
H1921 C1896 0.950 1_554 S
H1922 C1898 0.950 . S
H1923 C1899 0.949 . S
H1924 C1901 0.950 . S
H1925 C1903 0.950 . S
C1926 C1927 1.349 . S
C1926 C1928 1.327 . S
C1926 H1951 0.950 . S
C1927 C1926 1.349 . S
C1927 C1943 1.349 . S
C1928 C1926 1.327 . S
C1928 C1947 1.429 . S
C1928 H1952 0.950 . S
C1929 C1946 1.574 . S
C1929 C1948 1.368 . S
C1929 H1953 0.949 . S
H1930 C1934 0.949 . S
C1931 C1932 1.349 . S
C1931 C1933 1.327 . S
C1931 H1954 0.950 . S
C1932 C1931 1.349 . S
C1932 C1944 1.349 . S
C1933 C1931 1.327 . S
C1933 C1949 1.429 . S
C1933 H1955 0.950 . S
C1934 H1930 0.949 . S
C1934 C1942 1.574 . S
C1934 C1950 1.368 . S
H1935 C1943 0.950 . S
H1936 C1941 0.950 . S
H1937 C1942 0.949 . S
H1938 C1944 0.950 . S
H1939 C1945 0.950 . S
H1940 C1946 0.949 . S
C1941 H1936 0.950 . S
C1941 C1943 1.327 . S
C1941 C1947 1.429 . S
C1942 C1934 1.574 . S
C1942 H1937 0.949 . S
C1942 C1948 1.368 . S
C1943 C1927 1.349 . S
C1943 H1935 0.950 . S
C1943 C1941 1.327 . S
C1944 C1932 1.349 . S
C1944 H1938 0.950 . S
C1944 C1945 1.327 . S
C1945 H1939 0.950 . S
C1945 C1944 1.327 . S
C1945 C1949 1.429 . S
C1946 C1929 1.574 . S
C1946 H1940 0.949 . S
C1946 C1950 1.368 . S
C1947 C1928 1.429 . S
C1947 C1941 1.429 . S
C1947 C1948 1.523 . S
C1948 C1929 1.368 . S
C1948 C1942 1.368 . S
C1948 C1947 1.523 . S
C1949 C1933 1.429 . S
C1949 C1945 1.429 . S
C1949 C1950 1.523 . S
C1950 C1934 1.368 . S
C1950 C1946 1.368 . S
C1950 C1949 1.523 . S
H1951 C1926 0.950 . S
H1952 C1928 0.950 . S
H1953 C1929 0.949 . S
H1954 C1931 0.950 . S
H1955 C1933 0.950 . S
C1956 C1957 1.349 . S
C1956 C1958 1.327 . S
C1956 H1981 0.950 . S
C1957 C1956 1.349 . S
C1957 C1973 1.349 . S
C1958 C1956 1.327 . S
C1958 C1977 1.429 . S
C1958 H1982 0.950 . S
C1959 C1976 1.574 . S
C1959 C1978 1.368 . S
C1959 H1983 0.949 . S
H1960 C1964 0.949 . S
C1961 C1962 1.349 . S
C1961 C1963 1.327 . S
C1961 H1984 0.950 . S
C1962 C1961 1.349 . S
C1962 C1974 1.349 . S
C1963 C1961 1.327 . S
C1963 C1979 1.429 . S
C1963 H1985 0.950 . S
C1964 H1960 0.949 . S
C1964 C1972 1.574 . S
C1964 C1980 1.368 . S
H1965 C1973 0.950 . S
H1966 C1971 0.950 . S
H1967 C1972 0.949 . S
H1968 C1974 0.950 . S
H1969 C1975 0.950 . S
H1970 C1976 0.949 . S
C1971 H1966 0.950 . S
C1971 C1973 1.327 . S
C1971 C1977 1.429 . S
C1972 C1964 1.574 . S
C1972 H1967 0.949 . S
C1972 C1978 1.368 . S
C1973 C1957 1.349 . S
C1973 H1965 0.950 . S
C1973 C1971 1.327 . S
C1974 C1962 1.349 . S
C1974 H1968 0.950 . S
C1974 C1975 1.327 . S
C1975 H1969 0.950 . S
C1975 C1974 1.327 . S
C1975 C1979 1.429 . S
C1976 C1959 1.574 . S
C1976 H1970 0.949 . S
C1976 C1980 1.368 . S
C1977 C1958 1.429 . S
C1977 C1971 1.429 . S
C1977 C1978 1.523 . S
C1978 C1959 1.368 . S
C1978 C1972 1.368 . S
C1978 C1977 1.523 . S
C1979 C1963 1.429 . S
C1979 C1975 1.429 . S
C1979 C1980 1.523 . S
C1980 C1964 1.368 . S
C1980 C1976 1.368 . S
C1980 C1979 1.523 . S
H1981 C1956 0.950 . S
H1982 C1958 0.950 . S
H1983 C1959 0.949 . S
H1984 C1961 0.950 . S
H1985 C1963 0.950 . S
C1986 C1987 1.349 . S
C1986 C1988 1.327 . S
C1986 H2011 0.950 . S
C1987 C1986 1.349 . S
C1987 C2003 1.349 . S
C1988 C1986 1.327 . S
C1988 C2007 1.429 . S
C1988 H2012 0.950 . S
C1989 C2006 1.574 . S
C1989 C2008 1.368 . S
C1989 H2013 0.949 . S
H1990 C1994 0.949 . S
C1991 C1992 1.349 . S
C1991 C1993 1.327 . S
C1991 H2014 0.950 . S
C1992 C1991 1.349 . S
C1992 C2004 1.349 . S
C1993 C1991 1.327 . S
C1993 C2009 1.429 . S
C1993 H2015 0.950 . S
C1994 H1990 0.949 . S
C1994 C2002 1.574 . S
C1994 C2010 1.368 . S
H1995 C2003 0.950 . S
H1996 C2001 0.950 . S
H1997 C2002 0.949 . S
H1998 C2004 0.950 . S
H1999 C2005 0.950 . S
H2000 C2006 0.949 . S
C2001 H1996 0.950 . S
C2001 C2003 1.327 . S
C2001 C2007 1.429 . S
C2002 C1994 1.574 . S
C2002 H1997 0.949 . S
C2002 C2008 1.368 . S
C2003 C1987 1.349 . S
C2003 H1995 0.950 . S
C2003 C2001 1.327 . S
C2004 C1992 1.349 . S
C2004 H1998 0.950 . S
C2004 C2005 1.327 . S
C2005 H1999 0.950 . S
C2005 C2004 1.327 . S
C2005 C2009 1.429 . S
C2006 C1989 1.574 . S
C2006 H2000 0.949 . S
C2006 C2010 1.368 . S
C2007 C1988 1.429 . S
C2007 C2001 1.429 . S
C2007 C2008 1.523 . S
C2008 C1989 1.368 . S
C2008 C2002 1.368 . S
C2008 C2007 1.523 . S
C2009 C1993 1.429 . S
C2009 C2005 1.429 . S
C2009 C2010 1.523 . S
C2010 C1994 1.368 . S
C2010 C2006 1.368 . S
C2010 C2009 1.523 . S
H2011 C1986 0.950 . S
H2012 C1988 0.950 . S
H2013 C1989 0.949 . S
H2014 C1991 0.950 . S
H2015 C1993 0.950 . S
C2016 C2017 1.349 . S
C2016 C2018 1.327 . S
C2016 H2041 0.950 . S
C2017 C2016 1.349 . S
C2017 C2033 1.349 . S
C2018 C2016 1.327 . S
C2018 C2037 1.429 . S
C2018 H2042 0.950 . S
C2019 C2036 1.574 . S
C2019 C2038 1.368 . S
C2019 H2043 0.949 . S
H2020 C2024 0.949 . S
C2021 C2022 1.349 . S
C2021 C2023 1.327 . S
C2021 H2044 0.950 . S
C2022 C2021 1.349 . S
C2022 C2034 1.349 . S
C2023 C2021 1.327 . S
C2023 C2039 1.429 . S
C2023 H2045 0.950 . S
C2024 H2020 0.949 . S
C2024 C2032 1.574 . S
C2024 C2040 1.368 . S
H2025 C2033 0.950 . S
H2026 C2031 0.950 . S
H2027 C2032 0.949 . S
H2028 C2034 0.950 . S
H2029 C2035 0.950 . S
H2030 C2036 0.949 . S
C2031 H2026 0.950 . S
C2031 C2033 1.327 . S
C2031 C2037 1.429 . S
C2032 C2024 1.574 . S
C2032 H2027 0.949 . S
C2032 C2038 1.368 . S
C2033 C2017 1.349 . S
C2033 H2025 0.950 . S
C2033 C2031 1.327 . S
C2034 C2022 1.349 . S
C2034 H2028 0.950 . S
C2034 C2035 1.327 . S
C2035 H2029 0.950 . S
C2035 C2034 1.327 . S
C2035 C2039 1.429 . S
C2036 C2019 1.574 . S
C2036 H2030 0.949 . S
C2036 C2040 1.368 . S
C2037 C2018 1.429 . S
C2037 C2031 1.429 . S
C2037 C2038 1.523 . S
C2038 C2019 1.368 . S
C2038 C2032 1.368 . S
C2038 C2037 1.523 . S
C2039 C2023 1.429 . S
C2039 C2035 1.429 . S
C2039 C2040 1.523 . S
C2040 C2024 1.368 . S
C2040 C2036 1.368 . S
C2040 C2039 1.523 . S
H2041 C2016 0.950 . S
H2042 C2018 0.950 . S
H2043 C2019 0.949 . S
H2044 C2021 0.950 . S
H2045 C2023 0.950 . S
C2046 C2047 1.349 . S
C2046 C2048 1.327 . S
C2046 H2071 0.950 . S
C2047 C2046 1.349 . S
C2047 C2063 1.349 . S
C2048 C2046 1.327 . S
C2048 C2067 1.429 . S
C2048 H2072 0.950 . S
C2049 C2066 1.574 . S
C2049 C2068 1.368 . S
C2049 H2073 0.949 . S
H2050 C2054 0.949 . S
C2051 C2052 1.349 . S
C2051 C2053 1.327 . S
C2051 H2074 0.950 . S
C2052 C2051 1.349 . S
C2052 C2064 1.349 . S
C2053 C2051 1.327 . S
C2053 C2069 1.429 . S
C2053 H2075 0.950 . S
C2054 H2050 0.949 . S
C2054 C2062 1.574 . S
C2054 C2070 1.368 . S
H2055 C2063 0.950 . S
H2056 C2061 0.950 . S
H2057 C2062 0.949 . S
H2058 C2064 0.950 . S
H2059 C2065 0.950 . S
H2060 C2066 0.949 . S
C2061 H2056 0.950 . S
C2061 C2063 1.327 . S
C2061 C2067 1.429 . S
C2062 C2054 1.574 . S
C2062 H2057 0.949 . S
C2062 C2068 1.368 . S
C2063 C2047 1.349 . S
C2063 H2055 0.950 . S
C2063 C2061 1.327 . S
C2064 C2052 1.349 . S
C2064 H2058 0.950 . S
C2064 C2065 1.327 . S
C2065 H2059 0.950 . S
C2065 C2064 1.327 . S
C2065 C2069 1.429 . S
C2066 C2049 1.574 . S
C2066 H2060 0.949 . S
C2066 C2070 1.368 . S
C2067 C2048 1.429 . S
C2067 C2061 1.429 . S
C2067 C2068 1.523 . S
C2068 C2049 1.368 . S
C2068 C2062 1.368 . S
C2068 C2067 1.523 . S
C2069 C2053 1.429 . S
C2069 C2065 1.429 . S
C2069 C2070 1.523 . S
C2070 C2054 1.368 . S
C2070 C2066 1.368 . S
C2070 C2069 1.523 . S
H2071 C2046 0.950 . S
H2072 C2048 0.950 . S
H2073 C2049 0.949 . S
H2074 C2051 0.950 . S
H2075 C2053 0.950 . S
C2076 C2077 1.349 . S
C2076 C2078 1.327 . S
C2076 H2101 0.950 . S
C2077 C2076 1.349 . S
C2077 C2093 1.349 . S
C2078 C2076 1.327 . S
C2078 C2097 1.429 . S
C2078 H2102 0.950 . S
C2079 C2096 1.574 . S
C2079 C2098 1.368 . S
C2079 H2103 0.949 . S
H2080 C2084 0.949 . S
C2081 C2082 1.349 . S
C2081 C2083 1.327 . S
C2081 H2104 0.950 . S
C2082 C2081 1.349 . S
C2082 C2094 1.349 . S
C2083 C2081 1.327 . S
C2083 C2099 1.429 . S
C2083 H2105 0.950 . S
C2084 H2080 0.949 . S
C2084 C2092 1.574 . S
C2084 C2100 1.368 . S
H2085 C2093 0.950 . S
H2086 C2091 0.950 . S
H2087 C2092 0.949 . S
H2088 C2094 0.950 . S
H2089 C2095 0.950 . S
H2090 C2096 0.949 . S
C2091 H2086 0.950 . S
C2091 C2093 1.327 . S
C2091 C2097 1.429 . S
C2092 C2084 1.574 . S
C2092 H2087 0.949 . S
C2092 C2098 1.368 . S
C2093 C2077 1.349 . S
C2093 H2085 0.950 . S
C2093 C2091 1.327 . S
C2094 C2082 1.349 . S
C2094 H2088 0.950 . S
C2094 C2095 1.327 . S
C2095 H2089 0.950 . S
C2095 C2094 1.327 . S
C2095 C2099 1.429 . S
C2096 C2079 1.574 . S
C2096 H2090 0.949 . S
C2096 C2100 1.368 . S
C2097 C2078 1.429 . S
C2097 C2091 1.429 . S
C2097 C2098 1.523 . S
C2098 C2079 1.368 . S
C2098 C2092 1.368 . S
C2098 C2097 1.523 . S
C2099 C2083 1.429 . S
C2099 C2095 1.429 . S
C2099 C2100 1.523 . S
C2100 C2084 1.368 . S
C2100 C2096 1.368 . S
C2100 C2099 1.523 . S
H2101 C2076 0.950 . S
H2102 C2078 0.950 . S
H2103 C2079 0.949 . S
H2104 C2081 0.950 . S
H2105 C2083 0.950 . S
C2106 C2107 1.349 . S
C2106 C2108 1.327 . S
C2106 H2131 0.950 . S
C2107 C2106 1.349 . S
C2107 C2123 1.362 . S
C2108 C2106 1.327 . S
C2108 C2127 1.429 . S
C2108 H2132 0.950 . S
C2109 C2126 1.574 . S
C2109 C2128 1.368 1_655 S
C2109 H2133 0.949 . S
H2110 C2114 0.949 . S
C2111 C2112 1.349 1_655 S
C2111 C2113 1.327 . S
C2111 H2134 0.950 . S
C2112 C2111 1.349 1_455 S
C2112 C2124 1.349 . S
C2113 C2111 1.327 . S
C2113 C2129 1.429 1_655 S
C2113 H2135 0.950 . S
C2114 H2110 0.949 . S
C2114 C2122 1.574 . S
C2114 C2130 1.368 . S
H2115 C2123 0.946 1_655 S
H2116 C2121 1.023 . S
H2117 C2122 0.949 . S
H2118 C2124 0.950 . S
H2119 C2125 0.950 . S
H2120 C2126 0.949 . S
C2121 H2116 1.023 . S
C2121 C2123 1.273 1_655 S
C2121 C2127 1.409 1_655 S
C2122 C2114 1.574 . S
C2122 H2117 0.949 . S
C2122 C2128 1.368 . S
C2123 C2107 1.362 . S
C2123 H2115 0.946 1_455 S
C2123 C2121 1.273 1_455 S
C2124 C2112 1.349 . S
C2124 H2118 0.950 . S
C2124 C2125 1.327 . S
C2125 H2119 0.950 . S
C2125 C2124 1.327 . S
C2125 C2129 1.429 . S
C2126 C2109 1.574 . S
C2126 H2120 0.949 . S
C2126 C2130 1.368 1_655 S
C2127 C2108 1.429 . S
C2127 C2121 1.409 1_455 S
C2127 C2128 1.523 . S
C2128 C2109 1.368 1_455 S
C2128 C2122 1.368 . S
C2128 C2127 1.523 . S
C2129 C2113 1.429 1_455 S
C2129 C2125 1.429 . S
C2129 C2130 1.523 . S
C2130 C2114 1.368 . S
C2130 C2126 1.368 1_455 S
C2130 C2129 1.523 . S
H2131 C2106 0.950 . S
H2132 C2108 0.950 . S
H2133 C2109 0.949 . S
H2134 C2111 0.950 . S
H2135 C2113 0.950 . S
C2136 C2137 1.349 . S
C2136 C2138 1.327 . S
C2136 H2161 0.950 . S
C2137 C2136 1.349 . S
C2137 C2153 1.349 . S
C2138 C2136 1.327 . S
C2138 C2157 1.429 . S
C2138 H2162 0.950 . S
C2139 C2156 1.574 . S
C2139 C2158 1.368 . S
C2139 H2163 0.949 . S
H2140 C2144 0.949 . S
C2141 C2142 1.349 . S
C2141 C2143 1.327 . S
C2141 H2164 0.950 . S
C2142 C2141 1.349 . S
C2142 C2154 1.349 . S
C2143 C2141 1.327 . S
C2143 C2159 1.429 . S
C2143 H2165 0.950 . S
C2144 H2140 0.949 . S
C2144 C2152 1.574 . S
C2144 C2160 1.368 . S
H2145 C2153 0.950 . S
H2146 C2151 0.950 . S
H2147 C2152 0.949 . S
H2148 C2154 0.950 . S
H2149 C2155 0.950 . S
H2150 C2156 0.949 . S
C2151 H2146 0.950 . S
C2151 C2153 1.327 . S
C2151 C2157 1.429 . S
C2152 C2144 1.574 . S
C2152 H2147 0.949 . S
C2152 C2158 1.368 . S
C2153 C2137 1.349 . S
C2153 H2145 0.950 . S
C2153 C2151 1.327 . S
C2154 C2142 1.349 . S
C2154 H2148 0.950 . S
C2154 C2155 1.327 . S
C2155 H2149 0.950 . S
C2155 C2154 1.327 . S
C2155 C2159 1.429 . S
C2156 C2139 1.574 . S
C2156 H2150 0.949 . S
C2156 C2160 1.368 . S
C2157 C2138 1.429 . S
C2157 C2151 1.429 . S
C2157 C2158 1.523 . S
C2158 C2139 1.368 . S
C2158 C2152 1.368 . S
C2158 C2157 1.523 . S
C2159 C2143 1.429 . S
C2159 C2155 1.429 . S
C2159 C2160 1.523 . S
C2160 C2144 1.368 . S
C2160 C2156 1.368 . S
C2160 C2159 1.523 . S
H2161 C2136 0.950 . S
H2162 C2138 0.950 . S
H2163 C2139 0.949 . S
H2164 C2141 0.950 . S
H2165 C2143 0.950 . S
C2166 C2167 1.349 1_545 S
C2166 C2168 1.327 . S
C2166 H2191 0.950 . S
C2167 C2166 1.349 1_565 S
C2167 C2183 1.349 . S
C2168 C2166 1.327 . S
C2168 C2187 1.429 1_545 S
C2168 H2192 0.950 . S
C2169 C2186 1.574 . S
C2169 C2188 1.368 . S
C2169 H2193 0.949 . S
H2170 C2174 0.949 . S
C2171 C2172 1.349 . S
C2171 C2173 1.327 . S
C2171 H2194 0.950 . S
C2172 C2171 1.349 . S
C2172 C2184 1.349 1_565 S
C2173 C2171 1.327 . S
C2173 C2189 1.429 . S
C2173 H2195 0.950 . S
C2174 H2170 0.949 . S
C2174 C2182 1.574 . S
C2174 C2190 1.368 1_545 S
H2175 C2183 0.950 . S
H2176 C2181 0.950 . S
H2177 C2182 0.949 . S
H2178 C2184 0.950 . S
H2179 C2185 0.950 . S
H2180 C2186 0.949 . S
C2181 H2176 0.950 . S
C2181 C2183 1.327 . S
C2181 C2187 1.429 . S
C2182 C2174 1.574 . S
C2182 H2177 0.949 . S
C2182 C2188 1.368 1_545 S
C2183 C2167 1.349 . S
C2183 H2175 0.950 . S
C2183 C2181 1.327 . S
C2184 C2172 1.349 1_545 S
C2184 H2178 0.950 . S
C2184 C2185 1.327 . S
C2185 H2179 0.950 . S
C2185 C2184 1.327 . S
C2185 C2189 1.429 1_545 S
C2186 C2169 1.574 . S
C2186 H2180 0.949 . S
C2186 C2190 1.368 . S
C2187 C2168 1.429 1_565 S
C2187 C2181 1.429 . S
C2187 C2188 1.523 . S
C2188 C2169 1.368 . S
C2188 C2182 1.368 1_565 S
C2188 C2187 1.523 . S
C2189 C2173 1.429 . S
C2189 C2185 1.429 1_565 S
C2189 C2190 1.523 . S
C2190 C2174 1.368 1_565 S
C2190 C2186 1.368 . S
C2190 C2189 1.523 . S
H2191 C2166 0.950 . S
H2192 C2168 0.950 . S
H2193 C2169 0.949 . S
H2194 C2171 0.950 . S
H2195 C2173 0.950 . S
C2196 C2197 1.349 1_545 S
C2196 C2198 1.327 . S
C2196 H2221 0.950 . S
C2197 C2196 1.349 1_565 S
C2197 C2213 1.349 . S
C2198 C2196 1.327 . S
C2198 C2217 1.429 1_545 S
C2198 H2222 0.950 . S
C2199 C2216 1.574 . S
C2199 C2218 1.368 . S
C2199 H2223 0.949 . S
H2200 C2204 0.949 . S
C2201 C2202 1.365 . S
C2201 C2203 1.327 . S
C2201 H2224 0.950 . S
C2202 C2201 1.365 . S
C2202 C2214 1.343 1_565 S
C2203 C2201 1.327 . S
C2203 C2219 1.429 . S
C2203 H2225 0.950 . S
C2204 H2200 0.949 . S
C2204 C2212 1.574 . S
C2204 C2220 1.368 1_545 S
H2205 C2213 0.950 . S
H2206 C2211 0.950 . S
H2207 C2212 0.949 . S
H2208 C2214 0.950 . S
H2209 C2215 0.950 . S
H2210 C2216 0.949 . S
C2211 H2206 0.950 . S
C2211 C2213 1.327 . S
C2211 C2217 1.429 . S
C2212 C2204 1.574 . S
C2212 H2207 0.949 . S
C2212 C2218 1.368 1_545 S
C2213 C2197 1.349 . S
C2213 H2205 0.950 . S
C2213 C2211 1.327 . S
C2214 C2202 1.343 1_545 S
C2214 H2208 0.950 . S
C2214 C2215 1.327 . S
C2215 H2209 0.950 . S
C2215 C2214 1.327 . S
C2215 C2219 1.429 1_545 S
C2216 C2199 1.574 . S
C2216 H2210 0.949 . S
C2216 C2220 1.368 . S
C2217 C2198 1.429 1_565 S
C2217 C2211 1.429 . S
C2217 C2218 1.523 . S
C2218 C2199 1.368 . S
C2218 C2212 1.368 1_565 S
C2218 C2217 1.523 . S
C2219 C2203 1.429 . S
C2219 C2215 1.429 1_565 S
C2219 C2220 1.523 . S
C2220 C2204 1.368 1_565 S
C2220 C2216 1.368 . S
C2220 C2219 1.523 . S
H2221 C2196 0.950 . S
H2222 C2198 0.950 . S
H2223 C2199 0.949 . S
H2224 C2201 0.950 . S
H2225 C2203 0.950 . S
C2226 C2227 1.349 . S
C2226 C2228 1.327 . S
C2226 H2251 0.950 . S
C2227 C2226 1.349 . S
C2227 C2243 1.349 1_455 S
C2228 C2226 1.327 . S
C2228 C2247 1.429 . S
C2228 H2252 0.950 . S
C2229 C2246 1.574 . S
C2229 C2248 1.368 1_655 S
C2229 H2253 0.949 . S
H2230 C2234 0.949 . S
C2231 C2232 1.356 . S
C2231 C2233 1.327 . S
C2231 H2254 0.950 . S
C2232 C2231 1.356 . S
C2232 C2244 1.346 1_655 S
C2233 C2231 1.327 . S
C2233 C2249 1.429 1_655 S
C2233 H2255 0.950 . S
C2234 H2230 0.949 . S
C2234 C2242 1.574 . S
C2234 C2250 1.368 . S
H2235 C2243 0.950 . S
H2236 C2241 0.950 . S
H2237 C2242 0.949 . S
H2238 C2244 0.950 . S
H2239 C2245 0.950 . S
H2240 C2246 0.949 . S
C2241 H2236 0.950 . S
C2241 C2243 1.327 . S
C2241 C2247 1.429 1_655 S
C2242 C2234 1.574 . S
C2242 H2237 0.949 . S
C2242 C2248 1.368 . S
C2243 C2227 1.349 1_655 S
C2243 H2235 0.950 . S
C2243 C2241 1.327 . S
C2244 C2232 1.346 1_455 S
C2244 H2238 0.950 . S
C2244 C2245 1.327 . S
C2245 H2239 0.950 . S
C2245 C2244 1.327 . S
C2245 C2249 1.429 . S
C2246 C2229 1.574 . S
C2246 H2240 0.949 . S
C2246 C2250 1.368 1_655 S
C2247 C2228 1.429 . S
C2247 C2241 1.429 1_455 S
C2247 C2248 1.523 . S
C2248 C2229 1.368 1_455 S
C2248 C2242 1.368 . S
C2248 C2247 1.523 . S
C2249 C2233 1.429 1_455 S
C2249 C2245 1.429 . S
C2249 C2250 1.523 . S
C2250 C2234 1.368 . S
C2250 C2246 1.368 1_455 S
C2250 C2249 1.523 . S
H2251 C2226 0.950 . S
H2252 C2228 0.950 . S
H2253 C2229 0.949 . S
H2254 C2231 0.950 . S
H2255 C2233 0.950 . S
C2256 C2257 1.349 . S
C2256 C2258 1.327 . S
C2256 H2281 0.950 . S
C2257 C2256 1.349 . S
C2257 C2273 1.349 . S
C2258 C2256 1.327 . S
C2258 C2277 1.429 . S
C2258 H2282 0.950 . S
C2259 C2276 1.574 . S
C2259 C2278 1.368 . S
C2259 H2283 0.949 . S
H2260 C2264 0.949 . S
C2261 C2262 1.349 . S
C2261 C2263 1.327 . S
C2261 H2284 0.950 . S
C2262 C2261 1.349 . S
C2262 C2274 1.349 . S
C2263 C2261 1.327 . S
C2263 C2279 1.429 . S
C2263 H2285 0.950 . S
C2264 H2260 0.949 . S
C2264 C2272 1.574 . S
C2264 C2280 1.368 . S
H2265 C2273 0.950 . S
H2266 C2271 0.950 . S
H2267 C2272 0.949 . S
H2268 C2274 0.950 . S
H2269 C2275 0.950 . S
H2270 C2276 0.949 . S
C2271 H2266 0.950 . S
C2271 C2273 1.327 . S
C2271 C2277 1.429 . S
C2272 C2264 1.574 . S
C2272 H2267 0.949 . S
C2272 C2278 1.368 . S
C2273 C2257 1.349 . S
C2273 H2265 0.950 . S
C2273 C2271 1.327 . S
C2274 C2262 1.349 . S
C2274 H2268 0.950 . S
C2274 C2275 1.327 . S
C2275 H2269 0.950 . S
C2275 C2274 1.327 . S
C2275 C2279 1.429 . S
C2276 C2259 1.574 . S
C2276 H2270 0.949 . S
C2276 C2280 1.368 . S
C2277 C2258 1.429 . S
C2277 C2271 1.429 . S
C2277 C2278 1.523 . S
C2278 C2259 1.368 . S
C2278 C2272 1.368 . S
C2278 C2277 1.523 . S
C2279 C2263 1.429 . S
C2279 C2275 1.429 . S
C2279 C2280 1.523 . S
C2280 C2264 1.368 . S
C2280 C2276 1.368 . S
C2280 C2279 1.523 . S
H2281 C2256 0.950 . S
H2282 C2258 0.950 . S
H2283 C2259 0.949 . S
H2284 C2261 0.950 . S
H2285 C2263 0.950 . S
C2286 C2287 1.349 . S
C2286 C2288 1.327 . S
C2286 H2311 0.950 . S
C2287 C2286 1.349 . S
C2287 C2303 1.349 . S
C2288 C2286 1.327 . S
C2288 C2307 1.429 . S
C2288 H2312 0.950 . S
C2289 C2306 1.574 . S
C2289 C2308 1.368 . S
C2289 H2313 0.949 . S
H2290 C2294 0.949 . S
C2291 C2292 1.349 . S
C2291 C2293 1.327 . S
C2291 H2314 0.950 . S
C2292 C2291 1.349 . S
C2292 C2304 1.349 . S
C2293 C2291 1.327 . S
C2293 C2309 1.429 . S
C2293 H2315 0.950 . S
C2294 H2290 0.949 . S
C2294 C2302 1.574 . S
C2294 C2310 1.368 . S
H2295 C2303 0.950 . S
H2296 C2301 0.950 . S
H2297 C2302 0.949 . S
H2298 C2304 0.950 . S
H2299 C2305 0.950 . S
H2300 C2306 0.949 . S
C2301 H2296 0.950 . S
C2301 C2303 1.327 . S
C2301 C2307 1.429 . S
C2302 C2294 1.574 . S
C2302 H2297 0.949 . S
C2302 C2308 1.368 . S
C2303 C2287 1.349 . S
C2303 H2295 0.950 . S
C2303 C2301 1.327 . S
C2304 C2292 1.349 . S
C2304 H2298 0.950 . S
C2304 C2305 1.327 . S
C2305 H2299 0.950 . S
C2305 C2304 1.327 . S
C2305 C2309 1.429 . S
C2306 C2289 1.574 . S
C2306 H2300 0.949 . S
C2306 C2310 1.368 . S
C2307 C2288 1.429 . S
C2307 C2301 1.429 . S
C2307 C2308 1.523 . S
C2308 C2289 1.368 . S
C2308 C2302 1.368 . S
C2308 C2307 1.523 . S
C2309 C2293 1.429 . S
C2309 C2305 1.429 . S
C2309 C2310 1.523 . S
C2310 C2294 1.368 . S
C2310 C2306 1.368 . S
C2310 C2309 1.523 . S
H2311 C2286 0.950 . S
H2312 C2288 0.950 . S
H2313 C2289 0.949 . S
H2314 C2291 0.950 . S
H2315 C2293 0.950 . S
C2316 C2317 1.349 . S
C2316 C2318 1.327 . S
C2316 H2341 0.950 . S
C2317 C2316 1.349 . S
C2317 C2333 1.349 . S
C2318 C2316 1.327 . S
C2318 C2337 1.429 . S
C2318 H2342 0.950 . S
C2319 C2336 1.574 . S
C2319 C2338 1.368 . S
C2319 H2343 0.949 . S
H2320 C2324 0.949 . S
C2321 C2322 1.349 . S
C2321 C2323 1.327 . S
C2321 H2344 0.950 . S
C2322 C2321 1.349 . S
C2322 C2334 1.349 . S
C2323 C2321 1.327 . S
C2323 C2339 1.429 . S
C2323 H2345 0.950 . S
C2324 H2320 0.949 . S
C2324 C2332 1.574 . S
C2324 C2340 1.368 . S
H2325 C2333 0.950 . S
H2326 C2331 0.950 . S
H2327 C2332 0.949 . S
H2328 C2334 0.950 . S
H2329 C2335 0.950 . S
H2330 C2336 0.949 . S
C2331 H2326 0.950 . S
C2331 C2333 1.327 . S
C2331 C2337 1.429 . S
C2332 C2324 1.574 . S
C2332 H2327 0.949 . S
C2332 C2338 1.368 . S
C2333 C2317 1.349 . S
C2333 H2325 0.950 . S
C2333 C2331 1.327 . S
C2334 C2322 1.349 . S
C2334 H2328 0.950 . S
C2334 C2335 1.327 . S
C2335 H2329 0.950 . S
C2335 C2334 1.327 . S
C2335 C2339 1.429 . S
C2336 C2319 1.574 . S
C2336 H2330 0.949 . S
C2336 C2340 1.368 . S
C2337 C2318 1.429 . S
C2337 C2331 1.429 . S
C2337 C2338 1.523 . S
C2338 C2319 1.368 . S
C2338 C2332 1.368 . S
C2338 C2337 1.523 . S
C2339 C2323 1.429 . S
C2339 C2335 1.429 . S
C2339 C2340 1.523 . S
C2340 C2324 1.368 . S
C2340 C2336 1.368 . S
C2340 C2339 1.523 . S
H2341 C2316 0.950 . S
H2342 C2318 0.950 . S
H2343 C2319 0.949 . S
H2344 C2321 0.950 . S
H2345 C2323 0.950 . S
C2346 C2347 1.349 . S
C2346 C2348 1.327 . S
C2346 H2371 0.950 . S
C2347 C2346 1.349 . S
C2347 C2363 1.349 . S
C2348 C2346 1.327 . S
C2348 C2367 1.429 . S
C2348 H2372 0.950 . S
C2349 C2366 1.574 . S
C2349 C2368 1.368 . S
C2349 H2373 0.949 . S
H2350 C2354 0.949 . S
C2351 C2352 1.349 . S
C2351 C2353 1.327 . S
C2351 H2374 0.950 . S
C2352 C2351 1.349 . S
C2352 C2364 1.349 . S
C2353 C2351 1.327 . S
C2353 C2369 1.429 . S
C2353 H2375 0.950 . S
C2354 H2350 0.949 . S
C2354 C2362 1.574 . S
C2354 C2370 1.368 . S
H2355 C2363 0.950 . S
H2356 C2361 0.950 . S
H2357 C2362 0.949 . S
H2358 C2364 0.950 . S
H2359 C2365 0.950 . S
H2360 C2366 0.949 . S
C2361 H2356 0.950 . S
C2361 C2363 1.327 . S
C2361 C2367 1.429 . S
C2362 C2354 1.574 . S
C2362 H2357 0.949 . S
C2362 C2368 1.368 . S
C2363 C2347 1.349 . S
C2363 H2355 0.950 . S
C2363 C2361 1.327 . S
C2364 C2352 1.349 . S
C2364 H2358 0.950 . S
C2364 C2365 1.327 . S
C2365 H2359 0.950 . S
C2365 C2364 1.327 . S
C2365 C2369 1.429 . S
C2366 C2349 1.574 . S
C2366 H2360 0.949 . S
C2366 C2370 1.368 . S
C2367 C2348 1.429 . S
C2367 C2361 1.429 . S
C2367 C2368 1.523 . S
C2368 C2349 1.368 . S
C2368 C2362 1.368 . S
C2368 C2367 1.523 . S
C2369 C2353 1.429 . S
C2369 C2365 1.429 . S
C2369 C2370 1.523 . S
C2370 C2354 1.368 . S
C2370 C2366 1.368 . S
C2370 C2369 1.523 . S
H2371 C2346 0.950 . S
H2372 C2348 0.950 . S
H2373 C2349 0.949 . S
H2374 C2351 0.950 . S
H2375 C2353 0.950 . S
C2376 C2377 1.349 . S
C2376 C2378 1.370 . S
C2376 H2401 0.950 1_545 S
C2377 C2376 1.349 . S
C2377 C2393 1.349 . S
C2378 C2376 1.370 . S
C2378 C2397 1.454 . S
C2378 H2402 0.884 1_545 S
C2379 C2396 1.574 . S
C2379 C2398 1.368 . S
C2379 H2403 0.949 . S
H2380 C2384 0.949 . S
C2381 C2382 1.349 . S
C2381 C2383 1.327 . S
C2381 H2404 0.950 . S
C2382 C2381 1.349 . S
C2382 C2394 1.349 1_545 S
C2383 C2381 1.327 . S
C2383 C2399 1.429 . S
C2383 H2405 0.950 . S
C2384 H2380 0.949 . S
C2384 C2392 1.574 . S
C2384 C2400 1.368 1_565 S
H2385 C2393 0.950 . S
H2386 C2391 0.950 . S
H2387 C2392 0.949 . S
H2388 C2394 0.950 . S
H2389 C2395 0.950 . S
H2390 C2396 0.949 . S
C2391 H2386 0.950 . S
C2391 C2393 1.327 . S
C2391 C2397 1.429 . S
C2392 C2384 1.574 . S
C2392 H2387 0.949 . S
C2392 C2398 1.368 1_565 S
C2393 C2377 1.349 . S
C2393 H2385 0.950 . S
C2393 C2391 1.327 . S
C2394 C2382 1.349 1_565 S
C2394 H2388 0.950 . S
C2394 C2395 1.327 . S
C2395 H2389 0.950 . S
C2395 C2394 1.327 . S
C2395 C2399 1.429 1_565 S
C2396 C2379 1.574 . S
C2396 H2390 0.949 . S
C2396 C2400 1.368 . S
C2397 C2378 1.454 . S
C2397 C2391 1.429 . S
C2397 C2398 1.523 . S
C2398 C2379 1.368 . S
C2398 C2392 1.368 1_545 S
C2398 C2397 1.523 . S
C2399 C2383 1.429 . S
C2399 C2395 1.429 1_545 S
C2399 C2400 1.523 . S
C2400 C2384 1.368 1_545 S
C2400 C2396 1.368 . S
C2400 C2399 1.523 . S
H2401 C2376 0.950 1_565 S
H2402 C2378 0.884 1_565 S
H2403 C2379 0.949 . S
H2404 C2381 0.950 . S
H2405 C2383 0.950 . S
C2406 C2407 1.349 . S
C2406 C2408 1.327 . S
C2406 H2431 0.950 . S
C2407 C2406 1.349 . S
C2407 C2423 1.349 . S
C2408 C2406 1.327 . S
C2408 C2427 1.429 . S
C2408 H2432 0.950 . S
C2409 C2426 1.574 . S
C2409 C2428 1.368 . S
C2409 H2433 0.949 . S
H2410 C2414 0.960 . S
C2411 C2412 1.349 . S
C2411 C2413 1.327 . S
C2411 H2434 0.950 . S
C2412 C2411 1.349 . S
C2412 C2424 1.349 . S
C2413 C2411 1.327 . S
C2413 C2429 1.429 . S
C2413 H2435 0.950 . S
C2414 H2410 0.960 . S
C2414 C2422 1.574 . S
C2414 C2430 1.368 . S
H2415 C2423 0.950 . S
H2416 C2421 0.950 . S
H2417 C2422 0.949 . S
H2418 C2424 0.944 1_455 S
H2419 C2425 0.948 . S
H2420 C2426 0.949 . S
C2421 H2416 0.950 . S
C2421 C2423 1.327 . S
C2421 C2427 1.429 . S
C2422 C2414 1.574 . S
C2422 H2417 0.949 . S
C2422 C2428 1.368 . S
C2423 C2407 1.349 . S
C2423 H2415 0.950 . S
C2423 C2421 1.327 . S
C2424 C2412 1.349 . S
C2424 H2418 0.944 1_655 S
C2424 C2425 1.327 . S
C2425 H2419 0.948 . S
C2425 C2424 1.327 . S
C2425 C2429 1.429 . S
C2426 C2409 1.574 . S
C2426 H2420 0.949 . S
C2426 C2430 1.368 . S
C2427 C2408 1.429 . S
C2427 C2421 1.429 . S
C2427 C2428 1.523 . S
C2428 C2409 1.368 . S
C2428 C2422 1.368 . S
C2428 C2427 1.523 . S
C2429 C2413 1.429 . S
C2429 C2425 1.429 . S
C2429 C2430 1.523 . S
C2430 C2414 1.368 . S
C2430 C2426 1.368 . S
C2430 C2429 1.523 . S
H2431 C2406 0.950 . S
H2432 C2408 0.950 . S
H2433 C2409 0.949 . S
H2434 C2411 0.950 . S
H2435 C2413 0.950 . S
C2436 C2437 1.349 . S
C2436 C2438 1.327 . S
C2436 H2461 0.950 . S
C2437 C2436 1.349 . S
C2437 C2453 1.349 . S
C2438 C2436 1.327 . S
C2438 C2457 1.429 . S
C2438 H2462 0.950 . S
C2439 C2456 1.574 . S
C2439 C2458 1.368 . S
C2439 H2463 0.949 . S
H2440 C2444 0.949 . S
C2441 C2442 1.349 . S
C2441 C2443 1.327 . S
C2441 H2464 0.950 . S
C2442 C2441 1.349 . S
C2442 C2454 1.349 . S
C2443 C2441 1.327 . S
C2443 C2459 1.429 . S
C2443 H2465 0.950 . S
C2444 H2440 0.949 . S
C2444 C2452 1.574 . S
C2444 C2460 1.368 . S
H2445 C2453 0.950 . S
H2446 C2451 0.950 . S
H2447 C2452 0.949 . S
H2448 C2454 0.950 . S
H2449 C2455 0.950 . S
H2450 C2456 0.949 . S
C2451 H2446 0.950 . S
C2451 C2453 1.327 . S
C2451 C2457 1.429 . S
C2452 C2444 1.574 . S
C2452 H2447 0.949 . S
C2452 C2458 1.368 . S
C2453 C2437 1.349 . S
C2453 H2445 0.950 . S
C2453 C2451 1.327 . S
C2454 C2442 1.349 . S
C2454 H2448 0.950 . S
C2454 C2455 1.327 . S
C2455 H2449 0.950 . S
C2455 C2454 1.327 . S
C2455 C2459 1.429 . S
C2456 C2439 1.574 . S
C2456 H2450 0.949 . S
C2456 C2460 1.368 . S
C2457 C2438 1.429 . S
C2457 C2451 1.429 . S
C2457 C2458 1.523 . S
C2458 C2439 1.368 . S
C2458 C2452 1.368 . S
C2458 C2457 1.523 . S
C2459 C2443 1.429 . S
C2459 C2455 1.429 . S
C2459 C2460 1.523 . S
C2460 C2444 1.368 . S
C2460 C2456 1.368 . S
C2460 C2459 1.523 . S
H2461 C2436 0.950 . S
H2462 C2438 0.950 . S
H2463 C2439 0.949 . S
H2464 C2441 0.950 . S
H2465 C2443 0.950 . S
C2466 C2467 1.349 . S
C2466 C2468 1.327 . S
C2466 H2491 0.950 . S
C2467 C2466 1.349 . S
C2467 C2483 1.349 . S
C2468 C2466 1.327 . S
C2468 C2487 1.429 . S
C2468 H2492 0.950 . S
C2469 C2486 1.574 . S
C2469 C2488 1.368 . S
C2469 H2493 0.949 . S
H2470 C2474 0.949 . S
C2471 C2472 1.349 . S
C2471 C2473 1.327 . S
C2471 H2494 0.950 . S
C2472 C2471 1.349 . S
C2472 C2484 1.349 . S
C2473 C2471 1.327 . S
C2473 C2489 1.429 . S
C2473 H2495 0.950 . S
C2474 H2470 0.949 . S
C2474 C2482 1.574 . S
C2474 C2490 1.368 . S
H2475 C2483 0.950 . S
H2476 C2481 0.950 . S
H2477 C2482 0.949 . S
H2478 C2484 0.950 . S
H2479 C2485 0.950 . S
H2480 C2486 0.949 . S
C2481 H2476 0.950 . S
C2481 C2483 1.327 . S
C2481 C2487 1.429 . S
C2482 C2474 1.574 . S
C2482 H2477 0.949 . S
C2482 C2488 1.368 . S
C2483 C2467 1.349 . S
C2483 H2475 0.950 . S
C2483 C2481 1.327 . S
C2484 C2472 1.349 . S
C2484 H2478 0.950 . S
C2484 C2485 1.327 . S
C2485 H2479 0.950 . S
C2485 C2484 1.327 . S
C2485 C2489 1.429 . S
C2486 C2469 1.574 . S
C2486 H2480 0.949 . S
C2486 C2490 1.368 . S
C2487 C2468 1.429 . S
C2487 C2481 1.429 . S
C2487 C2488 1.523 . S
C2488 C2469 1.368 . S
C2488 C2482 1.368 . S
C2488 C2487 1.523 . S
C2489 C2473 1.429 . S
C2489 C2485 1.429 . S
C2489 C2490 1.523 . S
C2490 C2474 1.368 . S
C2490 C2486 1.368 . S
C2490 C2489 1.523 . S
H2491 C2466 0.950 . S
H2492 C2468 0.950 . S
H2493 C2469 0.949 . S
H2494 C2471 0.950 . S
H2495 C2473 0.950 . S
C2496 C2497 1.349 . S
C2496 C2498 1.327 . S
C2496 H2521 0.950 . S
C2497 C2496 1.349 . S
C2497 C2513 1.349 . S
C2498 C2496 1.327 . S
C2498 C2517 1.429 . S
C2498 H2522 0.950 . S
C2499 C2516 1.574 . S
C2499 C2518 1.368 . S
C2499 H2523 0.949 . S
H2500 C2504 0.949 . S
C2501 C2502 1.349 . S
C2501 C2503 1.327 . S
C2501 H2524 0.950 . S
C2502 C2501 1.349 . S
C2502 C2514 1.349 . S
C2503 C2501 1.327 . S
C2503 C2519 1.429 . S
C2503 H2525 0.950 . S
C2504 H2500 0.949 . S
C2504 C2512 1.574 . S
C2504 C2520 1.368 . S
H2505 C2513 0.950 . S
H2506 C2511 0.950 . S
H2507 C2512 0.949 . S
H2508 C2514 0.950 . S
H2509 C2515 0.950 . S
H2510 C2516 0.949 . S
C2511 H2506 0.950 . S
C2511 C2513 1.327 . S
C2511 C2517 1.429 . S
C2512 C2504 1.574 . S
C2512 H2507 0.949 . S
C2512 C2518 1.368 . S
C2513 C2497 1.349 . S
C2513 H2505 0.950 . S
C2513 C2511 1.327 . S
C2514 C2502 1.349 . S
C2514 H2508 0.950 . S
C2514 C2515 1.327 . S
C2515 H2509 0.950 . S
C2515 C2514 1.327 . S
C2515 C2519 1.429 . S
C2516 C2499 1.574 . S
C2516 H2510 0.949 . S
C2516 C2520 1.368 . S
C2517 C2498 1.429 . S
C2517 C2511 1.429 . S
C2517 C2518 1.523 . S
C2518 C2499 1.368 . S
C2518 C2512 1.368 . S
C2518 C2517 1.523 . S
C2519 C2503 1.429 . S
C2519 C2515 1.429 . S
C2519 C2520 1.523 . S
C2520 C2504 1.368 . S
C2520 C2516 1.368 . S
C2520 C2519 1.523 . S
H2521 C2496 0.950 . S
H2522 C2498 0.950 . S
H2523 C2499 0.949 . S
H2524 C2501 0.950 . S
H2525 C2503 0.950 . S
C2526 C2527 1.349 . S
C2526 C2528 1.327 . S
C2526 H2551 0.950 . S
C2527 C2526 1.349 . S
C2527 C2543 1.349 . S
C2528 C2526 1.327 . S
C2528 C2547 1.429 . S
C2528 H2552 0.950 . S
C2529 C2546 1.574 . S
C2529 C2548 1.368 . S
C2529 H2553 0.949 . S
H2530 C2534 0.949 . S
C2531 C2532 1.349 . S
C2531 C2533 1.327 . S
C2531 H2554 0.950 . S
C2532 C2531 1.349 . S
C2532 C2544 1.349 . S
C2533 C2531 1.327 . S
C2533 C2549 1.429 . S
C2533 H2555 0.950 . S
C2534 H2530 0.949 . S
C2534 C2542 1.574 . S
C2534 C2550 1.368 . S
H2535 C2543 0.950 . S
H2536 C2541 0.950 . S
H2537 C2542 0.949 . S
H2538 C2544 0.950 . S
H2539 C2545 0.950 . S
H2540 C2546 0.949 . S
C2541 H2536 0.950 . S
C2541 C2543 1.327 . S
C2541 C2547 1.429 . S
C2542 C2534 1.574 . S
C2542 H2537 0.949 . S
C2542 C2548 1.368 . S
C2543 C2527 1.349 . S
C2543 H2535 0.950 . S
C2543 C2541 1.327 . S
C2544 C2532 1.349 . S
C2544 H2538 0.950 . S
C2544 C2545 1.327 . S
C2545 H2539 0.950 . S
C2545 C2544 1.327 . S
C2545 C2549 1.429 . S
C2546 C2529 1.574 . S
C2546 H2540 0.949 . S
C2546 C2550 1.368 . S
C2547 C2528 1.429 . S
C2547 C2541 1.429 . S
C2547 C2548 1.523 . S
C2548 C2529 1.368 . S
C2548 C2542 1.368 . S
C2548 C2547 1.523 . S
C2549 C2533 1.429 . S
C2549 C2545 1.429 . S
C2549 C2550 1.523 . S
C2550 C2534 1.368 . S
C2550 C2546 1.368 . S
C2550 C2549 1.523 . S
H2551 C2526 0.950 . S
H2552 C2528 0.950 . S
H2553 C2529 0.949 . S
H2554 C2531 0.950 . S
H2555 C2533 0.950 . S
C2556 C2557 1.349 . S
C2556 C2558 1.327 . S
C2556 H2581 0.950 . S
C2557 C2556 1.349 . S
C2557 C2573 1.349 . S
C2558 C2556 1.327 . S
C2558 C2577 1.429 . S
C2558 H2582 0.950 . S
C2559 C2576 1.574 . S
C2559 C2578 1.368 . S
C2559 H2583 0.949 . S
H2560 C2564 0.949 . S
C2561 C2562 1.349 . S
C2561 C2563 1.327 . S
C2561 H2584 0.950 . S
C2562 C2561 1.349 . S
C2562 C2574 1.349 . S
C2563 C2561 1.327 . S
C2563 C2579 1.429 . S
C2563 H2585 0.950 . S
C2564 H2560 0.949 . S
C2564 C2572 1.574 . S
C2564 C2580 1.368 . S
H2565 C2573 0.950 . S
H2566 C2571 0.950 . S
H2567 C2572 0.949 . S
H2568 C2574 0.950 . S
H2569 C2575 0.950 . S
H2570 C2576 0.949 . S
C2571 H2566 0.950 . S
C2571 C2573 1.327 . S
C2571 C2577 1.429 . S
C2572 C2564 1.574 . S
C2572 H2567 0.949 . S
C2572 C2578 1.368 . S
C2573 C2557 1.349 . S
C2573 H2565 0.950 . S
C2573 C2571 1.327 . S
C2574 C2562 1.349 . S
C2574 H2568 0.950 . S
C2574 C2575 1.327 . S
C2575 H2569 0.950 . S
C2575 C2574 1.327 . S
C2575 C2579 1.429 . S
C2576 C2559 1.574 . S
C2576 H2570 0.949 . S
C2576 C2580 1.368 . S
C2577 C2558 1.429 . S
C2577 C2571 1.429 . S
C2577 C2578 1.523 . S
C2578 C2559 1.368 . S
C2578 C2572 1.368 . S
C2578 C2577 1.523 . S
C2579 C2563 1.429 . S
C2579 C2575 1.429 . S
C2579 C2580 1.523 . S
C2580 C2564 1.368 . S
C2580 C2576 1.368 . S
C2580 C2579 1.523 . S
H2581 C2556 0.950 . S
H2582 C2558 0.950 . S
H2583 C2559 0.949 . S
H2584 C2561 0.950 . S
H2585 C2563 0.950 . S
C2586 C2587 1.349 . S
C2586 C2588 1.327 . S
C2586 H2611 0.950 . S
C2587 C2586 1.349 . S
C2587 C2603 1.349 . S
C2588 C2586 1.327 . S
C2588 C2607 1.429 . S
C2588 H2612 0.950 . S
C2589 C2606 1.574 . S
C2589 C2608 1.368 . S
C2589 H2613 0.949 . S
H2590 C2594 0.949 . S
C2591 C2592 1.349 . S
C2591 C2593 1.327 . S
C2591 H2614 0.950 . S
C2592 C2591 1.349 . S
C2592 C2604 1.349 . S
C2593 C2591 1.327 . S
C2593 C2609 1.429 . S
C2593 H2615 0.950 . S
C2594 H2590 0.949 . S
C2594 C2602 1.574 . S
C2594 C2610 1.368 . S
H2595 C2603 0.950 . S
H2596 C2601 0.950 . S
H2597 C2602 0.949 . S
H2598 C2604 0.950 . S
H2599 C2605 0.950 . S
H2600 C2606 0.949 . S
C2601 H2596 0.950 . S
C2601 C2603 1.327 . S
C2601 C2607 1.429 . S
C2602 C2594 1.574 . S
C2602 H2597 0.949 . S
C2602 C2608 1.368 . S
C2603 C2587 1.349 . S
C2603 H2595 0.950 . S
C2603 C2601 1.327 . S
C2604 C2592 1.349 . S
C2604 H2598 0.950 . S
C2604 C2605 1.327 . S
C2605 H2599 0.950 . S
C2605 C2604 1.327 . S
C2605 C2609 1.429 . S
C2606 C2589 1.574 . S
C2606 H2600 0.949 . S
C2606 C2610 1.368 . S
C2607 C2588 1.429 . S
C2607 C2601 1.429 . S
C2607 C2608 1.523 . S
C2608 C2589 1.368 . S
C2608 C2602 1.368 . S
C2608 C2607 1.523 . S
C2609 C2593 1.429 . S
C2609 C2605 1.429 . S
C2609 C2610 1.523 . S
C2610 C2594 1.368 . S
C2610 C2606 1.368 . S
C2610 C2609 1.523 . S
H2611 C2586 0.950 . S
H2612 C2588 0.950 . S
H2613 C2589 0.949 . S
H2614 C2591 0.950 . S
H2615 C2593 0.950 . S
C2616 C2617 1.349 . S
C2616 C2618 1.327 . S
C2616 H2641 0.950 . S
C2617 C2616 1.349 . S
C2617 C2633 1.349 . S
C2618 C2616 1.327 . S
C2618 C2637 1.429 . S
C2618 H2642 0.950 . S
C2619 C2636 1.574 . S
C2619 C2638 1.368 . S
C2619 H2643 0.949 . S
H2620 C2624 0.949 . S
C2621 C2622 1.349 . S
C2621 C2623 1.327 . S
C2621 H2644 0.950 . S
C2622 C2621 1.349 . S
C2622 C2634 1.349 . S
C2623 C2621 1.327 . S
C2623 C2639 1.429 . S
C2623 H2645 0.950 . S
C2624 H2620 0.949 . S
C2624 C2632 1.574 . S
C2624 C2640 1.368 . S
H2625 C2633 0.950 . S
H2626 C2631 0.950 . S
H2627 C2632 0.949 . S
H2628 C2634 0.950 . S
H2629 C2635 0.950 . S
H2630 C2636 0.949 . S
C2631 H2626 0.950 . S
C2631 C2633 1.327 . S
C2631 C2637 1.429 . S
C2632 C2624 1.574 . S
C2632 H2627 0.949 . S
C2632 C2638 1.368 . S
C2633 C2617 1.349 . S
C2633 H2625 0.950 . S
C2633 C2631 1.327 . S
C2634 C2622 1.349 . S
C2634 H2628 0.950 . S
C2634 C2635 1.327 . S
C2635 H2629 0.950 . S
C2635 C2634 1.327 . S
C2635 C2639 1.429 . S
C2636 C2619 1.574 . S
C2636 H2630 0.949 . S
C2636 C2640 1.368 . S
C2637 C2618 1.429 . S
C2637 C2631 1.429 . S
C2637 C2638 1.523 . S
C2638 C2619 1.368 . S
C2638 C2632 1.368 . S
C2638 C2637 1.523 . S
C2639 C2623 1.429 . S
C2639 C2635 1.429 . S
C2639 C2640 1.523 . S
C2640 C2624 1.368 . S
C2640 C2636 1.368 . S
C2640 C2639 1.523 . S
H2641 C2616 0.950 . S
H2642 C2618 0.950 . S
H2643 C2619 0.949 . S
H2644 C2621 0.950 . S
H2645 C2623 0.950 . S
C2646 C2647 1.349 . S
C2646 C2648 1.327 . S
C2646 H2671 0.950 . S
C2647 C2646 1.349 . S
C2647 C2663 1.349 . S
C2648 C2646 1.327 . S
C2648 C2667 1.429 . S
C2648 H2672 0.950 . S
C2649 C2666 1.574 . S
C2649 C2668 1.368 . S
C2649 H2673 0.949 . S
H2650 C2654 0.949 1_455 S
C2651 C2652 1.388 . S
C2651 C2653 1.327 . S
C2651 H2674 0.950 . S
C2652 C2651 1.388 . S
C2652 C2664 1.343 1_655 S
C2653 C2651 1.327 . S
C2653 C2669 1.429 . S
C2653 H2675 0.950 . S
C2654 H2650 0.949 1_655 S
C2654 C2662 1.574 . S
C2654 C2670 1.368 . S
H2655 C2663 0.950 . S
H2656 C2661 0.950 . S
H2657 C2662 0.951 . S
H2658 C2664 0.950 . S
H2659 C2665 0.950 . S
H2660 C2666 0.949 . S
C2661 H2656 0.950 . S
C2661 C2663 1.327 . S
C2661 C2667 1.429 . S
C2662 C2654 1.574 . S
C2662 H2657 0.951 . S
C2662 C2668 1.368 . S
C2663 C2647 1.349 . S
C2663 H2655 0.950 . S
C2663 C2661 1.327 . S
C2664 C2652 1.343 1_455 S
C2664 H2658 0.950 . S
C2664 C2665 1.327 . S
C2665 H2659 0.950 . S
C2665 C2664 1.327 . S
C2665 C2669 1.429 1_455 S
C2666 C2649 1.574 . S
C2666 H2660 0.949 . S
C2666 C2670 1.368 . S
C2667 C2648 1.429 . S
C2667 C2661 1.429 . S
C2667 C2668 1.523 . S
C2668 C2649 1.368 . S
C2668 C2662 1.368 . S
C2668 C2667 1.523 . S
C2669 C2653 1.429 . S
C2669 C2665 1.429 1_655 S
C2669 C2670 1.523 . S
C2670 C2654 1.368 . S
C2670 C2666 1.368 . S
C2670 C2669 1.523 . S
H2671 C2646 0.950 . S
H2672 C2648 0.950 . S
H2673 C2649 0.949 . S
H2674 C2651 0.950 . S
H2675 C2653 0.950 . S
C2676 C2677 1.349 . S
C2676 C2678 1.327 . S
C2676 H2701 0.950 . S
C2677 C2676 1.349 . S
C2677 C2693 1.349 . S
C2678 C2676 1.327 . S
C2678 C2697 1.429 . S
C2678 H2702 0.950 . S
C2679 C2696 1.574 . S
C2679 C2698 1.368 . S
C2679 H2703 0.949 . S
H2680 C2684 0.949 . S
C2681 C2682 1.349 . S
C2681 C2683 1.327 . S
C2681 H2704 0.950 . S
C2682 C2681 1.349 . S
C2682 C2694 1.349 . S
C2683 C2681 1.327 . S
C2683 C2699 1.429 . S
C2683 H2705 0.950 . S
C2684 H2680 0.949 . S
C2684 C2692 1.574 . S
C2684 C2700 1.368 . S
H2685 C2693 0.950 . S
H2686 C2691 0.950 . S
H2687 C2692 0.949 . S
H2688 C2694 0.950 . S
H2689 C2695 0.950 . S
H2690 C2696 0.949 . S
C2691 H2686 0.950 . S
C2691 C2693 1.327 . S
C2691 C2697 1.429 . S
C2692 C2684 1.574 . S
C2692 H2687 0.949 . S
C2692 C2698 1.368 . S
C2693 C2677 1.349 . S
C2693 H2685 0.950 . S
C2693 C2691 1.327 . S
C2694 C2682 1.349 . S
C2694 H2688 0.950 . S
C2694 C2695 1.327 . S
C2695 H2689 0.950 . S
C2695 C2694 1.327 . S
C2695 C2699 1.429 . S
C2696 C2679 1.574 . S
C2696 H2690 0.949 . S
C2696 C2700 1.368 . S
C2697 C2678 1.429 . S
C2697 C2691 1.429 . S
C2697 C2698 1.523 . S
C2698 C2679 1.368 . S
C2698 C2692 1.368 . S
C2698 C2697 1.523 . S
C2699 C2683 1.429 . S
C2699 C2695 1.429 . S
C2699 C2700 1.523 . S
C2700 C2684 1.368 . S
C2700 C2696 1.368 . S
C2700 C2699 1.523 . S
H2701 C2676 0.950 . S
H2702 C2678 0.950 . S
H2703 C2679 0.949 . S
H2704 C2681 0.950 . S
H2705 C2683 0.950 . S
C2706 C2707 1.342 1_565 S
C2706 C2708 1.323 . S
C2706 H2731 0.961 . S
C2707 C2706 1.342 1_545 S
C2707 C2723 1.349 . S
C2708 C2706 1.323 . S
C2708 C2727 1.429 1_565 S
C2708 H2732 0.950 . S
C2709 C2726 1.574 . S
C2709 C2728 1.368 . S
C2709 H2733 0.949 . S
H2710 C2714 0.949 . S
C2711 C2712 1.353 1_545 S
C2711 C2713 1.327 . S
C2711 H2734 0.950 . S
C2712 C2711 1.353 1_565 S
C2712 C2724 1.341 . S
C2713 C2711 1.327 . S
C2713 C2729 1.429 . S
C2713 H2735 0.950 . S
C2714 H2710 0.949 . S
C2714 C2722 1.574 . S
C2714 C2730 1.368 1_565 S
H2715 C2723 0.950 . S
H2716 C2721 0.950 . S
H2717 C2722 0.949 . S
H2718 C2724 0.950 . S
H2719 C2725 0.950 . S
H2720 C2726 0.949 . S
C2721 H2716 0.950 . S
C2721 C2723 1.327 . S
C2721 C2727 1.429 . S
C2722 C2714 1.574 . S
C2722 H2717 0.949 . S
C2722 C2728 1.368 1_565 S
C2723 C2707 1.349 . S
C2723 H2715 0.950 . S
C2723 C2721 1.327 . S
C2724 C2712 1.341 . S
C2724 H2718 0.950 . S
C2724 C2725 1.327 . S
C2725 H2719 0.950 . S
C2725 C2724 1.327 . S
C2725 C2729 1.429 1_565 S
C2726 C2709 1.574 . S
C2726 H2720 0.949 . S
C2726 C2730 1.368 . S
C2727 C2708 1.429 1_545 S
C2727 C2721 1.429 . S
C2727 C2728 1.523 . S
C2728 C2709 1.368 . S
C2728 C2722 1.368 1_545 S
C2728 C2727 1.523 . S
C2729 C2713 1.429 . S
C2729 C2725 1.429 1_545 S
C2729 C2730 1.523 . S
C2730 C2714 1.368 1_545 S
C2730 C2726 1.368 . S
C2730 C2729 1.523 . S
H2731 C2706 0.961 . S
H2732 C2708 0.950 . S
H2733 C2709 0.949 . S
H2734 C2711 0.950 . S
H2735 C2713 0.950 . S
C577 C7 1.500 . S
C582 C421 1.510 . S
C607 C23 1.578 . S
C612 C446 1.568 . S
C642 C457 1.527 . S
C637 C37 1.533 . S
C667 C35 1.524 1_545 S
C672 C482 1.525 . S
C697 C9 1.538 1_455 S
C702 C500 1.538 . S
C727 C21 1.547 . S
C732 C511 1.559 . S
C757 C49 1.491 . S
C762 C493 1.501 . S
C792 C518 1.544 . S
C787 C65 1.549 . S
C822 C475 1.540 . S
C817 C79 1.534 1_565 S
C847 C77 1.492 . S
C852 C464 1.492 . S
C882 C428 1.507 . S
C877 C51 1.527 1_655 S
C907 C63 1.522 . S
C912 C439 1.544 . S
C937 C91 1.596 . S
C942 C529 1.610 . S
C967 C107 1.621 . S
C972 C554 1.608 . S
C1002 C565 1.604 . S
C997 C121 1.632 . S
C1027 C119 1.582 . S
C1032 C266 1.599 . S
C1057 C93 1.630 . S
C1062 C284 1.616 . S
C1087 C105 1.576 . S
C1092 C295 1.585 . S
C1117 C133 1.520 . S
C1122 C277 1.539 . S
C1147 C149 1.574 . S
C1152 C302 1.568 . S
C1182 C259 1.589 . S
C1177 C163 1.596 . S
C1212 C572 1.618 . S
C1207 C161 1.598 . S
C1242 C536 1.574 . S
C1237 C135 1.586 . S
C1272 C547 1.595 . S
C1267 C147 1.569 . S
C1297 C175 1.549 . S
C1302 C313 1.558 . S
C1327 C191 1.600 . S
C1332 C338 1.590 . S
C1357 C205 1.627 . S
C1362 C349 1.602 . S
C1387 C203 1.626 . S
C1392 C374 1.647 . S
C1422 C392 1.611 . S
C1417 C177 1.628 . S
C1452 C403 1.614 . S
C1447 C189 1.597 . S
C1482 C385 1.600 . S
C1477 C217 1.577 . S
C1512 C410 1.586 . S
C1507 C233 1.595 . S
C1537 C247 1.594 . S
C1542 C367 1.584 . S
C1572 C356 1.563 . S
C1567 C245 1.547 . S
C1597 C219 1.594 . S
C1602 C320 1.585 . S
C1632 C331 1.574 . S
C1627 C231 1.554 . S
C1662 C268 1.457 . S
C1657 C8 1.524 . S
C1687 C17 1.461 . S
C1692 C286 1.392 . S
C1722 C296 1.455 . S
C1717 C31 1.522 . S
C1752 C314 1.464 . S
C1747 C36 1.534 . S
C1782 C340 1.432 . S
C1777 C3 1.499 . S
C1812 C350 1.393 . S
C1807 C22 1.461 . S
C1837 C50 1.559 . S
C1842 C358 1.476 . S
C1867 C59 1.486 . S
C1872 C322 1.398 . S
C1897 C73 1.527 . S
C1902 C332 1.453 . S
C1927 C78 1.581 . S
C1932 C278 1.510 . S
C1962 C304 1.434 . S
C1957 C45 1.519 . S
C1987 C64 1.496 . S
C1992 C260 1.419 . S
C2022 C376 1.447 . S
C2017 C92 1.515 . S
C2047 C101 1.561 . S
C2052 C394 1.487 . S
C2077 C115 1.580 . S
C2082 C404 1.504 . S
C2112 C422 1.402 . S
C2107 C120 1.461 . S
C2137 C87 1.511 . S
C2142 C448 1.439 . S
C2167 C106 1.430 . S
C2172 C458 1.372 . S
C2197 C134 1.456 . S
C2202 C466 1.393 . S
C2227 C143 1.457 . S
C2232 C430 1.381 1_655 S
C2262 C440 1.475 . S
C2257 C157 1.551 . S
C2287 C162 1.552 . S
C2292 C386 1.474 . S
C2317 C129 1.597 . S
C2322 C412 1.499 . S
C2352 C368 1.501 . S
C2347 C148 1.581 . S
C2382 C484 1.393 . S
C2377 C176 1.453 . S
C2407 C185 1.449 . S
C2412 C502 1.380 . S
C2437 C199 1.525 . S
C2442 C512 1.454 . S
C2472 C530 1.443 . S
C2467 C204 1.514 . S
C2502 C556 1.495 . S
C2497 C171 1.572 . S
C2527 C190 1.553 . S
C2532 C566 1.481 . S
C2557 C218 1.550 . S
C2562 C574 1.459 . S
C2587 C227 1.584 . S
C2592 C538 1.490 . S
C2622 C548 1.513 . S
C2617 C241 1.595 . S
C2652 C494 1.365 1_655 S
C2647 C246 1.460 . S
C2682 C520 1.448 . S
C2677 C213 1.538 . S
C2707 C232 1.444 . S
C2712 C476 1.411 . S
